# Generated by pormake.
# Topology wga, (5)-cn, num edge types: 1
# Building blocks:
#     Node 0, Type 0, BuildingBlock: BEQFEK_clean_sbu_0, # of connection points: 5
#     Node 1, Type 0, BuildingBlock: BEQFEK_clean_sbu_0, # of connection points: 5
#     Node 2, Type 0, BuildingBlock: BEQFEK_clean_sbu_0, # of connection points: 5
#     Node 3, Type 0, BuildingBlock: BEQFEK_clean_sbu_0, # of connection points: 5
#     Node 4, Type 0, BuildingBlock: BEQFEK_clean_sbu_0, # of connection points: 5
#     Node 5, Type 0, BuildingBlock: BEQFEK_clean_sbu_0, # of connection points: 5
#     Node 6, Type 0, BuildingBlock: BEQFEK_clean_sbu_0, # of connection points: 5
#     Node 7, Type 0, BuildingBlock: BEQFEK_clean_sbu_0, # of connection points: 5
#     Node 8, Type 0, BuildingBlock: BEQFEK_clean_sbu_0, # of connection points: 5
#     Node 9, Type 0, BuildingBlock: BEQFEK_clean_sbu_0, # of connection points: 5
#     Node 10, Type 0, BuildingBlock: BEQFEK_clean_sbu_0, # of connection points: 5
#     Node 11, Type 0, BuildingBlock: BEQFEK_clean_sbu_0, # of connection points: 5
#     Node 12, Type 0, BuildingBlock: BEQFEK_clean_sbu_0, # of connection points: 5
#     Node 13, Type 0, BuildingBlock: BEQFEK_clean_sbu_0, # of connection points: 5
#     Node 14, Type 0, BuildingBlock: BEQFEK_clean_sbu_0, # of connection points: 5
#     Node 15, Type 0, BuildingBlock: BEQFEK_clean_sbu_0, # of connection points: 5
#     Node 16, Type 0, BuildingBlock: BEQFEK_clean_sbu_0, # of connection points: 5
#     Node 17, Type 0, BuildingBlock: BEQFEK_clean_sbu_0, # of connection points: 5
#     Node 18, Type 0, BuildingBlock: BEQFEK_clean_sbu_0, # of connection points: 5
#     Node 19, Type 0, BuildingBlock: BEQFEK_clean_sbu_0, # of connection points: 5
#     Node 20, Type 0, BuildingBlock: BEQFEK_clean_sbu_0, # of connection points: 5
#     Node 21, Type 0, BuildingBlock: BEQFEK_clean_sbu_0, # of connection points: 5
#     Node 22, Type 0, BuildingBlock: BEQFEK_clean_sbu_0, # of connection points: 5
#     Node 23, Type 0, BuildingBlock: BEQFEK_clean_sbu_0, # of connection points: 5
#     Node 24, Type 0, BuildingBlock: BEQFEK_clean_sbu_0, # of connection points: 5
#     Node 25, Type 0, BuildingBlock: BEQFEK_clean_sbu_0, # of connection points: 5
#     Node 26, Type 0, BuildingBlock: BEQFEK_clean_sbu_0, # of connection points: 5
#     Node 27, Type 0, BuildingBlock: BEQFEK_clean_sbu_0, # of connection points: 5
#     Node 28, Type 0, BuildingBlock: BEQFEK_clean_sbu_0, # of connection points: 5
#     Node 29, Type 0, BuildingBlock: BEQFEK_clean_sbu_0, # of connection points: 5
#     Node 30, Type 0, BuildingBlock: BEQFEK_clean_sbu_0, # of connection points: 5
#     Node 31, Type 0, BuildingBlock: BEQFEK_clean_sbu_0, # of connection points: 5
#     Edge 32, Type (0, 0), BuildingBlock: KIFKEQ_clean_linker_1, # of connection points: 2
#     Edge 33, Type (0, 0), BuildingBlock: KIFKEQ_clean_linker_1, # of connection points: 2
#     Edge 34, Type (0, 0), BuildingBlock: KIFKEQ_clean_linker_1, # of connection points: 2
#     Edge 35, Type (0, 0), BuildingBlock: KIFKEQ_clean_linker_1, # of connection points: 2
#     Edge 36, Type (0, 0), BuildingBlock: KIFKEQ_clean_linker_1, # of connection points: 2
#     Edge 37, Type (0, 0), BuildingBlock: KIFKEQ_clean_linker_1, # of connection points: 2
#     Edge 38, Type (0, 0), BuildingBlock: KIFKEQ_clean_linker_1, # of connection points: 2
#     Edge 39, Type (0, 0), BuildingBlock: KIFKEQ_clean_linker_1, # of connection points: 2
#     Edge 40, Type (0, 0), BuildingBlock: KIFKEQ_clean_linker_1, # of connection points: 2
#     Edge 41, Type (0, 0), BuildingBlock: KIFKEQ_clean_linker_1, # of connection points: 2
#     Edge 42, Type (0, 0), BuildingBlock: KIFKEQ_clean_linker_1, # of connection points: 2
#     Edge 43, Type (0, 0), BuildingBlock: KIFKEQ_clean_linker_1, # of connection points: 2
#     Edge 44, Type (0, 0), BuildingBlock: KIFKEQ_clean_linker_1, # of connection points: 2
#     Edge 45, Type (0, 0), BuildingBlock: KIFKEQ_clean_linker_1, # of connection points: 2
#     Edge 46, Type (0, 0), BuildingBlock: KIFKEQ_clean_linker_1, # of connection points: 2
#     Edge 47, Type (0, 0), BuildingBlock: KIFKEQ_clean_linker_1, # of connection points: 2
#     Edge 48, Type (0, 0), BuildingBlock: KIFKEQ_clean_linker_1, # of connection points: 2
#     Edge 49, Type (0, 0), BuildingBlock: KIFKEQ_clean_linker_1, # of connection points: 2
#     Edge 50, Type (0, 0), BuildingBlock: KIFKEQ_clean_linker_1, # of connection points: 2
#     Edge 51, Type (0, 0), BuildingBlock: KIFKEQ_clean_linker_1, # of connection points: 2
#     Edge 52, Type (0, 0), BuildingBlock: KIFKEQ_clean_linker_1, # of connection points: 2
#     Edge 53, Type (0, 0), BuildingBlock: KIFKEQ_clean_linker_1, # of connection points: 2
#     Edge 54, Type (0, 0), BuildingBlock: KIFKEQ_clean_linker_1, # of connection points: 2
#     Edge 55, Type (0, 0), BuildingBlock: KIFKEQ_clean_linker_1, # of connection points: 2
#     Edge 56, Type (0, 0), BuildingBlock: KIFKEQ_clean_linker_1, # of connection points: 2
#     Edge 57, Type (0, 0), BuildingBlock: KIFKEQ_clean_linker_1, # of connection points: 2
#     Edge 58, Type (0, 0), BuildingBlock: KIFKEQ_clean_linker_1, # of connection points: 2
#     Edge 59, Type (0, 0), BuildingBlock: KIFKEQ_clean_linker_1, # of connection points: 2
#     Edge 60, Type (0, 0), BuildingBlock: KIFKEQ_clean_linker_1, # of connection points: 2
#     Edge 61, Type (0, 0), BuildingBlock: KIFKEQ_clean_linker_1, # of connection points: 2
#     Edge 62, Type (0, 0), BuildingBlock: KIFKEQ_clean_linker_1, # of connection points: 2
#     Edge 63, Type (0, 0), BuildingBlock: KIFKEQ_clean_linker_1, # of connection points: 2
#     Edge 64, Type (0, 0), BuildingBlock: KIFKEQ_clean_linker_1, # of connection points: 2
#     Edge 65, Type (0, 0), BuildingBlock: KIFKEQ_clean_linker_1, # of connection points: 2
#     Edge 66, Type (0, 0), BuildingBlock: KIFKEQ_clean_linker_1, # of connection points: 2
#     Edge 67, Type (0, 0), BuildingBlock: KIFKEQ_clean_linker_1, # of connection points: 2
#     Edge 68, Type (0, 0), BuildingBlock: KIFKEQ_clean_linker_1, # of connection points: 2
#     Edge 69, Type (0, 0), BuildingBlock: KIFKEQ_clean_linker_1, # of connection points: 2
#     Edge 70, Type (0, 0), BuildingBlock: KIFKEQ_clean_linker_1, # of connection points: 2
#     Edge 71, Type (0, 0), BuildingBlock: KIFKEQ_clean_linker_1, # of connection points: 2
#     Edge 72, Type (0, 0), BuildingBlock: KIFKEQ_clean_linker_1, # of connection points: 2
#     Edge 73, Type (0, 0), BuildingBlock: KIFKEQ_clean_linker_1, # of connection points: 2
#     Edge 74, Type (0, 0), BuildingBlock: KIFKEQ_clean_linker_1, # of connection points: 2
#     Edge 75, Type (0, 0), BuildingBlock: KIFKEQ_clean_linker_1, # of connection points: 2
#     Edge 76, Type (0, 0), BuildingBlock: KIFKEQ_clean_linker_1, # of connection points: 2
#     Edge 77, Type (0, 0), BuildingBlock: KIFKEQ_clean_linker_1, # of connection points: 2
#     Edge 78, Type (0, 0), BuildingBlock: KIFKEQ_clean_linker_1, # of connection points: 2
#     Edge 79, Type (0, 0), BuildingBlock: KIFKEQ_clean_linker_1, # of connection points: 2
#     Edge 80, Type (0, 0), BuildingBlock: KIFKEQ_clean_linker_1, # of connection points: 2
#     Edge 81, Type (0, 0), BuildingBlock: KIFKEQ_clean_linker_1, # of connection points: 2
#     Edge 82, Type (0, 0), BuildingBlock: KIFKEQ_clean_linker_1, # of connection points: 2
#     Edge 83, Type (0, 0), BuildingBlock: KIFKEQ_clean_linker_1, # of connection points: 2
#     Edge 84, Type (0, 0), BuildingBlock: KIFKEQ_clean_linker_1, # of connection points: 2
#     Edge 85, Type (0, 0), BuildingBlock: KIFKEQ_clean_linker_1, # of connection points: 2
#     Edge 86, Type (0, 0), BuildingBlock: KIFKEQ_clean_linker_1, # of connection points: 2
#     Edge 87, Type (0, 0), BuildingBlock: KIFKEQ_clean_linker_1, # of connection points: 2
#     Edge 88, Type (0, 0), BuildingBlock: KIFKEQ_clean_linker_1, # of connection points: 2
#     Edge 89, Type (0, 0), BuildingBlock: KIFKEQ_clean_linker_1, # of connection points: 2
#     Edge 90, Type (0, 0), BuildingBlock: KIFKEQ_clean_linker_1, # of connection points: 2
#     Edge 91, Type (0, 0), BuildingBlock: KIFKEQ_clean_linker_1, # of connection points: 2
#     Edge 92, Type (0, 0), BuildingBlock: KIFKEQ_clean_linker_1, # of connection points: 2
#     Edge 93, Type (0, 0), BuildingBlock: KIFKEQ_clean_linker_1, # of connection points: 2
#     Edge 94, Type (0, 0), BuildingBlock: KIFKEQ_clean_linker_1, # of connection points: 2
#     Edge 95, Type (0, 0), BuildingBlock: KIFKEQ_clean_linker_1, # of connection points: 2
#     Edge 96, Type (0, 0), BuildingBlock: KIFKEQ_clean_linker_1, # of connection points: 2
#     Edge 97, Type (0, 0), BuildingBlock: KIFKEQ_clean_linker_1, # of connection points: 2
#     Edge 98, Type (0, 0), BuildingBlock: KIFKEQ_clean_linker_1, # of connection points: 2
#     Edge 99, Type (0, 0), BuildingBlock: KIFKEQ_clean_linker_1, # of connection points: 2
#     Edge 100, Type (0, 0), BuildingBlock: KIFKEQ_clean_linker_1, # of connection points: 2
#     Edge 101, Type (0, 0), BuildingBlock: KIFKEQ_clean_linker_1, # of connection points: 2
#     Edge 102, Type (0, 0), BuildingBlock: KIFKEQ_clean_linker_1, # of connection points: 2
#     Edge 103, Type (0, 0), BuildingBlock: KIFKEQ_clean_linker_1, # of connection points: 2
#     Edge 104, Type (0, 0), BuildingBlock: KIFKEQ_clean_linker_1, # of connection points: 2
#     Edge 105, Type (0, 0), BuildingBlock: KIFKEQ_clean_linker_1, # of connection points: 2
#     Edge 106, Type (0, 0), BuildingBlock: KIFKEQ_clean_linker_1, # of connection points: 2
#     Edge 107, Type (0, 0), BuildingBlock: KIFKEQ_clean_linker_1, # of connection points: 2
#     Edge 108, Type (0, 0), BuildingBlock: KIFKEQ_clean_linker_1, # of connection points: 2
#     Edge 109, Type (0, 0), BuildingBlock: KIFKEQ_clean_linker_1, # of connection points: 2
#     Edge 110, Type (0, 0), BuildingBlock: KIFKEQ_clean_linker_1, # of connection points: 2
#     Edge 111, Type (0, 0), BuildingBlock: KIFKEQ_clean_linker_1, # of connection points: 2
# Relax obj value: 0.052
# Max RMSD: 0.132
# Mean RMSD: 0.132
data_MOF--net-wga--node1-BEQFEK_clean_sbu_0--edge1-KIFKEQ_clean_linker_1
_symmetry_space_group_name_H-M    P1
_symmetry_Int_Tables_number       1
_symmetry_cell_setting            triclinic
loop_
_symmetry_equiv_pos_as_xyz
'x, y, z'
_cell_length_a     109.14959
_cell_length_b     109.1534
_cell_length_c     19.678404
_cell_angle_alpha  89.964084
_cell_angle_beta   90.001111
_cell_angle_gamma 90.002669
loop_
_atom_site_label
_atom_site_type_symbol
_atom_site_fract_x
_atom_site_fract_y
_atom_site_fract_z
_atom_type_partial_charge
Co0 Co 0.06818 0.56994 0.99584 0.0
Co1 Co 0.06886 0.56468 0.1527 0.0
C2 C 0.04571 0.57248 0.08242 0.0
O3 O 0.05113 0.57305 0.02514 0.0
O4 O 0.05144 0.56946 0.13644 0.0
C5 C 0.06202 0.57841 0.8599 0.0
O6 O 0.05126 0.58127 0.88519 0.0
C7 C 0.0664 0.56712 0.30234 0.0
C8 C 0.08264 0.55667 0.33618 0.0
C9 C 0.07292 0.56361 0.35989 0.0
N10 N 0.0722 0.56265 0.24731 0.0
N11 N 0.08182 0.55633 0.26806 0.0
C12 C 0.05449 0.57388 0.29916 0.0
H13 H 0.04821 0.56907 0.26398 0.0
H14 H 0.05611 0.58323 0.27888 0.0
H15 H 0.05 0.57445 0.34956 0.0
C16 C 0.08753 0.5876 0.03472 0.0
N17 N 0.07935 0.57878 0.05017 0.0
N18 N 0.07962 0.57671 0.11603 0.0
C19 C 0.08796 0.58421 0.14469 0.0
C20 C 0.09329 0.5913 0.09412 0.0
C21 C 0.08996 0.59202 0.96401 0.0
H22 H 0.09176 0.58406 0.93046 0.0
H23 H 0.08168 0.59676 0.94448 0.0
H24 H 0.0979 0.59835 0.96198 0.0
O25 O 0.07134 0.55221 0.00072 0.0
O26 O 0.07195 0.54835 0.11118 0.0
H27 H 0.09523 0.57692 0.23703 0.0
H28 H 0.09567 0.59342 0.23245 0.0
C29 C 0.09022 0.58517 0.21953 0.0
H30 H 0.08135 0.58564 0.24678 0.0
H31 H 0.08795 0.55192 0.23548 0.0
O32 O 0.07026 0.5741 0.8988 0.0
C33 C 0.07261 0.54474 0.0498 0.0
Co34 Co 0.67906 0.81729 0.23999 0.0
Co35 Co 0.68421 0.81889 0.39668 0.0
C36 C 0.67688 0.79524 0.3296 0.0
O37 O 0.67613 0.80032 0.27139 0.0
O38 O 0.67988 0.80132 0.3824 0.0
C39 C 0.67034 0.81101 0.10374 0.0
O40 O 0.66675 0.8005 0.12941 0.0
C41 C 0.68024 0.8169 0.5447 0.0
C42 C 0.69143 0.83237 0.58204 0.0
C43 C 0.68359 0.82315 0.6032 0.0
N44 N 0.6858 0.82225 0.49138 0.0
N45 N 0.69258 0.83139 0.51421 0.0
C46 C 0.67103 0.80681 0.5385 0.0
H47 H 0.66628 0.80736 0.48874 0.0
H48 H 0.6642 0.80726 0.5802 0.0
H49 H 0.67585 0.79788 0.54148 0.0
C50 C 0.66117 0.83666 0.27532 0.0
N51 N 0.66999 0.8286 0.29239 0.0
N52 N 0.67208 0.82931 0.35814 0.0
C53 C 0.66462 0.83788 0.38505 0.0
C54 C 0.6575 0.84284 0.33347 0.0
C55 C 0.65677 0.83866 0.20415 0.0
H56 H 0.66474 0.84053 0.17067 0.0
H57 H 0.65229 0.83017 0.18558 0.0
H58 H 0.65024 0.84642 0.20075 0.0
O59 O 0.69675 0.82073 0.24545 0.0
O60 O 0.70054 0.82222 0.35575 0.0
H61 H 0.67253 0.84514 0.47583 0.0
H62 H 0.65611 0.84703 0.47088 0.0
C63 C 0.66385 0.84079 0.45924 0.0
H64 H 0.66258 0.83221 0.48842 0.0
H65 H 0.69776 0.83717 0.48316 0.0
O66 O 0.67514 0.81901 0.14235 0.0
C67 C 0.70416 0.82253 0.29426 0.0
Co68 Co 0.43146 0.42944 0.4867 0.0
Co69 Co 0.42983 0.4336 0.64493 0.0
C70 C 0.45338 0.42634 0.57742 0.0
O71 O 0.44823 0.426 0.5193 0.0
O72 O 0.44738 0.42915 0.63085 0.0
C73 C 0.43391 0.41742 0.35203 0.0
O74 O 0.43734 0.40728 0.38254 0.0
C75 C 0.43191 0.42934 0.79337 0.0
C76 C 0.41548 0.43907 0.83069 0.0
C77 C 0.42527 0.43197 0.85174 0.0
N78 N 0.42623 0.4346 0.74008 0.0
N79 N 0.41651 0.44052 0.763 0.0
C80 C 0.44282 0.42113 0.78733 0.0
H81 H 0.4423 0.41578 0.73947 0.0
H82 H 0.44345 0.41477 0.83125 0.0
H83 H 0.45122 0.42684 0.78567 0.0
C84 C 0.41129 0.41183 0.51847 0.0
N85 N 0.41972 0.42026 0.53654 0.0
N86 N 0.4193 0.42181 0.60295 0.0
C87 C 0.41071 0.41428 0.62909 0.0
C88 C 0.40532 0.40778 0.57651 0.0
C89 C 0.4086 0.40811 0.4469 0.0
H90 H 0.40968 0.41606 0.41234 0.0
H91 H 0.41514 0.40086 0.43143 0.0
H92 H 0.39916 0.40441 0.44224 0.0
O93 O 0.42831 0.44706 0.49633 0.0
O94 O 0.42686 0.45032 0.60713 0.0
H95 H 0.4032 0.42083 0.72249 0.0
H96 H 0.4027 0.4044 0.71378 0.0
C97 C 0.40823 0.41271 0.70341 0.0
H98 H 0.41701 0.41192 0.73129 0.0
H99 H 0.41038 0.4453 0.73205 0.0
O100 O 0.43095 0.42675 0.38697 0.0
C101 C 0.42665 0.45425 0.54618 0.0
Co102 Co 0.81881 0.18164 0.74532 0.0
Co103 Co 0.81493 0.17975 0.90363 0.0
C104 C 0.82189 0.20345 0.83665 0.0
O105 O 0.82217 0.19839 0.77831 0.0
O106 O 0.81923 0.19736 0.88999 0.0
C107 C 0.83067 0.1844 0.61066 0.0
O108 O 0.84073 0.18801 0.64131 0.0
C109 C 0.81927 0.18181 0.05191 0.0
C110 C 0.80991 0.16516 0.08931 0.0
C111 C 0.81681 0.17511 0.11029 0.0
N112 N 0.81412 0.17603 0.99868 0.0
N113 N 0.80842 0.16617 0.02164 0.0
C114 C 0.82722 0.19292 0.04582 0.0
H115 H 0.83267 0.19246 0.99829 0.0
H116 H 0.83347 0.19377 0.09004 0.0
H117 H 0.8213 0.20117 0.04342 0.0
C118 C 0.83663 0.16158 0.77523 0.0
N119 N 0.82817 0.16992 0.79416 0.0
N120 N 0.82673 0.16938 0.86063 0.0
C121 C 0.83439 0.16081 0.88596 0.0
C122 C 0.84084 0.15556 0.83276 0.0
C123 C 0.84023 0.15902 0.70331 0.0
H124 H 0.84736 0.16568 0.68754 0.0
H125 H 0.84405 0.14964 0.69809 0.0
H126 H 0.8322 0.16003 0.66935 0.0
O127 O 0.80124 0.17832 0.75586 0.0
O128 O 0.79815 0.17668 0.86675 0.0
H129 H 0.84452 0.15282 0.96972 0.0
H130 H 0.83676 0.16696 0.98843 0.0
C131 C 0.8361 0.15822 0.96006 0.0
H132 H 0.8281 0.153 0.97919 0.0
H133 H 0.80376 0.15995 0.99074 0.0
O134 O 0.82139 0.18124 0.64549 0.0
C135 C 0.79413 0.17653 0.806 0.0
Co136 Co 0.06747 0.42887 0.00102 0.0
Co137 Co 0.06899 0.4346 0.84477 0.0
C138 C 0.0455 0.4265 0.91227 0.0
O139 O 0.0506 0.42526 0.97014 0.0
O140 O 0.0515 0.4302 0.86055 0.0
C141 C 0.06137 0.42047 0.13773 0.0
O142 O 0.05059 0.41747 0.11313 0.0
C143 C 0.06675 0.43162 0.69512 0.0
C144 C 0.08236 0.44293 0.66062 0.0
C145 C 0.07305 0.4354 0.63732 0.0
N146 N 0.07229 0.43651 0.74992 0.0
N147 N 0.08154 0.44333 0.72874 0.0
C148 C 0.05534 0.42403 0.69853 0.0
H149 H 0.04894 0.42796 0.7362 0.0
H150 H 0.05774 0.41461 0.71518 0.0
H151 H 0.05059 0.42364 0.64878 0.0
C152 C 0.08708 0.41143 0.96393 0.0
N153 N 0.07896 0.42024 0.94774 0.0
N154 N 0.07958 0.42249 0.88212 0.0
C155 C 0.08815 0.41513 0.85438 0.0
C156 C 0.0932 0.40792 0.90531 0.0
C157 C 0.08912 0.40683 0.03469 0.0
H158 H 0.09094 0.41471 0.06885 0.0
H159 H 0.08067 0.40223 0.05295 0.0
H160 H 0.09693 0.40036 0.03748 0.0
O161 O 0.07036 0.44674 0.99641 0.0
O162 O 0.07225 0.4508 0.88658 0.0
H163 H 0.0955 0.42309 0.76397 0.0
H164 H 0.09692 0.40662 0.76745 0.0
C165 C 0.09092 0.4145 0.77998 0.0
H166 H 0.08226 0.41359 0.75108 0.0
H167 H 0.08739 0.44815 0.76101 0.0
O168 O 0.06949 0.42482 0.09825 0.0
C169 C 0.07225 0.45428 0.94827 0.0
Co170 Co 0.81956 0.8175 0.25889 0.0
Co171 Co 0.81542 0.81896 0.10057 0.0
C172 C 0.82253 0.79547 0.16908 0.0
O173 O 0.82288 0.80067 0.227 0.0
O174 O 0.8198 0.80141 0.11535 0.0
C175 C 0.83159 0.81505 0.39349 0.0
O176 O 0.84168 0.81151 0.3629 0.0
C177 C 0.81975 0.8168 0.95225 0.0
C178 C 0.80987 0.83311 0.91442 0.0
C179 C 0.81708 0.82338 0.8937 0.0
N180 N 0.81441 0.82246 0.00532 0.0
N181 N 0.8084 0.83211 0.98209 0.0
C182 C 0.82806 0.80597 0.95868 0.0
H183 H 0.83333 0.80653 0.0068 0.0
H184 H 0.83448 0.80541 0.91504 0.0
H185 H 0.82243 0.79751 0.96004 0.0
C186 C 0.83728 0.83754 0.2263 0.0
N187 N 0.82883 0.82911 0.20857 0.0
N188 N 0.82723 0.82949 0.14216 0.0
C189 C 0.83474 0.83807 0.11573 0.0
C190 C 0.84127 0.84348 0.16806 0.0
C191 C 0.84107 0.84026 0.29771 0.0
H192 H 0.83313 0.83931 0.33242 0.0
H193 H 0.84825 0.83365 0.31332 0.0
H194 H 0.84489 0.84966 0.30199 0.0
O195 O 0.80195 0.82077 0.24905 0.0
O196 O 0.79874 0.8221 0.13812 0.0
H197 H 0.82793 0.84551 0.02265 0.0
H198 H 0.84436 0.84633 0.03082 0.0
C199 C 0.83617 0.84062 0.0414 0.0
H200 H 0.8371 0.83188 0.0134 0.0
H201 H 0.80355 0.83821 0.01283 0.0
O202 O 0.82227 0.81808 0.35862 0.0
C203 C 0.79479 0.82242 0.19899 0.0
Co204 Co 0.43259 0.56992 0.50684 0.0
Co205 Co 0.42996 0.56533 0.3493 0.0
C206 C 0.45386 0.57299 0.41254 0.0
O207 O 0.44911 0.57386 0.47153 0.0
O208 O 0.44758 0.56953 0.36138 0.0
C209 C 0.43522 0.5818 0.64248 0.0
O210 O 0.43851 0.59206 0.61268 0.0
C211 C 0.43201 0.56951 0.20103 0.0
C212 C 0.4154 0.56013 0.1635 0.0
C213 C 0.42536 0.56701 0.14253 0.0
N214 N 0.42619 0.56438 0.25426 0.0
N215 N 0.41635 0.55868 0.23124 0.0
C216 C 0.4431 0.57748 0.20734 0.0
H217 H 0.44234 0.58327 0.25346 0.0
H218 H 0.44427 0.58341 0.16197 0.0
H219 H 0.45133 0.57159 0.21298 0.0
C220 C 0.41208 0.58729 0.47762 0.0
N221 N 0.42046 0.57887 0.45858 0.0
N222 N 0.41969 0.57722 0.39233 0.0
C223 C 0.41095 0.58469 0.36723 0.0
C224 C 0.40581 0.59123 0.42038 0.0
C225 C 0.40974 0.59108 0.54945 0.0
H226 H 0.41099 0.58317 0.58409 0.0
H227 H 0.41636 0.59835 0.56369 0.0
H228 H 0.40033 0.59478 0.55543 0.0
O229 O 0.42967 0.55219 0.49772 0.0
O230 O 0.42692 0.54874 0.38781 0.0
H231 H 0.40288 0.57807 0.27544 0.0
H232 H 0.40264 0.59452 0.28326 0.0
C233 C 0.40812 0.58615 0.29324 0.0
H234 H 0.41675 0.58677 0.26391 0.0
H235 H 0.41011 0.55403 0.26212 0.0
O236 O 0.43235 0.57253 0.60688 0.0
C237 C 0.42739 0.54492 0.44891 0.0
Co238 Co 0.67816 0.18118 0.75577 0.0
Co239 Co 0.68438 0.18005 0.59986 0.0
C240 C 0.67645 0.20346 0.66925 0.0
O241 O 0.67489 0.19819 0.7264 0.0
O242 O 0.68025 0.19757 0.61744 0.0
C243 C 0.66953 0.18704 0.89212 0.0
O244 O 0.66655 0.19782 0.86752 0.0
C245 C 0.68104 0.18225 0.44996 0.0
C246 C 0.69379 0.16786 0.41484 0.0
C247 C 0.68538 0.17642 0.39184 0.0
N248 N 0.68649 0.17715 0.50459 0.0
N249 N 0.69414 0.16863 0.48297 0.0
C250 C 0.6722 0.19272 0.45359 0.0
H251 H 0.67417 0.19858 0.49802 0.0
H252 H 0.66277 0.18907 0.45903 0.0
H253 H 0.67269 0.19842 0.40696 0.0
C254 C 0.6606 0.16189 0.71499 0.0
N255 N 0.66953 0.16999 0.70045 0.0
N256 N 0.67205 0.16947 0.63511 0.0
C257 C 0.66483 0.16093 0.60601 0.0
C258 C 0.65735 0.15585 0.65564 0.0
C259 C 0.6557 0.15974 0.78499 0.0
H260 H 0.65126 0.16826 0.80356 0.0
H261 H 0.649 0.1521 0.78628 0.0
H262 H 0.6634 0.15761 0.81984 0.0
O263 O 0.69601 0.17808 0.75244 0.0
O264 O 0.7004 0.17642 0.64289 0.0
H265 H 0.65742 0.15146 0.5181 0.0
H266 H 0.66309 0.16668 0.50271 0.0
C267 C 0.66469 0.15812 0.53158 0.0
H268 H 0.67372 0.15437 0.51635 0.0
H269 H 0.69952 0.16322 0.51495 0.0
O270 O 0.67389 0.17893 0.85265 0.0
C271 C 0.70368 0.17621 0.70494 0.0
Co272 Co 0.93121 0.42931 0.00109 0.0
Co273 Co 0.93023 0.43453 0.84423 0.0
C274 C 0.95351 0.42675 0.91386 0.0
O275 O 0.9482 0.42611 0.97144 0.0
O276 O 0.94768 0.42983 0.86027 0.0
C277 C 0.93678 0.4199 0.1369 0.0
O278 O 0.94693 0.41546 0.11078 0.0
C279 C 0.93219 0.43027 0.69634 0.0
C280 C 0.91744 0.44232 0.65818 0.0
C281 C 0.92616 0.43389 0.63755 0.0
N282 N 0.92717 0.43623 0.74928 0.0
N283 N 0.91847 0.44352 0.72594 0.0
C284 C 0.94171 0.42049 0.70324 0.0
H285 H 0.94106 0.41607 0.7539 0.0
H286 H 0.94068 0.41348 0.6628 0.0
H287 H 0.95092 0.42472 0.69847 0.0
C288 C 0.91183 0.41158 0.96338 0.0
N289 N 0.91996 0.4204 0.94741 0.0
N290 N 0.91942 0.42262 0.88172 0.0
C291 C 0.9108 0.41532 0.85388 0.0
C292 C 0.90572 0.40811 0.90466 0.0
C293 C 0.90979 0.40689 0.03392 0.0
H294 H 0.9076 0.41469 0.06798 0.0
H295 H 0.91836 0.40261 0.0528 0.0
H296 H 0.90223 0.40011 0.03594 0.0
O297 O 0.92807 0.44707 0.99515 0.0
O298 O 0.92713 0.45092 0.88471 0.0
H299 H 0.90433 0.4238 0.76278 0.0
H300 H 0.90108 0.4076 0.76766 0.0
C301 C 0.90792 0.4148 0.77958 0.0
H302 H 0.91641 0.41282 0.75081 0.0
H303 H 0.91299 0.44907 0.75662 0.0
O304 O 0.92918 0.42541 0.09868 0.0
C305 C 0.92664 0.45453 0.94614 0.0
Co306 Co 0.32019 0.18152 0.74828 0.0
Co307 Co 0.31453 0.17998 0.59201 0.0
C308 C 0.32276 0.20343 0.6588 0.0
O309 O 0.32386 0.19832 0.71674 0.0
O310 O 0.31908 0.19748 0.60687 0.0
C311 C 0.32896 0.18755 0.88479 0.0
O312 O 0.33266 0.19804 0.8593 0.0
C313 C 0.31849 0.18205 0.44404 0.0
C314 C 0.30692 0.16689 0.40625 0.0
C315 C 0.31499 0.17593 0.38534 0.0
N316 N 0.31279 0.17679 0.49719 0.0
N317 N 0.30578 0.16785 0.4741 0.0
C318 C 0.32793 0.19191 0.45067 0.0
H319 H 0.33278 0.19106 0.50003 0.0
H320 H 0.33466 0.19147 0.40845 0.0
H321 H 0.32331 0.20096 0.44924 0.0
C322 C 0.33762 0.16184 0.71159 0.0
N323 N 0.32882 0.16997 0.69534 0.0
N324 N 0.32654 0.1693 0.62975 0.0
C325 C 0.33383 0.16065 0.60219 0.0
C326 C 0.34106 0.15563 0.65311 0.0
C327 C 0.34232 0.15991 0.78221 0.0
H328 H 0.33451 0.15805 0.81676 0.0
H329 H 0.34686 0.16842 0.79999 0.0
H330 H 0.34888 0.15216 0.78492 0.0
O331 O 0.30231 0.1787 0.74323 0.0
O332 O 0.29826 0.17687 0.63337 0.0
H333 H 0.32554 0.15373 0.51163 0.0
H334 H 0.34189 0.15127 0.51575 0.0
C335 C 0.33439 0.15776 0.52791 0.0
H336 H 0.33592 0.16632 0.49886 0.0
H337 H 0.30047 0.16216 0.50498 0.0
O338 O 0.32412 0.17961 0.84595 0.0
C339 C 0.29477 0.17688 0.69506 0.0
Co340 Co 0.56772 0.56893 0.49976 0.0
Co341 Co 0.5692 0.56474 0.34153 0.0
C342 C 0.54575 0.57214 0.40963 0.0
O343 O 0.55096 0.57245 0.46757 0.0
O344 O 0.55167 0.5693 0.35599 0.0
C345 C 0.56526 0.58091 0.63443 0.0
O346 O 0.56167 0.59099 0.60389 0.0
C347 C 0.56708 0.56906 0.19319 0.0
C348 C 0.5834 0.55917 0.15556 0.0
C349 C 0.57368 0.56639 0.13472 0.0
N350 N 0.57273 0.56372 0.24634 0.0
N351 N 0.58238 0.5577 0.22323 0.0
C352 C 0.55626 0.57738 0.19948 0.0
H353 H 0.55687 0.58272 0.24731 0.0
H354 H 0.55565 0.58373 0.15554 0.0
H355 H 0.5478 0.57175 0.2014 0.0
C356 C 0.58784 0.58654 0.46745 0.0
N357 N 0.57943 0.57807 0.44963 0.0
N358 N 0.57984 0.57646 0.38326 0.0
C359 C 0.58843 0.58397 0.35692 0.0
C360 C 0.5938 0.59053 0.40931 0.0
C361 C 0.59046 0.5904 0.53886 0.0
H362 H 0.58952 0.58248 0.57373 0.0
H363 H 0.58378 0.59754 0.55404 0.0
H364 H 0.59982 0.59428 0.54338 0.0
O365 O 0.57078 0.5513 0.48992 0.0
O366 O 0.57211 0.54798 0.37913 0.0
H367 H 0.59584 0.57722 0.26372 0.0
H368 H 0.59667 0.59364 0.27211 0.0
C369 C 0.59096 0.58544 0.28261 0.0
H370 H 0.58221 0.58639 0.25465 0.0
H371 H 0.58848 0.55285 0.25405 0.0
O372 O 0.56832 0.57161 0.59951 0.0
C373 C 0.57235 0.54407 0.4401 0.0
Co374 Co 0.17894 0.81859 0.24023 0.0
Co375 Co 0.1845 0.81856 0.08359 0.0
C376 C 0.17692 0.79567 0.15739 0.0
O377 O 0.17621 0.80129 0.214 0.0
O378 O 0.1799 0.80125 0.10288 0.0
C379 C 0.16928 0.81339 0.37516 0.0
O380 O 0.16513 0.80311 0.34926 0.0
C381 C 0.18061 0.81653 0.93409 0.0
C382 C 0.19469 0.82951 0.8977 0.0
C383 C 0.18547 0.82177 0.87545 0.0
N384 N 0.18661 0.82115 0.98819 0.0
N385 N 0.19504 0.82885 0.96584 0.0
C386 C 0.17074 0.80704 0.93874 0.0
H387 H 0.17141 0.80188 0.98686 0.0
H388 H 0.16166 0.8116 0.93745 0.0
H389 H 0.17133 0.80059 0.89529 0.0
C390 C 0.16111 0.83748 0.19742 0.0
N391 N 0.17 0.8293 0.18363 0.0
N392 N 0.1725 0.82959 0.11821 0.0
C393 C 0.16536 0.83814 0.08841 0.0
C394 C 0.1579 0.84337 0.13756 0.0
C395 C 0.15618 0.83984 0.26713 0.0
H396 H 0.15203 0.8313 0.28727 0.0
H397 H 0.14925 0.84727 0.2672 0.0
H398 H 0.16384 0.8424 0.3014 0.0
O399 O 0.19663 0.82226 0.2355 0.0
O400 O 0.20078 0.82174 0.12532 0.0
H401 H 0.15883 0.84833 0.00079 0.0
H402 H 0.16274 0.83257 0.98552 0.0
C403 C 0.16536 0.84092 0.01394 0.0
H404 H 0.17471 0.84364 0.99787 0.0
H405 H 0.20097 0.83375 0.99729 0.0
O406 O 0.1747 0.82104 0.33688 0.0
C407 C 0.20421 0.82308 0.18667 0.0
Co408 Co 0.93157 0.57038 0.99488 0.0
Co409 Co 0.93025 0.56466 0.15116 0.0
C410 C 0.95367 0.57267 0.08228 0.0
O411 O 0.94849 0.57395 0.02469 0.0
O412 O 0.94773 0.56897 0.13422 0.0
C413 C 0.93729 0.57923 0.85852 0.0
O414 O 0.94788 0.5828 0.8833 0.0
C415 C 0.93225 0.56814 0.30094 0.0
C416 C 0.91763 0.55562 0.33579 0.0
C417 C 0.92629 0.5639 0.35889 0.0
N418 N 0.92714 0.56275 0.24626 0.0
N419 N 0.91846 0.55524 0.2677 0.0
C420 C 0.94288 0.57679 0.29757 0.0
H421 H 0.94891 0.57451 0.25435 0.0
H422 H 0.93941 0.58626 0.29011 0.0
H423 H 0.94836 0.57645 0.34501 0.0
C424 C 0.91203 0.58784 0.03274 0.0
N425 N 0.92018 0.57904 0.04864 0.0
N426 N 0.91959 0.57675 0.11422 0.0
C427 C 0.91097 0.58402 0.14217 0.0
C428 C 0.9059 0.59128 0.09146 0.0
C429 C 0.90995 0.59249 0.96211 0.0
H430 H 0.90802 0.58465 0.92792 0.0
H431 H 0.91843 0.59701 0.94362 0.0
H432 H 0.9022 0.59904 0.95965 0.0
O433 O 0.92866 0.55252 0.99972 0.0
O434 O 0.92691 0.54845 0.10961 0.0
H435 H 0.90419 0.57557 0.23265 0.0
H436 H 0.90158 0.59191 0.22903 0.0
C437 C 0.90812 0.58448 0.21652 0.0
H438 H 0.9167 0.58601 0.24538 0.0
H439 H 0.91302 0.54991 0.23562 0.0
O440 O 0.92941 0.57441 0.89777 0.0
C441 C 0.92682 0.54497 0.04792 0.0
Co442 Co 0.17908 0.18115 0.74461 0.0
Co443 Co 0.18441 0.18034 0.90138 0.0
C444 C 0.17645 0.20351 0.83185 0.0
O445 O 0.17587 0.19815 0.7744 0.0
O446 O 0.17953 0.19774 0.88561 0.0
C447 C 0.17085 0.18746 0.60849 0.0
O448 O 0.16827 0.1983 0.63361 0.0
C449 C 0.18212 0.18283 0.05099 0.0
C450 C 0.1923 0.16641 0.08476 0.0
C451 C 0.18554 0.17625 0.10852 0.0
N452 N 0.18646 0.17695 0.99593 0.0
N453 N 0.19263 0.16722 0.01663 0.0
C454 C 0.17561 0.19487 0.04781 0.0
H455 H 0.18064 0.2011 0.0132 0.0
H456 H 0.16628 0.19348 0.02678 0.0
H457 H 0.17501 0.19932 0.0983 0.0
C458 C 0.16153 0.16168 0.7833 0.0
N459 N 0.17032 0.16987 0.7988 0.0
N460 N 0.17241 0.16957 0.86464 0.0
C461 C 0.16493 0.1612 0.89325 0.0
C462 C 0.15785 0.15588 0.84267 0.0
C463 C 0.15708 0.15929 0.71262 0.0
H464 H 0.16504 0.15757 0.67888 0.0
H465 H 0.15228 0.16755 0.69338 0.0
H466 H 0.15081 0.15131 0.7105 0.0
O467 O 0.19683 0.17808 0.74918 0.0
O468 O 0.20074 0.17735 0.85956 0.0
H469 H 0.1721 0.1538 0.98554 0.0
H470 H 0.1556 0.15362 0.98102 0.0
C471 C 0.16393 0.15895 0.9681 0.0
H472 H 0.1636 0.16782 0.9954 0.0
H473 H 0.19692 0.16102 0.98402 0.0
O474 O 0.1749 0.17912 0.64756 0.0
C475 C 0.20432 0.17678 0.79809 0.0
Co476 Co 0.56752 0.42813 0.49524 0.0
Co477 Co 0.56877 0.43444 0.65106 0.0
C478 C 0.54538 0.42618 0.58284 0.0
O479 O 0.55059 0.42467 0.52547 0.0
O480 O 0.5513 0.43008 0.63438 0.0
C481 C 0.56146 0.4199 0.35849 0.0
O482 O 0.55052 0.4174 0.38273 0.0
C483 C 0.56648 0.4315 0.80102 0.0
C484 C 0.58156 0.44349 0.83552 0.0
C485 C 0.57259 0.43556 0.85889 0.0
N486 N 0.57183 0.43662 0.74616 0.0
N487 N 0.58075 0.44384 0.76739 0.0
C488 C 0.55549 0.42332 0.79773 0.0
H489 H 0.54924 0.42636 0.75687 0.0
H490 H 0.55849 0.41383 0.78617 0.0
H491 H 0.55035 0.42336 0.84635 0.0
C492 C 0.58698 0.41073 0.53581 0.0
N493 N 0.57886 0.41964 0.55035 0.0
N494 N 0.5794 0.42218 0.61567 0.0
C495 C 0.58794 0.41495 0.64479 0.0
C496 C 0.59303 0.40749 0.59515 0.0
C497 C 0.58907 0.40579 0.46587 0.0
H498 H 0.59113 0.41347 0.43077 0.0
H499 H 0.58057 0.4013 0.44766 0.0
H500 H 0.59675 0.39913 0.46455 0.0
O501 O 0.57045 0.446 0.49814 0.0
O502 O 0.5722 0.45048 0.60754 0.0
H503 H 0.59484 0.42357 0.73444 0.0
H504 H 0.59702 0.40716 0.73297 0.0
C505 C 0.59068 0.41471 0.7193 0.0
H506 H 0.58204 0.4135 0.74803 0.0
H507 H 0.58641 0.4489 0.73513 0.0
O508 O 0.56973 0.42383 0.39833 0.0
C509 C 0.57231 0.45372 0.5454 0.0
Co510 Co 0.3192 0.81771 0.25283 0.0
Co511 Co 0.31359 0.81889 0.40932 0.0
C512 C 0.32136 0.7955 0.34153 0.0
O513 O 0.32237 0.80071 0.28376 0.0
O514 O 0.31796 0.80142 0.39414 0.0
C515 C 0.32804 0.81157 0.11665 0.0
O516 O 0.33156 0.80103 0.14233 0.0
C517 C 0.31748 0.81673 0.55735 0.0
C518 C 0.30607 0.83201 0.59507 0.0
C519 C 0.31405 0.8229 0.61602 0.0
N520 N 0.31182 0.82204 0.50417 0.0
N521 N 0.3049 0.83106 0.52724 0.0
C522 C 0.32684 0.80679 0.55076 0.0
H523 H 0.33168 0.80759 0.50136 0.0
H524 H 0.33358 0.80719 0.59293 0.0
H525 H 0.32214 0.79778 0.55231 0.0
C526 C 0.337 0.83694 0.29076 0.0
N527 N 0.32808 0.82891 0.30652 0.0
N528 N 0.32577 0.8295 0.37209 0.0
C529 C 0.33318 0.838 0.40017 0.0
C530 C 0.34051 0.843 0.34958 0.0
C531 C 0.34171 0.83896 0.22023 0.0
H532 H 0.33391 0.84098 0.18587 0.0
H533 H 0.34614 0.83044 0.20186 0.0
H534 H 0.34836 0.84664 0.21795 0.0
O535 O 0.30147 0.82124 0.25759 0.0
O536 O 0.29732 0.82203 0.36776 0.0
H537 H 0.32492 0.84488 0.49091 0.0
H538 H 0.34129 0.8472 0.48705 0.0
C539 C 0.33374 0.84079 0.47456 0.0
H540 H 0.33518 0.83219 0.50327 0.0
H541 H 0.29966 0.8368 0.49634 0.0
O542 O 0.32328 0.81959 0.15529 0.0
C543 C 0.2939 0.82269 0.30605 0.0
Co544 Co 0.5672 0.06954 0.50024 0.0
Co545 Co 0.56902 0.06402 0.65652 0.0
C546 C 0.54542 0.07209 0.59065 0.0
O547 O 0.55045 0.07321 0.53249 0.0
O548 O 0.55146 0.06844 0.64236 0.0
C549 C 0.56092 0.07809 0.36352 0.0
O550 O 0.55037 0.08161 0.38895 0.0
C551 C 0.56697 0.06802 0.80435 0.0
C552 C 0.5824 0.05682 0.84227 0.0
C553 C 0.57318 0.06469 0.86308 0.0
N554 N 0.57235 0.06242 0.75127 0.0
N555 N 0.58146 0.05563 0.77443 0.0
C556 C 0.5569 0.07724 0.79761 0.0
H557 H 0.55776 0.08222 0.74868 0.0
H558 H 0.55706 0.08387 0.84031 0.0
H559 H 0.54796 0.07239 0.79788 0.0
C560 C 0.58687 0.08707 0.53523 0.0
N561 N 0.57881 0.07825 0.55226 0.0
N562 N 0.57958 0.07607 0.6179 0.0
C563 C 0.58822 0.08346 0.64477 0.0
C564 C 0.59313 0.09064 0.59328 0.0
C565 C 0.58869 0.09165 0.46427 0.0
H566 H 0.59045 0.08378 0.43002 0.0
H567 H 0.58017 0.09621 0.44671 0.0
H568 H 0.59646 0.09817 0.46078 0.0
O569 O 0.5701 0.0517 0.50578 0.0
O570 O 0.57213 0.04769 0.61559 0.0
H571 H 0.59546 0.07544 0.73536 0.0
H572 H 0.59749 0.09183 0.73059 0.0
C573 C 0.59118 0.08416 0.71894 0.0
H574 H 0.58263 0.08549 0.74825 0.0
H575 H 0.58725 0.05044 0.74361 0.0
O576 O 0.56896 0.07341 0.40242 0.0
C577 C 0.57203 0.04417 0.55396 0.0
Co578 Co 0.17877 0.31762 0.74812 0.0
Co579 Co 0.18466 0.31879 0.90426 0.0
C580 C 0.17637 0.29549 0.83504 0.0
O581 O 0.17506 0.30073 0.77762 0.0
O582 O 0.18019 0.30135 0.88695 0.0
C583 C 0.16972 0.31213 0.6119 0.0
O584 O 0.16594 0.30162 0.63678 0.0
C585 C 0.18101 0.31685 0.05403 0.0
C586 C 0.19411 0.33091 0.08924 0.0
C587 C 0.18547 0.32258 0.11214 0.0
N588 N 0.18664 0.32177 0.99947 0.0
N589 N 0.19449 0.3301 0.02114 0.0
C590 C 0.17189 0.30662 0.0504 0.0
H591 H 0.17359 0.30079 0.00554 0.0
H592 H 0.16254 0.31053 0.04582 0.0
H593 H 0.17231 0.30084 0.09676 0.0
C594 C 0.16142 0.33719 0.78702 0.0
N595 N 0.17024 0.32903 0.8024 0.0
N596 N 0.17265 0.3296 0.86785 0.0
C597 C 0.16545 0.33825 0.89621 0.0
C598 C 0.15811 0.34333 0.84593 0.0
C599 C 0.1566 0.33924 0.71674 0.0
H600 H 0.16435 0.34125 0.682 0.0
H601 H 0.15211 0.33072 0.69856 0.0
H602 H 0.14997 0.34693 0.71479 0.0
O603 O 0.19667 0.32035 0.75267 0.0
O604 O 0.20088 0.32201 0.86242 0.0
H605 H 0.17423 0.34463 0.98662 0.0
H606 H 0.15802 0.34796 0.98323 0.0
C607 C 0.16515 0.34111 0.97056 0.0
H608 H 0.16324 0.3326 0.99938 0.0
H609 H 0.20005 0.33534 0.98922 0.0
O610 O 0.17473 0.3199 0.65107 0.0
C611 C 0.20429 0.32209 0.8006 0.0
Co612 Co 0.93116 0.93014 0.00968 0.0
Co613 Co 0.92981 0.93458 0.16777 0.0
C614 C 0.95317 0.92706 0.09994 0.0
O615 O 0.94797 0.92654 0.042 0.0
O616 O 0.94729 0.93018 0.15318 0.0
C617 C 0.93364 0.91811 0.87484 0.0
O618 O 0.93731 0.90804 0.90523 0.0
C619 C 0.93209 0.93034 0.31597 0.0
C620 C 0.91574 0.9401 0.35406 0.0
C621 C 0.92552 0.93293 0.37462 0.0
N622 N 0.92637 0.93566 0.26302 0.0
N623 N 0.9167 0.94161 0.2864 0.0
C624 C 0.94296 0.92208 0.30918 0.0
H625 H 0.94207 0.91644 0.26252 0.0
H626 H 0.94392 0.916 0.35411 0.0
H627 H 0.95134 0.92775 0.30419 0.0
C628 C 0.91118 0.91247 0.04304 0.0
N629 N 0.91956 0.921 0.06029 0.0
N630 N 0.91918 0.92274 0.12659 0.0
C631 C 0.91063 0.91523 0.15344 0.0
C632 C 0.90527 0.90855 0.10148 0.0
C633 C 0.90856 0.90846 0.97187 0.0
H634 H 0.90942 0.91633 0.93659 0.0
H635 H 0.91531 0.90136 0.95695 0.0
H636 H 0.89923 0.90448 0.9677 0.0
O637 O 0.92771 0.94778 0.01895 0.0
O638 O 0.9269 0.95124 0.12983 0.0
H639 H 0.90325 0.92211 0.24641 0.0
H640 H 0.90246 0.90568 0.23885 0.0
C641 C 0.90814 0.91387 0.22786 0.0
H642 H 0.91691 0.91299 0.25573 0.0
H643 H 0.91055 0.94642 0.25575 0.0
O644 O 0.93054 0.92738 0.90991 0.0
C645 C 0.92628 0.95505 0.06876 0.0
Co646 Co 0.32004 0.68078 0.25514 0.0
Co647 Co 0.31425 0.68023 0.41154 0.0
C648 C 0.3219 0.7034 0.33932 0.0
O649 O 0.32294 0.69795 0.2824 0.0
O650 O 0.31865 0.69767 0.39286 0.0
C651 C 0.32939 0.68616 0.11969 0.0
O652 O 0.33325 0.6966 0.14508 0.0
C653 C 0.31816 0.68217 0.56103 0.0
C654 C 0.30422 0.66904 0.59735 0.0
C655 C 0.31337 0.67686 0.61965 0.0
N656 N 0.31219 0.67752 0.50691 0.0
N657 N 0.30385 0.66973 0.52923 0.0
C658 C 0.32795 0.69174 0.55639 0.0
H659 H 0.32729 0.69686 0.50812 0.0
H660 H 0.33707 0.68726 0.55807 0.0
H661 H 0.32727 0.69823 0.59963 0.0
C662 C 0.33779 0.66171 0.29697 0.0
N663 N 0.32888 0.66984 0.31116 0.0
N664 N 0.32636 0.6694 0.37652 0.0
C665 C 0.3335 0.66081 0.40588 0.0
C666 C 0.34099 0.65569 0.3565 0.0
C667 C 0.34277 0.65952 0.22718 0.0
H668 H 0.34692 0.66811 0.20774 0.0
H669 H 0.34971 0.65209 0.22669 0.0
H670 H 0.33514 0.65703 0.1926 0.0
O671 O 0.30228 0.6775 0.25953 0.0
O672 O 0.29806 0.67676 0.36958 0.0
H673 H 0.32417 0.65503 0.49593 0.0
H674 H 0.34012 0.65059 0.49322 0.0
C675 C 0.33349 0.65791 0.48022 0.0
H676 H 0.33596 0.66625 0.5091 0.0
H677 H 0.29795 0.66479 0.49775 0.0
O678 O 0.32425 0.67839 0.15841 0.0
C679 C 0.29467 0.67609 0.30782 0.0
Co680 Co 0.56755 0.92841 0.49695 0.0
Co681 Co 0.56858 0.93452 0.34095 0.0
C682 C 0.54527 0.9264 0.41081 0.0
O683 O 0.55057 0.92493 0.46794 0.0
O684 O 0.55111 0.93024 0.35884 0.0
C685 C 0.56202 0.91937 0.63317 0.0
O686 O 0.55147 0.91573 0.60831 0.0
C687 C 0.56652 0.93088 0.19126 0.0
C688 C 0.58033 0.94421 0.15549 0.0
C689 C 0.57211 0.93544 0.1329 0.0
N690 N 0.57141 0.93658 0.24562 0.0
N691 N 0.5796 0.94457 0.22362 0.0
C692 C 0.55646 0.92158 0.19533 0.0
H693 H 0.55082 0.923 0.24122 0.0
H694 H 0.56053 0.91228 0.19824 0.0
H695 H 0.55049 0.92208 0.1498 0.0
C696 C 0.58693 0.91094 0.45647 0.0
N697 N 0.5788 0.91984 0.44183 0.0
N698 N 0.57933 0.92236 0.37648 0.0
C699 C 0.58793 0.91519 0.3475 0.0
C700 C 0.59301 0.90772 0.3972 0.0
C701 C 0.58901 0.90599 0.52643 0.0
H702 H 0.58047 0.90158 0.54483 0.0
H703 H 0.59663 0.89926 0.52771 0.0
H704 H 0.59116 0.91366 0.56141 0.0
O705 O 0.57046 0.94629 0.49288 0.0
O706 O 0.57201 0.95064 0.38323 0.0
H707 H 0.59773 0.90807 0.25993 0.0
H708 H 0.58229 0.91307 0.2443 0.0
C709 C 0.59077 0.91508 0.2731 0.0
H710 H 0.59414 0.92424 0.25747 0.0
H711 H 0.58478 0.95021 0.25533 0.0
O712 O 0.56987 0.92427 0.59393 0.0
C713 C 0.57221 0.95396 0.44518 0.0
Co714 Co 0.32001 0.31789 0.74622 0.0
Co715 Co 0.31434 0.31846 0.58961 0.0
C716 C 0.32253 0.2954 0.66075 0.0
O717 O 0.32327 0.30083 0.71794 0.0
O718 O 0.31927 0.3011 0.60708 0.0
C719 C 0.32909 0.3124 0.8822 0.0
O720 O 0.33275 0.30186 0.8572 0.0
C721 C 0.31743 0.31632 0.43979 0.0
C722 C 0.30503 0.33107 0.40527 0.0
C723 C 0.31319 0.32231 0.38198 0.0
N724 N 0.31217 0.3215 0.49461 0.0
N725 N 0.30471 0.33024 0.4734 0.0
C726 C 0.32583 0.30551 0.44319 0.0
H727 H 0.33514 0.30862 0.45776 0.0
H728 H 0.32627 0.3006 0.39392 0.0
H729 H 0.32255 0.29904 0.48238 0.0
C730 C 0.33747 0.3373 0.70524 0.0
N731 N 0.32865 0.32907 0.69077 0.0
N732 N 0.32626 0.32943 0.62523 0.0
C733 C 0.33347 0.33797 0.59595 0.0
C734 C 0.34078 0.34323 0.64565 0.0
C735 C 0.34233 0.33956 0.7752 0.0
H736 H 0.33461 0.34181 0.80968 0.0
H737 H 0.3467 0.33107 0.79451 0.0
H738 H 0.34907 0.34717 0.77602 0.0
O739 O 0.3022 0.32083 0.7419 0.0
O740 O 0.29807 0.32148 0.63176 0.0
H741 H 0.32492 0.34442 0.50504 0.0
H742 H 0.34124 0.34708 0.50785 0.0
C743 C 0.33384 0.34055 0.52128 0.0
H744 H 0.33538 0.33189 0.4933 0.0
H745 H 0.2995 0.33575 0.50566 0.0
O746 O 0.32416 0.32025 0.84311 0.0
C747 C 0.29461 0.32208 0.69342 0.0
Co748 Co 0.93054 0.07038 0.00186 0.0
Co749 Co 0.93017 0.06418 0.84566 0.0
C750 C 0.95317 0.0723 0.91683 0.0
O751 O 0.94769 0.07354 0.9736 0.0
O752 O 0.94751 0.0687 0.86382 0.0
C753 C 0.93639 0.07898 0.13783 0.0
O754 O 0.94723 0.08168 0.11296 0.0
C755 C 0.93263 0.06705 0.69568 0.0
C756 C 0.91774 0.05484 0.66111 0.0
C757 C 0.92661 0.06288 0.63777 0.0
N758 N 0.92733 0.06188 0.75051 0.0
N759 N 0.91853 0.05451 0.72923 0.0
C760 C 0.94349 0.07541 0.69908 0.0
H761 H 0.94962 0.07268 0.74115 0.0
H762 H 0.9403 0.0849 0.70876 0.0
H763 H 0.94879 0.0752 0.65101 0.0
C764 C 0.91141 0.08791 0.9585 0.0
N765 N 0.91956 0.07897 0.94518 0.0
N766 N 0.91929 0.07639 0.87986 0.0
C767 C 0.91087 0.08361 0.84956 0.0
C768 C 0.90561 0.09112 0.89835 0.0
C769 C 0.90906 0.09295 0.02799 0.0
H770 H 0.90673 0.08532 0.06295 0.0
H771 H 0.91755 0.09732 0.04734 0.0
H772 H 0.90149 0.09972 0.02799 0.0
O773 O 0.92723 0.05257 0.99886 0.0
O774 O 0.927 0.04809 0.88904 0.0
H775 H 0.90446 0.07484 0.75925 0.0
H776 H 0.90193 0.0912 0.76044 0.0
C777 C 0.90838 0.08378 0.77478 0.0
H778 H 0.91709 0.08517 0.74696 0.0
H779 H 0.91291 0.0494 0.76147 0.0
O780 O 0.92815 0.0748 0.09853 0.0
C781 C 0.9261 0.04484 0.95095 0.0
Co782 Co 0.17906 0.68174 0.25337 0.0
Co783 Co 0.18475 0.67993 0.09721 0.0
C784 C 0.17683 0.70359 0.1634 0.0
O785 O 0.1756 0.69857 0.22153 0.0
O786 O 0.18045 0.6975 0.11181 0.0
C787 C 0.17018 0.68774 0.39002 0.0
O788 O 0.16628 0.69816 0.3646 0.0
C789 C 0.18063 0.68195 0.94937 0.0
C790 C 0.19225 0.66686 0.91119 0.0
C791 C 0.18411 0.67586 0.89052 0.0
N792 N 0.18641 0.67671 0.00235 0.0
N793 N 0.19344 0.6678 0.97902 0.0
C794 C 0.17115 0.69176 0.95633 0.0
H795 H 0.16643 0.69094 0.00608 0.0
H796 H 0.16433 0.69122 0.91461 0.0
H797 H 0.17571 0.70084 0.9542 0.0
C798 C 0.16139 0.66224 0.21721 0.0
N799 N 0.17028 0.67025 0.20071 0.0
N800 N 0.17261 0.66943 0.13525 0.0
C801 C 0.16529 0.66077 0.10805 0.0
C802 C 0.15796 0.65593 0.15906 0.0
C803 C 0.15661 0.66048 0.2878 0.0
H804 H 0.16435 0.6584 0.32243 0.0
H805 H 0.15233 0.66914 0.30545 0.0
H806 H 0.14981 0.65295 0.29056 0.0
O807 O 0.1969 0.67868 0.24824 0.0
O808 O 0.20099 0.67663 0.13855 0.0
H809 H 0.17379 0.6537 0.01841 0.0
H810 H 0.15748 0.651 0.02227 0.0
C811 C 0.16486 0.65764 0.03404 0.0
H812 H 0.16324 0.66609 0.00415 0.0
H813 H 0.19881 0.66214 0.00971 0.0
O814 O 0.17516 0.67989 0.35114 0.0
C815 C 0.20445 0.67668 0.20031 0.0
Co816 Co 0.43102 0.92883 0.50714 0.0
Co817 Co 0.42973 0.93394 0.35031 0.0
C818 C 0.45322 0.92656 0.41885 0.0
O819 O 0.44801 0.92585 0.47669 0.0
O820 O 0.44727 0.92954 0.36553 0.0
C821 C 0.43708 0.91988 0.64313 0.0
O822 O 0.44748 0.91603 0.61719 0.0
C823 C 0.43178 0.92989 0.20233 0.0
C824 C 0.41645 0.94127 0.16468 0.0
C825 C 0.42557 0.9333 0.14373 0.0
N826 N 0.42649 0.93555 0.2555 0.0
N827 N 0.41744 0.94244 0.23248 0.0
C828 C 0.44175 0.92057 0.20879 0.0
H829 H 0.44118 0.9159 0.2588 0.0
H830 H 0.44117 0.91368 0.16743 0.0
H831 H 0.45075 0.92526 0.20537 0.0
C832 C 0.41171 0.91094 0.47084 0.0
N833 N 0.41979 0.91976 0.4542 0.0
N834 N 0.41919 0.92185 0.38841 0.0
C835 C 0.41065 0.91441 0.36107 0.0
C836 C 0.40562 0.90728 0.41238 0.0
C837 C 0.40962 0.9065 0.54186 0.0
H838 H 0.40766 0.91444 0.57532 0.0
H839 H 0.41811 0.90206 0.56083 0.0
H840 H 0.4019 0.89992 0.54478 0.0
O841 O 0.42762 0.94652 0.50126 0.0
O842 O 0.42641 0.95029 0.39082 0.0
H843 H 0.40364 0.92241 0.26987 0.0
H844 H 0.40148 0.90603 0.27493 0.0
C845 C 0.40782 0.91367 0.28676 0.0
H846 H 0.41642 0.91224 0.258 0.0
H847 H 0.41172 0.9477 0.2634 0.0
O848 O 0.42918 0.92491 0.60475 0.0
C849 C 0.42598 0.95393 0.45223 0.0
Co850 Co 0.82002 0.68108 0.2503 0.0
Co851 Co 0.81416 0.68026 0.09393 0.0
C852 C 0.82225 0.70344 0.16371 0.0
O853 O 0.82339 0.69813 0.22109 0.0
O854 O 0.81866 0.69763 0.11119 0.0
C855 C 0.82907 0.6867 0.38631 0.0
O856 O 0.83262 0.69729 0.36136 0.0
C857 C 0.81758 0.68232 0.94408 0.0
C858 C 0.80478 0.66796 0.90918 0.0
C859 C 0.81323 0.67647 0.88609 0.0
N860 N 0.8121 0.67729 0.99876 0.0
N861 N 0.80441 0.66878 0.97728 0.0
C862 C 0.82645 0.69277 0.9475 0.0
H863 H 0.82435 0.69878 0.9911 0.0
H864 H 0.83585 0.68911 0.95433 0.0
H865 H 0.82615 0.69832 0.90028 0.0
C866 C 0.83752 0.66176 0.21029 0.0
N867 N 0.82867 0.6699 0.19536 0.0
N868 N 0.82624 0.66943 0.1299 0.0
C869 C 0.8335 0.66088 0.10106 0.0
C870 C 0.84087 0.65575 0.15105 0.0
C871 C 0.84232 0.65958 0.28051 0.0
H872 H 0.83455 0.65755 0.31509 0.0
H873 H 0.84684 0.66804 0.29915 0.0
H874 H 0.84891 0.65185 0.28216 0.0
O875 O 0.80223 0.67782 0.24628 0.0
O876 O 0.79794 0.6772 0.13626 0.0
H877 H 0.82483 0.65448 0.01038 0.0
H878 H 0.84111 0.6515 0.01342 0.0
C879 C 0.83383 0.65817 0.02653 0.0
H880 H 0.83554 0.66677 0.99817 0.0
H881 H 0.79899 0.66342 0.00934 0.0
O882 O 0.82421 0.67882 0.3472 0.0
C883 C 0.79458 0.67651 0.19808 0.0
Co884 Co 0.06776 0.07057 0.01406 0.0
Co885 Co 0.0686 0.06493 0.85765 0.0
C886 C 0.04527 0.07247 0.9288 0.0
O887 O 0.05061 0.07348 0.9861 0.0
O888 O 0.05113 0.06925 0.87563 0.0
C889 C 0.06228 0.07988 0.14953 0.0
O890 O 0.05185 0.08377 0.12414 0.0
C891 C 0.06677 0.06893 0.7082 0.0
C892 C 0.07988 0.05496 0.67195 0.0
C893 C 0.07207 0.06412 0.64961 0.0
N894 N 0.07141 0.06294 0.76235 0.0
N895 N 0.07919 0.0546 0.74008 0.0
C896 C 0.05723 0.07874 0.71277 0.0
H897 H 0.05221 0.0782 0.76138 0.0
H898 H 0.06172 0.08785 0.71026 0.0
H899 H 0.05066 0.07799 0.66993 0.0
C900 C 0.08691 0.08837 0.97364 0.0
N901 N 0.07878 0.07949 0.9588 0.0
N902 N 0.07932 0.07704 0.89339 0.0
C903 C 0.08795 0.08421 0.86463 0.0
C904 C 0.09301 0.09163 0.91448 0.0
C905 C 0.08903 0.09324 0.04372 0.0
H906 H 0.08044 0.09741 0.06295 0.0
H907 H 0.09649 0.10014 0.04482 0.0
H908 H 0.09143 0.08555 0.07811 0.0
O909 O 0.0711 0.05281 0.00967 0.0
O910 O 0.07211 0.04875 0.8995 0.0
H911 H 0.0939 0.07498 0.77464 0.0
H912 H 0.09823 0.09096 0.7778 0.0
C913 C 0.09094 0.08427 0.7904 0.0
H914 H 0.08261 0.0867 0.76124 0.0
H915 H 0.08411 0.04867 0.77157 0.0
O916 O 0.07004 0.07473 0.11084 0.0
C917 C 0.07267 0.04528 0.96117 0.0
Co918 Co 0.67954 0.31804 0.75934 0.0
Co919 Co 0.68449 0.31876 0.60227 0.0
C920 C 0.67711 0.29555 0.67232 0.0
O921 O 0.67669 0.30091 0.72984 0.0
O922 O 0.67986 0.30136 0.61816 0.0
C923 C 0.67017 0.31223 0.89483 0.0
O924 O 0.66594 0.30202 0.86851 0.0
C925 C 0.6804 0.31674 0.45421 0.0
C926 C 0.69205 0.33185 0.41658 0.0
C927 C 0.68389 0.32291 0.39561 0.0
N928 N 0.68618 0.32189 0.50738 0.0
N929 N 0.69324 0.33081 0.48435 0.0
C930 C 0.67087 0.30695 0.4607 0.0
H931 H 0.66631 0.30753 0.51099 0.0
H932 H 0.66393 0.30775 0.41973 0.0
H933 H 0.67536 0.29786 0.4566 0.0
C934 C 0.6616 0.3372 0.72172 0.0
N935 N 0.67042 0.32908 0.70565 0.0
N936 N 0.67251 0.32952 0.63981 0.0
C937 C 0.66505 0.338 0.61187 0.0
C938 C 0.65793 0.34315 0.66283 0.0
C939 C 0.65718 0.33944 0.79259 0.0
H940 H 0.66513 0.34139 0.82601 0.0
H941 H 0.65265 0.33103 0.81196 0.0
H942 H 0.65067 0.34723 0.79501 0.0
O943 O 0.69716 0.32176 0.75348 0.0
O944 O 0.70093 0.32174 0.64282 0.0
H945 H 0.67306 0.3446 0.51975 0.0
H946 H 0.65673 0.34708 0.52517 0.0
C947 C 0.66427 0.34063 0.53734 0.0
H948 H 0.66265 0.33197 0.50945 0.0
H949 H 0.6986 0.33643 0.51526 0.0
O950 O 0.67556 0.31995 0.8568 0.0
C951 C 0.70457 0.32281 0.704 0.0
Co952 Co 0.4313 0.06953 0.49564 0.0
Co953 Co 0.42994 0.06442 0.65247 0.0
C954 C 0.45346 0.07183 0.5843 0.0
O955 O 0.44827 0.07254 0.52637 0.0
O956 O 0.44748 0.06882 0.63748 0.0
C957 C 0.43737 0.07849 0.35958 0.0
O958 O 0.44775 0.08238 0.38548 0.0
C959 C 0.43195 0.0685 0.80041 0.0
C960 C 0.41664 0.05711 0.8381 0.0
C961 C 0.42574 0.0651 0.85902 0.0
N962 N 0.42667 0.06282 0.74726 0.0
N963 N 0.41763 0.05593 0.7703 0.0
C964 C 0.44191 0.07784 0.79391 0.0
H965 H 0.44134 0.08249 0.74386 0.0
H966 H 0.44132 0.08473 0.83522 0.0
H967 H 0.45091 0.07316 0.79738 0.0
C968 C 0.41196 0.08741 0.53165 0.0
N969 N 0.42004 0.07858 0.54841 0.0
N970 N 0.41941 0.07649 0.6142 0.0
C971 C 0.41086 0.08394 0.64142 0.0
C972 C 0.40585 0.09106 0.59003 0.0
C973 C 0.40992 0.09185 0.46061 0.0
H974 H 0.40797 0.08392 0.42711 0.0
H975 H 0.41841 0.09629 0.44179 0.0
H976 H 0.40219 0.09843 0.4576 0.0
O977 O 0.42791 0.05183 0.50152 0.0
O978 O 0.42662 0.04806 0.61195 0.0
H979 H 0.40383 0.07594 0.73259 0.0
H980 H 0.40166 0.09232 0.72745 0.0
C981 C 0.40801 0.08469 0.7157 0.0
H982 H 0.4166 0.08612 0.74453 0.0
H983 H 0.41192 0.05066 0.73941 0.0
O984 O 0.42949 0.07344 0.398 0.0
C985 C 0.42622 0.04443 0.55053 0.0
Co986 Co 0.67987 0.68123 0.25536 0.0
Co987 Co 0.68429 0.67985 0.41347 0.0
C988 C 0.67689 0.70325 0.34547 0.0
O989 O 0.67634 0.69806 0.28756 0.0
O990 O 0.67997 0.69736 0.39876 0.0
C991 C 0.66786 0.68378 0.12048 0.0
O992 O 0.65782 0.68752 0.15081 0.0
C993 C 0.68005 0.68216 0.56163 0.0
C994 C 0.68975 0.66577 0.59986 0.0
C995 C 0.68262 0.67558 0.62034 0.0
N996 N 0.68535 0.67641 0.50874 0.0
N997 N 0.69126 0.66672 0.53219 0.0
C998 C 0.67184 0.69306 0.55476 0.0
H999 H 0.66619 0.69219 0.50815 0.0
H1000 H 0.66579 0.69407 0.59971 0.0
H1001 H 0.67756 0.70142 0.54963 0.0
C1002 C 0.66216 0.66128 0.28851 0.0
N1003 N 0.67069 0.66966 0.30591 0.0
N1004 N 0.67241 0.66926 0.37221 0.0
C1005 C 0.66491 0.66069 0.39893 0.0
C1006 C 0.65824 0.65534 0.34687 0.0
C1007 C 0.6582 0.65866 0.21725 0.0
H1008 H 0.66611 0.65949 0.18218 0.0
H1009 H 0.65114 0.66543 0.20209 0.0
H1010 H 0.6542 0.64935 0.21301 0.0
O1011 O 0.6975 0.67775 0.26472 0.0
O1012 O 0.70095 0.6769 0.37563 0.0
H1013 H 0.67182 0.65322 0.49166 0.0
H1014 H 0.65538 0.65246 0.48419 0.0
C1015 C 0.66357 0.65814 0.4733 0.0
H1016 H 0.66272 0.66688 0.50139 0.0
H1017 H 0.69604 0.66054 0.5016 0.0
O1018 O 0.67711 0.68062 0.15559 0.0
C1019 C 0.70475 0.67629 0.31458 0.0
Co1020 Co 0.06679 0.93 0.99237 0.0
Co1021 Co 0.06888 0.93358 0.15079 0.0
C1022 C 0.0451 0.92677 0.08459 0.0
O1023 O 0.05007 0.92658 0.02599 0.0
O1024 O 0.05127 0.92934 0.13774 0.0
C1025 C 0.06401 0.91814 0.85796 0.0
O1026 O 0.06065 0.90803 0.88897 0.0
C1027 C 0.06692 0.92914 0.29902 0.0
C1028 C 0.08368 0.93833 0.33616 0.0
C1029 C 0.07367 0.93153 0.3573 0.0
N1030 N 0.07273 0.93425 0.24571 0.0
N1031 N 0.08266 0.93983 0.2685 0.0
C1032 C 0.05572 0.92132 0.29312 0.0
H1033 H 0.0561 0.91587 0.24561 0.0
H1034 H 0.05481 0.91508 0.33736 0.0
H1035 H 0.04754 0.92733 0.29082 0.0
C1036 C 0.08702 0.91225 0.02048 0.0
N1037 N 0.07861 0.92058 0.04024 0.0
N1038 N 0.07919 0.92185 0.1068 0.0
C1039 C 0.0878 0.91418 0.13138 0.0
C1040 C 0.09309 0.90793 0.07757 0.0
C1041 C 0.08966 0.90895 0.94821 0.0
H1042 H 0.08843 0.91706 0.91499 0.0
H1043 H 0.0832 0.90168 0.93183 0.0
H1044 H 0.09913 0.9054 0.94258 0.0
O1045 O 0.07012 0.94756 0.00346 0.0
O1046 O 0.07194 0.9504 0.11448 0.0
H1047 H 0.09578 0.92016 0.22478 0.0
H1048 H 0.09571 0.90376 0.21426 0.0
C1049 C 0.09042 0.91228 0.2053 0.0
H1050 H 0.0817 0.91168 0.23389 0.0
H1051 H 0.0889 0.94445 0.23752 0.0
O1052 O 0.06704 0.9275 0.89248 0.0
C1053 C 0.07201 0.95455 0.05398 0.0
Co1054 Co 0.81942 0.31727 0.75416 0.0
Co1055 Co 0.81517 0.319 0.91229 0.0
C1056 C 0.82239 0.29542 0.84587 0.0
O1057 O 0.82293 0.30049 0.78755 0.0
O1058 O 0.81936 0.30145 0.89872 0.0
C1059 C 0.83142 0.31464 0.6193 0.0
O1060 O 0.84154 0.31115 0.64973 0.0
C1061 C 0.81937 0.31679 0.0605 0.0
C1062 C 0.81004 0.33343 0.09813 0.0
C1063 C 0.81693 0.32347 0.11899 0.0
N1064 N 0.81422 0.32262 0.00737 0.0
N1065 N 0.80853 0.33246 0.03046 0.0
C1066 C 0.82734 0.30571 0.05405 0.0
H1067 H 0.83308 0.30645 0.00767 0.0
H1068 H 0.83332 0.30456 0.09922 0.0
H1069 H 0.82145 0.29748 0.04873 0.0
C1070 C 0.83714 0.33731 0.78532 0.0
N1071 N 0.82867 0.32894 0.8036 0.0
N1072 N 0.82709 0.32941 0.87 0.0
C1073 C 0.83468 0.33797 0.89594 0.0
C1074 C 0.84122 0.34329 0.84322 0.0
C1075 C 0.84084 0.33997 0.71363 0.0
H1076 H 0.83287 0.3389 0.67922 0.0
H1077 H 0.84806 0.33339 0.69814 0.0
H1078 H 0.84456 0.34939 0.70876 0.0
O1079 O 0.80182 0.32084 0.76367 0.0
O1080 O 0.79851 0.32201 0.8746 0.0
H1081 H 0.82822 0.34571 0.98894 0.0
H1082 H 0.84466 0.34589 0.98045 0.0
C1083 C 0.83625 0.3405 0.97018 0.0
H1084 H 0.83686 0.33174 0.99842 0.0
H1085 H 0.80389 0.33871 0.99963 0.0
O1086 O 0.82212 0.31767 0.65432 0.0
C1087 C 0.79464 0.32249 0.81363 0.0
H1088 H 0.08255 0.57112 0.7921 0.0
H1089 H 0.04614 0.58559 0.75939 0.0
H1090 H 0.08505 0.56847 0.67016 0.0
H1091 H 0.04873 0.58292 0.63674 0.0
H1092 H 0.06469 0.58528 0.41481 0.0
H1093 H 0.06198 0.59011 0.5353 0.0
H1094 H 0.0747 0.5539 0.58848 0.0
H1095 H 0.07703 0.54895 0.4684 0.0
C1096 C 0.07512 0.57388 0.75892 0.0
C1097 C 0.06407 0.57844 0.78558 0.0
C1098 C 0.07655 0.57229 0.68908 0.0
C1099 C 0.06702 0.57532 0.64424 0.0
C1100 C 0.05622 0.58051 0.67032 0.0
C1101 C 0.05474 0.58201 0.74048 0.0
C1102 C 0.06654 0.57824 0.45213 0.0
C1103 C 0.07073 0.5666 0.43214 0.0
C1104 C 0.06512 0.58106 0.52105 0.0
C1105 C 0.06815 0.57239 0.57107 0.0
C1106 C 0.07241 0.5608 0.55097 0.0
C1107 C 0.0737 0.55795 0.48229 0.0
H1108 H 0.68157 0.80146 0.67199 0.0
H1109 H 0.67665 0.84047 0.69357 0.0
H1110 H 0.6767 0.79864 0.79213 0.0
H1111 H 0.67126 0.83772 0.81268 0.0
H1112 H 0.67986 0.83047 0.03514 0.0
H1113 H 0.68162 0.83318 0.91354 0.0
H1114 H 0.66192 0.79931 0.88115 0.0
H1115 H 0.66062 0.79633 0.00404 0.0
C1116 C 0.67914 0.80939 0.70218 0.0
C1117 C 0.67948 0.82118 0.67379 0.0
C1118 C 0.67632 0.80779 0.771 0.0
C1119 C 0.67367 0.81796 0.81251 0.0
C1120 C 0.67353 0.8297 0.78287 0.0
C1121 C 0.67655 0.83129 0.71454 0.0
C1122 C 0.6758 0.82363 0.00228 0.0
C1123 C 0.67016 0.81314 0.02942 0.0
C1124 C 0.67673 0.82524 0.9322 0.0
C1125 C 0.6719 0.81648 0.88714 0.0
C1126 C 0.6659 0.80616 0.91428 0.0
C1127 C 0.66508 0.80448 0.98472 0.0
H1128 H 0.44665 0.43332 0.92318 0.0
H1129 H 0.4089 0.42195 0.93931 0.0
H1130 H 0.44973 0.42855 0.04402 0.0
H1131 H 0.41208 0.41686 0.05946 0.0
H1132 H 0.42937 0.39921 0.25949 0.0
H1133 H 0.42806 0.40134 0.13515 0.0
H1134 H 0.43712 0.43968 0.1523 0.0
H1135 H 0.43802 0.43771 0.27589 0.0
C1136 C 0.43912 0.42954 0.95225 0.0
C1137 C 0.42756 0.42795 0.92225 0.0
C1138 C 0.44086 0.42686 0.02112 0.0
C1139 C 0.43115 0.42227 0.06048 0.0
C1140 C 0.41972 0.42026 0.02981 0.0
C1141 C 0.4179 0.42323 0.96145 0.0
C1142 C 0.43115 0.40806 0.23648 0.0
C1143 C 0.43374 0.41831 0.27715 0.0
C1144 C 0.43038 0.40927 0.16567 0.0
C1145 C 0.43257 0.42066 0.13463 0.0
C1146 C 0.4355 0.43079 0.17518 0.0
C1147 C 0.43594 0.42967 0.24578 0.0
H1148 H 0.82717 0.15905 0.19843 0.0
H1149 H 0.81481 0.19648 0.18122 0.0
H1150 H 0.83206 0.16243 0.31864 0.0
H1151 H 0.81939 0.19975 0.30209 0.0
H1152 H 0.81033 0.18791 0.53399 0.0
H1153 H 0.80849 0.18688 0.41038 0.0
H1154 H 0.84708 0.17891 0.39428 0.0
H1155 H 0.84907 0.18034 0.51861 0.0
C1156 C 0.82563 0.16803 0.22034 0.0
C1157 C 0.8207 0.17754 0.18083 0.0
C1158 C 0.82849 0.16996 0.28874 0.0
C1159 C 0.82614 0.18135 0.3191 0.0
C1160 C 0.82134 0.19092 0.27943 0.0
C1161 C 0.81876 0.18906 0.21053 0.0
C1162 C 0.81845 0.18604 0.50411 0.0
C1163 C 0.82984 0.18418 0.53577 0.0
C1164 C 0.8174 0.18553 0.4335 0.0
C1165 C 0.82765 0.18286 0.39324 0.0
C1166 C 0.83907 0.18102 0.42457 0.0
C1167 C 0.8402 0.18186 0.49538 0.0
H1168 H 0.06564 0.41338 0.58248 0.0
H1169 H 0.07641 0.45021 0.5286 0.0
H1170 H 0.06275 0.40854 0.46213 0.0
H1171 H 0.07393 0.44523 0.40865 0.0
H1172 H 0.08184 0.42832 0.20404 0.0
H1173 H 0.08461 0.43097 0.32578 0.0
H1174 H 0.04881 0.4155 0.36202 0.0
H1175 H 0.04593 0.41284 0.23948 0.0
C1176 C 0.06711 0.42052 0.54518 0.0
C1177 C 0.0709 0.4323 0.56509 0.0
C1178 C 0.0656 0.41769 0.47632 0.0
C1179 C 0.06813 0.42651 0.42624 0.0
C1180 C 0.07203 0.43823 0.44621 0.0
C1181 C 0.0734 0.44108 0.51484 0.0
C1182 C 0.07458 0.42534 0.23777 0.0
C1183 C 0.06359 0.4205 0.21193 0.0
C1184 C 0.07617 0.42693 0.30751 0.0
C1185 C 0.06686 0.4236 0.3531 0.0
C1186 C 0.05613 0.41813 0.32783 0.0
C1187 C 0.05448 0.41665 0.25775 0.0
H1188 H 0.82702 0.83982 0.80632 0.0
H1189 H 0.81594 0.80198 0.82235 0.0
H1190 H 0.83215 0.83671 0.6862 0.0
H1191 H 0.82073 0.79897 0.70149 0.0
H1192 H 0.8113 0.81104 0.46971 0.0
H1193 H 0.80939 0.81184 0.59336 0.0
H1194 H 0.8478 0.8206 0.61038 0.0
H1195 H 0.84987 0.81939 0.48598 0.0
C1196 C 0.82582 0.83082 0.78418 0.0
C1197 C 0.82117 0.82112 0.82332 0.0
C1198 C 0.82881 0.82903 0.71582 0.0
C1199 C 0.82687 0.8176 0.68512 0.0
C1200 C 0.82237 0.80784 0.72444 0.0
C1201 C 0.81967 0.80955 0.79332 0.0
C1202 C 0.81937 0.81304 0.4998 0.0
C1203 C 0.83073 0.81519 0.46838 0.0
C1204 C 0.81828 0.81342 0.57042 0.0
C1205 C 0.82846 0.81623 0.61095 0.0
C1206 C 0.83985 0.81837 0.57986 0.0
C1207 C 0.84102 0.81766 0.50902 0.0
H1208 H 0.43916 0.56138 0.718 0.0
H1209 H 0.43053 0.59986 0.73571 0.0
H1210 H 0.43792 0.5592 0.84141 0.0
H1211 H 0.4289 0.59753 0.85977 0.0
H1212 H 0.40938 0.57746 0.05424 0.0
H1213 H 0.41285 0.58248 0.93424 0.0
H1214 H 0.45011 0.56964 0.95096 0.0
H1215 H 0.44674 0.56493 0.07161 0.0
C1216 C 0.43702 0.56938 0.74835 0.0
C1217 C 0.43492 0.58079 0.71736 0.0
C1218 C 0.43638 0.56813 0.81888 0.0
C1219 C 0.43335 0.5782 0.85975 0.0
C1220 C 0.43128 0.58965 0.82906 0.0
C1221 C 0.43223 0.59097 0.75838 0.0
C1222 C 0.41835 0.5759 0.0324 0.0
C1223 C 0.42782 0.5709 0.07195 0.0
C1224 C 0.42035 0.57883 0.96409 0.0
C1225 C 0.43175 0.57648 0.93379 0.0
C1226 C 0.44126 0.57158 0.97348 0.0
C1227 C 0.43935 0.56893 0.04229 0.0
H1228 H 0.6615 0.20231 0.99355 0.0
H1229 H 0.67803 0.16686 0.9589 0.0
H1230 H 0.66437 0.19965 0.11611 0.0
H1231 H 0.68092 0.16432 0.08069 0.0
H1232 H 0.70018 0.17359 0.28254 0.0
H1233 H 0.69498 0.17572 0.16272 0.0
H1234 H 0.65792 0.18544 0.21688 0.0
H1235 H 0.66296 0.18284 0.33698 0.0
C1236 C 0.66558 0.1939 0.01201 0.0
C1237 C 0.66965 0.18486 0.96638 0.0
C1238 C 0.66719 0.19238 0.0821 0.0
C1239 C 0.67302 0.18186 0.10758 0.0
C1240 C 0.67658 0.1726 0.06223 0.0
C1241 C 0.67486 0.17405 0.99247 0.0
C1242 C 0.69092 0.17619 0.26904 0.0
C1243 C 0.68209 0.17835 0.31955 0.0
C1244 C 0.68794 0.17737 0.20044 0.0
C1245 C 0.67605 0.18076 0.18067 0.0
C1246 C 0.66719 0.18298 0.23092 0.0
C1247 C 0.67015 0.18164 0.29975 0.0
H1248 H 0.95076 0.40893 0.23584 0.0
H1249 H 0.9182 0.43082 0.20647 0.0
H1250 H 0.94803 0.41032 0.3589 0.0
H1251 H 0.91577 0.43263 0.32822 0.0
H1252 H 0.90832 0.42806 0.54791 0.0
H1253 H 0.91056 0.42245 0.42885 0.0
H1254 H 0.94995 0.42498 0.44836 0.0
H1255 H 0.94761 0.43011 0.56851 0.0
C1256 C 0.943 0.41398 0.25557 0.0
C1257 C 0.93472 0.41978 0.21129 0.0
C1258 C 0.94148 0.41486 0.32611 0.0
C1259 C 0.93169 0.42161 0.35377 0.0
C1260 C 0.92329 0.42716 0.30914 0.0
C1261 C 0.92474 0.4262 0.23897 0.0
C1262 C 0.91745 0.42727 0.52677 0.0
C1263 C 0.92779 0.4295 0.56721 0.0
C1264 C 0.91875 0.42412 0.45846 0.0
C1265 C 0.93043 0.42341 0.42849 0.0
C1266 C 0.94081 0.42529 0.46975 0.0
C1267 C 0.9395 0.42825 0.53858 0.0
H1268 H 0.31892 0.16834 0.95336 0.0
H1269 H 0.33894 0.20203 0.98463 0.0
H1270 H 0.31697 0.16573 0.07497 0.0
H1271 H 0.33744 0.19913 0.1075 0.0
H1272 H 0.31766 0.19755 0.31642 0.0
H1273 H 0.32267 0.20021 0.19631 0.0
H1274 H 0.32707 0.16099 0.17621 0.0
H1275 H 0.32155 0.15842 0.29523 0.0
C1276 C 0.32311 0.1751 0.98627 0.0
C1277 C 0.32903 0.18543 0.95914 0.0
C1278 C 0.32207 0.17355 0.05636 0.0
C1279 C 0.32706 0.18221 0.10148 0.0
C1280 C 0.33333 0.19237 0.07436 0.0
C1281 C 0.33427 0.19399 0.00392 0.0
C1282 C 0.31989 0.18955 0.28632 0.0
C1283 C 0.31921 0.17779 0.31482 0.0
C1284 C 0.32279 0.19105 0.21752 0.0
C1285 C 0.32519 0.1808 0.17612 0.0
C1286 C 0.325 0.16908 0.20589 0.0
C1287 C 0.3219 0.16759 0.27419 0.0
H1288 H 0.56139 0.56058 0.71063 0.0
H1289 H 0.56952 0.59919 0.72694 0.0
H1290 H 0.56223 0.55865 0.83427 0.0
H1291 H 0.57077 0.5971 0.85134 0.0
H1292 H 0.5901 0.57637 0.04739 0.0
H1293 H 0.58698 0.58149 0.92722 0.0
H1294 H 0.54928 0.56996 0.94233 0.0
H1295 H 0.55229 0.56518 0.06323 0.0
C1296 C 0.56335 0.56865 0.74072 0.0
C1297 C 0.56543 0.58003 0.70932 0.0
C1298 C 0.56375 0.56755 0.81134 0.0
C1299 C 0.56651 0.57774 0.85188 0.0
C1300 C 0.56858 0.58914 0.82081 0.0
C1301 C 0.56785 0.59033 0.74997 0.0
C1302 C 0.5811 0.57514 0.02519 0.0
C1303 C 0.57141 0.57046 0.06429 0.0
C1304 C 0.57931 0.57812 0.95681 0.0
C1305 C 0.56789 0.57615 0.92606 0.0
C1306 C 0.55814 0.57162 0.96533 0.0
C1307 C 0.55985 0.56892 0.03422 0.0
H1308 H 0.20048 0.8233 0.76637 0.0
H1309 H 0.16263 0.81693 0.82028 0.0
H1310 H 0.19517 0.82171 0.6466 0.0
H1311 H 0.15744 0.81489 0.70015 0.0
H1312 H 0.15981 0.79852 0.4748 0.0
H1313 H 0.16272 0.80055 0.59771 0.0
H1314 H 0.18211 0.83455 0.56615 0.0
H1315 H 0.1792 0.83263 0.4441 0.0
C1316 C 0.19105 0.82144 0.75282 0.0
C1317 C 0.18205 0.81998 0.80323 0.0
C1318 C 0.18801 0.82057 0.68421 0.0
C1319 C 0.17589 0.8182 0.66426 0.0
C1320 C 0.16688 0.81658 0.71435 0.0
C1321 C 0.1699 0.8176 0.78326 0.0
C1322 C 0.16452 0.80652 0.4942 0.0
C1323 C 0.1694 0.81533 0.44958 0.0
C1324 C 0.16616 0.80768 0.56448 0.0
C1325 C 0.1728 0.81761 0.5911 0.0
C1326 C 0.17714 0.8267 0.54677 0.0
C1327 C 0.17541 0.82561 0.47686 0.0
H1328 H 0.91716 0.57061 0.79207 0.0
H1329 H 0.95241 0.58756 0.75693 0.0
H1330 H 0.91451 0.56789 0.67031 0.0
H1331 H 0.94965 0.58483 0.63435 0.0
H1332 H 0.93274 0.58627 0.41391 0.0
H1333 H 0.93542 0.59122 0.53414 0.0
H1334 H 0.92582 0.55408 0.58762 0.0
H1335 H 0.92356 0.54899 0.46776 0.0
C1336 C 0.92429 0.57389 0.7584 0.0
C1337 C 0.93508 0.57917 0.78433 0.0
C1338 C 0.92278 0.57227 0.68866 0.0
C1339 C 0.93195 0.57599 0.64314 0.0
C1340 C 0.94244 0.58189 0.66849 0.0
C1341 C 0.94402 0.58341 0.73859 0.0
C1342 C 0.93156 0.57906 0.45108 0.0
C1343 C 0.92826 0.56713 0.43114 0.0
C1344 C 0.93296 0.58195 0.51994 0.0
C1345 C 0.93081 0.57304 0.57001 0.0
C1346 C 0.92742 0.56116 0.55005 0.0
C1347 C 0.92616 0.55825 0.48145 0.0
H1348 H 0.16397 0.20345 0.50781 0.0
H1349 H 0.17783 0.16681 0.5409 0.0
H1350 H 0.16664 0.20078 0.3852 0.0
H1351 H 0.18048 0.16424 0.41899 0.0
H1352 H 0.20014 0.17192 0.217 0.0
H1353 H 0.19522 0.17435 0.3371 0.0
H1354 H 0.15921 0.18761 0.28398 0.0
H1355 H 0.16399 0.18481 0.16349 0.0
C1356 C 0.16741 0.19478 0.48899 0.0
C1357 C 0.17082 0.1854 0.53418 0.0
C1358 C 0.16891 0.19326 0.41885 0.0
C1359 C 0.17393 0.18238 0.39289 0.0
C1360 C 0.17679 0.17281 0.43782 0.0
C1361 C 0.17521 0.17427 0.50764 0.0
C1362 C 0.19119 0.17539 0.23092 0.0
C1363 C 0.18258 0.17849 0.18078 0.0
C1364 C 0.18836 0.17673 0.2996 0.0
C1365 C 0.17684 0.18118 0.31971 0.0
C1366 C 0.16821 0.18433 0.26972 0.0
C1367 C 0.17101 0.18286 0.2008 0.0
H1368 H 0.56561 0.41333 0.91362 0.0
H1369 H 0.57592 0.45026 0.96814 0.0
H1370 H 0.5629 0.40833 0.0338 0.0
H1371 H 0.57367 0.44509 0.08802 0.0
H1372 H 0.58191 0.42785 0.2922 0.0
H1373 H 0.5846 0.43071 0.17045 0.0
H1374 H 0.54883 0.41519 0.1342 0.0
H1375 H 0.54601 0.41236 0.25667 0.0
C1376 C 0.56702 0.42046 0.95096 0.0
C1377 C 0.57062 0.43232 0.93119 0.0
C1378 C 0.56561 0.41754 0.01978 0.0
C1379 C 0.56808 0.42632 0.07005 0.0
C1380 C 0.57181 0.43811 0.0503 0.0
C1381 C 0.57306 0.44107 0.98168 0.0
C1382 C 0.57465 0.4249 0.25845 0.0
C1383 C 0.56368 0.42 0.28427 0.0
C1384 C 0.57619 0.4266 0.18872 0.0
C1385 C 0.56686 0.42332 0.14314 0.0
C1386 C 0.55616 0.4178 0.16838 0.0
C1387 C 0.55455 0.41621 0.23842 0.0
H1388 H 0.31831 0.83089 0.04758 0.0
H1389 H 0.33783 0.79689 0.01719 0.0
H1390 H 0.31638 0.83341 0.92591 0.0
H1391 H 0.33637 0.79969 0.89425 0.0
H1392 H 0.31652 0.80132 0.68549 0.0
H1393 H 0.32157 0.79872 0.80561 0.0
H1394 H 0.32648 0.8379 0.82438 0.0
H1395 H 0.3209 0.84042 0.70541 0.0
C1396 C 0.3224 0.82404 0.01485 0.0
C1397 C 0.32817 0.81364 0.04225 0.0
C1398 C 0.32138 0.82554 0.94472 0.0
C1399 C 0.32623 0.81677 0.89982 0.0
C1400 C 0.33236 0.80654 0.92721 0.0
C1401 C 0.33329 0.80498 0.99769 0.0
C1402 C 0.31886 0.80932 0.71531 0.0
C1403 C 0.31831 0.82106 0.68648 0.0
C1404 C 0.3218 0.80785 0.78411 0.0
C1405 C 0.32435 0.81812 0.82515 0.0
C1406 C 0.32429 0.82981 0.795 0.0
C1407 C 0.32116 0.83127 0.72673 0.0
H1408 H 0.55147 0.06671 0.93158 0.0
H1409 H 0.59047 0.07168 0.95361 0.0
H1410 H 0.54861 0.07158 0.05168 0.0
H1411 H 0.58767 0.07707 0.07266 0.0
H1412 H 0.58041 0.06857 0.29522 0.0
H1413 H 0.58315 0.06676 0.17365 0.0
H1414 H 0.54923 0.08635 0.14065 0.0
H1415 H 0.54622 0.0877 0.26348 0.0
C1416 C 0.55938 0.06915 0.96186 0.0
C1417 C 0.57118 0.06882 0.9336 0.0
C1418 C 0.55777 0.07198 0.03066 0.0
C1419 C 0.56792 0.07464 0.0723 0.0
C1420 C 0.57966 0.07479 0.04277 0.0
C1421 C 0.58128 0.07177 0.97447 0.0
C1422 C 0.57356 0.0726 0.26223 0.0
C1423 C 0.56306 0.07823 0.2892 0.0
C1424 C 0.57518 0.07164 0.19216 0.0
C1425 C 0.56642 0.07642 0.14693 0.0
C1426 C 0.55607 0.0824 0.17389 0.0
C1427 C 0.55439 0.08326 0.24431 0.0
H1428 H 0.20042 0.32486 0.22113 0.0
H1429 H 0.16291 0.31675 0.1672 0.0
H1430 H 0.19524 0.32276 0.34095 0.0
H1431 H 0.15786 0.31422 0.28737 0.0
H1432 H 0.16099 0.29721 0.51052 0.0
H1433 H 0.16381 0.29984 0.38789 0.0
H1434 H 0.18172 0.33451 0.42337 0.0
H1435 H 0.1789 0.33199 0.54516 0.0
C1436 C 0.19109 0.32253 0.23476 0.0
C1437 C 0.18216 0.32068 0.1844 0.0
C1438 C 0.18812 0.32136 0.30337 0.0
C1439 C 0.17615 0.31832 0.3233 0.0
C1440 C 0.1672 0.31641 0.2732 0.0
C1441 C 0.17014 0.31772 0.20433 0.0
C1442 C 0.16537 0.30547 0.49205 0.0
C1443 C 0.16985 0.31432 0.53767 0.0
C1444 C 0.16695 0.30698 0.42193 0.0
C1445 C 0.17314 0.31729 0.39644 0.0
C1446 C 0.1771 0.32638 0.44183 0.0
C1447 C 0.17543 0.32494 0.5116 0.0
H1448 H 0.90918 0.92256 0.46099 0.0
H1449 H 0.94682 0.93437 0.44673 0.0
H1450 H 0.91226 0.91737 0.5811 0.0
H1451 H 0.94979 0.92952 0.56761 0.0
H1452 H 0.93735 0.93853 0.79906 0.0
H1453 H 0.93664 0.94052 0.67544 0.0
H1454 H 0.9285 0.90199 0.65741 0.0
H1455 H 0.92963 0.89985 0.78181 0.0
C1456 C 0.91814 0.9239 0.48352 0.0
C1457 C 0.92779 0.92879 0.44489 0.0
C1458 C 0.9199 0.92088 0.55187 0.0
C1459 C 0.93126 0.92302 0.5831 0.0
C1460 C 0.94098 0.92774 0.54427 0.0
C1461 C 0.9393 0.93047 0.47538 0.0
C1462 C 0.9355 0.93045 0.76877 0.0
C1463 C 0.93351 0.91903 0.79993 0.0
C1464 C 0.93518 0.93159 0.69815 0.0
C1465 C 0.93257 0.9214 0.65732 0.0
C1466 C 0.93058 0.90995 0.68814 0.0
C1467 C 0.93123 0.90874 0.759 0.0
H1468 H 0.2984 0.67504 0.7288 0.0
H1469 H 0.33613 0.68209 0.67489 0.0
H1470 H 0.30367 0.67684 0.84855 0.0
H1471 H 0.34126 0.68437 0.79493 0.0
H1472 H 0.33845 0.70112 0.01928 0.0
H1473 H 0.33558 0.69882 0.89648 0.0
H1474 H 0.31704 0.66441 0.92977 0.0
H1475 H 0.31991 0.66659 0.05173 0.0
C1476 C 0.30779 0.67709 0.74233 0.0
C1477 C 0.31676 0.67869 0.69189 0.0
C1478 C 0.31081 0.67809 0.81093 0.0
C1479 C 0.32287 0.68074 0.83084 0.0
C1480 C 0.33186 0.68247 0.78074 0.0
C1481 C 0.32886 0.68132 0.71186 0.0
C1482 C 0.33393 0.69298 0.00029 0.0
C1483 C 0.32928 0.68411 0.04535 0.0
C1484 C 0.33232 0.69166 0.93008 0.0
C1485 C 0.32593 0.68153 0.90397 0.0
C1486 C 0.32181 0.67241 0.94876 0.0
C1487 C 0.32352 0.67365 0.01861 0.0
H1488 H 0.56644 0.91281 0.07807 0.0
H1489 H 0.57424 0.95037 0.02366 0.0
H1490 H 0.56399 0.9077 0.958 0.0
H1491 H 0.57222 0.94513 0.90391 0.0
H1492 H 0.58178 0.92872 0.70016 0.0
H1493 H 0.58417 0.93164 0.82196 0.0
H1494 H 0.5496 0.91351 0.85707 0.0
H1495 H 0.54709 0.9106 0.73444 0.0
C1496 C 0.56735 0.92004 0.04088 0.0
C1497 C 0.57021 0.93209 0.06068 0.0
C1498 C 0.56608 0.91706 0.97205 0.0
C1499 C 0.56794 0.92601 0.92182 0.0
C1500 C 0.57086 0.93801 0.9416 0.0
C1501 C 0.57198 0.94102 0.01018 0.0
C1502 C 0.57473 0.92521 0.73365 0.0
C1503 C 0.56416 0.91955 0.70745 0.0
C1504 C 0.57609 0.92695 0.80342 0.0
C1505 C 0.56699 0.92295 0.8487 0.0
C1506 C 0.55675 0.91668 0.82312 0.0
C1507 C 0.55531 0.91504 0.75299 0.0
H1508 H 0.29823 0.3247 0.27316 0.0
H1509 H 0.33568 0.31639 0.3273 0.0
H1510 H 0.30343 0.3227 0.15324 0.0
H1511 H 0.34078 0.314 0.20696 0.0
H1512 H 0.33782 0.29738 0.98321 0.0
H1513 H 0.33492 0.29984 0.10587 0.0
H1514 H 0.31694 0.3345 0.07131 0.0
H1515 H 0.31983 0.33216 0.94947 0.0
C1516 C 0.30755 0.32233 0.25946 0.0
C1517 C 0.31646 0.3204 0.30978 0.0
C1518 C 0.31053 0.32123 0.19085 0.0
C1519 C 0.32251 0.31819 0.17094 0.0
C1520 C 0.33144 0.31619 0.22108 0.0
C1521 C 0.32847 0.31742 0.28995 0.0
C1522 C 0.33342 0.30561 0.00189 0.0
C1523 C 0.32893 0.3145 0.9565 0.0
C1524 C 0.33178 0.30701 0.07204 0.0
C1525 C 0.32555 0.31727 0.09779 0.0
C1526 C 0.32159 0.32641 0.05265 0.0
C1527 C 0.32331 0.32507 0.98286 0.0
H1528 H 0.93344 0.08518 0.58318 0.0
H1529 H 0.92318 0.04825 0.52833 0.0
H1530 H 0.9358 0.09032 0.46299 0.0
H1531 H 0.92507 0.05355 0.40848 0.0
H1532 H 0.91616 0.07084 0.20559 0.0
H1533 H 0.91382 0.06789 0.32752 0.0
H1534 H 0.94954 0.08374 0.36108 0.0
H1535 H 0.95199 0.08667 0.23849 0.0
C1536 C 0.93198 0.07807 0.54578 0.0
C1537 C 0.92848 0.06618 0.56546 0.0
C1538 C 0.93318 0.08108 0.47693 0.0
C1539 C 0.9306 0.07234 0.42659 0.0
C1540 C 0.927 0.06051 0.44627 0.0
C1541 C 0.92596 0.05747 0.51487 0.0
C1542 C 0.92348 0.07385 0.23881 0.0
C1543 C 0.93433 0.07887 0.21219 0.0
C1544 C 0.92214 0.0721 0.30864 0.0
C1545 C 0.93157 0.07544 0.3535 0.0
C1546 C 0.94214 0.08109 0.32749 0.0
C1547 C 0.94353 0.08274 0.25736 0.0
H1548 H 0.15994 0.70199 0.4901 0.0
H1549 H 0.18052 0.66866 0.45836 0.0
H1550 H 0.16141 0.69902 0.61295 0.0
H1551 H 0.18243 0.66598 0.57992 0.0
H1552 H 0.1778 0.65836 0.79976 0.0
H1553 H 0.1723 0.66098 0.68075 0.0
H1554 H 0.17613 0.70023 0.70217 0.0
H1555 H 0.18114 0.69752 0.82224 0.0
C1556 C 0.16473 0.69401 0.50927 0.0
C1557 C 0.17013 0.68558 0.46437 0.0
C1558 C 0.16566 0.69235 0.5797 0.0
C1559 C 0.17206 0.68227 0.60667 0.0
C1560 C 0.17722 0.67373 0.56142 0.0
C1561 C 0.1762 0.67532 0.49135 0.0
C1562 C 0.17733 0.66754 0.77903 0.0
C1563 C 0.17986 0.67773 0.82003 0.0
C1564 C 0.17424 0.66906 0.71073 0.0
C1565 C 0.1739 0.68081 0.68132 0.0
C1566 C 0.17613 0.69105 0.7231 0.0
C1567 C 0.17903 0.68952 0.7919 0.0
H1568 H 0.40808 0.92655 0.05387 0.0
H1569 H 0.44719 0.93085 0.07466 0.0
H1570 H 0.41066 0.92111 0.93477 0.0
H1571 H 0.44984 0.92591 0.95449 0.0
H1572 H 0.45166 0.90983 0.74238 0.0
H1573 H 0.44881 0.91113 0.86536 0.0
H1574 H 0.4153 0.93148 0.83397 0.0
H1575 H 0.41787 0.92974 0.71228 0.0
C1576 C 0.41725 0.9263 0.03274 0.0
C1577 C 0.42744 0.92909 0.07325 0.0
C1578 C 0.41874 0.92324 0.96442 0.0
C1579 C 0.43045 0.9232 0.93453 0.0
C1580 C 0.4407 0.92568 0.97583 0.0
C1581 C 0.4392 0.92854 0.04465 0.0
C1582 C 0.44361 0.91443 0.76194 0.0
C1583 C 0.43501 0.9197 0.71749 0.0
C1584 C 0.44202 0.91526 0.83243 0.0
C1585 C 0.43183 0.92143 0.85986 0.0
C1586 C 0.42313 0.92645 0.81506 0.0
C1587 C 0.42466 0.92553 0.74494 0.0
H1588 H 0.83574 0.68252 0.83128 0.0
H1589 H 0.79836 0.6739 0.77695 0.0
H1590 H 0.84083 0.68498 0.71109 0.0
H1591 H 0.80358 0.67593 0.65712 0.0
H1592 H 0.82014 0.66675 0.45336 0.0
H1593 H 0.8173 0.66428 0.57519 0.0
H1594 H 0.83475 0.6992 0.61012 0.0
H1595 H 0.83759 0.70178 0.48748 0.0
C1596 C 0.82854 0.68143 0.79402 0.0
C1597 C 0.81654 0.67834 0.81383 0.0
C1598 C 0.83151 0.6827 0.72516 0.0
C1599 C 0.82261 0.68063 0.67496 0.0
C1600 C 0.81066 0.67746 0.69479 0.0
C1601 C 0.80767 0.67634 0.76339 0.0
C1602 C 0.82352 0.67387 0.48682 0.0
C1603 C 0.82896 0.68454 0.46058 0.0
C1604 C 0.82182 0.67246 0.55661 0.0
C1605 C 0.82565 0.68163 0.60184 0.0
C1606 C 0.83172 0.692 0.5762 0.0
C1607 C 0.83332 0.69347 0.50607 0.0
H1608 H 0.07375 0.04907 0.54079 0.0
H1609 H 0.06681 0.08686 0.59395 0.0
H1610 H 0.07178 0.05426 0.42097 0.0
H1611 H 0.06437 0.09189 0.47388 0.0
H1612 H 0.04737 0.08894 0.25008 0.0
H1613 H 0.04977 0.08612 0.37289 0.0
H1614 H 0.08417 0.0676 0.33919 0.0
H1615 H 0.0819 0.07042 0.21726 0.0
C1616 C 0.07169 0.05846 0.52709 0.0
C1617 C 0.07017 0.06747 0.57734 0.0
C1618 C 0.0706 0.06142 0.45845 0.0
C1619 C 0.06793 0.07347 0.43834 0.0
C1620 C 0.06628 0.0825 0.48825 0.0
C1621 C 0.06753 0.07956 0.55716 0.0
C1622 C 0.05553 0.08443 0.26898 0.0
C1623 C 0.06436 0.07978 0.22383 0.0
C1624 C 0.0569 0.08285 0.33919 0.0
C1625 C 0.06706 0.07648 0.36518 0.0
C1626 C 0.07615 0.07235 0.32029 0.0
C1627 C 0.07485 0.07403 0.25045 0.0
H1628 H 0.6806 0.33106 0.96464 0.0
H1629 H 0.65956 0.29792 0.99352 0.0
H1630 H 0.68235 0.33347 0.08643 0.0
H1631 H 0.6609 0.30061 0.11661 0.0
H1632 H 0.68074 0.30142 0.32608 0.0
H1633 H 0.67567 0.29903 0.20588 0.0
H1634 H 0.67203 0.33834 0.18716 0.0
H1635 H 0.67758 0.34065 0.30628 0.0
C1636 C 0.67615 0.32439 0.99704 0.0
C1637 C 0.67 0.31425 0.96922 0.0
C1638 C 0.67708 0.32582 0.06722 0.0
C1639 C 0.67175 0.31725 0.11171 0.0
C1640 C 0.66526 0.3073 0.08391 0.0
C1641 C 0.66441 0.3058 0.01336 0.0
C1642 C 0.67866 0.3095 0.29631 0.0
C1643 C 0.67957 0.32121 0.32518 0.0
C1644 C 0.67572 0.30815 0.22746 0.0
C1645 C 0.67354 0.3185 0.18643 0.0
C1646 C 0.67393 0.33018 0.21661 0.0
C1647 C 0.67705 0.33152 0.28494 0.0
H1648 H 0.45189 0.0886 0.26024 0.0
H1649 H 0.41817 0.06858 0.29054 0.0
H1650 H 0.44901 0.08731 0.13728 0.0
H1651 H 0.41556 0.06685 0.16887 0.0
H1652 H 0.40827 0.07179 0.94906 0.0
H1653 H 0.41086 0.07723 0.06816 0.0
H1654 H 0.45005 0.07254 0.04806 0.0
H1655 H 0.44738 0.0676 0.92791 0.0
C1656 C 0.44385 0.08398 0.24073 0.0
C1657 C 0.43528 0.07867 0.28524 0.0
C1658 C 0.44224 0.08315 0.17025 0.0
C1659 C 0.43206 0.07695 0.14288 0.0
C1660 C 0.42339 0.0719 0.18773 0.0
C1661 C 0.42494 0.07281 0.25785 0.0
C1662 C 0.41744 0.07207 0.97011 0.0
C1663 C 0.42762 0.06931 0.9295 0.0
C1664 C 0.41894 0.07511 0.03843 0.0
C1665 C 0.43066 0.07519 0.06821 0.0
C1666 C 0.4409 0.07275 0.02681 0.0
C1667 C 0.43939 0.06988 0.95799 0.0
H1668 H 0.68834 0.68723 0.04479 0.0
H1669 H 0.64956 0.68003 0.02734 0.0
H1670 H 0.69032 0.68651 0.92118 0.0
H1671 H 0.65169 0.6789 0.90295 0.0
H1672 H 0.67214 0.65932 0.70673 0.0
H1673 H 0.66698 0.66243 0.82682 0.0
H1674 H 0.67939 0.69987 0.81325 0.0
H1675 H 0.68421 0.69687 0.69237 0.0
C1676 C 0.68024 0.6855 0.01447 0.0
C1677 C 0.66879 0.68365 0.04557 0.0
C1678 C 0.68138 0.68517 0.94386 0.0
C1679 C 0.67115 0.6827 0.90298 0.0
C1680 C 0.65968 0.68086 0.93373 0.0
C1681 C 0.65847 0.68152 0.00458 0.0
C1682 C 0.67354 0.66827 0.72924 0.0
C1683 C 0.6785 0.67789 0.69059 0.0
C1684 C 0.67054 0.67005 0.79757 0.0
C1685 C 0.67275 0.68139 0.82877 0.0
C1686 C 0.67755 0.69107 0.78993 0.0
C1687 C 0.68026 0.68937 0.72105 0.0
H1688 H 0.08963 0.92118 0.44605 0.0
H1689 H 0.05227 0.9337 0.42785 0.0
H1690 H 0.08615 0.91641 0.56635 0.0
H1691 H 0.0489 0.92923 0.54874 0.0
H1692 H 0.06005 0.9383 0.78048 0.0
H1693 H 0.06119 0.94004 0.65684 0.0
H1694 H 0.07007 0.90162 0.64239 0.0
H1695 H 0.06854 0.89974 0.76673 0.0
C1696 C 0.08065 0.92278 0.46777 0.0
C1697 C 0.07119 0.92772 0.42793 0.0
C1698 C 0.07865 0.92 0.53623 0.0
C1699 C 0.06726 0.92242 0.56633 0.0
C1700 C 0.05774 0.92723 0.52632 0.0
C1701 C 0.05965 0.92974 0.4574 0.0
C1702 C 0.06214 0.93019 0.75093 0.0
C1703 C 0.06423 0.91888 0.78306 0.0
C1704 C 0.06271 0.93119 0.6803 0.0
C1705 C 0.06568 0.92096 0.64049 0.0
C1706 C 0.06774 0.90961 0.67231 0.0
C1707 C 0.06684 0.90854 0.74312 0.0
H1708 H 0.84966 0.3189 0.52647 0.0
H1709 H 0.81106 0.31075 0.54336 0.0
H1710 H 0.84752 0.3202 0.40216 0.0
H1711 H 0.80907 0.31165 0.41978 0.0
H1712 H 0.81493 0.30217 0.19079 0.0
H1713 H 0.81966 0.299 0.31162 0.0
H1714 H 0.83257 0.33626 0.32612 0.0
H1715 H 0.82753 0.33954 0.206 0.0
C1716 C 0.84079 0.31724 0.50358 0.0
C1717 C 0.83051 0.31479 0.5444 0.0
C1718 C 0.83957 0.31799 0.43277 0.0
C1719 C 0.82815 0.31595 0.40183 0.0
C1720 C 0.81798 0.31316 0.44255 0.0
C1721 C 0.81912 0.31272 0.51315 0.0
C1722 C 0.81896 0.30959 0.21966 0.0
C1723 C 0.82092 0.32107 0.18941 0.0
C1724 C 0.82162 0.3078 0.28854 0.0
C1725 C 0.82653 0.31738 0.32765 0.0
C1726 C 0.82891 0.32872 0.2967 0.0
C1727 C 0.82597 0.3306 0.22834 0.0
H1728 H 0.1337 0.65766 0.18839 0.0
H1729 H 0.16118 0.63271 0.11356 0.0
H1730 H 0.11793 0.6419 0.17241 0.0
H1731 H 0.14549 0.61694 0.09723 0.0
H1732 H 0.11567 0.58842 0.1517 0.0
H1733 H 0.13142 0.60408 0.16923 0.0
H1734 H 0.10811 0.63096 0.07305 0.0
H1735 H 0.09235 0.61525 0.05598 0.0
C1736 C 0.13632 0.64876 0.16891 0.0
C1737 C 0.14857 0.64631 0.1522 0.0
C1738 C 0.12733 0.6398 0.15926 0.0
C1739 C 0.13049 0.62822 0.13341 0.0
C1740 C 0.14281 0.62575 0.11769 0.0
C1741 C 0.15176 0.63475 0.12674 0.0
C1742 C 0.11398 0.59769 0.1343 0.0
C1743 C 0.10289 0.60069 0.10243 0.0
C1744 C 0.12297 0.60661 0.14402 0.0
C1745 C 0.12097 0.61873 0.12259 0.0
C1746 C 0.10984 0.62172 0.09063 0.0
C1747 C 0.10089 0.61274 0.08034 0.0
H1748 H 0.59137 0.88344 0.42613 0.0
H1749 H 0.61602 0.91092 0.34807 0.0
H1750 H 0.60709 0.86771 0.40907 0.0
H1751 H 0.63175 0.89523 0.33023 0.0
H1752 H 0.66056 0.8657 0.38471 0.0
H1753 H 0.64492 0.88152 0.4004 0.0
H1754 H 0.61781 0.85751 0.31187 0.0
H1755 H 0.6335 0.84166 0.29701 0.0
C1756 C 0.60019 0.88607 0.40549 0.0
C1757 C 0.60257 0.89831 0.38836 0.0
C1758 C 0.60913 0.87709 0.3952 0.0
C1759 C 0.62063 0.88024 0.36812 0.0
C1760 C 0.623 0.89255 0.35164 0.0
C1761 C 0.61403 0.9015 0.36148 0.0
C1762 C 0.65125 0.86387 0.36853 0.0
C1763 C 0.64816 0.85254 0.33973 0.0
C1764 C 0.64233 0.87291 0.37714 0.0
C1765 C 0.63014 0.87074 0.35748 0.0
C1766 C 0.6271 0.85939 0.32813 0.0
C1767 C 0.63606 0.85038 0.31909 0.0
H1768 H 0.36516 0.34176 0.67242 0.0
H1769 H 0.33725 0.36621 0.5971 0.0
H1770 H 0.38076 0.35754 0.65251 0.0
H1771 H 0.35279 0.38205 0.57738 0.0
H1772 H 0.38293 0.41065 0.63409 0.0
H1773 H 0.36711 0.39501 0.65049 0.0
H1774 H 0.38999 0.36847 0.54869 0.0
H1775 H 0.4058 0.38419 0.5322 0.0
C1776 C 0.36241 0.35056 0.65198 0.0
C1777 C 0.35009 0.35287 0.63633 0.0
C1778 C 0.3713 0.35952 0.64009 0.0
C1779 C 0.36797 0.37099 0.6132 0.0
C1780 C 0.35559 0.37332 0.59847 0.0
C1781 C 0.34673 0.36429 0.60954 0.0
C1782 C 0.38449 0.40148 0.61491 0.0
C1783 C 0.39551 0.39855 0.58203 0.0
C1784 C 0.37546 0.39257 0.62405 0.0
C1785 C 0.37737 0.38053 0.60112 0.0
C1786 C 0.38835 0.37765 0.56741 0.0
C1787 C 0.39732 0.38663 0.55748 0.0
H1788 H 0.8827 0.08761 0.84883 0.0
H1789 H 0.90712 0.11553 0.92407 0.0
H1790 H 0.86684 0.10313 0.82927 0.0
H1791 H 0.89132 0.13112 0.90433 0.0
H1792 H 0.86434 0.15623 0.78695 0.0
H1793 H 0.88017 0.14047 0.80149 0.0
H1794 H 0.85393 0.11728 0.90383 0.0
H1795 H 0.8382 0.13306 0.88943 0.0
C1796 C 0.88462 0.0971 0.86114 0.0
C1797 C 0.89603 0.10046 0.88801 0.0
C1798 C 0.87558 0.10594 0.85018 0.0
C1799 C 0.87788 0.11832 0.86512 0.0
C1800 C 0.88935 0.12166 0.89177 0.0
C1801 C 0.89833 0.11278 0.90353 0.0
C1802 C 0.862 0.1477 0.81195 0.0
C1803 C 0.85014 0.14579 0.83724 0.0
C1804 C 0.87103 0.13875 0.82072 0.0
C1805 C 0.86827 0.12769 0.85399 0.0
C1806 C 0.85629 0.12569 0.87768 0.0
C1807 C 0.84732 0.1347 0.86971 0.0
H1808 H 0.13392 0.34166 0.81512 0.0
H1809 H 0.16117 0.36637 0.89494 0.0
H1810 H 0.11815 0.35741 0.83012 0.0
H1811 H 0.14544 0.38214 0.9106 0.0
H1812 H 0.09192 0.3839 0.94111 0.0
H1813 H 0.10777 0.3682 0.92688 0.0
H1814 H 0.13185 0.39523 0.83799 0.0
H1815 H 0.11601 0.41089 0.85292 0.0
C1816 C 0.13649 0.3505 0.8357 0.0
C1817 C 0.14868 0.35289 0.85391 0.0
C1818 C 0.12749 0.35946 0.84477 0.0
C1819 C 0.13057 0.37099 0.87166 0.0
C1820 C 0.14282 0.37337 0.88928 0.0
C1821 C 0.15179 0.36437 0.88071 0.0
C1822 C 0.10065 0.38643 0.91895 0.0
C1823 C 0.10283 0.39853 0.89815 0.0
C1824 C 0.10966 0.37747 0.91031 0.0
C1825 C 0.12103 0.3805 0.88122 0.0
C1826 C 0.12322 0.39266 0.86106 0.0
C1827 C 0.11416 0.40159 0.86921 0.0
H1828 H 0.90625 0.88465 0.06319 0.0
H1829 H 0.88263 0.9116 0.1554 0.0
H1830 H 0.89057 0.86885 0.0816 0.0
H1831 H 0.86689 0.89589 0.17318 0.0
H1832 H 0.86514 0.84292 0.20742 0.0
H1833 H 0.88069 0.85886 0.18937 0.0
H1834 H 0.85333 0.88208 0.09679 0.0
H1835 H 0.83789 0.86608 0.11419 0.0
C1836 C 0.89764 0.88717 0.08675 0.0
C1837 C 0.89556 0.89925 0.10798 0.0
C1838 C 0.88875 0.87816 0.09776 0.0
C1839 C 0.87757 0.88118 0.12911 0.0
C1840 C 0.87541 0.89335 0.14874 0.0
C1841 C 0.88438 0.9023 0.1387 0.0
C1842 C 0.8625 0.85149 0.18376 0.0
C1843 C 0.85041 0.85336 0.1621 0.0
C1844 C 0.87136 0.86053 0.17294 0.0
C1845 C 0.86819 0.87165 0.1414 0.0
C1846 C 0.85599 0.87361 0.1214 0.0
C1847 C 0.84719 0.86449 0.13123 0.0
H1848 H 0.36542 0.65746 0.33253 0.0
H1849 H 0.33748 0.63249 0.40193 0.0
H1850 H 0.38107 0.64169 0.35144 0.0
H1851 H 0.35306 0.61669 0.42108 0.0
H1852 H 0.38329 0.5884 0.36415 0.0
H1853 H 0.36741 0.60401 0.34945 0.0
H1854 H 0.39039 0.63043 0.45176 0.0
H1855 H 0.40628 0.61475 0.46609 0.0
C1856 C 0.36267 0.64856 0.35162 0.0
C1857 C 0.35033 0.64609 0.36584 0.0
C1858 C 0.37159 0.6396 0.36295 0.0
C1859 C 0.36827 0.62799 0.38799 0.0
C1860 C 0.35586 0.62553 0.40142 0.0
C1861 C 0.34698 0.63453 0.39072 0.0
C1862 C 0.38487 0.59754 0.38374 0.0
C1863 C 0.39595 0.60045 0.41604 0.0
C1864 C 0.3758 0.60644 0.37564 0.0
C1865 C 0.3777 0.61844 0.3992 0.0
C1866 C 0.38874 0.62128 0.4325 0.0
C1867 C 0.39777 0.61232 0.44123 0.0
H1868 H 0.59157 0.11467 0.55791 0.0
H1869 H 0.6161 0.08783 0.64364 0.0
H1870 H 0.60724 0.13054 0.57236 0.0
H1871 H 0.63176 0.10365 0.65891 0.0
H1872 H 0.6607 0.13294 0.60542 0.0
H1873 H 0.64516 0.11706 0.58807 0.0
H1874 H 0.61751 0.14131 0.66918 0.0
H1875 H 0.63309 0.1572 0.68574 0.0
C1876 C 0.60036 0.1122 0.5795 0.0
C1877 C 0.60271 0.1001 0.59966 0.0
C1878 C 0.60927 0.12126 0.58829 0.0
C1879 C 0.62071 0.11833 0.61693 0.0
C1880 C 0.62308 0.10616 0.6362 0.0
C1881 C 0.61413 0.09713 0.62784 0.0
C1882 C 0.65128 0.13482 0.61941 0.0
C1883 C 0.64802 0.14621 0.64684 0.0
C1884 C 0.64242 0.12575 0.60986 0.0
C1885 C 0.63012 0.12796 0.62718 0.0
C1886 C 0.62689 0.1394 0.6547 0.0
C1887 C 0.63578 0.14843 0.6647 0.0
H1888 H 0.86473 0.34285 0.79748 0.0
H1889 H 0.83844 0.36565 0.90119 0.0
H1890 H 0.88043 0.35871 0.81243 0.0
H1891 H 0.85407 0.38153 0.91617 0.0
H1892 H 0.88252 0.4115 0.85938 0.0
H1893 H 0.8667 0.39587 0.84196 0.0
H1894 H 0.89166 0.36807 0.91439 0.0
H1895 H 0.90743 0.38377 0.93194 0.0
C1896 C 0.86233 0.35132 0.82292 0.0
C1897 C 0.85046 0.3531 0.84837 0.0
C1898 C 0.87129 0.36032 0.83196 0.0
C1899 C 0.86846 0.37131 0.86572 0.0
C1900 C 0.85648 0.37317 0.88968 0.0
C1901 C 0.84757 0.36411 0.88138 0.0
C1902 C 0.88454 0.40204 0.87176 0.0
C1903 C 0.89609 0.39876 0.89704 0.0
C1904 C 0.87552 0.39313 0.862 0.0
C1905 C 0.87799 0.38077 0.8766 0.0
C1906 C 0.88957 0.37752 0.90209 0.0
C1907 C 0.89854 0.38646 0.91263 0.0
H1908 H 0.40712 0.11514 0.55512 0.0
H1909 H 0.38296 0.08794 0.6407 0.0
H1910 H 0.3913 0.13084 0.57091 0.0
H1911 H 0.36716 0.10358 0.65714 0.0
H1912 H 0.36523 0.15709 0.68557 0.0
H1913 H 0.38096 0.14133 0.66915 0.0
H1914 H 0.3536 0.11693 0.58638 0.0
H1915 H 0.33793 0.13268 0.60346 0.0
C1916 C 0.39837 0.11255 0.57693 0.0
C1917 C 0.39617 0.10041 0.59672 0.0
C1918 C 0.38939 0.12151 0.58651 0.0
C1919 C 0.37802 0.11843 0.61546 0.0
C1920 C 0.37579 0.1062 0.63425 0.0
C1921 C 0.38482 0.09728 0.62517 0.0
C1922 C 0.36263 0.1483 0.66436 0.0
C1923 C 0.35044 0.14601 0.6458 0.0
C1924 C 0.37161 0.13935 0.65441 0.0
C1925 C 0.36851 0.12792 0.62628 0.0
C1926 C 0.35624 0.12561 0.60861 0.0
C1927 C 0.3473 0.1346 0.61807 0.0
H1928 H 0.59292 0.61435 0.44915 0.0
H1929 H 0.61645 0.58751 0.35539 0.0
H1930 H 0.60869 0.63011 0.43223 0.0
H1931 H 0.63229 0.60317 0.33913 0.0
H1932 H 0.66143 0.63269 0.40051 0.0
H1933 H 0.64587 0.61676 0.41702 0.0
H1934 H 0.6187 0.64028 0.32523 0.0
H1935 H 0.63435 0.65615 0.30806 0.0
C1936 C 0.60153 0.61185 0.42557 0.0
C1937 C 0.60356 0.59981 0.40349 0.0
C1938 C 0.61047 0.62083 0.41541 0.0
C1939 C 0.62166 0.61783 0.38412 0.0
C1940 C 0.62377 0.6057 0.36358 0.0
C1941 C 0.61474 0.59677 0.37274 0.0
C1942 C 0.65214 0.63436 0.38355 0.0
C1943 C 0.64901 0.64555 0.35308 0.0
C1944 C 0.64327 0.62529 0.39283 0.0
C1945 C 0.6311 0.62735 0.3727 0.0
C1946 C 0.62801 0.63854 0.34173 0.0
C1947 C 0.63693 0.64754 0.33145 0.0
H1948 H 0.13345 0.84153 0.16016 0.0
H1949 H 0.16144 0.86662 0.09283 0.0
H1950 H 0.1178 0.85733 0.14165 0.0
H1951 H 0.14587 0.88248 0.07444 0.0
H1952 H 0.11546 0.9105 0.13593 0.0
H1953 H 0.13137 0.89485 0.14886 0.0
H1954 H 0.10868 0.86896 0.04067 0.0
H1955 H 0.09278 0.88468 0.02783 0.0
C1956 C 0.1362 0.85046 0.14155 0.0
C1957 C 0.14855 0.85295 0.12785 0.0
C1958 C 0.12729 0.85944 0.1305 0.0
C1959 C 0.13064 0.8711 0.1064 0.0
C1960 C 0.14305 0.87359 0.09336 0.0
C1961 C 0.15193 0.86456 0.10364 0.0
C1962 C 0.11395 0.90147 0.11465 0.0
C1963 C 0.10296 0.89871 0.08109 0.0
C1964 C 0.12304 0.89256 0.12174 0.0
C1965 C 0.12122 0.88069 0.096 0.0
C1966 C 0.11026 0.878 0.06153 0.0
C1967 C 0.10123 0.88698 0.05371 0.0
H1968 H 0.88297 0.5882 0.14211 0.0
H1969 H 0.90728 0.61537 0.05758 0.0
H1970 H 0.86709 0.60384 0.15689 0.0
H1971 H 0.89141 0.63104 0.07163 0.0
H1972 H 0.86502 0.65737 0.183 0.0
H1973 H 0.88081 0.64165 0.16802 0.0
H1974 H 0.85368 0.61709 0.08435 0.0
H1975 H 0.83792 0.63283 0.10005 0.0
C1976 C 0.88486 0.59754 0.12662 0.0
C1977 C 0.89626 0.60066 0.09879 0.0
C1978 C 0.87579 0.60646 0.13467 0.0
C1979 C 0.87803 0.61866 0.11547 0.0
C1980 C 0.88948 0.62174 0.08747 0.0
C1981 C 0.8985 0.61279 0.07896 0.0
C1982 C 0.86249 0.64858 0.16168 0.0
C1983 C 0.85034 0.64623 0.14265 0.0
C1984 C 0.8715 0.63964 0.15264 0.0
C1985 C 0.86847 0.62816 0.12491 0.0
C1986 C 0.85626 0.62582 0.10635 0.0
C1987 C 0.84727 0.6348 0.11492 0.0
H1988 H 0.13392 0.15678 0.80407 0.0
H1989 H 0.16069 0.13355 0.90099 0.0
H1990 H 0.11817 0.1411 0.82208 0.0
H1991 H 0.14499 0.11788 0.91959 0.0
H1992 H 0.11619 0.08811 0.86879 0.0
H1993 H 0.13201 0.10366 0.84996 0.0
H1994 H 0.10721 0.13163 0.92201 0.0
H1995 H 0.0914 0.11601 0.94039 0.0
C1996 C 0.13641 0.14827 0.82882 0.0
C1997 C 0.14845 0.14628 0.85105 0.0
C1998 C 0.12741 0.13936 0.83967 0.0
C1999 C 0.13036 0.12829 0.87238 0.0
C2000 C 0.14248 0.12628 0.89379 0.0
C2001 C 0.15143 0.13523 0.88347 0.0
C2002 C 0.11419 0.0976 0.88066 0.0
C2003 C 0.10266 0.10095 0.9059 0.0
C2004 C 0.12322 0.10647 0.87021 0.0
C2005 C 0.12082 0.11886 0.88434 0.0
C2006 C 0.10926 0.12217 0.90999 0.0
C2007 C 0.10027 0.11327 0.92101 0.0
H2008 H 0.6159 0.4108 0.64594 0.0
H2009 H 0.59166 0.38322 0.56507 0.0
H2010 H 0.63172 0.39523 0.66418 0.0
H2011 H 0.60748 0.3676 0.58273 0.0
H2012 H 0.63389 0.34179 0.69796 0.0
H2013 H 0.61808 0.35749 0.68161 0.0
H2014 H 0.64513 0.38164 0.59349 0.0
H2015 H 0.66088 0.36595 0.61041 0.0
C2016 C 0.61402 0.40138 0.63197 0.0
C2017 C 0.60265 0.39814 0.60411 0.0
C2018 C 0.62305 0.39251 0.64206 0.0
C2019 C 0.62082 0.3802 0.62497 0.0
C2020 C 0.60941 0.37699 0.59699 0.0
C2021 C 0.60042 0.3859 0.58637 0.0
C2022 C 0.6364 0.35051 0.67556 0.0
C2023 C 0.64852 0.35274 0.6554 0.0
C2024 C 0.62738 0.35943 0.6657 0.0
C2025 C 0.63038 0.37077 0.6361 0.0
C2026 C 0.64258 0.37303 0.61688 0.0
C2027 C 0.65156 0.36407 0.62622 0.0
H2028 H 0.38275 0.91045 0.3616 0.0
H2029 H 0.40683 0.8832 0.44726 0.0
H2030 H 0.36688 0.89486 0.34546 0.0
H2031 H 0.39095 0.86755 0.4317 0.0
H2032 H 0.33754 0.86593 0.39995 0.0
H2033 H 0.35332 0.88159 0.41689 0.0
H2034 H 0.3805 0.85707 0.33353 0.0
H2035 H 0.36467 0.8414 0.31718 0.0
C2036 C 0.38457 0.90111 0.37719 0.0
C2037 C 0.39592 0.89795 0.40562 0.0
C2038 C 0.37551 0.89222 0.36828 0.0
C2039 C 0.3777 0.87999 0.38719 0.0
C2040 C 0.38907 0.87687 0.41604 0.0
C2041 C 0.39809 0.8858 0.42546 0.0
C2042 C 0.3469 0.86395 0.38523 0.0
C2043 C 0.34997 0.85254 0.35731 0.0
C2044 C 0.3559 0.87289 0.3946 0.0
C2045 C 0.36814 0.87053 0.37666 0.0
C2046 C 0.37117 0.85909 0.34846 0.0
C2047 C 0.36214 0.85019 0.33858 0.0
H2048 H 0.08106 0.47239 0.86525 0.0
H2049 H 0.06728 0.4659 0.06792 0.0
H2050 H 0.08291 0.49416 0.8906 0.0
H2051 H 0.06859 0.48766 0.09233 0.0
H2052 H 0.07974 0.52648 0.13698 0.0
H2053 H 0.08138 0.50464 0.11285 0.0
H2054 H 0.07022 0.51135 0.90526 0.0
H2055 H 0.06912 0.53313 0.92864 0.0
C2056 C 0.07841 0.47561 0.91518 0.0
C2057 C 0.07397 0.46742 0.96444 0.0
C2058 C 0.0794 0.48812 0.92966 0.0
C2059 C 0.07582 0.49274 0.99343 0.0
C2060 C 0.07162 0.48446 0.04306 0.0
C2061 C 0.07078 0.47195 0.02888 0.0
C2062 C 0.07775 0.52328 0.08606 0.0
C2063 C 0.07427 0.53155 0.03483 0.0
C2064 C 0.07861 0.51074 0.07227 0.0
C2065 C 0.07587 0.50616 0.00713 0.0
C2066 C 0.07261 0.5145 0.95569 0.0
C2067 C 0.0719 0.52703 0.96926 0.0
H2068 H 0.72214 0.83103 0.37919 0.0
H2069 H 0.71593 0.81818 0.1744 0.0
H2070 H 0.74396 0.83291 0.355 0.0
H2071 H 0.73773 0.81952 0.15114 0.0
H2072 H 0.7769 0.83011 0.11061 0.0
H2073 H 0.75499 0.83206 0.13318 0.0
H2074 H 0.76093 0.82 0.33995 0.0
H2075 H 0.78272 0.81859 0.31826 0.0
C2076 C 0.72543 0.8286 0.32904 0.0
C2077 C 0.71731 0.82439 0.2789 0.0
C2078 C 0.73796 0.82961 0.31521 0.0
C2079 C 0.74267 0.82627 0.25121 0.0
C2080 C 0.73446 0.82235 0.20064 0.0
C2081 C 0.72193 0.8215 0.21418 0.0
C2082 C 0.77351 0.82799 0.16099 0.0
C2083 C 0.78156 0.82417 0.21252 0.0
C2084 C 0.76094 0.82904 0.17391 0.0
C2085 C 0.75613 0.82615 0.23842 0.0
C2086 C 0.76426 0.82253 0.29006 0.0
C2087 C 0.7768 0.82163 0.27741 0.0
H2088 H 0.43262 0.53299 0.56723 0.0
H2089 H 0.41839 0.52698 0.36503 0.0
H2090 H 0.43113 0.51123 0.59083 0.0
H2091 H 0.4164 0.50517 0.38966 0.0
H2092 H 0.43012 0.4661 0.42578 0.0
H2093 H 0.42907 0.48789 0.40334 0.0
H2094 H 0.41814 0.49434 0.61147 0.0
H2095 H 0.41971 0.47242 0.63474 0.0
C2096 C 0.42899 0.52704 0.52805 0.0
C2097 C 0.42571 0.53173 0.46399 0.0
C2098 C 0.42804 0.51453 0.54184 0.0
C2099 C 0.42366 0.50638 0.49221 0.0
C2100 C 0.42003 0.51113 0.42874 0.0
C2101 C 0.42111 0.52365 0.41464 0.0
C2102 C 0.42741 0.47213 0.46681 0.0
C2103 C 0.42507 0.4675 0.53226 0.0
C2104 C 0.42671 0.48467 0.45371 0.0
C2105 C 0.42353 0.49294 0.5055 0.0
C2106 C 0.42083 0.48827 0.57059 0.0
C2107 C 0.42166 0.4757 0.58392 0.0
H2108 H 0.77609 0.16933 0.89509 0.0
H2109 H 0.78214 0.17999 0.68619 0.0
H2110 H 0.75418 0.16739 0.8721 0.0
H2111 H 0.76038 0.17856 0.66407 0.0
H2112 H 0.72188 0.16719 0.62355 0.0
H2113 H 0.7436 0.16539 0.65003 0.0
H2114 H 0.7368 0.1798 0.85115 0.0
H2115 H 0.71505 0.18106 0.82561 0.0
C2116 C 0.77275 0.17126 0.84436 0.0
C2117 C 0.78087 0.17482 0.79257 0.0
C2118 C 0.76018 0.17021 0.8312 0.0
C2119 C 0.75546 0.17281 0.76615 0.0
C2120 C 0.76365 0.17623 0.71438 0.0
C2121 C 0.77617 0.17714 0.72729 0.0
C2122 C 0.72502 0.16986 0.67361 0.0
C2123 C 0.71675 0.17435 0.72226 0.0
C2124 C 0.73749 0.1689 0.68875 0.0
C2125 C 0.74203 0.17258 0.75256 0.0
C2126 C 0.73367 0.17673 0.80182 0.0
C2127 C 0.72117 0.17753 0.78698 0.0
H2128 H 0.93038 0.46615 0.06702 0.0
H2129 H 0.91921 0.47275 0.85953 0.0
H2130 H 0.92921 0.48793 0.09054 0.0
H2131 H 0.91751 0.49459 0.88385 0.0
H2132 H 0.93154 0.5334 0.92785 0.0
H2133 H 0.93026 0.51163 0.90347 0.0
H2134 H 0.91645 0.50504 0.10619 0.0
H2135 H 0.91826 0.52682 0.13149 0.0
C2136 C 0.92747 0.47224 0.02663 0.0
C2137 C 0.92497 0.46771 0.96124 0.0
C2138 C 0.92672 0.48476 0.04029 0.0
C2139 C 0.92328 0.49309 0.98914 0.0
C2140 C 0.92041 0.4885 0.92419 0.0
C2141 C 0.92131 0.47596 0.91029 0.0
C2142 C 0.92815 0.52732 0.96712 0.0
C2143 C 0.92509 0.53184 0.03181 0.0
C2144 C 0.92733 0.51481 0.95296 0.0
C2145 C 0.92329 0.50651 0.00286 0.0
C2146 C 0.91984 0.51111 0.06691 0.0
C2147 C 0.92081 0.52361 0.08135 0.0
H2148 H 0.22262 0.1695 0.88458 0.0
H2149 H 0.21588 0.1805 0.67694 0.0
H2150 H 0.24445 0.16785 0.85992 0.0
H2151 H 0.23765 0.17938 0.65305 0.0
H2152 H 0.27656 0.16835 0.61181 0.0
H2153 H 0.25478 0.16663 0.6374 0.0
H2154 H 0.26145 0.1806 0.83963 0.0
H2155 H 0.28322 0.18179 0.81498 0.0
C2156 C 0.22579 0.17158 0.83372 0.0
C2157 C 0.21751 0.17516 0.78282 0.0
C2158 C 0.23833 0.1707 0.81961 0.0
C2159 C 0.24287 0.17354 0.75451 0.0
C2160 C 0.23452 0.17691 0.70343 0.0
C2161 C 0.222 0.17764 0.71729 0.0
C2162 C 0.27337 0.17096 0.66189 0.0
C2163 C 0.28162 0.17525 0.71124 0.0
C2164 C 0.26086 0.17004 0.67651 0.0
C2165 C 0.25629 0.17355 0.74052 0.0
C2166 C 0.26462 0.17762 0.79018 0.0
C2167 C 0.27712 0.17839 0.77586 0.0
H2168 H 0.56726 0.46497 0.42457 0.0
H2169 H 0.58134 0.47203 0.62599 0.0
H2170 H 0.56853 0.48668 0.39808 0.0
H2171 H 0.58314 0.49372 0.59855 0.0
H2172 H 0.56885 0.53231 0.5606 0.0
H2173 H 0.57009 0.51057 0.58386 0.0
H2174 H 0.58103 0.50393 0.37593 0.0
H2175 H 0.57927 0.52582 0.35181 0.0
C2176 C 0.57083 0.47114 0.46287 0.0
C2177 C 0.57408 0.46678 0.52767 0.0
C2178 C 0.57163 0.48361 0.44748 0.0
C2179 C 0.57586 0.49202 0.49625 0.0
C2180 C 0.57958 0.48757 0.56019 0.0
C2181 C 0.57861 0.47511 0.57588 0.0
C2182 C 0.5716 0.52625 0.51976 0.0
C2183 C 0.57392 0.53082 0.45419 0.0
C2184 C 0.57241 0.51374 0.53332 0.0
C2185 C 0.5757 0.50543 0.48192 0.0
C2186 C 0.57829 0.51003 0.41656 0.0
C2187 C 0.57735 0.52258 0.40275 0.0
H2188 H 0.27417 0.81936 0.38955 0.0
H2189 H 0.28401 0.8303 0.18573 0.0
H2190 H 0.25258 0.82068 0.35972 0.0
H2191 H 0.26242 0.8322 0.15659 0.0
H2192 H 0.22385 0.81863 0.10418 0.0
H2193 H 0.24545 0.81974 0.13364 0.0
H2194 H 0.2359 0.83333 0.33314 0.0
H2195 H 0.21427 0.83165 0.30452 0.0
C2196 C 0.27171 0.82227 0.33869 0.0
C2197 C 0.2808 0.82463 0.28987 0.0
C2198 C 0.25931 0.8231 0.32158 0.0
C2199 C 0.25569 0.8265 0.25549 0.0
C2200 C 0.26483 0.8293 0.20749 0.0
C2201 C 0.27722 0.82829 0.22432 0.0
C2202 C 0.22637 0.82196 0.15412 0.0
C2203 C 0.21734 0.82496 0.20217 0.0
C2204 C 0.23879 0.82266 0.171 0.0
C2205 C 0.24249 0.82657 0.23604 0.0
C2206 C 0.23343 0.83002 0.28313 0.0
C2207 C 0.22101 0.82914 0.26657 0.0
H2208 H 0.56798 0.96516 0.56698 0.0
H2209 H 0.5802 0.97244 0.362 0.0
H2210 H 0.56913 0.98688 0.59296 0.0
H2211 H 0.58185 0.99417 0.3888 0.0
H2212 H 0.5676 0.03276 0.43313 0.0
H2213 H 0.56885 0.01104 0.40786 0.0
H2214 H 0.58184 0.00404 0.61182 0.0
H2215 H 0.58008 0.02581 0.63797 0.0
C2216 C 0.57111 0.97138 0.52771 0.0
C2217 C 0.57391 0.96707 0.46222 0.0
C2218 C 0.57185 0.98386 0.54278 0.0
C2219 C 0.57554 0.99234 0.49297 0.0
C2220 C 0.57874 0.98795 0.42808 0.0
C2221 C 0.57786 0.97548 0.41276 0.0
C2222 C 0.5708 0.02661 0.47255 0.0
C2223 C 0.57366 0.03102 0.53774 0.0
C2224 C 0.57161 0.01413 0.45787 0.0
C2225 C 0.57544 0.00573 0.50774 0.0
C2226 C 0.57864 0.0102 0.57247 0.0
C2227 C 0.5777 0.02269 0.58741 0.0
H2228 H 0.21566 0.31726 0.68005 0.0
H2229 H 0.22265 0.33042 0.88341 0.0
H2230 H 0.23739 0.31837 0.65454 0.0
H2231 H 0.2444 0.33208 0.85698 0.0
H2232 H 0.28325 0.31825 0.81508 0.0
H2233 H 0.2615 0.31936 0.84009 0.0
H2234 H 0.25439 0.33107 0.63384 0.0
H2235 H 0.27617 0.32941 0.60806 0.0
C2236 C 0.22182 0.32058 0.71904 0.0
C2237 C 0.21742 0.32367 0.78394 0.0
C2238 C 0.23431 0.32131 0.70423 0.0
C2239 C 0.24272 0.32529 0.75367 0.0
C2240 C 0.23825 0.32874 0.81801 0.0
C2241 C 0.22576 0.32786 0.83311 0.0
C2242 C 0.27706 0.32114 0.77512 0.0
C2243 C 0.28145 0.32367 0.70942 0.0
C2244 C 0.26456 0.32186 0.78962 0.0
C2245 C 0.25612 0.32528 0.73904 0.0
C2246 C 0.26057 0.32817 0.67378 0.0
C2247 C 0.27308 0.32729 0.65903 0.0
H2248 H 0.91762 0.96533 0.95213 0.0
H2249 H 0.93065 0.97451 0.15297 0.0
H2250 H 0.91584 0.98698 0.92479 0.0
H2251 H 0.92947 0.99621 0.12469 0.0
H2252 H 0.91879 0.03496 0.07214 0.0
H2253 H 0.91712 0.01336 0.10185 0.0
H2254 H 0.92856 0.00353 0.89864 0.0
H2255 H 0.92964 0.02507 0.86831 0.0
C2256 C 0.92012 0.972 0.99046 0.0
C2257 C 0.92435 0.96821 0.05457 0.0
C2258 C 0.91919 0.98443 0.97462 0.0
C2259 C 0.92266 0.99341 0.0221 0.0
C2260 C 0.92657 0.9896 0.08701 0.0
C2261 C 0.92731 0.97714 0.10322 0.0
C2262 C 0.92083 0.02817 0.03367 0.0
C2263 C 0.92437 0.03173 0.96788 0.0
C2264 C 0.91996 0.01576 0.05084 0.0
C2265 C 0.92276 0.00663 0.00288 0.0
C2266 C 0.9261 0.01025 0.93672 0.0
C2267 C 0.9268 0.02263 0.91932 0.0
H2268 H 0.28339 0.67958 0.1856 0.0
H2269 H 0.27623 0.66871 0.39302 0.0
H2270 H 0.26166 0.67847 0.1604 0.0
H2271 H 0.25445 0.66706 0.36705 0.0
H2272 H 0.21593 0.68146 0.32056 0.0
H2273 H 0.23763 0.68 0.34602 0.0
H2274 H 0.24439 0.66593 0.14408 0.0
H2275 H 0.22266 0.66792 0.11767 0.0
C2276 C 0.27719 0.67674 0.22561 0.0
C2277 C 0.28154 0.67433 0.2915 0.0
C2278 C 0.2647 0.67602 0.21099 0.0
C2279 C 0.25623 0.67271 0.26168 0.0
C2280 C 0.26065 0.66988 0.32705 0.0
C2281 C 0.27316 0.67075 0.3419 0.0
C2282 C 0.22202 0.67798 0.28167 0.0
C2283 C 0.21756 0.67489 0.21689 0.0
C2284 C 0.2345 0.67705 0.29646 0.0
C2285 C 0.24283 0.67287 0.24714 0.0
C2286 C 0.23829 0.66941 0.18295 0.0
C2287 C 0.22582 0.67049 0.16786 0.0
H2288 H 0.41798 0.02643 0.63629 0.0
H2289 H 0.43034 0.03265 0.43053 0.0
H2290 H 0.41599 0.00461 0.61223 0.0
H2291 H 0.4289 0.01087 0.40736 0.0
H2292 H 0.41798 0.97199 0.36611 0.0
H2293 H 0.41613 0.99382 0.39009 0.0
H2294 H 0.42864 0.98745 0.59562 0.0
H2295 H 0.42994 0.96567 0.57251 0.0
C2296 C 0.42028 0.02314 0.58597 0.0
C2297 C 0.42436 0.03127 0.53546 0.0
C2298 C 0.41921 0.01061 0.57221 0.0
C2299 C 0.42236 0.00591 0.5079 0.0
C2300 C 0.42619 0.01413 0.45709 0.0
C2301 C 0.42711 0.02665 0.47057 0.0
C2302 C 0.42022 0.97526 0.41656 0.0
C2303 C 0.42416 0.96709 0.46726 0.0
C2304 C 0.41923 0.98779 0.43027 0.0
C2305 C 0.42231 0.99247 0.49474 0.0
C2306 C 0.42599 0.98422 0.54574 0.0
C2307 C 0.42682 0.9717 0.5323 0.0
H2308 H 0.71508 0.66768 0.19799 0.0
H2309 H 0.72418 0.6807 0.39893 0.0
H2310 H 0.73675 0.66602 0.17076 0.0
H2311 H 0.74589 0.67965 0.37079 0.0
H2312 H 0.78467 0.66917 0.31896 0.0
H2313 H 0.76307 0.66739 0.34821 0.0
H2314 H 0.75328 0.67876 0.14473 0.0
H2315 H 0.77485 0.67995 0.11485 0.0
C2316 C 0.72174 0.67021 0.23637 0.0
C2317 C 0.71793 0.67439 0.30049 0.0
C2318 C 0.73418 0.66934 0.22059 0.0
C2319 C 0.74314 0.67285 0.26814 0.0
C2320 C 0.7393 0.67672 0.33305 0.0
C2321 C 0.72684 0.67739 0.3492 0.0
C2322 C 0.77788 0.67118 0.28034 0.0
C2323 C 0.78147 0.67473 0.21461 0.0
C2324 C 0.76548 0.67024 0.29724 0.0
C2325 C 0.75636 0.673 0.24909 0.0
C2326 C 0.76 0.67635 0.18297 0.0
C2327 C 0.77239 0.67711 0.16581 0.0
H2328 H 0.06802 0.96693 0.93586 0.0
H2329 H 0.07982 0.97225 0.14339 0.0
H2330 H 0.06955 0.98874 0.9154 0.0
H2331 H 0.08188 0.9942 0.12201 0.0
H2332 H 0.06842 0.03358 0.08158 0.0
H2333 H 0.06958 0.01174 0.10482 0.0
H2334 H 0.08278 0.00544 0.90062 0.0
H2335 H 0.08107 0.02727 0.87652 0.0
C2336 C 0.07114 0.97274 0.97697 0.0
C2337 C 0.07375 0.96783 0.04142 0.0
C2338 C 0.07212 0.98529 0.96501 0.0
C2339 C 0.07588 0.99329 0.01691 0.0
C2340 C 0.07878 0.98835 0.08108 0.0
C2341 C 0.07766 0.97575 0.0933 0.0
C2342 C 0.07167 0.02755 0.04177 0.0
C2343 C 0.07453 0.03215 0.97694 0.0
C2344 C 0.07241 0.015 0.05527 0.0
C2345 C 0.07619 0.00676 0.00451 0.0
C2346 C 0.07956 0.01146 0.94052 0.0
C2347 C 0.07865 0.02399 0.92674 0.0
H2348 H 0.72399 0.3187 0.61938 0.0
H2349 H 0.71493 0.331 0.82185 0.0
H2350 H 0.74567 0.31981 0.6471 0.0
H2351 H 0.73663 0.33268 0.8488 0.0
H2352 H 0.77529 0.31884 0.89969 0.0
H2353 H 0.75355 0.32012 0.87257 0.0
H2354 H 0.76254 0.33241 0.6696 0.0
H2355 H 0.78422 0.33055 0.69594 0.0
C2356 C 0.72664 0.32187 0.66943 0.0
C2357 C 0.71774 0.32467 0.71853 0.0
C2358 C 0.7391 0.32258 0.68534 0.0
C2359 C 0.74297 0.32629 0.75044 0.0
C2360 C 0.73403 0.32953 0.79868 0.0
C2361 C 0.72157 0.32865 0.78306 0.0
C2362 C 0.7726 0.32191 0.84951 0.0
C2363 C 0.78146 0.32448 0.7998 0.0
C2364 C 0.76012 0.32271 0.83393 0.0
C2365 C 0.75623 0.32629 0.76859 0.0
C2366 C 0.76515 0.32934 0.71988 0.0
C2367 C 0.77761 0.32836 0.73513 0.0
H2368 H 0.02975 0.57297 0.97603 0.0
H2369 H 0.03132 0.57671 0.19442 0.0
H2370 H 0.00762 0.57454 0.97981 0.0
H2371 H 0.00908 0.57876 0.19814 0.0
H2372 H 0.96915 0.56497 0.18285 0.0
H2373 H 0.99138 0.56649 0.18524 0.0
H2374 H 0.99059 0.58723 0.99797 0.0
H2375 H 0.9684 0.58521 0.99413 0.0
C2376 C 0.02538 0.57435 0.02487 0.0
C2377 C 0.03232 0.57461 0.08502 0.0
C2378 C 0.01265 0.57534 0.02702 0.0
C2379 C 0.00649 0.57677 0.08932 0.0
C2380 C 0.01347 0.57745 0.14936 0.0
C2381 C 0.02624 0.57632 0.14725 0.0
C2382 C 0.97372 0.56996 0.14253 0.0
C2383 C 0.96702 0.57484 0.08785 0.0
C2384 C 0.98649 0.5709 0.14409 0.0
C2385 C 0.99284 0.57689 0.09143 0.0
C2386 C 0.98605 0.58229 0.03854 0.0
C2387 C 0.97331 0.5812 0.03651 0.0
H2388 H 0.68457 0.71914 0.44401 0.0
H2389 H 0.66417 0.71751 0.25618 0.0
H2390 H 0.68312 0.7414 0.44291 0.0
H2391 H 0.66214 0.7397 0.2567 0.0
H2392 H 0.67615 0.77862 0.22641 0.0
H2393 H 0.67468 0.75653 0.23465 0.0
H2394 H 0.67126 0.75932 0.45306 0.0
H2395 H 0.67331 0.78153 0.44481 0.0
C2396 C 0.67955 0.72353 0.40324 0.0
C2397 C 0.67463 0.71659 0.34969 0.0
C2398 C 0.67865 0.73632 0.40275 0.0
C2399 C 0.67264 0.74243 0.34922 0.0
C2400 C 0.66713 0.73537 0.29776 0.0
C2401 C 0.66821 0.72263 0.29766 0.0
C2402 C 0.67498 0.77455 0.27622 0.0
C2403 C 0.67491 0.78185 0.33499 0.0
C2404 C 0.67404 0.76184 0.28097 0.0
C2405 C 0.67283 0.75606 0.34458 0.0
C2406 C 0.67239 0.76341 0.40331 0.0
C2407 C 0.67349 0.77616 0.39859 0.0
H2408 H 0.46962 0.42481 0.4726 0.0
H2409 H 0.46748 0.42318 0.69171 0.0
H2410 H 0.49171 0.42325 0.47852 0.0
H2411 H 0.48972 0.42108 0.69767 0.0
H2412 H 0.52976 0.43468 0.6806 0.0
H2413 H 0.50752 0.43313 0.68248 0.0
H2414 H 0.50864 0.41075 0.50132 0.0
H2415 H 0.53082 0.41281 0.4978 0.0
C2416 C 0.47385 0.42389 0.52214 0.0
C2417 C 0.46676 0.4242 0.58173 0.0
C2418 C 0.48657 0.4229 0.52554 0.0
C2419 C 0.49257 0.42203 0.58861 0.0
C2420 C 0.48544 0.42194 0.64825 0.0
C2421 C 0.47268 0.42306 0.64485 0.0
C2422 C 0.52526 0.42933 0.64156 0.0
C2423 C 0.53204 0.42401 0.58854 0.0
C2424 C 0.51249 0.42837 0.64285 0.0
C2425 C 0.50622 0.42192 0.59162 0.0
C2426 C 0.5131 0.41605 0.54065 0.0
C2427 C 0.52584 0.41717 0.5388 0.0
H2428 H 0.83501 0.28091 0.75754 0.0
H2429 H 0.81476 0.27981 0.946 0.0
H2430 H 0.837 0.25872 0.76 0.0
H2431 H 0.81617 0.25755 0.94687 0.0
H2432 H 0.82579 0.21732 0.95109 0.0
H2433 H 0.828 0.23954 0.95793 0.0
H2434 H 0.82423 0.24198 0.73956 0.0
H2435 H 0.82258 0.21991 0.73269 0.0
C2436 C 0.83099 0.27591 0.79957 0.0
C2437 C 0.82462 0.28209 0.85118 0.0
C2438 C 0.83205 0.26317 0.80081 0.0
C2439 C 0.82656 0.25626 0.85301 0.0
C2440 C 0.82062 0.26252 0.90616 0.0
C2441 C 0.81974 0.2753 0.9055 0.0
C2442 C 0.82557 0.22262 0.90458 0.0
C2443 C 0.82399 0.21683 0.84139 0.0
C2444 C 0.82676 0.23537 0.90849 0.0
C2445 C 0.82628 0.24262 0.84933 0.0
C2446 C 0.82491 0.23675 0.78617 0.0
C2447 C 0.82387 0.22404 0.78223 0.0
H2448 H 0.96956 0.42519 0.01958 0.0
H2449 H 0.96778 0.42357 0.80037 0.0
H2450 H 0.99167 0.42359 0.01477 0.0
H2451 H 0.99001 0.4214 0.79553 0.0
H2452 H 0.03 0.4349 0.81366 0.0
H2453 H 0.00778 0.43336 0.81106 0.0
H2454 H 0.00867 0.41117 0.99314 0.0
H2455 H 0.03085 0.41323 0.99736 0.0
C2456 C 0.97387 0.42426 0.97027 0.0
C2457 C 0.96689 0.42459 0.91032 0.0
C2458 C 0.9866 0.42324 0.96751 0.0
C2459 C 0.9927 0.42236 0.90472 0.0
C2460 C 0.98567 0.42228 0.84474 0.0
C2461 C 0.97291 0.42345 0.84749 0.0
C2462 C 0.02546 0.42958 0.85271 0.0
C2463 C 0.03217 0.42431 0.90616 0.0
C2464 C 0.01269 0.42863 0.85104 0.0
C2465 C 0.00635 0.42224 0.90229 0.0
C2466 C 0.01318 0.41643 0.95376 0.0
C2467 C 0.02592 0.41754 0.95599 0.0
H2468 H 0.82627 0.78131 0.05565 0.0
H2469 H 0.82333 0.77927 0.27436 0.0
H2470 H 0.82828 0.75906 0.05041 0.0
H2471 H 0.82478 0.75716 0.26907 0.0
H2472 H 0.835 0.71792 0.25212 0.0
H2473 H 0.83719 0.7401 0.24918 0.0
H2474 H 0.81612 0.74136 0.06317 0.0
H2475 H 0.81447 0.71915 0.06453 0.0
C2476 C 0.82607 0.77612 0.10257 0.0
C2477 C 0.8246 0.78207 0.16536 0.0
C2478 C 0.82715 0.76335 0.09959 0.0
C2479 C 0.82665 0.75625 0.15928 0.0
C2480 C 0.82544 0.76228 0.22207 0.0
C2481 C 0.82452 0.77501 0.22509 0.0
C2482 C 0.83096 0.72294 0.21022 0.0
C2483 C 0.82447 0.71679 0.15891 0.0
C2484 C 0.83215 0.73568 0.20869 0.0
C2485 C 0.82669 0.7426 0.15643 0.0
C2486 C 0.82057 0.73637 0.10382 0.0
C2487 C 0.81955 0.72361 0.10481 0.0
H2488 H 0.46898 0.56476 0.31166 0.0
H2489 H 0.46875 0.58635 0.49552 0.0
H2490 H 0.49122 0.56621 0.30715 0.0
H2491 H 0.49091 0.58836 0.48931 0.0
H2492 H 0.52971 0.57377 0.51517 0.0
H2493 H 0.50765 0.57562 0.51051 0.0
H2494 H 0.50925 0.57788 0.29127 0.0
H2495 H 0.53148 0.57548 0.29598 0.0
C2496 C 0.47367 0.57005 0.35029 0.0
C2497 C 0.46713 0.57528 0.40454 0.0
C2498 C 0.48644 0.57095 0.34752 0.0
C2499 C 0.49294 0.57726 0.39841 0.0
C2500 C 0.48628 0.58313 0.45028 0.0
C2501 C 0.47355 0.58205 0.45367 0.0
C2502 C 0.5254 0.57477 0.46587 0.0
C2503 C 0.53238 0.57441 0.4059 0.0
C2504 C 0.5127 0.57593 0.46319 0.0
C2505 C 0.50659 0.57694 0.40049 0.0
C2506 C 0.51361 0.57695 0.34044 0.0
C2507 C 0.52636 0.57564 0.3431 0.0
H2508 H 0.68473 0.21902 0.57052 0.0
H2509 H 0.66371 0.21818 0.75649 0.0
H2510 H 0.68343 0.24126 0.56889 0.0
H2511 H 0.6619 0.24039 0.75331 0.0
H2512 H 0.67613 0.27948 0.77835 0.0
H2513 H 0.67455 0.25735 0.77371 0.0
H2514 H 0.67137 0.25904 0.55485 0.0
H2515 H 0.6735 0.28127 0.55944 0.0
C2516 C 0.67963 0.22357 0.61038 0.0
C2517 C 0.67446 0.21684 0.66409 0.0
C2518 C 0.67881 0.23635 0.60925 0.0
C2519 C 0.67266 0.24269 0.66134 0.0
C2520 C 0.66698 0.23587 0.71323 0.0
C2521 C 0.66794 0.22311 0.71487 0.0
C2522 C 0.67499 0.27516 0.7292 0.0
C2523 C 0.67502 0.28215 0.66923 0.0
C2524 C 0.67399 0.26242 0.72654 0.0
C2525 C 0.67283 0.25633 0.66387 0.0
C2526 C 0.67246 0.26338 0.60394 0.0
C2527 C 0.67361 0.27614 0.60657 0.0
H2528 H 0.32343 0.27936 0.76685 0.0
H2529 H 0.32658 0.28111 0.54822 0.0
H2530 H 0.32509 0.25723 0.76238 0.0
H2531 H 0.32877 0.25892 0.54376 0.0
H2532 H 0.31508 0.21898 0.5585 0.0
H2533 H 0.31663 0.24121 0.55664 0.0
H2534 H 0.33765 0.2402 0.74288 0.0
H2535 H 0.33556 0.21801 0.74628 0.0
C2536 C 0.32471 0.27504 0.71781 0.0
C2537 C 0.32476 0.28202 0.65781 0.0
C2538 C 0.32575 0.2623 0.71524 0.0
C2539 C 0.32704 0.25621 0.65264 0.0
C2540 C 0.32755 0.26325 0.59278 0.0
C2541 C 0.32635 0.27601 0.59531 0.0
C2542 C 0.32014 0.2235 0.59867 0.0
C2543 C 0.32505 0.21675 0.65302 0.0
C2544 C 0.3211 0.23627 0.59743 0.0
C2545 C 0.32716 0.24257 0.65004 0.0
C2546 C 0.33264 0.23571 0.70243 0.0
C2547 C 0.33152 0.22297 0.70418 0.0
H2548 H 0.18481 0.71886 0.06262 0.0
H2549 H 0.16411 0.71848 0.24969 0.0
H2550 H 0.18341 0.74109 0.05905 0.0
H2551 H 0.16215 0.74066 0.24453 0.0
H2552 H 0.17601 0.77997 0.26516 0.0
H2553 H 0.17456 0.75781 0.26284 0.0
H2554 H 0.17138 0.75875 0.04383 0.0
H2555 H 0.17342 0.78098 0.04611 0.0
C2556 C 0.17975 0.72352 0.10229 0.0
C2557 C 0.1747 0.71692 0.15688 0.0
C2558 C 0.17887 0.73629 0.10007 0.0
C2559 C 0.17277 0.74275 0.15188 0.0
C2560 C 0.1672 0.73606 0.20464 0.0
C2561 C 0.16824 0.72331 0.2074 0.0
C2562 C 0.1749 0.77547 0.21649 0.0
C2563 C 0.1749 0.78225 0.15579 0.0
C2564 C 0.17398 0.76272 0.21514 0.0
C2565 C 0.17286 0.75641 0.1531 0.0
C2566 C 0.17246 0.76325 0.09247 0.0
C2567 C 0.17354 0.77602 0.09378 0.0
H2568 H 0.184 0.27987 0.93511 0.0
H2569 H 0.16366 0.28094 0.74684 0.0
H2570 H 0.18238 0.25764 0.93678 0.0
H2571 H 0.16154 0.25875 0.74998 0.0
H2572 H 0.17585 0.21962 0.72609 0.0
H2573 H 0.17422 0.24174 0.73081 0.0
H2574 H 0.17006 0.23995 0.94913 0.0
H2575 H 0.17216 0.21772 0.94444 0.0
C2576 C 0.17897 0.27537 0.89475 0.0
C2577 C 0.1741 0.28215 0.84037 0.0
C2578 C 0.17797 0.2626 0.8959 0.0
C2579 C 0.17193 0.25634 0.84312 0.0
C2580 C 0.16652 0.26322 0.79061 0.0
C2581 C 0.16767 0.27596 0.78899 0.0
C2582 C 0.17446 0.22391 0.77512 0.0
C2583 C 0.17425 0.21689 0.83498 0.0
C2584 C 0.17345 0.23664 0.77782 0.0
C2585 C 0.17203 0.2427 0.84041 0.0
C2586 C 0.17137 0.23563 0.90014 0.0
C2587 C 0.17253 0.22287 0.89748 0.0
H2588 H 0.32288 0.71939 0.23298 0.0
H2589 H 0.32508 0.71782 0.45204 0.0
H2590 H 0.32413 0.74154 0.23714 0.0
H2591 H 0.32696 0.74005 0.45624 0.0
H2592 H 0.3134 0.77988 0.44061 0.0
H2593 H 0.31493 0.75766 0.44222 0.0
H2594 H 0.33624 0.75876 0.25698 0.0
H2595 H 0.33412 0.78094 0.2537 0.0
C2596 C 0.32387 0.72377 0.28207 0.0
C2597 C 0.32381 0.71682 0.34221 0.0
C2598 C 0.32468 0.73652 0.28448 0.0
C2599 C 0.32564 0.74267 0.34707 0.0
C2600 C 0.326 0.73568 0.40717 0.0
C2601 C 0.32501 0.72291 0.40479 0.0
C2602 C 0.31849 0.77537 0.40055 0.0
C2603 C 0.32351 0.78215 0.34659 0.0
C2604 C 0.31945 0.76261 0.40166 0.0
C2605 C 0.32562 0.75633 0.34937 0.0
C2606 C 0.33115 0.76321 0.2972 0.0
C2607 C 0.33001 0.77596 0.29551 0.0
H2608 H 0.52988 0.06381 0.6895 0.0
H2609 H 0.53086 0.08542 0.50564 0.0
H2610 H 0.50762 0.06526 0.6912 0.0
H2611 H 0.50868 0.08742 0.50902 0.0
H2612 H 0.46978 0.07322 0.47981 0.0
H2613 H 0.49187 0.07482 0.48626 0.0
H2614 H 0.48969 0.0771 0.70533 0.0
H2615 H 0.46747 0.07494 0.69883 0.0
C2616 C 0.52535 0.06909 0.65024 0.0
C2617 C 0.53211 0.07435 0.59688 0.0
C2618 C 0.51257 0.07 0.65139 0.0
C2619 C 0.50628 0.07633 0.59972 0.0
C2620 C 0.51315 0.08218 0.54862 0.0
C2621 C 0.52589 0.08111 0.54688 0.0
C2622 C 0.47397 0.07417 0.52942 0.0
C2623 C 0.46684 0.07389 0.58883 0.0
C2624 C 0.48669 0.07518 0.53314 0.0
C2625 C 0.49264 0.07611 0.59636 0.0
C2626 C 0.48547 0.0762 0.65581 0.0
C2627 C 0.47271 0.07504 0.6521 0.0
H2628 H 0.02844 0.92627 0.98155 0.0
H2629 H 0.03143 0.92273 0.19964 0.0
H2630 H 0.00636 0.92477 0.98979 0.0
H2631 H 0.00922 0.92068 0.20783 0.0
H2632 H 0.96909 0.93442 0.19917 0.0
H2633 H 0.99133 0.93276 0.19839 0.0
H2634 H 0.98952 0.91214 0.01106 0.0
H2635 H 0.96735 0.91436 0.01029 0.0
C2636 C 0.0244 0.92494 0.03129 0.0
C2637 C 0.03172 0.9247 0.08999 0.0
C2638 C 0.01169 0.92399 0.03602 0.0
C2639 C 0.00593 0.92259 0.09952 0.0
C2640 C 0.01329 0.92195 0.15817 0.0
C2641 C 0.02604 0.92306 0.15348 0.0
C2642 C 0.97345 0.92943 0.15822 0.0
C2643 C 0.96649 0.92468 0.10428 0.0
C2644 C 0.98622 0.92841 0.15792 0.0
C2645 C 0.9923 0.92245 0.10416 0.0
C2646 C 0.98522 0.91709 0.05232 0.0
C2647 C 0.97249 0.91828 0.05206 0.0
H2648 H 0.53076 0.91335 0.49767 0.0
H2649 H 0.52956 0.93475 0.31305 0.0
H2650 H 0.50856 0.91138 0.49525 0.0
H2651 H 0.50732 0.93332 0.31227 0.0
H2652 H 0.46729 0.92335 0.30465 0.0
H2653 H 0.48952 0.92131 0.29846 0.0
H2654 H 0.49162 0.92388 0.51746 0.0
H2655 H 0.46951 0.92536 0.52361 0.0
C2656 C 0.52575 0.91763 0.45651 0.0
C2657 C 0.53191 0.9243 0.40591 0.0
C2658 C 0.513 0.91657 0.45531 0.0
C2659 C 0.50607 0.92233 0.40411 0.0
C2660 C 0.51231 0.92863 0.35211 0.0
C2661 C 0.52508 0.92953 0.35275 0.0
C2662 C 0.47251 0.92335 0.35143 0.0
C2663 C 0.46662 0.92455 0.41458 0.0
C2664 C 0.48527 0.92225 0.34791 0.0
C2665 C 0.49243 0.92246 0.40742 0.0
C2666 C 0.48646 0.92343 0.47055 0.0
C2667 C 0.47373 0.92437 0.47409 0.0
H2668 H 0.03119 0.0757 0.81489 0.0
H2669 H 0.02899 0.07351 0.03379 0.0
H2670 H 0.00899 0.07765 0.80863 0.0
H2671 H 0.00684 0.07484 0.02755 0.0
H2672 H 0.96747 0.08505 0.00625 0.0
H2673 H 0.98968 0.08703 0.00568 0.0
H2674 H 0.99137 0.06558 0.82117 0.0
H2675 H 0.96915 0.06415 0.82014 0.0
C2676 C 0.02597 0.07564 0.86168 0.0
C2677 C 0.03187 0.07441 0.92481 0.0
C2678 C 0.01322 0.07668 0.8581 0.0
C2679 C 0.00604 0.07634 0.91753 0.0
C2680 C 0.01201 0.07537 0.9807 0.0
C2681 C 0.02475 0.07451 0.98431 0.0
C2682 C 0.97259 0.08088 0.96518 0.0
C2683 C 0.96655 0.07438 0.9135 0.0
C2684 C 0.98535 0.08194 0.96505 0.0
C2685 C 0.9924 0.07635 0.91383 0.0
C2686 C 0.98629 0.07016 0.861 0.0
C2687 C 0.97352 0.06927 0.86058 0.0
loop_
_geom_bond_atom_site_label_1
_geom_bond_atom_site_label_2
_geom_bond_distance
_geom_bond_site_symmetry_2
_ccdc_geom_bond_type
Co0 O3 1.970 . S
Co0 N17 1.989 . S
Co0 O25 1.967 . S
Co0 O32 1.920 1_554 S
Co1 O4 1.966 . S
Co1 N10 2.022 . S
Co1 N18 1.993 . S
Co1 O26 1.941 . S
C2 O3 1.258 . S
C2 O4 1.263 . S
O3 Co0 1.970 . S
O3 C2 1.258 . S
O4 Co1 1.966 . S
O4 C2 1.263 . S
C5 O6 1.235 . S
C5 O32 1.289 . S
O6 C5 1.235 . S
C7 C9 1.400 . S
C7 N10 1.351 . S
C7 C12 1.501 . S
C8 C9 1.387 . S
C8 N11 1.341 . S
C9 C7 1.400 . S
C9 C8 1.387 . S
N10 Co1 2.022 . S
N10 C7 1.351 . S
N10 N11 1.365 . S
N11 C8 1.341 . S
N11 N10 1.365 . S
N11 H31 0.862 . S
C12 C7 1.501 . S
C12 H13 0.961 . S
C12 H14 0.961 . S
C12 H15 0.960 . S
H13 C12 0.961 . S
H14 C12 0.961 . S
H15 C12 0.960 . S
C16 N17 1.342 . S
C16 C20 1.401 . S
C16 C21 1.499 1_554 S
N17 Co0 1.989 . S
N17 C16 1.342 . S
N17 N18 1.388 . S
N18 Co1 1.993 . S
N18 N17 1.388 . S
N18 C19 1.346 . S
C19 N18 1.346 . S
C19 C20 1.396 . S
C19 C29 1.510 . S
C20 C16 1.401 . S
C20 C19 1.396 . S
C21 C16 1.499 1_556 S
C21 H22 0.959 . S
C21 H23 0.960 . S
C21 H24 0.961 . S
H22 C21 0.959 . S
H23 C21 0.960 . S
H24 C21 0.961 . S
O25 Co0 1.967 . S
O25 C33 1.258 . S
O26 Co1 1.941 . S
O26 C33 1.266 . S
H27 C29 0.959 . S
H28 C29 0.961 . S
C29 C19 1.510 . S
C29 H27 0.959 . S
C29 H28 0.961 . S
C29 H30 0.960 . S
H30 C29 0.960 . S
H31 N11 0.862 . S
O32 Co0 1.920 1_556 S
O32 C5 1.289 . S
C33 O25 1.258 . S
C33 O26 1.266 . S
Co34 O37 1.970 . S
Co34 N51 1.989 . S
Co34 O59 1.967 . S
Co34 O66 1.920 . S
Co35 O38 1.966 . S
Co35 N44 2.022 . S
Co35 N52 1.993 . S
Co35 O60 1.941 . S
C36 O37 1.258 . S
C36 O38 1.263 . S
O37 Co34 1.970 . S
O37 C36 1.258 . S
O38 Co35 1.966 . S
O38 C36 1.263 . S
C39 O40 1.235 . S
C39 O66 1.289 . S
O40 C39 1.235 . S
C41 C43 1.400 . S
C41 N44 1.351 . S
C41 C46 1.501 . S
C42 C43 1.387 . S
C42 N45 1.341 . S
C43 C41 1.400 . S
C43 C42 1.387 . S
N44 Co35 2.022 . S
N44 C41 1.351 . S
N44 N45 1.365 . S
N45 C42 1.341 . S
N45 N44 1.365 . S
N45 H65 0.862 . S
C46 C41 1.501 . S
C46 H47 0.961 . S
C46 H48 0.961 . S
C46 H49 0.960 . S
H47 C46 0.961 . S
H48 C46 0.961 . S
H49 C46 0.960 . S
C50 N51 1.342 . S
C50 C54 1.401 . S
C50 C55 1.499 . S
N51 Co34 1.989 . S
N51 C50 1.342 . S
N51 N52 1.388 . S
N52 Co35 1.993 . S
N52 N51 1.388 . S
N52 C53 1.346 . S
C53 N52 1.346 . S
C53 C54 1.396 . S
C53 C63 1.510 . S
C54 C50 1.401 . S
C54 C53 1.396 . S
C55 C50 1.499 . S
C55 H56 0.959 . S
C55 H57 0.960 . S
C55 H58 0.961 . S
H56 C55 0.959 . S
H57 C55 0.960 . S
H58 C55 0.961 . S
O59 Co34 1.967 . S
O59 C67 1.258 . S
O60 Co35 1.941 . S
O60 C67 1.266 . S
H61 C63 0.959 . S
H62 C63 0.961 . S
C63 C53 1.510 . S
C63 H61 0.959 . S
C63 H62 0.961 . S
C63 H64 0.960 . S
H64 C63 0.960 . S
H65 N45 0.862 . S
O66 Co34 1.920 . S
O66 C39 1.289 . S
C67 O59 1.258 . S
C67 O60 1.266 . S
Co68 O71 1.970 . S
Co68 N85 1.989 . S
Co68 O93 1.967 . S
Co68 O100 1.920 . S
Co69 O72 1.966 . S
Co69 N78 2.022 . S
Co69 N86 1.993 . S
Co69 O94 1.941 . S
C70 O71 1.258 . S
C70 O72 1.263 . S
O71 Co68 1.970 . S
O71 C70 1.258 . S
O72 Co69 1.966 . S
O72 C70 1.263 . S
C73 O74 1.235 . S
C73 O100 1.289 . S
O74 C73 1.235 . S
C75 C77 1.400 . S
C75 N78 1.351 . S
C75 C80 1.501 . S
C76 C77 1.387 . S
C76 N79 1.341 . S
C77 C75 1.400 . S
C77 C76 1.387 . S
N78 Co69 2.022 . S
N78 C75 1.351 . S
N78 N79 1.365 . S
N79 C76 1.341 . S
N79 N78 1.365 . S
N79 H99 0.862 . S
C80 C75 1.501 . S
C80 H81 0.961 . S
C80 H82 0.961 . S
C80 H83 0.960 . S
H81 C80 0.961 . S
H82 C80 0.961 . S
H83 C80 0.960 . S
C84 N85 1.342 . S
C84 C88 1.401 . S
C84 C89 1.499 . S
N85 Co68 1.989 . S
N85 C84 1.342 . S
N85 N86 1.388 . S
N86 Co69 1.993 . S
N86 N85 1.388 . S
N86 C87 1.346 . S
C87 N86 1.346 . S
C87 C88 1.396 . S
C87 C97 1.510 . S
C88 C84 1.401 . S
C88 C87 1.396 . S
C89 C84 1.499 . S
C89 H90 0.959 . S
C89 H91 0.960 . S
C89 H92 0.961 . S
H90 C89 0.959 . S
H91 C89 0.960 . S
H92 C89 0.961 . S
O93 Co68 1.967 . S
O93 C101 1.258 . S
O94 Co69 1.941 . S
O94 C101 1.266 . S
H95 C97 0.959 . S
H96 C97 0.961 . S
C97 C87 1.510 . S
C97 H95 0.959 . S
C97 H96 0.961 . S
C97 H98 0.960 . S
H98 C97 0.960 . S
H99 N79 0.862 . S
O100 Co68 1.920 . S
O100 C73 1.289 . S
C101 O93 1.258 . S
C101 O94 1.266 . S
Co102 O105 1.970 . S
Co102 N119 1.989 . S
Co102 O127 1.967 . S
Co102 O134 1.920 . S
Co103 O106 1.966 . S
Co103 N112 2.022 1_556 S
Co103 N120 1.993 . S
Co103 O128 1.941 . S
C104 O105 1.258 . S
C104 O106 1.263 . S
O105 Co102 1.970 . S
O105 C104 1.258 . S
O106 Co103 1.966 . S
O106 C104 1.263 . S
C107 O108 1.235 . S
C107 O134 1.289 . S
O108 C107 1.235 . S
C109 C111 1.400 . S
C109 N112 1.351 . S
C109 C114 1.501 . S
C110 C111 1.387 . S
C110 N113 1.341 . S
C111 C109 1.400 . S
C111 C110 1.387 . S
N112 Co103 2.022 1_554 S
N112 C109 1.351 . S
N112 N113 1.365 . S
N113 C110 1.341 . S
N113 N112 1.365 . S
N113 H133 0.862 . S
C114 C109 1.501 . S
C114 H115 0.961 1_554 S
C114 H116 0.961 . S
C114 H117 0.960 . S
H115 C114 0.961 1_556 S
H116 C114 0.961 . S
H117 C114 0.960 . S
C118 N119 1.342 . S
C118 C122 1.401 . S
C118 C123 1.499 . S
N119 Co102 1.989 . S
N119 C118 1.342 . S
N119 N120 1.388 . S
N120 Co103 1.993 . S
N120 N119 1.388 . S
N120 C121 1.346 . S
C121 N120 1.346 . S
C121 C122 1.396 . S
C121 C131 1.510 . S
C122 C118 1.401 . S
C122 C121 1.396 . S
C123 C118 1.499 . S
C123 H124 0.959 . S
C123 H125 0.960 . S
C123 H126 0.961 . S
H124 C123 0.959 . S
H125 C123 0.960 . S
H126 C123 0.961 . S
O127 Co102 1.967 . S
O127 C135 1.258 . S
O128 Co103 1.941 . S
O128 C135 1.266 . S
H129 C131 0.959 . S
H130 C131 0.961 . S
C131 C121 1.510 . S
C131 H129 0.959 . S
C131 H130 0.961 . S
C131 H132 0.959 1_556 S
H132 C131 0.959 1_554 S
H133 N113 0.862 . S
O134 Co102 1.920 . S
O134 C107 1.289 . S
C135 O127 1.258 . S
C135 O128 1.266 . S
Co136 O139 1.970 . S
Co136 N153 1.989 . S
Co136 O161 1.967 . S
Co136 O168 1.920 1_556 S
Co137 O140 1.966 . S
Co137 N146 2.022 . S
Co137 N154 1.993 . S
Co137 O162 1.941 . S
C138 O139 1.258 . S
C138 O140 1.263 . S
O139 Co136 1.970 . S
O139 C138 1.258 . S
O140 Co137 1.966 . S
O140 C138 1.263 . S
C141 O142 1.235 . S
C141 O168 1.289 . S
O142 C141 1.235 . S
C143 C145 1.400 . S
C143 N146 1.351 . S
C143 C148 1.501 . S
C144 C145 1.387 . S
C144 N147 1.341 . S
C145 C143 1.400 . S
C145 C144 1.387 . S
N146 Co137 2.022 . S
N146 C143 1.351 . S
N146 N147 1.365 . S
N147 C144 1.341 . S
N147 N146 1.365 . S
N147 H167 0.862 . S
C148 C143 1.501 . S
C148 H149 0.961 . S
C148 H150 0.961 . S
C148 H151 0.960 . S
H149 C148 0.961 . S
H150 C148 0.961 . S
H151 C148 0.960 . S
C152 N153 1.342 . S
C152 C156 1.401 . S
C152 C157 1.499 1_556 S
N153 Co136 1.989 . S
N153 C152 1.342 . S
N153 N154 1.388 . S
N154 Co137 1.993 . S
N154 N153 1.388 . S
N154 C155 1.346 . S
C155 N154 1.346 . S
C155 C156 1.396 . S
C155 C165 1.510 . S
C156 C152 1.401 . S
C156 C155 1.396 . S
C157 C152 1.499 1_554 S
C157 H158 0.959 . S
C157 H159 0.960 . S
C157 H160 0.961 . S
H158 C157 0.959 . S
H159 C157 0.960 . S
H160 C157 0.961 . S
O161 Co136 1.967 . S
O161 C169 1.258 . S
O162 Co137 1.941 . S
O162 C169 1.266 . S
H163 C165 0.959 . S
H164 C165 0.961 . S
C165 C155 1.510 . S
C165 H163 0.959 . S
C165 H164 0.961 . S
C165 H166 0.960 . S
H166 C165 0.960 . S
H167 N147 0.862 . S
O168 Co136 1.920 1_554 S
O168 C141 1.289 . S
C169 O161 1.258 . S
C169 O162 1.266 . S
Co170 O173 1.970 . S
Co170 N187 1.989 . S
Co170 O195 1.967 . S
Co170 O202 1.920 . S
Co171 O174 1.966 . S
Co171 N180 2.022 1_554 S
Co171 N188 1.993 . S
Co171 O196 1.941 . S
C172 O173 1.258 . S
C172 O174 1.263 . S
O173 Co170 1.970 . S
O173 C172 1.258 . S
O174 Co171 1.966 . S
O174 C172 1.263 . S
C175 O176 1.235 . S
C175 O202 1.289 . S
O176 C175 1.235 . S
C177 C179 1.400 . S
C177 N180 1.351 . S
C177 C182 1.501 . S
C178 C179 1.387 . S
C178 N181 1.341 . S
C179 C177 1.400 . S
C179 C178 1.387 . S
N180 Co171 2.022 1_556 S
N180 C177 1.351 . S
N180 N181 1.365 . S
N181 C178 1.341 . S
N181 N180 1.365 . S
N181 H201 0.862 . S
C182 C177 1.501 . S
C182 H183 0.961 1_556 S
C182 H184 0.961 . S
C182 H185 0.960 . S
H183 C182 0.961 1_554 S
H184 C182 0.961 . S
H185 C182 0.960 . S
C186 N187 1.342 . S
C186 C190 1.401 . S
C186 C191 1.499 . S
N187 Co170 1.989 . S
N187 C186 1.342 . S
N187 N188 1.388 . S
N188 Co171 1.993 . S
N188 N187 1.388 . S
N188 C189 1.346 . S
C189 N188 1.346 . S
C189 C190 1.396 . S
C189 C199 1.510 . S
C190 C186 1.401 . S
C190 C189 1.396 . S
C191 C186 1.499 . S
C191 H192 0.959 . S
C191 H193 0.960 . S
C191 H194 0.961 . S
H192 C191 0.959 . S
H193 C191 0.960 . S
H194 C191 0.961 . S
O195 Co170 1.967 . S
O195 C203 1.258 . S
O196 Co171 1.941 . S
O196 C203 1.266 . S
H197 C199 0.959 . S
H198 C199 0.961 . S
C199 C189 1.510 . S
C199 H197 0.959 . S
C199 H198 0.961 . S
C199 H200 0.959 1_554 S
H200 C199 0.959 1_556 S
H201 N181 0.862 . S
O202 Co170 1.920 . S
O202 C175 1.289 . S
C203 O195 1.258 . S
C203 O196 1.266 . S
Co204 O207 1.970 . S
Co204 N221 1.989 . S
Co204 O229 1.967 . S
Co204 O236 1.920 . S
Co205 O208 1.966 . S
Co205 N214 2.022 . S
Co205 N222 1.993 . S
Co205 O230 1.941 . S
C206 O207 1.258 . S
C206 O208 1.263 . S
O207 Co204 1.970 . S
O207 C206 1.258 . S
O208 Co205 1.966 . S
O208 C206 1.263 . S
C209 O210 1.235 . S
C209 O236 1.289 . S
O210 C209 1.235 . S
C211 C213 1.400 . S
C211 N214 1.351 . S
C211 C216 1.501 . S
C212 C213 1.387 . S
C212 N215 1.341 . S
C213 C211 1.400 . S
C213 C212 1.387 . S
N214 Co205 2.022 . S
N214 C211 1.351 . S
N214 N215 1.365 . S
N215 C212 1.341 . S
N215 N214 1.365 . S
N215 H235 0.862 . S
C216 C211 1.501 . S
C216 H217 0.961 . S
C216 H218 0.961 . S
C216 H219 0.960 . S
H217 C216 0.961 . S
H218 C216 0.961 . S
H219 C216 0.960 . S
C220 N221 1.342 . S
C220 C224 1.401 . S
C220 C225 1.499 . S
N221 Co204 1.989 . S
N221 C220 1.342 . S
N221 N222 1.388 . S
N222 Co205 1.993 . S
N222 N221 1.388 . S
N222 C223 1.346 . S
C223 N222 1.346 . S
C223 C224 1.396 . S
C223 C233 1.510 . S
C224 C220 1.401 . S
C224 C223 1.396 . S
C225 C220 1.499 . S
C225 H226 0.959 . S
C225 H227 0.960 . S
C225 H228 0.961 . S
H226 C225 0.959 . S
H227 C225 0.960 . S
H228 C225 0.961 . S
O229 Co204 1.967 . S
O229 C237 1.258 . S
O230 Co205 1.941 . S
O230 C237 1.266 . S
H231 C233 0.959 . S
H232 C233 0.961 . S
C233 C223 1.510 . S
C233 H231 0.959 . S
C233 H232 0.961 . S
C233 H234 0.960 . S
H234 C233 0.960 . S
H235 N215 0.862 . S
O236 Co204 1.920 . S
O236 C209 1.289 . S
C237 O229 1.258 . S
C237 O230 1.266 . S
Co238 O241 1.970 . S
Co238 N255 1.989 . S
Co238 O263 1.967 . S
Co238 O270 1.920 . S
Co239 O242 1.966 . S
Co239 N248 2.022 . S
Co239 N256 1.993 . S
Co239 O264 1.941 . S
C240 O241 1.258 . S
C240 O242 1.263 . S
O241 Co238 1.970 . S
O241 C240 1.258 . S
O242 Co239 1.966 . S
O242 C240 1.263 . S
C243 O244 1.235 . S
C243 O270 1.289 . S
O244 C243 1.235 . S
C245 C247 1.400 . S
C245 N248 1.351 . S
C245 C250 1.501 . S
C246 C247 1.387 . S
C246 N249 1.341 . S
C247 C245 1.400 . S
C247 C246 1.387 . S
N248 Co239 2.022 . S
N248 C245 1.351 . S
N248 N249 1.365 . S
N249 C246 1.341 . S
N249 N248 1.365 . S
N249 H269 0.862 . S
C250 C245 1.501 . S
C250 H251 0.961 . S
C250 H252 0.961 . S
C250 H253 0.960 . S
H251 C250 0.961 . S
H252 C250 0.961 . S
H253 C250 0.960 . S
C254 N255 1.342 . S
C254 C258 1.401 . S
C254 C259 1.499 . S
N255 Co238 1.989 . S
N255 C254 1.342 . S
N255 N256 1.388 . S
N256 Co239 1.993 . S
N256 N255 1.388 . S
N256 C257 1.346 . S
C257 N256 1.346 . S
C257 C258 1.396 . S
C257 C267 1.510 . S
C258 C254 1.401 . S
C258 C257 1.396 . S
C259 C254 1.499 . S
C259 H260 0.959 . S
C259 H261 0.960 . S
C259 H262 0.961 . S
H260 C259 0.959 . S
H261 C259 0.960 . S
H262 C259 0.961 . S
O263 Co238 1.967 . S
O263 C271 1.258 . S
O264 Co239 1.941 . S
O264 C271 1.266 . S
H265 C267 0.959 . S
H266 C267 0.961 . S
C267 C257 1.510 . S
C267 H265 0.959 . S
C267 H266 0.961 . S
C267 H268 0.960 . S
H268 C267 0.960 . S
H269 N249 0.862 . S
O270 Co238 1.920 . S
O270 C243 1.289 . S
C271 O263 1.258 . S
C271 O264 1.266 . S
Co272 O275 1.970 . S
Co272 N289 1.989 . S
Co272 O297 1.967 . S
Co272 O304 1.920 1_556 S
Co273 O276 1.966 . S
Co273 N282 2.022 . S
Co273 N290 1.993 . S
Co273 O298 1.941 . S
C274 O275 1.258 . S
C274 O276 1.263 . S
O275 Co272 1.970 . S
O275 C274 1.258 . S
O276 Co273 1.966 . S
O276 C274 1.263 . S
C277 O278 1.235 . S
C277 O304 1.289 . S
O278 C277 1.235 . S
C279 C281 1.400 . S
C279 N282 1.351 . S
C279 C284 1.501 . S
C280 C281 1.387 . S
C280 N283 1.341 . S
C281 C279 1.400 . S
C281 C280 1.387 . S
N282 Co273 2.022 . S
N282 C279 1.351 . S
N282 N283 1.365 . S
N283 C280 1.341 . S
N283 N282 1.365 . S
N283 H303 0.862 . S
C284 C279 1.501 . S
C284 H285 0.961 . S
C284 H286 0.961 . S
C284 H287 0.960 . S
H285 C284 0.961 . S
H286 C284 0.961 . S
H287 C284 0.960 . S
C288 N289 1.342 . S
C288 C292 1.401 . S
C288 C293 1.499 1_556 S
N289 Co272 1.989 . S
N289 C288 1.342 . S
N289 N290 1.388 . S
N290 Co273 1.993 . S
N290 N289 1.388 . S
N290 C291 1.346 . S
C291 N290 1.346 . S
C291 C292 1.396 . S
C291 C301 1.510 . S
C292 C288 1.401 . S
C292 C291 1.396 . S
C293 C288 1.499 1_554 S
C293 H294 0.959 . S
C293 H295 0.960 . S
C293 H296 0.961 . S
H294 C293 0.959 . S
H295 C293 0.960 . S
H296 C293 0.961 . S
O297 Co272 1.967 . S
O297 C305 1.258 . S
O298 Co273 1.941 . S
O298 C305 1.266 . S
H299 C301 0.959 . S
H300 C301 0.961 . S
C301 C291 1.510 . S
C301 H299 0.959 . S
C301 H300 0.961 . S
C301 H302 0.960 . S
H302 C301 0.960 . S
H303 N283 0.862 . S
O304 Co272 1.920 1_554 S
O304 C277 1.289 . S
C305 O297 1.258 . S
C305 O298 1.266 . S
Co306 O309 1.970 . S
Co306 N323 1.989 . S
Co306 O331 1.967 . S
Co306 O338 1.920 . S
Co307 O310 1.966 . S
Co307 N316 2.022 . S
Co307 N324 1.993 . S
Co307 O332 1.941 . S
C308 O309 1.258 . S
C308 O310 1.263 . S
O309 Co306 1.970 . S
O309 C308 1.258 . S
O310 Co307 1.966 . S
O310 C308 1.263 . S
C311 O312 1.235 . S
C311 O338 1.289 . S
O312 C311 1.235 . S
C313 C315 1.400 . S
C313 N316 1.351 . S
C313 C318 1.501 . S
C314 C315 1.387 . S
C314 N317 1.341 . S
C315 C313 1.400 . S
C315 C314 1.387 . S
N316 Co307 2.022 . S
N316 C313 1.351 . S
N316 N317 1.365 . S
N317 C314 1.341 . S
N317 N316 1.365 . S
N317 H337 0.862 . S
C318 C313 1.501 . S
C318 H319 0.961 . S
C318 H320 0.961 . S
C318 H321 0.960 . S
H319 C318 0.961 . S
H320 C318 0.961 . S
H321 C318 0.960 . S
C322 N323 1.342 . S
C322 C326 1.401 . S
C322 C327 1.499 . S
N323 Co306 1.989 . S
N323 C322 1.342 . S
N323 N324 1.388 . S
N324 Co307 1.993 . S
N324 N323 1.388 . S
N324 C325 1.346 . S
C325 N324 1.346 . S
C325 C326 1.396 . S
C325 C335 1.510 . S
C326 C322 1.401 . S
C326 C325 1.396 . S
C327 C322 1.499 . S
C327 H328 0.959 . S
C327 H329 0.960 . S
C327 H330 0.961 . S
H328 C327 0.959 . S
H329 C327 0.960 . S
H330 C327 0.961 . S
O331 Co306 1.967 . S
O331 C339 1.258 . S
O332 Co307 1.941 . S
O332 C339 1.266 . S
H333 C335 0.959 . S
H334 C335 0.961 . S
C335 C325 1.510 . S
C335 H333 0.959 . S
C335 H334 0.961 . S
C335 H336 0.960 . S
H336 C335 0.960 . S
H337 N317 0.862 . S
O338 Co306 1.920 . S
O338 C311 1.289 . S
C339 O331 1.258 . S
C339 O332 1.266 . S
Co340 O343 1.970 . S
Co340 N357 1.989 . S
Co340 O365 1.967 . S
Co340 O372 1.920 . S
Co341 O344 1.966 . S
Co341 N350 2.022 . S
Co341 N358 1.993 . S
Co341 O366 1.941 . S
C342 O343 1.258 . S
C342 O344 1.263 . S
O343 Co340 1.970 . S
O343 C342 1.258 . S
O344 Co341 1.966 . S
O344 C342 1.263 . S
C345 O346 1.235 . S
C345 O372 1.289 . S
O346 C345 1.235 . S
C347 C349 1.400 . S
C347 N350 1.351 . S
C347 C352 1.501 . S
C348 C349 1.387 . S
C348 N351 1.341 . S
C349 C347 1.400 . S
C349 C348 1.387 . S
N350 Co341 2.022 . S
N350 C347 1.351 . S
N350 N351 1.365 . S
N351 C348 1.341 . S
N351 N350 1.365 . S
N351 H371 0.862 . S
C352 C347 1.501 . S
C352 H353 0.961 . S
C352 H354 0.961 . S
C352 H355 0.960 . S
H353 C352 0.961 . S
H354 C352 0.961 . S
H355 C352 0.960 . S
C356 N357 1.342 . S
C356 C360 1.401 . S
C356 C361 1.499 . S
N357 Co340 1.989 . S
N357 C356 1.342 . S
N357 N358 1.388 . S
N358 Co341 1.993 . S
N358 N357 1.388 . S
N358 C359 1.346 . S
C359 N358 1.346 . S
C359 C360 1.396 . S
C359 C369 1.510 . S
C360 C356 1.401 . S
C360 C359 1.396 . S
C361 C356 1.499 . S
C361 H362 0.959 . S
C361 H363 0.960 . S
C361 H364 0.961 . S
H362 C361 0.959 . S
H363 C361 0.960 . S
H364 C361 0.961 . S
O365 Co340 1.967 . S
O365 C373 1.258 . S
O366 Co341 1.941 . S
O366 C373 1.266 . S
H367 C369 0.959 . S
H368 C369 0.961 . S
C369 C359 1.510 . S
C369 H367 0.959 . S
C369 H368 0.961 . S
C369 H370 0.960 . S
H370 C369 0.960 . S
H371 N351 0.862 . S
O372 Co340 1.920 . S
O372 C345 1.289 . S
C373 O365 1.258 . S
C373 O366 1.266 . S
Co374 O377 1.970 . S
Co374 N391 1.989 . S
Co374 O399 1.967 . S
Co374 O406 1.920 . S
Co375 O378 1.966 . S
Co375 N384 2.022 1_554 S
Co375 N392 1.993 . S
Co375 O400 1.941 . S
C376 O377 1.258 . S
C376 O378 1.263 . S
O377 Co374 1.970 . S
O377 C376 1.258 . S
O378 Co375 1.966 . S
O378 C376 1.263 . S
C379 O380 1.235 . S
C379 O406 1.289 . S
O380 C379 1.235 . S
C381 C383 1.400 . S
C381 N384 1.351 . S
C381 C386 1.501 . S
C382 C383 1.387 . S
C382 N385 1.341 . S
C383 C381 1.400 . S
C383 C382 1.387 . S
N384 Co375 2.022 1_556 S
N384 C381 1.351 . S
N384 N385 1.365 . S
N385 C382 1.341 . S
N385 N384 1.365 . S
N385 H405 0.862 . S
C386 C381 1.501 . S
C386 H387 0.961 1_556 S
C386 H388 0.961 . S
C386 H389 0.960 . S
H387 C386 0.961 1_554 S
H388 C386 0.961 . S
H389 C386 0.960 . S
C390 N391 1.342 . S
C390 C394 1.401 . S
C390 C395 1.499 . S
N391 Co374 1.989 . S
N391 C390 1.342 . S
N391 N392 1.388 . S
N392 Co375 1.993 . S
N392 N391 1.388 . S
N392 C393 1.346 . S
C393 N392 1.346 . S
C393 C394 1.396 . S
C393 C403 1.510 . S
C394 C390 1.401 . S
C394 C393 1.396 . S
C395 C390 1.499 . S
C395 H396 0.959 . S
C395 H397 0.960 . S
C395 H398 0.961 . S
H396 C395 0.959 . S
H397 C395 0.960 . S
H398 C395 0.961 . S
O399 Co374 1.967 . S
O399 C407 1.258 . S
O400 Co375 1.941 . S
O400 C407 1.266 . S
H401 C403 0.959 . S
H402 C403 0.961 . S
C403 C393 1.510 . S
C403 H401 0.959 . S
C403 H402 0.961 . S
C403 H404 0.959 1_554 S
H404 C403 0.959 1_556 S
H405 N385 0.862 . S
O406 Co374 1.920 . S
O406 C379 1.289 . S
C407 O399 1.258 . S
C407 O400 1.266 . S
Co408 O411 1.970 . S
Co408 N425 1.989 . S
Co408 O433 1.967 . S
Co408 O440 1.920 1_554 S
Co409 O412 1.966 . S
Co409 N418 2.022 . S
Co409 N426 1.993 . S
Co409 O434 1.941 . S
C410 O411 1.258 . S
C410 O412 1.263 . S
O411 Co408 1.970 . S
O411 C410 1.258 . S
O412 Co409 1.966 . S
O412 C410 1.263 . S
C413 O414 1.235 . S
C413 O440 1.289 . S
O414 C413 1.235 . S
C415 C417 1.400 . S
C415 N418 1.351 . S
C415 C420 1.501 . S
C416 C417 1.387 . S
C416 N419 1.341 . S
C417 C415 1.400 . S
C417 C416 1.387 . S
N418 Co409 2.022 . S
N418 C415 1.351 . S
N418 N419 1.365 . S
N419 C416 1.341 . S
N419 N418 1.365 . S
N419 H439 0.862 . S
C420 C415 1.501 . S
C420 H421 0.961 . S
C420 H422 0.961 . S
C420 H423 0.960 . S
H421 C420 0.961 . S
H422 C420 0.961 . S
H423 C420 0.960 . S
C424 N425 1.342 . S
C424 C428 1.401 . S
C424 C429 1.499 1_554 S
N425 Co408 1.989 . S
N425 C424 1.342 . S
N425 N426 1.388 . S
N426 Co409 1.993 . S
N426 N425 1.388 . S
N426 C427 1.346 . S
C427 N426 1.346 . S
C427 C428 1.396 . S
C427 C437 1.510 . S
C428 C424 1.401 . S
C428 C427 1.396 . S
C429 C424 1.499 1_556 S
C429 H430 0.959 . S
C429 H431 0.960 . S
C429 H432 0.961 . S
H430 C429 0.959 . S
H431 C429 0.960 . S
H432 C429 0.961 . S
O433 Co408 1.967 . S
O433 C441 1.258 . S
O434 Co409 1.941 . S
O434 C441 1.266 . S
H435 C437 0.959 . S
H436 C437 0.961 . S
C437 C427 1.510 . S
C437 H435 0.959 . S
C437 H436 0.961 . S
C437 H438 0.960 . S
H438 C437 0.960 . S
H439 N419 0.862 . S
O440 Co408 1.920 1_556 S
O440 C413 1.289 . S
C441 O433 1.258 . S
C441 O434 1.266 . S
Co442 O445 1.970 . S
Co442 N459 1.989 . S
Co442 O467 1.967 . S
Co442 O474 1.920 . S
Co443 O446 1.966 . S
Co443 N452 2.022 1_556 S
Co443 N460 1.993 . S
Co443 O468 1.941 . S
C444 O445 1.258 . S
C444 O446 1.263 . S
O445 Co442 1.970 . S
O445 C444 1.258 . S
O446 Co443 1.966 . S
O446 C444 1.263 . S
C447 O448 1.235 . S
C447 O474 1.289 . S
O448 C447 1.235 . S
C449 C451 1.400 . S
C449 N452 1.351 . S
C449 C454 1.501 . S
C450 C451 1.387 . S
C450 N453 1.341 . S
C451 C449 1.400 . S
C451 C450 1.387 . S
N452 Co443 2.022 1_554 S
N452 C449 1.351 . S
N452 N453 1.365 . S
N453 C450 1.341 . S
N453 N452 1.365 . S
N453 H473 0.862 . S
C454 C449 1.501 . S
C454 H455 0.961 1_554 S
C454 H456 0.961 . S
C454 H457 0.960 . S
H455 C454 0.961 1_556 S
H456 C454 0.961 . S
H457 C454 0.960 . S
C458 N459 1.342 . S
C458 C462 1.401 . S
C458 C463 1.499 . S
N459 Co442 1.989 . S
N459 C458 1.342 . S
N459 N460 1.388 . S
N460 Co443 1.993 . S
N460 N459 1.388 . S
N460 C461 1.346 . S
C461 N460 1.346 . S
C461 C462 1.396 . S
C461 C471 1.510 . S
C462 C458 1.401 . S
C462 C461 1.396 . S
C463 C458 1.499 . S
C463 H464 0.959 . S
C463 H465 0.960 . S
C463 H466 0.961 . S
H464 C463 0.959 . S
H465 C463 0.960 . S
H466 C463 0.961 . S
O467 Co442 1.967 . S
O467 C475 1.258 . S
O468 Co443 1.941 . S
O468 C475 1.266 . S
H469 C471 0.959 . S
H470 C471 0.961 . S
C471 C461 1.510 . S
C471 H469 0.959 . S
C471 H470 0.961 . S
C471 H472 0.959 1_556 S
H472 C471 0.959 1_554 S
H473 N453 0.862 . S
O474 Co442 1.920 . S
O474 C447 1.289 . S
C475 O467 1.258 . S
C475 O468 1.266 . S
Co476 O479 1.970 . S
Co476 N493 1.989 . S
Co476 O501 1.967 . S
Co476 O508 1.920 . S
Co477 O480 1.966 . S
Co477 N486 2.022 . S
Co477 N494 1.993 . S
Co477 O502 1.941 . S
C478 O479 1.258 . S
C478 O480 1.263 . S
O479 Co476 1.970 . S
O479 C478 1.258 . S
O480 Co477 1.966 . S
O480 C478 1.263 . S
C481 O482 1.235 . S
C481 O508 1.289 . S
O482 C481 1.235 . S
C483 C485 1.400 . S
C483 N486 1.351 . S
C483 C488 1.501 . S
C484 C485 1.387 . S
C484 N487 1.341 . S
C485 C483 1.400 . S
C485 C484 1.387 . S
N486 Co477 2.022 . S
N486 C483 1.351 . S
N486 N487 1.365 . S
N487 C484 1.341 . S
N487 N486 1.365 . S
N487 H507 0.862 . S
C488 C483 1.501 . S
C488 H489 0.961 . S
C488 H490 0.961 . S
C488 H491 0.960 . S
H489 C488 0.961 . S
H490 C488 0.961 . S
H491 C488 0.960 . S
C492 N493 1.342 . S
C492 C496 1.401 . S
C492 C497 1.499 . S
N493 Co476 1.989 . S
N493 C492 1.342 . S
N493 N494 1.388 . S
N494 Co477 1.993 . S
N494 N493 1.388 . S
N494 C495 1.346 . S
C495 N494 1.346 . S
C495 C496 1.396 . S
C495 C505 1.510 . S
C496 C492 1.401 . S
C496 C495 1.396 . S
C497 C492 1.499 . S
C497 H498 0.959 . S
C497 H499 0.960 . S
C497 H500 0.961 . S
H498 C497 0.959 . S
H499 C497 0.960 . S
H500 C497 0.961 . S
O501 Co476 1.967 . S
O501 C509 1.258 . S
O502 Co477 1.941 . S
O502 C509 1.266 . S
H503 C505 0.959 . S
H504 C505 0.961 . S
C505 C495 1.510 . S
C505 H503 0.959 . S
C505 H504 0.961 . S
C505 H506 0.960 . S
H506 C505 0.960 . S
H507 N487 0.862 . S
O508 Co476 1.920 . S
O508 C481 1.289 . S
C509 O501 1.258 . S
C509 O502 1.266 . S
Co510 O513 1.970 . S
Co510 N527 1.989 . S
Co510 O535 1.967 . S
Co510 O542 1.920 . S
Co511 O514 1.966 . S
Co511 N520 2.022 . S
Co511 N528 1.993 . S
Co511 O536 1.941 . S
C512 O513 1.258 . S
C512 O514 1.263 . S
O513 Co510 1.970 . S
O513 C512 1.258 . S
O514 Co511 1.966 . S
O514 C512 1.263 . S
C515 O516 1.235 . S
C515 O542 1.289 . S
O516 C515 1.235 . S
C517 C519 1.400 . S
C517 N520 1.351 . S
C517 C522 1.501 . S
C518 C519 1.387 . S
C518 N521 1.341 . S
C519 C517 1.400 . S
C519 C518 1.387 . S
N520 Co511 2.022 . S
N520 C517 1.351 . S
N520 N521 1.365 . S
N521 C518 1.341 . S
N521 N520 1.365 . S
N521 H541 0.862 . S
C522 C517 1.501 . S
C522 H523 0.961 . S
C522 H524 0.961 . S
C522 H525 0.960 . S
H523 C522 0.961 . S
H524 C522 0.961 . S
H525 C522 0.960 . S
C526 N527 1.342 . S
C526 C530 1.401 . S
C526 C531 1.499 . S
N527 Co510 1.989 . S
N527 C526 1.342 . S
N527 N528 1.388 . S
N528 Co511 1.993 . S
N528 N527 1.388 . S
N528 C529 1.346 . S
C529 N528 1.346 . S
C529 C530 1.396 . S
C529 C539 1.510 . S
C530 C526 1.401 . S
C530 C529 1.396 . S
C531 C526 1.499 . S
C531 H532 0.959 . S
C531 H533 0.960 . S
C531 H534 0.961 . S
H532 C531 0.959 . S
H533 C531 0.960 . S
H534 C531 0.961 . S
O535 Co510 1.967 . S
O535 C543 1.258 . S
O536 Co511 1.941 . S
O536 C543 1.266 . S
H537 C539 0.959 . S
H538 C539 0.961 . S
C539 C529 1.510 . S
C539 H537 0.959 . S
C539 H538 0.961 . S
C539 H540 0.960 . S
H540 C539 0.960 . S
H541 N521 0.862 . S
O542 Co510 1.920 . S
O542 C515 1.289 . S
C543 O535 1.258 . S
C543 O536 1.266 . S
Co544 O547 1.970 . S
Co544 N561 1.989 . S
Co544 O569 1.967 . S
Co544 O576 1.920 . S
Co545 O548 1.966 . S
Co545 N554 2.022 . S
Co545 N562 1.993 . S
Co545 O570 1.941 . S
C546 O547 1.258 . S
C546 O548 1.263 . S
O547 Co544 1.970 . S
O547 C546 1.258 . S
O548 Co545 1.966 . S
O548 C546 1.263 . S
C549 O550 1.235 . S
C549 O576 1.289 . S
O550 C549 1.235 . S
C551 C553 1.400 . S
C551 N554 1.351 . S
C551 C556 1.501 . S
C552 C553 1.387 . S
C552 N555 1.341 . S
C553 C551 1.400 . S
C553 C552 1.387 . S
N554 Co545 2.022 . S
N554 C551 1.351 . S
N554 N555 1.365 . S
N555 C552 1.341 . S
N555 N554 1.365 . S
N555 H575 0.862 . S
C556 C551 1.501 . S
C556 H557 0.961 . S
C556 H558 0.961 . S
C556 H559 0.960 . S
H557 C556 0.961 . S
H558 C556 0.961 . S
H559 C556 0.960 . S
C560 N561 1.342 . S
C560 C564 1.401 . S
C560 C565 1.499 . S
N561 Co544 1.989 . S
N561 C560 1.342 . S
N561 N562 1.388 . S
N562 Co545 1.993 . S
N562 N561 1.388 . S
N562 C563 1.346 . S
C563 N562 1.346 . S
C563 C564 1.396 . S
C563 C573 1.510 . S
C564 C560 1.401 . S
C564 C563 1.396 . S
C565 C560 1.499 . S
C565 H566 0.959 . S
C565 H567 0.960 . S
C565 H568 0.961 . S
H566 C565 0.959 . S
H567 C565 0.960 . S
H568 C565 0.961 . S
O569 Co544 1.967 . S
O569 C577 1.258 . S
O570 Co545 1.941 . S
O570 C577 1.266 . S
H571 C573 0.959 . S
H572 C573 0.961 . S
C573 C563 1.510 . S
C573 H571 0.959 . S
C573 H572 0.961 . S
C573 H574 0.960 . S
H574 C573 0.960 . S
H575 N555 0.862 . S
O576 Co544 1.920 . S
O576 C549 1.289 . S
C577 O569 1.258 . S
C577 O570 1.266 . S
Co578 O581 1.970 . S
Co578 N595 1.989 . S
Co578 O603 1.967 . S
Co578 O610 1.920 . S
Co579 O582 1.966 . S
Co579 N588 2.022 1_556 S
Co579 N596 1.993 . S
Co579 O604 1.941 . S
C580 O581 1.258 . S
C580 O582 1.263 . S
O581 Co578 1.970 . S
O581 C580 1.258 . S
O582 Co579 1.966 . S
O582 C580 1.263 . S
C583 O584 1.235 . S
C583 O610 1.289 . S
O584 C583 1.235 . S
C585 C587 1.400 . S
C585 N588 1.351 . S
C585 C590 1.501 . S
C586 C587 1.387 . S
C586 N589 1.341 . S
C587 C585 1.400 . S
C587 C586 1.387 . S
N588 Co579 2.022 1_554 S
N588 C585 1.351 . S
N588 N589 1.365 . S
N589 C586 1.341 . S
N589 N588 1.365 . S
N589 H609 0.862 . S
C590 C585 1.501 . S
C590 H591 0.961 1_554 S
C590 H592 0.961 . S
C590 H593 0.960 . S
H591 C590 0.961 1_556 S
H592 C590 0.961 . S
H593 C590 0.960 . S
C594 N595 1.342 . S
C594 C598 1.401 . S
C594 C599 1.499 . S
N595 Co578 1.989 . S
N595 C594 1.342 . S
N595 N596 1.388 . S
N596 Co579 1.993 . S
N596 N595 1.388 . S
N596 C597 1.346 . S
C597 N596 1.346 . S
C597 C598 1.396 . S
C597 C607 1.510 . S
C598 C594 1.401 . S
C598 C597 1.396 . S
C599 C594 1.499 . S
C599 H600 0.959 . S
C599 H601 0.960 . S
C599 H602 0.961 . S
H600 C599 0.959 . S
H601 C599 0.960 . S
H602 C599 0.961 . S
O603 Co578 1.967 . S
O603 C611 1.258 . S
O604 Co579 1.941 . S
O604 C611 1.266 . S
H605 C607 0.959 . S
H606 C607 0.961 . S
C607 C597 1.510 . S
C607 H605 0.959 . S
C607 H606 0.961 . S
C607 H608 0.959 1_556 S
H608 C607 0.959 1_554 S
H609 N589 0.862 . S
O610 Co578 1.920 . S
O610 C583 1.289 . S
C611 O603 1.258 . S
C611 O604 1.266 . S
Co612 O615 1.970 . S
Co612 N629 1.989 . S
Co612 O637 1.967 . S
Co612 O644 1.920 1_554 S
Co613 O616 1.966 . S
Co613 N622 2.022 . S
Co613 N630 1.993 . S
Co613 O638 1.941 . S
C614 O615 1.258 . S
C614 O616 1.263 . S
O615 Co612 1.970 . S
O615 C614 1.258 . S
O616 Co613 1.966 . S
O616 C614 1.263 . S
C617 O618 1.235 . S
C617 O644 1.289 . S
O618 C617 1.235 . S
C619 C621 1.400 . S
C619 N622 1.351 . S
C619 C624 1.501 . S
C620 C621 1.387 . S
C620 N623 1.341 . S
C621 C619 1.400 . S
C621 C620 1.387 . S
N622 Co613 2.022 . S
N622 C619 1.351 . S
N622 N623 1.365 . S
N623 C620 1.341 . S
N623 N622 1.365 . S
N623 H643 0.862 . S
C624 C619 1.501 . S
C624 H625 0.961 . S
C624 H626 0.961 . S
C624 H627 0.960 . S
H625 C624 0.961 . S
H626 C624 0.961 . S
H627 C624 0.960 . S
C628 N629 1.342 . S
C628 C632 1.401 . S
C628 C633 1.499 1_554 S
N629 Co612 1.989 . S
N629 C628 1.342 . S
N629 N630 1.388 . S
N630 Co613 1.993 . S
N630 N629 1.388 . S
N630 C631 1.346 . S
C631 N630 1.346 . S
C631 C632 1.396 . S
C631 C641 1.510 . S
C632 C628 1.401 . S
C632 C631 1.396 . S
C633 C628 1.499 1_556 S
C633 H634 0.959 . S
C633 H635 0.960 . S
C633 H636 0.961 . S
H634 C633 0.959 . S
H635 C633 0.960 . S
H636 C633 0.961 . S
O637 Co612 1.967 . S
O637 C645 1.258 . S
O638 Co613 1.941 . S
O638 C645 1.266 . S
H639 C641 0.959 . S
H640 C641 0.961 . S
C641 C631 1.510 . S
C641 H639 0.959 . S
C641 H640 0.961 . S
C641 H642 0.960 . S
H642 C641 0.960 . S
H643 N623 0.862 . S
O644 Co612 1.920 1_556 S
O644 C617 1.289 . S
C645 O637 1.258 . S
C645 O638 1.266 . S
Co646 O649 1.970 . S
Co646 N663 1.989 . S
Co646 O671 1.967 . S
Co646 O678 1.920 . S
Co647 O650 1.966 . S
Co647 N656 2.022 . S
Co647 N664 1.993 . S
Co647 O672 1.941 . S
C648 O649 1.258 . S
C648 O650 1.263 . S
O649 Co646 1.970 . S
O649 C648 1.258 . S
O650 Co647 1.966 . S
O650 C648 1.263 . S
C651 O652 1.235 . S
C651 O678 1.289 . S
O652 C651 1.235 . S
C653 C655 1.400 . S
C653 N656 1.351 . S
C653 C658 1.501 . S
C654 C655 1.387 . S
C654 N657 1.341 . S
C655 C653 1.400 . S
C655 C654 1.387 . S
N656 Co647 2.022 . S
N656 C653 1.351 . S
N656 N657 1.365 . S
N657 C654 1.341 . S
N657 N656 1.365 . S
N657 H677 0.862 . S
C658 C653 1.501 . S
C658 H659 0.961 . S
C658 H660 0.961 . S
C658 H661 0.960 . S
H659 C658 0.961 . S
H660 C658 0.961 . S
H661 C658 0.960 . S
C662 N663 1.342 . S
C662 C666 1.401 . S
C662 C667 1.499 . S
N663 Co646 1.989 . S
N663 C662 1.342 . S
N663 N664 1.388 . S
N664 Co647 1.993 . S
N664 N663 1.388 . S
N664 C665 1.346 . S
C665 N664 1.346 . S
C665 C666 1.396 . S
C665 C675 1.510 . S
C666 C662 1.401 . S
C666 C665 1.396 . S
C667 C662 1.499 . S
C667 H668 0.959 . S
C667 H669 0.960 . S
C667 H670 0.961 . S
H668 C667 0.959 . S
H669 C667 0.960 . S
H670 C667 0.961 . S
O671 Co646 1.967 . S
O671 C679 1.258 . S
O672 Co647 1.941 . S
O672 C679 1.266 . S
H673 C675 0.959 . S
H674 C675 0.961 . S
C675 C665 1.510 . S
C675 H673 0.959 . S
C675 H674 0.961 . S
C675 H676 0.960 . S
H676 C675 0.960 . S
H677 N657 0.862 . S
O678 Co646 1.920 . S
O678 C651 1.289 . S
C679 O671 1.258 . S
C679 O672 1.266 . S
Co680 O683 1.970 . S
Co680 N697 1.989 . S
Co680 O705 1.967 . S
Co680 O712 1.920 . S
Co681 O684 1.966 . S
Co681 N690 2.022 . S
Co681 N698 1.993 . S
Co681 O706 1.941 . S
C682 O683 1.258 . S
C682 O684 1.263 . S
O683 Co680 1.970 . S
O683 C682 1.258 . S
O684 Co681 1.966 . S
O684 C682 1.263 . S
C685 O686 1.235 . S
C685 O712 1.289 . S
O686 C685 1.235 . S
C687 C689 1.400 . S
C687 N690 1.351 . S
C687 C692 1.501 . S
C688 C689 1.387 . S
C688 N691 1.341 . S
C689 C687 1.400 . S
C689 C688 1.387 . S
N690 Co681 2.022 . S
N690 C687 1.351 . S
N690 N691 1.365 . S
N691 C688 1.341 . S
N691 N690 1.365 . S
N691 H711 0.862 . S
C692 C687 1.501 . S
C692 H693 0.961 . S
C692 H694 0.961 . S
C692 H695 0.960 . S
H693 C692 0.961 . S
H694 C692 0.961 . S
H695 C692 0.960 . S
C696 N697 1.342 . S
C696 C700 1.401 . S
C696 C701 1.499 . S
N697 Co680 1.989 . S
N697 C696 1.342 . S
N697 N698 1.388 . S
N698 Co681 1.993 . S
N698 N697 1.388 . S
N698 C699 1.346 . S
C699 N698 1.346 . S
C699 C700 1.396 . S
C699 C709 1.510 . S
C700 C696 1.401 . S
C700 C699 1.396 . S
C701 C696 1.499 . S
C701 H702 0.959 . S
C701 H703 0.960 . S
C701 H704 0.961 . S
H702 C701 0.959 . S
H703 C701 0.960 . S
H704 C701 0.961 . S
O705 Co680 1.967 . S
O705 C713 1.258 . S
O706 Co681 1.941 . S
O706 C713 1.266 . S
H707 C709 0.959 . S
H708 C709 0.961 . S
C709 C699 1.510 . S
C709 H707 0.959 . S
C709 H708 0.961 . S
C709 H710 0.960 . S
H710 C709 0.960 . S
H711 N691 0.862 . S
O712 Co680 1.920 . S
O712 C685 1.289 . S
C713 O705 1.258 . S
C713 O706 1.266 . S
Co714 O717 1.970 . S
Co714 N731 1.989 . S
Co714 O739 1.967 . S
Co714 O746 1.920 . S
Co715 O718 1.966 . S
Co715 N724 2.022 . S
Co715 N732 1.993 . S
Co715 O740 1.941 . S
C716 O717 1.258 . S
C716 O718 1.263 . S
O717 Co714 1.970 . S
O717 C716 1.258 . S
O718 Co715 1.966 . S
O718 C716 1.263 . S
C719 O720 1.235 . S
C719 O746 1.289 . S
O720 C719 1.235 . S
C721 C723 1.400 . S
C721 N724 1.351 . S
C721 C726 1.501 . S
C722 C723 1.387 . S
C722 N725 1.341 . S
C723 C721 1.400 . S
C723 C722 1.387 . S
N724 Co715 2.022 . S
N724 C721 1.351 . S
N724 N725 1.365 . S
N725 C722 1.341 . S
N725 N724 1.365 . S
N725 H745 0.862 . S
C726 C721 1.501 . S
C726 H727 0.961 . S
C726 H728 0.961 . S
C726 H729 0.960 . S
H727 C726 0.961 . S
H728 C726 0.961 . S
H729 C726 0.960 . S
C730 N731 1.342 . S
C730 C734 1.401 . S
C730 C735 1.499 . S
N731 Co714 1.989 . S
N731 C730 1.342 . S
N731 N732 1.388 . S
N732 Co715 1.993 . S
N732 N731 1.388 . S
N732 C733 1.346 . S
C733 N732 1.346 . S
C733 C734 1.396 . S
C733 C743 1.510 . S
C734 C730 1.401 . S
C734 C733 1.396 . S
C735 C730 1.499 . S
C735 H736 0.959 . S
C735 H737 0.960 . S
C735 H738 0.961 . S
H736 C735 0.959 . S
H737 C735 0.960 . S
H738 C735 0.961 . S
O739 Co714 1.967 . S
O739 C747 1.258 . S
O740 Co715 1.941 . S
O740 C747 1.266 . S
H741 C743 0.959 . S
H742 C743 0.961 . S
C743 C733 1.510 . S
C743 H741 0.959 . S
C743 H742 0.961 . S
C743 H744 0.960 . S
H744 C743 0.960 . S
H745 N725 0.862 . S
O746 Co714 1.920 . S
O746 C719 1.289 . S
C747 O739 1.258 . S
C747 O740 1.266 . S
Co748 O751 1.970 . S
Co748 N765 1.989 . S
Co748 O773 1.967 . S
Co748 O780 1.920 1_556 S
Co749 O752 1.966 . S
Co749 N758 2.022 . S
Co749 N766 1.993 . S
Co749 O774 1.941 . S
C750 O751 1.258 . S
C750 O752 1.263 . S
O751 Co748 1.970 . S
O751 C750 1.258 . S
O752 Co749 1.966 . S
O752 C750 1.263 . S
C753 O754 1.235 . S
C753 O780 1.289 . S
O754 C753 1.235 . S
C755 C757 1.400 . S
C755 N758 1.351 . S
C755 C760 1.501 . S
C756 C757 1.387 . S
C756 N759 1.341 . S
C757 C755 1.400 . S
C757 C756 1.387 . S
N758 Co749 2.022 . S
N758 C755 1.351 . S
N758 N759 1.365 . S
N759 C756 1.341 . S
N759 N758 1.365 . S
N759 H779 0.862 . S
C760 C755 1.501 . S
C760 H761 0.961 . S
C760 H762 0.961 . S
C760 H763 0.960 . S
H761 C760 0.961 . S
H762 C760 0.961 . S
H763 C760 0.960 . S
C764 N765 1.342 . S
C764 C768 1.401 . S
C764 C769 1.499 1_556 S
N765 Co748 1.989 . S
N765 C764 1.342 . S
N765 N766 1.388 . S
N766 Co749 1.993 . S
N766 N765 1.388 . S
N766 C767 1.346 . S
C767 N766 1.346 . S
C767 C768 1.396 . S
C767 C777 1.510 . S
C768 C764 1.401 . S
C768 C767 1.396 . S
C769 C764 1.499 1_554 S
C769 H770 0.959 . S
C769 H771 0.960 . S
C769 H772 0.961 . S
H770 C769 0.959 . S
H771 C769 0.960 . S
H772 C769 0.961 . S
O773 Co748 1.967 . S
O773 C781 1.258 . S
O774 Co749 1.941 . S
O774 C781 1.266 . S
H775 C777 0.959 . S
H776 C777 0.961 . S
C777 C767 1.510 . S
C777 H775 0.959 . S
C777 H776 0.961 . S
C777 H778 0.960 . S
H778 C777 0.960 . S
H779 N759 0.862 . S
O780 Co748 1.920 1_554 S
O780 C753 1.289 . S
C781 O773 1.258 . S
C781 O774 1.266 . S
Co782 O785 1.970 . S
Co782 N799 1.989 . S
Co782 O807 1.967 . S
Co782 O814 1.920 . S
Co783 O786 1.966 . S
Co783 N792 2.022 1_554 S
Co783 N800 1.993 . S
Co783 O808 1.941 . S
C784 O785 1.258 . S
C784 O786 1.263 . S
O785 Co782 1.970 . S
O785 C784 1.258 . S
O786 Co783 1.966 . S
O786 C784 1.263 . S
C787 O788 1.235 . S
C787 O814 1.289 . S
O788 C787 1.235 . S
C789 C791 1.400 . S
C789 N792 1.351 . S
C789 C794 1.501 . S
C790 C791 1.387 . S
C790 N793 1.341 . S
C791 C789 1.400 . S
C791 C790 1.387 . S
N792 Co783 2.022 1_556 S
N792 C789 1.351 . S
N792 N793 1.365 . S
N793 C790 1.341 . S
N793 N792 1.365 . S
N793 H813 0.862 . S
C794 C789 1.501 . S
C794 H795 0.961 1_556 S
C794 H796 0.961 . S
C794 H797 0.960 . S
H795 C794 0.961 1_554 S
H796 C794 0.961 . S
H797 C794 0.960 . S
C798 N799 1.342 . S
C798 C802 1.401 . S
C798 C803 1.499 . S
N799 Co782 1.989 . S
N799 C798 1.342 . S
N799 N800 1.388 . S
N800 Co783 1.993 . S
N800 N799 1.388 . S
N800 C801 1.346 . S
C801 N800 1.346 . S
C801 C802 1.396 . S
C801 C811 1.510 . S
C802 C798 1.401 . S
C802 C801 1.396 . S
C803 C798 1.499 . S
C803 H804 0.959 . S
C803 H805 0.960 . S
C803 H806 0.961 . S
H804 C803 0.959 . S
H805 C803 0.960 . S
H806 C803 0.961 . S
O807 Co782 1.967 . S
O807 C815 1.258 . S
O808 Co783 1.941 . S
O808 C815 1.266 . S
H809 C811 0.959 . S
H810 C811 0.961 . S
C811 C801 1.510 . S
C811 H809 0.959 . S
C811 H810 0.961 . S
C811 H812 0.959 1_554 S
H812 C811 0.959 1_556 S
H813 N793 0.862 . S
O814 Co782 1.920 . S
O814 C787 1.289 . S
C815 O807 1.258 . S
C815 O808 1.266 . S
Co816 O819 1.970 . S
Co816 N833 1.989 . S
Co816 O841 1.967 . S
Co816 O848 1.920 . S
Co817 O820 1.966 . S
Co817 N826 2.022 . S
Co817 N834 1.993 . S
Co817 O842 1.941 . S
C818 O819 1.258 . S
C818 O820 1.263 . S
O819 Co816 1.970 . S
O819 C818 1.258 . S
O820 Co817 1.966 . S
O820 C818 1.263 . S
C821 O822 1.235 . S
C821 O848 1.289 . S
O822 C821 1.235 . S
C823 C825 1.400 . S
C823 N826 1.351 . S
C823 C828 1.501 . S
C824 C825 1.387 . S
C824 N827 1.341 . S
C825 C823 1.400 . S
C825 C824 1.387 . S
N826 Co817 2.022 . S
N826 C823 1.351 . S
N826 N827 1.365 . S
N827 C824 1.341 . S
N827 N826 1.365 . S
N827 H847 0.862 . S
C828 C823 1.501 . S
C828 H829 0.961 . S
C828 H830 0.961 . S
C828 H831 0.960 . S
H829 C828 0.961 . S
H830 C828 0.961 . S
H831 C828 0.960 . S
C832 N833 1.342 . S
C832 C836 1.401 . S
C832 C837 1.499 . S
N833 Co816 1.989 . S
N833 C832 1.342 . S
N833 N834 1.388 . S
N834 Co817 1.993 . S
N834 N833 1.388 . S
N834 C835 1.346 . S
C835 N834 1.346 . S
C835 C836 1.396 . S
C835 C845 1.510 . S
C836 C832 1.401 . S
C836 C835 1.396 . S
C837 C832 1.499 . S
C837 H838 0.959 . S
C837 H839 0.960 . S
C837 H840 0.961 . S
H838 C837 0.959 . S
H839 C837 0.960 . S
H840 C837 0.961 . S
O841 Co816 1.967 . S
O841 C849 1.258 . S
O842 Co817 1.941 . S
O842 C849 1.266 . S
H843 C845 0.959 . S
H844 C845 0.961 . S
C845 C835 1.510 . S
C845 H843 0.959 . S
C845 H844 0.961 . S
C845 H846 0.960 . S
H846 C845 0.960 . S
H847 N827 0.862 . S
O848 Co816 1.920 . S
O848 C821 1.289 . S
C849 O841 1.258 . S
C849 O842 1.266 . S
Co850 O853 1.970 . S
Co850 N867 1.989 . S
Co850 O875 1.967 . S
Co850 O882 1.920 . S
Co851 O854 1.966 . S
Co851 N860 2.022 1_554 S
Co851 N868 1.993 . S
Co851 O876 1.941 . S
C852 O853 1.258 . S
C852 O854 1.263 . S
O853 Co850 1.970 . S
O853 C852 1.258 . S
O854 Co851 1.966 . S
O854 C852 1.263 . S
C855 O856 1.235 . S
C855 O882 1.289 . S
O856 C855 1.235 . S
C857 C859 1.400 . S
C857 N860 1.351 . S
C857 C862 1.501 . S
C858 C859 1.387 . S
C858 N861 1.341 . S
C859 C857 1.400 . S
C859 C858 1.387 . S
N860 Co851 2.022 1_556 S
N860 C857 1.351 . S
N860 N861 1.365 . S
N861 C858 1.341 . S
N861 N860 1.365 . S
N861 H881 0.862 . S
C862 C857 1.501 . S
C862 H863 0.961 1_556 S
C862 H864 0.961 . S
C862 H865 0.960 . S
H863 C862 0.961 1_554 S
H864 C862 0.961 . S
H865 C862 0.960 . S
C866 N867 1.342 . S
C866 C870 1.401 . S
C866 C871 1.499 . S
N867 Co850 1.989 . S
N867 C866 1.342 . S
N867 N868 1.388 . S
N868 Co851 1.993 . S
N868 N867 1.388 . S
N868 C869 1.346 . S
C869 N868 1.346 . S
C869 C870 1.396 . S
C869 C879 1.510 . S
C870 C866 1.401 . S
C870 C869 1.396 . S
C871 C866 1.499 . S
C871 H872 0.959 . S
C871 H873 0.960 . S
C871 H874 0.961 . S
H872 C871 0.959 . S
H873 C871 0.960 . S
H874 C871 0.961 . S
O875 Co850 1.967 . S
O875 C883 1.258 . S
O876 Co851 1.941 . S
O876 C883 1.266 . S
H877 C879 0.959 . S
H878 C879 0.961 . S
C879 C869 1.510 . S
C879 H877 0.959 . S
C879 H878 0.961 . S
C879 H880 0.959 1_554 S
H880 C879 0.959 1_556 S
H881 N861 0.862 . S
O882 Co850 1.920 . S
O882 C855 1.289 . S
C883 O875 1.258 . S
C883 O876 1.266 . S
Co884 O887 1.970 . S
Co884 N901 1.989 . S
Co884 O909 1.967 . S
Co884 O916 1.920 1_556 S
Co885 O888 1.966 . S
Co885 N894 2.022 . S
Co885 N902 1.993 . S
Co885 O910 1.941 . S
C886 O887 1.258 . S
C886 O888 1.263 . S
O887 Co884 1.970 . S
O887 C886 1.258 . S
O888 Co885 1.966 . S
O888 C886 1.263 . S
C889 O890 1.235 . S
C889 O916 1.289 . S
O890 C889 1.235 . S
C891 C893 1.400 . S
C891 N894 1.351 . S
C891 C896 1.501 . S
C892 C893 1.387 . S
C892 N895 1.341 . S
C893 C891 1.400 . S
C893 C892 1.387 . S
N894 Co885 2.022 . S
N894 C891 1.351 . S
N894 N895 1.365 . S
N895 C892 1.341 . S
N895 N894 1.365 . S
N895 H915 0.862 . S
C896 C891 1.501 . S
C896 H897 0.961 . S
C896 H898 0.961 . S
C896 H899 0.960 . S
H897 C896 0.961 . S
H898 C896 0.961 . S
H899 C896 0.960 . S
C900 N901 1.342 . S
C900 C904 1.401 . S
C900 C905 1.499 1_556 S
N901 Co884 1.989 . S
N901 C900 1.342 . S
N901 N902 1.388 . S
N902 Co885 1.993 . S
N902 N901 1.388 . S
N902 C903 1.346 . S
C903 N902 1.346 . S
C903 C904 1.396 . S
C903 C913 1.510 . S
C904 C900 1.401 . S
C904 C903 1.396 . S
C905 C900 1.499 1_554 S
C905 H906 0.959 . S
C905 H907 0.960 . S
C905 H908 0.961 . S
H906 C905 0.959 . S
H907 C905 0.960 . S
H908 C905 0.961 . S
O909 Co884 1.967 . S
O909 C917 1.258 . S
O910 Co885 1.941 . S
O910 C917 1.266 . S
H911 C913 0.959 . S
H912 C913 0.961 . S
C913 C903 1.510 . S
C913 H911 0.959 . S
C913 H912 0.961 . S
C913 H914 0.960 . S
H914 C913 0.960 . S
H915 N895 0.862 . S
O916 Co884 1.920 1_554 S
O916 C889 1.289 . S
C917 O909 1.258 . S
C917 O910 1.266 . S
Co918 O921 1.970 . S
Co918 N935 1.989 . S
Co918 O943 1.967 . S
Co918 O950 1.920 . S
Co919 O922 1.966 . S
Co919 N928 2.022 . S
Co919 N936 1.993 . S
Co919 O944 1.941 . S
C920 O921 1.258 . S
C920 O922 1.263 . S
O921 Co918 1.970 . S
O921 C920 1.258 . S
O922 Co919 1.966 . S
O922 C920 1.263 . S
C923 O924 1.235 . S
C923 O950 1.289 . S
O924 C923 1.235 . S
C925 C927 1.400 . S
C925 N928 1.351 . S
C925 C930 1.501 . S
C926 C927 1.387 . S
C926 N929 1.341 . S
C927 C925 1.400 . S
C927 C926 1.387 . S
N928 Co919 2.022 . S
N928 C925 1.351 . S
N928 N929 1.365 . S
N929 C926 1.341 . S
N929 N928 1.365 . S
N929 H949 0.862 . S
C930 C925 1.501 . S
C930 H931 0.961 . S
C930 H932 0.961 . S
C930 H933 0.960 . S
H931 C930 0.961 . S
H932 C930 0.961 . S
H933 C930 0.960 . S
C934 N935 1.342 . S
C934 C938 1.401 . S
C934 C939 1.499 . S
N935 Co918 1.989 . S
N935 C934 1.342 . S
N935 N936 1.388 . S
N936 Co919 1.993 . S
N936 N935 1.388 . S
N936 C937 1.346 . S
C937 N936 1.346 . S
C937 C938 1.396 . S
C937 C947 1.510 . S
C938 C934 1.401 . S
C938 C937 1.396 . S
C939 C934 1.499 . S
C939 H940 0.959 . S
C939 H941 0.960 . S
C939 H942 0.961 . S
H940 C939 0.959 . S
H941 C939 0.960 . S
H942 C939 0.961 . S
O943 Co918 1.967 . S
O943 C951 1.258 . S
O944 Co919 1.941 . S
O944 C951 1.266 . S
H945 C947 0.959 . S
H946 C947 0.961 . S
C947 C937 1.510 . S
C947 H945 0.959 . S
C947 H946 0.961 . S
C947 H948 0.960 . S
H948 C947 0.960 . S
H949 N929 0.862 . S
O950 Co918 1.920 . S
O950 C923 1.289 . S
C951 O943 1.258 . S
C951 O944 1.266 . S
Co952 O955 1.970 . S
Co952 N969 1.989 . S
Co952 O977 1.967 . S
Co952 O984 1.920 . S
Co953 O956 1.966 . S
Co953 N962 2.022 . S
Co953 N970 1.993 . S
Co953 O978 1.941 . S
C954 O955 1.258 . S
C954 O956 1.263 . S
O955 Co952 1.970 . S
O955 C954 1.258 . S
O956 Co953 1.966 . S
O956 C954 1.263 . S
C957 O958 1.235 . S
C957 O984 1.289 . S
O958 C957 1.235 . S
C959 C961 1.400 . S
C959 N962 1.351 . S
C959 C964 1.501 . S
C960 C961 1.387 . S
C960 N963 1.341 . S
C961 C959 1.400 . S
C961 C960 1.387 . S
N962 Co953 2.022 . S
N962 C959 1.351 . S
N962 N963 1.365 . S
N963 C960 1.341 . S
N963 N962 1.365 . S
N963 H983 0.862 . S
C964 C959 1.501 . S
C964 H965 0.961 . S
C964 H966 0.961 . S
C964 H967 0.960 . S
H965 C964 0.961 . S
H966 C964 0.961 . S
H967 C964 0.960 . S
C968 N969 1.342 . S
C968 C972 1.401 . S
C968 C973 1.499 . S
N969 Co952 1.989 . S
N969 C968 1.342 . S
N969 N970 1.388 . S
N970 Co953 1.993 . S
N970 N969 1.388 . S
N970 C971 1.346 . S
C971 N970 1.346 . S
C971 C972 1.396 . S
C971 C981 1.510 . S
C972 C968 1.401 . S
C972 C971 1.396 . S
C973 C968 1.499 . S
C973 H974 0.959 . S
C973 H975 0.960 . S
C973 H976 0.961 . S
H974 C973 0.959 . S
H975 C973 0.960 . S
H976 C973 0.961 . S
O977 Co952 1.967 . S
O977 C985 1.258 . S
O978 Co953 1.941 . S
O978 C985 1.266 . S
H979 C981 0.959 . S
H980 C981 0.961 . S
C981 C971 1.510 . S
C981 H979 0.959 . S
C981 H980 0.961 . S
C981 H982 0.960 . S
H982 C981 0.960 . S
H983 N963 0.862 . S
O984 Co952 1.920 . S
O984 C957 1.289 . S
C985 O977 1.258 . S
C985 O978 1.266 . S
Co986 O989 1.970 . S
Co986 N1003 1.989 . S
Co986 O1011 1.967 . S
Co986 O1018 1.920 . S
Co987 O990 1.966 . S
Co987 N996 2.022 . S
Co987 N1004 1.993 . S
Co987 O1012 1.941 . S
C988 O989 1.258 . S
C988 O990 1.263 . S
O989 Co986 1.970 . S
O989 C988 1.258 . S
O990 Co987 1.966 . S
O990 C988 1.263 . S
C991 O992 1.235 . S
C991 O1018 1.289 . S
O992 C991 1.235 . S
C993 C995 1.400 . S
C993 N996 1.351 . S
C993 C998 1.501 . S
C994 C995 1.387 . S
C994 N997 1.341 . S
C995 C993 1.400 . S
C995 C994 1.387 . S
N996 Co987 2.022 . S
N996 C993 1.351 . S
N996 N997 1.365 . S
N997 C994 1.341 . S
N997 N996 1.365 . S
N997 H1017 0.862 . S
C998 C993 1.501 . S
C998 H999 0.961 . S
C998 H1000 0.961 . S
C998 H1001 0.960 . S
H999 C998 0.961 . S
H1000 C998 0.961 . S
H1001 C998 0.960 . S
C1002 N1003 1.342 . S
C1002 C1006 1.401 . S
C1002 C1007 1.499 . S
N1003 Co986 1.989 . S
N1003 C1002 1.342 . S
N1003 N1004 1.388 . S
N1004 Co987 1.993 . S
N1004 N1003 1.388 . S
N1004 C1005 1.346 . S
C1005 N1004 1.346 . S
C1005 C1006 1.396 . S
C1005 C1015 1.510 . S
C1006 C1002 1.401 . S
C1006 C1005 1.396 . S
C1007 C1002 1.499 . S
C1007 H1008 0.959 . S
C1007 H1009 0.960 . S
C1007 H1010 0.961 . S
H1008 C1007 0.959 . S
H1009 C1007 0.960 . S
H1010 C1007 0.961 . S
O1011 Co986 1.967 . S
O1011 C1019 1.258 . S
O1012 Co987 1.941 . S
O1012 C1019 1.266 . S
H1013 C1015 0.959 . S
H1014 C1015 0.961 . S
C1015 C1005 1.510 . S
C1015 H1013 0.959 . S
C1015 H1014 0.961 . S
C1015 H1016 0.960 . S
H1016 C1015 0.960 . S
H1017 N997 0.862 . S
O1018 Co986 1.920 . S
O1018 C991 1.289 . S
C1019 O1011 1.258 . S
C1019 O1012 1.266 . S
Co1020 O1023 1.970 . S
Co1020 N1037 1.989 . S
Co1020 O1045 1.967 . S
Co1020 O1052 1.920 1_554 S
Co1021 O1024 1.966 . S
Co1021 N1030 2.022 . S
Co1021 N1038 1.993 . S
Co1021 O1046 1.941 . S
C1022 O1023 1.258 . S
C1022 O1024 1.263 . S
O1023 Co1020 1.970 . S
O1023 C1022 1.258 . S
O1024 Co1021 1.966 . S
O1024 C1022 1.263 . S
C1025 O1026 1.235 . S
C1025 O1052 1.289 . S
O1026 C1025 1.235 . S
C1027 C1029 1.400 . S
C1027 N1030 1.351 . S
C1027 C1032 1.501 . S
C1028 C1029 1.387 . S
C1028 N1031 1.341 . S
C1029 C1027 1.400 . S
C1029 C1028 1.387 . S
N1030 Co1021 2.022 . S
N1030 C1027 1.351 . S
N1030 N1031 1.365 . S
N1031 C1028 1.341 . S
N1031 N1030 1.365 . S
N1031 H1051 0.862 . S
C1032 C1027 1.501 . S
C1032 H1033 0.961 . S
C1032 H1034 0.961 . S
C1032 H1035 0.960 . S
H1033 C1032 0.961 . S
H1034 C1032 0.961 . S
H1035 C1032 0.960 . S
C1036 N1037 1.342 . S
C1036 C1040 1.401 . S
C1036 C1041 1.499 1_554 S
N1037 Co1020 1.989 . S
N1037 C1036 1.342 . S
N1037 N1038 1.388 . S
N1038 Co1021 1.993 . S
N1038 N1037 1.388 . S
N1038 C1039 1.346 . S
C1039 N1038 1.346 . S
C1039 C1040 1.396 . S
C1039 C1049 1.510 . S
C1040 C1036 1.401 . S
C1040 C1039 1.396 . S
C1041 C1036 1.499 1_556 S
C1041 H1042 0.959 . S
C1041 H1043 0.960 . S
C1041 H1044 0.961 . S
H1042 C1041 0.959 . S
H1043 C1041 0.960 . S
H1044 C1041 0.961 . S
O1045 Co1020 1.967 . S
O1045 C1053 1.258 . S
O1046 Co1021 1.941 . S
O1046 C1053 1.266 . S
H1047 C1049 0.959 . S
H1048 C1049 0.961 . S
C1049 C1039 1.510 . S
C1049 H1047 0.959 . S
C1049 H1048 0.961 . S
C1049 H1050 0.960 . S
H1050 C1049 0.960 . S
H1051 N1031 0.862 . S
O1052 Co1020 1.920 1_556 S
O1052 C1025 1.289 . S
C1053 O1045 1.258 . S
C1053 O1046 1.266 . S
Co1054 O1057 1.970 . S
Co1054 N1071 1.989 . S
Co1054 O1079 1.967 . S
Co1054 O1086 1.920 . S
Co1055 O1058 1.966 . S
Co1055 N1064 2.022 1_556 S
Co1055 N1072 1.993 . S
Co1055 O1080 1.941 . S
C1056 O1057 1.258 . S
C1056 O1058 1.263 . S
O1057 Co1054 1.970 . S
O1057 C1056 1.258 . S
O1058 Co1055 1.966 . S
O1058 C1056 1.263 . S
C1059 O1060 1.235 . S
C1059 O1086 1.289 . S
O1060 C1059 1.235 . S
C1061 C1063 1.400 . S
C1061 N1064 1.351 . S
C1061 C1066 1.501 . S
C1062 C1063 1.387 . S
C1062 N1065 1.341 . S
C1063 C1061 1.400 . S
C1063 C1062 1.387 . S
N1064 Co1055 2.022 1_554 S
N1064 C1061 1.351 . S
N1064 N1065 1.365 . S
N1065 C1062 1.341 . S
N1065 N1064 1.365 . S
N1065 H1085 0.862 . S
C1066 C1061 1.501 . S
C1066 H1067 0.961 1_554 S
C1066 H1068 0.961 . S
C1066 H1069 0.960 . S
H1067 C1066 0.961 1_556 S
H1068 C1066 0.961 . S
H1069 C1066 0.960 . S
C1070 N1071 1.342 . S
C1070 C1074 1.401 . S
C1070 C1075 1.499 . S
N1071 Co1054 1.989 . S
N1071 C1070 1.342 . S
N1071 N1072 1.388 . S
N1072 Co1055 1.993 . S
N1072 N1071 1.388 . S
N1072 C1073 1.346 . S
C1073 N1072 1.346 . S
C1073 C1074 1.396 . S
C1073 C1083 1.510 . S
C1074 C1070 1.401 . S
C1074 C1073 1.396 . S
C1075 C1070 1.499 . S
C1075 H1076 0.959 . S
C1075 H1077 0.960 . S
C1075 H1078 0.961 . S
H1076 C1075 0.959 . S
H1077 C1075 0.960 . S
H1078 C1075 0.961 . S
O1079 Co1054 1.967 . S
O1079 C1087 1.258 . S
O1080 Co1055 1.941 . S
O1080 C1087 1.266 . S
H1081 C1083 0.959 . S
H1082 C1083 0.961 . S
C1083 C1073 1.510 . S
C1083 H1081 0.959 . S
C1083 H1082 0.961 . S
C1083 H1084 0.959 1_556 S
H1084 C1083 0.959 1_554 S
H1085 N1065 0.862 . S
O1086 Co1054 1.920 . S
O1086 C1059 1.289 . S
C1087 O1079 1.258 . S
C1087 O1080 1.266 . S
H1088 C1096 0.950 . S
H1089 C1101 0.950 . S
H1090 C1098 0.950 . S
H1091 C1100 0.950 . S
H1092 C1102 0.950 . S
H1093 C1104 0.950 . S
H1094 C1106 0.950 . S
H1095 C1107 0.950 . S
C1096 H1088 0.950 . S
C1096 C1097 1.386 . S
C1096 C1098 1.391 . S
C1097 C1096 1.386 . S
C1097 C1101 1.393 . S
C1098 H1090 0.950 . S
C1098 C1096 1.391 . S
C1098 C1099 1.400 . S
C1099 C1098 1.400 . S
C1099 C1100 1.398 . S
C1099 C1105 1.491 . S
C1100 H1091 0.950 . S
C1100 C1099 1.398 . S
C1100 C1101 1.391 . S
C1101 H1089 0.950 . S
C1101 C1097 1.393 . S
C1101 C1100 1.391 . S
C1102 H1092 0.950 . S
C1102 C1103 1.386 . S
C1102 C1104 1.391 . S
C1103 C1102 1.386 . S
C1103 C1107 1.393 . S
C1104 H1093 0.950 . S
C1104 C1102 1.391 . S
C1104 C1105 1.400 . S
C1105 C1099 1.491 . S
C1105 C1104 1.400 . S
C1105 C1106 1.398 . S
C1106 H1094 0.950 . S
C1106 C1105 1.398 . S
C1106 C1107 1.391 . S
C1107 H1095 0.950 . S
C1107 C1103 1.393 . S
C1107 C1106 1.391 . S
H1108 C1116 0.950 . S
H1109 C1121 0.950 . S
H1110 C1118 0.950 . S
H1111 C1120 0.950 . S
H1112 C1122 0.950 . S
H1113 C1124 0.950 . S
H1114 C1126 0.950 . S
H1115 C1127 0.950 . S
C1116 H1108 0.950 . S
C1116 C1117 1.386 . S
C1116 C1118 1.391 . S
C1117 C1116 1.386 . S
C1117 C1121 1.393 . S
C1118 H1110 0.950 . S
C1118 C1116 1.391 . S
C1118 C1119 1.400 . S
C1119 C1118 1.400 . S
C1119 C1120 1.398 . S
C1119 C1125 1.491 . S
C1120 H1111 0.950 . S
C1120 C1119 1.398 . S
C1120 C1121 1.391 . S
C1121 H1109 0.950 . S
C1121 C1117 1.393 . S
C1121 C1120 1.391 . S
C1122 H1112 0.950 . S
C1122 C1123 1.386 . S
C1122 C1124 1.391 1_554 S
C1123 C1122 1.386 . S
C1123 C1127 1.393 . S
C1124 H1113 0.950 . S
C1124 C1122 1.391 1_556 S
C1124 C1125 1.400 . S
C1125 C1119 1.491 . S
C1125 C1124 1.400 . S
C1125 C1126 1.398 . S
C1126 H1114 0.950 . S
C1126 C1125 1.398 . S
C1126 C1127 1.391 1_556 S
C1127 H1115 0.950 . S
C1127 C1123 1.393 . S
C1127 C1126 1.391 1_554 S
H1128 C1136 0.950 . S
H1129 C1141 0.950 . S
H1130 C1138 0.950 . S
H1131 C1140 0.950 . S
H1132 C1142 0.950 . S
H1133 C1144 0.950 . S
H1134 C1146 0.950 . S
H1135 C1147 0.950 . S
C1136 H1128 0.950 . S
C1136 C1137 1.386 . S
C1136 C1138 1.391 1_556 S
C1137 C1136 1.386 . S
C1137 C1141 1.393 . S
C1138 H1130 0.950 . S
C1138 C1136 1.391 1_554 S
C1138 C1139 1.400 . S
C1139 C1138 1.400 . S
C1139 C1140 1.398 . S
C1139 C1145 1.491 . S
C1140 H1131 0.950 . S
C1140 C1139 1.398 . S
C1140 C1141 1.391 1_554 S
C1141 H1129 0.950 . S
C1141 C1137 1.393 . S
C1141 C1140 1.391 1_556 S
C1142 H1132 0.950 . S
C1142 C1143 1.386 . S
C1142 C1144 1.391 . S
C1143 C1142 1.386 . S
C1143 C1147 1.393 . S
C1144 H1133 0.950 . S
C1144 C1142 1.391 . S
C1144 C1145 1.400 . S
C1145 C1139 1.491 . S
C1145 C1144 1.400 . S
C1145 C1146 1.398 . S
C1146 H1134 0.950 . S
C1146 C1145 1.398 . S
C1146 C1147 1.391 . S
C1147 H1135 0.950 . S
C1147 C1143 1.393 . S
C1147 C1146 1.391 . S
H1148 C1156 0.950 . S
H1149 C1161 0.950 . S
H1150 C1158 0.950 . S
H1151 C1160 0.950 . S
H1152 C1162 0.950 . S
H1153 C1164 0.950 . S
H1154 C1166 0.950 . S
H1155 C1167 0.950 . S
C1156 H1148 0.950 . S
C1156 C1157 1.386 . S
C1156 C1158 1.391 . S
C1157 C1156 1.386 . S
C1157 C1161 1.393 . S
C1158 H1150 0.950 . S
C1158 C1156 1.391 . S
C1158 C1159 1.400 . S
C1159 C1158 1.400 . S
C1159 C1160 1.398 . S
C1159 C1165 1.491 . S
C1160 H1151 0.950 . S
C1160 C1159 1.398 . S
C1160 C1161 1.391 . S
C1161 H1149 0.950 . S
C1161 C1157 1.393 . S
C1161 C1160 1.391 . S
C1162 H1152 0.950 . S
C1162 C1163 1.386 . S
C1162 C1164 1.391 . S
C1163 C1162 1.386 . S
C1163 C1167 1.393 . S
C1164 H1153 0.950 . S
C1164 C1162 1.391 . S
C1164 C1165 1.400 . S
C1165 C1159 1.491 . S
C1165 C1164 1.400 . S
C1165 C1166 1.398 . S
C1166 H1154 0.950 . S
C1166 C1165 1.398 . S
C1166 C1167 1.391 . S
C1167 H1155 0.950 . S
C1167 C1163 1.393 . S
C1167 C1166 1.391 . S
H1168 C1176 0.950 . S
H1169 C1181 0.950 . S
H1170 C1178 0.950 . S
H1171 C1180 0.950 . S
H1172 C1182 0.950 . S
H1173 C1184 0.950 . S
H1174 C1186 0.950 . S
H1175 C1187 0.950 . S
C1176 H1168 0.950 . S
C1176 C1177 1.386 . S
C1176 C1178 1.391 . S
C1177 C1176 1.386 . S
C1177 C1181 1.393 . S
C1178 H1170 0.950 . S
C1178 C1176 1.391 . S
C1178 C1179 1.400 . S
C1179 C1178 1.400 . S
C1179 C1180 1.398 . S
C1179 C1185 1.491 . S
C1180 H1171 0.950 . S
C1180 C1179 1.398 . S
C1180 C1181 1.391 . S
C1181 H1169 0.950 . S
C1181 C1177 1.393 . S
C1181 C1180 1.391 . S
C1182 H1172 0.950 . S
C1182 C1183 1.386 . S
C1182 C1184 1.391 . S
C1183 C1182 1.386 . S
C1183 C1187 1.393 . S
C1184 H1173 0.950 . S
C1184 C1182 1.391 . S
C1184 C1185 1.400 . S
C1185 C1179 1.491 . S
C1185 C1184 1.400 . S
C1185 C1186 1.398 . S
C1186 H1174 0.950 . S
C1186 C1185 1.398 . S
C1186 C1187 1.391 . S
C1187 H1175 0.950 . S
C1187 C1183 1.393 . S
C1187 C1186 1.391 . S
H1188 C1196 0.950 . S
H1189 C1201 0.950 . S
H1190 C1198 0.950 . S
H1191 C1200 0.950 . S
H1192 C1202 0.950 . S
H1193 C1204 0.950 . S
H1194 C1206 0.950 . S
H1195 C1207 0.950 . S
C1196 H1188 0.950 . S
C1196 C1197 1.386 . S
C1196 C1198 1.391 . S
C1197 C1196 1.386 . S
C1197 C1201 1.393 . S
C1198 H1190 0.950 . S
C1198 C1196 1.391 . S
C1198 C1199 1.400 . S
C1199 C1198 1.400 . S
C1199 C1200 1.398 . S
C1199 C1205 1.491 . S
C1200 H1191 0.950 . S
C1200 C1199 1.398 . S
C1200 C1201 1.391 . S
C1201 H1189 0.950 . S
C1201 C1197 1.393 . S
C1201 C1200 1.391 . S
C1202 H1192 0.950 . S
C1202 C1203 1.386 . S
C1202 C1204 1.391 . S
C1203 C1202 1.386 . S
C1203 C1207 1.393 . S
C1204 H1193 0.950 . S
C1204 C1202 1.391 . S
C1204 C1205 1.400 . S
C1205 C1199 1.491 . S
C1205 C1204 1.400 . S
C1205 C1206 1.398 . S
C1206 H1194 0.950 . S
C1206 C1205 1.398 . S
C1206 C1207 1.391 . S
C1207 H1195 0.950 . S
C1207 C1203 1.393 . S
C1207 C1206 1.391 . S
H1208 C1216 0.950 . S
H1209 C1221 0.950 . S
H1210 C1218 0.950 . S
H1211 C1220 0.950 . S
H1212 C1222 0.950 . S
H1213 C1224 0.950 . S
H1214 C1226 0.950 . S
H1215 C1227 0.950 . S
C1216 H1208 0.950 . S
C1216 C1217 1.386 . S
C1216 C1218 1.391 . S
C1217 C1216 1.386 . S
C1217 C1221 1.393 . S
C1218 H1210 0.950 . S
C1218 C1216 1.391 . S
C1218 C1219 1.400 . S
C1219 C1218 1.400 . S
C1219 C1220 1.398 . S
C1219 C1225 1.491 . S
C1220 H1211 0.950 . S
C1220 C1219 1.398 . S
C1220 C1221 1.391 . S
C1221 H1209 0.950 . S
C1221 C1217 1.393 . S
C1221 C1220 1.391 . S
C1222 H1212 0.950 . S
C1222 C1223 1.386 . S
C1222 C1224 1.391 1_554 S
C1223 C1222 1.386 . S
C1223 C1227 1.393 . S
C1224 H1213 0.950 . S
C1224 C1222 1.391 1_556 S
C1224 C1225 1.400 . S
C1225 C1219 1.491 . S
C1225 C1224 1.400 . S
C1225 C1226 1.398 . S
C1226 H1214 0.950 . S
C1226 C1225 1.398 . S
C1226 C1227 1.391 1_556 S
C1227 H1215 0.950 . S
C1227 C1223 1.393 . S
C1227 C1226 1.391 1_554 S
H1228 C1236 0.950 . S
H1229 C1241 0.950 . S
H1230 C1238 0.950 . S
H1231 C1240 0.950 . S
H1232 C1242 0.950 . S
H1233 C1244 0.950 . S
H1234 C1246 0.950 . S
H1235 C1247 0.950 . S
C1236 H1228 0.950 . S
C1236 C1237 1.386 . S
C1236 C1238 1.391 1_556 S
C1237 C1236 1.386 . S
C1237 C1241 1.393 . S
C1238 H1230 0.950 . S
C1238 C1236 1.391 1_554 S
C1238 C1239 1.400 . S
C1239 C1238 1.400 . S
C1239 C1240 1.398 . S
C1239 C1245 1.491 . S
C1240 H1231 0.950 . S
C1240 C1239 1.398 . S
C1240 C1241 1.391 1_554 S
C1241 H1229 0.950 . S
C1241 C1237 1.393 . S
C1241 C1240 1.391 1_556 S
C1242 H1232 0.950 . S
C1242 C1243 1.386 . S
C1242 C1244 1.391 . S
C1243 C1242 1.386 . S
C1243 C1247 1.393 . S
C1244 H1233 0.950 . S
C1244 C1242 1.391 . S
C1244 C1245 1.400 . S
C1245 C1239 1.491 . S
C1245 C1244 1.400 . S
C1245 C1246 1.398 . S
C1246 H1234 0.950 . S
C1246 C1245 1.398 . S
C1246 C1247 1.391 . S
C1247 H1235 0.950 . S
C1247 C1243 1.393 . S
C1247 C1246 1.391 . S
H1248 C1256 0.950 . S
H1249 C1261 0.950 . S
H1250 C1258 0.950 . S
H1251 C1260 0.950 . S
H1252 C1262 0.950 . S
H1253 C1264 0.950 . S
H1254 C1266 0.950 . S
H1255 C1267 0.950 . S
C1256 H1248 0.950 . S
C1256 C1257 1.386 . S
C1256 C1258 1.391 . S
C1257 C1256 1.386 . S
C1257 C1261 1.393 . S
C1258 H1250 0.950 . S
C1258 C1256 1.391 . S
C1258 C1259 1.400 . S
C1259 C1258 1.400 . S
C1259 C1260 1.398 . S
C1259 C1265 1.491 . S
C1260 H1251 0.950 . S
C1260 C1259 1.398 . S
C1260 C1261 1.391 . S
C1261 H1249 0.950 . S
C1261 C1257 1.393 . S
C1261 C1260 1.391 . S
C1262 H1252 0.950 . S
C1262 C1263 1.386 . S
C1262 C1264 1.391 . S
C1263 C1262 1.386 . S
C1263 C1267 1.393 . S
C1264 H1253 0.950 . S
C1264 C1262 1.391 . S
C1264 C1265 1.400 . S
C1265 C1259 1.491 . S
C1265 C1264 1.400 . S
C1265 C1266 1.398 . S
C1266 H1254 0.950 . S
C1266 C1265 1.398 . S
C1266 C1267 1.391 . S
C1267 H1255 0.950 . S
C1267 C1263 1.393 . S
C1267 C1266 1.391 . S
H1268 C1276 0.950 . S
H1269 C1281 0.950 . S
H1270 C1278 0.950 . S
H1271 C1280 0.950 . S
H1272 C1282 0.950 . S
H1273 C1284 0.950 . S
H1274 C1286 0.950 . S
H1275 C1287 0.950 . S
C1276 H1268 0.950 . S
C1276 C1277 1.386 . S
C1276 C1278 1.391 1_556 S
C1277 C1276 1.386 . S
C1277 C1281 1.393 . S
C1278 H1270 0.950 . S
C1278 C1276 1.391 1_554 S
C1278 C1279 1.400 . S
C1279 C1278 1.400 . S
C1279 C1280 1.398 . S
C1279 C1285 1.491 . S
C1280 H1271 0.950 . S
C1280 C1279 1.398 . S
C1280 C1281 1.391 1_554 S
C1281 H1269 0.950 . S
C1281 C1277 1.393 . S
C1281 C1280 1.391 1_556 S
C1282 H1272 0.950 . S
C1282 C1283 1.386 . S
C1282 C1284 1.391 . S
C1283 C1282 1.386 . S
C1283 C1287 1.393 . S
C1284 H1273 0.950 . S
C1284 C1282 1.391 . S
C1284 C1285 1.400 . S
C1285 C1279 1.491 . S
C1285 C1284 1.400 . S
C1285 C1286 1.398 . S
C1286 H1274 0.950 . S
C1286 C1285 1.398 . S
C1286 C1287 1.391 . S
C1287 H1275 0.950 . S
C1287 C1283 1.393 . S
C1287 C1286 1.391 . S
H1288 C1296 0.950 . S
H1289 C1301 0.950 . S
H1290 C1298 0.950 . S
H1291 C1300 0.950 . S
H1292 C1302 0.950 . S
H1293 C1304 0.950 . S
H1294 C1306 0.950 . S
H1295 C1307 0.950 . S
C1296 H1288 0.950 . S
C1296 C1297 1.386 . S
C1296 C1298 1.391 . S
C1297 C1296 1.386 . S
C1297 C1301 1.393 . S
C1298 H1290 0.950 . S
C1298 C1296 1.391 . S
C1298 C1299 1.400 . S
C1299 C1298 1.400 . S
C1299 C1300 1.398 . S
C1299 C1305 1.491 . S
C1300 H1291 0.950 . S
C1300 C1299 1.398 . S
C1300 C1301 1.391 . S
C1301 H1289 0.950 . S
C1301 C1297 1.393 . S
C1301 C1300 1.391 . S
C1302 H1292 0.950 . S
C1302 C1303 1.386 . S
C1302 C1304 1.391 1_554 S
C1303 C1302 1.386 . S
C1303 C1307 1.393 . S
C1304 H1293 0.950 . S
C1304 C1302 1.391 1_556 S
C1304 C1305 1.400 . S
C1305 C1299 1.491 . S
C1305 C1304 1.400 . S
C1305 C1306 1.398 . S
C1306 H1294 0.950 . S
C1306 C1305 1.398 . S
C1306 C1307 1.391 1_556 S
C1307 H1295 0.950 . S
C1307 C1303 1.393 . S
C1307 C1306 1.391 1_554 S
H1308 C1316 0.950 . S
H1309 C1321 0.950 . S
H1310 C1318 0.950 . S
H1311 C1320 0.950 . S
H1312 C1322 0.950 . S
H1313 C1324 0.950 . S
H1314 C1326 0.950 . S
H1315 C1327 0.950 . S
C1316 H1308 0.950 . S
C1316 C1317 1.386 . S
C1316 C1318 1.391 . S
C1317 C1316 1.386 . S
C1317 C1321 1.393 . S
C1318 H1310 0.950 . S
C1318 C1316 1.391 . S
C1318 C1319 1.400 . S
C1319 C1318 1.400 . S
C1319 C1320 1.398 . S
C1319 C1325 1.491 . S
C1320 H1311 0.950 . S
C1320 C1319 1.398 . S
C1320 C1321 1.391 . S
C1321 H1309 0.950 . S
C1321 C1317 1.393 . S
C1321 C1320 1.391 . S
C1322 H1312 0.950 . S
C1322 C1323 1.386 . S
C1322 C1324 1.391 . S
C1323 C1322 1.386 . S
C1323 C1327 1.393 . S
C1324 H1313 0.950 . S
C1324 C1322 1.391 . S
C1324 C1325 1.400 . S
C1325 C1319 1.491 . S
C1325 C1324 1.400 . S
C1325 C1326 1.398 . S
C1326 H1314 0.950 . S
C1326 C1325 1.398 . S
C1326 C1327 1.391 . S
C1327 H1315 0.950 . S
C1327 C1323 1.393 . S
C1327 C1326 1.391 . S
H1328 C1336 0.950 . S
H1329 C1341 0.950 . S
H1330 C1338 0.950 . S
H1331 C1340 0.950 . S
H1332 C1342 0.950 . S
H1333 C1344 0.950 . S
H1334 C1346 0.950 . S
H1335 C1347 0.950 . S
C1336 H1328 0.950 . S
C1336 C1337 1.386 . S
C1336 C1338 1.391 . S
C1337 C1336 1.386 . S
C1337 C1341 1.393 . S
C1338 H1330 0.950 . S
C1338 C1336 1.391 . S
C1338 C1339 1.400 . S
C1339 C1338 1.400 . S
C1339 C1340 1.398 . S
C1339 C1345 1.491 . S
C1340 H1331 0.950 . S
C1340 C1339 1.398 . S
C1340 C1341 1.391 . S
C1341 H1329 0.950 . S
C1341 C1337 1.393 . S
C1341 C1340 1.391 . S
C1342 H1332 0.950 . S
C1342 C1343 1.386 . S
C1342 C1344 1.391 . S
C1343 C1342 1.386 . S
C1343 C1347 1.393 . S
C1344 H1333 0.950 . S
C1344 C1342 1.391 . S
C1344 C1345 1.400 . S
C1345 C1339 1.491 . S
C1345 C1344 1.400 . S
C1345 C1346 1.398 . S
C1346 H1334 0.950 . S
C1346 C1345 1.398 . S
C1346 C1347 1.391 . S
C1347 H1335 0.950 . S
C1347 C1343 1.393 . S
C1347 C1346 1.391 . S
H1348 C1356 0.950 . S
H1349 C1361 0.950 . S
H1350 C1358 0.950 . S
H1351 C1360 0.950 . S
H1352 C1362 0.950 . S
H1353 C1364 0.950 . S
H1354 C1366 0.950 . S
H1355 C1367 0.950 . S
C1356 H1348 0.950 . S
C1356 C1357 1.386 . S
C1356 C1358 1.391 . S
C1357 C1356 1.386 . S
C1357 C1361 1.393 . S
C1358 H1350 0.950 . S
C1358 C1356 1.391 . S
C1358 C1359 1.400 . S
C1359 C1358 1.400 . S
C1359 C1360 1.398 . S
C1359 C1365 1.491 . S
C1360 H1351 0.950 . S
C1360 C1359 1.398 . S
C1360 C1361 1.391 . S
C1361 H1349 0.950 . S
C1361 C1357 1.393 . S
C1361 C1360 1.391 . S
C1362 H1352 0.950 . S
C1362 C1363 1.386 . S
C1362 C1364 1.391 . S
C1363 C1362 1.386 . S
C1363 C1367 1.393 . S
C1364 H1353 0.950 . S
C1364 C1362 1.391 . S
C1364 C1365 1.400 . S
C1365 C1359 1.491 . S
C1365 C1364 1.400 . S
C1365 C1366 1.398 . S
C1366 H1354 0.950 . S
C1366 C1365 1.398 . S
C1366 C1367 1.391 . S
C1367 H1355 0.950 . S
C1367 C1363 1.393 . S
C1367 C1366 1.391 . S
H1368 C1376 0.950 . S
H1369 C1381 0.950 . S
H1370 C1378 0.950 . S
H1371 C1380 0.950 . S
H1372 C1382 0.950 . S
H1373 C1384 0.950 . S
H1374 C1386 0.950 . S
H1375 C1387 0.950 . S
C1376 H1368 0.950 . S
C1376 C1377 1.386 . S
C1376 C1378 1.391 1_556 S
C1377 C1376 1.386 . S
C1377 C1381 1.393 . S
C1378 H1370 0.950 . S
C1378 C1376 1.391 1_554 S
C1378 C1379 1.400 . S
C1379 C1378 1.400 . S
C1379 C1380 1.398 . S
C1379 C1385 1.491 . S
C1380 H1371 0.950 . S
C1380 C1379 1.398 . S
C1380 C1381 1.391 1_554 S
C1381 H1369 0.950 . S
C1381 C1377 1.393 . S
C1381 C1380 1.391 1_556 S
C1382 H1372 0.950 . S
C1382 C1383 1.386 . S
C1382 C1384 1.391 . S
C1383 C1382 1.386 . S
C1383 C1387 1.393 . S
C1384 H1373 0.950 . S
C1384 C1382 1.391 . S
C1384 C1385 1.400 . S
C1385 C1379 1.491 . S
C1385 C1384 1.400 . S
C1385 C1386 1.398 . S
C1386 H1374 0.950 . S
C1386 C1385 1.398 . S
C1386 C1387 1.391 . S
C1387 H1375 0.950 . S
C1387 C1383 1.393 . S
C1387 C1386 1.391 . S
H1388 C1396 0.950 . S
H1389 C1401 0.950 . S
H1390 C1398 0.950 . S
H1391 C1400 0.950 . S
H1392 C1402 0.950 . S
H1393 C1404 0.950 . S
H1394 C1406 0.950 . S
H1395 C1407 0.950 . S
C1396 H1388 0.950 . S
C1396 C1397 1.386 . S
C1396 C1398 1.391 1_554 S
C1397 C1396 1.386 . S
C1397 C1401 1.393 . S
C1398 H1390 0.950 . S
C1398 C1396 1.391 1_556 S
C1398 C1399 1.400 . S
C1399 C1398 1.400 . S
C1399 C1400 1.398 . S
C1399 C1405 1.491 . S
C1400 H1391 0.950 . S
C1400 C1399 1.398 . S
C1400 C1401 1.391 1_556 S
C1401 H1389 0.950 . S
C1401 C1397 1.393 . S
C1401 C1400 1.391 1_554 S
C1402 H1392 0.950 . S
C1402 C1403 1.386 . S
C1402 C1404 1.391 . S
C1403 C1402 1.386 . S
C1403 C1407 1.393 . S
C1404 H1393 0.950 . S
C1404 C1402 1.391 . S
C1404 C1405 1.400 . S
C1405 C1399 1.491 . S
C1405 C1404 1.400 . S
C1405 C1406 1.398 . S
C1406 H1394 0.950 . S
C1406 C1405 1.398 . S
C1406 C1407 1.391 . S
C1407 H1395 0.950 . S
C1407 C1403 1.393 . S
C1407 C1406 1.391 . S
H1408 C1416 0.950 . S
H1409 C1421 0.950 . S
H1410 C1418 0.950 . S
H1411 C1420 0.950 . S
H1412 C1422 0.950 . S
H1413 C1424 0.950 . S
H1414 C1426 0.950 . S
H1415 C1427 0.950 . S
C1416 H1408 0.950 . S
C1416 C1417 1.386 . S
C1416 C1418 1.391 1_556 S
C1417 C1416 1.386 . S
C1417 C1421 1.393 . S
C1418 H1410 0.950 . S
C1418 C1416 1.391 1_554 S
C1418 C1419 1.400 . S
C1419 C1418 1.400 . S
C1419 C1420 1.398 . S
C1419 C1425 1.491 . S
C1420 H1411 0.950 . S
C1420 C1419 1.398 . S
C1420 C1421 1.391 1_554 S
C1421 H1409 0.950 . S
C1421 C1417 1.393 . S
C1421 C1420 1.391 1_556 S
C1422 H1412 0.950 . S
C1422 C1423 1.386 . S
C1422 C1424 1.391 . S
C1423 C1422 1.386 . S
C1423 C1427 1.393 . S
C1424 H1413 0.950 . S
C1424 C1422 1.391 . S
C1424 C1425 1.400 . S
C1425 C1419 1.491 . S
C1425 C1424 1.400 . S
C1425 C1426 1.398 . S
C1426 H1414 0.950 . S
C1426 C1425 1.398 . S
C1426 C1427 1.391 . S
C1427 H1415 0.950 . S
C1427 C1423 1.393 . S
C1427 C1426 1.391 . S
H1428 C1436 0.950 . S
H1429 C1441 0.950 . S
H1430 C1438 0.950 . S
H1431 C1440 0.950 . S
H1432 C1442 0.950 . S
H1433 C1444 0.950 . S
H1434 C1446 0.950 . S
H1435 C1447 0.950 . S
C1436 H1428 0.950 . S
C1436 C1437 1.386 . S
C1436 C1438 1.391 . S
C1437 C1436 1.386 . S
C1437 C1441 1.393 . S
C1438 H1430 0.950 . S
C1438 C1436 1.391 . S
C1438 C1439 1.400 . S
C1439 C1438 1.400 . S
C1439 C1440 1.398 . S
C1439 C1445 1.491 . S
C1440 H1431 0.950 . S
C1440 C1439 1.398 . S
C1440 C1441 1.391 . S
C1441 H1429 0.950 . S
C1441 C1437 1.393 . S
C1441 C1440 1.391 . S
C1442 H1432 0.950 . S
C1442 C1443 1.386 . S
C1442 C1444 1.391 . S
C1443 C1442 1.386 . S
C1443 C1447 1.393 . S
C1444 H1433 0.950 . S
C1444 C1442 1.391 . S
C1444 C1445 1.400 . S
C1445 C1439 1.491 . S
C1445 C1444 1.400 . S
C1445 C1446 1.398 . S
C1446 H1434 0.950 . S
C1446 C1445 1.398 . S
C1446 C1447 1.391 . S
C1447 H1435 0.950 . S
C1447 C1443 1.393 . S
C1447 C1446 1.391 . S
H1448 C1456 0.950 . S
H1449 C1461 0.950 . S
H1450 C1458 0.950 . S
H1451 C1460 0.950 . S
H1452 C1462 0.950 . S
H1453 C1464 0.950 . S
H1454 C1466 0.950 . S
H1455 C1467 0.950 . S
C1456 H1448 0.950 . S
C1456 C1457 1.386 . S
C1456 C1458 1.391 . S
C1457 C1456 1.386 . S
C1457 C1461 1.393 . S
C1458 H1450 0.950 . S
C1458 C1456 1.391 . S
C1458 C1459 1.400 . S
C1459 C1458 1.400 . S
C1459 C1460 1.398 . S
C1459 C1465 1.491 . S
C1460 H1451 0.950 . S
C1460 C1459 1.398 . S
C1460 C1461 1.391 . S
C1461 H1449 0.950 . S
C1461 C1457 1.393 . S
C1461 C1460 1.391 . S
C1462 H1452 0.950 . S
C1462 C1463 1.386 . S
C1462 C1464 1.391 . S
C1463 C1462 1.386 . S
C1463 C1467 1.393 . S
C1464 H1453 0.950 . S
C1464 C1462 1.391 . S
C1464 C1465 1.400 . S
C1465 C1459 1.491 . S
C1465 C1464 1.400 . S
C1465 C1466 1.398 . S
C1466 H1454 0.950 . S
C1466 C1465 1.398 . S
C1466 C1467 1.391 . S
C1467 H1455 0.950 . S
C1467 C1463 1.393 . S
C1467 C1466 1.391 . S
H1468 C1476 0.950 . S
H1469 C1481 0.950 . S
H1470 C1478 0.950 . S
H1471 C1480 0.950 . S
H1472 C1482 0.950 . S
H1473 C1484 0.950 . S
H1474 C1486 0.950 . S
H1475 C1487 0.950 . S
C1476 H1468 0.950 . S
C1476 C1477 1.386 . S
C1476 C1478 1.391 . S
C1477 C1476 1.386 . S
C1477 C1481 1.393 . S
C1478 H1470 0.950 . S
C1478 C1476 1.391 . S
C1478 C1479 1.400 . S
C1479 C1478 1.400 . S
C1479 C1480 1.398 . S
C1479 C1485 1.491 . S
C1480 H1471 0.950 . S
C1480 C1479 1.398 . S
C1480 C1481 1.391 . S
C1481 H1469 0.950 . S
C1481 C1477 1.393 . S
C1481 C1480 1.391 . S
C1482 H1472 0.950 . S
C1482 C1483 1.386 . S
C1482 C1484 1.391 1_554 S
C1483 C1482 1.386 . S
C1483 C1487 1.393 . S
C1484 H1473 0.950 . S
C1484 C1482 1.391 1_556 S
C1484 C1485 1.400 . S
C1485 C1479 1.491 . S
C1485 C1484 1.400 . S
C1485 C1486 1.398 . S
C1486 H1474 0.950 . S
C1486 C1485 1.398 . S
C1486 C1487 1.391 1_556 S
C1487 H1475 0.950 . S
C1487 C1483 1.393 . S
C1487 C1486 1.391 1_554 S
H1488 C1496 0.950 . S
H1489 C1501 0.950 . S
H1490 C1498 0.950 . S
H1491 C1500 0.950 . S
H1492 C1502 0.950 . S
H1493 C1504 0.950 . S
H1494 C1506 0.950 . S
H1495 C1507 0.950 . S
C1496 H1488 0.950 . S
C1496 C1497 1.386 . S
C1496 C1498 1.391 1_554 S
C1497 C1496 1.386 . S
C1497 C1501 1.393 . S
C1498 H1490 0.950 . S
C1498 C1496 1.391 1_556 S
C1498 C1499 1.400 . S
C1499 C1498 1.400 . S
C1499 C1500 1.398 . S
C1499 C1505 1.491 . S
C1500 H1491 0.950 . S
C1500 C1499 1.398 . S
C1500 C1501 1.391 1_556 S
C1501 H1489 0.950 . S
C1501 C1497 1.393 . S
C1501 C1500 1.391 1_554 S
C1502 H1492 0.950 . S
C1502 C1503 1.386 . S
C1502 C1504 1.391 . S
C1503 C1502 1.386 . S
C1503 C1507 1.393 . S
C1504 H1493 0.950 . S
C1504 C1502 1.391 . S
C1504 C1505 1.400 . S
C1505 C1499 1.491 . S
C1505 C1504 1.400 . S
C1505 C1506 1.398 . S
C1506 H1494 0.950 . S
C1506 C1505 1.398 . S
C1506 C1507 1.391 . S
C1507 H1495 0.950 . S
C1507 C1503 1.393 . S
C1507 C1506 1.391 . S
H1508 C1516 0.950 . S
H1509 C1521 0.950 . S
H1510 C1518 0.950 . S
H1511 C1520 0.950 . S
H1512 C1522 0.950 . S
H1513 C1524 0.950 . S
H1514 C1526 0.950 . S
H1515 C1527 0.950 . S
C1516 H1508 0.950 . S
C1516 C1517 1.386 . S
C1516 C1518 1.391 . S
C1517 C1516 1.386 . S
C1517 C1521 1.393 . S
C1518 H1510 0.950 . S
C1518 C1516 1.391 . S
C1518 C1519 1.400 . S
C1519 C1518 1.400 . S
C1519 C1520 1.398 . S
C1519 C1525 1.491 . S
C1520 H1511 0.950 . S
C1520 C1519 1.398 . S
C1520 C1521 1.391 . S
C1521 H1509 0.950 . S
C1521 C1517 1.393 . S
C1521 C1520 1.391 . S
C1522 H1512 0.950 . S
C1522 C1523 1.386 . S
C1522 C1524 1.391 1_556 S
C1523 C1522 1.386 . S
C1523 C1527 1.393 . S
C1524 H1513 0.950 . S
C1524 C1522 1.391 1_554 S
C1524 C1525 1.400 . S
C1525 C1519 1.491 . S
C1525 C1524 1.400 . S
C1525 C1526 1.398 . S
C1526 H1514 0.950 . S
C1526 C1525 1.398 . S
C1526 C1527 1.391 1_554 S
C1527 H1515 0.950 . S
C1527 C1523 1.393 . S
C1527 C1526 1.391 1_556 S
H1528 C1536 0.950 . S
H1529 C1541 0.950 . S
H1530 C1538 0.950 . S
H1531 C1540 0.950 . S
H1532 C1542 0.950 . S
H1533 C1544 0.950 . S
H1534 C1546 0.950 . S
H1535 C1547 0.950 . S
C1536 H1528 0.950 . S
C1536 C1537 1.386 . S
C1536 C1538 1.391 . S
C1537 C1536 1.386 . S
C1537 C1541 1.393 . S
C1538 H1530 0.950 . S
C1538 C1536 1.391 . S
C1538 C1539 1.400 . S
C1539 C1538 1.400 . S
C1539 C1540 1.398 . S
C1539 C1545 1.491 . S
C1540 H1531 0.950 . S
C1540 C1539 1.398 . S
C1540 C1541 1.391 . S
C1541 H1529 0.950 . S
C1541 C1537 1.393 . S
C1541 C1540 1.391 . S
C1542 H1532 0.950 . S
C1542 C1543 1.386 . S
C1542 C1544 1.391 . S
C1543 C1542 1.386 . S
C1543 C1547 1.393 . S
C1544 H1533 0.950 . S
C1544 C1542 1.391 . S
C1544 C1545 1.400 . S
C1545 C1539 1.491 . S
C1545 C1544 1.400 . S
C1545 C1546 1.398 . S
C1546 H1534 0.950 . S
C1546 C1545 1.398 . S
C1546 C1547 1.391 . S
C1547 H1535 0.950 . S
C1547 C1543 1.393 . S
C1547 C1546 1.391 . S
H1548 C1556 0.950 . S
H1549 C1561 0.950 . S
H1550 C1558 0.950 . S
H1551 C1560 0.950 . S
H1552 C1562 0.950 . S
H1553 C1564 0.950 . S
H1554 C1566 0.950 . S
H1555 C1567 0.950 . S
C1556 H1548 0.950 . S
C1556 C1557 1.386 . S
C1556 C1558 1.391 . S
C1557 C1556 1.386 . S
C1557 C1561 1.393 . S
C1558 H1550 0.950 . S
C1558 C1556 1.391 . S
C1558 C1559 1.400 . S
C1559 C1558 1.400 . S
C1559 C1560 1.398 . S
C1559 C1565 1.491 . S
C1560 H1551 0.950 . S
C1560 C1559 1.398 . S
C1560 C1561 1.391 . S
C1561 H1549 0.950 . S
C1561 C1557 1.393 . S
C1561 C1560 1.391 . S
C1562 H1552 0.950 . S
C1562 C1563 1.386 . S
C1562 C1564 1.391 . S
C1563 C1562 1.386 . S
C1563 C1567 1.393 . S
C1564 H1553 0.950 . S
C1564 C1562 1.391 . S
C1564 C1565 1.400 . S
C1565 C1559 1.491 . S
C1565 C1564 1.400 . S
C1565 C1566 1.398 . S
C1566 H1554 0.950 . S
C1566 C1565 1.398 . S
C1566 C1567 1.391 . S
C1567 H1555 0.950 . S
C1567 C1563 1.393 . S
C1567 C1566 1.391 . S
H1568 C1576 0.950 . S
H1569 C1581 0.950 . S
H1570 C1578 0.950 . S
H1571 C1580 0.950 . S
H1572 C1582 0.950 . S
H1573 C1584 0.950 . S
H1574 C1586 0.950 . S
H1575 C1587 0.950 . S
C1576 H1568 0.950 . S
C1576 C1577 1.386 . S
C1576 C1578 1.391 1_554 S
C1577 C1576 1.386 . S
C1577 C1581 1.393 . S
C1578 H1570 0.950 . S
C1578 C1576 1.391 1_556 S
C1578 C1579 1.400 . S
C1579 C1578 1.400 . S
C1579 C1580 1.398 . S
C1579 C1585 1.491 . S
C1580 H1571 0.950 . S
C1580 C1579 1.398 . S
C1580 C1581 1.391 1_556 S
C1581 H1569 0.950 . S
C1581 C1577 1.393 . S
C1581 C1580 1.391 1_554 S
C1582 H1572 0.950 . S
C1582 C1583 1.386 . S
C1582 C1584 1.391 . S
C1583 C1582 1.386 . S
C1583 C1587 1.393 . S
C1584 H1573 0.950 . S
C1584 C1582 1.391 . S
C1584 C1585 1.400 . S
C1585 C1579 1.491 . S
C1585 C1584 1.400 . S
C1585 C1586 1.398 . S
C1586 H1574 0.950 . S
C1586 C1585 1.398 . S
C1586 C1587 1.391 . S
C1587 H1575 0.950 . S
C1587 C1583 1.393 . S
C1587 C1586 1.391 . S
H1588 C1596 0.950 . S
H1589 C1601 0.950 . S
H1590 C1598 0.950 . S
H1591 C1600 0.950 . S
H1592 C1602 0.950 . S
H1593 C1604 0.950 . S
H1594 C1606 0.950 . S
H1595 C1607 0.950 . S
C1596 H1588 0.950 . S
C1596 C1597 1.386 . S
C1596 C1598 1.391 . S
C1597 C1596 1.386 . S
C1597 C1601 1.393 . S
C1598 H1590 0.950 . S
C1598 C1596 1.391 . S
C1598 C1599 1.400 . S
C1599 C1598 1.400 . S
C1599 C1600 1.398 . S
C1599 C1605 1.491 . S
C1600 H1591 0.950 . S
C1600 C1599 1.398 . S
C1600 C1601 1.391 . S
C1601 H1589 0.950 . S
C1601 C1597 1.393 . S
C1601 C1600 1.391 . S
C1602 H1592 0.950 . S
C1602 C1603 1.386 . S
C1602 C1604 1.391 . S
C1603 C1602 1.386 . S
C1603 C1607 1.393 . S
C1604 H1593 0.950 . S
C1604 C1602 1.391 . S
C1604 C1605 1.400 . S
C1605 C1599 1.491 . S
C1605 C1604 1.400 . S
C1605 C1606 1.398 . S
C1606 H1594 0.950 . S
C1606 C1605 1.398 . S
C1606 C1607 1.391 . S
C1607 H1595 0.950 . S
C1607 C1603 1.393 . S
C1607 C1606 1.391 . S
H1608 C1616 0.950 . S
H1609 C1621 0.950 . S
H1610 C1618 0.950 . S
H1611 C1620 0.950 . S
H1612 C1622 0.950 . S
H1613 C1624 0.950 . S
H1614 C1626 0.950 . S
H1615 C1627 0.950 . S
C1616 H1608 0.950 . S
C1616 C1617 1.386 . S
C1616 C1618 1.391 . S
C1617 C1616 1.386 . S
C1617 C1621 1.393 . S
C1618 H1610 0.950 . S
C1618 C1616 1.391 . S
C1618 C1619 1.400 . S
C1619 C1618 1.400 . S
C1619 C1620 1.398 . S
C1619 C1625 1.491 . S
C1620 H1611 0.950 . S
C1620 C1619 1.398 . S
C1620 C1621 1.391 . S
C1621 H1609 0.950 . S
C1621 C1617 1.393 . S
C1621 C1620 1.391 . S
C1622 H1612 0.950 . S
C1622 C1623 1.386 . S
C1622 C1624 1.391 . S
C1623 C1622 1.386 . S
C1623 C1627 1.393 . S
C1624 H1613 0.950 . S
C1624 C1622 1.391 . S
C1624 C1625 1.400 . S
C1625 C1619 1.491 . S
C1625 C1624 1.400 . S
C1625 C1626 1.398 . S
C1626 H1614 0.950 . S
C1626 C1625 1.398 . S
C1626 C1627 1.391 . S
C1627 H1615 0.950 . S
C1627 C1623 1.393 . S
C1627 C1626 1.391 . S
H1628 C1636 0.950 . S
H1629 C1641 0.950 . S
H1630 C1638 0.950 . S
H1631 C1640 0.950 . S
H1632 C1642 0.950 . S
H1633 C1644 0.950 . S
H1634 C1646 0.950 . S
H1635 C1647 0.950 . S
C1636 H1628 0.950 . S
C1636 C1637 1.386 . S
C1636 C1638 1.391 1_556 S
C1637 C1636 1.386 . S
C1637 C1641 1.393 . S
C1638 H1630 0.950 . S
C1638 C1636 1.391 1_554 S
C1638 C1639 1.400 . S
C1639 C1638 1.400 . S
C1639 C1640 1.398 . S
C1639 C1645 1.491 . S
C1640 H1631 0.950 . S
C1640 C1639 1.398 . S
C1640 C1641 1.391 1_554 S
C1641 H1629 0.950 . S
C1641 C1637 1.393 . S
C1641 C1640 1.391 1_556 S
C1642 H1632 0.950 . S
C1642 C1643 1.386 . S
C1642 C1644 1.391 . S
C1643 C1642 1.386 . S
C1643 C1647 1.393 . S
C1644 H1633 0.950 . S
C1644 C1642 1.391 . S
C1644 C1645 1.400 . S
C1645 C1639 1.491 . S
C1645 C1644 1.400 . S
C1645 C1646 1.398 . S
C1646 H1634 0.950 . S
C1646 C1645 1.398 . S
C1646 C1647 1.391 . S
C1647 H1635 0.950 . S
C1647 C1643 1.393 . S
C1647 C1646 1.391 . S
H1648 C1656 0.950 . S
H1649 C1661 0.950 . S
H1650 C1658 0.950 . S
H1651 C1660 0.950 . S
H1652 C1662 0.950 . S
H1653 C1664 0.950 . S
H1654 C1666 0.950 . S
H1655 C1667 0.950 . S
C1656 H1648 0.950 . S
C1656 C1657 1.386 . S
C1656 C1658 1.391 . S
C1657 C1656 1.386 . S
C1657 C1661 1.393 . S
C1658 H1650 0.950 . S
C1658 C1656 1.391 . S
C1658 C1659 1.400 . S
C1659 C1658 1.400 . S
C1659 C1660 1.398 . S
C1659 C1665 1.491 . S
C1660 H1651 0.950 . S
C1660 C1659 1.398 . S
C1660 C1661 1.391 . S
C1661 H1649 0.950 . S
C1661 C1657 1.393 . S
C1661 C1660 1.391 . S
C1662 H1652 0.950 . S
C1662 C1663 1.386 . S
C1662 C1664 1.391 1_556 S
C1663 C1662 1.386 . S
C1663 C1667 1.393 . S
C1664 H1653 0.950 . S
C1664 C1662 1.391 1_554 S
C1664 C1665 1.400 . S
C1665 C1659 1.491 . S
C1665 C1664 1.400 . S
C1665 C1666 1.398 . S
C1666 H1654 0.950 . S
C1666 C1665 1.398 . S
C1666 C1667 1.391 1_554 S
C1667 H1655 0.950 . S
C1667 C1663 1.393 . S
C1667 C1666 1.391 1_556 S
H1668 C1676 0.950 . S
H1669 C1681 0.950 . S
H1670 C1678 0.950 . S
H1671 C1680 0.950 . S
H1672 C1682 0.950 . S
H1673 C1684 0.950 . S
H1674 C1686 0.950 . S
H1675 C1687 0.950 . S
C1676 H1668 0.950 . S
C1676 C1677 1.386 . S
C1676 C1678 1.391 1_554 S
C1677 C1676 1.386 . S
C1677 C1681 1.393 . S
C1678 H1670 0.950 . S
C1678 C1676 1.391 1_556 S
C1678 C1679 1.400 . S
C1679 C1678 1.400 . S
C1679 C1680 1.398 . S
C1679 C1685 1.491 . S
C1680 H1671 0.950 . S
C1680 C1679 1.398 . S
C1680 C1681 1.391 1_556 S
C1681 H1669 0.950 . S
C1681 C1677 1.393 . S
C1681 C1680 1.391 1_554 S
C1682 H1672 0.950 . S
C1682 C1683 1.386 . S
C1682 C1684 1.391 . S
C1683 C1682 1.386 . S
C1683 C1687 1.393 . S
C1684 H1673 0.950 . S
C1684 C1682 1.391 . S
C1684 C1685 1.400 . S
C1685 C1679 1.491 . S
C1685 C1684 1.400 . S
C1685 C1686 1.398 . S
C1686 H1674 0.950 . S
C1686 C1685 1.398 . S
C1686 C1687 1.391 . S
C1687 H1675 0.950 . S
C1687 C1683 1.393 . S
C1687 C1686 1.391 . S
H1688 C1696 0.950 . S
H1689 C1701 0.950 . S
H1690 C1698 0.950 . S
H1691 C1700 0.950 . S
H1692 C1702 0.950 . S
H1693 C1704 0.950 . S
H1694 C1706 0.950 . S
H1695 C1707 0.950 . S
C1696 H1688 0.950 . S
C1696 C1697 1.386 . S
C1696 C1698 1.391 . S
C1697 C1696 1.386 . S
C1697 C1701 1.393 . S
C1698 H1690 0.950 . S
C1698 C1696 1.391 . S
C1698 C1699 1.400 . S
C1699 C1698 1.400 . S
C1699 C1700 1.398 . S
C1699 C1705 1.491 . S
C1700 H1691 0.950 . S
C1700 C1699 1.398 . S
C1700 C1701 1.391 . S
C1701 H1689 0.950 . S
C1701 C1697 1.393 . S
C1701 C1700 1.391 . S
C1702 H1692 0.950 . S
C1702 C1703 1.386 . S
C1702 C1704 1.391 . S
C1703 C1702 1.386 . S
C1703 C1707 1.393 . S
C1704 H1693 0.950 . S
C1704 C1702 1.391 . S
C1704 C1705 1.400 . S
C1705 C1699 1.491 . S
C1705 C1704 1.400 . S
C1705 C1706 1.398 . S
C1706 H1694 0.950 . S
C1706 C1705 1.398 . S
C1706 C1707 1.391 . S
C1707 H1695 0.950 . S
C1707 C1703 1.393 . S
C1707 C1706 1.391 . S
H1708 C1716 0.950 . S
H1709 C1721 0.950 . S
H1710 C1718 0.950 . S
H1711 C1720 0.950 . S
H1712 C1722 0.950 . S
H1713 C1724 0.950 . S
H1714 C1726 0.950 . S
H1715 C1727 0.950 . S
C1716 H1708 0.950 . S
C1716 C1717 1.386 . S
C1716 C1718 1.391 . S
C1717 C1716 1.386 . S
C1717 C1721 1.393 . S
C1718 H1710 0.950 . S
C1718 C1716 1.391 . S
C1718 C1719 1.400 . S
C1719 C1718 1.400 . S
C1719 C1720 1.398 . S
C1719 C1725 1.491 . S
C1720 H1711 0.950 . S
C1720 C1719 1.398 . S
C1720 C1721 1.391 . S
C1721 H1709 0.950 . S
C1721 C1717 1.393 . S
C1721 C1720 1.391 . S
C1722 H1712 0.950 . S
C1722 C1723 1.386 . S
C1722 C1724 1.391 . S
C1723 C1722 1.386 . S
C1723 C1727 1.393 . S
C1724 H1713 0.950 . S
C1724 C1722 1.391 . S
C1724 C1725 1.400 . S
C1725 C1719 1.491 . S
C1725 C1724 1.400 . S
C1725 C1726 1.398 . S
C1726 H1714 0.950 . S
C1726 C1725 1.398 . S
C1726 C1727 1.391 . S
C1727 H1715 0.950 . S
C1727 C1723 1.393 . S
C1727 C1726 1.391 . S
H1728 C1736 0.950 . S
H1729 C1741 0.950 . S
H1730 C1738 0.950 . S
H1731 C1740 0.950 . S
H1732 C1742 0.950 . S
H1733 C1744 0.950 . S
H1734 C1746 0.950 . S
H1735 C1747 0.950 . S
C1736 H1728 0.950 . S
C1736 C1737 1.386 . S
C1736 C1738 1.391 . S
C1737 C1736 1.386 . S
C1737 C1741 1.393 . S
C1738 H1730 0.950 . S
C1738 C1736 1.391 . S
C1738 C1739 1.400 . S
C1739 C1738 1.400 . S
C1739 C1740 1.398 . S
C1739 C1745 1.491 . S
C1740 H1731 0.950 . S
C1740 C1739 1.398 . S
C1740 C1741 1.391 . S
C1741 H1729 0.950 . S
C1741 C1737 1.393 . S
C1741 C1740 1.391 . S
C1742 H1732 0.950 . S
C1742 C1743 1.386 . S
C1742 C1744 1.391 . S
C1743 C1742 1.386 . S
C1743 C1747 1.393 . S
C1744 H1733 0.950 . S
C1744 C1742 1.391 . S
C1744 C1745 1.400 . S
C1745 C1739 1.491 . S
C1745 C1744 1.400 . S
C1745 C1746 1.398 . S
C1746 H1734 0.950 . S
C1746 C1745 1.398 . S
C1746 C1747 1.391 . S
C1747 H1735 0.950 . S
C1747 C1743 1.393 . S
C1747 C1746 1.391 . S
H1748 C1756 0.950 . S
H1749 C1761 0.950 . S
H1750 C1758 0.950 . S
H1751 C1760 0.950 . S
H1752 C1762 0.950 . S
H1753 C1764 0.950 . S
H1754 C1766 0.950 . S
H1755 C1767 0.950 . S
C1756 H1748 0.950 . S
C1756 C1757 1.386 . S
C1756 C1758 1.391 . S
C1757 C1756 1.386 . S
C1757 C1761 1.393 . S
C1758 H1750 0.950 . S
C1758 C1756 1.391 . S
C1758 C1759 1.400 . S
C1759 C1758 1.400 . S
C1759 C1760 1.398 . S
C1759 C1765 1.491 . S
C1760 H1751 0.950 . S
C1760 C1759 1.398 . S
C1760 C1761 1.391 . S
C1761 H1749 0.950 . S
C1761 C1757 1.393 . S
C1761 C1760 1.391 . S
C1762 H1752 0.950 . S
C1762 C1763 1.386 . S
C1762 C1764 1.391 . S
C1763 C1762 1.386 . S
C1763 C1767 1.393 . S
C1764 H1753 0.950 . S
C1764 C1762 1.391 . S
C1764 C1765 1.400 . S
C1765 C1759 1.491 . S
C1765 C1764 1.400 . S
C1765 C1766 1.398 . S
C1766 H1754 0.950 . S
C1766 C1765 1.398 . S
C1766 C1767 1.391 . S
C1767 H1755 0.950 . S
C1767 C1763 1.393 . S
C1767 C1766 1.391 . S
H1768 C1776 0.950 . S
H1769 C1781 0.950 . S
H1770 C1778 0.950 . S
H1771 C1780 0.950 . S
H1772 C1782 0.950 . S
H1773 C1784 0.950 . S
H1774 C1786 0.950 . S
H1775 C1787 0.950 . S
C1776 H1768 0.950 . S
C1776 C1777 1.386 . S
C1776 C1778 1.391 . S
C1777 C1776 1.386 . S
C1777 C1781 1.393 . S
C1778 H1770 0.950 . S
C1778 C1776 1.391 . S
C1778 C1779 1.400 . S
C1779 C1778 1.400 . S
C1779 C1780 1.398 . S
C1779 C1785 1.491 . S
C1780 H1771 0.950 . S
C1780 C1779 1.398 . S
C1780 C1781 1.391 . S
C1781 H1769 0.950 . S
C1781 C1777 1.393 . S
C1781 C1780 1.391 . S
C1782 H1772 0.950 . S
C1782 C1783 1.386 . S
C1782 C1784 1.391 . S
C1783 C1782 1.386 . S
C1783 C1787 1.393 . S
C1784 H1773 0.950 . S
C1784 C1782 1.391 . S
C1784 C1785 1.400 . S
C1785 C1779 1.491 . S
C1785 C1784 1.400 . S
C1785 C1786 1.398 . S
C1786 H1774 0.950 . S
C1786 C1785 1.398 . S
C1786 C1787 1.391 . S
C1787 H1775 0.950 . S
C1787 C1783 1.393 . S
C1787 C1786 1.391 . S
H1788 C1796 0.950 . S
H1789 C1801 0.950 . S
H1790 C1798 0.950 . S
H1791 C1800 0.950 . S
H1792 C1802 0.950 . S
H1793 C1804 0.950 . S
H1794 C1806 0.950 . S
H1795 C1807 0.950 . S
C1796 H1788 0.950 . S
C1796 C1797 1.386 . S
C1796 C1798 1.391 . S
C1797 C1796 1.386 . S
C1797 C1801 1.393 . S
C1798 H1790 0.950 . S
C1798 C1796 1.391 . S
C1798 C1799 1.400 . S
C1799 C1798 1.400 . S
C1799 C1800 1.398 . S
C1799 C1805 1.491 . S
C1800 H1791 0.950 . S
C1800 C1799 1.398 . S
C1800 C1801 1.391 . S
C1801 H1789 0.950 . S
C1801 C1797 1.393 . S
C1801 C1800 1.391 . S
C1802 H1792 0.950 . S
C1802 C1803 1.386 . S
C1802 C1804 1.391 . S
C1803 C1802 1.386 . S
C1803 C1807 1.393 . S
C1804 H1793 0.950 . S
C1804 C1802 1.391 . S
C1804 C1805 1.400 . S
C1805 C1799 1.491 . S
C1805 C1804 1.400 . S
C1805 C1806 1.398 . S
C1806 H1794 0.950 . S
C1806 C1805 1.398 . S
C1806 C1807 1.391 . S
C1807 H1795 0.950 . S
C1807 C1803 1.393 . S
C1807 C1806 1.391 . S
H1808 C1816 0.950 . S
H1809 C1821 0.950 . S
H1810 C1818 0.950 . S
H1811 C1820 0.950 . S
H1812 C1822 0.950 . S
H1813 C1824 0.950 . S
H1814 C1826 0.950 . S
H1815 C1827 0.950 . S
C1816 H1808 0.950 . S
C1816 C1817 1.386 . S
C1816 C1818 1.391 . S
C1817 C1816 1.386 . S
C1817 C1821 1.393 . S
C1818 H1810 0.950 . S
C1818 C1816 1.391 . S
C1818 C1819 1.400 . S
C1819 C1818 1.400 . S
C1819 C1820 1.398 . S
C1819 C1825 1.491 . S
C1820 H1811 0.950 . S
C1820 C1819 1.398 . S
C1820 C1821 1.391 . S
C1821 H1809 0.950 . S
C1821 C1817 1.393 . S
C1821 C1820 1.391 . S
C1822 H1812 0.950 . S
C1822 C1823 1.386 . S
C1822 C1824 1.391 . S
C1823 C1822 1.386 . S
C1823 C1827 1.393 . S
C1824 H1813 0.950 . S
C1824 C1822 1.391 . S
C1824 C1825 1.400 . S
C1825 C1819 1.491 . S
C1825 C1824 1.400 . S
C1825 C1826 1.398 . S
C1826 H1814 0.950 . S
C1826 C1825 1.398 . S
C1826 C1827 1.391 . S
C1827 H1815 0.950 . S
C1827 C1823 1.393 . S
C1827 C1826 1.391 . S
H1828 C1836 0.950 . S
H1829 C1841 0.950 . S
H1830 C1838 0.950 . S
H1831 C1840 0.950 . S
H1832 C1842 0.950 . S
H1833 C1844 0.950 . S
H1834 C1846 0.950 . S
H1835 C1847 0.950 . S
C1836 H1828 0.950 . S
C1836 C1837 1.386 . S
C1836 C1838 1.391 . S
C1837 C1836 1.386 . S
C1837 C1841 1.393 . S
C1838 H1830 0.950 . S
C1838 C1836 1.391 . S
C1838 C1839 1.400 . S
C1839 C1838 1.400 . S
C1839 C1840 1.398 . S
C1839 C1845 1.491 . S
C1840 H1831 0.950 . S
C1840 C1839 1.398 . S
C1840 C1841 1.391 . S
C1841 H1829 0.950 . S
C1841 C1837 1.393 . S
C1841 C1840 1.391 . S
C1842 H1832 0.950 . S
C1842 C1843 1.386 . S
C1842 C1844 1.391 . S
C1843 C1842 1.386 . S
C1843 C1847 1.393 . S
C1844 H1833 0.950 . S
C1844 C1842 1.391 . S
C1844 C1845 1.400 . S
C1845 C1839 1.491 . S
C1845 C1844 1.400 . S
C1845 C1846 1.398 . S
C1846 H1834 0.950 . S
C1846 C1845 1.398 . S
C1846 C1847 1.391 . S
C1847 H1835 0.950 . S
C1847 C1843 1.393 . S
C1847 C1846 1.391 . S
H1848 C1856 0.950 . S
H1849 C1861 0.950 . S
H1850 C1858 0.950 . S
H1851 C1860 0.950 . S
H1852 C1862 0.950 . S
H1853 C1864 0.950 . S
H1854 C1866 0.950 . S
H1855 C1867 0.950 . S
C1856 H1848 0.950 . S
C1856 C1857 1.386 . S
C1856 C1858 1.391 . S
C1857 C1856 1.386 . S
C1857 C1861 1.393 . S
C1858 H1850 0.950 . S
C1858 C1856 1.391 . S
C1858 C1859 1.400 . S
C1859 C1858 1.400 . S
C1859 C1860 1.398 . S
C1859 C1865 1.491 . S
C1860 H1851 0.950 . S
C1860 C1859 1.398 . S
C1860 C1861 1.391 . S
C1861 H1849 0.950 . S
C1861 C1857 1.393 . S
C1861 C1860 1.391 . S
C1862 H1852 0.950 . S
C1862 C1863 1.386 . S
C1862 C1864 1.391 . S
C1863 C1862 1.386 . S
C1863 C1867 1.393 . S
C1864 H1853 0.950 . S
C1864 C1862 1.391 . S
C1864 C1865 1.400 . S
C1865 C1859 1.491 . S
C1865 C1864 1.400 . S
C1865 C1866 1.398 . S
C1866 H1854 0.950 . S
C1866 C1865 1.398 . S
C1866 C1867 1.391 . S
C1867 H1855 0.950 . S
C1867 C1863 1.393 . S
C1867 C1866 1.391 . S
H1868 C1876 0.950 . S
H1869 C1881 0.950 . S
H1870 C1878 0.950 . S
H1871 C1880 0.950 . S
H1872 C1882 0.950 . S
H1873 C1884 0.950 . S
H1874 C1886 0.950 . S
H1875 C1887 0.950 . S
C1876 H1868 0.950 . S
C1876 C1877 1.386 . S
C1876 C1878 1.391 . S
C1877 C1876 1.386 . S
C1877 C1881 1.393 . S
C1878 H1870 0.950 . S
C1878 C1876 1.391 . S
C1878 C1879 1.400 . S
C1879 C1878 1.400 . S
C1879 C1880 1.398 . S
C1879 C1885 1.491 . S
C1880 H1871 0.950 . S
C1880 C1879 1.398 . S
C1880 C1881 1.391 . S
C1881 H1869 0.950 . S
C1881 C1877 1.393 . S
C1881 C1880 1.391 . S
C1882 H1872 0.950 . S
C1882 C1883 1.386 . S
C1882 C1884 1.391 . S
C1883 C1882 1.386 . S
C1883 C1887 1.393 . S
C1884 H1873 0.950 . S
C1884 C1882 1.391 . S
C1884 C1885 1.400 . S
C1885 C1879 1.491 . S
C1885 C1884 1.400 . S
C1885 C1886 1.398 . S
C1886 H1874 0.950 . S
C1886 C1885 1.398 . S
C1886 C1887 1.391 . S
C1887 H1875 0.950 . S
C1887 C1883 1.393 . S
C1887 C1886 1.391 . S
H1888 C1896 0.950 . S
H1889 C1901 0.950 . S
H1890 C1898 0.950 . S
H1891 C1900 0.950 . S
H1892 C1902 0.950 . S
H1893 C1904 0.950 . S
H1894 C1906 0.950 . S
H1895 C1907 0.950 . S
C1896 H1888 0.950 . S
C1896 C1897 1.386 . S
C1896 C1898 1.391 . S
C1897 C1896 1.386 . S
C1897 C1901 1.393 . S
C1898 H1890 0.950 . S
C1898 C1896 1.391 . S
C1898 C1899 1.400 . S
C1899 C1898 1.400 . S
C1899 C1900 1.398 . S
C1899 C1905 1.491 . S
C1900 H1891 0.950 . S
C1900 C1899 1.398 . S
C1900 C1901 1.391 . S
C1901 H1889 0.950 . S
C1901 C1897 1.393 . S
C1901 C1900 1.391 . S
C1902 H1892 0.950 . S
C1902 C1903 1.386 . S
C1902 C1904 1.391 . S
C1903 C1902 1.386 . S
C1903 C1907 1.393 . S
C1904 H1893 0.950 . S
C1904 C1902 1.391 . S
C1904 C1905 1.400 . S
C1905 C1899 1.491 . S
C1905 C1904 1.400 . S
C1905 C1906 1.398 . S
C1906 H1894 0.950 . S
C1906 C1905 1.398 . S
C1906 C1907 1.391 . S
C1907 H1895 0.950 . S
C1907 C1903 1.393 . S
C1907 C1906 1.391 . S
H1908 C1916 0.950 . S
H1909 C1921 0.950 . S
H1910 C1918 0.950 . S
H1911 C1920 0.950 . S
H1912 C1922 0.950 . S
H1913 C1924 0.950 . S
H1914 C1926 0.950 . S
H1915 C1927 0.950 . S
C1916 H1908 0.950 . S
C1916 C1917 1.386 . S
C1916 C1918 1.391 . S
C1917 C1916 1.386 . S
C1917 C1921 1.393 . S
C1918 H1910 0.950 . S
C1918 C1916 1.391 . S
C1918 C1919 1.400 . S
C1919 C1918 1.400 . S
C1919 C1920 1.398 . S
C1919 C1925 1.491 . S
C1920 H1911 0.950 . S
C1920 C1919 1.398 . S
C1920 C1921 1.391 . S
C1921 H1909 0.950 . S
C1921 C1917 1.393 . S
C1921 C1920 1.391 . S
C1922 H1912 0.950 . S
C1922 C1923 1.386 . S
C1922 C1924 1.391 . S
C1923 C1922 1.386 . S
C1923 C1927 1.393 . S
C1924 H1913 0.950 . S
C1924 C1922 1.391 . S
C1924 C1925 1.400 . S
C1925 C1919 1.491 . S
C1925 C1924 1.400 . S
C1925 C1926 1.398 . S
C1926 H1914 0.950 . S
C1926 C1925 1.398 . S
C1926 C1927 1.391 . S
C1927 H1915 0.950 . S
C1927 C1923 1.393 . S
C1927 C1926 1.391 . S
H1928 C1936 0.950 . S
H1929 C1941 0.950 . S
H1930 C1938 0.950 . S
H1931 C1940 0.950 . S
H1932 C1942 0.950 . S
H1933 C1944 0.950 . S
H1934 C1946 0.950 . S
H1935 C1947 0.950 . S
C1936 H1928 0.950 . S
C1936 C1937 1.386 . S
C1936 C1938 1.391 . S
C1937 C1936 1.386 . S
C1937 C1941 1.393 . S
C1938 H1930 0.950 . S
C1938 C1936 1.391 . S
C1938 C1939 1.400 . S
C1939 C1938 1.400 . S
C1939 C1940 1.398 . S
C1939 C1945 1.491 . S
C1940 H1931 0.950 . S
C1940 C1939 1.398 . S
C1940 C1941 1.391 . S
C1941 H1929 0.950 . S
C1941 C1937 1.393 . S
C1941 C1940 1.391 . S
C1942 H1932 0.950 . S
C1942 C1943 1.386 . S
C1942 C1944 1.391 . S
C1943 C1942 1.386 . S
C1943 C1947 1.393 . S
C1944 H1933 0.950 . S
C1944 C1942 1.391 . S
C1944 C1945 1.400 . S
C1945 C1939 1.491 . S
C1945 C1944 1.400 . S
C1945 C1946 1.398 . S
C1946 H1934 0.950 . S
C1946 C1945 1.398 . S
C1946 C1947 1.391 . S
C1947 H1935 0.950 . S
C1947 C1943 1.393 . S
C1947 C1946 1.391 . S
H1948 C1956 0.950 . S
H1949 C1961 0.950 . S
H1950 C1958 0.950 . S
H1951 C1960 0.950 . S
H1952 C1962 0.950 . S
H1953 C1964 0.950 . S
H1954 C1966 0.950 . S
H1955 C1967 0.950 . S
C1956 H1948 0.950 . S
C1956 C1957 1.386 . S
C1956 C1958 1.391 . S
C1957 C1956 1.386 . S
C1957 C1961 1.393 . S
C1958 H1950 0.950 . S
C1958 C1956 1.391 . S
C1958 C1959 1.400 . S
C1959 C1958 1.400 . S
C1959 C1960 1.398 . S
C1959 C1965 1.491 . S
C1960 H1951 0.950 . S
C1960 C1959 1.398 . S
C1960 C1961 1.391 . S
C1961 H1949 0.950 . S
C1961 C1957 1.393 . S
C1961 C1960 1.391 . S
C1962 H1952 0.950 . S
C1962 C1963 1.386 . S
C1962 C1964 1.391 . S
C1963 C1962 1.386 . S
C1963 C1967 1.393 . S
C1964 H1953 0.950 . S
C1964 C1962 1.391 . S
C1964 C1965 1.400 . S
C1965 C1959 1.491 . S
C1965 C1964 1.400 . S
C1965 C1966 1.398 . S
C1966 H1954 0.950 . S
C1966 C1965 1.398 . S
C1966 C1967 1.391 . S
C1967 H1955 0.950 . S
C1967 C1963 1.393 . S
C1967 C1966 1.391 . S
H1968 C1976 0.950 . S
H1969 C1981 0.950 . S
H1970 C1978 0.950 . S
H1971 C1980 0.950 . S
H1972 C1982 0.950 . S
H1973 C1984 0.950 . S
H1974 C1986 0.950 . S
H1975 C1987 0.950 . S
C1976 H1968 0.950 . S
C1976 C1977 1.386 . S
C1976 C1978 1.391 . S
C1977 C1976 1.386 . S
C1977 C1981 1.393 . S
C1978 H1970 0.950 . S
C1978 C1976 1.391 . S
C1978 C1979 1.400 . S
C1979 C1978 1.400 . S
C1979 C1980 1.398 . S
C1979 C1985 1.491 . S
C1980 H1971 0.950 . S
C1980 C1979 1.398 . S
C1980 C1981 1.391 . S
C1981 H1969 0.950 . S
C1981 C1977 1.393 . S
C1981 C1980 1.391 . S
C1982 H1972 0.950 . S
C1982 C1983 1.386 . S
C1982 C1984 1.391 . S
C1983 C1982 1.386 . S
C1983 C1987 1.393 . S
C1984 H1973 0.950 . S
C1984 C1982 1.391 . S
C1984 C1985 1.400 . S
C1985 C1979 1.491 . S
C1985 C1984 1.400 . S
C1985 C1986 1.398 . S
C1986 H1974 0.950 . S
C1986 C1985 1.398 . S
C1986 C1987 1.391 . S
C1987 H1975 0.950 . S
C1987 C1983 1.393 . S
C1987 C1986 1.391 . S
H1988 C1996 0.950 . S
H1989 C2001 0.950 . S
H1990 C1998 0.950 . S
H1991 C2000 0.950 . S
H1992 C2002 0.950 . S
H1993 C2004 0.950 . S
H1994 C2006 0.950 . S
H1995 C2007 0.950 . S
C1996 H1988 0.950 . S
C1996 C1997 1.386 . S
C1996 C1998 1.391 . S
C1997 C1996 1.386 . S
C1997 C2001 1.393 . S
C1998 H1990 0.950 . S
C1998 C1996 1.391 . S
C1998 C1999 1.400 . S
C1999 C1998 1.400 . S
C1999 C2000 1.398 . S
C1999 C2005 1.491 . S
C2000 H1991 0.950 . S
C2000 C1999 1.398 . S
C2000 C2001 1.391 . S
C2001 H1989 0.950 . S
C2001 C1997 1.393 . S
C2001 C2000 1.391 . S
C2002 H1992 0.950 . S
C2002 C2003 1.386 . S
C2002 C2004 1.391 . S
C2003 C2002 1.386 . S
C2003 C2007 1.393 . S
C2004 H1993 0.950 . S
C2004 C2002 1.391 . S
C2004 C2005 1.400 . S
C2005 C1999 1.491 . S
C2005 C2004 1.400 . S
C2005 C2006 1.398 . S
C2006 H1994 0.950 . S
C2006 C2005 1.398 . S
C2006 C2007 1.391 . S
C2007 H1995 0.950 . S
C2007 C2003 1.393 . S
C2007 C2006 1.391 . S
H2008 C2016 0.950 . S
H2009 C2021 0.950 . S
H2010 C2018 0.950 . S
H2011 C2020 0.950 . S
H2012 C2022 0.950 . S
H2013 C2024 0.950 . S
H2014 C2026 0.950 . S
H2015 C2027 0.950 . S
C2016 H2008 0.950 . S
C2016 C2017 1.386 . S
C2016 C2018 1.391 . S
C2017 C2016 1.386 . S
C2017 C2021 1.393 . S
C2018 H2010 0.950 . S
C2018 C2016 1.391 . S
C2018 C2019 1.400 . S
C2019 C2018 1.400 . S
C2019 C2020 1.398 . S
C2019 C2025 1.491 . S
C2020 H2011 0.950 . S
C2020 C2019 1.398 . S
C2020 C2021 1.391 . S
C2021 H2009 0.950 . S
C2021 C2017 1.393 . S
C2021 C2020 1.391 . S
C2022 H2012 0.950 . S
C2022 C2023 1.386 . S
C2022 C2024 1.391 . S
C2023 C2022 1.386 . S
C2023 C2027 1.393 . S
C2024 H2013 0.950 . S
C2024 C2022 1.391 . S
C2024 C2025 1.400 . S
C2025 C2019 1.491 . S
C2025 C2024 1.400 . S
C2025 C2026 1.398 . S
C2026 H2014 0.950 . S
C2026 C2025 1.398 . S
C2026 C2027 1.391 . S
C2027 H2015 0.950 . S
C2027 C2023 1.393 . S
C2027 C2026 1.391 . S
H2028 C2036 0.950 . S
H2029 C2041 0.950 . S
H2030 C2038 0.950 . S
H2031 C2040 0.950 . S
H2032 C2042 0.950 . S
H2033 C2044 0.950 . S
H2034 C2046 0.950 . S
H2035 C2047 0.950 . S
C2036 H2028 0.950 . S
C2036 C2037 1.386 . S
C2036 C2038 1.391 . S
C2037 C2036 1.386 . S
C2037 C2041 1.393 . S
C2038 H2030 0.950 . S
C2038 C2036 1.391 . S
C2038 C2039 1.400 . S
C2039 C2038 1.400 . S
C2039 C2040 1.398 . S
C2039 C2045 1.491 . S
C2040 H2031 0.950 . S
C2040 C2039 1.398 . S
C2040 C2041 1.391 . S
C2041 H2029 0.950 . S
C2041 C2037 1.393 . S
C2041 C2040 1.391 . S
C2042 H2032 0.950 . S
C2042 C2043 1.386 . S
C2042 C2044 1.391 . S
C2043 C2042 1.386 . S
C2043 C2047 1.393 . S
C2044 H2033 0.950 . S
C2044 C2042 1.391 . S
C2044 C2045 1.400 . S
C2045 C2039 1.491 . S
C2045 C2044 1.400 . S
C2045 C2046 1.398 . S
C2046 H2034 0.950 . S
C2046 C2045 1.398 . S
C2046 C2047 1.391 . S
C2047 H2035 0.950 . S
C2047 C2043 1.393 . S
C2047 C2046 1.391 . S
H2048 C2056 0.950 . S
H2049 C2061 0.950 . S
H2050 C2058 0.950 . S
H2051 C2060 0.950 . S
H2052 C2062 0.950 . S
H2053 C2064 0.950 . S
H2054 C2066 0.950 . S
H2055 C2067 0.950 . S
C2056 H2048 0.950 . S
C2056 C2057 1.386 . S
C2056 C2058 1.391 . S
C2057 C2056 1.386 . S
C2057 C2061 1.393 1_556 S
C2058 H2050 0.950 . S
C2058 C2056 1.391 . S
C2058 C2059 1.400 . S
C2059 C2058 1.400 . S
C2059 C2060 1.398 1_556 S
C2059 C2065 1.491 1_556 S
C2060 H2051 0.950 . S
C2060 C2059 1.398 1_554 S
C2060 C2061 1.391 . S
C2061 H2049 0.950 . S
C2061 C2057 1.393 1_554 S
C2061 C2060 1.391 . S
C2062 H2052 0.950 . S
C2062 C2063 1.386 . S
C2062 C2064 1.391 . S
C2063 C2062 1.386 . S
C2063 C2067 1.393 1_554 S
C2064 H2053 0.950 . S
C2064 C2062 1.391 . S
C2064 C2065 1.400 . S
C2065 C2059 1.491 1_554 S
C2065 C2064 1.400 . S
C2065 C2066 1.398 1_554 S
C2066 H2054 0.950 . S
C2066 C2065 1.398 1_556 S
C2066 C2067 1.391 . S
C2067 H2055 0.950 . S
C2067 C2063 1.393 1_556 S
C2067 C2066 1.391 . S
H2068 C2076 0.950 . S
H2069 C2081 0.950 . S
H2070 C2078 0.950 . S
H2071 C2080 0.950 . S
H2072 C2082 0.950 . S
H2073 C2084 0.950 . S
H2074 C2086 0.950 . S
H2075 C2087 0.950 . S
C2076 H2068 0.950 . S
C2076 C2077 1.386 . S
C2076 C2078 1.391 . S
C2077 C2076 1.386 . S
C2077 C2081 1.393 . S
C2078 H2070 0.950 . S
C2078 C2076 1.391 . S
C2078 C2079 1.400 . S
C2079 C2078 1.400 . S
C2079 C2080 1.398 . S
C2079 C2085 1.491 . S
C2080 H2071 0.950 . S
C2080 C2079 1.398 . S
C2080 C2081 1.391 . S
C2081 H2069 0.950 . S
C2081 C2077 1.393 . S
C2081 C2080 1.391 . S
C2082 H2072 0.950 . S
C2082 C2083 1.386 . S
C2082 C2084 1.391 . S
C2083 C2082 1.386 . S
C2083 C2087 1.393 . S
C2084 H2073 0.950 . S
C2084 C2082 1.391 . S
C2084 C2085 1.400 . S
C2085 C2079 1.491 . S
C2085 C2084 1.400 . S
C2085 C2086 1.398 . S
C2086 H2074 0.950 . S
C2086 C2085 1.398 . S
C2086 C2087 1.391 . S
C2087 H2075 0.950 . S
C2087 C2083 1.393 . S
C2087 C2086 1.391 . S
H2088 C2096 0.950 . S
H2089 C2101 0.950 . S
H2090 C2098 0.950 . S
H2091 C2100 0.950 . S
H2092 C2102 0.950 . S
H2093 C2104 0.950 . S
H2094 C2106 0.950 . S
H2095 C2107 0.950 . S
C2096 H2088 0.950 . S
C2096 C2097 1.386 . S
C2096 C2098 1.391 . S
C2097 C2096 1.386 . S
C2097 C2101 1.393 . S
C2098 H2090 0.950 . S
C2098 C2096 1.391 . S
C2098 C2099 1.400 . S
C2099 C2098 1.400 . S
C2099 C2100 1.398 . S
C2099 C2105 1.491 . S
C2100 H2091 0.950 . S
C2100 C2099 1.398 . S
C2100 C2101 1.391 . S
C2101 H2089 0.950 . S
C2101 C2097 1.393 . S
C2101 C2100 1.391 . S
C2102 H2092 0.950 . S
C2102 C2103 1.386 . S
C2102 C2104 1.391 . S
C2103 C2102 1.386 . S
C2103 C2107 1.393 . S
C2104 H2093 0.950 . S
C2104 C2102 1.391 . S
C2104 C2105 1.400 . S
C2105 C2099 1.491 . S
C2105 C2104 1.400 . S
C2105 C2106 1.398 . S
C2106 H2094 0.950 . S
C2106 C2105 1.398 . S
C2106 C2107 1.391 . S
C2107 H2095 0.950 . S
C2107 C2103 1.393 . S
C2107 C2106 1.391 . S
H2108 C2116 0.950 . S
H2109 C2121 0.950 . S
H2110 C2118 0.950 . S
H2111 C2120 0.950 . S
H2112 C2122 0.950 . S
H2113 C2124 0.950 . S
H2114 C2126 0.950 . S
H2115 C2127 0.950 . S
C2116 H2108 0.950 . S
C2116 C2117 1.386 . S
C2116 C2118 1.391 . S
C2117 C2116 1.386 . S
C2117 C2121 1.393 . S
C2118 H2110 0.950 . S
C2118 C2116 1.391 . S
C2118 C2119 1.400 . S
C2119 C2118 1.400 . S
C2119 C2120 1.398 . S
C2119 C2125 1.491 . S
C2120 H2111 0.950 . S
C2120 C2119 1.398 . S
C2120 C2121 1.391 . S
C2121 H2109 0.950 . S
C2121 C2117 1.393 . S
C2121 C2120 1.391 . S
C2122 H2112 0.950 . S
C2122 C2123 1.386 . S
C2122 C2124 1.391 . S
C2123 C2122 1.386 . S
C2123 C2127 1.393 . S
C2124 H2113 0.950 . S
C2124 C2122 1.391 . S
C2124 C2125 1.400 . S
C2125 C2119 1.491 . S
C2125 C2124 1.400 . S
C2125 C2126 1.398 . S
C2126 H2114 0.950 . S
C2126 C2125 1.398 . S
C2126 C2127 1.391 . S
C2127 H2115 0.950 . S
C2127 C2123 1.393 . S
C2127 C2126 1.391 . S
H2128 C2136 0.957 . S
H2129 C2141 0.950 . S
H2130 C2138 0.950 . S
H2131 C2140 0.950 . S
H2132 C2142 0.957 . S
H2133 C2144 0.950 . S
H2134 C2146 0.950 . S
H2135 C2147 0.950 . S
C2136 H2128 0.957 . S
C2136 C2137 1.374 1_554 S
C2136 C2138 1.396 . S
C2137 C2136 1.374 1_556 S
C2137 C2141 1.393 . S
C2138 H2130 0.950 . S
C2138 C2136 1.396 . S
C2138 C2139 1.400 1_554 S
C2139 C2138 1.400 1_556 S
C2139 C2140 1.398 . S
C2139 C2145 1.491 1_556 S
C2140 H2131 0.950 . S
C2140 C2139 1.398 . S
C2140 C2141 1.391 . S
C2141 H2129 0.950 . S
C2141 C2137 1.393 . S
C2141 C2140 1.391 . S
C2142 H2132 0.957 . S
C2142 C2143 1.374 1_556 S
C2142 C2144 1.396 . S
C2143 C2142 1.374 1_554 S
C2143 C2147 1.393 . S
C2144 H2133 0.950 . S
C2144 C2142 1.396 . S
C2144 C2145 1.400 1_556 S
C2145 C2139 1.491 1_554 S
C2145 C2144 1.400 1_554 S
C2145 C2146 1.398 . S
C2146 H2134 0.950 . S
C2146 C2145 1.398 . S
C2146 C2147 1.391 . S
C2147 H2135 0.950 . S
C2147 C2143 1.393 . S
C2147 C2146 1.391 . S
H2148 C2156 0.950 . S
H2149 C2161 0.950 . S
H2150 C2158 0.950 . S
H2151 C2160 0.950 . S
H2152 C2162 0.950 . S
H2153 C2164 0.950 . S
H2154 C2166 0.950 . S
H2155 C2167 0.950 . S
C2156 H2148 0.950 . S
C2156 C2157 1.386 . S
C2156 C2158 1.391 . S
C2157 C2156 1.386 . S
C2157 C2161 1.393 . S
C2158 H2150 0.950 . S
C2158 C2156 1.391 . S
C2158 C2159 1.400 . S
C2159 C2158 1.400 . S
C2159 C2160 1.398 . S
C2159 C2165 1.491 . S
C2160 H2151 0.950 . S
C2160 C2159 1.398 . S
C2160 C2161 1.391 . S
C2161 H2149 0.950 . S
C2161 C2157 1.393 . S
C2161 C2160 1.391 . S
C2162 H2152 0.950 . S
C2162 C2163 1.386 . S
C2162 C2164 1.391 . S
C2163 C2162 1.386 . S
C2163 C2167 1.393 . S
C2164 H2153 0.950 . S
C2164 C2162 1.391 . S
C2164 C2165 1.400 . S
C2165 C2159 1.491 . S
C2165 C2164 1.400 . S
C2165 C2166 1.398 . S
C2166 H2154 0.950 . S
C2166 C2165 1.398 . S
C2166 C2167 1.391 . S
C2167 H2155 0.950 . S
C2167 C2163 1.393 . S
C2167 C2166 1.391 . S
H2168 C2176 0.950 . S
H2169 C2181 0.950 . S
H2170 C2178 0.950 . S
H2171 C2180 0.950 . S
H2172 C2182 0.950 . S
H2173 C2184 0.950 . S
H2174 C2186 0.950 . S
H2175 C2187 0.950 . S
C2176 H2168 0.950 . S
C2176 C2177 1.386 . S
C2176 C2178 1.391 . S
C2177 C2176 1.386 . S
C2177 C2181 1.393 . S
C2178 H2170 0.950 . S
C2178 C2176 1.391 . S
C2178 C2179 1.400 . S
C2179 C2178 1.400 . S
C2179 C2180 1.398 . S
C2179 C2185 1.491 . S
C2180 H2171 0.950 . S
C2180 C2179 1.398 . S
C2180 C2181 1.391 . S
C2181 H2169 0.950 . S
C2181 C2177 1.393 . S
C2181 C2180 1.391 . S
C2182 H2172 0.950 . S
C2182 C2183 1.386 . S
C2182 C2184 1.391 . S
C2183 C2182 1.386 . S
C2183 C2187 1.393 . S
C2184 H2173 0.950 . S
C2184 C2182 1.391 . S
C2184 C2185 1.400 . S
C2185 C2179 1.491 . S
C2185 C2184 1.400 . S
C2185 C2186 1.398 . S
C2186 H2174 0.950 . S
C2186 C2185 1.398 . S
C2186 C2187 1.391 . S
C2187 H2175 0.950 . S
C2187 C2183 1.393 . S
C2187 C2186 1.391 . S
H2188 C2196 0.950 . S
H2189 C2201 0.950 . S
H2190 C2198 0.950 . S
H2191 C2200 0.950 . S
H2192 C2202 0.950 . S
H2193 C2204 0.950 . S
H2194 C2206 0.950 . S
H2195 C2207 0.950 . S
C2196 H2188 0.950 . S
C2196 C2197 1.386 . S
C2196 C2198 1.391 . S
C2197 C2196 1.386 . S
C2197 C2201 1.393 . S
C2198 H2190 0.950 . S
C2198 C2196 1.391 . S
C2198 C2199 1.400 . S
C2199 C2198 1.400 . S
C2199 C2200 1.398 . S
C2199 C2205 1.491 . S
C2200 H2191 0.950 . S
C2200 C2199 1.398 . S
C2200 C2201 1.391 . S
C2201 H2189 0.950 . S
C2201 C2197 1.393 . S
C2201 C2200 1.391 . S
C2202 H2192 0.950 . S
C2202 C2203 1.386 . S
C2202 C2204 1.391 . S
C2203 C2202 1.386 . S
C2203 C2207 1.393 . S
C2204 H2193 0.950 . S
C2204 C2202 1.391 . S
C2204 C2205 1.400 . S
C2205 C2199 1.491 . S
C2205 C2204 1.400 . S
C2205 C2206 1.398 . S
C2206 H2194 0.950 . S
C2206 C2205 1.398 . S
C2206 C2207 1.391 . S
C2207 H2195 0.950 . S
C2207 C2203 1.393 . S
C2207 C2206 1.391 . S
H2208 C2216 0.950 . S
H2209 C2221 0.950 . S
H2210 C2218 0.950 . S
H2211 C2220 0.950 . S
H2212 C2222 0.950 . S
H2213 C2224 0.950 . S
H2214 C2226 0.950 . S
H2215 C2227 0.950 . S
C2216 H2208 0.950 . S
C2216 C2217 1.386 . S
C2216 C2218 1.391 . S
C2217 C2216 1.386 . S
C2217 C2221 1.393 . S
C2218 H2210 0.950 . S
C2218 C2216 1.391 . S
C2218 C2219 1.400 . S
C2219 C2218 1.400 . S
C2219 C2220 1.398 . S
C2219 C2225 1.491 1_565 S
C2220 H2211 0.950 . S
C2220 C2219 1.398 . S
C2220 C2221 1.391 . S
C2221 H2209 0.950 . S
C2221 C2217 1.393 . S
C2221 C2220 1.391 . S
C2222 H2212 0.950 . S
C2222 C2223 1.386 . S
C2222 C2224 1.391 . S
C2223 C2222 1.386 . S
C2223 C2227 1.393 . S
C2224 H2213 0.950 . S
C2224 C2222 1.391 . S
C2224 C2225 1.400 . S
C2225 C2219 1.491 1_545 S
C2225 C2224 1.400 . S
C2225 C2226 1.398 . S
C2226 H2214 0.950 . S
C2226 C2225 1.398 . S
C2226 C2227 1.391 . S
C2227 H2215 0.950 . S
C2227 C2223 1.393 . S
C2227 C2226 1.391 . S
H2228 C2236 0.950 . S
H2229 C2241 0.950 . S
H2230 C2238 0.950 . S
H2231 C2240 0.950 . S
H2232 C2242 0.950 . S
H2233 C2244 0.950 . S
H2234 C2246 0.950 . S
H2235 C2247 0.950 . S
C2236 H2228 0.950 . S
C2236 C2237 1.386 . S
C2236 C2238 1.391 . S
C2237 C2236 1.386 . S
C2237 C2241 1.393 . S
C2238 H2230 0.950 . S
C2238 C2236 1.391 . S
C2238 C2239 1.400 . S
C2239 C2238 1.400 . S
C2239 C2240 1.398 . S
C2239 C2245 1.491 . S
C2240 H2231 0.950 . S
C2240 C2239 1.398 . S
C2240 C2241 1.391 . S
C2241 H2229 0.950 . S
C2241 C2237 1.393 . S
C2241 C2240 1.391 . S
C2242 H2232 0.950 . S
C2242 C2243 1.386 . S
C2242 C2244 1.391 . S
C2243 C2242 1.386 . S
C2243 C2247 1.393 . S
C2244 H2233 0.950 . S
C2244 C2242 1.391 . S
C2244 C2245 1.400 . S
C2245 C2239 1.491 . S
C2245 C2244 1.400 . S
C2245 C2246 1.398 . S
C2246 H2234 0.950 . S
C2246 C2245 1.398 . S
C2246 C2247 1.391 . S
C2247 H2235 0.950 . S
C2247 C2243 1.393 . S
C2247 C2246 1.391 . S
H2248 C2256 0.950 . S
H2249 C2261 0.950 . S
H2250 C2258 0.950 . S
H2251 C2260 0.950 . S
H2252 C2262 0.950 . S
H2253 C2264 0.950 . S
H2254 C2266 0.950 . S
H2255 C2267 0.950 . S
C2256 H2248 0.950 . S
C2256 C2257 1.386 1_556 S
C2256 C2258 1.391 . S
C2257 C2256 1.386 1_554 S
C2257 C2261 1.393 . S
C2258 H2250 0.950 . S
C2258 C2256 1.391 . S
C2258 C2259 1.400 1_556 S
C2259 C2258 1.400 1_554 S
C2259 C2260 1.398 . S
C2259 C2265 1.491 1_564 S
C2260 H2251 0.950 . S
C2260 C2259 1.398 . S
C2260 C2261 1.391 . S
C2261 H2249 0.950 . S
C2261 C2257 1.393 . S
C2261 C2260 1.391 . S
C2262 H2252 0.950 . S
C2262 C2263 1.386 1_554 S
C2262 C2264 1.391 . S
C2263 C2262 1.386 1_556 S
C2263 C2267 1.393 . S
C2264 H2253 0.950 . S
C2264 C2262 1.391 . S
C2264 C2265 1.400 1_554 S
C2265 C2259 1.491 1_546 S
C2265 C2264 1.400 1_556 S
C2265 C2266 1.398 . S
C2266 H2254 0.950 . S
C2266 C2265 1.398 . S
C2266 C2267 1.391 . S
C2267 H2255 0.950 . S
C2267 C2263 1.393 . S
C2267 C2266 1.391 . S
H2268 C2276 0.950 . S
H2269 C2281 0.950 . S
H2270 C2278 0.950 . S
H2271 C2280 0.950 . S
H2272 C2282 0.950 . S
H2273 C2284 0.950 . S
H2274 C2286 0.950 . S
H2275 C2287 0.950 . S
C2276 H2268 0.950 . S
C2276 C2277 1.386 . S
C2276 C2278 1.391 . S
C2277 C2276 1.386 . S
C2277 C2281 1.393 . S
C2278 H2270 0.950 . S
C2278 C2276 1.391 . S
C2278 C2279 1.400 . S
C2279 C2278 1.400 . S
C2279 C2280 1.398 . S
C2279 C2285 1.491 . S
C2280 H2271 0.950 . S
C2280 C2279 1.398 . S
C2280 C2281 1.391 . S
C2281 H2269 0.950 . S
C2281 C2277 1.393 . S
C2281 C2280 1.391 . S
C2282 H2272 0.950 . S
C2282 C2283 1.386 . S
C2282 C2284 1.391 . S
C2283 C2282 1.386 . S
C2283 C2287 1.393 . S
C2284 H2273 0.950 . S
C2284 C2282 1.391 . S
C2284 C2285 1.400 . S
C2285 C2279 1.491 . S
C2285 C2284 1.400 . S
C2285 C2286 1.398 . S
C2286 H2274 0.950 . S
C2286 C2285 1.398 . S
C2286 C2287 1.391 . S
C2287 H2275 0.950 . S
C2287 C2283 1.393 . S
C2287 C2286 1.391 . S
H2288 C2296 0.950 . S
H2289 C2301 0.950 . S
H2290 C2298 0.950 . S
H2291 C2300 0.950 . S
H2292 C2302 0.950 . S
H2293 C2304 0.950 . S
H2294 C2306 0.950 . S
H2295 C2307 0.950 . S
C2296 H2288 0.950 . S
C2296 C2297 1.386 . S
C2296 C2298 1.391 . S
C2297 C2296 1.386 . S
C2297 C2301 1.393 . S
C2298 H2290 0.950 . S
C2298 C2296 1.391 . S
C2298 C2299 1.400 . S
C2299 C2298 1.400 . S
C2299 C2300 1.398 . S
C2299 C2305 1.491 1_545 S
C2300 H2291 0.950 . S
C2300 C2299 1.398 . S
C2300 C2301 1.391 . S
C2301 H2289 0.950 . S
C2301 C2297 1.393 . S
C2301 C2300 1.391 . S
C2302 H2292 0.950 . S
C2302 C2303 1.386 . S
C2302 C2304 1.391 . S
C2303 C2302 1.386 . S
C2303 C2307 1.393 . S
C2304 H2293 0.950 . S
C2304 C2302 1.391 . S
C2304 C2305 1.400 . S
C2305 C2299 1.491 1_565 S
C2305 C2304 1.400 . S
C2305 C2306 1.398 . S
C2306 H2294 0.950 . S
C2306 C2305 1.398 . S
C2306 C2307 1.391 . S
C2307 H2295 0.950 . S
C2307 C2303 1.393 . S
C2307 C2306 1.391 . S
H2308 C2316 0.950 . S
H2309 C2321 0.950 . S
H2310 C2318 0.950 . S
H2311 C2320 0.950 . S
H2312 C2322 0.950 . S
H2313 C2324 0.950 . S
H2314 C2326 0.950 . S
H2315 C2327 0.950 . S
C2316 H2308 0.950 . S
C2316 C2317 1.386 . S
C2316 C2318 1.391 . S
C2317 C2316 1.386 . S
C2317 C2321 1.393 . S
C2318 H2310 0.950 . S
C2318 C2316 1.391 . S
C2318 C2319 1.400 . S
C2319 C2318 1.400 . S
C2319 C2320 1.398 . S
C2319 C2325 1.491 . S
C2320 H2311 0.950 . S
C2320 C2319 1.398 . S
C2320 C2321 1.391 . S
C2321 H2309 0.950 . S
C2321 C2317 1.393 . S
C2321 C2320 1.391 . S
C2322 H2312 0.950 . S
C2322 C2323 1.386 . S
C2322 C2324 1.391 . S
C2323 C2322 1.386 . S
C2323 C2327 1.393 . S
C2324 H2313 0.950 . S
C2324 C2322 1.391 . S
C2324 C2325 1.400 . S
C2325 C2319 1.491 . S
C2325 C2324 1.400 . S
C2325 C2326 1.398 . S
C2326 H2314 0.950 . S
C2326 C2325 1.398 . S
C2326 C2327 1.391 . S
C2327 H2315 0.950 . S
C2327 C2323 1.393 . S
C2327 C2326 1.391 . S
H2328 C2336 0.950 . S
H2329 C2341 0.950 . S
H2330 C2338 0.943 1_556 S
H2331 C2340 0.950 . S
H2332 C2342 0.950 . S
H2333 C2344 0.943 1_554 S
H2334 C2346 0.950 . S
H2335 C2347 0.950 . S
C2336 H2328 0.950 . S
C2336 C2337 1.386 . S
C2336 C2338 1.396 . S
C2337 C2336 1.386 . S
C2337 C2341 1.393 . S
C2338 H2330 0.943 1_554 S
C2338 C2336 1.396 . S
C2338 C2339 1.403 . S
C2339 C2338 1.403 . S
C2339 C2340 1.398 . S
C2339 C2345 1.491 1_564 S
C2340 H2331 0.950 . S
C2340 C2339 1.398 . S
C2340 C2341 1.391 . S
C2341 H2329 0.950 . S
C2341 C2337 1.393 . S
C2341 C2340 1.391 . S
C2342 H2332 0.950 . S
C2342 C2343 1.386 . S
C2342 C2344 1.396 . S
C2343 C2342 1.386 . S
C2343 C2347 1.393 . S
C2344 H2333 0.943 1_556 S
C2344 C2342 1.396 . S
C2344 C2345 1.403 . S
C2345 C2339 1.491 1_546 S
C2345 C2344 1.403 . S
C2345 C2346 1.398 . S
C2346 H2334 0.950 . S
C2346 C2345 1.398 . S
C2346 C2347 1.391 . S
C2347 H2335 0.950 . S
C2347 C2343 1.393 . S
C2347 C2346 1.391 . S
H2348 C2356 0.950 . S
H2349 C2361 0.950 . S
H2350 C2358 0.950 . S
H2351 C2360 0.950 . S
H2352 C2362 0.950 . S
H2353 C2364 0.950 . S
H2354 C2366 0.950 . S
H2355 C2367 0.950 . S
C2356 H2348 0.950 . S
C2356 C2357 1.386 . S
C2356 C2358 1.391 . S
C2357 C2356 1.386 . S
C2357 C2361 1.393 . S
C2358 H2350 0.950 . S
C2358 C2356 1.391 . S
C2358 C2359 1.400 . S
C2359 C2358 1.400 . S
C2359 C2360 1.398 . S
C2359 C2365 1.491 . S
C2360 H2351 0.950 . S
C2360 C2359 1.398 . S
C2360 C2361 1.391 . S
C2361 H2349 0.950 . S
C2361 C2357 1.393 . S
C2361 C2360 1.391 . S
C2362 H2352 0.950 . S
C2362 C2363 1.386 . S
C2362 C2364 1.391 . S
C2363 C2362 1.386 . S
C2363 C2367 1.393 . S
C2364 H2353 0.950 . S
C2364 C2362 1.391 . S
C2364 C2365 1.400 . S
C2365 C2359 1.491 . S
C2365 C2364 1.400 . S
C2365 C2366 1.398 . S
C2366 H2354 0.950 . S
C2366 C2365 1.398 . S
C2366 C2367 1.391 . S
C2367 H2355 0.950 . S
C2367 C2363 1.393 . S
C2367 C2366 1.391 . S
H2368 C2376 0.950 1_556 S
H2369 C2381 0.950 . S
H2370 C2378 0.950 1_556 S
H2371 C2380 0.950 . S
H2372 C2382 0.950 . S
H2373 C2384 0.950 . S
H2374 C2386 0.950 1_556 S
H2375 C2387 0.950 1_556 S
C2376 H2368 0.950 1_554 S
C2376 C2377 1.386 . S
C2376 C2378 1.391 . S
C2377 C2376 1.386 . S
C2377 C2381 1.393 . S
C2378 H2370 0.950 1_554 S
C2378 C2376 1.391 . S
C2378 C2379 1.400 . S
C2379 C2378 1.400 . S
C2379 C2380 1.398 . S
C2379 C2385 1.491 1_455 S
C2380 H2371 0.950 . S
C2380 C2379 1.398 . S
C2380 C2381 1.391 . S
C2381 H2369 0.950 . S
C2381 C2377 1.393 . S
C2381 C2380 1.391 . S
C2382 H2372 0.950 . S
C2382 C2383 1.386 . S
C2382 C2384 1.391 . S
C2383 C2382 1.386 . S
C2383 C2387 1.393 . S
C2384 H2373 0.950 . S
C2384 C2382 1.391 . S
C2384 C2385 1.400 . S
C2385 C2379 1.491 1_655 S
C2385 C2384 1.400 . S
C2385 C2386 1.398 . S
C2386 H2374 0.950 1_554 S
C2386 C2385 1.398 . S
C2386 C2387 1.391 . S
C2387 H2375 0.950 1_554 S
C2387 C2383 1.393 . S
C2387 C2386 1.391 . S
H2388 C2396 0.950 . S
H2389 C2401 0.950 . S
H2390 C2398 0.950 . S
H2391 C2400 0.950 . S
H2392 C2402 0.950 . S
H2393 C2404 0.950 . S
H2394 C2406 0.950 . S
H2395 C2407 0.950 . S
C2396 H2388 0.950 . S
C2396 C2397 1.386 . S
C2396 C2398 1.391 . S
C2397 C2396 1.386 . S
C2397 C2401 1.393 . S
C2398 H2390 0.950 . S
C2398 C2396 1.391 . S
C2398 C2399 1.400 . S
C2399 C2398 1.400 . S
C2399 C2400 1.398 . S
C2399 C2405 1.491 . S
C2400 H2391 0.950 . S
C2400 C2399 1.398 . S
C2400 C2401 1.391 . S
C2401 H2389 0.950 . S
C2401 C2397 1.393 . S
C2401 C2400 1.391 . S
C2402 H2392 0.950 . S
C2402 C2403 1.386 . S
C2402 C2404 1.391 . S
C2403 C2402 1.386 . S
C2403 C2407 1.393 . S
C2404 H2393 0.950 . S
C2404 C2402 1.391 . S
C2404 C2405 1.400 . S
C2405 C2399 1.491 . S
C2405 C2404 1.400 . S
C2405 C2406 1.398 . S
C2406 H2394 0.950 . S
C2406 C2405 1.398 . S
C2406 C2407 1.391 . S
C2407 H2395 0.950 . S
C2407 C2403 1.393 . S
C2407 C2406 1.391 . S
H2408 C2416 0.950 . S
H2409 C2421 0.950 . S
H2410 C2418 0.950 . S
H2411 C2420 0.950 . S
H2412 C2422 0.950 . S
H2413 C2424 0.950 . S
H2414 C2426 0.950 . S
H2415 C2427 0.950 . S
C2416 H2408 0.950 . S
C2416 C2417 1.386 . S
C2416 C2418 1.391 . S
C2417 C2416 1.386 . S
C2417 C2421 1.393 . S
C2418 H2410 0.950 . S
C2418 C2416 1.391 . S
C2418 C2419 1.400 . S
C2419 C2418 1.400 . S
C2419 C2420 1.398 . S
C2419 C2425 1.491 . S
C2420 H2411 0.950 . S
C2420 C2419 1.398 . S
C2420 C2421 1.391 . S
C2421 H2409 0.950 . S
C2421 C2417 1.393 . S
C2421 C2420 1.391 . S
C2422 H2412 0.950 . S
C2422 C2423 1.386 . S
C2422 C2424 1.391 . S
C2423 C2422 1.386 . S
C2423 C2427 1.393 . S
C2424 H2413 0.950 . S
C2424 C2422 1.391 . S
C2424 C2425 1.400 . S
C2425 C2419 1.491 . S
C2425 C2424 1.400 . S
C2425 C2426 1.398 . S
C2426 H2414 0.950 . S
C2426 C2425 1.398 . S
C2426 C2427 1.391 . S
C2427 H2415 0.950 . S
C2427 C2423 1.393 . S
C2427 C2426 1.391 . S
H2428 C2436 0.950 . S
H2429 C2441 0.950 . S
H2430 C2438 0.950 . S
H2431 C2440 0.950 . S
H2432 C2442 0.950 . S
H2433 C2444 0.950 . S
H2434 C2446 0.950 . S
H2435 C2447 0.950 . S
C2436 H2428 0.950 . S
C2436 C2437 1.386 . S
C2436 C2438 1.391 . S
C2437 C2436 1.386 . S
C2437 C2441 1.393 . S
C2438 H2430 0.950 . S
C2438 C2436 1.391 . S
C2438 C2439 1.400 . S
C2439 C2438 1.400 . S
C2439 C2440 1.398 . S
C2439 C2445 1.491 . S
C2440 H2431 0.950 . S
C2440 C2439 1.398 . S
C2440 C2441 1.391 . S
C2441 H2429 0.950 . S
C2441 C2437 1.393 . S
C2441 C2440 1.391 . S
C2442 H2432 0.950 . S
C2442 C2443 1.386 . S
C2442 C2444 1.391 . S
C2443 C2442 1.386 . S
C2443 C2447 1.393 . S
C2444 H2433 0.950 . S
C2444 C2442 1.391 . S
C2444 C2445 1.400 . S
C2445 C2439 1.491 . S
C2445 C2444 1.400 . S
C2445 C2446 1.398 . S
C2446 H2434 0.950 . S
C2446 C2445 1.398 . S
C2446 C2447 1.391 . S
C2447 H2435 0.950 . S
C2447 C2443 1.393 . S
C2447 C2446 1.391 . S
H2448 C2456 0.950 . S
H2449 C2461 0.950 . S
H2450 C2458 0.950 . S
H2451 C2460 0.950 . S
H2452 C2462 0.950 . S
H2453 C2464 0.950 . S
H2454 C2466 0.950 . S
H2455 C2467 0.950 . S
C2456 H2448 0.950 . S
C2456 C2457 1.386 . S
C2456 C2458 1.391 . S
C2457 C2456 1.386 . S
C2457 C2461 1.393 . S
C2458 H2450 0.950 . S
C2458 C2456 1.391 . S
C2458 C2459 1.400 . S
C2459 C2458 1.400 . S
C2459 C2460 1.398 . S
C2459 C2465 1.491 1_655 S
C2460 H2451 0.950 . S
C2460 C2459 1.398 . S
C2460 C2461 1.391 . S
C2461 H2449 0.950 . S
C2461 C2457 1.393 . S
C2461 C2460 1.391 . S
C2462 H2452 0.950 . S
C2462 C2463 1.386 . S
C2462 C2464 1.391 . S
C2463 C2462 1.386 . S
C2463 C2467 1.393 . S
C2464 H2453 0.950 . S
C2464 C2462 1.391 . S
C2464 C2465 1.400 . S
C2465 C2459 1.491 1_455 S
C2465 C2464 1.400 . S
C2465 C2466 1.398 . S
C2466 H2454 0.950 . S
C2466 C2465 1.398 . S
C2466 C2467 1.391 . S
C2467 H2455 0.950 . S
C2467 C2463 1.393 . S
C2467 C2466 1.391 . S
H2468 C2476 0.950 . S
H2469 C2481 0.950 . S
H2470 C2478 0.950 . S
H2471 C2480 0.950 . S
H2472 C2482 0.950 . S
H2473 C2484 0.950 . S
H2474 C2486 0.950 . S
H2475 C2487 0.950 . S
C2476 H2468 0.950 . S
C2476 C2477 1.386 . S
C2476 C2478 1.391 . S
C2477 C2476 1.386 . S
C2477 C2481 1.393 . S
C2478 H2470 0.950 . S
C2478 C2476 1.391 . S
C2478 C2479 1.400 . S
C2479 C2478 1.400 . S
C2479 C2480 1.398 . S
C2479 C2485 1.491 . S
C2480 H2471 0.950 . S
C2480 C2479 1.398 . S
C2480 C2481 1.391 . S
C2481 H2469 0.950 . S
C2481 C2477 1.393 . S
C2481 C2480 1.391 . S
C2482 H2472 0.950 . S
C2482 C2483 1.386 . S
C2482 C2484 1.391 . S
C2483 C2482 1.386 . S
C2483 C2487 1.393 . S
C2484 H2473 0.950 . S
C2484 C2482 1.391 . S
C2484 C2485 1.400 . S
C2485 C2479 1.491 . S
C2485 C2484 1.400 . S
C2485 C2486 1.398 . S
C2486 H2474 0.950 . S
C2486 C2485 1.398 . S
C2486 C2487 1.391 . S
C2487 H2475 0.950 . S
C2487 C2483 1.393 . S
C2487 C2486 1.391 . S
H2488 C2496 0.950 . S
H2489 C2501 0.950 . S
H2490 C2498 0.950 . S
H2491 C2500 0.950 . S
H2492 C2502 0.950 . S
H2493 C2504 0.950 . S
H2494 C2506 0.950 . S
H2495 C2507 0.950 . S
C2496 H2488 0.950 . S
C2496 C2497 1.386 . S
C2496 C2498 1.391 . S
C2497 C2496 1.386 . S
C2497 C2501 1.393 . S
C2498 H2490 0.950 . S
C2498 C2496 1.391 . S
C2498 C2499 1.400 . S
C2499 C2498 1.400 . S
C2499 C2500 1.398 . S
C2499 C2505 1.491 . S
C2500 H2491 0.950 . S
C2500 C2499 1.398 . S
C2500 C2501 1.391 . S
C2501 H2489 0.950 . S
C2501 C2497 1.393 . S
C2501 C2500 1.391 . S
C2502 H2492 0.950 . S
C2502 C2503 1.386 . S
C2502 C2504 1.391 . S
C2503 C2502 1.386 . S
C2503 C2507 1.393 . S
C2504 H2493 0.950 . S
C2504 C2502 1.391 . S
C2504 C2505 1.400 . S
C2505 C2499 1.491 . S
C2505 C2504 1.400 . S
C2505 C2506 1.398 . S
C2506 H2494 0.950 . S
C2506 C2505 1.398 . S
C2506 C2507 1.391 . S
C2507 H2495 0.950 . S
C2507 C2503 1.393 . S
C2507 C2506 1.391 . S
H2508 C2516 0.950 . S
H2509 C2521 0.950 . S
H2510 C2518 0.950 . S
H2511 C2520 0.950 . S
H2512 C2522 0.950 . S
H2513 C2524 0.950 . S
H2514 C2526 0.950 . S
H2515 C2527 0.950 . S
C2516 H2508 0.950 . S
C2516 C2517 1.386 . S
C2516 C2518 1.391 . S
C2517 C2516 1.386 . S
C2517 C2521 1.393 . S
C2518 H2510 0.950 . S
C2518 C2516 1.391 . S
C2518 C2519 1.400 . S
C2519 C2518 1.400 . S
C2519 C2520 1.398 . S
C2519 C2525 1.491 . S
C2520 H2511 0.950 . S
C2520 C2519 1.398 . S
C2520 C2521 1.391 . S
C2521 H2509 0.950 . S
C2521 C2517 1.393 . S
C2521 C2520 1.391 . S
C2522 H2512 0.950 . S
C2522 C2523 1.386 . S
C2522 C2524 1.391 . S
C2523 C2522 1.386 . S
C2523 C2527 1.393 . S
C2524 H2513 0.950 . S
C2524 C2522 1.391 . S
C2524 C2525 1.400 . S
C2525 C2519 1.491 . S
C2525 C2524 1.400 . S
C2525 C2526 1.398 . S
C2526 H2514 0.950 . S
C2526 C2525 1.398 . S
C2526 C2527 1.391 . S
C2527 H2515 0.950 . S
C2527 C2523 1.393 . S
C2527 C2526 1.391 . S
H2528 C2536 0.950 . S
H2529 C2541 0.950 . S
H2530 C2538 0.950 . S
H2531 C2540 0.950 . S
H2532 C2542 0.950 . S
H2533 C2544 0.950 . S
H2534 C2546 0.950 . S
H2535 C2547 0.950 . S
C2536 H2528 0.950 . S
C2536 C2537 1.386 . S
C2536 C2538 1.391 . S
C2537 C2536 1.386 . S
C2537 C2541 1.393 . S
C2538 H2530 0.950 . S
C2538 C2536 1.391 . S
C2538 C2539 1.400 . S
C2539 C2538 1.400 . S
C2539 C2540 1.398 . S
C2539 C2545 1.491 . S
C2540 H2531 0.950 . S
C2540 C2539 1.398 . S
C2540 C2541 1.391 . S
C2541 H2529 0.950 . S
C2541 C2537 1.393 . S
C2541 C2540 1.391 . S
C2542 H2532 0.950 . S
C2542 C2543 1.386 . S
C2542 C2544 1.391 . S
C2543 C2542 1.386 . S
C2543 C2547 1.393 . S
C2544 H2533 0.950 . S
C2544 C2542 1.391 . S
C2544 C2545 1.400 . S
C2545 C2539 1.491 . S
C2545 C2544 1.400 . S
C2545 C2546 1.398 . S
C2546 H2534 0.950 . S
C2546 C2545 1.398 . S
C2546 C2547 1.391 . S
C2547 H2535 0.950 . S
C2547 C2543 1.393 . S
C2547 C2546 1.391 . S
H2548 C2556 0.950 . S
H2549 C2561 0.950 . S
H2550 C2558 0.950 . S
H2551 C2560 0.950 . S
H2552 C2562 0.950 . S
H2553 C2564 0.950 . S
H2554 C2566 0.950 . S
H2555 C2567 0.950 . S
C2556 H2548 0.950 . S
C2556 C2557 1.386 . S
C2556 C2558 1.391 . S
C2557 C2556 1.386 . S
C2557 C2561 1.393 . S
C2558 H2550 0.950 . S
C2558 C2556 1.391 . S
C2558 C2559 1.400 . S
C2559 C2558 1.400 . S
C2559 C2560 1.398 . S
C2559 C2565 1.491 . S
C2560 H2551 0.950 . S
C2560 C2559 1.398 . S
C2560 C2561 1.391 . S
C2561 H2549 0.950 . S
C2561 C2557 1.393 . S
C2561 C2560 1.391 . S
C2562 H2552 0.950 . S
C2562 C2563 1.386 . S
C2562 C2564 1.391 . S
C2563 C2562 1.386 . S
C2563 C2567 1.393 . S
C2564 H2553 0.950 . S
C2564 C2562 1.391 . S
C2564 C2565 1.400 . S
C2565 C2559 1.491 . S
C2565 C2564 1.400 . S
C2565 C2566 1.398 . S
C2566 H2554 0.950 . S
C2566 C2565 1.398 . S
C2566 C2567 1.391 . S
C2567 H2555 0.950 . S
C2567 C2563 1.393 . S
C2567 C2566 1.391 . S
H2568 C2576 0.950 . S
H2569 C2581 0.950 . S
H2570 C2578 0.950 . S
H2571 C2580 0.950 . S
H2572 C2582 0.950 . S
H2573 C2584 0.950 . S
H2574 C2586 0.950 . S
H2575 C2587 0.950 . S
C2576 H2568 0.950 . S
C2576 C2577 1.386 . S
C2576 C2578 1.391 . S
C2577 C2576 1.386 . S
C2577 C2581 1.393 . S
C2578 H2570 0.950 . S
C2578 C2576 1.391 . S
C2578 C2579 1.400 . S
C2579 C2578 1.400 . S
C2579 C2580 1.398 . S
C2579 C2585 1.491 . S
C2580 H2571 0.950 . S
C2580 C2579 1.398 . S
C2580 C2581 1.391 . S
C2581 H2569 0.950 . S
C2581 C2577 1.393 . S
C2581 C2580 1.391 . S
C2582 H2572 0.950 . S
C2582 C2583 1.386 . S
C2582 C2584 1.391 . S
C2583 C2582 1.386 . S
C2583 C2587 1.393 . S
C2584 H2573 0.950 . S
C2584 C2582 1.391 . S
C2584 C2585 1.400 . S
C2585 C2579 1.491 . S
C2585 C2584 1.400 . S
C2585 C2586 1.398 . S
C2586 H2574 0.950 . S
C2586 C2585 1.398 . S
C2586 C2587 1.391 . S
C2587 H2575 0.950 . S
C2587 C2583 1.393 . S
C2587 C2586 1.391 . S
H2588 C2596 0.950 . S
H2589 C2601 0.950 . S
H2590 C2598 0.950 . S
H2591 C2600 0.950 . S
H2592 C2602 0.950 . S
H2593 C2604 0.950 . S
H2594 C2606 0.950 . S
H2595 C2607 0.950 . S
C2596 H2588 0.950 . S
C2596 C2597 1.386 . S
C2596 C2598 1.391 . S
C2597 C2596 1.386 . S
C2597 C2601 1.393 . S
C2598 H2590 0.950 . S
C2598 C2596 1.391 . S
C2598 C2599 1.400 . S
C2599 C2598 1.400 . S
C2599 C2600 1.398 . S
C2599 C2605 1.491 . S
C2600 H2591 0.950 . S
C2600 C2599 1.398 . S
C2600 C2601 1.391 . S
C2601 H2589 0.950 . S
C2601 C2597 1.393 . S
C2601 C2600 1.391 . S
C2602 H2592 0.950 . S
C2602 C2603 1.386 . S
C2602 C2604 1.391 . S
C2603 C2602 1.386 . S
C2603 C2607 1.393 . S
C2604 H2593 0.950 . S
C2604 C2602 1.391 . S
C2604 C2605 1.400 . S
C2605 C2599 1.491 . S
C2605 C2604 1.400 . S
C2605 C2606 1.398 . S
C2606 H2594 0.950 . S
C2606 C2605 1.398 . S
C2606 C2607 1.391 . S
C2607 H2595 0.950 . S
C2607 C2603 1.393 . S
C2607 C2606 1.391 . S
H2608 C2616 0.950 . S
H2609 C2621 0.950 . S
H2610 C2618 0.950 . S
H2611 C2620 0.950 . S
H2612 C2622 0.950 . S
H2613 C2624 0.950 . S
H2614 C2626 0.950 . S
H2615 C2627 0.950 . S
C2616 H2608 0.950 . S
C2616 C2617 1.386 . S
C2616 C2618 1.391 . S
C2617 C2616 1.386 . S
C2617 C2621 1.393 . S
C2618 H2610 0.950 . S
C2618 C2616 1.391 . S
C2618 C2619 1.400 . S
C2619 C2618 1.400 . S
C2619 C2620 1.398 . S
C2619 C2625 1.491 . S
C2620 H2611 0.950 . S
C2620 C2619 1.398 . S
C2620 C2621 1.391 . S
C2621 H2609 0.950 . S
C2621 C2617 1.393 . S
C2621 C2620 1.391 . S
C2622 H2612 0.950 . S
C2622 C2623 1.386 . S
C2622 C2624 1.391 . S
C2623 C2622 1.386 . S
C2623 C2627 1.393 . S
C2624 H2613 0.950 . S
C2624 C2622 1.391 . S
C2624 C2625 1.400 . S
C2625 C2619 1.491 . S
C2625 C2624 1.400 . S
C2625 C2626 1.398 . S
C2626 H2614 0.950 . S
C2626 C2625 1.398 . S
C2626 C2627 1.391 . S
C2627 H2615 0.950 . S
C2627 C2623 1.393 . S
C2627 C2626 1.391 . S
H2628 C2636 0.950 . S
H2629 C2641 0.950 . S
H2630 C2638 0.950 . S
H2631 C2640 0.950 . S
H2632 C2642 0.950 . S
H2633 C2644 0.950 . S
H2634 C2646 0.950 . S
H2635 C2647 0.950 . S
C2636 H2628 0.950 . S
C2636 C2637 1.386 . S
C2636 C2638 1.391 . S
C2637 C2636 1.386 . S
C2637 C2641 1.393 . S
C2638 H2630 0.950 . S
C2638 C2636 1.391 . S
C2638 C2639 1.400 . S
C2639 C2638 1.400 . S
C2639 C2640 1.398 . S
C2639 C2645 1.491 1_455 S
C2640 H2631 0.950 . S
C2640 C2639 1.398 . S
C2640 C2641 1.391 . S
C2641 H2629 0.950 . S
C2641 C2637 1.393 . S
C2641 C2640 1.391 . S
C2642 H2632 0.950 . S
C2642 C2643 1.386 . S
C2642 C2644 1.391 . S
C2643 C2642 1.386 . S
C2643 C2647 1.393 . S
C2644 H2633 0.950 . S
C2644 C2642 1.391 . S
C2644 C2645 1.400 . S
C2645 C2639 1.491 1_655 S
C2645 C2644 1.400 . S
C2645 C2646 1.398 . S
C2646 H2634 0.950 . S
C2646 C2645 1.398 . S
C2646 C2647 1.391 . S
C2647 H2635 0.950 . S
C2647 C2643 1.393 . S
C2647 C2646 1.391 . S
H2648 C2656 0.950 . S
H2649 C2661 0.950 . S
H2650 C2658 0.950 . S
H2651 C2660 0.950 . S
H2652 C2662 0.950 . S
H2653 C2664 0.950 . S
H2654 C2666 0.950 . S
H2655 C2667 0.950 . S
C2656 H2648 0.950 . S
C2656 C2657 1.386 . S
C2656 C2658 1.391 . S
C2657 C2656 1.386 . S
C2657 C2661 1.393 . S
C2658 H2650 0.950 . S
C2658 C2656 1.391 . S
C2658 C2659 1.400 . S
C2659 C2658 1.400 . S
C2659 C2660 1.398 . S
C2659 C2665 1.491 . S
C2660 H2651 0.950 . S
C2660 C2659 1.398 . S
C2660 C2661 1.391 . S
C2661 H2649 0.950 . S
C2661 C2657 1.393 . S
C2661 C2660 1.391 . S
C2662 H2652 0.950 . S
C2662 C2663 1.386 . S
C2662 C2664 1.391 . S
C2663 C2662 1.386 . S
C2663 C2667 1.393 . S
C2664 H2653 0.950 . S
C2664 C2662 1.391 . S
C2664 C2665 1.400 . S
C2665 C2659 1.491 . S
C2665 C2664 1.400 . S
C2665 C2666 1.398 . S
C2666 H2654 0.950 . S
C2666 C2665 1.398 . S
C2666 C2667 1.391 . S
C2667 H2655 0.950 . S
C2667 C2663 1.393 . S
C2667 C2666 1.391 . S
H2668 C2676 0.950 . S
H2669 C2681 0.950 . S
H2670 C2678 0.950 . S
H2671 C2680 0.950 . S
H2672 C2682 0.950 . S
H2673 C2684 0.950 . S
H2674 C2686 0.950 . S
H2675 C2687 0.950 . S
C2676 H2668 0.950 . S
C2676 C2677 1.386 . S
C2676 C2678 1.391 . S
C2677 C2676 1.386 . S
C2677 C2681 1.393 . S
C2678 H2670 0.950 . S
C2678 C2676 1.391 . S
C2678 C2679 1.400 . S
C2679 C2678 1.400 . S
C2679 C2680 1.398 . S
C2679 C2685 1.491 1_455 S
C2680 H2671 0.950 . S
C2680 C2679 1.398 . S
C2680 C2681 1.391 . S
C2681 H2669 0.950 . S
C2681 C2677 1.393 . S
C2681 C2680 1.391 . S
C2682 H2672 0.950 . S
C2682 C2683 1.386 . S
C2682 C2684 1.391 . S
C2683 C2682 1.386 . S
C2683 C2687 1.393 . S
C2684 H2673 0.950 . S
C2684 C2682 1.391 . S
C2684 C2685 1.400 . S
C2685 C2679 1.491 1_655 S
C2685 C2684 1.400 . S
C2685 C2686 1.398 . S
C2686 H2674 0.950 . S
C2686 C2685 1.398 . S
C2686 C2687 1.391 . S
C2687 H2675 0.950 . S
C2687 C2683 1.393 . S
C2687 C2686 1.391 . S
C1097 C5 1.437 . S
C1103 C9 1.376 . S
C1117 C43 1.364 . S
C1123 C39 1.437 . S
C1137 C77 1.364 . S
C1143 C73 1.436 . S
C1157 C111 1.391 . S
C1163 C107 1.440 . S
C1177 C145 1.378 . S
C1183 C141 1.439 . S
C1197 C179 1.392 . S
C1203 C175 1.440 . S
C1217 C209 1.436 . S
C1223 C213 1.365 . S
C1237 C243 1.439 . S
C1243 C247 1.377 . S
C1257 C277 1.438 . S
C1263 C281 1.385 . S
C1277 C311 1.437 . S
C1283 C315 1.365 . S
C1297 C345 1.439 . S
C1303 C349 1.393 . S
C1317 C383 1.390 . S
C1323 C379 1.440 . S
C1337 C413 1.439 . S
C1343 C417 1.383 . S
C1357 C447 1.437 . S
C1363 C451 1.380 . S
C1377 C485 1.372 . S
C1383 C481 1.436 . S
C1397 C515 1.437 . S
C1403 C519 1.364 . S
C1417 C553 1.364 . S
C1423 C549 1.437 . S
C1437 C587 1.372 . S
C1443 C583 1.436 . S
C1457 C621 1.392 . S
C1463 C617 1.440 . S
C1477 C655 1.381 . S
C1483 C651 1.437 . S
C1497 C689 1.388 . S
C1503 C685 1.440 . S
C1517 C723 1.369 . S
C1523 C719 1.436 . S
C1537 C757 1.374 . S
C1543 C753 1.439 . S
C1557 C787 1.438 . S
C1563 C791 1.373 . S
C1577 C825 1.364 . S
C1583 C821 1.437 . S
C1597 C859 1.370 . S
C1603 C855 1.436 . S
C1617 C893 1.388 . S
C1623 C889 1.440 . S
C1637 C923 1.438 . S
C1643 C927 1.371 . S
C1657 C957 1.439 . S
C1663 C961 1.392 . S
C1677 C991 1.440 . S
C1683 C995 1.390 . S
C1697 C1029 1.363 . S
C1703 C1025 1.437 . S
C1717 C1059 1.437 . S
C1723 C1063 1.363 . S
C1737 C802 1.495 . S
C1743 C20 1.488 . S
C1757 C700 1.496 . S
C1763 C54 1.486 . S
C1777 C734 1.489 . S
C1783 C88 1.493 . S
C1797 C768 1.497 . S
C1803 C122 1.487 . S
C1817 C598 1.486 . S
C1823 C156 1.497 . S
C1837 C632 1.486 . S
C1843 C190 1.497 . S
C1857 C666 1.496 . S
C1863 C224 1.487 . S
C1877 C564 1.487 . S
C1883 C258 1.495 . S
C1897 C1074 1.496 . S
C1903 C292 1.489 . S
C1917 C972 1.497 . S
C1923 C326 1.486 . S
C1937 C360 1.496 . S
C1943 C1006 1.489 . S
C1957 C394 1.487 . S
C1963 C1040 1.497 . S
C1977 C428 1.487 . S
C1983 C870 1.496 . S
C1997 C462 1.497 . S
C2003 C904 1.487 . S
C2017 C496 1.488 . S
C2023 C938 1.494 . S
C2037 C836 1.486 . S
C2043 C530 1.497 . S
C2057 C169 1.207 . S
C2063 C33 1.216 . S
C2077 C67 1.206 . S
C2083 C203 1.210 . S
C2097 C237 1.212 . S
C2103 C101 1.205 . S
C2117 C135 1.205 . S
C2123 C271 1.212 . S
C2137 C305 1.209 . S
C2143 C441 1.216 . S
C2157 C475 1.208 . S
C2163 C339 1.207 . S
C2177 C509 1.212 . S
C2183 C373 1.215 . S
C2197 C543 1.215 . S
C2203 C407 1.205 . S
C2217 C713 1.217 . S
C2223 C577 1.208 . S
C2237 C611 1.216 . S
C2243 C747 1.209 . S
C2257 C645 1.215 . S
C2263 C781 1.205 . S
C2277 C679 1.216 . S
C2283 C815 1.211 . S
C2297 C985 1.212 . S
C2303 C849 1.205 . S
C2317 C1019 1.207 . S
C2323 C883 1.217 . S
C2337 C1053 1.212 . S
C2343 C917 1.215 . S
C2357 C951 1.213 . S
C2363 C1087 1.205 . S
C2377 C2 1.708 . S
C2383 C410 1.708 . S
C2397 C988 1.708 . S
C2403 C36 1.707 . S
C2417 C70 1.707 . S
C2423 C478 1.708 . S
C2437 C1056 1.709 . S
C2443 C104 1.706 . S
C2457 C274 1.707 . S
C2463 C138 1.709 . S
C2477 C172 1.706 . S
C2483 C852 1.709 . S
C2497 C206 1.709 . S
C2503 C342 1.707 . S
C2517 C240 1.708 . S
C2523 C920 1.708 . S
C2537 C716 1.706 . S
C2543 C308 1.709 . S
C2557 C784 1.706 . S
C2563 C376 1.709 . S
C2577 C580 1.709 . S
C2583 C444 1.707 . S
C2597 C648 1.707 . S
C2603 C512 1.709 . S
C2617 C546 1.708 . S
C2623 C954 1.708 . S
C2637 C1022 1.707 . S
C2643 C614 1.709 . S
C2657 C682 1.709 . S
C2663 C818 1.707 . S
C2677 C886 1.709 . S
C2683 C750 1.707 . S
