# Generated by pormake.
# Topology vme, (6)-cn, num edge types: 1
# Building blocks:
#     Node 0, Type 0, BuildingBlock: MIDCAF_clean_sbu_0, # of connection points: 6
#     Node 1, Type 0, BuildingBlock: MIDCAF_clean_sbu_0, # of connection points: 6
#     Node 2, Type 0, BuildingBlock: MIDCAF_clean_sbu_0, # of connection points: 6
#     Node 3, Type 0, BuildingBlock: MIDCAF_clean_sbu_0, # of connection points: 6
#     Edge 4, Type (0, 0), BuildingBlock: XIVTED_clean_linker_0, # of connection points: 2
#     Edge 5, Type (0, 0), BuildingBlock: XIVTED_clean_linker_0, # of connection points: 2
#     Edge 6, Type (0, 0), BuildingBlock: XIVTED_clean_linker_0, # of connection points: 2
#     Edge 7, Type (0, 0), BuildingBlock: XIVTED_clean_linker_0, # of connection points: 2
#     Edge 8, Type (0, 0), BuildingBlock: XIVTED_clean_linker_0, # of connection points: 2
#     Edge 9, Type (0, 0), BuildingBlock: XIVTED_clean_linker_0, # of connection points: 2
#     Edge 10, Type (0, 0), BuildingBlock: XIVTED_clean_linker_0, # of connection points: 2
#     Edge 11, Type (0, 0), BuildingBlock: XIVTED_clean_linker_0, # of connection points: 2
#     Edge 12, Type (0, 0), BuildingBlock: XIVTED_clean_linker_0, # of connection points: 2
#     Edge 13, Type (0, 0), BuildingBlock: XIVTED_clean_linker_0, # of connection points: 2
#     Edge 14, Type (0, 0), BuildingBlock: XIVTED_clean_linker_0, # of connection points: 2
#     Edge 15, Type (0, 0), BuildingBlock: XIVTED_clean_linker_0, # of connection points: 2
# Relax obj value: 0.251
# Max RMSD: 0.207
# Mean RMSD: 0.207
data_MOF--net-vme--node1-MIDCAF_clean_sbu_0--edge1-XIVTED_clean_linker_0
_symmetry_space_group_name_H-M    P1
_symmetry_Int_Tables_number       1
_symmetry_cell_setting            triclinic
loop_
_symmetry_equiv_pos_as_xyz
'x, y, z'
_cell_length_a     24.233228
_cell_length_b     25.146294
_cell_length_c     27.387082
_cell_angle_alpha  90.777673
_cell_angle_beta   103.35789
_cell_angle_gamma 89.809062
loop_
_atom_site_label
_atom_site_type_symbol
_atom_site_fract_x
_atom_site_fract_y
_atom_site_fract_z
_atom_type_partial_charge
Zn0 Zn 0.22504 0.45564 0.27158 0.0
Zn1 Zn 0.07966 0.29692 0.41603 0.0
Zn2 Zn 0.18136 0.39754 0.32392 0.0
C3 C 0.20235 0.34684 0.42076 0.0
C4 C 0.11511 0.29617 0.30827 0.0
O5 O 0.12927 0.47043 0.30822 0.0
O6 O 0.16642 0.51276 0.25346 0.0
C7 C 0.30105 0.44572 0.36725 0.0
O8 O 0.23167 0.37592 0.39822 0.0
O9 O 0.15131 0.33641 0.39767 0.0
O10 O 0.11308 0.31358 0.35201 0.0
O11 O 0.14509 0.32342 0.28479 0.0
O12 O 0.2908 0.472 0.32717 0.0
O13 O 0.26568 0.41008 0.37407 0.0
O14 O 0.1818 0.34728 0.25916 0.0
O15 O 0.23491 0.39819 0.22325 0.0
C16 C 0.20992 0.35462 0.22549 0.0
O17 O 0.11151 0.43913 0.34191 0.0
O18 O 0.09339 0.36586 0.37655 0.0
C19 C 0.1291 0.50992 0.27879 0.0
C20 C 0.08338 0.41544 0.3693 0.0
Zn21 Zn 0.80888 0.82243 0.07949 0.0
Zn22 Zn 0.74776 0.95144 0.18572 0.0
Zn23 Zn 0.78583 0.89168 0.12776 0.0
C24 C 0.74595 0.85311 0.22825 0.0
C25 C 0.66696 0.95281 0.09501 0.0
O26 O 0.86364 0.9234 0.11076 0.0
O27 O 0.85415 0.86946 0.04544 0.0
C28 C 0.84651 0.77976 0.16615 0.0
O29 O 0.77226 0.8424 0.19319 0.0
O30 O 0.72919 0.89995 0.23328 0.0
O31 O 0.68031 0.97722 0.13666 0.0
O32 O 0.70093 0.91761 0.08378 0.0
O33 O 0.85593 0.77239 0.12338 0.0
O34 O 0.81496 0.81896 0.17413 0.0
O35 O 0.72837 0.88163 0.04945 0.0
O36 O 0.7353 0.79518 0.04067 0.0
C37 C 0.71394 0.8386 0.02326 0.0
O38 O 0.84855 0.95825 0.14773 0.0
O39 O 0.81537 0.99785 0.20756 0.0
C40 C 0.87932 0.90822 0.07097 0.0
C41 C 0.85282 0.99422 0.18239 0.0
Zn42 Zn 0.7491 0.55567 0.68939 0.0
Zn43 Zn 0.78468 0.73623 0.55291 0.0
Zn44 Zn 0.78615 0.61182 0.62842 0.0
C45 C 0.71152 0.65903 0.52891 0.0
C46 C 0.83977 0.73394 0.66306 0.0
O47 O 0.84582 0.54538 0.65036 0.0
O48 O 0.81887 0.51401 0.71549 0.0
C49 C 0.67194 0.54385 0.59948 0.0
O50 O 0.73824 0.61748 0.54858 0.0
O51 O 0.71218 0.69899 0.55735 0.0
O52 O 0.82847 0.75686 0.62095 0.0
O53 O 0.82291 0.68615 0.6695 0.0
O54 O 0.68681 0.51954 0.64044 0.0
O55 O 0.70217 0.58248 0.59034 0.0
O56 O 0.76949 0.66763 0.68722 0.0
O57 O 0.72588 0.61443 0.72941 0.0
C58 C 0.74185 0.66059 0.72147 0.0
O59 O 0.82569 0.63481 0.57259 0.0
O60 O 0.83921 0.69436 0.51915 0.0
C61 C 0.85311 0.51303 0.68701 0.0
C62 C 0.84995 0.64878 0.53841 0.0
Zn63 Zn 0.10354 0.12642 0.83411 0.0
Zn64 Zn 0.23146 0.05884 0.76157 0.0
Zn65 Zn 0.18223 0.1066 0.81515 0.0
C66 C 0.22414 0.16733 0.73313 0.0
C67 C 0.29929 0.06279 0.86462 0.0
O68 O 0.1887 0.07332 0.89195 0.0
O69 O 0.09614 0.06017 0.87115 0.0
C70 C 0.08609 0.18621 0.76107 0.0
O71 O 0.19769 0.17085 0.76856 0.0
O72 O 0.24106 0.1226 0.72067 0.0
O73 O 0.29541 0.04569 0.82027 0.0
O74 O 0.25801 0.08958 0.87516 0.0
O75 O 0.05436 0.1491 0.76938 0.0
O76 O 0.14009 0.1825 0.77971 0.0
O77 O 0.21582 0.13004 0.89341 0.0
O78 O 0.14532 0.18678 0.87914 0.0
C79 C 0.19349 0.17356 0.9053 0.0
O80 O 0.12777 0.04235 0.7862 0.0
O81 O 0.17416 0.99974 0.73802 0.0
C82 C 0.14391 0.0509 0.90017 0.0
C83 C 0.13165 1.00318 0.75741 0.0
H84 H 0.92108 0.00638 0.27426 0.0
H85 H 0.08296 0.26424 0.20919 0.0
H86 H 0.89402 0.06561 0.12376 0.0
H87 H 0.07623 0.21703 0.35842 0.0
H88 H 0.02586 0.18569 0.17503 0.0
H89 H -0.00852 0.07583 0.30317 0.0
C90 C 0.93091 0.03363 0.24713 0.0
C91 C 0.90226 0.03006 0.19656 0.0
C92 C 0.03729 0.19243 0.21524 0.0
C93 C -0.0182 0.11105 0.22958 0.0
C94 C 0.07008 0.23707 0.23476 0.0
C95 C 0.08424 0.2473 0.28672 0.0
C96 C 0.01924 0.15752 0.24807 0.0
C97 C 0.06596 0.21107 0.31812 0.0
C98 C 0.97081 0.07355 0.26368 0.0
C99 C 0.91594 0.06669 0.16297 0.0
N100 N 0.03455 0.16799 0.29835 0.0
N101 N 0.95454 0.10607 0.18015 0.0
H102 H 0.1409 0.61394 0.25787 0.0
H103 H 0.82014 0.67966 0.18858 0.0
H104 H 0.0203 0.5025 0.29152 0.0
H105 H 0.94651 0.80233 0.22927 0.0
H106 H 0.88967 0.61412 0.2307 0.0
H107 H 0.06903 0.68367 0.24835 0.0
C108 C 0.0993 0.60428 0.26353 0.0
C109 C 0.08636 0.55243 0.27524 0.0
C110 C 0.90164 0.65566 0.23202 0.0
C111 C 0.0039 0.63192 0.26438 0.0
C112 C 0.86186 0.69299 0.20846 0.0
C113 C 0.87773 0.74623 0.20639 0.0
C114 C 0.95793 0.67173 0.25168 0.0
C115 C 0.93265 0.76164 0.23107 0.0
C116 C 0.05851 0.64419 0.25865 0.0
C117 C 0.03198 0.54209 0.28261 0.0
N118 N 0.97132 0.72431 0.25172 0.0
N119 N -0.00769 0.58136 0.27626 0.0
H120 H 0.1364 0.90492 0.71397 0.0
H121 H 0.82381 0.82583 0.71062 0.0
H122 H 0.03157 1.00214 0.78733 0.0
H123 H 0.94979 0.70856 0.69807 0.0
H124 H 0.89934 0.88964 0.74433 0.0
H125 H 0.06818 0.83225 0.70794 0.0
C126 C 0.09898 0.91107 0.72864 0.0
C127 C 0.08942 0.95986 0.75077 0.0
C128 C 0.91067 0.84944 0.73584 0.0
C129 C 0.01172 0.87671 0.74462 0.0
C130 C 0.86758 0.81285 0.71739 0.0
C131 C 0.88085 0.76178 0.7026 0.0
C132 C 0.96716 0.83535 0.73738 0.0
C133 C 0.93808 0.74731 0.71021 0.0
C134 C 0.06047 0.86935 0.72579 0.0
C135 C 0.04051 0.96535 0.76968 0.0
N136 N 0.97928 0.78441 0.72582 0.0
N137 N 0.00324 0.92444 0.76577 0.0
H138 H 0.94414 0.49785 0.64163 0.0
H139 H 0.97574 0.19911 0.71259 0.0
H140 H 0.86009 0.42859 0.74854 0.0
H141 H 0.13308 0.2862 0.75667 0.0
H142 H 0.92569 0.28244 0.68939 0.0
H143 H 0.00884 0.42001 0.65215 0.0
C144 C 0.93955 0.46686 0.66748 0.0
C145 C 0.89649 0.46998 0.69424 0.0
C146 C 0.9714 0.28304 0.70294 0.0
C147 C 0.96877 0.38138 0.70522 0.0
C148 C 0.00017 0.23554 0.71629 0.0
C149 C 0.05886 0.23548 0.73715 0.0
C150 C 0.00124 0.33113 0.70962 0.0
C151 C 0.08786 0.28436 0.74078 0.0
C152 C 0.9764 0.42274 0.67344 0.0
C153 C 0.89241 0.42841 0.72708 0.0
N154 N 0.05862 0.33057 0.72763 0.0
N155 N 0.92735 0.38576 0.731 0.0
H156 H 0.84484 0.54014 0.53544 0.0
H157 H 0.09484 0.52023 0.39082 0.0
H158 H 0.93949 0.67308 0.4993 0.0
H159 H 0.0001 0.38226 0.416 0.0
H160 H 0.04246 0.57428 0.43791 0.0
H161 H 0.90475 0.47944 0.49908 0.0
C162 C 0.87866 0.55638 0.5203 0.0
C163 C 0.88717 0.61155 0.51968 0.0
C164 C 0.0326 0.53229 0.43316 0.0
C165 C 0.95552 0.54293 0.47879 0.0
C166 C 0.06231 0.50134 0.40582 0.0
C167 C 0.05059 0.44695 0.39829 0.0
C168 C -0.00966 0.50902 0.45317 0.0
C169 C 0.00955 0.42435 0.42032 0.0
C170 C 0.91261 0.52184 0.49955 0.0
C171 C 0.9311 0.63084 0.49968 0.0
N172 N 0.98026 0.45572 0.44653 0.0
N173 N 0.96359 0.59655 0.48004 0.0
H174 H 0.96092 0.97906 0.12231 0.0
H175 H 0.13586 0.94529 0.91049 0.0
H176 H 0.91162 0.88828 -0.01576 0.0
H177 H 0.14005 0.09426 -0.00951 0.0
H178 H 0.07965 0.907 0.96456 0.0
H179 H 0.04568 0.00993 0.09507 0.0
C180 C 0.96739 0.96621 0.08625 0.0
C181 C 0.92863 0.93153 0.05538 0.0
C182 C 0.09468 0.94754 0.97164 0.0
C183 C 0.02649 0.96365 0.02578 0.0
C184 C 0.12788 0.96895 0.94152 0.0
C185 C 0.14272 0.02276 0.94631 0.0
C186 C 0.07574 0.98043 0.00632 0.0
C187 C 0.12976 0.05232 -0.01385 0.0
C188 C 0.01608 0.98309 0.07117 0.0
C189 C 0.94009 0.91482 0.00958 0.0
N190 N 0.0955 0.03122 0.01395 0.0
N191 N -0.0121 0.93071 -0.00352 0.0
H192 H 0.17075 0.27404 0.92951 0.0
H193 H 0.30122 0.29917 0.21147 0.0
H194 H 0.25783 0.13202 -0.00714 0.0
H195 H 0.12224 0.32215 0.1515 0.0
H196 H 0.3065 0.24809 0.1351 0.0
H197 H 0.17785 0.30946 0.01397 0.0
C198 C 0.19261 0.25086 0.96125 0.0
C199 C 0.21301 0.1998 0.95443 0.0
C200 C 0.26599 0.26313 0.13956 0.0
C201 C 0.22073 0.23994 0.05058 0.0
C202 C 0.26289 0.29198 0.18274 0.0
C203 C 0.21112 0.31418 0.18721 0.0
C204 C 0.21735 0.25867 0.1006 0.0
C205 C 0.16261 0.30491 0.14929 0.0
C206 C 0.19606 0.27085 0.00921 0.0
C207 C 0.24159 0.17161 -0.00322 0.0
N208 N 0.16712 0.27874 0.10681 0.0
N209 N 0.24422 0.19195 0.04364 0.0
H210 H 0.65413 0.85032 0.2683 0.0
H211 H 0.76222 0.61163 0.45748 0.0
H212 H 0.80728 0.76343 0.26735 0.0
H213 H 0.64058 0.73144 0.47561 0.0
H214 H 0.76519 0.6502 0.37584 0.0
H215 H 0.63526 0.79092 0.33178 0.0
C216 C 0.68368 0.81823 0.28107 0.0
C217 C 0.73265 0.81205 0.26243 0.0
C218 C 0.7372 0.66734 0.39745 0.0
C219 C 0.71133 0.74345 0.33608 0.0
C220 C 0.73524 0.64521 0.44393 0.0
C221 C 0.70249 0.6695 0.47425 0.0
C222 C 0.70484 0.71293 0.38077 0.0
C223 C 0.66742 0.71213 0.45411 0.0
C224 C 0.67277 0.78416 0.31739 0.0
C225 C 0.76882 0.76923 0.28008 0.0
N226 N 0.67 0.7327 0.40914 0.0
N227 N 0.75788 0.73686 0.31645 0.0
H228 H 0.62809 0.77938 0.96701 0.0
H229 H 0.80836 0.74424 0.76736 0.0
H230 H 0.75654 0.8933 0.95558 0.0
H231 H 0.64257 0.67493 0.74881 0.0
H232 H 0.78638 0.80644 0.83031 0.0
H233 H 0.62511 0.74901 0.88137 0.0
C234 C 0.65357 0.79988 0.94546 0.0
C235 C 0.69213 0.83929 0.96828 0.0
C236 C 0.7542 0.77862 0.81143 0.0
C237 C 0.69195 0.80231 0.87119 0.0
C238 C 0.76666 0.74355 0.77508 0.0
C239 C 0.72715 0.70482 0.75251 0.0
C240 C 0.7022 0.7741 0.82578 0.0
C241 C 0.67444 0.70402 0.76558 0.0
C242 C 0.65265 0.78194 0.89674 0.0
C243 C 0.72556 0.86335 0.9391 0.0
N244 N 0.66383 0.73747 0.8017 0.0
N245 N 0.72603 0.84339 0.89264 0.0
H246 H 0.13653 0.21899 0.67453 0.0
H247 H 0.27124 0.39607 0.50389 0.0
H248 H 0.31902 0.21376 0.71576 0.0
H249 H 0.17749 0.25231 0.45318 0.0
H250 H 0.28354 0.36588 0.59174 0.0
H251 H 0.14139 0.27619 0.60423 0.0
C252 C 0.17755 0.2324 0.6704 0.0
C253 C 0.22739 0.21275 0.70114 0.0
C254 C 0.26118 0.34103 0.56093 0.0
C255 C 0.23329 0.27619 0.62039 0.0
C256 C 0.25465 0.35779 0.5112 0.0
C257 C 0.22285 0.32666 0.47172 0.0
C258 C 0.23501 0.29365 0.57003 0.0
C259 C 0.2015 0.27775 0.48273 0.0
C260 C 0.18034 0.26441 0.63008 0.0
C261 C 0.27978 0.22871 0.69263 0.0
N262 N 0.2072 0.26313 0.53088 0.0
N263 N 0.28154 0.25901 0.65222 0.0
H264 H 0.35526 0.38897 0.45109 0.0
H265 H 0.61461 0.59586 0.51521 0.0
H266 H 0.36762 0.53213 0.36882 0.0
H267 H 0.60705 0.4559 0.60303 0.0
H268 H 0.52403 0.57099 0.46035 0.0
H269 H 0.44692 0.41152 0.50813 0.0
C270 C 0.37694 0.42508 0.44518 0.0
C271 C 0.35396 0.45834 0.40485 0.0
C272 C 0.54219 0.54556 0.49156 0.0
C273 C 0.45821 0.48419 0.4693 0.0
C274 C 0.59424 0.55971 0.52278 0.0
C275 C 0.61858 0.52808 0.56387 0.0
C276 C 0.51416 0.49936 0.50138 0.0
C277 C 0.5897 0.48172 0.57192 0.0
C278 C 0.42924 0.43785 0.47751 0.0
C279 C 0.38384 0.50476 0.39893 0.0
N280 N 0.53898 0.46878 0.54103 0.0
N281 N 0.4342 0.51609 0.43057 0.0
H282 H 0.40022 0.04106 0.84319 0.0
H283 H 0.57428 0.99258 0.12285 0.0
H284 H 0.32209 0.05639 0.96926 0.0
H285 H 0.63116 0.94101 -0.00822 0.0
H286 H 0.48392 0.01974 0.06915 0.0
H287 H 0.48696 0.01105 0.89879 0.0
C288 C 0.40123 0.03824 0.88283 0.0
C289 C 0.35321 0.05089 0.90141 0.0
C290 C 0.51596 1.0023 0.05209 0.0
C291 C 0.4539 0.01604 0.96589 0.0
C292 C 0.56777 0.98687 0.08264 0.0
C293 C 0.61083 0.96496 0.06173 0.0
C294 C 0.50704 0.99657 -4e-05 0.0
C295 C 0.59943 0.95775 0.00956 0.0
C296 C 0.45107 0.0208 0.91457 0.0
C297 C 0.35796 0.04724 0.9533 0.0
N298 N 0.54885 0.97406 -0.01955 0.0
N299 N 0.40752 0.02994 -0.01617 0.0
loop_
_geom_bond_atom_site_label_1
_geom_bond_atom_site_label_2
_geom_bond_distance
_geom_bond_site_symmetry_2
_ccdc_geom_bond_type
Zn0 O6 1.920 . S
Zn0 O12 1.898 . S
Zn0 O15 1.905 . S
Zn1 O9 1.905 . S
Zn1 O10 1.898 . S
Zn1 O18 1.920 . S
Zn2 O5 2.080 . S
Zn2 O8 2.114 . S
Zn2 O11 2.120 . S
Zn2 O13 2.120 . S
Zn2 O14 2.114 . S
Zn2 O17 2.080 . S
C3 O8 1.166 . S
C3 O9 1.182 . S
C4 O10 1.167 . S
C4 O11 1.299 . S
O5 Zn2 2.080 . S
O5 C19 1.305 . S
O6 Zn0 1.920 . S
O6 C19 1.234 . S
C7 O12 1.167 . S
C7 O13 1.299 . S
O8 Zn2 2.114 . S
O8 C3 1.166 . S
O9 Zn1 1.905 . S
O9 C3 1.182 . S
O10 Zn1 1.898 . S
O10 C4 1.167 . S
O11 Zn2 2.120 . S
O11 C4 1.299 . S
O12 Zn0 1.898 . S
O12 C7 1.167 . S
O13 Zn2 2.120 . S
O13 C7 1.299 . S
O14 Zn2 2.114 . S
O14 C16 1.166 . S
O15 Zn0 1.905 . S
O15 C16 1.182 . S
C16 O14 1.166 . S
C16 O15 1.182 . S
O17 Zn2 2.080 . S
O17 C20 1.305 . S
O18 Zn1 1.920 . S
O18 C20 1.234 . S
C19 O5 1.305 . S
C19 O6 1.234 . S
C20 O17 1.305 . S
C20 O18 1.234 . S
Zn21 O27 1.920 . S
Zn21 O33 1.898 . S
Zn21 O36 1.905 . S
Zn22 O30 1.905 . S
Zn22 O31 1.898 . S
Zn22 O39 1.920 1_565 S
Zn23 O26 2.080 . S
Zn23 O29 2.114 . S
Zn23 O32 2.120 . S
Zn23 O34 2.120 . S
Zn23 O35 2.114 . S
Zn23 O38 2.080 . S
C24 O29 1.166 . S
C24 O30 1.182 . S
C25 O31 1.167 . S
C25 O32 1.299 . S
O26 Zn23 2.080 . S
O26 C40 1.305 . S
O27 Zn21 1.920 . S
O27 C40 1.234 . S
C28 O33 1.167 . S
C28 O34 1.299 . S
O29 Zn23 2.114 . S
O29 C24 1.166 . S
O30 Zn22 1.905 . S
O30 C24 1.182 . S
O31 Zn22 1.898 . S
O31 C25 1.167 . S
O32 Zn23 2.120 . S
O32 C25 1.299 . S
O33 Zn21 1.898 . S
O33 C28 1.167 . S
O34 Zn23 2.120 . S
O34 C28 1.299 . S
O35 Zn23 2.114 . S
O35 C37 1.166 . S
O36 Zn21 1.905 . S
O36 C37 1.182 . S
C37 O35 1.166 . S
C37 O36 1.182 . S
O38 Zn23 2.080 . S
O38 C41 1.305 . S
O39 Zn22 1.920 1_545 S
O39 C41 1.234 1_545 S
C40 O26 1.305 . S
C40 O27 1.234 . S
C41 O38 1.305 . S
C41 O39 1.234 1_565 S
Zn42 O48 1.920 . S
Zn42 O54 1.898 . S
Zn42 O57 1.905 . S
Zn43 O51 1.905 . S
Zn43 O52 1.898 . S
Zn43 O60 1.920 . S
Zn44 O47 2.080 . S
Zn44 O50 2.114 . S
Zn44 O53 2.120 . S
Zn44 O55 2.120 . S
Zn44 O56 2.114 . S
Zn44 O59 2.080 . S
C45 O50 1.166 . S
C45 O51 1.182 . S
C46 O52 1.167 . S
C46 O53 1.299 . S
O47 Zn44 2.080 . S
O47 C61 1.305 . S
O48 Zn42 1.920 . S
O48 C61 1.234 . S
C49 O54 1.167 . S
C49 O55 1.299 . S
O50 Zn44 2.114 . S
O50 C45 1.166 . S
O51 Zn43 1.905 . S
O51 C45 1.182 . S
O52 Zn43 1.898 . S
O52 C46 1.167 . S
O53 Zn44 2.120 . S
O53 C46 1.299 . S
O54 Zn42 1.898 . S
O54 C49 1.167 . S
O55 Zn44 2.120 . S
O55 C49 1.299 . S
O56 Zn44 2.114 . S
O56 C58 1.166 . S
O57 Zn42 1.905 . S
O57 C58 1.182 . S
C58 O56 1.166 . S
C58 O57 1.182 . S
O59 Zn44 2.080 . S
O59 C62 1.305 . S
O60 Zn43 1.920 . S
O60 C62 1.234 . S
C61 O47 1.305 . S
C61 O48 1.234 . S
C62 O59 1.305 . S
C62 O60 1.234 . S
Zn63 O69 1.920 . S
Zn63 O75 1.898 . S
Zn63 O78 1.905 . S
Zn64 O72 1.905 . S
Zn64 O73 1.898 . S
Zn64 O81 1.920 1_545 S
Zn65 O68 2.080 . S
Zn65 O71 2.114 . S
Zn65 O74 2.120 . S
Zn65 O76 2.120 . S
Zn65 O77 2.114 . S
Zn65 O80 2.080 . S
C66 O71 1.166 . S
C66 O72 1.182 . S
C67 O73 1.167 . S
C67 O74 1.299 . S
O68 Zn65 2.080 . S
O68 C82 1.305 . S
O69 Zn63 1.920 . S
O69 C82 1.234 . S
C70 O75 1.167 . S
C70 O76 1.299 . S
O71 Zn65 2.114 . S
O71 C66 1.166 . S
O72 Zn64 1.905 . S
O72 C66 1.182 . S
O73 Zn64 1.898 . S
O73 C67 1.167 . S
O74 Zn65 2.120 . S
O74 C67 1.299 . S
O75 Zn63 1.898 . S
O75 C70 1.167 . S
O76 Zn65 2.120 . S
O76 C70 1.299 . S
O77 Zn65 2.114 . S
O77 C79 1.166 . S
O78 Zn63 1.905 . S
O78 C79 1.182 . S
C79 O77 1.166 . S
C79 O78 1.182 . S
O80 Zn65 2.080 . S
O80 C83 1.305 . S
O81 Zn64 1.920 1_565 S
O81 C83 1.234 1_565 S
C82 O68 1.305 . S
C82 O69 1.234 . S
C83 O80 1.305 . S
C83 O81 1.234 1_545 S
H84 C90 0.930 . S
H85 C94 0.930 . S
H86 C99 0.929 . S
H87 C97 0.929 . S
H88 C92 0.929 . S
H89 C98 0.929 . S
C90 H84 0.930 . S
C90 C91 1.367 . S
C90 C98 1.378 . S
C91 C90 1.367 . S
C91 C99 1.433 . S
C92 H88 0.929 . S
C92 C94 1.378 . S
C92 C96 1.350 1_455 S
C93 C96 1.463 . S
C93 C98 1.350 . S
C93 N101 1.427 . S
C94 H85 0.930 . S
C94 C92 1.378 . S
C94 C95 1.367 . S
C95 C94 1.367 . S
C95 C97 1.433 . S
C96 C92 1.350 1_655 S
C96 C93 1.463 . S
C96 N100 1.427 1_655 S
C97 H87 0.929 . S
C97 C95 1.433 . S
C97 N100 1.384 . S
C98 H89 0.929 . S
C98 C90 1.378 . S
C98 C93 1.350 . S
C99 H86 0.929 . S
C99 C91 1.433 . S
C99 N101 1.384 . S
N100 C96 1.427 1_455 S
N100 C97 1.384 . S
N101 C93 1.427 . S
N101 C99 1.384 . S
H102 C108 0.930 . S
H103 C112 0.930 . S
H104 C117 0.929 . S
H105 C115 0.932 . S
H106 C110 0.929 . S
H107 C116 0.929 . S
C108 H102 0.930 . S
C108 C109 1.367 . S
C108 C116 1.378 . S
C109 C108 1.367 . S
C109 C117 1.433 . S
C110 H106 0.929 . S
C110 C112 1.378 . S
C110 C114 1.350 1_655 S
C111 C114 1.463 . S
C111 C116 1.350 . S
C111 N119 1.427 . S
C112 H103 0.930 . S
C112 C110 1.378 . S
C112 C113 1.367 . S
C113 C112 1.367 . S
C113 C115 1.428 1_655 S
C114 C110 1.350 1_455 S
C114 C111 1.463 . S
C114 N118 1.427 . S
C115 H105 0.932 . S
C115 C113 1.428 1_455 S
C115 N118 1.386 . S
C116 H107 0.929 . S
C116 C108 1.378 . S
C116 C111 1.350 . S
C117 H104 0.929 . S
C117 C109 1.433 . S
C117 N119 1.384 . S
N118 C114 1.427 . S
N118 C115 1.386 . S
N119 C111 1.427 . S
N119 C117 1.384 . S
H120 C126 0.930 . S
H121 C130 0.930 . S
H122 C135 0.929 . S
H123 C133 0.929 . S
H124 C128 0.929 . S
H125 C134 0.929 . S
C126 H120 0.930 . S
C126 C127 1.367 . S
C126 C134 1.378 . S
C127 C126 1.367 . S
C127 C135 1.433 . S
C128 H124 0.929 . S
C128 C130 1.378 . S
C128 C132 1.350 1_655 S
C129 C132 1.463 . S
C129 C134 1.350 . S
C129 N137 1.427 . S
C130 H121 0.930 . S
C130 C128 1.378 . S
C130 C131 1.367 . S
C131 C130 1.367 . S
C131 C133 1.433 . S
C132 C128 1.350 1_455 S
C132 C129 1.463 . S
C132 N136 1.427 . S
C133 H123 0.929 . S
C133 C131 1.433 . S
C133 N136 1.384 1_655 S
C134 H125 0.929 . S
C134 C126 1.378 . S
C134 C129 1.350 . S
C135 H122 0.929 . S
C135 C127 1.433 . S
C135 N137 1.384 . S
N136 C132 1.427 . S
N136 C133 1.384 1_455 S
N137 C129 1.427 . S
N137 C135 1.384 . S
H138 C144 0.930 . S
H139 C148 0.930 1_655 S
H140 C153 0.929 . S
H141 C151 0.929 . S
H142 C146 0.929 . S
H143 C152 0.929 1_455 S
C144 H138 0.930 . S
C144 C145 1.367 . S
C144 C152 1.378 . S
C145 C144 1.367 . S
C145 C153 1.433 . S
C146 H142 0.929 . S
C146 C148 1.378 1_655 S
C146 C150 1.350 . S
C147 C150 1.463 . S
C147 C152 1.350 . S
C147 N155 1.427 . S
C148 H139 0.930 1_455 S
C148 C146 1.378 1_455 S
C148 C149 1.367 . S
C149 C148 1.367 . S
C149 C151 1.433 . S
C150 C146 1.350 . S
C150 C147 1.463 . S
C150 N154 1.427 1_655 S
C151 H141 0.929 . S
C151 C149 1.433 . S
C151 N154 1.384 . S
C152 H143 0.929 1_655 S
C152 C144 1.378 . S
C152 C147 1.350 . S
C153 H140 0.929 . S
C153 C145 1.433 . S
C153 N155 1.384 . S
N154 C150 1.427 1_455 S
N154 C151 1.384 . S
N155 C147 1.427 . S
N155 C153 1.384 . S
H156 C162 0.930 . S
H157 C166 0.930 . S
H158 C171 0.929 . S
H159 C169 0.929 . S
H160 C164 0.929 . S
H161 C170 0.929 . S
C162 H156 0.930 . S
C162 C163 1.367 . S
C162 C170 1.378 . S
C163 C162 1.367 . S
C163 C171 1.433 . S
C164 H160 0.929 . S
C164 C166 1.378 . S
C164 C168 1.350 . S
C165 C168 1.463 1_655 S
C165 C170 1.350 . S
C165 N173 1.427 . S
C166 H157 0.930 . S
C166 C164 1.378 . S
C166 C167 1.367 . S
C167 C166 1.367 . S
C167 C169 1.433 . S
C168 C164 1.350 . S
C168 C165 1.463 1_455 S
C168 N172 1.427 . S
C169 H159 0.929 . S
C169 C167 1.433 . S
C169 N172 1.384 . S
C170 H161 0.929 . S
C170 C162 1.378 . S
C170 C165 1.350 . S
C171 H158 0.929 . S
C171 C163 1.433 . S
C171 N173 1.384 . S
N172 C168 1.427 . S
N172 C169 1.384 . S
N173 C165 1.427 . S
N173 C171 1.384 . S
H174 C180 0.925 1_545 S
H175 C184 0.925 1_565 S
H176 C189 0.929 . S
H177 C187 0.929 . S
H178 C182 0.929 . S
H179 C188 0.929 . S
C180 H174 0.925 1_565 S
C180 C181 1.377 . S
C180 C188 1.374 1_565 S
C181 C180 1.377 . S
C181 C189 1.433 . S
C182 H178 0.929 . S
C182 C184 1.374 1_565 S
C182 C186 1.350 1_565 S
C183 C186 1.463 1_664 S
C183 C188 1.350 1_565 S
C183 N191 1.427 . S
C184 H175 0.925 1_545 S
C184 C182 1.374 1_545 S
C184 C185 1.377 . S
C185 C184 1.377 . S
C185 C187 1.433 . S
C186 C182 1.350 1_545 S
C186 C183 1.463 1_446 S
C186 N190 1.427 . S
C187 H177 0.929 . S
C187 C185 1.433 . S
C187 N190 1.384 . S
C188 H179 0.929 . S
C188 C180 1.374 1_545 S
C188 C183 1.350 1_545 S
C189 H176 0.929 . S
C189 C181 1.433 . S
C189 N191 1.384 . S
N190 C186 1.427 . S
N190 C187 1.384 . S
N191 C183 1.427 . S
N191 C189 1.384 . S
H192 C198 0.930 1_556 S
H193 C202 0.930 . S
H194 C207 0.929 . S
H195 C205 0.929 . S
H196 C200 0.929 . S
H197 C206 0.929 . S
C198 H192 0.930 1_554 S
C198 C199 1.367 . S
C198 C206 1.378 . S
C199 C198 1.367 . S
C199 C207 1.433 . S
C200 H196 0.929 . S
C200 C202 1.378 . S
C200 C204 1.350 . S
C201 C204 1.463 . S
C201 C206 1.350 . S
C201 N209 1.427 . S
C202 H193 0.930 . S
C202 C200 1.378 . S
C202 C203 1.367 . S
C203 C202 1.367 . S
C203 C205 1.433 . S
C204 C200 1.350 . S
C204 C201 1.463 . S
C204 N208 1.427 . S
C205 H195 0.929 . S
C205 C203 1.433 . S
C205 N208 1.384 . S
C206 H197 0.929 . S
C206 C198 1.378 . S
C206 C201 1.350 . S
C207 H194 0.929 . S
C207 C199 1.433 . S
C207 N209 1.384 . S
N208 C204 1.427 . S
N208 C205 1.384 . S
N209 C201 1.427 . S
N209 C207 1.384 . S
H210 C216 0.930 . S
H211 C220 0.930 . S
H212 C225 0.929 . S
H213 C223 0.929 . S
H214 C218 0.929 . S
H215 C224 0.929 . S
C216 H210 0.930 . S
C216 C217 1.367 . S
C216 C224 1.378 . S
C217 C216 1.367 . S
C217 C225 1.433 . S
C218 H214 0.929 . S
C218 C220 1.378 . S
C218 C222 1.350 . S
C219 C222 1.463 . S
C219 C224 1.350 . S
C219 N227 1.427 . S
C220 H211 0.930 . S
C220 C218 1.378 . S
C220 C221 1.367 . S
C221 C220 1.367 . S
C221 C223 1.433 . S
C222 C218 1.350 . S
C222 C219 1.463 . S
C222 N226 1.427 . S
C223 H213 0.929 . S
C223 C221 1.433 . S
C223 N226 1.384 . S
C224 H215 0.929 . S
C224 C216 1.378 . S
C224 C219 1.350 . S
C225 H212 0.929 . S
C225 C217 1.433 . S
C225 N227 1.384 . S
N226 C222 1.427 . S
N226 C223 1.384 . S
N227 C219 1.427 . S
N227 C225 1.384 . S
H228 C234 0.930 . S
H229 C238 0.930 . S
H230 C243 0.929 . S
H231 C241 0.929 . S
H232 C236 0.929 . S
H233 C242 0.929 . S
C234 H228 0.930 . S
C234 C235 1.367 . S
C234 C242 1.378 . S
C235 C234 1.367 . S
C235 C243 1.433 . S
C236 H232 0.929 . S
C236 C238 1.378 . S
C236 C240 1.350 . S
C237 C240 1.463 . S
C237 C242 1.350 . S
C237 N245 1.427 . S
C238 H229 0.930 . S
C238 C236 1.378 . S
C238 C239 1.367 . S
C239 C238 1.367 . S
C239 C241 1.433 . S
C240 C236 1.350 . S
C240 C237 1.463 . S
C240 N244 1.427 . S
C241 H231 0.929 . S
C241 C239 1.433 . S
C241 N244 1.384 . S
C242 H233 0.929 . S
C242 C234 1.378 . S
C242 C237 1.350 . S
C243 H230 0.929 . S
C243 C235 1.433 . S
C243 N245 1.384 . S
N244 C240 1.427 . S
N244 C241 1.384 . S
N245 C237 1.427 . S
N245 C243 1.384 . S
H246 C252 0.930 . S
H247 C256 0.930 . S
H248 C261 0.929 . S
H249 C259 0.929 . S
H250 C254 0.929 . S
H251 C260 0.929 . S
C252 H246 0.930 . S
C252 C253 1.367 . S
C252 C260 1.378 . S
C253 C252 1.367 . S
C253 C261 1.433 . S
C254 H250 0.929 . S
C254 C256 1.378 . S
C254 C258 1.350 . S
C255 C258 1.463 . S
C255 C260 1.350 . S
C255 N263 1.427 . S
C256 H247 0.930 . S
C256 C254 1.378 . S
C256 C257 1.367 . S
C257 C256 1.367 . S
C257 C259 1.433 . S
C258 C254 1.350 . S
C258 C255 1.463 . S
C258 N262 1.427 . S
C259 H249 0.929 . S
C259 C257 1.433 . S
C259 N262 1.384 . S
C260 H251 0.929 . S
C260 C252 1.378 . S
C260 C255 1.350 . S
C261 H248 0.929 . S
C261 C253 1.433 . S
C261 N263 1.384 . S
N262 C258 1.427 . S
N262 C259 1.384 . S
N263 C255 1.427 . S
N263 C261 1.384 . S
H264 C270 0.930 . S
H265 C274 0.930 . S
H266 C279 0.929 . S
H267 C277 0.929 . S
H268 C272 0.929 . S
H269 C278 0.929 . S
C270 H264 0.930 . S
C270 C271 1.367 . S
C270 C278 1.378 . S
C271 C270 1.367 . S
C271 C279 1.433 . S
C272 H268 0.929 . S
C272 C274 1.378 . S
C272 C276 1.350 . S
C273 C276 1.463 . S
C273 C278 1.350 . S
C273 N281 1.427 . S
C274 H265 0.930 . S
C274 C272 1.378 . S
C274 C275 1.367 . S
C275 C274 1.367 . S
C275 C277 1.433 . S
C276 C272 1.350 . S
C276 C273 1.463 . S
C276 N280 1.427 . S
C277 H267 0.929 . S
C277 C275 1.433 . S
C277 N280 1.384 . S
C278 H269 0.929 . S
C278 C270 1.378 . S
C278 C273 1.350 . S
C279 H266 0.929 . S
C279 C271 1.433 . S
C279 N281 1.384 . S
N280 C276 1.427 . S
N280 C277 1.384 . S
N281 C273 1.427 . S
N281 C279 1.384 . S
H282 C288 0.930 . S
H283 C292 0.930 . S
H284 C297 0.931 . S
H285 C295 0.931 . S
H286 C290 0.932 . S
H287 C296 0.932 . S
C288 H282 0.930 . S
C288 C289 1.367 . S
C288 C296 1.378 . S
C289 C288 1.367 . S
C289 C297 1.431 1_556 S
C290 H286 0.932 . S
C290 C292 1.378 . S
C290 C294 1.350 . S
C291 C294 1.463 1_546 S
C291 C296 1.350 . S
C291 N299 1.427 1_556 S
C292 H283 0.930 . S
C292 C290 1.378 . S
C292 C293 1.367 . S
C293 C292 1.367 . S
C293 C295 1.431 1_554 S
C294 C290 1.350 . S
C294 C291 1.463 1_564 S
C294 N298 1.427 1_554 S
C295 H285 0.931 . S
C295 C293 1.431 1_556 S
C295 N298 1.384 . S
C296 H287 0.932 . S
C296 C288 1.378 . S
C296 C291 1.350 . S
C297 H284 0.931 . S
C297 C289 1.431 1_554 S
C297 N299 1.384 . S
N298 C294 1.427 1_556 S
N298 C295 1.384 . S
N299 C291 1.427 1_554 S
N299 C297 1.384 . S
C91 C41 1.691 1_545 S
C95 C4 1.603 . S
C109 C19 1.690 . S
C113 C28 1.596 . S
C127 C83 1.689 1_565 S
C131 C46 1.602 . S
C145 C61 1.701 . S
C149 C70 1.586 . S
C163 C62 0.669 . S
C167 C20 0.669 . S
C181 C40 0.670 . S
C185 C82 0.670 . S
C199 C79 1.181 1_554 S
C203 C16 1.406 . S
C217 C24 1.392 . S
C221 C45 1.185 . S
C235 C37 1.210 1_556 S
C239 C58 1.409 . S
C253 C66 1.395 . S
C257 C3 1.202 . S
C271 C7 1.272 . S
C275 C49 1.272 . S
C289 C67 1.247 . S
C293 C25 1.247 . S
