# Generated by pormake.
# Topology uoe, (4)-cn, num edge types: 1
# Building blocks:
#     Node 0, Type 0, BuildingBlock: CEKHIL_clean_sbu_0, # of connection points: 4
#     Node 1, Type 0, BuildingBlock: CEKHIL_clean_sbu_0, # of connection points: 4
#     Node 2, Type 0, BuildingBlock: CEKHIL_clean_sbu_0, # of connection points: 4
#     Node 3, Type 0, BuildingBlock: CEKHIL_clean_sbu_0, # of connection points: 4
#     Node 4, Type 0, BuildingBlock: CEKHIL_clean_sbu_0, # of connection points: 4
#     Node 5, Type 0, BuildingBlock: CEKHIL_clean_sbu_0, # of connection points: 4
#     Node 6, Type 0, BuildingBlock: CEKHIL_clean_sbu_0, # of connection points: 4
#     Node 7, Type 0, BuildingBlock: CEKHIL_clean_sbu_0, # of connection points: 4
#     Node 8, Type 0, BuildingBlock: CEKHIL_clean_sbu_0, # of connection points: 4
#     Node 9, Type 0, BuildingBlock: CEKHIL_clean_sbu_0, # of connection points: 4
#     Node 10, Type 0, BuildingBlock: CEKHIL_clean_sbu_0, # of connection points: 4
#     Node 11, Type 0, BuildingBlock: CEKHIL_clean_sbu_0, # of connection points: 4
#     Node 12, Type 0, BuildingBlock: CEKHIL_clean_sbu_0, # of connection points: 4
#     Node 13, Type 0, BuildingBlock: CEKHIL_clean_sbu_0, # of connection points: 4
#     Node 14, Type 0, BuildingBlock: CEKHIL_clean_sbu_0, # of connection points: 4
#     Node 15, Type 0, BuildingBlock: CEKHIL_clean_sbu_0, # of connection points: 4
#     Node 16, Type 0, BuildingBlock: CEKHIL_clean_sbu_0, # of connection points: 4
#     Node 17, Type 0, BuildingBlock: CEKHIL_clean_sbu_0, # of connection points: 4
#     Node 18, Type 0, BuildingBlock: CEKHIL_clean_sbu_0, # of connection points: 4
#     Node 19, Type 0, BuildingBlock: CEKHIL_clean_sbu_0, # of connection points: 4
#     Node 20, Type 0, BuildingBlock: CEKHIL_clean_sbu_0, # of connection points: 4
#     Node 21, Type 0, BuildingBlock: CEKHIL_clean_sbu_0, # of connection points: 4
#     Node 22, Type 0, BuildingBlock: CEKHIL_clean_sbu_0, # of connection points: 4
#     Node 23, Type 0, BuildingBlock: CEKHIL_clean_sbu_0, # of connection points: 4
#     Node 24, Type 0, BuildingBlock: CEKHIL_clean_sbu_0, # of connection points: 4
#     Node 25, Type 0, BuildingBlock: CEKHIL_clean_sbu_0, # of connection points: 4
#     Node 26, Type 0, BuildingBlock: CEKHIL_clean_sbu_0, # of connection points: 4
#     Node 27, Type 0, BuildingBlock: CEKHIL_clean_sbu_0, # of connection points: 4
#     Node 28, Type 0, BuildingBlock: CEKHIL_clean_sbu_0, # of connection points: 4
#     Node 29, Type 0, BuildingBlock: CEKHIL_clean_sbu_0, # of connection points: 4
#     Node 30, Type 0, BuildingBlock: CEKHIL_clean_sbu_0, # of connection points: 4
#     Node 31, Type 0, BuildingBlock: CEKHIL_clean_sbu_0, # of connection points: 4
#     Edge 32, Type (0, 0), BuildingBlock: UVAHIK_clean_linker_0, # of connection points: 2
#     Edge 33, Type (0, 0), BuildingBlock: UVAHIK_clean_linker_0, # of connection points: 2
#     Edge 34, Type (0, 0), BuildingBlock: UVAHIK_clean_linker_0, # of connection points: 2
#     Edge 35, Type (0, 0), BuildingBlock: UVAHIK_clean_linker_0, # of connection points: 2
#     Edge 36, Type (0, 0), BuildingBlock: UVAHIK_clean_linker_0, # of connection points: 2
#     Edge 37, Type (0, 0), BuildingBlock: UVAHIK_clean_linker_0, # of connection points: 2
#     Edge 38, Type (0, 0), BuildingBlock: UVAHIK_clean_linker_0, # of connection points: 2
#     Edge 39, Type (0, 0), BuildingBlock: UVAHIK_clean_linker_0, # of connection points: 2
#     Edge 40, Type (0, 0), BuildingBlock: UVAHIK_clean_linker_0, # of connection points: 2
#     Edge 41, Type (0, 0), BuildingBlock: UVAHIK_clean_linker_0, # of connection points: 2
#     Edge 42, Type (0, 0), BuildingBlock: UVAHIK_clean_linker_0, # of connection points: 2
#     Edge 43, Type (0, 0), BuildingBlock: UVAHIK_clean_linker_0, # of connection points: 2
#     Edge 44, Type (0, 0), BuildingBlock: UVAHIK_clean_linker_0, # of connection points: 2
#     Edge 45, Type (0, 0), BuildingBlock: UVAHIK_clean_linker_0, # of connection points: 2
#     Edge 46, Type (0, 0), BuildingBlock: UVAHIK_clean_linker_0, # of connection points: 2
#     Edge 47, Type (0, 0), BuildingBlock: UVAHIK_clean_linker_0, # of connection points: 2
#     Edge 48, Type (0, 0), BuildingBlock: UVAHIK_clean_linker_0, # of connection points: 2
#     Edge 49, Type (0, 0), BuildingBlock: UVAHIK_clean_linker_0, # of connection points: 2
#     Edge 50, Type (0, 0), BuildingBlock: UVAHIK_clean_linker_0, # of connection points: 2
#     Edge 51, Type (0, 0), BuildingBlock: UVAHIK_clean_linker_0, # of connection points: 2
#     Edge 52, Type (0, 0), BuildingBlock: UVAHIK_clean_linker_0, # of connection points: 2
#     Edge 53, Type (0, 0), BuildingBlock: UVAHIK_clean_linker_0, # of connection points: 2
#     Edge 54, Type (0, 0), BuildingBlock: UVAHIK_clean_linker_0, # of connection points: 2
#     Edge 55, Type (0, 0), BuildingBlock: UVAHIK_clean_linker_0, # of connection points: 2
#     Edge 56, Type (0, 0), BuildingBlock: UVAHIK_clean_linker_0, # of connection points: 2
#     Edge 57, Type (0, 0), BuildingBlock: UVAHIK_clean_linker_0, # of connection points: 2
#     Edge 58, Type (0, 0), BuildingBlock: UVAHIK_clean_linker_0, # of connection points: 2
#     Edge 59, Type (0, 0), BuildingBlock: UVAHIK_clean_linker_0, # of connection points: 2
#     Edge 60, Type (0, 0), BuildingBlock: UVAHIK_clean_linker_0, # of connection points: 2
#     Edge 61, Type (0, 0), BuildingBlock: UVAHIK_clean_linker_0, # of connection points: 2
#     Edge 62, Type (0, 0), BuildingBlock: UVAHIK_clean_linker_0, # of connection points: 2
#     Edge 63, Type (0, 0), BuildingBlock: UVAHIK_clean_linker_0, # of connection points: 2
#     Edge 64, Type (0, 0), BuildingBlock: UVAHIK_clean_linker_0, # of connection points: 2
#     Edge 65, Type (0, 0), BuildingBlock: UVAHIK_clean_linker_0, # of connection points: 2
#     Edge 66, Type (0, 0), BuildingBlock: UVAHIK_clean_linker_0, # of connection points: 2
#     Edge 67, Type (0, 0), BuildingBlock: UVAHIK_clean_linker_0, # of connection points: 2
#     Edge 68, Type (0, 0), BuildingBlock: UVAHIK_clean_linker_0, # of connection points: 2
#     Edge 69, Type (0, 0), BuildingBlock: UVAHIK_clean_linker_0, # of connection points: 2
#     Edge 70, Type (0, 0), BuildingBlock: UVAHIK_clean_linker_0, # of connection points: 2
#     Edge 71, Type (0, 0), BuildingBlock: UVAHIK_clean_linker_0, # of connection points: 2
#     Edge 72, Type (0, 0), BuildingBlock: UVAHIK_clean_linker_0, # of connection points: 2
#     Edge 73, Type (0, 0), BuildingBlock: UVAHIK_clean_linker_0, # of connection points: 2
#     Edge 74, Type (0, 0), BuildingBlock: UVAHIK_clean_linker_0, # of connection points: 2
#     Edge 75, Type (0, 0), BuildingBlock: UVAHIK_clean_linker_0, # of connection points: 2
#     Edge 76, Type (0, 0), BuildingBlock: UVAHIK_clean_linker_0, # of connection points: 2
#     Edge 77, Type (0, 0), BuildingBlock: UVAHIK_clean_linker_0, # of connection points: 2
#     Edge 78, Type (0, 0), BuildingBlock: UVAHIK_clean_linker_0, # of connection points: 2
#     Edge 79, Type (0, 0), BuildingBlock: UVAHIK_clean_linker_0, # of connection points: 2
#     Edge 80, Type (0, 0), BuildingBlock: UVAHIK_clean_linker_0, # of connection points: 2
#     Edge 81, Type (0, 0), BuildingBlock: UVAHIK_clean_linker_0, # of connection points: 2
#     Edge 82, Type (0, 0), BuildingBlock: UVAHIK_clean_linker_0, # of connection points: 2
#     Edge 83, Type (0, 0), BuildingBlock: UVAHIK_clean_linker_0, # of connection points: 2
#     Edge 84, Type (0, 0), BuildingBlock: UVAHIK_clean_linker_0, # of connection points: 2
#     Edge 85, Type (0, 0), BuildingBlock: UVAHIK_clean_linker_0, # of connection points: 2
#     Edge 86, Type (0, 0), BuildingBlock: UVAHIK_clean_linker_0, # of connection points: 2
#     Edge 87, Type (0, 0), BuildingBlock: UVAHIK_clean_linker_0, # of connection points: 2
#     Edge 88, Type (0, 0), BuildingBlock: UVAHIK_clean_linker_0, # of connection points: 2
#     Edge 89, Type (0, 0), BuildingBlock: UVAHIK_clean_linker_0, # of connection points: 2
#     Edge 90, Type (0, 0), BuildingBlock: UVAHIK_clean_linker_0, # of connection points: 2
#     Edge 91, Type (0, 0), BuildingBlock: UVAHIK_clean_linker_0, # of connection points: 2
#     Edge 92, Type (0, 0), BuildingBlock: UVAHIK_clean_linker_0, # of connection points: 2
#     Edge 93, Type (0, 0), BuildingBlock: UVAHIK_clean_linker_0, # of connection points: 2
#     Edge 94, Type (0, 0), BuildingBlock: UVAHIK_clean_linker_0, # of connection points: 2
#     Edge 95, Type (0, 0), BuildingBlock: UVAHIK_clean_linker_0, # of connection points: 2
# Relax obj value: 0.181
# Max RMSD: 0.207
# Mean RMSD: 0.207
data_MOF--net-uoe--node1-CEKHIL_clean_sbu_0--edge1-UVAHIK_clean_linker_0
_symmetry_space_group_name_H-M    P1
_symmetry_Int_Tables_number       1
_symmetry_cell_setting            triclinic
loop_
_symmetry_equiv_pos_as_xyz
'x, y, z'
_cell_length_a     97.010178
_cell_length_b     97.037688
_cell_length_c     33.889545
_cell_angle_alpha  90.009451
_cell_angle_beta   89.97554
_cell_angle_gamma 90.00312
loop_
_atom_site_label
_atom_site_type_symbol
_atom_site_fract_x
_atom_site_fract_y
_atom_site_fract_z
_atom_type_partial_charge
Co0 Co 0.09139 0.46351 0.0521 0.0
O1 O 0.1061 0.4503 0.04945 0.0
O2 O 0.08647 0.44707 0.08148 0.0
C3 C 0.09131 0.46935 0.98803 0.0
O4 O 0.07368 0.47469 0.05948 0.0
Co5 Co 0.09724 0.49433 0.0319 0.0
O6 O 0.07682 0.49553 0.03169 0.0
C7 C 0.10742 0.4826 0.10635 0.0
C8 C 0.09857 0.44239 0.07154 0.0
C9 C 0.06906 0.48643 0.04734 0.0
O10 O 0.09998 0.47179 0.10084 0.0
O11 O 0.10869 0.49217 0.0806 0.0
O12 O 0.08492 0.45824 -0.00063 0.0
O13 O 0.09857 0.47541 0.01463 0.0
Co14 Co 0.79095 0.84487 0.28523 0.0
O15 O 0.80383 0.85984 0.28772 0.0
O16 O 0.80656 0.83982 0.31801 0.0
C17 C 0.78723 0.84594 0.22009 0.0
O18 O 0.78002 0.82686 0.28773 0.0
Co19 Co 0.76077 0.85018 0.25822 0.0
O20 O 0.76017 0.82978 0.25445 0.0
C21 C 0.76933 0.85832 0.33814 0.0
C22 C 0.81121 0.85216 0.3108 0.0
C23 C 0.76889 0.82208 0.27194 0.0
O24 O 0.78106 0.8524 0.33285 0.0
O25 O 0.76014 0.85933 0.3112 0.0
O26 O 0.79791 0.83928 0.23336 0.0
O27 O 0.78009 0.85258 0.24585 0.0
Co28 Co 0.41012 0.54152 0.53658 0.0
O29 O 0.39525 0.55454 0.53828 0.0
O30 O 0.41487 0.55678 0.571 0.0
C31 C 0.41002 0.53844 0.47111 0.0
O32 O 0.42799 0.53042 0.54034 0.0
Co33 Co 0.40496 0.51166 0.50693 0.0
O34 O 0.42538 0.51093 0.5052 0.0
C35 C 0.39591 0.51953 0.58663 0.0
C36 C 0.40271 0.56167 0.56259 0.0
C37 C 0.4329 0.51943 0.52419 0.0
O38 O 0.40183 0.53131 0.58255 0.0
O39 O 0.39528 0.51051 0.55911 0.0
O40 O 0.41653 0.54891 0.48614 0.0
O41 O 0.40289 0.53109 0.49534 0.0
Co42 Co 0.71206 0.15744 0.78403 0.0
O43 O 0.69911 0.14251 0.7864 0.0
O44 O 0.697 0.16213 0.81921 0.0
C45 C 0.71481 0.1574 0.71843 0.0
O46 O 0.7231 0.17534 0.78725 0.0
Co47 Co 0.7418 0.1524 0.75302 0.0
O48 O 0.7424 0.17283 0.75116 0.0
C49 C 0.73443 0.1434 0.8331 0.0
C50 C 0.69211 0.14995 0.81111 0.0
C51 C 0.73397 0.18031 0.77055 0.0
O52 O 0.72258 0.14922 0.82948 0.0
O53 O 0.74332 0.14282 0.80525 0.0
O54 O 0.70435 0.1638 0.73396 0.0
O55 O 0.72231 0.15028 0.74234 0.0
Co56 Co 0.10194 0.53704 0.55118 0.0
O57 O 0.11601 0.55096 0.54914 0.0
O58 O 0.09649 0.55161 0.51531 0.0
C59 C 0.10138 0.53426 0.61681 0.0
O60 O 0.08484 0.52478 0.54736 0.0
Co61 Co 0.10898 0.50774 0.58298 0.0
O62 O 0.08864 0.50559 0.58305 0.0
C63 C 0.11773 0.51551 0.50316 0.0
C64 C 0.10828 0.55732 0.52374 0.0
C65 C 0.08065 0.51348 0.56351 0.0
O66 O 0.11111 0.52694 0.50642 0.0
O67 O 0.11883 0.50672 0.53113 0.0
O68 O 0.09477 0.54448 0.60072 0.0
O69 O 0.10931 0.52735 0.5935 0.0
Co70 Co 0.71081 0.84736 0.79128 0.0
O71 O 0.69765 0.86208 0.78903 0.0
O72 O 0.69518 0.84194 0.75914 0.0
C73 C 0.71475 0.84838 0.85637 0.0
O74 O 0.72201 0.82956 0.78872 0.0
Co75 Co 0.74098 0.85329 0.81753 0.0
O76 O 0.74206 0.83289 0.82073 0.0
C77 C 0.7319 0.86141 0.73801 0.0
C78 C 0.69028 0.85416 0.76655 0.0
C79 C 0.73333 0.82501 0.80387 0.0
O80 O 0.72045 0.85496 0.74328 0.0
O81 O 0.74096 0.86286 0.76514 0.0
O82 O 0.70408 0.84169 0.84324 0.0
O83 O 0.72167 0.85523 0.8305 0.0
Co84 Co 0.40285 0.46267 0.04281 0.0
O85 O 0.38808 0.44951 0.04146 0.0
O86 O 0.40831 0.44665 0.01236 0.0
C87 C 0.40177 0.46758 0.10744 0.0
O88 O 0.42071 0.4738 0.03961 0.0
Co89 Co 0.3968 0.49317 0.06547 0.0
O90 O 0.41721 0.49426 0.06923 0.0
C91 C 0.38899 0.48303 0.98682 0.0
C92 C 0.39602 0.44189 0.01974 0.0
C93 C 0.42517 0.48531 0.05371 0.0
O94 O 0.39546 0.47169 0.99355 0.0
O95 O 0.38739 0.49243 0.01292 0.0
O96 O 0.40834 0.45664 0.09566 0.0
O97 O 0.39494 0.47406 0.08066 0.0
Co98 Co 0.79026 0.15571 0.28926 0.0
O99 O 0.80371 0.14121 0.2887 0.0
O100 O 0.80629 0.16144 0.25934 0.0
C101 C 0.78507 0.15461 0.35368 0.0
O102 O 0.77885 0.17333 0.28529 0.0
Co103 Co 0.75974 0.14929 0.31093 0.0
O104 O 0.75827 0.16968 0.31412 0.0
C105 C 0.77048 0.14117 0.23314 0.0
C106 C 0.81126 0.14928 0.26716 0.0
C107 C 0.76721 0.1777 0.29879 0.0
O108 O 0.78162 0.14799 0.23985 0.0
O109 O 0.76102 0.13949 0.25904 0.0
O110 O 0.79592 0.16141 0.34227 0.0
O111 O 0.77881 0.14766 0.3267 0.0
Co112 Co 0.9009 0.54029 0.04246 0.0
O113 O 0.88584 0.55279 0.03474 0.0
O114 O 0.90692 0.5559 0.01124 0.0
C115 C 0.89725 0.53676 0.10692 0.0
O116 O 0.91921 0.52986 0.04614 0.0
Co117 Co 0.89567 0.51003 0.07012 0.0
O118 O 0.91586 0.50999 0.07897 0.0
C119 C 0.88967 0.51813 0.98816 0.0
C120 C 0.89433 0.56038 0.01467 0.0
C121 C 0.92381 0.51891 0.06332 0.0
O122 O 0.89542 0.52994 0.9935 0.0
O123 O 0.88792 0.50923 0.01556 0.0
O124 O 0.90402 0.54764 0.09554 0.0
O125 O 0.89204 0.52934 0.07925 0.0
Co126 Co 0.2116 0.15506 0.79717 0.0
O127 O 0.19881 0.13998 0.79503 0.0
O128 O 0.19595 0.15992 0.76437 0.0
C129 C 0.21536 0.15429 0.86236 0.0
O130 O 0.22236 0.17315 0.79415 0.0
Co131 Co 0.24183 0.15015 0.82435 0.0
O132 O 0.24225 0.17057 0.82743 0.0
C133 C 0.23339 0.14175 0.74451 0.0
C134 C 0.19136 0.14758 0.77188 0.0
C135 C 0.23344 0.17811 0.80971 0.0
O136 O 0.22156 0.14747 0.74973 0.0
O137 O 0.2426 0.14096 0.77146 0.0
O138 O 0.2046 0.16077 0.84887 0.0
O139 O 0.22254 0.14759 0.83678 0.0
Co140 Co 0.59898 0.46098 0.5482 0.0
O141 O 0.61354 0.44762 0.54499 0.0
O142 O 0.59332 0.44571 0.51513 0.0
C143 C 0.60007 0.4646 0.61341 0.0
O144 O 0.5813 0.4724 0.54625 0.0
Co145 Co 0.60504 0.49096 0.57612 0.0
O146 O 0.58465 0.49208 0.57998 0.0
C147 C 0.61279 0.48248 0.49579 0.0
C148 C 0.6055 0.44059 0.52193 0.0
C149 C 0.57677 0.48357 0.56228 0.0
O150 O 0.60669 0.47083 0.50083 0.0
O151 O 0.61404 0.49155 0.52295 0.0
O152 O 0.59331 0.45402 0.59991 0.0
O153 O 0.60697 0.47154 0.58774 0.0
Co154 Co 0.28964 0.84454 0.28799 0.0
O155 O 0.30268 0.85939 0.28645 0.0
O156 O 0.30528 0.83952 0.25526 0.0
C157 C 0.28591 0.84513 0.35325 0.0
O158 O 0.27857 0.82666 0.28456 0.0
Co159 Co 0.25951 0.84997 0.31545 0.0
O160 O 0.25863 0.82955 0.31746 0.0
C161 C 0.26834 0.85897 0.23639 0.0
C162 C 0.31011 0.85171 0.26348 0.0
C163 C 0.26736 0.82189 0.29982 0.0
O164 O 0.27982 0.85249 0.24072 0.0
O165 O 0.25936 0.86009 0.26392 0.0
O166 O 0.29655 0.83855 0.33946 0.0
O167 O 0.27883 0.85205 0.32793 0.0
Co168 Co 0.91133 0.46071 0.53789 0.0
O169 O 0.89495 0.44959 0.53755 0.0
O170 O 0.91473 0.44351 0.5651 0.0
C171 C 0.91055 0.46724 0.4745 0.0
O172 O 0.93057 0.46934 0.54244 0.0
Co173 Co 0.90905 0.49233 0.52151 0.0
O174 O 0.92943 0.49145 0.52241 0.0
C175 C 0.89788 0.48057 0.5943 0.0
C176 C 0.9019 0.44056 0.55757 0.0
C177 C 0.9363 0.48093 0.53339 0.0
O178 O 0.90497 0.46953 0.58859 0.0
O179 O 0.89693 0.4902 0.56868 0.0
O180 O 0.9156 0.45521 0.48337 0.0
O181 O 0.905 0.47395 0.50309 0.0
Co182 Co 0.29106 0.15825 0.29209 0.0
O183 O 0.30428 0.14357 0.29349 0.0
O184 O 0.30676 0.16356 0.32415 0.0
C185 C 0.28694 0.15743 0.22705 0.0
O186 O 0.27975 0.17599 0.29554 0.0
Co187 Co 0.26086 0.15217 0.26641 0.0
O188 O 0.25962 0.17257 0.26405 0.0
C189 C 0.27035 0.14356 0.34508 0.0
C190 C 0.31166 0.15137 0.31627 0.0
C191 C 0.26833 0.18048 0.28087 0.0
O192 O 0.28162 0.15034 0.34002 0.0
O193 O 0.26126 0.14211 0.31802 0.0
O194 O 0.2976 0.16417 0.2401 0.0
O195 O 0.28014 0.15047 0.25292 0.0
Co196 Co 0.59321 0.53981 0.04321 0.0
O197 O 0.60821 0.5527 0.04418 0.0
O198 O 0.58813 0.55589 0.07393 0.0
C199 C 0.5942 0.53501 0.97846 0.0
O200 O 0.57518 0.52895 0.04694 0.0
Co201 Co 0.59858 0.5092 0.0194 0.0
O202 O 0.57816 0.50836 0.01752 0.0
C203 C 0.60759 0.5193 0.09709 0.0
C204 C 0.60045 0.56046 0.06606 0.0
C205 C 0.57045 0.51744 0.03345 0.0
O206 O 0.60077 0.53055 0.09189 0.0
O207 O 0.60897 0.51011 0.0703 0.0
O208 O 0.58777 0.54603 0.99035 0.0
O209 O 0.6008 0.52834 0.00529 0.0
Co210 Co 0.21191 0.84736 0.78516 0.0
O211 O 0.1973 0.86071 0.78621 0.0
O212 O 0.19716 0.84091 0.81894 0.0
C213 C 0.21558 0.84788 0.71992 0.0
O214 O 0.22475 0.83075 0.78931 0.0
Co215 Co 0.24136 0.8555 0.75756 0.0
O216 O 0.24411 0.83523 0.75515 0.0
C217 C 0.23211 0.86334 0.8371 0.0
C218 C 0.191 0.85244 0.81028 0.0
C219 C 0.23623 0.82691 0.77354 0.0
O220 O 0.2209 0.85649 0.83191 0.0
O221 O 0.24127 0.86488 0.81026 0.0
O222 O 0.20564 0.84035 0.73409 0.0
O223 O 0.22189 0.85569 0.74482 0.0
Co224 Co 0.59203 0.96039 0.53581 0.0
O225 O 0.60659 0.94701 0.53607 0.0
O226 O 0.58734 0.94529 0.57081 0.0
C227 C 0.59135 0.9634 0.4704 0.0
O228 O 0.57451 0.97191 0.54146 0.0
Co229 Co 0.5975 0.99009 0.50551 0.0
O230 O 0.5771 0.99142 0.50644 0.0
C231 C 0.60732 0.98209 0.5843 0.0
C232 C 0.59926 0.9401 0.56123 0.0
C233 C 0.56965 0.98307 0.52618 0.0
O234 O 0.60113 0.97043 0.5808 0.0
O235 O 0.60779 0.9911 0.55676 0.0
O236 O 0.58479 0.9531 0.48623 0.0
O237 O 0.59898 0.97062 0.49371 0.0
Co238 Co 0.28907 0.34535 0.78534 0.0
O239 O 0.30211 0.36021 0.78751 0.0
O240 O 0.30477 0.34011 0.81746 0.0
C241 C 0.28505 0.34649 0.72032 0.0
O242 O 0.27805 0.32741 0.78818 0.0
Co243 Co 0.25879 0.35074 0.75942 0.0
O244 O 0.25806 0.33034 0.75565 0.0
C245 C 0.26778 0.35893 0.83898 0.0
C246 C 0.30952 0.3524 0.8102 0.0
C247 C 0.26685 0.32264 0.77284 0.0
O248 O 0.27945 0.35293 0.83336 0.0
O249 O 0.2585 0.35997 0.81232 0.0
O250 O 0.29574 0.33977 0.73316 0.0
O251 O 0.27807 0.35316 0.74643 0.0
Co252 Co 0.90732 0.03986 0.04746 0.0
O253 O 0.89263 0.05312 0.04667 0.0
O254 O 0.9126 0.05606 0.07722 0.0
C255 C 0.90693 0.03432 0.98322 0.0
O256 O 0.92507 0.0287 0.05287 0.0
Co257 Co 0.90138 0.00915 0.02637 0.0
O258 O 0.9218 0.00799 0.02441 0.0
C259 C 0.89209 0.0203 0.10248 0.0
C260 C 0.90044 0.06085 0.06849 0.0
C261 C 0.92964 0.01708 0.0398 0.0
O262 O 0.89924 0.03129 0.09653 0.0
O263 O 0.89063 0.01083 0.07652 0.0
O264 O 0.91334 0.04541 0.99461 0.0
O265 O 0.8998 0.02814 0.00996 0.0
Co266 Co 0.21451 0.6535 0.28392 0.0
O267 O 0.20169 0.6384 0.28403 0.0
O268 O 0.19846 0.6582 0.31521 0.0
C269 C 0.2194 0.65345 0.21928 0.0
O270 O 0.22524 0.67156 0.28881 0.0
Co271 Co 0.24517 0.64847 0.26029 0.0
O272 O 0.24566 0.6689 0.2582 0.0
C273 C 0.23537 0.63953 0.33819 0.0
C274 C 0.19397 0.6459 0.3068 0.0
C275 C 0.23659 0.67646 0.27474 0.0
O276 O 0.22379 0.64564 0.33209 0.0
O277 O 0.2449 0.63864 0.31219 0.0
O278 O 0.20823 0.65948 0.23179 0.0
O279 O 0.22606 0.6464 0.24524 0.0
Co280 Co 0.59926 0.03766 0.04004 0.0
O281 O 0.61415 0.05068 0.03948 0.0
O282 O 0.59406 0.05383 0.00987 0.0
C283 C 0.60002 0.03257 0.10458 0.0
O284 O 0.58132 0.02668 0.03606 0.0
Co285 Co 0.60504 0.00705 0.06209 0.0
O286 O 0.58463 0.00614 0.06544 0.0
C287 C 0.61329 0.0174 0.98404 0.0
C288 C 0.60635 0.05846 0.01778 0.0
C289 C 0.57675 0.01516 0.04992 0.0
O290 O 0.6068 0.02873 0.99079 0.0
O291 O 0.61476 0.00793 0.00998 0.0
O292 O 0.59361 0.04361 0.09284 0.0
O293 O 0.60692 0.0261 0.07786 0.0
Co294 Co 0.2099 0.3468 0.2898 0.0
O295 O 0.19643 0.36124 0.28807 0.0
O296 O 0.1945 0.34132 0.25674 0.0
C297 C 0.21356 0.34742 0.35507 0.0
O298 O 0.22154 0.32928 0.28657 0.0
Co299 Co 0.2398 0.35332 0.31733 0.0
O300 O 0.24138 0.33293 0.31938 0.0
C301 C 0.23084 0.36177 0.23804 0.0
C302 C 0.18931 0.35337 0.26481 0.0
C303 C 0.23292 0.32494 0.30186 0.0
O304 O 0.21954 0.35499 0.24261 0.0
O305 O 0.23977 0.36326 0.26551 0.0
O306 O 0.2031 0.34057 0.34117 0.0
O307 O 0.22041 0.35463 0.32986 0.0
Co308 Co 0.9047 0.96215 0.55116 0.0
O309 O 0.88957 0.94938 0.54902 0.0
O310 O 0.90941 0.94665 0.51769 0.0
C311 C 0.90442 0.96581 0.61654 0.0
O312 O 0.92283 0.97288 0.54789 0.0
Co313 Co 0.89995 0.99235 0.57959 0.0
O314 O 0.92039 0.99271 0.58163 0.0
C315 C 0.89107 0.98415 0.50007 0.0
C316 C 0.8971 0.94203 0.52539 0.0
C317 C 0.92784 0.98394 0.56347 0.0
O318 O 0.89693 0.97235 0.50441 0.0
O319 O 0.89035 0.99322 0.52742 0.0
O320 O 0.91053 0.95491 0.60252 0.0
O321 O 0.89757 0.973 0.59135 0.0
Co322 Co 0.29242 0.65904 0.78822 0.0
O323 O 0.30474 0.64356 0.78714 0.0
O324 O 0.3085 0.66337 0.75657 0.0
C325 C 0.2879 0.65863 0.8532 0.0
O326 O 0.28224 0.67747 0.78444 0.0
Co327 Co 0.26176 0.65491 0.81356 0.0
O328 O 0.26194 0.67534 0.81604 0.0
C329 C 0.27106 0.64518 0.73581 0.0
C330 C 0.31266 0.65092 0.7646 0.0
C331 C 0.27114 0.68267 0.79925 0.0
O332 O 0.28259 0.6516 0.74024 0.0
O333 O 0.26196 0.64428 0.76303 0.0
O334 O 0.29913 0.66451 0.84059 0.0
O335 O 0.28088 0.6521 0.82697 0.0
Co336 Co 0.40376 0.04171 0.55506 0.0
O337 O 0.389 0.05481 0.55103 0.0
O338 O 0.40938 0.0571 0.5223 0.0
C339 C 0.4022 0.03822 0.62027 0.0
O340 O 0.42163 0.03058 0.55417 0.0
Co341 Co 0.39796 0.0117 0.58284 0.0
O342 O 0.41832 0.01091 0.58801 0.0
C343 C 0.39091 0.01985 0.50166 0.0
C344 C 0.39708 0.06202 0.52854 0.0
C345 C 0.42621 0.0195 0.57063 0.0
O346 O 0.39659 0.03169 0.5072 0.0
O347 O 0.38966 0.01076 0.52878 0.0
O348 O 0.409 0.0488 0.607 0.0
O349 O 0.39561 0.03108 0.59435 0.0
Co350 Co 0.71007 0.65587 0.29257 0.0
O351 O 0.69678 0.64125 0.29044 0.0
O352 O 0.69457 0.6613 0.25988 0.0
C353 C 0.71381 0.65493 0.35773 0.0
O354 O 0.72146 0.67358 0.28972 0.0
Co355 Co 0.74012 0.64988 0.31974 0.0
O356 O 0.74119 0.67027 0.32326 0.0
C357 C 0.73139 0.64186 0.23984 0.0
C358 C 0.68955 0.64914 0.26749 0.0
C359 C 0.73267 0.67813 0.30555 0.0
O360 O 0.71976 0.64798 0.24506 0.0
O361 O 0.74055 0.64072 0.26679 0.0
O362 O 0.70327 0.66176 0.3443 0.0
O363 O 0.72075 0.648 0.33208 0.0
Co364 Co 0.09645 0.96182 0.03721 0.0
O365 O 0.1105 0.94786 0.03664 0.0
O366 O 0.09033 0.94623 0.00626 0.0
C367 C 0.09729 0.96681 0.10174 0.0
O368 O 0.07918 0.97376 0.03305 0.0
Co369 Co 0.10361 0.99208 0.06007 0.0
O370 O 0.08325 0.99408 0.06287 0.0
C371 C 0.1118 0.98141 0.98234 0.0
C372 C 0.10227 0.94078 0.01426 0.0
C373 C 0.07505 0.98542 0.04698 0.0
O374 O 0.10464 0.97045 0.98846 0.0
O375 O 0.11362 0.99073 0.00856 0.0
O376 O 0.09034 0.95611 0.08979 0.0
O377 O 0.10461 0.9729 0.07526 0.0
Co378 Co 0.79055 0.34718 0.79547 0.0
O379 O 0.80353 0.36206 0.7915 0.0
O380 O 0.80533 0.34216 0.75985 0.0
C381 C 0.78802 0.34766 0.86123 0.0
O382 O 0.77947 0.32927 0.79374 0.0
Co383 Co 0.76092 0.35237 0.8278 0.0
O384 O 0.76022 0.33195 0.82999 0.0
C385 C 0.76793 0.36107 0.74722 0.0
C386 C 0.81031 0.35438 0.76685 0.0
C387 C 0.7686 0.32439 0.81069 0.0
O388 O 0.77974 0.35512 0.75019 0.0
O389 O 0.75925 0.36185 0.77556 0.0
O390 O 0.79853 0.34128 0.84582 0.0
O391 O 0.78049 0.35455 0.83694 0.0
Co392 Co 0.40885 0.96062 0.04671 0.0
O393 O 0.39395 0.94766 0.04845 0.0
O394 O 0.41406 0.9447 0.07811 0.0
C395 C 0.40765 0.96486 0.98179 0.0
O396 O 0.4268 0.97163 0.04945 0.0
Co397 Co 0.40316 0.99095 0.02163 0.0
O398 O 0.42356 0.99181 0.01811 0.0
C399 C 0.39492 0.98151 0.10076 0.0
C400 C 0.40176 0.94002 0.07045 0.0
C401 C 0.43141 0.98297 0.03454 0.0
O402 O 0.40139 0.97008 0.09522 0.0
O403 O 0.3935 0.99066 0.07387 0.0
O404 O 0.41434 0.9541 0.99431 0.0
O405 O 0.401 0.97173 0.00813 0.0
Co406 Co 0.78883 0.65784 0.78798 0.0
O407 O 0.80215 0.64324 0.78829 0.0
O408 O 0.80459 0.66311 0.81971 0.0
C409 C 0.78452 0.65738 0.72304 0.0
O410 O 0.7775 0.67549 0.79262 0.0
Co411 Co 0.75856 0.65193 0.76265 0.0
O412 O 0.75726 0.67235 0.76149 0.0
C413 C 0.76827 0.64287 0.84075 0.0
C414 C 0.80958 0.65103 0.81098 0.0
C415 C 0.76604 0.6801 0.77856 0.0
O416 O 0.77956 0.64962 0.83577 0.0
O417 O 0.75911 0.64161 0.81381 0.0
O418 O 0.7952 0.66406 0.73615 0.0
O419 O 0.77781 0.65026 0.74875 0.0
Co420 Co 0.09519 0.03973 0.53266 0.0
O421 O 0.11033 0.05244 0.53515 0.0
O422 O 0.09048 0.05516 0.56642 0.0
C423 C 0.09571 0.03628 0.4672 0.0
O424 O 0.07707 0.02897 0.53554 0.0
Co425 Co 0.1 0.00959 0.50371 0.0
O426 O 0.07957 0.00918 0.50168 0.0
C427 C 0.1088 0.01764 0.58346 0.0
C428 C 0.10281 0.05976 0.55888 0.0
C429 C 0.07209 0.01791 0.51991 0.0
O430 O 0.1029 0.02943 0.57928 0.0
O431 O 0.10958 0.00863 0.55595 0.0
O432 O 0.08948 0.04709 0.48132 0.0
O433 O 0.10242 0.02898 0.49244 0.0
Co434 Co 0.71361 0.34562 0.29173 0.0
O435 O 0.70046 0.36039 0.29029 0.0
O436 O 0.69711 0.34036 0.3201 0.0
C437 C 0.7198 0.34615 0.22802 0.0
O438 O 0.72463 0.3278 0.29764 0.0
Co439 Co 0.74456 0.35147 0.27334 0.0
O440 O 0.74567 0.33105 0.27118 0.0
C441 C 0.73267 0.36053 0.34876 0.0
C442 C 0.69249 0.35259 0.31146 0.0
C443 C 0.73639 0.32322 0.28561 0.0
O444 O 0.72172 0.35346 0.34165 0.0
O445 O 0.74242 0.36205 0.32367 0.0
O446 O 0.70855 0.33978 0.23836 0.0
O447 O 0.72575 0.35318 0.25537 0.0
C448 C 0.94831 0.52505 0.04541 0.0
C449 C 0.93889 0.51615 0.06404 0.0
C450 C 0.96243 0.52202 0.04519 0.0
C451 C 0.98668 0.49281 0.05575 0.0
H452 H 0.01397 0.52141 0.07196 0.0
C453 C 0.045 0.48063 0.07034 0.0
C454 C 0.05415 0.48969 0.05131 0.0
C455 C 0.03095 0.48385 0.0734 0.0
C456 C 0.00649 0.51331 0.06698 0.0
H457 H 0.93711 0.4972 0.09784 0.0
H458 H 0.96159 0.49203 0.09757 0.0
H459 H 0.98953 0.52725 0.07383 0.0
H460 H 0.05556 0.50924 0.02027 0.0
H461 H 0.03125 0.51468 0.02513 0.0
H462 H 0.00361 0.47889 0.04853 0.0
C463 C 0.95806 0.50124 0.08259 0.0
C464 C 0.99247 0.51668 0.06804 0.0
C465 C 0.94399 0.50427 0.08291 0.0
C466 C 0.04889 0.50202 0.03543 0.0
C467 C 0.0349 0.50522 0.03841 0.0
C468 C 1.00069 0.48945 0.05459 0.0
C469 C 0.96745 0.51 0.06349 0.0
C470 C 0.98239 0.50647 0.06238 0.0
C471 C 0.02573 0.4962 0.05746 0.0
C472 C 0.01079 0.49967 0.06005 0.0
H473 H 0.94477 0.53428 0.03059 0.0
H474 H 0.96939 0.52893 0.02994 0.0
H475 H 0.97919 0.48472 0.05071 0.0
H476 H 0.04867 0.47105 0.08296 0.0
H477 H 0.02419 0.47673 0.08861 0.0
C478 C 0.75418 0.80166 0.25523 0.0
C479 C 0.76576 0.80712 0.27474 0.0
C480 C 0.75088 0.7877 0.25831 0.0
C481 C 0.75625 0.75718 0.32131 0.0
H482 H 0.74286 0.7373 0.2297 0.0
C483 C 0.74782 0.69828 0.32201 0.0
C484 C 0.73612 0.69302 0.30257 0.0
C485 C 0.75136 0.71218 0.31883 0.0
C486 C 0.74641 0.74275 0.25568 0.0
H487 H 0.78307 0.802 0.3125 0.0
H488 H 0.77735 0.77753 0.31768 0.0
H489 H 0.74968 0.76138 0.22323 0.0
H490 H 0.71889 0.69843 0.26483 0.0
H491 H 0.72505 0.72277 0.25949 0.0
H492 H 0.75297 0.73854 0.35377 0.0
C493 C 0.77073 0.78416 0.30031 0.0
C494 C 0.75035 0.75655 0.25196 0.0
C495 C 0.77406 0.79818 0.29715 0.0
C496 C 0.72798 0.70209 0.28012 0.0
C497 C 0.73156 0.71603 0.27685 0.0
C498 C 0.75231 0.74337 0.32503 0.0
C499 C 0.75907 0.77877 0.28099 0.0
C500 C 0.75529 0.76395 0.28475 0.0
C501 C 0.74332 0.72123 0.29611 0.0
C502 C 0.74733 0.73599 0.29227 0.0
H503 H 0.74753 0.80819 0.23763 0.0
H504 H 0.74174 0.78395 0.24346 0.0
H505 H 0.75979 0.76263 0.3473 0.0
H506 H 0.75434 0.69164 0.33964 0.0
H507 H 0.76057 0.71578 0.33365 0.0
C508 C 0.45344 0.5047 0.50876 0.0
C509 C 0.44781 0.51623 0.52817 0.0
C510 C 0.46738 0.50144 0.5126 0.0
C511 C 0.49754 0.50678 0.57703 0.0
H512 H 0.51793 0.49393 0.48567 0.0
C513 C 0.55655 0.4986 0.57913 0.0
C514 C 0.56188 0.48699 0.5594 0.0
C515 C 0.54264 0.50211 0.57582 0.0
C516 C 0.51235 0.49733 0.51157 0.0
H517 H 0.45261 0.53343 0.56673 0.0
H518 H 0.47705 0.52775 0.57323 0.0
H519 H 0.49384 0.50061 0.47855 0.0
H520 H 0.55658 0.46987 0.5211 0.0
H521 H 0.53225 0.47598 0.51553 0.0
H522 H 0.51607 0.5035 0.61004 0.0
C523 C 0.47056 0.52116 0.55533 0.0
C524 C 0.49854 0.50119 0.50749 0.0
C525 C 0.45656 0.52446 0.55141 0.0
C526 C 0.55287 0.47889 0.53661 0.0
C527 C 0.53893 0.48245 0.53321 0.0
C528 C 0.51137 0.50293 0.58111 0.0
C529 C 0.47612 0.5096 0.53595 0.0
C530 C 0.49095 0.50591 0.54018 0.0
C531 C 0.53367 0.49413 0.55266 0.0
C532 C 0.51893 0.49812 0.54845 0.0
H533 H 0.44706 0.4981 0.49059 0.0
H534 H 0.47127 0.49235 0.49772 0.0
H535 H 0.49195 0.51017 0.60293 0.0
H536 H 0.56315 0.50507 0.59704 0.0
H537 H 0.53897 0.51125 0.59085 0.0
C538 C 0.72902 0.2039 0.79827 0.0
C539 C 0.73712 0.19523 0.77439 0.0
C540 C 0.73228 0.2179 0.80215 0.0
C541 C 0.75169 0.24612 0.75368 0.0
H542 H 0.75007 0.26328 0.85688 0.0
C543 C 0.77339 0.30075 0.78316 0.0
C544 C 0.76538 0.30948 0.80707 0.0
C545 C 0.77003 0.28677 0.7793 0.0
C546 C 0.75045 0.25868 0.82777 0.0
H547 H 0.75493 0.19463 0.73553 0.0
H548 H 0.7606 0.21887 0.74258 0.0
H549 H 0.7436 0.23912 0.84953 0.0
H550 H 0.74759 0.31022 0.84603 0.0
H551 H 0.74174 0.28601 0.83902 0.0
H552 H 0.75854 0.26567 0.73192 0.0
C553 C 0.75166 0.21491 0.75803 0.0
C554 C 0.74671 0.24484 0.82356 0.0
C555 C 0.74845 0.20095 0.75423 0.0
C556 C 0.75402 0.30385 0.82731 0.0
C557 C 0.7507 0.28991 0.82352 0.0
C558 C 0.75543 0.25996 0.75789 0.0
C559 C 0.74366 0.22356 0.7821 0.0
C560 C 0.74731 0.23838 0.78647 0.0
C561 C 0.75862 0.2812 0.79939 0.0
C562 C 0.75485 0.26641 0.79499 0.0
H563 H 0.72021 0.19988 0.81416 0.0
H564 H 0.72581 0.22432 0.8206 0.0
H565 H 0.75208 0.24152 0.72457 0.0
H566 H 0.78222 0.3047 0.7672 0.0
H567 H 0.77644 0.28031 0.76081 0.0
C568 C 0.06123 0.49717 0.57783 0.0
C569 C 0.06603 0.5092 0.5591 0.0
C570 C 0.04753 0.49298 0.57389 0.0
C571 C 0.01674 0.49727 0.51089 0.0
H572 H 0.99703 0.4839 0.60288 0.0
C573 C 0.9578 0.49372 0.51614 0.0
C574 C 0.95152 0.48239 0.53484 0.0
C575 C 0.97202 0.49558 0.51762 0.0
C576 C 0.00246 0.48739 0.57679 0.0
H577 H 0.06004 0.52628 0.52154 0.0
H578 H 0.03605 0.51903 0.51496 0.0
H579 H 0.02127 0.49032 0.60866 0.0
H580 H 0.95542 0.46398 0.56931 0.0
H581 H 0.98048 0.46731 0.57214 0.0
H582 H 0.99787 0.49455 0.47918 0.0
C583 C 0.04299 0.51274 0.53233 0.0
C584 C 0.01634 0.49111 0.58009 0.0
C585 C 0.05673 0.51695 0.53631 0.0
C586 C 0.95991 0.47282 0.55469 0.0
C587 C 0.97424 0.47477 0.55644 0.0
C588 C 0.00287 0.49357 0.50761 0.0
C589 C 0.03823 0.50071 0.55112 0.0
C590 C 0.0236 0.49626 0.54729 0.0
C591 C 0.98043 0.4862 0.53794 0.0
C592 C 0.99551 0.48878 0.54065 0.0
H593 H 0.06806 0.4909 0.59562 0.0
H594 H 0.04426 0.48358 0.58836 0.0
H595 H 0.0221 0.50092 0.48487 0.0
H596 H 0.95171 0.50126 0.50027 0.0
H597 H 0.97641 0.50459 0.50352 0.0
C598 C 0.77183 0.7041 0.80157 0.0
C599 C 0.76277 0.695 0.78234 0.0
C600 C 0.76866 0.71814 0.80466 0.0
C601 C 0.73939 0.74263 0.79934 0.0
H602 H 0.76802 0.76985 0.78227 0.0
C603 C 0.72752 0.80082 0.78267 0.0
C604 C 0.73653 0.81007 0.80152 0.0
C605 C 0.73067 0.78675 0.78066 0.0
C606 C 0.75993 0.76238 0.78753 0.0
H607 H 0.74325 0.69363 0.75113 0.0
H608 H 0.73786 0.718 0.75621 0.0
H609 H 0.7737 0.7454 0.77896 0.0
H610 H 0.75591 0.81165 0.83335 0.0
H611 H 0.76128 0.78723 0.83007 0.0
H612 H 0.72561 0.75961 0.8078 0.0
C613 C 0.74731 0.71428 0.76944 0.0
C614 C 0.7632 0.74836 0.78569 0.0
C615 C 0.75047 0.70028 0.76634 0.0
C616 C 0.74873 0.80488 0.81838 0.0
C617 C 0.75187 0.79086 0.81633 0.0
C618 C 0.73612 0.75665 0.80116 0.0
C619 C 0.75635 0.72339 0.78862 0.0
C620 C 0.75296 0.73831 0.79148 0.0
C621 C 0.74291 0.78162 0.7974 0.0
C622 C 0.74634 0.76669 0.79524 0.0
H623 H 0.78138 0.70041 0.8143 0.0
H624 H 0.77578 0.72485 0.82001 0.0
H625 H 0.73129 0.73516 0.80456 0.0
H626 H 0.71804 0.80443 0.76932 0.0
H627 H 0.7236 0.77993 0.76549 0.0
C628 C 0.54631 0.5237 0.0546 0.0
C629 C 0.55548 0.51438 0.03667 0.0
C630 C 0.53223 0.52064 0.05733 0.0
C631 C 0.50764 0.49136 0.05356 0.0
H632 H 0.48056 0.51978 0.03239 0.0
C633 C 0.44954 0.47926 0.03452 0.0
C634 C 0.44015 0.48849 0.05187 0.0
C635 C 0.46363 0.4824 0.03308 0.0
C636 C 0.48799 0.51175 0.03881 0.0
H637 H 0.55688 0.4945 0.00733 0.0
H638 H 0.53247 0.48931 0.01176 0.0
H639 H 0.50504 0.52543 0.03006 0.0
H640 H 0.43834 0.50825 0.08166 0.0
H641 H 0.46278 0.51358 0.07939 0.0
H642 H 0.49059 0.47768 0.0622 0.0
C643 C 0.53616 0.49889 0.02429 0.0
C644 C 0.50203 0.515 0.03753 0.0
C645 C 0.55019 0.50194 0.02154 0.0
C646 C 0.44521 0.5009 0.06782 0.0
C647 C 0.45926 0.50402 0.06635 0.0
C648 C 0.4936 0.48811 0.05483 0.0
C649 C 0.52699 0.50817 0.04224 0.0
C650 C 0.51203 0.50484 0.04476 0.0
C651 C 0.46865 0.49483 0.04892 0.0
C652 C 0.4836 0.49826 0.04739 0.0
H653 H 0.55 0.53336 0.06664 0.0
H654 H 0.52546 0.52796 0.07169 0.0
H655 H 0.51506 0.48333 0.0599 0.0
H656 H 0.44603 0.46962 0.02192 0.0
H657 H 0.47057 0.47515 0.01907 0.0
C658 C 0.72971 0.29895 0.30401 0.0
C659 C 0.73938 0.30823 0.2882 0.0
C660 C 0.73259 0.28482 0.30563 0.0
C661 C 0.76163 0.26 0.30291 0.0
H662 H 0.73326 0.23353 0.27567 0.0
C663 C 0.77347 0.20209 0.28077 0.0
C664 C 0.76398 0.19265 0.29672 0.0
C665 C 0.77041 0.21618 0.27964 0.0
C666 C 0.74126 0.24078 0.28375 0.0
H667 H 0.7597 0.3098 0.26151 0.0
H668 H 0.76461 0.2853 0.26404 0.0
H669 H 0.72793 0.25809 0.27487 0.0
H670 H 0.74379 0.19073 0.324 0.0
H671 H 0.73857 0.21521 0.32223 0.0
H672 H 0.77497 0.2427 0.3117 0.0
C673 C 0.75488 0.28894 0.27576 0.0
C674 C 0.7382 0.25486 0.28335 0.0
C675 C 0.752 0.30302 0.27414 0.0
C676 C 0.75135 0.19765 0.31133 0.0
C677 C 0.7483 0.21171 0.31014 0.0
C678 C 0.7647 0.24592 0.30328 0.0
C679 C 0.74523 0.27965 0.29152 0.0
C680 C 0.74836 0.26465 0.29284 0.0
C681 C 0.75779 0.22116 0.29437 0.0
C682 C 0.75456 0.23614 0.29365 0.0
H683 H 0.71989 0.30258 0.31512 0.0
H684 H 0.72499 0.27796 0.31831 0.0
H685 H 0.76964 0.26724 0.31099 0.0
H686 H 0.78328 0.19862 0.26921 0.0
H687 H 0.77789 0.22317 0.26688 0.0
C688 C 0.27219 0.29881 0.79811 0.0
C689 C 0.26376 0.30768 0.7759 0.0
C690 C 0.26894 0.28479 0.80157 0.0
C691 C 0.24862 0.25694 0.75438 0.0
H692 H 0.25198 0.23918 0.85638 0.0
C693 C 0.22791 0.20185 0.78393 0.0
C694 C 0.2364 0.19309 0.80637 0.0
C695 C 0.23104 0.21589 0.78032 0.0
C696 C 0.25111 0.24394 0.82758 0.0
H697 H 0.24536 0.30863 0.73943 0.0
H698 H 0.23971 0.28435 0.74572 0.0
H699 H 0.25828 0.26337 0.84934 0.0
H700 H 0.25477 0.19238 0.84299 0.0
H701 H 0.26021 0.21669 0.83639 0.0
H702 H 0.24146 0.23749 0.73262 0.0
C703 C 0.24889 0.28817 0.76022 0.0
C704 C 0.25475 0.25781 0.82355 0.0
C705 C 0.25211 0.30215 0.75686 0.0
C706 C 0.24798 0.19877 0.8254 0.0
C707 C 0.25107 0.21276 0.82187 0.0
C708 C 0.24498 0.24306 0.75842 0.0
C709 C 0.25722 0.27932 0.78275 0.0
C710 C 0.25355 0.26449 0.78689 0.0
C711 C 0.24268 0.22151 0.7992 0.0
C712 C 0.24621 0.23638 0.79506 0.0
H713 H 0.28125 0.30268 0.81309 0.0
H714 H 0.27566 0.27822 0.81876 0.0
H715 H 0.24775 0.26171 0.7256 0.0
H716 H 0.2189 0.19786 0.76893 0.0
H717 H 0.22427 0.22237 0.76298 0.0
C718 C 0.27326 0.79786 0.27715 0.0
C719 C 0.26426 0.80692 0.29677 0.0
C720 C 0.27023 0.78377 0.27469 0.0
C721 C 0.24126 0.75898 0.28244 0.0
H722 H 0.27033 0.73211 0.29761 0.0
C723 C 0.23032 0.70043 0.29729 0.0
C724 C 0.23946 0.69147 0.27781 0.0
C725 C 0.23322 0.71455 0.29992 0.0
C726 C 0.26211 0.73947 0.29291 0.0
H727 H 0.245 0.80816 0.32938 0.0
H728 H 0.23985 0.78372 0.32535 0.0
H729 H 0.27574 0.75661 0.3007 0.0
H730 H 0.25877 0.69047 0.24536 0.0
H731 H 0.26367 0.71492 0.24964 0.0
H732 H 0.22763 0.74184 0.27461 0.0
C733 C 0.24915 0.7875 0.31135 0.0
C734 C 0.26522 0.75353 0.29462 0.0
C735 C 0.25217 0.80154 0.31384 0.0
C736 C 0.25151 0.69699 0.26089 0.0
C737 C 0.25439 0.71105 0.26351 0.0
C738 C 0.23814 0.74492 0.28071 0.0
C739 C 0.25812 0.77843 0.29174 0.0
C740 C 0.25484 0.76346 0.2894 0.0
C741 C 0.24532 0.72001 0.28314 0.0
C742 C 0.24854 0.73499 0.28584 0.0
H743 H 0.28265 0.80162 0.26362 0.0
H744 H 0.27729 0.77708 0.25901 0.0
H745 H 0.23304 0.76636 0.27774 0.0
H746 H 0.22095 0.69656 0.31068 0.0
H747 H 0.22607 0.72116 0.31556 0.0
C748 C 0.25262 0.20043 0.26716 0.0
C749 C 0.26495 0.19539 0.28363 0.0
C750 C 0.24929 0.2144 0.26945 0.0
C751 C 0.26456 0.24886 0.28439 0.0
H752 H 0.22674 0.25947 0.30585 0.0
C753 C 0.2489 0.30519 0.31571 0.0
C754 C 0.23653 0.31008 0.29909 0.0
C755 C 0.25238 0.29125 0.31363 0.0
C756 C 0.23731 0.25669 0.29935 0.0
H757 H 0.28346 0.20123 0.31541 0.0
H758 H 0.27756 0.22567 0.31968 0.0
H759 H 0.2329 0.23514 0.30359 0.0
H760 H 0.21814 0.304 0.26712 0.0
H761 H 0.22429 0.27963 0.26324 0.0
H762 H 0.26896 0.27042 0.28017 0.0
C763 C 0.27054 0.21876 0.30465 0.0
C764 C 0.24085 0.24273 0.29811 0.0
C765 C 0.27389 0.20473 0.30238 0.0
C766 C 0.22773 0.30062 0.28029 0.0
C767 C 0.23122 0.28663 0.27825 0.0
C768 C 0.26101 0.26282 0.28565 0.0
C769 C 0.25818 0.22375 0.28827 0.0
C770 C 0.25451 0.23863 0.29052 0.0
C771 C 0.2436 0.28178 0.2949 0.0
C772 C 0.24734 0.26691 0.2931 0.0
H773 H 0.24549 0.1936 0.25226 0.0
H774 H 0.23981 0.21791 0.25594 0.0
H775 H 0.27512 0.24607 0.27788 0.0
H776 H 0.25594 0.31213 0.3306 0.0
H777 H 0.26189 0.28785 0.32728 0.0
C778 C 0.27768 0.70651 0.77591 0.0
C779 C 0.26871 0.69777 0.79686 0.0
C780 C 0.27512 0.72071 0.77386 0.0
C781 C 0.25576 0.74864 0.82408 0.0
H782 H 0.25921 0.7678 0.7242 0.0
C783 C 0.23271 0.80278 0.79877 0.0
C784 C 0.24057 0.81228 0.77696 0.0
C785 C 0.23683 0.789 0.80168 0.0
C786 C 0.25836 0.76264 0.75244 0.0
H787 H 0.25003 0.69726 0.83229 0.0
H788 H 0.24558 0.72178 0.82839 0.0
H789 H 0.26555 0.7435 0.72857 0.0
H790 H 0.25897 0.81462 0.74099 0.0
H791 H 0.26615 0.79068 0.74635 0.0
H792 H 0.24846 0.76772 0.8479 0.0
C793 C 0.25468 0.71774 0.8139 0.0
C794 C 0.26201 0.74872 0.75494 0.0
C795 C 0.25719 0.70361 0.81584 0.0
C796 C 0.25264 0.80763 0.75809 0.0
C797 C 0.25673 0.79385 0.76092 0.0
C798 C 0.2521 0.76255 0.82158 0.0
C799 C 0.26358 0.72648 0.79292 0.0
C800 C 0.2606 0.74151 0.7907 0.0
C801 C 0.24889 0.78437 0.78276 0.0
C802 C 0.25322 0.76968 0.78564 0.0
H803 H 0.28666 0.70239 0.761 0.0
H804 H 0.28223 0.7272 0.75769 0.0
H805 H 0.25479 0.74347 0.85226 0.0
H806 H 0.22334 0.80596 0.81359 0.0
H807 H 0.23045 0.78192 0.81832 0.0
C808 C 0.45022 0.02448 0.54624 0.0
C809 C 0.44116 0.01626 0.56849 0.0
C810 C 0.4642 0.02103 0.54331 0.0
C811 C 0.48797 0.99144 0.55375 0.0
H812 H 0.51623 0.01967 0.55604 0.0
C813 C 0.54629 0.97842 0.55591 0.0
C814 C 0.55491 0.98663 0.53218 0.0
C815 C 0.53245 0.98201 0.56168 0.0
C816 C 0.50845 0.01167 0.55497 0.0
H817 H 0.43985 0.99815 0.606 0.0
H818 H 0.46414 0.99228 0.60115 0.0
H819 H 0.49209 0.02617 0.56358 0.0
H820 H 0.55557 0.00499 0.49552 0.0
H821 H 0.53154 0.01109 0.50524 0.0
H822 H 0.50432 0.97695 0.54492 0.0
C823 C 0.46041 0.00124 0.58535 0.0
C824 C 0.49461 0.0154 0.55927 0.0
C825 C 0.44647 0.00467 0.58827 0.0
C826 C 0.54931 0.99845 0.51422 0.0
C827 C 0.53551 0.00202 0.51998 0.0
C828 C 0.50181 0.98771 0.54943 0.0
C829 C 0.46944 0.0093 0.56259 0.0
C830 C 0.48419 0.00534 0.55856 0.0
C831 C 0.52692 0.99389 0.54387 0.0
C832 C 0.51222 0.99778 0.54978 0.0
H833 H 0.44651 0.03347 0.53059 0.0
H834 H 0.47085 0.0274 0.52523 0.0
H835 H 0.4802 0.98344 0.55249 0.0
H836 H 0.55024 0.96927 0.57027 0.0
H837 H 0.52614 0.97559 0.58056 0.0
C838 C 0.95398 0.02369 0.05771 0.0
C839 C 0.94464 0.01406 0.04194 0.0
C840 C 0.96814 0.02087 0.05832 0.0
C841 C 0.99451 0.99901 0.01018 0.0
H842 H 0.0166 0.00791 0.102 0.0
C843 C 0.05055 0.97972 0.0288 0.0
C844 C 0.06017 0.98897 0.045 0.0
C845 C 0.0365 0.983 0.02804 0.0
C846 C 0.01061 0.0055 0.07593 0.0
H847 H 0.94296 0.99383 0.01487 0.0
H848 H 0.96748 0.98893 0.01636 0.0
H849 H 0.99206 0.0134 0.10172 0.0
H850 H 0.06247 0.00901 0.07284 0.0
H851 H 0.03809 0.01473 0.07105 0.0
H852 H 0.01304 0.9911 0.98439 0.0
C853 C 0.96391 0.99874 0.02772 0.0
C854 C 0.99654 0.00866 0.07578 0.0
C855 C 0.9498 0.00153 0.02716 0.0
C856 C 0.05539 0.0016 0.06018 0.0
C857 C 0.04137 0.00486 0.05943 0.0
C858 C 0.00857 0.99586 0.01032 0.0
C859 C 0.97327 0.00839 0.04308 0.0
C860 C 0.98831 0.00539 0.04297 0.0
C861 C 0.03174 0.99559 0.0435 0.0
C862 C 0.01679 0.99903 0.04324 0.0
H863 H 0.95039 0.03346 0.06925 0.0
H864 H 0.97509 0.02857 0.07007 0.0
H865 H 0.98852 0.99656 0.98415 0.0
H866 H 0.05383 0.96988 0.01699 0.0
H867 H 0.02934 0.97555 0.01596 0.0
C868 C 0.55245 0.02128 0.03012 0.0
C869 C 0.56176 0.01208 0.04795 0.0
C870 C 0.53834 0.01824 0.02871 0.0
C871 C 0.51164 0.9966 0.07661 0.0
H872 H 0.49085 0.00369 0.98111 0.0
C873 C 0.45571 0.97698 0.05466 0.0
C874 C 0.44639 0.9861 0.03654 0.0
C875 C 0.46981 0.98009 0.05616 0.0
C876 C 0.49647 0.00177 0.00817 0.0
H877 H 0.5634 0.99242 0.07832 0.0
H878 H 0.53898 0.98713 0.07549 0.0
H879 H 0.51527 0.00958 0.9837 0.0
H880 H 0.44471 0.00569 0.00581 0.0
H881 H 0.4691 0.01109 0.00883 0.0
H882 H 0.49284 0.9888 0.10109 0.0
C883 C 0.54253 0.99678 0.063 0.0
C884 C 0.51047 0.00517 0.00965 0.0
C885 C 0.55659 0.99979 0.06435 0.0
C886 C 0.45153 0.99837 0.01997 0.0
C887 C 0.46558 0.00145 0.02143 0.0
C888 C 0.49764 0.99321 0.07514 0.0
C889 C 0.53321 0.00595 0.04523 0.0
C890 C 0.51824 0.00261 0.04387 0.0
C891 C 0.47491 0.99236 0.03947 0.0
C892 C 0.48987 0.99575 0.0409 0.0
H893 H 0.55604 0.03086 0.01729 0.0
H894 H 0.53141 0.0256 0.01514 0.0
H895 H 0.51727 0.99467 0.10365 0.0
H896 H 0.45214 0.96742 0.06764 0.0
H897 H 0.47674 0.97278 0.06993 0.0
C898 C 0.05147 0.00325 0.50476 0.0
C899 C 0.05714 0.01482 0.52389 0.0
C900 C 0.03754 0.99996 0.5091 0.0
C901 C 0.00382 0.01461 0.53749 0.0
H902 H 0.99348 0.97624 0.55015 0.0
C903 C 0.94853 0.99847 0.57884 0.0
C904 C 0.94281 0.98695 0.5596 0.0
C905 C 0.96247 0.00169 0.57462 0.0
C906 C 0.99617 0.98699 0.54618 0.0
H907 H 0.05246 0.03206 0.56237 0.0
H908 H 0.02811 0.02622 0.5702 0.0
H909 H 0.01772 0.9824 0.5429 0.0
H910 H 0.94744 0.96969 0.52113 0.0
H911 H 0.97183 0.97541 0.51349 0.0
H912 H 0.98227 0.0192 0.54076 0.0
C913 C 0.03447 0.01978 0.5515 0.0
C914 C 0.01008 0.99053 0.54206 0.0
C915 C 0.04845 0.0231 0.54714 0.0
C916 C 0.95148 0.97862 0.53641 0.0
C917 C 0.96548 0.98187 0.53216 0.0
C918 C 0.98992 0.01107 0.54162 0.0
C919 C 0.02887 0.00811 0.53271 0.0
C920 C 0.01408 0.00439 0.53763 0.0
C921 C 0.97112 0.99351 0.55101 0.0
C922 C 0.98592 0.99721 0.54607 0.0
H923 H 0.05778 0.99667 0.48634 0.0
H924 H 0.03354 0.99105 0.49361 0.0
H925 H 0.0065 0.02536 0.53351 0.0
H926 H 0.94223 0.00507 0.59726 0.0
H927 H 0.96651 0.01057 0.59017 0.0
C928 C 0.09605 0.4882 0.94055 0.0
C929 C 0.08903 0.47593 0.94942 0.0
C930 C 0.09381 0.49494 0.90495 0.0
C931 C 0.08393 0.48864 0.80359 0.0
H932 H 0.0845 0.52862 0.79862 0.0
C933 C 0.08705 0.53447 0.67846 0.0
C934 C 0.09796 0.52892 0.65628 0.0
C935 C 0.0831 0.5283 0.71406 0.0
C936 C 0.08408 0.51746 0.79949 0.0
H937 H 0.07411 0.46108 0.92805 0.0
H938 H 0.0703 0.47288 0.86489 0.0
H939 H 0.08189 0.51713 0.86231 0.0
H940 H 0.11357 0.51291 0.65447 0.0
H941 H 0.10677 0.5023 0.71627 0.0
H942 H 0.08653 0.48898 0.74092 0.0
C943 C 0.0775 0.47725 0.88586 0.0
C944 C 0.0827 0.51089 0.8359 0.0
C945 C 0.0797 0.47049 0.92183 0.0
C946 C 0.10505 0.51737 0.67072 0.0
C947 C 0.10107 0.51119 0.70594 0.0
C948 C 0.08534 0.49522 0.76722 0.0
C949 C 0.08453 0.48957 0.87721 0.0
C950 C 0.08314 0.49642 0.83842 0.0
C951 C 0.08994 0.51646 0.72769 0.0
C952 C 0.08595 0.50967 0.76503 0.0
H953 H 0.10336 0.49263 0.96109 0.0
H954 H 0.09964 0.50422 0.89877 0.0
H955 H 0.08433 0.4775 0.80461 0.0
H956 H 0.08138 0.54335 0.66792 0.0
H957 H 0.07453 0.5326 0.73046 0.0
C958 C 0.71876 0.83435 0.91721 0.0
C959 C 0.72002 0.84686 0.89671 0.0
C960 C 0.72541 0.83259 0.95354 0.0
C961 C 0.73792 0.85097 0.03855 0.0
H962 H 0.76822 0.82498 0.0457 0.0
C963 C 0.77738 0.85663 0.16066 0.0
C964 C 0.7822 0.84476 0.17954 0.0
C965 C 0.77001 0.85562 0.12558 0.0
C966 C 0.75966 0.83212 0.04447 0.0
H967 H 0.72872 0.86742 0.89801 0.0
H968 H 0.7398 0.86454 0.96215 0.0
H969 H 0.75339 0.82505 0.98712 0.0
H970 H 0.78356 0.82253 0.17673 0.0
H971 H 0.7702 0.82062 0.1155 0.0
H972 H 0.74389 0.85805 0.09554 0.0
C973 C 0.73389 0.85607 0.95 0.0
C974 C 0.75119 0.83213 0.01102 0.0
C975 C 0.72757 0.85771 0.91345 0.0
C976 C 0.78009 0.83183 0.16209 0.0
C977 C 0.77241 0.83076 0.12721 0.0
C978 C 0.7462 0.85083 0.07209 0.0
C979 C 0.73304 0.84346 0.97001 0.0
C980 C 0.74051 0.8418 0.00752 0.0
C981 C 0.76692 0.84265 0.10928 0.0
C982 C 0.75745 0.84172 0.07495 0.0
H983 H 0.71314 0.82579 0.90446 0.0
H984 H 0.72466 0.82279 0.96866 0.0
H985 H 0.72966 0.85844 0.03644 0.0
H986 H 0.77894 0.86671 0.17376 0.0
H987 H 0.76638 0.86502 0.11189 0.0
C988 C 0.41646 0.47211 0.16678 0.0
C989 C 0.40406 0.47399 0.14619 0.0
C990 C 0.4193 0.48001 0.20042 0.0
C991 C 0.40797 0.51246 0.24926 0.0
H992 H 0.42569 0.49717 0.34197 0.0
C993 C 0.39985 0.53002 0.40892 0.0
C994 C 0.41156 0.53417 0.42994 0.0
C995 C 0.40118 0.52431 0.37142 0.0
C996 C 0.42098 0.50161 0.31592 0.0
H997 H 0.38461 0.48493 0.14532 0.0
H998 H 0.38917 0.49815 0.20471 0.0
H999 H 0.42331 0.48301 0.28257 0.0
H1000 H 0.43383 0.53565 0.42909 0.0
H1001 H 0.43622 0.52503 0.3633 0.0
H1002 H 0.4048 0.53069 0.28379 0.0
C1003 C 0.39701 0.49107 0.19435 0.0
C1004 C 0.4196 0.49353 0.28195 0.0
C1005 C 0.39429 0.48336 0.1606 0.0
C1006 C 0.42467 0.53271 0.41287 0.0
C1007 C 0.42604 0.5266 0.37564 0.0
C1008 C 0.40915 0.52041 0.28335 0.0
C1009 C 0.40969 0.48979 0.2141 0.0
C1010 C 0.41271 0.49874 0.24861 0.0
C1011 C 0.41427 0.5223 0.35489 0.0
C1012 C 0.41539 0.51493 0.31711 0.0
H1013 H 0.42423 0.46504 0.15588 0.0
H1014 H 0.42918 0.47878 0.21485 0.0
H1015 H 0.40299 0.51696 0.22375 0.0
H1016 H 0.38967 0.53098 0.42184 0.0
H1017 H 0.392 0.52096 0.35591 0.0
C1018 C 0.71818 0.17228 0.65902 0.0
C1019 C 0.71912 0.15933 0.67735 0.0
C1020 C 0.7241 0.17435 0.62179 0.0
C1021 C 0.73222 0.15953 0.53032 0.0
H1022 H 0.7694 0.17432 0.53008 0.0
C1023 C 0.76942 0.1465 0.40635 0.0
C1024 C 0.77856 0.15657 0.39243 0.0
C1025 C 0.76165 0.14883 0.4402 0.0
C1026 C 0.75893 0.17045 0.52935 0.0
H1027 H 0.72639 0.13834 0.67128 0.0
H1028 H 0.7362 0.14182 0.60555 0.0
H1029 H 0.75543 0.17556 0.59019 0.0
H1030 H 0.78702 0.17689 0.40308 0.0
H1031 H 0.77318 0.18114 0.46239 0.0
H1032 H 0.73559 0.1542 0.46998 0.0
C1033 C 0.73113 0.15036 0.62016 0.0
C1034 C 0.75098 0.17118 0.5637 0.0
C1035 C 0.72553 0.14839 0.65755 0.0
C1036 C 0.78013 0.1689 0.41359 0.0
C1037 C 0.77218 0.17133 0.44739 0.0
C1038 C 0.74007 0.15896 0.4959 0.0
C1039 C 0.73068 0.16339 0.60243 0.0
C1040 C 0.73775 0.16537 0.56457 0.0
C1041 C 0.76265 0.1614 0.46059 0.0
C1042 C 0.75371 0.16393 0.49543 0.0
H1043 H 0.71345 0.1809 0.67417 0.0
H1044 H 0.72375 0.18448 0.60841 0.0
H1045 H 0.72204 0.15495 0.53065 0.0
H1046 H 0.7681 0.13686 0.39064 0.0
H1047 H 0.75477 0.14076 0.4502 0.0
C1048 C 0.8907 0.51908 0.15596 0.0
C1049 C 0.89772 0.53139 0.14738 0.0
C1050 C 0.89257 0.51254 0.19196 0.0
C1051 C 0.9005 0.51639 0.29322 0.0
H1052 H 0.91642 0.47971 0.28716 0.0
C1053 C 0.91459 0.48781 0.43339 0.0
C1054 C 0.91192 0.47365 0.43557 0.0
C1055 C 0.91414 0.49465 0.39754 0.0
C1056 C 0.91181 0.48984 0.28935 0.0
H1057 H 0.91146 0.54704 0.17056 0.0
H1058 H 0.91441 0.53565 0.23484 0.0
H1059 H 0.91238 0.49284 0.22673 0.0
H1060 H 0.90698 0.45533 0.40207 0.0
H1061 H 0.90535 0.46748 0.33877 0.0
H1062 H 0.89915 0.5133 0.35528 0.0
C1063 C 0.90769 0.53105 0.21297 0.0
C1064 C 0.90962 0.49737 0.25488 0.0
C1065 C 0.90598 0.53754 0.17647 0.0
C1066 C 0.9092 0.46626 0.40091 0.0
C1067 C 0.9083 0.47323 0.36481 0.0
C1068 C 0.90242 0.50878 0.32761 0.0
C1069 C 0.9013 0.51832 0.22028 0.0
C1070 C 0.90402 0.51068 0.25674 0.0
C1071 C 0.91044 0.4876 0.36303 0.0
C1072 C 0.90822 0.49546 0.32613 0.0
H1073 H 0.88409 0.51419 0.13433 0.0
H1074 H 0.88739 0.50283 0.19748 0.0
H1075 H 0.89595 0.52657 0.295 0.0
H1076 H 0.91674 0.49379 0.45948 0.0
H1077 H 0.91634 0.50559 0.39716 0.0
C1078 C 0.2214 0.16909 0.9201 0.0
C1079 C 0.22059 0.15602 0.90258 0.0
C1080 C 0.22905 0.17093 0.95475 0.0
C1081 C 0.25726 0.15367 0.00973 0.0
H1082 H 0.24706 0.17807 0.09551 0.0
C1083 C 0.27423 0.14776 0.17026 0.0
C1084 C 0.28171 0.15874 0.18661 0.0
C1085 C 0.26804 0.14912 0.13346 0.0
C1086 C 0.2501 0.17141 0.07135 0.0
H1087 H 0.22618 0.13453 0.90813 0.0
H1088 H 0.23875 0.1375 0.96956 0.0
H1089 H 0.23254 0.17692 0.03636 0.0
H1090 H 0.28856 0.17977 0.17786 0.0
H1091 H 0.27724 0.18229 0.11311 0.0
H1092 H 0.27432 0.14757 0.04582 0.0
C1093 C 0.2341 0.14648 0.95604 0.0
C1094 C 0.24182 0.17073 0.03759 0.0
C1095 C 0.22674 0.14471 0.92119 0.0
C1096 C 0.28299 0.17112 0.16545 0.0
C1097 C 0.27647 0.1726 0.12881 0.0
C1098 C 0.26537 0.15421 0.04358 0.0
C1099 C 0.23582 0.15968 0.97243 0.0
C1100 C 0.24512 0.16155 0.00685 0.0
C1101 C 0.26894 0.16159 0.11277 0.0
C1102 C 0.2617 0.16288 0.07486 0.0
H1103 H 0.21688 0.17798 0.90573 0.0
H1104 H 0.23019 0.18124 0.96657 0.0
H1105 H 0.26038 0.14681 0.98612 0.0
H1106 H 0.27307 0.13814 0.18616 0.0
H1107 H 0.26222 0.14054 0.12154 0.0
C1108 C 0.58348 0.53473 0.91089 0.0
C1109 C 0.59259 0.52908 0.93875 0.0
C1110 C 0.58157 0.52823 0.87435 0.0
C1111 C 0.59066 0.51535 0.79266 0.0
H1112 H 0.58213 0.47624 0.79313 0.0
C1113 C 0.60736 0.4799 0.66781 0.0
C1114 C 0.59783 0.47034 0.65299 0.0
C1115 C 0.60452 0.48722 0.70214 0.0
C1116 C 0.58431 0.48718 0.79242 0.0
H1117 H 0.6071 0.51248 0.94995 0.0
H1118 H 0.60361 0.50118 0.88689 0.0
H1119 H 0.58044 0.48953 0.85432 0.0
H1120 H 0.57806 0.46053 0.66285 0.0
H1121 H 0.57308 0.47336 0.72365 0.0
H1122 H 0.59521 0.51292 0.73127 0.0
C1123 C 0.59786 0.51049 0.89335 0.0
C1124 C 0.58336 0.49475 0.82732 0.0
C1125 C 0.59988 0.51702 0.92933 0.0
C1126 C 0.58563 0.46776 0.674 0.0
C1127 C 0.58275 0.47515 0.70851 0.0
C1128 C 0.59175 0.50776 0.75784 0.0
C1129 C 0.58861 0.51594 0.86578 0.0
C1130 C 0.58689 0.50879 0.82784 0.0
C1131 C 0.59205 0.48517 0.72229 0.0
C1132 C 0.58898 0.49352 0.7577 0.0
H1133 H 0.57771 0.54401 0.9175 0.0
H1134 H 0.57447 0.53262 0.85316 0.0
H1135 H 0.59355 0.52614 0.7926 0.0
H1136 H 0.6169 0.48199 0.65227 0.0
H1137 H 0.61205 0.49458 0.71274 0.0
C1138 C 0.222 0.83299 0.66258 0.0
C1139 C 0.22119 0.84607 0.68007 0.0
C1140 C 0.22973 0.83111 0.62806 0.0
C1141 C 0.25795 0.84825 0.57267 0.0
H1142 H 0.24715 0.82424 0.48659 0.0
C1143 C 0.2738 0.85468 0.41128 0.0
C1144 C 0.28104 0.84372 0.39404 0.0
C1145 C 0.26796 0.85323 0.44854 0.0
C1146 C 0.25036 0.83078 0.51083 0.0
H1147 H 0.22689 0.86754 0.67449 0.0
H1148 H 0.23964 0.86449 0.61343 0.0
H1149 H 0.23294 0.82527 0.54637 0.0
H1150 H 0.28787 0.82263 0.40166 0.0
H1151 H 0.27714 0.81994 0.46718 0.0
H1152 H 0.27486 0.85438 0.53599 0.0
C1153 C 0.23492 0.85553 0.6269 0.0
C1154 C 0.24226 0.83139 0.54496 0.0
C1155 C 0.22747 0.85734 0.66156 0.0
C1156 C 0.28247 0.83127 0.41475 0.0
C1157 C 0.27629 0.82969 0.45185 0.0
C1158 C 0.26589 0.84778 0.53845 0.0
C1159 C 0.23658 0.84233 0.61045 0.0
C1160 C 0.24577 0.84044 0.57581 0.0
C1161 C 0.26898 0.84069 0.46879 0.0
C1162 C 0.26199 0.83926 0.50706 0.0
H1163 H 0.21737 0.82412 0.67677 0.0
H1164 H 0.23081 0.8208 0.61618 0.0
H1165 H 0.26121 0.85501 0.59633 0.0
H1166 H 0.27254 0.86436 0.39573 0.0
H1167 H 0.2623 0.8618 0.46116 0.0
C1168 C 0.58546 0.02881 0.16471 0.0
C1169 C 0.59754 0.02613 0.14322 0.0
C1170 C 0.58242 0.02114 0.19863 0.0
C1171 C 0.59207 0.98815 0.24738 0.0
H1172 H 0.5767 0.005 0.34137 0.0
C1173 C 0.60111 0.97018 0.40606 0.0
C1174 C 0.58946 0.96755 0.42929 0.0
C1175 C 0.59964 0.97576 0.36845 0.0
C1176 C 0.58074 1.00014 0.315 0.0
H1177 H 0.61621 0.01391 0.14099 0.0
H1178 H 0.61129 1.00103 0.20071 0.0
H1179 H 0.57924 0.01871 0.28121 0.0
H1180 H 0.5672 0.96865 0.4324 0.0
H1181 H 0.56463 0.97907 0.36644 0.0
H1182 H 0.59444 0.96988 0.28221 0.0
C1183 C 0.60385 0.0086 0.19089 0.0
C1184 C 0.58221 0.00796 0.28059 0.0
C1185 C 0.60677 0.01611 0.15692 0.0
C1186 C 0.57627 0.97041 0.41443 0.0
C1187 C 0.57482 0.9764 0.37708 0.0
C1188 C 0.59081 0.98044 0.28187 0.0
C1189 C 0.59149 0.01077 0.21166 0.0
C1190 C 0.58827 0.00216 0.24673 0.0
C1191 C 0.58652 0.97917 0.35404 0.0
C1192 C 0.58544 0.98647 0.31612 0.0
H1193 H 0.57811 0.03641 0.15445 0.0
H1194 H 0.5728 0.02305 0.21387 0.0
H1195 H 0.59639 0.98323 0.2215 0.0
H1196 H 0.61136 0.96814 0.41732 0.0
H1197 H 0.60879 0.97794 0.35121 0.0
C1198 C 0.21786 0.33305 0.41507 0.0
C1199 C 0.21865 0.34579 0.39554 0.0
C1200 C 0.22437 0.33127 0.4516 0.0
C1201 C 0.23502 0.34896 0.53907 0.0
H1202 H 0.26785 0.32617 0.54403 0.0
C1203 C 0.27357 0.35681 0.66267 0.0
C1204 C 0.27974 0.34527 0.68002 0.0
C1205 C 0.26621 0.35552 0.62766 0.0
C1206 C 0.25858 0.33238 0.54342 0.0
H1207 H 0.22637 0.3667 0.39876 0.0
H1208 H 0.23718 0.36377 0.46331 0.0
H1209 H 0.25335 0.32576 0.48479 0.0
H1210 H 0.2835 0.32338 0.6744 0.0
H1211 H 0.27019 0.32093 0.61323 0.0
H1212 H 0.23997 0.3556 0.5973 0.0
C1213 C 0.23175 0.35514 0.4502 0.0
C1214 C 0.25031 0.33211 0.50959 0.0
C1215 C 0.22558 0.35681 0.41345 0.0
C1216 C 0.27895 0.33245 0.66105 0.0
C1217 C 0.2713 0.33107 0.6262 0.0
C1218 C 0.24311 0.34907 0.57299 0.0
C1219 C 0.23137 0.34233 0.46922 0.0
C1220 C 0.2387 0.34069 0.50692 0.0
C1221 C 0.26451 0.34255 0.60978 0.0
C1222 C 0.25525 0.34114 0.57511 0.0
H1223 H 0.21272 0.32436 0.40141 0.0
H1224 H 0.22401 0.32131 0.46596 0.0
H1225 H 0.22606 0.3556 0.53753 0.0
H1226 H 0.27412 0.36682 0.67683 0.0
H1227 H 0.26156 0.36467 0.61514 0.0
C1228 C 0.90221 0.01556 0.93544 0.0
C1229 C 0.90958 0.02755 0.94509 0.0
C1230 C 0.90517 0.00832 0.90108 0.0
C1231 C 0.9189 0.01268 0.80236 0.0
H1232 H 0.91639 0.97274 0.80137 0.0
C1233 C 0.91721 0.96553 0.68106 0.0
C1234 C 0.90718 0.97134 0.65623 0.0
C1235 C 0.92051 0.97189 0.71697 0.0
C1236 C 0.91739 0.98386 0.80123 0.0
H1237 H 0.92582 0.04142 0.92631 0.0
H1238 H 0.93092 0.02875 0.86536 0.0
H1239 H 0.91729 0.98501 0.8643 0.0
H1240 H 0.89239 0.988 0.65003 0.0
H1241 H 0.89808 0.99894 0.71215 0.0
H1242 H 0.91856 0.01155 0.73935 0.0
C1243 C 0.92286 0.02499 0.88471 0.0
C1244 C 0.91778 0.99089 0.83716 0.0
C1245 C 0.91991 0.03226 0.91939 0.0
C1246 C 0.90028 0.98334 0.66829 0.0
C1247 C 0.90362 0.98969 0.70374 0.0
C1248 C 0.9185 0.00565 0.7665 0.0
C1249 C 0.91557 0.01288 0.87543 0.0
C1250 C 0.91798 0.00539 0.83802 0.0
C1251 C 0.9139 0.98418 0.72816 0.0
C1252 C 0.91717 0.99123 0.76564 0.0
H1253 H 0.89414 0.0117 0.95456 0.0
H1254 H 0.89912 0.99924 0.89426 0.0
H1255 H 0.91905 0.02384 0.80207 0.0
H1256 H 0.9227 0.95629 0.67238 0.0
H1257 H 0.9284 0.96739 0.73553 0.0
C1258 C 0.26954 0.65462 0.90258 0.0
C1259 C 0.28201 0.66108 0.89265 0.0
C1260 C 0.26308 0.65743 0.93824 0.0
C1261 C 0.2476 0.67078 0.0046 0.0
H1262 H 0.26818 0.66563 0.10142 0.0
C1263 C 0.22115 0.66772 0.15776 0.0
C1264 C 0.22582 0.6567 0.18105 0.0
C1265 C 0.22833 0.67145 0.12355 0.0
C1266 C 0.26232 0.66719 0.0746 0.0
H1267 H 0.2977 0.67537 0.91262 0.0
H1268 H 0.28641 0.68013 0.9762 0.0
H1269 H 0.28044 0.66657 0.03853 0.0
H1270 H 0.24138 0.64075 0.18652 0.0
H1271 H 0.25364 0.64704 0.1268 0.0
H1272 H 0.22941 0.67052 0.04025 0.0
C1273 C 0.28163 0.67299 0.95579 0.0
C1274 C 0.26935 0.66789 0.03871 0.0
C1275 C 0.28809 0.67024 0.91963 0.0
C1276 C 0.23758 0.64934 0.16925 0.0
C1277 C 0.24471 0.65305 0.13528 0.0
C1278 C 0.24057 0.67008 0.04044 0.0
C1279 C 0.26895 0.66673 0.96507 0.0
C1280 C 0.26199 0.6691 0.00328 0.0
C1281 C 0.24028 0.66423 0.11227 0.0
C1282 C 0.24782 0.6677 0.0756 0.0
H1283 H 0.26463 0.6474 0.88264 0.0
H1284 H 0.25352 0.65216 0.94504 0.0
H1285 H 0.24171 0.67194 0.97764 0.0
H1286 H 0.21218 0.67364 0.16642 0.0
H1287 H 0.22467 0.6801 0.10628 0.0
C1288 C 0.39724 0.97687 0.92494 0.0
C1289 C 0.40862 0.97005 0.94128 0.0
C1290 C 0.39828 0.98321 0.88825 0.0
C1291 C 0.41986 0.00271 0.82775 0.0
H1292 H 0.39586 0.99212 0.74147 0.0
C1293 C 0.41688 0.03243 0.67841 0.0
C1294 C 0.40388 0.03282 0.66035 0.0
C1295 C 0.41886 0.02461 0.71269 0.0
C1296 C 0.40253 0.99533 0.7654 0.0
H1297 H 0.43004 0.96447 0.93269 0.0
H1298 H 0.43199 0.97609 0.86821 0.0
H1299 H 0.39709 0.97774 0.80025 0.0
H1300 H 0.38261 0.02631 0.66467 0.0
H1301 H 0.38578 0.01343 0.7255 0.0
H1302 H 0.42468 0.02077 0.79407 0.0
C1303 C 0.42223 0.97621 0.88374 0.0
C1304 C 0.40335 0.98697 0.79871 0.0
C1305 C 0.42108 0.96952 0.92022 0.0
C1306 C 0.39274 0.02608 0.67815 0.0
C1307 C 0.39463 0.01855 0.71264 0.0
C1308 C 0.41888 0.01124 0.79456 0.0
C1309 C 0.41082 0.98313 0.86774 0.0
C1310 C 0.41182 0.99073 0.83034 0.0
C1311 C 0.40781 0.01725 0.72949 0.0
C1312 C 0.40992 0.0078 0.76344 0.0
H1313 H 0.38756 0.97745 0.94084 0.0
H1314 H 0.3894 0.98856 0.87639 0.0
H1315 H 0.42634 0.00583 0.85221 0.0
H1316 H 0.42566 0.0374 0.6647 0.0
H1317 H 0.42915 0.02382 0.72485 0.0
C1318 C 0.71893 0.66946 0.41683 0.0
C1319 C 0.71922 0.65662 0.3978 0.0
C1320 C 0.72648 0.67148 0.45157 0.0
C1321 C 0.75625 0.65625 0.50426 0.0
H1322 H 0.74308 0.67701 0.59447 0.0
C1323 C 0.77053 0.64871 0.66733 0.0
C1324 C 0.77913 0.65899 0.68284 0.0
C1325 C 0.76433 0.65045 0.63068 0.0
C1326 C 0.74693 0.67143 0.56907 0.0
H1327 H 0.72671 0.63564 0.40083 0.0
H1328 H 0.73925 0.6389 0.46217 0.0
H1329 H 0.72898 0.67584 0.53448 0.0
H1330 H 0.78806 0.67916 0.67254 0.0
H1331 H 0.77687 0.68229 0.60783 0.0
H1332 H 0.77377 0.65117 0.53989 0.0
C1333 C 0.73375 0.64759 0.44978 0.0
C1334 C 0.7389 0.67073 0.53486 0.0
C1335 C 0.72643 0.64566 0.41496 0.0
C1336 C 0.78157 0.67103 0.66088 0.0
C1337 C 0.77515 0.67287 0.62426 0.0
C1338 C 0.76417 0.65686 0.53848 0.0
C1339 C 0.73428 0.66063 0.46775 0.0
C1340 C 0.74331 0.66279 0.50252 0.0
C1341 C 0.76646 0.66258 0.60922 0.0
C1342 C 0.75943 0.66422 0.57124 0.0
H1343 H 0.71355 0.6781 0.40369 0.0
H1344 H 0.72669 0.68165 0.46473 0.0
H1345 H 0.76012 0.65034 0.4795 0.0
H1346 H 0.7685 0.63934 0.68372 0.0
H1347 H 0.75768 0.64241 0.61929 0.0
C1348 C 0.10112 0.01957 0.41432 0.0
C1349 C 0.0936 0.03114 0.42678 0.0
C1350 C 0.09843 0.0135 0.37803 0.0
C1351 C 0.08284 0.99772 0.3151 0.0
H1352 H 0.0899 0.01706 0.21711 0.0
C1353 C 0.08326 0.97029 0.16312 0.0
C1354 C 0.0948 0.97358 0.13994 0.0
C1355 C 0.08028 0.97799 0.197 0.0
C1356 C 0.08775 0.01157 0.24426 0.0
H1357 H 0.07773 0.0458 0.41045 0.0
H1358 H 0.07324 0.03521 0.34561 0.0
H1359 H 0.08959 0.02988 0.27939 0.0
H1360 H 0.11246 0.98715 0.13439 0.0
H1361 H 0.10743 1.00033 0.19359 0.0
H1362 H 0.08171 0.97931 0.28057 0.0
C1363 C 0.08107 0.03084 0.36463 0.0
C1364 C 0.08745 0.01893 0.27969 0.0
C1365 C 0.08368 0.03689 0.40146 0.0
C1366 C 0.10344 0.98444 0.15159 0.0
C1367 C 0.10048 0.9921 0.18523 0.0
C1368 C 0.08303 0.99039 0.27972 0.0
C1369 C 0.08825 0.01892 0.3532 0.0
C1370 C 0.0855 0.01194 0.31543 0.0
C1371 C 0.08878 0.98908 0.20801 0.0
C1372 C 0.08603 0.99717 0.24417 0.0
H1373 H 0.10896 0.01499 0.43293 0.0
H1374 H 0.10432 0.0045 0.36934 0.0
H1375 H 0.08127 0.99217 0.34248 0.0
H1376 H 0.07635 0.96205 0.15452 0.0
H1377 H 0.07121 0.97543 0.21416 0.0
C1378 C 0.72266 0.33295 0.16491 0.0
C1379 C 0.72696 0.34349 0.19048 0.0
C1380 C 0.73027 0.32999 0.13085 0.0
C1381 C 0.76447 0.33572 0.08432 0.0
H1382 H 0.74409 0.334 0.98612 0.0
C1383 C 0.77191 0.3529 0.91573 0.0
C1384 C 0.78324 0.34531 0.90189 0.0
C1385 C 0.76598 0.34984 0.95195 0.0
C1386 C 0.74991 0.33428 0.01341 0.0
H1387 H 0.74242 0.35927 0.20046 0.0
H1388 H 0.75544 0.35432 0.14101 0.0
H1389 H 0.73165 0.33352 0.04857 0.0
H1390 H 0.79769 0.32898 0.91583 0.0
H1391 H 0.78732 0.32377 0.9805 0.0
H1392 H 0.7827 0.33728 0.04868 0.0
C1393 C 0.74645 0.3481 0.14754 0.0
C1394 C 0.7428 0.3339 0.04911 0.0
C1395 C 0.73888 0.35105 0.18137 0.0
C1396 C 0.78895 0.33498 0.92589 0.0
C1397 C 0.78302 0.33197 0.96263 0.0
C1398 C 0.7716 0.33605 0.04849 0.0
C1399 C 0.74227 0.33752 0.12198 0.0
C1400 C 0.74997 0.33517 0.08488 0.0
C1401 C 0.77127 0.33918 0.97533 0.0
C1402 C 0.7643 0.33588 0.01282 0.0
H1403 H 0.71358 0.32688 0.17148 0.0
H1404 H 0.72682 0.32178 0.1116 0.0
H1405 H 0.77027 0.3365 0.11155 0.0
H1406 H 0.76738 0.36105 0.89816 0.0
H1407 H 0.75714 0.35579 0.96162 0.0
C1408 C 0.12353 0.49802 0.45193 0.0
C1409 C 0.12327 0.51185 0.4641 0.0
C1410 C 0.12647 0.49469 0.41277 0.0
C1411 C 0.12406 0.51105 0.31506 0.0
H1412 H 0.13729 0.47547 0.27917 0.0
C1413 C 0.12178 0.49672 0.15239 0.0
C1414 C 0.11419 0.48463 0.14505 0.0
C1415 C 0.12677 0.49955 0.19006 0.0
C1416 C 0.13366 0.48547 0.28888 0.0
H1417 H 0.12718 0.53292 0.44622 0.0
H1418 H 0.13303 0.52708 0.37833 0.0
H1419 H 0.1399 0.48191 0.34858 0.0
H1420 H 0.10683 0.46553 0.17098 0.0
H1421 H 0.11552 0.47058 0.23706 0.0
H1422 H 0.11772 0.51455 0.25563 0.0
C1423 C 0.13035 0.51883 0.39842 0.0
C1424 C 0.13508 0.48915 0.32857 0.0
C1425 C 0.12709 0.52219 0.43734 0.0
C1426 C 0.11251 0.475 0.1757 0.0
C1427 C 0.11757 0.47783 0.21346 0.0
C1428 C 0.12284 0.50746 0.27548 0.0
C1429 C 0.12947 0.5051 0.38519 0.0
C1430 C 0.12999 0.50187 0.34233 0.0
C1431 C 0.12435 0.49033 0.22117 0.0
C1432 C 0.12734 0.49453 0.26217 0.0
H1433 H 0.12058 0.48984 0.47199 0.0
H1434 H 0.12553 0.48402 0.40376 0.0
H1435 H 0.11969 0.52078 0.32447 0.0
H1436 H 0.12346 0.50429 0.12941 0.0
H1437 H 0.13211 0.50919 0.19522 0.0
C1438 C 0.72577 0.86521 0.66688 0.0
C1439 C 0.73528 0.8665 0.69797 0.0
C1440 C 0.72965 0.86836 0.62821 0.0
C1441 C 0.76022 0.86722 0.56746 0.0
H1442 H 0.73758 0.88514 0.48844 0.0
C1443 C 0.77651 0.86642 0.40515 0.0
C1444 C 0.76599 0.86354 0.37792 0.0
C1445 C 0.77327 0.87019 0.44382 0.0
C1446 C 0.74399 0.88004 0.51012 0.0
H1447 H 0.75606 0.87303 0.71301 0.0
H1448 H 0.76278 0.87839 0.64557 0.0
H1449 H 0.7305 0.88564 0.55768 0.0
H1450 H 0.74384 0.86281 0.36942 0.0
H1451 H 0.73819 0.8688 0.43706 0.0
H1452 H 0.7733 0.86088 0.52031 0.0
C1453 C 0.75238 0.87483 0.65118 0.0
C1454 C 0.73996 0.88039 0.54971 0.0
C1455 C 0.74849 0.87177 0.68981 0.0
C1456 C 0.75218 0.86501 0.3897 0.0
C1457 C 0.74894 0.86855 0.42851 0.0
C1458 C 0.76416 0.86671 0.52795 0.0
C1459 C 0.74313 0.87279 0.61992 0.0
C1460 C 0.74795 0.87381 0.57863 0.0
C1461 C 0.75945 0.87092 0.45629 0.0
C1462 C 0.75599 0.87291 0.49865 0.0
H1463 H 0.71547 0.86128 0.67213 0.0
H1464 H 0.72234 0.86663 0.60457 0.0
H1465 H 0.76647 0.86187 0.58907 0.0
H1466 H 0.78725 0.86558 0.39673 0.0
H1467 H 0.78163 0.87226 0.46415 0.0
C1468 C 0.3891 0.50208 0.63725 0.0
C1469 C 0.39024 0.51594 0.62572 0.0
C1470 C 0.38522 0.49869 0.67571 0.0
C1471 C 0.38536 0.514 0.77531 0.0
H1472 H 0.36727 0.47975 0.80367 0.0
C1473 C 0.37853 0.49887 0.93682 0.0
C1474 C 0.38418 0.48593 0.94618 0.0
C1475 C 0.37584 0.50242 0.8977 0.0
C1476 C 0.37228 0.48937 0.79607 0.0
H1477 H 0.38724 0.53709 0.64443 0.0
H1478 H 0.37994 0.53119 0.71108 0.0
H1479 H 0.36848 0.48667 0.73435 0.0
H1480 H 0.39041 0.46617 0.9219 0.0
H1481 H 0.38572 0.47244 0.85348 0.0
H1482 H 0.38925 0.51665 0.83686 0.0
C1483 C 0.38255 0.52292 0.69095 0.0
C1484 C 0.37304 0.49331 0.75643 0.0
C1485 C 0.38667 0.52632 0.6527 0.0
C1486 C 0.38618 0.47627 0.91573 0.0
C1487 C 0.38341 0.47982 0.87655 0.0
C1488 C 0.38444 0.51015 0.81481 0.0
C1489 C 0.38218 0.50908 0.70332 0.0
C1490 C 0.37985 0.50556 0.74551 0.0
C1491 C 0.37865 0.49308 0.86712 0.0
C1492 C 0.37812 0.49769 0.82554 0.0
H1493 H 0.39184 0.49385 0.61712 0.0
H1494 H 0.38525 0.48793 0.68419 0.0
H1495 H 0.39095 0.52333 0.76815 0.0
H1496 H 0.3767 0.50653 0.95948 0.0
H1497 H 0.372 0.51266 0.89121 0.0
C1498 C 0.77755 0.13807 0.16238 0.0
C1499 C 0.76791 0.1359 0.1928 0.0
C1500 C 0.77424 0.13474 0.12337 0.0
C1501 C 0.74405 0.13375 0.06119 0.0
H1502 H 0.76836 0.11808 0.98226 0.0
C1503 C 0.72801 0.13397 0.89917 0.0
C1504 C 0.73825 0.13786 0.87212 0.0
C1505 C 0.73155 0.13016 0.93755 0.0
C1506 C 0.76148 0.12255 0.00391 0.0
H1507 H 0.74765 0.12756 0.20633 0.0
H1508 H 0.74194 0.1219 0.13838 0.0
H1509 H 0.77522 0.11788 0.05172 0.0
H1510 H 0.76026 0.14028 0.86341 0.0
H1511 H 0.76642 0.13426 0.93075 0.0
H1512 H 0.73067 0.1392 0.01394 0.0
C1513 C 0.75197 0.1263 0.14473 0.0
C1514 C 0.76539 0.12237 0.04364 0.0
C1515 C 0.75527 0.12954 0.18366 0.0
C1516 C 0.75214 0.13729 0.88363 0.0
C1517 C 0.75567 0.13374 0.92224 0.0
C1518 C 0.74022 0.1341 0.02162 0.0
C1519 C 0.76124 0.12925 0.11411 0.0
C1520 C 0.75676 0.12811 0.07254 0.0
C1521 C 0.74539 0.13046 0.94998 0.0
C1522 C 0.74895 0.12867 0.99235 0.0
H1523 H 0.78742 0.14283 0.16839 0.0
H1524 H 0.78156 0.13718 0.10024 0.0
H1525 H 0.7373 0.13848 0.08278 0.0
H1526 H 0.71722 0.1341 0.89088 0.0
H1527 H 0.72338 0.12733 0.95777 0.0
C1528 C 0.88311 0.49472 0.6388 0.0
C1529 C 0.89119 0.48286 0.63286 0.0
C1530 C 0.87823 0.49801 0.67622 0.0
C1531 C 0.87273 0.48589 0.77734 0.0
H1532 H 0.88747 0.52164 0.80629 0.0
C1533 C 0.88533 0.5004 0.93674 0.0
C1534 C 0.88533 0.5143 0.94812 0.0
C1535 C 0.88223 0.49672 0.89805 0.0
C1536 C 0.88289 0.51181 0.79874 0.0
H1537 H 0.89947 0.46453 0.6609 0.0
H1538 H 0.89097 0.47041 0.72671 0.0
H1539 H 0.88829 0.51428 0.73812 0.0
H1540 H 0.88121 0.53521 0.92906 0.0
H1541 H 0.8752 0.52876 0.86165 0.0
H1542 H 0.86741 0.48337 0.83813 0.0
C1543 C 0.88846 0.47711 0.70216 0.0
C1544 C 0.88345 0.50757 0.75959 0.0
C1545 C 0.8934 0.47381 0.66461 0.0
C1546 C 0.88151 0.52443 0.92073 0.0
C1547 C 0.8781 0.52072 0.88218 0.0
C1548 C 0.87195 0.49023 0.81656 0.0
C1549 C 0.88127 0.48948 0.70839 0.0
C1550 C 0.87871 0.49445 0.74876 0.0
C1551 C 0.8788 0.50686 0.8701 0.0
C1552 C 0.87742 0.50309 0.82789 0.0
H1553 H 0.88097 0.5018 0.61488 0.0
H1554 H 0.87258 0.50753 0.68036 0.0
H1555 H 0.86893 0.47575 0.76945 0.0
H1556 H 0.8883 0.49239 0.95731 0.0
H1557 H 0.88316 0.48598 0.88978 0.0
C1558 C 0.25072 0.13574 0.69282 0.0
C1559 C 0.23688 0.13665 0.70473 0.0
C1560 C 0.25405 0.1325 0.65386 0.0
C1561 C 0.2386 0.13453 0.55479 0.0
H1562 H 0.27311 0.11758 0.52329 0.0
C1563 C 0.2543 0.13201 0.39254 0.0
C1564 C 0.26723 0.13799 0.38476 0.0
C1565 C 0.25062 0.12834 0.43089 0.0
C1566 C 0.26341 0.12227 0.53175 0.0
H1567 H 0.2157 0.13387 0.68604 0.0
H1568 H 0.2215 0.12769 0.61834 0.0
H1569 H 0.26608 0.117 0.59257 0.0
H1570 H 0.28681 0.14386 0.41091 0.0
H1571 H 0.2803 0.13746 0.47801 0.0
H1572 H 0.236 0.1399 0.49414 0.0
C1573 C 0.22979 0.12998 0.63869 0.0
C1574 C 0.2594 0.12201 0.57138 0.0
C1575 C 0.22645 0.13346 0.67751 0.0
C1576 C 0.27672 0.1394 0.41589 0.0
C1577 C 0.27304 0.13564 0.45428 0.0
C1578 C 0.24252 0.13463 0.51525 0.0
C1579 C 0.24362 0.1299 0.62605 0.0
C1580 C 0.24709 0.12843 0.58351 0.0
C1581 C 0.25981 0.13047 0.46226 0.0
C1582 C 0.25508 0.12876 0.50346 0.0
H1583 H 0.259 0.13818 0.71311 0.0
H1584 H 0.2648 0.13274 0.64522 0.0
H1585 H 0.22921 0.13984 0.56295 0.0
H1586 H 0.24677 0.13063 0.36928 0.0
H1587 H 0.2404 0.12422 0.43624 0.0
C1588 C 0.61954 0.50344 0.14404 0.0
C1589 C 0.61337 0.5163 0.13656 0.0
C1590 C 0.62352 0.49984 0.18215 0.0
C1591 C 0.63045 0.5126 0.28221 0.0
H1592 H 0.61302 0.47848 0.3148 0.0
C1593 C 0.61872 0.49981 0.44418 0.0
C1594 C 0.61774 0.48596 0.4559 0.0
C1595 C 0.62163 0.50316 0.40505 0.0
C1596 C 0.6183 0.48784 0.30621 0.0
H1597 H 0.60744 0.53583 0.1629 0.0
H1598 H 0.6144 0.52944 0.2297 0.0
H1599 H 0.61219 0.48534 0.24612 0.0
H1600 H 0.62013 0.46478 0.43678 0.0
H1601 H 0.62579 0.47062 0.36875 0.0
H1602 H 0.6365 0.51515 0.34247 0.0
C1603 C 0.61612 0.52219 0.20587 0.0
C1604 C 0.61775 0.4918 0.26677 0.0
C1605 C 0.61205 0.5258 0.16769 0.0
C1606 C 0.62061 0.47554 0.42838 0.0
C1607 C 0.62378 0.4789 0.38938 0.0
C1608 C 0.63118 0.50854 0.32173 0.0
C1609 C 0.6215 0.50903 0.21354 0.0
C1610 C 0.62357 0.50433 0.25455 0.0
C1611 C 0.62386 0.49274 0.37693 0.0
C1612 C 0.62484 0.49625 0.33435 0.0
H1613 H 0.62087 0.49591 0.12077 0.0
H1614 H 0.62779 0.48968 0.18731 0.0
H1615 H 0.63511 0.52226 0.27335 0.0
H1616 H 0.61652 0.50807 0.46475 0.0
H1617 H 0.62141 0.51392 0.39658 0.0
C1618 C 0.22436 0.87072 0.90427 0.0
C1619 C 0.23507 0.86869 0.87699 0.0
C1620 C 0.22733 0.87399 0.94348 0.0
C1621 C 0.25614 0.88304 0.0126 0.0
H1622 H 0.23402 0.86205 0.08653 0.0
C1623 C 0.27442 0.86421 0.16592 0.0
C1624 C 0.26485 0.86464 0.19709 0.0
C1625 C 0.27054 0.86821 0.12788 0.0
C1626 C 0.24016 0.86817 0.06638 0.0
H1627 H 0.25724 0.86916 0.86886 0.0
H1628 H 0.26245 0.87425 0.93733 0.0
H1629 H 0.22734 0.8629 0.01769 0.0
H1630 H 0.24392 0.87041 0.21304 0.0
H1631 H 0.2372 0.8772 0.14669 0.0
H1632 H 0.26942 0.88754 0.06158 0.0
C1633 C 0.25174 0.87371 0.92852 0.0
C1634 C 0.2363 0.86873 0.02682 0.0
C1635 C 0.24876 0.87069 0.88918 0.0
C1636 C 0.25154 0.86982 0.18974 0.0
C1637 C 0.24765 0.8737 0.15174 0.0
C1638 C 0.26012 0.88231 0.05221 0.0
C1639 C 0.24108 0.87501 0.95643 0.0
C1640 C 0.24435 0.87598 -0.00077 0.0
C1641 C 0.257 0.87262 0.12031 0.0
C1642 C 0.25225 0.8747 0.07929 0.0
H1643 H 0.21369 0.86944 0.89555 0.0
H1644 H 0.21884 0.87529 0.96389 0.0
H1645 H 0.26246 0.88892 0.99235 0.0
H1646 H 0.28478 0.86038 0.17058 0.0
H1647 H 0.27792 0.8672 0.10406 0.0
C1648 C 0.61719 0.97513 0.64941 0.0
C1649 C 0.6134 0.98559 0.62293 0.0
C1650 C 0.62148 0.97842 0.68758 0.0
C1651 C 0.63064 0.00787 0.75417 0.0
H1652 H 0.61445 0.98408 0.83352 0.0
C1653 C 0.61647 0.02434 0.91321 0.0
C1654 C 0.61837 0.01464 0.94357 0.0
C1655 C 0.61954 0.02092 0.87411 0.0
C1656 C 0.61927 0.99071 0.81179 0.0
H1657 H 0.61167 0.0077 0.615 0.0
H1658 H 0.61853 0.01342 0.68198 0.0
H1659 H 0.6131 0.97759 0.76463 0.0
H1660 H 0.626 0.99409 0.95685 0.0
H1661 H 0.63123 0.98818 0.88873 0.0
H1662 H 0.63605 0.02137 0.80191 0.0
C1663 C 0.6186 0.00269 0.67317 0.0
C1664 C 0.61855 0.98696 0.77217 0.0
C1665 C 0.61456 0.99941 0.63476 0.0
C1666 C 0.62423 0.00178 0.93424 0.0
C1667 C 0.62723 0.99836 0.89521 0.0
C1668 C 0.6312 0.01171 0.79393 0.0
C1669 C 0.62177 0.99222 0.70039 0.0
C1670 C 0.62403 0.99558 0.74273 0.0
C1671 C 0.62452 0.00773 0.86466 0.0
C1672 C 0.62535 0.00323 0.82302 0.0
H1673 H 0.6166 0.96439 0.64087 0.0
H1674 H 0.6242 0.9701 0.70738 0.0
H1675 H 0.63518 0.01466 0.73238 0.0
H1676 H 0.61208 0.03438 0.91935 0.0
H1677 H 0.61729 0.02832 0.85107 0.0
C1678 C 0.22476 0.36602 0.1671 0.0
C1679 C 0.23423 0.36717 0.19835 0.0
C1680 C 0.22868 0.3694 0.12863 0.0
C1681 C 0.2593 0.36843 0.06831 0.0
H1682 H 0.23669 0.38642 0.98935 0.0
C1683 C 0.27525 0.36709 0.9057 0.0
C1684 C 0.26462 0.36425 0.87878 0.0
C1685 C 0.27216 0.37101 0.94435 0.0
C1686 C 0.2431 0.3813 0.01101 0.0
H1687 H 0.25495 0.37372 0.21395 0.0
H1688 H 0.26175 0.37947 0.1468 0.0
H1689 H 0.22965 0.38697 0.0586 0.0
H1690 H 0.24244 0.36374 0.8708 0.0
H1691 H 0.23705 0.36998 0.93838 0.0
H1692 H 0.27231 0.362 0.02113 0.0
C1693 C 0.25135 0.37585 0.15215 0.0
C1694 C 0.23909 0.38169 0.05061 0.0
C1695 C 0.24742 0.37257 0.1906 0.0
C1696 C 0.25086 0.3659 0.89084 0.0
C1697 C 0.24777 0.36959 0.92962 0.0
C1698 C 0.26321 0.36788 0.02879 0.0
C1699 C 0.24215 0.37392 0.12069 0.0
C1700 C 0.24705 0.37506 0.0795 0.0
C1701 C 0.25838 0.37194 0.95711 0.0
C1702 C 0.25504 0.37408 -0.00051 0.0
H1703 H 0.21448 0.36201 0.17205 0.0
H1704 H 0.22141 0.36775 0.10484 0.0
H1705 H 0.26553 0.36305 0.08991 0.0
H1706 H 0.28596 0.3661 0.89706 0.0
H1707 H 0.28059 0.37305 0.96445 0.0
C1708 C 0.88508 0.0017 0.44916 0.0
C1709 C 0.88566 0.98783 0.46083 0.0
C1710 C 0.88149 0.00518 0.41059 0.0
C1711 C 0.88178 0.98968 0.31142 0.0
H1712 H 0.86634 0.02506 0.28155 0.0
C1713 C 0.87902 0.00553 0.14997 0.0
C1714 C 0.88612 0.01787 0.14206 0.0
C1715 C 0.8751 0.00222 0.18836 0.0
C1716 C 0.87058 0.01512 0.28958 0.0
H1717 H 0.88193 0.96677 0.4424 0.0
H1718 H 0.87507 0.97285 0.37545 0.0
H1719 H 0.86598 0.01795 0.35079 0.0
H1720 H 0.8936 0.03693 0.16791 0.0
H1721 H 0.88675 0.03105 0.23517 0.0
H1722 H 0.88647 0.98691 0.25039 0.0
C1723 C 0.87791 0.98104 0.39557 0.0
C1724 C 0.87045 0.01106 0.32916 0.0
C1725 C 0.88178 0.97754 0.43395 0.0
C1726 C 0.88829 0.02728 0.17301 0.0
C1727 C 0.88428 0.02398 0.21149 0.0
C1728 C 0.88171 0.99365 0.27195 0.0
C1729 C 0.87817 0.99487 0.38302 0.0
C1730 C 0.87638 0.99843 0.34068 0.0
C1731 C 0.87809 0.0112 0.2196 0.0
C1732 C 0.8764 0.00651 0.26077 0.0
H1733 H 0.88807 0.00985 0.46924 0.0
H1734 H 0.88202 0.01591 0.40202 0.0
H1735 H 0.88672 0.98004 0.31904 0.0
H1736 H 0.87699 0.99811 0.12682 0.0
H1737 H 0.87018 0.99237 0.19387 0.0
C1738 C 0.25453 0.63355 0.69008 0.0
C1739 C 0.26767 0.63922 0.69682 0.0
C1740 C 0.25067 0.62927 0.65244 0.0
C1741 C 0.26309 0.62051 0.55309 0.0
H1742 H 0.22984 0.63909 0.51849 0.0
C1743 C 0.25194 0.63252 0.39077 0.0
C1744 C 0.23826 0.6342 0.37811 0.0
C1745 C 0.25481 0.62931 0.43001 0.0
C1746 C 0.23893 0.63347 0.52768 0.0
H1747 H 0.28739 0.64395 0.66969 0.0
H1748 H 0.28058 0.63646 0.6037 0.0
H1749 H 0.23653 0.64021 0.58728 0.0
H1750 H 0.21682 0.6327 0.39569 0.0
H1751 H 0.2218 0.62659 0.46398 0.0
H1752 H 0.26557 0.61388 0.4933 0.0
C1753 C 0.2733 0.63536 0.62776 0.0
C1754 C 0.2428 0.63419 0.56718 0.0
C1755 C 0.27715 0.63975 0.66546 0.0
C1756 C 0.22747 0.63169 0.4048 0.0
C1757 C 0.23035 0.62825 0.44395 0.0
C1758 C 0.25911 0.61961 0.51354 0.0
C1759 C 0.2599 0.63045 0.62078 0.0
C1760 C 0.25508 0.62802 0.58004 0.0
C1761 C 0.24406 0.62751 0.45735 0.0
C1762 C 0.24718 0.62643 0.50015 0.0
H1763 H 0.24698 0.63284 0.71357 0.0
H1764 H 0.24032 0.62539 0.64783 0.0
H1765 H 0.27254 0.61555 0.56248 0.0
H1766 H 0.26049 0.6344 0.37091 0.0
H1767 H 0.26549 0.62902 0.43922 0.0
C1768 C 0.39104 0.97522 0.17183 0.0
C1769 C 0.38969 0.98474 0.14077 0.0
C1770 C 0.38754 0.97896 0.21039 0.0
C1771 C 0.38721 0.00944 0.27172 0.0
H1772 H 0.3683 0.98658 0.34833 0.0
C1773 C 0.384 0.02646 0.4331 0.0
C1774 C 0.38649 0.01618 0.46133 0.0
C1775 C 0.38121 0.02292 0.39397 0.0
C1776 C 0.37368 0.99305 0.32735 0.0
H1777 H 0.38276 0.00538 0.12567 0.0
H1778 H 0.37682 0.01186 0.19286 0.0
H1779 H 0.36932 0.97932 0.27927 0.0
H1780 H 0.38754 0.9941 0.47106 0.0
H1781 H 0.38327 0.98793 0.40277 0.0
H1782 H 0.39229 0.02279 0.31945 0.0
C1783 C 0.38069 0.00156 0.18733 0.0
C1784 C 0.3742 0.9889 0.28785 0.0
C1785 C 0.38408 0.99782 0.14884 0.0
C1786 C 0.38561 0.00228 0.45001 0.0
C1787 C 0.38306 0.99873 0.41079 0.0
C1788 C 0.38685 0.01349 0.31115 0.0
C1789 C 0.38271 0.99231 0.21857 0.0
C1790 C 0.38109 0.99702 0.2598 0.0
C1791 C 0.38112 0.00901 0.38208 0.0
C1792 C 0.38023 0.00528 0.3396 0.0
H1793 H 0.39523 0.96503 0.16663 0.0
H1794 H 0.38926 0.97165 0.23404 0.0
H1795 H 0.39279 0.01578 0.2508 0.0
H1796 H 0.38442 0.03727 0.44108 0.0
H1797 H 0.37943 0.0311 0.37287 0.0
C1798 C 0.74854 0.63532 0.18821 0.0
C1799 C 0.73473 0.63667 0.20003 0.0
C1800 C 0.75179 0.63198 0.14927 0.0
C1801 C 0.73646 0.63441 0.05007 0.0
H1802 H 0.77053 0.61651 0.01891 0.0
C1803 C 0.75216 0.63132 0.88802 0.0
C1804 C 0.76515 0.63718 0.8803 0.0
C1805 C 0.74842 0.62768 0.92635 0.0
C1806 C 0.76096 0.62146 0.02728 0.0
H1807 H 0.71348 0.63458 0.18123 0.0
H1808 H 0.71913 0.62821 0.11358 0.0
H1809 H 0.76343 0.61616 0.08814 0.0
H1810 H 0.78479 0.6428 0.90649 0.0
H1811 H 0.7782 0.63642 0.97356 0.0
H1812 H 0.73406 0.63978 0.98936 0.0
C1813 C 0.72747 0.63023 0.13396 0.0
C1814 C 0.75691 0.62133 0.06687 0.0
C1815 C 0.72422 0.63382 0.17276 0.0
C1816 C 0.77466 0.63844 0.91142 0.0
C1817 C 0.77093 0.6347 0.9498 0.0
C1818 C 0.74041 0.63436 0.01055 0.0
C1819 C 0.7413 0.6297 0.1214 0.0
C1820 C 0.74476 0.6281 0.07889 0.0
C1821 C 0.75762 0.62971 0.95773 0.0
C1822 C 0.75283 0.62815 -0.0011 0.0
H1823 H 0.75688 0.6375 0.20854 0.0
H1824 H 0.76255 0.63187 0.1407 0.0
H1825 H 0.72722 0.63998 0.05811 0.0
H1826 H 0.74461 0.63005 0.86476 0.0
H1827 H 0.73815 0.6237 0.93168 0.0
C1828 C 0.11506 0.97446 0.9116 0.0
C1829 C 0.11724 0.984 0.94222 0.0
C1830 C 0.11845 0.97785 0.87272 0.0
C1831 C 0.11931 0.00816 0.81147 0.0
H1832 H 0.13494 0.98415 0.73172 0.0
C1833 C 0.11812 0.02429 0.64947 0.0
C1834 C 0.11429 0.01397 0.62262 0.0
C1835 C 0.12213 0.02081 0.68774 0.0
C1836 C 0.13049 0.99095 0.75361 0.0
H1837 H 0.12571 0.00416 0.9563 0.0
H1838 H 0.13146 0.01002 0.88851 0.0
H1839 H 0.13543 0.97715 0.80104 0.0
H1840 H 0.11211 0.99192 0.61412 0.0
H1841 H 0.11845 0.98589 0.68122 0.0
H1842 H 0.11355 0.02156 0.76459 0.0
C1843 C 0.12702 1.0 0.89464 0.0
C1844 C 0.13084 0.98696 0.79324 0.0
C1845 C 0.12372 0.99661 0.93346 0.0
C1846 C 0.11505 1.0001 0.6342 0.0
C1847 C 0.1188 0.99664 0.67267 0.0
C1848 C 0.11878 0.01205 0.77197 0.0
C1849 C 0.12402 0.99084 0.86381 0.0
C1850 C 0.12509 0.99547 0.8224 0.0
C1851 C 0.1221 0.00697 0.7002 0.0
C1852 C 0.12418 0.00342 0.74243 0.0
H1853 H 0.11021 0.96461 0.91735 0.0
H1854 H 0.11597 0.97062 0.8494 0.0
H1855 H 0.11458 0.0148 0.8333 0.0
H1856 H 0.11784 0.03506 0.64108 0.0
H1857 H 0.12495 0.02902 0.70783 0.0
C1858 C 0.74996 0.36656 0.69707 0.0
C1859 C 0.76387 0.36656 0.70846 0.0
C1860 C 0.74626 0.37009 0.6586 0.0
C1861 C 0.76179 0.37056 0.5595 0.0
H1862 H 0.72596 0.38477 0.52907 0.0
C1863 C 0.74679 0.37366 0.39768 0.0
C1864 C 0.73468 0.36633 0.38872 0.0
C1865 C 0.74973 0.37743 0.43643 0.0
C1866 C 0.73602 0.38087 0.53726 0.0
H1867 H 0.7847 0.37135 0.68994 0.0
H1868 H 0.77822 0.37815 0.6233 0.0
H1869 H 0.7328 0.38509 0.59857 0.0
H1870 H 0.71561 0.35824 0.41309 0.0
H1871 H 0.72085 0.36478 0.481 0.0
H1872 H 0.76497 0.36622 0.49846 0.0
C1873 C 0.77019 0.37486 0.64342 0.0
C1874 C 0.73993 0.38098 0.57699 0.0
C1875 C 0.77392 0.37103 0.68161 0.0
C1876 C 0.7251 0.36376 0.41901 0.0
C1877 C 0.72803 0.36759 0.45786 0.0
C1878 C 0.75797 0.37063 0.51994 0.0
C1879 C 0.75638 0.37394 0.63099 0.0
C1880 C 0.75277 0.37556 0.58865 0.0
C1881 C 0.7406 0.37402 0.46702 0.0
C1882 C 0.74498 0.37555 0.50851 0.0
H1883 H 0.742 0.36312 0.71723 0.0
H1884 H 0.73555 0.36908 0.65008 0.0
H1885 H 0.7716 0.36597 0.56725 0.0
H1886 H 0.75432 0.37601 0.37506 0.0
H1887 H 0.7594 0.38255 0.44274 0.0
C1888 C 0.0971 0.42157 0.11564 0.0
C1889 C 0.10414 0.42921 0.08676 0.0
C1890 C 0.1033 0.41001 0.133 0.0
C1891 C 0.13337 0.38599 0.12361 0.0
H1892 H 0.13159 0.38531 0.23782 0.0
C1893 C 0.1699 0.35148 0.21571 0.0
C1894 C 0.17634 0.35847 0.24698 0.0
C1895 C 0.15845 0.35729 0.19665 0.0
C1896 C 0.13217 0.38531 0.2059 0.0
H1897 H 0.12292 0.43034 0.05212 0.0
H1898 H 0.13374 0.41051 0.08253 0.0
H1899 H 0.11645 0.40066 0.2012 0.0
H1900 H 0.17548 0.37673 0.28388 0.0
H1901 H 0.15581 0.38683 0.25075 0.0
H1902 H 0.14976 0.37133 0.12852 0.0
C1903 C 0.12338 0.41321 0.09161 0.0
C1904 C 0.12335 0.394 0.18483 0.0
C1905 C 0.1172 0.42471 0.07435 0.0
C1906 C 0.17079 0.37107 0.25982 0.0
C1907 C 0.15938 0.37682 0.24099 0.0
C1908 C 0.14225 0.37735 0.14471 0.0
C1909 C 0.11666 0.40587 0.12175 0.0
C1910 C 0.12417 0.39482 0.14347 0.0
C1911 C 0.15319 0.37015 0.20873 0.0
C1912 C 0.1421 0.37727 0.1862 0.0
H1913 H 0.08699 0.42476 0.12574 0.0
H1914 H 0.09776 0.40449 0.1558 0.0
H1915 H 0.1341 0.38615 0.09172 0.0
H1916 H 0.17395 0.34174 0.20518 0.0
H1917 H 0.15386 0.35182 0.1721 0.0
C1918 C 0.8781 0.92497 0.51617 0.0
C1919 C 0.89144 0.92948 0.50648 0.0
C1920 C 0.8721 0.9139 0.49623 0.0
C1921 C 0.87365 0.89582 0.4011 0.0
H1922 H 0.84737 0.87159 0.45235 0.0
C1923 C 0.83007 0.85105 0.36174 0.0
C1924 C 0.8237 0.85783 0.32996 0.0
C1925 C 0.84082 0.85743 0.38252 0.0
C1926 C 0.85485 0.87807 0.43756 0.0
H1927 H 0.90915 0.92558 0.46911 0.0
H1928 H 0.89869 0.9061 0.43433 0.0
H1929 H 0.86181 0.8867 0.49215 0.0
H1930 H 0.82404 0.8763 0.29394 0.0
H1931 H 0.84254 0.88738 0.33004 0.0
H1932 H 0.8666 0.88728 0.34649 0.0
C1933 C 0.89282 0.91126 0.45714 0.0
C1934 C 0.86301 0.88688 0.46038 0.0
C1935 C 0.89884 0.92237 0.4772 0.0
C1936 C 0.8287 0.8708 0.31832 0.0
C1937 C 0.83942 0.87712 0.33889 0.0
C1938 C 0.86551 0.88699 0.37829 0.0
C1939 C 0.87928 0.90702 0.46605 0.0
C1940 C 0.87221 0.89618 0.44237 0.0
C1941 C 0.84546 0.87067 0.37174 0.0
C1942 C 0.8557 0.87831 0.39614 0.0
H1943 H 0.8721 0.93022 0.53855 0.0
H1944 H 0.8616 0.91111 0.50351 0.0
H1945 H 0.88056 0.90286 0.38615 0.0
H1946 H 0.82644 0.84105 0.3714 0.0
H1947 H 0.84534 0.85211 0.40745 0.0
C1948 C 0.38434 0.57951 0.56845 0.0
C1949 C 0.39706 0.57425 0.5813 0.0
C1950 C 0.37811 0.59051 0.58805 0.0
C1951 C 0.36875 0.61719 0.62508 0.0
H1952 H 0.36757 0.61423 0.73907 0.0
C1953 C 0.33305 0.65203 0.71874 0.0
C1954 C 0.32534 0.64492 0.74736 0.0
C1955 C 0.3443 0.64565 0.70022 0.0
C1956 C 0.36781 0.61524 0.70725 0.0
H1957 H 0.41349 0.57675 0.62402 0.0
H1958 H 0.40258 0.59611 0.65843 0.0
H1959 H 0.38266 0.59906 0.70148 0.0
H1960 H 0.32368 0.62575 0.77997 0.0
H1961 H 0.34302 0.61465 0.7476 0.0
H1962 H 0.35329 0.63279 0.63066 0.0
C1963 C 0.39739 0.5916 0.63326 0.0
C1964 C 0.37661 0.60664 0.68571 0.0
C1965 C 0.40368 0.58057 0.61344 0.0
C1966 C 0.32939 0.63153 0.75803 0.0
C1967 C 0.34059 0.62519 0.73965 0.0
C1968 C 0.35993 0.62576 0.64661 0.0
C1969 C 0.38442 0.59656 0.62112 0.0
C1970 C 0.37687 0.60721 0.64426 0.0
C1971 C 0.34807 0.63206 0.71008 0.0
C1972 C 0.35903 0.62459 0.68788 0.0
H1973 H 0.37897 0.5749 0.54375 0.0
H1974 H 0.36804 0.59387 0.5782 0.0
H1975 H 0.36887 0.61807 0.59323 0.0
H1976 H 0.3302 0.66237 0.70994 0.0
H1977 H 0.34992 0.65129 0.67783 0.0
C1978 C 0.67442 0.13149 0.8182 0.0
C1979 C 0.67972 0.14424 0.83066 0.0
C1980 C 0.66364 0.1252 0.83864 0.0
C1981 C 0.63741 0.11564 0.87771 0.0
H1982 H 0.64145 0.11449 0.99141 0.0
C1983 C 0.60422 0.07907 0.97311 0.0
C1984 C 0.61177 0.07147 0.00101 0.0
C1985 C 0.61013 0.09056 0.95459 0.0
C1986 C 0.64014 0.11472 0.95968 0.0
H1987 H 0.67751 0.16066 0.87355 0.0
H1988 H 0.65853 0.14965 0.9094 0.0
H1989 H 0.65609 0.12976 0.9527 0.0
H1990 H 0.6312 0.0703 0.0325 0.0
H1991 H 0.6415 0.09003 6e-05 0.0
H1992 H 0.62208 0.09997 0.88441 0.0
C1993 C 0.66284 0.14448 0.8839 0.0
C1994 C 0.64843 0.12362 0.9375 0.0
C1995 C 0.67364 0.15083 0.86325 0.0
C1996 C 0.62509 0.07591 0.01111 0.0
C1997 C 0.63097 0.08734 0.9927 0.0
C1998 C 0.62916 0.1067 0.89986 0.0
C1999 C 0.65785 0.13148 0.87215 0.0
C2000 C 0.64747 0.12386 0.89611 0.0
C2001 C 0.62368 0.09469 0.96368 0.0
C2002 C 0.63073 0.10581 0.94103 0.0
H2003 H 0.67885 0.12614 0.79318 0.0
H2004 H 0.66026 0.1151 0.82905 0.0
H2005 H 0.63623 0.11574 0.84593 0.0
H2006 H 0.59391 0.07593 0.96479 0.0
H2007 H 0.60417 0.09608 0.93269 0.0
C2008 C 0.1771 0.62668 0.31475 0.0
C2009 C 0.18128 0.64011 0.32458 0.0
C2010 C 0.16611 0.62043 0.33441 0.0
C2011 C 0.14809 0.62162 0.42966 0.0
H2012 H 0.12528 0.59381 0.37979 0.0
C2013 C 0.10614 0.5756 0.47143 0.0
C2014 C 0.11329 0.56989 0.50357 0.0
C2015 C 0.11181 0.5866 0.45006 0.0
C2016 C 0.13135 0.6017 0.39421 0.0
H2017 H 0.17678 0.65777 0.36155 0.0
H2018 H 0.1574 0.64689 0.39574 0.0
H2019 H 0.13943 0.60893 0.3392 0.0
H2020 H 0.13172 0.57161 0.53945 0.0
H2021 H 0.14163 0.59051 0.50222 0.0
H2022 H 0.14007 0.61434 0.48467 0.0
C2023 C 0.16278 0.64112 0.37314 0.0
C2024 C 0.13961 0.61027 0.37092 0.0
C2025 C 0.17383 0.64739 0.3534 0.0
C2026 C 0.12593 0.57575 0.51483 0.0
C2027 C 0.13158 0.5867 0.4936 0.0
C2028 C 0.13977 0.6131 0.45292 0.0
C2029 C 0.15897 0.62745 0.36441 0.0
C2030 C 0.14844 0.62002 0.38843 0.0
C2031 C 0.12473 0.59213 0.46052 0.0
C2032 C 0.13166 0.60271 0.43559 0.0
H2033 H 0.18261 0.62077 0.29268 0.0
H2034 H 0.16365 0.60984 0.32723 0.0
H2035 H 0.15477 0.62896 0.44426 0.0
H2036 H 0.09636 0.57132 0.46207 0.0
H2037 H 0.10619 0.59062 0.42497 0.0
C2038 C 0.61766 0.92229 0.56723 0.0
C2039 C 0.60485 0.92746 0.5797 0.0
C2040 C 0.62384 0.91128 0.58685 0.0
C2041 C 0.62472 0.89498 0.68442 0.0
H2042 H 0.64953 0.86984 0.63076 0.0
C2043 C 0.67026 0.8518 0.71975 0.0
C2044 C 0.67733 0.85933 0.7488 0.0
C2045 C 0.65876 0.8575 0.70071 0.0
C2046 C 0.64247 0.87657 0.64632 0.0
H2047 H 0.58818 0.92471 0.62155 0.0
H2048 H 0.59896 0.90529 0.65582 0.0
H2049 H 0.63376 0.88403 0.5924 0.0
H2050 H 0.67757 0.87851 0.78173 0.0
H2051 H 0.65785 0.88845 0.74847 0.0
H2052 H 0.63349 0.88759 0.73833 0.0
C2053 C 0.60429 0.90991 0.63106 0.0
C2054 C 0.63353 0.88484 0.62426 0.0
C2055 C 0.59808 0.92098 0.61132 0.0
C2056 C 0.67238 0.87242 0.75944 0.0
C2057 C 0.66095 0.87809 0.74056 0.0
C2058 C 0.63359 0.88664 0.70649 0.0
C2059 C 0.61738 0.90509 0.61947 0.0
C2060 C 0.62492 0.89452 0.64296 0.0
C2061 C 0.6541 0.87082 0.7105 0.0
C2062 C 0.64294 0.87771 0.68766 0.0
H2063 H 0.62316 0.92703 0.54295 0.0
H2064 H 0.63401 0.90805 0.57742 0.0
H2065 H 0.61827 0.90232 0.69988 0.0
H2066 H 0.67382 0.84167 0.71098 0.0
H2067 H 0.65365 0.85157 0.67794 0.0
C2068 C 0.32725 0.37083 0.81756 0.0
C2069 C 0.3222 0.35785 0.82889 0.0
C2070 C 0.33822 0.3769 0.83768 0.0
C2071 C 0.35447 0.37707 0.93524 0.0
H2072 H 0.37991 0.40198 0.88323 0.0
C2073 C 0.39823 0.42182 0.97309 0.0
C2074 C 0.39076 0.42893 0.00222 0.0
C2075 C 0.39238 0.41048 0.9537 0.0
C2076 C 0.37309 0.39489 0.89833 0.0
H2077 H 0.32508 0.34079 0.86928 0.0
H2078 H 0.34441 0.35139 0.90454 0.0
H2079 H 0.36561 0.38663 0.84385 0.0
H2080 H 0.37157 0.42934 0.03508 0.0
H2081 H 0.36138 0.40983 0.00124 0.0
H2082 H 0.36184 0.38546 0.98972 0.0
C2083 C 0.33975 0.35692 0.88021 0.0
C2084 C 0.36476 0.38619 0.87569 0.0
C2085 C 0.32874 0.35081 0.85988 0.0
C2086 C 0.37761 0.42412 0.01272 0.0
C2087 C 0.37179 0.41281 0.99349 0.0
C2088 C 0.36284 0.38574 0.9579 0.0
C2089 C 0.34446 0.37016 0.86975 0.0
C2090 C 0.355 0.37752 0.8938 0.0
C2091 C 0.37897 0.406 0.96319 0.0
C2092 C 0.37191 0.3951 0.93968 0.0
H2093 H 0.32245 0.37655 0.79378 0.0
H2094 H 0.3414 0.38717 0.82913 0.0
H2095 H 0.34705 0.37057 0.95024 0.0
H2096 H 0.40841 0.42528 0.9644 0.0
H2097 H 0.39825 0.40537 0.93078 0.0
C2098 C 0.83124 0.1516 0.22028 0.0
C2099 C 0.8244 0.14428 0.25024 0.0
C2100 C 0.84273 0.14586 0.2013 0.0
C2101 C 0.85848 0.12612 0.14754 0.0
H2102 H 0.88363 0.10148 0.20165 0.0
C2103 C 0.88215 0.07883 0.07316 0.0
C2104 C 0.89517 0.07399 0.08475 0.0
C2105 C 0.87628 0.09031 0.09142 0.0
C2106 C 0.87691 0.10851 0.18598 0.0
H2107 H 0.82465 0.12554 0.28513 0.0
H2108 H 0.84444 0.11555 0.25207 0.0
H2109 H 0.86882 0.11672 0.23982 0.0
H2110 H 0.91258 0.0778 0.12332 0.0
H2111 H 0.90234 0.09798 0.15524 0.0
H2112 H 0.86643 0.11775 0.0937 0.0
C2113 C 0.84111 0.12575 0.2433 0.0
C2114 C 0.86829 0.11714 0.20792 0.0
C2115 C 0.82966 0.13144 0.26209 0.0
C2116 C 0.9025 0.08126 0.11384 0.0
C2117 C 0.8966 0.09277 0.13225 0.0
C2118 C 0.86714 0.11752 0.12559 0.0
C2119 C 0.84763 0.13274 0.21211 0.0
C2120 C 0.8586 0.12566 0.189 0.0
C2121 C 0.88329 0.09726 0.12178 0.0
C2122 C 0.87609 0.10823 0.14457 0.0
H2123 H 0.82743 0.16153 0.21055 0.0
H2124 H 0.84759 0.15157 0.17762 0.0
H2125 H 0.85113 0.13251 0.13195 0.0
H2126 H 0.87623 0.07349 0.05078 0.0
H2127 H 0.86595 0.0933 0.08295 0.0
C2128 C 0.89764 0.58029 0.96801 0.0
C2129 C 0.88953 0.57327 -0.0041 0.0
C2130 C 0.89241 0.59191 0.94847 0.0
C2131 C 0.87398 0.60857 0.89253 0.0
H2132 H 0.84874 0.63342 0.94564 0.0
C2133 C 0.82781 0.633 0.81533 0.0
C2134 C 0.82266 0.64582 0.82774 0.0
C2135 C 0.83918 0.6271 0.83391 0.0
C2136 C 0.85597 0.62681 0.93029 0.0
H2137 H 0.86982 0.57318 0.02616 0.0
H2138 H 0.86075 0.59319 0.99221 0.0
H2139 H 0.86307 0.61792 0.98435 0.0
H2140 H 0.82586 0.66287 0.86799 0.0
H2141 H 0.84589 0.65255 0.90057 0.0
H2142 H 0.86665 0.61727 0.83841 0.0
C2143 C 0.87117 0.58992 0.98555 0.0
C2144 C 0.86407 0.6178 0.95251 0.0
C2145 C 0.87633 0.57833 0.00478 0.0
C2146 C 0.82956 0.65295 0.85791 0.0
C2147 C 0.84099 0.64701 0.87665 0.0
C2148 C 0.8659 0.61762 0.87028 0.0
C2149 C 0.87905 0.59676 0.95681 0.0
C2150 C 0.87274 0.60818 0.93383 0.0
C2151 C 0.84573 0.63386 0.86544 0.0
C2152 C 0.85638 0.62645 0.88884 0.0
H2153 H 0.90786 0.57662 0.96058 0.0
H2154 H 0.89875 0.59699 0.92656 0.0
H2155 H 0.88054 0.6013 0.87719 0.0
H2156 H 0.82276 0.62725 0.79204 0.0
H2157 H 0.84238 0.61689 0.82481 0.0
C2158 C 0.10158 0.07884 0.60909 0.0
C2159 C 0.10856 0.0722 0.57811 0.0
C2160 C 0.10785 0.08974 0.62953 0.0
C2161 C 0.12796 0.10446 0.68461 0.0
H2162 H 0.15309 0.12966 0.6325 0.0
C2163 C 0.17415 0.12868 0.76385 0.0
C2164 C 0.17879 0.14188 0.75317 0.0
C2165 C 0.16319 0.1225 0.74392 0.0
C2166 C 0.14595 0.1229 0.6476 0.0
H2167 H 0.12735 0.07212 0.54335 0.0
H2168 H 0.13824 0.09086 0.57894 0.0
H2169 H 0.13796 0.1151 0.59312 0.0
H2170 H 0.17521 0.15918 0.71407 0.0
H2171 H 0.1559 0.14839 0.67923 0.0
H2172 H 0.13603 0.11217 0.73908 0.0
C2173 C 0.12789 0.08786 0.58735 0.0
C2174 C 0.13738 0.11442 0.62498 0.0
C2175 C 0.12167 0.077 0.56708 0.0
C2176 C 0.17188 0.14899 0.72296 0.0
C2177 C 0.16088 0.14277 0.70287 0.0
C2178 C 0.13649 0.11297 0.70723 0.0
C2179 C 0.12118 0.09424 0.61925 0.0
C2180 C 0.12859 0.10478 0.64317 0.0
C2181 C 0.15654 0.12935 0.71273 0.0
C2182 C 0.14591 0.12199 0.689 0.0
H2183 H 0.09146 0.07538 0.61827 0.0
H2184 H 0.10233 0.09451 0.65374 0.0
H2185 H 0.12137 0.09714 0.69967 0.0
H2186 H 0.17924 0.1229 0.78699 0.0
H2187 H 0.16032 0.11209 0.75198 0.0
C2188 C 0.67495 0.37128 0.31716 0.0
C2189 C 0.67939 0.358 0.32761 0.0
C2190 C 0.66364 0.37729 0.3359 0.0
C2191 C 0.64542 0.37601 0.43051 0.0
H2192 H 0.62227 0.40334 0.37979 0.0
C2193 C 0.60318 0.42179 0.47127 0.0
C2194 C 0.61051 0.4279 0.50246 0.0
C2195 C 0.60885 0.4107 0.45032 0.0
C2196 C 0.62843 0.39557 0.39442 0.0
H2197 H 0.67497 0.34028 0.36442 0.0
H2198 H 0.65505 0.35075 0.39705 0.0
H2199 H 0.6366 0.38822 0.33963 0.0
H2200 H 0.62925 0.42679 0.53724 0.0
H2201 H 0.63911 0.40766 0.50084 0.0
H2202 H 0.6374 0.38349 0.4853 0.0
C2203 C 0.66047 0.35659 0.37468 0.0
C2204 C 0.63679 0.387 0.37139 0.0
C2205 C 0.67183 0.35056 0.35585 0.0
C2206 C 0.62333 0.42234 0.51332 0.0
C2207 C 0.62895 0.41126 0.4926 0.0
C2208 C 0.63704 0.38455 0.4535 0.0
C2209 C 0.65644 0.37016 0.36558 0.0
C2210 C 0.64574 0.37745 0.38923 0.0
C2211 C 0.62191 0.40545 0.46039 0.0
C2212 C 0.62882 0.39476 0.43583 0.0
H2213 H 0.68053 0.37729 0.29545 0.0
H2214 H 0.66099 0.38782 0.32843 0.0
H2215 H 0.65221 0.36883 0.44533 0.0
H2216 H 0.59327 0.42586 0.46222 0.0
H2217 H 0.60312 0.40637 0.42586 0.0
C2218 C 0.3836 0.92193 0.07411 0.0
C2219 C 0.39634 0.92703 0.08733 0.0
C2220 C 0.37749 0.91058 0.09228 0.0
C2221 C 0.36794 0.88358 0.12649 0.0
H2222 H 0.36709 0.88527 0.24069 0.0
C2223 C 0.3304 0.84976 0.21735 0.0
C2224 C 0.32311 0.85707 0.24645 0.0
C2225 C 0.34205 0.8556 0.19937 0.0
C2226 C 0.36725 0.88461 0.20879 0.0
H2227 H 0.41298 0.92384 0.12895 0.0
H2228 H 0.40227 0.90384 0.16091 0.0
H2229 H 0.38261 0.90035 0.2043 0.0
H2230 H 0.32262 0.876 0.2805 0.0
H2231 H 0.34261 0.88617 0.24908 0.0
H2232 H 0.35191 0.86852 0.13086 0.0
C2233 C 0.39697 0.90876 0.13657 0.0
C2234 C 0.37629 0.89315 0.18792 0.0
C2235 C 0.40314 0.92015 0.11817 0.0
C2236 C 0.32797 0.87008 0.25814 0.0
C2237 C 0.33956 0.87588 0.24033 0.0
C2238 C 0.35885 0.87509 0.14736 0.0
C2239 C 0.38394 0.904 0.12425 0.0
C2240 C 0.37639 0.8931 0.14644 0.0
C2241 C 0.34665 0.86883 0.21031 0.0
C2242 C 0.35803 0.87587 0.18872 0.0
H2243 H 0.37809 0.92696 0.05033 0.0
H2244 H 0.36737 0.90739 0.08233 0.0
H2245 H 0.36794 0.88309 0.09456 0.0
H2246 H 0.32692 0.83969 0.20779 0.0
H2247 H 0.34734 0.84984 0.17657 0.0
C2248 C 0.82844 0.37235 0.75823 0.0
C2249 C 0.82259 0.3598 0.74613 0.0
C2250 C 0.83922 0.37829 0.73693 0.0
C2251 C 0.86585 0.38619 0.69644 0.0
H2252 H 0.86073 0.38866 0.58323 0.0
C2253 C 0.90197 0.4193 0.5999 0.0
C2254 C 0.89509 0.4281 0.57351 0.0
C2255 C 0.8949 0.40846 0.61821 0.0
C2256 C 0.86234 0.38802 0.6148 0.0
H2257 H 0.82369 0.34344 0.70271 0.0
H2258 H 0.84261 0.35387 0.6652 0.0
H2259 H 0.8452 0.37437 0.6224 0.0
H2260 H 0.87558 0.43206 0.54433 0.0
H2261 H 0.86329 0.41334 0.57637 0.0
H2262 H 0.88252 0.40038 0.68921 0.0
C2263 C 0.83878 0.35912 0.69121 0.0
C2264 C 0.85353 0.37971 0.6372 0.0
C2265 C 0.82802 0.3531 0.7128 0.0
C2266 C 0.88119 0.42548 0.56454 0.0
C2267 C 0.87416 0.41466 0.58273 0.0
C2268 C 0.87466 0.39448 0.67407 0.0
C2269 C 0.84439 0.37186 0.70283 0.0
C2270 C 0.85495 0.379 0.67843 0.0
C2271 C 0.88083 0.40617 0.61039 0.0
C2272 C 0.87278 0.3958 0.6331 0.0
H2273 H 0.82449 0.37778 0.78378 0.0
H2274 H 0.84314 0.3882 0.7464 0.0
H2275 H 0.86733 0.38571 0.72809 0.0
H2276 H 0.91268 0.42104 0.60733 0.0
H2277 H 0.90038 0.40201 0.63903 0.0
C2278 C 0.37893 0.07991 0.51935 0.0
C2279 C 0.39201 0.07476 0.50943 0.0
C2280 C 0.37337 0.09115 0.49925 0.0
C2281 C 0.36525 0.11827 0.46268 0.0
H2282 H 0.3677 0.11667 0.34864 0.0
C2283 C 0.33123 0.15311 0.36479 0.0
C2284 C 0.32448 0.14599 0.33431 0.0
C2285 C 0.34235 0.14703 0.38467 0.0
C2286 C 0.36694 0.11731 0.38048 0.0
H2287 H 0.40975 0.07768 0.47146 0.0
H2288 H 0.40003 0.09747 0.43622 0.0
H2289 H 0.38168 0.10115 0.38845 0.0
H2290 H 0.32452 0.12723 0.29947 0.0
H2291 H 0.3436 0.11663 0.33415 0.0
H2292 H 0.34985 0.13378 0.45471 0.0
C2293 C 0.39404 0.0927 0.45945 0.0
C2294 C 0.3751 0.10851 0.40334 0.0
C2295 C 0.39963 0.08141 0.47975 0.0
C2296 C 0.32946 0.133 0.32291 0.0
C2297 C 0.34053 0.12695 0.34263 0.0
C2298 C 0.35705 0.12702 0.43983 0.0
C2299 C 0.38074 0.09758 0.46862 0.0
C2300 C 0.374 0.10855 0.44471 0.0
C2301 C 0.34695 0.13374 0.37433 0.0
C2302 C 0.35745 0.12632 0.3984 0.0
H2303 H 0.37277 0.07504 0.54208 0.0
H2304 H 0.36303 0.09444 0.50672 0.0
H2305 H 0.36434 0.11876 0.4945 0.0
H2306 H 0.32765 0.16316 0.37417 0.0
H2307 H 0.34716 0.15261 0.40867 0.0
C2308 C 0.61907 0.57807 0.07161 0.0
C2309 C 0.60593 0.57343 0.0829 0.0
C2310 C 0.62507 0.58944 0.08997 0.0
C2311 C 0.62442 0.60798 0.18413 0.0
H2312 H 0.65062 0.63148 0.12983 0.0
C2313 C 0.67016 0.65105 0.21843 0.0
C2314 C 0.67668 0.64394 0.24934 0.0
C2315 C 0.65884 0.64518 0.19891 0.0
C2316 C 0.64316 0.62523 0.14549 0.0
H2317 H 0.5885 0.57748 0.12122 0.0
H2318 H 0.59898 0.59752 0.15335 0.0
H2319 H 0.6353 0.61669 0.09178 0.0
H2320 H 0.67609 0.62541 0.28513 0.0
H2321 H 0.65664 0.61521 0.25116 0.0
H2322 H 0.63239 0.6164 0.23784 0.0
C2323 C 0.6047 0.59221 0.13047 0.0
C2324 C 0.63448 0.61661 0.12366 0.0
C2325 C 0.59866 0.58079 0.11195 0.0
C2326 C 0.67133 0.63117 0.26138 0.0
C2327 C 0.66005 0.62535 0.24207 0.0
C2328 C 0.63305 0.61664 0.20595 0.0
C2329 C 0.61809 0.59652 0.12015 0.0
C2330 C 0.62537 0.6075 0.14275 0.0
C2331 C 0.6538 0.63215 0.21013 0.0
C2332 C 0.64289 0.62499 0.18696 0.0
H2333 H 0.62495 0.57266 0.04927 0.0
H2334 H 0.63546 0.59228 0.08163 0.0
H2335 H 0.61757 0.6011 0.19989 0.0
H2336 H 0.67405 0.66092 0.20852 0.0
H2337 H 0.65418 0.65075 0.17463 0.0
C2338 C 0.17611 0.85496 0.86987 0.0
C2339 C 0.17803 0.85672 0.82919 0.0
C2340 C 0.16505 0.8614 0.88905 0.0
C2341 C 0.141 0.8909 0.87333 0.0
H2342 H 0.12664 0.87922 0.97473 0.0
C2343 C 0.10163 0.92357 0.95933 0.0
C2344 C 0.10695 0.9278 -0.00408 0.0
C2345 C 0.10773 0.91261 0.93887 0.0
C2346 C 0.13049 0.88252 0.94625 0.0
H2347 H 0.16949 0.86556 0.77598 0.0
H2348 H 0.14965 0.87587 0.80855 0.0
H2349 H 0.14172 0.8638 0.93745 0.0
H2350 H 0.12213 0.92337 0.04108 0.0
H2351 H 0.13251 0.90398 0.00581 0.0
H2352 H 0.12962 0.90955 0.88218 0.0
C2353 C 0.15697 0.87022 0.82638 0.0
C2354 C 0.13924 0.87376 0.92497 0.0
C2355 C 0.16825 0.86416 0.8075 0.0
C2356 C 0.11785 0.92033 0.01286 0.0
C2357 C 0.12374 0.90921 0.99281 0.0
C2358 C 0.13203 0.89948 0.89416 0.0
C2359 C 0.15551 0.86945 0.8677 0.0
C2360 C 0.14489 0.87795 0.88856 0.0
C2361 C 0.11902 0.90553 0.95511 0.0
C2362 C 0.12692 0.89551 0.93114 0.0
H2363 H 0.18364 0.84939 0.88725 0.0
H2364 H 0.16448 0.86063 0.92086 0.0
H2365 H 0.14531 0.89478 0.84607 0.0
H2366 H 0.09328 0.92919 0.94552 0.0
H2367 H 0.10392 0.90995 0.90981 0.0
loop_
_geom_bond_atom_site_label_1
_geom_bond_atom_site_label_2
_geom_bond_distance
_geom_bond_site_symmetry_2
_ccdc_geom_bond_type
Co0 O1 2.216 . S
Co0 O2 2.091 . S
Co0 O4 2.004 . S
Co0 O10 2.021 . S
Co0 O12 2.109 1_554 S
Co0 O13 2.244 . S
O1 Co0 2.216 . S
O1 C8 1.247 . S
O2 Co0 2.091 . S
O2 C8 1.261 . S
C3 O12 1.249 . S
C3 O13 1.272 1_556 S
O4 Co0 2.004 . S
O4 C9 1.259 . S
Co5 O6 2.061 . S
Co5 O11 2.052 . S
Co5 O13 2.135 . S
O6 Co5 2.061 . S
O6 C9 1.235 . S
C7 O10 1.238 . S
C7 O11 1.241 . S
C8 O1 1.247 . S
C8 O2 1.261 . S
C9 O4 1.259 . S
C9 O6 1.235 . S
O10 Co0 2.021 . S
O10 C7 1.238 . S
O11 Co5 2.052 . S
O11 C7 1.241 . S
O12 Co0 2.109 1_556 S
O12 C3 1.249 . S
O13 Co0 2.244 . S
O13 C3 1.272 1_554 S
O13 Co5 2.135 . S
Co14 O15 2.216 . S
Co14 O16 2.091 . S
Co14 O18 2.004 . S
Co14 O24 2.021 . S
Co14 O26 2.137 . S
Co14 O27 2.244 . S
O15 Co14 2.216 . S
O15 C22 1.247 . S
O16 Co14 2.091 . S
O16 C22 1.261 . S
C17 O26 1.247 . S
C17 O27 1.272 . S
O18 Co14 2.004 . S
O18 C23 1.259 . S
Co19 O20 2.061 . S
Co19 O25 2.052 . S
Co19 O27 2.135 . S
O20 Co19 2.061 . S
O20 C23 1.235 . S
C21 O24 1.238 . S
C21 O25 1.241 . S
C22 O15 1.247 . S
C22 O16 1.261 . S
C23 O18 1.259 . S
C23 O20 1.235 . S
O24 Co14 2.021 . S
O24 C21 1.238 . S
O25 Co19 2.052 . S
O25 C21 1.241 . S
O26 Co14 2.137 . S
O26 C17 1.247 . S
O27 Co14 2.244 . S
O27 C17 1.272 . S
O27 Co19 2.135 . S
Co28 O29 2.216 . S
Co28 O30 2.091 . S
Co28 O32 2.004 . S
Co28 O38 2.021 . S
Co28 O40 2.137 . S
Co28 O41 2.244 . S
O29 Co28 2.216 . S
O29 C36 1.247 . S
O30 Co28 2.091 . S
O30 C36 1.261 . S
C31 O40 1.247 . S
C31 O41 1.272 . S
O32 Co28 2.004 . S
O32 C37 1.259 . S
Co33 O34 2.061 . S
Co33 O39 2.052 . S
Co33 O41 2.135 . S
O34 Co33 2.061 . S
O34 C37 1.235 . S
C35 O38 1.238 . S
C35 O39 1.241 . S
C36 O29 1.247 . S
C36 O30 1.261 . S
C37 O32 1.259 . S
C37 O34 1.235 . S
O38 Co28 2.021 . S
O38 C35 1.238 . S
O39 Co33 2.052 . S
O39 C35 1.241 . S
O40 Co28 2.137 . S
O40 C31 1.247 . S
O41 Co28 2.244 . S
O41 C31 1.272 . S
O41 Co33 2.135 . S
Co42 O43 2.216 . S
Co42 O44 2.091 . S
Co42 O46 2.004 . S
Co42 O52 2.021 . S
Co42 O54 2.137 . S
Co42 O55 2.244 . S
O43 Co42 2.216 . S
O43 C50 1.247 . S
O44 Co42 2.091 . S
O44 C50 1.261 . S
C45 O54 1.247 . S
C45 O55 1.272 . S
O46 Co42 2.004 . S
O46 C51 1.259 . S
Co47 O48 2.061 . S
Co47 O53 2.052 . S
Co47 O55 2.135 . S
O48 Co47 2.061 . S
O48 C51 1.235 . S
C49 O52 1.238 . S
C49 O53 1.241 . S
C50 O43 1.247 . S
C50 O44 1.261 . S
C51 O46 1.259 . S
C51 O48 1.235 . S
O52 Co42 2.021 . S
O52 C49 1.238 . S
O53 Co47 2.052 . S
O53 C49 1.241 . S
O54 Co42 2.137 . S
O54 C45 1.247 . S
O55 Co42 2.244 . S
O55 C45 1.272 . S
O55 Co47 2.135 . S
Co56 O57 2.216 . S
Co56 O58 2.091 . S
Co56 O60 2.004 . S
Co56 O66 2.021 . S
Co56 O68 2.137 . S
Co56 O69 2.244 . S
O57 Co56 2.216 . S
O57 C64 1.247 . S
O58 Co56 2.091 . S
O58 C64 1.261 . S
C59 O68 1.247 . S
C59 O69 1.272 . S
O60 Co56 2.004 . S
O60 C65 1.259 . S
Co61 O62 2.061 . S
Co61 O67 2.052 . S
Co61 O69 2.135 . S
O62 Co61 2.061 . S
O62 C65 1.235 . S
C63 O66 1.238 . S
C63 O67 1.241 . S
C64 O57 1.247 . S
C64 O58 1.261 . S
C65 O60 1.259 . S
C65 O62 1.235 . S
O66 Co56 2.021 . S
O66 C63 1.238 . S
O67 Co61 2.052 . S
O67 C63 1.241 . S
O68 Co56 2.137 . S
O68 C59 1.247 . S
O69 Co56 2.244 . S
O69 C59 1.272 . S
O69 Co61 2.135 . S
Co70 O71 2.216 . S
Co70 O72 2.091 . S
Co70 O74 2.004 . S
Co70 O80 2.021 . S
Co70 O82 2.137 . S
Co70 O83 2.244 . S
O71 Co70 2.216 . S
O71 C78 1.247 . S
O72 Co70 2.091 . S
O72 C78 1.261 . S
C73 O82 1.247 . S
C73 O83 1.272 . S
O74 Co70 2.004 . S
O74 C79 1.259 . S
Co75 O76 2.061 . S
Co75 O81 2.052 . S
Co75 O83 2.135 . S
O76 Co75 2.061 . S
O76 C79 1.235 . S
C77 O80 1.238 . S
C77 O81 1.241 . S
C78 O71 1.247 . S
C78 O72 1.261 . S
C79 O74 1.259 . S
C79 O76 1.235 . S
O80 Co70 2.021 . S
O80 C77 1.238 . S
O81 Co75 2.052 . S
O81 C77 1.241 . S
O82 Co70 2.137 . S
O82 C73 1.247 . S
O83 Co70 2.244 . S
O83 C73 1.272 . S
O83 Co75 2.135 . S
Co84 O85 2.216 . S
Co84 O86 2.091 . S
Co84 O88 2.004 . S
Co84 O94 2.021 1_554 S
Co84 O96 2.137 . S
Co84 O97 2.244 . S
O85 Co84 2.216 . S
O85 C92 1.247 . S
O86 Co84 2.091 . S
O86 C92 1.261 . S
C87 O96 1.247 . S
C87 O97 1.272 . S
O88 Co84 2.004 . S
O88 C93 1.259 . S
Co89 O90 2.061 . S
Co89 O95 2.052 1_554 S
Co89 O97 2.135 . S
O90 Co89 2.061 . S
O90 C93 1.235 . S
C91 O94 1.238 . S
C91 O95 1.241 . S
C92 O85 1.247 . S
C92 O86 1.261 . S
C93 O88 1.259 . S
C93 O90 1.235 . S
O94 Co84 2.021 1_556 S
O94 C91 1.238 . S
O95 Co89 2.052 1_556 S
O95 C91 1.241 . S
O96 Co84 2.137 . S
O96 C87 1.247 . S
O97 Co84 2.244 . S
O97 C87 1.272 . S
O97 Co89 2.135 . S
Co98 O99 2.216 . S
Co98 O100 2.091 . S
Co98 O102 2.004 . S
Co98 O108 2.021 . S
Co98 O110 2.137 . S
Co98 O111 2.244 . S
O99 Co98 2.216 . S
O99 C106 1.247 . S
O100 Co98 2.091 . S
O100 C106 1.261 . S
C101 O110 1.247 . S
C101 O111 1.272 . S
O102 Co98 2.004 . S
O102 C107 1.259 . S
Co103 O104 2.061 . S
Co103 O109 2.052 . S
Co103 O111 2.135 . S
O104 Co103 2.061 . S
O104 C107 1.235 . S
C105 O108 1.238 . S
C105 O109 1.241 . S
C106 O99 1.247 . S
C106 O100 1.261 . S
C107 O102 1.259 . S
C107 O104 1.235 . S
O108 Co98 2.021 . S
O108 C105 1.238 . S
O109 Co103 2.052 . S
O109 C105 1.241 . S
O110 Co98 2.137 . S
O110 C101 1.247 . S
O111 Co98 2.244 . S
O111 C101 1.272 . S
O111 Co103 2.135 . S
Co112 O113 2.216 . S
Co112 O114 2.091 . S
Co112 O116 2.004 . S
Co112 O122 2.021 1_554 S
Co112 O124 2.137 . S
Co112 O125 2.244 . S
O113 Co112 2.216 . S
O113 C120 1.247 . S
O114 Co112 2.091 . S
O114 C120 1.261 . S
C115 O124 1.247 . S
C115 O125 1.272 . S
O116 Co112 2.004 . S
O116 C121 1.259 . S
Co117 O118 2.061 . S
Co117 O123 2.052 1_554 S
Co117 O125 2.135 . S
O118 Co117 2.061 . S
O118 C121 1.235 . S
C119 O122 1.238 . S
C119 O123 1.241 . S
C120 O113 1.247 . S
C120 O114 1.261 . S
C121 O116 1.259 . S
C121 O118 1.235 . S
O122 Co112 2.021 1_556 S
O122 C119 1.238 . S
O123 Co117 2.052 1_556 S
O123 C119 1.241 . S
O124 Co112 2.137 . S
O124 C115 1.247 . S
O125 Co112 2.244 . S
O125 C115 1.272 . S
O125 Co117 2.135 . S
Co126 O127 2.216 . S
Co126 O128 2.091 . S
Co126 O130 2.004 . S
Co126 O136 2.021 . S
Co126 O138 2.137 . S
Co126 O139 2.244 . S
O127 Co126 2.216 . S
O127 C134 1.247 . S
O128 Co126 2.091 . S
O128 C134 1.261 . S
C129 O138 1.247 . S
C129 O139 1.272 . S
O130 Co126 2.004 . S
O130 C135 1.259 . S
Co131 O132 2.061 . S
Co131 O137 2.052 . S
Co131 O139 2.135 . S
O132 Co131 2.061 . S
O132 C135 1.235 . S
C133 O136 1.238 . S
C133 O137 1.241 . S
C134 O127 1.247 . S
C134 O128 1.261 . S
C135 O130 1.259 . S
C135 O132 1.235 . S
O136 Co126 2.021 . S
O136 C133 1.238 . S
O137 Co131 2.052 . S
O137 C133 1.241 . S
O138 Co126 2.137 . S
O138 C129 1.247 . S
O139 Co126 2.244 . S
O139 C129 1.272 . S
O139 Co131 2.135 . S
Co140 O141 2.216 . S
Co140 O142 2.091 . S
Co140 O144 2.004 . S
Co140 O150 2.021 . S
Co140 O152 2.137 . S
Co140 O153 2.244 . S
O141 Co140 2.216 . S
O141 C148 1.247 . S
O142 Co140 2.091 . S
O142 C148 1.261 . S
C143 O152 1.247 . S
C143 O153 1.272 . S
O144 Co140 2.004 . S
O144 C149 1.259 . S
Co145 O146 2.061 . S
Co145 O151 2.052 . S
Co145 O153 2.135 . S
O146 Co145 2.061 . S
O146 C149 1.235 . S
C147 O150 1.238 . S
C147 O151 1.241 . S
C148 O141 1.247 . S
C148 O142 1.261 . S
C149 O144 1.259 . S
C149 O146 1.235 . S
O150 Co140 2.021 . S
O150 C147 1.238 . S
O151 Co145 2.052 . S
O151 C147 1.241 . S
O152 Co140 2.137 . S
O152 C143 1.247 . S
O153 Co140 2.244 . S
O153 C143 1.272 . S
O153 Co145 2.135 . S
Co154 O155 2.216 . S
Co154 O156 2.091 . S
Co154 O158 2.004 . S
Co154 O164 2.021 . S
Co154 O166 2.137 . S
Co154 O167 2.244 . S
O155 Co154 2.216 . S
O155 C162 1.247 . S
O156 Co154 2.091 . S
O156 C162 1.261 . S
C157 O166 1.247 . S
C157 O167 1.272 . S
O158 Co154 2.004 . S
O158 C163 1.259 . S
Co159 O160 2.061 . S
Co159 O165 2.052 . S
Co159 O167 2.135 . S
O160 Co159 2.061 . S
O160 C163 1.235 . S
C161 O164 1.238 . S
C161 O165 1.241 . S
C162 O155 1.247 . S
C162 O156 1.261 . S
C163 O158 1.259 . S
C163 O160 1.235 . S
O164 Co154 2.021 . S
O164 C161 1.238 . S
O165 Co159 2.052 . S
O165 C161 1.241 . S
O166 Co154 2.137 . S
O166 C157 1.247 . S
O167 Co154 2.244 . S
O167 C157 1.272 . S
O167 Co159 2.135 . S
Co168 O169 2.216 . S
Co168 O170 2.091 . S
Co168 O172 2.004 . S
Co168 O178 2.021 . S
Co168 O180 2.137 . S
Co168 O181 2.244 . S
O169 Co168 2.216 . S
O169 C176 1.247 . S
O170 Co168 2.091 . S
O170 C176 1.261 . S
C171 O180 1.247 . S
C171 O181 1.272 . S
O172 Co168 2.004 . S
O172 C177 1.259 . S
Co173 O174 2.061 . S
Co173 O179 2.052 . S
Co173 O181 2.135 . S
O174 Co173 2.061 . S
O174 C177 1.235 . S
C175 O178 1.238 . S
C175 O179 1.241 . S
C176 O169 1.247 . S
C176 O170 1.261 . S
C177 O172 1.259 . S
C177 O174 1.235 . S
O178 Co168 2.021 . S
O178 C175 1.238 . S
O179 Co173 2.052 . S
O179 C175 1.241 . S
O180 Co168 2.137 . S
O180 C171 1.247 . S
O181 Co168 2.244 . S
O181 C171 1.272 . S
O181 Co173 2.135 . S
Co182 O183 2.216 . S
Co182 O184 2.091 . S
Co182 O186 2.004 . S
Co182 O192 2.021 . S
Co182 O194 2.137 . S
Co182 O195 2.244 . S
O183 Co182 2.216 . S
O183 C190 1.247 . S
O184 Co182 2.091 . S
O184 C190 1.261 . S
C185 O194 1.247 . S
C185 O195 1.272 . S
O186 Co182 2.004 . S
O186 C191 1.259 . S
Co187 O188 2.061 . S
Co187 O193 2.052 . S
Co187 O195 2.135 . S
O188 Co187 2.061 . S
O188 C191 1.235 . S
C189 O192 1.238 . S
C189 O193 1.241 . S
C190 O183 1.247 . S
C190 O184 1.261 . S
C191 O186 1.259 . S
C191 O188 1.235 . S
O192 Co182 2.021 . S
O192 C189 1.238 . S
O193 Co187 2.052 . S
O193 C189 1.241 . S
O194 Co182 2.137 . S
O194 C185 1.247 . S
O195 Co182 2.244 . S
O195 C185 1.272 . S
O195 Co187 2.135 . S
Co196 O197 2.216 . S
Co196 O198 2.091 . S
Co196 O200 2.004 . S
Co196 O206 2.021 . S
Co196 O208 2.109 1_554 S
Co196 O209 2.244 . S
O197 Co196 2.216 . S
O197 C204 1.247 . S
O198 Co196 2.091 . S
O198 C204 1.261 . S
C199 O208 1.249 . S
C199 O209 1.272 1_556 S
O200 Co196 2.004 . S
O200 C205 1.259 . S
Co201 O202 2.061 . S
Co201 O207 2.052 . S
Co201 O209 2.135 . S
O202 Co201 2.061 . S
O202 C205 1.235 . S
C203 O206 1.238 . S
C203 O207 1.241 . S
C204 O197 1.247 . S
C204 O198 1.261 . S
C205 O200 1.259 . S
C205 O202 1.235 . S
O206 Co196 2.021 . S
O206 C203 1.238 . S
O207 Co201 2.052 . S
O207 C203 1.241 . S
O208 Co196 2.109 1_556 S
O208 C199 1.249 . S
O209 Co196 2.244 . S
O209 C199 1.272 1_554 S
O209 Co201 2.135 . S
Co210 O211 2.216 . S
Co210 O212 2.091 . S
Co210 O214 2.004 . S
Co210 O220 2.021 . S
Co210 O222 2.137 . S
Co210 O223 2.244 . S
O211 Co210 2.216 . S
O211 C218 1.247 . S
O212 Co210 2.091 . S
O212 C218 1.261 . S
C213 O222 1.247 . S
C213 O223 1.272 . S
O214 Co210 2.004 . S
O214 C219 1.259 . S
Co215 O216 2.061 . S
Co215 O221 2.052 . S
Co215 O223 2.135 . S
O216 Co215 2.061 . S
O216 C219 1.235 . S
C217 O220 1.238 . S
C217 O221 1.241 . S
C218 O211 1.247 . S
C218 O212 1.261 . S
C219 O214 1.259 . S
C219 O216 1.235 . S
O220 Co210 2.021 . S
O220 C217 1.238 . S
O221 Co215 2.052 . S
O221 C217 1.241 . S
O222 Co210 2.137 . S
O222 C213 1.247 . S
O223 Co210 2.244 . S
O223 C213 1.272 . S
O223 Co215 2.135 . S
Co224 O225 2.216 . S
Co224 O226 2.091 . S
Co224 O228 2.004 . S
Co224 O234 2.021 . S
Co224 O236 2.137 . S
Co224 O237 2.244 . S
O225 Co224 2.216 . S
O225 C232 1.247 . S
O226 Co224 2.091 . S
O226 C232 1.261 . S
C227 O236 1.247 . S
C227 O237 1.272 . S
O228 Co224 2.004 . S
O228 C233 1.259 . S
Co229 O230 2.061 1_545 S
Co229 O235 2.052 . S
Co229 O237 2.135 1_545 S
O230 Co229 2.061 1_565 S
O230 C233 1.235 . S
C231 O234 1.238 . S
C231 O235 1.241 1_565 S
C232 O225 1.247 . S
C232 O226 1.261 . S
C233 O228 1.259 . S
C233 O230 1.235 . S
O234 Co224 2.021 . S
O234 C231 1.238 . S
O235 Co229 2.052 . S
O235 C231 1.241 1_545 S
O236 Co224 2.137 . S
O236 C227 1.247 . S
O237 Co224 2.244 . S
O237 C227 1.272 . S
O237 Co229 2.135 1_565 S
Co238 O239 2.216 . S
Co238 O240 2.091 . S
Co238 O242 2.004 . S
Co238 O248 2.021 . S
Co238 O250 2.137 . S
Co238 O251 2.244 . S
O239 Co238 2.216 . S
O239 C246 1.247 . S
O240 Co238 2.091 . S
O240 C246 1.261 . S
C241 O250 1.247 . S
C241 O251 1.272 . S
O242 Co238 2.004 . S
O242 C247 1.259 . S
Co243 O244 2.061 . S
Co243 O249 2.052 . S
Co243 O251 2.135 . S
O244 Co243 2.061 . S
O244 C247 1.235 . S
C245 O248 1.238 . S
C245 O249 1.241 . S
C246 O239 1.247 . S
C246 O240 1.261 . S
C247 O242 1.259 . S
C247 O244 1.235 . S
O248 Co238 2.021 . S
O248 C245 1.238 . S
O249 Co243 2.052 . S
O249 C245 1.241 . S
O250 Co238 2.137 . S
O250 C241 1.247 . S
O251 Co238 2.244 . S
O251 C241 1.272 . S
O251 Co243 2.135 . S
Co252 O253 2.216 . S
Co252 O254 2.091 . S
Co252 O256 2.004 . S
Co252 O262 2.021 . S
Co252 O264 2.137 1_554 S
Co252 O265 2.244 . S
O253 Co252 2.216 . S
O253 C260 1.247 . S
O254 Co252 2.091 . S
O254 C260 1.261 . S
C255 O264 1.247 . S
C255 O265 1.272 1_556 S
O256 Co252 2.004 . S
O256 C261 1.259 . S
Co257 O258 2.061 1_565 S
Co257 O263 2.052 . S
Co257 O265 2.135 1_565 S
O258 Co257 2.061 1_545 S
O258 C261 1.235 . S
C259 O262 1.238 . S
C259 O263 1.241 1_545 S
C260 O253 1.247 . S
C260 O254 1.261 . S
C261 O256 1.259 . S
C261 O258 1.235 . S
O262 Co252 2.021 . S
O262 C259 1.238 . S
O263 Co257 2.052 . S
O263 C259 1.241 1_565 S
O264 Co252 2.137 1_556 S
O264 C255 1.247 . S
O265 Co252 2.244 . S
O265 C255 1.272 1_554 S
O265 Co257 2.135 1_545 S
Co266 O267 2.216 . S
Co266 O268 2.091 . S
Co266 O270 2.004 . S
Co266 O276 2.021 . S
Co266 O278 2.137 . S
Co266 O279 2.244 . S
O267 Co266 2.216 . S
O267 C274 1.247 . S
O268 Co266 2.091 . S
O268 C274 1.261 . S
C269 O278 1.247 . S
C269 O279 1.272 . S
O270 Co266 2.004 . S
O270 C275 1.259 . S
Co271 O272 2.061 . S
Co271 O277 2.052 . S
Co271 O279 2.135 . S
O272 Co271 2.061 . S
O272 C275 1.235 . S
C273 O276 1.238 . S
C273 O277 1.241 . S
C274 O267 1.247 . S
C274 O268 1.261 . S
C275 O270 1.259 . S
C275 O272 1.235 . S
O276 Co266 2.021 . S
O276 C273 1.238 . S
O277 Co271 2.052 . S
O277 C273 1.241 . S
O278 Co266 2.137 . S
O278 C269 1.247 . S
O279 Co266 2.244 . S
O279 C269 1.272 . S
O279 Co271 2.135 . S
Co280 O281 2.216 . S
Co280 O282 2.091 . S
Co280 O284 2.004 . S
Co280 O290 2.021 1_554 S
Co280 O292 2.137 . S
Co280 O293 2.244 . S
O281 Co280 2.216 . S
O281 C288 1.247 . S
O282 Co280 2.091 . S
O282 C288 1.261 . S
C283 O292 1.247 . S
C283 O293 1.272 . S
O284 Co280 2.004 . S
O284 C289 1.259 . S
Co285 O286 2.061 1_565 S
Co285 O291 2.052 1_554 S
Co285 O293 2.135 1_565 S
O286 Co285 2.061 1_545 S
O286 C289 1.235 . S
C287 O290 1.238 . S
C287 O291 1.241 1_545 S
C288 O281 1.247 . S
C288 O282 1.261 . S
C289 O284 1.259 . S
C289 O286 1.235 . S
O290 Co280 2.021 1_556 S
O290 C287 1.238 . S
O291 Co285 2.052 1_556 S
O291 C287 1.241 1_565 S
O292 Co280 2.137 . S
O292 C283 1.247 . S
O293 Co280 2.244 . S
O293 C283 1.272 . S
O293 Co285 2.135 1_545 S
Co294 O295 2.216 . S
Co294 O296 2.091 . S
Co294 O298 2.004 . S
Co294 O304 2.021 . S
Co294 O306 2.137 . S
Co294 O307 2.244 . S
O295 Co294 2.216 . S
O295 C302 1.247 . S
O296 Co294 2.091 . S
O296 C302 1.261 . S
C297 O306 1.247 . S
C297 O307 1.272 . S
O298 Co294 2.004 . S
O298 C303 1.259 . S
Co299 O300 2.061 . S
Co299 O305 2.052 . S
Co299 O307 2.135 . S
O300 Co299 2.061 . S
O300 C303 1.235 . S
C301 O304 1.238 . S
C301 O305 1.241 . S
C302 O295 1.247 . S
C302 O296 1.261 . S
C303 O298 1.259 . S
C303 O300 1.235 . S
O304 Co294 2.021 . S
O304 C301 1.238 . S
O305 Co299 2.052 . S
O305 C301 1.241 . S
O306 Co294 2.137 . S
O306 C297 1.247 . S
O307 Co294 2.244 . S
O307 C297 1.272 . S
O307 Co299 2.135 . S
Co308 O309 2.216 . S
Co308 O310 2.091 . S
Co308 O312 2.004 . S
Co308 O318 2.021 . S
Co308 O320 2.137 . S
Co308 O321 2.244 . S
O309 Co308 2.216 . S
O309 C316 1.247 . S
O310 Co308 2.091 . S
O310 C316 1.261 . S
C311 O320 1.247 . S
C311 O321 1.272 . S
O312 Co308 2.004 . S
O312 C317 1.259 . S
Co313 O314 2.061 1_545 S
Co313 O319 2.052 . S
Co313 O321 2.135 1_545 S
O314 Co313 2.061 1_565 S
O314 C317 1.235 . S
C315 O318 1.238 . S
C315 O319 1.241 1_565 S
C316 O309 1.247 . S
C316 O310 1.261 . S
C317 O312 1.259 . S
C317 O314 1.235 . S
O318 Co308 2.021 . S
O318 C315 1.238 . S
O319 Co313 2.052 . S
O319 C315 1.241 1_545 S
O320 Co308 2.137 . S
O320 C311 1.247 . S
O321 Co308 2.244 . S
O321 C311 1.272 . S
O321 Co313 2.135 1_565 S
Co322 O323 2.216 . S
Co322 O324 2.091 . S
Co322 O326 2.004 . S
Co322 O332 2.021 . S
Co322 O334 2.137 . S
Co322 O335 2.244 . S
O323 Co322 2.216 . S
O323 C330 1.247 . S
O324 Co322 2.091 . S
O324 C330 1.261 . S
C325 O334 1.247 . S
C325 O335 1.272 . S
O326 Co322 2.004 . S
O326 C331 1.259 . S
Co327 O328 2.061 . S
Co327 O333 2.052 . S
Co327 O335 2.135 . S
O328 Co327 2.061 . S
O328 C331 1.235 . S
C329 O332 1.238 . S
C329 O333 1.241 . S
C330 O323 1.247 . S
C330 O324 1.261 . S
C331 O326 1.259 . S
C331 O328 1.235 . S
O332 Co322 2.021 . S
O332 C329 1.238 . S
O333 Co327 2.052 . S
O333 C329 1.241 . S
O334 Co322 2.137 . S
O334 C325 1.247 . S
O335 Co322 2.244 . S
O335 C325 1.272 . S
O335 Co327 2.135 . S
Co336 O337 2.216 . S
Co336 O338 2.091 . S
Co336 O340 2.004 . S
Co336 O346 2.021 . S
Co336 O348 2.137 . S
Co336 O349 2.244 . S
O337 Co336 2.216 . S
O337 C344 1.247 . S
O338 Co336 2.091 . S
O338 C344 1.261 . S
C339 O348 1.247 . S
C339 O349 1.272 . S
O340 Co336 2.004 . S
O340 C345 1.259 . S
Co341 O342 2.061 1_565 S
Co341 O347 2.052 . S
Co341 O349 2.135 1_565 S
O342 Co341 2.061 1_545 S
O342 C345 1.235 . S
C343 O346 1.238 . S
C343 O347 1.241 1_545 S
C344 O337 1.247 . S
C344 O338 1.261 . S
C345 O340 1.259 . S
C345 O342 1.235 . S
O346 Co336 2.021 . S
O346 C343 1.238 . S
O347 Co341 2.052 . S
O347 C343 1.241 1_565 S
O348 Co336 2.137 . S
O348 C339 1.247 . S
O349 Co336 2.244 . S
O349 C339 1.272 . S
O349 Co341 2.135 1_545 S
Co350 O351 2.216 . S
Co350 O352 2.091 . S
Co350 O354 2.004 . S
Co350 O360 2.021 . S
Co350 O362 2.137 . S
Co350 O363 2.244 . S
O351 Co350 2.216 . S
O351 C358 1.247 . S
O352 Co350 2.091 . S
O352 C358 1.261 . S
C353 O362 1.247 . S
C353 O363 1.272 . S
O354 Co350 2.004 . S
O354 C359 1.259 . S
Co355 O356 2.061 . S
Co355 O361 2.052 . S
Co355 O363 2.135 . S
O356 Co355 2.061 . S
O356 C359 1.235 . S
C357 O360 1.238 . S
C357 O361 1.241 . S
C358 O351 1.247 . S
C358 O352 1.261 . S
C359 O354 1.259 . S
C359 O356 1.235 . S
O360 Co350 2.021 . S
O360 C357 1.238 . S
O361 Co355 2.052 . S
O361 C357 1.241 . S
O362 Co350 2.137 . S
O362 C353 1.247 . S
O363 Co350 2.244 . S
O363 C353 1.272 . S
O363 Co355 2.135 . S
Co364 O365 2.216 . S
Co364 O366 2.091 . S
Co364 O368 2.004 . S
Co364 O374 2.021 1_554 S
Co364 O376 2.137 . S
Co364 O377 2.244 . S
O365 Co364 2.216 . S
O365 C372 1.247 . S
O366 Co364 2.091 . S
O366 C372 1.261 . S
C367 O376 1.247 . S
C367 O377 1.272 . S
O368 Co364 2.004 . S
O368 C373 1.259 . S
Co369 O370 2.061 1_545 S
Co369 O375 2.052 1_554 S
Co369 O377 2.135 1_545 S
O370 Co369 2.061 1_565 S
O370 C373 1.235 . S
C371 O374 1.238 . S
C371 O375 1.241 1_565 S
C372 O365 1.247 . S
C372 O366 1.261 . S
C373 O368 1.259 . S
C373 O370 1.235 . S
O374 Co364 2.021 1_556 S
O374 C371 1.238 . S
O375 Co369 2.052 1_556 S
O375 C371 1.241 1_545 S
O376 Co364 2.137 . S
O376 C367 1.247 . S
O377 Co364 2.244 . S
O377 C367 1.272 . S
O377 Co369 2.135 1_565 S
Co378 O379 2.216 . S
Co378 O380 2.091 . S
Co378 O382 2.004 . S
Co378 O388 2.021 . S
Co378 O390 2.137 . S
Co378 O391 2.244 . S
O379 Co378 2.216 . S
O379 C386 1.247 . S
O380 Co378 2.091 . S
O380 C386 1.261 . S
C381 O390 1.247 . S
C381 O391 1.272 . S
O382 Co378 2.004 . S
O382 C387 1.259 . S
Co383 O384 2.061 . S
Co383 O389 2.052 . S
Co383 O391 2.135 . S
O384 Co383 2.061 . S
O384 C387 1.235 . S
C385 O388 1.238 . S
C385 O389 1.241 . S
C386 O379 1.247 . S
C386 O380 1.261 . S
C387 O382 1.259 . S
C387 O384 1.235 . S
O388 Co378 2.021 . S
O388 C385 1.238 . S
O389 Co383 2.052 . S
O389 C385 1.241 . S
O390 Co378 2.137 . S
O390 C381 1.247 . S
O391 Co378 2.244 . S
O391 C381 1.272 . S
O391 Co383 2.135 . S
Co392 O393 2.216 . S
Co392 O394 2.091 . S
Co392 O396 2.004 . S
Co392 O402 2.021 . S
Co392 O404 2.137 1_554 S
Co392 O405 2.244 . S
O393 Co392 2.216 . S
O393 C400 1.247 . S
O394 Co392 2.091 . S
O394 C400 1.261 . S
C395 O404 1.247 . S
C395 O405 1.272 1_556 S
O396 Co392 2.004 . S
O396 C401 1.259 . S
Co397 O398 2.061 1_545 S
Co397 O403 2.052 . S
Co397 O405 2.135 1_545 S
O398 Co397 2.061 1_565 S
O398 C401 1.235 . S
C399 O402 1.238 . S
C399 O403 1.241 1_565 S
C400 O393 1.247 . S
C400 O394 1.261 . S
C401 O396 1.259 . S
C401 O398 1.235 . S
O402 Co392 2.021 . S
O402 C399 1.238 . S
O403 Co397 2.052 . S
O403 C399 1.241 1_545 S
O404 Co392 2.137 1_556 S
O404 C395 1.247 . S
O405 Co392 2.244 . S
O405 C395 1.272 1_554 S
O405 Co397 2.135 1_565 S
Co406 O407 2.216 . S
Co406 O408 2.091 . S
Co406 O410 2.004 . S
Co406 O416 2.021 . S
Co406 O418 2.137 . S
Co406 O419 2.244 . S
O407 Co406 2.216 . S
O407 C414 1.247 . S
O408 Co406 2.091 . S
O408 C414 1.261 . S
C409 O418 1.247 . S
C409 O419 1.272 . S
O410 Co406 2.004 . S
O410 C415 1.259 . S
Co411 O412 2.061 . S
Co411 O417 2.052 . S
Co411 O419 2.135 . S
O412 Co411 2.061 . S
O412 C415 1.235 . S
C413 O416 1.238 . S
C413 O417 1.241 . S
C414 O407 1.247 . S
C414 O408 1.261 . S
C415 O410 1.259 . S
C415 O412 1.235 . S
O416 Co406 2.021 . S
O416 C413 1.238 . S
O417 Co411 2.052 . S
O417 C413 1.241 . S
O418 Co406 2.137 . S
O418 C409 1.247 . S
O419 Co406 2.244 . S
O419 C409 1.272 . S
O419 Co411 2.135 . S
Co420 O421 2.216 . S
Co420 O422 2.091 . S
Co420 O424 2.004 . S
Co420 O430 2.021 . S
Co420 O432 2.137 . S
Co420 O433 2.244 . S
O421 Co420 2.216 . S
O421 C428 1.247 . S
O422 Co420 2.091 . S
O422 C428 1.261 . S
C423 O432 1.247 . S
C423 O433 1.272 . S
O424 Co420 2.004 . S
O424 C429 1.259 . S
Co425 O426 2.061 1_565 S
Co425 O431 2.052 . S
Co425 O433 2.135 1_565 S
O426 Co425 2.061 1_545 S
O426 C429 1.235 . S
C427 O430 1.238 . S
C427 O431 1.241 1_545 S
C428 O421 1.247 . S
C428 O422 1.261 . S
C429 O424 1.259 . S
C429 O426 1.235 . S
O430 Co420 2.021 . S
O430 C427 1.238 . S
O431 Co425 2.052 . S
O431 C427 1.241 1_565 S
O432 Co420 2.137 . S
O432 C423 1.247 . S
O433 Co420 2.244 . S
O433 C423 1.272 . S
O433 Co425 2.135 1_545 S
Co434 O435 2.216 . S
Co434 O436 2.091 . S
Co434 O438 2.004 . S
Co434 O444 2.021 . S
Co434 O446 2.137 . S
Co434 O447 2.244 . S
O435 Co434 2.216 . S
O435 C442 1.247 . S
O436 Co434 2.091 . S
O436 C442 1.261 . S
C437 O446 1.247 . S
C437 O447 1.272 . S
O438 Co434 2.004 . S
O438 C443 1.259 . S
Co439 O440 2.061 . S
Co439 O445 2.052 . S
Co439 O447 2.135 . S
O440 Co439 2.061 . S
O440 C443 1.235 . S
C441 O444 1.238 . S
C441 O445 1.241 . S
C442 O435 1.247 . S
C442 O436 1.261 . S
C443 O438 1.259 . S
C443 O440 1.235 . S
O444 Co434 2.021 . S
O444 C441 1.238 . S
O445 Co439 2.052 . S
O445 C441 1.241 . S
O446 Co434 2.137 . S
O446 C437 1.247 . S
O447 Co434 2.244 . S
O447 C437 1.272 . S
O447 Co439 2.135 . S
C448 C449 1.349 . S
C448 C450 1.327 . S
C448 H473 0.950 1_554 S
C449 C448 1.349 . S
C449 C465 1.349 . S
C450 C448 1.327 . S
C450 C469 1.429 . S
C450 H474 0.950 1_554 S
C451 C468 1.574 1_655 S
C451 C470 1.368 . S
C451 H475 0.949 . S
H452 C456 0.949 1_556 S
C453 C454 1.349 . S
C453 C455 1.327 . S
C453 H476 0.950 . S
C454 C453 1.349 . S
C454 C466 1.349 . S
C455 C453 1.327 . S
C455 C471 1.429 . S
C455 H477 0.950 . S
C456 H452 0.949 1_554 S
C456 C464 1.574 1_455 S
C456 C472 1.368 . S
H457 C465 0.950 . S
H458 C463 0.950 . S
H459 C464 0.949 1_556 S
H460 C466 0.950 . S
H461 C467 0.951 1_556 S
H462 C468 0.949 . S
C463 H458 0.950 . S
C463 C465 1.327 . S
C463 C469 1.429 . S
C464 C456 1.574 1_655 S
C464 H459 0.949 1_554 S
C464 C470 1.368 . S
C465 C449 1.349 . S
C465 H457 0.950 . S
C465 C463 1.327 . S
C466 C454 1.349 . S
C466 H460 0.950 . S
C466 C467 1.327 . S
C467 H461 0.951 1_554 S
C467 C466 1.327 . S
C467 C471 1.429 . S
C468 C451 1.574 1_455 S
C468 H462 0.949 . S
C468 C472 1.368 . S
C469 C450 1.429 . S
C469 C463 1.429 . S
C469 C470 1.523 . S
C470 C451 1.368 . S
C470 C464 1.368 . S
C470 C469 1.523 . S
C471 C455 1.429 . S
C471 C467 1.429 . S
C471 C472 1.523 . S
C472 C456 1.368 . S
C472 C468 1.368 . S
C472 C471 1.523 . S
H473 C448 0.950 1_556 S
H474 C450 0.950 1_556 S
H475 C451 0.949 . S
H476 C453 0.950 . S
H477 C455 0.950 . S
C478 C479 1.349 . S
C478 C480 1.327 . S
C478 H503 0.950 . S
C479 C478 1.349 . S
C479 C495 1.349 . S
C480 C478 1.327 . S
C480 C499 1.429 . S
C480 H504 0.950 . S
C481 C498 1.574 . S
C481 C500 1.368 . S
C481 H505 0.949 . S
H482 C486 0.949 . S
C483 C484 1.349 . S
C483 C485 1.327 . S
C483 H506 0.950 . S
C484 C483 1.349 . S
C484 C496 1.349 . S
C485 C483 1.327 . S
C485 C501 1.429 . S
C485 H507 0.950 . S
C486 H482 0.949 . S
C486 C494 1.574 . S
C486 C502 1.368 . S
H487 C495 0.950 . S
H488 C493 0.950 . S
H489 C494 0.949 . S
H490 C496 0.950 . S
H491 C497 0.950 . S
H492 C498 0.949 . S
C493 H488 0.950 . S
C493 C495 1.327 . S
C493 C499 1.429 . S
C494 C486 1.574 . S
C494 H489 0.949 . S
C494 C500 1.368 . S
C495 C479 1.349 . S
C495 H487 0.950 . S
C495 C493 1.327 . S
C496 C484 1.349 . S
C496 H490 0.950 . S
C496 C497 1.327 . S
C497 H491 0.950 . S
C497 C496 1.327 . S
C497 C501 1.429 . S
C498 C481 1.574 . S
C498 H492 0.949 . S
C498 C502 1.368 . S
C499 C480 1.429 . S
C499 C493 1.429 . S
C499 C500 1.523 . S
C500 C481 1.368 . S
C500 C494 1.368 . S
C500 C499 1.523 . S
C501 C485 1.429 . S
C501 C497 1.429 . S
C501 C502 1.523 . S
C502 C486 1.368 . S
C502 C498 1.368 . S
C502 C501 1.523 . S
H503 C478 0.950 . S
H504 C480 0.950 . S
H505 C481 0.949 . S
H506 C483 0.950 . S
H507 C485 0.950 . S
C508 C509 1.349 . S
C508 C510 1.327 . S
C508 H533 0.950 . S
C509 C508 1.349 . S
C509 C525 1.349 . S
C510 C508 1.327 . S
C510 C529 1.429 . S
C510 H534 0.950 . S
C511 C528 1.574 . S
C511 C530 1.368 . S
C511 H535 0.949 . S
H512 C516 0.949 . S
C513 C514 1.349 . S
C513 C515 1.327 . S
C513 H536 0.950 . S
C514 C513 1.349 . S
C514 C526 1.349 . S
C515 C513 1.327 . S
C515 C531 1.429 . S
C515 H537 0.950 . S
C516 H512 0.949 . S
C516 C524 1.574 . S
C516 C532 1.368 . S
H517 C525 0.950 . S
H518 C523 0.950 . S
H519 C524 0.949 . S
H520 C526 0.950 . S
H521 C527 0.950 . S
H522 C528 0.949 . S
C523 H518 0.950 . S
C523 C525 1.327 . S
C523 C529 1.429 . S
C524 C516 1.574 . S
C524 H519 0.949 . S
C524 C530 1.368 . S
C525 C509 1.349 . S
C525 H517 0.950 . S
C525 C523 1.327 . S
C526 C514 1.349 . S
C526 H520 0.950 . S
C526 C527 1.327 . S
C527 H521 0.950 . S
C527 C526 1.327 . S
C527 C531 1.429 . S
C528 C511 1.574 . S
C528 H522 0.949 . S
C528 C532 1.368 . S
C529 C510 1.429 . S
C529 C523 1.429 . S
C529 C530 1.523 . S
C530 C511 1.368 . S
C530 C524 1.368 . S
C530 C529 1.523 . S
C531 C515 1.429 . S
C531 C527 1.429 . S
C531 C532 1.523 . S
C532 C516 1.368 . S
C532 C528 1.368 . S
C532 C531 1.523 . S
H533 C508 0.950 . S
H534 C510 0.950 . S
H535 C511 0.949 . S
H536 C513 0.950 . S
H537 C515 0.950 . S
C538 C539 1.349 . S
C538 C540 1.327 . S
C538 H563 0.950 . S
C539 C538 1.349 . S
C539 C555 1.349 . S
C540 C538 1.327 . S
C540 C559 1.429 . S
C540 H564 0.950 . S
C541 C558 1.574 . S
C541 C560 1.368 . S
C541 H565 0.949 . S
H542 C546 0.949 . S
C543 C544 1.349 . S
C543 C545 1.327 . S
C543 H566 0.950 . S
C544 C543 1.349 . S
C544 C556 1.349 . S
C545 C543 1.327 . S
C545 C561 1.429 . S
C545 H567 0.950 . S
C546 H542 0.949 . S
C546 C554 1.574 . S
C546 C562 1.368 . S
H547 C555 0.950 . S
H548 C553 0.950 . S
H549 C554 0.949 . S
H550 C556 0.950 . S
H551 C557 0.950 . S
H552 C558 0.949 . S
C553 H548 0.950 . S
C553 C555 1.327 . S
C553 C559 1.429 . S
C554 C546 1.574 . S
C554 H549 0.949 . S
C554 C560 1.368 . S
C555 C539 1.349 . S
C555 H547 0.950 . S
C555 C553 1.327 . S
C556 C544 1.349 . S
C556 H550 0.950 . S
C556 C557 1.327 . S
C557 H551 0.950 . S
C557 C556 1.327 . S
C557 C561 1.429 . S
C558 C541 1.574 . S
C558 H552 0.949 . S
C558 C562 1.368 . S
C559 C540 1.429 . S
C559 C553 1.429 . S
C559 C560 1.523 . S
C560 C541 1.368 . S
C560 C554 1.368 . S
C560 C559 1.523 . S
C561 C545 1.429 . S
C561 C557 1.429 . S
C561 C562 1.523 . S
C562 C546 1.368 . S
C562 C558 1.368 . S
C562 C561 1.523 . S
H563 C538 0.950 . S
H564 C540 0.950 . S
H565 C541 0.949 . S
H566 C543 0.950 . S
H567 C545 0.950 . S
C568 C569 1.349 . S
C568 C570 1.327 . S
C568 H593 0.950 . S
C569 C568 1.349 . S
C569 C585 1.349 . S
C570 C568 1.327 . S
C570 C589 1.429 . S
C570 H594 0.950 . S
C571 C588 1.574 1_455 S
C571 C590 1.368 . S
C571 H595 0.949 . S
H572 C576 0.949 . S
C573 C574 1.349 . S
C573 C575 1.327 . S
C573 H596 0.950 . S
C574 C573 1.349 . S
C574 C586 1.349 . S
C575 C573 1.327 . S
C575 C591 1.429 . S
C575 H597 0.950 . S
C576 H572 0.949 . S
C576 C584 1.574 1_655 S
C576 C592 1.368 . S
H577 C585 0.950 . S
H578 C583 0.950 . S
H579 C584 0.949 . S
H580 C586 0.950 . S
H581 C587 0.950 . S
H582 C588 0.949 . S
C583 H578 0.950 . S
C583 C585 1.327 . S
C583 C589 1.429 . S
C584 C576 1.574 1_455 S
C584 H579 0.949 . S
C584 C590 1.368 . S
C585 C569 1.349 . S
C585 H577 0.950 . S
C585 C583 1.327 . S
C586 C574 1.349 . S
C586 H580 0.950 . S
C586 C587 1.327 . S
C587 H581 0.950 . S
C587 C586 1.327 . S
C587 C591 1.429 . S
C588 C571 1.574 1_655 S
C588 H582 0.949 . S
C588 C592 1.368 . S
C589 C570 1.429 . S
C589 C583 1.429 . S
C589 C590 1.523 . S
C590 C571 1.368 . S
C590 C584 1.368 . S
C590 C589 1.523 . S
C591 C575 1.429 . S
C591 C587 1.429 . S
C591 C592 1.523 . S
C592 C576 1.368 . S
C592 C588 1.368 . S
C592 C591 1.523 . S
H593 C568 0.950 . S
H594 C570 0.950 . S
H595 C571 0.949 . S
H596 C573 0.950 . S
H597 C575 0.950 . S
C598 C599 1.349 . S
C598 C600 1.327 . S
C598 H623 0.950 . S
C599 C598 1.349 . S
C599 C615 1.349 . S
C600 C598 1.327 . S
C600 C619 1.429 . S
C600 H624 0.950 . S
C601 C618 1.574 . S
C601 C620 1.368 . S
C601 H625 0.949 . S
H602 C606 0.949 . S
C603 C604 1.349 . S
C603 C605 1.327 . S
C603 H626 0.950 . S
C604 C603 1.349 . S
C604 C616 1.349 . S
C605 C603 1.327 . S
C605 C621 1.429 . S
C605 H627 0.950 . S
C606 H602 0.949 . S
C606 C614 1.574 . S
C606 C622 1.368 . S
H607 C615 0.950 . S
H608 C613 0.950 . S
H609 C614 0.949 . S
H610 C616 0.950 . S
H611 C617 0.950 . S
H612 C618 0.949 . S
C613 H608 0.950 . S
C613 C615 1.327 . S
C613 C619 1.429 . S
C614 C606 1.574 . S
C614 H609 0.949 . S
C614 C620 1.368 . S
C615 C599 1.349 . S
C615 H607 0.950 . S
C615 C613 1.327 . S
C616 C604 1.349 . S
C616 H610 0.950 . S
C616 C617 1.327 . S
C617 H611 0.950 . S
C617 C616 1.327 . S
C617 C621 1.429 . S
C618 C601 1.574 . S
C618 H612 0.949 . S
C618 C622 1.368 . S
C619 C600 1.429 . S
C619 C613 1.429 . S
C619 C620 1.523 . S
C620 C601 1.368 . S
C620 C614 1.368 . S
C620 C619 1.523 . S
C621 C605 1.429 . S
C621 C617 1.429 . S
C621 C622 1.523 . S
C622 C606 1.368 . S
C622 C618 1.368 . S
C622 C621 1.523 . S
H623 C598 0.950 . S
H624 C600 0.950 . S
H625 C601 0.949 . S
H626 C603 0.950 . S
H627 C605 0.950 . S
C628 C629 1.349 . S
C628 C630 1.327 . S
C628 H653 0.950 . S
C629 C628 1.349 . S
C629 C645 1.349 . S
C630 C628 1.327 . S
C630 C649 1.429 . S
C630 H654 0.950 . S
C631 C648 1.574 . S
C631 C650 1.368 . S
C631 H655 0.949 1_554 S
H632 C636 0.949 . S
C633 C634 1.349 . S
C633 C635 1.327 . S
C633 H656 0.950 1_554 S
C634 C633 1.349 . S
C634 C646 1.349 . S
C635 C633 1.327 . S
C635 C651 1.429 . S
C635 H657 0.950 1_554 S
C636 H632 0.949 . S
C636 C644 1.574 . S
C636 C652 1.368 . S
H637 C645 0.950 . S
H638 C643 0.950 1_556 S
H639 C644 0.949 . S
H640 C646 0.950 . S
H641 C647 0.950 . S
H642 C648 0.949 1_556 S
C643 H638 0.950 1_554 S
C643 C645 1.327 . S
C643 C649 1.429 . S
C644 C636 1.574 . S
C644 H639 0.949 . S
C644 C650 1.368 . S
C645 C629 1.349 . S
C645 H637 0.950 . S
C645 C643 1.327 . S
C646 C634 1.349 . S
C646 H640 0.950 . S
C646 C647 1.327 . S
C647 H641 0.950 . S
C647 C646 1.327 . S
C647 C651 1.429 . S
C648 C631 1.574 . S
C648 H642 0.949 1_554 S
C648 C652 1.368 . S
C649 C630 1.429 . S
C649 C643 1.429 . S
C649 C650 1.523 . S
C650 C631 1.368 . S
C650 C644 1.368 . S
C650 C649 1.523 . S
C651 C635 1.429 . S
C651 C647 1.429 . S
C651 C652 1.523 . S
C652 C636 1.368 . S
C652 C648 1.368 . S
C652 C651 1.523 . S
H653 C628 0.950 . S
H654 C630 0.950 . S
H655 C631 0.949 1_556 S
H656 C633 0.950 1_556 S
H657 C635 0.950 1_556 S
C658 C659 1.349 . S
C658 C660 1.327 . S
C658 H683 0.950 . S
C659 C658 1.349 . S
C659 C675 1.349 . S
C660 C658 1.327 . S
C660 C679 1.429 . S
C660 H684 0.950 . S
C661 C678 1.574 . S
C661 C680 1.368 . S
C661 H685 0.949 . S
H662 C666 0.949 . S
C663 C664 1.349 . S
C663 C665 1.327 . S
C663 H686 0.950 . S
C664 C663 1.349 . S
C664 C676 1.349 . S
C665 C663 1.327 . S
C665 C681 1.429 . S
C665 H687 0.950 . S
C666 H662 0.949 . S
C666 C674 1.574 . S
C666 C682 1.368 . S
H667 C675 0.950 . S
H668 C673 0.950 . S
H669 C674 0.949 . S
H670 C676 0.950 . S
H671 C677 0.950 . S
H672 C678 0.949 . S
C673 H668 0.950 . S
C673 C675 1.327 . S
C673 C679 1.429 . S
C674 C666 1.574 . S
C674 H669 0.949 . S
C674 C680 1.368 . S
C675 C659 1.349 . S
C675 H667 0.950 . S
C675 C673 1.327 . S
C676 C664 1.349 . S
C676 H670 0.950 . S
C676 C677 1.327 . S
C677 H671 0.950 . S
C677 C676 1.327 . S
C677 C681 1.429 . S
C678 C661 1.574 . S
C678 H672 0.949 . S
C678 C682 1.368 . S
C679 C660 1.429 . S
C679 C673 1.429 . S
C679 C680 1.523 . S
C680 C661 1.368 . S
C680 C674 1.368 . S
C680 C679 1.523 . S
C681 C665 1.429 . S
C681 C677 1.429 . S
C681 C682 1.523 . S
C682 C666 1.368 . S
C682 C678 1.368 . S
C682 C681 1.523 . S
H683 C658 0.950 . S
H684 C660 0.950 . S
H685 C661 0.949 . S
H686 C663 0.950 . S
H687 C665 0.950 . S
C688 C689 1.349 . S
C688 C690 1.327 . S
C688 H713 0.950 . S
C689 C688 1.349 . S
C689 C705 1.349 . S
C690 C688 1.327 . S
C690 C709 1.429 . S
C690 H714 0.950 . S
C691 C708 1.574 . S
C691 C710 1.368 . S
C691 H715 0.949 . S
H692 C696 0.949 . S
C693 C694 1.349 . S
C693 C695 1.327 . S
C693 H716 0.950 . S
C694 C693 1.349 . S
C694 C706 1.349 . S
C695 C693 1.327 . S
C695 C711 1.429 . S
C695 H717 0.950 . S
C696 H692 0.949 . S
C696 C704 1.574 . S
C696 C712 1.368 . S
H697 C705 0.950 . S
H698 C703 0.950 . S
H699 C704 0.949 . S
H700 C706 0.950 . S
H701 C707 0.950 . S
H702 C708 0.949 . S
C703 H698 0.950 . S
C703 C705 1.327 . S
C703 C709 1.429 . S
C704 C696 1.574 . S
C704 H699 0.949 . S
C704 C710 1.368 . S
C705 C689 1.349 . S
C705 H697 0.950 . S
C705 C703 1.327 . S
C706 C694 1.349 . S
C706 H700 0.950 . S
C706 C707 1.327 . S
C707 H701 0.950 . S
C707 C706 1.327 . S
C707 C711 1.429 . S
C708 C691 1.574 . S
C708 H702 0.949 . S
C708 C712 1.368 . S
C709 C690 1.429 . S
C709 C703 1.429 . S
C709 C710 1.523 . S
C710 C691 1.368 . S
C710 C704 1.368 . S
C710 C709 1.523 . S
C711 C695 1.429 . S
C711 C707 1.429 . S
C711 C712 1.523 . S
C712 C696 1.368 . S
C712 C708 1.368 . S
C712 C711 1.523 . S
H713 C688 0.950 . S
H714 C690 0.950 . S
H715 C691 0.949 . S
H716 C693 0.950 . S
H717 C695 0.950 . S
C718 C719 1.349 . S
C718 C720 1.327 . S
C718 H743 0.950 . S
C719 C718 1.349 . S
C719 C735 1.349 . S
C720 C718 1.327 . S
C720 C739 1.429 . S
C720 H744 0.950 . S
C721 C738 1.574 . S
C721 C740 1.368 . S
C721 H745 0.949 . S
H722 C726 0.949 . S
C723 C724 1.349 . S
C723 C725 1.327 . S
C723 H746 0.950 . S
C724 C723 1.349 . S
C724 C736 1.349 . S
C725 C723 1.327 . S
C725 C741 1.429 . S
C725 H747 0.950 . S
C726 H722 0.949 . S
C726 C734 1.574 . S
C726 C742 1.368 . S
H727 C735 0.950 . S
H728 C733 0.950 . S
H729 C734 0.949 . S
H730 C736 0.950 . S
H731 C737 0.950 . S
H732 C738 0.949 . S
C733 H728 0.950 . S
C733 C735 1.327 . S
C733 C739 1.429 . S
C734 C726 1.574 . S
C734 H729 0.949 . S
C734 C740 1.368 . S
C735 C719 1.349 . S
C735 H727 0.950 . S
C735 C733 1.327 . S
C736 C724 1.349 . S
C736 H730 0.950 . S
C736 C737 1.327 . S
C737 H731 0.950 . S
C737 C736 1.327 . S
C737 C741 1.429 . S
C738 C721 1.574 . S
C738 H732 0.949 . S
C738 C742 1.368 . S
C739 C720 1.429 . S
C739 C733 1.429 . S
C739 C740 1.523 . S
C740 C721 1.368 . S
C740 C734 1.368 . S
C740 C739 1.523 . S
C741 C725 1.429 . S
C741 C737 1.429 . S
C741 C742 1.523 . S
C742 C726 1.368 . S
C742 C738 1.368 . S
C742 C741 1.523 . S
H743 C718 0.950 . S
H744 C720 0.950 . S
H745 C721 0.949 . S
H746 C723 0.950 . S
H747 C725 0.950 . S
C748 C749 1.349 . S
C748 C750 1.327 . S
C748 H773 0.950 . S
C749 C748 1.349 . S
C749 C765 1.349 . S
C750 C748 1.327 . S
C750 C769 1.429 . S
C750 H774 0.950 . S
C751 C768 1.574 . S
C751 C770 1.368 . S
C751 H775 0.949 . S
H752 C756 0.949 . S
C753 C754 1.349 . S
C753 C755 1.327 . S
C753 H776 0.950 . S
C754 C753 1.349 . S
C754 C766 1.349 . S
C755 C753 1.327 . S
C755 C771 1.429 . S
C755 H777 0.950 . S
C756 H752 0.949 . S
C756 C764 1.574 . S
C756 C772 1.368 . S
H757 C765 0.950 . S
H758 C763 0.950 . S
H759 C764 0.949 . S
H760 C766 0.950 . S
H761 C767 0.950 . S
H762 C768 0.949 . S
C763 H758 0.950 . S
C763 C765 1.327 . S
C763 C769 1.429 . S
C764 C756 1.574 . S
C764 H759 0.949 . S
C764 C770 1.368 . S
C765 C749 1.349 . S
C765 H757 0.950 . S
C765 C763 1.327 . S
C766 C754 1.349 . S
C766 H760 0.950 . S
C766 C767 1.327 . S
C767 H761 0.950 . S
C767 C766 1.327 . S
C767 C771 1.429 . S
C768 C751 1.574 . S
C768 H762 0.949 . S
C768 C772 1.368 . S
C769 C750 1.429 . S
C769 C763 1.429 . S
C769 C770 1.523 . S
C770 C751 1.368 . S
C770 C764 1.368 . S
C770 C769 1.523 . S
C771 C755 1.429 . S
C771 C767 1.429 . S
C771 C772 1.523 . S
C772 C756 1.368 . S
C772 C768 1.368 . S
C772 C771 1.523 . S
H773 C748 0.950 . S
H774 C750 0.950 . S
H775 C751 0.949 . S
H776 C753 0.950 . S
H777 C755 0.950 . S
C778 C779 1.349 . S
C778 C780 1.327 . S
C778 H803 0.950 . S
C779 C778 1.349 . S
C779 C795 1.349 . S
C780 C778 1.327 . S
C780 C799 1.429 . S
C780 H804 0.950 . S
C781 C798 1.574 . S
C781 C800 1.368 . S
C781 H805 0.949 . S
H782 C786 0.949 . S
C783 C784 1.349 . S
C783 C785 1.327 . S
C783 H806 0.950 . S
C784 C783 1.349 . S
C784 C796 1.349 . S
C785 C783 1.327 . S
C785 C801 1.429 . S
C785 H807 0.950 . S
C786 H782 0.949 . S
C786 C794 1.574 . S
C786 C802 1.368 . S
H787 C795 0.950 . S
H788 C793 0.950 . S
H789 C794 0.949 . S
H790 C796 0.950 . S
H791 C797 0.950 . S
H792 C798 0.949 . S
C793 H788 0.950 . S
C793 C795 1.327 . S
C793 C799 1.429 . S
C794 C786 1.574 . S
C794 H789 0.949 . S
C794 C800 1.368 . S
C795 C779 1.349 . S
C795 H787 0.950 . S
C795 C793 1.327 . S
C796 C784 1.349 . S
C796 H790 0.950 . S
C796 C797 1.327 . S
C797 H791 0.950 . S
C797 C796 1.327 . S
C797 C801 1.429 . S
C798 C781 1.574 . S
C798 H792 0.949 . S
C798 C802 1.368 . S
C799 C780 1.429 . S
C799 C793 1.429 . S
C799 C800 1.523 . S
C800 C781 1.368 . S
C800 C794 1.368 . S
C800 C799 1.523 . S
C801 C785 1.429 . S
C801 C797 1.429 . S
C801 C802 1.523 . S
C802 C786 1.368 . S
C802 C798 1.368 . S
C802 C801 1.523 . S
H803 C778 0.950 . S
H804 C780 0.950 . S
H805 C781 0.949 . S
H806 C783 0.950 . S
H807 C785 0.950 . S
C808 C809 1.349 . S
C808 C810 1.327 . S
C808 H833 0.950 . S
C809 C808 1.349 . S
C809 C825 1.349 . S
C810 C808 1.327 . S
C810 C829 1.429 . S
C810 H834 0.950 . S
C811 C828 1.583 . S
C811 C830 1.359 1_565 S
C811 H835 0.949 . S
H812 C816 0.949 . S
C813 C814 1.349 . S
C813 C815 1.327 . S
C813 H836 0.950 . S
C814 C813 1.349 . S
C814 C826 1.349 . S
C815 C813 1.327 . S
C815 C831 1.429 . S
C815 H837 0.950 . S
C816 H812 0.949 . S
C816 C824 1.583 . S
C816 C832 1.359 1_545 S
H817 C825 0.950 . S
H818 C823 0.950 . S
H819 C824 0.949 . S
H820 C826 0.950 . S
H821 C827 0.950 . S
H822 C828 0.949 . S
C823 H818 0.950 . S
C823 C825 1.327 . S
C823 C829 1.429 . S
C824 C816 1.583 . S
C824 H819 0.949 . S
C824 C830 1.368 . S
C825 C809 1.349 . S
C825 H817 0.950 . S
C825 C823 1.327 . S
C826 C814 1.349 . S
C826 H820 0.950 . S
C826 C827 1.327 . S
C827 H821 0.950 . S
C827 C826 1.327 . S
C827 C831 1.429 . S
C828 C811 1.583 . S
C828 H822 0.949 . S
C828 C832 1.368 . S
C829 C810 1.429 . S
C829 C823 1.429 . S
C829 C830 1.523 . S
C830 C811 1.359 1_545 S
C830 C824 1.368 . S
C830 C829 1.523 . S
C831 C815 1.429 . S
C831 C827 1.429 . S
C831 C832 1.523 . S
C832 C816 1.359 1_565 S
C832 C828 1.368 . S
C832 C831 1.523 . S
H833 C808 0.950 . S
H834 C810 0.950 . S
H835 C811 0.949 . S
H836 C813 0.950 . S
H837 C815 0.950 . S
C838 C839 1.349 . S
C838 C840 1.327 . S
C838 H863 0.950 . S
C839 C838 1.349 . S
C839 C855 1.349 . S
C840 C838 1.327 . S
C840 C859 1.429 . S
C840 H864 0.950 1_545 S
C841 C858 1.574 1_655 S
C841 C860 1.368 . S
C841 H865 0.949 . S
H842 C846 0.949 . S
C843 C844 1.349 . S
C843 C845 1.327 . S
C843 H866 0.950 1_554 S
C844 C843 1.349 . S
C844 C856 1.349 . S
C845 C843 1.327 . S
C845 C861 1.429 . S
C845 H867 0.961 1_565 S
C846 H842 0.949 . S
C846 C854 1.574 1_455 S
C846 C862 1.368 . S
H847 C855 0.950 . S
H848 C853 0.950 . S
H849 C854 0.949 . S
H850 C856 0.950 . S
H851 C857 0.950 . S
H852 C858 0.949 . S
C853 H848 0.950 . S
C853 C855 1.327 . S
C853 C859 1.429 . S
C854 C846 1.574 1_655 S
C854 H849 0.949 . S
C854 C860 1.368 1_565 S
C855 C839 1.349 . S
C855 H847 0.950 . S
C855 C853 1.327 . S
C856 C844 1.349 . S
C856 H850 0.950 . S
C856 C857 1.327 . S
C857 H851 0.950 . S
C857 C856 1.327 . S
C857 C861 1.429 . S
C858 C841 1.574 1_455 S
C858 H852 0.949 . S
C858 C862 1.368 1_545 S
C859 C840 1.429 . S
C859 C853 1.429 . S
C859 C860 1.523 . S
C860 C841 1.368 . S
C860 C854 1.368 1_545 S
C860 C859 1.523 . S
C861 C845 1.429 . S
C861 C857 1.429 . S
C861 C862 1.523 . S
C862 C846 1.368 . S
C862 C858 1.368 1_565 S
C862 C861 1.523 . S
H863 C838 0.950 . S
H864 C840 0.950 1_565 S
H865 C841 0.949 . S
H866 C843 0.950 1_556 S
H867 C845 0.961 1_545 S
C868 C869 1.349 . S
C868 C870 1.327 . S
C868 H893 0.950 1_554 S
C869 C868 1.349 . S
C869 C885 1.349 . S
C870 C868 1.327 . S
C870 C889 1.429 . S
C870 H894 0.950 1_544 S
C871 C888 1.574 . S
C871 C890 1.368 . S
C871 H895 0.949 . S
H872 C876 0.946 1_556 S
C873 C874 1.349 . S
C873 C875 1.327 . S
C873 H896 0.950 . S
C874 C873 1.349 . S
C874 C886 1.349 . S
C875 C873 1.327 . S
C875 C891 1.429 . S
C875 H897 0.950 1_565 S
C876 H872 0.946 1_554 S
C876 C884 1.574 . S
C876 C892 1.368 . S
H877 C885 0.950 . S
H878 C883 0.950 . S
H879 C884 0.949 1_556 S
H880 C886 0.950 . S
H881 C887 0.950 . S
H882 C888 0.949 . S
C883 H878 0.950 . S
C883 C885 1.327 . S
C883 C889 1.429 . S
C884 C876 1.574 . S
C884 H879 0.949 1_554 S
C884 C890 1.368 1_565 S
C885 C869 1.349 . S
C885 H877 0.950 . S
C885 C883 1.327 . S
C886 C874 1.349 . S
C886 H880 0.950 . S
C886 C887 1.327 . S
C887 H881 0.950 . S
C887 C886 1.327 . S
C887 C891 1.429 . S
C888 C871 1.574 . S
C888 H882 0.949 . S
C888 C892 1.368 1_545 S
C889 C870 1.429 . S
C889 C883 1.429 . S
C889 C890 1.523 . S
C890 C871 1.368 . S
C890 C884 1.368 1_545 S
C890 C889 1.523 . S
C891 C875 1.429 . S
C891 C887 1.429 . S
C891 C892 1.523 . S
C892 C876 1.368 . S
C892 C888 1.368 1_565 S
C892 C891 1.523 . S
H893 C868 0.950 1_556 S
H894 C870 0.950 1_566 S
H895 C871 0.949 . S
H896 C873 0.950 . S
H897 C875 0.950 1_545 S
C898 C899 1.349 . S
C898 C900 1.327 . S
C898 H923 0.950 . S
C899 C898 1.349 . S
C899 C915 1.349 . S
C900 C898 1.327 . S
C900 C919 1.429 . S
C900 H924 0.948 1_545 S
C901 C918 1.574 1_455 S
C901 C920 1.368 . S
C901 H925 0.949 . S
H902 C906 0.949 . S
C903 C904 1.349 . S
C903 C905 1.327 . S
C903 H926 0.950 . S
C904 C903 1.349 . S
C904 C916 1.349 . S
C905 C903 1.327 . S
C905 C921 1.429 . S
C905 H927 0.948 1_565 S
C906 H902 0.949 . S
C906 C914 1.574 1_655 S
C906 C922 1.368 . S
H907 C915 0.950 . S
H908 C913 0.950 . S
H909 C914 0.949 . S
H910 C916 0.950 . S
H911 C917 0.950 . S
H912 C918 0.949 . S
C913 H908 0.950 . S
C913 C915 1.327 . S
C913 C919 1.429 . S
C914 C906 1.574 1_455 S
C914 H909 0.949 . S
C914 C920 1.368 1_565 S
C915 C899 1.349 . S
C915 H907 0.950 . S
C915 C913 1.327 . S
C916 C904 1.349 . S
C916 H910 0.950 . S
C916 C917 1.327 . S
C917 H911 0.950 . S
C917 C916 1.327 . S
C917 C921 1.429 . S
C918 C901 1.574 1_655 S
C918 H912 0.949 . S
C918 C922 1.368 1_545 S
C919 C900 1.429 . S
C919 C913 1.429 . S
C919 C920 1.523 . S
C920 C901 1.368 . S
C920 C914 1.368 1_545 S
C920 C919 1.523 . S
C921 C905 1.429 . S
C921 C917 1.429 . S
C921 C922 1.523 . S
C922 C906 1.368 . S
C922 C918 1.368 1_565 S
C922 C921 1.523 . S
H923 C898 0.950 . S
H924 C900 0.948 1_565 S
H925 C901 0.949 . S
H926 C903 0.950 . S
H927 C905 0.948 1_545 S
C928 C929 1.349 . S
C928 C930 1.327 . S
C928 H953 0.950 . S
C929 C928 1.349 . S
C929 C945 1.349 . S
C930 C928 1.327 . S
C930 C949 1.429 . S
C930 H954 0.950 . S
C931 C948 1.574 . S
C931 C950 1.368 . S
C931 H955 0.949 . S
H932 C936 0.949 . S
C933 C934 1.349 . S
C933 C935 1.327 . S
C933 H956 0.950 . S
C934 C933 1.349 . S
C934 C946 1.349 . S
C935 C933 1.327 . S
C935 C951 1.429 . S
C935 H957 0.950 . S
C936 H932 0.949 . S
C936 C944 1.574 . S
C936 C952 1.368 . S
H937 C945 0.950 . S
H938 C943 0.950 . S
H939 C944 0.949 . S
H940 C946 0.950 . S
H941 C947 0.950 . S
H942 C948 0.949 . S
C943 H938 0.950 . S
C943 C945 1.327 . S
C943 C949 1.429 . S
C944 C936 1.574 . S
C944 H939 0.949 . S
C944 C950 1.368 . S
C945 C929 1.349 . S
C945 H937 0.950 . S
C945 C943 1.327 . S
C946 C934 1.349 . S
C946 H940 0.950 . S
C946 C947 1.327 . S
C947 H941 0.950 . S
C947 C946 1.327 . S
C947 C951 1.429 . S
C948 C931 1.574 . S
C948 H942 0.949 . S
C948 C952 1.368 . S
C949 C930 1.429 . S
C949 C943 1.429 . S
C949 C950 1.523 . S
C950 C931 1.368 . S
C950 C944 1.368 . S
C950 C949 1.523 . S
C951 C935 1.429 . S
C951 C947 1.429 . S
C951 C952 1.523 . S
C952 C936 1.368 . S
C952 C948 1.368 . S
C952 C951 1.523 . S
H953 C928 0.950 . S
H954 C930 0.950 . S
H955 C931 0.949 . S
H956 C933 0.950 . S
H957 C935 0.950 . S
C958 C959 1.349 . S
C958 C960 1.327 . S
C958 H983 0.950 . S
C959 C958 1.349 . S
C959 C975 1.349 . S
C960 C958 1.327 . S
C960 C979 1.429 . S
C960 H984 0.950 . S
C961 C978 1.574 . S
C961 C980 1.368 . S
C961 H985 0.949 . S
H962 C966 0.949 . S
C963 C964 1.349 . S
C963 C965 1.327 . S
C963 H986 0.950 . S
C964 C963 1.349 . S
C964 C976 1.349 . S
C965 C963 1.327 . S
C965 C981 1.429 . S
C965 H987 0.950 . S
C966 H962 0.949 . S
C966 C974 1.574 . S
C966 C982 1.368 . S
H967 C975 0.950 . S
H968 C973 0.950 . S
H969 C974 0.949 . S
H970 C976 0.950 . S
H971 C977 0.950 . S
H972 C978 0.949 . S
C973 H968 0.950 . S
C973 C975 1.327 . S
C973 C979 1.429 . S
C974 C966 1.574 . S
C974 H969 0.949 . S
C974 C980 1.368 . S
C975 C959 1.349 . S
C975 H967 0.950 . S
C975 C973 1.327 . S
C976 C964 1.349 . S
C976 H970 0.950 . S
C976 C977 1.327 . S
C977 H971 0.950 . S
C977 C976 1.327 . S
C977 C981 1.429 . S
C978 C961 1.574 . S
C978 H972 0.949 . S
C978 C982 1.368 . S
C979 C960 1.429 . S
C979 C973 1.429 . S
C979 C980 1.523 1_556 S
C980 C961 1.368 . S
C980 C974 1.368 . S
C980 C979 1.523 1_554 S
C981 C965 1.429 . S
C981 C977 1.429 . S
C981 C982 1.523 . S
C982 C966 1.368 . S
C982 C978 1.368 . S
C982 C981 1.523 . S
H983 C958 0.950 . S
H984 C960 0.950 . S
H985 C961 0.949 . S
H986 C963 0.950 . S
H987 C965 0.950 . S
C988 C989 1.349 . S
C988 C990 1.327 . S
C988 H1013 0.950 . S
C989 C988 1.349 . S
C989 C1005 1.349 . S
C990 C988 1.327 . S
C990 C1009 1.429 . S
C990 H1014 0.950 . S
C991 C1008 1.574 . S
C991 C1010 1.368 . S
C991 H1015 0.949 . S
H992 C996 0.949 . S
C993 C994 1.349 . S
C993 C995 1.327 . S
C993 H1016 0.950 . S
C994 C993 1.349 . S
C994 C1006 1.349 . S
C995 C993 1.327 . S
C995 C1011 1.429 . S
C995 H1017 0.950 . S
C996 H992 0.949 . S
C996 C1004 1.574 . S
C996 C1012 1.368 . S
H997 C1005 0.950 . S
H998 C1003 0.950 . S
H999 C1004 0.949 . S
H1000 C1006 0.950 . S
H1001 C1007 0.950 . S
H1002 C1008 0.949 . S
C1003 H998 0.950 . S
C1003 C1005 1.327 . S
C1003 C1009 1.429 . S
C1004 C996 1.574 . S
C1004 H999 0.949 . S
C1004 C1010 1.368 . S
C1005 C989 1.349 . S
C1005 H997 0.950 . S
C1005 C1003 1.327 . S
C1006 C994 1.349 . S
C1006 H1000 0.950 . S
C1006 C1007 1.327 . S
C1007 H1001 0.950 . S
C1007 C1006 1.327 . S
C1007 C1011 1.429 . S
C1008 C991 1.574 . S
C1008 H1002 0.949 . S
C1008 C1012 1.368 . S
C1009 C990 1.429 . S
C1009 C1003 1.429 . S
C1009 C1010 1.523 . S
C1010 C991 1.368 . S
C1010 C1004 1.368 . S
C1010 C1009 1.523 . S
C1011 C995 1.429 . S
C1011 C1007 1.429 . S
C1011 C1012 1.523 . S
C1012 C996 1.368 . S
C1012 C1008 1.368 . S
C1012 C1011 1.523 . S
H1013 C988 0.950 . S
H1014 C990 0.950 . S
H1015 C991 0.949 . S
H1016 C993 0.950 . S
H1017 C995 0.950 . S
C1018 C1019 1.349 . S
C1018 C1020 1.327 . S
C1018 H1043 0.950 . S
C1019 C1018 1.349 . S
C1019 C1035 1.349 . S
C1020 C1018 1.327 . S
C1020 C1039 1.429 . S
C1020 H1044 0.950 . S
C1021 C1038 1.574 . S
C1021 C1040 1.368 . S
C1021 H1045 0.949 . S
H1022 C1026 0.949 . S
C1023 C1024 1.349 . S
C1023 C1025 1.327 . S
C1023 H1046 0.950 . S
C1024 C1023 1.349 . S
C1024 C1036 1.349 . S
C1025 C1023 1.327 . S
C1025 C1041 1.429 . S
C1025 H1047 0.950 . S
C1026 H1022 0.949 . S
C1026 C1034 1.574 . S
C1026 C1042 1.368 . S
H1027 C1035 0.950 . S
H1028 C1033 0.950 . S
H1029 C1034 0.949 . S
H1030 C1036 0.950 . S
H1031 C1037 0.950 . S
H1032 C1038 0.949 . S
C1033 H1028 0.950 . S
C1033 C1035 1.327 . S
C1033 C1039 1.429 . S
C1034 C1026 1.574 . S
C1034 H1029 0.949 . S
C1034 C1040 1.368 . S
C1035 C1019 1.349 . S
C1035 H1027 0.950 . S
C1035 C1033 1.327 . S
C1036 C1024 1.349 . S
C1036 H1030 0.950 . S
C1036 C1037 1.327 . S
C1037 H1031 0.950 . S
C1037 C1036 1.327 . S
C1037 C1041 1.429 . S
C1038 C1021 1.574 . S
C1038 H1032 0.949 . S
C1038 C1042 1.368 . S
C1039 C1020 1.429 . S
C1039 C1033 1.429 . S
C1039 C1040 1.523 . S
C1040 C1021 1.368 . S
C1040 C1034 1.368 . S
C1040 C1039 1.523 . S
C1041 C1025 1.429 . S
C1041 C1037 1.429 . S
C1041 C1042 1.523 . S
C1042 C1026 1.368 . S
C1042 C1038 1.368 . S
C1042 C1041 1.523 . S
H1043 C1018 0.950 . S
H1044 C1020 0.950 . S
H1045 C1021 0.949 . S
H1046 C1023 0.950 . S
H1047 C1025 0.950 . S
C1048 C1049 1.349 . S
C1048 C1050 1.327 . S
C1048 H1073 0.950 . S
C1049 C1048 1.349 . S
C1049 C1065 1.349 . S
C1050 C1048 1.327 . S
C1050 C1069 1.429 . S
C1050 H1074 0.950 . S
C1051 C1068 1.574 . S
C1051 C1070 1.368 . S
C1051 H1075 0.949 . S
H1052 C1056 0.949 . S
C1053 C1054 1.349 . S
C1053 C1055 1.327 . S
C1053 H1076 0.950 . S
C1054 C1053 1.349 . S
C1054 C1066 1.349 . S
C1055 C1053 1.327 . S
C1055 C1071 1.429 . S
C1055 H1077 0.950 . S
C1056 H1052 0.949 . S
C1056 C1064 1.574 . S
C1056 C1072 1.368 . S
H1057 C1065 0.950 . S
H1058 C1063 0.950 . S
H1059 C1064 0.949 . S
H1060 C1066 0.950 . S
H1061 C1067 0.950 . S
H1062 C1068 0.949 . S
C1063 H1058 0.950 . S
C1063 C1065 1.327 . S
C1063 C1069 1.429 . S
C1064 C1056 1.574 . S
C1064 H1059 0.949 . S
C1064 C1070 1.368 . S
C1065 C1049 1.349 . S
C1065 H1057 0.950 . S
C1065 C1063 1.327 . S
C1066 C1054 1.349 . S
C1066 H1060 0.950 . S
C1066 C1067 1.327 . S
C1067 H1061 0.950 . S
C1067 C1066 1.327 . S
C1067 C1071 1.429 . S
C1068 C1051 1.574 . S
C1068 H1062 0.949 . S
C1068 C1072 1.368 . S
C1069 C1050 1.429 . S
C1069 C1063 1.429 . S
C1069 C1070 1.523 . S
C1070 C1051 1.368 . S
C1070 C1064 1.368 . S
C1070 C1069 1.523 . S
C1071 C1055 1.429 . S
C1071 C1067 1.429 . S
C1071 C1072 1.523 . S
C1072 C1056 1.368 . S
C1072 C1068 1.368 . S
C1072 C1071 1.523 . S
H1073 C1048 0.950 . S
H1074 C1050 0.950 . S
H1075 C1051 0.949 . S
H1076 C1053 0.950 . S
H1077 C1055 0.950 . S
C1078 C1079 1.349 . S
C1078 C1080 1.327 . S
C1078 H1103 0.950 . S
C1079 C1078 1.349 . S
C1079 C1095 1.349 . S
C1080 C1078 1.327 . S
C1080 C1099 1.429 . S
C1080 H1104 0.950 . S
C1081 C1098 1.574 . S
C1081 C1100 1.368 . S
C1081 H1105 0.949 . S
H1082 C1086 0.949 . S
C1083 C1084 1.349 . S
C1083 C1085 1.327 . S
C1083 H1106 0.950 . S
C1084 C1083 1.349 . S
C1084 C1096 1.349 . S
C1085 C1083 1.327 . S
C1085 C1101 1.429 . S
C1085 H1107 0.950 . S
C1086 H1082 0.949 . S
C1086 C1094 1.574 . S
C1086 C1102 1.368 . S
H1087 C1095 0.950 . S
H1088 C1093 0.950 . S
H1089 C1094 0.949 . S
H1090 C1096 0.950 . S
H1091 C1097 0.950 . S
H1092 C1098 0.949 . S
C1093 H1088 0.950 . S
C1093 C1095 1.327 . S
C1093 C1099 1.429 . S
C1094 C1086 1.574 . S
C1094 H1089 0.949 . S
C1094 C1100 1.368 . S
C1095 C1079 1.349 . S
C1095 H1087 0.950 . S
C1095 C1093 1.327 . S
C1096 C1084 1.349 . S
C1096 H1090 0.950 . S
C1096 C1097 1.327 . S
C1097 H1091 0.950 . S
C1097 C1096 1.327 . S
C1097 C1101 1.429 . S
C1098 C1081 1.574 . S
C1098 H1092 0.949 . S
C1098 C1102 1.368 . S
C1099 C1080 1.429 . S
C1099 C1093 1.429 . S
C1099 C1100 1.523 1_556 S
C1100 C1081 1.368 . S
C1100 C1094 1.368 . S
C1100 C1099 1.523 1_554 S
C1101 C1085 1.429 . S
C1101 C1097 1.429 . S
C1101 C1102 1.523 . S
C1102 C1086 1.368 . S
C1102 C1098 1.368 . S
C1102 C1101 1.523 . S
H1103 C1078 0.950 . S
H1104 C1080 0.950 . S
H1105 C1081 0.949 . S
H1106 C1083 0.950 . S
H1107 C1085 0.950 . S
C1108 C1109 1.349 . S
C1108 C1110 1.327 . S
C1108 H1133 0.950 . S
C1109 C1108 1.349 . S
C1109 C1125 1.349 . S
C1110 C1108 1.327 . S
C1110 C1129 1.429 . S
C1110 H1134 0.950 . S
C1111 C1128 1.574 . S
C1111 C1130 1.368 . S
C1111 H1135 0.949 . S
H1112 C1116 0.949 . S
C1113 C1114 1.349 . S
C1113 C1115 1.327 . S
C1113 H1136 0.950 . S
C1114 C1113 1.349 . S
C1114 C1126 1.349 . S
C1115 C1113 1.327 . S
C1115 C1131 1.429 . S
C1115 H1137 0.950 . S
C1116 H1112 0.949 . S
C1116 C1124 1.574 . S
C1116 C1132 1.368 . S
H1117 C1125 0.950 . S
H1118 C1123 0.950 . S
H1119 C1124 0.949 . S
H1120 C1126 0.950 . S
H1121 C1127 0.950 . S
H1122 C1128 0.949 . S
C1123 H1118 0.950 . S
C1123 C1125 1.327 . S
C1123 C1129 1.429 . S
C1124 C1116 1.574 . S
C1124 H1119 0.949 . S
C1124 C1130 1.368 . S
C1125 C1109 1.349 . S
C1125 H1117 0.950 . S
C1125 C1123 1.327 . S
C1126 C1114 1.349 . S
C1126 H1120 0.950 . S
C1126 C1127 1.327 . S
C1127 H1121 0.950 . S
C1127 C1126 1.327 . S
C1127 C1131 1.429 . S
C1128 C1111 1.574 . S
C1128 H1122 0.949 . S
C1128 C1132 1.368 . S
C1129 C1110 1.429 . S
C1129 C1123 1.429 . S
C1129 C1130 1.523 . S
C1130 C1111 1.368 . S
C1130 C1124 1.368 . S
C1130 C1129 1.523 . S
C1131 C1115 1.429 . S
C1131 C1127 1.429 . S
C1131 C1132 1.523 . S
C1132 C1116 1.368 . S
C1132 C1128 1.368 . S
C1132 C1131 1.523 . S
H1133 C1108 0.950 . S
H1134 C1110 0.950 . S
H1135 C1111 0.949 . S
H1136 C1113 0.950 . S
H1137 C1115 0.950 . S
C1138 C1139 1.349 . S
C1138 C1140 1.327 . S
C1138 H1163 0.950 . S
C1139 C1138 1.349 . S
C1139 C1155 1.349 . S
C1140 C1138 1.327 . S
C1140 C1159 1.429 . S
C1140 H1164 0.950 . S
C1141 C1158 1.574 . S
C1141 C1160 1.368 . S
C1141 H1165 0.949 . S
H1142 C1146 0.949 . S
C1143 C1144 1.349 . S
C1143 C1145 1.327 . S
C1143 H1166 0.950 . S
C1144 C1143 1.349 . S
C1144 C1156 1.349 . S
C1145 C1143 1.327 . S
C1145 C1161 1.429 . S
C1145 H1167 0.950 . S
C1146 H1142 0.949 . S
C1146 C1154 1.574 . S
C1146 C1162 1.368 . S
H1147 C1155 0.950 . S
H1148 C1153 0.950 . S
H1149 C1154 0.949 . S
H1150 C1156 0.950 . S
H1151 C1157 0.950 . S
H1152 C1158 0.949 . S
C1153 H1148 0.950 . S
C1153 C1155 1.327 . S
C1153 C1159 1.429 . S
C1154 C1146 1.574 . S
C1154 H1149 0.949 . S
C1154 C1160 1.368 . S
C1155 C1139 1.349 . S
C1155 H1147 0.950 . S
C1155 C1153 1.327 . S
C1156 C1144 1.349 . S
C1156 H1150 0.950 . S
C1156 C1157 1.327 . S
C1157 H1151 0.950 . S
C1157 C1156 1.327 . S
C1157 C1161 1.429 . S
C1158 C1141 1.574 . S
C1158 H1152 0.949 . S
C1158 C1162 1.368 . S
C1159 C1140 1.429 . S
C1159 C1153 1.429 . S
C1159 C1160 1.523 . S
C1160 C1141 1.368 . S
C1160 C1154 1.368 . S
C1160 C1159 1.523 . S
C1161 C1145 1.429 . S
C1161 C1157 1.429 . S
C1161 C1162 1.523 . S
C1162 C1146 1.368 . S
C1162 C1158 1.368 . S
C1162 C1161 1.523 . S
H1163 C1138 0.950 . S
H1164 C1140 0.950 . S
H1165 C1141 0.949 . S
H1166 C1143 0.950 . S
H1167 C1145 0.950 . S
C1168 C1169 1.349 . S
C1168 C1170 1.327 . S
C1168 H1193 0.950 . S
C1169 C1168 1.349 . S
C1169 C1185 1.349 1_545 S
C1170 C1168 1.327 . S
C1170 C1189 1.429 . S
C1170 H1194 0.950 . S
C1171 C1188 1.574 . S
C1171 C1190 1.368 1_565 S
C1171 H1195 0.949 . S
H1172 C1176 0.949 . S
C1173 C1174 1.349 . S
C1173 C1175 1.327 . S
C1173 H1196 0.950 . S
C1174 C1173 1.349 . S
C1174 C1186 1.349 1_565 S
C1175 C1173 1.327 . S
C1175 C1191 1.429 . S
C1175 H1197 0.950 . S
C1176 H1172 0.949 . S
C1176 C1184 1.574 . S
C1176 C1192 1.368 1_545 S
H1177 C1185 0.950 . S
H1178 C1183 0.950 . S
H1179 C1184 0.949 . S
H1180 C1186 0.950 . S
H1181 C1187 0.950 . S
H1182 C1188 0.949 . S
C1183 H1178 0.950 . S
C1183 C1185 1.327 . S
C1183 C1189 1.429 1_565 S
C1184 C1176 1.574 . S
C1184 H1179 0.949 . S
C1184 C1190 1.368 . S
C1185 C1169 1.349 1_565 S
C1185 H1177 0.950 . S
C1185 C1183 1.327 . S
C1186 C1174 1.349 1_545 S
C1186 H1180 0.950 . S
C1186 C1187 1.327 . S
C1187 H1181 0.950 . S
C1187 C1186 1.327 . S
C1187 C1191 1.429 1_545 S
C1188 C1171 1.574 . S
C1188 H1182 0.949 . S
C1188 C1192 1.368 . S
C1189 C1170 1.429 . S
C1189 C1183 1.429 1_545 S
C1189 C1190 1.523 . S
C1190 C1171 1.368 1_545 S
C1190 C1184 1.368 . S
C1190 C1189 1.523 . S
C1191 C1175 1.429 . S
C1191 C1187 1.429 1_565 S
C1191 C1192 1.523 . S
C1192 C1176 1.368 1_565 S
C1192 C1188 1.368 . S
C1192 C1191 1.523 . S
H1193 C1168 0.950 . S
H1194 C1170 0.950 . S
H1195 C1171 0.949 . S
H1196 C1173 0.950 . S
H1197 C1175 0.950 . S
C1198 C1199 1.349 . S
C1198 C1200 1.327 . S
C1198 H1223 0.950 . S
C1199 C1198 1.349 . S
C1199 C1215 1.349 . S
C1200 C1198 1.327 . S
C1200 C1219 1.429 . S
C1200 H1224 0.950 . S
C1201 C1218 1.574 . S
C1201 C1220 1.368 . S
C1201 H1225 0.949 . S
H1202 C1206 0.949 . S
C1203 C1204 1.349 . S
C1203 C1205 1.327 . S
C1203 H1226 0.950 . S
C1204 C1203 1.349 . S
C1204 C1216 1.349 . S
C1205 C1203 1.327 . S
C1205 C1221 1.429 . S
C1205 H1227 0.950 . S
C1206 H1202 0.949 . S
C1206 C1214 1.574 . S
C1206 C1222 1.368 . S
H1207 C1215 0.950 . S
H1208 C1213 0.950 . S
H1209 C1214 0.949 . S
H1210 C1216 0.950 . S
H1211 C1217 0.950 . S
H1212 C1218 0.949 . S
C1213 H1208 0.950 . S
C1213 C1215 1.327 . S
C1213 C1219 1.429 . S
C1214 C1206 1.574 . S
C1214 H1209 0.949 . S
C1214 C1220 1.368 . S
C1215 C1199 1.349 . S
C1215 H1207 0.950 . S
C1215 C1213 1.327 . S
C1216 C1204 1.349 . S
C1216 H1210 0.950 . S
C1216 C1217 1.327 . S
C1217 H1211 0.950 . S
C1217 C1216 1.327 . S
C1217 C1221 1.429 . S
C1218 C1201 1.574 . S
C1218 H1212 0.949 . S
C1218 C1222 1.368 . S
C1219 C1200 1.429 . S
C1219 C1213 1.429 . S
C1219 C1220 1.523 . S
C1220 C1201 1.368 . S
C1220 C1214 1.368 . S
C1220 C1219 1.523 . S
C1221 C1205 1.429 . S
C1221 C1217 1.429 . S
C1221 C1222 1.523 . S
C1222 C1206 1.368 . S
C1222 C1218 1.368 . S
C1222 C1221 1.523 . S
H1223 C1198 0.950 . S
H1224 C1200 0.950 . S
H1225 C1201 0.949 . S
H1226 C1203 0.950 . S
H1227 C1205 0.950 . S
C1228 C1229 1.334 1_565 S
C1228 C1230 1.331 . S
C1228 H1253 0.961 . S
C1229 C1228 1.334 1_545 S
C1229 C1245 1.349 . S
C1230 C1228 1.331 . S
C1230 C1249 1.429 1_565 S
C1230 H1254 0.950 . S
C1231 C1248 1.574 . S
C1231 C1250 1.368 . S
C1231 H1255 0.949 . S
H1232 C1236 0.949 . S
C1233 C1234 1.335 1_545 S
C1233 C1235 1.331 . S
C1233 H1256 0.960 . S
C1234 C1233 1.335 1_565 S
C1234 C1246 1.349 . S
C1235 C1233 1.331 . S
C1235 C1251 1.429 1_545 S
C1235 H1257 0.950 . S
C1236 H1232 0.949 . S
C1236 C1244 1.574 . S
C1236 C1252 1.368 . S
H1237 C1245 0.950 . S
H1238 C1243 0.950 . S
H1239 C1244 0.949 . S
H1240 C1246 0.950 . S
H1241 C1247 0.950 . S
H1242 C1248 0.949 . S
C1243 H1238 0.950 . S
C1243 C1245 1.327 . S
C1243 C1249 1.429 . S
C1244 C1236 1.574 . S
C1244 H1239 0.949 . S
C1244 C1250 1.368 1_565 S
C1245 C1229 1.349 . S
C1245 H1237 0.950 . S
C1245 C1243 1.327 . S
C1246 C1234 1.349 . S
C1246 H1240 0.950 . S
C1246 C1247 1.327 . S
C1247 H1241 0.950 . S
C1247 C1246 1.327 . S
C1247 C1251 1.429 . S
C1248 C1231 1.574 . S
C1248 H1242 0.949 . S
C1248 C1252 1.368 1_545 S
C1249 C1230 1.429 1_545 S
C1249 C1243 1.429 . S
C1249 C1250 1.523 . S
C1250 C1231 1.368 . S
C1250 C1244 1.368 1_545 S
C1250 C1249 1.523 . S
C1251 C1235 1.429 1_565 S
C1251 C1247 1.429 . S
C1251 C1252 1.523 . S
C1252 C1236 1.368 . S
C1252 C1248 1.368 1_565 S
C1252 C1251 1.523 . S
H1253 C1228 0.961 . S
H1254 C1230 0.950 . S
H1255 C1231 0.949 . S
H1256 C1233 0.960 . S
H1257 C1235 0.950 . S
C1258 C1259 1.349 . S
C1258 C1260 1.327 . S
C1258 H1283 0.950 . S
C1259 C1258 1.349 . S
C1259 C1275 1.349 . S
C1260 C1258 1.327 . S
C1260 C1279 1.429 . S
C1260 H1284 0.950 . S
C1261 C1278 1.574 . S
C1261 C1280 1.368 . S
C1261 H1285 0.949 . S
H1262 C1266 0.949 . S
C1263 C1264 1.349 . S
C1263 C1265 1.327 . S
C1263 H1286 0.950 . S
C1264 C1263 1.349 . S
C1264 C1276 1.349 . S
C1265 C1263 1.327 . S
C1265 C1281 1.429 . S
C1265 H1287 0.950 . S
C1266 H1262 0.949 . S
C1266 C1274 1.574 . S
C1266 C1282 1.368 . S
H1267 C1275 0.950 . S
H1268 C1273 0.950 . S
H1269 C1274 0.949 . S
H1270 C1276 0.950 . S
H1271 C1277 0.950 . S
H1272 C1278 0.949 . S
C1273 H1268 0.950 . S
C1273 C1275 1.327 . S
C1273 C1279 1.429 . S
C1274 C1266 1.574 . S
C1274 H1269 0.949 . S
C1274 C1280 1.368 . S
C1275 C1259 1.349 . S
C1275 H1267 0.950 . S
C1275 C1273 1.327 . S
C1276 C1264 1.349 . S
C1276 H1270 0.950 . S
C1276 C1277 1.327 . S
C1277 H1271 0.950 . S
C1277 C1276 1.327 . S
C1277 C1281 1.429 . S
C1278 C1261 1.574 . S
C1278 H1272 0.949 . S
C1278 C1282 1.368 . S
C1279 C1260 1.429 . S
C1279 C1273 1.429 . S
C1279 C1280 1.523 1_556 S
C1280 C1261 1.368 . S
C1280 C1274 1.368 . S
C1280 C1279 1.523 1_554 S
C1281 C1265 1.429 . S
C1281 C1277 1.429 . S
C1281 C1282 1.523 . S
C1282 C1266 1.368 . S
C1282 C1278 1.368 . S
C1282 C1281 1.523 . S
H1283 C1258 0.950 . S
H1284 C1260 0.950 . S
H1285 C1261 0.949 . S
H1286 C1263 0.950 . S
H1287 C1265 0.950 . S
C1288 C1289 1.349 . S
C1288 C1290 1.327 . S
C1288 H1313 0.950 . S
C1289 C1288 1.349 . S
C1289 C1305 1.295 1_565 S
C1290 C1288 1.327 . S
C1290 C1309 1.429 . S
C1290 H1314 0.950 . S
C1291 C1308 1.574 . S
C1291 C1310 1.368 1_545 S
C1291 H1315 0.949 . S
H1292 C1296 0.949 . S
C1293 C1294 1.349 . S
C1293 C1295 1.327 . S
C1293 H1316 0.950 . S
C1294 C1293 1.349 . S
C1294 C1306 1.297 1_545 S
C1295 C1293 1.327 . S
C1295 C1311 1.429 . S
C1295 H1317 0.950 . S
C1296 H1292 0.949 . S
C1296 C1304 1.574 . S
C1296 C1312 1.368 1_565 S
H1297 C1305 0.993 . S
H1298 C1303 0.950 . S
H1299 C1304 0.949 . S
H1300 C1306 0.992 . S
H1301 C1307 0.950 . S
H1302 C1308 0.949 . S
C1303 H1298 0.950 . S
C1303 C1305 1.342 . S
C1303 C1309 1.429 1_545 S
C1304 C1296 1.574 . S
C1304 H1299 0.949 . S
C1304 C1310 1.368 . S
C1305 C1289 1.295 1_545 S
C1305 H1297 0.993 . S
C1305 C1303 1.342 . S
C1306 C1294 1.297 1_565 S
C1306 H1300 0.992 . S
C1306 C1307 1.342 . S
C1307 H1301 0.950 . S
C1307 C1306 1.342 . S
C1307 C1311 1.429 1_565 S
C1308 C1291 1.574 . S
C1308 H1302 0.949 . S
C1308 C1312 1.368 . S
C1309 C1290 1.429 . S
C1309 C1303 1.429 1_565 S
C1309 C1310 1.523 . S
C1310 C1291 1.368 1_565 S
C1310 C1304 1.368 . S
C1310 C1309 1.523 . S
C1311 C1295 1.429 . S
C1311 C1307 1.429 1_545 S
C1311 C1312 1.523 . S
C1312 C1296 1.368 1_545 S
C1312 C1308 1.368 . S
C1312 C1311 1.523 . S
H1313 C1288 0.950 . S
H1314 C1290 0.950 . S
H1315 C1291 0.949 . S
H1316 C1293 0.950 . S
H1317 C1295 0.950 . S
C1318 C1319 1.349 . S
C1318 C1320 1.327 . S
C1318 H1343 0.950 . S
C1319 C1318 1.349 . S
C1319 C1335 1.349 . S
C1320 C1318 1.327 . S
C1320 C1339 1.429 . S
C1320 H1344 0.950 . S
C1321 C1338 1.574 . S
C1321 C1340 1.368 . S
C1321 H1345 0.949 . S
H1322 C1326 0.949 . S
C1323 C1324 1.349 . S
C1323 C1325 1.327 . S
C1323 H1346 0.950 . S
C1324 C1323 1.349 . S
C1324 C1336 1.349 . S
C1325 C1323 1.327 . S
C1325 C1341 1.429 . S
C1325 H1347 0.950 . S
C1326 H1322 0.949 . S
C1326 C1334 1.574 . S
C1326 C1342 1.368 . S
H1327 C1335 0.950 . S
H1328 C1333 0.950 . S
H1329 C1334 0.949 . S
H1330 C1336 0.950 . S
H1331 C1337 0.950 . S
H1332 C1338 0.949 . S
C1333 H1328 0.950 . S
C1333 C1335 1.327 . S
C1333 C1339 1.429 . S
C1334 C1326 1.574 . S
C1334 H1329 0.949 . S
C1334 C1340 1.368 . S
C1335 C1319 1.349 . S
C1335 H1327 0.950 . S
C1335 C1333 1.327 . S
C1336 C1324 1.349 . S
C1336 H1330 0.950 . S
C1336 C1337 1.327 . S
C1337 H1331 0.950 . S
C1337 C1336 1.327 . S
C1337 C1341 1.429 . S
C1338 C1321 1.574 . S
C1338 H1332 0.949 . S
C1338 C1342 1.368 . S
C1339 C1320 1.429 . S
C1339 C1333 1.429 . S
C1339 C1340 1.523 . S
C1340 C1321 1.368 . S
C1340 C1334 1.368 . S
C1340 C1339 1.523 . S
C1341 C1325 1.429 . S
C1341 C1337 1.429 . S
C1341 C1342 1.523 . S
C1342 C1326 1.368 . S
C1342 C1338 1.368 . S
C1342 C1341 1.523 . S
H1343 C1318 0.950 . S
H1344 C1320 0.950 . S
H1345 C1321 0.949 . S
H1346 C1323 0.950 . S
H1347 C1325 0.950 . S
C1348 C1349 1.349 . S
C1348 C1350 1.327 . S
C1348 H1373 0.950 . S
C1349 C1348 1.349 . S
C1349 C1365 1.349 1_545 S
C1350 C1348 1.327 . S
C1350 C1369 1.429 . S
C1350 H1374 0.950 . S
C1351 C1368 1.574 . S
C1351 C1370 1.368 1_565 S
C1351 H1375 0.949 . S
H1352 C1356 0.949 . S
C1353 C1354 1.349 . S
C1353 C1355 1.327 . S
C1353 H1376 0.950 . S
C1354 C1353 1.349 . S
C1354 C1366 1.349 1_565 S
C1355 C1353 1.327 . S
C1355 C1371 1.429 . S
C1355 H1377 0.950 . S
C1356 H1352 0.949 . S
C1356 C1364 1.574 . S
C1356 C1372 1.368 1_545 S
H1357 C1365 0.950 . S
H1358 C1363 0.950 . S
H1359 C1364 0.949 . S
H1360 C1366 0.950 . S
H1361 C1367 0.950 . S
H1362 C1368 0.949 . S
C1363 H1358 0.950 . S
C1363 C1365 1.327 . S
C1363 C1369 1.429 1_565 S
C1364 C1356 1.574 . S
C1364 H1359 0.949 . S
C1364 C1370 1.368 . S
C1365 C1349 1.349 1_565 S
C1365 H1357 0.950 . S
C1365 C1363 1.327 . S
C1366 C1354 1.349 1_545 S
C1366 H1360 0.950 . S
C1366 C1367 1.327 . S
C1367 H1361 0.950 . S
C1367 C1366 1.327 . S
C1367 C1371 1.429 1_545 S
C1368 C1351 1.574 . S
C1368 H1362 0.949 . S
C1368 C1372 1.368 . S
C1369 C1350 1.429 . S
C1369 C1363 1.429 1_545 S
C1369 C1370 1.523 . S
C1370 C1351 1.368 1_545 S
C1370 C1364 1.368 . S
C1370 C1369 1.523 . S
C1371 C1355 1.429 . S
C1371 C1367 1.429 1_565 S
C1371 C1372 1.523 . S
C1372 C1356 1.368 1_565 S
C1372 C1368 1.368 . S
C1372 C1371 1.523 . S
H1373 C1348 0.950 . S
H1374 C1350 0.950 . S
H1375 C1351 0.949 . S
H1376 C1353 0.950 . S
H1377 C1355 0.950 . S
C1378 C1379 1.349 . S
C1378 C1380 1.327 . S
C1378 H1403 0.950 . S
C1379 C1378 1.349 . S
C1379 C1395 1.349 . S
C1380 C1378 1.327 . S
C1380 C1399 1.429 . S
C1380 H1404 0.950 . S
C1381 C1398 1.574 . S
C1381 C1400 1.368 . S
C1381 H1405 0.949 . S
H1382 C1386 0.949 . S
C1383 C1384 1.349 . S
C1383 C1385 1.327 . S
C1383 H1406 0.950 . S
C1384 C1383 1.349 . S
C1384 C1396 1.349 . S
C1385 C1383 1.327 . S
C1385 C1401 1.429 . S
C1385 H1407 0.950 . S
C1386 H1382 0.949 . S
C1386 C1394 1.574 . S
C1386 C1402 1.368 . S
H1387 C1395 0.950 . S
H1388 C1393 0.950 . S
H1389 C1394 0.949 . S
H1390 C1396 0.950 . S
H1391 C1397 0.950 . S
H1392 C1398 0.949 . S
C1393 H1388 0.950 . S
C1393 C1395 1.327 . S
C1393 C1399 1.429 . S
C1394 C1386 1.574 . S
C1394 H1389 0.949 . S
C1394 C1400 1.368 . S
C1395 C1379 1.349 . S
C1395 H1387 0.950 . S
C1395 C1393 1.327 . S
C1396 C1384 1.349 . S
C1396 H1390 0.950 . S
C1396 C1397 1.327 . S
C1397 H1391 0.950 . S
C1397 C1396 1.327 . S
C1397 C1401 1.429 . S
C1398 C1381 1.574 . S
C1398 H1392 0.949 . S
C1398 C1402 1.368 . S
C1399 C1380 1.429 . S
C1399 C1393 1.429 . S
C1399 C1400 1.523 . S
C1400 C1381 1.368 . S
C1400 C1394 1.368 . S
C1400 C1399 1.523 . S
C1401 C1385 1.429 . S
C1401 C1397 1.429 . S
C1401 C1402 1.523 1_556 S
C1402 C1386 1.368 . S
C1402 C1398 1.368 . S
C1402 C1401 1.523 1_554 S
H1403 C1378 0.950 . S
H1404 C1380 0.950 . S
H1405 C1381 0.949 . S
H1406 C1383 0.950 . S
H1407 C1385 0.950 . S
C1408 C1409 1.349 . S
C1408 C1410 1.327 . S
C1408 H1433 0.950 . S
C1409 C1408 1.349 . S
C1409 C1425 1.349 . S
C1410 C1408 1.327 . S
C1410 C1429 1.429 . S
C1410 H1434 0.950 . S
C1411 C1428 1.574 . S
C1411 C1430 1.368 . S
C1411 H1435 0.949 . S
H1412 C1416 0.949 . S
C1413 C1414 1.349 . S
C1413 C1415 1.327 . S
C1413 H1436 0.950 . S
C1414 C1413 1.349 . S
C1414 C1426 1.349 . S
C1415 C1413 1.327 . S
C1415 C1431 1.429 . S
C1415 H1437 0.950 . S
C1416 H1412 0.949 . S
C1416 C1424 1.574 . S
C1416 C1432 1.368 . S
H1417 C1425 0.950 . S
H1418 C1423 0.950 . S
H1419 C1424 0.949 . S
H1420 C1426 0.950 . S
H1421 C1427 0.950 . S
H1422 C1428 0.949 . S
C1423 H1418 0.950 . S
C1423 C1425 1.327 . S
C1423 C1429 1.429 . S
C1424 C1416 1.574 . S
C1424 H1419 0.949 . S
C1424 C1430 1.368 . S
C1425 C1409 1.349 . S
C1425 H1417 0.950 . S
C1425 C1423 1.327 . S
C1426 C1414 1.349 . S
C1426 H1420 0.950 . S
C1426 C1427 1.327 . S
C1427 H1421 0.950 . S
C1427 C1426 1.327 . S
C1427 C1431 1.429 . S
C1428 C1411 1.574 . S
C1428 H1422 0.949 . S
C1428 C1432 1.368 . S
C1429 C1410 1.429 . S
C1429 C1423 1.429 . S
C1429 C1430 1.523 . S
C1430 C1411 1.368 . S
C1430 C1424 1.368 . S
C1430 C1429 1.523 . S
C1431 C1415 1.429 . S
C1431 C1427 1.429 . S
C1431 C1432 1.523 . S
C1432 C1416 1.368 . S
C1432 C1428 1.368 . S
C1432 C1431 1.523 . S
H1433 C1408 0.950 . S
H1434 C1410 0.950 . S
H1435 C1411 0.949 . S
H1436 C1413 0.950 . S
H1437 C1415 0.950 . S
C1438 C1439 1.349 . S
C1438 C1440 1.327 . S
C1438 H1463 0.950 . S
C1439 C1438 1.349 . S
C1439 C1455 1.349 . S
C1440 C1438 1.327 . S
C1440 C1459 1.429 . S
C1440 H1464 0.950 . S
C1441 C1458 1.574 . S
C1441 C1460 1.368 . S
C1441 H1465 0.949 . S
H1442 C1446 0.949 . S
C1443 C1444 1.349 . S
C1443 C1445 1.327 . S
C1443 H1466 0.950 . S
C1444 C1443 1.349 . S
C1444 C1456 1.349 . S
C1445 C1443 1.327 . S
C1445 C1461 1.429 . S
C1445 H1467 0.950 . S
C1446 H1442 0.949 . S
C1446 C1454 1.574 . S
C1446 C1462 1.368 . S
H1447 C1455 0.950 . S
H1448 C1453 0.950 . S
H1449 C1454 0.949 . S
H1450 C1456 0.950 . S
H1451 C1457 0.950 . S
H1452 C1458 0.949 . S
C1453 H1448 0.950 . S
C1453 C1455 1.327 . S
C1453 C1459 1.429 . S
C1454 C1446 1.574 . S
C1454 H1449 0.949 . S
C1454 C1460 1.368 . S
C1455 C1439 1.349 . S
C1455 H1447 0.950 . S
C1455 C1453 1.327 . S
C1456 C1444 1.349 . S
C1456 H1450 0.950 . S
C1456 C1457 1.327 . S
C1457 H1451 0.950 . S
C1457 C1456 1.327 . S
C1457 C1461 1.429 . S
C1458 C1441 1.574 . S
C1458 H1452 0.949 . S
C1458 C1462 1.368 . S
C1459 C1440 1.429 . S
C1459 C1453 1.429 . S
C1459 C1460 1.523 . S
C1460 C1441 1.368 . S
C1460 C1454 1.368 . S
C1460 C1459 1.523 . S
C1461 C1445 1.429 . S
C1461 C1457 1.429 . S
C1461 C1462 1.523 . S
C1462 C1446 1.368 . S
C1462 C1458 1.368 . S
C1462 C1461 1.523 . S
H1463 C1438 0.950 . S
H1464 C1440 0.950 . S
H1465 C1441 0.949 . S
H1466 C1443 0.950 . S
H1467 C1445 0.950 . S
C1468 C1469 1.349 . S
C1468 C1470 1.327 . S
C1468 H1493 0.950 . S
C1469 C1468 1.349 . S
C1469 C1485 1.349 . S
C1470 C1468 1.327 . S
C1470 C1489 1.429 . S
C1470 H1494 0.950 . S
C1471 C1488 1.574 . S
C1471 C1490 1.368 . S
C1471 H1495 0.949 . S
H1472 C1476 0.949 . S
C1473 C1474 1.349 . S
C1473 C1475 1.327 . S
C1473 H1496 0.950 . S
C1474 C1473 1.349 . S
C1474 C1486 1.349 . S
C1475 C1473 1.327 . S
C1475 C1491 1.429 . S
C1475 H1497 0.950 . S
C1476 H1472 0.949 . S
C1476 C1484 1.574 . S
C1476 C1492 1.368 . S
H1477 C1485 0.950 . S
H1478 C1483 0.950 . S
H1479 C1484 0.949 . S
H1480 C1486 0.950 . S
H1481 C1487 0.950 . S
H1482 C1488 0.949 . S
C1483 H1478 0.950 . S
C1483 C1485 1.327 . S
C1483 C1489 1.429 . S
C1484 C1476 1.574 . S
C1484 H1479 0.949 . S
C1484 C1490 1.368 . S
C1485 C1469 1.349 . S
C1485 H1477 0.950 . S
C1485 C1483 1.327 . S
C1486 C1474 1.349 . S
C1486 H1480 0.950 . S
C1486 C1487 1.327 . S
C1487 H1481 0.950 . S
C1487 C1486 1.327 . S
C1487 C1491 1.429 . S
C1488 C1471 1.574 . S
C1488 H1482 0.949 . S
C1488 C1492 1.368 . S
C1489 C1470 1.429 . S
C1489 C1483 1.429 . S
C1489 C1490 1.523 . S
C1490 C1471 1.368 . S
C1490 C1484 1.368 . S
C1490 C1489 1.523 . S
C1491 C1475 1.429 . S
C1491 C1487 1.429 . S
C1491 C1492 1.523 . S
C1492 C1476 1.368 . S
C1492 C1488 1.368 . S
C1492 C1491 1.523 . S
H1493 C1468 0.950 . S
H1494 C1470 0.950 . S
H1495 C1471 0.949 . S
H1496 C1473 0.950 . S
H1497 C1475 0.950 . S
C1498 C1499 1.349 . S
C1498 C1500 1.327 . S
C1498 H1523 0.950 . S
C1499 C1498 1.349 . S
C1499 C1515 1.349 . S
C1500 C1498 1.327 . S
C1500 C1519 1.429 . S
C1500 H1524 0.950 . S
C1501 C1518 1.574 . S
C1501 C1520 1.368 . S
C1501 H1525 0.949 . S
H1502 C1506 0.949 . S
C1503 C1504 1.349 . S
C1503 C1505 1.327 . S
C1503 H1526 0.950 . S
C1504 C1503 1.349 . S
C1504 C1516 1.349 . S
C1505 C1503 1.327 . S
C1505 C1521 1.429 . S
C1505 H1527 0.950 . S
C1506 H1502 0.949 . S
C1506 C1514 1.574 . S
C1506 C1522 1.368 . S
H1507 C1515 0.950 . S
H1508 C1513 0.950 . S
H1509 C1514 0.949 . S
H1510 C1516 0.950 . S
H1511 C1517 0.950 . S
H1512 C1518 0.949 . S
C1513 H1508 0.950 . S
C1513 C1515 1.327 . S
C1513 C1519 1.429 . S
C1514 C1506 1.574 . S
C1514 H1509 0.949 . S
C1514 C1520 1.368 . S
C1515 C1499 1.349 . S
C1515 H1507 0.950 . S
C1515 C1513 1.327 . S
C1516 C1504 1.349 . S
C1516 H1510 0.950 . S
C1516 C1517 1.327 . S
C1517 H1511 0.950 . S
C1517 C1516 1.327 . S
C1517 C1521 1.429 . S
C1518 C1501 1.574 . S
C1518 H1512 0.949 . S
C1518 C1522 1.368 . S
C1519 C1500 1.429 . S
C1519 C1513 1.429 . S
C1519 C1520 1.523 . S
C1520 C1501 1.368 . S
C1520 C1514 1.368 . S
C1520 C1519 1.523 . S
C1521 C1505 1.429 . S
C1521 C1517 1.429 . S
C1521 C1522 1.523 1_556 S
C1522 C1506 1.368 . S
C1522 C1518 1.368 . S
C1522 C1521 1.523 1_554 S
H1523 C1498 0.950 . S
H1524 C1500 0.950 . S
H1525 C1501 0.949 . S
H1526 C1503 0.950 . S
H1527 C1505 0.950 . S
C1528 C1529 1.349 . S
C1528 C1530 1.327 . S
C1528 H1553 0.950 . S
C1529 C1528 1.349 . S
C1529 C1545 1.349 . S
C1530 C1528 1.327 . S
C1530 C1549 1.429 . S
C1530 H1554 0.950 . S
C1531 C1548 1.574 . S
C1531 C1550 1.368 . S
C1531 H1555 0.949 . S
H1532 C1536 0.949 . S
C1533 C1534 1.349 . S
C1533 C1535 1.327 . S
C1533 H1556 0.950 . S
C1534 C1533 1.349 . S
C1534 C1546 1.349 . S
C1535 C1533 1.327 . S
C1535 C1551 1.429 . S
C1535 H1557 0.950 . S
C1536 H1532 0.949 . S
C1536 C1544 1.574 . S
C1536 C1552 1.368 . S
H1537 C1545 0.950 . S
H1538 C1543 0.950 . S
H1539 C1544 0.949 . S
H1540 C1546 0.950 . S
H1541 C1547 0.950 . S
H1542 C1548 0.949 . S
C1543 H1538 0.950 . S
C1543 C1545 1.327 . S
C1543 C1549 1.429 . S
C1544 C1536 1.574 . S
C1544 H1539 0.949 . S
C1544 C1550 1.368 . S
C1545 C1529 1.349 . S
C1545 H1537 0.950 . S
C1545 C1543 1.327 . S
C1546 C1534 1.349 . S
C1546 H1540 0.950 . S
C1546 C1547 1.327 . S
C1547 H1541 0.950 . S
C1547 C1546 1.327 . S
C1547 C1551 1.429 . S
C1548 C1531 1.574 . S
C1548 H1542 0.949 . S
C1548 C1552 1.368 . S
C1549 C1530 1.429 . S
C1549 C1543 1.429 . S
C1549 C1550 1.523 . S
C1550 C1531 1.368 . S
C1550 C1544 1.368 . S
C1550 C1549 1.523 . S
C1551 C1535 1.429 . S
C1551 C1547 1.429 . S
C1551 C1552 1.523 . S
C1552 C1536 1.368 . S
C1552 C1548 1.368 . S
C1552 C1551 1.523 . S
H1553 C1528 0.950 . S
H1554 C1530 0.950 . S
H1555 C1531 0.949 . S
H1556 C1533 0.950 . S
H1557 C1535 0.950 . S
C1558 C1559 1.349 . S
C1558 C1560 1.327 . S
C1558 H1583 0.950 . S
C1559 C1558 1.349 . S
C1559 C1575 1.349 . S
C1560 C1558 1.327 . S
C1560 C1579 1.429 . S
C1560 H1584 0.950 . S
C1561 C1578 1.574 . S
C1561 C1580 1.368 . S
C1561 H1585 0.949 . S
H1562 C1566 0.949 . S
C1563 C1564 1.349 . S
C1563 C1565 1.327 . S
C1563 H1586 0.950 . S
C1564 C1563 1.349 . S
C1564 C1576 1.349 . S
C1565 C1563 1.327 . S
C1565 C1581 1.429 . S
C1565 H1587 0.950 . S
C1566 H1562 0.949 . S
C1566 C1574 1.574 . S
C1566 C1582 1.368 . S
H1567 C1575 0.950 . S
H1568 C1573 0.950 . S
H1569 C1574 0.949 . S
H1570 C1576 0.950 . S
H1571 C1577 0.950 . S
H1572 C1578 0.949 . S
C1573 H1568 0.950 . S
C1573 C1575 1.327 . S
C1573 C1579 1.429 . S
C1574 C1566 1.574 . S
C1574 H1569 0.949 . S
C1574 C1580 1.368 . S
C1575 C1559 1.349 . S
C1575 H1567 0.950 . S
C1575 C1573 1.327 . S
C1576 C1564 1.349 . S
C1576 H1570 0.950 . S
C1576 C1577 1.327 . S
C1577 H1571 0.950 . S
C1577 C1576 1.327 . S
C1577 C1581 1.429 . S
C1578 C1561 1.574 . S
C1578 H1572 0.949 . S
C1578 C1582 1.368 . S
C1579 C1560 1.429 . S
C1579 C1573 1.429 . S
C1579 C1580 1.523 . S
C1580 C1561 1.368 . S
C1580 C1574 1.368 . S
C1580 C1579 1.523 . S
C1581 C1565 1.429 . S
C1581 C1577 1.429 . S
C1581 C1582 1.523 . S
C1582 C1566 1.368 . S
C1582 C1578 1.368 . S
C1582 C1581 1.523 . S
H1583 C1558 0.950 . S
H1584 C1560 0.950 . S
H1585 C1561 0.949 . S
H1586 C1563 0.950 . S
H1587 C1565 0.950 . S
C1588 C1589 1.349 . S
C1588 C1590 1.327 . S
C1588 H1613 0.950 . S
C1589 C1588 1.349 . S
C1589 C1605 1.349 . S
C1590 C1588 1.327 . S
C1590 C1609 1.429 . S
C1590 H1614 0.950 . S
C1591 C1608 1.574 . S
C1591 C1610 1.368 . S
C1591 H1615 0.949 . S
H1592 C1596 0.949 . S
C1593 C1594 1.349 . S
C1593 C1595 1.327 . S
C1593 H1616 0.950 . S
C1594 C1593 1.349 . S
C1594 C1606 1.349 . S
C1595 C1593 1.327 . S
C1595 C1611 1.429 . S
C1595 H1617 0.950 . S
C1596 H1592 0.949 . S
C1596 C1604 1.574 . S
C1596 C1612 1.368 . S
H1597 C1605 0.950 . S
H1598 C1603 0.950 . S
H1599 C1604 0.949 . S
H1600 C1606 0.950 . S
H1601 C1607 0.950 . S
H1602 C1608 0.949 . S
C1603 H1598 0.950 . S
C1603 C1605 1.327 . S
C1603 C1609 1.429 . S
C1604 C1596 1.574 . S
C1604 H1599 0.949 . S
C1604 C1610 1.368 . S
C1605 C1589 1.349 . S
C1605 H1597 0.950 . S
C1605 C1603 1.327 . S
C1606 C1594 1.349 . S
C1606 H1600 0.950 . S
C1606 C1607 1.327 . S
C1607 H1601 0.950 . S
C1607 C1606 1.327 . S
C1607 C1611 1.429 . S
C1608 C1591 1.574 . S
C1608 H1602 0.949 . S
C1608 C1612 1.368 . S
C1609 C1590 1.429 . S
C1609 C1603 1.429 . S
C1609 C1610 1.523 . S
C1610 C1591 1.368 . S
C1610 C1604 1.368 . S
C1610 C1609 1.523 . S
C1611 C1595 1.429 . S
C1611 C1607 1.429 . S
C1611 C1612 1.523 . S
C1612 C1596 1.368 . S
C1612 C1608 1.368 . S
C1612 C1611 1.523 . S
H1613 C1588 0.950 . S
H1614 C1590 0.950 . S
H1615 C1591 0.949 . S
H1616 C1593 0.950 . S
H1617 C1595 0.950 . S
C1618 C1619 1.349 . S
C1618 C1620 1.327 . S
C1618 H1643 0.950 . S
C1619 C1618 1.349 . S
C1619 C1635 1.349 . S
C1620 C1618 1.327 . S
C1620 C1639 1.429 . S
C1620 H1644 0.950 . S
C1621 C1638 1.574 . S
C1621 C1640 1.368 . S
C1621 H1645 0.949 . S
H1622 C1626 0.949 . S
C1623 C1624 1.349 . S
C1623 C1625 1.327 . S
C1623 H1646 0.950 . S
C1624 C1623 1.349 . S
C1624 C1636 1.349 . S
C1625 C1623 1.327 . S
C1625 C1641 1.429 . S
C1625 H1647 0.950 . S
C1626 H1622 0.949 . S
C1626 C1634 1.574 . S
C1626 C1642 1.368 . S
H1627 C1635 0.950 . S
H1628 C1633 0.950 . S
H1629 C1634 0.949 . S
H1630 C1636 0.950 . S
H1631 C1637 0.950 . S
H1632 C1638 0.949 . S
C1633 H1628 0.950 . S
C1633 C1635 1.327 . S
C1633 C1639 1.429 . S
C1634 C1626 1.574 . S
C1634 H1629 0.949 . S
C1634 C1640 1.368 . S
C1635 C1619 1.349 . S
C1635 H1627 0.950 . S
C1635 C1633 1.327 . S
C1636 C1624 1.349 . S
C1636 H1630 0.950 . S
C1636 C1637 1.327 . S
C1637 H1631 0.950 . S
C1637 C1636 1.327 . S
C1637 C1641 1.429 . S
C1638 C1621 1.574 . S
C1638 H1632 0.949 . S
C1638 C1642 1.368 . S
C1639 C1620 1.429 . S
C1639 C1633 1.429 . S
C1639 C1640 1.523 1_556 S
C1640 C1621 1.368 . S
C1640 C1634 1.368 . S
C1640 C1639 1.523 1_554 S
C1641 C1625 1.429 . S
C1641 C1637 1.429 . S
C1641 C1642 1.523 . S
C1642 C1626 1.368 . S
C1642 C1638 1.368 . S
C1642 C1641 1.523 . S
H1643 C1618 0.950 . S
H1644 C1620 0.950 . S
H1645 C1621 0.949 . S
H1646 C1623 0.950 . S
H1647 C1625 0.950 . S
C1648 C1649 1.349 . S
C1648 C1650 1.327 . S
C1648 H1673 0.950 . S
C1649 C1648 1.349 . S
C1649 C1665 1.349 1_565 S
C1650 C1648 1.327 . S
C1650 C1669 1.429 . S
C1650 H1674 0.950 . S
C1651 C1668 1.574 . S
C1651 C1670 1.368 1_545 S
C1651 H1675 0.949 . S
H1652 C1656 0.949 . S
C1653 C1654 1.349 . S
C1653 C1655 1.327 . S
C1653 H1676 0.950 . S
C1654 C1653 1.349 . S
C1654 C1666 1.349 1_545 S
C1655 C1653 1.327 . S
C1655 C1671 1.429 . S
C1655 H1677 0.950 . S
C1656 H1652 0.949 . S
C1656 C1664 1.574 . S
C1656 C1672 1.368 1_565 S
H1657 C1665 0.950 . S
H1658 C1663 0.950 . S
H1659 C1664 0.949 . S
H1660 C1666 0.950 . S
H1661 C1667 0.950 . S
H1662 C1668 0.949 . S
C1663 H1658 0.950 . S
C1663 C1665 1.327 . S
C1663 C1669 1.429 1_545 S
C1664 C1656 1.574 . S
C1664 H1659 0.949 . S
C1664 C1670 1.368 . S
C1665 C1649 1.349 1_545 S
C1665 H1657 0.950 . S
C1665 C1663 1.327 . S
C1666 C1654 1.349 1_565 S
C1666 H1660 0.950 . S
C1666 C1667 1.327 . S
C1667 H1661 0.950 . S
C1667 C1666 1.327 . S
C1667 C1671 1.429 1_565 S
C1668 C1651 1.574 . S
C1668 H1662 0.949 . S
C1668 C1672 1.368 . S
C1669 C1650 1.429 . S
C1669 C1663 1.429 1_565 S
C1669 C1670 1.523 . S
C1670 C1651 1.368 1_565 S
C1670 C1664 1.368 . S
C1670 C1669 1.523 . S
C1671 C1655 1.429 . S
C1671 C1667 1.429 1_545 S
C1671 C1672 1.523 . S
C1672 C1656 1.368 1_545 S
C1672 C1668 1.368 . S
C1672 C1671 1.523 . S
H1673 C1648 0.950 . S
H1674 C1650 0.950 . S
H1675 C1651 0.949 . S
H1676 C1653 0.950 . S
H1677 C1655 0.950 . S
C1678 C1679 1.349 . S
C1678 C1680 1.327 . S
C1678 H1703 0.950 . S
C1679 C1678 1.349 . S
C1679 C1695 1.349 . S
C1680 C1678 1.327 . S
C1680 C1699 1.429 . S
C1680 H1704 0.950 . S
C1681 C1698 1.574 . S
C1681 C1700 1.368 . S
C1681 H1705 0.949 . S
H1682 C1686 0.949 . S
C1683 C1684 1.349 . S
C1683 C1685 1.327 . S
C1683 H1706 0.950 . S
C1684 C1683 1.349 . S
C1684 C1696 1.349 . S
C1685 C1683 1.327 . S
C1685 C1701 1.429 . S
C1685 H1707 0.950 . S
C1686 H1682 0.949 . S
C1686 C1694 1.574 . S
C1686 C1702 1.368 . S
H1687 C1695 0.950 . S
H1688 C1693 0.950 . S
H1689 C1694 0.949 . S
H1690 C1696 0.950 . S
H1691 C1697 0.950 . S
H1692 C1698 0.949 . S
C1693 H1688 0.950 . S
C1693 C1695 1.327 . S
C1693 C1699 1.429 . S
C1694 C1686 1.574 . S
C1694 H1689 0.949 . S
C1694 C1700 1.368 . S
C1695 C1679 1.349 . S
C1695 H1687 0.950 . S
C1695 C1693 1.327 . S
C1696 C1684 1.349 . S
C1696 H1690 0.950 . S
C1696 C1697 1.327 . S
C1697 H1691 0.950 . S
C1697 C1696 1.327 . S
C1697 C1701 1.429 . S
C1698 C1681 1.574 . S
C1698 H1692 0.949 . S
C1698 C1702 1.368 . S
C1699 C1680 1.429 . S
C1699 C1693 1.429 . S
C1699 C1700 1.523 . S
C1700 C1681 1.368 . S
C1700 C1694 1.368 . S
C1700 C1699 1.523 . S
C1701 C1685 1.429 . S
C1701 C1697 1.429 . S
C1701 C1702 1.523 1_556 S
C1702 C1686 1.368 . S
C1702 C1698 1.368 . S
C1702 C1701 1.523 1_554 S
H1703 C1678 0.950 . S
H1704 C1680 0.950 . S
H1705 C1681 0.949 . S
H1706 C1683 0.950 . S
H1707 C1685 0.950 . S
C1708 C1709 1.349 1_545 S
C1708 C1710 1.327 . S
C1708 H1733 0.950 . S
C1709 C1708 1.349 1_565 S
C1709 C1725 1.349 . S
C1710 C1708 1.327 . S
C1710 C1729 1.429 1_545 S
C1710 H1734 0.950 . S
C1711 C1728 1.574 . S
C1711 C1730 1.368 . S
C1711 H1735 0.949 . S
H1712 C1716 0.949 . S
C1713 C1714 1.349 1_565 S
C1713 C1715 1.327 . S
C1713 H1736 0.950 . S
C1714 C1713 1.349 1_545 S
C1714 C1726 1.349 . S
C1715 C1713 1.327 . S
C1715 C1731 1.429 1_565 S
C1715 H1737 0.950 . S
C1716 H1712 0.949 . S
C1716 C1724 1.574 . S
C1716 C1732 1.368 . S
H1717 C1725 0.950 . S
H1718 C1723 0.950 . S
H1719 C1724 0.949 . S
H1720 C1726 0.950 . S
H1721 C1727 0.950 . S
H1722 C1728 0.949 . S
C1723 H1718 0.950 . S
C1723 C1725 1.327 . S
C1723 C1729 1.429 . S
C1724 C1716 1.574 . S
C1724 H1719 0.949 . S
C1724 C1730 1.368 1_545 S
C1725 C1709 1.349 . S
C1725 H1717 0.950 . S
C1725 C1723 1.327 . S
C1726 C1714 1.349 . S
C1726 H1720 0.950 . S
C1726 C1727 1.327 . S
C1727 H1721 0.950 . S
C1727 C1726 1.327 . S
C1727 C1731 1.429 . S
C1728 C1711 1.574 . S
C1728 H1722 0.949 . S
C1728 C1732 1.368 1_565 S
C1729 C1710 1.429 1_565 S
C1729 C1723 1.429 . S
C1729 C1730 1.523 . S
C1730 C1711 1.368 . S
C1730 C1724 1.368 1_565 S
C1730 C1729 1.523 . S
C1731 C1715 1.429 1_545 S
C1731 C1727 1.429 . S
C1731 C1732 1.523 . S
C1732 C1716 1.368 . S
C1732 C1728 1.368 1_545 S
C1732 C1731 1.523 . S
H1733 C1708 0.950 . S
H1734 C1710 0.950 . S
H1735 C1711 0.949 . S
H1736 C1713 0.950 . S
H1737 C1715 0.950 . S
C1738 C1739 1.349 . S
C1738 C1740 1.327 . S
C1738 H1763 0.950 . S
C1739 C1738 1.349 . S
C1739 C1755 1.349 . S
C1740 C1738 1.327 . S
C1740 C1759 1.429 . S
C1740 H1764 0.950 . S
C1741 C1758 1.574 . S
C1741 C1760 1.368 . S
C1741 H1765 0.949 . S
H1742 C1746 0.949 . S
C1743 C1744 1.349 . S
C1743 C1745 1.327 . S
C1743 H1766 0.950 . S
C1744 C1743 1.349 . S
C1744 C1756 1.349 . S
C1745 C1743 1.327 . S
C1745 C1761 1.429 . S
C1745 H1767 0.950 . S
C1746 H1742 0.949 . S
C1746 C1754 1.574 . S
C1746 C1762 1.368 . S
H1747 C1755 0.950 . S
H1748 C1753 0.950 . S
H1749 C1754 0.949 . S
H1750 C1756 0.950 . S
H1751 C1757 0.950 . S
H1752 C1758 0.949 . S
C1753 H1748 0.950 . S
C1753 C1755 1.327 . S
C1753 C1759 1.429 . S
C1754 C1746 1.574 . S
C1754 H1749 0.949 . S
C1754 C1760 1.368 . S
C1755 C1739 1.349 . S
C1755 H1747 0.950 . S
C1755 C1753 1.327 . S
C1756 C1744 1.349 . S
C1756 H1750 0.950 . S
C1756 C1757 1.327 . S
C1757 H1751 0.950 . S
C1757 C1756 1.327 . S
C1757 C1761 1.429 . S
C1758 C1741 1.574 . S
C1758 H1752 0.949 . S
C1758 C1762 1.368 . S
C1759 C1740 1.429 . S
C1759 C1753 1.429 . S
C1759 C1760 1.523 . S
C1760 C1741 1.368 . S
C1760 C1754 1.368 . S
C1760 C1759 1.523 . S
C1761 C1745 1.429 . S
C1761 C1757 1.429 . S
C1761 C1762 1.523 . S
C1762 C1746 1.368 . S
C1762 C1758 1.368 . S
C1762 C1761 1.523 . S
H1763 C1738 0.950 . S
H1764 C1740 0.950 . S
H1765 C1741 0.949 . S
H1766 C1743 0.950 . S
H1767 C1745 0.950 . S
C1768 C1769 1.349 . S
C1768 C1770 1.327 . S
C1768 H1793 0.950 . S
C1769 C1768 1.349 . S
C1769 C1785 1.349 1_565 S
C1770 C1768 1.327 . S
C1770 C1789 1.429 . S
C1770 H1794 0.950 . S
C1771 C1788 1.574 . S
C1771 C1790 1.368 1_545 S
C1771 H1795 0.949 . S
H1772 C1776 0.949 . S
C1773 C1774 1.349 . S
C1773 C1775 1.327 . S
C1773 H1796 0.950 . S
C1774 C1773 1.349 . S
C1774 C1786 1.349 1_545 S
C1775 C1773 1.327 . S
C1775 C1791 1.429 . S
C1775 H1797 0.950 . S
C1776 H1772 0.949 . S
C1776 C1784 1.574 . S
C1776 C1792 1.368 1_565 S
H1777 C1785 0.950 . S
H1778 C1783 0.950 . S
H1779 C1784 0.949 . S
H1780 C1786 0.950 . S
H1781 C1787 0.950 . S
H1782 C1788 0.949 . S
C1783 H1778 0.950 . S
C1783 C1785 1.327 . S
C1783 C1789 1.429 1_545 S
C1784 C1776 1.574 . S
C1784 H1779 0.949 . S
C1784 C1790 1.368 . S
C1785 C1769 1.349 1_545 S
C1785 H1777 0.950 . S
C1785 C1783 1.327 . S
C1786 C1774 1.349 1_565 S
C1786 H1780 0.950 . S
C1786 C1787 1.327 . S
C1787 H1781 0.950 . S
C1787 C1786 1.327 . S
C1787 C1791 1.429 1_565 S
C1788 C1771 1.574 . S
C1788 H1782 0.949 . S
C1788 C1792 1.368 . S
C1789 C1770 1.429 . S
C1789 C1783 1.429 1_565 S
C1789 C1790 1.523 . S
C1790 C1771 1.368 1_565 S
C1790 C1784 1.368 . S
C1790 C1789 1.523 . S
C1791 C1775 1.429 . S
C1791 C1787 1.429 1_545 S
C1791 C1792 1.523 . S
C1792 C1776 1.368 1_545 S
C1792 C1788 1.368 . S
C1792 C1791 1.523 . S
H1793 C1768 0.950 . S
H1794 C1770 0.950 . S
H1795 C1771 0.949 . S
H1796 C1773 0.950 . S
H1797 C1775 0.950 . S
C1798 C1799 1.349 . S
C1798 C1800 1.327 . S
C1798 H1823 0.950 . S
C1799 C1798 1.349 . S
C1799 C1815 1.349 . S
C1800 C1798 1.327 . S
C1800 C1819 1.429 . S
C1800 H1824 0.950 . S
C1801 C1818 1.574 . S
C1801 C1820 1.368 . S
C1801 H1825 0.949 . S
H1802 C1806 0.949 . S
C1803 C1804 1.349 . S
C1803 C1805 1.327 . S
C1803 H1826 0.950 . S
C1804 C1803 1.349 . S
C1804 C1816 1.349 . S
C1805 C1803 1.327 . S
C1805 C1821 1.429 . S
C1805 H1827 0.950 . S
C1806 H1802 0.949 . S
C1806 C1814 1.574 . S
C1806 C1822 1.368 . S
H1807 C1815 0.950 . S
H1808 C1813 0.950 . S
H1809 C1814 0.949 . S
H1810 C1816 0.950 . S
H1811 C1817 0.950 . S
H1812 C1818 0.949 . S
C1813 H1808 0.950 . S
C1813 C1815 1.327 . S
C1813 C1819 1.429 . S
C1814 C1806 1.574 . S
C1814 H1809 0.949 . S
C1814 C1820 1.368 . S
C1815 C1799 1.349 . S
C1815 H1807 0.950 . S
C1815 C1813 1.327 . S
C1816 C1804 1.349 . S
C1816 H1810 0.950 . S
C1816 C1817 1.327 . S
C1817 H1811 0.950 . S
C1817 C1816 1.327 . S
C1817 C1821 1.429 . S
C1818 C1801 1.574 . S
C1818 H1812 0.949 . S
C1818 C1822 1.368 . S
C1819 C1800 1.429 . S
C1819 C1813 1.429 . S
C1819 C1820 1.523 . S
C1820 C1801 1.368 . S
C1820 C1814 1.368 . S
C1820 C1819 1.523 . S
C1821 C1805 1.429 . S
C1821 C1817 1.429 . S
C1821 C1822 1.523 1_556 S
C1822 C1806 1.368 . S
C1822 C1818 1.368 . S
C1822 C1821 1.523 1_554 S
H1823 C1798 0.950 . S
H1824 C1800 0.950 . S
H1825 C1801 0.949 . S
H1826 C1803 0.950 . S
H1827 C1805 0.950 . S
C1828 C1829 1.349 . S
C1828 C1830 1.327 . S
C1828 H1853 0.950 . S
C1829 C1828 1.349 . S
C1829 C1845 1.349 1_565 S
C1830 C1828 1.327 . S
C1830 C1849 1.429 . S
C1830 H1854 0.950 . S
C1831 C1848 1.574 . S
C1831 C1850 1.368 1_545 S
C1831 H1855 0.949 . S
H1832 C1836 0.949 . S
C1833 C1834 1.349 . S
C1833 C1835 1.327 . S
C1833 H1856 0.950 . S
C1834 C1833 1.349 . S
C1834 C1846 1.349 1_545 S
C1835 C1833 1.327 . S
C1835 C1851 1.429 . S
C1835 H1857 0.950 . S
C1836 H1832 0.949 . S
C1836 C1844 1.574 . S
C1836 C1852 1.368 1_565 S
H1837 C1845 0.950 . S
H1838 C1843 0.950 . S
H1839 C1844 0.949 . S
H1840 C1846 0.950 . S
H1841 C1847 0.950 . S
H1842 C1848 0.949 . S
C1843 H1838 0.950 . S
C1843 C1845 1.327 . S
C1843 C1849 1.429 1_545 S
C1844 C1836 1.574 . S
C1844 H1839 0.949 . S
C1844 C1850 1.368 . S
C1845 C1829 1.349 1_545 S
C1845 H1837 0.950 . S
C1845 C1843 1.327 . S
C1846 C1834 1.349 1_565 S
C1846 H1840 0.950 . S
C1846 C1847 1.327 . S
C1847 H1841 0.950 . S
C1847 C1846 1.327 . S
C1847 C1851 1.429 1_565 S
C1848 C1831 1.574 . S
C1848 H1842 0.949 . S
C1848 C1852 1.368 . S
C1849 C1830 1.429 . S
C1849 C1843 1.429 1_565 S
C1849 C1850 1.523 . S
C1850 C1831 1.368 1_565 S
C1850 C1844 1.368 . S
C1850 C1849 1.523 . S
C1851 C1835 1.429 . S
C1851 C1847 1.429 1_545 S
C1851 C1852 1.523 . S
C1852 C1836 1.368 1_545 S
C1852 C1848 1.368 . S
C1852 C1851 1.523 . S
H1853 C1828 0.950 . S
H1854 C1830 0.950 . S
H1855 C1831 0.949 . S
H1856 C1833 0.950 . S
H1857 C1835 0.950 . S
C1858 C1859 1.349 . S
C1858 C1860 1.327 . S
C1858 H1883 0.950 . S
C1859 C1858 1.349 . S
C1859 C1875 1.349 . S
C1860 C1858 1.327 . S
C1860 C1879 1.429 . S
C1860 H1884 0.950 . S
C1861 C1878 1.574 . S
C1861 C1880 1.368 . S
C1861 H1885 0.949 . S
H1862 C1866 0.949 . S
C1863 C1864 1.349 . S
C1863 C1865 1.327 . S
C1863 H1886 0.950 . S
C1864 C1863 1.349 . S
C1864 C1876 1.349 . S
C1865 C1863 1.327 . S
C1865 C1881 1.429 . S
C1865 H1887 0.950 . S
C1866 H1862 0.949 . S
C1866 C1874 1.574 . S
C1866 C1882 1.368 . S
H1867 C1875 0.950 . S
H1868 C1873 0.950 . S
H1869 C1874 0.949 . S
H1870 C1876 0.950 . S
H1871 C1877 0.950 . S
H1872 C1878 0.949 . S
C1873 H1868 0.950 . S
C1873 C1875 1.327 . S
C1873 C1879 1.429 . S
C1874 C1866 1.574 . S
C1874 H1869 0.949 . S
C1874 C1880 1.368 . S
C1875 C1859 1.349 . S
C1875 H1867 0.950 . S
C1875 C1873 1.327 . S
C1876 C1864 1.349 . S
C1876 H1870 0.950 . S
C1876 C1877 1.327 . S
C1877 H1871 0.950 . S
C1877 C1876 1.327 . S
C1877 C1881 1.429 . S
C1878 C1861 1.574 . S
C1878 H1872 0.949 . S
C1878 C1882 1.368 . S
C1879 C1860 1.429 . S
C1879 C1873 1.429 . S
C1879 C1880 1.523 . S
C1880 C1861 1.368 . S
C1880 C1874 1.368 . S
C1880 C1879 1.523 . S
C1881 C1865 1.429 . S
C1881 C1877 1.429 . S
C1881 C1882 1.523 . S
C1882 C1866 1.368 . S
C1882 C1878 1.368 . S
C1882 C1881 1.523 . S
H1883 C1858 0.950 . S
H1884 C1860 0.950 . S
H1885 C1861 0.949 . S
H1886 C1863 0.950 . S
H1887 C1865 0.950 . S
C1888 C1889 1.349 . S
C1888 C1890 1.327 . S
C1888 H1913 0.950 . S
C1889 C1888 1.349 . S
C1889 C1905 1.349 . S
C1890 C1888 1.327 . S
C1890 C1909 1.429 . S
C1890 H1914 0.950 . S
C1891 C1908 1.574 . S
C1891 C1910 1.368 . S
C1891 H1915 0.949 . S
H1892 C1896 0.949 . S
C1893 C1894 1.349 . S
C1893 C1895 1.327 . S
C1893 H1916 0.950 . S
C1894 C1893 1.349 . S
C1894 C1906 1.349 . S
C1895 C1893 1.327 . S
C1895 C1911 1.429 . S
C1895 H1917 0.950 . S
C1896 H1892 0.949 . S
C1896 C1904 1.574 . S
C1896 C1912 1.368 . S
H1897 C1905 0.950 . S
H1898 C1903 0.950 . S
H1899 C1904 0.949 . S
H1900 C1906 0.950 . S
H1901 C1907 0.950 . S
H1902 C1908 0.949 . S
C1903 H1898 0.950 . S
C1903 C1905 1.327 . S
C1903 C1909 1.429 . S
C1904 C1896 1.574 . S
C1904 H1899 0.949 . S
C1904 C1910 1.368 . S
C1905 C1889 1.349 . S
C1905 H1897 0.950 . S
C1905 C1903 1.327 . S
C1906 C1894 1.349 . S
C1906 H1900 0.950 . S
C1906 C1907 1.327 . S
C1907 H1901 0.950 . S
C1907 C1906 1.327 . S
C1907 C1911 1.429 . S
C1908 C1891 1.574 . S
C1908 H1902 0.949 . S
C1908 C1912 1.368 . S
C1909 C1890 1.429 . S
C1909 C1903 1.429 . S
C1909 C1910 1.523 . S
C1910 C1891 1.368 . S
C1910 C1904 1.368 . S
C1910 C1909 1.523 . S
C1911 C1895 1.429 . S
C1911 C1907 1.429 . S
C1911 C1912 1.523 . S
C1912 C1896 1.368 . S
C1912 C1908 1.368 . S
C1912 C1911 1.523 . S
H1913 C1888 0.950 . S
H1914 C1890 0.950 . S
H1915 C1891 0.949 . S
H1916 C1893 0.950 . S
H1917 C1895 0.950 . S
C1918 C1919 1.349 . S
C1918 C1920 1.327 . S
C1918 H1943 0.950 . S
C1919 C1918 1.349 . S
C1919 C1935 1.349 . S
C1920 C1918 1.327 . S
C1920 C1939 1.429 . S
C1920 H1944 0.950 . S
C1921 C1938 1.574 . S
C1921 C1940 1.368 . S
C1921 H1945 0.949 . S
H1922 C1926 0.949 . S
C1923 C1924 1.349 . S
C1923 C1925 1.327 . S
C1923 H1946 0.950 . S
C1924 C1923 1.349 . S
C1924 C1936 1.349 . S
C1925 C1923 1.327 . S
C1925 C1941 1.429 . S
C1925 H1947 0.950 . S
C1926 H1922 0.949 . S
C1926 C1934 1.574 . S
C1926 C1942 1.368 . S
H1927 C1935 0.950 . S
H1928 C1933 0.950 . S
H1929 C1934 0.949 . S
H1930 C1936 0.950 . S
H1931 C1937 0.950 . S
H1932 C1938 0.949 . S
C1933 H1928 0.950 . S
C1933 C1935 1.327 . S
C1933 C1939 1.429 . S
C1934 C1926 1.574 . S
C1934 H1929 0.949 . S
C1934 C1940 1.368 . S
C1935 C1919 1.349 . S
C1935 H1927 0.950 . S
C1935 C1933 1.327 . S
C1936 C1924 1.349 . S
C1936 H1930 0.950 . S
C1936 C1937 1.327 . S
C1937 H1931 0.950 . S
C1937 C1936 1.327 . S
C1937 C1941 1.429 . S
C1938 C1921 1.574 . S
C1938 H1932 0.949 . S
C1938 C1942 1.368 . S
C1939 C1920 1.429 . S
C1939 C1933 1.429 . S
C1939 C1940 1.523 . S
C1940 C1921 1.368 . S
C1940 C1934 1.368 . S
C1940 C1939 1.523 . S
C1941 C1925 1.429 . S
C1941 C1937 1.429 . S
C1941 C1942 1.523 . S
C1942 C1926 1.368 . S
C1942 C1938 1.368 . S
C1942 C1941 1.523 . S
H1943 C1918 0.950 . S
H1944 C1920 0.950 . S
H1945 C1921 0.949 . S
H1946 C1923 0.950 . S
H1947 C1925 0.950 . S
C1948 C1949 1.349 . S
C1948 C1950 1.327 . S
C1948 H1973 0.950 . S
C1949 C1948 1.349 . S
C1949 C1965 1.349 . S
C1950 C1948 1.327 . S
C1950 C1969 1.429 . S
C1950 H1974 0.950 . S
C1951 C1968 1.574 . S
C1951 C1970 1.368 . S
C1951 H1975 0.949 . S
H1952 C1956 0.949 . S
C1953 C1954 1.349 . S
C1953 C1955 1.327 . S
C1953 H1976 0.950 . S
C1954 C1953 1.349 . S
C1954 C1966 1.349 . S
C1955 C1953 1.327 . S
C1955 C1971 1.429 . S
C1955 H1977 0.950 . S
C1956 H1952 0.949 . S
C1956 C1964 1.574 . S
C1956 C1972 1.368 . S
H1957 C1965 0.950 . S
H1958 C1963 0.950 . S
H1959 C1964 0.949 . S
H1960 C1966 0.950 . S
H1961 C1967 0.950 . S
H1962 C1968 0.949 . S
C1963 H1958 0.950 . S
C1963 C1965 1.327 . S
C1963 C1969 1.429 . S
C1964 C1956 1.574 . S
C1964 H1959 0.949 . S
C1964 C1970 1.368 . S
C1965 C1949 1.349 . S
C1965 H1957 0.950 . S
C1965 C1963 1.327 . S
C1966 C1954 1.349 . S
C1966 H1960 0.950 . S
C1966 C1967 1.327 . S
C1967 H1961 0.950 . S
C1967 C1966 1.327 . S
C1967 C1971 1.429 . S
C1968 C1951 1.574 . S
C1968 H1962 0.949 . S
C1968 C1972 1.368 . S
C1969 C1950 1.429 . S
C1969 C1963 1.429 . S
C1969 C1970 1.523 . S
C1970 C1951 1.368 . S
C1970 C1964 1.368 . S
C1970 C1969 1.523 . S
C1971 C1955 1.429 . S
C1971 C1967 1.429 . S
C1971 C1972 1.523 . S
C1972 C1956 1.368 . S
C1972 C1968 1.368 . S
C1972 C1971 1.523 . S
H1973 C1948 0.950 . S
H1974 C1950 0.950 . S
H1975 C1951 0.949 . S
H1976 C1953 0.950 . S
H1977 C1955 0.950 . S
C1978 C1979 1.349 . S
C1978 C1980 1.327 . S
C1978 H2003 0.950 . S
C1979 C1978 1.349 . S
C1979 C1995 1.349 . S
C1980 C1978 1.327 . S
C1980 C1999 1.429 . S
C1980 H2004 0.950 . S
C1981 C1998 1.574 . S
C1981 C2000 1.368 . S
C1981 H2005 0.949 . S
H1982 C1986 0.949 . S
C1983 C1984 1.341 1_556 S
C1983 C1985 1.327 . S
C1983 H2006 0.950 . S
C1984 C1983 1.341 1_554 S
C1984 C1996 1.343 1_554 S
C1985 C1983 1.327 . S
C1985 C2001 1.429 . S
C1985 H2007 0.950 . S
C1986 H1982 0.949 . S
C1986 C1994 1.574 . S
C1986 C2002 1.368 . S
H1987 C1995 0.950 . S
H1988 C1993 0.950 . S
H1989 C1994 0.949 . S
H1990 C1996 0.943 1_554 S
H1991 C1997 0.950 . S
H1992 C1998 0.949 . S
C1993 H1988 0.950 . S
C1993 C1995 1.327 . S
C1993 C1999 1.429 . S
C1994 C1986 1.574 . S
C1994 H1989 0.949 . S
C1994 C2000 1.368 . S
C1995 C1979 1.349 . S
C1995 H1987 0.950 . S
C1995 C1993 1.327 . S
C1996 C1984 1.343 1_556 S
C1996 H1990 0.943 1_556 S
C1996 C1997 1.327 . S
C1997 H1991 0.950 . S
C1997 C1996 1.327 . S
C1997 C2001 1.429 . S
C1998 C1981 1.574 . S
C1998 H1992 0.949 . S
C1998 C2002 1.368 . S
C1999 C1980 1.429 . S
C1999 C1993 1.429 . S
C1999 C2000 1.523 . S
C2000 C1981 1.368 . S
C2000 C1994 1.368 . S
C2000 C1999 1.523 . S
C2001 C1985 1.429 . S
C2001 C1997 1.429 . S
C2001 C2002 1.523 . S
C2002 C1986 1.368 . S
C2002 C1998 1.368 . S
C2002 C2001 1.523 . S
H2003 C1978 0.950 . S
H2004 C1980 0.950 . S
H2005 C1981 0.949 . S
H2006 C1983 0.950 . S
H2007 C1985 0.950 . S
C2008 C2009 1.349 . S
C2008 C2010 1.327 . S
C2008 H2033 0.950 . S
C2009 C2008 1.349 . S
C2009 C2025 1.349 . S
C2010 C2008 1.327 . S
C2010 C2029 1.429 . S
C2010 H2034 0.950 . S
C2011 C2028 1.574 . S
C2011 C2030 1.368 . S
C2011 H2035 0.949 . S
H2012 C2016 0.949 . S
C2013 C2014 1.349 . S
C2013 C2015 1.327 . S
C2013 H2036 0.950 . S
C2014 C2013 1.349 . S
C2014 C2026 1.349 . S
C2015 C2013 1.327 . S
C2015 C2031 1.429 . S
C2015 H2037 0.950 . S
C2016 H2012 0.949 . S
C2016 C2024 1.574 . S
C2016 C2032 1.368 . S
H2017 C2025 0.950 . S
H2018 C2023 0.950 . S
H2019 C2024 0.949 . S
H2020 C2026 0.950 . S
H2021 C2027 0.950 . S
H2022 C2028 0.949 . S
C2023 H2018 0.950 . S
C2023 C2025 1.327 . S
C2023 C2029 1.429 . S
C2024 C2016 1.574 . S
C2024 H2019 0.949 . S
C2024 C2030 1.368 . S
C2025 C2009 1.349 . S
C2025 H2017 0.950 . S
C2025 C2023 1.327 . S
C2026 C2014 1.349 . S
C2026 H2020 0.950 . S
C2026 C2027 1.327 . S
C2027 H2021 0.950 . S
C2027 C2026 1.327 . S
C2027 C2031 1.429 . S
C2028 C2011 1.574 . S
C2028 H2022 0.949 . S
C2028 C2032 1.368 . S
C2029 C2010 1.429 . S
C2029 C2023 1.429 . S
C2029 C2030 1.523 . S
C2030 C2011 1.368 . S
C2030 C2024 1.368 . S
C2030 C2029 1.523 . S
C2031 C2015 1.429 . S
C2031 C2027 1.429 . S
C2031 C2032 1.523 . S
C2032 C2016 1.368 . S
C2032 C2028 1.368 . S
C2032 C2031 1.523 . S
H2033 C2008 0.950 . S
H2034 C2010 0.950 . S
H2035 C2011 0.949 . S
H2036 C2013 0.950 . S
H2037 C2015 0.950 . S
C2038 C2039 1.349 . S
C2038 C2040 1.327 . S
C2038 H2063 0.950 . S
C2039 C2038 1.349 . S
C2039 C2055 1.349 . S
C2040 C2038 1.327 . S
C2040 C2059 1.429 . S
C2040 H2064 0.950 . S
C2041 C2058 1.574 . S
C2041 C2060 1.368 . S
C2041 H2065 0.949 . S
H2042 C2046 0.949 . S
C2043 C2044 1.349 . S
C2043 C2045 1.327 . S
C2043 H2066 0.950 . S
C2044 C2043 1.349 . S
C2044 C2056 1.349 . S
C2045 C2043 1.327 . S
C2045 C2061 1.429 . S
C2045 H2067 0.950 . S
C2046 H2042 0.949 . S
C2046 C2054 1.574 . S
C2046 C2062 1.368 . S
H2047 C2055 0.950 . S
H2048 C2053 0.950 . S
H2049 C2054 0.949 . S
H2050 C2056 0.950 . S
H2051 C2057 0.950 . S
H2052 C2058 0.949 . S
C2053 H2048 0.950 . S
C2053 C2055 1.327 . S
C2053 C2059 1.429 . S
C2054 C2046 1.574 . S
C2054 H2049 0.949 . S
C2054 C2060 1.368 . S
C2055 C2039 1.349 . S
C2055 H2047 0.950 . S
C2055 C2053 1.327 . S
C2056 C2044 1.349 . S
C2056 H2050 0.950 . S
C2056 C2057 1.327 . S
C2057 H2051 0.950 . S
C2057 C2056 1.327 . S
C2057 C2061 1.429 . S
C2058 C2041 1.574 . S
C2058 H2052 0.949 . S
C2058 C2062 1.368 . S
C2059 C2040 1.429 . S
C2059 C2053 1.429 . S
C2059 C2060 1.523 . S
C2060 C2041 1.368 . S
C2060 C2054 1.368 . S
C2060 C2059 1.523 . S
C2061 C2045 1.429 . S
C2061 C2057 1.429 . S
C2061 C2062 1.523 . S
C2062 C2046 1.368 . S
C2062 C2058 1.368 . S
C2062 C2061 1.523 . S
H2063 C2038 0.950 . S
H2064 C2040 0.950 . S
H2065 C2041 0.949 . S
H2066 C2043 0.950 . S
H2067 C2045 0.950 . S
C2068 C2069 1.349 . S
C2068 C2070 1.327 . S
C2068 H2093 0.950 . S
C2069 C2068 1.349 . S
C2069 C2085 1.349 . S
C2070 C2068 1.327 . S
C2070 C2089 1.429 . S
C2070 H2094 0.950 . S
C2071 C2088 1.574 . S
C2071 C2090 1.368 . S
C2071 H2095 0.949 . S
H2072 C2076 0.949 . S
C2073 C2074 1.349 1_556 S
C2073 C2075 1.327 . S
C2073 H2096 0.950 1_556 S
C2074 C2073 1.349 1_554 S
C2074 C2086 1.349 1_554 S
C2075 C2073 1.327 . S
C2075 C2091 1.429 . S
C2075 H2097 0.950 . S
C2076 H2072 0.949 . S
C2076 C2084 1.574 . S
C2076 C2092 1.368 . S
H2077 C2085 0.950 . S
H2078 C2083 0.950 . S
H2079 C2084 0.949 . S
H2080 C2086 0.950 . S
H2081 C2087 0.950 . S
H2082 C2088 0.949 . S
C2083 H2078 0.950 . S
C2083 C2085 1.327 . S
C2083 C2089 1.429 . S
C2084 C2076 1.574 . S
C2084 H2079 0.949 . S
C2084 C2090 1.368 . S
C2085 C2069 1.349 . S
C2085 H2077 0.950 . S
C2085 C2083 1.327 . S
C2086 C2074 1.349 1_556 S
C2086 H2080 0.950 . S
C2086 C2087 1.327 . S
C2087 H2081 0.950 . S
C2087 C2086 1.327 . S
C2087 C2091 1.429 . S
C2088 C2071 1.574 . S
C2088 H2082 0.949 . S
C2088 C2092 1.368 . S
C2089 C2070 1.429 . S
C2089 C2083 1.429 . S
C2089 C2090 1.523 . S
C2090 C2071 1.368 . S
C2090 C2084 1.368 . S
C2090 C2089 1.523 . S
C2091 C2075 1.429 . S
C2091 C2087 1.429 . S
C2091 C2092 1.523 . S
C2092 C2076 1.368 . S
C2092 C2088 1.368 . S
C2092 C2091 1.523 . S
H2093 C2068 0.950 . S
H2094 C2070 0.950 . S
H2095 C2071 0.949 . S
H2096 C2073 0.950 1_554 S
H2097 C2075 0.950 . S
C2098 C2099 1.349 . S
C2098 C2100 1.327 . S
C2098 H2123 0.950 . S
C2099 C2098 1.349 . S
C2099 C2115 1.349 . S
C2100 C2098 1.327 . S
C2100 C2119 1.429 . S
C2100 H2124 0.950 . S
C2101 C2118 1.574 . S
C2101 C2120 1.368 . S
C2101 H2125 0.949 . S
H2102 C2106 0.949 . S
C2103 C2104 1.349 . S
C2103 C2105 1.327 . S
C2103 H2126 0.950 . S
C2104 C2103 1.349 . S
C2104 C2116 1.349 . S
C2105 C2103 1.327 . S
C2105 C2121 1.429 . S
C2105 H2127 0.950 . S
C2106 H2102 0.949 . S
C2106 C2114 1.574 . S
C2106 C2122 1.368 . S
H2107 C2115 0.950 . S
H2108 C2113 0.950 . S
H2109 C2114 0.949 . S
H2110 C2116 0.950 . S
H2111 C2117 0.950 . S
H2112 C2118 0.949 . S
C2113 H2108 0.950 . S
C2113 C2115 1.327 . S
C2113 C2119 1.429 . S
C2114 C2106 1.574 . S
C2114 H2109 0.949 . S
C2114 C2120 1.368 . S
C2115 C2099 1.349 . S
C2115 H2107 0.950 . S
C2115 C2113 1.327 . S
C2116 C2104 1.349 . S
C2116 H2110 0.950 . S
C2116 C2117 1.327 . S
C2117 H2111 0.950 . S
C2117 C2116 1.327 . S
C2117 C2121 1.429 . S
C2118 C2101 1.574 . S
C2118 H2112 0.949 . S
C2118 C2122 1.368 . S
C2119 C2100 1.429 . S
C2119 C2113 1.429 . S
C2119 C2120 1.523 . S
C2120 C2101 1.368 . S
C2120 C2114 1.368 . S
C2120 C2119 1.523 . S
C2121 C2105 1.429 . S
C2121 C2117 1.429 . S
C2121 C2122 1.523 . S
C2122 C2106 1.368 . S
C2122 C2118 1.368 . S
C2122 C2121 1.523 . S
H2123 C2098 0.950 . S
H2124 C2100 0.950 . S
H2125 C2101 0.949 . S
H2126 C2103 0.950 . S
H2127 C2105 0.950 . S
C2128 C2129 1.349 . S
C2128 C2130 1.327 1_554 S
C2128 H2153 0.950 . S
C2129 C2128 1.349 . S
C2129 C2145 1.349 1_554 S
C2130 C2128 1.327 1_556 S
C2130 C2149 1.429 . S
C2130 H2154 0.950 . S
C2131 C2148 1.574 . S
C2131 C2150 1.368 . S
C2131 H2155 0.949 . S
H2132 C2136 0.949 . S
C2133 C2134 1.349 . S
C2133 C2135 1.327 . S
C2133 H2156 0.950 . S
C2134 C2133 1.349 . S
C2134 C2146 1.349 . S
C2135 C2133 1.327 . S
C2135 C2151 1.429 . S
C2135 H2157 0.950 . S
C2136 H2132 0.949 . S
C2136 C2144 1.574 . S
C2136 C2152 1.368 . S
H2137 C2145 0.950 . S
H2138 C2143 0.950 . S
H2139 C2144 0.949 . S
H2140 C2146 0.950 . S
H2141 C2147 0.950 . S
H2142 C2148 0.949 . S
C2143 H2138 0.950 . S
C2143 C2145 1.327 . S
C2143 C2149 1.429 . S
C2144 C2136 1.574 . S
C2144 H2139 0.949 . S
C2144 C2150 1.368 . S
C2145 C2129 1.349 1_556 S
C2145 H2137 0.950 . S
C2145 C2143 1.327 . S
C2146 C2134 1.349 . S
C2146 H2140 0.950 . S
C2146 C2147 1.327 . S
C2147 H2141 0.950 . S
C2147 C2146 1.327 . S
C2147 C2151 1.429 . S
C2148 C2131 1.574 . S
C2148 H2142 0.949 . S
C2148 C2152 1.368 . S
C2149 C2130 1.429 . S
C2149 C2143 1.429 . S
C2149 C2150 1.523 . S
C2150 C2131 1.368 . S
C2150 C2144 1.368 . S
C2150 C2149 1.523 . S
C2151 C2135 1.429 . S
C2151 C2147 1.429 . S
C2151 C2152 1.523 . S
C2152 C2136 1.368 . S
C2152 C2148 1.368 . S
C2152 C2151 1.523 . S
H2153 C2128 0.950 . S
H2154 C2130 0.950 . S
H2155 C2131 0.949 . S
H2156 C2133 0.950 . S
H2157 C2135 0.950 . S
C2158 C2159 1.349 . S
C2158 C2160 1.327 . S
C2158 H2183 0.950 . S
C2159 C2158 1.349 . S
C2159 C2175 1.349 . S
C2160 C2158 1.327 . S
C2160 C2179 1.429 . S
C2160 H2184 0.950 . S
C2161 C2178 1.574 . S
C2161 C2180 1.368 . S
C2161 H2185 0.949 . S
H2162 C2166 0.949 . S
C2163 C2164 1.349 . S
C2163 C2165 1.327 . S
C2163 H2186 0.950 . S
C2164 C2163 1.349 . S
C2164 C2176 1.349 . S
C2165 C2163 1.327 . S
C2165 C2181 1.429 . S
C2165 H2187 0.950 . S
C2166 H2162 0.949 . S
C2166 C2174 1.574 . S
C2166 C2182 1.368 . S
H2167 C2175 0.950 . S
H2168 C2173 0.950 . S
H2169 C2174 0.949 . S
H2170 C2176 0.950 . S
H2171 C2177 0.950 . S
H2172 C2178 0.949 . S
C2173 H2168 0.950 . S
C2173 C2175 1.327 . S
C2173 C2179 1.429 . S
C2174 C2166 1.574 . S
C2174 H2169 0.949 . S
C2174 C2180 1.368 . S
C2175 C2159 1.349 . S
C2175 H2167 0.950 . S
C2175 C2173 1.327 . S
C2176 C2164 1.349 . S
C2176 H2170 0.950 . S
C2176 C2177 1.327 . S
C2177 H2171 0.950 . S
C2177 C2176 1.327 . S
C2177 C2181 1.429 . S
C2178 C2161 1.574 . S
C2178 H2172 0.949 . S
C2178 C2182 1.368 . S
C2179 C2160 1.429 . S
C2179 C2173 1.429 . S
C2179 C2180 1.523 . S
C2180 C2161 1.368 . S
C2180 C2174 1.368 . S
C2180 C2179 1.523 . S
C2181 C2165 1.429 . S
C2181 C2177 1.429 . S
C2181 C2182 1.523 . S
C2182 C2166 1.368 . S
C2182 C2178 1.368 . S
C2182 C2181 1.523 . S
H2183 C2158 0.950 . S
H2184 C2160 0.950 . S
H2185 C2161 0.949 . S
H2186 C2163 0.950 . S
H2187 C2165 0.950 . S
C2188 C2189 1.349 . S
C2188 C2190 1.327 . S
C2188 H2213 0.950 . S
C2189 C2188 1.349 . S
C2189 C2205 1.349 . S
C2190 C2188 1.327 . S
C2190 C2209 1.429 . S
C2190 H2214 0.950 . S
C2191 C2208 1.574 . S
C2191 C2210 1.368 . S
C2191 H2215 0.949 . S
H2192 C2196 0.949 . S
C2193 C2194 1.349 . S
C2193 C2195 1.327 . S
C2193 H2216 0.950 . S
C2194 C2193 1.349 . S
C2194 C2206 1.349 . S
C2195 C2193 1.327 . S
C2195 C2211 1.429 . S
C2195 H2217 0.950 . S
C2196 H2192 0.949 . S
C2196 C2204 1.574 . S
C2196 C2212 1.368 . S
H2197 C2205 0.950 . S
H2198 C2203 0.950 . S
H2199 C2204 0.949 . S
H2200 C2206 0.950 . S
H2201 C2207 0.950 . S
H2202 C2208 0.949 . S
C2203 H2198 0.950 . S
C2203 C2205 1.327 . S
C2203 C2209 1.429 . S
C2204 C2196 1.574 . S
C2204 H2199 0.949 . S
C2204 C2210 1.368 . S
C2205 C2189 1.349 . S
C2205 H2197 0.950 . S
C2205 C2203 1.327 . S
C2206 C2194 1.349 . S
C2206 H2200 0.950 . S
C2206 C2207 1.327 . S
C2207 H2201 0.950 . S
C2207 C2206 1.327 . S
C2207 C2211 1.429 . S
C2208 C2191 1.574 . S
C2208 H2202 0.949 . S
C2208 C2212 1.368 . S
C2209 C2190 1.429 . S
C2209 C2203 1.429 . S
C2209 C2210 1.523 . S
C2210 C2191 1.368 . S
C2210 C2204 1.368 . S
C2210 C2209 1.523 . S
C2211 C2195 1.429 . S
C2211 C2207 1.429 . S
C2211 C2212 1.523 . S
C2212 C2196 1.368 . S
C2212 C2208 1.368 . S
C2212 C2211 1.523 . S
H2213 C2188 0.950 . S
H2214 C2190 0.950 . S
H2215 C2191 0.949 . S
H2216 C2193 0.950 . S
H2217 C2195 0.950 . S
C2218 C2219 1.349 . S
C2218 C2220 1.327 . S
C2218 H2243 0.950 . S
C2219 C2218 1.349 . S
C2219 C2235 1.349 . S
C2220 C2218 1.327 . S
C2220 C2239 1.429 . S
C2220 H2244 0.950 . S
C2221 C2238 1.574 . S
C2221 C2240 1.368 . S
C2221 H2245 0.949 . S
H2222 C2226 0.949 . S
C2223 C2224 1.349 . S
C2223 C2225 1.327 . S
C2223 H2246 0.950 . S
C2224 C2223 1.349 . S
C2224 C2236 1.349 . S
C2225 C2223 1.327 . S
C2225 C2241 1.429 . S
C2225 H2247 0.950 . S
C2226 H2222 0.949 . S
C2226 C2234 1.574 . S
C2226 C2242 1.368 . S
H2227 C2235 0.950 . S
H2228 C2233 0.950 . S
H2229 C2234 0.949 . S
H2230 C2236 0.950 . S
H2231 C2237 0.950 . S
H2232 C2238 0.949 . S
C2233 H2228 0.950 . S
C2233 C2235 1.327 . S
C2233 C2239 1.429 . S
C2234 C2226 1.574 . S
C2234 H2229 0.949 . S
C2234 C2240 1.368 . S
C2235 C2219 1.349 . S
C2235 H2227 0.950 . S
C2235 C2233 1.327 . S
C2236 C2224 1.349 . S
C2236 H2230 0.950 . S
C2236 C2237 1.327 . S
C2237 H2231 0.950 . S
C2237 C2236 1.327 . S
C2237 C2241 1.429 . S
C2238 C2221 1.574 . S
C2238 H2232 0.949 . S
C2238 C2242 1.368 . S
C2239 C2220 1.429 . S
C2239 C2233 1.429 . S
C2239 C2240 1.523 . S
C2240 C2221 1.368 . S
C2240 C2234 1.368 . S
C2240 C2239 1.523 . S
C2241 C2225 1.429 . S
C2241 C2237 1.429 . S
C2241 C2242 1.523 . S
C2242 C2226 1.368 . S
C2242 C2238 1.368 . S
C2242 C2241 1.523 . S
H2243 C2218 0.950 . S
H2244 C2220 0.950 . S
H2245 C2221 0.949 . S
H2246 C2223 0.950 . S
H2247 C2225 0.950 . S
C2248 C2249 1.349 . S
C2248 C2250 1.327 . S
C2248 H2273 0.950 . S
C2249 C2248 1.349 . S
C2249 C2265 1.349 . S
C2250 C2248 1.327 . S
C2250 C2269 1.429 . S
C2250 H2274 0.950 . S
C2251 C2268 1.574 . S
C2251 C2270 1.368 . S
C2251 H2275 0.949 . S
H2252 C2256 0.949 . S
C2253 C2254 1.349 . S
C2253 C2255 1.327 . S
C2253 H2276 0.950 . S
C2254 C2253 1.349 . S
C2254 C2266 1.349 . S
C2255 C2253 1.327 . S
C2255 C2271 1.429 . S
C2255 H2277 0.950 . S
C2256 H2252 0.949 . S
C2256 C2264 1.574 . S
C2256 C2272 1.368 . S
H2257 C2265 0.950 . S
H2258 C2263 0.950 . S
H2259 C2264 0.949 . S
H2260 C2266 0.950 . S
H2261 C2267 0.950 . S
H2262 C2268 0.949 . S
C2263 H2258 0.950 . S
C2263 C2265 1.327 . S
C2263 C2269 1.429 . S
C2264 C2256 1.574 . S
C2264 H2259 0.949 . S
C2264 C2270 1.368 . S
C2265 C2249 1.349 . S
C2265 H2257 0.950 . S
C2265 C2263 1.327 . S
C2266 C2254 1.349 . S
C2266 H2260 0.950 . S
C2266 C2267 1.327 . S
C2267 H2261 0.950 . S
C2267 C2266 1.327 . S
C2267 C2271 1.429 . S
C2268 C2251 1.574 . S
C2268 H2262 0.949 . S
C2268 C2272 1.368 . S
C2269 C2250 1.429 . S
C2269 C2263 1.429 . S
C2269 C2270 1.523 . S
C2270 C2251 1.368 . S
C2270 C2264 1.368 . S
C2270 C2269 1.523 . S
C2271 C2255 1.429 . S
C2271 C2267 1.429 . S
C2271 C2272 1.523 . S
C2272 C2256 1.368 . S
C2272 C2268 1.368 . S
C2272 C2271 1.523 . S
H2273 C2248 0.950 . S
H2274 C2250 0.950 . S
H2275 C2251 0.949 . S
H2276 C2253 0.950 . S
H2277 C2255 0.950 . S
C2278 C2279 1.349 . S
C2278 C2280 1.327 . S
C2278 H2303 0.950 . S
C2279 C2278 1.349 . S
C2279 C2295 1.349 . S
C2280 C2278 1.327 . S
C2280 C2299 1.429 . S
C2280 H2304 0.950 . S
C2281 C2298 1.574 . S
C2281 C2300 1.368 . S
C2281 H2305 0.949 . S
H2282 C2286 0.949 . S
C2283 C2284 1.349 . S
C2283 C2285 1.327 . S
C2283 H2306 0.950 . S
C2284 C2283 1.349 . S
C2284 C2296 1.349 . S
C2285 C2283 1.327 . S
C2285 C2301 1.429 . S
C2285 H2307 0.950 . S
C2286 H2282 0.949 . S
C2286 C2294 1.574 . S
C2286 C2302 1.368 . S
H2287 C2295 0.950 . S
H2288 C2293 0.950 . S
H2289 C2294 0.949 . S
H2290 C2296 0.950 . S
H2291 C2297 0.950 . S
H2292 C2298 0.949 . S
C2293 H2288 0.950 . S
C2293 C2295 1.327 . S
C2293 C2299 1.429 . S
C2294 C2286 1.574 . S
C2294 H2289 0.949 . S
C2294 C2300 1.368 . S
C2295 C2279 1.349 . S
C2295 H2287 0.950 . S
C2295 C2293 1.327 . S
C2296 C2284 1.349 . S
C2296 H2290 0.950 . S
C2296 C2297 1.327 . S
C2297 H2291 0.950 . S
C2297 C2296 1.327 . S
C2297 C2301 1.429 . S
C2298 C2281 1.574 . S
C2298 H2292 0.949 . S
C2298 C2302 1.368 . S
C2299 C2280 1.429 . S
C2299 C2293 1.429 . S
C2299 C2300 1.523 . S
C2300 C2281 1.368 . S
C2300 C2294 1.368 . S
C2300 C2299 1.523 . S
C2301 C2285 1.429 . S
C2301 C2297 1.429 . S
C2301 C2302 1.523 . S
C2302 C2286 1.368 . S
C2302 C2298 1.368 . S
C2302 C2301 1.523 . S
H2303 C2278 0.950 . S
H2304 C2280 0.950 . S
H2305 C2281 0.949 . S
H2306 C2283 0.950 . S
H2307 C2285 0.950 . S
C2308 C2309 1.349 . S
C2308 C2310 1.327 . S
C2308 H2333 0.950 . S
C2309 C2308 1.349 . S
C2309 C2325 1.349 . S
C2310 C2308 1.327 . S
C2310 C2329 1.429 . S
C2310 H2334 0.950 . S
C2311 C2328 1.574 . S
C2311 C2330 1.368 . S
C2311 H2335 0.949 . S
H2312 C2316 0.949 . S
C2313 C2314 1.349 . S
C2313 C2315 1.327 . S
C2313 H2336 0.950 . S
C2314 C2313 1.349 . S
C2314 C2326 1.349 . S
C2315 C2313 1.327 . S
C2315 C2331 1.429 . S
C2315 H2337 0.950 . S
C2316 H2312 0.949 . S
C2316 C2324 1.574 . S
C2316 C2332 1.368 . S
H2317 C2325 0.950 . S
H2318 C2323 0.950 . S
H2319 C2324 0.949 . S
H2320 C2326 0.950 . S
H2321 C2327 0.950 . S
H2322 C2328 0.949 . S
C2323 H2318 0.950 . S
C2323 C2325 1.327 . S
C2323 C2329 1.429 . S
C2324 C2316 1.574 . S
C2324 H2319 0.949 . S
C2324 C2330 1.368 . S
C2325 C2309 1.349 . S
C2325 H2317 0.950 . S
C2325 C2323 1.327 . S
C2326 C2314 1.349 . S
C2326 H2320 0.950 . S
C2326 C2327 1.327 . S
C2327 H2321 0.950 . S
C2327 C2326 1.327 . S
C2327 C2331 1.429 . S
C2328 C2311 1.574 . S
C2328 H2322 0.949 . S
C2328 C2332 1.368 . S
C2329 C2310 1.429 . S
C2329 C2323 1.429 . S
C2329 C2330 1.523 . S
C2330 C2311 1.368 . S
C2330 C2324 1.368 . S
C2330 C2329 1.523 . S
C2331 C2315 1.429 . S
C2331 C2327 1.429 . S
C2331 C2332 1.523 . S
C2332 C2316 1.368 . S
C2332 C2328 1.368 . S
C2332 C2331 1.523 . S
H2333 C2308 0.950 . S
H2334 C2310 0.950 . S
H2335 C2311 0.949 . S
H2336 C2313 0.950 . S
H2337 C2315 0.950 . S
C2338 C2339 1.349 . S
C2338 C2340 1.327 . S
C2338 H2363 0.950 . S
C2339 C2338 1.349 . S
C2339 C2355 1.349 . S
C2340 C2338 1.327 . S
C2340 C2359 1.429 . S
C2340 H2364 0.950 . S
C2341 C2358 1.574 . S
C2341 C2360 1.368 . S
C2341 H2365 0.949 . S
H2342 C2346 0.949 . S
C2343 C2344 1.321 1_556 S
C2343 C2345 1.327 . S
C2343 H2366 0.950 . S
C2344 C2343 1.321 1_554 S
C2344 C2356 1.364 . S
C2345 C2343 1.327 . S
C2345 C2361 1.429 . S
C2345 H2367 0.950 . S
C2346 H2342 0.949 . S
C2346 C2354 1.574 . S
C2346 C2362 1.368 . S
H2347 C2355 0.950 . S
H2348 C2353 0.950 . S
H2349 C2354 0.949 . S
H2350 C2356 0.950 . S
H2351 C2357 0.950 . S
H2352 C2358 0.949 . S
C2353 H2348 0.950 . S
C2353 C2355 1.327 . S
C2353 C2359 1.429 . S
C2354 C2346 1.574 . S
C2354 H2349 0.949 . S
C2354 C2360 1.368 . S
C2355 C2339 1.349 . S
C2355 H2347 0.950 . S
C2355 C2353 1.327 . S
C2356 C2344 1.364 . S
C2356 H2350 0.950 . S
C2356 C2357 1.327 . S
C2357 H2351 0.950 . S
C2357 C2356 1.327 . S
C2357 C2361 1.429 1_554 S
C2358 C2341 1.574 . S
C2358 H2352 0.949 . S
C2358 C2362 1.368 . S
C2359 C2340 1.429 . S
C2359 C2353 1.429 . S
C2359 C2360 1.523 . S
C2360 C2341 1.368 . S
C2360 C2354 1.368 . S
C2360 C2359 1.523 . S
C2361 C2345 1.429 . S
C2361 C2357 1.429 1_556 S
C2361 C2362 1.523 . S
C2362 C2346 1.368 . S
C2362 C2358 1.368 . S
C2362 C2361 1.523 . S
H2363 C2338 0.950 . S
H2364 C2340 0.950 . S
H2365 C2341 0.949 . S
H2366 C2343 0.950 . S
H2367 C2345 0.950 . S
C449 C121 1.356 . S
C454 C9 1.356 . S
C479 C23 1.356 . S
C484 C359 1.356 . S
C509 C37 1.356 . S
C514 C149 1.356 . S
C539 C51 1.356 . S
C544 C387 1.356 . S
C569 C65 1.356 . S
C574 C177 1.356 . S
C599 C415 1.356 . S
C604 C79 1.356 . S
C629 C205 1.356 . S
C634 C93 1.356 . S
C659 C443 1.356 . S
C664 C107 1.356 . S
C689 C247 1.356 . S
C694 C135 1.356 . S
C719 C163 1.356 . S
C724 C275 1.356 . S
C749 C191 1.356 . S
C754 C303 1.356 . S
C779 C331 1.356 . S
C784 C219 1.356 . S
C809 C345 1.356 . S
C814 C233 1.356 . S
C839 C261 1.356 . S
C844 C373 1.356 . S
C869 C289 1.356 . S
C874 C401 1.356 . S
C899 C429 1.356 . S
C904 C317 1.356 . S
C929 C3 1.261 . S
C934 C59 1.261 . S
C959 C73 1.261 . S
C964 C17 1.261 . S
C989 C87 1.262 . S
C994 C31 1.262 . S
C1019 C45 1.261 . S
C1024 C101 1.261 . S
C1049 C115 1.262 . S
C1054 C171 1.262 . S
C1079 C129 1.261 . S
C1084 C185 1.261 . S
C1109 C199 1.261 . S
C1114 C143 1.261 . S
C1139 C213 1.261 . S
C1144 C157 1.261 . S
C1169 C283 1.262 . S
C1174 C227 1.262 . S
C1199 C297 1.261 . S
C1204 C241 1.261 . S
C1229 C255 1.262 . S
C1234 C311 1.262 . S
C1259 C325 1.261 . S
C1264 C269 1.261 . S
C1289 C395 1.262 . S
C1294 C339 1.262 . S
C1319 C353 1.261 . S
C1324 C409 1.261 . S
C1349 C423 1.262 . S
C1354 C367 1.262 . S
C1379 C437 1.261 . S
C1384 C381 1.261 . S
C1409 C63 0.224 . S
C1414 C7 0.224 . S
C1439 C77 0.224 . S
C1444 C21 0.224 . S
C1469 C35 0.224 . S
C1474 C91 0.224 . S
C1499 C105 0.224 . S
C1504 C49 0.224 . S
C1529 C175 0.224 . S
C1534 C119 0.224 . S
C1559 C133 0.224 . S
C1564 C189 0.224 . S
C1589 C203 0.224 . S
C1594 C147 0.224 . S
C1619 C217 0.224 . S
C1624 C161 0.224 . S
C1649 C231 0.224 . S
C1654 C287 0.224 . S
C1679 C301 0.224 . S
C1684 C245 0.224 . S
C1709 C315 0.224 . S
C1714 C259 0.224 . S
C1739 C329 0.224 . S
C1744 C273 0.224 . S
C1769 C399 0.224 . S
C1774 C343 0.224 . S
C1799 C357 0.224 . S
C1804 C413 0.224 . S
C1829 C371 0.224 . S
C1834 C427 0.224 . S
C1859 C385 0.224 . S
C1864 C441 0.224 . S
C1889 C8 1.455 . S
C1894 C302 1.455 . S
C1919 C316 1.455 . S
C1924 C22 1.455 . S
C1949 C36 1.455 . S
C1954 C330 1.455 . S
C1979 C50 1.455 . S
C1984 C288 1.465 . S
C2009 C274 1.455 . S
C2014 C64 1.455 . S
C2039 C232 1.455 . S
C2044 C78 1.455 . S
C2069 C246 1.455 . S
C2074 C92 1.455 . S
C2099 C106 1.455 . S
C2104 C260 1.455 . S
C2129 C120 1.455 . S
C2134 C414 1.455 . S
C2159 C428 1.455 . S
C2164 C134 1.455 . S
C2189 C442 1.455 . S
C2194 C148 1.455 . S
C2219 C400 1.455 . S
C2224 C162 1.455 . S
C2249 C386 1.455 . S
C2254 C176 1.455 . S
C2279 C344 1.455 . S
C2284 C190 1.455 . S
C2309 C204 1.455 . S
C2314 C358 1.455 . S
C2339 C218 1.455 . S
C2344 C372 1.465 . S
