# Generated by pormake.
# Topology sxc, (6)-cn, num edge types: 1
# Building blocks:
#     Node 0, Type 0, BuildingBlock: KUMBUR_clean_sbu_1, # of connection points: 6
#     Node 1, Type 0, BuildingBlock: KUMBUR_clean_sbu_1, # of connection points: 6
#     Node 2, Type 0, BuildingBlock: KUMBUR_clean_sbu_1, # of connection points: 6
#     Edge 3, Type (0, 0), BuildingBlock: UVAHIK_clean_linker_0, # of connection points: 2
#     Edge 4, Type (0, 0), BuildingBlock: UVAHIK_clean_linker_0, # of connection points: 2
#     Edge 5, Type (0, 0), BuildingBlock: UVAHIK_clean_linker_0, # of connection points: 2
#     Edge 6, Type (0, 0), BuildingBlock: UVAHIK_clean_linker_0, # of connection points: 2
#     Edge 7, Type (0, 0), BuildingBlock: UVAHIK_clean_linker_0, # of connection points: 2
#     Edge 8, Type (0, 0), BuildingBlock: UVAHIK_clean_linker_0, # of connection points: 2
#     Edge 9, Type (0, 0), BuildingBlock: UVAHIK_clean_linker_0, # of connection points: 2
#     Edge 10, Type (0, 0), BuildingBlock: UVAHIK_clean_linker_0, # of connection points: 2
#     Edge 11, Type (0, 0), BuildingBlock: UVAHIK_clean_linker_0, # of connection points: 2
# Relax obj value: 0.179
# Max RMSD: 0.147
# Mean RMSD: 0.105
data_MOF--net-sxc--node1-KUMBUR_clean_sbu_1--edge1-UVAHIK_clean_linker_0
_symmetry_space_group_name_H-M    P1
_symmetry_Int_Tables_number       1
_symmetry_cell_setting            triclinic
loop_
_symmetry_equiv_pos_as_xyz
'x, y, z'
_cell_length_a     20.068129
_cell_length_b     21.876389
_cell_length_c     57.978405
_cell_angle_alpha  109.08187
_cell_angle_beta   97.108971
_cell_angle_gamma 103.0873
loop_
_atom_site_label
_atom_site_type_symbol
_atom_site_fract_x
_atom_site_fract_y
_atom_site_fract_z
_atom_type_partial_charge
Tb0 Tb 0.9741 0.13722 -0.00229 0.0
C1 C 0.26899 0.11745 0.02684 0.0
N2 N 0.22045 0.14061 0.03884 0.0
C3 C 0.24637 0.09305 0.06956 0.0
C4 C 0.30595 0.07831 0.03517 0.0
C5 C 0.21099 0.13169 0.0606 0.0
C6 C 0.29357 0.06569 0.05667 0.0
C7 C 0.33168 0.11044 0.99335 0.0
C8 C 0.28168 0.13361 0.00624 0.0
C9 C 0.36684 0.06932 0.00101 0.0
C10 C 0.3542 0.0535 0.02192 0.0
Tb11 Tb 0.17053 0.2077 0.02389 0.0
N12 N 0.24791 0.17491 -0.00029 0.0
C13 C 0.34652 0.13096 0.97364 0.0
C14 C 0.26637 0.19899 0.98166 0.0
C15 C 0.31441 0.17613 0.96801 0.0
H16 H 0.17554 0.15371 0.07081 0.0
H17 H 0.32772 0.1945 0.95347 0.0
H18 H 0.97436 0.19277 0.9511 0.0
H19 H 0.80794 0.14609 0.06513 0.0
H20 H 0.24578 0.23718 0.97799 0.0
H21 H 0.3845 0.11416 0.96325 0.0
H22 H 0.89281 0.1049 0.04174 0.0
H23 H 0.23755 0.08473 0.08648 0.0
H24 H 0.40511 1.05077 0.99123 0.0
H25 H 0.38265 1.02276 0.02787 0.0
H26 H 0.91453 0.26233 0.93498 0.0
H27 H 0.32087 1.03576 0.06365 0.0
H28 H 0.75259 0.2268 0.05492 0.0
N29 N 0.92618 0.20476 0.9823 0.0
C30 C 0.87611 0.22713 0.99357 0.0
C31 C 0.90378 0.25337 0.95161 0.0
C32 C 0.84017 0.26646 0.98491 0.0
C33 C 0.93801 0.21446 0.96086 0.0
C34 C 0.85516 0.28007 0.96383 0.0
N35 N 0.89374 0.16854 0.02057 0.0
C36 C 0.87299 0.14346 0.0381 0.0
C37 C 0.80925 0.23231 0.02588 0.0
C38 C 0.86086 0.21 0.01375 0.0
C39 C 0.79189 0.21072 0.04513 0.0
C40 C 0.82322 0.16537 0.05101 0.0
H41 H 0.82872 0.31018 0.95661 0.0
H42 H 0.7626 0.32131 0.99122 0.0
H43 H 0.73558 0.29152 0.02711 0.0
O44 O 0.87388 0.0677 0.98624 0.0
O45 O 1.01539 0.25577 0.008 0.0
O46 O 0.13603 0.29124 0.01405 0.0
O47 O 0.93931 0.07359 0.95992 0.0
O48 O 1.00697 0.13316 0.03438 0.0
O49 O 0.09505 0.22829 0.04737 0.0
O50 O 0.27103 0.27664 0.03445 0.0
O51 O 0.12893 0.08947 0.01423 0.0
O52 O 1.00814 0.05406 0.00798 0.0
O53 O 0.20769 0.27232 0.06145 0.0
O54 O 0.13509 0.21225 0.98757 0.0
O55 O 0.05067 0.11509 0.97487 0.0
C56 C 0.07455 0.30601 0.01152 0.0
C57 C 0.87236 0.96475 0.95545 0.0
C58 C 0.81585 0.85612 0.95772 0.0
C59 C 0.85687 0.82586 0.94212 0.0
C60 C 0.91217 0.93323 0.93954 0.0
C61 C 0.9044 0.86426 0.933 0.0
C62 C 0.8237 0.92552 0.96418 0.0
C63 C 0.05307 0.1823 0.05262 0.0
C64 C 0.88331 1.03857 0.96393 0.0
C65 C 0.79031 0.29045 -0.00257 0.0
C66 C 0.77507 0.27361 0.01791 0.0
C67 C 0.06964 1.03936 0.01071 0.0
C68 C 0.27398 0.38052 0.06498 0.0
C69 C 0.3315 0.48852 0.06241 0.0
C70 C 0.28952 0.51918 0.07744 0.0
C71 C 0.23301 0.41245 0.08022 0.0
C72 C 0.32367 0.41923 0.05641 0.0
C73 C 0.24088 0.48131 0.08637 0.0
C74 C 0.09174 0.16097 0.96938 0.0
C75 C 0.26298 0.30674 0.05688 0.0
H76 H 0.85159 0.77241 0.93675 0.0
H77 H 0.9499 0.96185 0.93237 0.0
H78 H 0.93557 0.84053 0.92088 0.0
H79 H 0.79317 0.94944 0.97659 0.0
H80 H 0.29479 0.57256 0.08249 0.0
H81 H 0.19424 0.3843 0.08717 0.0
H82 H 0.3549 0.39492 0.04443 0.0
H83 H 0.20887 0.50533 0.09799 0.0
Tb84 Tb 0.05002 0.07434 0.32584 0.0
C85 C 0.2584 0.35598 0.3782 0.0
N86 N 0.21705 0.30532 0.38317 0.0
C87 C 0.31248 0.31175 0.41397 0.0
C88 C 0.32965 0.3845 0.3902 0.0
C89 C 0.24204 0.28499 0.40155 0.0
C90 C 0.35668 0.36121 0.40809 0.0
C91 C 0.27032 0.42999 0.3547 0.0
C92 C 0.22903 0.37841 0.3607 0.0
C93 C 0.34172 0.45793 0.36632 0.0
C94 C 0.37129 0.43528 0.38403 0.0
Tb95 Tb 0.10309 0.26748 0.3622 0.0
N96 N 0.15973 0.3505 0.34994 0.0
C97 C 0.23841 0.45235 0.33739 0.0
C98 C 0.1279 0.37323 0.33348 0.0
C99 C 0.16682 0.42411 0.32685 0.0
H100 H 0.20803 0.24774 0.40645 0.0
H101 H 0.14146 0.44191 0.31379 0.0
H102 H 0.96182 0.09964 0.27865 0.0
H103 H 0.97277 0.91004 0.37618 0.0
H104 H 0.07218 0.35321 0.32582 0.0
H105 H 0.26831 0.49195 0.33228 0.0
H106 H 0.05655 0.99008 0.36457 0.0
H107 H 0.33258 0.29446 0.42814 0.0
H108 H 0.37439 0.49746 0.36188 0.0
H109 H 0.4263 0.45763 0.39296 0.0
H110 H 0.84031 0.06364 0.25512 0.0
H111 H 0.41123 0.38175 0.41772 0.0
H112 H 0.84779 0.86919 0.35476 0.0
N113 N 0.93946 1.04533 0.3025 0.0
C114 C 0.89077 0.99823 0.30687 0.0
C115 C 0.85363 1.04553 0.26986 0.0
C116 C 0.82058 0.97544 0.29363 0.0
C117 C 0.92257 0.06686 0.28356 0.0
C118 C 0.80223 1.00021 0.27509 0.0
N119 N 0.9793 0.99823 0.33793 0.0
C120 C 1.00186 0.97478 0.35573 0.0
C121 C 0.86169 0.928 0.33115 0.0
C122 C 0.91114 0.97481 0.32544 0.0
C123 C 0.88419 0.9052 0.34983 0.0
C124 C 0.95464 0.92838 0.36205 0.0
H125 H 0.74883 0.98397 0.26449 0.0
H126 H 0.71683 0.91122 0.28947 0.0
H127 H 0.75278 0.86967 0.32229 0.0
O128 O 0.05536 0.9747 0.31303 0.0
O129 O 0.96656 0.11966 0.34068 0.0
O130 O 0.99329 0.22803 0.34126 0.0
O131 O 0.07629 1.03603 0.29089 0.0
O132 O 0.1034 0.10278 0.36477 0.0
O133 O 0.06692 0.1965 0.38057 0.0
O134 O 0.09 0.36389 0.37801 0.0
O135 O 0.18966 0.22516 0.34903 0.0
O136 O 0.16153 0.1136 0.34544 0.0
O137 O 0.07698 0.29471 0.39745 0.0
O138 O 0.05275 0.236 0.32281 0.0
O139 O 0.09054 0.14283 0.30704 0.0
C140 C 0.94747 0.17436 0.34136 0.0
C141 C 0.14301 0.95882 0.29062 0.0
C142 C 0.20607 0.87869 0.29444 0.0
C143 C 0.26838 0.92214 0.29381 0.0
C144 C 0.20525 1.00178 0.28946 0.0
C145 C 0.26743 0.98281 0.29066 0.0
C146 C 0.1436 0.89655 0.29208 0.0
C147 C 0.09102 0.14825 0.38375 0.0
C148 C 0.07888 0.97981 0.29366 0.0
C149 C 0.77109 0.92909 0.29938 0.0
C150 C 0.79157 0.90547 0.31809 0.0
C151 C 0.20773 0.16908 0.34678 0.0
C152 C 1.00117 0.36469 0.40081 0.0
C153 C 0.92638 0.43772 0.40019 0.0
C154 C 0.86911 0.38835 0.40084 0.0
C155 C 0.94399 0.31582 0.40207 0.0
C156 C 0.99228 0.42611 0.40085 0.0
C157 C 0.87849 0.32819 0.40241 0.0
C158 C 0.07238 0.19473 0.30466 0.0
C159 C 0.06835 0.35129 0.39668 0.0
H160 H 0.31748 0.90988 0.29626 0.0
H161 H 0.2065 1.05065 0.28851 0.0
H162 H 0.31555 1.01655 0.29026 0.0
H163 H 0.09595 0.86417 0.29362 0.0
H164 H 0.81738 0.3957 0.39957 0.0
H165 H 0.94912 0.26749 0.40194 0.0
H166 H 1.03594 0.46316 0.39928 0.0
H167 H 0.83426 0.28987 0.40281 0.0
Tb168 Tb 0.15171 0.20431 0.68844 0.0
C169 C 0.19778 0.92857 0.6456 0.0
N170 N 0.17003 0.97115 0.63751 0.0
C171 C 0.2368 0.95845 0.60557 0.0
C172 C 0.2485 0.90142 0.63454 0.0
C173 C 0.1868 0.98431 0.61719 0.0
C174 C 0.26825 0.91728 0.6144 0.0
C175 C 0.20688 0.87297 0.67538 0.0
C176 C 0.17719 0.91459 0.66579 0.0
C177 C 0.25752 0.84584 0.66442 0.0
C178 C 0.27825 0.86 0.64406 0.0
Tb179 Tb 0.0872 1.0076 0.65743 0.0
N180 N 0.12865 0.94239 0.67615 0.0
C181 C 0.18485 0.85991 0.6957 0.0
C182 C 0.1057 0.92833 0.69561 0.0
C183 C 0.13382 0.88744 0.70576 0.0
H184 H 0.16132 1.01386 0.60965 0.0
H185 H 0.11561 0.87666 0.72121 0.0
H186 H 0.0639 0.20069 0.7331 0.0
H187 H 0.1748 0.35913 0.63221 0.0
H188 H 0.0644 0.9469 0.70303 0.0
H189 H 0.2064 0.82816 0.7036 0.0
H190 H 0.20699 0.27856 0.6498 0.0
H191 H 0.25062 0.96984 0.58967 0.0
H192 H 0.281 0.81385 0.67157 0.0
H193 H 0.31748 0.83884 0.63586 0.0
H194 H 0.97524 0.25151 0.75101 0.0
H195 H 0.30713 0.89752 0.6054 0.0
H196 H 0.08263 0.41171 0.64619 0.0
N197 N 0.06967 0.24814 0.70653 0.0
C198 C 0.0506 0.29504 0.69865 0.0
C199 C 0.99552 0.2637 0.73611 0.0
C200 C 1.00066 0.32603 0.70847 0.0
C201 C 1.04533 0.23436 0.72577 0.0
C202 C 0.97247 0.30919 0.72723 0.0
N203 N 0.13022 0.2814 0.67202 0.0
C204 C 0.16477 0.29902 0.65524 0.0
C205 C 0.06219 0.35891 0.67147 0.0
C206 C 0.08101 0.31125 0.68046 0.0
C207 C 0.0956 0.37533 0.65359 0.0
C208 C 0.14751 0.34562 0.64559 0.0
H209 H 0.93382 0.33176 0.73525 0.0
H210 H 0.94213 0.39684 0.70648 0.0
H211 H 0.99601 0.42564 0.67407 0.0
O212 O 0.22675 0.29918 0.70168 0.0
O213 O 1.03524 0.16102 0.67401 0.0
O214 O 1.00465 1.05065 0.67219 0.0
O215 O 0.21257 0.2399 0.72486 0.0
O216 O 0.1636 0.16341 0.64981 0.0
O217 O 0.07168 0.06684 0.63391 0.0
O218 O 1.01996 0.9109 0.64937 0.0
O219 O 0.20279 0.05634 0.67371 0.0
O220 O 0.22818 0.15988 0.66986 0.0
O221 O 1.02648 0.95412 0.62102 0.0
O222 O 0.06629 1.04732 0.69478 0.0
O223 O 0.16099 0.14003 0.71037 0.0
C224 C 0.98749 0.1055 0.67208 0.0
C225 C 0.329 0.29653 0.72569 0.0
C226 C 0.44527 0.34789 0.72085 0.0
C227 C 0.47092 0.30089 0.72817 0.0
C228 C 0.35582 0.25031 0.73325 0.0
C229 C 0.4264 0.25274 0.7345 0.0
C230 C 0.37438 0.3456 0.71987 0.0
C231 C 0.11588 0.11664 0.63093 0.0
C232 C 0.25324 0.29084 0.7217 0.0
C233 C 0.98077 0.37275 0.6993 0.0
C234 C 1.01141 0.38909 0.68082 0.0
C235 C 0.2486 0.10888 0.6725 0.0
C236 C 0.91448 0.89173 0.62202 0.0
C237 C 0.80173 0.82755 0.62515 0.0
C238 C 0.7692 0.86995 0.61724 0.0
C239 C 0.88104 0.93359 0.61405 0.0
C240 C 0.87429 0.83836 0.62718 0.0
C241 C 0.80871 0.92233 0.61156 0.0
C242 C 0.1111 0.09594 0.71387 0.0
C243 C 0.99146 0.90631 0.62727 0.0
H244 H 0.52531 0.3015 0.72906 0.0
H245 H 0.32219 0.21136 0.73767 0.0
H246 H 0.44643 0.2165 0.74004 0.0
H247 H 0.35368 0.38045 0.71356 0.0
H248 H 0.71333 0.86267 0.61552 0.0
H249 H 0.91071 0.9758 0.61024 0.0
H250 H 0.90023 0.80715 0.63394 0.0
H251 H 0.78339 0.95506 0.60563 0.0
C252 C 1.01188 0.40537 0.01026 0.0
C253 C 0.07303 0.38149 0.01158 0.0
C254 C 1.0115 0.47264 0.01012 0.0
C255 C 0.13324 0.65335 0.01296 0.0
H256 H 0.96058 0.70253 0.00785 0.0
C257 C 0.13222 0.94009 0.01215 0.0
C258 C 0.07105 0.96391 0.01072 0.0
C259 C 0.13255 0.87281 0.01228 0.0
C260 C 1.01072 0.69202 0.00933 0.0
H261 H 0.18397 0.42273 0.0144 0.0
H262 H 0.18362 0.53483 0.01424 0.0
H263 H 0.9609 0.59076 0.00809 0.0
H264 H 0.96002 0.92254 0.0077 0.0
H265 H 0.96031 0.81045 0.0079 0.0
H266 H 0.18306 0.7546 0.0142 0.0
C267 C 0.13373 0.50101 0.01303 0.0
C268 C 1.01091 0.62473 0.00948 0.0
C269 C 0.13399 0.43373 0.01311 0.0
C270 C 1.01002 0.9116 0.00909 0.0
C271 C 1.01025 0.84432 0.00918 0.0
C272 C 0.13306 0.72064 0.01282 0.0
C273 C 0.07243 0.52492 0.01146 0.0
C274 C 0.07218 0.60089 0.01131 0.0
C275 C 0.07157 0.82047 0.01085 0.0
C276 C 0.07179 0.74449 0.01099 0.0
H277 H 0.96256 0.3717 0.00956 0.0
H278 H 0.96146 0.48338 0.00901 0.0
H279 H 0.18339 0.64285 0.01445 0.0
H280 H 0.18159 0.97382 0.01294 0.0
H281 H 0.18261 0.86213 0.01348 0.0
C282 C 0.30923 0.11582 0.34831 0.0
C283 C 0.28393 0.16978 0.34662 0.0
C284 C 0.37993 0.11647 0.34786 0.0
C285 C 0.56073 0.23292 0.3544 0.0
H286 H 0.60655 0.06495 0.32636 0.0
C287 C 0.84623 0.22791 0.33966 0.0
C288 C 0.87166 0.1745 0.34194 0.0
C289 C 0.77577 0.22785 0.34035 0.0
C290 C 0.59555 0.11267 0.3346 0.0
H291 H 0.31592 0.26648 0.34254 0.0
H292 H 0.43741 0.26797 0.34189 0.0
H293 H 0.48527 0.06366 0.32736 0.0
H294 H 0.84032 0.07984 0.34756 0.0
H295 H 0.71909 0.07908 0.3484 0.0
H296 H 0.67111 0.28189 0.36155 0.0
C297 C 0.40324 0.22512 0.34403 0.0
C298 C 0.52494 0.11191 0.33521 0.0
C299 C 0.33258 0.2243 0.34439 0.0
C300 C 0.8235 0.12136 0.34513 0.0
C301 C 0.75303 0.12099 0.34563 0.0
C302 C 0.63135 0.23368 0.35376 0.0
C303 C 0.42892 0.17121 0.34573 0.0
C304 C 0.50555 0.17201 0.34514 0.0
C305 C 0.72718 0.17418 0.34325 0.0
C306 C 0.65068 0.17356 0.34386 0.0
H307 H 0.27428 0.07261 0.35001 0.0
H308 H 0.39618 0.07392 0.34952 0.0
H309 H 0.54981 0.28066 0.36268 0.0
H310 H 0.88093 0.27024 0.33734 0.0
H311 H 0.75929 0.26988 0.33825 0.0
C312 C 0.71522 0.7896 0.64878 0.0
C313 C 0.76154 0.77475 0.63288 0.0
C314 C 0.68264 0.74207 0.65811 0.0
C315 C 0.63515 0.5611 0.64797 0.0
H316 H 0.63434 0.62479 0.71869 0.0
C317 C 0.53554 0.37832 0.69708 0.0
C318 C 0.49091 0.39781 0.71318 0.0
C319 C 0.57331 0.42406 0.68799 0.0
C320 C 0.63366 0.60629 0.69888 0.0
H321 H 0.80797 0.69778 0.61347 0.0
H322 H 0.75117 0.61474 0.62988 0.0
H323 H 0.68694 0.70435 0.70031 0.0
H324 H 0.45329 0.4811 0.73329 0.0
H325 H 0.518 0.56038 0.71713 0.0
H326 H 0.58104 0.46316 0.64647 0.0
C327 C 0.74003 0.66305 0.63509 0.0
C328 C 0.66364 0.65187 0.68835 0.0
C329 C 0.77287 0.71069 0.62585 0.0
C330 C 0.48668 0.46446 0.72068 0.0
C331 C 0.52434 0.51007 0.71162 0.0
C332 C 0.60489 0.51549 0.65849 0.0
C333 C 0.69551 0.67869 0.65165 0.0
C334 C 0.66421 0.62987 0.66275 0.0
C335 C 0.56731 0.49017 0.69489 0.0
C336 C 0.60333 0.5377 0.68403 0.0
H337 H 0.70599 0.83877 0.65468 0.0
H338 H 0.64782 0.75516 0.67059 0.0
H339 H 0.63439 0.54282 0.62815 0.0
H340 H 0.53952 0.32716 0.69087 0.0
H341 H 0.60668 0.40749 0.67537 0.0
C342 C 0.88707 0.15934 0.6688 0.0
C343 C 0.91153 0.10617 0.6718 0.0
C344 C 0.81663 0.16002 0.66893 0.0
C345 C 0.63494 1.04764 0.66404 0.0
H346 H 0.59061 0.21781 0.68784 0.0
C347 C 0.35142 0.05964 0.67817 0.0
C348 C 0.32487 0.10935 0.67297 0.0
C349 C 0.42193 0.05943 0.67803 0.0
C350 C 0.60131 0.1695 0.68082 0.0
H351 H 0.8776 1.01087 0.67683 0.0
H352 H 0.75672 1.0121 0.67728 0.0
H353 H 0.71172 0.21694 0.68747 0.0
H354 H 0.35535 0.19963 0.66435 0.0
H355 H 0.47705 0.19961 0.66427 0.0
H356 H 0.52447 1.0003 0.65763 0.0
C357 C 0.79153 0.05369 0.67462 0.0
C358 C 0.67175 0.16894 0.68056 0.0
C359 C 0.86196 1.05314 0.67454 0.0
C360 C 0.37262 0.15991 0.66827 0.0
C361 C 0.44333 0.16012 0.66838 0.0
C362 C 0.5646 1.04822 0.66443 0.0
C363 C 0.76692 0.10727 0.67191 0.0
C364 C 0.69053 0.10798 0.67215 0.0
C365 C 0.46969 0.1096 0.67308 0.0
C366 C 0.54593 0.10914 0.6728 0.0
H367 H 0.92226 0.20052 0.66604 0.0
H368 H 0.80109 0.20186 0.66622 0.0
H369 H 0.64525 0.9992 0.65688 0.0
H370 H 0.31783 1.02078 0.6826 0.0
H371 H 0.4392 1.02013 0.68227 0.0
C372 C 0.78477 0.76979 0.97731 0.0
C373 C 0.76559 0.81599 0.96767 0.0
C374 C 0.73818 0.73406 0.98759 0.0
C375 C 0.58248 0.7403 0.01508 0.0
H376 H 0.5625 0.55072 0.00177 0.0
C377 C 0.36395 0.57416 0.04264 0.0
C378 C 0.38248 0.52814 0.05252 0.0
C379 C 0.4113 0.60983 0.03258 0.0
C380 C 0.56808 0.60384 0.00588 0.0
H381 H 0.682 0.85953 0.96055 0.0
H382 H 0.60057 0.79696 0.97835 0.0
H383 H 0.64401 0.61116 0.98331 0.0
H384 H 0.46566 0.48463 0.06019 0.0
H385 H 0.54839 0.54698 0.04268 0.0
H386 H 0.50645 0.73294 0.0376 0.0
C387 C 0.65205 0.78929 0.97842 0.0
C388 C 0.61475 0.63844 -0.00469 0.0
C389 C 0.69861 0.82502 0.96819 0.0
C390 C 0.44955 0.51902 0.05237 0.0
C391 C 0.49686 0.55465 0.04232 0.0
C392 C 0.53579 0.7057 0.02563 0.0
C393 C 0.67146 0.74376 0.98839 0.0
C394 C 0.62235 0.70701 -0.00024 0.0
C395 C 0.47815 0.60019 0.03221 0.0
C396 C 0.52803 0.63708 0.02112 0.0
H397 H 0.83637 0.76241 0.97742 0.0
H398 H 0.75498 0.69992 -0.00461 0.0
H399 H 0.58801 0.79341 0.01919 0.0
H400 H 0.31229 0.58154 0.04218 0.0
H401 H 0.39503 0.64392 0.02463 0.0
C402 C 0.96344 0.55994 0.40877 0.0
C403 C 0.91843 0.49584 0.39385 0.0
C404 C 0.9874 0.60661 0.39789 0.0
C405 C 1.03108 0.59036 0.338 0.0
H406 H 0.09827 0.78556 0.3661 0.0
C407 C 0.15692 0.75827 0.28747 0.0
C408 C 0.20484 0.82096 0.30222 0.0
C409 C 0.1283 0.71364 0.29856 0.0
C410 C 0.08087 0.73093 0.35829 0.0
H411 H 0.85369 0.43409 0.35717 0.0
H412 H 0.89375 0.5165 0.33825 0.0
H413 H 1.01862 0.72631 0.38548 0.0
H414 H 0.26758 0.88274 0.33923 0.0
H415 H 0.21907 0.80379 0.35859 0.0
H416 H 0.0936 0.59488 0.31091 0.0
C417 C 0.91229 0.53 0.35811 0.0
C418 C 1.03456 0.69718 0.3692 0.0
C419 C 0.88829 0.48338 0.36903 0.0
C420 C 0.23115 0.83433 0.32747 0.0
C421 C 0.20233 0.7898 0.33861 0.0
C422 C 0.07737 0.62408 0.3271 0.0
C423 C 0.96619 0.58956 0.37202 0.0
C424 C 1.0091 0.62655 0.35914 0.0
C425 C 0.14732 0.7313 0.32454 0.0
C426 C 0.10292 0.69469 0.33717 0.0
H427 H 0.9875 0.57026 0.42795 0.0
H428 H 1.02854 0.6523 0.40915 0.0
H429 H 1.01403 0.53572 0.33024 0.0
H430 H 0.13546 0.74747 0.268 0.0
H431 H 0.08619 0.66885 0.2872 0.0
C432 C 0.11704 0.17766 0.26518 0.0
C433 C 0.07348 0.20467 0.28045 0.0
C434 C 0.11543 0.1819 0.24155 0.0
C435 C 1.00056 0.19253 0.18963 0.0
H436 H 0.17223 0.24176 0.16726 0.0
C437 C 1.01184 0.13708 0.0849 0.0
C438 C 0.05292 0.18923 0.07915 0.0
C439 C 1.0128 0.14311 0.10982 0.0
C440 C 0.12376 0.22821 0.17322 0.0
H441 H 0.99409 0.25768 0.28276 0.0
H442 H 0.99022 0.26399 0.24106 0.0
H443 H 0.17783 0.24713 0.2103 0.0
H444 H 0.12757 0.28865 0.09551 0.0
H445 H 0.13068 0.29831 0.1388 0.0
H446 H 0.94658 0.17207 0.15233 0.0
C447 C 1.02609 0.23995 0.2476 0.0
C448 C 0.12699 0.23094 0.19787 0.0
C449 C 1.02868 0.23684 0.27155 0.0
C450 C 0.0954 0.24732 0.09908 0.0
C451 C 0.09725 0.25289 0.12397 0.0
C452 C 0.99737 0.18868 0.16482 0.0
C453 C 0.06931 0.21225 0.23226 0.0
C454 C 0.06547 0.21294 0.2064 0.0
C455 C 0.05591 0.20091 0.12971 0.0
C456 C 0.05895 0.20631 0.15627 0.0
H457 H 0.15225 0.15257 0.27143 0.0
H458 H 0.14902 0.15961 0.23022 0.0
H459 H 0.95222 0.17779 0.1955 0.0
H460 H 0.97961 0.09094 0.07015 0.0
H461 H 0.98103 0.10169 0.11352 0.0
C462 C 0.12567 0.09433 0.41436 0.0
C463 C 0.09487 0.14083 0.4086 0.0
C464 C 0.12902 0.08887 0.43798 0.0
C465 C 0.12828 0.18643 0.5035 0.0
H466 H 0.0762 1.01313 0.5109 0.0
C467 C 0.05816 0.07515 0.58517 0.0
C468 C 0.11422 0.11801 0.60525 0.0
C469 C 0.05748 0.07564 0.56097 0.0
C470 C 0.09075 0.06194 0.50915 0.0
H471 H 1.04313 0.21773 0.42357 0.0
H472 H 0.05047 0.20921 0.46441 0.0
H473 H 0.07281 1.01785 0.46909 0.0
H474 H 0.21524 0.19252 0.61498 0.0
H475 H 0.21283 0.19507 0.5732 0.0
H476 H 0.14608 0.23069 0.54341 0.0
C477 C 0.07214 0.17695 0.45075 0.0
C478 C 0.08944 0.0646 0.48519 0.0
C479 C 0.06794 0.18175 0.42716 0.0
C480 C 0.16993 0.16062 0.60032 0.0
C481 C 0.16885 0.1617 0.57623 0.0
C482 C 0.13048 0.18377 0.5274 0.0
C483 C 0.1028 0.13062 0.45656 0.0
C484 C 0.10753 0.12696 0.48204 0.0
C485 C 0.1126 0.11932 0.5562 0.0
C486 C 0.11128 0.12155 0.53059 0.0
H487 H 0.14793 0.06268 0.40075 0.0
H488 H 0.1535 1.05298 0.44189 0.0
H489 H 0.14312 0.23533 0.50182 0.0
H490 H 1.01454 1.04123 0.58813 0.0
H491 H 1.01311 1.04259 0.54605 0.0
C492 C 0.17036 0.1259 0.7586 0.0
C493 C 0.10904 0.09756 0.73965 0.0
C494 C 0.16802 0.12943 0.78308 0.0
C495 C 0.05897 0.14899 0.8285 0.0
H496 H 0.17102 0.06731 0.86211 0.0
C497 C 0.1152 0.20856 0.9362 0.0
C498 C 0.09432 0.15207 0.94296 0.0
C499 C 0.11562 0.20056 0.9112 0.0
C500 C 0.13951 0.09037 0.85294 0.0
H501 H 0.99705 1.05155 0.73169 0.0
H502 H 0.99266 0.06019 0.77477 0.0
H503 H 0.17485 0.05579 0.8187 0.0
H504 H 0.05894 1.04286 0.92881 0.0
H505 H 0.06251 1.02888 0.88523 0.0
H506 H 1.02557 0.18562 0.86303 0.0
C507 C 1.04265 0.07839 0.77047 0.0
C508 C 0.14185 0.08395 0.82817 0.0
C509 C 1.04526 0.07313 0.74582 0.0
C510 C 0.075 0.08735 0.92419 0.0
C511 C 0.07726 0.07932 0.89928 0.0
C512 C 0.05809 0.15695 0.85349 0.0
C513 C 0.10404 0.10646 0.78936 0.0
C514 C 0.10133 0.1129 0.81563 0.0
C515 C 0.09702 0.13585 0.89248 0.0
C516 C 0.0981 0.12747 0.86595 0.0
H517 H 0.22032 0.14512 0.75447 0.0
H518 H 0.21608 0.15152 0.79728 0.0
H519 H 1.02748 0.17208 0.81934 0.0
H520 H 0.12995 0.25907 0.95021 0.0
H521 H 0.13123 0.24499 0.9065 0.0
loop_
_geom_bond_atom_site_label_1
_geom_bond_atom_site_label_2
_geom_bond_distance
_geom_bond_site_symmetry_2
_ccdc_geom_bond_type
Tb0 N29 2.617 1_554 S
Tb0 N35 2.572 . S
Tb0 O44 2.465 . S
Tb0 O45 2.387 . S
Tb0 O47 2.428 1_544 S
Tb0 O48 2.308 . S
Tb0 O52 2.349 . S
Tb0 O55 2.393 1_554 S
Tb0 C64 2.802 1_544 S
C1 N2 1.379 . S
C1 C4 1.416 . S
C1 C8 1.424 . S
N2 C1 1.379 . S
N2 C5 1.334 . S
N2 Tb11 2.617 . S
C3 C5 1.390 . S
C3 C6 1.339 . S
C3 H23 0.930 . S
C4 C1 1.416 . S
C4 C6 1.416 . S
C4 C10 1.448 . S
C5 N2 1.334 . S
C5 C3 1.390 . S
C5 H16 0.930 . S
C6 C3 1.339 . S
C6 C4 1.416 . S
C6 H27 0.930 . S
C7 C8 1.413 . S
C7 C9 1.427 . S
C7 C13 1.416 1_554 S
C8 C1 1.424 . S
C8 C7 1.413 . S
C8 N12 1.361 . S
C9 C7 1.427 . S
C9 C10 1.328 . S
C9 H24 0.929 . S
C10 C4 1.448 . S
C10 C9 1.328 . S
C10 H25 0.930 . S
Tb11 N2 2.617 . S
Tb11 N12 2.572 . S
Tb11 O46 2.349 . S
Tb11 O49 2.393 . S
Tb11 O50 2.465 . S
Tb11 O51 2.387 . S
Tb11 O53 2.428 . S
Tb11 O54 2.308 1_554 S
Tb11 C75 2.802 . S
N12 C8 1.361 . S
N12 Tb11 2.572 . S
N12 C14 1.340 1_554 S
C13 C7 1.416 1_556 S
C13 C15 1.332 . S
C13 H21 0.931 . S
C14 N12 1.340 1_556 S
C14 C15 1.407 . S
C14 H20 0.930 . S
C15 C13 1.332 . S
C15 C14 1.407 . S
C15 H17 0.929 . S
H16 C5 0.930 . S
H17 C15 0.929 . S
H18 C33 0.930 . S
H19 C40 0.929 . S
H20 C14 0.930 . S
H21 C13 0.931 . S
H22 C36 0.930 . S
H23 C3 0.930 . S
H24 C9 0.929 . S
H25 C10 0.930 . S
H26 C31 0.930 . S
H27 C6 0.930 . S
H28 C39 0.931 . S
N29 Tb0 2.617 1_556 S
N29 C30 1.379 . S
N29 C33 1.334 . S
C30 N29 1.379 . S
C30 C32 1.416 . S
C30 C38 1.424 1_556 S
C31 H26 0.930 . S
C31 C33 1.390 . S
C31 C34 1.339 . S
C32 C30 1.416 . S
C32 C34 1.416 . S
C32 C65 1.448 . S
C33 H18 0.930 . S
C33 N29 1.334 . S
C33 C31 1.390 . S
C34 C31 1.339 . S
C34 C32 1.416 . S
C34 H41 0.930 . S
N35 Tb0 2.572 . S
N35 C36 1.340 . S
N35 C38 1.361 . S
C36 H22 0.930 . S
C36 N35 1.340 . S
C36 C40 1.407 . S
C37 C38 1.413 . S
C37 C39 1.416 . S
C37 C66 1.427 1_554 S
C38 C30 1.424 1_554 S
C38 N35 1.361 . S
C38 C37 1.413 . S
C39 H28 0.931 . S
C39 C37 1.416 . S
C39 C40 1.332 . S
C40 H19 0.929 . S
C40 C36 1.407 . S
C40 C39 1.332 . S
H41 C34 0.930 . S
H42 C65 0.930 . S
H43 C66 0.929 . S
O44 Tb0 2.465 . S
O44 C64 1.264 1_544 S
O45 Tb0 2.387 . S
O45 C56 1.264 . S
O46 Tb11 2.349 . S
O46 C56 1.243 1_455 S
O47 Tb0 2.428 1_566 S
O47 C64 1.256 . S
O48 Tb0 2.308 . S
O48 C63 1.266 1_655 S
O49 Tb11 2.393 . S
O49 C63 1.248 . S
O50 Tb11 2.465 . S
O50 C75 1.264 . S
O51 Tb11 2.387 . S
O51 C67 1.264 . S
O52 Tb0 2.349 . S
O52 C67 1.243 1_655 S
O53 Tb11 2.428 . S
O53 C75 1.256 . S
O54 Tb11 2.308 1_556 S
O54 C74 1.266 . S
O55 Tb0 2.393 1_556 S
O55 C74 1.248 1_655 S
C56 O45 1.264 . S
C56 O46 1.243 1_655 S
C57 C60 1.399 . S
C57 C62 1.383 1_556 S
C57 C64 1.496 . S
C58 C59 1.399 1_554 S
C58 C62 1.389 . S
C59 C58 1.399 1_556 S
C59 C61 1.380 . S
C59 H76 0.929 . S
C60 C57 1.399 . S
C60 C61 1.392 . S
C60 H77 0.929 . S
C61 C59 1.380 . S
C61 C60 1.392 . S
C61 H78 0.929 . S
C62 C57 1.383 1_554 S
C62 C58 1.389 . S
C62 H79 0.931 . S
C63 O48 1.266 1_455 S
C63 O49 1.248 . S
C64 Tb0 2.802 1_566 S
C64 O44 1.264 1_566 S
C64 O47 1.256 . S
C64 C57 1.496 . S
C65 C32 1.448 . S
C65 H42 0.930 . S
C65 C66 1.328 . S
C66 C37 1.427 1_556 S
C66 H43 0.929 . S
C66 C65 1.328 . S
C67 O51 1.264 . S
C67 O52 1.243 1_455 S
C68 C71 1.399 . S
C68 C72 1.383 . S
C68 C75 1.496 . S
C69 C70 1.399 . S
C69 C72 1.389 . S
C70 C69 1.399 . S
C70 C73 1.380 . S
C70 H80 0.929 . S
C71 C68 1.399 . S
C71 C73 1.392 . S
C71 H81 0.929 . S
C72 C68 1.383 . S
C72 C69 1.389 . S
C72 H82 0.931 1_554 S
C73 C70 1.380 . S
C73 C71 1.392 . S
C73 H83 0.929 . S
C74 O54 1.266 . S
C74 O55 1.248 1_455 S
C75 Tb11 2.802 . S
C75 O50 1.264 . S
C75 O53 1.256 . S
C75 C68 1.496 . S
H76 C59 0.929 . S
H77 C60 0.929 . S
H78 C61 0.929 . S
H79 C62 0.931 . S
H80 C70 0.929 . S
H81 C71 0.929 . S
H82 C72 0.931 1_556 S
H83 C73 0.929 . S
Tb84 N113 2.617 1_545 S
Tb84 N119 2.572 1_545 S
Tb84 O128 2.465 1_645 S
Tb84 O129 2.387 . S
Tb84 O131 2.428 1_645 S
Tb84 O132 2.308 1_655 S
Tb84 O136 2.349 1_655 S
Tb84 O139 2.393 1_655 S
Tb84 C148 2.802 1_645 S
C85 N86 1.379 . S
C85 C88 1.416 . S
C85 C92 1.424 . S
N86 C85 1.379 . S
N86 C89 1.334 . S
N86 Tb95 2.617 . S
C87 C89 1.390 . S
C87 C90 1.339 . S
C87 H107 0.930 . S
C88 C85 1.416 . S
C88 C90 1.416 . S
C88 C94 1.448 . S
C89 N86 1.334 . S
C89 C87 1.390 . S
C89 H100 0.930 . S
C90 C87 1.339 . S
C90 C88 1.416 . S
C90 H111 0.930 . S
C91 C92 1.413 . S
C91 C93 1.427 . S
C91 C97 1.416 . S
C92 C85 1.424 . S
C92 C91 1.413 . S
C92 N96 1.361 . S
C93 C91 1.427 . S
C93 C94 1.328 . S
C93 H108 0.929 . S
C94 C88 1.448 . S
C94 C93 1.328 . S
C94 H109 0.930 . S
Tb95 N86 2.617 . S
Tb95 N96 2.572 . S
Tb95 O130 2.349 1_455 S
Tb95 O133 2.393 . S
Tb95 O134 2.465 . S
Tb95 O135 2.387 . S
Tb95 O137 2.428 . S
Tb95 O138 2.308 . S
Tb95 C159 2.802 . S
N96 C92 1.361 . S
N96 Tb95 2.572 . S
N96 C98 1.340 . S
C97 C91 1.416 . S
C97 C99 1.332 . S
C97 H105 0.931 . S
C98 N96 1.340 . S
C98 C99 1.407 . S
C98 H104 0.930 . S
C99 C97 1.332 . S
C99 C98 1.407 . S
C99 H101 0.929 . S
H100 C89 0.930 . S
H101 C99 0.929 . S
H102 C117 0.930 1_545 S
H103 C124 0.929 . S
H104 C98 0.930 . S
H105 C97 0.931 . S
H106 C120 0.930 1_545 S
H107 C87 0.930 . S
H108 C93 0.929 . S
H109 C94 0.930 . S
H110 C115 0.930 . S
H111 C90 0.930 . S
H112 C123 0.931 . S
N113 Tb84 2.617 1_565 S
N113 C114 1.379 . S
N113 C117 1.334 . S
C114 N113 1.379 . S
C114 C116 1.416 . S
C114 C122 1.424 . S
C115 H110 0.930 . S
C115 C117 1.390 . S
C115 C118 1.339 . S
C116 C114 1.416 . S
C116 C118 1.416 . S
C116 C149 1.448 . S
C117 H102 0.930 1_565 S
C117 N113 1.334 . S
C117 C115 1.390 . S
C118 C115 1.339 . S
C118 C116 1.416 . S
C118 H125 0.930 . S
N119 Tb84 2.572 1_565 S
N119 C120 1.340 . S
N119 C122 1.361 . S
C120 H106 0.930 1_565 S
C120 N119 1.340 . S
C120 C124 1.407 . S
C121 C122 1.413 . S
C121 C123 1.416 . S
C121 C150 1.427 . S
C122 C114 1.424 . S
C122 N119 1.361 . S
C122 C121 1.413 . S
C123 H112 0.931 . S
C123 C121 1.416 . S
C123 C124 1.332 . S
C124 H103 0.929 . S
C124 C120 1.407 . S
C124 C123 1.332 . S
H125 C118 0.930 . S
H126 C149 0.930 . S
H127 C150 0.929 . S
O128 Tb84 2.465 1_465 S
O128 C148 1.264 . S
O129 Tb84 2.387 . S
O129 C140 1.264 . S
O130 Tb95 2.349 1_655 S
O130 C140 1.243 . S
O131 Tb84 2.428 1_465 S
O131 C148 1.256 . S
O132 Tb84 2.308 1_455 S
O132 C147 1.266 . S
O133 Tb95 2.393 . S
O133 C147 1.248 . S
O134 Tb95 2.465 . S
O134 C159 1.264 . S
O135 Tb95 2.387 . S
O135 C151 1.264 . S
O136 Tb84 2.349 1_455 S
O136 C151 1.243 . S
O137 Tb95 2.428 . S
O137 C159 1.256 . S
O138 Tb95 2.308 . S
O138 C158 1.266 . S
O139 Tb84 2.393 1_455 S
O139 C158 1.248 . S
C140 O129 1.264 . S
C140 O130 1.243 . S
C141 C144 1.399 . S
C141 C146 1.383 . S
C141 C148 1.496 . S
C142 C143 1.399 . S
C142 C146 1.389 . S
C143 C142 1.399 . S
C143 C145 1.380 . S
C143 H160 0.929 . S
C144 C141 1.399 . S
C144 C145 1.392 . S
C144 H161 0.929 . S
C145 C143 1.380 . S
C145 C144 1.392 . S
C145 H162 0.929 . S
C146 C141 1.383 . S
C146 C142 1.389 . S
C146 H163 0.931 . S
C147 O132 1.266 . S
C147 O133 1.248 . S
C148 Tb84 2.802 1_465 S
C148 O128 1.264 . S
C148 O131 1.256 . S
C148 C141 1.496 . S
C149 C116 1.448 . S
C149 H126 0.930 . S
C149 C150 1.328 . S
C150 C121 1.427 . S
C150 H127 0.929 . S
C150 C149 1.328 . S
C151 O135 1.264 . S
C151 O136 1.243 . S
C152 C155 1.399 . S
C152 C156 1.383 . S
C152 C159 1.496 . S
C153 C154 1.399 . S
C153 C156 1.389 . S
C154 C153 1.399 . S
C154 C157 1.380 . S
C154 H164 0.932 . S
C155 C152 1.399 . S
C155 C157 1.392 . S
C155 H165 0.929 . S
C156 C152 1.383 . S
C156 C153 1.389 . S
C156 H166 0.931 . S
C157 C154 1.380 . S
C157 C155 1.392 . S
C157 H167 0.929 . S
C158 O138 1.266 . S
C158 O139 1.248 . S
C159 Tb95 2.802 . S
C159 O134 1.264 . S
C159 O137 1.256 . S
C159 C152 1.496 . S
H160 C143 0.929 . S
H161 C144 0.929 . S
H162 C145 0.929 . S
H163 C146 0.931 . S
H164 C154 0.932 . S
H165 C155 0.929 . S
H166 C156 0.931 . S
H167 C157 0.929 . S
Tb168 N197 2.617 . S
Tb168 N203 2.572 . S
Tb168 O212 2.465 . S
Tb168 O213 2.387 . S
Tb168 O215 2.428 . S
Tb168 O216 2.308 . S
Tb168 O220 2.349 . S
Tb168 O223 2.393 . S
Tb168 C232 2.802 . S
C169 N170 1.379 . S
C169 C172 1.416 . S
C169 C176 1.424 . S
N170 C169 1.379 . S
N170 C173 1.334 . S
N170 Tb179 2.617 . S
C171 C173 1.390 . S
C171 C174 1.339 . S
C171 H191 0.930 . S
C172 C169 1.416 . S
C172 C174 1.416 . S
C172 C178 1.448 . S
C173 N170 1.334 . S
C173 C171 1.390 . S
C173 H184 0.930 . S
C174 C171 1.339 . S
C174 C172 1.416 . S
C174 H195 0.930 . S
C175 C176 1.413 . S
C175 C177 1.427 . S
C175 C181 1.416 . S
C176 C169 1.424 . S
C176 C175 1.413 . S
C176 N180 1.361 . S
C177 C175 1.427 . S
C177 C178 1.328 . S
C177 H192 0.929 . S
C178 C172 1.448 . S
C178 C177 1.328 . S
C178 H193 0.930 . S
Tb179 N170 2.617 . S
Tb179 N180 2.572 . S
Tb179 O214 2.349 1_455 S
Tb179 O217 2.393 . S
Tb179 O218 2.465 1_455 S
Tb179 O219 2.387 . S
Tb179 O221 2.428 1_455 S
Tb179 O222 2.308 . S
Tb179 C243 2.802 1_455 S
N180 C176 1.361 . S
N180 Tb179 2.572 . S
N180 C182 1.340 . S
C181 C175 1.416 . S
C181 C183 1.332 . S
C181 H189 0.931 . S
C182 N180 1.340 . S
C182 C183 1.407 . S
C182 H188 0.930 . S
C183 C181 1.332 . S
C183 C182 1.407 . S
C183 H185 0.929 . S
H184 C173 0.930 . S
H185 C183 0.929 . S
H186 C201 0.930 . S
H187 C208 0.929 1_655 S
H188 C182 0.930 . S
H189 C181 0.931 . S
H190 C204 0.930 . S
H191 C171 0.930 . S
H192 C177 0.929 . S
H193 C178 0.930 . S
H194 C199 0.930 . S
H195 C174 0.930 . S
H196 C207 0.931 . S
N197 Tb168 2.617 . S
N197 C198 1.379 . S
N197 C201 1.334 . S
C198 N197 1.379 . S
C198 C200 1.416 . S
C198 C206 1.424 . S
C199 H194 0.930 . S
C199 C201 1.390 . S
C199 C202 1.339 . S
C200 C198 1.416 . S
C200 C202 1.416 . S
C200 C233 1.448 1_455 S
C201 H186 0.930 . S
C201 N197 1.334 . S
C201 C199 1.390 . S
C202 C199 1.339 . S
C202 C200 1.416 . S
C202 H209 0.930 . S
N203 Tb168 2.572 . S
N203 C204 1.340 . S
N203 C206 1.361 . S
C204 H190 0.930 . S
C204 N203 1.340 . S
C204 C208 1.407 . S
C205 C206 1.413 1_655 S
C205 C207 1.416 . S
C205 C234 1.427 . S
C206 C198 1.424 . S
C206 N203 1.361 . S
C206 C205 1.413 1_455 S
C207 H196 0.931 . S
C207 C205 1.416 . S
C207 C208 1.332 1_655 S
C208 H187 0.929 1_455 S
C208 C204 1.407 . S
C208 C207 1.332 1_455 S
H209 C202 0.930 . S
H210 C233 0.930 . S
H211 C234 0.929 . S
O212 Tb168 2.465 . S
O212 C232 1.264 . S
O213 Tb168 2.387 . S
O213 C224 1.264 1_455 S
O214 Tb179 2.349 1_655 S
O214 C224 1.243 1_565 S
O215 Tb168 2.428 . S
O215 C232 1.256 . S
O216 Tb168 2.308 . S
O216 C231 1.266 . S
O217 Tb179 2.393 . S
O217 C231 1.248 1_565 S
O218 Tb179 2.465 1_655 S
O218 C243 1.264 . S
O219 Tb179 2.387 . S
O219 C235 1.264 1_565 S
O220 Tb168 2.349 . S
O220 C235 1.243 . S
O221 Tb179 2.428 1_655 S
O221 C243 1.256 . S
O222 Tb179 2.308 . S
O222 C242 1.266 1_565 S
O223 Tb168 2.393 . S
O223 C242 1.248 . S
C224 O213 1.264 1_655 S
C224 O214 1.243 1_545 S
C225 C228 1.399 . S
C225 C230 1.383 . S
C225 C232 1.496 . S
C226 C227 1.399 . S
C226 C230 1.389 . S
C227 C226 1.399 . S
C227 C229 1.380 . S
C227 H244 0.929 . S
C228 C225 1.399 . S
C228 C229 1.392 . S
C228 H245 0.929 . S
C229 C227 1.380 . S
C229 C228 1.392 . S
C229 H246 0.929 . S
C230 C225 1.383 . S
C230 C226 1.389 . S
C230 H247 0.931 . S
C231 O216 1.266 . S
C231 O217 1.248 1_545 S
C232 Tb168 2.802 . S
C232 O212 1.264 . S
C232 O215 1.256 . S
C232 C225 1.496 . S
C233 C200 1.448 1_655 S
C233 H210 0.930 . S
C233 C234 1.328 . S
C234 C205 1.427 . S
C234 H211 0.929 . S
C234 C233 1.328 . S
C235 O219 1.264 1_545 S
C235 O220 1.243 . S
C236 C239 1.399 . S
C236 C240 1.383 . S
C236 C243 1.496 . S
C237 C238 1.399 . S
C237 C240 1.389 . S
C238 C237 1.399 . S
C238 C241 1.380 . S
C238 H248 0.929 . S
C239 C236 1.399 . S
C239 C241 1.392 . S
C239 H249 0.929 . S
C240 C236 1.383 . S
C240 C237 1.389 . S
C240 H250 0.931 . S
C241 C238 1.380 . S
C241 C239 1.392 . S
C241 H251 0.929 . S
C242 O222 1.266 1_545 S
C242 O223 1.248 . S
C243 Tb179 2.802 1_655 S
C243 O218 1.264 . S
C243 O221 1.256 . S
C243 C236 1.496 . S
H244 C227 0.929 . S
H245 C228 0.929 . S
H246 C229 0.929 . S
H247 C230 0.931 . S
H248 C238 0.929 . S
H249 C239 0.929 . S
H250 C240 0.931 . S
H251 C241 0.929 . S
C252 C253 1.349 . S
C252 C254 1.327 . S
C252 H277 0.950 1_554 S
C253 C252 1.349 . S
C253 C269 1.349 1_655 S
C254 C252 1.327 . S
C254 C273 1.422 1_655 S
C254 H278 0.950 1_554 S
C255 C272 1.574 . S
C255 C274 1.368 . S
C255 H279 0.949 . S
H256 C260 0.949 . S
C257 C258 1.349 . S
C257 C259 1.327 . S
C257 H280 0.950 . S
C258 C257 1.349 . S
C258 C270 1.349 1_454 S
C259 C257 1.327 . S
C259 C275 1.429 . S
C259 H281 0.950 . S
C260 H256 0.949 . S
C260 C268 1.571 1_556 S
C260 C276 1.368 1_656 S
H261 C269 0.950 . S
H262 C267 0.950 . S
H263 C268 0.948 1_556 S
H264 C270 0.950 . S
H265 C271 0.950 . S
H266 C272 0.949 . S
C267 H262 0.950 . S
C267 C269 1.327 . S
C267 C273 1.439 . S
C268 C260 1.571 1_554 S
C268 H263 0.948 1_554 S
C268 C274 1.373 1_655 S
C269 C253 1.349 1_455 S
C269 H261 0.950 . S
C269 C267 1.327 . S
C270 C258 1.349 1_656 S
C270 H264 0.950 . S
C270 C271 1.327 . S
C271 H265 0.950 . S
C271 C270 1.327 . S
C271 C275 1.429 1_656 S
C272 C255 1.574 . S
C272 H266 0.949 . S
C272 C276 1.368 . S
C273 C254 1.422 1_455 S
C273 C267 1.439 . S
C273 C274 1.519 . S
C274 C255 1.368 . S
C274 C268 1.373 1_455 S
C274 C273 1.519 . S
C275 C259 1.429 . S
C275 C271 1.429 1_454 S
C275 C276 1.523 . S
C276 C260 1.368 1_454 S
C276 C272 1.368 . S
C276 C275 1.523 . S
H277 C252 0.950 1_556 S
H278 C254 0.950 1_556 S
H279 C255 0.949 . S
H280 C257 0.950 . S
H281 C259 0.950 . S
C282 C283 1.349 . S
C282 C284 1.327 . S
C282 H307 0.950 . S
C283 C282 1.349 . S
C283 C299 1.349 . S
C284 C282 1.327 . S
C284 C303 1.429 . S
C284 H308 0.950 . S
C285 C302 1.574 . S
C285 C304 1.368 . S
C285 H309 0.949 . S
H286 C290 0.949 . S
C287 C288 1.349 . S
C287 C289 1.327 . S
C287 H310 0.950 . S
C288 C287 1.349 . S
C288 C300 1.349 . S
C289 C287 1.327 . S
C289 C305 1.429 . S
C289 H311 0.950 . S
C290 H286 0.949 . S
C290 C298 1.574 . S
C290 C306 1.368 . S
H291 C299 0.950 . S
H292 C297 0.950 . S
H293 C298 0.949 . S
H294 C300 0.950 . S
H295 C301 0.950 . S
H296 C302 0.949 . S
C297 H292 0.950 . S
C297 C299 1.327 . S
C297 C303 1.429 . S
C298 C290 1.574 . S
C298 H293 0.949 . S
C298 C304 1.368 . S
C299 C283 1.349 . S
C299 H291 0.950 . S
C299 C297 1.327 . S
C300 C288 1.349 . S
C300 H294 0.950 . S
C300 C301 1.327 . S
C301 H295 0.950 . S
C301 C300 1.327 . S
C301 C305 1.429 . S
C302 C285 1.574 . S
C302 H296 0.949 . S
C302 C306 1.368 . S
C303 C284 1.429 . S
C303 C297 1.429 . S
C303 C304 1.523 . S
C304 C285 1.368 . S
C304 C298 1.368 . S
C304 C303 1.523 . S
C305 C289 1.429 . S
C305 C301 1.429 . S
C305 C306 1.523 . S
C306 C290 1.368 . S
C306 C302 1.368 . S
C306 C305 1.523 . S
H307 C282 0.950 . S
H308 C284 0.950 . S
H309 C285 0.949 . S
H310 C287 0.950 . S
H311 C289 0.950 . S
C312 C313 1.349 . S
C312 C314 1.327 . S
C312 H337 0.950 . S
C313 C312 1.349 . S
C313 C329 1.349 . S
C314 C312 1.327 . S
C314 C333 1.429 . S
C314 H338 0.950 . S
C315 C332 1.574 . S
C315 C334 1.368 . S
C315 H339 0.949 . S
H316 C320 0.949 . S
C317 C318 1.349 . S
C317 C319 1.327 . S
C317 H340 0.950 . S
C318 C317 1.349 . S
C318 C330 1.349 . S
C319 C317 1.327 . S
C319 C335 1.429 . S
C319 H341 0.950 . S
C320 H316 0.949 . S
C320 C328 1.574 . S
C320 C336 1.368 . S
H321 C329 0.950 . S
H322 C327 0.950 . S
H323 C328 0.949 . S
H324 C330 0.950 . S
H325 C331 0.950 . S
H326 C332 0.949 . S
C327 H322 0.950 . S
C327 C329 1.327 . S
C327 C333 1.429 . S
C328 C320 1.574 . S
C328 H323 0.949 . S
C328 C334 1.368 . S
C329 C313 1.349 . S
C329 H321 0.950 . S
C329 C327 1.327 . S
C330 C318 1.349 . S
C330 H324 0.950 . S
C330 C331 1.327 . S
C331 H325 0.950 . S
C331 C330 1.327 . S
C331 C335 1.429 . S
C332 C315 1.574 . S
C332 H326 0.949 . S
C332 C336 1.368 . S
C333 C314 1.429 . S
C333 C327 1.429 . S
C333 C334 1.523 . S
C334 C315 1.368 . S
C334 C328 1.368 . S
C334 C333 1.523 . S
C335 C319 1.429 . S
C335 C331 1.429 . S
C335 C336 1.523 . S
C336 C320 1.368 . S
C336 C332 1.368 . S
C336 C335 1.523 . S
H337 C312 0.950 . S
H338 C314 0.950 . S
H339 C315 0.949 . S
H340 C317 0.950 . S
H341 C319 0.950 . S
C342 C343 1.349 . S
C342 C344 1.327 . S
C342 H367 0.950 . S
C343 C342 1.349 . S
C343 C359 1.349 1_545 S
C344 C342 1.327 . S
C344 C363 1.429 . S
C344 H368 0.950 . S
C345 C362 1.574 . S
C345 C364 1.368 1_565 S
C345 H369 0.949 . S
H346 C350 0.949 . S
C347 C348 1.349 1_565 S
C347 C349 1.327 . S
C347 H370 0.950 . S
C348 C347 1.349 1_545 S
C348 C360 1.349 . S
C349 C347 1.327 . S
C349 C365 1.429 1_565 S
C349 H371 0.950 . S
C350 H346 0.949 . S
C350 C358 1.574 . S
C350 C366 1.368 . S
H351 C359 0.950 . S
H352 C357 0.950 . S
H353 C358 0.949 . S
H354 C360 0.950 . S
H355 C361 0.950 . S
H356 C362 0.949 . S
C357 H352 0.950 . S
C357 C359 1.327 . S
C357 C363 1.429 1_565 S
C358 C350 1.574 . S
C358 H353 0.949 . S
C358 C364 1.368 . S
C359 C343 1.349 1_565 S
C359 H351 0.950 . S
C359 C357 1.327 . S
C360 C348 1.349 . S
C360 H354 0.950 . S
C360 C361 1.327 . S
C361 H355 0.950 . S
C361 C360 1.327 . S
C361 C365 1.429 . S
C362 C345 1.574 . S
C362 H356 0.949 . S
C362 C366 1.368 1_565 S
C363 C344 1.429 . S
C363 C357 1.429 1_545 S
C363 C364 1.523 . S
C364 C345 1.368 1_545 S
C364 C358 1.368 . S
C364 C363 1.523 . S
C365 C349 1.429 1_545 S
C365 C361 1.429 . S
C365 C366 1.523 . S
C366 C350 1.368 . S
C366 C362 1.368 1_545 S
C366 C365 1.523 . S
H367 C342 0.950 . S
H368 C344 0.950 . S
H369 C345 0.949 . S
H370 C347 0.950 . S
H371 C349 0.950 . S
C372 C373 1.349 . S
C372 C374 1.327 . S
C372 H397 0.950 1_554 S
C373 C372 1.349 . S
C373 C389 1.349 . S
C374 C372 1.327 . S
C374 C393 1.429 . S
C374 H398 0.950 1_554 S
C375 C392 1.574 . S
C375 C394 1.368 . S
C375 H399 0.949 . S
H376 C380 0.949 . S
C377 C378 1.349 . S
C377 C379 1.327 . S
C377 H400 0.950 . S
C378 C377 1.349 . S
C378 C390 1.349 1_554 S
C379 C377 1.327 . S
C379 C395 1.429 . S
C379 H401 0.950 . S
C380 H376 0.949 . S
C380 C388 1.574 . S
C380 C396 1.368 1_556 S
H381 C389 0.950 . S
H382 C387 0.950 . S
H383 C388 0.949 . S
H384 C390 0.950 . S
H385 C391 0.950 . S
H386 C392 0.949 . S
C387 H382 0.950 . S
C387 C389 1.327 . S
C387 C393 1.429 . S
C388 C380 1.574 . S
C388 H383 0.949 . S
C388 C394 1.368 1_556 S
C389 C373 1.349 . S
C389 H381 0.950 . S
C389 C387 1.327 . S
C390 C378 1.349 1_556 S
C390 H384 0.950 . S
C390 C391 1.327 . S
C391 H385 0.950 . S
C391 C390 1.327 . S
C391 C395 1.429 1_556 S
C392 C375 1.574 . S
C392 H386 0.949 . S
C392 C396 1.368 . S
C393 C374 1.429 . S
C393 C387 1.429 . S
C393 C394 1.523 . S
C394 C375 1.368 . S
C394 C388 1.368 1_554 S
C394 C393 1.523 . S
C395 C379 1.429 . S
C395 C391 1.429 1_554 S
C395 C396 1.523 . S
C396 C380 1.368 1_554 S
C396 C392 1.368 . S
C396 C395 1.523 . S
H397 C372 0.950 1_556 S
H398 C374 0.950 1_556 S
H399 C375 0.949 . S
H400 C377 0.950 . S
H401 C379 0.950 . S
C402 C403 1.349 1_455 S
C402 C404 1.327 . S
C402 H427 0.950 . S
C403 C402 1.349 1_655 S
C403 C419 1.349 . S
C404 C402 1.327 . S
C404 C423 1.429 . S
C404 H428 0.950 . S
C405 C422 1.574 . S
C405 C424 1.368 1_655 S
C405 H429 0.949 . S
H406 C410 0.949 . S
C407 C408 1.349 . S
C407 C409 1.327 . S
C407 H430 0.950 . S
C408 C407 1.349 . S
C408 C420 1.349 . S
C409 C407 1.327 . S
C409 C425 1.429 . S
C409 H431 0.950 1_455 S
C410 H406 0.949 . S
C410 C418 1.574 . S
C410 C426 1.368 . S
H411 C419 0.950 . S
H412 C417 0.950 . S
H413 C418 0.949 . S
H414 C420 0.950 . S
H415 C421 0.950 . S
H416 C422 0.949 . S
C417 H412 0.950 . S
C417 C419 1.327 . S
C417 C423 1.429 1_655 S
C418 C410 1.574 . S
C418 H413 0.949 . S
C418 C424 1.368 . S
C419 C403 1.349 . S
C419 H411 0.950 . S
C419 C417 1.327 . S
C420 C408 1.349 . S
C420 H414 0.950 . S
C420 C421 1.327 . S
C421 H415 0.950 . S
C421 C420 1.327 . S
C421 C425 1.429 . S
C422 C405 1.574 . S
C422 H416 0.949 . S
C422 C426 1.368 1_655 S
C423 C404 1.429 . S
C423 C417 1.429 1_455 S
C423 C424 1.523 . S
C424 C405 1.368 1_455 S
C424 C418 1.368 . S
C424 C423 1.523 . S
C425 C409 1.429 . S
C425 C421 1.429 . S
C425 C426 1.523 . S
C426 C410 1.368 . S
C426 C422 1.368 1_455 S
C426 C425 1.523 . S
H427 C402 0.950 . S
H428 C404 0.950 . S
H429 C405 0.949 . S
H430 C407 0.950 . S
H431 C409 0.950 1_655 S
C432 C433 1.349 . S
C432 C434 1.327 . S
C432 H457 0.950 . S
C433 C432 1.349 . S
C433 C449 1.349 1_455 S
C434 C432 1.327 . S
C434 C453 1.429 . S
C434 H458 0.950 . S
C435 C452 1.574 . S
C435 C454 1.368 1_655 S
C435 H459 0.949 . S
H436 C440 0.949 . S
C437 C438 1.349 . S
C437 C439 1.327 . S
C437 H460 0.950 . S
C438 C437 1.349 . S
C438 C450 1.349 1_655 S
C439 C437 1.327 . S
C439 C455 1.429 1_655 S
C439 H461 0.950 . S
C440 H436 0.949 . S
C440 C448 1.574 . S
C440 C456 1.368 . S
H441 C449 0.950 . S
H442 C447 0.950 . S
H443 C448 0.949 . S
H444 C450 0.950 . S
H445 C451 0.950 . S
H446 C452 0.949 . S
C447 H442 0.950 . S
C447 C449 1.327 . S
C447 C453 1.429 1_655 S
C448 C440 1.574 . S
C448 H443 0.949 . S
C448 C454 1.368 . S
C449 C433 1.349 1_655 S
C449 H441 0.950 . S
C449 C447 1.327 . S
C450 C438 1.349 1_455 S
C450 H444 0.950 . S
C450 C451 1.327 . S
C451 H445 0.950 . S
C451 C450 1.327 . S
C451 C455 1.429 . S
C452 C435 1.574 . S
C452 H446 0.949 . S
C452 C456 1.368 1_655 S
C453 C434 1.429 . S
C453 C447 1.429 1_455 S
C453 C454 1.523 . S
C454 C435 1.368 1_455 S
C454 C448 1.368 . S
C454 C453 1.523 . S
C455 C439 1.429 1_455 S
C455 C451 1.429 . S
C455 C456 1.523 . S
C456 C440 1.368 . S
C456 C452 1.368 1_455 S
C456 C455 1.523 . S
H457 C432 0.950 . S
H458 C434 0.950 . S
H459 C435 0.949 . S
H460 C437 0.950 . S
H461 C439 0.950 . S
C462 C463 1.349 . S
C462 C464 1.327 . S
C462 H487 0.950 . S
C463 C462 1.349 . S
C463 C479 1.349 . S
C464 C462 1.327 . S
C464 C483 1.429 . S
C464 H488 0.950 . S
C465 C482 1.574 . S
C465 C484 1.368 . S
C465 H489 0.949 . S
H466 C470 0.949 1_565 S
C467 C468 1.349 . S
C467 C469 1.327 . S
C467 H490 0.950 . S
C468 C467 1.349 . S
C468 C480 1.349 1_545 S
C469 C467 1.327 . S
C469 C485 1.429 . S
C469 H491 0.950 . S
C470 H466 0.949 1_545 S
C470 C478 1.574 . S
C470 C486 1.368 . S
H471 C479 0.950 . S
H472 C477 0.950 . S
H473 C478 0.949 . S
H474 C480 0.950 . S
H475 C481 0.950 1_565 S
H476 C482 0.949 . S
C477 H472 0.950 . S
C477 C479 1.327 . S
C477 C483 1.429 . S
C478 C470 1.574 . S
C478 H473 0.949 . S
C478 C484 1.368 . S
C479 C463 1.349 . S
C479 H471 0.950 . S
C479 C477 1.327 . S
C480 C468 1.349 1_565 S
C480 H474 0.950 . S
C480 C481 1.327 1_565 S
C481 H475 0.950 1_545 S
C481 C480 1.327 1_545 S
C481 C485 1.429 . S
C482 C465 1.574 . S
C482 H476 0.949 . S
C482 C486 1.368 . S
C483 C464 1.429 . S
C483 C477 1.429 . S
C483 C484 1.523 . S
C484 C465 1.368 . S
C484 C478 1.368 . S
C484 C483 1.523 . S
C485 C469 1.429 . S
C485 C481 1.429 . S
C485 C486 1.523 . S
C486 C470 1.368 . S
C486 C482 1.368 . S
C486 C485 1.523 . S
H487 C462 0.950 . S
H488 C464 0.950 . S
H489 C465 0.949 . S
H490 C467 0.950 . S
H491 C469 0.950 . S
C492 C493 1.349 1_565 S
C492 C494 1.327 . S
C492 H517 0.950 . S
C493 C492 1.349 1_545 S
C493 C509 1.349 . S
C494 C492 1.327 . S
C494 C513 1.429 1_565 S
C494 H518 0.950 . S
C495 C512 1.574 . S
C495 C514 1.368 . S
C495 H519 0.949 . S
H496 C500 0.949 1_565 S
C497 C498 1.349 . S
C497 C499 1.327 . S
C497 H520 0.950 . S
C498 C497 1.349 . S
C498 C510 1.349 . S
C499 C497 1.327 . S
C499 C515 1.429 . S
C499 H521 0.950 . S
C500 H496 0.949 1_545 S
C500 C508 1.574 1_545 S
C500 C516 1.368 . S
H501 C509 0.950 . S
H502 C507 0.950 . S
H503 C508 0.949 . S
H504 C510 0.950 . S
H505 C511 0.950 1_565 S
H506 C512 0.949 . S
C507 H502 0.950 . S
C507 C509 1.327 . S
C507 C513 1.429 . S
C508 C500 1.574 1_565 S
C508 H503 0.949 . S
C508 C514 1.368 1_565 S
C509 C493 1.349 . S
C509 H501 0.950 . S
C509 C507 1.327 . S
C510 C498 1.349 . S
C510 H504 0.950 . S
C510 C511 1.327 . S
C511 H505 0.950 1_545 S
C511 C510 1.327 . S
C511 C515 1.429 . S
C512 C495 1.574 . S
C512 H506 0.949 . S
C512 C516 1.368 . S
C513 C494 1.429 1_545 S
C513 C507 1.429 . S
C513 C514 1.523 . S
C514 C495 1.368 . S
C514 C508 1.368 1_545 S
C514 C513 1.523 . S
C515 C499 1.429 . S
C515 C511 1.429 . S
C515 C516 1.523 . S
C516 C500 1.368 . S
C516 C512 1.368 . S
C516 C515 1.523 . S
H517 C492 0.950 . S
H518 C494 0.950 . S
H519 C495 0.949 . S
H520 C497 0.950 . S
H521 C499 0.950 . S
C253 C56 4.226 . S
C258 C67 4.226 1_565 S
C283 C151 2.558 . S
C288 C140 2.558 . S
C313 C237 0.624 . S
C318 C226 0.624 . S
C343 C224 2.536 . S
C348 C235 2.536 . S
C373 C58 0.707 . S
C378 C69 0.707 . S
C403 C153 1.344 1_655 S
C408 C142 1.344 . S
C433 C158 1.518 . S
C438 C63 1.532 1_655 S
C463 C147 1.595 . S
C468 C231 1.579 . S
C493 C242 1.565 . S
C498 C74 1.574 . S
