# Generated by pormake.
# Topology uoh, (4)-cn, num edge types: 1
# Building blocks:
#     Node 0, Type 0, BuildingBlock: QUQFOY_clean_sbu_1, # of connection points: 4
#     Node 1, Type 0, BuildingBlock: QUQFOY_clean_sbu_1, # of connection points: 4
#     Node 2, Type 0, BuildingBlock: QUQFOY_clean_sbu_1, # of connection points: 4
#     Node 3, Type 0, BuildingBlock: QUQFOY_clean_sbu_1, # of connection points: 4
#     Node 4, Type 0, BuildingBlock: QUQFOY_clean_sbu_1, # of connection points: 4
#     Node 5, Type 0, BuildingBlock: QUQFOY_clean_sbu_1, # of connection points: 4
#     Node 6, Type 0, BuildingBlock: QUQFOY_clean_sbu_1, # of connection points: 4
#     Node 7, Type 0, BuildingBlock: QUQFOY_clean_sbu_1, # of connection points: 4
#     Node 8, Type 0, BuildingBlock: QUQFOY_clean_sbu_1, # of connection points: 4
#     Node 9, Type 0, BuildingBlock: QUQFOY_clean_sbu_1, # of connection points: 4
#     Node 10, Type 0, BuildingBlock: QUQFOY_clean_sbu_1, # of connection points: 4
#     Node 11, Type 0, BuildingBlock: QUQFOY_clean_sbu_1, # of connection points: 4
#     Node 12, Type 0, BuildingBlock: QUQFOY_clean_sbu_1, # of connection points: 4
#     Node 13, Type 0, BuildingBlock: QUQFOY_clean_sbu_1, # of connection points: 4
#     Node 14, Type 0, BuildingBlock: QUQFOY_clean_sbu_1, # of connection points: 4
#     Node 15, Type 0, BuildingBlock: QUQFOY_clean_sbu_1, # of connection points: 4
#     Node 16, Type 0, BuildingBlock: QUQFOY_clean_sbu_1, # of connection points: 4
#     Node 17, Type 0, BuildingBlock: QUQFOY_clean_sbu_1, # of connection points: 4
#     Node 18, Type 0, BuildingBlock: QUQFOY_clean_sbu_1, # of connection points: 4
#     Node 19, Type 0, BuildingBlock: QUQFOY_clean_sbu_1, # of connection points: 4
#     Node 20, Type 0, BuildingBlock: QUQFOY_clean_sbu_1, # of connection points: 4
#     Node 21, Type 0, BuildingBlock: QUQFOY_clean_sbu_1, # of connection points: 4
#     Node 22, Type 0, BuildingBlock: QUQFOY_clean_sbu_1, # of connection points: 4
#     Node 23, Type 0, BuildingBlock: QUQFOY_clean_sbu_1, # of connection points: 4
#     Node 24, Type 0, BuildingBlock: QUQFOY_clean_sbu_1, # of connection points: 4
#     Node 25, Type 0, BuildingBlock: QUQFOY_clean_sbu_1, # of connection points: 4
#     Node 26, Type 0, BuildingBlock: QUQFOY_clean_sbu_1, # of connection points: 4
#     Node 27, Type 0, BuildingBlock: QUQFOY_clean_sbu_1, # of connection points: 4
#     Node 28, Type 0, BuildingBlock: QUQFOY_clean_sbu_1, # of connection points: 4
#     Node 29, Type 0, BuildingBlock: QUQFOY_clean_sbu_1, # of connection points: 4
#     Node 30, Type 0, BuildingBlock: QUQFOY_clean_sbu_1, # of connection points: 4
#     Node 31, Type 0, BuildingBlock: QUQFOY_clean_sbu_1, # of connection points: 4
#     Node 32, Type 0, BuildingBlock: QUQFOY_clean_sbu_1, # of connection points: 4
#     Node 33, Type 0, BuildingBlock: QUQFOY_clean_sbu_1, # of connection points: 4
#     Node 34, Type 0, BuildingBlock: QUQFOY_clean_sbu_1, # of connection points: 4
#     Node 35, Type 0, BuildingBlock: QUQFOY_clean_sbu_1, # of connection points: 4
#     Edge 36, Type (0, 0), BuildingBlock: XUDNAN_clean_linker_2, # of connection points: 2
#     Edge 37, Type (0, 0), BuildingBlock: XUDNAN_clean_linker_2, # of connection points: 2
#     Edge 38, Type (0, 0), BuildingBlock: XUDNAN_clean_linker_2, # of connection points: 2
#     Edge 39, Type (0, 0), BuildingBlock: XUDNAN_clean_linker_2, # of connection points: 2
#     Edge 40, Type (0, 0), BuildingBlock: XUDNAN_clean_linker_2, # of connection points: 2
#     Edge 41, Type (0, 0), BuildingBlock: XUDNAN_clean_linker_2, # of connection points: 2
#     Edge 42, Type (0, 0), BuildingBlock: XUDNAN_clean_linker_2, # of connection points: 2
#     Edge 43, Type (0, 0), BuildingBlock: XUDNAN_clean_linker_2, # of connection points: 2
#     Edge 44, Type (0, 0), BuildingBlock: XUDNAN_clean_linker_2, # of connection points: 2
#     Edge 45, Type (0, 0), BuildingBlock: XUDNAN_clean_linker_2, # of connection points: 2
#     Edge 46, Type (0, 0), BuildingBlock: XUDNAN_clean_linker_2, # of connection points: 2
#     Edge 47, Type (0, 0), BuildingBlock: XUDNAN_clean_linker_2, # of connection points: 2
#     Edge 48, Type (0, 0), BuildingBlock: XUDNAN_clean_linker_2, # of connection points: 2
#     Edge 49, Type (0, 0), BuildingBlock: XUDNAN_clean_linker_2, # of connection points: 2
#     Edge 50, Type (0, 0), BuildingBlock: XUDNAN_clean_linker_2, # of connection points: 2
#     Edge 51, Type (0, 0), BuildingBlock: XUDNAN_clean_linker_2, # of connection points: 2
#     Edge 52, Type (0, 0), BuildingBlock: XUDNAN_clean_linker_2, # of connection points: 2
#     Edge 53, Type (0, 0), BuildingBlock: XUDNAN_clean_linker_2, # of connection points: 2
#     Edge 54, Type (0, 0), BuildingBlock: XUDNAN_clean_linker_2, # of connection points: 2
#     Edge 55, Type (0, 0), BuildingBlock: XUDNAN_clean_linker_2, # of connection points: 2
#     Edge 56, Type (0, 0), BuildingBlock: XUDNAN_clean_linker_2, # of connection points: 2
#     Edge 57, Type (0, 0), BuildingBlock: XUDNAN_clean_linker_2, # of connection points: 2
#     Edge 58, Type (0, 0), BuildingBlock: XUDNAN_clean_linker_2, # of connection points: 2
#     Edge 59, Type (0, 0), BuildingBlock: XUDNAN_clean_linker_2, # of connection points: 2
#     Edge 60, Type (0, 0), BuildingBlock: XUDNAN_clean_linker_2, # of connection points: 2
#     Edge 61, Type (0, 0), BuildingBlock: XUDNAN_clean_linker_2, # of connection points: 2
#     Edge 62, Type (0, 0), BuildingBlock: XUDNAN_clean_linker_2, # of connection points: 2
#     Edge 63, Type (0, 0), BuildingBlock: XUDNAN_clean_linker_2, # of connection points: 2
#     Edge 64, Type (0, 0), BuildingBlock: XUDNAN_clean_linker_2, # of connection points: 2
#     Edge 65, Type (0, 0), BuildingBlock: XUDNAN_clean_linker_2, # of connection points: 2
#     Edge 66, Type (0, 0), BuildingBlock: XUDNAN_clean_linker_2, # of connection points: 2
#     Edge 67, Type (0, 0), BuildingBlock: XUDNAN_clean_linker_2, # of connection points: 2
#     Edge 68, Type (0, 0), BuildingBlock: XUDNAN_clean_linker_2, # of connection points: 2
#     Edge 69, Type (0, 0), BuildingBlock: XUDNAN_clean_linker_2, # of connection points: 2
#     Edge 70, Type (0, 0), BuildingBlock: XUDNAN_clean_linker_2, # of connection points: 2
#     Edge 71, Type (0, 0), BuildingBlock: XUDNAN_clean_linker_2, # of connection points: 2
#     Edge 72, Type (0, 0), BuildingBlock: XUDNAN_clean_linker_2, # of connection points: 2
#     Edge 73, Type (0, 0), BuildingBlock: XUDNAN_clean_linker_2, # of connection points: 2
#     Edge 74, Type (0, 0), BuildingBlock: XUDNAN_clean_linker_2, # of connection points: 2
#     Edge 75, Type (0, 0), BuildingBlock: XUDNAN_clean_linker_2, # of connection points: 2
#     Edge 76, Type (0, 0), BuildingBlock: XUDNAN_clean_linker_2, # of connection points: 2
#     Edge 77, Type (0, 0), BuildingBlock: XUDNAN_clean_linker_2, # of connection points: 2
#     Edge 78, Type (0, 0), BuildingBlock: XUDNAN_clean_linker_2, # of connection points: 2
#     Edge 79, Type (0, 0), BuildingBlock: XUDNAN_clean_linker_2, # of connection points: 2
#     Edge 80, Type (0, 0), BuildingBlock: XUDNAN_clean_linker_2, # of connection points: 2
#     Edge 81, Type (0, 0), BuildingBlock: XUDNAN_clean_linker_2, # of connection points: 2
#     Edge 82, Type (0, 0), BuildingBlock: XUDNAN_clean_linker_2, # of connection points: 2
#     Edge 83, Type (0, 0), BuildingBlock: XUDNAN_clean_linker_2, # of connection points: 2
#     Edge 84, Type (0, 0), BuildingBlock: XUDNAN_clean_linker_2, # of connection points: 2
#     Edge 85, Type (0, 0), BuildingBlock: XUDNAN_clean_linker_2, # of connection points: 2
#     Edge 86, Type (0, 0), BuildingBlock: XUDNAN_clean_linker_2, # of connection points: 2
#     Edge 87, Type (0, 0), BuildingBlock: XUDNAN_clean_linker_2, # of connection points: 2
#     Edge 88, Type (0, 0), BuildingBlock: XUDNAN_clean_linker_2, # of connection points: 2
#     Edge 89, Type (0, 0), BuildingBlock: XUDNAN_clean_linker_2, # of connection points: 2
#     Edge 90, Type (0, 0), BuildingBlock: XUDNAN_clean_linker_2, # of connection points: 2
#     Edge 91, Type (0, 0), BuildingBlock: XUDNAN_clean_linker_2, # of connection points: 2
#     Edge 92, Type (0, 0), BuildingBlock: XUDNAN_clean_linker_2, # of connection points: 2
#     Edge 93, Type (0, 0), BuildingBlock: XUDNAN_clean_linker_2, # of connection points: 2
#     Edge 94, Type (0, 0), BuildingBlock: XUDNAN_clean_linker_2, # of connection points: 2
#     Edge 95, Type (0, 0), BuildingBlock: XUDNAN_clean_linker_2, # of connection points: 2
#     Edge 96, Type (0, 0), BuildingBlock: XUDNAN_clean_linker_2, # of connection points: 2
#     Edge 97, Type (0, 0), BuildingBlock: XUDNAN_clean_linker_2, # of connection points: 2
#     Edge 98, Type (0, 0), BuildingBlock: XUDNAN_clean_linker_2, # of connection points: 2
#     Edge 99, Type (0, 0), BuildingBlock: XUDNAN_clean_linker_2, # of connection points: 2
#     Edge 100, Type (0, 0), BuildingBlock: XUDNAN_clean_linker_2, # of connection points: 2
#     Edge 101, Type (0, 0), BuildingBlock: XUDNAN_clean_linker_2, # of connection points: 2
#     Edge 102, Type (0, 0), BuildingBlock: XUDNAN_clean_linker_2, # of connection points: 2
#     Edge 103, Type (0, 0), BuildingBlock: XUDNAN_clean_linker_2, # of connection points: 2
#     Edge 104, Type (0, 0), BuildingBlock: XUDNAN_clean_linker_2, # of connection points: 2
#     Edge 105, Type (0, 0), BuildingBlock: XUDNAN_clean_linker_2, # of connection points: 2
#     Edge 106, Type (0, 0), BuildingBlock: XUDNAN_clean_linker_2, # of connection points: 2
#     Edge 107, Type (0, 0), BuildingBlock: XUDNAN_clean_linker_2, # of connection points: 2
# Relax obj value: 0.082
# Max RMSD: 0.126
# Mean RMSD: 0.126
data_MOF--net-uoh--node1-QUQFOY_clean_sbu_1--edge1-XUDNAN_clean_linker_2
_symmetry_space_group_name_H-M    P1
_symmetry_Int_Tables_number       1
_symmetry_cell_setting            triclinic
loop_
_symmetry_equiv_pos_as_xyz
'x, y, z'
_cell_length_a     93.237837
_cell_length_b     93.2493
_cell_length_c     28.392257
_cell_angle_alpha  89.991698
_cell_angle_beta   89.988981
_cell_angle_gamma 119.99128
loop_
_atom_site_label
_atom_site_type_symbol
_atom_site_fract_x
_atom_site_fract_y
_atom_site_fract_z
_atom_type_partial_charge
O0 O 0.24219 0.15313 0.12775 0.0
Cd1 Cd 0.25607 0.17037 0.17891 0.0
Cd2 Cd 0.25344 0.14304 0.22124 0.0
O3 O 0.23948 0.13076 0.16274 0.0
O4 O 0.25196 0.18957 0.17151 0.0
O5 O 0.24593 0.17446 0.2363 0.0
C6 C 0.246 0.18651 0.21369 0.0
C7 C 0.24366 0.13407 0.29778 0.0
C8 C 0.23697 0.13763 0.12744 0.0
C9 C 0.2877 0.16946 0.19114 0.0
O10 O 0.27874 0.15541 0.21035 0.0
O11 O 0.28125 0.17801 0.17734 0.0
O12 O 0.24901 0.12636 0.27185 0.0
O13 O 0.24351 0.14671 0.27977 0.0
O14 O 0.85842 0.09343 0.12925 0.0
Cd15 Cd 0.84553 0.0936 0.1884 0.0
Cd16 Cd 0.87766 0.11377 0.21827 0.0
O17 O 0.88437 0.10921 0.15253 0.0
O18 O 0.82383 0.07188 0.18763 0.0
O19 O 0.84272 0.0788 0.24342 0.0
C20 C 0.8287 0.06796 0.22559 0.0
C21 C 0.88765 0.11078 0.29131 0.0
C22 C 0.87389 0.10055 0.12093 0.0
C23 C 0.8554 0.12891 0.20805 0.0
O24 O 0.86943 0.13048 0.21767 0.0
O25 O 0.84327 0.11479 0.19653 0.0
O26 O 0.89666 0.12317 0.26409 0.0
O27 O 0.87342 0.09956 0.27562 0.0
O28 O 0.92218 0.77475 0.12969 0.0
Cd29 Cd 0.92572 0.76114 0.18139 0.0
Cd30 Cd 0.90087 0.76364 0.22365 0.0
O31 O 0.90247 0.77741 0.16457 0.0
O32 O 0.94894 0.76514 0.17325 0.0
O33 O 0.94022 0.77143 0.23829 0.0
C34 C 0.95206 0.77119 0.21531 0.0
C35 C 0.90128 0.77344 0.30011 0.0
C36 C 0.91181 0.77985 0.12917 0.0
C37 C 0.89336 0.72941 0.19408 0.0
O38 O 0.88814 0.7383 0.21311 0.0
O39 O 0.90835 0.73596 0.18027 0.0
O40 O 0.88833 0.76796 0.27374 0.0
O41 O 0.91422 0.77374 0.28261 0.0
O42 O 0.15615 0.24337 0.39109 0.0
Cd43 Cd 0.17066 0.25572 0.33342 0.0
Cd44 Cd 0.14073 0.24323 0.29248 0.0
O45 O 0.13207 0.23021 0.35482 0.0
O46 O 0.19253 0.25738 0.34653 0.0
O47 O 0.1766 0.24305 0.28674 0.0
C48 C 0.18981 0.24751 0.3115 0.0
C49 C 0.12875 0.23061 0.22033 0.0
C50 C 0.14065 0.23324 0.39214 0.0
C51 C 0.16092 0.28056 0.30782 0.0
O52 O 0.14731 0.26785 0.29636 0.0
O53 O 0.17313 0.27896 0.32101 0.0
O54 O 0.12063 0.23359 0.25173 0.0
O55 O 0.14371 0.23427 0.23034 0.0
O56 O 0.77705 0.92023 0.39255 0.0
Cd57 Cd 0.76361 0.92244 0.33774 0.0
Cd58 Cd 0.76729 0.89584 0.30544 0.0
O59 O 0.7802 0.89945 0.36824 0.0
O60 O 0.76372 0.94323 0.35703 0.0
O61 O 0.77485 0.94149 0.29047 0.0
C62 C 0.77195 0.95039 0.31953 0.0
C63 C 0.77744 0.89302 0.23209 0.0
C64 C 0.78231 0.91017 0.39935 0.0
C65 C 0.73259 0.88854 0.32623 0.0
O66 O 0.74194 0.88297 0.31332 0.0
O67 O 0.73866 0.90391 0.33544 0.0
O68 O 0.77271 0.88178 0.26425 0.0
O69 O 0.77697 0.9063 0.24199 0.0
O70 O 0.10132 0.85716 0.38399 0.0
Cd71 Cd 0.09763 0.84233 0.32592 0.0
Cd72 Cd 0.11538 0.87207 0.28536 0.0
O73 O 0.11285 0.8815 0.34889 0.0
O74 O 0.07696 0.82095 0.34056 0.0
O75 O 0.07866 0.83713 0.28134 0.0
C76 C 0.06976 0.82407 0.30648 0.0
C77 C 0.11175 0.88126 0.21187 0.0
C78 C 0.10746 0.87277 0.38608 0.0
C79 C 0.13143 0.85071 0.29623 0.0
O80 O 0.13273 0.86456 0.28565 0.0
O81 O 0.11761 0.83884 0.31064 0.0
O82 O 0.12435 0.89042 0.23809 0.0
O83 O 0.10062 0.86714 0.2286 0.0
O84 O 0.76877 0.85305 0.89091 0.0
Cd85 Cd 0.75698 0.84115 0.82939 0.0
Cd86 Cd 0.77031 0.87327 0.80141 0.0
O87 O 0.78157 0.87913 0.86753 0.0
O88 O 0.75336 0.81828 0.83918 0.0
O89 O 0.76955 0.83482 0.78304 0.0
C90 C 0.7638 0.82102 0.80577 0.0
C91 C 0.78356 0.88488 0.72948 0.0
C92 C 0.77823 0.86835 0.89957 0.0
C93 C 0.73292 0.85278 0.80839 0.0
O94 O 0.7458 0.86683 0.80229 0.0
O95 O 0.73425 0.84006 0.817 0.0
O96 O 0.78143 0.89358 0.76109 0.0
O97 O 0.7791 0.86972 0.73979 0.0
O98 O 0.15728 0.92036 0.88555 0.0
Cd99 Cd 0.17451 0.92384 0.8341 0.0
Cd100 Cd 0.14717 0.89908 0.79191 0.0
O101 O 0.13492 0.90073 0.85057 0.0
O102 O 0.19375 0.94707 0.84214 0.0
O103 O 0.17871 0.93833 0.77719 0.0
C104 C 0.19078 0.95018 0.8001 0.0
C105 C 0.13812 0.89993 0.7155 0.0
C106 C 0.14179 0.91008 0.8859 0.0
C107 C 0.17375 0.89138 0.82111 0.0
O108 O 0.1596 0.88619 0.80235 0.0
O109 O 0.18224 0.90637 0.83489 0.0
O110 O 0.13045 0.88687 0.74138 0.0
O111 O 0.15078 0.91272 0.73348 0.0
O112 O 0.0972 0.24109 0.88804 0.0
Cd113 Cd 0.09639 0.25443 0.83082 0.0
Cd114 Cd 0.11554 0.24257 0.79571 0.0
O115 O 0.11154 0.23013 0.85887 0.0
O116 O 0.07639 0.25647 0.84439 0.0
O117 O 0.07779 0.24248 0.78348 0.0
C118 C 0.06914 0.24687 0.80898 0.0
C119 C 0.11252 0.23037 0.72187 0.0
C120 C 0.10371 0.23201 0.89273 0.0
C121 C 0.13143 0.27981 0.80846 0.0
O122 O 0.1328 0.26729 0.79811 0.0
O123 O 0.1174 0.27789 0.82072 0.0
O124 O 0.12487 0.23348 0.74889 0.0
O125 O 0.10127 0.2333 0.73801 0.0
O126 O 0.85693 0.76743 0.63016 0.0
Cd127 Cd 0.84203 0.75475 0.68689 0.0
Cd128 Cd 0.8721 0.76717 0.72927 0.0
O129 O 0.88127 0.77925 0.66557 0.0
O130 O 0.82053 0.75487 0.68034 0.0
O131 O 0.83804 0.76678 0.73949 0.0
C132 C 0.82443 0.76351 0.71859 0.0
C133 C 0.8817 0.77984 0.80308 0.0
C134 C 0.87261 0.77663 0.6285 0.0
C135 C 0.85133 0.72971 0.71449 0.0
O136 O 0.86467 0.74233 0.72808 0.0
O137 O 0.83953 0.73142 0.69805 0.0
O138 O 0.8907 0.77638 0.77618 0.0
O139 O 0.86756 0.77696 0.78694 0.0
O140 O 0.25107 0.09863 0.62955 0.0
Cd141 Cd 0.26268 0.09551 0.68743 0.0
Cd142 Cd 0.25033 0.11293 0.728 0.0
O143 O 0.23818 0.11007 0.66467 0.0
O144 O 0.26394 0.07511 0.67304 0.0
O145 O 0.24943 0.07656 0.73258 0.0
C146 C 0.2538 0.06782 0.70744 0.0
C147 C 0.2374 0.10891 0.80144 0.0
C148 C 0.24144 0.10459 0.62755 0.0
C149 C 0.28773 0.12964 0.71616 0.0
O150 O 0.27508 0.13067 0.72736 0.0
O151 O 0.286 0.11591 0.70167 0.0
O152 O 0.24061 0.1215 0.7754 0.0
O153 O 0.24076 0.09805 0.78463 0.0
O154 O 0.92324 0.15396 0.62372 0.0
Cd155 Cd 0.92562 0.16944 0.67902 0.0
Cd156 Cd 0.90087 0.1409 0.71662 0.0
O157 O 0.90429 0.13055 0.65581 0.0
O158 O 0.9486 0.18916 0.67384 0.0
O159 O 0.93986 0.17258 0.73593 0.0
C160 C 0.95166 0.1853 0.7148 0.0
C161 C 0.89814 0.12811 0.79023 0.0
C162 C 0.91361 0.13839 0.62117 0.0
C163 C 0.89255 0.1674 0.6913 0.0
O164 O 0.8874 0.15284 0.70697 0.0
O165 O 0.90774 0.17657 0.67999 0.0
O166 O 0.88686 0.12156 0.75828 0.0
O167 O 0.9113 0.14196 0.7803 0.0
O168 O 0.90756 0.48512 0.46394 0.0
Cd169 Cd 0.92134 0.50022 0.51928 0.0
Cd170 Cd 0.91895 0.47094 0.5472 0.0
O171 O 0.90606 0.46156 0.48476 0.0
O172 O 0.91791 0.51996 0.51617 0.0
O173 O 0.9106 0.50314 0.57739 0.0
C174 C 0.91123 0.51587 0.55737 0.0
C175 C 0.90814 0.46088 0.62212 0.0
C176 C 0.90304 0.47004 0.45542 0.0
C177 C 0.95323 0.49912 0.527 0.0
O178 O 0.94432 0.48414 0.53999 0.0
O179 O 0.94661 0.50795 0.51811 0.0
O180 O 0.91349 0.45327 0.59569 0.0
O181 O 0.90835 0.47384 0.60514 0.0
O182 O 0.52618 0.42771 0.45714 0.0
Cd183 Cd 0.51464 0.42833 0.51874 0.0
Cd184 Cd 0.54682 0.44846 0.54479 0.0
O185 O 0.55239 0.44279 0.47862 0.0
O186 O 0.49307 0.40665 0.52165 0.0
O187 O 0.51328 0.41399 0.57352 0.0
C188 C 0.49886 0.40301 0.55822 0.0
C189 C 0.55971 0.44864 0.61627 0.0
C190 C 0.54153 0.43436 0.4476 0.0
C191 C 0.52472 0.46374 0.53684 0.0
O192 O 0.53899 0.46547 0.54342 0.0
O193 O 0.51235 0.44944 0.52818 0.0
O194 O 0.56761 0.45929 0.58349 0.0
O195 O 0.54476 0.43709 0.60729 0.0
O196 O 0.58718 0.10432 0.4682 0.0
Cd197 Cd 0.59034 0.09151 0.52305 0.0
Cd198 Cd 0.57266 0.10328 0.56817 0.0
O199 O 0.57547 0.11633 0.50671 0.0
O200 O 0.61041 0.09018 0.50471 0.0
O201 O 0.60971 0.10359 0.56802 0.0
C202 C 0.61808 0.09951 0.54026 0.0
C203 C 0.5748 0.11508 0.64266 0.0
C204 C 0.58109 0.11386 0.4686 0.0
C205 C 0.55623 0.06601 0.55071 0.0
O206 O 0.55529 0.07848 0.56451 0.0
O207 O 0.5699 0.06795 0.53492 0.0
O208 O 0.56248 0.1115 0.61511 0.0
O209 O 0.58647 0.11273 0.627 0.0
O210 O 0.82002 0.57414 0.7298 0.0
Cd211 Cd 0.83726 0.58694 0.67757 0.0
Cd212 Cd 0.80978 0.58386 0.63545 0.0
O213 O 0.79733 0.57008 0.69385 0.0
O214 O 0.85666 0.58467 0.69759 0.0
O215 O 0.84376 0.57482 0.63004 0.0
C216 C 0.85507 0.57651 0.65945 0.0
C217 C 0.80081 0.57387 0.55942 0.0
C218 C 0.80443 0.56836 0.72987 0.0
C219 C 0.83626 0.6184 0.66161 0.0
O220 O 0.82185 0.60918 0.6449 0.0
O221 O 0.84507 0.61215 0.67451 0.0
O222 O 0.79309 0.57922 0.58524 0.0
O223 O 0.81352 0.5738 0.57734 0.0
O224 O 0.44529 0.25416 0.72294 0.0
Cd225 Cd 0.43149 0.25732 0.67101 0.0
Cd226 Cd 0.43394 0.23095 0.63505 0.0
O227 O 0.44719 0.23297 0.6957 0.0
O228 O 0.43302 0.2786 0.69224 0.0
O229 O 0.44267 0.27629 0.6236 0.0
C230 C 0.44081 0.28554 0.65396 0.0
C231 C 0.44391 0.23184 0.5588 0.0
C232 C 0.4501 0.24365 0.72765 0.0
C233 C 0.39973 0.22421 0.65965 0.0
O234 O 0.40868 0.21853 0.64411 0.0
O235 O 0.40625 0.23949 0.6706 0.0
O236 O 0.43865 0.21882 0.58488 0.0
O237 O 0.44411 0.24468 0.5768 0.0
O238 O 0.76395 0.1875 0.72216 0.0
Cd239 Cd 0.76223 0.17365 0.66339 0.0
Cd240 Cd 0.77995 0.20399 0.62381 0.0
O241 O 0.7758 0.21204 0.68805 0.0
O242 O 0.74025 0.1524 0.66537 0.0
O243 O 0.74715 0.17147 0.6099 0.0
C244 C 0.73625 0.1575 0.62798 0.0
C245 C 0.77911 0.21605 0.5516 0.0
C246 C 0.76991 0.20308 0.7247 0.0
C247 C 0.79681 0.18337 0.63778 0.0
O248 O 0.79768 0.19696 0.62606 0.0
O249 O 0.7831 0.17124 0.65189 0.0
O250 O 0.79023 0.22425 0.58291 0.0
O251 O 0.76787 0.20111 0.56189 0.0
O252 O 0.43441 0.18855 0.22492 0.0
Cd253 Cd 0.42325 0.17449 0.16563 0.0
Cd254 Cd 0.43637 0.20466 0.12591 0.0
O255 O 0.44826 0.21291 0.1904 0.0
O256 O 0.4214 0.15252 0.17891 0.0
O257 O 0.43671 0.16884 0.12097 0.0
C258 C 0.43184 0.15547 0.14528 0.0
C259 C 0.44984 0.21607 0.05406 0.0
C260 C 0.44444 0.20405 0.22744 0.0
C261 C 0.39889 0.1845 0.13632 0.0
O262 O 0.41175 0.19819 0.12632 0.0
O263 O 0.40028 0.17222 0.15005 0.0
O264 O 0.44701 0.22464 0.08436 0.0
O265 O 0.44568 0.20106 0.06522 0.0
O266 O 0.82148 0.25306 0.21741 0.0
Cd267 Cd 0.83786 0.25578 0.16411 0.0
Cd268 Cd 0.80846 0.22926 0.13093 0.0
O269 O 0.79799 0.23183 0.1925 0.0
O270 O 0.85801 0.27675 0.18499 0.0
O271 O 0.84581 0.2749 0.1171 0.0
C272 C 0.85719 0.2839 0.14714 0.0
C273 C 0.79905 0.23036 0.05533 0.0
C274 C 0.8062 0.2427 0.22362 0.0
C275 C 0.83598 0.22237 0.15273 0.0
O276 O 0.82115 0.21661 0.13882 0.0
O277 O 0.84492 0.23772 0.16267 0.0
O278 O 0.79123 0.21736 0.0815 0.0
O279 O 0.81194 0.24305 0.07292 0.0
O280 O 0.76587 0.58231 0.22803 0.0
Cd281 Cd 0.76342 0.5936 0.16842 0.0
Cd282 Cd 0.78041 0.58056 0.12918 0.0
O283 O 0.7767 0.5687 0.19338 0.0
O284 O 0.74317 0.59594 0.17402 0.0
O285 O 0.74515 0.57891 0.12363 0.0
C286 C 0.73638 0.58468 0.14196 0.0
C287 C 0.77598 0.56724 0.05634 0.0
C288 C 0.77139 0.5723 0.23031 0.0
C289 C 0.79797 0.61785 0.13875 0.0
O290 O 0.79882 0.60502 0.12882 0.0
O291 O 0.78429 0.61642 0.15245 0.0
O292 O 0.78834 0.56993 0.08273 0.0
O293 O 0.76555 0.57128 0.07258 0.0
O294 O 0.52763 0.10522 0.96792 0.0
Cd295 Cd 0.51193 0.09154 0.02239 0.0
Cd296 Cd 0.54132 0.10322 0.06794 0.0
O297 O 0.55141 0.11616 1.00617 0.0
O298 O 0.49073 0.09225 0.01634 0.0
O299 O 0.50788 0.10281 0.0769 0.0
C300 C 0.49448 0.10017 0.05586 0.0
C301 C 0.55125 0.11511 0.14232 0.0
C302 C 0.54333 0.11434 0.96837 0.0
C303 C 0.52055 0.06596 0.04858 0.0
O304 O 0.53364 0.07836 0.06438 0.0
O305 O 0.50906 0.06794 0.03104 0.0
O306 O 0.55984 0.11135 0.11473 0.0
O307 O 0.53728 0.1129 0.1268 0.0
O308 O 0.91735 0.42863 0.95744 0.0
Cd309 Cd 0.92934 0.42732 0.01704 0.0
Cd310 Cd 0.91647 0.4452 0.05439 0.0
O311 O 0.90424 0.44031 0.99006 0.0
O312 O 0.92843 0.40524 0.01742 0.0
O313 O 0.91606 0.41272 0.07075 0.0
C314 C 0.91907 0.40158 0.05421 0.0
C315 C 0.90345 0.44456 0.12616 0.0
C316 C 0.90748 0.43428 0.95403 0.0
C317 C 0.954 0.46208 0.04153 0.0
O318 O 0.94121 0.46301 0.05194 0.0
O319 O 0.95252 0.44828 0.02881 0.0
O320 O 0.90631 0.45553 0.09438 0.0
O321 O 0.90728 0.43337 0.11653 0.0
O322 O 0.59209 0.49051 0.95814 0.0
Cd323 Cd 0.59244 0.50312 0.01853 0.0
Cd324 Cd 0.56657 0.47235 0.04188 0.0
O325 O 0.57219 0.4654 0.97773 0.0
O326 O 0.61291 0.52552 0.01312 0.0
O327 O 0.6099 0.50753 0.06824 0.0
C328 C 0.61896 0.5218 0.04873 0.0
C329 C 0.56481 0.45934 0.11433 0.0
C330 C 0.58289 0.47524 0.94822 0.0
C331 C 0.55787 0.49881 0.0288 0.0
O332 O 0.55233 0.48348 0.0359 0.0
O333 O 0.57339 0.50865 0.02393 0.0
O334 O 0.55379 0.45218 0.08186 0.0
O335 O 0.57737 0.47372 0.10496 0.0
O336 O 0.57634 0.81814 0.79247 0.0
Cd337 Cd 0.58887 0.83549 0.84473 0.0
Cd338 Cd 0.58619 0.80833 0.88723 0.0
O339 O 0.57253 0.79563 0.82893 0.0
O340 O 0.5862 0.85467 0.82486 0.0
O341 O 0.5767 0.84177 0.89263 0.0
C342 C 0.57819 0.85303 0.86333 0.0
C343 C 0.57617 0.79967 0.96352 0.0
C344 C 0.57078 0.80259 0.79263 0.0
C345 C 0.6206 0.83507 0.86084 0.0
O346 O 0.61153 0.82062 0.87757 0.0
O347 O 0.61415 0.8437 0.84798 0.0
O348 O 0.58158 0.79188 0.9382 0.0
O349 O 0.57608 0.81228 0.94496 0.0
O350 O 0.19202 0.76147 0.78553 0.0
Cd351 Cd 0.18033 0.76109 0.84769 0.0
Cd352 Cd 0.21247 0.78016 0.87438 0.0
O353 O 0.2182 0.77486 0.80797 0.0
O354 O 0.15776 0.74125 0.83904 0.0
O355 O 0.17509 0.74249 0.89406 0.0
C356 C 0.16123 0.73392 0.87196 0.0
C357 C 0.22423 0.77846 0.94585 0.0
C358 C 0.20729 0.76737 0.7763 0.0
C359 C 0.19145 0.79657 0.8696 0.0
O360 O 0.20564 0.79795 0.87464 0.0
O361 O 0.1788 0.78244 0.86116 0.0
O362 O 0.23283 0.78944 0.91445 0.0
O363 O 0.2091 0.76765 0.93548 0.0
O364 O 0.25771 0.43708 0.78914 0.0
Cd365 Cd 0.25857 0.42425 0.84751 0.0
Cd366 Cd 0.23246 0.42798 0.87353 0.0
O367 O 0.23654 0.4402 0.80898 0.0
O368 O 0.28123 0.42655 0.84364 0.0
O369 O 0.27306 0.43562 0.90406 0.0
C370 C 0.28457 0.43401 0.88374 0.0
C371 C 0.2311 0.43912 0.9467 0.0
C372 C 0.24758 0.44203 0.77931 0.0
C373 C 0.22495 0.39314 0.85694 0.0
O374 O 0.21924 0.40255 0.86791 0.0
O375 O 0.2404 0.39922 0.84901 0.0
O376 O 0.21959 0.43478 0.91551 0.0
O377 O 0.24384 0.43778 0.93577 0.0
O378 O 0.49193 0.9111 0.06817 0.0
Cd379 Cd 0.50667 0.92326 0.01073 0.0
Cd380 Cd 0.47801 0.91915 0.9752 0.0
O381 O 0.46816 0.90607 0.03725 0.0
O382 O 0.52606 0.91931 0.01141 0.0
O383 O 0.50768 0.91101 0.95372 0.0
C384 C 0.52078 0.91178 0.97161 0.0
C385 C 0.4659 0.90807 0.90186 0.0
C386 C 0.47637 0.90515 0.07179 0.0
C387 C 0.50457 0.95418 0.99631 0.0
O388 O 0.4898 0.94462 0.98249 0.0
O389 O 0.51389 0.94828 1.00712 0.0
O390 O 0.45871 0.91268 0.93216 0.0
O391 O 0.47991 0.90943 0.9134 0.0
O392 O 0.11161 0.58978 0.05743 0.0
Cd393 Cd 0.09791 0.59037 1.00086 0.0
Cd394 Cd 0.1016 0.56414 0.97336 0.0
O395 O 0.11446 0.56851 0.0367 0.0
O396 O 0.10018 0.613 1.00536 0.0
O397 O 0.10859 0.60476 0.94357 0.0
C398 C 0.10719 0.61629 0.96457 0.0
C399 C 0.11201 0.56147 0.90028 0.0
C400 C 0.11672 0.57972 0.0663 0.0
C401 C 0.0668 0.55667 0.99307 0.0
O402 O 0.0762 0.55109 0.98079 0.0
O403 O 0.07287 0.5721 1.00137 0.0
O404 O 0.10749 0.55031 0.93261 0.0
O405 O 0.11123 0.57461 0.90995 0.0
O406 O 0.42992 0.52083 0.06118 0.0
Cd407 Cd 0.42941 0.50862 0.99992 0.0
Cd408 Cd 0.44869 0.54066 0.9716 0.0
O409 O 0.44332 0.54685 0.03728 0.0
O410 O 0.40956 0.48617 0.01001 0.0
O411 O 0.41076 0.50296 0.95334 0.0
C412 C 0.40222 0.48931 0.97643 0.0
C413 C 0.44793 0.55265 0.89934 0.0
C414 C 0.43586 0.53616 0.06953 0.0
C415 C 0.46482 0.51936 0.97973 0.0
O416 O 0.46625 0.53353 0.97374 0.0
O417 O 0.45062 0.50675 0.98771 0.0
O418 O 0.4587 0.56104 0.93138 0.0
O419 O 0.43681 0.53759 0.90932 0.0
O420 O 0.10477 0.52244 0.55752 0.0
Cd421 Cd 0.09249 0.51096 0.4961 0.0
Cd422 Cd 0.10483 0.54314 0.46983 0.0
O423 O 0.11608 0.54866 0.53606 0.0
O424 O 0.09199 0.48908 0.49444 0.0
O425 O 0.10513 0.50886 0.44152 0.0
C426 C 0.10137 0.49445 0.45767 0.0
C427 C 0.11781 0.55548 0.39803 0.0
C428 C 0.11356 0.53777 0.56708 0.0
C429 C 0.06745 0.52153 0.47829 0.0
O430 O 0.08005 0.53572 0.47129 0.0
O431 O 0.06926 0.50908 0.48701 0.0
O432 O 0.11531 0.56375 0.43022 0.0
O433 O 0.11391 0.54043 0.4077 0.0
O434 O 0.48947 0.58808 0.55903 0.0
Cd435 Cd 0.50378 0.58891 0.50211 0.0
Cd436 Cd 0.47426 0.56237 0.47495 0.0
O437 O 0.46564 0.56639 0.53851 0.0
O438 O 0.52399 0.61165 0.50577 0.0
O439 O 0.50711 0.60304 0.44453 0.0
C440 C 0.52011 0.61471 0.4649 0.0
C441 C 0.46123 0.55993 0.40204 0.0
C442 C 0.47439 0.57769 0.56806 0.0
C443 C 0.502 0.55558 0.49373 0.0
O444 O 0.48696 0.54966 0.4816 0.0
O445 O 0.51104 0.57103 0.50226 0.0
O446 O 0.45464 0.54859 0.43391 0.0
O447 O 0.47507 0.5731 0.41209 0.0
O448 O 0.43031 0.90994 0.56284 0.0
Cd449 Cd 0.42815 0.92265 0.50616 0.0
Cd450 Cd 0.45419 0.91898 0.4783 0.0
O451 O 0.451 0.90631 0.541 0.0
O452 O 0.40666 0.92162 0.52195 0.0
O453 O 0.40987 0.9103 0.45766 0.0
C454 C 0.40022 0.91278 0.48481 0.0
C455 C 0.45168 0.90767 0.40332 0.0
C456 C 0.44017 0.90455 0.57125 0.0
C457 C 0.4617 0.9538 0.4951 0.0
O458 O 0.46738 0.94436 0.48444 0.0
O459 O 0.44623 0.94775 0.50283 0.0
O460 O 0.46485 0.91233 0.42839 0.0
O461 O 0.43961 0.90882 0.42183 0.0
O462 O 0.19181 0.43646 0.28784 0.0
Cd463 Cd 0.17726 0.42449 0.34582 0.0
Cd464 Cd 0.20772 0.42836 0.37413 0.0
O465 O 0.21627 0.44047 0.30966 0.0
O466 O 0.15657 0.42487 0.32845 0.0
O467 O 0.17085 0.43709 0.39234 0.0
C468 C 0.15865 0.434 0.36467 0.0
C469 C 0.22043 0.4394 0.44718 0.0
C470 C 0.20701 0.44175 0.27898 0.0
C471 C 0.17989 0.39346 0.35919 0.0
O472 O 0.19514 0.40292 0.36871 0.0
O473 O 0.17047 0.39951 0.35162 0.0
O474 O 0.22731 0.43473 0.41597 0.0
O475 O 0.2065 0.43842 0.43638 0.0
O476 O 0.58345 0.76338 0.2933 0.0
Cd477 Cd 0.59509 0.7598 0.35029 0.0
Cd478 Cd 0.58302 0.77718 0.39245 0.0
O479 O 0.57068 0.77469 0.3298 0.0
O480 O 0.59558 0.73902 0.33531 0.0
O481 O 0.58161 0.74098 0.39552 0.0
C482 C 0.58547 0.73195 0.36994 0.0
C483 C 0.57043 0.77331 0.46634 0.0
C484 C 0.57385 0.7694 0.29218 0.0
C485 C 0.62042 0.79367 0.3796 0.0
O486 O 0.60781 0.79472 0.39129 0.0
O487 O 0.61859 0.77996 0.3646 0.0
O488 O 0.57371 0.78595 0.44045 0.0
O489 O 0.5735 0.7623 0.44914 0.0
O490 O 0.25812 0.81899 0.28539 0.0
Cd491 Cd 0.25843 0.83333 0.34143 0.0
Cd492 Cd 0.23222 0.8039 0.36903 0.0
O493 O 0.23657 0.79511 0.30631 0.0
O494 O 0.28124 0.85349 0.33966 0.0
O495 O 0.27185 0.8363 0.40021 0.0
C496 C 0.2838 0.84933 0.38078 0.0
C497 C 0.22983 0.79123 0.44251 0.0
C498 C 0.24792 0.80383 0.27684 0.0
C499 C 0.22494 0.83117 0.34765 0.0
O500 O 0.21922 0.81625 0.36082 0.0
O501 O 0.24038 0.84035 0.33927 0.0
O502 O 0.21853 0.78441 0.41061 0.0
O503 O 0.2429 0.80512 0.4322 0.0
H504 H 0.23491 0.13276 0.85053 0.0
H505 H 0.22768 0.08324 0.86424 0.0
H506 H 0.22198 0.08349 0.94923 0.0
H507 H 0.2574 0.1481 0.95135 0.0
H508 H 0.2492 0.16133 0.96712 0.0
H509 H 0.24948 0.15598 0.90649 0.0
H510 H 0.21783 0.14449 0.90083 0.0
H511 H 0.21747 0.14983 0.96168 0.0
H512 H 0.20414 0.12888 0.94191 0.0
H513 H 0.22103 0.09076 0.03438 0.0
H514 H 0.22602 0.10465 0.11155 0.0
H515 H 0.23412 0.14952 0.04178 0.0
C516 C 0.2316 0.12174 0.87102 0.0
C517 C 0.23158 0.10791 0.85059 0.0
C518 C 0.22763 0.09392 0.879 0.0
C519 C 0.22432 0.09394 0.92731 0.0
C520 C 0.22493 0.108 0.94663 0.0
C521 C 0.2284 0.12161 0.91922 0.0
C522 C 0.23026 0.1359 0.94909 0.0
C523 C 0.24761 0.15122 0.94316 0.0
C524 C 0.21661 0.14002 0.93769 0.0
C525 C 0.22796 0.12846 0.99781 0.0
C526 C 0.22457 0.11225 0.9957 0.0
C527 C 0.22338 0.10334 0.0364 0.0
C528 C 0.22622 0.11135 0.08017 0.0
C529 C 0.23039 0.12818 0.08294 0.0
C530 C 0.2307 0.13658 0.04114 0.0
H531 H 0.9127 0.14251 0.87504 0.0
H532 H 0.87714 0.09575 0.81142 0.0
H533 H 0.87031 0.08262 0.88976 0.0
H534 H 0.92611 0.1249 0.97314 0.0
H535 H 0.92732 0.14007 0.01473 0.0
H536 H 0.93142 0.14533 0.95318 0.0
H537 H 0.90895 0.15392 0.95201 0.0
H538 H 0.90484 0.14874 0.01341 0.0
H539 H 0.88823 0.13932 0.97117 0.0
H540 H 0.86456 0.07536 0.97426 0.0
H541 H 0.85977 0.0747 0.05992 0.0
H542 H 0.89905 0.12583 0.07097 0.0
C543 C 0.90383 0.1294 0.87758 0.0
C544 C 0.89556 0.1201 0.83703 0.0
C545 C 0.88367 0.1031 0.84191 0.0
C546 C 0.87977 0.0955 0.88629 0.0
C547 C 0.88785 0.10504 0.92568 0.0
C548 C 0.89965 0.12162 0.9219 0.0
C549 C 0.90519 0.12941 0.97032 0.0
C550 C 0.92361 0.13527 0.9783 0.0
C551 C 0.90158 0.14368 0.97711 0.0
C552 C 0.89426 0.11475 1.00175 0.0
C553 C 0.88453 0.10077 0.97514 0.0
C554 C 0.87236 0.08611 0.99557 0.0
C555 C 0.86972 0.08584 0.04425 0.0
C556 C 0.87926 0.10008 0.07215 0.0
C557 C 0.89198 0.11459 0.05072 0.0
H558 H 0.92571 0.7816 0.04273 0.0
H559 H 0.89028 0.79146 0.11357 0.0
H560 H 0.88125 0.79644 0.03657 0.0
H561 H 0.93544 0.81133 0.94207 0.0
H562 H 0.93667 0.79717 0.90132 0.0
H563 H 0.94248 0.79755 0.96207 0.0
H564 H 0.92161 0.76611 0.96861 0.0
H565 H 0.91562 0.76564 0.90825 0.0
H566 H 0.90016 0.75843 0.95403 0.0
H567 H 0.8729 0.79575 0.95165 0.0
H568 H 0.86666 0.79029 0.86673 0.0
H569 H 0.90764 0.78104 0.85161 0.0
C570 C 0.91647 0.7854 0.04231 0.0
C571 C 0.90881 0.78624 0.08443 0.0
C572 C 0.89646 0.79086 0.08196 0.0
C573 C 0.89123 0.79372 0.03829 0.0
C574 C 0.89856 0.79206 0.99735 0.0
C575 C 0.91107 0.78822 0.99907 0.0
C576 C 0.91574 0.78547 0.95013 0.0
C577 C 0.93365 0.79867 0.9382 0.0
C578 C 0.91312 0.76787 0.94499 0.0
C579 C 0.90346 0.78771 0.92068 0.0
C580 C 0.89379 0.79172 0.94843 0.0
C581 C 0.88064 0.79297 0.92949 0.0
C582 C 0.87717 0.78981 0.88119 0.0
C583 C 0.88676 0.7854 0.85234 0.0
C584 C 0.90027 0.7847 0.87242 0.0
H585 H 0.15529 0.23534 0.47751 0.0
H586 H 0.10732 0.21717 0.41136 0.0
H587 H 0.0941 0.2111 0.48977 0.0
H588 H 0.14034 0.20567 0.57921 0.0
H589 H 0.15485 0.22132 0.61879 0.0
H590 H 0.16006 0.22174 0.55746 0.0
H591 H 0.16563 0.25182 0.55095 0.0
H592 H 0.16033 0.25147 0.61195 0.0
H593 H 0.14958 0.25627 0.56745 0.0
H594 H 0.08688 0.21159 0.5754 0.0
H595 H 0.08615 0.21677 0.66068 0.0
H596 H 0.13859 0.2334 0.67052 0.0
C597 C 0.14194 0.22963 0.47937 0.0
C598 C 0.13236 0.22671 0.43817 0.0
C599 C 0.11494 0.2194 0.44231 0.0
C600 C 0.1073 0.21593 0.48677 0.0
C601 C 0.11721 0.21955 0.52675 0.0
C602 C 0.13413 0.22597 0.52338 0.0
C603 C 0.14219 0.22995 0.57151 0.0
C604 C 0.14981 0.21901 0.58238 0.0
C605 C 0.15519 0.24847 0.57568 0.0
C606 C 0.12729 0.22542 0.60242 0.0
C607 C 0.11296 0.21935 0.57608 0.0
C608 C 0.09795 0.21592 0.59652 0.0
C609 C 0.09765 0.21894 0.64493 0.0
C610 C 0.11224 0.22522 0.67237 0.0
C611 C 0.12713 0.22817 0.65078 0.0
H612 H 0.77787 0.88311 0.44982 0.0
H613 H 0.80073 0.93653 0.45649 0.0
H614 H 0.80734 0.93592 0.54038 0.0
H615 H 0.75768 0.87564 0.55562 0.0
H616 H 0.75992 0.85829 0.57323 0.0
H617 H 0.76003 0.86297 0.51177 0.0
H618 H 0.7885 0.86482 0.50149 0.0
H619 H 0.78844 0.86001 0.56304 0.0
H620 H 0.80556 0.87852 0.53873 0.0
H621 H 0.8076 0.92941 0.62519 0.0
H622 H 0.80148 0.91747 0.70515 0.0
H623 H 0.77813 0.86805 0.6456 0.0
C624 C 0.7849 0.89471 0.46851 0.0
C625 C 0.78911 0.90992 0.44639 0.0
C626 C 0.79762 0.92479 0.47255 0.0
C627 C 0.80144 0.92455 0.52023 0.0
C628 C 0.79661 0.90933 0.54152 0.0
C629 C 0.7886 0.89465 0.51652 0.0
C630 C 0.78297 0.87987 0.54918 0.0
C631 C 0.76403 0.86853 0.54733 0.0
C632 C 0.79191 0.87024 0.5374 0.0
C633 C 0.78853 0.8885 0.59654 0.0
C634 C 0.7966 0.90551 0.59112 0.0
C635 C 0.80162 0.91613 0.62981 0.0
C636 C 0.79805 0.90923 0.67516 0.0
C637 C 0.78953 0.89184 0.68172 0.0
C638 C 0.78505 0.88139 0.64176 0.0
H639 H 0.11575 0.87335 0.66376 0.0
H640 H 0.14935 0.92635 0.65491 0.0
H641 H 0.14231 0.92575 0.57065 0.0
H642 H 0.1265 0.86367 0.55611 0.0
H643 H 0.10596 0.84722 0.54175 0.0
H644 H 0.11195 0.85228 0.60235 0.0
H645 H 0.08692 0.85666 0.6163 0.0
H646 H 0.08088 0.85165 0.55554 0.0
H647 H 0.08434 0.87101 0.57966 0.0
H648 H 0.1334 0.91884 0.48544 0.0
H649 H 0.12471 0.90607 0.40669 0.0
H650 H 0.09729 0.85759 0.47192 0.0
C651 C 0.12137 0.88491 0.64443 0.0
C652 C 0.133 0.89993 0.66606 0.0
C653 C 0.14033 0.91471 0.63916 0.0
C654 C 0.13636 0.9145 0.59131 0.0
C655 C 0.12502 0.89942 0.57088 0.0
C656 C 0.11764 0.88489 0.59667 0.0
C657 C 0.10702 0.87009 0.56571 0.0
C658 C 0.11324 0.85759 0.56653 0.0
C659 C 0.0887 0.86187 0.58017 0.0
C660 C 0.10991 0.87847 0.51821 0.0
C661 C 0.1201 0.89541 0.52192 0.0
C662 C 0.12525 0.9056 0.48223 0.0
C663 C 0.1202 0.89823 0.43759 0.0
C664 C 0.11026 0.88082 0.43296 0.0
C665 C 0.10475 0.87095 0.47408 0.0
H666 H 0.77796 0.90797 0.1475 0.0
H667 H 0.78734 0.87092 0.20955 0.0
H668 H 0.79248 0.86345 0.13062 0.0
H669 H 0.75536 0.88404 0.05183 0.0
H670 H 0.76307 0.90068 1.00957 0.0
H671 H 0.76259 0.90497 0.07113 0.0
H672 H 0.79399 0.92626 0.06886 0.0
H673 H 0.79456 0.92201 1.00715 0.0
H674 H 0.80824 0.91994 0.0479 0.0
H675 H 0.79295 0.85733 0.04581 0.0
H676 H 0.78852 0.85284 0.96013 0.0
H677 H 0.77936 0.89397 0.95064 0.0
C678 C 0.78157 0.89863 0.14449 0.0
C679 C 0.7824 0.89014 0.18485 0.0
C680 C 0.78669 0.87765 0.17929 0.0
C681 C 0.7897 0.87336 0.13454 0.0
C682 C 0.78841 0.88166 0.09541 0.0
C683 C 0.78451 0.89408 0.09979 0.0
C684 C 0.7824 0.89991 0.0516 0.0
C685 C 0.76481 0.89723 0.04571 0.0
C686 C 0.79559 0.91811 0.0434 0.0
C687 C 0.78523 0.88848 0.01962 0.0
C688 C 0.78886 0.87819 0.04578 0.0
C689 C 0.79048 0.86555 0.02486 0.0
C690 C 0.78795 0.86309 0.97617 0.0
C691 C 0.78397 0.87328 0.94866 0.0
C692 C 0.78297 0.88638 0.97058 0.0
H693 H 0.1361 0.90729 0.163 0.0
H694 H 0.0862 0.86571 0.14852 0.0
H695 H 0.08689 0.87163 0.06337 0.0
H696 H 0.13323 0.93451 0.07077 0.0
H697 H 0.15417 0.9417 0.0516 0.0
H698 H 0.14856 0.9361 0.11239 0.0
H699 H 0.15945 0.91544 0.10765 0.0
H700 H 0.16505 0.92093 0.04707 0.0
H701 H 0.15142 0.89959 0.06292 0.0
H702 H 0.09455 0.87968 0.97826 0.0
H703 H 0.10869 0.8884 0.90134 0.0
H704 H 0.15368 0.92456 0.97186 0.0
C705 C 0.1251 0.89974 0.14229 0.0
C706 C 0.11102 0.88614 0.16257 0.0
C707 C 0.09706 0.87629 0.13388 0.0
C708 C 0.09733 0.8796 0.08547 0.0
C709 C 0.11161 0.89283 0.06632 0.0
C710 C 0.12522 0.9028 0.09399 0.0
C711 C 0.13973 0.915 0.06433 0.0
C712 C 0.14418 0.93289 0.07544 0.0
C713 C 0.15479 0.91258 0.07088 0.0
C714 C 0.13241 0.90995 0.01546 0.0
C715 C 0.11609 0.89735 0.01729 0.0
C716 C 0.10722 0.88974 0.97645 0.0
C717 C 0.11538 0.8948 0.93283 0.0
C718 C 0.1323 0.90725 0.93034 0.0
C719 C 0.14068 0.91521 0.97228 0.0
H720 H 0.12959 0.23332 0.94139 0.0
H721 H 0.07714 0.2164 0.95063 0.0
H722 H 0.07725 0.20945 0.03453 0.0
H723 H 0.13101 0.20407 0.03208 0.0
H724 H 0.15052 0.22012 0.05494 0.0
H725 H 0.14564 0.22003 0.99343 0.0
H726 H 0.1509 0.24994 1.0014 0.0
H727 H 0.15566 0.2501 0.06278 0.0
H728 H 0.13962 0.25439 0.04507 0.0
H729 H 0.08368 0.20867 0.1185 0.0
H730 H 0.09604 0.21485 0.19778 0.0
H731 H 0.14477 0.23325 0.13653 0.0
C732 C 0.11802 0.22743 0.96072 0.0
C733 C 0.10324 0.22495 0.93953 0.0
C734 C 0.08848 0.21806 0.96622 0.0
C735 C 0.08844 0.21406 0.0138 0.0
C736 C 0.10332 0.21718 0.03429 0.0
C737 C 0.11787 0.22369 1.00867 0.0
C738 C 0.13256 0.22817 0.0407 0.0
C739 C 0.14039 0.21745 0.02962 0.0
C740 C 0.14543 0.24675 0.03728 0.0
C741 C 0.12409 0.2238 0.08842 0.0
C742 C 0.10718 0.21715 0.08369 0.0
C743 C 0.09685 0.21354 0.12265 0.0
C744 C 0.104 0.21716 0.16758 0.0
C745 C 0.12134 0.2244 0.17335 0.0
C746 C 0.13145 0.22736 0.13324 0.0
H747 H 0.87437 0.76895 0.3509 0.0
H748 H 0.9274 0.7888 0.36164 0.0
H749 H 0.92639 0.79525 0.44567 0.0
H750 H 0.87138 0.79792 0.43386 0.0
H751 H 0.85199 0.78197 0.45767 0.0
H752 H 0.85726 0.78088 0.3972 0.0
H753 H 0.85311 0.75161 0.41207 0.0
H754 H 0.84777 0.75259 0.47236 0.0
H755 H 0.8644 0.74866 0.45904 0.0
H756 H 0.91907 0.79726 0.53051 0.0
H757 H 0.90599 0.79313 0.60878 0.0
H758 H 0.85772 0.7717 0.54207 0.0
C759 C 0.88584 0.77498 0.3706 0.0
C760 C 0.901 0.7785 0.34952 0.0
C761 C 0.91566 0.78607 0.37692 0.0
C762 C 0.91521 0.78984 0.42465 0.0
C763 C 0.90001 0.78599 0.44451 0.0
C764 C 0.88559 0.77872 0.41827 0.0
C765 C 0.87064 0.77448 0.4487 0.0
C766 C 0.86233 0.78441 0.43344 0.0
C767 C 0.85826 0.75573 0.448 0.0
C768 C 0.87881 0.7801 0.49644 0.0
C769 C 0.89578 0.78695 0.49327 0.0
C770 C 0.90581 0.7921 0.53328 0.0
C771 C 0.89826 0.78974 0.57766 0.0
C772 C 0.88081 0.78215 0.5818 0.0
C773 C 0.8711 0.77772 0.54033 0.0
H774 H 0.2461 0.09404 0.54191 0.0
H775 H 0.22507 0.12152 0.60694 0.0
H776 H 0.22059 0.12982 0.52811 0.0
H777 H 0.26876 0.12281 0.45758 0.0
H778 H 0.26561 0.10826 0.41139 0.0
H779 H 0.26468 0.10227 0.47199 0.0
H780 H 0.23523 0.07725 0.45901 0.0
H781 H 0.23613 0.08305 0.39805 0.0
H782 H 0.21927 0.0806 0.43476 0.0
H783 H 0.22226 0.13845 0.4428 0.0
H784 H 0.22851 0.14532 0.35839 0.0
H785 H 0.24807 0.11184 0.34971 0.0
C786 C 0.24011 0.10142 0.53968 0.0
C787 C 0.23589 0.10707 0.58076 0.0
C788 C 0.22829 0.1169 0.57608 0.0
C789 C 0.22572 0.12171 0.53138 0.0
C790 C 0.23063 0.11644 0.4917 0.0
C791 C 0.23745 0.10629 0.49547 0.0
C792 C 0.24286 0.10334 0.4479 0.0
C793 C 0.26158 0.10955 0.44721 0.0
C794 C 0.23277 0.08497 0.43412 0.0
C795 C 0.23859 0.11388 0.41691 0.0
C796 C 0.23142 0.12124 0.44267 0.0
C797 C 0.22757 0.13249 0.42215 0.0
C798 C 0.23121 0.13637 0.37421 0.0
C799 C 0.23865 0.12902 0.34732 0.0
C800 C 0.24214 0.11747 0.36904 0.0
H801 H 0.92742 0.15238 0.53593 0.0
H802 H 0.89419 0.10518 0.60188 0.0
H803 H 0.88667 0.092 0.52349 0.0
H804 H 0.90166 0.14869 0.44547 0.0
H805 H 0.91748 0.15855 0.40114 0.0
H806 H 0.92256 0.16365 0.46218 0.0
H807 H 0.94551 0.15579 0.45613 0.0
H808 H 0.94059 0.15077 0.39476 0.0
H809 H 0.94041 0.13561 0.43451 0.0
H810 H 0.87948 0.08497 0.43784 0.0
H811 H 0.87388 0.08456 0.35262 0.0
H812 H 0.91202 0.13623 0.34242 0.0
C813 C 0.91899 0.13915 0.53413 0.0
C814 C 0.9115 0.12982 0.57532 0.0
C815 C 0.90021 0.1126 0.57103 0.0
C816 C 0.89586 0.10499 0.52656 0.0
C817 C 0.90299 0.1147 0.4866 0.0
C818 C 0.91448 0.13138 0.49004 0.0
C819 C 0.91913 0.13942 0.4418 0.0
C820 C 0.91495 0.15339 0.43742 0.0
C821 C 0.9375 0.14577 0.43118 0.0
C822 C 0.90802 0.1248 0.41074 0.0
C823 C 0.89894 0.11061 0.43717 0.0
C824 C 0.88679 0.09592 0.41671 0.0
C825 C 0.88367 0.09581 0.36824 0.0
C826 C 0.89266 0.11029 0.34066 0.0
C827 C 0.90521 0.12484 0.36224 0.0
H828 H 0.90719 0.4321 0.21006 0.0
H829 H 0.88668 0.46059 0.1489 0.0
H830 H 0.88001 0.46625 0.22838 0.0
H831 H 0.87846 0.41549 0.31461 0.0
H832 H 0.89492 0.41779 0.3528 0.0
H833 H 0.89522 0.41327 0.29116 0.0
H834 H 0.9244 0.43912 0.28301 0.0
H835 H 0.92418 0.44371 0.34439 0.0
H836 H 0.92756 0.45908 0.30059 0.0
H837 H 0.87948 0.47244 0.3133 0.0
H838 H 0.88565 0.47917 0.39756 0.0
H839 H 0.90645 0.44677 0.40524 0.0
C840 C 0.90075 0.43903 0.21341 0.0
C841 C 0.89725 0.44573 0.17326 0.0
C842 C 0.88936 0.45523 0.17912 0.0
C843 C 0.88546 0.45846 0.22416 0.0
C844 C 0.88952 0.4521 0.26314 0.0
C845 C 0.89693 0.44252 0.25829 0.0
C846 C 0.9018 0.43888 0.30596 0.0
C847 C 0.89201 0.42025 0.31676 0.0
C848 C 0.92059 0.44561 0.30862 0.0
C849 C 0.89655 0.44844 0.33812 0.0
C850 C 0.88924 0.45574 0.3127 0.0
C851 C 0.88484 0.4665 0.33375 0.0
C852 C 0.8884 0.47027 0.38165 0.0
C853 C 0.89628 0.4633 0.40815 0.0
C854 C 0.89996 0.45188 0.38627 0.0
H855 H 0.57965 0.4742 0.19853 0.0
H856 H 0.54375 0.42707 0.13746 0.0
H857 H 0.53678 0.41462 0.21667 0.0
H858 H 0.59284 0.45701 0.29823 0.0
H859 H 0.59439 0.47262 0.33865 0.0
H860 H 0.59841 0.47734 0.27681 0.0
H861 H 0.57629 0.48638 0.27456 0.0
H862 H 0.57222 0.4817 0.33624 0.0
H863 H 0.55553 0.47217 0.29428 0.0
H864 H 0.53086 0.40818 0.30189 0.0
H865 H 0.52649 0.40823 0.38766 0.0
H866 H 0.56649 0.45912 0.39556 0.0
C867 C 0.57069 0.46114 0.20178 0.0
C868 C 0.56235 0.45158 0.16162 0.0
C869 C 0.55036 0.43464 0.16754 0.0
C870 C 0.54635 0.42743 0.21247 0.0
C871 C 0.55446 0.43726 0.2514 0.0
C872 C 0.56645 0.45374 0.24662 0.0
C873 C 0.57217 0.46188 0.29459 0.0
C874 C 0.59054 0.46755 0.30253 0.0
C875 C 0.56884 0.47638 0.30023 0.0
C876 C 0.56115 0.44755 0.32693 0.0
C877 C 0.55116 0.43343 0.30116 0.0
C878 C 0.53888 0.41904 0.32253 0.0
C879 C 0.53648 0.41917 0.37128 0.0
C880 C 0.54638 0.43353 0.39838 0.0
C881 C 0.55913 0.44778 0.37597 0.0
H882 H 0.5929 0.11213 0.38172 0.0
H883 H 0.56284 0.12914 0.45234 0.0
H884 H 0.55444 0.13471 0.37509 0.0
H885 H 0.60553 0.14137 0.27924 0.0
H886 H 0.60432 0.12576 0.23937 0.0
H887 H 0.61004 0.12577 0.30003 0.0
H888 H 0.58622 0.09543 0.3087 0.0
H889 H 0.58033 0.09535 0.2484 0.0
H890 H 0.56533 0.09034 0.29472 0.0
H891 H 0.54568 0.1339 0.2903 0.0
H892 H 0.53879 0.1284 0.20562 0.0
H893 H 0.57525 0.11276 0.1909 0.0
C894 C 0.58495 0.1175 0.38109 0.0
C895 C 0.57858 0.12023 0.42323 0.0
C896 C 0.56802 0.12707 0.42065 0.0
C897 C 0.56315 0.13025 0.37686 0.0
C898 C 0.56914 0.12679 0.33596 0.0
C899 C 0.58005 0.12082 0.33778 0.0
C900 C 0.58365 0.11681 0.28904 0.0
C901 C 0.60197 0.1281 0.27617 0.0
C902 C 0.57857 0.0984 0.28501 0.0
C903 C 0.57257 0.12081 0.25962 0.0
C904 C 0.56438 0.12667 0.28716 0.0
C905 C 0.55232 0.1297 0.26825 0.0
C906 C 0.54845 0.1265 0.22015 0.0
C907 C 0.55663 0.12036 0.19151 0.0
C908 C 0.56904 0.11781 0.21156 0.0
H909 H 0.81639 0.56518 0.81489 0.0
H910 H 0.7715 0.55751 0.74633 0.0
H911 H 0.75761 0.55195 0.82366 0.0
H912 H 0.79573 0.53442 0.91332 0.0
H913 H 0.81144 0.54784 0.95455 0.0
H914 H 0.81665 0.54785 0.89338 0.0
H915 H 0.82822 0.57953 0.88969 0.0
H916 H 0.82295 0.57961 0.95048 0.0
H917 H 0.81506 0.58774 0.90623 0.0
H918 H 0.75036 0.55231 0.90897 0.0
H919 H 0.7502 0.55765 0.99422 0.0
H920 H 0.79968 0.56468 1.0067 0.0
C921 C 0.80346 0.56176 0.81583 0.0
C922 C 0.79504 0.56173 0.77438 0.0
C923 C 0.7782 0.55751 0.77746 0.0
C924 C 0.77019 0.55431 0.8213 0.0
C925 C 0.7791 0.55518 0.8617 0.0
C926 C 0.79531 0.55858 0.85922 0.0
C927 C 0.80277 0.56059 0.90782 0.0
C928 C 0.80689 0.54685 0.91785 0.0
C929 C 0.81815 0.57789 0.91388 0.0
C930 C 0.7885 0.55857 0.93803 0.0
C931 C 0.77486 0.55522 0.91091 0.0
C932 C 0.76082 0.55452 0.93065 0.0
C933 C 0.76085 0.55761 0.97911 0.0
C934 C 0.77485 0.5614 1.00724 0.0
C935 C 0.78864 0.56146 0.98641 0.0
H936 H 0.44482 0.21591 0.77556 0.0
H937 H 0.47002 0.26943 0.78471 0.0
H938 H 0.47684 0.26799 0.8679 0.0
H939 H 0.42516 0.20878 0.88085 0.0
H940 H 0.42636 0.19076 0.89756 0.0
H941 H 0.42677 0.19585 0.83636 0.0
H942 H 0.45454 0.19626 0.82553 0.0
H943 H 0.45416 0.191 0.88683 0.0
H944 H 0.47184 0.20918 0.86312 0.0
H945 H 0.47651 0.26087 0.952 0.0
H946 H 0.46931 0.24857 0.03143 0.0
H947 H 0.44419 0.19943 0.97 0.0
C948 C 0.45244 0.22732 0.79456 0.0
C949 C 0.4572 0.24281 0.7735 0.0
C950 C 0.46648 0.25747 0.80002 0.0
C951 C 0.47043 0.25676 0.84729 0.0
C952 C 0.46498 0.24128 0.86769 0.0
C953 C 0.45629 0.22679 0.84216 0.0
C954 C 0.44996 0.21176 0.87412 0.0
C955 C 0.43094 0.20118 0.87209 0.0
C956 C 0.45812 0.20144 0.86165 0.0
C957 C 0.45582 0.22007 0.92175 0.0
C958 C 0.46469 0.23711 0.91703 0.0
C959 C 0.46994 0.24755 0.9561 0.0
C960 C 0.46575 0.24045 1.00111 0.0
C961 C 0.45642 0.22306 1.00689 0.0
C962 C 0.45175 0.21275 0.96665 0.0
H963 H 0.75971 0.18762 0.81044 0.0
H964 H 0.78599 0.23632 0.74603 0.0
H965 H 0.79413 0.24901 0.82494 0.0
H966 H 0.74569 0.20019 0.91802 0.0
H967 H 0.74866 0.18607 0.95453 0.0
H968 H 0.74294 0.18114 0.89355 0.0
H969 H 0.76852 0.17765 0.88031 0.0
H970 H 0.77443 0.18274 0.94095 0.0
H971 H 0.78884 0.19449 0.89482 0.0
H972 H 0.80278 0.25602 0.91037 0.0
H973 H 0.80969 0.25677 0.99483 0.0
H974 H 0.77727 0.20355 1.00308 0.0
C975 C 0.76677 0.20099 0.81283 0.0
C976 C 0.77213 0.21095 0.7718 0.0
C977 C 0.78159 0.2284 0.77677 0.0
C978 C 0.78632 0.23574 0.82155 0.0
C979 C 0.78134 0.2255 0.86113 0.0
C980 C 0.77155 0.20851 0.85717 0.0
C981 C 0.76884 0.20014 0.90472 0.0
C982 C 0.75044 0.19137 0.91851 0.0
C983 C 0.77556 0.18805 0.90519 0.0
C984 C 0.77906 0.21501 0.9359 0.0
C985 C 0.7861 0.22955 0.91024 0.0
C986 C 0.79706 0.24474 0.93093 0.0
C987 C 0.80095 0.24504 0.97892 0.0
C988 C 0.7939 0.23026 1.00577 0.0
C989 C 0.78264 0.21512 0.98385 0.0
H990 H 0.43804 0.20484 0.5062 0.0
H991 H 0.45972 0.25817 0.49802 0.0
H992 H 0.46533 0.25724 0.41319 0.0
H993 H 0.46543 0.20078 0.41986 0.0
H994 H 0.44875 0.18183 0.3961 0.0
H995 H 0.4484 0.18699 0.45711 0.0
H996 H 0.41957 0.18422 0.44498 0.0
H997 H 0.41982 0.17903 0.38412 0.0
H998 H 0.41691 0.19616 0.39941 0.0
H999 H 0.46655 0.25008 0.32751 0.0
H1000 H 0.46175 0.2373 0.24861 0.0
H1001 H 0.4387 0.18861 0.3133 0.0
C1002 C 0.44431 0.21639 0.48688 0.0
C1003 C 0.4486 0.23161 0.50893 0.0
C1004 C 0.45642 0.24637 0.482 0.0
C1005 C 0.45971 0.24597 0.43381 0.0
C1006 C 0.45509 0.2307 0.41301 0.0
C1007 C 0.44753 0.21618 0.43877 0.0
C1008 C 0.44244 0.20123 0.40748 0.0
C1009 C 0.45182 0.19218 0.42095 0.0
C1010 C 0.42357 0.18948 0.40909 0.0
C1011 C 0.44797 0.20955 0.35988 0.0
C1012 C 0.45547 0.22657 0.36379 0.0
C1013 C 0.46084 0.23678 0.32416 0.0
C1014 C 0.4581 0.22939 0.27941 0.0
C1015 C 0.44989 0.21193 0.27454 0.0
C1016 C 0.44514 0.20199 0.31561 0.0
H1017 H 0.7675 0.19965 0.4675 0.0
H1018 H 0.79409 0.24876 0.52881 0.0
H1019 H 0.79975 0.26108 0.44932 0.0
H1020 H 0.79532 0.20736 0.37841 0.0
H1021 H 0.78044 0.19498 0.33396 0.0
H1022 H 0.77556 0.19005 0.39518 0.0
H1023 H 0.74906 0.19215 0.38521 0.0
H1024 H 0.75386 0.19709 0.32374 0.0
H1025 H 0.75062 0.21079 0.36133 0.0
H1026 H 0.80631 0.26796 0.36483 0.0
H1027 H 0.81382 0.26889 0.28112 0.0
H1028 H 0.78313 0.2155 0.27259 0.0
C1029 C 0.77398 0.21301 0.46412 0.0
C1030 C 0.78016 0.22328 0.50435 0.0
C1031 C 0.78913 0.24068 0.49852 0.0
C1032 C 0.79234 0.24779 0.45348 0.0
C1033 C 0.78653 0.23735 0.41444 0.0
C1034 C 0.77748 0.22032 0.41921 0.0
C1035 C 0.77446 0.21189 0.37154 0.0
C1036 C 0.78189 0.2004 0.36969 0.0
C1037 C 0.7559 0.20242 0.35977 0.0
C1038 C 0.78378 0.2268 0.33953 0.0
C1039 C 0.7904 0.24138 0.36501 0.0
C1040 C 0.80088 0.25668 0.3443 0.0
C1041 C 0.80509 0.25709 0.29672 0.0
C1042 C 0.79883 0.24232 0.27016 0.0
C1043 C 0.78766 0.22704 0.29161 0.0
H1044 H 0.77899 0.57886 0.50786 0.0
H1045 H 0.81147 0.55814 0.49881 0.0
H1046 H 0.80434 0.5519 0.41447 0.0
H1047 H 0.74722 0.55062 0.42317 0.0
H1048 H 0.74445 0.567 0.39939 0.0
H1049 H 0.75029 0.56763 0.46021 0.0
H1050 H 0.77595 0.59669 0.44705 0.0
H1051 H 0.77018 0.59616 0.38641 0.0
H1052 H 0.79044 0.5995 0.40096 0.0
H1053 H 0.79553 0.55027 0.32942 0.0
H1054 H 0.78742 0.55506 0.25076 0.0
H1055 H 0.76125 0.57746 0.31605 0.0
C1056 C 0.78432 0.57266 0.48849 0.0
C1057 C 0.79566 0.56883 0.51003 0.0
C1058 C 0.80267 0.56108 0.48309 0.0
C1059 C 0.79864 0.55743 0.43523 0.0
C1060 C 0.78759 0.56161 0.4149 0.0
C1061 C 0.78056 0.56908 0.44076 0.0
C1062 C 0.77036 0.57383 0.40988 0.0
C1063 C 0.75199 0.56419 0.42401 0.0
C1064 C 0.77715 0.59266 0.41115 0.0
C1065 C 0.77309 0.56829 0.3623 0.0
C1066 C 0.78281 0.56099 0.36595 0.0
C1067 C 0.78776 0.55579 0.32624 0.0
C1068 C 0.78305 0.55853 0.28166 0.0
C1069 C 0.77366 0.56661 0.2771 0.0
C1070 C 0.7683 0.57112 0.3182 0.0
H1071 H 0.54855 0.11307 0.69083 0.0
H1072 H 0.60045 0.12804 0.70644 0.0
H1073 H 0.59898 0.13368 0.79101 0.0
H1074 H 0.54707 0.14196 0.77851 0.0
H1075 H 0.52683 0.12651 0.79878 0.0
H1076 H 0.53274 0.12642 0.73837 0.0
H1077 H 0.52594 0.09599 0.74758 0.0
H1078 H 0.52002 0.096 0.80781 0.0
H1079 H 0.53572 0.09077 0.794 0.0
H1080 H 0.59096 0.13481 0.87559 0.0
H1081 H 0.57687 0.12945 0.95257 0.0
H1082 H 0.53001 0.11288 0.88118 0.0
C1083 C 0.55975 0.118 0.71165 0.0
C1084 C 0.57468 0.12033 0.69188 0.0
C1085 C 0.58892 0.12631 0.72074 0.0
C1086 C 0.58821 0.12961 0.76877 0.0
C1087 C 0.57316 0.12683 0.78738 0.0
C1088 C 0.55919 0.12113 0.7596 0.0
C1089 C 0.54409 0.11729 0.78881 0.0
C1090 C 0.53729 0.12873 0.77531 0.0
C1091 C 0.53066 0.09893 0.78428 0.0
C1092 C 0.55161 0.12123 0.83762 0.0
C1093 C 0.56845 0.12704 0.83607 0.0
C1094 C 0.57782 0.13048 0.87712 0.0
C1095 C 0.56969 0.12743 0.92077 0.0
C1096 C 0.55231 0.12077 0.9231 0.0
C1097 C 0.54332 0.11812 0.88079 0.0
H1098 H 0.914 0.43981 0.67532 0.0
H1099 H 0.89129 0.47058 0.68116 0.0
H1100 H 0.88519 0.46393 0.76569 0.0
H1101 H 0.88653 0.4081 0.76222 0.0
H1102 H 0.90342 0.40637 0.78689 0.0
H1103 H 0.90376 0.41155 0.72556 0.0
H1104 H 0.93228 0.43804 0.73746 0.0
H1105 H 0.93202 0.43293 0.79862 0.0
H1106 H 0.93451 0.45273 0.78223 0.0
H1107 H 0.884 0.45608 0.85136 0.0
H1108 H 0.88924 0.44907 0.93101 0.0
H1109 H 0.91328 0.42393 0.86927 0.0
C1110 C 0.90735 0.4448 0.69405 0.0
C1111 C 0.90294 0.45556 0.67146 0.0
C1112 C 0.89467 0.46221 0.69761 0.0
C1113 C 0.8911 0.45845 0.74563 0.0
C1114 C 0.8959 0.44804 0.76707 0.0
C1115 C 0.90385 0.44132 0.74207 0.0
C1116 C 0.90919 0.43186 0.77422 0.0
C1117 C 0.90018 0.41337 0.76145 0.0
C1118 C 0.92812 0.43934 0.77306 0.0
C1119 C 0.90341 0.43469 0.8214 0.0
C1120 C 0.89552 0.4438 0.8165 0.0
C1121 C 0.88999 0.44876 0.85552 0.0
C1122 C 0.89299 0.44468 0.90072 0.0
C1123 C 0.90162 0.43588 0.90663 0.0
C1124 C 0.90648 0.4305 0.86617 0.0
H1125 H 0.54367 0.43549 0.70023 0.0
H1126 H 0.59231 0.46739 0.64037 0.0
H1127 H 0.6042 0.47457 0.72029 0.0
H1128 H 0.54715 0.46189 0.79012 0.0
H1129 H 0.53611 0.44618 0.83398 0.0
H1130 H 0.53181 0.44124 0.77254 0.0
H1131 H 0.53819 0.41736 0.78177 0.0
H1132 H 0.54247 0.4222 0.84346 0.0
H1133 H 0.55779 0.42161 0.80609 0.0
H1134 H 0.61013 0.48155 0.80547 0.0
H1135 H 0.60972 0.48755 0.88998 0.0
H1136 H 0.55744 0.45097 0.89628 0.0
C1137 C 0.55691 0.44353 0.70395 0.0
C1138 C 0.5671 0.45072 0.66392 0.0
C1139 C 0.58428 0.46162 0.67038 0.0
C1140 C 0.59116 0.46576 0.71571 0.0
C1141 C 0.58072 0.45887 0.75445 0.0
C1142 C 0.56397 0.44789 0.74912 0.0
C1143 C 0.55525 0.44357 0.79655 0.0
C1144 C 0.54179 0.44852 0.79838 0.0
C1145 C 0.548 0.42508 0.80762 0.0
C1146 C 0.5696 0.45426 0.82914 0.0
C1147 C 0.58421 0.46284 0.8041 0.0
C1148 C 0.59885 0.47463 0.8256 0.0
C1149 C 0.5985 0.47798 0.87364 0.0
C1150 C 0.58364 0.46954 0.89993 0.0
C1151 C 0.5691 0.45725 0.87746 0.0
H1152 H 0.56804 0.81437 0.70677 0.0
H1153 H 0.5602 0.76966 0.77697 0.0
H1154 H 0.55514 0.75566 0.69993 0.0
H1155 H 0.53784 0.79354 0.60771 0.0
H1156 H 0.55141 0.80917 0.5665 0.0
H1157 H 0.55119 0.81449 0.62743 0.0
H1158 H 0.58286 0.82609 0.6322 0.0
H1159 H 0.58317 0.82069 0.57165 0.0
H1160 H 0.59114 0.81292 0.61664 0.0
H1161 H 0.55572 0.74819 0.61466 0.0
H1162 H 0.56101 0.74776 0.52943 0.0
H1163 H 0.56818 0.79726 0.5156 0.0
C1164 C 0.5647 0.80145 0.70623 0.0
C1165 C 0.56445 0.79312 0.7481 0.0
C1166 C 0.56034 0.7763 0.74552 0.0
C1167 C 0.55744 0.76823 0.70183 0.0
C1168 C 0.5585 0.77706 0.66107 0.0
C1169 C 0.56181 0.79325 0.66302 0.0
C1170 C 0.564 0.80061 0.61421 0.0
C1171 C 0.55029 0.80469 0.60333 0.0
C1172 C 0.58132 0.81597 0.60836 0.0
C1173 C 0.56211 0.78629 0.58452 0.0
C1174 C 0.55873 0.77272 0.61202 0.0
C1175 C 0.55799 0.75861 0.59269 0.0
C1176 C 0.56105 0.75848 0.54424 0.0
C1177 C 0.56485 0.7724 0.51571 0.0
C1178 C 0.565 0.78629 0.53619 0.0
H1179 H 0.24514 0.8062 0.5261 0.0
H1180 H 0.20814 0.75926 0.46656 0.0
H1181 H 0.20129 0.74706 0.54608 0.0
H1182 H 0.25809 0.78877 0.62561 0.0
H1183 H 0.26017 0.80464 0.66588 0.0
H1184 H 0.26401 0.80916 0.60389 0.0
H1185 H 0.24238 0.81885 0.60217 0.0
H1186 H 0.2385 0.81438 0.664 0.0
H1187 H 0.22162 0.80503 0.62261 0.0
H1188 H 0.19575 0.74088 0.63123 0.0
H1189 H 0.19173 0.74123 0.71705 0.0
H1190 H 0.23244 0.79179 0.72375 0.0
C1191 C 0.23593 0.79323 0.52977 0.0
C1192 C 0.22728 0.78364 0.48998 0.0
C1193 C 0.21499 0.76684 0.49639 0.0
C1194 C 0.21105 0.75976 0.54147 0.0
C1195 C 0.21952 0.76961 0.58003 0.0
C1196 C 0.23175 0.78597 0.57479 0.0
C1197 C 0.23779 0.79421 0.62253 0.0
C1198 C 0.25611 0.7995 0.6299 0.0
C1199 C 0.23489 0.80898 0.62814 0.0
C1200 C 0.22669 0.78006 0.65528 0.0
C1201 C 0.21638 0.76594 0.62987 0.0
C1202 C 0.20399 0.75172 0.6516 0.0
C1203 C 0.20179 0.75202 0.70036 0.0
C1204 C 0.21199 0.76639 0.7271 0.0
C1205 C 0.22485 0.78046 0.70437 0.0
H1206 H 0.20495 0.43706 0.53204 0.0
H1207 H 0.25309 0.45329 0.46946 0.0
H1208 H 0.2658 0.45961 0.54847 0.0
H1209 H 0.21942 0.46665 0.63357 0.0
H1210 H 0.20481 0.45128 0.67361 0.0
H1211 H 0.19976 0.45045 0.61199 0.0
H1212 H 0.19423 0.42036 0.60741 0.0
H1213 H 0.19921 0.4211 0.66888 0.0
H1214 H 0.21016 0.41599 0.62582 0.0
H1215 H 0.27291 0.4612 0.63353 0.0
H1216 H 0.27373 0.45675 0.71886 0.0
H1217 H 0.22108 0.43916 0.7284 0.0
C1218 C 0.21823 0.44241 0.535 0.0
C1219 C 0.22808 0.44491 0.49447 0.0
C1220 C 0.24533 0.45139 0.4999 0.0
C1221 C 0.25268 0.45509 0.54468 0.0
C1222 C 0.24262 0.45217 0.58399 0.0
C1223 C 0.22576 0.44596 0.57972 0.0
C1224 C 0.21756 0.44232 0.62793 0.0
C1225 C 0.20994 0.45333 0.63732 0.0
C1226 C 0.20453 0.42385 0.63278 0.0
C1227 C 0.23237 0.44703 0.65979 0.0
C1228 C 0.24673 0.45292 0.63361 0.0
C1229 C 0.2618 0.45687 0.65447 0.0
C1230 C 0.26215 0.45431 0.70305 0.0
C1231 C 0.24754 0.44784 0.73055 0.0
C1232 C 0.23254 0.44457 0.70865 0.0
H1233 H 0.49128 0.907 0.15663 0.0
H1234 H 0.44333 0.89146 0.0934 0.0
H1235 H 0.43094 0.88718 0.17268 0.0
H1236 H 0.47582 0.87918 0.26214 0.0
H1237 H 0.49131 0.89493 0.29951 0.0
H1238 H 0.49571 0.89398 0.23812 0.0
H1239 H 0.50319 0.92456 0.22785 0.0
H1240 H 0.49867 0.92556 0.28889 0.0
H1241 H 0.48825 0.93059 0.24394 0.0
H1242 H 0.42468 0.88859 0.25861 0.0
H1243 H 0.42496 0.89468 0.34348 0.0
H1244 H 0.47698 0.90922 0.35031 0.0
C1245 C 0.47806 0.90215 0.15929 0.0
C1246 C 0.46828 0.89946 0.11856 0.0
C1247 C 0.45108 0.8935 0.12391 0.0
C1248 C 0.44392 0.89103 0.16889 0.0
C1249 C 0.45407 0.89445 0.20828 0.0
C1250 C 0.47074 0.8997 0.20386 0.0
C1251 C 0.47928 0.904 0.2514 0.0
C1252 C 0.48592 0.89232 0.2635 0.0
C1253 C 0.49316 0.92226 0.25309 0.0
C1254 C 0.46495 0.90092 0.28312 0.0
C1255 C 0.45046 0.89524 0.25772 0.0
C1256 C 0.43588 0.89273 0.27896 0.0
C1257 C 0.43617 0.89626 0.3272 0.0
C1258 C 0.45095 0.90229 0.35373 0.0
C1259 C 0.46541 0.90436 0.3313 0.0
H1260 H 0.11352 0.55334 0.118 0.0
H1261 H 0.13359 0.60646 0.12372 0.0
H1262 H 0.13974 0.60634 0.20822 0.0
H1263 H 0.09243 0.54481 0.22266 0.0
H1264 H 0.09583 0.52826 0.24119 0.0
H1265 H 0.09601 0.53275 0.17954 0.0
H1266 H 0.12534 0.5365 0.17119 0.0
H1267 H 0.12522 0.53188 0.23292 0.0
H1268 H 0.14178 0.5509 0.20905 0.0
H1269 H 0.13975 0.60009 0.29359 0.0
H1270 H 0.13389 0.58817 0.37363 0.0
H1271 H 0.11367 0.53895 0.31427 0.0
C1272 C 0.11984 0.56502 0.13664 0.0
C1273 C 0.12336 0.57997 0.11403 0.0
C1274 C 0.13098 0.59491 0.14014 0.0
C1275 C 0.13453 0.59496 0.18819 0.0
C1276 C 0.13036 0.57996 0.20989 0.0
C1277 C 0.12329 0.56525 0.18495 0.0
C1278 C 0.11829 0.55064 0.21783 0.0
C1279 C 0.09953 0.5384 0.21514 0.0
C1280 C 0.12826 0.54197 0.20711 0.0
C1281 C 0.12313 0.55936 0.26519 0.0
C1282 C 0.13028 0.5763 0.25967 0.0
C1283 C 0.13449 0.58688 0.29831 0.0
C1284 C 0.13108 0.57999 0.3437 0.0
C1285 C 0.12353 0.56266 0.35033 0.0
C1286 C 0.11984 0.55228 0.31043 0.0
H1287 H 0.46057 0.56149 0.12076 0.0
H1288 H 0.40989 0.52113 0.12964 0.0
H1289 H 0.40993 0.52556 0.21534 0.0
H1290 H 0.474 0.55089 0.2208 0.0
H1291 H 0.4881 0.57163 0.2408 0.0
H1292 H 0.48328 0.56772 0.17916 0.0
H1293 H 0.47376 0.58947 0.17755 0.0
H1294 H 0.4787 0.59358 0.23925 0.0
H1295 H 0.45821 0.58774 0.2186 0.0
H1296 H 0.41652 0.53136 0.30024 0.0
H1297 H 0.4291 0.53838 0.37928 0.0
H1298 H 0.47589 0.57492 0.31775 0.0
C1299 C 0.44929 0.55409 0.14058 0.0
C1300 C 0.43508 0.5412 0.11849 0.0
C1301 C 0.42079 0.53123 0.14581 0.0
C1302 C 0.42071 0.53366 0.19451 0.0
C1303 C 0.43507 0.54607 0.21562 0.0
C1304 C 0.4491 0.55621 0.18962 0.0
C1305 C 0.46345 0.5673 0.22184 0.0
C1306 C 0.47806 0.56419 0.21525 0.0
C1307 C 0.46885 0.58561 0.21383 0.0
C1308 C 0.45542 0.56144 0.26989 0.0
C1309 C 0.43899 0.54932 0.26531 0.0
C1310 C 0.42928 0.54105 0.30431 0.0
C1311 C 0.43656 0.54509 0.34912 0.0
C1312 C 0.45342 0.55731 0.35484 0.0
C1313 C 0.46287 0.56578 0.31463 0.0
H1314 H 0.11259 0.57653 0.81588 0.0
H1315 H 0.12203 0.53946 0.87743 0.0
H1316 H 0.12734 0.53221 0.79839 0.0
H1317 H 0.09021 0.55277 0.71962 0.0
H1318 H 0.09794 0.56953 0.67777 0.0
H1319 H 0.0973 0.57363 0.73941 0.0
H1320 H 0.12868 0.59504 0.7378 0.0
H1321 H 0.12941 0.59098 0.67601 0.0
H1322 H 0.14305 0.58887 0.71684 0.0
H1323 H 0.1281 0.52638 0.71327 0.0
H1324 H 0.12393 0.52219 0.62743 0.0
H1325 H 0.11445 0.56314 0.61889 0.0
C1326 C 0.11623 0.56722 0.81276 0.0
C1327 C 0.11705 0.55867 0.85301 0.0
C1328 C 0.1214 0.54624 0.84727 0.0
C1329 C 0.12451 0.54206 0.80245 0.0
C1330 C 0.12325 0.55043 0.76343 0.0
C1331 C 0.11927 0.5628 0.76801 0.0
C1332 C 0.11723 0.56874 0.71993 0.0
C1333 C 0.09963 0.566 0.71384 0.0
C1334 C 0.13038 0.58699 0.7122 0.0
C1335 C 0.1202 0.55745 0.68775 0.0
C1336 C 0.12383 0.54713 0.71371 0.0
C1337 C 0.12561 0.53462 0.69249 0.0
C1338 C 0.12323 0.53234 0.64369 0.0
C1339 C 0.11922 0.54254 0.61637 0.0
C1340 C 0.11807 0.55552 0.63865 0.0
H1341 H 0.43613 0.53609 0.81521 0.0
H1342 H 0.46399 0.58532 0.87523 0.0
H1343 H 0.47031 0.59735 0.79538 0.0
H1344 H 0.46381 0.54256 0.7257 0.0
H1345 H 0.44865 0.5304 0.68161 0.0
H1346 H 0.44381 0.52575 0.743 0.0
H1347 H 0.4179 0.52889 0.73315 0.0
H1348 H 0.42266 0.53353 0.67154 0.0
H1349 H 0.42012 0.54775 0.7088 0.0
H1350 H 0.47704 0.60382 0.71033 0.0
H1351 H 0.48373 0.60423 0.62604 0.0
H1352 H 0.45145 0.55099 0.61931 0.0
C1353 C 0.44307 0.54943 0.8115 0.0
C1354 C 0.44939 0.55979 0.85157 0.0
C1355 C 0.45891 0.57715 0.84517 0.0
C1356 C 0.46253 0.58411 0.79988 0.0
C1357 C 0.45655 0.57357 0.76108 0.0
C1358 C 0.44694 0.55659 0.76633 0.0
C1359 C 0.44354 0.54797 0.71884 0.0
C1360 C 0.45036 0.53597 0.71721 0.0
C1361 C 0.42495 0.53901 0.70741 0.0
C1362 C 0.45319 0.56269 0.68635 0.0
C1363 C 0.46043 0.57735 0.71148 0.0
C1364 C 0.47116 0.59246 0.69012 0.0
C1365 C 0.47489 0.59258 0.64219 0.0
C1366 C 0.4679 0.57771 0.61584 0.0
C1367 C 0.45659 0.56263 0.63812 0.0
H1368 H 0.4819 0.91036 0.81852 0.0
H1369 H 0.43323 0.89303 0.87882 0.0
H1370 H 0.42083 0.88563 0.79951 0.0
H1371 H 0.47633 0.93026 0.72373 0.0
H1372 H 0.48787 0.92555 0.68168 0.0
H1373 H 0.49258 0.92656 0.74339 0.0
H1374 H 0.48802 0.8968 0.73992 0.0
H1375 H 0.48322 0.89569 0.67803 0.0
H1376 H 0.4687 0.88017 0.71789 0.0
H1377 H 0.41411 0.88355 0.7146 0.0
H1378 H 0.41366 0.88848 0.62947 0.0
H1379 H 0.46661 0.90755 0.62213 0.0
C1380 C 0.46858 0.90452 0.81503 0.0
C1381 C 0.45847 0.90204 0.85482 0.0
C1382 C 0.44117 0.89492 0.84882 0.0
C1383 C 0.43401 0.89059 0.80393 0.0
C1384 C 0.44432 0.89351 0.76524 0.0
C1385 C 0.46125 0.90035 0.77021 0.0
C1386 C 0.46972 0.90413 0.72245 0.0
C1387 C 0.48236 0.92273 0.71754 0.0
C1388 C 0.4779 0.89356 0.71409 0.0
C1389 C 0.45498 0.89892 0.69001 0.0
C1390 C 0.44042 0.89251 0.71552 0.0
C1391 C 0.42536 0.88824 0.69413 0.0
C1392 C 0.42522 0.89108 0.64573 0.0
C1393 C 0.44004 0.89817 0.61909 0.0
C1394 C 0.45502 0.90165 0.64133 0.0
H1395 H 0.2303 0.43829 0.22798 0.0
H1396 H 0.19628 0.45717 0.21918 0.0
H1397 H 0.20165 0.46176 0.13394 0.0
H1398 H 0.25985 0.46558 0.13309 0.0
H1399 H 0.26279 0.44905 0.11145 0.0
H1400 H 0.25866 0.45 0.17308 0.0
H1401 H 0.23366 0.42018 0.16849 0.0
H1402 H 0.23758 0.41919 0.1069 0.0
H1403 H 0.21755 0.41543 0.1259 0.0
H1404 H 0.20699 0.46019 0.04892 0.0
H1405 H 0.21301 0.4537 0.96964 0.0
H1406 H 0.24402 0.43618 0.03124 0.0
C1407 C 0.22453 0.44403 0.20839 0.0
C1408 C 0.21305 0.44762 0.23043 0.0
C1409 C 0.20524 0.45449 0.2032 0.0
C1410 C 0.20821 0.45715 0.1547 0.0
C1411 C 0.21907 0.45289 0.13364 0.0
C1412 C 0.22728 0.44664 0.15957 0.0
C1413 C 0.23701 0.44157 0.12735 0.0
C1414 C 0.25569 0.45218 0.13681 0.0
C1415 C 0.23109 0.42299 0.13248 0.0
C1416 C 0.23254 0.44543 0.07933 0.0
C1417 C 0.22229 0.45208 0.08395 0.0
C1418 C 0.21531 0.45533 0.04485 0.0
C1419 C 0.21875 0.45154 0.99992 0.0
C1420 C 0.22916 0.44467 0.99415 0.0
C1421 C 0.23636 0.44183 0.03446 0.0
H1422 H 0.57956 0.77675 0.01473 0.0
H1423 H 0.5619 0.81176 0.02482 0.0
H1424 H 0.55571 0.80491 0.10934 0.0
H1425 H 0.55032 0.74597 0.09994 0.0
H1426 H 0.56594 0.74189 0.12304 0.0
H1427 H 0.56676 0.74788 0.0623 0.0
H1428 H 0.59664 0.77228 0.07473 0.0
H1429 H 0.59591 0.76634 0.13529 0.0
H1430 H 0.60059 0.78707 0.12093 0.0
H1431 H 0.55399 0.79605 0.1947 0.0
H1432 H 0.55838 0.78732 0.27305 0.0
H1433 H 0.57753 0.75848 0.20607 0.0
C1434 C 0.57404 0.78273 0.03437 0.0
C1435 C 0.57108 0.7947 0.01305 0.0
C1436 C 0.56418 0.80247 0.04033 0.0
C1437 C 0.56057 0.79861 0.08832 0.0
C1438 C 0.5639 0.78692 0.10842 0.0
C1439 C 0.57048 0.7791 0.08218 0.0
C1440 C 0.57439 0.76819 0.1127 0.0
C1441 C 0.56371 0.7499 0.09865 0.0
C1442 C 0.59298 0.77382 0.1108 0.0
C1443 C 0.56944 0.77143 0.16053 0.0
C1444 C 0.56315 0.78204 0.15738 0.0
C1445 C 0.5587 0.78757 0.19746 0.0
C1446 C 0.5612 0.7825 0.24187 0.0
C1447 C 0.56826 0.77216 0.24584 0.0
C1448 C 0.57197 0.76626 0.20439 0.0
H1449 H 0.22146 0.78088 0.22525 0.0
H1450 H 0.27474 0.81292 0.22022 0.0
H1451 H 0.27468 0.8062 0.1361 0.0
H1452 H 0.21836 0.74948 0.1355 0.0
H1453 H 0.19962 0.74751 0.11099 0.0
H1454 H 0.20415 0.75208 0.17271 0.0
H1455 H 0.20124 0.77812 0.16323 0.0
H1456 H 0.19683 0.77373 0.1016 0.0
H1457 H 0.21369 0.79352 0.11995 0.0
H1458 H 0.26855 0.7997 0.05091 0.0
H1459 H 0.25683 0.79394 0.9707 0.0
H1460 H 0.20733 0.7662 0.02918 0.0
C1461 C 0.23317 0.78591 0.20688 0.0
C1462 C 0.24816 0.79719 0.22952 0.0
C1463 C 0.26316 0.8041 0.20376 0.0
C1464 C 0.26324 0.80033 0.15595 0.0
C1465 C 0.2482 0.78965 0.13417 0.0
C1466 C 0.23343 0.78244 0.15881 0.0
C1467 C 0.21882 0.77304 0.12578 0.0
C1468 C 0.2097 0.75442 0.13691 0.0
C1469 C 0.20696 0.78003 0.12777 0.0
C1470 C 0.22764 0.77659 0.07862 0.0
C1471 C 0.24461 0.78598 0.08443 0.0
C1472 C 0.25532 0.79206 0.04599 0.0
C1473 C 0.24854 0.78875 1.00049 0.0
C1474 C 0.23118 0.77944 0.99357 0.0
C1475 C 0.22066 0.77298 0.03327 0.0
H1476 H 0.19417 0.23398 0.22951 0.0
H1477 H 0.20987 0.24454 0.3754 0.0
H1478 H 0.22613 0.23049 0.36583 0.0
H1479 H 0.19029 0.19416 0.22256 0.0
H1480 H 0.19874 0.19679 0.16402 0.0
H1481 H 0.18848 0.20795 0.18161 0.0
H1482 H 0.21457 0.23568 0.15963 0.0
H1483 H 0.22489 0.22459 0.14168 0.0
H1484 H 0.23427 0.24079 0.18513 0.0
H1485 H 0.23838 0.21286 0.3431 0.0
H1486 H 0.24899 0.19608 0.30537 0.0
H1487 H 0.22808 0.19922 0.17201 0.0
C1488 C 0.20118 0.23346 0.25923 0.0
C1489 C 0.20071 0.24035 0.30328 0.0
C1490 C 0.2101 0.23947 0.34127 0.0
C1491 C 0.21932 0.23143 0.33626 0.0
C1492 C 0.21937 0.22459 0.2927 0.0
C1493 C 0.21085 0.22582 0.25451 0.0
C1494 C 0.21333 0.21766 0.21134 0.0
C1495 C 0.19672 0.20328 0.19387 0.0
C1496 C 0.2223 0.23045 0.17213 0.0
C1497 C 0.22427 0.21138 0.23156 0.0
C1498 C 0.22741 0.21535 0.27875 0.0
C1499 C 0.23627 0.20995 0.30596 0.0
C1500 C 0.24219 0.20038 0.28433 0.0
C1501 C 0.23956 0.19658 0.23575 0.0
C1502 C 0.23054 0.20224 0.20904 0.0
H1503 H 0.78199 0.96868 0.23661 0.0
H1504 H 0.77784 0.97318 0.38748 0.0
H1505 H 0.79102 1.00346 0.37943 0.0
H1506 H 0.82105 1.00521 0.22022 0.0
H1507 H 0.81576 0.01103 0.16517 0.0
H1508 H 0.80573 0.98957 0.18222 0.0
H1509 H 0.77707 0.9874 0.17337 0.0
H1510 H 0.78702 0.00886 0.15619 0.0
H1511 H 0.7728 1.00159 0.20513 0.0
H1512 H 0.80715 0.03342 0.35662 0.0
H1513 H 0.82235 0.061 0.31883 0.0
H1514 H 0.81368 0.03762 0.18183 0.0
C1515 C 0.78375 0.97606 0.26782 0.0
C1516 C 0.77889 0.96851 0.31274 0.0
C1517 C 0.78135 0.97861 0.35269 0.0
C1518 C 0.7889 0.99586 0.34852 0.0
C1519 C 0.79366 1.00294 0.30398 0.0
C1520 C 0.79093 0.99338 0.26415 0.0
C1521 C 0.79705 1.00422 0.22042 0.0
C1522 C 0.81071 1.0024 0.19555 0.0
C1523 C 0.78262 1.00028 0.18679 0.0
C1524 C 0.80393 0.02134 0.24209 0.0
C1525 C 0.80199 0.02028 0.29044 0.0
C1526 C 0.80843 0.0344 0.3187 0.0
C1527 C 0.81706 0.05 0.29702 0.0
C1528 C 0.81885 0.05141 0.2475 0.0
C1529 C 0.81208 0.03687 0.2197 0.0
H1530 H 0.9825 0.78818 0.1722 0.0
H1531 H 0.95898 0.76866 0.30709 0.0
H1532 H 0.98648 0.77868 0.34354 0.0
H1533 H 0.01675 0.78043 0.18408 0.0
H1534 H 0.03166 0.7997 0.15717 0.0
H1535 H 0.01014 0.79005 0.14077 0.0
H1536 H 0.00984 0.81689 0.16228 0.0
H1537 H 0.03136 0.82664 0.17851 0.0
H1538 H 0.01633 0.82568 0.22024 0.0
H1539 H 0.01642 0.78996 0.36466 0.0
H1540 H 0.04685 0.80511 0.37222 0.0
H1541 H 0.05145 0.82006 0.22571 0.0
C1542 C 0.98319 0.78592 0.20933 0.0
C1543 C 0.96863 0.77745 0.23682 0.0
C1544 C 0.96999 0.77506 0.28546 0.0
C1545 C 0.98554 0.78064 0.30637 0.0
C1546 C 0.99967 0.78892 0.27837 0.0
C1547 C 0.99868 0.79186 0.23109 0.0
C1548 C 0.01585 0.80213 0.20984 0.0
C1549 C 0.01877 0.7925 0.17064 0.0
C1550 C 0.0185 0.81882 0.19166 0.0
C1551 C 0.02664 0.80445 0.25248 0.0
C1552 C 0.01702 0.79644 0.29136 0.0
C1553 C 0.02407 0.79638 0.33455 0.0
C1554 C 0.0414 0.80496 0.33841 0.0
C1555 C 0.05156 0.81381 0.29964 0.0
C1556 C 0.04402 0.81347 0.25603 0.0
H1557 H 0.81404 0.78301 0.67511 0.0
H1558 H 0.81122 0.75809 0.80646 0.0
H1559 H 0.7936 0.76842 0.84043 0.0
H1560 H 0.81854 0.81968 0.72993 0.0
H1561 H 0.80686 0.8234 0.68588 0.0
H1562 H 0.81777 0.8127 0.67028 0.0
H1563 H 0.79051 0.78808 0.6386 0.0
H1564 H 0.7795 0.79869 0.65427 0.0
H1565 H 0.77266 0.77817 0.67659 0.0
H1566 H 0.77606 0.78111 0.85962 0.0
H1567 H 0.76302 0.79835 0.86748 0.0
H1568 H 0.77953 0.8178 0.72671 0.0
C1569 C 0.80948 0.77958 0.71079 0.0
C1570 C 0.81366 0.7695 0.73807 0.0
C1571 C 0.80797 0.76565 0.78503 0.0
C1572 C 0.79793 0.77142 0.80446 0.0
C1573 C 0.79401 0.78136 0.77678 0.0
C1574 C 0.79984 0.78568 0.73124 0.0
C1575 C 0.79501 0.79774 0.71067 0.0
C1576 C 0.81046 0.81436 0.69849 0.0
C1577 C 0.78375 0.79022 0.66747 0.0
C1578 C 0.78556 0.79952 0.75176 0.0
C1579 C 0.78486 0.78967 0.78909 0.0
C1580 C 0.77661 0.78893 0.8307 0.0
C1581 C 0.76915 0.79874 0.83471 0.0
C1582 C 0.77023 0.80947 0.79778 0.0
C1583 C 0.77849 0.80975 0.75559 0.0
H1584 H 0.23988 0.04955 0.78854 0.0
H1585 H 0.25037 0.04498 0.64215 0.0
H1586 H 0.23568 0.01459 0.65022 0.0
H1587 H 0.24574 0.01548 0.83078 0.0
H1588 H 0.22954 0.00873 0.87423 0.0
H1589 H 0.24102 0.03021 0.85722 0.0
H1590 H 0.2136 0.02935 0.83582 0.0
H1591 H 0.20205 0.00785 0.85246 0.0
H1592 H 0.19964 0.01413 0.79432 0.0
H1593 H 0.21749 0.98462 0.67171 0.0
H1594 H 0.20031 0.95711 0.70841 0.0
H1595 H 0.20389 0.98064 0.84298 0.0
C1596 C 0.23921 0.04213 0.75838 0.0
C1597 C 0.24626 0.04967 0.71464 0.0
C1598 C 0.24518 0.03954 0.67606 0.0
C1599 C 0.23677 0.02223 0.68022 0.0
C1600 C 0.22978 0.01516 0.72352 0.0
C1601 C 0.23121 0.02477 0.76225 0.0
C1602 C 0.22285 0.01397 0.805 0.0
C1603 C 0.23555 0.0173 0.84412 0.0
C1604 C 0.2087 0.01648 0.82294 0.0
C1605 C 0.21625 0.99682 0.78396 0.0
C1606 C 0.22021 0.99782 0.73672 0.0
C1607 C 0.21458 0.98368 0.70888 0.0
C1608 C 0.20477 0.96812 0.72992 0.0
C1609 C 0.20099 0.96676 0.77855 0.0
C1610 C 0.20688 0.98132 0.80589 0.0
H1611 H 0.9821 0.19866 0.67217 0.0
H1612 H 0.95844 0.19388 0.80724 0.0
H1613 H 0.98595 0.21074 0.84441 0.0
H1614 H 0.01531 0.19378 0.71905 0.0
H1615 H 0.03058 0.208 0.67809 0.0
H1616 H 1.00907 0.19675 0.66145 0.0
H1617 H 0.01008 0.22439 0.6421 0.0
H1618 H 0.03159 0.23573 0.65895 0.0
H1619 H 0.0169 0.24028 0.68655 0.0
H1620 H 0.01593 0.22879 0.86624 0.0
H1621 H 0.0463 0.24324 0.87447 0.0
H1622 H 0.05096 0.23389 0.72711 0.0
C1623 C 0.98276 0.20132 0.70949 0.0
C1624 C 0.96817 0.1952 0.73686 0.0
C1625 C 0.96948 0.19853 0.78574 0.0
C1626 C 0.98503 0.20815 0.80704 0.0
C1627 C 0.9992 0.21404 0.77914 0.0
C1628 C 0.99824 0.21048 0.73161 0.0
C1629 C 0.01542 0.21721 0.71051 0.0
C1630 C 0.01773 0.2031 0.69114 0.0
C1631 C 0.01868 0.23017 0.67226 0.0
C1632 C 0.02618 0.22516 0.75355 0.0
C1633 C 0.01654 0.22346 0.79248 0.0
C1634 C 0.02358 0.23009 0.83607 0.0
C1635 C 0.04089 0.23838 0.84031 0.0
C1636 C 0.05105 0.2397 0.8015 0.0
C1637 C 0.04354 0.23306 0.75744 0.0
H1638 H 0.86238 0.56629 0.5756 0.0
H1639 H 0.87049 0.56829 0.72654 0.0
H1640 H 0.88592 0.55339 0.71665 0.0
H1641 H 0.85709 0.52614 0.55533 0.0
H1642 H 0.86833 0.53146 0.50048 0.0
H1643 H 0.85793 0.5424 0.51897 0.0
H1644 H 0.88544 0.57028 0.51224 0.0
H1645 H 0.89592 0.55943 0.49357 0.0
H1646 H 0.90344 0.57306 0.54376 0.0
H1647 H 0.89849 0.53629 0.69154 0.0
H1648 H 0.91013 0.52081 0.65158 0.0
H1649 H 0.89643 0.53191 0.51618 0.0
C1650 C 0.8675 0.56366 0.60646 0.0
C1651 C 0.86517 0.56843 0.65191 0.0
C1652 C 0.87215 0.56485 0.69138 0.0
C1653 C 0.8809 0.55632 0.68616 0.0
C1654 C 0.88287 0.55168 0.64108 0.0
C1655 C 0.87664 0.55546 0.60177 0.0
C1656 C 0.88091 0.54933 0.55724 0.0
C1657 C 0.86512 0.53657 0.5315 0.0
C1658 C 0.89209 0.56389 0.52479 0.0
C1659 C 0.89024 0.5413 0.57781 0.0
C1660 C 0.89105 0.54265 0.62632 0.0
C1661 C 0.89817 0.53538 0.65352 0.0
C1662 C 0.9047 0.52657 0.63057 0.0
C1663 C 0.90439 0.52536 0.58086 0.0
C1664 C 0.89713 0.53292 0.55421 0.0
H1665 H 0.44922 0.30368 0.57085 0.0
H1666 H 0.44991 0.30865 0.72291 0.0
H1667 H 0.46424 0.33902 0.71491 0.0
H1668 H 0.48862 0.33909 0.54708 0.0
H1669 H 0.48212 0.34525 0.49479 0.0
H1670 H 0.4718 0.32379 0.51203 0.0
H1671 H 0.44363 0.323 0.51213 0.0
H1672 H 0.45387 0.34445 0.49476 0.0
H1673 H 0.44121 0.3378 0.54704 0.0
H1674 H 0.48082 0.36892 0.69109 0.0
H1675 H 0.49559 0.39636 0.65228 0.0
H1676 H 0.48175 0.37256 0.51563 0.0
C1677 C 0.45231 0.31119 0.60237 0.0
C1678 C 0.44847 0.30375 0.64756 0.0
C1679 C 0.45263 0.31401 0.68794 0.0
C1680 C 0.46084 0.33131 0.68379 0.0
C1681 C 0.46455 0.33827 0.63892 0.0
C1682 C 0.46017 0.32856 0.59883 0.0
C1683 C 0.46532 0.33929 0.55484 0.0
C1684 C 0.4777 0.3367 0.52546 0.0
C1685 C 0.4501 0.33593 0.52546 0.0
C1686 C 0.47354 0.3565 0.57654 0.0
C1687 C 0.47313 0.3556 0.62514 0.0
C1688 C 0.48094 0.36979 0.65307 0.0
C1689 C 0.48932 0.38531 0.6308 0.0
C1690 C 0.48952 0.38657 0.58114 0.0
C1691 C 0.48143 0.37195 0.55374 0.0
H1692 H 0.63692 0.11056 0.62175 0.0
H1693 H 0.64035 0.10452 0.4714 0.0
H1694 H 0.67075 0.11815 0.47772 0.0
H1695 H 0.67324 0.14993 0.63419 0.0
H1696 H 0.67954 0.14538 0.68959 0.0
H1697 H 0.65796 0.13496 0.67375 0.0
H1698 H 0.65617 0.10655 0.68504 0.0
H1699 H 0.67775 0.11689 0.70113 0.0
H1700 H 0.67031 0.10213 0.65352 0.0
H1701 H 0.70094 0.13501 0.49875 0.0
H1702 H 0.72876 0.15065 0.5351 0.0
H1703 H 0.70615 0.14315 0.67298 0.0
C1704 C 0.64409 0.11199 0.5903 0.0
C1705 C 0.63623 0.10649 0.54601 0.0
C1706 C 0.64604 0.10852 0.50572 0.0
C1707 C 0.66336 0.11633 0.50891 0.0
C1708 C 0.67075 0.12176 0.55286 0.0
C1709 C 0.66144 0.11938 0.59306 0.0
C1710 C 0.67255 0.12608 0.6361 0.0
C1711 C 0.67071 0.13991 0.65979 0.0
C1712 C 0.66898 0.11208 0.67101 0.0
C1713 C 0.68953 0.13287 0.61363 0.0
C1714 C 0.68819 0.13043 0.56546 0.0
C1715 C 0.70215 0.13669 0.53655 0.0
C1716 C 0.71788 0.14558 0.5574 0.0
C1717 C 0.71956 0.1478 0.60677 0.0
C1718 C 0.70519 0.14127 0.63521 0.0
H1719 H 0.44592 0.15098 0.06459 0.0
H1720 H 0.43455 0.13564 0.21056 0.0
H1721 H 0.44877 0.11947 0.20305 0.0
H1722 H 0.43949 0.11076 0.02222 0.0
H1723 H 0.45591 0.12007 0.97936 0.0
H1724 H 0.44464 0.13035 0.99584 0.0
H1725 H 0.47219 0.1566 0.01818 0.0
H1726 H 0.48353 0.14638 1.00203 0.0
H1727 H 0.48581 0.155 0.06022 0.0
H1728 H 0.46682 0.10744 0.18249 0.0
H1729 H 0.4842 0.09712 0.14679 0.0
H1730 H 0.48139 0.11729 0.01183 0.0
C1731 C 0.4463 0.14407 0.09476 0.0
C1732 C 0.43913 0.14462 0.13824 0.0
C1733 C 0.43983 0.13535 0.17685 0.0
C1734 C 0.44796 0.12617 0.173 0.0
C1735 C 0.45507 0.12603 0.12997 0.0
C1736 C 0.45401 0.13442 0.09117 0.0
C1737 C 0.46244 0.13186 0.04877 0.0
C1738 C 0.44987 0.12271 1.00921 0.0
C1739 C 0.47684 0.14845 0.03129 0.0
C1740 C 0.46869 0.12105 0.07012 0.0
C1741 C 0.46447 0.11803 0.1172 0.0
C1742 C 0.4699 0.10942 0.14542 0.0
C1743 C 0.47979 0.10365 0.12496 0.0
C1744 C 0.48384 0.10615 0.07653 0.0
C1745 C 0.47812 0.11488 0.04874 0.0
H1746 H 0.90465 0.37123 0.01049 0.0
H1747 H 0.91613 0.39459 0.1479 0.0
H1748 H 0.90294 0.367 0.18588 0.0
H1749 H 0.86415 0.33869 0.04297 0.0
H1750 H 0.8648 0.32316 1.00673 0.0
H1751 H 0.87654 0.34465 0.99014 0.0
H1752 H 0.90334 0.34282 0.98785 0.0
H1753 H 0.89168 0.3213 1.00445 0.0
H1754 H 0.90928 0.33558 0.03907 0.0
H1755 H 0.88894 0.33706 0.20885 0.0
H1756 H 0.87215 0.30672 0.2163 0.0
H1757 H 0.86682 0.30223 0.06432 0.0
C1758 C 0.90459 0.37047 0.04856 0.0
C1759 C 0.91168 0.38501 0.07643 0.0
C1760 C 0.91091 0.3836 0.12607 0.0
C1761 C 0.90348 0.36799 0.14787 0.0
C1762 C 0.89652 0.35388 0.11952 0.0
C1763 C 0.89675 0.35494 0.07095 0.0
C1764 C 0.88715 0.33781 0.04893 0.0
C1765 C 0.87228 0.33598 0.02052 0.0
C1766 C 0.89855 0.33417 0.01826 0.0
C1767 C 0.88154 0.32697 0.09269 0.0
C1768 C 0.88737 0.33654 0.13292 0.0
C1769 C 0.88422 0.32945 0.17761 0.0
C1770 C 0.87471 0.31217 0.18144 0.0
C1771 C 0.86811 0.30206 0.14095 0.0
C1772 C 0.87161 0.30962 0.09593 0.0
H1773 H 0.71332 0.55279 0.11825 0.0
H1774 H 0.7199 0.60191 0.13554 0.0
H1775 H 0.69053 0.59114 0.11397 0.0
H1776 H 0.6846 0.53929 0.02099 0.0
H1777 H 0.67217 0.51847 0.04285 0.0
H1778 H 0.69387 0.53023 0.05722 0.0
H1779 H 0.68665 0.52549 0.14604 0.0
H1780 H 0.66492 0.51379 0.13196 0.0
H1781 H 0.67256 0.53142 0.17065 0.0
H1782 H 0.66082 0.57522 0.08639 0.0
H1783 H 0.63222 0.55487 0.06203 0.0
H1784 H 0.6439 0.51545 0.0716 0.0
C1785 C 0.70858 0.56128 0.11702 0.0
C1786 C 0.71891 0.57824 0.12786 0.0
C1787 C 0.71221 0.58891 0.12706 0.0
C1788 C 0.69556 0.5829 0.11483 0.0
C1789 C 0.68565 0.56609 0.10459 0.0
C1790 C 0.69185 0.55537 0.10623 0.0
C1791 C 0.67835 0.53772 0.096 0.0
C1792 C 0.6825 0.53104 0.05162 0.0
C1793 C 0.67545 0.52644 0.13871 0.0
C1794 C 0.66365 0.5402 0.08776 0.0
C1795 C 0.66821 0.55671 0.09226 0.0
C1796 C 0.65705 0.56223 0.08351 0.0
C1797 C 0.64086 0.55061 0.0697 0.0
C1798 C 0.63582 0.53361 0.06587 0.0
C1799 C 0.64734 0.52834 0.07542 0.0
H1800 H 0.53726 0.89714 0.01104 0.0
H1801 H 0.52337 0.90892 0.87695 0.0
H1802 H 0.53751 0.89619 0.83526 0.0
H1803 H 0.57735 0.90305 0.97672 0.0
H1804 H 0.57508 0.88552 0.00977 0.0
H1805 H 0.56481 0.89649 0.02926 0.0
H1806 H 0.53665 0.86913 0.02833 0.0
H1807 H 0.54683 0.85808 1.0089 0.0
H1808 H 0.52992 0.85696 0.97515 0.0
H1809 H 0.5538 0.88296 0.80817 0.0
H1810 H 0.56841 0.8673 0.79681 0.0
H1811 H 0.56962 0.86146 0.94814 0.0
C1812 C 0.53736 0.89716 0.9729 0.0
C1813 C 0.52942 0.90421 0.9471 0.0
C1814 C 0.52944 0.90366 0.8973 0.0
C1815 C 0.53749 0.8965 0.87336 0.0
C1816 C 0.54518 0.88963 0.89973 0.0
C1817 C 0.54497 0.88964 0.94839 0.0
C1818 C 0.55328 0.88045 0.96812 0.0
C1819 C 0.56854 0.89208 0.99772 0.0
C1820 C 0.54093 0.86525 0.99682 0.0
C1821 C 0.55825 0.87534 0.92295 0.0
C1822 C 0.55368 0.88103 0.884 0.0
C1823 C 0.55732 0.87834 0.83839 0.0
C1824 C 0.5657 0.86948 0.83232 0.0
C1825 C 0.57011 0.86309 0.87153 0.0
C1826 C 0.56631 0.86609 0.91748 0.0
H1827 H 0.12489 0.64668 1.00694 0.0
H1828 H 0.10405 0.62315 0.87306 0.0
H1829 H 0.11409 0.65071 0.83667 0.0
H1830 H 0.11783 0.68142 0.99709 0.0
H1831 H 0.13746 0.69611 0.0227 0.0
H1832 H 0.12762 0.67459 0.03922 0.0
H1833 H 0.15395 0.67369 0.01514 0.0
H1834 H 0.1639 0.69522 0.99883 0.0
H1835 H 0.16225 0.68003 0.95662 0.0
H1836 H 0.12546 0.68074 0.81584 0.0
H1837 H 0.14105 0.71114 0.8079 0.0
H1838 H 0.15755 0.71564 0.95281 0.0
C1839 C 0.12235 0.64738 0.97005 0.0
C1840 C 0.11348 0.63282 0.94282 0.0
C1841 C 0.11074 0.63417 0.89445 0.0
C1842 C 0.11633 0.64976 0.87362 0.0
C1843 C 0.125 0.6639 0.9014 0.0
C1844 C 0.12833 0.66289 0.94832 0.0
C1845 C 0.13905 0.68005 0.96924 0.0
C1846 C 0.12994 0.68322 1.00945 0.0
C1847 C 0.15578 0.68238 0.98593 0.0
C1848 C 0.14118 0.69087 0.92682 0.0
C1849 C 0.13265 0.68127 0.8884 0.0
C1850 C 0.13229 0.68836 0.84557 0.0
C1851 C 0.14112 0.70567 0.84152 0.0
C1852 C 0.15055 0.7158 0.87967 0.0
C1853 C 0.15049 0.70824 0.92299 0.0
H1854 H 0.31493 0.45144 0.84101 0.0
H1855 H 0.29147 0.43166 0.97573 0.0
H1856 H 0.31905 0.44213 0.01238 0.0
H1857 H 0.34985 0.44471 0.85302 0.0
H1858 H 0.36445 0.46415 0.82626 0.0
H1859 H 0.34293 0.45406 0.80971 0.0
H1860 H 0.34185 0.48049 0.83131 0.0
H1861 H 0.36338 0.49068 0.84766 0.0
H1862 H 0.34815 0.48929 0.88933 0.0
H1863 H 0.34909 0.45383 0.03348 0.0
H1864 H 0.37948 0.46964 0.04134 0.0
H1865 H 0.38392 0.48487 0.89515 0.0
C1866 C 0.31566 0.44922 0.87814 0.0
C1867 C 0.30111 0.44053 0.90556 0.0
C1868 C 0.30249 0.43821 0.95421 0.0
C1869 C 0.31808 0.44404 0.97519 0.0
C1870 C 0.33221 0.45254 0.94724 0.0
C1871 C 0.33118 0.45545 0.89998 0.0
C1872 C 0.34832 0.46607 0.87885 0.0
C1873 C 0.35157 0.45668 0.83964 0.0
C1874 C 0.35055 0.48261 0.86073 0.0
C1875 C 0.35916 0.46862 0.92154 0.0
C1876 C 0.34958 0.46038 0.9603 0.0
C1877 C 0.35669 0.46043 1.00347 0.0
C1878 C 0.374 0.46938 1.00748 0.0
C1879 C 0.38411 0.47853 0.96892 0.0
C1880 C 0.37653 0.47805 0.92528 0.0
H1881 H 0.1156 0.47838 0.5013 0.0
H1882 H 0.10287 0.48906 0.36401 0.0
H1883 H 0.11471 0.47334 0.32618 0.0
H1884 H 0.15516 0.48449 0.46519 0.0
H1885 H 0.15443 0.46856 0.50281 0.0
H1886 H 0.14354 0.47921 0.5194 0.0
H1887 H 0.11624 0.45114 0.52606 0.0
H1888 H 0.12704 0.4404 0.50945 0.0
H1889 H 0.10917 0.43722 0.47644 0.0
H1890 H 0.12736 0.45603 0.30357 0.0
H1891 H 0.14315 0.44142 0.29611 0.0
H1892 H 0.15079 0.44449 0.44736 0.0
C1893 C 0.11512 0.47716 0.46331 0.0
C1894 C 0.10804 0.48462 0.43544 0.0
C1895 C 0.10808 0.48328 0.38585 0.0
C1896 C 0.11474 0.47435 0.36416 0.0
C1897 C 0.12168 0.46718 0.39253 0.0
C1898 C 0.1222 0.46873 0.44099 0.0
C1899 C 0.13164 0.461 0.46293 0.0
C1900 C 0.14711 0.4741 0.48912 0.0
C1901 C 0.12034 0.44658 0.49565 0.0
C1902 C 0.1363 0.45482 0.41925 0.0
C1903 C 0.13012 0.45825 0.37917 0.0
C1904 C 0.13235 0.45339 0.33467 0.0
C1905 C 0.14129 0.44502 0.33084 0.0
C1906 C 0.14826 0.44184 0.37108 0.0
C1907 C 0.14569 0.44682 0.41593 0.0
H1908 H 0.53493 0.64526 0.50711 0.0
H1909 H 0.52785 0.62115 0.37172 0.0
H1910 H 0.54522 0.64846 0.33389 0.0
H1911 H 0.53137 0.6795 0.46197 0.0
H1912 H 0.54636 0.69442 0.50218 0.0
H1913 H 0.53445 0.67296 0.51901 0.0
H1914 H 0.56156 0.67256 0.53575 0.0
H1915 H 0.57356 0.69401 0.51871 0.0
H1916 H 0.57697 0.67871 0.49008 0.0
H1917 H 0.56421 0.67834 0.31151 0.0
H1918 H 0.57998 0.70876 0.30343 0.0
H1919 H 0.57231 0.71392 0.45175 0.0
C1920 C 0.53717 0.64577 0.46955 0.0
C1921 C 0.53026 0.6311 0.4423 0.0
C1922 C 0.53309 0.63224 0.39314 0.0
C1923 C 0.543 0.64768 0.37146 0.0
C1924 C 0.54968 0.66192 0.39928 0.0
C1925 C 0.54662 0.66114 0.44711 0.0
C1926 C 0.55425 0.67839 0.46827 0.0
C1927 C 0.54081 0.6815 0.48908 0.0
C1928 C 0.56736 0.68107 0.5054 0.0
C1929 C 0.56215 0.689 0.42494 0.0
C1930 C 0.55963 0.67921 0.38575 0.0
C1931 C 0.56614 0.68611 0.34189 0.0
C1932 C 0.57517 0.70342 0.33772 0.0
C1933 C 0.57735 0.71374 0.37689 0.0
C1934 C 0.57079 0.70637 0.42114 0.0
H1935 H 0.38295 0.90133 0.40088 0.0
H1936 H 0.37637 0.90539 0.55064 0.0
H1937 H 0.34607 0.88984 0.54028 0.0
H1938 H 0.34817 0.90686 0.36471 0.0
H1939 H 0.34245 0.89257 0.31617 0.0
H1940 H 0.36372 0.90406 0.33516 0.0
H1941 H 0.36398 0.87662 0.34623 0.0
H1942 H 0.3427 0.86505 0.32753 0.0
H1943 H 0.3487 0.8607 0.38371 0.0
H1944 H 0.31648 0.87167 0.51516 0.0
H1945 H 0.28948 0.85523 0.47496 0.0
H1946 H 0.31471 0.86518 0.34042 0.0
C1947 C 0.3751 0.89905 0.43135 0.0
C1948 C 0.38206 0.90456 0.47662 0.0
C1949 C 0.37137 0.90139 0.51559 0.0
C1950 C 0.35411 0.89249 0.51012 0.0
C1951 C 0.34763 0.88708 0.46524 0.0
C1952 C 0.35776 0.8905 0.42632 0.0
C1953 C 0.3475 0.8836 0.38185 0.0
C1954 C 0.35065 0.89761 0.34745 0.0
C1955 C 0.35092 0.87073 0.35847 0.0
C1956 C 0.33009 0.87553 0.40204 0.0
C1957 C 0.33047 0.8775 0.45032 0.0
C1958 C 0.316 0.87029 0.47725 0.0
C1959 C 0.30074 0.86092 0.45421 0.0
C1960 C 0.30001 0.85914 0.40464 0.0
C1961 C 0.3149 0.86661 0.3783 0.0
H1962 H 0.30528 0.15392 0.21434 0.0
H1963 H 0.31011 0.19739 0.1434 0.0
H1964 H 0.33852 0.20513 0.11933 0.0
H1965 H 0.34764 0.17324 0.25729 0.0
H1966 H 0.34918 0.15491 0.24857 0.0
H1967 H 0.32938 0.15305 0.2611 0.0
H1968 H 0.3174 0.13565 0.18525 0.0
H1969 H 0.33723 0.13766 0.17211 0.0
H1970 H 0.32725 0.14407 0.12942 0.0
H1971 H 0.366 0.20773 0.10084 0.0
H1972 H 0.39164 0.20644 0.0945 0.0
H1973 H 0.36931 0.16127 0.17756 0.0
C1974 C 0.31235 0.16517 0.19415 0.0
C1975 C 0.30538 0.17506 0.18084 0.0
C1976 C 0.31511 0.18964 0.15424 0.0
C1977 C 0.33126 0.1941 0.14018 0.0
C1978 C 0.33756 0.18389 0.15304 0.0
C1979 C 0.3285 0.16982 0.17985 0.0
C1980 C 0.33826 0.16106 0.18911 0.0
C1981 C 0.3413 0.16054 0.24216 0.0
C1982 C 0.32951 0.14357 0.16769 0.0
C1983 C 0.35424 0.17238 0.16319 0.0
C1984 C 0.3535 0.18542 0.14249 0.0
C1985 C 0.36673 0.19761 0.117 0.0
C1986 C 0.38126 0.19672 0.11353 0.0
C1987 C 0.38256 0.18373 0.13546 0.0
C1988 C 0.3687 0.17125 0.15997 0.0
H1989 H 0.82063 0.18897 0.13257 0.0
H1990 H 0.86524 0.2292 0.19455 0.0
H1991 H 0.87423 0.20939 0.21739 0.0
H1992 H 0.81358 0.15847 0.21918 0.0
H1993 H 0.80665 0.14157 0.17802 0.0
H1994 H 0.80376 0.15886 0.16487 0.0
H1995 H 0.81955 0.16368 0.08611 0.0
H1996 H 0.82228 0.14626 0.09868 0.0
H1997 H 0.84004 0.16624 0.08642 0.0
H1998 H 0.87784 0.18533 0.23675 0.0
H1999 H 0.87746 0.15893 0.24484 0.0
H2000 H 0.83073 0.13379 0.16921 0.0
C2001 C 0.83239 0.19368 0.15051 0.0
C2002 C 0.84223 0.21073 0.16174 0.0
C2003 C 0.8575 0.21628 0.18532 0.0
C2004 C 0.86268 0.20509 0.19869 0.0
C2005 C 0.85251 0.18836 0.18803 0.0
C2006 C 0.8378 0.18267 0.16393 0.0
C2007 C 0.82929 0.16404 0.15659 0.0
C2008 C 0.81231 0.15522 0.18114 0.0
C2009 C 0.8277 0.15981 0.10381 0.0
C2010 C 0.84148 0.16014 0.18063 0.0
C2011 C 0.85472 0.17439 0.19869 0.0
C2012 C 0.8676 0.17411 0.2225 0.0
C2013 C 0.86722 0.15897 0.22696 0.0
C2014 C 0.85408 0.14419 0.20757 0.0
C2015 C 0.84089 0.1448 0.18472 0.0
H2016 H 0.80398 0.64739 0.17923 0.0
H2017 H 0.82738 0.62521 0.09811 0.0
H2018 H 0.85421 0.65098 0.10479 0.0
H2019 H 0.82867 0.68928 0.13064 0.0
H2020 H 0.82972 0.69917 0.18609 0.0
H2021 H 0.81212 0.67921 0.17287 0.0
H2022 H 0.81721 0.66748 0.24983 0.0
H2023 H 0.83496 0.68734 0.2629 0.0
H2024 H 0.83711 0.6692 0.25971 0.0
H2025 H 0.87889 0.6786 0.12343 0.0
H2026 H 0.89929 0.70709 0.14745 0.0
H2027 H 0.86016 0.71163 0.21646 0.0
C2028 C 0.81468 0.64806 0.16214 0.0
C2029 C 0.81349 0.63421 0.13805 0.0
C2030 C 0.8279 0.63558 0.11678 0.0
C2031 C 0.84325 0.65018 0.12045 0.0
C2032 C 0.84409 0.66341 0.14549 0.0
C2033 C 0.83018 0.66259 0.16555 0.0
C2034 C 0.83463 0.67858 0.19113 0.0
C2035 C 0.82576 0.68706 0.16884 0.0
C2036 C 0.83074 0.67545 0.24403 0.0
C2037 C 0.85317 0.68842 0.18243 0.0
C2038 C 0.85837 0.67941 0.15616 0.0
C2039 C 0.87495 0.68582 0.14385 0.0
C2040 C 0.88649 0.70201 0.15789 0.0
C2041 C 0.88142 0.71168 0.18393 0.0
C2042 C 0.86452 0.70461 0.19671 0.0
H2043 H 0.19614 0.37605 0.37592 0.0
H2044 H 0.1495 0.37012 0.32538 0.0
H2045 H 0.14017 0.34102 0.30531 0.0
H2046 H 0.20087 0.35151 0.28834 0.0
H2047 H 0.20928 0.34238 0.32759 0.0
H2048 H 0.21224 0.36263 0.33998 0.0
H2049 H 0.19899 0.35276 0.42238 0.0
H2050 H 0.1962 0.33254 0.41051 0.0
H2051 H 0.17871 0.33468 0.42718 0.0
H2052 H 0.13644 0.31318 0.28668 0.0
H2053 H 0.13718 0.28737 0.27773 0.0
H2054 H 0.18604 0.31072 0.34176 0.0
C2055 C 0.18388 0.3686 0.36116 0.0
C2056 C 0.17356 0.37545 0.35227 0.0
C2057 C 0.15762 0.36521 0.33278 0.0
C2058 C 0.15224 0.34866 0.32101 0.0
C2059 C 0.16286 0.34245 0.3292 0.0
C2060 C 0.17825 0.352 0.34942 0.0
C2061 C 0.1872 0.34222 0.35459 0.0
C2062 C 0.20335 0.35016 0.32591 0.0
C2063 C 0.19046 0.34044 0.40677 0.0
C2064 C 0.17447 0.3257 0.3337 0.0
C2065 C 0.16059 0.3262 0.31909 0.0
C2066 C 0.14719 0.31261 0.2983 0.0
C2067 C 0.14779 0.29797 0.29326 0.0
C2068 C 0.16166 0.29689 0.3091 0.0
C2069 C 0.17528 0.31109 0.32909 0.0
H2070 H 0.65012 0.79927 0.34031 0.0
H2071 H 0.62794 0.82332 0.41855 0.0
H2072 H 0.65372 0.84999 0.41127 0.0
H2073 H 0.69179 0.82408 0.39064 0.0
H2074 H 0.70203 0.82484 0.33607 0.0
H2075 H 0.68194 0.80736 0.34885 0.0
H2076 H 0.6708 0.81218 0.27039 0.0
H2077 H 0.69079 0.82983 0.25773 0.0
H2078 H 0.67269 0.83208 0.25898 0.0
H2079 H 0.6812 0.87449 0.39194 0.0
H2080 H 0.70987 0.89475 0.36904 0.0
H2081 H 0.71494 0.85523 0.30481 0.0
C2082 C 0.65079 0.81009 0.35659 0.0
C2083 C 0.63689 0.80909 0.37994 0.0
C2084 C 0.63831 0.82365 0.40034 0.0
C2085 C 0.65293 0.83894 0.39632 0.0
C2086 C 0.66619 0.8396 0.37199 0.0
C2087 C 0.6654 0.82556 0.35304 0.0
C2088 C 0.68156 0.82984 0.32864 0.0
C2089 C 0.68982 0.82101 0.35248 0.0
C2090 C 0.67879 0.82574 0.2758 0.0
C2091 C 0.69142 0.84843 0.33672 0.0
C2092 C 0.68225 0.85379 0.3615 0.0
C2093 C 0.68857 0.87044 0.37275 0.0
C2094 C 0.70486 0.88189 0.35931 0.0
C2095 C 0.71474 0.87666 0.33511 0.0
C2096 C 0.70776 0.85968 0.32326 0.0
H2097 H 0.19156 0.81576 0.36779 0.0
H2098 H 0.23168 0.86031 0.30518 0.0
H2099 H 0.21182 0.86929 0.28267 0.0
H2100 H 0.16072 0.80871 0.28188 0.0
H2101 H 0.144 0.80184 0.32368 0.0
H2102 H 0.16131 0.79889 0.33598 0.0
H2103 H 0.16651 0.8147 0.41483 0.0
H2104 H 0.14908 0.8175 0.40309 0.0
H2105 H 0.16914 0.83522 0.41479 0.0
H2106 H 0.18766 0.87298 0.26427 0.0
H2107 H 0.16126 0.87273 0.25785 0.0
H2108 H 0.13644 0.82603 0.3337 0.0
C2109 C 0.19622 0.82748 0.34967 0.0
C2110 C 0.21325 0.83732 0.33823 0.0
C2111 C 0.21876 0.85257 0.31454 0.0
C2112 C 0.20754 0.85773 0.30135 0.0
C2113 C 0.19084 0.84758 0.31232 0.0
C2114 C 0.1852 0.83289 0.33648 0.0
C2115 C 0.16661 0.82444 0.34451 0.0
C2116 C 0.15764 0.80746 0.32005 0.0
C2117 C 0.16261 0.82288 0.39745 0.0
C2118 C 0.16267 0.83666 0.32088 0.0
C2119 C 0.17685 0.84985 0.30231 0.0
C2120 C 0.1765 0.86276 0.27887 0.0
C2121 C 0.16137 0.86246 0.27533 0.0
C2122 C 0.14668 0.84936 0.2953 0.0
C2123 C 0.14736 0.83615 0.31774 0.0
H2124 H 0.70291 0.82815 0.84415 0.0
H2125 H 0.72602 0.87588 0.77369 0.0
H2126 H 0.70018 0.87674 0.78105 0.0
H2127 H 0.66169 0.81239 0.79224 0.0
H2128 H 0.65103 0.80201 0.84551 0.0
H2129 H 0.67119 0.80475 0.83282 0.0
H2130 H 0.68181 0.81933 0.91334 0.0
H2131 H 0.66176 0.81685 0.92596 0.0
H2132 H 0.67991 0.83716 0.92739 0.0
H2133 H 0.67237 0.87327 0.79888 0.0
H2134 H 0.64353 0.86452 0.82081 0.0
H2135 H 0.63808 0.81907 0.87982 0.0
C2136 C 0.70243 0.83863 0.82956 0.0
C2137 C 0.71656 0.85194 0.8083 0.0
C2138 C 0.71543 0.86554 0.79024 0.0
C2139 C 0.70079 0.86618 0.7943 0.0
C2140 C 0.68727 0.85313 0.81651 0.0
C2141 C 0.68785 0.83952 0.83344 0.0
C2142 C 0.67152 0.82729 0.85634 0.0
C2143 C 0.66338 0.81062 0.83015 0.0
C2144 C 0.6739 0.82503 0.90887 0.0
C2145 C 0.66177 0.8362 0.84969 0.0
C2146 C 0.67113 0.85111 0.82677 0.0
C2147 C 0.66488 0.86158 0.81671 0.0
C2148 C 0.64848 0.85654 0.82953 0.0
C2149 C 0.63846 0.84112 0.85214 0.0
C2150 C 0.64537 0.83096 0.86276 0.0
H2151 H 0.16706 0.80213 0.83282 0.0
H2152 H 0.21379 0.82609 0.9084 0.0
H2153 H 0.21443 0.85273 0.90336 0.0
H2154 H 0.17697 0.83514 0.75281 0.0
H2155 H 0.15659 0.83283 0.75236 0.0
H2156 H 0.15903 0.81519 0.76408 0.0
H2157 H 0.14326 0.81009 0.84301 0.0
H2158 H 0.14056 0.82758 0.8312 0.0
H2159 H 0.1502 0.82667 0.88529 0.0
H2160 H 0.21097 0.87716 0.88703 0.0
H2161 H 0.20246 0.89742 0.86501 0.0
H2162 H 0.15802 0.85806 0.7997 0.0
C2163 C 0.17725 0.81291 0.84907 0.0
C2164 C 0.19036 0.81194 0.87108 0.0
C2165 C 0.20361 0.82646 0.89125 0.0
C2166 C 0.20411 0.8417 0.88855 0.0
C2167 C 0.19128 0.84235 0.86555 0.0
C2168 C 0.178 0.82835 0.84652 0.0
C2169 C 0.16604 0.83266 0.82285 0.0
C2170 C 0.16458 0.82872 0.76988 0.0
C2171 C 0.149 0.82372 0.84704 0.0
C2172 C 0.17473 0.85122 0.83143 0.0
C2173 C 0.18929 0.85654 0.85605 0.0
C2174 C 0.19954 0.87314 0.86789 0.0
C2175 C 0.19465 0.8846 0.85504 0.0
C2176 C 0.1796 0.87944 0.83055 0.0
C2177 C 0.16965 0.8625 0.81829 0.0
H2178 H 0.19143 0.37549 0.87603 0.0
H2179 H 0.2318 0.37016 0.81938 0.0
H2180 H 0.21202 0.34111 0.79908 0.0
H2181 H 0.1685 0.33401 0.92666 0.0
H2182 H 0.14856 0.33161 0.91268 0.0
H2183 H 0.16594 0.35192 0.92376 0.0
H2184 H 0.16138 0.3618 0.84279 0.0
H2185 H 0.14411 0.34146 0.83117 0.0
H2186 H 0.16113 0.35085 0.79019 0.0
H2187 H 0.18803 0.3133 0.78144 0.0
H2188 H 0.16165 0.28726 0.77434 0.0
H2189 H 0.13627 0.30977 0.84401 0.0
C2190 C 0.19615 0.36818 0.85977 0.0
C2191 C 0.21325 0.37519 0.84929 0.0
C2192 C 0.21885 0.36514 0.82797 0.0
C2193 C 0.20767 0.34862 0.81607 0.0
C2194 C 0.19092 0.34225 0.82596 0.0
C2195 C 0.18517 0.3516 0.8479 0.0
C2196 C 0.16651 0.34159 0.85494 0.0
C2197 C 0.16212 0.33967 0.90764 0.0
C2198 C 0.15777 0.3494 0.82817 0.0
C2199 C 0.16267 0.32517 0.83317 0.0
C2200 C 0.17698 0.32595 0.81648 0.0
C2201 C 0.17677 0.3125 0.79467 0.0
C2202 C 0.16164 0.29773 0.79075 0.0
C2203 C 0.14678 0.29634 0.80875 0.0
C2204 C 0.14733 0.3104 0.82969 0.0
H2205 H 0.82836 0.70027 0.67156 0.0
H2206 H 0.87301 0.72226 0.75691 0.0
H2207 H 0.8744 0.69672 0.75027 0.0
H2208 H 0.81099 0.65834 0.71974 0.0
H2209 H 0.80267 0.64846 0.66391 0.0
H2210 H 0.80481 0.66837 0.67656 0.0
H2211 H 0.82227 0.68022 0.60068 0.0
H2212 H 0.82038 0.66041 0.5882 0.0
H2213 H 0.84059 0.67862 0.59247 0.0
H2214 H 0.87204 0.66947 0.73155 0.0
H2215 H 0.86427 0.64098 0.70848 0.0
H2216 H 0.82093 0.63604 0.63636 0.0
C2217 C 0.83827 0.69961 0.68946 0.0
C2218 C 0.85058 0.71338 0.7147 0.0
C2219 C 0.86342 0.71198 0.73722 0.0
C2220 C 0.86438 0.69751 0.73359 0.0
C2221 C 0.85237 0.68438 0.70747 0.0
C2222 C 0.83942 0.68515 0.6863 0.0
C2223 C 0.82816 0.66915 0.66033 0.0
C2224 C 0.81062 0.66057 0.68141 0.0
C2225 C 0.82784 0.6723 0.60727 0.0
C2226 C 0.83687 0.65938 0.6702 0.0
C2227 C 0.85088 0.66846 0.69718 0.0
C2228 C 0.86104 0.66217 0.71059 0.0
C2229 C 0.85657 0.64599 0.69706 0.0
C2230 C 0.84199 0.63619 0.67057 0.0
C2231 C 0.83218 0.64316 0.65652 0.0
H2232 H 0.31718 0.13528 0.6755 0.0
H2233 H 0.29541 0.15925 0.75596 0.0
H2234 H 0.32124 0.18593 0.74838 0.0
H2235 H 0.3591 0.15988 0.72391 0.0
H2236 H 0.36898 0.16068 0.66862 0.0
H2237 H 0.34894 0.14323 0.68208 0.0
H2238 H 0.33734 0.1482 0.60471 0.0
H2239 H 0.35728 0.16582 0.59139 0.0
H2240 H 0.33923 0.16814 0.59413 0.0
H2241 H 0.34886 0.21046 0.7288 0.0
H2242 H 0.37747 0.23062 0.70483 0.0
H2243 H 0.3817 0.19102 0.63776 0.0
C2244 C 0.31795 0.14607 0.69223 0.0
C2245 C 0.30418 0.14507 0.71635 0.0
C2246 C 0.30571 0.1596 0.73722 0.0
C2247 C 0.32035 0.17489 0.73303 0.0
C2248 C 0.33348 0.17555 0.70796 0.0
C2249 C 0.33255 0.16153 0.6884 0.0
C2250 C 0.34851 0.16578 0.66299 0.0
C2251 C 0.35688 0.15686 0.68577 0.0
C2252 C 0.3454 0.16174 0.61017 0.0
C2253 C 0.35847 0.18434 0.67122 0.0
C2254 C 0.34953 0.18973 0.69702 0.0
C2255 C 0.35604 0.20637 0.70876 0.0
C2256 C 0.37229 0.21777 0.69473 0.0
C2257 C 0.38191 0.21249 0.66936 0.0
C2258 C 0.37473 0.19553 0.65705 0.0
H2259 H 0.8592 0.15141 0.71298 0.0
H2260 H 0.89831 0.19601 0.64757 0.0
H2261 H 0.87783 0.20413 0.6249 0.0
H2262 H 0.82785 0.14297 0.6277 0.0
H2263 H 0.81121 0.13601 0.66979 0.0
H2264 H 0.8289 0.13371 0.68242 0.0
H2265 H 0.83391 0.15002 0.76027 0.0
H2266 H 0.81611 0.15217 0.74821 0.0
H2267 H 0.83597 0.1703 0.75894 0.0
H2268 H 0.85323 0.20694 0.60632 0.0
H2269 H 0.82642 0.20578 0.59919 0.0
H2270 H 0.80278 0.1596 0.67769 0.0
C2271 C 0.86352 0.16298 0.6943 0.0
C2272 C 0.88045 0.17307 0.68209 0.0
C2273 C 0.88549 0.18808 0.65754 0.0
C2274 C 0.87391 0.19277 0.64427 0.0
C2275 C 0.85732 0.18238 0.65598 0.0
C2276 C 0.85212 0.1679 0.68095 0.0
C2277 C 0.83353 0.15909 0.68935 0.0
C2278 C 0.82487 0.14193 0.66591 0.0
C2279 C 0.82966 0.15783 0.74234 0.0
C2280 C 0.82909 0.17084 0.66491 0.0
C2281 C 0.84304 0.18412 0.64574 0.0
C2282 C 0.84224 0.19664 0.62141 0.0
C2283 C 0.82688 0.19583 0.61749 0.0
C2284 C 0.81239 0.18261 0.63792 0.0
C2285 C 0.81354 0.16981 0.66138 0.0
H2286 H 0.03746 0.49568 0.51061 0.0
H2287 H 0.05991 0.54466 0.44768 0.0
H2288 H 0.03352 0.54439 0.45469 0.0
H2289 H 0.99682 0.47976 0.45519 0.0
H2290 H 0.98566 0.4681 0.50643 0.0
H2291 H 1.00625 0.47181 0.495 0.0
H2292 H 0.01544 0.48486 0.57788 0.0
H2293 H 0.99493 0.48136 0.58933 0.0
H2294 H 0.01256 0.50192 0.59444 0.0
H2295 H 1.00513 0.5396 0.47124 0.0
H2296 H 0.97585 0.52953 0.49124 0.0
H2297 H 0.97137 0.48362 0.54301 0.0
C2298 C 0.03675 0.50623 0.49771 0.0
C2299 C 0.05086 0.52019 0.47863 0.0
C2300 C 0.04938 0.53382 0.46258 0.0
C2301 C 0.03441 0.53382 0.46644 0.0
C2302 C 0.02089 0.5201 0.48635 0.0
C2303 C 0.02182 0.50647 0.50132 0.0
C2304 C 1.00537 0.49339 0.52174 0.0
C2305 C 0.9981 0.47732 0.49285 0.0
C2306 C 1.00719 0.4902 0.57395 0.0
C2307 C 0.99516 0.50187 0.516 0.0
C2308 C 1.00439 0.51729 0.49566 0.0
C2309 C 0.99774 0.52751 0.48703 0.0
C2310 C 0.98109 0.5217 0.49873 0.0
C2311 C 0.97123 0.50579 0.51875 0.0
C2312 C 0.97851 0.49586 0.52783 0.0
H2313 H 0.48645 0.522 0.4761 0.0
H2314 H 0.53229 0.56311 0.52943 0.0
H2315 H 0.54236 0.54383 0.54816 0.0
H2316 H 0.48246 0.49213 0.56185 0.0
H2317 H 0.47464 0.47506 0.52105 0.0
H2318 H 0.47098 0.49202 0.51063 0.0
H2319 H 0.48447 0.49669 0.42814 0.0
H2320 H 0.488 0.47962 0.43807 0.0
H2321 H 0.50507 0.49971 0.42284 0.0
H2322 H 0.54717 0.52028 0.56342 0.0
H2323 H 0.54759 0.49422 0.56895 0.0
H2324 H 0.49877 0.46787 0.50494 0.0
C2325 C 0.49868 0.527 0.4914 0.0
C2326 C 0.50858 0.54415 0.50129 0.0
C2327 C 0.52448 0.5501 0.52135 0.0
C2328 C 0.53028 0.53921 0.53231 0.0
C2329 C 0.5201 0.5224 0.52287 0.0
C2330 C 0.50471 0.51631 0.50242 0.0
C2331 C 0.49633 0.49767 0.4956 0.0
C2332 C 0.48014 0.48869 0.52398 0.0
C2333 C 0.49329 0.49316 0.44304 0.0
C2334 C 0.50941 0.49423 0.51563 0.0
C2335 C 0.52296 0.50871 0.5313 0.0
C2336 C 0.53667 0.50888 0.55108 0.0
C2337 C 0.53675 0.49394 0.55409 0.0
C2338 C 0.52322 0.4789 0.5373 0.0
C2339 C 0.50926 0.47907 0.51838 0.0
H2340 H 0.55088 0.03626 0.51217 0.0
H2341 H 0.52612 0.05865 0.58592 0.0
H2342 H 0.49949 0.03296 0.57697 0.0
H2343 H 0.51883 0.01347 0.42845 0.0
H2344 H 0.52105 0.99535 0.42919 0.0
H2345 H 0.53859 0.01538 0.44216 0.0
H2346 H 0.54261 1.00451 0.5222 0.0
H2347 H 0.52523 0.98438 0.50914 0.0
H2348 H 0.52548 0.99484 0.56279 0.0
H2349 H 0.47515 1.00552 0.55683 0.0
H2350 H 0.4551 0.97674 0.53446 0.0
H2351 H 0.49517 0.97136 0.47567 0.0
C2352 C 0.5399 0.03568 0.527 0.0
C2353 C 0.54071 0.04961 0.54964 0.0
C2354 C 0.52595 0.04827 0.56829 0.0
C2355 C 0.51067 0.0337 0.56328 0.0
C2356 C 0.51022 0.02041 0.5398 0.0
C2357 C 0.52443 0.02111 0.52256 0.0
C2358 C 0.52036 1.00485 0.49916 0.0
C2359 C 0.52498 0.00742 0.44662 0.0
C2360 C 0.52893 0.99666 0.52487 0.0
C2361 C 0.50169 0.99504 0.50584 0.0
C2362 C 0.49611 1.00433 0.52902 0.0
C2363 C 0.47937 0.99807 0.53887 0.0
C2364 C 0.46804 0.98171 0.52575 0.0
C2365 C 0.47347 0.97171 0.50329 0.0
C2366 C 0.49055 0.97863 0.49275 0.0
H2367 H 0.49689 0.03629 1.00753 0.0
H2368 H 0.54287 0.05864 0.08709 0.0
H2369 H 0.5441 0.03309 0.07957 0.0
H2370 H 0.48031 0.99478 0.05795 0.0
H2371 H 0.47096 0.98439 1.00346 0.0
H2372 H 0.4734 1.00444 0.01565 0.0
H2373 H 0.48947 0.01552 0.93732 0.0
H2374 H 0.48728 0.99556 0.92523 0.0
H2375 H 0.50757 0.01374 0.92647 0.0
H2376 H 0.54147 1.00586 0.06071 0.0
H2377 H 0.53331 0.9772 0.03887 0.0
H2378 H 0.48864 0.97152 0.97345 0.0
C2379 C 0.50709 0.03573 0.02386 0.0
C2380 C 0.5198 0.04962 0.04776 0.0
C2381 C 0.53297 0.0483 0.06843 0.0
C2382 C 0.53385 0.03381 0.06427 0.0
C2383 C 0.52141 0.02055 0.03961 0.0
C2384 C 0.50814 0.02121 0.02032 0.0
C2385 C 0.49638 1.00497 0.99608 0.0
C2386 C 0.47925 0.99665 0.01971 0.0
C2387 C 0.49511 0.00761 0.94313 0.0
C2388 C 0.5052 0.99521 1.00472 0.0
C2389 C 0.51969 1.00453 0.02956 0.0
C2390 C 0.53009 0.99837 0.04146 0.0
C2391 C 0.52539 0.98208 0.02864 0.0
C2392 C 0.51033 0.97202 1.00443 0.0
C2393 C 0.50024 0.97884 0.99189 0.0
H2394 H 0.98417 0.46753 1.00638 0.0
H2395 H 0.96085 0.49219 0.07554 0.0
H2396 H 0.98673 0.51883 0.06893 0.0
H2397 H 0.02493 0.49264 0.06062 0.0
H2398 H 0.03601 0.49302 1.00817 0.0
H2399 H 0.01571 0.47565 0.01952 0.0
H2400 H 1.00582 0.47994 0.93821 0.0
H2401 H 0.02603 0.49745 0.92688 0.0
H2402 H 1.00799 0.49979 0.92405 0.0
H2403 H 0.01464 0.54316 0.05195 0.0
H2404 H 0.04365 0.5632 0.03152 0.0
H2405 H 0.04943 0.52316 0.97441 0.0
C2406 C 0.98458 0.47849 0.02071 0.0
C2407 C 0.97036 0.47766 0.04145 0.0
C2408 C 0.97147 0.49239 0.05938 0.0
C2409 C 0.98614 0.50766 0.05573 0.0
C2410 C 0.99976 0.50812 0.03419 0.0
C2411 C 0.99923 0.49393 0.01743 0.0
C2412 C 0.01573 0.49801 0.99573 0.0
C2413 C 0.02356 0.48931 0.02263 0.0
C2414 C 0.01377 0.49353 0.9431 0.0
C2415 C 0.02552 0.51665 1.00288 0.0
C2416 C 0.01602 0.52221 0.02488 0.0
C2417 C 0.02225 0.53894 0.03489 0.0
C2418 C 0.03874 0.55026 0.02292 0.0
C2419 C 0.04891 0.54484 1.00134 0.0
C2420 C 0.04205 0.52777 0.99085 0.0
H2421 H 0.52386 0.48187 0.04061 0.0
H2422 H 0.56513 0.52973 1.00008 0.0
H2423 H 0.54563 0.53942 0.98088 0.0
H2424 H 0.49565 0.47934 0.95144 0.0
H2425 H 0.47761 0.47004 0.98884 0.0
H2426 H 0.4947 0.4667 1.0007 0.0
H2427 H 0.49701 0.47785 0.08553 0.0
H2428 H 0.47979 0.48103 0.07414 0.0
H2429 H 0.49921 0.49801 0.09434 0.0
H2430 H 0.522 0.54368 0.96273 0.0
H2431 H 0.49571 0.54345 0.95401 0.0
H2432 H 0.46909 0.49311 1.00795 0.0
C2433 C 0.52882 0.49445 0.02811 0.0
C2434 C 0.5461 0.50503 0.02185 0.0
C2435 C 0.55201 0.52139 1.00538 0.0
C2436 C 0.54101 0.52699 0.99412 0.0
C2437 C 0.52409 0.51616 0.99978 0.0
C2438 C 0.51798 0.50032 0.01698 0.0
C2439 C 0.49919 0.49133 0.02025 0.0
C2440 C 0.49133 0.47594 0.98841 0.0
C2441 C 0.49346 0.48679 0.07162 0.0
C2442 C 0.49571 0.5046 1.00189 0.0
C2443 C 0.51031 0.51876 0.99005 0.0
C2444 C 0.51049 0.53272 0.97216 0.0
C2445 C 0.49541 0.53242 0.96726 0.0
C2446 C 0.48022 0.51828 0.98041 0.0
C2447 C 0.48042 0.50408 0.99734 0.0
loop_
_geom_bond_atom_site_label_1
_geom_bond_atom_site_label_2
_geom_bond_distance
_geom_bond_site_symmetry_2
_ccdc_geom_bond_type
O0 Cd1 2.223 . S
O0 C8 1.315 . S
Cd1 O0 2.223 . S
Cd1 O4 2.297 . S
Cd1 O5 2.439 . S
Cd1 O11 2.240 . S
Cd2 O3 2.240 . S
Cd2 O10 2.223 . S
Cd2 O12 2.297 . S
Cd2 O13 2.439 . S
O3 Cd2 2.240 . S
O3 C8 1.279 . S
O4 Cd1 2.297 . S
O4 C6 1.247 . S
O5 Cd1 2.439 . S
O5 C6 1.208 . S
C6 O4 1.247 . S
C6 O5 1.208 . S
C7 O12 1.247 . S
C7 O13 1.208 . S
C8 O0 1.315 . S
C8 O3 1.279 . S
C9 O10 1.315 . S
C9 O11 1.279 . S
O10 Cd2 2.223 . S
O10 C9 1.315 . S
O11 Cd1 2.240 . S
O11 C9 1.279 . S
O12 Cd2 2.297 . S
O12 C7 1.247 . S
O13 Cd2 2.439 . S
O13 C7 1.208 . S
O14 Cd15 2.223 . S
O14 C22 1.315 . S
Cd15 O14 2.223 . S
Cd15 O18 2.297 . S
Cd15 O19 2.439 . S
Cd15 O25 2.240 . S
Cd16 O17 2.240 . S
Cd16 O24 2.223 . S
Cd16 O26 2.297 . S
Cd16 O27 2.439 . S
O17 Cd16 2.240 . S
O17 C22 1.279 . S
O18 Cd15 2.297 . S
O18 C20 1.247 . S
O19 Cd15 2.439 . S
O19 C20 1.208 . S
C20 O18 1.247 . S
C20 O19 1.208 . S
C21 O26 1.247 . S
C21 O27 1.208 . S
C22 O14 1.315 . S
C22 O17 1.279 . S
C23 O24 1.315 . S
C23 O25 1.279 . S
O24 Cd16 2.223 . S
O24 C23 1.315 . S
O25 Cd15 2.240 . S
O25 C23 1.279 . S
O26 Cd16 2.297 . S
O26 C21 1.247 . S
O27 Cd16 2.439 . S
O27 C21 1.208 . S
O28 Cd29 2.223 . S
O28 C36 1.315 . S
Cd29 O28 2.223 . S
Cd29 O32 2.297 . S
Cd29 O33 2.439 . S
Cd29 O39 2.240 . S
Cd30 O31 2.240 . S
Cd30 O38 2.223 . S
Cd30 O40 2.297 . S
Cd30 O41 2.439 . S
O31 Cd30 2.240 . S
O31 C36 1.279 . S
O32 Cd29 2.297 . S
O32 C34 1.247 . S
O33 Cd29 2.439 . S
O33 C34 1.208 . S
C34 O32 1.247 . S
C34 O33 1.208 . S
C35 O40 1.247 . S
C35 O41 1.208 . S
C36 O28 1.315 . S
C36 O31 1.279 . S
C37 O38 1.315 . S
C37 O39 1.279 . S
O38 Cd30 2.223 . S
O38 C37 1.315 . S
O39 Cd29 2.240 . S
O39 C37 1.279 . S
O40 Cd30 2.297 . S
O40 C35 1.247 . S
O41 Cd30 2.439 . S
O41 C35 1.208 . S
O42 Cd43 2.223 . S
O42 C50 1.315 . S
Cd43 O42 2.223 . S
Cd43 O46 2.297 . S
Cd43 O47 2.439 . S
Cd43 O53 2.240 . S
Cd44 O45 2.240 . S
Cd44 O52 2.223 . S
Cd44 O54 2.297 . S
Cd44 O55 2.439 . S
O45 Cd44 2.240 . S
O45 C50 1.279 . S
O46 Cd43 2.297 . S
O46 C48 1.247 . S
O47 Cd43 2.439 . S
O47 C48 1.208 . S
C48 O46 1.247 . S
C48 O47 1.208 . S
C49 O54 1.247 . S
C49 O55 1.208 . S
C50 O42 1.315 . S
C50 O45 1.279 . S
C51 O52 1.315 . S
C51 O53 1.279 . S
O52 Cd44 2.223 . S
O52 C51 1.315 . S
O53 Cd43 2.240 . S
O53 C51 1.279 . S
O54 Cd44 2.297 . S
O54 C49 1.247 . S
O55 Cd44 2.439 . S
O55 C49 1.208 . S
O56 Cd57 2.223 . S
O56 C64 1.315 . S
Cd57 O56 2.223 . S
Cd57 O60 2.297 . S
Cd57 O61 2.439 . S
Cd57 O67 2.240 . S
Cd58 O59 2.240 . S
Cd58 O66 2.223 . S
Cd58 O68 2.297 . S
Cd58 O69 2.439 . S
O59 Cd58 2.240 . S
O59 C64 1.279 . S
O60 Cd57 2.297 . S
O60 C62 1.247 . S
O61 Cd57 2.439 . S
O61 C62 1.208 . S
C62 O60 1.247 . S
C62 O61 1.208 . S
C63 O68 1.247 . S
C63 O69 1.208 . S
C64 O56 1.315 . S
C64 O59 1.279 . S
C65 O66 1.315 . S
C65 O67 1.279 . S
O66 Cd58 2.223 . S
O66 C65 1.315 . S
O67 Cd57 2.240 . S
O67 C65 1.279 . S
O68 Cd58 2.297 . S
O68 C63 1.247 . S
O69 Cd58 2.439 . S
O69 C63 1.208 . S
O70 Cd71 2.223 . S
O70 C78 1.315 . S
Cd71 O70 2.223 . S
Cd71 O74 2.297 . S
Cd71 O75 2.439 . S
Cd71 O81 2.240 . S
Cd72 O73 2.240 . S
Cd72 O80 2.223 . S
Cd72 O82 2.297 . S
Cd72 O83 2.439 . S
O73 Cd72 2.240 . S
O73 C78 1.279 . S
O74 Cd71 2.297 . S
O74 C76 1.247 . S
O75 Cd71 2.439 . S
O75 C76 1.208 . S
C76 O74 1.247 . S
C76 O75 1.208 . S
C77 O82 1.247 . S
C77 O83 1.208 . S
C78 O70 1.315 . S
C78 O73 1.279 . S
C79 O80 1.315 . S
C79 O81 1.279 . S
O80 Cd72 2.223 . S
O80 C79 1.315 . S
O81 Cd71 2.240 . S
O81 C79 1.279 . S
O82 Cd72 2.297 . S
O82 C77 1.247 . S
O83 Cd72 2.439 . S
O83 C77 1.208 . S
O84 Cd85 2.223 . S
O84 C92 1.315 . S
Cd85 O84 2.223 . S
Cd85 O88 2.297 . S
Cd85 O89 2.439 . S
Cd85 O95 2.240 . S
Cd86 O87 2.240 . S
Cd86 O94 2.223 . S
Cd86 O96 2.297 . S
Cd86 O97 2.439 . S
O87 Cd86 2.240 . S
O87 C92 1.279 . S
O88 Cd85 2.297 . S
O88 C90 1.247 . S
O89 Cd85 2.439 . S
O89 C90 1.208 . S
C90 O88 1.247 . S
C90 O89 1.208 . S
C91 O96 1.247 . S
C91 O97 1.208 . S
C92 O84 1.315 . S
C92 O87 1.279 . S
C93 O94 1.315 . S
C93 O95 1.279 . S
O94 Cd86 2.223 . S
O94 C93 1.315 . S
O95 Cd85 2.240 . S
O95 C93 1.279 . S
O96 Cd86 2.297 . S
O96 C91 1.247 . S
O97 Cd86 2.439 . S
O97 C91 1.208 . S
O98 Cd99 2.223 . S
O98 C106 1.315 . S
Cd99 O98 2.223 . S
Cd99 O102 2.297 . S
Cd99 O103 2.439 . S
Cd99 O109 2.240 . S
Cd100 O101 2.240 . S
Cd100 O108 2.223 . S
Cd100 O110 2.297 . S
Cd100 O111 2.439 . S
O101 Cd100 2.240 . S
O101 C106 1.279 . S
O102 Cd99 2.297 . S
O102 C104 1.247 . S
O103 Cd99 2.439 . S
O103 C104 1.208 . S
C104 O102 1.247 . S
C104 O103 1.208 . S
C105 O110 1.247 . S
C105 O111 1.208 . S
C106 O98 1.315 . S
C106 O101 1.279 . S
C107 O108 1.315 . S
C107 O109 1.279 . S
O108 Cd100 2.223 . S
O108 C107 1.315 . S
O109 Cd99 2.240 . S
O109 C107 1.279 . S
O110 Cd100 2.297 . S
O110 C105 1.247 . S
O111 Cd100 2.439 . S
O111 C105 1.208 . S
O112 Cd113 2.223 . S
O112 C120 1.315 . S
Cd113 O112 2.223 . S
Cd113 O116 2.297 . S
Cd113 O117 2.439 . S
Cd113 O123 2.240 . S
Cd114 O115 2.240 . S
Cd114 O122 2.223 . S
Cd114 O124 2.297 . S
Cd114 O125 2.439 . S
O115 Cd114 2.240 . S
O115 C120 1.279 . S
O116 Cd113 2.297 . S
O116 C118 1.247 . S
O117 Cd113 2.439 . S
O117 C118 1.208 . S
C118 O116 1.247 . S
C118 O117 1.208 . S
C119 O124 1.247 . S
C119 O125 1.208 . S
C120 O112 1.315 . S
C120 O115 1.279 . S
C121 O122 1.315 . S
C121 O123 1.279 . S
O122 Cd114 2.223 . S
O122 C121 1.315 . S
O123 Cd113 2.240 . S
O123 C121 1.279 . S
O124 Cd114 2.297 . S
O124 C119 1.247 . S
O125 Cd114 2.439 . S
O125 C119 1.208 . S
O126 Cd127 2.223 . S
O126 C134 1.315 . S
Cd127 O126 2.223 . S
Cd127 O130 2.297 . S
Cd127 O131 2.439 . S
Cd127 O137 2.240 . S
Cd128 O129 2.240 . S
Cd128 O136 2.223 . S
Cd128 O138 2.297 . S
Cd128 O139 2.439 . S
O129 Cd128 2.240 . S
O129 C134 1.279 . S
O130 Cd127 2.297 . S
O130 C132 1.247 . S
O131 Cd127 2.439 . S
O131 C132 1.208 . S
C132 O130 1.247 . S
C132 O131 1.208 . S
C133 O138 1.247 . S
C133 O139 1.208 . S
C134 O126 1.315 . S
C134 O129 1.279 . S
C135 O136 1.315 . S
C135 O137 1.279 . S
O136 Cd128 2.223 . S
O136 C135 1.315 . S
O137 Cd127 2.240 . S
O137 C135 1.279 . S
O138 Cd128 2.297 . S
O138 C133 1.247 . S
O139 Cd128 2.439 . S
O139 C133 1.208 . S
O140 Cd141 2.223 . S
O140 C148 1.315 . S
Cd141 O140 2.223 . S
Cd141 O144 2.297 . S
Cd141 O145 2.439 . S
Cd141 O151 2.240 . S
Cd142 O143 2.240 . S
Cd142 O150 2.223 . S
Cd142 O152 2.297 . S
Cd142 O153 2.439 . S
O143 Cd142 2.240 . S
O143 C148 1.279 . S
O144 Cd141 2.297 . S
O144 C146 1.247 . S
O145 Cd141 2.439 . S
O145 C146 1.208 . S
C146 O144 1.247 . S
C146 O145 1.208 . S
C147 O152 1.247 . S
C147 O153 1.208 . S
C148 O140 1.315 . S
C148 O143 1.279 . S
C149 O150 1.315 . S
C149 O151 1.279 . S
O150 Cd142 2.223 . S
O150 C149 1.315 . S
O151 Cd141 2.240 . S
O151 C149 1.279 . S
O152 Cd142 2.297 . S
O152 C147 1.247 . S
O153 Cd142 2.439 . S
O153 C147 1.208 . S
O154 Cd155 2.223 . S
O154 C162 1.315 . S
Cd155 O154 2.223 . S
Cd155 O158 2.297 . S
Cd155 O159 2.439 . S
Cd155 O165 2.240 . S
Cd156 O157 2.240 . S
Cd156 O164 2.223 . S
Cd156 O166 2.297 . S
Cd156 O167 2.439 . S
O157 Cd156 2.240 . S
O157 C162 1.279 . S
O158 Cd155 2.297 . S
O158 C160 1.247 . S
O159 Cd155 2.439 . S
O159 C160 1.208 . S
C160 O158 1.247 . S
C160 O159 1.208 . S
C161 O166 1.247 . S
C161 O167 1.208 . S
C162 O154 1.315 . S
C162 O157 1.279 . S
C163 O164 1.315 . S
C163 O165 1.279 . S
O164 Cd156 2.223 . S
O164 C163 1.315 . S
O165 Cd155 2.240 . S
O165 C163 1.279 . S
O166 Cd156 2.297 . S
O166 C161 1.247 . S
O167 Cd156 2.439 . S
O167 C161 1.208 . S
O168 Cd169 2.223 . S
O168 C176 1.315 . S
Cd169 O168 2.223 . S
Cd169 O172 2.297 . S
Cd169 O173 2.439 . S
Cd169 O179 2.240 . S
Cd170 O171 2.240 . S
Cd170 O178 2.223 . S
Cd170 O180 2.297 . S
Cd170 O181 2.439 . S
O171 Cd170 2.240 . S
O171 C176 1.279 . S
O172 Cd169 2.297 . S
O172 C174 1.247 . S
O173 Cd169 2.439 . S
O173 C174 1.208 . S
C174 O172 1.247 . S
C174 O173 1.208 . S
C175 O180 1.247 . S
C175 O181 1.208 . S
C176 O168 1.315 . S
C176 O171 1.279 . S
C177 O178 1.315 . S
C177 O179 1.279 . S
O178 Cd170 2.223 . S
O178 C177 1.315 . S
O179 Cd169 2.240 . S
O179 C177 1.279 . S
O180 Cd170 2.297 . S
O180 C175 1.247 . S
O181 Cd170 2.439 . S
O181 C175 1.208 . S
O182 Cd183 2.223 . S
O182 C190 1.315 . S
Cd183 O182 2.223 . S
Cd183 O186 2.297 . S
Cd183 O187 2.439 . S
Cd183 O193 2.240 . S
Cd184 O185 2.240 . S
Cd184 O192 2.223 . S
Cd184 O194 2.297 . S
Cd184 O195 2.439 . S
O185 Cd184 2.240 . S
O185 C190 1.279 . S
O186 Cd183 2.297 . S
O186 C188 1.247 . S
O187 Cd183 2.439 . S
O187 C188 1.208 . S
C188 O186 1.247 . S
C188 O187 1.208 . S
C189 O194 1.247 . S
C189 O195 1.208 . S
C190 O182 1.315 . S
C190 O185 1.279 . S
C191 O192 1.315 . S
C191 O193 1.279 . S
O192 Cd184 2.223 . S
O192 C191 1.315 . S
O193 Cd183 2.240 . S
O193 C191 1.279 . S
O194 Cd184 2.297 . S
O194 C189 1.247 . S
O195 Cd184 2.439 . S
O195 C189 1.208 . S
O196 Cd197 2.223 . S
O196 C204 1.315 . S
Cd197 O196 2.223 . S
Cd197 O200 2.297 . S
Cd197 O201 2.439 . S
Cd197 O207 2.240 . S
Cd198 O199 2.240 . S
Cd198 O206 2.223 . S
Cd198 O208 2.297 . S
Cd198 O209 2.439 . S
O199 Cd198 2.240 . S
O199 C204 1.279 . S
O200 Cd197 2.297 . S
O200 C202 1.247 . S
O201 Cd197 2.439 . S
O201 C202 1.208 . S
C202 O200 1.247 . S
C202 O201 1.208 . S
C203 O208 1.247 . S
C203 O209 1.208 . S
C204 O196 1.315 . S
C204 O199 1.279 . S
C205 O206 1.315 . S
C205 O207 1.279 . S
O206 Cd198 2.223 . S
O206 C205 1.315 . S
O207 Cd197 2.240 . S
O207 C205 1.279 . S
O208 Cd198 2.297 . S
O208 C203 1.247 . S
O209 Cd198 2.439 . S
O209 C203 1.208 . S
O210 Cd211 2.223 . S
O210 C218 1.315 . S
Cd211 O210 2.223 . S
Cd211 O214 2.297 . S
Cd211 O215 2.439 . S
Cd211 O221 2.240 . S
Cd212 O213 2.240 . S
Cd212 O220 2.223 . S
Cd212 O222 2.297 . S
Cd212 O223 2.439 . S
O213 Cd212 2.240 . S
O213 C218 1.279 . S
O214 Cd211 2.297 . S
O214 C216 1.247 . S
O215 Cd211 2.439 . S
O215 C216 1.208 . S
C216 O214 1.247 . S
C216 O215 1.208 . S
C217 O222 1.247 . S
C217 O223 1.208 . S
C218 O210 1.315 . S
C218 O213 1.279 . S
C219 O220 1.315 . S
C219 O221 1.279 . S
O220 Cd212 2.223 . S
O220 C219 1.315 . S
O221 Cd211 2.240 . S
O221 C219 1.279 . S
O222 Cd212 2.297 . S
O222 C217 1.247 . S
O223 Cd212 2.439 . S
O223 C217 1.208 . S
O224 Cd225 2.223 . S
O224 C232 1.315 . S
Cd225 O224 2.223 . S
Cd225 O228 2.297 . S
Cd225 O229 2.439 . S
Cd225 O235 2.240 . S
Cd226 O227 2.240 . S
Cd226 O234 2.223 . S
Cd226 O236 2.297 . S
Cd226 O237 2.439 . S
O227 Cd226 2.240 . S
O227 C232 1.279 . S
O228 Cd225 2.297 . S
O228 C230 1.247 . S
O229 Cd225 2.439 . S
O229 C230 1.208 . S
C230 O228 1.247 . S
C230 O229 1.208 . S
C231 O236 1.247 . S
C231 O237 1.208 . S
C232 O224 1.315 . S
C232 O227 1.279 . S
C233 O234 1.315 . S
C233 O235 1.279 . S
O234 Cd226 2.223 . S
O234 C233 1.315 . S
O235 Cd225 2.240 . S
O235 C233 1.279 . S
O236 Cd226 2.297 . S
O236 C231 1.247 . S
O237 Cd226 2.439 . S
O237 C231 1.208 . S
O238 Cd239 2.223 . S
O238 C246 1.315 . S
Cd239 O238 2.223 . S
Cd239 O242 2.297 . S
Cd239 O243 2.439 . S
Cd239 O249 2.240 . S
Cd240 O241 2.240 . S
Cd240 O248 2.223 . S
Cd240 O250 2.297 . S
Cd240 O251 2.439 . S
O241 Cd240 2.240 . S
O241 C246 1.279 . S
O242 Cd239 2.297 . S
O242 C244 1.247 . S
O243 Cd239 2.439 . S
O243 C244 1.208 . S
C244 O242 1.247 . S
C244 O243 1.208 . S
C245 O250 1.247 . S
C245 O251 1.208 . S
C246 O238 1.315 . S
C246 O241 1.279 . S
C247 O248 1.315 . S
C247 O249 1.279 . S
O248 Cd240 2.223 . S
O248 C247 1.315 . S
O249 Cd239 2.240 . S
O249 C247 1.279 . S
O250 Cd240 2.297 . S
O250 C245 1.247 . S
O251 Cd240 2.439 . S
O251 C245 1.208 . S
O252 Cd253 2.223 . S
O252 C260 1.315 . S
Cd253 O252 2.223 . S
Cd253 O256 2.297 . S
Cd253 O257 2.439 . S
Cd253 O263 2.240 . S
Cd254 O255 2.240 . S
Cd254 O262 2.223 . S
Cd254 O264 2.297 . S
Cd254 O265 2.439 . S
O255 Cd254 2.240 . S
O255 C260 1.279 . S
O256 Cd253 2.297 . S
O256 C258 1.247 . S
O257 Cd253 2.439 . S
O257 C258 1.208 . S
C258 O256 1.247 . S
C258 O257 1.208 . S
C259 O264 1.247 1_556 S
C259 O265 1.208 1_556 S
C260 O252 1.315 . S
C260 O255 1.279 . S
C261 O262 1.315 . S
C261 O263 1.279 . S
O262 Cd254 2.223 . S
O262 C261 1.315 . S
O263 Cd253 2.240 . S
O263 C261 1.279 . S
O264 Cd254 2.297 . S
O264 C259 1.247 1_554 S
O265 Cd254 2.439 . S
O265 C259 1.208 1_554 S
O266 Cd267 2.223 . S
O266 C274 1.315 . S
Cd267 O266 2.223 . S
Cd267 O270 2.297 . S
Cd267 O271 2.439 . S
Cd267 O277 2.240 . S
Cd268 O269 2.240 . S
Cd268 O276 2.223 . S
Cd268 O278 2.297 . S
Cd268 O279 2.439 . S
O269 Cd268 2.240 . S
O269 C274 1.279 . S
O270 Cd267 2.297 . S
O270 C272 1.247 . S
O271 Cd267 2.439 . S
O271 C272 1.208 . S
C272 O270 1.247 . S
C272 O271 1.208 . S
C273 O278 1.247 1_556 S
C273 O279 1.208 1_556 S
C274 O266 1.315 . S
C274 O269 1.279 . S
C275 O276 1.315 . S
C275 O277 1.279 . S
O276 Cd268 2.223 . S
O276 C275 1.315 . S
O277 Cd267 2.240 . S
O277 C275 1.279 . S
O278 Cd268 2.297 . S
O278 C273 1.247 1_554 S
O279 Cd268 2.439 . S
O279 C273 1.208 1_554 S
O280 Cd281 2.223 . S
O280 C288 1.315 . S
Cd281 O280 2.223 . S
Cd281 O284 2.297 . S
Cd281 O285 2.439 . S
Cd281 O291 2.240 . S
Cd282 O283 2.240 . S
Cd282 O290 2.223 . S
Cd282 O292 2.297 . S
Cd282 O293 2.439 . S
O283 Cd282 2.240 . S
O283 C288 1.279 . S
O284 Cd281 2.297 . S
O284 C286 1.247 . S
O285 Cd281 2.439 . S
O285 C286 1.208 . S
C286 O284 1.247 . S
C286 O285 1.208 . S
C287 O292 1.247 1_556 S
C287 O293 1.208 1_556 S
C288 O280 1.315 . S
C288 O283 1.279 . S
C289 O290 1.315 . S
C289 O291 1.279 . S
O290 Cd282 2.223 . S
O290 C289 1.315 . S
O291 Cd281 2.240 . S
O291 C289 1.279 . S
O292 Cd282 2.297 . S
O292 C287 1.247 1_554 S
O293 Cd282 2.439 . S
O293 C287 1.208 1_554 S
O294 Cd295 2.223 1_556 S
O294 C302 1.315 . S
Cd295 O294 2.223 1_554 S
Cd295 O298 2.297 . S
Cd295 O299 2.439 . S
Cd295 O305 2.240 . S
Cd296 O297 2.240 . S
Cd296 O304 2.223 . S
Cd296 O306 2.297 . S
Cd296 O307 2.439 . S
O297 Cd296 2.240 . S
O297 C302 1.279 1_554 S
O298 Cd295 2.297 . S
O298 C300 1.247 . S
O299 Cd295 2.439 . S
O299 C300 1.208 . S
C300 O298 1.247 . S
C300 O299 1.208 . S
C301 O306 1.247 . S
C301 O307 1.208 . S
C302 O294 1.315 . S
C302 O297 1.279 1_556 S
C303 O304 1.315 . S
C303 O305 1.279 . S
O304 Cd296 2.223 . S
O304 C303 1.315 . S
O305 Cd295 2.240 . S
O305 C303 1.279 . S
O306 Cd296 2.297 . S
O306 C301 1.247 . S
O307 Cd296 2.439 . S
O307 C301 1.208 . S
O308 Cd309 2.223 1_556 S
O308 C316 1.315 . S
Cd309 O308 2.223 1_554 S
Cd309 O312 2.297 . S
Cd309 O313 2.439 . S
Cd309 O319 2.240 . S
Cd310 O311 2.240 . S
Cd310 O318 2.223 . S
Cd310 O320 2.297 . S
Cd310 O321 2.439 . S
O311 Cd310 2.240 . S
O311 C316 1.279 1_554 S
O312 Cd309 2.297 . S
O312 C314 1.247 . S
O313 Cd309 2.439 . S
O313 C314 1.208 . S
C314 O312 1.247 . S
C314 O313 1.208 . S
C315 O320 1.247 . S
C315 O321 1.208 . S
C316 O308 1.315 . S
C316 O311 1.279 1_556 S
C317 O318 1.315 . S
C317 O319 1.279 . S
O318 Cd310 2.223 . S
O318 C317 1.315 . S
O319 Cd309 2.240 . S
O319 C317 1.279 . S
O320 Cd310 2.297 . S
O320 C315 1.247 . S
O321 Cd310 2.439 . S
O321 C315 1.208 . S
O322 Cd323 2.223 1_556 S
O322 C330 1.315 . S
Cd323 O322 2.223 1_554 S
Cd323 O326 2.297 . S
Cd323 O327 2.439 . S
Cd323 O333 2.240 . S
Cd324 O325 2.240 . S
Cd324 O332 2.223 . S
Cd324 O334 2.297 . S
Cd324 O335 2.439 . S
O325 Cd324 2.240 . S
O325 C330 1.279 1_554 S
O326 Cd323 2.297 . S
O326 C328 1.247 . S
O327 Cd323 2.439 . S
O327 C328 1.208 . S
C328 O326 1.247 . S
C328 O327 1.208 . S
C329 O334 1.247 . S
C329 O335 1.208 . S
C330 O322 1.315 . S
C330 O325 1.279 1_556 S
C331 O332 1.315 . S
C331 O333 1.279 . S
O332 Cd324 2.223 . S
O332 C331 1.315 . S
O333 Cd323 2.240 . S
O333 C331 1.279 . S
O334 Cd324 2.297 . S
O334 C329 1.247 . S
O335 Cd324 2.439 . S
O335 C329 1.208 . S
O336 Cd337 2.223 . S
O336 C344 1.315 . S
Cd337 O336 2.223 . S
Cd337 O340 2.297 . S
Cd337 O341 2.439 . S
Cd337 O347 2.240 . S
Cd338 O339 2.240 . S
Cd338 O346 2.223 . S
Cd338 O348 2.297 . S
Cd338 O349 2.439 . S
O339 Cd338 2.240 . S
O339 C344 1.279 . S
O340 Cd337 2.297 . S
O340 C342 1.247 . S
O341 Cd337 2.439 . S
O341 C342 1.208 . S
C342 O340 1.247 . S
C342 O341 1.208 . S
C343 O348 1.247 1_554 S
C343 O349 1.208 1_554 S
C344 O336 1.315 . S
C344 O339 1.279 . S
C345 O346 1.315 . S
C345 O347 1.279 . S
O346 Cd338 2.223 . S
O346 C345 1.315 . S
O347 Cd337 2.240 . S
O347 C345 1.279 . S
O348 Cd338 2.297 . S
O348 C343 1.247 1_556 S
O349 Cd338 2.439 . S
O349 C343 1.208 1_556 S
O350 Cd351 2.223 . S
O350 C358 1.315 . S
Cd351 O350 2.223 . S
Cd351 O354 2.297 . S
Cd351 O355 2.439 . S
Cd351 O361 2.240 . S
Cd352 O353 2.240 . S
Cd352 O360 2.223 . S
Cd352 O362 2.297 . S
Cd352 O363 2.439 . S
O353 Cd352 2.240 . S
O353 C358 1.279 . S
O354 Cd351 2.297 . S
O354 C356 1.247 . S
O355 Cd351 2.439 . S
O355 C356 1.208 . S
C356 O354 1.247 . S
C356 O355 1.208 . S
C357 O362 1.247 1_554 S
C357 O363 1.208 1_554 S
C358 O350 1.315 . S
C358 O353 1.279 . S
C359 O360 1.315 . S
C359 O361 1.279 . S
O360 Cd352 2.223 . S
O360 C359 1.315 . S
O361 Cd351 2.240 . S
O361 C359 1.279 . S
O362 Cd352 2.297 . S
O362 C357 1.247 1_556 S
O363 Cd352 2.439 . S
O363 C357 1.208 1_556 S
O364 Cd365 2.223 . S
O364 C372 1.315 . S
Cd365 O364 2.223 . S
Cd365 O368 2.297 . S
Cd365 O369 2.439 . S
Cd365 O375 2.240 . S
Cd366 O367 2.240 . S
Cd366 O374 2.223 . S
Cd366 O376 2.297 . S
Cd366 O377 2.439 . S
O367 Cd366 2.240 . S
O367 C372 1.279 . S
O368 Cd365 2.297 . S
O368 C370 1.247 . S
O369 Cd365 2.439 . S
O369 C370 1.208 . S
C370 O368 1.247 . S
C370 O369 1.208 . S
C371 O376 1.247 1_554 S
C371 O377 1.208 1_554 S
C372 O364 1.315 . S
C372 O367 1.279 . S
C373 O374 1.315 . S
C373 O375 1.279 . S
O374 Cd366 2.223 . S
O374 C373 1.315 . S
O375 Cd365 2.240 . S
O375 C373 1.279 . S
O376 Cd366 2.297 . S
O376 C371 1.247 1_556 S
O377 Cd366 2.439 . S
O377 C371 1.208 1_556 S
O378 Cd379 2.223 1_554 S
O378 C386 1.315 . S
Cd379 O378 2.223 1_556 S
Cd379 O382 2.297 . S
Cd379 O383 2.439 . S
Cd379 O389 2.240 . S
Cd380 O381 2.240 . S
Cd380 O388 2.223 . S
Cd380 O390 2.297 . S
Cd380 O391 2.439 . S
O381 Cd380 2.240 . S
O381 C386 1.279 1_556 S
O382 Cd379 2.297 . S
O382 C384 1.247 . S
O383 Cd379 2.439 . S
O383 C384 1.208 . S
C384 O382 1.247 . S
C384 O383 1.208 . S
C385 O390 1.247 . S
C385 O391 1.208 . S
C386 O378 1.315 . S
C386 O381 1.279 1_554 S
C387 O388 1.315 . S
C387 O389 1.279 . S
O388 Cd380 2.223 . S
O388 C387 1.315 . S
O389 Cd379 2.240 . S
O389 C387 1.279 . S
O390 Cd380 2.297 . S
O390 C385 1.247 . S
O391 Cd380 2.439 . S
O391 C385 1.208 . S
O392 Cd393 2.223 1_554 S
O392 C400 1.315 . S
Cd393 O392 2.223 1_556 S
Cd393 O396 2.297 . S
Cd393 O397 2.439 . S
Cd393 O403 2.240 . S
Cd394 O395 2.240 . S
Cd394 O402 2.223 . S
Cd394 O404 2.297 . S
Cd394 O405 2.439 . S
O395 Cd394 2.240 . S
O395 C400 1.279 1_556 S
O396 Cd393 2.297 . S
O396 C398 1.247 . S
O397 Cd393 2.439 . S
O397 C398 1.208 . S
C398 O396 1.247 . S
C398 O397 1.208 . S
C399 O404 1.247 . S
C399 O405 1.208 . S
C400 O392 1.315 . S
C400 O395 1.279 1_554 S
C401 O402 1.315 . S
C401 O403 1.279 . S
O402 Cd394 2.223 . S
O402 C401 1.315 . S
O403 Cd393 2.240 . S
O403 C401 1.279 . S
O404 Cd394 2.297 . S
O404 C399 1.247 . S
O405 Cd394 2.439 . S
O405 C399 1.208 . S
O406 Cd407 2.223 1_554 S
O406 C414 1.315 . S
Cd407 O406 2.223 1_556 S
Cd407 O410 2.297 . S
Cd407 O411 2.439 . S
Cd407 O417 2.240 . S
Cd408 O409 2.240 . S
Cd408 O416 2.223 . S
Cd408 O418 2.297 . S
Cd408 O419 2.439 . S
O409 Cd408 2.240 . S
O409 C414 1.279 1_556 S
O410 Cd407 2.297 . S
O410 C412 1.247 . S
O411 Cd407 2.439 . S
O411 C412 1.208 . S
C412 O410 1.247 . S
C412 O411 1.208 . S
C413 O418 1.247 . S
C413 O419 1.208 . S
C414 O406 1.315 . S
C414 O409 1.279 1_554 S
C415 O416 1.315 . S
C415 O417 1.279 . S
O416 Cd408 2.223 . S
O416 C415 1.315 . S
O417 Cd407 2.240 . S
O417 C415 1.279 . S
O418 Cd408 2.297 . S
O418 C413 1.247 . S
O419 Cd408 2.439 . S
O419 C413 1.208 . S
O420 Cd421 2.223 . S
O420 C428 1.315 . S
Cd421 O420 2.223 . S
Cd421 O424 2.297 . S
Cd421 O425 2.439 . S
Cd421 O431 2.240 . S
Cd422 O423 2.240 . S
Cd422 O430 2.223 . S
Cd422 O432 2.297 . S
Cd422 O433 2.439 . S
O423 Cd422 2.240 . S
O423 C428 1.279 . S
O424 Cd421 2.297 . S
O424 C426 1.247 . S
O425 Cd421 2.439 . S
O425 C426 1.208 . S
C426 O424 1.247 . S
C426 O425 1.208 . S
C427 O432 1.247 . S
C427 O433 1.208 . S
C428 O420 1.315 . S
C428 O423 1.279 . S
C429 O430 1.315 . S
C429 O431 1.279 . S
O430 Cd422 2.223 . S
O430 C429 1.315 . S
O431 Cd421 2.240 . S
O431 C429 1.279 . S
O432 Cd422 2.297 . S
O432 C427 1.247 . S
O433 Cd422 2.439 . S
O433 C427 1.208 . S
O434 Cd435 2.223 . S
O434 C442 1.315 . S
Cd435 O434 2.223 . S
Cd435 O438 2.297 . S
Cd435 O439 2.439 . S
Cd435 O445 2.240 . S
Cd436 O437 2.240 . S
Cd436 O444 2.223 . S
Cd436 O446 2.297 . S
Cd436 O447 2.439 . S
O437 Cd436 2.240 . S
O437 C442 1.279 . S
O438 Cd435 2.297 . S
O438 C440 1.247 . S
O439 Cd435 2.439 . S
O439 C440 1.208 . S
C440 O438 1.247 . S
C440 O439 1.208 . S
C441 O446 1.247 . S
C441 O447 1.208 . S
C442 O434 1.315 . S
C442 O437 1.279 . S
C443 O444 1.315 . S
C443 O445 1.279 . S
O444 Cd436 2.223 . S
O444 C443 1.315 . S
O445 Cd435 2.240 . S
O445 C443 1.279 . S
O446 Cd436 2.297 . S
O446 C441 1.247 . S
O447 Cd436 2.439 . S
O447 C441 1.208 . S
O448 Cd449 2.223 . S
O448 C456 1.315 . S
Cd449 O448 2.223 . S
Cd449 O452 2.297 . S
Cd449 O453 2.439 . S
Cd449 O459 2.240 . S
Cd450 O451 2.240 . S
Cd450 O458 2.223 . S
Cd450 O460 2.297 . S
Cd450 O461 2.439 . S
O451 Cd450 2.240 . S
O451 C456 1.279 . S
O452 Cd449 2.297 . S
O452 C454 1.247 . S
O453 Cd449 2.439 . S
O453 C454 1.208 . S
C454 O452 1.247 . S
C454 O453 1.208 . S
C455 O460 1.247 . S
C455 O461 1.208 . S
C456 O448 1.315 . S
C456 O451 1.279 . S
C457 O458 1.315 . S
C457 O459 1.279 . S
O458 Cd450 2.223 . S
O458 C457 1.315 . S
O459 Cd449 2.240 . S
O459 C457 1.279 . S
O460 Cd450 2.297 . S
O460 C455 1.247 . S
O461 Cd450 2.439 . S
O461 C455 1.208 . S
O462 Cd463 2.223 . S
O462 C470 1.315 . S
Cd463 O462 2.223 . S
Cd463 O466 2.297 . S
Cd463 O467 2.439 . S
Cd463 O473 2.240 . S
Cd464 O465 2.240 . S
Cd464 O472 2.223 . S
Cd464 O474 2.297 . S
Cd464 O475 2.439 . S
O465 Cd464 2.240 . S
O465 C470 1.279 . S
O466 Cd463 2.297 . S
O466 C468 1.247 . S
O467 Cd463 2.439 . S
O467 C468 1.208 . S
C468 O466 1.247 . S
C468 O467 1.208 . S
C469 O474 1.247 . S
C469 O475 1.208 . S
C470 O462 1.315 . S
C470 O465 1.279 . S
C471 O472 1.315 . S
C471 O473 1.279 . S
O472 Cd464 2.223 . S
O472 C471 1.315 . S
O473 Cd463 2.240 . S
O473 C471 1.279 . S
O474 Cd464 2.297 . S
O474 C469 1.247 . S
O475 Cd464 2.439 . S
O475 C469 1.208 . S
O476 Cd477 2.223 . S
O476 C484 1.315 . S
Cd477 O476 2.223 . S
Cd477 O480 2.297 . S
Cd477 O481 2.439 . S
Cd477 O487 2.240 . S
Cd478 O479 2.240 . S
Cd478 O486 2.223 . S
Cd478 O488 2.297 . S
Cd478 O489 2.439 . S
O479 Cd478 2.240 . S
O479 C484 1.279 . S
O480 Cd477 2.297 . S
O480 C482 1.247 . S
O481 Cd477 2.439 . S
O481 C482 1.208 . S
C482 O480 1.247 . S
C482 O481 1.208 . S
C483 O488 1.247 . S
C483 O489 1.208 . S
C484 O476 1.315 . S
C484 O479 1.279 . S
C485 O486 1.315 . S
C485 O487 1.279 . S
O486 Cd478 2.223 . S
O486 C485 1.315 . S
O487 Cd477 2.240 . S
O487 C485 1.279 . S
O488 Cd478 2.297 . S
O488 C483 1.247 . S
O489 Cd478 2.439 . S
O489 C483 1.208 . S
O490 Cd491 2.223 . S
O490 C498 1.315 . S
Cd491 O490 2.223 . S
Cd491 O494 2.297 . S
Cd491 O495 2.439 . S
Cd491 O501 2.240 . S
Cd492 O493 2.240 . S
Cd492 O500 2.223 . S
Cd492 O502 2.297 . S
Cd492 O503 2.439 . S
O493 Cd492 2.240 . S
O493 C498 1.279 . S
O494 Cd491 2.297 . S
O494 C496 1.247 . S
O495 Cd491 2.439 . S
O495 C496 1.208 . S
C496 O494 1.247 . S
C496 O495 1.208 . S
C497 O502 1.247 . S
C497 O503 1.208 . S
C498 O490 1.315 . S
C498 O493 1.279 . S
C499 O500 1.315 . S
C499 O501 1.279 . S
O500 Cd492 2.223 . S
O500 C499 1.315 . S
O501 Cd491 2.240 . S
O501 C499 1.279 . S
O502 Cd492 2.297 . S
O502 C497 1.247 . S
O503 Cd492 2.439 . S
O503 C497 1.208 . S
H504 C516 0.930 . S
H505 C518 0.930 . S
H506 C519 0.930 . S
H507 C523 0.959 . S
H508 C523 0.959 1_554 S
H509 C523 0.961 . S
H510 C524 0.972 . S
H511 C524 0.952 1_554 S
H512 C524 0.955 1_554 S
H513 C527 0.929 . S
H514 C528 0.931 . S
H515 C530 0.930 . S
C516 H504 0.930 . S
C516 C517 1.399 . S
C516 C521 1.399 . S
C517 C516 1.399 . S
C517 C518 1.376 . S
C518 H505 0.930 . S
C518 C517 1.376 . S
C518 C519 1.388 . S
C519 H506 0.930 . S
C519 C518 1.388 . S
C519 C520 1.390 . S
C520 C519 1.390 . S
C520 C521 1.394 . S
C520 C526 1.465 1_556 S
C521 C516 1.399 . S
C521 C520 1.394 . S
C521 C522 1.516 . S
C522 C521 1.516 . S
C522 C523 1.502 . S
C522 C524 1.562 . S
C522 C525 1.526 1_556 S
C523 H507 0.959 . S
C523 H508 0.959 1_556 S
C523 H509 0.961 . S
C523 C522 1.502 . S
C524 H510 0.972 . S
C524 H511 0.952 1_556 S
C524 H512 0.955 1_556 S
C524 C522 1.562 . S
C525 C522 1.526 1_554 S
C525 C526 1.396 . S
C525 C530 1.390 . S
C526 C520 1.465 1_554 S
C526 C525 1.396 . S
C526 C527 1.399 . S
C527 H513 0.929 . S
C527 C526 1.399 . S
C527 C528 1.385 . S
C528 H514 0.931 . S
C528 C527 1.385 . S
C528 C529 1.389 . S
C529 C528 1.389 . S
C529 C530 1.387 . S
C530 H515 0.930 . S
C530 C525 1.390 . S
C530 C529 1.387 . S
H531 C543 0.930 . S
H532 C545 0.930 . S
H533 C546 0.930 . S
H534 C550 0.959 . S
H535 C550 0.959 . S
H536 C550 0.961 . S
H537 C551 0.960 . S
H538 C551 0.961 . S
H539 C551 0.959 . S
H540 C554 0.929 . S
H541 C555 0.931 . S
H542 C557 0.930 . S
C543 H531 0.930 . S
C543 C544 1.399 . S
C543 C548 1.399 . S
C544 C543 1.399 . S
C544 C545 1.376 . S
C545 H532 0.930 . S
C545 C544 1.376 . S
C545 C546 1.388 . S
C546 H533 0.930 . S
C546 C545 1.388 . S
C546 C547 1.390 . S
C547 C546 1.390 . S
C547 C548 1.394 . S
C547 C553 1.465 1_556 S
C548 C543 1.399 . S
C548 C547 1.394 . S
C548 C549 1.516 1_556 S
C549 C548 1.516 1_554 S
C549 C550 1.502 . S
C549 C551 1.561 . S
C549 C552 1.526 . S
C550 H534 0.959 . S
C550 H535 0.959 . S
C550 H536 0.961 . S
C550 C549 1.502 . S
C551 H537 0.960 . S
C551 H538 0.961 . S
C551 H539 0.959 . S
C551 C549 1.561 . S
C552 C549 1.526 . S
C552 C553 1.396 . S
C552 C557 1.390 . S
C553 C547 1.465 1_554 S
C553 C552 1.396 . S
C553 C554 1.399 . S
C554 H540 0.929 . S
C554 C553 1.399 . S
C554 C555 1.385 . S
C555 H541 0.931 . S
C555 C554 1.385 . S
C555 C556 1.389 . S
C556 C555 1.389 . S
C556 C557 1.387 . S
C557 H542 0.930 . S
C557 C552 1.390 . S
C557 C556 1.387 . S
H558 C570 0.930 . S
H559 C572 0.930 . S
H560 C573 0.930 . S
H561 C577 0.959 . S
H562 C577 0.959 1_556 S
H563 C577 0.961 . S
H564 C578 0.960 1_554 S
H565 C578 0.961 . S
H566 C578 0.959 . S
H567 C581 0.929 . S
H568 C582 0.931 . S
H569 C584 0.930 . S
C570 H558 0.930 . S
C570 C571 1.399 . S
C570 C575 1.399 . S
C571 C570 1.399 . S
C571 C572 1.376 . S
C572 H559 0.930 . S
C572 C571 1.376 . S
C572 C573 1.388 . S
C573 H560 0.930 . S
C573 C572 1.388 . S
C573 C574 1.390 . S
C574 C573 1.390 . S
C574 C575 1.394 . S
C574 C580 1.465 1_554 S
C575 C570 1.399 . S
C575 C574 1.394 . S
C575 C576 1.516 . S
C576 C575 1.516 . S
C576 C577 1.502 . S
C576 C578 1.561 1_554 S
C576 C579 1.526 1_554 S
C577 H561 0.959 . S
C577 H562 0.959 1_554 S
C577 H563 0.961 . S
C577 C576 1.502 . S
C578 H564 0.960 1_556 S
C578 H565 0.961 . S
C578 H566 0.959 . S
C578 C576 1.561 1_556 S
C579 C576 1.526 1_556 S
C579 C580 1.396 . S
C579 C584 1.390 . S
C580 C574 1.465 1_556 S
C580 C579 1.396 . S
C580 C581 1.399 . S
C581 H567 0.929 . S
C581 C580 1.399 . S
C581 C582 1.385 . S
C582 H568 0.931 . S
C582 C581 1.385 . S
C582 C583 1.389 . S
C583 C582 1.389 . S
C583 C584 1.387 . S
C584 H569 0.930 . S
C584 C579 1.390 . S
C584 C583 1.387 . S
H585 C597 0.930 . S
H586 C599 0.930 . S
H587 C600 0.930 . S
H588 C604 0.959 . S
H589 C604 0.959 . S
H590 C604 0.961 . S
H591 C605 0.960 . S
H592 C605 0.961 . S
H593 C605 0.959 . S
H594 C608 0.929 . S
H595 C609 0.931 . S
H596 C611 0.930 . S
C597 H585 0.930 . S
C597 C598 1.399 . S
C597 C602 1.399 . S
C598 C597 1.399 . S
C598 C599 1.376 . S
C599 H586 0.930 . S
C599 C598 1.376 . S
C599 C600 1.388 . S
C600 H587 0.930 . S
C600 C599 1.388 . S
C600 C601 1.390 . S
C601 C600 1.390 . S
C601 C602 1.394 . S
C601 C607 1.465 . S
C602 C597 1.399 . S
C602 C601 1.394 . S
C602 C603 1.516 . S
C603 C602 1.516 . S
C603 C604 1.502 . S
C603 C605 1.561 . S
C603 C606 1.526 . S
C604 H588 0.959 . S
C604 H589 0.959 . S
C604 H590 0.961 . S
C604 C603 1.502 . S
C605 H591 0.960 . S
C605 H592 0.961 . S
C605 H593 0.959 . S
C605 C603 1.561 . S
C606 C603 1.526 . S
C606 C607 1.396 . S
C606 C611 1.390 . S
C607 C601 1.465 . S
C607 C606 1.396 . S
C607 C608 1.399 . S
C608 H594 0.929 . S
C608 C607 1.399 . S
C608 C609 1.385 . S
C609 H595 0.931 . S
C609 C608 1.385 . S
C609 C610 1.389 . S
C610 C609 1.389 . S
C610 C611 1.387 . S
C611 H596 0.930 . S
C611 C606 1.390 . S
C611 C610 1.387 . S
H612 C624 0.930 . S
H613 C626 0.930 . S
H614 C627 0.930 . S
H615 C631 0.959 . S
H616 C631 0.959 . S
H617 C631 0.961 . S
H618 C632 0.960 . S
H619 C632 0.961 . S
H620 C632 0.959 . S
H621 C635 0.929 . S
H622 C636 0.931 . S
H623 C638 0.930 . S
C624 H612 0.930 . S
C624 C625 1.399 . S
C624 C629 1.399 . S
C625 C624 1.399 . S
C625 C626 1.376 . S
C626 H613 0.930 . S
C626 C625 1.376 . S
C626 C627 1.388 . S
C627 H614 0.930 . S
C627 C626 1.388 . S
C627 C628 1.390 . S
C628 C627 1.390 . S
C628 C629 1.394 . S
C628 C634 1.465 . S
C629 C624 1.399 . S
C629 C628 1.394 . S
C629 C630 1.516 . S
C630 C629 1.516 . S
C630 C631 1.502 . S
C630 C632 1.561 . S
C630 C633 1.526 . S
C631 H615 0.959 . S
C631 H616 0.959 . S
C631 H617 0.961 . S
C631 C630 1.502 . S
C632 H618 0.960 . S
C632 H619 0.961 . S
C632 H620 0.959 . S
C632 C630 1.561 . S
C633 C630 1.526 . S
C633 C634 1.396 . S
C633 C638 1.390 . S
C634 C628 1.465 . S
C634 C633 1.396 . S
C634 C635 1.399 . S
C635 H621 0.929 . S
C635 C634 1.399 . S
C635 C636 1.385 . S
C636 H622 0.931 . S
C636 C635 1.385 . S
C636 C637 1.389 . S
C637 C636 1.389 . S
C637 C638 1.387 . S
C638 H623 0.930 . S
C638 C633 1.390 . S
C638 C637 1.387 . S
H639 C651 0.930 . S
H640 C653 0.930 . S
H641 C654 0.930 . S
H642 C658 0.959 . S
H643 C658 0.959 . S
H644 C658 0.961 . S
H645 C659 0.960 . S
H646 C659 0.961 . S
H647 C659 0.959 . S
H648 C662 0.929 . S
H649 C663 0.931 . S
H650 C665 0.930 . S
C651 H639 0.930 . S
C651 C652 1.399 . S
C651 C656 1.399 . S
C652 C651 1.399 . S
C652 C653 1.376 . S
C653 H640 0.930 . S
C653 C652 1.376 . S
C653 C654 1.388 . S
C654 H641 0.930 . S
C654 C653 1.388 . S
C654 C655 1.390 . S
C655 C654 1.390 . S
C655 C656 1.394 . S
C655 C661 1.465 . S
C656 C651 1.399 . S
C656 C655 1.394 . S
C656 C657 1.516 . S
C657 C656 1.516 . S
C657 C658 1.502 . S
C657 C659 1.561 . S
C657 C660 1.526 . S
C658 H642 0.959 . S
C658 H643 0.959 . S
C658 H644 0.961 . S
C658 C657 1.502 . S
C659 H645 0.960 . S
C659 H646 0.961 . S
C659 H647 0.959 . S
C659 C657 1.561 . S
C660 C657 1.526 . S
C660 C661 1.396 . S
C660 C665 1.390 . S
C661 C655 1.465 . S
C661 C660 1.396 . S
C661 C662 1.399 . S
C662 H648 0.929 . S
C662 C661 1.399 . S
C662 C663 1.385 . S
C663 H649 0.931 . S
C663 C662 1.385 . S
C663 C664 1.389 . S
C664 C663 1.389 . S
C664 C665 1.387 . S
C665 H650 0.930 . S
C665 C660 1.390 . S
C665 C664 1.387 . S
H666 C678 0.930 . S
H667 C680 0.930 . S
H668 C681 0.930 . S
H669 C685 0.959 . S
H670 C685 0.959 . S
H671 C685 0.961 . S
H672 C686 0.960 1_554 S
H673 C686 0.961 . S
H674 C686 0.959 . S
H675 C689 0.929 . S
H676 C690 0.931 . S
H677 C692 0.930 . S
C678 H666 0.930 . S
C678 C679 1.399 . S
C678 C683 1.399 . S
C679 C678 1.399 . S
C679 C680 1.376 . S
C680 H667 0.930 . S
C680 C679 1.376 . S
C680 C681 1.388 . S
C681 H668 0.930 . S
C681 C680 1.388 . S
C681 C682 1.390 . S
C682 C681 1.390 . S
C682 C683 1.394 . S
C682 C688 1.465 1_554 S
C683 C678 1.399 . S
C683 C682 1.394 . S
C683 C684 1.516 1_554 S
C684 C683 1.516 1_556 S
C684 C685 1.502 . S
C684 C686 1.561 . S
C684 C687 1.526 . S
C685 H669 0.959 . S
C685 H670 0.959 . S
C685 H671 0.961 . S
C685 C684 1.502 . S
C686 H672 0.960 1_556 S
C686 H673 0.961 . S
C686 H674 0.959 . S
C686 C684 1.561 . S
C687 C684 1.526 . S
C687 C688 1.396 . S
C687 C692 1.390 . S
C688 C682 1.465 1_556 S
C688 C687 1.396 . S
C688 C689 1.399 . S
C689 H675 0.929 . S
C689 C688 1.399 . S
C689 C690 1.385 . S
C690 H676 0.931 . S
C690 C689 1.385 . S
C690 C691 1.389 . S
C691 C690 1.389 . S
C691 C692 1.387 . S
C692 H677 0.930 . S
C692 C687 1.390 . S
C692 C691 1.387 . S
H693 C705 0.930 . S
H694 C707 0.930 . S
H695 C708 0.930 . S
H696 C712 0.959 1_556 S
H697 C712 0.959 1_556 S
H698 C712 0.961 . S
H699 C713 0.960 . S
H700 C713 0.961 1_556 S
H701 C713 0.959 . S
H702 C716 0.929 . S
H703 C717 0.931 . S
H704 C719 0.930 . S
C705 H693 0.930 . S
C705 C706 1.399 . S
C705 C710 1.399 . S
C706 C705 1.399 . S
C706 C707 1.376 . S
C707 H694 0.930 . S
C707 C706 1.376 . S
C707 C708 1.388 . S
C708 H695 0.930 . S
C708 C707 1.388 . S
C708 C709 1.390 . S
C709 C708 1.390 . S
C709 C710 1.394 . S
C709 C715 1.465 1_554 S
C710 C705 1.399 . S
C710 C709 1.394 . S
C710 C711 1.516 . S
C711 C710 1.516 . S
C711 C712 1.502 . S
C711 C713 1.561 . S
C711 C714 1.526 1_554 S
C712 H696 0.959 1_554 S
C712 H697 0.959 1_554 S
C712 H698 0.961 . S
C712 C711 1.502 . S
C713 H699 0.960 . S
C713 H700 0.961 1_554 S
C713 H701 0.959 . S
C713 C711 1.561 . S
C714 C711 1.526 1_556 S
C714 C715 1.396 . S
C714 C719 1.390 . S
C715 C709 1.465 1_556 S
C715 C714 1.396 . S
C715 C716 1.399 . S
C716 H702 0.929 . S
C716 C715 1.399 . S
C716 C717 1.385 . S
C717 H703 0.931 . S
C717 C716 1.385 . S
C717 C718 1.389 . S
C718 C717 1.389 . S
C718 C719 1.387 . S
C719 H704 0.930 . S
C719 C714 1.390 . S
C719 C718 1.387 . S
H720 C732 0.930 . S
H721 C734 0.930 . S
H722 C735 0.930 . S
H723 C739 0.959 . S
H724 C739 0.959 . S
H725 C739 0.961 . S
H726 C740 0.960 . S
H727 C740 0.961 1_554 S
H728 C740 0.959 . S
H729 C743 0.929 . S
H730 C744 0.931 . S
H731 C746 0.930 . S
C732 H720 0.930 . S
C732 C733 1.399 . S
C732 C737 1.399 . S
C733 C732 1.399 . S
C733 C734 1.376 . S
C734 H721 0.930 . S
C734 C733 1.376 . S
C734 C735 1.388 . S
C735 H722 0.930 . S
C735 C734 1.388 . S
C735 C736 1.390 . S
C736 C735 1.390 . S
C736 C737 1.394 . S
C736 C742 1.465 1_556 S
C737 C732 1.399 . S
C737 C736 1.394 . S
C737 C738 1.516 . S
C738 C737 1.516 . S
C738 C739 1.502 . S
C738 C740 1.561 . S
C738 C741 1.526 1_556 S
C739 H723 0.959 . S
C739 H724 0.959 . S
C739 H725 0.961 . S
C739 C738 1.502 . S
C740 H726 0.960 . S
C740 H727 0.961 1_556 S
C740 H728 0.959 . S
C740 C738 1.561 . S
C741 C738 1.526 1_554 S
C741 C742 1.396 . S
C741 C746 1.390 . S
C742 C736 1.465 1_554 S
C742 C741 1.396 . S
C742 C743 1.399 . S
C743 H729 0.929 . S
C743 C742 1.399 . S
C743 C744 1.385 . S
C744 H730 0.931 . S
C744 C743 1.385 . S
C744 C745 1.389 . S
C745 C744 1.389 . S
C745 C746 1.387 . S
C746 H731 0.930 . S
C746 C741 1.390 . S
C746 C745 1.387 . S
H747 C759 0.930 . S
H748 C761 0.930 . S
H749 C762 0.930 . S
H750 C766 0.959 . S
H751 C766 0.959 . S
H752 C766 0.961 . S
H753 C767 0.960 . S
H754 C767 0.961 . S
H755 C767 0.959 . S
H756 C770 0.929 . S
H757 C771 0.931 . S
H758 C773 0.930 . S
C759 H747 0.930 . S
C759 C760 1.399 . S
C759 C764 1.399 . S
C760 C759 1.399 . S
C760 C761 1.376 . S
C761 H748 0.930 . S
C761 C760 1.376 . S
C761 C762 1.388 . S
C762 H749 0.930 . S
C762 C761 1.388 . S
C762 C763 1.390 . S
C763 C762 1.390 . S
C763 C764 1.394 . S
C763 C769 1.465 . S
C764 C759 1.399 . S
C764 C763 1.394 . S
C764 C765 1.516 . S
C765 C764 1.516 . S
C765 C766 1.502 . S
C765 C767 1.561 . S
C765 C768 1.526 . S
C766 H750 0.959 . S
C766 H751 0.959 . S
C766 H752 0.961 . S
C766 C765 1.502 . S
C767 H753 0.960 . S
C767 H754 0.961 . S
C767 H755 0.959 . S
C767 C765 1.561 . S
C768 C765 1.526 . S
C768 C769 1.396 . S
C768 C773 1.390 . S
C769 C763 1.465 . S
C769 C768 1.396 . S
C769 C770 1.399 . S
C770 H756 0.929 . S
C770 C769 1.399 . S
C770 C771 1.385 . S
C771 H757 0.931 . S
C771 C770 1.385 . S
C771 C772 1.389 . S
C772 C771 1.389 . S
C772 C773 1.387 . S
C773 H758 0.930 . S
C773 C768 1.390 . S
C773 C772 1.387 . S
H774 C786 0.930 . S
H775 C788 0.930 . S
H776 C789 0.930 . S
H777 C793 0.959 . S
H778 C793 0.959 . S
H779 C793 0.961 . S
H780 C794 0.960 . S
H781 C794 0.961 . S
H782 C794 0.959 . S
H783 C797 0.929 . S
H784 C798 0.931 . S
H785 C800 0.930 . S
C786 H774 0.930 . S
C786 C787 1.399 . S
C786 C791 1.399 . S
C787 C786 1.399 . S
C787 C788 1.376 . S
C788 H775 0.930 . S
C788 C787 1.376 . S
C788 C789 1.388 . S
C789 H776 0.930 . S
C789 C788 1.388 . S
C789 C790 1.390 . S
C790 C789 1.390 . S
C790 C791 1.394 . S
C790 C796 1.465 . S
C791 C786 1.399 . S
C791 C790 1.394 . S
C791 C792 1.516 . S
C792 C791 1.516 . S
C792 C793 1.502 . S
C792 C794 1.561 . S
C792 C795 1.526 . S
C793 H777 0.959 . S
C793 H778 0.959 . S
C793 H779 0.961 . S
C793 C792 1.502 . S
C794 H780 0.960 . S
C794 H781 0.961 . S
C794 H782 0.959 . S
C794 C792 1.561 . S
C795 C792 1.526 . S
C795 C796 1.396 . S
C795 C800 1.390 . S
C796 C790 1.465 . S
C796 C795 1.396 . S
C796 C797 1.399 . S
C797 H783 0.929 . S
C797 C796 1.399 . S
C797 C798 1.385 . S
C798 H784 0.931 . S
C798 C797 1.385 . S
C798 C799 1.389 . S
C799 C798 1.389 . S
C799 C800 1.387 . S
C800 H785 0.930 . S
C800 C795 1.390 . S
C800 C799 1.387 . S
H801 C813 0.930 . S
H802 C815 0.930 . S
H803 C816 0.930 . S
H804 C820 0.959 . S
H805 C820 0.959 . S
H806 C820 0.961 . S
H807 C821 0.960 . S
H808 C821 0.961 . S
H809 C821 0.959 . S
H810 C824 0.929 . S
H811 C825 0.931 . S
H812 C827 0.930 . S
C813 H801 0.930 . S
C813 C814 1.399 . S
C813 C818 1.399 . S
C814 C813 1.399 . S
C814 C815 1.376 . S
C815 H802 0.930 . S
C815 C814 1.376 . S
C815 C816 1.388 . S
C816 H803 0.930 . S
C816 C815 1.388 . S
C816 C817 1.390 . S
C817 C816 1.390 . S
C817 C818 1.394 . S
C817 C823 1.465 . S
C818 C813 1.399 . S
C818 C817 1.394 . S
C818 C819 1.516 . S
C819 C818 1.516 . S
C819 C820 1.502 . S
C819 C821 1.561 . S
C819 C822 1.526 . S
C820 H804 0.959 . S
C820 H805 0.959 . S
C820 H806 0.961 . S
C820 C819 1.502 . S
C821 H807 0.960 . S
C821 H808 0.961 . S
C821 H809 0.959 . S
C821 C819 1.561 . S
C822 C819 1.526 . S
C822 C823 1.396 . S
C822 C827 1.390 . S
C823 C817 1.465 . S
C823 C822 1.396 . S
C823 C824 1.399 . S
C824 H810 0.929 . S
C824 C823 1.399 . S
C824 C825 1.385 . S
C825 H811 0.931 . S
C825 C824 1.385 . S
C825 C826 1.389 . S
C826 C825 1.389 . S
C826 C827 1.387 . S
C827 H812 0.930 . S
C827 C822 1.390 . S
C827 C826 1.387 . S
H828 C840 0.930 . S
H829 C842 0.930 . S
H830 C843 0.930 . S
H831 C847 0.959 . S
H832 C847 0.959 . S
H833 C847 0.961 . S
H834 C848 0.960 . S
H835 C848 0.961 . S
H836 C848 0.959 . S
H837 C851 0.929 . S
H838 C852 0.931 . S
H839 C854 0.930 . S
C840 H828 0.930 . S
C840 C841 1.399 . S
C840 C845 1.399 . S
C841 C840 1.399 . S
C841 C842 1.376 . S
C842 H829 0.930 . S
C842 C841 1.376 . S
C842 C843 1.388 . S
C843 H830 0.930 . S
C843 C842 1.388 . S
C843 C844 1.390 . S
C844 C843 1.390 . S
C844 C845 1.394 . S
C844 C850 1.465 . S
C845 C840 1.399 . S
C845 C844 1.394 . S
C845 C846 1.516 . S
C846 C845 1.516 . S
C846 C847 1.502 . S
C846 C848 1.561 . S
C846 C849 1.526 . S
C847 H831 0.959 . S
C847 H832 0.959 . S
C847 H833 0.961 . S
C847 C846 1.502 . S
C848 H834 0.960 . S
C848 H835 0.961 . S
C848 H836 0.959 . S
C848 C846 1.561 . S
C849 C846 1.526 . S
C849 C850 1.396 . S
C849 C854 1.390 . S
C850 C844 1.465 . S
C850 C849 1.396 . S
C850 C851 1.399 . S
C851 H837 0.929 . S
C851 C850 1.399 . S
C851 C852 1.385 . S
C852 H838 0.931 . S
C852 C851 1.385 . S
C852 C853 1.389 . S
C853 C852 1.389 . S
C853 C854 1.387 . S
C854 H839 0.930 . S
C854 C849 1.390 . S
C854 C853 1.387 . S
H855 C867 0.930 . S
H856 C869 0.930 . S
H857 C870 0.930 . S
H858 C874 0.959 . S
H859 C874 0.959 . S
H860 C874 0.961 . S
H861 C875 0.960 . S
H862 C875 0.961 . S
H863 C875 0.959 . S
H864 C878 0.929 . S
H865 C879 0.931 . S
H866 C881 0.930 . S
C867 H855 0.930 . S
C867 C868 1.399 . S
C867 C872 1.399 . S
C868 C867 1.399 . S
C868 C869 1.376 . S
C869 H856 0.930 . S
C869 C868 1.376 . S
C869 C870 1.388 . S
C870 H857 0.930 . S
C870 C869 1.388 . S
C870 C871 1.390 . S
C871 C870 1.390 . S
C871 C872 1.394 . S
C871 C877 1.465 . S
C872 C867 1.399 . S
C872 C871 1.394 . S
C872 C873 1.516 . S
C873 C872 1.516 . S
C873 C874 1.502 . S
C873 C875 1.561 . S
C873 C876 1.526 . S
C874 H858 0.959 . S
C874 H859 0.959 . S
C874 H860 0.961 . S
C874 C873 1.502 . S
C875 H861 0.960 . S
C875 H862 0.961 . S
C875 H863 0.959 . S
C875 C873 1.561 . S
C876 C873 1.526 . S
C876 C877 1.396 . S
C876 C881 1.390 . S
C877 C871 1.465 . S
C877 C876 1.396 . S
C877 C878 1.399 . S
C878 H864 0.929 . S
C878 C877 1.399 . S
C878 C879 1.385 . S
C879 H865 0.931 . S
C879 C878 1.385 . S
C879 C880 1.389 . S
C880 C879 1.389 . S
C880 C881 1.387 . S
C881 H866 0.930 . S
C881 C876 1.390 . S
C881 C880 1.387 . S
H882 C894 0.930 . S
H883 C896 0.930 . S
H884 C897 0.930 . S
H885 C901 0.959 . S
H886 C901 0.959 . S
H887 C901 0.961 . S
H888 C902 0.960 . S
H889 C902 0.961 . S
H890 C902 0.959 . S
H891 C905 0.929 . S
H892 C906 0.931 . S
H893 C908 0.930 . S
C894 H882 0.930 . S
C894 C895 1.399 . S
C894 C899 1.399 . S
C895 C894 1.399 . S
C895 C896 1.376 . S
C896 H883 0.930 . S
C896 C895 1.376 . S
C896 C897 1.388 . S
C897 H884 0.930 . S
C897 C896 1.388 . S
C897 C898 1.390 . S
C898 C897 1.390 . S
C898 C899 1.394 . S
C898 C904 1.465 . S
C899 C894 1.399 . S
C899 C898 1.394 . S
C899 C900 1.516 . S
C900 C899 1.516 . S
C900 C901 1.502 . S
C900 C902 1.561 . S
C900 C903 1.526 . S
C901 H885 0.959 . S
C901 H886 0.959 . S
C901 H887 0.961 . S
C901 C900 1.502 . S
C902 H888 0.960 . S
C902 H889 0.961 . S
C902 H890 0.959 . S
C902 C900 1.561 . S
C903 C900 1.526 . S
C903 C904 1.396 . S
C903 C908 1.390 . S
C904 C898 1.465 . S
C904 C903 1.396 . S
C904 C905 1.399 . S
C905 H891 0.929 . S
C905 C904 1.399 . S
C905 C906 1.385 . S
C906 H892 0.931 . S
C906 C905 1.385 . S
C906 C907 1.389 . S
C907 C906 1.389 . S
C907 C908 1.387 . S
C908 H893 0.930 . S
C908 C903 1.390 . S
C908 C907 1.387 . S
H909 C921 0.930 . S
H910 C923 0.930 . S
H911 C924 0.930 . S
H912 C928 0.959 . S
H913 C928 0.959 . S
H914 C928 0.961 . S
H915 C929 0.960 . S
H916 C929 0.961 . S
H917 C929 0.959 . S
H918 C932 0.929 . S
H919 C933 0.931 . S
H920 C935 0.930 . S
C921 H909 0.930 . S
C921 C922 1.399 . S
C921 C926 1.399 . S
C922 C921 1.399 . S
C922 C923 1.376 . S
C923 H910 0.930 . S
C923 C922 1.376 . S
C923 C924 1.388 . S
C924 H911 0.930 . S
C924 C923 1.388 . S
C924 C925 1.390 . S
C925 C924 1.390 . S
C925 C926 1.394 . S
C925 C931 1.465 . S
C926 C921 1.399 . S
C926 C925 1.394 . S
C926 C927 1.516 . S
C927 C926 1.516 . S
C927 C928 1.502 . S
C927 C929 1.561 . S
C927 C930 1.526 . S
C928 H912 0.959 . S
C928 H913 0.959 . S
C928 H914 0.961 . S
C928 C927 1.502 . S
C929 H915 0.960 . S
C929 H916 0.961 . S
C929 H917 0.959 . S
C929 C927 1.561 . S
C930 C927 1.526 . S
C930 C931 1.396 . S
C930 C935 1.390 . S
C931 C925 1.465 . S
C931 C930 1.396 . S
C931 C932 1.399 . S
C932 H918 0.929 . S
C932 C931 1.399 . S
C932 C933 1.385 . S
C933 H919 0.931 . S
C933 C932 1.385 . S
C933 C934 1.389 . S
C934 C933 1.389 . S
C934 C935 1.387 . S
C935 H920 0.930 . S
C935 C930 1.390 . S
C935 C934 1.387 . S
H936 C948 0.930 . S
H937 C950 0.930 . S
H938 C951 0.930 . S
H939 C955 0.959 . S
H940 C955 0.959 . S
H941 C955 0.961 . S
H942 C956 0.960 . S
H943 C956 0.961 . S
H944 C956 0.959 . S
H945 C959 0.929 . S
H946 C960 0.931 . S
H947 C962 0.930 . S
C948 H936 0.930 . S
C948 C949 1.399 . S
C948 C953 1.399 . S
C949 C948 1.399 . S
C949 C950 1.376 . S
C950 H937 0.930 . S
C950 C949 1.376 . S
C950 C951 1.388 . S
C951 H938 0.930 . S
C951 C950 1.388 . S
C951 C952 1.390 . S
C952 C951 1.390 . S
C952 C953 1.394 . S
C952 C958 1.465 . S
C953 C948 1.399 . S
C953 C952 1.394 . S
C953 C954 1.516 . S
C954 C953 1.516 . S
C954 C955 1.502 . S
C954 C956 1.561 . S
C954 C957 1.526 . S
C955 H939 0.959 . S
C955 H940 0.959 . S
C955 H941 0.961 . S
C955 C954 1.502 . S
C956 H942 0.960 . S
C956 H943 0.961 . S
C956 H944 0.959 . S
C956 C954 1.561 . S
C957 C954 1.526 . S
C957 C958 1.396 . S
C957 C962 1.390 . S
C958 C952 1.465 . S
C958 C957 1.396 . S
C958 C959 1.399 . S
C959 H945 0.929 . S
C959 C958 1.399 . S
C959 C960 1.385 . S
C960 H946 0.931 . S
C960 C959 1.385 . S
C960 C961 1.389 . S
C961 C960 1.389 . S
C961 C962 1.387 . S
C962 H947 0.930 . S
C962 C957 1.390 . S
C962 C961 1.387 . S
H963 C975 0.930 . S
H964 C977 0.930 . S
H965 C978 0.930 . S
H966 C982 0.959 . S
H967 C982 0.959 . S
H968 C982 0.961 . S
H969 C983 0.960 . S
H970 C983 0.961 . S
H971 C983 0.959 . S
H972 C986 0.929 . S
H973 C987 0.931 . S
H974 C989 0.930 . S
C975 H963 0.930 . S
C975 C976 1.399 . S
C975 C980 1.399 . S
C976 C975 1.399 . S
C976 C977 1.376 . S
C977 H964 0.930 . S
C977 C976 1.376 . S
C977 C978 1.388 . S
C978 H965 0.930 . S
C978 C977 1.388 . S
C978 C979 1.390 . S
C979 C978 1.390 . S
C979 C980 1.394 . S
C979 C985 1.465 . S
C980 C975 1.399 . S
C980 C979 1.394 . S
C980 C981 1.516 . S
C981 C980 1.516 . S
C981 C982 1.502 . S
C981 C983 1.561 . S
C981 C984 1.526 . S
C982 H966 0.959 . S
C982 H967 0.959 . S
C982 H968 0.961 . S
C982 C981 1.502 . S
C983 H969 0.960 . S
C983 H970 0.961 . S
C983 H971 0.959 . S
C983 C981 1.561 . S
C984 C981 1.526 . S
C984 C985 1.396 . S
C984 C989 1.390 . S
C985 C979 1.465 . S
C985 C984 1.396 . S
C985 C986 1.399 . S
C986 H972 0.929 . S
C986 C985 1.399 . S
C986 C987 1.385 . S
C987 H973 0.931 . S
C987 C986 1.385 . S
C987 C988 1.389 . S
C988 C987 1.389 . S
C988 C989 1.387 . S
C989 H974 0.930 . S
C989 C984 1.390 . S
C989 C988 1.387 . S
H990 C1002 0.930 . S
H991 C1004 0.930 . S
H992 C1005 0.930 . S
H993 C1009 0.959 . S
H994 C1009 0.959 . S
H995 C1009 0.961 . S
H996 C1010 0.960 . S
H997 C1010 0.961 . S
H998 C1010 0.959 . S
H999 C1013 0.929 . S
H1000 C1014 0.931 . S
H1001 C1016 0.930 . S
C1002 H990 0.930 . S
C1002 C1003 1.399 . S
C1002 C1007 1.399 . S
C1003 C1002 1.399 . S
C1003 C1004 1.376 . S
C1004 H991 0.930 . S
C1004 C1003 1.376 . S
C1004 C1005 1.388 . S
C1005 H992 0.930 . S
C1005 C1004 1.388 . S
C1005 C1006 1.390 . S
C1006 C1005 1.390 . S
C1006 C1007 1.394 . S
C1006 C1012 1.465 . S
C1007 C1002 1.399 . S
C1007 C1006 1.394 . S
C1007 C1008 1.516 . S
C1008 C1007 1.516 . S
C1008 C1009 1.502 . S
C1008 C1010 1.561 . S
C1008 C1011 1.526 . S
C1009 H993 0.959 . S
C1009 H994 0.959 . S
C1009 H995 0.961 . S
C1009 C1008 1.502 . S
C1010 H996 0.960 . S
C1010 H997 0.961 . S
C1010 H998 0.959 . S
C1010 C1008 1.561 . S
C1011 C1008 1.526 . S
C1011 C1012 1.396 . S
C1011 C1016 1.390 . S
C1012 C1006 1.465 . S
C1012 C1011 1.396 . S
C1012 C1013 1.399 . S
C1013 H999 0.929 . S
C1013 C1012 1.399 . S
C1013 C1014 1.385 . S
C1014 H1000 0.931 . S
C1014 C1013 1.385 . S
C1014 C1015 1.389 . S
C1015 C1014 1.389 . S
C1015 C1016 1.387 . S
C1016 H1001 0.930 . S
C1016 C1011 1.390 . S
C1016 C1015 1.387 . S
H1017 C1029 0.930 . S
H1018 C1031 0.930 . S
H1019 C1032 0.930 . S
H1020 C1036 0.959 . S
H1021 C1036 0.959 . S
H1022 C1036 0.961 . S
H1023 C1037 0.960 . S
H1024 C1037 0.961 . S
H1025 C1037 0.959 . S
H1026 C1040 0.929 . S
H1027 C1041 0.931 . S
H1028 C1043 0.930 . S
C1029 H1017 0.930 . S
C1029 C1030 1.399 . S
C1029 C1034 1.399 . S
C1030 C1029 1.399 . S
C1030 C1031 1.376 . S
C1031 H1018 0.930 . S
C1031 C1030 1.376 . S
C1031 C1032 1.388 . S
C1032 H1019 0.930 . S
C1032 C1031 1.388 . S
C1032 C1033 1.390 . S
C1033 C1032 1.390 . S
C1033 C1034 1.394 . S
C1033 C1039 1.465 . S
C1034 C1029 1.399 . S
C1034 C1033 1.394 . S
C1034 C1035 1.516 . S
C1035 C1034 1.516 . S
C1035 C1036 1.502 . S
C1035 C1037 1.561 . S
C1035 C1038 1.526 . S
C1036 H1020 0.959 . S
C1036 H1021 0.959 . S
C1036 H1022 0.961 . S
C1036 C1035 1.502 . S
C1037 H1023 0.960 . S
C1037 H1024 0.961 . S
C1037 H1025 0.959 . S
C1037 C1035 1.561 . S
C1038 C1035 1.526 . S
C1038 C1039 1.396 . S
C1038 C1043 1.390 . S
C1039 C1033 1.465 . S
C1039 C1038 1.396 . S
C1039 C1040 1.399 . S
C1040 H1026 0.929 . S
C1040 C1039 1.399 . S
C1040 C1041 1.385 . S
C1041 H1027 0.931 . S
C1041 C1040 1.385 . S
C1041 C1042 1.389 . S
C1042 C1041 1.389 . S
C1042 C1043 1.387 . S
C1043 H1028 0.930 . S
C1043 C1038 1.390 . S
C1043 C1042 1.387 . S
H1044 C1056 0.930 . S
H1045 C1058 0.930 . S
H1046 C1059 0.930 . S
H1047 C1063 0.959 . S
H1048 C1063 0.959 . S
H1049 C1063 0.961 . S
H1050 C1064 0.960 . S
H1051 C1064 0.961 . S
H1052 C1064 0.959 . S
H1053 C1067 0.929 . S
H1054 C1068 0.931 . S
H1055 C1070 0.930 . S
C1056 H1044 0.930 . S
C1056 C1057 1.399 . S
C1056 C1061 1.399 . S
C1057 C1056 1.399 . S
C1057 C1058 1.376 . S
C1058 H1045 0.930 . S
C1058 C1057 1.376 . S
C1058 C1059 1.388 . S
C1059 H1046 0.930 . S
C1059 C1058 1.388 . S
C1059 C1060 1.390 . S
C1060 C1059 1.390 . S
C1060 C1061 1.394 . S
C1060 C1066 1.465 . S
C1061 C1056 1.399 . S
C1061 C1060 1.394 . S
C1061 C1062 1.516 . S
C1062 C1061 1.516 . S
C1062 C1063 1.502 . S
C1062 C1064 1.561 . S
C1062 C1065 1.526 . S
C1063 H1047 0.959 . S
C1063 H1048 0.959 . S
C1063 H1049 0.961 . S
C1063 C1062 1.502 . S
C1064 H1050 0.960 . S
C1064 H1051 0.961 . S
C1064 H1052 0.959 . S
C1064 C1062 1.561 . S
C1065 C1062 1.526 . S
C1065 C1066 1.396 . S
C1065 C1070 1.390 . S
C1066 C1060 1.465 . S
C1066 C1065 1.396 . S
C1066 C1067 1.399 . S
C1067 H1053 0.929 . S
C1067 C1066 1.399 . S
C1067 C1068 1.385 . S
C1068 H1054 0.931 . S
C1068 C1067 1.385 . S
C1068 C1069 1.389 . S
C1069 C1068 1.389 . S
C1069 C1070 1.387 . S
C1070 H1055 0.930 . S
C1070 C1065 1.390 . S
C1070 C1069 1.387 . S
H1071 C1083 0.930 . S
H1072 C1085 0.930 . S
H1073 C1086 0.930 . S
H1074 C1090 0.959 . S
H1075 C1090 0.959 . S
H1076 C1090 0.961 . S
H1077 C1091 0.960 . S
H1078 C1091 0.961 . S
H1079 C1091 0.959 . S
H1080 C1094 0.929 . S
H1081 C1095 0.931 . S
H1082 C1097 0.930 . S
C1083 H1071 0.930 . S
C1083 C1084 1.399 . S
C1083 C1088 1.399 . S
C1084 C1083 1.399 . S
C1084 C1085 1.376 . S
C1085 H1072 0.930 . S
C1085 C1084 1.376 . S
C1085 C1086 1.388 . S
C1086 H1073 0.930 . S
C1086 C1085 1.388 . S
C1086 C1087 1.390 . S
C1087 C1086 1.390 . S
C1087 C1088 1.394 . S
C1087 C1093 1.465 . S
C1088 C1083 1.399 . S
C1088 C1087 1.394 . S
C1088 C1089 1.516 . S
C1089 C1088 1.516 . S
C1089 C1090 1.502 . S
C1089 C1091 1.561 . S
C1089 C1092 1.526 . S
C1090 H1074 0.959 . S
C1090 H1075 0.959 . S
C1090 H1076 0.961 . S
C1090 C1089 1.502 . S
C1091 H1077 0.960 . S
C1091 H1078 0.961 . S
C1091 H1079 0.959 . S
C1091 C1089 1.561 . S
C1092 C1089 1.526 . S
C1092 C1093 1.396 . S
C1092 C1097 1.390 . S
C1093 C1087 1.465 . S
C1093 C1092 1.396 . S
C1093 C1094 1.399 . S
C1094 H1080 0.929 . S
C1094 C1093 1.399 . S
C1094 C1095 1.385 . S
C1095 H1081 0.931 . S
C1095 C1094 1.385 . S
C1095 C1096 1.389 . S
C1096 C1095 1.389 . S
C1096 C1097 1.387 . S
C1097 H1082 0.930 . S
C1097 C1092 1.390 . S
C1097 C1096 1.387 . S
H1098 C1110 0.930 . S
H1099 C1112 0.930 . S
H1100 C1113 0.930 . S
H1101 C1117 0.959 . S
H1102 C1117 0.959 . S
H1103 C1117 0.961 . S
H1104 C1118 0.960 . S
H1105 C1118 0.961 . S
H1106 C1118 0.959 . S
H1107 C1121 0.929 . S
H1108 C1122 0.931 . S
H1109 C1124 0.930 . S
C1110 H1098 0.930 . S
C1110 C1111 1.399 . S
C1110 C1115 1.399 . S
C1111 C1110 1.399 . S
C1111 C1112 1.376 . S
C1112 H1099 0.930 . S
C1112 C1111 1.376 . S
C1112 C1113 1.388 . S
C1113 H1100 0.930 . S
C1113 C1112 1.388 . S
C1113 C1114 1.390 . S
C1114 C1113 1.390 . S
C1114 C1115 1.394 . S
C1114 C1120 1.465 . S
C1115 C1110 1.399 . S
C1115 C1114 1.394 . S
C1115 C1116 1.516 . S
C1116 C1115 1.516 . S
C1116 C1117 1.502 . S
C1116 C1118 1.561 . S
C1116 C1119 1.526 . S
C1117 H1101 0.959 . S
C1117 H1102 0.959 . S
C1117 H1103 0.961 . S
C1117 C1116 1.502 . S
C1118 H1104 0.960 . S
C1118 H1105 0.961 . S
C1118 H1106 0.959 . S
C1118 C1116 1.561 . S
C1119 C1116 1.526 . S
C1119 C1120 1.396 . S
C1119 C1124 1.390 . S
C1120 C1114 1.465 . S
C1120 C1119 1.396 . S
C1120 C1121 1.399 . S
C1121 H1107 0.929 . S
C1121 C1120 1.399 . S
C1121 C1122 1.385 . S
C1122 H1108 0.931 . S
C1122 C1121 1.385 . S
C1122 C1123 1.389 . S
C1123 C1122 1.389 . S
C1123 C1124 1.387 . S
C1124 H1109 0.930 . S
C1124 C1119 1.390 . S
C1124 C1123 1.387 . S
H1125 C1137 0.930 . S
H1126 C1139 0.930 . S
H1127 C1140 0.930 . S
H1128 C1144 0.959 . S
H1129 C1144 0.959 . S
H1130 C1144 0.961 . S
H1131 C1145 0.960 . S
H1132 C1145 0.961 . S
H1133 C1145 0.959 . S
H1134 C1148 0.929 . S
H1135 C1149 0.931 . S
H1136 C1151 0.930 . S
C1137 H1125 0.930 . S
C1137 C1138 1.399 . S
C1137 C1142 1.399 . S
C1138 C1137 1.399 . S
C1138 C1139 1.376 . S
C1139 H1126 0.930 . S
C1139 C1138 1.376 . S
C1139 C1140 1.388 . S
C1140 H1127 0.930 . S
C1140 C1139 1.388 . S
C1140 C1141 1.390 . S
C1141 C1140 1.390 . S
C1141 C1142 1.394 . S
C1141 C1147 1.465 . S
C1142 C1137 1.399 . S
C1142 C1141 1.394 . S
C1142 C1143 1.516 . S
C1143 C1142 1.516 . S
C1143 C1144 1.502 . S
C1143 C1145 1.561 . S
C1143 C1146 1.526 . S
C1144 H1128 0.959 . S
C1144 H1129 0.959 . S
C1144 H1130 0.961 . S
C1144 C1143 1.502 . S
C1145 H1131 0.960 . S
C1145 H1132 0.961 . S
C1145 H1133 0.959 . S
C1145 C1143 1.561 . S
C1146 C1143 1.526 . S
C1146 C1147 1.396 . S
C1146 C1151 1.390 . S
C1147 C1141 1.465 . S
C1147 C1146 1.396 . S
C1147 C1148 1.399 . S
C1148 H1134 0.929 . S
C1148 C1147 1.399 . S
C1148 C1149 1.385 . S
C1149 H1135 0.931 . S
C1149 C1148 1.385 . S
C1149 C1150 1.389 . S
C1150 C1149 1.389 . S
C1150 C1151 1.387 . S
C1151 H1136 0.930 . S
C1151 C1146 1.390 . S
C1151 C1150 1.387 . S
H1152 C1164 0.930 . S
H1153 C1166 0.930 . S
H1154 C1167 0.930 . S
H1155 C1171 0.959 . S
H1156 C1171 0.959 . S
H1157 C1171 0.961 . S
H1158 C1172 0.960 . S
H1159 C1172 0.961 . S
H1160 C1172 0.959 . S
H1161 C1175 0.929 . S
H1162 C1176 0.931 . S
H1163 C1178 0.930 . S
C1164 H1152 0.930 . S
C1164 C1165 1.399 . S
C1164 C1169 1.399 . S
C1165 C1164 1.399 . S
C1165 C1166 1.376 . S
C1166 H1153 0.930 . S
C1166 C1165 1.376 . S
C1166 C1167 1.388 . S
C1167 H1154 0.930 . S
C1167 C1166 1.388 . S
C1167 C1168 1.390 . S
C1168 C1167 1.390 . S
C1168 C1169 1.394 . S
C1168 C1174 1.465 . S
C1169 C1164 1.399 . S
C1169 C1168 1.394 . S
C1169 C1170 1.516 . S
C1170 C1169 1.516 . S
C1170 C1171 1.502 . S
C1170 C1172 1.561 . S
C1170 C1173 1.526 . S
C1171 H1155 0.959 . S
C1171 H1156 0.959 . S
C1171 H1157 0.961 . S
C1171 C1170 1.502 . S
C1172 H1158 0.960 . S
C1172 H1159 0.961 . S
C1172 H1160 0.959 . S
C1172 C1170 1.561 . S
C1173 C1170 1.526 . S
C1173 C1174 1.396 . S
C1173 C1178 1.390 . S
C1174 C1168 1.465 . S
C1174 C1173 1.396 . S
C1174 C1175 1.399 . S
C1175 H1161 0.929 . S
C1175 C1174 1.399 . S
C1175 C1176 1.385 . S
C1176 H1162 0.931 . S
C1176 C1175 1.385 . S
C1176 C1177 1.389 . S
C1177 C1176 1.389 . S
C1177 C1178 1.387 . S
C1178 H1163 0.930 . S
C1178 C1173 1.390 . S
C1178 C1177 1.387 . S
H1179 C1191 0.930 . S
H1180 C1193 0.930 . S
H1181 C1194 0.930 . S
H1182 C1198 0.959 . S
H1183 C1198 0.959 . S
H1184 C1198 0.961 . S
H1185 C1199 0.960 . S
H1186 C1199 0.961 . S
H1187 C1199 0.959 . S
H1188 C1202 0.929 . S
H1189 C1203 0.931 . S
H1190 C1205 0.930 . S
C1191 H1179 0.930 . S
C1191 C1192 1.399 . S
C1191 C1196 1.399 . S
C1192 C1191 1.399 . S
C1192 C1193 1.376 . S
C1193 H1180 0.930 . S
C1193 C1192 1.376 . S
C1193 C1194 1.388 . S
C1194 H1181 0.930 . S
C1194 C1193 1.388 . S
C1194 C1195 1.390 . S
C1195 C1194 1.390 . S
C1195 C1196 1.394 . S
C1195 C1201 1.465 . S
C1196 C1191 1.399 . S
C1196 C1195 1.394 . S
C1196 C1197 1.516 . S
C1197 C1196 1.516 . S
C1197 C1198 1.502 . S
C1197 C1199 1.561 . S
C1197 C1200 1.526 . S
C1198 H1182 0.959 . S
C1198 H1183 0.959 . S
C1198 H1184 0.961 . S
C1198 C1197 1.502 . S
C1199 H1185 0.960 . S
C1199 H1186 0.961 . S
C1199 H1187 0.959 . S
C1199 C1197 1.561 . S
C1200 C1197 1.526 . S
C1200 C1201 1.396 . S
C1200 C1205 1.390 . S
C1201 C1195 1.465 . S
C1201 C1200 1.396 . S
C1201 C1202 1.399 . S
C1202 H1188 0.929 . S
C1202 C1201 1.399 . S
C1202 C1203 1.385 . S
C1203 H1189 0.931 . S
C1203 C1202 1.385 . S
C1203 C1204 1.389 . S
C1204 C1203 1.389 . S
C1204 C1205 1.387 . S
C1205 H1190 0.930 . S
C1205 C1200 1.390 . S
C1205 C1204 1.387 . S
H1206 C1218 0.930 . S
H1207 C1220 0.930 . S
H1208 C1221 0.930 . S
H1209 C1225 0.959 . S
H1210 C1225 0.959 . S
H1211 C1225 0.961 . S
H1212 C1226 0.960 . S
H1213 C1226 0.961 . S
H1214 C1226 0.959 . S
H1215 C1229 0.929 . S
H1216 C1230 0.931 . S
H1217 C1232 0.930 . S
C1218 H1206 0.930 . S
C1218 C1219 1.399 . S
C1218 C1223 1.399 . S
C1219 C1218 1.399 . S
C1219 C1220 1.376 . S
C1220 H1207 0.930 . S
C1220 C1219 1.376 . S
C1220 C1221 1.388 . S
C1221 H1208 0.930 . S
C1221 C1220 1.388 . S
C1221 C1222 1.390 . S
C1222 C1221 1.390 . S
C1222 C1223 1.394 . S
C1222 C1228 1.465 . S
C1223 C1218 1.399 . S
C1223 C1222 1.394 . S
C1223 C1224 1.516 . S
C1224 C1223 1.516 . S
C1224 C1225 1.502 . S
C1224 C1226 1.561 . S
C1224 C1227 1.526 . S
C1225 H1209 0.959 . S
C1225 H1210 0.959 . S
C1225 H1211 0.961 . S
C1225 C1224 1.502 . S
C1226 H1212 0.960 . S
C1226 H1213 0.961 . S
C1226 H1214 0.959 . S
C1226 C1224 1.561 . S
C1227 C1224 1.526 . S
C1227 C1228 1.396 . S
C1227 C1232 1.390 . S
C1228 C1222 1.465 . S
C1228 C1227 1.396 . S
C1228 C1229 1.399 . S
C1229 H1215 0.929 . S
C1229 C1228 1.399 . S
C1229 C1230 1.385 . S
C1230 H1216 0.931 . S
C1230 C1229 1.385 . S
C1230 C1231 1.389 . S
C1231 C1230 1.389 . S
C1231 C1232 1.387 . S
C1232 H1217 0.930 . S
C1232 C1227 1.390 . S
C1232 C1231 1.387 . S
H1233 C1245 0.930 . S
H1234 C1247 0.930 . S
H1235 C1248 0.930 . S
H1236 C1252 0.959 . S
H1237 C1252 0.959 . S
H1238 C1252 0.961 . S
H1239 C1253 0.960 . S
H1240 C1253 0.961 . S
H1241 C1253 0.959 . S
H1242 C1256 0.929 . S
H1243 C1257 0.931 . S
H1244 C1259 0.930 . S
C1245 H1233 0.930 . S
C1245 C1246 1.399 . S
C1245 C1250 1.399 . S
C1246 C1245 1.399 . S
C1246 C1247 1.376 . S
C1247 H1234 0.930 . S
C1247 C1246 1.376 . S
C1247 C1248 1.388 . S
C1248 H1235 0.930 . S
C1248 C1247 1.388 . S
C1248 C1249 1.390 . S
C1249 C1248 1.390 . S
C1249 C1250 1.394 . S
C1249 C1255 1.465 . S
C1250 C1245 1.399 . S
C1250 C1249 1.394 . S
C1250 C1251 1.516 . S
C1251 C1250 1.516 . S
C1251 C1252 1.502 . S
C1251 C1253 1.561 . S
C1251 C1254 1.526 . S
C1252 H1236 0.959 . S
C1252 H1237 0.959 . S
C1252 H1238 0.961 . S
C1252 C1251 1.502 . S
C1253 H1239 0.960 . S
C1253 H1240 0.961 . S
C1253 H1241 0.959 . S
C1253 C1251 1.561 . S
C1254 C1251 1.526 . S
C1254 C1255 1.396 . S
C1254 C1259 1.390 . S
C1255 C1249 1.465 . S
C1255 C1254 1.396 . S
C1255 C1256 1.399 . S
C1256 H1242 0.929 . S
C1256 C1255 1.399 . S
C1256 C1257 1.385 . S
C1257 H1243 0.931 . S
C1257 C1256 1.385 . S
C1257 C1258 1.389 . S
C1258 C1257 1.389 . S
C1258 C1259 1.387 . S
C1259 H1244 0.930 . S
C1259 C1254 1.390 . S
C1259 C1258 1.387 . S
H1260 C1272 0.930 . S
H1261 C1274 0.930 . S
H1262 C1275 0.930 . S
H1263 C1279 0.959 . S
H1264 C1279 0.959 . S
H1265 C1279 0.961 . S
H1266 C1280 0.960 . S
H1267 C1280 0.961 . S
H1268 C1280 0.959 . S
H1269 C1283 0.929 . S
H1270 C1284 0.931 . S
H1271 C1286 0.930 . S
C1272 H1260 0.930 . S
C1272 C1273 1.399 . S
C1272 C1277 1.399 . S
C1273 C1272 1.399 . S
C1273 C1274 1.376 . S
C1274 H1261 0.930 . S
C1274 C1273 1.376 . S
C1274 C1275 1.388 . S
C1275 H1262 0.930 . S
C1275 C1274 1.388 . S
C1275 C1276 1.390 . S
C1276 C1275 1.390 . S
C1276 C1277 1.394 . S
C1276 C1282 1.465 . S
C1277 C1272 1.399 . S
C1277 C1276 1.394 . S
C1277 C1278 1.516 . S
C1278 C1277 1.516 . S
C1278 C1279 1.502 . S
C1278 C1280 1.561 . S
C1278 C1281 1.526 . S
C1279 H1263 0.959 . S
C1279 H1264 0.959 . S
C1279 H1265 0.961 . S
C1279 C1278 1.502 . S
C1280 H1266 0.960 . S
C1280 H1267 0.961 . S
C1280 H1268 0.959 . S
C1280 C1278 1.561 . S
C1281 C1278 1.526 . S
C1281 C1282 1.396 . S
C1281 C1286 1.390 . S
C1282 C1276 1.465 . S
C1282 C1281 1.396 . S
C1282 C1283 1.399 . S
C1283 H1269 0.929 . S
C1283 C1282 1.399 . S
C1283 C1284 1.385 . S
C1284 H1270 0.931 . S
C1284 C1283 1.385 . S
C1284 C1285 1.389 . S
C1285 C1284 1.389 . S
C1285 C1286 1.387 . S
C1286 H1271 0.930 . S
C1286 C1281 1.390 . S
C1286 C1285 1.387 . S
H1287 C1299 0.930 . S
H1288 C1301 0.930 . S
H1289 C1302 0.930 . S
H1290 C1306 0.959 . S
H1291 C1306 0.959 . S
H1292 C1306 0.961 . S
H1293 C1307 0.960 . S
H1294 C1307 0.961 . S
H1295 C1307 0.959 . S
H1296 C1310 0.929 . S
H1297 C1311 0.931 . S
H1298 C1313 0.930 . S
C1299 H1287 0.930 . S
C1299 C1300 1.399 . S
C1299 C1304 1.399 . S
C1300 C1299 1.399 . S
C1300 C1301 1.376 . S
C1301 H1288 0.930 . S
C1301 C1300 1.376 . S
C1301 C1302 1.388 . S
C1302 H1289 0.930 . S
C1302 C1301 1.388 . S
C1302 C1303 1.390 . S
C1303 C1302 1.390 . S
C1303 C1304 1.394 . S
C1303 C1309 1.465 . S
C1304 C1299 1.399 . S
C1304 C1303 1.394 . S
C1304 C1305 1.516 . S
C1305 C1304 1.516 . S
C1305 C1306 1.502 . S
C1305 C1307 1.561 . S
C1305 C1308 1.526 . S
C1306 H1290 0.959 . S
C1306 H1291 0.959 . S
C1306 H1292 0.961 . S
C1306 C1305 1.502 . S
C1307 H1293 0.960 . S
C1307 H1294 0.961 . S
C1307 H1295 0.959 . S
C1307 C1305 1.561 . S
C1308 C1305 1.526 . S
C1308 C1309 1.396 . S
C1308 C1313 1.390 . S
C1309 C1303 1.465 . S
C1309 C1308 1.396 . S
C1309 C1310 1.399 . S
C1310 H1296 0.929 . S
C1310 C1309 1.399 . S
C1310 C1311 1.385 . S
C1311 H1297 0.931 . S
C1311 C1310 1.385 . S
C1311 C1312 1.389 . S
C1312 C1311 1.389 . S
C1312 C1313 1.387 . S
C1313 H1298 0.930 . S
C1313 C1308 1.390 . S
C1313 C1312 1.387 . S
H1314 C1326 0.930 . S
H1315 C1328 0.930 . S
H1316 C1329 0.930 . S
H1317 C1333 0.959 . S
H1318 C1333 0.959 . S
H1319 C1333 0.961 . S
H1320 C1334 0.960 . S
H1321 C1334 0.961 . S
H1322 C1334 0.959 . S
H1323 C1337 0.929 . S
H1324 C1338 0.931 . S
H1325 C1340 0.930 . S
C1326 H1314 0.930 . S
C1326 C1327 1.399 . S
C1326 C1331 1.399 . S
C1327 C1326 1.399 . S
C1327 C1328 1.376 . S
C1328 H1315 0.930 . S
C1328 C1327 1.376 . S
C1328 C1329 1.388 . S
C1329 H1316 0.930 . S
C1329 C1328 1.388 . S
C1329 C1330 1.390 . S
C1330 C1329 1.390 . S
C1330 C1331 1.394 . S
C1330 C1336 1.465 . S
C1331 C1326 1.399 . S
C1331 C1330 1.394 . S
C1331 C1332 1.516 . S
C1332 C1331 1.516 . S
C1332 C1333 1.502 . S
C1332 C1334 1.561 . S
C1332 C1335 1.526 . S
C1333 H1317 0.959 . S
C1333 H1318 0.959 . S
C1333 H1319 0.961 . S
C1333 C1332 1.502 . S
C1334 H1320 0.960 . S
C1334 H1321 0.961 . S
C1334 H1322 0.959 . S
C1334 C1332 1.561 . S
C1335 C1332 1.526 . S
C1335 C1336 1.396 . S
C1335 C1340 1.390 . S
C1336 C1330 1.465 . S
C1336 C1335 1.396 . S
C1336 C1337 1.399 . S
C1337 H1323 0.929 . S
C1337 C1336 1.399 . S
C1337 C1338 1.385 . S
C1338 H1324 0.931 . S
C1338 C1337 1.385 . S
C1338 C1339 1.389 . S
C1339 C1338 1.389 . S
C1339 C1340 1.387 . S
C1340 H1325 0.930 . S
C1340 C1335 1.390 . S
C1340 C1339 1.387 . S
H1341 C1353 0.930 . S
H1342 C1355 0.930 . S
H1343 C1356 0.930 . S
H1344 C1360 0.959 . S
H1345 C1360 0.959 . S
H1346 C1360 0.961 . S
H1347 C1361 0.960 . S
H1348 C1361 0.961 . S
H1349 C1361 0.959 . S
H1350 C1364 0.929 . S
H1351 C1365 0.931 . S
H1352 C1367 0.930 . S
C1353 H1341 0.930 . S
C1353 C1354 1.399 . S
C1353 C1358 1.399 . S
C1354 C1353 1.399 . S
C1354 C1355 1.376 . S
C1355 H1342 0.930 . S
C1355 C1354 1.376 . S
C1355 C1356 1.388 . S
C1356 H1343 0.930 . S
C1356 C1355 1.388 . S
C1356 C1357 1.390 . S
C1357 C1356 1.390 . S
C1357 C1358 1.394 . S
C1357 C1363 1.465 . S
C1358 C1353 1.399 . S
C1358 C1357 1.394 . S
C1358 C1359 1.516 . S
C1359 C1358 1.516 . S
C1359 C1360 1.502 . S
C1359 C1361 1.561 . S
C1359 C1362 1.526 . S
C1360 H1344 0.959 . S
C1360 H1345 0.959 . S
C1360 H1346 0.961 . S
C1360 C1359 1.502 . S
C1361 H1347 0.960 . S
C1361 H1348 0.961 . S
C1361 H1349 0.959 . S
C1361 C1359 1.561 . S
C1362 C1359 1.526 . S
C1362 C1363 1.396 . S
C1362 C1367 1.390 . S
C1363 C1357 1.465 . S
C1363 C1362 1.396 . S
C1363 C1364 1.399 . S
C1364 H1350 0.929 . S
C1364 C1363 1.399 . S
C1364 C1365 1.385 . S
C1365 H1351 0.931 . S
C1365 C1364 1.385 . S
C1365 C1366 1.389 . S
C1366 C1365 1.389 . S
C1366 C1367 1.387 . S
C1367 H1352 0.930 . S
C1367 C1362 1.390 . S
C1367 C1366 1.387 . S
H1368 C1380 0.930 . S
H1369 C1382 0.930 . S
H1370 C1383 0.930 . S
H1371 C1387 0.959 . S
H1372 C1387 0.959 . S
H1373 C1387 0.961 . S
H1374 C1388 0.960 . S
H1375 C1388 0.961 . S
H1376 C1388 0.959 . S
H1377 C1391 0.929 . S
H1378 C1392 0.931 . S
H1379 C1394 0.930 . S
C1380 H1368 0.930 . S
C1380 C1381 1.399 . S
C1380 C1385 1.399 . S
C1381 C1380 1.399 . S
C1381 C1382 1.376 . S
C1382 H1369 0.930 . S
C1382 C1381 1.376 . S
C1382 C1383 1.388 . S
C1383 H1370 0.930 . S
C1383 C1382 1.388 . S
C1383 C1384 1.390 . S
C1384 C1383 1.390 . S
C1384 C1385 1.394 . S
C1384 C1390 1.465 . S
C1385 C1380 1.399 . S
C1385 C1384 1.394 . S
C1385 C1386 1.516 . S
C1386 C1385 1.516 . S
C1386 C1387 1.502 . S
C1386 C1388 1.561 . S
C1386 C1389 1.526 . S
C1387 H1371 0.959 . S
C1387 H1372 0.959 . S
C1387 H1373 0.961 . S
C1387 C1386 1.502 . S
C1388 H1374 0.960 . S
C1388 H1375 0.961 . S
C1388 H1376 0.959 . S
C1388 C1386 1.561 . S
C1389 C1386 1.526 . S
C1389 C1390 1.396 . S
C1389 C1394 1.390 . S
C1390 C1384 1.465 . S
C1390 C1389 1.396 . S
C1390 C1391 1.399 . S
C1391 H1377 0.929 . S
C1391 C1390 1.399 . S
C1391 C1392 1.385 . S
C1392 H1378 0.931 . S
C1392 C1391 1.385 . S
C1392 C1393 1.389 . S
C1393 C1392 1.389 . S
C1393 C1394 1.387 . S
C1394 H1379 0.930 . S
C1394 C1389 1.390 . S
C1394 C1393 1.387 . S
H1395 C1407 0.930 . S
H1396 C1409 0.930 . S
H1397 C1410 0.930 . S
H1398 C1414 0.959 . S
H1399 C1414 0.959 . S
H1400 C1414 0.961 . S
H1401 C1415 0.960 . S
H1402 C1415 0.961 . S
H1403 C1415 0.959 . S
H1404 C1418 0.929 . S
H1405 C1419 0.931 . S
H1406 C1421 0.930 . S
C1407 H1395 0.930 . S
C1407 C1408 1.399 . S
C1407 C1412 1.399 . S
C1408 C1407 1.399 . S
C1408 C1409 1.376 . S
C1409 H1396 0.930 . S
C1409 C1408 1.376 . S
C1409 C1410 1.388 . S
C1410 H1397 0.930 . S
C1410 C1409 1.388 . S
C1410 C1411 1.390 . S
C1411 C1410 1.390 . S
C1411 C1412 1.394 . S
C1411 C1417 1.465 . S
C1412 C1407 1.399 . S
C1412 C1411 1.394 . S
C1412 C1413 1.516 . S
C1413 C1412 1.516 . S
C1413 C1414 1.502 . S
C1413 C1415 1.561 . S
C1413 C1416 1.526 . S
C1414 H1398 0.959 . S
C1414 H1399 0.959 . S
C1414 H1400 0.961 . S
C1414 C1413 1.502 . S
C1415 H1401 0.960 . S
C1415 H1402 0.961 . S
C1415 H1403 0.959 . S
C1415 C1413 1.561 . S
C1416 C1413 1.526 . S
C1416 C1417 1.396 . S
C1416 C1421 1.390 . S
C1417 C1411 1.465 . S
C1417 C1416 1.396 . S
C1417 C1418 1.399 . S
C1418 H1404 0.929 . S
C1418 C1417 1.399 . S
C1418 C1419 1.385 . S
C1419 H1405 0.931 . S
C1419 C1418 1.385 . S
C1419 C1420 1.389 . S
C1420 C1419 1.389 . S
C1420 C1421 1.387 . S
C1421 H1406 0.930 . S
C1421 C1416 1.390 . S
C1421 C1420 1.387 . S
H1422 C1434 0.930 . S
H1423 C1436 0.930 . S
H1424 C1437 0.930 . S
H1425 C1441 0.959 . S
H1426 C1441 0.959 . S
H1427 C1441 0.961 . S
H1428 C1442 0.960 . S
H1429 C1442 0.961 . S
H1430 C1442 0.959 . S
H1431 C1445 0.929 . S
H1432 C1446 0.931 . S
H1433 C1448 0.930 . S
C1434 H1422 0.930 . S
C1434 C1435 1.399 . S
C1434 C1439 1.399 . S
C1435 C1434 1.399 . S
C1435 C1436 1.376 . S
C1436 H1423 0.930 . S
C1436 C1435 1.376 . S
C1436 C1437 1.388 . S
C1437 H1424 0.930 . S
C1437 C1436 1.388 . S
C1437 C1438 1.390 . S
C1438 C1437 1.390 . S
C1438 C1439 1.394 . S
C1438 C1444 1.465 . S
C1439 C1434 1.399 . S
C1439 C1438 1.394 . S
C1439 C1440 1.516 . S
C1440 C1439 1.516 . S
C1440 C1441 1.502 . S
C1440 C1442 1.561 . S
C1440 C1443 1.526 . S
C1441 H1425 0.959 . S
C1441 H1426 0.959 . S
C1441 H1427 0.961 . S
C1441 C1440 1.502 . S
C1442 H1428 0.960 . S
C1442 H1429 0.961 . S
C1442 H1430 0.959 . S
C1442 C1440 1.561 . S
C1443 C1440 1.526 . S
C1443 C1444 1.396 . S
C1443 C1448 1.390 . S
C1444 C1438 1.465 . S
C1444 C1443 1.396 . S
C1444 C1445 1.399 . S
C1445 H1431 0.929 . S
C1445 C1444 1.399 . S
C1445 C1446 1.385 . S
C1446 H1432 0.931 . S
C1446 C1445 1.385 . S
C1446 C1447 1.389 . S
C1447 C1446 1.389 . S
C1447 C1448 1.387 . S
C1448 H1433 0.930 . S
C1448 C1443 1.390 . S
C1448 C1447 1.387 . S
H1449 C1461 0.930 . S
H1450 C1463 0.930 . S
H1451 C1464 0.930 . S
H1452 C1468 0.959 . S
H1453 C1468 0.959 . S
H1454 C1468 0.961 . S
H1455 C1469 0.960 . S
H1456 C1469 0.961 . S
H1457 C1469 0.959 . S
H1458 C1472 0.929 . S
H1459 C1473 0.931 . S
H1460 C1475 0.930 . S
C1461 H1449 0.930 . S
C1461 C1462 1.399 . S
C1461 C1466 1.399 . S
C1462 C1461 1.399 . S
C1462 C1463 1.376 . S
C1463 H1450 0.930 . S
C1463 C1462 1.376 . S
C1463 C1464 1.388 . S
C1464 H1451 0.930 . S
C1464 C1463 1.388 . S
C1464 C1465 1.390 . S
C1465 C1464 1.390 . S
C1465 C1466 1.394 . S
C1465 C1471 1.465 . S
C1466 C1461 1.399 . S
C1466 C1465 1.394 . S
C1466 C1467 1.516 . S
C1467 C1466 1.516 . S
C1467 C1468 1.502 . S
C1467 C1469 1.561 . S
C1467 C1470 1.526 . S
C1468 H1452 0.959 . S
C1468 H1453 0.959 . S
C1468 H1454 0.961 . S
C1468 C1467 1.502 . S
C1469 H1455 0.960 . S
C1469 H1456 0.961 . S
C1469 H1457 0.959 . S
C1469 C1467 1.561 . S
C1470 C1467 1.526 . S
C1470 C1471 1.396 . S
C1470 C1475 1.390 . S
C1471 C1465 1.465 . S
C1471 C1470 1.396 . S
C1471 C1472 1.399 . S
C1472 H1458 0.929 . S
C1472 C1471 1.399 . S
C1472 C1473 1.385 . S
C1473 H1459 0.931 . S
C1473 C1472 1.385 . S
C1473 C1474 1.389 . S
C1474 C1473 1.389 . S
C1474 C1475 1.387 . S
C1475 H1460 0.930 . S
C1475 C1470 1.390 . S
C1475 C1474 1.387 . S
H1476 C1488 0.930 . S
H1477 C1490 0.930 . S
H1478 C1491 0.930 . S
H1479 C1495 0.959 . S
H1480 C1495 0.959 . S
H1481 C1495 0.961 . S
H1482 C1496 0.960 . S
H1483 C1496 0.961 . S
H1484 C1496 0.959 . S
H1485 C1499 0.929 . S
H1486 C1500 0.931 . S
H1487 C1502 0.930 . S
C1488 H1476 0.930 . S
C1488 C1489 1.399 . S
C1488 C1493 1.399 . S
C1489 C1488 1.399 . S
C1489 C1490 1.376 . S
C1490 H1477 0.930 . S
C1490 C1489 1.376 . S
C1490 C1491 1.388 . S
C1491 H1478 0.930 . S
C1491 C1490 1.388 . S
C1491 C1492 1.390 . S
C1492 C1491 1.390 . S
C1492 C1493 1.394 . S
C1492 C1498 1.465 . S
C1493 C1488 1.399 . S
C1493 C1492 1.394 . S
C1493 C1494 1.516 . S
C1494 C1493 1.516 . S
C1494 C1495 1.502 . S
C1494 C1496 1.561 . S
C1494 C1497 1.526 . S
C1495 H1479 0.959 . S
C1495 H1480 0.959 . S
C1495 H1481 0.961 . S
C1495 C1494 1.502 . S
C1496 H1482 0.960 . S
C1496 H1483 0.961 . S
C1496 H1484 0.959 . S
C1496 C1494 1.561 . S
C1497 C1494 1.526 . S
C1497 C1498 1.396 . S
C1497 C1502 1.390 . S
C1498 C1492 1.465 . S
C1498 C1497 1.396 . S
C1498 C1499 1.399 . S
C1499 H1485 0.929 . S
C1499 C1498 1.399 . S
C1499 C1500 1.385 . S
C1500 H1486 0.931 . S
C1500 C1499 1.385 . S
C1500 C1501 1.389 . S
C1501 C1500 1.389 . S
C1501 C1502 1.387 . S
C1502 H1487 0.930 . S
C1502 C1497 1.390 . S
C1502 C1501 1.387 . S
H1503 C1515 0.930 . S
H1504 C1517 0.930 . S
H1505 C1518 0.930 . S
H1506 C1522 0.952 . S
H1507 C1522 0.959 1_545 S
H1508 C1522 0.961 . S
H1509 C1523 0.960 . S
H1510 C1523 0.961 1_545 S
H1511 C1523 0.959 . S
H1512 C1526 0.929 . S
H1513 C1527 0.931 . S
H1514 C1529 0.930 . S
C1515 H1503 0.930 . S
C1515 C1516 1.399 . S
C1515 C1520 1.399 . S
C1516 C1515 1.399 . S
C1516 C1517 1.376 . S
C1517 H1504 0.930 . S
C1517 C1516 1.376 . S
C1517 C1518 1.388 . S
C1518 H1505 0.930 . S
C1518 C1517 1.388 . S
C1518 C1519 1.390 . S
C1519 C1518 1.390 . S
C1519 C1520 1.394 . S
C1519 C1525 1.465 1_565 S
C1520 C1515 1.399 . S
C1520 C1519 1.394 . S
C1520 C1521 1.516 . S
C1521 C1520 1.516 . S
C1521 C1522 1.502 . S
C1521 C1523 1.561 . S
C1521 C1524 1.526 1_565 S
C1522 H1506 0.952 . S
C1522 H1507 0.959 1_565 S
C1522 H1508 0.961 . S
C1522 C1521 1.502 . S
C1523 H1509 0.960 . S
C1523 H1510 0.961 1_565 S
C1523 H1511 0.959 . S
C1523 C1521 1.561 . S
C1524 C1521 1.526 1_545 S
C1524 C1525 1.396 . S
C1524 C1529 1.390 . S
C1525 C1519 1.465 1_545 S
C1525 C1524 1.396 . S
C1525 C1526 1.399 . S
C1526 H1512 0.929 . S
C1526 C1525 1.399 . S
C1526 C1527 1.385 . S
C1527 H1513 0.931 . S
C1527 C1526 1.385 . S
C1527 C1528 1.389 . S
C1528 C1527 1.389 . S
C1528 C1529 1.387 . S
C1529 H1514 0.930 . S
C1529 C1524 1.390 . S
C1529 C1528 1.387 . S
H1530 C1542 0.930 . S
H1531 C1544 0.930 . S
H1532 C1545 0.930 . S
H1533 C1549 0.959 . S
H1534 C1549 0.959 . S
H1535 C1549 0.961 1_655 S
H1536 C1550 0.960 1_655 S
H1537 C1550 0.961 . S
H1538 C1550 0.959 . S
H1539 C1553 0.929 . S
H1540 C1554 0.931 . S
H1541 C1556 0.930 . S
C1542 H1530 0.930 . S
C1542 C1543 1.399 . S
C1542 C1547 1.399 . S
C1543 C1542 1.399 . S
C1543 C1544 1.376 . S
C1544 H1531 0.930 . S
C1544 C1543 1.376 . S
C1544 C1545 1.388 . S
C1545 H1532 0.930 . S
C1545 C1544 1.388 . S
C1545 C1546 1.390 . S
C1546 C1545 1.390 . S
C1546 C1547 1.394 . S
C1546 C1552 1.465 1_655 S
C1547 C1542 1.399 . S
C1547 C1546 1.394 . S
C1547 C1548 1.516 1_655 S
C1548 C1547 1.516 1_455 S
C1548 C1549 1.502 . S
C1548 C1550 1.561 . S
C1548 C1551 1.526 . S
C1549 H1533 0.959 . S
C1549 H1534 0.959 . S
C1549 H1535 0.961 1_455 S
C1549 C1548 1.502 . S
C1550 H1536 0.960 1_455 S
C1550 H1537 0.961 . S
C1550 H1538 0.959 . S
C1550 C1548 1.561 . S
C1551 C1548 1.526 . S
C1551 C1552 1.396 . S
C1551 C1556 1.390 . S
C1552 C1546 1.465 1_455 S
C1552 C1551 1.396 . S
C1552 C1553 1.399 . S
C1553 H1539 0.929 . S
C1553 C1552 1.399 . S
C1553 C1554 1.385 . S
C1554 H1540 0.931 . S
C1554 C1553 1.385 . S
C1554 C1555 1.389 . S
C1555 C1554 1.389 . S
C1555 C1556 1.387 . S
C1556 H1541 0.930 . S
C1556 C1551 1.390 . S
C1556 C1555 1.387 . S
H1557 C1569 0.930 . S
H1558 C1571 0.930 . S
H1559 C1572 0.930 . S
H1560 C1576 0.959 . S
H1561 C1576 0.959 . S
H1562 C1576 0.961 . S
H1563 C1577 0.960 . S
H1564 C1577 0.961 . S
H1565 C1577 0.959 . S
H1566 C1580 0.929 . S
H1567 C1581 0.931 . S
H1568 C1583 0.930 . S
C1569 H1557 0.930 . S
C1569 C1570 1.399 . S
C1569 C1574 1.399 . S
C1570 C1569 1.399 . S
C1570 C1571 1.376 . S
C1571 H1558 0.930 . S
C1571 C1570 1.376 . S
C1571 C1572 1.388 . S
C1572 H1559 0.930 . S
C1572 C1571 1.388 . S
C1572 C1573 1.390 . S
C1573 C1572 1.390 . S
C1573 C1574 1.394 . S
C1573 C1579 1.465 . S
C1574 C1569 1.399 . S
C1574 C1573 1.394 . S
C1574 C1575 1.516 . S
C1575 C1574 1.516 . S
C1575 C1576 1.502 . S
C1575 C1577 1.561 . S
C1575 C1578 1.526 . S
C1576 H1560 0.959 . S
C1576 H1561 0.959 . S
C1576 H1562 0.961 . S
C1576 C1575 1.502 . S
C1577 H1563 0.960 . S
C1577 H1564 0.961 . S
C1577 H1565 0.959 . S
C1577 C1575 1.561 . S
C1578 C1575 1.526 . S
C1578 C1579 1.396 . S
C1578 C1583 1.390 . S
C1579 C1573 1.465 . S
C1579 C1578 1.396 . S
C1579 C1580 1.399 . S
C1580 H1566 0.929 . S
C1580 C1579 1.399 . S
C1580 C1581 1.385 . S
C1581 H1567 0.931 . S
C1581 C1580 1.385 . S
C1581 C1582 1.389 . S
C1582 C1581 1.389 . S
C1582 C1583 1.387 . S
C1583 H1568 0.930 . S
C1583 C1578 1.390 . S
C1583 C1582 1.387 . S
H1584 C1596 0.930 . S
H1585 C1598 0.930 . S
H1586 C1599 0.930 . S
H1587 C1603 0.969 . S
H1588 C1603 0.959 1_565 S
H1589 C1603 0.961 . S
H1590 C1604 0.960 . S
H1591 C1604 0.961 1_565 S
H1592 C1604 0.959 . S
H1593 C1607 0.929 . S
H1594 C1608 0.931 . S
H1595 C1610 0.930 . S
C1596 H1584 0.930 . S
C1596 C1597 1.399 . S
C1596 C1601 1.399 . S
C1597 C1596 1.399 . S
C1597 C1598 1.376 . S
C1598 H1585 0.930 . S
C1598 C1597 1.376 . S
C1598 C1599 1.388 . S
C1599 H1586 0.930 . S
C1599 C1598 1.388 . S
C1599 C1600 1.390 . S
C1600 C1599 1.390 . S
C1600 C1601 1.394 . S
C1600 C1606 1.465 1_545 S
C1601 C1596 1.399 . S
C1601 C1600 1.394 . S
C1601 C1602 1.516 . S
C1602 C1601 1.516 . S
C1602 C1603 1.502 . S
C1602 C1604 1.561 . S
C1602 C1605 1.526 1_545 S
C1603 H1587 0.969 . S
C1603 H1588 0.959 1_545 S
C1603 H1589 0.961 . S
C1603 C1602 1.502 . S
C1604 H1590 0.960 . S
C1604 H1591 0.961 1_545 S
C1604 H1592 0.959 . S
C1604 C1602 1.561 . S
C1605 C1602 1.526 1_565 S
C1605 C1606 1.396 . S
C1605 C1610 1.390 . S
C1606 C1600 1.465 1_565 S
C1606 C1605 1.396 . S
C1606 C1607 1.399 . S
C1607 H1593 0.929 . S
C1607 C1606 1.399 . S
C1607 C1608 1.385 . S
C1608 H1594 0.931 . S
C1608 C1607 1.385 . S
C1608 C1609 1.389 . S
C1609 C1608 1.389 . S
C1609 C1610 1.387 . S
C1610 H1595 0.930 . S
C1610 C1605 1.390 . S
C1610 C1609 1.387 . S
H1611 C1623 0.930 . S
H1612 C1625 0.930 . S
H1613 C1626 0.930 . S
H1614 C1630 0.959 . S
H1615 C1630 0.959 . S
H1616 C1630 0.961 1_655 S
H1617 C1631 0.960 1_655 S
H1618 C1631 0.961 . S
H1619 C1631 0.959 . S
H1620 C1634 0.929 . S
H1621 C1635 0.931 . S
H1622 C1637 0.930 . S
C1623 H1611 0.930 . S
C1623 C1624 1.399 . S
C1623 C1628 1.399 . S
C1624 C1623 1.399 . S
C1624 C1625 1.376 . S
C1625 H1612 0.930 . S
C1625 C1624 1.376 . S
C1625 C1626 1.388 . S
C1626 H1613 0.930 . S
C1626 C1625 1.388 . S
C1626 C1627 1.390 . S
C1627 C1626 1.390 . S
C1627 C1628 1.394 . S
C1627 C1633 1.465 1_655 S
C1628 C1623 1.399 . S
C1628 C1627 1.394 . S
C1628 C1629 1.516 1_655 S
C1629 C1628 1.516 1_455 S
C1629 C1630 1.502 . S
C1629 C1631 1.561 . S
C1629 C1632 1.526 . S
C1630 H1614 0.959 . S
C1630 H1615 0.959 . S
C1630 H1616 0.961 1_455 S
C1630 C1629 1.502 . S
C1631 H1617 0.960 1_455 S
C1631 H1618 0.961 . S
C1631 H1619 0.959 . S
C1631 C1629 1.561 . S
C1632 C1629 1.526 . S
C1632 C1633 1.396 . S
C1632 C1637 1.390 . S
C1633 C1627 1.465 1_455 S
C1633 C1632 1.396 . S
C1633 C1634 1.399 . S
C1634 H1620 0.929 . S
C1634 C1633 1.399 . S
C1634 C1635 1.385 . S
C1635 H1621 0.931 . S
C1635 C1634 1.385 . S
C1635 C1636 1.389 . S
C1636 C1635 1.389 . S
C1636 C1637 1.387 . S
C1637 H1622 0.930 . S
C1637 C1632 1.390 . S
C1637 C1636 1.387 . S
H1638 C1650 0.930 . S
H1639 C1652 0.930 . S
H1640 C1653 0.930 . S
H1641 C1657 0.959 . S
H1642 C1657 0.959 . S
H1643 C1657 0.961 . S
H1644 C1658 0.960 . S
H1645 C1658 0.961 . S
H1646 C1658 0.959 . S
H1647 C1661 0.929 . S
H1648 C1662 0.931 . S
H1649 C1664 0.930 . S
C1650 H1638 0.930 . S
C1650 C1651 1.399 . S
C1650 C1655 1.399 . S
C1651 C1650 1.399 . S
C1651 C1652 1.376 . S
C1652 H1639 0.930 . S
C1652 C1651 1.376 . S
C1652 C1653 1.388 . S
C1653 H1640 0.930 . S
C1653 C1652 1.388 . S
C1653 C1654 1.390 . S
C1654 C1653 1.390 . S
C1654 C1655 1.394 . S
C1654 C1660 1.465 . S
C1655 C1650 1.399 . S
C1655 C1654 1.394 . S
C1655 C1656 1.516 . S
C1656 C1655 1.516 . S
C1656 C1657 1.502 . S
C1656 C1658 1.561 . S
C1656 C1659 1.526 . S
C1657 H1641 0.959 . S
C1657 H1642 0.959 . S
C1657 H1643 0.961 . S
C1657 C1656 1.502 . S
C1658 H1644 0.960 . S
C1658 H1645 0.961 . S
C1658 H1646 0.959 . S
C1658 C1656 1.561 . S
C1659 C1656 1.526 . S
C1659 C1660 1.396 . S
C1659 C1664 1.390 . S
C1660 C1654 1.465 . S
C1660 C1659 1.396 . S
C1660 C1661 1.399 . S
C1661 H1647 0.929 . S
C1661 C1660 1.399 . S
C1661 C1662 1.385 . S
C1662 H1648 0.931 . S
C1662 C1661 1.385 . S
C1662 C1663 1.389 . S
C1663 C1662 1.389 . S
C1663 C1664 1.387 . S
C1664 H1649 0.930 . S
C1664 C1659 1.390 . S
C1664 C1663 1.387 . S
H1665 C1677 0.930 . S
H1666 C1679 0.930 . S
H1667 C1680 0.930 . S
H1668 C1684 0.959 . S
H1669 C1684 0.959 . S
H1670 C1684 0.961 . S
H1671 C1685 0.960 . S
H1672 C1685 0.961 . S
H1673 C1685 0.959 . S
H1674 C1688 0.929 . S
H1675 C1689 0.931 . S
H1676 C1691 0.930 . S
C1677 H1665 0.930 . S
C1677 C1678 1.399 . S
C1677 C1682 1.399 . S
C1678 C1677 1.399 . S
C1678 C1679 1.376 . S
C1679 H1666 0.930 . S
C1679 C1678 1.376 . S
C1679 C1680 1.388 . S
C1680 H1667 0.930 . S
C1680 C1679 1.388 . S
C1680 C1681 1.390 . S
C1681 C1680 1.390 . S
C1681 C1682 1.394 . S
C1681 C1687 1.465 . S
C1682 C1677 1.399 . S
C1682 C1681 1.394 . S
C1682 C1683 1.516 . S
C1683 C1682 1.516 . S
C1683 C1684 1.502 . S
C1683 C1685 1.561 . S
C1683 C1686 1.526 . S
C1684 H1668 0.959 . S
C1684 H1669 0.959 . S
C1684 H1670 0.961 . S
C1684 C1683 1.502 . S
C1685 H1671 0.960 . S
C1685 H1672 0.961 . S
C1685 H1673 0.959 . S
C1685 C1683 1.561 . S
C1686 C1683 1.526 . S
C1686 C1687 1.396 . S
C1686 C1691 1.390 . S
C1687 C1681 1.465 . S
C1687 C1686 1.396 . S
C1687 C1688 1.399 . S
C1688 H1674 0.929 . S
C1688 C1687 1.399 . S
C1688 C1689 1.385 . S
C1689 H1675 0.931 . S
C1689 C1688 1.385 . S
C1689 C1690 1.389 . S
C1690 C1689 1.389 . S
C1690 C1691 1.387 . S
C1691 H1676 0.930 . S
C1691 C1686 1.390 . S
C1691 C1690 1.387 . S
H1692 C1704 0.930 . S
H1693 C1706 0.930 . S
H1694 C1707 0.930 . S
H1695 C1711 0.959 . S
H1696 C1711 0.959 . S
H1697 C1711 0.961 . S
H1698 C1712 0.960 . S
H1699 C1712 0.961 . S
H1700 C1712 0.959 . S
H1701 C1715 0.929 . S
H1702 C1716 0.931 . S
H1703 C1718 0.930 . S
C1704 H1692 0.930 . S
C1704 C1705 1.399 . S
C1704 C1709 1.399 . S
C1705 C1704 1.399 . S
C1705 C1706 1.376 . S
C1706 H1693 0.930 . S
C1706 C1705 1.376 . S
C1706 C1707 1.388 . S
C1707 H1694 0.930 . S
C1707 C1706 1.388 . S
C1707 C1708 1.390 . S
C1708 C1707 1.390 . S
C1708 C1709 1.394 . S
C1708 C1714 1.465 . S
C1709 C1704 1.399 . S
C1709 C1708 1.394 . S
C1709 C1710 1.516 . S
C1710 C1709 1.516 . S
C1710 C1711 1.502 . S
C1710 C1712 1.561 . S
C1710 C1713 1.526 . S
C1711 H1695 0.959 . S
C1711 H1696 0.959 . S
C1711 H1697 0.961 . S
C1711 C1710 1.502 . S
C1712 H1698 0.960 . S
C1712 H1699 0.961 . S
C1712 H1700 0.959 . S
C1712 C1710 1.561 . S
C1713 C1710 1.526 . S
C1713 C1714 1.396 . S
C1713 C1718 1.390 . S
C1714 C1708 1.465 . S
C1714 C1713 1.396 . S
C1714 C1715 1.399 . S
C1715 H1701 0.929 . S
C1715 C1714 1.399 . S
C1715 C1716 1.385 . S
C1716 H1702 0.931 . S
C1716 C1715 1.385 . S
C1716 C1717 1.389 . S
C1717 C1716 1.389 . S
C1717 C1718 1.387 . S
C1718 H1703 0.930 . S
C1718 C1713 1.390 . S
C1718 C1717 1.387 . S
H1719 C1731 0.930 . S
H1720 C1733 0.930 . S
H1721 C1734 0.930 . S
H1722 C1738 0.959 . S
H1723 C1738 0.959 . S
H1724 C1738 0.961 . S
H1725 C1739 0.960 . S
H1726 C1739 0.978 . S
H1727 C1739 0.959 . S
H1728 C1742 0.929 . S
H1729 C1743 0.931 . S
H1730 C1745 0.930 . S
C1731 H1719 0.930 . S
C1731 C1732 1.399 . S
C1731 C1736 1.399 . S
C1732 C1731 1.399 . S
C1732 C1733 1.376 . S
C1733 H1720 0.930 . S
C1733 C1732 1.376 . S
C1733 C1734 1.388 . S
C1734 H1721 0.930 . S
C1734 C1733 1.388 . S
C1734 C1735 1.390 . S
C1735 C1734 1.390 . S
C1735 C1736 1.394 . S
C1735 C1741 1.465 . S
C1736 C1731 1.399 . S
C1736 C1735 1.394 . S
C1736 C1737 1.516 . S
C1737 C1736 1.516 . S
C1737 C1738 1.502 1_554 S
C1737 C1739 1.561 . S
C1737 C1740 1.526 . S
C1738 H1722 0.959 . S
C1738 H1723 0.959 . S
C1738 H1724 0.961 . S
C1738 C1737 1.502 1_556 S
C1739 H1725 0.960 . S
C1739 H1726 0.978 . S
C1739 H1727 0.959 . S
C1739 C1737 1.561 . S
C1740 C1737 1.526 . S
C1740 C1741 1.396 . S
C1740 C1745 1.390 . S
C1741 C1735 1.465 . S
C1741 C1740 1.396 . S
C1741 C1742 1.399 . S
C1742 H1728 0.929 . S
C1742 C1741 1.399 . S
C1742 C1743 1.385 . S
C1743 H1729 0.931 . S
C1743 C1742 1.385 . S
C1743 C1744 1.389 . S
C1744 C1743 1.389 . S
C1744 C1745 1.387 . S
C1745 H1730 0.930 . S
C1745 C1740 1.390 . S
C1745 C1744 1.387 . S
H1746 C1758 0.930 . S
H1747 C1760 0.930 . S
H1748 C1761 0.930 . S
H1749 C1765 0.959 . S
H1750 C1765 0.959 . S
H1751 C1765 0.961 . S
H1752 C1766 0.960 . S
H1753 C1766 0.961 . S
H1754 C1766 0.959 . S
H1755 C1769 0.929 . S
H1756 C1770 0.931 . S
H1757 C1772 0.930 . S
C1758 H1746 0.930 . S
C1758 C1759 1.399 . S
C1758 C1763 1.399 . S
C1759 C1758 1.399 . S
C1759 C1760 1.376 . S
C1760 H1747 0.930 . S
C1760 C1759 1.376 . S
C1760 C1761 1.388 . S
C1761 H1748 0.930 . S
C1761 C1760 1.388 . S
C1761 C1762 1.390 . S
C1762 C1761 1.390 . S
C1762 C1763 1.394 . S
C1762 C1768 1.465 . S
C1763 C1758 1.399 . S
C1763 C1762 1.394 . S
C1763 C1764 1.516 . S
C1764 C1763 1.516 . S
C1764 C1765 1.502 . S
C1764 C1766 1.561 1_554 S
C1764 C1767 1.526 . S
C1765 H1749 0.959 . S
C1765 H1750 0.959 . S
C1765 H1751 0.961 . S
C1765 C1764 1.502 . S
C1766 H1752 0.960 . S
C1766 H1753 0.961 . S
C1766 H1754 0.959 . S
C1766 C1764 1.561 1_556 S
C1767 C1764 1.526 . S
C1767 C1768 1.396 . S
C1767 C1772 1.390 . S
C1768 C1762 1.465 . S
C1768 C1767 1.396 . S
C1768 C1769 1.399 . S
C1769 H1755 0.929 . S
C1769 C1768 1.399 . S
C1769 C1770 1.385 . S
C1770 H1756 0.931 . S
C1770 C1769 1.385 . S
C1770 C1771 1.389 . S
C1771 C1770 1.389 . S
C1771 C1772 1.387 . S
C1772 H1757 0.930 . S
C1772 C1767 1.390 . S
C1772 C1771 1.387 . S
H1773 C1785 0.930 . S
H1774 C1787 0.930 . S
H1775 C1788 0.930 . S
H1776 C1792 0.959 . S
H1777 C1792 0.959 . S
H1778 C1792 0.961 . S
H1779 C1793 0.960 . S
H1780 C1793 0.961 . S
H1781 C1793 0.959 . S
H1782 C1796 0.929 . S
H1783 C1797 0.931 . S
H1784 C1799 0.930 . S
C1785 H1773 0.930 . S
C1785 C1786 1.399 . S
C1785 C1790 1.399 . S
C1786 C1785 1.399 . S
C1786 C1787 1.376 . S
C1787 H1774 0.930 . S
C1787 C1786 1.376 . S
C1787 C1788 1.388 . S
C1788 H1775 0.930 . S
C1788 C1787 1.388 . S
C1788 C1789 1.390 . S
C1789 C1788 1.390 . S
C1789 C1790 1.394 . S
C1789 C1795 1.465 . S
C1790 C1785 1.399 . S
C1790 C1789 1.394 . S
C1790 C1791 1.516 . S
C1791 C1790 1.516 . S
C1791 C1792 1.502 . S
C1791 C1793 1.561 . S
C1791 C1794 1.526 . S
C1792 H1776 0.959 . S
C1792 H1777 0.959 . S
C1792 H1778 0.961 . S
C1792 C1791 1.502 . S
C1793 H1779 0.960 . S
C1793 H1780 0.961 . S
C1793 H1781 0.959 . S
C1793 C1791 1.561 . S
C1794 C1791 1.526 . S
C1794 C1795 1.396 . S
C1794 C1799 1.390 . S
C1795 C1789 1.465 . S
C1795 C1794 1.396 . S
C1795 C1796 1.399 . S
C1796 H1782 0.929 . S
C1796 C1795 1.399 . S
C1796 C1797 1.385 . S
C1797 H1783 0.931 . S
C1797 C1796 1.385 . S
C1797 C1798 1.389 . S
C1798 C1797 1.389 . S
C1798 C1799 1.387 . S
C1799 H1784 0.930 . S
C1799 C1794 1.390 . S
C1799 C1798 1.387 . S
H1800 C1812 0.930 . S
H1801 C1814 0.930 . S
H1802 C1815 0.930 . S
H1803 C1819 0.959 . S
H1804 C1819 0.959 1_554 S
H1805 C1819 0.961 1_554 S
H1806 C1820 0.960 . S
H1807 C1820 0.961 . S
H1808 C1820 0.959 1_556 S
H1809 C1823 0.929 . S
H1810 C1824 0.931 . S
H1811 C1826 0.930 . S
C1812 H1800 0.930 . S
C1812 C1813 1.399 . S
C1812 C1817 1.399 . S
C1813 C1812 1.399 . S
C1813 C1814 1.376 . S
C1814 H1801 0.930 . S
C1814 C1813 1.376 . S
C1814 C1815 1.388 . S
C1815 H1802 0.930 . S
C1815 C1814 1.388 . S
C1815 C1816 1.390 . S
C1816 C1815 1.390 . S
C1816 C1817 1.394 . S
C1816 C1822 1.465 . S
C1817 C1812 1.399 . S
C1817 C1816 1.394 . S
C1817 C1818 1.516 . S
C1818 C1817 1.516 . S
C1818 C1819 1.502 . S
C1818 C1820 1.561 1_556 S
C1818 C1821 1.526 . S
C1819 H1803 0.959 . S
C1819 H1804 0.959 1_556 S
C1819 H1805 0.961 1_556 S
C1819 C1818 1.502 . S
C1820 H1806 0.960 . S
C1820 H1807 0.961 . S
C1820 H1808 0.959 1_554 S
C1820 C1818 1.561 1_554 S
C1821 C1818 1.526 . S
C1821 C1822 1.396 . S
C1821 C1826 1.390 . S
C1822 C1816 1.465 . S
C1822 C1821 1.396 . S
C1822 C1823 1.399 . S
C1823 H1809 0.929 . S
C1823 C1822 1.399 . S
C1823 C1824 1.385 . S
C1824 H1810 0.931 . S
C1824 C1823 1.385 . S
C1824 C1825 1.389 . S
C1825 C1824 1.389 . S
C1825 C1826 1.387 . S
C1826 H1811 0.930 . S
C1826 C1821 1.390 . S
C1826 C1825 1.387 . S
H1827 C1839 0.930 . S
H1828 C1841 0.930 . S
H1829 C1842 0.930 . S
H1830 C1846 0.959 . S
H1831 C1846 0.959 1_554 S
H1832 C1846 0.961 1_554 S
H1833 C1847 0.960 . S
H1834 C1847 0.961 . S
H1835 C1847 0.954 1_556 S
H1836 C1850 0.929 . S
H1837 C1851 0.931 . S
H1838 C1853 0.930 . S
C1839 H1827 0.930 . S
C1839 C1840 1.399 . S
C1839 C1844 1.399 . S
C1840 C1839 1.399 . S
C1840 C1841 1.376 . S
C1841 H1828 0.930 . S
C1841 C1840 1.376 . S
C1841 C1842 1.388 . S
C1842 H1829 0.930 . S
C1842 C1841 1.388 . S
C1842 C1843 1.390 . S
C1843 C1842 1.390 . S
C1843 C1844 1.394 . S
C1843 C1849 1.465 . S
C1844 C1839 1.399 . S
C1844 C1843 1.394 . S
C1844 C1845 1.516 . S
C1845 C1844 1.516 . S
C1845 C1846 1.502 . S
C1845 C1847 1.561 1_556 S
C1845 C1848 1.526 . S
C1846 H1830 0.959 . S
C1846 H1831 0.959 1_556 S
C1846 H1832 0.961 1_556 S
C1846 C1845 1.502 . S
C1847 H1833 0.960 . S
C1847 H1834 0.961 . S
C1847 H1835 0.954 1_554 S
C1847 C1845 1.561 1_554 S
C1848 C1845 1.526 . S
C1848 C1849 1.396 . S
C1848 C1853 1.390 . S
C1849 C1843 1.465 . S
C1849 C1848 1.396 . S
C1849 C1850 1.399 . S
C1850 H1836 0.929 . S
C1850 C1849 1.399 . S
C1850 C1851 1.385 . S
C1851 H1837 0.931 . S
C1851 C1850 1.385 . S
C1851 C1852 1.389 . S
C1852 C1851 1.389 . S
C1852 C1853 1.387 . S
C1853 H1838 0.930 . S
C1853 C1848 1.390 . S
C1853 C1852 1.387 . S
H1854 C1866 0.930 . S
H1855 C1868 0.930 . S
H1856 C1869 0.930 . S
H1857 C1873 0.959 . S
H1858 C1873 0.959 . S
H1859 C1873 0.961 . S
H1860 C1874 0.960 . S
H1861 C1874 0.961 . S
H1862 C1874 0.959 . S
H1863 C1877 0.929 1_554 S
H1864 C1878 0.931 1_554 S
H1865 C1880 0.930 . S
C1866 H1854 0.930 . S
C1866 C1867 1.399 . S
C1866 C1871 1.399 . S
C1867 C1866 1.399 . S
C1867 C1868 1.376 . S
C1868 H1855 0.930 . S
C1868 C1867 1.376 . S
C1868 C1869 1.388 . S
C1869 H1856 0.930 . S
C1869 C1868 1.388 . S
C1869 C1870 1.390 . S
C1870 C1869 1.390 . S
C1870 C1871 1.394 . S
C1870 C1876 1.465 . S
C1871 C1866 1.399 . S
C1871 C1870 1.394 . S
C1871 C1872 1.516 . S
C1872 C1871 1.516 . S
C1872 C1873 1.502 . S
C1872 C1874 1.561 . S
C1872 C1875 1.526 . S
C1873 H1857 0.959 . S
C1873 H1858 0.959 . S
C1873 H1859 0.961 . S
C1873 C1872 1.502 . S
C1874 H1860 0.960 . S
C1874 H1861 0.961 . S
C1874 H1862 0.959 . S
C1874 C1872 1.561 . S
C1875 C1872 1.526 . S
C1875 C1876 1.396 . S
C1875 C1880 1.390 . S
C1876 C1870 1.465 . S
C1876 C1875 1.396 . S
C1876 C1877 1.399 . S
C1877 H1863 0.929 1_556 S
C1877 C1876 1.399 . S
C1877 C1878 1.385 . S
C1878 H1864 0.931 1_556 S
C1878 C1877 1.385 . S
C1878 C1879 1.389 . S
C1879 C1878 1.389 . S
C1879 C1880 1.387 . S
C1880 H1865 0.930 . S
C1880 C1875 1.390 . S
C1880 C1879 1.387 . S
H1881 C1893 0.930 . S
H1882 C1895 0.930 . S
H1883 C1896 0.930 . S
H1884 C1900 0.959 . S
H1885 C1900 0.959 . S
H1886 C1900 0.961 . S
H1887 C1901 0.960 . S
H1888 C1901 0.961 . S
H1889 C1901 0.959 . S
H1890 C1904 0.929 . S
H1891 C1905 0.931 . S
H1892 C1907 0.930 . S
C1893 H1881 0.930 . S
C1893 C1894 1.399 . S
C1893 C1898 1.399 . S
C1894 C1893 1.399 . S
C1894 C1895 1.376 . S
C1895 H1882 0.930 . S
C1895 C1894 1.376 . S
C1895 C1896 1.388 . S
C1896 H1883 0.930 . S
C1896 C1895 1.388 . S
C1896 C1897 1.390 . S
C1897 C1896 1.390 . S
C1897 C1898 1.394 . S
C1897 C1903 1.465 . S
C1898 C1893 1.399 . S
C1898 C1897 1.394 . S
C1898 C1899 1.516 . S
C1899 C1898 1.516 . S
C1899 C1900 1.502 . S
C1899 C1901 1.561 . S
C1899 C1902 1.526 . S
C1900 H1884 0.959 . S
C1900 H1885 0.959 . S
C1900 H1886 0.961 . S
C1900 C1899 1.502 . S
C1901 H1887 0.960 . S
C1901 H1888 0.961 . S
C1901 H1889 0.959 . S
C1901 C1899 1.561 . S
C1902 C1899 1.526 . S
C1902 C1903 1.396 . S
C1902 C1907 1.390 . S
C1903 C1897 1.465 . S
C1903 C1902 1.396 . S
C1903 C1904 1.399 . S
C1904 H1890 0.929 . S
C1904 C1903 1.399 . S
C1904 C1905 1.385 . S
C1905 H1891 0.931 . S
C1905 C1904 1.385 . S
C1905 C1906 1.389 . S
C1906 C1905 1.389 . S
C1906 C1907 1.387 . S
C1907 H1892 0.930 . S
C1907 C1902 1.390 . S
C1907 C1906 1.387 . S
H1908 C1920 0.930 . S
H1909 C1922 0.930 . S
H1910 C1923 0.930 . S
H1911 C1927 0.959 . S
H1912 C1927 0.959 . S
H1913 C1927 0.961 . S
H1914 C1928 0.960 . S
H1915 C1928 0.961 . S
H1916 C1928 0.959 . S
H1917 C1931 0.929 . S
H1918 C1932 0.931 . S
H1919 C1934 0.930 . S
C1920 H1908 0.930 . S
C1920 C1921 1.399 . S
C1920 C1925 1.399 . S
C1921 C1920 1.399 . S
C1921 C1922 1.376 . S
C1922 H1909 0.930 . S
C1922 C1921 1.376 . S
C1922 C1923 1.388 . S
C1923 H1910 0.930 . S
C1923 C1922 1.388 . S
C1923 C1924 1.390 . S
C1924 C1923 1.390 . S
C1924 C1925 1.394 . S
C1924 C1930 1.465 . S
C1925 C1920 1.399 . S
C1925 C1924 1.394 . S
C1925 C1926 1.516 . S
C1926 C1925 1.516 . S
C1926 C1927 1.502 . S
C1926 C1928 1.561 . S
C1926 C1929 1.526 . S
C1927 H1911 0.959 . S
C1927 H1912 0.959 . S
C1927 H1913 0.961 . S
C1927 C1926 1.502 . S
C1928 H1914 0.960 . S
C1928 H1915 0.961 . S
C1928 H1916 0.959 . S
C1928 C1926 1.561 . S
C1929 C1926 1.526 . S
C1929 C1930 1.396 . S
C1929 C1934 1.390 . S
C1930 C1924 1.465 . S
C1930 C1929 1.396 . S
C1930 C1931 1.399 . S
C1931 H1917 0.929 . S
C1931 C1930 1.399 . S
C1931 C1932 1.385 . S
C1932 H1918 0.931 . S
C1932 C1931 1.385 . S
C1932 C1933 1.389 . S
C1933 C1932 1.389 . S
C1933 C1934 1.387 . S
C1934 H1919 0.930 . S
C1934 C1929 1.390 . S
C1934 C1933 1.387 . S
H1935 C1947 0.930 . S
H1936 C1949 0.930 . S
H1937 C1950 0.930 . S
H1938 C1954 0.959 . S
H1939 C1954 0.959 . S
H1940 C1954 0.961 . S
H1941 C1955 0.960 . S
H1942 C1955 0.961 . S
H1943 C1955 0.959 . S
H1944 C1958 0.929 . S
H1945 C1959 0.931 . S
H1946 C1961 0.930 . S
C1947 H1935 0.930 . S
C1947 C1948 1.399 . S
C1947 C1952 1.399 . S
C1948 C1947 1.399 . S
C1948 C1949 1.376 . S
C1949 H1936 0.930 . S
C1949 C1948 1.376 . S
C1949 C1950 1.388 . S
C1950 H1937 0.930 . S
C1950 C1949 1.388 . S
C1950 C1951 1.390 . S
C1951 C1950 1.390 . S
C1951 C1952 1.394 . S
C1951 C1957 1.465 . S
C1952 C1947 1.399 . S
C1952 C1951 1.394 . S
C1952 C1953 1.516 . S
C1953 C1952 1.516 . S
C1953 C1954 1.502 . S
C1953 C1955 1.561 . S
C1953 C1956 1.526 . S
C1954 H1938 0.959 . S
C1954 H1939 0.959 . S
C1954 H1940 0.961 . S
C1954 C1953 1.502 . S
C1955 H1941 0.960 . S
C1955 H1942 0.961 . S
C1955 H1943 0.959 . S
C1955 C1953 1.561 . S
C1956 C1953 1.526 . S
C1956 C1957 1.396 . S
C1956 C1961 1.390 . S
C1957 C1951 1.465 . S
C1957 C1956 1.396 . S
C1957 C1958 1.399 . S
C1958 H1944 0.929 . S
C1958 C1957 1.399 . S
C1958 C1959 1.385 . S
C1959 H1945 0.931 . S
C1959 C1958 1.385 . S
C1959 C1960 1.389 . S
C1960 C1959 1.389 . S
C1960 C1961 1.387 . S
C1961 H1946 0.930 . S
C1961 C1956 1.390 . S
C1961 C1960 1.387 . S
H1962 C1974 0.930 . S
H1963 C1976 0.930 . S
H1964 C1977 0.930 . S
H1965 C1981 0.959 . S
H1966 C1981 0.959 . S
H1967 C1981 0.961 . S
H1968 C1982 0.960 . S
H1969 C1982 0.961 . S
H1970 C1982 0.959 . S
H1971 C1985 0.929 . S
H1972 C1986 0.931 . S
H1973 C1988 0.930 . S
C1974 H1962 0.930 . S
C1974 C1975 1.399 . S
C1974 C1979 1.399 . S
C1975 C1974 1.399 . S
C1975 C1976 1.376 . S
C1976 H1963 0.930 . S
C1976 C1975 1.376 . S
C1976 C1977 1.388 . S
C1977 H1964 0.930 . S
C1977 C1976 1.388 . S
C1977 C1978 1.390 . S
C1978 C1977 1.390 . S
C1978 C1979 1.394 . S
C1978 C1984 1.465 . S
C1979 C1974 1.399 . S
C1979 C1978 1.394 . S
C1979 C1980 1.516 . S
C1980 C1979 1.516 . S
C1980 C1981 1.502 . S
C1980 C1982 1.561 . S
C1980 C1983 1.526 . S
C1981 H1965 0.959 . S
C1981 H1966 0.959 . S
C1981 H1967 0.961 . S
C1981 C1980 1.502 . S
C1982 H1968 0.960 . S
C1982 H1969 0.961 . S
C1982 H1970 0.959 . S
C1982 C1980 1.561 . S
C1983 C1980 1.526 . S
C1983 C1984 1.396 . S
C1983 C1988 1.390 . S
C1984 C1978 1.465 . S
C1984 C1983 1.396 . S
C1984 C1985 1.399 . S
C1985 H1971 0.929 . S
C1985 C1984 1.399 . S
C1985 C1986 1.385 . S
C1986 H1972 0.931 . S
C1986 C1985 1.385 . S
C1986 C1987 1.389 . S
C1987 C1986 1.389 . S
C1987 C1988 1.387 . S
C1988 H1973 0.930 . S
C1988 C1983 1.390 . S
C1988 C1987 1.387 . S
H1989 C2001 0.930 . S
H1990 C2003 0.930 . S
H1991 C2004 0.930 . S
H1992 C2008 0.959 . S
H1993 C2008 0.959 . S
H1994 C2008 0.961 . S
H1995 C2009 0.960 . S
H1996 C2009 0.961 . S
H1997 C2009 0.959 . S
H1998 C2012 0.929 . S
H1999 C2013 0.931 . S
H2000 C2015 0.930 . S
C2001 H1989 0.930 . S
C2001 C2002 1.399 . S
C2001 C2006 1.399 . S
C2002 C2001 1.399 . S
C2002 C2003 1.376 . S
C2003 H1990 0.930 . S
C2003 C2002 1.376 . S
C2003 C2004 1.388 . S
C2004 H1991 0.930 . S
C2004 C2003 1.388 . S
C2004 C2005 1.390 . S
C2005 C2004 1.390 . S
C2005 C2006 1.394 . S
C2005 C2011 1.465 . S
C2006 C2001 1.399 . S
C2006 C2005 1.394 . S
C2006 C2007 1.516 . S
C2007 C2006 1.516 . S
C2007 C2008 1.502 . S
C2007 C2009 1.561 . S
C2007 C2010 1.526 . S
C2008 H1992 0.959 . S
C2008 H1993 0.959 . S
C2008 H1994 0.961 . S
C2008 C2007 1.502 . S
C2009 H1995 0.960 . S
C2009 H1996 0.961 . S
C2009 H1997 0.959 . S
C2009 C2007 1.561 . S
C2010 C2007 1.526 . S
C2010 C2011 1.396 . S
C2010 C2015 1.390 . S
C2011 C2005 1.465 . S
C2011 C2010 1.396 . S
C2011 C2012 1.399 . S
C2012 H1998 0.929 . S
C2012 C2011 1.399 . S
C2012 C2013 1.385 . S
C2013 H1999 0.931 . S
C2013 C2012 1.385 . S
C2013 C2014 1.389 . S
C2014 C2013 1.389 . S
C2014 C2015 1.387 . S
C2015 H2000 0.930 . S
C2015 C2010 1.390 . S
C2015 C2014 1.387 . S
H2016 C2028 0.930 . S
H2017 C2030 0.930 . S
H2018 C2031 0.930 . S
H2019 C2035 0.959 . S
H2020 C2035 0.959 . S
H2021 C2035 0.961 . S
H2022 C2036 0.960 . S
H2023 C2036 0.961 . S
H2024 C2036 0.959 . S
H2025 C2039 0.929 . S
H2026 C2040 0.931 . S
H2027 C2042 0.930 . S
C2028 H2016 0.930 . S
C2028 C2029 1.399 . S
C2028 C2033 1.399 . S
C2029 C2028 1.399 . S
C2029 C2030 1.376 . S
C2030 H2017 0.930 . S
C2030 C2029 1.376 . S
C2030 C2031 1.388 . S
C2031 H2018 0.930 . S
C2031 C2030 1.388 . S
C2031 C2032 1.390 . S
C2032 C2031 1.390 . S
C2032 C2033 1.394 . S
C2032 C2038 1.465 . S
C2033 C2028 1.399 . S
C2033 C2032 1.394 . S
C2033 C2034 1.516 . S
C2034 C2033 1.516 . S
C2034 C2035 1.502 . S
C2034 C2036 1.561 . S
C2034 C2037 1.526 . S
C2035 H2019 0.959 . S
C2035 H2020 0.959 . S
C2035 H2021 0.961 . S
C2035 C2034 1.502 . S
C2036 H2022 0.960 . S
C2036 H2023 0.961 . S
C2036 H2024 0.959 . S
C2036 C2034 1.561 . S
C2037 C2034 1.526 . S
C2037 C2038 1.396 . S
C2037 C2042 1.390 . S
C2038 C2032 1.465 . S
C2038 C2037 1.396 . S
C2038 C2039 1.399 . S
C2039 H2025 0.929 . S
C2039 C2038 1.399 . S
C2039 C2040 1.385 . S
C2040 H2026 0.931 . S
C2040 C2039 1.385 . S
C2040 C2041 1.389 . S
C2041 C2040 1.389 . S
C2041 C2042 1.387 . S
C2042 H2027 0.930 . S
C2042 C2037 1.390 . S
C2042 C2041 1.387 . S
H2043 C2055 0.930 . S
H2044 C2057 0.930 . S
H2045 C2058 0.930 . S
H2046 C2062 0.959 . S
H2047 C2062 0.959 . S
H2048 C2062 0.961 . S
H2049 C2063 0.960 . S
H2050 C2063 0.961 . S
H2051 C2063 0.959 . S
H2052 C2066 0.929 . S
H2053 C2067 0.931 . S
H2054 C2069 0.930 . S
C2055 H2043 0.930 . S
C2055 C2056 1.399 . S
C2055 C2060 1.399 . S
C2056 C2055 1.399 . S
C2056 C2057 1.376 . S
C2057 H2044 0.930 . S
C2057 C2056 1.376 . S
C2057 C2058 1.388 . S
C2058 H2045 0.930 . S
C2058 C2057 1.388 . S
C2058 C2059 1.390 . S
C2059 C2058 1.390 . S
C2059 C2060 1.394 . S
C2059 C2065 1.465 . S
C2060 C2055 1.399 . S
C2060 C2059 1.394 . S
C2060 C2061 1.516 . S
C2061 C2060 1.516 . S
C2061 C2062 1.502 . S
C2061 C2063 1.561 . S
C2061 C2064 1.526 . S
C2062 H2046 0.959 . S
C2062 H2047 0.959 . S
C2062 H2048 0.961 . S
C2062 C2061 1.502 . S
C2063 H2049 0.960 . S
C2063 H2050 0.961 . S
C2063 H2051 0.959 . S
C2063 C2061 1.561 . S
C2064 C2061 1.526 . S
C2064 C2065 1.396 . S
C2064 C2069 1.390 . S
C2065 C2059 1.465 . S
C2065 C2064 1.396 . S
C2065 C2066 1.399 . S
C2066 H2052 0.929 . S
C2066 C2065 1.399 . S
C2066 C2067 1.385 . S
C2067 H2053 0.931 . S
C2067 C2066 1.385 . S
C2067 C2068 1.389 . S
C2068 C2067 1.389 . S
C2068 C2069 1.387 . S
C2069 H2054 0.930 . S
C2069 C2064 1.390 . S
C2069 C2068 1.387 . S
H2070 C2082 0.930 . S
H2071 C2084 0.930 . S
H2072 C2085 0.930 . S
H2073 C2089 0.959 . S
H2074 C2089 0.959 . S
H2075 C2089 0.961 . S
H2076 C2090 0.960 . S
H2077 C2090 0.961 . S
H2078 C2090 0.959 . S
H2079 C2093 0.929 . S
H2080 C2094 0.931 . S
H2081 C2096 0.930 . S
C2082 H2070 0.930 . S
C2082 C2083 1.399 . S
C2082 C2087 1.399 . S
C2083 C2082 1.399 . S
C2083 C2084 1.376 . S
C2084 H2071 0.930 . S
C2084 C2083 1.376 . S
C2084 C2085 1.388 . S
C2085 H2072 0.930 . S
C2085 C2084 1.388 . S
C2085 C2086 1.390 . S
C2086 C2085 1.390 . S
C2086 C2087 1.394 . S
C2086 C2092 1.465 . S
C2087 C2082 1.399 . S
C2087 C2086 1.394 . S
C2087 C2088 1.516 . S
C2088 C2087 1.516 . S
C2088 C2089 1.502 . S
C2088 C2090 1.561 . S
C2088 C2091 1.526 . S
C2089 H2073 0.959 . S
C2089 H2074 0.959 . S
C2089 H2075 0.961 . S
C2089 C2088 1.502 . S
C2090 H2076 0.960 . S
C2090 H2077 0.961 . S
C2090 H2078 0.959 . S
C2090 C2088 1.561 . S
C2091 C2088 1.526 . S
C2091 C2092 1.396 . S
C2091 C2096 1.390 . S
C2092 C2086 1.465 . S
C2092 C2091 1.396 . S
C2092 C2093 1.399 . S
C2093 H2079 0.929 . S
C2093 C2092 1.399 . S
C2093 C2094 1.385 . S
C2094 H2080 0.931 . S
C2094 C2093 1.385 . S
C2094 C2095 1.389 . S
C2095 C2094 1.389 . S
C2095 C2096 1.387 . S
C2096 H2081 0.930 . S
C2096 C2091 1.390 . S
C2096 C2095 1.387 . S
H2097 C2109 0.930 . S
H2098 C2111 0.930 . S
H2099 C2112 0.930 . S
H2100 C2116 0.959 . S
H2101 C2116 0.959 . S
H2102 C2116 0.961 . S
H2103 C2117 0.960 . S
H2104 C2117 0.961 . S
H2105 C2117 0.959 . S
H2106 C2120 0.929 . S
H2107 C2121 0.931 . S
H2108 C2123 0.930 . S
C2109 H2097 0.930 . S
C2109 C2110 1.399 . S
C2109 C2114 1.399 . S
C2110 C2109 1.399 . S
C2110 C2111 1.376 . S
C2111 H2098 0.930 . S
C2111 C2110 1.376 . S
C2111 C2112 1.388 . S
C2112 H2099 0.930 . S
C2112 C2111 1.388 . S
C2112 C2113 1.390 . S
C2113 C2112 1.390 . S
C2113 C2114 1.394 . S
C2113 C2119 1.465 . S
C2114 C2109 1.399 . S
C2114 C2113 1.394 . S
C2114 C2115 1.516 . S
C2115 C2114 1.516 . S
C2115 C2116 1.502 . S
C2115 C2117 1.561 . S
C2115 C2118 1.526 . S
C2116 H2100 0.959 . S
C2116 H2101 0.959 . S
C2116 H2102 0.961 . S
C2116 C2115 1.502 . S
C2117 H2103 0.960 . S
C2117 H2104 0.961 . S
C2117 H2105 0.959 . S
C2117 C2115 1.561 . S
C2118 C2115 1.526 . S
C2118 C2119 1.396 . S
C2118 C2123 1.390 . S
C2119 C2113 1.465 . S
C2119 C2118 1.396 . S
C2119 C2120 1.399 . S
C2120 H2106 0.929 . S
C2120 C2119 1.399 . S
C2120 C2121 1.385 . S
C2121 H2107 0.931 . S
C2121 C2120 1.385 . S
C2121 C2122 1.389 . S
C2122 C2121 1.389 . S
C2122 C2123 1.387 . S
C2123 H2108 0.930 . S
C2123 C2118 1.390 . S
C2123 C2122 1.387 . S
H2124 C2136 0.930 . S
H2125 C2138 0.930 . S
H2126 C2139 0.930 . S
H2127 C2143 0.959 . S
H2128 C2143 0.959 . S
H2129 C2143 0.961 . S
H2130 C2144 0.960 . S
H2131 C2144 0.961 . S
H2132 C2144 0.959 . S
H2133 C2147 0.929 . S
H2134 C2148 0.931 . S
H2135 C2150 0.930 . S
C2136 H2124 0.930 . S
C2136 C2137 1.399 . S
C2136 C2141 1.399 . S
C2137 C2136 1.399 . S
C2137 C2138 1.376 . S
C2138 H2125 0.930 . S
C2138 C2137 1.376 . S
C2138 C2139 1.388 . S
C2139 H2126 0.930 . S
C2139 C2138 1.388 . S
C2139 C2140 1.390 . S
C2140 C2139 1.390 . S
C2140 C2141 1.394 . S
C2140 C2146 1.465 . S
C2141 C2136 1.399 . S
C2141 C2140 1.394 . S
C2141 C2142 1.516 . S
C2142 C2141 1.516 . S
C2142 C2143 1.502 . S
C2142 C2144 1.561 . S
C2142 C2145 1.526 . S
C2143 H2127 0.959 . S
C2143 H2128 0.959 . S
C2143 H2129 0.961 . S
C2143 C2142 1.502 . S
C2144 H2130 0.960 . S
C2144 H2131 0.961 . S
C2144 H2132 0.959 . S
C2144 C2142 1.561 . S
C2145 C2142 1.526 . S
C2145 C2146 1.396 . S
C2145 C2150 1.390 . S
C2146 C2140 1.465 . S
C2146 C2145 1.396 . S
C2146 C2147 1.399 . S
C2147 H2133 0.929 . S
C2147 C2146 1.399 . S
C2147 C2148 1.385 . S
C2148 H2134 0.931 . S
C2148 C2147 1.385 . S
C2148 C2149 1.389 . S
C2149 C2148 1.389 . S
C2149 C2150 1.387 . S
C2150 H2135 0.930 . S
C2150 C2145 1.390 . S
C2150 C2149 1.387 . S
H2151 C2163 0.930 . S
H2152 C2165 0.930 . S
H2153 C2166 0.930 . S
H2154 C2170 0.959 . S
H2155 C2170 0.959 . S
H2156 C2170 0.961 . S
H2157 C2171 0.960 . S
H2158 C2171 0.961 . S
H2159 C2171 0.959 . S
H2160 C2174 0.929 . S
H2161 C2175 0.931 . S
H2162 C2177 0.930 . S
C2163 H2151 0.930 . S
C2163 C2164 1.399 . S
C2163 C2168 1.399 . S
C2164 C2163 1.399 . S
C2164 C2165 1.376 . S
C2165 H2152 0.930 . S
C2165 C2164 1.376 . S
C2165 C2166 1.388 . S
C2166 H2153 0.930 . S
C2166 C2165 1.388 . S
C2166 C2167 1.390 . S
C2167 C2166 1.390 . S
C2167 C2168 1.394 . S
C2167 C2173 1.465 . S
C2168 C2163 1.399 . S
C2168 C2167 1.394 . S
C2168 C2169 1.516 . S
C2169 C2168 1.516 . S
C2169 C2170 1.502 . S
C2169 C2171 1.561 . S
C2169 C2172 1.526 . S
C2170 H2154 0.959 . S
C2170 H2155 0.959 . S
C2170 H2156 0.961 . S
C2170 C2169 1.502 . S
C2171 H2157 0.960 . S
C2171 H2158 0.961 . S
C2171 H2159 0.959 . S
C2171 C2169 1.561 . S
C2172 C2169 1.526 . S
C2172 C2173 1.396 . S
C2172 C2177 1.390 . S
C2173 C2167 1.465 . S
C2173 C2172 1.396 . S
C2173 C2174 1.399 . S
C2174 H2160 0.929 . S
C2174 C2173 1.399 . S
C2174 C2175 1.385 . S
C2175 H2161 0.931 . S
C2175 C2174 1.385 . S
C2175 C2176 1.389 . S
C2176 C2175 1.389 . S
C2176 C2177 1.387 . S
C2177 H2162 0.930 . S
C2177 C2172 1.390 . S
C2177 C2176 1.387 . S
H2178 C2190 0.930 . S
H2179 C2192 0.930 . S
H2180 C2193 0.930 . S
H2181 C2197 0.959 . S
H2182 C2197 0.959 . S
H2183 C2197 0.961 . S
H2184 C2198 0.960 . S
H2185 C2198 0.961 . S
H2186 C2198 0.959 . S
H2187 C2201 0.929 . S
H2188 C2202 0.931 . S
H2189 C2204 0.930 . S
C2190 H2178 0.930 . S
C2190 C2191 1.399 . S
C2190 C2195 1.399 . S
C2191 C2190 1.399 . S
C2191 C2192 1.376 . S
C2192 H2179 0.930 . S
C2192 C2191 1.376 . S
C2192 C2193 1.388 . S
C2193 H2180 0.930 . S
C2193 C2192 1.388 . S
C2193 C2194 1.390 . S
C2194 C2193 1.390 . S
C2194 C2195 1.394 . S
C2194 C2200 1.465 . S
C2195 C2190 1.399 . S
C2195 C2194 1.394 . S
C2195 C2196 1.516 . S
C2196 C2195 1.516 . S
C2196 C2197 1.502 . S
C2196 C2198 1.561 . S
C2196 C2199 1.526 . S
C2197 H2181 0.959 . S
C2197 H2182 0.959 . S
C2197 H2183 0.961 . S
C2197 C2196 1.502 . S
C2198 H2184 0.960 . S
C2198 H2185 0.961 . S
C2198 H2186 0.959 . S
C2198 C2196 1.561 . S
C2199 C2196 1.526 . S
C2199 C2200 1.396 . S
C2199 C2204 1.390 . S
C2200 C2194 1.465 . S
C2200 C2199 1.396 . S
C2200 C2201 1.399 . S
C2201 H2187 0.929 . S
C2201 C2200 1.399 . S
C2201 C2202 1.385 . S
C2202 H2188 0.931 . S
C2202 C2201 1.385 . S
C2202 C2203 1.389 . S
C2203 C2202 1.389 . S
C2203 C2204 1.387 . S
C2204 H2189 0.930 . S
C2204 C2199 1.390 . S
C2204 C2203 1.387 . S
H2205 C2217 0.930 . S
H2206 C2219 0.930 . S
H2207 C2220 0.930 . S
H2208 C2224 0.959 . S
H2209 C2224 0.959 . S
H2210 C2224 0.961 . S
H2211 C2225 0.960 . S
H2212 C2225 0.961 . S
H2213 C2225 0.959 . S
H2214 C2228 0.929 . S
H2215 C2229 0.931 . S
H2216 C2231 0.930 . S
C2217 H2205 0.930 . S
C2217 C2218 1.399 . S
C2217 C2222 1.399 . S
C2218 C2217 1.399 . S
C2218 C2219 1.376 . S
C2219 H2206 0.930 . S
C2219 C2218 1.376 . S
C2219 C2220 1.388 . S
C2220 H2207 0.930 . S
C2220 C2219 1.388 . S
C2220 C2221 1.390 . S
C2221 C2220 1.390 . S
C2221 C2222 1.394 . S
C2221 C2227 1.465 . S
C2222 C2217 1.399 . S
C2222 C2221 1.394 . S
C2222 C2223 1.516 . S
C2223 C2222 1.516 . S
C2223 C2224 1.502 . S
C2223 C2225 1.561 . S
C2223 C2226 1.526 . S
C2224 H2208 0.959 . S
C2224 H2209 0.959 . S
C2224 H2210 0.961 . S
C2224 C2223 1.502 . S
C2225 H2211 0.960 . S
C2225 H2212 0.961 . S
C2225 H2213 0.959 . S
C2225 C2223 1.561 . S
C2226 C2223 1.526 . S
C2226 C2227 1.396 . S
C2226 C2231 1.390 . S
C2227 C2221 1.465 . S
C2227 C2226 1.396 . S
C2227 C2228 1.399 . S
C2228 H2214 0.929 . S
C2228 C2227 1.399 . S
C2228 C2229 1.385 . S
C2229 H2215 0.931 . S
C2229 C2228 1.385 . S
C2229 C2230 1.389 . S
C2230 C2229 1.389 . S
C2230 C2231 1.387 . S
C2231 H2216 0.930 . S
C2231 C2226 1.390 . S
C2231 C2230 1.387 . S
H2232 C2244 0.930 . S
H2233 C2246 0.930 . S
H2234 C2247 0.930 . S
H2235 C2251 0.959 . S
H2236 C2251 0.959 . S
H2237 C2251 0.961 . S
H2238 C2252 0.960 . S
H2239 C2252 0.961 . S
H2240 C2252 0.959 . S
H2241 C2255 0.929 . S
H2242 C2256 0.931 . S
H2243 C2258 0.930 . S
C2244 H2232 0.930 . S
C2244 C2245 1.399 . S
C2244 C2249 1.399 . S
C2245 C2244 1.399 . S
C2245 C2246 1.376 . S
C2246 H2233 0.930 . S
C2246 C2245 1.376 . S
C2246 C2247 1.388 . S
C2247 H2234 0.930 . S
C2247 C2246 1.388 . S
C2247 C2248 1.390 . S
C2248 C2247 1.390 . S
C2248 C2249 1.394 . S
C2248 C2254 1.465 . S
C2249 C2244 1.399 . S
C2249 C2248 1.394 . S
C2249 C2250 1.516 . S
C2250 C2249 1.516 . S
C2250 C2251 1.502 . S
C2250 C2252 1.561 . S
C2250 C2253 1.526 . S
C2251 H2235 0.959 . S
C2251 H2236 0.959 . S
C2251 H2237 0.961 . S
C2251 C2250 1.502 . S
C2252 H2238 0.960 . S
C2252 H2239 0.961 . S
C2252 H2240 0.959 . S
C2252 C2250 1.561 . S
C2253 C2250 1.526 . S
C2253 C2254 1.396 . S
C2253 C2258 1.390 . S
C2254 C2248 1.465 . S
C2254 C2253 1.396 . S
C2254 C2255 1.399 . S
C2255 H2241 0.929 . S
C2255 C2254 1.399 . S
C2255 C2256 1.385 . S
C2256 H2242 0.931 . S
C2256 C2255 1.385 . S
C2256 C2257 1.389 . S
C2257 C2256 1.389 . S
C2257 C2258 1.387 . S
C2258 H2243 0.930 . S
C2258 C2253 1.390 . S
C2258 C2257 1.387 . S
H2259 C2271 0.930 . S
H2260 C2273 0.930 . S
H2261 C2274 0.930 . S
H2262 C2278 0.959 . S
H2263 C2278 0.959 . S
H2264 C2278 0.961 . S
H2265 C2279 0.960 . S
H2266 C2279 0.961 . S
H2267 C2279 0.959 . S
H2268 C2282 0.929 . S
H2269 C2283 0.931 . S
H2270 C2285 0.930 . S
C2271 H2259 0.930 . S
C2271 C2272 1.399 . S
C2271 C2276 1.399 . S
C2272 C2271 1.399 . S
C2272 C2273 1.376 . S
C2273 H2260 0.930 . S
C2273 C2272 1.376 . S
C2273 C2274 1.388 . S
C2274 H2261 0.930 . S
C2274 C2273 1.388 . S
C2274 C2275 1.390 . S
C2275 C2274 1.390 . S
C2275 C2276 1.394 . S
C2275 C2281 1.465 . S
C2276 C2271 1.399 . S
C2276 C2275 1.394 . S
C2276 C2277 1.516 . S
C2277 C2276 1.516 . S
C2277 C2278 1.502 . S
C2277 C2279 1.561 . S
C2277 C2280 1.526 . S
C2278 H2262 0.959 . S
C2278 H2263 0.959 . S
C2278 H2264 0.961 . S
C2278 C2277 1.502 . S
C2279 H2265 0.960 . S
C2279 H2266 0.961 . S
C2279 H2267 0.959 . S
C2279 C2277 1.561 . S
C2280 C2277 1.526 . S
C2280 C2281 1.396 . S
C2280 C2285 1.390 . S
C2281 C2275 1.465 . S
C2281 C2280 1.396 . S
C2281 C2282 1.399 . S
C2282 H2268 0.929 . S
C2282 C2281 1.399 . S
C2282 C2283 1.385 . S
C2283 H2269 0.931 . S
C2283 C2282 1.385 . S
C2283 C2284 1.389 . S
C2284 C2283 1.389 . S
C2284 C2285 1.387 . S
C2285 H2270 0.930 . S
C2285 C2280 1.390 . S
C2285 C2284 1.387 . S
H2286 C2298 0.930 . S
H2287 C2300 0.930 . S
H2288 C2301 0.930 . S
H2289 C2305 0.959 . S
H2290 C2305 0.959 . S
H2291 C2305 0.961 . S
H2292 C2306 0.960 . S
H2293 C2306 0.961 . S
H2294 C2306 0.959 . S
H2295 C2309 0.906 1_455 S
H2296 C2310 0.931 . S
H2297 C2312 0.930 . S
C2298 H2286 0.930 . S
C2298 C2299 1.399 . S
C2298 C2303 1.399 . S
C2299 C2298 1.399 . S
C2299 C2300 1.376 . S
C2300 H2287 0.930 . S
C2300 C2299 1.376 . S
C2300 C2301 1.388 . S
C2301 H2288 0.930 . S
C2301 C2300 1.388 . S
C2301 C2302 1.390 . S
C2302 C2301 1.390 . S
C2302 C2303 1.394 . S
C2302 C2308 1.465 1_455 S
C2303 C2298 1.399 . S
C2303 C2302 1.394 . S
C2303 C2304 1.516 1_455 S
C2304 C2303 1.516 1_655 S
C2304 C2305 1.502 . S
C2304 C2306 1.561 . S
C2304 C2307 1.526 . S
C2305 H2289 0.959 . S
C2305 H2290 0.959 . S
C2305 H2291 0.961 . S
C2305 C2304 1.502 . S
C2306 H2292 0.960 . S
C2306 H2293 0.961 . S
C2306 H2294 0.959 . S
C2306 C2304 1.561 . S
C2307 C2304 1.526 . S
C2307 C2308 1.396 . S
C2307 C2312 1.390 . S
C2308 C2302 1.465 1_655 S
C2308 C2307 1.396 . S
C2308 C2309 1.399 . S
C2309 H2295 0.906 1_655 S
C2309 C2308 1.399 . S
C2309 C2310 1.385 . S
C2310 H2296 0.931 . S
C2310 C2309 1.385 . S
C2310 C2311 1.389 . S
C2311 C2310 1.389 . S
C2311 C2312 1.387 . S
C2312 H2297 0.930 . S
C2312 C2307 1.390 . S
C2312 C2311 1.387 . S
H2313 C2325 0.930 . S
H2314 C2327 0.930 . S
H2315 C2328 0.930 . S
H2316 C2332 0.959 . S
H2317 C2332 0.959 . S
H2318 C2332 0.961 . S
H2319 C2333 0.960 . S
H2320 C2333 0.961 . S
H2321 C2333 0.959 . S
H2322 C2336 0.929 . S
H2323 C2337 0.931 . S
H2324 C2339 0.930 . S
C2325 H2313 0.930 . S
C2325 C2326 1.399 . S
C2325 C2330 1.399 . S
C2326 C2325 1.399 . S
C2326 C2327 1.376 . S
C2327 H2314 0.930 . S
C2327 C2326 1.376 . S
C2327 C2328 1.388 . S
C2328 H2315 0.930 . S
C2328 C2327 1.388 . S
C2328 C2329 1.390 . S
C2329 C2328 1.390 . S
C2329 C2330 1.394 . S
C2329 C2335 1.465 . S
C2330 C2325 1.399 . S
C2330 C2329 1.394 . S
C2330 C2331 1.516 . S
C2331 C2330 1.516 . S
C2331 C2332 1.502 . S
C2331 C2333 1.561 . S
C2331 C2334 1.526 . S
C2332 H2316 0.959 . S
C2332 H2317 0.959 . S
C2332 H2318 0.961 . S
C2332 C2331 1.502 . S
C2333 H2319 0.960 . S
C2333 H2320 0.961 . S
C2333 H2321 0.959 . S
C2333 C2331 1.561 . S
C2334 C2331 1.526 . S
C2334 C2335 1.396 . S
C2334 C2339 1.390 . S
C2335 C2329 1.465 . S
C2335 C2334 1.396 . S
C2335 C2336 1.399 . S
C2336 H2322 0.929 . S
C2336 C2335 1.399 . S
C2336 C2337 1.385 . S
C2337 H2323 0.931 . S
C2337 C2336 1.385 . S
C2337 C2338 1.389 . S
C2338 C2337 1.389 . S
C2338 C2339 1.387 . S
C2339 H2324 0.930 . S
C2339 C2334 1.390 . S
C2339 C2338 1.387 . S
H2340 C2352 0.930 . S
H2341 C2354 0.930 . S
H2342 C2355 0.930 . S
H2343 C2359 0.959 . S
H2344 C2359 0.959 . S
H2345 C2359 0.961 . S
H2346 C2360 0.960 . S
H2347 C2360 0.961 . S
H2348 C2360 0.959 . S
H2349 C2363 0.868 1_545 S
H2350 C2364 0.931 . S
H2351 C2366 0.930 . S
C2352 H2340 0.930 . S
C2352 C2353 1.399 . S
C2352 C2357 1.399 . S
C2353 C2352 1.399 . S
C2353 C2354 1.376 . S
C2354 H2341 0.930 . S
C2354 C2353 1.376 . S
C2354 C2355 1.388 . S
C2355 H2342 0.930 . S
C2355 C2354 1.388 . S
C2355 C2356 1.390 . S
C2356 C2355 1.390 . S
C2356 C2357 1.394 . S
C2356 C2362 1.465 1_545 S
C2357 C2352 1.399 . S
C2357 C2356 1.394 . S
C2357 C2358 1.516 1_545 S
C2358 C2357 1.516 1_565 S
C2358 C2359 1.502 . S
C2358 C2360 1.561 . S
C2358 C2361 1.526 . S
C2359 H2343 0.959 . S
C2359 H2344 0.959 . S
C2359 H2345 0.961 . S
C2359 C2358 1.502 . S
C2360 H2346 0.960 . S
C2360 H2347 0.961 . S
C2360 H2348 0.959 . S
C2360 C2358 1.561 . S
C2361 C2358 1.526 . S
C2361 C2362 1.396 . S
C2361 C2366 1.390 . S
C2362 C2356 1.465 1_565 S
C2362 C2361 1.396 . S
C2362 C2363 1.399 . S
C2363 H2349 0.868 1_565 S
C2363 C2362 1.399 . S
C2363 C2364 1.385 . S
C2364 H2350 0.931 . S
C2364 C2363 1.385 . S
C2364 C2365 1.389 . S
C2365 C2364 1.389 . S
C2365 C2366 1.387 . S
C2366 H2351 0.930 . S
C2366 C2361 1.390 . S
C2366 C2365 1.387 . S
H2367 C2379 0.930 . S
H2368 C2381 0.930 . S
H2369 C2382 0.930 . S
H2370 C2386 0.959 . S
H2371 C2386 0.959 . S
H2372 C2386 0.961 . S
H2373 C2387 0.960 . S
H2374 C2387 0.961 . S
H2375 C2387 0.959 1_556 S
H2376 C2390 0.908 1_545 S
H2377 C2391 0.931 . S
H2378 C2393 0.930 . S
C2379 H2367 0.930 . S
C2379 C2380 1.399 . S
C2379 C2384 1.399 . S
C2380 C2379 1.399 . S
C2380 C2381 1.376 . S
C2381 H2368 0.930 . S
C2381 C2380 1.376 . S
C2381 C2382 1.388 1_554 S
C2382 H2369 0.930 . S
C2382 C2381 1.388 1_556 S
C2382 C2383 1.390 . S
C2383 C2382 1.390 . S
C2383 C2384 1.394 1_556 S
C2383 C2389 1.465 1_545 S
C2384 C2379 1.399 . S
C2384 C2383 1.394 1_554 S
C2384 C2385 1.516 1_545 S
C2385 C2384 1.516 1_565 S
C2385 C2386 1.502 . S
C2385 C2387 1.561 . S
C2385 C2388 1.526 1_554 S
C2386 H2370 0.959 . S
C2386 H2371 0.959 . S
C2386 H2372 0.961 . S
C2386 C2385 1.502 . S
C2387 H2373 0.960 . S
C2387 H2374 0.961 . S
C2387 H2375 0.959 1_554 S
C2387 C2385 1.561 . S
C2388 C2385 1.526 1_556 S
C2388 C2389 1.396 . S
C2388 C2393 1.390 . S
C2389 C2383 1.465 1_565 S
C2389 C2388 1.396 . S
C2389 C2390 1.399 . S
C2390 H2376 0.908 1_565 S
C2390 C2389 1.399 . S
C2390 C2391 1.385 . S
C2391 H2377 0.931 . S
C2391 C2390 1.385 . S
C2391 C2392 1.389 . S
C2392 C2391 1.389 . S
C2392 C2393 1.387 . S
C2393 H2378 0.930 . S
C2393 C2388 1.390 . S
C2393 C2392 1.387 . S
H2394 C2406 0.930 1_556 S
H2395 C2408 0.930 . S
H2396 C2409 0.930 . S
H2397 C2413 1.012 . S
H2398 C2413 1.002 . S
H2399 C2413 0.929 1_655 S
H2400 C2414 0.960 . S
H2401 C2414 0.961 . S
H2402 C2414 0.959 . S
H2403 C2417 0.929 . S
H2404 C2418 0.931 1_554 S
H2405 C2420 0.930 . S
C2406 H2394 0.930 1_554 S
C2406 C2407 1.399 . S
C2406 C2411 1.399 1_554 S
C2407 C2406 1.399 . S
C2407 C2408 1.376 . S
C2408 H2395 0.930 . S
C2408 C2407 1.376 . S
C2408 C2409 1.388 . S
C2409 H2396 0.930 . S
C2409 C2408 1.388 . S
C2409 C2410 1.390 . S
C2410 C2409 1.390 . S
C2410 C2411 1.394 1_554 S
C2410 C2416 1.465 1_655 S
C2411 C2406 1.399 1_556 S
C2411 C2410 1.394 1_556 S
C2411 C2412 1.516 . S
C2412 C2411 1.516 . S
C2412 C2413 1.448 1_655 S
C2412 C2414 1.561 . S
C2412 C2415 1.526 1_655 S
C2413 H2397 1.012 . S
C2413 H2398 1.002 . S
C2413 H2399 0.929 1_455 S
C2413 C2412 1.448 1_455 S
C2414 H2400 0.960 . S
C2414 H2401 0.961 . S
C2414 H2402 0.959 . S
C2414 C2412 1.561 . S
C2415 C2412 1.526 1_455 S
C2415 C2416 1.396 1_556 S
C2415 C2420 1.390 . S
C2416 C2410 1.465 1_455 S
C2416 C2415 1.396 1_554 S
C2416 C2417 1.399 . S
C2417 H2403 0.929 . S
C2417 C2416 1.399 . S
C2417 C2418 1.386 1_554 S
C2418 H2404 0.931 1_556 S
C2418 C2417 1.386 1_556 S
C2418 C2419 1.388 . S
C2419 C2418 1.388 . S
C2419 C2420 1.387 . S
C2420 H2405 0.930 . S
C2420 C2415 1.390 . S
C2420 C2419 1.387 . S
H2421 C2433 0.930 . S
H2422 C2435 0.930 . S
H2423 C2436 0.930 . S
H2424 C2440 0.959 . S
H2425 C2440 0.959 . S
H2426 C2440 0.961 . S
H2427 C2441 0.960 . S
H2428 C2441 0.961 . S
H2429 C2441 0.959 . S
H2430 C2444 0.929 . S
H2431 C2445 0.931 . S
H2432 C2447 0.930 1_554 S
C2433 H2421 0.930 . S
C2433 C2434 1.399 . S
C2433 C2438 1.399 . S
C2434 C2433 1.399 . S
C2434 C2435 1.376 1_554 S
C2435 H2422 0.930 . S
C2435 C2434 1.376 1_556 S
C2435 C2436 1.388 . S
C2436 H2423 0.930 . S
C2436 C2435 1.388 . S
C2436 C2437 1.390 . S
C2437 C2436 1.390 . S
C2437 C2438 1.394 1_556 S
C2437 C2443 1.465 . S
C2438 C2433 1.399 . S
C2438 C2437 1.394 1_554 S
C2438 C2439 1.516 . S
C2439 C2438 1.516 . S
C2439 C2440 1.502 . S
C2439 C2441 1.561 . S
C2439 C2442 1.526 . S
C2440 H2424 0.959 . S
C2440 H2425 0.959 . S
C2440 H2426 0.961 . S
C2440 C2439 1.502 . S
C2441 H2427 0.960 . S
C2441 H2428 0.961 . S
C2441 H2429 0.959 . S
C2441 C2439 1.561 . S
C2442 C2439 1.526 . S
C2442 C2443 1.396 1_554 S
C2442 C2447 1.390 1_554 S
C2443 C2437 1.465 . S
C2443 C2442 1.396 1_556 S
C2443 C2444 1.399 . S
C2444 H2430 0.929 . S
C2444 C2443 1.399 . S
C2444 C2445 1.385 . S
C2445 H2431 0.931 . S
C2445 C2444 1.385 . S
C2445 C2446 1.389 . S
C2446 C2445 1.389 . S
C2446 C2447 1.387 . S
C2447 H2432 0.930 1_556 S
C2447 C2442 1.390 1_556 S
C2447 C2446 1.387 . S
C517 C147 1.251 . S
C529 C8 1.201 . S
C544 C161 1.217 . S
C556 C22 1.159 . S
C571 C36 1.146 . S
C583 C133 1.229 . S
C598 C50 1.243 . S
C610 C119 1.240 . S
C625 C64 1.205 . S
C637 C91 1.219 . S
C652 C105 1.223 . S
C664 C78 1.219 . S
C679 C63 1.215 . S
C691 C92 1.152 . S
C706 C77 1.242 . S
C718 C106 1.191 . S
C733 C120 1.177 . S
C745 C49 1.220 . S
C760 C35 1.250 . S
C772 C134 1.242 . S
C787 C148 1.240 . S
C799 C7 1.252 . S
C814 C162 1.208 . S
C826 C21 1.248 . S
C841 C315 1.234 . S
C853 C176 1.150 . S
C868 C329 1.216 . S
C880 C190 1.164 . S
C895 C204 1.150 . S
C907 C301 1.235 . S
C922 C218 1.243 . S
C934 C287 1.240 . S
C949 C232 1.215 . S
C961 C259 1.222 . S
C976 C246 1.197 . S
C988 C273 1.251 . S
C1003 C231 1.251 . S
C1015 C260 1.240 . S
C1030 C245 1.223 . S
C1042 C274 1.192 . S
C1057 C217 1.245 . S
C1069 C288 1.240 . S
C1084 C203 1.244 . S
C1096 C302 1.238 . S
C1111 C175 1.246 . S
C1123 C316 1.201 . S
C1138 C189 1.215 . S
C1150 C330 1.155 . S
C1165 C344 1.214 . S
C1177 C483 1.252 . S
C1192 C497 1.216 . S
C1204 C358 1.165 . S
C1219 C469 1.218 . S
C1231 C372 1.199 . S
C1246 C386 1.243 . S
C1258 C455 1.242 . S
C1273 C400 1.197 . S
C1285 C427 1.218 . S
C1300 C414 1.166 . S
C1312 C441 1.217 . S
C1327 C399 1.215 . S
C1339 C428 1.154 . S
C1354 C413 1.228 . S
C1366 C442 1.206 . S
C1381 C385 1.220 . S
C1393 C456 1.148 . S
C1408 C470 1.179 . S
C1420 C371 1.220 . S
C1435 C343 1.243 . S
C1447 C484 1.192 . S
C1462 C498 1.157 . S
C1474 C357 1.228 . S
C1489 C48 1.505 . S
C1501 C6 1.519 . S
C1516 C62 1.495 . S
C1528 C20 1.507 . S
C1543 C34 1.524 . S
C1555 C76 1.510 . S
C1570 C132 1.497 . S
C1582 C90 1.498 . S
C1597 C146 1.532 . S
C1609 C104 1.532 . S
C1624 C160 1.500 . S
C1636 C118 1.501 . S
C1651 C216 1.503 . S
C1663 C174 1.517 . S
C1678 C230 1.494 . S
C1690 C188 1.505 . S
C1705 C202 1.497 . S
C1717 C244 1.510 . S
C1732 C258 1.515 . S
C1744 C300 1.515 . S
C1759 C314 1.497 . S
C1771 C272 1.498 . S
C1786 C286 1.491 . S
C1798 C328 1.492 . S
C1813 C384 1.535 . S
C1825 C342 1.523 . S
C1840 C398 1.535 . S
C1852 C356 1.524 . S
C1867 C370 1.532 . S
C1879 C412 1.520 . S
C1894 C426 1.501 . S
C1906 C468 1.502 . S
C1921 C440 1.494 . S
C1933 C482 1.495 . S
C1948 C454 1.528 . S
C1960 C496 1.528 . S
C1975 C9 1.544 . S
C1987 C261 1.494 . S
C2002 C275 1.544 . S
C2014 C23 1.494 . S
C2029 C289 1.502 . S
C2041 C37 1.529 . S
C2056 C471 1.529 . S
C2068 C51 1.516 . S
C2083 C485 1.508 . S
C2095 C65 1.523 . S
C2110 C499 1.522 . S
C2122 C79 1.509 . S
C2137 C93 1.503 . S
C2149 C345 1.540 . S
C2164 C359 1.504 . S
C2176 C107 1.539 . S
C2191 C373 1.532 . S
C2203 C121 1.500 . S
C2218 C135 1.515 . S
C2230 C219 1.515 . S
C2245 C149 1.493 . S
C2257 C233 1.544 . S
C2272 C163 1.541 . S
C2284 C247 1.501 . S
C2299 C429 1.511 . S
C2311 C177 1.534 . S
C2326 C443 1.538 . S
C2338 C191 1.506 . S
C2353 C205 1.494 . S
C2365 C457 1.540 . S
C2380 C303 1.504 . S
C2392 C387 1.539 . S
C2407 C317 1.500 . S
C2419 C401 1.532 . S
C2434 C331 1.533 . S
C2446 C415 1.512 . S
