# Generated by pormake.
# Topology zfn, (5)-cn, num edge types: 1
# Building blocks:
#     Node 0, Type 0, BuildingBlock: BEQFEK_clean_sbu_0, # of connection points: 5
#     Node 1, Type 0, BuildingBlock: BEQFEK_clean_sbu_0, # of connection points: 5
#     Node 2, Type 0, BuildingBlock: BEQFEK_clean_sbu_0, # of connection points: 5
#     Node 3, Type 0, BuildingBlock: BEQFEK_clean_sbu_0, # of connection points: 5
#     Node 4, Type 0, BuildingBlock: BEQFEK_clean_sbu_0, # of connection points: 5
#     Node 5, Type 0, BuildingBlock: BEQFEK_clean_sbu_0, # of connection points: 5
#     Node 6, Type 0, BuildingBlock: BEQFEK_clean_sbu_0, # of connection points: 5
#     Node 7, Type 0, BuildingBlock: BEQFEK_clean_sbu_0, # of connection points: 5
#     Node 8, Type 0, BuildingBlock: BEQFEK_clean_sbu_0, # of connection points: 5
#     Node 9, Type 0, BuildingBlock: BEQFEK_clean_sbu_0, # of connection points: 5
#     Node 10, Type 0, BuildingBlock: BEQFEK_clean_sbu_0, # of connection points: 5
#     Node 11, Type 0, BuildingBlock: BEQFEK_clean_sbu_0, # of connection points: 5
#     Node 12, Type 0, BuildingBlock: BEQFEK_clean_sbu_0, # of connection points: 5
#     Node 13, Type 0, BuildingBlock: BEQFEK_clean_sbu_0, # of connection points: 5
#     Node 14, Type 0, BuildingBlock: BEQFEK_clean_sbu_0, # of connection points: 5
#     Node 15, Type 0, BuildingBlock: BEQFEK_clean_sbu_0, # of connection points: 5
#     Edge 16, Type (0, 0), BuildingBlock: CIFDUS_clean_linker_0, # of connection points: 2
#     Edge 17, Type (0, 0), BuildingBlock: CIFDUS_clean_linker_0, # of connection points: 2
#     Edge 18, Type (0, 0), BuildingBlock: CIFDUS_clean_linker_0, # of connection points: 2
#     Edge 19, Type (0, 0), BuildingBlock: CIFDUS_clean_linker_0, # of connection points: 2
#     Edge 20, Type (0, 0), BuildingBlock: CIFDUS_clean_linker_0, # of connection points: 2
#     Edge 21, Type (0, 0), BuildingBlock: CIFDUS_clean_linker_0, # of connection points: 2
#     Edge 22, Type (0, 0), BuildingBlock: CIFDUS_clean_linker_0, # of connection points: 2
#     Edge 23, Type (0, 0), BuildingBlock: CIFDUS_clean_linker_0, # of connection points: 2
#     Edge 24, Type (0, 0), BuildingBlock: CIFDUS_clean_linker_0, # of connection points: 2
#     Edge 25, Type (0, 0), BuildingBlock: CIFDUS_clean_linker_0, # of connection points: 2
#     Edge 26, Type (0, 0), BuildingBlock: CIFDUS_clean_linker_0, # of connection points: 2
#     Edge 27, Type (0, 0), BuildingBlock: CIFDUS_clean_linker_0, # of connection points: 2
#     Edge 28, Type (0, 0), BuildingBlock: CIFDUS_clean_linker_0, # of connection points: 2
#     Edge 29, Type (0, 0), BuildingBlock: CIFDUS_clean_linker_0, # of connection points: 2
#     Edge 30, Type (0, 0), BuildingBlock: CIFDUS_clean_linker_0, # of connection points: 2
#     Edge 31, Type (0, 0), BuildingBlock: CIFDUS_clean_linker_0, # of connection points: 2
#     Edge 32, Type (0, 0), BuildingBlock: CIFDUS_clean_linker_0, # of connection points: 2
#     Edge 33, Type (0, 0), BuildingBlock: CIFDUS_clean_linker_0, # of connection points: 2
#     Edge 34, Type (0, 0), BuildingBlock: CIFDUS_clean_linker_0, # of connection points: 2
#     Edge 35, Type (0, 0), BuildingBlock: CIFDUS_clean_linker_0, # of connection points: 2
#     Edge 36, Type (0, 0), BuildingBlock: CIFDUS_clean_linker_0, # of connection points: 2
#     Edge 37, Type (0, 0), BuildingBlock: CIFDUS_clean_linker_0, # of connection points: 2
#     Edge 38, Type (0, 0), BuildingBlock: CIFDUS_clean_linker_0, # of connection points: 2
#     Edge 39, Type (0, 0), BuildingBlock: CIFDUS_clean_linker_0, # of connection points: 2
#     Edge 40, Type (0, 0), BuildingBlock: CIFDUS_clean_linker_0, # of connection points: 2
#     Edge 41, Type (0, 0), BuildingBlock: CIFDUS_clean_linker_0, # of connection points: 2
#     Edge 42, Type (0, 0), BuildingBlock: CIFDUS_clean_linker_0, # of connection points: 2
#     Edge 43, Type (0, 0), BuildingBlock: CIFDUS_clean_linker_0, # of connection points: 2
#     Edge 44, Type (0, 0), BuildingBlock: CIFDUS_clean_linker_0, # of connection points: 2
#     Edge 45, Type (0, 0), BuildingBlock: CIFDUS_clean_linker_0, # of connection points: 2
#     Edge 46, Type (0, 0), BuildingBlock: CIFDUS_clean_linker_0, # of connection points: 2
#     Edge 47, Type (0, 0), BuildingBlock: CIFDUS_clean_linker_0, # of connection points: 2
#     Edge 48, Type (0, 0), BuildingBlock: CIFDUS_clean_linker_0, # of connection points: 2
#     Edge 49, Type (0, 0), BuildingBlock: CIFDUS_clean_linker_0, # of connection points: 2
#     Edge 50, Type (0, 0), BuildingBlock: CIFDUS_clean_linker_0, # of connection points: 2
#     Edge 51, Type (0, 0), BuildingBlock: CIFDUS_clean_linker_0, # of connection points: 2
#     Edge 52, Type (0, 0), BuildingBlock: CIFDUS_clean_linker_0, # of connection points: 2
#     Edge 53, Type (0, 0), BuildingBlock: CIFDUS_clean_linker_0, # of connection points: 2
#     Edge 54, Type (0, 0), BuildingBlock: CIFDUS_clean_linker_0, # of connection points: 2
#     Edge 55, Type (0, 0), BuildingBlock: CIFDUS_clean_linker_0, # of connection points: 2
# Relax obj value: 0.143
# Max RMSD: 0.175
# Mean RMSD: 0.175
data_MOF--net-zfn--node1-BEQFEK_clean_sbu_0--edge1-CIFDUS_clean_linker_0
_symmetry_space_group_name_H-M    P1
_symmetry_Int_Tables_number       1
_symmetry_cell_setting            triclinic
loop_
_symmetry_equiv_pos_as_xyz
'x, y, z'
_cell_length_a     65.270025
_cell_length_b     65.287797
_cell_length_c     17.202511
_cell_angle_alpha  90.13593
_cell_angle_beta   90.046916
_cell_angle_gamma 90.02303
loop_
_atom_site_label
_atom_site_type_symbol
_atom_site_fract_x
_atom_site_fract_y
_atom_site_fract_z
_atom_type_partial_charge
Co0 Co 0.99901 0.35993 0.06026 0.0
Co1 Co 0.00921 0.37121 0.23003 0.0
C2 C 0.97213 0.38831 0.15169 0.0
O3 O 0.9758 0.37794 0.09058 0.0
O4 O 0.98404 0.38747 0.21022 0.0
C5 C 0.98843 0.36385 0.90825 0.0
O6 O 0.98459 0.38223 0.93583 0.0
C7 C 0.00388 0.37735 0.39606 0.0
C8 C 0.03481 0.37007 0.44092 0.0
C9 C 0.01515 0.37533 0.46348 0.0
N10 N 0.01631 0.37344 0.33582 0.0
N11 N 0.03484 0.36941 0.36275 0.0
C12 C 0.9812 0.38034 0.38925 0.0
H13 H 0.97504 0.37105 0.34052 0.0
H14 H 0.97321 0.37601 0.44369 0.0
H15 H 0.97807 0.39672 0.37715 0.0
C16 C 0.00049 0.31775 0.12439 0.0
N17 N 0.00221 0.33823 0.13139 0.0
N18 N 0.00536 0.343 0.20464 0.0
C19 C 0.00511 0.32568 0.24735 0.0
C20 C 0.00219 0.30901 0.19788 0.0
C21 C 0.99796 0.30694 0.04818 0.0
H22 H 0.00708 0.31478 0.00276 0.0
H23 H 0.9816 0.30747 0.0307 0.0
H24 H 0.00294 0.29072 0.05195 0.0
O25 O 0.02438 0.37631 0.05013 0.0
O26 O 0.03235 0.38361 0.17196 0.0
H27 H 0.02146 0.32812 0.35476 0.0
H28 H 1.00003 0.3106 0.35809 0.0
C29 C 0.00557 0.32536 0.33439 0.0
H30 H 0.99562 0.33765 0.35746 0.0
H31 H 0.04731 0.36544 0.32782 0.0
O32 O 0.99388 0.34989 0.95505 0.0
C33 C 0.03616 0.38473 0.09961 0.0
Co34 Co 0.14048 0.99315 0.53927 0.0
Co35 Co 0.13172 0.00903 0.70977 0.0
C36 C 0.11379 0.96951 0.64686 0.0
O37 O 0.12289 0.97105 0.58159 0.0
O38 O 0.11583 0.98317 0.69937 0.0
C39 C 0.1357 0.97801 0.38562 0.0
O40 O 0.11959 0.96938 0.41749 0.0
C41 C 0.13282 0.00462 0.88011 0.0
C42 C 0.13264 0.03683 0.91953 0.0
C43 C 0.13403 0.01685 0.94635 0.0
N44 N 0.13107 0.01685 0.81747 0.0
N45 N 0.13064 0.03607 0.84165 0.0
C46 C 0.13555 0.98189 0.87499 0.0
H47 H 0.14145 0.97748 0.81685 0.0
H48 H 0.14626 0.97641 0.92054 0.0
H49 H 0.12049 0.97435 0.88368 0.0
C50 C 0.18337 0.99531 0.59692 0.0
N51 N 0.16306 0.99804 0.6061 0.0
N52 N 0.15949 0.00506 0.67671 0.0
C53 C 0.17751 0.00724 0.71432 0.0
C54 C 0.19324 0.00107 0.66517 0.0
C55 C 0.19297 0.98746 0.52376 0.0
H56 H 0.18684 0.99607 0.47334 0.0
H57 H 0.18872 0.97112 0.51577 0.0
H58 H 0.2099 0.98892 0.5252 0.0
O59 O 0.12407 0.0182 0.52887 0.0
O60 O 0.11799 0.03077 0.64636 0.0
H61 H 0.17084 0.02794 0.8077 0.0
H62 H 0.19554 0.01584 0.81611 0.0
C63 C 0.17946 0.01356 0.79779 0.0
H64 H 0.17292 0.00141 0.835 0.0
H65 H 0.12973 0.0487 0.80472 0.0
O66 O 0.14834 0.98753 0.42906 0.0
C67 C 0.11622 0.0318 0.57261 0.0
Co68 Co 0.50581 0.14275 0.01439 0.0
Co69 Co 0.49086 0.13288 0.18514 0.0
C70 C 0.5306 0.11636 0.11937 0.0
O71 O 0.52852 0.12555 0.05453 0.0
O72 O 0.51718 0.11797 0.17282 0.0
C73 C 0.52218 0.14059 0.86078 0.0
O74 O 0.53319 0.12589 0.89188 0.0
C75 C 0.49552 0.13526 0.35494 0.0
C76 C 0.46375 0.13091 0.39559 0.0
C77 C 0.48345 0.13504 0.42159 0.0
N78 N 0.48344 0.13165 0.2929 0.0
N79 N 0.46452 0.12877 0.31777 0.0
C80 C 0.51771 0.14082 0.34873 0.0
H81 H 0.52122 0.14662 0.28962 0.0
H82 H 0.52185 0.15258 0.39275 0.0
H83 H 0.52713 0.12696 0.35918 0.0
C84 C 0.50177 0.18533 0.07419 0.0
N85 N 0.50036 0.16486 0.08288 0.0
N86 N 0.49378 0.16076 0.1536 0.0
C87 C 0.49069 0.17856 0.19176 0.0
C88 C 0.49583 0.19461 0.14317 0.0
C89 C 0.50903 0.19559 0.00167 0.0
H90 H 0.497 0.19415 0.95635 0.0
H91 H 0.52296 0.18773 0.97977 0.0
H92 H 0.51234 0.21206 0.01189 0.0
O93 O 0.48126 0.12553 0.00405 0.0
O94 O 0.46944 0.11862 0.12185 0.0
H95 H 0.46929 0.16923 0.27942 0.0
H96 H 0.47576 0.19605 0.28247 0.0
C97 C 0.48186 0.18043 0.27175 0.0
H98 H 0.49399 0.17737 0.31523 0.0
H99 H 0.45201 0.12604 0.28136 0.0
O100 O 0.51074 0.15138 0.90462 0.0
C101 C 0.46816 0.11705 0.04808 0.0
Co102 Co 0.35767 0.50428 0.50655 0.0
Co103 Co 0.36642 0.489 0.67738 0.0
C104 C 0.38294 0.52917 0.61561 0.0
O105 O 0.37418 0.52726 0.54967 0.0
O106 O 0.38117 0.51548 0.66784 0.0
C107 C 0.36074 0.52027 0.35281 0.0
O108 O 0.37591 0.53066 0.38402 0.0
C109 C 0.36355 0.49351 0.84689 0.0
C110 C 0.36744 0.46169 0.88748 0.0
C111 C 0.3636 0.48145 0.91344 0.0
N112 N 0.36704 0.48139 0.78489 0.0
N113 N 0.36961 0.46243 0.80968 0.0
C114 C 0.35832 0.51576 0.84079 0.0
H115 H 0.35223 0.51928 0.78207 0.0
H116 H 0.3469 0.52016 0.8856 0.0
H117 H 0.37241 0.52497 0.85006 0.0
C118 C 0.3147 0.499 0.56026 0.0
N119 N 0.33511 0.49819 0.57185 0.0
N120 N 0.33876 0.49163 0.64295 0.0
C121 C 0.32073 0.48805 0.67861 0.0
C122 C 0.30497 0.49271 0.62776 0.0
C123 C 0.3049 0.50597 0.48638 0.0
H124 H 0.31215 0.52047 0.46702 0.0
H125 H 0.28815 0.50824 0.49365 0.0
H126 H 0.30762 0.49431 0.44052 0.0
O127 O 0.37543 0.48006 0.49678 0.0
O128 O 0.38126 0.46786 0.61486 0.0
H129 H 0.30268 0.47356 0.76867 0.0
H130 H 0.32172 0.49145 0.80209 0.0
C131 C 0.31844 0.47935 0.75857 0.0
H132 H 0.32941 0.4666 0.76682 0.0
H133 H 0.37224 0.4499 0.77328 0.0
O134 O 0.34946 0.50934 0.39653 0.0
C135 C 0.38359 0.46687 0.54134 0.0
Co136 Co 0.997 0.14062 0.47 0.0
Co137 Co 0.01291 0.13296 0.29985 0.0
C138 C 0.9729 0.11515 0.36182 0.0
O139 O 0.97399 0.12403 0.42785 0.0
O140 O 0.98701 0.11725 0.31132 0.0
C141 C 0.97989 0.15339 0.62856 0.0
O142 O 0.96172 0.15868 0.60259 0.0
C143 C 0.00821 0.1362 0.12891 0.0
C144 C 0.03992 0.13062 0.0897 0.0
C145 C 0.02037 0.13495 0.0625 0.0
N146 N 0.02014 0.13297 0.19177 0.0
N147 N 0.03906 0.12963 0.1677 0.0
C148 C 0.98556 0.13971 0.13291 0.0
H149 H 0.97935 0.13523 0.1901 0.0
H150 H 0.98231 0.15623 0.12478 0.0
H151 H 0.97764 0.13098 0.08628 0.0
C152 C 0.00132 0.18404 0.41942 0.0
N153 N 0.00265 0.1637 0.40685 0.0
N154 N 0.00957 0.16044 0.33593 0.0
C155 C 0.01286 0.17865 0.30135 0.0
C156 C 0.00761 0.19413 0.35271 0.0
C157 C 0.99373 0.19348 0.49321 0.0
H158 H 0.00334 0.18816 0.54239 0.0
H159 H 0.97782 0.18824 0.50407 0.0
H160 H 0.99403 0.21046 0.49058 0.0
O161 O 0.02148 0.12324 0.47639 0.0
O162 O 0.0348 0.11844 0.35961 0.0
H163 H 0.03469 0.17056 0.2134 0.0
H164 H 0.02742 0.19724 0.21318 0.0
C165 C 0.0218 0.18136 0.22194 0.0
H166 H 0.00987 0.17813 0.17775 0.0
H167 H 0.0514 0.12669 0.20462 0.0
O168 O 0.99357 0.14717 0.58166 0.0
C169 C 0.03527 0.11571 0.43291 0.0
Co170 Co 0.35987 0.99638 0.94203 0.0
Co171 Co 0.37026 0.01139 0.77176 0.0
C172 C 0.38575 0.97112 0.83683 0.0
O173 O 0.37643 0.97338 0.90136 0.0
O174 O 0.38469 0.98466 0.78365 0.0
C175 C 0.36185 0.98015 0.09577 0.0
O176 O 0.37648 0.96904 0.0646 0.0
C177 C 0.36769 0.00679 0.60192 0.0
C178 C 0.3728 0.03843 0.56129 0.0
C179 C 0.36819 0.01883 0.53526 0.0
N180 N 0.3716 0.01879 0.66396 0.0
N181 N 0.37493 0.03763 0.6391 0.0
C182 C 0.36158 0.98476 0.60815 0.0
H183 H 0.35565 0.98144 0.66725 0.0
H184 H 0.34975 0.98089 0.56409 0.0
H185 H 0.37522 0.975 0.5978 0.0
C186 C 0.31747 0.0012 0.8819 0.0
N187 N 0.33797 0.00226 0.87349 0.0
N188 N 0.34228 0.00927 0.80357 0.0
C189 C 0.32458 0.01338 0.76624 0.0
C190 C 0.3084 0.00823 0.81418 0.0
C191 C 0.30697 0.99393 0.95391 0.0
H192 H 0.30917 0.00547 0.00066 0.0
H193 H 0.31411 0.97943 0.97373 0.0
H194 H 0.29032 0.99162 0.94397 0.0
O195 O 0.37759 0.02061 0.95262 0.0
O196 O 0.38486 0.0325 0.83526 0.0
H197 H 0.33434 0.0349 0.67987 0.0
H198 H 0.30744 0.0286 0.67537 0.0
C199 C 0.32299 0.02242 0.68658 0.0
H200 H 0.32614 0.01037 0.64275 0.0
H201 H 0.37797 0.05008 0.67551 0.0
O202 O 0.35111 0.99161 0.05193 0.0
C203 C 0.38635 0.03364 0.90908 0.0
Co204 Co 0.50416 0.35862 0.45761 0.0
Co205 Co 0.49292 0.36936 0.2843 0.0
C206 C 0.53077 0.38616 0.36064 0.0
O207 O 0.52715 0.37657 0.42378 0.0
O208 O 0.51873 0.38483 0.30232 0.0
C209 C 0.52232 0.35405 0.61215 0.0
O210 O 0.53922 0.36196 0.58368 0.0
C211 C 0.49522 0.37329 0.11155 0.0
C212 C 0.46399 0.36321 0.07999 0.0
C213 C 0.48273 0.36861 0.04818 0.0
N214 N 0.48448 0.37006 0.17732 0.0
N215 N 0.46574 0.36441 0.15771 0.0
C216 C 0.51675 0.38113 0.11034 0.0
H217 H 0.5189 0.39243 0.15767 0.0
H218 H 0.52751 0.36824 0.12011 0.0
H219 H 0.52035 0.38863 0.05417 0.0
C220 C 0.50206 0.31625 0.39385 0.0
N221 N 0.50029 0.33673 0.38688 0.0
N222 N 0.49686 0.34135 0.31359 0.0
C223 C 0.4973 0.32399 0.27099 0.0
C224 C 0.50021 0.3074 0.32038 0.0
C225 C 0.50509 0.30556 0.46982 0.0
H226 H 0.49685 0.31385 0.51661 0.0
H227 H 0.52166 0.30551 0.48437 0.0
H228 H 0.49949 0.28953 0.46708 0.0
O229 O 0.47934 0.37507 0.46511 0.0
O230 O 0.4703 0.38282 0.34492 0.0
H231 H 0.48229 0.3253 0.16048 0.0
H232 H 0.50475 0.30918 0.16143 0.0
C233 C 0.49802 0.3236 0.18397 0.0
H234 H 0.50762 0.33639 0.16291 0.0
H235 H 0.45434 0.36059 0.19768 0.0
O236 O 0.50748 0.34988 0.56699 0.0
C237 C 0.46724 0.38377 0.41798 0.0
Co238 Co 0.14095 0.49595 0.93588 0.0
Co239 Co 0.12831 0.48863 0.76409 0.0
C240 C 0.11301 0.525 0.85244 0.0
O241 O 0.12336 0.51997 0.91214 0.0
O242 O 0.11331 0.51406 0.7911 0.0
C243 C 0.14576 0.51262 0.08794 0.0
O244 O 0.1334 0.52691 0.06195 0.0
C245 C 0.12391 0.49747 0.59912 0.0
C246 C 0.12704 0.46657 0.54748 0.0
C247 C 0.12518 0.48713 0.52898 0.0
N248 N 0.12524 0.48364 0.65653 0.0
N249 N 0.12667 0.46518 0.62544 0.0
C250 C 0.12423 0.52019 0.61181 0.0
H251 H 0.13214 0.52399 0.66705 0.0
H252 H 0.13205 0.52814 0.56323 0.0
H253 H 0.10824 0.52586 0.6154 0.0
C254 C 0.18256 0.49451 0.86724 0.0
N255 N 0.16204 0.49315 0.86161 0.0
N256 N 0.15684 0.49088 0.78827 0.0
C257 C 0.17399 0.49117 0.74435 0.0
C258 C 0.19093 0.49341 0.79296 0.0
C259 C 0.19378 0.49639 0.94284 0.0
H260 H 0.18673 0.48612 0.98655 0.0
H261 H 0.19244 0.51236 0.96447 0.0
H262 H 0.21021 0.49237 0.93651 0.0
O263 O 0.12366 0.47112 0.94086 0.0
O264 O 0.11508 0.46524 0.81837 0.0
H265 H 0.16814 0.47668 0.63482 0.0
H266 H 0.18924 0.4946 0.63241 0.0
C267 C 0.17392 0.49152 0.65728 0.0
H268 H 0.16361 0.50383 0.63711 0.0
H269 H 0.12839 0.45173 0.6575 0.0
O270 O 0.15212 0.49887 0.04158 0.0
C271 C 0.11432 0.46047 0.89001 0.0
Co272 Co 0.00162 0.63837 0.92588 0.0
Co273 Co 0.98714 0.62896 0.75781 0.0
C274 C 0.02515 0.60969 0.82629 0.0
O275 O 0.02368 0.61976 0.88953 0.0
O276 O 0.01188 0.61168 0.77252 0.0
C277 C 0.01095 0.63331 0.07946 0.0
O278 O 0.01331 0.61461 0.05254 0.0
C279 C 0.992 0.62438 0.59086 0.0
C280 C 0.9607 0.63002 0.54678 0.0
C281 C 0.98055 0.62574 0.52373 0.0
N282 N 0.97953 0.62758 0.65164 0.0
N283 N 0.96078 0.63077 0.62509 0.0
C284 C 0.0148 0.6224 0.59646 0.0
H285 H 0.02064 0.63077 0.64808 0.0
H286 H 0.02235 0.62844 0.54345 0.0
H287 H 0.01878 0.60597 0.60193 0.0
C288 C 0.00041 0.68099 0.8671 0.0
N289 N 0.99789 0.66066 0.85788 0.0
N290 N 0.9924 0.65678 0.78582 0.0
C291 C 0.99173 0.67456 0.74605 0.0
C292 C 0.99667 0.69056 0.79636 0.0
C293 C 0.00536 0.69091 0.94338 0.0
H294 H 0.99611 0.68379 0.9901 0.0
H295 H 0.02178 0.68834 0.95705 0.0
H296 H 0.0022 0.7076 0.94248 0.0
O297 O 0.97601 0.6227 0.93826 0.0
O298 O 0.96436 0.61688 0.81947 0.0
H299 H 0.97188 0.67219 0.64749 0.0
H300 H 0.99173 0.69133 0.63699 0.0
C301 C 0.98811 0.67594 0.66024 0.0
H302 H 0.99795 0.66469 0.62989 0.0
H303 H 0.94817 0.63394 0.66034 0.0
O304 O 0.00753 0.64768 0.0317 0.0
C305 C 0.96257 0.61523 0.89289 0.0
Co306 Co 0.85764 0.00083 0.43532 0.0
Co307 Co 0.87176 0.99408 0.26566 0.0
C308 C 0.88397 0.03166 0.35289 0.0
O309 O 0.87346 0.0259 0.41098 0.0
O310 O 0.88499 0.02071 0.29172 0.0
C311 C 0.8577 0.01319 0.58822 0.0
O312 O 0.8746 0.02174 0.56266 0.0
C313 C 0.87611 0.00221 0.10122 0.0
C314 C 0.87686 0.97088 0.05192 0.0
C315 C 0.87658 0.99142 0.0321 0.0
N316 N 0.8759 0.98864 0.15952 0.0
N317 N 0.87677 0.96995 0.13 0.0
C318 C 0.87316 0.02479 0.11194 0.0
H319 H 0.86401 0.02786 0.16503 0.0
H320 H 0.86539 0.03167 0.06092 0.0
H321 H 0.88837 0.03216 0.11903 0.0
C322 C 0.81657 0.99507 0.36356 0.0
N323 N 0.83715 0.99631 0.35981 0.0
N324 N 0.84306 0.99384 0.28732 0.0
C325 C 0.82635 0.99093 0.2424 0.0
C326 C 0.80902 0.99153 0.2892 0.0
C327 C 0.80463 0.99649 0.43755 0.0
H328 H 0.81201 0.98687 0.48269 0.0
H329 H 0.80486 0.01258 0.45848 0.0
H330 H 0.78852 0.9915 0.42939 0.0
O331 O 0.87645 0.97699 0.44347 0.0
O332 O 0.88594 0.97189 0.32155 0.0
H333 H 0.83495 0.97435 0.14014 0.0
H334 H 0.81129 0.98842 0.12993 0.0
C335 C 0.82684 0.98869 0.15577 0.0
H336 H 0.83523 0.00178 0.13034 0.0
H337 H 0.87633 0.95658 0.1631 0.0
O338 O 0.8462 0.00384 0.54032 0.0
C339 C 0.8866 0.967 0.39295 0.0
Co340 Co 0.49395 0.85521 0.98069 0.0
Co341 Co 0.50573 0.86583 0.80819 0.0
C342 C 0.46665 0.88088 0.87916 0.0
O343 O 0.47043 0.87139 0.94211 0.0
O344 O 0.47914 0.88039 0.8223 0.0
C345 C 0.47795 0.85883 0.13202 0.0
O346 O 0.46817 0.87401 0.0985 0.0
C347 C 0.50196 0.86641 0.63722 0.0
C348 C 0.5345 0.86501 0.60228 0.0
C349 C 0.51473 0.86463 0.57278 0.0
N350 N 0.51372 0.86732 0.70146 0.0
N351 N 0.53314 0.86692 0.67996 0.0
C352 C 0.47906 0.86478 0.63918 0.0
H353 H 0.47379 0.85945 0.69695 0.0
H354 H 0.47349 0.85401 0.59383 0.0
H355 H 0.47233 0.8801 0.6281 0.0
C356 C 0.49865 0.8127 0.9205 0.0
N357 N 0.49943 0.8332 0.912 0.0
N358 N 0.5037 0.8376 0.8391 0.0
C359 C 0.50546 0.81995 0.79861 0.0
C360 C 0.50245 0.80353 0.84882 0.0
C361 C 0.4944 0.80229 0.99614 0.0
H362 H 0.50201 0.8107 0.04423 0.0
H363 H 0.47765 0.80247 0.0071 0.0
H364 H 0.49984 0.78618 0.99539 0.0
O365 O 0.518 0.87313 0.98969 0.0
O366 O 0.52732 0.88052 0.86931 0.0
H367 H 0.52244 0.82563 0.69437 0.0
H368 H 0.50625 0.80326 0.68838 0.0
C369 C 0.50753 0.81897 0.71194 0.0
H370 H 0.49505 0.82795 0.68536 0.0
H371 H 0.54547 0.86698 0.71867 0.0
O372 O 0.48886 0.84696 0.09031 0.0
C373 C 0.52993 0.88211 0.94249 0.0
Co374 Co 0.64583 0.49539 0.5231 0.0
Co375 Co 0.63669 0.50518 0.34886 0.0
C376 C 0.62066 0.46702 0.42539 0.0
O377 O 0.62948 0.47131 0.4896 0.0
O378 O 0.62215 0.47881 0.36662 0.0
C379 C 0.6548 0.47739 0.67668 0.0
O380 O 0.65292 0.45889 0.64738 0.0
C381 C 0.6347 0.50169 0.17657 0.0
C382 C 0.64022 0.53399 0.14454 0.0
C383 C 0.63752 0.5146 0.11332 0.0
N384 N 0.63625 0.51294 0.24202 0.0
N385 N 0.63928 0.53224 0.22224 0.0
C386 C 0.63008 0.47924 0.17533 0.0
H387 H 0.61908 0.47546 0.22199 0.0
H388 H 0.64439 0.47051 0.18594 0.0
H389 H 0.62341 0.47447 0.11879 0.0
C390 C 0.68876 0.49944 0.46795 0.0
N391 N 0.66835 0.49994 0.45654 0.0
N392 N 0.66455 0.50324 0.38254 0.0
C393 C 0.68249 0.50432 0.34391 0.0
C394 C 0.6985 0.5022 0.39678 0.0
C395 C 0.69854 0.4969 0.54604 0.0
H396 H 0.68976 0.50557 0.59037 0.0
H397 H 0.69822 0.48047 0.56226 0.0
H398 H 0.71463 0.50237 0.546 0.0
O399 O 0.62785 0.51939 0.52681 0.0
O400 O 0.62147 0.52733 0.40446 0.0
H401 H 0.68056 0.5207 0.2366 0.0
H402 H 0.69967 0.50068 0.23661 0.0
C403 C 0.68418 0.50502 0.25713 0.0
H404 H 0.67308 0.49418 0.23115 0.0
H405 H 0.64123 0.54417 0.26204 0.0
O406 O 0.65375 0.49291 0.63262 0.0
C407 C 0.61922 0.53073 0.47682 0.0
Co408 Co 0.99722 0.85899 0.53477 0.0
Co409 Co 0.99051 0.86896 0.70975 0.0
C410 C 0.02822 0.88289 0.62536 0.0
O411 O 0.02226 0.87422 0.5629 0.0
O412 O 0.01744 0.88222 0.68718 0.0
C413 C 0.01453 0.84762 0.38381 0.0
O414 O 0.03286 0.84733 0.41531 0.0
C415 C 0.99544 0.8694 0.8815 0.0
C416 C 0.96287 0.87162 0.9158 0.0
C417 C 0.98249 0.86989 0.94567 0.0
N418 N 0.98382 0.87042 0.81696 0.0
N419 N 0.96442 0.87191 0.83807 0.0
C420 C 0.01836 0.86875 0.88111 0.0
H421 H 0.02449 0.87612 0.82818 0.0
H422 H 0.02353 0.85256 0.8814 0.0
H423 H 0.02468 0.87658 0.93321 0.0
C424 C 0.99196 0.81653 0.59129 0.0
N425 N 0.99273 0.83692 0.60266 0.0
N426 N 0.99023 0.84097 0.67703 0.0
C427 C 0.98795 0.82313 0.71555 0.0
C428 C 0.98898 0.80713 0.66253 0.0
C429 C 0.99491 0.80641 0.51405 0.0
H430 H 0.98311 0.81205 0.47288 0.0
H431 H 0.01011 0.81076 0.49043 0.0
H432 H 0.99395 0.78948 0.51838 0.0
O433 O 0.97373 0.87789 0.53413 0.0
O434 O 0.96857 0.88506 0.65804 0.0
H435 H 0.9708 0.83062 0.81756 0.0
H436 H 0.98173 0.80528 0.81908 0.0
C437 C 0.98436 0.82138 0.80118 0.0
H438 H 0.99785 0.82747 0.8328 0.0
H439 H 0.95217 0.87278 0.79918 0.0
O440 O 0.99885 0.8505 0.42595 0.0
C441 C 0.96382 0.8872 0.58689 0.0
Co442 Co 0.64374 0.99994 0.01527 0.0
Co443 Co 0.62843 0.99185 0.18304 0.0
C444 C 0.61619 0.02976 0.09467 0.0
O445 O 0.627 0.02465 0.03614 0.0
O446 O 0.61524 0.01843 0.15491 0.0
C447 C 0.64991 0.01328 0.86102 0.0
O448 O 0.63938 0.02948 0.88225 0.0
C449 C 0.62137 0.99884 0.34863 0.0
C450 C 0.63038 0.96879 0.39616 0.0
C451 C 0.62589 0.98879 0.41774 0.0
N452 N 0.62439 0.98572 0.28955 0.0
N453 N 0.62898 0.96758 0.3184 0.0
C454 C 0.6133 0.02006 0.33771 0.0
H455 H 0.60149 0.01983 0.29155 0.0
H456 H 0.62591 0.03035 0.31923 0.0
H457 H 0.60602 0.02598 0.39149 0.0
C458 C 0.68415 0.99783 0.09151 0.0
N459 N 0.66359 0.99621 0.09285 0.0
N460 N 0.65738 0.99342 0.16475 0.0
C461 C 0.67396 0.99359 0.21187 0.0
C462 C 0.69139 0.99624 0.16696 0.0
C463 C 0.69631 0.00245 0.02 0.0
H464 H 0.69016 0.01649 0.99221 0.0
H465 H 0.7128 0.00461 0.03337 0.0
H466 H 0.69449 0.98967 0.97792 0.0
O467 O 0.62552 0.97609 0.00492 0.0
O468 O 0.61501 0.96927 0.12401 0.0
H469 H 0.6886 0.99425 0.32522 0.0
H470 H 0.66254 0.00333 0.32244 0.0
C471 C 0.67332 0.99185 0.29853 0.0
H472 H 0.66804 0.97631 0.31441 0.0
H473 H 0.63271 0.9548 0.28472 0.0
O474 O 0.65616 0.00086 0.9123 0.0
C475 C 0.61512 0.96527 0.05162 0.0
Co476 Co 0.49833 0.64264 0.51893 0.0
Co477 Co 0.50571 0.62908 0.69208 0.0
C478 C 0.46792 0.61654 0.60289 0.0
O479 O 0.47355 0.62648 0.54291 0.0
O480 O 0.47887 0.61619 0.66442 0.0
C481 C 0.48135 0.65357 0.36694 0.0
O482 O 0.46301 0.65138 0.39712 0.0
C483 C 0.49997 0.62764 0.86423 0.0
C484 C 0.532 0.62241 0.90063 0.0
C485 C 0.51253 0.62604 0.9297 0.0
N486 N 0.51174 0.62557 0.80025 0.0
N487 N 0.53078 0.62216 0.82276 0.0
C488 C 0.47722 0.63044 0.86176 0.0
H489 H 0.47089 0.62452 0.80635 0.0
H490 H 0.47349 0.64697 0.86575 0.0
H491 H 0.46987 0.62239 0.91118 0.0
C492 C 0.50334 0.68389 0.59037 0.0
N493 N 0.5027 0.66329 0.5946 0.0
N494 N 0.50588 0.65762 0.6671 0.0
C495 C 0.50876 0.67451 0.71108 0.0
C496 C 0.50707 0.69164 0.66423 0.0
C497 C 0.49998 0.69574 0.51722 0.0
H498 H 0.48592 0.69011 0.4878 0.0
H499 H 0.49859 0.71241 0.52899 0.0
H500 H 0.51305 0.69302 0.47728 0.0
O501 O 0.52197 0.624 0.514 0.0
O502 O 0.52789 0.61442 0.63515 0.0
H503 H 0.51944 0.68974 0.81572 0.0
H504 H 0.5007 0.66991 0.83007 0.0
C505 C 0.51427 0.67443 0.79557 0.0
H506 H 0.52674 0.66329 0.80605 0.0
H507 H 0.5431 0.62028 0.78476 0.0
O508 O 0.49706 0.65264 0.41053 0.0
C509 C 0.5323 0.61384 0.56314 0.0
Co510 Co 0.8637 0.5052 0.10718 0.0
Co511 Co 0.87551 0.5182 0.27481 0.0
C512 C 0.89163 0.47936 0.20089 0.0
O513 O 0.88117 0.48183 0.13911 0.0
O514 O 0.89095 0.49243 0.25587 0.0
C515 C 0.86555 0.49346 0.95302 0.0
O516 O 0.88337 0.48676 0.97781 0.0
C517 C 0.87812 0.51072 0.43964 0.0
C518 C 0.8793 0.54186 0.49008 0.0
C519 C 0.8788 0.52127 0.50913 0.0
N520 N 0.87823 0.52439 0.38163 0.0
N521 N 0.87916 0.543 0.41188 0.0
C522 C 0.87526 0.48815 0.42847 0.0
H523 H 0.86654 0.48507 0.37429 0.0
H524 H 0.86709 0.48131 0.47869 0.0
H525 H 0.89051 0.48078 0.42364 0.0
C526 C 0.82184 0.5085 0.17232 0.0
N527 N 0.84236 0.50974 0.17875 0.0
N528 N 0.84721 0.51509 0.25017 0.0
C529 C 0.82983 0.51729 0.2918 0.0
C530 C 0.81324 0.51317 0.24386 0.0
C531 C 0.81086 0.50251 0.09938 0.0
H532 H 0.813 0.5147 0.05527 0.0
H533 H 0.81769 0.48823 0.07576 0.0
H534 H 0.79424 0.50017 0.10969 0.0
O535 O 0.88082 0.53001 0.09518 0.0
O536 O 0.88839 0.54059 0.21414 0.0
H537 H 0.83855 0.53787 0.38302 0.0
H538 H 0.81308 0.52751 0.39347 0.0
C539 C 0.82898 0.52402 0.37495 0.0
H540 H 0.83514 0.51167 0.41242 0.0
H541 H 0.8791 0.55646 0.37922 0.0
O542 O 0.85295 0.50068 0.00206 0.0
C543 C 0.88945 0.54274 0.14071 0.0
H544 H 0.96079 0.41436 0.26784 0.0
H545 H 0.9437 0.39454 0.03706 0.0
H546 H 0.91645 0.42008 0.03389 0.0
H547 H 0.89887 0.44946 0.09319 0.0
H548 H 0.91652 0.46957 0.32311 0.0
H549 H 0.94196 0.44236 0.33006 0.0
C550 C 0.95099 0.41544 0.21712 0.0
C551 C 0.95443 0.40257 0.15271 0.0
C552 C 0.93545 0.43029 0.21529 0.0
C553 C 0.94151 0.40426 0.08748 0.0
C554 C 0.92592 0.41891 0.08549 0.0
C555 C 0.90814 0.4478 0.14515 0.0
C556 C 0.90579 0.46167 0.20732 0.0
C557 C 0.92296 0.43223 0.14856 0.0
C558 C 0.91796 0.4592 0.27422 0.0
C559 C 0.93258 0.44364 0.27826 0.0
H560 H 0.10408 0.93859 0.54686 0.0
H561 H 0.09104 0.96166 0.77708 0.0
H562 H 0.06462 0.93561 0.79365 0.0
H563 H 0.04318 0.90823 0.73849 0.0
H564 H 0.05591 0.88581 0.50705 0.0
H565 H 0.08456 0.90951 0.49595 0.0
C566 C 0.09563 0.93783 0.60104 0.0
C567 C 0.09942 0.95226 0.66016 0.0
C568 C 0.08028 0.92296 0.60997 0.0
C569 C 0.08837 0.95088 0.73019 0.0
C570 C 0.07321 0.93598 0.73978 0.0
C571 C 0.05237 0.90832 0.686 0.0
C572 C 0.04719 0.89539 0.62344 0.0
C573 C 0.06872 0.92223 0.67938 0.0
C574 C 0.05937 0.8957 0.55597 0.0
C575 C 0.07578 0.90929 0.54941 0.0
H576 H 0.59279 0.04672 0.20917 0.0
H577 H 0.6108 0.05519 0.96999 0.0
H578 H 0.58717 0.08394 0.95856 0.0
H579 H 0.55939 0.10481 0.0131 0.0
H580 H 0.54097 0.09573 0.25172 0.0
H581 H 0.56691 0.06919 0.26663 0.0
C582 C 0.5917 0.05488 0.15467 0.0
C583 C 0.60343 0.04854 0.09041 0.0
C584 C 0.57792 0.07128 0.14817 0.0
C585 C 0.60192 0.05959 0.02047 0.0
C586 C 0.58835 0.07604 0.01373 0.0
C587 C 0.56119 0.09723 0.0687 0.0
C588 C 0.54805 0.10215 0.13085 0.0
C589 C 0.57597 0.08175 0.07673 0.0
C590 C 0.55072 0.09217 0.20256 0.0
C591 C 0.56554 0.07694 0.21121 0.0
H592 H 0.39334 0.55972 0.51515 0.0
H593 H 0.40402 0.53815 0.74888 0.0
H594 H 0.43007 0.56445 0.7679 0.0
H595 H 0.45194 0.59157 0.71455 0.0
H596 H 0.44159 0.61271 0.48001 0.0
H597 H 0.41323 0.58875 0.46566 0.0
C598 C 0.40116 0.5609 0.57062 0.0
C599 C 0.39684 0.54677 0.63004 0.0
C600 C 0.41634 0.57593 0.58105 0.0
C601 C 0.40711 0.54867 0.70171 0.0
C602 C 0.42207 0.56371 0.71272 0.0
C603 C 0.44335 0.59112 0.66057 0.0
C604 C 0.44912 0.6038 0.59824 0.0
C605 C 0.42715 0.57711 0.65218 0.0
C606 C 0.43766 0.60306 0.52891 0.0
C607 C 0.42142 0.58931 0.52047 0.0
H608 H 0.91133 0.04691 0.24809 0.0
H609 H 0.88562 0.05839 0.47531 0.0
H610 H 0.90995 0.08616 0.49613 0.0
H611 H 0.94046 0.10526 0.4548 0.0
H612 H 0.96633 0.09352 0.22798 0.0
H613 H 0.93998 0.06798 0.20234 0.0
C614 C 0.91085 0.05565 0.30178 0.0
C615 C 0.89679 0.05033 0.36031 0.0
C616 C 0.92507 0.0715 0.31396 0.0
C617 C 0.89636 0.06196 0.42935 0.0
C618 C 0.91033 0.07786 0.44152 0.0
C619 C 0.94024 0.09727 0.39947 0.0
C620 C 0.95557 0.10117 0.34401 0.0
C621 C 0.92508 0.08244 0.38503 0.0
C622 C 0.95488 0.09074 0.27228 0.0
C623 C 0.93979 0.07609 0.2574 0.0
H624 H 0.45561 0.9073 0.76353 0.0
H625 H 0.4361 0.88421 0.98671 0.0
H626 H 0.40827 0.90898 0.98985 0.0
H627 H 0.39142 0.93914 0.93556 0.0
H628 H 0.41102 0.96284 0.71355 0.0
H629 H 0.43665 0.93575 0.70355 0.0
C630 C 0.44512 0.9075 0.81241 0.0
C631 C 0.44819 0.89407 0.87526 0.0
C632 C 0.42921 0.922 0.81446 0.0
C633 C 0.43432 0.89449 0.93785 0.0
C634 C 0.41836 0.90868 0.93983 0.0
C635 C 0.40113 0.9383 0.88451 0.0
C636 C 0.39944 0.95321 0.82598 0.0
C637 C 0.41599 0.92284 0.87944 0.0
C638 C 0.41205 0.95169 0.7599 0.0
C639 C 0.42677 0.93621 0.75414 0.0
H640 H 0.59646 0.45522 0.30428 0.0
H641 H 0.61388 0.43806 0.53745 0.0
H642 H 0.58855 0.41058 0.53586 0.0
H643 H 0.55972 0.39312 0.47216 0.0
H644 H 0.54202 0.41096 0.23996 0.0
H645 H 0.56936 0.43628 0.23732 0.0
C646 C 0.59497 0.44533 0.35445 0.0
C647 C 0.60703 0.44886 0.42102 0.0
C648 C 0.58021 0.4297 0.3536 0.0
C649 C 0.60477 0.43582 0.48546 0.0
C650 C 0.59024 0.4201 0.48473 0.0
C651 C 0.56193 0.4024 0.42063 0.0
C652 C 0.54865 0.40016 0.35659 0.0
C653 C 0.57758 0.41717 0.41971 0.0
C654 C 0.5519 0.4123 0.29024 0.0
C655 C 0.56753 0.42687 0.28868 0.0
H656 H 0.0557 0.60028 0.92876 0.0
H657 H 0.03212 0.5847 0.70154 0.0
H658 H 0.05813 0.5583 0.68739 0.0
H659 H 0.08618 0.53816 0.74225 0.0
H660 H 0.10919 0.55276 0.97122 0.0
H661 H 0.08484 0.58096 0.98158 0.0
C662 C 0.05633 0.59123 0.87585 0.0
C663 C 0.04193 0.59459 0.81627 0.0
C664 C 0.07117 0.57576 0.86848 0.0
C665 C 0.04303 0.58264 0.74821 0.0
C666 C 0.05787 0.56742 0.74012 0.0
C667 C 0.08603 0.54759 0.79423 0.0
C668 C 0.09945 0.54319 0.85602 0.0
C669 C 0.07183 0.56365 0.80029 0.0
C670 C 0.09899 0.55566 0.92284 0.0
C671 C 0.08504 0.57182 0.92891 0.0
H672 H 0.04726 0.3927 0.94984 0.0
H673 H 0.0646 0.40502 0.18781 0.0
H674 H 0.09137 0.42828 0.14334 0.0
H675 H 0.10812 0.44703 0.0379 0.0
H676 H 0.09035 0.43537 0.79996 0.0
H677 H 0.06564 0.4098 0.84371 0.0
C678 C 0.05701 0.40029 0.9921 0.0
C679 C 0.05375 0.3972 0.07219 0.0
C680 C 0.07226 0.41386 0.96621 0.0
C681 C 0.06663 0.40716 0.12588 0.0
C682 C 0.08195 0.42051 0.10051 0.0
C683 C 0.09902 0.43878 0.99536 0.0
C684 C 0.10102 0.4433 0.91569 0.0
C685 C 0.08464 0.42427 0.02092 0.0
C686 C 0.08911 0.43231 0.86164 0.0
C687 C 0.07491 0.4177 0.88662 0.0
H688 H 0.09234 0.0608 0.64312 0.0
H689 H 0.11275 0.03997 0.41766 0.0
H690 H 0.09065 0.06489 0.35441 0.0
H691 H 0.06374 0.09116 0.36218 0.0
H692 H 0.04297 0.11153 0.58777 0.0
H693 H 0.06697 0.08847 0.65099 0.0
C694 C 0.09212 0.06184 0.58021 0.0
C695 C 0.1041 0.04836 0.53556 0.0
C696 C 0.07917 0.07612 0.54374 0.0
C697 C 0.10359 0.05 0.45388 0.0
C698 C 0.09093 0.06428 0.41736 0.0
C699 C 0.06462 0.09071 0.42511 0.0
C700 C 0.0514 0.10297 0.4698 0.0
C701 C 0.07837 0.07719 0.4616 0.0
C702 C 0.0528 0.10216 0.55152 0.0
C703 C 0.06655 0.08895 0.58803 0.0
H704 H 0.44049 0.09184 0.11915 0.0
H705 H 0.45948 0.11358 0.89347 0.0
H706 H 0.43522 0.09059 0.83064 0.0
H707 H 0.41 0.06278 0.83872 0.0
H708 H 0.39131 0.04074 0.06438 0.0
H709 H 0.41388 0.06535 0.12743 0.0
C710 C 0.43919 0.0917 0.0563 0.0
C711 C 0.45195 0.10434 0.01141 0.0
C712 C 0.42529 0.07826 0.02008 0.0
C713 C 0.44999 0.10394 0.92982 0.0
C714 C 0.4361 0.09076 0.89356 0.0
C715 C 0.41073 0.06345 0.90166 0.0
C716 C 0.39905 0.04976 0.94637 0.0
C717 C 0.4239 0.0776 0.93799 0.0
C718 C 0.4002 0.05096 0.02809 0.0
C719 C 0.41313 0.06506 0.06449 0.0
H720 H 0.40518 0.43671 0.61481 0.0
H721 H 0.39157 0.46093 0.38711 0.0
H722 H 0.41507 0.43652 0.32809 0.0
H723 H 0.44125 0.40969 0.3413 0.0
H724 H 0.45501 0.38575 0.5693 0.0
H725 H 0.42969 0.40843 0.62711 0.0
C726 C 0.40722 0.43656 0.55225 0.0
C727 C 0.39671 0.45081 0.50589 0.0
C728 C 0.4209 0.42252 0.51832 0.0
C729 C 0.39952 0.45026 0.42467 0.0
C730 C 0.41299 0.43628 0.39059 0.0
C731 C 0.43854 0.40927 0.40347 0.0
C732 C 0.4502 0.39613 0.45063 0.0
C733 C 0.42402 0.42255 0.4369 0.0
C734 C 0.44642 0.3958 0.53129 0.0
C735 C 0.43192 0.4088 0.5647 0.0
H736 H 0.89343 0.55269 0.98781 0.0
H737 H 0.91382 0.57036 0.21737 0.0
H738 H 0.9371 0.59547 0.16056 0.0
H739 H 0.95344 0.61051 0.04602 0.0
H740 H 0.9335 0.59252 0.8163 0.0
H741 H 0.90809 0.56954 0.8733 0.0
C742 C 0.90283 0.56213 0.02564 0.0
C743 C 0.90198 0.55945 0.10687 0.0
C744 C 0.91631 0.57644 0.99259 0.0
C745 C 0.91418 0.57199 0.15474 0.0
C746 C 0.92754 0.58634 0.12228 0.0
C747 C 0.94343 0.60173 0.00819 0.0
C748 C 0.94555 0.60313 0.92684 0.0
C749 C 0.92901 0.5884 0.04129 0.0
C750 C 0.93228 0.59173 0.87902 0.0
C751 C 0.91778 0.57852 0.91159 0.0
H752 H 0.95068 0.89598 0.44085 0.0
H753 H 0.93961 0.91072 0.68206 0.0
H754 H 0.91394 0.93598 0.6435 0.0
H755 H 0.89593 0.9551 0.54096 0.0
H756 H 0.90778 0.94052 0.30004 0.0
H757 H 0.9318 0.91393 0.33922 0.0
C758 C 0.9426 0.90459 0.48523 0.0
C759 C 0.9472 0.90149 0.56428 0.0
C760 C 0.92802 0.91921 0.46272 0.0
C761 C 0.93646 0.9128 0.62076 0.0
C762 C 0.92178 0.92729 0.59877 0.0
C763 C 0.90363 0.94601 0.49698 0.0
C764 C 0.9001 0.94994 0.41762 0.0
C765 C 0.91763 0.93081 0.51985 0.0
C766 C 0.91026 0.93797 0.36153 0.0
C767 C 0.92402 0.92273 0.38383 0.0
H768 H 0.59017 0.93922 0.13147 0.0
H769 H 0.61032 0.95416 0.89933 0.0
H770 H 0.58653 0.92915 0.84513 0.0
H771 H 0.55853 0.90438 0.86277 0.0
H772 H 0.53844 0.88962 0.09524 0.0
H773 H 0.56367 0.91307 0.14948 0.0
C774 C 0.5895 0.93691 0.06906 0.0
C775 C 0.60195 0.94871 0.01979 0.0
C776 C 0.57567 0.92256 0.03796 0.0
C777 C 0.60089 0.94538 0.93894 0.0
C778 C 0.58723 0.93109 0.90767 0.0
C779 C 0.55975 0.90618 0.92529 0.0
C780 C 0.54643 0.89532 0.97453 0.0
C781 C 0.57431 0.9198 0.95652 0.0
C782 C 0.54837 0.89781 0.05558 0.0
C783 C 0.56282 0.91126 0.08691 0.0
H784 H 0.5958 0.55678 0.3898 0.0
H785 H 0.61137 0.54172 0.62701 0.0
H786 H 0.58657 0.56657 0.67448 0.0
H787 H 0.55911 0.59129 0.64944 0.0
H788 H 0.5434 0.60641 0.41249 0.0
H789 H 0.56959 0.58298 0.36476 0.0
C790 C 0.59391 0.55905 0.45185 0.0
C791 C 0.60538 0.54724 0.50449 0.0
C792 C 0.57947 0.57334 0.47915 0.0
C793 C 0.60272 0.55048 0.58484 0.0
C794 C 0.58849 0.56469 0.61228 0.0
C795 C 0.56147 0.58955 0.58736 0.0
C796 C 0.54915 0.60052 0.53487 0.0
C797 C 0.57655 0.57598 0.56003 0.0
C798 C 0.55257 0.59815 0.45451 0.0
C799 C 0.56756 0.5847 0.42696 0.0
H800 H 0.02591 0.28773 0.29955 0.0
H801 H 0.97424 0.28112 0.14507 0.0
H802 H 0.97144 0.24492 0.1791 0.0
H803 H 0.98375 0.21503 0.25306 0.0
H804 H 0.03318 0.22232 0.41659 0.0
H805 H 0.03645 0.25859 0.38107 0.0
C806 C 0.01385 0.27843 0.27424 0.0
C807 C 0.00042 0.28706 0.21937 0.0
C808 C 0.01182 0.25784 0.29645 0.0
C809 C 0.98507 0.27474 0.18613 0.0
C810 C 0.98331 0.2541 0.20618 0.0
C811 C 0.99504 0.22473 0.2813 0.0
C812 C 0.00819 0.2163 0.33729 0.0
C813 C 0.9966 0.24549 0.26122 0.0
C814 C 0.02285 0.22873 0.37374 0.0
C815 C 0.02477 0.24934 0.35311 0.0
H816 H 0.28411 0.97835 0.75742 0.0
H817 H 0.28452 0.04191 0.82444 0.0
H818 H 0.24904 0.04573 0.77948 0.0
H819 H 0.21817 0.03096 0.71928 0.0
H820 H 0.21727 0.96713 0.65538 0.0
H821 H 0.2529 0.96341 0.69847 0.0
C822 C 0.27621 0.9929 0.76294 0.0
C823 C 0.2865 0.00977 0.79501 0.0
C824 C 0.25597 0.99496 0.73622 0.0
C825 C 0.27655 0.02872 0.8009 0.0
C826 C 0.25641 0.03091 0.77468 0.0
C827 C 0.22583 0.01625 0.7151 0.0
C828 C 0.21523 0.99931 0.6848 0.0
C829 C 0.24603 0.01416 0.74187 0.0
C830 C 0.22527 0.98039 0.67825 0.0
C831 C 0.24553 0.97823 0.70349 0.0
H832 H 0.47682 0.2871 0.21508 0.0
H833 H 0.52727 0.27857 0.37385 0.0
H834 H 0.53023 0.2428 0.33326 0.0
H835 H 0.51877 0.21402 0.25054 0.0
H836 H 0.47105 0.22372 0.08163 0.0
H837 H 0.46724 0.25932 0.12555 0.0
C838 C 0.48866 0.2775 0.24006 0.0
C839 C 0.50173 0.28548 0.29776 0.0
C840 C 0.49095 0.2573 0.21352 0.0
C841 C 0.51671 0.27272 0.33065 0.0
C842 C 0.51859 0.25233 0.30669 0.0
C843 C 0.50775 0.22411 0.22297 0.0
C844 C 0.49523 0.21655 0.16301 0.0
C845 C 0.50588 0.24451 0.24789 0.0
C846 C 0.48092 0.22947 0.12742 0.0
C847 C 0.47866 0.24969 0.15293 0.0
H848 H 0.28371 0.51563 0.72961 0.0
H849 H 0.27734 0.46641 0.56439 0.0
H850 H 0.2415 0.46152 0.60363 0.0
H851 H 0.21255 0.47051 0.6892 0.0
H852 H 0.21808 0.52207 0.84496 0.0
H853 H 0.2539 0.52646 0.80733 0.0
C854 C 0.27429 0.50405 0.70172 0.0
C855 C 0.28287 0.49142 0.64427 0.0
C856 C 0.25377 0.50153 0.72402 0.0
C857 C 0.2708 0.47637 0.60831 0.0
C858 C 0.25044 0.47351 0.63114 0.0
C859 C 0.22153 0.48289 0.71399 0.0
C860 C 0.21271 0.49588 0.77007 0.0
C861 C 0.24183 0.48588 0.68949 0.0
C862 C 0.22462 0.51162 0.80278 0.0
C863 C 0.24503 0.51428 0.78067 0.0
H864 H 0.01575 0.78451 0.74511 0.0
H865 H 0.95918 0.78075 0.61702 0.0
H866 H 0.95611 0.74428 0.64931 0.0
H867 H 0.96939 0.71372 0.7162 0.0
H868 H 0.02744 0.71688 0.83535 0.0
H869 H 0.02997 0.75344 0.8061 0.0
C870 C 0.00284 0.77558 0.72426 0.0
C871 C 0.98767 0.78504 0.67913 0.0
C872 C 0.00139 0.75466 0.74214 0.0
C873 C 0.971 0.77356 0.65176 0.0
C874 C 0.96925 0.75281 0.67039 0.0
C875 C 0.98269 0.72239 0.73489 0.0
C876 C 0.99816 0.71269 0.77811 0.0
C877 C 0.98433 0.74322 0.71572 0.0
C878 C 0.01518 0.72412 0.80304 0.0
C879 C 0.01671 0.74496 0.78583 0.0
H880 H 0.77728 0.01739 0.31529 0.0
H881 H 0.79283 0.9599 0.20709 0.0
H882 H 0.75787 0.95653 0.15701 0.0
H883 H 0.72287 0.97027 0.14268 0.0
H884 H 0.70698 0.02723 0.25383 0.0
H885 H 0.742 0.03065 0.30415 0.0
C886 C 0.77286 0.00406 0.28143 0.0
C887 C 0.78749 0.98896 0.26434 0.0
C888 C 0.75276 0.00226 0.253 0.0
C889 C 0.78176 0.97177 0.22019 0.0
C890 C 0.76182 0.96986 0.19159 0.0
C891 C 0.72723 0.98342 0.17767 0.0
C892 C 0.71264 0.99853 0.1946 0.0
C893 C 0.74724 0.98508 0.20708 0.0
C894 C 0.71816 0.01548 0.2403 0.0
C895 C 0.73809 0.01739 0.2691 0.0
H896 H 0.52934 0.78211 0.76011 0.0
H897 H 0.47321 0.77564 0.8897 0.0
H898 H 0.46996 0.74017 0.84529 0.0
H899 H 0.48223 0.71151 0.76395 0.0
H900 H 0.53604 0.71935 0.62252 0.0
H901 H 0.54067 0.75415 0.6741 0.0
C902 C 0.51632 0.77295 0.77807 0.0
C903 C 0.50149 0.7815 0.82775 0.0
C904 C 0.51394 0.75302 0.7487 0.0
C905 C 0.48495 0.76935 0.85218 0.0
C906 C 0.48294 0.74917 0.82598 0.0
C907 C 0.49483 0.721 0.74417 0.0
C908 C 0.50875 0.71316 0.68951 0.0
C909 C 0.49716 0.74097 0.77325 0.0
C910 C 0.52509 0.72533 0.66405 0.0
C911 C 0.52779 0.74508 0.69396 0.0
H912 H 0.7935 0.48864 0.34524 0.0
H913 H 0.78443 0.53927 0.18904 0.0
H914 H 0.74823 0.54125 0.22656 0.0
H915 H 0.7193 0.52846 0.30399 0.0
H916 H 0.72754 0.47559 0.45042 0.0
H917 H 0.76406 0.47485 0.41857 0.0
C918 C 0.78348 0.50003 0.31958 0.0
C919 C 0.79137 0.51382 0.26476 0.0
C920 C 0.76269 0.50077 0.34037 0.0
C921 C 0.77847 0.52851 0.2312 0.0
C922 C 0.75787 0.52966 0.25282 0.0
C923 C 0.72908 0.51667 0.32836 0.0
C924 C 0.72077 0.50214 0.37966 0.0
C925 C 0.74983 0.51585 0.30727 0.0
C926 C 0.73365 0.48716 0.41183 0.0
C927 C 0.75447 0.4866 0.39302 0.0
H928 H 0.97864 0.39072 0.7951 0.0
H929 H 0.00435 0.3306 0.83276 0.0
H930 H 0.01475 0.32885 0.69667 0.0
H931 H 0.01921 0.34574 0.57025 0.0
H932 H 0.9934 0.40564 0.53261 0.0
H933 H 0.98054 0.40634 0.66636 0.0
C934 C 0.98626 0.37711 0.77334 0.0
C935 C 0.99098 0.36096 0.82402 0.0
C936 C 0.9925 0.37636 0.69568 0.0
C937 C 0.00063 0.3433 0.79486 0.0
C938 C 0.00673 0.34234 0.71728 0.0
C939 C 0.01079 0.3589 0.59182 0.0
C940 C 0.00738 0.37572 0.54315 0.0
C941 C 0.00327 0.35903 0.66792 0.0
C942 C 0.99618 0.39261 0.57009 0.0
C943 C 0.98883 0.39297 0.6461 0.0
H944 H 0.11913 0.98362 0.02538 0.0
H945 H 0.15743 0.03703 0.05206 0.0
H946 H 0.16326 0.02854 0.18846 0.0
H947 H 0.15593 0.00706 0.30213 0.0
H948 H 0.11655 0.95438 0.27682 0.0
H949 H 0.11327 0.96106 0.13764 0.0
C950 C 0.12912 0.99314 0.06049 0.0
C951 C 0.13801 0.01081 0.02818 0.0
C952 C 0.13228 0.98825 0.13927 0.0
C953 C 0.15036 0.02336 0.07548 0.0
C954 C 0.15377 0.01848 0.15346 0.0
C955 C 0.14697 0.9968 0.26591 0.0
C956 C 0.13654 0.98021 0.29989 0.0
C957 C 0.14464 0.00108 0.18626 0.0
C958 C 0.12474 0.96725 0.25218 0.0
C959 C 0.12277 0.97112 0.17259 0.0
H960 H 0.49081 0.15727 0.77791 0.0
H961 H 0.54808 0.12505 0.75118 0.0
H962 H 0.54182 0.12145 0.61172 0.0
H963 H 0.51857 0.12465 0.49961 0.0
H964 H 0.4607 0.15563 0.52789 0.0
H965 H 0.46854 0.1622 0.66449 0.0
C966 C 0.50213 0.14982 0.74137 0.0
C967 C 0.51991 0.14147 0.77503 0.0
C968 C 0.49815 0.14726 0.66155 0.0
C969 C 0.53426 0.13162 0.72683 0.0
C970 C 0.53065 0.12946 0.64707 0.0
C971 C 0.5079 0.13326 0.5351 0.0
C972 C 0.48917 0.13983 0.50323 0.0
C973 C 0.51242 0.13681 0.61405 0.0
C974 C 0.47521 0.15036 0.55099 0.0
C975 C 0.47971 0.15419 0.6291 0.0
H976 H 0.37553 0.51612 0.99111 0.0
H977 H 0.34234 0.45952 0.01995 0.0
H978 H 0.33645 0.46761 0.1568 0.0
H979 H 0.3426 0.48965 0.27015 0.0
H980 H 0.3772 0.54549 0.24308 0.0
H981 H 0.38012 0.53914 0.10341 0.0
C982 C 0.36661 0.50579 0.02685 0.0
C983 C 0.3592 0.48734 0.9951 0.0
C984 C 0.3635 0.51043 0.10594 0.0
C985 C 0.34824 0.47381 0.04303 0.0
C986 C 0.34481 0.47845 0.12125 0.0
C987 C 0.35043 0.50065 0.23351 0.0
C988 C 0.35964 0.51804 0.26708 0.0
C989 C 0.3526 0.49658 0.15362 0.0
C990 C 0.36998 0.53197 0.21877 0.0
C991 C 0.37174 0.52831 0.1389 0.0
H992 H 0.01035 0.13237 0.69827 0.0
H993 H 0.95952 0.17248 0.74866 0.0
H994 H 0.9676 0.17069 0.88786 0.0
H995 H 0.98967 0.15811 0.994 0.0
H996 H 0.03906 0.11631 0.94125 0.0
H997 H 0.03124 0.11889 0.80338 0.0
C998 C 0.00102 0.14082 0.73946 0.0
C999 C 0.98441 0.15267 0.71298 0.0
C1000 C 0.00554 0.13946 0.81888 0.0
C1001 C 0.97238 0.16327 0.76749 0.0
C1002 C 0.97702 0.16225 0.84702 0.0
C1003 C 0.99837 0.14906 0.95309 0.0
C1004 C 0.01469 0.13663 0.97894 0.0
C1005 C 0.99356 0.15033 0.8734 0.0
C1006 C 0.02639 0.12594 0.92351 0.0
C1007 C 0.02191 0.12735 0.84448 0.0
H1008 H 0.34588 0.01191 0.17884 0.0
H1009 H 0.3768 0.95396 0.20526 0.0
H1010 H 0.38051 0.96015 0.34475 0.0
H1011 H 0.37778 0.98346 0.45704 0.0
H1012 H 0.34815 0.04202 0.42904 0.0
H1013 H 0.34144 0.03431 0.29242 0.0
C1014 C 0.35305 0.00044 0.21533 0.0
C1015 C 0.36101 0.98247 0.18156 0.0
C1016 C 0.35569 0.00438 0.29518 0.0
C1017 C 0.37054 0.96792 0.22969 0.0
C1018 C 0.37276 0.9715 0.30948 0.0
C1019 C 0.36943 0.99433 0.4216 0.0
C1020 C 0.36329 0.01321 0.45359 0.0
C1021 C 0.36581 0.98988 0.34261 0.0
C1022 C 0.35309 0.02739 0.40588 0.0
C1023 C 0.34918 0.02297 0.32775 0.0
H1024 H 0.4864 0.36183 0.68299 0.0
H1025 H 0.54987 0.34852 0.73062 0.0
H1026 H 0.54337 0.35173 0.87074 0.0
H1027 H 0.51936 0.35811 0.97886 0.0
H1028 H 0.45672 0.37464 0.92796 0.0
H1029 H 0.46313 0.37003 0.78951 0.0
C1030 C 0.49879 0.35939 0.72405 0.0
C1031 C 0.51852 0.3546 0.6968 0.0
C1032 C 0.4951 0.362 0.8037 0.0
C1033 C 0.53452 0.35203 0.75048 0.0
C1034 C 0.53081 0.35394 0.8304 0.0
C1035 C 0.50728 0.36142 0.93765 0.0
C1036 C 0.48769 0.36728 0.96408 0.0
C1037 C 0.51116 0.35909 0.85765 0.0
C1038 C 0.47197 0.37031 0.90937 0.0
C1039 C 0.4756 0.36765 0.83013 0.0
H1040 H 0.12328 0.53001 0.20271 0.0
H1041 H 0.17251 0.48716 0.16171 0.0
H1042 H 0.17089 0.47606 0.29698 0.0
H1043 H 0.15315 0.47607 0.42251 0.0
H1044 H 0.10313 0.5179 0.46226 0.0
H1045 H 0.10729 0.53186 0.33125 0.0
C1046 C 0.13395 0.51856 0.2237 0.0
C1047 C 0.14785 0.50926 0.17219 0.0
C1048 C 0.13252 0.51182 0.30073 0.0
C1049 C 0.16157 0.49443 0.20025 0.0
C1050 C 0.16057 0.48798 0.27735 0.0
C1051 C 0.14319 0.48825 0.40225 0.0
C1052 C 0.12782 0.49594 0.45113 0.0
C1053 C 0.14565 0.49609 0.32722 0.0
C1054 C 0.11514 0.51188 0.42529 0.0
C1055 C 0.11751 0.51982 0.35059 0.0
H1056 H 0.97773 0.65457 0.41267 0.0
H1057 H 0.00096 0.59405 0.45868 0.0
H1058 H 0.01427 0.5917 0.32585 0.0
H1059 H 0.01785 0.60636 0.19575 0.0
H1060 H 0.99557 0.66746 0.15061 0.0
H1061 H 0.98383 0.67037 0.28483 0.0
C1062 C 0.98565 0.64089 0.39303 0.0
C1063 C 0.98819 0.62437 0.44387 0.0
C1064 C 0.99362 0.63989 0.31751 0.0
C1065 C 0.99879 0.60683 0.41947 0.0
C1066 C 0.00643 0.60554 0.34396 0.0
C1067 C 0.01068 0.62042 0.21553 0.0
C1068 C 0.0074 0.63656 0.16318 0.0
C1069 C 0.0038 0.62192 0.29238 0.0
C1070 C 0.99826 0.65478 0.1898 0.0
C1071 C 0.99138 0.65641 0.26634 0.0
H1072 H 0.84924 0.97888 0.92558 0.0
H1073 H 0.89788 0.02237 0.96484 0.0
H1074 H 0.89416 0.03517 0.83188 0.0
H1075 H 0.87903 0.03184 0.70257 0.0
H1076 H 0.83061 0.98795 0.66244 0.0
H1077 H 0.83178 0.97786 0.79897 0.0
C1078 C 0.85896 0.99117 0.90466 0.0
C1079 C 0.87395 0.99959 0.95358 0.0
C1080 C 0.85662 0.99846 0.8288 0.0
C1081 C 0.88628 0.01573 0.92737 0.0
C1082 C 0.88414 0.02302 0.85172 0.0
C1083 C 0.86851 0.02028 0.7239 0.0
C1084 C 0.85502 0.0104 0.67239 0.0
C1085 C 0.8696 0.01424 0.80166 0.0
C1086 C 0.84123 0.9957 0.70098 0.0
C1087 C 0.84201 0.98979 0.7788 0.0
H1088 H 0.48216 0.87911 0.48881 0.0
H1089 H 0.53559 0.84048 0.47169 0.0
H1090 H 0.52776 0.83337 0.33559 0.0
H1091 H 0.50674 0.83949 0.2197 0.0
H1092 H 0.45349 0.8784 0.23659 0.0
H1093 H 0.45975 0.88328 0.3753 0.0
C1094 C 0.4918 0.86873 0.45601 0.0
C1095 C 0.50929 0.86016 0.4908 0.0
C1096 C 0.48717 0.86462 0.37772 0.0
C1097 C 0.52206 0.84736 0.44627 0.0
C1098 C 0.51754 0.84317 0.36852 0.0
C1099 C 0.49627 0.8487 0.25401 0.0
C1100 C 0.47971 0.8586 0.21776 0.0
C1101 C 0.50023 0.85186 0.33341 0.0
C1102 C 0.46639 0.87064 0.26302 0.0
C1103 C 0.47002 0.87354 0.3423 0.0
H1104 H 0.654 0.48046 0.04374 0.0
H1105 H 0.62505 0.53847 0.99456 0.0
H1106 H 0.62885 0.53235 0.85558 0.0
H1107 H 0.64005 0.51076 0.74889 0.0
H1108 H 0.66686 0.45158 0.79427 0.0
H1109 H 0.66388 0.45775 0.9348 0.0
C1110 C 0.64795 0.49147 0.00272 0.0
C1111 C 0.63879 0.5097 0.02952 0.0
C1112 C 0.64996 0.48773 0.92258 0.0
C1113 C 0.63201 0.52426 0.97539 0.0
C1114 C 0.63418 0.52079 0.89596 0.0
C1115 C 0.64543 0.49922 0.78936 0.0
C1116 C 0.65392 0.48084 0.76143 0.0
C1117 C 0.64318 0.50265 0.86908 0.0
C1118 C 0.66038 0.4659 0.8146 0.0
C1119 C 0.65864 0.46942 0.89473 0.0
H1120 H 0.98525 0.86854 0.30974 0.0
H1121 H 0.03849 0.83098 0.26833 0.0
H1122 H 0.0336 0.83473 0.12728 0.0
H1123 H 0.01327 0.84804 0.01706 0.0
H1124 H 0.96157 0.88757 0.0629 0.0
H1125 H 0.96665 0.8834 0.202 0.0
C1126 C 0.99574 0.86101 0.26997 0.0
C1127 C 0.012 0.8492 0.29899 0.0
C1128 C 0.99313 0.86366 0.19015 0.0
C1129 C 0.02576 0.84 0.24695 0.0
C1130 C 0.02297 0.84219 0.1666 0.0
C1131 C 0.00352 0.85627 0.05724 0.0
C1132 C 0.98726 0.8684 0.02942 0.0
C1133 C 0.00667 0.85401 0.13758 0.0
C1134 C 0.97421 0.87817 0.08275 0.0
C1135 C 0.97708 0.87581 0.16229 0.0
H1136 H 0.64811 0.03577 0.72876 0.0
H1137 H 0.64654 0.97374 0.81486 0.0
H1138 H 0.63735 0.96111 0.68641 0.0
H1139 H 0.62831 0.96772 0.55156 0.0
H1140 H 0.63554 0.02883 0.45981 0.0
H1141 H 0.64304 0.0418 0.58854 0.0
C1142 C 0.64605 0.01949 0.71881 0.0
C1143 C 0.648 0.00575 0.78085 0.0
C1144 C 0.64106 0.01221 0.64439 0.0
C1145 C 0.64538 0.98463 0.76766 0.0
C1146 C 0.63989 0.97739 0.69445 0.0
C1147 C 0.6314 0.98392 0.5595 0.0
C1148 C 0.62993 0.99737 0.49615 0.0
C1149 C 0.63739 0.99108 0.63275 0.0
C1150 C 0.63476 0.0182 0.50757 0.0
C1151 C 0.63972 0.02564 0.58133 0.0
H1152 H 0.48196 0.64911 3e-05 0.0
H1153 H 0.53362 0.60988 0.04996 0.0
H1154 H 0.52932 0.61619 0.18819 0.0
H1155 H 0.51119 0.63261 0.29496 0.0
H1156 H 0.4575 0.66908 0.24941 0.0
H1157 H 0.46209 0.6638 0.1089 0.0
C1158 C 0.49189 0.64137 0.04073 0.0
C1159 C 0.50793 0.62873 0.01381 0.0
C1160 C 0.48913 0.64477 0.12097 0.0
C1161 C 0.52113 0.61966 0.06851 0.0
C1162 C 0.51872 0.62326 0.1478 0.0
C1163 C 0.50059 0.63961 0.25426 0.0
C1164 C 0.48427 0.65156 0.28213 0.0
C1165 C 0.50289 0.63588 0.17456 0.0
C1166 C 0.47032 0.66001 0.229 0.0
C1167 C 0.47291 0.65692 0.14888 0.0
H1168 H 0.85179 0.53083 0.62156 0.0
H1169 H 0.90348 0.49209 0.57012 0.0
H1170 H 0.90255 0.47815 0.70214 0.0
H1171 H 0.88841 0.47885 0.834 0.0
H1172 H 0.83606 0.51703 0.88464 0.0
H1173 H 0.83545 0.52891 0.7503 0.0
C1174 C 0.86278 0.51932 0.63968 0.0
C1175 C 0.87784 0.5126 0.58755 0.0
C1176 C 0.8619 0.51118 0.71488 0.0
C1177 C 0.89183 0.49745 0.61014 0.0
C1178 C 0.89128 0.4895 0.68528 0.0
C1179 C 0.87667 0.48953 0.81536 0.0
C1180 C 0.8625 0.49725 0.86937 0.0
C1181 C 0.87653 0.49645 0.73839 0.0
C1182 C 0.84721 0.51089 0.84421 0.0
C1183 C 0.84694 0.51783 0.76758 0.0
loop_
_geom_bond_atom_site_label_1
_geom_bond_atom_site_label_2
_geom_bond_distance
_geom_bond_site_symmetry_2
_ccdc_geom_bond_type
Co0 O3 1.970 1_455 S
Co0 N17 1.989 . S
Co0 O25 1.967 . S
Co0 O32 1.920 1_554 S
Co1 O4 1.966 1_455 S
Co1 N10 2.022 . S
Co1 N18 1.993 . S
Co1 O26 1.941 . S
C2 O3 1.258 . S
C2 O4 1.263 . S
O3 Co0 1.970 1_655 S
O3 C2 1.258 . S
O4 Co1 1.966 1_655 S
O4 C2 1.263 . S
C5 O6 1.235 . S
C5 O32 1.289 1_655 S
O6 C5 1.235 . S
C7 C9 1.400 . S
C7 N10 1.351 . S
C7 C12 1.501 1_455 S
C8 C9 1.387 . S
C8 N11 1.341 . S
C9 C7 1.400 . S
C9 C8 1.387 . S
N10 Co1 2.022 . S
N10 C7 1.351 . S
N10 N11 1.365 . S
N11 C8 1.341 . S
N11 N10 1.365 . S
N11 H31 0.862 . S
C12 C7 1.501 1_655 S
C12 H13 0.961 . S
C12 H14 0.961 . S
C12 H15 0.960 . S
H13 C12 0.961 . S
H14 C12 0.961 . S
H15 C12 0.960 . S
C16 N17 1.342 . S
C16 C20 1.401 . S
C16 C21 1.499 . S
N17 Co0 1.989 . S
N17 C16 1.342 . S
N17 N18 1.388 . S
N18 Co1 1.993 . S
N18 N17 1.388 . S
N18 C19 1.346 . S
C19 N18 1.346 . S
C19 C20 1.396 . S
C19 C29 1.510 . S
C20 C16 1.401 . S
C20 C19 1.396 . S
C21 C16 1.499 . S
C21 H22 0.959 1_554 S
C21 H23 0.960 . S
C21 H24 0.961 . S
H22 C21 0.959 1_556 S
H23 C21 0.960 . S
H24 C21 0.961 . S
O25 Co0 1.967 . S
O25 C33 1.258 . S
O26 Co1 1.941 . S
O26 C33 1.266 . S
H27 C29 0.959 . S
H28 C29 0.961 . S
C29 C19 1.510 . S
C29 H27 0.959 . S
C29 H28 0.961 . S
C29 H30 0.960 . S
H30 C29 0.960 . S
H31 N11 0.862 . S
O32 Co0 1.920 1_556 S
O32 C5 1.289 1_455 S
C33 O25 1.258 . S
C33 O26 1.266 . S
Co34 O37 1.970 1_545 S
Co34 N51 1.989 . S
Co34 O59 1.967 . S
Co34 O66 1.920 . S
Co35 O38 1.966 1_545 S
Co35 N44 2.022 . S
Co35 N52 1.993 . S
Co35 O60 1.941 . S
C36 O37 1.258 . S
C36 O38 1.263 . S
O37 Co34 1.970 1_565 S
O37 C36 1.258 . S
O38 Co35 1.966 1_565 S
O38 C36 1.263 . S
C39 O40 1.235 . S
C39 O66 1.289 1_565 S
O40 C39 1.235 . S
C41 C43 1.400 . S
C41 N44 1.351 . S
C41 C46 1.501 1_545 S
C42 C43 1.387 . S
C42 N45 1.341 . S
C43 C41 1.400 . S
C43 C42 1.387 . S
N44 Co35 2.022 . S
N44 C41 1.351 . S
N44 N45 1.365 . S
N45 C42 1.341 . S
N45 N44 1.365 . S
N45 H65 0.862 . S
C46 C41 1.501 1_565 S
C46 H47 0.961 . S
C46 H48 0.961 . S
C46 H49 0.960 . S
H47 C46 0.961 . S
H48 C46 0.961 . S
H49 C46 0.960 . S
C50 N51 1.342 . S
C50 C54 1.401 . S
C50 C55 1.499 . S
N51 Co34 1.989 . S
N51 C50 1.342 . S
N51 N52 1.388 . S
N52 Co35 1.993 . S
N52 N51 1.388 . S
N52 C53 1.346 . S
C53 N52 1.346 . S
C53 C54 1.396 . S
C53 C63 1.510 . S
C54 C50 1.401 . S
C54 C53 1.396 . S
C55 C50 1.499 . S
C55 H56 0.959 . S
C55 H57 0.960 . S
C55 H58 0.961 . S
H56 C55 0.959 . S
H57 C55 0.960 . S
H58 C55 0.961 . S
O59 Co34 1.967 . S
O59 C67 1.258 . S
O60 Co35 1.941 . S
O60 C67 1.266 . S
H61 C63 0.959 . S
H62 C63 0.961 . S
C63 C53 1.510 . S
C63 H61 0.959 . S
C63 H62 0.961 . S
C63 H64 0.960 . S
H64 C63 0.960 . S
H65 N45 0.862 . S
O66 Co34 1.920 . S
O66 C39 1.289 1_545 S
C67 O59 1.258 . S
C67 O60 1.266 . S
Co68 O71 1.970 . S
Co68 N85 1.989 . S
Co68 O93 1.967 . S
Co68 O100 1.920 1_554 S
Co69 O72 1.966 . S
Co69 N78 2.022 . S
Co69 N86 1.993 . S
Co69 O94 1.941 . S
C70 O71 1.258 . S
C70 O72 1.263 . S
O71 Co68 1.970 . S
O71 C70 1.258 . S
O72 Co69 1.966 . S
O72 C70 1.263 . S
C73 O74 1.235 . S
C73 O100 1.289 . S
O74 C73 1.235 . S
C75 C77 1.400 . S
C75 N78 1.351 . S
C75 C80 1.501 . S
C76 C77 1.387 . S
C76 N79 1.341 . S
C77 C75 1.400 . S
C77 C76 1.387 . S
N78 Co69 2.022 . S
N78 C75 1.351 . S
N78 N79 1.365 . S
N79 C76 1.341 . S
N79 N78 1.365 . S
N79 H99 0.862 . S
C80 C75 1.501 . S
C80 H81 0.961 . S
C80 H82 0.961 . S
C80 H83 0.960 . S
H81 C80 0.961 . S
H82 C80 0.961 . S
H83 C80 0.960 . S
C84 N85 1.342 . S
C84 C88 1.401 . S
C84 C89 1.499 . S
N85 Co68 1.989 . S
N85 C84 1.342 . S
N85 N86 1.388 . S
N86 Co69 1.993 . S
N86 N85 1.388 . S
N86 C87 1.346 . S
C87 N86 1.346 . S
C87 C88 1.396 . S
C87 C97 1.510 . S
C88 C84 1.401 . S
C88 C87 1.396 . S
C89 C84 1.499 . S
C89 H90 0.959 1_554 S
C89 H91 0.960 . S
C89 H92 0.961 . S
H90 C89 0.959 1_556 S
H91 C89 0.960 . S
H92 C89 0.961 . S
O93 Co68 1.967 . S
O93 C101 1.258 . S
O94 Co69 1.941 . S
O94 C101 1.266 . S
H95 C97 0.959 . S
H96 C97 0.961 . S
C97 C87 1.510 . S
C97 H95 0.959 . S
C97 H96 0.961 . S
C97 H98 0.960 . S
H98 C97 0.960 . S
H99 N79 0.862 . S
O100 Co68 1.920 1_556 S
O100 C73 1.289 . S
C101 O93 1.258 . S
C101 O94 1.266 . S
Co102 O105 1.970 . S
Co102 N119 1.989 . S
Co102 O127 1.967 . S
Co102 O134 1.920 . S
Co103 O106 1.966 . S
Co103 N112 2.022 . S
Co103 N120 1.993 . S
Co103 O128 1.941 . S
C104 O105 1.258 . S
C104 O106 1.263 . S
O105 Co102 1.970 . S
O105 C104 1.258 . S
O106 Co103 1.966 . S
O106 C104 1.263 . S
C107 O108 1.235 . S
C107 O134 1.289 . S
O108 C107 1.235 . S
C109 C111 1.400 . S
C109 N112 1.351 . S
C109 C114 1.501 . S
C110 C111 1.387 . S
C110 N113 1.341 . S
C111 C109 1.400 . S
C111 C110 1.387 . S
N112 Co103 2.022 . S
N112 C109 1.351 . S
N112 N113 1.365 . S
N113 C110 1.341 . S
N113 N112 1.365 . S
N113 H133 0.862 . S
C114 C109 1.501 . S
C114 H115 0.961 . S
C114 H116 0.961 . S
C114 H117 0.960 . S
H115 C114 0.961 . S
H116 C114 0.961 . S
H117 C114 0.960 . S
C118 N119 1.342 . S
C118 C122 1.401 . S
C118 C123 1.499 . S
N119 Co102 1.989 . S
N119 C118 1.342 . S
N119 N120 1.388 . S
N120 Co103 1.993 . S
N120 N119 1.388 . S
N120 C121 1.346 . S
C121 N120 1.346 . S
C121 C122 1.396 . S
C121 C131 1.510 . S
C122 C118 1.401 . S
C122 C121 1.396 . S
C123 C118 1.499 . S
C123 H124 0.959 . S
C123 H125 0.960 . S
C123 H126 0.961 . S
H124 C123 0.959 . S
H125 C123 0.960 . S
H126 C123 0.961 . S
O127 Co102 1.967 . S
O127 C135 1.258 . S
O128 Co103 1.941 . S
O128 C135 1.266 . S
H129 C131 0.959 . S
H130 C131 0.961 . S
C131 C121 1.510 . S
C131 H129 0.959 . S
C131 H130 0.961 . S
C131 H132 0.960 . S
H132 C131 0.960 . S
H133 N113 0.862 . S
O134 Co102 1.920 . S
O134 C107 1.289 . S
C135 O127 1.258 . S
C135 O128 1.266 . S
Co136 O139 1.970 1_455 S
Co136 N153 1.989 . S
Co136 O161 1.967 . S
Co136 O168 1.920 . S
Co137 O140 1.966 1_455 S
Co137 N146 2.022 . S
Co137 N154 1.993 . S
Co137 O162 1.941 . S
C138 O139 1.258 . S
C138 O140 1.263 . S
O139 Co136 1.970 1_655 S
O139 C138 1.258 . S
O140 Co137 1.966 1_655 S
O140 C138 1.263 . S
C141 O142 1.235 . S
C141 O168 1.289 1_655 S
O142 C141 1.235 . S
C143 C145 1.400 . S
C143 N146 1.351 . S
C143 C148 1.501 1_455 S
C144 C145 1.387 . S
C144 N147 1.341 . S
C145 C143 1.400 . S
C145 C144 1.387 . S
N146 Co137 2.022 . S
N146 C143 1.351 . S
N146 N147 1.365 . S
N147 C144 1.341 . S
N147 N146 1.365 . S
N147 H167 0.862 . S
C148 C143 1.501 1_655 S
C148 H149 0.961 . S
C148 H150 0.961 . S
C148 H151 0.960 . S
H149 C148 0.961 . S
H150 C148 0.961 . S
H151 C148 0.960 . S
C152 N153 1.342 . S
C152 C156 1.401 . S
C152 C157 1.499 . S
N153 Co136 1.989 . S
N153 C152 1.342 . S
N153 N154 1.388 . S
N154 Co137 1.993 . S
N154 N153 1.388 . S
N154 C155 1.346 . S
C155 N154 1.346 . S
C155 C156 1.396 . S
C155 C165 1.510 . S
C156 C152 1.401 . S
C156 C155 1.396 . S
C157 C152 1.499 . S
C157 H158 0.959 . S
C157 H159 0.960 . S
C157 H160 0.961 . S
H158 C157 0.959 . S
H159 C157 0.960 . S
H160 C157 0.961 . S
O161 Co136 1.967 . S
O161 C169 1.258 . S
O162 Co137 1.941 . S
O162 C169 1.266 . S
H163 C165 0.959 . S
H164 C165 0.961 . S
C165 C155 1.510 . S
C165 H163 0.959 . S
C165 H164 0.961 . S
C165 H166 0.960 . S
H166 C165 0.960 . S
H167 N147 0.862 . S
O168 Co136 1.920 . S
O168 C141 1.289 1_455 S
C169 O161 1.258 . S
C169 O162 1.266 . S
Co170 O173 1.970 1_545 S
Co170 N187 1.989 . S
Co170 O195 1.967 . S
Co170 O202 1.920 1_556 S
Co171 O174 1.966 1_545 S
Co171 N180 2.022 . S
Co171 N188 1.993 . S
Co171 O196 1.941 . S
C172 O173 1.258 . S
C172 O174 1.263 . S
O173 Co170 1.970 1_565 S
O173 C172 1.258 . S
O174 Co171 1.966 1_565 S
O174 C172 1.263 . S
C175 O176 1.235 . S
C175 O202 1.289 1_565 S
O176 C175 1.235 . S
C177 C179 1.400 . S
C177 N180 1.351 . S
C177 C182 1.501 1_545 S
C178 C179 1.387 . S
C178 N181 1.341 . S
C179 C177 1.400 . S
C179 C178 1.387 . S
N180 Co171 2.022 . S
N180 C177 1.351 . S
N180 N181 1.365 . S
N181 C178 1.341 . S
N181 N180 1.365 . S
N181 H201 0.862 . S
C182 C177 1.501 1_565 S
C182 H183 0.961 . S
C182 H184 0.961 . S
C182 H185 0.960 . S
H183 C182 0.961 . S
H184 C182 0.961 . S
H185 C182 0.960 . S
C186 N187 1.342 . S
C186 C190 1.401 . S
C186 C191 1.499 . S
N187 Co170 1.989 . S
N187 C186 1.342 . S
N187 N188 1.388 . S
N188 Co171 1.993 . S
N188 N187 1.388 . S
N188 C189 1.346 . S
C189 N188 1.346 . S
C189 C190 1.396 . S
C189 C199 1.510 . S
C190 C186 1.401 . S
C190 C189 1.396 . S
C191 C186 1.499 . S
C191 H192 0.959 1_556 S
C191 H193 0.960 . S
C191 H194 0.961 . S
H192 C191 0.959 1_554 S
H193 C191 0.960 . S
H194 C191 0.961 . S
O195 Co170 1.967 . S
O195 C203 1.258 . S
O196 Co171 1.941 . S
O196 C203 1.266 . S
H197 C199 0.959 . S
H198 C199 0.961 . S
C199 C189 1.510 . S
C199 H197 0.959 . S
C199 H198 0.961 . S
C199 H200 0.960 . S
H200 C199 0.960 . S
H201 N181 0.862 . S
O202 Co170 1.920 1_554 S
O202 C175 1.289 1_545 S
C203 O195 1.258 . S
C203 O196 1.266 . S
Co204 O207 1.970 . S
Co204 N221 1.989 . S
Co204 O229 1.967 . S
Co204 O236 1.920 . S
Co205 O208 1.966 . S
Co205 N214 2.022 . S
Co205 N222 1.993 . S
Co205 O230 1.941 . S
C206 O207 1.258 . S
C206 O208 1.263 . S
O207 Co204 1.970 . S
O207 C206 1.258 . S
O208 Co205 1.966 . S
O208 C206 1.263 . S
C209 O210 1.235 . S
C209 O236 1.289 . S
O210 C209 1.235 . S
C211 C213 1.400 . S
C211 N214 1.351 . S
C211 C216 1.501 . S
C212 C213 1.387 . S
C212 N215 1.341 . S
C213 C211 1.400 . S
C213 C212 1.387 . S
N214 Co205 2.022 . S
N214 C211 1.351 . S
N214 N215 1.365 . S
N215 C212 1.341 . S
N215 N214 1.365 . S
N215 H235 0.862 . S
C216 C211 1.501 . S
C216 H217 0.961 . S
C216 H218 0.961 . S
C216 H219 0.960 . S
H217 C216 0.961 . S
H218 C216 0.961 . S
H219 C216 0.960 . S
C220 N221 1.342 . S
C220 C224 1.401 . S
C220 C225 1.499 . S
N221 Co204 1.989 . S
N221 C220 1.342 . S
N221 N222 1.388 . S
N222 Co205 1.993 . S
N222 N221 1.388 . S
N222 C223 1.346 . S
C223 N222 1.346 . S
C223 C224 1.396 . S
C223 C233 1.510 . S
C224 C220 1.401 . S
C224 C223 1.396 . S
C225 C220 1.499 . S
C225 H226 0.959 . S
C225 H227 0.960 . S
C225 H228 0.961 . S
H226 C225 0.959 . S
H227 C225 0.960 . S
H228 C225 0.961 . S
O229 Co204 1.967 . S
O229 C237 1.258 . S
O230 Co205 1.941 . S
O230 C237 1.266 . S
H231 C233 0.959 . S
H232 C233 0.961 . S
C233 C223 1.510 . S
C233 H231 0.959 . S
C233 H232 0.961 . S
C233 H234 0.960 . S
H234 C233 0.960 . S
H235 N215 0.862 . S
O236 Co204 1.920 . S
O236 C209 1.289 . S
C237 O229 1.258 . S
C237 O230 1.266 . S
Co238 O241 1.970 . S
Co238 N255 1.989 . S
Co238 O263 1.967 . S
Co238 O270 1.920 1_556 S
Co239 O242 1.966 . S
Co239 N248 2.022 . S
Co239 N256 1.993 . S
Co239 O264 1.941 . S
C240 O241 1.258 . S
C240 O242 1.263 . S
O241 Co238 1.970 . S
O241 C240 1.258 . S
O242 Co239 1.966 . S
O242 C240 1.263 . S
C243 O244 1.235 . S
C243 O270 1.289 . S
O244 C243 1.235 . S
C245 C247 1.400 . S
C245 N248 1.351 . S
C245 C250 1.501 . S
C246 C247 1.387 . S
C246 N249 1.341 . S
C247 C245 1.400 . S
C247 C246 1.387 . S
N248 Co239 2.022 . S
N248 C245 1.351 . S
N248 N249 1.365 . S
N249 C246 1.341 . S
N249 N248 1.365 . S
N249 H269 0.862 . S
C250 C245 1.501 . S
C250 H251 0.961 . S
C250 H252 0.961 . S
C250 H253 0.960 . S
H251 C250 0.961 . S
H252 C250 0.961 . S
H253 C250 0.960 . S
C254 N255 1.342 . S
C254 C258 1.401 . S
C254 C259 1.499 . S
N255 Co238 1.989 . S
N255 C254 1.342 . S
N255 N256 1.388 . S
N256 Co239 1.993 . S
N256 N255 1.388 . S
N256 C257 1.346 . S
C257 N256 1.346 . S
C257 C258 1.396 . S
C257 C267 1.510 . S
C258 C254 1.401 . S
C258 C257 1.396 . S
C259 C254 1.499 . S
C259 H260 0.959 1_556 S
C259 H261 0.960 . S
C259 H262 0.961 . S
H260 C259 0.959 1_554 S
H261 C259 0.960 . S
H262 C259 0.961 . S
O263 Co238 1.967 . S
O263 C271 1.258 . S
O264 Co239 1.941 . S
O264 C271 1.266 . S
H265 C267 0.959 . S
H266 C267 0.961 . S
C267 C257 1.510 . S
C267 H265 0.959 . S
C267 H266 0.961 . S
C267 H268 0.960 . S
H268 C267 0.960 . S
H269 N249 0.862 . S
O270 Co238 1.920 1_554 S
O270 C243 1.289 . S
C271 O263 1.258 . S
C271 O264 1.266 . S
Co272 O275 1.970 1_655 S
Co272 N289 1.989 . S
Co272 O297 1.967 . S
Co272 O304 1.920 1_556 S
Co273 O276 1.966 1_655 S
Co273 N282 2.022 . S
Co273 N290 1.993 . S
Co273 O298 1.941 . S
C274 O275 1.258 . S
C274 O276 1.263 . S
O275 Co272 1.970 1_455 S
O275 C274 1.258 . S
O276 Co273 1.966 1_455 S
O276 C274 1.263 . S
C277 O278 1.235 . S
C277 O304 1.289 1_455 S
O278 C277 1.235 . S
C279 C281 1.400 . S
C279 N282 1.351 . S
C279 C284 1.501 1_655 S
C280 C281 1.387 . S
C280 N283 1.341 . S
C281 C279 1.400 . S
C281 C280 1.387 . S
N282 Co273 2.022 . S
N282 C279 1.351 . S
N282 N283 1.365 . S
N283 C280 1.341 . S
N283 N282 1.365 . S
N283 H303 0.862 . S
C284 C279 1.501 1_455 S
C284 H285 0.961 . S
C284 H286 0.961 . S
C284 H287 0.960 . S
H285 C284 0.961 . S
H286 C284 0.961 . S
H287 C284 0.960 . S
C288 N289 1.342 . S
C288 C292 1.401 . S
C288 C293 1.499 . S
N289 Co272 1.989 . S
N289 C288 1.342 . S
N289 N290 1.388 . S
N290 Co273 1.993 . S
N290 N289 1.388 . S
N290 C291 1.346 . S
C291 N290 1.346 . S
C291 C292 1.396 . S
C291 C301 1.510 . S
C292 C288 1.401 . S
C292 C291 1.396 . S
C293 C288 1.499 . S
C293 H294 0.959 1_556 S
C293 H295 0.960 . S
C293 H296 0.961 . S
H294 C293 0.959 1_554 S
H295 C293 0.960 . S
H296 C293 0.961 . S
O297 Co272 1.967 . S
O297 C305 1.258 . S
O298 Co273 1.941 . S
O298 C305 1.266 . S
H299 C301 0.959 . S
H300 C301 0.961 . S
C301 C291 1.510 . S
C301 H299 0.959 . S
C301 H300 0.961 . S
C301 H302 0.960 . S
H302 C301 0.960 . S
H303 N283 0.862 . S
O304 Co272 1.920 1_554 S
O304 C277 1.289 1_655 S
C305 O297 1.258 . S
C305 O298 1.266 . S
Co306 O309 1.970 1_565 S
Co306 N323 1.989 . S
Co306 O331 1.967 . S
Co306 O338 1.920 . S
Co307 O310 1.966 1_565 S
Co307 N316 2.022 . S
Co307 N324 1.993 . S
Co307 O332 1.941 . S
C308 O309 1.258 . S
C308 O310 1.263 . S
O309 Co306 1.970 1_545 S
O309 C308 1.258 . S
O310 Co307 1.966 1_545 S
O310 C308 1.263 . S
C311 O312 1.235 . S
C311 O338 1.289 1_545 S
O312 C311 1.235 . S
C313 C315 1.400 . S
C313 N316 1.351 . S
C313 C318 1.501 1_565 S
C314 C315 1.387 . S
C314 N317 1.341 . S
C315 C313 1.400 . S
C315 C314 1.387 . S
N316 Co307 2.022 . S
N316 C313 1.351 . S
N316 N317 1.365 . S
N317 C314 1.341 . S
N317 N316 1.365 . S
N317 H337 0.862 . S
C318 C313 1.501 1_545 S
C318 H319 0.961 . S
C318 H320 0.961 . S
C318 H321 0.960 . S
H319 C318 0.961 . S
H320 C318 0.961 . S
H321 C318 0.960 . S
C322 N323 1.342 . S
C322 C326 1.401 . S
C322 C327 1.499 . S
N323 Co306 1.989 . S
N323 C322 1.342 . S
N323 N324 1.388 . S
N324 Co307 1.993 . S
N324 N323 1.388 . S
N324 C325 1.346 . S
C325 N324 1.346 . S
C325 C326 1.396 . S
C325 C335 1.510 . S
C326 C322 1.401 . S
C326 C325 1.396 . S
C327 C322 1.499 . S
C327 H328 0.959 . S
C327 H329 0.960 . S
C327 H330 0.961 . S
H328 C327 0.959 . S
H329 C327 0.960 . S
H330 C327 0.961 . S
O331 Co306 1.967 . S
O331 C339 1.258 . S
O332 Co307 1.941 . S
O332 C339 1.266 . S
H333 C335 0.959 . S
H334 C335 0.961 . S
C335 C325 1.510 . S
C335 H333 0.959 . S
C335 H334 0.961 . S
C335 H336 0.960 . S
H336 C335 0.960 . S
H337 N317 0.862 . S
O338 Co306 1.920 . S
O338 C311 1.289 1_565 S
C339 O331 1.258 . S
C339 O332 1.266 . S
Co340 O343 1.970 . S
Co340 N357 1.989 . S
Co340 O365 1.967 . S
Co340 O372 1.920 1_556 S
Co341 O344 1.966 . S
Co341 N350 2.022 . S
Co341 N358 1.993 . S
Co341 O366 1.941 . S
C342 O343 1.258 . S
C342 O344 1.263 . S
O343 Co340 1.970 . S
O343 C342 1.258 . S
O344 Co341 1.966 . S
O344 C342 1.263 . S
C345 O346 1.235 . S
C345 O372 1.289 . S
O346 C345 1.235 . S
C347 C349 1.400 . S
C347 N350 1.351 . S
C347 C352 1.501 . S
C348 C349 1.387 . S
C348 N351 1.341 . S
C349 C347 1.400 . S
C349 C348 1.387 . S
N350 Co341 2.022 . S
N350 C347 1.351 . S
N350 N351 1.365 . S
N351 C348 1.341 . S
N351 N350 1.365 . S
N351 H371 0.862 . S
C352 C347 1.501 . S
C352 H353 0.961 . S
C352 H354 0.961 . S
C352 H355 0.960 . S
H353 C352 0.961 . S
H354 C352 0.961 . S
H355 C352 0.960 . S
C356 N357 1.342 . S
C356 C360 1.401 . S
C356 C361 1.499 . S
N357 Co340 1.989 . S
N357 C356 1.342 . S
N357 N358 1.388 . S
N358 Co341 1.993 . S
N358 N357 1.388 . S
N358 C359 1.346 . S
C359 N358 1.346 . S
C359 C360 1.396 . S
C359 C369 1.510 . S
C360 C356 1.401 . S
C360 C359 1.396 . S
C361 C356 1.499 . S
C361 H362 0.959 1_556 S
C361 H363 0.960 . S
C361 H364 0.961 . S
H362 C361 0.959 1_554 S
H363 C361 0.960 . S
H364 C361 0.961 . S
O365 Co340 1.967 . S
O365 C373 1.258 . S
O366 Co341 1.941 . S
O366 C373 1.266 . S
H367 C369 0.959 . S
H368 C369 0.961 . S
C369 C359 1.510 . S
C369 H367 0.959 . S
C369 H368 0.961 . S
C369 H370 0.960 . S
H370 C369 0.960 . S
H371 N351 0.862 . S
O372 Co340 1.920 1_554 S
O372 C345 1.289 . S
C373 O365 1.258 . S
C373 O366 1.266 . S
Co374 O377 1.970 . S
Co374 N391 1.989 . S
Co374 O399 1.967 . S
Co374 O406 1.920 . S
Co375 O378 1.966 . S
Co375 N384 2.022 . S
Co375 N392 1.993 . S
Co375 O400 1.941 . S
C376 O377 1.258 . S
C376 O378 1.263 . S
O377 Co374 1.970 . S
O377 C376 1.258 . S
O378 Co375 1.966 . S
O378 C376 1.263 . S
C379 O380 1.235 . S
C379 O406 1.289 . S
O380 C379 1.235 . S
C381 C383 1.400 . S
C381 N384 1.351 . S
C381 C386 1.501 . S
C382 C383 1.387 . S
C382 N385 1.341 . S
C383 C381 1.400 . S
C383 C382 1.387 . S
N384 Co375 2.022 . S
N384 C381 1.351 . S
N384 N385 1.365 . S
N385 C382 1.341 . S
N385 N384 1.365 . S
N385 H405 0.862 . S
C386 C381 1.501 . S
C386 H387 0.961 . S
C386 H388 0.961 . S
C386 H389 0.960 . S
H387 C386 0.961 . S
H388 C386 0.961 . S
H389 C386 0.960 . S
C390 N391 1.342 . S
C390 C394 1.401 . S
C390 C395 1.499 . S
N391 Co374 1.989 . S
N391 C390 1.342 . S
N391 N392 1.388 . S
N392 Co375 1.993 . S
N392 N391 1.388 . S
N392 C393 1.346 . S
C393 N392 1.346 . S
C393 C394 1.396 . S
C393 C403 1.510 . S
C394 C390 1.401 . S
C394 C393 1.396 . S
C395 C390 1.499 . S
C395 H396 0.959 . S
C395 H397 0.960 . S
C395 H398 0.961 . S
H396 C395 0.959 . S
H397 C395 0.960 . S
H398 C395 0.961 . S
O399 Co374 1.967 . S
O399 C407 1.258 . S
O400 Co375 1.941 . S
O400 C407 1.266 . S
H401 C403 0.959 . S
H402 C403 0.961 . S
C403 C393 1.510 . S
C403 H401 0.959 . S
C403 H402 0.961 . S
C403 H404 0.960 . S
H404 C403 0.960 . S
H405 N385 0.862 . S
O406 Co374 1.920 . S
O406 C379 1.289 . S
C407 O399 1.258 . S
C407 O400 1.266 . S
Co408 O411 1.970 1_655 S
Co408 N425 1.989 . S
Co408 O433 1.967 . S
Co408 O440 1.920 . S
Co409 O412 1.966 1_655 S
Co409 N418 2.022 . S
Co409 N426 1.993 . S
Co409 O434 1.941 . S
C410 O411 1.258 . S
C410 O412 1.263 . S
O411 Co408 1.970 1_455 S
O411 C410 1.258 . S
O412 Co409 1.966 1_455 S
O412 C410 1.263 . S
C413 O414 1.235 . S
C413 O440 1.289 1_455 S
O414 C413 1.235 . S
C415 C417 1.400 . S
C415 N418 1.351 . S
C415 C420 1.501 1_655 S
C416 C417 1.387 . S
C416 N419 1.341 . S
C417 C415 1.400 . S
C417 C416 1.387 . S
N418 Co409 2.022 . S
N418 C415 1.351 . S
N418 N419 1.365 . S
N419 C416 1.341 . S
N419 N418 1.365 . S
N419 H439 0.862 . S
C420 C415 1.501 1_455 S
C420 H421 0.961 . S
C420 H422 0.961 . S
C420 H423 0.960 . S
H421 C420 0.961 . S
H422 C420 0.961 . S
H423 C420 0.960 . S
C424 N425 1.342 . S
C424 C428 1.401 . S
C424 C429 1.499 . S
N425 Co408 1.989 . S
N425 C424 1.342 . S
N425 N426 1.388 . S
N426 Co409 1.993 . S
N426 N425 1.388 . S
N426 C427 1.346 . S
C427 N426 1.346 . S
C427 C428 1.396 . S
C427 C437 1.510 . S
C428 C424 1.401 . S
C428 C427 1.396 . S
C429 C424 1.499 . S
C429 H430 0.959 . S
C429 H431 0.960 . S
C429 H432 0.961 . S
H430 C429 0.959 . S
H431 C429 0.960 . S
H432 C429 0.961 . S
O433 Co408 1.967 . S
O433 C441 1.258 . S
O434 Co409 1.941 . S
O434 C441 1.266 . S
H435 C437 0.959 . S
H436 C437 0.961 . S
C437 C427 1.510 . S
C437 H435 0.959 . S
C437 H436 0.961 . S
C437 H438 0.960 . S
H438 C437 0.960 . S
H439 N419 0.862 . S
O440 Co408 1.920 . S
O440 C413 1.289 1_655 S
C441 O433 1.258 . S
C441 O434 1.266 . S
Co442 O445 1.970 1_565 S
Co442 N459 1.989 . S
Co442 O467 1.967 . S
Co442 O474 1.920 1_554 S
Co443 O446 1.966 1_565 S
Co443 N452 2.022 . S
Co443 N460 1.993 . S
Co443 O468 1.941 . S
C444 O445 1.258 . S
C444 O446 1.263 . S
O445 Co442 1.970 1_545 S
O445 C444 1.258 . S
O446 Co443 1.966 1_545 S
O446 C444 1.263 . S
C447 O448 1.235 . S
C447 O474 1.289 1_545 S
O448 C447 1.235 . S
C449 C451 1.400 . S
C449 N452 1.351 . S
C449 C454 1.501 1_565 S
C450 C451 1.387 . S
C450 N453 1.341 . S
C451 C449 1.400 . S
C451 C450 1.387 . S
N452 Co443 2.022 . S
N452 C449 1.351 . S
N452 N453 1.365 . S
N453 C450 1.341 . S
N453 N452 1.365 . S
N453 H473 0.862 . S
C454 C449 1.501 1_545 S
C454 H455 0.961 . S
C454 H456 0.961 . S
C454 H457 0.960 . S
H455 C454 0.961 . S
H456 C454 0.961 . S
H457 C454 0.960 . S
C458 N459 1.342 . S
C458 C462 1.401 . S
C458 C463 1.499 . S
N459 Co442 1.989 . S
N459 C458 1.342 . S
N459 N460 1.388 . S
N460 Co443 1.993 . S
N460 N459 1.388 . S
N460 C461 1.346 . S
C461 N460 1.346 . S
C461 C462 1.396 . S
C461 C471 1.510 . S
C462 C458 1.401 . S
C462 C461 1.396 . S
C463 C458 1.499 . S
C463 H464 0.959 1_554 S
C463 H465 0.960 . S
C463 H466 0.961 . S
H464 C463 0.959 1_556 S
H465 C463 0.960 . S
H466 C463 0.961 . S
O467 Co442 1.967 . S
O467 C475 1.258 . S
O468 Co443 1.941 . S
O468 C475 1.266 . S
H469 C471 0.959 . S
H470 C471 0.961 . S
C471 C461 1.510 . S
C471 H469 0.959 . S
C471 H470 0.961 . S
C471 H472 0.960 . S
H472 C471 0.960 . S
H473 N453 0.862 . S
O474 Co442 1.920 1_556 S
O474 C447 1.289 1_565 S
C475 O467 1.258 . S
C475 O468 1.266 . S
Co476 O479 1.970 . S
Co476 N493 1.989 . S
Co476 O501 1.967 . S
Co476 O508 1.920 . S
Co477 O480 1.966 . S
Co477 N486 2.022 . S
Co477 N494 1.993 . S
Co477 O502 1.941 . S
C478 O479 1.258 . S
C478 O480 1.263 . S
O479 Co476 1.970 . S
O479 C478 1.258 . S
O480 Co477 1.966 . S
O480 C478 1.263 . S
C481 O482 1.235 . S
C481 O508 1.289 . S
O482 C481 1.235 . S
C483 C485 1.400 . S
C483 N486 1.351 . S
C483 C488 1.501 . S
C484 C485 1.387 . S
C484 N487 1.341 . S
C485 C483 1.400 . S
C485 C484 1.387 . S
N486 Co477 2.022 . S
N486 C483 1.351 . S
N486 N487 1.365 . S
N487 C484 1.341 . S
N487 N486 1.365 . S
N487 H507 0.862 . S
C488 C483 1.501 . S
C488 H489 0.961 . S
C488 H490 0.961 . S
C488 H491 0.960 . S
H489 C488 0.961 . S
H490 C488 0.961 . S
H491 C488 0.960 . S
C492 N493 1.342 . S
C492 C496 1.401 . S
C492 C497 1.499 . S
N493 Co476 1.989 . S
N493 C492 1.342 . S
N493 N494 1.388 . S
N494 Co477 1.993 . S
N494 N493 1.388 . S
N494 C495 1.346 . S
C495 N494 1.346 . S
C495 C496 1.396 . S
C495 C505 1.510 . S
C496 C492 1.401 . S
C496 C495 1.396 . S
C497 C492 1.499 . S
C497 H498 0.959 . S
C497 H499 0.960 . S
C497 H500 0.961 . S
H498 C497 0.959 . S
H499 C497 0.960 . S
H500 C497 0.961 . S
O501 Co476 1.967 . S
O501 C509 1.258 . S
O502 Co477 1.941 . S
O502 C509 1.266 . S
H503 C505 0.959 . S
H504 C505 0.961 . S
C505 C495 1.510 . S
C505 H503 0.959 . S
C505 H504 0.961 . S
C505 H506 0.960 . S
H506 C505 0.960 . S
H507 N487 0.862 . S
O508 Co476 1.920 . S
O508 C481 1.289 . S
C509 O501 1.258 . S
C509 O502 1.266 . S
Co510 O513 1.970 . S
Co510 N527 1.989 . S
Co510 O535 1.967 . S
Co510 O542 1.920 1_554 S
Co511 O514 1.966 . S
Co511 N520 2.022 . S
Co511 N528 1.993 . S
Co511 O536 1.941 . S
C512 O513 1.258 . S
C512 O514 1.263 . S
O513 Co510 1.970 . S
O513 C512 1.258 . S
O514 Co511 1.966 . S
O514 C512 1.263 . S
C515 O516 1.235 . S
C515 O542 1.289 . S
O516 C515 1.235 . S
C517 C519 1.400 . S
C517 N520 1.351 . S
C517 C522 1.501 . S
C518 C519 1.387 . S
C518 N521 1.341 . S
C519 C517 1.400 . S
C519 C518 1.387 . S
N520 Co511 2.022 . S
N520 C517 1.351 . S
N520 N521 1.365 . S
N521 C518 1.341 . S
N521 N520 1.365 . S
N521 H541 0.862 . S
C522 C517 1.501 . S
C522 H523 0.961 . S
C522 H524 0.961 . S
C522 H525 0.960 . S
H523 C522 0.961 . S
H524 C522 0.961 . S
H525 C522 0.960 . S
C526 N527 1.342 . S
C526 C530 1.401 . S
C526 C531 1.499 . S
N527 Co510 1.989 . S
N527 C526 1.342 . S
N527 N528 1.388 . S
N528 Co511 1.993 . S
N528 N527 1.388 . S
N528 C529 1.346 . S
C529 N528 1.346 . S
C529 C530 1.396 . S
C529 C539 1.510 . S
C530 C526 1.401 . S
C530 C529 1.396 . S
C531 C526 1.499 . S
C531 H532 0.959 1_554 S
C531 H533 0.960 . S
C531 H534 0.961 . S
H532 C531 0.959 1_556 S
H533 C531 0.960 . S
H534 C531 0.961 . S
O535 Co510 1.967 . S
O535 C543 1.258 . S
O536 Co511 1.941 . S
O536 C543 1.266 . S
H537 C539 0.959 . S
H538 C539 0.961 . S
C539 C529 1.510 . S
C539 H537 0.959 . S
C539 H538 0.961 . S
C539 H540 0.960 . S
H540 C539 0.960 . S
H541 N521 0.862 . S
O542 Co510 1.920 1_556 S
O542 C515 1.289 . S
C543 O535 1.258 . S
C543 O536 1.266 . S
H544 C550 0.930 . S
H545 C553 0.930 . S
H546 C554 0.930 . S
H547 C555 0.930 . S
H548 C558 0.930 . S
H549 C559 0.930 . S
C550 H544 0.930 . S
C550 C551 1.355 . S
C550 C552 1.415 . S
C551 C550 1.355 . S
C551 C553 1.419 . S
C552 C550 1.415 . S
C552 C557 1.425 . S
C552 C559 1.409 . S
C553 H545 0.930 . S
C553 C551 1.419 . S
C553 C554 1.362 . S
C554 H546 0.930 . S
C554 C553 1.362 . S
C554 C557 1.409 . S
C555 H547 0.930 . S
C555 C556 1.355 . S
C555 C557 1.415 . S
C556 C555 1.355 . S
C556 C558 1.419 . S
C557 C552 1.425 . S
C557 C554 1.409 . S
C557 C555 1.415 . S
C558 H548 0.930 . S
C558 C556 1.419 . S
C558 C559 1.362 . S
C559 H549 0.930 . S
C559 C552 1.409 . S
C559 C558 1.362 . S
H560 C566 0.930 . S
H561 C569 0.930 . S
H562 C570 0.930 . S
H563 C571 0.930 . S
H564 C574 0.930 . S
H565 C575 0.930 . S
C566 H560 0.930 . S
C566 C567 1.355 . S
C566 C568 1.415 . S
C567 C566 1.355 . S
C567 C569 1.419 . S
C568 C566 1.415 . S
C568 C573 1.425 . S
C568 C575 1.409 . S
C569 H561 0.930 . S
C569 C567 1.419 . S
C569 C570 1.362 . S
C570 H562 0.930 . S
C570 C569 1.362 . S
C570 C573 1.409 . S
C571 H563 0.930 . S
C571 C572 1.355 . S
C571 C573 1.415 . S
C572 C571 1.355 . S
C572 C574 1.419 . S
C573 C568 1.425 . S
C573 C570 1.409 . S
C573 C571 1.415 . S
C574 H564 0.930 . S
C574 C572 1.419 . S
C574 C575 1.362 . S
C575 H565 0.930 . S
C575 C568 1.409 . S
C575 C574 1.362 . S
H576 C582 0.930 . S
H577 C585 0.930 . S
H578 C586 0.930 . S
H579 C587 0.930 . S
H580 C590 0.930 . S
H581 C591 0.930 . S
C582 H576 0.930 . S
C582 C583 1.355 . S
C582 C584 1.415 . S
C583 C582 1.355 . S
C583 C585 1.419 . S
C584 C582 1.415 . S
C584 C589 1.425 . S
C584 C591 1.409 . S
C585 H577 0.930 . S
C585 C583 1.419 . S
C585 C586 1.362 . S
C586 H578 0.930 . S
C586 C585 1.362 . S
C586 C589 1.409 . S
C587 H579 0.930 . S
C587 C588 1.355 . S
C587 C589 1.415 . S
C588 C587 1.355 . S
C588 C590 1.419 . S
C589 C584 1.425 . S
C589 C586 1.409 . S
C589 C587 1.415 . S
C590 H580 0.930 . S
C590 C588 1.419 . S
C590 C591 1.362 . S
C591 H581 0.930 . S
C591 C584 1.409 . S
C591 C590 1.362 . S
H592 C598 0.930 . S
H593 C601 0.930 . S
H594 C602 0.930 . S
H595 C603 0.930 . S
H596 C606 0.930 . S
H597 C607 0.930 . S
C598 H592 0.930 . S
C598 C599 1.355 . S
C598 C600 1.415 . S
C599 C598 1.355 . S
C599 C601 1.419 . S
C600 C598 1.415 . S
C600 C605 1.425 . S
C600 C607 1.409 . S
C601 H593 0.930 . S
C601 C599 1.419 . S
C601 C602 1.362 . S
C602 H594 0.930 . S
C602 C601 1.362 . S
C602 C605 1.409 . S
C603 H595 0.930 . S
C603 C604 1.355 . S
C603 C605 1.415 . S
C604 C603 1.355 . S
C604 C606 1.419 . S
C605 C600 1.425 . S
C605 C602 1.409 . S
C605 C603 1.415 . S
C606 H596 0.930 . S
C606 C604 1.419 . S
C606 C607 1.362 . S
C607 H597 0.930 . S
C607 C600 1.409 . S
C607 C606 1.362 . S
H608 C614 0.930 . S
H609 C617 0.930 . S
H610 C618 0.930 . S
H611 C619 0.930 . S
H612 C622 0.930 . S
H613 C623 0.930 . S
C614 H608 0.930 . S
C614 C615 1.355 . S
C614 C616 1.415 . S
C615 C614 1.355 . S
C615 C617 1.419 . S
C616 C614 1.415 . S
C616 C621 1.425 . S
C616 C623 1.409 . S
C617 H609 0.930 . S
C617 C615 1.419 . S
C617 C618 1.362 . S
C618 H610 0.930 . S
C618 C617 1.362 . S
C618 C621 1.409 . S
C619 H611 0.930 . S
C619 C620 1.355 . S
C619 C621 1.415 . S
C620 C619 1.355 . S
C620 C622 1.419 . S
C621 C616 1.425 . S
C621 C618 1.409 . S
C621 C619 1.415 . S
C622 H612 0.930 . S
C622 C620 1.419 . S
C622 C623 1.362 . S
C623 H613 0.930 . S
C623 C616 1.409 . S
C623 C622 1.362 . S
H624 C630 0.930 . S
H625 C633 0.930 . S
H626 C634 0.930 . S
H627 C635 0.930 . S
H628 C638 0.930 . S
H629 C639 0.930 . S
C630 H624 0.930 . S
C630 C631 1.355 . S
C630 C632 1.415 . S
C631 C630 1.355 . S
C631 C633 1.419 . S
C632 C630 1.415 . S
C632 C637 1.425 . S
C632 C639 1.409 . S
C633 H625 0.930 . S
C633 C631 1.419 . S
C633 C634 1.362 . S
C634 H626 0.930 . S
C634 C633 1.362 . S
C634 C637 1.409 . S
C635 H627 0.930 . S
C635 C636 1.355 . S
C635 C637 1.415 . S
C636 C635 1.355 . S
C636 C638 1.419 . S
C637 C632 1.425 . S
C637 C634 1.409 . S
C637 C635 1.415 . S
C638 H628 0.930 . S
C638 C636 1.419 . S
C638 C639 1.362 . S
C639 H629 0.930 . S
C639 C632 1.409 . S
C639 C638 1.362 . S
H640 C646 0.930 . S
H641 C649 0.930 . S
H642 C650 0.930 . S
H643 C651 0.930 . S
H644 C654 0.930 . S
H645 C655 0.930 . S
C646 H640 0.930 . S
C646 C647 1.355 . S
C646 C648 1.415 . S
C647 C646 1.355 . S
C647 C649 1.419 . S
C648 C646 1.415 . S
C648 C653 1.425 . S
C648 C655 1.409 . S
C649 H641 0.930 . S
C649 C647 1.419 . S
C649 C650 1.362 . S
C650 H642 0.930 . S
C650 C649 1.362 . S
C650 C653 1.409 . S
C651 H643 0.930 . S
C651 C652 1.355 . S
C651 C653 1.415 . S
C652 C651 1.355 . S
C652 C654 1.419 . S
C653 C648 1.425 . S
C653 C650 1.409 . S
C653 C651 1.415 . S
C654 H644 0.930 . S
C654 C652 1.419 . S
C654 C655 1.362 . S
C655 H645 0.930 . S
C655 C648 1.409 . S
C655 C654 1.362 . S
H656 C662 0.930 . S
H657 C665 0.930 . S
H658 C666 0.930 . S
H659 C667 0.930 . S
H660 C670 0.930 . S
H661 C671 0.930 . S
C662 H656 0.930 . S
C662 C663 1.355 . S
C662 C664 1.415 . S
C663 C662 1.355 . S
C663 C665 1.419 . S
C664 C662 1.415 . S
C664 C669 1.425 . S
C664 C671 1.409 . S
C665 H657 0.930 . S
C665 C663 1.419 . S
C665 C666 1.362 . S
C666 H658 0.930 . S
C666 C665 1.362 . S
C666 C669 1.409 . S
C667 H659 0.930 . S
C667 C668 1.355 . S
C667 C669 1.415 . S
C668 C667 1.355 . S
C668 C670 1.419 . S
C669 C664 1.425 . S
C669 C666 1.409 . S
C669 C667 1.415 . S
C670 H660 0.930 . S
C670 C668 1.419 . S
C670 C671 1.362 . S
C671 H661 0.930 . S
C671 C664 1.409 . S
C671 C670 1.362 . S
H672 C678 0.930 . S
H673 C681 0.930 . S
H674 C682 0.930 . S
H675 C683 0.930 . S
H676 C686 0.930 . S
H677 C687 0.930 . S
C678 H672 0.930 . S
C678 C679 1.355 . S
C678 C680 1.415 . S
C679 C678 1.355 . S
C679 C681 1.419 . S
C680 C678 1.415 . S
C680 C685 1.425 1_554 S
C680 C687 1.409 1_554 S
C681 H673 0.930 . S
C681 C679 1.419 . S
C681 C682 1.362 . S
C682 H674 0.930 . S
C682 C681 1.362 . S
C682 C685 1.409 1_554 S
C683 H675 0.930 . S
C683 C684 1.355 . S
C683 C685 1.415 . S
C684 C683 1.355 . S
C684 C686 1.419 . S
C685 C680 1.425 1_556 S
C685 C682 1.409 1_556 S
C685 C683 1.415 . S
C686 H676 0.930 . S
C686 C684 1.419 . S
C686 C687 1.362 . S
C687 H677 0.930 . S
C687 C680 1.409 1_556 S
C687 C686 1.362 . S
H688 C694 0.930 . S
H689 C697 0.930 . S
H690 C698 0.930 . S
H691 C699 0.930 . S
H692 C702 0.930 . S
H693 C703 0.930 . S
C694 H688 0.930 . S
C694 C695 1.355 . S
C694 C696 1.415 . S
C695 C694 1.355 . S
C695 C697 1.419 . S
C696 C694 1.415 . S
C696 C701 1.425 . S
C696 C703 1.409 . S
C697 H689 0.930 . S
C697 C695 1.419 . S
C697 C698 1.362 . S
C698 H690 0.930 . S
C698 C697 1.362 . S
C698 C701 1.409 . S
C699 H691 0.930 . S
C699 C700 1.355 . S
C699 C701 1.415 . S
C700 C699 1.355 . S
C700 C702 1.419 . S
C701 C696 1.425 . S
C701 C698 1.409 . S
C701 C699 1.415 . S
C702 H692 0.930 . S
C702 C700 1.419 . S
C702 C703 1.362 . S
C703 H693 0.930 . S
C703 C696 1.409 . S
C703 C702 1.362 . S
H704 C710 0.930 . S
H705 C713 0.930 . S
H706 C714 0.930 . S
H707 C715 0.930 . S
H708 C718 0.930 . S
H709 C719 0.930 . S
C710 H704 0.930 . S
C710 C711 1.355 . S
C710 C712 1.415 . S
C711 C710 1.355 . S
C711 C713 1.419 . S
C712 C710 1.415 . S
C712 C717 1.425 1_554 S
C712 C719 1.409 . S
C713 H705 0.930 . S
C713 C711 1.419 . S
C713 C714 1.362 1_554 S
C714 H706 0.930 . S
C714 C713 1.362 1_556 S
C714 C717 1.409 . S
C715 H707 0.930 . S
C715 C716 1.355 . S
C715 C717 1.415 . S
C716 C715 1.355 . S
C716 C718 1.419 . S
C717 C712 1.425 1_556 S
C717 C714 1.409 . S
C717 C715 1.415 . S
C718 H708 0.930 . S
C718 C716 1.419 . S
C718 C719 1.362 1_556 S
C719 H709 0.930 . S
C719 C712 1.409 . S
C719 C718 1.362 1_554 S
H720 C726 0.930 . S
H721 C729 0.930 . S
H722 C730 0.930 . S
H723 C731 0.930 . S
H724 C734 0.930 . S
H725 C735 0.930 . S
C726 H720 0.930 . S
C726 C727 1.355 . S
C726 C728 1.415 . S
C727 C726 1.355 . S
C727 C729 1.419 . S
C728 C726 1.415 . S
C728 C733 1.425 . S
C728 C735 1.409 . S
C729 H721 0.930 . S
C729 C727 1.419 . S
C729 C730 1.362 . S
C730 H722 0.930 . S
C730 C729 1.362 . S
C730 C733 1.409 . S
C731 H723 0.930 . S
C731 C732 1.355 . S
C731 C733 1.415 . S
C732 C731 1.355 . S
C732 C734 1.419 . S
C733 C728 1.425 . S
C733 C730 1.409 . S
C733 C731 1.415 . S
C734 H724 0.930 . S
C734 C732 1.419 . S
C734 C735 1.362 . S
C735 H725 0.930 . S
C735 C728 1.409 . S
C735 C734 1.362 . S
H736 C742 0.930 . S
H737 C745 0.930 . S
H738 C746 0.930 . S
H739 C747 0.930 . S
H740 C750 0.930 . S
H741 C751 0.930 . S
C742 H736 0.930 . S
C742 C743 1.355 . S
C742 C744 1.415 1_554 S
C743 C742 1.355 . S
C743 C745 1.419 . S
C744 C742 1.415 1_556 S
C744 C749 1.425 1_556 S
C744 C751 1.409 . S
C745 H737 0.930 . S
C745 C743 1.419 . S
C745 C746 1.362 . S
C746 H738 0.930 . S
C746 C745 1.362 . S
C746 C749 1.409 . S
C747 H739 0.930 . S
C747 C748 1.355 . S
C747 C749 1.415 1_556 S
C748 C747 1.355 . S
C748 C750 1.419 . S
C749 C744 1.425 1_554 S
C749 C746 1.409 . S
C749 C747 1.415 1_554 S
C750 H740 0.930 . S
C750 C748 1.419 . S
C750 C751 1.362 . S
C751 H741 0.930 . S
C751 C744 1.409 . S
C751 C750 1.362 . S
H752 C758 0.930 . S
H753 C761 0.930 . S
H754 C762 0.930 . S
H755 C763 0.930 . S
H756 C766 0.930 . S
H757 C767 0.930 . S
C758 H752 0.930 . S
C758 C759 1.355 . S
C758 C760 1.415 . S
C759 C758 1.355 . S
C759 C761 1.419 . S
C760 C758 1.415 . S
C760 C765 1.425 . S
C760 C767 1.409 . S
C761 H753 0.930 . S
C761 C759 1.419 . S
C761 C762 1.362 . S
C762 H754 0.930 . S
C762 C761 1.362 . S
C762 C765 1.409 . S
C763 H755 0.930 . S
C763 C764 1.355 . S
C763 C765 1.415 . S
C764 C763 1.355 . S
C764 C766 1.419 . S
C765 C760 1.425 . S
C765 C762 1.409 . S
C765 C763 1.415 . S
C766 H756 0.930 . S
C766 C764 1.419 . S
C766 C767 1.362 . S
C767 H757 0.930 . S
C767 C760 1.409 . S
C767 C766 1.362 . S
H768 C774 0.930 . S
H769 C777 0.930 1_556 S
H770 C778 0.930 . S
H771 C779 0.930 . S
H772 C782 0.930 1_554 S
H773 C783 0.930 . S
C774 H768 0.930 . S
C774 C775 1.355 . S
C774 C776 1.415 . S
C775 C774 1.355 . S
C775 C777 1.419 . S
C776 C774 1.415 . S
C776 C781 1.425 1_554 S
C776 C783 1.409 . S
C777 H769 0.930 1_554 S
C777 C775 1.419 . S
C777 C778 1.362 1_554 S
C778 H770 0.930 . S
C778 C777 1.362 1_556 S
C778 C781 1.409 . S
C779 H771 0.930 . S
C779 C780 1.355 . S
C779 C781 1.415 . S
C780 C779 1.355 . S
C780 C782 1.419 . S
C781 C776 1.425 1_556 S
C781 C778 1.409 . S
C781 C779 1.415 . S
C782 H772 0.930 1_556 S
C782 C780 1.419 . S
C782 C783 1.362 1_556 S
C783 H773 0.930 . S
C783 C776 1.409 . S
C783 C782 1.362 1_554 S
H784 C790 0.930 . S
H785 C793 0.930 . S
H786 C794 0.930 . S
H787 C795 0.930 . S
H788 C798 0.930 . S
H789 C799 0.930 . S
C790 H784 0.930 . S
C790 C791 1.355 . S
C790 C792 1.415 . S
C791 C790 1.355 . S
C791 C793 1.419 . S
C792 C790 1.415 . S
C792 C797 1.425 . S
C792 C799 1.409 . S
C793 H785 0.930 . S
C793 C791 1.419 . S
C793 C794 1.362 . S
C794 H786 0.930 . S
C794 C793 1.362 . S
C794 C797 1.409 . S
C795 H787 0.930 . S
C795 C796 1.355 . S
C795 C797 1.415 . S
C796 C795 1.355 . S
C796 C798 1.419 . S
C797 C792 1.425 . S
C797 C794 1.409 . S
C797 C795 1.415 . S
C798 H788 0.930 . S
C798 C796 1.419 . S
C798 C799 1.362 . S
C799 H789 0.930 . S
C799 C792 1.409 . S
C799 C798 1.362 . S
H800 C806 0.930 . S
H801 C809 0.930 . S
H802 C810 0.930 . S
H803 C811 0.930 1_655 S
H804 C814 0.930 . S
H805 C815 0.930 . S
C806 H800 0.930 . S
C806 C807 1.355 . S
C806 C808 1.415 . S
C807 C806 1.355 . S
C807 C809 1.419 1_455 S
C808 C806 1.415 . S
C808 C813 1.425 . S
C808 C815 1.409 . S
C809 H801 0.930 . S
C809 C807 1.419 1_655 S
C809 C810 1.362 . S
C810 H802 0.930 . S
C810 C809 1.362 . S
C810 C813 1.409 1_655 S
C811 H803 0.930 1_455 S
C811 C812 1.355 . S
C811 C813 1.415 . S
C812 C811 1.355 . S
C812 C814 1.419 . S
C813 C808 1.425 . S
C813 C810 1.409 1_455 S
C813 C811 1.415 . S
C814 H804 0.930 . S
C814 C812 1.419 . S
C814 C815 1.362 . S
C815 H805 0.930 . S
C815 C808 1.409 . S
C815 C814 1.362 . S
H816 C822 0.930 1_565 S
H817 C825 0.930 . S
H818 C826 0.930 . S
H819 C827 0.930 . S
H820 C830 0.930 . S
H821 C831 0.930 . S
C822 H816 0.930 1_545 S
C822 C823 1.355 . S
C822 C824 1.415 . S
C823 C822 1.355 . S
C823 C825 1.419 . S
C824 C822 1.415 . S
C824 C829 1.425 . S
C824 C831 1.409 1_545 S
C825 H817 0.930 . S
C825 C823 1.419 . S
C825 C826 1.362 . S
C826 H818 0.930 . S
C826 C825 1.362 . S
C826 C829 1.409 . S
C827 H819 0.930 . S
C827 C828 1.355 . S
C827 C829 1.415 . S
C828 C827 1.355 . S
C828 C830 1.419 1_545 S
C829 C824 1.425 . S
C829 C826 1.409 . S
C829 C827 1.415 . S
C830 H820 0.930 . S
C830 C828 1.419 1_565 S
C830 C831 1.362 . S
C831 H821 0.930 . S
C831 C824 1.409 1_565 S
C831 C830 1.362 . S
H832 C838 0.930 . S
H833 C841 0.930 . S
H834 C842 0.930 . S
H835 C843 0.930 . S
H836 C846 0.930 . S
H837 C847 0.930 . S
C838 H832 0.930 . S
C838 C839 1.355 . S
C838 C840 1.415 . S
C839 C838 1.355 . S
C839 C841 1.419 . S
C840 C838 1.415 . S
C840 C845 1.425 . S
C840 C847 1.409 . S
C841 H833 0.930 . S
C841 C839 1.419 . S
C841 C842 1.362 . S
C842 H834 0.930 . S
C842 C841 1.362 . S
C842 C845 1.409 . S
C843 H835 0.930 . S
C843 C844 1.355 . S
C843 C845 1.415 . S
C844 C843 1.355 . S
C844 C846 1.419 . S
C845 C840 1.425 . S
C845 C842 1.409 . S
C845 C843 1.415 . S
C846 H836 0.930 . S
C846 C844 1.419 . S
C846 C847 1.362 . S
C847 H837 0.930 . S
C847 C840 1.409 . S
C847 C846 1.362 . S
H848 C854 0.930 . S
H849 C857 0.930 . S
H850 C858 0.930 . S
H851 C859 0.930 . S
H852 C862 0.930 . S
H853 C863 0.930 . S
C854 H848 0.930 . S
C854 C855 1.355 . S
C854 C856 1.415 . S
C855 C854 1.355 . S
C855 C857 1.419 . S
C856 C854 1.415 . S
C856 C861 1.425 . S
C856 C863 1.409 . S
C857 H849 0.930 . S
C857 C855 1.419 . S
C857 C858 1.362 . S
C858 H850 0.930 . S
C858 C857 1.362 . S
C858 C861 1.409 . S
C859 H851 0.930 . S
C859 C860 1.355 . S
C859 C861 1.415 . S
C860 C859 1.355 . S
C860 C862 1.419 . S
C861 C856 1.425 . S
C861 C858 1.409 . S
C861 C859 1.415 . S
C862 H852 0.930 . S
C862 C860 1.419 . S
C862 C863 1.362 . S
C863 H853 0.930 . S
C863 C856 1.409 . S
C863 C862 1.362 . S
H864 C870 0.907 1_455 S
H865 C873 0.930 . S
H866 C874 0.930 . S
H867 C875 0.930 . S
H868 C878 0.930 1_455 S
H869 C879 0.930 1_455 S
C870 H864 0.907 1_655 S
C870 C871 1.355 . S
C870 C872 1.415 . S
C871 C870 1.355 . S
C871 C873 1.419 . S
C872 C870 1.415 . S
C872 C877 1.425 . S
C872 C879 1.409 . S
C873 H865 0.930 . S
C873 C871 1.419 . S
C873 C874 1.362 . S
C874 H866 0.930 . S
C874 C873 1.362 . S
C874 C877 1.409 . S
C875 H867 0.930 . S
C875 C876 1.355 . S
C875 C877 1.415 . S
C876 C875 1.355 . S
C876 C878 1.419 . S
C877 C872 1.425 . S
C877 C874 1.409 . S
C877 C875 1.415 . S
C878 H868 0.930 1_655 S
C878 C876 1.419 . S
C878 C879 1.362 . S
C879 H869 0.930 1_655 S
C879 C872 1.409 . S
C879 C878 1.362 . S
H880 C886 0.930 . S
H881 C889 0.930 . S
H882 C890 0.930 . S
H883 C891 0.930 . S
H884 C894 0.930 . S
H885 C895 0.930 . S
C886 H880 0.930 . S
C886 C887 1.355 . S
C886 C888 1.415 . S
C887 C886 1.355 . S
C887 C889 1.419 . S
C888 C886 1.415 . S
C888 C893 1.425 . S
C888 C895 1.409 . S
C889 H881 0.930 . S
C889 C887 1.419 . S
C889 C890 1.362 . S
C890 H882 0.930 . S
C890 C889 1.362 . S
C890 C893 1.409 . S
C891 H883 0.930 . S
C891 C892 1.355 . S
C891 C893 1.415 . S
C892 C891 1.355 . S
C892 C894 1.419 . S
C893 C888 1.425 . S
C893 C890 1.409 . S
C893 C891 1.415 . S
C894 H884 0.930 . S
C894 C892 1.419 . S
C894 C895 1.362 . S
C895 H885 0.930 . S
C895 C888 1.409 . S
C895 C894 1.362 . S
H896 C902 0.930 . S
H897 C905 0.930 . S
H898 C906 0.930 . S
H899 C907 0.930 . S
H900 C910 0.930 . S
H901 C911 0.930 . S
C902 H896 0.930 . S
C902 C903 1.355 . S
C902 C904 1.415 . S
C903 C902 1.355 . S
C903 C905 1.419 . S
C904 C902 1.415 . S
C904 C909 1.425 . S
C904 C911 1.409 . S
C905 H897 0.930 . S
C905 C903 1.419 . S
C905 C906 1.362 . S
C906 H898 0.930 . S
C906 C905 1.362 . S
C906 C909 1.409 . S
C907 H899 0.930 . S
C907 C908 1.355 . S
C907 C909 1.415 . S
C908 C907 1.355 . S
C908 C910 1.419 . S
C909 C904 1.425 . S
C909 C906 1.409 . S
C909 C907 1.415 . S
C910 H900 0.930 . S
C910 C908 1.419 . S
C910 C911 1.362 . S
C911 H901 0.930 . S
C911 C904 1.409 . S
C911 C910 1.362 . S
H912 C918 0.930 . S
H913 C921 0.930 . S
H914 C922 0.930 . S
H915 C923 0.930 . S
H916 C926 0.930 . S
H917 C927 0.930 . S
C918 H912 0.930 . S
C918 C919 1.355 . S
C918 C920 1.415 . S
C919 C918 1.355 . S
C919 C921 1.419 . S
C920 C918 1.415 . S
C920 C925 1.425 . S
C920 C927 1.409 . S
C921 H913 0.930 . S
C921 C919 1.419 . S
C921 C922 1.362 . S
C922 H914 0.930 . S
C922 C921 1.362 . S
C922 C925 1.409 . S
C923 H915 0.930 . S
C923 C924 1.355 . S
C923 C925 1.415 . S
C924 C923 1.355 . S
C924 C926 1.419 . S
C925 C920 1.425 . S
C925 C922 1.409 . S
C925 C923 1.415 . S
C926 H916 0.930 . S
C926 C924 1.419 . S
C926 C927 1.362 . S
C927 H917 0.930 . S
C927 C920 1.409 . S
C927 C926 1.362 . S
H928 C934 0.930 . S
H929 C937 0.925 1_455 S
H930 C938 0.930 . S
H931 C939 0.930 . S
H932 C942 0.930 . S
H933 C943 0.930 . S
C934 H928 0.930 . S
C934 C935 1.355 . S
C934 C936 1.415 . S
C935 C934 1.355 . S
C935 C937 1.427 . S
C936 C934 1.415 . S
C936 C941 1.425 1_655 S
C936 C943 1.409 . S
C937 H929 0.925 1_655 S
C937 C935 1.427 . S
C937 C938 1.358 1_655 S
C938 H930 0.930 . S
C938 C937 1.358 1_455 S
C938 C941 1.409 . S
C939 H931 0.930 . S
C939 C940 1.355 . S
C939 C941 1.415 . S
C940 C939 1.355 . S
C940 C942 1.419 1_455 S
C941 C936 1.425 1_455 S
C941 C938 1.409 . S
C941 C939 1.415 . S
C942 H932 0.930 . S
C942 C940 1.419 1_655 S
C942 C943 1.362 . S
C943 H933 0.930 . S
C943 C936 1.409 . S
C943 C942 1.362 . S
H944 C950 0.930 . S
H945 C953 0.930 . S
H946 C954 0.930 . S
H947 C955 0.930 . S
H948 C958 0.930 . S
H949 C959 0.930 . S
C950 H944 0.930 . S
C950 C951 1.355 1_565 S
C950 C952 1.415 . S
C951 C950 1.355 1_545 S
C951 C953 1.419 . S
C952 C950 1.415 . S
C952 C957 1.425 1_565 S
C952 C959 1.409 . S
C953 H945 0.930 . S
C953 C951 1.419 . S
C953 C954 1.362 . S
C954 H946 0.930 . S
C954 C953 1.362 . S
C954 C957 1.409 . S
C955 H947 0.930 . S
C955 C956 1.355 1_545 S
C955 C957 1.415 . S
C956 C955 1.355 1_565 S
C956 C958 1.419 . S
C957 C952 1.425 1_545 S
C957 C954 1.409 . S
C957 C955 1.415 . S
C958 H948 0.930 . S
C958 C956 1.419 . S
C958 C959 1.362 . S
C959 H949 0.930 . S
C959 C952 1.409 . S
C959 C958 1.362 . S
H960 C966 0.930 . S
H961 C969 0.930 . S
H962 C970 0.930 . S
H963 C971 0.930 . S
H964 C974 0.930 . S
H965 C975 0.930 . S
C966 H960 0.930 . S
C966 C967 1.355 . S
C966 C968 1.415 . S
C967 C966 1.355 . S
C967 C969 1.419 . S
C968 C966 1.415 . S
C968 C973 1.425 . S
C968 C975 1.409 . S
C969 H961 0.930 . S
C969 C967 1.419 . S
C969 C970 1.362 . S
C970 H962 0.930 . S
C970 C969 1.362 . S
C970 C973 1.409 . S
C971 H963 0.930 . S
C971 C972 1.355 . S
C971 C973 1.415 . S
C972 C971 1.355 . S
C972 C974 1.419 . S
C973 C968 1.425 . S
C973 C970 1.409 . S
C973 C971 1.415 . S
C974 H964 0.930 . S
C974 C972 1.419 . S
C974 C975 1.362 . S
C975 H965 0.930 . S
C975 C968 1.409 . S
C975 C974 1.362 . S
H976 C982 0.930 . S
H977 C985 0.930 . S
H978 C986 0.930 . S
H979 C987 0.930 . S
H980 C990 0.930 . S
H981 C991 0.930 . S
C982 H976 0.930 . S
C982 C983 1.355 . S
C982 C984 1.415 . S
C983 C982 1.355 . S
C983 C985 1.419 . S
C984 C982 1.415 . S
C984 C989 1.425 . S
C984 C991 1.409 . S
C985 H977 0.930 . S
C985 C983 1.419 . S
C985 C986 1.362 . S
C986 H978 0.930 . S
C986 C985 1.362 . S
C986 C989 1.409 . S
C987 H979 0.930 . S
C987 C988 1.355 . S
C987 C989 1.415 . S
C988 C987 1.355 . S
C988 C990 1.419 . S
C989 C984 1.425 . S
C989 C986 1.409 . S
C989 C987 1.415 . S
C990 H980 0.930 . S
C990 C988 1.419 . S
C990 C991 1.362 . S
C991 H981 0.930 . S
C991 C984 1.409 . S
C991 C990 1.362 . S
H992 C998 0.930 . S
H993 C1001 0.930 . S
H994 C1002 0.930 . S
H995 C1003 0.930 . S
H996 C1006 0.930 . S
H997 C1007 0.930 . S
C998 H992 0.930 . S
C998 C999 1.355 1_455 S
C998 C1000 1.415 . S
C999 C998 1.355 1_655 S
C999 C1001 1.419 . S
C1000 C998 1.415 . S
C1000 C1005 1.425 1_455 S
C1000 C1007 1.409 . S
C1001 H993 0.930 . S
C1001 C999 1.419 . S
C1001 C1002 1.362 . S
C1002 H994 0.930 . S
C1002 C1001 1.362 . S
C1002 C1005 1.409 . S
C1003 H995 0.930 . S
C1003 C1004 1.355 1_655 S
C1003 C1005 1.415 . S
C1004 C1003 1.355 1_455 S
C1004 C1006 1.419 . S
C1005 C1000 1.425 1_655 S
C1005 C1002 1.409 . S
C1005 C1003 1.415 . S
C1006 H996 0.930 . S
C1006 C1004 1.419 . S
C1006 C1007 1.362 . S
C1007 H997 0.930 . S
C1007 C1000 1.409 . S
C1007 C1006 1.362 . S
H1008 C1014 0.930 . S
H1009 C1017 0.930 . S
H1010 C1018 0.930 . S
H1011 C1019 0.930 . S
H1012 C1022 0.930 . S
H1013 C1023 0.930 . S
C1014 H1008 0.930 . S
C1014 C1015 1.355 1_545 S
C1014 C1016 1.415 . S
C1015 C1014 1.355 1_565 S
C1015 C1017 1.419 . S
C1016 C1014 1.415 . S
C1016 C1021 1.425 1_545 S
C1016 C1023 1.409 . S
C1017 H1009 0.930 . S
C1017 C1015 1.419 . S
C1017 C1018 1.362 . S
C1018 H1010 0.930 . S
C1018 C1017 1.362 . S
C1018 C1021 1.409 . S
C1019 H1011 0.930 . S
C1019 C1020 1.355 1_565 S
C1019 C1021 1.415 . S
C1020 C1019 1.355 1_545 S
C1020 C1022 1.419 . S
C1021 C1016 1.425 1_565 S
C1021 C1018 1.409 . S
C1021 C1019 1.415 . S
C1022 H1012 0.930 . S
C1022 C1020 1.419 . S
C1022 C1023 1.362 . S
C1023 H1013 0.930 . S
C1023 C1016 1.409 . S
C1023 C1022 1.362 . S
H1024 C1030 0.930 . S
H1025 C1033 0.930 . S
H1026 C1034 0.930 . S
H1027 C1035 0.930 . S
H1028 C1038 0.930 . S
H1029 C1039 0.930 . S
C1030 H1024 0.930 . S
C1030 C1031 1.355 . S
C1030 C1032 1.415 . S
C1031 C1030 1.355 . S
C1031 C1033 1.419 . S
C1032 C1030 1.415 . S
C1032 C1037 1.425 . S
C1032 C1039 1.409 . S
C1033 H1025 0.930 . S
C1033 C1031 1.419 . S
C1033 C1034 1.362 . S
C1034 H1026 0.930 . S
C1034 C1033 1.362 . S
C1034 C1037 1.409 . S
C1035 H1027 0.930 . S
C1035 C1036 1.355 . S
C1035 C1037 1.415 . S
C1036 C1035 1.355 . S
C1036 C1038 1.419 . S
C1037 C1032 1.425 . S
C1037 C1034 1.409 . S
C1037 C1035 1.415 . S
C1038 H1028 0.930 . S
C1038 C1036 1.419 . S
C1038 C1039 1.362 . S
C1039 H1029 0.930 . S
C1039 C1032 1.409 . S
C1039 C1038 1.362 . S
H1040 C1046 0.930 . S
H1041 C1049 0.930 . S
H1042 C1050 0.930 . S
H1043 C1051 0.930 . S
H1044 C1054 0.930 . S
H1045 C1055 0.930 . S
C1046 H1040 0.930 . S
C1046 C1047 1.355 . S
C1046 C1048 1.415 . S
C1047 C1046 1.355 . S
C1047 C1049 1.419 . S
C1048 C1046 1.415 . S
C1048 C1053 1.425 . S
C1048 C1055 1.409 . S
C1049 H1041 0.930 . S
C1049 C1047 1.419 . S
C1049 C1050 1.362 . S
C1050 H1042 0.930 . S
C1050 C1049 1.362 . S
C1050 C1053 1.409 . S
C1051 H1043 0.930 . S
C1051 C1052 1.355 . S
C1051 C1053 1.415 . S
C1052 C1051 1.355 . S
C1052 C1054 1.419 . S
C1053 C1048 1.425 . S
C1053 C1050 1.409 . S
C1053 C1051 1.415 . S
C1054 H1044 0.930 . S
C1054 C1052 1.419 . S
C1054 C1055 1.362 . S
C1055 H1045 0.930 . S
C1055 C1048 1.409 . S
C1055 C1054 1.362 . S
H1056 C1062 0.930 . S
H1057 C1065 0.930 . S
H1058 C1066 0.930 . S
H1059 C1067 0.930 . S
H1060 C1070 0.930 . S
H1061 C1071 0.930 . S
C1062 H1056 0.930 . S
C1062 C1063 1.355 . S
C1062 C1064 1.415 . S
C1063 C1062 1.355 . S
C1063 C1065 1.419 1_655 S
C1064 C1062 1.415 . S
C1064 C1069 1.425 1_655 S
C1064 C1071 1.409 . S
C1065 H1057 0.930 . S
C1065 C1063 1.419 1_455 S
C1065 C1066 1.362 . S
C1066 H1058 0.930 . S
C1066 C1065 1.362 . S
C1066 C1069 1.409 . S
C1067 H1059 0.930 . S
C1067 C1068 1.355 . S
C1067 C1069 1.415 . S
C1068 C1067 1.355 . S
C1068 C1070 1.419 1_455 S
C1069 C1064 1.425 1_455 S
C1069 C1066 1.409 . S
C1069 C1067 1.415 . S
C1070 H1060 0.930 . S
C1070 C1068 1.419 1_655 S
C1070 C1071 1.362 . S
C1071 H1061 0.930 . S
C1071 C1064 1.409 . S
C1071 C1070 1.362 . S
H1072 C1078 0.930 . S
H1073 C1081 0.930 . S
H1074 C1082 0.930 . S
H1075 C1083 0.930 . S
H1076 C1086 0.930 . S
H1077 C1087 0.930 . S
C1078 H1072 0.930 . S
C1078 C1079 1.355 . S
C1078 C1080 1.415 . S
C1079 C1078 1.355 . S
C1079 C1081 1.419 1_565 S
C1080 C1078 1.415 . S
C1080 C1085 1.425 1_565 S
C1080 C1087 1.409 . S
C1081 H1073 0.930 . S
C1081 C1079 1.419 1_545 S
C1081 C1082 1.362 . S
C1082 H1074 0.930 . S
C1082 C1081 1.362 . S
C1082 C1085 1.409 . S
C1083 H1075 0.930 . S
C1083 C1084 1.355 . S
C1083 C1085 1.415 . S
C1084 C1083 1.355 . S
C1084 C1086 1.419 1_545 S
C1085 C1080 1.425 1_545 S
C1085 C1082 1.409 . S
C1085 C1083 1.415 . S
C1086 H1076 0.930 . S
C1086 C1084 1.419 1_565 S
C1086 C1087 1.362 . S
C1087 H1077 0.930 . S
C1087 C1080 1.409 . S
C1087 C1086 1.362 . S
H1088 C1094 0.930 . S
H1089 C1097 0.930 . S
H1090 C1098 0.930 . S
H1091 C1099 0.930 . S
H1092 C1102 0.930 . S
H1093 C1103 0.930 . S
C1094 H1088 0.930 . S
C1094 C1095 1.355 . S
C1094 C1096 1.415 . S
C1095 C1094 1.355 . S
C1095 C1097 1.419 . S
C1096 C1094 1.415 . S
C1096 C1101 1.425 . S
C1096 C1103 1.409 . S
C1097 H1089 0.930 . S
C1097 C1095 1.419 . S
C1097 C1098 1.362 . S
C1098 H1090 0.930 . S
C1098 C1097 1.362 . S
C1098 C1101 1.409 . S
C1099 H1091 0.930 . S
C1099 C1100 1.355 . S
C1099 C1101 1.415 . S
C1100 C1099 1.355 . S
C1100 C1102 1.419 . S
C1101 C1096 1.425 . S
C1101 C1098 1.409 . S
C1101 C1099 1.415 . S
C1102 H1092 0.930 . S
C1102 C1100 1.419 . S
C1102 C1103 1.362 . S
C1103 H1093 0.930 . S
C1103 C1096 1.409 . S
C1103 C1102 1.362 . S
H1104 C1110 0.930 . S
H1105 C1113 0.930 . S
H1106 C1114 0.930 . S
H1107 C1115 0.930 . S
H1108 C1118 0.930 . S
H1109 C1119 0.930 . S
C1110 H1104 0.930 . S
C1110 C1111 1.355 . S
C1110 C1112 1.415 . S
C1111 C1110 1.355 . S
C1111 C1113 1.419 . S
C1112 C1110 1.415 . S
C1112 C1117 1.425 . S
C1112 C1119 1.409 . S
C1113 H1105 0.930 . S
C1113 C1111 1.419 . S
C1113 C1114 1.362 . S
C1114 H1106 0.930 . S
C1114 C1113 1.362 . S
C1114 C1117 1.409 . S
C1115 H1107 0.930 . S
C1115 C1116 1.355 . S
C1115 C1117 1.415 . S
C1116 C1115 1.355 . S
C1116 C1118 1.419 . S
C1117 C1112 1.425 . S
C1117 C1114 1.409 . S
C1117 C1115 1.415 . S
C1118 H1108 0.930 . S
C1118 C1116 1.419 . S
C1118 C1119 1.362 . S
C1119 H1109 0.930 . S
C1119 C1112 1.409 . S
C1119 C1118 1.362 . S
H1120 C1126 0.930 . S
H1121 C1129 0.930 . S
H1122 C1130 0.930 . S
H1123 C1131 0.928 1_455 S
H1124 C1134 0.930 . S
H1125 C1135 0.930 . S
C1126 H1120 0.930 . S
C1126 C1127 1.355 . S
C1126 C1128 1.420 . S
C1127 C1126 1.355 . S
C1127 C1129 1.419 . S
C1128 C1126 1.420 . S
C1128 C1133 1.428 . S
C1128 C1135 1.404 1_455 S
C1129 H1121 0.930 . S
C1129 C1127 1.419 . S
C1129 C1130 1.362 . S
C1130 H1122 0.930 . S
C1130 C1129 1.362 . S
C1130 C1133 1.409 . S
C1131 H1123 0.928 1_655 S
C1131 C1132 1.359 . S
C1131 C1133 1.412 1_655 S
C1132 C1131 1.359 . S
C1132 C1134 1.419 . S
C1133 C1128 1.428 . S
C1133 C1130 1.409 . S
C1133 C1131 1.412 1_455 S
C1134 H1124 0.930 . S
C1134 C1132 1.419 . S
C1134 C1135 1.362 . S
C1135 H1125 0.930 . S
C1135 C1128 1.404 1_655 S
C1135 C1134 1.362 . S
H1136 C1142 0.930 . S
H1137 C1145 0.930 . S
H1138 C1146 0.930 . S
H1139 C1147 0.930 . S
H1140 C1150 0.930 . S
H1141 C1151 0.930 . S
C1142 H1136 0.930 . S
C1142 C1143 1.355 . S
C1142 C1144 1.415 . S
C1143 C1142 1.355 . S
C1143 C1145 1.419 1_545 S
C1144 C1142 1.415 . S
C1144 C1149 1.425 1_545 S
C1144 C1151 1.409 . S
C1145 H1137 0.930 . S
C1145 C1143 1.419 1_565 S
C1145 C1146 1.362 . S
C1146 H1138 0.930 . S
C1146 C1145 1.362 . S
C1146 C1149 1.409 . S
C1147 H1139 0.930 . S
C1147 C1148 1.355 . S
C1147 C1149 1.415 . S
C1148 C1147 1.355 . S
C1148 C1150 1.419 1_565 S
C1149 C1144 1.425 1_565 S
C1149 C1146 1.409 . S
C1149 C1147 1.415 . S
C1150 H1140 0.930 . S
C1150 C1148 1.419 1_545 S
C1150 C1151 1.362 . S
C1151 H1141 0.930 . S
C1151 C1144 1.409 . S
C1151 C1150 1.362 . S
H1152 C1158 0.930 . S
H1153 C1161 0.930 . S
H1154 C1162 0.930 . S
H1155 C1163 0.930 . S
H1156 C1166 0.930 . S
H1157 C1167 0.930 . S
C1158 H1152 0.930 . S
C1158 C1159 1.355 . S
C1158 C1160 1.415 . S
C1159 C1158 1.355 . S
C1159 C1161 1.419 . S
C1160 C1158 1.415 . S
C1160 C1165 1.425 . S
C1160 C1167 1.409 . S
C1161 H1153 0.930 . S
C1161 C1159 1.419 . S
C1161 C1162 1.362 . S
C1162 H1154 0.930 . S
C1162 C1161 1.362 . S
C1162 C1165 1.409 . S
C1163 H1155 0.930 . S
C1163 C1164 1.355 . S
C1163 C1165 1.415 . S
C1164 C1163 1.355 . S
C1164 C1166 1.419 . S
C1165 C1160 1.425 . S
C1165 C1162 1.409 . S
C1165 C1163 1.415 . S
C1166 H1156 0.930 . S
C1166 C1164 1.419 . S
C1166 C1167 1.362 . S
C1167 H1157 0.930 . S
C1167 C1160 1.409 . S
C1167 C1166 1.362 . S
H1168 C1174 0.930 . S
H1169 C1177 0.930 . S
H1170 C1178 0.930 . S
H1171 C1179 0.930 . S
H1172 C1182 0.930 . S
H1173 C1183 0.930 . S
C1174 H1168 0.930 . S
C1174 C1175 1.355 . S
C1174 C1176 1.415 . S
C1175 C1174 1.355 . S
C1175 C1177 1.419 . S
C1176 C1174 1.415 . S
C1176 C1181 1.425 . S
C1176 C1183 1.409 . S
C1177 H1169 0.930 . S
C1177 C1175 1.419 . S
C1177 C1178 1.362 . S
C1178 H1170 0.930 . S
C1178 C1177 1.362 . S
C1178 C1181 1.409 . S
C1179 H1171 0.930 . S
C1179 C1180 1.355 . S
C1179 C1181 1.415 . S
C1180 C1179 1.355 . S
C1180 C1182 1.419 . S
C1181 C1176 1.425 . S
C1181 C1178 1.409 . S
C1181 C1179 1.415 . S
C1182 H1172 0.930 . S
C1182 C1180 1.419 . S
C1182 C1183 1.362 . S
C1183 H1173 0.930 . S
C1183 C1176 1.409 . S
C1183 C1182 1.362 . S
C551 C2 1.693 . S
C556 C512 1.695 . S
C567 C36 1.696 . S
C572 C410 1.692 . S
C583 C444 1.692 . S
C588 C70 1.696 . S
C599 C104 1.695 . S
C604 C478 1.693 . S
C615 C308 1.691 . S
C620 C138 1.697 . S
C631 C342 1.692 . S
C636 C172 1.696 . S
C647 C376 1.692 . S
C652 C206 1.695 . S
C663 C274 1.697 . S
C668 C240 1.691 . S
C679 C33 1.305 . S
C684 C271 1.279 . S
C695 C67 1.283 . S
C700 C169 1.270 . S
C711 C101 1.281 . S
C716 C203 1.270 . S
C727 C135 1.284 . S
C732 C237 1.270 . S
C743 C543 1.330 . S
C748 C305 1.319 . S
C759 C441 1.281 . S
C764 C339 1.308 . S
C775 C475 1.274 . S
C780 C373 1.273 . S
C791 C407 1.295 . S
C796 C509 1.273 . S
C807 C20 1.571 . S
C812 C156 1.592 . S
C823 C190 1.575 . S
C828 C54 1.551 . S
C839 C224 1.569 . S
C844 C88 1.592 . S
C855 C122 1.591 . S
C860 C258 1.566 . S
C871 C428 1.591 . S
C876 C292 1.579 . S
C887 C326 1.561 . S
C892 C462 1.553 . S
C903 C360 1.579 . S
C908 C496 1.591 . S
C919 C530 1.578 . S
C924 C394 1.552 . S
C935 C5 1.317 . S
C940 C9 1.280 . S
C951 C43 1.246 1_554 S
C956 C39 1.294 . S
C967 C73 1.281 . S
C972 C77 1.285 . S
C983 C111 1.250 1_554 S
C988 C107 1.290 . S
C999 C141 1.310 . S
C1004 C145 1.246 1_556 S
C1015 C175 1.283 . S
C1020 C179 1.270 . S
C1031 C209 1.307 . S
C1036 C213 1.243 1_556 S
C1047 C243 1.297 . S
C1052 C247 1.311 . S
C1063 C281 1.290 . S
C1068 C277 1.315 . S
C1079 C315 1.301 1_556 S
C1084 C311 1.310 . S
C1095 C349 1.282 . S
C1100 C345 1.281 . S
C1111 C383 1.245 1_556 S
C1116 C379 1.309 . S
C1127 C413 1.315 . S
C1132 C417 1.291 1_554 S
C1143 C447 1.284 . S
C1148 C451 1.300 . S
C1159 C485 1.242 1_554 S
C1164 C481 1.303 . S
C1175 C519 1.292 . S
C1180 C515 1.314 . S
