# Generated by pormake.
# Topology fob, (5)-cn, num edge types: 1
# Building blocks:
#     Node 0, Type 0, BuildingBlock: XOMCOT_clean_sbu_1, # of connection points: 5
#     Node 1, Type 0, BuildingBlock: XOMCOT_clean_sbu_1, # of connection points: 5
#     Node 2, Type 0, BuildingBlock: XOMCOT_clean_sbu_1, # of connection points: 5
#     Node 3, Type 0, BuildingBlock: XOMCOT_clean_sbu_1, # of connection points: 5
#     Node 4, Type 0, BuildingBlock: XOMCOT_clean_sbu_1, # of connection points: 5
#     Node 5, Type 0, BuildingBlock: XOMCOT_clean_sbu_1, # of connection points: 5
#     Node 6, Type 0, BuildingBlock: XOMCOT_clean_sbu_1, # of connection points: 5
#     Node 7, Type 0, BuildingBlock: XOMCOT_clean_sbu_1, # of connection points: 5
#     Node 8, Type 0, BuildingBlock: XOMCOT_clean_sbu_1, # of connection points: 5
#     Node 9, Type 0, BuildingBlock: XOMCOT_clean_sbu_1, # of connection points: 5
#     Node 10, Type 0, BuildingBlock: XOMCOT_clean_sbu_1, # of connection points: 5
#     Node 11, Type 0, BuildingBlock: XOMCOT_clean_sbu_1, # of connection points: 5
#     Node 12, Type 0, BuildingBlock: XOMCOT_clean_sbu_1, # of connection points: 5
#     Node 13, Type 0, BuildingBlock: XOMCOT_clean_sbu_1, # of connection points: 5
#     Node 14, Type 0, BuildingBlock: XOMCOT_clean_sbu_1, # of connection points: 5
#     Node 15, Type 0, BuildingBlock: XOMCOT_clean_sbu_1, # of connection points: 5
#     Edge 16, Type (0, 0), BuildingBlock: AJUNOK_clean_linker_0, # of connection points: 2
#     Edge 17, Type (0, 0), BuildingBlock: AJUNOK_clean_linker_0, # of connection points: 2
#     Edge 18, Type (0, 0), BuildingBlock: AJUNOK_clean_linker_0, # of connection points: 2
#     Edge 19, Type (0, 0), BuildingBlock: AJUNOK_clean_linker_0, # of connection points: 2
#     Edge 20, Type (0, 0), BuildingBlock: AJUNOK_clean_linker_0, # of connection points: 2
#     Edge 21, Type (0, 0), BuildingBlock: AJUNOK_clean_linker_0, # of connection points: 2
#     Edge 22, Type (0, 0), BuildingBlock: AJUNOK_clean_linker_0, # of connection points: 2
#     Edge 23, Type (0, 0), BuildingBlock: AJUNOK_clean_linker_0, # of connection points: 2
#     Edge 24, Type (0, 0), BuildingBlock: AJUNOK_clean_linker_0, # of connection points: 2
#     Edge 25, Type (0, 0), BuildingBlock: AJUNOK_clean_linker_0, # of connection points: 2
#     Edge 26, Type (0, 0), BuildingBlock: AJUNOK_clean_linker_0, # of connection points: 2
#     Edge 27, Type (0, 0), BuildingBlock: AJUNOK_clean_linker_0, # of connection points: 2
#     Edge 28, Type (0, 0), BuildingBlock: AJUNOK_clean_linker_0, # of connection points: 2
#     Edge 29, Type (0, 0), BuildingBlock: AJUNOK_clean_linker_0, # of connection points: 2
#     Edge 30, Type (0, 0), BuildingBlock: AJUNOK_clean_linker_0, # of connection points: 2
#     Edge 31, Type (0, 0), BuildingBlock: AJUNOK_clean_linker_0, # of connection points: 2
#     Edge 32, Type (0, 0), BuildingBlock: AJUNOK_clean_linker_0, # of connection points: 2
#     Edge 33, Type (0, 0), BuildingBlock: AJUNOK_clean_linker_0, # of connection points: 2
#     Edge 34, Type (0, 0), BuildingBlock: AJUNOK_clean_linker_0, # of connection points: 2
#     Edge 35, Type (0, 0), BuildingBlock: AJUNOK_clean_linker_0, # of connection points: 2
#     Edge 36, Type (0, 0), BuildingBlock: AJUNOK_clean_linker_0, # of connection points: 2
#     Edge 37, Type (0, 0), BuildingBlock: AJUNOK_clean_linker_0, # of connection points: 2
#     Edge 38, Type (0, 0), BuildingBlock: AJUNOK_clean_linker_0, # of connection points: 2
#     Edge 39, Type (0, 0), BuildingBlock: AJUNOK_clean_linker_0, # of connection points: 2
#     Edge 40, Type (0, 0), BuildingBlock: AJUNOK_clean_linker_0, # of connection points: 2
#     Edge 41, Type (0, 0), BuildingBlock: AJUNOK_clean_linker_0, # of connection points: 2
#     Edge 42, Type (0, 0), BuildingBlock: AJUNOK_clean_linker_0, # of connection points: 2
#     Edge 43, Type (0, 0), BuildingBlock: AJUNOK_clean_linker_0, # of connection points: 2
#     Edge 44, Type (0, 0), BuildingBlock: AJUNOK_clean_linker_0, # of connection points: 2
#     Edge 45, Type (0, 0), BuildingBlock: AJUNOK_clean_linker_0, # of connection points: 2
#     Edge 46, Type (0, 0), BuildingBlock: AJUNOK_clean_linker_0, # of connection points: 2
#     Edge 47, Type (0, 0), BuildingBlock: AJUNOK_clean_linker_0, # of connection points: 2
#     Edge 48, Type (0, 0), BuildingBlock: AJUNOK_clean_linker_0, # of connection points: 2
#     Edge 49, Type (0, 0), BuildingBlock: AJUNOK_clean_linker_0, # of connection points: 2
#     Edge 50, Type (0, 0), BuildingBlock: AJUNOK_clean_linker_0, # of connection points: 2
#     Edge 51, Type (0, 0), BuildingBlock: AJUNOK_clean_linker_0, # of connection points: 2
#     Edge 52, Type (0, 0), BuildingBlock: AJUNOK_clean_linker_0, # of connection points: 2
#     Edge 53, Type (0, 0), BuildingBlock: AJUNOK_clean_linker_0, # of connection points: 2
#     Edge 54, Type (0, 0), BuildingBlock: AJUNOK_clean_linker_0, # of connection points: 2
#     Edge 55, Type (0, 0), BuildingBlock: AJUNOK_clean_linker_0, # of connection points: 2
# Relax obj value: 0.094
# Max RMSD: 0.143
# Mean RMSD: 0.143
data_MOF--net-fob--node1-XOMCOT_clean_sbu_1--edge1-AJUNOK_clean_linker_0
_symmetry_space_group_name_H-M    P1
_symmetry_Int_Tables_number       1
_symmetry_cell_setting            triclinic
loop_
_symmetry_equiv_pos_as_xyz
'x, y, z'
_cell_length_a     19.342749
_cell_length_b     50.72083
_cell_length_c     38.841988
_cell_angle_alpha  99.696878
_cell_angle_beta   90.012226
_cell_angle_gamma 89.973756
loop_
_atom_site_label
_atom_site_type_symbol
_atom_site_fract_x
_atom_site_fract_y
_atom_site_fract_z
_atom_type_partial_charge
C0 C 0.06621 0.21127 0.4899 0.0
C1 C 0.08985 0.23705 0.49178 0.0
N2 N 0.15906 0.23626 0.48806 0.0
N3 N 0.1203 0.19424 0.48511 0.0
C4 C 0.17624 0.21009 0.4843 0.0
H5 H 0.013 0.20533 0.49231 0.0
Co6 Co 0.11577 0.15707 0.48205 0.0
C7 C 0.20993 0.13624 0.42391 0.0
O8 O 0.16414 0.11771 0.41225 0.0
N9 N 0.11208 0.11945 0.47995 0.0
C10 C 0.14938 0.07843 0.48412 0.0
C11 C 0.16875 0.10422 0.48245 0.0
C12 C 0.05862 0.10228 0.48083 0.0
N13 N 0.08007 0.07723 0.48299 0.0
O14 O 0.17447 0.15874 0.52215 0.0
H15 H 0.22128 0.11162 0.48421 0.0
H16 H 0.0049 0.108 0.48177 0.0
O17 O 0.19656 0.15328 0.45127 0.0
C18 C 0.14915 0.16987 0.55124 0.0
O19 O 0.08958 0.18233 0.55147 0.0
N20 N 0.05333 0.156 0.44458 0.0
C21 C 0.94568 0.16088 0.39827 0.0
C22 C 0.0142 0.16514 0.38899 0.0
C23 C 0.06728 0.16335 0.41297 0.0
C24 C 0.98659 0.15269 0.45422 0.0
C25 C 0.9321 0.15454 0.43129 0.0
H26 H 0.11864 0.16927 0.40664 0.0
H27 H 0.97523 0.15007 0.48066 0.0
H28 H 0.22871 0.20264 0.48206 0.0
H29 H 0.05856 0.25501 0.4955 0.0
H30 H 0.18351 0.06195 0.48667 0.0
H31 H 0.02613 0.17113 0.36417 0.0
H32 H 0.87956 0.15184 0.43972 0.0
C33 C 0.06465 0.10329 0.74977 0.0
C34 C 0.08706 0.0773 0.74715 0.0
N35 N 0.15664 0.07741 0.74842 0.0
N36 N 0.11976 0.11981 0.75292 0.0
C37 C 0.17518 0.10343 0.75211 0.0
H38 H 0.01146 0.10976 0.74921 0.0
Co39 Co 0.11488 0.157 0.75611 0.0
C40 C 0.21779 0.17786 0.8101 0.0
O41 O 0.17421 0.19681 0.82321 0.0
N42 N 0.11002 0.19471 0.75814 0.0
C43 C 0.14395 0.23535 0.75036 0.0
C44 C 0.16502 0.20976 0.75215 0.0
C45 C 0.05575 0.21182 0.75926 0.0
N46 N 0.07497 0.23664 0.75454 0.0
O47 O 0.16832 0.15532 0.7143 0.0
H48 H 0.21724 0.2023 0.74786 0.0
H49 H 0.00283 0.20627 0.76248 0.0
O50 O 0.20001 0.16072 0.78359 0.0
C51 C 0.14777 0.14206 0.6854 0.0
O52 O 0.09237 0.12704 0.68474 0.0
N53 N 0.05877 0.15811 0.79601 0.0
C54 C 0.96309 0.15453 0.84892 0.0
C55 C 0.03289 0.14817 0.85294 0.0
C56 C 0.07972 0.14973 0.82601 0.0
C57 C 0.99032 0.16235 0.79071 0.0
C58 C 0.94192 0.16146 0.8171 0.0
H59 H 0.13184 0.14281 0.82877 0.0
H60 H 0.97256 0.16525 0.76525 0.0
H61 H 0.22812 0.11035 0.75341 0.0
H62 H 0.0546 0.05972 0.74494 0.0
H63 H 0.17646 0.25138 0.74447 0.0
H64 H 0.05078 0.14096 0.87609 0.0
H65 H 0.88817 0.16559 0.81229 0.0
C66 C 0.93527 0.8532 0.50281 0.0
C67 C 0.91339 0.82712 0.49985 0.0
N68 N 0.84385 0.82688 0.49824 0.0
N69 N 0.87976 0.86938 0.50341 0.0
C70 C 0.82473 0.85276 0.50069 0.0
H71 H 0.9884 0.85989 0.50385 0.0
Co72 Co 0.8827 0.90629 0.50413 0.0
C73 C 0.78028 0.92855 0.55749 0.0
O74 O 0.8243 0.94775 0.56911 0.0
N75 N 0.88517 0.94357 0.50333 0.0
C76 C 0.8464 0.98312 0.49366 0.0
C77 C 0.82819 0.95766 0.49747 0.0
C78 C 0.93788 0.96098 0.50178 0.0
N79 N 0.91558 0.98514 0.49594 0.0
O80 O 0.82966 0.90245 0.46201 0.0
H81 H 0.77625 0.94969 0.49511 0.0
H82 H 0.99187 0.95591 0.50293 0.0
O83 O 0.79727 0.91054 0.53172 0.0
C84 C 0.85418 0.8891 0.43403 0.0
O85 O 0.91212 0.8758 0.4353 0.0
N86 N 0.93888 0.90946 0.5445 0.0
C87 C 0.03525 0.90548 0.59712 0.0
C88 C 0.96494 0.90061 0.60201 0.0
C89 C 0.91804 0.90186 0.57504 0.0
C90 C 0.00728 0.91384 0.53914 0.0
C91 C 0.05616 0.91241 0.56526 0.0
H92 H 0.8659 0.89519 0.57828 0.0
H93 H 0.02491 0.91654 0.5136 0.0
H94 H 0.77178 0.85938 0.4993 0.0
H95 H 0.94613 0.80972 0.49908 0.0
H96 H 0.81125 0.99881 0.48926 0.0
H97 H 0.94647 0.89502 0.62609 0.0
H98 H 0.1103 0.91536 0.55988 0.0
C99 C 0.94289 0.9533 0.2347 0.0
C100 C 0.9196 0.97916 0.23695 0.0
N101 N 0.85005 0.97866 0.23562 0.0
N102 N 0.88829 0.93652 0.23179 0.0
C103 C 0.83238 0.95262 0.23284 0.0
H104 H 0.99629 0.9472 0.23579 0.0
Co105 Co 0.8921 0.89933 0.22878 0.0
C106 C 0.79724 0.87893 0.17061 0.0
O107 O 0.84227 0.86013 0.15888 0.0
N108 N 0.89511 0.86171 0.22682 0.0
C109 C 0.85748 0.82081 0.2312 0.0
C110 C 0.83829 0.84654 0.22906 0.0
C111 C 0.94842 0.8446 0.22851 0.0
N112 N 0.92687 0.81964 0.23118 0.0
O113 O 0.83319 0.90121 0.26878 0.0
H114 H 0.78578 0.85398 0.23045 0.0
H115 H 0.00211 0.85018 0.22849 0.0
O116 O 0.81133 0.89586 0.19799 0.0
C117 C 0.85691 0.91301 0.29791 0.0
O118 O 0.91582 0.92593 0.29848 0.0
N119 N 0.95464 0.89804 0.19133 0.0
C120 C 0.06262 0.90415 0.14575 0.0
C121 C 0.99406 0.90811 0.13626 0.0
C122 C 0.94077 0.90568 0.15988 0.0
C123 C 0.02136 0.89476 0.20105 0.0
C124 C 0.07603 0.89723 0.17848 0.0
H125 H 0.88939 0.91156 0.15352 0.0
H126 H 0.03262 0.89197 0.22744 0.0
H127 H 0.77968 0.94544 0.23183 0.0
H128 H 0.95132 0.99698 0.24041 0.0
H129 H 0.82308 0.80451 0.23419 0.0
H130 H 0.98218 0.91449 0.11167 0.0
H131 H 0.12856 0.89468 0.18704 0.0
C132 C 0.06084 0.70404 -0.00517 0.0
C133 C 0.0863 0.72974 -0.00019 0.0
N134 N 0.15574 0.7285 -0.00248 0.0
N135 N 0.11391 0.6866 0.98904 0.0
C136 C 0.17111 0.70211 0.99113 0.0
H137 H 0.00693 0.69841 -0.0052 0.0
Co138 Co 0.10624 0.64928 0.97784 0.0
C139 C 0.24391 0.63648 0.94737 0.0
O140 O 0.25437 0.61905 0.96831 0.0
N141 N 0.09775 0.61203 0.96621 0.0
C142 C 0.09208 0.57104 0.93535 0.0
C143 C 0.10975 0.59715 0.93459 0.0
C144 C 0.07197 0.59454 0.98566 0.0
N145 N 0.06876 0.56925 0.96759 0.0
O146 O 0.16308 0.64507 0.01701 0.0
H147 H 0.12754 0.60499 0.91193 0.0
H148 H 0.05426 0.6004 0.01228 0.0
O149 O 0.18656 0.64892 0.94828 0.0
C150 C 0.13976 0.65465 0.04715 0.0
O151 O 0.08072 0.66762 0.0498 0.0
N152 N 0.04696 0.65321 0.94133 0.0
C153 C 0.94341 0.66096 0.89449 0.0
C154 C 0.01259 0.66626 0.88731 0.0
C155 C 0.06394 0.66243 0.91136 0.0
C156 C 0.98015 0.64763 0.94837 0.0
C157 C 0.92744 0.6514 0.92531 0.0
H158 H 0.11664 0.66753 0.90621 0.0
H159 H 0.96775 0.64074 0.97252 0.0
H160 H 0.22291 0.6942 0.9869 0.0
H161 H 0.05605 0.74795 0.00454 0.0
H162 H 0.09277 0.55495 0.91319 0.0
H163 H 0.02644 0.67406 0.86395 0.0
H164 H 0.87452 0.64713 0.93165 0.0
C165 C 0.07214 0.59377 0.2506 0.0
C166 C 0.09655 0.56823 0.25014 0.0
N167 N 0.16612 0.56912 0.2509 0.0
N168 N 0.12612 0.61072 0.25155 0.0
C169 C 0.18271 0.59508 0.25162 0.0
H170 H 0.01846 0.59948 0.24941 0.0
Co171 Co 0.1217 0.64732 0.25 0.0
C172 C 0.21908 0.67151 0.30508 0.0
O173 O 0.17497 0.69103 0.31507 0.0
N174 N 0.11844 0.68437 0.2476 0.0
C175 C 0.157 0.72426 0.23917 0.0
C176 C 0.17513 0.69842 0.24125 0.0
C177 C 0.06594 0.70221 0.24824 0.0
N178 N 0.08832 0.72664 0.24372 0.0
O179 O 0.17912 0.6426 0.20909 0.0
H180 H 0.22682 0.69025 0.23785 0.0
H181 H 0.01213 0.69766 0.2515 0.0
O182 O 0.20352 0.6529 0.27982 0.0
C183 C 0.15876 0.62786 0.18109 0.0
O184 O 0.10367 0.61289 0.18202 0.0
N185 N 0.06064 0.6513 0.28828 0.0
C186 C 0.9538 0.64863 0.33569 0.0
C187 C 0.02259 0.6458 0.34561 0.0
C188 C 0.07541 0.64649 0.32114 0.0
C189 C 0.99367 0.65358 0.27831 0.0
C190 C 0.93951 0.65269 0.3017 0.0
H191 H 0.12712 0.6415 0.32816 0.0
H192 H 0.98199 0.65453 0.25133 0.0
H193 H 0.23504 0.60244 0.25065 0.0
H194 H 0.06556 0.55033 0.24894 0.0
H195 H 0.19132 0.73986 0.23359 0.0
H196 H 0.03497 0.64147 0.37128 0.0
H197 H 0.88667 0.65403 0.29288 0.0
C198 C 0.9395 0.34193 0.9915 0.0
C199 C 0.91597 0.31609 0.98911 0.0
N200 N 0.84644 0.31668 0.99104 0.0
N201 N 0.88518 0.35886 -0.00468 0.0
C202 C 0.82916 0.34285 -0.00513 0.0
H203 H 0.99296 0.34801 0.9907 0.0
Co204 Co 0.89034 0.39623 -0.00021 0.0
C205 C 0.79654 0.41539 0.05881 0.0
O206 O 0.84249 0.43355 0.0715 0.0
N207 N 0.89491 0.43422 0.00329 0.0
C208 C 0.85818 0.47564 0.00107 0.0
C209 C 0.83847 0.44992 0.00291 0.0
C210 C 0.94849 0.45111 0.00077 0.0
N211 N 0.92754 0.47643 -0.00057 0.0
O212 O 0.83152 0.39564 0.96002 0.0
H213 H 0.78568 0.44285 0.00224 0.0
H214 H 0.00181 0.44504 -0.00105 0.0
O215 O 0.80958 0.39938 0.03047 0.0
C216 C 0.85348 0.384 0.93044 0.0
O217 O 0.91099 0.37009 0.92897 0.0
N218 N 0.95214 0.3963 0.03719 0.0
C219 C 0.05672 0.39196 0.08517 0.0
C220 C 0.98874 0.38495 0.09199 0.0
C221 C 0.93716 0.38687 0.06734 0.0
C222 C 0.01901 0.40112 0.02922 0.0
C223 C 0.0719 0.39982 0.0532 0.0
H224 H 0.88613 0.37963 0.07196 0.0
H225 H 0.03202 0.40456 0.00333 0.0
H226 H 0.77661 0.35018 -0.00325 0.0
H227 H 0.94781 0.29834 0.98691 0.0
H228 H 0.82381 0.49215 -0.00099 0.0
H229 H 0.9759 0.37763 0.11584 0.0
H230 H 0.12463 0.40383 0.04623 0.0
C231 C 0.9317 0.46131 0.74145 0.0
C232 C 0.90747 0.48718 0.74592 0.0
N233 N 0.83791 0.48643 0.74478 0.0
N234 N 0.87777 0.44421 0.73716 0.0
C235 C 0.82127 0.46015 0.73943 0.0
H236 H 0.98538 0.45531 0.74117 0.0
Co237 Co 0.88503 0.40673 0.72898 0.0
C238 C 0.73935 0.40179 0.70411 0.0
O239 O 0.71607 0.40046 0.73552 0.0
N240 N 0.89289 0.36945 0.7205 0.0
C241 C 0.89427 0.32735 0.69311 0.0
C242 C 0.87606 0.35309 0.69061 0.0
C243 C 0.92189 0.35318 0.74074 0.0
N244 N 0.92273 0.32729 0.72475 0.0
O245 O 0.83077 0.40438 0.76938 0.0
H246 H 0.85516 0.35958 0.66769 0.0
H247 H 0.94358 0.36031 0.76631 0.0
O248 O 0.80397 0.40435 0.69895 0.0
C249 C 0.85286 0.41571 0.79903 0.0
O250 O 0.9096 0.43007 0.80079 0.0
N251 N 0.94317 0.40865 0.69152 0.0
C252 C 0.04703 0.41457 0.64427 0.0
C253 C 0.97834 0.42048 0.63695 0.0
C254 C 0.9267 0.41764 0.66132 0.0
C255 C 0.00944 0.40222 0.69845 0.0
C256 C 0.06227 0.40498 0.67511 0.0
H257 H 0.87444 0.42359 0.65651 0.0
H258 H 0.0215 0.3957 0.72289 0.0
H259 H 0.76896 0.45269 0.73648 0.0
H260 H 0.93858 0.50518 0.74987 0.0
H261 H 0.89056 0.31026 0.67235 0.0
H262 H 0.96534 0.42825 0.61344 0.0
H263 H 0.11493 0.40031 0.68149 0.0
C264 C 0.56876 0.20302 -0.00808 0.0
C265 C 0.59408 0.22868 -0.00514 0.0
N266 N 0.66346 0.22738 -0.00784 0.0
N267 N 0.62192 0.18555 0.9875 0.0
C268 C 0.67897 0.20106 0.98829 0.0
H269 H 0.51486 0.19739 -0.00786 0.0
Co270 Co 0.61475 0.14808 0.97855 0.0
C271 C 0.76097 0.14203 0.95571 0.0
O272 O 0.78081 0.13661 0.98607 0.0
N273 N 0.60759 0.11077 0.96903 0.0
C274 C 0.61067 0.06888 0.94088 0.0
C275 C 0.62795 0.0949 0.93935 0.0
C276 C 0.57743 0.09393 0.98811 0.0
N277 N 0.57934 0.06815 0.97168 0.0
O278 O 0.66713 0.14542 0.01956 0.0
H279 H 0.6514 0.10188 0.91728 0.0
H280 H 0.55341 0.10055 0.01325 0.0
O281 O 0.69744 0.1464 0.94986 0.0
C282 C 0.64401 0.15638 0.04918 0.0
O283 O 0.58693 0.17055 0.05078 0.0
N284 N 0.55829 0.15048 0.94051 0.0
C285 C 0.456 0.15825 0.89303 0.0
C286 C 0.52559 0.16303 0.88594 0.0
C287 C 0.57639 0.15923 0.91036 0.0
C288 C 0.49122 0.14507 0.9472 0.0
C289 C 0.43917 0.14885 0.92383 0.0
H290 H 0.62942 0.16424 0.9056 0.0
H291 H 0.47795 0.13867 0.97156 0.0
H292 H 0.73101 0.19325 0.98608 0.0
H293 H 0.56367 0.24684 -0.00242 0.0
H294 H 0.6174 0.05203 0.92001 0.0
H295 H 0.54006 0.17066 0.86253 0.0
H296 H 0.38594 0.145 0.93011 0.0
C297 C 0.57171 0.09321 0.25173 0.0
C298 C 0.59746 0.06774 0.25004 0.0
N299 N 0.66698 0.06902 0.24955 0.0
N300 N 0.62479 0.11057 0.25271 0.0
C301 C 0.68218 0.09525 0.25149 0.0
H302 H 0.5177 0.0986 0.25115 0.0
Co303 Co 0.61867 0.1472 0.25156 0.0
C304 C 0.71069 0.17214 0.30841 0.0
O305 O 0.66448 0.1911 0.31701 0.0
N306 N 0.61367 0.18433 0.24928 0.0
C307 C 0.65039 0.2243 0.24013 0.0
C308 C 0.66989 0.19884 0.24349 0.0
C309 C 0.56022 0.20158 0.24858 0.0
N310 N 0.58128 0.22597 0.2431 0.0
O311 O 0.67803 0.14323 0.21149 0.0
H312 H 0.7222 0.1912 0.2412 0.0
H313 H 0.50673 0.19663 0.25173 0.0
O314 O 0.69876 0.1534 0.28268 0.0
C315 C 0.65844 0.12875 0.18315 0.0
O316 O 0.60336 0.11367 0.18343 0.0
N317 N 0.55582 0.1504 0.28902 0.0
C318 C 0.44779 0.14795 0.33603 0.0
C319 C 0.51637 0.14407 0.34576 0.0
C320 C 0.56965 0.14485 0.3216 0.0
C321 C 0.48916 0.15297 0.27881 0.0
C322 C 0.43457 0.15244 0.30204 0.0
H323 H 0.62106 0.13944 0.32862 0.0
H324 H 0.478 0.15412 0.25184 0.0
H325 H 0.73407 0.10322 0.25154 0.0
H326 H 0.56737 0.04955 0.24799 0.0
H327 H 0.68422 0.24014 0.23484 0.0
H328 H 0.52838 0.1391 0.37114 0.0
H329 H 0.38218 0.15471 0.2931 0.0
C330 C 0.43466 0.84129 -0.00648 0.0
C331 C 0.41023 0.81588 -0.0062 0.0
N332 N 0.34143 0.81729 -0.00078 0.0
N333 N 0.38159 0.85877 -0.00138 0.0
C334 C 0.32531 0.84351 0.00174 0.0
H335 H 0.48764 0.84665 0.98914 0.0
Co336 Co 0.3889 0.89573 -0.00032 0.0
C337 C 0.29722 0.9194 0.05757 0.0
O338 O 0.34327 0.93823 0.06723 0.0
N339 N 0.39561 0.93327 -9e-05 0.0
C340 C 0.36113 0.97402 -0.0071 0.0
C341 C 0.34037 0.94838 -0.00555 0.0
C342 C 0.44976 0.95047 0.00122 0.0
N343 N 0.43014 0.97539 -0.00304 0.0
O344 O 0.32855 0.89363 0.95998 0.0
H345 H 0.2879 0.94104 0.99101 0.0
H346 H 0.50266 0.94501 0.00492 0.0
O347 O 0.30943 0.90135 0.03111 0.0
C348 C 0.34464 0.87969 0.93065 0.0
O349 O 0.39772 0.86338 0.92889 0.0
N350 N 0.45227 0.89712 0.03671 0.0
C351 C 0.5603 0.89264 0.08298 0.0
C352 C 0.49159 0.88936 0.09286 0.0
C353 C 0.43827 0.89105 0.069 0.0
C354 C 0.51903 0.89914 0.02633 0.0
C355 C 0.57376 0.89746 0.04917 0.0
H356 H 0.38657 0.88608 0.07606 0.0
H357 H 0.52998 0.90105 -0.00044 0.0
H358 H 0.27344 0.85145 0.0057 0.0
H359 H 0.44056 0.79769 0.98919 0.0
H360 H 0.32814 0.99016 0.98774 0.0
H361 H 0.47946 0.88425 0.11816 0.0
H362 H 0.62628 0.8993 0.0402 0.0
C363 C 0.42797 0.96123 0.74623 0.0
C364 C 0.40343 0.98703 0.74999 0.0
N365 N 0.33437 0.9861 0.74546 0.0
N366 N 0.37467 0.94401 0.73948 0.0
C367 C 0.31821 0.95976 0.73951 0.0
H368 H 0.48148 0.95536 0.74777 0.0
Co369 Co 0.38235 0.90668 0.72968 0.0
C370 C 0.24449 0.89243 0.70098 0.0
O371 O 0.23593 0.87623 0.72371 0.0
N372 N 0.39105 0.8694 0.71943 0.0
C373 C 0.39382 0.82772 0.69055 0.0
C374 C 0.37668 0.8537 0.68865 0.0
C375 C 0.41815 0.85257 0.73943 0.0
N376 N 0.41948 0.82691 0.72261 0.0
O377 O 0.32725 0.90328 0.76978 0.0
H378 H 0.35723 0.86081 0.66576 0.0
H379 H 0.43786 0.85911 0.76556 0.0
O380 O 0.30082 0.90539 0.70064 0.0
C381 C 0.3514 0.91299 0.79972 0.0
O382 O 0.40958 0.92649 0.80175 0.0
N383 N 0.44021 0.90972 0.69236 0.0
C384 C 0.54269 0.9153 0.64406 0.0
C385 C 0.47317 0.91965 0.63641 0.0
C386 C 0.42227 0.91699 0.66125 0.0
C387 C 0.50738 0.90507 0.69984 0.0
C388 C 0.55956 0.90784 0.6761 0.0
H389 H 0.36913 0.92127 0.65567 0.0
H390 H 0.52041 0.89965 0.72483 0.0
H391 H 0.26623 0.95202 0.73539 0.0
H392 H 0.4343 1.00508 0.75476 0.0
H393 H 0.39103 0.81096 0.66928 0.0
H394 H 0.45871 0.9258 0.61201 0.0
H395 H 0.6128 0.9044 0.68282 0.0
C396 C 0.57211 0.71027 0.48683 0.0
C397 C 0.59594 0.73605 0.48921 0.0
N398 N 0.66544 0.73533 0.48717 0.0
N399 N 0.62631 0.69329 0.48327 0.0
C400 C 0.68254 0.70915 0.48381 0.0
H401 H 0.51863 0.70431 0.48802 0.0
Co402 Co 0.62129 0.65618 0.48005 0.0
C403 C 0.71537 0.63521 0.42201 0.0
O404 O 0.66853 0.61708 0.41054 0.0
N405 N 0.61687 0.61857 0.47791 0.0
C406 C 0.65266 0.57723 0.48128 0.0
C407 C 0.67301 0.60293 0.47973 0.0
C408 C 0.56282 0.6018 0.47945 0.0
N409 N 0.58325 0.57652 0.48099 0.0
O410 O 0.67899 0.65763 0.5205 0.0
H411 H 0.72587 0.60996 0.48106 0.0
H412 H 0.50951 0.608 0.48152 0.0
O413 O 0.7029 0.65229 0.4495 0.0
C414 C 0.65278 0.66868 0.54944 0.0
O415 O 0.59347 0.68126 0.5492 0.0
N416 N 0.55974 0.65528 0.44219 0.0
C417 C 0.45395 0.65949 0.39451 0.0
C418 C 0.52267 0.6646 0.38635 0.0
C419 C 0.57473 0.66305 0.41094 0.0
C420 C 0.4927 0.65163 0.45102 0.0
C421 C 0.43921 0.65309 0.42741 0.0
H422 H 0.62613 0.66941 0.40537 0.0
H423 H 0.48018 0.64906 0.47734 0.0
H424 H 0.735 0.70166 0.48285 0.0
H425 H 0.56452 0.75396 0.49215 0.0
H426 H 0.68631 0.56048 0.48322 0.0
H427 H 0.53557 0.67101 0.3619 0.0
H428 H 0.38646 0.64998 0.4352 0.0
C429 C 0.56175 0.60113 0.74707 0.0
C430 C 0.58562 0.57552 0.74644 0.0
N431 N 0.65484 0.57647 0.75035 0.0
N432 N 0.61557 0.61826 0.75124 0.0
C433 C 0.67174 0.6026 0.75285 0.0
H434 H 0.50852 0.60692 0.74418 0.0
Co435 Co 0.60827 0.65533 0.75363 0.0
C436 C 0.70724 0.6778 0.80873 0.0
O437 O 0.66192 0.69633 0.82106 0.0
N438 N 0.60127 0.69295 0.75499 0.0
C439 C 0.63507 0.73376 0.74797 0.0
C440 C 0.65623 0.70817 0.74944 0.0
C441 C 0.54676 0.70996 0.75603 0.0
N442 N 0.56604 0.73493 0.75189 0.0
O443 O 0.6637 0.6538 0.71236 0.0
H444 H 0.70868 0.70088 0.74554 0.0
H445 H 0.49376 0.70427 0.75895 0.0
O446 O 0.69176 0.66028 0.7822 0.0
C447 C 0.64684 0.63982 0.68324 0.0
O448 O 0.59379 0.62354 0.68178 0.0
N449 N 0.55043 0.65624 0.79292 0.0
C450 C 0.45274 0.65167 0.84453 0.0
C451 C 0.5228 0.64666 0.84988 0.0
C452 C 0.57065 0.6485 0.82347 0.0
C453 C 0.48195 0.65953 0.78657 0.0
C454 C 0.43235 0.65786 0.8122 0.0
H455 H 0.6232 0.64246 0.82722 0.0
H456 H 0.46528 0.66217 0.76082 0.0
H457 H 0.72401 0.61018 0.75586 0.0
H458 H 0.55452 0.55753 0.74242 0.0
H459 H 0.66765 0.74996 0.74265 0.0
H460 H 0.54031 0.64083 0.87401 0.0
H461 H 0.37826 0.66035 0.80626 0.0
C462 C 0.43108 0.35283 0.49653 0.0
C463 C 0.40825 0.32686 0.49346 0.0
N464 N 0.33866 0.32714 0.49462 0.0
N465 N 0.37617 0.36946 0.49988 0.0
C466 C 0.3205 0.35323 0.49878 0.0
H467 H 0.48434 0.35921 0.49594 0.0
Co468 Co 0.38058 0.40654 0.50222 0.0
C469 C 0.28744 0.42785 0.55992 0.0
O470 O 0.33519 0.44564 0.57125 0.0
N471 N 0.38421 0.4442 0.50309 0.0
C472 C 0.3459 0.48505 0.49852 0.0
C473 C 0.32718 0.45952 0.50189 0.0
C474 C 0.43706 0.46098 0.49892 0.0
N475 N 0.41512 0.48589 0.49638 0.0
O476 O 0.32322 0.40427 0.4618 0.0
H477 H 0.27456 0.45238 0.50217 0.0
H478 H 0.49042 0.45506 0.49557 0.0
O479 O 0.29866 0.41078 0.53227 0.0
C480 C 0.34706 0.392 0.433 0.0
O481 O 0.40595 0.3791 0.4329 0.0
N482 N 0.44077 0.40816 0.54091 0.0
C483 C 0.53974 0.40592 0.59283 0.0
C484 C 0.4717 0.39743 0.59689 0.0
C485 C 0.42337 0.39828 0.57042 0.0
C486 C 0.50777 0.41469 0.5356 0.0
C487 C 0.55741 0.41476 0.56167 0.0
H488 H 0.37275 0.38993 0.57318 0.0
H489 H 0.52394 0.41851 0.51038 0.0
H490 H 0.26763 0.36033 0.5 0.0
H491 H 0.44042 0.30917 0.49082 0.0
H492 H 0.31109 0.50157 0.4973 0.0
H493 H 0.45643 0.38937 0.61985 0.0
H494 H 0.60938 0.42126 0.55705 0.0
C495 C 0.44218 0.45309 0.23251 0.0
C496 C 0.41903 0.47908 0.23636 0.0
N497 N 0.34944 0.47884 0.23756 0.0
N498 N 0.38743 0.43645 0.23086 0.0
C499 C 0.33164 0.45275 0.23383 0.0
H500 H 0.49565 0.44685 0.23183 0.0
Co501 Co 0.38939 0.39937 0.22966 0.0
C502 C 0.28928 0.37781 0.174 0.0
O503 O 0.32654 0.35614 0.16451 0.0
N504 N 0.39036 0.36193 0.22962 0.0
C505 C 0.35095 0.32203 0.23756 0.0
C506 C 0.33348 0.34806 0.23616 0.0
C507 C 0.44225 0.34374 0.228 0.0
N508 N 0.4194 0.31929 0.23227 0.0
O509 O 0.32956 0.40292 0.26929 0.0
H510 H 0.2822 0.3565 0.24037 0.0
H511 H 0.49607 0.34812 0.2245 0.0
O512 O 0.3094 0.39595 0.19884 0.0
C513 C 0.34873 0.41652 0.29821 0.0
O514 O 0.40602 0.43053 0.29951 0.0
N515 N 0.45208 0.39633 0.19228 0.0
C516 C 0.56034 0.3997 0.14583 0.0
C517 C 0.49172 0.40295 0.13575 0.0
C518 C 0.43825 0.40164 0.1596 0.0
C519 C 0.51867 0.39366 0.20257 0.0
C520 C 0.57351 0.39488 0.17967 0.0
H521 H 0.38679 0.40655 0.15223 0.0
H522 H 0.52947 0.39187 0.2294 0.0
H523 H 0.27898 0.44566 0.23463 0.0
H524 H 0.45104 0.49674 0.23809 0.0
H525 H 0.31636 0.30664 0.24348 0.0
H526 H 0.47978 0.40788 0.11034 0.0
H527 H 0.62594 0.39287 0.18869 0.0
C528 C 0.19111 0.28292 0.5121 0.0
C529 C 0.20465 0.25889 0.48912 0.0
C530 C 0.23461 0.30523 0.51351 0.0
C531 C 0.29337 0.30432 0.49205 0.0
H532 H 0.14706 0.28435 0.52951 0.0
H533 H 0.22297 0.32317 0.53197 0.0
S534 S 0.34693 0.24739 0.42435 0.0
N535 N 0.27782 0.23634 0.44243 0.0
N536 N 0.35965 0.27818 0.44514 0.0
C537 C 0.3066 0.28065 0.46838 0.0
C538 C 0.26229 0.25796 0.46692 0.0
C539 C 0.01696 1.01429 0.51205 0.0
C540 C 0.95705 1.00806 0.49177 0.0
C541 C 0.05681 0.03693 0.50911 0.0
C542 C 0.03811 0.05424 0.48587 0.0
H543 H 0.03243 1.00181 0.53074 0.0
H544 H 0.10207 0.04117 0.52552 0.0
S545 S 0.89065 0.04539 0.42415 0.0
N546 N 0.88436 1.01999 0.44557 0.0
N547 N 0.95874 0.06269 0.44062 0.0
C548 C 0.9792 0.04802 0.46502 0.0
C549 C 0.93885 1.0249 0.4678 0.0
C550 C 0.25961 0.05552 0.76869 0.0
C551 C 0.20144 0.05448 0.7468 0.0
C552 C 0.30234 0.03307 0.7683 0.0
C553 C 0.28877 1.00876 0.74587 0.0
H554 H 0.27138 0.07368 0.7867 0.0
H555 H 0.34591 0.03467 0.78602 0.0
S556 S 0.14746 0.99678 0.68042 0.0
N557 N 0.13536 1.02787 0.70028 0.0
N558 N 0.21591 0.98587 0.6992 0.0
C559 C 0.23166 1.00772 0.72323 0.0
C560 C 0.18802 0.03053 0.72376 0.0
C561 C 0.0188 0.30782 0.75436 0.0
C562 C 0.95555 0.3047 0.73628 0.0
C563 C 0.0562 0.28553 0.76128 0.0
C564 C 0.03171 0.25924 0.7506 0.0
H565 H 0.04107 0.32753 0.76184 0.0
H566 H 0.10551 0.28886 0.77448 0.0
S567 S 0.86555 0.24052 0.70504 0.0
N568 N 0.86713 0.2735 0.71048 0.0
N569 N 0.93818 0.23167 0.72227 0.0
C570 C 0.96699 0.25597 0.73383 0.0
C571 C 0.92885 0.27866 0.72694 0.0
C572 C 0.73713 0.80483 0.51352 0.0
C573 C 0.7993 0.8038 0.49462 0.0
C574 C 0.69394 0.78238 0.51106 0.0
C575 C 0.71108 0.75807 0.48945 0.0
H576 H 0.72246 0.823 0.53082 0.0
H577 H 0.64719 0.78396 0.52658 0.0
S578 S 0.86428 0.74597 0.43149 0.0
N579 N 0.87345 0.77713 0.45168 0.0
N580 N 0.79203 0.73504 0.44681 0.0
C581 C 0.77236 0.75698 0.4698 0.0
C582 C 0.81647 0.77982 0.47242 0.0
C583 C 0.74338 1.00219 0.25831 0.0
C584 C 0.80428 1.00136 0.23841 0.0
C585 C 0.69916 1.02443 0.26203 0.0
C586 C 0.71407 0.04665 0.24591 0.0
H587 H 0.73048 0.98571 0.27158 0.0
H588 H 0.65327 1.02439 0.27798 0.0
S589 S 0.863 0.05294 0.18767 0.0
N590 N 0.87471 1.02377 0.20036 0.0
N591 N 0.79136 0.06542 0.20703 0.0
C592 C 0.77405 0.04579 0.2253 0.0
C593 C 0.81916 1.02319 0.22161 0.0
C594 C 0.9462 0.77075 0.21952 0.0
C595 C 0.96819 0.79655 0.23487 0.0
C596 C 0.98496 0.74794 0.22299 0.0
C597 C 0.04733 0.75008 0.2418 0.0
H598 H 0.8991 0.76823 0.20427 0.0
H599 H 0.96686 0.72854 0.21023 0.0
S600 S 0.12377 0.81244 0.2904 0.0
N601 N 0.05359 0.82249 0.27214 0.0
N602 N 0.12686 0.77967 0.27807 0.0
C603 C 0.06919 0.77562 0.2579 0.0
C604 C 0.02958 0.79884 0.25458 0.0
C605 C 0.22841 0.79523 0.9852 0.0
C606 C 0.2947 0.79519 0.0001 0.0
C607 C 0.18331 0.77347 0.98461 0.0
C608 C 0.20267 0.7508 -0.00109 0.0
H609 H 0.21186 0.81195 0.97321 0.0
H610 H 0.13335 0.77417 0.97224 0.0
S611 S 0.36748 0.74198 0.04439 0.0
N612 N 0.37537 0.77136 0.03182 0.0
N613 N 0.29071 0.73052 0.03058 0.0
C614 C 0.26815 0.75076 0.01456 0.0
C615 C 0.31407 0.77292 0.01522 0.0
C616 C 0.94645 0.52543 0.00823 0.0
C617 C 0.96838 0.49934 -0.00601 0.0
C618 C 0.98102 0.54817 0.00073 0.0
C619 C 0.03888 0.5458 0.97849 0.0
H620 H 0.90133 0.5283 0.02493 0.0
H621 H 0.96058 0.56771 0.01135 0.0
S622 S 0.1209 0.48227 0.93646 0.0
N623 N 0.05378 0.4727 0.9575 0.0
N624 N 0.1201 0.51527 0.94462 0.0
C625 C 0.06324 0.51988 0.96529 0.0
C626 C 0.02781 0.49672 0.97276 0.0
C627 C 0.19553 0.52218 0.22721 0.0
C628 C 0.21248 0.54661 0.24849 0.0
C629 C 0.24006 0.50009 0.22418 0.0
C630 C 0.30351 0.50159 0.24205 0.0
H631 H 0.14793 0.52025 0.21234 0.0
H632 H 0.22523 0.48181 0.2073 0.0
S633 S 0.36734 0.55973 0.30502 0.0
N634 N 0.29387 0.5702 0.29034 0.0
N635 N 0.37775 0.52871 0.28454 0.0
C636 C 0.32015 0.52565 0.26425 0.0
C637 C 0.27467 0.54815 0.26743 0.0
C638 C 0.69728 0.2745 0.01252 0.0
C639 C 0.71028 0.24951 0.99158 0.0
C640 C 0.7415 0.29639 0.01198 0.0
C641 C 0.8005 0.29415 0.99048 0.0
H642 H 0.65299 0.27704 0.0298 0.0
H643 H 0.73013 0.31508 0.02898 0.0
S644 S 0.85344 0.23403 0.92772 0.0
N645 N 0.78365 0.22448 0.94674 0.0
N646 N 0.86664 0.26549 0.94581 0.0
C647 C 0.8133 0.26945 0.96887 0.0
C648 C 0.76829 0.24717 0.9694 0.0
C649 C 0.76615 0.55369 0.73403 0.0
C650 C 0.70108 0.55408 0.75029 0.0
C651 C 0.81059 0.53161 0.73249 0.0
C652 C 0.79177 0.50907 0.74717 0.0
H653 H 0.78217 0.57031 0.72172 0.0
H654 H 0.85955 0.53197 0.71908 0.0
S655 S 0.63082 0.50152 0.79644 0.0
N656 N 0.62258 0.53089 0.78389 0.0
N657 N 0.70603 0.48951 0.78096 0.0
C658 C 0.72769 0.50952 0.76432 0.0
C659 C 0.68244 0.53199 0.7659 0.0
C660 C 0.48288 0.04729 -0.00072 0.0
C661 C 0.54714 0.04499 0.98212 0.0
C662 C 0.44637 1.02451 0.00517 0.0
C663 C 0.47266 0.99849 -0.0057 0.0
H664 H 0.45917 0.06674 0.00684 0.0
H665 H 0.39632 1.02729 0.01771 0.0
S666 S 0.6424 0.98186 0.9514 0.0
N667 N 0.63869 1.01483 0.95735 0.0
N668 N 0.56928 0.97209 0.96717 0.0
C669 C 0.53847 0.99603 0.9786 0.0
C670 C 0.57575 1.01924 0.97277 0.0
C671 C 0.52487 0.29781 0.2506 0.0
C672 C 0.46009 0.29568 0.23393 0.0
C673 C 0.56383 0.27495 0.25364 0.0
C674 C 0.53957 0.2491 0.24012 0.0
H675 H 0.54494 0.31725 0.26199 0.0
H676 H 0.61299 0.2775 0.26712 0.0
S677 S 0.37653 0.23291 0.1908 0.0
N678 N 0.37557 0.26582 0.20163 0.0
N679 N 0.44887 0.22293 0.20718 0.0
C680 C 0.47551 0.24675 0.22275 0.0
C681 C 0.43582 0.27001 0.21969 0.0
C682 C 0.51204 0.8065 0.75341 0.0
C683 C 0.45023 0.80391 0.73409 0.0
C684 C 0.54794 0.78389 0.76033 0.0
C685 C 0.52328 0.75778 0.74848 0.0
H686 H 0.53456 0.82606 0.7618 0.0
H687 H 0.59645 0.78683 0.77436 0.0
S688 S 0.35973 0.74037 0.69995 0.0
N689 N 0.36242 0.77336 0.70607 0.0
N690 N 0.4306 0.73091 0.7182 0.0
C691 C 0.45962 0.755 0.7307 0.0
C692 C 0.42306 0.77804 0.72369 0.0
C693 C 0.56142 0.53543 0.50567 0.0
C694 C 0.54037 0.55383 0.48433 0.0
C695 C 0.52061 0.51318 0.50919 0.0
C696 C 0.45709 0.50851 0.49162 0.0
H697 H 0.60935 0.53849 0.52019 0.0
H698 H 0.53822 0.49976 0.5263 0.0
S699 S 0.38207 0.54916 0.42979 0.0
N700 N 0.45429 0.56485 0.44349 0.0
N701 N 0.37736 0.5232 0.45026 0.0
C702 C 0.43603 0.5265 0.46971 0.0
C703 C 0.47769 0.54911 0.46606 0.0
C704 C 0.27639 0.12541 0.36834 0.0
C705 C 0.27292 0.1389 0.40305 0.0
C706 C 0.3333 0.12837 0.34715 0.0
C707 C 0.38936 0.14484 0.35976 0.0
H708 H 0.23431 0.11272 0.3571 0.0
H709 H 0.33341 0.11757 0.32059 0.0
S710 S 0.40792 0.18351 0.44922 0.0
N711 N 0.33219 0.16855 0.4496 0.0
N712 N 0.43905 0.17431 0.40942 0.0
C713 C 0.38751 0.15804 0.39461 0.0
C714 C 0.32928 0.15508 0.41629 0.0
C715 C 0.82576 0.15234 0.31976 0.0
C716 C 0.77234 0.17075 0.33084 0.0
C717 C 0.88276 0.14968 0.34131 0.0
C718 C 0.8878 0.16504 0.37486 0.0
H719 H 0.82335 0.1397 0.29436 0.0
H720 H 0.92227 0.13505 0.33204 0.0
S721 S 0.76467 0.21695 0.41593 0.0
N722 N 0.73039 0.20538 0.37743 0.0
N723 N 0.83714 0.20005 0.41769 0.0
C724 C 0.83582 0.18384 0.38603 0.0
C725 C 0.77822 0.1868 0.36408 0.0
C726 C 0.29026 0.18732 0.86389 0.0
C727 C 0.28255 0.17418 0.82918 0.0
C728 C 0.34751 0.18248 0.88393 0.0
C729 C 0.39978 0.1646 0.86996 0.0
H730 H 0.25076 0.20086 0.8762 0.0
H731 H 0.35045 0.19253 0.91082 0.0
S732 S 0.4072 0.12625 0.78003 0.0
N733 N 0.33434 0.14338 0.7812 0.0
N734 N 0.44216 0.13441 0.81919 0.0
C735 C 0.39437 0.15203 0.83502 0.0
C736 C 0.33565 0.15677 0.81457 0.0
C737 C 0.84743 0.13971 0.86787 0.0
C738 C 0.91176 0.15207 0.87671 0.0
C739 C 0.79867 0.13669 0.89359 0.0
C740 C 0.81301 0.1454 0.92911 0.0
H741 H 0.83492 0.13194 0.84089 0.0
H742 H 0.7499 0.12704 0.88565 0.0
S743 S 0.97006 0.18141 0.96602 0.0
N744 N 0.98428 0.1751 0.92351 0.0
N745 N 0.89357 0.16843 0.97189 0.0
C746 C 0.87643 0.15809 0.93839 0.0
C747 C 0.92561 0.16163 0.91219 0.0
C748 C 0.65057 0.93852 0.63159 0.0
C749 C 0.59873 0.91979 0.61989 0.0
C750 C 0.70772 0.94174 0.61067 0.0
C751 C 0.7158 0.92608 0.57735 0.0
H752 H 0.64735 0.95053 0.65741 0.0
H753 H 0.74677 0.95615 0.62126 0.0
S754 S 0.59256 0.8747 0.53438 0.0
N755 N 0.5572 0.88591 0.57277 0.0
N756 N 0.66506 0.89172 0.53319 0.0
C757 C 0.66322 0.90766 0.565 0.0
C758 C 0.60453 0.9046 0.58632 0.0
C759 C 0.19027 0.91768 0.65793 0.0
C760 C 0.18993 0.89532 0.67506 0.0
C761 C 0.13978 0.92094 0.6331 0.0
C762 C 0.08724 0.90186 0.62416 0.0
H763 H 0.22974 0.9329 0.66383 0.0
H764 H 0.14176 0.93863 0.62091 0.0
S765 S 0.06688 0.83845 0.65896 0.0
N766 N 0.13432 0.85314 0.68009 0.0
N767 N 0.0407 0.85887 0.63271 0.0
C768 C 0.08699 0.87914 0.64062 0.0
C769 C 0.13799 0.87597 0.6662 0.0
C770 C 0.72892 0.86779 0.11555 0.0
C771 C 0.73432 0.88207 0.14982 0.0
C772 C 0.67228 0.87124 0.09435 0.0
C773 C 0.61841 0.88896 0.10659 0.0
H774 H 0.76931 0.8541 0.10463 0.0
H775 H 0.67064 0.85991 0.06809 0.0
S776 S 0.60585 0.93062 0.19446 0.0
N777 N 0.67936 0.91417 0.19531 0.0
N778 N 0.57303 0.92071 0.15515 0.0
C779 C 0.62216 0.90301 0.14094 0.0
C780 C 0.68012 0.89959 0.16259 0.0
C781 C 0.12598 0.89501 0.08876 0.0
C782 C 0.12056 0.9093 0.12292 0.0
C783 C 0.18277 0.8987 0.06759 0.0
C784 C 0.23564 0.91709 0.07968 0.0
H785 H 0.08692 0.88044 0.07868 0.0
H786 H 0.18544 0.88687 0.04167 0.0
S787 S 0.24198 0.96081 0.16665 0.0
N788 N 0.17011 0.94339 0.16741 0.0
N789 N 0.27657 0.95058 0.12786 0.0
C790 C 0.22935 0.93209 0.11354 0.0
C791 C 0.17192 0.92811 0.1351 0.0
C792 C 0.35016 0.62213 0.91235 0.0
C793 C 0.29777 0.64121 0.92194 0.0
C794 C 0.40051 0.6258 0.88761 0.0
C795 C 0.40053 0.64872 0.87163 0.0
H796 H 0.35167 0.60397 0.92354 0.0
H797 H 0.4389 0.61029 0.88043 0.0
S798 S 0.27915 0.70598 0.89013 0.0
N799 N 0.2519 0.68475 0.91502 0.0
N800 N 0.34687 0.69162 0.86885 0.0
C801 C 0.34961 0.66827 0.8816 0.0
C802 C 0.29821 0.66453 0.90667 0.0
C803 C 0.77546 0.68743 0.86389 0.0
C804 C 0.77111 0.67487 0.82877 0.0
C805 C 0.83209 0.68317 0.88466 0.0
C806 C 0.88697 0.66647 0.87103 0.0
H807 H 0.73386 0.70005 0.87587 0.0
H808 H 0.83263 0.6928 0.91177 0.0
S809 S 0.90318 0.63003 0.78035 0.0
N810 N 0.82852 0.6459 0.78087 0.0
N811 N 0.93514 0.63797 0.82019 0.0
C812 C 0.8847 0.65447 0.83575 0.0
C813 C 0.82666 0.65862 0.81456 0.0
C814 C 0.28413 0.68258 0.36107 0.0
C815 C 0.28171 0.66919 0.32629 0.0
C816 C 0.34032 0.67946 0.3827 0.0
C817 C 0.39672 0.66307 0.37035 0.0
H818 H 0.24155 0.69512 0.37205 0.0
H819 H 0.33956 0.68995 0.40942 0.0
S820 S 0.41806 0.62492 0.28081 0.0
N821 N 0.3422 0.63976 0.28 0.0
N822 N 0.44814 0.634 0.32085 0.0
C823 C 0.39607 0.65013 0.33539 0.0
C824 C 0.33842 0.65311 0.31335 0.0
C825 C 0.82444 0.65918 0.41025 0.0
C826 C 0.77902 0.63733 0.40123 0.0
C827 C 0.88229 0.66247 0.38951 0.0
C828 C 0.8963 0.64413 0.35901 0.0
H829 H 0.81462 0.67415 0.43308 0.0
H830 H 0.91517 0.6798 0.39684 0.0
S831 S 0.79842 0.58247 0.32522 0.0
N832 N 0.75586 0.59612 0.3606 0.0
N833 N 0.86388 0.60272 0.32178 0.0
C834 C 0.85297 0.62188 0.35024 0.0
C835 C 0.79452 0.61837 0.37132 0.0
C836 C 0.67217 0.42139 0.13514 0.0
C837 C 0.61858 0.40368 0.12248 0.0
C838 C 0.7285 0.42541 0.11406 0.0
C839 C 0.73379 0.41176 0.07946 0.0
H840 H 0.67048 0.43233 0.16161 0.0
H841 H 0.76868 0.43906 0.1253 0.0
S842 S 0.60593 0.36349 0.0337 0.0
N843 N 0.57345 0.37255 0.07323 0.0
N844 N 0.67893 0.38029 0.03322 0.0
C845 C 0.67982 0.39427 0.06627 0.0
C846 C 0.62229 0.39022 0.08784 0.0
C847 C 0.12667 0.36432 0.11974 0.0
C848 C 0.11298 0.38927 0.11003 0.0
C849 C 0.1837 0.36082 0.1408 0.0
C850 C 0.22772 0.38232 0.15345 0.0
H851 H 0.09438 0.34721 0.11009 0.0
H852 H 0.19355 0.34116 0.14713 0.0
S853 S 0.21333 0.45167 0.13555 0.0
N854 N 0.14743 0.43573 0.11448 0.0
N855 N 0.25361 0.42942 0.15488 0.0
C856 C 0.2135 0.40752 0.1446 0.0
C857 C 0.15636 0.41092 0.12261 0.0
C858 C 0.62206 0.41171 0.68269 0.0
C859 C 0.68986 0.40246 0.67523 0.0
C860 C 0.57426 0.41294 0.65591 0.0
C861 C 0.59205 0.40465 0.6206 0.0
H862 H 0.60596 0.41848 0.70943 0.0
H863 H 0.52308 0.42071 0.66295 0.0
S864 S 0.76167 0.37688 0.58735 0.0
N865 N 0.77194 0.3842 0.63006 0.0
N866 N 0.68132 0.38528 0.57983 0.0
C867 C 0.65943 0.3949 0.61282 0.0
C868 C 0.70847 0.39411 0.64009 0.0
C869 C 0.11178 0.40515 0.58782 0.0
C870 C 0.10425 0.42007 0.62147 0.0
C871 C 0.17065 0.40816 0.56771 0.0
C872 C 0.22349 0.42635 0.58054 0.0
H873 H 0.07314 0.39046 0.57752 0.0
H874 H 0.17525 0.39577 0.54222 0.0
S875 S 0.22414 0.47148 0.66657 0.0
N876 N 0.15136 0.45449 0.66622 0.0
N877 N 0.26161 0.46052 0.62869 0.0
C878 C 0.21474 0.44209 0.6138 0.0
C879 C 0.1552 0.43883 0.63421 0.0
C880 C 0.17242 0.17602 0.64805 0.0
C881 C 0.17237 0.14903 0.65228 0.0
C882 C 0.17229 0.18296 0.61461 0.0
C883 C 0.17425 0.16319 0.58454 0.0
H884 H 0.16542 0.19171 0.67043 0.0
H885 H 0.16531 0.20378 0.61222 0.0
S886 S 0.18661 0.08997 0.5823 0.0
N887 N 0.18224 0.1027 0.62428 0.0
N888 N 0.18531 0.11578 0.56145 0.0
C889 C 0.18212 0.13636 0.58871 0.0
C890 C 0.18024 0.12926 0.62267 0.0
C891 C 0.82519 0.92093 0.39428 0.0
C892 C 0.83051 0.89432 0.39985 0.0
C893 C 0.8266 0.92695 0.36035 0.0
C894 C 0.8311 0.90652 0.3311 0.0
H895 H 0.82712 0.93728 0.41616 0.0
H896 H 0.8294 0.94772 0.35707 0.0
S897 S 0.83533 0.83358 0.33205 0.0
N898 N 0.83312 0.8474 0.3737 0.0
N899 N 0.83273 0.85865 0.30989 0.0
C900 C 0.82885 0.8798 0.33637 0.0
C901 C 0.82936 0.87371 0.37086 0.0
C902 C 0.17599 0.66755 0.10878 0.0
C903 C 0.17014 0.64761 0.07908 0.0
C904 C 0.18208 0.66084 0.14219 0.0
C905 C 0.18013 0.63396 0.14689 0.0
H906 H 0.17049 0.68844 0.10641 0.0
H907 H 0.18067 0.67682 0.16452 0.0
S908 S 0.17582 0.5744 0.07706 0.0
N909 N 0.17283 0.60006 0.05596 0.0
N910 N 0.18061 0.58736 0.11898 0.0
C911 C 0.18073 0.61388 0.11718 0.0
C912 C 0.17664 0.62075 0.0831 0.0
C913 C 0.82881 0.37251 0.86701 0.0
C914 C 0.8275 0.39158 0.89782 0.0
C915 C 0.82772 0.38042 0.83413 0.0
C916 C 0.8273 0.40766 0.83126 0.0
H917 H 0.83617 0.35152 0.86834 0.0
H918 H 0.83455 0.3653 0.8111 0.0
S919 S 0.81338 0.4651 0.90358 0.0
N920 N 0.81574 0.43859 0.92308 0.0
N921 N 0.81698 0.45344 0.86127 0.0
C922 C 0.81952 0.42671 0.86162 0.0
C923 C 0.81867 0.41864 0.89502 0.0
C924 C 0.68027 0.16231 0.145 0.0
C925 C 0.68039 0.13535 0.14936 0.0
C926 C 0.67486 0.16919 0.11167 0.0
C927 C 0.67168 0.14937 0.08173 0.0
H928 H 0.67688 0.17812 0.16746 0.0
H929 H 0.66817 0.19006 0.10947 0.0
S930 S 0.68291 0.07613 0.07903 0.0
N931 N 0.68528 0.0889 0.12107 0.0
N932 N 0.67866 0.10191 0.05819 0.0
C933 C 0.67996 0.12251 0.08553 0.0
C934 C 0.68342 0.11546 0.11952 0.0
C935 C 0.32439 0.92355 0.86289 0.0
C936 C 0.32453 0.90482 0.8318 0.0
C937 C 0.32152 0.91526 0.8955 0.0
C938 C 0.321 0.88792 0.89797 0.0
H939 H 0.33175 0.94461 0.86207 0.0
H940 H 0.32716 0.93025 0.91872 0.0
S941 S 0.31034 0.83122 0.82427 0.0
N942 N 0.31361 0.85805 0.8054 0.0
N943 N 0.31215 0.84234 0.86678 0.0
C944 C 0.31482 0.86916 0.8671 0.0
C945 C 0.31554 0.87766 0.8339 0.0
C946 C 0.67273 0.68141 0.61315 0.0
C947 C 0.6765 0.66185 0.58291 0.0
C948 C 0.67166 0.67422 0.64646 0.0
C949 C 0.67221 0.64717 0.6504 0.0
H950 H 0.66532 0.70224 0.61094 0.0
H951 H 0.66336 0.68976 0.66888 0.0
S952 S 0.69131 0.58862 0.57995 0.0
N953 N 0.69001 0.61461 0.55943 0.0
N954 N 0.68477 0.60103 0.62196 0.0
C955 C 0.68191 0.62762 0.62067 0.0
C956 C 0.68499 0.635 0.58685 0.0
C957 C 0.32277 0.38343 0.33628 0.0
C958 C 0.32152 0.41017 0.33106 0.0
C959 C 0.32335 0.37728 0.37009 0.0
C960 C 0.32074 0.39763 0.39948 0.0
H961 H 0.33103 0.36739 0.31445 0.0
H962 H 0.33164 0.3567 0.37329 0.0
S963 S 0.30277 0.47032 0.39893 0.0
N964 N 0.30822 0.45676 0.35727 0.0
N965 N 0.30598 0.44518 0.42093 0.0
C966 C 0.31065 0.42413 0.39433 0.0
C967 C 0.31201 0.43043 0.35996 0.0
loop_
_geom_bond_atom_site_label_1
_geom_bond_atom_site_label_2
_geom_bond_distance
_geom_bond_site_symmetry_2
_ccdc_geom_bond_type
C0 C1 1.351 . S
C0 N3 1.368 . S
C0 H5 0.931 . S
C1 C0 1.351 . S
C1 N2 1.373 . S
C1 H29 0.930 . S
N2 C1 1.373 . S
N2 C4 1.340 . S
N3 C0 1.368 . S
N3 C4 1.321 . S
N3 Co6 2.135 . S
C4 N2 1.340 . S
C4 N3 1.321 . S
C4 H28 0.930 . S
H5 C0 0.931 . S
Co6 N3 2.135 . S
Co6 N9 2.121 . S
Co6 O14 2.055 . S
Co6 O17 2.039 . S
Co6 N20 2.140 . S
C7 O8 1.227 . S
C7 O17 1.265 . S
O8 C7 1.227 . S
N9 Co6 2.121 . S
N9 C11 1.375 . S
N9 C12 1.313 . S
C10 C11 1.338 . S
C10 N13 1.377 . S
C10 H30 0.930 . S
C11 N9 1.375 . S
C11 C10 1.338 . S
C11 H15 0.931 . S
C12 N9 1.313 . S
C12 N13 1.344 . S
C12 H16 0.930 . S
N13 C10 1.377 . S
N13 C12 1.344 . S
O14 Co6 2.055 . S
O14 C18 1.253 . S
H15 C11 0.931 . S
H16 C12 0.930 . S
O17 Co6 2.039 . S
O17 C7 1.265 . S
C18 O14 1.253 . S
C18 O19 1.227 . S
O19 C18 1.227 . S
N20 Co6 2.140 . S
N20 C23 1.346 . S
N20 C24 1.345 1_455 S
C21 C22 1.387 . S
C21 C25 1.391 . S
C22 C21 1.387 . S
C22 C23 1.369 1_655 S
C22 H31 0.929 . S
C23 N20 1.346 . S
C23 C22 1.369 1_455 S
C23 H26 0.928 . S
C24 N20 1.345 1_655 S
C24 C25 1.371 . S
C24 H27 0.931 . S
C25 C21 1.391 . S
C25 C24 1.371 . S
C25 H32 0.930 . S
H26 C23 0.928 . S
H27 C24 0.931 . S
H28 C4 0.930 . S
H29 C1 0.930 . S
H30 C10 0.930 . S
H31 C22 0.929 . S
H32 C25 0.930 . S
C33 C34 1.351 . S
C33 N36 1.368 . S
C33 H38 0.931 . S
C34 C33 1.351 . S
C34 N35 1.373 . S
C34 H62 0.930 . S
N35 C34 1.373 . S
N35 C37 1.340 . S
N36 C33 1.368 . S
N36 C37 1.321 . S
N36 Co39 2.135 . S
C37 N35 1.340 . S
C37 N36 1.321 . S
C37 H61 0.930 . S
H38 C33 0.931 . S
Co39 N36 2.135 . S
Co39 N42 2.121 . S
Co39 O47 2.055 . S
Co39 O50 2.039 . S
Co39 N53 2.140 . S
C40 O41 1.227 . S
C40 O50 1.265 . S
O41 C40 1.227 . S
N42 Co39 2.121 . S
N42 C44 1.375 . S
N42 C45 1.313 . S
C43 C44 1.338 . S
C43 N46 1.377 . S
C43 H63 0.930 . S
C44 N42 1.375 . S
C44 C43 1.338 . S
C44 H48 0.931 . S
C45 N42 1.313 . S
C45 N46 1.344 . S
C45 H49 0.930 . S
N46 C43 1.377 . S
N46 C45 1.344 . S
O47 Co39 2.055 . S
O47 C51 1.253 . S
H48 C44 0.931 . S
H49 C45 0.930 . S
O50 Co39 2.039 . S
O50 C40 1.265 . S
C51 O47 1.253 . S
C51 O52 1.227 . S
O52 C51 1.227 . S
N53 Co39 2.140 . S
N53 C56 1.346 . S
N53 C57 1.345 1_455 S
C54 C55 1.387 . S
C54 C58 1.391 . S
C55 C54 1.387 . S
C55 C56 1.369 1_655 S
C55 H64 0.929 . S
C56 N53 1.346 . S
C56 C55 1.369 1_455 S
C56 H59 0.928 . S
C57 N53 1.345 1_655 S
C57 C58 1.371 . S
C57 H60 0.931 . S
C58 C54 1.391 . S
C58 C57 1.371 . S
C58 H65 0.930 . S
H59 C56 0.928 . S
H60 C57 0.931 . S
H61 C37 0.930 . S
H62 C34 0.930 . S
H63 C43 0.930 . S
H64 C55 0.929 . S
H65 C58 0.930 . S
C66 C67 1.351 . S
C66 N69 1.368 . S
C66 H71 0.931 . S
C67 C66 1.351 . S
C67 N68 1.373 . S
C67 H95 0.930 . S
N68 C67 1.373 . S
N68 C70 1.340 . S
N69 C66 1.368 . S
N69 C70 1.321 . S
N69 Co72 2.135 . S
C70 N68 1.340 . S
C70 N69 1.321 . S
C70 H94 0.930 . S
H71 C66 0.931 . S
Co72 N69 2.135 . S
Co72 N75 2.121 . S
Co72 O80 2.055 . S
Co72 O83 2.039 . S
Co72 N86 2.140 . S
C73 O74 1.227 . S
C73 O83 1.265 . S
O74 C73 1.227 . S
N75 Co72 2.121 . S
N75 C77 1.375 . S
N75 C78 1.313 . S
C76 C77 1.338 . S
C76 N79 1.377 . S
C76 H96 0.930 . S
C77 N75 1.375 . S
C77 C76 1.338 . S
C77 H81 0.931 . S
C78 N75 1.313 . S
C78 N79 1.344 . S
C78 H82 0.930 . S
N79 C76 1.377 . S
N79 C78 1.344 . S
O80 Co72 2.055 . S
O80 C84 1.253 . S
H81 C77 0.931 . S
H82 C78 0.930 . S
O83 Co72 2.039 . S
O83 C73 1.265 . S
C84 O80 1.253 . S
C84 O85 1.227 . S
O85 C84 1.227 . S
N86 Co72 2.140 . S
N86 C89 1.346 . S
N86 C90 1.345 1_655 S
C87 C88 1.387 . S
C87 C91 1.391 . S
C88 C87 1.387 . S
C88 C89 1.369 1_455 S
C88 H97 0.929 . S
C89 N86 1.346 . S
C89 C88 1.369 1_655 S
C89 H92 0.928 . S
C90 N86 1.345 1_455 S
C90 C91 1.371 . S
C90 H93 0.931 . S
C91 C87 1.391 . S
C91 C90 1.371 . S
C91 H98 0.930 . S
H92 C89 0.928 . S
H93 C90 0.931 . S
H94 C70 0.930 . S
H95 C67 0.930 . S
H96 C76 0.930 . S
H97 C88 0.929 . S
H98 C91 0.930 . S
C99 C100 1.351 . S
C99 N102 1.368 . S
C99 H104 0.931 . S
C100 C99 1.351 . S
C100 N101 1.373 . S
C100 H128 0.930 . S
N101 C100 1.373 . S
N101 C103 1.340 . S
N102 C99 1.368 . S
N102 C103 1.321 . S
N102 Co105 2.135 . S
C103 N101 1.340 . S
C103 N102 1.321 . S
C103 H127 0.930 . S
H104 C99 0.931 . S
Co105 N102 2.135 . S
Co105 N108 2.121 . S
Co105 O113 2.055 . S
Co105 O116 2.039 . S
Co105 N119 2.140 . S
C106 O107 1.227 . S
C106 O116 1.265 . S
O107 C106 1.227 . S
N108 Co105 2.121 . S
N108 C110 1.375 . S
N108 C111 1.313 . S
C109 C110 1.338 . S
C109 N112 1.377 . S
C109 H129 0.930 . S
C110 N108 1.375 . S
C110 C109 1.338 . S
C110 H114 0.931 . S
C111 N108 1.313 . S
C111 N112 1.344 . S
C111 H115 0.930 . S
N112 C109 1.377 . S
N112 C111 1.344 . S
O113 Co105 2.055 . S
O113 C117 1.253 . S
H114 C110 0.931 . S
H115 C111 0.930 . S
O116 Co105 2.039 . S
O116 C106 1.265 . S
C117 O113 1.253 . S
C117 O118 1.227 . S
O118 C117 1.227 . S
N119 Co105 2.140 . S
N119 C122 1.346 . S
N119 C123 1.345 1_655 S
C120 C121 1.387 . S
C120 C124 1.391 . S
C121 C120 1.387 . S
C121 C122 1.369 1_455 S
C121 H130 0.929 . S
C122 N119 1.346 . S
C122 C121 1.369 1_655 S
C122 H125 0.928 . S
C123 N119 1.345 1_455 S
C123 C124 1.371 . S
C123 H126 0.931 . S
C124 C120 1.391 . S
C124 C123 1.371 . S
C124 H131 0.930 . S
H125 C122 0.928 . S
H126 C123 0.931 . S
H127 C103 0.930 . S
H128 C100 0.930 . S
H129 C109 0.930 . S
H130 C121 0.929 . S
H131 C124 0.930 . S
C132 C133 1.351 . S
C132 N135 1.366 1_554 S
C132 H137 0.931 . S
C133 C132 1.351 . S
C133 N134 1.373 1_554 S
C133 H161 0.930 . S
N134 C133 1.373 1_556 S
N134 C136 1.340 . S
N135 C132 1.366 1_556 S
N135 C136 1.323 . S
N135 Co138 2.135 . S
C136 N134 1.340 . S
C136 N135 1.323 . S
C136 H160 0.930 . S
H137 C132 0.931 . S
Co138 N135 2.135 . S
Co138 N141 2.121 . S
Co138 O146 2.055 1_556 S
Co138 O149 2.039 . S
Co138 N152 2.140 . S
C139 O140 1.227 . S
C139 O149 1.265 . S
O140 C139 1.227 . S
N141 Co138 2.121 . S
N141 C143 1.375 . S
N141 C144 1.313 . S
C142 C143 1.338 . S
C142 N145 1.377 . S
C142 H162 0.930 . S
C143 N141 1.375 . S
C143 C142 1.338 . S
C143 H147 0.931 . S
C144 N141 1.313 . S
C144 N145 1.344 . S
C144 H148 0.930 1_556 S
N145 C142 1.377 . S
N145 C144 1.344 . S
O146 Co138 2.055 1_554 S
O146 C150 1.253 . S
H147 C143 0.931 . S
H148 C144 0.930 1_554 S
O149 Co138 2.039 . S
O149 C139 1.265 . S
C150 O146 1.253 . S
C150 O151 1.227 . S
O151 C150 1.227 . S
N152 Co138 2.140 . S
N152 C155 1.346 . S
N152 C156 1.345 1_455 S
C153 C154 1.387 . S
C153 C157 1.391 . S
C154 C153 1.387 . S
C154 C155 1.369 1_655 S
C154 H163 0.929 . S
C155 N152 1.346 . S
C155 C154 1.369 1_455 S
C155 H158 0.928 . S
C156 N152 1.345 1_655 S
C156 C157 1.371 . S
C156 H159 0.931 . S
C157 C153 1.391 . S
C157 C156 1.371 . S
C157 H164 0.930 . S
H158 C155 0.928 . S
H159 C156 0.931 . S
H160 C136 0.930 . S
H161 C133 0.930 . S
H162 C142 0.930 . S
H163 C154 0.929 . S
H164 C157 0.930 . S
C165 C166 1.351 . S
C165 N168 1.368 . S
C165 H170 0.931 . S
C166 C165 1.351 . S
C166 N167 1.373 . S
C166 H194 0.930 . S
N167 C166 1.373 . S
N167 C169 1.340 . S
N168 C165 1.368 . S
N168 C169 1.321 . S
N168 Co171 2.135 . S
C169 N167 1.340 . S
C169 N168 1.321 . S
C169 H193 0.930 . S
H170 C165 0.931 . S
Co171 N168 2.135 . S
Co171 N174 2.121 . S
Co171 O179 2.055 . S
Co171 O182 2.039 . S
Co171 N185 2.140 . S
C172 O173 1.227 . S
C172 O182 1.265 . S
O173 C172 1.227 . S
N174 Co171 2.121 . S
N174 C176 1.375 . S
N174 C177 1.313 . S
C175 C176 1.338 . S
C175 N178 1.377 . S
C175 H195 0.930 . S
C176 N174 1.375 . S
C176 C175 1.338 . S
C176 H180 0.931 . S
C177 N174 1.313 . S
C177 N178 1.344 . S
C177 H181 0.930 . S
N178 C175 1.377 . S
N178 C177 1.344 . S
O179 Co171 2.055 . S
O179 C183 1.253 . S
H180 C176 0.931 . S
H181 C177 0.930 . S
O182 Co171 2.039 . S
O182 C172 1.265 . S
C183 O179 1.253 . S
C183 O184 1.227 . S
O184 C183 1.227 . S
N185 Co171 2.140 . S
N185 C188 1.346 . S
N185 C189 1.345 1_455 S
C186 C187 1.387 . S
C186 C190 1.391 . S
C187 C186 1.387 . S
C187 C188 1.369 1_655 S
C187 H196 0.929 . S
C188 N185 1.346 . S
C188 C187 1.369 1_455 S
C188 H191 0.928 . S
C189 N185 1.345 1_655 S
C189 C190 1.371 . S
C189 H192 0.931 . S
C190 C186 1.391 . S
C190 C189 1.371 . S
C190 H197 0.930 . S
H191 C188 0.928 . S
H192 C189 0.931 . S
H193 C169 0.930 . S
H194 C166 0.930 . S
H195 C175 0.930 . S
H196 C187 0.929 . S
H197 C190 0.930 . S
C198 C199 1.351 . S
C198 N201 1.366 1_556 S
C198 H203 0.931 . S
C199 C198 1.351 . S
C199 N200 1.373 1_556 S
C199 H227 0.930 . S
N200 C199 1.373 1_554 S
N200 C202 1.340 . S
N201 C198 1.366 1_554 S
N201 C202 1.323 . S
N201 Co204 2.135 . S
C202 N200 1.340 . S
C202 N201 1.323 . S
C202 H226 0.930 . S
H203 C198 0.931 . S
Co204 N201 2.135 . S
Co204 N207 2.121 . S
Co204 O212 2.055 1_554 S
Co204 O215 2.039 . S
Co204 N218 2.140 . S
C205 O206 1.227 . S
C205 O215 1.265 . S
O206 C205 1.227 . S
N207 Co204 2.121 . S
N207 C209 1.375 . S
N207 C210 1.313 . S
C208 C209 1.338 . S
C208 N211 1.377 . S
C208 H228 0.930 . S
C209 N207 1.375 . S
C209 C208 1.338 . S
C209 H213 0.931 . S
C210 N207 1.313 . S
C210 N211 1.344 . S
C210 H214 0.930 1_554 S
N211 C208 1.377 . S
N211 C210 1.344 . S
O212 Co204 2.055 1_556 S
O212 C216 1.253 . S
H213 C209 0.931 . S
H214 C210 0.930 1_556 S
O215 Co204 2.039 . S
O215 C205 1.265 . S
C216 O212 1.253 . S
C216 O217 1.227 . S
O217 C216 1.227 . S
N218 Co204 2.140 . S
N218 C221 1.346 . S
N218 C222 1.345 1_655 S
C219 C220 1.387 . S
C219 C223 1.391 . S
C220 C219 1.387 . S
C220 C221 1.369 1_455 S
C220 H229 0.929 . S
C221 N218 1.346 . S
C221 C220 1.369 1_655 S
C221 H224 0.928 . S
C222 N218 1.345 1_455 S
C222 C223 1.371 . S
C222 H225 0.931 . S
C223 C219 1.391 . S
C223 C222 1.371 . S
C223 H230 0.930 . S
H224 C221 0.928 . S
H225 C222 0.931 . S
H226 C202 0.930 . S
H227 C199 0.930 . S
H228 C208 0.930 . S
H229 C220 0.929 . S
H230 C223 0.930 . S
C231 C232 1.351 . S
C231 N234 1.368 . S
C231 H236 0.931 . S
C232 C231 1.351 . S
C232 N233 1.373 . S
C232 H260 0.930 . S
N233 C232 1.373 . S
N233 C235 1.340 . S
N234 C231 1.368 . S
N234 C235 1.321 . S
N234 Co237 2.135 . S
C235 N233 1.340 . S
C235 N234 1.321 . S
C235 H259 0.930 . S
H236 C231 0.931 . S
Co237 N234 2.135 . S
Co237 N240 2.121 . S
Co237 O245 2.055 . S
Co237 O248 2.039 . S
Co237 N251 2.140 . S
C238 O239 1.227 . S
C238 O248 1.265 . S
O239 C238 1.227 . S
N240 Co237 2.121 . S
N240 C242 1.375 . S
N240 C243 1.313 . S
C241 C242 1.338 . S
C241 N244 1.377 . S
C241 H261 0.930 . S
C242 N240 1.375 . S
C242 C241 1.338 . S
C242 H246 0.931 . S
C243 N240 1.313 . S
C243 N244 1.344 . S
C243 H247 0.930 . S
N244 C241 1.377 . S
N244 C243 1.344 . S
O245 Co237 2.055 . S
O245 C249 1.253 . S
H246 C242 0.931 . S
H247 C243 0.930 . S
O248 Co237 2.039 . S
O248 C238 1.265 . S
C249 O245 1.253 . S
C249 O250 1.227 . S
O250 C249 1.227 . S
N251 Co237 2.140 . S
N251 C254 1.346 . S
N251 C255 1.345 1_655 S
C252 C253 1.387 . S
C252 C256 1.391 . S
C253 C252 1.387 . S
C253 C254 1.369 1_455 S
C253 H262 0.929 . S
C254 N251 1.346 . S
C254 C253 1.369 1_655 S
C254 H257 0.928 . S
C255 N251 1.345 1_455 S
C255 C256 1.371 . S
C255 H258 0.931 . S
C256 C252 1.391 . S
C256 C255 1.371 . S
C256 H263 0.930 . S
H257 C254 0.928 . S
H258 C255 0.931 . S
H259 C235 0.930 . S
H260 C232 0.930 . S
H261 C241 0.930 . S
H262 C253 0.929 . S
H263 C256 0.930 . S
C264 C265 1.351 . S
C264 N267 1.366 1_554 S
C264 H269 0.931 . S
C265 C264 1.351 . S
C265 N266 1.373 1_554 S
C265 H293 0.930 . S
N266 C265 1.373 1_556 S
N266 C268 1.340 . S
N267 C264 1.366 1_556 S
N267 C268 1.323 . S
N267 Co270 2.135 . S
C268 N266 1.340 . S
C268 N267 1.323 . S
C268 H292 0.930 . S
H269 C264 0.931 . S
Co270 N267 2.135 . S
Co270 N273 2.121 . S
Co270 O278 2.055 1_556 S
Co270 O281 2.039 . S
Co270 N284 2.140 . S
C271 O272 1.227 . S
C271 O281 1.265 . S
O272 C271 1.227 . S
N273 Co270 2.121 . S
N273 C275 1.375 . S
N273 C276 1.313 . S
C274 C275 1.338 . S
C274 N277 1.377 . S
C274 H294 0.930 . S
C275 N273 1.375 . S
C275 C274 1.338 . S
C275 H279 0.931 . S
C276 N273 1.313 . S
C276 N277 1.344 . S
C276 H280 0.930 1_556 S
N277 C274 1.377 . S
N277 C276 1.344 . S
O278 Co270 2.055 1_554 S
O278 C282 1.253 . S
H279 C275 0.931 . S
H280 C276 0.930 1_554 S
O281 Co270 2.039 . S
O281 C271 1.265 . S
C282 O278 1.253 . S
C282 O283 1.227 . S
O283 C282 1.227 . S
N284 Co270 2.140 . S
N284 C287 1.346 . S
N284 C288 1.345 . S
C285 C286 1.387 . S
C285 C289 1.391 . S
C286 C285 1.387 . S
C286 C287 1.369 . S
C286 H295 0.929 . S
C287 N284 1.346 . S
C287 C286 1.369 . S
C287 H290 0.928 . S
C288 N284 1.345 . S
C288 C289 1.371 . S
C288 H291 0.931 . S
C289 C285 1.391 . S
C289 C288 1.371 . S
C289 H296 0.930 . S
H290 C287 0.928 . S
H291 C288 0.931 . S
H292 C268 0.930 . S
H293 C265 0.930 . S
H294 C274 0.930 . S
H295 C286 0.929 . S
H296 C289 0.930 . S
C297 C298 1.351 . S
C297 N300 1.368 . S
C297 H302 0.931 . S
C298 C297 1.351 . S
C298 N299 1.373 . S
C298 H326 0.930 . S
N299 C298 1.373 . S
N299 C301 1.340 . S
N300 C297 1.368 . S
N300 C301 1.321 . S
N300 Co303 2.135 . S
C301 N299 1.340 . S
C301 N300 1.321 . S
C301 H325 0.930 . S
H302 C297 0.931 . S
Co303 N300 2.135 . S
Co303 N306 2.121 . S
Co303 O311 2.055 . S
Co303 O314 2.039 . S
Co303 N317 2.140 . S
C304 O305 1.227 . S
C304 O314 1.265 . S
O305 C304 1.227 . S
N306 Co303 2.121 . S
N306 C308 1.375 . S
N306 C309 1.313 . S
C307 C308 1.338 . S
C307 N310 1.377 . S
C307 H327 0.930 . S
C308 N306 1.375 . S
C308 C307 1.338 . S
C308 H312 0.931 . S
C309 N306 1.313 . S
C309 N310 1.344 . S
C309 H313 0.930 . S
N310 C307 1.377 . S
N310 C309 1.344 . S
O311 Co303 2.055 . S
O311 C315 1.253 . S
H312 C308 0.931 . S
H313 C309 0.930 . S
O314 Co303 2.039 . S
O314 C304 1.265 . S
C315 O311 1.253 . S
C315 O316 1.227 . S
O316 C315 1.227 . S
N317 Co303 2.140 . S
N317 C320 1.346 . S
N317 C321 1.345 . S
C318 C319 1.387 . S
C318 C322 1.391 . S
C319 C318 1.387 . S
C319 C320 1.369 . S
C319 H328 0.929 . S
C320 N317 1.346 . S
C320 C319 1.369 . S
C320 H323 0.928 . S
C321 N317 1.345 . S
C321 C322 1.371 . S
C321 H324 0.931 . S
C322 C318 1.391 . S
C322 C321 1.371 . S
C322 H329 0.930 . S
H323 C320 0.928 . S
H324 C321 0.931 . S
H325 C301 0.930 . S
H326 C298 0.930 . S
H327 C307 0.930 . S
H328 C319 0.929 . S
H329 C322 0.930 . S
C330 C331 1.351 . S
C330 N333 1.366 1_556 S
C330 H335 0.931 . S
C331 C330 1.351 . S
C331 N332 1.373 1_556 S
C331 H359 0.930 . S
N332 C331 1.373 1_554 S
N332 C334 1.340 . S
N333 C330 1.366 1_554 S
N333 C334 1.323 . S
N333 Co336 2.135 . S
C334 N332 1.340 . S
C334 N333 1.323 . S
C334 H358 0.930 . S
H335 C330 0.931 . S
Co336 N333 2.135 . S
Co336 N339 2.121 . S
Co336 O344 2.055 1_554 S
Co336 O347 2.039 . S
Co336 N350 2.140 . S
C337 O338 1.227 . S
C337 O347 1.265 . S
O338 C337 1.227 . S
N339 Co336 2.121 . S
N339 C341 1.375 . S
N339 C342 1.313 . S
C340 C341 1.338 . S
C340 N343 1.377 . S
C340 H360 0.930 . S
C341 N339 1.375 . S
C341 C340 1.338 . S
C341 H345 0.931 . S
C342 N339 1.313 . S
C342 N343 1.344 . S
C342 H346 0.930 1_554 S
N343 C340 1.377 . S
N343 C342 1.344 . S
O344 Co336 2.055 1_556 S
O344 C348 1.253 . S
H345 C341 0.931 . S
H346 C342 0.930 1_556 S
O347 Co336 2.039 . S
O347 C337 1.265 . S
C348 O344 1.253 . S
C348 O349 1.227 . S
O349 C348 1.227 . S
N350 Co336 2.140 . S
N350 C353 1.346 . S
N350 C354 1.345 . S
C351 C352 1.387 . S
C351 C355 1.391 . S
C352 C351 1.387 . S
C352 C353 1.369 . S
C352 H361 0.929 . S
C353 N350 1.346 . S
C353 C352 1.369 . S
C353 H356 0.928 . S
C354 N350 1.345 . S
C354 C355 1.371 . S
C354 H357 0.931 . S
C355 C351 1.391 . S
C355 C354 1.371 . S
C355 H362 0.930 . S
H356 C353 0.928 . S
H357 C354 0.931 . S
H358 C334 0.930 . S
H359 C331 0.930 . S
H360 C340 0.930 . S
H361 C352 0.929 . S
H362 C355 0.930 . S
C363 C364 1.351 . S
C363 N366 1.368 . S
C363 H368 0.931 . S
C364 C363 1.351 . S
C364 N365 1.373 . S
C364 H392 0.930 . S
N365 C364 1.373 . S
N365 C367 1.340 . S
N366 C363 1.368 . S
N366 C367 1.321 . S
N366 Co369 2.135 . S
C367 N365 1.340 . S
C367 N366 1.321 . S
C367 H391 0.930 . S
H368 C363 0.931 . S
Co369 N366 2.135 . S
Co369 N372 2.121 . S
Co369 O377 2.055 . S
Co369 O380 2.039 . S
Co369 N383 2.140 . S
C370 O371 1.227 . S
C370 O380 1.265 . S
O371 C370 1.227 . S
N372 Co369 2.121 . S
N372 C374 1.375 . S
N372 C375 1.313 . S
C373 C374 1.338 . S
C373 N376 1.377 . S
C373 H393 0.930 . S
C374 N372 1.375 . S
C374 C373 1.338 . S
C374 H378 0.931 . S
C375 N372 1.313 . S
C375 N376 1.344 . S
C375 H379 0.930 . S
N376 C373 1.377 . S
N376 C375 1.344 . S
O377 Co369 2.055 . S
O377 C381 1.253 . S
H378 C374 0.931 . S
H379 C375 0.930 . S
O380 Co369 2.039 . S
O380 C370 1.265 . S
C381 O377 1.253 . S
C381 O382 1.227 . S
O382 C381 1.227 . S
N383 Co369 2.140 . S
N383 C386 1.346 . S
N383 C387 1.345 . S
C384 C385 1.387 . S
C384 C388 1.391 . S
C385 C384 1.387 . S
C385 C386 1.369 . S
C385 H394 0.929 . S
C386 N383 1.346 . S
C386 C385 1.369 . S
C386 H389 0.928 . S
C387 N383 1.345 . S
C387 C388 1.371 . S
C387 H390 0.931 . S
C388 C384 1.391 . S
C388 C387 1.371 . S
C388 H395 0.930 . S
H389 C386 0.928 . S
H390 C387 0.931 . S
H391 C367 0.930 . S
H392 C364 0.930 . S
H393 C373 0.930 . S
H394 C385 0.929 . S
H395 C388 0.930 . S
C396 C397 1.351 . S
C396 N399 1.368 . S
C396 H401 0.931 . S
C397 C396 1.351 . S
C397 N398 1.373 . S
C397 H425 0.930 . S
N398 C397 1.373 . S
N398 C400 1.340 . S
N399 C396 1.368 . S
N399 C400 1.321 . S
N399 Co402 2.135 . S
C400 N398 1.340 . S
C400 N399 1.321 . S
C400 H424 0.930 . S
H401 C396 0.931 . S
Co402 N399 2.135 . S
Co402 N405 2.121 . S
Co402 O410 2.055 . S
Co402 O413 2.039 . S
Co402 N416 2.140 . S
C403 O404 1.227 . S
C403 O413 1.265 . S
O404 C403 1.227 . S
N405 Co402 2.121 . S
N405 C407 1.375 . S
N405 C408 1.313 . S
C406 C407 1.338 . S
C406 N409 1.377 . S
C406 H426 0.930 . S
C407 N405 1.375 . S
C407 C406 1.338 . S
C407 H411 0.931 . S
C408 N405 1.313 . S
C408 N409 1.344 . S
C408 H412 0.930 . S
N409 C406 1.377 . S
N409 C408 1.344 . S
O410 Co402 2.055 . S
O410 C414 1.253 . S
H411 C407 0.931 . S
H412 C408 0.930 . S
O413 Co402 2.039 . S
O413 C403 1.265 . S
C414 O410 1.253 . S
C414 O415 1.227 . S
O415 C414 1.227 . S
N416 Co402 2.140 . S
N416 C419 1.346 . S
N416 C420 1.345 . S
C417 C418 1.387 . S
C417 C421 1.391 . S
C418 C417 1.387 . S
C418 C419 1.369 . S
C418 H427 0.929 . S
C419 N416 1.346 . S
C419 C418 1.369 . S
C419 H422 0.928 . S
C420 N416 1.345 . S
C420 C421 1.371 . S
C420 H423 0.931 . S
C421 C417 1.391 . S
C421 C420 1.371 . S
C421 H428 0.930 . S
H422 C419 0.928 . S
H423 C420 0.931 . S
H424 C400 0.930 . S
H425 C397 0.930 . S
H426 C406 0.930 . S
H427 C418 0.929 . S
H428 C421 0.930 . S
C429 C430 1.351 . S
C429 N432 1.368 . S
C429 H434 0.931 . S
C430 C429 1.351 . S
C430 N431 1.373 . S
C430 H458 0.930 . S
N431 C430 1.373 . S
N431 C433 1.340 . S
N432 C429 1.368 . S
N432 C433 1.321 . S
N432 Co435 2.135 . S
C433 N431 1.340 . S
C433 N432 1.321 . S
C433 H457 0.930 . S
H434 C429 0.931 . S
Co435 N432 2.135 . S
Co435 N438 2.121 . S
Co435 O443 2.055 . S
Co435 O446 2.039 . S
Co435 N449 2.140 . S
C436 O437 1.227 . S
C436 O446 1.265 . S
O437 C436 1.227 . S
N438 Co435 2.121 . S
N438 C440 1.375 . S
N438 C441 1.313 . S
C439 C440 1.338 . S
C439 N442 1.377 . S
C439 H459 0.930 . S
C440 N438 1.375 . S
C440 C439 1.338 . S
C440 H444 0.931 . S
C441 N438 1.313 . S
C441 N442 1.344 . S
C441 H445 0.930 . S
N442 C439 1.377 . S
N442 C441 1.344 . S
O443 Co435 2.055 . S
O443 C447 1.253 . S
H444 C440 0.931 . S
H445 C441 0.930 . S
O446 Co435 2.039 . S
O446 C436 1.265 . S
C447 O443 1.253 . S
C447 O448 1.227 . S
O448 C447 1.227 . S
N449 Co435 2.140 . S
N449 C452 1.346 . S
N449 C453 1.345 . S
C450 C451 1.387 . S
C450 C454 1.391 . S
C451 C450 1.387 . S
C451 C452 1.369 . S
C451 H460 0.929 . S
C452 N449 1.346 . S
C452 C451 1.369 . S
C452 H455 0.928 . S
C453 N449 1.345 . S
C453 C454 1.371 . S
C453 H456 0.931 . S
C454 C450 1.391 . S
C454 C453 1.371 . S
C454 H461 0.930 . S
H455 C452 0.928 . S
H456 C453 0.931 . S
H457 C433 0.930 . S
H458 C430 0.930 . S
H459 C439 0.930 . S
H460 C451 0.929 . S
H461 C454 0.930 . S
C462 C463 1.351 . S
C462 N465 1.368 . S
C462 H467 0.931 . S
C463 C462 1.351 . S
C463 N464 1.373 . S
C463 H491 0.930 . S
N464 C463 1.373 . S
N464 C466 1.340 . S
N465 C462 1.368 . S
N465 C466 1.321 . S
N465 Co468 2.135 . S
C466 N464 1.340 . S
C466 N465 1.321 . S
C466 H490 0.930 . S
H467 C462 0.931 . S
Co468 N465 2.135 . S
Co468 N471 2.121 . S
Co468 O476 2.055 . S
Co468 O479 2.039 . S
Co468 N482 2.140 . S
C469 O470 1.227 . S
C469 O479 1.265 . S
O470 C469 1.227 . S
N471 Co468 2.121 . S
N471 C473 1.375 . S
N471 C474 1.313 . S
C472 C473 1.338 . S
C472 N475 1.377 . S
C472 H492 0.930 . S
C473 N471 1.375 . S
C473 C472 1.338 . S
C473 H477 0.931 . S
C474 N471 1.313 . S
C474 N475 1.344 . S
C474 H478 0.930 . S
N475 C472 1.377 . S
N475 C474 1.344 . S
O476 Co468 2.055 . S
O476 C480 1.253 . S
H477 C473 0.931 . S
H478 C474 0.930 . S
O479 Co468 2.039 . S
O479 C469 1.265 . S
C480 O476 1.253 . S
C480 O481 1.227 . S
O481 C480 1.227 . S
N482 Co468 2.140 . S
N482 C485 1.346 . S
N482 C486 1.345 . S
C483 C484 1.387 . S
C483 C487 1.391 . S
C484 C483 1.387 . S
C484 C485 1.369 . S
C484 H493 0.929 . S
C485 N482 1.346 . S
C485 C484 1.369 . S
C485 H488 0.928 . S
C486 N482 1.345 . S
C486 C487 1.371 . S
C486 H489 0.931 . S
C487 C483 1.391 . S
C487 C486 1.371 . S
C487 H494 0.930 . S
H488 C485 0.928 . S
H489 C486 0.931 . S
H490 C466 0.930 . S
H491 C463 0.930 . S
H492 C472 0.930 . S
H493 C484 0.929 . S
H494 C487 0.930 . S
C495 C496 1.351 . S
C495 N498 1.368 . S
C495 H500 0.931 . S
C496 C495 1.351 . S
C496 N497 1.373 . S
C496 H524 0.930 . S
N497 C496 1.373 . S
N497 C499 1.340 . S
N498 C495 1.368 . S
N498 C499 1.321 . S
N498 Co501 2.135 . S
C499 N497 1.340 . S
C499 N498 1.321 . S
C499 H523 0.930 . S
H500 C495 0.931 . S
Co501 N498 2.135 . S
Co501 N504 2.121 . S
Co501 O509 2.055 . S
Co501 O512 2.039 . S
Co501 N515 2.140 . S
C502 O503 1.227 . S
C502 O512 1.265 . S
O503 C502 1.227 . S
N504 Co501 2.121 . S
N504 C506 1.375 . S
N504 C507 1.313 . S
C505 C506 1.338 . S
C505 N508 1.377 . S
C505 H525 0.930 . S
C506 N504 1.375 . S
C506 C505 1.338 . S
C506 H510 0.931 . S
C507 N504 1.313 . S
C507 N508 1.344 . S
C507 H511 0.930 . S
N508 C505 1.377 . S
N508 C507 1.344 . S
O509 Co501 2.055 . S
O509 C513 1.253 . S
H510 C506 0.931 . S
H511 C507 0.930 . S
O512 Co501 2.039 . S
O512 C502 1.265 . S
C513 O509 1.253 . S
C513 O514 1.227 . S
O514 C513 1.227 . S
N515 Co501 2.140 . S
N515 C518 1.346 . S
N515 C519 1.345 . S
C516 C517 1.387 . S
C516 C520 1.391 . S
C517 C516 1.387 . S
C517 C518 1.369 . S
C517 H526 0.929 . S
C518 N515 1.346 . S
C518 C517 1.369 . S
C518 H521 0.928 . S
C519 N515 1.345 . S
C519 C520 1.371 . S
C519 H522 0.931 . S
C520 C516 1.391 . S
C520 C519 1.371 . S
C520 H527 0.930 . S
H521 C518 0.928 . S
H522 C519 0.931 . S
H523 C499 0.930 . S
H524 C496 0.930 . S
H525 C505 0.930 . S
H526 C517 0.929 . S
H527 C520 0.930 . S
C528 C529 1.369 . S
C528 C530 1.419 . S
C528 H532 0.930 . S
C529 C528 1.369 . S
C529 C538 1.429 . S
C530 C528 1.419 . S
C530 C531 1.363 . S
C530 H533 0.929 . S
C531 C530 1.363 . S
C531 C537 1.428 . S
H532 C528 0.930 . S
H533 C530 0.929 . S
S534 N535 1.613 . S
S534 N536 1.610 . S
N535 S534 1.613 . S
N535 C538 1.350 . S
N536 S534 1.610 . S
N536 C537 1.351 . S
C537 C531 1.428 . S
C537 N536 1.351 . S
C537 C538 1.434 . S
C538 C529 1.429 . S
C538 N535 1.350 . S
C538 C537 1.434 . S
C539 C540 1.369 1_455 S
C539 C541 1.419 . S
C539 H543 0.930 . S
C540 C539 1.369 1_655 S
C540 C549 1.429 1_565 S
C541 C539 1.419 . S
C541 C542 1.363 1_565 S
C541 H544 0.929 . S
C542 C541 1.363 1_545 S
C542 C548 1.428 1_455 S
H543 C539 0.930 . S
H544 C541 0.929 . S
S545 N546 1.613 . S
S545 N547 1.610 . S
N546 S545 1.613 . S
N546 C549 1.350 . S
N547 S545 1.610 . S
N547 C548 1.351 . S
C548 C542 1.428 1_655 S
C548 N547 1.351 . S
C548 C549 1.434 . S
C549 C540 1.429 1_545 S
C549 N546 1.350 . S
C549 C548 1.434 . S
C550 C551 1.369 . S
C550 C552 1.419 1_545 S
C550 H554 0.930 . S
C551 C550 1.369 . S
C551 C560 1.429 . S
C552 C550 1.419 1_565 S
C552 C553 1.363 . S
C552 H555 0.929 . S
C553 C552 1.363 . S
C553 C559 1.428 . S
H554 C550 0.930 . S
H555 C552 0.929 . S
S556 N557 1.613 . S
S556 N558 1.610 1_545 S
N557 S556 1.613 . S
N557 C560 1.350 . S
N558 S556 1.610 1_565 S
N558 C559 1.351 . S
C559 C553 1.428 . S
C559 N558 1.351 . S
C559 C560 1.434 1_565 S
C560 C551 1.429 . S
C560 N557 1.350 . S
C560 C559 1.434 1_545 S
C561 C562 1.372 . S
C561 C563 1.416 1_655 S
C561 H565 0.930 1_655 S
C562 C561 1.372 . S
C562 C571 1.429 . S
C563 C561 1.416 1_455 S
C563 C564 1.363 . S
C563 H566 0.929 . S
C564 C563 1.363 . S
C564 C570 1.428 1_455 S
H565 C561 0.930 1_455 S
H566 C563 0.929 . S
S567 N568 1.613 . S
S567 N569 1.610 . S
N568 S567 1.613 . S
N568 C571 1.350 . S
N569 S567 1.610 . S
N569 C570 1.351 . S
C570 C564 1.428 1_655 S
C570 N569 1.351 . S
C570 C571 1.434 . S
C571 C562 1.429 . S
C571 N568 1.350 . S
C571 C570 1.434 . S
C572 C573 1.369 . S
C572 C574 1.419 . S
C572 H576 0.930 . S
C573 C572 1.369 . S
C573 C582 1.429 . S
C574 C572 1.419 . S
C574 C575 1.363 . S
C574 H577 0.929 . S
C575 C574 1.363 . S
C575 C581 1.428 . S
H576 C572 0.930 . S
H577 C574 0.929 . S
S578 N579 1.613 . S
S578 N580 1.610 . S
N579 S578 1.613 . S
N579 C582 1.350 . S
N580 S578 1.610 . S
N580 C581 1.351 . S
C581 C575 1.428 . S
C581 N580 1.351 . S
C581 C582 1.434 . S
C582 C573 1.429 . S
C582 N579 1.350 . S
C582 C581 1.434 . S
C583 C584 1.369 . S
C583 C585 1.419 . S
C583 H587 0.930 . S
C584 C583 1.369 . S
C584 C593 1.429 1_565 S
C585 C583 1.419 . S
C585 C586 1.363 1_565 S
C585 H588 0.929 . S
C586 C585 1.363 1_545 S
C586 C592 1.428 . S
H587 C583 0.930 . S
H588 C585 0.929 . S
S589 N590 1.613 . S
S589 N591 1.610 . S
N590 S589 1.613 . S
N590 C593 1.350 . S
N591 S589 1.610 . S
N591 C592 1.351 . S
C592 C586 1.428 . S
C592 N591 1.351 . S
C592 C593 1.434 . S
C593 C584 1.429 1_545 S
C593 N590 1.350 . S
C593 C592 1.434 . S
C594 C595 1.369 1_455 S
C594 C596 1.419 . S
C594 H598 0.930 . S
C595 C594 1.369 1_655 S
C595 C604 1.429 . S
C596 C594 1.419 . S
C596 C597 1.363 . S
C596 H599 0.929 . S
C597 C596 1.363 . S
C597 C603 1.428 1_455 S
H598 C594 0.930 . S
H599 C596 0.929 . S
S600 N601 1.613 . S
S600 N602 1.610 . S
N601 S600 1.613 . S
N601 C604 1.350 . S
N602 S600 1.610 . S
N602 C603 1.351 . S
C603 C597 1.428 1_655 S
C603 N602 1.351 . S
C603 C604 1.434 . S
C604 C595 1.429 . S
C604 N601 1.350 . S
C604 C603 1.434 . S
C605 C606 1.369 . S
C605 C607 1.418 1_554 S
C605 H609 0.930 . S
C606 C605 1.369 . S
C606 C615 1.429 1_554 S
C607 C605 1.418 1_556 S
C607 C608 1.364 . S
C607 H610 0.929 . S
C608 C607 1.364 . S
C608 C614 1.428 . S
H609 C605 0.930 . S
H610 C607 0.929 . S
S611 N612 1.613 . S
S611 N613 1.610 . S
N612 S611 1.613 . S
N612 C615 1.350 . S
N613 S611 1.610 . S
N613 C614 1.351 . S
C614 C608 1.428 . S
C614 N613 1.351 . S
C614 C615 1.434 . S
C615 C606 1.429 1_556 S
C615 N612 1.350 . S
C615 C614 1.434 . S
C616 C617 1.369 . S
C616 C618 1.419 . S
C616 H620 0.930 . S
C617 C616 1.369 . S
C617 C626 1.429 1_654 S
C618 C616 1.419 . S
C618 C619 1.363 1_654 S
C618 H621 0.929 . S
C619 C618 1.363 1_456 S
C619 C625 1.428 . S
H620 C616 0.930 . S
H621 C618 0.929 . S
S622 N623 1.613 . S
S622 N624 1.610 . S
N623 S622 1.613 . S
N623 C626 1.350 . S
N624 S622 1.610 . S
N624 C625 1.351 . S
C625 C619 1.428 . S
C625 N624 1.351 . S
C625 C626 1.434 . S
C626 C617 1.429 1_456 S
C626 N623 1.350 . S
C626 C625 1.434 . S
C627 C628 1.369 . S
C627 C629 1.419 . S
C627 H631 0.930 . S
C628 C627 1.369 . S
C628 C637 1.429 . S
C629 C627 1.419 . S
C629 C630 1.363 . S
C629 H632 0.929 . S
C630 C629 1.363 . S
C630 C636 1.428 . S
H631 C627 0.930 . S
H632 C629 0.929 . S
S633 N634 1.613 . S
S633 N635 1.610 . S
N634 S633 1.613 . S
N634 C637 1.350 . S
N635 S633 1.610 . S
N635 C636 1.351 . S
C636 C630 1.428 . S
C636 N635 1.351 . S
C636 C637 1.434 . S
C637 C628 1.429 . S
C637 N634 1.350 . S
C637 C636 1.434 . S
C638 C639 1.369 1_554 S
C638 C640 1.419 . S
C638 H642 0.930 . S
C639 C638 1.369 1_556 S
C639 C648 1.429 . S
C640 C638 1.419 . S
C640 C641 1.363 . S
C640 H643 0.929 . S
C641 C640 1.363 . S
C641 C647 1.428 1_554 S
H642 C638 0.930 . S
H643 C640 0.929 . S
S644 N645 1.613 . S
S644 N646 1.610 . S
N645 S644 1.613 . S
N645 C648 1.350 . S
N646 S644 1.610 . S
N646 C647 1.351 . S
C647 C641 1.428 1_556 S
C647 N646 1.351 . S
C647 C648 1.434 . S
C648 C639 1.429 . S
C648 N645 1.350 . S
C648 C647 1.434 . S
C649 C650 1.369 . S
C649 C651 1.419 . S
C649 H653 0.930 . S
C650 C649 1.369 . S
C650 C659 1.429 . S
C651 C649 1.419 . S
C651 C652 1.363 . S
C651 H654 0.929 . S
C652 C651 1.363 . S
C652 C658 1.428 . S
H653 C649 0.930 . S
H654 C651 0.929 . S
S655 N656 1.613 . S
S655 N657 1.610 . S
N656 S655 1.613 . S
N656 C659 1.350 . S
N657 S655 1.610 . S
N657 C658 1.351 . S
C658 C652 1.428 . S
C658 N657 1.351 . S
C658 C659 1.434 . S
C659 C650 1.429 . S
C659 N656 1.350 . S
C659 C658 1.434 . S
C660 C661 1.369 1_554 S
C660 C662 1.419 . S
C660 H664 0.930 . S
C661 C660 1.369 1_556 S
C661 C670 1.429 1_545 S
C662 C660 1.419 . S
C662 C663 1.363 1_545 S
C662 H665 0.929 . S
C663 C662 1.363 1_565 S
C663 C669 1.428 1_554 S
H664 C660 0.930 . S
H665 C662 0.929 . S
S666 N667 1.613 . S
S666 N668 1.610 . S
N667 S666 1.613 . S
N667 C670 1.350 . S
N668 S666 1.610 . S
N668 C669 1.351 . S
C669 C663 1.428 1_556 S
C669 N668 1.351 . S
C669 C670 1.434 . S
C670 C661 1.429 1_565 S
C670 N667 1.350 . S
C670 C669 1.434 . S
C671 C672 1.369 . S
C671 C673 1.419 . S
C671 H675 0.930 . S
C672 C671 1.369 . S
C672 C681 1.429 . S
C673 C671 1.419 . S
C673 C674 1.363 . S
C673 H676 0.929 . S
C674 C673 1.363 . S
C674 C680 1.428 . S
H675 C671 0.930 . S
H676 C673 0.929 . S
S677 N678 1.613 . S
S677 N679 1.610 . S
N678 S677 1.613 . S
N678 C681 1.350 . S
N679 S677 1.610 . S
N679 C680 1.351 . S
C680 C674 1.428 . S
C680 N679 1.351 . S
C680 C681 1.434 . S
C681 C672 1.429 . S
C681 N678 1.350 . S
C681 C680 1.434 . S
C682 C683 1.369 . S
C682 C684 1.419 . S
C682 H686 0.930 . S
C683 C682 1.369 . S
C683 C692 1.429 . S
C684 C682 1.419 . S
C684 C685 1.363 . S
C684 H687 0.929 . S
C685 C684 1.363 . S
C685 C691 1.428 . S
H686 C682 0.930 . S
H687 C684 0.929 . S
S688 N689 1.613 . S
S688 N690 1.610 . S
N689 S688 1.613 . S
N689 C692 1.350 . S
N690 S688 1.610 . S
N690 C691 1.351 . S
C691 C685 1.428 . S
C691 N690 1.351 . S
C691 C692 1.434 . S
C692 C683 1.429 . S
C692 N689 1.350 . S
C692 C691 1.434 . S
C693 C694 1.369 . S
C693 C695 1.419 . S
C693 H697 0.930 . S
C694 C693 1.369 . S
C694 C703 1.429 . S
C695 C693 1.419 . S
C695 C696 1.363 . S
C695 H698 0.929 . S
C696 C695 1.363 . S
C696 C702 1.428 . S
H697 C693 0.930 . S
H698 C695 0.929 . S
S699 N700 1.613 . S
S699 N701 1.610 . S
N700 S699 1.613 . S
N700 C703 1.350 . S
N701 S699 1.610 . S
N701 C702 1.351 . S
C702 C696 1.428 . S
C702 N701 1.351 . S
C702 C703 1.434 . S
C703 C694 1.429 . S
C703 N700 1.350 . S
C703 C702 1.434 . S
C704 C705 1.369 . S
C704 C706 1.419 . S
C704 H708 0.930 . S
C705 C704 1.369 . S
C705 C714 1.429 . S
C706 C704 1.419 . S
C706 C707 1.363 . S
C706 H709 0.929 . S
C707 C706 1.363 . S
C707 C713 1.428 . S
H708 C704 0.930 . S
H709 C706 0.929 . S
S710 N711 1.613 . S
S710 N712 1.610 . S
N711 S710 1.613 . S
N711 C714 1.350 . S
N712 S710 1.610 . S
N712 C713 1.351 . S
C713 C707 1.428 . S
C713 N712 1.351 . S
C713 C714 1.434 . S
C714 C705 1.429 . S
C714 N711 1.350 . S
C714 C713 1.434 . S
C715 C716 1.369 . S
C715 C717 1.419 . S
C715 H719 0.930 . S
C716 C715 1.369 . S
C716 C725 1.429 . S
C717 C715 1.419 . S
C717 C718 1.363 . S
C717 H720 0.929 . S
C718 C717 1.363 . S
C718 C724 1.428 . S
H719 C715 0.930 . S
H720 C717 0.929 . S
S721 N722 1.613 . S
S721 N723 1.610 . S
N722 S721 1.613 . S
N722 C725 1.350 . S
N723 S721 1.610 . S
N723 C724 1.351 . S
C724 C718 1.428 . S
C724 N723 1.351 . S
C724 C725 1.434 . S
C725 C716 1.429 . S
C725 N722 1.350 . S
C725 C724 1.434 . S
C726 C727 1.369 . S
C726 C728 1.419 . S
C726 H730 0.930 . S
C727 C726 1.369 . S
C727 C736 1.429 . S
C728 C726 1.419 . S
C728 C729 1.363 . S
C728 H731 0.929 . S
C729 C728 1.363 . S
C729 C735 1.428 . S
H730 C726 0.930 . S
H731 C728 0.929 . S
S732 N733 1.613 . S
S732 N734 1.610 . S
N733 S732 1.613 . S
N733 C736 1.350 . S
N734 S732 1.610 . S
N734 C735 1.351 . S
C735 C729 1.428 . S
C735 N734 1.351 . S
C735 C736 1.434 . S
C736 C727 1.429 . S
C736 N733 1.350 . S
C736 C735 1.434 . S
C737 C738 1.369 . S
C737 C739 1.419 . S
C737 H741 0.930 . S
C738 C737 1.369 . S
C738 C747 1.429 . S
C739 C737 1.419 . S
C739 C740 1.363 . S
C739 H742 0.929 . S
C740 C739 1.363 . S
C740 C746 1.428 . S
H741 C737 0.930 . S
H742 C739 0.929 . S
S743 N744 1.613 . S
S743 N745 1.610 . S
N744 S743 1.613 . S
N744 C747 1.350 . S
N745 S743 1.610 . S
N745 C746 1.351 . S
C746 C740 1.428 . S
C746 N745 1.351 . S
C746 C747 1.434 . S
C747 C738 1.429 . S
C747 N744 1.350 . S
C747 C746 1.434 . S
C748 C749 1.369 . S
C748 C750 1.419 . S
C748 H752 0.930 . S
C749 C748 1.369 . S
C749 C758 1.429 . S
C750 C748 1.419 . S
C750 C751 1.363 . S
C750 H753 0.929 . S
C751 C750 1.363 . S
C751 C757 1.428 . S
H752 C748 0.930 . S
H753 C750 0.929 . S
S754 N755 1.613 . S
S754 N756 1.610 . S
N755 S754 1.613 . S
N755 C758 1.350 . S
N756 S754 1.610 . S
N756 C757 1.351 . S
C757 C751 1.428 . S
C757 N756 1.351 . S
C757 C758 1.434 . S
C758 C749 1.429 . S
C758 N755 1.350 . S
C758 C757 1.434 . S
C759 C760 1.369 . S
C759 C761 1.419 . S
C759 H763 0.930 . S
C760 C759 1.369 . S
C760 C769 1.429 . S
C761 C759 1.419 . S
C761 C762 1.363 . S
C761 H764 0.929 . S
C762 C761 1.363 . S
C762 C768 1.428 . S
H763 C759 0.930 . S
H764 C761 0.929 . S
S765 N766 1.613 . S
S765 N767 1.610 . S
N766 S765 1.613 . S
N766 C769 1.350 . S
N767 S765 1.610 . S
N767 C768 1.351 . S
C768 C762 1.428 . S
C768 N767 1.351 . S
C768 C769 1.434 . S
C769 C760 1.429 . S
C769 N766 1.350 . S
C769 C768 1.434 . S
C770 C771 1.369 . S
C770 C772 1.419 . S
C770 H774 0.930 . S
C771 C770 1.369 . S
C771 C780 1.429 . S
C772 C770 1.419 . S
C772 C773 1.363 . S
C772 H775 0.929 . S
C773 C772 1.363 . S
C773 C779 1.428 . S
H774 C770 0.930 . S
H775 C772 0.929 . S
S776 N777 1.613 . S
S776 N778 1.610 . S
N777 S776 1.613 . S
N777 C780 1.350 . S
N778 S776 1.610 . S
N778 C779 1.351 . S
C779 C773 1.428 . S
C779 N778 1.351 . S
C779 C780 1.434 . S
C780 C771 1.429 . S
C780 N777 1.350 . S
C780 C779 1.434 . S
C781 C782 1.369 . S
C781 C783 1.419 . S
C781 H785 0.930 . S
C782 C781 1.369 . S
C782 C791 1.429 . S
C783 C781 1.419 . S
C783 C784 1.363 . S
C783 H786 0.929 . S
C784 C783 1.363 . S
C784 C790 1.428 . S
H785 C781 0.930 . S
H786 C783 0.929 . S
S787 N788 1.613 . S
S787 N789 1.610 . S
N788 S787 1.613 . S
N788 C791 1.350 . S
N789 S787 1.610 . S
N789 C790 1.351 . S
C790 C784 1.428 . S
C790 N789 1.351 . S
C790 C791 1.434 . S
C791 C782 1.429 . S
C791 N788 1.350 . S
C791 C790 1.434 . S
C792 C793 1.369 . S
C792 C794 1.419 . S
C792 H796 0.930 . S
C793 C792 1.369 . S
C793 C802 1.429 . S
C794 C792 1.419 . S
C794 C795 1.363 . S
C794 H797 0.929 . S
C795 C794 1.363 . S
C795 C801 1.428 . S
H796 C792 0.930 . S
H797 C794 0.929 . S
S798 N799 1.613 . S
S798 N800 1.610 . S
N799 S798 1.613 . S
N799 C802 1.350 . S
N800 S798 1.610 . S
N800 C801 1.351 . S
C801 C795 1.428 . S
C801 N800 1.351 . S
C801 C802 1.434 . S
C802 C793 1.429 . S
C802 N799 1.350 . S
C802 C801 1.434 . S
C803 C804 1.369 . S
C803 C805 1.419 . S
C803 H807 0.930 . S
C804 C803 1.369 . S
C804 C813 1.429 . S
C805 C803 1.419 . S
C805 C806 1.363 . S
C805 H808 0.929 . S
C806 C805 1.363 . S
C806 C812 1.428 . S
H807 C803 0.930 . S
H808 C805 0.929 . S
S809 N810 1.613 . S
S809 N811 1.610 . S
N810 S809 1.613 . S
N810 C813 1.350 . S
N811 S809 1.610 . S
N811 C812 1.351 . S
C812 C806 1.428 . S
C812 N811 1.351 . S
C812 C813 1.434 . S
C813 C804 1.429 . S
C813 N810 1.350 . S
C813 C812 1.434 . S
C814 C815 1.369 . S
C814 C816 1.419 . S
C814 H818 0.930 . S
C815 C814 1.369 . S
C815 C824 1.429 . S
C816 C814 1.419 . S
C816 C817 1.363 . S
C816 H819 0.929 . S
C817 C816 1.363 . S
C817 C823 1.428 . S
H818 C814 0.930 . S
H819 C816 0.929 . S
S820 N821 1.613 . S
S820 N822 1.610 . S
N821 S820 1.613 . S
N821 C824 1.350 . S
N822 S820 1.610 . S
N822 C823 1.351 . S
C823 C817 1.428 . S
C823 N822 1.351 . S
C823 C824 1.434 . S
C824 C815 1.429 . S
C824 N821 1.350 . S
C824 C823 1.434 . S
C825 C826 1.369 . S
C825 C827 1.419 . S
C825 H829 0.930 . S
C826 C825 1.369 . S
C826 C835 1.429 . S
C827 C825 1.419 . S
C827 C828 1.363 . S
C827 H830 0.929 . S
C828 C827 1.363 . S
C828 C834 1.428 . S
H829 C825 0.930 . S
H830 C827 0.929 . S
S831 N832 1.613 . S
S831 N833 1.610 . S
N832 S831 1.613 . S
N832 C835 1.350 . S
N833 S831 1.610 . S
N833 C834 1.351 . S
C834 C828 1.428 . S
C834 N833 1.351 . S
C834 C835 1.434 . S
C835 C826 1.429 . S
C835 N832 1.350 . S
C835 C834 1.434 . S
C836 C837 1.369 . S
C836 C838 1.419 . S
C836 H840 0.930 . S
C837 C836 1.369 . S
C837 C846 1.429 . S
C838 C836 1.419 . S
C838 C839 1.363 . S
C838 H841 0.929 . S
C839 C838 1.363 . S
C839 C845 1.428 . S
H840 C836 0.930 . S
H841 C838 0.929 . S
S842 N843 1.613 . S
S842 N844 1.610 . S
N843 S842 1.613 . S
N843 C846 1.350 . S
N844 S842 1.610 . S
N844 C845 1.351 . S
C845 C839 1.428 . S
C845 N844 1.351 . S
C845 C846 1.434 . S
C846 C837 1.429 . S
C846 N843 1.350 . S
C846 C845 1.434 . S
C847 C848 1.369 . S
C847 C849 1.419 . S
C847 H851 0.930 . S
C848 C847 1.369 . S
C848 C857 1.429 . S
C849 C847 1.419 . S
C849 C850 1.363 . S
C849 H852 0.929 . S
C850 C849 1.363 . S
C850 C856 1.428 . S
H851 C847 0.930 . S
H852 C849 0.929 . S
S853 N854 1.613 . S
S853 N855 1.610 . S
N854 S853 1.613 . S
N854 C857 1.350 . S
N855 S853 1.610 . S
N855 C856 1.351 . S
C856 C850 1.428 . S
C856 N855 1.351 . S
C856 C857 1.434 . S
C857 C848 1.429 . S
C857 N854 1.350 . S
C857 C856 1.434 . S
C858 C859 1.369 . S
C858 C860 1.419 . S
C858 H862 0.930 . S
C859 C858 1.369 . S
C859 C868 1.429 . S
C860 C858 1.419 . S
C860 C861 1.363 . S
C860 H863 0.929 . S
C861 C860 1.363 . S
C861 C867 1.428 . S
H862 C858 0.930 . S
H863 C860 0.929 . S
S864 N865 1.613 . S
S864 N866 1.610 . S
N865 S864 1.613 . S
N865 C868 1.350 . S
N866 S864 1.610 . S
N866 C867 1.351 . S
C867 C861 1.428 . S
C867 N866 1.351 . S
C867 C868 1.434 . S
C868 C859 1.429 . S
C868 N865 1.350 . S
C868 C867 1.434 . S
C869 C870 1.369 . S
C869 C871 1.419 . S
C869 H873 0.930 . S
C870 C869 1.369 . S
C870 C879 1.429 . S
C871 C869 1.419 . S
C871 C872 1.363 . S
C871 H874 0.929 . S
C872 C871 1.363 . S
C872 C878 1.428 . S
H873 C869 0.930 . S
H874 C871 0.929 . S
S875 N876 1.613 . S
S875 N877 1.610 . S
N876 S875 1.613 . S
N876 C879 1.350 . S
N877 S875 1.610 . S
N877 C878 1.351 . S
C878 C872 1.428 . S
C878 N877 1.351 . S
C878 C879 1.434 . S
C879 C870 1.429 . S
C879 N876 1.350 . S
C879 C878 1.434 . S
C880 C881 1.369 . S
C880 C882 1.419 . S
C880 H884 0.930 . S
C881 C880 1.369 . S
C881 C890 1.429 . S
C882 C880 1.419 . S
C882 C883 1.363 . S
C882 H885 0.929 . S
C883 C882 1.363 . S
C883 C889 1.428 . S
H884 C880 0.930 . S
H885 C882 0.929 . S
S886 N887 1.613 1_655 S
S886 N888 1.613 . S
N887 S886 1.613 1_455 S
N887 C890 1.351 . S
N888 S886 1.613 . S
N888 C889 1.347 1_655 S
C889 C883 1.428 . S
C889 N888 1.347 1_455 S
C889 C890 1.434 . S
C890 C881 1.429 . S
C890 N887 1.351 . S
C890 C889 1.434 . S
C891 C892 1.369 . S
C891 C893 1.419 . S
C891 H895 0.930 . S
C892 C891 1.369 . S
C892 C901 1.429 . S
C893 C891 1.419 . S
C893 C894 1.363 . S
C893 H896 0.929 . S
C894 C893 1.363 . S
C894 C900 1.428 . S
H895 C891 0.930 . S
H896 C893 0.929 . S
S897 N898 1.613 . S
S897 N899 1.610 . S
N898 S897 1.613 . S
N898 C901 1.350 . S
N899 S897 1.610 . S
N899 C900 1.351 . S
C900 C894 1.428 . S
C900 N899 1.351 . S
C900 C901 1.434 . S
C901 C892 1.429 . S
C901 N898 1.350 . S
C901 C900 1.434 . S
C902 C903 1.369 . S
C902 C904 1.419 . S
C902 H906 0.930 . S
C903 C902 1.369 . S
C903 C912 1.429 . S
C904 C902 1.419 . S
C904 C905 1.363 . S
C904 H907 0.929 . S
C905 C904 1.363 . S
C905 C911 1.428 . S
H906 C902 0.930 . S
H907 C904 0.929 . S
S908 N909 1.613 . S
S908 N910 1.610 . S
N909 S908 1.613 . S
N909 C912 1.350 . S
N910 S908 1.610 . S
N910 C911 1.351 . S
C911 C905 1.428 . S
C911 N910 1.351 . S
C911 C912 1.434 . S
C912 C903 1.429 . S
C912 N909 1.350 . S
C912 C911 1.434 . S
C913 C914 1.369 . S
C913 C915 1.419 . S
C913 H917 0.930 . S
C914 C913 1.369 . S
C914 C923 1.429 . S
C915 C913 1.419 . S
C915 C916 1.363 . S
C915 H918 0.929 . S
C916 C915 1.363 . S
C916 C922 1.428 . S
H917 C913 0.930 . S
H918 C915 0.929 . S
S919 N920 1.613 . S
S919 N921 1.610 . S
N920 S919 1.613 . S
N920 C923 1.350 1_455 S
N921 S919 1.610 . S
N921 C922 1.351 1_455 S
C922 C916 1.428 . S
C922 N921 1.351 1_655 S
C922 C923 1.434 . S
C923 C914 1.429 . S
C923 N920 1.350 1_655 S
C923 C922 1.434 . S
C924 C925 1.369 . S
C924 C926 1.419 . S
C924 H928 0.930 . S
C925 C924 1.369 . S
C925 C934 1.429 . S
C926 C924 1.419 . S
C926 C927 1.363 . S
C926 H929 0.929 . S
C927 C926 1.363 . S
C927 C933 1.428 . S
H928 C924 0.930 . S
H929 C926 0.929 . S
S930 N931 1.613 . S
S930 N932 1.610 . S
N931 S930 1.613 . S
N931 C934 1.350 . S
N932 S930 1.610 . S
N932 C933 1.351 . S
C933 C927 1.428 . S
C933 N932 1.351 . S
C933 C934 1.434 . S
C934 C925 1.429 . S
C934 N931 1.350 . S
C934 C933 1.434 . S
C935 C936 1.369 . S
C935 C937 1.419 . S
C935 H939 0.930 . S
C936 C935 1.369 . S
C936 C945 1.429 . S
C937 C935 1.419 . S
C937 C938 1.363 . S
C937 H940 0.929 . S
C938 C937 1.363 . S
C938 C944 1.428 . S
H939 C935 0.930 . S
H940 C937 0.929 . S
S941 N942 1.613 . S
S941 N943 1.610 . S
N942 S941 1.613 . S
N942 C945 1.350 . S
N943 S941 1.610 . S
N943 C944 1.351 . S
C944 C938 1.428 . S
C944 N943 1.351 . S
C944 C945 1.434 . S
C945 C936 1.429 . S
C945 N942 1.350 . S
C945 C944 1.434 . S
C946 C947 1.369 . S
C946 C948 1.419 . S
C946 H950 0.930 . S
C947 C946 1.369 . S
C947 C956 1.429 . S
C948 C946 1.419 . S
C948 C949 1.363 . S
C948 H951 0.929 . S
C949 C948 1.363 . S
C949 C955 1.428 . S
H950 C946 0.930 . S
H951 C948 0.929 . S
S952 N953 1.613 . S
S952 N954 1.610 . S
N953 S952 1.613 . S
N953 C956 1.350 . S
N954 S952 1.610 . S
N954 C955 1.351 . S
C955 C949 1.428 . S
C955 N954 1.351 . S
C955 C956 1.434 . S
C956 C947 1.429 . S
C956 N953 1.350 . S
C956 C955 1.434 . S
C957 C958 1.369 . S
C957 C959 1.419 . S
C957 H961 0.930 . S
C958 C957 1.369 . S
C958 C967 1.429 . S
C959 C957 1.419 . S
C959 C960 1.363 . S
C959 H962 0.929 . S
C960 C959 1.363 . S
C960 C966 1.428 . S
H961 C957 0.930 . S
H962 C959 0.929 . S
S963 N964 1.613 . S
S963 N965 1.610 . S
N964 S963 1.613 . S
N964 C967 1.350 . S
N965 S963 1.610 . S
N965 C966 1.351 . S
C966 C960 1.428 . S
C966 N965 1.351 . S
C966 C967 1.434 . S
C967 C958 1.429 . S
C967 N964 1.350 . S
C967 C966 1.434 . S
C529 N2 1.591 . S
C531 N464 1.587 . S
C540 N79 1.616 . S
C542 N13 1.615 . S
C551 N35 1.585 . S
C553 N365 1.592 . S
C562 N244 1.615 . S
C564 N46 1.616 . S
C573 N68 1.584 . S
C575 N398 1.592 . S
C584 N101 1.589 . S
C586 N299 1.588 . S
C595 N112 1.617 . S
C597 N178 1.615 . S
C606 N332 1.589 . S
C608 N134 1.588 . S
C617 N211 1.615 . S
C619 N145 1.616 . S
C628 N167 1.589 . S
C630 N497 1.588 . S
C639 N266 1.594 . S
C641 N200 1.585 . S
C650 N431 1.591 . S
C652 N233 1.587 . S
C661 N277 1.615 . S
C663 N343 1.616 . S
C672 N508 1.614 . S
C674 N310 1.617 . S
C683 N376 1.615 . S
C685 N442 1.616 . S
C694 N409 1.616 . S
C696 N475 1.615 . S
C705 C7 1.244 . S
C707 C318 1.247 . S
C716 C304 1.237 . S
C718 C21 1.251 . S
C727 C40 1.241 . S
C729 C285 1.245 . S
C738 C54 1.249 . S
C740 C271 1.243 . S
C749 C384 1.247 . S
C751 C73 1.237 . S
C760 C370 1.241 . S
C762 C87 1.250 . S
C771 C106 1.244 . S
C773 C351 1.246 . S
C782 C120 1.252 . S
C784 C337 1.239 . S
C793 C139 1.235 . S
C795 C450 1.248 . S
C804 C436 1.237 . S
C806 C153 1.246 . S
C815 C172 1.238 . S
C817 C417 1.246 . S
C826 C403 1.244 . S
C828 C186 1.247 . S
C837 C516 1.245 . S
C839 C205 1.239 . S
C848 C219 1.248 . S
C850 C502 1.236 . S
C859 C238 1.235 . S
C861 C483 1.251 . S
C870 C252 1.252 . S
C872 C469 1.238 . S
C881 C51 1.224 . S
C883 C18 1.222 . S
C892 C84 1.224 . S
C894 C117 1.222 . S
C903 C150 1.221 . S
C905 C183 1.223 . S
C914 C216 1.222 . S
C916 C249 1.223 . S
C925 C315 1.223 . S
C927 C282 1.222 . S
C936 C381 1.222 . S
C938 C348 1.223 . S
C947 C414 1.221 . S
C949 C447 1.223 . S
C958 C513 1.223 . S
C960 C480 1.222 . S
