# Generated by pormake.
# Topology umd, (4)-cn, num edge types: 1
# Building blocks:
#     Node 0, Type 0, BuildingBlock: GALJAG_clean_sbu_0, # of connection points: 4
#     Node 1, Type 0, BuildingBlock: GALJAG_clean_sbu_0, # of connection points: 4
#     Node 2, Type 0, BuildingBlock: GALJAG_clean_sbu_0, # of connection points: 4
#     Node 3, Type 0, BuildingBlock: GALJAG_clean_sbu_0, # of connection points: 4
#     Node 4, Type 0, BuildingBlock: GALJAG_clean_sbu_0, # of connection points: 4
#     Node 5, Type 0, BuildingBlock: GALJAG_clean_sbu_0, # of connection points: 4
#     Node 6, Type 0, BuildingBlock: GALJAG_clean_sbu_0, # of connection points: 4
#     Node 7, Type 0, BuildingBlock: GALJAG_clean_sbu_0, # of connection points: 4
#     Node 8, Type 0, BuildingBlock: GALJAG_clean_sbu_0, # of connection points: 4
#     Node 9, Type 0, BuildingBlock: GALJAG_clean_sbu_0, # of connection points: 4
#     Node 10, Type 0, BuildingBlock: GALJAG_clean_sbu_0, # of connection points: 4
#     Node 11, Type 0, BuildingBlock: GALJAG_clean_sbu_0, # of connection points: 4
#     Node 12, Type 0, BuildingBlock: GALJAG_clean_sbu_0, # of connection points: 4
#     Node 13, Type 0, BuildingBlock: GALJAG_clean_sbu_0, # of connection points: 4
#     Node 14, Type 0, BuildingBlock: GALJAG_clean_sbu_0, # of connection points: 4
#     Node 15, Type 0, BuildingBlock: GALJAG_clean_sbu_0, # of connection points: 4
#     Edge 16, Type (0, 0), BuildingBlock: AJUNOK_clean_linker_0, # of connection points: 2
#     Edge 17, Type (0, 0), BuildingBlock: AJUNOK_clean_linker_0, # of connection points: 2
#     Edge 18, Type (0, 0), BuildingBlock: AJUNOK_clean_linker_0, # of connection points: 2
#     Edge 19, Type (0, 0), BuildingBlock: AJUNOK_clean_linker_0, # of connection points: 2
#     Edge 20, Type (0, 0), BuildingBlock: AJUNOK_clean_linker_0, # of connection points: 2
#     Edge 21, Type (0, 0), BuildingBlock: AJUNOK_clean_linker_0, # of connection points: 2
#     Edge 22, Type (0, 0), BuildingBlock: AJUNOK_clean_linker_0, # of connection points: 2
#     Edge 23, Type (0, 0), BuildingBlock: AJUNOK_clean_linker_0, # of connection points: 2
#     Edge 24, Type (0, 0), BuildingBlock: AJUNOK_clean_linker_0, # of connection points: 2
#     Edge 25, Type (0, 0), BuildingBlock: AJUNOK_clean_linker_0, # of connection points: 2
#     Edge 26, Type (0, 0), BuildingBlock: AJUNOK_clean_linker_0, # of connection points: 2
#     Edge 27, Type (0, 0), BuildingBlock: AJUNOK_clean_linker_0, # of connection points: 2
#     Edge 28, Type (0, 0), BuildingBlock: AJUNOK_clean_linker_0, # of connection points: 2
#     Edge 29, Type (0, 0), BuildingBlock: AJUNOK_clean_linker_0, # of connection points: 2
#     Edge 30, Type (0, 0), BuildingBlock: AJUNOK_clean_linker_0, # of connection points: 2
#     Edge 31, Type (0, 0), BuildingBlock: AJUNOK_clean_linker_0, # of connection points: 2
#     Edge 32, Type (0, 0), BuildingBlock: AJUNOK_clean_linker_0, # of connection points: 2
#     Edge 33, Type (0, 0), BuildingBlock: AJUNOK_clean_linker_0, # of connection points: 2
#     Edge 34, Type (0, 0), BuildingBlock: AJUNOK_clean_linker_0, # of connection points: 2
#     Edge 35, Type (0, 0), BuildingBlock: AJUNOK_clean_linker_0, # of connection points: 2
#     Edge 36, Type (0, 0), BuildingBlock: AJUNOK_clean_linker_0, # of connection points: 2
#     Edge 37, Type (0, 0), BuildingBlock: AJUNOK_clean_linker_0, # of connection points: 2
#     Edge 38, Type (0, 0), BuildingBlock: AJUNOK_clean_linker_0, # of connection points: 2
#     Edge 39, Type (0, 0), BuildingBlock: AJUNOK_clean_linker_0, # of connection points: 2
#     Edge 40, Type (0, 0), BuildingBlock: AJUNOK_clean_linker_0, # of connection points: 2
#     Edge 41, Type (0, 0), BuildingBlock: AJUNOK_clean_linker_0, # of connection points: 2
#     Edge 42, Type (0, 0), BuildingBlock: AJUNOK_clean_linker_0, # of connection points: 2
#     Edge 43, Type (0, 0), BuildingBlock: AJUNOK_clean_linker_0, # of connection points: 2
#     Edge 44, Type (0, 0), BuildingBlock: AJUNOK_clean_linker_0, # of connection points: 2
#     Edge 45, Type (0, 0), BuildingBlock: AJUNOK_clean_linker_0, # of connection points: 2
#     Edge 46, Type (0, 0), BuildingBlock: AJUNOK_clean_linker_0, # of connection points: 2
#     Edge 47, Type (0, 0), BuildingBlock: AJUNOK_clean_linker_0, # of connection points: 2
# Relax obj value: 0.079
# Max RMSD: 0.208
# Mean RMSD: 0.208
data_MOF--net-umd--node1-GALJAG_clean_sbu_0--edge1-AJUNOK_clean_linker_0
_symmetry_space_group_name_H-M    P1
_symmetry_Int_Tables_number       1
_symmetry_cell_setting            triclinic
loop_
_symmetry_equiv_pos_as_xyz
'x, y, z'
_cell_length_a     29.519928
_cell_length_b     29.51168
_cell_length_c     42.156251
_cell_angle_alpha  89.984985
_cell_angle_beta   89.991844
_cell_angle_gamma 89.989205
loop_
_atom_site_label
_atom_site_type_symbol
_atom_site_fract_x
_atom_site_fract_y
_atom_site_fract_z
_atom_type_partial_charge
In0 In 0.18011 0.44213 0.12587 0.0
O1 O 0.19912 0.36716 0.12991 0.0
O2 O 0.25071 0.41688 0.12095 0.0
C3 C 0.09431 0.46864 0.13334 0.0
C4 C 0.17999 0.45276 0.06322 0.0
C5 C 0.20661 0.47092 0.18247 0.0
O6 O 0.10532 0.42695 0.13444 0.0
O7 O 0.12672 0.49589 0.12875 0.0
O8 O 0.21381 0.49445 0.15766 0.0
O9 O 0.18595 0.43383 0.17824 0.0
C10 C 0.24099 0.37567 0.12576 0.0
O11 O 0.20125 0.48036 0.081 0.0
O12 O 0.15979 0.42083 0.07743 0.0
In13 In 0.55698 0.18277 0.62408 0.0
O14 O 0.51574 0.21415 0.58346 0.0
O15 O 0.55619 0.15527 0.57468 0.0
C16 C 0.53372 0.21883 0.68008 0.0
C17 C 0.63517 0.22622 0.61338 0.0
C18 C 0.52738 0.09844 0.6361 0.0
O19 O 0.50922 0.22376 0.65561 0.0
O20 O 0.57009 0.19726 0.67565 0.0
O21 O 0.56923 0.10713 0.63256 0.0
O22 O 0.50148 0.13235 0.63396 0.0
C23 C 0.52963 0.18491 0.56364 0.0
O24 O 0.63489 0.18657 0.62504 0.0
O25 O 0.59665 0.24301 0.60785 0.0
In26 In 0.81893 0.55137 0.12657 0.0
O27 O 0.79282 0.51032 0.08389 0.0
O28 O 0.83329 0.56964 0.07642 0.0
C29 C 0.79028 0.52173 0.18296 0.0
C30 C 0.76509 0.62409 0.12434 0.0
C31 C 0.90644 0.52846 0.13276 0.0
O32 O 0.78416 0.49861 0.15792 0.0
O33 O 0.81019 0.55919 0.17905 0.0
O34 O 0.89338 0.56939 0.13396 0.0
O35 O 0.87525 0.49979 0.12857 0.0
C36 C 0.81057 0.5378 0.0643 0.0
O37 O 0.80716 0.62795 0.13009 0.0
O38 O 0.75116 0.58393 0.12044 0.0
In39 In 0.43329 0.82784 0.62761 0.0
O40 O 0.35582 0.82024 0.63063 0.0
O41 O 0.3957 0.76573 0.61232 0.0
C42 C 0.45936 0.91356 0.63872 0.0
C43 C 0.45913 0.8286 0.56681 0.0
C44 C 0.45982 0.79184 0.68289 0.0
O45 O 0.41788 0.90279 0.63621 0.0
O46 O 0.48679 0.88088 0.63638 0.0
O47 O 0.48308 0.78718 0.6578 0.0
O48 O 0.42337 0.81366 0.67952 0.0
C49 C 0.35677 0.78053 0.61912 0.0
O50 O 0.47623 0.80065 0.58632 0.0
O51 O 0.42935 0.85472 0.57814 0.0
In52 In 0.17918 0.56216 0.36765 0.0
O53 O 0.19643 0.63782 0.36491 0.0
O54 O 0.24871 0.58905 0.37419 0.0
C55 C 0.09449 0.53346 0.35867 0.0
C56 C 0.17789 0.54745 0.42989 0.0
C57 C 0.20666 0.5343 0.31095 0.0
O58 O 0.10414 0.57553 0.35858 0.0
O59 O 0.12766 0.50707 0.36311 0.0
O60 O 0.21474 0.51131 0.33585 0.0
O61 O 0.18536 0.57104 0.3152 0.0
C62 C 0.23831 0.63014 0.36973 0.0
O63 O 0.20154 0.52266 0.41159 0.0
O64 O 0.15595 0.57894 0.41648 0.0
In65 In 0.44729 0.1783 0.86396 0.0
O66 O 0.48829 0.20587 0.90612 0.0
O67 O 0.43944 0.15347 0.9137 0.0
C68 C 0.47338 0.21445 0.80869 0.0
C69 C 0.37104 0.22639 0.87096 0.0
C70 C 0.47397 0.09255 0.85328 0.0
O71 O 0.49781 0.21773 0.83336 0.0
O72 O 0.43657 0.19336 0.81237 0.0
O73 O 0.43239 0.10324 0.85525 0.0
O74 O 0.50121 0.12528 0.85611 0.0
C75 C 0.46863 0.17968 0.92568 0.0
O76 O 0.36993 0.18604 0.86055 0.0
O77 O 0.41005 0.24146 0.87732 0.0
In78 In 0.82328 0.44199 0.36971 0.0
O79 O 0.81702 0.36437 0.37037 0.0
O80 O 0.76119 0.40503 0.38568 0.0
C81 C 0.9091 0.4672 0.3588 0.0
C82 C 0.82128 0.4724 0.42938 0.0
C83 C 0.78978 0.46297 0.31253 0.0
O84 O 0.89819 0.42597 0.36271 0.0
O85 O 0.87651 0.49491 0.35985 0.0
O86 O 0.78489 0.48918 0.33613 0.0
O87 O 0.81054 0.42653 0.3183 0.0
C88 C 0.77692 0.36579 0.38114 0.0
O89 O 0.79261 0.48622 0.40912 0.0
O90 O 0.84975 0.44391 0.41928 0.0
In91 In 0.55483 0.81759 0.866 0.0
O92 O 0.51287 0.79416 0.90891 0.0
O93 O 0.56553 0.84328 0.9152 0.0
C94 C 0.52534 0.78599 0.81039 0.0
C95 C 0.62611 0.76185 0.87082 0.0
C96 C 0.5332 0.90448 0.85494 0.0
O97 O 0.50142 0.78268 0.83533 0.0
O98 O 0.56343 0.80474 0.81402 0.0
O99 O 0.57416 0.89138 0.85641 0.0
O100 O 0.50407 0.87352 0.85854 0.0
C101 C 0.53426 0.82013 0.92769 0.0
O102 O 0.63116 0.80311 0.86299 0.0
O103 O 0.58575 0.75006 0.87651 0.0
In104 In 0.81426 0.54537 0.86488 0.0
O105 O 0.80309 0.62209 0.86095 0.0
O106 O 0.74711 0.57862 0.87202 0.0
C107 C 0.89999 0.51718 0.85687 0.0
C108 C 0.80864 0.53425 0.92744 0.0
C109 C 0.78258 0.51724 0.80906 0.0
O110 O 0.8895 0.55893 0.85596 0.0
O111 O 0.86723 0.49057 0.86185 0.0
O112 O 0.7761 0.49433 0.83419 0.0
O113 O 0.80452 0.55365 0.81262 0.0
C114 C 0.76115 0.61861 0.86745 0.0
O115 O 0.78919 0.50656 0.9088 0.0
O116 O 0.83172 0.565 0.91425 0.0
In117 In 0.44828 0.82586 0.36889 0.0
O118 O 0.48935 0.80195 0.41198 0.0
O119 O 0.43546 0.84996 0.41816 0.0
C120 C 0.47484 0.79654 0.31216 0.0
C121 C 0.37898 0.76812 0.37173 0.0
C122 C 0.47234 0.91193 0.35875 0.0
O123 O 0.49969 0.79125 0.33653 0.0
O124 O 0.43765 0.81665 0.31686 0.0
O125 O 0.43097 0.89997 0.35963 0.0
O126 O 0.50067 0.88024 0.36261 0.0
C127 C 0.46682 0.827 0.43075 0.0
O128 O 0.37223 0.81011 0.36688 0.0
O129 O 0.41982 0.75695 0.37625 0.0
In130 In 0.1744 0.43231 0.86341 0.0
O131 O 0.19782 0.47345 0.90655 0.0
O132 O 0.15196 0.41802 0.91284 0.0
C133 C 0.20787 0.4637 0.80881 0.0
C134 C 0.22845 0.36005 0.86925 0.0
C135 C 0.08729 0.45531 0.85432 0.0
O136 O 0.21098 0.4863 0.83433 0.0
O137 O 0.18837 0.42578 0.81132 0.0
O138 O 0.1001 0.41422 0.85426 0.0
O139 O 0.11861 0.48391 0.85826 0.0
C140 C 0.17481 0.44931 0.92561 0.0
O141 O 0.18817 0.35586 0.85905 0.0
O142 O 0.24063 0.4001 0.87551 0.0
In143 In 0.56279 0.18361 0.36803 0.0
O144 O 0.64045 0.18932 0.36879 0.0
O145 O 0.60003 0.24548 0.3839 0.0
C146 C 0.53554 0.09841 0.35711 0.0
C147 C 0.53314 0.18576 0.42791 0.0
C148 C 0.54162 0.2171 0.31087 0.0
O149 O 0.57705 0.10821 0.36113 0.0
O150 O 0.50875 0.13175 0.35806 0.0
O151 O 0.51625 0.22314 0.33479 0.0
O152 O 0.57772 0.19556 0.31639 0.0
C153 C 0.63919 0.22942 0.37961 0.0
O154 O 0.51897 0.21426 0.40763 0.0
O155 O 0.56126 0.15704 0.41763 0.0
In156 In 0.81767 0.439 0.6239 0.0
O157 O 0.813 0.36115 0.62416 0.0
O158 O 0.75773 0.40022 0.60607 0.0
C159 C 0.90172 0.46811 0.63722 0.0
C160 C 0.81795 0.47 0.56436 0.0
C161 C 0.78032 0.45909 0.67999 0.0
O162 O 0.89335 0.42656 0.63191 0.0
O163 O 0.86758 0.49386 0.63638 0.0
O164 O 0.77596 0.48505 0.65619 0.0
O165 O 0.80245 0.42323 0.67492 0.0
C166 C 0.77371 0.36144 0.61194 0.0
O167 O 0.78792 0.48282 0.58396 0.0
O168 O 0.84649 0.44194 0.57498 0.0
In169 In 0.55881 0.82248 0.12529 0.0
O170 O 0.63522 0.80858 0.12708 0.0
O171 O 0.58945 0.75472 0.11577 0.0
C172 C 0.53464 0.90877 0.13504 0.0
C173 C 0.53634 0.82272 0.06397 0.0
C174 C 0.53301 0.7938 0.18249 0.0
O175 O 0.576 0.89722 0.13258 0.0
O176 O 0.5065 0.87665 0.13289 0.0
O177 O 0.50861 0.78713 0.1581 0.0
O178 O 0.57002 0.81408 0.17748 0.0
C179 C 0.62997 0.76695 0.12034 0.0
O180 O 0.51557 0.79741 0.08354 0.0
O181 O 0.56796 0.84638 0.07553 0.0
In182 In 0.17085 0.56685 0.62893 0.0
O183 O 0.1974 0.52699 0.58618 0.0
O184 O 0.1456 0.57684 0.57952 0.0
C185 C 0.20632 0.53711 0.68344 0.0
C186 C 0.21937 0.64271 0.62174 0.0
C187 C 0.08563 0.5386 0.63908 0.0
O188 O 0.21116 0.51534 0.65772 0.0
O189 O 0.18475 0.57392 0.68107 0.0
O190 O 0.09591 0.5804 0.63915 0.0
O191 O 0.11846 0.51198 0.63441 0.0
C192 C 0.17142 0.5477 0.56703 0.0
O193 O 0.17926 0.64423 0.63258 0.0
O194 O 0.23418 0.60354 0.61559 0.0
In195 In 0.45497 0.18421 0.12524 0.0
O196 O 0.49505 0.20818 0.08156 0.0
O197 O 0.43973 0.16196 0.07585 0.0
C198 C 0.48414 0.21415 0.18128 0.0
C199 C 0.38451 0.2409 0.12421 0.0
C200 C 0.47737 0.09732 0.13475 0.0
O201 O 0.50823 0.2186 0.15647 0.0
O202 O 0.4466 0.19438 0.1774 0.0
O203 O 0.43638 0.11047 0.13482 0.0
O204 O 0.50631 0.12826 0.13032 0.0
C205 C 0.47098 0.18455 0.06283 0.0
O206 O 0.37878 0.19866 0.1285 0.0
O207 O 0.425 0.25307 0.11938 0.0
C208 C 0.01093 0.45343 0.13503 0.0
C209 C 0.0468 0.48469 0.13556 0.0
C210 C 0.96574 0.46802 0.13469 0.0
C211 C 0.95458 0.51446 0.13501 0.0
H212 H 0.01772 0.41738 0.13417 0.0
H213 H 0.93935 0.44256 0.13374 0.0
S214 S 0.03592 0.61014 0.13838 0.0
N215 N 0.06809 0.5644 0.13785 0.0
N216 N 0.9832 0.59162 0.13725 0.0
C217 C 0.99008 0.54609 0.13646 0.0
C218 C 0.03614 0.53126 0.13672 0.0
C219 C 0.52242 0.97003 0.63964 0.0
C220 C 0.47561 0.96097 0.64142 0.0
C221 C 0.53899 0.01453 0.63895 0.0
C222 C 0.50944 0.05181 0.64009 0.0
H223 H 0.5466 0.94253 0.63787 0.0
H224 H 0.57518 0.01964 0.63667 0.0
S225 S 0.38407 0.0466 0.64775 0.0
N226 N 0.40012 0.99305 0.64635 0.0
N227 N 0.43107 0.07669 0.64526 0.0
C228 C 0.46262 0.04327 0.64321 0.0
C229 C 0.44576 0.99788 0.64381 0.0
C230 C 0.0107 0.54591 0.35599 0.0
C231 C 0.04764 0.5159 0.35567 0.0
C232 C 0.96605 0.52974 0.35601 0.0
C233 C 0.95658 0.48293 0.35573 0.0
H234 H 0.01622 0.58216 0.35707 0.0
H235 H 0.93878 0.55425 0.35708 0.0
S236 S 0.04122 0.39019 0.35191 0.0
N237 N 0.07174 0.43702 0.35284 0.0
N238 N 0.98787 0.40686 0.35305 0.0
C239 C 0.99315 0.45258 0.3542 0.0
C240 C 0.03865 0.46901 0.35412 0.0
C241 C 0.47305 0.96396 0.85208 0.0
C242 C 0.51943 0.9526 0.85141 0.0
C243 C 0.4586 0.0092 0.8516 0.0
C244 C 0.48992 0.045 0.85042 0.0
H245 H 0.44751 0.93772 0.85377 0.0
H246 H 0.42261 0.01608 0.85301 0.0
S247 S 0.61515 0.03359 0.84565 0.0
N248 N 0.59653 0.98092 0.84759 0.0
N249 N 0.56955 0.06596 0.84658 0.0
C250 C 0.53638 0.03414 0.8485 0.0
C251 C 0.55108 0.98798 0.84902 0.0
C252 C 0.98346 0.53133 0.85342 0.0
C253 C 0.94722 0.50049 0.85368 0.0
C254 C 0.02849 0.51626 0.85273 0.0
C255 C 0.03919 0.4697 0.85215 0.0
H256 H 0.97712 0.56746 0.8545 0.0
H257 H 0.05515 0.54147 0.85327 0.0
S258 S 0.95666 0.37498 0.85008 0.0
N259 N 0.925 0.42105 0.85149 0.0
N260 N 0.00963 0.3929 0.85018 0.0
C261 C 0.00328 0.43848 0.8513 0.0
C262 C 0.95734 0.45382 0.85208 0.0
C263 C 0.54927 0.01484 0.35729 0.0
C264 C 0.51888 0.0512 0.35422 0.0
C265 C 0.53385 0.96997 0.35782 0.0
C266 C 0.48738 0.9596 0.35535 0.0
H267 H 0.58521 0.02103 0.36014 0.0
H268 H 0.55862 0.94327 0.36097 0.0
S269 S 0.39409 0.04229 0.3442 0.0
N270 N 0.44021 0.07372 0.34662 0.0
N271 N 0.41136 0.98933 0.34778 0.0
C272 C 0.45673 0.99551 0.3511 0.0
C273 C 0.47245 0.04129 0.35048 0.0
C274 C 0.98582 0.45756 0.63722 0.0
C275 C 0.94826 0.48621 0.64129 0.0
C276 C 0.03007 0.47477 0.63757 0.0
C277 C 0.0386 0.52136 0.64192 0.0
H278 H 0.98107 0.42171 0.63283 0.0
H279 H 0.05774 0.45137 0.63351 0.0
S280 S 0.95223 0.6102 0.6566 0.0
N281 N 0.92266 0.56317 0.6521 0.0
N282 N 0.00584 0.59536 0.65253 0.0
C283 C 0.00148 0.55014 0.64729 0.0
C284 C 0.95634 0.5326 0.64703 0.0
C285 C 0.53712 0.03731 0.13437 0.0
C286 C 0.49111 0.04917 0.1377 0.0
C287 C 0.55112 0.99193 0.13453 0.0
C288 C 0.51968 0.95655 0.13804 0.0
H289 H 0.5626 0.06324 0.13085 0.0
H290 H 0.58673 0.98456 0.13105 0.0
S291 S 0.39566 0.96945 0.1504 0.0
N292 N 0.41448 0.02184 0.1466 0.0
N293 N 0.44064 0.93657 0.14703 0.0
C294 C 0.47374 0.96796 0.14259 0.0
C295 C 0.4595 0.01423 0.14239 0.0
C296 C 0.21444 0.54873 0.25303 0.0
C297 C 0.21664 0.51805 0.2786 0.0
C298 C 0.21488 0.53349 0.22158 0.0
C299 C 0.21685 0.48702 0.21473 0.0
H300 H 0.21025 0.58468 0.25733 0.0
H301 H 0.21057 0.55801 0.20268 0.0
S302 S 0.22998 0.39341 0.27277 0.0
N303 N 0.22641 0.43955 0.29477 0.0
N304 N 0.22657 0.41081 0.23561 0.0
C305 C 0.22248 0.45628 0.23992 0.0
C306 C 0.22261 0.47183 0.27193 0.0
C307 C 0.54973 0.2278 0.73776 0.0
C308 C 0.51851 0.23025 0.71253 0.0
C309 C 0.53513 0.22696 0.76939 0.0
C310 C 0.48878 0.22797 0.77676 0.0
H311 H 0.58558 0.22373 0.73303 0.0
H312 H 0.56007 0.22193 0.78791 0.0
S313 S 0.39396 0.24277 0.71993 0.0
N314 N 0.43965 0.24032 0.6974 0.0
N315 N 0.41215 0.23816 0.75683 0.0
C316 C 0.45755 0.23465 0.75199 0.0
C317 C 0.47244 0.23602 0.71982 0.0
C318 C 0.77651 0.53677 0.24019 0.0
C319 C 0.77958 0.5053 0.21518 0.0
C320 C 0.77583 0.52258 0.27187 0.0
C321 C 0.77891 0.47642 0.27964 0.0
H322 H 0.77682 0.57283 0.23531 0.0
H323 H 0.77608 0.54812 0.29033 0.0
S324 S 0.78099 0.38022 0.22291 0.0
N325 N 0.78039 0.42581 0.20019 0.0
N326 N 0.77969 0.39896 0.25981 0.0
C327 C 0.77844 0.44445 0.25483 0.0
C328 C 0.77859 0.45894 0.22254 0.0
C329 C 0.4617 0.77911 0.77197 0.0
C330 C 0.5082 0.77542 0.77838 0.0
C331 C 0.4459 0.78099 0.74067 0.0
C332 C 0.47602 0.77874 0.71477 0.0
H333 H 0.43771 0.78401 0.79111 0.0
H334 H 0.41009 0.78684 0.7368 0.0
S335 S 0.60006 0.75996 0.71928 0.0
N336 N 0.5835 0.76302 0.75663 0.0
N337 N 0.55372 0.76605 0.69775 0.0
C338 C 0.52203 0.77047 0.72094 0.0
C339 C 0.53816 0.76901 0.75281 0.0
C340 C 0.76827 0.53308 0.75205 0.0
C341 C 0.77018 0.50143 0.77701 0.0
C342 C 0.767 0.51902 0.72036 0.0
C343 C 0.76831 0.47279 0.71258 0.0
H344 H 0.7703 0.56907 0.75694 0.0
H345 H 0.76862 0.54455 0.70192 0.0
S346 S 0.76561 0.37646 0.76915 0.0
N347 N 0.76707 0.42195 0.79194 0.0
N348 N 0.76533 0.39534 0.73227 0.0
C349 C 0.76613 0.44081 0.73733 0.0
C350 C 0.76686 0.45519 0.76963 0.0
C351 C 0.53577 0.78666 0.27191 0.0
C352 C 0.48961 0.78518 0.27972 0.0
C353 C 0.54972 0.78636 0.24015 0.0
C354 C 0.51802 0.78398 0.21521 0.0
H355 H 0.56108 0.79122 0.29024 0.0
H356 H 0.5855 0.79028 0.23512 0.0
S357 S 0.39367 0.77128 0.2237 0.0
N358 N 0.41257 0.77532 0.26045 0.0
N359 N 0.43889 0.77424 0.20073 0.0
C360 C 0.47209 0.77832 0.22288 0.0
C361 C 0.45785 0.77913 0.25519 0.0
C362 C 0.21734 0.52939 0.77241 0.0
C363 C 0.21951 0.48242 0.77742 0.0
C364 C 0.21661 0.54719 0.74162 0.0
C365 C 0.2186 0.51866 0.71487 0.0
H366 H 0.21271 0.55232 0.79221 0.0
H367 H 0.21183 0.58337 0.73879 0.0
S368 S 0.23375 0.39392 0.71573 0.0
N369 N 0.23027 0.40821 0.75353 0.0
N370 N 0.2295 0.44175 0.6956 0.0
C371 C 0.22545 0.47207 0.7197 0.0
C372 C 0.22568 0.4539 0.75104 0.0
C373 C 0.55949 0.2225 0.25316 0.0
C374 C 0.52787 0.22781 0.27797 0.0
C375 C 0.54569 0.22203 0.22135 0.0
C376 C 0.49976 0.22632 0.21337 0.0
H377 H 0.59485 0.21612 0.25839 0.0
H378 H 0.57065 0.21494 0.20317 0.0
S379 S 0.40477 0.24921 0.26873 0.0
N380 N 0.44953 0.24387 0.29192 0.0
N381 N 0.42356 0.24241 0.23215 0.0
C382 C 0.46842 0.23559 0.23766 0.0
C383 C 0.48251 0.23657 0.27 0.0
C384 C 0.14886 0.42481 0.97875 0.0
C385 C 0.17549 0.45448 0.96051 0.0
C386 C 0.1503 0.42548 0.01175 0.0
C387 C 0.17834 0.45594 0.02821 0.0
H388 H 0.12705 0.40004 0.96751 0.0
H389 H 0.12942 0.40129 0.0244 0.0
S390 S 0.25299 0.54273 0.99186 0.0
N391 N 0.22955 0.5167 0.96128 0.0
N392 N 0.23211 0.5181 0.02389 0.0
C393 C 0.2043 0.48688 0.01046 0.0
C394 C 0.20291 0.48611 0.9765 0.0
C395 C 0.52388 0.1458 0.47899 0.0
C396 C 0.52116 0.18654 0.46186 0.0
C397 C 0.52303 0.14558 0.51209 0.0
C398 C 0.51947 0.18611 0.52938 0.0
H399 H 0.52901 0.11391 0.46676 0.0
H400 H 0.52751 0.11352 0.52424 0.0
S401 S 0.50741 0.30157 0.49577 0.0
N402 N 0.51129 0.26822 0.46439 0.0
N403 N 0.50972 0.26785 0.52704 0.0
C404 C 0.51337 0.22686 0.51262 0.0
C405 C 0.51421 0.22707 0.47868 0.0
C406 C 0.80191 0.49437 0.01319 0.0
C407 C 0.80382 0.5358 0.02967 0.0
C408 C 0.80145 0.49349 0.97974 0.0
C409 C 0.80293 0.53403 0.96218 0.0
H410 H 0.8028 0.46264 0.0261 0.0
H411 H 0.80199 0.46112 0.96765 0.0
S412 S 0.79917 0.65093 0.99442 0.0
N413 N 0.80081 0.61797 0.02601 0.0
N414 N 0.80002 0.61632 0.9637 0.0
C415 C 0.80168 0.57542 0.97856 0.0
C416 C 0.80211 0.57631 0.01222 0.0
C417 C 0.48258 0.79027 0.51621 0.0
C418 C 0.47038 0.82992 0.53271 0.0
C419 C 0.48463 0.78988 0.48285 0.0
C420 C 0.47446 0.82911 0.46527 0.0
H421 H 0.48783 0.75884 0.52898 0.0
H422 H 0.49134 0.75818 0.47077 0.0
S423 S 0.44983 0.94334 0.49756 0.0
N424 N 0.45476 0.91066 0.52916 0.0
N425 N 0.45836 0.90981 0.46681 0.0
C426 C 0.46596 0.86961 0.48167 0.0
C427 C 0.46398 0.87005 0.51535 0.0
C428 C 0.1397 0.56233 0.48108 0.0
C429 C 0.17549 0.54154 0.46464 0.0
C430 C 0.13799 0.56217 0.51412 0.0
C431 C 0.17211 0.54135 0.53225 0.0
H432 H 0.11303 0.57985 0.46836 0.0
H433 H 0.11011 0.57967 0.5255 0.0
S434 S 0.27181 0.47947 0.50071 0.0
N435 N 0.24471 0.49724 0.46875 0.0
N436 N 0.24167 0.49713 0.53134 0.0
C437 C 0.20719 0.51861 0.5162 0.0
C438 C 0.20884 0.51864 0.48227 0.0
C439 C 0.45855 0.14437 0.9785 0.0
C440 C 0.47628 0.18021 0.96038 0.0
C441 C 0.45896 0.14565 0.01156 0.0
C442 C 0.47728 0.18271 0.02806 0.0
H443 H 0.44288 0.11544 0.9671 0.0
H444 H 0.44366 0.11764 0.02428 0.0
S445 S 0.53115 0.28385 0.99201 0.0
N446 N 0.51521 0.25285 0.96133 0.0
N447 N 0.5162 0.25507 0.02398 0.0
C448 C 0.49737 0.21783 0.01043 0.0
C449 C 0.49681 0.21661 0.97645 0.0
C450 C 0.77903 0.48744 0.47979 0.0
C451 C 0.82033 0.48459 0.46325 0.0
C452 C 0.77821 0.48672 0.51318 0.0
C453 C 0.81867 0.48312 0.53064 0.0
H454 H 0.74723 0.48657 0.46699 0.0
H455 H 0.74579 0.48538 0.52519 0.0
S456 S 0.93546 0.48454 0.49833 0.0
N457 N 0.90247 0.48532 0.46671 0.0
N458 N 0.90095 0.484 0.52915 0.0
C459 C 0.86006 0.48476 0.5143 0.0
C460 C 0.86088 0.48549 0.4806 0.0
C461 C 0.51331 0.78496 0.01305 0.0
C462 C 0.52666 0.82413 0.02964 0.0
C463 C 0.5128 0.78432 0.97965 0.0
C464 C 0.52563 0.82284 0.96212 0.0
H465 H 0.50594 0.75398 0.02584 0.0
H466 H 0.50505 0.75287 0.96757 0.0
S467 S 0.55423 0.93608 0.99459 0.0
N468 N 0.54638 0.90394 0.02616 0.0
N469 N 0.54543 0.90275 0.96377 0.0
C470 C 0.53532 0.86306 0.97857 0.0
C471 C 0.53583 0.8637 0.01228 0.0
C472 C 0.26716 0.29464 0.12205 0.0
C473 C 0.27694 0.34077 0.12703 0.0
C474 C 0.30196 0.26201 0.12156 0.0
C475 C 0.34751 0.27461 0.12602 0.0
H476 H 0.23262 0.28382 0.11783 0.0
H477 H 0.29325 0.22695 0.11704 0.0
S478 S 0.39003 0.39015 0.14426 0.0
N479 N 0.33496 0.39658 0.13947 0.0
N480 N 0.39983 0.33576 0.13851 0.0
C481 C 0.35732 0.32039 0.13224 0.0
C482 C 0.32216 0.35334 0.13276 0.0
C483 C 0.747 0.28475 0.62946 0.0
C484 C 0.74564 0.32056 0.60742 0.0
C485 C 0.71282 0.25148 0.62988 0.0
C486 C 0.67653 0.25334 0.60828 0.0
H487 H 0.77259 0.28429 0.64788 0.0
H488 H 0.71305 0.22629 0.64857 0.0
S489 S 0.66319 0.33453 0.54177 0.0
N490 N 0.70923 0.35162 0.5605 0.0
N491 N 0.64532 0.28944 0.56129 0.0
C492 C 0.67738 0.28647 0.58437 0.0
C493 C 0.71191 0.32006 0.58394 0.0
C494 C 0.68965 0.65485 0.11008 0.0
C495 C 0.73344 0.66285 0.12189 0.0
C496 C 0.65735 0.68927 0.10881 0.0
C497 C 0.66722 0.73337 0.11934 0.0
H498 H 0.6798 0.62141 0.10202 0.0
H499 H 0.62396 0.68079 0.09994 0.0
S500 S 0.77764 0.77295 0.15094 0.0
N501 N 0.78588 0.71871 0.14314 0.0
N502 N 0.72465 0.78385 0.14087 0.0
C503 C 0.71132 0.74247 0.13032 0.0
C504 C 0.74454 0.70711 0.13157 0.0
C505 C 0.24675 0.71985 0.63819 0.0
C506 C 0.2485 0.68285 0.61717 0.0
C507 C 0.28037 0.75369 0.63746 0.0
C508 C 0.31647 0.7513 0.61568 0.0
H509 H 0.221 0.72118 0.65648 0.0
H510 H 0.27966 0.78016 0.65525 0.0
S511 S 0.33077 0.66631 0.55166 0.0
N512 N 0.28522 0.64958 0.57112 0.0
N513 N 0.34802 0.71279 0.56977 0.0
C514 C 0.31619 0.71654 0.59295 0.0
C515 C 0.28226 0.68237 0.59369 0.0
C516 C 0.29676 0.74526 0.3733 0.0
C517 C 0.3428 0.73342 0.37056 0.0
C518 C 0.26269 0.71188 0.3727 0.0
C519 C 0.27369 0.66571 0.36931 0.0
H520 H 0.28704 0.78039 0.37634 0.0
H521 H 0.22768 0.72221 0.37536 0.0
S522 S 0.38889 0.61769 0.35768 0.0
N523 N 0.39714 0.67259 0.36195 0.0
N524 N 0.3337 0.61044 0.36078 0.0
C525 C 0.31953 0.65377 0.36562 0.0
C526 C 0.35394 0.68748 0.36626 0.0
C527 C 0.2933 0.25096 0.85369 0.0
C528 C 0.33067 0.25565 0.87418 0.0
C529 C 0.25854 0.28366 0.8532 0.0
C530 C 0.26034 0.32185 0.87316 0.0
H531 H 0.2921 0.2233 0.83683 0.0
H532 H 0.23148 0.28027 0.83601 0.0
S533 S 0.3466 0.34492 0.93512 0.0
N534 N 0.36412 0.29799 0.91773 0.0
N535 N 0.29925 0.35905 0.91682 0.0
C536 C 0.29584 0.32492 0.89526 0.0
C537 C 0.33092 0.29189 0.89577 0.0
C538 C 0.71759 0.25446 0.3649 0.0
C539 C 0.67964 0.25772 0.38497 0.0
C540 C 0.75148 0.28798 0.3653 0.0
C541 C 0.74815 0.32548 0.38579 0.0
H542 H 0.71954 0.22773 0.34734 0.0
H543 H 0.7786 0.28617 0.34804 0.0
S544 S 0.66053 0.344 0.44751 0.0
N545 N 0.6445 0.29728 0.42915 0.0
N546 N 0.70787 0.35998 0.42991 0.0
C547 C 0.71255 0.32664 0.40788 0.0
C548 C 0.67832 0.29278 0.40747 0.0
C549 C 0.68595 0.64988 0.88194 0.0
C550 C 0.72962 0.65756 0.86977 0.0
C551 C 0.65364 0.68434 0.88299 0.0
C552 C 0.66336 0.72819 0.87186 0.0
H553 H 0.67616 0.61665 0.89045 0.0
H554 H 0.62036 0.67608 0.89215 0.0
S555 S 0.77348 0.76699 0.83921 0.0
N556 N 0.78179 0.71292 0.84758 0.0
N557 N 0.72059 0.77813 0.84943 0.0
C558 C 0.70735 0.73699 0.86052 0.0
C559 C 0.74058 0.70159 0.8595 0.0
loop_
_geom_bond_atom_site_label_1
_geom_bond_atom_site_label_2
_geom_bond_distance
_geom_bond_site_symmetry_2
_ccdc_geom_bond_type
In0 O1 2.294 . S
In0 O2 2.326 . S
In0 O6 2.266 . S
In0 O7 2.326 . S
In0 O8 2.266 . S
In0 O9 2.326 . S
In0 O11 2.294 . S
In0 O12 2.326 . S
O1 In0 2.294 . S
O1 C10 1.240 . S
O2 In0 2.326 . S
O2 C10 1.252 . S
C3 O6 1.252 . S
C3 O7 1.260 . S
C4 O11 1.240 . S
C4 O12 1.252 . S
C5 O8 1.252 . S
C5 O9 1.260 . S
O6 In0 2.266 . S
O6 C3 1.252 . S
O7 In0 2.326 . S
O7 C3 1.260 . S
O8 In0 2.266 . S
O8 C5 1.252 . S
O9 In0 2.326 . S
O9 C5 1.260 . S
C10 O1 1.240 . S
C10 O2 1.252 . S
O11 In0 2.294 . S
O11 C4 1.240 . S
O12 In0 2.326 . S
O12 C4 1.252 . S
In13 O14 2.294 . S
In13 O15 2.326 . S
In13 O19 2.266 . S
In13 O20 2.326 . S
In13 O21 2.266 . S
In13 O22 2.326 . S
In13 O24 2.294 . S
In13 O25 2.326 . S
O14 In13 2.294 . S
O14 C23 1.240 . S
O15 In13 2.326 . S
O15 C23 1.252 . S
C16 O19 1.252 . S
C16 O20 1.260 . S
C17 O24 1.240 . S
C17 O25 1.252 . S
C18 O21 1.252 . S
C18 O22 1.260 . S
O19 In13 2.266 . S
O19 C16 1.252 . S
O20 In13 2.326 . S
O20 C16 1.260 . S
O21 In13 2.266 . S
O21 C18 1.252 . S
O22 In13 2.326 . S
O22 C18 1.260 . S
C23 O14 1.240 . S
C23 O15 1.252 . S
O24 In13 2.294 . S
O24 C17 1.240 . S
O25 In13 2.326 . S
O25 C17 1.252 . S
In26 O27 2.294 . S
In26 O28 2.326 . S
In26 O32 2.266 . S
In26 O33 2.326 . S
In26 O34 2.266 . S
In26 O35 2.326 . S
In26 O37 2.294 . S
In26 O38 2.326 . S
O27 In26 2.294 . S
O27 C36 1.240 . S
O28 In26 2.326 . S
O28 C36 1.252 . S
C29 O32 1.252 . S
C29 O33 1.260 . S
C30 O37 1.240 . S
C30 O38 1.252 . S
C31 O34 1.252 . S
C31 O35 1.260 . S
O32 In26 2.266 . S
O32 C29 1.252 . S
O33 In26 2.326 . S
O33 C29 1.260 . S
O34 In26 2.266 . S
O34 C31 1.252 . S
O35 In26 2.326 . S
O35 C31 1.260 . S
C36 O27 1.240 . S
C36 O28 1.252 . S
O37 In26 2.294 . S
O37 C30 1.240 . S
O38 In26 2.326 . S
O38 C30 1.252 . S
In39 O40 2.294 . S
In39 O41 2.326 . S
In39 O45 2.266 . S
In39 O46 2.326 . S
In39 O47 2.266 . S
In39 O48 2.326 . S
In39 O50 2.294 . S
In39 O51 2.326 . S
O40 In39 2.294 . S
O40 C49 1.240 . S
O41 In39 2.326 . S
O41 C49 1.252 . S
C42 O45 1.252 . S
C42 O46 1.260 . S
C43 O50 1.240 . S
C43 O51 1.252 . S
C44 O47 1.252 . S
C44 O48 1.260 . S
O45 In39 2.266 . S
O45 C42 1.252 . S
O46 In39 2.326 . S
O46 C42 1.260 . S
O47 In39 2.266 . S
O47 C44 1.252 . S
O48 In39 2.326 . S
O48 C44 1.260 . S
C49 O40 1.240 . S
C49 O41 1.252 . S
O50 In39 2.294 . S
O50 C43 1.240 . S
O51 In39 2.326 . S
O51 C43 1.252 . S
In52 O53 2.294 . S
In52 O54 2.326 . S
In52 O58 2.266 . S
In52 O59 2.326 . S
In52 O60 2.266 . S
In52 O61 2.326 . S
In52 O63 2.294 . S
In52 O64 2.326 . S
O53 In52 2.294 . S
O53 C62 1.240 . S
O54 In52 2.326 . S
O54 C62 1.252 . S
C55 O58 1.252 . S
C55 O59 1.260 . S
C56 O63 1.240 . S
C56 O64 1.252 . S
C57 O60 1.252 . S
C57 O61 1.260 . S
O58 In52 2.266 . S
O58 C55 1.252 . S
O59 In52 2.326 . S
O59 C55 1.260 . S
O60 In52 2.266 . S
O60 C57 1.252 . S
O61 In52 2.326 . S
O61 C57 1.260 . S
C62 O53 1.240 . S
C62 O54 1.252 . S
O63 In52 2.294 . S
O63 C56 1.240 . S
O64 In52 2.326 . S
O64 C56 1.252 . S
In65 O66 2.294 . S
In65 O67 2.326 . S
In65 O71 2.266 . S
In65 O72 2.326 . S
In65 O73 2.266 . S
In65 O74 2.326 . S
In65 O76 2.294 . S
In65 O77 2.326 . S
O66 In65 2.294 . S
O66 C75 1.240 . S
O67 In65 2.326 . S
O67 C75 1.252 . S
C68 O71 1.252 . S
C68 O72 1.260 . S
C69 O76 1.240 . S
C69 O77 1.252 . S
C70 O73 1.252 . S
C70 O74 1.260 . S
O71 In65 2.266 . S
O71 C68 1.252 . S
O72 In65 2.326 . S
O72 C68 1.260 . S
O73 In65 2.266 . S
O73 C70 1.252 . S
O74 In65 2.326 . S
O74 C70 1.260 . S
C75 O66 1.240 . S
C75 O67 1.252 . S
O76 In65 2.294 . S
O76 C69 1.240 . S
O77 In65 2.326 . S
O77 C69 1.252 . S
In78 O79 2.294 . S
In78 O80 2.326 . S
In78 O84 2.266 . S
In78 O85 2.326 . S
In78 O86 2.266 . S
In78 O87 2.326 . S
In78 O89 2.294 . S
In78 O90 2.326 . S
O79 In78 2.294 . S
O79 C88 1.240 . S
O80 In78 2.326 . S
O80 C88 1.252 . S
C81 O84 1.252 . S
C81 O85 1.260 . S
C82 O89 1.240 . S
C82 O90 1.252 . S
C83 O86 1.252 . S
C83 O87 1.260 . S
O84 In78 2.266 . S
O84 C81 1.252 . S
O85 In78 2.326 . S
O85 C81 1.260 . S
O86 In78 2.266 . S
O86 C83 1.252 . S
O87 In78 2.326 . S
O87 C83 1.260 . S
C88 O79 1.240 . S
C88 O80 1.252 . S
O89 In78 2.294 . S
O89 C82 1.240 . S
O90 In78 2.326 . S
O90 C82 1.252 . S
In91 O92 2.294 . S
In91 O93 2.326 . S
In91 O97 2.266 . S
In91 O98 2.326 . S
In91 O99 2.266 . S
In91 O100 2.326 . S
In91 O102 2.294 . S
In91 O103 2.326 . S
O92 In91 2.294 . S
O92 C101 1.240 . S
O93 In91 2.326 . S
O93 C101 1.252 . S
C94 O97 1.252 . S
C94 O98 1.260 . S
C95 O102 1.240 . S
C95 O103 1.252 . S
C96 O99 1.252 . S
C96 O100 1.260 . S
O97 In91 2.266 . S
O97 C94 1.252 . S
O98 In91 2.326 . S
O98 C94 1.260 . S
O99 In91 2.266 . S
O99 C96 1.252 . S
O100 In91 2.326 . S
O100 C96 1.260 . S
C101 O92 1.240 . S
C101 O93 1.252 . S
O102 In91 2.294 . S
O102 C95 1.240 . S
O103 In91 2.326 . S
O103 C95 1.252 . S
In104 O105 2.294 . S
In104 O106 2.326 . S
In104 O110 2.266 . S
In104 O111 2.326 . S
In104 O112 2.266 . S
In104 O113 2.326 . S
In104 O115 2.294 . S
In104 O116 2.326 . S
O105 In104 2.294 . S
O105 C114 1.240 . S
O106 In104 2.326 . S
O106 C114 1.252 . S
C107 O110 1.252 . S
C107 O111 1.260 . S
C108 O115 1.240 . S
C108 O116 1.252 . S
C109 O112 1.252 . S
C109 O113 1.260 . S
O110 In104 2.266 . S
O110 C107 1.252 . S
O111 In104 2.326 . S
O111 C107 1.260 . S
O112 In104 2.266 . S
O112 C109 1.252 . S
O113 In104 2.326 . S
O113 C109 1.260 . S
C114 O105 1.240 . S
C114 O106 1.252 . S
O115 In104 2.294 . S
O115 C108 1.240 . S
O116 In104 2.326 . S
O116 C108 1.252 . S
In117 O118 2.294 . S
In117 O119 2.326 . S
In117 O123 2.266 . S
In117 O124 2.326 . S
In117 O125 2.266 . S
In117 O126 2.326 . S
In117 O128 2.294 . S
In117 O129 2.326 . S
O118 In117 2.294 . S
O118 C127 1.240 . S
O119 In117 2.326 . S
O119 C127 1.252 . S
C120 O123 1.252 . S
C120 O124 1.260 . S
C121 O128 1.240 . S
C121 O129 1.252 . S
C122 O125 1.252 . S
C122 O126 1.260 . S
O123 In117 2.266 . S
O123 C120 1.252 . S
O124 In117 2.326 . S
O124 C120 1.260 . S
O125 In117 2.266 . S
O125 C122 1.252 . S
O126 In117 2.326 . S
O126 C122 1.260 . S
C127 O118 1.240 . S
C127 O119 1.252 . S
O128 In117 2.294 . S
O128 C121 1.240 . S
O129 In117 2.326 . S
O129 C121 1.252 . S
In130 O131 2.294 . S
In130 O132 2.326 . S
In130 O136 2.266 . S
In130 O137 2.326 . S
In130 O138 2.266 . S
In130 O139 2.326 . S
In130 O141 2.294 . S
In130 O142 2.326 . S
O131 In130 2.294 . S
O131 C140 1.240 . S
O132 In130 2.326 . S
O132 C140 1.252 . S
C133 O136 1.252 . S
C133 O137 1.260 . S
C134 O141 1.240 . S
C134 O142 1.252 . S
C135 O138 1.252 . S
C135 O139 1.260 . S
O136 In130 2.266 . S
O136 C133 1.252 . S
O137 In130 2.326 . S
O137 C133 1.260 . S
O138 In130 2.266 . S
O138 C135 1.252 . S
O139 In130 2.326 . S
O139 C135 1.260 . S
C140 O131 1.240 . S
C140 O132 1.252 . S
O141 In130 2.294 . S
O141 C134 1.240 . S
O142 In130 2.326 . S
O142 C134 1.252 . S
In143 O144 2.294 . S
In143 O145 2.326 . S
In143 O149 2.266 . S
In143 O150 2.326 . S
In143 O151 2.266 . S
In143 O152 2.326 . S
In143 O154 2.294 . S
In143 O155 2.326 . S
O144 In143 2.294 . S
O144 C153 1.240 . S
O145 In143 2.326 . S
O145 C153 1.252 . S
C146 O149 1.252 . S
C146 O150 1.260 . S
C147 O154 1.240 . S
C147 O155 1.252 . S
C148 O151 1.252 . S
C148 O152 1.260 . S
O149 In143 2.266 . S
O149 C146 1.252 . S
O150 In143 2.326 . S
O150 C146 1.260 . S
O151 In143 2.266 . S
O151 C148 1.252 . S
O152 In143 2.326 . S
O152 C148 1.260 . S
C153 O144 1.240 . S
C153 O145 1.252 . S
O154 In143 2.294 . S
O154 C147 1.240 . S
O155 In143 2.326 . S
O155 C147 1.252 . S
In156 O157 2.294 . S
In156 O158 2.326 . S
In156 O162 2.266 . S
In156 O163 2.326 . S
In156 O164 2.266 . S
In156 O165 2.326 . S
In156 O167 2.294 . S
In156 O168 2.326 . S
O157 In156 2.294 . S
O157 C166 1.240 . S
O158 In156 2.326 . S
O158 C166 1.252 . S
C159 O162 1.252 . S
C159 O163 1.260 . S
C160 O167 1.240 . S
C160 O168 1.252 . S
C161 O164 1.252 . S
C161 O165 1.260 . S
O162 In156 2.266 . S
O162 C159 1.252 . S
O163 In156 2.326 . S
O163 C159 1.260 . S
O164 In156 2.266 . S
O164 C161 1.252 . S
O165 In156 2.326 . S
O165 C161 1.260 . S
C166 O157 1.240 . S
C166 O158 1.252 . S
O167 In156 2.294 . S
O167 C160 1.240 . S
O168 In156 2.326 . S
O168 C160 1.252 . S
In169 O170 2.294 . S
In169 O171 2.326 . S
In169 O175 2.266 . S
In169 O176 2.326 . S
In169 O177 2.266 . S
In169 O178 2.326 . S
In169 O180 2.294 . S
In169 O181 2.326 . S
O170 In169 2.294 . S
O170 C179 1.240 . S
O171 In169 2.326 . S
O171 C179 1.252 . S
C172 O175 1.252 . S
C172 O176 1.260 . S
C173 O180 1.240 . S
C173 O181 1.252 . S
C174 O177 1.252 . S
C174 O178 1.260 . S
O175 In169 2.266 . S
O175 C172 1.252 . S
O176 In169 2.326 . S
O176 C172 1.260 . S
O177 In169 2.266 . S
O177 C174 1.252 . S
O178 In169 2.326 . S
O178 C174 1.260 . S
C179 O170 1.240 . S
C179 O171 1.252 . S
O180 In169 2.294 . S
O180 C173 1.240 . S
O181 In169 2.326 . S
O181 C173 1.252 . S
In182 O183 2.294 . S
In182 O184 2.326 . S
In182 O188 2.266 . S
In182 O189 2.326 . S
In182 O190 2.266 . S
In182 O191 2.326 . S
In182 O193 2.294 . S
In182 O194 2.326 . S
O183 In182 2.294 . S
O183 C192 1.240 . S
O184 In182 2.326 . S
O184 C192 1.252 . S
C185 O188 1.252 . S
C185 O189 1.260 . S
C186 O193 1.240 . S
C186 O194 1.252 . S
C187 O190 1.252 . S
C187 O191 1.260 . S
O188 In182 2.266 . S
O188 C185 1.252 . S
O189 In182 2.326 . S
O189 C185 1.260 . S
O190 In182 2.266 . S
O190 C187 1.252 . S
O191 In182 2.326 . S
O191 C187 1.260 . S
C192 O183 1.240 . S
C192 O184 1.252 . S
O193 In182 2.294 . S
O193 C186 1.240 . S
O194 In182 2.326 . S
O194 C186 1.252 . S
In195 O196 2.294 . S
In195 O197 2.326 . S
In195 O201 2.266 . S
In195 O202 2.326 . S
In195 O203 2.266 . S
In195 O204 2.326 . S
In195 O206 2.294 . S
In195 O207 2.326 . S
O196 In195 2.294 . S
O196 C205 1.240 . S
O197 In195 2.326 . S
O197 C205 1.252 . S
C198 O201 1.252 . S
C198 O202 1.260 . S
C199 O206 1.240 . S
C199 O207 1.252 . S
C200 O203 1.252 . S
C200 O204 1.260 . S
O201 In195 2.266 . S
O201 C198 1.252 . S
O202 In195 2.326 . S
O202 C198 1.260 . S
O203 In195 2.266 . S
O203 C200 1.252 . S
O204 In195 2.326 . S
O204 C200 1.260 . S
C205 O196 1.240 . S
C205 O197 1.252 . S
O206 In195 2.294 . S
O206 C199 1.240 . S
O207 In195 2.326 . S
O207 C199 1.252 . S
C208 C209 1.369 . S
C208 C210 1.419 1_455 S
C208 H212 0.930 . S
C209 C208 1.369 . S
C209 C218 1.429 . S
C210 C208 1.419 1_655 S
C210 C211 1.363 . S
C210 H213 0.929 . S
C211 C210 1.363 . S
C211 C217 1.428 . S
H212 C208 0.930 . S
H213 C210 0.929 . S
S214 N215 1.613 . S
S214 N216 1.610 1_455 S
N215 S214 1.613 . S
N215 C218 1.350 . S
N216 S214 1.610 1_655 S
N216 C217 1.351 . S
C217 C211 1.428 . S
C217 N216 1.351 . S
C217 C218 1.434 1_655 S
C218 C209 1.429 . S
C218 N215 1.350 . S
C218 C217 1.434 1_455 S
C219 C220 1.369 . S
C219 C221 1.419 1_565 S
C219 H223 0.930 . S
C220 C219 1.369 . S
C220 C229 1.429 . S
C221 C219 1.419 1_545 S
C221 C222 1.363 . S
C221 H224 0.929 . S
C222 C221 1.363 . S
C222 C228 1.428 . S
H223 C219 0.930 . S
H224 C221 0.929 . S
S225 N226 1.613 1_545 S
S225 N227 1.610 . S
N226 S225 1.613 1_565 S
N226 C229 1.350 . S
N227 S225 1.610 . S
N227 C228 1.351 . S
C228 C222 1.428 . S
C228 N227 1.351 . S
C228 C229 1.434 1_545 S
C229 C220 1.429 . S
C229 N226 1.350 . S
C229 C228 1.434 1_565 S
C230 C231 1.369 . S
C230 C232 1.419 1_455 S
C230 H234 0.930 . S
C231 C230 1.369 . S
C231 C240 1.429 . S
C232 C230 1.419 1_655 S
C232 C233 1.363 . S
C232 H235 0.929 . S
C233 C232 1.363 . S
C233 C239 1.428 . S
H234 C230 0.930 . S
H235 C232 0.929 . S
S236 N237 1.613 . S
S236 N238 1.610 1_455 S
N237 S236 1.613 . S
N237 C240 1.350 . S
N238 S236 1.610 1_655 S
N238 C239 1.351 . S
C239 C233 1.428 . S
C239 N238 1.351 . S
C239 C240 1.434 1_655 S
C240 C231 1.429 . S
C240 N237 1.350 . S
C240 C239 1.434 1_455 S
C241 C242 1.369 . S
C241 C243 1.419 1_565 S
C241 H245 0.930 . S
C242 C241 1.369 . S
C242 C251 1.429 . S
C243 C241 1.419 1_545 S
C243 C244 1.363 . S
C243 H246 0.929 . S
C244 C243 1.363 . S
C244 C250 1.428 . S
H245 C241 0.930 . S
H246 C243 0.929 . S
S247 N248 1.613 1_545 S
S247 N249 1.610 . S
N248 S247 1.613 1_565 S
N248 C251 1.350 . S
N249 S247 1.610 . S
N249 C250 1.351 . S
C250 C244 1.428 . S
C250 N249 1.351 . S
C250 C251 1.434 1_545 S
C251 C242 1.429 . S
C251 N248 1.350 . S
C251 C250 1.434 1_565 S
C252 C253 1.369 . S
C252 C254 1.419 1_655 S
C252 H256 0.930 . S
C253 C252 1.369 . S
C253 C262 1.429 . S
C254 C252 1.419 1_455 S
C254 C255 1.363 . S
C254 H257 0.929 . S
C255 C254 1.363 . S
C255 C261 1.429 1_455 S
H256 C252 0.930 . S
H257 C254 0.929 . S
S258 N259 1.613 . S
S258 N260 1.610 . S
N259 S258 1.613 . S
N259 C262 1.350 . S
N260 S258 1.610 . S
N260 C261 1.351 . S
C261 C255 1.429 1_655 S
C261 N260 1.351 . S
C261 C262 1.434 . S
C262 C253 1.429 . S
C262 N259 1.350 . S
C262 C261 1.434 . S
C263 C264 1.381 . S
C263 C265 1.407 1_545 S
C263 H267 0.929 1_545 S
C264 C263 1.381 . S
C264 C273 1.429 . S
C265 C263 1.407 1_565 S
C265 C266 1.363 . S
C265 H268 0.929 . S
C266 C265 1.363 . S
C266 C272 1.415 1_565 S
H267 C263 0.929 1_565 S
H268 C265 0.929 . S
S269 N270 1.613 . S
S269 N271 1.610 . S
N270 S269 1.613 . S
N270 C273 1.350 . S
N271 S269 1.610 . S
N271 C272 1.353 . S
C272 C266 1.415 1_545 S
C272 N271 1.353 . S
C272 C273 1.447 . S
C273 C264 1.429 . S
C273 N270 1.350 . S
C273 C272 1.447 . S
C274 C275 1.369 . S
C274 C276 1.419 1_655 S
C274 H278 0.930 . S
C275 C274 1.369 . S
C275 C284 1.429 . S
C276 C274 1.419 1_455 S
C276 C277 1.363 . S
C276 H279 0.929 . S
C277 C276 1.363 . S
C277 C283 1.428 . S
H278 C274 0.930 . S
H279 C276 0.929 . S
S280 N281 1.613 . S
S280 N282 1.610 1_655 S
N281 S280 1.613 . S
N281 C284 1.350 . S
N282 S280 1.610 1_455 S
N282 C283 1.351 . S
C283 C277 1.428 . S
C283 N282 1.351 . S
C283 C284 1.434 1_455 S
C284 C275 1.429 . S
C284 N281 1.350 . S
C284 C283 1.434 1_655 S
C285 C286 1.369 . S
C285 C287 1.419 1_545 S
C285 H289 0.930 . S
C286 C285 1.369 . S
C286 C295 1.429 . S
C287 C285 1.419 1_565 S
C287 C288 1.363 . S
C287 H290 0.929 . S
C288 C287 1.363 . S
C288 C294 1.428 . S
H289 C285 0.930 . S
H290 C287 0.929 . S
S291 N292 1.613 . S
S291 N293 1.610 . S
N292 S291 1.613 . S
N292 C295 1.350 1_565 S
N293 S291 1.610 . S
N293 C294 1.351 . S
C294 C288 1.428 . S
C294 N293 1.351 . S
C294 C295 1.434 1_565 S
C295 C286 1.429 . S
C295 N292 1.350 1_545 S
C295 C294 1.434 1_545 S
C296 C297 1.369 . S
C296 C298 1.419 . S
C296 H300 0.930 . S
C297 C296 1.369 . S
C297 C306 1.429 . S
C298 C296 1.419 . S
C298 C299 1.363 . S
C298 H301 0.929 . S
C299 C298 1.363 . S
C299 C305 1.428 . S
H300 C296 0.930 . S
H301 C298 0.929 . S
S302 N303 1.613 . S
S302 N304 1.610 . S
N303 S302 1.613 . S
N303 C306 1.350 . S
N304 S302 1.610 . S
N304 C305 1.351 . S
C305 C299 1.428 . S
C305 N304 1.351 . S
C305 C306 1.434 . S
C306 C297 1.429 . S
C306 N303 1.350 . S
C306 C305 1.434 . S
C307 C308 1.369 . S
C307 C309 1.419 . S
C307 H311 0.930 . S
C308 C307 1.369 . S
C308 C317 1.429 . S
C309 C307 1.419 . S
C309 C310 1.363 . S
C309 H312 0.929 . S
C310 C309 1.363 . S
C310 C316 1.428 . S
H311 C307 0.930 . S
H312 C309 0.929 . S
S313 N314 1.613 . S
S313 N315 1.610 . S
N314 S313 1.613 . S
N314 C317 1.350 . S
N315 S313 1.610 . S
N315 C316 1.351 . S
C316 C310 1.428 . S
C316 N315 1.351 . S
C316 C317 1.434 . S
C317 C308 1.429 . S
C317 N314 1.350 . S
C317 C316 1.434 . S
C318 C319 1.369 . S
C318 C320 1.419 . S
C318 H322 0.930 . S
C319 C318 1.369 . S
C319 C328 1.429 . S
C320 C318 1.419 . S
C320 C321 1.363 . S
C320 H323 0.929 . S
C321 C320 1.363 . S
C321 C327 1.428 . S
H322 C318 0.930 . S
H323 C320 0.929 . S
S324 N325 1.613 . S
S324 N326 1.610 . S
N325 S324 1.613 . S
N325 C328 1.350 . S
N326 S324 1.610 . S
N326 C327 1.351 . S
C327 C321 1.428 . S
C327 N326 1.351 . S
C327 C328 1.434 . S
C328 C319 1.429 . S
C328 N325 1.350 . S
C328 C327 1.434 . S
C329 C330 1.369 . S
C329 C331 1.419 . S
C329 H333 0.930 . S
C330 C329 1.369 . S
C330 C339 1.429 . S
C331 C329 1.419 . S
C331 C332 1.363 . S
C331 H334 0.929 . S
C332 C331 1.363 . S
C332 C338 1.428 . S
H333 C329 0.930 . S
H334 C331 0.929 . S
S335 N336 1.613 . S
S335 N337 1.610 . S
N336 S335 1.613 . S
N336 C339 1.350 . S
N337 S335 1.610 . S
N337 C338 1.351 . S
C338 C332 1.428 . S
C338 N337 1.351 . S
C338 C339 1.434 . S
C339 C330 1.429 . S
C339 N336 1.350 . S
C339 C338 1.434 . S
C340 C341 1.369 . S
C340 C342 1.419 . S
C340 H344 0.930 . S
C341 C340 1.369 . S
C341 C350 1.429 . S
C342 C340 1.419 . S
C342 C343 1.363 . S
C342 H345 0.929 . S
C343 C342 1.363 . S
C343 C349 1.428 . S
H344 C340 0.930 . S
H345 C342 0.929 . S
S346 N347 1.613 . S
S346 N348 1.610 . S
N347 S346 1.613 . S
N347 C350 1.350 . S
N348 S346 1.610 . S
N348 C349 1.351 . S
C349 C343 1.428 . S
C349 N348 1.351 . S
C349 C350 1.434 . S
C350 C341 1.429 . S
C350 N347 1.350 . S
C350 C349 1.434 . S
C351 C352 1.369 . S
C351 C353 1.419 . S
C351 H355 0.930 . S
C352 C351 1.369 . S
C352 C361 1.429 . S
C353 C351 1.419 . S
C353 C354 1.363 . S
C353 H356 0.929 . S
C354 C353 1.363 . S
C354 C360 1.428 . S
H355 C351 0.930 . S
H356 C353 0.929 . S
S357 N358 1.613 . S
S357 N359 1.610 . S
N358 S357 1.613 . S
N358 C361 1.350 . S
N359 S357 1.610 . S
N359 C360 1.351 . S
C360 C354 1.428 . S
C360 N359 1.351 . S
C360 C361 1.434 . S
C361 C352 1.429 . S
C361 N358 1.350 . S
C361 C360 1.434 . S
C362 C363 1.369 . S
C362 C364 1.419 . S
C362 H366 0.930 . S
C363 C362 1.369 . S
C363 C372 1.429 . S
C364 C362 1.419 . S
C364 C365 1.363 . S
C364 H367 0.929 . S
C365 C364 1.363 . S
C365 C371 1.428 . S
H366 C362 0.930 . S
H367 C364 0.929 . S
S368 N369 1.613 . S
S368 N370 1.610 . S
N369 S368 1.613 . S
N369 C372 1.350 . S
N370 S368 1.610 . S
N370 C371 1.351 . S
C371 C365 1.428 . S
C371 N370 1.351 . S
C371 C372 1.434 . S
C372 C363 1.429 . S
C372 N369 1.350 . S
C372 C371 1.434 . S
C373 C374 1.369 . S
C373 C375 1.419 . S
C373 H377 0.930 . S
C374 C373 1.369 . S
C374 C383 1.429 . S
C375 C373 1.419 . S
C375 C376 1.363 . S
C375 H378 0.929 . S
C376 C375 1.363 . S
C376 C382 1.428 . S
H377 C373 0.930 . S
H378 C375 0.929 . S
S379 N380 1.613 . S
S379 N381 1.610 . S
N380 S379 1.613 . S
N380 C383 1.350 . S
N381 S379 1.610 . S
N381 C382 1.351 . S
C382 C376 1.428 . S
C382 N381 1.351 . S
C382 C383 1.434 . S
C383 C374 1.429 . S
C383 N380 1.350 . S
C383 C382 1.434 . S
C384 C385 1.369 . S
C384 C386 1.419 1_556 S
C384 H388 0.930 . S
C385 C384 1.369 . S
C385 C394 1.429 . S
C386 C384 1.419 1_554 S
C386 C387 1.363 . S
C386 H389 0.929 . S
C387 C386 1.363 . S
C387 C393 1.428 . S
H388 C384 0.930 . S
H389 C386 0.929 . S
S390 N391 1.616 1_554 S
S390 N392 1.608 . S
N391 S390 1.616 1_556 S
N391 C394 1.350 . S
N392 S390 1.608 . S
N392 C393 1.351 . S
C393 C387 1.428 . S
C393 N392 1.351 . S
C393 C394 1.434 1_554 S
C394 C385 1.429 . S
C394 N391 1.350 . S
C394 C393 1.434 1_556 S
C395 C396 1.369 . S
C395 C397 1.419 . S
C395 H399 0.930 . S
C396 C395 1.369 . S
C396 C405 1.429 . S
C397 C395 1.419 . S
C397 C398 1.363 . S
C397 H400 0.929 . S
C398 C397 1.363 . S
C398 C404 1.428 . S
H399 C395 0.930 . S
H400 C397 0.929 . S
S401 N402 1.613 . S
S401 N403 1.610 . S
N402 S401 1.613 . S
N402 C405 1.350 . S
N403 S401 1.610 . S
N403 C404 1.351 . S
C404 C398 1.428 . S
C404 N403 1.351 . S
C404 C405 1.434 . S
C405 C396 1.429 . S
C405 N402 1.350 . S
C405 C404 1.434 . S
C406 C407 1.369 . S
C406 C408 1.419 1_554 S
C406 H410 0.930 . S
C407 C406 1.369 . S
C407 C416 1.429 . S
C408 C406 1.419 1_556 S
C408 C409 1.363 . S
C408 H411 0.929 . S
C409 C408 1.363 . S
C409 C415 1.428 . S
H410 C406 0.930 . S
H411 C408 0.929 . S
S412 N413 1.616 1_556 S
S412 N414 1.608 . S
N413 S412 1.616 1_554 S
N413 C416 1.350 . S
N414 S412 1.608 . S
N414 C415 1.351 . S
C415 C409 1.428 . S
C415 N414 1.351 . S
C415 C416 1.434 1_556 S
C416 C407 1.429 . S
C416 N413 1.350 . S
C416 C415 1.434 1_554 S
C417 C418 1.369 . S
C417 C419 1.419 . S
C417 H421 0.930 . S
C418 C417 1.369 . S
C418 C427 1.429 . S
C419 C417 1.419 . S
C419 C420 1.363 . S
C419 H422 0.929 . S
C420 C419 1.363 . S
C420 C426 1.428 . S
H421 C417 0.930 . S
H422 C419 0.929 . S
S423 N424 1.613 . S
S423 N425 1.610 . S
N424 S423 1.613 . S
N424 C427 1.350 . S
N425 S423 1.610 . S
N425 C426 1.351 . S
C426 C420 1.428 . S
C426 N425 1.351 . S
C426 C427 1.434 . S
C427 C418 1.429 . S
C427 N424 1.350 . S
C427 C426 1.434 . S
C428 C429 1.369 . S
C428 C430 1.419 . S
C428 H432 0.930 . S
C429 C428 1.369 . S
C429 C438 1.429 . S
C430 C428 1.419 . S
C430 C431 1.363 . S
C430 H433 0.929 . S
C431 C430 1.363 . S
C431 C437 1.428 . S
H432 C428 0.930 . S
H433 C430 0.929 . S
S434 N435 1.613 . S
S434 N436 1.610 . S
N435 S434 1.613 . S
N435 C438 1.350 . S
N436 S434 1.610 . S
N436 C437 1.351 . S
C437 C431 1.428 . S
C437 N436 1.351 . S
C437 C438 1.434 . S
C438 C429 1.429 . S
C438 N435 1.350 . S
C438 C437 1.434 . S
C439 C440 1.369 . S
C439 C441 1.419 1_556 S
C439 H443 0.930 . S
C440 C439 1.369 . S
C440 C449 1.429 . S
C441 C439 1.419 1_554 S
C441 C442 1.363 . S
C441 H444 0.929 . S
C442 C441 1.363 . S
C442 C448 1.428 . S
H443 C439 0.930 . S
H444 C441 0.929 . S
S445 N446 1.616 1_554 S
S445 N447 1.608 . S
N446 S445 1.616 1_556 S
N446 C449 1.350 . S
N447 S445 1.608 . S
N447 C448 1.351 . S
C448 C442 1.428 . S
C448 N447 1.351 . S
C448 C449 1.434 1_554 S
C449 C440 1.429 . S
C449 N446 1.350 . S
C449 C448 1.434 1_556 S
C450 C451 1.369 . S
C450 C452 1.419 . S
C450 H454 0.930 . S
C451 C450 1.369 . S
C451 C460 1.429 . S
C452 C450 1.419 . S
C452 C453 1.363 . S
C452 H455 0.929 . S
C453 C452 1.363 . S
C453 C459 1.428 . S
H454 C450 0.930 . S
H455 C452 0.929 . S
S456 N457 1.613 . S
S456 N458 1.610 . S
N457 S456 1.613 . S
N457 C460 1.350 . S
N458 S456 1.610 . S
N458 C459 1.351 . S
C459 C453 1.428 . S
C459 N458 1.351 . S
C459 C460 1.434 . S
C460 C451 1.429 . S
C460 N457 1.350 . S
C460 C459 1.434 . S
C461 C462 1.369 . S
C461 C463 1.419 1_554 S
C461 H465 0.930 . S
C462 C461 1.369 . S
C462 C471 1.429 . S
C463 C461 1.419 1_556 S
C463 C464 1.363 . S
C463 H466 0.929 . S
C464 C463 1.363 . S
C464 C470 1.428 . S
H465 C461 0.930 . S
H466 C463 0.929 . S
S467 N468 1.616 1_556 S
S467 N469 1.608 . S
N468 S467 1.616 1_554 S
N468 C471 1.350 . S
N469 S467 1.608 . S
N469 C470 1.351 . S
C470 C464 1.428 . S
C470 N469 1.351 . S
C470 C471 1.434 1_556 S
C471 C462 1.429 . S
C471 N468 1.350 . S
C471 C470 1.434 1_554 S
C472 C473 1.369 . S
C472 C474 1.419 . S
C472 H476 0.930 . S
C473 C472 1.369 . S
C473 C482 1.429 . S
C474 C472 1.419 . S
C474 C475 1.363 . S
C474 H477 0.929 . S
C475 C474 1.363 . S
C475 C481 1.428 . S
H476 C472 0.930 . S
H477 C474 0.929 . S
S478 N479 1.613 . S
S478 N480 1.610 . S
N479 S478 1.613 . S
N479 C482 1.350 . S
N480 S478 1.610 . S
N480 C481 1.351 . S
C481 C475 1.428 . S
C481 N480 1.351 . S
C481 C482 1.434 . S
C482 C473 1.429 . S
C482 N479 1.350 . S
C482 C481 1.434 . S
C483 C484 1.369 . S
C483 C485 1.419 . S
C483 H487 0.930 . S
C484 C483 1.369 . S
C484 C493 1.429 . S
C485 C483 1.419 . S
C485 C486 1.363 . S
C485 H488 0.929 . S
C486 C485 1.363 . S
C486 C492 1.428 . S
H487 C483 0.930 . S
H488 C485 0.929 . S
S489 N490 1.613 . S
S489 N491 1.610 . S
N490 S489 1.613 . S
N490 C493 1.350 . S
N491 S489 1.610 . S
N491 C492 1.351 . S
C492 C486 1.428 . S
C492 N491 1.351 . S
C492 C493 1.434 . S
C493 C484 1.429 . S
C493 N490 1.350 . S
C493 C492 1.434 . S
C494 C495 1.369 . S
C494 C496 1.419 . S
C494 H498 0.930 . S
C495 C494 1.369 . S
C495 C504 1.429 . S
C496 C494 1.419 . S
C496 C497 1.363 . S
C496 H499 0.929 . S
C497 C496 1.363 . S
C497 C503 1.428 . S
H498 C494 0.930 . S
H499 C496 0.929 . S
S500 N501 1.613 . S
S500 N502 1.610 . S
N501 S500 1.613 . S
N501 C504 1.350 . S
N502 S500 1.610 . S
N502 C503 1.351 . S
C503 C497 1.428 . S
C503 N502 1.351 . S
C503 C504 1.434 . S
C504 C495 1.429 . S
C504 N501 1.350 . S
C504 C503 1.434 . S
C505 C506 1.369 . S
C505 C507 1.419 . S
C505 H509 0.930 . S
C506 C505 1.369 . S
C506 C515 1.429 . S
C507 C505 1.419 . S
C507 C508 1.363 . S
C507 H510 0.929 . S
C508 C507 1.363 . S
C508 C514 1.428 . S
H509 C505 0.930 . S
H510 C507 0.929 . S
S511 N512 1.613 . S
S511 N513 1.610 . S
N512 S511 1.613 . S
N512 C515 1.350 . S
N513 S511 1.610 . S
N513 C514 1.351 . S
C514 C508 1.428 . S
C514 N513 1.351 . S
C514 C515 1.434 . S
C515 C506 1.429 . S
C515 N512 1.350 . S
C515 C514 1.434 . S
C516 C517 1.369 . S
C516 C518 1.419 . S
C516 H520 0.930 . S
C517 C516 1.369 . S
C517 C526 1.429 . S
C518 C516 1.419 . S
C518 C519 1.363 . S
C518 H521 0.929 . S
C519 C518 1.363 . S
C519 C525 1.428 . S
H520 C516 0.930 . S
H521 C518 0.929 . S
S522 N523 1.613 . S
S522 N524 1.610 . S
N523 S522 1.613 . S
N523 C526 1.350 . S
N524 S522 1.610 . S
N524 C525 1.351 . S
C525 C519 1.428 . S
C525 N524 1.351 . S
C525 C526 1.434 . S
C526 C517 1.429 . S
C526 N523 1.350 . S
C526 C525 1.434 . S
C527 C528 1.369 . S
C527 C529 1.419 . S
C527 H531 0.930 . S
C528 C527 1.369 . S
C528 C537 1.429 . S
C529 C527 1.419 . S
C529 C530 1.363 . S
C529 H532 0.929 . S
C530 C529 1.363 . S
C530 C536 1.428 . S
H531 C527 0.930 . S
H532 C529 0.929 . S
S533 N534 1.613 . S
S533 N535 1.610 . S
N534 S533 1.613 . S
N534 C537 1.350 . S
N535 S533 1.610 . S
N535 C536 1.351 . S
C536 C530 1.428 . S
C536 N535 1.351 . S
C536 C537 1.434 . S
C537 C528 1.429 . S
C537 N534 1.350 . S
C537 C536 1.434 . S
C538 C539 1.369 . S
C538 C540 1.419 . S
C538 H542 0.930 . S
C539 C538 1.369 . S
C539 C548 1.429 . S
C540 C538 1.419 . S
C540 C541 1.363 . S
C540 H543 0.929 . S
C541 C540 1.363 . S
C541 C547 1.428 . S
H542 C538 0.930 . S
H543 C540 0.929 . S
S544 N545 1.613 . S
S544 N546 1.610 . S
N545 S544 1.613 . S
N545 C548 1.350 . S
N546 S544 1.610 . S
N546 C547 1.351 . S
C547 C541 1.428 . S
C547 N546 1.351 . S
C547 C548 1.434 . S
C548 C539 1.429 . S
C548 N545 1.350 . S
C548 C547 1.434 . S
C549 C550 1.369 . S
C549 C551 1.419 . S
C549 H553 0.930 . S
C550 C549 1.369 . S
C550 C559 1.429 . S
C551 C549 1.419 . S
C551 C552 1.363 . S
C551 H554 0.929 . S
C552 C551 1.363 . S
C552 C558 1.428 . S
H553 C549 0.930 . S
H554 C551 0.929 . S
S555 N556 1.613 . S
S555 N557 1.610 . S
N556 S555 1.613 . S
N556 C559 1.350 . S
N557 S555 1.610 . S
N557 C558 1.351 . S
C558 C552 1.428 . S
C558 N557 1.351 . S
C558 C559 1.434 . S
C559 C550 1.429 . S
C559 N556 1.350 . S
C559 C558 1.434 . S
C209 C3 1.458 . S
C211 C31 1.464 . S
C220 C42 1.461 . S
C222 C18 1.461 . S
C231 C55 1.461 . S
C233 C81 1.464 . S
C242 C96 1.466 . S
C244 C70 1.460 . S
C253 C107 1.459 . S
C255 C135 1.463 . S
C264 C146 1.459 . S
C266 C122 1.463 . S
C275 C159 1.459 . S
C277 C187 1.465 . S
C286 C200 1.464 . S
C288 C172 1.461 . S
C297 C57 1.399 . S
C299 C5 1.393 . S
C308 C16 1.395 . S
C310 C68 1.393 . S
C319 C29 1.395 . S
C321 C83 1.392 . S
C330 C94 1.390 . S
C332 C44 1.397 . S
C341 C109 1.398 . S
C343 C161 1.391 . S
C352 C120 1.392 . S
C354 C174 1.398 . S
C363 C133 1.390 . S
C365 C185 1.397 . S
C374 C148 1.399 . S
C376 C198 1.392 . S
C385 C140 1.421 . S
C387 C4 1.421 . S
C396 C147 1.421 . S
C398 C23 1.421 . S
C407 C36 1.418 . S
C409 C108 1.418 . S
C418 C43 1.418 . S
C420 C127 1.418 . S
C429 C56 1.421 . S
C431 C192 1.421 . S
C440 C75 1.421 . S
C442 C205 1.421 . S
C451 C82 1.417 . S
C453 C160 1.418 . S
C462 C173 1.419 . S
C464 C101 1.419 . S
C473 C10 1.379 . S
C475 C199 1.379 . S
C484 C166 1.379 . S
C486 C17 1.379 . S
C495 C30 1.382 . S
C497 C179 1.382 . S
C506 C186 1.379 . S
C508 C49 1.380 . S
C517 C121 1.380 . S
C519 C62 1.380 . S
C528 C69 1.379 . S
C530 C134 1.379 . S
C539 C153 1.379 . S
C541 C88 1.379 . S
C550 C114 1.381 . S
C552 C95 1.381 . S
