# Generated by pormake.
# Topology upb, (4)-cn, num edge types: 1
# Building blocks:
#     Node 0, Type 0, BuildingBlock: ICAMEG_clean_sbu_1, # of connection points: 4
#     Node 1, Type 0, BuildingBlock: ICAMEG_clean_sbu_1, # of connection points: 4
#     Node 2, Type 0, BuildingBlock: ICAMEG_clean_sbu_1, # of connection points: 4
#     Node 3, Type 0, BuildingBlock: ICAMEG_clean_sbu_1, # of connection points: 4
#     Node 4, Type 0, BuildingBlock: ICAMEG_clean_sbu_1, # of connection points: 4
#     Node 5, Type 0, BuildingBlock: ICAMEG_clean_sbu_1, # of connection points: 4
#     Node 6, Type 0, BuildingBlock: ICAMEG_clean_sbu_1, # of connection points: 4
#     Node 7, Type 0, BuildingBlock: ICAMEG_clean_sbu_1, # of connection points: 4
#     Node 8, Type 0, BuildingBlock: ICAMEG_clean_sbu_1, # of connection points: 4
#     Node 9, Type 0, BuildingBlock: ICAMEG_clean_sbu_1, # of connection points: 4
#     Node 10, Type 0, BuildingBlock: ICAMEG_clean_sbu_1, # of connection points: 4
#     Node 11, Type 0, BuildingBlock: ICAMEG_clean_sbu_1, # of connection points: 4
#     Node 12, Type 0, BuildingBlock: ICAMEG_clean_sbu_1, # of connection points: 4
#     Node 13, Type 0, BuildingBlock: ICAMEG_clean_sbu_1, # of connection points: 4
#     Node 14, Type 0, BuildingBlock: ICAMEG_clean_sbu_1, # of connection points: 4
#     Node 15, Type 0, BuildingBlock: ICAMEG_clean_sbu_1, # of connection points: 4
#     Edge 16, Type (0, 0), BuildingBlock: TEMPAE_clean_linker_10, # of connection points: 2
#     Edge 17, Type (0, 0), BuildingBlock: TEMPAE_clean_linker_10, # of connection points: 2
#     Edge 18, Type (0, 0), BuildingBlock: TEMPAE_clean_linker_10, # of connection points: 2
#     Edge 19, Type (0, 0), BuildingBlock: TEMPAE_clean_linker_10, # of connection points: 2
#     Edge 20, Type (0, 0), BuildingBlock: TEMPAE_clean_linker_10, # of connection points: 2
#     Edge 21, Type (0, 0), BuildingBlock: TEMPAE_clean_linker_10, # of connection points: 2
#     Edge 22, Type (0, 0), BuildingBlock: TEMPAE_clean_linker_10, # of connection points: 2
#     Edge 23, Type (0, 0), BuildingBlock: TEMPAE_clean_linker_10, # of connection points: 2
#     Edge 24, Type (0, 0), BuildingBlock: TEMPAE_clean_linker_10, # of connection points: 2
#     Edge 25, Type (0, 0), BuildingBlock: TEMPAE_clean_linker_10, # of connection points: 2
#     Edge 26, Type (0, 0), BuildingBlock: TEMPAE_clean_linker_10, # of connection points: 2
#     Edge 27, Type (0, 0), BuildingBlock: TEMPAE_clean_linker_10, # of connection points: 2
#     Edge 28, Type (0, 0), BuildingBlock: TEMPAE_clean_linker_10, # of connection points: 2
#     Edge 29, Type (0, 0), BuildingBlock: TEMPAE_clean_linker_10, # of connection points: 2
#     Edge 30, Type (0, 0), BuildingBlock: TEMPAE_clean_linker_10, # of connection points: 2
#     Edge 31, Type (0, 0), BuildingBlock: TEMPAE_clean_linker_10, # of connection points: 2
#     Edge 32, Type (0, 0), BuildingBlock: TEMPAE_clean_linker_10, # of connection points: 2
#     Edge 33, Type (0, 0), BuildingBlock: TEMPAE_clean_linker_10, # of connection points: 2
#     Edge 34, Type (0, 0), BuildingBlock: TEMPAE_clean_linker_10, # of connection points: 2
#     Edge 35, Type (0, 0), BuildingBlock: TEMPAE_clean_linker_10, # of connection points: 2
#     Edge 36, Type (0, 0), BuildingBlock: TEMPAE_clean_linker_10, # of connection points: 2
#     Edge 37, Type (0, 0), BuildingBlock: TEMPAE_clean_linker_10, # of connection points: 2
#     Edge 38, Type (0, 0), BuildingBlock: TEMPAE_clean_linker_10, # of connection points: 2
#     Edge 39, Type (0, 0), BuildingBlock: TEMPAE_clean_linker_10, # of connection points: 2
#     Edge 40, Type (0, 0), BuildingBlock: TEMPAE_clean_linker_10, # of connection points: 2
#     Edge 41, Type (0, 0), BuildingBlock: TEMPAE_clean_linker_10, # of connection points: 2
#     Edge 42, Type (0, 0), BuildingBlock: TEMPAE_clean_linker_10, # of connection points: 2
#     Edge 43, Type (0, 0), BuildingBlock: TEMPAE_clean_linker_10, # of connection points: 2
#     Edge 44, Type (0, 0), BuildingBlock: TEMPAE_clean_linker_10, # of connection points: 2
#     Edge 45, Type (0, 0), BuildingBlock: TEMPAE_clean_linker_10, # of connection points: 2
#     Edge 46, Type (0, 0), BuildingBlock: TEMPAE_clean_linker_10, # of connection points: 2
#     Edge 47, Type (0, 0), BuildingBlock: TEMPAE_clean_linker_10, # of connection points: 2
# Relax obj value: 0.190
# Max RMSD: 0.052
# Mean RMSD: 0.052
data_MOF--net-upb--node1-ICAMEG_clean_sbu_1--edge1-TEMPAE_clean_linker_10
_symmetry_space_group_name_H-M    P1
_symmetry_Int_Tables_number       1
_symmetry_cell_setting            triclinic
loop_
_symmetry_equiv_pos_as_xyz
'x, y, z'
_cell_length_a     50.485416
_cell_length_b     50.440021
_cell_length_c     24.423648
_cell_angle_alpha  90.003798
_cell_angle_beta   89.966919
_cell_angle_gamma 90.051062
loop_
_atom_site_label
_atom_site_type_symbol
_atom_site_fract_x
_atom_site_fract_y
_atom_site_fract_z
_atom_type_partial_charge
Co0 Co 0.05555 0.16822 0.2565 0.0
Co1 Co 0.04291 0.22672 0.1872 0.0
O2 O 0.06688 0.19806 0.21035 0.0
C3 C 0.09232 0.1439 0.17147 0.0
O4 O 0.09636 0.16653 0.14643 0.0
C5 C 0.08773 0.25486 0.23907 0.0
O6 O 0.08643 0.23745 0.27892 0.0
O7 O 0.03096 0.23265 0.26447 0.0
O8 O 0.03272 0.19196 0.30137 0.0
H9 H 0.95587 0.27469 0.17745 0.0
H10 H 0.11323 0.17983 0.24228 0.0
O11 O 0.07761 0.14241 0.21374 0.0
H12 H 0.09702 0.18426 0.44097 0.0
H13 H 0.0683 0.08369 0.36315 0.0
H14 H 0.00394 0.15111 0.30276 0.0
H15 H 0.06067 0.17355 0.37752 0.0
H16 H 0.08272 0.12162 0.30682 0.0
O17 O 0.07176 0.2534 0.19883 0.0
H18 H 0.98654 0.2396 0.20793 0.0
H19 H 0.0492 0.27502 0.11771 0.0
H20 H 0.98872 0.11362 0.35944 0.0
H21 H 0.15017 0.19014 0.30427 0.0
H22 H 0.02101 0.07957 0.39003 0.0
H23 H 0.14222 0.19254 0.40449 0.0
O24 O 0.02568 0.16077 0.20634 0.0
H25 H 0.11105 0.21522 0.03882 0.0
H26 H 0.01561 0.22099 0.07929 0.0
H27 H 0.03026 0.21379 0.98414 0.0
H28 H 0.07835 0.21112 0.96347 0.0
H29 H 0.09544 0.22195 0.13359 0.0
H30 H 0.01931 0.31065 0.0868 0.0
H31 H 0.97222 0.3105 0.11631 0.0
O32 O 0.01348 0.20069 0.17415 0.0
C33 C 0.02634 0.21631 0.30314 0.0
C34 C 0.97633 0.27493 0.16418 0.0
C35 C 0.01195 0.29514 0.11337 0.0
N36 N 0.01956 0.25515 0.16429 0.0
C37 C 0.99376 0.25509 0.18121 0.0
C38 C 0.0288 0.27497 0.13119 0.0
C39 C 0.98552 0.29503 0.12992 0.0
C40 C 0.10961 0.18023 0.28572 0.0
N41 N 0.08482 0.17556 0.30603 0.0
C42 C 0.13062 0.18634 0.32071 0.0
C43 C 0.12613 0.18776 0.37692 0.0
C44 C 0.10079 0.18312 0.3974 0.0
C45 C 0.08026 0.17707 0.36118 0.0
C46 C 0.05404 0.09842 0.35015 0.0
C47 C 0.01814 0.13646 0.31616 0.0
C48 C 0.06208 0.11991 0.31811 0.0
N49 N 0.04421 0.13865 0.3017 0.0
C50 C 0.00939 0.11524 0.34814 0.0
C51 C 0.02751 0.09612 0.36523 0.0
C52 C 0.00999 0.17574 0.17966 0.0
C53 C 0.09004 0.21635 0.0474 0.0
C54 C 0.0365 0.21928 0.07079 0.0
C55 C 0.04471 0.21545 0.01673 0.0
C56 C 0.07168 0.21398 0.00511 0.0
N57 N 0.05462 0.22147 0.11216 0.0
C58 C 0.08109 0.22019 0.10096 0.0
Co59 Co 0.81254 0.07105 0.24473 0.0
Co60 Co 0.75518 0.04645 0.18798 0.0
O61 O 0.78078 0.07485 0.20066 0.0
C62 C 0.83865 0.09142 0.14269 0.0
O63 O 0.83098 0.07051 0.11485 0.0
C64 C 0.72555 0.08951 0.23898 0.0
O65 O 0.74413 0.08871 0.27646 0.0
O66 O 0.75368 0.03722 0.26747 0.0
O67 O 0.79392 0.04819 0.2989 0.0
H68 H 0.71763 0.95452 0.20448 0.0
H69 H 0.79348 0.12475 0.21515 0.0
O70 O 0.83204 0.09434 0.19261 0.0
H71 H 0.79423 0.12278 0.41701 0.0
H72 H 0.89735 0.10347 0.3302 0.0
H73 H 0.83919 0.02618 0.30054 0.0
H74 H 0.80898 0.08394 0.36383 0.0
H75 H 0.85554 0.10816 0.27903 0.0
O76 O 0.72601 0.07301 0.19935 0.0
H77 H 0.75023 0.99009 0.2211 0.0
H78 H 0.70418 0.04382 0.12716 0.0
H79 H 0.88065 0.02069 0.35267 0.0
H80 H 0.77875 0.16412 0.26676 0.0
H81 H 0.9101 0.05951 0.36766 0.0
H82 H 0.77894 0.16323 0.36842 0.0
O83 O 0.82283 0.03909 0.20257 0.0
H84 H 0.75448 0.10758 0.02527 0.0
H85 H 0.76157 0.01463 0.08601 0.0
H86 H 0.76429 0.02503 0.9875 0.0
H87 H 0.76065 0.07179 0.95657 0.0
H88 H 0.75206 0.09631 0.12348 0.0
H89 H 0.67093 0.00891 0.1099 0.0
H90 H 0.67764 0.96384 0.14848 0.0
O91 O 0.7844 0.02 0.17716 0.0
C92 C 0.77117 0.03769 0.3051 0.0
C93 C 0.71452 0.97405 0.1873 0.0
C94 C 0.68829 0.00459 0.13428 0.0
N95 N 0.72919 0.01891 0.17473 0.0
C96 C 0.73294 0.99424 0.19645 0.0
C97 C 0.70714 0.02429 0.1443 0.0
C98 C 0.69208 0.9793 0.15593 0.0
C99 C 0.79393 0.12434 0.25939 0.0
N100 N 0.80218 0.10211 0.28642 0.0
C101 C 0.78546 0.14665 0.28838 0.0
C102 C 0.78553 0.14612 0.34543 0.0
C103 C 0.79407 0.12342 0.37271 0.0
C104 C 0.80236 0.10146 0.34237 0.0
C105 C 0.88464 0.08643 0.32415 0.0
C106 C 0.85175 0.04323 0.30745 0.0
C107 C 0.86095 0.08895 0.29513 0.0
N108 N 0.84479 0.06751 0.28728 0.0
C109 C 0.87526 0.03998 0.33679 0.0
C110 C 0.89178 0.06176 0.34513 0.0
C111 C 0.80966 0.02001 0.18159 0.0
C112 C 0.75601 0.08712 0.03826 0.0
C113 C 0.76005 0.03504 0.07291 0.0
C114 C 0.76154 0.0408 0.01705 0.0
C115 C 0.75949 0.06704 0.99972 0.0
N116 N 0.75652 0.05485 0.11047 0.0
C117 C 0.75457 0.08062 0.09379 0.0
Co118 Co 0.94567 0.82473 0.27448 0.0
Co119 Co 0.95805 0.7676 0.20456 0.0
O120 O 0.93359 0.79524 0.22916 0.0
C121 C 0.91502 0.85391 0.18906 0.0
O122 O 0.92906 0.84243 0.15047 0.0
C123 C 0.91347 0.73844 0.25334 0.0
O124 O 0.91554 0.75487 0.29477 0.0
O125 O 0.96862 0.76053 0.28192 0.0
O126 O 0.97266 0.8022 0.31238 0.0
H127 H 0.045 0.71937 0.19764 0.0
H128 H 0.88844 0.8118 0.27224 0.0
O129 O 0.919 0.84833 0.2392 0.0
H130 H 0.91485 0.80334 0.46577 0.0
H131 H 0.93363 0.90698 0.38878 0.0
H132 H 0.99835 0.84534 0.30727 0.0
H133 H 0.94741 0.8168 0.39584 0.0
H134 H 0.91857 0.8686 0.33447 0.0
O135 O 0.92898 0.74067 0.21238 0.0
H136 H 0.01402 0.75417 0.22826 0.0
H137 H 0.95296 0.72104 0.13018 0.0
H138 H 0.01426 0.88336 0.36148 0.0
H139 H 0.85518 0.79856 0.34105 0.0
H140 H 0.98179 0.9145 0.40275 0.0
H141 H 0.86838 0.7941 0.43857 0.0
O142 O 0.97198 0.83419 0.21785 0.0
H143 H 0.89243 0.7854 0.05428 0.0
H144 H 0.98715 0.77617 0.09943 0.0
H145 H 0.97402 0.78706 0.00478 0.0
H146 H 0.92635 0.7918 0.98177 0.0
H147 H 0.90645 0.77464 0.14852 0.0
H148 H 0.98317 0.68571 0.09891 0.0
H149 H 0.02961 0.68484 0.13244 0.0
O150 O 0.98779 0.79403 0.19598 0.0
C151 C 0.976 0.77732 0.31776 0.0
C152 C 0.02484 0.71958 0.18261 0.0
C153 C 0.99013 0.70067 0.12725 0.0
N154 N 0.98181 0.73975 0.18064 0.0
C155 C 0.00724 0.73927 0.19969 0.0
C156 C 0.97309 0.72067 0.14521 0.0
C157 C 0.01618 0.7002 0.14606 0.0
C158 C 0.89425 0.81021 0.31469 0.0
N159 N 0.91983 0.81508 0.32993 0.0
C160 C 0.87536 0.80258 0.35343 0.0
C161 C 0.8828 0.80002 0.40812 0.0
C162 C 0.90889 0.80516 0.4234 0.0
C163 C 0.92725 0.81271 0.38355 0.0
C164 C 0.94797 0.89352 0.37113 0.0
C165 C 0.98408 0.8587 0.32532 0.0
C166 C 0.93956 0.87177 0.34026 0.0
N167 N 0.95755 0.85461 0.31808 0.0
C168 C 0.99322 0.88025 0.35588 0.0
C169 C 0.97499 0.89772 0.37896 0.0
C170 C 0.98936 0.81935 0.19572 0.0
C171 C 0.91326 0.78332 0.06381 0.0
C172 C 0.96636 0.77816 0.08974 0.0
C173 C 0.95905 0.7843 0.03605 0.0
C174 C 0.9323 0.78694 0.02314 0.0
N175 N 0.94756 0.77467 0.12946 0.0
C176 C 0.9213 0.77715 0.11705 0.0
Co177 Co 0.19636 0.93264 0.29998 0.0
Co178 Co 0.24725 0.94686 0.20925 0.0
O179 O 0.22098 0.92286 0.24179 0.0
C180 C 0.16066 0.91233 0.21207 0.0
O181 O 0.17455 0.92525 0.17522 0.0
C182 C 0.27796 0.90336 0.25768 0.0
O183 O 0.26253 0.90605 0.30054 0.0
O184 O 0.25834 0.96124 0.28241 0.0
O185 O 0.22467 0.95169 0.33933 0.0
H186 H 0.2928 0.03415 0.17789 0.0
H187 H 0.20159 0.87622 0.26781 0.0
O188 O 0.16708 0.91332 0.26242 0.0
H189 H 0.22673 0.87949 0.46278 0.0
H190 H 0.12217 0.91651 0.43401 0.0
H191 H 0.18636 0.9818 0.36318 0.0
H192 H 0.21244 0.91999 0.41471 0.0
H193 H 0.1536 0.90423 0.36094 0.0
O194 O 0.27497 0.91848 0.21628 0.0
H195 H 0.26019 0.00395 0.2202 0.0
H196 H 0.29032 0.93952 0.12722 0.0
H197 H 0.15542 0.99488 0.43649 0.0
H198 H 0.21552 0.83517 0.31449 0.0
H199 H 0.12306 0.9621 0.47248 0.0
H200 H 0.22836 0.83668 0.41259 0.0
O201 O 0.18651 0.96579 0.26065 0.0
H202 H 0.22552 0.87503 0.07391 0.0
H203 H 0.23269 0.97155 0.10242 0.0
H204 H 0.21842 0.95448 0.01254 0.0
H205 H 0.2149 0.90581 0.99782 0.0
H206 H 0.23942 0.89298 0.16334 0.0
H207 H 0.32341 0.96895 0.08424 0.0
H208 H 0.32469 0.01667 0.10934 0.0
O209 O 0.21983 0.97529 0.20213 0.0
C210 C 0.2473 0.96154 0.32935 0.0
C211 C 0.29239 0.01341 0.1665 0.0
C212 C 0.3096 0.97681 0.114 0.0
N213 N 0.27326 0.97008 0.17588 0.0
C214 C 0.27394 0.99625 0.19021 0.0
C215 C 0.29088 0.96023 0.13857 0.0
C216 C 0.31029 0.00358 0.12808 0.0
C217 C 0.2068 0.87696 0.31069 0.0
N218 N 0.20605 0.90044 0.33853 0.0
C219 C 0.2148 0.85368 0.33684 0.0
C220 C 0.22204 0.85455 0.39187 0.0
C221 C 0.22114 0.87857 0.42004 0.0
C222 C 0.21306 0.90145 0.39257 0.0
C223 C 0.13618 0.93098 0.41867 0.0
C224 C 0.17234 0.96742 0.37861 0.0
C225 C 0.15395 0.92416 0.37713 0.0
N226 N 0.17179 0.94229 0.35776 0.0
C227 C 0.15486 0.97495 0.42012 0.0
C228 C 0.13669 0.95655 0.44026 0.0
C229 C 0.19742 0.98027 0.2241 0.0
C230 C 0.22707 0.89624 0.0798 0.0
C231 C 0.23106 0.95038 0.09641 0.0
C232 C 0.22304 0.94082 0.04536 0.0
C233 C 0.22106 0.91355 0.03712 0.0
N234 N 0.23697 0.93327 0.13804 0.0
C235 C 0.23503 0.90652 0.13028 0.0
Co236 Co 0.05215 0.82212 0.75974 0.0
Co237 Co 0.04145 0.76258 0.82113 0.0
O238 O 0.06537 0.79137 0.79974 0.0
C239 C 0.08293 0.85273 0.84436 0.0
O240 O 0.06704 0.8447 0.88361 0.0
C241 C 0.08608 0.73574 0.76743 0.0
O242 O 0.08352 0.75323 0.72805 0.0
O243 O 0.03064 0.758 0.74329 0.0
O244 O 0.02443 0.80053 0.72102 0.0
H245 H 0.95542 0.71248 0.82178 0.0
H246 H 0.10937 0.80933 0.75448 0.0
O247 O 0.07976 0.84469 0.79538 0.0
H248 H 0.07881 0.80877 0.56277 0.0
H249 H 0.06102 0.90848 0.65771 0.0
H250 H 0.99862 0.84306 0.73465 0.0
H251 H 0.04777 0.81899 0.63775 0.0
H252 H 0.07756 0.86846 0.70449 0.0
O253 O 0.0708 0.73653 0.80894 0.0
H254 H 0.98561 0.74899 0.79647 0.0
H255 H 0.04761 0.71368 0.88844 0.0
H256 H 0.98126 0.88265 0.68769 0.0
H257 H 0.14112 0.7992 0.68059 0.0
H258 H 0.01255 0.91571 0.64886 0.0
H259 H 0.12584 0.79873 0.58395 0.0
O260 O 0.02704 0.82916 0.82013 0.0
H261 H 0.10771 0.77594 0.97209 0.0
H262 H 0.01284 0.7668 0.92796 0.0
H263 H 0.02644 0.77406 0.02377 0.0
H264 H 0.07417 0.77865 0.04628 0.0
H265 H 0.09323 0.76878 0.87669 0.0
H266 H 0.01819 0.67665 0.91434 0.0
H267 H 0.97168 0.67599 0.88116 0.0
O268 O 0.01141 0.78812 0.83431 0.0
C269 C 0.02239 0.77584 0.71063 0.0
C270 C 0.97561 0.7126 0.83665 0.0
C271 C 0.01085 0.69246 0.88854 0.0
N272 N 0.01823 0.73357 0.84139 0.0
C273 C 0.99276 0.73325 0.82258 0.0
C274 C 0.02743 0.71344 0.87364 0.0
C275 C 0.98476 0.69211 0.86993 0.0
C276 C 0.10263 0.80941 0.71247 0.0
N277 N 0.07673 0.81471 0.70052 0.0
C278 C 0.12068 0.80355 0.67083 0.0
C279 C 0.11208 0.80324 0.61663 0.0
C280 C 0.08567 0.8088 0.60472 0.0
C281 C 0.06817 0.81452 0.64741 0.0
C282 C 0.04719 0.89418 0.67434 0.0
C283 C 0.01239 0.85724 0.71752 0.0
C284 C 0.05644 0.8715 0.70098 0.0
N285 N 0.03908 0.8533 0.72187 0.0
C286 C 0.00242 0.87967 0.69113 0.0
C287 C 0.01999 0.89823 0.66939 0.0
C288 C 0.01002 0.81327 0.84033 0.0
C289 C 0.08685 0.7739 0.96275 0.0
C290 C 0.03367 0.76881 0.9374 0.0
C291 C 0.04123 0.77289 0.99176 0.0
C292 C 0.06802 0.77546 0.00439 0.0
N293 N 0.05227 0.76725 0.89678 0.0
C294 C 0.07856 0.76977 0.90886 0.0
Co295 Co 0.1818 0.06722 0.73268 0.0
Co296 Co 0.23686 0.05076 0.80861 0.0
O297 O 0.21043 0.07638 0.78293 0.0
C298 C 0.15289 0.0949 0.82285 0.0
O299 O 0.1672 0.08253 0.85975 0.0
C300 C 0.26783 0.09377 0.75912 0.0
O301 O 0.25163 0.09172 0.71734 0.0
O302 O 0.2444 0.03855 0.73233 0.0
O303 O 0.20513 0.04287 0.69074 0.0
H304 H 0.28067 0.96158 0.82108 0.0
H305 H 0.19474 0.12377 0.75128 0.0
O306 O 0.15715 0.0914 0.77203 0.0
H307 H 0.20821 0.10921 0.55356 0.0
H308 H 0.10291 0.08663 0.61305 0.0
H309 H 0.16167 0.01693 0.68554 0.0
H310 H 0.19275 0.07279 0.61289 0.0
H311 H 0.13988 0.09807 0.67466 0.0
O312 O 0.26505 0.07854 0.80039 0.0
H313 H 0.2475 0.9938 0.78846 0.0
H314 H 0.28329 0.05453 0.88354 0.0
H315 H 0.12513 0.00463 0.62354 0.0
H316 H 0.20999 0.16082 0.69331 0.0
H317 H 0.09542 0.03962 0.58688 0.0
H318 H 0.21694 0.15361 0.59374 0.0
O319 O 0.17083 0.03764 0.78111 0.0
H320 H 0.223 0.11882 0.95627 0.0
H321 H 0.22618 0.02323 0.91448 0.0
H322 H 0.21701 0.03782 0.00891 0.0
H323 H 0.21525 0.08594 0.0303 0.0
H324 H 0.23231 0.10333 0.86235 0.0
H325 H 0.31702 0.02304 0.9168 0.0
H326 H 0.31574 0.97615 0.88576 0.0
O327 O 0.20896 0.02262 0.81718 0.0
C328 C 0.22904 0.03496 0.69163 0.0
C329 C 0.28139 0.98193 0.83503 0.0
C330 C 0.30182 0.01644 0.88869 0.0
N331 N 0.26335 0.02594 0.83443 0.0
C332 C 0.26262 0.00024 0.81682 0.0
C333 C 0.28272 0.03419 0.86961 0.0
C334 C 0.30108 0.99013 0.87128 0.0
C335 C 0.19741 0.12058 0.70787 0.0
N336 N 0.19275 0.09618 0.6855 0.0
C337 C 0.20617 0.14159 0.67529 0.0
C338 C 0.21011 0.13751 0.61945 0.0
C339 C 0.20524 0.1126 0.59689 0.0
C340 C 0.19655 0.09204 0.63073 0.0
C341 C 0.11575 0.07121 0.62865 0.0
C342 C 0.14894 0.03229 0.66946 0.0
C343 C 0.13668 0.07756 0.66365 0.0
N344 N 0.15304 0.05821 0.68337 0.0
C345 C 0.12823 0.02519 0.6345 0.0
C346 C 0.11156 0.04483 0.61398 0.0
C347 C 0.18406 0.02064 0.80845 0.0
C348 C 0.22372 0.0978 0.94747 0.0
C349 C 0.22543 0.0442 0.9234 0.0
C350 C 0.22023 0.05235 0.97699 0.0
C351 C 0.21932 0.07934 0.98897 0.0
N352 N 0.22986 0.06242 0.88295 0.0
C353 C 0.22904 0.08892 0.8944 0.0
Co354 Co 0.94485 0.18373 0.76047 0.0
Co355 Co 0.95765 0.24656 0.80401 0.0
O356 O 0.93307 0.21672 0.79468 0.0
C357 C 0.92417 0.14336 0.8371 0.0
O358 O 0.94895 0.13692 0.84652 0.0
C359 C 0.91004 0.27068 0.75444 0.0
O360 O 0.91065 0.25151 0.71812 0.0
O361 O 0.96487 0.24642 0.72376 0.0
O362 O 0.97068 0.20286 0.71156 0.0
H363 H 0.04269 0.29628 0.7742 0.0
H364 H 0.88744 0.19574 0.76239 0.0
O365 O 0.91894 0.16349 0.80726 0.0
H366 H 0.91031 0.18663 0.56695 0.0
H367 H 0.933 0.09263 0.67884 0.0
H368 H 0.99748 0.161 0.73451 0.0
H369 H 0.94428 0.18029 0.63811 0.0
H370 H 0.9178 0.13512 0.71756 0.0
O371 O 0.92756 0.27178 0.7919 0.0
H372 H 0.01194 0.2585 0.76497 0.0
H373 H 0.95416 0.29914 0.85944 0.0
H374 H 0.01353 0.11887 0.69563 0.0
H375 H 0.8527 0.20174 0.69251 0.0
H376 H 0.98119 0.0843 0.66756 0.0
H377 H 0.86409 0.19733 0.59398 0.0
O378 O 0.97229 0.18071 0.81788 0.0
H379 H 0.89901 0.24362 0.97043 0.0
H380 H 0.99122 0.2487 0.90467 0.0
H381 H 0.98235 0.24825 0.00394 0.0
H382 H 0.93596 0.24595 0.0374 0.0
H383 H 0.90878 0.2439 0.87135 0.0
H384 H 0.98417 0.33747 0.86925 0.0
H385 H 0.02885 0.33613 0.82667 0.0
O386 O 0.9885 0.22202 0.81752 0.0
C387 C 0.97236 0.22678 0.69487 0.0
C388 C 0.02331 0.29707 0.79309 0.0
C389 C 0.99045 0.3202 0.84638 0.0
N390 N 0.98139 0.27654 0.81202 0.0
C391 C 0.00585 0.27571 0.78813 0.0
C392 C 0.97352 0.29847 0.84056 0.0
C393 C 0.01552 0.31943 0.82249 0.0
C394 C 0.89247 0.19344 0.71963 0.0
N395 N 0.91785 0.18762 0.70445 0.0
C396 C 0.87274 0.197 0.68023 0.0
C397 C 0.87916 0.19457 0.62495 0.0
C398 C 0.90508 0.18859 0.60975 0.0
C399 C 0.92427 0.18514 0.65028 0.0
C400 C 0.94729 0.10756 0.69078 0.0
C401 C 0.98327 0.14612 0.72215 0.0
C402 C 0.9388 0.13166 0.71273 0.0
N403 N 0.95673 0.15058 0.72817 0.0
C404 C 0.99248 0.12228 0.70023 0.0
C405 C 0.97433 0.10289 0.68451 0.0
C406 C 0.99002 0.19754 0.83068 0.0
C407 C 0.9193 0.24478 0.95631 0.0
C408 C 0.97097 0.24751 0.91884 0.0
C409 C 0.96608 0.24735 0.97514 0.0
C410 C 0.94004 0.24607 0.99389 0.0
N411 N 0.9505 0.24648 0.88219 0.0
C412 C 0.92494 0.24499 0.90028 0.0
Co413 Co 0.81488 0.93182 0.71896 0.0
Co414 Co 0.761 0.9513 0.79715 0.0
O415 O 0.78766 0.92526 0.77403 0.0
C416 C 0.84603 0.91261 0.8158 0.0
O417 O 0.83006 0.92476 0.85002 0.0
C418 C 0.7311 0.90668 0.75079 0.0
O419 O 0.74818 0.90761 0.71036 0.0
O420 O 0.75363 0.96296 0.72011 0.0
O421 O 0.78887 0.94972 0.6712 0.0
H422 H 0.71781 0.04092 0.80541 0.0
H423 H 0.80566 0.8774 0.76042 0.0
O424 O 0.84203 0.91356 0.76442 0.0
H425 H 0.79074 0.87218 0.56119 0.0
H426 H 0.89374 0.90852 0.60193 0.0
H427 H 0.82922 0.97805 0.65027 0.0
H428 H 0.80434 0.91429 0.60415 0.0
H429 H 0.85894 0.89992 0.67059 0.0
O430 O 0.73273 0.92337 0.7899 0.0
H431 H 0.75083 0.00813 0.77441 0.0
H432 H 0.7142 0.94856 0.87132 0.0
H433 H 0.86344 0.98738 0.58077 0.0
H434 H 0.79231 0.83481 0.71908 0.0
H435 H 0.89606 0.95247 0.55628 0.0
H436 H 0.7846 0.83206 0.61882 0.0
O437 O 0.82425 0.96617 0.75432 0.0
H438 H 0.77338 0.88482 0.94812 0.0
H439 H 0.77159 0.97995 0.90182 0.0
H440 H 0.78046 0.96628 0.99706 0.0
H441 H 0.78115 0.91835 0.02057 0.0
H442 H 0.76483 0.89936 0.85339 0.0
H443 H 0.68062 0.98063 0.90297 0.0
H444 H 0.68242 0.02722 0.87021 0.0
O445 O 0.78904 0.9792 0.80428 0.0
C446 C 0.76637 0.96076 0.67528 0.0
C447 C 0.71687 0.02069 0.82009 0.0
C448 C 0.69597 0.98684 0.87479 0.0
N449 N 0.73453 0.97653 0.82135 0.0
C450 C 0.73554 0.00207 0.80279 0.0
C451 C 0.71497 0.96876 0.85659 0.0
C452 C 0.697 0.01298 0.85642 0.0
C453 C 0.80262 0.87628 0.71668 0.0
N454 N 0.80577 0.8983 0.68475 0.0
C455 C 0.79496 0.85214 0.69353 0.0
C456 C 0.79061 0.85062 0.63728 0.0
C457 C 0.79402 0.87312 0.60493 0.0
C458 C 0.80165 0.89693 0.62951 0.0
C459 C 0.87964 0.92389 0.61225 0.0
C460 C 0.84324 0.96272 0.6396 0.0
C461 C 0.85996 0.91917 0.65127 0.0
N462 N 0.84202 0.93845 0.66434 0.0
C463 C 0.86262 0.96813 0.60032 0.0
C464 C 0.88092 0.94855 0.58663 0.0
C465 C 0.81252 0.98259 0.78595 0.0
C466 C 0.77302 0.90574 0.93831 0.0
C467 C 0.77212 0.95909 0.91173 0.0
C468 C 0.77706 0.95147 0.96575 0.0
C469 C 0.77747 0.92459 0.97897 0.0
N470 N 0.76763 0.94047 0.87211 0.0
C471 C 0.7681 0.9141 0.88479 0.0
Co472 Co 0.55213 0.67901 0.74388 0.0
Co473 Co 0.54264 0.7406 0.68933 0.0
O474 O 0.56579 0.71017 0.70509 0.0
C475 C 0.59175 0.65706 0.66148 0.0
O476 O 0.59787 0.68045 0.64169 0.0
C477 C 0.58997 0.76489 0.73936 0.0
O478 O 0.58806 0.74678 0.77776 0.0
O479 O 0.53429 0.74409 0.76866 0.0
O480 O 0.52771 0.70139 0.78928 0.0
H481 H 0.45938 0.79457 0.70461 0.0
H482 H 0.61035 0.68943 0.74258 0.0
O483 O 0.5753 0.65449 0.70063 0.0
H484 H 0.58565 0.68545 0.93758 0.0
H485 H 0.55801 0.58982 0.83599 0.0
H486 H 0.4982 0.66125 0.77528 0.0
H487 H 0.55203 0.67864 0.86598 0.0
H488 H 0.57586 0.62972 0.79073 0.0
O489 O 0.57351 0.76512 0.69982 0.0
H490 H 0.48837 0.75619 0.72256 0.0
H491 H 0.54918 0.79058 0.62548 0.0
H492 H 0.47955 0.62178 0.82067 0.0
H493 H 0.64467 0.69581 0.81281 0.0
H494 H 0.50953 0.58571 0.85144 0.0
H495 H 0.63242 0.69399 0.91123 0.0
O496 O 0.52486 0.67495 0.68694 0.0
H497 H 0.60364 0.73072 0.52783 0.0
H498 H 0.51058 0.73911 0.58655 0.0
H499 H 0.52088 0.73463 0.48833 0.0
H500 H 0.56771 0.73056 0.45839 0.0
H501 H 0.59243 0.73508 0.62581 0.0
H502 H 0.52096 0.82945 0.6069 0.0
H503 H 0.47565 0.83154 0.64638 0.0
O504 O 0.5109 0.71683 0.67809 0.0
C505 C 0.52626 0.72596 0.80085 0.0
C506 C 0.47905 0.79385 0.68703 0.0
C507 C 0.51362 0.81344 0.63225 0.0
N508 N 0.52033 0.77105 0.6747 0.0
C509 C 0.49552 0.77214 0.69692 0.0
C510 C 0.52954 0.79141 0.64301 0.0
C511 C 0.4882 0.8146 0.6544 0.0
C512 C 0.60488 0.68803 0.7851 0.0
N513 N 0.57921 0.68324 0.79984 0.0
C514 C 0.6244 0.6919 0.82482 0.0
C515 C 0.6175 0.69094 0.88003 0.0
C516 C 0.59128 0.68617 0.89484 0.0
C517 C 0.57231 0.68236 0.854 0.0
C518 C 0.54475 0.60544 0.82295 0.0
C519 C 0.51141 0.64573 0.78886 0.0
C520 C 0.55473 0.62807 0.79722 0.0
N521 N 0.53811 0.64793 0.78083 0.0
C522 C 0.50072 0.62339 0.81442 0.0
C523 C 0.51755 0.60315 0.8316 0.0
C524 C 0.50797 0.6919 0.67077 0.0
C525 C 0.58316 0.73251 0.5404 0.0
C526 C 0.531 0.73706 0.57397 0.0
C527 C 0.53671 0.73464 0.51823 0.0
C528 C 0.56299 0.73236 0.50144 0.0
N529 N 0.55091 0.73725 0.61197 0.0
C530 C 0.5767 0.73501 0.5958 0.0
Co531 Co 0.31068 0.56508 0.77127 0.0
Co532 Co 0.25693 0.55238 0.68901 0.0
O533 O 0.28272 0.57661 0.72174 0.0
C534 C 0.33956 0.59653 0.68793 0.0
O535 O 0.32626 0.58393 0.64974 0.0
C536 C 0.22551 0.59333 0.74364 0.0
O537 O 0.24085 0.58911 0.78611 0.0
O538 O 0.24793 0.53713 0.76208 0.0
O539 O 0.28703 0.53825 0.80583 0.0
H540 H 0.21319 0.46433 0.65582 0.0
H541 H 0.29761 0.62232 0.76552 0.0
O542 O 0.33528 0.59158 0.73827 0.0
H543 H 0.28102 0.5964 0.95722 0.0
H544 H 0.38823 0.57901 0.89766 0.0
H545 H 0.33023 0.51286 0.80964 0.0
H546 H 0.29784 0.5638 0.89063 0.0
H547 H 0.35196 0.59317 0.83669 0.0
O548 O 0.22874 0.57989 0.69992 0.0
H549 H 0.24561 0.49484 0.69768 0.0
H550 H 0.2123 0.55964 0.61075 0.0
H551 H 0.36612 0.49784 0.87063 0.0
H552 H 0.28111 0.65569 0.83105 0.0
H553 H 0.39543 0.53104 0.91514 0.0
H554 H 0.27256 0.64275 0.92758 0.0
O555 O 0.32262 0.53835 0.71747 0.0
H556 H 0.27416 0.62657 0.55638 0.0
H557 H 0.27056 0.52953 0.57977 0.0
H558 H 0.28296 0.54824 0.49004 0.0
H559 H 0.28471 0.59714 0.47794 0.0
H560 H 0.2622 0.60702 0.6456 0.0
H561 H 0.17934 0.52989 0.56834 0.0
H562 H 0.17977 0.48184 0.59059 0.0
O563 O 0.28487 0.52446 0.678 0.0
C564 C 0.26297 0.53096 0.80192 0.0
C565 C 0.21285 0.48522 0.64567 0.0
C566 C 0.19383 0.52202 0.59663 0.0
N567 N 0.23096 0.52892 0.6563 0.0
C568 C 0.2312 0.50256 0.66914 0.0
C569 C 0.21248 0.53878 0.62087 0.0
C570 C 0.19409 0.49506 0.60911 0.0
C571 C 0.2943 0.61665 0.80764 0.0
N572 N 0.29878 0.59118 0.82421 0.0
C573 C 0.28482 0.63559 0.8445 0.0
C574 C 0.27997 0.6283 0.89863 0.0
C575 C 0.28469 0.6023 0.91528 0.0
C576 C 0.29416 0.5839 0.87731 0.0
C577 C 0.37557 0.56436 0.87858 0.0
C578 C 0.34281 0.52743 0.82909 0.0
C579 C 0.35505 0.57226 0.84391 0.0
N580 N 0.33891 0.55387 0.81987 0.0
C581 C 0.36314 0.5188 0.86348 0.0
C582 C 0.37959 0.53744 0.88838 0.0
C583 C 0.30969 0.52226 0.68738 0.0
C584 C 0.27338 0.60525 0.56113 0.0
C585 C 0.2714 0.55081 0.57488 0.0
C586 C 0.27836 0.56129 0.52392 0.0
C587 C 0.27935 0.58871 0.51713 0.0
N588 N 0.26558 0.56717 0.61786 0.0
C589 C 0.2665 0.59407 0.61148 0.0
Co590 Co 0.42771 0.32374 0.7633 0.0
Co591 Co 0.45114 0.26669 0.70293 0.0
O592 O 0.42288 0.29214 0.71867 0.0
C593 C 0.40504 0.35265 0.66639 0.0
O594 O 0.42561 0.34662 0.63591 0.0
C595 C 0.40893 0.23546 0.75426 0.0
O596 O 0.4091 0.25366 0.79266 0.0
O597 O 0.46153 0.26441 0.78178 0.0
O598 O 0.45187 0.3048 0.81402 0.0
H599 H 0.5434 0.22968 0.71177 0.0
H600 H 0.37346 0.30459 0.73889 0.0
O601 O 0.40299 0.34374 0.71495 0.0
H602 H 0.38037 0.30385 0.94027 0.0
H603 H 0.39746 0.4072 0.85778 0.0
H604 H 0.47394 0.3501 0.81478 0.0
H605 H 0.41777 0.3192 0.88357 0.0
H606 H 0.3915 0.36612 0.80446 0.0
O607 O 0.42518 0.23703 0.71439 0.0
H608 H 0.50792 0.26178 0.73232 0.0
H609 H 0.45321 0.21637 0.63924 0.0
H610 H 0.48074 0.39085 0.86878 0.0
H611 H 0.33547 0.2893 0.79408 0.0
H612 H 0.44232 0.41974 0.89057 0.0
H613 H 0.33884 0.28874 0.89552 0.0
O614 O 0.4586 0.33458 0.71807 0.0
H615 H 0.38733 0.26664 0.54506 0.0
H616 H 0.48117 0.27427 0.5988 0.0
H617 H 0.46901 0.27739 0.5012 0.0
H618 H 0.42177 0.27336 0.47388 0.0
H619 H 0.40034 0.26385 0.64222 0.0
H620 H 0.48803 0.18363 0.6181 0.0
H621 H 0.53354 0.19027 0.65424 0.0
O622 O 0.47726 0.29615 0.69157 0.0
C623 C 0.46212 0.28193 0.81939 0.0
C624 C 0.52367 0.2266 0.69565 0.0
C625 C 0.49258 0.20074 0.64314 0.0
N626 N 0.4786 0.24104 0.68663 0.0
C627 C 0.50352 0.24475 0.70702 0.0
C628 C 0.47293 0.2193 0.65536 0.0
C629 C 0.51812 0.20449 0.66341 0.0
C630 C 0.37497 0.30469 0.78303 0.0
N631 N 0.3978 0.31283 0.80794 0.0
C632 C 0.35343 0.29591 0.81406 0.0
C633 C 0.35535 0.29555 0.87097 0.0
C634 C 0.37866 0.304 0.8961 0.0
C635 C 0.39981 0.3126 0.86376 0.0
C636 C 0.41434 0.39474 0.84868 0.0
C637 C 0.45709 0.36246 0.82444 0.0
C638 C 0.4111 0.37148 0.81837 0.0
N639 N 0.43233 0.35562 0.8068 0.0
C640 C 0.46108 0.38555 0.8549 0.0
C641 C 0.43952 0.40176 0.86706 0.0
C642 C 0.47736 0.32142 0.69592 0.0
C643 C 0.40798 0.26832 0.5565 0.0
C644 C 0.46057 0.27268 0.58723 0.0
C645 C 0.45382 0.2744 0.53189 0.0
C646 C 0.42732 0.27216 0.51656 0.0
N647 N 0.44149 0.26874 0.62616 0.0
C648 C 0.41547 0.26668 0.61143 0.0
Co649 Co 0.6831 0.44116 0.79064 0.0
Co650 Co 0.73684 0.45485 0.70749 0.0
O651 O 0.70962 0.4309 0.73633 0.0
C652 C 0.64853 0.4183 0.70309 0.0
O653 O 0.65994 0.4335 0.66632 0.0
C654 C 0.76675 0.41026 0.75436 0.0
O655 O 0.7516 0.41283 0.79769 0.0
O656 O 0.74679 0.46719 0.78275 0.0
O657 O 0.70909 0.46331 0.83063 0.0
H658 H 0.78472 0.54169 0.6879 0.0
H659 H 0.69169 0.38415 0.76705 0.0
O660 O 0.65601 0.41896 0.75281 0.0
H661 H 0.71187 0.39486 0.96336 0.0
H662 H 0.60646 0.42428 0.91825 0.0
H663 H 0.66852 0.4913 0.84654 0.0
H664 H 0.69712 0.43304 0.90826 0.0
H665 H 0.6403 0.41203 0.85 0.0
O666 O 0.76377 0.42577 0.71364 0.0
H667 H 0.7507 0.51134 0.72463 0.0
H668 H 0.78145 0.4483 0.6285 0.0
H669 H 0.63523 0.50439 0.91531 0.0
H670 H 0.70613 0.34537 0.82081 0.0
H671 H 0.60388 0.47073 0.95165 0.0
H672 H 0.71645 0.35063 0.91963 0.0
O673 O 0.67291 0.47253 0.74604 0.0
H674 H 0.7168 0.38654 0.56349 0.0
H675 H 0.72611 0.48211 0.60141 0.0
H676 H 0.71529 0.46727 0.50788 0.0
H677 H 0.7107 0.41914 0.48843 0.0
H678 H 0.72783 0.40226 0.65643 0.0
H679 H 0.81592 0.47789 0.59106 0.0
H680 H 0.8176 0.525 0.62054 0.0
O681 O 0.71011 0.48411 0.70041 0.0
C682 C 0.73299 0.47086 0.82581 0.0
C683 C 0.78414 0.52123 0.67461 0.0
C684 C 0.80168 0.48541 0.62033 0.0
N685 N 0.76398 0.47816 0.67841 0.0
C686 C 0.76489 0.50398 0.69516 0.0
C687 C 0.78217 0.46873 0.64181 0.0
C688 C 0.8026 0.51184 0.63686 0.0
C689 C 0.69582 0.38652 0.81019 0.0
N690 N 0.69344 0.4108 0.8345 0.0
C691 C 0.70412 0.36452 0.84036 0.0
C692 C 0.70995 0.3675 0.89579 0.0
C693 C 0.7074 0.39231 0.92034 0.0
C694 C 0.69909 0.41387 0.88888 0.0
C695 C 0.62 0.43913 0.90271 0.0
C696 C 0.65499 0.47657 0.8622 0.0
C697 C 0.63914 0.43234 0.86386 0.0
N698 N 0.65642 0.45096 0.84427 0.0
C699 C 0.63616 0.48409 0.9011 0.0
C700 C 0.61857 0.46519 0.92145 0.0
C701 C 0.68607 0.48802 0.71477 0.0
C702 C 0.7188 0.40755 0.57148 0.0
C703 C 0.72393 0.46115 0.59336 0.0
C704 C 0.71785 0.45286 0.54028 0.0
C705 C 0.7153 0.42586 0.52938 0.0
N706 N 0.72768 0.44305 0.63429 0.0
C707 C 0.72506 0.41656 0.62398 0.0
Co708 Co 0.56933 0.32557 0.2433 0.0
Co709 Co 0.54926 0.26793 0.3092 0.0
O710 O 0.57538 0.29598 0.2937 0.0
C711 C 0.59353 0.3509 0.34455 0.0
O712 O 0.59504 0.32837 0.37119 0.0
C713 C 0.59444 0.23973 0.2603 0.0
O714 O 0.59555 0.25911 0.22455 0.0
O715 O 0.53927 0.26419 0.2303 0.0
O716 O 0.55419 0.30089 0.18842 0.0
H717 H 0.46028 0.22343 0.29953 0.0
H718 H 0.62325 0.31464 0.28859 0.0
O719 O 0.58431 0.35199 0.29612 0.0
H720 H 0.63381 0.31313 0.08811 0.0
H721 H 0.59198 0.41095 0.14675 0.0
H722 H 0.52487 0.34076 0.17067 0.0
H723 H 0.59027 0.32228 0.1295 0.0
H724 H 0.60016 0.37348 0.20929 0.0
O725 O 0.57716 0.24016 0.29834 0.0
H726 H 0.4932 0.25818 0.27881 0.0
H727 H 0.55084 0.21796 0.37432 0.0
H728 H 0.51603 0.37771 0.1071 0.0
H729 H 0.66715 0.30584 0.24902 0.0
H730 H 0.54973 0.41315 0.09486 0.0
H731 H 0.67269 0.30491 0.148 0.0
O732 O 0.53365 0.33208 0.27545 0.0
H733 H 0.61232 0.27081 0.46817 0.0
H734 H 0.51848 0.27451 0.41276 0.0
H735 H 0.5301 0.278 0.51061 0.0
H736 H 0.57734 0.2758 0.53876 0.0
H737 H 0.59986 0.2678 0.37075 0.0
H738 H 0.51862 0.18264 0.39564 0.0
H739 H 0.47293 0.18532 0.35836 0.0
O740 O 0.52101 0.295 0.31943 0.0
C741 C 0.54296 0.27833 0.18775 0.0
C742 C 0.48011 0.22208 0.31615 0.0
C743 C 0.51286 0.19916 0.37003 0.0
N744 N 0.52384 0.2402 0.32568 0.0
C745 C 0.49881 0.24173 0.30468 0.0
C746 C 0.53103 0.21919 0.3577 0.0
C747 C 0.48722 0.20069 0.34912 0.0
C748 C 0.62546 0.31481 0.24474 0.0
N749 N 0.60416 0.31945 0.2116 0.0
C750 C 0.6504 0.30958 0.22248 0.0
C751 C 0.65349 0.309 0.16581 0.0
C752 C 0.63169 0.3136 0.1322 0.0
C753 C 0.60706 0.31875 0.15593 0.0
C754 C 0.57717 0.3956 0.15163 0.0
C755 C 0.53971 0.356 0.16523 0.0
C756 C 0.58165 0.37436 0.18712 0.0
N757 N 0.56308 0.35483 0.1933 0.0
C758 C 0.53456 0.37692 0.12933 0.0
C759 C 0.55346 0.39682 0.12253 0.0
C760 C 0.51711 0.31884 0.30407 0.0
C761 C 0.59168 0.27167 0.45636 0.0
C762 C 0.53909 0.27392 0.42467 0.0
C763 C 0.54553 0.27578 0.48016 0.0
C764 C 0.57203 0.27457 0.49597 0.0
N765 N 0.55849 0.27091 0.38606 0.0
C766 C 0.5845 0.26986 0.40128 0.0
Co767 Co 0.69736 0.55924 0.21651 0.0
Co768 Co 0.74712 0.54822 0.31155 0.0
O769 O 0.72084 0.57084 0.27535 0.0
C770 C 0.6598 0.58025 0.29977 0.0
O771 O 0.67261 0.56705 0.33777 0.0
C772 C 0.77746 0.59177 0.26223 0.0
O773 O 0.763 0.58768 0.21845 0.0
O774 O 0.76 0.53321 0.24027 0.0
O775 O 0.72642 0.53936 0.18132 0.0
H776 H 0.79432 0.46285 0.35251 0.0
H777 H 0.70125 0.61655 0.24234 0.0
O778 O 0.66736 0.57922 0.25008 0.0
H779 H 0.7305 0.60825 0.05041 0.0
H780 H 0.62577 0.57133 0.0751 0.0
H781 H 0.68907 0.50853 0.15737 0.0
H782 H 0.71569 0.56894 0.10199 0.0
H783 H 0.65519 0.5855 0.15022 0.0
O784 O 0.77412 0.57738 0.30464 0.0
H785 H 0.76175 0.49139 0.30565 0.0
H786 H 0.78864 0.55818 0.39581 0.0
H787 H 0.66025 0.49362 0.08193 0.0
H788 H 0.71564 0.65646 0.19201 0.0
H789 H 0.62835 0.52514 0.04016 0.0
H790 H 0.73055 0.65242 0.09545 0.0
O791 O 0.68721 0.52707 0.25866 0.0
H792 H 0.72139 0.6212 0.44124 0.0
H793 H 0.73194 0.52461 0.41905 0.0
H794 H 0.71697 0.54252 0.50773 0.0
H795 H 0.71164 0.59118 0.51928 0.0
H796 H 0.7365 0.60244 0.3533 0.0
H797 H 0.82164 0.53043 0.44333 0.0
H798 H 0.82451 0.48237 0.42198 0.0
O799 O 0.72031 0.51903 0.31863 0.0
C800 C 0.74931 0.53081 0.19329 0.0
C801 C 0.7932 0.48375 0.36229 0.0
C802 C 0.80857 0.52169 0.41319 0.0
N803 N 0.77319 0.52635 0.3483 0.0
C804 C 0.77477 0.49998 0.33599 0.0
C805 C 0.78991 0.53732 0.38604 0.0
C806 C 0.81016 0.49472 0.40122 0.0
C807 C 0.70735 0.61471 0.20009 0.0
N808 N 0.70747 0.59048 0.17508 0.0
C809 C 0.71561 0.63735 0.17188 0.0
C810 C 0.72401 0.63506 0.11772 0.0
C811 C 0.72401 0.61028 0.09244 0.0
C812 C 0.71563 0.58808 0.12191 0.0
C813 C 0.63959 0.55741 0.09296 0.0
C814 C 0.67524 0.52237 0.13945 0.0
C815 C 0.65622 0.56529 0.13568 0.0
N816 N 0.67387 0.54788 0.15813 0.0
C817 C 0.65894 0.5138 0.09677 0.0
C818 C 0.64105 0.53149 0.07336 0.0
C819 C 0.69808 0.51339 0.29646 0.0
C820 C 0.72368 0.59998 0.43674 0.0
C821 C 0.72957 0.54579 0.42366 0.0
C822 C 0.72109 0.55582 0.47401 0.0
C823 C 0.71814 0.58311 0.48048 0.0
N824 N 0.73521 0.56249 0.38111 0.0
C825 C 0.73227 0.58925 0.38708 0.0
Co826 Co 0.44289 0.67092 0.22978 0.0
Co827 Co 0.45786 0.72609 0.30437 0.0
O828 O 0.43221 0.70008 0.27738 0.0
C829 C 0.40998 0.64216 0.31266 0.0
O830 O 0.42425 0.65231 0.35243 0.0
C831 C 0.41498 0.75788 0.25683 0.0
O832 O 0.41697 0.74225 0.21408 0.0
O833 O 0.4693 0.73399 0.22792 0.0
O834 O 0.47109 0.69281 0.19383 0.0
H835 H 0.54731 0.7693 0.3182 0.0
H836 H 0.38632 0.68657 0.23272 0.0
O837 O 0.4149 0.64804 0.263 0.0
H838 H 0.41388 0.69771 0.04034 0.0
H839 H 0.4268 0.59155 0.10909 0.0
H840 H 0.49451 0.64844 0.19503 0.0
H841 H 0.44541 0.68115 0.10928 0.0
H842 H 0.41367 0.62957 0.16647 0.0
O843 O 0.43011 0.75442 0.29801 0.0
H844 H 0.51468 0.73701 0.28331 0.0
H845 H 0.45459 0.77167 0.38172 0.0
H846 H 0.50851 0.61074 0.13774 0.0
H847 H 0.35404 0.70285 0.16484 0.0
H848 H 0.47452 0.58198 0.09425 0.0
H849 H 0.36781 0.70867 0.06794 0.0
O850 O 0.46869 0.65912 0.28561 0.0
H851 H 0.39076 0.70982 0.45282 0.0
H852 H 0.48601 0.71445 0.40911 0.0
H853 H 0.47196 0.7036 0.50322 0.0
H854 H 0.42405 0.70128 0.52544 0.0
H855 H 0.40568 0.72061 0.35911 0.0
H856 H 0.48649 0.80453 0.41724 0.0
H857 H 0.53328 0.80331 0.38579 0.0
O858 O 0.48614 0.69811 0.31128 0.0
C859 C 0.47601 0.71754 0.19089 0.0
C860 C 0.527 0.76998 0.33234 0.0
C861 C 0.49285 0.78977 0.38787 0.0
N862 N 0.48284 0.75233 0.33083 0.0
C863 C 0.50845 0.75172 0.31282 0.0
C864 C 0.47486 0.77119 0.36747 0.0
C865 C 0.51911 0.78907 0.37023 0.0
C866 C 0.39236 0.68872 0.19049 0.0
N867 N 0.41772 0.68289 0.17505 0.0
C868 C 0.37403 0.69807 0.15229 0.0
C869 C 0.38179 0.70139 0.09795 0.0
C870 C 0.40765 0.69528 0.08245 0.0
C871 C 0.42544 0.68599 0.12175 0.0
C872 C 0.44179 0.60397 0.12771 0.0
C873 C 0.4796 0.63612 0.17604 0.0
C874 C 0.43447 0.6255 0.16033 0.0
N875 N 0.4533 0.64134 0.18378 0.0
C876 C 0.48765 0.61475 0.14373 0.0
C877 C 0.46857 0.59862 0.11939 0.0
C878 C 0.48677 0.67278 0.30873 0.0
C879 C 0.4117 0.71087 0.44357 0.0
C880 C 0.4651 0.71344 0.41846 0.0
C881 C 0.45728 0.70732 0.47185 0.0
C882 C 0.43039 0.70603 0.48433 0.0
N883 N 0.44666 0.71828 0.3787 0.0
C884 C 0.42025 0.71703 0.39065 0.0
Co885 Co 0.30891 0.43328 0.21159 0.0
Co886 Co 0.25334 0.44575 0.28808 0.0
O887 O 0.28039 0.42157 0.25973 0.0
C888 C 0.33985 0.40471 0.29671 0.0
O889 O 0.32831 0.41915 0.33457 0.0
C890 C 0.22355 0.40191 0.23772 0.0
O891 O 0.23897 0.40504 0.19492 0.0
O892 O 0.2451 0.45853 0.21279 0.0
O893 O 0.28549 0.45953 0.17456 0.0
H894 H 0.20634 0.53301 0.30721 0.0
H895 H 0.29674 0.37587 0.218 0.0
O896 O 0.33346 0.40735 0.2466 0.0
H897 H 0.28312 0.40021 0.02447 0.0
H898 H 0.38879 0.42006 0.09104 0.0
H899 H 0.32839 0.48566 0.17359 0.0
H900 H 0.29811 0.43358 0.09133 0.0
H901 H 0.35174 0.40559 0.14976 0.0
O902 O 0.22615 0.41703 0.27918 0.0
H903 H 0.24044 0.5025 0.27164 0.0
H904 H 0.20754 0.43919 0.36406 0.0
H905 H 0.36505 0.50098 0.11482 0.0
H906 H 0.28207 0.34174 0.15224 0.0
H907 H 0.39556 0.46807 0.07304 0.0
H908 H 0.27503 0.35388 0.05477 0.0
O909 O 0.31934 0.46056 0.26549 0.0
H910 H 0.26927 0.37575 0.43035 0.0
H911 H 0.26352 0.4719 0.39566 0.0
H912 H 0.27249 0.45597 0.48907 0.0
H913 H 0.27513 0.40739 0.50701 0.0
H914 H 0.26026 0.39261 0.33745 0.0
H915 H 0.17292 0.46894 0.40019 0.0
H916 H 0.17228 0.51625 0.37201 0.0
O917 O 0.28028 0.47497 0.29802 0.0
C918 C 0.26096 0.46527 0.17473 0.0
C919 C 0.20646 0.51245 0.31993 0.0
C920 C 0.18768 0.47648 0.37205 0.0
N921 N 0.2261 0.46918 0.31613 0.0
C922 C 0.22576 0.49511 0.30005 0.0
C923 C 0.20728 0.45972 0.35133 0.0
C924 C 0.18734 0.50303 0.35625 0.0
C925 C 0.29406 0.3812 0.1755 0.0
N926 N 0.29835 0.40666 0.15855 0.0
C927 C 0.28562 0.36183 0.13851 0.0
C928 C 0.28162 0.36867 0.08385 0.0
C929 C 0.28613 0.39466 0.06683 0.0
C930 C 0.29455 0.4135 0.10495 0.0
C931 C 0.37558 0.43459 0.10888 0.0
C932 C 0.34147 0.47119 0.1553 0.0
C933 C 0.35459 0.42651 0.14224 0.0
N934 N 0.33777 0.44474 0.1647 0.0
C935 C 0.36225 0.48 0.12217 0.0
C936 C 0.37937 0.46153 0.0988 0.0
C937 C 0.3054 0.47714 0.29233 0.0
C938 C 0.26803 0.39688 0.4231 0.0
C939 C 0.26488 0.45082 0.40305 0.0
C940 C 0.26992 0.44188 0.4561 0.0
C941 C 0.27141 0.4147 0.46611 0.0
N942 N 0.26116 0.43318 0.36127 0.0
C943 C 0.26289 0.40654 0.37063 0.0
C944 C 0.0963 0.09535 0.15925 0.0
C945 C 0.10825 0.12039 0.15794 0.0
C946 C 0.11163 0.0722 0.15972 0.0
C947 C 0.13959 0.07426 0.16092 0.0
C948 C 0.15174 0.09949 0.15569 0.0
C949 C 0.13583 0.12235 0.15362 0.0
C950 C 0.09784 0.04569 0.16333 0.0
C951 C 0.18145 0.10261 0.15764 0.0
C952 C 0.17214 0.02096 0.24711 0.0
C953 C 0.18344 0.00457 0.20726 0.0
C954 C 0.15869 0.04417 0.2324 0.0
C955 C 0.15563 0.05065 0.17627 0.0
C956 C 0.16685 0.034 0.13573 0.0
C957 C 0.18113 0.01136 0.15181 0.0
C958 C 0.14752 0.06165 0.27706 0.0
C959 C 0.16316 0.0397 0.07556 0.0
H960 H 0.07491 0.09392 0.16251 0.0
H961 H 0.14504 0.14178 0.15329 0.0
H962 H 0.10758 0.03096 0.13625 0.0
H963 H 0.09909 0.03812 0.2059 0.0
H964 H 0.07659 0.04712 0.15192 0.0
H965 H 0.18784 0.1227 0.14443 0.0
H966 H 0.18838 0.09935 0.20023 0.0
H967 H 0.19132 0.08766 0.13137 0.0
H968 H 0.17418 0.01579 0.28999 0.0
H969 H 0.18975 0.99851 0.12102 0.0
H970 H 0.12558 0.06183 0.27468 0.0
H971 H 0.15444 0.08237 0.27152 0.0
H972 H 0.15334 0.05483 0.3186 0.0
H973 H 0.14173 0.04102 0.06584 0.0
H974 H 0.1722 0.0242 0.04921 0.0
H975 H 0.1721 0.05914 0.06513 0.0
C976 C 0.97566 0.14021 0.17924 0.0
C977 C 0.98565 0.16372 0.15666 0.0
C978 C 0.95119 0.12994 0.16258 0.0
C979 C 0.93666 0.14303 0.12093 0.0
C980 C 0.94756 0.16562 0.09497 0.0
C981 C 0.97167 0.17605 0.11399 0.0
C982 C 0.94015 0.10602 0.19215 0.0
C983 C 0.93341 0.17967 0.04899 0.0
C984 C 0.87823 0.10008 0.08332 0.0
C985 C 0.85976 0.10906 0.12198 0.0
C986 C 0.90274 0.11306 0.07729 0.0
C987 C 0.90873 0.13502 0.11126 0.0
C988 C 0.88874 0.14608 0.14476 0.0
C989 C 0.86439 0.13307 0.14932 0.0
C990 C 0.92305 0.10185 0.0384 0.0
C991 C 0.89403 0.16987 0.1807 0.0
H992 H 0.98633 0.13045 0.21201 0.0
H993 H 0.9793 0.19405 0.09578 0.0
H994 H 0.92189 0.11166 0.21466 0.0
H995 H 0.93467 0.09036 0.16236 0.0
H996 H 0.95445 0.09753 0.22194 0.0
H997 H 0.94786 0.18853 0.01995 0.0
H998 H 0.92009 0.16619 0.02594 0.0
H999 H 0.92132 0.19604 0.06619 0.0
H1000 H 0.87456 0.0818 0.06125 0.0
H1001 H 0.84982 0.14049 0.17813 0.0
H1002 H 0.93793 0.09031 0.06179 0.0
H1003 H 0.93367 0.11804 0.01677 0.0
H1004 H 0.91381 0.08853 0.00766 0.0
H1005 H 0.90814 0.16431 0.2136 0.0
H1006 H 0.87566 0.17755 0.20011 0.0
H1007 H 0.90323 0.18606 0.15655 0.0
C1008 C 0.85208 0.99487 0.17189 0.0
C1009 C 0.82445 0.9958 0.16563 0.0
C1010 C 0.86601 0.97106 0.16558 0.0
C1011 C 0.85203 0.94757 0.15252 0.0
C1012 C 0.82451 0.94872 0.14198 0.0
C1013 C 0.811 0.97285 0.14857 0.0
C1014 C 0.89544 0.97071 0.17661 0.0
C1015 C 0.80914 0.92414 0.12685 0.0
C1016 C 0.89519 0.88719 0.12403 0.0
C1017 C 0.8963 0.87565 0.17626 0.0
C1018 C 0.88 0.91016 0.11466 0.0
C1019 C 0.86554 0.92156 0.1585 0.0
C1020 C 0.86564 0.90918 0.21048 0.0
C1021 C 0.88084 0.88637 0.21856 0.0
C1022 C 0.87982 0.92238 0.05824 0.0
C1023 C 0.85073 0.92077 0.25857 0.0
H1024 H 0.8628 0.01252 0.18417 0.0
H1025 H 0.78972 0.97339 0.14273 0.0
H1026 H 0.8994 0.95943 0.21475 0.0
H1027 H 0.90604 0.96055 0.14279 0.0
H1028 H 0.90376 0.99099 0.18132 0.0
H1029 H 0.81833 0.91458 0.09059 0.0
H1030 H 0.8099 0.90962 0.16092 0.0
H1031 H 0.78804 0.92854 0.11778 0.0
H1032 H 0.90687 0.87888 0.091 0.0
H1033 H 0.88123 0.87742 0.25891 0.0
H1034 H 0.88069 0.94434 0.06027 0.0
H1035 H 0.86111 0.91691 0.03725 0.0
H1036 H 0.89666 0.91531 0.03293 0.0
H1037 H 0.85895 0.94059 0.26874 0.0
H1038 H 0.85197 0.90807 0.29564 0.0
H1039 H 0.82955 0.92352 0.248 0.0
C1040 C 0.03664 0.81691 0.1645 0.0
C1041 C 0.01394 0.83208 0.17536 0.0
C1042 C 0.06139 0.82914 0.15706 0.0
C1043 C 0.06334 0.85711 0.16008 0.0
C1044 C 0.04004 0.87252 0.16472 0.0
C1045 C 0.01563 0.85982 0.17244 0.0
C1046 C 0.08577 0.81208 0.1511 0.0
C1047 C 0.04116 0.9024 0.16742 0.0
C1048 C 0.12126 0.88555 0.23822 0.0
C1049 C 0.13665 0.8971 0.19673 0.0
C1050 C 0.09778 0.87209 0.2263 0.0
C1051 C 0.0894 0.86975 0.17123 0.0
C1052 C 0.10516 0.88057 0.12869 0.0
C1053 C 0.12859 0.89435 0.142 0.0
C1054 C 0.08159 0.86092 0.27312 0.0
C1055 C 0.09697 0.87829 0.06946 0.0
H1056 H 0.03547 0.79546 0.16548 0.0
H1057 H 0.9981 0.87176 0.17942 0.0
H1058 H 0.09782 0.81893 0.11583 0.0
H1059 H 0.09824 0.81393 0.18832 0.0
H1060 H 0.08076 0.79082 0.14527 0.0
H1061 H 0.02133 0.91149 0.16152 0.0
H1062 H 0.04878 0.90853 0.20813 0.0
H1063 H 0.05486 0.91038 0.13598 0.0
H1064 H 0.12726 0.88739 0.28062 0.0
H1065 H 0.14041 0.90312 0.10965 0.0
H1066 H 0.07833 0.83937 0.26712 0.0
H1067 H 0.06185 0.87057 0.27427 0.0
H1068 H 0.09128 0.86391 0.31349 0.0
H1069 H 0.11361 0.88291 0.0412 0.0
H1070 H 0.08063 0.89242 0.06114 0.0
H1071 H 0.08949 0.8581 0.06022 0.0
C1072 C 0.10055 0.89102 0.89949 0.0
C1073 C 0.10234 0.8743 0.85371 0.0
C1074 C 0.11555 0.91454 0.9023 0.0
C1075 C 0.13269 0.92128 0.85846 0.0
C1076 C 0.13602 0.90339 0.81436 0.0
C1077 C 0.12091 0.88015 0.81266 0.0
C1078 C 0.11198 0.93289 0.95055 0.0
C1079 C 0.15414 0.90968 0.76679 0.0
C1080 C 0.14342 0.99227 0.81365 0.0
C1081 C 0.17 0.99656 0.82808 0.0
C1082 C 0.13062 0.96838 0.82625 0.0
C1083 C 0.1446 0.94822 0.85435 0.0
C1084 C 0.17092 0.95292 0.87181 0.0
C1085 C 0.18333 0.97704 0.85846 0.0
C1086 C 0.10256 0.96415 0.80655 0.0
C1087 C 0.18631 0.93206 0.90255 0.0
H1088 H 0.08642 0.88652 0.93161 0.0
H1089 H 0.12277 0.86712 0.77754 0.0
H1090 H 0.13138 0.93662 0.97041 0.0
H1091 H 0.10426 0.95231 0.93646 0.0
H1092 H 0.0981 0.92469 0.98154 0.0
H1093 H 0.15631 0.89265 0.7383 0.0
H1094 H 0.14605 0.92674 0.7435 0.0
H1095 H 0.17407 0.91544 0.78174 0.0
H1096 H 0.1328 0.00721 0.79055 0.0
H1097 H 0.20375 0.98023 0.87045 0.0
H1098 H 0.08985 0.95706 0.8406 0.0
H1099 H 0.10234 0.94864 0.77429 0.0
H1100 H 0.09373 0.98252 0.78937 0.0
H1101 H 0.17569 0.92677 0.94078 0.0
H1102 H 0.20661 0.93881 0.91318 0.0
H1103 H 0.18786 0.91375 0.8776 0.0
C1104 C 0.12786 0.12293 0.89104 0.0
C1105 C 0.13019 0.11178 0.83863 0.0
C1106 C 0.10618 0.13933 0.90433 0.0
C1107 C 0.08653 0.14445 0.86421 0.0
C1108 C 0.08872 0.13281 0.81165 0.0
C1109 C 0.11047 0.11681 0.7996 0.0
C1110 C 0.10484 0.15161 0.96061 0.0
C1111 C 0.06797 0.13712 0.76779 0.0
C1112 C 0.0151 0.16229 0.87994 0.0
C1113 C 0.01486 0.18727 0.85472 0.0
C1114 C 0.03901 0.14927 0.89082 0.0
C1115 C 0.06315 0.16145 0.87553 0.0
C1116 C 0.0631 0.18807 0.85714 0.0
C1117 C 0.03886 0.20076 0.84695 0.0
C1118 C 0.03823 0.12125 0.9124 0.0
C1119 C 0.08851 0.20208 0.84232 0.0
H1120 H 0.14311 0.1192 0.92129 0.0
H1121 H 0.11184 0.10795 0.75929 0.0
H1122 H 0.11346 0.17183 0.9588 0.0
H1123 H 0.08413 0.15343 0.97534 0.0
H1124 H 0.11638 0.13995 0.99092 0.0
H1125 H 0.07256 0.12629 0.72933 0.0
H1126 H 0.04831 0.13039 0.78268 0.0
H1127 H 0.06636 0.15854 0.75808 0.0
H1128 H 0.99658 0.15215 0.88803 0.0
H1129 H 0.03885 0.22036 0.82872 0.0
H1130 H 0.0544 0.11788 0.94234 0.0
H1131 H 0.04113 0.10721 0.87792 0.0
H1132 H 0.01896 0.11665 0.9323 0.0
H1133 H 0.10437 0.1973 0.87214 0.0
H1134 H 0.08582 0.22393 0.84088 0.0
H1135 H 0.09517 0.1953 0.80133 0.0
C1136 C 0.87893 0.12494 0.8193 0.0
C1137 C 0.90323 0.12326 0.84699 0.0
C1138 C 0.86174 0.10308 0.81668 0.0
C1139 C 0.86892 0.07907 0.84276 0.0
C1140 C 0.89213 0.07812 0.87519 0.0
C1141 C 0.90903 0.10023 0.87691 0.0
C1142 C 0.83703 0.105 0.78218 0.0
C1143 C 0.9 0.05311 0.90497 0.0
C1144 C 0.81871 0.02257 0.8463 0.0
C1145 C 0.82695 0.00713 0.80152 0.0
C1146 C 0.8324 0.04578 0.86116 0.0
C1147 C 0.85441 0.05414 0.82957 0.0
C1148 C 0.86272 0.0387 0.78423 0.0
C1149 C 0.84906 0.01534 0.7711 0.0
C1150 C 0.82299 0.06146 0.91008 0.0
C1151 C 0.88602 0.04695 0.74923 0.0
H1152 H 0.87412 0.14269 0.79635 0.0
H1153 H 0.92755 0.0989 0.8992 0.0
H1154 H 0.83954 0.09291 0.74457 0.0
H1155 H 0.81973 0.09695 0.80476 0.0
H1156 H 0.83265 0.12575 0.76989 0.0
H1157 H 0.91805 0.05588 0.93031 0.0
H1158 H 0.88355 0.04641 0.93178 0.0
H1159 H 0.90385 0.03704 0.87498 0.0
H1160 H 0.80166 0.01643 0.87013 0.0
H1161 H 0.85552 0.0037 0.73626 0.0
H1162 H 0.81139 0.07879 0.89575 0.0
H1163 H 0.83991 0.06907 0.93443 0.0
H1164 H 0.81011 0.04937 0.93724 0.0
H1165 H 0.88244 0.06691 0.73163 0.0
H1166 H 0.88979 0.03287 0.71512 0.0
H1167 H 0.90416 0.04826 0.77472 0.0
C1168 C 0.88916 0.89101 0.79714 0.0
C1169 C 0.86946 0.89768 0.83522 0.0
C1170 C 0.91118 0.87601 0.81212 0.0
C1171 C 0.91383 0.86735 0.86695 0.0
C1172 C 0.89423 0.8741 0.90611 0.0
C1173 C 0.87222 0.88941 0.88981 0.0
C1174 C 0.93161 0.86941 0.76879 0.0
C1175 C 0.89653 0.86511 0.96484 0.0
C1176 C 0.96181 0.8108 0.86283 0.0
C1177 C 0.98575 0.82489 0.86416 0.0
C1178 C 0.93761 0.82386 0.87106 0.0
C1179 C 0.93756 0.85148 0.88159 0.0
C1180 C 0.96182 0.86477 0.89106 0.0
C1181 C 0.98569 0.85137 0.8816 0.0
C1182 C 0.91224 0.8088 0.86108 0.0
C1183 C 0.96268 0.89399 0.90419 0.0
H1184 H 0.88747 0.89759 0.75507 0.0
H1185 H 0.85706 0.8945 0.91944 0.0
H1186 H 0.9511 0.8779 0.78032 0.0
H1187 H 0.93405 0.84761 0.76552 0.0
H1188 H 0.92616 0.87721 0.72777 0.0
H1189 H 0.87884 0.87053 0.98944 0.0
H1190 H 0.89924 0.84332 0.9668 0.0
H1191 H 0.91431 0.8742 0.9838 0.0
H1192 H 0.96172 0.79016 0.85041 0.0
H1193 H 0.00423 0.86218 0.88435 0.0
H1194 H 0.90563 0.81232 0.81836 0.0
H1195 H 0.89624 0.81562 0.88881 0.0
H1196 H 0.91504 0.78712 0.86669 0.0
H1197 H 0.96017 0.90552 0.86584 0.0
H1198 H 0.98189 0.89974 0.92294 0.0
H1199 H 0.9464 0.89958 0.93242 0.0
C1200 C 0.63447 0.63349 0.64621 0.0
C1201 C 0.60676 0.63325 0.64573 0.0
C1202 C 0.6488 0.60959 0.64731 0.0
C1203 C 0.63494 0.58511 0.64694 0.0
C1204 C 0.60709 0.58499 0.64039 0.0
C1205 C 0.5933 0.60908 0.64074 0.0
C1206 C 0.67846 0.61059 0.65456 0.0
C1207 C 0.59155 0.55942 0.63821 0.0
C1208 C 0.6734 0.52014 0.64122 0.0
C1209 C 0.67313 0.51264 0.69649 0.0
C1210 C 0.66078 0.54356 0.62397 0.0
C1211 C 0.64865 0.56024 0.66335 0.0
C1212 C 0.64883 0.55283 0.71934 0.0
C1213 C 0.6607 0.52892 0.735 0.0
C1214 C 0.65993 0.5502 0.56375 0.0
C1215 C 0.63646 0.57016 0.76289 0.0
H1216 H 0.64483 0.65221 0.65061 0.0
H1217 H 0.57181 0.60897 0.64022 0.0
H1218 H 0.68346 0.60528 0.69743 0.0
H1219 H 0.68836 0.59601 0.62745 0.0
H1220 H 0.68658 0.63063 0.64584 0.0
H1221 H 0.57123 0.56255 0.62204 0.0
H1222 H 0.60176 0.54454 0.61228 0.0
H1223 H 0.58988 0.55105 0.68008 0.0
H1224 H 0.68286 0.50735 0.6114 0.0
H1225 H 0.66074 0.52323 0.77774 0.0
H1226 H 0.66995 0.56942 0.55628 0.0
H1227 H 0.63908 0.55248 0.55022 0.0
H1228 H 0.6695 0.53471 0.5382 0.0
H1229 H 0.64491 0.59046 0.76085 0.0
H1230 H 0.63961 0.56222 0.80481 0.0
H1231 H 0.61483 0.57186 0.75571 0.0
C1232 C 0.47982 0.65453 0.63806 0.0
C1233 C 0.48242 0.68163 0.64988 0.0
C1234 C 0.45485 0.64298 0.63102 0.0
C1235 C 0.43194 0.65894 0.6357 0.0
C1236 C 0.43458 0.68677 0.64083 0.0
C1237 C 0.45988 0.69787 0.64798 0.0
C1238 C 0.45297 0.61325 0.62465 0.0
C1239 C 0.41063 0.70456 0.64403 0.0
C1240 C 0.36689 0.62159 0.6189 0.0
C1241 C 0.36139 0.61486 0.67351 0.0
C1242 C 0.38917 0.63711 0.60555 0.0
C1243 C 0.40623 0.6459 0.6479 0.0
C1244 C 0.40014 0.63994 0.70314 0.0
C1245 C 0.37775 0.62473 0.71519 0.0
C1246 C 0.39443 0.64394 0.54635 0.0
C1247 C 0.418 0.6485 0.74966 0.0
H1248 H 0.4972 0.64192 0.63788 0.0
H1249 H 0.46172 0.71894 0.65586 0.0
H1250 H 0.44602 0.6044 0.66372 0.0
H1251 H 0.4384 0.60797 0.59247 0.0
H1252 H 0.47237 0.60424 0.61399 0.0
H1253 H 0.41575 0.72541 0.63379 0.0
H1254 H 0.39481 0.69764 0.61592 0.0
H1255 H 0.40258 0.70414 0.6863 0.0
H1256 H 0.35408 0.61438 0.58654 0.0
H1257 H 0.37363 0.61982 0.75754 0.0
H1258 H 0.41566 0.64133 0.53589 0.0
H1259 H 0.38943 0.66508 0.53944 0.0
H1260 H 0.38232 0.63172 0.51796 0.0
H1261 H 0.43784 0.63932 0.74484 0.0
H1262 H 0.41 0.64279 0.79039 0.0
H1263 H 0.42074 0.67031 0.749 0.0
C1264 C 0.31108 0.48022 0.63231 0.0
C1265 C 0.32382 0.4985 0.66675 0.0
C1266 C 0.32292 0.45578 0.61957 0.0
C1267 C 0.34808 0.44957 0.64157 0.0
C1268 C 0.36167 0.46859 0.67365 0.0
C1269 C 0.34948 0.49285 0.68546 0.0
C1270 C 0.30809 0.43638 0.58399 0.0
C1271 C 0.38829 0.46258 0.69908 0.0
C1272 C 0.36516 0.38001 0.68495 0.0
C1273 C 0.3866 0.37412 0.65039 0.0
C1274 C 0.35137 0.4039 0.68022 0.0
C1275 C 0.35861 0.42209 0.63877 0.0
C1276 C 0.37816 0.41501 0.59982 0.0
C1277 C 0.39218 0.39109 0.60632 0.0
C1278 C 0.33045 0.41051 0.72236 0.0
C1279 C 0.38516 0.43335 0.55325 0.0
H1280 H 0.29144 0.48457 0.6168 0.0
H1281 H 0.35966 0.50685 0.71177 0.0
H1282 H 0.31707 0.43639 0.54251 0.0
H1283 H 0.30943 0.41589 0.60017 0.0
H1284 H 0.28683 0.44172 0.58034 0.0
H1285 H 0.397 0.48011 0.71992 0.0
H1286 H 0.38605 0.44643 0.72964 0.0
H1287 H 0.4024 0.45558 0.66742 0.0
H1288 H 0.36019 0.36669 0.71826 0.0
H1289 H 0.40838 0.38646 0.5788 0.0
H1290 H 0.31175 0.41639 0.7019 0.0
H1291 H 0.33714 0.42758 0.74751 0.0
H1292 H 0.32621 0.3936 0.75018 0.0
H1293 H 0.36704 0.43836 0.52974 0.0
H1294 H 0.39995 0.42449 0.52499 0.0
H1295 H 0.39334 0.45219 0.56957 0.0
C1296 C 0.61283 0.40315 0.63789 0.0
C1297 C 0.62516 0.40174 0.6893 0.0
C1298 C 0.589 0.38943 0.62774 0.0
C1299 C 0.57724 0.37429 0.6702 0.0
C1300 C 0.59028 0.37192 0.72122 0.0
C1301 C 0.61407 0.38546 0.72992 0.0
C1302 C 0.57595 0.3919 0.57242 0.0
C1303 C 0.5786 0.35583 0.76759 0.0
C1304 C 0.50375 0.36335 0.68855 0.0
C1305 C 0.50154 0.33602 0.67875 0.0
C1306 C 0.52794 0.37661 0.68137 0.0
C1307 C 0.55049 0.36224 0.66387 0.0
C1308 C 0.5479 0.33514 0.64978 0.0
C1309 C 0.52342 0.32237 0.65715 0.0
C1310 C 0.52982 0.40551 0.69708 0.0
C1311 C 0.57136 0.31925 0.63004 0.0
H1312 H 0.62135 0.41551 0.60613 0.0
H1313 H 0.6236 0.38381 0.76952 0.0
H1314 H 0.57007 0.37208 0.55687 0.0
H1315 H 0.55764 0.4039 0.57625 0.0
H1316 H 0.58914 0.40151 0.54186 0.0
H1317 H 0.59168 0.35535 0.80414 0.0
H1318 H 0.55922 0.36433 0.7799 0.0
H1319 H 0.57499 0.33515 0.75404 0.0
H1320 H 0.48694 0.37424 0.70457 0.0
H1321 H 0.52184 0.30136 0.64838 0.0
H1322 H 0.5407 0.41687 0.66534 0.0
H1323 H 0.54106 0.40739 0.73594 0.0
H1324 H 0.51 0.41464 0.70295 0.0
H1325 H 0.57859 0.32749 0.59066 0.0
H1326 H 0.56635 0.298 0.62407 0.0
H1327 H 0.5879 0.32058 0.65981 0.0
C1328 C 0.67432 0.47159 0.27555 0.0
C1329 C 0.68413 0.4893 0.31465 0.0
C1330 C 0.66031 0.44885 0.29131 0.0
C1331 C 0.65521 0.4442 0.34759 0.0
C1332 C 0.66497 0.46217 0.38736 0.0
C1333 C 0.67981 0.48434 0.37041 0.0
C1334 C 0.65071 0.42996 0.24753 0.0
C1335 C 0.659 0.45841 0.4474 0.0
C1336 C 0.59576 0.39931 0.3592 0.0
C1337 C 0.60789 0.37447 0.3637 0.0
C1338 C 0.61084 0.42265 0.36006 0.0
C1339 C 0.63878 0.42093 0.36361 0.0
C1340 C 0.65087 0.39597 0.37293 0.0
C1341 C 0.63516 0.37295 0.37335 0.0
C1342 C 0.59704 0.44887 0.35166 0.0
C1343 C 0.68057 0.3931 0.37609 0.0
H1344 H 0.67785 0.47542 0.23248 0.0
H1345 H 0.68721 0.49828 0.40055 0.0
H1346 H 0.65751 0.40952 0.25666 0.0
H1347 H 0.62874 0.42963 0.24688 0.0
H1348 H 0.65786 0.43557 0.20609 0.0
H1349 H 0.66849 0.47383 0.47328 0.0
H1350 H 0.63728 0.45918 0.45412 0.0
H1351 H 0.66577 0.43858 0.46108 0.0
H1352 H 0.57464 0.40038 0.35139 0.0
H1353 H 0.64457 0.35366 0.37581 0.0
H1354 H 0.5994 0.45519 0.30842 0.0
H1355 H 0.6059 0.46448 0.37792 0.0
H1356 H 0.57552 0.44749 0.36077 0.0
H1357 H 0.68879 0.39277 0.33394 0.0
H1358 H 0.68634 0.37437 0.39684 0.0
H1359 H 0.68974 0.41001 0.39801 0.0
C1360 C 0.51336 0.6313 0.32018 0.0
C1361 C 0.51108 0.65884 0.32702 0.0
C1362 C 0.53774 0.61846 0.32714 0.0
C1363 C 0.5604 0.63349 0.34136 0.0
C1364 C 0.55774 0.66083 0.35325 0.0
C1365 C 0.53308 0.6732 0.34602 0.0
C1366 C 0.53965 0.58923 0.31438 0.0
C1367 C 0.58138 0.67743 0.36932 0.0
C1368 C 0.62428 0.59499 0.36557 0.0
C1369 C 0.63556 0.59552 0.31302 0.0
C1370 C 0.6002 0.60805 0.37639 0.0
C1371 C 0.58715 0.62174 0.33353 0.0
C1372 C 0.59894 0.62304 0.28101 0.0
C1373 C 0.62296 0.61003 0.27153 0.0
C1374 C 0.58831 0.6064 0.433 0.0
C1375 C 0.58578 0.63747 0.23408 0.0
H1376 H 0.49643 0.61988 0.30637 0.0
H1377 H 0.53147 0.69441 0.35241 0.0
H1378 H 0.5497 0.58654 0.27434 0.0
H1379 H 0.55165 0.57886 0.34578 0.0
H1380 H 0.51984 0.57968 0.31214 0.0
H1381 H 0.57556 0.69763 0.38276 0.0
H1382 H 0.59255 0.66768 0.40282 0.0
H1383 H 0.595 0.67934 0.33386 0.0
H1384 H 0.63394 0.58392 0.39793 0.0
H1385 H 0.63159 0.61085 0.23092 0.0
H1386 H 0.57079 0.59313 0.43214 0.0
H1387 H 0.58142 0.62619 0.44678 0.0
H1388 H 0.60262 0.59853 0.46349 0.0
H1389 H 0.56647 0.62801 0.22453 0.0
H1390 H 0.59808 0.63743 0.19635 0.0
H1391 H 0.58172 0.65835 0.24566 0.0
C1392 C 0.37374 0.61265 0.28018 0.0
C1393 C 0.38978 0.62144 0.32346 0.0
C1394 C 0.35762 0.59024 0.28561 0.0
C1395 C 0.35721 0.57629 0.33586 0.0
C1396 C 0.37159 0.58628 0.38125 0.0
C1397 C 0.38787 0.60876 0.37447 0.0
C1398 C 0.34249 0.58046 0.23616 0.0
C1399 C 0.37095 0.57238 0.43593 0.0
C1400 C 0.30456 0.52258 0.335 0.0
C1401 C 0.31899 0.50112 0.31375 0.0
C1402 C 0.31711 0.5468 0.34713 0.0
C1403 C 0.34464 0.54959 0.3375 0.0
C1404 C 0.35957 0.52736 0.32026 0.0
C1405 C 0.3466 0.50344 0.30876 0.0
C1406 C 0.30051 0.56986 0.36627 0.0
C1407 C 0.38898 0.52936 0.30955 0.0
H1408 H 0.37461 0.62263 0.2409 0.0
H1409 H 0.39992 0.61561 0.40835 0.0
H1410 H 0.35099 0.56134 0.2221 0.0
H1411 H 0.32146 0.57684 0.24688 0.0
H1412 H 0.34324 0.59473 0.20154 0.0
H1413 H 0.37987 0.58466 0.4689 0.0
H1414 H 0.35029 0.56736 0.44748 0.0
H1415 H 0.38215 0.55351 0.43313 0.0
H1416 H 0.28326 0.52096 0.33974 0.0
H1417 H 0.35809 0.4869 0.29334 0.0
H1418 H 0.28164 0.56309 0.38509 0.0
H1419 H 0.29561 0.58262 0.3307 0.0
H1420 H 0.31147 0.58219 0.39629 0.0
H1421 H 0.39246 0.54189 0.27287 0.0
H1422 H 0.39816 0.50966 0.30229 0.0
H1423 H 0.39916 0.53895 0.34457 0.0
C1424 C 0.37361 0.37134 0.26929 0.0
C1425 C 0.36305 0.38794 0.30987 0.0
C1426 C 0.39802 0.35871 0.27654 0.0
C1427 C 0.41224 0.36259 0.32582 0.0
C1428 C 0.40082 0.37771 0.36865 0.0
C1429 C 0.37633 0.39034 0.36008 0.0
C1430 C 0.40925 0.3424 0.2301 0.0
C1431 C 0.41507 0.38199 0.42222 0.0
C1432 C 0.47081 0.31617 0.34111 0.0
C1433 C 0.49121 0.33121 0.31718 0.0
C1434 C 0.4452 0.3266 0.34711 0.0
C1435 C 0.43995 0.35279 0.32948 0.0
C1436 C 0.46083 0.36862 0.30867 0.0
C1437 C 0.48616 0.35763 0.30258 0.0
C1438 C 0.42352 0.30926 0.37017 0.0
C1439 C 0.45608 0.39675 0.28995 0.0
H1440 H 0.3633 0.36901 0.23066 0.0
H1441 H 0.36827 0.40304 0.39178 0.0
H1442 H 0.42714 0.35234 0.21339 0.0
H1443 H 0.41541 0.32259 0.24512 0.0
H1444 H 0.39482 0.33967 0.19624 0.0
H1445 H 0.40101 0.3872 0.45552 0.0
H1446 H 0.42638 0.36414 0.43466 0.0
H1447 H 0.42932 0.39858 0.41751 0.0
H1448 H 0.47452 0.29585 0.35327 0.0
H1449 H 0.50181 0.36956 0.28472 0.0
H1450 H 0.40692 0.30768 0.34058 0.0
H1451 H 0.4155 0.31835 0.40808 0.0
H1452 H 0.43065 0.28897 0.37979 0.0
H1453 H 0.4431 0.39666 0.25329 0.0
H1454 H 0.4748 0.40717 0.27938 0.0
H1455 H 0.44575 0.40815 0.3224 0.0
C1456 C 0.12998 0.27451 0.27449 0.0
C1457 C 0.10773 0.27632 0.24036 0.0
C1458 C 0.14931 0.29459 0.27492 0.0
C1459 C 0.14604 0.31718 0.24111 0.0
C1460 C 0.12344 0.31923 0.20711 0.0
C1461 C 0.10469 0.29869 0.20681 0.0
C1462 C 0.17334 0.29151 0.31109 0.0
C1463 C 0.11901 0.34317 0.17112 0.0
C1464 C 0.18316 0.38041 0.27723 0.0
C1465 C 0.20375 0.38027 0.23864 0.0
C1466 C 0.16426 0.35998 0.27855 0.0
C1467 C 0.16626 0.33868 0.24101 0.0
C1468 C 0.18722 0.33826 0.20244 0.0
C1469 C 0.20558 0.35918 0.20142 0.0
C1470 C 0.14196 0.36136 0.31969 0.0
C1471 C 0.19025 0.31572 0.16225 0.0
H1472 H 0.13252 0.25719 0.30024 0.0
H1473 H 0.08745 0.3003 0.18057 0.0
H1474 H 0.19161 0.29215 0.28582 0.0
H1475 H 0.17447 0.30823 0.34051 0.0
H1476 H 0.17307 0.27262 0.33447 0.0
H1477 H 0.10008 0.34199 0.14806 0.0
H1478 H 0.11883 0.36144 0.19643 0.0
H1479 H 0.13551 0.34514 0.14138 0.0
H1480 H 0.1816 0.39669 0.30602 0.0
H1481 H 0.22159 0.35882 0.17183 0.0
H1482 H 0.14218 0.34351 0.34619 0.0
H1483 H 0.12264 0.3616 0.29805 0.0
H1484 H 0.14325 0.37924 0.34611 0.0
H1485 H 0.19142 0.29658 0.18454 0.0
H1486 H 0.20821 0.31787 0.13632 0.0
H1487 H 0.17264 0.31472 0.13518 0.0
C1488 C 0.70819 0.13139 0.27935 0.0
C1489 C 0.70534 0.11066 0.24149 0.0
C1490 C 0.68987 0.15218 0.28163 0.0
C1491 C 0.66796 0.15213 0.24558 0.0
C1492 C 0.66477 0.13116 0.20756 0.0
C1493 C 0.68362 0.1107 0.20575 0.0
C1494 C 0.6941 0.17431 0.32241 0.0
C1495 C 0.64152 0.1304 0.16877 0.0
C1496 C 0.60925 0.19437 0.28792 0.0
C1497 C 0.61302 0.21718 0.25599 0.0
C1498 C 0.62667 0.1728 0.28405 0.0
C1499 C 0.64849 0.17418 0.24776 0.0
C1500 C 0.65235 0.1971 0.21527 0.0
C1501 C 0.6345 0.2183 0.21962 0.0
C1502 C 0.62185 0.14862 0.31916 0.0
C1503 C 0.67558 0.1994 0.17654 0.0
H1504 H 0.72499 0.13161 0.30695 0.0
H1505 H 0.6813 0.09472 0.17643 0.0
H1506 H 0.69549 0.19358 0.3007 0.0
H1507 H 0.67694 0.17554 0.35068 0.0
H1508 H 0.71238 0.17152 0.34706 0.0
H1509 H 0.64169 0.11249 0.14229 0.0
H1510 H 0.6227 0.13074 0.19227 0.0
H1511 H 0.6417 0.14825 0.14223 0.0
H1512 H 0.59261 0.19329 0.31589 0.0
H1513 H 0.63759 0.23589 0.19491 0.0
H1514 H 0.6387 0.14577 0.34769 0.0
H1515 H 0.62063 0.13064 0.2931 0.0
H1516 H 0.60334 0.15022 0.34354 0.0
H1517 H 0.69439 0.19816 0.19986 0.0
H1518 H 0.67542 0.21832 0.15325 0.0
H1519 H 0.67542 0.18269 0.14702 0.0
C1520 C 0.79511 0.63416 0.22429 0.0
C1521 C 0.79725 0.61339 0.26219 0.0
C1522 C 0.81367 0.65486 0.2233 0.0
C1523 C 0.83522 0.65449 0.26035 0.0
C1524 C 0.83754 0.63351 0.29861 0.0
C1525 C 0.81834 0.61333 0.29947 0.0
C1526 C 0.81017 0.67715 0.18266 0.0
C1527 C 0.86049 0.6322 0.33813 0.0
C1528 C 0.89605 0.69471 0.22114 0.0
C1529 C 0.89339 0.71708 0.25476 0.0
C1530 C 0.87745 0.67401 0.22312 0.0
C1531 C 0.8554 0.67601 0.25875 0.0
C1532 C 0.85247 0.69871 0.29234 0.0
C1533 C 0.87165 0.71885 0.29033 0.0
C1534 C 0.88149 0.64994 0.18733 0.0
C1535 C 0.82896 0.70181 0.33003 0.0
H1536 H 0.7787 0.63442 0.19568 0.0
H1537 H 0.82013 0.59724 0.32867 0.0
H1538 H 0.80941 0.69644 0.20447 0.0
H1539 H 0.82737 0.67788 0.15443 0.0
H1540 H 0.79183 0.67493 0.15796 0.0
H1541 H 0.85956 0.61441 0.36489 0.0
H1542 H 0.87945 0.63185 0.31514 0.0
H1543 H 0.86074 0.65014 0.36439 0.0
H1544 H 0.91292 0.69316 0.19385 0.0
H1545 H 0.86942 0.73619 0.31617 0.0
H1546 H 0.86459 0.64773 0.1587 0.0
H1547 H 0.88213 0.63179 0.21299 0.0
H1548 H 0.90007 0.65112 0.16305 0.0
H1549 H 0.81032 0.70088 0.30602 0.0
H1550 H 0.82942 0.72085 0.3529 0.0
H1551 H 0.82842 0.68528 0.35995 0.0
C1552 C 0.29612 0.86073 0.29318 0.0
C1553 C 0.29828 0.88229 0.25722 0.0
C1554 C 0.31501 0.84036 0.29313 0.0
C1555 C 0.3369 0.84187 0.25699 0.0
C1556 C 0.33933 0.86373 0.22092 0.0
C1557 C 0.31982 0.88357 0.22106 0.0
C1558 C 0.31142 0.81712 0.33142 0.0
C1559 C 0.36261 0.86624 0.18244 0.0
C1560 C 0.39757 0.80086 0.29312 0.0
C1561 C 0.3951 0.77938 0.25704 0.0
C1562 C 0.37897 0.82155 0.293 0.0
C1563 C 0.35713 0.82043 0.25671 0.0
C1564 C 0.35441 0.79864 0.22058 0.0
C1565 C 0.37358 0.77851 0.22081 0.0
C1566 C 0.38276 0.84467 0.3315 0.0
C1567 C 0.33113 0.79647 0.18204 0.0
H1568 H 0.27938 0.85953 0.32092 0.0
H1569 H 0.32162 0.90028 0.19338 0.0
H1570 H 0.31072 0.79839 0.30763 0.0
H1571 H 0.32856 0.81573 0.35968 0.0
H1572 H 0.29301 0.81871 0.35616 0.0
H1573 H 0.3619 0.88479 0.15795 0.0
H1574 H 0.38138 0.86592 0.20604 0.0
H1575 H 0.36306 0.84912 0.15397 0.0
H1576 H 0.41427 0.8017 0.32097 0.0
H1577 H 0.37147 0.76185 0.19309 0.0
H1578 H 0.36569 0.84607 0.35995 0.0
H1579 H 0.38351 0.86346 0.30792 0.0
H1580 H 0.40121 0.8429 0.35602 0.0
H1581 H 0.31235 0.79671 0.20568 0.0
H1582 H 0.33175 0.77806 0.15708 0.0
H1583 H 0.33074 0.81376 0.15401 0.0
C1584 C 0.20682 0.63425 0.78581 0.0
C1585 C 0.20505 0.61418 0.74627 0.0
C1586 C 0.18775 0.65439 0.78872 0.0
C1587 C 0.16612 0.65414 0.75188 0.0
C1588 C 0.16413 0.63382 0.71206 0.0
C1589 C 0.1838 0.61421 0.70936 0.0
C1590 C 0.19082 0.676 0.83107 0.0
C1591 C 0.1411 0.63265 0.67271 0.0
C1592 C 0.10449 0.6918 0.79503 0.0
C1593 C 0.10652 0.7149 0.76339 0.0
C1594 C 0.12356 0.67169 0.79108 0.0
C1595 C 0.14544 0.67501 0.75544 0.0
C1596 C 0.1477 0.6984 0.72372 0.0
C1597 C 0.12806 0.71798 0.72769 0.0
C1598 C 0.12025 0.64683 0.82489 0.0
C1599 C 0.17101 0.70287 0.68603 0.0
H1600 H 0.22335 0.63444 0.81414 0.0
H1601 H 0.18232 0.59865 0.67888 0.0
H1602 H 0.19111 0.69568 0.8108 0.0
H1603 H 0.17365 0.67579 0.85943 0.0
H1604 H 0.20924 0.67377 0.85549 0.0
H1605 H 0.14235 0.61538 0.6446 0.0
H1606 H 0.12222 0.63142 0.69587 0.0
H1607 H 0.14037 0.65104 0.64786 0.0
H1608 H 0.08776 0.68925 0.8224 0.0
H1609 H 0.12979 0.73589 0.70339 0.0
H1610 H 0.13728 0.64457 0.85318 0.0
H1611 H 0.12004 0.62918 0.79777 0.0
H1612 H 0.10171 0.64701 0.84939 0.0
H1613 H 0.18973 0.70206 0.70975 0.0
H1614 H 0.16995 0.72227 0.66462 0.0
H1615 H 0.17191 0.68689 0.65487 0.0
C1616 C 0.39143 0.1917 0.72205 0.0
C1617 C 0.389 0.21398 0.75604 0.0
C1618 C 0.37229 0.17149 0.72277 0.0
C1619 C 0.35001 0.17384 0.75769 0.0
C1620 C 0.34746 0.19629 0.79206 0.0
C1621 C 0.36708 0.21599 0.79111 0.0
C1622 C 0.37584 0.14768 0.68603 0.0
C1623 C 0.32381 0.1997 0.8293 0.0
C1624 C 0.28793 0.13513 0.72122 0.0
C1625 C 0.28899 0.11404 0.75856 0.0
C1626 C 0.30763 0.15476 0.72061 0.0
C1627 C 0.32911 0.15304 0.75767 0.0
C1628 C 0.33043 0.13164 0.7951 0.0
C1629 C 0.31023 0.1125 0.79541 0.0
C1630 C 0.3053 0.1775 0.68066 0.0
C1631 C 0.3532 0.12897 0.83477 0.0
H1632 H 0.40838 0.19 0.69499 0.0
H1633 H 0.36497 0.23323 0.81724 0.0
H1634 H 0.37555 0.12924 0.71078 0.0
H1635 H 0.35916 0.14643 0.65658 0.0
H1636 H 0.3947 0.14846 0.66261 0.0
H1637 H 0.32476 0.21838 0.85332 0.0
H1638 H 0.30532 0.19976 0.80474 0.0
H1639 H 0.32248 0.18278 0.85819 0.0
H1640 H 0.27146 0.13653 0.6929 0.0
H1641 H 0.31121 0.09617 0.82419 0.0
H1642 H 0.32288 0.17801 0.65343 0.0
H1643 H 0.30479 0.19659 0.70322 0.0
H1644 H 0.28722 0.17604 0.6549 0.0
H1645 H 0.37223 0.1284 0.81206 0.0
H1646 H 0.35163 0.1108 0.86028 0.0
H1647 H 0.35389 0.14646 0.86226 0.0
C1648 C 0.86622 0.28712 0.72031 0.0
C1649 C 0.88887 0.29097 0.7526 0.0
C1650 C 0.8458 0.30603 0.71936 0.0
C1651 C 0.84826 0.32947 0.75089 0.0
C1652 C 0.87121 0.33358 0.78307 0.0
C1653 C 0.89114 0.31422 0.78381 0.0
C1654 C 0.82148 0.30082 0.68503 0.0
C1655 C 0.87473 0.35845 0.81676 0.0
C1656 C 0.80722 0.38987 0.71273 0.0
C1657 C 0.78727 0.38931 0.75271 0.0
C1658 C 0.8271 0.37042 0.71142 0.0
C1659 C 0.82681 0.34972 0.75058 0.0
C1660 C 0.80644 0.34879 0.79043 0.0
C1661 C 0.78701 0.36869 0.79124 0.0
C1662 C 0.84865 0.37227 0.66869 0.0
C1663 C 0.80526 0.32686 0.83246 0.0
H1664 H 0.86426 0.26914 0.69633 0.0
H1665 H 0.90864 0.31742 0.80867 0.0
H1666 H 0.80359 0.30079 0.71143 0.0
H1667 H 0.81892 0.31688 0.65448 0.0
H1668 H 0.82257 0.28156 0.66307 0.0
H1669 H 0.894 0.35886 0.83866 0.0
H1670 H 0.87348 0.37617 0.78997 0.0
H1671 H 0.85856 0.36003 0.84737 0.0
H1672 H 0.80758 0.40577 0.68289 0.0
H1673 H 0.77152 0.368 0.82198 0.0
H1674 H 0.8492 0.35384 0.64394 0.0
H1675 H 0.86821 0.37427 0.68895 0.0
H1676 H 0.84582 0.38939 0.64069 0.0
H1677 H 0.805 0.30729 0.81175 0.0
H1678 H 0.78751 0.32838 0.85919 0.0
H1679 H 0.82321 0.32749 0.8586 0.0
C1680 C 0.68878 0.88733 0.78679 0.0
C1681 C 0.71056 0.88573 0.75131 0.0
C1682 C 0.66903 0.86768 0.78661 0.0
C1683 C 0.67136 0.84576 0.75065 0.0
C1684 C 0.69357 0.84382 0.7155 0.0
C1685 C 0.7128 0.86391 0.716 0.0
C1686 C 0.6455 0.87055 0.8243 0.0
C1687 C 0.69697 0.82061 0.67706 0.0
C1688 C 0.63171 0.78319 0.78001 0.0
C1689 C 0.61081 0.78551 0.7425 0.0
C1690 C 0.65154 0.80268 0.78328 0.0
C1691 C 0.65026 0.82516 0.74863 0.0
C1692 C 0.62908 0.82771 0.71104 0.0
C1693 C 0.60971 0.8078 0.70821 0.0
C1694 C 0.67399 0.79911 0.82341 0.0
C1695 C 0.62689 0.85149 0.67373 0.0
H1696 H 0.68694 0.90416 0.81414 0.0
H1697 H 0.72972 0.86239 0.68882 0.0
H1698 H 0.62701 0.87158 0.79984 0.0
H1699 H 0.64387 0.85294 0.85131 0.0
H1700 H 0.64682 0.88858 0.85029 0.0
H1701 H 0.71593 0.82154 0.65401 0.0
H1702 H 0.69635 0.80174 0.70038 0.0
H1703 H 0.6804 0.82011 0.64727 0.0
H1704 H 0.63274 0.76598 0.80653 0.0
H1705 H 0.59354 0.80984 0.67932 0.0
H1706 H 0.67475 0.81617 0.85203 0.0
H1707 H 0.69315 0.79863 0.80115 0.0
H1708 H 0.67203 0.78058 0.84765 0.0
H1709 H 0.6266 0.86998 0.69833 0.0
H1710 H 0.60878 0.85086 0.64795 0.0
H1711 H 0.64444 0.85251 0.64645 0.0
C1712 C 0.99353 0.21202 0.37828 0.0
C1713 C 0.01499 0.22567 0.35531 0.0
C1714 C 0.98594 0.2163 0.43287 0.0
C1715 C 0.00079 0.23397 0.46595 0.0
C1716 C 0.02182 0.24867 0.44215 0.0
C1717 C 0.0285 0.24453 0.38679 0.0
C1718 C 0.963 0.20065 0.45602 0.0
C1719 C 0.03857 0.26721 0.47611 0.0
C1720 C 0.97163 0.25131 0.60562 0.0
C1721 C 0.98239 0.23126 0.63857 0.0
C1722 C 0.978 0.25305 0.54958 0.0
C1723 C 0.99602 0.23467 0.52634 0.0
C1724 C 0.00804 0.21534 0.56032 0.0
C1725 C 0.0008 0.21364 0.61573 0.0
C1726 C 0.96431 0.27355 0.51466 0.0
C1727 C 0.02781 0.19572 0.53769 0.0
H1728 H 0.98329 0.19721 0.35398 0.0
H1729 H 0.0455 0.25462 0.36932 0.0
H1730 H 0.97055 0.18537 0.4847 0.0
H1731 H 0.94955 0.21382 0.47952 0.0
H1732 H 0.95139 0.19056 0.42347 0.0
H1733 H 0.0519 0.27956 0.45038 0.0
H1734 H 0.02591 0.28046 0.50117 0.0
H1735 H 0.0509 0.25543 0.50477 0.0
H1736 H 0.95712 0.26475 0.62295 0.0
H1737 H 0.00923 0.19815 0.64109 0.0
H1738 H 0.95058 0.2635 0.48588 0.0
H1739 H 0.97896 0.28462 0.48965 0.0
H1740 H 0.9528 0.28791 0.53961 0.0
H1741 H 0.01769 0.18191 0.50917 0.0
H1742 H 0.0374 0.18386 0.57047 0.0
H1743 H 0.04342 0.20618 0.51408 0.0
C1744 C 0.7562 0.95489 0.57729 0.0
C1745 C 0.75508 0.97096 0.62397 0.0
C1746 C 0.75319 0.96567 0.52489 0.0
C1747 C 0.74898 0.99326 0.51917 0.0
C1748 C 0.74508 0.0091 0.56652 0.0
C1749 C 0.74821 0.9977 0.61872 0.0
C1750 C 0.7574 0.94796 0.47579 0.0
C1751 C 0.74024 0.03852 0.56213 0.0
C1752 C 0.78513 0.02356 0.39867 0.0
C1753 C 0.76489 0.02641 0.35973 0.0
C1754 C 0.77997 0.01335 0.45087 0.0
C1755 C 0.7538 0.00588 0.46501 0.0
C1756 C 0.73313 0.00897 0.42636 0.0
C1757 C 0.73894 0.01908 0.37398 0.0
C1758 C 0.80272 0.01011 0.49056 0.0
C1759 C 0.70501 0.00135 0.4402 0.0
H1760 H 0.76114 0.93409 0.58164 0.0
H1761 H 0.74744 0.01011 0.65495 0.0
H1762 H 0.74255 0.95214 0.44352 0.0
H1763 H 0.77728 0.9519 0.45813 0.0
H1764 H 0.75626 0.92661 0.48679 0.0
H1765 H 0.73252 0.04689 0.60107 0.0
H1766 H 0.75913 0.04868 0.55213 0.0
H1767 H 0.72601 0.04294 0.52876 0.0
H1768 H 0.80527 0.0291 0.3883 0.0
H1769 H 0.72312 0.02138 0.34436 0.0
H1770 H 0.80517 0.98886 0.50119 0.0
H1771 H 0.79848 0.02094 0.52911 0.0
H1772 H 0.82176 0.01753 0.47362 0.0
H1773 H 0.70382 0.9797 0.44785 0.0
H1774 H 0.69094 0.00649 0.4069 0.0
H1775 H 0.69865 0.01145 0.47835 0.0
C1776 C 0.9935 0.78449 0.63 0.0
C1777 C 0.01222 0.76835 0.65602 0.0
C1778 C 0.98734 0.78098 0.57447 0.0
C1779 C 0.00073 0.76126 0.54377 0.0
C1780 C 0.01871 0.74404 0.57052 0.0
C1781 C 0.02405 0.74763 0.62659 0.0
C1782 C 0.96757 0.79939 0.54795 0.0
C1783 C 0.03369 0.72306 0.53923 0.0
C1784 C 0.9725 0.74929 0.40141 0.0
C1785 C 0.98643 0.76826 0.37091 0.0
C1786 C 0.97784 0.74562 0.45746 0.0
C1787 C 0.99791 0.76092 0.48297 0.0
C1788 C 0.0134 0.77851 0.45098 0.0
C1789 C 0.0072 0.78227 0.39556 0.0
C1790 C 0.96056 0.72701 0.49012 0.0
C1791 C 0.03545 0.79468 0.47609 0.0
H1792 H 0.98431 0.80052 0.65269 0.0
H1793 H 0.03884 0.73536 0.6464 0.0
H1794 H 0.97794 0.81281 0.519 0.0
H1795 H 0.95288 0.78784 0.52405 0.0
H1796 H 0.95685 0.8117 0.57848 0.0
H1797 H 0.04395 0.70895 0.56695 0.0
H1798 H 0.02017 0.71177 0.51205 0.0
H1799 H 0.04875 0.73273 0.51281 0.0
H1800 H 0.95608 0.73884 0.38258 0.0
H1801 H 0.01785 0.79704 0.37194 0.0
H1802 H 0.94656 0.73877 0.51536 0.0
H1803 H 0.97265 0.71485 0.51849 0.0
H1804 H 0.94888 0.71359 0.4633 0.0
H1805 H 0.02702 0.80953 0.50472 0.0
H1806 H 0.04734 0.80531 0.44469 0.0
H1807 H 0.04883 0.78168 0.50007 0.0
C1808 C 0.26623 0.02239 0.62793 0.0
C1809 C 0.23915 0.02232 0.64101 0.0
C1810 C 0.27514 0.013 0.57679 0.0
C1811 C 0.25652 0.00328 0.5383 0.0
C1812 C 0.22929 0.00243 0.55219 0.0
C1813 C 0.22101 0.01195 0.60315 0.0
C1814 C 0.30428 0.0142 0.56334 0.0
C1815 C 0.20868 0.99192 0.5128 0.0
C1816 C 0.26043 0.00045 0.38454 0.0
C1817 C 0.26088 0.97301 0.37675 0.0
C1818 C 0.26247 0.01119 0.43748 0.0
C1819 C 0.26477 0.99391 0.48307 0.0
C1820 C 0.26859 0.96645 0.47424 0.0
C1821 C 0.26647 0.9563 0.42101 0.0
C1822 C 0.25863 0.04062 0.44502 0.0
C1823 C 0.2712 0.94727 0.52135 0.0
H1824 H 0.28033 0.03056 0.65684 0.0
H1825 H 0.20008 0.0116 0.61302 0.0
H1826 H 0.31126 0.99476 0.54776 0.0
H1827 H 0.30765 0.02897 0.5304 0.0
H1828 H 0.31644 0.01986 0.5994 0.0
H1829 H 0.1884 0.99219 0.5305 0.0
H1830 H 0.20861 0.00402 0.47487 0.0
H1831 H 0.21347 0.97124 0.50091 0.0
H1832 H 0.2557 0.01327 0.35026 0.0
H1833 H 0.26651 0.935 0.41476 0.0
H1834 H 0.27164 0.04834 0.47793 0.0
H1835 H 0.23781 0.04451 0.45723 0.0
H1836 H 0.26272 0.05171 0.40663 0.0
H1837 H 0.28382 0.95562 0.55427 0.0
H1838 H 0.27969 0.92803 0.50787 0.0
H1839 H 0.2513 0.94342 0.539 0.0
C1840 C 0.52979 0.75164 0.88795 0.0
C1841 C 0.5164 0.73288 0.8559 0.0
C1842 C 0.52424 0.75419 0.94418 0.0
C1843 C 0.50448 0.73797 0.9683 0.0
C1844 C 0.48963 0.72042 0.93498 0.0
C1845 C 0.49603 0.71782 0.87938 0.0
C1846 C 0.5408 0.77278 0.97837 0.0
C1847 C 0.46795 0.70322 0.95867 0.0
C1848 C 0.50739 0.71204 0.11347 0.0
C1849 C 0.48769 0.72709 0.13919 0.0
C1850 C 0.51459 0.71693 0.05894 0.0
C1851 C 0.50116 0.73684 0.02891 0.0
C1852 C 0.4823 0.75311 0.05572 0.0
C1853 C 0.47597 0.7482 0.11091 0.0
C1854 C 0.53526 0.6995 0.03241 0.0
C1855 C 0.4672 0.7742 0.02504 0.0
H1856 H 0.54582 0.76301 0.86995 0.0
H1857 H 0.48567 0.70332 0.85454 0.0
H1858 H 0.52814 0.78451 0.00647 0.0
H1859 H 0.55463 0.76104 0.00402 0.0
H1860 H 0.55262 0.7866 0.95268 0.0
H1861 H 0.45633 0.69296 0.92636 0.0
H1862 H 0.47677 0.68799 0.98589 0.0
H1863 H 0.45425 0.71534 0.98384 0.0
H1864 H 0.51637 0.69565 0.13538 0.0
H1865 H 0.46039 0.75954 0.13055 0.0
H1866 H 0.54962 0.71168 0.00893 0.0
H1867 H 0.52555 0.68577 0.00312 0.0
H1868 H 0.54629 0.6875 0.06297 0.0
H1869 H 0.48068 0.78601 0.99872 0.0
H1870 H 0.45655 0.78781 0.05321 0.0
H1871 H 0.45244 0.76458 0.99786 0.0
C1872 C 0.26621 0.49561 0.87146 0.0
C1873 C 0.25209 0.51695 0.84955 0.0
C1874 C 0.26104 0.48649 0.92455 0.0
C1875 C 0.24181 0.49963 0.95694 0.0
C1876 C 0.2261 0.51991 0.93341 0.0
C1877 C 0.23132 0.52824 0.87953 0.0
C1878 C 0.27791 0.46442 0.94757 0.0
C1879 C 0.20562 0.53457 0.96664 0.0
C1880 C 0.23056 0.46673 0.09473 0.0
C1881 C 0.25085 0.47846 0.1254 0.0
C1882 C 0.22588 0.47467 0.04039 0.0
C1883 C 0.24165 0.495 0.01708 0.0
C1884 C 0.26045 0.50849 0.04994 0.0
C1885 C 0.26507 0.49978 0.1035 0.0
C1886 C 0.20584 0.45966 0.00665 0.0
C1887 C 0.27735 0.53065 0.02715 0.0
H1888 H 0.28239 0.48706 0.84813 0.0
H1889 H 0.22073 0.54508 0.86272 0.0
H1890 H 0.29244 0.47279 0.97697 0.0
H1891 H 0.2655 0.44991 0.97016 0.0
H1892 H 0.289 0.45376 0.91502 0.0
H1893 H 0.19167 0.54575 0.94012 0.0
H1894 H 0.19415 0.52074 0.99284 0.0
H1895 H 0.21575 0.5489 0.99404 0.0
H1896 H 0.21988 0.44994 0.11157 0.0
H1897 H 0.28083 0.50873 0.12741 0.0
H1898 H 0.21636 0.44543 0.97967 0.0
H1899 H 0.19443 0.4733 0.97999 0.0
H1900 H 0.19182 0.44835 0.03282 0.0
H1901 H 0.29205 0.52235 0.99803 0.0
H1902 H 0.28824 0.54141 0.05985 0.0
H1903 H 0.26498 0.54506 0.0043 0.0
C1904 C 0.5487 0.27421 0.0873 0.0
C1905 C 0.53362 0.26874 0.13413 0.0
C1906 C 0.53818 0.27055 0.03483 0.0
C1907 C 0.51177 0.26154 0.02915 0.0
C1908 C 0.49729 0.25372 0.07626 0.0
C1909 C 0.50851 0.25728 0.12846 0.0
C1910 C 0.55449 0.27879 0.98585 0.0
C1911 C 0.4691 0.24403 0.07196 0.0
C1912 C 0.47499 0.29534 0.914 0.0
C1913 C 0.47462 0.27582 0.87298 0.0
C1914 C 0.48638 0.29052 0.96518 0.0
C1915 C 0.49795 0.26555 0.97602 0.0
C1916 C 0.49755 0.24557 0.93525 0.0
C1917 C 0.48585 0.25093 0.88406 0.0
C1918 C 0.48641 0.3125 0.00735 0.0
C1919 C 0.50983 0.21876 0.94542 0.0
H1920 H 0.56837 0.28255 0.09173 0.0
H1921 H 0.49688 0.25299 0.16474 0.0
H1922 H 0.55247 0.26421 0.95212 0.0
H1923 H 0.54724 0.29817 0.97046 0.0
H1924 H 0.57581 0.28089 0.99623 0.0
H1925 H 0.46245 0.23414 0.11024 0.0
H1926 H 0.45585 0.26114 0.06403 0.0
H1927 H 0.46685 0.22999 0.03731 0.0
H1928 H 0.46649 0.31468 0.90623 0.0
H1929 H 0.48564 0.2357 0.85276 0.0
H1930 H 0.50709 0.31837 0.0169 0.0
H1931 H 0.47721 0.30548 0.04598 0.0
H1932 H 0.47553 0.33037 0.9932 0.0
H1933 H 0.53148 0.221 0.9516 0.0
H1934 H 0.50644 0.20484 0.91087 0.0
H1935 H 0.5016 0.2099 0.98337 0.0
C1936 C 0.72861 0.49793 0.90978 0.0
C1937 C 0.74491 0.4831 0.8749 0.0
C1938 C 0.73711 0.50543 0.96197 0.0
C1939 C 0.76272 0.49798 0.97997 0.0
C1940 C 0.78001 0.48453 0.94362 0.0
C1941 C 0.77086 0.4772 0.89122 0.0
C1942 C 0.71799 0.52006 0.99892 0.0
C1943 C 0.80749 0.4765 0.9611 0.0
C1944 C 0.77589 0.53579 0.10962 0.0
C1945 C 0.7639 0.51888 0.14774 0.0
C1946 C 0.77912 0.52788 0.05491 0.0
C1947 C 0.76982 0.50263 0.03836 0.0
C1948 C 0.7609 0.48435 0.07847 0.0
C1949 C 0.75787 0.49281 0.13285 0.0
C1950 C 0.78905 0.54788 0.01381 0.0
C1951 C 0.75097 0.45716 0.06281 0.0
H1952 H 0.70867 0.50283 0.89697 0.0
H1953 H 0.78345 0.46558 0.86443 0.0
H1954 H 0.71318 0.50765 0.0351 0.0
H1955 H 0.72715 0.53864 0.01414 0.0
H1956 H 0.69917 0.52515 0.97785 0.0
H1957 H 0.8201 0.47118 0.92545 0.0
H1958 H 0.81726 0.49264 0.98443 0.0
H1959 H 0.80616 0.45899 0.98845 0.0
H1960 H 0.78007 0.55614 0.12109 0.0
H1961 H 0.74812 0.47997 0.16227 0.0
H1962 H 0.77187 0.5578 0.99427 0.0
H1963 H 0.80078 0.53815 0.98107 0.0
H1964 H 0.80142 0.56335 0.0337 0.0
H1965 H 0.73093 0.45897 0.04451 0.0
H1966 H 0.7496 0.44382 0.0989 0.0
H1967 H 0.7641 0.44793 0.03181 0.0
loop_
_geom_bond_atom_site_label_1
_geom_bond_atom_site_label_2
_geom_bond_distance
_geom_bond_site_symmetry_2
_ccdc_geom_bond_type
Co0 O2 2.143 . S
Co0 O8 2.074 . S
Co0 O11 2.093 . S
Co0 O24 2.097 . S
Co0 N41 2.151 . S
Co0 N49 2.214 . S
Co1 O2 2.160 . S
Co1 O7 2.058 . S
Co1 O17 2.057 . S
Co1 O32 2.037 . S
Co1 N36 2.145 . S
Co1 N57 2.257 . S
O2 Co0 2.143 . S
O2 Co1 2.160 . S
C3 O4 1.278 . S
C3 O11 1.224 . S
O4 C3 1.278 . S
C5 O6 1.245 . S
C5 O17 1.232 . S
O6 C5 1.245 . S
O7 Co1 2.058 . S
O7 C33 1.269 . S
O8 Co0 2.074 . S
O8 C33 1.257 . S
H9 C34 0.930 . S
H10 C40 0.930 . S
O11 Co0 2.093 . S
O11 C3 1.224 . S
H12 C44 0.929 . S
H13 C46 0.930 . S
H14 C47 0.930 . S
H15 C45 0.929 . S
H16 C48 0.928 . S
O17 Co1 2.057 . S
O17 C5 1.232 . S
H18 C37 0.929 . S
H19 C38 0.929 . S
H20 C50 0.931 . S
H21 C42 0.929 . S
H22 C51 0.921 1_655 S
H23 C43 0.931 . S
O24 Co0 2.097 . S
O24 C52 1.214 . S
H25 C53 0.929 . S
H26 C54 0.929 . S
H27 C55 0.930 1_556 S
H28 C56 0.929 . S
H29 C58 0.930 . S
H30 C35 0.930 . S
H31 C39 0.930 . S
O32 Co1 2.037 . S
O32 C52 1.234 . S
C33 O7 1.269 . S
C33 O8 1.257 . S
C34 H9 0.930 . S
C34 C37 1.388 . S
C34 C39 1.418 . S
C35 H30 0.930 . S
C35 C38 1.404 . S
C35 C39 1.353 1_455 S
N36 Co1 2.145 . S
N36 C37 1.397 1_455 S
N36 C38 1.334 . S
C37 H18 0.929 . S
C37 C34 1.388 . S
C37 N36 1.397 1_655 S
C38 H19 0.929 . S
C38 C35 1.404 . S
C38 N36 1.334 . S
C39 H31 0.930 . S
C39 C34 1.418 . S
C39 C35 1.353 1_655 S
C40 H10 0.930 . S
C40 N41 1.330 . S
C40 C42 1.446 . S
N41 Co0 2.151 . S
N41 C40 1.330 . S
N41 C45 1.418 . S
C42 H21 0.929 . S
C42 C40 1.446 . S
C42 C43 1.332 . S
C43 H23 0.931 . S
C43 C42 1.332 . S
C43 C44 1.267 . S
C44 H12 0.929 . S
C44 C43 1.267 . S
C44 C45 1.251 . S
C45 H15 0.929 . S
C45 N41 1.418 . S
C45 C44 1.251 . S
C46 H13 0.930 . S
C46 C48 1.406 . S
C46 C51 1.261 . S
C47 H14 0.930 . S
C47 N49 1.325 . S
C47 C50 1.357 1_455 S
C48 H16 0.928 . S
C48 C46 1.406 . S
C48 N49 1.261 . S
N49 Co0 2.214 . S
N49 C47 1.325 . S
N49 C48 1.261 . S
C50 H20 0.931 . S
C50 C47 1.357 1_655 S
C50 C51 1.312 1_655 S
C51 H22 0.921 1_455 S
C51 C46 1.261 . S
C51 C50 1.312 1_455 S
C52 O24 1.214 . S
C52 O32 1.234 . S
C53 H25 0.929 . S
C53 C56 1.391 1_554 S
C53 C58 1.391 . S
C54 H26 0.929 . S
C54 C55 1.390 . S
C54 N57 1.391 . S
C55 H27 0.930 1_554 S
C55 C54 1.390 . S
C55 C56 1.392 1_554 S
C56 H28 0.929 . S
C56 C53 1.391 1_556 S
C56 C55 1.392 1_556 S
N57 Co1 2.257 . S
N57 C54 1.391 . S
N57 C58 1.388 . S
C58 H29 0.930 . S
C58 C53 1.391 . S
C58 N57 1.388 . S
Co59 O61 2.143 . S
Co59 O67 2.074 . S
Co59 O70 2.093 . S
Co59 O83 2.097 . S
Co59 N100 2.151 . S
Co59 N108 2.214 . S
Co60 O61 2.160 . S
Co60 O66 2.058 . S
Co60 O76 2.057 . S
Co60 O91 2.037 . S
Co60 N95 2.145 . S
Co60 N116 2.257 . S
O61 Co59 2.143 . S
O61 Co60 2.160 . S
C62 O63 1.278 . S
C62 O70 1.224 . S
O63 C62 1.278 . S
C64 O65 1.245 . S
C64 O76 1.232 . S
O65 C64 1.245 . S
O66 Co60 2.058 . S
O66 C92 1.269 . S
O67 Co59 2.074 . S
O67 C92 1.257 . S
H68 C93 0.930 . S
H69 C99 0.930 . S
O70 Co59 2.093 . S
O70 C62 1.224 . S
H71 C103 0.929 . S
H72 C105 0.930 . S
H73 C106 0.930 . S
H74 C104 0.929 . S
H75 C107 0.928 . S
O76 Co60 2.057 . S
O76 C64 1.232 . S
H77 C96 0.929 . S
H78 C97 0.929 . S
H79 C109 0.931 . S
H80 C101 0.929 . S
H81 C110 0.921 1_565 S
H82 C102 0.931 . S
O83 Co59 2.097 . S
O83 C111 1.214 . S
H84 C112 0.929 . S
H85 C113 0.929 . S
H86 C114 0.930 1_556 S
H87 C115 0.929 . S
H88 C117 0.930 . S
H89 C94 0.930 . S
H90 C98 0.930 . S
O91 Co60 2.037 . S
O91 C111 1.234 . S
C92 O66 1.269 . S
C92 O67 1.257 . S
C93 H68 0.930 . S
C93 C96 1.388 . S
C93 C98 1.418 . S
C94 H89 0.930 . S
C94 C97 1.404 . S
C94 C98 1.353 1_545 S
N95 Co60 2.145 . S
N95 C96 1.397 1_545 S
N95 C97 1.334 . S
C96 H77 0.929 . S
C96 C93 1.388 . S
C96 N95 1.397 1_565 S
C97 H78 0.929 . S
C97 C94 1.404 . S
C97 N95 1.334 . S
C98 H90 0.930 . S
C98 C93 1.418 . S
C98 C94 1.353 1_565 S
C99 H69 0.930 . S
C99 N100 1.330 . S
C99 C101 1.446 . S
N100 Co59 2.151 . S
N100 C99 1.330 . S
N100 C104 1.418 . S
C101 H80 0.929 . S
C101 C99 1.446 . S
C101 C102 1.332 . S
C102 H82 0.931 . S
C102 C101 1.332 . S
C102 C103 1.267 . S
C103 H71 0.929 . S
C103 C102 1.267 . S
C103 C104 1.251 . S
C104 H74 0.929 . S
C104 N100 1.418 . S
C104 C103 1.251 . S
C105 H72 0.930 . S
C105 C107 1.406 . S
C105 C110 1.261 . S
C106 H73 0.930 . S
C106 N108 1.325 . S
C106 C109 1.357 1_545 S
C107 H75 0.928 . S
C107 C105 1.406 . S
C107 N108 1.261 . S
N108 Co59 2.214 . S
N108 C106 1.325 . S
N108 C107 1.261 . S
C109 H79 0.931 . S
C109 C106 1.357 1_565 S
C109 C110 1.312 1_565 S
C110 H81 0.921 1_545 S
C110 C105 1.261 . S
C110 C109 1.312 1_545 S
C111 O83 1.214 . S
C111 O91 1.234 . S
C112 H84 0.929 . S
C112 C115 1.391 1_554 S
C112 C117 1.391 . S
C113 H85 0.929 . S
C113 C114 1.390 . S
C113 N116 1.391 . S
C114 H86 0.930 1_554 S
C114 C113 1.390 . S
C114 C115 1.392 1_554 S
C115 H87 0.929 . S
C115 C112 1.391 1_556 S
C115 C114 1.392 1_556 S
N116 Co60 2.257 . S
N116 C113 1.391 . S
N116 C117 1.388 . S
C117 H88 0.930 . S
C117 C112 1.391 . S
C117 N116 1.388 . S
Co118 O120 2.143 . S
Co118 O126 2.074 . S
Co118 O129 2.093 . S
Co118 O142 2.097 . S
Co118 N159 2.151 . S
Co118 N167 2.214 . S
Co119 O120 2.160 . S
Co119 O125 2.058 . S
Co119 O135 2.057 . S
Co119 O150 2.037 . S
Co119 N154 2.145 . S
Co119 N175 2.257 . S
O120 Co118 2.143 . S
O120 Co119 2.160 . S
C121 O122 1.278 . S
C121 O129 1.224 . S
O122 C121 1.278 . S
C123 O124 1.245 . S
C123 O135 1.232 . S
O124 C123 1.245 . S
O125 Co119 2.058 . S
O125 C151 1.269 . S
O126 Co118 2.074 . S
O126 C151 1.257 . S
H127 C152 0.930 . S
H128 C158 0.930 . S
O129 Co118 2.093 . S
O129 C121 1.224 . S
H130 C162 0.929 . S
H131 C164 0.930 . S
H132 C165 0.930 . S
H133 C163 0.929 . S
H134 C166 0.928 . S
O135 Co119 2.057 . S
O135 C123 1.232 . S
H136 C155 0.929 . S
H137 C156 0.929 . S
H138 C168 0.931 . S
H139 C160 0.929 . S
H140 C169 0.921 1_455 S
H141 C161 0.931 . S
O142 Co118 2.097 . S
O142 C170 1.214 . S
H143 C171 0.929 . S
H144 C172 0.929 . S
H145 C173 0.930 1_556 S
H146 C174 0.929 . S
H147 C176 0.930 . S
H148 C153 0.930 . S
H149 C157 0.930 . S
O150 Co119 2.037 . S
O150 C170 1.234 . S
C151 O125 1.269 . S
C151 O126 1.257 . S
C152 H127 0.930 . S
C152 C155 1.388 . S
C152 C157 1.418 . S
C153 H148 0.930 . S
C153 C156 1.404 . S
C153 C157 1.353 1_655 S
N154 Co119 2.145 . S
N154 C155 1.397 1_655 S
N154 C156 1.334 . S
C155 H136 0.929 . S
C155 C152 1.388 . S
C155 N154 1.397 1_455 S
C156 H137 0.929 . S
C156 C153 1.404 . S
C156 N154 1.334 . S
C157 H149 0.930 . S
C157 C152 1.418 . S
C157 C153 1.353 1_455 S
C158 H128 0.930 . S
C158 N159 1.330 . S
C158 C160 1.446 . S
N159 Co118 2.151 . S
N159 C158 1.330 . S
N159 C163 1.418 . S
C160 H139 0.929 . S
C160 C158 1.446 . S
C160 C161 1.332 . S
C161 H141 0.931 . S
C161 C160 1.332 . S
C161 C162 1.267 . S
C162 H130 0.929 . S
C162 C161 1.267 . S
C162 C163 1.251 . S
C163 H133 0.929 . S
C163 N159 1.418 . S
C163 C162 1.251 . S
C164 H131 0.930 . S
C164 C166 1.406 . S
C164 C169 1.261 . S
C165 H132 0.930 . S
C165 N167 1.325 . S
C165 C168 1.357 1_655 S
C166 H134 0.928 . S
C166 C164 1.406 . S
C166 N167 1.261 . S
N167 Co118 2.214 . S
N167 C165 1.325 . S
N167 C166 1.261 . S
C168 H138 0.931 . S
C168 C165 1.357 1_455 S
C168 C169 1.312 1_455 S
C169 H140 0.921 1_655 S
C169 C164 1.261 . S
C169 C168 1.312 1_655 S
C170 O142 1.214 . S
C170 O150 1.234 . S
C171 H143 0.929 . S
C171 C174 1.391 1_554 S
C171 C176 1.391 . S
C172 H144 0.929 . S
C172 C173 1.390 . S
C172 N175 1.391 . S
C173 H145 0.930 1_554 S
C173 C172 1.390 . S
C173 C174 1.392 1_554 S
C174 H146 0.929 . S
C174 C171 1.391 1_556 S
C174 C173 1.392 1_556 S
N175 Co119 2.257 . S
N175 C172 1.391 . S
N175 C176 1.388 . S
C176 H147 0.930 . S
C176 C171 1.391 . S
C176 N175 1.388 . S
Co177 O179 2.143 . S
Co177 O185 2.074 . S
Co177 O188 2.093 . S
Co177 O201 2.097 . S
Co177 N218 2.151 . S
Co177 N226 2.214 . S
Co178 O179 2.160 . S
Co178 O184 2.058 . S
Co178 O194 2.057 . S
Co178 O209 2.037 . S
Co178 N213 2.145 . S
Co178 N234 2.257 . S
O179 Co177 2.143 . S
O179 Co178 2.160 . S
C180 O181 1.278 . S
C180 O188 1.224 . S
O181 C180 1.278 . S
C182 O183 1.245 . S
C182 O194 1.232 . S
O183 C182 1.245 . S
O184 Co178 2.058 . S
O184 C210 1.269 . S
O185 Co177 2.074 . S
O185 C210 1.257 . S
H186 C211 0.930 . S
H187 C217 0.930 . S
O188 Co177 2.093 . S
O188 C180 1.224 . S
H189 C221 0.929 . S
H190 C223 0.930 . S
H191 C224 0.930 . S
H192 C222 0.929 . S
H193 C225 0.928 . S
O194 Co178 2.057 . S
O194 C182 1.232 . S
H195 C214 0.929 . S
H196 C215 0.929 . S
H197 C227 0.931 . S
H198 C219 0.929 . S
H199 C228 0.921 1_545 S
H200 C220 0.931 . S
O201 Co177 2.097 . S
O201 C229 1.214 . S
H202 C230 0.929 . S
H203 C231 0.929 . S
H204 C232 0.930 1_556 S
H205 C233 0.929 . S
H206 C235 0.930 . S
H207 C212 0.930 . S
H208 C216 0.930 . S
O209 Co178 2.037 . S
O209 C229 1.234 . S
C210 O184 1.269 . S
C210 O185 1.257 . S
C211 H186 0.930 . S
C211 C214 1.388 . S
C211 C216 1.418 . S
C212 H207 0.930 . S
C212 C215 1.404 . S
C212 C216 1.353 1_565 S
N213 Co178 2.145 . S
N213 C214 1.397 1_565 S
N213 C215 1.334 . S
C214 H195 0.929 . S
C214 C211 1.388 . S
C214 N213 1.397 1_545 S
C215 H196 0.929 . S
C215 C212 1.404 . S
C215 N213 1.334 . S
C216 H208 0.930 . S
C216 C211 1.418 . S
C216 C212 1.353 1_545 S
C217 H187 0.930 . S
C217 N218 1.330 . S
C217 C219 1.446 . S
N218 Co177 2.151 . S
N218 C217 1.330 . S
N218 C222 1.418 . S
C219 H198 0.929 . S
C219 C217 1.446 . S
C219 C220 1.332 . S
C220 H200 0.931 . S
C220 C219 1.332 . S
C220 C221 1.267 . S
C221 H189 0.929 . S
C221 C220 1.267 . S
C221 C222 1.251 . S
C222 H192 0.929 . S
C222 N218 1.418 . S
C222 C221 1.251 . S
C223 H190 0.930 . S
C223 C225 1.406 . S
C223 C228 1.261 . S
C224 H191 0.930 . S
C224 N226 1.325 . S
C224 C227 1.357 1_565 S
C225 H193 0.928 . S
C225 C223 1.406 . S
C225 N226 1.261 . S
N226 Co177 2.214 . S
N226 C224 1.325 . S
N226 C225 1.261 . S
C227 H197 0.931 . S
C227 C224 1.357 1_545 S
C227 C228 1.312 1_545 S
C228 H199 0.921 1_565 S
C228 C223 1.261 . S
C228 C227 1.312 1_565 S
C229 O201 1.214 . S
C229 O209 1.234 . S
C230 H202 0.929 . S
C230 C233 1.391 1_554 S
C230 C235 1.391 . S
C231 H203 0.929 . S
C231 C232 1.390 . S
C231 N234 1.391 . S
C232 H204 0.930 1_554 S
C232 C231 1.390 . S
C232 C233 1.392 1_554 S
C233 H205 0.929 . S
C233 C230 1.391 1_556 S
C233 C232 1.392 1_556 S
N234 Co178 2.257 . S
N234 C231 1.391 . S
N234 C235 1.388 . S
C235 H206 0.930 . S
C235 C230 1.391 . S
C235 N234 1.388 . S
Co236 O238 2.143 . S
Co236 O244 2.074 . S
Co236 O247 2.093 . S
Co236 O260 2.097 . S
Co236 N277 2.151 . S
Co236 N285 2.214 . S
Co237 O238 2.160 . S
Co237 O243 2.058 . S
Co237 O253 2.057 . S
Co237 O268 2.037 . S
Co237 N272 2.145 . S
Co237 N293 2.257 . S
O238 Co236 2.143 . S
O238 Co237 2.160 . S
C239 O240 1.278 . S
C239 O247 1.224 . S
O240 C239 1.278 . S
C241 O242 1.245 . S
C241 O253 1.232 . S
O242 C241 1.245 . S
O243 Co237 2.058 . S
O243 C269 1.269 . S
O244 Co236 2.074 . S
O244 C269 1.257 . S
H245 C270 0.930 . S
H246 C276 0.930 . S
O247 Co236 2.093 . S
O247 C239 1.224 . S
H248 C280 0.929 . S
H249 C282 0.930 . S
H250 C283 0.930 . S
H251 C281 0.929 . S
H252 C284 0.928 . S
O253 Co237 2.057 . S
O253 C241 1.232 . S
H254 C273 0.929 . S
H255 C274 0.929 . S
H256 C286 0.931 . S
H257 C278 0.929 . S
H258 C287 0.921 1_655 S
H259 C279 0.931 . S
O260 Co236 2.097 . S
O260 C288 1.214 . S
H261 C289 0.929 . S
H262 C290 0.929 . S
H263 C291 0.930 1_554 S
H264 C292 0.929 . S
H265 C294 0.930 . S
H266 C271 0.930 . S
H267 C275 0.930 . S
O268 Co237 2.037 . S
O268 C288 1.234 . S
C269 O243 1.269 . S
C269 O244 1.257 . S
C270 H245 0.930 . S
C270 C273 1.388 . S
C270 C275 1.418 . S
C271 H266 0.930 . S
C271 C274 1.404 . S
C271 C275 1.353 1_455 S
N272 Co237 2.145 . S
N272 C273 1.397 1_455 S
N272 C274 1.334 . S
C273 H254 0.929 . S
C273 C270 1.388 . S
C273 N272 1.397 1_655 S
C274 H255 0.929 . S
C274 C271 1.404 . S
C274 N272 1.334 . S
C275 H267 0.930 . S
C275 C270 1.418 . S
C275 C271 1.353 1_655 S
C276 H246 0.930 . S
C276 N277 1.330 . S
C276 C278 1.446 . S
N277 Co236 2.151 . S
N277 C276 1.330 . S
N277 C281 1.418 . S
C278 H257 0.929 . S
C278 C276 1.446 . S
C278 C279 1.332 . S
C279 H259 0.931 . S
C279 C278 1.332 . S
C279 C280 1.267 . S
C280 H248 0.929 . S
C280 C279 1.267 . S
C280 C281 1.251 . S
C281 H251 0.929 . S
C281 N277 1.418 . S
C281 C280 1.251 . S
C282 H249 0.930 . S
C282 C284 1.406 . S
C282 C287 1.261 . S
C283 H250 0.930 . S
C283 N285 1.325 . S
C283 C286 1.357 1_455 S
C284 H252 0.928 . S
C284 C282 1.406 . S
C284 N285 1.261 . S
N285 Co236 2.214 . S
N285 C283 1.325 . S
N285 C284 1.261 . S
C286 H256 0.931 . S
C286 C283 1.357 1_655 S
C286 C287 1.312 1_655 S
C287 H258 0.921 1_455 S
C287 C282 1.261 . S
C287 C286 1.312 1_455 S
C288 O260 1.214 . S
C288 O268 1.234 . S
C289 H261 0.929 . S
C289 C292 1.391 1_556 S
C289 C294 1.391 . S
C290 H262 0.929 . S
C290 C291 1.390 . S
C290 N293 1.391 . S
C291 H263 0.930 1_556 S
C291 C290 1.390 . S
C291 C292 1.392 1_556 S
C292 H264 0.929 . S
C292 C289 1.391 1_554 S
C292 C291 1.392 1_554 S
N293 Co237 2.257 . S
N293 C290 1.391 . S
N293 C294 1.388 . S
C294 H265 0.930 . S
C294 C289 1.391 . S
C294 N293 1.388 . S
Co295 O297 2.143 . S
Co295 O303 2.074 . S
Co295 O306 2.093 . S
Co295 O319 2.097 . S
Co295 N336 2.151 . S
Co295 N344 2.214 . S
Co296 O297 2.160 . S
Co296 O302 2.058 . S
Co296 O312 2.057 . S
Co296 O327 2.037 . S
Co296 N331 2.145 . S
Co296 N352 2.257 . S
O297 Co295 2.143 . S
O297 Co296 2.160 . S
C298 O299 1.278 . S
C298 O306 1.224 . S
O299 C298 1.278 . S
C300 O301 1.245 . S
C300 O312 1.232 . S
O301 C300 1.245 . S
O302 Co296 2.058 . S
O302 C328 1.269 . S
O303 Co295 2.074 . S
O303 C328 1.257 . S
H304 C329 0.930 . S
H305 C335 0.930 . S
O306 Co295 2.093 . S
O306 C298 1.224 . S
H307 C339 0.929 . S
H308 C341 0.930 . S
H309 C342 0.930 . S
H310 C340 0.929 . S
H311 C343 0.928 . S
O312 Co296 2.057 . S
O312 C300 1.232 . S
H313 C332 0.929 . S
H314 C333 0.929 . S
H315 C345 0.931 . S
H316 C337 0.929 . S
H317 C346 0.921 1_565 S
H318 C338 0.931 . S
O319 Co295 2.097 . S
O319 C347 1.214 . S
H320 C348 0.929 . S
H321 C349 0.929 . S
H322 C350 0.930 1_554 S
H323 C351 0.929 . S
H324 C353 0.930 . S
H325 C330 0.930 . S
H326 C334 0.930 . S
O327 Co296 2.037 . S
O327 C347 1.234 . S
C328 O302 1.269 . S
C328 O303 1.257 . S
C329 H304 0.930 . S
C329 C332 1.388 . S
C329 C334 1.418 . S
C330 H325 0.930 . S
C330 C333 1.404 . S
C330 C334 1.353 1_545 S
N331 Co296 2.145 . S
N331 C332 1.397 1_545 S
N331 C333 1.334 . S
C332 H313 0.929 . S
C332 C329 1.388 . S
C332 N331 1.397 1_565 S
C333 H314 0.929 . S
C333 C330 1.404 . S
C333 N331 1.334 . S
C334 H326 0.930 . S
C334 C329 1.418 . S
C334 C330 1.353 1_565 S
C335 H305 0.930 . S
C335 N336 1.330 . S
C335 C337 1.446 . S
N336 Co295 2.151 . S
N336 C335 1.330 . S
N336 C340 1.418 . S
C337 H316 0.929 . S
C337 C335 1.446 . S
C337 C338 1.332 . S
C338 H318 0.931 . S
C338 C337 1.332 . S
C338 C339 1.267 . S
C339 H307 0.929 . S
C339 C338 1.267 . S
C339 C340 1.251 . S
C340 H310 0.929 . S
C340 N336 1.418 . S
C340 C339 1.251 . S
C341 H308 0.930 . S
C341 C343 1.406 . S
C341 C346 1.261 . S
C342 H309 0.930 . S
C342 N344 1.325 . S
C342 C345 1.357 1_545 S
C343 H311 0.928 . S
C343 C341 1.406 . S
C343 N344 1.261 . S
N344 Co295 2.214 . S
N344 C342 1.325 . S
N344 C343 1.261 . S
C345 H315 0.931 . S
C345 C342 1.357 1_565 S
C345 C346 1.312 1_565 S
C346 H317 0.921 1_545 S
C346 C341 1.261 . S
C346 C345 1.312 1_545 S
C347 O319 1.214 . S
C347 O327 1.234 . S
C348 H320 0.929 . S
C348 C351 1.391 1_556 S
C348 C353 1.391 . S
C349 H321 0.929 . S
C349 C350 1.390 . S
C349 N352 1.391 . S
C350 H322 0.930 1_556 S
C350 C349 1.390 . S
C350 C351 1.392 1_556 S
C351 H323 0.929 . S
C351 C348 1.391 1_554 S
C351 C350 1.392 1_554 S
N352 Co296 2.257 . S
N352 C349 1.391 . S
N352 C353 1.388 . S
C353 H324 0.930 . S
C353 C348 1.391 . S
C353 N352 1.388 . S
Co354 O356 2.143 . S
Co354 O362 2.074 . S
Co354 O365 2.093 . S
Co354 O378 2.097 . S
Co354 N395 2.151 . S
Co354 N403 2.214 . S
Co355 O356 2.160 . S
Co355 O361 2.058 . S
Co355 O371 2.057 . S
Co355 O386 2.037 . S
Co355 N390 2.145 . S
Co355 N411 2.257 . S
O356 Co354 2.143 . S
O356 Co355 2.160 . S
C357 O358 1.278 . S
C357 O365 1.224 . S
O358 C357 1.278 . S
C359 O360 1.245 . S
C359 O371 1.232 . S
O360 C359 1.245 . S
O361 Co355 2.058 . S
O361 C387 1.269 . S
O362 Co354 2.074 . S
O362 C387 1.257 . S
H363 C388 0.930 . S
H364 C394 0.930 . S
O365 Co354 2.093 . S
O365 C357 1.224 . S
H366 C398 0.929 . S
H367 C400 0.930 . S
H368 C401 0.930 . S
H369 C399 0.929 . S
H370 C402 0.928 . S
O371 Co355 2.057 . S
O371 C359 1.232 . S
H372 C391 0.929 . S
H373 C392 0.929 . S
H374 C404 0.931 . S
H375 C396 0.929 . S
H376 C405 0.921 1_455 S
H377 C397 0.931 . S
O378 Co354 2.097 . S
O378 C406 1.214 . S
H379 C407 0.929 . S
H380 C408 0.929 . S
H381 C409 0.930 1_554 S
H382 C410 0.929 . S
H383 C412 0.930 . S
H384 C389 0.930 . S
H385 C393 0.930 . S
O386 Co355 2.037 . S
O386 C406 1.234 . S
C387 O361 1.269 . S
C387 O362 1.257 . S
C388 H363 0.930 . S
C388 C391 1.388 . S
C388 C393 1.418 . S
C389 H384 0.930 . S
C389 C392 1.404 . S
C389 C393 1.353 1_655 S
N390 Co355 2.145 . S
N390 C391 1.397 1_655 S
N390 C392 1.334 . S
C391 H372 0.929 . S
C391 C388 1.388 . S
C391 N390 1.397 1_455 S
C392 H373 0.929 . S
C392 C389 1.404 . S
C392 N390 1.334 . S
C393 H385 0.930 . S
C393 C388 1.418 . S
C393 C389 1.353 1_455 S
C394 H364 0.930 . S
C394 N395 1.330 . S
C394 C396 1.446 . S
N395 Co354 2.151 . S
N395 C394 1.330 . S
N395 C399 1.418 . S
C396 H375 0.929 . S
C396 C394 1.446 . S
C396 C397 1.332 . S
C397 H377 0.931 . S
C397 C396 1.332 . S
C397 C398 1.267 . S
C398 H366 0.929 . S
C398 C397 1.267 . S
C398 C399 1.251 . S
C399 H369 0.929 . S
C399 N395 1.418 . S
C399 C398 1.251 . S
C400 H367 0.930 . S
C400 C402 1.406 . S
C400 C405 1.261 . S
C401 H368 0.930 . S
C401 N403 1.325 . S
C401 C404 1.357 1_655 S
C402 H370 0.928 . S
C402 C400 1.406 . S
C402 N403 1.261 . S
N403 Co354 2.214 . S
N403 C401 1.325 . S
N403 C402 1.261 . S
C404 H374 0.931 . S
C404 C401 1.357 1_455 S
C404 C405 1.312 1_455 S
C405 H376 0.921 1_655 S
C405 C400 1.261 . S
C405 C404 1.312 1_655 S
C406 O378 1.214 . S
C406 O386 1.234 . S
C407 H379 0.929 . S
C407 C410 1.391 1_556 S
C407 C412 1.391 . S
C408 H380 0.929 . S
C408 C409 1.390 . S
C408 N411 1.391 . S
C409 H381 0.930 1_556 S
C409 C408 1.390 . S
C409 C410 1.392 1_556 S
C410 H382 0.929 . S
C410 C407 1.391 1_554 S
C410 C409 1.392 1_554 S
N411 Co355 2.257 . S
N411 C408 1.391 . S
N411 C412 1.388 . S
C412 H383 0.930 . S
C412 C407 1.391 . S
C412 N411 1.388 . S
Co413 O415 2.143 . S
Co413 O421 2.074 . S
Co413 O424 2.093 . S
Co413 O437 2.097 . S
Co413 N454 2.151 . S
Co413 N462 2.214 . S
Co414 O415 2.160 . S
Co414 O420 2.058 . S
Co414 O430 2.057 . S
Co414 O445 2.037 . S
Co414 N449 2.145 . S
Co414 N470 2.257 . S
O415 Co413 2.143 . S
O415 Co414 2.160 . S
C416 O417 1.278 . S
C416 O424 1.224 . S
O417 C416 1.278 . S
C418 O419 1.245 . S
C418 O430 1.232 . S
O419 C418 1.245 . S
O420 Co414 2.058 . S
O420 C446 1.269 . S
O421 Co413 2.074 . S
O421 C446 1.257 . S
H422 C447 0.930 . S
H423 C453 0.930 . S
O424 Co413 2.093 . S
O424 C416 1.224 . S
H425 C457 0.929 . S
H426 C459 0.930 . S
H427 C460 0.930 . S
H428 C458 0.929 . S
H429 C461 0.928 . S
O430 Co414 2.057 . S
O430 C418 1.232 . S
H431 C450 0.929 . S
H432 C451 0.929 . S
H433 C463 0.931 . S
H434 C455 0.929 . S
H435 C464 0.921 1_545 S
H436 C456 0.931 . S
O437 Co413 2.097 . S
O437 C465 1.214 . S
H438 C466 0.929 . S
H439 C467 0.929 . S
H440 C468 0.930 1_554 S
H441 C469 0.929 . S
H442 C471 0.930 . S
H443 C448 0.930 . S
H444 C452 0.930 . S
O445 Co414 2.037 . S
O445 C465 1.234 . S
C446 O420 1.269 . S
C446 O421 1.257 . S
C447 H422 0.930 . S
C447 C450 1.388 . S
C447 C452 1.418 . S
C448 H443 0.930 . S
C448 C451 1.404 . S
C448 C452 1.353 1_565 S
N449 Co414 2.145 . S
N449 C450 1.397 1_565 S
N449 C451 1.334 . S
C450 H431 0.929 . S
C450 C447 1.388 . S
C450 N449 1.397 1_545 S
C451 H432 0.929 . S
C451 C448 1.404 . S
C451 N449 1.334 . S
C452 H444 0.930 . S
C452 C447 1.418 . S
C452 C448 1.353 1_545 S
C453 H423 0.930 . S
C453 N454 1.330 . S
C453 C455 1.446 . S
N454 Co413 2.151 . S
N454 C453 1.330 . S
N454 C458 1.418 . S
C455 H434 0.929 . S
C455 C453 1.446 . S
C455 C456 1.332 . S
C456 H436 0.931 . S
C456 C455 1.332 . S
C456 C457 1.267 . S
C457 H425 0.929 . S
C457 C456 1.267 . S
C457 C458 1.251 . S
C458 H428 0.929 . S
C458 N454 1.418 . S
C458 C457 1.251 . S
C459 H426 0.930 . S
C459 C461 1.406 . S
C459 C464 1.261 . S
C460 H427 0.930 . S
C460 N462 1.325 . S
C460 C463 1.357 1_565 S
C461 H429 0.928 . S
C461 C459 1.406 . S
C461 N462 1.261 . S
N462 Co413 2.214 . S
N462 C460 1.325 . S
N462 C461 1.261 . S
C463 H433 0.931 . S
C463 C460 1.357 1_545 S
C463 C464 1.312 1_545 S
C464 H435 0.921 1_565 S
C464 C459 1.261 . S
C464 C463 1.312 1_565 S
C465 O437 1.214 . S
C465 O445 1.234 . S
C466 H438 0.929 . S
C466 C469 1.391 1_556 S
C466 C471 1.391 . S
C467 H439 0.929 . S
C467 C468 1.390 . S
C467 N470 1.391 . S
C468 H440 0.930 1_556 S
C468 C467 1.390 . S
C468 C469 1.392 1_556 S
C469 H441 0.929 . S
C469 C466 1.391 1_554 S
C469 C468 1.392 1_554 S
N470 Co414 2.257 . S
N470 C467 1.391 . S
N470 C471 1.388 . S
C471 H442 0.930 . S
C471 C466 1.391 . S
C471 N470 1.388 . S
Co472 O474 2.143 . S
Co472 O480 2.074 . S
Co472 O483 2.093 . S
Co472 O496 2.097 . S
Co472 N513 2.151 . S
Co472 N521 2.214 . S
Co473 O474 2.160 . S
Co473 O479 2.058 . S
Co473 O489 2.057 . S
Co473 O504 2.037 . S
Co473 N508 2.145 . S
Co473 N529 2.257 . S
O474 Co472 2.143 . S
O474 Co473 2.160 . S
C475 O476 1.278 . S
C475 O483 1.224 . S
O476 C475 1.278 . S
C477 O478 1.245 . S
C477 O489 1.232 . S
O478 C477 1.245 . S
O479 Co473 2.058 . S
O479 C505 1.269 . S
O480 Co472 2.074 . S
O480 C505 1.257 . S
H481 C506 0.930 . S
H482 C512 0.930 . S
O483 Co472 2.093 . S
O483 C475 1.224 . S
H484 C516 0.929 . S
H485 C518 0.930 . S
H486 C519 0.930 . S
H487 C517 0.929 . S
H488 C520 0.928 . S
O489 Co473 2.057 . S
O489 C477 1.232 . S
H490 C509 0.929 . S
H491 C510 0.929 . S
H492 C522 0.931 . S
H493 C514 0.929 . S
H494 C523 0.930 . S
H495 C515 0.931 . S
O496 Co472 2.097 . S
O496 C524 1.214 . S
H497 C525 0.929 . S
H498 C526 0.929 . S
H499 C527 0.930 . S
H500 C528 0.929 . S
H501 C530 0.930 . S
H502 C507 0.930 . S
H503 C511 0.930 . S
O504 Co473 2.037 . S
O504 C524 1.234 . S
C505 O479 1.269 . S
C505 O480 1.257 . S
C506 H481 0.930 . S
C506 C509 1.388 . S
C506 C511 1.418 . S
C507 H502 0.930 . S
C507 C510 1.404 . S
C507 C511 1.353 . S
N508 Co473 2.145 . S
N508 C509 1.397 . S
N508 C510 1.334 . S
C509 H490 0.929 . S
C509 C506 1.388 . S
C509 N508 1.397 . S
C510 H491 0.929 . S
C510 C507 1.404 . S
C510 N508 1.334 . S
C511 H503 0.930 . S
C511 C506 1.418 . S
C511 C507 1.353 . S
C512 H482 0.930 . S
C512 N513 1.330 . S
C512 C514 1.446 . S
N513 Co472 2.151 . S
N513 C512 1.330 . S
N513 C517 1.418 . S
C514 H493 0.929 . S
C514 C512 1.446 . S
C514 C515 1.332 . S
C515 H495 0.931 . S
C515 C514 1.332 . S
C515 C516 1.267 . S
C516 H484 0.929 . S
C516 C515 1.267 . S
C516 C517 1.251 . S
C517 H487 0.929 . S
C517 N513 1.418 . S
C517 C516 1.251 . S
C518 H485 0.930 . S
C518 C520 1.406 . S
C518 C523 1.261 . S
C519 H486 0.930 . S
C519 N521 1.325 . S
C519 C522 1.357 . S
C520 H488 0.928 . S
C520 C518 1.406 . S
C520 N521 1.261 . S
N521 Co472 2.214 . S
N521 C519 1.325 . S
N521 C520 1.261 . S
C522 H492 0.931 . S
C522 C519 1.357 . S
C522 C523 1.312 . S
C523 H494 0.930 . S
C523 C518 1.261 . S
C523 C522 1.312 . S
C524 O496 1.214 . S
C524 O504 1.234 . S
C525 H497 0.929 . S
C525 C528 1.391 . S
C525 C530 1.391 . S
C526 H498 0.929 . S
C526 C527 1.390 . S
C526 N529 1.391 . S
C527 H499 0.930 . S
C527 C526 1.390 . S
C527 C528 1.392 . S
C528 H500 0.929 . S
C528 C525 1.391 . S
C528 C527 1.392 . S
N529 Co473 2.257 . S
N529 C526 1.391 . S
N529 C530 1.388 . S
C530 H501 0.930 . S
C530 C525 1.391 . S
C530 N529 1.388 . S
Co531 O533 2.143 . S
Co531 O539 2.074 . S
Co531 O542 2.093 . S
Co531 O555 2.097 . S
Co531 N572 2.151 . S
Co531 N580 2.214 . S
Co532 O533 2.160 . S
Co532 O538 2.058 . S
Co532 O548 2.057 . S
Co532 O563 2.037 . S
Co532 N567 2.145 . S
Co532 N588 2.257 . S
O533 Co531 2.143 . S
O533 Co532 2.160 . S
C534 O535 1.278 . S
C534 O542 1.224 . S
O535 C534 1.278 . S
C536 O537 1.245 . S
C536 O548 1.232 . S
O537 C536 1.245 . S
O538 Co532 2.058 . S
O538 C564 1.269 . S
O539 Co531 2.074 . S
O539 C564 1.257 . S
H540 C565 0.930 . S
H541 C571 0.930 . S
O542 Co531 2.093 . S
O542 C534 1.224 . S
H543 C575 0.929 . S
H544 C577 0.930 . S
H545 C578 0.930 . S
H546 C576 0.929 . S
H547 C579 0.928 . S
O548 Co532 2.057 . S
O548 C536 1.232 . S
H549 C568 0.929 . S
H550 C569 0.929 . S
H551 C581 0.931 . S
H552 C573 0.929 . S
H553 C582 0.930 . S
H554 C574 0.931 . S
O555 Co531 2.097 . S
O555 C583 1.214 . S
H556 C584 0.929 . S
H557 C585 0.929 . S
H558 C586 0.930 . S
H559 C587 0.929 . S
H560 C589 0.930 . S
H561 C566 0.930 . S
H562 C570 0.930 . S
O563 Co532 2.037 . S
O563 C583 1.234 . S
C564 O538 1.269 . S
C564 O539 1.257 . S
C565 H540 0.930 . S
C565 C568 1.388 . S
C565 C570 1.418 . S
C566 H561 0.930 . S
C566 C569 1.404 . S
C566 C570 1.353 . S
N567 Co532 2.145 . S
N567 C568 1.397 . S
N567 C569 1.334 . S
C568 H549 0.929 . S
C568 C565 1.388 . S
C568 N567 1.397 . S
C569 H550 0.929 . S
C569 C566 1.404 . S
C569 N567 1.334 . S
C570 H562 0.930 . S
C570 C565 1.418 . S
C570 C566 1.353 . S
C571 H541 0.930 . S
C571 N572 1.330 . S
C571 C573 1.446 . S
N572 Co531 2.151 . S
N572 C571 1.330 . S
N572 C576 1.418 . S
C573 H552 0.929 . S
C573 C571 1.446 . S
C573 C574 1.332 . S
C574 H554 0.931 . S
C574 C573 1.332 . S
C574 C575 1.267 . S
C575 H543 0.929 . S
C575 C574 1.267 . S
C575 C576 1.251 . S
C576 H546 0.929 . S
C576 N572 1.418 . S
C576 C575 1.251 . S
C577 H544 0.930 . S
C577 C579 1.406 . S
C577 C582 1.261 . S
C578 H545 0.930 . S
C578 N580 1.325 . S
C578 C581 1.357 . S
C579 H547 0.928 . S
C579 C577 1.406 . S
C579 N580 1.261 . S
N580 Co531 2.214 . S
N580 C578 1.325 . S
N580 C579 1.261 . S
C581 H551 0.931 . S
C581 C578 1.357 . S
C581 C582 1.312 . S
C582 H553 0.930 . S
C582 C577 1.261 . S
C582 C581 1.312 . S
C583 O555 1.214 . S
C583 O563 1.234 . S
C584 H556 0.929 . S
C584 C587 1.391 . S
C584 C589 1.391 . S
C585 H557 0.929 . S
C585 C586 1.390 . S
C585 N588 1.391 . S
C586 H558 0.930 . S
C586 C585 1.390 . S
C586 C587 1.392 . S
C587 H559 0.929 . S
C587 C584 1.391 . S
C587 C586 1.392 . S
N588 Co532 2.257 . S
N588 C585 1.391 . S
N588 C589 1.388 . S
C589 H560 0.930 . S
C589 C584 1.391 . S
C589 N588 1.388 . S
Co590 O592 2.143 . S
Co590 O598 2.074 . S
Co590 O601 2.093 . S
Co590 O614 2.097 . S
Co590 N631 2.151 . S
Co590 N639 2.214 . S
Co591 O592 2.160 . S
Co591 O597 2.058 . S
Co591 O607 2.057 . S
Co591 O622 2.037 . S
Co591 N626 2.145 . S
Co591 N647 2.257 . S
O592 Co590 2.143 . S
O592 Co591 2.160 . S
C593 O594 1.278 . S
C593 O601 1.224 . S
O594 C593 1.278 . S
C595 O596 1.245 . S
C595 O607 1.232 . S
O596 C595 1.245 . S
O597 Co591 2.058 . S
O597 C623 1.269 . S
O598 Co590 2.074 . S
O598 C623 1.257 . S
H599 C624 0.930 . S
H600 C630 0.930 . S
O601 Co590 2.093 . S
O601 C593 1.224 . S
H602 C634 0.929 . S
H603 C636 0.930 . S
H604 C637 0.930 . S
H605 C635 0.929 . S
H606 C638 0.928 . S
O607 Co591 2.057 . S
O607 C595 1.232 . S
H608 C627 0.929 . S
H609 C628 0.929 . S
H610 C640 0.931 . S
H611 C632 0.929 . S
H612 C641 0.930 . S
H613 C633 0.931 . S
O614 Co590 2.097 . S
O614 C642 1.214 . S
H615 C643 0.929 . S
H616 C644 0.929 . S
H617 C645 0.930 . S
H618 C646 0.929 . S
H619 C648 0.930 . S
H620 C625 0.930 . S
H621 C629 0.930 . S
O622 Co591 2.037 . S
O622 C642 1.234 . S
C623 O597 1.269 . S
C623 O598 1.257 . S
C624 H599 0.930 . S
C624 C627 1.388 . S
C624 C629 1.418 . S
C625 H620 0.930 . S
C625 C628 1.404 . S
C625 C629 1.353 . S
N626 Co591 2.145 . S
N626 C627 1.397 . S
N626 C628 1.334 . S
C627 H608 0.929 . S
C627 C624 1.388 . S
C627 N626 1.397 . S
C628 H609 0.929 . S
C628 C625 1.404 . S
C628 N626 1.334 . S
C629 H621 0.930 . S
C629 C624 1.418 . S
C629 C625 1.353 . S
C630 H600 0.930 . S
C630 N631 1.330 . S
C630 C632 1.446 . S
N631 Co590 2.151 . S
N631 C630 1.330 . S
N631 C635 1.418 . S
C632 H611 0.929 . S
C632 C630 1.446 . S
C632 C633 1.332 . S
C633 H613 0.931 . S
C633 C632 1.332 . S
C633 C634 1.267 . S
C634 H602 0.929 . S
C634 C633 1.267 . S
C634 C635 1.251 . S
C635 H605 0.929 . S
C635 N631 1.418 . S
C635 C634 1.251 . S
C636 H603 0.930 . S
C636 C638 1.406 . S
C636 C641 1.261 . S
C637 H604 0.930 . S
C637 N639 1.325 . S
C637 C640 1.357 . S
C638 H606 0.928 . S
C638 C636 1.406 . S
C638 N639 1.261 . S
N639 Co590 2.214 . S
N639 C637 1.325 . S
N639 C638 1.261 . S
C640 H610 0.931 . S
C640 C637 1.357 . S
C640 C641 1.312 . S
C641 H612 0.930 . S
C641 C636 1.261 . S
C641 C640 1.312 . S
C642 O614 1.214 . S
C642 O622 1.234 . S
C643 H615 0.929 . S
C643 C646 1.391 . S
C643 C648 1.391 . S
C644 H616 0.929 . S
C644 C645 1.390 . S
C644 N647 1.391 . S
C645 H617 0.930 . S
C645 C644 1.390 . S
C645 C646 1.392 . S
C646 H618 0.929 . S
C646 C643 1.391 . S
C646 C645 1.392 . S
N647 Co591 2.257 . S
N647 C644 1.391 . S
N647 C648 1.388 . S
C648 H619 0.930 . S
C648 C643 1.391 . S
C648 N647 1.388 . S
Co649 O651 2.143 . S
Co649 O657 2.074 . S
Co649 O660 2.093 . S
Co649 O673 2.097 . S
Co649 N690 2.151 . S
Co649 N698 2.214 . S
Co650 O651 2.160 . S
Co650 O656 2.058 . S
Co650 O666 2.057 . S
Co650 O681 2.037 . S
Co650 N685 2.145 . S
Co650 N706 2.257 . S
O651 Co649 2.143 . S
O651 Co650 2.160 . S
C652 O653 1.278 . S
C652 O660 1.224 . S
O653 C652 1.278 . S
C654 O655 1.245 . S
C654 O666 1.232 . S
O655 C654 1.245 . S
O656 Co650 2.058 . S
O656 C682 1.269 . S
O657 Co649 2.074 . S
O657 C682 1.257 . S
H658 C683 0.930 . S
H659 C689 0.930 . S
O660 Co649 2.093 . S
O660 C652 1.224 . S
H661 C693 0.929 . S
H662 C695 0.930 . S
H663 C696 0.930 . S
H664 C694 0.929 . S
H665 C697 0.928 . S
O666 Co650 2.057 . S
O666 C654 1.232 . S
H667 C686 0.929 . S
H668 C687 0.929 . S
H669 C699 0.931 . S
H670 C691 0.929 . S
H671 C700 0.930 . S
H672 C692 0.931 . S
O673 Co649 2.097 . S
O673 C701 1.214 . S
H674 C702 0.929 . S
H675 C703 0.929 . S
H676 C704 0.930 . S
H677 C705 0.929 . S
H678 C707 0.930 . S
H679 C684 0.930 . S
H680 C688 0.930 . S
O681 Co650 2.037 . S
O681 C701 1.234 . S
C682 O656 1.269 . S
C682 O657 1.257 . S
C683 H658 0.930 . S
C683 C686 1.388 . S
C683 C688 1.418 . S
C684 H679 0.930 . S
C684 C687 1.404 . S
C684 C688 1.353 . S
N685 Co650 2.145 . S
N685 C686 1.397 . S
N685 C687 1.334 . S
C686 H667 0.929 . S
C686 C683 1.388 . S
C686 N685 1.397 . S
C687 H668 0.929 . S
C687 C684 1.404 . S
C687 N685 1.334 . S
C688 H680 0.930 . S
C688 C683 1.418 . S
C688 C684 1.353 . S
C689 H659 0.930 . S
C689 N690 1.330 . S
C689 C691 1.446 . S
N690 Co649 2.151 . S
N690 C689 1.330 . S
N690 C694 1.418 . S
C691 H670 0.929 . S
C691 C689 1.446 . S
C691 C692 1.332 . S
C692 H672 0.931 . S
C692 C691 1.332 . S
C692 C693 1.267 . S
C693 H661 0.929 . S
C693 C692 1.267 . S
C693 C694 1.251 . S
C694 H664 0.929 . S
C694 N690 1.418 . S
C694 C693 1.251 . S
C695 H662 0.930 . S
C695 C697 1.406 . S
C695 C700 1.261 . S
C696 H663 0.930 . S
C696 N698 1.325 . S
C696 C699 1.357 . S
C697 H665 0.928 . S
C697 C695 1.406 . S
C697 N698 1.261 . S
N698 Co649 2.214 . S
N698 C696 1.325 . S
N698 C697 1.261 . S
C699 H669 0.931 . S
C699 C696 1.357 . S
C699 C700 1.312 . S
C700 H671 0.930 . S
C700 C695 1.261 . S
C700 C699 1.312 . S
C701 O673 1.214 . S
C701 O681 1.234 . S
C702 H674 0.929 . S
C702 C705 1.391 . S
C702 C707 1.391 . S
C703 H675 0.929 . S
C703 C704 1.390 . S
C703 N706 1.391 . S
C704 H676 0.930 . S
C704 C703 1.390 . S
C704 C705 1.392 . S
C705 H677 0.929 . S
C705 C702 1.391 . S
C705 C704 1.392 . S
N706 Co650 2.257 . S
N706 C703 1.391 . S
N706 C707 1.388 . S
C707 H678 0.930 . S
C707 C702 1.391 . S
C707 N706 1.388 . S
Co708 O710 2.143 . S
Co708 O716 2.074 . S
Co708 O719 2.093 . S
Co708 O732 2.097 . S
Co708 N749 2.151 . S
Co708 N757 2.214 . S
Co709 O710 2.160 . S
Co709 O715 2.058 . S
Co709 O725 2.057 . S
Co709 O740 2.037 . S
Co709 N744 2.145 . S
Co709 N765 2.257 . S
O710 Co708 2.143 . S
O710 Co709 2.160 . S
C711 O712 1.278 . S
C711 O719 1.224 . S
O712 C711 1.278 . S
C713 O714 1.245 . S
C713 O725 1.232 . S
O714 C713 1.245 . S
O715 Co709 2.058 . S
O715 C741 1.269 . S
O716 Co708 2.074 . S
O716 C741 1.257 . S
H717 C742 0.930 . S
H718 C748 0.930 . S
O719 Co708 2.093 . S
O719 C711 1.224 . S
H720 C752 0.929 . S
H721 C754 0.930 . S
H722 C755 0.930 . S
H723 C753 0.929 . S
H724 C756 0.928 . S
O725 Co709 2.057 . S
O725 C713 1.232 . S
H726 C745 0.929 . S
H727 C746 0.929 . S
H728 C758 0.931 . S
H729 C750 0.929 . S
H730 C759 0.930 . S
H731 C751 0.931 . S
O732 Co708 2.097 . S
O732 C760 1.214 . S
H733 C761 0.929 . S
H734 C762 0.929 . S
H735 C763 0.930 . S
H736 C764 0.929 . S
H737 C766 0.930 . S
H738 C743 0.930 . S
H739 C747 0.930 . S
O740 Co709 2.037 . S
O740 C760 1.234 . S
C741 O715 1.269 . S
C741 O716 1.257 . S
C742 H717 0.930 . S
C742 C745 1.388 . S
C742 C747 1.418 . S
C743 H738 0.930 . S
C743 C746 1.404 . S
C743 C747 1.353 . S
N744 Co709 2.145 . S
N744 C745 1.397 . S
N744 C746 1.334 . S
C745 H726 0.929 . S
C745 C742 1.388 . S
C745 N744 1.397 . S
C746 H727 0.929 . S
C746 C743 1.404 . S
C746 N744 1.334 . S
C747 H739 0.930 . S
C747 C742 1.418 . S
C747 C743 1.353 . S
C748 H718 0.930 . S
C748 N749 1.330 . S
C748 C750 1.446 . S
N749 Co708 2.151 . S
N749 C748 1.330 . S
N749 C753 1.418 . S
C750 H729 0.929 . S
C750 C748 1.446 . S
C750 C751 1.332 . S
C751 H731 0.931 . S
C751 C750 1.332 . S
C751 C752 1.267 . S
C752 H720 0.929 . S
C752 C751 1.267 . S
C752 C753 1.251 . S
C753 H723 0.929 . S
C753 N749 1.418 . S
C753 C752 1.251 . S
C754 H721 0.930 . S
C754 C756 1.406 . S
C754 C759 1.261 . S
C755 H722 0.930 . S
C755 N757 1.325 . S
C755 C758 1.357 . S
C756 H724 0.928 . S
C756 C754 1.406 . S
C756 N757 1.261 . S
N757 Co708 2.214 . S
N757 C755 1.325 . S
N757 C756 1.261 . S
C758 H728 0.931 . S
C758 C755 1.357 . S
C758 C759 1.312 . S
C759 H730 0.930 . S
C759 C754 1.261 . S
C759 C758 1.312 . S
C760 O732 1.214 . S
C760 O740 1.234 . S
C761 H733 0.929 . S
C761 C764 1.391 . S
C761 C766 1.391 . S
C762 H734 0.929 . S
C762 C763 1.390 . S
C762 N765 1.391 . S
C763 H735 0.930 . S
C763 C762 1.390 . S
C763 C764 1.392 . S
C764 H736 0.929 . S
C764 C761 1.391 . S
C764 C763 1.392 . S
N765 Co709 2.257 . S
N765 C762 1.391 . S
N765 C766 1.388 . S
C766 H737 0.930 . S
C766 C761 1.391 . S
C766 N765 1.388 . S
Co767 O769 2.143 . S
Co767 O775 2.074 . S
Co767 O778 2.093 . S
Co767 O791 2.097 . S
Co767 N808 2.151 . S
Co767 N816 2.214 . S
Co768 O769 2.160 . S
Co768 O774 2.058 . S
Co768 O784 2.057 . S
Co768 O799 2.037 . S
Co768 N803 2.145 . S
Co768 N824 2.257 . S
O769 Co767 2.143 . S
O769 Co768 2.160 . S
C770 O771 1.278 . S
C770 O778 1.224 . S
O771 C770 1.278 . S
C772 O773 1.245 . S
C772 O784 1.232 . S
O773 C772 1.245 . S
O774 Co768 2.058 . S
O774 C800 1.269 . S
O775 Co767 2.074 . S
O775 C800 1.257 . S
H776 C801 0.930 . S
H777 C807 0.930 . S
O778 Co767 2.093 . S
O778 C770 1.224 . S
H779 C811 0.929 . S
H780 C813 0.930 . S
H781 C814 0.930 . S
H782 C812 0.929 . S
H783 C815 0.928 . S
O784 Co768 2.057 . S
O784 C772 1.232 . S
H785 C804 0.929 . S
H786 C805 0.929 . S
H787 C817 0.931 . S
H788 C809 0.929 . S
H789 C818 0.930 . S
H790 C810 0.931 . S
O791 Co767 2.097 . S
O791 C819 1.214 . S
H792 C820 0.929 . S
H793 C821 0.929 . S
H794 C822 0.930 . S
H795 C823 0.929 . S
H796 C825 0.930 . S
H797 C802 0.930 . S
H798 C806 0.930 . S
O799 Co768 2.037 . S
O799 C819 1.234 . S
C800 O774 1.269 . S
C800 O775 1.257 . S
C801 H776 0.930 . S
C801 C804 1.388 . S
C801 C806 1.418 . S
C802 H797 0.930 . S
C802 C805 1.404 . S
C802 C806 1.353 . S
N803 Co768 2.145 . S
N803 C804 1.397 . S
N803 C805 1.334 . S
C804 H785 0.929 . S
C804 C801 1.388 . S
C804 N803 1.397 . S
C805 H786 0.929 . S
C805 C802 1.404 . S
C805 N803 1.334 . S
C806 H798 0.930 . S
C806 C801 1.418 . S
C806 C802 1.353 . S
C807 H777 0.930 . S
C807 N808 1.330 . S
C807 C809 1.446 . S
N808 Co767 2.151 . S
N808 C807 1.330 . S
N808 C812 1.418 . S
C809 H788 0.929 . S
C809 C807 1.446 . S
C809 C810 1.332 . S
C810 H790 0.931 . S
C810 C809 1.332 . S
C810 C811 1.267 . S
C811 H779 0.929 . S
C811 C810 1.267 . S
C811 C812 1.251 . S
C812 H782 0.929 . S
C812 N808 1.418 . S
C812 C811 1.251 . S
C813 H780 0.930 . S
C813 C815 1.406 . S
C813 C818 1.261 . S
C814 H781 0.930 . S
C814 N816 1.325 . S
C814 C817 1.357 . S
C815 H783 0.928 . S
C815 C813 1.406 . S
C815 N816 1.261 . S
N816 Co767 2.214 . S
N816 C814 1.325 . S
N816 C815 1.261 . S
C817 H787 0.931 . S
C817 C814 1.357 . S
C817 C818 1.312 . S
C818 H789 0.930 . S
C818 C813 1.261 . S
C818 C817 1.312 . S
C819 O791 1.214 . S
C819 O799 1.234 . S
C820 H792 0.929 . S
C820 C823 1.391 . S
C820 C825 1.391 . S
C821 H793 0.929 . S
C821 C822 1.390 . S
C821 N824 1.391 . S
C822 H794 0.930 . S
C822 C821 1.390 . S
C822 C823 1.392 . S
C823 H795 0.929 . S
C823 C820 1.391 . S
C823 C822 1.392 . S
N824 Co768 2.257 . S
N824 C821 1.391 . S
N824 C825 1.388 . S
C825 H796 0.930 . S
C825 C820 1.391 . S
C825 N824 1.388 . S
Co826 O828 2.143 . S
Co826 O834 2.074 . S
Co826 O837 2.093 . S
Co826 O850 2.097 . S
Co826 N867 2.151 . S
Co826 N875 2.214 . S
Co827 O828 2.160 . S
Co827 O833 2.058 . S
Co827 O843 2.057 . S
Co827 O858 2.037 . S
Co827 N862 2.145 . S
Co827 N883 2.257 . S
O828 Co826 2.143 . S
O828 Co827 2.160 . S
C829 O830 1.278 . S
C829 O837 1.224 . S
O830 C829 1.278 . S
C831 O832 1.245 . S
C831 O843 1.232 . S
O832 C831 1.245 . S
O833 Co827 2.058 . S
O833 C859 1.269 . S
O834 Co826 2.074 . S
O834 C859 1.257 . S
H835 C860 0.930 . S
H836 C866 0.930 . S
O837 Co826 2.093 . S
O837 C829 1.224 . S
H838 C870 0.929 . S
H839 C872 0.930 . S
H840 C873 0.930 . S
H841 C871 0.929 . S
H842 C874 0.928 . S
O843 Co827 2.057 . S
O843 C831 1.232 . S
H844 C863 0.929 . S
H845 C864 0.929 . S
H846 C876 0.931 . S
H847 C868 0.929 . S
H848 C877 0.930 . S
H849 C869 0.931 . S
O850 Co826 2.097 . S
O850 C878 1.214 . S
H851 C879 0.929 . S
H852 C880 0.929 . S
H853 C881 0.930 . S
H854 C882 0.929 . S
H855 C884 0.930 . S
H856 C861 0.930 . S
H857 C865 0.930 . S
O858 Co827 2.037 . S
O858 C878 1.234 . S
C859 O833 1.269 . S
C859 O834 1.257 . S
C860 H835 0.930 . S
C860 C863 1.388 . S
C860 C865 1.418 . S
C861 H856 0.930 . S
C861 C864 1.404 . S
C861 C865 1.353 . S
N862 Co827 2.145 . S
N862 C863 1.397 . S
N862 C864 1.334 . S
C863 H844 0.929 . S
C863 C860 1.388 . S
C863 N862 1.397 . S
C864 H845 0.929 . S
C864 C861 1.404 . S
C864 N862 1.334 . S
C865 H857 0.930 . S
C865 C860 1.418 . S
C865 C861 1.353 . S
C866 H836 0.930 . S
C866 N867 1.330 . S
C866 C868 1.446 . S
N867 Co826 2.151 . S
N867 C866 1.330 . S
N867 C871 1.418 . S
C868 H847 0.929 . S
C868 C866 1.446 . S
C868 C869 1.332 . S
C869 H849 0.931 . S
C869 C868 1.332 . S
C869 C870 1.267 . S
C870 H838 0.929 . S
C870 C869 1.267 . S
C870 C871 1.251 . S
C871 H841 0.929 . S
C871 N867 1.418 . S
C871 C870 1.251 . S
C872 H839 0.930 . S
C872 C874 1.406 . S
C872 C877 1.261 . S
C873 H840 0.930 . S
C873 N875 1.325 . S
C873 C876 1.357 . S
C874 H842 0.928 . S
C874 C872 1.406 . S
C874 N875 1.261 . S
N875 Co826 2.214 . S
N875 C873 1.325 . S
N875 C874 1.261 . S
C876 H846 0.931 . S
C876 C873 1.357 . S
C876 C877 1.312 . S
C877 H848 0.930 . S
C877 C872 1.261 . S
C877 C876 1.312 . S
C878 O850 1.214 . S
C878 O858 1.234 . S
C879 H851 0.929 . S
C879 C882 1.391 . S
C879 C884 1.391 . S
C880 H852 0.929 . S
C880 C881 1.390 . S
C880 N883 1.391 . S
C881 H853 0.930 . S
C881 C880 1.390 . S
C881 C882 1.392 . S
C882 H854 0.929 . S
C882 C879 1.391 . S
C882 C881 1.392 . S
N883 Co827 2.257 . S
N883 C880 1.391 . S
N883 C884 1.388 . S
C884 H855 0.930 . S
C884 C879 1.391 . S
C884 N883 1.388 . S
Co885 O887 2.143 . S
Co885 O893 2.074 . S
Co885 O896 2.093 . S
Co885 O909 2.097 . S
Co885 N926 2.151 . S
Co885 N934 2.214 . S
Co886 O887 2.160 . S
Co886 O892 2.058 . S
Co886 O902 2.057 . S
Co886 O917 2.037 . S
Co886 N921 2.145 . S
Co886 N942 2.257 . S
O887 Co885 2.143 . S
O887 Co886 2.160 . S
C888 O889 1.278 . S
C888 O896 1.224 . S
O889 C888 1.278 . S
C890 O891 1.245 . S
C890 O902 1.232 . S
O891 C890 1.245 . S
O892 Co886 2.058 . S
O892 C918 1.269 . S
O893 Co885 2.074 . S
O893 C918 1.257 . S
H894 C919 0.930 . S
H895 C925 0.930 . S
O896 Co885 2.093 . S
O896 C888 1.224 . S
H897 C929 0.929 . S
H898 C931 0.930 . S
H899 C932 0.930 . S
H900 C930 0.929 . S
H901 C933 0.928 . S
O902 Co886 2.057 . S
O902 C890 1.232 . S
H903 C922 0.929 . S
H904 C923 0.929 . S
H905 C935 0.931 . S
H906 C927 0.929 . S
H907 C936 0.930 . S
H908 C928 0.931 . S
O909 Co885 2.097 . S
O909 C937 1.214 . S
H910 C938 0.929 . S
H911 C939 0.929 . S
H912 C940 0.930 . S
H913 C941 0.929 . S
H914 C943 0.930 . S
H915 C920 0.930 . S
H916 C924 0.930 . S
O917 Co886 2.037 . S
O917 C937 1.234 . S
C918 O892 1.269 . S
C918 O893 1.257 . S
C919 H894 0.930 . S
C919 C922 1.388 . S
C919 C924 1.418 . S
C920 H915 0.930 . S
C920 C923 1.404 . S
C920 C924 1.353 . S
N921 Co886 2.145 . S
N921 C922 1.397 . S
N921 C923 1.334 . S
C922 H903 0.929 . S
C922 C919 1.388 . S
C922 N921 1.397 . S
C923 H904 0.929 . S
C923 C920 1.404 . S
C923 N921 1.334 . S
C924 H916 0.930 . S
C924 C919 1.418 . S
C924 C920 1.353 . S
C925 H895 0.930 . S
C925 N926 1.330 . S
C925 C927 1.446 . S
N926 Co885 2.151 . S
N926 C925 1.330 . S
N926 C930 1.418 . S
C927 H906 0.929 . S
C927 C925 1.446 . S
C927 C928 1.332 . S
C928 H908 0.931 . S
C928 C927 1.332 . S
C928 C929 1.267 . S
C929 H897 0.929 . S
C929 C928 1.267 . S
C929 C930 1.251 . S
C930 H900 0.929 . S
C930 N926 1.418 . S
C930 C929 1.251 . S
C931 H898 0.930 . S
C931 C933 1.406 . S
C931 C936 1.261 . S
C932 H899 0.930 . S
C932 N934 1.325 . S
C932 C935 1.357 . S
C933 H901 0.928 . S
C933 C931 1.406 . S
C933 N934 1.261 . S
N934 Co885 2.214 . S
N934 C932 1.325 . S
N934 C933 1.261 . S
C935 H905 0.931 . S
C935 C932 1.357 . S
C935 C936 1.312 . S
C936 H907 0.930 . S
C936 C931 1.261 . S
C936 C935 1.312 . S
C937 O909 1.214 . S
C937 O917 1.234 . S
C938 H910 0.929 . S
C938 C941 1.391 . S
C938 C943 1.391 . S
C939 H911 0.929 . S
C939 C940 1.390 . S
C939 N942 1.391 . S
C940 H912 0.930 . S
C940 C939 1.390 . S
C940 C941 1.392 . S
C941 H913 0.929 . S
C941 C938 1.391 . S
C941 C940 1.392 . S
N942 Co886 2.257 . S
N942 C939 1.391 . S
N942 C943 1.388 . S
C943 H914 0.930 . S
C943 C938 1.391 . S
C943 N942 1.388 . S
C944 C945 1.391 . S
C944 C946 1.394 . S
C944 H960 0.931 . S
C945 C944 1.391 . S
C945 C949 1.376 . S
C946 C944 1.394 . S
C946 C947 1.369 . S
C946 C950 1.531 . S
C947 C946 1.369 . S
C947 C948 1.410 . S
C947 C955 1.503 . S
C948 C947 1.410 . S
C948 C949 1.392 . S
C948 C951 1.511 . S
C949 C945 1.376 . S
C949 C948 1.392 . S
C949 H961 0.929 . S
C950 C946 1.531 . S
C950 H962 0.960 . S
C950 H963 0.962 . S
C950 H964 0.960 . S
C951 C948 1.511 . S
C951 H965 0.961 . S
C951 H966 0.961 . S
C951 H967 0.961 . S
C952 C953 1.370 . S
C952 C954 1.363 . S
C952 H968 0.931 . S
C953 C952 1.370 . S
C953 C957 1.408 . S
C954 C952 1.363 . S
C954 C955 1.370 . S
C954 C958 1.524 . S
C955 C947 1.503 . S
C955 C954 1.370 . S
C955 C956 1.403 . S
C956 C955 1.403 . S
C956 C957 1.404 . S
C956 C959 1.539 . S
C957 C953 1.408 . S
C957 C956 1.404 . S
C957 H969 0.930 . S
C958 C954 1.524 . S
C958 H970 0.956 . S
C958 H971 0.961 . S
C958 H972 0.961 . S
C959 C956 1.539 . S
C959 H973 0.958 . S
C959 H974 0.961 . S
C959 H975 0.960 . S
H960 C944 0.931 . S
H961 C949 0.929 . S
H962 C950 0.960 . S
H963 C950 0.962 . S
H964 C950 0.960 . S
H965 C951 0.961 . S
H966 C951 0.961 . S
H967 C951 0.961 . S
H968 C952 0.931 . S
H969 C957 0.930 . S
H970 C958 0.956 . S
H971 C958 0.961 . S
H972 C958 0.961 . S
H973 C959 0.958 . S
H974 C959 0.961 . S
H975 C959 0.960 . S
C976 C977 1.391 . S
C976 C978 1.394 . S
C976 H992 0.931 . S
C977 C976 1.391 . S
C977 C981 1.376 . S
C978 C976 1.394 . S
C978 C979 1.369 . S
C978 C982 1.531 . S
C979 C978 1.369 . S
C979 C980 1.410 . S
C979 C987 1.503 . S
C980 C979 1.410 . S
C980 C981 1.392 . S
C980 C983 1.511 . S
C981 C977 1.376 . S
C981 C980 1.392 . S
C981 H993 0.929 . S
C982 C978 1.531 . S
C982 H994 0.960 . S
C982 H995 0.962 . S
C982 H996 0.960 . S
C983 C980 1.511 . S
C983 H997 0.961 . S
C983 H998 0.961 . S
C983 H999 0.961 . S
C984 C985 1.370 . S
C984 C986 1.363 . S
C984 H1000 0.931 . S
C985 C984 1.370 . S
C985 C989 1.408 . S
C986 C984 1.363 . S
C986 C987 1.370 . S
C986 C990 1.524 . S
C987 C979 1.503 . S
C987 C986 1.370 . S
C987 C988 1.403 . S
C988 C987 1.403 . S
C988 C989 1.404 . S
C988 C991 1.539 . S
C989 C985 1.408 . S
C989 C988 1.404 . S
C989 H1001 0.930 . S
C990 C986 1.524 . S
C990 H1002 0.956 . S
C990 H1003 0.961 . S
C990 H1004 0.961 . S
C991 C988 1.539 . S
C991 H1005 0.958 . S
C991 H1006 0.961 . S
C991 H1007 0.960 . S
H992 C976 0.931 . S
H993 C981 0.929 . S
H994 C982 0.960 . S
H995 C982 0.962 . S
H996 C982 0.960 . S
H997 C983 0.961 . S
H998 C983 0.961 . S
H999 C983 0.961 . S
H1000 C984 0.931 . S
H1001 C989 0.930 . S
H1002 C990 0.956 . S
H1003 C990 0.961 . S
H1004 C990 0.961 . S
H1005 C991 0.958 . S
H1006 C991 0.961 . S
H1007 C991 0.960 . S
C1008 C1009 1.391 . S
C1008 C1010 1.394 . S
C1008 H1024 0.931 . S
C1009 C1008 1.391 . S
C1009 C1013 1.376 . S
C1010 C1008 1.394 . S
C1010 C1011 1.369 . S
C1010 C1014 1.531 . S
C1011 C1010 1.369 . S
C1011 C1012 1.410 . S
C1011 C1019 1.503 . S
C1012 C1011 1.410 . S
C1012 C1013 1.392 . S
C1012 C1015 1.511 . S
C1013 C1009 1.376 . S
C1013 C1012 1.392 . S
C1013 H1025 0.929 . S
C1014 C1010 1.531 . S
C1014 H1026 0.960 . S
C1014 H1027 0.962 . S
C1014 H1028 0.960 . S
C1015 C1012 1.511 . S
C1015 H1029 0.961 . S
C1015 H1030 0.961 . S
C1015 H1031 0.961 . S
C1016 C1017 1.370 . S
C1016 C1018 1.363 . S
C1016 H1032 0.931 . S
C1017 C1016 1.370 . S
C1017 C1021 1.408 . S
C1018 C1016 1.363 . S
C1018 C1019 1.370 . S
C1018 C1022 1.524 . S
C1019 C1011 1.503 . S
C1019 C1018 1.370 . S
C1019 C1020 1.403 . S
C1020 C1019 1.403 . S
C1020 C1021 1.404 . S
C1020 C1023 1.539 . S
C1021 C1017 1.408 . S
C1021 C1020 1.404 . S
C1021 H1033 0.930 . S
C1022 C1018 1.524 . S
C1022 H1034 0.956 . S
C1022 H1035 0.961 . S
C1022 H1036 0.961 . S
C1023 C1020 1.539 . S
C1023 H1037 0.958 . S
C1023 H1038 0.961 . S
C1023 H1039 0.960 . S
H1024 C1008 0.931 . S
H1025 C1013 0.929 . S
H1026 C1014 0.960 . S
H1027 C1014 0.962 . S
H1028 C1014 0.960 . S
H1029 C1015 0.961 . S
H1030 C1015 0.961 . S
H1031 C1015 0.961 . S
H1032 C1016 0.931 . S
H1033 C1021 0.930 . S
H1034 C1022 0.956 . S
H1035 C1022 0.961 . S
H1036 C1022 0.961 . S
H1037 C1023 0.958 . S
H1038 C1023 0.961 . S
H1039 C1023 0.960 . S
C1040 C1041 1.391 . S
C1040 C1042 1.394 . S
C1040 H1056 0.931 . S
C1041 C1040 1.391 . S
C1041 C1045 1.376 . S
C1042 C1040 1.394 . S
C1042 C1043 1.369 . S
C1042 C1046 1.531 . S
C1043 C1042 1.369 . S
C1043 C1044 1.410 . S
C1043 C1051 1.503 . S
C1044 C1043 1.410 . S
C1044 C1045 1.392 . S
C1044 C1047 1.511 . S
C1045 C1041 1.376 . S
C1045 C1044 1.392 . S
C1045 H1057 0.929 . S
C1046 C1042 1.531 . S
C1046 H1058 0.960 . S
C1046 H1059 0.962 . S
C1046 H1060 0.960 . S
C1047 C1044 1.511 . S
C1047 H1061 0.961 . S
C1047 H1062 0.961 . S
C1047 H1063 0.961 . S
C1048 C1049 1.370 . S
C1048 C1050 1.363 . S
C1048 H1064 0.931 . S
C1049 C1048 1.370 . S
C1049 C1053 1.408 . S
C1050 C1048 1.363 . S
C1050 C1051 1.370 . S
C1050 C1054 1.524 . S
C1051 C1043 1.503 . S
C1051 C1050 1.370 . S
C1051 C1052 1.403 . S
C1052 C1051 1.403 . S
C1052 C1053 1.404 . S
C1052 C1055 1.539 . S
C1053 C1049 1.408 . S
C1053 C1052 1.404 . S
C1053 H1065 0.930 . S
C1054 C1050 1.524 . S
C1054 H1066 0.956 . S
C1054 H1067 0.961 . S
C1054 H1068 0.961 . S
C1055 C1052 1.539 . S
C1055 H1069 0.958 . S
C1055 H1070 0.961 . S
C1055 H1071 0.960 . S
H1056 C1040 0.931 . S
H1057 C1045 0.929 . S
H1058 C1046 0.960 . S
H1059 C1046 0.962 . S
H1060 C1046 0.960 . S
H1061 C1047 0.961 . S
H1062 C1047 0.961 . S
H1063 C1047 0.961 . S
H1064 C1048 0.931 . S
H1065 C1053 0.930 . S
H1066 C1054 0.956 . S
H1067 C1054 0.961 . S
H1068 C1054 0.961 . S
H1069 C1055 0.958 . S
H1070 C1055 0.961 . S
H1071 C1055 0.960 . S
C1072 C1073 1.391 . S
C1072 C1074 1.394 . S
C1072 H1088 0.931 . S
C1073 C1072 1.391 . S
C1073 C1077 1.376 . S
C1074 C1072 1.394 . S
C1074 C1075 1.369 . S
C1074 C1078 1.531 . S
C1075 C1074 1.369 . S
C1075 C1076 1.410 . S
C1075 C1083 1.503 . S
C1076 C1075 1.410 . S
C1076 C1077 1.392 . S
C1076 C1079 1.511 . S
C1077 C1073 1.376 . S
C1077 C1076 1.392 . S
C1077 H1089 0.929 . S
C1078 C1074 1.531 . S
C1078 H1090 0.960 . S
C1078 H1091 0.962 . S
C1078 H1092 0.960 . S
C1079 C1076 1.511 . S
C1079 H1093 0.961 . S
C1079 H1094 0.961 . S
C1079 H1095 0.961 . S
C1080 C1081 1.370 . S
C1080 C1082 1.363 . S
C1080 H1096 0.931 . S
C1081 C1080 1.370 . S
C1081 C1085 1.408 . S
C1082 C1080 1.363 . S
C1082 C1083 1.370 . S
C1082 C1086 1.524 . S
C1083 C1075 1.503 . S
C1083 C1082 1.370 . S
C1083 C1084 1.403 . S
C1084 C1083 1.403 . S
C1084 C1085 1.404 . S
C1084 C1087 1.539 . S
C1085 C1081 1.408 . S
C1085 C1084 1.404 . S
C1085 H1097 0.930 . S
C1086 C1082 1.524 . S
C1086 H1098 0.956 . S
C1086 H1099 0.961 . S
C1086 H1100 0.961 . S
C1087 C1084 1.539 . S
C1087 H1101 0.958 . S
C1087 H1102 0.961 . S
C1087 H1103 0.960 . S
H1088 C1072 0.931 . S
H1089 C1077 0.929 . S
H1090 C1078 0.960 . S
H1091 C1078 0.962 . S
H1092 C1078 0.960 . S
H1093 C1079 0.961 . S
H1094 C1079 0.961 . S
H1095 C1079 0.961 . S
H1096 C1080 0.931 . S
H1097 C1085 0.930 . S
H1098 C1086 0.956 . S
H1099 C1086 0.961 . S
H1100 C1086 0.961 . S
H1101 C1087 0.958 . S
H1102 C1087 0.961 . S
H1103 C1087 0.960 . S
C1104 C1105 1.391 . S
C1104 C1106 1.394 . S
C1104 H1120 0.931 . S
C1105 C1104 1.391 . S
C1105 C1109 1.376 . S
C1106 C1104 1.394 . S
C1106 C1107 1.369 . S
C1106 C1110 1.531 . S
C1107 C1106 1.369 . S
C1107 C1108 1.410 . S
C1107 C1115 1.503 . S
C1108 C1107 1.410 . S
C1108 C1109 1.392 . S
C1108 C1111 1.511 . S
C1109 C1105 1.376 . S
C1109 C1108 1.392 . S
C1109 H1121 0.929 . S
C1110 C1106 1.531 . S
C1110 H1122 0.960 . S
C1110 H1123 0.962 . S
C1110 H1124 0.960 . S
C1111 C1108 1.511 . S
C1111 H1125 0.961 . S
C1111 H1126 0.961 . S
C1111 H1127 0.961 . S
C1112 C1113 1.370 . S
C1112 C1114 1.363 . S
C1112 H1128 0.931 . S
C1113 C1112 1.370 . S
C1113 C1117 1.408 . S
C1114 C1112 1.363 . S
C1114 C1115 1.370 . S
C1114 C1118 1.524 . S
C1115 C1107 1.503 . S
C1115 C1114 1.370 . S
C1115 C1116 1.403 . S
C1116 C1115 1.403 . S
C1116 C1117 1.404 . S
C1116 C1119 1.539 . S
C1117 C1113 1.408 . S
C1117 C1116 1.404 . S
C1117 H1129 0.930 . S
C1118 C1114 1.524 . S
C1118 H1130 0.956 . S
C1118 H1131 0.961 . S
C1118 H1132 0.961 . S
C1119 C1116 1.539 . S
C1119 H1133 0.958 . S
C1119 H1134 0.961 . S
C1119 H1135 0.960 . S
H1120 C1104 0.931 . S
H1121 C1109 0.929 . S
H1122 C1110 0.960 . S
H1123 C1110 0.962 . S
H1124 C1110 0.960 . S
H1125 C1111 0.961 . S
H1126 C1111 0.961 . S
H1127 C1111 0.961 . S
H1128 C1112 0.931 . S
H1129 C1117 0.930 . S
H1130 C1118 0.956 . S
H1131 C1118 0.961 . S
H1132 C1118 0.961 . S
H1133 C1119 0.958 . S
H1134 C1119 0.961 . S
H1135 C1119 0.960 . S
C1136 C1137 1.391 . S
C1136 C1138 1.394 . S
C1136 H1152 0.931 . S
C1137 C1136 1.391 . S
C1137 C1141 1.376 . S
C1138 C1136 1.394 . S
C1138 C1139 1.369 . S
C1138 C1142 1.531 . S
C1139 C1138 1.369 . S
C1139 C1140 1.410 . S
C1139 C1147 1.503 . S
C1140 C1139 1.410 . S
C1140 C1141 1.392 . S
C1140 C1143 1.511 . S
C1141 C1137 1.376 . S
C1141 C1140 1.392 . S
C1141 H1153 0.929 . S
C1142 C1138 1.531 . S
C1142 H1154 0.960 . S
C1142 H1155 0.962 . S
C1142 H1156 0.960 . S
C1143 C1140 1.511 . S
C1143 H1157 0.961 . S
C1143 H1158 0.961 . S
C1143 H1159 0.961 . S
C1144 C1145 1.370 . S
C1144 C1146 1.363 . S
C1144 H1160 0.931 . S
C1145 C1144 1.370 . S
C1145 C1149 1.408 . S
C1146 C1144 1.363 . S
C1146 C1147 1.370 . S
C1146 C1150 1.524 . S
C1147 C1139 1.503 . S
C1147 C1146 1.370 . S
C1147 C1148 1.403 . S
C1148 C1147 1.403 . S
C1148 C1149 1.404 . S
C1148 C1151 1.539 . S
C1149 C1145 1.408 . S
C1149 C1148 1.404 . S
C1149 H1161 0.930 . S
C1150 C1146 1.524 . S
C1150 H1162 0.956 . S
C1150 H1163 0.961 . S
C1150 H1164 0.961 . S
C1151 C1148 1.539 . S
C1151 H1165 0.958 . S
C1151 H1166 0.961 . S
C1151 H1167 0.960 . S
H1152 C1136 0.931 . S
H1153 C1141 0.929 . S
H1154 C1142 0.960 . S
H1155 C1142 0.962 . S
H1156 C1142 0.960 . S
H1157 C1143 0.961 . S
H1158 C1143 0.961 . S
H1159 C1143 0.961 . S
H1160 C1144 0.931 . S
H1161 C1149 0.930 . S
H1162 C1150 0.956 . S
H1163 C1150 0.961 . S
H1164 C1150 0.961 . S
H1165 C1151 0.958 . S
H1166 C1151 0.961 . S
H1167 C1151 0.960 . S
C1168 C1169 1.391 . S
C1168 C1170 1.394 . S
C1168 H1184 0.931 . S
C1169 C1168 1.391 . S
C1169 C1173 1.376 . S
C1170 C1168 1.394 . S
C1170 C1171 1.369 . S
C1170 C1174 1.531 . S
C1171 C1170 1.369 . S
C1171 C1172 1.410 . S
C1171 C1179 1.503 . S
C1172 C1171 1.410 . S
C1172 C1173 1.392 . S
C1172 C1175 1.511 . S
C1173 C1169 1.376 . S
C1173 C1172 1.392 . S
C1173 H1185 0.929 . S
C1174 C1170 1.531 . S
C1174 H1186 0.960 . S
C1174 H1187 0.962 . S
C1174 H1188 0.960 . S
C1175 C1172 1.511 . S
C1175 H1189 0.961 . S
C1175 H1190 0.961 . S
C1175 H1191 0.961 . S
C1176 C1177 1.370 . S
C1176 C1178 1.363 . S
C1176 H1192 0.931 . S
C1177 C1176 1.370 . S
C1177 C1181 1.408 . S
C1178 C1176 1.363 . S
C1178 C1179 1.370 . S
C1178 C1182 1.524 . S
C1179 C1171 1.503 . S
C1179 C1178 1.370 . S
C1179 C1180 1.403 . S
C1180 C1179 1.403 . S
C1180 C1181 1.404 . S
C1180 C1183 1.539 . S
C1181 C1177 1.408 . S
C1181 C1180 1.404 . S
C1181 H1193 0.930 . S
C1182 C1178 1.524 . S
C1182 H1194 0.956 . S
C1182 H1195 0.961 . S
C1182 H1196 0.961 . S
C1183 C1180 1.539 . S
C1183 H1197 0.958 . S
C1183 H1198 0.961 . S
C1183 H1199 0.960 . S
H1184 C1168 0.931 . S
H1185 C1173 0.929 . S
H1186 C1174 0.960 . S
H1187 C1174 0.962 . S
H1188 C1174 0.960 . S
H1189 C1175 0.961 . S
H1190 C1175 0.961 . S
H1191 C1175 0.961 . S
H1192 C1176 0.931 . S
H1193 C1181 0.930 . S
H1194 C1182 0.956 . S
H1195 C1182 0.961 . S
H1196 C1182 0.961 . S
H1197 C1183 0.958 . S
H1198 C1183 0.961 . S
H1199 C1183 0.960 . S
C1200 C1201 1.391 . S
C1200 C1202 1.394 . S
C1200 H1216 0.931 . S
C1201 C1200 1.391 . S
C1201 C1205 1.376 . S
C1202 C1200 1.394 . S
C1202 C1203 1.369 . S
C1202 C1206 1.531 . S
C1203 C1202 1.369 . S
C1203 C1204 1.410 . S
C1203 C1211 1.503 . S
C1204 C1203 1.410 . S
C1204 C1205 1.392 . S
C1204 C1207 1.511 . S
C1205 C1201 1.376 . S
C1205 C1204 1.392 . S
C1205 H1217 0.929 . S
C1206 C1202 1.531 . S
C1206 H1218 0.960 . S
C1206 H1219 0.962 . S
C1206 H1220 0.960 . S
C1207 C1204 1.511 . S
C1207 H1221 0.961 . S
C1207 H1222 0.961 . S
C1207 H1223 0.961 . S
C1208 C1209 1.370 . S
C1208 C1210 1.363 . S
C1208 H1224 0.931 . S
C1209 C1208 1.370 . S
C1209 C1213 1.408 . S
C1210 C1208 1.363 . S
C1210 C1211 1.370 . S
C1210 C1214 1.524 . S
C1211 C1203 1.503 . S
C1211 C1210 1.370 . S
C1211 C1212 1.403 . S
C1212 C1211 1.403 . S
C1212 C1213 1.404 . S
C1212 C1215 1.539 . S
C1213 C1209 1.408 . S
C1213 C1212 1.404 . S
C1213 H1225 0.930 . S
C1214 C1210 1.524 . S
C1214 H1226 0.956 . S
C1214 H1227 0.961 . S
C1214 H1228 0.961 . S
C1215 C1212 1.539 . S
C1215 H1229 0.958 . S
C1215 H1230 0.961 . S
C1215 H1231 0.960 . S
H1216 C1200 0.931 . S
H1217 C1205 0.929 . S
H1218 C1206 0.960 . S
H1219 C1206 0.962 . S
H1220 C1206 0.960 . S
H1221 C1207 0.961 . S
H1222 C1207 0.961 . S
H1223 C1207 0.961 . S
H1224 C1208 0.931 . S
H1225 C1213 0.930 . S
H1226 C1214 0.956 . S
H1227 C1214 0.961 . S
H1228 C1214 0.961 . S
H1229 C1215 0.958 . S
H1230 C1215 0.961 . S
H1231 C1215 0.960 . S
C1232 C1233 1.391 . S
C1232 C1234 1.394 . S
C1232 H1248 0.931 . S
C1233 C1232 1.391 . S
C1233 C1237 1.376 . S
C1234 C1232 1.394 . S
C1234 C1235 1.369 . S
C1234 C1238 1.531 . S
C1235 C1234 1.369 . S
C1235 C1236 1.410 . S
C1235 C1243 1.503 . S
C1236 C1235 1.410 . S
C1236 C1237 1.392 . S
C1236 C1239 1.511 . S
C1237 C1233 1.376 . S
C1237 C1236 1.392 . S
C1237 H1249 0.929 . S
C1238 C1234 1.531 . S
C1238 H1250 0.960 . S
C1238 H1251 0.962 . S
C1238 H1252 0.960 . S
C1239 C1236 1.511 . S
C1239 H1253 0.961 . S
C1239 H1254 0.961 . S
C1239 H1255 0.961 . S
C1240 C1241 1.370 . S
C1240 C1242 1.363 . S
C1240 H1256 0.931 . S
C1241 C1240 1.370 . S
C1241 C1245 1.408 . S
C1242 C1240 1.363 . S
C1242 C1243 1.370 . S
C1242 C1246 1.524 . S
C1243 C1235 1.503 . S
C1243 C1242 1.370 . S
C1243 C1244 1.403 . S
C1244 C1243 1.403 . S
C1244 C1245 1.404 . S
C1244 C1247 1.539 . S
C1245 C1241 1.408 . S
C1245 C1244 1.404 . S
C1245 H1257 0.930 . S
C1246 C1242 1.524 . S
C1246 H1258 0.956 . S
C1246 H1259 0.961 . S
C1246 H1260 0.961 . S
C1247 C1244 1.539 . S
C1247 H1261 0.958 . S
C1247 H1262 0.961 . S
C1247 H1263 0.960 . S
H1248 C1232 0.931 . S
H1249 C1237 0.929 . S
H1250 C1238 0.960 . S
H1251 C1238 0.962 . S
H1252 C1238 0.960 . S
H1253 C1239 0.961 . S
H1254 C1239 0.961 . S
H1255 C1239 0.961 . S
H1256 C1240 0.931 . S
H1257 C1245 0.930 . S
H1258 C1246 0.956 . S
H1259 C1246 0.961 . S
H1260 C1246 0.961 . S
H1261 C1247 0.958 . S
H1262 C1247 0.961 . S
H1263 C1247 0.960 . S
C1264 C1265 1.391 . S
C1264 C1266 1.394 . S
C1264 H1280 0.931 . S
C1265 C1264 1.391 . S
C1265 C1269 1.376 . S
C1266 C1264 1.394 . S
C1266 C1267 1.369 . S
C1266 C1270 1.531 . S
C1267 C1266 1.369 . S
C1267 C1268 1.410 . S
C1267 C1275 1.503 . S
C1268 C1267 1.410 . S
C1268 C1269 1.392 . S
C1268 C1271 1.511 . S
C1269 C1265 1.376 . S
C1269 C1268 1.392 . S
C1269 H1281 0.929 . S
C1270 C1266 1.531 . S
C1270 H1282 0.960 . S
C1270 H1283 0.962 . S
C1270 H1284 0.960 . S
C1271 C1268 1.511 . S
C1271 H1285 0.961 . S
C1271 H1286 0.961 . S
C1271 H1287 0.961 . S
C1272 C1273 1.370 . S
C1272 C1274 1.363 . S
C1272 H1288 0.931 . S
C1273 C1272 1.370 . S
C1273 C1277 1.408 . S
C1274 C1272 1.363 . S
C1274 C1275 1.370 . S
C1274 C1278 1.524 . S
C1275 C1267 1.503 . S
C1275 C1274 1.370 . S
C1275 C1276 1.403 . S
C1276 C1275 1.403 . S
C1276 C1277 1.404 . S
C1276 C1279 1.539 . S
C1277 C1273 1.408 . S
C1277 C1276 1.404 . S
C1277 H1289 0.930 . S
C1278 C1274 1.524 . S
C1278 H1290 0.956 . S
C1278 H1291 0.961 . S
C1278 H1292 0.961 . S
C1279 C1276 1.539 . S
C1279 H1293 0.958 . S
C1279 H1294 0.961 . S
C1279 H1295 0.960 . S
H1280 C1264 0.931 . S
H1281 C1269 0.929 . S
H1282 C1270 0.960 . S
H1283 C1270 0.962 . S
H1284 C1270 0.960 . S
H1285 C1271 0.961 . S
H1286 C1271 0.961 . S
H1287 C1271 0.961 . S
H1288 C1272 0.931 . S
H1289 C1277 0.930 . S
H1290 C1278 0.956 . S
H1291 C1278 0.961 . S
H1292 C1278 0.961 . S
H1293 C1279 0.958 . S
H1294 C1279 0.961 . S
H1295 C1279 0.960 . S
C1296 C1297 1.391 . S
C1296 C1298 1.394 . S
C1296 H1312 0.931 . S
C1297 C1296 1.391 . S
C1297 C1301 1.376 . S
C1298 C1296 1.394 . S
C1298 C1299 1.369 . S
C1298 C1302 1.531 . S
C1299 C1298 1.369 . S
C1299 C1300 1.410 . S
C1299 C1307 1.503 . S
C1300 C1299 1.410 . S
C1300 C1301 1.392 . S
C1300 C1303 1.511 . S
C1301 C1297 1.376 . S
C1301 C1300 1.392 . S
C1301 H1313 0.929 . S
C1302 C1298 1.531 . S
C1302 H1314 0.960 . S
C1302 H1315 0.962 . S
C1302 H1316 0.960 . S
C1303 C1300 1.511 . S
C1303 H1317 0.961 . S
C1303 H1318 0.961 . S
C1303 H1319 0.961 . S
C1304 C1305 1.370 . S
C1304 C1306 1.363 . S
C1304 H1320 0.931 . S
C1305 C1304 1.370 . S
C1305 C1309 1.408 . S
C1306 C1304 1.363 . S
C1306 C1307 1.370 . S
C1306 C1310 1.524 . S
C1307 C1299 1.503 . S
C1307 C1306 1.370 . S
C1307 C1308 1.403 . S
C1308 C1307 1.403 . S
C1308 C1309 1.404 . S
C1308 C1311 1.539 . S
C1309 C1305 1.408 . S
C1309 C1308 1.404 . S
C1309 H1321 0.930 . S
C1310 C1306 1.524 . S
C1310 H1322 0.956 . S
C1310 H1323 0.961 . S
C1310 H1324 0.961 . S
C1311 C1308 1.539 . S
C1311 H1325 0.958 . S
C1311 H1326 0.961 . S
C1311 H1327 0.960 . S
H1312 C1296 0.931 . S
H1313 C1301 0.929 . S
H1314 C1302 0.960 . S
H1315 C1302 0.962 . S
H1316 C1302 0.960 . S
H1317 C1303 0.961 . S
H1318 C1303 0.961 . S
H1319 C1303 0.961 . S
H1320 C1304 0.931 . S
H1321 C1309 0.930 . S
H1322 C1310 0.956 . S
H1323 C1310 0.961 . S
H1324 C1310 0.961 . S
H1325 C1311 0.958 . S
H1326 C1311 0.961 . S
H1327 C1311 0.960 . S
C1328 C1329 1.391 . S
C1328 C1330 1.394 . S
C1328 H1344 0.931 . S
C1329 C1328 1.391 . S
C1329 C1333 1.376 . S
C1330 C1328 1.394 . S
C1330 C1331 1.369 . S
C1330 C1334 1.531 . S
C1331 C1330 1.369 . S
C1331 C1332 1.410 . S
C1331 C1339 1.503 . S
C1332 C1331 1.410 . S
C1332 C1333 1.392 . S
C1332 C1335 1.511 . S
C1333 C1329 1.376 . S
C1333 C1332 1.392 . S
C1333 H1345 0.929 . S
C1334 C1330 1.531 . S
C1334 H1346 0.960 . S
C1334 H1347 0.962 . S
C1334 H1348 0.960 . S
C1335 C1332 1.511 . S
C1335 H1349 0.961 . S
C1335 H1350 0.961 . S
C1335 H1351 0.961 . S
C1336 C1337 1.370 . S
C1336 C1338 1.363 . S
C1336 H1352 0.931 . S
C1337 C1336 1.370 . S
C1337 C1341 1.408 . S
C1338 C1336 1.363 . S
C1338 C1339 1.370 . S
C1338 C1342 1.524 . S
C1339 C1331 1.503 . S
C1339 C1338 1.370 . S
C1339 C1340 1.403 . S
C1340 C1339 1.403 . S
C1340 C1341 1.404 . S
C1340 C1343 1.539 . S
C1341 C1337 1.408 . S
C1341 C1340 1.404 . S
C1341 H1353 0.930 . S
C1342 C1338 1.524 . S
C1342 H1354 0.956 . S
C1342 H1355 0.961 . S
C1342 H1356 0.961 . S
C1343 C1340 1.539 . S
C1343 H1357 0.958 . S
C1343 H1358 0.961 . S
C1343 H1359 0.960 . S
H1344 C1328 0.931 . S
H1345 C1333 0.929 . S
H1346 C1334 0.960 . S
H1347 C1334 0.962 . S
H1348 C1334 0.960 . S
H1349 C1335 0.961 . S
H1350 C1335 0.961 . S
H1351 C1335 0.961 . S
H1352 C1336 0.931 . S
H1353 C1341 0.930 . S
H1354 C1342 0.956 . S
H1355 C1342 0.961 . S
H1356 C1342 0.961 . S
H1357 C1343 0.958 . S
H1358 C1343 0.961 . S
H1359 C1343 0.960 . S
C1360 C1361 1.391 . S
C1360 C1362 1.394 . S
C1360 H1376 0.931 . S
C1361 C1360 1.391 . S
C1361 C1365 1.376 . S
C1362 C1360 1.394 . S
C1362 C1363 1.369 . S
C1362 C1366 1.531 . S
C1363 C1362 1.369 . S
C1363 C1364 1.410 . S
C1363 C1371 1.503 . S
C1364 C1363 1.410 . S
C1364 C1365 1.392 . S
C1364 C1367 1.511 . S
C1365 C1361 1.376 . S
C1365 C1364 1.392 . S
C1365 H1377 0.929 . S
C1366 C1362 1.531 . S
C1366 H1378 0.960 . S
C1366 H1379 0.962 . S
C1366 H1380 0.960 . S
C1367 C1364 1.511 . S
C1367 H1381 0.961 . S
C1367 H1382 0.961 . S
C1367 H1383 0.961 . S
C1368 C1369 1.370 . S
C1368 C1370 1.363 . S
C1368 H1384 0.931 . S
C1369 C1368 1.370 . S
C1369 C1373 1.408 . S
C1370 C1368 1.363 . S
C1370 C1371 1.370 . S
C1370 C1374 1.524 . S
C1371 C1363 1.503 . S
C1371 C1370 1.370 . S
C1371 C1372 1.403 . S
C1372 C1371 1.403 . S
C1372 C1373 1.404 . S
C1372 C1375 1.539 . S
C1373 C1369 1.408 . S
C1373 C1372 1.404 . S
C1373 H1385 0.930 . S
C1374 C1370 1.524 . S
C1374 H1386 0.956 . S
C1374 H1387 0.961 . S
C1374 H1388 0.961 . S
C1375 C1372 1.539 . S
C1375 H1389 0.958 . S
C1375 H1390 0.961 . S
C1375 H1391 0.960 . S
H1376 C1360 0.931 . S
H1377 C1365 0.929 . S
H1378 C1366 0.960 . S
H1379 C1366 0.962 . S
H1380 C1366 0.960 . S
H1381 C1367 0.961 . S
H1382 C1367 0.961 . S
H1383 C1367 0.961 . S
H1384 C1368 0.931 . S
H1385 C1373 0.930 . S
H1386 C1374 0.956 . S
H1387 C1374 0.961 . S
H1388 C1374 0.961 . S
H1389 C1375 0.958 . S
H1390 C1375 0.961 . S
H1391 C1375 0.960 . S
C1392 C1393 1.391 . S
C1392 C1394 1.394 . S
C1392 H1408 0.931 . S
C1393 C1392 1.391 . S
C1393 C1397 1.376 . S
C1394 C1392 1.394 . S
C1394 C1395 1.369 . S
C1394 C1398 1.531 . S
C1395 C1394 1.369 . S
C1395 C1396 1.410 . S
C1395 C1403 1.503 . S
C1396 C1395 1.410 . S
C1396 C1397 1.392 . S
C1396 C1399 1.511 . S
C1397 C1393 1.376 . S
C1397 C1396 1.392 . S
C1397 H1409 0.929 . S
C1398 C1394 1.531 . S
C1398 H1410 0.960 . S
C1398 H1411 0.962 . S
C1398 H1412 0.960 . S
C1399 C1396 1.511 . S
C1399 H1413 0.961 . S
C1399 H1414 0.961 . S
C1399 H1415 0.961 . S
C1400 C1401 1.370 . S
C1400 C1402 1.363 . S
C1400 H1416 0.931 . S
C1401 C1400 1.370 . S
C1401 C1405 1.408 . S
C1402 C1400 1.363 . S
C1402 C1403 1.370 . S
C1402 C1406 1.524 . S
C1403 C1395 1.503 . S
C1403 C1402 1.370 . S
C1403 C1404 1.403 . S
C1404 C1403 1.403 . S
C1404 C1405 1.404 . S
C1404 C1407 1.539 . S
C1405 C1401 1.408 . S
C1405 C1404 1.404 . S
C1405 H1417 0.930 . S
C1406 C1402 1.524 . S
C1406 H1418 0.956 . S
C1406 H1419 0.961 . S
C1406 H1420 0.961 . S
C1407 C1404 1.539 . S
C1407 H1421 0.958 . S
C1407 H1422 0.961 . S
C1407 H1423 0.960 . S
H1408 C1392 0.931 . S
H1409 C1397 0.929 . S
H1410 C1398 0.960 . S
H1411 C1398 0.962 . S
H1412 C1398 0.960 . S
H1413 C1399 0.961 . S
H1414 C1399 0.961 . S
H1415 C1399 0.961 . S
H1416 C1400 0.931 . S
H1417 C1405 0.930 . S
H1418 C1406 0.956 . S
H1419 C1406 0.961 . S
H1420 C1406 0.961 . S
H1421 C1407 0.958 . S
H1422 C1407 0.961 . S
H1423 C1407 0.960 . S
C1424 C1425 1.391 . S
C1424 C1426 1.394 . S
C1424 H1440 0.931 . S
C1425 C1424 1.391 . S
C1425 C1429 1.376 . S
C1426 C1424 1.394 . S
C1426 C1427 1.369 . S
C1426 C1430 1.531 . S
C1427 C1426 1.369 . S
C1427 C1428 1.410 . S
C1427 C1435 1.503 . S
C1428 C1427 1.410 . S
C1428 C1429 1.392 . S
C1428 C1431 1.511 . S
C1429 C1425 1.376 . S
C1429 C1428 1.392 . S
C1429 H1441 0.929 . S
C1430 C1426 1.531 . S
C1430 H1442 0.960 . S
C1430 H1443 0.962 . S
C1430 H1444 0.960 . S
C1431 C1428 1.511 . S
C1431 H1445 0.961 . S
C1431 H1446 0.961 . S
C1431 H1447 0.961 . S
C1432 C1433 1.370 . S
C1432 C1434 1.363 . S
C1432 H1448 0.931 . S
C1433 C1432 1.370 . S
C1433 C1437 1.408 . S
C1434 C1432 1.363 . S
C1434 C1435 1.370 . S
C1434 C1438 1.524 . S
C1435 C1427 1.503 . S
C1435 C1434 1.370 . S
C1435 C1436 1.403 . S
C1436 C1435 1.403 . S
C1436 C1437 1.404 . S
C1436 C1439 1.539 . S
C1437 C1433 1.408 . S
C1437 C1436 1.404 . S
C1437 H1449 0.930 . S
C1438 C1434 1.524 . S
C1438 H1450 0.956 . S
C1438 H1451 0.961 . S
C1438 H1452 0.961 . S
C1439 C1436 1.539 . S
C1439 H1453 0.958 . S
C1439 H1454 0.961 . S
C1439 H1455 0.960 . S
H1440 C1424 0.931 . S
H1441 C1429 0.929 . S
H1442 C1430 0.960 . S
H1443 C1430 0.962 . S
H1444 C1430 0.960 . S
H1445 C1431 0.961 . S
H1446 C1431 0.961 . S
H1447 C1431 0.961 . S
H1448 C1432 0.931 . S
H1449 C1437 0.930 . S
H1450 C1438 0.956 . S
H1451 C1438 0.961 . S
H1452 C1438 0.961 . S
H1453 C1439 0.958 . S
H1454 C1439 0.961 . S
H1455 C1439 0.960 . S
C1456 C1457 1.391 . S
C1456 C1458 1.394 . S
C1456 H1472 0.931 . S
C1457 C1456 1.391 . S
C1457 C1461 1.376 . S
C1458 C1456 1.394 . S
C1458 C1459 1.369 . S
C1458 C1462 1.531 . S
C1459 C1458 1.369 . S
C1459 C1460 1.410 . S
C1459 C1467 1.503 . S
C1460 C1459 1.410 . S
C1460 C1461 1.392 . S
C1460 C1463 1.511 . S
C1461 C1457 1.376 . S
C1461 C1460 1.392 . S
C1461 H1473 0.929 . S
C1462 C1458 1.531 . S
C1462 H1474 0.960 . S
C1462 H1475 0.962 . S
C1462 H1476 0.960 . S
C1463 C1460 1.511 . S
C1463 H1477 0.961 . S
C1463 H1478 0.961 . S
C1463 H1479 0.961 . S
C1464 C1465 1.370 . S
C1464 C1466 1.363 . S
C1464 H1480 0.931 . S
C1465 C1464 1.370 . S
C1465 C1469 1.408 . S
C1466 C1464 1.363 . S
C1466 C1467 1.370 . S
C1466 C1470 1.524 . S
C1467 C1459 1.503 . S
C1467 C1466 1.370 . S
C1467 C1468 1.403 . S
C1468 C1467 1.403 . S
C1468 C1469 1.404 . S
C1468 C1471 1.539 . S
C1469 C1465 1.408 . S
C1469 C1468 1.404 . S
C1469 H1481 0.930 . S
C1470 C1466 1.524 . S
C1470 H1482 0.956 . S
C1470 H1483 0.961 . S
C1470 H1484 0.961 . S
C1471 C1468 1.539 . S
C1471 H1485 0.958 . S
C1471 H1486 0.961 . S
C1471 H1487 0.960 . S
H1472 C1456 0.931 . S
H1473 C1461 0.929 . S
H1474 C1462 0.960 . S
H1475 C1462 0.962 . S
H1476 C1462 0.960 . S
H1477 C1463 0.961 . S
H1478 C1463 0.961 . S
H1479 C1463 0.961 . S
H1480 C1464 0.931 . S
H1481 C1469 0.930 . S
H1482 C1470 0.956 . S
H1483 C1470 0.961 . S
H1484 C1470 0.961 . S
H1485 C1471 0.958 . S
H1486 C1471 0.961 . S
H1487 C1471 0.960 . S
C1488 C1489 1.391 . S
C1488 C1490 1.394 . S
C1488 H1504 0.931 . S
C1489 C1488 1.391 . S
C1489 C1493 1.376 . S
C1490 C1488 1.394 . S
C1490 C1491 1.369 . S
C1490 C1494 1.531 . S
C1491 C1490 1.369 . S
C1491 C1492 1.410 . S
C1491 C1499 1.503 . S
C1492 C1491 1.410 . S
C1492 C1493 1.392 . S
C1492 C1495 1.511 . S
C1493 C1489 1.376 . S
C1493 C1492 1.392 . S
C1493 H1505 0.929 . S
C1494 C1490 1.531 . S
C1494 H1506 0.960 . S
C1494 H1507 0.962 . S
C1494 H1508 0.960 . S
C1495 C1492 1.511 . S
C1495 H1509 0.961 . S
C1495 H1510 0.961 . S
C1495 H1511 0.961 . S
C1496 C1497 1.370 . S
C1496 C1498 1.363 . S
C1496 H1512 0.931 . S
C1497 C1496 1.370 . S
C1497 C1501 1.408 . S
C1498 C1496 1.363 . S
C1498 C1499 1.370 . S
C1498 C1502 1.524 . S
C1499 C1491 1.503 . S
C1499 C1498 1.370 . S
C1499 C1500 1.403 . S
C1500 C1499 1.403 . S
C1500 C1501 1.404 . S
C1500 C1503 1.539 . S
C1501 C1497 1.408 . S
C1501 C1500 1.404 . S
C1501 H1513 0.930 . S
C1502 C1498 1.524 . S
C1502 H1514 0.956 . S
C1502 H1515 0.961 . S
C1502 H1516 0.961 . S
C1503 C1500 1.539 . S
C1503 H1517 0.958 . S
C1503 H1518 0.961 . S
C1503 H1519 0.960 . S
H1504 C1488 0.931 . S
H1505 C1493 0.929 . S
H1506 C1494 0.960 . S
H1507 C1494 0.962 . S
H1508 C1494 0.960 . S
H1509 C1495 0.961 . S
H1510 C1495 0.961 . S
H1511 C1495 0.961 . S
H1512 C1496 0.931 . S
H1513 C1501 0.930 . S
H1514 C1502 0.956 . S
H1515 C1502 0.961 . S
H1516 C1502 0.961 . S
H1517 C1503 0.958 . S
H1518 C1503 0.961 . S
H1519 C1503 0.960 . S
C1520 C1521 1.391 . S
C1520 C1522 1.394 . S
C1520 H1536 0.931 . S
C1521 C1520 1.391 . S
C1521 C1525 1.376 . S
C1522 C1520 1.394 . S
C1522 C1523 1.369 . S
C1522 C1526 1.531 . S
C1523 C1522 1.369 . S
C1523 C1524 1.410 . S
C1523 C1531 1.503 . S
C1524 C1523 1.410 . S
C1524 C1525 1.392 . S
C1524 C1527 1.511 . S
C1525 C1521 1.376 . S
C1525 C1524 1.392 . S
C1525 H1537 0.929 . S
C1526 C1522 1.531 . S
C1526 H1538 0.960 . S
C1526 H1539 0.962 . S
C1526 H1540 0.960 . S
C1527 C1524 1.511 . S
C1527 H1541 0.961 . S
C1527 H1542 0.961 . S
C1527 H1543 0.961 . S
C1528 C1529 1.370 . S
C1528 C1530 1.363 . S
C1528 H1544 0.931 . S
C1529 C1528 1.370 . S
C1529 C1533 1.408 . S
C1530 C1528 1.363 . S
C1530 C1531 1.370 . S
C1530 C1534 1.524 . S
C1531 C1523 1.503 . S
C1531 C1530 1.370 . S
C1531 C1532 1.403 . S
C1532 C1531 1.403 . S
C1532 C1533 1.404 . S
C1532 C1535 1.539 . S
C1533 C1529 1.408 . S
C1533 C1532 1.404 . S
C1533 H1545 0.930 . S
C1534 C1530 1.524 . S
C1534 H1546 0.956 . S
C1534 H1547 0.961 . S
C1534 H1548 0.961 . S
C1535 C1532 1.539 . S
C1535 H1549 0.958 . S
C1535 H1550 0.961 . S
C1535 H1551 0.960 . S
H1536 C1520 0.931 . S
H1537 C1525 0.929 . S
H1538 C1526 0.960 . S
H1539 C1526 0.962 . S
H1540 C1526 0.960 . S
H1541 C1527 0.961 . S
H1542 C1527 0.961 . S
H1543 C1527 0.961 . S
H1544 C1528 0.931 . S
H1545 C1533 0.930 . S
H1546 C1534 0.956 . S
H1547 C1534 0.961 . S
H1548 C1534 0.961 . S
H1549 C1535 0.958 . S
H1550 C1535 0.961 . S
H1551 C1535 0.960 . S
C1552 C1553 1.391 . S
C1552 C1554 1.394 . S
C1552 H1568 0.931 . S
C1553 C1552 1.391 . S
C1553 C1557 1.376 . S
C1554 C1552 1.394 . S
C1554 C1555 1.369 . S
C1554 C1558 1.531 . S
C1555 C1554 1.369 . S
C1555 C1556 1.410 . S
C1555 C1563 1.503 . S
C1556 C1555 1.410 . S
C1556 C1557 1.392 . S
C1556 C1559 1.511 . S
C1557 C1553 1.376 . S
C1557 C1556 1.392 . S
C1557 H1569 0.929 . S
C1558 C1554 1.531 . S
C1558 H1570 0.960 . S
C1558 H1571 0.962 . S
C1558 H1572 0.960 . S
C1559 C1556 1.511 . S
C1559 H1573 0.961 . S
C1559 H1574 0.961 . S
C1559 H1575 0.961 . S
C1560 C1561 1.370 . S
C1560 C1562 1.363 . S
C1560 H1576 0.931 . S
C1561 C1560 1.370 . S
C1561 C1565 1.408 . S
C1562 C1560 1.363 . S
C1562 C1563 1.370 . S
C1562 C1566 1.524 . S
C1563 C1555 1.503 . S
C1563 C1562 1.370 . S
C1563 C1564 1.403 . S
C1564 C1563 1.403 . S
C1564 C1565 1.404 . S
C1564 C1567 1.539 . S
C1565 C1561 1.408 . S
C1565 C1564 1.404 . S
C1565 H1577 0.930 . S
C1566 C1562 1.524 . S
C1566 H1578 0.956 . S
C1566 H1579 0.961 . S
C1566 H1580 0.961 . S
C1567 C1564 1.539 . S
C1567 H1581 0.958 . S
C1567 H1582 0.961 . S
C1567 H1583 0.960 . S
H1568 C1552 0.931 . S
H1569 C1557 0.929 . S
H1570 C1558 0.960 . S
H1571 C1558 0.962 . S
H1572 C1558 0.960 . S
H1573 C1559 0.961 . S
H1574 C1559 0.961 . S
H1575 C1559 0.961 . S
H1576 C1560 0.931 . S
H1577 C1565 0.930 . S
H1578 C1566 0.956 . S
H1579 C1566 0.961 . S
H1580 C1566 0.961 . S
H1581 C1567 0.958 . S
H1582 C1567 0.961 . S
H1583 C1567 0.960 . S
C1584 C1585 1.391 . S
C1584 C1586 1.394 . S
C1584 H1600 0.931 . S
C1585 C1584 1.391 . S
C1585 C1589 1.376 . S
C1586 C1584 1.394 . S
C1586 C1587 1.369 . S
C1586 C1590 1.531 . S
C1587 C1586 1.369 . S
C1587 C1588 1.410 . S
C1587 C1595 1.503 . S
C1588 C1587 1.410 . S
C1588 C1589 1.392 . S
C1588 C1591 1.511 . S
C1589 C1585 1.376 . S
C1589 C1588 1.392 . S
C1589 H1601 0.929 . S
C1590 C1586 1.531 . S
C1590 H1602 0.960 . S
C1590 H1603 0.962 . S
C1590 H1604 0.960 . S
C1591 C1588 1.511 . S
C1591 H1605 0.961 . S
C1591 H1606 0.961 . S
C1591 H1607 0.961 . S
C1592 C1593 1.370 . S
C1592 C1594 1.363 . S
C1592 H1608 0.931 . S
C1593 C1592 1.370 . S
C1593 C1597 1.408 . S
C1594 C1592 1.363 . S
C1594 C1595 1.370 . S
C1594 C1598 1.524 . S
C1595 C1587 1.503 . S
C1595 C1594 1.370 . S
C1595 C1596 1.403 . S
C1596 C1595 1.403 . S
C1596 C1597 1.404 . S
C1596 C1599 1.539 . S
C1597 C1593 1.408 . S
C1597 C1596 1.404 . S
C1597 H1609 0.930 . S
C1598 C1594 1.524 . S
C1598 H1610 0.956 . S
C1598 H1611 0.961 . S
C1598 H1612 0.961 . S
C1599 C1596 1.539 . S
C1599 H1613 0.958 . S
C1599 H1614 0.961 . S
C1599 H1615 0.960 . S
H1600 C1584 0.931 . S
H1601 C1589 0.929 . S
H1602 C1590 0.960 . S
H1603 C1590 0.962 . S
H1604 C1590 0.960 . S
H1605 C1591 0.961 . S
H1606 C1591 0.961 . S
H1607 C1591 0.961 . S
H1608 C1592 0.931 . S
H1609 C1597 0.930 . S
H1610 C1598 0.956 . S
H1611 C1598 0.961 . S
H1612 C1598 0.961 . S
H1613 C1599 0.958 . S
H1614 C1599 0.961 . S
H1615 C1599 0.960 . S
C1616 C1617 1.391 . S
C1616 C1618 1.394 . S
C1616 H1632 0.931 . S
C1617 C1616 1.391 . S
C1617 C1621 1.376 . S
C1618 C1616 1.394 . S
C1618 C1619 1.369 . S
C1618 C1622 1.531 . S
C1619 C1618 1.369 . S
C1619 C1620 1.410 . S
C1619 C1627 1.503 . S
C1620 C1619 1.410 . S
C1620 C1621 1.392 . S
C1620 C1623 1.511 . S
C1621 C1617 1.376 . S
C1621 C1620 1.392 . S
C1621 H1633 0.929 . S
C1622 C1618 1.531 . S
C1622 H1634 0.960 . S
C1622 H1635 0.962 . S
C1622 H1636 0.960 . S
C1623 C1620 1.511 . S
C1623 H1637 0.961 . S
C1623 H1638 0.961 . S
C1623 H1639 0.961 . S
C1624 C1625 1.370 . S
C1624 C1626 1.363 . S
C1624 H1640 0.931 . S
C1625 C1624 1.370 . S
C1625 C1629 1.408 . S
C1626 C1624 1.363 . S
C1626 C1627 1.370 . S
C1626 C1630 1.524 . S
C1627 C1619 1.503 . S
C1627 C1626 1.370 . S
C1627 C1628 1.403 . S
C1628 C1627 1.403 . S
C1628 C1629 1.404 . S
C1628 C1631 1.539 . S
C1629 C1625 1.408 . S
C1629 C1628 1.404 . S
C1629 H1641 0.930 . S
C1630 C1626 1.524 . S
C1630 H1642 0.956 . S
C1630 H1643 0.961 . S
C1630 H1644 0.961 . S
C1631 C1628 1.539 . S
C1631 H1645 0.958 . S
C1631 H1646 0.961 . S
C1631 H1647 0.960 . S
H1632 C1616 0.931 . S
H1633 C1621 0.929 . S
H1634 C1622 0.960 . S
H1635 C1622 0.962 . S
H1636 C1622 0.960 . S
H1637 C1623 0.961 . S
H1638 C1623 0.961 . S
H1639 C1623 0.961 . S
H1640 C1624 0.931 . S
H1641 C1629 0.930 . S
H1642 C1630 0.956 . S
H1643 C1630 0.961 . S
H1644 C1630 0.961 . S
H1645 C1631 0.958 . S
H1646 C1631 0.961 . S
H1647 C1631 0.960 . S
C1648 C1649 1.391 . S
C1648 C1650 1.394 . S
C1648 H1664 0.931 . S
C1649 C1648 1.391 . S
C1649 C1653 1.376 . S
C1650 C1648 1.394 . S
C1650 C1651 1.369 . S
C1650 C1654 1.531 . S
C1651 C1650 1.369 . S
C1651 C1652 1.410 . S
C1651 C1659 1.503 . S
C1652 C1651 1.410 . S
C1652 C1653 1.392 . S
C1652 C1655 1.511 . S
C1653 C1649 1.376 . S
C1653 C1652 1.392 . S
C1653 H1665 0.929 . S
C1654 C1650 1.531 . S
C1654 H1666 0.960 . S
C1654 H1667 0.962 . S
C1654 H1668 0.960 . S
C1655 C1652 1.511 . S
C1655 H1669 0.961 . S
C1655 H1670 0.961 . S
C1655 H1671 0.961 . S
C1656 C1657 1.370 . S
C1656 C1658 1.363 . S
C1656 H1672 0.931 . S
C1657 C1656 1.370 . S
C1657 C1661 1.408 . S
C1658 C1656 1.363 . S
C1658 C1659 1.370 . S
C1658 C1662 1.524 . S
C1659 C1651 1.503 . S
C1659 C1658 1.370 . S
C1659 C1660 1.403 . S
C1660 C1659 1.403 . S
C1660 C1661 1.404 . S
C1660 C1663 1.539 . S
C1661 C1657 1.408 . S
C1661 C1660 1.404 . S
C1661 H1673 0.930 . S
C1662 C1658 1.524 . S
C1662 H1674 0.956 . S
C1662 H1675 0.961 . S
C1662 H1676 0.961 . S
C1663 C1660 1.539 . S
C1663 H1677 0.958 . S
C1663 H1678 0.961 . S
C1663 H1679 0.960 . S
H1664 C1648 0.931 . S
H1665 C1653 0.929 . S
H1666 C1654 0.960 . S
H1667 C1654 0.962 . S
H1668 C1654 0.960 . S
H1669 C1655 0.961 . S
H1670 C1655 0.961 . S
H1671 C1655 0.961 . S
H1672 C1656 0.931 . S
H1673 C1661 0.930 . S
H1674 C1662 0.956 . S
H1675 C1662 0.961 . S
H1676 C1662 0.961 . S
H1677 C1663 0.958 . S
H1678 C1663 0.961 . S
H1679 C1663 0.960 . S
C1680 C1681 1.391 . S
C1680 C1682 1.394 . S
C1680 H1696 0.931 . S
C1681 C1680 1.391 . S
C1681 C1685 1.376 . S
C1682 C1680 1.394 . S
C1682 C1683 1.369 . S
C1682 C1686 1.531 . S
C1683 C1682 1.369 . S
C1683 C1684 1.410 . S
C1683 C1691 1.503 . S
C1684 C1683 1.410 . S
C1684 C1685 1.392 . S
C1684 C1687 1.511 . S
C1685 C1681 1.376 . S
C1685 C1684 1.392 . S
C1685 H1697 0.929 . S
C1686 C1682 1.531 . S
C1686 H1698 0.960 . S
C1686 H1699 0.962 . S
C1686 H1700 0.960 . S
C1687 C1684 1.511 . S
C1687 H1701 0.961 . S
C1687 H1702 0.961 . S
C1687 H1703 0.961 . S
C1688 C1689 1.370 . S
C1688 C1690 1.363 . S
C1688 H1704 0.931 . S
C1689 C1688 1.370 . S
C1689 C1693 1.408 . S
C1690 C1688 1.363 . S
C1690 C1691 1.370 . S
C1690 C1694 1.524 . S
C1691 C1683 1.503 . S
C1691 C1690 1.370 . S
C1691 C1692 1.403 . S
C1692 C1691 1.403 . S
C1692 C1693 1.404 . S
C1692 C1695 1.539 . S
C1693 C1689 1.408 . S
C1693 C1692 1.404 . S
C1693 H1705 0.930 . S
C1694 C1690 1.524 . S
C1694 H1706 0.956 . S
C1694 H1707 0.961 . S
C1694 H1708 0.961 . S
C1695 C1692 1.539 . S
C1695 H1709 0.958 . S
C1695 H1710 0.961 . S
C1695 H1711 0.960 . S
H1696 C1680 0.931 . S
H1697 C1685 0.929 . S
H1698 C1686 0.960 . S
H1699 C1686 0.962 . S
H1700 C1686 0.960 . S
H1701 C1687 0.961 . S
H1702 C1687 0.961 . S
H1703 C1687 0.961 . S
H1704 C1688 0.931 . S
H1705 C1693 0.930 . S
H1706 C1694 0.956 . S
H1707 C1694 0.961 . S
H1708 C1694 0.961 . S
H1709 C1695 0.958 . S
H1710 C1695 0.961 . S
H1711 C1695 0.960 . S
C1712 C1713 1.391 1_655 S
C1712 C1714 1.394 . S
C1712 H1728 0.931 . S
C1713 C1712 1.391 1_455 S
C1713 C1717 1.376 . S
C1714 C1712 1.394 . S
C1714 C1715 1.369 1_655 S
C1714 C1718 1.531 . S
C1715 C1714 1.369 1_455 S
C1715 C1716 1.410 . S
C1715 C1723 1.503 1_455 S
C1716 C1715 1.410 . S
C1716 C1717 1.392 . S
C1716 C1719 1.511 . S
C1717 C1713 1.376 . S
C1717 C1716 1.392 . S
C1717 H1729 0.929 . S
C1718 C1714 1.531 . S
C1718 H1730 0.960 . S
C1718 H1731 0.962 . S
C1718 H1732 0.960 . S
C1719 C1716 1.511 . S
C1719 H1733 0.961 . S
C1719 H1734 0.961 . S
C1719 H1735 0.961 . S
C1720 C1721 1.370 . S
C1720 C1722 1.363 . S
C1720 H1736 0.931 . S
C1721 C1720 1.370 . S
C1721 C1725 1.408 . S
C1722 C1720 1.363 . S
C1722 C1723 1.370 . S
C1722 C1726 1.524 . S
C1723 C1715 1.503 1_655 S
C1723 C1722 1.370 . S
C1723 C1724 1.403 1_655 S
C1724 C1723 1.403 1_455 S
C1724 C1725 1.404 1_455 S
C1724 C1727 1.539 . S
C1725 C1721 1.408 . S
C1725 C1724 1.404 1_655 S
C1725 H1737 0.930 1_655 S
C1726 C1722 1.524 . S
C1726 H1738 0.956 . S
C1726 H1739 0.961 . S
C1726 H1740 0.961 . S
C1727 C1724 1.539 . S
C1727 H1741 0.958 . S
C1727 H1742 0.961 . S
C1727 H1743 0.960 . S
H1728 C1712 0.931 . S
H1729 C1717 0.929 . S
H1730 C1718 0.960 . S
H1731 C1718 0.962 . S
H1732 C1718 0.960 . S
H1733 C1719 0.961 . S
H1734 C1719 0.961 . S
H1735 C1719 0.961 . S
H1736 C1720 0.931 . S
H1737 C1725 0.930 1_455 S
H1738 C1726 0.956 . S
H1739 C1726 0.961 . S
H1740 C1726 0.961 . S
H1741 C1727 0.958 . S
H1742 C1727 0.961 . S
H1743 C1727 0.960 . S
C1744 C1745 1.391 . S
C1744 C1746 1.394 . S
C1744 H1760 0.931 . S
C1745 C1744 1.391 . S
C1745 C1749 1.376 1_565 S
C1746 C1744 1.394 . S
C1746 C1747 1.369 . S
C1746 C1750 1.531 . S
C1747 C1746 1.369 . S
C1747 C1748 1.410 1_565 S
C1747 C1755 1.503 1_565 S
C1748 C1747 1.410 1_545 S
C1748 C1749 1.392 . S
C1748 C1751 1.511 . S
C1749 C1745 1.376 1_545 S
C1749 C1748 1.392 . S
C1749 H1761 0.929 . S
C1750 C1746 1.531 . S
C1750 H1762 0.960 . S
C1750 H1763 0.962 . S
C1750 H1764 0.960 . S
C1751 C1748 1.511 . S
C1751 H1765 0.961 . S
C1751 H1766 0.961 . S
C1751 H1767 0.961 . S
C1752 C1753 1.370 . S
C1752 C1754 1.363 . S
C1752 H1768 0.931 . S
C1753 C1752 1.370 . S
C1753 C1757 1.408 . S
C1754 C1752 1.363 . S
C1754 C1755 1.370 . S
C1754 C1758 1.524 . S
C1755 C1747 1.503 1_545 S
C1755 C1754 1.370 . S
C1755 C1756 1.403 1_545 S
C1756 C1755 1.403 1_565 S
C1756 C1757 1.404 1_565 S
C1756 C1759 1.539 . S
C1757 C1753 1.408 . S
C1757 C1756 1.404 1_545 S
C1757 H1769 0.930 1_545 S
C1758 C1754 1.524 . S
C1758 H1770 0.956 . S
C1758 H1771 0.961 . S
C1758 H1772 0.961 . S
C1759 C1756 1.539 . S
C1759 H1773 0.958 . S
C1759 H1774 0.961 . S
C1759 H1775 0.960 . S
H1760 C1744 0.931 . S
H1761 C1749 0.929 . S
H1762 C1750 0.960 . S
H1763 C1750 0.962 . S
H1764 C1750 0.960 . S
H1765 C1751 0.961 . S
H1766 C1751 0.961 . S
H1767 C1751 0.961 . S
H1768 C1752 0.931 . S
H1769 C1757 0.930 1_565 S
H1770 C1758 0.956 . S
H1771 C1758 0.961 . S
H1772 C1758 0.961 . S
H1773 C1759 0.958 . S
H1774 C1759 0.961 . S
H1775 C1759 0.960 . S
C1776 C1777 1.401 . S
C1776 C1778 1.391 1_455 S
C1776 H1792 0.924 1_455 S
C1777 C1776 1.401 . S
C1777 C1781 1.376 . S
C1778 C1776 1.391 1_655 S
C1778 C1779 1.369 1_655 S
C1778 C1782 1.531 . S
C1779 C1778 1.369 1_455 S
C1779 C1780 1.410 . S
C1779 C1787 1.493 1_455 S
C1780 C1779 1.410 . S
C1780 C1781 1.392 . S
C1780 C1783 1.511 . S
C1781 C1777 1.376 . S
C1781 C1780 1.392 . S
C1781 H1793 0.929 . S
C1782 C1778 1.531 . S
C1782 H1794 0.960 . S
C1782 H1795 0.962 . S
C1782 H1796 0.960 . S
C1783 C1780 1.511 . S
C1783 H1797 0.961 . S
C1783 H1798 0.961 . S
C1783 H1799 0.961 . S
C1784 C1785 1.370 . S
C1784 C1786 1.363 . S
C1784 H1800 0.931 . S
C1785 C1784 1.370 . S
C1785 C1789 1.408 1_655 S
C1786 C1784 1.363 . S
C1786 C1787 1.397 . S
C1786 C1790 1.524 . S
C1787 C1779 1.493 1_655 S
C1787 C1786 1.397 . S
C1787 C1788 1.388 1_655 S
C1788 C1787 1.388 1_455 S
C1788 C1789 1.404 . S
C1788 C1791 1.539 . S
C1789 C1785 1.408 1_455 S
C1789 C1788 1.404 . S
C1789 H1801 0.930 . S
C1790 C1786 1.524 . S
C1790 H1802 0.956 . S
C1790 H1803 0.961 . S
C1790 H1804 0.961 . S
C1791 C1788 1.539 . S
C1791 H1805 0.958 . S
C1791 H1806 0.961 . S
C1791 H1807 0.960 . S
H1792 C1776 0.924 1_655 S
H1793 C1781 0.929 . S
H1794 C1782 0.960 . S
H1795 C1782 0.962 . S
H1796 C1782 0.960 . S
H1797 C1783 0.961 . S
H1798 C1783 0.961 . S
H1799 C1783 0.961 . S
H1800 C1784 0.931 . S
H1801 C1789 0.930 . S
H1802 C1790 0.956 . S
H1803 C1790 0.961 . S
H1804 C1790 0.961 . S
H1805 C1791 0.958 . S
H1806 C1791 0.961 . S
H1807 C1791 0.960 . S
C1808 C1809 1.391 . S
C1808 C1810 1.394 1_545 S
C1808 H1824 0.931 1_545 S
C1809 C1808 1.391 . S
C1809 C1813 1.376 . S
C1810 C1808 1.394 1_565 S
C1810 C1811 1.369 . S
C1810 C1814 1.531 . S
C1811 C1810 1.369 . S
C1811 C1812 1.410 1_565 S
C1811 C1819 1.503 . S
C1812 C1811 1.410 1_545 S
C1812 C1813 1.392 . S
C1812 C1815 1.511 . S
C1813 C1809 1.376 . S
C1813 C1812 1.392 . S
C1813 H1825 0.929 . S
C1814 C1810 1.531 . S
C1814 H1826 0.960 . S
C1814 H1827 0.962 . S
C1814 H1828 0.960 . S
C1815 C1812 1.511 . S
C1815 H1829 0.961 . S
C1815 H1830 0.961 . S
C1815 H1831 0.961 . S
C1816 C1817 1.370 1_545 S
C1816 C1818 1.363 . S
C1816 H1832 0.931 . S
C1817 C1816 1.370 1_565 S
C1817 C1821 1.408 . S
C1818 C1816 1.363 . S
C1818 C1819 1.370 1_545 S
C1818 C1822 1.524 . S
C1819 C1811 1.503 . S
C1819 C1818 1.370 1_565 S
C1819 C1820 1.403 . S
C1820 C1819 1.403 . S
C1820 C1821 1.404 . S
C1820 C1823 1.539 . S
C1821 C1817 1.408 . S
C1821 C1820 1.404 . S
C1821 H1833 0.930 . S
C1822 C1818 1.524 . S
C1822 H1834 0.956 . S
C1822 H1835 0.961 . S
C1822 H1836 0.961 . S
C1823 C1820 1.539 . S
C1823 H1837 0.958 . S
C1823 H1838 0.961 . S
C1823 H1839 0.960 . S
H1824 C1808 0.931 1_565 S
H1825 C1813 0.929 . S
H1826 C1814 0.960 . S
H1827 C1814 0.962 . S
H1828 C1814 0.960 . S
H1829 C1815 0.961 . S
H1830 C1815 0.961 . S
H1831 C1815 0.961 . S
H1832 C1816 0.931 . S
H1833 C1821 0.930 . S
H1834 C1822 0.956 . S
H1835 C1822 0.961 . S
H1836 C1822 0.961 . S
H1837 C1823 0.958 . S
H1838 C1823 0.961 . S
H1839 C1823 0.960 . S
C1840 C1841 1.391 . S
C1840 C1842 1.394 . S
C1840 H1856 0.931 . S
C1841 C1840 1.391 . S
C1841 C1845 1.376 . S
C1842 C1840 1.394 . S
C1842 C1843 1.369 . S
C1842 C1846 1.531 . S
C1843 C1842 1.369 . S
C1843 C1844 1.410 . S
C1843 C1851 1.503 1_556 S
C1844 C1843 1.410 . S
C1844 C1845 1.392 . S
C1844 C1847 1.511 . S
C1845 C1841 1.376 . S
C1845 C1844 1.392 . S
C1845 H1857 0.929 . S
C1846 C1842 1.531 . S
C1846 H1858 0.960 1_556 S
C1846 H1859 0.962 1_556 S
C1846 H1860 0.960 . S
C1847 C1844 1.511 . S
C1847 H1861 0.961 . S
C1847 H1862 0.961 . S
C1847 H1863 0.961 . S
C1848 C1849 1.370 . S
C1848 C1850 1.363 . S
C1848 H1864 0.931 . S
C1849 C1848 1.370 . S
C1849 C1853 1.408 . S
C1850 C1848 1.363 . S
C1850 C1851 1.370 . S
C1850 C1854 1.524 . S
C1851 C1843 1.503 1_554 S
C1851 C1850 1.370 . S
C1851 C1852 1.403 . S
C1852 C1851 1.403 . S
C1852 C1853 1.404 . S
C1852 C1855 1.539 . S
C1853 C1849 1.408 . S
C1853 C1852 1.404 . S
C1853 H1865 0.930 . S
C1854 C1850 1.524 . S
C1854 H1866 0.956 . S
C1854 H1867 0.961 . S
C1854 H1868 0.961 . S
C1855 C1852 1.539 . S
C1855 H1869 0.958 . S
C1855 H1870 0.961 . S
C1855 H1871 0.960 1_554 S
H1856 C1840 0.931 . S
H1857 C1845 0.929 . S
H1858 C1846 0.960 1_554 S
H1859 C1846 0.962 1_554 S
H1860 C1846 0.960 . S
H1861 C1847 0.961 . S
H1862 C1847 0.961 . S
H1863 C1847 0.961 . S
H1864 C1848 0.931 . S
H1865 C1853 0.930 . S
H1866 C1854 0.956 . S
H1867 C1854 0.961 . S
H1868 C1854 0.961 . S
H1869 C1855 0.958 . S
H1870 C1855 0.961 . S
H1871 C1855 0.960 1_556 S
C1872 C1873 1.391 . S
C1872 C1874 1.394 . S
C1872 H1888 0.931 . S
C1873 C1872 1.391 . S
C1873 C1877 1.376 . S
C1874 C1872 1.394 . S
C1874 C1875 1.369 . S
C1874 C1878 1.531 . S
C1875 C1874 1.369 . S
C1875 C1876 1.410 . S
C1875 C1883 1.503 1_556 S
C1876 C1875 1.410 . S
C1876 C1877 1.392 . S
C1876 C1879 1.511 . S
C1877 C1873 1.376 . S
C1877 C1876 1.392 . S
C1877 H1889 0.929 . S
C1878 C1874 1.531 . S
C1878 H1890 0.960 . S
C1878 H1891 0.962 . S
C1878 H1892 0.960 . S
C1879 C1876 1.511 . S
C1879 H1893 0.961 . S
C1879 H1894 0.961 1_556 S
C1879 H1895 0.961 1_556 S
C1880 C1881 1.370 . S
C1880 C1882 1.363 . S
C1880 H1896 0.931 . S
C1881 C1880 1.370 . S
C1881 C1885 1.408 . S
C1882 C1880 1.363 . S
C1882 C1883 1.370 . S
C1882 C1886 1.524 . S
C1883 C1875 1.503 1_554 S
C1883 C1882 1.370 . S
C1883 C1884 1.403 . S
C1884 C1883 1.403 . S
C1884 C1885 1.404 . S
C1884 C1887 1.539 . S
C1885 C1881 1.408 . S
C1885 C1884 1.404 . S
C1885 H1897 0.930 . S
C1886 C1882 1.524 . S
C1886 H1898 0.962 . S
C1886 H1899 0.961 . S
C1886 H1900 0.961 . S
C1887 C1884 1.539 . S
C1887 H1901 0.958 . S
C1887 H1902 0.961 . S
C1887 H1903 0.960 1_554 S
H1888 C1872 0.931 . S
H1889 C1877 0.929 . S
H1890 C1878 0.960 . S
H1891 C1878 0.962 . S
H1892 C1878 0.960 . S
H1893 C1879 0.961 . S
H1894 C1879 0.961 1_554 S
H1895 C1879 0.961 1_554 S
H1896 C1880 0.931 . S
H1897 C1885 0.930 . S
H1898 C1886 0.962 . S
H1899 C1886 0.961 . S
H1900 C1886 0.961 . S
H1901 C1887 0.958 . S
H1902 C1887 0.961 . S
H1903 C1887 0.960 1_556 S
C1904 C1905 1.391 . S
C1904 C1906 1.394 . S
C1904 H1920 0.931 . S
C1905 C1904 1.391 . S
C1905 C1909 1.376 . S
C1906 C1904 1.394 . S
C1906 C1907 1.369 . S
C1906 C1910 1.531 . S
C1907 C1906 1.369 . S
C1907 C1908 1.410 . S
C1907 C1915 1.503 1_554 S
C1908 C1907 1.410 . S
C1908 C1909 1.392 . S
C1908 C1911 1.511 . S
C1909 C1905 1.376 . S
C1909 C1908 1.392 . S
C1909 H1921 0.929 . S
C1910 C1906 1.531 . S
C1910 H1922 0.960 1_554 S
C1910 H1923 0.962 1_554 S
C1910 H1924 0.960 . S
C1911 C1908 1.511 . S
C1911 H1925 0.961 . S
C1911 H1926 0.961 . S
C1911 H1927 0.961 . S
C1912 C1913 1.370 . S
C1912 C1914 1.363 . S
C1912 H1928 0.931 . S
C1913 C1912 1.370 . S
C1913 C1917 1.408 . S
C1914 C1912 1.363 . S
C1914 C1915 1.370 . S
C1914 C1918 1.524 . S
C1915 C1907 1.503 1_556 S
C1915 C1914 1.370 . S
C1915 C1916 1.403 . S
C1916 C1915 1.403 . S
C1916 C1917 1.404 . S
C1916 C1919 1.539 . S
C1917 C1913 1.408 . S
C1917 C1916 1.404 . S
C1917 H1929 0.930 . S
C1918 C1914 1.524 . S
C1918 H1930 0.956 1_556 S
C1918 H1931 0.961 1_556 S
C1918 H1932 0.961 . S
C1919 C1916 1.539 . S
C1919 H1933 0.958 . S
C1919 H1934 0.961 . S
C1919 H1935 0.960 . S
H1920 C1904 0.931 . S
H1921 C1909 0.929 . S
H1922 C1910 0.960 1_556 S
H1923 C1910 0.962 1_556 S
H1924 C1910 0.960 . S
H1925 C1911 0.961 . S
H1926 C1911 0.961 . S
H1927 C1911 0.961 . S
H1928 C1912 0.931 . S
H1929 C1917 0.930 . S
H1930 C1918 0.956 1_554 S
H1931 C1918 0.961 1_554 S
H1932 C1918 0.961 . S
H1933 C1919 0.958 . S
H1934 C1919 0.961 . S
H1935 C1919 0.960 . S
C1936 C1937 1.391 . S
C1936 C1938 1.394 . S
C1936 H1952 0.931 . S
C1937 C1936 1.391 . S
C1937 C1941 1.376 . S
C1938 C1936 1.394 . S
C1938 C1939 1.369 . S
C1938 C1942 1.531 . S
C1939 C1938 1.369 . S
C1939 C1940 1.410 . S
C1939 C1947 1.503 1_556 S
C1940 C1939 1.410 . S
C1940 C1941 1.392 . S
C1940 C1943 1.511 . S
C1941 C1937 1.376 . S
C1941 C1940 1.392 . S
C1941 H1953 0.929 . S
C1942 C1938 1.531 . S
C1942 H1954 0.960 1_556 S
C1942 H1955 0.962 . S
C1942 H1956 0.960 . S
C1943 C1940 1.511 . S
C1943 H1957 0.961 . S
C1943 H1958 0.961 . S
C1943 H1959 0.961 . S
C1944 C1945 1.370 . S
C1944 C1946 1.363 . S
C1944 H1960 0.931 . S
C1945 C1944 1.370 . S
C1945 C1949 1.408 . S
C1946 C1944 1.363 . S
C1946 C1947 1.370 . S
C1946 C1950 1.515 1_554 S
C1947 C1939 1.503 1_554 S
C1947 C1946 1.370 . S
C1947 C1948 1.403 . S
C1948 C1947 1.403 . S
C1948 C1949 1.404 . S
C1948 C1951 1.539 . S
C1949 C1945 1.408 . S
C1949 C1948 1.404 . S
C1949 H1961 0.930 . S
C1950 C1946 1.515 1_556 S
C1950 H1962 0.961 . S
C1950 H1963 0.969 . S
C1950 H1964 0.956 1_556 S
C1951 C1948 1.539 . S
C1951 H1965 0.958 . S
C1951 H1966 0.961 . S
C1951 H1967 0.960 . S
H1952 C1936 0.931 . S
H1953 C1941 0.929 . S
H1954 C1942 0.960 1_554 S
H1955 C1942 0.962 . S
H1956 C1942 0.960 . S
H1957 C1943 0.961 . S
H1958 C1943 0.961 . S
H1959 C1943 0.961 . S
H1960 C1944 0.931 . S
H1961 C1949 0.930 . S
H1962 C1950 0.961 . S
H1963 C1950 0.969 . S
H1964 C1950 0.956 1_554 S
H1965 C1951 0.958 . S
H1966 C1951 0.961 . S
H1967 C1951 0.960 . S
C945 C3 1.640 . S
C953 C229 1.653 1_545 S
C977 C52 1.642 1_655 S
C985 C62 1.624 . S
C1009 C111 1.641 1_565 S
C1017 C121 1.623 . S
C1041 C170 1.655 1_455 S
C1049 C180 1.630 . S
C1073 C239 1.643 . S
C1081 C347 1.654 1_565 S
C1105 C298 1.597 . S
C1113 C406 1.640 1_455 S
C1137 C357 1.595 . S
C1145 C465 1.640 1_545 S
C1169 C416 1.627 . S
C1177 C288 1.650 1_655 S
C1201 C475 1.597 . S
C1209 C701 1.640 . S
C1233 C524 1.631 . S
C1241 C534 1.617 . S
C1265 C583 1.652 . S
C1273 C593 1.628 . S
C1297 C652 1.626 . S
C1305 C642 1.648 . S
C1329 C819 1.652 . S
C1337 C711 1.630 . S
C1361 C878 1.636 . S
C1369 C770 1.621 . S
C1393 C829 1.595 . S
C1401 C937 1.640 . S
C1425 C888 1.601 . S
C1433 C760 1.642 . S
C1457 C5 1.465 . S
C1465 C890 1.428 . S
C1489 C64 1.471 . S
C1497 C713 1.429 . S
C1521 C772 1.471 . S
C1529 C123 1.429 . S
C1553 C182 1.421 . S
C1561 C831 1.442 . S
C1585 C536 1.470 . S
C1593 C241 1.428 . S
C1617 C595 1.406 . S
C1625 C300 1.456 . S
C1649 C359 1.471 . S
C1657 C654 1.432 . S
C1681 C418 1.407 . S
C1689 C477 1.456 . S
C1713 C33 1.661 . S
C1721 C387 1.680 . S
C1745 C446 1.685 . S
C1753 C92 1.690 . S
C1777 C269 1.661 . S
C1785 C151 1.682 . S
C1809 C328 1.681 . S
C1817 C210 1.676 . S
C1841 C505 1.695 . S
C1849 C859 1.684 . S
C1873 C564 1.667 . S
C1881 C918 1.676 . S
C1905 C741 1.684 . S
C1913 C623 1.689 . S
C1937 C682 1.675 . S
C1945 C800 1.689 . S
