# Generated by pormake.
# Topology ukc, (4)-cn, num edge types: 1
# Building blocks:
#     Node 0, Type 0, BuildingBlock: AZAVOO_clean_sbu_0, # of connection points: 4
#     Node 1, Type 0, BuildingBlock: AZAVOO_clean_sbu_0, # of connection points: 4
#     Node 2, Type 0, BuildingBlock: AZAVOO_clean_sbu_0, # of connection points: 4
#     Node 3, Type 0, BuildingBlock: AZAVOO_clean_sbu_0, # of connection points: 4
#     Node 4, Type 0, BuildingBlock: AZAVOO_clean_sbu_0, # of connection points: 4
#     Node 5, Type 0, BuildingBlock: AZAVOO_clean_sbu_0, # of connection points: 4
#     Node 6, Type 0, BuildingBlock: AZAVOO_clean_sbu_0, # of connection points: 4
#     Node 7, Type 0, BuildingBlock: AZAVOO_clean_sbu_0, # of connection points: 4
#     Node 8, Type 0, BuildingBlock: AZAVOO_clean_sbu_0, # of connection points: 4
#     Node 9, Type 0, BuildingBlock: AZAVOO_clean_sbu_0, # of connection points: 4
#     Node 10, Type 0, BuildingBlock: AZAVOO_clean_sbu_0, # of connection points: 4
#     Node 11, Type 0, BuildingBlock: AZAVOO_clean_sbu_0, # of connection points: 4
#     Node 12, Type 0, BuildingBlock: AZAVOO_clean_sbu_0, # of connection points: 4
#     Node 13, Type 0, BuildingBlock: AZAVOO_clean_sbu_0, # of connection points: 4
#     Node 14, Type 0, BuildingBlock: AZAVOO_clean_sbu_0, # of connection points: 4
#     Node 15, Type 0, BuildingBlock: AZAVOO_clean_sbu_0, # of connection points: 4
#     Node 16, Type 0, BuildingBlock: AZAVOO_clean_sbu_0, # of connection points: 4
#     Node 17, Type 0, BuildingBlock: AZAVOO_clean_sbu_0, # of connection points: 4
#     Node 18, Type 0, BuildingBlock: AZAVOO_clean_sbu_0, # of connection points: 4
#     Node 19, Type 0, BuildingBlock: AZAVOO_clean_sbu_0, # of connection points: 4
#     Node 20, Type 0, BuildingBlock: AZAVOO_clean_sbu_0, # of connection points: 4
#     Node 21, Type 0, BuildingBlock: AZAVOO_clean_sbu_0, # of connection points: 4
#     Node 22, Type 0, BuildingBlock: AZAVOO_clean_sbu_0, # of connection points: 4
#     Node 23, Type 0, BuildingBlock: AZAVOO_clean_sbu_0, # of connection points: 4
#     Node 24, Type 0, BuildingBlock: AZAVOO_clean_sbu_0, # of connection points: 4
#     Node 25, Type 0, BuildingBlock: AZAVOO_clean_sbu_0, # of connection points: 4
#     Node 26, Type 0, BuildingBlock: AZAVOO_clean_sbu_0, # of connection points: 4
#     Node 27, Type 0, BuildingBlock: AZAVOO_clean_sbu_0, # of connection points: 4
#     Node 28, Type 0, BuildingBlock: AZAVOO_clean_sbu_0, # of connection points: 4
#     Node 29, Type 0, BuildingBlock: AZAVOO_clean_sbu_0, # of connection points: 4
#     Node 30, Type 0, BuildingBlock: AZAVOO_clean_sbu_0, # of connection points: 4
#     Node 31, Type 0, BuildingBlock: AZAVOO_clean_sbu_0, # of connection points: 4
#     Edge 32, Type (0, 0), BuildingBlock: OJICUG_clean_linker_0, # of connection points: 2
#     Edge 33, Type (0, 0), BuildingBlock: OJICUG_clean_linker_0, # of connection points: 2
#     Edge 34, Type (0, 0), BuildingBlock: OJICUG_clean_linker_0, # of connection points: 2
#     Edge 35, Type (0, 0), BuildingBlock: OJICUG_clean_linker_0, # of connection points: 2
#     Edge 36, Type (0, 0), BuildingBlock: OJICUG_clean_linker_0, # of connection points: 2
#     Edge 37, Type (0, 0), BuildingBlock: OJICUG_clean_linker_0, # of connection points: 2
#     Edge 38, Type (0, 0), BuildingBlock: OJICUG_clean_linker_0, # of connection points: 2
#     Edge 39, Type (0, 0), BuildingBlock: OJICUG_clean_linker_0, # of connection points: 2
#     Edge 40, Type (0, 0), BuildingBlock: OJICUG_clean_linker_0, # of connection points: 2
#     Edge 41, Type (0, 0), BuildingBlock: OJICUG_clean_linker_0, # of connection points: 2
#     Edge 42, Type (0, 0), BuildingBlock: OJICUG_clean_linker_0, # of connection points: 2
#     Edge 43, Type (0, 0), BuildingBlock: OJICUG_clean_linker_0, # of connection points: 2
#     Edge 44, Type (0, 0), BuildingBlock: OJICUG_clean_linker_0, # of connection points: 2
#     Edge 45, Type (0, 0), BuildingBlock: OJICUG_clean_linker_0, # of connection points: 2
#     Edge 46, Type (0, 0), BuildingBlock: OJICUG_clean_linker_0, # of connection points: 2
#     Edge 47, Type (0, 0), BuildingBlock: OJICUG_clean_linker_0, # of connection points: 2
#     Edge 48, Type (0, 0), BuildingBlock: OJICUG_clean_linker_0, # of connection points: 2
#     Edge 49, Type (0, 0), BuildingBlock: OJICUG_clean_linker_0, # of connection points: 2
#     Edge 50, Type (0, 0), BuildingBlock: OJICUG_clean_linker_0, # of connection points: 2
#     Edge 51, Type (0, 0), BuildingBlock: OJICUG_clean_linker_0, # of connection points: 2
#     Edge 52, Type (0, 0), BuildingBlock: OJICUG_clean_linker_0, # of connection points: 2
#     Edge 53, Type (0, 0), BuildingBlock: OJICUG_clean_linker_0, # of connection points: 2
#     Edge 54, Type (0, 0), BuildingBlock: OJICUG_clean_linker_0, # of connection points: 2
#     Edge 55, Type (0, 0), BuildingBlock: OJICUG_clean_linker_0, # of connection points: 2
#     Edge 56, Type (0, 0), BuildingBlock: OJICUG_clean_linker_0, # of connection points: 2
#     Edge 57, Type (0, 0), BuildingBlock: OJICUG_clean_linker_0, # of connection points: 2
#     Edge 58, Type (0, 0), BuildingBlock: OJICUG_clean_linker_0, # of connection points: 2
#     Edge 59, Type (0, 0), BuildingBlock: OJICUG_clean_linker_0, # of connection points: 2
#     Edge 60, Type (0, 0), BuildingBlock: OJICUG_clean_linker_0, # of connection points: 2
#     Edge 61, Type (0, 0), BuildingBlock: OJICUG_clean_linker_0, # of connection points: 2
#     Edge 62, Type (0, 0), BuildingBlock: OJICUG_clean_linker_0, # of connection points: 2
#     Edge 63, Type (0, 0), BuildingBlock: OJICUG_clean_linker_0, # of connection points: 2
#     Edge 64, Type (0, 0), BuildingBlock: OJICUG_clean_linker_0, # of connection points: 2
#     Edge 65, Type (0, 0), BuildingBlock: OJICUG_clean_linker_0, # of connection points: 2
#     Edge 66, Type (0, 0), BuildingBlock: OJICUG_clean_linker_0, # of connection points: 2
#     Edge 67, Type (0, 0), BuildingBlock: OJICUG_clean_linker_0, # of connection points: 2
#     Edge 68, Type (0, 0), BuildingBlock: OJICUG_clean_linker_0, # of connection points: 2
#     Edge 69, Type (0, 0), BuildingBlock: OJICUG_clean_linker_0, # of connection points: 2
#     Edge 70, Type (0, 0), BuildingBlock: OJICUG_clean_linker_0, # of connection points: 2
#     Edge 71, Type (0, 0), BuildingBlock: OJICUG_clean_linker_0, # of connection points: 2
#     Edge 72, Type (0, 0), BuildingBlock: OJICUG_clean_linker_0, # of connection points: 2
#     Edge 73, Type (0, 0), BuildingBlock: OJICUG_clean_linker_0, # of connection points: 2
#     Edge 74, Type (0, 0), BuildingBlock: OJICUG_clean_linker_0, # of connection points: 2
#     Edge 75, Type (0, 0), BuildingBlock: OJICUG_clean_linker_0, # of connection points: 2
#     Edge 76, Type (0, 0), BuildingBlock: OJICUG_clean_linker_0, # of connection points: 2
#     Edge 77, Type (0, 0), BuildingBlock: OJICUG_clean_linker_0, # of connection points: 2
#     Edge 78, Type (0, 0), BuildingBlock: OJICUG_clean_linker_0, # of connection points: 2
#     Edge 79, Type (0, 0), BuildingBlock: OJICUG_clean_linker_0, # of connection points: 2
#     Edge 80, Type (0, 0), BuildingBlock: OJICUG_clean_linker_0, # of connection points: 2
#     Edge 81, Type (0, 0), BuildingBlock: OJICUG_clean_linker_0, # of connection points: 2
#     Edge 82, Type (0, 0), BuildingBlock: OJICUG_clean_linker_0, # of connection points: 2
#     Edge 83, Type (0, 0), BuildingBlock: OJICUG_clean_linker_0, # of connection points: 2
#     Edge 84, Type (0, 0), BuildingBlock: OJICUG_clean_linker_0, # of connection points: 2
#     Edge 85, Type (0, 0), BuildingBlock: OJICUG_clean_linker_0, # of connection points: 2
#     Edge 86, Type (0, 0), BuildingBlock: OJICUG_clean_linker_0, # of connection points: 2
#     Edge 87, Type (0, 0), BuildingBlock: OJICUG_clean_linker_0, # of connection points: 2
#     Edge 88, Type (0, 0), BuildingBlock: OJICUG_clean_linker_0, # of connection points: 2
#     Edge 89, Type (0, 0), BuildingBlock: OJICUG_clean_linker_0, # of connection points: 2
#     Edge 90, Type (0, 0), BuildingBlock: OJICUG_clean_linker_0, # of connection points: 2
#     Edge 91, Type (0, 0), BuildingBlock: OJICUG_clean_linker_0, # of connection points: 2
#     Edge 92, Type (0, 0), BuildingBlock: OJICUG_clean_linker_0, # of connection points: 2
#     Edge 93, Type (0, 0), BuildingBlock: OJICUG_clean_linker_0, # of connection points: 2
#     Edge 94, Type (0, 0), BuildingBlock: OJICUG_clean_linker_0, # of connection points: 2
#     Edge 95, Type (0, 0), BuildingBlock: OJICUG_clean_linker_0, # of connection points: 2
# Relax obj value: 0.060
# Max RMSD: 0.100
# Mean RMSD: 0.100
data_MOF--net-ukc--node1-AZAVOO_clean_sbu_0--edge1-OJICUG_clean_linker_0
_symmetry_space_group_name_H-M    P1
_symmetry_Int_Tables_number       1
_symmetry_cell_setting            triclinic
loop_
_symmetry_equiv_pos_as_xyz
'x, y, z'
_cell_length_a     33.333161
_cell_length_b     33.288393
_cell_length_c     64.9245
_cell_angle_alpha  89.76077
_cell_angle_beta   89.775345
_cell_angle_gamma 90.125264
loop_
_atom_site_label
_atom_site_type_symbol
_atom_site_fract_x
_atom_site_fract_y
_atom_site_fract_z
_atom_type_partial_charge
Mg0 Mg 0.08872 0.3699 0.00241 0.0
O1 O 0.04689 0.3161 -0.00341 0.0
O2 O 0.07536 0.26247 0.01132 0.0
Mg3 Mg 0.13166 0.28132 0.02854 0.0
C4 C 0.04732 0.27859 0.00085 0.0
C5 C 0.02045 0.41699 -0.02033 0.0
O6 O 1.00064 0.40351 -0.00418 0.0
O7 O 0.13701 0.34711 -0.01956 0.0
O8 O 0.16401 0.29669 -0.00127 0.0
O9 O 0.05699 0.38397 0.03198 0.0
O10 O 0.10864 0.34298 0.02931 0.0
C11 C 0.16342 0.31974 -0.017 0.0
C12 C 0.08203 0.35963 0.04072 0.0
O13 O 0.05716 0.40737 -0.0225 0.0
Mg14 Mg 0.88213 0.8681 0.26328 0.0
O15 O 0.93952 0.83449 0.2544 0.0
O16 O 0.99156 0.86454 0.26952 0.0
Mg17 Mg 0.96819 0.91773 0.28806 0.0
C18 C 0.977 0.83688 0.25822 0.0
C19 C 0.81736 0.81276 0.24501 0.0
O20 O 0.80848 0.8132 0.26474 0.0
O21 O 0.89637 0.92097 0.24223 0.0
O22 O 0.947 0.95035 0.25919 0.0
O23 O 0.87751 0.82982 0.29135 0.0
O24 O 0.90941 0.88805 0.29005 0.0
C25 C 0.92197 0.94927 0.24439 0.0
C26 C 0.89946 0.85659 0.30038 0.0
O27 O 0.84699 0.83365 0.23865 0.0
Mg28 Mg 0.37465 0.58315 0.52739 0.0
O29 O 0.40498 0.63653 0.51114 0.0
O30 O 0.37739 0.69308 0.5231 0.0
Mg31 Mg 0.32827 0.67647 0.5463 0.0
C32 C 0.40289 0.67485 0.51177 0.0
C33 C 0.42664 0.51231 0.51045 0.0
O34 O 0.43313 0.50868 0.53031 0.0
O35 O 0.31738 0.58935 0.50817 0.0
O36 O 0.29184 0.64515 0.52191 0.0
O37 O 0.4202 0.58946 0.55245 0.0
O38 O 0.36196 0.62108 0.55207 0.0
C39 C 0.28964 0.61566 0.50954 0.0
C40 C 0.39665 0.61626 0.56031 0.0
O41 O 0.40323 0.53987 0.50414 0.0
Mg42 Mg 0.65239 0.18877 0.75557 0.0
O43 O 0.59788 0.22753 0.74796 0.0
O44 O 0.54173 0.19198 0.75241 0.0
Mg45 Mg 0.56009 0.1291 0.76301 0.0
C46 C 0.55974 0.22459 0.74765 0.0
C47 C 0.72173 0.2544 0.74814 0.0
O48 O 0.73252 0.24484 0.76697 0.0
O49 O 0.64744 0.15271 0.72591 0.0
O50 O 0.59191 0.11677 0.73267 0.0
O51 O 0.6458 0.20511 0.78899 0.0
O52 O 0.61739 0.1524 0.77462 0.0
C53 C 0.62157 0.12602 0.7211 0.0
C54 C 0.62271 0.17387 0.79069 0.0
O55 O 0.69183 0.23669 0.74006 0.0
Mg56 Mg 0.08947 0.57928 0.42336 0.0
O57 O 0.05284 0.63539 0.43137 0.0
O58 O 0.08833 0.69022 0.42331 0.0
Mg59 Mg 0.14824 0.66972 0.40996 0.0
C60 C 0.05664 0.67351 0.43037 0.0
C61 C 0.02727 0.51025 0.43595 0.0
O62 O 0.03544 0.49668 0.41743 0.0
O63 O 0.13091 0.58751 0.45096 0.0
O64 O 0.16532 0.64199 0.44063 0.0
O65 O 0.0658 0.58224 0.39108 0.0
O66 O 0.12149 0.61184 0.40134 0.0
C67 C 0.15815 0.61401 0.45361 0.0
C68 C 0.09615 0.60534 0.38693 0.0
O69 O 0.04472 0.54192 0.44225 0.0
Mg70 Mg 0.6712 0.90393 0.65605 0.0
O71 O 0.61472 0.87618 0.67071 0.0
O72 O 0.56117 0.90109 0.6544 0.0
Mg73 Mg 0.58268 0.94562 0.62979 0.0
C74 C 0.57681 0.87798 0.66792 0.0
C75 C 0.74021 0.85843 0.6774 0.0
O76 O 0.74848 0.85384 0.65775 0.0
O77 O 0.66063 0.96447 0.67195 0.0
O78 O 0.6082 0.98706 0.65399 0.0
O79 O 0.67063 0.85381 0.63324 0.0
O80 O 0.6388 0.91148 0.62897 0.0
C81 C 0.63482 0.99168 0.66781 0.0
C82 C 0.64556 0.87541 0.62283 0.0
O83 O 0.70982 0.87936 0.68243 0.0
Mg84 Mg 0.39396 0.36463 0.92451 0.0
O85 O 0.42918 0.30637 0.9298 0.0
O86 O 0.39953 0.25792 0.91159 0.0
Mg87 Mg 0.34748 0.28468 0.89355 0.0
C88 C 0.42683 0.26992 0.92385 0.0
C89 C 0.44324 0.42816 0.94684 0.0
O90 O 0.43899 0.44239 0.92807 0.0
O91 O 0.34061 0.3436 0.94378 0.0
O92 O 0.31256 0.2981 0.92284 0.0
O93 O 0.43238 0.37884 0.89736 0.0
O94 O 0.37591 0.34412 0.89585 0.0
C95 C 0.31262 0.3188 0.93932 0.0
C96 C 0.40666 0.3589 0.88652 0.0
O97 O 0.42653 0.39485 0.95141 0.0
Mg98 Mg 0.86247 0.1632 0.1728 0.0
O99 O 0.91668 0.20481 0.17763 0.0
O100 O 0.97022 0.1749 0.16365 0.0
Mg101 Mg 0.95073 0.11713 0.14786 0.0
C102 C 0.95416 0.20385 0.1735 0.0
C103 C 0.80286 0.22563 0.19305 0.0
O104 O 0.7981 0.23572 0.17363 0.0
O105 O 0.88517 0.11692 0.196 0.0
O106 O 0.93594 0.08849 0.17865 0.0
O107 O 0.84901 0.19241 0.14226 0.0
O108 O 0.88929 0.14059 0.14646 0.0
C109 C 0.91293 0.09068 0.19432 0.0
C110 C 0.87341 0.16644 0.13432 0.0
O111 O 0.82702 0.19738 0.19755 0.0
Mg112 Mg 0.87758 0.588 0.90619 0.0
O113 O 0.91586 0.6377 0.92079 0.0
O114 O 0.88931 0.69695 0.91203 0.0
Mg115 Mg 0.83415 0.68613 0.89217 0.0
C116 C 0.91596 0.67608 0.92118 0.0
C117 C 0.94506 0.53149 0.92442 0.0
O118 O 0.96608 0.54902 0.90976 0.0
O119 O 0.82694 0.59677 0.92953 0.0
O120 O 0.80227 0.6558 0.91894 0.0
O121 O 0.91516 0.59394 0.87759 0.0
O122 O 0.85956 0.62804 0.8833 0.0
C123 C 0.80147 0.62529 0.93087 0.0
C124 C 0.8904 0.62176 0.87189 0.0
O125 O 0.90838 0.54106 0.92678 0.0
Mg126 Mg 0.15646 0.18361 0.67723 0.0
O127 O 0.1079 0.22825 0.68744 0.0
O128 O 0.0488 0.19656 0.68641 0.0
Mg129 Mg 0.05841 0.13239 0.67533 0.0
C130 C 0.06983 0.22787 0.68984 0.0
C131 C 0.2094 0.26196 0.68851 0.0
O132 O 0.18251 0.28232 0.67807 0.0
O133 O 0.1536 0.14851 0.70723 0.0
O134 O 0.09453 0.11698 0.70392 0.0
O135 O 0.14573 0.20065 0.64417 0.0
O136 O 0.1144 0.15157 0.66053 0.0
C137 C 0.1269 0.12397 0.71371 0.0
C138 C 0.11915 0.17215 0.64401 0.0
O139 O 0.20596 0.22401 0.69012 0.0
Mg140 Mg 0.57517 0.34828 0.43608 0.0
O141 O 0.53431 0.2936 0.44108 0.0
O142 O 0.56559 0.23965 0.42858 0.0
Mg143 Mg 0.62489 0.25937 0.41398 0.0
C144 C 0.5356 0.25595 0.43747 0.0
C145 C 0.51259 0.41104 0.45271 0.0
O146 O 0.50832 0.41658 0.43279 0.0
O147 O 0.61979 0.32871 0.46056 0.0
O148 O 0.65128 0.27778 0.44482 0.0
O149 O 0.5488 0.35855 0.40479 0.0
O150 O 0.60172 0.32083 0.41087 0.0
C151 C 0.6473 0.30204 0.45985 0.0
C152 C 0.57688 0.33536 0.39783 0.0
O153 O 0.53747 0.3848 0.45902 0.0
Mg154 Mg 0.37832 0.86846 0.17378 0.0
O155 O 0.43283 0.83146 0.18398 0.0
O156 O 0.48759 0.85963 0.17011 0.0
Mg157 Mg 0.46916 0.91375 0.15071 0.0
C158 C 0.47073 0.83241 0.18103 0.0
C159 C 0.3306 0.79985 0.19622 0.0
O160 O 0.34663 0.77978 0.18088 0.0
O161 O 0.39337 0.92067 0.19483 0.0
O162 O 0.44661 0.94787 0.17871 0.0
O163 O 0.37431 0.83091 0.14546 0.0
O164 O 0.4093 0.88711 0.14773 0.0
C165 C 0.42018 0.94798 0.19298 0.0
C166 C 0.39869 0.85661 0.13706 0.0
O167 O 0.33864 0.83707 0.198 0.0
Mg168 Mg 0.87615 0.36178 0.51576 0.0
O169 O 0.91091 0.30337 0.51014 0.0
O170 O 0.88425 0.25597 0.53052 0.0
Mg171 Mg 0.83464 0.28366 0.55004 0.0
C172 C 0.90958 0.26729 0.51689 0.0
C173 C 0.91796 0.42633 0.49096 0.0
O174 O 0.9102 0.44221 0.50904 0.0
O175 O 0.82071 0.33894 0.49896 0.0
O176 O 0.7961 0.29415 0.52168 0.0
O177 O 0.91848 0.3778 0.54071 0.0
O178 O 0.86266 0.34292 0.5455 0.0
C179 C 0.79387 0.31378 0.50482 0.0
C180 C 0.89486 0.35819 0.55305 0.0
O181 O 0.90535 0.39093 0.48739 0.0
Mg182 Mg 0.35961 0.16278 0.26257 0.0
O183 O 0.41445 0.20407 0.25872 0.0
O184 O 0.46677 0.1728 0.27304 0.0
Mg185 Mg 0.44568 0.11494 0.28847 0.0
C186 C 0.45168 0.20232 0.26318 0.0
C187 C 0.29903 0.22378 0.24287 0.0
O188 O 0.29074 0.22891 0.26248 0.0
O189 O 0.38343 0.11725 0.23938 0.0
O190 O 0.43241 0.08753 0.25744 0.0
O191 O 0.34417 0.19057 0.29314 0.0
O192 O 0.38433 0.13866 0.28905 0.0
C193 C 0.41064 0.09053 0.24143 0.0
C194 C 0.36757 0.16382 0.30121 0.0
O195 O 0.32599 0.19862 0.23783 0.0
Mg196 Mg 0.60425 0.58302 0.01892 0.0
O197 O 0.56658 0.63819 0.01029 0.0
O198 O 0.5996 0.69352 0.01981 0.0
Mg199 Mg 0.65779 0.67436 0.03525 0.0
C200 C 0.5694 0.67636 0.0116 0.0
C201 C 0.5445 0.51432 0.00425 0.0
O202 O 0.54697 0.50327 0.02365 0.0
O203 O 0.64892 0.59506 -0.00713 0.0
O204 O 0.68045 0.64947 0.005 0.0
O205 O 0.57565 0.58182 0.0502 0.0
O206 O 0.6309 0.61555 0.04265 0.0
C207 C 0.67583 0.62231 -0.00857 0.0
C208 C 0.60372 0.60629 0.05593 0.0
O209 O 0.56447 0.54469 -0.00197 0.0
Mg210 Mg 0.18441 0.90403 0.77957 0.0
O211 O 0.12806 0.875 0.76564 0.0
O212 O 0.07468 0.89973 0.78234 0.0
Mg213 Mg 0.09594 0.94416 0.80676 0.0
C214 C 0.09019 0.87672 0.76878 0.0
C215 C 0.22601 0.84304 0.7508 0.0
O216 O 0.20451 0.81974 0.76296 0.0
O217 O 0.17194 0.96405 0.76348 0.0
O218 O 0.11995 0.98592 0.78212 0.0
O219 O 0.18581 0.85419 0.80277 0.0
O220 O 0.15249 0.91102 0.80682 0.0
C221 C 0.14589 0.99085 0.76788 0.0
C222 C 0.16027 0.87525 0.81317 0.0
O223 O 0.22361 0.88093 0.75301 0.0
Mg224 Mg 0.58449 0.86086 0.50457 0.0
O225 O 0.542 0.80777 0.49934 0.0
O226 O 0.57221 0.7527 0.51135 0.0
Mg227 Mg 0.63128 0.77037 0.52657 0.0
C228 C 0.54274 0.76993 0.5025 0.0
C229 C 0.51179 0.90786 0.4862 0.0
O230 O 0.4951 0.89271 0.50288 0.0
O231 O 0.6285 0.84047 0.47994 0.0
O232 O 0.65878 0.78885 0.49583 0.0
O233 O 0.55835 0.8718 0.53583 0.0
O234 O 0.60999 0.83235 0.52965 0.0
C235 C 0.65549 0.81327 0.48073 0.0
C236 C 0.58595 0.84802 0.54279 0.0
O237 O 0.54822 0.89949 0.48221 0.0
Mg238 Mg 0.37301 0.4038 0.76426 0.0
O239 O 0.42703 0.36656 0.7532 0.0
O240 O 0.48118 0.38871 0.76994 0.0
Mg241 Mg 0.4628 0.43825 0.79209 0.0
C242 C 0.46457 0.3652 0.75703 0.0
C243 C 0.33184 0.34138 0.73663 0.0
O244 O 0.35318 0.31931 0.74932 0.0
O245 O 0.3935 0.45961 0.74661 0.0
O246 O 0.44587 0.47953 0.76562 0.0
O247 O 0.36303 0.35975 0.78963 0.0
O248 O 0.40168 0.41351 0.79215 0.0
C249 C 0.42159 0.48454 0.75072 0.0
C250 C 0.38798 0.38098 0.80029 0.0
O251 O 0.33434 0.37945 0.73791 0.0
Mg252 Mg 0.87538 0.08638 0.01516 0.0
O253 O 0.91058 0.14179 0.00413 0.0
O254 O 0.8787 0.19707 0.01459 0.0
Mg255 Mg 0.82217 0.17758 0.03193 0.0
C256 C 0.90789 0.17997 0.00539 0.0
C257 C 0.935 0.01866 0.00123 0.0
O258 O 0.9343 0.01171 0.02116 0.0
O259 O 0.82746 0.09514 -0.00933 0.0
O260 O 0.79674 0.15 0.00281 0.0
O261 O 0.90836 0.08964 0.04501 0.0
O262 O 0.85065 0.11988 0.039 0.0
C263 C 0.80007 0.12183 -0.01034 0.0
C264 C 0.88026 0.11368 0.05115 0.0
O265 O 0.9137 0.04702 -0.00603 0.0
Mg266 Mg 0.16031 0.65092 0.26769 0.0
O267 O 0.1105 0.6953 0.25862 0.0
O268 O 0.05192 0.66668 0.26713 0.0
Mg269 Mg 0.06309 0.60679 0.28311 0.0
C270 C 0.07218 0.6956 0.25935 0.0
C271 C 0.2154 0.72138 0.25036 0.0
O272 O 0.19848 0.74112 0.26556 0.0
O273 O 0.14447 0.60819 0.24161 0.0
O274 O 0.08714 0.58105 0.25333 0.0
O275 O 0.16377 0.67753 0.29938 0.0
O276 O 0.12365 0.62763 0.29079 0.0
C277 C 0.11525 0.58352 0.24003 0.0
C278 C 0.1359 0.6522 0.30458 0.0
O279 O 0.20575 0.68485 0.24742 0.0
Mg280 Mg 0.59919 0.07827 0.90502 0.0
O281 O 0.56094 0.13029 0.9175 0.0
O282 O 0.5907 0.18775 0.90777 0.0
Mg283 Mg 0.64644 0.17371 0.88867 0.0
C284 C 0.5626 0.16867 0.91703 0.0
C285 C 0.53033 0.02434 0.92562 0.0
O286 O 0.50791 0.04157 0.91154 0.0
O287 O 0.64822 0.08949 0.9289 0.0
O288 O 0.6754 0.14643 0.91675 0.0
O289 O 0.56437 0.08015 0.87523 0.0
O290 O 0.6188 0.11584 0.88153 0.0
C291 C 0.67428 0.11764 0.92971 0.0
C292 C 0.5895 0.10779 0.86949 0.0
O293 O 0.56741 0.03334 0.92657 0.0
Mg294 Mg 0.149 0.37355 0.16178 0.0
O295 O 0.09247 0.33958 0.17212 0.0
O296 O 0.0388 0.3703 0.15894 0.0
Mg297 Mg 0.0604 0.42427 0.14017 0.0
C298 C 0.0546 0.34217 0.16955 0.0
C299 C 0.21201 0.31367 0.18075 0.0
O300 O 0.21905 0.30756 0.16109 0.0
O301 O 0.13716 0.42522 0.18376 0.0
O302 O 0.08444 0.45488 0.16879 0.0
O303 O 0.14974 0.33616 0.13328 0.0
O304 O 0.11864 0.39445 0.13601 0.0
C305 C 0.11107 0.45321 0.18282 0.0
C306 C 0.12642 0.3631 0.12529 0.0
O307 O 0.18537 0.33904 0.18594 0.0
Mg308 Mg 0.8851 0.87003 0.42392 0.0
O309 O 0.92131 0.81354 0.43242 0.0
O310 O 0.89622 0.76282 0.41391 0.0
Mg311 Mg 0.84707 0.78602 0.39272 0.0
C312 C 0.92088 0.77657 0.42714 0.0
C313 C 0.94671 0.91019 0.45327 0.0
O314 O 0.97047 0.89452 0.43926 0.0
O315 O 0.82911 0.8481 0.44084 0.0
O316 O 0.80646 0.79971 0.41993 0.0
O317 O 0.92857 0.88378 0.39855 0.0
O318 O 0.87452 0.84578 0.39522 0.0
C319 C 0.80298 0.82175 0.43583 0.0
C320 C 0.90666 0.86056 0.38724 0.0
O321 O 0.90911 0.90418 0.45192 0.0
Mg322 Mg 0.38995 0.69661 0.67579 0.0
O323 O 0.44129 0.74122 0.6816 0.0
O324 O 0.49823 0.71018 0.67289 0.0
Mg325 Mg 0.48419 0.64903 0.65888 0.0
C326 C 0.47947 0.74055 0.67997 0.0
C327 C 0.34095 0.77052 0.69501 0.0
O328 O 0.36118 0.79214 0.68153 0.0
O329 O 0.40746 0.65582 0.70242 0.0
O330 O 0.46146 0.62457 0.68949 0.0
O331 O 0.38301 0.71816 0.64311 0.0
O332 O 0.42283 0.66906 0.65287 0.0
C333 C 0.43487 0.62911 0.70347 0.0
C334 C 0.40853 0.69041 0.63823 0.0
O335 O 0.34696 0.73284 0.69604 0.0
Mg336 Mg 0.35367 0.07297 0.41836 0.0
O337 O 0.39273 0.12472 0.43038 0.0
O338 O 0.3648 0.18263 0.4205 0.0
Mg339 Mg 0.30778 0.16879 0.40252 0.0
C340 C 0.3925 0.16308 0.4296 0.0
C341 C 0.42424 0.02077 0.43527 0.0
O342 O 0.4422 0.03871 0.41969 0.0
O343 O 0.30578 0.08374 0.44278 0.0
O344 O 0.2793 0.14125 0.43111 0.0
O345 O 0.38807 0.07567 0.38884 0.0
O346 O 0.3326 0.1099 0.39491 0.0
C347 C 0.28021 0.11217 0.44396 0.0
C348 C 0.36235 0.10243 0.38295 0.0
O349 O 0.38762 0.02876 0.43898 0.0
Mg350 Mg 0.65674 0.65015 0.17714 0.0
O351 O 0.60346 0.69128 0.18452 0.0
O352 O 0.54693 0.65996 0.17552 0.0
Mg353 Mg 0.56339 0.59962 0.16136 0.0
C354 C 0.56529 0.69013 0.18307 0.0
C355 C 0.72406 0.71252 0.19009 0.0
O356 O 0.73053 0.71315 0.17011 0.0
O357 O 0.64229 0.60785 0.20382 0.0
O358 O 0.58702 0.5772 0.19207 0.0
O359 O 0.65991 0.6753 0.14512 0.0
O360 O 0.62382 0.62235 0.15402 0.0
C361 C 0.61428 0.58181 0.20559 0.0
C362 C 0.63488 0.64727 0.13998 0.0
O363 O 0.69665 0.6898 0.19735 0.0
Mg364 Mg 0.0974 0.85986 0.93193 0.0
O365 O 0.0572 0.80463 0.9361 0.0
O366 O 0.08908 0.75138 0.92327 0.0
Mg367 Mg 0.14863 0.77222 0.90935 0.0
C368 C 0.05881 0.76715 0.93216 0.0
C369 C 0.03705 0.92432 0.94749 0.0
O370 O 0.03938 0.93325 0.92779 0.0
O371 O 0.14128 0.84012 0.9567 0.0
O372 O 0.1735 0.79013 0.94052 0.0
O373 O 0.07224 0.87072 0.90044 0.0
O374 O 0.12545 0.83363 0.90688 0.0
C375 C 0.16903 0.81371 0.9558 0.0
C376 C 0.10118 0.84841 0.89365 0.0
O377 O 0.05771 0.89515 0.95439 0.0
Mg378 Mg 0.88318 0.40439 0.67573 0.0
O379 O 0.93946 0.36997 0.68578 0.0
O380 O 0.99107 0.39232 0.66686 0.0
Mg381 Mg 0.96851 0.43998 0.64443 0.0
C382 C 0.97658 0.36932 0.68081 0.0
C383 C 0.81336 0.36661 0.69816 0.0
O384 O 0.80105 0.37378 0.6793 0.0
O385 O 0.90324 0.46198 0.69165 0.0
O386 O 0.95301 0.48244 0.6707 0.0
O387 O 0.87218 0.35846 0.6518 0.0
O388 O 0.9082 0.4135 0.6467 0.0
C389 C 0.93004 0.48755 0.68622 0.0
C390 C 0.89458 0.38003 0.63974 0.0
O391 O 0.84817 0.37875 0.70325 0.0
Mg392 Mg 0.39712 0.87166 0.01344 0.0
O393 O 0.43379 0.8152 0.0056 0.0
O394 O 0.40741 0.76429 0.02383 0.0
Mg395 Mg 0.35674 0.78712 0.04421 0.0
C396 C 0.43299 0.77819 0.01095 0.0
C397 C 0.46104 0.91396 -0.01451 0.0
O398 O 0.48358 0.8999 0.00042 0.0
O399 O 0.34215 0.85003 -0.00432 0.0
O400 O 0.31848 0.8014 0.01646 0.0
O401 O 0.43852 0.88476 0.03968 0.0
O402 O 0.38416 0.8469 0.04198 0.0
C403 C 0.31583 0.82352 0.00047 0.0
C404 C 0.4156 0.86138 0.05057 0.0
O405 O 0.42362 0.90624 -0.01421 0.0
Mg406 Mg 0.89402 0.70587 0.75517 0.0
O407 O 0.94932 0.74676 0.75215 0.0
O408 O 0.00212 0.71243 0.76382 0.0
Mg409 Mg 0.98086 0.6527 0.77734 0.0
C410 C 0.98684 0.74379 0.7557 0.0
C411 C 0.83179 0.76953 0.73815 0.0
O412 O 0.82241 0.77141 0.75779 0.0
O413 O 0.91473 0.66321 0.72987 0.0
O414 O 0.96355 0.6291 0.74588 0.0
O415 O 0.8808 0.72828 0.78714 0.0
O416 O 0.91974 0.67673 0.78013 0.0
C417 C 0.94057 0.63491 0.7305 0.0
C418 C 0.9036 0.69948 0.79367 0.0
O419 O 0.85966 0.74593 0.73243 0.0
Mg420 Mg 0.08255 0.07571 0.53228 0.0
O421 O 0.0434 0.12713 0.5198 0.0
O422 O 0.074 0.1849 0.52791 0.0
Mg423 Mg 0.13106 0.17163 0.54589 0.0
C424 C 0.04517 0.16552 0.51965 0.0
C425 C 0.0127 0.02224 0.51239 0.0
O426 O 0.9894 0.0419 0.52521 0.0
O427 O 0.12983 0.08555 0.50721 0.0
O428 O 0.15809 0.14294 0.51767 0.0
O429 O 0.0496 0.07896 0.56269 0.0
O430 O 0.10358 0.11431 0.55464 0.0
C431 C 0.15591 0.11348 0.50528 0.0
C432 C 0.07506 0.10686 0.56741 0.0
O433 O 0.05013 0.02973 0.5121 0.0
Mg434 Mg 0.65073 0.3641 0.27858 0.0
O435 O 0.59351 0.33366 0.26677 0.0
O436 O 0.54065 0.36316 0.28168 0.0
Mg437 Mg 0.5634 0.41271 0.30286 0.0
C438 C 0.5557 0.33679 0.26971 0.0
C439 C 0.71266 0.30675 0.25719 0.0
O440 O 0.71752 0.29632 0.27656 0.0
O441 O 0.63992 0.42029 0.25912 0.0
O442 O 0.58784 0.4479 0.27562 0.0
O443 O 0.65105 0.3204 0.30481 0.0
O444 O 0.61976 0.37889 0.30542 0.0
C445 C 0.61429 0.44842 0.26141 0.0
C446 C 0.62705 0.34492 0.31414 0.0
O447 O 0.68748 0.33419 0.25285 0.0
C448 C 0.00445 0.49032 0.93542 0.0
C449 C 0.96404 0.50128 0.93817 0.0
H450 H 0.05389 0.45506 0.94619 0.0
C451 C 0.94212 0.48334 0.95432 0.0
H452 H 0.02224 0.50346 0.92311 0.0
C453 C 0.96028 0.45557 0.96755 0.0
C454 C 1.00082 0.44498 0.96496 0.0
H455 H 0.91093 0.49099 0.95689 0.0
H456 H 0.94256 0.44269 -0.02005 0.0
C457 C 0.02261 0.46248 0.94863 0.0
C458 C 0.7794 0.76253 0.19628 0.0
C459 C 0.7481 0.73829 0.20401 0.0
H460 H 0.82589 0.80508 0.20309 0.0
C461 C 0.73979 0.73902 0.22524 0.0
H462 H 0.78661 0.76271 0.18 0.0
C463 C 0.76217 0.76335 0.23842 0.0
C464 C 0.79354 0.78753 0.23074 0.0
H465 H 0.71588 0.72082 0.23174 0.0
H466 H 0.75487 0.76304 0.25469 0.0
C467 C 0.80192 0.78685 0.20951 0.0
C468 C 0.49482 0.43127 0.48887 0.0
C469 C 0.48962 0.43602 0.46752 0.0
H470 H 0.47906 0.45144 0.51909 0.0
C471 C 0.46272 0.46547 0.46042 0.0
H472 H 0.51523 0.40888 0.49489 0.0
C473 C 0.44193 0.48992 0.47432 0.0
C474 C 0.44753 0.48552 0.49566 0.0
H475 H 0.45791 0.46993 0.44409 0.0
H476 H 0.42174 0.51252 0.4683 0.0
C477 C 0.47404 0.45572 0.50276 0.0
C478 C 0.80279 0.32862 0.73147 0.0
C479 C 0.78881 0.34071 0.712 0.0
H480 H 0.79257 0.29188 0.75823 0.0
C481 C 0.75187 0.32555 0.70505 0.0
H482 H 0.83114 0.33969 0.73726 0.0
C483 C 0.73003 0.29805 0.71692 0.0
C484 C 0.74439 0.28507 0.73614 0.0
H485 H 0.74006 0.33421 0.69017 0.0
H486 H 0.70202 0.28662 0.71087 0.0
C487 C 0.78072 0.30114 0.74345 0.0
C488 C 0.95974 0.48606 0.48143 0.0
C489 C 0.94398 0.4483 0.4761 0.0
H490 H 0.99823 0.53495 0.4731 0.0
C491 C 0.95497 0.43142 0.45708 0.0
H492 H 0.95195 0.50005 0.49593 0.0
C493 C 0.98167 0.45166 0.44387 0.0
C494 C 0.99805 0.48905 0.44947 0.0
H495 H 0.94341 0.40237 0.45252 0.0
H496 H 0.98989 0.43773 0.42942 0.0
C497 C 0.98646 0.5061 0.46833 0.0
C498 C 0.79726 0.81332 0.68714 0.0
C499 C 0.76467 0.83742 0.69318 0.0
H500 H 0.84389 0.77317 0.69648 0.0
C501 C 0.75509 0.83995 0.71424 0.0
H502 H 0.80557 0.81068 0.67106 0.0
C503 C 0.77718 0.81834 0.72887 0.0
C504 C 0.80931 0.79368 0.72277 0.0
H505 H 0.7302 0.85822 0.71942 0.0
H506 H 0.76872 0.82063 0.74494 0.0
C507 C 0.81928 0.79173 0.70174 0.0
C508 C 0.48876 0.48532 0.95572 0.0
C509 C 0.46845 0.45015 0.96187 0.0
H510 H 0.52859 0.53287 0.96412 0.0
C511 C 0.47321 0.43623 -0.01782 0.0
H512 H 0.48588 0.49693 0.94019 0.0
C513 C 0.49783 0.45704 -0.004 0.0
C514 C 0.51831 0.49209 -0.01024 0.0
H515 H 0.45803 0.40923 -0.0126 0.0
H516 H 0.50091 0.44554 0.01154 0.0
C517 C 0.5134 0.50595 -0.03054 0.0
C518 C 0.78498 0.23606 0.23028 0.0
C519 C 0.78003 0.24667 0.20946 0.0
H520 H 0.76776 0.24661 0.26157 0.0
C521 C 0.75286 0.27748 0.20447 0.0
H522 H 0.80563 0.2125 0.23469 0.0
C523 C 0.73107 0.29709 0.21992 0.0
C524 C 0.73595 0.28638 0.24073 0.0
H525 H 0.74829 0.28645 0.1886 0.0
H526 H 0.71034 0.32059 0.21553 0.0
C527 C 0.76322 0.25567 0.24571 0.0
C528 C 0.30105 0.27965 0.7216 0.0
C529 C 0.30264 0.32178 0.72269 0.0
H530 H 0.27077 0.22793 0.71 0.0
C531 C 0.27459 0.34435 0.7114 0.0
H532 H 0.32228 0.26128 0.72999 0.0
C533 C 0.24478 0.32507 0.69986 0.0
C534 C 0.24246 0.28287 0.69938 0.0
H535 H 0.27499 0.37687 0.71191 0.0
H536 H 0.22304 0.34324 0.69171 0.0
C537 C 0.27139 0.26047 0.71012 0.0
C538 C 0.26419 0.72005 0.22079 0.0
C539 C 0.24542 0.7414 0.23678 0.0
H540 H 0.30578 0.72157 0.19562 0.0
C541 C 0.25558 0.78205 0.23961 0.0
H542 H 0.25719 0.68869 0.21819 0.0
C543 C 0.28355 0.80097 0.22663 0.0
C544 C 0.30204 0.77967 0.21053 0.0
H545 H 0.24176 0.7994 0.25179 0.0
H546 H 0.29044 0.83238 0.22913 0.0
C547 C 0.29215 0.73893 0.20785 0.0
C548 C 0.24744 0.27483 0.23266 0.0
C549 C 0.27703 0.24692 0.22693 0.0
H550 H 0.2038 0.31774 0.22268 0.0
C551 C 0.28521 0.24134 0.20588 0.0
H552 H 0.24035 0.27992 0.24873 0.0
C553 C 0.2642 0.26307 0.19091 0.0
C554 C 0.23454 0.29092 0.19665 0.0
H555 H 0.30781 0.22011 0.20092 0.0
H556 H 0.27121 0.25795 0.17484 0.0
C557 C 0.22645 0.29657 0.2177 0.0
C558 C 0.25889 0.78302 0.73505 0.0
C559 C 0.25443 0.82497 0.73584 0.0
H560 H 0.28957 0.73312 0.72173 0.0
C561 C 0.27826 0.84904 0.72278 0.0
H562 H 0.24108 0.76351 0.74487 0.0
C563 C 0.30621 0.83148 0.70938 0.0
C564 C 0.31102 0.78951 0.70885 0.0
H565 H 0.27559 0.88146 0.72301 0.0
H566 H 0.32429 0.85082 0.6996 0.0
C567 C 0.28686 0.76554 0.72178 0.0
C568 C 0.44882 0.94519 0.4773 0.0
C569 C 0.48905 0.93587 0.47282 0.0
H570 H 0.39683 0.97923 0.46903 0.0
C571 C 0.50759 0.95441 0.45576 0.0
H572 H 0.43361 0.93147 0.49032 0.0
C573 C 0.48651 0.9819 0.44359 0.0
C574 C 0.44638 0.99144 0.44816 0.0
H575 H 0.53854 0.94797 0.45188 0.0
H576 H 0.5018 0.99574 0.43063 0.0
C577 C 0.42772 0.97263 0.4651 0.0
C578 C 0.00865 0.93971 -0.01748 0.0
C579 C 0.01076 0.94812 0.9613 0.0
H580 H 0.98316 0.95529 0.01173 0.0
C581 C 0.98747 0.97971 0.95333 0.0
H582 H 0.02616 0.91559 -0.01083 0.0
C583 C 0.96277 0.00244 0.96624 0.0
C584 C 0.96077 0.99417 -0.01253 0.0
H585 H 0.9883 0.98702 0.93706 0.0
H586 H 0.94535 0.02661 0.95957 0.0
C587 C 0.98397 0.9625 -0.00455 0.0
C588 C 0.53671 0.97657 0.95546 0.0
C589 C 0.51262 0.99506 0.94044 0.0
H590 H 0.53949 0.93648 -0.01877 0.0
C591 C 0.47148 0.98554 0.93991 0.0
H592 H 0.56852 0.98305 0.9563 0.0
C593 C 0.45475 0.95867 0.95425 0.0
C594 C 0.47879 0.94069 -0.03054 0.0
H595 H 0.45204 0.99914 0.92853 0.0
H596 H 0.42289 0.9524 0.95358 0.0
C597 C 0.52002 0.94975 -0.03024 0.0
C598 C 0.02088 0.97135 0.48433 0.0
C599 C 0.99566 0.99222 0.49798 0.0
H600 H 0.02535 0.92907 0.45973 0.0
C601 C 0.95416 0.98456 0.49742 0.0
H602 H 0.053 0.97634 0.48436 0.0
C603 C 0.93821 0.95725 0.48324 0.0
C604 C 0.96344 0.93704 0.46931 0.0
H605 H 0.93387 1.00001 0.50775 0.0
H606 H 0.90606 0.95251 0.48298 0.0
C607 C 0.00499 0.94413 0.47019 0.0
C608 C 0.9807 0.18753 -0.00318 0.0
C609 C 0.94252 0.20496 -0.00114 0.0
H610 H 0.04411 0.19745 -0.00425 0.0
C611 C 0.93901 0.247 -0.00241 0.0
H612 H 0.98449 0.15525 -0.00239 0.0
C613 C 0.97328 0.27121 -0.00379 0.0
C614 C 0.01161 0.25376 -0.00359 0.0
H615 H 0.90997 0.26133 -0.00112 0.0
H616 H 0.96978 0.30354 -0.00334 0.0
C617 C 0.01493 0.21171 -0.0042 0.0
C618 C 0.06837 0.77031 0.25575 0.0
C619 C 0.05028 0.73244 0.25353 0.0
H620 H 0.05918 0.83364 0.25882 0.0
C621 C 0.00926 0.73032 0.24877 0.0
H622 H 0.09999 0.77288 0.25934 0.0
C623 C 0.98598 0.76509 0.24818 0.0
C624 C 0.00316 0.80261 0.25273 0.0
H625 H 0.99463 0.70152 0.2467 0.0
H626 H 0.95396 0.76204 0.24584 0.0
C627 C 0.04494 0.80511 0.2555 0.0
C628 C 0.47372 0.68047 0.49947 0.0
C629 C 0.43627 0.69873 0.50286 0.0
H630 H 0.53717 0.68896 0.49671 0.0
C631 C 0.43357 0.74084 0.50173 0.0
H632 H 0.47691 0.64812 0.50013 0.0
C633 C 0.4682 0.76426 0.49952 0.0
C634 C 0.50613 0.74596 0.49873 0.0
H635 H 0.40509 0.75579 0.50408 0.0
H636 H 0.46545 0.79665 0.50026 0.0
C637 C 0.50837 0.70389 0.49763 0.0
C638 C 0.55401 0.29947 0.74655 0.0
C639 C 0.53567 0.26156 0.74475 0.0
H640 H 0.54565 0.36234 0.75172 0.0
C641 C 0.49366 0.25949 0.74305 0.0
H642 H 0.5863 0.30229 0.74772 0.0
C643 C 0.47035 0.29417 0.74504 0.0
C644 C 0.48865 0.33138 0.74907 0.0
H645 H 0.47862 0.23081 0.7414 0.0
H646 H 0.43798 0.29121 0.74507 0.0
C647 C 0.53071 0.33397 0.74886 0.0
C648 C 0.99243 0.766 0.43698 0.0
C649 C 0.95397 0.75 0.43364 0.0
H650 H 0.05546 0.75413 0.43851 0.0
C651 C 0.94915 0.70809 0.43288 0.0
H652 H 0.99709 0.79819 0.4376 0.0
C653 C 0.98251 0.68282 0.43365 0.0
C654 C 0.02139 0.69907 0.43479 0.0
H655 H 0.91979 0.69493 0.43045 0.0
H656 H 0.97794 0.65082 0.43176 0.0
C657 C 0.0259 0.74076 0.43736 0.0
C658 C 0.50896 0.84944 0.67609 0.0
C659 C 0.55098 0.84662 0.67736 0.0
H660 H 0.45295 0.81783 0.67646 0.0
C661 C 0.56807 0.8102 0.68395 0.0
H662 H 0.49484 0.87719 0.67126 0.0
C663 C 0.54413 0.77608 0.68661 0.0
C664 C 0.5026 0.77793 0.68314 0.0
H665 H 0.6003 0.80697 0.68521 0.0
H666 H 0.5585 0.74766 0.68999 0.0
C667 C 0.48492 0.81542 0.67912 0.0
C668 C 0.53272 0.23304 0.92928 0.0
C669 C 0.52804 0.19212 0.9246 0.0
H670 H 0.50394 0.28979 0.93338 0.0
C671 C 0.48921 0.17572 0.92387 0.0
H672 H 0.56234 0.24638 0.93015 0.0
C673 C 0.4557 0.20071 0.92542 0.0
C674 C 0.4605 0.24233 0.92812 0.0
H675 H 0.48466 0.14427 0.92033 0.0
H676 H 0.42617 0.18783 0.92316 0.0
C677 C 0.49922 0.25787 0.93123 0.0
C678 C 0.98686 0.31208 0.17633 0.0
C679 C 0.02885 0.30806 0.17595 0.0
H680 H 0.93003 0.28194 0.17637 0.0
C681 C 0.04566 0.26966 0.17846 0.0
H682 H 0.97303 0.34131 0.1746 0.0
C683 C 0.02106 0.23568 0.17913 0.0
C684 C 0.9792 0.23949 0.17775 0.0
H685 H 0.07788 0.26548 0.17827 0.0
H686 H 0.03493 0.20628 0.17962 0.0
C687 C 0.96222 0.27808 0.17741 0.0
C688 C 0.98875 0.67802 0.93027 0.0
C689 C 0.95131 0.69732 0.92953 0.0
H690 H 0.0525 0.68513 0.93179 0.0
C691 C 0.94938 0.7387 0.93359 0.0
H692 H 0.99125 0.64613 0.92728 0.0
C693 C 0.98446 0.761 0.93639 0.0
C694 C 0.02218 0.74241 0.93486 0.0
H695 H 0.9209 0.75433 0.93336 0.0
H696 H 0.98201 0.79324 0.93815 0.0
C697 C 0.0239 0.70042 0.93276 0.0
C698 C 0.98468 0.30105 0.69645 0.0
C699 C 0.00223 0.33653 0.68876 0.0
H700 H 0.99258 0.23853 0.703 0.0
C701 C 0.04396 0.33763 0.68554 0.0
H702 H 0.95268 0.29923 0.69924 0.0
C703 C 0.06696 0.30287 0.6879 0.0
C704 C 0.04852 0.26625 0.69325 0.0
H705 H 0.05849 0.36468 0.67988 0.0
H706 H 0.09848 0.30408 0.68387 0.0
C707 C 0.00757 0.26617 0.69854 0.0
C708 C 0.46119 0.25004 0.44169 0.0
C709 C 0.49897 0.23142 0.44067 0.0
H710 H 0.3976 0.24284 0.43904 0.0
C711 C 0.50078 0.18928 0.43961 0.0
H712 H 0.45869 0.28241 0.44259 0.0
C713 C 0.46569 0.16652 0.43782 0.0
C714 C 0.42815 0.18556 0.43673 0.0
H715 H 0.52944 0.174 0.43901 0.0
H716 H 0.46826 0.13436 0.43576 0.0
C717 C 0.42615 0.22735 0.43958 0.0
C718 C 0.53721 0.79957 0.18687 0.0
C719 C 0.49509 0.79723 0.18714 0.0
H720 H 0.59265 0.76738 0.1858 0.0
C721 C 0.47674 0.75947 0.18974 0.0
H722 H 0.55224 0.82826 0.18506 0.0
C723 C 0.49987 0.72452 0.18986 0.0
C724 C 0.54181 0.72669 0.18772 0.0
H725 H 0.44436 0.75659 0.19006 0.0
H726 H 0.48472 0.69571 0.19049 0.0
C727 C 0.56038 0.76464 0.18732 0.0
C728 C 0.98062 0.25453 0.50665 0.0
C729 C 0.94238 0.23936 0.51157 0.0
H730 H 0.04365 0.24261 0.50531 0.0
C731 C 0.93772 0.19785 0.51492 0.0
H732 H 0.98519 0.28635 0.50394 0.0
C733 C 0.97119 0.17267 0.51537 0.0
C734 C 0.0099 0.18877 0.51288 0.0
H735 H 0.90852 0.18527 0.51855 0.0
H736 H 0.96697 0.14137 0.5195 0.0
C737 C 0.01415 0.2295 0.5075 0.0
C738 C 0.46164 0.27653 0.2605 0.0
C739 C 0.47756 0.23758 0.2593 0.0
H740 H 0.47425 0.33908 0.26468 0.0
C741 C 0.51927 0.23273 0.25752 0.0
H742 H 0.42958 0.28113 0.26186 0.0
C743 C 0.54481 0.26591 0.25874 0.0
C744 C 0.52908 0.30444 0.26225 0.0
H745 H 0.53228 0.20302 0.25636 0.0
H746 H 0.57689 0.26081 0.2587 0.0
C747 C 0.48723 0.30969 0.26216 0.0
C748 C 0.4621 0.70986 0.00613 0.0
C749 C 0.46671 0.7518 0.00517 0.0
H750 H 0.49119 0.65284 0.00843 0.0
C751 C 0.50533 0.76805 0.00255 0.0
H752 H 0.43263 0.69652 0.00802 0.0
C753 C 0.53897 0.74308 0.00317 0.0
C754 C 0.53448 0.70142 0.00602 0.0
H755 H 0.50984 0.80027 0.00179 0.0
H756 H 0.56852 0.75666 0.00261 0.0
C757 C 0.49568 0.68484 0.00635 0.0
C758 C 0.05459 0.77514 0.75157 0.0
C759 C 0.0128 0.77957 0.75329 0.0
H760 H 0.11211 0.80306 0.75444 0.0
C761 C 0.99677 0.8182 0.756 0.0
H762 H 0.06774 0.74575 0.74927 0.0
C763 C 0.0222 0.851 0.75927 0.0
C764 C 0.06405 0.84583 0.75948 0.0
H765 H 0.96467 0.82257 0.75734 0.0
H766 H 0.00906 0.87983 0.76298 0.0
C767 C 0.08 0.80807 0.75442 0.0
C768 C 0.25778 0.35512 0.95707 0.0
C769 C 0.27557 0.31857 0.95151 0.0
H770 H 0.20674 0.38407 -0.0295 0.0
C771 C 0.25476 0.28246 0.95496 0.0
H772 H 0.27293 0.38339 0.95405 0.0
C773 C 0.21715 0.28283 0.96447 0.0
C774 C 0.19922 0.31942 -0.03013 0.0
H775 H 0.26774 0.25401 0.95042 0.0
H776 H 0.20218 0.25458 0.96776 0.0
C777 C 0.21961 0.35558 0.96595 0.0
C778 C 0.95251 0.04158 0.21456 0.0
C779 C 0.91505 0.05742 0.20908 0.0
H780 H 0.98399 0.99446 0.23013 0.0
C781 C 0.87988 0.03702 0.21488 0.0
H782 H 0.98 0.05659 0.20992 0.0
C783 C 0.8822 1.00068 0.2256 0.0
C784 C 0.91969 0.98488 0.23109 0.0
H785 H 0.85072 0.04829 0.21037 0.0
H786 H 0.85471 0.98535 0.22994 0.0
C787 C 0.95479 0.0059 0.22579 0.0
C788 C 0.19556 0.64606 0.48165 0.0
C789 C 0.18579 0.61101 0.47096 0.0
H790 H 0.23596 0.67494 0.50209 0.0
C791 C 0.2088 0.57618 0.47388 0.0
H792 H 0.17848 0.67337 0.47933 0.0
C793 C 0.24268 0.5772 0.48657 0.0
C794 C 0.25341 0.61293 0.49663 0.0
H795 H 0.20212 0.54907 0.46536 0.0
H796 H 0.26083 0.55042 0.48815 0.0
C797 C 0.22877 0.64694 0.49449 0.0
C798 C 0.66498 0.07711 0.70299 0.0
C799 C 0.62911 0.09913 0.70375 0.0
H800 H 0.69477 0.02478 0.69131 0.0
C801 C 0.59689 0.08781 0.6913 0.0
H802 H 0.6899 0.08493 0.71288 0.0
C803 C 0.59959 0.05372 0.67906 0.0
C804 C 0.6343 0.02973 0.67939 0.0
H805 H 0.56876 0.10405 0.69195 0.0
H806 H 0.57355 0.04507 0.67017 0.0
C807 C 0.66747 0.04235 0.691 0.0
C808 C 0.71987 0.65861 0.967 0.0
C809 C 0.70484 0.62192 -0.02559 0.0
H810 H 0.76239 0.68824 0.94761 0.0
C811 C 0.72153 0.58579 0.96734 0.0
H812 H 0.7076 0.68686 -0.02766 0.0
C813 C 0.75377 0.58655 0.95345 0.0
C814 C 0.76899 0.62343 0.94624 0.0
H815 H 0.71071 0.55717 -0.02687 0.0
H816 H 0.76655 0.55844 0.94827 0.0
C817 C 0.75138 0.65936 0.95296 0.0
C818 C 0.1091 0.05217 0.75692 0.0
C819 C 0.14405 0.02859 0.75596 0.0
H820 H 0.07667 0.10179 0.74432 0.0
C821 C 0.17604 0.04115 0.74334 0.0
H822 H 0.08396 0.04358 0.76662 0.0
C823 C 0.17211 0.07542 0.73098 0.0
C824 C 0.13592 0.09696 0.73089 0.0
H825 H 0.2035 0.02387 0.74253 0.0
H826 H 0.19612 0.08324 0.7204 0.0
C827 C 0.10495 0.08578 0.74435 0.0
C828 C 0.73777 0.27292 0.49079 0.0
C829 C 0.75637 0.31045 0.49324 0.0
H830 H 0.68783 0.24076 0.47813 0.0
C831 C 0.73676 0.34531 0.48652 0.0
H832 H 0.75221 0.24573 0.49619 0.0
C833 C 0.69922 0.34264 0.47721 0.0
C834 C 0.68131 0.30499 0.474 0.0
H835 H 0.75023 0.37463 0.48872 0.0
H836 H 0.68516 0.36986 0.47158 0.0
C837 C 0.70082 0.27012 0.48084 0.0
C838 C 0.37792 0.03751 0.22073 0.0
C839 C 0.41309 0.05735 0.22678 0.0
H840 H 0.35273 0.98588 0.20598 0.0
C841 C 0.45057 0.04066 0.22199 0.0
H842 H 0.3487 0.04943 0.22474 0.0
C843 C 0.45289 0.00457 0.21126 0.0
C844 C 0.41774 0.98404 0.20578 0.0
H845 H 0.47803 0.05522 0.22686 0.0
H846 H 0.48212 0.99242 0.20749 0.0
C847 C 0.38022 1.0008 0.2105 0.0
C848 C 0.74604 0.78214 0.45027 0.0
C849 C 0.76501 0.8194 0.44722 0.0
H850 H 0.69563 0.75098 0.46336 0.0
C851 C 0.74553 0.85472 0.45331 0.0
H852 H 0.76038 0.75457 0.44538 0.0
C853 C 0.70781 0.85278 0.46264 0.0
C854 C 0.68959 0.81542 0.46648 0.0
H855 H 0.75927 0.88383 0.45067 0.0
H856 H 0.69389 0.88036 0.46783 0.0
C857 C 0.70889 0.78011 0.46018 0.0
C858 C 0.3932 0.57905 0.72214 0.0
C859 C 0.43101 0.59649 0.71856 0.0
H860 H 0.36072 0.52872 0.73447 0.0
C861 C 0.46551 0.57726 0.72593 0.0
H862 H 0.36623 0.59292 0.71617 0.0
C863 C 0.46235 0.54075 0.73639 0.0
C864 C 0.42473 0.52236 0.73912 0.0
H865 H 0.495 0.58989 0.72303 0.0
H866 H 0.48943 0.52637 0.74187 0.0
C867 C 0.39011 0.54197 0.73214 0.0
C868 C 0.75177 0.1555 0.96659 0.0
C869 C 0.76941 0.11977 -0.02645 0.0
H870 H 0.70753 0.18254 0.94744 0.0
C871 C 0.75484 0.08271 0.96644 0.0
H872 H 0.76237 0.18444 -0.02808 0.0
C873 C 0.72256 0.08157 0.95271 0.0
C874 C 0.70528 0.11751 0.94569 0.0
H875 H 0.76769 0.05476 -0.02814 0.0
H876 H 0.71176 0.05282 0.94726 0.0
C877 C 0.72027 0.15439 0.95269 0.0
C878 C 0.07865 0.54026 0.21555 0.0
C879 C 0.11531 0.55338 0.22367 0.0
H880 H 0.0487 0.49796 0.19631 0.0
C881 C 0.15086 0.5334 0.21831 0.0
H882 H 0.05083 0.55505 0.21966 0.0
C883 C 0.14951 0.49987 0.20545 0.0
C884 C 0.11271 0.48661 0.19748 0.0
H885 H 0.17936 0.54264 0.22473 0.0
H886 H 0.1772 0.48463 0.20158 0.0
C887 C 0.07741 0.50745 0.20239 0.0
C888 C 0.20149 0.14816 0.48094 0.0
C889 C 0.18598 0.11197 0.48875 0.0
H890 H 0.24373 0.17639 0.46083 0.0
C891 C 0.2021 0.07533 0.48204 0.0
H892 H 0.18962 0.17682 0.48592 0.0
C893 C 0.23391 0.0751 0.4679 0.0
C894 C 0.24922 0.11148 0.46009 0.0
H895 H 0.19088 0.04708 0.4881 0.0
H896 H 0.246 0.04661 0.46283 0.0
C897 C 0.23256 0.14792 0.46666 0.0
C898 C 0.65141 0.4978 0.23925 0.0
C899 C 0.61519 0.48367 0.24772 0.0
H900 H 0.67969 0.54179 0.21975 0.0
C901 C 0.57949 0.50464 0.24381 0.0
H902 H 0.67938 0.48243 0.24231 0.0
C903 C 0.57966 0.53816 0.23095 0.0
C904 C 0.61565 0.55191 0.22218 0.0
H905 H 0.55118 0.49447 0.25024 0.0
H906 H 0.55148 0.55278 0.22741 0.0
C907 C 0.6517 0.53207 0.22672 0.0
C908 C 0.22265 0.78114 -0.02375 0.0
C909 C 0.20287 0.81626 -0.02998 0.0
H910 H 0.27447 0.75606 -0.0092 0.0
C911 C 0.22072 0.85381 -0.02635 0.0
H912 H 0.20974 0.75187 -0.02682 0.0
C913 C 0.25849 0.85612 -0.01723 0.0
C914 C 0.27838 0.82096 -0.01118 0.0
H915 H 0.20644 0.88124 0.96846 0.0
H916 H 0.27188 0.88535 -0.01466 0.0
C917 C 0.25984 0.78352 -0.01408 0.0
C918 C 0.97016 0.54483 0.69959 0.0
C919 C 0.93271 0.52625 0.69688 0.0
H920 H 0.00203 0.59479 0.71239 0.0
C921 C 0.89771 0.5464 0.70294 0.0
H922 H 0.99751 0.53 0.69477 0.0
C923 C 0.90021 0.58421 0.71207 0.0
C924 C 0.9378 0.60184 0.71575 0.0
H925 H 0.86846 0.53297 0.70057 0.0
H926 H 0.87292 0.59848 0.7174 0.0
C927 C 0.97273 0.58205 0.7093 0.0
C928 C 0.10537 0.32324 0.07211 0.0
C929 C 0.08464 0.35568 0.06324 0.0
H930 H 0.13469 0.29991 0.09888 0.0
C931 C 0.0732 0.38798 0.07566 0.0
H932 H 0.11407 0.29763 0.06298 0.0
C933 C 0.08554 0.38956 0.09612 0.0
C934 C 0.10882 0.35848 0.10464 0.0
H935 H 0.05752 0.41353 0.0692 0.0
H936 H 0.07868 0.41633 0.10479 0.0
C937 C 0.11727 0.32455 0.09268 0.0
C938 C 0.93215 0.8857 0.35366 0.0
C939 C 0.91526 0.8544 0.3653 0.0
H940 H 0.94007 0.91111 0.32374 0.0
C941 C 0.90019 0.82037 0.3552 0.0
H942 H 0.9441 0.91221 0.3611 0.0
C943 C 0.8978 0.81961 0.33379 0.0
C944 C 0.91054 0.85292 0.32221 0.0
H945 H 0.88831 0.79518 0.36381 0.0
H946 H 0.88372 0.79406 0.32646 0.0
C947 C 0.92965 0.88506 0.33224 0.0
C948 C 0.4362 0.64207 0.61267 0.0
C949 C 0.4154 0.67802 0.61674 0.0
H950 H 0.44635 0.59413 0.59138 0.0
C951 C 0.39525 0.6973 0.60063 0.0
H952 H 0.45246 0.62658 0.62471 0.0
C953 C 0.39207 0.67864 0.58151 0.0
C954 C 0.4085 0.6403 0.57829 0.0
H955 H 0.37969 0.7254 0.60315 0.0
H956 H 0.37539 0.69373 0.56963 0.0
C957 C 0.43272 0.62333 0.59357 0.0
C958 C 0.60936 0.18448 0.82819 0.0
C959 C 0.60509 0.16092 0.81052 0.0
H960 H 0.60476 0.18675 0.86094 0.0
C961 C 0.58763 0.12244 0.81234 0.0
H962 H 0.6218 0.21453 0.82723 0.0
C963 C 0.57861 0.10628 0.83169 0.0
C964 C 0.58692 0.12836 0.84946 0.0
H965 H 0.58358 0.10356 0.79896 0.0
H966 H 0.56837 0.07542 0.8328 0.0
C967 C 0.60001 0.16839 0.8475 0.0
C968 C 0.14686 0.65824 0.34228 0.0
C969 C 0.12148 0.64811 0.32597 0.0
H970 H 0.15928 0.65177 0.37424 0.0
C971 C 0.08505 0.62833 0.33028 0.0
H972 H 0.17522 0.67328 0.33942 0.0
C973 C 0.0756 0.61615 0.35032 0.0
C974 C 0.10253 0.62346 0.36639 0.0
H975 H 0.06441 0.62081 0.31814 0.0
H976 H 0.04812 0.5995 0.35304 0.0
C977 C 0.13765 0.64575 0.36227 0.0
C978 C 0.64596 0.834 0.59104 0.0
C979 C 0.6254 0.85971 0.60442 0.0
H980 H 0.64893 0.80933 0.5608 0.0
C981 C 0.58722 0.87376 0.59887 0.0
H982 H 0.67515 0.82218 0.59511 0.0
C983 C 0.57212 0.86663 0.57923 0.0
C984 C 0.59493 0.84499 0.56493 0.0
H985 H 0.56955 0.89157 0.60932 0.0
H986 H 0.54397 0.88036 0.57484 0.0
C987 C 0.63081 0.82664 0.5714 0.0
C988 C 0.37884 0.33815 0.83153 0.0
C989 C 0.39914 0.36951 0.82142 0.0
H990 H 0.36567 0.30975 0.86024 0.0
C991 C 0.42715 0.39254 0.83242 0.0
H992 H 0.35734 0.31964 0.82343 0.0
C993 C 0.43245 0.38642 0.85346 0.0
C994 C 0.40924 0.3577 0.86393 0.0
H995 H 0.44337 0.41691 0.82519 0.0
H996 H 0.45242 0.40631 0.86174 0.0
C997 C 0.38367 0.33246 0.85266 0.0
C998 C 0.91398 0.14391 0.10423 0.0
C999 C 0.87921 0.16242 0.11196 0.0
H1000 H 0.94173 0.11389 0.07882 0.0
C1001 C 0.84708 0.1698 0.09866 0.0
H1002 H 0.93963 0.1388 0.11398 0.0
C1003 C 0.84822 0.15542 0.07851 0.0
C1004 C 0.88171 0.13385 0.0713 0.0
H1005 H 0.81984 0.18379 0.10426 0.0
H1006 H 0.82183 0.15921 0.06906 0.0
C1007 C 0.91522 0.12966 0.08407 0.0
C1008 C 0.93589 0.66204 0.82254 0.0
C1009 C 0.90534 0.68774 0.81554 0.0
H1010 H 0.95529 0.62101 0.84596 0.0
C1011 C 0.87229 0.69515 0.82833 0.0
H1012 H 0.96192 0.65602 0.81308 0.0
C1013 C 0.86813 0.67451 0.84695 0.0
C1014 C 0.89738 0.64672 0.85336 0.0
H1015 H 0.84805 0.71437 0.82324 0.0
H1016 H 0.84083 0.67884 0.85568 0.0
C1017 C 0.93201 0.64178 0.84132 0.0
C1018 C 0.06665 0.10663 0.60542 0.0
C1019 C 0.07411 0.12807 0.58722 0.0
H1020 H 0.07506 0.10418 0.63796 0.0
C1021 C 0.08859 0.16769 0.5884 0.0
H1022 H 0.05528 0.07614 0.60492 0.0
C1023 C 0.10074 0.18361 0.60722 0.0
C1024 C 0.09771 0.16034 0.62516 0.0
H1025 H 0.09259 0.18568 0.57468 0.0
H1026 H 0.11456 0.21309 0.6075 0.0
C1027 C 0.07829 0.12272 0.62431 0.0
C1028 C 0.56056 0.35034 0.36116 0.0
C1029 C 0.58395 0.32974 0.37561 0.0
H1030 H 0.5551 0.37003 0.33011 0.0
C1031 C 0.61799 0.30851 0.36881 0.0
H1032 H 0.53386 0.36643 0.36585 0.0
C1033 C 0.63048 0.31106 0.34831 0.0
C1034 C 0.60929 0.33507 0.33435 0.0
H1035 H 0.63662 0.29209 0.37953 0.0
H1036 H 0.65821 0.29659 0.34378 0.0
C1037 C 0.57314 0.35292 0.34069 0.0
C1038 C 0.40589 0.82066 0.08243 0.0
C1039 C 0.42209 0.85481 0.07267 0.0
H1040 H 0.38583 0.79421 0.11075 0.0
C1041 C 0.43763 0.88597 0.08467 0.0
H1042 H 0.39517 0.79548 0.0736 0.0
C1043 C 0.43259 0.88513 0.10599 0.0
C1044 C 0.41216 0.85298 0.11555 0.0
H1045 H 0.45042 0.91256 0.07752 0.0
H1046 H 0.44203 0.91111 0.11469 0.0
C1047 C 0.40079 0.81978 0.10374 0.0
C1048 C 0.9272 0.39145 0.60553 0.0
C1049 C 0.90169 0.36839 0.6182 0.0
H1050 H 0.94575 0.40551 0.5748 0.0
C1051 C 0.87918 0.33722 0.60946 0.0
H1052 H 0.94512 0.41554 0.61177 0.0
C1053 C 0.87915 0.33184 0.58819 0.0
C1054 C 0.90206 0.35716 0.57537 0.0
H1055 H 0.8595 0.31871 0.61885 0.0
H1056 H 0.85952 0.30927 0.58182 0.0
C1057 C 0.92763 0.38565 0.58429 0.0
C1058 C 0.33729 0.1651 0.33618 0.0
C1059 C 0.37065 0.1577 0.32358 0.0
H1060 H 0.30811 0.15246 0.36478 0.0
C1061 C 0.40362 0.13686 0.33175 0.0
H1062 H 0.31138 0.18087 0.33023 0.0
C1063 C 0.40177 0.12031 0.35148 0.0
C1064 C 0.36695 0.12458 0.36341 0.0
H1065 H 0.43016 0.1316 0.32258 0.0
H1066 H 0.4269 0.1028 0.35702 0.0
C1067 C 0.33538 0.1485 0.35593 0.0
C1068 C 0.63951 0.6637 0.10253 0.0
C1069 C 0.62135 0.6419 0.11854 0.0
H1070 H 0.64828 0.66962 0.07025 0.0
C1071 C 0.59343 0.61163 0.11366 0.0
H1072 H 0.66108 0.68721 0.10576 0.0
C1073 C 0.5856 0.60184 0.09318 0.0
C1074 C 0.60607 0.62164 0.0772 0.0
H1075 H 0.57895 0.59405 0.12557 0.0
H1076 H 0.56534 0.57719 0.08995 0.0
C1077 C 0.63217 0.65346 0.08208 0.0
C1078 C 0.10179 0.87188 0.83718 0.0
C1079 C 0.14064 0.85934 0.83179 0.0
H1080 H 0.05812 0.87772 0.86122 0.0
C1081 C 0.16229 0.83532 0.84552 0.0
H1082 H 0.08339 0.88827 0.82644 0.0
C1083 C 0.14736 0.82828 0.86531 0.0
C1084 C 0.11062 0.84526 0.87156 0.0
H1085 H 0.19205 0.82471 0.84158 0.0
H1086 H 0.16621 0.81234 0.87613 0.0
C1087 C 0.08693 0.86513 0.85698 0.0
loop_
_geom_bond_atom_site_label_1
_geom_bond_atom_site_label_2
_geom_bond_distance
_geom_bond_site_symmetry_2
_ccdc_geom_bond_type
Mg0 O1 2.028 . S
Mg0 O7 1.986 . S
Mg0 O9 2.114 . S
Mg0 O10 2.251 . S
Mg0 O13 2.010 . S
O1 Mg0 2.028 . S
O1 C4 1.250 . S
O2 Mg3 2.028 . S
O2 C4 1.248 . S
Mg3 O2 2.028 . S
Mg3 O8 2.032 . S
Mg3 O10 2.079 . S
C4 O1 1.250 . S
C4 O2 1.248 . S
C5 O6 1.264 . S
C5 O13 1.249 . S
O6 C5 1.264 . S
O7 Mg0 1.986 . S
O7 C11 1.246 . S
O8 Mg3 2.032 . S
O8 C11 1.259 . S
O9 Mg0 2.114 . S
O9 C12 1.252 . S
O10 Mg0 2.251 . S
O10 Mg3 2.079 . S
O10 C12 1.273 . S
C11 O7 1.246 . S
C11 O8 1.259 . S
C12 O9 1.252 . S
C12 O10 1.273 . S
O13 Mg0 2.010 . S
O13 C5 1.249 . S
Mg14 O15 2.028 . S
Mg14 O21 1.986 . S
Mg14 O23 2.114 . S
Mg14 O24 2.251 . S
Mg14 O27 2.010 . S
O15 Mg14 2.028 . S
O15 C18 1.250 . S
O16 Mg17 2.028 . S
O16 C18 1.248 . S
Mg17 O16 2.028 . S
Mg17 O22 2.032 . S
Mg17 O24 2.079 . S
C18 O15 1.250 . S
C18 O16 1.248 . S
C19 O20 1.264 . S
C19 O27 1.249 . S
O20 C19 1.264 . S
O21 Mg14 1.986 . S
O21 C25 1.246 . S
O22 Mg17 2.032 . S
O22 C25 1.259 . S
O23 Mg14 2.114 . S
O23 C26 1.252 . S
O24 Mg14 2.251 . S
O24 Mg17 2.079 . S
O24 C26 1.273 . S
C25 O21 1.246 . S
C25 O22 1.259 . S
C26 O23 1.252 . S
C26 O24 1.273 . S
O27 Mg14 2.010 . S
O27 C19 1.249 . S
Mg28 O29 2.028 . S
Mg28 O35 1.986 . S
Mg28 O37 2.114 . S
Mg28 O38 2.251 . S
Mg28 O41 2.010 . S
O29 Mg28 2.028 . S
O29 C32 1.250 . S
O30 Mg31 2.028 . S
O30 C32 1.248 . S
Mg31 O30 2.028 . S
Mg31 O36 2.032 . S
Mg31 O38 2.079 . S
C32 O29 1.250 . S
C32 O30 1.248 . S
C33 O34 1.264 . S
C33 O41 1.249 . S
O34 C33 1.264 . S
O35 Mg28 1.986 . S
O35 C39 1.246 . S
O36 Mg31 2.032 . S
O36 C39 1.259 . S
O37 Mg28 2.114 . S
O37 C40 1.252 . S
O38 Mg28 2.251 . S
O38 Mg31 2.079 . S
O38 C40 1.273 . S
C39 O35 1.246 . S
C39 O36 1.259 . S
C40 O37 1.252 . S
C40 O38 1.273 . S
O41 Mg28 2.010 . S
O41 C33 1.249 . S
Mg42 O43 2.028 . S
Mg42 O49 1.986 . S
Mg42 O51 2.114 . S
Mg42 O52 2.251 . S
Mg42 O55 2.010 . S
O43 Mg42 2.028 . S
O43 C46 1.250 . S
O44 Mg45 2.028 . S
O44 C46 1.248 . S
Mg45 O44 2.028 . S
Mg45 O50 2.032 . S
Mg45 O52 2.079 . S
C46 O43 1.250 . S
C46 O44 1.248 . S
C47 O48 1.264 . S
C47 O55 1.249 . S
O48 C47 1.264 . S
O49 Mg42 1.986 . S
O49 C53 1.246 . S
O50 Mg45 2.032 . S
O50 C53 1.259 . S
O51 Mg42 2.114 . S
O51 C54 1.252 . S
O52 Mg42 2.251 . S
O52 Mg45 2.079 . S
O52 C54 1.273 . S
C53 O49 1.246 . S
C53 O50 1.259 . S
C54 O51 1.252 . S
C54 O52 1.273 . S
O55 Mg42 2.010 . S
O55 C47 1.249 . S
Mg56 O57 2.028 . S
Mg56 O63 1.986 . S
Mg56 O65 2.114 . S
Mg56 O66 2.251 . S
Mg56 O69 2.010 . S
O57 Mg56 2.028 . S
O57 C60 1.250 . S
O58 Mg59 2.028 . S
O58 C60 1.248 . S
Mg59 O58 2.028 . S
Mg59 O64 2.032 . S
Mg59 O66 2.079 . S
C60 O57 1.250 . S
C60 O58 1.248 . S
C61 O62 1.264 . S
C61 O69 1.249 . S
O62 C61 1.264 . S
O63 Mg56 1.986 . S
O63 C67 1.246 . S
O64 Mg59 2.032 . S
O64 C67 1.259 . S
O65 Mg56 2.114 . S
O65 C68 1.252 . S
O66 Mg56 2.251 . S
O66 Mg59 2.079 . S
O66 C68 1.273 . S
C67 O63 1.246 . S
C67 O64 1.259 . S
C68 O65 1.252 . S
C68 O66 1.273 . S
O69 Mg56 2.010 . S
O69 C61 1.249 . S
Mg70 O71 2.028 . S
Mg70 O77 1.986 . S
Mg70 O79 2.114 . S
Mg70 O80 2.251 . S
Mg70 O83 2.010 . S
O71 Mg70 2.028 . S
O71 C74 1.250 . S
O72 Mg73 2.028 . S
O72 C74 1.248 . S
Mg73 O72 2.028 . S
Mg73 O78 2.032 . S
Mg73 O80 2.079 . S
C74 O71 1.250 . S
C74 O72 1.248 . S
C75 O76 1.264 . S
C75 O83 1.249 . S
O76 C75 1.264 . S
O77 Mg70 1.986 . S
O77 C81 1.246 . S
O78 Mg73 2.032 . S
O78 C81 1.259 . S
O79 Mg70 2.114 . S
O79 C82 1.252 . S
O80 Mg70 2.251 . S
O80 Mg73 2.079 . S
O80 C82 1.273 . S
C81 O77 1.246 . S
C81 O78 1.259 . S
C82 O79 1.252 . S
C82 O80 1.273 . S
O83 Mg70 2.010 . S
O83 C75 1.249 . S
Mg84 O85 2.028 . S
Mg84 O91 1.986 . S
Mg84 O93 2.114 . S
Mg84 O94 2.251 . S
Mg84 O97 2.010 . S
O85 Mg84 2.028 . S
O85 C88 1.250 . S
O86 Mg87 2.028 . S
O86 C88 1.248 . S
Mg87 O86 2.028 . S
Mg87 O92 2.032 . S
Mg87 O94 2.079 . S
C88 O85 1.250 . S
C88 O86 1.248 . S
C89 O90 1.264 . S
C89 O97 1.249 . S
O90 C89 1.264 . S
O91 Mg84 1.986 . S
O91 C95 1.246 . S
O92 Mg87 2.032 . S
O92 C95 1.259 . S
O93 Mg84 2.114 . S
O93 C96 1.252 . S
O94 Mg84 2.251 . S
O94 Mg87 2.079 . S
O94 C96 1.273 . S
C95 O91 1.246 . S
C95 O92 1.259 . S
C96 O93 1.252 . S
C96 O94 1.273 . S
O97 Mg84 2.010 . S
O97 C89 1.249 . S
Mg98 O99 2.028 . S
Mg98 O105 1.986 . S
Mg98 O107 2.114 . S
Mg98 O108 2.251 . S
Mg98 O111 2.010 . S
O99 Mg98 2.028 . S
O99 C102 1.250 . S
O100 Mg101 2.028 . S
O100 C102 1.248 . S
Mg101 O100 2.028 . S
Mg101 O106 2.032 . S
Mg101 O108 2.079 . S
C102 O99 1.250 . S
C102 O100 1.248 . S
C103 O104 1.264 . S
C103 O111 1.249 . S
O104 C103 1.264 . S
O105 Mg98 1.986 . S
O105 C109 1.246 . S
O106 Mg101 2.032 . S
O106 C109 1.259 . S
O107 Mg98 2.114 . S
O107 C110 1.252 . S
O108 Mg98 2.251 . S
O108 Mg101 2.079 . S
O108 C110 1.273 . S
C109 O105 1.246 . S
C109 O106 1.259 . S
C110 O107 1.252 . S
C110 O108 1.273 . S
O111 Mg98 2.010 . S
O111 C103 1.249 . S
Mg112 O113 2.028 . S
Mg112 O119 1.986 . S
Mg112 O121 2.114 . S
Mg112 O122 2.251 . S
Mg112 O125 2.010 . S
O113 Mg112 2.028 . S
O113 C116 1.250 . S
O114 Mg115 2.028 . S
O114 C116 1.248 . S
Mg115 O114 2.028 . S
Mg115 O120 2.032 . S
Mg115 O122 2.079 . S
C116 O113 1.250 . S
C116 O114 1.248 . S
C117 O118 1.264 . S
C117 O125 1.249 . S
O118 C117 1.264 . S
O119 Mg112 1.986 . S
O119 C123 1.246 . S
O120 Mg115 2.032 . S
O120 C123 1.259 . S
O121 Mg112 2.114 . S
O121 C124 1.252 . S
O122 Mg112 2.251 . S
O122 Mg115 2.079 . S
O122 C124 1.273 . S
C123 O119 1.246 . S
C123 O120 1.259 . S
C124 O121 1.252 . S
C124 O122 1.273 . S
O125 Mg112 2.010 . S
O125 C117 1.249 . S
Mg126 O127 2.028 . S
Mg126 O133 1.986 . S
Mg126 O135 2.114 . S
Mg126 O136 2.251 . S
Mg126 O139 2.010 . S
O127 Mg126 2.028 . S
O127 C130 1.250 . S
O128 Mg129 2.028 . S
O128 C130 1.248 . S
Mg129 O128 2.028 . S
Mg129 O134 2.032 . S
Mg129 O136 2.079 . S
C130 O127 1.250 . S
C130 O128 1.248 . S
C131 O132 1.264 . S
C131 O139 1.249 . S
O132 C131 1.264 . S
O133 Mg126 1.986 . S
O133 C137 1.246 . S
O134 Mg129 2.032 . S
O134 C137 1.259 . S
O135 Mg126 2.114 . S
O135 C138 1.252 . S
O136 Mg126 2.251 . S
O136 Mg129 2.079 . S
O136 C138 1.273 . S
C137 O133 1.246 . S
C137 O134 1.259 . S
C138 O135 1.252 . S
C138 O136 1.273 . S
O139 Mg126 2.010 . S
O139 C131 1.249 . S
Mg140 O141 2.028 . S
Mg140 O147 1.986 . S
Mg140 O149 2.114 . S
Mg140 O150 2.251 . S
Mg140 O153 2.010 . S
O141 Mg140 2.028 . S
O141 C144 1.250 . S
O142 Mg143 2.028 . S
O142 C144 1.248 . S
Mg143 O142 2.028 . S
Mg143 O148 2.032 . S
Mg143 O150 2.079 . S
C144 O141 1.250 . S
C144 O142 1.248 . S
C145 O146 1.264 . S
C145 O153 1.249 . S
O146 C145 1.264 . S
O147 Mg140 1.986 . S
O147 C151 1.246 . S
O148 Mg143 2.032 . S
O148 C151 1.259 . S
O149 Mg140 2.114 . S
O149 C152 1.252 . S
O150 Mg140 2.251 . S
O150 Mg143 2.079 . S
O150 C152 1.273 . S
C151 O147 1.246 . S
C151 O148 1.259 . S
C152 O149 1.252 . S
C152 O150 1.273 . S
O153 Mg140 2.010 . S
O153 C145 1.249 . S
Mg154 O155 2.028 . S
Mg154 O161 1.986 . S
Mg154 O163 2.114 . S
Mg154 O164 2.251 . S
Mg154 O167 2.010 . S
O155 Mg154 2.028 . S
O155 C158 1.250 . S
O156 Mg157 2.028 . S
O156 C158 1.248 . S
Mg157 O156 2.028 . S
Mg157 O162 2.032 . S
Mg157 O164 2.079 . S
C158 O155 1.250 . S
C158 O156 1.248 . S
C159 O160 1.264 . S
C159 O167 1.249 . S
O160 C159 1.264 . S
O161 Mg154 1.986 . S
O161 C165 1.246 . S
O162 Mg157 2.032 . S
O162 C165 1.259 . S
O163 Mg154 2.114 . S
O163 C166 1.252 . S
O164 Mg154 2.251 . S
O164 Mg157 2.079 . S
O164 C166 1.273 . S
C165 O161 1.246 . S
C165 O162 1.259 . S
C166 O163 1.252 . S
C166 O164 1.273 . S
O167 Mg154 2.010 . S
O167 C159 1.249 . S
Mg168 O169 2.028 . S
Mg168 O175 1.986 . S
Mg168 O177 2.114 . S
Mg168 O178 2.251 . S
Mg168 O181 2.010 . S
O169 Mg168 2.028 . S
O169 C172 1.250 . S
O170 Mg171 2.028 . S
O170 C172 1.248 . S
Mg171 O170 2.028 . S
Mg171 O176 2.032 . S
Mg171 O178 2.079 . S
C172 O169 1.250 . S
C172 O170 1.248 . S
C173 O174 1.264 . S
C173 O181 1.249 . S
O174 C173 1.264 . S
O175 Mg168 1.986 . S
O175 C179 1.246 . S
O176 Mg171 2.032 . S
O176 C179 1.259 . S
O177 Mg168 2.114 . S
O177 C180 1.252 . S
O178 Mg168 2.251 . S
O178 Mg171 2.079 . S
O178 C180 1.273 . S
C179 O175 1.246 . S
C179 O176 1.259 . S
C180 O177 1.252 . S
C180 O178 1.273 . S
O181 Mg168 2.010 . S
O181 C173 1.249 . S
Mg182 O183 2.028 . S
Mg182 O189 1.986 . S
Mg182 O191 2.114 . S
Mg182 O192 2.251 . S
Mg182 O195 2.010 . S
O183 Mg182 2.028 . S
O183 C186 1.250 . S
O184 Mg185 2.028 . S
O184 C186 1.248 . S
Mg185 O184 2.028 . S
Mg185 O190 2.032 . S
Mg185 O192 2.079 . S
C186 O183 1.250 . S
C186 O184 1.248 . S
C187 O188 1.264 . S
C187 O195 1.249 . S
O188 C187 1.264 . S
O189 Mg182 1.986 . S
O189 C193 1.246 . S
O190 Mg185 2.032 . S
O190 C193 1.259 . S
O191 Mg182 2.114 . S
O191 C194 1.252 . S
O192 Mg182 2.251 . S
O192 Mg185 2.079 . S
O192 C194 1.273 . S
C193 O189 1.246 . S
C193 O190 1.259 . S
C194 O191 1.252 . S
C194 O192 1.273 . S
O195 Mg182 2.010 . S
O195 C187 1.249 . S
Mg196 O197 2.028 . S
Mg196 O203 1.986 . S
Mg196 O205 2.114 . S
Mg196 O206 2.251 . S
Mg196 O209 2.010 . S
O197 Mg196 2.028 . S
O197 C200 1.250 . S
O198 Mg199 2.028 . S
O198 C200 1.248 . S
Mg199 O198 2.028 . S
Mg199 O204 2.032 . S
Mg199 O206 2.079 . S
C200 O197 1.250 . S
C200 O198 1.248 . S
C201 O202 1.264 . S
C201 O209 1.249 . S
O202 C201 1.264 . S
O203 Mg196 1.986 . S
O203 C207 1.246 . S
O204 Mg199 2.032 . S
O204 C207 1.259 . S
O205 Mg196 2.114 . S
O205 C208 1.252 . S
O206 Mg196 2.251 . S
O206 Mg199 2.079 . S
O206 C208 1.273 . S
C207 O203 1.246 . S
C207 O204 1.259 . S
C208 O205 1.252 . S
C208 O206 1.273 . S
O209 Mg196 2.010 . S
O209 C201 1.249 . S
Mg210 O211 2.028 . S
Mg210 O217 1.986 . S
Mg210 O219 2.114 . S
Mg210 O220 2.251 . S
Mg210 O223 2.010 . S
O211 Mg210 2.028 . S
O211 C214 1.250 . S
O212 Mg213 2.028 . S
O212 C214 1.248 . S
Mg213 O212 2.028 . S
Mg213 O218 2.032 . S
Mg213 O220 2.079 . S
C214 O211 1.250 . S
C214 O212 1.248 . S
C215 O216 1.264 . S
C215 O223 1.249 . S
O216 C215 1.264 . S
O217 Mg210 1.986 . S
O217 C221 1.246 . S
O218 Mg213 2.032 . S
O218 C221 1.259 . S
O219 Mg210 2.114 . S
O219 C222 1.252 . S
O220 Mg210 2.251 . S
O220 Mg213 2.079 . S
O220 C222 1.273 . S
C221 O217 1.246 . S
C221 O218 1.259 . S
C222 O219 1.252 . S
C222 O220 1.273 . S
O223 Mg210 2.010 . S
O223 C215 1.249 . S
Mg224 O225 2.028 . S
Mg224 O231 1.986 . S
Mg224 O233 2.114 . S
Mg224 O234 2.251 . S
Mg224 O237 2.010 . S
O225 Mg224 2.028 . S
O225 C228 1.250 . S
O226 Mg227 2.028 . S
O226 C228 1.248 . S
Mg227 O226 2.028 . S
Mg227 O232 2.032 . S
Mg227 O234 2.079 . S
C228 O225 1.250 . S
C228 O226 1.248 . S
C229 O230 1.264 . S
C229 O237 1.249 . S
O230 C229 1.264 . S
O231 Mg224 1.986 . S
O231 C235 1.246 . S
O232 Mg227 2.032 . S
O232 C235 1.259 . S
O233 Mg224 2.114 . S
O233 C236 1.252 . S
O234 Mg224 2.251 . S
O234 Mg227 2.079 . S
O234 C236 1.273 . S
C235 O231 1.246 . S
C235 O232 1.259 . S
C236 O233 1.252 . S
C236 O234 1.273 . S
O237 Mg224 2.010 . S
O237 C229 1.249 . S
Mg238 O239 2.028 . S
Mg238 O245 1.986 . S
Mg238 O247 2.114 . S
Mg238 O248 2.251 . S
Mg238 O251 2.010 . S
O239 Mg238 2.028 . S
O239 C242 1.250 . S
O240 Mg241 2.028 . S
O240 C242 1.248 . S
Mg241 O240 2.028 . S
Mg241 O246 2.032 . S
Mg241 O248 2.079 . S
C242 O239 1.250 . S
C242 O240 1.248 . S
C243 O244 1.264 . S
C243 O251 1.249 . S
O244 C243 1.264 . S
O245 Mg238 1.986 . S
O245 C249 1.246 . S
O246 Mg241 2.032 . S
O246 C249 1.259 . S
O247 Mg238 2.114 . S
O247 C250 1.252 . S
O248 Mg238 2.251 . S
O248 Mg241 2.079 . S
O248 C250 1.273 . S
C249 O245 1.246 . S
C249 O246 1.259 . S
C250 O247 1.252 . S
C250 O248 1.273 . S
O251 Mg238 2.010 . S
O251 C243 1.249 . S
Mg252 O253 2.028 . S
Mg252 O259 1.986 . S
Mg252 O261 2.114 . S
Mg252 O262 2.251 . S
Mg252 O265 2.010 . S
O253 Mg252 2.028 . S
O253 C256 1.250 . S
O254 Mg255 2.028 . S
O254 C256 1.248 . S
Mg255 O254 2.028 . S
Mg255 O260 2.032 . S
Mg255 O262 2.079 . S
C256 O253 1.250 . S
C256 O254 1.248 . S
C257 O258 1.264 . S
C257 O265 1.249 . S
O258 C257 1.264 . S
O259 Mg252 1.986 . S
O259 C263 1.246 . S
O260 Mg255 2.032 . S
O260 C263 1.259 . S
O261 Mg252 2.114 . S
O261 C264 1.252 . S
O262 Mg252 2.251 . S
O262 Mg255 2.079 . S
O262 C264 1.273 . S
C263 O259 1.246 . S
C263 O260 1.259 . S
C264 O261 1.252 . S
C264 O262 1.273 . S
O265 Mg252 2.010 . S
O265 C257 1.249 . S
Mg266 O267 2.028 . S
Mg266 O273 1.986 . S
Mg266 O275 2.114 . S
Mg266 O276 2.251 . S
Mg266 O279 2.010 . S
O267 Mg266 2.028 . S
O267 C270 1.250 . S
O268 Mg269 2.028 . S
O268 C270 1.248 . S
Mg269 O268 2.028 . S
Mg269 O274 2.032 . S
Mg269 O276 2.079 . S
C270 O267 1.250 . S
C270 O268 1.248 . S
C271 O272 1.264 . S
C271 O279 1.249 . S
O272 C271 1.264 . S
O273 Mg266 1.986 . S
O273 C277 1.246 . S
O274 Mg269 2.032 . S
O274 C277 1.259 . S
O275 Mg266 2.114 . S
O275 C278 1.252 . S
O276 Mg266 2.251 . S
O276 Mg269 2.079 . S
O276 C278 1.273 . S
C277 O273 1.246 . S
C277 O274 1.259 . S
C278 O275 1.252 . S
C278 O276 1.273 . S
O279 Mg266 2.010 . S
O279 C271 1.249 . S
Mg280 O281 2.028 . S
Mg280 O287 1.986 . S
Mg280 O289 2.114 . S
Mg280 O290 2.251 . S
Mg280 O293 2.010 . S
O281 Mg280 2.028 . S
O281 C284 1.250 . S
O282 Mg283 2.028 . S
O282 C284 1.248 . S
Mg283 O282 2.028 . S
Mg283 O288 2.032 . S
Mg283 O290 2.079 . S
C284 O281 1.250 . S
C284 O282 1.248 . S
C285 O286 1.264 . S
C285 O293 1.249 . S
O286 C285 1.264 . S
O287 Mg280 1.986 . S
O287 C291 1.246 . S
O288 Mg283 2.032 . S
O288 C291 1.259 . S
O289 Mg280 2.114 . S
O289 C292 1.252 . S
O290 Mg280 2.251 . S
O290 Mg283 2.079 . S
O290 C292 1.273 . S
C291 O287 1.246 . S
C291 O288 1.259 . S
C292 O289 1.252 . S
C292 O290 1.273 . S
O293 Mg280 2.010 . S
O293 C285 1.249 . S
Mg294 O295 2.028 . S
Mg294 O301 1.986 . S
Mg294 O303 2.114 . S
Mg294 O304 2.251 . S
Mg294 O307 2.010 . S
O295 Mg294 2.028 . S
O295 C298 1.250 . S
O296 Mg297 2.028 . S
O296 C298 1.248 . S
Mg297 O296 2.028 . S
Mg297 O302 2.032 . S
Mg297 O304 2.079 . S
C298 O295 1.250 . S
C298 O296 1.248 . S
C299 O300 1.264 . S
C299 O307 1.249 . S
O300 C299 1.264 . S
O301 Mg294 1.986 . S
O301 C305 1.246 . S
O302 Mg297 2.032 . S
O302 C305 1.259 . S
O303 Mg294 2.114 . S
O303 C306 1.252 . S
O304 Mg294 2.251 . S
O304 Mg297 2.079 . S
O304 C306 1.273 . S
C305 O301 1.246 . S
C305 O302 1.259 . S
C306 O303 1.252 . S
C306 O304 1.273 . S
O307 Mg294 2.010 . S
O307 C299 1.249 . S
Mg308 O309 2.028 . S
Mg308 O315 1.986 . S
Mg308 O317 2.114 . S
Mg308 O318 2.251 . S
Mg308 O321 2.010 . S
O309 Mg308 2.028 . S
O309 C312 1.250 . S
O310 Mg311 2.028 . S
O310 C312 1.248 . S
Mg311 O310 2.028 . S
Mg311 O316 2.032 . S
Mg311 O318 2.079 . S
C312 O309 1.250 . S
C312 O310 1.248 . S
C313 O314 1.264 . S
C313 O321 1.249 . S
O314 C313 1.264 . S
O315 Mg308 1.986 . S
O315 C319 1.246 . S
O316 Mg311 2.032 . S
O316 C319 1.259 . S
O317 Mg308 2.114 . S
O317 C320 1.252 . S
O318 Mg308 2.251 . S
O318 Mg311 2.079 . S
O318 C320 1.273 . S
C319 O315 1.246 . S
C319 O316 1.259 . S
C320 O317 1.252 . S
C320 O318 1.273 . S
O321 Mg308 2.010 . S
O321 C313 1.249 . S
Mg322 O323 2.028 . S
Mg322 O329 1.986 . S
Mg322 O331 2.114 . S
Mg322 O332 2.251 . S
Mg322 O335 2.010 . S
O323 Mg322 2.028 . S
O323 C326 1.250 . S
O324 Mg325 2.028 . S
O324 C326 1.248 . S
Mg325 O324 2.028 . S
Mg325 O330 2.032 . S
Mg325 O332 2.079 . S
C326 O323 1.250 . S
C326 O324 1.248 . S
C327 O328 1.264 . S
C327 O335 1.249 . S
O328 C327 1.264 . S
O329 Mg322 1.986 . S
O329 C333 1.246 . S
O330 Mg325 2.032 . S
O330 C333 1.259 . S
O331 Mg322 2.114 . S
O331 C334 1.252 . S
O332 Mg322 2.251 . S
O332 Mg325 2.079 . S
O332 C334 1.273 . S
C333 O329 1.246 . S
C333 O330 1.259 . S
C334 O331 1.252 . S
C334 O332 1.273 . S
O335 Mg322 2.010 . S
O335 C327 1.249 . S
Mg336 O337 2.028 . S
Mg336 O343 1.986 . S
Mg336 O345 2.114 . S
Mg336 O346 2.251 . S
Mg336 O349 2.010 . S
O337 Mg336 2.028 . S
O337 C340 1.250 . S
O338 Mg339 2.028 . S
O338 C340 1.248 . S
Mg339 O338 2.028 . S
Mg339 O344 2.032 . S
Mg339 O346 2.079 . S
C340 O337 1.250 . S
C340 O338 1.248 . S
C341 O342 1.264 . S
C341 O349 1.249 . S
O342 C341 1.264 . S
O343 Mg336 1.986 . S
O343 C347 1.246 . S
O344 Mg339 2.032 . S
O344 C347 1.259 . S
O345 Mg336 2.114 . S
O345 C348 1.252 . S
O346 Mg336 2.251 . S
O346 Mg339 2.079 . S
O346 C348 1.273 . S
C347 O343 1.246 . S
C347 O344 1.259 . S
C348 O345 1.252 . S
C348 O346 1.273 . S
O349 Mg336 2.010 . S
O349 C341 1.249 . S
Mg350 O351 2.028 . S
Mg350 O357 1.986 . S
Mg350 O359 2.114 . S
Mg350 O360 2.251 . S
Mg350 O363 2.010 . S
O351 Mg350 2.028 . S
O351 C354 1.250 . S
O352 Mg353 2.028 . S
O352 C354 1.248 . S
Mg353 O352 2.028 . S
Mg353 O358 2.032 . S
Mg353 O360 2.079 . S
C354 O351 1.250 . S
C354 O352 1.248 . S
C355 O356 1.264 . S
C355 O363 1.249 . S
O356 C355 1.264 . S
O357 Mg350 1.986 . S
O357 C361 1.246 . S
O358 Mg353 2.032 . S
O358 C361 1.259 . S
O359 Mg350 2.114 . S
O359 C362 1.252 . S
O360 Mg350 2.251 . S
O360 Mg353 2.079 . S
O360 C362 1.273 . S
C361 O357 1.246 . S
C361 O358 1.259 . S
C362 O359 1.252 . S
C362 O360 1.273 . S
O363 Mg350 2.010 . S
O363 C355 1.249 . S
Mg364 O365 2.028 . S
Mg364 O371 1.986 . S
Mg364 O373 2.114 . S
Mg364 O374 2.251 . S
Mg364 O377 2.010 . S
O365 Mg364 2.028 . S
O365 C368 1.250 . S
O366 Mg367 2.028 . S
O366 C368 1.248 . S
Mg367 O366 2.028 . S
Mg367 O372 2.032 . S
Mg367 O374 2.079 . S
C368 O365 1.250 . S
C368 O366 1.248 . S
C369 O370 1.264 . S
C369 O377 1.249 . S
O370 C369 1.264 . S
O371 Mg364 1.986 . S
O371 C375 1.246 . S
O372 Mg367 2.032 . S
O372 C375 1.259 . S
O373 Mg364 2.114 . S
O373 C376 1.252 . S
O374 Mg364 2.251 . S
O374 Mg367 2.079 . S
O374 C376 1.273 . S
C375 O371 1.246 . S
C375 O372 1.259 . S
C376 O373 1.252 . S
C376 O374 1.273 . S
O377 Mg364 2.010 . S
O377 C369 1.249 . S
Mg378 O379 2.028 . S
Mg378 O385 1.986 . S
Mg378 O387 2.114 . S
Mg378 O388 2.251 . S
Mg378 O391 2.010 . S
O379 Mg378 2.028 . S
O379 C382 1.250 . S
O380 Mg381 2.028 . S
O380 C382 1.248 . S
Mg381 O380 2.028 . S
Mg381 O386 2.032 . S
Mg381 O388 2.079 . S
C382 O379 1.250 . S
C382 O380 1.248 . S
C383 O384 1.264 . S
C383 O391 1.249 . S
O384 C383 1.264 . S
O385 Mg378 1.986 . S
O385 C389 1.246 . S
O386 Mg381 2.032 . S
O386 C389 1.259 . S
O387 Mg378 2.114 . S
O387 C390 1.252 . S
O388 Mg378 2.251 . S
O388 Mg381 2.079 . S
O388 C390 1.273 . S
C389 O385 1.246 . S
C389 O386 1.259 . S
C390 O387 1.252 . S
C390 O388 1.273 . S
O391 Mg378 2.010 . S
O391 C383 1.249 . S
Mg392 O393 2.028 . S
Mg392 O399 1.986 . S
Mg392 O401 2.114 . S
Mg392 O402 2.251 . S
Mg392 O405 2.010 . S
O393 Mg392 2.028 . S
O393 C396 1.250 . S
O394 Mg395 2.028 . S
O394 C396 1.248 . S
Mg395 O394 2.028 . S
Mg395 O400 2.032 . S
Mg395 O402 2.079 . S
C396 O393 1.250 . S
C396 O394 1.248 . S
C397 O398 1.264 . S
C397 O405 1.249 . S
O398 C397 1.264 . S
O399 Mg392 1.986 . S
O399 C403 1.246 . S
O400 Mg395 2.032 . S
O400 C403 1.259 . S
O401 Mg392 2.114 . S
O401 C404 1.252 . S
O402 Mg392 2.251 . S
O402 Mg395 2.079 . S
O402 C404 1.273 . S
C403 O399 1.246 . S
C403 O400 1.259 . S
C404 O401 1.252 . S
C404 O402 1.273 . S
O405 Mg392 2.010 . S
O405 C397 1.249 . S
Mg406 O407 2.028 . S
Mg406 O413 1.986 . S
Mg406 O415 2.114 . S
Mg406 O416 2.251 . S
Mg406 O419 2.010 . S
O407 Mg406 2.028 . S
O407 C410 1.250 . S
O408 Mg409 2.028 . S
O408 C410 1.248 . S
Mg409 O408 2.028 . S
Mg409 O414 2.032 . S
Mg409 O416 2.079 . S
C410 O407 1.250 . S
C410 O408 1.248 . S
C411 O412 1.264 . S
C411 O419 1.249 . S
O412 C411 1.264 . S
O413 Mg406 1.986 . S
O413 C417 1.246 . S
O414 Mg409 2.032 . S
O414 C417 1.259 . S
O415 Mg406 2.114 . S
O415 C418 1.252 . S
O416 Mg406 2.251 . S
O416 Mg409 2.079 . S
O416 C418 1.273 . S
C417 O413 1.246 . S
C417 O414 1.259 . S
C418 O415 1.252 . S
C418 O416 1.273 . S
O419 Mg406 2.010 . S
O419 C411 1.249 . S
Mg420 O421 2.028 . S
Mg420 O427 1.986 . S
Mg420 O429 2.114 . S
Mg420 O430 2.251 . S
Mg420 O433 2.010 . S
O421 Mg420 2.028 . S
O421 C424 1.250 . S
O422 Mg423 2.028 . S
O422 C424 1.248 . S
Mg423 O422 2.028 . S
Mg423 O428 2.032 . S
Mg423 O430 2.079 . S
C424 O421 1.250 . S
C424 O422 1.248 . S
C425 O426 1.264 . S
C425 O433 1.249 . S
O426 C425 1.264 . S
O427 Mg420 1.986 . S
O427 C431 1.246 . S
O428 Mg423 2.032 . S
O428 C431 1.259 . S
O429 Mg420 2.114 . S
O429 C432 1.252 . S
O430 Mg420 2.251 . S
O430 Mg423 2.079 . S
O430 C432 1.273 . S
C431 O427 1.246 . S
C431 O428 1.259 . S
C432 O429 1.252 . S
C432 O430 1.273 . S
O433 Mg420 2.010 . S
O433 C425 1.249 . S
Mg434 O435 2.028 . S
Mg434 O441 1.986 . S
Mg434 O443 2.114 . S
Mg434 O444 2.251 . S
Mg434 O447 2.010 . S
O435 Mg434 2.028 . S
O435 C438 1.250 . S
O436 Mg437 2.028 . S
O436 C438 1.248 . S
Mg437 O436 2.028 . S
Mg437 O442 2.032 . S
Mg437 O444 2.079 . S
C438 O435 1.250 . S
C438 O436 1.248 . S
C439 O440 1.264 . S
C439 O447 1.249 . S
O440 C439 1.264 . S
O441 Mg434 1.986 . S
O441 C445 1.246 . S
O442 Mg437 2.032 . S
O442 C445 1.259 . S
O443 Mg434 2.114 . S
O443 C446 1.252 . S
O444 Mg434 2.251 . S
O444 Mg437 2.079 . S
O444 C446 1.273 . S
C445 O441 1.246 . S
C445 O442 1.259 . S
C446 O443 1.252 . S
C446 O444 1.273 . S
O447 Mg434 2.010 . S
O447 C439 1.249 . S
C448 C449 1.387 1_455 S
C448 H452 0.950 . S
C448 C457 1.390 . S
C449 C448 1.387 1_655 S
C449 C451 1.387 1_556 S
H450 C457 0.950 . S
C451 C449 1.387 1_554 S
C451 C453 1.390 . S
C451 H455 0.950 . S
H452 C448 0.950 . S
C453 C451 1.390 . S
C453 C454 1.387 1_655 S
C453 H456 0.950 . S
C454 C453 1.387 1_455 S
C454 C457 1.387 1_554 S
H455 C451 0.950 . S
H456 C453 0.950 . S
C457 C448 1.390 . S
C457 H450 0.950 . S
C457 C454 1.387 1_556 S
C458 C459 1.387 . S
C458 H462 0.950 . S
C458 C467 1.390 . S
C459 C458 1.387 . S
C459 C461 1.387 . S
H460 C467 0.950 . S
C461 C459 1.387 . S
C461 C463 1.390 . S
C461 H465 0.950 . S
H462 C458 0.950 . S
C463 C461 1.390 . S
C463 C464 1.387 . S
C463 H466 0.950 . S
C464 C463 1.387 . S
C464 C467 1.387 . S
H465 C461 0.950 . S
H466 C463 0.950 . S
C467 C458 1.390 . S
C467 H460 0.950 . S
C467 C464 1.387 . S
C468 C469 1.387 . S
C468 H472 0.950 . S
C468 C477 1.390 . S
C469 C468 1.387 . S
C469 C471 1.387 . S
H470 C477 0.950 . S
C471 C469 1.387 . S
C471 C473 1.390 . S
C471 H475 0.950 . S
H472 C468 0.950 . S
C473 C471 1.390 . S
C473 C474 1.387 . S
C473 H476 0.950 . S
C474 C473 1.387 . S
C474 C477 1.387 . S
H475 C471 0.950 . S
H476 C473 0.950 . S
C477 C468 1.390 . S
C477 H470 0.950 . S
C477 C474 1.387 . S
C478 C479 1.387 . S
C478 H482 0.950 . S
C478 C487 1.390 . S
C479 C478 1.387 . S
C479 C481 1.387 . S
H480 C487 0.950 . S
C481 C479 1.387 . S
C481 C483 1.390 . S
C481 H485 0.950 . S
H482 C478 0.950 . S
C483 C481 1.390 . S
C483 C484 1.387 . S
C483 H486 0.950 . S
C484 C483 1.387 . S
C484 C487 1.387 . S
H485 C481 0.950 . S
H486 C483 0.950 . S
C487 C478 1.390 . S
C487 H480 0.950 . S
C487 C484 1.387 . S
C488 C489 1.387 . S
C488 H492 0.950 . S
C488 C497 1.390 . S
C489 C488 1.387 . S
C489 C491 1.387 1_655 S
H490 C497 0.950 . S
C491 C489 1.387 1_455 S
C491 C493 1.390 . S
C491 H495 0.950 . S
H492 C488 0.950 . S
C493 C491 1.390 . S
C493 C494 1.387 . S
C493 H496 0.950 . S
C494 C493 1.387 . S
C494 C497 1.387 1_455 S
H495 C491 0.950 . S
H496 C493 0.950 . S
C497 C488 1.390 . S
C497 H490 0.950 . S
C497 C494 1.387 1_655 S
C498 C499 1.387 . S
C498 H502 0.950 . S
C498 C507 1.390 . S
C499 C498 1.387 . S
C499 C501 1.387 . S
H500 C507 0.950 . S
C501 C499 1.387 . S
C501 C503 1.390 . S
C501 H505 0.950 . S
H502 C498 0.950 . S
C503 C501 1.390 . S
C503 C504 1.387 . S
C503 H506 0.950 . S
C504 C503 1.387 . S
C504 C507 1.387 . S
H505 C501 0.950 . S
H506 C503 0.950 . S
C507 C498 1.390 . S
C507 H500 0.950 . S
C507 C504 1.387 . S
C508 C509 1.387 . S
C508 H512 0.950 . S
C508 C517 1.390 . S
C509 C508 1.387 . S
C509 C511 1.387 1_556 S
H510 C517 0.950 . S
C511 C509 1.387 1_554 S
C511 C513 1.390 . S
C511 H515 0.950 . S
H512 C508 0.950 . S
C513 C511 1.390 . S
C513 C514 1.387 . S
C513 H516 0.950 . S
C514 C513 1.387 . S
C514 C517 1.387 1_554 S
H515 C511 0.950 . S
H516 C513 0.950 . S
C517 C508 1.390 . S
C517 H510 0.950 . S
C517 C514 1.387 1_556 S
C518 C519 1.387 . S
C518 H522 0.950 . S
C518 C527 1.390 . S
C519 C518 1.387 . S
C519 C521 1.387 . S
H520 C527 0.950 . S
C521 C519 1.387 . S
C521 C523 1.390 . S
C521 H525 0.950 . S
H522 C518 0.950 . S
C523 C521 1.390 . S
C523 C524 1.387 . S
C523 H526 0.950 . S
C524 C523 1.387 . S
C524 C527 1.387 . S
H525 C521 0.950 . S
H526 C523 0.950 . S
C527 C518 1.390 . S
C527 H520 0.950 . S
C527 C524 1.387 . S
C528 C529 1.387 . S
C528 H532 0.950 . S
C528 C537 1.390 . S
C529 C528 1.387 . S
C529 C531 1.387 . S
H530 C537 0.950 . S
C531 C529 1.387 . S
C531 C533 1.390 . S
C531 H535 0.950 . S
H532 C528 0.950 . S
C533 C531 1.390 . S
C533 C534 1.387 . S
C533 H536 0.950 . S
C534 C533 1.387 . S
C534 C537 1.387 . S
H535 C531 0.950 . S
H536 C533 0.950 . S
C537 C528 1.390 . S
C537 H530 0.950 . S
C537 C534 1.387 . S
C538 C539 1.387 . S
C538 H542 0.950 . S
C538 C547 1.390 . S
C539 C538 1.387 . S
C539 C541 1.387 . S
H540 C547 0.950 . S
C541 C539 1.387 . S
C541 C543 1.390 . S
C541 H545 0.950 . S
H542 C538 0.950 . S
C543 C541 1.390 . S
C543 C544 1.387 . S
C543 H546 0.950 . S
C544 C543 1.387 . S
C544 C547 1.387 . S
H545 C541 0.950 . S
H546 C543 0.950 . S
C547 C538 1.390 . S
C547 H540 0.950 . S
C547 C544 1.387 . S
C548 C549 1.387 . S
C548 H552 0.950 . S
C548 C557 1.390 . S
C549 C548 1.387 . S
C549 C551 1.387 . S
H550 C557 0.950 . S
C551 C549 1.387 . S
C551 C553 1.390 . S
C551 H555 0.950 . S
H552 C548 0.950 . S
C553 C551 1.390 . S
C553 C554 1.387 . S
C553 H556 0.950 . S
C554 C553 1.387 . S
C554 C557 1.387 . S
H555 C551 0.950 . S
H556 C553 0.950 . S
C557 C548 1.390 . S
C557 H550 0.950 . S
C557 C554 1.387 . S
C558 C559 1.387 . S
C558 H562 0.950 . S
C558 C567 1.390 . S
C559 C558 1.387 . S
C559 C561 1.387 . S
H560 C567 0.950 . S
C561 C559 1.387 . S
C561 C563 1.390 . S
C561 H565 0.950 . S
H562 C558 0.950 . S
C563 C561 1.390 . S
C563 C564 1.387 . S
C563 H566 0.950 . S
C564 C563 1.387 . S
C564 C567 1.387 . S
H565 C561 0.950 . S
H566 C563 0.950 . S
C567 C558 1.390 . S
C567 H560 0.950 . S
C567 C564 1.387 . S
C568 C569 1.403 . S
C568 H572 0.950 . S
C568 C577 1.375 1_565 S
C569 C568 1.403 . S
C569 C571 1.387 . S
H570 C577 0.950 . S
C571 C569 1.387 . S
C571 C573 1.375 1_565 S
C571 H575 0.950 . S
H572 C568 0.950 . S
C573 C571 1.375 1_545 S
C573 C574 1.403 . S
C573 H576 0.950 . S
C574 C573 1.403 . S
C574 C577 1.387 . S
H575 C571 0.950 . S
H576 C573 0.950 . S
C577 C568 1.375 1_545 S
C577 H570 0.950 . S
C577 C574 1.387 . S
C578 C579 1.387 1_554 S
C578 H582 0.950 . S
C578 C587 1.390 1_565 S
C579 C578 1.387 1_556 S
C579 C581 1.387 1_455 S
H580 C587 0.950 . S
C581 C579 1.387 1_655 S
C581 C583 1.390 1_565 S
C581 H585 0.950 . S
H582 C578 0.950 . S
C583 C581 1.390 1_545 S
C583 C584 1.387 1_556 S
C583 H586 0.950 . S
C584 C583 1.387 1_554 S
C584 C587 1.387 1_655 S
H585 C581 0.950 . S
H586 C583 0.950 . S
C587 C578 1.390 1_545 S
C587 H580 0.950 . S
C587 C584 1.387 1_455 S
C588 C589 1.387 1_554 S
C588 H592 0.950 . S
C588 C597 1.390 1_545 S
C589 C588 1.387 1_556 S
C589 C591 1.387 . S
H590 C597 0.950 . S
C591 C589 1.387 . S
C591 C593 1.390 1_545 S
C591 H595 0.950 . S
H592 C588 0.950 . S
C593 C591 1.390 1_565 S
C593 C594 1.387 1_556 S
C593 H596 0.950 . S
C594 C593 1.387 1_554 S
C594 C597 1.387 . S
H595 C591 0.950 . S
H596 C593 0.950 . S
C597 C588 1.390 1_565 S
C597 H590 0.950 . S
C597 C594 1.387 . S
C598 C599 1.387 . S
C598 H602 0.950 . S
C598 C607 1.390 1_445 S
C599 C598 1.387 . S
C599 C601 1.387 . S
H600 C607 0.950 . S
C601 C599 1.387 . S
C601 C603 1.390 1_445 S
C601 H605 0.950 . S
H602 C598 0.950 . S
C603 C601 1.390 1_665 S
C603 C604 1.387 . S
C603 H606 0.950 . S
C604 C603 1.387 . S
C604 C607 1.387 . S
H605 C601 0.950 . S
H606 C603 0.950 . S
C607 C598 1.390 1_665 S
C607 H600 0.950 . S
C607 C604 1.387 . S
C608 C609 1.387 . S
C608 H612 0.950 1_554 S
C608 C617 1.390 1_655 S
C609 C608 1.387 . S
C609 C611 1.387 . S
H610 C617 0.950 1_556 S
C611 C609 1.387 . S
C611 C613 1.390 1_655 S
C611 H615 0.950 . S
H612 C608 0.950 1_556 S
C613 C611 1.390 1_455 S
C613 C614 1.387 . S
C613 H616 0.950 . S
C614 C613 1.387 . S
C614 C617 1.387 . S
H615 C611 0.950 . S
H616 C613 0.950 . S
C617 C608 1.390 1_455 S
C617 H610 0.950 1_554 S
C617 C614 1.387 . S
C618 C619 1.387 . S
C618 H622 0.950 . S
C618 C627 1.390 1_455 S
C619 C618 1.387 . S
C619 C621 1.387 . S
H620 C627 0.950 . S
C621 C619 1.387 . S
C621 C623 1.390 1_455 S
C621 H625 0.950 . S
H622 C618 0.950 . S
C623 C621 1.390 1_655 S
C623 C624 1.387 . S
C623 H626 0.950 . S
C624 C623 1.387 . S
C624 C627 1.387 . S
H625 C621 0.950 . S
H626 C623 0.950 . S
C627 C618 1.390 1_655 S
C627 H620 0.950 . S
C627 C624 1.387 . S
C628 C629 1.387 . S
C628 H632 0.950 . S
C628 C637 1.390 . S
C629 C628 1.387 . S
C629 C631 1.387 . S
H630 C637 0.950 . S
C631 C629 1.387 . S
C631 C633 1.390 . S
C631 H635 0.950 . S
H632 C628 0.950 . S
C633 C631 1.390 . S
C633 C634 1.387 . S
C633 H636 0.950 . S
C634 C633 1.387 . S
C634 C637 1.387 . S
H635 C631 0.950 . S
H636 C633 0.950 . S
C637 C628 1.390 . S
C637 H630 0.950 . S
C637 C634 1.387 . S
C638 C639 1.387 . S
C638 H642 0.950 . S
C638 C647 1.390 . S
C639 C638 1.387 . S
C639 C641 1.387 . S
H640 C647 0.950 . S
C641 C639 1.387 . S
C641 C643 1.390 . S
C641 H645 0.950 . S
H642 C638 0.950 . S
C643 C641 1.390 . S
C643 C644 1.387 . S
C643 H646 0.950 . S
C644 C643 1.387 . S
C644 C647 1.387 . S
H645 C641 0.950 . S
H646 C643 0.950 . S
C647 C638 1.390 . S
C647 H640 0.950 . S
C647 C644 1.387 . S
C648 C649 1.387 . S
C648 H652 0.950 . S
C648 C657 1.390 1_655 S
C649 C648 1.387 . S
C649 C651 1.387 . S
H650 C657 0.950 . S
C651 C649 1.387 . S
C651 C653 1.390 1_655 S
C651 H655 0.950 . S
H652 C648 0.950 . S
C653 C651 1.390 1_455 S
C653 C654 1.387 . S
C653 H656 0.950 . S
C654 C653 1.387 . S
C654 C657 1.387 . S
H655 C651 0.950 . S
H656 C653 0.950 . S
C657 C648 1.390 1_455 S
C657 H650 0.950 . S
C657 C654 1.387 . S
C658 C659 1.387 . S
C658 H662 0.950 . S
C658 C667 1.390 . S
C659 C658 1.387 . S
C659 C661 1.387 . S
H660 C667 0.950 . S
C661 C659 1.387 . S
C661 C663 1.390 . S
C661 H665 0.950 . S
H662 C658 0.950 . S
C663 C661 1.390 . S
C663 C664 1.387 . S
C663 H666 0.950 . S
C664 C663 1.387 . S
C664 C667 1.387 . S
H665 C661 0.950 . S
H666 C663 0.950 . S
C667 C658 1.390 . S
C667 H660 0.950 . S
C667 C664 1.387 . S
C668 C669 1.387 . S
C668 H672 0.950 1_556 S
C668 C677 1.390 . S
C669 C668 1.387 . S
C669 C671 1.387 . S
H670 C677 0.950 1_554 S
C671 C669 1.387 . S
C671 C673 1.390 . S
C671 H675 0.950 . S
H672 C668 0.950 1_554 S
C673 C671 1.390 . S
C673 C674 1.387 . S
C673 H676 0.950 . S
C674 C673 1.387 . S
C674 C677 1.387 . S
H675 C671 0.950 . S
H676 C673 0.950 . S
C677 C668 1.390 . S
C677 H670 0.950 1_556 S
C677 C674 1.387 . S
C678 C679 1.387 . S
C678 H682 0.950 . S
C678 C687 1.390 1_455 S
C679 C678 1.387 . S
C679 C681 1.387 . S
H680 C687 0.950 . S
C681 C679 1.387 . S
C681 C683 1.390 1_455 S
C681 H685 0.950 . S
H682 C678 0.950 . S
C683 C681 1.390 1_655 S
C683 C684 1.387 . S
C683 H686 0.950 . S
C684 C683 1.387 . S
C684 C687 1.387 . S
H685 C681 0.950 . S
H686 C683 0.950 . S
C687 C678 1.390 1_655 S
C687 H680 0.950 . S
C687 C684 1.387 . S
C688 C689 1.387 . S
C688 H692 0.950 1_556 S
C688 C697 1.390 1_655 S
C689 C688 1.387 . S
C689 C691 1.387 . S
H690 C697 0.950 1_554 S
C691 C689 1.387 . S
C691 C693 1.390 1_655 S
C691 H695 0.950 . S
H692 C688 0.950 1_554 S
C693 C691 1.390 1_455 S
C693 C694 1.387 . S
C693 H696 0.950 . S
C694 C693 1.387 . S
C694 C697 1.387 . S
H695 C691 0.950 . S
H696 C693 0.950 . S
C697 C688 1.390 1_455 S
C697 H690 0.950 1_556 S
C697 C694 1.387 . S
C698 C699 1.387 . S
C698 H702 0.950 . S
C698 C707 1.390 1_655 S
C699 C698 1.387 . S
C699 C701 1.387 . S
H700 C707 0.950 . S
C701 C699 1.387 . S
C701 C703 1.390 1_655 S
C701 H705 0.950 . S
H702 C698 0.950 . S
C703 C701 1.390 1_455 S
C703 C704 1.387 . S
C703 H706 0.950 . S
C704 C703 1.387 . S
C704 C707 1.387 . S
H705 C701 0.950 . S
H706 C703 0.950 . S
C707 C698 1.390 1_455 S
C707 H700 0.950 . S
C707 C704 1.387 . S
C708 C709 1.387 . S
C708 H712 0.950 . S
C708 C717 1.390 . S
C709 C708 1.387 . S
C709 C711 1.387 . S
H710 C717 0.950 . S
C711 C709 1.387 . S
C711 C713 1.390 . S
C711 H715 0.950 . S
H712 C708 0.950 . S
C713 C711 1.390 . S
C713 C714 1.387 . S
C713 H716 0.950 . S
C714 C713 1.387 . S
C714 C717 1.387 . S
H715 C711 0.950 . S
H716 C713 0.950 . S
C717 C708 1.390 . S
C717 H710 0.950 . S
C717 C714 1.387 . S
C718 C719 1.387 . S
C718 H722 0.950 . S
C718 C727 1.390 . S
C719 C718 1.387 . S
C719 C721 1.387 . S
H720 C727 0.950 . S
C721 C719 1.387 . S
C721 C723 1.390 . S
C721 H725 0.950 . S
H722 C718 0.950 . S
C723 C721 1.390 . S
C723 C724 1.387 . S
C723 H726 0.950 . S
C724 C723 1.387 . S
C724 C727 1.387 . S
H725 C721 0.950 . S
H726 C723 0.950 . S
C727 C718 1.390 . S
C727 H720 0.950 . S
C727 C724 1.387 . S
C728 C729 1.387 . S
C728 H732 0.950 . S
C728 C737 1.390 1_655 S
C729 C728 1.387 . S
C729 C731 1.387 . S
H730 C737 0.950 . S
C731 C729 1.387 . S
C731 C733 1.390 1_655 S
C731 H735 0.950 . S
H732 C728 0.950 . S
C733 C731 1.390 1_455 S
C733 C734 1.387 . S
C733 H736 0.950 . S
C734 C733 1.387 . S
C734 C737 1.387 . S
H735 C731 0.950 . S
H736 C733 0.950 . S
C737 C728 1.390 1_455 S
C737 H730 0.950 . S
C737 C734 1.387 . S
C738 C739 1.387 . S
C738 H742 0.950 . S
C738 C747 1.390 . S
C739 C738 1.387 . S
C739 C741 1.387 . S
H740 C747 0.950 . S
C741 C739 1.387 . S
C741 C743 1.390 . S
C741 H745 0.950 . S
H742 C738 0.950 . S
C743 C741 1.390 . S
C743 C744 1.387 . S
C743 H746 0.950 . S
C744 C743 1.387 . S
C744 C747 1.387 . S
H745 C741 0.950 . S
H746 C743 0.950 . S
C747 C738 1.390 . S
C747 H740 0.950 . S
C747 C744 1.387 . S
C748 C749 1.387 . S
C748 H752 0.950 1_554 S
C748 C757 1.390 . S
C749 C748 1.387 . S
C749 C751 1.387 . S
H750 C757 0.950 1_556 S
C751 C749 1.387 . S
C751 C753 1.390 . S
C751 H755 0.950 . S
H752 C748 0.950 1_556 S
C753 C751 1.390 . S
C753 C754 1.387 . S
C753 H756 0.950 . S
C754 C753 1.387 . S
C754 C757 1.387 . S
H755 C751 0.950 . S
H756 C753 0.950 . S
C757 C748 1.390 . S
C757 H750 0.950 1_554 S
C757 C754 1.387 . S
C758 C759 1.387 . S
C758 H762 0.950 . S
C758 C767 1.390 1_655 S
C759 C758 1.387 . S
C759 C761 1.387 . S
H760 C767 0.950 . S
C761 C759 1.387 . S
C761 C763 1.390 1_655 S
C761 H765 0.950 . S
H762 C758 0.950 . S
C763 C761 1.390 1_455 S
C763 C764 1.387 . S
C763 H766 0.950 . S
C764 C763 1.387 . S
C764 C767 1.387 . S
H765 C761 0.950 . S
H766 C763 0.950 . S
C767 C758 1.390 1_455 S
C767 H760 0.950 . S
C767 C764 1.387 . S
C768 C769 1.387 . S
C768 H772 0.950 . S
C768 C777 1.390 1_556 S
C769 C768 1.387 . S
C769 C771 1.387 . S
H770 C777 0.950 . S
C771 C769 1.387 . S
C771 C773 1.390 1_556 S
C771 H775 0.950 . S
H772 C768 0.950 . S
C773 C771 1.390 1_554 S
C773 C774 1.387 . S
C773 H776 0.950 . S
C774 C773 1.387 . S
C774 C777 1.387 . S
H775 C771 0.950 . S
H776 C773 0.950 . S
C777 C768 1.390 1_554 S
C777 H770 0.950 . S
C777 C774 1.387 . S
C778 C779 1.387 . S
C778 H782 0.950 . S
C778 C787 1.390 1_545 S
C779 C778 1.387 . S
C779 C781 1.387 . S
H780 C787 0.950 . S
C781 C779 1.387 . S
C781 C783 1.390 1_545 S
C781 H785 0.950 . S
H782 C778 0.950 . S
C783 C781 1.390 1_565 S
C783 C784 1.387 . S
C783 H786 0.950 . S
C784 C783 1.387 . S
C784 C787 1.387 . S
H785 C781 0.950 . S
H786 C783 0.950 . S
C787 C778 1.390 1_565 S
C787 H780 0.950 . S
C787 C784 1.387 . S
C788 C789 1.387 . S
C788 H792 0.950 . S
C788 C797 1.390 . S
C789 C788 1.387 . S
C789 C791 1.387 . S
H790 C797 0.950 . S
C791 C789 1.387 . S
C791 C793 1.390 . S
C791 H795 0.950 . S
H792 C788 0.950 . S
C793 C791 1.390 . S
C793 C794 1.387 . S
C793 H796 0.950 . S
C794 C793 1.387 . S
C794 C797 1.387 . S
H795 C791 0.950 . S
H796 C793 0.950 . S
C797 C788 1.390 . S
C797 H790 0.950 . S
C797 C794 1.387 . S
C798 C799 1.387 . S
C798 H802 0.950 . S
C798 C807 1.390 1_545 S
C799 C798 1.387 . S
C799 C801 1.387 . S
H800 C807 0.950 . S
C801 C799 1.387 . S
C801 C803 1.390 1_545 S
C801 H805 0.950 . S
H802 C798 0.950 . S
C803 C801 1.390 1_565 S
C803 C804 1.387 . S
C803 H806 0.950 . S
C804 C803 1.387 . S
C804 C807 1.387 . S
H805 C801 0.950 . S
H806 C803 0.950 . S
C807 C798 1.390 1_565 S
C807 H800 0.950 . S
C807 C804 1.387 . S
C808 C809 1.387 . S
C808 H812 0.950 . S
C808 C817 1.390 1_554 S
C809 C808 1.387 . S
C809 C811 1.387 . S
H810 C817 0.950 . S
C811 C809 1.387 . S
C811 C813 1.390 1_554 S
C811 H815 0.950 . S
H812 C808 0.950 . S
C813 C811 1.390 1_556 S
C813 C814 1.387 . S
C813 H816 0.950 . S
C814 C813 1.387 . S
C814 C817 1.387 . S
H815 C811 0.950 . S
H816 C813 0.950 . S
C817 C808 1.390 1_556 S
C817 H810 0.950 . S
C817 C814 1.387 . S
C818 C819 1.387 . S
C818 H822 0.950 . S
C818 C827 1.390 1_565 S
C819 C818 1.387 . S
C819 C821 1.387 . S
H820 C827 0.950 . S
C821 C819 1.387 . S
C821 C823 1.390 1_565 S
C821 H825 0.950 . S
H822 C818 0.950 . S
C823 C821 1.390 1_545 S
C823 C824 1.387 . S
C823 H826 0.950 . S
C824 C823 1.387 . S
C824 C827 1.387 . S
H825 C821 0.950 . S
H826 C823 0.950 . S
C827 C818 1.390 1_545 S
C827 H820 0.950 . S
C827 C824 1.387 . S
C828 C829 1.387 . S
C828 H832 0.950 . S
C828 C837 1.390 . S
C829 C828 1.387 . S
C829 C831 1.387 . S
H830 C837 0.950 . S
C831 C829 1.387 . S
C831 C833 1.390 . S
C831 H835 0.950 . S
H832 C828 0.950 . S
C833 C831 1.390 . S
C833 C834 1.387 . S
C833 H836 0.950 . S
C834 C833 1.387 . S
C834 C837 1.387 . S
H835 C831 0.950 . S
H836 C833 0.950 . S
C837 C828 1.390 . S
C837 H830 0.950 . S
C837 C834 1.387 . S
C838 C839 1.387 . S
C838 H842 0.950 . S
C838 C847 1.390 1_545 S
C839 C838 1.387 . S
C839 C841 1.387 . S
H840 C847 0.950 . S
C841 C839 1.387 . S
C841 C843 1.390 1_545 S
C841 H845 0.950 . S
H842 C838 0.950 . S
C843 C841 1.390 1_565 S
C843 C844 1.387 . S
C843 H846 0.950 . S
C844 C843 1.387 . S
C844 C847 1.387 . S
H845 C841 0.950 . S
H846 C843 0.950 . S
C847 C838 1.390 1_565 S
C847 H840 0.950 . S
C847 C844 1.387 . S
C848 C849 1.387 . S
C848 H852 0.950 . S
C848 C857 1.390 . S
C849 C848 1.387 . S
C849 C851 1.387 . S
H850 C857 0.950 . S
C851 C849 1.387 . S
C851 C853 1.390 . S
C851 H855 0.950 . S
H852 C848 0.950 . S
C853 C851 1.390 . S
C853 C854 1.387 . S
C853 H856 0.950 . S
C854 C853 1.387 . S
C854 C857 1.387 . S
H855 C851 0.950 . S
H856 C853 0.950 . S
C857 C848 1.390 . S
C857 H850 0.950 . S
C857 C854 1.387 . S
C858 C859 1.387 . S
C858 H862 0.950 . S
C858 C867 1.390 . S
C859 C858 1.387 . S
C859 C861 1.387 . S
H860 C867 0.950 . S
C861 C859 1.387 . S
C861 C863 1.390 . S
C861 H865 0.950 . S
H862 C858 0.950 . S
C863 C861 1.390 . S
C863 C864 1.387 . S
C863 H866 0.950 . S
C864 C863 1.387 . S
C864 C867 1.387 . S
H865 C861 0.950 . S
H866 C863 0.950 . S
C867 C858 1.390 . S
C867 H860 0.950 . S
C867 C864 1.387 . S
C868 C869 1.387 . S
C868 H872 0.950 . S
C868 C877 1.390 1_554 S
C869 C868 1.387 . S
C869 C871 1.387 . S
H870 C877 0.950 . S
C871 C869 1.387 . S
C871 C873 1.390 1_554 S
C871 H875 0.950 . S
H872 C868 0.950 . S
C873 C871 1.390 1_556 S
C873 C874 1.387 . S
C873 H876 0.950 . S
C874 C873 1.387 . S
C874 C877 1.387 . S
H875 C871 0.950 . S
H876 C873 0.950 . S
C877 C868 1.390 1_556 S
C877 H870 0.950 . S
C877 C874 1.387 . S
C878 C879 1.387 . S
C878 H882 0.950 . S
C878 C887 1.390 . S
C879 C878 1.387 . S
C879 C881 1.387 . S
H880 C887 0.950 . S
C881 C879 1.387 . S
C881 C883 1.390 . S
C881 H885 0.950 . S
H882 C878 0.950 . S
C883 C881 1.390 . S
C883 C884 1.387 . S
C883 H886 0.950 . S
C884 C883 1.387 . S
C884 C887 1.387 . S
H885 C881 0.950 . S
H886 C883 0.950 . S
C887 C878 1.390 . S
C887 H880 0.950 . S
C887 C884 1.387 . S
C888 C889 1.387 . S
C888 H892 0.950 . S
C888 C897 1.390 . S
C889 C888 1.387 . S
C889 C891 1.387 . S
H890 C897 0.950 . S
C891 C889 1.387 . S
C891 C893 1.390 . S
C891 H895 0.950 . S
H892 C888 0.950 . S
C893 C891 1.390 . S
C893 C894 1.387 . S
C893 H896 0.950 . S
C894 C893 1.387 . S
C894 C897 1.387 . S
H895 C891 0.950 . S
H896 C893 0.950 . S
C897 C888 1.390 . S
C897 H890 0.950 . S
C897 C894 1.387 . S
C898 C899 1.387 . S
C898 H902 0.950 . S
C898 C907 1.390 . S
C899 C898 1.387 . S
C899 C901 1.387 . S
H900 C907 0.950 . S
C901 C899 1.387 . S
C901 C903 1.390 . S
C901 H905 0.950 . S
H902 C898 0.950 . S
C903 C901 1.390 . S
C903 C904 1.387 . S
C903 H906 0.950 . S
C904 C903 1.387 . S
C904 C907 1.387 . S
H905 C901 0.950 . S
H906 C903 0.950 . S
C907 C898 1.390 . S
C907 H900 0.950 . S
C907 C904 1.387 . S
C908 C909 1.387 . S
C908 H912 0.950 . S
C908 C917 1.390 1_556 S
C909 C908 1.387 . S
C909 C911 1.387 . S
H910 C917 0.950 . S
C911 C909 1.387 . S
C911 C913 1.390 1_556 S
C911 H915 0.950 . S
H912 C908 0.950 . S
C913 C911 1.390 1_554 S
C913 C914 1.387 . S
C913 H916 0.950 . S
C914 C913 1.387 . S
C914 C917 1.387 . S
H915 C911 0.950 . S
H916 C913 0.950 . S
C917 C908 1.390 1_554 S
C917 H910 0.950 . S
C917 C914 1.387 . S
C918 C919 1.387 . S
C918 H922 0.950 . S
C918 C927 1.390 . S
C919 C918 1.387 . S
C919 C921 1.387 . S
H920 C927 0.950 . S
C921 C919 1.387 . S
C921 C923 1.390 . S
C921 H925 0.950 . S
H922 C918 0.950 . S
C923 C921 1.390 . S
C923 C924 1.387 . S
C923 H926 0.950 . S
C924 C923 1.387 . S
C924 C927 1.387 . S
H925 C921 0.950 . S
H926 C923 0.950 . S
C927 C918 1.390 . S
C927 H920 0.950 . S
C927 C924 1.387 . S
C928 C929 1.387 . S
C928 H932 0.950 . S
C928 C937 1.390 . S
C929 C928 1.387 . S
C929 C931 1.387 . S
H930 C937 0.950 . S
C931 C929 1.387 . S
C931 C933 1.390 . S
C931 H935 0.950 . S
H932 C928 0.950 . S
C933 C931 1.390 . S
C933 C934 1.387 . S
C933 H936 0.950 . S
C934 C933 1.387 . S
C934 C937 1.387 . S
H935 C931 0.950 . S
H936 C933 0.950 . S
C937 C928 1.390 . S
C937 H930 0.950 . S
C937 C934 1.387 . S
C938 C939 1.387 . S
C938 H942 0.950 . S
C938 C947 1.390 . S
C939 C938 1.387 . S
C939 C941 1.387 . S
H940 C947 0.950 . S
C941 C939 1.387 . S
C941 C943 1.390 . S
C941 H945 0.950 . S
H942 C938 0.950 . S
C943 C941 1.390 . S
C943 C944 1.387 . S
C943 H946 0.950 . S
C944 C943 1.387 . S
C944 C947 1.387 . S
H945 C941 0.950 . S
H946 C943 0.950 . S
C947 C938 1.390 . S
C947 H940 0.950 . S
C947 C944 1.387 . S
C948 C949 1.387 . S
C948 H952 0.950 . S
C948 C957 1.390 . S
C949 C948 1.387 . S
C949 C951 1.387 . S
H950 C957 0.950 . S
C951 C949 1.387 . S
C951 C953 1.390 . S
C951 H955 0.950 . S
H952 C948 0.950 . S
C953 C951 1.390 . S
C953 C954 1.387 . S
C953 H956 0.950 . S
C954 C953 1.387 . S
C954 C957 1.387 . S
H955 C951 0.950 . S
H956 C953 0.950 . S
C957 C948 1.390 . S
C957 H950 0.950 . S
C957 C954 1.387 . S
C958 C959 1.387 . S
C958 H962 0.950 . S
C958 C967 1.390 . S
C959 C958 1.387 . S
C959 C961 1.387 . S
H960 C967 0.950 . S
C961 C959 1.387 . S
C961 C963 1.390 . S
C961 H965 0.950 . S
H962 C958 0.950 . S
C963 C961 1.390 . S
C963 C964 1.387 . S
C963 H966 0.950 . S
C964 C963 1.387 . S
C964 C967 1.387 . S
H965 C961 0.950 . S
H966 C963 0.950 . S
C967 C958 1.390 . S
C967 H960 0.950 . S
C967 C964 1.387 . S
C968 C969 1.387 . S
C968 H972 0.950 . S
C968 C977 1.390 . S
C969 C968 1.387 . S
C969 C971 1.387 . S
H970 C977 0.950 . S
C971 C969 1.387 . S
C971 C973 1.390 . S
C971 H975 0.950 . S
H972 C968 0.950 . S
C973 C971 1.390 . S
C973 C974 1.387 . S
C973 H976 0.950 . S
C974 C973 1.387 . S
C974 C977 1.387 . S
H975 C971 0.950 . S
H976 C973 0.950 . S
C977 C968 1.390 . S
C977 H970 0.950 . S
C977 C974 1.387 . S
C978 C979 1.387 . S
C978 H982 0.950 . S
C978 C987 1.390 . S
C979 C978 1.387 . S
C979 C981 1.387 . S
H980 C987 0.950 . S
C981 C979 1.387 . S
C981 C983 1.390 . S
C981 H985 0.950 . S
H982 C978 0.950 . S
C983 C981 1.390 . S
C983 C984 1.387 . S
C983 H986 0.950 . S
C984 C983 1.387 . S
C984 C987 1.387 . S
H985 C981 0.950 . S
H986 C983 0.950 . S
C987 C978 1.390 . S
C987 H980 0.950 . S
C987 C984 1.387 . S
C988 C989 1.387 . S
C988 H992 0.950 . S
C988 C997 1.390 . S
C989 C988 1.387 . S
C989 C991 1.387 . S
H990 C997 0.950 . S
C991 C989 1.387 . S
C991 C993 1.390 . S
C991 H995 0.950 . S
H992 C988 0.950 . S
C993 C991 1.390 . S
C993 C994 1.387 . S
C993 H996 0.950 . S
C994 C993 1.387 . S
C994 C997 1.387 . S
H995 C991 0.950 . S
H996 C993 0.950 . S
C997 C988 1.390 . S
C997 H990 0.950 . S
C997 C994 1.387 . S
C998 C999 1.387 . S
C998 H1002 0.950 . S
C998 C1007 1.390 . S
C999 C998 1.387 . S
C999 C1001 1.387 . S
H1000 C1007 0.950 . S
C1001 C999 1.387 . S
C1001 C1003 1.390 . S
C1001 H1005 0.950 . S
H1002 C998 0.950 . S
C1003 C1001 1.390 . S
C1003 C1004 1.387 . S
C1003 H1006 0.950 . S
C1004 C1003 1.387 . S
C1004 C1007 1.387 . S
H1005 C1001 0.950 . S
H1006 C1003 0.950 . S
C1007 C998 1.390 . S
C1007 H1000 0.950 . S
C1007 C1004 1.387 . S
C1008 C1009 1.387 . S
C1008 H1012 0.950 . S
C1008 C1017 1.390 . S
C1009 C1008 1.387 . S
C1009 C1011 1.387 . S
H1010 C1017 0.950 . S
C1011 C1009 1.387 . S
C1011 C1013 1.390 . S
C1011 H1015 0.950 . S
H1012 C1008 0.950 . S
C1013 C1011 1.390 . S
C1013 C1014 1.387 . S
C1013 H1016 0.950 . S
C1014 C1013 1.387 . S
C1014 C1017 1.387 . S
H1015 C1011 0.950 . S
H1016 C1013 0.950 . S
C1017 C1008 1.390 . S
C1017 H1010 0.950 . S
C1017 C1014 1.387 . S
C1018 C1019 1.387 . S
C1018 H1022 0.950 . S
C1018 C1027 1.390 . S
C1019 C1018 1.387 . S
C1019 C1021 1.387 . S
H1020 C1027 0.950 . S
C1021 C1019 1.387 . S
C1021 C1023 1.390 . S
C1021 H1025 0.950 . S
H1022 C1018 0.950 . S
C1023 C1021 1.390 . S
C1023 C1024 1.387 . S
C1023 H1026 0.950 . S
C1024 C1023 1.387 . S
C1024 C1027 1.387 . S
H1025 C1021 0.950 . S
H1026 C1023 0.950 . S
C1027 C1018 1.390 . S
C1027 H1020 0.950 . S
C1027 C1024 1.387 . S
C1028 C1029 1.387 . S
C1028 H1032 0.950 . S
C1028 C1037 1.390 . S
C1029 C1028 1.387 . S
C1029 C1031 1.387 . S
H1030 C1037 0.950 . S
C1031 C1029 1.387 . S
C1031 C1033 1.390 . S
C1031 H1035 0.950 . S
H1032 C1028 0.950 . S
C1033 C1031 1.390 . S
C1033 C1034 1.387 . S
C1033 H1036 0.950 . S
C1034 C1033 1.387 . S
C1034 C1037 1.387 . S
H1035 C1031 0.950 . S
H1036 C1033 0.950 . S
C1037 C1028 1.390 . S
C1037 H1030 0.950 . S
C1037 C1034 1.387 . S
C1038 C1039 1.387 . S
C1038 H1042 0.950 . S
C1038 C1047 1.390 . S
C1039 C1038 1.387 . S
C1039 C1041 1.387 . S
H1040 C1047 0.950 . S
C1041 C1039 1.387 . S
C1041 C1043 1.390 . S
C1041 H1045 0.950 . S
H1042 C1038 0.950 . S
C1043 C1041 1.390 . S
C1043 C1044 1.387 . S
C1043 H1046 0.950 . S
C1044 C1043 1.387 . S
C1044 C1047 1.387 . S
H1045 C1041 0.950 . S
H1046 C1043 0.950 . S
C1047 C1038 1.390 . S
C1047 H1040 0.950 . S
C1047 C1044 1.387 . S
C1048 C1049 1.387 . S
C1048 H1052 0.950 . S
C1048 C1057 1.390 . S
C1049 C1048 1.387 . S
C1049 C1051 1.387 . S
H1050 C1057 0.950 . S
C1051 C1049 1.387 . S
C1051 C1053 1.390 . S
C1051 H1055 0.950 . S
H1052 C1048 0.950 . S
C1053 C1051 1.390 . S
C1053 C1054 1.387 . S
C1053 H1056 0.950 . S
C1054 C1053 1.387 . S
C1054 C1057 1.387 . S
H1055 C1051 0.950 . S
H1056 C1053 0.950 . S
C1057 C1048 1.390 . S
C1057 H1050 0.950 . S
C1057 C1054 1.387 . S
C1058 C1059 1.387 . S
C1058 H1062 0.950 . S
C1058 C1067 1.390 . S
C1059 C1058 1.387 . S
C1059 C1061 1.387 . S
H1060 C1067 0.950 . S
C1061 C1059 1.387 . S
C1061 C1063 1.390 . S
C1061 H1065 0.950 . S
H1062 C1058 0.950 . S
C1063 C1061 1.390 . S
C1063 C1064 1.387 . S
C1063 H1066 0.950 . S
C1064 C1063 1.387 . S
C1064 C1067 1.387 . S
H1065 C1061 0.950 . S
H1066 C1063 0.950 . S
C1067 C1058 1.390 . S
C1067 H1060 0.950 . S
C1067 C1064 1.387 . S
C1068 C1069 1.387 . S
C1068 H1072 0.950 . S
C1068 C1077 1.390 . S
C1069 C1068 1.387 . S
C1069 C1071 1.387 . S
H1070 C1077 0.950 . S
C1071 C1069 1.387 . S
C1071 C1073 1.390 . S
C1071 H1075 0.950 . S
H1072 C1068 0.950 . S
C1073 C1071 1.390 . S
C1073 C1074 1.387 . S
C1073 H1076 0.950 . S
C1074 C1073 1.387 . S
C1074 C1077 1.387 . S
H1075 C1071 0.950 . S
H1076 C1073 0.950 . S
C1077 C1068 1.390 . S
C1077 H1070 0.950 . S
C1077 C1074 1.387 . S
C1078 C1079 1.387 . S
C1078 H1082 0.950 . S
C1078 C1087 1.390 . S
C1079 C1078 1.387 . S
C1079 C1081 1.387 . S
H1080 C1087 0.950 . S
C1081 C1079 1.387 . S
C1081 C1083 1.390 . S
C1081 H1085 0.950 . S
H1082 C1078 0.950 . S
C1083 C1081 1.390 . S
C1083 C1084 1.387 . S
C1083 H1086 0.950 . S
C1084 C1083 1.387 . S
C1084 C1087 1.387 . S
H1085 C1081 0.950 . S
H1086 C1083 0.950 . S
C1087 C1078 1.390 . S
C1087 H1080 0.950 . S
C1087 C1084 1.387 . S
C449 C117 1.202 . S
C454 C5 1.202 . S
C459 C355 1.202 . S
C464 C19 1.202 . S
C469 C145 1.208 . S
C474 C33 1.208 . S
C479 C383 1.208 . S
C484 C47 1.208 . S
C489 C173 1.204 . S
C494 C61 1.204 . S
C499 C75 1.209 . S
C504 C411 1.209 . S
C509 C89 1.208 . S
C514 C201 1.208 . S
C519 C103 1.202 . S
C524 C439 1.202 . S
C529 C243 1.209 . S
C534 C131 1.209 . S
C539 C271 1.202 . S
C544 C159 1.202 . S
C549 C187 1.203 . S
C554 C299 1.203 . S
C559 C215 1.203 . S
C564 C327 1.203 . S
C569 C229 1.208 . S
C574 C341 1.208 . S
C579 C369 1.208 . S
C584 C257 1.208 . S
C589 C285 1.202 . S
C594 C397 1.202 . S
C599 C425 1.208 . S
C604 C313 1.208 . S
C609 C256 1.380 . S
C614 C4 1.380 . S
C619 C270 1.379 . S
C624 C18 1.379 . S
C629 C32 1.379 . S
C634 C228 1.379 . S
C639 C46 1.380 . S
C644 C242 1.380 . S
C649 C312 1.380 . S
C654 C60 1.380 . S
C659 C74 1.379 . S
C664 C326 1.379 . S
C669 C284 1.380 . S
C674 C88 1.380 . S
C679 C298 1.380 . S
C684 C102 1.380 . S
C689 C116 1.379 . S
C694 C368 1.379 . S
C699 C382 1.380 . S
C704 C130 1.380 . S
C709 C144 1.379 . S
C714 C340 1.379 . S
C719 C158 1.380 . S
C724 C354 1.380 . S
C729 C172 1.379 . S
C734 C424 1.379 . S
C739 C186 1.379 . S
C744 C438 1.379 . S
C749 C396 1.379 . S
C754 C200 1.379 . S
C759 C410 1.380 . S
C764 C214 1.380 . S
C769 C95 1.428 . S
C774 C11 1.428 . S
C779 C109 1.426 . S
C784 C25 1.426 . S
C789 C67 1.426 . S
C794 C39 1.426 . S
C799 C53 1.428 . S
C804 C81 1.428 . S
C809 C207 1.428 . S
C814 C123 1.428 . S
C819 C221 1.428 . S
C824 C137 1.428 . S
C829 C179 1.428 . S
C834 C151 1.428 . S
C839 C193 1.426 . S
C844 C165 1.426 . S
C849 C319 1.426 . S
C854 C235 1.426 . S
C859 C333 1.428 . S
C864 C249 1.428 . S
C869 C263 1.426 . S
C874 C291 1.426 . S
C879 C277 1.426 . S
C884 C305 1.426 . S
C889 C431 1.428 . S
C894 C347 1.428 . S
C899 C445 1.426 . S
C904 C361 1.426 . S
C909 C375 1.428 . S
C914 C403 1.428 . S
C919 C389 1.428 . S
C924 C417 1.428 . S
C929 C12 1.518 . S
C934 C306 1.519 . S
C939 C320 1.518 . S
C944 C26 1.518 . S
C949 C334 1.518 . S
C954 C40 1.519 . S
C959 C54 1.519 . S
C964 C292 1.518 . S
C969 C278 1.519 . S
C974 C68 1.518 . S
C979 C82 1.519 . S
C984 C236 1.518 . S
C989 C250 1.519 . S
C994 C96 1.518 . S
C999 C110 1.519 . S
C1004 C264 1.519 . S
C1009 C418 1.519 . S
C1014 C124 1.518 . S
C1019 C432 1.518 . S
C1024 C138 1.519 . S
C1029 C152 1.518 . S
C1034 C446 1.518 . S
C1039 C404 1.519 . S
C1044 C166 1.518 . S
C1049 C390 1.519 . S
C1054 C180 1.518 . S
C1059 C194 1.518 . S
C1064 C348 1.519 . S
C1069 C362 1.518 . S
C1074 C208 1.519 . S
C1079 C222 1.519 . S
C1084 C376 1.518 . S
