# Generated by pormake.
# Topology vmr, (7)-cn, num edge types: 1
# Building blocks:
#     Node 0, Type 0, BuildingBlock: HICVOG_clean_sbu_0, # of connection points: 7
#     Node 1, Type 0, BuildingBlock: HICVOG_clean_sbu_0, # of connection points: 7
#     Node 2, Type 0, BuildingBlock: HICVOG_clean_sbu_0, # of connection points: 7
#     Node 3, Type 0, BuildingBlock: HICVOG_clean_sbu_0, # of connection points: 7
#     Edge 4, Type (0, 0), BuildingBlock: FUNLAD_clean_linker_0, # of connection points: 2
#     Edge 5, Type (0, 0), BuildingBlock: FUNLAD_clean_linker_0, # of connection points: 2
#     Edge 6, Type (0, 0), BuildingBlock: FUNLAD_clean_linker_0, # of connection points: 2
#     Edge 7, Type (0, 0), BuildingBlock: FUNLAD_clean_linker_0, # of connection points: 2
#     Edge 8, Type (0, 0), BuildingBlock: FUNLAD_clean_linker_0, # of connection points: 2
#     Edge 9, Type (0, 0), BuildingBlock: FUNLAD_clean_linker_0, # of connection points: 2
#     Edge 10, Type (0, 0), BuildingBlock: FUNLAD_clean_linker_0, # of connection points: 2
#     Edge 11, Type (0, 0), BuildingBlock: FUNLAD_clean_linker_0, # of connection points: 2
#     Edge 12, Type (0, 0), BuildingBlock: FUNLAD_clean_linker_0, # of connection points: 2
#     Edge 13, Type (0, 0), BuildingBlock: FUNLAD_clean_linker_0, # of connection points: 2
#     Edge 14, Type (0, 0), BuildingBlock: FUNLAD_clean_linker_0, # of connection points: 2
#     Edge 15, Type (0, 0), BuildingBlock: FUNLAD_clean_linker_0, # of connection points: 2
#     Edge 16, Type (0, 0), BuildingBlock: FUNLAD_clean_linker_0, # of connection points: 2
#     Edge 17, Type (0, 0), BuildingBlock: FUNLAD_clean_linker_0, # of connection points: 2
# Relax obj value: 0.075
# Max RMSD: 0.172
# Mean RMSD: 0.172
data_MOF--net-vmr--node1-HICVOG_clean_sbu_0--edge1-FUNLAD_clean_linker_0
_symmetry_space_group_name_H-M    P1
_symmetry_Int_Tables_number       1
_symmetry_cell_setting            triclinic
loop_
_symmetry_equiv_pos_as_xyz
'x, y, z'
_cell_length_a     29.238675
_cell_length_b     24.795326
_cell_length_c     40.842486
_cell_angle_alpha  90.005494
_cell_angle_beta   122.12664
_cell_angle_gamma 90.074125
loop_
_atom_site_label
_atom_site_type_symbol
_atom_site_fract_x
_atom_site_fract_y
_atom_site_fract_z
_atom_type_partial_charge
Zn0 Zn 0.22788 0.36032 0.16857 0.0
C1 C 0.1074 0.34228 0.18687 0.0
N2 N 0.08097 0.37504 0.15614 0.0
C3 C 0.11399 0.37671 0.14264 0.0
N4 N 0.15945 0.34772 0.16473 0.0
N5 N 0.15466 0.32522 0.19216 0.0
C6 C 0.21977 0.27226 0.29981 0.0
O7 O 0.26115 0.29854 0.30323 0.0
O8 O 0.21854 0.35558 0.11586 0.0
Zn9 Zn 0.18861 0.25905 0.21948 0.0
N10 N 0.25397 0.43221 0.19061 0.0
C11 C 0.2422 0.5098 0.21971 0.0
C12 C 0.22491 0.45946 0.20245 0.0
C13 C 0.30059 0.45352 0.19589 0.0
N14 N 0.28864 0.53071 0.2253 0.0
C15 C 0.31889 0.50426 0.2141 0.0
O16 O 0.26578 0.24742 0.23378 0.0
C17 C 0.29887 0.26701 0.22564 0.0
O18 O 0.28633 0.30682 0.2027 0.0
H19 H 0.1889 0.4421 0.1992 0.0
H20 H 0.32377 0.43043 0.18719 0.0
C21 C 0.12349 0.16176 0.19548 0.0
C22 C 0.08978 0.12245 0.16831 0.0
C23 C 0.10306 0.16381 0.12151 0.0
C24 C 0.13618 0.20265 0.14846 0.0
N25 N 0.14561 0.20105 0.18479 0.0
N26 N 0.08044 0.12498 0.13193 0.0
H27 H 0.13078 0.16222 0.22437 0.0
C28 C 0.22176 0.30922 0.10388 0.0
O29 O 0.22975 0.26698 0.1257 0.0
O30 O 0.18447 0.25274 0.26714 0.0
H31 H 0.15367 0.23443 0.14042 0.0
H32 H 0.21935 0.5318 0.2292 0.0
H33 H 0.09492 0.1648 0.09239 0.0
Zn34 Zn 0.83205 0.76236 0.2788 0.0
C35 C 0.90169 0.88119 0.3568 0.0
N36 N 0.93563 0.88234 0.34412 0.0
C37 C 0.91216 0.84823 0.31401 0.0
N38 N 0.86579 0.82735 0.30835 0.0
N39 N 0.85872 0.84876 0.33509 0.0
C40 C 0.80249 0.80825 0.40032 0.0
O41 O 0.79737 0.76376 0.38119 0.0
O42 O 0.83341 0.76124 0.2299 0.0
Zn43 Zn 0.79012 0.85535 0.33188 0.0
N44 N 0.87488 0.7028 0.31109 0.0
C45 C 0.90422 0.65244 0.36848 0.0
C46 C 0.87607 0.69584 0.3445 0.0
C47 C 0.90133 0.66842 0.30074 0.0
N48 N 0.93024 0.61776 0.3581 0.0
C49 C 0.92999 0.62447 0.32491 0.0
O50 O 0.73457 0.798 0.29992 0.0
C51 C 0.72331 0.76022 0.27563 0.0
O52 O 0.75587 0.74658 0.26537 0.0
H53 H 0.85478 0.72365 0.35216 0.0
H54 H 0.8989 0.67465 0.27365 0.0
C55 C 0.7165 0.94626 0.30862 0.0
C56 C 0.69465 0.99615 0.2902 0.0
C57 C 0.75995 1.00009 0.27241 0.0
C58 C 0.78095 0.95077 0.29031 0.0
N59 N 0.75917 0.92483 0.30822 0.0
N60 N 0.71749 1.02138 0.27268 0.0
H61 H 0.69933 0.92392 0.3223 0.0
C62 C 0.79502 0.78144 0.1987 0.0
O63 O 0.75436 0.80396 0.1987 0.0
O64 O 0.80121 0.85341 0.3851 0.0
H65 H 0.81413 0.93319 0.28955 0.0
H66 H 0.90523 0.64618 0.39506 0.0
H67 H 0.77694 1.02117 0.2581 0.0
Zn68 Zn 0.82395 0.78033 0.77699 0.0
C69 C 0.90199 0.66638 0.85733 0.0
N70 N 0.93588 0.66835 0.84462 0.0
C71 C 0.9096 0.70035 0.81345 0.0
N72 N 0.8616 0.71693 0.80721 0.0
N73 N 0.85629 0.69467 0.8345 0.0
C74 C 0.80019 0.72727 0.89905 0.0
O75 O 0.79439 0.77164 0.87963 0.0
O76 O 0.82285 0.78176 0.72703 0.0
Zn77 Zn 0.78816 0.68133 0.83083 0.0
N78 N 0.86538 0.84172 0.808 0.0
C79 C 0.90703 0.88698 0.86857 0.0
C80 C 0.87779 0.84345 0.8451 0.0
C81 C 0.88101 0.8819 0.79331 0.0
N82 N 0.92226 0.92734 0.85388 0.0
C83 C 0.90987 0.92654 0.81666 0.0
O84 O 0.72933 0.73558 0.79889 0.0
C85 C 0.7162 0.77465 0.77531 0.0
O86 O 0.74797 0.79214 0.7653 0.0
H87 H 0.86504 0.81114 0.85627 0.0
H88 H 0.87156 0.87851 0.76399 0.0
C89 C 0.71561 0.58886 0.80229 0.0
C90 C 0.69708 0.5385 0.78362 0.0
C91 C 0.77292 0.53405 0.77693 0.0
C92 C 0.79058 0.58397 0.79487 0.0
N93 N 0.76194 0.61046 0.80738 0.0
N94 N 0.72674 0.51276 0.7716 0.0
H95 H 0.69295 0.61142 0.81168 0.0
C96 C 0.79244 0.81452 0.70019 0.0
O97 O 0.76073 0.8466 0.70499 0.0
O98 O 0.7993 0.68206 0.88401 0.0
H99 H 0.8266 0.60154 0.79824 0.0
H100 H 0.91738 0.88883 0.89822 0.0
H101 H 0.79537 0.5126 0.76687 0.0
Zn102 Zn 0.17886 0.28967 0.71607 0.0
C103 C 0.11502 0.16429 0.6439 0.0
N104 N 0.08147 0.16352 0.65692 0.0
C105 C 0.10416 0.19954 0.68588 0.0
N106 N 0.14964 0.22113 0.69054 0.0
N107 N 0.15705 0.1983 0.66436 0.0
C108 C 0.21457 0.24469 0.60162 0.0
O109 O 0.218 0.28707 0.62212 0.0
O110 O 0.17472 0.29604 0.76374 0.0
Zn111 Zn 0.22587 0.19256 0.66775 0.0
N112 N 0.13233 0.34458 0.67993 0.0
C113 C 0.084 0.37693 0.61521 0.0
C114 C 0.11951 0.34011 0.64283 0.0
C115 C 0.11138 0.38483 0.69074 0.0
N116 N 0.06255 0.41672 0.6258 0.0
C117 C 0.07533 0.42213 0.66293 0.0
O118 O 0.28055 0.24993 0.70079 0.0
C119 C 0.28988 0.29009 0.72295 0.0
O120 O 0.25512 0.30654 0.7304 0.0
H121 H 0.13623 0.30767 0.63472 0.0
H122 H 0.1215 0.38667 0.72032 0.0
C123 C 0.30028 0.10137 0.69074 0.0
C124 C 0.32233 0.05161 0.70944 0.0
C125 C 0.25643 0.04735 0.72663 0.0
C126 C 0.23542 0.0966 0.70866 0.0
N127 N 0.25728 0.12266 0.69084 0.0
N128 N 0.29922 0.02629 0.72672 0.0
H129 H 0.31771 0.12372 0.67724 0.0
C130 C 0.21383 0.28321 0.7972 0.0
O131 O 0.25836 0.26423 0.80104 0.0
O132 O 0.21589 0.19792 0.6149 0.0
H133 H 0.20223 0.11412 0.70942 0.0
H134 H 0.07315 0.37366 0.58551 0.0
H135 H 0.23931 0.02623 0.74084 0.0
C136 C 0.36244 0.18873 0.25765 0.0
C137 C 0.3517 0.24002 0.24033 0.0
C138 C 0.40969 0.1608 0.26725 0.0
C139 C 0.44759 0.18386 0.26002 0.0
C140 C 0.43763 0.23598 0.24414 0.0
C141 C 0.39043 0.26364 0.23438 0.0
C142 C 0.49606 0.15458 0.2659 0.0
C143 C 0.51303 0.10552 0.28243 0.0
C144 C 0.55913 0.0769 0.28411 0.0
C145 C 0.59004 0.03985 0.31395 0.0
C146 C 0.63374 1.01282 0.31612 0.0
C147 C 0.64704 1.02185 0.28809 0.0
H148 H 0.54756 0.1111 0.23121 0.0
C149 C 0.61505 0.05791 0.25774 0.0
C150 C 0.57164 0.08476 0.25563 0.0
H151 H 0.62329 0.06533 0.23522 0.0
H152 H 0.33342 0.16921 0.26253 0.0
H153 H 0.41513 0.12074 0.27915 0.0
H154 H 0.46589 0.25504 0.23826 0.0
H155 H 0.38378 0.30315 0.22128 0.0
H156 H 0.51891 0.17492 0.25554 0.0
H157 H 0.49384 0.08584 0.29578 0.0
H158 H 0.58097 0.03251 0.33607 0.0
H159 H 0.65763 0.98598 0.34023 0.0
C160 C 0.39123 0.52374 0.19904 0.0
C161 C 0.37068 0.52941 0.22318 0.0
C162 C 0.43801 0.55185 0.20718 0.0
C163 C 0.46525 0.58598 0.23979 0.0
C164 C 0.4453 0.59006 0.26426 0.0
C165 C 0.39872 0.56256 0.25601 0.0
C166 C 0.51416 0.61854 0.24998 0.0
C167 C 0.53276 0.62812 0.22653 0.0
C168 C 0.58031 0.66379 0.23823 0.0
C169 C 0.61296 0.65434 0.22313 0.0
C170 C 0.65876 0.68619 0.23457 0.0
C171 C 0.67259 0.72881 0.26105 0.0
H172 H 0.56783 0.71773 0.27476 0.0
C173 C 0.63864 0.73954 0.27496 0.0
C174 C 0.59309 0.7076 0.26365 0.0
H175 H 0.64755 0.77228 0.29508 0.0
H176 H 0.37045 0.49889 0.17333 0.0
H177 H 0.45229 0.54666 0.18782 0.0
H178 H 0.46535 0.61554 0.28972 0.0
H179 H 0.38449 0.56759 0.27549 0.0
H180 H 0.53545 0.6367 0.27857 0.0
H181 H 0.51374 0.60904 0.19836 0.0
H182 H 0.6037 0.62144 0.20306 0.0
H183 H 0.68371 0.67686 0.22305 0.0
C184 C 0.40272 0.99103 0.74326 0.0
C185 C 0.3705 0.02609 0.71224 0.0
C186 C 0.44629 0.96377 0.7459 0.0
C187 C 0.45876 0.97012 0.71727 0.0
C188 C 0.42778 1.0064 0.68684 0.0
C189 C 0.38393 0.03393 0.68418 0.0
C190 C 0.50475 0.94055 0.71933 0.0
C191 C 0.52175 0.89199 0.73677 0.0
C192 C 0.56977 0.86155 0.74275 0.0
C193 C 0.58039 0.81069 0.76057 0.0
C194 C 0.62687 0.78189 0.76996 0.0
C195 C 0.66424 0.80302 0.76168 0.0
H196 H 0.60037 0.92111 0.71984 0.0
C197 C 0.65293 0.85308 0.74262 0.0
C198 C 0.60638 0.88216 0.73338 0.0
H199 H 0.68089 0.8707 0.73588 0.0
H200 H 0.39443 0.98463 0.76585 0.0
H201 H 0.47042 0.9382 0.77077 0.0
H202 H 0.43684 1.01267 0.66462 0.0
H203 H 0.35993 0.06009 0.65965 0.0
H204 H 0.52376 0.95907 0.70547 0.0
H205 H 0.49918 0.87287 0.74781 0.0
H206 H 0.55313 0.79347 0.76814 0.0
H207 H 0.63397 0.74342 0.78446 0.0
C208 C 0.62581 0.51916 0.79966 0.0
C209 C 0.64581 0.51295 0.77523 0.0
C210 C 0.57931 0.49119 0.79211 0.0
C211 C 0.55178 0.45656 0.75983 0.0
C212 C 0.57133 0.45168 0.73516 0.0
C213 C 0.61762 0.47916 0.74278 0.0
C214 C 0.50326 0.42389 0.75038 0.0
C215 C 0.48196 0.41925 0.77257 0.0
C216 C 0.43432 0.3841 0.76133 0.0
C217 C 0.39843 0.39806 0.77289 0.0
C218 C 0.35214 0.36698 0.76126 0.0
C219 C 0.34106 0.32076 0.73814 0.0
H220 H 0.45216 0.32319 0.73139 0.0
C221 C 0.37831 0.30555 0.72803 0.0
C222 C 0.42438 0.33666 0.73955 0.0
H223 H 0.37159 0.26992 0.71066 0.0
H224 H 0.6468 0.54433 0.82519 0.0
H225 H 0.56573 0.49671 0.81185 0.0
H226 H 0.55113 0.4257 0.70996 0.0
H227 H 0.63146 0.47365 0.72311 0.0
H228 H 0.48406 0.40194 0.7232 0.0
H229 H 0.4982 0.44258 0.79892 0.0
H230 H 0.40548 0.43389 0.79015 0.0
H231 H 0.32459 0.37977 0.76984 0.0
C232 C 0.08842 0.05546 0.21429 0.0
C233 C 0.06265 0.07987 0.17763 0.0
C234 C 0.06209 1.01538 0.22246 0.0
C235 C 0.00924 0.99911 0.19418 0.0
C236 C 0.98359 1.02358 0.15765 0.0
C237 C 0.01022 0.06294 0.14928 0.0
C238 C 0.9782 0.96071 0.20313 0.0
C239 C 1.00148 0.91984 0.2286 0.0
C240 C 0.97397 0.88823 0.24445 0.0
C241 C 1.00644 0.86036 0.27939 0.0
C242 C 0.98453 0.84056 0.30021 0.0
C243 C 0.92952 0.84733 0.28619 0.0
H244 H 0.89063 0.90908 0.20108 0.0
C245 C 0.8959 0.8701 0.24949 0.0
C246 C 0.91772 0.88987 0.22851 0.0
H247 H 0.85365 0.87739 0.23864 0.0
H248 H 0.12903 0.06709 0.23665 0.0
H249 H 0.08261 0.99847 0.25129 0.0
H250 H 0.94268 1.01236 0.13553 0.0
H251 H 0.9892 0.08106 0.12079 0.0
H252 H 0.93529 0.96832 0.18911 0.0
H253 H 0.04434 0.91252 0.2413 0.0
H254 H 0.04971 0.85772 0.29225 0.0
H255 H 0.01144 0.82409 0.32882 0.0
C256 C 0.13039 0.36939 0.25207 0.0
C257 C 0.0945 0.34323 0.21705 0.0
C258 C 0.11187 0.39053 0.27468 0.0
C259 C 0.05711 0.38576 0.2625 0.0
C260 C 0.02279 0.35435 0.22979 0.0
C261 C 0.04115 0.33396 0.20685 0.0
C262 C 0.03339 0.41879 0.28012 0.0
C263 C 0.04609 0.47147 0.28809 0.0
C264 C 0.01612 0.50965 0.29803 0.0
C265 C 0.01371 0.56422 0.28798 0.0
C266 C 0.98524 0.6015 0.29613 0.0
C267 C 0.95915 0.58512 0.3151 0.0
H268 H 0.99254 0.45179 0.3263 0.0
C269 C 0.96258 0.5307 0.32595 0.0
C270 C 0.99048 0.49325 0.31732 0.0
H271 H 0.94327 0.51691 0.34088 0.0
H272 H 0.17136 0.37824 0.26001 0.0
H273 H 0.13946 0.41367 0.30025 0.0
H274 H 0.98052 0.34985 0.22 0.0
H275 H 0.01256 0.31483 0.17956 0.0
H276 H 0.99955 0.40208 0.28081 0.0
H277 H 0.07615 0.48875 0.28317 0.0
H278 H 0.03353 0.57805 0.27341 0.0
H279 H 0.98462 0.64328 0.28821 0.0
C280 C 0.97241 1.00374 0.82814 0.0
C281 C 0.92741 0.9722 0.80212 0.0
C282 C 0.98981 0.04647 0.81496 0.0
C283 C 0.96245 0.05883 0.77525 0.0
C284 C 0.91663 0.02819 0.74949 0.0
C285 C 0.89924 0.98561 0.76264 0.0
C286 C 0.98069 0.10132 0.75875 0.0
C287 C 0.02675 0.13038 0.7788 0.0
C288 C 0.04745 0.16334 0.75889 0.0
C289 C 0.10334 0.16493 0.77428 0.0
C290 C 0.12321 0.18358 0.75182 0.0
C291 C 0.08753 0.20204 0.71404 0.0
H292 H 0.96938 0.18915 0.71064 0.0
C293 C 0.03239 0.20623 0.70038 0.0
C294 C 0.01249 0.1876 0.72275 0.0
H295 H 1.0041 0.21986 0.67114 0.0
H296 H 0.99486 0.99493 0.8588 0.0
H297 H 0.02484 0.06901 0.83614 0.0
H298 H 0.89427 0.03685 0.71878 0.0
H299 H 0.86333 0.96377 0.7417 0.0
H300 H 0.95654 0.10558 0.72751 0.0
H301 H 0.05349 0.12482 0.80969 0.0
H302 H 0.13126 0.14714 0.80223 0.0
H303 H 0.1657 0.17841 0.76252 0.0
C304 C 0.07745 0.49241 0.70837 0.0
C305 C 0.04946 0.46562 0.67254 0.0
C306 C 0.0522 0.53303 0.71698 0.0
C307 C 0.99827 0.54754 0.68998 0.0
C308 C 0.97046 0.52083 0.65422 0.0
C309 C 0.99595 0.48086 0.64538 0.0
C310 C 0.96853 0.58634 0.69977 0.0
C311 C 0.99258 0.6283 0.72413 0.0
C312 C 0.96686 0.66005 0.74118 0.0
C313 C 1.00077 0.68722 0.77621 0.0
C314 C 0.98044 0.7071 0.79801 0.0
C315 C 0.92558 0.70116 0.78485 0.0
H316 H 0.88277 0.64076 0.69856 0.0
C317 C 0.89049 0.67943 0.74794 0.0
C318 C 0.91084 0.65928 0.72612 0.0
H319 H 0.84816 0.67338 0.73748 0.0
H320 H 0.11893 0.48215 0.72977 0.0
H321 H 0.07448 0.55168 0.74527 0.0
H322 H 0.92872 0.53069 0.63312 0.0
H323 H 0.97324 0.46091 0.61756 0.0
H324 H 0.92607 0.57794 0.68762 0.0
H325 H 0.03494 0.63631 0.7352 0.0
H326 H 0.04393 0.68919 0.78838 0.0
H327 H 1.00842 0.72295 0.82667 0.0
C328 C 0.92887 0.57794 0.89023 0.0
C329 C 0.91299 0.63144 0.88977 0.0
C330 C 0.9517 0.54739 0.92406 0.0
C331 C 0.95977 0.57017 0.9583 0.0
C332 C 0.94095 0.62274 0.95714 0.0
C333 C 0.91845 0.65345 0.92326 0.0
C334 C 0.98844 0.54067 0.99569 0.0
C335 C 0.02721 0.50356 0.00464 0.0
C336 C 0.05605 0.47403 0.04206 0.0
C337 C 0.07685 0.42233 0.04353 0.0
C338 C 0.0995 0.3914 0.07734 0.0
C339 C 0.10273 0.41225 0.11038 0.0
H340 H 0.049 0.53629 0.07666 0.0
C341 C 0.08504 0.46503 0.1097 0.0
C342 C 0.06234 0.49585 0.07603 0.0
H343 H 0.08703 0.48179 0.13494 0.0
H344 H 0.92546 0.5604 0.86471 0.0
H345 H 0.96377 0.50638 0.92338 0.0
H346 H 0.94623 0.64109 0.98302 0.0
H347 H 0.90851 0.69531 0.92394 0.0
H348 H 0.97813 0.55137 0.01676 0.0
H349 H 0.03744 0.49302 0.98349 0.0
H350 H 0.07307 0.40475 0.0179 0.0
H351 H 0.11115 0.35012 0.07683 0.0
C352 C 0.92526 0.96932 0.39012 0.0
C353 C 0.91114 0.91504 0.38934 0.0
C354 C 0.9487 0.99892 0.42442 0.0
C355 C 0.95911 0.97443 0.45878 0.0
C356 C 0.94144 0.92119 0.4573 0.0
C357 C 0.9183 0.89143 0.42293 0.0
C358 C 0.98945 1.00275 0.49663 0.0
C359 C 0.02771 0.04036 0.50506 0.0
C360 C 0.05799 0.069 0.54281 0.0
C361 C 0.07674 0.12172 0.54416 0.0
C362 C 0.09981 0.15201 0.5783 0.0
C363 C 0.10563 0.12949 0.61177 0.0
H364 H 0.05543 1.00427 0.57772 0.0
C365 C 0.09047 0.07563 0.61119 0.0
C366 C 0.06723 0.04547 0.57715 0.0
H367 H 0.09434 0.05762 0.63673 0.0
H368 H 0.92047 0.98813 0.36452 0.0
H369 H 0.95973 0.04048 0.42403 0.0
H370 H 0.94844 0.90155 0.48328 0.0
H371 H 0.90969 0.84904 0.42335 0.0
H372 H 0.98096 0.99075 0.51844 0.0
H373 H 0.03616 0.0522 0.4832 0.0
H374 H 0.07063 0.14063 0.51821 0.0
H375 H 0.10921 0.1941 0.57767 0.0
C376 C 0.25192 0.27445 0.86831 0.0
C377 C 0.20909 0.28945 0.83137 0.0
C378 C 0.24795 0.28114 0.9007 0.0
C379 C 0.20085 0.30282 0.89688 0.0
C380 C 0.15821 0.31813 0.86 0.0
C381 C 0.16208 0.3112 0.82755 0.0
C382 C 0.19582 0.31173 0.93088 0.0
C383 C 0.22202 0.28134 0.96311 0.0
C384 C 0.21837 0.28959 0.99775 0.0
C385 C 0.23083 0.24613 0.02313 0.0
C386 C 0.23079 0.25241 0.05708 0.0
C387 C 0.21898 0.30264 0.06681 0.0
H388 H 0.19723 0.37469 0.98882 0.0
C389 C 0.20612 0.34626 0.04136 0.0
C390 C 0.20581 0.33985 0.00714 0.0
H391 H 0.1969 0.3855 0.04806 0.0
H392 H 0.28885 0.25792 0.87233 0.0
H393 H 0.28239 0.27038 0.92874 0.0
H394 H 0.12164 0.33528 0.85623 0.0
H395 H 0.12832 0.32325 0.79951 0.0
H396 H 0.16786 0.3426 0.92844 0.0
H397 H 0.24579 0.24723 0.96382 0.0
H398 H 0.24096 0.20708 0.01679 0.0
H399 H 0.241 0.21796 0.07603 0.0
C400 C 0.83076 0.78674 0.66038 0.0
C401 C 0.79434 0.81824 0.6647 0.0
C402 C 0.83299 0.79099 0.62709 0.0
C403 C 0.79856 0.82677 0.59722 0.0
C404 C 0.76272 0.85865 0.60184 0.0
C405 C 0.76044 0.85433 0.63507 0.0
C406 C 0.79948 0.83301 0.56129 0.0
C407 C 0.8174 0.7946 0.54744 0.0
C408 C 0.8151 0.79975 0.51027 0.0
C409 C 0.81303 0.7526 0.4905 0.0
C410 C 0.80941 0.75543 0.45503 0.0
C411 C 0.80834 0.8056 0.43862 0.0
H412 H 0.81892 0.88731 0.50932 0.0
C413 C 0.81209 0.8529 0.45891 0.0
C414 C 0.81549 0.85006 0.49438 0.0
H415 H 0.81211 0.89218 0.44732 0.0
H416 H 0.85801 0.75915 0.6829 0.0
H417 H 0.86244 0.76689 0.62535 0.0
H418 H 0.73602 0.88685 0.57952 0.0
H419 H 0.73212 0.87947 0.63752 0.0
H420 H 0.78148 0.86939 0.54448 0.0
H421 H 0.83081 0.75617 0.56231 0.0
H422 H 0.81327 0.71332 0.50222 0.0
H423 H 0.80702 0.71817 0.44035 0.0
C424 C 0.80358 0.78005 0.95255 0.0
C425 C 0.80711 0.73019 0.93767 0.0
C426 C 0.80843 0.78305 0.98843 0.0
C427 C 0.8167 0.73609 0.01027 0.0
C428 C 0.82191 0.68648 0.99594 0.0
C429 C 0.81689 0.68345 0.95994 0.0
C430 C 0.82066 0.73758 0.04815 0.0
C431 C 0.79627 0.77561 0.05725 0.0
C432 C 0.79751 0.77643 0.09415 0.0
C433 C 0.75585 0.80306 0.09507 0.0
C434 C 0.7551 0.80472 0.12897 0.0
C435 C 0.7964 0.78024 0.16297 0.0
H436 H 0.87319 0.73328 0.12922 0.0
C437 C 0.83885 0.75459 0.16239 0.0
C438 C 0.83945 0.75269 0.12836 0.0
H439 H 0.87166 0.73588 0.18823 0.0
H440 H 0.79675 0.81695 0.93638 0.0
H441 H 0.80617 0.82233 -0.00098 0.0
H442 H 0.829 0.64977 0.01236 0.0
H443 H 0.82043 0.64446 0.94952 0.0
H444 H 0.84132 0.70434 0.06791 0.0
H445 H 0.7713 0.80578 0.03585 0.0
H446 H 0.72333 0.8222 0.06929 0.0
H447 H 0.722 0.82517 0.12845 0.0
C448 C 0.20677 0.20719 0.5416 0.0
C449 C 0.2121 0.25176 0.56468 0.0
C450 C 0.20732 0.21421 0.50777 0.0
C451 C 0.21308 0.26609 0.49629 0.0
C452 C 0.21785 0.31048 0.51922 0.0
C453 C 0.21706 0.30351 0.55285 0.0
C454 C 0.21741 0.27552 0.46203 0.0
C455 C 0.19795 0.24153 0.4317 0.0
C456 C 0.20364 0.25142 0.39807 0.0
C457 C 0.16599 0.22832 0.36218 0.0
C458 C 0.17082 0.2356 0.33018 0.0
C459 C 0.21394 0.26563 0.33349 0.0
H460 H 0.27765 0.29863 0.42878 0.0
C461 C 0.25179 0.2886 0.36943 0.0
C462 C 0.24683 0.28151 0.40139 0.0
H463 H 0.28565 0.3117 0.37305 0.0
H464 H 0.20301 0.16676 0.54997 0.0
H465 H 0.20485 0.17875 0.49147 0.0
H466 H 0.22261 0.35084 0.51126 0.0
H467 H 0.22133 0.33877 0.56992 0.0
H468 H 0.2358 0.31324 0.46132 0.0
H469 H 0.17501 0.20629 0.43047 0.0
H470 H 0.13258 0.20464 0.35882 0.0
H471 H 0.14094 0.21728 0.30292 0.0
loop_
_geom_bond_atom_site_label_1
_geom_bond_atom_site_label_2
_geom_bond_distance
_geom_bond_site_symmetry_2
_ccdc_geom_bond_type
Zn0 N4 2.020 . S
Zn0 O8 2.019 . S
Zn0 N10 2.119 . S
Zn0 O18 1.975 . S
C1 N2 1.334 . S
C1 N5 1.336 . S
N2 C1 1.334 . S
N2 C3 1.334 . S
C3 N2 1.334 . S
C3 N4 1.336 . S
N4 Zn0 2.020 . S
N4 C3 1.336 . S
N4 N5 1.354 . S
N5 C1 1.336 . S
N5 N4 1.354 . S
N5 Zn9 2.020 . S
C6 O7 1.244 . S
C6 O30 1.257 . S
O7 C6 1.244 . S
O8 Zn0 2.019 . S
O8 C28 1.257 . S
Zn9 N5 2.020 . S
Zn9 O16 1.975 . S
Zn9 N25 2.119 . S
Zn9 O30 2.019 . S
N10 Zn0 2.119 . S
N10 C12 1.334 . S
N10 C13 1.328 . S
C11 C12 1.391 . S
C11 N14 1.329 . S
C11 H32 0.930 . S
C12 N10 1.334 . S
C12 C11 1.391 . S
C12 H19 0.930 . S
C13 N10 1.328 . S
C13 C15 1.392 . S
C13 H20 0.930 . S
N14 C11 1.329 . S
N14 C15 1.331 . S
C15 C13 1.392 . S
C15 N14 1.331 . S
O16 Zn9 1.975 . S
O16 C17 1.252 . S
C17 O16 1.252 . S
C17 O18 1.252 . S
O18 Zn0 1.975 . S
O18 C17 1.252 . S
H19 C12 0.930 . S
H20 C13 0.930 . S
C21 C22 1.392 . S
C21 N25 1.328 . S
C21 H27 0.930 . S
C22 C21 1.392 . S
C22 N26 1.331 . S
C23 C24 1.391 . S
C23 N26 1.329 . S
C23 H33 0.930 . S
C24 C23 1.391 . S
C24 N25 1.334 . S
C24 H31 0.930 . S
N25 Zn9 2.119 . S
N25 C21 1.328 . S
N25 C24 1.334 . S
N26 C22 1.331 . S
N26 C23 1.329 . S
H27 C21 0.930 . S
C28 O8 1.257 . S
C28 O29 1.244 . S
O29 C28 1.244 . S
O30 C6 1.257 . S
O30 Zn9 2.019 . S
H31 C24 0.930 . S
H32 C11 0.930 . S
H33 C23 0.930 . S
Zn34 N38 2.020 . S
Zn34 O42 2.019 . S
Zn34 N44 2.119 . S
Zn34 O52 1.975 . S
C35 N36 1.334 . S
C35 N39 1.336 . S
N36 C35 1.334 . S
N36 C37 1.334 . S
C37 N36 1.334 . S
C37 N38 1.336 . S
N38 Zn34 2.020 . S
N38 C37 1.336 . S
N38 N39 1.354 . S
N39 C35 1.336 . S
N39 N38 1.354 . S
N39 Zn43 2.020 . S
C40 O41 1.244 . S
C40 O64 1.257 . S
O41 C40 1.244 . S
O42 Zn34 2.019 . S
O42 C62 1.257 . S
Zn43 N39 2.020 . S
Zn43 O50 1.975 . S
Zn43 N59 2.119 . S
Zn43 O64 2.019 . S
N44 Zn34 2.119 . S
N44 C46 1.334 . S
N44 C47 1.328 . S
C45 C46 1.391 . S
C45 N48 1.329 . S
C45 H66 0.930 . S
C46 N44 1.334 . S
C46 C45 1.391 . S
C46 H53 0.930 . S
C47 N44 1.328 . S
C47 C49 1.392 . S
C47 H54 0.930 . S
N48 C45 1.329 . S
N48 C49 1.331 . S
C49 C47 1.392 . S
C49 N48 1.331 . S
O50 Zn43 1.975 . S
O50 C51 1.252 . S
C51 O50 1.252 . S
C51 O52 1.252 . S
O52 Zn34 1.975 . S
O52 C51 1.252 . S
H53 C46 0.930 . S
H54 C47 0.930 . S
C55 C56 1.392 . S
C55 N59 1.328 . S
C55 H61 0.930 . S
C56 C55 1.392 . S
C56 N60 1.331 . S
C57 C58 1.391 . S
C57 N60 1.329 . S
C57 H67 0.930 . S
C58 C57 1.391 . S
C58 N59 1.334 . S
C58 H65 0.930 . S
N59 Zn43 2.119 . S
N59 C55 1.328 . S
N59 C58 1.334 . S
N60 C56 1.331 . S
N60 C57 1.329 . S
H61 C55 0.930 . S
C62 O42 1.257 . S
C62 O63 1.244 . S
O63 C62 1.244 . S
O64 C40 1.257 . S
O64 Zn43 2.019 . S
H65 C58 0.930 . S
H66 C45 0.930 . S
H67 C57 0.930 . S
Zn68 N72 2.020 . S
Zn68 O76 2.019 . S
Zn68 N78 2.119 . S
Zn68 O86 1.975 . S
C69 N70 1.334 . S
C69 N73 1.336 . S
N70 C69 1.334 . S
N70 C71 1.334 . S
C71 N70 1.334 . S
C71 N72 1.336 . S
N72 Zn68 2.020 . S
N72 C71 1.336 . S
N72 N73 1.354 . S
N73 C69 1.336 . S
N73 N72 1.354 . S
N73 Zn77 2.020 . S
C74 O75 1.244 . S
C74 O98 1.257 . S
O75 C74 1.244 . S
O76 Zn68 2.019 . S
O76 C96 1.257 . S
Zn77 N73 2.020 . S
Zn77 O84 1.975 . S
Zn77 N93 2.119 . S
Zn77 O98 2.019 . S
N78 Zn68 2.119 . S
N78 C80 1.334 . S
N78 C81 1.328 . S
C79 C80 1.391 . S
C79 N82 1.329 . S
C79 H100 0.930 . S
C80 N78 1.334 . S
C80 C79 1.391 . S
C80 H87 0.930 . S
C81 N78 1.328 . S
C81 C83 1.392 . S
C81 H88 0.930 . S
N82 C79 1.329 . S
N82 C83 1.331 . S
C83 C81 1.392 . S
C83 N82 1.331 . S
O84 Zn77 1.975 . S
O84 C85 1.252 . S
C85 O84 1.252 . S
C85 O86 1.252 . S
O86 Zn68 1.975 . S
O86 C85 1.252 . S
H87 C80 0.930 . S
H88 C81 0.930 . S
C89 C90 1.392 . S
C89 N93 1.328 . S
C89 H95 0.930 . S
C90 C89 1.392 . S
C90 N94 1.331 . S
C91 C92 1.391 . S
C91 N94 1.329 . S
C91 H101 0.930 . S
C92 C91 1.391 . S
C92 N93 1.334 . S
C92 H99 0.930 . S
N93 Zn77 2.119 . S
N93 C89 1.328 . S
N93 C92 1.334 . S
N94 C90 1.331 . S
N94 C91 1.329 . S
H95 C89 0.930 . S
C96 O76 1.257 . S
C96 O97 1.244 . S
O97 C96 1.244 . S
O98 C74 1.257 . S
O98 Zn77 2.019 . S
H99 C92 0.930 . S
H100 C79 0.930 . S
H101 C91 0.930 . S
Zn102 N106 2.020 . S
Zn102 O110 2.019 . S
Zn102 N112 2.119 . S
Zn102 O120 1.975 . S
C103 N104 1.334 . S
C103 N107 1.336 . S
N104 C103 1.334 . S
N104 C105 1.334 . S
C105 N104 1.334 . S
C105 N106 1.336 . S
N106 Zn102 2.020 . S
N106 C105 1.336 . S
N106 N107 1.354 . S
N107 C103 1.336 . S
N107 N106 1.354 . S
N107 Zn111 2.020 . S
C108 O109 1.244 . S
C108 O132 1.257 . S
O109 C108 1.244 . S
O110 Zn102 2.019 . S
O110 C130 1.257 . S
Zn111 N107 2.020 . S
Zn111 O118 1.975 . S
Zn111 N127 2.119 . S
Zn111 O132 2.019 . S
N112 Zn102 2.119 . S
N112 C114 1.334 . S
N112 C115 1.328 . S
C113 C114 1.391 . S
C113 N116 1.329 . S
C113 H134 0.930 . S
C114 N112 1.334 . S
C114 C113 1.391 . S
C114 H121 0.930 . S
C115 N112 1.328 . S
C115 C117 1.392 . S
C115 H122 0.930 . S
N116 C113 1.329 . S
N116 C117 1.331 . S
C117 C115 1.392 . S
C117 N116 1.331 . S
O118 Zn111 1.975 . S
O118 C119 1.252 . S
C119 O118 1.252 . S
C119 O120 1.252 . S
O120 Zn102 1.975 . S
O120 C119 1.252 . S
H121 C114 0.930 . S
H122 C115 0.930 . S
C123 C124 1.392 . S
C123 N127 1.328 . S
C123 H129 0.930 . S
C124 C123 1.392 . S
C124 N128 1.331 . S
C125 C126 1.391 . S
C125 N128 1.329 . S
C125 H135 0.930 . S
C126 C125 1.391 . S
C126 N127 1.334 . S
C126 H133 0.930 . S
N127 Zn111 2.119 . S
N127 C123 1.328 . S
N127 C126 1.334 . S
N128 C124 1.331 . S
N128 C125 1.329 . S
H129 C123 0.930 . S
C130 O110 1.257 . S
C130 O131 1.244 . S
O131 C130 1.244 . S
O132 C108 1.257 . S
O132 Zn111 2.019 . S
H133 C126 0.930 . S
H134 C113 0.930 . S
H135 C125 0.930 . S
C136 C137 1.386 . S
C136 C138 1.383 . S
C136 H152 0.951 . S
C137 C136 1.386 . S
C137 C141 1.383 . S
C138 C136 1.383 . S
C138 C139 1.402 . S
C138 H153 0.951 . S
C139 C138 1.402 . S
C139 C140 1.375 . S
C139 C142 1.481 . S
C140 C139 1.375 . S
C140 C141 1.367 . S
C140 H154 0.951 . S
C141 C137 1.383 . S
C141 C140 1.367 . S
C141 H155 0.950 . S
C142 C139 1.481 . S
C142 C143 1.297 . S
C142 H156 0.950 . S
C143 C142 1.297 . S
C143 C144 1.479 1_545 S
C143 H157 0.950 . S
C144 C143 1.479 1_565 S
C144 C145 1.375 . S
C144 C150 1.404 . S
C145 C144 1.375 . S
C145 C146 1.369 . S
C145 H158 0.950 . S
C146 C145 1.369 . S
C146 C147 1.392 . S
C146 H159 0.951 . S
C147 C146 1.392 . S
C147 C149 1.384 . S
H148 C150 0.949 1_545 S
C149 C147 1.384 . S
C149 C150 1.385 . S
C149 H151 0.950 . S
C150 C144 1.404 . S
C150 H148 0.949 1_565 S
C150 C149 1.385 . S
H151 C149 0.950 . S
H152 C136 0.951 . S
H153 C138 0.951 . S
H154 C140 0.951 . S
H155 C141 0.950 . S
H156 C142 0.950 . S
H157 C143 0.950 . S
H158 C145 0.950 . S
H159 C146 0.951 . S
C160 C161 1.386 . S
C160 C162 1.383 . S
C160 H176 0.951 . S
C161 C160 1.386 . S
C161 C165 1.383 . S
C162 C160 1.383 . S
C162 C163 1.402 . S
C162 H177 0.951 . S
C163 C162 1.402 . S
C163 C164 1.375 . S
C163 C166 1.481 . S
C164 C163 1.375 . S
C164 C165 1.367 . S
C164 H178 0.951 . S
C165 C161 1.383 . S
C165 C164 1.367 . S
C165 H179 0.950 . S
C166 C163 1.481 . S
C166 C167 1.297 . S
C166 H180 0.950 . S
C167 C166 1.297 . S
C167 C168 1.479 . S
C167 H181 0.950 . S
C168 C167 1.479 . S
C168 C169 1.375 . S
C168 C174 1.404 . S
C169 C168 1.375 . S
C169 C170 1.369 . S
C169 H182 0.950 . S
C170 C169 1.369 . S
C170 C171 1.392 . S
C170 H183 0.951 . S
C171 C170 1.392 . S
C171 C173 1.384 . S
H172 C174 0.949 . S
C173 C171 1.384 . S
C173 C174 1.385 . S
C173 H175 0.950 . S
C174 C168 1.404 . S
C174 H172 0.949 . S
C174 C173 1.385 . S
H175 C173 0.950 . S
H176 C160 0.951 . S
H177 C162 0.951 . S
H178 C164 0.951 . S
H179 C165 0.950 . S
H180 C166 0.950 . S
H181 C167 0.950 . S
H182 C169 0.950 . S
H183 C170 0.951 . S
C184 C185 1.386 . S
C184 C186 1.383 . S
C184 H200 0.951 . S
C185 C184 1.386 . S
C185 C189 1.383 . S
C186 C184 1.383 . S
C186 C187 1.402 1_545 S
C186 H201 0.951 . S
C187 C186 1.402 1_565 S
C187 C188 1.375 . S
C187 C190 1.481 . S
C188 C187 1.375 . S
C188 C189 1.367 1_565 S
C188 H202 0.951 . S
C189 C185 1.383 . S
C189 C188 1.367 1_545 S
C189 H203 0.950 . S
C190 C187 1.481 . S
C190 C191 1.297 . S
C190 H204 0.950 . S
C191 C190 1.297 . S
C191 C192 1.479 . S
C191 H205 0.950 . S
C192 C191 1.479 . S
C192 C193 1.375 . S
C192 C198 1.404 . S
C193 C192 1.375 . S
C193 C194 1.369 . S
C193 H206 0.950 . S
C194 C193 1.369 . S
C194 C195 1.392 . S
C194 H207 0.951 . S
C195 C194 1.392 . S
C195 C197 1.384 . S
H196 C198 0.949 . S
C197 C195 1.384 . S
C197 C198 1.385 . S
C197 H199 0.950 . S
C198 C192 1.404 . S
C198 H196 0.949 . S
C198 C197 1.385 . S
H199 C197 0.950 . S
H200 C184 0.951 . S
H201 C186 0.951 . S
H202 C188 0.951 . S
H203 C189 0.950 . S
H204 C190 0.950 . S
H205 C191 0.950 . S
H206 C193 0.950 . S
H207 C194 0.951 . S
C208 C209 1.386 . S
C208 C210 1.383 . S
C208 H224 0.951 . S
C209 C208 1.386 . S
C209 C213 1.383 . S
C210 C208 1.383 . S
C210 C211 1.402 . S
C210 H225 0.951 . S
C211 C210 1.402 . S
C211 C212 1.375 . S
C211 C214 1.481 . S
C212 C211 1.375 . S
C212 C213 1.367 . S
C212 H226 0.951 . S
C213 C209 1.383 . S
C213 C212 1.367 . S
C213 H227 0.950 . S
C214 C211 1.481 . S
C214 C215 1.297 . S
C214 H228 0.950 . S
C215 C214 1.297 . S
C215 C216 1.479 . S
C215 H229 0.950 . S
C216 C215 1.479 . S
C216 C217 1.375 . S
C216 C222 1.404 . S
C217 C216 1.375 . S
C217 C218 1.369 . S
C217 H230 0.950 . S
C218 C217 1.369 . S
C218 C219 1.392 . S
C218 H231 0.951 . S
C219 C218 1.392 . S
C219 C221 1.384 . S
H220 C222 0.949 . S
C221 C219 1.384 . S
C221 C222 1.385 . S
C221 H223 0.950 . S
C222 C216 1.404 . S
C222 H220 0.949 . S
C222 C221 1.385 . S
H223 C221 0.950 . S
H224 C208 0.951 . S
H225 C210 0.951 . S
H226 C212 0.951 . S
H227 C213 0.950 . S
H228 C214 0.950 . S
H229 C215 0.950 . S
H230 C217 0.950 . S
H231 C218 0.951 . S
C232 C233 1.386 . S
C232 C234 1.383 . S
C232 H248 0.951 . S
C233 C232 1.386 . S
C233 C237 1.383 . S
C234 C232 1.383 . S
C234 C235 1.402 . S
C234 H249 0.951 . S
C235 C234 1.402 . S
C235 C236 1.375 1_455 S
C235 C238 1.481 1_445 S
C236 C235 1.375 1_655 S
C236 C237 1.367 1_655 S
C236 H250 0.951 . S
C237 C233 1.383 . S
C237 C236 1.367 1_455 S
C237 H251 0.950 1_455 S
C238 C235 1.481 1_665 S
C238 C239 1.297 . S
C238 H252 0.950 . S
C239 C238 1.297 . S
C239 C240 1.479 . S
C239 H253 0.950 1_655 S
C240 C239 1.479 . S
C240 C241 1.375 . S
C240 C246 1.404 . S
C241 C240 1.375 . S
C241 C242 1.369 . S
C241 H254 0.950 1_655 S
C242 C241 1.369 . S
C242 C243 1.392 . S
C242 H255 0.951 . S
C243 C242 1.392 . S
C243 C245 1.384 . S
H244 C246 0.949 . S
C245 C243 1.384 . S
C245 C246 1.385 . S
C245 H247 0.950 . S
C246 C240 1.404 . S
C246 H244 0.949 . S
C246 C245 1.385 . S
H247 C245 0.950 . S
H248 C232 0.951 . S
H249 C234 0.951 . S
H250 C236 0.951 . S
H251 C237 0.950 1_655 S
H252 C238 0.950 . S
H253 C239 0.950 1_455 S
H254 C241 0.950 1_455 S
H255 C242 0.951 . S
C256 C257 1.386 . S
C256 C258 1.383 . S
C256 H272 0.951 . S
C257 C256 1.386 . S
C257 C261 1.383 . S
C258 C256 1.383 . S
C258 C259 1.402 . S
C258 H273 0.951 . S
C259 C258 1.402 . S
C259 C260 1.375 . S
C259 C262 1.481 . S
C260 C259 1.375 . S
C260 C261 1.367 . S
C260 H274 0.951 . S
C261 C257 1.383 . S
C261 C260 1.367 . S
C261 H275 0.950 . S
C262 C259 1.481 . S
C262 C263 1.297 1_455 S
C262 H276 0.950 . S
C263 C262 1.297 1_655 S
C263 C264 1.479 . S
C263 H277 0.950 . S
C264 C263 1.479 . S
C264 C265 1.375 . S
C264 C270 1.404 . S
C265 C264 1.375 . S
C265 C266 1.369 . S
C265 H278 0.950 . S
C266 C265 1.369 . S
C266 C267 1.392 . S
C266 H279 0.951 . S
C267 C266 1.392 . S
C267 C269 1.384 . S
H268 C270 0.949 . S
C269 C267 1.384 . S
C269 C270 1.385 . S
C269 H271 0.950 . S
C270 C264 1.404 . S
C270 H268 0.949 . S
C270 C269 1.385 . S
H271 C269 0.950 . S
H272 C256 0.951 . S
H273 C258 0.951 . S
H274 C260 0.951 . S
H275 C261 0.950 . S
H276 C262 0.950 . S
H277 C263 0.950 . S
H278 C265 0.950 . S
H279 C266 0.951 . S
C280 C281 1.386 . S
C280 C282 1.383 . S
C280 H296 0.951 . S
C281 C280 1.386 . S
C281 C285 1.383 . S
C282 C280 1.383 . S
C282 C283 1.402 . S
C282 H297 0.951 1_655 S
C283 C282 1.402 . S
C283 C284 1.375 . S
C283 C286 1.481 1_655 S
C284 C283 1.375 . S
C284 C285 1.367 . S
C284 H298 0.951 . S
C285 C281 1.383 . S
C285 C284 1.367 . S
C285 H299 0.950 . S
C286 C283 1.481 1_455 S
C286 C287 1.297 1_565 S
C286 H300 0.950 1_455 S
C287 C286 1.297 1_545 S
C287 C288 1.479 . S
C287 H301 0.950 . S
C288 C287 1.479 . S
C288 C289 1.375 . S
C288 C294 1.404 . S
C289 C288 1.375 . S
C289 C290 1.369 . S
C289 H302 0.950 . S
C290 C289 1.369 . S
C290 C291 1.392 . S
C290 H303 0.951 . S
C291 C290 1.392 . S
C291 C293 1.384 . S
H292 C294 0.949 . S
C293 C291 1.384 . S
C293 C294 1.385 . S
C293 H295 0.950 . S
C294 C288 1.404 . S
C294 H292 0.949 . S
C294 C293 1.385 . S
H295 C293 0.950 . S
H296 C280 0.951 . S
H297 C282 0.951 1_455 S
H298 C284 0.951 . S
H299 C285 0.950 . S
H300 C286 0.950 1_655 S
H301 C287 0.950 . S
H302 C289 0.950 . S
H303 C290 0.951 . S
C304 C305 1.386 . S
C304 C306 1.383 . S
C304 H320 0.951 . S
C305 C304 1.386 . S
C305 C309 1.383 . S
C306 C304 1.383 . S
C306 C307 1.402 . S
C306 H321 0.951 . S
C307 C306 1.402 . S
C307 C308 1.375 . S
C307 C310 1.481 1_455 S
C308 C307 1.375 . S
C308 C309 1.367 . S
C308 H322 0.951 . S
C309 C305 1.383 . S
C309 C308 1.367 . S
C309 H323 0.950 . S
C310 C307 1.481 1_655 S
C310 C311 1.297 . S
C310 H324 0.950 . S
C311 C310 1.297 . S
C311 C312 1.479 . S
C311 H325 0.950 1_655 S
C312 C311 1.479 . S
C312 C313 1.375 . S
C312 C318 1.404 . S
C313 C312 1.375 . S
C313 C314 1.369 . S
C313 H326 0.950 . S
C314 C313 1.369 . S
C314 C315 1.392 . S
C314 H327 0.951 . S
C315 C314 1.392 . S
C315 C317 1.384 . S
H316 C318 0.949 . S
C317 C315 1.384 . S
C317 C318 1.385 . S
C317 H319 0.950 . S
C318 C312 1.404 . S
C318 H316 0.949 . S
C318 C317 1.385 . S
H319 C317 0.950 . S
H320 C304 0.951 . S
H321 C306 0.951 . S
H322 C308 0.951 . S
H323 C309 0.950 . S
H324 C310 0.950 . S
H325 C311 0.950 1_455 S
H326 C313 0.950 . S
H327 C314 0.951 . S
C328 C329 1.386 . S
C328 C330 1.383 . S
C328 H344 0.951 . S
C329 C328 1.386 . S
C329 C333 1.383 . S
C330 C328 1.383 . S
C330 C331 1.402 . S
C330 H345 0.951 . S
C331 C330 1.402 . S
C331 C332 1.375 . S
C331 C334 1.481 1_556 S
C332 C331 1.375 . S
C332 C333 1.367 . S
C332 H346 0.951 . S
C333 C329 1.383 . S
C333 C332 1.367 . S
C333 H347 0.950 . S
C334 C331 1.481 1_554 S
C334 C335 1.297 1_655 S
C334 H348 0.950 . S
C335 C334 1.297 1_455 S
C335 C336 1.479 . S
C335 H349 0.950 1_554 S
C336 C335 1.479 . S
C336 C337 1.375 . S
C336 C342 1.404 . S
C337 C336 1.375 . S
C337 C338 1.369 . S
C337 H350 0.950 . S
C338 C337 1.369 . S
C338 C339 1.392 . S
C338 H351 0.951 . S
C339 C338 1.392 . S
C339 C341 1.384 . S
H340 C342 0.949 . S
C341 C339 1.384 . S
C341 C342 1.385 . S
C341 H343 0.950 . S
C342 C336 1.404 . S
C342 H340 0.949 . S
C342 C341 1.385 . S
H343 C341 0.950 . S
H344 C328 0.951 . S
H345 C330 0.951 . S
H346 C332 0.951 . S
H347 C333 0.950 . S
H348 C334 0.950 . S
H349 C335 0.950 1_556 S
H350 C337 0.950 . S
H351 C338 0.951 . S
C352 C353 1.386 . S
C352 C354 1.383 . S
C352 H368 0.951 . S
C353 C352 1.386 . S
C353 C357 1.383 . S
C354 C352 1.383 . S
C354 C355 1.402 . S
C354 H369 0.951 1_565 S
C355 C354 1.402 . S
C355 C356 1.375 . S
C355 C358 1.481 . S
C356 C355 1.375 . S
C356 C357 1.367 . S
C356 H370 0.951 . S
C357 C353 1.383 . S
C357 C356 1.367 . S
C357 H371 0.950 . S
C358 C355 1.481 . S
C358 C359 1.297 1_565 S
C358 H372 0.950 1_655 S
C359 C358 1.297 1_545 S
C359 C360 1.479 1_655 S
C359 H373 0.950 . S
C360 C359 1.479 1_455 S
C360 C361 1.375 . S
C360 C366 1.404 . S
C361 C360 1.375 . S
C361 C362 1.369 . S
C361 H374 0.950 . S
C362 C361 1.369 . S
C362 C363 1.392 . S
C362 H375 0.951 . S
C363 C362 1.392 . S
C363 C365 1.384 . S
H364 C366 0.949 1_565 S
C365 C363 1.384 . S
C365 C366 1.385 . S
C365 H367 0.950 . S
C366 C360 1.404 . S
C366 H364 0.949 1_545 S
C366 C365 1.385 . S
H367 C365 0.950 . S
H368 C352 0.951 . S
H369 C354 0.951 1_545 S
H370 C356 0.951 . S
H371 C357 0.950 . S
H372 C358 0.950 1_455 S
H373 C359 0.950 . S
H374 C361 0.950 . S
H375 C362 0.951 . S
C376 C377 1.386 . S
C376 C378 1.383 . S
C376 H392 0.951 . S
C377 C376 1.386 . S
C377 C381 1.383 . S
C378 C376 1.383 . S
C378 C379 1.402 . S
C378 H393 0.951 . S
C379 C378 1.402 . S
C379 C380 1.375 . S
C379 C382 1.481 . S
C380 C379 1.375 . S
C380 C381 1.367 . S
C380 H394 0.951 . S
C381 C377 1.383 . S
C381 C380 1.367 . S
C381 H395 0.950 . S
C382 C379 1.481 . S
C382 C383 1.297 . S
C382 H396 0.950 . S
C383 C382 1.297 . S
C383 C384 1.479 1_556 S
C383 H397 0.950 . S
C384 C383 1.479 1_554 S
C384 C385 1.375 . S
C384 C390 1.404 . S
C385 C384 1.375 . S
C385 C386 1.369 . S
C385 H398 0.950 . S
C386 C385 1.369 . S
C386 C387 1.392 . S
C386 H399 0.951 . S
C387 C386 1.392 . S
C387 C389 1.384 . S
H388 C390 0.949 1_556 S
C389 C387 1.384 . S
C389 C390 1.385 . S
C389 H391 0.950 . S
C390 C384 1.404 . S
C390 H388 0.949 1_554 S
C390 C389 1.385 . S
H391 C389 0.950 . S
H392 C376 0.951 . S
H393 C378 0.951 . S
H394 C380 0.951 . S
H395 C381 0.950 . S
H396 C382 0.950 . S
H397 C383 0.950 . S
H398 C385 0.950 . S
H399 C386 0.951 . S
C400 C401 1.386 . S
C400 C402 1.383 . S
C400 H416 0.951 . S
C401 C400 1.386 . S
C401 C405 1.383 . S
C402 C400 1.383 . S
C402 C403 1.402 . S
C402 H417 0.951 . S
C403 C402 1.402 . S
C403 C404 1.375 . S
C403 C406 1.481 . S
C404 C403 1.375 . S
C404 C405 1.367 . S
C404 H418 0.951 . S
C405 C401 1.383 . S
C405 C404 1.367 . S
C405 H419 0.950 . S
C406 C403 1.481 . S
C406 C407 1.297 . S
C406 H420 0.950 . S
C407 C406 1.297 . S
C407 C408 1.479 . S
C407 H421 0.950 . S
C408 C407 1.479 . S
C408 C409 1.375 . S
C408 C414 1.404 . S
C409 C408 1.375 . S
C409 C410 1.369 . S
C409 H422 0.950 . S
C410 C409 1.369 . S
C410 C411 1.392 . S
C410 H423 0.951 . S
C411 C410 1.392 . S
C411 C413 1.384 . S
H412 C414 0.949 . S
C413 C411 1.384 . S
C413 C414 1.385 . S
C413 H415 0.950 . S
C414 C408 1.404 . S
C414 H412 0.949 . S
C414 C413 1.385 . S
H415 C413 0.950 . S
H416 C400 0.951 . S
H417 C402 0.951 . S
H418 C404 0.951 . S
H419 C405 0.950 . S
H420 C406 0.950 . S
H421 C407 0.950 . S
H422 C409 0.950 . S
H423 C410 0.951 . S
C424 C425 1.386 . S
C424 C426 1.383 . S
C424 H440 0.951 . S
C425 C424 1.386 . S
C425 C429 1.383 . S
C426 C424 1.383 . S
C426 C427 1.402 1_556 S
C426 H441 0.951 . S
C427 C426 1.402 1_554 S
C427 C428 1.375 1_554 S
C427 C430 1.481 . S
C428 C427 1.375 1_556 S
C428 C429 1.367 . S
C428 H442 0.951 1_556 S
C429 C425 1.383 . S
C429 C428 1.367 . S
C429 H443 0.950 . S
C430 C427 1.481 . S
C430 C431 1.297 . S
C430 H444 0.950 . S
C431 C430 1.297 . S
C431 C432 1.479 . S
C431 H445 0.950 . S
C432 C431 1.479 . S
C432 C433 1.375 . S
C432 C438 1.404 . S
C433 C432 1.375 . S
C433 C434 1.369 . S
C433 H446 0.950 . S
C434 C433 1.369 . S
C434 C435 1.392 . S
C434 H447 0.951 . S
C435 C434 1.392 . S
C435 C437 1.384 . S
H436 C438 0.949 . S
C437 C435 1.384 . S
C437 C438 1.385 . S
C437 H439 0.950 . S
C438 C432 1.404 . S
C438 H436 0.949 . S
C438 C437 1.385 . S
H439 C437 0.950 . S
H440 C424 0.951 . S
H441 C426 0.951 . S
H442 C428 0.951 1_554 S
H443 C429 0.950 . S
H444 C430 0.950 . S
H445 C431 0.950 . S
H446 C433 0.950 . S
H447 C434 0.951 . S
C448 C449 1.386 . S
C448 C450 1.383 . S
C448 H464 0.951 . S
C449 C448 1.386 . S
C449 C453 1.383 . S
C450 C448 1.383 . S
C450 C451 1.402 . S
C450 H465 0.951 . S
C451 C450 1.402 . S
C451 C452 1.375 . S
C451 C454 1.481 . S
C452 C451 1.375 . S
C452 C453 1.367 . S
C452 H466 0.951 . S
C453 C449 1.383 . S
C453 C452 1.367 . S
C453 H467 0.950 . S
C454 C451 1.481 . S
C454 C455 1.297 . S
C454 H468 0.950 . S
C455 C454 1.297 . S
C455 C456 1.479 . S
C455 H469 0.950 . S
C456 C455 1.479 . S
C456 C457 1.375 . S
C456 C462 1.404 . S
C457 C456 1.375 . S
C457 C458 1.369 . S
C457 H470 0.950 . S
C458 C457 1.369 . S
C458 C459 1.392 . S
C458 H471 0.951 . S
C459 C458 1.392 . S
C459 C461 1.384 . S
H460 C462 0.949 . S
C461 C459 1.384 . S
C461 C462 1.385 . S
C461 H463 0.950 . S
C462 C456 1.404 . S
C462 H460 0.949 . S
C462 C461 1.385 . S
H463 C461 0.950 . S
H464 C448 0.951 . S
H465 C450 0.951 . S
H466 C452 0.951 . S
H467 C453 0.950 . S
H468 C454 0.950 . S
H469 C455 0.950 . S
H470 C457 0.950 . S
H471 C458 0.951 . S
C137 C17 1.598 . S
C147 C56 1.470 . S
C161 C15 1.473 . S
C171 C51 1.592 . S
C185 C124 1.506 . S
C195 C85 1.585 . S
C209 C90 1.498 . S
C219 C119 1.606 . S
C233 C22 1.490 . S
C243 C37 1.304 . S
C257 C1 1.424 . S
C267 C49 1.485 . S
C281 C83 1.503 . S
C291 C105 1.329 . S
C305 C117 1.478 . S
C315 C71 1.402 . S
C329 C69 1.934 . S
C339 C3 1.931 . S
C353 C35 1.938 . S
C363 C103 1.858 . S
C377 C130 1.237 . S
C387 C28 1.228 . S
C401 C96 1.253 . S
C411 C40 1.259 . S
C425 C74 1.245 . S
C435 C62 1.259 . S
C449 C108 1.258 . S
C459 C6 1.210 . S
