# Generated by pormake.
# Topology ghw, (5)-cn, num edge types: 1
# Building blocks:
#     Node 0, Type 0, BuildingBlock: XOMCOT_clean_sbu_0, # of connection points: 5
#     Node 1, Type 0, BuildingBlock: XOMCOT_clean_sbu_0, # of connection points: 5
#     Node 2, Type 0, BuildingBlock: XOMCOT_clean_sbu_0, # of connection points: 5
#     Node 3, Type 0, BuildingBlock: XOMCOT_clean_sbu_0, # of connection points: 5
#     Node 4, Type 0, BuildingBlock: XOMCOT_clean_sbu_0, # of connection points: 5
#     Node 5, Type 0, BuildingBlock: XOMCOT_clean_sbu_0, # of connection points: 5
#     Node 6, Type 0, BuildingBlock: XOMCOT_clean_sbu_0, # of connection points: 5
#     Node 7, Type 0, BuildingBlock: XOMCOT_clean_sbu_0, # of connection points: 5
#     Node 8, Type 0, BuildingBlock: XOMCOT_clean_sbu_0, # of connection points: 5
#     Node 9, Type 0, BuildingBlock: XOMCOT_clean_sbu_0, # of connection points: 5
#     Node 10, Type 0, BuildingBlock: XOMCOT_clean_sbu_0, # of connection points: 5
#     Node 11, Type 0, BuildingBlock: XOMCOT_clean_sbu_0, # of connection points: 5
#     Node 12, Type 0, BuildingBlock: XOMCOT_clean_sbu_0, # of connection points: 5
#     Node 13, Type 0, BuildingBlock: XOMCOT_clean_sbu_0, # of connection points: 5
#     Node 14, Type 0, BuildingBlock: XOMCOT_clean_sbu_0, # of connection points: 5
#     Node 15, Type 0, BuildingBlock: XOMCOT_clean_sbu_0, # of connection points: 5
#     Edge 16, Type (0, 0), BuildingBlock: TEMPAE_clean_linker_10, # of connection points: 2
#     Edge 17, Type (0, 0), BuildingBlock: TEMPAE_clean_linker_10, # of connection points: 2
#     Edge 18, Type (0, 0), BuildingBlock: TEMPAE_clean_linker_10, # of connection points: 2
#     Edge 19, Type (0, 0), BuildingBlock: TEMPAE_clean_linker_10, # of connection points: 2
#     Edge 20, Type (0, 0), BuildingBlock: TEMPAE_clean_linker_10, # of connection points: 2
#     Edge 21, Type (0, 0), BuildingBlock: TEMPAE_clean_linker_10, # of connection points: 2
#     Edge 22, Type (0, 0), BuildingBlock: TEMPAE_clean_linker_10, # of connection points: 2
#     Edge 23, Type (0, 0), BuildingBlock: TEMPAE_clean_linker_10, # of connection points: 2
#     Edge 24, Type (0, 0), BuildingBlock: TEMPAE_clean_linker_10, # of connection points: 2
#     Edge 25, Type (0, 0), BuildingBlock: TEMPAE_clean_linker_10, # of connection points: 2
#     Edge 26, Type (0, 0), BuildingBlock: TEMPAE_clean_linker_10, # of connection points: 2
#     Edge 27, Type (0, 0), BuildingBlock: TEMPAE_clean_linker_10, # of connection points: 2
#     Edge 28, Type (0, 0), BuildingBlock: TEMPAE_clean_linker_10, # of connection points: 2
#     Edge 29, Type (0, 0), BuildingBlock: TEMPAE_clean_linker_10, # of connection points: 2
#     Edge 30, Type (0, 0), BuildingBlock: TEMPAE_clean_linker_10, # of connection points: 2
#     Edge 31, Type (0, 0), BuildingBlock: TEMPAE_clean_linker_10, # of connection points: 2
#     Edge 32, Type (0, 0), BuildingBlock: TEMPAE_clean_linker_10, # of connection points: 2
#     Edge 33, Type (0, 0), BuildingBlock: TEMPAE_clean_linker_10, # of connection points: 2
#     Edge 34, Type (0, 0), BuildingBlock: TEMPAE_clean_linker_10, # of connection points: 2
#     Edge 35, Type (0, 0), BuildingBlock: TEMPAE_clean_linker_10, # of connection points: 2
#     Edge 36, Type (0, 0), BuildingBlock: TEMPAE_clean_linker_10, # of connection points: 2
#     Edge 37, Type (0, 0), BuildingBlock: TEMPAE_clean_linker_10, # of connection points: 2
#     Edge 38, Type (0, 0), BuildingBlock: TEMPAE_clean_linker_10, # of connection points: 2
#     Edge 39, Type (0, 0), BuildingBlock: TEMPAE_clean_linker_10, # of connection points: 2
#     Edge 40, Type (0, 0), BuildingBlock: TEMPAE_clean_linker_10, # of connection points: 2
#     Edge 41, Type (0, 0), BuildingBlock: TEMPAE_clean_linker_10, # of connection points: 2
#     Edge 42, Type (0, 0), BuildingBlock: TEMPAE_clean_linker_10, # of connection points: 2
#     Edge 43, Type (0, 0), BuildingBlock: TEMPAE_clean_linker_10, # of connection points: 2
#     Edge 44, Type (0, 0), BuildingBlock: TEMPAE_clean_linker_10, # of connection points: 2
#     Edge 45, Type (0, 0), BuildingBlock: TEMPAE_clean_linker_10, # of connection points: 2
#     Edge 46, Type (0, 0), BuildingBlock: TEMPAE_clean_linker_10, # of connection points: 2
#     Edge 47, Type (0, 0), BuildingBlock: TEMPAE_clean_linker_10, # of connection points: 2
#     Edge 48, Type (0, 0), BuildingBlock: TEMPAE_clean_linker_10, # of connection points: 2
#     Edge 49, Type (0, 0), BuildingBlock: TEMPAE_clean_linker_10, # of connection points: 2
#     Edge 50, Type (0, 0), BuildingBlock: TEMPAE_clean_linker_10, # of connection points: 2
#     Edge 51, Type (0, 0), BuildingBlock: TEMPAE_clean_linker_10, # of connection points: 2
#     Edge 52, Type (0, 0), BuildingBlock: TEMPAE_clean_linker_10, # of connection points: 2
#     Edge 53, Type (0, 0), BuildingBlock: TEMPAE_clean_linker_10, # of connection points: 2
#     Edge 54, Type (0, 0), BuildingBlock: TEMPAE_clean_linker_10, # of connection points: 2
#     Edge 55, Type (0, 0), BuildingBlock: TEMPAE_clean_linker_10, # of connection points: 2
# Relax obj value: 0.162
# Max RMSD: 0.198
# Mean RMSD: 0.198
data_MOF--net-ghw--node1-XOMCOT_clean_sbu_0--edge1-TEMPAE_clean_linker_10
_symmetry_space_group_name_H-M    P1
_symmetry_Int_Tables_number       1
_symmetry_cell_setting            triclinic
loop_
_symmetry_equiv_pos_as_xyz
'x, y, z'
_cell_length_a     33.563943
_cell_length_b     40.964251
_cell_length_c     35.368968
_cell_angle_alpha  89.948848
_cell_angle_beta   90.987988
_cell_angle_gamma 89.97971
loop_
_atom_site_label
_atom_site_type_symbol
_atom_site_fract_x
_atom_site_fract_y
_atom_site_fract_z
_atom_type_partial_charge
Co0 Co 0.13209 0.1418 0.40916 0.0
C1 C 0.2088 0.10515 0.4082 0.0
C2 C 0.18343 0.10661 0.46331 0.0
C3 C 0.22114 0.09346 0.46649 0.0
N4 N 0.17578 0.11424 0.42671 0.0
N5 N 0.23666 0.09245 0.43171 0.0
H6 H 0.2143 0.10981 0.37885 0.0
H7 H 0.16389 0.11213 0.48645 0.0
C8 C 0.09593 0.0779 0.43261 0.0
O9 O 0.12684 0.06264 0.41874 0.0
N10 N 0.08891 0.16968 0.39247 0.0
C11 C 0.0901 0.19232 0.3649 0.0
C12 C 0.05213 0.20418 0.35864 0.0
C13 C 0.05048 0.16815 0.40278 0.0
N14 N 0.02722 0.18884 0.38241 0.0
C15 C 0.16194 0.13418 0.33439 0.0
C16 C 0.0997 0.0979 0.30456 0.0
C17 C 0.13014 0.10821 0.28065 0.0
C18 C 0.16165 0.12623 0.29608 0.0
C19 C 0.10161 0.10576 0.34327 0.0
N20 N 0.1329 0.12334 0.35801 0.0
H21 H 0.18538 0.14998 0.3447 0.0
H22 H 0.07677 0.0992 0.36066 0.0
H23 H 0.11648 0.19895 0.34952 0.0
H24 H 0.03938 0.15122 0.42356 0.0
O25 O 0.16999 0.17687 0.4024 0.0
O26 O 0.13776 0.16735 0.4553 0.0
O27 O 0.09219 0.10877 0.42847 0.0
C28 C 0.16414 0.18448 0.43748 0.0
H29 H 0.23672 0.08676 0.49241 0.0
H30 H 0.04349 0.22226 0.33774 0.0
H31 H 0.07417 0.08477 0.29322 0.0
H32 H 0.18503 0.13548 0.27823 0.0
Co33 Co 0.12751 0.14245 0.86529 0.0
C34 C 0.04647 0.11305 0.86949 0.0
C35 C 0.08139 0.09071 0.82661 0.0
C36 C 0.04415 0.07665 0.82585 0.0
N37 N 0.08336 0.11286 0.85484 0.0
N38 N 0.02229 0.09085 0.85281 0.0
H39 H 0.03656 0.12981 0.89074 0.0
H40 H 0.1048 0.08593 0.80676 0.0
C41 C 0.16937 0.07765 0.85398 0.0
O42 O 0.14705 0.06373 0.87953 0.0
N43 N 0.17148 0.17191 0.8749 0.0
C44 C 0.17229 0.19631 0.90038 0.0
C45 C 0.21087 0.20745 0.90422 0.0
C46 C 0.20939 0.16867 0.8634 0.0
N47 N 0.23428 0.18984 0.88119 0.0
C48 C 0.10106 0.13674 0.94166 0.0
C49 C 0.16906 0.10876 0.97245 0.0
C50 C 0.13665 0.11484 0.99596 0.0
C51 C 0.1025 0.12918 0.98009 0.0
C52 C 0.16594 0.11602 0.93365 0.0
N53 N 0.13149 0.12863 0.9183 0.0
H54 H 0.07607 0.15068 0.9313 0.0
H55 H 0.19169 0.11234 0.91627 0.0
H56 H 0.1471 0.20405 0.9168 0.0
H57 H 0.21884 0.15036 0.84349 0.0
O58 O 0.09039 0.17846 0.87064 0.0
O59 O 0.11694 0.16277 0.81669 0.0
O60 O 0.16605 0.10815 0.847 0.0
C61 C 0.09302 0.18235 0.83428 0.0
H62 H 0.03342 0.05849 0.80593 0.0
H63 H 0.22117 0.22564 0.92429 0.0
H64 H 0.19654 0.09871 0.98397 0.0
H65 H 0.07762 0.13583 0.99764 0.0
Co66 Co 0.8689 0.8883 0.61661 0.0
C67 C 0.79222 0.92081 0.63048 0.0
C68 C 0.81878 0.93903 0.58009 0.0
C69 C 0.7825 0.95429 0.58457 0.0
N70 N 0.82509 0.91851 0.60939 0.0
N71 N 0.7659 0.94278 0.61644 0.0
H72 H 0.78633 0.9052 0.65423 0.0
H73 H 0.83875 0.94219 0.55669 0.0
C74 C 0.90919 0.95404 0.60342 0.0
O75 O 0.88422 0.96939 0.62542 0.0
N76 N 0.91239 0.85795 0.62405 0.0
C77 C 0.91192 0.8313 0.64634 0.0
C78 C 0.94991 0.81882 0.64909 0.0
C79 C 0.95057 0.86126 0.61337 0.0
N80 N 0.97433 0.83778 0.62852 0.0
C81 C 0.84643 0.88248 0.69368 0.0
C82 C 0.89992 0.92555 0.72619 0.0
C83 C 0.87147 0.91057 0.74934 0.0
C84 C 0.84542 0.88807 0.73237 0.0
C85 C 0.90032 0.91875 0.68712 0.0
N86 N 0.87227 0.8987 0.67087 0.0
H87 H 0.82572 0.86487 0.68231 0.0
H88 H 0.92361 0.9293 0.6705 0.0
H89 H 0.88615 0.82246 0.66116 0.0
H90 H 0.96095 0.88091 0.59569 0.0
O91 O 0.83131 0.85243 0.61874 0.0
O92 O 0.85809 0.87078 0.56628 0.0
O93 O 0.90807 0.92296 0.60028 0.0
C94 C 0.83409 0.8503 0.58234 0.0
H95 H 0.76917 0.97189 0.56537 0.0
H96 H 0.95907 0.79843 0.66665 0.0
H97 H 0.92163 0.9424 0.73797 0.0
H98 H 0.82442 0.87426 0.74889 0.0
Co99 Co 0.87933 0.87435 0.16533 0.0
C100 C 0.95844 0.90593 0.15873 0.0
C101 C 0.92584 0.92502 0.20524 0.0
C102 C 0.96319 0.93896 0.20573 0.0
N103 N 0.92254 0.9048 0.17522 0.0
N104 N 0.98363 0.92668 0.17656 0.0
H105 H 0.96701 0.89081 0.13539 0.0
H106 H 0.9034 0.92818 0.2265 0.0
C107 C 0.83749 0.93872 0.17789 0.0
O108 O 0.86094 0.95313 0.15364 0.0
N109 N 0.83649 0.84378 0.15589 0.0
C110 C 0.83811 0.81771 0.13275 0.0
C111 C 0.80031 0.80522 0.128 0.0
C112 C 0.79779 0.84675 0.16504 0.0
N113 N 0.77501 0.8236 0.14816 0.0
C114 C 0.90355 0.87692 0.08825 0.0
C115 C 0.83726 0.90825 0.0585 0.0
C116 C 0.86742 0.89842 0.03398 0.0
C117 C 0.90079 0.88252 0.04943 0.0
C118 C 0.84109 0.90185 0.09741 0.0
N119 N 0.87479 0.88754 0.11219 0.0
H120 H 0.9283 0.86261 0.09858 0.0
H121 H 0.81619 0.90733 0.11519 0.0
H122 H 0.86456 0.80936 0.11864 0.0
H123 H 0.78601 0.86654 0.18169 0.0
O124 O 0.91762 0.83922 0.16031 0.0
O125 O 0.89058 0.85454 0.21414 0.0
O126 O 0.8399 0.90796 0.18355 0.0
C127 C 0.91501 0.83535 0.19663 0.0
H128 H 0.97517 0.95529 0.22712 0.0
H129 H 0.79192 0.78486 0.11007 0.0
H130 H 0.81027 0.91958 0.04754 0.0
H131 H 0.92449 0.87396 0.03155 0.0
Co132 Co 0.13392 0.63267 0.91872 0.0
C133 C 0.21086 0.59897 0.90544 0.0
C134 C 0.18284 0.58173 0.95555 0.0
C135 C 0.21917 0.56636 0.95247 0.0
N136 N 0.17734 0.60182 0.92567 0.0
N137 N 0.23669 0.57725 0.92084 0.0
H138 H 0.21782 0.61401 0.8815 0.0
H139 H 0.16242 0.57922 0.9787 0.0
C140 C 0.09255 0.568 0.93184 0.0
O141 O 0.11529 0.5535 0.90707 0.0
N142 N 0.09075 0.66347 0.91195 0.0
C143 C 0.09113 0.68977 0.88909 0.0
C144 C 0.05309 0.70208 0.88599 0.0
C145 C 0.05253 0.66019 0.92255 0.0
N146 N 0.02869 0.68334 0.90683 0.0
C147 C 0.15424 0.63343 0.84062 0.0
C148 C 0.08841 0.60064 0.8123 0.0
C149 C 0.11685 0.61233 0.78703 0.0
C150 C 0.14996 0.62899 0.80174 0.0
C151 C 0.09365 0.606 0.85129 0.0
N152 N 0.1272 0.62105 0.86528 0.0
H153 H 0.17894 0.648 0.85057 0.0
H154 H 0.06987 0.59913 0.86979 0.0
H155 H 0.11678 0.69823 0.8738 0.0
H156 H 0.04211 0.6406 0.94029 0.0
O157 O 0.17199 0.66795 0.91366 0.0
O158 O 0.14711 0.65114 0.96784 0.0
O159 O 0.09515 0.59875 0.93735 0.0
C160 C 0.17064 0.67096 0.95015 0.0
H161 H 0.23207 0.5492 0.97249 0.0
H162 H 0.04384 0.72203 0.86779 0.0
H163 H 0.06167 0.58859 0.80192 0.0
H164 H 0.17235 0.6389 0.78324 0.0
Co165 Co 0.119 0.63219 0.37099 0.0
C166 C 0.04201 0.59867 0.3809 0.0
C167 C 0.06612 0.58851 0.32652 0.0
C168 C 0.02928 0.57375 0.32877 0.0
N169 N 0.07433 0.60365 0.35959 0.0
N170 N 0.0142 0.5802 0.36312 0.0
H171 H 0.03751 0.61015 0.40783 0.0
H172 H 0.08525 0.58875 0.30222 0.0
C173 C 0.15454 0.56628 0.3529 0.0
O174 O 0.12442 0.55152 0.36884 0.0
N175 N 0.16295 0.66116 0.38231 0.0
C176 C 0.16256 0.68667 0.40628 0.0
C177 C 0.20054 0.69919 0.40939 0.0
C178 C 0.20099 0.65856 0.371 0.0
N179 N 0.22475 0.68139 0.38733 0.0
C180 C 0.09414 0.63553 0.44767 0.0
C181 C 0.14458 0.58926 0.47881 0.0
C182 C 0.11729 0.60505 0.50239 0.0
C183 C 0.09243 0.62881 0.48614 0.0
C184 C 0.14547 0.59691 0.44 0.0
N185 N 0.11931 0.61902 0.42446 0.0
H186 H 0.07452 0.65419 0.43674 0.0
H187 H 0.16782 0.58541 0.42309 0.0
H188 H 0.13674 0.69496 0.42142 0.0
H189 H 0.21122 0.64015 0.35156 0.0
O190 O 0.08178 0.66821 0.37355 0.0
O191 O 0.11207 0.65263 0.32157 0.0
O192 O 0.15818 0.59732 0.35492 0.0
C193 C 0.08686 0.67212 0.33759 0.0
H194 H 0.01449 0.56007 0.30647 0.0
H195 H 0.20984 0.71896 0.42778 0.0
H196 H 0.16511 0.57121 0.49016 0.0
H197 H 0.07207 0.64283 0.50314 0.0
Co198 Co 0.87 0.37285 0.11361 0.0
C199 C 0.79259 0.40777 0.1178 0.0
C200 C 0.82051 0.41463 0.06436 0.0
C201 C 0.78363 0.42937 0.06291 0.0
N202 N 0.82625 0.40132 0.09895 0.0
N203 N 0.76624 0.42501 0.0966 0.0
H204 H 0.78602 0.3984 0.14544 0.0
H205 H 0.84126 0.41284 0.04139 0.0
C206 C 0.90625 0.43833 0.09639 0.0
O207 O 0.87571 0.45279 0.11199 0.0
N208 N 0.91306 0.34395 0.12795 0.0
C209 C 0.9104 0.31857 0.15205 0.0
C210 C 0.94805 0.30669 0.15944 0.0
C211 C 0.9522 0.34714 0.12087 0.0
N212 N 0.97426 0.32477 0.13994 0.0
C213 C 0.84136 0.37412 0.18941 0.0
C214 C 0.90001 0.41344 0.22067 0.0
C215 C 0.87132 0.39995 0.24447 0.0
C216 C 0.84167 0.38018 0.22823 0.0
C217 C 0.89885 0.40648 0.18182 0.0
N218 N 0.8691 0.38767 0.16629 0.0
H219 H 0.81895 0.35778 0.17817 0.0
H220 H 0.92308 0.4151 0.16493 0.0
H221 H 0.88315 0.31011 0.16465 0.0
H222 H 0.96459 0.36636 0.10373 0.0
O223 O 0.83285 0.33664 0.11655 0.0
O224 O 0.86462 0.35141 0.06495 0.0
O225 O 0.90971 0.40725 0.09752 0.0
C226 C 0.83929 0.33197 0.08085 0.0
H227 H 0.77024 0.4415 0.03864 0.0
H228 H 0.95562 0.28679 0.17839 0.0
H229 H 0.92417 0.42807 0.23223 0.0
H230 H 0.81902 0.36908 0.2455 0.0
Co231 Co 0.88246 0.38321 0.66156 0.0
C232 C 0.95891 0.41748 0.6517 0.0
C233 C 0.93129 0.43159 0.70329 0.0
C234 C 0.9677 0.44708 0.70118 0.0
N235 N 0.92562 0.41343 0.67188 0.0
N236 N 0.98488 0.43816 0.66856 0.0
H237 H 0.96552 0.40393 0.62653 0.0
H238 H 0.91088 0.43278 0.72659 0.0
C239 C 0.84181 0.44779 0.67737 0.0
O240 O 0.86665 0.46348 0.65554 0.0
N241 N 0.83957 0.35298 0.6513 0.0
C242 C 0.84003 0.32822 0.62632 0.0
C243 C 0.80191 0.31616 0.62214 0.0
C244 C 0.8014 0.35552 0.66219 0.0
N245 N 0.77754 0.33353 0.64451 0.0
C246 C 0.90634 0.38303 0.5844 0.0
C247 C 0.84753 0.42274 0.55427 0.0
C248 C 0.87649 0.41013 0.5299 0.0
C249 C 0.9056 0.38948 0.54575 0.0
C250 C 0.84897 0.41508 0.59311 0.0
N251 N 0.87937 0.39668 0.60819 0.0
H252 H 0.92868 0.36629 0.59485 0.0
H253 H 0.82492 0.42333 0.61046 0.0
H254 H 0.86581 0.32066 0.61062 0.0
H255 H 0.79107 0.37375 0.68179 0.0
O256 O 0.92127 0.34829 0.65747 0.0
O257 O 0.89224 0.36275 0.7105 0.0
O258 O 0.8428 0.41667 0.67975 0.0
C259 C 0.91762 0.34402 0.69361 0.0
H260 H 0.98082 0.46296 0.72241 0.0
H261 H 0.79261 0.29737 0.6024 0.0
H262 H 0.82369 0.43816 0.54358 0.0
H263 H 0.92733 0.37738 0.52836 0.0
Co264 Co 0.63492 0.12857 0.90766 0.0
C265 C 0.71203 0.09415 0.90154 0.0
C266 C 0.68049 0.07805 0.95011 0.0
C267 C 0.71733 0.06294 0.95006 0.0
N268 N 0.67695 0.09724 0.91918 0.0
N269 N 0.73689 0.07307 0.91922 0.0
H270 H 0.72103 0.10896 0.87812 0.0
H271 H 0.65856 0.07619 0.97205 0.0
C272 C 0.59035 0.06594 0.92334 0.0
O273 O 0.61321 0.04979 0.90007 0.0
N274 N 0.59341 0.16001 0.89623 0.0
C275 C 0.59647 0.18538 0.87219 0.0
C276 C 0.55933 0.199 0.8667 0.0
C277 C 0.55449 0.15857 0.90515 0.0
N278 N 0.53294 0.18202 0.88729 0.0
C279 C 0.66024 0.12277 0.831 0.0
C280 C 0.59287 0.09295 0.80162 0.0
C281 C 0.62443 0.10006 0.7775 0.0
C282 C 0.65834 0.11516 0.79263 0.0
C283 C 0.59653 0.10017 0.84037 0.0
N284 N 0.6307 0.1138 0.85502 0.0
H285 H 0.6849 0.13745 0.84072 0.0
H286 H 0.57116 0.09605 0.85807 0.0
H287 H 0.62347 0.19254 0.85815 0.0
H288 H 0.54168 0.13971 0.92255 0.0
O289 O 0.67521 0.16212 0.90203 0.0
O290 O 0.64553 0.14986 0.95565 0.0
O291 O 0.59387 0.09683 0.92697 0.0
C292 C 0.67151 0.16749 0.93801 0.0
H293 H 0.72918 0.04664 0.97157 0.0
H294 H 0.55215 0.21926 0.84814 0.0
H295 H 0.56545 0.08249 0.79052 0.0
H296 H 0.68242 0.1226 0.77451 0.0
Co297 Co 0.6227 0.1371 0.36462 0.0
C298 C 0.54461 0.10229 0.36767 0.0
C299 C 0.56999 0.1011 0.31254 0.0
C300 C 0.53198 0.08849 0.31009 0.0
N301 N 0.57789 0.11002 0.34868 0.0
N302 N 0.51648 0.08908 0.34489 0.0
H303 H 0.53914 0.1083 0.39668 0.0
H304 H 0.58963 0.10537 0.28913 0.0
C305 C 0.65654 0.07203 0.34371 0.0
O306 O 0.62583 0.05802 0.35954 0.0
N307 N 0.66694 0.16447 0.37967 0.0
C308 C 0.66693 0.1876 0.4067 0.0
C309 C 0.70514 0.19938 0.41132 0.0
C310 C 0.70494 0.16248 0.36815 0.0
N311 N 0.72902 0.18342 0.3872 0.0
C312 C 0.59419 0.13044 0.44 0.0
C313 C 0.65665 0.09379 0.46897 0.0
C314 C 0.62626 0.10366 0.4931 0.0
C315 C 0.59471 0.12202 0.47817 0.0
C316 C 0.6544 0.102 0.43044 0.0
N317 N 0.6228 0.11947 0.41606 0.0
H318 H 0.57093 0.14659 0.43002 0.0
H319 H 0.67916 0.09567 0.41284 0.0
H320 H 0.64122 0.19459 0.42284 0.0
H321 H 0.71491 0.14576 0.34665 0.0
O322 O 0.58598 0.17298 0.37129 0.0
O323 O 0.61676 0.16179 0.31797 0.0
O324 O 0.66109 0.10298 0.34554 0.0
C325 C 0.59139 0.17983 0.3359 0.0
H326 H 0.51618 0.08111 0.28456 0.0
H327 H 0.71487 0.21727 0.43201 0.0
H328 H 0.68222 0.08045 0.47994 0.0
H329 H 0.57146 0.13108 0.49629 0.0
Co330 Co 0.37209 0.87896 0.11932 0.0
C331 C 0.29515 0.91356 0.12678 0.0
C332 C 0.32245 0.92448 0.07404 0.0
C333 C 0.28608 0.9401 0.07506 0.0
N334 N 0.32845 0.90838 0.10691 0.0
N335 N 0.26888 0.93316 0.10836 0.0
H336 H 0.2889 0.90153 0.15301 0.0
H337 H 0.34282 0.92438 0.05067 0.0
C338 C 0.41019 0.94374 0.10136 0.0
O339 O 0.38151 0.95895 0.119 0.0
N340 N 0.41505 0.84928 0.13159 0.0
C341 C 0.41381 0.82472 0.15687 0.0
C342 C 0.4517 0.81246 0.16201 0.0
C343 C 0.45351 0.85155 0.12152 0.0
N344 N 0.47672 0.82951 0.13995 0.0
C345 C 0.34689 0.88002 0.19612 0.0
C346 C 0.40798 0.91753 0.22603 0.0
C347 C 0.38006 0.90395 0.25059 0.0
C348 C 0.34908 0.88526 0.235 0.0
C349 C 0.40483 0.91147 0.18698 0.0
N350 N 0.37392 0.89348 0.17218 0.0
H351 H 0.32377 0.86403 0.18564 0.0
H352 H 0.42849 0.91997 0.1693 0.0
H353 H 0.38756 0.81731 0.17195 0.0
H354 H 0.46446 0.86949 0.10185 0.0
O355 O 0.33377 0.84386 0.12376 0.0
O356 O 0.36404 0.85735 0.07091 0.0
O357 O 0.41212 0.91257 0.10172 0.0
C358 C 0.33858 0.83873 0.08793 0.0
H359 H 0.27311 0.95473 0.05255 0.0
H360 H 0.46038 0.79368 0.18205 0.0
H361 H 0.43305 0.93141 0.23705 0.0
H362 H 0.32693 0.87415 0.25284 0.0
Co363 Co 0.37827 0.87623 0.66608 0.0
C364 C 0.45808 0.90701 0.66711 0.0
C365 C 0.4259 0.91778 0.71737 0.0
C366 C 0.46351 0.93101 0.721 0.0
N367 N 0.42227 0.90334 0.68317 0.0
N368 N 0.48359 0.92389 0.68944 0.0
H369 H 0.46622 0.89665 0.64037 0.0
H370 H 0.40315 0.91779 0.73866 0.0
C371 C 0.34329 0.94183 0.68381 0.0
O372 O 0.37375 0.95561 0.66724 0.0
N373 N 0.33472 0.84873 0.64955 0.0
C374 C 0.33649 0.82491 0.6234 0.0
C375 C 0.29841 0.81405 0.61559 0.0
C376 C 0.29576 0.85195 0.65748 0.0
N377 N 0.27286 0.83118 0.63694 0.0
C378 C 0.40967 0.88003 0.59162 0.0
C379 C 0.35327 0.92102 0.55964 0.0
C380 C 0.38313 0.90824 0.53638 0.0
C381 C 0.41128 0.88728 0.55321 0.0
C382 C 0.35228 0.91256 0.59817 0.0
N383 N 0.38111 0.89307 0.61418 0.0
H384 H 0.43102 0.86273 0.60266 0.0
H385 H 0.32736 0.9208 0.61442 0.0
H386 H 0.3634 0.81688 0.60984 0.0
H387 H 0.28411 0.87016 0.67644 0.0
O388 O 0.41518 0.84027 0.66169 0.0
O389 O 0.38247 0.85223 0.7136 0.0
O390 O 0.33909 0.91079 0.68306 0.0
C391 C 0.40881 0.8341 0.69702 0.0
H392 H 0.47579 0.94343 0.74556 0.0
H393 H 0.29014 0.79547 0.59519 0.0
H394 H 0.33033 0.93695 0.54821 0.0
H395 H 0.43378 0.87523 0.53669 0.0
Co396 Co 0.62823 0.64465 0.4148 0.0
C397 C 0.70836 0.61378 0.41715 0.0
C398 C 0.6743 0.60119 0.46563 0.0
C399 C 0.71167 0.5875 0.46975 0.0
N400 N 0.67189 0.61697 0.43209 0.0
N401 N 0.7329 0.59577 0.43929 0.0
H402 H 0.71784 0.62535 0.39153 0.0
H403 H 0.65089 0.60055 0.48625 0.0
C404 C 0.59109 0.5798 0.43259 0.0
O405 O 0.6206 0.5654 0.41524 0.0
N406 N 0.58495 0.67256 0.39835 0.0
C407 C 0.58621 0.6953 0.37088 0.0
C408 C 0.54808 0.7065 0.36381 0.0
C409 C 0.5463 0.67034 0.40781 0.0
N410 N 0.52303 0.69065 0.38697 0.0
C411 C 0.65969 0.63767 0.34053 0.0
C412 C 0.59698 0.60324 0.3086 0.0
C413 C 0.62815 0.61349 0.28558 0.0
C414 C 0.65981 0.63066 0.30199 0.0
C415 C 0.59815 0.61059 0.34742 0.0
N416 N 0.62976 0.62708 0.36327 0.0
H417 H 0.68282 0.65345 0.3513 0.0
H418 H 0.57248 0.60461 0.364 0.0
H419 H 0.61272 0.70226 0.35591 0.0
H420 H 0.53506 0.65303 0.42811 0.0
O421 O 0.66569 0.68005 0.40889 0.0
O422 O 0.63357 0.66936 0.4616 0.0
O423 O 0.58845 0.61095 0.43281 0.0
C424 C 0.65967 0.68708 0.44408 0.0
H425 H 0.72301 0.57403 0.49399 0.0
H426 H 0.53942 0.72435 0.34264 0.0
H427 H 0.5713 0.59085 0.29644 0.0
H428 H 0.68367 0.63996 0.28475 0.0
Co429 Co 0.62581 0.63892 0.86939 0.0
C430 C 0.54624 0.60731 0.87149 0.0
C431 C 0.57921 0.59237 0.82324 0.0
C432 C 0.54174 0.57872 0.82066 0.0
N433 N 0.5824 0.60964 0.85568 0.0
N434 N 0.52114 0.58845 0.85094 0.0
H435 H 0.53731 0.62029 0.89636 0.0
H436 H 0.602 0.59094 0.80205 0.0
C437 C 0.66465 0.57409 0.854 0.0
O438 O 0.63632 0.55944 0.87275 0.0
N439 N 0.6687 0.66849 0.88246 0.0
C440 C 0.66651 0.69343 0.90715 0.0
C441 C 0.70433 0.70518 0.91418 0.0
C442 C 0.70773 0.66548 0.87463 0.0
N443 N 0.7302 0.68745 0.89386 0.0
C444 C 0.59741 0.63439 0.94512 0.0
C445 C 0.66195 0.60189 0.9766 0.0
C446 C 0.63076 0.61137 1.00015 0.0
C447 C 0.59821 0.62773 0.98378 0.0
C448 C 0.65959 0.60852 0.93763 0.0
N449 N 0.62699 0.62387 0.92202 0.0
H450 H 0.57362 0.64955 0.93432 0.0
H451 H 0.68491 0.6026 0.92056 0.0
H452 H 0.63957 0.70145 0.92068 0.0
H453 H 0.71987 0.64643 0.8571 0.0
O454 O 0.58781 0.67432 0.87392 0.0
O455 O 0.61775 0.66045 0.821 0.0
O456 O 0.66593 0.60524 0.85225 0.0
C457 C 0.59224 0.6791 0.83793 0.0
H458 H 0.5298 0.56445 0.79735 0.0
H459 H 0.71228 0.72457 0.93365 0.0
H460 H 0.6882 0.58992 0.98826 0.0
H461 H 0.5743 0.63681 1.00108 0.0
Co462 Co 0.37408 0.38122 0.61487 0.0
C463 C 0.29395 0.41096 0.61662 0.0
C464 C 0.32762 0.4289 0.57011 0.0
C465 C 0.28976 0.44185 0.56755 0.0
N466 N 0.33042 0.41005 0.60138 0.0
N467 N 0.26873 0.43024 0.59671 0.0
H468 H 0.28518 0.39679 0.64075 0.0
H469 H 0.35089 0.43184 0.54962 0.0
C470 C 0.41312 0.44708 0.60256 0.0
O471 O 0.3864 0.46164 0.62339 0.0
N472 N 0.41743 0.35216 0.62798 0.0
C473 C 0.41546 0.32658 0.65185 0.0
C474 C 0.45329 0.31447 0.65787 0.0
C475 C 0.45632 0.35522 0.61966 0.0
N476 N 0.47894 0.33258 0.63773 0.0
C477 C 0.34354 0.38086 0.68975 0.0
C478 C 0.39948 0.42062 0.72432 0.0
C479 C 0.36865 0.40774 0.74643 0.0
C480 C 0.34105 0.38708 0.72833 0.0
C481 C 0.40141 0.41305 0.68555 0.0
N482 N 0.37249 0.39457 0.66819 0.0
H483 H 0.32233 0.364 0.67763 0.0
H484 H 0.42678 0.42149 0.67004 0.0
H485 H 0.38859 0.31808 0.66512 0.0
H486 H 0.46818 0.37451 0.60224 0.0
O487 O 0.33713 0.34482 0.61664 0.0
O488 O 0.36824 0.36104 0.56536 0.0
O489 O 0.41348 0.41599 0.59941 0.0
C490 C 0.34292 0.34123 0.58072 0.0
H491 H 0.27798 0.45707 0.54495 0.0
H492 H 0.46135 0.29431 0.67626 0.0
H493 H 0.42223 0.43616 0.73672 0.0
H494 H 0.31805 0.37471 0.74391 0.0
Co495 Co 0.37696 0.37712 0.16352 0.0
C496 C 0.45716 0.40547 0.15592 0.0
C497 C 0.42359 0.43193 0.19665 0.0
C498 C 0.46136 0.44513 0.1955 0.0
N499 N 0.42059 0.40766 0.17089 0.0
N500 N 0.48222 0.42816 0.17002 0.0
H501 H 0.46633 0.3867 0.13661 0.0
H502 H 0.40081 0.43859 0.21643 0.0
C503 C 0.33254 0.44124 0.17551 0.0
O504 O 0.35306 0.45626 0.14941 0.0
N505 N 0.33399 0.34642 0.1563 0.0
C506 C 0.33394 0.32105 0.13212 0.0
C507 C 0.29598 0.30855 0.12956 0.0
C508 C 0.29623 0.34892 0.16832 0.0
N509 N 0.27217 0.32625 0.15211 0.0
C510 C 0.39987 0.37892 0.08603 0.0
C511 C 0.33244 0.40865 0.05636 0.0
C512 C 0.36263 0.39907 0.03172 0.0
C513 C 0.39653 0.38394 0.04713 0.0
C514 C 0.33679 0.40271 0.09538 0.0
N515 N 0.371 0.38916 0.11006 0.0
H516 H 0.42516 0.3653 0.09636 0.0
H517 H 0.312 0.408 0.11339 0.0
H518 H 0.35917 0.31347 0.11566 0.0
H519 H 0.28627 0.36768 0.18741 0.0
O520 O 0.41491 0.34163 0.15872 0.0
O521 O 0.38961 0.35866 0.21266 0.0
O522 O 0.33781 0.41085 0.18202 0.0
C523 C 0.41345 0.3389 0.19529 0.0
H524 H 0.47325 0.46434 0.21339 0.0
H525 H 0.28627 0.28933 0.11057 0.0
H526 H 0.30513 0.41945 0.04542 0.0
H527 H 0.42025 0.37557 0.02914 0.0
C528 C 0.2859 0.06709 0.39078 0.0
C529 C 0.27728 0.08661 0.42198 0.0
C530 C 0.32489 0.06447 0.37758 0.0
C531 C 0.35583 0.08251 0.39567 0.0
C532 C 0.34707 0.10236 0.42729 0.0
C533 C 0.30792 0.10368 0.44049 0.0
C534 C 0.33157 0.04349 0.3432 0.0
C535 C 0.3784 0.12386 0.44568 0.0
C536 C 0.46591 0.06397 0.38475 0.0
C537 C 0.47566 0.08453 0.35472 0.0
C538 C 0.42661 0.06198 0.39746 0.0
C539 C 0.3969 0.08213 0.38061 0.0
C540 C 0.40675 0.10279 0.34999 0.0
C541 C 0.44599 0.10334 0.33703 0.0
C542 C 0.4174 0.03907 0.42962 0.0
C543 C 0.37618 0.12508 0.33172 0.0
H544 H 0.26182 0.05436 0.37625 0.0
H545 H 0.30071 0.11953 0.46392 0.0
H546 H 0.31632 0.05483 0.31837 0.0
H547 H 0.3634 0.04012 0.33649 0.0
H548 H 0.31773 0.01914 0.34729 0.0
H549 H 0.36614 0.13914 0.46867 0.0
H550 H 0.40289 0.10873 0.45768 0.0
H551 H 0.39156 0.14019 0.42416 0.0
H552 H 0.48925 0.04972 0.39844 0.0
H553 H 0.45406 0.11964 0.31426 0.0
H554 H 0.38765 0.02764 0.42567 0.0
H555 H 0.41717 0.0529 0.45653 0.0
H556 H 0.44021 0.01953 0.43255 0.0
H557 H 0.3528 0.11025 0.31735 0.0
H558 H 0.38951 0.1417 0.31056 0.0
H559 H 0.36141 0.14005 0.35357 0.0
C560 C 0.96385 0.18349 0.41639 0.0
C561 C 0.98434 0.19132 0.38335 0.0
C562 C 0.92205 0.18371 0.41707 0.0
C563 C 0.90012 0.19204 0.38389 0.0
C564 C 0.92055 0.20074 0.3507 0.0
C565 C 0.96238 0.20027 0.35082 0.0
C566 C 0.90136 0.17438 0.45308 0.0
C567 C 0.89821 0.20968 0.31473 0.0
C568 C 0.79473 0.1589 0.37466 0.0
C569 C 0.77179 0.18603 0.38492 0.0
C570 C 0.83646 0.16064 0.37392 0.0
C571 C 0.85581 0.19028 0.38353 0.0
C572 C 0.83287 0.21791 0.39339 0.0
C573 C 0.79114 0.21542 0.39403 0.0
C574 C 0.85987 0.13061 0.36331 0.0
C575 C 0.85242 0.24999 0.4036 0.0
H576 H 0.98053 0.17705 0.4418 0.0
H577 H 0.97783 0.20595 0.32502 0.0
H578 H 0.88062 0.19406 0.46153 0.0
H579 H 0.88331 0.15203 0.44832 0.0
H580 H 0.92273 0.16973 0.47682 0.0
H581 H 0.91848 0.2175 0.29193 0.0
H582 H 0.88067 0.18839 0.30453 0.0
H583 H 0.87681 0.2297 0.3202 0.0
H584 H 0.78013 0.13598 0.36812 0.0
H585 H 0.7736 0.23656 0.40154 0.0
H586 H 0.88081 0.12388 0.38665 0.0
H587 H 0.87799 0.13578 0.33806 0.0
H588 H 0.84033 0.10935 0.35708 0.0
H589 H 0.87221 0.24672 0.42877 0.0
H590 H 0.83032 0.26937 0.40981 0.0
H591 H 0.87134 0.25841 0.3801 0.0
C592 C 0.47015 0.19673 0.854 0.0
C593 C 0.49016 0.18557 0.8867 0.0
C594 C 0.42841 0.19882 0.85233 0.0
C595 C 0.40606 0.18973 0.88423 0.0
C596 C 0.42608 0.17904 0.91759 0.0
C597 C 0.46788 0.17696 0.91836 0.0
C598 C 0.40819 0.20998 0.81609 0.0
C599 C 0.40333 0.16944 0.95234 0.0
C600 C 0.29858 0.21848 0.89098 0.0
C601 C 0.27733 0.19039 0.88014 0.0
C602 C 0.34045 0.21872 0.89231 0.0
C603 C 0.36169 0.19024 0.88225 0.0
C604 C 0.34052 0.16201 0.87057 0.0
C605 C 0.2987 0.16238 0.86983 0.0
C606 C 0.36194 0.24934 0.90487 0.0
C607 C 0.36205 0.1312 0.85937 0.0
H608 H 0.48708 0.20294 0.82922 0.0
H609 H 0.4832 0.16867 0.94381 0.0
H610 H 0.3893 0.19002 0.80448 0.0
H611 H 0.38829 0.23098 0.82172 0.0
H612 H 0.42989 0.21729 0.79429 0.0
H613 H 0.42339 0.16287 0.97647 0.0
H614 H 0.38375 0.18981 0.96111 0.0
H615 H 0.38384 0.14825 0.94581 0.0
H616 H 0.28246 0.24036 0.89851 0.0
H617 H 0.28285 0.14033 0.86204 0.0
H618 H 0.38193 0.25791 0.88227 0.0
H619 H 0.38091 0.24405 0.93014 0.0
H620 H 0.34104 0.2694 0.91188 0.0
H621 H 0.38328 0.13652 0.83647 0.0
H622 H 0.34126 0.11177 0.84949 0.0
H623 H 0.37967 0.12171 0.88382 0.0
C624 C 0.96535 0.0532 0.85753 0.0
C625 C 0.98116 0.08471 0.86115 0.0
C626 C 0.92553 0.0467 0.86637 0.0
C627 C 0.90103 0.07236 0.87941 0.0
C628 C 0.91673 0.10437 0.88249 0.0
C629 C 0.95661 0.1101 0.87347 0.0
C630 C 0.91053 0.01215 0.8627 0.0
C631 C 0.89123 0.13271 0.89484 0.0
C632 C 0.78862 0.06949 0.87096 0.0
C633 C 0.77763 0.06702 0.90896 0.0
C634 C 0.82873 0.06953 0.86069 0.0
C635 C 0.85868 0.06645 0.88906 0.0
C636 C 0.84778 0.06129 0.92713 0.0
C637 C 0.8073 0.06176 0.93669 0.0
C638 C 0.83906 0.07479 0.81974 0.0
C639 C 0.87888 0.05711 0.95808 0.0
H640 H 0.98441 0.03345 0.84844 0.0
H641 H 0.96847 0.13463 0.87553 0.0
H642 H 0.91403 0.99992 0.89052 0.0
H643 H 0.87864 0.01122 0.85412 0.0
H644 H 0.92797 0.99808 0.84184 0.0
H645 H 0.90772 0.15623 0.89477 0.0
H646 H 0.86477 0.13503 0.87576 0.0
H647 H 0.8802 0.1283 0.92378 0.0
H648 H 0.76574 0.07263 0.84929 0.0
H649 H 0.7991 0.05972 0.96608 0.0
H650 H 0.85949 0.05532 0.81011 0.0
H651 H 0.85486 0.09843 0.8167 0.0
H652 H 0.81225 0.07504 0.80088 0.0
H653 H 0.9034 0.04103 0.94861 0.0
H654 H 0.86598 0.04663 0.98414 0.0
H655 H 0.89202 0.08122 0.9652 0.0
C656 C 0.71735 0.94098 0.66804 0.0
C657 C 0.72644 0.94885 0.6305 0.0
C658 C 0.67794 0.94092 0.68044 0.0
C659 C 0.64688 0.94983 0.65499 0.0
C660 C 0.65617 0.96102 0.61828 0.0
C661 C 0.69581 0.9601 0.60633 0.0
C662 C 0.66939 0.92888 0.71985 0.0
C663 C 0.62417 0.97167 0.59043 0.0
C664 C 0.54774 0.90671 0.66375 0.0
C665 C 0.52479 0.93023 0.68212 0.0
C666 C 0.58763 0.91275 0.65522 0.0
C667 C 0.60484 0.94321 0.66496 0.0
C668 C 0.58186 0.96694 0.68384 0.0
C669 C 0.54209 0.96005 0.6925 0.0
C670 C 0.61127 0.88654 0.63561 0.0
C671 C 0.59889 0.9999 0.6937 0.0
H672 H 0.7409 0.93354 0.68749 0.0
H673 H 0.70226 0.96657 0.5774 0.0
H674 H 0.64872 0.94568 0.7343 0.0
H675 H 0.65461 0.90468 0.71808 0.0
H676 H 0.69695 0.92635 0.73746 0.0
H677 H 0.63595 0.98961 0.56985 0.0
H678 H 0.61338 0.95007 0.57437 0.0
H679 H 0.59839 0.98268 0.60485 0.0
H680 H 0.5345 0.88341 0.65637 0.0
H681 H 0.52411 0.97827 0.70643 0.0
H682 H 0.63866 0.88078 0.65233 0.0
H683 H 0.6207 0.89547 0.60753 0.0
H684 H 0.5939 0.86369 0.63151 0.0
H685 H 0.62494 0.99718 0.71314 0.0
H686 H 0.57675 0.01623 0.70703 0.0
H687 H 0.60956 0.01159 0.66756 0.0
C688 C 0.04036 0.86316 0.61876 0.0
C689 C 0.01729 0.83554 0.62703 0.0
C690 C 0.08215 0.86173 0.61934 0.0
C691 C 0.1015 0.83206 0.62884 0.0
C692 C 0.07855 0.80396 0.63667 0.0
C693 C 0.03679 0.80599 0.63542 0.0
C694 C 0.1056 0.89218 0.61046 0.0
C695 C 0.09811 0.77187 0.64697 0.0
C696 C 0.20981 0.82193 0.60154 0.0
C697 C 0.22992 0.83007 0.63534 0.0
C698 C 0.16802 0.82222 0.59908 0.0
C699 C 0.14578 0.83065 0.63128 0.0
C700 C 0.16587 0.8384 0.66565 0.0
C701 C 0.20769 0.83812 0.66722 0.0
C702 C 0.1477 0.81415 0.56183 0.0
C703 C 0.14319 0.84722 0.7007 0.0
H704 H 0.02593 0.88625 0.61275 0.0
H705 H 0.01942 0.78436 0.64121 0.0
H706 H 0.12332 0.89975 0.63572 0.0
H707 H 0.12691 0.88719 0.58753 0.0
H708 H 0.08609 0.91284 0.60162 0.0
H709 H 0.07604 0.75215 0.65178 0.0
H710 H 0.1183 0.76407 0.62417 0.0
H711 H 0.11662 0.77485 0.67304 0.0
H712 H 0.22676 0.81619 0.57664 0.0
H713 H 0.22306 0.84405 0.6935 0.0
H714 H 0.13017 0.8355 0.55169 0.0
H715 H 0.12651 0.79368 0.56552 0.0
H716 H 0.16927 0.80733 0.5397 0.0
H717 H 0.12508 0.86946 0.69537 0.0
H718 H 0.16326 0.85179 0.72545 0.0
H719 H 0.1223 0.82727 0.70792 0.0
C720 C 0.71047 0.83148 0.17919 0.0
C721 C 0.73214 0.82186 0.14757 0.0
C722 C 0.66864 0.83138 0.17834 0.0
C723 C 0.64803 0.82178 0.14488 0.0
C724 C 0.66974 0.81168 0.11301 0.0
C725 C 0.71153 0.81171 0.1148 0.0
C726 C 0.6465 0.84196 0.21306 0.0
C727 C 0.64886 0.80165 0.07668 0.0
C728 C 0.53884 0.79807 0.15065 0.0
C729 C 0.51966 0.82713 0.1397 0.0
C730 C 0.58058 0.79593 0.1525 0.0
C731 C 0.60377 0.82343 0.14278 0.0
C732 C 0.58472 0.85268 0.13115 0.0
C733 C 0.54296 0.85421 0.12986 0.0
C734 C 0.59983 0.76432 0.1651 0.0
C735 C 0.60845 0.88248 0.12031 0.0
H736 H 0.72633 0.83903 0.20465 0.0
H737 H 0.7281 0.80476 0.09007 0.0
H738 H 0.62865 0.86414 0.20658 0.0
H739 H 0.62539 0.82259 0.22165 0.0
H740 H 0.66691 0.84739 0.2373 0.0
H741 H 0.67007 0.79343 0.05487 0.0
H742 H 0.62753 0.78159 0.08216 0.0
H743 H 0.63141 0.82252 0.06513 0.0
H744 H 0.5212 0.77689 0.15778 0.0
H745 H 0.52867 0.87694 0.12192 0.0
H746 H 0.61992 0.76875 0.1898 0.0
H747 H 0.61835 0.75439 0.14212 0.0
H748 H 0.57753 0.74559 0.17296 0.0
H749 H 0.62849 0.88985 0.14406 0.0
H750 H 0.5891 0.90355 0.11264 0.0
H751 H 0.62754 0.87669 0.0959 0.0
C752 C 0.04783 0.90611 0.15388 0.0
C753 C 0.02504 0.93172 0.16844 0.0
C754 C 0.08806 0.91053 0.14542 0.0
C755 C 0.10599 0.9414 0.15149 0.0
C756 C 0.0833 0.96729 0.16658 0.0
C757 C 0.04304 0.96211 0.17499 0.0
C758 C 0.11143 0.88202 0.13019 0.0
C759 C 0.10145 1.00043 0.17356 0.0
C760 C 0.21838 0.93686 0.15831 0.0
C761 C 0.22897 0.94095 0.12031 0.0
C762 C 0.17857 0.93877 0.16941 0.0
C763 C 0.14861 0.946 0.1421 0.0
C764 C 0.15939 0.95338 0.10454 0.0
C765 C 0.19938 0.95044 0.09397 0.0
C766 C 0.1684 0.93059 0.20976 0.0
C767 C 0.12835 0.96237 0.07492 0.0
H768 H 0.03433 0.88236 0.14964 0.0
H769 H 0.0254 0.98194 0.18611 0.0
H770 H 0.12279 0.88805 0.10175 0.0
H771 H 0.13765 0.87701 0.14885 0.0
H772 H 0.09324 0.85943 0.12795 0.0
H773 H 0.07965 0.01814 0.18494 0.0
H774 H 0.12681 0.9984 0.19392 0.0
H775 H 0.11341 0.01013 0.1468 0.0
H776 H 0.24098 0.93093 0.17938 0.0
H777 H 0.2069 0.9541 0.06466 0.0
H778 H 0.15377 0.90631 0.21056 0.0
H779 H 0.14711 0.94857 0.22125 0.0
H780 H 0.19526 0.92982 0.22855 0.0
H781 H 0.11031 0.9405 0.06759 0.0
H782 H 0.14195 0.97183 0.04868 0.0
H783 H 0.10775 0.98111 0.08601 0.0
C784 C 0.30711 0.56294 0.93435 0.0
C785 C 0.27661 0.57085 0.9083 0.0
C786 C 0.34697 0.56121 0.92313 0.0
C787 C 0.35653 0.56776 0.88503 0.0
C788 C 0.32565 0.57356 0.85815 0.0
C789 C 0.28607 0.57489 0.87008 0.0
C790 C 0.37897 0.55448 0.95263 0.0
C791 C 0.33465 0.58022 0.81719 0.0
C792 C 0.45636 0.60876 0.8719 0.0
C793 C 0.47958 0.58326 0.85788 0.0
C794 C 0.41609 0.60406 0.87997 0.0
C795 C 0.39873 0.57288 0.87442 0.0
C796 C 0.42186 0.54715 0.85938 0.0
C797 C 0.4621 0.55274 0.8512 0.0
C798 C 0.39215 0.63255 0.89445 0.0
C799 C 0.4052 0.51334 0.85322 0.0
H800 H 0.30021 0.55974 0.96391 0.0
H801 H 0.26254 0.58007 0.8496 0.0
H802 H 0.40308 0.53913 0.94097 0.0
H803 H 0.39245 0.57791 0.96197 0.0
H804 H 0.36668 0.54207 0.97783 0.0
H805 H 0.30716 0.58218 0.79938 0.0
H806 H 0.35157 0.60339 0.81491 0.0
H807 H 0.35361 0.56049 0.80574 0.0
H808 H 0.46971 0.63257 0.87622 0.0
H809 H 0.48022 0.533 0.84051 0.0
H810 H 0.38191 0.62731 0.92347 0.0
H811 H 0.36523 0.6363 0.8763 0.0
H812 H 0.40959 0.6556 0.89511 0.0
H813 H 0.41165 0.49853 0.87884 0.0
H814 H 0.41977 0.50109 0.82908 0.0
H815 H 0.37254 0.51343 0.84801 0.0
C816 C 0.79262 0.69757 0.92985 0.0
C817 C 0.77309 0.68877 0.89598 0.0
C818 C 0.83437 0.69751 0.9329 0.0
C819 C 0.85717 0.68871 0.9012 0.0
C820 C 0.83765 0.68026 0.86675 0.0
C821 C 0.79584 0.68022 0.86463 0.0
C822 C 0.85404 0.70621 0.97027 0.0
C823 C 0.86094 0.67108 0.83219 0.0
C824 C 0.96588 0.7144 0.89843 0.0
C825 C 0.98567 0.68515 0.90762 0.0
C826 C 0.92411 0.71598 0.89641 0.0
C827 C 0.90143 0.68773 0.90425 0.0
C828 C 0.92106 0.65837 0.91456 0.0
C829 C 0.96286 0.65738 0.91588 0.0
C830 C 0.90426 0.74775 0.88527 0.0
C831 C 0.8979 0.62781 0.92358 0.0
H832 H 0.77523 0.70365 0.95436 0.0
H833 H 0.78085 0.67369 0.83834 0.0
H834 H 0.87182 0.68518 0.98093 0.0
H835 H 0.87492 0.7269 0.96653 0.0
H836 H 0.83206 0.71301 0.99203 0.0
H837 H 0.84128 0.66604 0.80728 0.0
H838 H 0.88175 0.69107 0.82488 0.0
H839 H 0.87919 0.64904 0.83819 0.0
H840 H 0.98304 0.73614 0.89262 0.0
H841 H 0.97753 0.63451 0.92249 0.0
H842 H 0.8837 0.75571 0.90769 0.0
H843 H 0.88611 0.74424 0.85907 0.0
H844 H 0.92614 0.76758 0.88032 0.0
H845 H 0.87611 0.63287 0.94608 0.0
H846 H 0.91755 0.60745 0.93307 0.0
H847 H 0.88072 0.61975 0.89819 0.0
C848 C 0.45882 0.69962 0.35326 0.0
C849 C 0.48007 0.69215 0.38668 0.0
C850 C 0.41698 0.69922 0.35206 0.0
C851 C 0.39585 0.69128 0.38511 0.0
C852 C 0.41708 0.68438 0.41912 0.0
C853 C 0.45891 0.68485 0.41947 0.0
C854 C 0.39541 0.70653 0.31519 0.0
C855 C 0.39563 0.67601 0.45504 0.0
C856 C 0.28645 0.71424 0.39219 0.0
C857 C 0.26751 0.68431 0.38476 0.0
C858 C 0.32816 0.71701 0.39192 0.0
C859 C 0.35156 0.68919 0.38392 0.0
C860 C 0.33267 0.65907 0.37564 0.0
C861 C 0.29094 0.65698 0.37619 0.0
C862 C 0.3472 0.74959 0.40078 0.0
C863 C 0.35659 0.62886 0.3668 0.0
H864 H 0.47488 0.70482 0.32767 0.0
H865 H 0.47511 0.67948 0.44548 0.0
H866 H 0.37825 0.68476 0.30583 0.0
H867 H 0.37374 0.72665 0.31908 0.0
H868 H 0.41616 0.71351 0.29241 0.0
H869 H 0.41649 0.67231 0.47941 0.0
H870 H 0.37445 0.69578 0.46217 0.0
H871 H 0.37797 0.65337 0.45087 0.0
H872 H 0.26864 0.73558 0.39826 0.0
H873 H 0.27679 0.63366 0.37088 0.0
H874 H 0.36658 0.75721 0.37726 0.0
H875 H 0.36644 0.74742 0.42648 0.0
H876 H 0.32478 0.76906 0.40553 0.0
H877 H 0.37556 0.63342 0.34197 0.0
H878 H 0.33737 0.60736 0.36074 0.0
H879 H 0.37676 0.62284 0.391 0.0
C880 C 0.79836 0.61461 0.41881 0.0
C881 C 0.77435 0.58968 0.43293 0.0
C882 C 0.83832 0.6089 0.4104 0.0
C883 C 0.85441 0.57714 0.41522 0.0
C884 C 0.83058 0.55205 0.43081 0.0
C885 C 0.79078 0.55878 0.43973 0.0
C886 C 0.8633 0.63697 0.39637 0.0
C887 C 0.84602 0.51799 0.43819 0.0
C888 C 0.94287 0.56757 0.35136 0.0
C889 C 0.97472 0.57329 0.37671 0.0
C890 C 0.90353 0.56596 0.36407 0.0
C891 C 0.89581 0.57085 0.40289 0.0
C892 C 0.92794 0.57409 0.42895 0.0
C893 C 0.96701 0.57483 0.4156 0.0
C894 C 0.87009 0.56119 0.3355 0.0
C895 C 0.92092 0.57871 0.47064 0.0
H896 H 0.78578 0.63874 0.41458 0.0
H897 H 0.77215 0.53959 0.45095 0.0
H898 H 0.89148 0.63867 0.41315 0.0
H899 H 0.87134 0.63277 0.36648 0.0
H900 H 0.84746 0.66073 0.39812 0.0
H901 H 0.82675 0.50004 0.4231 0.0
H902 H 0.87729 0.51433 0.42966 0.0
H903 H 0.84388 0.51244 0.46882 0.0
H904 H 0.94825 0.56598 0.32134 0.0
H905 H 0.99145 0.57785 0.43565 0.0
H906 H 0.85691 0.58523 0.32806 0.0
H907 H 0.8461 0.54578 0.34728 0.0
H908 H 0.88086 0.54975 0.3091 0.0
H909 H 0.90354 0.60141 0.47513 0.0
H910 H 0.94919 0.58034 0.48733 0.0
H911 H 0.90311 0.55808 0.48164 0.0
C912 C 0.53999 0.46186 0.15388 0.0
C913 C 0.52365 0.43124 0.16161 0.0
C914 C 0.57968 0.46479 0.14256 0.0
C915 C 0.60375 0.43646 0.14014 0.0
C916 C 0.58744 0.40554 0.14892 0.0
C917 C 0.54745 0.4033 0.15922 0.0
C918 C 0.59473 0.49833 0.13278 0.0
C919 C 0.61207 0.37473 0.14694 0.0
C920 C 0.69521 0.43161 0.07919 0.0
C921 C 0.72588 0.43255 0.10659 0.0
C922 C 0.65522 0.43459 0.08952 0.0
C923 C 0.64582 0.43851 0.12809 0.0
C924 C 0.67673 0.4418 0.15547 0.0
C925 C 0.71644 0.4386 0.14441 0.0
C926 C 0.62292 0.43236 0.05942 0.0
C927 C 0.66775 0.44748 0.19661 0.0
H928 H 0.52129 0.48338 0.15542 0.0
H929 H 0.53465 0.37968 0.16557 0.0
H930 H 0.62564 0.49855 0.12233 0.0
H931 H 0.57494 0.50929 0.11072 0.0
H932 H 0.59307 0.5141 0.15819 0.0
H933 H 0.59504 0.35272 0.15538 0.0
H934 H 0.62273 0.37117 0.1177 0.0
H935 H 0.63876 0.37691 0.16573 0.0
H936 H 0.70231 0.42701 0.04993 0.0
H937 H 0.74017 0.44017 0.16549 0.0
H938 H 0.60271 0.45373 0.06137 0.0
H939 H 0.60475 0.41012 0.06403 0.0
H940 H 0.6352 0.43141 0.03047 0.0
H941 H 0.64682 0.46829 0.19945 0.0
H942 H 0.69509 0.45262 0.21373 0.0
H943 H 0.65299 0.42556 0.20838 0.0
C944 C 0.20674 0.35201 0.16326 0.0
C945 C 0.22927 0.32441 0.15371 0.0
C946 C 0.16498 0.35121 0.16228 0.0
C947 C 0.14515 0.32224 0.15102 0.0
C948 C 0.16754 0.2941 0.14206 0.0
C949 C 0.2093 0.29547 0.14375 0.0
C950 C 0.14209 0.38164 0.17247 0.0
C951 C 0.1474 0.26275 0.1299 0.0
C952 C 0.03623 0.31299 0.17587 0.0
C953 C 0.01707 0.32294 0.14223 0.0
C954 C 0.07792 0.31238 0.17906 0.0
C955 C 0.10098 0.32171 0.14774 0.0
C956 C 0.08184 0.33132 0.11351 0.0
C957 C 0.04008 0.33196 0.11124 0.0
C958 C 0.09727 0.30243 0.21618 0.0
C959 C 0.10547 0.34115 0.07938 0.0
H960 H 0.22159 0.37465 0.17046 0.0
H961 H 0.22632 0.27388 0.13695 0.0
H962 H 0.12518 0.39065 0.14733 0.0
H963 H 0.1201 0.37603 0.19462 0.0
H964 H 0.16191 0.40152 0.18289 0.0
H965 H 0.16908 0.24283 0.1247 0.0
H966 H 0.12641 0.25455 0.15185 0.0
H967 H 0.12966 0.26699 0.10359 0.0
H968 H 0.0186 0.30652 0.20011 0.0
H969 H 0.02535 0.33934 0.08511 0.0
H970 H 0.11514 0.32303 0.22776 0.0
H971 H 0.11803 0.28176 0.21177 0.0
H972 H 0.07508 0.2951 0.23753 0.0
H973 H 0.124 0.36285 0.0862 0.0
H974 H 0.08603 0.34704 0.05455 0.0
H975 H 0.12603 0.32116 0.07151 0.0
C976 C 0.54219 0.31963 0.67112 0.0
C977 C 0.52182 0.33042 0.63846 0.0
C978 C 0.58397 0.31879 0.67289 0.0
C979 C 0.60597 0.3288 0.64114 0.0
C980 C 0.58561 0.33915 0.60782 0.0
C981 C 0.54378 0.33996 0.60695 0.0
C982 C 0.60458 0.30793 0.70907 0.0
C983 C 0.60803 0.34972 0.57325 0.0
C984 C 0.71199 0.3591 0.65589 0.0
C985 C 0.73454 0.33178 0.64538 0.0
C986 C 0.6702 0.35826 0.65516 0.0
C987 C 0.65028 0.32954 0.6432 0.0
C988 C 0.67269 0.30176 0.63289 0.0
C989 C 0.71451 0.30316 0.63429 0.0
C990 C 0.64736 0.38835 0.66666 0.0
C991 C 0.65249 0.27068 0.61996 0.0
H992 H 0.52545 0.3127 0.69577 0.0
H993 H 0.52818 0.34794 0.58152 0.0
H994 H 0.62536 0.28755 0.70328 0.0
H995 H 0.6226 0.32833 0.72091 0.0
H996 H 0.58316 0.29984 0.73076 0.0
H997 H 0.58776 0.35594 0.54914 0.0
H998 H 0.62659 0.3714 0.58007 0.0
H999 H 0.62848 0.33001 0.56429 0.0
H1000 H 0.72685 0.38154 0.66389 0.0
H1001 H 0.73151 0.28178 0.62662 0.0
H1002 H 0.62632 0.38222 0.68946 0.0
H1003 H 0.62938 0.39755 0.64228 0.0
H1004 H 0.66729 0.40827 0.67679 0.0
H1005 H 0.63246 0.26156 0.64224 0.0
H1006 H 0.67419 0.25115 0.61314 0.0
H1007 H 0.63372 0.27561 0.59446 0.0
C1008 C 0.03344 0.44281 0.6174 0.0
C1009 C 0.02459 0.44516 0.65595 0.0
C1010 C 0.07284 0.44406 0.60505 0.0
C1011 C 0.10411 0.44852 0.63182 0.0
C1012 C 0.09518 0.45361 0.67037 0.0
C1013 C 0.0555 0.45164 0.68204 0.0
C1014 C 0.08116 0.43881 0.56369 0.0
C1015 C 0.12755 0.45918 0.69985 0.0
C1016 C 0.20439 0.4088 0.6175 0.0
C1017 C 0.22701 0.43469 0.60345 0.0
C1018 C 0.16406 0.41289 0.62565 0.0
C1019 C 0.14606 0.44387 0.62033 0.0
C1020 C 0.16842 0.46983 0.60475 0.0
C1021 C 0.20871 0.46485 0.59649 0.0
C1022 C 0.14069 0.38392 0.63974 0.0
C1023 C 0.15103 0.50322 0.59726 0.0
H1024 H 0.00958 0.43884 0.59692 0.0
H1025 H 0.04906 0.45359 0.71184 0.0
H1026 H 0.09826 0.45976 0.55247 0.0
H1027 H 0.09972 0.4166 0.56025 0.0
H1028 H 0.05342 0.43595 0.54642 0.0
H1029 H 0.11596 0.47249 0.72471 0.0
H1030 H 0.13911 0.43527 0.70987 0.0
H1031 H 0.15286 0.47315 0.68817 0.0
H1032 H 0.21823 0.38516 0.62176 0.0
H1033 H 0.22618 0.48485 0.58546 0.0
H1034 H 0.11294 0.38084 0.62259 0.0
H1035 H 0.13189 0.38808 0.66942 0.0
H1036 H 0.15807 0.36087 0.63861 0.0
H1037 H 0.1581 0.51115 0.56809 0.0
H1038 H 0.16549 0.5209 0.61678 0.0
H1039 H 0.11834 0.50448 0.60077 0.0
C1040 C 0.10432 0.12493 0.21714 0.0
C1041 C 0.12775 0.10367 0.23912 0.0
C1042 C 0.10637 0.12478 0.17746 0.0
C1043 C 0.13199 0.10241 0.15926 0.0
C1044 C 0.15468 0.08003 0.18147 0.0
C1045 C 0.15273 0.08131 0.22119 0.0
C1046 C 0.08195 0.14922 0.15504 0.0
C1047 C 0.18215 0.05547 0.16364 0.0
C1048 C 0.10843 0.09008 0.05431 0.0
C1049 C 0.13847 0.10842 0.03732 0.0
C1050 C 0.10658 0.08695 0.0938 0.0
C1051 C 0.13529 0.10301 0.11711 0.0
C1052 C 0.16605 0.12129 0.09994 0.0
C1053 C 0.16757 0.12339 0.06024 0.0
C1054 C 0.07263 0.06735 0.10961 0.0
C1055 C 0.19602 0.1402 0.1235 0.0
H1056 H 0.08557 0.14259 0.23114 0.0
H1057 H 0.17132 0.06522 0.2383 0.0
H1058 H 0.10161 0.16375 0.13653 0.0
H1059 H 0.06024 0.13617 0.13651 0.0
H1060 H 0.06532 0.1662 0.1735 0.0
H1061 H 0.18762 0.03423 0.18258 0.0
H1062 H 0.17005 0.04651 0.13616 0.0
H1063 H 0.21133 0.06716 0.15837 0.0
H1064 H 0.08574 0.07858 0.03663 0.0
H1065 H 0.19039 0.13808 0.04714 0.0
H1066 H 0.04395 0.07899 0.10116 0.0
H1067 H 0.07363 0.06502 0.1408 0.0
H1068 H 0.07261 0.04252 0.09701 0.0
H1069 H 0.18028 0.15791 0.14172 0.0
H1070 H 0.21753 0.15376 0.10586 0.0
H1071 H 0.21291 0.12342 0.14242 0.0
C1072 C 0.87292 0.87746 0.96777 0.0
C1073 C 0.86385 0.90318 0.99233 0.0
C1074 C 0.87211 0.88182 0.9284 0.0
C1075 C 0.86289 0.91293 0.91298 0.0
C1076 C 0.85208 0.93868 0.93765 0.0
C1077 C 0.85269 0.93344 0.97699 0.0
C1078 C 0.88064 0.85289 0.90332 0.0
C1079 C 0.84014 0.97209 0.9236 0.0
C1080 C 0.90361 0.92137 0.81348 0.0
C1081 C 0.86917 0.9166 0.79106 0.0
C1082 C 0.90164 0.92254 0.85323 0.0
C1083 C 0.86456 0.91781 0.87112 0.0
C1084 C 0.82951 0.91483 0.84865 0.0
C1085 C 0.83215 0.915 0.80909 0.0
C1086 C 0.93967 0.92734 0.87593 0.0
C1087 C 0.78932 0.91006 0.86638 0.0
H1088 H 0.8805 0.85373 0.97944 0.0
H1089 H 0.8454 0.9534 0.99578 0.0
H1090 H 0.85682 0.85031 0.88135 0.0
H1091 H 0.90913 0.8567 0.88856 0.0
H1092 H 0.88282 0.82968 0.91952 0.0
H1093 H 0.86138 0.99031 0.93528 0.0
H1094 H 0.83912 0.97429 0.8924 0.0
H1095 H 0.81033 0.97848 0.93459 0.0
H1096 H 0.93241 0.92284 0.80023 0.0
H1097 H 0.80503 0.91278 0.79222 0.0
H1098 H 0.95187 0.90321 0.88438 0.0
H1099 H 0.9343 0.94155 0.90206 0.0
H1100 H 0.9626 0.94011 0.85914 0.0
H1101 H 0.79014 0.88846 0.88537 0.0
H1102 H 0.76513 0.90654 0.84494 0.0
H1103 H 0.78193 0.93162 0.88387 0.0
C1104 C 0.15002 0.59415 0.56603 0.0
C1105 C 0.11528 0.59857 0.54395 0.0
C1106 C 0.14846 0.59285 0.60577 0.0
C1107 C 0.11139 0.59654 0.62395 0.0
C1108 C 0.07607 0.59922 0.60178 0.0
C1109 C 0.0784 0.59974 0.56219 0.0
C1110 C 0.1868 0.58912 0.62829 0.0
C1111 C 0.03595 0.60314 0.6199 0.0
C1112 C 0.10378 0.57787 0.72946 0.0
C1113 C 0.11193 0.60848 0.74542 0.0
C1114 C 0.10268 0.57358 0.68998 0.0
C1115 C 0.10992 0.60057 0.6659 0.0
C1116 C 0.11631 0.63184 0.682 0.0
C1117 C 0.11756 0.63534 0.72148 0.0
C1118 C 0.09572 0.53973 0.67465 0.0
C1119 C 0.12208 0.66166 0.65752 0.0
H1120 H 0.17869 0.59322 0.55245 0.0
H1121 H 0.0512 0.60214 0.54545 0.0
H1122 H 0.19606 0.61326 0.63958 0.0
H1123 H 0.18269 0.57252 0.65274 0.0
H1124 H 0.21123 0.57949 0.61067 0.0
H1125 H 0.01114 0.60401 0.59871 0.0
H1126 H 0.03052 0.58265 0.63968 0.0
H1127 H 0.03556 0.62602 0.63669 0.0
H1128 H 0.09965 0.557 0.74786 0.0
H1129 H 0.12314 0.65919 0.73373 0.0
H1130 H 0.12497 0.52745 0.67228 0.0
H1131 H 0.08111 0.5399 0.64632 0.0
H1132 H 0.07722 0.52506 0.6941 0.0
H1133 H 0.14999 0.65923 0.64144 0.0
H1134 H 0.1237 0.68453 0.67436 0.0
H1135 H 0.09717 0.66384 0.63662 0.0
C1136 C 0.9116 0.41658 0.46782 0.0
C1137 C 0.87581 0.41637 0.48801 0.0
C1138 C 0.91167 0.41701 0.42811 0.0
C1139 C 0.87513 0.41861 0.40769 0.0
C1140 C 0.83909 0.42142 0.42773 0.0
C1141 C 0.83975 0.41977 0.46755 0.0
C1142 C 0.95086 0.41425 0.408 0.0
C1143 C 0.79966 0.42491 0.40702 0.0
C1144 C 0.87891 0.4362 0.30156 0.0
C1145 C 0.87313 0.40499 0.28619 0.0
C1146 C 0.87964 0.44117 0.34095 0.0
C1147 C 0.87448 0.41426 0.36566 0.0
C1148 C 0.86944 0.38258 0.35019 0.0
C1149 C 0.86857 0.37839 0.31076 0.0
C1150 C 0.88472 0.47545 0.35569 0.0
C1151 C 0.86541 0.35295 0.37531 0.0
H1152 H 0.93985 0.41546 0.48304 0.0
H1153 H 0.8118 0.4198 0.48238 0.0
H1154 H 0.95136 0.39134 0.39128 0.0
H1155 H 0.95426 0.43482 0.38789 0.0
H1156 H 0.97681 0.4142 0.42792 0.0
H1157 H 0.77506 0.431 0.42642 0.0
H1158 H 0.80157 0.44428 0.38516 0.0
H1159 H 0.79221 0.40173 0.39232 0.0
H1160 H 0.88209 0.4569 0.28272 0.0
H1161 H 0.86479 0.35411 0.29908 0.0
H1162 H 0.90226 0.47607 0.38251 0.0
H1163 H 0.85484 0.48579 0.36113 0.0
H1164 H 0.89963 0.49135 0.33479 0.0
H1165 H 0.89157 0.35116 0.39483 0.0
H1166 H 0.86304 0.3299 0.35888 0.0
H1167 H 0.83854 0.35534 0.39292 0.0
C1168 C 0.65647 0.11418 0.55678 0.0
C1169 C 0.62839 0.0976 0.53432 0.0
C1170 C 0.65492 0.11291 0.59645 0.0
C1171 C 0.62541 0.09359 0.61405 0.0
C1172 C 0.59751 0.07615 0.59119 0.0
C1173 C 0.59914 0.07869 0.55163 0.0
C1174 C 0.68341 0.13379 0.61942 0.0
C1175 C 0.56438 0.05597 0.6076 0.0
C1176 C 0.64836 0.07474 0.71773 0.0
C1177 C 0.62128 0.09512 0.73607 0.0
C1178 C 0.64902 0.07294 0.67805 0.0
C1179 C 0.62296 0.093 0.6562 0.0
C1180 C 0.5954 0.1135 0.67479 0.0
C1181 C 0.59445 0.11386 0.7145 0.0
C1182 C 0.67818 0.04989 0.65985 0.0
C1183 C 0.56785 0.13595 0.65279 0.0
H1184 H 0.6784 0.12949 0.54324 0.0
H1185 H 0.57694 0.06637 0.53417 0.0
H1186 H 0.66663 0.14922 0.63945 0.0
H1187 H 0.70378 0.11808 0.63639 0.0
H1188 H 0.7017 0.14993 0.60138 0.0
H1189 H 0.56199 0.03227 0.59256 0.0
H1190 H 0.56805 0.05132 0.63829 0.0
H1191 H 0.53564 0.06885 0.60275 0.0
H1192 H 0.66932 0.06041 0.73451 0.0
H1193 H 0.57403 0.13003 0.72879 0.0
H1194 H 0.70619 0.06309 0.65389 0.0
H1195 H 0.6662 0.03991 0.63279 0.0
H1196 H 0.68582 0.02916 0.67893 0.0
H1197 H 0.58492 0.15035 0.63196 0.0
H1198 H 0.55175 0.1531 0.67146 0.0
H1199 H 0.5455 0.12127 0.63684 0.0
C1200 C 0.37935 0.88004 0.31578 0.0
C1201 C 0.38384 0.90747 0.29242 0.0
C1202 C 0.38054 0.88283 0.35534 0.0
C1203 C 0.386 0.9139 0.37218 0.0
C1204 C 0.39155 0.94158 0.34877 0.0
C1205 C 0.3905 0.93805 0.30915 0.0
C1206 C 0.3758 0.85245 0.37911 0.0
C1207 C 0.39759 0.97505 0.36553 0.0
C1208 C 0.34857 0.9183 0.47315 0.0
C1209 C 0.38397 0.91442 0.49452 0.0
C1210 C 0.34907 0.92018 0.4334 0.0
C1211 C 0.38564 0.9171 0.41429 0.0
C1212 C 0.42156 0.91456 0.43559 0.0
C1213 C 0.42035 0.91397 0.47527 0.0
C1214 C 0.31022 0.92415 0.41175 0.0
C1215 C 0.4612 0.91072 0.41649 0.0
H1216 H 0.37493 0.85624 0.30302 0.0
H1217 H 0.39381 0.95934 0.29125 0.0
H1218 H 0.40143 0.84997 0.39915 0.0
H1219 H 0.34848 0.85438 0.39617 0.0
H1220 H 0.37373 0.82994 0.36168 0.0
H1221 H 0.40605 0.99333 0.34392 0.0
H1222 H 0.36967 0.983 0.37908 0.0
H1223 H 0.42115 0.97447 0.38784 0.0
H1224 H 0.32018 0.91857 0.48721 0.0
H1225 H 0.44813 0.91224 0.49118 0.0
H1226 H 0.30326 0.90136 0.39605 0.0
H1227 H 0.31273 0.94407 0.39063 0.0
H1228 H 0.285 0.92971 0.43063 0.0
H1229 H 0.46166 0.88725 0.40086 0.0
H1230 H 0.48664 0.91097 0.43701 0.0
H1231 H 0.46561 0.93047 0.39554 0.0
C1232 C 0.5993 0.59513 0.06116 0.0
C1233 C 0.63272 0.60663 0.04193 0.0
C1234 C 0.59883 0.59389 0.10085 0.0
C1235 C 0.63239 0.60498 0.12206 0.0
C1236 C 0.66661 0.6159 0.10277 0.0
C1237 C 0.66651 0.61629 0.06295 0.0
C1238 C 0.56151 0.58205 0.11977 0.0
C1239 C 0.70279 0.62829 0.1242 0.0
C1240 C 0.61088 0.63495 0.22158 0.0
C1241 C 0.62641 0.60966 0.244 0.0
C1242 C 0.6131 0.63383 0.18195 0.0
C1243 C 0.63092 0.60653 0.16428 0.0
C1244 C 0.64687 0.58093 0.18708 0.0
C1245 C 0.64449 0.58291 0.2267 0.0
C1246 C 0.59773 0.66249 0.15911 0.0
C1247 C 0.66816 0.55199 0.17044 0.0
H1248 H 0.57312 0.58753 0.04507 0.0
H1249 H 0.69224 0.62555 0.04826 0.0
H1250 H 0.56833 0.56939 0.14684 0.0
H1251 H 0.54221 0.60328 0.12603 0.0
H1252 H 0.54418 0.5653 0.10108 0.0
H1253 H 0.7261 0.63765 0.10508 0.0
H1254 H 0.69409 0.64815 0.14373 0.0
H1255 H 0.71581 0.60831 0.14162 0.0
H1256 H 0.59793 0.65605 0.23521 0.0
H1257 H 0.65758 0.56384 0.24422 0.0
H1258 H 0.5732 0.65454 0.13986 0.0
H1259 H 0.62184 0.6723 0.14126 0.0
H1260 H 0.5865 0.68247 0.17727 0.0
H1261 H 0.6611 0.54828 0.14004 0.0
H1262 H 0.66082 0.52936 0.18619 0.0
H1263 H 0.70078 0.55575 0.17366 0.0
C1264 C 0.40015 0.41828 0.81111 0.0
C1265 C 0.36588 0.41374 0.78828 0.0
C1266 C 0.39776 0.42011 0.8508 0.0
C1267 C 0.36047 0.41601 0.86842 0.0
C1268 C 0.32562 0.41314 0.84564 0.0
C1269 C 0.32864 0.41282 0.80606 0.0
C1270 C 0.43553 0.42508 0.87384 0.0
C1271 C 0.28518 0.40922 0.86313 0.0
C1272 C 0.36679 0.37691 0.96596 0.0
C1273 C 0.35869 0.40322 0.98999 0.0
C1274 C 0.36627 0.38069 0.92649 0.0
C1275 C 0.35832 0.41178 0.9104 0.0
C1276 C 0.34865 0.43821 0.93455 0.0
C1277 C 0.34887 0.43355 0.97403 0.0
C1278 C 0.37407 0.35124 0.90201 0.0
C1279 C 0.33921 0.4719 0.91972 0.0
H1280 H 0.4292 0.4192 0.79831 0.0
H1281 H 0.30159 0.41096 0.78908 0.0
H1282 H 0.43009 0.44085 0.89874 0.0
H1283 H 0.44647 0.40113 0.88438 0.0
H1284 H 0.45936 0.4363 0.85671 0.0
H1285 H 0.26097 0.40657 0.84154 0.0
H1286 H 0.28514 0.38737 0.88173 0.0
H1287 H 0.27856 0.43072 0.88101 0.0
H1288 H 0.37358 0.35321 0.97816 0.0
H1289 H 0.34261 0.45401 0.99244 0.0
H1290 H 0.40212 0.35471 0.88638 0.0
H1291 H 0.34963 0.34831 0.88073 0.0
H1292 H 0.37664 0.32837 0.91878 0.0
H1293 H 0.33484 0.47295 0.88864 0.0
H1294 H 0.36401 0.48841 0.92785 0.0
H1295 H 0.312 0.48147 0.93332 0.0
C1296 C 0.30856 0.28749 0.57391 0.0
C1297 C 0.31927 0.31758 0.55823 0.0
C1298 C 0.28407 0.26552 0.55373 0.0
C1299 C 0.26854 0.27448 0.51766 0.0
C1300 C 0.27909 0.30504 0.50188 0.0
C1301 C 0.30495 0.32597 0.52208 0.0
C1302 C 0.27482 0.23273 0.57101 0.0
C1303 C 0.26221 0.31601 0.46412 0.0
C1304 C 0.23088 0.20887 0.44978 0.0
C1305 C 0.19 0.2084 0.45717 0.0
C1306 C 0.25684 0.22986 0.46964 0.0
C1307 C 0.24128 0.25188 0.4965 0.0
C1308 C 0.19975 0.25198 0.50341 0.0
C1309 C 0.1747 0.22969 0.48424 0.0
C1310 C 0.301 0.22794 0.46247 0.0
C1311 C 0.18178 0.27573 0.53094 0.0
H1312 H 0.31967 0.28103 0.6019 0.0
H1313 H 0.3127 0.34951 0.51024 0.0
H1314 H 0.24243 0.2308 0.57629 0.0
H1315 H 0.28262 0.2129 0.5511 0.0
H1316 H 0.29125 0.22869 0.59815 0.0
H1317 H 0.27251 0.34083 0.45624 0.0
H1318 H 0.27097 0.29869 0.44166 0.0
H1319 H 0.22917 0.31606 0.46491 0.0
H1320 H 0.2428 0.19194 0.42929 0.0
H1321 H 0.14306 0.22927 0.48991 0.0
H1322 H 0.31745 0.22308 0.48938 0.0
H1323 H 0.31183 0.25161 0.45143 0.0
H1324 H 0.30846 0.20847 0.4419 0.0
H1325 H 0.19366 0.27097 0.55987 0.0
H1326 H 0.14876 0.27402 0.53141 0.0
H1327 H 0.1902 0.30107 0.52338 0.0
C1328 C 0.94503 0.96128 0.5427 0.0
C1329 C 0.93663 0.97276 0.57907 0.0
C1330 C 0.96954 0.97902 0.51826 0.0
C1331 C 0.98739 0.00848 0.53087 0.0
C1332 C 0.97949 0.01996 0.56785 0.0
C1333 C 0.95358 1.00229 0.59124 0.0
C1334 C 0.97604 0.96632 0.47877 0.0
C1335 C 0.99895 0.05062 0.58293 0.0
C1336 C 0.0814 0.03399 0.4795 0.0
C1337 C 0.06763 0.05979 0.45667 0.0
C1338 C 0.05588 0.01772 0.5044 0.0
C1339 C 0.01513 0.02667 0.50564 0.0
C1340 C 1.00089 0.05238 0.48212 0.0
C1341 C 0.02747 0.06903 0.45845 0.0
C1342 C 0.0727 0.99122 0.52975 0.0
C1343 C 0.95747 0.06202 0.48155 0.0
H1344 H 0.93156 0.93868 0.53294 0.0
H1345 H 0.94724 0.01119 0.61935 0.0
H1346 H 0.96811 0.98543 0.45768 0.0
H1347 H 0.00796 0.96033 0.47504 0.0
H1348 H 0.95809 0.94413 0.47252 0.0
H1349 H 0.99044 0.05591 0.61251 0.0
H1350 H 0.03185 0.04817 0.5819 0.0
H1351 H 0.99051 0.07179 0.56495 0.0
H1352 H 0.11257 0.02711 0.47871 0.0
H1353 H 0.0167 0.08895 0.44084 0.0
H1354 H 0.05832 0.96754 0.52292 0.0
H1355 H 0.06619 0.99679 0.55972 0.0
H1356 H 0.10544 0.98841 0.52688 0.0
H1357 H 0.9388 0.04064 0.4737 0.0
H1358 H 0.95101 0.08215 0.46127 0.0
H1359 H 0.94842 0.06989 0.51013 0.0
C1360 C 0.33174 0.98954 0.7261 0.0
C1361 C 0.31662 0.96193 0.70735 0.0
C1362 C 0.30804 1.00771 0.75082 0.0
C1363 C 0.26776 0.9987 0.75605 0.0
C1364 C 0.25208 0.97117 0.73656 0.0
C1365 C 0.27691 0.95278 0.71295 0.0
C1366 C 0.32633 0.03627 0.77179 0.0
C1367 C 0.20901 0.9613 0.74039 0.0
C1368 C 0.2137 0.02919 0.84342 0.0
C1369 C 0.19496 0.05743 0.82951 0.0
C1370 C 0.23777 0.00996 0.81996 0.0
C1371 C 0.24199 0.01854 0.78136 0.0
C1372 C 0.22236 0.04669 0.76709 0.0
C1373 C 0.1997 0.06606 0.79146 0.0
C1374 C 0.25919 0.98076 0.83662 0.0
C1375 C 0.22503 0.05626 0.72596 0.0
H1376 H 0.36262 0.9964 0.72237 0.0
H1377 H 0.26513 0.93145 0.6985 0.0
H1378 H 0.3107 0.05916 0.76374 0.0
H1379 H 0.32277 0.03299 0.8027 0.0
H1380 H 0.35853 0.03921 0.76588 0.0
H1381 H 0.20116 0.93982 0.7226 0.0
H1382 H 0.20273 0.95534 0.77029 0.0
H1383 H 0.18932 0.98197 0.73212 0.0
H1384 H 0.21016 0.02251 0.87283 0.0
H1385 H 0.18481 0.08764 0.78042 0.0
H1386 H 0.29178 0.98339 0.83271 0.0
H1387 H 0.24973 0.95822 0.82165 0.0
H1388 H 0.25344 0.97771 0.86726 0.0
H1389 H 0.25632 0.06208 0.71901 0.0
H1390 H 0.20617 0.07777 0.71886 0.0
H1391 H 0.21561 0.03553 0.70771 0.0
C1392 C 0.92728 0.30125 0.74352 0.0
C1393 C 0.94296 0.32045 0.71458 0.0
C1394 C 0.95129 0.27837 0.76303 0.0
C1395 C 0.99231 0.27574 0.75449 0.0
C1396 C 0.00839 0.29582 0.72589 0.0
C1397 C 0.98332 0.31742 0.70575 0.0
C1398 C 0.93261 0.25662 0.79229 0.0
C1399 C 0.05217 0.29479 0.71682 0.0
C1400 C 0.06068 0.23723 0.82943 0.0
C1401 C 0.06816 0.20652 0.81368 0.0
C1402 C 0.0367 0.26025 0.81016 0.0
C1403 C 0.01836 0.25177 0.7751 0.0
C1404 C 0.02525 0.22043 0.75955 0.0
C1405 C 0.05072 0.19844 0.77866 0.0
C1406 C 0.03141 0.29376 0.82708 0.0
C1407 C 0.0052 0.20991 0.72301 0.0
H1408 H 0.896 0.30353 0.75018 0.0
H1409 H 0.99552 0.33261 0.68365 0.0
H1410 H 0.93769 0.23062 0.78499 0.0
H1411 H 0.9468 0.26091 0.82038 0.0
H1412 H 0.90003 0.26082 0.79456 0.0
H1413 H 0.06042 0.31343 0.69551 0.0
H1414 H 0.07032 0.29888 0.74292 0.0
H1415 H 0.06015 0.27035 0.70581 0.0
H1416 H 0.07429 0.24347 0.8565 0.0
H1417 H 0.05606 0.17448 0.76676 0.0
H1418 H 0.99957 0.29804 0.83326 0.0
H1419 H 0.04053 0.3127 0.8065 0.0
H1420 H 0.04914 0.29699 0.85362 0.0
H1421 H 0.97241 0.21264 0.72517 0.0
H1422 H 0.01204 0.18416 0.71573 0.0
H1423 H 0.01489 0.22578 0.69949 0.0
C1424 C 0.80138 0.7959 0.57673 0.0
C1425 C 0.81007 0.8263 0.56069 0.0
C1426 C 0.77729 0.77313 0.5574 0.0
C1427 C 0.76019 0.78147 0.52179 0.0
C1428 C 0.76863 0.81235 0.50563 0.0
C1429 C 0.79409 0.83419 0.525 0.0
C1430 C 0.77035 0.74007 0.57503 0.0
C1431 C 0.75009 0.82259 0.46828 0.0
C1432 C 0.72513 0.71389 0.45539 0.0
C1433 C 0.68456 0.71167 0.46376 0.0
C1434 C 0.75014 0.73618 0.47437 0.0
C1435 C 0.73385 0.7577 0.50135 0.0
C1436 C 0.6926 0.75598 0.50932 0.0
C1437 C 0.66857 0.73246 0.49097 0.0
C1438 C 0.79413 0.73621 0.46606 0.0
C1439 C 0.67383 0.77911 0.53704 0.0
H1440 H 0.81388 0.78976 0.60431 0.0
H1441 H 0.80041 0.8579 0.51284 0.0
H1442 H 0.73822 0.73679 0.58077 0.0
H1443 H 0.77908 0.72051 0.55511 0.0
H1444 H 0.78743 0.73681 0.60195 0.0
H1445 H 0.75856 0.84783 0.46019 0.0
H1446 H 0.75939 0.80568 0.44561 0.0
H1447 H 0.71713 0.82118 0.46983 0.0
H1448 H 0.7376 0.69745 0.43467 0.0
H1449 H 0.63715 0.73077 0.49729 0.0
H1450 H 0.81162 0.73217 0.49257 0.0
H1451 H 0.80306 0.76029 0.45466 0.0
H1452 H 0.80228 0.71704 0.44537 0.0
H1453 H 0.68682 0.77517 0.56572 0.0
H1454 H 0.64102 0.77592 0.53838 0.0
H1455 H 0.6803 0.80473 0.52896 0.0
C1456 C 0.66926 0.02525 0.3004 0.0
C1457 C 0.6839 0.05227 0.32059 0.0
C1458 C 0.69391 1.00736 0.27628 0.0
C1459 C 0.7346 0.016 0.27319 0.0
C1460 C 0.74972 0.04293 0.29412 0.0
C1461 C 0.72402 0.06109 0.31708 0.0
C1462 C 0.67623 0.97949 0.25365 0.0
C1463 C 0.79315 0.05233 0.29263 0.0
C1464 C 0.80368 0.94886 0.23906 0.0
C1465 C 0.81068 0.95842 0.20166 0.0
C1466 C 0.77983 0.96779 0.26284 0.0
C1467 C 0.76134 0.99644 0.24855 0.0
C1468 C 0.76779 1.00593 0.21057 0.0
C1469 C 0.79299 0.98711 0.18777 0.0
C1470 C 0.77475 0.95726 0.30341 0.0
C1471 C 0.74765 0.03571 0.19386 0.0
H1472 H 0.63809 0.01868 0.30258 0.0
H1473 H 0.73542 0.08193 0.33274 0.0
H1474 H 0.68145 0.98341 0.22308 0.0
H1475 H 0.69104 0.95625 0.26172 0.0
H1476 H 0.64368 0.97683 0.25796 0.0
H1477 H 0.80014 0.074 0.31038 0.0
H1478 H 0.81191 0.03159 0.30252 0.0
H1479 H 0.80157 0.05772 0.2631 0.0
H1480 H 0.81774 0.92692 0.25008 0.0
H1481 H 0.79827 0.9945 0.15885 0.0
H1482 H 0.74299 0.9517 0.30864 0.0
H1483 H 0.78357 0.97741 0.32277 0.0
H1484 H 0.79281 0.93533 0.31068 0.0
H1485 H 0.71485 0.03337 0.19622 0.0
H1486 H 0.75498 0.03936 0.16364 0.0
H1487 H 0.75672 0.05782 0.20989 0.0
C1488 C 0.94833 0.78099 0.2004 0.0
C1489 C 0.93989 0.81117 0.21703 0.0
C1490 C 0.97226 0.75783 0.21936 0.0
C1491 C 0.98948 0.76564 0.25509 0.0
C1492 C 0.98168 0.79647 0.27156 0.0
C1493 C 0.95631 0.81863 0.25263 0.0
C1494 C 0.97856 0.72482 0.20147 0.0
C1495 C 1.00048 0.80621 0.30896 0.0
C1496 C 0.02176 0.69844 0.32322 0.0
C1497 C 0.06249 0.69575 0.31588 0.0
C1498 C 0.9975 0.72045 0.30293 0.0
C1499 C 0.01477 0.74126 0.27573 0.0
C1500 C 0.05614 0.73889 0.26858 0.0
C1501 C 0.0794 0.7156 0.28822 0.0
C1502 C 0.95334 0.72124 0.31043 0.0
C1503 C 0.07594 0.76139 0.24078 0.0
H1504 H 0.93547 0.77525 0.17287 0.0
H1505 H 0.95019 0.8422 0.2652 0.0
H1506 H 0.01071 0.72079 0.19649 0.0
H1507 H 0.96859 0.7053 0.22092 0.0
H1508 H 0.96209 0.72225 0.17412 0.0
H1509 H 0.99334 0.83179 0.31677 0.0
H1510 H 0.98998 0.78982 0.33168 0.0
H1511 H 0.03334 0.80354 0.30776 0.0
H1512 H 0.00868 0.68274 0.34438 0.0
H1513 H 0.11099 0.71355 0.28277 0.0
H1514 H 0.93624 0.71784 0.28358 0.0
H1515 H 0.94491 0.74536 0.32202 0.0
H1516 H 0.94426 0.70203 0.33073 0.0
H1517 H 0.06266 0.75799 0.21213 0.0
H1518 H 0.10856 0.75711 0.23934 0.0
H1519 H 0.07075 0.78718 0.24895 0.0
C1520 C 0.33176 0.79415 0.04004 0.0
C1521 C 0.31458 0.81411 0.06741 0.0
C1522 C 0.30904 0.77012 0.02116 0.0
C1523 C 0.26785 0.76705 0.02874 0.0
C1524 C 0.25027 0.78784 0.05577 0.0
C1525 C 0.27406 0.81065 0.07534 0.0
C1526 C 0.32923 0.7477 0.99356 0.0
C1527 C 0.20624 0.78632 0.06366 0.0
C1528 C 0.20253 0.72587 0.95371 0.0
C1529 C 0.19511 0.69551 0.9704 0.0
C1530 C 0.22564 0.74957 0.97261 0.0
C1531 C 0.24305 0.74219 1.0084 0.0
C1532 C 0.23625 0.71121 0.02498 0.0
C1533 C 0.21168 0.68846 1.00608 0.0
C1534 C 0.23091 0.78267 0.95455 0.0
C1535 C 0.25531 0.70195 0.06245 0.0
H1536 H 0.36319 0.79677 0.03414 0.0
H1537 H 0.26075 0.8264 0.09628 0.0
H1538 H 0.32445 0.72188 1.00189 0.0
H1539 H 0.31593 0.75088 0.96487 0.0
H1540 H 0.36178 0.7523 0.99211 0.0
H1541 H 0.19686 0.80535 0.08403 0.0
H1542 H 0.18881 0.78947 0.03695 0.0
H1543 H 0.19851 0.76204 0.07532 0.0
H1544 H 0.18948 0.73135 0.92617 0.0
H1545 H 0.20628 0.6648 0.01877 0.0
H1546 H 0.2629 0.78725 0.94933 0.0
H1547 H 0.22056 0.80204 0.974 0.0
H1548 H 0.21418 0.78492 0.9273 0.0
H1549 H 0.2881 0.70508 0.06116 0.0
H1550 H 0.24876 0.67631 0.07051 0.0
H1551 H 0.24449 0.7183 0.08503 0.0
C1552 C 0.04686 0.52034 0.94181 0.0
C1553 C 0.06552 0.54857 0.95573 0.0
C1554 C 0.02097 0.50211 0.96457 0.0
C1555 C 0.01476 0.51172 1.00255 0.0
C1556 C 0.03433 0.53984 0.0169 0.0
C1557 C 0.05888 0.5582 0.99315 0.0
C1558 C 0.99972 0.47291 0.9478 0.0
C1559 C 0.02956 0.55044 0.05745 0.0
C1560 C 0.92124 0.48528 0.05387 0.0
C1561 C 0.93466 0.45778 0.074 0.0
C1562 C 0.94678 0.50262 0.03 0.0
C1563 C 0.98713 0.49289 0.0271 0.0
C1564 C 1.00106 0.46553 0.04809 0.0
C1565 C 0.97448 0.44796 0.07077 0.0
C1566 C 0.93035 0.53102 1.00734 0.0
C1567 C 0.04411 0.45495 0.0468 0.0
H1568 H 0.05183 0.51293 0.91285 0.0
H1569 H 0.07366 0.5798 1.00418 0.0
H1570 H 0.00773 0.45057 0.96394 0.0
H1571 H 0.96701 0.4762 0.94993 0.0
H1572 H 0.00712 0.46903 0.91764 0.0
H1573 H 0.04855 0.57179 0.06481 0.0
H1574 H 0.99804 0.55696 0.06257 0.0
H1575 H 0.03739 0.53001 0.07683 0.0
H1576 H 0.89031 0.49263 0.05581 0.0
H1577 H 0.98494 0.42673 0.08634 0.0
H1578 H 0.93541 0.52696 0.97678 0.0
H1579 H 0.94617 0.5538 0.01539 0.0
H1580 H 0.89794 0.53466 1.01163 0.0
H1581 H 0.05195 0.44823 0.0175 0.0
H1582 H 0.05046 0.43376 0.0656 0.0
H1583 H 0.06378 0.4755 0.05542 0.0
C1584 C 0.22105 0.55815 0.32283 0.0
C1585 C 0.18197 0.54741 0.32874 0.0
C1586 C 0.24634 0.54143 0.29805 0.0
C1587 C 0.23184 0.51388 0.27784 0.0
C1588 C 0.19226 0.50314 0.28354 0.0
C1589 C 0.16805 0.51973 0.30929 0.0
C1590 C 0.28868 0.55311 0.29377 0.0
C1591 C 0.1752 0.47445 0.26191 0.0
C1592 C 0.28583 0.48781 0.18846 0.0
C1593 C 0.30656 0.46007 0.20111 0.0
C1594 C 0.26112 0.50545 0.21299 0.0
C1595 C 0.25821 0.49575 0.25138 0.0
C1596 C 0.27986 0.46815 0.26438 0.0
C1597 C 0.30318 0.45039 0.239 0.0
C1598 C 0.23765 0.53413 0.1977 0.0
C1599 C 0.2786 0.45745 0.30522 0.0
H1600 H 0.23196 0.57951 0.33782 0.0
H1601 H 0.13766 0.51164 0.31325 0.0
H1602 H 0.30968 0.53344 0.30242 0.0
H1603 H 0.29451 0.55886 0.26373 0.0
H1604 H 0.29519 0.57516 0.31106 0.0
H1605 H 0.14341 0.46998 0.26843 0.0
H1606 H 0.17773 0.47874 0.23106 0.0
H1607 H 0.19243 0.45203 0.26874 0.0
H1608 H 0.28829 0.49531 0.15919 0.0
H1609 H 0.31959 0.42921 0.2491 0.0
H1610 H 0.24597 0.55663 0.21335 0.0
H1611 H 0.20535 0.53003 0.20197 0.0
H1612 H 0.24267 0.53825 0.1671 0.0
H1613 H 0.28716 0.47806 0.32402 0.0
H1614 H 0.29884 0.43656 0.31127 0.0
H1615 H 0.24785 0.4502 0.31251 0.0
C1616 C 0.80977 0.27632 0.07448 0.0
C1617 C 0.817 0.30716 0.05897 0.0
C1618 C 0.78758 0.25283 0.05423 0.0
C1619 C 0.77076 0.26097 0.0184 0.0
C1620 C 0.77772 0.29233 1.00289 0.0
C1621 C 0.80147 0.31482 0.02306 0.0
C1622 C 0.78218 0.21931 0.07115 0.0
C1623 C 0.75913 0.30247 0.96551 0.0
C1624 C 0.73709 0.19445 0.94976 0.0
C1625 C 0.69661 0.19162 0.95813 0.0
C1626 C 0.7618 0.21642 0.9697 0.0
C1627 C 0.74518 0.23697 0.99754 0.0
C1628 C 0.704 0.23462 1.00542 0.0
C1629 C 0.68039 0.21144 0.98618 0.0
C1630 C 0.80578 0.21722 0.96144 0.0
C1631 C 0.68477 0.25684 0.03386 0.0
H1632 H 0.82198 0.27044 0.10224 0.0
H1633 H 0.80668 0.33889 1.01136 0.0
H1634 H 0.75028 0.21509 0.07714 0.0
H1635 H 0.79144 0.20032 0.05072 0.0
H1636 H 0.79968 0.21609 0.09785 0.0
H1637 H 0.76676 0.32798 0.95777 0.0
H1638 H 0.76916 0.28602 0.94269 0.0
H1639 H 0.72622 0.30029 0.96681 0.0
H1640 H 0.74966 0.17878 0.92833 0.0
H1641 H 0.64899 0.20929 0.99245 0.0
H1642 H 0.82334 0.21307 0.98789 0.0
H1643 H 0.81417 0.24159 0.95051 0.0
H1644 H 0.81434 0.19848 0.94038 0.0
H1645 H 0.69798 0.25254 0.06238 0.0
H1646 H 0.65206 0.25306 0.03525 0.0
H1647 H 0.69054 0.28273 0.02646 0.0
C1648 C 0.7962 0.49487 0.69067 0.0
C1649 C 0.81527 0.46619 0.70275 0.0
C1650 C 0.77132 0.51241 0.71512 0.0
C1651 C 0.76681 0.50174 0.753 0.0
C1652 C 0.78677 0.4731 0.76542 0.0
C1653 C 0.81007 0.45536 0.73997 0.0
C1654 C 0.74945 0.5421 0.70029 0.0
C1655 C 0.784 0.46141 0.8058 0.0
C1656 C 0.73118 0.56435 0.8249 0.0
C1657 C 0.69158 0.5547 0.83002 0.0
C1658 C 0.75625 0.547 0.8005 0.0
C1659 C 0.74085 0.52017 0.77955 0.0
C1660 C 0.70065 0.51066 0.78433 0.0
C1661 C 0.67676 0.52765 0.81001 0.0
C1662 C 0.79925 0.55728 0.79734 0.0
C1663 C 0.68257 0.48296 0.7617 0.0
H1664 H 0.80011 0.50321 0.66187 0.0
H1665 H 0.82527 0.43342 0.74955 0.0
H1666 H 0.71694 0.53912 0.70436 0.0
H1667 H 0.75891 0.56406 0.71639 0.0
H1668 H 0.75486 0.54644 0.6698 0.0
H1669 H 0.80296 0.43966 0.81147 0.0
H1670 H 0.79325 0.48121 0.82547 0.0
H1671 H 0.75272 0.45511 0.81226 0.0
H1672 H 0.74266 0.58529 0.84032 0.0
H1673 H 0.64591 0.52052 0.81338 0.0
H1674 H 0.80542 0.56491 0.76794 0.0
H1675 H 0.8191 0.5363 0.80403 0.0
H1676 H 0.807 0.57778 0.81666 0.0
H1677 H 0.68595 0.48772 0.73102 0.0
H1678 H 0.65043 0.4795 0.76754 0.0
H1679 H 0.69848 0.45985 0.76824 0.0
C1680 C 0.47685 0.95185 0.07175 0.0
C1681 C 0.43762 0.96243 0.07708 0.0
C1682 C 0.50229 0.96852 0.04706 0.0
C1683 C 0.48773 0.99575 0.02621 0.0
C1684 C 0.44794 1.00626 0.03127 0.0
C1685 C 0.42362 0.98982 0.05709 0.0
C1686 C 0.54487 0.95719 0.04358 0.0
C1687 C 0.43074 0.03446 1.0088 0.0
C1688 C 0.55909 0.05883 0.98631 0.0
C1689 C 0.56345 0.04809 0.94895 0.0
C1690 C 0.53534 0.04162 1.01189 0.0
C1691 C 0.51416 0.01359 0.99952 0.0
C1692 C 0.51789 1.00297 0.96155 0.0
C1693 C 0.54313 0.01998 0.93693 0.0
C1694 C 0.53335 0.05323 0.05233 0.0
C1695 C 0.49483 0.97388 0.94683 0.0
H1696 H 0.48776 0.9307 0.0872 0.0
H1697 H 0.39308 0.99772 0.06063 0.0
H1698 H 0.55131 0.95121 1.01373 0.0
H1699 H 0.56543 0.97714 0.05226 0.0
H1700 H 0.5514 0.93537 0.06129 0.0
H1701 H 0.3988 0.03875 1.0149 0.0
H1702 H 0.44758 0.05712 0.01525 0.0
H1703 H 0.43366 0.02967 0.97809 0.0
H1704 H 0.57521 0.08031 0.99588 0.0
H1705 H 0.54638 0.01168 0.90805 0.0
H1706 H 0.542 0.03314 0.07188 0.0
H1707 H 0.50237 0.06032 0.05903 0.0
H1708 H 0.55316 0.07447 0.05792 0.0
H1709 H 0.50346 0.95167 0.96295 0.0
H1710 H 0.49996 0.96939 0.91633 0.0
H1711 H 0.46246 0.97774 0.95099 0.0
C1712 C 0.44837 0.28523 0.20047 0.0
C1713 C 0.43918 0.31562 0.21618 0.0
C1714 C 0.47306 0.26298 0.22004 0.0
C1715 C 0.49022 0.27193 0.25543 0.0
C1716 C 0.4816 0.30295 0.27099 0.0
C1717 C 0.45556 0.32419 0.25148 0.0
C1718 C 0.48034 0.22973 0.2031 0.0
C1719 C 0.50027 0.31388 0.308 0.0
C1720 C 0.52575 0.20625 0.32421 0.0
C1721 C 0.56638 0.20424 0.31611 0.0
C1722 C 0.50052 0.22774 0.30421 0.0
C1723 C 0.51666 0.24866 0.27648 0.0
C1724 C 0.55797 0.2472 0.26883 0.0
C1725 C 0.58222 0.22444 0.28821 0.0
C1726 C 0.45647 0.22757 0.31226 0.0
C1727 C 0.57657 0.26979 0.24037 0.0
H1728 H 0.43555 0.27862 0.17319 0.0
H1729 H 0.44886 0.34792 0.26336 0.0
H1730 H 0.51255 0.2264 0.1978 0.0
H1731 H 0.4714 0.21042 0.22328 0.0
H1732 H 0.46359 0.22613 0.17605 0.0
H1733 H 0.49207 0.33936 0.31528 0.0
H1734 H 0.49074 0.29757 0.3312 0.0
H1735 H 0.53322 0.31217 0.30655 0.0
H1736 H 0.51342 0.19016 0.34538 0.0
H1737 H 0.61368 0.2228 0.28202 0.0
H1738 H 0.43917 0.22306 0.28575 0.0
H1739 H 0.44723 0.25175 0.32313 0.0
H1740 H 0.4484 0.20864 0.3333 0.0
H1741 H 0.56364 0.26514 0.21182 0.0
H1742 H 0.60941 0.26673 0.23916 0.0
H1743 H 0.56986 0.29555 0.2476 0.0
C1744 C 0.47557 0.81055 0.71062 0.0
C1745 C 0.43471 0.81105 0.71808 0.0
C1746 C 0.50165 0.78987 0.73076 0.0
C1747 C 0.48625 0.76817 0.75806 0.0
C1748 C 0.44479 0.76827 0.76534 0.0
C1749 C 0.41957 0.79028 0.74578 0.0
C1750 C 0.54573 0.79155 0.72309 0.0
C1751 C 0.42702 0.74481 0.79332 0.0
C1752 C 0.55095 0.69417 0.78135 0.0
C1753 C 0.56676 0.70251 0.81694 0.0
C1754 C 0.52391 0.71493 0.76233 0.0
C1755 C 0.51365 0.7453 0.7787 0.0
C1756 C 0.53038 0.75411 0.81432 0.0
C1757 C 0.55607 0.73227 0.83339 0.0
C1758 C 0.50579 0.7041 0.72504 0.0
C1759 C 0.52149 0.78675 0.8321 0.0
H1760 H 0.48737 0.82707 0.68959 0.0
H1761 H 0.38794 0.79072 0.75147 0.0
H1762 H 0.56262 0.79596 0.74985 0.0
H1763 H 0.55612 0.76792 0.71157 0.0
H1764 H 0.55312 0.81118 0.70267 0.0
H1765 H 0.3941 0.74714 0.79471 0.0
H1766 H 0.43451 0.71935 0.78543 0.0
H1767 H 0.43992 0.74919 0.82194 0.0
H1768 H 0.55868 0.67085 0.76896 0.0
H1769 H 0.56831 0.73864 0.86098 0.0
H1770 H 0.51457 0.72111 0.70225 0.0
H1771 H 0.47279 0.70473 0.72648 0.0
H1772 H 0.51519 0.67904 0.71717 0.0
H1773 H 0.52943 0.80673 0.81239 0.0
H1774 H 0.5381 0.79039 0.85921 0.0
H1775 H 0.48916 0.78888 0.83751 0.0
C1776 C 0.5239 0.56863 0.45986 0.0
C1777 C 0.56415 0.56022 0.4564 0.0
C1778 C 0.49861 0.55056 0.48341 0.0
C1779 C 0.51437 0.52431 0.50521 0.0
C1780 C 0.55526 0.51623 0.50229 0.0
C1781 C 0.57942 0.53387 0.47742 0.0
C1782 C 0.45496 0.55929 0.48456 0.0
C1783 C 0.57369 0.48924 0.52589 0.0
C1784 C 0.45625 0.49617 0.59139 0.0
C1785 C 0.43975 0.46673 0.57847 0.0
C1786 C 0.48104 0.51498 0.56809 0.0
C1787 C 0.48808 0.50477 0.53045 0.0
C1788 C 0.47065 0.47537 0.51711 0.0
C1789 C 0.44739 0.45644 0.54148 0.0
C1790 C 0.50019 0.54548 0.58392 0.0
C1791 C 0.47614 0.46407 0.47691 0.0
H1792 H 0.51207 0.58903 0.44364 0.0
H1793 H 0.61072 0.52768 0.47533 0.0
H1794 H 0.43664 0.53772 0.47667 0.0
H1795 H 0.44677 0.56633 0.51368 0.0
H1796 H 0.44717 0.57974 0.46513 0.0
H1797 H 0.60636 0.48721 0.52189 0.0
H1798 H 0.56808 0.49366 0.55629 0.0
H1799 H 0.55976 0.46552 0.51842 0.0
H1800 H 0.45041 0.50415 0.61999 0.0
H1801 H 0.43416 0.43393 0.53118 0.0
H1802 H 0.49033 0.56708 0.56732 0.0
H1803 H 0.53306 0.54383 0.58154 0.0
H1804 H 0.49279 0.54953 0.61405 0.0
H1805 H 0.46691 0.48366 0.4569 0.0
H1806 H 0.45864 0.44172 0.47027 0.0
H1807 H 0.50805 0.45888 0.47194 0.0
loop_
_geom_bond_atom_site_label_1
_geom_bond_atom_site_label_2
_geom_bond_distance
_geom_bond_site_symmetry_2
_ccdc_geom_bond_type
Co0 N4 2.148 . S
Co0 N10 2.128 . S
Co0 N20 2.194 . S
Co0 O25 2.351 . S
Co0 O26 2.155 . S
Co0 O27 2.096 . S
C1 N4 1.301 . S
C1 N5 1.328 . S
C1 H6 0.930 . S
C2 C3 1.333 . S
C2 N4 1.317 . S
C2 H7 0.930 . S
C3 C2 1.333 . S
C3 N5 1.350 . S
C3 H29 0.931 . S
N4 Co0 2.148 . S
N4 C1 1.301 . S
N4 C2 1.317 . S
N5 C1 1.328 . S
N5 C3 1.350 . S
H6 C1 0.930 . S
H7 C2 0.930 . S
C8 O9 1.224 . S
C8 O27 1.247 . S
O9 C8 1.224 . S
N10 Co0 2.128 . S
N10 C11 1.355 . S
N10 C13 1.311 . S
C11 N10 1.355 . S
C11 C12 1.363 . S
C11 H23 0.929 . S
C12 C11 1.363 . S
C12 N14 1.375 . S
C12 H30 0.940 . S
C13 N10 1.311 . S
C13 N14 1.347 . S
C13 H24 0.929 . S
N14 C12 1.375 . S
N14 C13 1.347 . S
C15 C18 1.365 . S
C15 N20 1.328 . S
C15 H21 0.929 . S
C16 C17 1.362 . S
C16 C19 1.378 . S
C16 H31 0.929 . S
C17 C16 1.362 . S
C17 C18 1.366 . S
C18 C15 1.365 . S
C18 C17 1.366 . S
C18 H32 0.930 . S
C19 C16 1.378 . S
C19 N20 1.315 . S
C19 H22 0.930 . S
N20 Co0 2.194 . S
N20 C15 1.328 . S
N20 C19 1.315 . S
H21 C15 0.929 . S
H22 C19 0.930 . S
H23 C11 0.929 . S
H24 C13 0.929 . S
O25 Co0 2.351 . S
O25 C28 1.244 . S
O26 Co0 2.155 . S
O26 C28 1.240 . S
O27 Co0 2.096 . S
O27 C8 1.247 . S
C28 O25 1.244 . S
C28 O26 1.240 . S
H29 C3 0.931 . S
H30 C12 0.940 . S
H31 C16 0.929 . S
H32 C18 0.930 . S
Co33 N37 2.148 . S
Co33 N43 2.128 . S
Co33 N53 2.194 . S
Co33 O58 2.351 . S
Co33 O59 2.155 . S
Co33 O60 2.096 . S
C34 N37 1.301 . S
C34 N38 1.329 1_455 S
C34 H39 0.930 . S
C35 C36 1.333 . S
C35 N37 1.317 . S
C35 H40 0.930 . S
C36 C35 1.333 . S
C36 N38 1.351 1_455 S
C36 H62 0.931 . S
N37 Co33 2.148 . S
N37 C34 1.301 . S
N37 C35 1.317 . S
N38 C34 1.329 1_655 S
N38 C36 1.351 1_655 S
H39 C34 0.930 . S
H40 C35 0.930 . S
C41 O42 1.224 . S
C41 O60 1.247 . S
O42 C41 1.224 . S
N43 Co33 2.128 . S
N43 C44 1.355 . S
N43 C46 1.311 . S
C44 N43 1.355 . S
C44 C45 1.363 . S
C44 H56 0.929 . S
C45 C44 1.363 . S
C45 N47 1.375 . S
C45 H63 0.931 . S
C46 N43 1.311 . S
C46 N47 1.347 . S
C46 H57 0.929 . S
N47 C45 1.375 . S
N47 C46 1.347 . S
C48 C51 1.365 . S
C48 N53 1.328 . S
C48 H54 0.929 . S
C49 C50 1.362 . S
C49 C52 1.378 . S
C49 H64 0.929 . S
C50 C49 1.362 . S
C50 C51 1.366 . S
C51 C48 1.365 . S
C51 C50 1.366 . S
C51 H65 0.930 . S
C52 C49 1.378 . S
C52 N53 1.315 . S
C52 H55 0.930 . S
N53 Co33 2.194 . S
N53 C48 1.328 . S
N53 C52 1.315 . S
H54 C48 0.929 . S
H55 C52 0.930 . S
H56 C44 0.929 . S
H57 C46 0.929 . S
O58 Co33 2.351 . S
O58 C61 1.244 . S
O59 Co33 2.155 . S
O59 C61 1.240 . S
O60 Co33 2.096 . S
O60 C41 1.247 . S
C61 O58 1.244 . S
C61 O59 1.240 . S
H62 C36 0.931 . S
H63 C45 0.931 . S
H64 C49 0.929 . S
H65 C51 0.930 . S
Co66 N70 2.148 . S
Co66 N76 2.128 . S
Co66 N86 2.194 . S
Co66 O91 2.351 . S
Co66 O92 2.155 . S
Co66 O93 2.096 . S
C67 N70 1.301 . S
C67 N71 1.328 . S
C67 H72 0.930 . S
C68 C69 1.333 . S
C68 N70 1.317 . S
C68 H73 0.930 . S
C69 C68 1.333 . S
C69 N71 1.350 . S
C69 H95 0.931 . S
N70 Co66 2.148 . S
N70 C67 1.301 . S
N70 C68 1.317 . S
N71 C67 1.328 . S
N71 C69 1.350 . S
H72 C67 0.930 . S
H73 C68 0.930 . S
C74 O75 1.224 . S
C74 O93 1.247 . S
O75 C74 1.224 . S
N76 Co66 2.128 . S
N76 C77 1.355 . S
N76 C79 1.311 . S
C77 N76 1.355 . S
C77 C78 1.363 . S
C77 H89 0.929 . S
C78 C77 1.363 . S
C78 N80 1.375 . S
C78 H96 0.940 . S
C79 N76 1.311 . S
C79 N80 1.347 . S
C79 H90 0.929 . S
N80 C78 1.375 . S
N80 C79 1.347 . S
C81 C84 1.365 . S
C81 N86 1.328 . S
C81 H87 0.929 . S
C82 C83 1.362 . S
C82 C85 1.378 . S
C82 H97 0.929 . S
C83 C82 1.362 . S
C83 C84 1.366 . S
C84 C81 1.365 . S
C84 C83 1.366 . S
C84 H98 0.930 . S
C85 C82 1.378 . S
C85 N86 1.315 . S
C85 H88 0.930 . S
N86 Co66 2.194 . S
N86 C81 1.328 . S
N86 C85 1.315 . S
H87 C81 0.929 . S
H88 C85 0.930 . S
H89 C77 0.929 . S
H90 C79 0.929 . S
O91 Co66 2.351 . S
O91 C94 1.244 . S
O92 Co66 2.155 . S
O92 C94 1.240 . S
O93 Co66 2.096 . S
O93 C74 1.247 . S
C94 O91 1.244 . S
C94 O92 1.240 . S
H95 C69 0.931 . S
H96 C78 0.940 . S
H97 C82 0.929 . S
H98 C84 0.930 . S
Co99 N103 2.148 . S
Co99 N109 2.128 . S
Co99 N119 2.194 . S
Co99 O124 2.351 . S
Co99 O125 2.155 . S
Co99 O126 2.096 . S
C100 N103 1.301 . S
C100 N104 1.329 1_655 S
C100 H105 0.930 . S
C101 C102 1.333 . S
C101 N103 1.317 . S
C101 H106 0.930 . S
C102 C101 1.333 . S
C102 N104 1.351 1_655 S
C102 H128 0.931 . S
N103 Co99 2.148 . S
N103 C100 1.301 . S
N103 C101 1.317 . S
N104 C100 1.329 1_455 S
N104 C102 1.351 1_455 S
H105 C100 0.930 . S
H106 C101 0.930 . S
C107 O108 1.224 . S
C107 O126 1.247 . S
O108 C107 1.224 . S
N109 Co99 2.128 . S
N109 C110 1.355 . S
N109 C112 1.311 . S
C110 N109 1.355 . S
C110 C111 1.363 . S
C110 H122 0.929 . S
C111 C110 1.363 . S
C111 N113 1.375 . S
C111 H129 0.931 . S
C112 N109 1.311 . S
C112 N113 1.347 . S
C112 H123 0.929 . S
N113 C111 1.375 . S
N113 C112 1.347 . S
C114 C117 1.365 . S
C114 N119 1.328 . S
C114 H120 0.929 . S
C115 C116 1.362 . S
C115 C118 1.378 . S
C115 H130 0.929 . S
C116 C115 1.362 . S
C116 C117 1.366 . S
C117 C114 1.365 . S
C117 C116 1.366 . S
C117 H131 0.930 . S
C118 C115 1.378 . S
C118 N119 1.315 . S
C118 H121 0.930 . S
N119 Co99 2.194 . S
N119 C114 1.328 . S
N119 C118 1.315 . S
H120 C114 0.929 . S
H121 C118 0.930 . S
H122 C110 0.929 . S
H123 C112 0.929 . S
O124 Co99 2.351 . S
O124 C127 1.244 . S
O125 Co99 2.155 . S
O125 C127 1.240 . S
O126 Co99 2.096 . S
O126 C107 1.247 . S
C127 O124 1.244 . S
C127 O125 1.240 . S
H128 C102 0.931 . S
H129 C111 0.931 . S
H130 C115 0.929 . S
H131 C117 0.930 . S
Co132 N136 2.148 . S
Co132 N142 2.128 . S
Co132 N152 2.194 . S
Co132 O157 2.351 . S
Co132 O158 2.155 . S
Co132 O159 2.096 . S
C133 N136 1.301 . S
C133 N137 1.328 . S
C133 H138 0.930 . S
C134 C135 1.333 . S
C134 N136 1.317 . S
C134 H139 0.930 . S
C135 C134 1.333 . S
C135 N137 1.350 . S
C135 H161 0.931 . S
N136 Co132 2.148 . S
N136 C133 1.301 . S
N136 C134 1.317 . S
N137 C133 1.328 . S
N137 C135 1.350 . S
H138 C133 0.930 . S
H139 C134 0.930 . S
C140 O141 1.224 . S
C140 O159 1.247 . S
O141 C140 1.224 . S
N142 Co132 2.128 . S
N142 C143 1.355 . S
N142 C145 1.311 . S
C143 N142 1.355 . S
C143 C144 1.363 . S
C143 H155 0.929 . S
C144 C143 1.363 . S
C144 N146 1.375 . S
C144 H162 0.940 . S
C145 N142 1.311 . S
C145 N146 1.347 . S
C145 H156 0.929 . S
N146 C144 1.375 . S
N146 C145 1.347 . S
C147 C150 1.365 . S
C147 N152 1.328 . S
C147 H153 0.929 . S
C148 C149 1.362 . S
C148 C151 1.378 . S
C148 H163 0.929 . S
C149 C148 1.362 . S
C149 C150 1.366 . S
C150 C147 1.365 . S
C150 C149 1.366 . S
C150 H164 0.930 . S
C151 C148 1.378 . S
C151 N152 1.315 . S
C151 H154 0.930 . S
N152 Co132 2.194 . S
N152 C147 1.328 . S
N152 C151 1.315 . S
H153 C147 0.929 . S
H154 C151 0.930 . S
H155 C143 0.929 . S
H156 C145 0.929 . S
O157 Co132 2.351 . S
O157 C160 1.244 . S
O158 Co132 2.155 . S
O158 C160 1.240 . S
O159 Co132 2.096 . S
O159 C140 1.247 . S
C160 O157 1.244 . S
C160 O158 1.240 . S
H161 C135 0.931 . S
H162 C144 0.940 . S
H163 C148 0.929 . S
H164 C150 0.930 . S
Co165 N169 2.148 . S
Co165 N175 2.128 . S
Co165 N185 2.194 . S
Co165 O190 2.351 . S
Co165 O191 2.155 . S
Co165 O192 2.096 . S
C166 N169 1.301 . S
C166 N170 1.329 1_455 S
C166 H171 0.930 . S
C167 C168 1.333 . S
C167 N169 1.317 . S
C167 H172 0.930 . S
C168 C167 1.333 . S
C168 N170 1.351 1_455 S
C168 H194 0.931 . S
N169 Co165 2.148 . S
N169 C166 1.301 . S
N169 C167 1.317 . S
N170 C166 1.329 1_655 S
N170 C168 1.351 1_655 S
H171 C166 0.930 . S
H172 C167 0.930 . S
C173 O174 1.224 . S
C173 O192 1.247 . S
O174 C173 1.224 . S
N175 Co165 2.128 . S
N175 C176 1.355 . S
N175 C178 1.311 . S
C176 N175 1.355 . S
C176 C177 1.363 . S
C176 H188 0.929 . S
C177 C176 1.363 . S
C177 N179 1.375 . S
C177 H195 0.931 . S
C178 N175 1.311 . S
C178 N179 1.347 . S
C178 H189 0.929 . S
N179 C177 1.375 . S
N179 C178 1.347 . S
C180 C183 1.365 . S
C180 N185 1.328 . S
C180 H186 0.929 . S
C181 C182 1.362 . S
C181 C184 1.378 . S
C181 H196 0.929 . S
C182 C181 1.362 . S
C182 C183 1.366 . S
C183 C180 1.365 . S
C183 C182 1.366 . S
C183 H197 0.930 . S
C184 C181 1.378 . S
C184 N185 1.315 . S
C184 H187 0.930 . S
N185 Co165 2.194 . S
N185 C180 1.328 . S
N185 C184 1.315 . S
H186 C180 0.929 . S
H187 C184 0.930 . S
H188 C176 0.929 . S
H189 C178 0.929 . S
O190 Co165 2.351 . S
O190 C193 1.244 . S
O191 Co165 2.155 . S
O191 C193 1.240 . S
O192 Co165 2.096 . S
O192 C173 1.247 . S
C193 O190 1.244 . S
C193 O191 1.240 . S
H194 C168 0.931 . S
H195 C177 0.931 . S
H196 C181 0.929 . S
H197 C183 0.930 . S
Co198 N202 2.148 . S
Co198 N208 2.128 . S
Co198 N218 2.194 . S
Co198 O223 2.351 . S
Co198 O224 2.155 . S
Co198 O225 2.096 . S
C199 N202 1.301 . S
C199 N203 1.328 . S
C199 H204 0.930 . S
C200 C201 1.333 . S
C200 N202 1.317 . S
C200 H205 0.930 . S
C201 C200 1.333 . S
C201 N203 1.350 . S
C201 H227 0.931 . S
N202 Co198 2.148 . S
N202 C199 1.301 . S
N202 C200 1.317 . S
N203 C199 1.328 . S
N203 C201 1.350 . S
H204 C199 0.930 . S
H205 C200 0.930 . S
C206 O207 1.224 . S
C206 O225 1.247 . S
O207 C206 1.224 . S
N208 Co198 2.128 . S
N208 C209 1.355 . S
N208 C211 1.311 . S
C209 N208 1.355 . S
C209 C210 1.363 . S
C209 H221 0.929 . S
C210 C209 1.363 . S
C210 N212 1.375 . S
C210 H228 0.940 . S
C211 N208 1.311 . S
C211 N212 1.347 . S
C211 H222 0.929 . S
N212 C210 1.375 . S
N212 C211 1.347 . S
C213 C216 1.365 . S
C213 N218 1.328 . S
C213 H219 0.929 . S
C214 C215 1.362 . S
C214 C217 1.378 . S
C214 H229 0.929 . S
C215 C214 1.362 . S
C215 C216 1.366 . S
C216 C213 1.365 . S
C216 C215 1.366 . S
C216 H230 0.930 . S
C217 C214 1.378 . S
C217 N218 1.315 . S
C217 H220 0.930 . S
N218 Co198 2.194 . S
N218 C213 1.328 . S
N218 C217 1.315 . S
H219 C213 0.929 . S
H220 C217 0.930 . S
H221 C209 0.929 . S
H222 C211 0.929 . S
O223 Co198 2.351 . S
O223 C226 1.244 . S
O224 Co198 2.155 . S
O224 C226 1.240 . S
O225 Co198 2.096 . S
O225 C206 1.247 . S
C226 O223 1.244 . S
C226 O224 1.240 . S
H227 C201 0.931 . S
H228 C210 0.940 . S
H229 C214 0.929 . S
H230 C216 0.930 . S
Co231 N235 2.148 . S
Co231 N241 2.128 . S
Co231 N251 2.194 . S
Co231 O256 2.351 . S
Co231 O257 2.155 . S
Co231 O258 2.096 . S
C232 N235 1.301 . S
C232 N236 1.329 1_655 S
C232 H237 0.930 . S
C233 C234 1.333 . S
C233 N235 1.317 . S
C233 H238 0.930 . S
C234 C233 1.333 . S
C234 N236 1.351 1_655 S
C234 H260 0.931 . S
N235 Co231 2.148 . S
N235 C232 1.301 . S
N235 C233 1.317 . S
N236 C232 1.329 1_455 S
N236 C234 1.351 1_455 S
H237 C232 0.930 . S
H238 C233 0.930 . S
C239 O240 1.224 . S
C239 O258 1.247 . S
O240 C239 1.224 . S
N241 Co231 2.128 . S
N241 C242 1.355 . S
N241 C244 1.311 . S
C242 N241 1.355 . S
C242 C243 1.363 . S
C242 H254 0.929 . S
C243 C242 1.363 . S
C243 N245 1.375 . S
C243 H261 0.931 . S
C244 N241 1.311 . S
C244 N245 1.347 . S
C244 H255 0.929 . S
N245 C243 1.375 . S
N245 C244 1.347 . S
C246 C249 1.365 . S
C246 N251 1.328 . S
C246 H252 0.929 . S
C247 C248 1.362 . S
C247 C250 1.378 . S
C247 H262 0.929 . S
C248 C247 1.362 . S
C248 C249 1.366 . S
C249 C246 1.365 . S
C249 C248 1.366 . S
C249 H263 0.930 . S
C250 C247 1.378 . S
C250 N251 1.315 . S
C250 H253 0.930 . S
N251 Co231 2.194 . S
N251 C246 1.328 . S
N251 C250 1.315 . S
H252 C246 0.929 . S
H253 C250 0.930 . S
H254 C242 0.929 . S
H255 C244 0.929 . S
O256 Co231 2.351 . S
O256 C259 1.244 . S
O257 Co231 2.155 . S
O257 C259 1.240 . S
O258 Co231 2.096 . S
O258 C239 1.247 . S
C259 O256 1.244 . S
C259 O257 1.240 . S
H260 C234 0.931 . S
H261 C243 0.931 . S
H262 C247 0.929 . S
H263 C249 0.930 . S
Co264 N268 2.148 . S
Co264 N274 2.128 . S
Co264 N284 2.194 . S
Co264 O289 2.351 . S
Co264 O290 2.155 . S
Co264 O291 2.096 . S
C265 N268 1.301 . S
C265 N269 1.328 . S
C265 H270 0.930 . S
C266 C267 1.333 . S
C266 N268 1.317 . S
C266 H271 0.930 . S
C267 C266 1.333 . S
C267 N269 1.350 . S
C267 H293 0.931 . S
N268 Co264 2.148 . S
N268 C265 1.301 . S
N268 C266 1.317 . S
N269 C265 1.328 . S
N269 C267 1.350 . S
H270 C265 0.930 . S
H271 C266 0.930 . S
C272 O273 1.224 . S
C272 O291 1.247 . S
O273 C272 1.224 . S
N274 Co264 2.128 . S
N274 C275 1.355 . S
N274 C277 1.311 . S
C275 N274 1.355 . S
C275 C276 1.363 . S
C275 H287 0.929 . S
C276 C275 1.363 . S
C276 N278 1.375 . S
C276 H294 0.931 . S
C277 N274 1.311 . S
C277 N278 1.347 . S
C277 H288 0.929 . S
N278 C276 1.375 . S
N278 C277 1.347 . S
C279 C282 1.365 . S
C279 N284 1.328 . S
C279 H285 0.929 . S
C280 C281 1.362 . S
C280 C283 1.378 . S
C280 H295 0.929 . S
C281 C280 1.362 . S
C281 C282 1.366 . S
C282 C279 1.365 . S
C282 C281 1.366 . S
C282 H296 0.930 . S
C283 C280 1.378 . S
C283 N284 1.315 . S
C283 H286 0.930 . S
N284 Co264 2.194 . S
N284 C279 1.328 . S
N284 C283 1.315 . S
H285 C279 0.929 . S
H286 C283 0.930 . S
H287 C275 0.929 . S
H288 C277 0.929 . S
O289 Co264 2.351 . S
O289 C292 1.244 . S
O290 Co264 2.155 . S
O290 C292 1.240 . S
O291 Co264 2.096 . S
O291 C272 1.247 . S
C292 O289 1.244 . S
C292 O290 1.240 . S
H293 C267 0.931 . S
H294 C276 0.931 . S
H295 C280 0.929 . S
H296 C282 0.930 . S
Co297 N301 2.148 . S
Co297 N307 2.128 . S
Co297 N317 2.194 . S
Co297 O322 2.351 . S
Co297 O323 2.155 . S
Co297 O324 2.096 . S
C298 N301 1.301 . S
C298 N302 1.328 . S
C298 H303 0.930 . S
C299 C300 1.333 . S
C299 N301 1.317 . S
C299 H304 0.930 . S
C300 C299 1.333 . S
C300 N302 1.350 . S
C300 H326 0.931 . S
N301 Co297 2.148 . S
N301 C298 1.301 . S
N301 C299 1.317 . S
N302 C298 1.328 . S
N302 C300 1.350 . S
H303 C298 0.930 . S
H304 C299 0.930 . S
C305 O306 1.224 . S
C305 O324 1.247 . S
O306 C305 1.224 . S
N307 Co297 2.128 . S
N307 C308 1.355 . S
N307 C310 1.311 . S
C308 N307 1.355 . S
C308 C309 1.363 . S
C308 H320 0.929 . S
C309 C308 1.363 . S
C309 N311 1.375 . S
C309 H327 0.931 . S
C310 N307 1.311 . S
C310 N311 1.347 . S
C310 H321 0.929 . S
N311 C309 1.375 . S
N311 C310 1.347 . S
C312 C315 1.365 . S
C312 N317 1.328 . S
C312 H318 0.929 . S
C313 C314 1.362 . S
C313 C316 1.378 . S
C313 H328 0.929 . S
C314 C313 1.362 . S
C314 C315 1.366 . S
C315 C312 1.365 . S
C315 C314 1.366 . S
C315 H329 0.930 . S
C316 C313 1.378 . S
C316 N317 1.315 . S
C316 H319 0.930 . S
N317 Co297 2.194 . S
N317 C312 1.328 . S
N317 C316 1.315 . S
H318 C312 0.929 . S
H319 C316 0.930 . S
H320 C308 0.929 . S
H321 C310 0.929 . S
O322 Co297 2.351 . S
O322 C325 1.244 . S
O323 Co297 2.155 . S
O323 C325 1.240 . S
O324 Co297 2.096 . S
O324 C305 1.247 . S
C325 O322 1.244 . S
C325 O323 1.240 . S
H326 C300 0.931 . S
H327 C309 0.931 . S
H328 C313 0.929 . S
H329 C315 0.930 . S
Co330 N334 2.148 . S
Co330 N340 2.128 . S
Co330 N350 2.194 . S
Co330 O355 2.351 . S
Co330 O356 2.155 . S
Co330 O357 2.096 . S
C331 N334 1.301 . S
C331 N335 1.328 . S
C331 H336 0.930 . S
C332 C333 1.333 . S
C332 N334 1.317 . S
C332 H337 0.930 . S
C333 C332 1.333 . S
C333 N335 1.350 . S
C333 H359 0.931 . S
N334 Co330 2.148 . S
N334 C331 1.301 . S
N334 C332 1.317 . S
N335 C331 1.328 . S
N335 C333 1.350 . S
H336 C331 0.930 . S
H337 C332 0.930 . S
C338 O339 1.224 . S
C338 O357 1.247 . S
O339 C338 1.224 . S
N340 Co330 2.128 . S
N340 C341 1.355 . S
N340 C343 1.311 . S
C341 N340 1.355 . S
C341 C342 1.363 . S
C341 H353 0.929 . S
C342 C341 1.363 . S
C342 N344 1.375 . S
C342 H360 0.931 . S
C343 N340 1.311 . S
C343 N344 1.347 . S
C343 H354 0.929 . S
N344 C342 1.375 . S
N344 C343 1.347 . S
C345 C348 1.365 . S
C345 N350 1.328 . S
C345 H351 0.929 . S
C346 C347 1.362 . S
C346 C349 1.378 . S
C346 H361 0.929 . S
C347 C346 1.362 . S
C347 C348 1.366 . S
C348 C345 1.365 . S
C348 C347 1.366 . S
C348 H362 0.930 . S
C349 C346 1.378 . S
C349 N350 1.315 . S
C349 H352 0.930 . S
N350 Co330 2.194 . S
N350 C345 1.328 . S
N350 C349 1.315 . S
H351 C345 0.929 . S
H352 C349 0.930 . S
H353 C341 0.929 . S
H354 C343 0.929 . S
O355 Co330 2.351 . S
O355 C358 1.244 . S
O356 Co330 2.155 . S
O356 C358 1.240 . S
O357 Co330 2.096 . S
O357 C338 1.247 . S
C358 O355 1.244 . S
C358 O356 1.240 . S
H359 C333 0.931 . S
H360 C342 0.931 . S
H361 C346 0.929 . S
H362 C348 0.930 . S
Co363 N367 2.148 . S
Co363 N373 2.128 . S
Co363 N383 2.194 . S
Co363 O388 2.351 . S
Co363 O389 2.155 . S
Co363 O390 2.096 . S
C364 N367 1.301 . S
C364 N368 1.328 . S
C364 H369 0.930 . S
C365 C366 1.333 . S
C365 N367 1.317 . S
C365 H370 0.930 . S
C366 C365 1.333 . S
C366 N368 1.350 . S
C366 H392 0.931 . S
N367 Co363 2.148 . S
N367 C364 1.301 . S
N367 C365 1.317 . S
N368 C364 1.328 . S
N368 C366 1.350 . S
H369 C364 0.930 . S
H370 C365 0.930 . S
C371 O372 1.224 . S
C371 O390 1.247 . S
O372 C371 1.224 . S
N373 Co363 2.128 . S
N373 C374 1.355 . S
N373 C376 1.311 . S
C374 N373 1.355 . S
C374 C375 1.363 . S
C374 H386 0.929 . S
C375 C374 1.363 . S
C375 N377 1.375 . S
C375 H393 0.931 . S
C376 N373 1.311 . S
C376 N377 1.347 . S
C376 H387 0.929 . S
N377 C375 1.375 . S
N377 C376 1.347 . S
C378 C381 1.365 . S
C378 N383 1.328 . S
C378 H384 0.929 . S
C379 C380 1.362 . S
C379 C382 1.378 . S
C379 H394 0.929 . S
C380 C379 1.362 . S
C380 C381 1.366 . S
C381 C378 1.365 . S
C381 C380 1.366 . S
C381 H395 0.930 . S
C382 C379 1.378 . S
C382 N383 1.315 . S
C382 H385 0.930 . S
N383 Co363 2.194 . S
N383 C378 1.328 . S
N383 C382 1.315 . S
H384 C378 0.929 . S
H385 C382 0.930 . S
H386 C374 0.929 . S
H387 C376 0.929 . S
O388 Co363 2.351 . S
O388 C391 1.244 . S
O389 Co363 2.155 . S
O389 C391 1.240 . S
O390 Co363 2.096 . S
O390 C371 1.247 . S
C391 O388 1.244 . S
C391 O389 1.240 . S
H392 C366 0.931 . S
H393 C375 0.931 . S
H394 C379 0.929 . S
H395 C381 0.930 . S
Co396 N400 2.148 . S
Co396 N406 2.128 . S
Co396 N416 2.194 . S
Co396 O421 2.351 . S
Co396 O422 2.155 . S
Co396 O423 2.096 . S
C397 N400 1.301 . S
C397 N401 1.328 . S
C397 H402 0.930 . S
C398 C399 1.333 . S
C398 N400 1.317 . S
C398 H403 0.930 . S
C399 C398 1.333 . S
C399 N401 1.350 . S
C399 H425 0.931 . S
N400 Co396 2.148 . S
N400 C397 1.301 . S
N400 C398 1.317 . S
N401 C397 1.328 . S
N401 C399 1.350 . S
H402 C397 0.930 . S
H403 C398 0.930 . S
C404 O405 1.224 . S
C404 O423 1.247 . S
O405 C404 1.224 . S
N406 Co396 2.128 . S
N406 C407 1.355 . S
N406 C409 1.311 . S
C407 N406 1.355 . S
C407 C408 1.363 . S
C407 H419 0.929 . S
C408 C407 1.363 . S
C408 N410 1.375 . S
C408 H426 0.931 . S
C409 N406 1.311 . S
C409 N410 1.347 . S
C409 H420 0.929 . S
N410 C408 1.375 . S
N410 C409 1.347 . S
C411 C414 1.365 . S
C411 N416 1.328 . S
C411 H417 0.929 . S
C412 C413 1.362 . S
C412 C415 1.378 . S
C412 H427 0.929 . S
C413 C412 1.362 . S
C413 C414 1.366 . S
C414 C411 1.365 . S
C414 C413 1.366 . S
C414 H428 0.930 . S
C415 C412 1.378 . S
C415 N416 1.315 . S
C415 H418 0.930 . S
N416 Co396 2.194 . S
N416 C411 1.328 . S
N416 C415 1.315 . S
H417 C411 0.929 . S
H418 C415 0.930 . S
H419 C407 0.929 . S
H420 C409 0.929 . S
O421 Co396 2.351 . S
O421 C424 1.244 . S
O422 Co396 2.155 . S
O422 C424 1.240 . S
O423 Co396 2.096 . S
O423 C404 1.247 . S
C424 O421 1.244 . S
C424 O422 1.240 . S
H425 C399 0.931 . S
H426 C408 0.931 . S
H427 C412 0.929 . S
H428 C414 0.930 . S
Co429 N433 2.148 . S
Co429 N439 2.128 . S
Co429 N449 2.194 . S
Co429 O454 2.351 . S
Co429 O455 2.155 . S
Co429 O456 2.096 . S
C430 N433 1.301 . S
C430 N434 1.328 . S
C430 H435 0.930 . S
C431 C432 1.333 . S
C431 N433 1.317 . S
C431 H436 0.930 . S
C432 C431 1.333 . S
C432 N434 1.350 . S
C432 H458 0.931 . S
N433 Co429 2.148 . S
N433 C430 1.301 . S
N433 C431 1.317 . S
N434 C430 1.328 . S
N434 C432 1.350 . S
H435 C430 0.930 . S
H436 C431 0.930 . S
C437 O438 1.224 . S
C437 O456 1.247 . S
O438 C437 1.224 . S
N439 Co429 2.128 . S
N439 C440 1.355 . S
N439 C442 1.311 . S
C440 N439 1.355 . S
C440 C441 1.363 . S
C440 H452 0.929 . S
C441 C440 1.363 . S
C441 N443 1.375 . S
C441 H459 0.931 . S
C442 N439 1.311 . S
C442 N443 1.347 . S
C442 H453 0.929 . S
N443 C441 1.375 . S
N443 C442 1.347 . S
C444 C447 1.365 . S
C444 N449 1.328 . S
C444 H450 0.929 . S
C445 C446 1.362 . S
C445 C448 1.378 . S
C445 H460 0.929 . S
C446 C445 1.362 . S
C446 C447 1.366 . S
C447 C444 1.365 . S
C447 C446 1.366 . S
C447 H461 0.930 . S
C448 C445 1.378 . S
C448 N449 1.315 . S
C448 H451 0.930 . S
N449 Co429 2.194 . S
N449 C444 1.328 . S
N449 C448 1.315 . S
H450 C444 0.929 . S
H451 C448 0.930 . S
H452 C440 0.929 . S
H453 C442 0.929 . S
O454 Co429 2.351 . S
O454 C457 1.244 . S
O455 Co429 2.155 . S
O455 C457 1.240 . S
O456 Co429 2.096 . S
O456 C437 1.247 . S
C457 O454 1.244 . S
C457 O455 1.240 . S
H458 C432 0.931 . S
H459 C441 0.931 . S
H460 C445 0.929 . S
H461 C447 0.930 . S
Co462 N466 2.148 . S
Co462 N472 2.128 . S
Co462 N482 2.194 . S
Co462 O487 2.351 . S
Co462 O488 2.155 . S
Co462 O489 2.096 . S
C463 N466 1.301 . S
C463 N467 1.328 . S
C463 H468 0.930 . S
C464 C465 1.333 . S
C464 N466 1.317 . S
C464 H469 0.930 . S
C465 C464 1.333 . S
C465 N467 1.350 . S
C465 H491 0.931 . S
N466 Co462 2.148 . S
N466 C463 1.301 . S
N466 C464 1.317 . S
N467 C463 1.328 . S
N467 C465 1.350 . S
H468 C463 0.930 . S
H469 C464 0.930 . S
C470 O471 1.224 . S
C470 O489 1.247 . S
O471 C470 1.224 . S
N472 Co462 2.128 . S
N472 C473 1.355 . S
N472 C475 1.311 . S
C473 N472 1.355 . S
C473 C474 1.363 . S
C473 H485 0.929 . S
C474 C473 1.363 . S
C474 N476 1.375 . S
C474 H492 0.931 . S
C475 N472 1.311 . S
C475 N476 1.347 . S
C475 H486 0.929 . S
N476 C474 1.375 . S
N476 C475 1.347 . S
C477 C480 1.365 . S
C477 N482 1.328 . S
C477 H483 0.929 . S
C478 C479 1.362 . S
C478 C481 1.378 . S
C478 H493 0.929 . S
C479 C478 1.362 . S
C479 C480 1.366 . S
C480 C477 1.365 . S
C480 C479 1.366 . S
C480 H494 0.930 . S
C481 C478 1.378 . S
C481 N482 1.315 . S
C481 H484 0.930 . S
N482 Co462 2.194 . S
N482 C477 1.328 . S
N482 C481 1.315 . S
H483 C477 0.929 . S
H484 C481 0.930 . S
H485 C473 0.929 . S
H486 C475 0.929 . S
O487 Co462 2.351 . S
O487 C490 1.244 . S
O488 Co462 2.155 . S
O488 C490 1.240 . S
O489 Co462 2.096 . S
O489 C470 1.247 . S
C490 O487 1.244 . S
C490 O488 1.240 . S
H491 C465 0.931 . S
H492 C474 0.931 . S
H493 C478 0.929 . S
H494 C480 0.930 . S
Co495 N499 2.148 . S
Co495 N505 2.128 . S
Co495 N515 2.194 . S
Co495 O520 2.351 . S
Co495 O521 2.155 . S
Co495 O522 2.096 . S
C496 N499 1.301 . S
C496 N500 1.328 . S
C496 H501 0.930 . S
C497 C498 1.333 . S
C497 N499 1.317 . S
C497 H502 0.930 . S
C498 C497 1.333 . S
C498 N500 1.350 . S
C498 H524 0.931 . S
N499 Co495 2.148 . S
N499 C496 1.301 . S
N499 C497 1.317 . S
N500 C496 1.328 . S
N500 C498 1.350 . S
H501 C496 0.930 . S
H502 C497 0.930 . S
C503 O504 1.224 . S
C503 O522 1.247 . S
O504 C503 1.224 . S
N505 Co495 2.128 . S
N505 C506 1.355 . S
N505 C508 1.311 . S
C506 N505 1.355 . S
C506 C507 1.363 . S
C506 H518 0.929 . S
C507 C506 1.363 . S
C507 N509 1.375 . S
C507 H525 0.931 . S
C508 N505 1.311 . S
C508 N509 1.347 . S
C508 H519 0.929 . S
N509 C507 1.375 . S
N509 C508 1.347 . S
C510 C513 1.365 . S
C510 N515 1.328 . S
C510 H516 0.929 . S
C511 C512 1.362 . S
C511 C514 1.378 . S
C511 H526 0.929 . S
C512 C511 1.362 . S
C512 C513 1.366 . S
C513 C510 1.365 . S
C513 C512 1.366 . S
C513 H527 0.930 . S
C514 C511 1.378 . S
C514 N515 1.315 . S
C514 H517 0.930 . S
N515 Co495 2.194 . S
N515 C510 1.328 . S
N515 C514 1.315 . S
H516 C510 0.929 . S
H517 C514 0.930 . S
H518 C506 0.929 . S
H519 C508 0.929 . S
O520 Co495 2.351 . S
O520 C523 1.244 . S
O521 Co495 2.155 . S
O521 C523 1.240 . S
O522 Co495 2.096 . S
O522 C503 1.247 . S
C523 O520 1.244 . S
C523 O521 1.240 . S
H524 C498 0.931 . S
H525 C507 0.931 . S
H526 C511 0.929 . S
H527 C513 0.930 . S
C528 C529 1.391 . S
C528 C530 1.394 . S
C528 H544 0.931 . S
C529 C528 1.391 . S
C529 C533 1.376 . S
C530 C528 1.394 . S
C530 C531 1.369 . S
C530 C534 1.531 . S
C531 C530 1.369 . S
C531 C532 1.410 . S
C531 C539 1.503 . S
C532 C531 1.410 . S
C532 C533 1.392 . S
C532 C535 1.511 . S
C533 C529 1.376 . S
C533 C532 1.392 . S
C533 H545 0.929 . S
C534 C530 1.531 . S
C534 H546 0.960 . S
C534 H547 0.962 . S
C534 H548 0.960 . S
C535 C532 1.511 . S
C535 H549 0.961 . S
C535 H550 0.961 . S
C535 H551 0.961 . S
C536 C537 1.370 . S
C536 C538 1.363 . S
C536 H552 0.931 . S
C537 C536 1.370 . S
C537 C541 1.408 . S
C538 C536 1.363 . S
C538 C539 1.370 . S
C538 C542 1.524 . S
C539 C531 1.503 . S
C539 C538 1.370 . S
C539 C540 1.403 . S
C540 C539 1.403 . S
C540 C541 1.404 . S
C540 C543 1.539 . S
C541 C537 1.408 . S
C541 C540 1.404 . S
C541 H553 0.930 . S
C542 C538 1.524 . S
C542 H554 0.956 . S
C542 H555 0.961 . S
C542 H556 0.961 . S
C543 C540 1.539 . S
C543 H557 0.958 . S
C543 H558 0.961 . S
C543 H559 0.960 . S
H544 C528 0.931 . S
H545 C533 0.929 . S
H546 C534 0.960 . S
H547 C534 0.962 . S
H548 C534 0.960 . S
H549 C535 0.961 . S
H550 C535 0.961 . S
H551 C535 0.961 . S
H552 C536 0.931 . S
H553 C541 0.930 . S
H554 C542 0.956 . S
H555 C542 0.961 . S
H556 C542 0.961 . S
H557 C543 0.958 . S
H558 C543 0.961 . S
H559 C543 0.960 . S
C560 C561 1.391 . S
C560 C562 1.394 . S
C560 H576 0.931 . S
C561 C560 1.391 . S
C561 C565 1.376 . S
C562 C560 1.394 . S
C562 C563 1.369 . S
C562 C566 1.531 . S
C563 C562 1.369 . S
C563 C564 1.410 . S
C563 C571 1.503 . S
C564 C563 1.410 . S
C564 C565 1.392 . S
C564 C567 1.511 . S
C565 C561 1.376 . S
C565 C564 1.392 . S
C565 H577 0.929 . S
C566 C562 1.531 . S
C566 H578 0.960 . S
C566 H579 0.962 . S
C566 H580 0.960 . S
C567 C564 1.511 . S
C567 H581 0.961 . S
C567 H582 0.961 . S
C567 H583 0.961 . S
C568 C569 1.370 . S
C568 C570 1.363 . S
C568 H584 0.931 . S
C569 C568 1.370 . S
C569 C573 1.408 . S
C570 C568 1.363 . S
C570 C571 1.370 . S
C570 C574 1.524 . S
C571 C563 1.503 . S
C571 C570 1.370 . S
C571 C572 1.403 . S
C572 C571 1.403 . S
C572 C573 1.404 . S
C572 C575 1.539 . S
C573 C569 1.408 . S
C573 C572 1.404 . S
C573 H585 0.930 . S
C574 C570 1.524 . S
C574 H586 0.956 . S
C574 H587 0.961 . S
C574 H588 0.961 . S
C575 C572 1.539 . S
C575 H589 0.958 . S
C575 H590 0.961 . S
C575 H591 0.960 . S
H576 C560 0.931 . S
H577 C565 0.929 . S
H578 C566 0.960 . S
H579 C566 0.962 . S
H580 C566 0.960 . S
H581 C567 0.961 . S
H582 C567 0.961 . S
H583 C567 0.961 . S
H584 C568 0.931 . S
H585 C573 0.930 . S
H586 C574 0.956 . S
H587 C574 0.961 . S
H588 C574 0.961 . S
H589 C575 0.958 . S
H590 C575 0.961 . S
H591 C575 0.960 . S
C592 C593 1.391 . S
C592 C594 1.394 . S
C592 H608 0.931 . S
C593 C592 1.391 . S
C593 C597 1.376 . S
C594 C592 1.394 . S
C594 C595 1.369 . S
C594 C598 1.531 . S
C595 C594 1.369 . S
C595 C596 1.410 . S
C595 C603 1.503 . S
C596 C595 1.410 . S
C596 C597 1.392 . S
C596 C599 1.511 . S
C597 C593 1.376 . S
C597 C596 1.392 . S
C597 H609 0.929 . S
C598 C594 1.531 . S
C598 H610 0.960 . S
C598 H611 0.962 . S
C598 H612 0.960 . S
C599 C596 1.511 . S
C599 H613 0.961 . S
C599 H614 0.961 . S
C599 H615 0.961 . S
C600 C601 1.370 . S
C600 C602 1.363 . S
C600 H616 0.931 . S
C601 C600 1.370 . S
C601 C605 1.408 . S
C602 C600 1.363 . S
C602 C603 1.370 . S
C602 C606 1.524 . S
C603 C595 1.503 . S
C603 C602 1.370 . S
C603 C604 1.403 . S
C604 C603 1.403 . S
C604 C605 1.404 . S
C604 C607 1.539 . S
C605 C601 1.408 . S
C605 C604 1.404 . S
C605 H617 0.930 . S
C606 C602 1.524 . S
C606 H618 0.956 . S
C606 H619 0.961 . S
C606 H620 0.961 . S
C607 C604 1.539 . S
C607 H621 0.958 . S
C607 H622 0.961 . S
C607 H623 0.960 . S
H608 C592 0.931 . S
H609 C597 0.929 . S
H610 C598 0.960 . S
H611 C598 0.962 . S
H612 C598 0.960 . S
H613 C599 0.961 . S
H614 C599 0.961 . S
H615 C599 0.961 . S
H616 C600 0.931 . S
H617 C605 0.930 . S
H618 C606 0.956 . S
H619 C606 0.961 . S
H620 C606 0.961 . S
H621 C607 0.958 . S
H622 C607 0.961 . S
H623 C607 0.960 . S
C624 C625 1.391 . S
C624 C626 1.394 . S
C624 H640 0.931 . S
C625 C624 1.391 . S
C625 C629 1.376 . S
C626 C624 1.394 . S
C626 C627 1.369 . S
C626 C630 1.531 . S
C627 C626 1.369 . S
C627 C628 1.410 . S
C627 C635 1.503 . S
C628 C627 1.410 . S
C628 C629 1.392 . S
C628 C631 1.511 . S
C629 C625 1.376 . S
C629 C628 1.392 . S
C629 H641 0.929 . S
C630 C626 1.531 . S
C630 H642 0.960 . S
C630 H643 0.962 . S
C630 H644 0.960 . S
C631 C628 1.511 . S
C631 H645 0.961 . S
C631 H646 0.961 . S
C631 H647 0.961 . S
C632 C633 1.370 . S
C632 C634 1.363 . S
C632 H648 0.931 . S
C633 C632 1.370 . S
C633 C637 1.408 . S
C634 C632 1.363 . S
C634 C635 1.370 . S
C634 C638 1.524 . S
C635 C627 1.503 . S
C635 C634 1.370 . S
C635 C636 1.403 . S
C636 C635 1.403 . S
C636 C637 1.404 . S
C636 C639 1.539 . S
C637 C633 1.408 . S
C637 C636 1.404 . S
C637 H649 0.930 . S
C638 C634 1.524 . S
C638 H650 0.956 . S
C638 H651 0.961 . S
C638 H652 0.961 . S
C639 C636 1.539 . S
C639 H653 0.958 . S
C639 H654 0.961 . S
C639 H655 0.960 . S
H640 C624 0.931 . S
H641 C629 0.929 . S
H642 C630 0.960 . S
H643 C630 0.962 . S
H644 C630 0.960 . S
H645 C631 0.961 . S
H646 C631 0.961 . S
H647 C631 0.961 . S
H648 C632 0.931 . S
H649 C637 0.930 . S
H650 C638 0.956 . S
H651 C638 0.961 . S
H652 C638 0.961 . S
H653 C639 0.958 . S
H654 C639 0.961 . S
H655 C639 0.960 . S
C656 C657 1.391 . S
C656 C658 1.394 . S
C656 H672 0.931 . S
C657 C656 1.391 . S
C657 C661 1.376 . S
C658 C656 1.394 . S
C658 C659 1.369 . S
C658 C662 1.531 . S
C659 C658 1.369 . S
C659 C660 1.410 . S
C659 C667 1.503 . S
C660 C659 1.410 . S
C660 C661 1.392 . S
C660 C663 1.511 . S
C661 C657 1.376 . S
C661 C660 1.392 . S
C661 H673 0.929 . S
C662 C658 1.531 . S
C662 H674 0.960 . S
C662 H675 0.962 . S
C662 H676 0.960 . S
C663 C660 1.511 . S
C663 H677 0.961 . S
C663 H678 0.961 . S
C663 H679 0.961 . S
C664 C665 1.370 . S
C664 C666 1.363 . S
C664 H680 0.931 . S
C665 C664 1.370 . S
C665 C669 1.408 . S
C666 C664 1.363 . S
C666 C667 1.370 . S
C666 C670 1.524 . S
C667 C659 1.503 . S
C667 C666 1.370 . S
C667 C668 1.403 . S
C668 C667 1.403 . S
C668 C669 1.404 . S
C668 C671 1.539 . S
C669 C665 1.408 . S
C669 C668 1.404 . S
C669 H681 0.930 . S
C670 C666 1.524 . S
C670 H682 0.956 . S
C670 H683 0.961 . S
C670 H684 0.961 . S
C671 C668 1.539 . S
C671 H685 0.958 . S
C671 H686 0.961 . S
C671 H687 0.960 . S
H672 C656 0.931 . S
H673 C661 0.929 . S
H674 C662 0.960 . S
H675 C662 0.962 . S
H676 C662 0.960 . S
H677 C663 0.961 . S
H678 C663 0.961 . S
H679 C663 0.961 . S
H680 C664 0.931 . S
H681 C669 0.930 . S
H682 C670 0.956 . S
H683 C670 0.961 . S
H684 C670 0.961 . S
H685 C671 0.958 . S
H686 C671 0.961 . S
H687 C671 0.960 . S
C688 C689 1.391 . S
C688 C690 1.394 . S
C688 H704 0.931 . S
C689 C688 1.391 . S
C689 C693 1.376 . S
C690 C688 1.394 . S
C690 C691 1.369 . S
C690 C694 1.531 . S
C691 C690 1.369 . S
C691 C692 1.410 . S
C691 C699 1.503 . S
C692 C691 1.410 . S
C692 C693 1.392 . S
C692 C695 1.511 . S
C693 C689 1.376 . S
C693 C692 1.392 . S
C693 H705 0.929 . S
C694 C690 1.531 . S
C694 H706 0.960 . S
C694 H707 0.962 . S
C694 H708 0.960 . S
C695 C692 1.511 . S
C695 H709 0.961 . S
C695 H710 0.961 . S
C695 H711 0.961 . S
C696 C697 1.370 . S
C696 C698 1.363 . S
C696 H712 0.931 . S
C697 C696 1.370 . S
C697 C701 1.408 . S
C698 C696 1.363 . S
C698 C699 1.370 . S
C698 C702 1.524 . S
C699 C691 1.503 . S
C699 C698 1.370 . S
C699 C700 1.403 . S
C700 C699 1.403 . S
C700 C701 1.404 . S
C700 C703 1.539 . S
C701 C697 1.408 . S
C701 C700 1.404 . S
C701 H713 0.930 . S
C702 C698 1.524 . S
C702 H714 0.956 . S
C702 H715 0.961 . S
C702 H716 0.961 . S
C703 C700 1.539 . S
C703 H717 0.958 . S
C703 H718 0.961 . S
C703 H719 0.960 . S
H704 C688 0.931 . S
H705 C693 0.929 . S
H706 C694 0.960 . S
H707 C694 0.962 . S
H708 C694 0.960 . S
H709 C695 0.961 . S
H710 C695 0.961 . S
H711 C695 0.961 . S
H712 C696 0.931 . S
H713 C701 0.930 . S
H714 C702 0.956 . S
H715 C702 0.961 . S
H716 C702 0.961 . S
H717 C703 0.958 . S
H718 C703 0.961 . S
H719 C703 0.960 . S
C720 C721 1.391 . S
C720 C722 1.394 . S
C720 H736 0.931 . S
C721 C720 1.391 . S
C721 C725 1.376 . S
C722 C720 1.394 . S
C722 C723 1.369 . S
C722 C726 1.531 . S
C723 C722 1.369 . S
C723 C724 1.410 . S
C723 C731 1.503 . S
C724 C723 1.410 . S
C724 C725 1.392 . S
C724 C727 1.511 . S
C725 C721 1.376 . S
C725 C724 1.392 . S
C725 H737 0.929 . S
C726 C722 1.531 . S
C726 H738 0.960 . S
C726 H739 0.962 . S
C726 H740 0.960 . S
C727 C724 1.511 . S
C727 H741 0.961 . S
C727 H742 0.961 . S
C727 H743 0.961 . S
C728 C729 1.370 . S
C728 C730 1.363 . S
C728 H744 0.931 . S
C729 C728 1.370 . S
C729 C733 1.408 . S
C730 C728 1.363 . S
C730 C731 1.370 . S
C730 C734 1.524 . S
C731 C723 1.503 . S
C731 C730 1.370 . S
C731 C732 1.403 . S
C732 C731 1.403 . S
C732 C733 1.404 . S
C732 C735 1.539 . S
C733 C729 1.408 . S
C733 C732 1.404 . S
C733 H745 0.930 . S
C734 C730 1.524 . S
C734 H746 0.956 . S
C734 H747 0.961 . S
C734 H748 0.961 . S
C735 C732 1.539 . S
C735 H749 0.958 . S
C735 H750 0.961 . S
C735 H751 0.960 . S
H736 C720 0.931 . S
H737 C725 0.929 . S
H738 C726 0.960 . S
H739 C726 0.962 . S
H740 C726 0.960 . S
H741 C727 0.961 . S
H742 C727 0.961 . S
H743 C727 0.961 . S
H744 C728 0.931 . S
H745 C733 0.930 . S
H746 C734 0.956 . S
H747 C734 0.961 . S
H748 C734 0.961 . S
H749 C735 0.958 . S
H750 C735 0.961 . S
H751 C735 0.960 . S
C752 C753 1.391 . S
C752 C754 1.394 . S
C752 H768 0.931 . S
C753 C752 1.391 . S
C753 C757 1.376 . S
C754 C752 1.394 . S
C754 C755 1.369 . S
C754 C758 1.531 . S
C755 C754 1.369 . S
C755 C756 1.410 . S
C755 C763 1.503 . S
C756 C755 1.410 . S
C756 C757 1.392 . S
C756 C759 1.511 . S
C757 C753 1.376 . S
C757 C756 1.392 . S
C757 H769 0.929 . S
C758 C754 1.531 . S
C758 H770 0.960 . S
C758 H771 0.962 . S
C758 H772 0.960 . S
C759 C756 1.511 . S
C759 H773 0.961 . S
C759 H774 0.961 . S
C759 H775 0.961 . S
C760 C761 1.370 . S
C760 C762 1.363 . S
C760 H776 0.931 . S
C761 C760 1.370 . S
C761 C765 1.408 . S
C762 C760 1.363 . S
C762 C763 1.370 . S
C762 C766 1.524 . S
C763 C755 1.503 . S
C763 C762 1.370 . S
C763 C764 1.403 . S
C764 C763 1.403 . S
C764 C765 1.404 . S
C764 C767 1.539 . S
C765 C761 1.408 . S
C765 C764 1.404 . S
C765 H777 0.930 . S
C766 C762 1.524 . S
C766 H778 0.956 . S
C766 H779 0.961 . S
C766 H780 0.961 . S
C767 C764 1.539 . S
C767 H781 0.958 . S
C767 H782 0.961 . S
C767 H783 0.960 . S
H768 C752 0.931 . S
H769 C757 0.929 . S
H770 C758 0.960 . S
H771 C758 0.962 . S
H772 C758 0.960 . S
H773 C759 0.961 . S
H774 C759 0.961 . S
H775 C759 0.961 . S
H776 C760 0.931 . S
H777 C765 0.930 . S
H778 C766 0.956 . S
H779 C766 0.961 . S
H780 C766 0.961 . S
H781 C767 0.958 . S
H782 C767 0.961 . S
H783 C767 0.960 . S
C784 C785 1.391 . S
C784 C786 1.394 . S
C784 H800 0.931 . S
C785 C784 1.391 . S
C785 C789 1.376 . S
C786 C784 1.394 . S
C786 C787 1.369 . S
C786 C790 1.531 . S
C787 C786 1.369 . S
C787 C788 1.410 . S
C787 C795 1.503 . S
C788 C787 1.410 . S
C788 C789 1.392 . S
C788 C791 1.511 . S
C789 C785 1.376 . S
C789 C788 1.392 . S
C789 H801 0.929 . S
C790 C786 1.531 . S
C790 H802 0.960 . S
C790 H803 0.962 . S
C790 H804 0.960 . S
C791 C788 1.511 . S
C791 H805 0.961 . S
C791 H806 0.961 . S
C791 H807 0.961 . S
C792 C793 1.370 . S
C792 C794 1.363 . S
C792 H808 0.931 . S
C793 C792 1.370 . S
C793 C797 1.408 . S
C794 C792 1.363 . S
C794 C795 1.370 . S
C794 C798 1.524 . S
C795 C787 1.503 . S
C795 C794 1.370 . S
C795 C796 1.403 . S
C796 C795 1.403 . S
C796 C797 1.404 . S
C796 C799 1.539 . S
C797 C793 1.408 . S
C797 C796 1.404 . S
C797 H809 0.930 . S
C798 C794 1.524 . S
C798 H810 0.956 . S
C798 H811 0.961 . S
C798 H812 0.961 . S
C799 C796 1.539 . S
C799 H813 0.958 . S
C799 H814 0.961 . S
C799 H815 0.960 . S
H800 C784 0.931 . S
H801 C789 0.929 . S
H802 C790 0.960 . S
H803 C790 0.962 . S
H804 C790 0.960 . S
H805 C791 0.961 . S
H806 C791 0.961 . S
H807 C791 0.961 . S
H808 C792 0.931 . S
H809 C797 0.930 . S
H810 C798 0.956 . S
H811 C798 0.961 . S
H812 C798 0.961 . S
H813 C799 0.958 . S
H814 C799 0.961 . S
H815 C799 0.960 . S
C816 C817 1.391 . S
C816 C818 1.394 . S
C816 H832 0.931 . S
C817 C816 1.391 . S
C817 C821 1.376 . S
C818 C816 1.394 . S
C818 C819 1.369 . S
C818 C822 1.531 . S
C819 C818 1.369 . S
C819 C820 1.410 . S
C819 C827 1.503 . S
C820 C819 1.410 . S
C820 C821 1.392 . S
C820 C823 1.511 . S
C821 C817 1.376 . S
C821 C820 1.392 . S
C821 H833 0.929 . S
C822 C818 1.531 . S
C822 H834 0.960 . S
C822 H835 0.962 . S
C822 H836 0.960 . S
C823 C820 1.511 . S
C823 H837 0.961 . S
C823 H838 0.961 . S
C823 H839 0.961 . S
C824 C825 1.370 . S
C824 C826 1.363 . S
C824 H840 0.931 . S
C825 C824 1.370 . S
C825 C829 1.408 . S
C826 C824 1.363 . S
C826 C827 1.370 . S
C826 C830 1.524 . S
C827 C819 1.503 . S
C827 C826 1.370 . S
C827 C828 1.403 . S
C828 C827 1.403 . S
C828 C829 1.404 . S
C828 C831 1.539 . S
C829 C825 1.408 . S
C829 C828 1.404 . S
C829 H841 0.930 . S
C830 C826 1.524 . S
C830 H842 0.956 . S
C830 H843 0.961 . S
C830 H844 0.961 . S
C831 C828 1.539 . S
C831 H845 0.958 . S
C831 H846 0.961 . S
C831 H847 0.960 . S
H832 C816 0.931 . S
H833 C821 0.929 . S
H834 C822 0.960 . S
H835 C822 0.962 . S
H836 C822 0.960 . S
H837 C823 0.961 . S
H838 C823 0.961 . S
H839 C823 0.961 . S
H840 C824 0.931 . S
H841 C829 0.930 . S
H842 C830 0.956 . S
H843 C830 0.961 . S
H844 C830 0.961 . S
H845 C831 0.958 . S
H846 C831 0.961 . S
H847 C831 0.960 . S
C848 C849 1.391 . S
C848 C850 1.394 . S
C848 H864 0.931 . S
C849 C848 1.391 . S
C849 C853 1.376 . S
C850 C848 1.394 . S
C850 C851 1.369 . S
C850 C854 1.531 . S
C851 C850 1.369 . S
C851 C852 1.410 . S
C851 C859 1.503 . S
C852 C851 1.410 . S
C852 C853 1.392 . S
C852 C855 1.511 . S
C853 C849 1.376 . S
C853 C852 1.392 . S
C853 H865 0.929 . S
C854 C850 1.531 . S
C854 H866 0.960 . S
C854 H867 0.962 . S
C854 H868 0.960 . S
C855 C852 1.511 . S
C855 H869 0.961 . S
C855 H870 0.961 . S
C855 H871 0.961 . S
C856 C857 1.370 . S
C856 C858 1.363 . S
C856 H872 0.931 . S
C857 C856 1.370 . S
C857 C861 1.408 . S
C858 C856 1.363 . S
C858 C859 1.370 . S
C858 C862 1.524 . S
C859 C851 1.503 . S
C859 C858 1.370 . S
C859 C860 1.403 . S
C860 C859 1.403 . S
C860 C861 1.404 . S
C860 C863 1.539 . S
C861 C857 1.408 . S
C861 C860 1.404 . S
C861 H873 0.930 . S
C862 C858 1.524 . S
C862 H874 0.956 . S
C862 H875 0.961 . S
C862 H876 0.961 . S
C863 C860 1.539 . S
C863 H877 0.958 . S
C863 H878 0.961 . S
C863 H879 0.960 . S
H864 C848 0.931 . S
H865 C853 0.929 . S
H866 C854 0.960 . S
H867 C854 0.962 . S
H868 C854 0.960 . S
H869 C855 0.961 . S
H870 C855 0.961 . S
H871 C855 0.961 . S
H872 C856 0.931 . S
H873 C861 0.930 . S
H874 C862 0.956 . S
H875 C862 0.961 . S
H876 C862 0.961 . S
H877 C863 0.958 . S
H878 C863 0.961 . S
H879 C863 0.960 . S
C880 C881 1.391 . S
C880 C882 1.394 . S
C880 H896 0.931 . S
C881 C880 1.391 . S
C881 C885 1.376 . S
C882 C880 1.394 . S
C882 C883 1.369 . S
C882 C886 1.531 . S
C883 C882 1.369 . S
C883 C884 1.410 . S
C883 C891 1.503 . S
C884 C883 1.410 . S
C884 C885 1.392 . S
C884 C887 1.511 . S
C885 C881 1.376 . S
C885 C884 1.392 . S
C885 H897 0.929 . S
C886 C882 1.531 . S
C886 H898 0.960 . S
C886 H899 0.962 . S
C886 H900 0.960 . S
C887 C884 1.511 . S
C887 H901 0.961 . S
C887 H902 0.961 . S
C887 H903 0.961 . S
C888 C889 1.370 . S
C888 C890 1.363 . S
C888 H904 0.931 . S
C889 C888 1.370 . S
C889 C893 1.408 . S
C890 C888 1.363 . S
C890 C891 1.370 . S
C890 C894 1.524 . S
C891 C883 1.503 . S
C891 C890 1.370 . S
C891 C892 1.403 . S
C892 C891 1.403 . S
C892 C893 1.404 . S
C892 C895 1.539 . S
C893 C889 1.408 . S
C893 C892 1.404 . S
C893 H905 0.930 . S
C894 C890 1.524 . S
C894 H906 0.956 . S
C894 H907 0.961 . S
C894 H908 0.961 . S
C895 C892 1.539 . S
C895 H909 0.958 . S
C895 H910 0.961 . S
C895 H911 0.960 . S
H896 C880 0.931 . S
H897 C885 0.929 . S
H898 C886 0.960 . S
H899 C886 0.962 . S
H900 C886 0.960 . S
H901 C887 0.961 . S
H902 C887 0.961 . S
H903 C887 0.961 . S
H904 C888 0.931 . S
H905 C893 0.930 . S
H906 C894 0.956 . S
H907 C894 0.961 . S
H908 C894 0.961 . S
H909 C895 0.958 . S
H910 C895 0.961 . S
H911 C895 0.960 . S
C912 C913 1.391 . S
C912 C914 1.394 . S
C912 H928 0.931 . S
C913 C912 1.391 . S
C913 C917 1.376 . S
C914 C912 1.394 . S
C914 C915 1.369 . S
C914 C918 1.531 . S
C915 C914 1.369 . S
C915 C916 1.410 . S
C915 C923 1.503 . S
C916 C915 1.410 . S
C916 C917 1.392 . S
C916 C919 1.511 . S
C917 C913 1.376 . S
C917 C916 1.392 . S
C917 H929 0.929 . S
C918 C914 1.531 . S
C918 H930 0.960 . S
C918 H931 0.962 . S
C918 H932 0.960 . S
C919 C916 1.511 . S
C919 H933 0.961 . S
C919 H934 0.961 . S
C919 H935 0.961 . S
C920 C921 1.370 . S
C920 C922 1.363 . S
C920 H936 0.931 . S
C921 C920 1.370 . S
C921 C925 1.408 . S
C922 C920 1.363 . S
C922 C923 1.370 . S
C922 C926 1.524 . S
C923 C915 1.503 . S
C923 C922 1.370 . S
C923 C924 1.403 . S
C924 C923 1.403 . S
C924 C925 1.404 . S
C924 C927 1.539 . S
C925 C921 1.408 . S
C925 C924 1.404 . S
C925 H937 0.930 . S
C926 C922 1.524 . S
C926 H938 0.956 . S
C926 H939 0.961 . S
C926 H940 0.961 . S
C927 C924 1.539 . S
C927 H941 0.958 . S
C927 H942 0.961 . S
C927 H943 0.960 . S
H928 C912 0.931 . S
H929 C917 0.929 . S
H930 C918 0.960 . S
H931 C918 0.962 . S
H932 C918 0.960 . S
H933 C919 0.961 . S
H934 C919 0.961 . S
H935 C919 0.961 . S
H936 C920 0.931 . S
H937 C925 0.930 . S
H938 C926 0.956 . S
H939 C926 0.961 . S
H940 C926 0.961 . S
H941 C927 0.958 . S
H942 C927 0.961 . S
H943 C927 0.960 . S
C944 C945 1.391 . S
C944 C946 1.394 . S
C944 H960 0.931 . S
C945 C944 1.391 . S
C945 C949 1.376 . S
C946 C944 1.394 . S
C946 C947 1.369 . S
C946 C950 1.531 . S
C947 C946 1.369 . S
C947 C948 1.410 . S
C947 C955 1.503 . S
C948 C947 1.410 . S
C948 C949 1.392 . S
C948 C951 1.511 . S
C949 C945 1.376 . S
C949 C948 1.392 . S
C949 H961 0.929 . S
C950 C946 1.531 . S
C950 H962 0.960 . S
C950 H963 0.962 . S
C950 H964 0.960 . S
C951 C948 1.511 . S
C951 H965 0.961 . S
C951 H966 0.961 . S
C951 H967 0.961 . S
C952 C953 1.370 . S
C952 C954 1.363 . S
C952 H968 0.931 . S
C953 C952 1.370 . S
C953 C957 1.408 . S
C954 C952 1.363 . S
C954 C955 1.370 . S
C954 C958 1.524 . S
C955 C947 1.503 . S
C955 C954 1.370 . S
C955 C956 1.403 . S
C956 C955 1.403 . S
C956 C957 1.404 . S
C956 C959 1.539 . S
C957 C953 1.408 . S
C957 C956 1.404 . S
C957 H969 0.930 . S
C958 C954 1.524 . S
C958 H970 0.956 . S
C958 H971 0.961 . S
C958 H972 0.961 . S
C959 C956 1.539 . S
C959 H973 0.958 . S
C959 H974 0.961 . S
C959 H975 0.960 . S
H960 C944 0.931 . S
H961 C949 0.929 . S
H962 C950 0.960 . S
H963 C950 0.962 . S
H964 C950 0.960 . S
H965 C951 0.961 . S
H966 C951 0.961 . S
H967 C951 0.961 . S
H968 C952 0.931 . S
H969 C957 0.930 . S
H970 C958 0.956 . S
H971 C958 0.961 . S
H972 C958 0.961 . S
H973 C959 0.958 . S
H974 C959 0.961 . S
H975 C959 0.960 . S
C976 C977 1.391 . S
C976 C978 1.394 . S
C976 H992 0.931 . S
C977 C976 1.391 . S
C977 C981 1.376 . S
C978 C976 1.394 . S
C978 C979 1.369 . S
C978 C982 1.531 . S
C979 C978 1.369 . S
C979 C980 1.410 . S
C979 C987 1.503 . S
C980 C979 1.410 . S
C980 C981 1.392 . S
C980 C983 1.511 . S
C981 C977 1.376 . S
C981 C980 1.392 . S
C981 H993 0.929 . S
C982 C978 1.531 . S
C982 H994 0.960 . S
C982 H995 0.962 . S
C982 H996 0.960 . S
C983 C980 1.511 . S
C983 H997 0.961 . S
C983 H998 0.961 . S
C983 H999 0.961 . S
C984 C985 1.370 . S
C984 C986 1.363 . S
C984 H1000 0.931 . S
C985 C984 1.370 . S
C985 C989 1.408 . S
C986 C984 1.363 . S
C986 C987 1.370 . S
C986 C990 1.524 . S
C987 C979 1.503 . S
C987 C986 1.370 . S
C987 C988 1.403 . S
C988 C987 1.403 . S
C988 C989 1.404 . S
C988 C991 1.539 . S
C989 C985 1.408 . S
C989 C988 1.404 . S
C989 H1001 0.930 . S
C990 C986 1.524 . S
C990 H1002 0.956 . S
C990 H1003 0.961 . S
C990 H1004 0.961 . S
C991 C988 1.539 . S
C991 H1005 0.958 . S
C991 H1006 0.961 . S
C991 H1007 0.960 . S
H992 C976 0.931 . S
H993 C981 0.929 . S
H994 C982 0.960 . S
H995 C982 0.962 . S
H996 C982 0.960 . S
H997 C983 0.961 . S
H998 C983 0.961 . S
H999 C983 0.961 . S
H1000 C984 0.931 . S
H1001 C989 0.930 . S
H1002 C990 0.956 . S
H1003 C990 0.961 . S
H1004 C990 0.961 . S
H1005 C991 0.958 . S
H1006 C991 0.961 . S
H1007 C991 0.960 . S
C1008 C1009 1.391 . S
C1008 C1010 1.394 . S
C1008 H1024 0.931 . S
C1009 C1008 1.391 . S
C1009 C1013 1.376 . S
C1010 C1008 1.394 . S
C1010 C1011 1.369 . S
C1010 C1014 1.531 . S
C1011 C1010 1.369 . S
C1011 C1012 1.410 . S
C1011 C1019 1.503 . S
C1012 C1011 1.410 . S
C1012 C1013 1.392 . S
C1012 C1015 1.511 . S
C1013 C1009 1.376 . S
C1013 C1012 1.392 . S
C1013 H1025 0.929 . S
C1014 C1010 1.531 . S
C1014 H1026 0.960 . S
C1014 H1027 0.962 . S
C1014 H1028 0.960 . S
C1015 C1012 1.511 . S
C1015 H1029 0.961 . S
C1015 H1030 0.961 . S
C1015 H1031 0.961 . S
C1016 C1017 1.370 . S
C1016 C1018 1.363 . S
C1016 H1032 0.931 . S
C1017 C1016 1.370 . S
C1017 C1021 1.408 . S
C1018 C1016 1.363 . S
C1018 C1019 1.370 . S
C1018 C1022 1.524 . S
C1019 C1011 1.503 . S
C1019 C1018 1.370 . S
C1019 C1020 1.403 . S
C1020 C1019 1.403 . S
C1020 C1021 1.404 . S
C1020 C1023 1.539 . S
C1021 C1017 1.408 . S
C1021 C1020 1.404 . S
C1021 H1033 0.930 . S
C1022 C1018 1.524 . S
C1022 H1034 0.956 . S
C1022 H1035 0.961 . S
C1022 H1036 0.961 . S
C1023 C1020 1.539 . S
C1023 H1037 0.958 . S
C1023 H1038 0.961 . S
C1023 H1039 0.960 . S
H1024 C1008 0.931 . S
H1025 C1013 0.929 . S
H1026 C1014 0.960 . S
H1027 C1014 0.962 . S
H1028 C1014 0.960 . S
H1029 C1015 0.961 . S
H1030 C1015 0.961 . S
H1031 C1015 0.961 . S
H1032 C1016 0.931 . S
H1033 C1021 0.930 . S
H1034 C1022 0.956 . S
H1035 C1022 0.961 . S
H1036 C1022 0.961 . S
H1037 C1023 0.958 . S
H1038 C1023 0.961 . S
H1039 C1023 0.960 . S
C1040 C1041 1.391 . S
C1040 C1042 1.394 . S
C1040 H1056 0.931 . S
C1041 C1040 1.391 . S
C1041 C1045 1.376 . S
C1042 C1040 1.394 . S
C1042 C1043 1.369 . S
C1042 C1046 1.531 . S
C1043 C1042 1.369 . S
C1043 C1044 1.410 . S
C1043 C1051 1.503 . S
C1044 C1043 1.410 . S
C1044 C1045 1.392 . S
C1044 C1047 1.511 . S
C1045 C1041 1.376 . S
C1045 C1044 1.392 . S
C1045 H1057 0.929 . S
C1046 C1042 1.531 . S
C1046 H1058 0.960 . S
C1046 H1059 0.962 . S
C1046 H1060 0.960 . S
C1047 C1044 1.511 . S
C1047 H1061 0.961 . S
C1047 H1062 0.961 . S
C1047 H1063 0.961 . S
C1048 C1049 1.370 . S
C1048 C1050 1.363 . S
C1048 H1064 0.931 . S
C1049 C1048 1.370 . S
C1049 C1053 1.408 . S
C1050 C1048 1.363 . S
C1050 C1051 1.370 . S
C1050 C1054 1.524 . S
C1051 C1043 1.503 . S
C1051 C1050 1.370 . S
C1051 C1052 1.403 . S
C1052 C1051 1.403 . S
C1052 C1053 1.404 . S
C1052 C1055 1.539 . S
C1053 C1049 1.408 . S
C1053 C1052 1.404 . S
C1053 H1065 0.930 . S
C1054 C1050 1.524 . S
C1054 H1066 0.956 . S
C1054 H1067 0.961 . S
C1054 H1068 0.961 . S
C1055 C1052 1.539 . S
C1055 H1069 0.958 . S
C1055 H1070 0.961 . S
C1055 H1071 0.960 . S
H1056 C1040 0.931 . S
H1057 C1045 0.929 . S
H1058 C1046 0.960 . S
H1059 C1046 0.962 . S
H1060 C1046 0.960 . S
H1061 C1047 0.961 . S
H1062 C1047 0.961 . S
H1063 C1047 0.961 . S
H1064 C1048 0.931 . S
H1065 C1053 0.930 . S
H1066 C1054 0.956 . S
H1067 C1054 0.961 . S
H1068 C1054 0.961 . S
H1069 C1055 0.958 . S
H1070 C1055 0.961 . S
H1071 C1055 0.960 . S
C1072 C1073 1.391 . S
C1072 C1074 1.394 . S
C1072 H1088 0.931 . S
C1073 C1072 1.391 . S
C1073 C1077 1.376 . S
C1074 C1072 1.394 . S
C1074 C1075 1.369 . S
C1074 C1078 1.531 . S
C1075 C1074 1.369 . S
C1075 C1076 1.410 . S
C1075 C1083 1.503 . S
C1076 C1075 1.410 . S
C1076 C1077 1.392 . S
C1076 C1079 1.511 . S
C1077 C1073 1.376 . S
C1077 C1076 1.392 . S
C1077 H1089 0.929 . S
C1078 C1074 1.531 . S
C1078 H1090 0.960 . S
C1078 H1091 0.962 . S
C1078 H1092 0.960 . S
C1079 C1076 1.511 . S
C1079 H1093 0.961 . S
C1079 H1094 0.961 . S
C1079 H1095 0.961 . S
C1080 C1081 1.370 . S
C1080 C1082 1.363 . S
C1080 H1096 0.931 . S
C1081 C1080 1.370 . S
C1081 C1085 1.408 . S
C1082 C1080 1.363 . S
C1082 C1083 1.370 . S
C1082 C1086 1.524 . S
C1083 C1075 1.503 . S
C1083 C1082 1.370 . S
C1083 C1084 1.403 . S
C1084 C1083 1.403 . S
C1084 C1085 1.404 . S
C1084 C1087 1.539 . S
C1085 C1081 1.408 . S
C1085 C1084 1.404 . S
C1085 H1097 0.930 . S
C1086 C1082 1.524 . S
C1086 H1098 0.956 . S
C1086 H1099 0.961 . S
C1086 H1100 0.961 . S
C1087 C1084 1.539 . S
C1087 H1101 0.958 . S
C1087 H1102 0.961 . S
C1087 H1103 0.960 . S
H1088 C1072 0.931 . S
H1089 C1077 0.929 . S
H1090 C1078 0.960 . S
H1091 C1078 0.962 . S
H1092 C1078 0.960 . S
H1093 C1079 0.961 . S
H1094 C1079 0.961 . S
H1095 C1079 0.961 . S
H1096 C1080 0.931 . S
H1097 C1085 0.930 . S
H1098 C1086 0.956 . S
H1099 C1086 0.961 . S
H1100 C1086 0.961 . S
H1101 C1087 0.958 . S
H1102 C1087 0.961 . S
H1103 C1087 0.960 . S
C1104 C1105 1.391 . S
C1104 C1106 1.394 . S
C1104 H1120 0.931 . S
C1105 C1104 1.391 . S
C1105 C1109 1.376 . S
C1106 C1104 1.394 . S
C1106 C1107 1.369 . S
C1106 C1110 1.531 . S
C1107 C1106 1.369 . S
C1107 C1108 1.410 . S
C1107 C1115 1.503 . S
C1108 C1107 1.410 . S
C1108 C1109 1.392 . S
C1108 C1111 1.511 . S
C1109 C1105 1.376 . S
C1109 C1108 1.392 . S
C1109 H1121 0.929 . S
C1110 C1106 1.531 . S
C1110 H1122 0.960 . S
C1110 H1123 0.962 . S
C1110 H1124 0.960 . S
C1111 C1108 1.511 . S
C1111 H1125 0.961 . S
C1111 H1126 0.961 . S
C1111 H1127 0.961 . S
C1112 C1113 1.370 . S
C1112 C1114 1.363 . S
C1112 H1128 0.931 . S
C1113 C1112 1.370 . S
C1113 C1117 1.408 . S
C1114 C1112 1.363 . S
C1114 C1115 1.370 . S
C1114 C1118 1.524 . S
C1115 C1107 1.503 . S
C1115 C1114 1.370 . S
C1115 C1116 1.403 . S
C1116 C1115 1.403 . S
C1116 C1117 1.404 . S
C1116 C1119 1.539 . S
C1117 C1113 1.408 . S
C1117 C1116 1.404 . S
C1117 H1129 0.930 . S
C1118 C1114 1.524 . S
C1118 H1130 0.956 . S
C1118 H1131 0.961 . S
C1118 H1132 0.961 . S
C1119 C1116 1.539 . S
C1119 H1133 0.958 . S
C1119 H1134 0.961 . S
C1119 H1135 0.960 . S
H1120 C1104 0.931 . S
H1121 C1109 0.929 . S
H1122 C1110 0.960 . S
H1123 C1110 0.962 . S
H1124 C1110 0.960 . S
H1125 C1111 0.961 . S
H1126 C1111 0.961 . S
H1127 C1111 0.961 . S
H1128 C1112 0.931 . S
H1129 C1117 0.930 . S
H1130 C1118 0.956 . S
H1131 C1118 0.961 . S
H1132 C1118 0.961 . S
H1133 C1119 0.958 . S
H1134 C1119 0.961 . S
H1135 C1119 0.960 . S
C1136 C1137 1.391 . S
C1136 C1138 1.394 . S
C1136 H1152 0.931 . S
C1137 C1136 1.391 . S
C1137 C1141 1.376 . S
C1138 C1136 1.394 . S
C1138 C1139 1.369 . S
C1138 C1142 1.531 . S
C1139 C1138 1.369 . S
C1139 C1140 1.410 . S
C1139 C1147 1.503 . S
C1140 C1139 1.410 . S
C1140 C1141 1.392 . S
C1140 C1143 1.511 . S
C1141 C1137 1.376 . S
C1141 C1140 1.392 . S
C1141 H1153 0.929 . S
C1142 C1138 1.531 . S
C1142 H1154 0.960 . S
C1142 H1155 0.962 . S
C1142 H1156 0.960 . S
C1143 C1140 1.511 . S
C1143 H1157 0.961 . S
C1143 H1158 0.961 . S
C1143 H1159 0.961 . S
C1144 C1145 1.370 . S
C1144 C1146 1.363 . S
C1144 H1160 0.931 . S
C1145 C1144 1.370 . S
C1145 C1149 1.408 . S
C1146 C1144 1.363 . S
C1146 C1147 1.370 . S
C1146 C1150 1.524 . S
C1147 C1139 1.503 . S
C1147 C1146 1.370 . S
C1147 C1148 1.403 . S
C1148 C1147 1.403 . S
C1148 C1149 1.404 . S
C1148 C1151 1.539 . S
C1149 C1145 1.408 . S
C1149 C1148 1.404 . S
C1149 H1161 0.930 . S
C1150 C1146 1.524 . S
C1150 H1162 0.956 . S
C1150 H1163 0.961 . S
C1150 H1164 0.961 . S
C1151 C1148 1.539 . S
C1151 H1165 0.958 . S
C1151 H1166 0.961 . S
C1151 H1167 0.960 . S
H1152 C1136 0.931 . S
H1153 C1141 0.929 . S
H1154 C1142 0.960 . S
H1155 C1142 0.962 . S
H1156 C1142 0.960 . S
H1157 C1143 0.961 . S
H1158 C1143 0.961 . S
H1159 C1143 0.961 . S
H1160 C1144 0.931 . S
H1161 C1149 0.930 . S
H1162 C1150 0.956 . S
H1163 C1150 0.961 . S
H1164 C1150 0.961 . S
H1165 C1151 0.958 . S
H1166 C1151 0.961 . S
H1167 C1151 0.960 . S
C1168 C1169 1.391 . S
C1168 C1170 1.394 . S
C1168 H1184 0.931 . S
C1169 C1168 1.391 . S
C1169 C1173 1.376 . S
C1170 C1168 1.394 . S
C1170 C1171 1.369 . S
C1170 C1174 1.531 . S
C1171 C1170 1.369 . S
C1171 C1172 1.410 . S
C1171 C1179 1.503 . S
C1172 C1171 1.410 . S
C1172 C1173 1.392 . S
C1172 C1175 1.511 . S
C1173 C1169 1.376 . S
C1173 C1172 1.392 . S
C1173 H1185 0.929 . S
C1174 C1170 1.531 . S
C1174 H1186 0.960 . S
C1174 H1187 0.962 . S
C1174 H1188 0.960 . S
C1175 C1172 1.511 . S
C1175 H1189 0.961 . S
C1175 H1190 0.961 . S
C1175 H1191 0.961 . S
C1176 C1177 1.370 . S
C1176 C1178 1.363 . S
C1176 H1192 0.931 . S
C1177 C1176 1.370 . S
C1177 C1181 1.408 . S
C1178 C1176 1.363 . S
C1178 C1179 1.370 . S
C1178 C1182 1.524 . S
C1179 C1171 1.503 . S
C1179 C1178 1.370 . S
C1179 C1180 1.403 . S
C1180 C1179 1.403 . S
C1180 C1181 1.404 . S
C1180 C1183 1.539 . S
C1181 C1177 1.408 . S
C1181 C1180 1.404 . S
C1181 H1193 0.930 . S
C1182 C1178 1.524 . S
C1182 H1194 0.956 . S
C1182 H1195 0.961 . S
C1182 H1196 0.961 . S
C1183 C1180 1.539 . S
C1183 H1197 0.958 . S
C1183 H1198 0.961 . S
C1183 H1199 0.960 . S
H1184 C1168 0.931 . S
H1185 C1173 0.929 . S
H1186 C1174 0.960 . S
H1187 C1174 0.962 . S
H1188 C1174 0.960 . S
H1189 C1175 0.961 . S
H1190 C1175 0.961 . S
H1191 C1175 0.961 . S
H1192 C1176 0.931 . S
H1193 C1181 0.930 . S
H1194 C1182 0.956 . S
H1195 C1182 0.961 . S
H1196 C1182 0.961 . S
H1197 C1183 0.958 . S
H1198 C1183 0.961 . S
H1199 C1183 0.960 . S
C1200 C1201 1.391 . S
C1200 C1202 1.394 . S
C1200 H1216 0.931 . S
C1201 C1200 1.391 . S
C1201 C1205 1.376 . S
C1202 C1200 1.394 . S
C1202 C1203 1.369 . S
C1202 C1206 1.531 . S
C1203 C1202 1.369 . S
C1203 C1204 1.410 . S
C1203 C1211 1.503 . S
C1204 C1203 1.410 . S
C1204 C1205 1.392 . S
C1204 C1207 1.511 . S
C1205 C1201 1.376 . S
C1205 C1204 1.392 . S
C1205 H1217 0.929 . S
C1206 C1202 1.531 . S
C1206 H1218 0.960 . S
C1206 H1219 0.962 . S
C1206 H1220 0.960 . S
C1207 C1204 1.511 . S
C1207 H1221 0.961 . S
C1207 H1222 0.961 . S
C1207 H1223 0.961 . S
C1208 C1209 1.370 . S
C1208 C1210 1.363 . S
C1208 H1224 0.931 . S
C1209 C1208 1.370 . S
C1209 C1213 1.408 . S
C1210 C1208 1.363 . S
C1210 C1211 1.370 . S
C1210 C1214 1.524 . S
C1211 C1203 1.503 . S
C1211 C1210 1.370 . S
C1211 C1212 1.403 . S
C1212 C1211 1.403 . S
C1212 C1213 1.404 . S
C1212 C1215 1.539 . S
C1213 C1209 1.408 . S
C1213 C1212 1.404 . S
C1213 H1225 0.930 . S
C1214 C1210 1.524 . S
C1214 H1226 0.956 . S
C1214 H1227 0.961 . S
C1214 H1228 0.961 . S
C1215 C1212 1.539 . S
C1215 H1229 0.958 . S
C1215 H1230 0.961 . S
C1215 H1231 0.960 . S
H1216 C1200 0.931 . S
H1217 C1205 0.929 . S
H1218 C1206 0.960 . S
H1219 C1206 0.962 . S
H1220 C1206 0.960 . S
H1221 C1207 0.961 . S
H1222 C1207 0.961 . S
H1223 C1207 0.961 . S
H1224 C1208 0.931 . S
H1225 C1213 0.930 . S
H1226 C1214 0.956 . S
H1227 C1214 0.961 . S
H1228 C1214 0.961 . S
H1229 C1215 0.958 . S
H1230 C1215 0.961 . S
H1231 C1215 0.960 . S
C1232 C1233 1.391 . S
C1232 C1234 1.394 . S
C1232 H1248 0.931 . S
C1233 C1232 1.391 . S
C1233 C1237 1.376 . S
C1234 C1232 1.394 . S
C1234 C1235 1.369 . S
C1234 C1238 1.531 . S
C1235 C1234 1.369 . S
C1235 C1236 1.410 . S
C1235 C1243 1.503 . S
C1236 C1235 1.410 . S
C1236 C1237 1.392 . S
C1236 C1239 1.511 . S
C1237 C1233 1.376 . S
C1237 C1236 1.392 . S
C1237 H1249 0.929 . S
C1238 C1234 1.531 . S
C1238 H1250 0.960 . S
C1238 H1251 0.962 . S
C1238 H1252 0.960 . S
C1239 C1236 1.511 . S
C1239 H1253 0.961 . S
C1239 H1254 0.961 . S
C1239 H1255 0.961 . S
C1240 C1241 1.370 . S
C1240 C1242 1.363 . S
C1240 H1256 0.931 . S
C1241 C1240 1.370 . S
C1241 C1245 1.408 . S
C1242 C1240 1.363 . S
C1242 C1243 1.370 . S
C1242 C1246 1.524 . S
C1243 C1235 1.503 . S
C1243 C1242 1.370 . S
C1243 C1244 1.403 . S
C1244 C1243 1.403 . S
C1244 C1245 1.404 . S
C1244 C1247 1.539 . S
C1245 C1241 1.408 . S
C1245 C1244 1.404 . S
C1245 H1257 0.930 . S
C1246 C1242 1.524 . S
C1246 H1258 0.956 . S
C1246 H1259 0.961 . S
C1246 H1260 0.961 . S
C1247 C1244 1.539 . S
C1247 H1261 0.958 . S
C1247 H1262 0.961 . S
C1247 H1263 0.960 . S
H1248 C1232 0.931 . S
H1249 C1237 0.929 . S
H1250 C1238 0.960 . S
H1251 C1238 0.962 . S
H1252 C1238 0.960 . S
H1253 C1239 0.961 . S
H1254 C1239 0.961 . S
H1255 C1239 0.961 . S
H1256 C1240 0.931 . S
H1257 C1245 0.930 . S
H1258 C1246 0.956 . S
H1259 C1246 0.961 . S
H1260 C1246 0.961 . S
H1261 C1247 0.958 . S
H1262 C1247 0.961 . S
H1263 C1247 0.960 . S
C1264 C1265 1.391 . S
C1264 C1266 1.394 . S
C1264 H1280 0.931 . S
C1265 C1264 1.391 . S
C1265 C1269 1.376 . S
C1266 C1264 1.394 . S
C1266 C1267 1.369 . S
C1266 C1270 1.531 . S
C1267 C1266 1.369 . S
C1267 C1268 1.410 . S
C1267 C1275 1.503 . S
C1268 C1267 1.410 . S
C1268 C1269 1.392 . S
C1268 C1271 1.511 . S
C1269 C1265 1.376 . S
C1269 C1268 1.392 . S
C1269 H1281 0.929 . S
C1270 C1266 1.531 . S
C1270 H1282 0.960 . S
C1270 H1283 0.962 . S
C1270 H1284 0.960 . S
C1271 C1268 1.511 . S
C1271 H1285 0.961 . S
C1271 H1286 0.961 . S
C1271 H1287 0.961 . S
C1272 C1273 1.370 . S
C1272 C1274 1.363 . S
C1272 H1288 0.931 . S
C1273 C1272 1.370 . S
C1273 C1277 1.408 . S
C1274 C1272 1.363 . S
C1274 C1275 1.370 . S
C1274 C1278 1.524 . S
C1275 C1267 1.503 . S
C1275 C1274 1.370 . S
C1275 C1276 1.403 . S
C1276 C1275 1.403 . S
C1276 C1277 1.404 . S
C1276 C1279 1.539 . S
C1277 C1273 1.408 . S
C1277 C1276 1.404 . S
C1277 H1289 0.930 . S
C1278 C1274 1.524 . S
C1278 H1290 0.956 . S
C1278 H1291 0.961 . S
C1278 H1292 0.961 . S
C1279 C1276 1.539 . S
C1279 H1293 0.958 . S
C1279 H1294 0.961 . S
C1279 H1295 0.960 . S
H1280 C1264 0.931 . S
H1281 C1269 0.929 . S
H1282 C1270 0.960 . S
H1283 C1270 0.962 . S
H1284 C1270 0.960 . S
H1285 C1271 0.961 . S
H1286 C1271 0.961 . S
H1287 C1271 0.961 . S
H1288 C1272 0.931 . S
H1289 C1277 0.930 . S
H1290 C1278 0.956 . S
H1291 C1278 0.961 . S
H1292 C1278 0.961 . S
H1293 C1279 0.958 . S
H1294 C1279 0.961 . S
H1295 C1279 0.960 . S
C1296 C1297 1.391 . S
C1296 C1298 1.394 . S
C1296 H1312 0.931 . S
C1297 C1296 1.391 . S
C1297 C1301 1.376 . S
C1298 C1296 1.394 . S
C1298 C1299 1.369 . S
C1298 C1302 1.531 . S
C1299 C1298 1.369 . S
C1299 C1300 1.410 . S
C1299 C1307 1.503 . S
C1300 C1299 1.410 . S
C1300 C1301 1.392 . S
C1300 C1303 1.511 . S
C1301 C1297 1.376 . S
C1301 C1300 1.392 . S
C1301 H1313 0.929 . S
C1302 C1298 1.531 . S
C1302 H1314 0.960 . S
C1302 H1315 0.962 . S
C1302 H1316 0.960 . S
C1303 C1300 1.511 . S
C1303 H1317 0.961 . S
C1303 H1318 0.961 . S
C1303 H1319 0.961 . S
C1304 C1305 1.370 . S
C1304 C1306 1.363 . S
C1304 H1320 0.931 . S
C1305 C1304 1.370 . S
C1305 C1309 1.408 . S
C1306 C1304 1.363 . S
C1306 C1307 1.370 . S
C1306 C1310 1.524 . S
C1307 C1299 1.503 . S
C1307 C1306 1.370 . S
C1307 C1308 1.403 . S
C1308 C1307 1.403 . S
C1308 C1309 1.404 . S
C1308 C1311 1.539 . S
C1309 C1305 1.408 . S
C1309 C1308 1.404 . S
C1309 H1321 0.930 . S
C1310 C1306 1.524 . S
C1310 H1322 0.956 . S
C1310 H1323 0.961 . S
C1310 H1324 0.961 . S
C1311 C1308 1.539 . S
C1311 H1325 0.958 . S
C1311 H1326 0.961 . S
C1311 H1327 0.960 . S
H1312 C1296 0.931 . S
H1313 C1301 0.929 . S
H1314 C1302 0.960 . S
H1315 C1302 0.962 . S
H1316 C1302 0.960 . S
H1317 C1303 0.961 . S
H1318 C1303 0.961 . S
H1319 C1303 0.961 . S
H1320 C1304 0.931 . S
H1321 C1309 0.930 . S
H1322 C1310 0.956 . S
H1323 C1310 0.961 . S
H1324 C1310 0.961 . S
H1325 C1311 0.958 . S
H1326 C1311 0.961 . S
H1327 C1311 0.960 . S
C1328 C1329 1.391 . S
C1328 C1330 1.394 . S
C1328 H1344 0.931 . S
C1329 C1328 1.391 . S
C1329 C1333 1.376 . S
C1330 C1328 1.394 . S
C1330 C1331 1.369 . S
C1330 C1334 1.531 . S
C1331 C1330 1.369 . S
C1331 C1332 1.410 1_565 S
C1331 C1339 1.503 1_665 S
C1332 C1331 1.410 1_545 S
C1332 C1333 1.392 1_545 S
C1332 C1335 1.511 . S
C1333 C1329 1.376 . S
C1333 C1332 1.392 1_565 S
C1333 H1345 0.929 1_565 S
C1334 C1330 1.531 . S
C1334 H1346 0.960 . S
C1334 H1347 0.962 1_655 S
C1334 H1348 0.960 . S
C1335 C1332 1.511 . S
C1335 H1349 0.961 . S
C1335 H1350 0.961 . S
C1335 H1351 0.961 . S
C1336 C1337 1.370 . S
C1336 C1338 1.363 . S
C1336 H1352 0.931 . S
C1337 C1336 1.370 . S
C1337 C1341 1.408 . S
C1338 C1336 1.363 . S
C1338 C1339 1.370 . S
C1338 C1342 1.524 1_545 S
C1339 C1331 1.503 1_445 S
C1339 C1338 1.370 . S
C1339 C1340 1.403 1_455 S
C1340 C1339 1.403 1_655 S
C1340 C1341 1.404 1_655 S
C1340 C1343 1.539 . S
C1341 C1337 1.408 . S
C1341 C1340 1.404 1_455 S
C1341 H1353 0.930 . S
C1342 C1338 1.524 1_565 S
C1342 H1354 0.956 . S
C1342 H1355 0.961 1_565 S
C1342 H1356 0.963 . S
C1343 C1340 1.539 . S
C1343 H1357 0.958 . S
C1343 H1358 0.961 . S
C1343 H1359 0.960 . S
H1344 C1328 0.931 . S
H1345 C1333 0.929 1_545 S
H1346 C1334 0.960 . S
H1347 C1334 0.962 1_455 S
H1348 C1334 0.960 . S
H1349 C1335 0.961 . S
H1350 C1335 0.961 . S
H1351 C1335 0.961 . S
H1352 C1336 0.931 . S
H1353 C1341 0.930 . S
H1354 C1342 0.956 . S
H1355 C1342 0.961 1_545 S
H1356 C1342 0.963 . S
H1357 C1343 0.958 . S
H1358 C1343 0.961 . S
H1359 C1343 0.960 . S
C1360 C1361 1.391 . S
C1360 C1362 1.394 1_565 S
C1360 H1376 0.931 1_565 S
C1361 C1360 1.391 . S
C1361 C1365 1.376 . S
C1362 C1360 1.394 1_545 S
C1362 C1363 1.369 1_545 S
C1362 C1366 1.531 . S
C1363 C1362 1.369 1_565 S
C1363 C1364 1.410 . S
C1363 C1371 1.503 1_565 S
C1364 C1363 1.410 . S
C1364 C1365 1.392 . S
C1364 C1367 1.511 . S
C1365 C1361 1.376 . S
C1365 C1364 1.392 . S
C1365 H1377 0.929 . S
C1366 C1362 1.531 . S
C1366 H1378 0.960 . S
C1366 H1379 0.962 . S
C1366 H1380 0.960 . S
C1367 C1364 1.511 . S
C1367 H1381 0.961 . S
C1367 H1382 0.961 . S
C1367 H1383 0.961 . S
C1368 C1369 1.370 . S
C1368 C1370 1.363 . S
C1368 H1384 0.931 . S
C1369 C1368 1.370 . S
C1369 C1373 1.408 . S
C1370 C1368 1.363 . S
C1370 C1371 1.370 . S
C1370 C1374 1.524 1_545 S
C1371 C1363 1.503 1_545 S
C1371 C1370 1.370 . S
C1371 C1372 1.403 . S
C1372 C1371 1.403 . S
C1372 C1373 1.404 . S
C1372 C1375 1.539 . S
C1373 C1369 1.408 . S
C1373 C1372 1.404 . S
C1373 H1385 0.930 . S
C1374 C1370 1.524 1_565 S
C1374 H1386 0.956 1_565 S
C1374 H1387 0.961 . S
C1374 H1388 0.961 . S
C1375 C1372 1.539 . S
C1375 H1389 0.958 . S
C1375 H1390 0.961 . S
C1375 H1391 0.960 . S
H1376 C1360 0.931 1_545 S
H1377 C1365 0.929 . S
H1378 C1366 0.960 . S
H1379 C1366 0.962 . S
H1380 C1366 0.960 . S
H1381 C1367 0.961 . S
H1382 C1367 0.961 . S
H1383 C1367 0.961 . S
H1384 C1368 0.931 . S
H1385 C1373 0.930 . S
H1386 C1374 0.956 1_545 S
H1387 C1374 0.961 . S
H1388 C1374 0.961 . S
H1389 C1375 0.958 . S
H1390 C1375 0.961 . S
H1391 C1375 0.960 . S
C1392 C1393 1.391 . S
C1392 C1394 1.394 . S
C1392 H1408 0.931 . S
C1393 C1392 1.391 . S
C1393 C1397 1.376 . S
C1394 C1392 1.394 . S
C1394 C1395 1.369 . S
C1394 C1398 1.531 . S
C1395 C1394 1.369 . S
C1395 C1396 1.414 . S
C1395 C1403 1.503 1_655 S
C1396 C1395 1.414 . S
C1396 C1397 1.399 . S
C1396 C1399 1.500 1_655 S
C1397 C1393 1.376 . S
C1397 C1396 1.399 . S
C1397 H1409 0.929 . S
C1398 C1394 1.531 . S
C1398 H1410 0.960 . S
C1398 H1411 0.962 . S
C1398 H1412 0.960 . S
C1399 C1396 1.500 1_455 S
C1399 H1413 0.961 . S
C1399 H1414 0.961 . S
C1399 H1415 0.961 . S
C1400 C1401 1.370 . S
C1400 C1402 1.363 . S
C1400 H1416 0.931 . S
C1401 C1400 1.370 . S
C1401 C1405 1.408 . S
C1402 C1400 1.363 . S
C1402 C1403 1.370 . S
C1402 C1406 1.524 . S
C1403 C1395 1.503 1_455 S
C1403 C1402 1.370 . S
C1403 C1404 1.403 . S
C1404 C1403 1.403 . S
C1404 C1405 1.404 . S
C1404 C1407 1.539 . S
C1405 C1401 1.408 . S
C1405 C1404 1.404 . S
C1405 H1417 0.930 . S
C1406 C1402 1.524 . S
C1406 H1418 0.956 1_455 S
C1406 H1419 0.961 . S
C1406 H1420 0.961 . S
C1407 C1404 1.539 . S
C1407 H1421 0.958 1_455 S
C1407 H1422 0.961 . S
C1407 H1423 0.960 . S
H1408 C1392 0.931 . S
H1409 C1397 0.929 . S
H1410 C1398 0.960 . S
H1411 C1398 0.962 . S
H1412 C1398 0.960 . S
H1413 C1399 0.961 . S
H1414 C1399 0.961 . S
H1415 C1399 0.961 . S
H1416 C1400 0.931 . S
H1417 C1405 0.930 . S
H1418 C1406 0.956 1_655 S
H1419 C1406 0.961 . S
H1420 C1406 0.961 . S
H1421 C1407 0.958 1_655 S
H1422 C1407 0.961 . S
H1423 C1407 0.960 . S
C1424 C1425 1.391 . S
C1424 C1426 1.394 . S
C1424 H1440 0.931 . S
C1425 C1424 1.391 . S
C1425 C1429 1.376 . S
C1426 C1424 1.394 . S
C1426 C1427 1.369 . S
C1426 C1430 1.531 . S
C1427 C1426 1.369 . S
C1427 C1428 1.410 . S
C1427 C1435 1.503 . S
C1428 C1427 1.410 . S
C1428 C1429 1.392 . S
C1428 C1431 1.511 . S
C1429 C1425 1.376 . S
C1429 C1428 1.392 . S
C1429 H1441 0.929 . S
C1430 C1426 1.531 . S
C1430 H1442 0.960 . S
C1430 H1443 0.962 . S
C1430 H1444 0.960 . S
C1431 C1428 1.511 . S
C1431 H1445 0.961 . S
C1431 H1446 0.961 . S
C1431 H1447 0.961 . S
C1432 C1433 1.370 . S
C1432 C1434 1.363 . S
C1432 H1448 0.931 . S
C1433 C1432 1.370 . S
C1433 C1437 1.408 . S
C1434 C1432 1.363 . S
C1434 C1435 1.370 . S
C1434 C1438 1.524 . S
C1435 C1427 1.503 . S
C1435 C1434 1.370 . S
C1435 C1436 1.403 . S
C1436 C1435 1.403 . S
C1436 C1437 1.404 . S
C1436 C1439 1.539 . S
C1437 C1433 1.408 . S
C1437 C1436 1.404 . S
C1437 H1449 0.930 . S
C1438 C1434 1.524 . S
C1438 H1450 0.956 . S
C1438 H1451 0.961 . S
C1438 H1452 0.961 . S
C1439 C1436 1.539 . S
C1439 H1453 0.958 . S
C1439 H1454 0.961 . S
C1439 H1455 0.960 . S
H1440 C1424 0.931 . S
H1441 C1429 0.929 . S
H1442 C1430 0.960 . S
H1443 C1430 0.962 . S
H1444 C1430 0.960 . S
H1445 C1431 0.961 . S
H1446 C1431 0.961 . S
H1447 C1431 0.961 . S
H1448 C1432 0.931 . S
H1449 C1437 0.930 . S
H1450 C1438 0.956 . S
H1451 C1438 0.961 . S
H1452 C1438 0.961 . S
H1453 C1439 0.958 . S
H1454 C1439 0.961 . S
H1455 C1439 0.960 . S
C1456 C1457 1.391 . S
C1456 C1458 1.394 . S
C1456 H1472 0.931 . S
C1457 C1456 1.391 . S
C1457 C1461 1.376 . S
C1458 C1456 1.394 . S
C1458 C1459 1.369 . S
C1458 C1462 1.531 . S
C1459 C1458 1.369 . S
C1459 C1460 1.410 . S
C1459 C1467 1.503 1_545 S
C1460 C1459 1.410 . S
C1460 C1461 1.392 . S
C1460 C1463 1.511 . S
C1461 C1457 1.376 . S
C1461 C1460 1.392 . S
C1461 H1473 0.929 . S
C1462 C1458 1.531 . S
C1462 H1474 0.960 . S
C1462 H1475 0.962 1_545 S
C1462 H1476 0.960 . S
C1463 C1460 1.511 . S
C1463 H1477 0.961 . S
C1463 H1478 0.946 1_545 S
C1463 H1479 0.961 . S
C1464 C1465 1.370 . S
C1464 C1466 1.363 . S
C1464 H1480 0.931 . S
C1465 C1464 1.370 . S
C1465 C1469 1.408 . S
C1466 C1464 1.363 . S
C1466 C1467 1.370 . S
C1466 C1470 1.524 . S
C1467 C1459 1.503 1_565 S
C1467 C1466 1.370 . S
C1467 C1468 1.403 1_565 S
C1468 C1467 1.403 1_545 S
C1468 C1469 1.404 1_545 S
C1468 C1471 1.539 . S
C1469 C1465 1.408 . S
C1469 C1468 1.404 1_565 S
C1469 H1481 0.930 1_565 S
C1470 C1466 1.524 . S
C1470 H1482 0.956 . S
C1470 H1483 0.961 . S
C1470 H1484 0.961 . S
C1471 C1468 1.539 . S
C1471 H1485 0.958 . S
C1471 H1486 0.961 . S
C1471 H1487 0.960 . S
H1472 C1456 0.931 . S
H1473 C1461 0.929 . S
H1474 C1462 0.960 . S
H1475 C1462 0.962 1_565 S
H1476 C1462 0.960 . S
H1477 C1463 0.961 . S
H1478 C1463 0.946 1_565 S
H1479 C1463 0.961 . S
H1480 C1464 0.931 . S
H1481 C1469 0.930 1_545 S
H1482 C1470 0.956 . S
H1483 C1470 0.961 . S
H1484 C1470 0.961 . S
H1485 C1471 0.958 . S
H1486 C1471 0.961 . S
H1487 C1471 0.960 . S
C1488 C1489 1.391 . S
C1488 C1490 1.394 . S
C1488 H1504 0.931 . S
C1489 C1488 1.391 . S
C1489 C1493 1.376 . S
C1490 C1488 1.394 . S
C1490 C1491 1.369 . S
C1490 C1494 1.531 1_655 S
C1491 C1490 1.369 . S
C1491 C1492 1.410 . S
C1491 C1499 1.503 1_655 S
C1492 C1491 1.410 . S
C1492 C1493 1.392 . S
C1492 C1495 1.511 . S
C1493 C1489 1.376 . S
C1493 C1492 1.392 . S
C1493 H1505 0.929 . S
C1494 C1490 1.531 1_455 S
C1494 H1506 0.960 . S
C1494 H1507 0.962 1_455 S
C1494 H1508 0.960 . S
C1495 C1492 1.511 . S
C1495 H1509 0.961 . S
C1495 H1510 0.961 . S
C1495 H1511 0.961 1_655 S
C1496 C1497 1.370 . S
C1496 C1498 1.363 . S
C1496 H1512 0.931 . S
C1497 C1496 1.370 . S
C1497 C1501 1.408 . S
C1498 C1496 1.363 . S
C1498 C1499 1.370 . S
C1498 C1502 1.524 1_455 S
C1499 C1491 1.503 1_455 S
C1499 C1498 1.370 . S
C1499 C1500 1.403 . S
C1500 C1499 1.403 . S
C1500 C1501 1.404 . S
C1500 C1503 1.539 . S
C1501 C1497 1.408 . S
C1501 C1500 1.404 . S
C1501 H1513 0.930 . S
C1502 C1498 1.524 1_655 S
C1502 H1514 0.956 . S
C1502 H1515 0.961 . S
C1502 H1516 0.961 . S
C1503 C1500 1.539 . S
C1503 H1517 0.958 . S
C1503 H1518 0.961 . S
C1503 H1519 0.960 . S
H1504 C1488 0.931 . S
H1505 C1493 0.929 . S
H1506 C1494 0.960 . S
H1507 C1494 0.962 1_655 S
H1508 C1494 0.960 . S
H1509 C1495 0.961 . S
H1510 C1495 0.961 . S
H1511 C1495 0.961 1_455 S
H1512 C1496 0.931 . S
H1513 C1501 0.930 . S
H1514 C1502 0.956 . S
H1515 C1502 0.961 . S
H1516 C1502 0.961 . S
H1517 C1503 0.958 . S
H1518 C1503 0.961 . S
H1519 C1503 0.960 . S
C1520 C1521 1.391 . S
C1520 C1522 1.394 . S
C1520 H1536 0.931 . S
C1521 C1520 1.391 . S
C1521 C1525 1.376 . S
C1522 C1520 1.394 . S
C1522 C1523 1.369 . S
C1522 C1526 1.531 . S
C1523 C1522 1.369 . S
C1523 C1524 1.410 . S
C1523 C1531 1.503 1_554 S
C1524 C1523 1.410 . S
C1524 C1525 1.392 . S
C1524 C1527 1.511 . S
C1525 C1521 1.376 . S
C1525 C1524 1.392 . S
C1525 H1537 0.929 . S
C1526 C1522 1.531 . S
C1526 H1538 0.960 . S
C1526 H1539 0.962 1_554 S
C1526 H1540 0.960 . S
C1527 C1524 1.511 . S
C1527 H1541 0.961 . S
C1527 H1542 0.961 . S
C1527 H1543 0.961 . S
C1528 C1529 1.370 . S
C1528 C1530 1.363 . S
C1528 H1544 0.931 . S
C1529 C1528 1.370 . S
C1529 C1533 1.408 . S
C1530 C1528 1.363 . S
C1530 C1531 1.370 . S
C1530 C1534 1.524 . S
C1531 C1523 1.503 1_556 S
C1531 C1530 1.370 . S
C1531 C1532 1.403 1_556 S
C1532 C1531 1.403 1_554 S
C1532 C1533 1.404 1_554 S
C1532 C1535 1.539 . S
C1533 C1529 1.408 . S
C1533 C1532 1.404 1_556 S
C1533 H1545 0.930 . S
C1534 C1530 1.524 . S
C1534 H1546 0.956 . S
C1534 H1547 0.961 . S
C1534 H1548 0.961 . S
C1535 C1532 1.539 . S
C1535 H1549 0.958 . S
C1535 H1550 0.961 . S
C1535 H1551 0.960 . S
H1536 C1520 0.931 . S
H1537 C1525 0.929 . S
H1538 C1526 0.960 . S
H1539 C1526 0.962 1_556 S
H1540 C1526 0.960 . S
H1541 C1527 0.961 . S
H1542 C1527 0.961 . S
H1543 C1527 0.961 . S
H1544 C1528 0.931 . S
H1545 C1533 0.930 . S
H1546 C1534 0.956 . S
H1547 C1534 0.961 . S
H1548 C1534 0.961 . S
H1549 C1535 0.958 . S
H1550 C1535 0.961 . S
H1551 C1535 0.960 . S
C1552 C1553 1.391 . S
C1552 C1554 1.394 . S
C1552 H1568 0.931 . S
C1553 C1552 1.391 . S
C1553 C1557 1.376 . S
C1554 C1552 1.394 . S
C1554 C1555 1.369 . S
C1554 C1558 1.531 . S
C1555 C1554 1.369 . S
C1555 C1556 1.410 1_556 S
C1555 C1563 1.503 1_456 S
C1556 C1555 1.410 1_554 S
C1556 C1557 1.392 1_554 S
C1556 C1559 1.511 . S
C1557 C1553 1.376 . S
C1557 C1556 1.392 1_556 S
C1557 H1569 0.929 . S
C1558 C1554 1.531 . S
C1558 H1570 0.960 1_455 S
C1558 H1571 0.962 1_455 S
C1558 H1572 0.960 . S
C1559 C1556 1.511 . S
C1559 H1573 0.961 . S
C1559 H1574 0.961 . S
C1559 H1575 0.961 . S
C1560 C1561 1.370 . S
C1560 C1562 1.363 . S
C1560 H1576 0.931 . S
C1561 C1560 1.370 . S
C1561 C1565 1.408 . S
C1562 C1560 1.363 . S
C1562 C1563 1.370 . S
C1562 C1566 1.524 1_554 S
C1563 C1555 1.503 1_654 S
C1563 C1562 1.370 . S
C1563 C1564 1.403 1_655 S
C1564 C1563 1.403 1_455 S
C1564 C1565 1.404 1_455 S
C1564 C1567 1.539 . S
C1565 C1561 1.408 . S
C1565 C1564 1.404 1_655 S
C1565 H1577 0.930 . S
C1566 C1562 1.524 1_556 S
C1566 H1578 0.956 . S
C1566 H1579 0.961 . S
C1566 H1580 0.961 . S
C1567 C1564 1.539 . S
C1567 H1581 0.958 . S
C1567 H1582 0.961 . S
C1567 H1583 0.960 . S
H1568 C1552 0.931 . S
H1569 C1557 0.929 . S
H1570 C1558 0.960 1_655 S
H1571 C1558 0.962 1_655 S
H1572 C1558 0.960 . S
H1573 C1559 0.961 . S
H1574 C1559 0.961 . S
H1575 C1559 0.961 . S
H1576 C1560 0.931 . S
H1577 C1565 0.930 . S
H1578 C1566 0.956 . S
H1579 C1566 0.961 . S
H1580 C1566 0.961 . S
H1581 C1567 0.958 . S
H1582 C1567 0.961 . S
H1583 C1567 0.960 . S
C1584 C1585 1.391 . S
C1584 C1586 1.394 . S
C1584 H1600 0.931 . S
C1585 C1584 1.391 . S
C1585 C1589 1.376 . S
C1586 C1584 1.394 . S
C1586 C1587 1.369 . S
C1586 C1590 1.531 . S
C1587 C1586 1.369 . S
C1587 C1588 1.410 . S
C1587 C1595 1.503 . S
C1588 C1587 1.410 . S
C1588 C1589 1.392 . S
C1588 C1591 1.511 . S
C1589 C1585 1.376 . S
C1589 C1588 1.392 . S
C1589 H1601 0.929 . S
C1590 C1586 1.531 . S
C1590 H1602 0.960 . S
C1590 H1603 0.962 . S
C1590 H1604 0.960 . S
C1591 C1588 1.511 . S
C1591 H1605 0.961 . S
C1591 H1606 0.961 . S
C1591 H1607 0.961 . S
C1592 C1593 1.370 . S
C1592 C1594 1.363 . S
C1592 H1608 0.931 . S
C1593 C1592 1.370 . S
C1593 C1597 1.408 . S
C1594 C1592 1.363 . S
C1594 C1595 1.370 . S
C1594 C1598 1.524 . S
C1595 C1587 1.503 . S
C1595 C1594 1.370 . S
C1595 C1596 1.403 . S
C1596 C1595 1.403 . S
C1596 C1597 1.404 . S
C1596 C1599 1.539 . S
C1597 C1593 1.408 . S
C1597 C1596 1.404 . S
C1597 H1609 0.930 . S
C1598 C1594 1.524 . S
C1598 H1610 0.956 . S
C1598 H1611 0.961 . S
C1598 H1612 0.961 . S
C1599 C1596 1.539 . S
C1599 H1613 0.958 . S
C1599 H1614 0.961 . S
C1599 H1615 0.960 . S
H1600 C1584 0.931 . S
H1601 C1589 0.929 . S
H1602 C1590 0.960 . S
H1603 C1590 0.962 . S
H1604 C1590 0.960 . S
H1605 C1591 0.961 . S
H1606 C1591 0.961 . S
H1607 C1591 0.961 . S
H1608 C1592 0.931 . S
H1609 C1597 0.930 . S
H1610 C1598 0.956 . S
H1611 C1598 0.961 . S
H1612 C1598 0.961 . S
H1613 C1599 0.958 . S
H1614 C1599 0.961 . S
H1615 C1599 0.960 . S
C1616 C1617 1.391 . S
C1616 C1618 1.394 . S
C1616 H1632 0.931 . S
C1617 C1616 1.391 . S
C1617 C1621 1.376 . S
C1618 C1616 1.394 . S
C1618 C1619 1.369 . S
C1618 C1622 1.531 . S
C1619 C1618 1.369 . S
C1619 C1620 1.410 . S
C1619 C1627 1.503 1_554 S
C1620 C1619 1.410 . S
C1620 C1621 1.392 . S
C1620 C1623 1.511 1_554 S
C1621 C1617 1.376 . S
C1621 C1620 1.392 . S
C1621 H1633 0.929 . S
C1622 C1618 1.531 . S
C1622 H1634 0.960 . S
C1622 H1635 0.962 . S
C1622 H1636 0.960 . S
C1623 C1620 1.511 1_556 S
C1623 H1637 0.961 . S
C1623 H1638 0.961 . S
C1623 H1639 0.961 1_556 S
C1624 C1625 1.370 . S
C1624 C1626 1.363 . S
C1624 H1640 0.931 . S
C1625 C1624 1.370 . S
C1625 C1629 1.408 . S
C1626 C1624 1.363 . S
C1626 C1627 1.370 . S
C1626 C1630 1.524 . S
C1627 C1619 1.503 1_556 S
C1627 C1626 1.370 . S
C1627 C1628 1.403 1_556 S
C1628 C1627 1.403 1_554 S
C1628 C1629 1.404 1_554 S
C1628 C1631 1.539 . S
C1629 C1625 1.408 . S
C1629 C1628 1.404 1_556 S
C1629 H1641 0.930 . S
C1630 C1626 1.524 . S
C1630 H1642 0.956 . S
C1630 H1643 0.961 . S
C1630 H1644 0.961 . S
C1631 C1628 1.539 . S
C1631 H1645 0.958 . S
C1631 H1646 0.961 . S
C1631 H1647 0.960 . S
H1632 C1616 0.931 . S
H1633 C1621 0.929 . S
H1634 C1622 0.960 . S
H1635 C1622 0.962 . S
H1636 C1622 0.960 . S
H1637 C1623 0.961 . S
H1638 C1623 0.961 . S
H1639 C1623 0.961 1_554 S
H1640 C1624 0.931 . S
H1641 C1629 0.930 . S
H1642 C1630 0.956 . S
H1643 C1630 0.961 . S
H1644 C1630 0.961 . S
H1645 C1631 0.958 . S
H1646 C1631 0.961 . S
H1647 C1631 0.960 . S
C1648 C1649 1.391 . S
C1648 C1650 1.394 . S
C1648 H1664 0.931 . S
C1649 C1648 1.391 . S
C1649 C1653 1.376 . S
C1650 C1648 1.394 . S
C1650 C1651 1.369 . S
C1650 C1654 1.531 . S
C1651 C1650 1.369 . S
C1651 C1652 1.410 . S
C1651 C1659 1.503 . S
C1652 C1651 1.410 . S
C1652 C1653 1.392 . S
C1652 C1655 1.511 . S
C1653 C1649 1.376 . S
C1653 C1652 1.392 . S
C1653 H1665 0.929 . S
C1654 C1650 1.531 . S
C1654 H1666 0.960 . S
C1654 H1667 0.962 . S
C1654 H1668 0.960 . S
C1655 C1652 1.511 . S
C1655 H1669 0.961 . S
C1655 H1670 0.961 . S
C1655 H1671 0.961 . S
C1656 C1657 1.370 . S
C1656 C1658 1.363 . S
C1656 H1672 0.931 . S
C1657 C1656 1.370 . S
C1657 C1661 1.408 . S
C1658 C1656 1.363 . S
C1658 C1659 1.370 . S
C1658 C1662 1.524 . S
C1659 C1651 1.503 . S
C1659 C1658 1.370 . S
C1659 C1660 1.403 . S
C1660 C1659 1.403 . S
C1660 C1661 1.404 . S
C1660 C1663 1.539 . S
C1661 C1657 1.408 . S
C1661 C1660 1.404 . S
C1661 H1673 0.930 . S
C1662 C1658 1.524 . S
C1662 H1674 0.956 . S
C1662 H1675 0.961 . S
C1662 H1676 0.961 . S
C1663 C1660 1.539 . S
C1663 H1677 0.958 . S
C1663 H1678 0.961 . S
C1663 H1679 0.960 . S
H1664 C1648 0.931 . S
H1665 C1653 0.929 . S
H1666 C1654 0.960 . S
H1667 C1654 0.962 . S
H1668 C1654 0.960 . S
H1669 C1655 0.961 . S
H1670 C1655 0.961 . S
H1671 C1655 0.961 . S
H1672 C1656 0.931 . S
H1673 C1661 0.930 . S
H1674 C1662 0.956 . S
H1675 C1662 0.961 . S
H1676 C1662 0.961 . S
H1677 C1663 0.958 . S
H1678 C1663 0.961 . S
H1679 C1663 0.960 . S
C1680 C1681 1.391 . S
C1680 C1682 1.394 . S
C1680 H1696 0.931 . S
C1681 C1680 1.391 . S
C1681 C1685 1.376 . S
C1682 C1680 1.394 . S
C1682 C1683 1.369 . S
C1682 C1686 1.531 . S
C1683 C1682 1.369 . S
C1683 C1684 1.410 1_565 S
C1683 C1691 1.503 1_564 S
C1684 C1683 1.410 1_545 S
C1684 C1685 1.392 1_545 S
C1684 C1687 1.511 . S
C1685 C1681 1.376 . S
C1685 C1684 1.392 1_565 S
C1685 H1697 0.938 . S
C1686 C1682 1.531 . S
C1686 H1698 0.960 1_554 S
C1686 H1699 0.962 . S
C1686 H1700 0.960 . S
C1687 C1684 1.511 . S
C1687 H1701 0.961 . S
C1687 H1702 0.961 1_554 S
C1687 H1703 0.961 1_554 S
C1688 C1689 1.370 . S
C1688 C1690 1.366 . S
C1688 H1704 0.931 . S
C1689 C1688 1.370 . S
C1689 C1693 1.408 . S
C1690 C1688 1.366 . S
C1690 C1691 1.373 . S
C1690 C1694 1.519 1_556 S
C1691 C1683 1.503 1_546 S
C1691 C1690 1.373 . S
C1691 C1692 1.403 . S
C1692 C1691 1.403 . S
C1692 C1693 1.404 . S
C1692 C1695 1.539 1_545 S
C1693 C1689 1.408 . S
C1693 C1692 1.404 . S
C1693 H1705 0.930 . S
C1694 C1690 1.519 1_554 S
C1694 H1706 0.956 . S
C1694 H1707 0.961 . S
C1694 H1708 0.961 . S
C1695 C1692 1.539 1_565 S
C1695 H1709 0.958 . S
C1695 H1710 0.961 . S
C1695 H1711 0.960 . S
H1696 C1680 0.931 . S
H1697 C1685 0.938 . S
H1698 C1686 0.960 1_556 S
H1699 C1686 0.962 . S
H1700 C1686 0.960 . S
H1701 C1687 0.961 . S
H1702 C1687 0.961 1_556 S
H1703 C1687 0.961 1_556 S
H1704 C1688 0.931 . S
H1705 C1693 0.930 . S
H1706 C1694 0.956 . S
H1707 C1694 0.961 . S
H1708 C1694 0.961 . S
H1709 C1695 0.958 . S
H1710 C1695 0.961 . S
H1711 C1695 0.960 . S
C1712 C1713 1.391 . S
C1712 C1714 1.394 . S
C1712 H1728 0.931 . S
C1713 C1712 1.391 . S
C1713 C1717 1.376 . S
C1714 C1712 1.394 . S
C1714 C1715 1.369 . S
C1714 C1718 1.531 . S
C1715 C1714 1.369 . S
C1715 C1716 1.410 . S
C1715 C1723 1.503 . S
C1716 C1715 1.410 . S
C1716 C1717 1.392 . S
C1716 C1719 1.511 . S
C1717 C1713 1.376 . S
C1717 C1716 1.392 . S
C1717 H1729 0.929 . S
C1718 C1714 1.531 . S
C1718 H1730 0.960 . S
C1718 H1731 0.962 . S
C1718 H1732 0.960 . S
C1719 C1716 1.511 . S
C1719 H1733 0.961 . S
C1719 H1734 0.961 . S
C1719 H1735 0.961 . S
C1720 C1721 1.370 . S
C1720 C1722 1.363 . S
C1720 H1736 0.931 . S
C1721 C1720 1.370 . S
C1721 C1725 1.408 . S
C1722 C1720 1.363 . S
C1722 C1723 1.370 . S
C1722 C1726 1.524 . S
C1723 C1715 1.503 . S
C1723 C1722 1.370 . S
C1723 C1724 1.403 . S
C1724 C1723 1.403 . S
C1724 C1725 1.404 . S
C1724 C1727 1.539 . S
C1725 C1721 1.408 . S
C1725 C1724 1.404 . S
C1725 H1737 0.930 . S
C1726 C1722 1.524 . S
C1726 H1738 0.956 . S
C1726 H1739 0.961 . S
C1726 H1740 0.961 . S
C1727 C1724 1.539 . S
C1727 H1741 0.958 . S
C1727 H1742 0.961 . S
C1727 H1743 0.960 . S
H1728 C1712 0.931 . S
H1729 C1717 0.929 . S
H1730 C1718 0.960 . S
H1731 C1718 0.962 . S
H1732 C1718 0.960 . S
H1733 C1719 0.961 . S
H1734 C1719 0.961 . S
H1735 C1719 0.961 . S
H1736 C1720 0.931 . S
H1737 C1725 0.930 . S
H1738 C1726 0.956 . S
H1739 C1726 0.961 . S
H1740 C1726 0.961 . S
H1741 C1727 0.958 . S
H1742 C1727 0.961 . S
H1743 C1727 0.960 . S
C1744 C1745 1.391 . S
C1744 C1746 1.394 . S
C1744 H1760 0.931 . S
C1745 C1744 1.391 . S
C1745 C1749 1.376 . S
C1746 C1744 1.394 . S
C1746 C1747 1.369 . S
C1746 C1750 1.531 . S
C1747 C1746 1.369 . S
C1747 C1748 1.410 . S
C1747 C1755 1.503 . S
C1748 C1747 1.410 . S
C1748 C1749 1.392 . S
C1748 C1751 1.511 . S
C1749 C1745 1.376 . S
C1749 C1748 1.392 . S
C1749 H1761 0.929 . S
C1750 C1746 1.531 . S
C1750 H1762 0.960 . S
C1750 H1763 0.962 . S
C1750 H1764 0.960 . S
C1751 C1748 1.511 . S
C1751 H1765 0.961 . S
C1751 H1766 0.961 . S
C1751 H1767 0.961 . S
C1752 C1753 1.370 . S
C1752 C1754 1.363 . S
C1752 H1768 0.931 . S
C1753 C1752 1.370 . S
C1753 C1757 1.408 . S
C1754 C1752 1.363 . S
C1754 C1755 1.370 . S
C1754 C1758 1.524 . S
C1755 C1747 1.503 . S
C1755 C1754 1.370 . S
C1755 C1756 1.403 . S
C1756 C1755 1.403 . S
C1756 C1757 1.404 . S
C1756 C1759 1.539 . S
C1757 C1753 1.408 . S
C1757 C1756 1.404 . S
C1757 H1769 0.930 . S
C1758 C1754 1.524 . S
C1758 H1770 0.956 . S
C1758 H1771 0.961 . S
C1758 H1772 0.961 . S
C1759 C1756 1.539 . S
C1759 H1773 0.958 . S
C1759 H1774 0.961 . S
C1759 H1775 0.960 . S
H1760 C1744 0.931 . S
H1761 C1749 0.929 . S
H1762 C1750 0.960 . S
H1763 C1750 0.962 . S
H1764 C1750 0.960 . S
H1765 C1751 0.961 . S
H1766 C1751 0.961 . S
H1767 C1751 0.961 . S
H1768 C1752 0.931 . S
H1769 C1757 0.930 . S
H1770 C1758 0.956 . S
H1771 C1758 0.961 . S
H1772 C1758 0.961 . S
H1773 C1759 0.958 . S
H1774 C1759 0.961 . S
H1775 C1759 0.960 . S
C1776 C1777 1.391 . S
C1776 C1778 1.394 . S
C1776 H1792 0.931 . S
C1777 C1776 1.391 . S
C1777 C1781 1.376 . S
C1778 C1776 1.394 . S
C1778 C1779 1.369 . S
C1778 C1782 1.531 . S
C1779 C1778 1.369 . S
C1779 C1780 1.410 . S
C1779 C1787 1.503 . S
C1780 C1779 1.410 . S
C1780 C1781 1.392 . S
C1780 C1783 1.511 . S
C1781 C1777 1.376 . S
C1781 C1780 1.392 . S
C1781 H1793 0.929 . S
C1782 C1778 1.531 . S
C1782 H1794 0.960 . S
C1782 H1795 0.962 . S
C1782 H1796 0.960 . S
C1783 C1780 1.511 . S
C1783 H1797 0.961 . S
C1783 H1798 0.961 . S
C1783 H1799 0.961 . S
C1784 C1785 1.370 . S
C1784 C1786 1.363 . S
C1784 H1800 0.931 . S
C1785 C1784 1.370 . S
C1785 C1789 1.408 . S
C1786 C1784 1.363 . S
C1786 C1787 1.370 . S
C1786 C1790 1.524 . S
C1787 C1779 1.503 . S
C1787 C1786 1.370 . S
C1787 C1788 1.403 . S
C1788 C1787 1.403 . S
C1788 C1789 1.404 . S
C1788 C1791 1.539 . S
C1789 C1785 1.408 . S
C1789 C1788 1.404 . S
C1789 H1801 0.930 . S
C1790 C1786 1.524 . S
C1790 H1802 0.956 . S
C1790 H1803 0.961 . S
C1790 H1804 0.961 . S
C1791 C1788 1.539 . S
C1791 H1805 0.958 . S
C1791 H1806 0.961 . S
C1791 H1807 0.960 . S
H1792 C1776 0.931 . S
H1793 C1781 0.929 . S
H1794 C1782 0.960 . S
H1795 C1782 0.962 . S
H1796 C1782 0.960 . S
H1797 C1783 0.961 . S
H1798 C1783 0.961 . S
H1799 C1783 0.961 . S
H1800 C1784 0.931 . S
H1801 C1789 0.930 . S
H1802 C1790 0.956 . S
H1803 C1790 0.961 . S
H1804 C1790 0.961 . S
H1805 C1791 0.958 . S
H1806 C1791 0.961 . S
H1807 C1791 0.960 . S
C529 N5 0.775 . S
C537 N302 0.762 . S
C561 N14 0.814 1_655 S
C569 N311 0.843 . S
C593 N278 0.876 . S
C601 N47 0.839 . S
C625 N38 0.748 . S
C633 N269 0.750 . S
C657 N71 0.741 . S
C665 N368 0.747 . S
C689 N80 0.823 1_455 S
C697 N377 0.860 . S
C721 N113 0.878 . S
C729 N344 0.843 . S
C753 N104 0.760 . S
C761 N335 0.752 . S
C785 N137 0.738 . S
C793 N434 0.747 . S
C817 N443 0.873 . S
C825 N146 0.841 1_655 S
C849 N410 0.857 . S
C857 N179 0.849 . S
C881 N401 0.762 . S
C889 N170 0.760 . S
C913 N500 0.744 . S
C921 N203 0.757 . S
C945 N509 0.802 . S
C953 N212 0.854 1_455 S
C977 N476 0.836 . S
C985 N245 0.829 . S
C1009 N236 0.739 . S
C1017 N467 0.747 . S
C1041 C17 1.181 . S
C1049 C50 1.193 1_554 S
C1073 C116 1.194 1_556 S
C1081 C83 1.187 . S
C1105 C182 1.188 . S
C1113 C149 1.191 . S
C1137 C248 1.188 . S
C1145 C215 1.189 . S
C1169 C314 1.183 . S
C1177 C281 1.192 . S
C1201 C347 1.194 . S
C1209 C380 1.187 . S
C1233 C446 1.192 1_554 S
C1241 C413 1.188 . S
C1265 C479 1.185 . S
C1273 C512 1.192 1_556 S
C1297 C490 1.785 . S
C1305 C28 1.798 . S
C1329 C74 1.824 . S
C1337 C8 1.809 . S
C1361 C371 1.809 . S
C1369 C41 1.818 . S
C1393 C259 1.806 . S
C1401 C61 1.789 . S
C1425 C94 1.775 . S
C1433 C424 1.802 . S
C1457 C305 1.792 . S
C1465 C107 1.824 . S
C1489 C127 1.775 . S
C1497 C193 1.802 . S
C1521 C358 1.799 . S
C1529 C160 1.792 . S
C1553 C140 1.831 . S
C1561 C206 1.808 . S
C1585 C173 1.807 . S
C1593 C503 1.816 . S
C1617 C226 1.787 . S
C1625 C292 1.797 . S
C1649 C239 1.790 . S
C1657 C437 1.825 . S
C1681 C338 1.811 . S
C1689 C272 1.814 . S
C1713 C523 1.790 . S
C1721 C325 1.796 . S
C1745 C391 1.772 . S
C1753 C457 1.802 . S
C1777 C404 1.822 . S
C1785 C470 1.810 . S
