# Generated by pormake.
# Topology vcl, (7)-cn, num edge types: 1
# Building blocks:
#     Node 0, Type 0, BuildingBlock: NUHQUE_clean_sbu_2, # of connection points: 7
#     Node 1, Type 0, BuildingBlock: NUHQUE_clean_sbu_2, # of connection points: 7
#     Node 2, Type 0, BuildingBlock: NUHQUE_clean_sbu_2, # of connection points: 7
#     Node 3, Type 0, BuildingBlock: NUHQUE_clean_sbu_2, # of connection points: 7
#     Node 4, Type 0, BuildingBlock: NUHQUE_clean_sbu_2, # of connection points: 7
#     Node 5, Type 0, BuildingBlock: NUHQUE_clean_sbu_2, # of connection points: 7
#     Node 6, Type 0, BuildingBlock: NUHQUE_clean_sbu_2, # of connection points: 7
#     Node 7, Type 0, BuildingBlock: NUHQUE_clean_sbu_2, # of connection points: 7
#     Node 8, Type 0, BuildingBlock: NUHQUE_clean_sbu_2, # of connection points: 7
#     Node 9, Type 0, BuildingBlock: NUHQUE_clean_sbu_2, # of connection points: 7
#     Node 10, Type 0, BuildingBlock: NUHQUE_clean_sbu_2, # of connection points: 7
#     Node 11, Type 0, BuildingBlock: NUHQUE_clean_sbu_2, # of connection points: 7
#     Node 12, Type 0, BuildingBlock: NUHQUE_clean_sbu_2, # of connection points: 7
#     Node 13, Type 0, BuildingBlock: NUHQUE_clean_sbu_2, # of connection points: 7
#     Node 14, Type 0, BuildingBlock: NUHQUE_clean_sbu_2, # of connection points: 7
#     Node 15, Type 0, BuildingBlock: NUHQUE_clean_sbu_2, # of connection points: 7
#     Edge 16, Type (0, 0), BuildingBlock: XIVTED_clean_linker_0, # of connection points: 2
#     Edge 17, Type (0, 0), BuildingBlock: XIVTED_clean_linker_0, # of connection points: 2
#     Edge 18, Type (0, 0), BuildingBlock: XIVTED_clean_linker_0, # of connection points: 2
#     Edge 19, Type (0, 0), BuildingBlock: XIVTED_clean_linker_0, # of connection points: 2
#     Edge 20, Type (0, 0), BuildingBlock: XIVTED_clean_linker_0, # of connection points: 2
#     Edge 21, Type (0, 0), BuildingBlock: XIVTED_clean_linker_0, # of connection points: 2
#     Edge 22, Type (0, 0), BuildingBlock: XIVTED_clean_linker_0, # of connection points: 2
#     Edge 23, Type (0, 0), BuildingBlock: XIVTED_clean_linker_0, # of connection points: 2
#     Edge 24, Type (0, 0), BuildingBlock: XIVTED_clean_linker_0, # of connection points: 2
#     Edge 25, Type (0, 0), BuildingBlock: XIVTED_clean_linker_0, # of connection points: 2
#     Edge 26, Type (0, 0), BuildingBlock: XIVTED_clean_linker_0, # of connection points: 2
#     Edge 27, Type (0, 0), BuildingBlock: XIVTED_clean_linker_0, # of connection points: 2
#     Edge 28, Type (0, 0), BuildingBlock: XIVTED_clean_linker_0, # of connection points: 2
#     Edge 29, Type (0, 0), BuildingBlock: XIVTED_clean_linker_0, # of connection points: 2
#     Edge 30, Type (0, 0), BuildingBlock: XIVTED_clean_linker_0, # of connection points: 2
#     Edge 31, Type (0, 0), BuildingBlock: XIVTED_clean_linker_0, # of connection points: 2
#     Edge 32, Type (0, 0), BuildingBlock: XIVTED_clean_linker_0, # of connection points: 2
#     Edge 33, Type (0, 0), BuildingBlock: XIVTED_clean_linker_0, # of connection points: 2
#     Edge 34, Type (0, 0), BuildingBlock: XIVTED_clean_linker_0, # of connection points: 2
#     Edge 35, Type (0, 0), BuildingBlock: XIVTED_clean_linker_0, # of connection points: 2
#     Edge 36, Type (0, 0), BuildingBlock: XIVTED_clean_linker_0, # of connection points: 2
#     Edge 37, Type (0, 0), BuildingBlock: XIVTED_clean_linker_0, # of connection points: 2
#     Edge 38, Type (0, 0), BuildingBlock: XIVTED_clean_linker_0, # of connection points: 2
#     Edge 39, Type (0, 0), BuildingBlock: XIVTED_clean_linker_0, # of connection points: 2
#     Edge 40, Type (0, 0), BuildingBlock: XIVTED_clean_linker_0, # of connection points: 2
#     Edge 41, Type (0, 0), BuildingBlock: XIVTED_clean_linker_0, # of connection points: 2
#     Edge 42, Type (0, 0), BuildingBlock: XIVTED_clean_linker_0, # of connection points: 2
#     Edge 43, Type (0, 0), BuildingBlock: XIVTED_clean_linker_0, # of connection points: 2
#     Edge 44, Type (0, 0), BuildingBlock: XIVTED_clean_linker_0, # of connection points: 2
#     Edge 45, Type (0, 0), BuildingBlock: XIVTED_clean_linker_0, # of connection points: 2
#     Edge 46, Type (0, 0), BuildingBlock: XIVTED_clean_linker_0, # of connection points: 2
#     Edge 47, Type (0, 0), BuildingBlock: XIVTED_clean_linker_0, # of connection points: 2
#     Edge 48, Type (0, 0), BuildingBlock: XIVTED_clean_linker_0, # of connection points: 2
#     Edge 49, Type (0, 0), BuildingBlock: XIVTED_clean_linker_0, # of connection points: 2
#     Edge 50, Type (0, 0), BuildingBlock: XIVTED_clean_linker_0, # of connection points: 2
#     Edge 51, Type (0, 0), BuildingBlock: XIVTED_clean_linker_0, # of connection points: 2
#     Edge 52, Type (0, 0), BuildingBlock: XIVTED_clean_linker_0, # of connection points: 2
#     Edge 53, Type (0, 0), BuildingBlock: XIVTED_clean_linker_0, # of connection points: 2
#     Edge 54, Type (0, 0), BuildingBlock: XIVTED_clean_linker_0, # of connection points: 2
#     Edge 55, Type (0, 0), BuildingBlock: XIVTED_clean_linker_0, # of connection points: 2
#     Edge 56, Type (0, 0), BuildingBlock: XIVTED_clean_linker_0, # of connection points: 2
#     Edge 57, Type (0, 0), BuildingBlock: XIVTED_clean_linker_0, # of connection points: 2
#     Edge 58, Type (0, 0), BuildingBlock: XIVTED_clean_linker_0, # of connection points: 2
#     Edge 59, Type (0, 0), BuildingBlock: XIVTED_clean_linker_0, # of connection points: 2
#     Edge 60, Type (0, 0), BuildingBlock: XIVTED_clean_linker_0, # of connection points: 2
#     Edge 61, Type (0, 0), BuildingBlock: XIVTED_clean_linker_0, # of connection points: 2
#     Edge 62, Type (0, 0), BuildingBlock: XIVTED_clean_linker_0, # of connection points: 2
#     Edge 63, Type (0, 0), BuildingBlock: XIVTED_clean_linker_0, # of connection points: 2
#     Edge 64, Type (0, 0), BuildingBlock: XIVTED_clean_linker_0, # of connection points: 2
#     Edge 65, Type (0, 0), BuildingBlock: XIVTED_clean_linker_0, # of connection points: 2
#     Edge 66, Type (0, 0), BuildingBlock: XIVTED_clean_linker_0, # of connection points: 2
#     Edge 67, Type (0, 0), BuildingBlock: XIVTED_clean_linker_0, # of connection points: 2
#     Edge 68, Type (0, 0), BuildingBlock: XIVTED_clean_linker_0, # of connection points: 2
#     Edge 69, Type (0, 0), BuildingBlock: XIVTED_clean_linker_0, # of connection points: 2
#     Edge 70, Type (0, 0), BuildingBlock: XIVTED_clean_linker_0, # of connection points: 2
#     Edge 71, Type (0, 0), BuildingBlock: XIVTED_clean_linker_0, # of connection points: 2
# Relax obj value: 0.221
# Max RMSD: 0.254
# Mean RMSD: 0.254
data_MOF--net-vcl--node1-NUHQUE_clean_sbu_2--edge1-XIVTED_clean_linker_0
_symmetry_space_group_name_H-M    P1
_symmetry_Int_Tables_number       1
_symmetry_cell_setting            triclinic
loop_
_symmetry_equiv_pos_as_xyz
'x, y, z'
_cell_length_a     60.999599
_cell_length_b     49.198151
_cell_length_c     32.295678
_cell_angle_alpha  90.289551
_cell_angle_beta   89.892158
_cell_angle_gamma 90.001328
loop_
_atom_site_label
_atom_site_type_symbol
_atom_site_fract_x
_atom_site_fract_y
_atom_site_fract_z
_atom_type_partial_charge
O0 O 0.34578 0.02996 0.09818 0.0
Tb1 Tb 0.33354 0.07122 0.08766 0.0
Eu2 Eu 0.28195 0.11383 1.01321 0.0
C3 C 0.33361 1.00937 0.11063 0.0
O4 O 0.31225 1.01227 0.11302 0.0
C5 C 0.2827 0.07845 0.09336 0.0
O6 O 0.26592 0.15541 1.00785 0.0
C7 C 0.27551 0.08184 0.94964 0.0
C8 C 0.27546 0.1767 0.02517 0.0
O9 O 0.29381 0.17292 0.04561 0.0
C10 C 0.33457 0.1081 1.01419 0.0
C11 C 0.25923 0.07761 0.91631 0.0
C12 C 0.26454 0.06209 0.88079 0.0
C13 C 0.24833 0.05634 0.85104 0.0
C14 C 0.22692 0.06562 0.85751 0.0
C15 C 0.22151 0.08225 0.89159 0.0
C16 C 0.23795 0.08815 0.92086 0.0
O17 O 0.29901 0.06782 0.07194 0.0
O18 O 0.26989 0.09597 0.07417 0.0
O19 O 0.35401 0.08218 0.14067 0.0
O20 O 0.32754 0.1078 0.12515 0.0
C21 C 0.34386 0.10449 0.15041 0.0
O22 O 0.31704 0.11549 0.03526 0.0
O23 O 0.34696 0.08939 0.0316 0.0
O24 O 0.26851 0.07665 0.9873 0.0
O25 O 0.28768 0.10389 0.94786 0.0
H26 H 0.28107 0.0545 0.87641 0.0
H27 H 0.21454 0.05994 0.83509 0.0
H28 H 0.23442 0.1011 0.94725 0.0
O29 O 0.6551 1.0166 0.07376 0.0
Tb30 Tb 0.66764 0.97507 0.06596 0.0
Eu31 Eu 0.70539 0.92685 0.02938 0.0
C32 C 0.66184 0.03106 0.10593 0.0
O33 O 0.67667 1.02047 0.13045 0.0
C34 C 0.71399 0.96836 0.10307 0.0
O35 O 0.72352 0.88649 0.03185 0.0
C36 C 0.71853 0.9569 0.96764 0.0
C37 C 0.71446 0.86479 1.01483 0.0
O38 O 0.69552 0.8676 0.99602 0.0
C39 C 0.65695 0.93131 1.00052 0.0
C40 C 0.73939 0.96732 0.95119 0.0
C41 C 0.73988 0.98301 0.91486 0.0
C42 C 0.76003 0.98944 0.89558 0.0
C43 C 0.77948 0.97928 0.91333 0.0
C44 C 0.77917 0.964 0.95009 0.0
C45 C 0.75898 0.95887 0.96935 0.0
O46 O 0.7015 0.98506 0.08177 0.0
O47 O 0.71552 0.94253 0.09244 0.0
O48 O 0.64255 0.9697 0.11321 0.0
O49 O 0.66584 0.93823 0.10375 0.0
C50 C 0.64875 0.94575 0.12508 0.0
O51 O 0.67001 0.91593 1.0225 0.0
O52 O 0.65664 0.95796 1.00643 0.0
O53 O 0.71186 0.967 1.00317 0.0
O54 O 0.71625 0.9304 0.96556 0.0
H55 H 0.72455 0.9897 0.90149 0.0
H56 H 0.79486 0.98184 0.8971 0.0
H57 H 0.75829 0.94706 0.99757 0.0
O58 O 0.90591 0.26885 0.35763 0.0
Tb59 Tb 0.91357 0.31161 0.34763 0.0
Eu60 Eu 0.96443 0.36076 0.27351 0.0
C61 C 0.9064 0.2595 0.39576 0.0
O62 O 0.91257 0.27585 0.42584 0.0
C63 C 0.96408 0.32272 0.34863 0.0
O64 O 0.97947 0.40295 0.26801 0.0
C65 C 0.97076 0.32946 0.20897 0.0
C66 C 0.9694 0.42407 0.28486 0.0
O67 O 0.95107 0.41985 0.30528 0.0
C68 C 0.9122 0.35225 0.27725 0.0
C69 C 0.98646 0.32647 0.17428 0.0
C70 C 0.98115 0.31083 0.13888 0.0
C71 C -0.00302 0.30645 0.10777 0.0
C72 C 0.01812 0.31693 0.11303 0.0
C73 C 0.02354 0.33333 0.14729 0.0
C74 C 0.00741 0.33814 0.17763 0.0
O75 O 0.94719 0.31542 0.32592 0.0
O76 O 0.97707 0.34135 0.33268 0.0
O77 O 0.88773 0.32659 0.38804 0.0
O78 O 0.92048 0.33931 0.39949 0.0
C79 C 0.90018 0.34126 0.41187 0.0
O80 O 0.92963 0.36005 0.29811 0.0
O81 O 0.90052 0.33217 0.29308 0.0
O82 O 0.97887 0.32469 0.24589 0.0
O83 O 0.95761 0.35065 0.20855 0.0
H84 H 0.96489 0.30222 0.13557 0.0
H85 H 0.03034 0.31217 0.08973 0.0
H86 H 0.01096 0.351 0.2041 0.0
O87 O 0.0837 0.76993 0.3053 0.0
Tb88 Tb 0.06997 0.72883 0.29791 0.0
Eu89 Eu 0.03087 0.68035 0.2672 0.0
C90 C 0.07802 0.78429 0.3384 0.0
O91 O 0.06369 0.77373 0.3641 0.0
C92 C 0.02331 0.72631 0.33482 0.0
O93 O 0.01563 0.63838 0.27531 0.0
C94 C 0.01553 0.70587 0.20275 0.0
C95 C 0.02398 0.6174 0.255 0.0
O96 O 0.04058 0.62168 0.22991 0.0
C97 C 0.0794 0.68321 0.23422 0.0
C98 C 0.9958 0.72051 0.18844 0.0
C99 C -0.00263 0.73919 0.15567 0.0
C100 C 0.97838 0.75118 0.13877 0.0
C101 C 0.95791 0.74465 0.15642 0.0
C102 C 0.95587 0.72507 0.18789 0.0
C103 C 0.97512 0.71357 0.20419 0.0
O104 O 0.03623 0.7409 0.31092 0.0
O105 O 0.02092 0.70003 0.32797 0.0
O106 O 0.09457 0.72279 0.3456 0.0
O107 O 0.07008 0.69264 0.33734 0.0
C108 C 0.08741 0.69947 0.35843 0.0
O109 O 0.06596 0.66852 0.2567 0.0
O110 O 0.08061 0.70992 0.23937 0.0
O111 O 0.02767 0.71776 0.23109 0.0
O112 O 0.01322 0.67965 0.20895 0.0
H113 H 0.01334 0.74375 0.14274 0.0
H114 H 0.94328 0.75371 0.14382 0.0
H115 H 0.97419 0.69785 0.22744 0.0
O116 O 0.34166 0.52158 0.58831 0.0
Tb117 Tb 0.32948 0.56338 0.58416 0.0
Eu118 Eu 0.2784 0.61104 0.5214 0.0
C119 C 0.33017 0.50144 0.6043 0.0
O120 O 0.30936 0.50528 0.61297 0.0
C121 C 0.27983 0.57349 0.59937 0.0
O122 O 0.2631 0.65307 0.51597 0.0
C123 C 0.26935 0.57938 0.45879 0.0
C124 C 0.27355 0.67437 0.53125 0.0
O125 O 0.29228 0.67037 0.5503 0.0
C126 C 0.3304 0.60401 0.51533 0.0
C127 C 0.25202 0.57801 0.42702 0.0
C128 C 0.25559 0.56475 0.38874 0.0
C129 C 0.23887 0.56411 0.35867 0.0
C130 C 0.21856 0.57617 0.36774 0.0
C131 C 0.21472 0.58904 0.40596 0.0
C132 C 0.23162 0.59006 0.43525 0.0
O133 O 0.29422 0.56112 0.57533 0.0
O134 O 0.26801 0.59326 0.58326 0.0
O135 O 0.35031 0.56864 0.63857 0.0
O136 O 0.32775 0.59965 0.62381 0.0
C137 C 0.34304 0.59242 0.64939 0.0
O138 O 0.3141 0.61195 0.53918 0.0
O139 O 0.34206 0.5833 0.5288 0.0
O140 O 0.2628 0.57474 0.49692 0.0
O141 O 0.28305 0.59995 0.45629 0.0
H142 H 0.27135 0.55551 0.38212 0.0
H143 H 0.20576 0.5759 0.34448 0.0
H144 H 0.22886 0.60009 0.46477 0.0
O145 O 0.65481 0.51527 0.57103 0.0
Tb146 Tb 0.66917 0.47436 0.56429 0.0
Eu147 Eu 0.71398 0.42652 0.5186 0.0
C148 C 0.66482 0.53475 0.5922 0.0
O149 O 0.68508 0.53076 0.60433 0.0
C150 C 0.7172 0.46796 0.59388 0.0
O151 O 0.73041 0.38491 0.52178 0.0
C152 C 0.72603 0.45459 0.45384 0.0
C153 C 0.71791 0.36306 0.52498 0.0
O154 O 0.69658 0.36641 0.52718 0.0
C155 C 0.66361 0.43014 0.49679 0.0
C156 C 0.74631 0.4653 0.43485 0.0
C157 C 0.74531 0.48115 0.39864 0.0
C158 C 0.76472 0.49008 0.37941 0.0
C159 C 0.78492 0.48423 0.3981 0.0
C160 C 0.78646 0.46676 0.43243 0.0
C161 C 0.76679 0.45779 0.45094 0.0
O162 O 0.70405 0.4829 0.57095 0.0
O163 O 0.72453 0.44435 0.58012 0.0
O164 O 0.64684 0.4699 0.61652 0.0
O165 O 0.66837 0.43745 0.60219 0.0
C166 C 0.65283 0.4456 0.62693 0.0
O167 O 0.67786 0.41743 0.5201 0.0
O168 O 0.65796 0.45546 0.50609 0.0
O169 O 0.71989 0.46572 0.48903 0.0
O170 O 0.72394 0.42802 0.45385 0.0
H171 H 0.72958 0.48545 0.38455 0.0
H172 H 0.79953 0.49263 0.38416 0.0
H173 H 0.76707 0.44388 0.47677 0.0
O174 O 0.89592 0.7751 0.85436 0.0
Tb175 Tb 0.909 0.81625 0.8474 0.0
Eu176 Eu 0.96037 0.86132 0.77297 0.0
C177 C 0.90784 0.75423 0.86635 0.0
O178 O 0.92918 0.75702 0.86941 0.0
C179 C 0.9597 0.82513 0.85289 0.0
O180 O 0.97521 0.90362 0.76747 0.0
C181 C 0.96893 0.83035 0.70932 0.0
C182 C 0.96599 0.92467 0.78609 0.0
O183 O 0.94835 0.92059 0.80863 0.0
C184 C 0.9076 0.8534 0.77583 0.0
C185 C 0.98556 0.8297 0.676 0.0
C186 C 0.98148 0.81633 0.63799 0.0
C187 C -0.00229 0.81581 0.60682 0.0
C188 C 0.01809 0.82806 0.61462 0.0
C189 C 0.02247 0.84096 0.65253 0.0
C190 C 0.00601 0.84203 0.68281 0.0
O191 O 0.9437 0.8137 0.83158 0.0
O192 O 0.97212 0.84328 0.83392 0.0
O193 O 0.89081 0.82308 0.90485 0.0
O194 O 0.91291 0.85328 0.88478 0.0
C195 C 0.8988 0.8469 0.91324 0.0
O196 O 0.92567 0.85875 0.79645 0.0
O197 O 0.89459 0.83543 0.79323 0.0
O198 O 0.97652 0.82593 0.74679 0.0
O199 O 0.95451 0.85025 0.70819 0.0
H200 H 0.96574 0.80676 0.63253 0.0
H201 H 0.03059 0.8277 0.5907 0.0
H202 H 0.00923 0.85206 0.71215 0.0
O203 O 0.08899 0.26457 0.81372 0.0
Tb204 Tb 0.07565 0.22361 0.80317 0.0
Eu205 Eu 0.03694 0.17652 0.76629 0.0
C206 C 0.08237 0.27826 0.84684 0.0
O207 O 0.06775 0.26691 0.87115 0.0
C208 C 0.02839 0.22022 0.83724 0.0
O209 O 0.01936 0.13581 0.77149 0.0
C210 C 0.02374 0.20453 0.70242 0.0
C211 C 0.02801 0.11424 0.75325 0.0
O212 O 0.04613 0.11742 0.73177 0.0
C213 C 0.08593 0.17969 0.73729 0.0
C214 C 0.0031 0.21561 0.68594 0.0
C215 C 0.00272 0.2293 0.64772 0.0
C216 C 0.98259 0.23541 0.62849 0.0
C217 C 0.96298 0.22756 0.64814 0.0
C218 C 0.96317 0.21391 0.68639 0.0
C219 C 0.98339 0.20899 0.70565 0.0
O220 O 0.04182 0.23561 0.81558 0.0
O221 O 0.02613 0.19422 0.82803 0.0
O222 O 0.09926 0.21493 0.85194 0.0
O223 O 0.07428 0.18614 0.83935 0.0
C224 C 0.09134 0.19139 0.86214 0.0
O225 O 0.07224 0.16474 0.75876 0.0
O226 O 0.08719 0.20626 0.74397 0.0
O227 O 0.0315 0.21577 0.73629 0.0
O228 O 0.02481 0.17789 0.70318 0.0
H229 H 0.01799 0.23385 0.63201 0.0
H230 H 0.94757 0.23103 0.63244 0.0
H231 H 0.984 0.19849 0.73505 0.0
O232 O 0.84683 0.02312 0.60503 0.0
Tb233 Tb 0.83153 0.06294 0.59711 0.0
Eu234 Eu 0.78181 0.10816 0.53495 0.0
C235 C 0.83572 1.00127 0.61565 0.0
O236 O 0.81422 1.00246 0.61717 0.0
C237 C 0.78222 0.06977 0.61286 0.0
O238 O 0.76588 0.14991 0.53045 0.0
C239 C 0.77323 0.076 0.47252 0.0
C240 C 0.7785 0.17166 0.53354 0.0
O241 O 0.7996 0.16808 0.53936 0.0
C242 C 0.83369 0.10173 0.52524 0.0
C243 C 0.75612 0.07144 0.44098 0.0
C244 C 0.76069 0.05556 0.40558 0.0
C245 C 0.74397 0.04964 0.37709 0.0
C246 C 0.72275 0.05931 0.38448 0.0
C247 C 0.71809 0.07659 0.41827 0.0
C248 C 0.73504 0.08241 0.44657 0.0
O249 O 0.79659 0.05698 0.58944 0.0
O250 O 0.77158 0.09072 0.59726 0.0
O251 O 0.85014 0.07156 0.65345 0.0
O252 O 0.82861 0.10155 0.63083 0.0
C253 C 0.8427 0.09596 0.65959 0.0
O254 O 0.818 0.11241 0.54816 0.0
O255 O 0.84399 0.08035 0.54007 0.0
O256 O 0.76753 0.07085 0.51093 0.0
O257 O 0.78508 0.09818 0.46914 0.0
H258 H 0.7771 0.04781 0.4003 0.0
H259 H 0.70999 0.05362 0.36286 0.0
H260 H 0.73213 0.09576 0.47276 0.0
O261 O 0.15804 1.01844 0.55295 0.0
Tb262 Tb 0.17089 0.97704 0.54348 0.0
Eu263 Eu 0.20955 0.92885 0.50689 0.0
C264 C 0.16443 0.03218 0.58618 0.0
O265 O 0.17902 1.02096 0.61056 0.0
C266 C 0.21783 0.97187 0.57897 0.0
O267 O 0.22547 0.88711 0.51268 0.0
C268 C 0.22377 0.95619 0.44304 0.0
C269 C 0.21604 0.8658 0.49514 0.0
O270 O 0.19807 0.86965 0.47362 0.0
C271 C 0.16051 0.93281 0.47773 0.0
C272 C 0.2435 0.97003 0.42676 0.0
C273 C 0.2416 0.98905 0.39441 0.0
C274 C 0.26046 1.00074 0.37635 0.0
C275 C 0.28111 0.99342 0.39217 0.0
C276 C 0.28345 0.9732 0.42258 0.0
C277 C 0.26436 0.96211 0.4403 0.0
O278 O 0.20487 0.98782 0.5573 0.0
O279 O 0.22009 0.94603 0.56889 0.0
O280 O 0.14614 0.97139 0.59114 0.0
O281 O 0.16963 0.94018 0.58144 0.0
C282 C 0.15252 0.94751 0.60295 0.0
O283 O 0.17423 0.91759 0.49863 0.0
O284 O 0.15948 0.95941 0.48443 0.0
O285 O 0.21357 0.9676 0.4745 0.0
O286 O 0.22501 0.92962 0.44629 0.0
H287 H 0.22549 0.99423 0.38281 0.0
H288 H 0.29561 1.00241 0.37885 0.0
H289 H 0.2655 0.94607 0.46301 0.0
O290 O 0.40238 0.27275 0.83136 0.0
Tb291 Tb 0.4172 0.31309 0.82384 0.0
Eu292 Eu 0.45884 0.3609 0.78302 0.0
C293 C 0.41005 0.25639 0.86023 0.0
O294 O 0.42742 0.26404 0.8812 0.0
C295 C 0.46403 0.31905 0.85803 0.0
O296 O 0.47694 0.40142 0.78408 0.0
C297 C 0.47061 0.33019 0.72029 0.0
C298 C 0.46524 0.42404 0.78444 0.0
O299 O 0.44378 0.42197 0.7843 0.0
C300 C 0.40946 0.35668 0.75794 0.0
C301 C 0.49059 0.3239 0.69619 0.0
C302 C 0.48963 0.30717 0.6605 0.0
C303 C 0.50868 0.30218 0.63665 0.0
C304 C 0.5284 0.31464 0.64894 0.0
C305 C 0.52956 0.33129 0.68432 0.0
C306 C 0.51056 0.33569 0.70792 0.0
O307 O 0.45139 0.30273 0.83605 0.0
O308 O 0.46712 0.34452 0.84669 0.0
O309 O 0.39373 0.32009 0.87366 0.0
O310 O 0.41747 0.35043 0.86126 0.0
C311 C 0.4009 0.3439 0.88454 0.0
O312 O 0.42294 0.37055 0.78153 0.0
O313 O 0.40636 0.33051 0.76486 0.0
O314 O 0.47017 0.32176 0.75878 0.0
O315 O 0.46308 0.35503 0.71654 0.0
H316 H 0.47415 0.29812 0.65147 0.0
H317 H 0.54284 0.31244 0.62964 0.0
H318 H 0.51118 0.34865 0.73515 0.0
O319 O 0.58802 0.76744 0.82138 0.0
Tb320 Tb 0.57583 0.72569 0.81456 0.0
Eu321 Eu 0.53654 0.6764 0.78223 0.0
C322 C 0.58201 0.78113 0.85486 0.0
O323 O 0.56868 0.76925 0.88113 0.0
C324 C 0.52903 0.72184 0.85144 0.0
O325 O 0.51868 0.6358 0.78648 0.0
C326 C 0.52474 0.70363 0.71648 0.0
C327 C 0.53038 0.61324 0.78866 0.0
O328 O 0.55183 0.61532 0.78975 0.0
C329 C 0.58519 0.67902 0.75343 0.0
C330 C 0.50441 0.71211 0.69562 0.0
C331 C 0.50521 0.72571 0.65729 0.0
C332 C 0.48582 0.73026 0.63466 0.0
C333 C 0.46575 0.72139 0.65122 0.0
C334 C 0.46476 0.70794 0.68952 0.0
C335 C 0.4842 0.70384 0.7118 0.0
O336 O 0.54184 0.7368 0.82777 0.0
O337 O 0.5264 0.69569 0.84343 0.0
O338 O 0.60085 0.72028 0.86176 0.0
O339 O 0.57568 0.69078 0.85635 0.0
C340 C 0.5933 0.69764 0.8765 0.0
O341 O 0.57223 0.6658 0.77873 0.0
O342 O 0.58671 0.70581 0.75667 0.0
O343 O 0.52908 0.71512 0.75226 0.0
O344 O 0.52835 0.67736 0.71674 0.0
H345 H 0.5209 0.7315 0.64423 0.0
H346 H 0.45093 0.72395 0.63317 0.0
H347 H 0.48378 0.69316 0.74108 0.0
O348 O 0.84399 0.52114 0.1062 0.0
Tb349 Tb 0.83569 0.56375 0.09591 0.0
Eu350 Eu 0.78445 0.61244 1.02354 0.0
C351 C 0.84351 0.51175 0.14434 0.0
O352 O 0.83702 0.52792 0.17441 0.0
C353 C 0.78496 0.5742 0.09805 0.0
O354 O 0.76815 0.6539 1.01974 0.0
C355 C 0.77767 0.5817 0.95869 0.0
C356 C 0.77786 0.67542 0.03601 0.0
O357 O 0.79665 0.67209 0.05515 0.0
C358 C 0.83667 0.60443 0.02555 0.0
C359 C 0.76048 0.57857 0.92694 0.0
C360 C 0.76278 0.55958 0.89424 0.0
C361 C 0.74501 0.55428 0.86753 0.0
C362 C 0.72526 0.56831 0.87389 0.0
C363 C 0.72296 0.58799 0.90522 0.0
C364 C 0.74077 0.59301 0.93163 0.0
O365 O 0.80186 0.56701 0.07506 0.0
O366 O 0.77184 0.59272 0.08236 0.0
O367 O 0.8609 0.57982 0.13665 0.0
O368 O 0.82775 0.591 0.1478 0.0
C369 C 0.84789 0.59383 0.16042 0.0
O370 O 0.81938 0.61208 0.04704 0.0
O371 O 0.84854 0.58442 0.041 0.0
O372 O 0.77142 0.57543 0.99638 0.0
O373 O 0.78955 0.60401 0.95755 0.0
H374 H 0.77798 0.54842 0.89047 0.0
H375 H 0.7115 0.56376 0.85391 0.0
H376 H 0.73939 0.60799 0.95622 0.0
O377 O 0.1525 0.51749 0.06377 0.0
Tb378 Tb 0.16628 0.47676 0.05355 0.0
Eu379 Eu 0.20588 0.42968 1.01719 0.0
C380 C 0.15859 0.53099 0.09734 0.0
O381 O 0.17285 0.51952 0.12215 0.0
C382 C 0.21354 0.47448 0.0867 0.0
O383 O 0.22356 0.38907 1.02228 0.0
C384 C 0.21915 0.45716 0.9528 0.0
C385 C 0.21461 0.36749 1.00462 0.0
O386 O 0.19619 0.3707 0.98422 0.0
C387 C 0.15675 0.43215 0.98884 0.0
C388 C 0.24005 0.46705 0.93559 0.0
C389 C 0.2404 0.48381 0.90035 0.0
C390 C 0.26041 0.49002 0.88041 0.0
C391 C 0.27984 0.47859 0.89624 0.0
C392 C 0.2797 0.46212 0.93172 0.0
C393 C 0.25972 0.45714 0.9518 0.0
O394 O 0.20009 0.48923 0.0642 0.0
O395 O 0.21626 0.4484 0.07842 0.0
O396 O 0.14313 0.46783 0.10313 0.0
O397 O 0.16869 0.43978 0.09067 0.0
C398 C 0.15167 0.44474 0.11382 0.0
O399 O 0.17054 0.4178 1.01092 0.0
O400 O 0.15489 0.45869 0.99497 0.0
O401 O 0.21219 0.46871 0.98707 0.0
O402 O 0.21698 0.43063 0.95332 0.0
H403 H 0.22507 0.49151 0.88825 0.0
H404 H 0.29503 0.48112 0.87932 0.0
H405 H 0.25923 0.44436 0.97904 0.0
O406 O 0.3959 0.77368 0.33921 0.0
Tb407 Tb 0.41066 0.81373 0.32935 0.0
Eu408 Eu 0.45662 0.85915 0.28569 0.0
C409 C 0.40155 0.76024 0.3728 0.0
O410 O 0.41597 0.7713 0.39784 0.0
C411 C 0.45885 0.81442 0.35722 0.0
O412 O 0.47503 0.89952 0.28502 0.0
C413 C 0.46589 0.82852 0.22134 0.0
C414 C 0.46444 0.92157 0.2974 0.0
O415 O 0.44426 0.91875 0.31099 0.0
C416 C 0.40646 0.85823 0.26489 0.0
C417 C 0.48436 0.82478 0.19216 0.0
C418 C 0.48156 0.81091 0.15405 0.0
C419 C 0.49918 0.80872 0.12581 0.0
C420 C 0.51955 0.81991 0.13665 0.0
C421 C 0.52258 0.83347 0.17455 0.0
C422 C 0.50487 0.83591 0.20205 0.0
O423 O 0.44478 0.80088 0.33402 0.0
O424 O 0.46437 0.83963 0.34773 0.0
O425 O 0.38792 0.82478 0.3789 0.0
O426 O 0.41613 0.84907 0.36955 0.0
C427 C 0.3985 0.84611 0.39174 0.0
O428 O 0.42079 0.86939 0.29 0.0
O429 O 0.40018 0.83297 0.27171 0.0
O430 O 0.46954 0.82136 0.2598 0.0
O431 O 0.45536 0.85171 0.21892 0.0
H432 H 0.46567 0.80258 0.14597 0.0
H433 H 0.53302 0.81864 0.11477 0.0
H434 H 0.50697 0.84663 0.2312 0.0
O435 O 0.59178 0.2613 0.33096 0.0
Tb436 Tb 0.57538 0.22173 0.3227 0.0
Eu437 Eu 0.53254 0.17533 0.28165 0.0
C438 C 0.58174 0.28242 0.34805 0.0
O439 O 0.56071 0.28069 0.35622 0.0
C440 C 0.52789 0.21899 0.35442 0.0
O441 O 0.51683 0.13333 0.28766 0.0
C442 C 0.51997 0.20119 0.21533 0.0
C443 C 0.52739 0.11153 0.27409 0.0
O444 O 0.5467 0.11482 0.25682 0.0
C445 C 0.58237 0.17818 0.25417 0.0
C446 C 0.50176 0.2165 0.19627 0.0
C447 C 0.50583 0.23298 0.16154 0.0
C448 C 0.48849 0.24645 0.1416 0.0
C449 C 0.46712 0.24345 0.15706 0.0
C450 C 0.46237 0.22493 0.18907 0.0
C451 C 0.48008 0.21224 0.20934 0.0
O452 O 0.5413 0.23332 0.33118 0.0
O453 O 0.52208 0.19426 0.34293 0.0
O454 O 0.59705 0.21267 0.37458 0.0
O455 O 0.5737 0.18325 0.35628 0.0
C456 C 0.58956 0.18847 0.38192 0.0
O457 O 0.56807 0.16376 0.27524 0.0
O458 O 0.58607 0.20405 0.26342 0.0
O459 O 0.53083 0.21292 0.24565 0.0
O460 O 0.51664 0.17515 0.22156 0.0
H461 H 0.52236 0.23481 0.14946 0.0
H462 H 0.45402 0.25424 0.14174 0.0
H463 H 0.47721 0.19761 0.23364 0.0
H464 H 0.36391 0.85595 0.23449 0.0
H465 H 0.3775 0.99775 0.11426 0.0
H466 H 0.42389 0.90206 0.22697 0.0
H467 H 0.3142 0.9633 0.14266 0.0
H468 H 0.39499 0.95837 0.14568 0.0
H469 H 0.34575 0.89061 0.19143 0.0
C470 C 0.37333 0.87305 0.22322 0.0
C471 C 0.39542 0.8762 0.23451 0.0
C472 C 0.37726 0.95928 0.14485 0.0
C473 C 0.37485 0.91579 0.18549 0.0
C474 C 0.36722 0.9818 0.12674 0.0
C475 C 0.34429 0.98407 0.12597 0.0
C476 C 0.36437 0.93862 0.16246 0.0
C477 C 0.33193 0.96254 0.14266 0.0
C478 C 0.36295 0.89291 0.19893 0.0
C479 C 0.4068 0.8989 0.21934 0.0
N480 N 0.34211 0.94082 0.16041 0.0
N481 N 0.39642 0.91773 0.19584 0.0
H482 H 0.6273 0.17722 0.24362 0.0
H483 H 0.62178 0.05197 0.08246 0.0
H484 H 0.56722 0.14429 0.19464 0.0
H485 H 0.67828 0.06996 0.15788 0.0
H486 H 0.60344 0.0923 0.11138 0.0
H487 H 0.64805 0.14477 0.20026 0.0
C488 C 0.61853 0.16367 0.22296 0.0
C489 C 0.59554 0.16333 0.22274 0.0
C490 C 0.61996 0.08759 0.12118 0.0
C491 C 0.61901 0.1261 0.17348 0.0
C492 C 0.63048 0.06464 0.10448 0.0
C493 C 0.65153 0.0574 0.11797 0.0
C494 C 0.63065 0.10361 0.15127 0.0
C495 C 0.66195 0.07458 0.14684 0.0
C496 C 0.63032 0.14497 0.19854 0.0
C497 C 0.58495 0.14503 0.1959 0.0
N498 N 0.6514 0.09673 0.16262 0.0
N499 N 0.5967 0.12712 0.17257 0.0
H500 H 0.92153 0.22617 0.45607 0.0
H501 H 0.81564 0.13859 0.47232 0.0
H502 H 0.87272 0.23085 0.36006 0.0
H503 H 0.87792 0.10667 0.51217 0.0
H504 H 0.83502 0.17365 0.43278 0.0
H505 H 0.90516 0.18353 0.47977 0.0
C506 C 0.90754 0.21796 0.43963 0.0
C507 C 0.89847 0.23196 0.40606 0.0
C508 C 0.84441 0.15863 0.44952 0.0
C509 C 0.8793 0.18364 0.43366 0.0
C510 C 0.83338 0.13866 0.47212 0.0
C511 C 0.84517 0.11971 0.49559 0.0
C512 C 0.86737 0.1601 0.45138 0.0
C513 C 0.86817 0.12078 0.49436 0.0
C514 C 0.89824 0.19363 0.45308 0.0
C515 C 0.88028 0.22053 0.38589 0.0
N516 N 0.87851 0.14098 0.47334 0.0
N517 N 0.87098 0.19728 0.40053 0.0
H518 H 0.11539 0.93057 0.47353 0.0
H519 H 0.1173 0.80578 0.31072 0.0
H520 H 0.17403 0.90073 0.41446 0.0
H521 H 0.06315 0.82276 0.3929 0.0
H522 H 0.13611 0.84642 0.33758 0.0
H523 H 0.09378 0.89749 0.43303 0.0
C524 C 0.1236 0.91769 0.45106 0.0
C525 C 0.14648 0.91853 0.44703 0.0
C526 C 0.11999 0.8414 0.34937 0.0
C527 C 0.12205 0.88028 0.40124 0.0
C528 C 0.1092 0.81825 0.33386 0.0
C529 C 0.08866 0.81064 0.34972 0.0
C530 C 0.1101 0.85728 0.38069 0.0
C531 C 0.07905 0.82762 0.37995 0.0
C532 C 0.11134 0.89856 0.42832 0.0
C533 C 0.15639 0.90081 0.4183 0.0
N534 N 0.08983 0.84996 0.39449 0.0
N535 N 0.14419 0.8824 0.39673 0.0
H536 H 0.37376 0.4883 0.59751 0.0
H537 H 0.36574 0.35276 0.73502 0.0
H538 H 0.31226 0.45667 0.6427 0.0
H539 H 0.42539 0.39658 0.70956 0.0
H540 H 0.34564 0.38512 0.69079 0.0
H541 H 0.39257 0.44934 0.6276 0.0
C542 C 0.36413 0.47302 0.61331 0.0
C543 C 0.34136 0.47602 0.61778 0.0
C544 C 0.36319 0.38734 0.69448 0.0
C545 C 0.36296 0.43113 0.65281 0.0
C546 C 0.37466 0.36875 0.71938 0.0
C547 C 0.39723 0.37208 0.72604 0.0
C548 C 0.3745 0.4091 0.67585 0.0
C549 C 0.40796 0.39338 0.70551 0.0
C550 C 0.37492 0.45074 0.63066 0.0
C551 C 0.32985 0.45535 0.63861 0.0
N552 N 0.39655 0.41103 0.6816 0.0
N553 N 0.34077 0.43393 0.65561 0.0
H554 H 0.62777 0.68434 0.72337 0.0
H555 H 0.62034 0.54497 0.59131 0.0
H556 H 0.56942 0.63556 0.71146 0.0
H557 H 0.68179 0.58072 0.6288 0.0
H558 H 0.60097 0.583 0.62439 0.0
H559 H 0.64732 0.65158 0.67822 0.0
C560 C 0.61898 0.66711 0.71063 0.0
C561 C 0.59696 0.66265 0.72136 0.0
C562 C 0.61872 0.58268 0.62504 0.0
C563 C 0.61912 0.62512 0.66986 0.0
C564 C 0.62981 0.56098 0.6059 0.0
C565 C 0.65278 0.55943 0.6073 0.0
C566 C 0.63061 0.60323 0.64564 0.0
C567 C 0.66407 0.58088 0.62702 0.0
C568 C 0.63016 0.64829 0.68516 0.0
C569 C 0.58644 0.63973 0.70432 0.0
N570 N 0.65292 0.60174 0.64548 0.0
N571 N 0.59755 0.62194 0.67966 0.0
H572 H 0.8161 0.64677 0.98669 0.0
H573 H 0.9271 0.70679 0.8925 0.0
H574 H 0.87774 0.60391 0.99016 0.0
H575 H 0.86377 0.74411 0.8754 0.0
H576 H 0.90911 0.66761 0.92426 0.0
H577 H 0.83273 0.68084 0.94175 0.0
C578 C 0.83305 0.64426 0.97752 0.0
C579 C 0.84552 0.62243 0.99254 0.0
C580 C 0.89911 0.68423 0.91317 0.0
C581 C 0.8649 0.66183 0.94134 0.0
C582 C 0.90939 0.70666 0.89497 0.0
C583 C 0.89698 0.72896 0.88135 0.0
C584 C 0.87621 0.68406 0.91822 0.0
C585 C 0.87406 0.72749 0.88545 0.0
C586 C 0.84259 0.66382 0.95186 0.0
C587 C 0.86745 0.62034 0.97942 0.0
N588 N 0.86448 0.70562 0.90382 0.0
N589 N 0.87649 0.63994 0.95505 0.0
H590 H 0.1209 0.30245 0.82068 0.0
H591 H 0.11193 0.42617 0.98441 0.0
H592 H 0.06557 0.31515 0.90182 0.0
H593 H 0.17214 0.40182 0.92517 0.0
H594 H 0.09226 0.39153 0.94346 0.0
H595 H 0.13757 0.34431 0.84822 0.0
C596 C 0.11212 0.31419 0.8438 0.0
C597 C 0.09188 0.30506 0.85914 0.0
C598 C 0.10971 0.39415 0.93879 0.0
C599 C 0.11083 0.3531 0.8908 0.0
C600 C 0.12085 0.41416 0.96178 0.0
C601 C 0.14362 0.41702 0.95778 0.0
C602 C 0.12145 0.37696 0.91158 0.0
C603 C 0.15453 0.40036 0.92891 0.0
C604 C 0.12167 0.33805 0.85966 0.0
C605 C 0.0813 0.32118 0.8893 0.0
N606 N 0.14342 0.38102 0.90713 0.0
N607 N 0.09089 0.34423 0.90417 0.0
H608 H 0.81817 0.95187 0.63677 0.0
H609 H 0.92863 0.89665 0.73935 0.0
H610 H 0.87989 0.99444 0.62927 0.0
H611 H 0.86816 0.85131 0.73574 0.0
H612 H 0.91227 0.93069 0.69374 0.0
H613 H 0.83704 0.91329 0.66803 0.0
C614 C 0.83574 0.95304 0.64129 0.0
C615 C 0.84739 0.97659 0.6305 0.0
C616 C 0.90267 0.9131 0.70245 0.0
C617 C 0.86919 0.93235 0.66683 0.0
C618 C 0.91206 0.89358 0.72842 0.0
C619 C 0.89972 0.87116 0.7418 0.0
C620 C 0.88071 0.91032 0.6899 0.0
C621 C 0.8783 0.86828 0.72645 0.0
C622 C 0.84653 0.93094 0.65919 0.0
C623 C 0.87018 0.97678 0.63711 0.0
N624 N 0.86942 0.88775 0.70182 0.0
N625 N 0.88027 0.95516 0.65518 0.0
H626 H 0.12474 0.0545 0.56258 0.0
H627 H 0.13094 0.17669 0.72962 0.0
H628 H 0.1807 0.06963 0.64074 0.0
H629 H 0.07088 0.1483 0.67453 0.0
H630 H 0.15142 0.14391 0.68637 0.0
H631 H 0.10676 0.09482 0.59264 0.0
C632 C 0.1334 0.06652 0.58548 0.0
C633 C 0.15422 0.05847 0.59927 0.0
C634 C 0.13379 0.14522 0.68318 0.0
C635 C 0.13374 0.10472 0.63393 0.0
C636 C 0.12216 0.16417 0.70751 0.0
C637 C 0.09922 0.16534 0.70538 0.0
C638 C 0.12238 0.12746 0.65639 0.0
C639 C 0.08858 0.1481 0.67698 0.0
C640 C 0.12309 0.08947 0.60284 0.0
C641 C 0.16457 0.07485 0.62933 0.0
N642 N 0.10017 0.12987 0.65381 0.0
N643 N 0.15424 0.097 0.64568 0.0
H644 H 0.42774 0.21163 0.89622 0.0
H645 H 0.31454 0.15076 0.97409 0.0
H646 H 0.36596 0.24393 0.85451 0.0
H647 H 0.37563 0.10679 0.97958 0.0
H648 H 0.33212 0.1845 0.92919 0.0
H649 H 0.4085 0.17285 0.92596 0.0
C650 C 0.4101 0.21038 0.89284 0.0
C651 C 0.39847 0.2311 0.87277 0.0
C652 C 0.34157 0.16724 0.93972 0.0
C653 C 0.37612 0.18675 0.90777 0.0
C654 C 0.33154 0.14792 0.96538 0.0
C655 C 0.34363 0.12593 0.98107 0.0
C656 C 0.36398 0.1648 0.93007 0.0
C657 C 0.36561 0.12338 0.9685 0.0
C658 C 0.39909 0.18816 0.90986 0.0
C659 C 0.3756 0.22833 0.86945 0.0
N660 N 0.3751 0.14272 0.94435 0.0
N661 N 0.36512 0.2068 0.88733 0.0
H662 H 0.62029 0.80528 0.82763 0.0
H663 H 0.61214 0.92788 0.99306 0.0
H664 H 0.56489 0.81854 0.9084 0.0
H665 H 0.6725 0.90143 0.9365 0.0
H666 H 0.59209 0.89485 0.94978 0.0
H667 H 0.63715 0.84705 0.85514 0.0
C668 C 0.6115 0.8172 0.85054 0.0
C669 C 0.59125 0.80822 0.86597 0.0
C670 C 0.60968 0.89671 0.94618 0.0
C671 C 0.6104 0.85603 0.89761 0.0
C672 C 0.62105 0.91579 0.97051 0.0
C673 C 0.64394 0.9175 0.96799 0.0
C674 C 0.62133 0.87933 0.91913 0.0
C675 C 0.6548 0.90081 0.93911 0.0
C676 C 0.62116 0.84097 0.86641 0.0
C677 C 0.58065 0.82449 0.89588 0.0
N678 N 0.64347 0.88236 0.91604 0.0
N679 N 0.59036 0.84743 0.91082 0.0
H680 H 0.82678 0.47698 0.20135 0.0
H681 H 0.9325 0.39252 0.23279 0.0
H682 H 0.87909 0.48469 0.11228 0.0
H683 H 0.86927 0.35555 0.253 0.0
H684 H 0.91475 0.42814 0.19193 0.0
H685 H 0.84291 0.43423 0.22523 0.0
C686 C 0.8415 0.46942 0.18642 0.0
C687 C 0.85156 0.48424 0.15465 0.0
C688 C 0.90487 0.41187 0.20461 0.0
C689 C 0.87047 0.43588 0.18273 0.0
C690 C 0.91498 0.39149 0.22787 0.0
C691 C 0.90241 0.37087 0.24628 0.0
C692 C 0.88196 0.41214 0.20083 0.0
C693 C 0.87967 0.37091 0.23929 0.0
C694 C 0.85066 0.44504 0.2 0.0
C695 C 0.87073 0.47368 0.13657 0.0
N696 N 0.87013 0.39153 0.21791 0.0
N697 N 0.87985 0.45038 0.15146 0.0
H698 H 0.06469 0.65347 0.16948 0.0
H699 H 0.17481 0.56775 0.15288 0.0
H700 H 0.12419 0.67694 0.23152 0.0
H701 H 0.12017 0.55507 0.07049 0.0
H702 H 0.15735 0.60908 0.17899 0.0
H703 H 0.08522 0.61951 0.12953 0.0
C704 C 0.08226 0.65196 0.17376 0.0
C705 C 0.09283 0.66831 0.20334 0.0
C706 C 0.14924 0.59751 0.15488 0.0
C707 C 0.11641 0.62866 0.15881 0.0
C708 C 0.15919 0.57378 0.13995 0.0
C709 C 0.1489 0.55771 0.10953 0.0
C710 C 0.12859 0.60525 0.13985 0.0
C711 C 0.12872 0.56676 0.0939 0.0
C712 C 0.09396 0.63243 0.15114 0.0
C713 C 0.11551 0.66513 0.2084 0.0
N714 N 0.11911 0.5897 0.1096 0.0
N715 N 0.12649 0.64542 0.18681 0.0
H716 H 0.30968 0.64623 0.47609 0.0
H717 H 0.42028 0.71921 0.41609 0.0
H718 H 0.37233 0.60603 0.48448 0.0
H719 H 0.35953 0.74183 0.35767 0.0
H720 H 0.40264 0.67838 0.44319 0.0
H721 H 0.32674 0.68189 0.43404 0.0
C722 C 0.32694 0.64465 0.46858 0.0
C723 C 0.33958 0.6231 0.4841 0.0
C724 C 0.39319 0.69203 0.424 0.0
C725 C 0.35931 0.66419 0.43661 0.0
C726 C 0.40325 0.7154 0.40857 0.0
C727 C 0.39136 0.73395 0.38452 0.0
C728 C 0.37084 0.68737 0.41636 0.0
C729 C 0.36932 0.72796 0.37583 0.0
C730 C 0.33666 0.66503 0.44453 0.0
C731 C 0.36189 0.62217 0.47327 0.0
N732 N 0.35965 0.70541 0.39232 0.0
N733 N 0.37108 0.64262 0.45085 0.0
H734 H 0.61984 0.43302 0.47315 0.0
H735 H 0.62644 0.29107 0.34796 0.0
H736 H 0.6794 0.38786 0.45198 0.0
H737 H 0.56541 0.32982 0.38122 0.0
H738 H 0.64627 0.32976 0.37784 0.0
H739 H 0.59981 0.39911 0.43128 0.0
C740 C 0.62876 0.41633 0.45906 0.0
C741 C 0.65131 0.41319 0.46632 0.0
C742 C 0.62852 0.32992 0.37833 0.0
C743 C 0.62855 0.37421 0.41875 0.0
C744 C 0.61717 0.30781 0.36108 0.0
C745 C 0.59417 0.30697 0.36214 0.0
C746 C 0.61686 0.35154 0.39682 0.0
C747 C 0.58313 0.32939 0.37979 0.0
C748 C 0.61732 0.39683 0.43545 0.0
C749 C 0.66198 0.39095 0.44761 0.0
N750 N 0.59453 0.3506 0.39655 0.0
N751 N 0.65056 0.37236 0.42501 0.0
H752 H 0.25276 0.35154 0.04396 0.0
H753 H 0.23766 0.19318 0.98574 0.0
H754 H 0.19866 0.31989 0.9726 0.0
H755 H 0.29214 0.22424 0.05664 0.0
H756 H 0.22318 0.23954 0.98061 0.0
H757 H 0.26763 0.30525 0.0489 0.0
C758 C 0.24401 0.33494 0.02931 0.0
C759 C 0.2244 0.33976 1.00785 0.0
C760 C 0.23831 0.23622 0.99731 0.0
C761 C 0.24131 0.28658 1.01343 0.0
C762 C 0.24658 0.20969 1.00024 0.0
C763 C 0.26616 0.20466 1.02168 0.0
C764 C 0.24966 0.25802 1.0159 0.0
C765 C 0.27698 0.22701 0.03982 0.0
C766 C 0.2525 0.30847 0.03214 0.0
C767 C 0.21382 0.31731 0.98948 0.0
N768 N 0.26862 0.25259 0.03653 0.0
N769 N 0.22236 0.29186 0.99272 0.0
H770 H 0.73944 0.69087 0.99787 0.0
H771 H 0.75333 0.84987 0.05225 0.0
H772 H 0.79436 0.72353 0.06585 0.0
H773 H 0.6988 0.81674 0.98366 0.0
H774 H 0.76886 0.80396 0.05721 0.0
H775 H 0.7244 0.7369 0.9922 0.0
C776 C 0.74834 0.70767 1.01166 0.0
C777 C 0.76821 0.70318 0.03243 0.0
C778 C 0.7535 0.80676 0.04103 0.0
C779 C 0.75107 0.75617 0.02598 0.0
C780 C 0.74463 0.83302 0.03817 0.0
C781 C 0.72468 0.8373 1.01756 0.0
C782 C 0.74236 0.78454 1.0232 0.0
C783 C 0.7142 0.81456 0.99991 0.0
C784 C 0.73975 0.73401 1.00838 0.0
C785 C 0.77899 0.72589 0.04958 0.0
N786 N 0.72311 0.78929 1.00318 0.0
N787 N 0.77031 0.75128 0.04599 0.0
H788 H 0.0058 0.44182 0.24178 0.0
H789 H 0.98893 0.5996 0.30218 0.0
H790 H 0.95262 0.47108 0.31816 0.0
H791 H 0.03958 0.57049 0.21973 0.0
H792 H 0.97581 0.55267 0.30984 0.0
H793 H 0.01896 0.48871 0.23483 0.0
C794 C -0.0031 0.45804 0.25717 0.0
C795 C 0.97804 0.45234 0.2806 0.0
C796 C 0.9898 0.55658 0.29006 0.0
C797 C 0.99304 0.5063 0.27276 0.0
C798 C -0.0027 0.58341 0.28569 0.0
C799 C 0.0154 0.58916 0.26025 0.0
C800 C 0.00049 0.53522 0.26895 0.0
C801 C 0.02555 0.56721 0.23966 0.0
C802 C 0.00441 0.48487 0.25315 0.0
C803 C 0.96722 0.47435 0.29975 0.0
N804 N 0.018 0.54136 0.24449 0.0
N805 N 0.97484 0.50022 0.29543 0.0
H806 H 0.29152 0.72177 0.56044 0.0
H807 H 0.19897 0.81844 0.46416 0.0
H808 H 0.23609 0.6917 0.49119 0.0
H809 H 0.2529 0.84855 0.53747 0.0
H810 H 0.21261 0.77223 0.473 0.0
H811 H 0.27792 0.76809 0.55184 0.0
C812 C 0.27644 0.72484 0.54345 0.0
C813 C 0.26495 0.70261 0.52655 0.0
C814 C 0.22151 0.78889 0.48717 0.0
C815 C 0.24924 0.75605 0.51645 0.0
C816 C 0.21374 0.81541 0.4821 0.0
C817 C 0.22478 0.83763 0.50008 0.0
C818 C 0.24057 0.78425 0.5104 0.0
C819 C 0.24382 0.83217 0.52301 0.0
C820 C 0.26868 0.75141 0.53854 0.0
C821 C 0.24552 0.70808 0.50482 0.0
N822 N 0.25109 0.8061 0.52749 0.0
N823 N 0.23832 0.73418 0.50039 0.0
H824 H 0.80149 0.21943 0.53288 0.0
H825 H 0.69524 0.31519 0.52772 0.0
H826 H 0.73532 0.18859 0.52832 0.0
H827 H 0.76133 0.34634 0.52353 0.0
H828 H 0.70969 0.26903 0.52875 0.0
H829 H 0.78722 0.26573 0.53009 0.0
C830 C 0.78392 0.22233 0.53129 0.0
C831 C 0.7696 0.19988 0.53096 0.0
C832 C 0.72108 0.28589 0.52757 0.0
C833 C 0.75308 0.25333 0.52781 0.0
C834 C 0.71285 0.3124 0.52704 0.0
C835 C 0.72706 0.33491 0.5256 0.0
C836 C 0.74382 0.28152 0.52679 0.0
C837 C 0.74971 0.32972 0.52468 0.0
C838 C 0.77578 0.24889 0.52964 0.0
C839 C 0.74701 0.20515 0.52867 0.0
N840 N 0.75737 0.30363 0.52537 0.0
N841 N 0.73947 0.23126 0.52731 0.0
H842 H 0.95006 0.97211 0.81963 0.0
H843 H 0.0429 0.06675 0.71892 0.0
H844 H 0.0022 0.94162 0.74179 0.0
H845 H 0.99115 0.09806 0.79693 0.0
H846 H 0.02791 1.02113 0.72659 0.0
H847 H 0.96453 1.01813 0.8115 0.0
C848 C 0.96459 0.97503 0.80083 0.0
C849 C 0.97491 0.95277 0.78142 0.0
C850 C 0.01976 0.03791 0.74203 0.0
C851 C 0.99162 1.00582 0.77191 0.0
C852 C 0.02832 0.06411 0.73766 0.0
C853 C 0.01832 0.08649 0.75734 0.0
C854 C 0.00096 0.03374 0.76634 0.0
C855 C -0.00055 0.08153 0.78117 0.0
C856 C 0.97283 1.00142 0.79619 0.0
C857 C 0.99366 0.95803 0.7574 0.0
N858 N 0.99141 0.05574 0.78503 0.0
N859 N 0.00138 0.98392 0.75337 0.0
H860 H 0.48644 0.59935 0.78542 0.0
H861 H 0.50922 0.43792 0.78611 0.0
H862 H 0.55106 0.56394 0.79176 0.0
H863 H 0.44452 0.47335 0.78417 0.0
H864 H 0.52493 0.48389 0.78745 0.0
H865 H 0.47073 0.55338 0.7844 0.0
C866 C 0.49733 0.58198 0.78669 0.0
C867 C 0.52013 0.58567 0.78874 0.0
C868 C 0.50728 0.48158 0.78675 0.0
C869 C 0.50226 0.53282 0.78742 0.0
C870 C 0.49831 0.45529 0.78597 0.0
C871 C 0.47549 0.45161 0.78508 0.0
C872 C 0.49337 0.50445 0.78658 0.0
C873 C 0.46221 0.47503 0.78489 0.0
C874 C 0.48836 0.55569 0.78607 0.0
C875 C 0.53339 0.56225 0.79021 0.0
N876 N 0.4713 0.5003 0.78562 0.0
N877 N 0.5243 0.53698 0.78948 0.0
H878 H 0.44573 0.96966 0.3214 0.0
H879 H 0.54662 0.06343 0.2512 0.0
H880 H 0.50525 0.93743 0.26803 0.0
H881 H 0.4873 0.09523 0.30597 0.0
H882 H 0.53192 1.01749 0.25738 0.0
H883 H 0.46081 1.0154 0.31634 0.0
C884 C 0.46204 0.97211 0.30868 0.0
C885 C 0.4742 0.94941 0.29514 0.0
C886 C 0.52208 0.03445 0.26808 0.0
C887 C 0.49167 1.00236 0.28917 0.0
C888 C 0.53045 0.06083 0.26455 0.0
C889 C 0.5182 0.08347 0.27805 0.0
C890 C 0.50118 0.03036 0.28523 0.0
C891 C 0.49738 0.07853 0.29512 0.0
C892 C 0.47065 0.9984 0.30579 0.0
C893 C 0.49525 0.95418 0.27893 0.0
N894 N 0.48956 0.0526 0.29817 0.0
N895 N 0.50328 0.98007 0.27636 0.0
H896 H 0.23198 0.99669 0.30979 0.0
H897 H 0.31198 0.06083 0.15191 0.0
H898 H 0.28689 0.04399 0.3541 0.0
H899 H 0.24318 0.07666 0.13396 0.0
H900 H 0.30417 0.0464 0.2228 0.0
H901 H 0.23562 1.01894 0.24222 0.0
C902 C 0.24451 1.01205 0.30585 0.0
C903 C 0.25943 1.01789 0.33794 0.0
C904 C 0.29082 0.05324 0.20338 0.0
C905 C 0.26411 0.04253 0.25996 0.0
C906 C 0.29526 0.06151 0.16288 0.0
C907 C 0.2783 0.07034 0.13697 0.0
C908 C 0.26911 0.05284 0.2178 0.0
C909 C 0.25682 0.07027 0.15299 0.0
C910 C 0.24665 0.02455 0.26707 0.0
C911 C 0.27546 0.0379 0.33022 0.0
N912 N 0.25276 0.06125 0.19217 0.0
N913 N 0.2777 0.04895 0.2919 0.0
H914 H 0.72715 0.939 0.17065 0.0
H915 H 0.75732 0.07154 0.30453 0.0
H916 H 0.72468 1.02082 0.12352 0.0
H917 H 0.73787 0.99573 0.35946 0.0
H918 H 0.75478 0.05044 0.23566 0.0
H919 H 0.73999 0.95697 0.23739 0.0
C920 C 0.72968 0.96069 0.17406 0.0
C921 C 0.72467 0.97845 0.1415 0.0
C922 C 0.75154 0.03821 0.26279 0.0
C923 C 0.7394 0.9991 0.21774 0.0
C924 C 0.75326 0.05016 0.30203 0.0
C925 C 0.74815 0.03517 0.33754 0.0
C926 C 0.74461 1.01107 0.25904 0.0
C927 C 0.7423 1.00776 0.33274 0.0
C928 C 0.73689 0.97092 0.21224 0.0
C929 C 0.72814 1.00639 0.14784 0.0
N930 N 0.74057 0.9966 0.29417 0.0
N931 N 0.7352 1.01583 0.18519 0.0
H932 H 0.98707 0.34418 0.41488 0.0
H933 H 0.95902 0.2177 0.56183 0.0
H934 H 0.95106 0.27329 0.37592 0.0
H935 H 0.00402 0.28086 0.59875 0.0
H936 H 0.95552 0.23895 0.49419 0.0
H937 H 0.99314 0.32276 0.48273 0.0
C938 C 0.98033 0.32419 0.4207 0.0
C939 C 0.96797 0.31077 0.39014 0.0
C940 C 0.9662 0.24826 0.51691 0.0
C941 C 0.97504 0.28605 0.46733 0.0
C942 C 0.96816 0.23614 0.5557 0.0
C943 C 0.98168 0.24764 0.58626 0.0
C944 C 0.97769 0.27233 0.50824 0.0
C945 C 0.99343 0.2713 0.57612 0.0
C946 C 0.98383 0.31196 0.45936 0.0
C947 C 0.95996 0.28476 0.39908 0.0
N948 N 0.99102 0.283 0.53811 0.0
N949 N 0.96353 0.27334 0.43672 0.0
H950 H 0.9861 0.76293 0.58888 0.0
H951 H 0.01736 0.7806 0.3492 0.0
H952 H 0.00225 0.83912 0.53117 0.0
H953 H 0.00657 0.70228 0.40512 0.0
H954 H 0.00606 0.8025 0.41362 0.0
H955 H 0.98759 0.74065 0.5204 0.0
C956 C 0.98942 0.77505 0.56167 0.0
C957 C 0.99413 0.80287 0.56563 0.0
C958 C 0.00592 0.78051 0.41185 0.0
C959 C 0.99616 0.77761 0.4875 0.0
C960 C 0.01238 0.76796 0.37492 0.0
C961 C 0.0132 0.73951 0.37177 0.0
C962 C 0.00026 0.76461 0.44629 0.0
C963 C 0.00627 0.72427 0.40613 0.0
C964 C 0.99046 0.76232 0.52267 0.0
C965 C -0.00138 0.8176 0.52948 0.0
N966 N 0.00035 0.73699 0.44211 0.0
N967 N -0.00032 0.8048 0.49215 0.0
H968 H 0.24115 0.57327 0.64282 0.0
H969 H 0.29313 0.52477 0.85493 0.0
H970 H 0.30939 0.55207 0.65382 0.0
H971 H 0.23005 0.49372 0.81649 0.0
H972 H 0.29716 0.54652 0.78769 0.0
H973 H 0.23477 0.55525 0.71293 0.0
C974 C 0.25484 0.56513 0.66012 0.0
C975 C 0.27589 0.56415 0.64242 0.0
C976 C 0.28239 0.53507 0.79421 0.0
C977 C 0.26876 0.54415 0.72256 0.0
C978 C 0.28006 0.52244 0.83255 0.0
C979 C 0.26141 0.50662 0.84152 0.0
C980 C 0.26573 0.5327 0.76464 0.0
C981 C 0.24472 0.5056 0.81141 0.0
C982 C 0.25114 0.55476 0.69991 0.0
C983 C 0.29297 0.55324 0.66612 0.0
N984 N 0.24729 0.51839 0.7743 0.0
N985 N 0.28909 0.54388 0.70502 0.0
H986 H 0.77583 0.5505 0.80493 0.0
H987 H 0.68991 0.48603 0.65399 0.0
H988 H 0.71596 0.51399 0.84888 0.0
H989 H 0.75833 0.47172 0.62875 0.0
H990 H 0.69951 0.50243 0.72325 0.0
H991 H 0.7712 0.526 0.73858 0.0
C992 C 0.76209 0.53678 0.8011 0.0
C993 C 0.74609 0.53459 0.83228 0.0
C994 C 0.71246 0.49565 0.70265 0.0
C995 C 0.74037 0.50742 0.75646 0.0
C996 C 0.70699 0.48654 0.66304 0.0
C997 C 0.72336 0.47775 0.63565 0.0
C998 C 0.73454 0.49659 0.71483 0.0
C999 C 0.74526 0.47838 0.64912 0.0
C1000 C 0.75937 0.52301 0.76319 0.0
C1001 C 0.72849 0.51668 0.82546 0.0
N1002 N 0.7503 0.48804 0.68769 0.0
N1003 N 0.72585 0.50432 0.78812 0.0
H1004 H 0.95181 0.79423 0.11599 0.0
H1005 H -0.0014 0.82779 0.89523 0.0
H1006 H 0.0065 0.74635 0.07156 0.0
H1007 H 0.93101 0.80427 0.91 0.0
H1008 H 0.00575 0.81285 0.96673 0.0
H1009 H 0.9482 0.81394 0.04707 0.0
C1010 C 0.9632 0.78789 0.0921 0.0
C1011 C 0.97913 0.7678 0.09983 0.0
C1012 C 0.98934 0.81129 0.95419 0.0
C1013 C 0.97559 0.79162 1.02121 0.0
C1014 C 0.98519 0.81988 0.9136 0.0
C1015 C 0.96406 0.81746 0.89661 0.0
C1016 C 0.97208 0.80114 0.97831 0.0
C1017 C 0.94741 0.80677 0.92176 0.0
C1018 C 0.96115 0.79938 0.05284 0.0
C1019 C 0.99396 0.76164 0.06756 0.0
N1020 N 0.95169 0.7993 0.96144 0.0
N1021 N 0.99178 0.77341 0.02963 0.0
H1022 H 0.99434 0.25151 0.09291 0.0
H1023 H 0.02013 0.27383 0.85356 0.0
H1024 H 0.99135 0.32918 0.03247 0.0
H1025 H 0.01199 0.19398 0.90586 0.0
H1026 H 0.00664 0.29383 0.91799 0.0
H1027 H -0.00279 0.22922 0.02464 0.0
C1028 C 0.99347 0.26374 0.06517 0.0
C1029 C 0.99225 0.29215 0.06817 0.0
C1030 C 0.00751 0.2719 0.91537 0.0
C1031 C 0.9964 0.26706 0.9902 0.0
C1032 C 0.01526 0.26045 0.87846 0.0
C1033 C 0.01734 0.23215 0.87425 0.0
C1034 C 0.00201 0.25505 0.94887 0.0
C1035 C 0.01064 0.21589 0.90766 0.0
C1036 C 0.99536 0.25108 0.02623 0.0
C1037 C 0.99193 0.30719 0.03138 0.0
N1038 N 0.00357 0.22756 0.94374 0.0
N1039 N 0.99424 0.29453 0.99409 0.0
H1040 H 0.72993 0.99101 0.8309 0.0
H1041 H 0.81177 0.04767 0.66618 0.0
H1042 H 0.79268 0.02381 0.86808 0.0
H1043 H 0.74382 0.0708 0.6576 0.0
H1044 H 0.8052 0.03115 0.73643 0.0
H1045 H 0.73415 1.01356 0.76385 0.0
C1046 C 0.74446 1.00311 0.82551 0.0
C1047 C 0.76111 1.00497 0.8556 0.0
C1048 C 0.79175 0.03998 0.71924 0.0
C1049 C 0.76623 0.03003 0.77801 0.0
C1050 C 0.79548 0.04935 0.67912 0.0
C1051 C 0.77837 0.06077 0.65607 0.0
C1052 C 0.77057 0.0412 0.73614 0.0
C1053 C 0.7575 0.06233 0.67448 0.0
C1054 C 0.74685 1.01585 0.787 0.0
C1055 C 0.77966 1.0208 0.84583 0.0
N1056 N 0.75408 0.05227 0.71328 0.0
N1057 N 0.78187 0.03225 0.8078 0.0
H1058 H 0.25812 0.0794 0.77738 0.0
H1059 H 0.23312 0.94384 0.64645 0.0
H1060 H 0.24664 1.00172 0.83413 0.0
H1061 H 0.22645 0.02511 0.59861 0.0
H1062 H 0.24618 0.96301 0.71228 0.0
H1063 H 0.25531 0.05792 0.70892 0.0
C1064 C 0.25581 0.0576 0.7753 0.0
C1065 C 0.25304 0.04219 0.81133 0.0
C1066 C 0.2421 0.9766 0.68719 0.0
C1067 C 0.24902 1.01754 0.73314 0.0
C1068 C 0.23475 0.96569 0.64949 0.0
C1069 C 0.22851 0.98289 0.61695 0.0
C1070 C 0.24351 1.00494 0.69228 0.0
C1071 C 0.23087 1.01105 0.62288 0.0
C1072 C 0.2539 0.0454 0.73627 0.0
C1073 C 0.24932 1.01416 0.80704 0.0
N1074 N 0.23808 1.02115 0.65975 0.0
N1075 N 0.24727 1.00274 0.76864 0.0
H1076 H 0.47731 0.29861 0.12085 0.0
H1077 H 0.47411 0.26686 0.88068 0.0
H1078 H 0.50496 0.22517 0.06975 0.0
H1079 H 0.4735 0.34909 0.92747 0.0
H1080 H 0.48459 0.25081 0.94964 0.0
H1081 H 0.47531 0.31766 0.05082 0.0
C1082 C 0.48344 0.28678 0.09493 0.0
C1083 C 0.49151 0.26039 0.10113 0.0
C1084 C 0.48244 0.2724 0.9447 0.0
C1085 C 0.48855 0.28163 1.02074 0.0
C1086 C 0.47637 0.28156 0.90537 0.0
C1087 C 0.47283 0.30935 0.89827 0.0
C1088 C 0.48457 0.29108 0.97754 0.0
C1089 C 0.47613 0.3275 0.93144 0.0
C1090 C 0.48222 0.29759 0.05496 0.0
C1091 C 0.49892 0.24573 0.06639 0.0
N1092 N 0.48148 0.31803 0.96972 0.0
N1093 N 0.49693 0.25634 0.02766 0.0
H1094 H 0.48752 0.75612 0.10529 0.0
H1095 H 0.52322 0.776 0.86766 0.0
H1096 H 0.50676 0.83236 0.05128 0.0
H1097 H 0.51202 0.69702 0.92108 0.0
H1098 H 0.51163 0.79712 0.93252 0.0
H1099 H 0.4907 0.73445 0.03645 0.0
C1100 C 0.4919 0.76839 0.07879 0.0
C1101 C 0.49689 0.79607 0.08395 0.0
C1102 C 0.51149 0.77516 0.93012 0.0
C1103 C 0.50082 0.77148 1.00538 0.0
C1104 C 0.51812 0.76303 0.89293 0.0
C1105 C 0.51889 0.73461 0.88888 0.0
C1106 C 0.50551 0.75888 0.96397 0.0
C1107 C 0.51176 0.719 0.92273 0.0
C1108 C 0.49391 0.756 0.0396 0.0
C1109 C 0.50281 0.81096 0.04868 0.0
N1110 N 0.50559 0.73131 0.95895 0.0
N1111 N 0.50472 0.79851 1.01116 0.0
H1112 H 0.79827 0.52489 0.12525 0.0
H1113 H 0.74159 0.53461 0.34991 0.0
H1114 H 0.76144 0.59525 0.16402 0.0
H1115 H 0.78831 0.47339 0.3128 0.0
H1116 H 0.74522 0.55555 0.28082 0.0
H1117 H 0.79154 0.50415 0.19252 0.0
C1118 C 0.78909 0.53619 0.14831 0.0
C1119 C 0.781 0.56213 0.13945 0.0
C1120 C 0.7546 0.53749 0.2879 0.0
C1121 C 0.77269 0.53825 0.21676 0.0
C1122 C 0.75243 0.52548 0.32717 0.0
C1123 C 0.76484 0.5024 0.33726 0.0
C1124 C 0.76904 0.52605 0.2585 0.0
C1125 C 0.77866 0.49139 0.30663 0.0
C1126 C 0.78505 0.52424 0.18668 0.0
C1127 C 0.76827 0.57533 0.16986 0.0
N1128 N 0.78039 0.50328 0.26893 0.0
N1129 N 0.7646 0.56333 0.20729 0.0
H1130 H 0.23419 0.58858 0.28408 0.0
H1131 H 0.23092 0.44936 0.15539 0.0
H1132 H 0.2498 0.51128 0.33871 0.0
H1133 H 0.21883 0.52856 0.10351 0.0
H1134 H 0.2421 0.47125 0.22056 0.0
H1135 H 0.23284 0.56691 0.216 0.0
C1136 C 0.23771 0.56704 0.28152 0.0
C1137 C 0.24207 0.55168 0.31702 0.0
C1138 C 0.23727 0.48382 0.19471 0.0
C1139 C 0.2401 0.52641 0.23901 0.0
C1140 C 0.23098 0.47134 0.15741 0.0
C1141 C 0.22367 0.48711 0.12399 0.0
C1142 C 0.23627 0.51229 0.1986 0.0
C1143 C 0.22405 0.51551 0.12852 0.0
C1144 C 0.23686 0.55461 0.24264 0.0
C1145 C 0.24649 0.52384 0.31201 0.0
N1146 N 0.22999 0.5271 0.1651 0.0
N1147 N 0.24509 0.51199 0.27378 0.0
H1148 H 0.45915 0.76034 0.37616 0.0
H1149 H 0.50366 0.77886 0.60862 0.0
H1150 H 0.47807 0.83847 0.42563 0.0
H1151 H 0.46854 0.70857 0.56419 0.0
H1152 H 0.50039 0.79932 0.53928 0.0
H1153 H 0.46868 0.73942 0.44201 0.0
C1154 C 0.46545 0.77313 0.40081 0.0
C1155 C 0.46741 0.80133 0.39545 0.0
C1156 C 0.49356 0.77934 0.54472 0.0
C1157 C 0.47863 0.7773 0.47136 0.0
C1158 C 0.49554 0.76762 0.58415 0.0
C1159 C 0.48621 0.74208 0.59222 0.0
C1160 C 0.48247 0.76519 0.51306 0.0
C1161 C 0.47576 0.72842 0.55946 0.0
C1162 C 0.4709 0.76113 0.43851 0.0
C1163 C 0.47614 0.81669 0.42839 0.0
N1164 N 0.47416 0.74012 0.52154 0.0
N1165 N 0.48127 0.80452 0.46505 0.0
H1166 H 0.54022 0.2665 0.60987 0.0
H1167 H 0.48777 0.22215 0.39419 0.0
H1168 H 0.47708 0.29851 0.57477 0.0
H1169 H 0.55662 0.23813 0.41117 0.0
H1170 H 0.48074 0.24006 0.46481 0.0
H1171 H 0.54336 0.24482 0.54214 0.0
C1172 C 0.52691 0.26893 0.58804 0.0
C1173 C 0.50859 0.28508 0.59798 0.0
C1174 C 0.49734 0.2396 0.45287 0.0
C1175 C 0.51196 0.25944 0.52014 0.0
C1176 C 0.50136 0.22935 0.4128 0.0
C1177 C 0.52278 0.22902 0.39675 0.0
C1178 C 0.51499 0.24865 0.47729 0.0
C1179 C 0.53983 0.23845 0.42209 0.0
C1180 C 0.52874 0.25643 0.54934 0.0
C1181 C 0.49156 0.28643 0.56861 0.0
N1182 N 0.53561 0.24764 0.46106 0.0
N1183 N 0.49371 0.27394 0.53087 0.0
H1184 H 0.12269 0.19985 0.92074 0.0
H1185 H 0.19287 0.09534 0.8288 0.0
H1186 H 0.09011 0.13666 0.85126 0.0
H1187 H 0.19841 0.09749 0.96249 0.0
H1188 H 0.15672 0.11506 0.83459 0.0
H1189 H 0.15171 0.16741 0.93879 0.0
C1190 C 0.12125 0.1789 0.91065 0.0
C1191 C 0.10421 0.17086 0.8842 0.0
C1192 C 0.1658 0.11075 0.86262 0.0
C1193 C 0.13738 0.13438 0.90346 0.0
C1194 C 0.18652 0.09926 0.85954 0.0
C1195 C 0.19901 0.09415 0.89527 0.0
C1196 C 0.15765 0.11835 0.90143 0.0
C1197 C 0.18979 0.10135 0.93391 0.0
C1198 C 0.13774 0.16048 0.92096 0.0
C1199 C 0.10305 0.1436 0.87164 0.0
N1200 N 0.1698 0.11365 0.93593 0.0
N1201 N 0.11989 0.12649 0.88017 0.0
H1202 H 0.78311 0.91348 0.98529 0.0
H1203 H 0.90507 0.90182 0.91757 0.0
H1204 H 0.82182 0.98297 0.94874 0.0
H1205 H 0.86774 0.83647 0.9714 0.0
H1206 H 0.87863 0.93438 0.94576 0.0
H1207 H 0.81643 0.88833 0.99765 0.0
C1208 C 0.79857 0.92384 0.98081 0.0
C1209 C 0.79948 0.95039 0.965 0.0
C1210 C 0.87654 0.913 0.9525 0.0
C1211 C 0.83806 0.92086 0.97756 0.0
C1212 C 0.89171 0.89442 0.93658 0.0
C1213 C 0.88812 0.86646 0.94125 0.0
C1214 C 0.85767 0.90334 0.97271 0.0
C1215 C 0.87075 0.85789 0.96635 0.0
C1216 C 0.81774 0.90924 0.98765 0.0
C1217 C 0.82024 0.96226 0.95948 0.0
N1218 N 0.85584 0.87623 0.98034 0.0
N1219 N 0.8387 0.9472 0.96479 0.0
H1220 H 0.051 0.34871 0.08374 0.0
H1221 H 0.12069 0.45286 0.17339 0.0
H1222 H 0.04723 0.34759 0.21768 0.0
H1223 H 0.15397 0.38999 0.10417 0.0
H1224 H 0.0923 0.41983 0.19268 0.0
H1225 H 0.087 0.36904 0.08871 0.0
C1226 C 0.05772 0.35208 0.1143 0.0
C1227 C 0.0458 0.34585 0.15037 0.0
C1228 C 0.10632 0.41312 0.17468 0.0
C1229 C 0.08691 0.37065 0.15571 0.0
C1230 C 0.12245 0.43186 0.16366 0.0
C1231 C 0.13944 0.42406 0.13685 0.0
C1232 C 0.10701 0.38693 0.15753 0.0
C1233 C 0.14103 0.39674 0.12479 0.0
C1234 C 0.07833 0.36389 0.11693 0.0
C1235 C 0.05542 0.35232 0.18889 0.0
N1236 N 0.1245 0.37929 0.13396 0.0
N1237 N 0.07528 0.36493 0.19056 0.0
H1238 H 0.91828 0.72246 0.13988 0.0
H1239 H 0.88252 0.59123 0.21262 0.0
H1240 H 0.94237 0.70073 0.26143 0.0
H1241 H 0.83254 0.64547 0.16788 0.0
H1242 H 0.90356 0.63046 0.23719 0.0
H1243 H 0.8856 0.6966 0.15302 0.0
C1244 C 0.91671 0.71313 0.16995 0.0
C1245 C 0.93384 0.7137 0.19918 0.0
C1246 C 0.88755 0.63375 0.22361 0.0
C1247 C 0.8962 0.68245 0.21317 0.0
C1248 C 0.87558 0.6114 0.2096 0.0
C1249 C 0.85597 0.61533 0.188 0.0
C1250 C 0.8802 0.66002 0.21423 0.0
C1251 C 0.84766 0.64175 0.18442 0.0
C1252 C 0.89781 0.6981 0.17726 0.0
C1253 C 0.9303 0.7001 0.23697 0.0
N1254 N 0.86025 0.66327 0.19599 0.0
N1255 N 0.91225 0.68423 0.24229 0.0
H1256 H 0.20739 0.63843 0.44305 0.0
H1257 H 0.08439 0.64416 0.36407 0.0
H1258 H 0.17342 0.57041 0.38772 0.0
H1259 H 0.12094 0.71317 0.40927 0.0
H1260 H 0.11315 0.61402 0.39022 0.0
H1261 H 0.1727 0.6628 0.44804 0.0
C1262 C 0.19257 0.6284 0.43263 0.0
C1263 C 0.19338 0.60253 0.41417 0.0
C1264 C 0.11462 0.63572 0.39531 0.0
C1265 C 0.15361 0.63055 0.41914 0.0
C1266 C 0.09813 0.65287 0.38068 0.0
C1267 C 0.10061 0.6811 0.38395 0.0
C1268 C 0.13358 0.64705 0.41312 0.0
C1269 C 0.11866 0.69146 0.40563 0.0
C1270 C 0.17275 0.64239 0.43533 0.0
C1271 C 0.17363 0.59063 0.40109 0.0
N1272 N 0.13467 0.67446 0.41879 0.0
N1273 N 0.1546 0.60489 0.40326 0.0
H1274 H 0.91345 0.39383 0.41725 0.0
H1275 H 0.79908 0.44372 0.50787 0.0
H1276 H 0.8656 0.33743 0.4644 0.0
H1277 H 0.82474 0.46252 0.38599 0.0
H1278 H 0.83195 0.41661 0.52058 0.0
H1279 H 0.88962 0.43161 0.43863 0.0
C1280 C 0.8985 0.38947 0.43413 0.0
C1281 C 0.89122 0.36266 0.43873 0.0
C1282 C 0.8304 0.42758 0.49173 0.0
C1283 C 0.86425 0.40538 0.46327 0.0
C1284 C 0.81144 0.44273 0.4839 0.0
C1285 C 0.80829 0.45523 0.44509 0.0
C1286 C 0.84674 0.42587 0.46137 0.0
C1287 C 0.82583 0.45392 0.41657 0.0
C1288 C 0.8849 0.41097 0.44606 0.0
C1289 C 0.87158 0.35795 0.46011 0.0
N1290 N 0.8441 0.4394 0.42524 0.0
N1291 N 0.85851 0.37917 0.47104 0.0
H1292 H 0.03095 0.89035 0.68879 0.0
H1293 H 0.15385 0.89201 0.60707 0.0
H1294 H 0.06322 0.82124 0.63277 0.0
H1295 H 0.11935 0.96214 0.65425 0.0
H1296 H 0.12429 0.8629 0.63295 0.0
H1297 H 0.06616 0.91374 0.69244 0.0
C1298 C 0.0455 0.8799 0.67789 0.0
C1299 C 0.04407 0.85401 0.65968 0.0
C1300 C 0.12343 0.8846 0.6385 0.0
C1301 C 0.08442 0.88084 0.6632 0.0
C1302 C 0.14038 0.90116 0.62402 0.0
C1303 C 0.13873 0.92945 0.628 0.0
C1304 C 0.10484 0.89658 0.65686 0.0
C1305 C 0.12099 0.94038 0.65008 0.0
C1306 C 0.06561 0.89331 0.67983 0.0
C1307 C 0.06349 0.84151 0.64598 0.0
N1308 N 0.10453 0.92397 0.66309 0.0
N1309 N 0.08282 0.85518 0.6475 0.0
H1310 H 0.83687 0.151 0.65932 0.0
H1311 H 0.95894 0.165 0.72641 0.0
H1312 H 0.8744 0.08741 0.71712 0.0
H1313 H 0.92048 0.23295 0.68314 0.0
H1314 H 0.92558 0.14032 0.74025 0.0
H1315 H 0.86351 0.18438 0.68432 0.0
C1316 C 0.85034 0.14419 0.67848 0.0
C1317 C 0.85386 0.11642 0.68532 0.0
C1318 C 0.92432 0.16082 0.72843 0.0
C1319 C 0.88451 0.15424 0.71323 0.0
C1320 C 0.94352 0.1752 0.72078 0.0
C1321 C 0.94275 0.20111 0.70264 0.0
C1322 C 0.90408 0.17197 0.71688 0.0
C1323 C 0.92201 0.2127 0.6957 0.0
C1324 C 0.86561 0.16323 0.69259 0.0
C1325 C 0.8714 0.10863 0.7105 0.0
N1326 N 0.90352 0.1978 0.70189 0.0
N1327 N 0.88637 0.12739 0.72276 0.0
H1328 H 0.69617 0.09412 0.48941 0.0
H1329 H 0.58764 0.13373 0.37118 0.0
H1330 H 0.689 0.08947 0.35613 0.0
H1331 H 0.6207 0.19621 0.44141 0.0
H1332 H 0.61654 0.10162 0.39038 0.0
H1333 H 0.66088 0.11803 0.49295 0.0
C1334 C 0.68734 0.09776 0.46096 0.0
C1335 C 0.69593 0.08943 0.42233 0.0
C1336 C 0.61692 0.12211 0.40283 0.0
C1337 C 0.65505 0.1152 0.42702 0.0
C1338 C 0.60046 0.14038 0.39209 0.0
C1339 C 0.60209 0.16768 0.40425 0.0
C1340 C 0.63475 0.13117 0.42649 0.0
C1341 C 0.61909 0.17533 0.4311 0.0
C1342 C 0.66709 0.11109 0.46328 0.0
C1343 C 0.68316 0.0944 0.38686 0.0
N1344 N 0.63508 0.15721 0.44087 0.0
N1345 N 0.66341 0.10678 0.39016 0.0
H1346 H 0.31969 0.97059 0.37096 0.0
H1347 H 0.36438 0.84134 0.44574 0.0
H1348 H 0.29832 0.94709 0.49373 0.0
H1349 H 0.40911 0.89981 0.39354 0.0
H1350 H 0.34072 0.87872 0.46886 0.0
H1351 H 0.35309 0.94578 0.38116 0.0
C1352 C 0.322 0.96108 0.40071 0.0
C1353 C 0.30555 0.96118 0.4314 0.0
C1354 C 0.35613 0.88338 0.45376 0.0
C1355 C 0.34403 0.93095 0.4419 0.0
C1356 C 0.36958 0.8621 0.44049 0.0
C1357 C 0.38843 0.86762 0.4171 0.0
C1358 C 0.36134 0.91007 0.4423 0.0
C1359 C 0.39455 0.89476 0.41113 0.0
C1360 C 0.3413 0.9466 0.40628 0.0
C1361 C 0.30993 0.94706 0.46841 0.0
N1362 N 0.38064 0.91504 0.42243 0.0
N1363 N 0.32845 0.93182 0.47211 0.0
H1364 H 0.57164 0.31156 0.68138 0.0
H1365 H 0.62053 0.46102 0.68002 0.0
H1366 H 0.53472 0.38435 0.70869 0.0
H1367 H 0.65519 0.39037 0.63507 0.0
H1368 H 0.59284 0.43137 0.71057 0.0
H1369 H 0.60544 0.33824 0.68337 0.0
C1370 C 0.57067 0.33308 0.68839 0.0
C1371 C 0.55027 0.34586 0.69392 0.0
C1372 C 0.60673 0.42228 0.69479 0.0
C1373 C 0.58887 0.37643 0.69646 0.0
C1374 C 0.62258 0.43919 0.67751 0.0
C1375 C 0.63986 0.42805 0.65437 0.0
C1376 C 0.60809 0.39407 0.68843 0.0
C1377 C 0.64193 0.39971 0.65234 0.0
C1378 C 0.58997 0.34826 0.68969 0.0
C1379 C 0.55003 0.37363 0.70403 0.0
N1380 N 0.62593 0.38365 0.66841 0.0
N1381 N 0.56901 0.38807 0.70428 0.0
H1382 H 0.37496 0.57965 0.70458 0.0
H1383 H 0.42272 0.72816 0.68503 0.0
H1384 H 0.33873 0.6475 0.65566 0.0
H1385 H 0.45932 0.65775 0.72433 0.0
H1386 H 0.38876 0.70234 0.69357 0.0
H1387 H 0.40194 0.61124 0.733 0.0
C1388 C 0.37238 0.60129 0.70087 0.0
C1389 C 0.35497 0.61104 0.67699 0.0
C1390 C 0.40421 0.69277 0.70121 0.0
C1391 C 0.386 0.64721 0.70824 0.0
C1392 C 0.42361 0.70745 0.69611 0.0
C1393 C 0.44397 0.69496 0.70306 0.0
C1394 C 0.4052 0.66538 0.71311 0.0
C1395 C 0.44409 0.66831 0.71846 0.0
C1396 C 0.38783 0.61933 0.71691 0.0
C1397 C 0.35218 0.63921 0.67343 0.0
N1398 N 0.42505 0.6543 0.72225 0.0
N1399 N 0.36788 0.65635 0.68797 0.0
H1400 H 0.62619 0.71055 0.92986 0.0
H1401 H 0.69458 0.6035 0.84392 0.0
H1402 H 0.59193 0.64249 0.87566 0.0
H1403 H 0.70302 0.60742 0.97686 0.0
H1404 H 0.65908 0.62512 0.85166 0.0
H1405 H 0.65624 0.67992 0.94915 0.0
C1406 C 0.62462 0.68899 0.92357 0.0
C1407 C 0.60681 0.67895 0.90074 0.0
C1408 C 0.66869 0.62089 0.87908 0.0
C1409 C 0.64102 0.64447 0.92146 0.0
C1410 C 0.68896 0.60843 0.87486 0.0
C1411 C 0.70182 0.60289 0.90988 0.0
C1412 C 0.66143 0.62891 0.91832 0.0
C1413 C 0.69385 0.61134 0.94889 0.0
C1414 C 0.6417 0.67162 0.93459 0.0
C1415 C 0.60548 0.65096 0.89308 0.0
N1416 N 0.6742 0.62436 0.95206 0.0
N1417 N 0.62282 0.63477 0.90206 0.0
H1418 H 0.40613 0.39889 0.89254 0.0
H1419 H 0.28304 0.40994 0.9608 0.0
H1420 H 0.36716 0.33165 0.93592 0.0
H1421 H 0.32262 0.47992 0.93032 0.0
H1422 H 0.31608 0.38317 0.96802 0.0
H1423 H 0.37902 0.43042 0.92153 0.0
C1424 C 0.39219 0.39082 0.90926 0.0
C1425 C 0.38852 0.36274 0.91113 0.0
C1426 C 0.31764 0.4045 0.96044 0.0
C1427 C 0.3574 0.39843 0.94364 0.0
C1428 C 0.29867 0.41998 0.95661 0.0
C1429 C 0.2999 0.44724 0.94404 0.0
C1430 C 0.33804 0.41607 0.95073 0.0
C1431 C 0.3208 0.45877 0.9387 0.0
C1432 C 0.37667 0.40879 0.92566 0.0
C1433 C 0.37032 0.35323 0.9332 0.0
N1434 N 0.33903 0.44297 0.94117 0.0
N1435 N 0.3552 0.37104 0.94791 0.0
H1436 H 0.56401 0.81327 0.16244 0.0
H1437 H 0.61544 0.96059 0.17612 0.0
H1438 H 0.52952 0.88431 0.20673 0.0
H1439 H 0.65057 0.8904 0.13089 0.0
H1440 H 0.58708 0.93074 0.2037 0.0
H1441 H 0.59839 0.83869 0.16576 0.0
C1442 C 0.56373 0.83412 0.17338 0.0
C1443 C 0.54383 0.84687 0.18351 0.0
C1444 C 0.60118 0.92174 0.18851 0.0
C1445 C 0.58306 0.87605 0.18745 0.0
C1446 C 0.6174 0.93879 0.1729 0.0
C1447 C 0.63508 0.92787 0.15065 0.0
C1448 C 0.60249 0.89363 0.18108 0.0
C1449 C 0.63703 0.89956 0.1476 0.0
C1450 C 0.58337 0.84857 0.17547 0.0
C1451 C 0.54445 0.87368 0.19845 0.0
N1452 N 0.62064 0.88338 0.16185 0.0
N1453 N 0.5637 0.88752 0.19929 0.0
H1454 H 0.42723 0.22582 0.13474 0.0
H1455 H 0.3755 0.09959 0.20937 0.0
H1456 H 0.44378 0.2017 0.25974 0.0
H1457 H 0.33532 0.15874 0.14716 0.0
H1458 H 0.3995 0.13632 0.23346 0.0
H1459 H 0.39258 0.20324 0.14176 0.0
C1460 C 0.42365 0.21663 0.1643 0.0
C1461 C 0.43924 0.21562 0.19644 0.0
C1462 C 0.38497 0.14134 0.21584 0.0
C1463 C 0.3992 0.18803 0.20334 0.0
C1464 C 0.37131 0.12042 0.20204 0.0
C1465 C 0.3537 0.12621 0.1757 0.0
C1466 C 0.38124 0.16794 0.20204 0.0
C1467 C 0.3489 0.15345 0.1671 0.0
C1468 C 0.40361 0.20343 0.16802 0.0
C1469 C 0.43302 0.20227 0.23322 0.0
N1470 N 0.36304 0.1733 0.1791 0.0
N1471 N 0.4138 0.18823 0.23516 0.0
loop_
_geom_bond_atom_site_label_1
_geom_bond_atom_site_label_2
_geom_bond_distance
_geom_bond_site_symmetry_2
_ccdc_geom_bond_type
O0 Tb1 2.292 . S
O0 C3 1.255 . S
Tb1 O0 2.292 . S
Tb1 O17 2.326 . S
Tb1 O19 2.500 . S
Tb1 O20 2.473 . S
Tb1 O23 2.324 1_554 S
Eu2 O6 2.292 . S
Eu2 C7 2.852 1_554 S
Eu2 O18 2.324 . S
Eu2 O22 2.326 1_554 S
Eu2 O24 2.500 1_554 S
Eu2 O25 2.473 . S
C3 O0 1.255 . S
C3 O4 1.246 1_545 S
O4 C3 1.246 1_565 S
C5 O17 1.242 . S
C5 O18 1.258 . S
O6 Eu2 2.292 . S
O6 C8 1.255 . S
C7 Eu2 2.852 1_556 S
C7 C11 1.503 . S
C7 O24 1.273 . S
C7 O25 1.257 1_556 S
C8 O6 1.255 . S
C8 O9 1.247 . S
O9 C8 1.247 . S
C10 O22 1.242 . S
C10 O23 1.258 . S
C11 C7 1.503 . S
C11 C12 1.379 . S
C11 C16 1.392 . S
C12 C11 1.379 . S
C12 C13 1.404 . S
C12 H26 0.929 . S
C13 C12 1.404 . S
C13 C14 1.389 . S
C14 C13 1.389 . S
C14 C15 1.399 . S
C14 H27 0.931 . S
C15 C14 1.399 . S
C15 C16 1.390 . S
C16 C11 1.392 . S
C16 C15 1.390 . S
C16 H28 0.929 . S
O17 Tb1 2.326 . S
O17 C5 1.242 . S
O18 Eu2 2.324 . S
O18 C5 1.258 . S
O19 Tb1 2.500 . S
O19 C21 1.273 . S
O20 Tb1 2.473 . S
O20 C21 1.257 . S
C21 O19 1.273 . S
C21 O20 1.257 . S
O22 Eu2 2.326 1_556 S
O22 C10 1.242 . S
O23 Tb1 2.324 1_556 S
O23 C10 1.258 . S
O24 Eu2 2.500 1_556 S
O24 C7 1.273 . S
O25 Eu2 2.473 . S
O25 C7 1.257 1_554 S
H26 C12 0.929 . S
H27 C14 0.931 . S
H28 C16 0.929 . S
O29 Tb30 2.292 . S
O29 C32 1.255 . S
Tb30 O29 2.292 . S
Tb30 O46 2.326 . S
Tb30 O48 2.500 . S
Tb30 O49 2.473 . S
Tb30 O52 2.324 1_554 S
Eu31 O35 2.292 . S
Eu31 C36 2.852 1_554 S
Eu31 O47 2.324 . S
Eu31 O51 2.326 1_554 S
Eu31 O53 2.500 1_554 S
Eu31 O54 2.473 . S
C32 O29 1.255 . S
C32 O33 1.246 1_565 S
O33 C32 1.246 1_545 S
C34 O46 1.242 . S
C34 O47 1.258 . S
O35 Eu31 2.292 . S
O35 C37 1.255 . S
C36 Eu31 2.852 1_556 S
C36 C40 1.503 . S
C36 O53 1.273 . S
C36 O54 1.257 1_556 S
C37 O35 1.255 . S
C37 O38 1.247 . S
O38 C37 1.247 . S
C39 O51 1.242 . S
C39 O52 1.258 . S
C40 C36 1.503 . S
C40 C41 1.379 . S
C40 C45 1.392 . S
C41 C40 1.379 . S
C41 C42 1.404 . S
C41 H55 0.929 . S
C42 C41 1.404 . S
C42 C43 1.389 . S
C43 C42 1.389 . S
C43 C44 1.399 . S
C43 H56 0.931 . S
C44 C43 1.399 . S
C44 C45 1.390 . S
C45 C40 1.392 . S
C45 C44 1.390 . S
C45 H57 0.929 . S
O46 Tb30 2.326 . S
O46 C34 1.242 . S
O47 Eu31 2.324 . S
O47 C34 1.258 . S
O48 Tb30 2.500 . S
O48 C50 1.273 . S
O49 Tb30 2.473 . S
O49 C50 1.257 . S
C50 O48 1.273 . S
C50 O49 1.257 . S
O51 Eu31 2.326 1_556 S
O51 C39 1.242 . S
O52 Tb30 2.324 1_556 S
O52 C39 1.258 . S
O53 Eu31 2.500 1_556 S
O53 C36 1.273 . S
O54 Eu31 2.473 . S
O54 C36 1.257 1_554 S
H55 C41 0.929 . S
H56 C43 0.931 . S
H57 C45 0.929 . S
O58 Tb59 2.292 . S
O58 C61 1.255 . S
Tb59 O58 2.292 . S
Tb59 O75 2.326 . S
Tb59 O77 2.500 . S
Tb59 O78 2.473 . S
Tb59 O81 2.324 . S
Eu60 O64 2.292 . S
Eu60 C65 2.852 . S
Eu60 O76 2.324 . S
Eu60 O80 2.326 . S
Eu60 O82 2.477 1_655 S
Eu60 O83 2.473 . S
C61 O58 1.255 . S
C61 O62 1.247 . S
O62 C61 1.247 . S
C63 O75 1.242 . S
C63 O76 1.258 . S
O64 Eu60 2.292 . S
O64 C66 1.255 . S
C65 Eu60 2.852 . S
C65 C69 1.503 1_655 S
C65 O82 1.267 1_655 S
C65 O83 1.257 . S
C66 O64 1.255 . S
C66 O67 1.247 . S
O67 C66 1.247 . S
C68 O80 1.242 . S
C68 O81 1.258 . S
C69 C65 1.503 1_455 S
C69 C70 1.379 1_455 S
C69 C74 1.392 . S
C70 C69 1.379 1_655 S
C70 C71 1.404 1_655 S
C70 H84 0.929 . S
C71 C70 1.404 1_455 S
C71 C72 1.389 . S
C72 C71 1.389 . S
C72 C73 1.399 . S
C72 H85 0.931 . S
C73 C72 1.399 . S
C73 C74 1.390 . S
C74 C69 1.392 . S
C74 C73 1.390 . S
C74 H86 0.929 . S
O75 Tb59 2.326 . S
O75 C63 1.242 . S
O76 Eu60 2.324 . S
O76 C63 1.258 . S
O77 Tb59 2.500 . S
O77 C79 1.273 . S
O78 Tb59 2.473 . S
O78 C79 1.257 . S
C79 O77 1.273 . S
C79 O78 1.257 . S
O80 Eu60 2.326 . S
O80 C68 1.242 . S
O81 Tb59 2.324 . S
O81 C68 1.258 . S
O82 Eu60 2.477 1_455 S
O82 C65 1.267 1_455 S
O83 Eu60 2.473 . S
O83 C65 1.257 . S
H84 C70 0.929 . S
H85 C72 0.931 . S
H86 C74 0.929 . S
O87 Tb88 2.292 . S
O87 C90 1.255 . S
Tb88 O87 2.292 . S
Tb88 O104 2.326 . S
Tb88 O106 2.500 . S
Tb88 O107 2.473 . S
Tb88 O110 2.324 . S
Eu89 O93 2.292 . S
Eu89 C94 2.852 . S
Eu89 O105 2.324 . S
Eu89 O109 2.326 . S
Eu89 O111 2.477 1_455 S
Eu89 O112 2.473 . S
C90 O87 1.255 . S
C90 O91 1.247 . S
O91 C90 1.247 . S
C92 O104 1.242 . S
C92 O105 1.258 . S
O93 Eu89 2.292 . S
O93 C95 1.255 . S
C94 Eu89 2.852 . S
C94 C98 1.503 1_455 S
C94 O111 1.267 1_455 S
C94 O112 1.257 . S
C95 O93 1.255 . S
C95 O96 1.247 . S
O96 C95 1.247 . S
C97 O109 1.242 . S
C97 O110 1.258 . S
C98 C94 1.503 1_655 S
C98 C99 1.379 1_655 S
C98 C103 1.392 . S
C99 C98 1.379 1_455 S
C99 C100 1.404 1_455 S
C99 H113 0.929 . S
C100 C99 1.404 1_655 S
C100 C101 1.389 . S
C101 C100 1.389 . S
C101 C102 1.399 . S
C101 H114 0.931 . S
C102 C101 1.399 . S
C102 C103 1.390 . S
C103 C98 1.392 . S
C103 C102 1.390 . S
C103 H115 0.929 . S
O104 Tb88 2.326 . S
O104 C92 1.242 . S
O105 Eu89 2.324 . S
O105 C92 1.258 . S
O106 Tb88 2.500 . S
O106 C108 1.273 . S
O107 Tb88 2.473 . S
O107 C108 1.257 . S
C108 O106 1.273 . S
C108 O107 1.257 . S
O109 Eu89 2.326 . S
O109 C97 1.242 . S
O110 Tb88 2.324 . S
O110 C97 1.258 . S
O111 Eu89 2.477 1_655 S
O111 C94 1.267 1_655 S
O112 Eu89 2.473 . S
O112 C94 1.257 . S
H113 C99 0.929 . S
H114 C101 0.931 . S
H115 C103 0.929 . S
O116 Tb117 2.292 . S
O116 C119 1.255 . S
Tb117 O116 2.292 . S
Tb117 O133 2.326 . S
Tb117 O135 2.500 . S
Tb117 O136 2.473 . S
Tb117 O139 2.324 . S
Eu118 O122 2.292 . S
Eu118 C123 2.852 . S
Eu118 O134 2.324 . S
Eu118 O138 2.326 . S
Eu118 O140 2.500 . S
Eu118 O141 2.473 . S
C119 O116 1.255 . S
C119 O120 1.247 . S
O120 C119 1.247 . S
C121 O133 1.242 . S
C121 O134 1.258 . S
O122 Eu118 2.292 . S
O122 C124 1.255 . S
C123 Eu118 2.852 . S
C123 C127 1.503 . S
C123 O140 1.273 . S
C123 O141 1.257 . S
C124 O122 1.255 . S
C124 O125 1.247 . S
O125 C124 1.247 . S
C126 O138 1.242 . S
C126 O139 1.258 . S
C127 C123 1.503 . S
C127 C128 1.379 . S
C127 C132 1.392 . S
C128 C127 1.379 . S
C128 C129 1.404 . S
C128 H142 0.929 . S
C129 C128 1.404 . S
C129 C130 1.389 . S
C130 C129 1.389 . S
C130 C131 1.399 . S
C130 H143 0.931 . S
C131 C130 1.399 . S
C131 C132 1.390 . S
C132 C127 1.392 . S
C132 C131 1.390 . S
C132 H144 0.929 . S
O133 Tb117 2.326 . S
O133 C121 1.242 . S
O134 Eu118 2.324 . S
O134 C121 1.258 . S
O135 Tb117 2.500 . S
O135 C137 1.273 . S
O136 Tb117 2.473 . S
O136 C137 1.257 . S
C137 O135 1.273 . S
C137 O136 1.257 . S
O138 Eu118 2.326 . S
O138 C126 1.242 . S
O139 Tb117 2.324 . S
O139 C126 1.258 . S
O140 Eu118 2.500 . S
O140 C123 1.273 . S
O141 Eu118 2.473 . S
O141 C123 1.257 . S
H142 C128 0.929 . S
H143 C130 0.931 . S
H144 C132 0.929 . S
O145 Tb146 2.292 . S
O145 C148 1.255 . S
Tb146 O145 2.292 . S
Tb146 O162 2.326 . S
Tb146 O164 2.500 . S
Tb146 O165 2.473 . S
Tb146 O168 2.324 . S
Eu147 O151 2.292 . S
Eu147 C152 2.852 . S
Eu147 O163 2.324 . S
Eu147 O167 2.326 . S
Eu147 O169 2.500 . S
Eu147 O170 2.473 . S
C148 O145 1.255 . S
C148 O149 1.247 . S
O149 C148 1.247 . S
C150 O162 1.242 . S
C150 O163 1.258 . S
O151 Eu147 2.292 . S
O151 C153 1.255 . S
C152 Eu147 2.852 . S
C152 C156 1.503 . S
C152 O169 1.273 . S
C152 O170 1.257 . S
C153 O151 1.255 . S
C153 O154 1.247 . S
O154 C153 1.247 . S
C155 O167 1.242 . S
C155 O168 1.258 . S
C156 C152 1.503 . S
C156 C157 1.379 . S
C156 C161 1.392 . S
C157 C156 1.379 . S
C157 C158 1.404 . S
C157 H171 0.929 . S
C158 C157 1.404 . S
C158 C159 1.389 . S
C159 C158 1.389 . S
C159 C160 1.399 . S
C159 H172 0.931 . S
C160 C159 1.399 . S
C160 C161 1.390 . S
C161 C156 1.392 . S
C161 C160 1.390 . S
C161 H173 0.929 . S
O162 Tb146 2.326 . S
O162 C150 1.242 . S
O163 Eu147 2.324 . S
O163 C150 1.258 . S
O164 Tb146 2.500 . S
O164 C166 1.273 . S
O165 Tb146 2.473 . S
O165 C166 1.257 . S
C166 O164 1.273 . S
C166 O165 1.257 . S
O167 Eu147 2.326 . S
O167 C155 1.242 . S
O168 Tb146 2.324 . S
O168 C155 1.258 . S
O169 Eu147 2.500 . S
O169 C152 1.273 . S
O170 Eu147 2.473 . S
O170 C152 1.257 . S
H171 C157 0.929 . S
H172 C159 0.931 . S
H173 C161 0.929 . S
O174 Tb175 2.292 . S
O174 C177 1.255 . S
Tb175 O174 2.292 . S
Tb175 O191 2.326 . S
Tb175 O193 2.500 . S
Tb175 O194 2.473 . S
Tb175 O197 2.324 . S
Eu176 O180 2.292 . S
Eu176 C181 2.852 . S
Eu176 O192 2.324 . S
Eu176 O196 2.326 . S
Eu176 O198 2.477 1_655 S
Eu176 O199 2.473 . S
C177 O174 1.255 . S
C177 O178 1.247 . S
O178 C177 1.247 . S
C179 O191 1.242 . S
C179 O192 1.258 . S
O180 Eu176 2.292 . S
O180 C182 1.255 . S
C181 Eu176 2.852 . S
C181 C185 1.503 1_655 S
C181 O198 1.267 1_655 S
C181 O199 1.257 . S
C182 O180 1.255 . S
C182 O183 1.247 . S
O183 C182 1.247 . S
C184 O196 1.242 . S
C184 O197 1.258 . S
C185 C181 1.503 1_455 S
C185 C186 1.379 1_455 S
C185 C190 1.392 . S
C186 C185 1.379 1_655 S
C186 C187 1.404 1_655 S
C186 H200 0.929 . S
C187 C186 1.404 1_455 S
C187 C188 1.389 . S
C188 C187 1.389 . S
C188 C189 1.399 . S
C188 H201 0.931 . S
C189 C188 1.399 . S
C189 C190 1.390 . S
C190 C185 1.392 . S
C190 C189 1.390 . S
C190 H202 0.929 . S
O191 Tb175 2.326 . S
O191 C179 1.242 . S
O192 Eu176 2.324 . S
O192 C179 1.258 . S
O193 Tb175 2.500 . S
O193 C195 1.273 . S
O194 Tb175 2.473 . S
O194 C195 1.257 . S
C195 O193 1.273 . S
C195 O194 1.257 . S
O196 Eu176 2.326 . S
O196 C184 1.242 . S
O197 Tb175 2.324 . S
O197 C184 1.258 . S
O198 Eu176 2.477 1_455 S
O198 C181 1.267 1_455 S
O199 Eu176 2.473 . S
O199 C181 1.257 . S
H200 C186 0.929 . S
H201 C188 0.931 . S
H202 C190 0.929 . S
O203 Tb204 2.292 . S
O203 C206 1.255 . S
Tb204 O203 2.292 . S
Tb204 O220 2.326 . S
Tb204 O222 2.500 . S
Tb204 O223 2.473 . S
Tb204 O226 2.324 . S
Eu205 O209 2.292 . S
Eu205 C210 2.852 . S
Eu205 O221 2.324 . S
Eu205 O225 2.326 . S
Eu205 O227 2.477 1_455 S
Eu205 O228 2.473 . S
C206 O203 1.255 . S
C206 O207 1.247 . S
O207 C206 1.247 . S
C208 O220 1.242 . S
C208 O221 1.258 . S
O209 Eu205 2.292 . S
O209 C211 1.255 . S
C210 Eu205 2.852 . S
C210 C214 1.503 1_455 S
C210 O227 1.267 1_455 S
C210 O228 1.257 . S
C211 O209 1.255 . S
C211 O212 1.247 . S
O212 C211 1.247 . S
C213 O225 1.242 . S
C213 O226 1.258 . S
C214 C210 1.503 1_655 S
C214 C215 1.379 1_655 S
C214 C219 1.392 . S
C215 C214 1.379 1_455 S
C215 C216 1.404 1_455 S
C215 H229 0.929 . S
C216 C215 1.404 1_655 S
C216 C217 1.389 . S
C217 C216 1.389 . S
C217 C218 1.399 . S
C217 H230 0.931 . S
C218 C217 1.399 . S
C218 C219 1.390 . S
C219 C214 1.392 . S
C219 C218 1.390 . S
C219 H231 0.929 . S
O220 Tb204 2.326 . S
O220 C208 1.242 . S
O221 Eu205 2.324 . S
O221 C208 1.258 . S
O222 Tb204 2.500 . S
O222 C224 1.273 . S
O223 Tb204 2.473 . S
O223 C224 1.257 . S
C224 O222 1.273 . S
C224 O223 1.257 . S
O225 Eu205 2.326 . S
O225 C213 1.242 . S
O226 Tb204 2.324 . S
O226 C213 1.258 . S
O227 Eu205 2.477 1_655 S
O227 C210 1.267 1_655 S
O228 Eu205 2.473 . S
O228 C210 1.257 . S
H229 C215 0.929 . S
H230 C217 0.931 . S
H231 C219 0.929 . S
O232 Tb233 2.292 . S
O232 C235 1.255 . S
Tb233 O232 2.292 . S
Tb233 O249 2.326 . S
Tb233 O251 2.500 . S
Tb233 O252 2.473 . S
Tb233 O255 2.324 . S
Eu234 O238 2.292 . S
Eu234 C239 2.852 . S
Eu234 O250 2.324 . S
Eu234 O254 2.326 . S
Eu234 O256 2.500 . S
Eu234 O257 2.473 . S
C235 O232 1.255 . S
C235 O236 1.246 1_545 S
O236 C235 1.246 1_565 S
C237 O249 1.242 . S
C237 O250 1.258 . S
O238 Eu234 2.292 . S
O238 C240 1.255 . S
C239 Eu234 2.852 . S
C239 C243 1.503 . S
C239 O256 1.273 . S
C239 O257 1.257 . S
C240 O238 1.255 . S
C240 O241 1.247 . S
O241 C240 1.247 . S
C242 O254 1.242 . S
C242 O255 1.258 . S
C243 C239 1.503 . S
C243 C244 1.379 . S
C243 C248 1.392 . S
C244 C243 1.379 . S
C244 C245 1.404 . S
C244 H258 0.929 . S
C245 C244 1.404 . S
C245 C246 1.389 . S
C246 C245 1.389 . S
C246 C247 1.399 . S
C246 H259 0.931 . S
C247 C246 1.399 . S
C247 C248 1.390 . S
C248 C243 1.392 . S
C248 C247 1.390 . S
C248 H260 0.929 . S
O249 Tb233 2.326 . S
O249 C237 1.242 . S
O250 Eu234 2.324 . S
O250 C237 1.258 . S
O251 Tb233 2.500 . S
O251 C253 1.273 . S
O252 Tb233 2.473 . S
O252 C253 1.257 . S
C253 O251 1.273 . S
C253 O252 1.257 . S
O254 Eu234 2.326 . S
O254 C242 1.242 . S
O255 Tb233 2.324 . S
O255 C242 1.258 . S
O256 Eu234 2.500 . S
O256 C239 1.273 . S
O257 Eu234 2.473 . S
O257 C239 1.257 . S
H258 C244 0.929 . S
H259 C246 0.931 . S
H260 C248 0.929 . S
O261 Tb262 2.292 . S
O261 C264 1.255 . S
Tb262 O261 2.292 . S
Tb262 O278 2.326 . S
Tb262 O280 2.500 . S
Tb262 O281 2.473 . S
Tb262 O284 2.324 . S
Eu263 O267 2.292 . S
Eu263 C268 2.852 . S
Eu263 O279 2.324 . S
Eu263 O283 2.326 . S
Eu263 O285 2.500 . S
Eu263 O286 2.473 . S
C264 O261 1.255 . S
C264 O265 1.246 1_565 S
O265 C264 1.246 1_545 S
C266 O278 1.242 . S
C266 O279 1.258 . S
O267 Eu263 2.292 . S
O267 C269 1.255 . S
C268 Eu263 2.852 . S
C268 C272 1.503 . S
C268 O285 1.273 . S
C268 O286 1.257 . S
C269 O267 1.255 . S
C269 O270 1.247 . S
O270 C269 1.247 . S
C271 O283 1.242 . S
C271 O284 1.258 . S
C272 C268 1.503 . S
C272 C273 1.379 . S
C272 C277 1.392 . S
C273 C272 1.379 . S
C273 C274 1.404 . S
C273 H287 0.929 . S
C274 C273 1.404 . S
C274 C275 1.389 . S
C275 C274 1.389 . S
C275 C276 1.399 . S
C275 H288 0.931 . S
C276 C275 1.399 . S
C276 C277 1.390 . S
C277 C272 1.392 . S
C277 C276 1.390 . S
C277 H289 0.929 . S
O278 Tb262 2.326 . S
O278 C266 1.242 . S
O279 Eu263 2.324 . S
O279 C266 1.258 . S
O280 Tb262 2.500 . S
O280 C282 1.273 . S
O281 Tb262 2.473 . S
O281 C282 1.257 . S
C282 O280 1.273 . S
C282 O281 1.257 . S
O283 Eu263 2.326 . S
O283 C271 1.242 . S
O284 Tb262 2.324 . S
O284 C271 1.258 . S
O285 Eu263 2.500 . S
O285 C268 1.273 . S
O286 Eu263 2.473 . S
O286 C268 1.257 . S
H287 C273 0.929 . S
H288 C275 0.931 . S
H289 C277 0.929 . S
O290 Tb291 2.292 . S
O290 C293 1.255 . S
Tb291 O290 2.292 . S
Tb291 O307 2.326 . S
Tb291 O309 2.500 . S
Tb291 O310 2.473 . S
Tb291 O313 2.324 . S
Eu292 O296 2.292 . S
Eu292 C297 2.852 . S
Eu292 O308 2.324 . S
Eu292 O312 2.326 . S
Eu292 O314 2.500 . S
Eu292 O315 2.473 . S
C293 O290 1.255 . S
C293 O294 1.247 . S
O294 C293 1.247 . S
C295 O307 1.242 . S
C295 O308 1.258 . S
O296 Eu292 2.292 . S
O296 C298 1.255 . S
C297 Eu292 2.852 . S
C297 C301 1.503 . S
C297 O314 1.273 . S
C297 O315 1.257 . S
C298 O296 1.255 . S
C298 O299 1.247 . S
O299 C298 1.247 . S
C300 O312 1.242 . S
C300 O313 1.258 . S
C301 C297 1.503 . S
C301 C302 1.379 . S
C301 C306 1.392 . S
C302 C301 1.379 . S
C302 C303 1.404 . S
C302 H316 0.929 . S
C303 C302 1.404 . S
C303 C304 1.389 . S
C304 C303 1.389 . S
C304 C305 1.399 . S
C304 H317 0.931 . S
C305 C304 1.399 . S
C305 C306 1.390 . S
C306 C301 1.392 . S
C306 C305 1.390 . S
C306 H318 0.929 . S
O307 Tb291 2.326 . S
O307 C295 1.242 . S
O308 Eu292 2.324 . S
O308 C295 1.258 . S
O309 Tb291 2.500 . S
O309 C311 1.273 . S
O310 Tb291 2.473 . S
O310 C311 1.257 . S
C311 O309 1.273 . S
C311 O310 1.257 . S
O312 Eu292 2.326 . S
O312 C300 1.242 . S
O313 Tb291 2.324 . S
O313 C300 1.258 . S
O314 Eu292 2.500 . S
O314 C297 1.273 . S
O315 Eu292 2.473 . S
O315 C297 1.257 . S
H316 C302 0.929 . S
H317 C304 0.931 . S
H318 C306 0.929 . S
O319 Tb320 2.292 . S
O319 C322 1.255 . S
Tb320 O319 2.292 . S
Tb320 O336 2.326 . S
Tb320 O338 2.500 . S
Tb320 O339 2.473 . S
Tb320 O342 2.324 . S
Eu321 O325 2.292 . S
Eu321 C326 2.852 . S
Eu321 O337 2.324 . S
Eu321 O341 2.326 . S
Eu321 O343 2.500 . S
Eu321 O344 2.473 . S
C322 O319 1.255 . S
C322 O323 1.247 . S
O323 C322 1.247 . S
C324 O336 1.242 . S
C324 O337 1.258 . S
O325 Eu321 2.292 . S
O325 C327 1.255 . S
C326 Eu321 2.852 . S
C326 C330 1.503 . S
C326 O343 1.273 . S
C326 O344 1.257 . S
C327 O325 1.255 . S
C327 O328 1.247 . S
O328 C327 1.247 . S
C329 O341 1.242 . S
C329 O342 1.258 . S
C330 C326 1.503 . S
C330 C331 1.379 . S
C330 C335 1.392 . S
C331 C330 1.379 . S
C331 C332 1.404 . S
C331 H345 0.929 . S
C332 C331 1.404 . S
C332 C333 1.389 . S
C333 C332 1.389 . S
C333 C334 1.399 . S
C333 H346 0.931 . S
C334 C333 1.399 . S
C334 C335 1.390 . S
C335 C330 1.392 . S
C335 C334 1.390 . S
C335 H347 0.929 . S
O336 Tb320 2.326 . S
O336 C324 1.242 . S
O337 Eu321 2.324 . S
O337 C324 1.258 . S
O338 Tb320 2.500 . S
O338 C340 1.273 . S
O339 Tb320 2.473 . S
O339 C340 1.257 . S
C340 O338 1.273 . S
C340 O339 1.257 . S
O341 Eu321 2.326 . S
O341 C329 1.242 . S
O342 Tb320 2.324 . S
O342 C329 1.258 . S
O343 Eu321 2.500 . S
O343 C326 1.273 . S
O344 Eu321 2.473 . S
O344 C326 1.257 . S
H345 C331 0.929 . S
H346 C333 0.931 . S
H347 C335 0.929 . S
O348 Tb349 2.292 . S
O348 C351 1.255 . S
Tb349 O348 2.292 . S
Tb349 O365 2.326 . S
Tb349 O367 2.500 . S
Tb349 O368 2.473 . S
Tb349 O371 2.324 1_554 S
Eu350 O354 2.292 . S
Eu350 C355 2.852 1_554 S
Eu350 O366 2.324 . S
Eu350 O370 2.326 1_554 S
Eu350 O372 2.500 1_554 S
Eu350 O373 2.473 . S
C351 O348 1.255 . S
C351 O352 1.247 . S
O352 C351 1.247 . S
C353 O365 1.242 . S
C353 O366 1.258 . S
O354 Eu350 2.292 . S
O354 C356 1.255 . S
C355 Eu350 2.852 1_556 S
C355 C359 1.503 . S
C355 O372 1.273 . S
C355 O373 1.257 1_556 S
C356 O354 1.255 . S
C356 O357 1.247 . S
O357 C356 1.247 . S
C358 O370 1.242 . S
C358 O371 1.258 . S
C359 C355 1.503 . S
C359 C360 1.379 . S
C359 C364 1.392 . S
C360 C359 1.379 . S
C360 C361 1.404 . S
C360 H374 0.929 . S
C361 C360 1.404 . S
C361 C362 1.389 . S
C362 C361 1.389 . S
C362 C363 1.399 . S
C362 H375 0.931 . S
C363 C362 1.399 . S
C363 C364 1.390 . S
C364 C359 1.392 . S
C364 C363 1.390 . S
C364 H376 0.929 . S
O365 Tb349 2.326 . S
O365 C353 1.242 . S
O366 Eu350 2.324 . S
O366 C353 1.258 . S
O367 Tb349 2.500 . S
O367 C369 1.273 . S
O368 Tb349 2.473 . S
O368 C369 1.257 . S
C369 O367 1.273 . S
C369 O368 1.257 . S
O370 Eu350 2.326 1_556 S
O370 C358 1.242 . S
O371 Tb349 2.324 1_556 S
O371 C358 1.258 . S
O372 Eu350 2.500 1_556 S
O372 C355 1.273 . S
O373 Eu350 2.473 . S
O373 C355 1.257 1_554 S
H374 C360 0.929 . S
H375 C362 0.931 . S
H376 C364 0.929 . S
O377 Tb378 2.292 . S
O377 C380 1.255 . S
Tb378 O377 2.292 . S
Tb378 O394 2.326 . S
Tb378 O396 2.500 . S
Tb378 O397 2.473 . S
Tb378 O400 2.324 1_554 S
Eu379 O383 2.292 . S
Eu379 C384 2.852 1_554 S
Eu379 O395 2.324 . S
Eu379 O399 2.326 1_554 S
Eu379 O401 2.500 1_554 S
Eu379 O402 2.473 . S
C380 O377 1.255 . S
C380 O381 1.247 . S
O381 C380 1.247 . S
C382 O394 1.242 . S
C382 O395 1.258 . S
O383 Eu379 2.292 . S
O383 C385 1.255 . S
C384 Eu379 2.852 1_556 S
C384 C388 1.503 . S
C384 O401 1.273 . S
C384 O402 1.257 1_556 S
C385 O383 1.255 . S
C385 O386 1.247 . S
O386 C385 1.247 . S
C387 O399 1.242 . S
C387 O400 1.258 . S
C388 C384 1.503 . S
C388 C389 1.379 . S
C388 C393 1.392 . S
C389 C388 1.379 . S
C389 C390 1.404 . S
C389 H403 0.929 . S
C390 C389 1.404 . S
C390 C391 1.389 . S
C391 C390 1.389 . S
C391 C392 1.399 . S
C391 H404 0.931 . S
C392 C391 1.399 . S
C392 C393 1.390 . S
C393 C388 1.392 . S
C393 C392 1.390 . S
C393 H405 0.929 . S
O394 Tb378 2.326 . S
O394 C382 1.242 . S
O395 Eu379 2.324 . S
O395 C382 1.258 . S
O396 Tb378 2.500 . S
O396 C398 1.273 . S
O397 Tb378 2.473 . S
O397 C398 1.257 . S
C398 O396 1.273 . S
C398 O397 1.257 . S
O399 Eu379 2.326 1_556 S
O399 C387 1.242 . S
O400 Tb378 2.324 1_556 S
O400 C387 1.258 . S
O401 Eu379 2.500 1_556 S
O401 C384 1.273 . S
O402 Eu379 2.473 . S
O402 C384 1.257 1_554 S
H403 C389 0.929 . S
H404 C391 0.931 . S
H405 C393 0.929 . S
O406 Tb407 2.292 . S
O406 C409 1.255 . S
Tb407 O406 2.292 . S
Tb407 O423 2.326 . S
Tb407 O425 2.500 . S
Tb407 O426 2.473 . S
Tb407 O429 2.324 . S
Eu408 O412 2.292 . S
Eu408 C413 2.852 . S
Eu408 O424 2.324 . S
Eu408 O428 2.326 . S
Eu408 O430 2.500 . S
Eu408 O431 2.473 . S
C409 O406 1.255 . S
C409 O410 1.247 . S
O410 C409 1.247 . S
C411 O423 1.242 . S
C411 O424 1.258 . S
O412 Eu408 2.292 . S
O412 C414 1.255 . S
C413 Eu408 2.852 . S
C413 C417 1.503 . S
C413 O430 1.273 . S
C413 O431 1.257 . S
C414 O412 1.255 . S
C414 O415 1.247 . S
O415 C414 1.247 . S
C416 O428 1.242 . S
C416 O429 1.258 . S
C417 C413 1.503 . S
C417 C418 1.379 . S
C417 C422 1.392 . S
C418 C417 1.379 . S
C418 C419 1.404 . S
C418 H432 0.929 . S
C419 C418 1.404 . S
C419 C420 1.389 . S
C420 C419 1.389 . S
C420 C421 1.399 . S
C420 H433 0.931 . S
C421 C420 1.399 . S
C421 C422 1.390 . S
C422 C417 1.392 . S
C422 C421 1.390 . S
C422 H434 0.929 . S
O423 Tb407 2.326 . S
O423 C411 1.242 . S
O424 Eu408 2.324 . S
O424 C411 1.258 . S
O425 Tb407 2.500 . S
O425 C427 1.273 . S
O426 Tb407 2.473 . S
O426 C427 1.257 . S
C427 O425 1.273 . S
C427 O426 1.257 . S
O428 Eu408 2.326 . S
O428 C416 1.242 . S
O429 Tb407 2.324 . S
O429 C416 1.258 . S
O430 Eu408 2.500 . S
O430 C413 1.273 . S
O431 Eu408 2.473 . S
O431 C413 1.257 . S
H432 C418 0.929 . S
H433 C420 0.931 . S
H434 C422 0.929 . S
O435 Tb436 2.292 . S
O435 C438 1.255 . S
Tb436 O435 2.292 . S
Tb436 O452 2.326 . S
Tb436 O454 2.500 . S
Tb436 O455 2.473 . S
Tb436 O458 2.324 . S
Eu437 O441 2.292 . S
Eu437 C442 2.852 . S
Eu437 O453 2.324 . S
Eu437 O457 2.326 . S
Eu437 O459 2.500 . S
Eu437 O460 2.473 . S
C438 O435 1.255 . S
C438 O439 1.247 . S
O439 C438 1.247 . S
C440 O452 1.242 . S
C440 O453 1.258 . S
O441 Eu437 2.292 . S
O441 C443 1.255 . S
C442 Eu437 2.852 . S
C442 C446 1.503 . S
C442 O459 1.273 . S
C442 O460 1.257 . S
C443 O441 1.255 . S
C443 O444 1.247 . S
O444 C443 1.247 . S
C445 O457 1.242 . S
C445 O458 1.258 . S
C446 C442 1.503 . S
C446 C447 1.379 . S
C446 C451 1.392 . S
C447 C446 1.379 . S
C447 C448 1.404 . S
C447 H461 0.929 . S
C448 C447 1.404 . S
C448 C449 1.389 . S
C449 C448 1.389 . S
C449 C450 1.399 . S
C449 H462 0.931 . S
C450 C449 1.399 . S
C450 C451 1.390 . S
C451 C446 1.392 . S
C451 C450 1.390 . S
C451 H463 0.929 . S
O452 Tb436 2.326 . S
O452 C440 1.242 . S
O453 Eu437 2.324 . S
O453 C440 1.258 . S
O454 Tb436 2.500 . S
O454 C456 1.273 . S
O455 Tb436 2.473 . S
O455 C456 1.257 . S
C456 O454 1.273 . S
C456 O455 1.257 . S
O457 Eu437 2.326 . S
O457 C445 1.242 . S
O458 Tb436 2.324 . S
O458 C445 1.258 . S
O459 Eu437 2.500 . S
O459 C442 1.273 . S
O460 Eu437 2.473 . S
O460 C442 1.257 . S
H461 C447 0.929 . S
H462 C449 0.931 . S
H463 C451 0.929 . S
H464 C470 0.930 . S
H465 C474 0.930 . S
H466 C479 0.929 . S
H467 C477 0.929 . S
H468 C472 0.929 . S
H469 C478 0.929 . S
C470 H464 0.930 . S
C470 C471 1.367 . S
C470 C478 1.378 . S
C471 C470 1.367 . S
C471 C479 1.433 . S
C472 H468 0.929 . S
C472 C474 1.378 . S
C472 C476 1.350 . S
C473 C476 1.463 . S
C473 C478 1.350 . S
C473 N481 1.427 . S
C474 H465 0.930 . S
C474 C472 1.378 . S
C474 C475 1.367 . S
C475 C474 1.367 . S
C475 C477 1.433 . S
C476 C472 1.350 . S
C476 C473 1.463 . S
C476 N480 1.427 . S
C477 H467 0.929 . S
C477 C475 1.433 . S
C477 N480 1.384 . S
C478 H469 0.929 . S
C478 C470 1.378 . S
C478 C473 1.350 . S
C479 H466 0.929 . S
C479 C471 1.433 . S
C479 N481 1.384 . S
N480 C476 1.427 . S
N480 C477 1.384 . S
N481 C473 1.427 . S
N481 C479 1.384 . S
H482 C488 0.930 . S
H483 C492 0.930 . S
H484 C497 0.929 . S
H485 C495 0.929 . S
H486 C490 0.929 . S
H487 C496 0.929 . S
C488 H482 0.930 . S
C488 C489 1.367 . S
C488 C496 1.378 . S
C489 C488 1.367 . S
C489 C497 1.433 . S
C490 H486 0.929 . S
C490 C492 1.378 . S
C490 C494 1.350 . S
C491 C494 1.463 . S
C491 C496 1.350 . S
C491 N499 1.427 . S
C492 H483 0.930 . S
C492 C490 1.378 . S
C492 C493 1.367 . S
C493 C492 1.367 . S
C493 C495 1.433 . S
C494 C490 1.350 . S
C494 C491 1.463 . S
C494 N498 1.427 . S
C495 H485 0.929 . S
C495 C493 1.433 . S
C495 N498 1.384 . S
C496 H487 0.929 . S
C496 C488 1.378 . S
C496 C491 1.350 . S
C497 H484 0.929 . S
C497 C489 1.433 . S
C497 N499 1.384 . S
N498 C494 1.427 . S
N498 C495 1.384 . S
N499 C491 1.427 . S
N499 C497 1.384 . S
H500 C506 0.930 . S
H501 C510 0.930 . S
H502 C515 0.929 . S
H503 C513 0.929 . S
H504 C508 0.929 . S
H505 C514 0.929 . S
C506 H500 0.930 . S
C506 C507 1.367 . S
C506 C514 1.378 . S
C507 C506 1.367 . S
C507 C515 1.433 . S
C508 H504 0.929 . S
C508 C510 1.378 . S
C508 C512 1.350 . S
C509 C512 1.463 . S
C509 C514 1.350 . S
C509 N517 1.427 . S
C510 H501 0.930 . S
C510 C508 1.378 . S
C510 C511 1.367 . S
C511 C510 1.367 . S
C511 C513 1.433 . S
C512 C508 1.350 . S
C512 C509 1.463 . S
C512 N516 1.427 . S
C513 H503 0.929 . S
C513 C511 1.433 . S
C513 N516 1.384 . S
C514 H505 0.929 . S
C514 C506 1.378 . S
C514 C509 1.350 . S
C515 H502 0.929 . S
C515 C507 1.433 . S
C515 N517 1.384 . S
N516 C512 1.427 . S
N516 C513 1.384 . S
N517 C509 1.427 . S
N517 C515 1.384 . S
H518 C524 0.930 . S
H519 C528 0.930 . S
H520 C533 0.929 . S
H521 C531 0.929 . S
H522 C526 0.929 . S
H523 C532 0.929 . S
C524 H518 0.930 . S
C524 C525 1.367 . S
C524 C532 1.378 . S
C525 C524 1.367 . S
C525 C533 1.433 . S
C526 H522 0.929 . S
C526 C528 1.378 . S
C526 C530 1.350 . S
C527 C530 1.463 . S
C527 C532 1.350 . S
C527 N535 1.427 . S
C528 H519 0.930 . S
C528 C526 1.378 . S
C528 C529 1.367 . S
C529 C528 1.367 . S
C529 C531 1.433 . S
C530 C526 1.350 . S
C530 C527 1.463 . S
C530 N534 1.427 . S
C531 H521 0.929 . S
C531 C529 1.433 . S
C531 N534 1.384 . S
C532 H523 0.929 . S
C532 C524 1.378 . S
C532 C527 1.350 . S
C533 H520 0.929 . S
C533 C525 1.433 . S
C533 N535 1.384 . S
N534 C530 1.427 . S
N534 C531 1.384 . S
N535 C527 1.427 . S
N535 C533 1.384 . S
H536 C542 0.930 . S
H537 C546 0.930 . S
H538 C551 0.929 . S
H539 C549 0.929 . S
H540 C544 0.929 . S
H541 C550 0.929 . S
C542 H536 0.930 . S
C542 C543 1.367 . S
C542 C550 1.378 . S
C543 C542 1.367 . S
C543 C551 1.433 . S
C544 H540 0.929 . S
C544 C546 1.378 . S
C544 C548 1.350 . S
C545 C548 1.463 . S
C545 C550 1.350 . S
C545 N553 1.427 . S
C546 H537 0.930 . S
C546 C544 1.378 . S
C546 C547 1.367 . S
C547 C546 1.367 . S
C547 C549 1.433 . S
C548 C544 1.350 . S
C548 C545 1.463 . S
C548 N552 1.427 . S
C549 H539 0.929 . S
C549 C547 1.433 . S
C549 N552 1.384 . S
C550 H541 0.929 . S
C550 C542 1.378 . S
C550 C545 1.350 . S
C551 H538 0.929 . S
C551 C543 1.433 . S
C551 N553 1.384 . S
N552 C548 1.427 . S
N552 C549 1.384 . S
N553 C545 1.427 . S
N553 C551 1.384 . S
H554 C560 0.930 . S
H555 C564 0.930 . S
H556 C569 0.929 . S
H557 C567 0.929 . S
H558 C562 0.929 . S
H559 C568 0.929 . S
C560 H554 0.930 . S
C560 C561 1.367 . S
C560 C568 1.378 . S
C561 C560 1.367 . S
C561 C569 1.433 . S
C562 H558 0.929 . S
C562 C564 1.378 . S
C562 C566 1.350 . S
C563 C566 1.463 . S
C563 C568 1.350 . S
C563 N571 1.427 . S
C564 H555 0.930 . S
C564 C562 1.378 . S
C564 C565 1.367 . S
C565 C564 1.367 . S
C565 C567 1.433 . S
C566 C562 1.350 . S
C566 C563 1.463 . S
C566 N570 1.427 . S
C567 H557 0.929 . S
C567 C565 1.433 . S
C567 N570 1.384 . S
C568 H559 0.929 . S
C568 C560 1.378 . S
C568 C563 1.350 . S
C569 H556 0.929 . S
C569 C561 1.433 . S
C569 N571 1.384 . S
N570 C566 1.427 . S
N570 C567 1.384 . S
N571 C563 1.427 . S
N571 C569 1.384 . S
H572 C578 0.930 . S
H573 C582 0.930 . S
H574 C587 0.929 . S
H575 C585 0.929 . S
H576 C580 0.929 . S
H577 C586 0.929 . S
C578 H572 0.930 . S
C578 C579 1.367 . S
C578 C586 1.378 . S
C579 C578 1.367 . S
C579 C587 1.433 . S
C580 H576 0.929 . S
C580 C582 1.378 . S
C580 C584 1.350 . S
C581 C584 1.463 . S
C581 C586 1.350 . S
C581 N589 1.427 . S
C582 H573 0.930 . S
C582 C580 1.378 . S
C582 C583 1.367 . S
C583 C582 1.367 . S
C583 C585 1.433 . S
C584 C580 1.350 . S
C584 C581 1.463 . S
C584 N588 1.427 . S
C585 H575 0.929 . S
C585 C583 1.433 . S
C585 N588 1.384 . S
C586 H577 0.929 . S
C586 C578 1.378 . S
C586 C581 1.350 . S
C587 H574 0.929 . S
C587 C579 1.433 . S
C587 N589 1.384 . S
N588 C584 1.427 . S
N588 C585 1.384 . S
N589 C581 1.427 . S
N589 C587 1.384 . S
H590 C596 0.930 . S
H591 C600 0.930 . S
H592 C605 0.929 . S
H593 C603 0.929 . S
H594 C598 0.929 . S
H595 C604 0.929 . S
C596 H590 0.930 . S
C596 C597 1.367 . S
C596 C604 1.378 . S
C597 C596 1.367 . S
C597 C605 1.433 . S
C598 H594 0.929 . S
C598 C600 1.378 . S
C598 C602 1.350 . S
C599 C602 1.463 . S
C599 C604 1.350 . S
C599 N607 1.427 . S
C600 H591 0.930 . S
C600 C598 1.378 . S
C600 C601 1.367 . S
C601 C600 1.367 . S
C601 C603 1.433 . S
C602 C598 1.350 . S
C602 C599 1.463 . S
C602 N606 1.427 . S
C603 H593 0.929 . S
C603 C601 1.433 . S
C603 N606 1.384 . S
C604 H595 0.929 . S
C604 C596 1.378 . S
C604 C599 1.350 . S
C605 H592 0.929 . S
C605 C597 1.433 . S
C605 N607 1.384 . S
N606 C602 1.427 . S
N606 C603 1.384 . S
N607 C599 1.427 . S
N607 C605 1.384 . S
H608 C614 0.930 . S
H609 C618 0.930 . S
H610 C623 0.929 . S
H611 C621 0.929 . S
H612 C616 0.929 . S
H613 C622 0.929 . S
C614 H608 0.930 . S
C614 C615 1.367 . S
C614 C622 1.378 . S
C615 C614 1.367 . S
C615 C623 1.433 . S
C616 H612 0.929 . S
C616 C618 1.378 . S
C616 C620 1.350 . S
C617 C620 1.463 . S
C617 C622 1.350 . S
C617 N625 1.427 . S
C618 H609 0.930 . S
C618 C616 1.378 . S
C618 C619 1.367 . S
C619 C618 1.367 . S
C619 C621 1.433 . S
C620 C616 1.350 . S
C620 C617 1.463 . S
C620 N624 1.427 . S
C621 H611 0.929 . S
C621 C619 1.433 . S
C621 N624 1.384 . S
C622 H613 0.929 . S
C622 C614 1.378 . S
C622 C617 1.350 . S
C623 H610 0.929 . S
C623 C615 1.433 . S
C623 N625 1.384 . S
N624 C620 1.427 . S
N624 C621 1.384 . S
N625 C617 1.427 . S
N625 C623 1.384 . S
H626 C632 0.954 . S
H627 C636 0.930 . S
H628 C641 0.929 . S
H629 C639 0.929 . S
H630 C634 0.929 . S
H631 C640 0.929 . S
C632 H626 0.954 . S
C632 C633 1.367 . S
C632 C640 1.378 . S
C633 C632 1.367 . S
C633 C641 1.433 . S
C634 H630 0.929 . S
C634 C636 1.378 . S
C634 C638 1.350 . S
C635 C638 1.463 . S
C635 C640 1.350 . S
C635 N643 1.427 . S
C636 H627 0.930 . S
C636 C634 1.378 . S
C636 C637 1.367 . S
C637 C636 1.367 . S
C637 C639 1.433 . S
C638 C634 1.350 . S
C638 C635 1.463 . S
C638 N642 1.427 . S
C639 H629 0.929 . S
C639 C637 1.433 . S
C639 N642 1.384 . S
C640 H631 0.929 . S
C640 C632 1.378 . S
C640 C635 1.350 . S
C641 H628 0.929 . S
C641 C633 1.433 . S
C641 N643 1.384 . S
N642 C638 1.427 . S
N642 C639 1.384 . S
N643 C635 1.427 . S
N643 C641 1.384 . S
H644 C650 0.930 . S
H645 C654 0.930 . S
H646 C659 0.929 . S
H647 C657 0.929 . S
H648 C652 0.929 . S
H649 C658 0.929 . S
C650 H644 0.930 . S
C650 C651 1.367 . S
C650 C658 1.378 . S
C651 C650 1.367 . S
C651 C659 1.433 . S
C652 H648 0.929 . S
C652 C654 1.378 . S
C652 C656 1.350 . S
C653 C656 1.463 . S
C653 C658 1.350 . S
C653 N661 1.427 . S
C654 H645 0.930 . S
C654 C652 1.378 . S
C654 C655 1.367 . S
C655 C654 1.367 . S
C655 C657 1.433 . S
C656 C652 1.350 . S
C656 C653 1.463 . S
C656 N660 1.427 . S
C657 H647 0.929 . S
C657 C655 1.433 . S
C657 N660 1.384 . S
C658 H649 0.929 . S
C658 C650 1.378 . S
C658 C653 1.350 . S
C659 H646 0.929 . S
C659 C651 1.433 . S
C659 N661 1.384 . S
N660 C656 1.427 . S
N660 C657 1.384 . S
N661 C653 1.427 . S
N661 C659 1.384 . S
H662 C668 0.930 . S
H663 C672 0.930 . S
H664 C677 0.929 . S
H665 C675 0.929 . S
H666 C670 0.929 . S
H667 C676 0.929 . S
C668 H662 0.930 . S
C668 C669 1.367 . S
C668 C676 1.378 . S
C669 C668 1.367 . S
C669 C677 1.433 . S
C670 H666 0.929 . S
C670 C672 1.378 . S
C670 C674 1.350 . S
C671 C674 1.463 . S
C671 C676 1.350 . S
C671 N679 1.427 . S
C672 H663 0.930 . S
C672 C670 1.378 . S
C672 C673 1.367 . S
C673 C672 1.367 . S
C673 C675 1.433 . S
C674 C670 1.350 . S
C674 C671 1.463 . S
C674 N678 1.427 . S
C675 H665 0.929 . S
C675 C673 1.433 . S
C675 N678 1.384 . S
C676 H667 0.929 . S
C676 C668 1.378 . S
C676 C671 1.350 . S
C677 H664 0.929 . S
C677 C669 1.433 . S
C677 N679 1.384 . S
N678 C674 1.427 . S
N678 C675 1.384 . S
N679 C671 1.427 . S
N679 C677 1.384 . S
H680 C686 0.930 . S
H681 C690 0.930 . S
H682 C695 0.929 . S
H683 C693 0.929 . S
H684 C688 0.929 . S
H685 C694 0.929 . S
C686 H680 0.930 . S
C686 C687 1.367 . S
C686 C694 1.378 . S
C687 C686 1.367 . S
C687 C695 1.433 . S
C688 H684 0.929 . S
C688 C690 1.378 . S
C688 C692 1.350 . S
C689 C692 1.463 . S
C689 C694 1.350 . S
C689 N697 1.427 . S
C690 H681 0.930 . S
C690 C688 1.378 . S
C690 C691 1.367 . S
C691 C690 1.367 . S
C691 C693 1.433 . S
C692 C688 1.350 . S
C692 C689 1.463 . S
C692 N696 1.427 . S
C693 H683 0.929 . S
C693 C691 1.433 . S
C693 N696 1.384 . S
C694 H685 0.929 . S
C694 C686 1.378 . S
C694 C689 1.350 . S
C695 H682 0.929 . S
C695 C687 1.433 . S
C695 N697 1.384 . S
N696 C692 1.427 . S
N696 C693 1.384 . S
N697 C689 1.427 . S
N697 C695 1.384 . S
H698 C704 0.930 . S
H699 C708 0.930 . S
H700 C713 0.929 . S
H701 C711 0.929 . S
H702 C706 0.929 . S
H703 C712 0.929 . S
C704 H698 0.930 . S
C704 C705 1.367 . S
C704 C712 1.378 . S
C705 C704 1.367 . S
C705 C713 1.433 . S
C706 H702 0.929 . S
C706 C708 1.378 . S
C706 C710 1.350 . S
C707 C710 1.463 . S
C707 C712 1.350 . S
C707 N715 1.427 . S
C708 H699 0.930 . S
C708 C706 1.378 . S
C708 C709 1.367 . S
C709 C708 1.367 . S
C709 C711 1.433 . S
C710 C706 1.350 . S
C710 C707 1.463 . S
C710 N714 1.427 . S
C711 H701 0.929 . S
C711 C709 1.433 . S
C711 N714 1.384 . S
C712 H703 0.929 . S
C712 C704 1.378 . S
C712 C707 1.350 . S
C713 H700 0.929 . S
C713 C705 1.433 . S
C713 N715 1.384 . S
N714 C710 1.427 . S
N714 C711 1.384 . S
N715 C707 1.427 . S
N715 C713 1.384 . S
H716 C722 0.930 . S
H717 C726 0.930 . S
H718 C731 0.929 . S
H719 C729 0.929 . S
H720 C724 0.929 . S
H721 C730 0.929 . S
C722 H716 0.930 . S
C722 C723 1.367 . S
C722 C730 1.378 . S
C723 C722 1.367 . S
C723 C731 1.433 . S
C724 H720 0.929 . S
C724 C726 1.378 . S
C724 C728 1.350 . S
C725 C728 1.463 . S
C725 C730 1.350 . S
C725 N733 1.427 . S
C726 H717 0.930 . S
C726 C724 1.378 . S
C726 C727 1.367 . S
C727 C726 1.367 . S
C727 C729 1.433 . S
C728 C724 1.350 . S
C728 C725 1.463 . S
C728 N732 1.427 . S
C729 H719 0.929 . S
C729 C727 1.433 . S
C729 N732 1.384 . S
C730 H721 0.929 . S
C730 C722 1.378 . S
C730 C725 1.350 . S
C731 H718 0.929 . S
C731 C723 1.433 . S
C731 N733 1.384 . S
N732 C728 1.427 . S
N732 C729 1.384 . S
N733 C725 1.427 . S
N733 C731 1.384 . S
H734 C740 0.930 . S
H735 C744 0.930 . S
H736 C749 0.929 . S
H737 C747 0.929 . S
H738 C742 0.929 . S
H739 C748 0.929 . S
C740 H734 0.930 . S
C740 C741 1.367 . S
C740 C748 1.378 . S
C741 C740 1.367 . S
C741 C749 1.433 . S
C742 H738 0.929 . S
C742 C744 1.378 . S
C742 C746 1.350 . S
C743 C746 1.463 . S
C743 C748 1.350 . S
C743 N751 1.427 . S
C744 H735 0.930 . S
C744 C742 1.378 . S
C744 C745 1.367 . S
C745 C744 1.367 . S
C745 C747 1.433 . S
C746 C742 1.350 . S
C746 C743 1.463 . S
C746 N750 1.427 . S
C747 H737 0.929 . S
C747 C745 1.433 . S
C747 N750 1.384 . S
C748 H739 0.929 . S
C748 C740 1.378 . S
C748 C743 1.350 . S
C749 H736 0.929 . S
C749 C741 1.433 . S
C749 N751 1.384 . S
N750 C746 1.427 . S
N750 C747 1.384 . S
N751 C743 1.427 . S
N751 C749 1.384 . S
H752 C758 0.930 . S
H753 C762 0.930 . S
H754 C767 0.929 . S
H755 C765 0.929 . S
H756 C760 0.929 . S
H757 C766 0.929 . S
C758 H752 0.930 . S
C758 C759 1.367 1_556 S
C758 C766 1.378 . S
C759 C758 1.367 1_554 S
C759 C767 1.433 . S
C760 H756 0.929 . S
C760 C762 1.378 . S
C760 C764 1.350 . S
C761 C764 1.463 . S
C761 C766 1.350 1_554 S
C761 N769 1.427 . S
C762 H753 0.930 . S
C762 C760 1.378 . S
C762 C763 1.367 . S
C763 C762 1.367 . S
C763 C765 1.433 1_554 S
C764 C760 1.350 . S
C764 C761 1.463 . S
C764 N768 1.427 1_554 S
C765 H755 0.929 . S
C765 C763 1.433 1_556 S
C765 N768 1.384 . S
C766 H757 0.929 . S
C766 C758 1.378 . S
C766 C761 1.350 1_556 S
C767 H754 0.929 . S
C767 C759 1.433 . S
C767 N769 1.384 . S
N768 C764 1.427 1_556 S
N768 C765 1.384 . S
N769 C761 1.427 . S
N769 C767 1.384 . S
H770 C776 0.930 . S
H771 C780 0.930 . S
H772 C785 0.929 . S
H773 C783 0.929 . S
H774 C778 0.929 . S
H775 C784 0.929 . S
C776 H770 0.930 . S
C776 C777 1.367 1_556 S
C776 C784 1.378 . S
C777 C776 1.367 1_554 S
C777 C785 1.433 . S
C778 H774 0.929 . S
C778 C780 1.378 . S
C778 C782 1.350 . S
C779 C782 1.463 . S
C779 C784 1.350 1_554 S
C779 N787 1.427 . S
C780 H771 0.930 . S
C780 C778 1.378 . S
C780 C781 1.367 . S
C781 C780 1.367 . S
C781 C783 1.433 1_554 S
C782 C778 1.350 . S
C782 C779 1.463 . S
C782 N786 1.427 1_554 S
C783 H773 0.929 . S
C783 C781 1.433 1_556 S
C783 N786 1.384 . S
C784 H775 0.929 . S
C784 C776 1.378 . S
C784 C779 1.350 1_556 S
C785 H772 0.929 . S
C785 C777 1.433 . S
C785 N787 1.384 . S
N786 C782 1.427 1_556 S
N786 C783 1.384 . S
N787 C779 1.427 . S
N787 C785 1.384 . S
H788 C794 0.930 . S
H789 C798 0.930 . S
H790 C803 0.929 . S
H791 C801 0.929 . S
H792 C796 0.929 1_655 S
H793 C802 0.929 1_455 S
C794 H788 0.930 . S
C794 C795 1.367 . S
C794 C802 1.378 . S
C795 C794 1.367 . S
C795 C803 1.433 . S
C796 H792 0.929 1_455 S
C796 C798 1.378 . S
C796 C800 1.350 . S
C797 C800 1.463 1_655 S
C797 C802 1.350 . S
C797 N805 1.427 . S
C798 H789 0.930 . S
C798 C796 1.378 . S
C798 C799 1.367 . S
C799 C798 1.367 . S
C799 C801 1.433 . S
C800 C796 1.350 . S
C800 C797 1.463 1_455 S
C800 N804 1.427 . S
C801 H791 0.929 . S
C801 C799 1.433 . S
C801 N804 1.384 . S
C802 H793 0.929 1_655 S
C802 C794 1.378 . S
C802 C797 1.350 . S
C803 H790 0.929 . S
C803 C795 1.433 . S
C803 N805 1.384 . S
N804 C800 1.427 . S
N804 C801 1.384 . S
N805 C797 1.427 . S
N805 C803 1.384 . S
H806 C812 0.930 . S
H807 C816 0.930 . S
H808 C821 0.929 . S
H809 C819 0.929 . S
H810 C814 0.929 . S
H811 C820 0.929 . S
C812 H806 0.930 . S
C812 C813 1.367 . S
C812 C820 1.378 . S
C813 C812 1.367 . S
C813 C821 1.433 . S
C814 H810 0.929 . S
C814 C816 1.378 . S
C814 C818 1.350 . S
C815 C818 1.463 . S
C815 C820 1.350 . S
C815 N823 1.427 . S
C816 H807 0.930 . S
C816 C814 1.378 . S
C816 C817 1.367 . S
C817 C816 1.367 . S
C817 C819 1.433 . S
C818 C814 1.350 . S
C818 C815 1.463 . S
C818 N822 1.427 . S
C819 H809 0.929 . S
C819 C817 1.433 . S
C819 N822 1.384 . S
C820 H811 0.929 . S
C820 C812 1.378 . S
C820 C815 1.350 . S
C821 H808 0.929 . S
C821 C813 1.433 . S
C821 N823 1.384 . S
N822 C818 1.427 . S
N822 C819 1.384 . S
N823 C815 1.427 . S
N823 C821 1.384 . S
H824 C830 0.930 . S
H825 C834 0.930 . S
H826 C839 0.929 . S
H827 C837 0.929 . S
H828 C832 0.929 . S
H829 C838 0.929 . S
C830 H824 0.930 . S
C830 C831 1.367 . S
C830 C838 1.378 . S
C831 C830 1.367 . S
C831 C839 1.433 . S
C832 H828 0.929 . S
C832 C834 1.378 . S
C832 C836 1.350 . S
C833 C836 1.463 . S
C833 C838 1.350 . S
C833 N841 1.427 . S
C834 H825 0.930 . S
C834 C832 1.378 . S
C834 C835 1.367 . S
C835 C834 1.367 . S
C835 C837 1.433 . S
C836 C832 1.350 . S
C836 C833 1.463 . S
C836 N840 1.427 . S
C837 H827 0.929 . S
C837 C835 1.433 . S
C837 N840 1.384 . S
C838 H829 0.929 . S
C838 C830 1.378 . S
C838 C833 1.350 . S
C839 H826 0.929 . S
C839 C831 1.433 . S
C839 N841 1.384 . S
N840 C836 1.427 . S
N840 C837 1.384 . S
N841 C833 1.427 . S
N841 C839 1.384 . S
H842 C848 0.930 . S
H843 C852 0.930 . S
H844 C857 0.929 . S
H845 C855 0.929 . S
H846 C850 0.929 . S
H847 C856 0.929 . S
C848 H842 0.930 . S
C848 C849 1.367 . S
C848 C856 1.378 . S
C849 C848 1.367 . S
C849 C857 1.433 . S
C850 H846 0.929 . S
C850 C852 1.378 . S
C850 C854 1.350 . S
C851 C854 1.463 1_665 S
C851 C856 1.350 . S
C851 N859 1.427 1_655 S
C852 H843 0.930 . S
C852 C850 1.378 . S
C852 C853 1.367 . S
C853 C852 1.367 . S
C853 C855 1.433 . S
C854 C850 1.350 . S
C854 C851 1.463 1_445 S
C854 N858 1.427 1_455 S
C855 H845 0.929 . S
C855 C853 1.433 . S
C855 N858 1.384 1_455 S
C856 H847 0.929 . S
C856 C848 1.378 . S
C856 C851 1.350 . S
C857 H844 0.929 . S
C857 C849 1.433 . S
C857 N859 1.384 1_655 S
N858 C854 1.427 1_655 S
N858 C855 1.384 1_655 S
N859 C851 1.427 1_455 S
N859 C857 1.384 1_455 S
H860 C866 0.930 . S
H861 C870 0.930 . S
H862 C875 0.929 . S
H863 C873 0.929 . S
H864 C868 0.929 . S
H865 C874 0.929 . S
C866 H860 0.930 . S
C866 C867 1.367 . S
C866 C874 1.378 . S
C867 C866 1.367 . S
C867 C875 1.433 . S
C868 H864 0.929 . S
C868 C870 1.378 . S
C868 C872 1.350 . S
C869 C872 1.463 . S
C869 C874 1.350 . S
C869 N877 1.427 . S
C870 H861 0.930 . S
C870 C868 1.378 . S
C870 C871 1.367 . S
C871 C870 1.367 . S
C871 C873 1.433 . S
C872 C868 1.350 . S
C872 C869 1.463 . S
C872 N876 1.427 . S
C873 H863 0.929 . S
C873 C871 1.433 . S
C873 N876 1.384 . S
C874 H865 0.929 . S
C874 C866 1.378 . S
C874 C869 1.350 . S
C875 H862 0.929 . S
C875 C867 1.433 . S
C875 N877 1.384 . S
N876 C872 1.427 . S
N876 C873 1.384 . S
N877 C869 1.427 . S
N877 C875 1.384 . S
H878 C884 0.930 . S
H879 C888 0.930 . S
H880 C893 0.929 . S
H881 C891 0.929 . S
H882 C886 0.929 . S
H883 C892 0.929 . S
C884 H878 0.930 . S
C884 C885 1.367 . S
C884 C892 1.378 . S
C885 C884 1.367 . S
C885 C893 1.433 . S
C886 H882 0.929 . S
C886 C888 1.378 . S
C886 C890 1.350 . S
C887 C890 1.463 1_565 S
C887 C892 1.350 . S
C887 N895 1.427 . S
C888 H879 0.930 . S
C888 C886 1.378 . S
C888 C889 1.367 . S
C889 C888 1.367 . S
C889 C891 1.433 . S
C890 C886 1.350 . S
C890 C887 1.463 1_545 S
C890 N894 1.427 . S
C891 H881 0.929 . S
C891 C889 1.433 . S
C891 N894 1.384 . S
C892 H883 0.929 . S
C892 C884 1.378 . S
C892 C887 1.350 . S
C893 H880 0.929 . S
C893 C885 1.433 . S
C893 N895 1.384 . S
N894 C890 1.427 . S
N894 C891 1.384 . S
N895 C887 1.427 . S
N895 C893 1.384 . S
H896 C902 0.930 . S
H897 C906 0.930 . S
H898 C911 0.929 . S
H899 C909 0.929 . S
H900 C904 0.929 . S
H901 C910 0.929 . S
C902 H896 0.930 . S
C902 C903 1.367 1_545 S
C902 C910 1.378 . S
C903 C902 1.367 1_565 S
C903 C911 1.433 . S
C904 H900 0.929 . S
C904 C906 1.378 . S
C904 C908 1.350 . S
C905 C908 1.463 . S
C905 C910 1.350 . S
C905 N913 1.427 1_545 S
C906 H897 0.930 . S
C906 C904 1.378 . S
C906 C907 1.367 . S
C907 C906 1.367 . S
C907 C909 1.433 . S
C908 C904 1.350 . S
C908 C905 1.463 . S
C908 N912 1.427 . S
C909 H899 0.929 . S
C909 C907 1.433 . S
C909 N912 1.384 . S
C910 H901 0.929 . S
C910 C902 1.378 . S
C910 C905 1.350 . S
C911 H898 0.929 . S
C911 C903 1.433 . S
C911 N913 1.384 . S
N912 C908 1.427 . S
N912 C909 1.384 . S
N913 C905 1.427 1_565 S
N913 C911 1.384 . S
H914 C920 0.930 . S
H915 C924 0.930 . S
H916 C929 0.929 . S
H917 C927 0.929 . S
H918 C922 0.929 . S
H919 C928 0.929 . S
C920 H914 0.930 . S
C920 C921 1.367 . S
C920 C928 1.378 . S
C921 C920 1.367 . S
C921 C929 1.433 . S
C922 H918 0.929 . S
C922 C924 1.378 . S
C922 C926 1.350 1_545 S
C923 C926 1.463 . S
C923 C928 1.350 . S
C923 N931 1.427 . S
C924 H915 0.930 . S
C924 C922 1.378 . S
C924 C925 1.367 . S
C925 C924 1.367 . S
C925 C927 1.433 1_545 S
C926 C922 1.350 1_565 S
C926 C923 1.463 . S
C926 N930 1.427 . S
C927 H917 0.929 . S
C927 C925 1.433 1_565 S
C927 N930 1.384 . S
C928 H919 0.929 . S
C928 C920 1.378 . S
C928 C923 1.350 . S
C929 H916 0.929 . S
C929 C921 1.433 . S
C929 N931 1.384 . S
N930 C926 1.427 . S
N930 C927 1.384 . S
N931 C923 1.427 . S
N931 C929 1.384 . S
H932 C938 0.930 . S
H933 C942 0.930 1_455 S
H934 C947 0.929 . S
H935 C945 0.929 . S
H936 C940 0.929 . S
H937 C946 0.929 . S
C938 H932 0.930 . S
C938 C939 1.367 . S
C938 C946 1.378 . S
C939 C938 1.367 . S
C939 C947 1.433 . S
C940 H936 0.929 . S
C940 C942 1.378 . S
C940 C944 1.350 . S
C941 C944 1.463 . S
C941 C946 1.350 . S
C941 N949 1.427 . S
C942 H933 0.930 1_655 S
C942 C940 1.378 . S
C942 C943 1.367 . S
C943 C942 1.367 . S
C943 C945 1.433 . S
C944 C940 1.350 . S
C944 C941 1.463 . S
C944 N948 1.427 . S
C945 H935 0.929 . S
C945 C943 1.433 . S
C945 N948 1.384 . S
C946 H937 0.929 . S
C946 C938 1.378 . S
C946 C941 1.350 . S
C947 H934 0.929 . S
C947 C939 1.433 . S
C947 N949 1.384 . S
N948 C944 1.427 . S
N948 C945 1.384 . S
N949 C941 1.427 . S
N949 C947 1.384 . S
H950 C956 0.930 . S
H951 C960 0.930 . S
H952 C965 0.929 . S
H953 C963 0.929 . S
H954 C958 0.929 . S
H955 C964 0.929 . S
C956 H950 0.930 . S
C956 C957 1.367 . S
C956 C964 1.378 . S
C957 C956 1.367 . S
C957 C965 1.433 1_455 S
C958 H954 0.929 . S
C958 C960 1.378 . S
C958 C962 1.350 . S
C959 C962 1.463 . S
C959 C964 1.350 . S
C959 N967 1.427 . S
C960 H951 0.930 . S
C960 C958 1.378 . S
C960 C961 1.367 . S
C961 C960 1.367 . S
C961 C963 1.433 . S
C962 C958 1.350 . S
C962 C959 1.463 . S
C962 N966 1.427 . S
C963 H953 0.929 . S
C963 C961 1.433 . S
C963 N966 1.384 . S
C964 H955 0.929 . S
C964 C956 1.378 . S
C964 C959 1.350 . S
C965 H952 0.929 . S
C965 C957 1.433 1_655 S
C965 N967 1.384 1_655 S
N966 C962 1.427 . S
N966 C963 1.384 . S
N967 C959 1.427 . S
N967 C965 1.384 1_455 S
H968 C974 0.930 . S
H969 C978 0.930 . S
H970 C983 0.929 . S
H971 C981 0.929 . S
H972 C976 0.929 . S
H973 C982 0.929 . S
C974 H968 0.930 . S
C974 C975 1.367 . S
C974 C982 1.378 . S
C975 C974 1.367 . S
C975 C983 1.433 . S
C976 H972 0.929 . S
C976 C978 1.378 . S
C976 C980 1.350 . S
C977 C980 1.463 . S
C977 C982 1.350 . S
C977 N985 1.427 . S
C978 H969 0.930 . S
C978 C976 1.378 . S
C978 C979 1.367 . S
C979 C978 1.367 . S
C979 C981 1.433 . S
C980 C976 1.350 . S
C980 C977 1.463 . S
C980 N984 1.427 . S
C981 H971 0.929 . S
C981 C979 1.433 . S
C981 N984 1.384 . S
C982 H973 0.929 . S
C982 C974 1.378 . S
C982 C977 1.350 . S
C983 H970 0.929 . S
C983 C975 1.433 . S
C983 N985 1.384 . S
N984 C980 1.427 . S
N984 C981 1.384 . S
N985 C977 1.427 . S
N985 C983 1.384 . S
H986 C992 0.930 . S
H987 C996 0.930 . S
H988 C1001 0.929 . S
H989 C999 0.929 . S
H990 C994 0.929 . S
H991 C1000 0.929 . S
C992 H986 0.930 . S
C992 C993 1.367 . S
C992 C1000 1.378 . S
C993 C992 1.367 . S
C993 C1001 1.433 . S
C994 H990 0.929 . S
C994 C996 1.378 . S
C994 C998 1.350 . S
C995 C998 1.463 . S
C995 C1000 1.350 . S
C995 N1003 1.427 . S
C996 H987 0.930 . S
C996 C994 1.378 . S
C996 C997 1.367 . S
C997 C996 1.367 . S
C997 C999 1.433 . S
C998 C994 1.350 . S
C998 C995 1.463 . S
C998 N1002 1.427 . S
C999 H989 0.929 . S
C999 C997 1.433 . S
C999 N1002 1.384 . S
C1000 H991 0.929 . S
C1000 C992 1.378 . S
C1000 C995 1.350 . S
C1001 H988 0.929 . S
C1001 C993 1.433 . S
C1001 N1003 1.384 . S
N1002 C998 1.427 . S
N1002 C999 1.384 . S
N1003 C995 1.427 . S
N1003 C1001 1.384 . S
H1004 C1010 0.930 . S
H1005 C1014 0.930 . S
H1006 C1019 0.929 . S
H1007 C1017 0.929 . S
H1008 C1012 0.929 1_455 S
H1009 C1018 0.929 . S
C1010 H1004 0.930 . S
C1010 C1011 1.367 . S
C1010 C1018 1.378 . S
C1011 C1010 1.367 . S
C1011 C1019 1.433 1_655 S
C1012 H1008 0.929 1_655 S
C1012 C1014 1.378 . S
C1012 C1016 1.350 . S
C1013 C1016 1.463 1_554 S
C1013 C1018 1.350 . S
C1013 N1021 1.427 1_655 S
C1014 H1005 0.930 . S
C1014 C1012 1.378 . S
C1014 C1015 1.367 . S
C1015 C1014 1.367 . S
C1015 C1017 1.433 . S
C1016 C1012 1.350 . S
C1016 C1013 1.463 1_556 S
C1016 N1020 1.427 . S
C1017 H1007 0.929 . S
C1017 C1015 1.433 . S
C1017 N1020 1.384 . S
C1018 H1009 0.929 . S
C1018 C1010 1.378 . S
C1018 C1013 1.350 . S
C1019 H1006 0.929 . S
C1019 C1011 1.433 1_455 S
C1019 N1021 1.384 . S
N1020 C1016 1.427 . S
N1020 C1017 1.384 . S
N1021 C1013 1.427 1_455 S
N1021 C1019 1.384 . S
H1022 C1028 0.930 . S
H1023 C1032 0.930 . S
H1024 C1037 0.929 . S
H1025 C1035 0.929 . S
H1026 C1030 0.929 1_655 S
H1027 C1036 0.929 . S
C1028 H1022 0.930 . S
C1028 C1029 1.367 . S
C1028 C1036 1.378 . S
C1029 C1028 1.367 . S
C1029 C1037 1.433 1_455 S
C1030 H1026 0.929 1_455 S
C1030 C1032 1.378 . S
C1030 C1034 1.350 . S
C1031 C1034 1.463 1_554 S
C1031 C1036 1.350 . S
C1031 N1039 1.430 . S
C1032 H1023 0.930 . S
C1032 C1030 1.378 . S
C1032 C1033 1.367 . S
C1033 C1032 1.367 . S
C1033 C1035 1.433 . S
C1034 C1030 1.350 . S
C1034 C1031 1.463 1_556 S
C1034 N1038 1.427 . S
C1035 H1025 0.929 . S
C1035 C1033 1.433 . S
C1035 N1038 1.384 . S
C1036 H1027 0.929 . S
C1036 C1028 1.378 . S
C1036 C1031 1.350 . S
C1037 H1024 0.929 . S
C1037 C1029 1.433 1_655 S
C1037 N1039 1.383 1_655 S
N1038 C1034 1.427 . S
N1038 C1035 1.384 . S
N1039 C1031 1.430 . S
N1039 C1037 1.383 1_455 S
H1040 C1046 0.930 . S
H1041 C1050 0.930 . S
H1042 C1055 0.929 . S
H1043 C1053 0.929 . S
H1044 C1048 0.929 . S
H1045 C1054 0.929 . S
C1046 H1040 0.930 . S
C1046 C1047 1.367 . S
C1046 C1054 1.378 1_565 S
C1047 C1046 1.367 . S
C1047 C1055 1.433 . S
C1048 H1044 0.929 . S
C1048 C1050 1.378 . S
C1048 C1052 1.350 . S
C1049 C1052 1.463 . S
C1049 C1054 1.350 . S
C1049 N1057 1.427 . S
C1050 H1041 0.930 . S
C1050 C1048 1.378 . S
C1050 C1051 1.367 . S
C1051 C1050 1.367 . S
C1051 C1053 1.433 . S
C1052 C1048 1.350 . S
C1052 C1049 1.463 . S
C1052 N1056 1.427 . S
C1053 H1043 0.929 . S
C1053 C1051 1.433 . S
C1053 N1056 1.384 . S
C1054 H1045 0.929 . S
C1054 C1046 1.378 1_545 S
C1054 C1049 1.350 . S
C1055 H1042 0.929 . S
C1055 C1047 1.433 . S
C1055 N1057 1.384 1_565 S
N1056 C1052 1.427 . S
N1056 C1053 1.384 . S
N1057 C1049 1.427 . S
N1057 C1055 1.384 1_545 S
H1058 C1064 0.930 . S
H1059 C1068 0.930 . S
H1060 C1073 0.929 . S
H1061 C1071 0.929 . S
H1062 C1066 0.929 . S
H1063 C1072 0.929 . S
C1064 H1058 0.930 . S
C1064 C1065 1.367 . S
C1064 C1072 1.378 . S
C1065 C1064 1.367 . S
C1065 C1073 1.433 1_545 S
C1066 H1062 0.929 . S
C1066 C1068 1.378 . S
C1066 C1070 1.350 . S
C1067 C1070 1.463 . S
C1067 C1072 1.350 1_565 S
C1067 N1075 1.427 . S
C1068 H1059 0.930 . S
C1068 C1066 1.378 . S
C1068 C1069 1.367 . S
C1069 C1068 1.367 . S
C1069 C1071 1.433 . S
C1070 C1066 1.350 . S
C1070 C1067 1.463 . S
C1070 N1074 1.427 . S
C1071 H1061 0.929 . S
C1071 C1069 1.433 . S
C1071 N1074 1.384 . S
C1072 H1063 0.929 . S
C1072 C1064 1.378 . S
C1072 C1067 1.350 1_545 S
C1073 H1060 0.929 . S
C1073 C1065 1.433 1_565 S
C1073 N1075 1.384 . S
N1074 C1070 1.427 . S
N1074 C1071 1.384 . S
N1075 C1067 1.427 . S
N1075 C1073 1.384 . S
H1076 C1082 0.930 . S
H1077 C1086 0.930 . S
H1078 C1091 0.929 . S
H1079 C1089 0.929 . S
H1080 C1084 0.929 . S
H1081 C1090 0.929 . S
C1082 H1076 0.930 . S
C1082 C1083 1.367 . S
C1082 C1090 1.378 . S
C1083 C1082 1.367 . S
C1083 C1091 1.433 . S
C1084 H1080 0.929 . S
C1084 C1086 1.378 . S
C1084 C1088 1.350 . S
C1085 C1088 1.463 1_554 S
C1085 C1090 1.350 . S
C1085 N1093 1.427 . S
C1086 H1077 0.930 . S
C1086 C1084 1.378 . S
C1086 C1087 1.367 . S
C1087 C1086 1.367 . S
C1087 C1089 1.433 . S
C1088 C1084 1.350 . S
C1088 C1085 1.463 1_556 S
C1088 N1092 1.427 . S
C1089 H1079 0.929 . S
C1089 C1087 1.433 . S
C1089 N1092 1.384 . S
C1090 H1081 0.929 . S
C1090 C1082 1.378 . S
C1090 C1085 1.350 . S
C1091 H1078 0.929 . S
C1091 C1083 1.433 . S
C1091 N1093 1.384 . S
N1092 C1088 1.427 . S
N1092 C1089 1.384 . S
N1093 C1085 1.427 . S
N1093 C1091 1.384 . S
H1094 C1100 0.930 . S
H1095 C1104 0.930 . S
H1096 C1109 0.929 . S
H1097 C1107 0.929 . S
H1098 C1102 0.929 . S
H1099 C1108 0.929 . S
C1100 H1094 0.930 . S
C1100 C1101 1.367 . S
C1100 C1108 1.378 . S
C1101 C1100 1.367 . S
C1101 C1109 1.433 . S
C1102 H1098 0.929 . S
C1102 C1104 1.378 . S
C1102 C1106 1.350 . S
C1103 C1106 1.463 1_554 S
C1103 C1108 1.350 . S
C1103 N1111 1.427 . S
C1104 H1095 0.930 . S
C1104 C1102 1.378 . S
C1104 C1105 1.367 . S
C1105 C1104 1.367 . S
C1105 C1107 1.433 . S
C1106 C1102 1.350 . S
C1106 C1103 1.463 1_556 S
C1106 N1110 1.427 . S
C1107 H1097 0.929 . S
C1107 C1105 1.433 . S
C1107 N1110 1.384 . S
C1108 H1099 0.929 . S
C1108 C1100 1.378 . S
C1108 C1103 1.350 . S
C1109 H1096 0.929 . S
C1109 C1101 1.433 . S
C1109 N1111 1.384 . S
N1110 C1106 1.427 . S
N1110 C1107 1.384 . S
N1111 C1103 1.427 . S
N1111 C1109 1.384 . S
H1112 C1118 0.930 . S
H1113 C1122 0.930 . S
H1114 C1127 0.929 . S
H1115 C1125 0.929 . S
H1116 C1120 0.929 . S
H1117 C1126 0.929 . S
C1118 H1112 0.930 . S
C1118 C1119 1.367 . S
C1118 C1126 1.378 . S
C1119 C1118 1.367 . S
C1119 C1127 1.433 . S
C1120 H1116 0.929 . S
C1120 C1122 1.378 . S
C1120 C1124 1.350 . S
C1121 C1124 1.463 . S
C1121 C1126 1.350 . S
C1121 N1129 1.427 . S
C1122 H1113 0.930 . S
C1122 C1120 1.378 . S
C1122 C1123 1.367 . S
C1123 C1122 1.367 . S
C1123 C1125 1.433 . S
C1124 C1120 1.350 . S
C1124 C1121 1.463 . S
C1124 N1128 1.427 . S
C1125 H1115 0.929 . S
C1125 C1123 1.433 . S
C1125 N1128 1.384 . S
C1126 H1117 0.929 . S
C1126 C1118 1.378 . S
C1126 C1121 1.350 . S
C1127 H1114 0.929 . S
C1127 C1119 1.433 . S
C1127 N1129 1.384 . S
N1128 C1124 1.427 . S
N1128 C1125 1.384 . S
N1129 C1121 1.427 . S
N1129 C1127 1.384 . S
H1130 C1136 0.930 . S
H1131 C1140 0.930 . S
H1132 C1145 0.929 . S
H1133 C1143 0.929 . S
H1134 C1138 0.929 . S
H1135 C1144 0.929 . S
C1136 H1130 0.930 . S
C1136 C1137 1.367 . S
C1136 C1144 1.378 . S
C1137 C1136 1.367 . S
C1137 C1145 1.433 . S
C1138 H1134 0.929 . S
C1138 C1140 1.378 . S
C1138 C1142 1.350 . S
C1139 C1142 1.463 . S
C1139 C1144 1.350 . S
C1139 N1147 1.427 . S
C1140 H1131 0.930 . S
C1140 C1138 1.378 . S
C1140 C1141 1.367 . S
C1141 C1140 1.367 . S
C1141 C1143 1.433 . S
C1142 C1138 1.350 . S
C1142 C1139 1.463 . S
C1142 N1146 1.427 . S
C1143 H1133 0.929 . S
C1143 C1141 1.433 . S
C1143 N1146 1.384 . S
C1144 H1135 0.929 . S
C1144 C1136 1.378 . S
C1144 C1139 1.350 . S
C1145 H1132 0.929 . S
C1145 C1137 1.433 . S
C1145 N1147 1.384 . S
N1146 C1142 1.427 . S
N1146 C1143 1.384 . S
N1147 C1139 1.427 . S
N1147 C1145 1.384 . S
H1148 C1154 0.930 . S
H1149 C1158 0.930 . S
H1150 C1163 0.929 . S
H1151 C1161 0.929 . S
H1152 C1156 0.929 . S
H1153 C1162 0.929 . S
C1154 H1148 0.930 . S
C1154 C1155 1.367 . S
C1154 C1162 1.378 . S
C1155 C1154 1.367 . S
C1155 C1163 1.433 . S
C1156 H1152 0.929 . S
C1156 C1158 1.378 . S
C1156 C1160 1.350 . S
C1157 C1160 1.463 . S
C1157 C1162 1.350 . S
C1157 N1165 1.427 . S
C1158 H1149 0.930 . S
C1158 C1156 1.378 . S
C1158 C1159 1.367 . S
C1159 C1158 1.367 . S
C1159 C1161 1.433 . S
C1160 C1156 1.350 . S
C1160 C1157 1.463 . S
C1160 N1164 1.427 . S
C1161 H1151 0.929 . S
C1161 C1159 1.433 . S
C1161 N1164 1.384 . S
C1162 H1153 0.929 . S
C1162 C1154 1.378 . S
C1162 C1157 1.350 . S
C1163 H1150 0.929 . S
C1163 C1155 1.433 . S
C1163 N1165 1.384 . S
N1164 C1160 1.427 . S
N1164 C1161 1.384 . S
N1165 C1157 1.427 . S
N1165 C1163 1.384 . S
H1166 C1172 0.930 . S
H1167 C1176 0.930 . S
H1168 C1181 0.929 . S
H1169 C1179 0.929 . S
H1170 C1174 0.929 . S
H1171 C1180 0.929 . S
C1172 H1166 0.930 . S
C1172 C1173 1.367 . S
C1172 C1180 1.378 . S
C1173 C1172 1.367 . S
C1173 C1181 1.433 . S
C1174 H1170 0.929 . S
C1174 C1176 1.378 . S
C1174 C1178 1.350 . S
C1175 C1178 1.463 . S
C1175 C1180 1.350 . S
C1175 N1183 1.427 . S
C1176 H1167 0.930 . S
C1176 C1174 1.378 . S
C1176 C1177 1.367 . S
C1177 C1176 1.367 . S
C1177 C1179 1.433 . S
C1178 C1174 1.350 . S
C1178 C1175 1.463 . S
C1178 N1182 1.427 . S
C1179 H1169 0.929 . S
C1179 C1177 1.433 . S
C1179 N1182 1.384 . S
C1180 H1171 0.929 . S
C1180 C1172 1.378 . S
C1180 C1175 1.350 . S
C1181 H1168 0.929 . S
C1181 C1173 1.433 . S
C1181 N1183 1.384 . S
N1182 C1178 1.427 . S
N1182 C1179 1.384 . S
N1183 C1175 1.427 . S
N1183 C1181 1.384 . S
H1184 C1190 0.930 . S
H1185 C1194 0.930 . S
H1186 C1199 0.929 . S
H1187 C1197 0.929 . S
H1188 C1192 0.929 . S
H1189 C1198 0.929 . S
C1190 H1184 0.930 . S
C1190 C1191 1.367 . S
C1190 C1198 1.378 . S
C1191 C1190 1.367 . S
C1191 C1199 1.433 . S
C1192 H1188 0.929 . S
C1192 C1194 1.378 . S
C1192 C1196 1.350 . S
C1193 C1196 1.463 . S
C1193 C1198 1.350 . S
C1193 N1201 1.427 . S
C1194 H1185 0.930 . S
C1194 C1192 1.378 . S
C1194 C1195 1.367 . S
C1195 C1194 1.367 . S
C1195 C1197 1.433 . S
C1196 C1192 1.350 . S
C1196 C1193 1.463 . S
C1196 N1200 1.427 . S
C1197 H1187 0.929 . S
C1197 C1195 1.433 . S
C1197 N1200 1.384 . S
C1198 H1189 0.929 . S
C1198 C1190 1.378 . S
C1198 C1193 1.350 . S
C1199 H1186 0.929 . S
C1199 C1191 1.433 . S
C1199 N1201 1.384 . S
N1200 C1196 1.427 . S
N1200 C1197 1.384 . S
N1201 C1193 1.427 . S
N1201 C1199 1.384 . S
H1202 C1208 0.930 . S
H1203 C1212 0.930 . S
H1204 C1217 0.929 . S
H1205 C1215 0.929 . S
H1206 C1210 0.929 . S
H1207 C1216 0.929 . S
C1208 H1202 0.930 . S
C1208 C1209 1.367 . S
C1208 C1216 1.378 . S
C1209 C1208 1.367 . S
C1209 C1217 1.433 . S
C1210 H1206 0.929 . S
C1210 C1212 1.378 . S
C1210 C1214 1.350 . S
C1211 C1214 1.463 . S
C1211 C1216 1.350 . S
C1211 N1219 1.427 . S
C1212 H1203 0.930 . S
C1212 C1210 1.378 . S
C1212 C1213 1.367 . S
C1213 C1212 1.367 . S
C1213 C1215 1.433 . S
C1214 C1210 1.350 . S
C1214 C1211 1.463 . S
C1214 N1218 1.427 . S
C1215 H1205 0.929 . S
C1215 C1213 1.433 . S
C1215 N1218 1.384 . S
C1216 H1207 0.929 . S
C1216 C1208 1.378 . S
C1216 C1211 1.350 . S
C1217 H1204 0.929 . S
C1217 C1209 1.433 . S
C1217 N1219 1.384 . S
N1218 C1214 1.427 . S
N1218 C1215 1.384 . S
N1219 C1211 1.427 . S
N1219 C1217 1.384 . S
H1220 C1226 0.930 . S
H1221 C1230 0.930 . S
H1222 C1235 0.929 . S
H1223 C1233 0.929 . S
H1224 C1228 0.929 . S
H1225 C1234 0.929 . S
C1226 H1220 0.930 . S
C1226 C1227 1.367 . S
C1226 C1234 1.378 . S
C1227 C1226 1.367 . S
C1227 C1235 1.433 . S
C1228 H1224 0.929 . S
C1228 C1230 1.378 . S
C1228 C1232 1.350 . S
C1229 C1232 1.463 . S
C1229 C1234 1.350 . S
C1229 N1237 1.427 . S
C1230 H1221 0.930 . S
C1230 C1228 1.378 . S
C1230 C1231 1.367 . S
C1231 C1230 1.367 . S
C1231 C1233 1.433 . S
C1232 C1228 1.350 . S
C1232 C1229 1.463 . S
C1232 N1236 1.427 . S
C1233 H1223 0.929 . S
C1233 C1231 1.433 . S
C1233 N1236 1.384 . S
C1234 H1225 0.929 . S
C1234 C1226 1.378 . S
C1234 C1229 1.350 . S
C1235 H1222 0.929 . S
C1235 C1227 1.433 . S
C1235 N1237 1.384 . S
N1236 C1232 1.427 . S
N1236 C1233 1.384 . S
N1237 C1229 1.427 . S
N1237 C1235 1.384 . S
H1238 C1244 0.930 . S
H1239 C1248 0.930 . S
H1240 C1253 0.929 . S
H1241 C1251 0.929 . S
H1242 C1246 0.929 . S
H1243 C1252 0.929 . S
C1244 H1238 0.930 . S
C1244 C1245 1.367 . S
C1244 C1252 1.378 . S
C1245 C1244 1.367 . S
C1245 C1253 1.433 . S
C1246 H1242 0.929 . S
C1246 C1248 1.378 . S
C1246 C1250 1.350 . S
C1247 C1250 1.463 . S
C1247 C1252 1.350 . S
C1247 N1255 1.427 . S
C1248 H1239 0.930 . S
C1248 C1246 1.378 . S
C1248 C1249 1.367 . S
C1249 C1248 1.367 . S
C1249 C1251 1.433 . S
C1250 C1246 1.350 . S
C1250 C1247 1.463 . S
C1250 N1254 1.427 . S
C1251 H1241 0.929 . S
C1251 C1249 1.433 . S
C1251 N1254 1.384 . S
C1252 H1243 0.929 . S
C1252 C1244 1.378 . S
C1252 C1247 1.350 . S
C1253 H1240 0.929 . S
C1253 C1245 1.433 . S
C1253 N1255 1.384 . S
N1254 C1250 1.427 . S
N1254 C1251 1.384 . S
N1255 C1247 1.427 . S
N1255 C1253 1.384 . S
H1256 C1262 0.930 . S
H1257 C1266 0.930 . S
H1258 C1271 0.929 . S
H1259 C1269 0.929 . S
H1260 C1264 0.929 . S
H1261 C1270 0.929 . S
C1262 H1256 0.930 . S
C1262 C1263 1.367 . S
C1262 C1270 1.378 . S
C1263 C1262 1.367 . S
C1263 C1271 1.433 . S
C1264 H1260 0.929 . S
C1264 C1266 1.378 . S
C1264 C1268 1.350 . S
C1265 C1268 1.463 . S
C1265 C1270 1.350 . S
C1265 N1273 1.427 . S
C1266 H1257 0.930 . S
C1266 C1264 1.378 . S
C1266 C1267 1.367 . S
C1267 C1266 1.367 . S
C1267 C1269 1.433 . S
C1268 C1264 1.350 . S
C1268 C1265 1.463 . S
C1268 N1272 1.427 . S
C1269 H1259 0.929 . S
C1269 C1267 1.433 . S
C1269 N1272 1.384 . S
C1270 H1261 0.929 . S
C1270 C1262 1.378 . S
C1270 C1265 1.350 . S
C1271 H1258 0.929 . S
C1271 C1263 1.433 . S
C1271 N1273 1.384 . S
N1272 C1268 1.427 . S
N1272 C1269 1.384 . S
N1273 C1265 1.427 . S
N1273 C1271 1.384 . S
H1274 C1280 0.930 . S
H1275 C1284 0.930 . S
H1276 C1289 0.929 . S
H1277 C1287 0.929 . S
H1278 C1282 0.929 . S
H1279 C1288 0.929 . S
C1280 H1274 0.930 . S
C1280 C1281 1.367 . S
C1280 C1288 1.378 . S
C1281 C1280 1.367 . S
C1281 C1289 1.433 . S
C1282 H1278 0.929 . S
C1282 C1284 1.378 . S
C1282 C1286 1.350 . S
C1283 C1286 1.463 . S
C1283 C1288 1.350 . S
C1283 N1291 1.427 . S
C1284 H1275 0.930 . S
C1284 C1282 1.378 . S
C1284 C1285 1.367 . S
C1285 C1284 1.367 . S
C1285 C1287 1.433 . S
C1286 C1282 1.350 . S
C1286 C1283 1.463 . S
C1286 N1290 1.427 . S
C1287 H1277 0.929 . S
C1287 C1285 1.433 . S
C1287 N1290 1.384 . S
C1288 H1279 0.929 . S
C1288 C1280 1.378 . S
C1288 C1283 1.350 . S
C1289 H1276 0.929 . S
C1289 C1281 1.433 . S
C1289 N1291 1.384 . S
N1290 C1286 1.427 . S
N1290 C1287 1.384 . S
N1291 C1283 1.427 . S
N1291 C1289 1.384 . S
H1292 C1298 0.930 . S
H1293 C1302 0.930 . S
H1294 C1307 0.929 . S
H1295 C1305 0.929 . S
H1296 C1300 0.929 . S
H1297 C1306 0.929 . S
C1298 H1292 0.930 . S
C1298 C1299 1.367 . S
C1298 C1306 1.378 . S
C1299 C1298 1.367 . S
C1299 C1307 1.433 . S
C1300 H1296 0.929 . S
C1300 C1302 1.378 . S
C1300 C1304 1.350 . S
C1301 C1304 1.463 . S
C1301 C1306 1.350 . S
C1301 N1309 1.427 . S
C1302 H1293 0.930 . S
C1302 C1300 1.378 . S
C1302 C1303 1.367 . S
C1303 C1302 1.367 . S
C1303 C1305 1.433 . S
C1304 C1300 1.350 . S
C1304 C1301 1.463 . S
C1304 N1308 1.427 . S
C1305 H1295 0.929 . S
C1305 C1303 1.433 . S
C1305 N1308 1.384 . S
C1306 H1297 0.929 . S
C1306 C1298 1.378 . S
C1306 C1301 1.350 . S
C1307 H1294 0.929 . S
C1307 C1299 1.433 . S
C1307 N1309 1.384 . S
N1308 C1304 1.427 . S
N1308 C1305 1.384 . S
N1309 C1301 1.427 . S
N1309 C1307 1.384 . S
H1310 C1316 0.930 . S
H1311 C1320 0.930 . S
H1312 C1325 0.929 . S
H1313 C1323 0.929 . S
H1314 C1318 0.929 . S
H1315 C1324 0.929 . S
C1316 H1310 0.930 . S
C1316 C1317 1.367 . S
C1316 C1324 1.378 . S
C1317 C1316 1.367 . S
C1317 C1325 1.433 . S
C1318 H1314 0.929 . S
C1318 C1320 1.378 . S
C1318 C1322 1.350 . S
C1319 C1322 1.463 . S
C1319 C1324 1.350 . S
C1319 N1327 1.427 . S
C1320 H1311 0.930 . S
C1320 C1318 1.378 . S
C1320 C1321 1.367 . S
C1321 C1320 1.367 . S
C1321 C1323 1.433 . S
C1322 C1318 1.350 . S
C1322 C1319 1.463 . S
C1322 N1326 1.427 . S
C1323 H1313 0.929 . S
C1323 C1321 1.433 . S
C1323 N1326 1.384 . S
C1324 H1315 0.929 . S
C1324 C1316 1.378 . S
C1324 C1319 1.350 . S
C1325 H1312 0.929 . S
C1325 C1317 1.433 . S
C1325 N1327 1.384 . S
N1326 C1322 1.427 . S
N1326 C1323 1.384 . S
N1327 C1319 1.427 . S
N1327 C1325 1.384 . S
H1328 C1334 0.930 . S
H1329 C1338 0.930 . S
H1330 C1343 0.929 . S
H1331 C1341 0.929 . S
H1332 C1336 0.929 . S
H1333 C1342 0.929 . S
C1334 H1328 0.930 . S
C1334 C1335 1.367 . S
C1334 C1342 1.378 . S
C1335 C1334 1.367 . S
C1335 C1343 1.433 . S
C1336 H1332 0.929 . S
C1336 C1338 1.378 . S
C1336 C1340 1.350 . S
C1337 C1340 1.463 . S
C1337 C1342 1.350 . S
C1337 N1345 1.427 . S
C1338 H1329 0.930 . S
C1338 C1336 1.378 . S
C1338 C1339 1.367 . S
C1339 C1338 1.367 . S
C1339 C1341 1.433 . S
C1340 C1336 1.350 . S
C1340 C1337 1.463 . S
C1340 N1344 1.427 . S
C1341 H1331 0.929 . S
C1341 C1339 1.433 . S
C1341 N1344 1.384 . S
C1342 H1333 0.929 . S
C1342 C1334 1.378 . S
C1342 C1337 1.350 . S
C1343 H1330 0.929 . S
C1343 C1335 1.433 . S
C1343 N1345 1.384 . S
N1344 C1340 1.427 . S
N1344 C1341 1.384 . S
N1345 C1337 1.427 . S
N1345 C1343 1.384 . S
H1346 C1352 0.930 . S
H1347 C1356 0.930 . S
H1348 C1361 0.929 . S
H1349 C1359 0.929 . S
H1350 C1354 0.929 . S
H1351 C1360 0.929 . S
C1352 H1346 0.930 . S
C1352 C1353 1.367 . S
C1352 C1360 1.378 . S
C1353 C1352 1.367 . S
C1353 C1361 1.433 . S
C1354 H1350 0.929 . S
C1354 C1356 1.378 . S
C1354 C1358 1.350 . S
C1355 C1358 1.463 . S
C1355 C1360 1.350 . S
C1355 N1363 1.427 . S
C1356 H1347 0.930 . S
C1356 C1354 1.378 . S
C1356 C1357 1.367 . S
C1357 C1356 1.367 . S
C1357 C1359 1.433 . S
C1358 C1354 1.350 . S
C1358 C1355 1.463 . S
C1358 N1362 1.427 . S
C1359 H1349 0.929 . S
C1359 C1357 1.433 . S
C1359 N1362 1.384 . S
C1360 H1351 0.929 . S
C1360 C1352 1.378 . S
C1360 C1355 1.350 . S
C1361 H1348 0.929 . S
C1361 C1353 1.433 . S
C1361 N1363 1.384 . S
N1362 C1358 1.427 . S
N1362 C1359 1.384 . S
N1363 C1355 1.427 . S
N1363 C1361 1.384 . S
H1364 C1370 0.930 . S
H1365 C1374 0.930 . S
H1366 C1379 0.929 . S
H1367 C1377 0.929 . S
H1368 C1372 0.929 . S
H1369 C1378 0.929 . S
C1370 H1364 0.930 . S
C1370 C1371 1.367 . S
C1370 C1378 1.378 . S
C1371 C1370 1.367 . S
C1371 C1379 1.433 . S
C1372 H1368 0.929 . S
C1372 C1374 1.378 . S
C1372 C1376 1.350 . S
C1373 C1376 1.463 . S
C1373 C1378 1.350 . S
C1373 N1381 1.427 . S
C1374 H1365 0.930 . S
C1374 C1372 1.378 . S
C1374 C1375 1.367 . S
C1375 C1374 1.367 . S
C1375 C1377 1.433 . S
C1376 C1372 1.350 . S
C1376 C1373 1.463 . S
C1376 N1380 1.427 . S
C1377 H1367 0.929 . S
C1377 C1375 1.433 . S
C1377 N1380 1.384 . S
C1378 H1369 0.929 . S
C1378 C1370 1.378 . S
C1378 C1373 1.350 . S
C1379 H1366 0.929 . S
C1379 C1371 1.433 . S
C1379 N1381 1.384 . S
N1380 C1376 1.427 . S
N1380 C1377 1.384 . S
N1381 C1373 1.427 . S
N1381 C1379 1.384 . S
H1382 C1388 0.930 . S
H1383 C1392 0.930 . S
H1384 C1397 0.929 . S
H1385 C1395 0.929 . S
H1386 C1390 0.929 . S
H1387 C1396 0.929 . S
C1388 H1382 0.930 . S
C1388 C1389 1.367 . S
C1388 C1396 1.378 . S
C1389 C1388 1.367 . S
C1389 C1397 1.433 . S
C1390 H1386 0.929 . S
C1390 C1392 1.378 . S
C1390 C1394 1.350 . S
C1391 C1394 1.463 . S
C1391 C1396 1.350 . S
C1391 N1399 1.427 . S
C1392 H1383 0.930 . S
C1392 C1390 1.378 . S
C1392 C1393 1.367 . S
C1393 C1392 1.367 . S
C1393 C1395 1.433 . S
C1394 C1390 1.350 . S
C1394 C1391 1.463 . S
C1394 N1398 1.427 . S
C1395 H1385 0.929 . S
C1395 C1393 1.433 . S
C1395 N1398 1.384 . S
C1396 H1387 0.929 . S
C1396 C1388 1.378 . S
C1396 C1391 1.350 . S
C1397 H1384 0.929 . S
C1397 C1389 1.433 . S
C1397 N1399 1.384 . S
N1398 C1394 1.427 . S
N1398 C1395 1.384 . S
N1399 C1391 1.427 . S
N1399 C1397 1.384 . S
H1400 C1406 0.930 . S
H1401 C1410 0.930 . S
H1402 C1415 0.929 . S
H1403 C1413 0.929 . S
H1404 C1408 0.929 . S
H1405 C1414 0.929 . S
C1406 H1400 0.930 . S
C1406 C1407 1.367 . S
C1406 C1414 1.378 . S
C1407 C1406 1.367 . S
C1407 C1415 1.433 . S
C1408 H1404 0.929 . S
C1408 C1410 1.378 . S
C1408 C1412 1.350 . S
C1409 C1412 1.463 . S
C1409 C1414 1.350 . S
C1409 N1417 1.427 . S
C1410 H1401 0.930 . S
C1410 C1408 1.378 . S
C1410 C1411 1.367 . S
C1411 C1410 1.367 . S
C1411 C1413 1.433 . S
C1412 C1408 1.350 . S
C1412 C1409 1.463 . S
C1412 N1416 1.427 . S
C1413 H1403 0.929 . S
C1413 C1411 1.433 . S
C1413 N1416 1.384 . S
C1414 H1405 0.929 . S
C1414 C1406 1.378 . S
C1414 C1409 1.350 . S
C1415 H1402 0.929 . S
C1415 C1407 1.433 . S
C1415 N1417 1.384 . S
N1416 C1412 1.427 . S
N1416 C1413 1.384 . S
N1417 C1409 1.427 . S
N1417 C1415 1.384 . S
H1418 C1424 0.930 . S
H1419 C1428 0.930 . S
H1420 C1433 0.929 . S
H1421 C1431 0.929 . S
H1422 C1426 0.929 . S
H1423 C1432 0.929 . S
C1424 H1418 0.930 . S
C1424 C1425 1.367 . S
C1424 C1432 1.378 . S
C1425 C1424 1.367 . S
C1425 C1433 1.433 . S
C1426 H1422 0.929 . S
C1426 C1428 1.378 . S
C1426 C1430 1.350 . S
C1427 C1430 1.463 . S
C1427 C1432 1.350 . S
C1427 N1435 1.427 . S
C1428 H1419 0.930 . S
C1428 C1426 1.378 . S
C1428 C1429 1.367 . S
C1429 C1428 1.367 . S
C1429 C1431 1.433 . S
C1430 C1426 1.350 . S
C1430 C1427 1.463 . S
C1430 N1434 1.427 . S
C1431 H1421 0.929 . S
C1431 C1429 1.433 . S
C1431 N1434 1.384 . S
C1432 H1423 0.929 . S
C1432 C1424 1.378 . S
C1432 C1427 1.350 . S
C1433 H1420 0.929 . S
C1433 C1425 1.433 . S
C1433 N1435 1.384 . S
N1434 C1430 1.427 . S
N1434 C1431 1.384 . S
N1435 C1427 1.427 . S
N1435 C1433 1.384 . S
H1436 C1442 0.930 . S
H1437 C1446 0.930 . S
H1438 C1451 0.929 . S
H1439 C1449 0.929 . S
H1440 C1444 0.929 . S
H1441 C1450 0.929 . S
C1442 H1436 0.930 . S
C1442 C1443 1.367 . S
C1442 C1450 1.378 . S
C1443 C1442 1.367 . S
C1443 C1451 1.433 . S
C1444 H1440 0.929 . S
C1444 C1446 1.378 . S
C1444 C1448 1.350 . S
C1445 C1448 1.463 . S
C1445 C1450 1.350 . S
C1445 N1453 1.427 . S
C1446 H1437 0.930 . S
C1446 C1444 1.378 . S
C1446 C1447 1.367 . S
C1447 C1446 1.367 . S
C1447 C1449 1.433 . S
C1448 C1444 1.350 . S
C1448 C1445 1.463 . S
C1448 N1452 1.427 . S
C1449 H1439 0.929 . S
C1449 C1447 1.433 . S
C1449 N1452 1.384 . S
C1450 H1441 0.929 . S
C1450 C1442 1.378 . S
C1450 C1445 1.350 . S
C1451 H1438 0.929 . S
C1451 C1443 1.433 . S
C1451 N1453 1.384 . S
N1452 C1448 1.427 . S
N1452 C1449 1.384 . S
N1453 C1445 1.427 . S
N1453 C1451 1.384 . S
H1454 C1460 0.930 . S
H1455 C1464 0.930 . S
H1456 C1469 0.929 . S
H1457 C1467 0.929 . S
H1458 C1462 0.929 . S
H1459 C1468 0.929 . S
C1460 H1454 0.930 . S
C1460 C1461 1.367 . S
C1460 C1468 1.378 . S
C1461 C1460 1.367 . S
C1461 C1469 1.433 . S
C1462 H1458 0.929 . S
C1462 C1464 1.378 . S
C1462 C1466 1.350 . S
C1463 C1466 1.463 . S
C1463 C1468 1.350 . S
C1463 N1471 1.427 . S
C1464 H1455 0.930 . S
C1464 C1462 1.378 . S
C1464 C1465 1.367 . S
C1465 C1464 1.367 . S
C1465 C1467 1.433 . S
C1466 C1462 1.350 . S
C1466 C1463 1.463 . S
C1466 N1470 1.427 . S
C1467 H1457 0.929 . S
C1467 C1465 1.433 . S
C1467 N1470 1.384 . S
C1468 H1459 0.929 . S
C1468 C1460 1.378 . S
C1468 C1463 1.350 . S
C1469 H1456 0.929 . S
C1469 C1461 1.433 . S
C1469 N1471 1.384 . S
N1470 C1466 1.427 . S
N1470 C1467 1.384 . S
N1471 C1463 1.427 . S
N1471 C1469 1.384 . S
C471 C416 2.256 . S
C475 C3 2.317 1_565 S
C489 C445 2.255 . S
C493 C32 2.316 1_545 S
C507 C61 2.323 . S
C511 C242 2.256 . S
C525 C271 2.250 . S
C529 C90 2.318 . S
C543 C119 2.320 . S
C547 C300 2.250 . S
C561 C329 2.251 . S
C565 C148 2.320 . S
C579 C358 2.257 . S
C583 C177 2.324 . S
C597 C206 2.322 . S
C601 C387 2.255 . S
C615 C235 2.320 1_565 S
C619 C184 2.260 . S
C633 C264 2.318 1_545 S
C637 C213 2.254 . S
C651 C293 2.323 . S
C655 C10 2.262 . S
C669 C322 2.318 . S
C673 C39 2.253 . S
C687 C351 2.320 . S
C691 C68 2.258 . S
C705 C97 2.256 . S
C709 C380 2.317 . S
C723 C126 2.259 . S
C727 C409 2.323 . S
C741 C155 2.254 . S
C745 C438 2.318 . S
C759 C385 0.789 . S
C763 C8 0.771 . S
C777 C356 0.790 . S
C781 C37 0.769 . S
C795 C66 0.769 . S
C799 C95 0.790 . S
C813 C124 0.770 . S
C817 C269 0.785 . S
C831 C240 0.777 . S
C835 C153 0.777 . S
C849 C182 0.769 . S
C853 C211 0.786 . S
C867 C327 0.769 . S
C871 C298 0.790 . S
C885 C414 0.773 . S
C889 C443 0.782 . S
C903 C274 2.309 . S
C907 C5 2.558 . S
C921 C34 2.555 . S
C925 C245 2.293 . S
C939 C63 2.556 . S
C943 C216 2.299 . S
C957 C187 2.307 . S
C961 C92 2.559 . S
C975 C121 2.558 . S
C979 C390 2.306 . S
C993 C361 2.308 . S
C997 C150 2.562 . S
C1011 C100 2.298 . S
C1015 C179 2.556 . S
C1029 C71 2.305 . S
C1033 C208 2.558 . S
C1047 C42 2.306 . S
C1051 C237 2.562 . S
C1065 C13 2.301 . S
C1069 C266 2.559 . S
C1083 C448 2.312 . S
C1087 C295 2.561 . S
C1101 C419 2.312 . S
C1105 C324 2.561 . S
C1119 C353 2.561 . S
C1123 C158 2.309 . S
C1137 C129 2.305 . S
C1141 C382 2.556 . S
C1155 C411 2.561 . S
C1159 C332 2.311 . S
C1173 C303 2.298 . S
C1177 C440 2.555 . S
C1191 C224 1.003 . S
C1195 C15 1.062 . S
C1209 C44 1.038 . S
C1213 C195 0.976 . S
C1227 C73 1.060 . S
C1231 C398 1.001 . S
C1245 C102 1.060 . S
C1249 C369 1.001 . S
C1263 C131 1.038 . S
C1267 C108 0.974 . S
C1281 C79 0.969 . S
C1285 C160 1.033 . S
C1299 C189 1.057 . S
C1303 C282 0.998 . S
C1317 C253 0.996 . S
C1321 C218 1.055 . S
C1335 C247 1.040 . S
C1339 C456 0.977 . S
C1353 C276 1.055 . S
C1357 C427 0.998 . S
C1371 C305 1.031 . S
C1375 C166 0.967 . S
C1389 C137 0.990 . S
C1393 C334 1.049 . S
C1407 C340 1.002 . S
C1411 C363 1.061 . S
C1425 C311 0.980 . S
C1429 C392 1.044 . S
C1443 C421 1.031 . S
C1447 C50 0.966 . S
C1461 C450 1.059 . S
C1465 C21 1.000 . S
