# Generated by pormake.
# Topology noz, (5)-cn, num edge types: 1
# Building blocks:
#     Node 0, Type 0, BuildingBlock: XOMCOT_clean_sbu_0, # of connection points: 5
#     Node 1, Type 0, BuildingBlock: XOMCOT_clean_sbu_0, # of connection points: 5
#     Node 2, Type 0, BuildingBlock: XOMCOT_clean_sbu_0, # of connection points: 5
#     Node 3, Type 0, BuildingBlock: XOMCOT_clean_sbu_0, # of connection points: 5
#     Node 4, Type 0, BuildingBlock: XOMCOT_clean_sbu_0, # of connection points: 5
#     Node 5, Type 0, BuildingBlock: XOMCOT_clean_sbu_0, # of connection points: 5
#     Node 6, Type 0, BuildingBlock: XOMCOT_clean_sbu_0, # of connection points: 5
#     Node 7, Type 0, BuildingBlock: XOMCOT_clean_sbu_0, # of connection points: 5
#     Edge 8, Type (0, 0), BuildingBlock: OJICUG_clean_linker_0, # of connection points: 2
#     Edge 9, Type (0, 0), BuildingBlock: OJICUG_clean_linker_0, # of connection points: 2
#     Edge 10, Type (0, 0), BuildingBlock: OJICUG_clean_linker_0, # of connection points: 2
#     Edge 11, Type (0, 0), BuildingBlock: OJICUG_clean_linker_0, # of connection points: 2
#     Edge 12, Type (0, 0), BuildingBlock: OJICUG_clean_linker_0, # of connection points: 2
#     Edge 13, Type (0, 0), BuildingBlock: OJICUG_clean_linker_0, # of connection points: 2
#     Edge 14, Type (0, 0), BuildingBlock: OJICUG_clean_linker_0, # of connection points: 2
#     Edge 15, Type (0, 0), BuildingBlock: OJICUG_clean_linker_0, # of connection points: 2
#     Edge 16, Type (0, 0), BuildingBlock: OJICUG_clean_linker_0, # of connection points: 2
#     Edge 17, Type (0, 0), BuildingBlock: OJICUG_clean_linker_0, # of connection points: 2
#     Edge 18, Type (0, 0), BuildingBlock: OJICUG_clean_linker_0, # of connection points: 2
#     Edge 19, Type (0, 0), BuildingBlock: OJICUG_clean_linker_0, # of connection points: 2
#     Edge 20, Type (0, 0), BuildingBlock: OJICUG_clean_linker_0, # of connection points: 2
#     Edge 21, Type (0, 0), BuildingBlock: OJICUG_clean_linker_0, # of connection points: 2
#     Edge 22, Type (0, 0), BuildingBlock: OJICUG_clean_linker_0, # of connection points: 2
#     Edge 23, Type (0, 0), BuildingBlock: OJICUG_clean_linker_0, # of connection points: 2
#     Edge 24, Type (0, 0), BuildingBlock: OJICUG_clean_linker_0, # of connection points: 2
#     Edge 25, Type (0, 0), BuildingBlock: OJICUG_clean_linker_0, # of connection points: 2
#     Edge 26, Type (0, 0), BuildingBlock: OJICUG_clean_linker_0, # of connection points: 2
#     Edge 27, Type (0, 0), BuildingBlock: OJICUG_clean_linker_0, # of connection points: 2
# Relax obj value: 0.103
# Max RMSD: 0.189
# Mean RMSD: 0.188
data_MOF--net-noz--node1-XOMCOT_clean_sbu_0--edge1-OJICUG_clean_linker_0
_symmetry_space_group_name_H-M    P1
_symmetry_Int_Tables_number       1
_symmetry_cell_setting            triclinic
loop_
_symmetry_equiv_pos_as_xyz
'x, y, z'
_cell_length_a     18.282389
_cell_length_b     38.856504
_cell_length_c     27.317274
_cell_angle_alpha  89.137377
_cell_angle_beta   90.399543
_cell_angle_gamma 89.651301
loop_
_atom_site_label
_atom_site_type_symbol
_atom_site_fract_x
_atom_site_fract_y
_atom_site_fract_z
_atom_type_partial_charge
Co0 Co 0.1931 0.32332 0.38858 0.0
C1 C 0.30936 0.29608 0.46126 0.0
C2 C 0.25557 0.25823 0.41762 0.0
C3 C 0.30322 0.2415 0.44866 0.0
N4 N 0.25869 0.29246 0.42511 0.0
N5 N 0.33702 0.26516 0.47585 0.0
H6 H 0.32378 0.31998 0.47824 0.0
H7 H 0.21882 0.24603 0.3921 0.0
C8 C 0.09966 0.28879 0.46255 0.0
O9 O 0.14984 0.29757 0.49458 0.0
N10 N 0.12569 0.35161 0.35043 0.0
C11 C 0.13251 0.3851 0.33802 0.0
C12 C 0.06912 0.39584 0.31455 0.0
C13 C 0.05908 0.34228 0.33382 0.0
N14 N 0.02298 0.36889 0.31202 0.0
C15 C 0.25112 0.37632 0.4484 0.0
C16 C 0.11806 0.4018 0.47937 0.0
C17 C 0.18112 0.42145 0.48705 0.0
C18 C 0.24848 0.40777 0.47239 0.0
C19 C 0.12319 0.37017 0.45557 0.0
N20 N 0.18917 0.35783 0.43984 0.0
H21 H 0.30273 0.36822 0.43333 0.0
H22 H 0.0731 0.35714 0.44621 0.0
H23 H 0.17937 0.40081 0.34665 0.0
H24 H 0.03647 0.31684 0.3391 0.0
O25 O 0.27395 0.34268 0.35334 0.0
O26 O 0.2141 0.29636 0.32997 0.0
O27 O 0.1075 0.29701 0.41727 0.0
C28 C 0.26667 0.31828 0.32204 0.0
H29 H 0.3113 0.21393 0.45205 0.0
H30 H 0.05778 0.42158 0.30068 0.0
H31 H 0.06478 0.41135 0.48994 0.0
H32 H 0.29848 0.42229 0.47639 0.0
Co33 Co 0.60266 0.70348 0.90696 0.0
C34 C 0.73817 0.70551 0.84557 0.0
C35 C 0.64821 0.68037 0.81051 0.0
C36 C 0.70678 0.67987 0.77945 0.0
N37 N 0.66732 0.69675 0.85181 0.0
N38 N 0.7633 0.69565 0.80143 0.0
H39 H 0.77112 0.71834 0.87268 0.0
H40 H 0.59573 0.66861 0.8038 0.0
C41 C 0.50015 0.72752 0.8294 0.0
O42 O 0.53691 0.75643 0.82743 0.0
N43 N 0.5365 0.71009 0.96067 0.0
C44 C 0.53174 0.69146 1.00252 0.0
C45 C 0.47702 0.70537 0.03071 0.0
C46 C 0.48598 0.73528 0.96413 0.0
N47 N 0.44877 0.73295 1.00651 0.0
C48 C 0.65801 0.63607 0.92391 0.0
C49 C 0.52569 0.60204 0.92285 0.0
C50 C 0.58972 0.58337 0.93481 0.0
C51 C 0.6566 0.60087 0.9343 0.0
C52 C 0.52948 0.63744 0.91301 0.0
N53 N 0.59505 0.65399 0.91448 0.0
H54 H 0.70983 0.64928 0.92476 0.0
H55 H 0.47945 0.65169 0.90604 0.0
H56 H 0.56583 0.66947 0.012 0.0
H57 H 0.47656 0.75484 0.93613 0.0
O58 O 0.6833 0.71035 0.9511 0.0
O59 O 0.62768 0.7521 0.90855 0.0
O60 O 0.51766 0.70417 0.86061 0.0
C61 C 0.67728 0.74294 0.94079 0.0
H62 H 0.70863 0.66744 0.74427 0.0
H63 H 0.46044 0.69643 0.06666 0.0
H64 H 0.47283 0.58964 0.92218 0.0
H65 H 0.70738 0.58793 0.94401 0.0
Co66 Co 0.21132 0.67421 0.62119 0.0
C67 C 0.31293 0.71045 0.55451 0.0
C68 C 0.32839 0.65578 0.5527 0.0
C69 C 0.3834 0.67115 0.52632 0.0
N70 N 0.28364 0.68037 0.57006 0.0
N71 N 0.37445 0.70563 0.52789 0.0
H72 H 0.29267 0.73532 0.56569 0.0
H73 H 0.32442 0.62859 0.5612 0.0
C74 C 0.06922 0.69035 0.5679 0.0
O75 O 0.043 0.66095 0.58421 0.0
N76 N 0.14124 0.66878 0.67473 0.0
C77 C 0.15233 0.65026 0.71652 0.0
C78 C 0.0956 0.65575 0.74802 0.0
C79 C 0.07893 0.68676 0.68312 0.0
N80 N 0.04925 0.67858 0.72694 0.0
C81 C 0.20009 0.60087 0.62531 0.0
C82 C 0.16159 0.59035 0.52886 0.0
C83 C 0.17501 0.56159 0.55955 0.0
C84 C 0.19316 0.56741 0.60853 0.0
C85 C 0.16882 0.62376 0.5474 0.0
N86 N 0.18712 0.62876 0.59547 0.0
H87 H 0.22016 0.60399 0.6619 0.0
H88 H 0.16303 0.64552 0.52254 0.0
H89 H 0.20006 0.63489 0.72538 0.0
H90 H 0.0569 0.70656 0.65904 0.0
O91 O 0.28896 0.66004 0.66494 0.0
O92 O 0.25057 0.71391 0.65476 0.0
O93 O 0.13509 0.69885 0.57854 0.0
C94 C 0.29438 0.69212 0.67707 0.0
H95 H 0.4281 0.65777 0.509 0.0
H96 H 0.08888 0.64369 0.78367 0.0
H97 H 0.14902 0.58714 0.49041 0.0
H98 H 0.20414 0.54618 0.63372 0.0
Co99 Co 0.58245 0.34578 0.12305 0.0
C100 C 0.45219 0.32694 0.06195 0.0
C101 C 0.55271 0.31076 0.02935 0.0
C102 C 0.49601 0.30104 0.99953 0.0
N103 N 0.52576 0.32756 0.06838 0.0
N104 N 0.43307 0.3111 0.02013 0.0
H105 H 0.41294 0.33696 0.0876 0.0
H106 H 0.60965 0.30507 0.02285 0.0
C107 C 0.73447 0.33266 0.08398 0.0
O108 O 0.74955 0.36548 0.0886 0.0
N109 N 0.64003 0.36284 0.17872 0.0
C110 C 0.61922 0.38594 0.21254 0.0
C111 C 0.67604 0.39124 0.24485 0.0
C112 C 0.70791 0.35278 0.19365 0.0
N113 N 0.73208 0.37052 0.23267 0.0
C114 C 0.57672 0.41791 0.10386 0.0
C115 C 0.62211 0.41776 1.00777 0.0
C116 C 0.59694 0.44867 0.02772 0.0
C117 C 0.57566 0.44846 0.07678 0.0
C118 C 0.62271 0.38751 0.03652 0.0
N119 N 0.60049 0.38775 0.08434 0.0
H120 H 0.55418 0.41854 0.13993 0.0
H121 H 0.64006 0.364 0.0197 0.0
H122 H 0.56593 0.39794 0.2147 0.0
H123 H 0.73951 0.3327 0.17696 0.0
O124 O 0.49413 0.36149 0.15314 0.0
O125 O 0.54225 0.30988 0.16638 0.0
O126 O 0.67226 0.32099 0.09754 0.0
C127 C 0.49 0.33195 0.17552 0.0
H128 H 0.50036 0.28594 0.96667 0.0
H129 H 0.67568 0.40868 0.27536 0.0
H130 H 0.63872 0.41663 0.96985 0.0
H131 H 0.55654 0.47169 0.09414 0.0
Co132 Co 0.70539 0.83026 0.39584 0.0
C133 C 0.8097 0.78963 0.45849 0.0
C134 C 0.82882 0.84398 0.46169 0.0
C135 C 0.88427 0.82719 0.48661 0.0
N136 N 0.78141 0.82059 0.44443 0.0
N137 N 0.873 0.79296 0.48428 0.0
H138 H 0.78715 0.76528 0.44727 0.0
H139 H 0.82557 0.87138 0.45438 0.0
C140 C 0.57217 0.80895 0.45271 0.0
O141 O 0.54741 0.84057 0.44684 0.0
N142 N 0.63074 0.83955 0.34438 0.0
C143 C 0.64238 0.85764 0.30234 0.0
C144 C 0.58021 0.85818 0.2741 0.0
C145 C 0.56071 0.82837 0.3395 0.0
N146 N 0.52876 0.84002 0.29761 0.0
C147 C 0.67649 0.90208 0.40333 0.0
C148 C 0.66773 0.9056 0.50399 0.0
C149 C 0.66788 0.93632 0.47615 0.0
C150 C 0.67025 0.93401 0.42518 0.0
C151 C 0.67364 0.87376 0.48039 0.0
N152 N 0.67822 0.87228 0.43041 0.0
H153 H 0.68457 0.90182 0.36449 0.0
H154 H 0.6776 0.85042 0.50234 0.0
H155 H 0.69237 0.87047 0.29247 0.0
H156 H 0.53343 0.81109 0.36436 0.0
O157 O 0.77844 0.85097 0.35568 0.0
O158 O 0.74968 0.79579 0.35297 0.0
O159 O 0.63402 0.80039 0.43434 0.0
C160 C 0.789 0.82124 0.33598 0.0
H161 H 0.93062 0.83937 0.50388 0.0
H162 H 0.5727 0.8717 0.23946 0.0
H163 H 0.66675 0.90619 0.5436 0.0
H164 H 0.67003 0.95693 0.40209 0.0
Co165 Co 0.10649 0.20273 0.91757 0.0
C166 C 0.24988 0.19576 0.86493 0.0
C167 C 0.15911 0.17399 0.82623 0.0
C168 C 0.22194 0.16612 0.80164 0.0
N169 N 0.17599 0.19263 0.86595 0.0
N170 N 0.27892 0.17966 0.82597 0.0
H171 H 0.28232 0.20728 0.89352 0.0
H172 H 0.10539 0.16436 0.81758 0.0
C173 C 0.95793 0.21012 0.86471 0.0
O174 O 0.92182 0.2122 0.90581 0.0
N175 N 0.03798 0.21236 0.96996 0.0
C176 C 0.02171 0.19131 1.00801 0.0
C177 C 0.9711 0.20729 0.03705 0.0
C178 C 1.00012 0.24176 0.97814 0.0
N179 N 0.95689 0.23885 0.018 0.0
C180 C 0.15652 0.13549 0.94086 0.0
C181 C 0.0258 0.10092 0.93128 0.0
C182 C 0.08861 0.08243 0.94633 0.0
C183 C 0.15462 0.10025 0.95047 0.0
C184 C 0.03019 0.13642 0.92166 0.0
N185 N 0.09494 0.15332 0.92727 0.0
H186 H 0.20799 0.14867 0.94484 0.0
H187 H 0.98114 0.15023 0.91134 0.0
H188 H 0.04489 0.166 0.01458 0.0
H189 H 1.00085 0.26397 0.95375 0.0
O190 O 0.18401 0.2096 0.96433 0.0
O191 O 0.13623 0.25064 0.91633 0.0
O192 O 0.02728 0.20514 0.86469 0.0
C193 C 0.18296 0.24173 0.95056 0.0
H194 H 0.22593 0.15026 0.7695 0.0
H195 H 0.94649 0.19646 0.0697 0.0
H196 H 0.9736 0.08818 0.92745 0.0
H197 H 0.2043 0.08736 0.96273 0.0
Co198 Co 0.6955 0.18162 0.63568 0.0
C199 C 0.81797 0.21368 0.57781 0.0
C200 C 0.72227 0.20378 0.53465 0.0
C201 C 0.77425 0.21816 0.50477 0.0
N202 N 0.74916 0.20109 0.58058 0.0
N203 N 0.83482 0.22439 0.5317 0.0
H204 H 0.85525 0.21448 0.6086 0.0
H205 H 0.66841 0.19556 0.52336 0.0
C206 C 0.53499 0.20274 0.61238 0.0
O207 O 0.50709 0.18092 0.64408 0.0
N208 N 0.64255 0.16221 0.69083 0.0
C209 C 0.64566 0.12933 0.70693 0.0
C210 C 0.59756 0.12537 0.74505 0.0
C211 C 0.59666 0.17834 0.72169 0.0
N212 N 0.56517 0.15604 0.75358 0.0
C213 C 0.74577 0.12292 0.58492 0.0
C214 C 0.61274 0.09083 0.57191 0.0
C215 C 0.67675 0.07343 0.55837 0.0
C216 C 0.74383 0.0902 0.56454 0.0
C217 C 0.61713 0.12371 0.59202 0.0
N218 N 0.68319 0.13921 0.59906 0.0
H219 H 0.79824 0.13491 0.59071 0.0
H220 H 0.56752 0.13567 0.60365 0.0
H221 H 0.67865 0.10928 0.69094 0.0
H222 H 0.58137 0.20519 0.71763 0.0
O223 O 0.78495 0.16901 0.6692 0.0
O224 O 0.72643 0.21875 0.67771 0.0
O225 O 0.60423 0.20426 0.60568 0.0
C226 C 0.7804 0.19844 0.69094 0.0
H227 H 0.76707 0.22382 0.46616 0.0
H228 H 0.58487 0.10129 0.76341 0.0
H229 H 0.55961 0.07909 0.5673 0.0
H230 H 0.79488 0.07776 0.55512 0.0
Co231 Co 0.07949 0.83908 0.11871 0.0
C232 C 0.94391 0.82483 0.05968 0.0
C233 C 0.04178 0.81071 0.02204 0.0
C234 C 0.98318 0.80355 0.99247 0.0
N235 N 1.01783 0.82473 0.06406 0.0
N236 N 0.92183 0.81233 0.01611 0.0
H237 H 0.90669 0.83292 0.08794 0.0
H238 H 0.09799 0.80506 0.01323 0.0
C239 C 0.22788 0.82482 0.07709 0.0
O240 O 0.24568 0.85687 0.08584 0.0
N241 N 0.14234 0.85173 0.17409 0.0
C242 C 0.12968 0.87453 0.21009 0.0
C243 C 0.18744 0.87361 0.24293 0.0
C244 C 0.20547 0.83586 0.1879 0.0
N245 N 0.2354 0.84948 0.22841 0.0
C246 C 0.07758 0.91188 0.10508 0.0
C247 C 0.12068 0.91492 1.00856 0.0
C248 C 0.09618 0.94513 0.03081 0.0
C249 C 0.07609 0.94332 0.08004 0.0
C250 C 0.1213 0.88372 0.03515 0.0
N251 N 0.09979 0.88228 0.08312 0.0
H252 H 0.05639 0.91141 0.14155 0.0
H253 H 0.13794 0.86086 0.01642 0.0
H254 H 0.08111 0.89017 0.21373 0.0
H255 H 0.22875 0.81389 0.1699 0.0
O256 O 0.99593 0.85567 0.15244 0.0
O257 O 0.03834 0.80253 0.16072 0.0
O258 O 0.16468 0.81353 0.08887 0.0
C259 C 0.99078 0.82585 0.17383 0.0
H260 H 0.98515 0.79081 0.95751 0.0
H261 H 0.19415 0.88983 0.27449 0.0
H262 H 0.13663 0.91509 0.97045 0.0
H263 H 0.05762 0.96599 0.09908 0.0
C264 C 0.36237 0.29013 0.26948 0.0
C265 C 0.31493 0.31786 0.27897 0.0
H266 H 0.45658 0.27269 0.22936 0.0
C267 C 0.32271 0.34858 0.25218 0.0
H268 H 0.35822 0.26639 0.29054 0.0
C269 C 0.37796 0.35219 0.21771 0.0
C270 C 0.42822 0.32534 0.20951 0.0
H271 H 0.28735 0.37043 0.25921 0.0
H272 H 0.38262 0.37673 0.19869 0.0
C273 C 0.419 0.29389 0.23499 0.0
C274 C 0.4166 0.74522 0.75946 0.0
C275 C 0.44449 0.71965 0.79162 0.0
H276 H 0.34615 0.75668 0.69786 0.0
C277 C 0.42126 0.6855 0.7861 0.0
H278 H 0.43349 0.77175 0.76281 0.0
C279 C 0.37276 0.67692 0.74879 0.0
C280 C 0.34524 0.70228 0.71639 0.0
H281 H 0.44171 0.66507 0.81 0.0
H282 H 0.35667 0.65026 0.74548 0.0
C283 C 0.36674 0.73663 0.72235 0.0
C284 C 0.91996 0.69498 0.71393 0.0
C285 C 0.97933 0.68899 0.74585 0.0
H286 H 0.80416 0.70212 0.70691 0.0
C287 C 0.96745 0.68963 0.79666 0.0
H288 H 0.92735 0.69457 0.67465 0.0
C289 C 0.89693 0.69389 0.81514 0.0
C290 C 0.83686 0.69731 0.78312 0.0
H291 H 1.01241 0.68562 0.82214 0.0
H292 H 0.88901 0.69251 0.85434 0.0
C293 C 0.8494 0.69895 0.73239 0.0
C294 C 0.84758 0.33941 0.25337 0.0
C295 C 0.80456 0.36955 0.25423 0.0
H296 H 0.95073 0.31556 0.27109 0.0
C297 C 0.83463 0.39928 0.2749 0.0
H298 H 0.82604 0.31601 0.23802 0.0
C299 C 0.90606 0.39905 0.29363 0.0
C300 C 0.9492 0.369 0.29264 0.0
H301 H 0.80347 0.42303 0.27566 0.0
H302 H 0.9273 0.42241 0.30929 0.0
C303 C 0.91887 0.33909 0.27263 0.0
C304 C 0.84839 0.84966 0.26585 0.0
C305 C 0.83751 0.81919 0.29286 0.0
H306 H 0.90239 0.87513 0.20772 0.0
C307 C 0.87501 0.78915 0.27888 0.0
H308 H 0.82052 0.87332 0.27517 0.0
C309 C 0.9248 0.79033 0.23946 0.0
C310 C 0.93602 0.8214 0.21331 0.0
H311 H 0.86769 0.76529 0.29919 0.0
H312 H 0.95497 0.76734 0.23001 0.0
C313 C 0.89591 0.85067 0.22669 0.0
C314 C 0.80503 0.22507 0.77208 0.0
C315 C 0.83009 0.2062 0.73208 0.0
H316 H 0.82563 0.24062 0.84585 0.0
C317 C 0.89989 0.19093 0.73451 0.0
H318 H 0.75109 0.23678 0.77133 0.0
C319 C 0.94298 0.19351 0.77679 0.0
C320 C 0.9163 0.21067 0.81795 0.0
H321 H 0.9204 0.17616 0.70414 0.0
H322 H 0.99566 0.18073 0.7779 0.0
C323 C 0.84742 0.22696 0.81485 0.0
C324 C 0.37699 0.14016 0.80189 0.0
C325 C 0.3547 0.17329 0.81524 0.0
H326 H 0.46071 0.1086 0.77237 0.0
C327 C 0.40554 0.2002 0.81336 0.0
H328 H 0.33888 0.11895 0.80347 0.0
C329 C 0.47624 0.19437 0.79519 0.0
C330 C 0.49736 0.1614 0.77944 0.0
H331 H 0.38935 0.22597 0.82349 0.0
H332 H 0.51357 0.21579 0.79211 0.0
C333 C 0.44733 0.13423 0.78449 0.0
C334 C 0.3241 0.84652 0.29764 0.0
C335 C 0.30795 0.84278 0.24756 0.0
H336 H 0.40799 0.84753 0.35323 0.0
C337 C 0.36511 0.83461 0.21548 0.0
H338 H 0.28109 0.85259 0.3232 0.0
C339 C 0.43714 0.83209 0.23251 0.0
C340 C 0.4537 0.83705 0.28213 0.0
H341 H 0.35472 0.83188 0.17668 0.0
H342 H 0.48048 0.82728 0.20663 0.0
C343 C 0.39635 0.8433 0.31487 0.0
C344 C 0.23007 0.50228 0.5563 0.0
C345 C 0.17532 0.52571 0.54073 0.0
H346 H 0.27385 0.45121 0.55266 0.0
C347 C 0.12129 0.51432 0.50797 0.0
H348 H 0.27328 0.51021 0.58091 0.0
C349 C 0.12193 0.48027 0.49146 0.0
C350 C 0.17698 0.45695 0.50703 0.0
H351 H 0.07819 0.53162 0.49544 0.0
H352 H 0.08024 0.47245 0.46564 0.0
C353 C 0.23082 0.46843 0.53977 0.0
C354 C 0.52918 0.53592 0.98254 0.0
C355 C 0.58668 0.54688 0.95232 0.0
H356 H 0.48636 0.49617 0.02864 0.0
C357 C 0.64421 0.52361 0.94297 0.0
H358 H 0.48417 0.55301 0.99101 0.0
C359 C 0.64637 0.49108 0.96575 0.0
C360 C 0.5909 0.48107 0.9982 0.0
H361 H 0.68872 0.53087 0.91908 0.0
H362 H 0.69304 0.47444 0.95961 0.0
C363 C 0.53106 0.50341 1.00488 0.0
C364 C 0.62697 0.01283 0.5576 0.0
C365 C 0.67415 0.03803 0.53809 0.0
H366 H 0.58828 0.96077 0.55375 0.0
C367 C 0.72007 0.02904 0.49926 0.0
H368 H 0.59156 0.01877 0.58798 0.0
C369 C 0.7186 0.99596 0.48013 0.0
C370 C 0.67094 0.97084 0.49907 0.0
H371 H 0.75668 0.04776 0.48306 0.0
H372 H 0.7551 0.99004 0.45031 0.0
C373 C 0.62565 0.97951 0.53843 0.0
C374 C 0.02961 1.00036 1.01104 0.0
C375 C 0.08999 0.97846 1.00348 0.0
H376 H 0.98179 0.05017 0.99909 0.0
C377 C 0.14591 0.98966 0.97219 0.0
H378 H 0.98477 0.99223 0.03411 0.0
C379 C 0.14364 0.02282 0.95145 0.0
C380 C 0.08535 0.04549 0.9615 0.0
H381 H 0.19301 0.9734 0.96548 0.0
H382 H 0.18867 0.03109 0.92866 0.0
C383 C 0.02734 0.03346 0.99037 0.0
C384 C 0.35994 0.23769 0.55543 0.0
C385 C 0.38604 0.2569 0.5155 0.0
H386 H 0.38616 0.20589 0.61753 0.0
C387 C 0.46165 0.26116 0.50999 0.0
H388 H 0.30171 0.23374 0.55965 0.0
C389 C 0.51067 0.24475 0.54264 0.0
C390 C 0.4845 0.22377 0.58116 0.0
H391 H 0.48262 0.27532 0.47872 0.0
H392 H 0.56883 0.24728 0.5364 0.0
C393 C 0.40849 0.22147 0.58809 0.0
C394 C 0.39709 0.79141 0.01391 0.0
C395 C 0.39244 0.75585 0.02321 0.0
H396 H 0.34903 0.84117 0.02425 0.0
C397 C 0.33254 0.74302 0.04954 0.0
H398 H 0.44306 0.80192 0.99403 0.0
C399 C 0.27812 0.76535 0.06615 0.0
C400 C 0.28349 0.801 0.05765 0.0
H401 H 0.32758 0.71568 0.05685 0.0
H402 H 0.23261 0.75474 0.08646 0.0
C403 C 0.34354 0.81382 0.03141 0.0
C404 C 0.40144 0.7659 0.50274 0.0
C405 C 0.42453 0.73158 0.50968 0.0
H406 H 0.42943 0.81697 0.47985 0.0
C407 C 0.49782 0.72318 0.49881 0.0
H408 H 0.3456 0.77344 0.51014 0.0
C409 C 0.5461 0.74823 0.48098 0.0
C410 C 0.52263 0.78241 0.47377 0.0
H411 H 0.51855 0.6973 0.5044 0.0
H412 H 0.6018 0.74075 0.47276 0.0
C413 C 0.44978 0.79094 0.48518 0.0
C414 C 0.25739 0.26321 0.02002 0.0
C415 C 0.23739 0.2656 0.97035 0.0
H416 H 0.33519 0.27726 0.07531 0.0
C417 C 0.27721 0.28709 0.93876 0.0
H418 H 0.22751 0.2466 0.04492 0.0
C419 C 0.33973 0.30381 0.9559 0.0
C420 C 0.36172 0.30011 1.00509 0.0
H421 H 0.26327 0.2889 0.90019 0.0
H422 H 0.37292 0.3184 0.93041 0.0
C423 C 0.3185 0.2808 0.03744 0.0
C424 C 0.04545 0.74799 0.52759 0.0
C425 C 1.0194 0.71565 0.54281 0.0
H426 H 1.02022 0.79742 0.49644 0.0
C427 C 0.94447 0.70854 0.53613 0.0
H428 H 0.10271 0.7544 0.53178 0.0
C429 C 0.89662 0.73349 0.51595 0.0
C430 C 0.92244 0.76622 0.5022 0.0
H431 H 0.92229 0.68392 0.54746 0.0
H432 H 0.8391 0.7275 0.51247 0.0
C433 C 0.99776 0.77286 0.5076 0.0
C434 C 0.85614 0.32113 0.0447 0.0
C435 C 0.79167 0.30865 0.06638 0.0
H436 H 0.95936 0.30861 0.01208 0.0
C437 C 0.78257 0.2729 0.07143 0.0
H438 H 0.86479 0.34853 0.0401 0.0
C439 C 0.8369 0.2502 0.05579 0.0
C440 C 0.90141 0.2626 0.03421 0.0
H441 H 0.73363 0.26236 0.08782 0.0
H442 H 0.82785 0.22282 0.06 0.0
C443 C 0.9102 0.29832 0.02845 0.0
C444 C 0.98073 0.2585 0.44685 0.0
C445 C 0.03234 0.27139 0.48 0.0
H446 H 0.87926 0.23277 0.43683 0.0
C447 C 1.01869 0.26793 0.53047 0.0
H448 H 0.98967 0.26055 0.40776 0.0
C449 C 0.95455 0.25242 0.54741 0.0
C450 C 0.90234 0.23965 0.51436 0.0
H451 H 0.05714 0.27767 0.55715 0.0
H452 H 0.94572 0.25105 0.58647 0.0
C453 C 0.91688 0.24268 0.46377 0.0
C454 C 0.74924 0.76258 0.01233 0.0
C455 C 0.72834 0.76732 0.96309 0.0
H456 H 0.82698 0.77467 0.06859 0.0
C457 C 0.76492 0.79166 0.93405 0.0
H458 H 0.72168 0.74381 0.0353 0.0
C459 C 0.826 0.80868 0.95285 0.0
C460 C 0.84975 0.80228 1.00122 0.0
H461 H 0.75015 0.7954 0.89585 0.0
H462 H 0.85741 0.82532 0.92891 0.0
C463 C 0.80892 0.78033 0.03148 0.0
loop_
_geom_bond_atom_site_label_1
_geom_bond_atom_site_label_2
_geom_bond_distance
_geom_bond_site_symmetry_2
_ccdc_geom_bond_type
Co0 N4 2.148 . S
Co0 N10 2.128 . S
Co0 N20 2.194 . S
Co0 O25 2.351 . S
Co0 O26 2.155 . S
Co0 O27 2.096 . S
C1 N4 1.301 . S
C1 N5 1.328 . S
C1 H6 0.930 . S
C2 C3 1.333 . S
C2 N4 1.317 . S
C2 H7 0.930 . S
C3 C2 1.333 . S
C3 N5 1.350 . S
C3 H29 0.931 . S
N4 Co0 2.148 . S
N4 C1 1.301 . S
N4 C2 1.317 . S
N5 C1 1.328 . S
N5 C3 1.350 . S
H6 C1 0.930 . S
H7 C2 0.930 . S
C8 O9 1.224 . S
C8 O27 1.247 . S
O9 C8 1.224 . S
N10 Co0 2.128 . S
N10 C11 1.355 . S
N10 C13 1.311 . S
C11 N10 1.355 . S
C11 C12 1.363 . S
C11 H23 0.929 . S
C12 C11 1.363 . S
C12 N14 1.375 . S
C12 H30 0.931 . S
C13 N10 1.311 . S
C13 N14 1.347 . S
C13 H24 0.929 . S
N14 C12 1.375 . S
N14 C13 1.347 . S
C15 C18 1.365 . S
C15 N20 1.328 . S
C15 H21 0.929 . S
C16 C17 1.362 . S
C16 C19 1.378 . S
C16 H31 0.929 . S
C17 C16 1.362 . S
C17 C18 1.366 . S
C18 C15 1.365 . S
C18 C17 1.366 . S
C18 H32 0.930 . S
C19 C16 1.378 . S
C19 N20 1.315 . S
C19 H22 0.930 . S
N20 Co0 2.194 . S
N20 C15 1.328 . S
N20 C19 1.315 . S
H21 C15 0.929 . S
H22 C19 0.930 . S
H23 C11 0.929 . S
H24 C13 0.929 . S
O25 Co0 2.351 . S
O25 C28 1.244 . S
O26 Co0 2.155 . S
O26 C28 1.240 . S
O27 Co0 2.096 . S
O27 C8 1.247 . S
C28 O25 1.244 . S
C28 O26 1.240 . S
H29 C3 0.931 . S
H30 C12 0.931 . S
H31 C16 0.929 . S
H32 C18 0.930 . S
Co33 N37 2.148 . S
Co33 N43 2.128 . S
Co33 N53 2.194 . S
Co33 O58 2.351 . S
Co33 O59 2.155 . S
Co33 O60 2.096 . S
C34 N37 1.301 . S
C34 N38 1.328 . S
C34 H39 0.930 . S
C35 C36 1.333 . S
C35 N37 1.317 . S
C35 H40 0.930 . S
C36 C35 1.333 . S
C36 N38 1.350 . S
C36 H62 0.931 . S
N37 Co33 2.148 . S
N37 C34 1.301 . S
N37 C35 1.317 . S
N38 C34 1.328 . S
N38 C36 1.350 . S
H39 C34 0.930 . S
H40 C35 0.930 . S
C41 O42 1.224 . S
C41 O60 1.247 . S
O42 C41 1.224 . S
N43 Co33 2.128 . S
N43 C44 1.355 . S
N43 C46 1.311 . S
C44 N43 1.355 . S
C44 C45 1.363 1_556 S
C44 H56 0.929 1_556 S
C45 C44 1.363 1_554 S
C45 N47 1.375 1_554 S
C45 H63 0.931 . S
C46 N43 1.311 . S
C46 N47 1.347 . S
C46 H57 0.929 . S
N47 C45 1.375 1_556 S
N47 C46 1.347 . S
C48 C51 1.365 . S
C48 N53 1.328 . S
C48 H54 0.929 . S
C49 C50 1.362 . S
C49 C52 1.378 . S
C49 H64 0.929 . S
C50 C49 1.362 . S
C50 C51 1.366 . S
C51 C48 1.365 . S
C51 C50 1.366 . S
C51 H65 0.930 . S
C52 C49 1.378 . S
C52 N53 1.315 . S
C52 H55 0.930 . S
N53 Co33 2.194 . S
N53 C48 1.328 . S
N53 C52 1.315 . S
H54 C48 0.929 . S
H55 C52 0.930 . S
H56 C44 0.929 1_554 S
H57 C46 0.929 . S
O58 Co33 2.351 . S
O58 C61 1.244 . S
O59 Co33 2.155 . S
O59 C61 1.240 . S
O60 Co33 2.096 . S
O60 C41 1.247 . S
C61 O58 1.244 . S
C61 O59 1.240 . S
H62 C36 0.931 . S
H63 C45 0.931 . S
H64 C49 0.929 . S
H65 C51 0.930 . S
Co66 N70 2.148 . S
Co66 N76 2.128 . S
Co66 N86 2.194 . S
Co66 O91 2.351 . S
Co66 O92 2.155 . S
Co66 O93 2.096 . S
C67 N70 1.301 . S
C67 N71 1.328 . S
C67 H72 0.930 . S
C68 C69 1.333 . S
C68 N70 1.317 . S
C68 H73 0.930 . S
C69 C68 1.333 . S
C69 N71 1.350 . S
C69 H95 0.931 . S
N70 Co66 2.148 . S
N70 C67 1.301 . S
N70 C68 1.317 . S
N71 C67 1.328 . S
N71 C69 1.350 . S
H72 C67 0.930 . S
H73 C68 0.930 . S
C74 O75 1.224 . S
C74 O93 1.247 . S
O75 C74 1.224 . S
N76 Co66 2.128 . S
N76 C77 1.355 . S
N76 C79 1.311 . S
C77 N76 1.355 . S
C77 C78 1.363 . S
C77 H89 0.929 . S
C78 C77 1.363 . S
C78 N80 1.375 . S
C78 H96 0.931 . S
C79 N76 1.311 . S
C79 N80 1.347 . S
C79 H90 0.929 . S
N80 C78 1.375 . S
N80 C79 1.347 . S
C81 C84 1.365 . S
C81 N86 1.328 . S
C81 H87 0.929 . S
C82 C83 1.362 . S
C82 C85 1.378 . S
C82 H97 0.929 . S
C83 C82 1.362 . S
C83 C84 1.366 . S
C84 C81 1.365 . S
C84 C83 1.366 . S
C84 H98 0.930 . S
C85 C82 1.378 . S
C85 N86 1.315 . S
C85 H88 0.930 . S
N86 Co66 2.194 . S
N86 C81 1.328 . S
N86 C85 1.315 . S
H87 C81 0.929 . S
H88 C85 0.930 . S
H89 C77 0.929 . S
H90 C79 0.929 . S
O91 Co66 2.351 . S
O91 C94 1.244 . S
O92 Co66 2.155 . S
O92 C94 1.240 . S
O93 Co66 2.096 . S
O93 C74 1.247 . S
C94 O91 1.244 . S
C94 O92 1.240 . S
H95 C69 0.931 . S
H96 C78 0.931 . S
H97 C82 0.929 . S
H98 C84 0.930 . S
Co99 N103 2.148 . S
Co99 N109 2.128 . S
Co99 N119 2.194 . S
Co99 O124 2.351 . S
Co99 O125 2.155 . S
Co99 O126 2.096 . S
C100 N103 1.301 . S
C100 N104 1.328 . S
C100 H105 0.930 . S
C101 C102 1.333 . S
C101 N103 1.317 . S
C101 H106 0.930 . S
C102 C101 1.333 . S
C102 N104 1.350 . S
C102 H128 0.931 1_554 S
N103 Co99 2.148 . S
N103 C100 1.301 . S
N103 C101 1.317 . S
N104 C100 1.328 . S
N104 C102 1.350 . S
H105 C100 0.930 . S
H106 C101 0.930 . S
C107 O108 1.224 . S
C107 O126 1.247 . S
O108 C107 1.224 . S
N109 Co99 2.128 . S
N109 C110 1.355 . S
N109 C112 1.311 . S
C110 N109 1.355 . S
C110 C111 1.363 . S
C110 H122 0.929 . S
C111 C110 1.363 . S
C111 N113 1.375 . S
C111 H129 0.931 . S
C112 N109 1.311 . S
C112 N113 1.347 . S
C112 H123 0.929 . S
N113 C111 1.375 . S
N113 C112 1.347 . S
C114 C117 1.365 . S
C114 N119 1.328 . S
C114 H120 0.929 . S
C115 C116 1.362 . S
C115 C118 1.378 . S
C115 H130 0.929 1_554 S
C116 C115 1.362 . S
C116 C117 1.366 . S
C117 C114 1.365 . S
C117 C116 1.366 . S
C117 H131 0.930 . S
C118 C115 1.378 . S
C118 N119 1.315 . S
C118 H121 0.930 . S
N119 Co99 2.194 . S
N119 C114 1.328 . S
N119 C118 1.315 . S
H120 C114 0.929 . S
H121 C118 0.930 . S
H122 C110 0.929 . S
H123 C112 0.929 . S
O124 Co99 2.351 . S
O124 C127 1.244 . S
O125 Co99 2.155 . S
O125 C127 1.240 . S
O126 Co99 2.096 . S
O126 C107 1.247 . S
C127 O124 1.244 . S
C127 O125 1.240 . S
H128 C102 0.931 1_556 S
H129 C111 0.931 . S
H130 C115 0.929 1_556 S
H131 C117 0.930 . S
Co132 N136 2.148 . S
Co132 N142 2.128 . S
Co132 N152 2.194 . S
Co132 O157 2.351 . S
Co132 O158 2.155 . S
Co132 O159 2.096 . S
C133 N136 1.301 . S
C133 N137 1.328 . S
C133 H138 0.930 . S
C134 C135 1.333 . S
C134 N136 1.317 . S
C134 H139 0.930 . S
C135 C134 1.333 . S
C135 N137 1.350 . S
C135 H161 0.931 . S
N136 Co132 2.148 . S
N136 C133 1.301 . S
N136 C134 1.317 . S
N137 C133 1.328 . S
N137 C135 1.350 . S
H138 C133 0.930 . S
H139 C134 0.930 . S
C140 O141 1.224 . S
C140 O159 1.247 . S
O141 C140 1.224 . S
N142 Co132 2.128 . S
N142 C143 1.355 . S
N142 C145 1.311 . S
C143 N142 1.355 . S
C143 C144 1.363 . S
C143 H155 0.929 . S
C144 C143 1.363 . S
C144 N146 1.375 . S
C144 H162 0.931 . S
C145 N142 1.311 . S
C145 N146 1.347 . S
C145 H156 0.929 . S
N146 C144 1.375 . S
N146 C145 1.347 . S
C147 C150 1.365 . S
C147 N152 1.328 . S
C147 H153 0.929 . S
C148 C149 1.362 . S
C148 C151 1.378 . S
C148 H163 0.929 . S
C149 C148 1.362 . S
C149 C150 1.366 . S
C150 C147 1.365 . S
C150 C149 1.366 . S
C150 H164 0.930 . S
C151 C148 1.378 . S
C151 N152 1.315 . S
C151 H154 0.930 . S
N152 Co132 2.194 . S
N152 C147 1.328 . S
N152 C151 1.315 . S
H153 C147 0.929 . S
H154 C151 0.930 . S
H155 C143 0.929 . S
H156 C145 0.929 . S
O157 Co132 2.351 . S
O157 C160 1.244 . S
O158 Co132 2.155 . S
O158 C160 1.240 . S
O159 Co132 2.096 . S
O159 C140 1.247 . S
C160 O157 1.244 . S
C160 O158 1.240 . S
H161 C135 0.931 . S
H162 C144 0.931 . S
H163 C148 0.929 . S
H164 C150 0.930 . S
Co165 N169 2.148 . S
Co165 N175 2.128 1_455 S
Co165 N185 2.194 . S
Co165 O190 2.351 . S
Co165 O191 2.155 . S
Co165 O192 2.096 . S
C166 N169 1.301 . S
C166 N170 1.328 . S
C166 H171 0.930 . S
C167 C168 1.333 . S
C167 N169 1.317 . S
C167 H172 0.930 . S
C168 C167 1.333 . S
C168 N170 1.350 . S
C168 H194 0.931 . S
N169 Co165 2.148 . S
N169 C166 1.301 . S
N169 C167 1.317 . S
N170 C166 1.328 . S
N170 C168 1.350 . S
H171 C166 0.930 . S
H172 C167 0.930 . S
C173 O174 1.224 . S
C173 O192 1.247 1_655 S
O174 C173 1.224 . S
N175 Co165 2.128 1_655 S
N175 C176 1.355 . S
N175 C178 1.311 . S
C176 N175 1.355 . S
C176 C177 1.363 1_556 S
C176 H188 0.929 1_656 S
C177 C176 1.363 1_554 S
C177 N179 1.375 1_554 S
C177 H195 0.931 . S
C178 N175 1.311 . S
C178 N179 1.347 . S
C178 H189 0.929 . S
N179 C177 1.375 1_556 S
N179 C178 1.347 . S
C180 C183 1.365 . S
C180 N185 1.328 . S
C180 H186 0.929 . S
C181 C182 1.362 . S
C181 C184 1.378 . S
C181 H196 0.929 1_455 S
C182 C181 1.362 . S
C182 C183 1.366 . S
C183 C180 1.365 . S
C183 C182 1.366 . S
C183 H197 0.930 . S
C184 C181 1.378 . S
C184 N185 1.315 . S
C184 H187 0.930 1_455 S
N185 Co165 2.194 . S
N185 C180 1.328 . S
N185 C184 1.315 . S
H186 C180 0.929 . S
H187 C184 0.930 1_655 S
H188 C176 0.929 1_454 S
H189 C178 0.929 . S
O190 Co165 2.351 . S
O190 C193 1.244 . S
O191 Co165 2.155 . S
O191 C193 1.240 . S
O192 Co165 2.096 . S
O192 C173 1.247 1_455 S
C193 O190 1.244 . S
C193 O191 1.240 . S
H194 C168 0.931 . S
H195 C177 0.931 . S
H196 C181 0.929 1_655 S
H197 C183 0.930 . S
Co198 N202 2.148 . S
Co198 N208 2.128 . S
Co198 N218 2.194 . S
Co198 O223 2.351 . S
Co198 O224 2.155 . S
Co198 O225 2.096 . S
C199 N202 1.301 . S
C199 N203 1.328 . S
C199 H204 0.930 . S
C200 C201 1.333 . S
C200 N202 1.317 . S
C200 H205 0.930 . S
C201 C200 1.333 . S
C201 N203 1.350 . S
C201 H227 0.931 . S
N202 Co198 2.148 . S
N202 C199 1.301 . S
N202 C200 1.317 . S
N203 C199 1.328 . S
N203 C201 1.350 . S
H204 C199 0.930 . S
H205 C200 0.930 . S
C206 O207 1.224 . S
C206 O225 1.247 . S
O207 C206 1.224 . S
N208 Co198 2.128 . S
N208 C209 1.355 . S
N208 C211 1.311 . S
C209 N208 1.355 . S
C209 C210 1.363 . S
C209 H221 0.929 . S
C210 C209 1.363 . S
C210 N212 1.375 . S
C210 H228 0.931 . S
C211 N208 1.311 . S
C211 N212 1.347 . S
C211 H222 0.929 . S
N212 C210 1.375 . S
N212 C211 1.347 . S
C213 C216 1.365 . S
C213 N218 1.328 . S
C213 H219 0.929 . S
C214 C215 1.362 . S
C214 C217 1.378 . S
C214 H229 0.929 . S
C215 C214 1.362 . S
C215 C216 1.366 . S
C216 C213 1.365 . S
C216 C215 1.366 . S
C216 H230 0.930 . S
C217 C214 1.378 . S
C217 N218 1.315 . S
C217 H220 0.930 . S
N218 Co198 2.194 . S
N218 C213 1.328 . S
N218 C217 1.315 . S
H219 C213 0.929 . S
H220 C217 0.930 . S
H221 C209 0.929 . S
H222 C211 0.929 . S
O223 Co198 2.351 . S
O223 C226 1.244 . S
O224 Co198 2.155 . S
O224 C226 1.240 . S
O225 Co198 2.096 . S
O225 C206 1.247 . S
C226 O223 1.244 . S
C226 O224 1.240 . S
H227 C201 0.931 . S
H228 C210 0.931 . S
H229 C214 0.929 . S
H230 C216 0.930 . S
Co231 N235 2.148 1_455 S
Co231 N241 2.128 . S
Co231 N251 2.194 . S
Co231 O256 2.351 1_455 S
Co231 O257 2.155 . S
Co231 O258 2.096 . S
C232 N235 1.301 . S
C232 N236 1.328 . S
C232 H237 0.930 . S
C233 C234 1.333 . S
C233 N235 1.317 . S
C233 H238 0.930 1_655 S
C234 C233 1.333 . S
C234 N236 1.350 . S
C234 H260 0.931 1_554 S
N235 Co231 2.148 1_655 S
N235 C232 1.301 . S
N235 C233 1.317 . S
N236 C232 1.328 . S
N236 C234 1.350 . S
H237 C232 0.930 . S
H238 C233 0.930 1_455 S
C239 O240 1.224 . S
C239 O258 1.247 . S
O240 C239 1.224 . S
N241 Co231 2.128 . S
N241 C242 1.355 . S
N241 C244 1.311 . S
C242 N241 1.355 . S
C242 C243 1.363 . S
C242 H254 0.929 . S
C243 C242 1.363 . S
C243 N245 1.375 . S
C243 H261 0.931 . S
C244 N241 1.311 . S
C244 N245 1.347 . S
C244 H255 0.929 . S
N245 C243 1.375 . S
N245 C244 1.347 . S
C246 C249 1.365 . S
C246 N251 1.328 . S
C246 H252 0.929 1_455 S
C247 C248 1.362 . S
C247 C250 1.378 . S
C247 H262 0.929 1_554 S
C248 C247 1.362 . S
C248 C249 1.366 . S
C249 C246 1.365 . S
C249 C248 1.366 . S
C249 H263 0.930 1_455 S
C250 C247 1.378 . S
C250 N251 1.315 . S
C250 H253 0.930 . S
N251 Co231 2.194 . S
N251 C246 1.328 . S
N251 C250 1.315 . S
H252 C246 0.929 1_655 S
H253 C250 0.930 . S
H254 C242 0.929 . S
H255 C244 0.929 . S
O256 Co231 2.351 1_655 S
O256 C259 1.244 . S
O257 Co231 2.155 . S
O257 C259 1.240 1_455 S
O258 Co231 2.096 . S
O258 C239 1.247 . S
C259 O256 1.244 . S
C259 O257 1.240 1_655 S
H260 C234 0.931 1_556 S
H261 C243 0.931 . S
H262 C247 0.929 1_556 S
H263 C249 0.930 1_655 S
C264 C265 1.387 . S
C264 H268 0.950 . S
C264 C273 1.390 . S
C265 C264 1.387 . S
C265 C267 1.387 . S
H266 C273 0.950 . S
C267 C265 1.387 . S
C267 C269 1.390 . S
C267 H271 0.950 . S
H268 C264 0.950 . S
C269 C267 1.390 . S
C269 C270 1.387 . S
C269 H272 0.950 . S
C270 C269 1.387 . S
C270 C273 1.387 . S
H271 C267 0.950 . S
H272 C269 0.950 . S
C273 C264 1.390 . S
C273 H266 0.950 . S
C273 C270 1.387 . S
C274 C275 1.387 . S
C274 H278 0.950 . S
C274 C283 1.390 . S
C275 C274 1.387 . S
C275 C277 1.387 . S
H276 C283 0.950 . S
C277 C275 1.387 . S
C277 C279 1.390 . S
C277 H281 0.950 . S
H278 C274 0.950 . S
C279 C277 1.390 . S
C279 C280 1.387 . S
C279 H282 0.950 . S
C280 C279 1.387 . S
C280 C283 1.387 . S
H281 C277 0.950 . S
H282 C279 0.950 . S
C283 C274 1.390 . S
C283 H276 0.950 . S
C283 C280 1.387 . S
C284 C285 1.387 . S
C284 H288 0.950 . S
C284 C293 1.390 . S
C285 C284 1.387 . S
C285 C287 1.387 . S
H286 C293 0.950 . S
C287 C285 1.387 . S
C287 C289 1.390 . S
C287 H291 0.950 . S
H288 C284 0.950 . S
C289 C287 1.390 . S
C289 C290 1.387 . S
C289 H292 0.950 . S
C290 C289 1.387 . S
C290 C293 1.387 . S
H291 C287 0.950 . S
H292 C289 0.950 . S
C293 C284 1.390 . S
C293 H286 0.950 . S
C293 C290 1.387 . S
C294 C295 1.387 . S
C294 H298 0.950 . S
C294 C303 1.390 . S
C295 C294 1.387 . S
C295 C297 1.387 . S
H296 C303 0.950 . S
C297 C295 1.387 . S
C297 C299 1.390 . S
C297 H301 0.950 . S
H298 C294 0.950 . S
C299 C297 1.390 . S
C299 C300 1.387 . S
C299 H302 0.950 . S
C300 C299 1.387 . S
C300 C303 1.387 . S
H301 C297 0.950 . S
H302 C299 0.950 . S
C303 C294 1.390 . S
C303 H296 0.950 . S
C303 C300 1.387 . S
C304 C305 1.387 . S
C304 H308 0.950 . S
C304 C313 1.390 . S
C305 C304 1.387 . S
C305 C307 1.387 . S
H306 C313 0.950 . S
C307 C305 1.387 . S
C307 C309 1.390 . S
C307 H311 0.950 . S
H308 C304 0.950 . S
C309 C307 1.390 . S
C309 C310 1.387 . S
C309 H312 0.950 . S
C310 C309 1.387 . S
C310 C313 1.387 . S
H311 C307 0.950 . S
H312 C309 0.950 . S
C313 C304 1.390 . S
C313 H306 0.950 . S
C313 C310 1.387 . S
C314 C315 1.387 . S
C314 H318 0.950 . S
C314 C323 1.390 . S
C315 C314 1.387 . S
C315 C317 1.387 . S
H316 C323 0.950 . S
C317 C315 1.387 . S
C317 C319 1.390 . S
C317 H321 0.950 . S
H318 C314 0.950 . S
C319 C317 1.390 . S
C319 C320 1.387 . S
C319 H322 0.950 . S
C320 C319 1.387 . S
C320 C323 1.387 . S
H321 C317 0.950 . S
H322 C319 0.950 . S
C323 C314 1.390 . S
C323 H316 0.950 . S
C323 C320 1.387 . S
C324 C325 1.387 . S
C324 H328 0.950 . S
C324 C333 1.390 . S
C325 C324 1.387 . S
C325 C327 1.387 . S
H326 C333 0.950 . S
C327 C325 1.387 . S
C327 C329 1.390 . S
C327 H331 0.950 . S
H328 C324 0.950 . S
C329 C327 1.390 . S
C329 C330 1.387 . S
C329 H332 0.950 . S
C330 C329 1.387 . S
C330 C333 1.387 . S
H331 C327 0.950 . S
H332 C329 0.950 . S
C333 C324 1.390 . S
C333 H326 0.950 . S
C333 C330 1.387 . S
C334 C335 1.387 . S
C334 H338 0.950 . S
C334 C343 1.390 . S
C335 C334 1.387 . S
C335 C337 1.387 . S
H336 C343 0.950 . S
C337 C335 1.387 . S
C337 C339 1.390 . S
C337 H341 0.950 . S
H338 C334 0.950 . S
C339 C337 1.390 . S
C339 C340 1.387 . S
C339 H342 0.950 . S
C340 C339 1.387 . S
C340 C343 1.387 . S
H341 C337 0.950 . S
H342 C339 0.950 . S
C343 C334 1.390 . S
C343 H336 0.950 . S
C343 C340 1.387 . S
C344 C345 1.387 . S
C344 H348 0.950 . S
C344 C353 1.390 . S
C345 C344 1.387 . S
C345 C347 1.387 . S
H346 C353 0.950 . S
C347 C345 1.387 . S
C347 C349 1.390 . S
C347 H351 0.950 . S
H348 C344 0.950 . S
C349 C347 1.390 . S
C349 C350 1.387 . S
C349 H352 0.950 . S
C350 C349 1.387 . S
C350 C353 1.387 . S
H351 C347 0.950 . S
H352 C349 0.950 . S
C353 C344 1.390 . S
C353 H346 0.950 . S
C353 C350 1.387 . S
C354 C355 1.387 . S
C354 H358 0.950 . S
C354 C363 1.390 1_556 S
C355 C354 1.387 . S
C355 C357 1.387 . S
H356 C363 0.950 . S
C357 C355 1.387 . S
C357 C359 1.390 1_556 S
C357 H361 0.950 . S
H358 C354 0.950 . S
C359 C357 1.390 1_554 S
C359 C360 1.387 . S
C359 H362 0.950 . S
C360 C359 1.387 . S
C360 C363 1.387 . S
H361 C357 0.950 . S
H362 C359 0.950 . S
C363 C354 1.390 1_554 S
C363 H356 0.950 . S
C363 C360 1.387 . S
C364 C365 1.387 . S
C364 H368 0.950 . S
C364 C373 1.390 1_545 S
C365 C364 1.387 . S
C365 C367 1.387 . S
H366 C373 0.950 . S
C367 C365 1.387 . S
C367 C369 1.390 1_545 S
C367 H371 0.950 . S
H368 C364 0.950 . S
C369 C367 1.390 1_565 S
C369 C370 1.387 . S
C369 H372 0.950 . S
C370 C369 1.387 . S
C370 C373 1.387 . S
H371 C367 0.950 . S
H372 C369 0.950 . S
C373 C364 1.390 1_565 S
C373 H366 0.950 . S
C373 C370 1.387 . S
C374 C375 1.387 1_655 S
C374 H378 0.950 . S
C374 C383 1.390 1_564 S
C375 C374 1.387 1_455 S
C375 C377 1.387 . S
H376 C383 0.950 . S
C377 C375 1.387 . S
C377 C379 1.390 1_564 S
C377 H381 0.950 . S
H378 C374 0.950 . S
C379 C377 1.390 1_546 S
C379 C380 1.387 . S
C379 H382 0.950 . S
C380 C379 1.387 . S
C380 C383 1.387 1_455 S
H381 C377 0.950 . S
H382 C379 0.950 . S
C383 C374 1.390 1_546 S
C383 H376 0.950 . S
C383 C380 1.387 1_655 S
C384 C385 1.387 . S
C384 H388 0.950 . S
C384 C393 1.390 . S
C385 C384 1.387 . S
C385 C387 1.387 . S
H386 C393 0.950 . S
C387 C385 1.387 . S
C387 C389 1.390 . S
C387 H391 0.950 . S
H388 C384 0.950 . S
C389 C387 1.390 . S
C389 C390 1.387 . S
C389 H392 0.950 . S
C390 C389 1.387 . S
C390 C393 1.387 . S
H391 C387 0.950 . S
H392 C389 0.950 . S
C393 C384 1.390 . S
C393 H386 0.950 . S
C393 C390 1.387 . S
C394 C395 1.387 . S
C394 H398 0.950 . S
C394 C403 1.390 1_556 S
C395 C394 1.387 . S
C395 C397 1.387 1_556 S
H396 C403 0.950 . S
C397 C395 1.387 1_554 S
C397 C399 1.390 . S
C397 H401 0.950 . S
H398 C394 0.950 . S
C399 C397 1.390 . S
C399 C400 1.387 . S
C399 H402 0.950 . S
C400 C399 1.387 . S
C400 C403 1.387 . S
H401 C397 0.950 . S
H402 C399 0.950 . S
C403 C394 1.390 1_554 S
C403 H396 0.950 . S
C403 C400 1.387 . S
C404 C405 1.387 . S
C404 H408 0.950 . S
C404 C413 1.390 . S
C405 C404 1.387 . S
C405 C407 1.387 . S
H406 C413 0.950 . S
C407 C405 1.387 . S
C407 C409 1.390 . S
C407 H411 0.950 . S
H408 C404 0.950 . S
C409 C407 1.390 . S
C409 C410 1.387 . S
C409 H412 0.950 . S
C410 C409 1.387 . S
C410 C413 1.387 . S
H411 C407 0.950 . S
H412 C409 0.950 . S
C413 C404 1.390 . S
C413 H406 0.950 . S
C413 C410 1.387 . S
C414 C415 1.387 . S
C414 H418 0.950 . S
C414 C423 1.390 . S
C415 C414 1.387 . S
C415 C417 1.387 . S
H416 C423 0.950 1_554 S
C417 C415 1.387 . S
C417 C419 1.390 . S
C417 H421 0.950 . S
H418 C414 0.950 . S
C419 C417 1.390 . S
C419 C420 1.396 . S
C419 H422 0.950 . S
C420 C419 1.396 . S
C420 C423 1.388 . S
H421 C417 0.950 . S
H422 C419 0.950 . S
C423 C414 1.390 . S
C423 H416 0.950 1_556 S
C423 C420 1.388 . S
C424 C425 1.387 . S
C424 H428 0.950 . S
C424 C433 1.390 1_455 S
C425 C424 1.387 . S
C425 C427 1.387 1_455 S
H426 C433 0.950 . S
C427 C425 1.387 1_655 S
C427 C429 1.390 . S
C427 H431 0.950 . S
H428 C424 0.950 . S
C429 C427 1.390 . S
C429 C430 1.387 . S
C429 H432 0.950 . S
C430 C429 1.387 . S
C430 C433 1.387 . S
H431 C427 0.950 . S
H432 C429 0.950 . S
C433 C424 1.390 1_655 S
C433 H426 0.950 . S
C433 C430 1.387 . S
C434 C435 1.387 . S
C434 H438 0.950 . S
C434 C443 1.390 1_554 S
C435 C434 1.387 . S
C435 C437 1.387 . S
H436 C443 0.950 . S
C437 C435 1.387 . S
C437 C439 1.390 . S
C437 H441 0.950 . S
H438 C434 0.950 . S
C439 C437 1.390 . S
C439 C440 1.387 1_554 S
C439 H442 0.950 . S
C440 C439 1.387 1_556 S
C440 C443 1.387 . S
H441 C437 0.950 . S
H442 C439 0.950 . S
C443 C434 1.390 1_556 S
C443 H436 0.950 . S
C443 C440 1.387 . S
C444 C445 1.387 . S
C444 H448 0.950 . S
C444 C453 1.390 1_455 S
C445 C444 1.387 . S
C445 C447 1.387 1_455 S
H446 C453 0.950 . S
C447 C445 1.387 1_655 S
C447 C449 1.390 . S
C447 H451 0.950 . S
H448 C444 0.950 . S
C449 C447 1.390 . S
C449 C450 1.387 . S
C449 H452 0.950 . S
C450 C449 1.387 . S
C450 C453 1.387 . S
H451 C447 0.950 . S
H452 C449 0.950 . S
C453 C444 1.390 1_655 S
C453 H446 0.950 . S
C453 C450 1.387 . S
C454 C455 1.375 1_554 S
C454 H458 0.956 . S
C454 C463 1.397 . S
C455 C454 1.375 1_556 S
C455 C457 1.387 . S
H456 C463 0.950 . S
C457 C455 1.387 . S
C457 C459 1.390 . S
C457 H461 0.950 . S
H458 C454 0.956 . S
C459 C457 1.390 . S
C459 C460 1.403 . S
C459 H462 0.950 . S
C460 C459 1.403 . S
C460 C463 1.380 1_556 S
H461 C457 0.950 . S
H462 C459 0.950 . S
C463 C454 1.397 . S
C463 H456 0.950 . S
C463 C460 1.380 1_554 S
C265 C28 1.340 . S
C270 C127 1.340 . S
C275 C41 1.326 . S
C280 C94 1.336 . S
C285 N80 1.621 1_655 S
C290 N38 1.582 . S
C295 N113 1.670 . S
C300 N14 1.670 1_655 S
C305 C160 1.340 . S
C310 C259 1.340 . S
C315 C226 1.336 . S
C320 C173 1.326 . S
C325 N170 1.584 . S
C330 N212 1.623 . S
C335 N245 1.672 . S
C340 N146 1.672 . S
C345 C83 1.540 . S
C350 C17 1.541 . S
C355 C50 1.479 . S
C360 C116 1.484 . S
C365 C215 1.540 . S
C370 C149 1.540 . S
C375 C248 1.484 . S
C380 C182 1.479 . S
C385 N5 1.442 . S
C390 C206 1.513 . S
C395 N47 1.487 . S
C400 C239 1.520 . S
C405 N71 1.431 . S
C410 C140 1.506 . S
C415 C193 1.501 . S
C420 N104 1.422 1_556 S
C425 C74 1.514 . S
C430 N137 1.441 . S
C435 C107 1.520 . S
C440 N179 1.487 . S
C445 C8 1.506 . S
C450 N203 1.434 . S
C455 C61 1.501 . S
C460 N236 1.422 1_556 S
