# Generated by pormake.
# Topology uos, (4)-cn, num edge types: 1
# Building blocks:
#     Node 0, Type 0, BuildingBlock: GALJAG_clean_sbu_0, # of connection points: 4
#     Node 1, Type 0, BuildingBlock: GALJAG_clean_sbu_0, # of connection points: 4
#     Node 2, Type 0, BuildingBlock: GALJAG_clean_sbu_0, # of connection points: 4
#     Node 3, Type 0, BuildingBlock: GALJAG_clean_sbu_0, # of connection points: 4
#     Node 4, Type 0, BuildingBlock: GALJAG_clean_sbu_0, # of connection points: 4
#     Node 5, Type 0, BuildingBlock: GALJAG_clean_sbu_0, # of connection points: 4
#     Node 6, Type 0, BuildingBlock: GALJAG_clean_sbu_0, # of connection points: 4
#     Node 7, Type 0, BuildingBlock: GALJAG_clean_sbu_0, # of connection points: 4
#     Node 8, Type 0, BuildingBlock: GALJAG_clean_sbu_0, # of connection points: 4
#     Node 9, Type 0, BuildingBlock: GALJAG_clean_sbu_0, # of connection points: 4
#     Node 10, Type 0, BuildingBlock: GALJAG_clean_sbu_0, # of connection points: 4
#     Node 11, Type 0, BuildingBlock: GALJAG_clean_sbu_0, # of connection points: 4
#     Node 12, Type 0, BuildingBlock: GALJAG_clean_sbu_0, # of connection points: 4
#     Node 13, Type 0, BuildingBlock: GALJAG_clean_sbu_0, # of connection points: 4
#     Node 14, Type 0, BuildingBlock: GALJAG_clean_sbu_0, # of connection points: 4
#     Node 15, Type 0, BuildingBlock: GALJAG_clean_sbu_0, # of connection points: 4
#     Node 16, Type 0, BuildingBlock: GALJAG_clean_sbu_0, # of connection points: 4
#     Node 17, Type 0, BuildingBlock: GALJAG_clean_sbu_0, # of connection points: 4
#     Node 18, Type 0, BuildingBlock: GALJAG_clean_sbu_0, # of connection points: 4
#     Node 19, Type 0, BuildingBlock: GALJAG_clean_sbu_0, # of connection points: 4
#     Node 20, Type 0, BuildingBlock: GALJAG_clean_sbu_0, # of connection points: 4
#     Node 21, Type 0, BuildingBlock: GALJAG_clean_sbu_0, # of connection points: 4
#     Node 22, Type 0, BuildingBlock: GALJAG_clean_sbu_0, # of connection points: 4
#     Node 23, Type 0, BuildingBlock: GALJAG_clean_sbu_0, # of connection points: 4
#     Node 24, Type 0, BuildingBlock: GALJAG_clean_sbu_0, # of connection points: 4
#     Node 25, Type 0, BuildingBlock: GALJAG_clean_sbu_0, # of connection points: 4
#     Node 26, Type 0, BuildingBlock: GALJAG_clean_sbu_0, # of connection points: 4
#     Node 27, Type 0, BuildingBlock: GALJAG_clean_sbu_0, # of connection points: 4
#     Node 28, Type 0, BuildingBlock: GALJAG_clean_sbu_0, # of connection points: 4
#     Node 29, Type 0, BuildingBlock: GALJAG_clean_sbu_0, # of connection points: 4
#     Node 30, Type 0, BuildingBlock: GALJAG_clean_sbu_0, # of connection points: 4
#     Node 31, Type 0, BuildingBlock: GALJAG_clean_sbu_0, # of connection points: 4
#     Edge 32, Type (0, 0), None
#     Edge 33, Type (0, 0), None
#     Edge 34, Type (0, 0), None
#     Edge 35, Type (0, 0), None
#     Edge 36, Type (0, 0), None
#     Edge 37, Type (0, 0), None
#     Edge 38, Type (0, 0), None
#     Edge 39, Type (0, 0), None
#     Edge 40, Type (0, 0), None
#     Edge 41, Type (0, 0), None
#     Edge 42, Type (0, 0), None
#     Edge 43, Type (0, 0), None
#     Edge 44, Type (0, 0), None
#     Edge 45, Type (0, 0), None
#     Edge 46, Type (0, 0), None
#     Edge 47, Type (0, 0), None
#     Edge 48, Type (0, 0), None
#     Edge 49, Type (0, 0), None
#     Edge 50, Type (0, 0), None
#     Edge 51, Type (0, 0), None
#     Edge 52, Type (0, 0), None
#     Edge 53, Type (0, 0), None
#     Edge 54, Type (0, 0), None
#     Edge 55, Type (0, 0), None
#     Edge 56, Type (0, 0), None
#     Edge 57, Type (0, 0), None
#     Edge 58, Type (0, 0), None
#     Edge 59, Type (0, 0), None
#     Edge 60, Type (0, 0), None
#     Edge 61, Type (0, 0), None
#     Edge 62, Type (0, 0), None
#     Edge 63, Type (0, 0), None
#     Edge 64, Type (0, 0), None
#     Edge 65, Type (0, 0), None
#     Edge 66, Type (0, 0), None
#     Edge 67, Type (0, 0), None
#     Edge 68, Type (0, 0), None
#     Edge 69, Type (0, 0), None
#     Edge 70, Type (0, 0), None
#     Edge 71, Type (0, 0), None
#     Edge 72, Type (0, 0), None
#     Edge 73, Type (0, 0), None
#     Edge 74, Type (0, 0), None
#     Edge 75, Type (0, 0), None
#     Edge 76, Type (0, 0), None
#     Edge 77, Type (0, 0), None
#     Edge 78, Type (0, 0), None
#     Edge 79, Type (0, 0), None
#     Edge 80, Type (0, 0), None
#     Edge 81, Type (0, 0), None
#     Edge 82, Type (0, 0), None
#     Edge 83, Type (0, 0), None
#     Edge 84, Type (0, 0), None
#     Edge 85, Type (0, 0), None
#     Edge 86, Type (0, 0), None
#     Edge 87, Type (0, 0), None
#     Edge 88, Type (0, 0), None
#     Edge 89, Type (0, 0), None
#     Edge 90, Type (0, 0), None
#     Edge 91, Type (0, 0), None
#     Edge 92, Type (0, 0), None
#     Edge 93, Type (0, 0), None
#     Edge 94, Type (0, 0), None
#     Edge 95, Type (0, 0), None
# Relax obj value: 0.041
# Max RMSD: 0.074
# Mean RMSD: 0.074
data_MOF--net-uos--node1-GALJAG_clean_sbu_0--edge1-none
_symmetry_space_group_name_H-M    P1
_symmetry_Int_Tables_number       1
_symmetry_cell_setting            triclinic
loop_
_symmetry_equiv_pos_as_xyz
'x, y, z'
_cell_length_a     39.944829
_cell_length_b     39.944882
_cell_length_c     9.7814045
_cell_angle_alpha  89.974479
_cell_angle_beta   89.973051
_cell_angle_gamma 90.00002
loop_
_atom_site_label
_atom_site_type_symbol
_atom_site_fract_x
_atom_site_fract_y
_atom_site_fract_z
_atom_type_partial_charge
In0 In 0.17729 0.17276 0.11039 0.0
O1 O 0.17502 0.13021 0.94979 0.0
O2 O 0.13545 0.16563 0.95516 0.0
C3 C 0.24089 0.16964 0.20331 0.0
C4 C 0.14341 0.14086 0.3028 0.0
C5 C 0.17285 0.23974 0.08654 0.0
O6 O 0.23403 0.16821 0.07694 0.0
O7 O 0.21598 0.17234 0.28133 0.0
O8 O 0.15926 0.22346 0.18202 0.0
O9 O 0.18832 0.22228 -0.00082 0.0
C10 C 0.14661 0.13882 0.90543 0.0
O11 O 0.1345 0.16942 0.26132 0.0
O12 O 0.16944 0.12883 0.24907 0.0
In13 In 0.09338 0.92729 0.36059 0.0
O14 O 0.13591 0.92503 0.19978 0.0
O15 O 0.10052 0.88543 0.20547 0.0
C16 C 0.09651 0.99088 0.45355 0.0
C17 C 0.12527 0.89341 0.55289 0.0
C18 C 0.0264 0.92285 0.33661 0.0
O19 O 0.09798 0.98403 0.32718 0.0
O20 O 0.09375 0.96598 0.53155 0.0
O21 O 0.04265 0.90927 0.43215 0.0
O22 O 0.04389 0.93833 0.24929 0.0
C23 C 0.12731 0.89661 0.15554 0.0
O24 O 0.0967 0.88452 0.5116 0.0
O25 O 0.13732 0.91942 0.49903 0.0
In26 In 0.33889 0.84338 0.61066 0.0
O27 O 0.34116 0.88592 0.44995 0.0
O28 O 0.38073 0.8505 0.45532 0.0
C29 C 0.27528 0.84651 0.70357 0.0
C30 C 0.37276 0.87528 0.80288 0.0
C31 C 0.34334 0.7764 0.58677 0.0
O32 O 0.28217 0.84797 0.5772 0.0
O33 O 0.30016 0.84376 0.7816 0.0
O34 O 0.35689 0.79266 0.68232 0.0
O35 O 0.32789 0.79388 0.4994 0.0
C36 C 0.36957 0.87731 0.40551 0.0
O37 O 0.38168 0.84671 0.76146 0.0
O38 O 0.34674 0.8873 0.7492 0.0
In39 In 0.42276 0.0889 0.86048 0.0
O40 O 0.3802 0.09117 0.69998 0.0
O41 O 0.41565 0.13071 0.70502 0.0
C42 C 0.41964 0.02528 0.95333 0.0
C43 C 0.39086 0.12277 0.05281 0.0
C44 C 0.48974 0.09334 0.83671 0.0
O45 O 0.41821 0.03217 0.82696 0.0
O46 O 0.42233 0.05016 0.03138 0.0
O47 O 0.47346 0.1069 0.93221 0.0
O48 O 0.47229 0.07789 0.7493 0.0
C49 C 0.38882 0.11957 0.65541 0.0
O50 O 0.41941 0.1317 0.01119 0.0
O51 O 0.37885 0.09672 -0.00074 0.0
In52 In 0.17726 0.8434 0.84929 0.0
O53 O 0.13446 0.84675 0.69859 0.0
O54 O 0.16944 0.8873 0.71051 0.0
C55 C 0.17281 0.77642 0.87307 0.0
C56 C 0.14659 0.87733 0.05436 0.0
C57 C 0.24088 0.84651 0.75645 0.0
O58 O 0.15926 0.7927 0.77757 0.0
O59 O 0.18826 0.79387 0.96048 0.0
O60 O 0.23399 0.84794 0.88282 0.0
O61 O 0.216 0.84382 0.67839 0.0
C62 C 0.14339 0.87529 0.65697 0.0
O63 O 0.17498 0.88596 0.0098 0.0
O64 O 0.13544 0.85051 0.00475 0.0
In65 In 0.42278 0.92726 0.09911 0.0
O66 O 0.41945 0.88448 0.94831 0.0
O67 O 0.37886 0.91942 0.96058 0.0
C68 C 0.48975 0.92282 0.12302 0.0
C69 C 0.38884 0.89658 0.30426 0.0
C70 C 0.41965 0.99088 0.00622 0.0
O71 O 0.4735 0.90927 0.02747 0.0
O72 O 0.47227 0.93827 0.21038 0.0
O73 O 0.41818 0.98399 0.13258 0.0
O74 O 0.4224 0.96599 0.92818 0.0
C75 C 0.39088 0.89339 0.90689 0.0
O76 O 0.38023 0.925 0.25983 0.0
O77 O 0.41565 0.88542 0.25445 0.0
In78 In 0.33886 0.17278 0.34921 0.0
O79 O 0.34112 0.13025 0.51001 0.0
O80 O 0.38072 0.16563 0.50431 0.0
C81 C 0.27527 0.16965 0.25624 0.0
C82 C 0.37274 0.14088 0.15689 0.0
C83 C 0.34331 0.23975 0.37318 0.0
O84 O 0.28213 0.16817 0.38261 0.0
O85 O 0.30018 0.1724 0.17823 0.0
O86 O 0.35689 0.2235 0.27765 0.0
O87 O 0.32782 0.22227 0.4605 0.0
C88 C 0.36955 0.13884 0.55424 0.0
O89 O 0.38163 0.16946 0.19818 0.0
O90 O 0.34673 0.12884 0.21076 0.0
In91 In 0.0934 0.08887 0.59937 0.0
O92 O 0.13594 0.09113 0.75996 0.0
O93 O 0.10052 0.1307 0.75461 0.0
C94 C 0.09651 0.02527 0.50647 0.0
C95 C 0.1253 0.12274 0.40695 0.0
C96 C 0.02642 0.09331 0.62322 0.0
O97 O 0.09795 0.03213 0.63284 0.0
O98 O 0.09382 0.05017 0.42844 0.0
O99 O 0.0427 0.1069 0.52774 0.0
O100 O 0.04387 0.07784 0.71059 0.0
C101 C 0.12734 0.11955 0.80433 0.0
O102 O 0.09673 0.13166 0.44845 0.0
O103 O 0.13732 0.09671 0.46068 0.0
In104 In 0.83887 0.8434 0.84939 0.0
O105 O 0.84113 0.88594 0.00999 0.0
O106 O 0.8807 0.85052 0.00462 0.0
C107 C 0.77527 0.84652 0.75647 0.0
C108 C 0.87274 0.8753 0.65698 0.0
C109 C 0.84331 0.77642 0.87324 0.0
O110 O 0.78213 0.84795 0.88284 0.0
O111 O 0.80018 0.84382 0.67845 0.0
O112 O 0.8569 0.7927 0.77776 0.0
O113 O 0.82783 0.79387 0.9606 0.0
C114 C 0.86954 0.87733 0.05436 0.0
O115 O 0.88166 0.84673 0.69846 0.0
O116 O 0.84672 0.88732 0.71071 0.0
In117 In 0.92278 0.08886 0.59919 0.0
O118 O 0.91946 0.13163 0.44818 0.0
O119 O 0.87884 0.09673 0.46075 0.0
C120 C 0.98975 0.0933 0.62315 0.0
C121 C 0.88884 0.11955 0.80424 0.0
C122 C 0.91964 0.02527 0.50623 0.0
O123 O 0.9735 0.10688 0.52762 0.0
O124 O 0.97227 0.07783 0.7105 0.0
O125 O 0.91817 0.03213 0.6326 0.0
O126 O 0.9224 0.05018 0.42823 0.0
C127 C 0.89088 0.12274 0.40689 0.0
O128 O 0.88025 0.09112 0.76 0.0
O129 O 0.91564 0.13072 0.7543 0.0
In130 In 0.67726 0.17277 0.34912 0.0
O131 O 0.675 0.13023 0.50983 0.0
O132 O 0.63542 0.16565 0.50446 0.0
C133 C 0.74088 0.16965 0.25622 0.0
C134 C 0.64339 0.14088 0.1569 0.0
C135 C 0.67282 0.23975 0.37301 0.0
O136 O 0.73399 0.16818 0.38258 0.0
O137 O 0.71599 0.1724 0.17818 0.0
O138 O 0.65927 0.2235 0.27747 0.0
O139 O 0.68827 0.22227 0.46038 0.0
C140 C 0.64659 0.13884 0.55427 0.0
O141 O 0.63448 0.16944 0.19832 0.0
O142 O 0.66942 0.12885 0.21058 0.0
In143 In 0.5934 0.92726 0.0993 0.0
O144 O 0.63596 0.92498 0.2598 0.0
O145 O 0.60051 0.88544 0.25476 0.0
C146 C 0.59652 0.99088 0.00645 0.0
C147 C 0.6253 0.89339 0.90697 0.0
C148 C 0.52642 0.92282 0.12305 0.0
O149 O 0.59794 0.98399 0.13282 0.0
O150 O 0.59383 0.96599 0.9284 0.0
O151 O 0.5427 0.90926 0.02756 0.0
O152 O 0.54387 0.93826 0.21048 0.0
C153 C 0.62733 0.89659 0.30437 0.0
O154 O 0.59675 0.88445 0.94859 0.0
O155 O 0.63731 0.91943 0.96052 0.0
In156 In 0.8389 0.17276 0.11049 0.0
O157 O 0.8817 0.16941 0.26119 0.0
O158 O 0.84672 0.12885 0.24926 0.0
C159 C 0.84334 0.23974 0.08671 0.0
C160 C 0.86957 0.13882 0.90541 0.0
C161 C 0.77528 0.16964 0.20333 0.0
O162 O 0.8569 0.22346 0.18221 0.0
O163 O 0.8279 0.22229 -0.0007 0.0
O164 O 0.78217 0.16821 0.07697 0.0
O165 O 0.80016 0.17233 0.28139 0.0
C166 C 0.87277 0.14086 0.30281 0.0
O167 O 0.84117 0.1302 0.94998 0.0
O168 O 0.88072 0.16565 0.95503 0.0
In169 In 0.59338 0.08889 0.86067 0.0
O170 O 0.63592 0.09116 0.69995 0.0
O171 O 0.60051 0.13073 0.70534 0.0
C172 C 0.59651 0.02528 0.95357 0.0
C173 C 0.62527 0.12276 0.05289 0.0
C174 C 0.5264 0.09333 0.83678 0.0
O175 O 0.59798 0.03217 0.8272 0.0
O176 O 0.59376 0.05016 0.0316 0.0
O177 O 0.54265 0.10688 0.93232 0.0
O178 O 0.54389 0.07789 0.7494 0.0
C179 C 0.62731 0.11957 0.65552 0.0
O180 O 0.59671 0.13167 0.01147 0.0
O181 O 0.6373 0.09674 -0.0008 0.0
In182 In 0.67729 0.84338 0.61057 0.0
O183 O 0.63452 0.8467 0.7616 0.0
O184 O 0.66942 0.88731 0.74902 0.0
C185 C 0.67285 0.7764 0.5866 0.0
C186 C 0.64661 0.87731 0.40554 0.0
C187 C 0.74089 0.84651 0.70354 0.0
O188 O 0.65927 0.79265 0.68213 0.0
O189 O 0.68833 0.79389 0.49928 0.0
O190 O 0.73403 0.84798 0.57717 0.0
O191 O 0.71598 0.84375 0.78155 0.0
C192 C 0.64342 0.87527 0.80289 0.0
O193 O 0.67503 0.88591 0.44977 0.0
O194 O 0.63543 0.85052 0.45547 0.0
In195 In 0.92276 0.92729 0.36041 0.0
O196 O 0.91942 0.8845 0.51133 0.0
O197 O 0.87883 0.91944 0.49911 0.0
C198 C 0.98974 0.92285 0.33658 0.0
C199 C 0.88882 0.89661 0.15545 0.0
C200 C 0.91964 0.99089 0.45331 0.0
O201 O 0.97346 0.90926 0.43205 0.0
O202 O 0.97229 0.93832 0.24919 0.0
O203 O 0.91821 0.98403 0.32694 0.0
O204 O 0.92233 0.96598 0.53134 0.0
C205 C 0.89086 0.89341 0.55283 0.0
O206 O 0.88021 0.92502 0.19982 0.0
O207 O 0.91563 0.88545 0.20518 0.0
In208 In 0.67729 0.67276 0.6104 0.0
O209 O 0.67502 0.63021 0.4498 0.0
O210 O 0.63545 0.66563 0.45518 0.0
C211 C 0.74089 0.66964 0.70332 0.0
C212 C 0.64341 0.64086 0.80281 0.0
C213 C 0.67285 0.73974 0.58657 0.0
O214 O 0.73403 0.66821 0.57694 0.0
O215 O 0.71598 0.67233 0.78134 0.0
O216 O 0.65926 0.72346 0.68204 0.0
O217 O 0.68832 0.72228 0.49918 0.0
C218 C 0.64661 0.63882 0.40544 0.0
O219 O 0.6345 0.66942 0.76133 0.0
O220 O 0.66944 0.62883 0.74908 0.0
In221 In 0.59338 0.42729 0.86058 0.0
O222 O 0.5967 0.38452 0.01159 0.0
O223 O 0.63732 0.41942 -0.00099 0.0
C224 C 0.5264 0.42285 0.8366 0.0
C225 C 0.62731 0.39661 0.65553 0.0
C226 C 0.59651 0.49088 0.95355 0.0
O227 O 0.54265 0.40927 0.93213 0.0
O228 O 0.54389 0.43833 0.74928 0.0
O229 O 0.59798 0.48403 0.82717 0.0
O230 O 0.59375 0.46598 0.03155 0.0
C231 C 0.62527 0.39341 0.05288 0.0
O232 O 0.63591 0.42503 0.69977 0.0
O233 O 0.60052 0.38543 0.70546 0.0
In234 In 0.83889 0.34338 0.11066 0.0
O235 O 0.88168 0.34671 0.26145 0.0
O236 O 0.84674 0.3873 0.24919 0.0
C237 C 0.84333 0.2764 0.08678 0.0
C238 C 0.86957 0.37731 0.9055 0.0
C239 C 0.77528 0.34651 0.20356 0.0
O240 O 0.85689 0.29266 0.18232 0.0
O241 O 0.82789 0.29388 -0.00061 0.0
O242 O 0.78217 0.34798 0.07719 0.0
O243 O 0.80016 0.34376 0.28159 0.0
C244 C 0.87276 0.37528 0.30287 0.0
O245 O 0.84116 0.38592 0.94994 0.0
O246 O 0.88073 0.3505 0.95531 0.0
In247 In 0.92276 0.5889 0.36049 0.0
O248 O 0.8802 0.59117 0.19999 0.0
O249 O 0.91565 0.63071 0.20503 0.0
C250 C 0.91964 0.52528 0.45333 0.0
C251 C 0.89086 0.62277 0.55282 0.0
C252 C 0.98974 0.59334 0.33672 0.0
O253 O 0.91821 0.53217 0.32697 0.0
O254 O 0.92233 0.55016 0.53139 0.0
O255 O 0.97346 0.6069 0.43222 0.0
O256 O 0.97229 0.5779 0.24931 0.0
C257 C 0.88882 0.61957 0.15542 0.0
O258 O 0.91941 0.6317 0.5112 0.0
O259 O 0.87885 0.59672 0.49927 0.0
In260 In 0.67726 0.3434 0.34928 0.0
O261 O 0.63445 0.34675 0.19858 0.0
O262 O 0.66944 0.3873 0.2105 0.0
C263 C 0.67282 0.27642 0.37304 0.0
C264 C 0.64659 0.37733 0.55435 0.0
C265 C 0.74088 0.34651 0.25644 0.0
O266 O 0.65926 0.2927 0.27755 0.0
O267 O 0.68826 0.29387 0.46047 0.0
O268 O 0.73399 0.34794 0.38281 0.0
O269 O 0.716 0.34382 0.17838 0.0
C270 C 0.64339 0.37529 0.15696 0.0
O271 O 0.67498 0.38596 0.50979 0.0
O272 O 0.63544 0.35051 0.50474 0.0
In273 In 0.92278 0.42726 0.59911 0.0
O274 O 0.88023 0.425 0.75982 0.0
O275 O 0.91565 0.38542 0.75444 0.0
C276 C 0.91965 0.49088 0.50621 0.0
C277 C 0.89088 0.39339 0.40688 0.0
C278 C 0.98975 0.42282 0.62301 0.0
O279 O 0.91818 0.48399 0.63258 0.0
O280 O 0.9224 0.46599 0.42818 0.0
O281 O 0.9735 0.40927 0.52746 0.0
O282 O 0.97227 0.43827 0.71037 0.0
C283 C 0.88884 0.39658 0.80425 0.0
O284 O 0.91945 0.38448 0.4483 0.0
O285 O 0.87886 0.41942 0.46057 0.0
In286 In 0.83886 0.67277 0.84921 0.0
O287 O 0.88163 0.66946 0.69819 0.0
O288 O 0.84673 0.62884 0.71077 0.0
C289 C 0.8433 0.73975 0.87317 0.0
C290 C 0.86955 0.63884 0.05425 0.0
C291 C 0.77527 0.66965 0.75625 0.0
O292 O 0.85688 0.7235 0.77765 0.0
O293 O 0.82782 0.72227 0.96051 0.0
O294 O 0.78213 0.66817 0.88262 0.0
O295 O 0.80018 0.6724 0.67824 0.0
C296 C 0.87274 0.64088 0.6569 0.0
O297 O 0.84112 0.63025 0.01002 0.0
O298 O 0.88072 0.66564 0.00432 0.0
In299 In 0.5934 0.58887 0.09938 0.0
O300 O 0.59673 0.63166 0.94846 0.0
O301 O 0.63732 0.59671 0.96069 0.0
C302 C 0.52642 0.59331 0.12323 0.0
C303 C 0.62733 0.61954 0.30434 0.0
C304 C 0.59651 0.52527 0.00647 0.0
O305 O 0.5427 0.6069 0.02775 0.0
O306 O 0.54387 0.57783 0.2106 0.0
O307 O 0.59795 0.53213 0.13285 0.0
O308 O 0.59382 0.55017 0.92845 0.0
C309 C 0.6253 0.62274 0.90696 0.0
O310 O 0.63594 0.59113 0.25997 0.0
O311 O 0.60052 0.6307 0.25462 0.0
In312 In 0.33887 0.3434 0.34938 0.0
O313 O 0.34113 0.38594 0.50998 0.0
O314 O 0.3807 0.35052 0.50461 0.0
C315 C 0.27527 0.34652 0.25646 0.0
C316 C 0.37274 0.3753 0.15697 0.0
C317 C 0.3433 0.27642 0.37321 0.0
O318 O 0.28213 0.34795 0.38284 0.0
O319 O 0.30018 0.34382 0.17844 0.0
O320 O 0.3569 0.2927 0.27774 0.0
O321 O 0.32783 0.29387 0.4606 0.0
C322 C 0.36954 0.37733 0.55434 0.0
O323 O 0.38166 0.34673 0.19845 0.0
O324 O 0.34672 0.38732 0.2107 0.0
In325 In 0.42278 0.58886 0.0992 0.0
O326 O 0.38025 0.59112 0.26001 0.0
O327 O 0.41564 0.63072 0.25432 0.0
C328 C 0.41964 0.52527 0.00623 0.0
C329 C 0.39088 0.62274 0.9069 0.0
C330 C 0.48975 0.5933 0.12316 0.0
O331 O 0.41817 0.53213 0.13261 0.0
O332 O 0.4224 0.55018 0.92823 0.0
O333 O 0.4735 0.60688 0.02764 0.0
O334 O 0.47227 0.57783 0.2105 0.0
C335 C 0.38884 0.61955 0.30425 0.0
O336 O 0.41946 0.63163 0.94819 0.0
O337 O 0.37884 0.59673 0.96077 0.0
In338 In 0.17726 0.67277 0.84913 0.0
O339 O 0.175 0.63023 0.00984 0.0
O340 O 0.13542 0.66565 0.00447 0.0
C341 C 0.24088 0.66964 0.75622 0.0
C342 C 0.14339 0.64088 0.65691 0.0
C343 C 0.17283 0.73975 0.873 0.0
O344 O 0.23399 0.66818 0.88259 0.0
O345 O 0.216 0.67239 0.67819 0.0
O346 O 0.15927 0.7235 0.77746 0.0
O347 O 0.18827 0.72227 0.96039 0.0
C348 C 0.14659 0.63884 0.05428 0.0
O349 O 0.13448 0.66944 0.69833 0.0
O350 O 0.16942 0.62885 0.71059 0.0
In351 In 0.0934 0.42726 0.59929 0.0
O352 O 0.13596 0.42498 0.75979 0.0
O353 O 0.10051 0.38544 0.75475 0.0
C354 C 0.09652 0.49088 0.50645 0.0
C355 C 0.1253 0.39339 0.40696 0.0
C356 C 0.02642 0.42282 0.62304 0.0
O357 O 0.09794 0.48399 0.63281 0.0
O358 O 0.09383 0.46599 0.42839 0.0
O359 O 0.0427 0.40926 0.52755 0.0
O360 O 0.04387 0.43826 0.71047 0.0
C361 C 0.12733 0.39659 0.80436 0.0
O362 O 0.09675 0.38445 0.44858 0.0
O363 O 0.13731 0.41943 0.46051 0.0
In364 In 0.3389 0.67276 0.6105 0.0
O365 O 0.34117 0.6302 0.44999 0.0
O366 O 0.38072 0.66565 0.45504 0.0
C367 C 0.27528 0.66964 0.70334 0.0
C368 C 0.37277 0.64086 0.80282 0.0
C369 C 0.34334 0.73974 0.58674 0.0
O370 O 0.28217 0.66821 0.57697 0.0
O371 O 0.30016 0.67233 0.7814 0.0
O372 O 0.3569 0.72346 0.68223 0.0
O373 O 0.3279 0.72229 0.49931 0.0
C374 C 0.36957 0.63882 0.40543 0.0
O375 O 0.3817 0.66941 0.7612 0.0
O376 O 0.34672 0.62885 0.74928 0.0
In377 In 0.09338 0.58889 0.36068 0.0
O378 O 0.13592 0.59116 0.19996 0.0
O379 O 0.10051 0.63074 0.20534 0.0
C380 C 0.09651 0.52528 0.45357 0.0
C381 C 0.12527 0.62276 0.5529 0.0
C382 C 0.0264 0.59333 0.33679 0.0
O383 O 0.09798 0.53217 0.3272 0.0
O384 O 0.09376 0.55016 0.53161 0.0
O385 O 0.04265 0.60688 0.43233 0.0
O386 O 0.04389 0.57789 0.24941 0.0
C387 C 0.12731 0.61957 0.15553 0.0
O388 O 0.09671 0.63168 0.51148 0.0
O389 O 0.1373 0.59674 0.49921 0.0
In390 In 0.17729 0.34338 0.11057 0.0
O391 O 0.13452 0.3467 0.26159 0.0
O392 O 0.16942 0.38731 0.24901 0.0
C393 C 0.17286 0.2764 0.08661 0.0
C394 C 0.14661 0.37731 0.90553 0.0
C395 C 0.24089 0.34651 0.20353 0.0
O396 O 0.15927 0.29265 0.18213 0.0
O397 O 0.18833 0.29389 -0.00073 0.0
O398 O 0.23403 0.34798 0.07716 0.0
O399 O 0.21598 0.34375 0.28154 0.0
C400 C 0.14342 0.37527 0.30288 0.0
O401 O 0.17503 0.38591 0.94976 0.0
O402 O 0.13543 0.35052 0.95546 0.0
In403 In 0.42276 0.42729 0.8604 0.0
O404 O 0.41942 0.3845 0.01132 0.0
O405 O 0.37883 0.41944 -0.00091 0.0
C406 C 0.48974 0.42285 0.83657 0.0
C407 C 0.38882 0.39661 0.65544 0.0
C408 C 0.41964 0.49089 0.95331 0.0
O409 O 0.47346 0.40926 0.93204 0.0
O410 O 0.47229 0.43832 0.74918 0.0
O411 O 0.41821 0.48403 0.82693 0.0
O412 O 0.42233 0.46598 0.03133 0.0
C413 C 0.39086 0.39341 0.05282 0.0
O414 O 0.38021 0.42502 0.69981 0.0
O415 O 0.41563 0.38545 0.70517 0.0
loop_
_geom_bond_atom_site_label_1
_geom_bond_atom_site_label_2
_geom_bond_distance
_geom_bond_site_symmetry_2
_ccdc_geom_bond_type
In0 O1 2.294 1_554 S
In0 O2 2.326 . S
In0 O6 2.266 . S
In0 O7 2.326 . S
In0 O8 2.266 . S
In0 O9 2.327 . S
In0 O11 2.294 . S
In0 O12 2.326 . S
O1 In0 2.294 1_556 S
O1 C10 1.240 . S
O2 In0 2.326 . S
O2 C10 1.252 1_554 S
C3 O6 1.252 . S
C3 O7 1.260 . S
C4 O11 1.240 . S
C4 O12 1.252 . S
C5 O8 1.252 . S
C5 O9 1.262 . S
O6 In0 2.266 . S
O6 C3 1.252 . S
O7 In0 2.326 . S
O7 C3 1.260 . S
O8 In0 2.266 . S
O8 C5 1.252 . S
O9 In0 2.327 . S
O9 C5 1.262 . S
C10 O1 1.240 . S
C10 O2 1.252 1_556 S
O11 In0 2.294 . S
O11 C4 1.240 . S
O12 In0 2.326 . S
O12 C4 1.252 . S
In13 O14 2.294 . S
In13 O15 2.326 . S
In13 O19 2.266 . S
In13 O20 2.326 . S
In13 O21 2.266 . S
In13 O22 2.326 . S
In13 O24 2.294 . S
In13 O25 2.326 . S
O14 In13 2.294 . S
O14 C23 1.240 . S
O15 In13 2.326 . S
O15 C23 1.252 . S
C16 O19 1.252 . S
C16 O20 1.260 . S
C17 O24 1.240 . S
C17 O25 1.252 . S
C18 O21 1.252 . S
C18 O22 1.260 . S
O19 In13 2.266 . S
O19 C16 1.252 . S
O20 In13 2.326 . S
O20 C16 1.260 . S
O21 In13 2.266 . S
O21 C18 1.252 . S
O22 In13 2.326 . S
O22 C18 1.260 . S
C23 O14 1.240 . S
C23 O15 1.252 . S
O24 In13 2.294 . S
O24 C17 1.240 . S
O25 In13 2.326 . S
O25 C17 1.252 . S
In26 O27 2.294 . S
In26 O28 2.326 . S
In26 O32 2.266 . S
In26 O33 2.326 . S
In26 O34 2.266 . S
In26 O35 2.326 . S
In26 O37 2.294 . S
In26 O38 2.326 . S
O27 In26 2.294 . S
O27 C36 1.240 . S
O28 In26 2.326 . S
O28 C36 1.252 . S
C29 O32 1.252 . S
C29 O33 1.260 . S
C30 O37 1.240 . S
C30 O38 1.252 . S
C31 O34 1.252 . S
C31 O35 1.260 . S
O32 In26 2.266 . S
O32 C29 1.252 . S
O33 In26 2.326 . S
O33 C29 1.260 . S
O34 In26 2.266 . S
O34 C31 1.252 . S
O35 In26 2.326 . S
O35 C31 1.260 . S
C36 O27 1.240 . S
C36 O28 1.252 . S
O37 In26 2.294 . S
O37 C30 1.240 . S
O38 In26 2.326 . S
O38 C30 1.252 . S
In39 O40 2.294 . S
In39 O41 2.326 . S
In39 O45 2.266 . S
In39 O46 2.326 1_556 S
In39 O47 2.266 . S
In39 O48 2.326 . S
In39 O50 2.294 1_556 S
In39 O51 2.326 . S
O40 In39 2.294 . S
O40 C49 1.240 . S
O41 In39 2.326 . S
O41 C49 1.252 . S
C42 O45 1.252 . S
C42 O46 1.260 1_556 S
C43 O50 1.240 . S
C43 O51 1.252 1_554 S
C44 O47 1.252 . S
C44 O48 1.260 . S
O45 In39 2.266 . S
O45 C42 1.252 . S
O46 In39 2.326 1_554 S
O46 C42 1.260 1_554 S
O47 In39 2.266 . S
O47 C44 1.252 . S
O48 In39 2.326 . S
O48 C44 1.260 . S
C49 O40 1.240 . S
C49 O41 1.252 . S
O50 In39 2.294 1_554 S
O50 C43 1.240 . S
O51 In39 2.326 . S
O51 C43 1.252 1_556 S
In52 O53 2.294 . S
In52 O54 2.326 . S
In52 O58 2.266 . S
In52 O59 2.327 . S
In52 O60 2.266 . S
In52 O61 2.326 . S
In52 O63 2.294 1_556 S
In52 O64 2.326 . S
O53 In52 2.294 . S
O53 C62 1.240 . S
O54 In52 2.326 . S
O54 C62 1.252 . S
C55 O58 1.252 . S
C55 O59 1.262 . S
C56 O63 1.240 . S
C56 O64 1.252 1_554 S
C57 O60 1.252 . S
C57 O61 1.260 . S
O58 In52 2.266 . S
O58 C55 1.252 . S
O59 In52 2.327 . S
O59 C55 1.262 . S
O60 In52 2.266 . S
O60 C57 1.252 . S
O61 In52 2.326 . S
O61 C57 1.260 . S
C62 O53 1.240 . S
C62 O54 1.252 . S
O63 In52 2.294 1_554 S
O63 C56 1.240 . S
O64 In52 2.326 . S
O64 C56 1.252 1_556 S
In65 O66 2.294 1_554 S
In65 O67 2.326 . S
In65 O71 2.266 . S
In65 O72 2.326 . S
In65 O73 2.266 . S
In65 O74 2.326 1_554 S
In65 O76 2.294 . S
In65 O77 2.326 . S
O66 In65 2.294 1_556 S
O66 C75 1.240 . S
O67 In65 2.326 . S
O67 C75 1.252 1_554 S
C68 O71 1.252 . S
C68 O72 1.260 . S
C69 O76 1.240 . S
C69 O77 1.252 . S
C70 O73 1.252 . S
C70 O74 1.260 1_554 S
O71 In65 2.266 . S
O71 C68 1.252 . S
O72 In65 2.326 . S
O72 C68 1.260 . S
O73 In65 2.266 . S
O73 C70 1.252 . S
O74 In65 2.326 1_556 S
O74 C70 1.260 1_556 S
C75 O66 1.240 . S
C75 O67 1.252 1_556 S
O76 In65 2.294 . S
O76 C69 1.240 . S
O77 In65 2.326 . S
O77 C69 1.252 . S
In78 O79 2.294 . S
In78 O80 2.326 . S
In78 O84 2.266 . S
In78 O85 2.326 . S
In78 O86 2.266 . S
In78 O87 2.326 . S
In78 O89 2.294 . S
In78 O90 2.326 . S
O79 In78 2.294 . S
O79 C88 1.240 . S
O80 In78 2.326 . S
O80 C88 1.252 . S
C81 O84 1.252 . S
C81 O85 1.260 . S
C82 O89 1.240 . S
C82 O90 1.252 . S
C83 O86 1.252 . S
C83 O87 1.260 . S
O84 In78 2.266 . S
O84 C81 1.252 . S
O85 In78 2.326 . S
O85 C81 1.260 . S
O86 In78 2.266 . S
O86 C83 1.252 . S
O87 In78 2.326 . S
O87 C83 1.260 . S
C88 O79 1.240 . S
C88 O80 1.252 . S
O89 In78 2.294 . S
O89 C82 1.240 . S
O90 In78 2.326 . S
O90 C82 1.252 . S
In91 O92 2.294 . S
In91 O93 2.326 . S
In91 O97 2.266 . S
In91 O98 2.326 . S
In91 O99 2.266 . S
In91 O100 2.326 . S
In91 O102 2.294 . S
In91 O103 2.326 . S
O92 In91 2.294 . S
O92 C101 1.240 . S
O93 In91 2.326 . S
O93 C101 1.252 . S
C94 O97 1.252 . S
C94 O98 1.260 . S
C95 O102 1.240 . S
C95 O103 1.252 . S
C96 O99 1.252 . S
C96 O100 1.260 . S
O97 In91 2.266 . S
O97 C94 1.252 . S
O98 In91 2.326 . S
O98 C94 1.260 . S
O99 In91 2.266 . S
O99 C96 1.252 . S
O100 In91 2.326 . S
O100 C96 1.260 . S
C101 O92 1.240 . S
C101 O93 1.252 . S
O102 In91 2.294 . S
O102 C95 1.240 . S
O103 In91 2.326 . S
O103 C95 1.252 . S
In104 O105 2.294 1_556 S
In104 O106 2.326 . S
In104 O110 2.266 . S
In104 O111 2.326 . S
In104 O112 2.266 . S
In104 O113 2.327 . S
In104 O115 2.294 . S
In104 O116 2.326 . S
O105 In104 2.294 1_554 S
O105 C114 1.240 . S
O106 In104 2.326 . S
O106 C114 1.252 1_556 S
C107 O110 1.252 . S
C107 O111 1.260 . S
C108 O115 1.240 . S
C108 O116 1.252 . S
C109 O112 1.252 . S
C109 O113 1.262 . S
O110 In104 2.266 . S
O110 C107 1.252 . S
O111 In104 2.326 . S
O111 C107 1.260 . S
O112 In104 2.266 . S
O112 C109 1.252 . S
O113 In104 2.327 . S
O113 C109 1.262 . S
C114 O105 1.240 . S
C114 O106 1.252 1_554 S
O115 In104 2.294 . S
O115 C108 1.240 . S
O116 In104 2.326 . S
O116 C108 1.252 . S
In117 O118 2.294 . S
In117 O119 2.326 . S
In117 O123 2.266 . S
In117 O124 2.326 . S
In117 O125 2.266 . S
In117 O126 2.326 . S
In117 O128 2.294 . S
In117 O129 2.326 . S
O118 In117 2.294 . S
O118 C127 1.240 . S
O119 In117 2.326 . S
O119 C127 1.252 . S
C120 O123 1.252 . S
C120 O124 1.260 . S
C121 O128 1.240 . S
C121 O129 1.252 . S
C122 O125 1.252 . S
C122 O126 1.260 . S
O123 In117 2.266 . S
O123 C120 1.252 . S
O124 In117 2.326 . S
O124 C120 1.260 . S
O125 In117 2.266 . S
O125 C122 1.252 . S
O126 In117 2.326 . S
O126 C122 1.260 . S
C127 O118 1.240 . S
C127 O119 1.252 . S
O128 In117 2.294 . S
O128 C121 1.240 . S
O129 In117 2.326 . S
O129 C121 1.252 . S
In130 O131 2.294 . S
In130 O132 2.326 . S
In130 O136 2.266 . S
In130 O137 2.326 . S
In130 O138 2.266 . S
In130 O139 2.326 . S
In130 O141 2.294 . S
In130 O142 2.326 . S
O131 In130 2.294 . S
O131 C140 1.240 . S
O132 In130 2.326 . S
O132 C140 1.252 . S
C133 O136 1.252 . S
C133 O137 1.260 . S
C134 O141 1.240 . S
C134 O142 1.252 . S
C135 O138 1.252 . S
C135 O139 1.260 . S
O136 In130 2.266 . S
O136 C133 1.252 . S
O137 In130 2.326 . S
O137 C133 1.260 . S
O138 In130 2.266 . S
O138 C135 1.252 . S
O139 In130 2.326 . S
O139 C135 1.260 . S
C140 O131 1.240 . S
C140 O132 1.252 . S
O141 In130 2.294 . S
O141 C134 1.240 . S
O142 In130 2.326 . S
O142 C134 1.252 . S
In143 O144 2.294 . S
In143 O145 2.326 . S
In143 O149 2.266 . S
In143 O150 2.326 1_554 S
In143 O151 2.266 . S
In143 O152 2.326 . S
In143 O154 2.294 1_554 S
In143 O155 2.326 . S
O144 In143 2.294 . S
O144 C153 1.240 . S
O145 In143 2.326 . S
O145 C153 1.252 . S
C146 O149 1.252 . S
C146 O150 1.260 1_554 S
C147 O154 1.240 . S
C147 O155 1.252 1_556 S
C148 O151 1.252 . S
C148 O152 1.260 . S
O149 In143 2.266 . S
O149 C146 1.252 . S
O150 In143 2.326 1_556 S
O150 C146 1.260 1_556 S
O151 In143 2.266 . S
O151 C148 1.252 . S
O152 In143 2.326 . S
O152 C148 1.260 . S
C153 O144 1.240 . S
C153 O145 1.252 . S
O154 In143 2.294 1_556 S
O154 C147 1.240 . S
O155 In143 2.326 . S
O155 C147 1.252 1_554 S
In156 O157 2.294 . S
In156 O158 2.326 . S
In156 O162 2.266 . S
In156 O163 2.327 . S
In156 O164 2.266 . S
In156 O165 2.326 . S
In156 O167 2.294 1_554 S
In156 O168 2.326 . S
O157 In156 2.294 . S
O157 C166 1.240 . S
O158 In156 2.326 . S
O158 C166 1.252 . S
C159 O162 1.252 . S
C159 O163 1.262 . S
C160 O167 1.240 . S
C160 O168 1.252 1_556 S
C161 O164 1.252 . S
C161 O165 1.260 . S
O162 In156 2.266 . S
O162 C159 1.252 . S
O163 In156 2.327 . S
O163 C159 1.262 . S
O164 In156 2.266 . S
O164 C161 1.252 . S
O165 In156 2.326 . S
O165 C161 1.260 . S
C166 O157 1.240 . S
C166 O158 1.252 . S
O167 In156 2.294 1_556 S
O167 C160 1.240 . S
O168 In156 2.326 . S
O168 C160 1.252 1_554 S
In169 O170 2.294 . S
In169 O171 2.326 . S
In169 O175 2.266 . S
In169 O176 2.326 1_556 S
In169 O177 2.266 . S
In169 O178 2.326 . S
In169 O180 2.294 1_556 S
In169 O181 2.326 . S
O170 In169 2.294 . S
O170 C179 1.240 . S
O171 In169 2.326 . S
O171 C179 1.252 . S
C172 O175 1.252 . S
C172 O176 1.260 1_556 S
C173 O180 1.240 . S
C173 O181 1.252 1_554 S
C174 O177 1.252 . S
C174 O178 1.260 . S
O175 In169 2.266 . S
O175 C172 1.252 . S
O176 In169 2.326 1_554 S
O176 C172 1.260 1_554 S
O177 In169 2.266 . S
O177 C174 1.252 . S
O178 In169 2.326 . S
O178 C174 1.260 . S
C179 O170 1.240 . S
C179 O171 1.252 . S
O180 In169 2.294 1_554 S
O180 C173 1.240 . S
O181 In169 2.326 . S
O181 C173 1.252 1_556 S
In182 O183 2.294 . S
In182 O184 2.326 . S
In182 O188 2.266 . S
In182 O189 2.326 . S
In182 O190 2.266 . S
In182 O191 2.326 . S
In182 O193 2.294 . S
In182 O194 2.326 . S
O183 In182 2.294 . S
O183 C192 1.240 . S
O184 In182 2.326 . S
O184 C192 1.252 . S
C185 O188 1.252 . S
C185 O189 1.260 . S
C186 O193 1.240 . S
C186 O194 1.252 . S
C187 O190 1.252 . S
C187 O191 1.260 . S
O188 In182 2.266 . S
O188 C185 1.252 . S
O189 In182 2.326 . S
O189 C185 1.260 . S
O190 In182 2.266 . S
O190 C187 1.252 . S
O191 In182 2.326 . S
O191 C187 1.260 . S
C192 O183 1.240 . S
C192 O184 1.252 . S
O193 In182 2.294 . S
O193 C186 1.240 . S
O194 In182 2.326 . S
O194 C186 1.252 . S
In195 O196 2.294 . S
In195 O197 2.326 . S
In195 O201 2.266 . S
In195 O202 2.326 . S
In195 O203 2.266 . S
In195 O204 2.326 . S
In195 O206 2.294 . S
In195 O207 2.326 . S
O196 In195 2.294 . S
O196 C205 1.240 . S
O197 In195 2.326 . S
O197 C205 1.252 . S
C198 O201 1.252 . S
C198 O202 1.260 . S
C199 O206 1.240 . S
C199 O207 1.252 . S
C200 O203 1.252 . S
C200 O204 1.260 . S
O201 In195 2.266 . S
O201 C198 1.252 . S
O202 In195 2.326 . S
O202 C198 1.260 . S
O203 In195 2.266 . S
O203 C200 1.252 . S
O204 In195 2.326 . S
O204 C200 1.260 . S
C205 O196 1.240 . S
C205 O197 1.252 . S
O206 In195 2.294 . S
O206 C199 1.240 . S
O207 In195 2.326 . S
O207 C199 1.252 . S
In208 O209 2.294 . S
In208 O210 2.326 . S
In208 O214 2.266 . S
In208 O215 2.326 . S
In208 O216 2.266 . S
In208 O217 2.326 . S
In208 O219 2.294 . S
In208 O220 2.326 . S
O209 In208 2.294 . S
O209 C218 1.240 . S
O210 In208 2.326 . S
O210 C218 1.252 . S
C211 O214 1.252 . S
C211 O215 1.260 . S
C212 O219 1.240 . S
C212 O220 1.252 . S
C213 O216 1.252 . S
C213 O217 1.260 . S
O214 In208 2.266 . S
O214 C211 1.252 . S
O215 In208 2.326 . S
O215 C211 1.260 . S
O216 In208 2.266 . S
O216 C213 1.252 . S
O217 In208 2.326 . S
O217 C213 1.260 . S
C218 O209 1.240 . S
C218 O210 1.252 . S
O219 In208 2.294 . S
O219 C212 1.240 . S
O220 In208 2.326 . S
O220 C212 1.252 . S
In221 O222 2.294 1_556 S
In221 O223 2.326 . S
In221 O227 2.266 . S
In221 O228 2.326 . S
In221 O229 2.266 . S
In221 O230 2.326 1_556 S
In221 O232 2.294 . S
In221 O233 2.326 . S
O222 In221 2.294 1_554 S
O222 C231 1.240 . S
O223 In221 2.326 . S
O223 C231 1.252 1_556 S
C224 O227 1.252 . S
C224 O228 1.260 . S
C225 O232 1.240 . S
C225 O233 1.252 . S
C226 O229 1.252 . S
C226 O230 1.260 1_556 S
O227 In221 2.266 . S
O227 C224 1.252 . S
O228 In221 2.326 . S
O228 C224 1.260 . S
O229 In221 2.266 . S
O229 C226 1.252 . S
O230 In221 2.326 1_554 S
O230 C226 1.260 1_554 S
C231 O222 1.240 . S
C231 O223 1.252 1_554 S
O232 In221 2.294 . S
O232 C225 1.240 . S
O233 In221 2.326 . S
O233 C225 1.252 . S
In234 O235 2.294 . S
In234 O236 2.326 . S
In234 O240 2.266 . S
In234 O241 2.327 . S
In234 O242 2.266 . S
In234 O243 2.326 . S
In234 O245 2.294 1_554 S
In234 O246 2.326 . S
O235 In234 2.294 . S
O235 C244 1.240 . S
O236 In234 2.326 . S
O236 C244 1.252 . S
C237 O240 1.252 . S
C237 O241 1.262 . S
C238 O245 1.240 . S
C238 O246 1.252 1_556 S
C239 O242 1.252 . S
C239 O243 1.260 . S
O240 In234 2.266 . S
O240 C237 1.252 . S
O241 In234 2.327 . S
O241 C237 1.262 . S
O242 In234 2.266 . S
O242 C239 1.252 . S
O243 In234 2.326 . S
O243 C239 1.260 . S
C244 O235 1.240 . S
C244 O236 1.252 . S
O245 In234 2.294 1_556 S
O245 C238 1.240 . S
O246 In234 2.326 . S
O246 C238 1.252 1_554 S
In247 O248 2.294 . S
In247 O249 2.326 . S
In247 O253 2.266 . S
In247 O254 2.326 . S
In247 O255 2.266 . S
In247 O256 2.326 . S
In247 O258 2.294 . S
In247 O259 2.326 . S
O248 In247 2.294 . S
O248 C257 1.240 . S
O249 In247 2.326 . S
O249 C257 1.252 . S
C250 O253 1.252 . S
C250 O254 1.260 . S
C251 O258 1.240 . S
C251 O259 1.252 . S
C252 O255 1.252 . S
C252 O256 1.260 . S
O253 In247 2.266 . S
O253 C250 1.252 . S
O254 In247 2.326 . S
O254 C250 1.260 . S
O255 In247 2.266 . S
O255 C252 1.252 . S
O256 In247 2.326 . S
O256 C252 1.260 . S
C257 O248 1.240 . S
C257 O249 1.252 . S
O258 In247 2.294 . S
O258 C251 1.240 . S
O259 In247 2.326 . S
O259 C251 1.252 . S
In260 O261 2.294 . S
In260 O262 2.326 . S
In260 O266 2.266 . S
In260 O267 2.326 . S
In260 O268 2.266 . S
In260 O269 2.326 . S
In260 O271 2.294 . S
In260 O272 2.326 . S
O261 In260 2.294 . S
O261 C270 1.240 . S
O262 In260 2.326 . S
O262 C270 1.252 . S
C263 O266 1.252 . S
C263 O267 1.260 . S
C264 O271 1.240 . S
C264 O272 1.252 . S
C265 O268 1.252 . S
C265 O269 1.260 . S
O266 In260 2.266 . S
O266 C263 1.252 . S
O267 In260 2.326 . S
O267 C263 1.260 . S
O268 In260 2.266 . S
O268 C265 1.252 . S
O269 In260 2.326 . S
O269 C265 1.260 . S
C270 O261 1.240 . S
C270 O262 1.252 . S
O271 In260 2.294 . S
O271 C264 1.240 . S
O272 In260 2.326 . S
O272 C264 1.252 . S
In273 O274 2.294 . S
In273 O275 2.326 . S
In273 O279 2.266 . S
In273 O280 2.326 . S
In273 O281 2.266 . S
In273 O282 2.326 . S
In273 O284 2.294 . S
In273 O285 2.326 . S
O274 In273 2.294 . S
O274 C283 1.240 . S
O275 In273 2.326 . S
O275 C283 1.252 . S
C276 O279 1.252 . S
C276 O280 1.260 . S
C277 O284 1.240 . S
C277 O285 1.252 . S
C278 O281 1.252 . S
C278 O282 1.260 . S
O279 In273 2.266 . S
O279 C276 1.252 . S
O280 In273 2.326 . S
O280 C276 1.260 . S
O281 In273 2.266 . S
O281 C278 1.252 . S
O282 In273 2.326 . S
O282 C278 1.260 . S
C283 O274 1.240 . S
C283 O275 1.252 . S
O284 In273 2.294 . S
O284 C277 1.240 . S
O285 In273 2.326 . S
O285 C277 1.252 . S
In286 O287 2.294 . S
In286 O288 2.326 . S
In286 O292 2.266 . S
In286 O293 2.327 . S
In286 O294 2.266 . S
In286 O295 2.326 . S
In286 O297 2.294 1_556 S
In286 O298 2.326 . S
O287 In286 2.294 . S
O287 C296 1.240 . S
O288 In286 2.326 . S
O288 C296 1.252 . S
C289 O292 1.252 . S
C289 O293 1.262 . S
C290 O297 1.240 . S
C290 O298 1.252 1_554 S
C291 O294 1.252 . S
C291 O295 1.260 . S
O292 In286 2.266 . S
O292 C289 1.252 . S
O293 In286 2.327 . S
O293 C289 1.262 . S
O294 In286 2.266 . S
O294 C291 1.252 . S
O295 In286 2.326 . S
O295 C291 1.260 . S
C296 O287 1.240 . S
C296 O288 1.252 . S
O297 In286 2.294 1_554 S
O297 C290 1.240 . S
O298 In286 2.326 . S
O298 C290 1.252 1_556 S
In299 O300 2.294 1_554 S
In299 O301 2.326 . S
In299 O305 2.266 . S
In299 O306 2.326 . S
In299 O307 2.266 . S
In299 O308 2.326 1_554 S
In299 O310 2.294 . S
In299 O311 2.326 . S
O300 In299 2.294 1_556 S
O300 C309 1.240 . S
O301 In299 2.326 . S
O301 C309 1.252 1_554 S
C302 O305 1.252 . S
C302 O306 1.260 . S
C303 O310 1.240 . S
C303 O311 1.252 . S
C304 O307 1.252 . S
C304 O308 1.260 1_554 S
O305 In299 2.266 . S
O305 C302 1.252 . S
O306 In299 2.326 . S
O306 C302 1.260 . S
O307 In299 2.266 . S
O307 C304 1.252 . S
O308 In299 2.326 1_556 S
O308 C304 1.260 1_556 S
C309 O300 1.240 . S
C309 O301 1.252 1_556 S
O310 In299 2.294 . S
O310 C303 1.240 . S
O311 In299 2.326 . S
O311 C303 1.252 . S
In312 O313 2.294 . S
In312 O314 2.326 . S
In312 O318 2.266 . S
In312 O319 2.326 . S
In312 O320 2.266 . S
In312 O321 2.326 . S
In312 O323 2.294 . S
In312 O324 2.326 . S
O313 In312 2.294 . S
O313 C322 1.240 . S
O314 In312 2.326 . S
O314 C322 1.252 . S
C315 O318 1.252 . S
C315 O319 1.260 . S
C316 O323 1.240 . S
C316 O324 1.252 . S
C317 O320 1.252 . S
C317 O321 1.260 . S
O318 In312 2.266 . S
O318 C315 1.252 . S
O319 In312 2.326 . S
O319 C315 1.260 . S
O320 In312 2.266 . S
O320 C317 1.252 . S
O321 In312 2.326 . S
O321 C317 1.260 . S
C322 O313 1.240 . S
C322 O314 1.252 . S
O323 In312 2.294 . S
O323 C316 1.240 . S
O324 In312 2.326 . S
O324 C316 1.252 . S
In325 O326 2.294 . S
In325 O327 2.326 . S
In325 O331 2.266 . S
In325 O332 2.326 1_554 S
In325 O333 2.266 . S
In325 O334 2.326 . S
In325 O336 2.294 1_554 S
In325 O337 2.326 . S
O326 In325 2.294 . S
O326 C335 1.240 . S
O327 In325 2.326 . S
O327 C335 1.252 . S
C328 O331 1.252 . S
C328 O332 1.260 1_554 S
C329 O336 1.240 . S
C329 O337 1.252 1_556 S
C330 O333 1.252 . S
C330 O334 1.260 . S
O331 In325 2.266 . S
O331 C328 1.252 . S
O332 In325 2.326 1_556 S
O332 C328 1.260 1_556 S
O333 In325 2.266 . S
O333 C330 1.252 . S
O334 In325 2.326 . S
O334 C330 1.260 . S
C335 O326 1.240 . S
C335 O327 1.252 . S
O336 In325 2.294 1_556 S
O336 C329 1.240 . S
O337 In325 2.326 . S
O337 C329 1.252 1_554 S
In338 O339 2.294 1_556 S
In338 O340 2.326 . S
In338 O344 2.266 . S
In338 O345 2.326 . S
In338 O346 2.266 . S
In338 O347 2.327 . S
In338 O349 2.294 . S
In338 O350 2.326 . S
O339 In338 2.294 1_554 S
O339 C348 1.240 . S
O340 In338 2.326 . S
O340 C348 1.252 1_556 S
C341 O344 1.252 . S
C341 O345 1.260 . S
C342 O349 1.240 . S
C342 O350 1.252 . S
C343 O346 1.252 . S
C343 O347 1.262 . S
O344 In338 2.266 . S
O344 C341 1.252 . S
O345 In338 2.326 . S
O345 C341 1.260 . S
O346 In338 2.266 . S
O346 C343 1.252 . S
O347 In338 2.327 . S
O347 C343 1.262 . S
C348 O339 1.240 . S
C348 O340 1.252 1_554 S
O349 In338 2.294 . S
O349 C342 1.240 . S
O350 In338 2.326 . S
O350 C342 1.252 . S
In351 O352 2.294 . S
In351 O353 2.326 . S
In351 O357 2.266 . S
In351 O358 2.326 . S
In351 O359 2.266 . S
In351 O360 2.326 . S
In351 O362 2.294 . S
In351 O363 2.326 . S
O352 In351 2.294 . S
O352 C361 1.240 . S
O353 In351 2.326 . S
O353 C361 1.252 . S
C354 O357 1.252 . S
C354 O358 1.260 . S
C355 O362 1.240 . S
C355 O363 1.252 . S
C356 O359 1.252 . S
C356 O360 1.260 . S
O357 In351 2.266 . S
O357 C354 1.252 . S
O358 In351 2.326 . S
O358 C354 1.260 . S
O359 In351 2.266 . S
O359 C356 1.252 . S
O360 In351 2.326 . S
O360 C356 1.260 . S
C361 O352 1.240 . S
C361 O353 1.252 . S
O362 In351 2.294 . S
O362 C355 1.240 . S
O363 In351 2.326 . S
O363 C355 1.252 . S
In364 O365 2.294 . S
In364 O366 2.326 . S
In364 O370 2.266 . S
In364 O371 2.326 . S
In364 O372 2.266 . S
In364 O373 2.326 . S
In364 O375 2.294 . S
In364 O376 2.326 . S
O365 In364 2.294 . S
O365 C374 1.240 . S
O366 In364 2.326 . S
O366 C374 1.252 . S
C367 O370 1.252 . S
C367 O371 1.260 . S
C368 O375 1.240 . S
C368 O376 1.252 . S
C369 O372 1.252 . S
C369 O373 1.260 . S
O370 In364 2.266 . S
O370 C367 1.252 . S
O371 In364 2.326 . S
O371 C367 1.260 . S
O372 In364 2.266 . S
O372 C369 1.252 . S
O373 In364 2.326 . S
O373 C369 1.260 . S
C374 O365 1.240 . S
C374 O366 1.252 . S
O375 In364 2.294 . S
O375 C368 1.240 . S
O376 In364 2.326 . S
O376 C368 1.252 . S
In377 O378 2.294 . S
In377 O379 2.326 . S
In377 O383 2.266 . S
In377 O384 2.326 . S
In377 O385 2.266 . S
In377 O386 2.326 . S
In377 O388 2.294 . S
In377 O389 2.326 . S
O378 In377 2.294 . S
O378 C387 1.240 . S
O379 In377 2.326 . S
O379 C387 1.252 . S
C380 O383 1.252 . S
C380 O384 1.260 . S
C381 O388 1.240 . S
C381 O389 1.252 . S
C382 O385 1.252 . S
C382 O386 1.260 . S
O383 In377 2.266 . S
O383 C380 1.252 . S
O384 In377 2.326 . S
O384 C380 1.260 . S
O385 In377 2.266 . S
O385 C382 1.252 . S
O386 In377 2.326 . S
O386 C382 1.260 . S
C387 O378 1.240 . S
C387 O379 1.252 . S
O388 In377 2.294 . S
O388 C381 1.240 . S
O389 In377 2.326 . S
O389 C381 1.252 . S
In390 O391 2.294 . S
In390 O392 2.326 . S
In390 O396 2.266 . S
In390 O397 2.327 . S
In390 O398 2.266 . S
In390 O399 2.326 . S
In390 O401 2.294 1_554 S
In390 O402 2.326 . S
O391 In390 2.294 . S
O391 C400 1.240 . S
O392 In390 2.326 . S
O392 C400 1.252 . S
C393 O396 1.252 . S
C393 O397 1.262 . S
C394 O401 1.240 . S
C394 O402 1.252 1_556 S
C395 O398 1.252 . S
C395 O399 1.260 . S
O396 In390 2.266 . S
O396 C393 1.252 . S
O397 In390 2.327 . S
O397 C393 1.262 . S
O398 In390 2.266 . S
O398 C395 1.252 . S
O399 In390 2.326 . S
O399 C395 1.260 . S
C400 O391 1.240 . S
C400 O392 1.252 . S
O401 In390 2.294 1_556 S
O401 C394 1.240 . S
O402 In390 2.326 . S
O402 C394 1.252 1_554 S
In403 O404 2.294 1_556 S
In403 O405 2.326 . S
In403 O409 2.266 . S
In403 O410 2.326 . S
In403 O411 2.266 . S
In403 O412 2.326 1_556 S
In403 O414 2.294 . S
In403 O415 2.326 . S
O404 In403 2.294 1_554 S
O404 C413 1.240 . S
O405 In403 2.326 . S
O405 C413 1.252 1_556 S
C406 O409 1.252 . S
C406 O410 1.260 . S
C407 O414 1.240 . S
C407 O415 1.252 . S
C408 O411 1.252 . S
C408 O412 1.260 1_556 S
O409 In403 2.266 . S
O409 C406 1.252 . S
O410 In403 2.326 . S
O410 C406 1.260 . S
O411 In403 2.266 . S
O411 C408 1.252 . S
O412 In403 2.326 1_554 S
O412 C408 1.260 1_554 S
C413 O404 1.240 . S
C413 O405 1.252 1_554 S
O414 In403 2.294 . S
O414 C407 1.240 . S
O415 In403 2.326 . S
O415 C407 1.252 . S
C81 C3 1.564 . S
C16 C94 1.564 1_565 S
C57 C29 1.563 . S
C42 C70 1.563 1_546 S
C107 C187 1.564 . S
C200 C122 1.564 1_565 S
C133 C161 1.563 . S
C172 C146 1.563 1_546 S
C211 C291 1.564 . S
C226 C304 1.564 1_556 S
C265 C239 1.563 . S
C276 C250 1.563 . S
C315 C395 1.564 . S
C328 C408 1.564 1_554 S
C367 C341 1.563 . S
C354 C380 1.563 . S
C10 C101 1.632 . S
C56 C23 1.632 . S
C69 C36 1.632 . S
C49 C88 1.632 . S
C114 C199 1.632 . S
C160 C121 1.632 . S
C179 C140 1.632 . S
C186 C153 1.632 . S
C218 C303 1.632 . S
C225 C264 1.632 . S
C283 C238 1.632 . S
C257 C290 1.632 . S
C322 C407 1.632 . S
C374 C335 1.632 . S
C348 C387 1.632 . S
C361 C394 1.632 . S
C393 C5 1.592 . S
C198 C18 1.592 1_655 S
C31 C369 1.592 . S
C44 C174 1.592 . S
C55 C343 1.592 . S
C68 C148 1.592 . S
C83 C317 1.592 . S
C120 C96 1.592 1_655 S
C289 C109 1.592 . S
C135 C263 1.592 . S
C237 C159 1.592 . S
C213 C185 1.592 . S
C224 C406 1.592 . S
C252 C382 1.592 1_655 S
C278 C356 1.592 1_655 S
C330 C302 1.592 . S
C4 C95 1.520 . S
C17 C62 1.520 . S
C75 C30 1.520 . S
C43 C82 1.520 . S
C205 C108 1.520 . S
C166 C127 1.520 . S
C134 C173 1.520 . S
C192 C147 1.520 . S
C309 C212 1.520 . S
C270 C231 1.520 . S
C277 C244 1.520 . S
C296 C251 1.520 . S
C316 C413 1.520 . S
C329 C368 1.520 . S
C342 C381 1.520 . S
C400 C355 1.520 . S
