# Generated by pormake.
# Topology xfk, (7)-cn, num edge types: 1
# Building blocks:
#     Node 0, Type 0, BuildingBlock: HICVOG_clean_sbu_0, # of connection points: 7
#     Node 1, Type 0, BuildingBlock: HICVOG_clean_sbu_0, # of connection points: 7
#     Node 2, Type 0, BuildingBlock: HICVOG_clean_sbu_0, # of connection points: 7
#     Node 3, Type 0, BuildingBlock: HICVOG_clean_sbu_0, # of connection points: 7
#     Node 4, Type 0, BuildingBlock: HICVOG_clean_sbu_0, # of connection points: 7
#     Node 5, Type 0, BuildingBlock: HICVOG_clean_sbu_0, # of connection points: 7
#     Node 6, Type 0, BuildingBlock: HICVOG_clean_sbu_0, # of connection points: 7
#     Node 7, Type 0, BuildingBlock: HICVOG_clean_sbu_0, # of connection points: 7
#     Node 8, Type 0, BuildingBlock: HICVOG_clean_sbu_0, # of connection points: 7
#     Node 9, Type 0, BuildingBlock: HICVOG_clean_sbu_0, # of connection points: 7
#     Node 10, Type 0, BuildingBlock: HICVOG_clean_sbu_0, # of connection points: 7
#     Node 11, Type 0, BuildingBlock: HICVOG_clean_sbu_0, # of connection points: 7
#     Node 12, Type 0, BuildingBlock: HICVOG_clean_sbu_0, # of connection points: 7
#     Node 13, Type 0, BuildingBlock: HICVOG_clean_sbu_0, # of connection points: 7
#     Node 14, Type 0, BuildingBlock: HICVOG_clean_sbu_0, # of connection points: 7
#     Node 15, Type 0, BuildingBlock: HICVOG_clean_sbu_0, # of connection points: 7
#     Edge 16, Type (0, 0), BuildingBlock: UVAHIK_clean_linker_0, # of connection points: 2
#     Edge 17, Type (0, 0), BuildingBlock: UVAHIK_clean_linker_0, # of connection points: 2
#     Edge 18, Type (0, 0), BuildingBlock: UVAHIK_clean_linker_0, # of connection points: 2
#     Edge 19, Type (0, 0), BuildingBlock: UVAHIK_clean_linker_0, # of connection points: 2
#     Edge 20, Type (0, 0), BuildingBlock: UVAHIK_clean_linker_0, # of connection points: 2
#     Edge 21, Type (0, 0), BuildingBlock: UVAHIK_clean_linker_0, # of connection points: 2
#     Edge 22, Type (0, 0), BuildingBlock: UVAHIK_clean_linker_0, # of connection points: 2
#     Edge 23, Type (0, 0), BuildingBlock: UVAHIK_clean_linker_0, # of connection points: 2
#     Edge 24, Type (0, 0), BuildingBlock: UVAHIK_clean_linker_0, # of connection points: 2
#     Edge 25, Type (0, 0), BuildingBlock: UVAHIK_clean_linker_0, # of connection points: 2
#     Edge 26, Type (0, 0), BuildingBlock: UVAHIK_clean_linker_0, # of connection points: 2
#     Edge 27, Type (0, 0), BuildingBlock: UVAHIK_clean_linker_0, # of connection points: 2
#     Edge 28, Type (0, 0), BuildingBlock: UVAHIK_clean_linker_0, # of connection points: 2
#     Edge 29, Type (0, 0), BuildingBlock: UVAHIK_clean_linker_0, # of connection points: 2
#     Edge 30, Type (0, 0), BuildingBlock: UVAHIK_clean_linker_0, # of connection points: 2
#     Edge 31, Type (0, 0), BuildingBlock: UVAHIK_clean_linker_0, # of connection points: 2
#     Edge 32, Type (0, 0), BuildingBlock: UVAHIK_clean_linker_0, # of connection points: 2
#     Edge 33, Type (0, 0), BuildingBlock: UVAHIK_clean_linker_0, # of connection points: 2
#     Edge 34, Type (0, 0), BuildingBlock: UVAHIK_clean_linker_0, # of connection points: 2
#     Edge 35, Type (0, 0), BuildingBlock: UVAHIK_clean_linker_0, # of connection points: 2
#     Edge 36, Type (0, 0), BuildingBlock: UVAHIK_clean_linker_0, # of connection points: 2
#     Edge 37, Type (0, 0), BuildingBlock: UVAHIK_clean_linker_0, # of connection points: 2
#     Edge 38, Type (0, 0), BuildingBlock: UVAHIK_clean_linker_0, # of connection points: 2
#     Edge 39, Type (0, 0), BuildingBlock: UVAHIK_clean_linker_0, # of connection points: 2
#     Edge 40, Type (0, 0), BuildingBlock: UVAHIK_clean_linker_0, # of connection points: 2
#     Edge 41, Type (0, 0), BuildingBlock: UVAHIK_clean_linker_0, # of connection points: 2
#     Edge 42, Type (0, 0), BuildingBlock: UVAHIK_clean_linker_0, # of connection points: 2
#     Edge 43, Type (0, 0), BuildingBlock: UVAHIK_clean_linker_0, # of connection points: 2
#     Edge 44, Type (0, 0), BuildingBlock: UVAHIK_clean_linker_0, # of connection points: 2
#     Edge 45, Type (0, 0), BuildingBlock: UVAHIK_clean_linker_0, # of connection points: 2
#     Edge 46, Type (0, 0), BuildingBlock: UVAHIK_clean_linker_0, # of connection points: 2
#     Edge 47, Type (0, 0), BuildingBlock: UVAHIK_clean_linker_0, # of connection points: 2
#     Edge 48, Type (0, 0), BuildingBlock: UVAHIK_clean_linker_0, # of connection points: 2
#     Edge 49, Type (0, 0), BuildingBlock: UVAHIK_clean_linker_0, # of connection points: 2
#     Edge 50, Type (0, 0), BuildingBlock: UVAHIK_clean_linker_0, # of connection points: 2
#     Edge 51, Type (0, 0), BuildingBlock: UVAHIK_clean_linker_0, # of connection points: 2
#     Edge 52, Type (0, 0), BuildingBlock: UVAHIK_clean_linker_0, # of connection points: 2
#     Edge 53, Type (0, 0), BuildingBlock: UVAHIK_clean_linker_0, # of connection points: 2
#     Edge 54, Type (0, 0), BuildingBlock: UVAHIK_clean_linker_0, # of connection points: 2
#     Edge 55, Type (0, 0), BuildingBlock: UVAHIK_clean_linker_0, # of connection points: 2
#     Edge 56, Type (0, 0), BuildingBlock: UVAHIK_clean_linker_0, # of connection points: 2
#     Edge 57, Type (0, 0), BuildingBlock: UVAHIK_clean_linker_0, # of connection points: 2
#     Edge 58, Type (0, 0), BuildingBlock: UVAHIK_clean_linker_0, # of connection points: 2
#     Edge 59, Type (0, 0), BuildingBlock: UVAHIK_clean_linker_0, # of connection points: 2
#     Edge 60, Type (0, 0), BuildingBlock: UVAHIK_clean_linker_0, # of connection points: 2
#     Edge 61, Type (0, 0), BuildingBlock: UVAHIK_clean_linker_0, # of connection points: 2
#     Edge 62, Type (0, 0), BuildingBlock: UVAHIK_clean_linker_0, # of connection points: 2
#     Edge 63, Type (0, 0), BuildingBlock: UVAHIK_clean_linker_0, # of connection points: 2
#     Edge 64, Type (0, 0), BuildingBlock: UVAHIK_clean_linker_0, # of connection points: 2
#     Edge 65, Type (0, 0), BuildingBlock: UVAHIK_clean_linker_0, # of connection points: 2
#     Edge 66, Type (0, 0), BuildingBlock: UVAHIK_clean_linker_0, # of connection points: 2
#     Edge 67, Type (0, 0), BuildingBlock: UVAHIK_clean_linker_0, # of connection points: 2
#     Edge 68, Type (0, 0), BuildingBlock: UVAHIK_clean_linker_0, # of connection points: 2
#     Edge 69, Type (0, 0), BuildingBlock: UVAHIK_clean_linker_0, # of connection points: 2
#     Edge 70, Type (0, 0), BuildingBlock: UVAHIK_clean_linker_0, # of connection points: 2
#     Edge 71, Type (0, 0), BuildingBlock: UVAHIK_clean_linker_0, # of connection points: 2
# Relax obj value: 0.432
# Max RMSD: 0.275
# Mean RMSD: 0.275
data_MOF--net-xfk--node1-HICVOG_clean_sbu_0--edge1-UVAHIK_clean_linker_0
_symmetry_space_group_name_H-M    P1
_symmetry_Int_Tables_number       1
_symmetry_cell_setting            triclinic
loop_
_symmetry_equiv_pos_as_xyz
'x, y, z'
_cell_length_a     47.243067
_cell_length_b     47.33427
_cell_length_c     50.552189
_cell_angle_alpha  89.982567
_cell_angle_beta   89.962059
_cell_angle_gamma 89.927551
loop_
_atom_site_label
_atom_site_type_symbol
_atom_site_fract_x
_atom_site_fract_y
_atom_site_fract_z
_atom_type_partial_charge
Zn0 Zn 0.33185 0.06612 0.11825 0.0
C1 C 0.32159 0.05588 1.03946 0.0
N2 N 0.34459 0.07097 1.03343 0.0
C3 C 0.3537 0.08104 0.0567 0.0
N4 N 0.33638 0.07068 0.07732 0.0
N5 N 0.31574 0.05637 0.06557 0.0
C6 C 0.25545 1.01097 0.04595 0.0
O7 O 0.27553 0.99577 0.05698 0.0
O8 O 0.33405 0.10538 0.13196 0.0
Zn9 Zn 0.27783 0.04982 0.08195 0.0
N10 N 0.36497 0.04585 0.12917 0.0
C11 C 0.39442 1.00565 0.12344 0.0
C12 C 0.37151 0.02206 0.11548 0.0
C13 C 0.38016 0.05394 0.15069 0.0
N14 N 0.41005 1.01402 0.14453 0.0
C15 C 0.40376 0.03787 0.15846 0.0
O16 O 0.27162 0.02055 0.11197 0.0
C17 C 0.27838 0.02395 0.13612 0.0
O18 O 0.29808 0.04222 0.14117 0.0
H19 H 0.35875 1.01579 0.09872 0.0
H20 H 0.37372 0.07255 0.16153 0.0
C21 C 0.23508 0.08804 0.10019 0.0
C22 C 0.22369 0.11442 0.10764 0.0
C23 C 0.26933 0.1349 0.103 0.0
C24 C 0.28016 0.10905 0.09479 0.0
N25 N 0.26303 0.08601 0.09384 0.0
N26 N 0.24148 0.137 0.10901 0.0
H27 H 0.22212 0.06929 0.09914 0.0
C28 C 0.35579 0.11917 0.12486 0.0
O29 O 0.3765 0.10588 0.11279 0.0
O30 O 0.25171 0.03618 0.05369 0.0
H31 H 0.302 0.1077 0.089 0.0
H32 H 0.39992 0.98656 0.11285 0.0
H33 H 0.28279 0.15334 0.10401 0.0
Zn34 Zn 0.09426 0.68807 0.96444 0.0
C35 C 0.09053 0.7052 0.04235 0.0
N36 N 0.1079 0.68418 0.04926 0.0
C37 C 0.11686 0.67345 1.02612 0.0
N38 N 0.10369 0.68776 1.0049 0.0
N39 N 0.08829 0.70806 1.01596 0.0
C40 C 0.03596 0.76454 1.03268 0.0
O41 O 0.02276 0.74242 1.02299 0.0
O42 O 0.13063 0.6783 0.94633 0.0
Zn43 Zn 0.07541 0.74271 0.99745 0.0
N44 N 0.07032 0.65584 0.95963 0.0
C45 C 0.03935 0.62119 0.97745 0.0
C46 C 0.05515 0.6458 0.98046 0.0
C47 C 0.0698 0.64281 0.93567 0.0
N48 N 0.03951 0.60766 0.95379 0.0
C49 C 0.05423 0.61794 0.93273 0.0
O50 O 0.04395 0.74281 0.96941 0.0
C51 C 0.0501 0.73886 0.94518 0.0
O52 O 0.07096 0.72174 0.94026 0.0
H53 H 0.05565 0.65657 0.99931 0.0
H54 H 0.08226 0.65118 0.91949 0.0
C55 C 0.1048 0.78712 0.9723 0.0
C56 C 0.12623 0.7998 0.95716 0.0
C57 C 0.15143 0.75642 0.95694 0.0
C58 C 0.13039 0.74414 0.97244 0.0
N59 N 0.10736 0.75962 0.9796 0.0
N60 N 0.14892 0.78392 0.94974 0.0
H61 H 0.08603 0.79876 0.97799 0.0
C62 C 0.14157 0.65476 0.95285 0.0
O63 O 0.12819 0.63848 0.96977 0.0
O64 O 0.06087 0.7699 1.02468 0.0
H65 H 0.13235 0.72238 0.97827 0.0
H66 H 0.02737 0.61268 0.99386 0.0
H67 H 0.1697 0.74427 0.95082 0.0
Zn68 Zn 0.75986 0.97763 0.08669 0.0
C69 C 0.68806 0.9398 0.05814 0.0
N70 N 0.70156 0.94411 1.03514 0.0
C71 C 0.72401 0.95972 0.04158 0.0
N72 N 0.72511 0.96539 0.06768 0.0
N73 N 0.70231 0.95399 0.07881 0.0
C74 C 0.6868 0.9303 0.15999 0.0
O75 O 0.70858 0.94153 0.1722 0.0
O76 O 0.78756 0.9902 0.05908 0.0
Zn77 Zn 0.6999 0.96958 0.11734 0.0
N78 N 0.77476 0.94503 0.10489 0.0
C79 C 0.7674 0.90604 0.13378 0.0
C80 C 0.75672 0.92825 0.11872 0.0
C81 C 0.80312 0.94029 0.10521 0.0
N82 N 0.79572 0.90126 0.13412 0.0
C83 C 0.81402 0.91767 0.12009 0.0
O84 O 0.73454 0.98818 0.14327 0.0
C85 C 0.75447 1.00633 0.13852 0.0
O86 O 0.76142 1.00983 0.1144 0.0
H87 H 0.73428 0.93236 0.11843 0.0
H88 H 0.81695 0.95437 0.09439 0.0
C89 C 0.66114 1.00992 0.13697 0.0
C90 C 0.64604 0.03547 0.13682 0.0
C91 C 0.66082 0.04343 0.09252 0.0
C92 C 0.67571 0.018 0.09278 0.0
N93 N 0.6755 1.00181 0.11497 0.0
N94 N 0.6464 0.05157 0.11448 0.0
H95 H 0.66229 0.99693 0.15455 0.0
C96 C 0.78161 1.0144 0.04977 0.0
O97 O 0.75942 0.02787 0.05914 0.0
O98 O 0.6795 0.93971 0.13751 0.0
H99 H 0.68795 1.01162 0.07571 0.0
H100 H 0.75331 0.89269 0.14511 0.0
H101 H 0.66088 0.0567 0.0751 0.0
Zn102 Zn 0.94392 0.34644 0.96483 0.0
C103 C 0.94765 0.33048 0.04306 0.0
N104 N 0.9312 0.35239 0.04952 0.0
C105 C 0.92247 0.36278 1.0262 0.0
N106 N 0.9348 0.34724 1.00529 0.0
N107 N 0.94941 0.32657 1.01674 0.0
C108 C 0.99842 0.26641 1.03591 0.0
O109 O 1.01312 0.28887 1.02925 0.0
O110 O 0.90742 0.35551 0.94668 0.0
Zn111 Zn 0.961 0.29099 0.99874 0.0
N112 N 0.96747 0.37887 0.95946 0.0
C113 C 0.99868 0.41358 0.97673 0.0
C114 C 0.98327 0.38875 0.97991 0.0
C115 C 0.96698 0.39226 0.93568 0.0
N116 N 0.99748 0.4275 0.95328 0.0
C117 C 0.98211 0.41739 0.93258 0.0
O118 O 0.99239 0.2893 0.97055 0.0
C119 C 0.98721 0.29429 0.94628 0.0
O120 O 0.96742 0.31259 0.94121 0.0
H121 H 0.98354 0.37768 0.99862 0.0
H122 H 0.95402 0.38403 0.9198 0.0
C123 C 0.92979 0.2469 0.97544 0.0
C124 C 0.9077 0.23421 0.96122 0.0
C125 C 0.88429 0.27851 0.95892 0.0
C126 C 0.90596 0.29083 0.97361 0.0
N127 N 0.92843 0.27487 0.98132 0.0
N128 N 0.88559 0.25054 0.95314 0.0
H129 H 0.9481 0.23484 0.98163 0.0
C130 C 0.89609 0.37898 0.95282 0.0
O131 O 0.90919 0.39582 0.96942 0.0
O132 O 0.97411 0.26275 1.02578 0.0
H133 H 0.9049 0.31291 0.97853 0.0
H134 H 1.01115 0.42196 0.99285 0.0
H135 H 0.86644 0.29102 0.95236 0.0
Zn136 Zn 0.3019 0.4647 0.24979 0.0
C137 C 0.37774 0.43573 0.27704 0.0
N138 N 0.36615 0.44323 0.30025 0.0
C139 C 0.34295 0.45765 0.29354 0.0
N140 N 0.33939 0.4593 0.26716 0.0
N141 N 0.36176 0.44709 0.25596 0.0
C142 C 0.34525 0.41252 0.17677 0.0
O143 O 0.3328 0.43308 0.16375 0.0
O144 O 0.27422 0.47787 0.27718 0.0
Zn145 Zn 0.36087 0.45509 0.21545 0.0
N146 N 0.28916 0.42844 0.23708 0.0
C147 C 0.29727 0.38036 0.22571 0.0
C148 C 0.30689 0.40582 0.2361 0.0
C149 C 0.26189 0.4264 0.2288 0.0
N150 N 0.26998 0.37823 0.21767 0.0
C151 C 0.25173 0.40048 0.21917 0.0
O152 O 0.33092 0.48444 0.1932 0.0
C153 C 0.30682 0.49694 0.19715 0.0
O154 O 0.29482 0.49284 0.21934 0.0
H155 H 0.32834 0.40741 0.24311 0.0
H156 H 0.24843 0.44487 0.22982 0.0
C157 C 0.40724 0.46591 0.18095 0.0
C158 C 0.43556 0.47197 0.17496 0.0
C159 C 0.44433 0.48128 0.22039 0.0
C160 C 0.41622 0.47522 0.22628 0.0
N161 N 0.39839 0.4673 0.20654 0.0
N162 N 0.45334 0.47939 0.19498 0.0
H163 H 0.39259 0.45941 0.16567 0.0
C164 C 0.27709 0.50346 0.28417 0.0
O165 O 0.29751 0.51849 0.27351 0.0
O166 O 0.35749 0.41761 0.19857 0.0
H167 H 0.40883 0.47643 0.24646 0.0
H168 H 0.31125 0.36229 0.22439 0.0
H169 H 0.45892 0.48731 0.23587 0.0
Zn170 Zn 0.46757 0.70176 0.86791 0.0
C171 C 0.46455 0.72175 0.79057 0.0
N172 N 0.44885 0.69947 0.78385 0.0
C173 C 0.44237 0.68715 0.80697 0.0
N174 N 0.45553 0.70181 0.82799 0.0
N175 N 0.46811 0.72397 0.81692 0.0
C176 C 0.51429 0.78323 0.80022 0.0
O177 O 0.5281 0.76129 0.80961 0.0
O178 O 0.43469 0.68521 0.8873 0.0
Zn179 Zn 0.47755 0.75957 0.83595 0.0
N180 N 0.49799 0.67512 0.87019 0.0
C181 C 0.54281 0.65854 0.85551 0.0
C182 C 0.51907 0.67566 0.85192 0.0
C183 C 0.4996 0.65838 0.89193 0.0
N184 N 0.54434 0.64157 0.87714 0.0
C185 C 0.52323 0.6409 0.89549 0.0
O186 O 0.50949 0.76237 0.86365 0.0
C187 C 0.50542 0.75636 0.88787 0.0
O188 O 0.48677 0.73697 0.89289 0.0
H189 H 0.51772 0.68975 0.83512 0.0
H190 H 0.48287 0.65921 0.90654 0.0
C191 C 0.43991 0.80049 0.85903 0.0
C192 C 0.41593 0.80945 0.87335 0.0
C193 C 0.40129 0.76167 0.87742 0.0
C194 C 0.42469 0.75306 0.86286 0.0
N195 N 0.44364 0.77249 0.85401 0.0
N196 N 0.39742 0.78954 0.8822 0.0
H197 H 0.45565 0.81534 0.85214 0.0
C198 C 0.42616 0.66105 0.87981 0.0
O199 O 0.44021 0.6476 0.86125 0.0
O200 O 0.48949 0.78816 0.80878 0.0
H201 H 0.42768 0.73098 0.85902 0.0
H202 H 0.55992 0.65879 0.84128 0.0
H203 H 0.3862 0.74637 0.88473 0.0
Zn204 Zn 0.68311 0.5883 0.21336 0.0
C205 C 0.69992 0.58285 0.2916 0.0
N206 N 0.67808 0.59918 0.29852 0.0
C207 C 0.66715 0.60796 0.27543 0.0
N208 N 0.6822 0.59575 0.25416 0.0
N209 N 0.7031 0.58106 0.26518 0.0
C210 C 0.76278 0.53143 0.28314 0.0
O211 O 0.74073 0.51633 0.27603 0.0
O212 O 0.67692 0.62642 0.19705 0.0
Zn213 Zn 0.73791 0.56879 0.24638 0.0
N214 N 0.64914 0.56741 0.20642 0.0
C215 C 0.61101 0.53953 0.2224 0.0
C216 C 0.63696 0.55269 0.22651 0.0
C217 C 0.63689 0.56894 0.18212 0.0
N218 N 0.59834 0.54171 0.19841 0.0
C219 C 0.61064 0.55599 0.17803 0.0
O220 O 0.73756 0.53691 0.21861 0.0
C221 C 0.73347 0.54306 0.1944 0.0
O222 O 0.71665 0.56419 0.18953 0.0
H223 H 0.64709 0.5516 0.24565 0.0
H224 H 0.64698 0.58104 0.16658 0.0
C225 C 0.78238 0.59932 0.22206 0.0
C226 C 0.79523 0.62184 0.20855 0.0
C227 C 0.75142 0.64639 0.20867 0.0
C228 C 0.73908 0.62442 0.2229 0.0
N229 N 0.75459 0.60108 0.22885 0.0
N230 N 0.77919 0.64469 0.20196 0.0
H231 H 0.79426 0.58056 0.22726 0.0
C232 C 0.65436 0.63905 0.20402 0.0
O233 O 0.63596 0.62567 0.21891 0.0
O234 O 0.76625 0.55573 0.27308 0.0
H235 H 0.71739 0.62607 0.22912 0.0
H236 H 0.60082 0.52797 0.23822 0.0
H237 H 0.73919 0.66491 0.20343 0.0
Zn238 Zn 0.56855 0.32693 0.86789 0.0
C239 C 0.56993 0.30919 0.78999 0.0
N240 N 0.5859 0.3314 0.78363 0.0
C241 C 0.59275 0.34304 0.80694 0.0
N242 N 0.57967 0.32795 0.82777 0.0
N243 N 0.56649 0.30638 0.81631 0.0
C244 C 0.51798 0.24864 0.79714 0.0
O245 O 0.50386 0.27104 0.80504 0.0
O246 O 0.60262 0.34168 0.88686 0.0
Zn247 Zn 0.5546 0.27119 0.83489 0.0
N248 N 0.53987 0.35519 0.872 0.0
C249 C 0.49961 0.3804 0.85682 0.0
C250 C 0.52028 0.35981 0.85286 0.0
C251 C 0.53949 0.3698 0.89509 0.0
N252 N 0.49989 0.39583 0.87948 0.0
C253 C 0.51945 0.39134 0.89887 0.0
O254 O 0.52228 0.27033 0.86269 0.0
C255 C 0.52841 0.27395 0.88698 0.0
O256 O 0.54914 0.2911 0.89202 0.0
H257 H 0.5207 0.34754 0.83481 0.0
H258 H 0.55492 0.36452 0.91003 0.0
C259 C 0.5898 0.22711 0.85566 0.0
C260 C 0.61272 0.2159 0.86998 0.0
C261 C 0.62966 0.26232 0.87762 0.0
C262 C 0.60728 0.27325 0.86294 0.0
N263 N 0.58753 0.25557 0.85259 0.0
N264 N 0.6319 0.23397 0.88075 0.0
H265 H 0.5738 0.21348 0.84724 0.0
C266 C 0.61115 0.36603 0.87992 0.0
O267 O 0.59665 0.38032 0.86223 0.0
O268 O 0.5419 0.2434 0.80746 0.0
H269 H 0.60566 0.29566 0.86011 0.0
H270 H 0.48376 0.38444 0.84186 0.0
H271 H 0.64529 0.27622 0.88625 0.0
Zn272 Zn 0.83299 0.56309 0.617 0.0
C273 C 0.81151 0.56961 0.54007 0.0
N274 N 0.83449 0.58445 0.53363 0.0
C275 C 0.8473 0.58954 0.5568 0.0
N276 N 0.83217 0.57643 0.57758 0.0
N277 N 0.80935 0.56522 0.56635 0.0
C278 C 0.74912 0.52095 0.54848 0.0
O279 O 0.77009 0.50596 0.55827 0.0
O280 O 0.85021 0.5952 0.63676 0.0
Zn281 Zn 0.77328 0.55633 0.5851 0.0
N282 N 0.85978 0.53287 0.61803 0.0
C283 C 0.87768 0.48967 0.60089 0.0
C284 C 0.86105 0.51383 0.59797 0.0
C285 C 0.87433 0.52889 0.64086 0.0
N286 N 0.89224 0.48561 0.62375 0.0
C287 C 0.89109 0.50467 0.64391 0.0
O288 O 0.76909 0.52443 0.61282 0.0
C289 C 0.77702 0.52621 0.63682 0.0
O290 O 0.79808 0.54297 0.64181 0.0
H291 H 0.84862 0.517 0.58025 0.0
H292 H 0.87204 0.54404 0.65674 0.0
C293 C 0.7325 0.596 0.60492 0.0
C294 C 0.72345 0.61993 0.61923 0.0
C295 C 0.7715 0.63096 0.62851 0.0
C296 C 0.78021 0.6074 0.61426 0.0
N297 N 0.76063 0.59031 0.60285 0.0
N298 N 0.74348 0.63668 0.63059 0.0
H299 H 0.71767 0.58214 0.59515 0.0
C300 C 0.84195 0.60503 0.65879 0.0
O301 O 0.82054 0.59314 0.67108 0.0
O302 O 0.74493 0.54566 0.55741 0.0
H303 H 0.80237 0.60272 0.61246 0.0
H304 H 0.87882 0.47413 0.58523 0.0
H305 H 0.78688 0.64467 0.6378 0.0
Zn306 Zn 0.59641 0.19253 0.46383 0.0
C307 C 0.59205 0.2058 0.54197 0.0
N308 N 0.60926 0.18448 0.54845 0.0
C309 C 0.61882 0.17475 0.52514 0.0
N310 N 0.60622 0.19004 0.50419 0.0
N311 N 0.59059 0.20989 0.51567 0.0
C312 C 0.53796 0.26652 0.5336 0.0
O313 O 0.52464 0.24396 0.525 0.0
O314 O 0.63033 0.17755 0.44481 0.0
Zn315 Zn 0.57765 0.24489 0.49766 0.0
N316 N 0.56601 0.16634 0.45902 0.0
C317 C 0.51996 0.15126 0.4716 0.0
C318 C 0.5447 0.16612 0.47709 0.0
C319 C 0.56373 0.1523 0.43569 0.0
N320 N 0.51752 0.13742 0.44821 0.0
C321 C 0.53881 0.13749 0.43003 0.0
O322 O 0.54682 0.24524 0.46883 0.0
C323 C 0.55505 0.24413 0.44486 0.0
O324 O 0.57735 0.22886 0.44017 0.0
H325 H 0.54649 0.17824 0.49513 0.0
H326 H 0.58068 0.15364 0.42133 0.0
C327 C 0.60715 0.29058 0.47514 0.0
C328 C 0.62836 0.30422 0.4605 0.0
C329 C 0.65369 0.26101 0.45779 0.0
C330 C 0.63274 0.24766 0.47265 0.0
N331 N 0.60978 0.26266 0.48085 0.0
N332 N 0.65105 0.2889 0.45207 0.0
H333 H 0.58837 0.30179 0.48151 0.0
C334 C 0.63902 0.15304 0.45111 0.0
O335 O 0.62458 0.13821 0.46844 0.0
O336 O 0.56259 0.27179 0.52486 0.0
H337 H 0.6346 0.22547 0.47699 0.0
H338 H 0.50266 0.15106 0.48563 0.0
H339 H 0.67191 0.24929 0.45084 0.0
Zn340 Zn 0.25683 0.47701 0.58424 0.0
C341 C 0.1802 0.44616 0.55891 0.0
N342 N 0.19138 0.45226 0.53529 0.0
C343 C 0.21494 0.46652 0.5408 0.0
N344 N 0.21911 0.46969 0.56708 0.0
N345 N 0.19676 0.45838 0.5792 0.0
C346 C 0.16967 0.41846 0.6323 0.0
O347 O 0.15034 0.4301 0.61713 0.0
O348 O 0.2837 0.49116 0.55659 0.0
Zn349 Zn 0.19777 0.46884 0.61952 0.0
N350 N 0.27045 0.44118 0.59796 0.0
C351 C 0.26011 0.3963 0.61673 0.0
C352 C 0.25113 0.42151 0.60547 0.0
C353 C 0.29869 0.43642 0.60092 0.0
N354 N 0.28818 0.39155 0.61975 0.0
C355 C 0.30809 0.41074 0.61215 0.0
O356 O 0.2312 0.49314 0.64233 0.0
C357 C 0.25403 0.5074 0.63747 0.0
O358 O 0.2638 0.50619 0.61405 0.0
H359 H 0.22891 0.42527 0.60284 0.0
H360 H 0.31325 0.45246 0.59424 0.0
C361 C 0.15146 0.48951 0.64916 0.0
C362 C 0.12787 0.50669 0.65432 0.0
C363 C 0.13401 0.52854 0.61231 0.0
C364 C 0.15698 0.51094 0.60711 0.0
N365 N 0.16508 0.49178 0.6256 0.0
N366 N 0.11994 0.52588 0.63561 0.0
H367 H 0.15922 0.47453 0.66358 0.0
C368 C 0.27707 0.51521 0.54733 0.0
O369 O 0.25392 0.52768 0.55583 0.0
O370 O 0.19169 0.43244 0.63817 0.0
H371 H 0.1685 0.51269 0.58868 0.0
H372 H 0.24492 0.38053 0.62291 0.0
H373 H 0.12724 0.54404 0.5979 0.0
Zn374 Zn 0.462 0.79142 0.49812 0.0
C375 C 0.42205 0.86148 0.52704 0.0
N376 N 0.43016 0.85023 0.55022 0.0
C377 C 0.44711 0.82881 0.54344 0.0
N378 N 0.44992 0.82622 0.51706 0.0
N379 N 0.43538 0.84711 0.50594 0.0
C380 C 0.40076 0.88282 0.45311 0.0
O381 O 0.41365 0.89856 0.47076 0.0
O382 O 0.4748 0.76296 0.52496 0.0
Zn383 Zn 0.44619 0.8467 0.46579 0.0
N384 N 0.42963 0.77611 0.4796 0.0
C385 C 0.38544 0.78165 0.45766 0.0
C386 C 0.40726 0.79274 0.47289 0.0
C387 C 0.43086 0.74862 0.47192 0.0
N388 N 0.3865 0.75416 0.45027 0.0
C389 C 0.40854 0.73706 0.45708 0.0
O390 O 0.46756 0.81219 0.44146 0.0
C391 C 0.48818 0.79483 0.44638 0.0
O392 O 0.49413 0.79074 0.47062 0.0
H393 H 0.40633 0.81448 0.47891 0.0
H394 H 0.44922 0.73617 0.4772 0.0
C395 C 0.47682 0.8883 0.43795 0.0
C396 C 0.49816 0.9085 0.43416 0.0
C397 C 0.51238 0.90236 0.47893 0.0
C398 C 0.49098 0.88256 0.4826 0.0
N399 N 0.47364 0.87608 0.46207 0.0
N400 N 0.5154 0.91486 0.45493 0.0
H401 H 0.4631 0.8818 0.42197 0.0
C402 C 0.49935 0.76743 0.53425 0.0
O403 O 0.51346 0.78975 0.52619 0.0
O404 O 0.41149 0.85919 0.44664 0.0
H405 H 0.4885 0.87208 0.50147 0.0
H406 H 0.36765 0.79471 0.45195 0.0
H407 H 0.5265 0.90776 0.49498 0.0
Zn408 Zn 0.79959 0.96825 0.74826 0.0
C409 C 0.87018 0.92749 0.77643 0.0
N410 N 0.8591 0.93587 0.7996 0.0
C411 C 0.83737 0.95241 0.79284 0.0
N412 N 0.83436 0.9547 0.76644 0.0
N413 N 0.85525 0.94008 0.75527 0.0
C414 C 0.88264 0.89673 0.70444 0.0
O415 O 0.90155 0.90901 0.71957 0.0
O416 O 0.77289 0.98301 0.77574 0.0
Zn417 Zn 0.85521 0.94829 0.71461 0.0
N418 N 0.78112 0.93639 0.73175 0.0
C419 C 0.78309 0.89206 0.70965 0.0
C420 C 0.79641 0.91374 0.72349 0.0
C421 C 0.75274 0.9378 0.72758 0.0
N422 N 0.75477 0.89348 0.7054 0.0
C423 C 0.73905 0.91568 0.71424 0.0
O424 O 0.82226 0.97304 0.69078 0.0
C425 C 0.80497 0.99382 0.69556 0.0
O426 O 0.8001 0.99955 0.71974 0.0
H427 H 0.81871 0.91252 0.7275 0.0
H428 H 0.74106 0.95607 0.73446 0.0
C429 C 0.90199 0.96841 0.68412 0.0
C430 C 0.92847 0.98118 0.68068 0.0
C431 C 0.92844 0.99472 0.7259 0.0
C432 C 0.90223 0.98186 0.72931 0.0
N433 N 0.88975 0.96866 0.70849 0.0
N434 N 0.94103 0.99389 0.70179 0.0
H435 H 0.89164 0.95756 0.66795 0.0
C436 C 0.77738 1.00766 0.78464 0.0
O437 O 0.79917 0.02199 0.77564 0.0
O438 O 0.86061 0.9104 0.69773 0.0
H439 H 0.89213 0.98202 0.74849 0.0
H440 H 0.7951 0.87408 0.70263 0.0
H441 H 0.93885 1.00506 0.7423 0.0
Zn442 Zn 0.96262 0.20233 0.37174 0.0
C443 C 0.95527 0.22342 0.29461 0.0
N444 N 0.93938 0.20107 0.28867 0.0
C445 C 0.93457 0.18844 0.31194 0.0
N446 N 0.9488 0.20308 0.33237 0.0
N447 N 0.9608 0.22527 0.32072 0.0
C448 C 1.01222 0.27737 0.30225 0.0
O449 O 0.02165 0.25273 0.31042 0.0
O450 O 0.93101 0.1839 0.39167 0.0
Zn451 Zn 0.97357 0.26034 0.33916 0.0
N452 N 0.99434 0.17714 0.37207 0.0
C453 C 0.03871 0.16279 0.35442 0.0
C454 C 1.01392 0.17866 0.35243 0.0
C455 C 0.99845 0.16059 0.39365 0.0
N456 N 0.04277 0.14604 0.37591 0.0
C457 C 0.0232 0.14437 0.39565 0.0
O458 O 1.00506 0.26164 0.36751 0.0
C459 C 1.00024 0.25656 0.39182 0.0
O460 O 0.98101 0.23778 0.39695 0.0
H461 H 1.0106 0.1926 0.33576 0.0
H462 H 0.98282 0.16065 0.40931 0.0
C463 C 0.93612 0.30458 0.35763 0.0
C464 C 0.91284 0.31511 0.37212 0.0
C465 C 0.90001 0.26803 0.38322 0.0
C466 C 0.9229 0.25785 0.36887 0.0
N467 N 0.94057 0.2762 0.35644 0.0
N468 N 0.89553 0.29624 0.38447 0.0
H469 H 0.95045 0.3184 0.34717 0.0
C470 C 0.92338 0.15943 0.38418 0.0
O471 O 0.93778 0.14665 0.36543 0.0
O472 O 0.98923 0.28689 0.31183 0.0
H473 H 0.92667 0.23548 0.36798 0.0
H474 H 0.05464 0.16384 0.33908 0.0
H475 H 0.88586 0.25364 0.39331 0.0
Zn476 Zn 0.18113 0.08501 0.71499 0.0
C477 C 0.19512 0.07834 0.79381 0.0
N478 N 0.17282 0.0944 0.79988 0.0
C479 C 0.16318 0.10351 0.77645 0.0
N480 N 0.17934 0.09155 0.75576 0.0
N481 N 0.1999 0.07699 0.76754 0.0
C482 C 0.25597 0.0258 0.78636 0.0
O483 O 0.23261 1.01393 0.77771 0.0
O484 O 0.19099 0.12233 0.6998 0.0
Zn485 Zn 0.23753 0.06859 0.75138 0.0
N486 N 0.14237 0.07727 0.70485 0.0
C487 C 0.09539 0.0674 0.71905 0.0
C488 C 0.124 0.07058 0.72461 0.0
C489 C 0.13334 0.07973 0.67935 0.0
N490 N 0.08631 0.07037 0.69379 0.0
C491 C 0.10448 0.07629 0.67362 0.0
O492 O 0.24373 0.04256 0.7193 0.0
C493 C 0.23234 0.03995 0.69668 0.0
O494 O 0.20913 0.05392 0.69247 0.0
H495 H 0.13138 0.0679 0.74464 0.0
H496 H 0.14825 0.08469 0.66384 0.0
C497 C 0.28015 0.10404 0.73018 0.0
C498 C 0.29377 0.12975 0.72448 0.0
C499 C 0.25448 0.15446 0.74275 0.0
C500 C 0.24149 0.12894 0.7489 0.0
N501 N 0.25453 0.10428 0.74243 0.0
N502 N 0.28023 0.15426 0.73088 0.0
H503 H 0.2896 0.08392 0.72528 0.0
C504 C 0.19771 0.12546 0.67566 0.0
O505 O 0.19866 0.10347 0.65987 0.0
O506 O 0.26258 0.05029 0.77824 0.0
H507 H 0.22131 0.12891 0.7589 0.0
H508 H 0.08049 0.06248 0.73464 0.0
H509 H 0.24439 0.1743 0.74768 0.0
Zn510 Zn 0.0562 0.77109 0.33314 0.0
C511 C 0.0911 0.84502 0.30656 0.0
N512 N 0.08208 0.83504 0.28321 0.0
C513 C 0.06651 0.81247 0.28944 0.0
N514 N 0.06571 0.80768 0.31572 0.0
N515 N 0.07977 0.82857 0.32733 0.0
C516 C 0.11572 0.86364 0.37936 0.0
O517 O 0.10126 0.87896 0.36243 0.0
O518 O 0.04225 0.74464 0.30507 0.0
Zn519 Zn 0.07063 0.82725 0.36784 0.0
N520 N 0.09033 0.75559 0.3487 0.0
C521 C 0.1334 0.76239 0.37227 0.0
C522 C 0.11035 0.77332 0.35851 0.0
C523 C 0.09283 0.72712 0.35157 0.0
N524 N 0.13581 0.73404 0.37531 0.0
C525 C 0.11624 0.71595 0.36518 0.0
O526 O 0.04902 0.79247 0.39168 0.0
C527 C 0.03014 0.77331 0.38658 0.0
O528 O 0.02582 0.76749 0.36233 0.0
H529 H 0.10836 0.79576 0.35609 0.0
H530 H 0.07648 0.71346 0.34377 0.0
C531 C 0.04561 0.87238 0.39596 0.0
C532 C 0.02666 0.89475 0.40033 0.0
C533 C 1.00376 0.88366 0.35974 0.0
C534 C 0.02331 0.86216 0.35513 0.0
N535 N 0.04391 0.85719 0.37325 0.0
N536 N 1.00606 0.89957 0.38199 0.0
H537 H 0.06174 0.86696 0.41023 0.0
C538 C 1.01724 0.75008 0.29742 0.0
O539 O 1.00366 0.77134 0.30835 0.0
O540 O 0.10632 0.83949 0.38603 0.0
H541 H 0.02203 0.84943 0.33741 0.0
H542 H 0.14929 0.77632 0.38044 0.0
H543 H 0.98713 0.88797 0.34559 0.0
C544 C 0.62497 0.07359 0.16482 0.0
C545 C 0.62884 0.04467 0.15973 0.0
C546 C 0.60464 0.08258 0.18307 0.0
C547 C 0.54716 0.05564 0.22816 0.0
H548 H 0.50163 0.10519 0.18452 0.0
C549 C 0.44081 0.02695 0.192 0.0
C550 C 0.42327 0.04705 0.17978 0.0
C551 C 0.46434 0.03543 0.20656 0.0
C552 C 0.5139 0.09204 0.19778 0.0
H553 H 0.61596 1.00244 0.17128 0.0
H554 H 0.58013 0.01792 0.20214 0.0
H555 H 0.55195 0.10436 0.17863 0.0
H556 H 0.41475 0.09209 0.17635 0.0
H557 H 0.45534 0.10673 0.20228 0.0
H558 H 0.5083 0.04154 0.24554 0.0
C559 C 0.59316 0.03386 0.19279 0.0
C560 C 0.54314 0.09154 0.19434 0.0
C561 C 0.61369 0.02488 0.17482 0.0
C562 C 0.42774 0.07586 0.18529 0.0
C563 C 0.45123 0.08435 0.20009 0.0
C564 C 0.51778 0.05612 0.2316 0.0
C565 C 0.58734 0.06282 0.19612 0.0
C566 C 0.55979 0.07156 0.20783 0.0
C567 C 0.47091 0.06427 0.20923 0.0
C568 C 0.50069 0.07253 0.21474 0.0
H569 H 0.63674 0.0893 0.15379 0.0
H570 H 0.60115 0.10504 0.18556 0.0
H571 H 0.55956 0.04076 0.2396 0.0
H572 H 0.43762 1.00457 0.18863 0.0
H573 H 0.47887 0.01923 0.21325 0.0
C574 C 0.97036 0.4618 0.90963 0.0
C575 C 0.98045 0.4341 0.90816 0.0
C576 C 0.97383 0.48011 0.88836 0.0
C577 C 0.9865 0.51912 0.84453 0.0
H578 H 0.06835 0.51686 0.84418 0.0
C579 C 0.04195 0.61213 0.88491 0.0
C580 C 0.05469 0.60169 0.90801 0.0
C581 C 0.03691 0.59399 0.86351 0.0
C582 C 0.04545 0.51792 0.8433 0.0
H583 H 0.99989 0.40265 0.88295 0.0
H584 H 1.00699 0.43516 0.84559 0.0
H585 H 0.04197 0.47309 0.8452 0.0
H586 H 0.0748 0.56563 0.92625 0.0
H587 H 0.0664 0.53413 0.88944 0.0
H588 H 0.99009 0.56389 0.84717 0.0
C589 C 0.99598 0.44265 0.86304 0.0
C590 C 0.03019 0.49266 0.84369 0.0
C591 C 0.99202 0.4241 0.88436 0.0
C592 C 0.06481 0.57396 0.90859 0.0
C593 C 0.06026 0.55605 0.88721 0.0
C594 C 1.00178 0.54436 0.84479 0.0
C595 C 0.98812 0.47126 0.8653 0.0
C596 C 1.00077 0.49328 0.84796 0.0
C597 C 0.04485 0.56534 0.86496 0.0
C598 C 0.03137 0.54366 0.84782 0.0
H599 H 0.96125 0.46979 0.92784 0.0
H600 H 0.96779 0.50198 0.89121 0.0
H601 H 0.96367 0.52014 0.84637 0.0
H602 H 0.03403 0.63361 0.8842 0.0
H603 H 0.02505 0.6018 0.8467 0.0
C604 C 0.47397 0.46064 0.14345 0.0
C605 C 0.44673 0.47132 0.14771 0.0
C606 C 0.48855 0.46704 0.1203 0.0
C607 C 0.4917 0.53135 0.08278 0.0
H608 H 0.56715 0.49967 0.08137 0.0
C609 C 0.60803 0.5496 0.12879 0.0
C610 C 0.59544 0.55812 0.15269 0.0
C611 C 0.59132 0.54574 0.10614 0.0
C612 C 0.54637 0.50928 0.08046 0.0
H613 H 0.41163 0.49367 0.12972 0.0
H614 H 0.4372 0.50513 0.08902 0.0
H615 H 0.52666 0.46891 0.07654 0.0
H616 H 0.55673 0.5723 0.1712 0.0
H617 H 0.52776 0.56587 0.13241 0.0
H618 H 0.51141 0.57159 0.08773 0.0
C619 C 0.44756 0.49207 0.1037 0.0
C620 C 0.52295 0.49144 0.07797 0.0
C621 C 0.43283 0.48543 0.12698 0.0
C622 C 0.56678 0.56546 0.15302 0.0
C623 C 0.55027 0.56209 0.13048 0.0
C624 C 0.51509 0.54931 0.08419 0.0
C625 C 0.4764 0.48487 0.101 0.0
C626 C 0.49573 0.50187 0.08383 0.0
C627 C 0.56192 0.55068 0.10711 0.0
C628 C 0.5423 0.53776 0.08748 0.0
H629 H 0.48491 0.44924 0.15898 0.0
H630 H 0.51053 0.46069 0.11932 0.0
H631 H 0.471 0.54066 0.08564 0.0
H632 H 0.63022 0.54387 0.12816 0.0
H633 H 0.601 0.53707 0.0885 0.0
C634 C 0.54572 0.41507 0.9364 0.0
C635 C 0.52054 0.41086 0.92195 0.0
C636 C 0.54828 0.43789 0.95371 0.0
C637 C 0.51061 0.50267 0.97824 0.0
H638 H 0.57471 0.53931 0.94506 0.0
C639 C 0.50082 0.60559 0.92566 0.0
C640 C 0.52489 0.6208 0.91779 0.0
C641 C 0.50334 0.58285 0.94302 0.0
C642 C 0.55713 0.52975 0.95547 0.0
H643 H 0.47729 0.42548 0.91716 0.0
H644 H 0.48225 0.46585 0.94616 0.0
H645 H 0.57299 0.48879 0.94678 0.0
H646 H 0.56986 0.62631 0.92413 0.0
H647 H 0.57423 0.58706 0.9552 0.0
H648 H 0.49395 0.54408 0.98519 0.0
C649 C 0.49989 0.45133 0.94453 0.0
C650 C 0.55614 0.50039 0.95645 0.0
C651 C 0.49719 0.42833 0.92746 0.0
C652 C 0.55106 0.61455 0.92953 0.0
C653 C 0.55352 0.59209 0.94733 0.0
C654 C 0.51173 0.53219 0.97746 0.0
C655 C 0.52604 0.45735 0.95656 0.0
C656 C 0.53181 0.48655 0.96583 0.0
C657 C 0.52999 0.5749 0.95307 0.0
C658 C 0.53388 0.54594 0.96398 0.0
H659 H 0.56439 0.40238 0.93302 0.0
H660 H 0.56855 0.44169 0.96307 0.0
H661 H 0.49197 0.49256 0.98635 0.0
H662 H 0.48036 0.60975 0.91681 0.0
H663 H 0.48473 0.57009 0.94656 0.0
C664 C 0.92295 0.52274 0.6795 0.0
C665 C 0.90838 0.50011 0.66788 0.0
C666 C 0.94353 0.51773 0.69869 0.0
C667 C 0.99418 0.46148 0.71019 0.0
H668 H 0.03009 0.5232 0.74759 0.0
C669 C 0.10765 0.47677 0.69107 0.0
C670 C 0.11014 0.50314 0.67836 0.0
C671 C 0.08584 0.47195 0.7092 0.0
C672 C 0.02032 0.50539 0.73772 0.0
H673 H 0.90128 0.45497 0.6694 0.0
H674 H 0.93664 0.44619 0.70363 0.0
H675 H 0.9786 0.52157 0.74435 0.0
H676 H 0.09415 0.54608 0.67755 0.0
H677 H 0.05567 0.53744 0.70807 0.0
H678 H 0.03553 0.44637 0.70172 0.0
C679 C 0.93292 0.46774 0.69732 0.0
C680 C 0.99081 0.50451 0.73572 0.0
C681 C 0.9127 0.47271 0.6777 0.0
C682 C 0.09245 0.52535 0.68651 0.0
C683 C 0.07058 0.52047 0.70447 0.0
C684 C 0.02354 0.46222 0.71238 0.0
C685 C 0.94987 0.48997 0.70685 0.0
C686 C 0.97768 0.48409 0.71963 0.0
C687 C 0.06585 0.4932 0.7146 0.0
C688 C 0.03697 0.48568 0.72387 0.0
H689 H 0.9202 0.54411 0.67227 0.0
H690 H 0.95616 0.53549 0.70517 0.0
H691 H 0.9851 0.44506 0.69798 0.0
H692 H 0.12077 0.45901 0.68548 0.0
H693 H 0.08307 0.45084 0.71705 0.0
C694 C 0.52774 0.93655 0.40291 0.0
C695 C 0.50153 0.92416 0.40892 0.0
C696 C 0.52987 0.95676 0.38295 0.0
C697 C 0.48357 1.01228 0.36261 0.0
H698 H 0.55503 0.0414 0.33688 0.0
C699 C 0.50969 0.12113 0.39194 0.0
C700 C 0.53557 0.12101 0.4055 0.0
C701 C 0.50427 0.10098 0.37241 0.0
C702 C 0.53473 0.03367 0.34368 0.0
H703 H 0.45762 0.92092 0.39633 0.0
H704 H 0.46157 0.95576 0.36132 0.0
H705 H 0.54703 0.99052 0.33793 0.0
H706 H 0.57711 0.10181 0.4077 0.0
H707 H 0.56729 0.0657 0.37517 0.0
H708 H 0.47213 0.05457 0.37115 0.0
C709 C 0.48041 0.95013 0.37233 0.0
C710 C 0.5301 1.00449 0.34413 0.0
C711 C 0.47821 0.92998 0.39245 0.0
C712 C 0.55693 0.10228 0.39754 0.0
C713 C 0.55127 0.08165 0.37856 0.0
C714 C 0.48826 0.0413 0.36237 0.0
C715 C 0.50577 0.96513 0.3686 0.0
C716 C 0.50553 0.99351 0.35601 0.0
C717 C 0.5242 0.0796 0.36697 0.0
C718 C 0.51497 0.05214 0.35539 0.0
H719 H 0.54625 0.93211 0.41485 0.0
H720 H 0.5498 0.9678 0.38079 0.0
H721 H 0.46415 1.00477 0.37154 0.0
H722 H 0.49312 0.13585 0.39742 0.0
H723 H 0.48357 0.10077 0.36324 0.0
C724 C 0.97238 0.97427 0.65492 0.0
C725 C 0.94352 0.98087 0.65514 0.0
C726 C 0.98872 0.97963 0.63259 0.0
C727 C 0.99075 0.03524 0.58454 0.0
H728 H 0.06714 1.00598 0.58658 0.0
C729 C 0.10605 0.06213 0.62576 0.0
C730 C 0.09306 0.07717 0.64643 0.0
C731 C 0.09043 0.05484 0.6032 0.0
C732 C 0.0461 1.01477 0.58467 0.0
H733 H 0.90831 0.99587 0.63159 0.0
H734 H 0.93715 1.00597 0.59229 0.0
H735 H 0.0278 0.97389 0.5898 0.0
H736 H 0.05571 0.10057 0.6579 0.0
H737 H 0.02853 0.08781 0.61965 0.0
H738 H 1.00905 0.07618 0.57987 0.0
C739 C 0.94715 0.99645 0.60938 0.0
C740 C 0.02333 0.99611 0.58679 0.0
C741 C 0.93064 0.99066 0.63182 0.0
C742 C 0.06596 0.08837 0.64248 0.0
C743 C 0.05042 0.08114 0.62011 0.0
C744 C 1.01352 0.05378 0.5813 0.0
C745 C 0.97668 0.99226 0.60997 0.0
C746 C 0.99588 1.00675 0.59089 0.0
C747 C 0.06152 0.06209 0.60128 0.0
C748 C 0.04133 0.04415 0.58583 0.0
H749 H 0.9827 0.96649 0.67264 0.0
H750 H 1.01133 0.97633 0.63423 0.0
H751 H 0.96973 0.0442 0.58615 0.0
H752 H 0.12715 0.05353 0.62815 0.0
H753 H 0.10018 0.04115 0.58866 0.0
C754 C 1.00687 0.93158 0.43051 0.0
C755 C 0.02987 0.91459 0.42291 0.0
C756 C 1.01093 0.95478 0.44709 0.0
C757 C 0.06677 1.00542 0.45338 0.0
H758 H 1.00684 0.04731 0.48807 0.0
C759 C 0.05518 0.11935 0.42729 0.0
C760 C 0.02774 0.12455 0.41784 0.0
C761 C 0.06024 0.09705 0.44479 0.0
C762 C 0.02402 0.03593 0.47867 0.0
H763 H 0.07488 0.90718 0.42939 0.0
H764 H 0.08156 0.94701 0.45865 0.0
H765 H 1.00664 0.99575 0.4895 0.0
H766 H 0.98375 0.1118 0.42072 0.0
H767 H 0.99255 0.07253 0.45006 0.0
H768 H 0.08272 0.04489 0.44022 0.0
C769 C 0.06044 0.94262 0.45143 0.0
C770 C 0.02394 1.00639 0.47958 0.0
C771 C 0.05646 0.91953 0.43466 0.0
C772 C 1.00514 0.1085 0.42778 0.0
C773 C 1.01024 0.08596 0.44489 0.0
C774 C 0.06674 0.0348 0.45231 0.0
C775 C 0.03813 0.96152 0.45644 0.0
C776 C 0.04409 0.99088 0.46513 0.0
C777 C 0.03804 0.07905 0.45257 0.0
C778 C 0.04408 0.05029 0.46307 0.0
H779 H 0.98601 0.92814 0.42222 0.0
H780 H 0.9932 0.96888 0.45039 0.0
H781 H 0.08277 0.99429 0.44209 0.0
H782 H 0.07291 0.13176 0.42027 0.0
H783 H 0.08183 0.09278 0.45079 0.0
C784 C 0.37658 0.16581 0.11293 0.0
C785 C 0.35584 0.15017 0.12641 0.0
C786 C 0.37543 0.19523 0.11266 0.0
C787 C 0.32733 0.25548 0.12495 0.0
H788 H 0.39666 0.29556 0.14135 0.0
C789 C 0.36189 0.36286 0.17942 0.0
C790 C 0.34624 0.38366 0.16604 0.0
C791 C 0.36365 0.33561 0.16942 0.0
C792 C 0.37719 0.28464 0.13654 0.0
H793 H 0.31771 0.15291 0.15022 0.0
H794 H 0.31615 0.20431 0.15037 0.0
H795 H 0.39821 0.24481 0.13371 0.0
H796 H 0.31987 0.39219 0.13182 0.0
H797 H 0.3228 0.34394 0.11435 0.0
H798 H 0.30616 0.29524 0.12926 0.0
C799 C 0.33293 0.19384 0.13953 0.0
C800 C 0.3781 0.25566 0.13196 0.0
C801 C 0.33404 0.16444 0.13974 0.0
C802 C 0.33214 0.37657 0.1425 0.0
C803 C 0.33378 0.34906 0.13253 0.0
C804 C 0.32643 0.28453 0.12954 0.0
C805 C 0.35357 0.20951 0.12594 0.0
C806 C 0.35306 0.24067 0.12695 0.0
C807 C 0.34975 0.32847 0.14586 0.0
C808 C 0.35124 0.29912 0.13625 0.0
H809 H 0.39345 0.15536 0.10217 0.0
H810 H 0.3915 0.20679 0.10188 0.0
H811 H 0.30779 0.24446 0.12066 0.0
H812 H 0.37288 0.36756 0.1977 0.0
H813 H 0.37557 0.31995 0.18041 0.0
C814 C 0.18314 0.6624 0.9232 0.0
C815 C 0.16975 0.64655 0.94305 0.0
C816 C 0.21063 0.65576 0.9153 0.0
C817 C 0.26506 0.62973 0.8947 0.0
H818 H 0.31908 0.62436 0.95227 0.0
C819 C 0.38485 0.62859 0.87546 0.0
C820 C 0.39905 0.64987 0.88955 0.0
C821 C 0.35749 0.6206 0.88271 0.0
C822 C 0.30419 0.62552 0.93601 0.0
H823 H 0.17427 0.61085 0.96971 0.0
H824 H 0.22245 0.59942 0.95596 0.0
H825 H 0.26846 0.62471 0.96197 0.0
H826 H 0.39655 0.67834 0.92308 0.0
H827 H 0.34887 0.66434 0.93578 0.0
H828 H 0.30082 0.63199 0.86884 0.0
C829 C 0.21164 0.61694 0.94656 0.0
C830 C 0.27526 0.62551 0.94152 0.0
C831 C 0.18406 0.62345 0.95434 0.0
C832 C 0.38606 0.66194 0.91182 0.0
C833 C 0.35886 0.65376 0.91921 0.0
C834 C 0.29399 0.62956 0.88918 0.0
C835 C 0.22529 0.63326 0.92722 0.0
C836 C 0.25548 0.62853 0.92097 0.0
C837 C 0.34406 0.63354 0.90433 0.0
C838 C 0.3138 0.62838 0.90986 0.0
H839 H 0.17261 0.6803 0.91414 0.0
H840 H 0.22081 0.66894 0.90059 0.0
H841 H 0.25019 0.63178 0.8785 0.0
H842 H 0.39435 0.61897 0.85815 0.0
H843 H 0.34655 0.60487 0.871 0.0
C844 C 0.65099 0.89191 0.15593 0.0
C845 C 0.67385 0.90391 0.1697 0.0
C846 C 0.64193 0.86462 0.16179 0.0
C847 C 0.64755 0.80561 0.20933 0.0
H848 H 0.6465 0.7592 0.14604 0.0
C849 C 0.62975 0.68491 0.21203 0.0
C850 C 0.65046 0.66932 0.19836 0.0
C851 C 0.62774 0.7141 0.20866 0.0
C852 C 0.64658 0.77193 0.16385 0.0
H853 H 0.70362 0.89765 0.20183 0.0
H854 H 0.68783 0.8498 0.21199 0.0
H855 H 0.65059 0.81034 0.142 0.0
H856 H 0.68474 0.67183 0.1699 0.0
H857 H 0.68094 0.72283 0.16373 0.0
H858 H 0.64452 0.76692 0.23114 0.0
C859 C 0.67691 0.86157 0.1967 0.0
C860 C 0.64863 0.80119 0.16156 0.0
C861 C 0.68603 0.88892 0.19081 0.0
C862 C 0.66853 0.6833 0.18063 0.0
C863 C 0.66629 0.71243 0.17703 0.0
C864 C 0.64525 0.77629 0.2116 0.0
C865 C 0.65549 0.84882 0.18157 0.0
C866 C 0.6497 0.81827 0.18428 0.0
C867 C 0.64615 0.72812 0.1913 0.0
C868 C 0.64538 0.7592 0.18887 0.0
H869 H 0.6409 0.90306 0.13976 0.0
H870 H 0.62505 0.85543 0.15013 0.0
H871 H 0.64822 0.81833 0.22712 0.0
H872 H 0.61559 0.67473 0.22593 0.0
H873 H 0.61195 0.72574 0.21977 0.0
C874 C 0.65187 0.36412 0.9112 0.0
C875 C 0.63839 0.37693 0.88956 0.0
C876 C 0.67895 0.37258 0.91867 0.0
C877 C 0.73266 0.40217 0.93635 0.0
H878 H 0.78689 0.39963 0.87872 0.0
C879 C 0.85264 0.40891 0.95451 0.0
C880 C 0.86771 0.38641 0.94304 0.0
C881 C 0.82484 0.41452 0.94682 0.0
C882 C 0.77194 0.40067 0.89495 0.0
H883 H 0.64215 0.40927 0.8593 0.0
H884 H 0.68975 0.42382 0.87226 0.0
H885 H 0.73629 0.39775 0.86905 0.0
H886 H 0.86604 0.35285 0.91387 0.0
H887 H 0.81748 0.3627 0.90042 0.0
H888 H 0.76834 0.40374 0.96232 0.0
C889 C 0.67927 0.40732 0.88342 0.0
C890 C 0.74304 0.39985 0.88944 0.0
C891 C 0.65203 0.39906 0.87612 0.0
C892 C 0.8549 0.37029 0.92307 0.0
C893 C 0.8272 0.37607 0.91523 0.0
C894 C 0.76156 0.40321 0.94186 0.0
C895 C 0.69313 0.39381 0.90448 0.0
C896 C 0.7232 0.3997 0.91014 0.0
C897 C 0.81177 0.3979 0.92737 0.0
C898 C 0.78144 0.40157 0.92124 0.0
H899 H 0.64179 0.34707 0.92195 0.0
H900 H 0.68931 0.36158 0.93478 0.0
H901 H 0.71773 0.4023 0.95263 0.0
H902 H 0.86198 0.42168 0.96999 0.0
H903 H 0.81339 0.43153 0.95639 0.0
C904 C 0.87697 0.64409 0.65467 0.0
C905 C 0.85389 0.63203 0.66811 0.0
C906 C 0.88574 0.67146 0.66049 0.0
C907 C 0.88007 0.73001 0.70819 0.0
H908 H 0.88446 0.777 0.64537 0.0
C909 C 0.90465 0.84949 0.71212 0.0
C910 C 0.88505 0.86639 0.6984 0.0
C911 C 0.90494 0.82027 0.70854 0.0
C912 C 0.88342 0.7641 0.66305 0.0
H913 H 0.82313 0.63846 0.6994 0.0
H914 H 0.83847 0.68652 0.70955 0.0
H915 H 0.87814 0.72613 0.64079 0.0
H916 H 0.85105 0.86616 0.66959 0.0
H917 H 0.8519 0.81512 0.66303 0.0
H918 H 0.88458 0.76828 0.73041 0.0
C919 C 0.84977 0.67467 0.69455 0.0
C920 C 0.88006 0.73499 0.66046 0.0
C921 C 0.84093 0.64721 0.68869 0.0
C922 C 0.86643 0.85367 0.68037 0.0
C923 C 0.86697 0.8245 0.67656 0.0
C924 C 0.8837 0.75917 0.71078 0.0
C925 C 0.87166 0.68732 0.67991 0.0
C926 C 0.87792 0.71773 0.683 0.0
C927 C 0.88592 0.80752 0.69091 0.0
C928 C 0.88488 0.77648 0.68821 0.0
H929 H 0.88765 0.6328 0.6389 0.0
H930 H 0.90297 0.68057 0.64921 0.0
H931 H 0.8786 0.71713 0.72585 0.0
H932 H 0.91919 0.8587 0.72625 0.0
H933 H 0.91986 0.8076 0.7197 0.0
C934 C 0.88255 0.15935 0.41552 0.0
C935 C 0.89651 0.14733 0.39375 0.0
C936 C 0.85542 0.15041 0.42245 0.0
C937 C 0.80084 0.12145 0.4384 0.0
H938 H 0.74879 0.1236 0.37911 0.0
C939 C 0.68028 0.12009 0.45405 0.0
C940 C 0.6666 0.14277 0.44142 0.0
C941 C 0.70788 0.11261 0.44697 0.0
C942 C 0.7631 0.12265 0.39583 0.0
H943 H 0.89363 0.11561 0.36285 0.0
H944 H 0.84606 0.10013 0.37494 0.0
H945 H 0.79967 0.12475 0.37098 0.0
H946 H 0.67041 0.1744 0.41058 0.0
H947 H 0.71849 0.16137 0.39824 0.0
H948 H 0.76423 0.12099 0.46329 0.0
C949 C 0.85613 0.11647 0.38659 0.0
C950 C 0.79221 0.12304 0.39118 0.0
C951 C 0.8834 0.12526 0.37978 0.0
C952 C 0.68045 0.15689 0.42072 0.0
C953 C 0.70791 0.14927 0.4135 0.0
C954 C 0.77172 0.12093 0.44304 0.0
C955 C 0.84165 0.12941 0.40763 0.0
C956 C 0.81134 0.12345 0.41246 0.0
C957 C 0.72214 0.1275 0.42697 0.0
C958 C 0.75258 0.12253 0.42182 0.0
H959 H 0.89217 0.17635 0.42668 0.0
H960 H 0.84466 0.16103 0.43857 0.0
H961 H 0.81514 0.12146 0.45514 0.0
H962 H 0.67013 0.10883 0.47011 0.0
H963 H 0.71832 0.09565 0.45756 0.0
C964 C 0.19208 0.16068 0.63941 0.0
C965 C 0.20105 0.1541 0.66517 0.0
C966 C 0.1909 0.18883 0.63117 0.0
C967 C 0.21667 0.25975 0.64374 0.0
H968 H 0.13948 0.28544 0.63311 0.0
C969 C 0.18855 0.37599 0.65517 0.0
C970 C 0.16936 0.38788 0.63718 0.0
C971 C 0.19222 0.34684 0.65628 0.0
C972 C 0.16122 0.27863 0.63549 0.0
H973 H 0.2174 0.17108 0.70185 0.0
H974 H 0.21646 0.2201 0.6871 0.0
H975 H 0.14949 0.23492 0.63571 0.0
H976 H 0.13765 0.37869 0.60738 0.0
H977 H 0.14474 0.32779 0.60864 0.0
H978 H 0.22863 0.30318 0.64354 0.0
C979 C 0.21005 0.20365 0.67346 0.0
C980 C 0.1669 0.24975 0.63691 0.0
C981 C 0.21053 0.1757 0.68191 0.0
C982 C 0.15269 0.37007 0.62139 0.0
C983 C 0.15673 0.34088 0.62214 0.0
C984 C 0.2111 0.28857 0.64189 0.0
C985 C 0.19945 0.21044 0.64837 0.0
C986 C 0.19454 0.24023 0.64174 0.0
C987 C 0.1771 0.32904 0.6391 0.0
C988 C 0.18318 0.29836 0.63859 0.0
H989 H 0.18447 0.14431 0.62626 0.0
H990 H 0.18257 0.1938 0.61176 0.0
H991 H 0.23814 0.25269 0.64743 0.0
H992 H 0.20145 0.38926 0.66778 0.0
H993 H 0.20739 0.33833 0.67022 0.0
C994 C 0.15598 0.89764 0.3777 0.0
C995 C 0.14327 0.87373 0.38913 0.0
C996 C 0.18303 0.90603 0.38544 0.0
C997 C 0.24711 0.90197 0.39071 0.0
H998 H 0.27258 0.89893 0.46358 0.0
C999 C 0.36085 0.87666 0.42146 0.0
C1000 C 0.37253 0.89075 0.4433 0.0
C1001 C 0.33293 0.88177 0.41397 0.0
C1002 C 0.26571 0.90038 0.44318 0.0
H1003 H 0.14839 0.84048 0.41827 0.0
H1004 H 0.19568 0.85516 0.4318 0.0
H1005 H 0.22217 0.89468 0.4537 0.0
H1006 H 0.3646 0.92195 0.47388 0.0
H1007 H 0.31553 0.93063 0.46086 0.0
H1008 H 0.29075 0.90663 0.38014 0.0
C1009 C 0.18464 0.86749 0.41697 0.0
C1010 C 0.23694 0.89767 0.43754 0.0
C1011 C 0.15769 0.85896 0.40909 0.0
C1012 C 0.35615 0.91086 0.45689 0.0
C1013 C 0.32807 0.91574 0.44956 0.0
C1014 C 0.2759 0.90447 0.39634 0.0
C1015 C 0.19775 0.89081 0.4049 0.0
C1016 C 0.22748 0.89772 0.41121 0.0
C1017 C 0.31609 0.90085 0.42833 0.0
C1018 C 0.28551 0.90295 0.42258 0.0
H1019 H 0.14539 0.90946 0.36224 0.0
H1020 H 0.19262 0.92417 0.37594 0.0
H1021 H 0.24041 0.90192 0.37022 0.0
H1022 H 0.37303 0.8611 0.4106 0.0
H1023 H 0.32412 0.86975 0.39771 0.0
C1024 C 0.25904 1.01462 0.18463 0.0
C1025 C 0.2621 1.00641 0.15771 0.0
C1026 C 0.24205 0.99888 0.20322 0.0
C1027 C 0.20683 0.92588 0.21507 0.0
H1028 H 0.16282 0.96329 0.26936 0.0
C1029 C 0.14217 0.85865 0.29578 0.0
C1030 C 0.11483 0.86753 0.30422 0.0
C1031 C 0.1608 0.87612 0.28039 0.0
C1032 C 0.17485 0.95209 0.25445 0.0
H1033 H 0.24848 0.97358 0.13074 0.0
H1034 H 0.22057 0.94636 0.16247 0.0
H1035 H 0.1927 0.99107 0.23916 0.0
H1036 H 0.08697 0.90363 0.30097 0.0
H1037 H 0.1196 0.93443 0.27645 0.0
H1038 H 0.1894 0.88692 0.23046 0.0
C1039 C 0.23108 0.96521 0.16952 0.0
C1040 C 0.19248 0.96834 0.23688 0.0
C1041 C 0.24741 0.98121 0.1509 0.0
C1042 C 0.10805 0.89577 0.29684 0.0
C1043 C 0.12692 0.91355 0.28191 0.0
C1044 C 0.18976 0.90962 0.23298 0.0
C1045 C 0.22752 0.97349 0.19633 0.0
C1046 C 0.20894 0.95585 0.21636 0.0
C1047 C 0.15361 0.904 0.27229 0.0
C1048 C 0.17294 0.92207 0.25325 0.0
H1049 H 0.26934 0.03373 0.19135 0.0
H1050 H 0.24058 1.00662 0.22332 0.0
H1051 H 0.2188 0.9146 0.20017 0.0
H1052 H 0.14839 0.83692 0.29917 0.0
H1053 H 0.18081 0.86717 0.27413 0.0
C1054 C 0.03365 0.75107 0.89612 0.0
C1055 C 0.03355 0.75647 0.9238 0.0
C1056 C 1.01763 0.76796 0.87759 0.0
C1057 C 0.97889 0.8402 0.87035 0.0
H1058 H 0.94566 0.80883 0.80689 0.0
C1059 C 0.91973 0.91554 0.79301 0.0
C1060 C 0.89523 0.90644 0.77908 0.0
C1061 C 0.93744 0.89686 0.80801 0.0
C1062 C 0.9546 0.81836 0.82445 0.0
H1063 H 1.01542 0.78566 0.95221 0.0
H1064 H 0.98888 0.81443 0.92091 0.0
H1065 H 0.9735 0.77862 0.83678 0.0
H1066 H 0.8713 0.8683 0.77184 0.0
H1067 H 0.90265 0.83579 0.79608 0.0
H1068 H 0.96029 0.87985 0.85818 0.0
C1069 C 1.0012 0.79706 0.91308 0.0
C1070 C 0.97109 0.8007 0.84186 0.0
C1071 C 1.01666 0.78001 0.93148 0.0
C1072 C 0.89042 0.87679 0.78054 0.0
C1073 C 0.90845 0.85788 0.79528 0.0
C1074 C 0.96291 0.85789 0.85278 0.0
C1075 C 1.00095 0.79174 0.88543 0.0
C1076 C 0.98366 0.81093 0.86561 0.0
C1077 C 0.93206 0.86743 0.81039 0.0
C1078 C 0.95002 0.84769 0.8292 0.0
H1079 H 0.04599 0.73352 0.88863 0.0
H1080 H 0.01876 0.7625 0.85683 0.0
H1081 H 0.98787 0.84989 0.8878 0.0
H1082 H 0.9241 0.93797 0.7941 0.0
H1083 H 0.95515 0.90599 0.81852 0.0
C1084 C 0.92585 0.13843 0.29511 0.0
C1085 C 0.91548 0.16192 0.30979 0.0
C1086 C 0.90806 0.12032 0.27959 0.0
C1087 C 0.82982 0.10142 0.26179 0.0
H1088 H 0.86371 0.06883 0.19916 0.0
C1089 C 0.76414 0.02412 0.18764 0.0
C1090 C 0.77132 0.02304 0.16031 0.0
C1091 C 0.78047 0.04002 0.20665 0.0
C1092 C 0.85332 0.07765 0.21635 0.0
H1093 H 0.87599 0.18338 0.31782 0.0
H1094 H 0.84516 0.15151 0.29266 0.0
H1095 H 0.89249 0.09634 0.22965 0.0
H1096 H 0.80292 0.03915 0.13312 0.0
H1097 H 0.83055 0.06569 0.16518 0.0
H1098 H 0.79053 0.08263 0.24823 0.0
C1099 C 0.86755 0.14673 0.29326 0.0
C1100 C 0.87036 0.09358 0.23449 0.0
C1101 C 0.88553 0.16505 0.30859 0.0
C1102 C 0.79593 0.03878 0.15352 0.0
C1103 C 0.81232 0.05424 0.17241 0.0
C1104 C 0.81279 0.08511 0.24375 0.0
C1105 C 0.87829 0.12429 0.27734 0.0
C1106 C 0.85933 0.10622 0.25789 0.0
C1107 C 0.80533 0.05555 0.19974 0.0
C1108 C 0.82386 0.07277 0.22019 0.0
H1109 H 0.94853 0.13538 0.29372 0.0
H1110 H 0.91815 0.10353 0.26854 0.0
H1111 H 0.81961 0.1101 0.27915 0.0
H1112 H 0.74569 1.0127 0.19447 0.0
H1113 H 0.77365 0.03969 0.22709 0.0
C1114 C 0.11342 0.1174 0.791 0.0
C1115 C 0.1391 0.1257 0.77852 0.0
C1116 C 0.09614 0.13629 0.80624 0.0
C1117 C 0.08292 0.21474 0.82573 0.0
H1118 H 0.04515 0.18229 0.88648 0.0
C1119 C 1.00487 0.28317 0.89737 0.0
C1120 C 1.00361 0.27664 0.92482 0.0
C1121 C 0.02063 0.26618 0.87872 0.0
C1122 C 0.05543 0.19223 0.86977 0.0
H1123 H 0.16565 0.16261 0.77429 0.0
H1124 H 0.13514 0.19562 0.79883 0.0
H1125 H 0.07214 0.15213 0.85647 0.0
H1126 H 0.01898 0.24533 0.95265 0.0
H1127 H 0.04505 0.21638 0.92109 0.0
H1128 H 0.06589 0.25491 0.83913 0.0
C1129 C 0.12803 0.17403 0.79663 0.0
C1130 C 0.07106 0.17446 0.85198 0.0
C1131 C 0.14557 0.15488 0.78166 0.0
C1132 C 0.01886 0.25188 0.93212 0.0
C1133 C 0.03404 0.23475 0.91357 0.0
C1134 C 0.06677 0.23251 0.84332 0.0
C1135 C 0.10316 0.16517 0.8103 0.0
C1136 C 0.08555 0.18499 0.82934 0.0
C1137 C 0.03565 0.24119 0.88617 0.0
C1138 C 0.0526 0.22193 0.86615 0.0
H1139 H 0.1077 0.09525 0.79086 0.0
H1140 H 0.07743 0.12773 0.81561 0.0
H1141 H 0.09317 0.22455 0.80893 0.0
H1142 H 0.99381 0.30168 0.89017 0.0
H1143 H 0.02061 0.27256 0.85816 0.0
C1144 C 0.16828 0.65626 1.03212 0.0
C1145 C 0.13914 0.64953 1.02879 0.0
C1146 C 0.18751 0.63899 0.04724 0.0
C1147 C 0.18811 0.57989 0.10105 0.0
H1148 H 0.26952 0.5819 0.0928 0.0
C1149 C 0.26297 0.52592 0.18196 0.0
C1150 C 0.29037 0.51506 0.17604 0.0
C1151 C 0.24617 0.54137 0.16338 0.0
C1152 C 0.24686 0.58068 0.09569 0.0
H1153 H 0.10881 0.61793 0.04087 0.0
H1154 H 0.14149 0.58784 0.06551 0.0
H1155 H 0.23902 0.60841 0.06231 0.0
H1156 H 0.32047 0.51349 0.14376 0.0
H1157 H 0.29168 0.54048 0.1117 0.0
H1158 H 0.1957 0.55224 0.13424 0.0
C1159 C 0.14999 0.60668 0.05641 0.0
C1160 C 0.22895 0.59644 0.07792 0.0
C1161 C 0.13095 0.62384 0.04119 0.0
C1162 C 0.2999 0.52114 0.14994 0.0
C1163 C 0.28302 0.53697 0.13123 0.0
C1164 C 0.20596 0.56443 0.11889 0.0
C1165 C 0.17884 0.61401 0.06076 0.0
C1166 C 0.19883 0.59661 0.07989 0.0
C1167 C 0.25534 0.54745 0.13723 0.0
C1168 C 0.23604 0.56422 0.11702 0.0
H1169 H 0.17591 0.67632 1.02472 0.0
H1170 H 0.20901 0.64641 0.04956 0.0
H1171 H 0.16552 0.57895 0.10439 0.0
H1172 H 0.254 0.52229 0.20137 0.0
H1173 H 0.22573 0.54888 0.16999 0.0
C1174 C 0.63832 0.93127 0.04022 0.0
C1175 C 0.66129 0.92107 0.05572 0.0
C1176 C 0.62016 0.91324 1.02498 0.0
C1177 C 0.60016 0.83482 1.00965 0.0
H1178 H 0.5688 0.86669 0.94558 0.0
C1179 C 0.52265 0.76761 0.93689 0.0
C1180 C 0.52205 0.77374 0.90934 0.0
C1181 C 0.53857 0.78439 0.95554 0.0
C1182 C 0.57727 0.85685 0.9632 0.0
H1183 H 0.68202 0.88163 0.06531 0.0
H1184 H 0.65008 0.85048 0.04059 0.0
H1185 H 0.59646 0.89614 0.97537 0.0
H1186 H 0.53904 0.80398 0.88131 0.0
H1187 H 0.56562 0.83236 0.91273 0.0
H1188 H 0.58089 0.79539 0.9972 0.0
C1189 C 0.64565 0.87291 0.04041 0.0
C1190 C 0.59328 0.8743 0.98092 0.0
C1191 C 0.664 0.8911 0.05547 0.0
C1192 C 0.53828 0.7978 0.90192 0.0
C1193 C 0.55377 0.81463 0.92043 0.0
C1194 C 0.58377 0.81738 0.99201 0.0
C1195 C 0.62363 0.88339 1.02381 0.0
C1196 C 0.60548 0.86401 1.00481 0.0
C1197 C 0.55461 0.80869 0.94797 0.0
C1198 C 0.57187 0.8277 0.96798 0.0
H1199 H 0.6357 0.95389 1.03803 0.0
H1200 H 0.60374 0.92317 1.01332 0.0
H1201 H 0.60847 0.82517 1.02743 0.0
H1202 H 0.51085 0.74963 0.94419 0.0
H1203 H 0.53787 0.77838 0.97617 0.0
C1204 C 0.75619 0.53562 0.14686 0.0
C1205 C 0.74998 0.52572 0.17279 0.0
C1206 C 0.77347 0.5198 0.12851 0.0
C1207 C 0.80448 0.44496 0.11485 0.0
H1208 H 0.85404 0.48231 0.06496 0.0
C1209 C 0.87136 0.37763 1.03572 0.0
C1210 C 0.89924 0.38587 1.02842 0.0
C1211 C 0.85259 0.39531 0.05079 0.0
C1212 C 0.84047 0.4711 0.07863 0.0
H1213 H 0.75839 0.48989 0.19828 0.0
H1214 H 0.78687 0.46275 0.16697 0.0
H1215 H 0.82389 0.5103 0.09472 0.0
H1216 H 0.92796 0.42097 1.03343 0.0
H1217 H 0.89533 0.4521 0.05759 0.0
H1218 H 0.82077 0.40582 0.09876 0.0
C1219 C 0.77856 0.4829 0.16046 0.0
C1220 C 0.82265 0.48751 0.09594 0.0
C1221 C 0.76189 0.49886 0.17885 0.0
C1222 C 0.90652 0.41368 1.03667 0.0
C1223 C 0.8876 0.43165 0.05138 0.0
C1224 C 0.82184 0.42859 0.09723 0.0
C1225 C 0.78523 0.49277 0.13464 0.0
C1226 C 0.80414 0.47504 0.11489 0.0
C1227 C 0.86025 0.42274 0.05981 0.0
C1228 C 0.84065 0.44099 0.07854 0.0
H1229 H 0.74819 0.55606 0.1408 0.0
H1230 H 0.77738 0.52887 0.1092 0.0
H1231 H 0.7909 0.43366 0.12845 0.0
H1232 H 0.86467 0.3562 1.0316 0.0
H1233 H 0.83209 0.38685 0.05606 0.0
C1234 C 0.40379 0.09943 0.04637 0.0
C1235 C 0.37543 0.10548 0.05405 0.0
C1236 C 0.42106 0.1188 1.03151 0.0
C1237 C 0.41579 0.18313 0.9842 0.0
H1238 H 0.49762 0.18435 0.98785 0.0
C1239 C 0.48516 0.24388 0.9023 0.0
C1240 C 0.51153 0.2568 0.90847 0.0
C1241 C 0.46951 0.22703 0.92079 0.0
C1242 C 0.47478 0.18467 0.98628 0.0
H1243 H 0.34399 0.13837 0.04972 0.0
H1244 H 0.37347 0.17178 1.02494 0.0
H1245 H 0.47036 0.15396 1.01788 0.0
H1246 H 0.54131 0.26026 0.94081 0.0
H1247 H 0.51473 0.23077 0.97254 0.0
H1248 H 0.42014 0.2134 0.95237 0.0
C1249 C 0.38288 0.15189 1.03078 0.0
C1250 C 0.45879 0.1667 1.00377 0.0
C1251 C 0.36585 0.13267 0.04601 0.0
C1252 C 0.52128 0.2514 0.93461 0.0
C1253 C 0.5058 0.23397 0.95306 0.0
C1254 C 0.43177 0.20064 0.96641 0.0
C1255 C 0.41092 0.1454 1.02234 0.0
C1256 C 0.42865 0.16531 1.00347 0.0
C1257 C 0.47924 0.22121 0.94684 0.0
C1258 C 0.46188 0.20215 0.96676 0.0
H1259 H 0.41218 0.07853 0.05022 0.0
H1260 H 0.44205 0.11194 1.02581 0.0
H1261 H 0.39298 0.18326 0.98235 0.0
H1262 H 0.4763 0.24677 0.88274 0.0
H1263 H 0.44972 0.21796 0.9142 0.0
C1264 C 0.6429 0.36419 0.80265 0.0
C1265 C 0.61316 0.36861 0.80465 0.0
C1266 C 0.66136 0.38243 0.78768 0.0
C1267 C 0.65968 0.43875 0.73138 0.0
H1268 H 0.74022 0.44539 0.74371 0.0
C1269 C 0.73445 0.49494 0.65139 0.0
C1270 C 0.76001 0.50906 0.65826 0.0
C1271 C 0.71787 0.47914 0.66992 0.0
C1272 C 0.71778 0.44416 0.73965 0.0
H1273 H 0.58098 0.39724 0.7903 0.0
H1274 H 0.61221 0.42889 0.76578 0.0
H1275 H 0.71065 0.41752 0.77397 0.0
H1276 H 0.78708 0.51606 0.69215 0.0
H1277 H 0.75875 0.4885 0.72413 0.0
H1278 H 0.6666 0.46517 0.69715 0.0
C1279 C 0.62178 0.41118 0.77592 0.0
C1280 C 0.70044 0.42761 0.7573 0.0
C1281 C 0.60352 0.39313 0.79106 0.0
C1282 C 0.76789 0.50598 0.68527 0.0
C1283 C 0.75134 0.48974 0.70391 0.0
C1284 C 0.677 0.45493 0.71363 0.0
C1285 C 0.65131 0.40608 0.77291 0.0
C1286 C 0.67065 0.42433 0.75388 0.0
C1287 C 0.72555 0.47584 0.69693 0.0
C1288 C 0.70674 0.4583 0.71699 0.0
H1289 H 0.65181 0.34508 0.81101 0.0
H1290 H 0.68351 0.37674 0.78643 0.0
H1291 H 0.63735 0.43725 0.72693 0.0
H1292 H 0.72687 0.49612 0.63122 0.0
H1293 H 0.69891 0.46902 0.66262 0.0
C1294 C 0.39846 0.38524 0.28032 0.0
C1295 C 0.40301 0.41496 0.27951 0.0
C1296 C 0.41629 0.36619 0.29511 0.0
C1297 C 0.46885 0.36529 0.35399 0.0
H1298 H 0.48204 0.28695 0.33582 0.0
C1299 C 0.52112 0.28517 0.4318 0.0
C1300 C 0.53923 0.26271 0.42376 0.0
C1301 C 0.506 0.3027 0.41354 0.0
C1302 C 0.47887 0.30876 0.34152 0.0
H1303 H 0.4312 0.44642 0.29575 0.0
H1304 H 0.46193 0.4142 0.32028 0.0
H1305 H 0.45454 0.31758 0.30602 0.0
H1306 H 0.55424 0.24218 0.38815 0.0
H1307 H 0.52758 0.27191 0.35658 0.0
H1308 H 0.49262 0.35654 0.38961 0.0
C1309 C 0.44459 0.40516 0.30918 0.0
C1310 C 0.46259 0.32665 0.32416 0.0
C1311 C 0.42709 0.42397 0.29412 0.0
C1312 C 0.54095 0.25889 0.39589 0.0
C1313 C 0.52524 0.27619 0.37749 0.0
C1314 C 0.48457 0.34733 0.37153 0.0
C1315 C 0.43943 0.37564 0.31089 0.0
C1316 C 0.45712 0.35566 0.32969 0.0
C1317 C 0.5073 0.29888 0.38569 0.0
C1318 C 0.49027 0.3184 0.36599 0.0
H1319 H 0.37958 0.37677 0.27114 0.0
H1320 H 0.41067 0.34404 0.29543 0.0
H1321 H 0.46549 0.38699 0.35996 0.0
H1322 H 0.51863 0.28954 0.4527 0.0
H1323 H 0.49267 0.31921 0.42157 0.0
C1324 C 0.29753 0.5374 0.6519 0.0
C1325 C 0.27111 0.52487 0.65862 0.0
C1326 C 0.31447 0.55295 0.6703 0.0
C1327 C 0.31506 0.58925 0.73958 0.0
H1328 H 0.39572 0.59331 0.72702 0.0
C1329 C 0.39197 0.66663 0.80295 0.0
C1330 C 0.42168 0.66183 0.80448 0.0
C1331 C 0.37309 0.64886 0.78798 0.0
C1332 C 0.37334 0.59261 0.73145 0.0
H1333 H 0.24292 0.52042 0.69213 0.0
H1334 H 0.27191 0.54744 0.72389 0.0
H1335 H 0.36572 0.56613 0.69745 0.0
H1336 H 0.45333 0.63309 0.78932 0.0
H1337 H 0.42139 0.60212 0.76493 0.0
H1338 H 0.32292 0.61578 0.77376 0.0
C1339 C 0.27971 0.54522 0.70387 0.0
C1340 C 0.35556 0.57686 0.71379 0.0
C1341 C 0.26273 0.52931 0.68535 0.0
C1342 C 0.43084 0.63744 0.79043 0.0
C1343 C 0.41215 0.61981 0.77536 0.0
C1344 C 0.33287 0.60528 0.75718 0.0
C1345 C 0.30639 0.55748 0.69706 0.0
C1346 C 0.3257 0.57455 0.71704 0.0
C1347 C 0.38264 0.6253 0.7728 0.0
C1348 C 0.36277 0.60754 0.75384 0.0
H1349 H 0.30556 0.53512 0.63195 0.0
H1350 H 0.33409 0.56183 0.66307 0.0
H1351 H 0.29256 0.58884 0.74359 0.0
H1352 H 0.3834 0.6857 0.81169 0.0
H1353 H 0.35101 0.65487 0.78711 0.0
C1354 C 0.64718 0.65865 0.28011 0.0
C1355 C 0.6422 0.62906 0.27827 0.0
C1356 C 0.62924 0.67741 0.2951 0.0
C1357 C 0.57484 0.67671 0.35263 0.0
H1358 H 0.56452 0.75624 0.33766 0.0
C1359 C 0.52144 0.75364 0.43235 0.0
C1360 C 0.50465 0.77732 0.42491 0.0
C1361 C 0.53684 0.73678 0.41375 0.0
C1362 C 0.56686 0.73408 0.34245 0.0
H1363 H 0.61311 0.59745 0.29279 0.0
H1364 H 0.58219 0.62919 0.31763 0.0
H1365 H 0.5922 0.72639 0.30732 0.0
H1366 H 0.4923 0.80077 0.39 0.0
H1367 H 0.51939 0.77211 0.35788 0.0
H1368 H 0.54996 0.68426 0.38782 0.0
C1369 C 0.59998 0.63838 0.30726 0.0
C1370 C 0.58324 0.71664 0.32478 0.0
C1371 C 0.6176 0.61987 0.29202 0.0
C1372 C 0.50456 0.78308 0.39729 0.0
C1373 C 0.52051 0.76638 0.37858 0.0
C1374 C 0.55896 0.69418 0.37046 0.0
C1375 C 0.60556 0.66773 0.31006 0.0
C1376 C 0.58772 0.68723 0.32916 0.0
C1377 C 0.53709 0.74246 0.38616 0.0
C1378 C 0.55429 0.72352 0.36609 0.0
H1379 H 0.66637 0.66716 0.27153 0.0
H1380 H 0.63516 0.69945 0.29621 0.0
H1381 H 0.57739 0.65465 0.35774 0.0
H1382 H 0.52266 0.74776 0.45302 0.0
H1383 H 0.5491 0.71926 0.42137 0.0
C1384 C 0.77636 0.03791 0.67993 0.0
C1385 C 0.7889 1.01134 0.67378 0.0
C1386 C 0.76004 0.05398 0.66134 0.0
C1387 C 0.71815 0.05 0.59553 0.0
H1388 H 0.7186 0.13163 0.59978 0.0
C1389 C 0.63518 0.12381 0.53503 0.0
C1390 C 0.64231 0.15191 0.52748 0.0
C1391 C 0.65386 0.1058 0.54997 0.0
C1392 C 0.71795 0.10887 0.59783 0.0
H1393 H 0.79218 0.98168 0.64135 0.0
H1394 H 0.7636 1.00903 0.60942 0.0
H1395 H 0.7479 0.10366 0.62984 0.0
H1396 H 0.6763 0.18199 0.53227 0.0
H1397 H 0.70846 0.15131 0.55713 0.0
H1398 H 0.68774 0.05533 0.56374 0.0
C1399 C 0.76674 0.01778 0.62897 0.0
C1400 C 0.73497 0.09242 0.61566 0.0
C1401 C 0.78367 1.00187 0.64753 0.0
C1402 C 0.6698 0.16038 0.53577 0.0
C1403 C 0.68829 0.14265 0.55109 0.0
C1404 C 0.70065 0.06648 0.57799 0.0
C1405 C 0.75435 0.04452 0.6352 0.0
C1406 C 0.73581 0.06235 0.61521 0.0
C1407 C 0.68075 0.11492 0.55939 0.0
C1408 C 0.69998 0.09658 0.57839 0.0
H1409 H 0.77909 0.04656 0.69958 0.0
H1410 H 0.75122 0.07387 0.66795 0.0
H1411 H 0.71733 0.02722 0.59388 0.0
H1412 H 0.61398 0.11627 0.53103 0.0
H1413 H 0.64623 0.0851 0.55557 0.0
C1414 C 0.15998 0.39571 0.55551 0.0
C1415 C 0.15492 0.42532 0.55733 0.0
C1416 C 0.14195 0.37675 0.54089 0.0
C1417 C 0.08611 0.37661 0.48436 0.0
H1418 H 0.07845 0.29676 0.49913 0.0
C1419 C 0.03208 0.29896 0.40556 0.0
C1420 C 1.01666 0.27442 0.41314 0.0
C1421 C 0.0475 0.31612 0.42389 0.0
C1422 C 0.08001 0.319 0.49439 0.0
H1423 H 0.1255 0.45669 0.54283 0.0
H1424 H 0.09435 0.42463 0.51869 0.0
H1425 H 0.10612 0.32713 0.52889 0.0
H1426 H 1.0069 0.24982 0.44807 0.0
H1427 H 0.03397 0.27905 0.47969 0.0
H1428 H 0.0604 0.36863 0.44981 0.0
C1429 C 0.11232 0.41556 0.52889 0.0
C1430 C 0.09641 0.33678 0.51174 0.0
C1431 C 0.13007 0.43428 0.5438 0.0
C1432 C 0.01802 0.26817 0.44065 0.0
C1433 C 0.03398 0.28522 0.45908 0.0
C1434 C 0.07018 0.35882 0.46685 0.0
C1435 C 0.11798 0.38617 0.52618 0.0
C1436 C 0.09999 0.36634 0.50744 0.0
C1437 C 0.04919 0.30999 0.45136 0.0
C1438 C 0.06644 0.32932 0.47113 0.0
H1439 H 0.17938 0.38729 0.56379 0.0
H1440 H 0.14805 0.35474 0.53984 0.0
H1441 H 0.08789 0.39874 0.47928 0.0
H1442 H 0.03221 0.30528 0.38498 0.0
H1443 H 0.05865 0.33425 0.4161 0.0
C1444 C 0.27542 1.00962 0.68191 0.0
C1445 C 0.24872 0.02183 0.67549 0.0
C1446 C 0.29226 0.99409 0.66342 0.0
C1447 C 0.2926 0.9568 0.59479 0.0
H1448 H 0.37361 0.95544 0.60587 0.0
C1449 C 0.37092 0.88005 0.53195 0.0
C1450 C 0.40034 0.88597 0.52955 0.0
C1451 C 0.35171 0.89757 0.54686 0.0
C1452 C 0.35113 0.95537 0.60186 0.0
H1453 H 0.21995 0.02571 0.64237 0.0
H1454 H 0.24879 0.99851 0.61043 0.0
H1455 H 0.34333 0.98243 0.63543 0.0
H1456 H 0.43116 0.91639 0.54306 0.0
H1457 H 0.3986 0.9469 0.56737 0.0
H1458 H 0.30066 0.92964 0.56104 0.0
C1459 C 0.25685 1.00105 0.63032 0.0
C1460 C 0.33321 0.971 0.61952 0.0
C1461 C 0.23993 1.01699 0.64895 0.0
C1462 C 0.40886 0.91113 0.54266 0.0
C1463 C 0.38984 0.92852 0.55767 0.0
C1464 C 0.31058 0.94086 0.5772 0.0
C1465 C 0.28384 0.98923 0.63685 0.0
C1466 C 0.30323 0.97233 0.61679 0.0
C1467 C 0.36066 0.92198 0.5611 0.0
C1468 C 0.3406 0.93958 0.58003 0.0
H1469 H 0.28383 1.01224 0.70167 0.0
H1470 H 0.31213 0.98553 0.67043 0.0
H1471 H 0.27003 0.95647 0.59123 0.0
H1472 H 0.36295 0.86039 0.52395 0.0
H1473 H 0.32992 0.89078 0.54845 0.0
C1474 C 0.99719 0.73192 0.40068 0.0
C1475 C 1.01339 0.756 0.40806 0.0
C1476 C 0.98162 0.71513 0.41922 0.0
C1477 C 0.95102 0.71267 0.49059 0.0
H1478 H 0.93917 0.63365 0.47456 0.0
C1479 C 0.87051 0.63868 0.5538 0.0
C1480 C 0.87374 0.60877 0.55452 0.0
C1481 C 0.88883 0.65697 0.53875 0.0
C1482 C 0.94209 0.65557 0.47993 0.0
H1483 H 0.02444 0.7802 0.44287 0.0
H1484 H 0.99723 0.75158 0.47488 0.0
H1485 H 0.96691 0.66306 0.44472 0.0
H1486 H 0.90027 0.57616 0.53771 0.0
H1487 H 0.93212 0.60705 0.51301 0.0
H1488 H 0.92593 0.70501 0.52584 0.0
C1489 C 0.99664 0.7455 0.45425 0.0
C1490 C 0.95816 0.67299 0.46218 0.0
C1491 C 1.01267 0.76221 0.43559 0.0
C1492 C 0.8972 0.59876 0.53952 0.0
C1493 C 0.91531 0.61687 0.52429 0.0
C1494 C 0.93455 0.69528 0.50823 0.0
C1495 C 0.98064 0.72117 0.44673 0.0
C1496 C 0.96329 0.70223 0.46676 0.0
C1497 C 0.91135 0.64662 0.52264 0.0
C1498 C 0.92952 0.66599 0.50361 0.0
H1499 H 0.99653 0.72566 0.38009 0.0
H1500 H 0.96982 0.69736 0.41155 0.0
H1501 H 0.95368 0.73473 0.49561 0.0
H1502 H 0.85214 0.64798 0.56323 0.0
H1503 H 0.88403 0.67932 0.53854 0.0
C1504 C 0.23637 0.07758 0.8243 0.0
C1505 C 0.21167 0.06484 0.81471 0.0
C1506 C 0.2485 0.06817 0.84795 0.0
C1507 C 0.27428 0.03538 0.89478 0.0
H1508 H 0.22099 0.04007 0.95308 0.0
C1509 C 0.31056 0.02336 1.00272 0.0
C1510 C 0.30266 0.04651 1.01838 0.0
C1511 C 0.29719 0.01849 0.9785 0.0
C1512 C 0.23602 0.03823 0.937 0.0
H1513 H 0.17959 0.03328 0.82224 0.0
H1514 H 0.2004 0.01719 0.86393 0.0
H1515 H 0.20395 0.04429 0.90769 0.0
H1516 H 0.27513 0.08289 1.02136 0.0
H1517 H 0.25118 0.07412 0.97926 0.0
H1518 H 0.30648 0.03026 0.92418 0.0
C1519 C 0.2109 0.03374 0.85286 0.0
C1520 C 0.2263 0.04056 0.91104 0.0
C1521 C 0.19918 0.04273 0.82898 0.0
C1522 C 0.28078 0.06436 1.00992 0.0
C1523 C 0.26722 0.05935 0.98585 0.0
C1524 C 0.28397 0.03261 0.92078 0.0
C1525 C 0.23539 0.04667 0.86277 0.0
C1526 C 0.24544 0.03999 0.88975 0.0
C1527 C 0.2759 0.03688 0.96954 0.0
C1528 C 0.265 0.03484 0.94215 0.0
H1529 H 0.24564 0.0954 0.814 0.0
H1530 H 0.26713 0.07881 0.85544 0.0
H1531 H 0.28939 0.03469 0.87865 0.0
H1532 H 0.32801 1.00989 1.00862 0.0
H1533 H 0.30423 1.00102 0.96631 0.0
C1534 C 0.05002 0.70884 0.07296 0.0
C1535 C 0.07462 0.72095 0.06235 0.0
C1536 C 0.0384 0.71928 0.09643 0.0
C1537 C 0.03996 0.7778 0.14458 0.0
H1538 H 0.03831 0.71861 0.19776 0.0
C1539 C 0.03094 0.805 0.2545 0.0
C1540 C 0.05437 0.79479 0.26861 0.0
C1541 C 0.02393 0.79348 0.22992 0.0
C1542 C 0.03825 0.73529 0.18308 0.0
H1543 H 0.10629 0.75343 0.06727 0.0
H1544 H 0.0856 0.77232 0.1081 0.0
H1545 H 0.04302 0.70613 0.15102 0.0
H1546 H 0.08864 0.7645 0.26872 0.0
H1547 H 0.07606 0.74372 0.22596 0.0
H1548 H 0.03655 0.80701 0.17672 0.0
C1549 C 0.07502 0.75505 0.09813 0.0
C1550 C 0.04077 0.72819 0.15634 0.0
C1551 C 0.08686 0.74434 0.07484 0.0
C1552 C 0.06996 0.77204 0.25847 0.0
C1553 C 0.06277 0.76027 0.23403 0.0
C1554 C 0.03707 0.78488 0.17128 0.0
C1555 C 0.05129 0.74196 0.10964 0.0
C1556 C 0.04272 0.74943 0.13695 0.0
C1557 C 0.0404 0.77166 0.21905 0.0
C1558 C 0.03727 0.76373 0.19085 0.0
H1559 H 0.04072 0.69033 0.06387 0.0
H1560 H 0.02012 0.70885 0.10489 0.0
H1561 H 0.04125 0.79452 0.12999 0.0
H1562 H 0.01914 0.82307 0.26173 0.0
H1563 H 1.0066 0.80261 0.21879 0.0
C1564 C 0.83166 0.98994 0.82625 0.0
C1565 C 0.82027 0.96645 0.81315 0.0
C1566 C 0.8203 0.99893 0.85035 0.0
C1567 C 0.80998 0.99065 0.90952 0.0
H1568 H 0.73055 0.99214 0.92869 0.0
C1569 C 0.76487 0.95701 1.01072 0.0
C1570 C 0.74179 0.97211 1.02088 0.0
C1571 C 0.77673 0.96466 0.98636 0.0
C1572 C 0.75284 0.99226 0.92363 0.0
H1573 H 0.78799 0.93416 0.81432 0.0
H1574 H 0.76751 0.95024 0.85628 0.0
H1575 H 0.7441 0.9911 0.88198 0.0
H1576 H 0.71306 1.00701 1.0142 0.0
H1577 H 0.7337 0.02039 0.97155 0.0
H1578 H 0.81869 0.99033 0.95117 0.0
C1579 C 0.78495 0.96199 0.84778 0.0
C1580 C 0.76053 0.99147 0.89692 0.0
C1581 C 0.79654 0.95281 0.82379 0.0
C1582 C 0.73134 0.99553 1.00692 0.0
C1583 C 0.74294 1.00299 0.98248 0.0
C1584 C 0.80228 0.99105 0.93623 0.0
C1585 C 0.79744 0.98444 0.86179 0.0
C1586 C 0.78916 0.98997 0.88963 0.0
C1587 C 0.76513 0.98704 0.97155 0.0
C1588 C 0.77362 0.99118 0.94355 0.0
H1589 H 0.85043 1.00027 0.81863 0.0
H1590 H 0.83026 1.01632 0.86069 0.0
H1591 H 0.83223 0.98927 0.90448 0.0
H1592 H 0.77266 0.93839 1.02086 0.0
H1593 H 0.79363 0.9518 0.97828 0.0
C1594 C 0.94687 0.29036 0.07453 0.0
C1595 C 0.96124 0.31342 0.06355 0.0
C1596 C 0.95571 0.27897 0.09867 0.0
C1597 C 0.98351 0.25446 0.14809 0.0
H1598 H 0.98857 0.31334 0.20135 0.0
C1599 C 0.98894 0.22621 0.25785 0.0
C1600 C 0.96838 0.23977 0.27334 0.0
C1601 C 0.9958 0.23649 0.23281 0.0
C1602 C 0.98739 0.29669 0.18669 0.0
H1603 H 0.99597 0.34264 0.06854 0.0
H1604 H 1.01157 0.32272 0.1108 0.0
H1605 H 0.98695 0.32609 0.15454 0.0
H1606 H 0.93903 0.27475 0.27531 0.0
H1607 H 0.95165 0.29355 0.23164 0.0
H1608 H 0.98256 0.22512 0.18022 0.0
C1609 C 0.99379 0.31317 0.10069 0.0
C1610 C 0.98676 0.30393 0.15989 0.0
C1611 C 0.98508 0.32436 0.07646 0.0
C1612 C 0.95566 0.26458 0.26401 0.0
C1613 C 0.96282 0.27516 0.23901 0.0
C1614 C 0.9843 0.24721 0.17487 0.0
C1615 C 0.97858 0.29101 0.11248 0.0
C1616 C 0.98402 0.28292 0.14036 0.0
C1617 C 0.98218 0.26056 0.22276 0.0
C1618 C 0.98548 0.26829 0.19448 0.0
H1619 H 0.92792 0.28223 0.06519 0.0
H1620 H 0.94336 0.26211 0.10742 0.0
H1621 H 0.98161 0.23785 0.13345 0.0
H1622 H 0.99846 0.2066 0.26449 0.0
H1623 H 1.01099 0.22496 0.2209 0.0
C1624 C 0.33111 0.49344 0.32718 0.0
C1625 C 0.32378 0.46855 0.31382 0.0
C1626 C 0.31759 0.50064 0.35081 0.0
C1627 C 0.30498 0.49185 0.40956 0.0
H1628 H 0.22482 0.48363 0.42399 0.0
C1629 C 0.257 0.46238 0.51135 0.0
C1630 C 0.23256 0.47701 0.51913 0.0
C1631 C 0.2692 0.46769 0.48659 0.0
C1632 C 0.24723 0.48634 0.42022 0.0
H1633 H 0.29685 0.43167 0.31411 0.0
H1634 H 0.27251 0.44457 0.35524 0.0
H1635 H 0.24174 0.48234 0.37828 0.0
H1636 H 0.20102 0.50764 0.50721 0.0
H1637 H 0.22191 0.51648 0.46376 0.0
H1638 H 0.31056 0.4948 0.45161 0.0
C1639 C 0.28835 0.45875 0.34729 0.0
C1640 C 0.25687 0.48546 0.39411 0.0
C1641 C 0.30215 0.45138 0.32382 0.0
C1642 C 0.22048 0.49688 0.50191 0.0
C1643 C 0.23218 0.50165 0.47698 0.0
C1644 C 0.29537 0.49239 0.43571 0.0
C1645 C 0.29665 0.48295 0.36145 0.0
C1646 C 0.28588 0.48769 0.38858 0.0
C1647 C 0.25637 0.48678 0.46891 0.0
C1648 C 0.26647 0.48913 0.44128 0.0
H1649 H 0.34828 0.50654 0.32003 0.0
H1650 H 0.32429 0.51942 0.36132 0.0
H1651 H 0.32751 0.4934 0.40584 0.0
H1652 H 0.26583 0.44602 0.52387 0.0
H1653 H 0.28759 0.45558 0.48062 0.0
C1654 C 0.48691 0.82515 0.57468 0.0
C1655 C 0.46264 0.81293 0.56357 0.0
C1656 C 0.49787 0.81491 0.59847 0.0
C1657 C 0.49536 0.7567 0.64683 0.0
H1658 H 0.4949 0.81615 0.69977 0.0
C1659 C 0.5013 0.72994 0.7569 0.0
C1660 C 0.47717 0.73975 0.77023 0.0
C1661 C 0.50904 0.74158 0.73257 0.0
C1662 C 0.49553 0.79941 0.68516 0.0
H1663 H 0.43089 0.78044 0.56796 0.0
H1664 H 0.45056 0.76175 0.60931 0.0
H1665 H 0.49137 0.82836 0.65286 0.0
H1666 H 0.44256 0.76962 0.76939 0.0
H1667 H 0.45644 0.79068 0.72705 0.0
H1668 H 0.49815 0.72768 0.67918 0.0
C1669 C 0.46135 0.779 0.59949 0.0
C1670 C 0.4937 0.80636 0.65834 0.0
C1671 C 0.45011 0.78957 0.57589 0.0
C1672 C 0.4617 0.76235 0.7597 0.0
C1673 C 0.46965 0.77429 0.73552 0.0
C1674 C 0.49756 0.74977 0.67362 0.0
C1675 C 0.48469 0.79226 0.61149 0.0
C1676 C 0.49252 0.78501 0.63902 0.0
C1677 C 0.49267 0.76317 0.7212 0.0
C1678 C 0.49658 0.77102 0.69307 0.0
H1679 H 0.4964 0.84367 0.56573 0.0
H1680 H 0.51586 0.82547 0.60731 0.0
H1681 H 0.49469 0.7399 0.63228 0.0
H1682 H 0.51307 0.71202 0.76448 0.0
H1683 H 0.52688 0.7327 0.72196 0.0
C1684 C 0.7403 0.58143 0.32296 0.0
C1685 C 0.71666 0.56821 0.31175 0.0
C1686 C 0.75152 0.57152 0.34684 0.0
C1687 C 0.77502 0.5399 0.39535 0.0
H1688 H 0.71649 0.54248 0.44928 0.0
C1689 C 0.80276 0.53391 0.50565 0.0
C1690 C 0.79333 0.55791 0.51938 0.0
C1691 C 0.79115 0.52696 0.4811 0.0
C1692 C 0.73298 0.54129 0.43443 0.0
H1693 H 0.6861 0.53456 0.31621 0.0
H1694 H 0.70548 0.51738 0.35819 0.0
H1695 H 0.70337 0.54448 0.40254 0.0
H1696 H 0.76434 0.59326 0.51879 0.0
H1697 H 0.74321 0.58064 0.47612 0.0
H1698 H 0.80469 0.53779 0.42728 0.0
C1699 C 0.71576 0.53489 0.34829 0.0
C1700 C 0.72551 0.54227 0.4077 0.0
C1701 C 0.70486 0.54453 0.32425 0.0
C1702 C 0.77125 0.57417 0.50886 0.0
C1703 C 0.75931 0.56698 0.48445 0.0
C1704 C 0.78246 0.53849 0.42208 0.0
C1705 C 0.73864 0.54884 0.36021 0.0
C1706 C 0.74651 0.54252 0.38795 0.0
C1707 C 0.76993 0.54394 0.4699 0.0
C1708 C 0.76156 0.54012 0.44188 0.0
H1709 H 0.74911 0.60026 0.314 0.0
H1710 H 0.76896 0.58287 0.35577 0.0
H1711 H 0.79156 0.53992 0.38049 0.0
H1712 H 0.82033 0.52157 0.51317 0.0
H1713 H 0.79965 0.50908 0.47032 0.0
C1714 C 0.55186 0.2082 0.57299 0.0
C1715 C 0.576 0.22101 0.5622 0.0
C1716 C 0.54025 0.21818 0.59663 0.0
C1717 C 0.54154 0.2765 0.6452 0.0
H1718 H 0.53975 0.21667 0.69776 0.0
C1719 C 0.53416 0.30298 0.75516 0.0
C1720 C 0.55715 0.29184 0.76928 0.0
C1721 C 0.5268 0.29186 0.73054 0.0
C1722 C 0.5398 0.23353 0.68326 0.0
H1723 H 0.60689 0.25425 0.56698 0.0
H1724 H 0.58625 0.27232 0.60813 0.0
H1725 H 0.54435 0.20474 0.6509 0.0
H1726 H 0.59019 0.26023 0.76943 0.0
H1727 H 0.57696 0.24012 0.72656 0.0
H1728 H 0.53854 0.30534 0.67762 0.0
C1729 C 0.57597 0.25486 0.59817 0.0
C1730 C 0.54221 0.22675 0.65644 0.0
C1731 C 0.58779 0.24462 0.57469 0.0
C1732 C 0.57185 0.26851 0.75916 0.0
C1733 C 0.56428 0.25713 0.73464 0.0
C1734 C 0.53889 0.28327 0.67198 0.0
C1735 C 0.55271 0.24109 0.60985 0.0
C1736 C 0.5442 0.24821 0.63727 0.0
C1737 C 0.54244 0.26948 0.71961 0.0
C1738 C 0.53909 0.26189 0.69134 0.0
H1739 H 0.54292 0.18952 0.56387 0.0
H1740 H 0.52231 0.20724 0.60517 0.0
H1741 H 0.54275 0.2934 0.63078 0.0
H1742 H 0.52305 0.32147 0.76242 0.0
H1743 H 0.50983 0.30168 0.71944 0.0
C1744 C 0.11708 0.84985 0.97021 0.0
C1745 C 0.12601 0.83032 0.95106 0.0
C1746 C 0.12308 0.87848 0.9672 0.0
C1747 C 0.18009 0.91928 0.93699 0.0
H1748 H 0.1482 0.97492 0.98466 0.0
C1749 C 0.21557 1.01427 1.01337 0.0
C1750 C 0.239 0.99956 1.02362 0.0
C1751 C 0.19921 1.00242 0.99318 0.0
C1752 C 0.15727 0.96021 0.97061 0.0
H1753 H 0.14512 0.82568 0.91235 0.0
H1754 H 0.15473 0.87595 0.90656 0.0
H1755 H 0.1182 0.93786 0.96706 0.0
H1756 H 0.2648 0.96189 1.01961 0.0
H1757 H 0.23625 0.94104 0.98512 0.0
H1758 H 0.21923 0.94144 0.94084 0.0
C1759 C 0.14399 0.86909 0.92437 0.0
C1760 C 0.1401 0.93863 0.96079 0.0
C1761 C 0.13843 0.8403 0.92762 0.0
C1762 C 0.24664 0.97357 1.01241 0.0
C1763 C 0.23047 0.96184 0.99223 0.0
C1764 C 0.19705 0.9412 0.9463 0.0
C1765 C 0.13795 0.88832 0.94485 0.0
C1766 C 0.15196 0.91649 0.94586 0.0
C1767 C 0.20618 0.97578 0.98274 0.0
C1768 C 0.18644 0.96034 0.96508 0.0
H1769 H 0.10771 0.84285 0.98863 0.0
H1770 H 0.11829 0.89231 0.98365 0.0
H1771 H 0.19011 0.90302 0.9252 0.0
H1772 H 0.20945 0.0346 1.02139 0.0
H1773 H 0.18079 1.01379 0.98617 0.0
C1774 C 0.03393 0.80812 0.06089 0.0
C1775 C 0.022 0.78237 0.05276 0.0
C1776 C 0.01896 0.82612 0.07784 0.0
C1777 C 0.97166 0.86727 0.09121 0.0
H1778 H 0.91543 0.83913 0.14041 0.0
C1779 C 0.86085 0.91349 0.0971 0.0
C1780 C 0.84453 0.91062 0.12017 0.0
C1781 C 0.88852 0.90322 0.09624 0.0
C1782 C 0.93133 0.84775 0.12727 0.0
H1783 H 0.98623 0.75418 0.05772 0.0
H1784 H 0.96003 0.7855 0.08656 0.0
H1785 H 0.95499 0.80921 0.12795 0.0
H1786 H 0.84494 0.89636 0.16091 0.0
H1787 H 0.89358 0.87897 0.15962 0.0
H1788 H 0.94781 0.90568 0.09025 0.0
C1789 C 0.98093 0.79196 0.08017 0.0
C1790 C 0.95388 0.83039 0.11987 0.0
C1791 C 0.9958 0.7741 0.06326 0.0
C1792 C 0.85697 0.89861 0.14277 0.0
C1793 C 0.8848 0.8886 0.14201 0.0
C1794 C 0.9493 0.88478 0.09887 0.0
C1795 C 0.9919 0.81856 0.08703 0.0
C1796 C 0.97333 0.83935 0.10058 0.0
C1797 C 0.90063 0.88999 0.11848 0.0
C1798 C 0.92798 0.87464 0.11581 0.0
H1799 H 0.05434 0.81484 0.05343 0.0
H1800 H 0.02815 0.84631 0.08307 0.0
H1801 H 0.9863 0.87495 0.07637 0.0
H1802 H 0.85178 0.92215 0.07918 0.0
H1803 H 0.89974 0.90417 0.07758 0.0
C1804 C 0.82274 1.01361 1.0182 0.0
C1805 C 0.79798 0.02663 1.0277 0.0
C1806 C 0.83895 0.02668 0.9985 0.0
C1807 C 0.87877 0.07211 0.97793 0.0
H1808 H 0.8442 0.12755 0.93173 0.0
C1809 C 0.91526 0.18464 0.97665 0.0
C1810 C 0.90682 0.20339 0.95664 0.0
C1811 C 0.90932 0.1559 0.97459 0.0
C1812 C 0.85474 0.11187 0.94381 0.0
H1813 H 0.76968 0.06235 1.0227 0.0
H1814 H 0.79796 0.08531 0.9893 0.0
H1815 H 0.81704 0.0871 0.94603 0.0
H1816 H 0.88807 0.20651 0.91768 0.0
H1817 H 0.87863 0.15601 0.91352 0.0
H1818 H 0.91644 0.09695 0.97586 0.0
C1819 C 0.80494 0.06493 0.99653 0.0
C1820 C 0.83889 0.08875 0.95233 0.0
C1821 C 0.78888 0.05197 1.01612 0.0
C1822 C 0.89446 0.1925 0.93355 0.0
C1823 C 0.88898 0.16358 0.93125 0.0
C1824 C 0.89487 0.09489 0.96888 0.0
C1825 C 0.83058 0.05289 0.98793 0.0
C1826 C 0.84997 0.07003 0.97126 0.0
C1827 C 0.89506 0.14509 0.95232 0.0
C1828 C 0.88229 0.11632 0.95355 0.0
H1829 H 0.82998 0.99377 1.02646 0.0
H1830 H 0.85842 1.01669 0.9921 0.0
H1831 H 0.88821 0.05785 0.99217 0.0
H1832 H 0.92448 0.19238 0.99487 0.0
H1833 H 0.91399 0.14269 0.99152 0.0
C1834 C 0.03282 0.25272 0.07101 0.0
C1835 C 1.01069 0.24519 0.05391 0.0
C1836 C 0.04726 0.23204 0.08533 0.0
C1837 C 0.07063 0.16118 0.07513 0.0
H1838 H 0.10269 0.16909 0.14529 0.0
C1839 C 0.17211 0.10193 0.10054 0.0
C1840 C 0.19292 0.11923 0.11213 0.0
C1841 C 0.14363 0.11009 0.10081 0.0
C1842 C 0.09395 0.16651 0.12564 0.0
H1843 H 0.98494 0.21049 0.0397 0.0
H1844 H 1.01093 0.17409 0.06416 0.0
H1845 H 0.06255 0.19855 0.13223 0.0
H1846 H 0.19946 0.15742 0.13509 0.0
H1847 H 0.15054 0.17212 0.1345 0.0
H1848 H 0.10324 0.13118 0.06741 0.0
C1849 C 1.01687 0.19604 0.06661 0.0
C1850 C 0.07085 0.18325 0.11829 0.0
C1851 C 1.00205 0.21683 0.05266 0.0
C1852 C 0.18417 0.14371 0.12562 0.0
C1853 C 0.15585 0.152 0.1256 0.0
C1854 C 0.09397 0.14479 0.08229 0.0
C1855 C 0.04013 0.20339 0.08247 0.0
C1856 C 0.0597 0.18147 0.09261 0.0
C1857 C 0.13532 0.13589 0.11231 0.0
C1858 C 0.10672 0.1481 0.10726 0.0
H1859 H 0.03966 0.27449 0.07259 0.0
H1860 H 0.06523 0.2383 0.09726 0.0
H1861 H 0.06263 0.15955 0.0551 0.0
H1862 H 0.17774 0.08299 0.0898 0.0
H1863 H 0.12833 0.09681 0.09086 0.0
C1864 C 0.26401 0.54334 0.31382 0.0
C1865 C 0.25821 0.51619 0.30415 0.0
C1866 C 0.245 0.55682 0.33066 0.0
C1867 C 0.20507 0.58053 0.37089 0.0
H1868 H 0.12914 0.58028 0.34191 0.0
C1869 C 0.13341 0.67429 0.39071 0.0
C1870 C 0.12116 0.68526 0.36759 0.0
C1871 C 0.14334 0.6465 0.39139 0.0
C1872 C 0.15018 0.58054 0.35038 0.0
H1873 H 0.22901 0.48093 0.30611 0.0
H1874 H 0.19544 0.50474 0.33556 0.0
H1875 H 0.16273 0.54408 0.32834 0.0
H1876 H 0.10816 0.67541 0.32756 0.0
H1877 H 0.12638 0.62751 0.32823 0.0
H1878 H 0.1937 0.61848 0.39082 0.0
C1879 C 0.21461 0.51566 0.3298 0.0
C1880 C 0.16936 0.5595 0.34288 0.0
C1881 C 0.2338 0.50206 0.31296 0.0
C1882 C 0.11725 0.66742 0.34575 0.0
C1883 C 0.12764 0.6398 0.34624 0.0
C1884 C 0.18607 0.60175 0.3781 0.0
C1885 C 0.21968 0.54349 0.33826 0.0
C1886 C 0.19748 0.56024 0.35193 0.0
C1887 C 0.14187 0.62935 0.36871 0.0
C1888 C 0.15886 0.6029 0.3668 0.0
H1889 H 0.28284 0.55463 0.30772 0.0
H1890 H 0.24947 0.57837 0.33647 0.0
H1891 H 0.2264 0.58124 0.37871 0.0
H1892 H 0.13635 0.68759 0.40793 0.0
H1893 H 0.15348 0.63898 0.40926 0.0
C1894 C 0.69048 0.92168 0.73294 0.0
C1895 C 0.70795 0.91473 0.71145 0.0
C1896 C 0.66168 0.91521 0.73236 0.0
C1897 C 0.61589 0.86222 0.70082 0.0
H1898 H 0.56319 0.89259 0.75225 0.0
C1899 C 0.5153 0.82666 0.77154 0.0
C1900 C 0.5273 0.80079 0.77938 0.0
C1901 C 0.52958 0.84419 0.75362 0.0
C1902 C 0.57714 0.88409 0.73721 0.0
H1903 H 0.70871 0.89817 0.67156 0.0
H1904 H 0.6581 0.88811 0.66991 0.0
H1905 H 0.6027 0.92131 0.73738 0.0
H1906 H 0.56235 0.77194 0.773 0.0
H1907 H 0.58729 0.80232 0.74259 0.0
H1908 H 0.59038 0.82498 0.70077 0.0
C1909 C 0.66671 0.89751 0.68768 0.0
C1910 C 0.60016 0.90043 0.72899 0.0
C1911 C 0.69569 0.90342 0.68851 0.0
C1912 C 0.55276 0.79196 0.76772 0.0
C1913 C 0.56688 0.80929 0.74987 0.0
C1914 C 0.5926 0.84616 0.70862 0.0
C1915 C 0.64957 0.902 0.7101 0.0
C1916 C 0.62093 0.88891 0.71215 0.0
C1917 C 0.55594 0.83598 0.74314 0.0
C1918 C 0.57416 0.85611 0.72835 0.0
H1919 H 0.6994 0.93009 0.75103 0.0
H1920 H 0.64954 0.91868 0.75022 0.0
H1921 H 0.63113 0.85246 0.68769 0.0
H1922 H 0.49544 0.8338 0.77994 0.0
H1923 H 0.52044 0.86449 0.74862 0.0
C1924 C 0.8104 0.53154 0.30471 0.0
C1925 C 0.78289 0.52045 0.30287 0.0
C1926 C 0.83037 0.51886 0.32131 0.0
C1927 C 0.86836 0.46866 0.3351 0.0
H1928 H 0.85049 0.43339 0.40226 0.0
C1929 C 0.92501 0.36717 0.36731 0.0
C1930 C 0.90546 0.34565 0.37338 0.0
C1931 C 0.91643 0.39549 0.36673 0.0
C1932 C 0.85599 0.44329 0.38364 0.0
H1933 H 0.75387 0.48924 0.3186 0.0
H1934 H 0.78854 0.46727 0.34764 0.0
H1935 H 0.82197 0.47312 0.38663 0.0
H1936 H 0.86194 0.33766 0.38524 0.0
H1937 H 0.84723 0.38636 0.38395 0.0
H1938 H 0.90071 0.43744 0.33088 0.0
C1939 C 0.79483 0.48558 0.33621 0.0
C1940 C 0.83974 0.46605 0.37478 0.0
C1941 C 0.77507 0.4979 0.31931 0.0
C1942 C 0.87769 0.35342 0.38036 0.0
C1943 C 0.86923 0.38157 0.37989 0.0
C1944 C 0.88447 0.44577 0.34386 0.0
C1945 C 0.82293 0.49529 0.33668 0.0
C1946 C 0.84482 0.47787 0.34976 0.0
C1947 C 0.88827 0.4029 0.37249 0.0
C1948 C 0.87736 0.43181 0.36748 0.0
H1949 H 0.81689 0.54912 0.2924 0.0
H1950 H 0.85189 0.52674 0.32138 0.0
H1951 H 0.87268 0.47731 0.31567 0.0
H1952 H 0.94685 0.36236 0.36272 0.0
H1953 H 0.93167 0.41154 0.36123 0.0
C1954 C 0.48456 0.2409 0.75982 0.0
C1955 C 0.50669 0.23079 0.77572 0.0
C1956 C 0.47174 0.22331 0.74129 0.0
C1957 C 0.44884 0.18251 0.70061 0.0
H1958 H 0.41832 0.12148 0.74292 0.0
C1959 C 0.33296 0.15683 0.70323 0.0
C1960 C 0.32316 0.13125 0.71395 0.0
C1961 C 0.36177 0.16116 0.69884 0.0
C1962 C 0.42702 0.13765 0.73016 0.0
H1963 H 0.53432 0.1951 0.78335 0.0
H1964 H 0.51095 0.16378 0.75156 0.0
H1965 H 0.46101 0.14499 0.75705 0.0
H1966 H 0.33628 0.08893 0.7257 0.0
H1967 H 0.3861 0.09619 0.71701 0.0
H1968 H 0.41381 0.17618 0.67448 0.0
C1969 C 0.50381 0.18546 0.7533 0.0
C1970 C 0.45166 0.15122 0.73837 0.0
C1971 C 0.51702 0.2033 0.77156 0.0
C1972 C 0.34266 0.10902 0.71749 0.0
C1973 C 0.3715 0.11326 0.71275 0.0
C1974 C 0.42433 0.16868 0.69218 0.0
C1975 C 0.48046 0.19507 0.7386 0.0
C1976 C 0.46165 0.175 0.72469 0.0
C1977 C 0.38158 0.13991 0.70485 0.0
C1978 C 0.412 0.14746 0.70792 0.0
H1979 H 0.4765 0.26218 0.76223 0.0
H1980 H 0.45361 0.23127 0.73049 0.0
H1981 H 0.45647 0.2005 0.68945 0.0
H1982 H 0.31858 0.17429 0.69977 0.0
H1983 H 0.36851 0.18206 0.69286 0.0
C1984 C 0.61878 0.35354 0.47554 0.0
C1985 C 0.62753 0.33496 0.45553 0.0
C1986 C 0.6232 0.38252 0.47295 0.0
C1987 C 0.63536 0.44387 0.46667 0.0
H1988 H 0.71239 0.4536 0.44207 0.0
C1989 C 0.70795 0.52365 0.51709 0.0
C1990 C 0.73249 0.50985 0.5261 0.0
C1991 C 0.6915 0.51159 0.49702 0.0
C1992 C 0.69072 0.45144 0.44879 0.0
H1993 H 0.64506 0.33219 0.41603 0.0
H1994 H 0.65183 0.38301 0.41097 0.0
H1995 H 0.68564 0.41293 0.42775 0.0
H1996 H 0.76024 0.47393 0.51983 0.0
H1997 H 0.73169 0.45282 0.48565 0.0
H1998 H 0.64201 0.48054 0.49046 0.0
C1999 C 0.64245 0.37521 0.42909 0.0
C2000 C 0.6751 0.42818 0.4403 0.0
C2001 C 0.63851 0.34609 0.43192 0.0
C2002 C 0.74119 0.48484 0.51367 0.0
C2003 C 0.72498 0.47298 0.49362 0.0
C2004 C 0.65128 0.46678 0.47569 0.0
C2005 C 0.63624 0.39369 0.45015 0.0
C2006 C 0.64801 0.4229 0.45083 0.0
C2007 C 0.69952 0.48574 0.4855 0.0
C2008 C 0.67987 0.46942 0.46845 0.0
H2009 H 0.61053 0.34561 0.4941 0.0
H2010 H 0.61847 0.3957 0.48988 0.0
H2011 H 0.61407 0.44123 0.4742 0.0
H2012 H 0.70101 0.54324 0.52607 0.0
H2013 H 0.67211 0.52203 0.49106 0.0
C2014 C 0.36075 0.4225 0.61108 0.0
C2015 C 0.33859 0.40295 0.61484 0.0
C2016 C 0.38903 0.41358 0.6115 0.0
C2017 C 0.43542 0.35225 0.62837 0.0
H2018 H 0.4753 0.3729 0.56421 0.0
C2019 C 0.50079 0.27588 0.56742 0.0
C2020 C 0.52426 0.28539 0.55295 0.0
C2021 C 0.48563 0.29447 0.58344 0.0
C2022 C 0.46495 0.36743 0.58264 0.0
H2023 H 0.32955 0.35888 0.62376 0.0
H2024 H 0.37819 0.3437 0.62426 0.0
H2025 H 0.43345 0.39936 0.57731 0.0
H2026 H 0.55158 0.32126 0.54527 0.0
H2027 H 0.52441 0.35413 0.57282 0.0
H2028 H 0.46585 0.31894 0.63253 0.0
C2029 C 0.37383 0.36593 0.62114 0.0
C2030 C 0.44091 0.38263 0.59017 0.0
C2031 C 0.34572 0.37472 0.62059 0.0
C2032 C 0.53337 0.31345 0.55604 0.0
C2033 C 0.51789 0.33222 0.57179 0.0
C2034 C 0.45939 0.33698 0.62078 0.0
C2035 C 0.39581 0.38507 0.61602 0.0
C2036 C 0.42506 0.37425 0.61235 0.0
C2037 C 0.4934 0.32307 0.58504 0.0
C2038 C 0.47351 0.34355 0.59711 0.0
H2039 H 0.35662 0.44461 0.60746 0.0
H2040 H 0.40558 0.4289 0.60779 0.0
H2041 H 0.42399 0.34572 0.64592 0.0
H2042 H 0.49356 0.25424 0.56573 0.0
H2043 H 0.46672 0.2868 0.59321 0.0
C2044 C 0.32315 0.52581 0.52526 0.0
C2045 C 0.29359 0.52808 0.52588 0.0
C2046 C 0.33876 0.5411 0.5066 0.0
C2047 C 0.32821 0.60473 0.4642 0.0
H2048 H 0.40885 0.59515 0.45318 0.0
C2049 C 0.38974 0.6978 0.42935 0.0
C2050 C 0.40687 0.70658 0.45054 0.0
C2051 C 0.38144 0.66964 0.42715 0.0
C2052 C 0.38622 0.59777 0.45564 0.0
H2053 H 0.25693 0.54574 0.50631 0.0
H2054 H 0.28347 0.56889 0.47169 0.0
H2055 H 0.38081 0.55561 0.46994 0.0
H2056 H 0.43137 0.69183 0.48426 0.0
H2057 H 0.41686 0.64289 0.48028 0.0
H2058 H 0.33362 0.64674 0.45007 0.0
C2059 C 0.29516 0.55755 0.48672 0.0
C2060 C 0.37013 0.57531 0.46561 0.0
C2061 C 0.27976 0.54379 0.50632 0.0
C2062 C 0.41827 0.68599 0.46759 0.0
C2063 C 0.41003 0.65777 0.46528 0.0
C2064 C 0.34404 0.62667 0.45355 0.0
C2065 C 0.32497 0.55798 0.4875 0.0
C2066 C 0.34109 0.57894 0.47129 0.0
C2067 C 0.39015 0.64977 0.44608 0.0
C2068 C 0.37335 0.62387 0.45026 0.0
H2069 H 0.33425 0.5137 0.5402 0.0
H2070 H 0.36158 0.5408 0.50829 0.0
H2071 H 0.30627 0.60917 0.46861 0.0
H2072 H 0.38102 0.71305 0.41559 0.0
H2073 H 0.36622 0.66389 0.41205 0.0
C2074 C 0.50203 0.7205 0.55705 0.0
C2075 C 0.51192 0.74829 0.55402 0.0
C2076 C 0.51647 0.70151 0.57343 0.0
C2077 C 0.56831 0.66536 0.58605 0.0
H2078 H 0.60789 0.68707 0.65005 0.0
C2079 C 0.67088 0.60917 0.61706 0.0
C2080 C 0.69319 0.62842 0.62113 0.0
C2081 C 0.64275 0.6185 0.61687 0.0
C2082 C 0.59683 0.68054 0.63232 0.0
H2083 H 0.54291 0.77881 0.56749 0.0
H2084 H 0.56789 0.74594 0.59604 0.0
H2085 H 0.5667 0.71423 0.63558 0.0
H2086 H 0.70294 0.6723 0.62984 0.0
H2087 H 0.65438 0.68834 0.6293 0.0
H2088 H 0.59954 0.63302 0.58164 0.0
C2089 C 0.54918 0.73861 0.58576 0.0
C2090 C 0.57323 0.69601 0.62411 0.0
C2091 C 0.53508 0.75738 0.56912 0.0
C2092 C 0.68648 0.65679 0.62654 0.0
C2093 C 0.65848 0.66602 0.62645 0.0
C2094 C 0.59195 0.64994 0.59421 0.0
C2095 C 0.54066 0.71024 0.58737 0.0
C2096 C 0.55969 0.68945 0.60016 0.0
C2097 C 0.63632 0.64715 0.62103 0.0
C2098 C 0.60734 0.65832 0.61666 0.0
H2099 H 0.48403 0.71304 0.54578 0.0
H2100 H 0.50941 0.67978 0.57443 0.0
H2101 H 0.55841 0.65989 0.56743 0.0
H2102 H 0.67493 0.58696 0.61379 0.0
H2103 H 0.62607 0.60339 0.61296 0.0
C2104 C 0.73414 1.00567 0.81336 0.0
C2105 C 0.75849 0.02007 0.80479 0.0
C2106 C 0.71493 0.01878 0.83048 0.0
C2107 C 0.66916 0.06134 0.84468 0.0
H2108 H 0.69255 0.1202 0.89315 0.0
C2109 C 0.61432 0.16769 0.84987 0.0
C2110 C 0.61794 0.18521 0.87199 0.0
C2111 C 0.62537 0.14033 0.84982 0.0
C2112 C 0.68524 0.10347 0.88028 0.0
H2113 H 0.78289 0.05858 0.80897 0.0
H2114 H 0.74933 0.08161 0.8381 0.0
H2115 H 0.72615 0.08413 0.88004 0.0
H2116 H 0.63332 0.18706 0.9123 0.0
H2117 H 0.65172 0.13889 0.91263 0.0
H2118 H 0.62834 0.08092 0.84461 0.0
C2119 C 0.74501 0.06013 0.83197 0.0
C2120 C 0.70473 0.08295 0.87247 0.0
C2121 C 0.76415 0.04705 0.81493 0.0
C2122 C 0.63055 0.17405 0.89487 0.0
C2123 C 0.6412 0.14651 0.89499 0.0
C2124 C 0.64951 0.08166 0.85278 0.0
C2125 C 0.71978 0.04648 0.83937 0.0
C2126 C 0.6974 0.06272 0.85336 0.0
C2127 C 0.64004 0.12982 0.872 0.0
C2128 C 0.6578 0.10396 0.86944 0.0
H2129 H 0.72945 0.98462 0.80622 0.0
H2130 H 0.69589 1.00756 0.83613 0.0
H2131 H 0.66271 0.04597 0.83002 0.0
H2132 H 0.60501 0.1758 0.83182 0.0
H2133 H 0.62431 0.12838 0.8316 0.0
C2134 C 0.19995 0.41005 0.22673 0.0
C2135 C 0.22148 0.39585 0.21277 0.0
C2136 C 0.17189 0.40094 0.22498 0.0
C2137 C 0.13845 0.3337 0.21998 0.0
H2138 H 0.06821 0.37551 0.22663 0.0
C2139 C 0.04389 0.27754 0.26314 0.0
C2140 C 0.02785 0.29274 0.28162 0.0
C2141 C 0.06137 0.29154 0.2453 0.0
C2142 C 0.08764 0.36351 0.22492 0.0
H2143 H 0.22995 0.36302 0.1839 0.0
H2144 H 0.181 0.34704 0.18108 0.0
H2145 H 0.111 0.39962 0.21125 0.0
H2146 H 1.01643 0.3345 0.29539 0.0
H2147 H 0.04922 0.35909 0.26605 0.0
H2148 H 0.11669 0.29841 0.23575 0.0
C2149 C 0.18592 0.36503 0.19349 0.0
C2150 C 0.11204 0.3773 0.21589 0.0
C2151 C 0.21393 0.37412 0.19521 0.0
C2152 C 0.02868 0.32234 0.28128 0.0
C2153 C 0.0473 0.3364 0.26421 0.0
C2154 C 0.11441 0.32013 0.22943 0.0
C2155 C 0.16491 0.37743 0.20938 0.0
C2156 C 0.13779 0.36258 0.21389 0.0
C2157 C 0.06468 0.32105 0.24663 0.0
C2158 C 0.08875 0.33492 0.23264 0.0
H2159 H 0.20487 0.42664 0.24071 0.0
H2160 H 0.15618 0.41072 0.23765 0.0
H2161 H 0.15811 0.32191 0.21924 0.0
H2162 H 0.04352 0.25468 0.26289 0.0
H2163 H 0.07337 0.27897 0.23135 0.0
C2164 C 0.3031 1.01555 0.80626 0.0
C2165 C 0.27375 1.01128 0.80595 0.0
C2166 C 0.32028 0.9996 0.82306 0.0
C2167 C 0.31698 0.9315 0.85957 0.0
H2168 H 0.39531 0.94992 0.87457 0.0
C2169 C 0.38989 0.84691 0.89804 0.0
C2170 C 0.40882 0.83964 0.87763 0.0
C2171 C 0.37712 0.87346 0.89855 0.0
C2172 C 0.37334 0.94476 0.87087 0.0
H2173 H 0.23895 0.98906 0.82439 0.0
H2174 H 0.26835 0.96339 0.85555 0.0
H2175 H 0.36304 0.98701 0.85943 0.0
H2176 H 0.4313 0.85591 0.84329 0.0
H2177 H 0.40927 0.90234 0.84461 0.0
H2178 H 0.32731 0.88939 0.87118 0.0
C2179 C 0.27861 0.97744 0.84167 0.0
C2180 C 0.35487 0.96583 0.86188 0.0
C2181 C 0.26161 0.9924 0.824 0.0
C2182 C 0.41704 0.86062 0.85944 0.0
C2183 C 0.40444 0.88735 0.86017 0.0
C2184 C 0.33514 0.91081 0.86926 0.0
C2185 C 0.30834 0.97973 0.84058 0.0
C2186 C 0.32668 0.95921 0.85507 0.0
C2187 C 0.38331 0.89336 0.87887 0.0
C2188 C 0.36364 0.917 0.87412 0.0
H2189 H 0.31292 0.0301 0.79249 0.0
H2190 H 0.34297 1.00194 0.82118 0.0
H2191 H 0.29584 0.925 0.85411 0.0
H2192 H 0.38344 0.83144 0.91264 0.0
H2193 H 0.3609 0.87773 0.91318 0.0
C2194 C 0.84495 0.6138 0.22352 0.0
C2195 C 0.82608 0.62271 0.20377 0.0
C2196 C 0.87362 0.62056 0.22185 0.0
C2197 C 0.93439 0.63737 0.21704 0.0
H2198 H 0.9399 0.71603 0.19649 0.0
C2199 C 1.01688 0.70977 0.26506 0.0
C2200 C 1.004 0.73405 0.27567 0.0
C2201 C 1.00291 0.69373 0.24581 0.0
C2202 C 0.93888 0.69397 0.20215 0.0
H2203 H 0.82273 0.64298 0.16551 0.0
H2204 H 0.87309 0.65374 0.16193 0.0
H2205 H 0.89994 0.68838 0.18178 0.0
H2206 H 0.96746 0.7617 0.27309 0.0
H2207 H 0.943 0.73371 0.24041 0.0
H2208 H 0.97174 0.64416 0.23998 0.0
C2209 C 0.86567 0.64246 0.17922 0.0
C2210 C 0.91605 0.67785 0.19338 0.0
C2211 C 0.83683 0.63618 0.18116 0.0
C2212 C 0.97778 0.74287 0.26563 0.0
C2213 C 0.96392 0.72698 0.24648 0.0
C2214 C 0.95695 0.65371 0.22627 0.0
C2215 C 0.88418 0.63612 0.20023 0.0
C2216 C 0.91251 0.64985 0.20216 0.0
C2217 C 0.97593 0.70182 0.23678 0.0
C2218 C 0.95832 0.68268 0.22033 0.0
H2219 H 0.83729 0.6037 0.24137 0.0
H2220 H 0.88687 0.61555 0.23867 0.0
H2221 H 0.93299 0.61556 0.22336 0.0
H2222 H 0.03734 0.70273 0.27214 0.0
H2223 H 1.01285 0.67462 0.23854 0.0
loop_
_geom_bond_atom_site_label_1
_geom_bond_atom_site_label_2
_geom_bond_distance
_geom_bond_site_symmetry_2
_ccdc_geom_bond_type
Zn0 N4 2.020 . S
Zn0 O8 2.019 . S
Zn0 N10 2.119 . S
Zn0 O18 1.975 . S
C1 N2 1.334 1_554 S
C1 N5 1.336 . S
N2 C1 1.334 1_556 S
N2 C3 1.334 1_556 S
C3 N2 1.334 1_554 S
C3 N4 1.336 . S
N4 Zn0 2.020 . S
N4 C3 1.336 . S
N4 N5 1.354 . S
N5 C1 1.336 . S
N5 N4 1.354 . S
N5 Zn9 2.020 . S
C6 O7 1.244 . S
C6 O30 1.257 . S
O7 C6 1.244 . S
O8 Zn0 2.019 . S
O8 C28 1.257 . S
Zn9 N5 2.020 . S
Zn9 O16 1.975 . S
Zn9 N25 2.119 . S
Zn9 O30 2.019 . S
N10 Zn0 2.119 . S
N10 C12 1.334 . S
N10 C13 1.328 . S
C11 C12 1.391 . S
C11 N14 1.329 . S
C11 H32 0.930 . S
C12 N10 1.334 . S
C12 C11 1.391 . S
C12 H19 0.930 . S
C13 N10 1.328 . S
C13 C15 1.392 . S
C13 H20 0.930 . S
N14 C11 1.329 . S
N14 C15 1.331 . S
C15 C13 1.392 . S
C15 N14 1.331 . S
O16 Zn9 1.975 . S
O16 C17 1.252 . S
C17 O16 1.252 . S
C17 O18 1.252 . S
O18 Zn0 1.975 . S
O18 C17 1.252 . S
H19 C12 0.930 . S
H20 C13 0.930 . S
C21 C22 1.392 . S
C21 N25 1.328 . S
C21 H27 0.930 . S
C22 C21 1.392 . S
C22 N26 1.331 . S
C23 C24 1.391 . S
C23 N26 1.329 . S
C23 H33 0.930 . S
C24 C23 1.391 . S
C24 N25 1.334 . S
C24 H31 0.930 . S
N25 Zn9 2.119 . S
N25 C21 1.328 . S
N25 C24 1.334 . S
N26 C22 1.331 . S
N26 C23 1.329 . S
H27 C21 0.930 . S
C28 O8 1.257 . S
C28 O29 1.244 . S
O29 C28 1.244 . S
O30 C6 1.257 . S
O30 Zn9 2.019 . S
H31 C24 0.930 . S
H32 C11 0.930 . S
H33 C23 0.930 . S
Zn34 N38 2.020 . S
Zn34 O42 2.019 . S
Zn34 N44 2.119 . S
Zn34 O52 1.975 . S
C35 N36 1.334 1_556 S
C35 N39 1.336 . S
N36 C35 1.334 1_554 S
N36 C37 1.334 1_554 S
C37 N36 1.334 1_556 S
C37 N38 1.336 . S
N38 Zn34 2.020 . S
N38 C37 1.336 . S
N38 N39 1.354 . S
N39 C35 1.336 . S
N39 N38 1.354 . S
N39 Zn43 2.020 . S
C40 O41 1.244 . S
C40 O64 1.257 . S
O41 C40 1.244 . S
O42 Zn34 2.019 . S
O42 C62 1.257 . S
Zn43 N39 2.020 . S
Zn43 O50 1.975 . S
Zn43 N59 2.119 . S
Zn43 O64 2.019 . S
N44 Zn34 2.119 . S
N44 C46 1.334 . S
N44 C47 1.328 . S
C45 C46 1.391 . S
C45 N48 1.329 . S
C45 H66 0.930 . S
C46 N44 1.334 . S
C46 C45 1.391 . S
C46 H53 0.930 . S
C47 N44 1.328 . S
C47 C49 1.392 . S
C47 H54 0.930 . S
N48 C45 1.329 . S
N48 C49 1.331 . S
C49 C47 1.392 . S
C49 N48 1.331 . S
O50 Zn43 1.975 . S
O50 C51 1.252 . S
C51 O50 1.252 . S
C51 O52 1.252 . S
O52 Zn34 1.975 . S
O52 C51 1.252 . S
H53 C46 0.930 . S
H54 C47 0.930 . S
C55 C56 1.392 . S
C55 N59 1.328 . S
C55 H61 0.930 . S
C56 C55 1.392 . S
C56 N60 1.331 . S
C57 C58 1.391 . S
C57 N60 1.329 . S
C57 H67 0.930 . S
C58 C57 1.391 . S
C58 N59 1.334 . S
C58 H65 0.930 . S
N59 Zn43 2.119 . S
N59 C55 1.328 . S
N59 C58 1.334 . S
N60 C56 1.331 . S
N60 C57 1.329 . S
H61 C55 0.930 . S
C62 O42 1.257 . S
C62 O63 1.244 . S
O63 C62 1.244 . S
O64 C40 1.257 . S
O64 Zn43 2.019 . S
H65 C58 0.930 . S
H66 C45 0.930 . S
H67 C57 0.930 . S
Zn68 N72 2.020 . S
Zn68 O76 2.019 . S
Zn68 N78 2.119 . S
Zn68 O86 1.975 . S
C69 N70 1.334 1_554 S
C69 N73 1.336 . S
N70 C69 1.334 1_556 S
N70 C71 1.334 1_556 S
C71 N70 1.334 1_554 S
C71 N72 1.336 . S
N72 Zn68 2.020 . S
N72 C71 1.336 . S
N72 N73 1.354 . S
N73 C69 1.336 . S
N73 N72 1.354 . S
N73 Zn77 2.020 . S
C74 O75 1.244 . S
C74 O98 1.257 . S
O75 C74 1.244 . S
O76 Zn68 2.019 . S
O76 C96 1.257 . S
Zn77 N73 2.020 . S
Zn77 O84 1.975 . S
Zn77 N93 2.119 . S
Zn77 O98 2.019 . S
N78 Zn68 2.119 . S
N78 C80 1.334 . S
N78 C81 1.328 . S
C79 C80 1.391 . S
C79 N82 1.329 . S
C79 H100 0.930 . S
C80 N78 1.334 . S
C80 C79 1.391 . S
C80 H87 0.930 . S
C81 N78 1.328 . S
C81 C83 1.392 . S
C81 H88 0.930 . S
N82 C79 1.329 . S
N82 C83 1.331 . S
C83 C81 1.392 . S
C83 N82 1.331 . S
O84 Zn77 1.975 . S
O84 C85 1.252 . S
C85 O84 1.252 . S
C85 O86 1.252 . S
O86 Zn68 1.975 . S
O86 C85 1.252 . S
H87 C80 0.930 . S
H88 C81 0.930 . S
C89 C90 1.392 . S
C89 N93 1.328 . S
C89 H95 0.930 . S
C90 C89 1.392 . S
C90 N94 1.331 . S
C91 C92 1.391 . S
C91 N94 1.329 . S
C91 H101 0.930 . S
C92 C91 1.391 . S
C92 N93 1.334 . S
C92 H99 0.930 . S
N93 Zn77 2.119 . S
N93 C89 1.328 . S
N93 C92 1.334 . S
N94 C90 1.331 . S
N94 C91 1.329 . S
H95 C89 0.930 . S
C96 O76 1.257 . S
C96 O97 1.244 . S
O97 C96 1.244 . S
O98 C74 1.257 . S
O98 Zn77 2.019 . S
H99 C92 0.930 . S
H100 C79 0.930 . S
H101 C91 0.930 . S
Zn102 N106 2.020 . S
Zn102 O110 2.019 . S
Zn102 N112 2.119 . S
Zn102 O120 1.975 . S
C103 N104 1.334 1_556 S
C103 N107 1.336 . S
N104 C103 1.334 1_554 S
N104 C105 1.334 1_554 S
C105 N104 1.334 1_556 S
C105 N106 1.336 . S
N106 Zn102 2.020 . S
N106 C105 1.336 . S
N106 N107 1.354 . S
N107 C103 1.336 . S
N107 N106 1.354 . S
N107 Zn111 2.020 . S
C108 O109 1.244 . S
C108 O132 1.257 . S
O109 C108 1.244 . S
O110 Zn102 2.019 . S
O110 C130 1.257 . S
Zn111 N107 2.020 . S
Zn111 O118 1.975 . S
Zn111 N127 2.119 . S
Zn111 O132 2.019 . S
N112 Zn102 2.119 . S
N112 C114 1.334 . S
N112 C115 1.328 . S
C113 C114 1.391 . S
C113 N116 1.329 . S
C113 H134 0.930 . S
C114 N112 1.334 . S
C114 C113 1.391 . S
C114 H121 0.930 . S
C115 N112 1.328 . S
C115 C117 1.392 . S
C115 H122 0.930 . S
N116 C113 1.329 . S
N116 C117 1.331 . S
C117 C115 1.392 . S
C117 N116 1.331 . S
O118 Zn111 1.975 . S
O118 C119 1.252 . S
C119 O118 1.252 . S
C119 O120 1.252 . S
O120 Zn102 1.975 . S
O120 C119 1.252 . S
H121 C114 0.930 . S
H122 C115 0.930 . S
C123 C124 1.392 . S
C123 N127 1.328 . S
C123 H129 0.930 . S
C124 C123 1.392 . S
C124 N128 1.331 . S
C125 C126 1.391 . S
C125 N128 1.329 . S
C125 H135 0.930 . S
C126 C125 1.391 . S
C126 N127 1.334 . S
C126 H133 0.930 . S
N127 Zn111 2.119 . S
N127 C123 1.328 . S
N127 C126 1.334 . S
N128 C124 1.331 . S
N128 C125 1.329 . S
H129 C123 0.930 . S
C130 O110 1.257 . S
C130 O131 1.244 . S
O131 C130 1.244 . S
O132 C108 1.257 . S
O132 Zn111 2.019 . S
H133 C126 0.930 . S
H134 C113 0.930 . S
H135 C125 0.930 . S
Zn136 N140 2.020 . S
Zn136 O144 2.019 . S
Zn136 N146 2.119 . S
Zn136 O154 1.975 . S
C137 N138 1.334 . S
C137 N141 1.336 . S
N138 C137 1.334 . S
N138 C139 1.334 . S
C139 N138 1.334 . S
C139 N140 1.336 . S
N140 Zn136 2.020 . S
N140 C139 1.336 . S
N140 N141 1.354 . S
N141 C137 1.336 . S
N141 N140 1.354 . S
N141 Zn145 2.020 . S
C142 O143 1.244 . S
C142 O166 1.257 . S
O143 C142 1.244 . S
O144 Zn136 2.019 . S
O144 C164 1.257 . S
Zn145 N141 2.020 . S
Zn145 O152 1.975 . S
Zn145 N161 2.119 . S
Zn145 O166 2.019 . S
N146 Zn136 2.119 . S
N146 C148 1.334 . S
N146 C149 1.328 . S
C147 C148 1.391 . S
C147 N150 1.329 . S
C147 H168 0.930 . S
C148 N146 1.334 . S
C148 C147 1.391 . S
C148 H155 0.930 . S
C149 N146 1.328 . S
C149 C151 1.392 . S
C149 H156 0.930 . S
N150 C147 1.329 . S
N150 C151 1.331 . S
C151 C149 1.392 . S
C151 N150 1.331 . S
O152 Zn145 1.975 . S
O152 C153 1.252 . S
C153 O152 1.252 . S
C153 O154 1.252 . S
O154 Zn136 1.975 . S
O154 C153 1.252 . S
H155 C148 0.930 . S
H156 C149 0.930 . S
C157 C158 1.392 . S
C157 N161 1.328 . S
C157 H163 0.930 . S
C158 C157 1.392 . S
C158 N162 1.331 . S
C159 C160 1.391 . S
C159 N162 1.329 . S
C159 H169 0.930 . S
C160 C159 1.391 . S
C160 N161 1.334 . S
C160 H167 0.930 . S
N161 Zn145 2.119 . S
N161 C157 1.328 . S
N161 C160 1.334 . S
N162 C158 1.331 . S
N162 C159 1.329 . S
H163 C157 0.930 . S
C164 O144 1.257 . S
C164 O165 1.244 . S
O165 C164 1.244 . S
O166 C142 1.257 . S
O166 Zn145 2.019 . S
H167 C160 0.930 . S
H168 C147 0.930 . S
H169 C159 0.930 . S
Zn170 N174 2.020 . S
Zn170 O178 2.019 . S
Zn170 N180 2.119 . S
Zn170 O188 1.975 . S
C171 N172 1.334 . S
C171 N175 1.336 . S
N172 C171 1.334 . S
N172 C173 1.334 . S
C173 N172 1.334 . S
C173 N174 1.336 . S
N174 Zn170 2.020 . S
N174 C173 1.336 . S
N174 N175 1.354 . S
N175 C171 1.336 . S
N175 N174 1.354 . S
N175 Zn179 2.020 . S
C176 O177 1.244 . S
C176 O200 1.257 . S
O177 C176 1.244 . S
O178 Zn170 2.019 . S
O178 C198 1.257 . S
Zn179 N175 2.020 . S
Zn179 O186 1.975 . S
Zn179 N195 2.119 . S
Zn179 O200 2.019 . S
N180 Zn170 2.119 . S
N180 C182 1.334 . S
N180 C183 1.328 . S
C181 C182 1.391 . S
C181 N184 1.329 . S
C181 H202 0.930 . S
C182 N180 1.334 . S
C182 C181 1.391 . S
C182 H189 0.930 . S
C183 N180 1.328 . S
C183 C185 1.392 . S
C183 H190 0.930 . S
N184 C181 1.329 . S
N184 C185 1.331 . S
C185 C183 1.392 . S
C185 N184 1.331 . S
O186 Zn179 1.975 . S
O186 C187 1.252 . S
C187 O186 1.252 . S
C187 O188 1.252 . S
O188 Zn170 1.975 . S
O188 C187 1.252 . S
H189 C182 0.930 . S
H190 C183 0.930 . S
C191 C192 1.392 . S
C191 N195 1.328 . S
C191 H197 0.930 . S
C192 C191 1.392 . S
C192 N196 1.331 . S
C193 C194 1.391 . S
C193 N196 1.329 . S
C193 H203 0.930 . S
C194 C193 1.391 . S
C194 N195 1.334 . S
C194 H201 0.930 . S
N195 Zn179 2.119 . S
N195 C191 1.328 . S
N195 C194 1.334 . S
N196 C192 1.331 . S
N196 C193 1.329 . S
H197 C191 0.930 . S
C198 O178 1.257 . S
C198 O199 1.244 . S
O199 C198 1.244 . S
O200 C176 1.257 . S
O200 Zn179 2.019 . S
H201 C194 0.930 . S
H202 C181 0.930 . S
H203 C193 0.930 . S
Zn204 N208 2.020 . S
Zn204 O212 2.019 . S
Zn204 N214 2.119 . S
Zn204 O222 1.975 . S
C205 N206 1.334 . S
C205 N209 1.336 . S
N206 C205 1.334 . S
N206 C207 1.334 . S
C207 N206 1.334 . S
C207 N208 1.336 . S
N208 Zn204 2.020 . S
N208 C207 1.336 . S
N208 N209 1.354 . S
N209 C205 1.336 . S
N209 N208 1.354 . S
N209 Zn213 2.020 . S
C210 O211 1.244 . S
C210 O234 1.257 . S
O211 C210 1.244 . S
O212 Zn204 2.019 . S
O212 C232 1.257 . S
Zn213 N209 2.020 . S
Zn213 O220 1.975 . S
Zn213 N229 2.119 . S
Zn213 O234 2.019 . S
N214 Zn204 2.119 . S
N214 C216 1.334 . S
N214 C217 1.328 . S
C215 C216 1.391 . S
C215 N218 1.329 . S
C215 H236 0.930 . S
C216 N214 1.334 . S
C216 C215 1.391 . S
C216 H223 0.930 . S
C217 N214 1.328 . S
C217 C219 1.392 . S
C217 H224 0.930 . S
N218 C215 1.329 . S
N218 C219 1.331 . S
C219 C217 1.392 . S
C219 N218 1.331 . S
O220 Zn213 1.975 . S
O220 C221 1.252 . S
C221 O220 1.252 . S
C221 O222 1.252 . S
O222 Zn204 1.975 . S
O222 C221 1.252 . S
H223 C216 0.930 . S
H224 C217 0.930 . S
C225 C226 1.392 . S
C225 N229 1.328 . S
C225 H231 0.930 . S
C226 C225 1.392 . S
C226 N230 1.331 . S
C227 C228 1.391 . S
C227 N230 1.329 . S
C227 H237 0.930 . S
C228 C227 1.391 . S
C228 N229 1.334 . S
C228 H235 0.930 . S
N229 Zn213 2.119 . S
N229 C225 1.328 . S
N229 C228 1.334 . S
N230 C226 1.331 . S
N230 C227 1.329 . S
H231 C225 0.930 . S
C232 O212 1.257 . S
C232 O233 1.244 . S
O233 C232 1.244 . S
O234 C210 1.257 . S
O234 Zn213 2.019 . S
H235 C228 0.930 . S
H236 C215 0.930 . S
H237 C227 0.930 . S
Zn238 N242 2.020 . S
Zn238 O246 2.019 . S
Zn238 N248 2.119 . S
Zn238 O256 1.975 . S
C239 N240 1.334 . S
C239 N243 1.336 . S
N240 C239 1.334 . S
N240 C241 1.334 . S
C241 N240 1.334 . S
C241 N242 1.336 . S
N242 Zn238 2.020 . S
N242 C241 1.336 . S
N242 N243 1.354 . S
N243 C239 1.336 . S
N243 N242 1.354 . S
N243 Zn247 2.020 . S
C244 O245 1.244 . S
C244 O268 1.257 . S
O245 C244 1.244 . S
O246 Zn238 2.019 . S
O246 C266 1.257 . S
Zn247 N243 2.020 . S
Zn247 O254 1.975 . S
Zn247 N263 2.119 . S
Zn247 O268 2.019 . S
N248 Zn238 2.119 . S
N248 C250 1.334 . S
N248 C251 1.328 . S
C249 C250 1.391 . S
C249 N252 1.329 . S
C249 H270 0.930 . S
C250 N248 1.334 . S
C250 C249 1.391 . S
C250 H257 0.930 . S
C251 N248 1.328 . S
C251 C253 1.392 . S
C251 H258 0.930 . S
N252 C249 1.329 . S
N252 C253 1.331 . S
C253 C251 1.392 . S
C253 N252 1.331 . S
O254 Zn247 1.975 . S
O254 C255 1.252 . S
C255 O254 1.252 . S
C255 O256 1.252 . S
O256 Zn238 1.975 . S
O256 C255 1.252 . S
H257 C250 0.930 . S
H258 C251 0.930 . S
C259 C260 1.392 . S
C259 N263 1.328 . S
C259 H265 0.930 . S
C260 C259 1.392 . S
C260 N264 1.331 . S
C261 C262 1.391 . S
C261 N264 1.329 . S
C261 H271 0.930 . S
C262 C261 1.391 . S
C262 N263 1.334 . S
C262 H269 0.930 . S
N263 Zn247 2.119 . S
N263 C259 1.328 . S
N263 C262 1.334 . S
N264 C260 1.331 . S
N264 C261 1.329 . S
H265 C259 0.930 . S
C266 O246 1.257 . S
C266 O267 1.244 . S
O267 C266 1.244 . S
O268 C244 1.257 . S
O268 Zn247 2.019 . S
H269 C262 0.930 . S
H270 C249 0.930 . S
H271 C261 0.930 . S
Zn272 N276 2.020 . S
Zn272 O280 2.019 . S
Zn272 N282 2.119 . S
Zn272 O290 1.975 . S
C273 N274 1.334 . S
C273 N277 1.336 . S
N274 C273 1.334 . S
N274 C275 1.334 . S
C275 N274 1.334 . S
C275 N276 1.336 . S
N276 Zn272 2.020 . S
N276 C275 1.336 . S
N276 N277 1.354 . S
N277 C273 1.336 . S
N277 N276 1.354 . S
N277 Zn281 2.020 . S
C278 O279 1.244 . S
C278 O302 1.257 . S
O279 C278 1.244 . S
O280 Zn272 2.019 . S
O280 C300 1.257 . S
Zn281 N277 2.020 . S
Zn281 O288 1.975 . S
Zn281 N297 2.119 . S
Zn281 O302 2.019 . S
N282 Zn272 2.119 . S
N282 C284 1.334 . S
N282 C285 1.328 . S
C283 C284 1.391 . S
C283 N286 1.329 . S
C283 H304 0.930 . S
C284 N282 1.334 . S
C284 C283 1.391 . S
C284 H291 0.930 . S
C285 N282 1.328 . S
C285 C287 1.392 . S
C285 H292 0.930 . S
N286 C283 1.329 . S
N286 C287 1.331 . S
C287 C285 1.392 . S
C287 N286 1.331 . S
O288 Zn281 1.975 . S
O288 C289 1.252 . S
C289 O288 1.252 . S
C289 O290 1.252 . S
O290 Zn272 1.975 . S
O290 C289 1.252 . S
H291 C284 0.930 . S
H292 C285 0.930 . S
C293 C294 1.392 . S
C293 N297 1.328 . S
C293 H299 0.930 . S
C294 C293 1.392 . S
C294 N298 1.331 . S
C295 C296 1.391 . S
C295 N298 1.329 . S
C295 H305 0.930 . S
C296 C295 1.391 . S
C296 N297 1.334 . S
C296 H303 0.930 . S
N297 Zn281 2.119 . S
N297 C293 1.328 . S
N297 C296 1.334 . S
N298 C294 1.331 . S
N298 C295 1.329 . S
H299 C293 0.930 . S
C300 O280 1.257 . S
C300 O301 1.244 . S
O301 C300 1.244 . S
O302 C278 1.257 . S
O302 Zn281 2.019 . S
H303 C296 0.930 . S
H304 C283 0.930 . S
H305 C295 0.930 . S
Zn306 N310 2.020 . S
Zn306 O314 2.019 . S
Zn306 N316 2.119 . S
Zn306 O324 1.975 . S
C307 N308 1.334 . S
C307 N311 1.336 . S
N308 C307 1.334 . S
N308 C309 1.334 . S
C309 N308 1.334 . S
C309 N310 1.336 . S
N310 Zn306 2.020 . S
N310 C309 1.336 . S
N310 N311 1.354 . S
N311 C307 1.336 . S
N311 N310 1.354 . S
N311 Zn315 2.020 . S
C312 O313 1.244 . S
C312 O336 1.257 . S
O313 C312 1.244 . S
O314 Zn306 2.019 . S
O314 C334 1.257 . S
Zn315 N311 2.020 . S
Zn315 O322 1.975 . S
Zn315 N331 2.119 . S
Zn315 O336 2.019 . S
N316 Zn306 2.119 . S
N316 C318 1.334 . S
N316 C319 1.328 . S
C317 C318 1.391 . S
C317 N320 1.329 . S
C317 H338 0.930 . S
C318 N316 1.334 . S
C318 C317 1.391 . S
C318 H325 0.930 . S
C319 N316 1.328 . S
C319 C321 1.392 . S
C319 H326 0.930 . S
N320 C317 1.329 . S
N320 C321 1.331 . S
C321 C319 1.392 . S
C321 N320 1.331 . S
O322 Zn315 1.975 . S
O322 C323 1.252 . S
C323 O322 1.252 . S
C323 O324 1.252 . S
O324 Zn306 1.975 . S
O324 C323 1.252 . S
H325 C318 0.930 . S
H326 C319 0.930 . S
C327 C328 1.392 . S
C327 N331 1.328 . S
C327 H333 0.930 . S
C328 C327 1.392 . S
C328 N332 1.331 . S
C329 C330 1.391 . S
C329 N332 1.329 . S
C329 H339 0.930 . S
C330 C329 1.391 . S
C330 N331 1.334 . S
C330 H337 0.930 . S
N331 Zn315 2.119 . S
N331 C327 1.328 . S
N331 C330 1.334 . S
N332 C328 1.331 . S
N332 C329 1.329 . S
H333 C327 0.930 . S
C334 O314 1.257 . S
C334 O335 1.244 . S
O335 C334 1.244 . S
O336 C312 1.257 . S
O336 Zn315 2.019 . S
H337 C330 0.930 . S
H338 C317 0.930 . S
H339 C329 0.930 . S
Zn340 N344 2.020 . S
Zn340 O348 2.019 . S
Zn340 N350 2.119 . S
Zn340 O358 1.975 . S
C341 N342 1.334 . S
C341 N345 1.336 . S
N342 C341 1.334 . S
N342 C343 1.334 . S
C343 N342 1.334 . S
C343 N344 1.336 . S
N344 Zn340 2.020 . S
N344 C343 1.336 . S
N344 N345 1.354 . S
N345 C341 1.336 . S
N345 N344 1.354 . S
N345 Zn349 2.020 . S
C346 O347 1.244 . S
C346 O370 1.257 . S
O347 C346 1.244 . S
O348 Zn340 2.019 . S
O348 C368 1.257 . S
Zn349 N345 2.020 . S
Zn349 O356 1.975 . S
Zn349 N365 2.119 . S
Zn349 O370 2.019 . S
N350 Zn340 2.119 . S
N350 C352 1.334 . S
N350 C353 1.328 . S
C351 C352 1.391 . S
C351 N354 1.329 . S
C351 H372 0.930 . S
C352 N350 1.334 . S
C352 C351 1.391 . S
C352 H359 0.930 . S
C353 N350 1.328 . S
C353 C355 1.392 . S
C353 H360 0.930 . S
N354 C351 1.329 . S
N354 C355 1.331 . S
C355 C353 1.392 . S
C355 N354 1.331 . S
O356 Zn349 1.975 . S
O356 C357 1.252 . S
C357 O356 1.252 . S
C357 O358 1.252 . S
O358 Zn340 1.975 . S
O358 C357 1.252 . S
H359 C352 0.930 . S
H360 C353 0.930 . S
C361 C362 1.392 . S
C361 N365 1.328 . S
C361 H367 0.930 . S
C362 C361 1.392 . S
C362 N366 1.331 . S
C363 C364 1.391 . S
C363 N366 1.329 . S
C363 H373 0.930 . S
C364 C363 1.391 . S
C364 N365 1.334 . S
C364 H371 0.930 . S
N365 Zn349 2.119 . S
N365 C361 1.328 . S
N365 C364 1.334 . S
N366 C362 1.331 . S
N366 C363 1.329 . S
H367 C361 0.930 . S
C368 O348 1.257 . S
C368 O369 1.244 . S
O369 C368 1.244 . S
O370 C346 1.257 . S
O370 Zn349 2.019 . S
H371 C364 0.930 . S
H372 C351 0.930 . S
H373 C363 0.930 . S
Zn374 N378 2.020 . S
Zn374 O382 2.019 . S
Zn374 N384 2.119 . S
Zn374 O392 1.975 . S
C375 N376 1.334 . S
C375 N379 1.336 . S
N376 C375 1.334 . S
N376 C377 1.334 . S
C377 N376 1.334 . S
C377 N378 1.336 . S
N378 Zn374 2.020 . S
N378 C377 1.336 . S
N378 N379 1.354 . S
N379 C375 1.336 . S
N379 N378 1.354 . S
N379 Zn383 2.020 . S
C380 O381 1.244 . S
C380 O404 1.257 . S
O381 C380 1.244 . S
O382 Zn374 2.019 . S
O382 C402 1.257 . S
Zn383 N379 2.020 . S
Zn383 O390 1.975 . S
Zn383 N399 2.119 . S
Zn383 O404 2.019 . S
N384 Zn374 2.119 . S
N384 C386 1.334 . S
N384 C387 1.328 . S
C385 C386 1.391 . S
C385 N388 1.329 . S
C385 H406 0.930 . S
C386 N384 1.334 . S
C386 C385 1.391 . S
C386 H393 0.930 . S
C387 N384 1.328 . S
C387 C389 1.392 . S
C387 H394 0.930 . S
N388 C385 1.329 . S
N388 C389 1.331 . S
C389 C387 1.392 . S
C389 N388 1.331 . S
O390 Zn383 1.975 . S
O390 C391 1.252 . S
C391 O390 1.252 . S
C391 O392 1.252 . S
O392 Zn374 1.975 . S
O392 C391 1.252 . S
H393 C386 0.930 . S
H394 C387 0.930 . S
C395 C396 1.392 . S
C395 N399 1.328 . S
C395 H401 0.930 . S
C396 C395 1.392 . S
C396 N400 1.331 . S
C397 C398 1.391 . S
C397 N400 1.329 . S
C397 H407 0.930 . S
C398 C397 1.391 . S
C398 N399 1.334 . S
C398 H405 0.930 . S
N399 Zn383 2.119 . S
N399 C395 1.328 . S
N399 C398 1.334 . S
N400 C396 1.331 . S
N400 C397 1.329 . S
H401 C395 0.930 . S
C402 O382 1.257 . S
C402 O403 1.244 . S
O403 C402 1.244 . S
O404 C380 1.257 . S
O404 Zn383 2.019 . S
H405 C398 0.930 . S
H406 C385 0.930 . S
H407 C397 0.930 . S
Zn408 N412 2.020 . S
Zn408 O416 2.019 . S
Zn408 N418 2.119 . S
Zn408 O426 1.975 . S
C409 N410 1.334 . S
C409 N413 1.336 . S
N410 C409 1.334 . S
N410 C411 1.334 . S
C411 N410 1.334 . S
C411 N412 1.336 . S
N412 Zn408 2.020 . S
N412 C411 1.336 . S
N412 N413 1.354 . S
N413 C409 1.336 . S
N413 N412 1.354 . S
N413 Zn417 2.020 . S
C414 O415 1.244 . S
C414 O438 1.257 . S
O415 C414 1.244 . S
O416 Zn408 2.019 . S
O416 C436 1.257 . S
Zn417 N413 2.020 . S
Zn417 O424 1.975 . S
Zn417 N433 2.119 . S
Zn417 O438 2.019 . S
N418 Zn408 2.119 . S
N418 C420 1.334 . S
N418 C421 1.328 . S
C419 C420 1.391 . S
C419 N422 1.329 . S
C419 H440 0.930 . S
C420 N418 1.334 . S
C420 C419 1.391 . S
C420 H427 0.930 . S
C421 N418 1.328 . S
C421 C423 1.392 . S
C421 H428 0.930 . S
N422 C419 1.329 . S
N422 C423 1.331 . S
C423 C421 1.392 . S
C423 N422 1.331 . S
O424 Zn417 1.975 . S
O424 C425 1.252 . S
C425 O424 1.252 . S
C425 O426 1.252 . S
O426 Zn408 1.975 . S
O426 C425 1.252 . S
H427 C420 0.930 . S
H428 C421 0.930 . S
C429 C430 1.392 . S
C429 N433 1.328 . S
C429 H435 0.930 . S
C430 C429 1.392 . S
C430 N434 1.331 . S
C431 C432 1.391 . S
C431 N434 1.329 . S
C431 H441 0.930 . S
C432 C431 1.391 . S
C432 N433 1.334 . S
C432 H439 0.930 . S
N433 Zn417 2.119 . S
N433 C429 1.328 . S
N433 C432 1.334 . S
N434 C430 1.331 . S
N434 C431 1.329 . S
H435 C429 0.930 . S
C436 O416 1.257 . S
C436 O437 1.244 . S
O437 C436 1.244 . S
O438 C414 1.257 . S
O438 Zn417 2.019 . S
H439 C432 0.930 . S
H440 C419 0.930 . S
H441 C431 0.930 . S
Zn442 N446 2.020 . S
Zn442 O450 2.019 . S
Zn442 N452 2.119 . S
Zn442 O460 1.975 . S
C443 N444 1.334 . S
C443 N447 1.336 . S
N444 C443 1.334 . S
N444 C445 1.334 . S
C445 N444 1.334 . S
C445 N446 1.336 . S
N446 Zn442 2.020 . S
N446 C445 1.336 . S
N446 N447 1.354 . S
N447 C443 1.336 . S
N447 N446 1.354 . S
N447 Zn451 2.020 . S
C448 O449 1.244 . S
C448 O472 1.257 . S
O449 C448 1.244 . S
O450 Zn442 2.019 . S
O450 C470 1.257 . S
Zn451 N447 2.020 . S
Zn451 O458 1.975 . S
Zn451 N467 2.119 . S
Zn451 O472 2.019 . S
N452 Zn442 2.119 . S
N452 C454 1.334 . S
N452 C455 1.328 . S
C453 C454 1.391 . S
C453 N456 1.329 . S
C453 H474 0.930 . S
C454 N452 1.334 . S
C454 C453 1.391 . S
C454 H461 0.930 . S
C455 N452 1.328 . S
C455 C457 1.392 . S
C455 H462 0.930 . S
N456 C453 1.329 . S
N456 C457 1.331 . S
C457 C455 1.392 . S
C457 N456 1.331 . S
O458 Zn451 1.975 . S
O458 C459 1.252 . S
C459 O458 1.252 . S
C459 O460 1.252 . S
O460 Zn442 1.975 . S
O460 C459 1.252 . S
H461 C454 0.930 . S
H462 C455 0.930 . S
C463 C464 1.392 . S
C463 N467 1.328 . S
C463 H469 0.930 . S
C464 C463 1.392 . S
C464 N468 1.331 . S
C465 C466 1.391 . S
C465 N468 1.329 . S
C465 H475 0.930 . S
C466 C465 1.391 . S
C466 N467 1.334 . S
C466 H473 0.930 . S
N467 Zn451 2.119 . S
N467 C463 1.328 . S
N467 C466 1.334 . S
N468 C464 1.331 . S
N468 C465 1.329 . S
H469 C463 0.930 . S
C470 O450 1.257 . S
C470 O471 1.244 . S
O471 C470 1.244 . S
O472 C448 1.257 . S
O472 Zn451 2.019 . S
H473 C466 0.930 . S
H474 C453 0.930 . S
H475 C465 0.930 . S
Zn476 N480 2.020 . S
Zn476 O484 2.019 . S
Zn476 N486 2.119 . S
Zn476 O494 1.975 . S
C477 N478 1.334 . S
C477 N481 1.336 . S
N478 C477 1.334 . S
N478 C479 1.334 . S
C479 N478 1.334 . S
C479 N480 1.336 . S
N480 Zn476 2.020 . S
N480 C479 1.336 . S
N480 N481 1.354 . S
N481 C477 1.336 . S
N481 N480 1.354 . S
N481 Zn485 2.020 . S
C482 O483 1.244 . S
C482 O506 1.257 . S
O483 C482 1.244 . S
O484 Zn476 2.019 . S
O484 C504 1.257 . S
Zn485 N481 2.020 . S
Zn485 O492 1.975 . S
Zn485 N501 2.119 . S
Zn485 O506 2.019 . S
N486 Zn476 2.119 . S
N486 C488 1.334 . S
N486 C489 1.328 . S
C487 C488 1.391 . S
C487 N490 1.329 . S
C487 H508 0.930 . S
C488 N486 1.334 . S
C488 C487 1.391 . S
C488 H495 0.930 . S
C489 N486 1.328 . S
C489 C491 1.392 . S
C489 H496 0.930 . S
N490 C487 1.329 . S
N490 C491 1.331 . S
C491 C489 1.392 . S
C491 N490 1.331 . S
O492 Zn485 1.975 . S
O492 C493 1.252 . S
C493 O492 1.252 . S
C493 O494 1.252 . S
O494 Zn476 1.975 . S
O494 C493 1.252 . S
H495 C488 0.930 . S
H496 C489 0.930 . S
C497 C498 1.392 . S
C497 N501 1.328 . S
C497 H503 0.930 . S
C498 C497 1.392 . S
C498 N502 1.331 . S
C499 C500 1.391 . S
C499 N502 1.329 . S
C499 H509 0.930 . S
C500 C499 1.391 . S
C500 N501 1.334 . S
C500 H507 0.930 . S
N501 Zn485 2.119 . S
N501 C497 1.328 . S
N501 C500 1.334 . S
N502 C498 1.331 . S
N502 C499 1.329 . S
H503 C497 0.930 . S
C504 O484 1.257 . S
C504 O505 1.244 . S
O505 C504 1.244 . S
O506 C482 1.257 . S
O506 Zn485 2.019 . S
H507 C500 0.930 . S
H508 C487 0.930 . S
H509 C499 0.930 . S
Zn510 N514 2.020 . S
Zn510 O518 2.019 . S
Zn510 N520 2.119 . S
Zn510 O528 1.975 . S
C511 N512 1.334 . S
C511 N515 1.336 . S
N512 C511 1.334 . S
N512 C513 1.334 . S
C513 N512 1.334 . S
C513 N514 1.336 . S
N514 Zn510 2.020 . S
N514 C513 1.336 . S
N514 N515 1.354 . S
N515 C511 1.336 . S
N515 N514 1.354 . S
N515 Zn519 2.020 . S
C516 O517 1.244 . S
C516 O540 1.257 . S
O517 C516 1.244 . S
O518 Zn510 2.019 . S
O518 C538 1.257 . S
Zn519 N515 2.020 . S
Zn519 O526 1.975 . S
Zn519 N535 2.119 . S
Zn519 O540 2.019 . S
N520 Zn510 2.119 . S
N520 C522 1.334 . S
N520 C523 1.328 . S
C521 C522 1.391 . S
C521 N524 1.329 . S
C521 H542 0.930 . S
C522 N520 1.334 . S
C522 C521 1.391 . S
C522 H529 0.930 . S
C523 N520 1.328 . S
C523 C525 1.392 . S
C523 H530 0.930 . S
N524 C521 1.329 . S
N524 C525 1.331 . S
C525 C523 1.392 . S
C525 N524 1.331 . S
O526 Zn519 1.975 . S
O526 C527 1.252 . S
C527 O526 1.252 . S
C527 O528 1.252 . S
O528 Zn510 1.975 . S
O528 C527 1.252 . S
H529 C522 0.930 . S
H530 C523 0.930 . S
C531 C532 1.392 . S
C531 N535 1.328 . S
C531 H537 0.930 . S
C532 C531 1.392 . S
C532 N536 1.331 . S
C533 C534 1.391 . S
C533 N536 1.329 . S
C533 H543 0.930 . S
C534 C533 1.391 . S
C534 N535 1.334 . S
C534 H541 0.930 . S
N535 Zn519 2.119 . S
N535 C531 1.328 . S
N535 C534 1.334 . S
N536 C532 1.331 . S
N536 C533 1.329 . S
H537 C531 0.930 . S
C538 O518 1.257 . S
C538 O539 1.244 . S
O539 C538 1.244 . S
O540 C516 1.257 . S
O540 Zn519 2.019 . S
H541 C534 0.930 . S
H542 C521 0.930 . S
H543 C533 0.930 . S
C544 C545 1.349 . S
C544 C546 1.327 . S
C544 H569 0.950 . S
C545 C544 1.349 . S
C545 C561 1.349 . S
C546 C544 1.327 . S
C546 C565 1.429 . S
C546 H570 0.950 . S
C547 C564 1.574 . S
C547 C566 1.368 . S
C547 H571 0.949 . S
H548 C552 0.949 . S
C549 C550 1.349 . S
C549 C551 1.327 . S
C549 H572 0.950 . S
C550 C549 1.349 . S
C550 C562 1.349 . S
C551 C549 1.327 . S
C551 C567 1.429 . S
C551 H573 0.950 . S
C552 H548 0.949 . S
C552 C560 1.574 . S
C552 C568 1.368 . S
H553 C561 0.950 . S
H554 C559 0.950 . S
H555 C560 0.949 . S
H556 C562 0.950 . S
H557 C563 0.950 . S
H558 C564 0.949 . S
C559 H554 0.950 . S
C559 C561 1.327 . S
C559 C565 1.429 . S
C560 C552 1.574 . S
C560 H555 0.949 . S
C560 C566 1.368 1_545 S
C561 C545 1.349 . S
C561 H553 0.950 . S
C561 C559 1.327 . S
C562 C550 1.349 . S
C562 H556 0.950 . S
C562 C563 1.327 . S
C563 H557 0.950 . S
C563 C562 1.327 . S
C563 C567 1.429 . S
C564 C547 1.574 . S
C564 H558 0.949 . S
C564 C568 1.368 1_565 S
C565 C546 1.429 . S
C565 C559 1.429 . S
C565 C566 1.523 . S
C566 C547 1.368 . S
C566 C560 1.368 1_565 S
C566 C565 1.523 . S
C567 C551 1.429 . S
C567 C563 1.429 . S
C567 C568 1.523 . S
C568 C552 1.368 . S
C568 C564 1.368 1_545 S
C568 C567 1.523 . S
H569 C544 0.950 . S
H570 C546 0.950 . S
H571 C547 0.949 . S
H572 C549 0.950 . S
H573 C551 0.950 . S
C574 C575 1.349 . S
C574 C576 1.327 . S
C574 H599 0.950 . S
C575 C574 1.349 . S
C575 C591 1.349 . S
C576 C574 1.327 . S
C576 C595 1.429 . S
C576 H600 0.950 . S
C577 C594 1.574 . S
C577 C596 1.368 . S
C577 H601 0.949 . S
H578 C582 0.949 . S
C579 C580 1.349 . S
C579 C581 1.327 . S
C579 H602 0.950 . S
C580 C579 1.349 . S
C580 C592 1.349 . S
C581 C579 1.327 . S
C581 C597 1.429 . S
C581 H603 0.950 . S
C582 H578 0.949 . S
C582 C590 1.574 . S
C582 C598 1.368 . S
H583 C591 0.950 . S
H584 C589 0.950 . S
H585 C590 0.949 . S
H586 C592 0.950 . S
H587 C593 0.950 . S
H588 C594 0.949 . S
C589 H584 0.950 . S
C589 C591 1.327 . S
C589 C595 1.429 . S
C590 C582 1.574 . S
C590 H585 0.949 . S
C590 C596 1.368 1_455 S
C591 C575 1.349 . S
C591 H583 0.950 . S
C591 C589 1.327 . S
C592 C580 1.349 . S
C592 H586 0.950 . S
C592 C593 1.327 . S
C593 H587 0.950 . S
C593 C592 1.327 . S
C593 C597 1.429 . S
C594 C577 1.574 . S
C594 H588 0.949 . S
C594 C598 1.368 1_655 S
C595 C576 1.429 . S
C595 C589 1.429 . S
C595 C596 1.523 . S
C596 C577 1.368 . S
C596 C590 1.368 1_655 S
C596 C595 1.523 . S
C597 C581 1.429 . S
C597 C593 1.429 . S
C597 C598 1.523 . S
C598 C582 1.368 . S
C598 C594 1.368 1_455 S
C598 C597 1.523 . S
H599 C574 0.950 . S
H600 C576 0.950 . S
H601 C577 0.949 . S
H602 C579 0.950 . S
H603 C581 0.950 . S
C604 C605 1.349 . S
C604 C606 1.327 . S
C604 H629 0.950 . S
C605 C604 1.349 . S
C605 C621 1.349 . S
C606 C604 1.327 . S
C606 C625 1.429 . S
C606 H630 0.950 . S
C607 C624 1.574 . S
C607 C626 1.368 . S
C607 H631 0.949 . S
H608 C612 0.949 . S
C609 C610 1.349 . S
C609 C611 1.327 . S
C609 H632 0.950 . S
C610 C609 1.349 . S
C610 C622 1.349 . S
C611 C609 1.327 . S
C611 C627 1.429 . S
C611 H633 0.950 . S
C612 H608 0.949 . S
C612 C620 1.574 . S
C612 C628 1.368 . S
H613 C621 0.950 . S
H614 C619 0.950 . S
H615 C620 0.949 . S
H616 C622 0.950 . S
H617 C623 0.950 . S
H618 C624 0.949 . S
C619 H614 0.950 . S
C619 C621 1.327 . S
C619 C625 1.429 . S
C620 C612 1.574 . S
C620 H615 0.949 . S
C620 C626 1.368 . S
C621 C605 1.349 . S
C621 H613 0.950 . S
C621 C619 1.327 . S
C622 C610 1.349 . S
C622 H616 0.950 . S
C622 C623 1.327 . S
C623 H617 0.950 . S
C623 C622 1.327 . S
C623 C627 1.429 . S
C624 C607 1.574 . S
C624 H618 0.949 . S
C624 C628 1.368 . S
C625 C606 1.429 . S
C625 C619 1.429 . S
C625 C626 1.523 . S
C626 C607 1.368 . S
C626 C620 1.368 . S
C626 C625 1.523 . S
C627 C611 1.429 . S
C627 C623 1.429 . S
C627 C628 1.523 . S
C628 C612 1.368 . S
C628 C624 1.368 . S
C628 C627 1.523 . S
H629 C604 0.950 . S
H630 C606 0.950 . S
H631 C607 0.949 . S
H632 C609 0.950 . S
H633 C611 0.950 . S
C634 C635 1.349 . S
C634 C636 1.327 . S
C634 H659 0.950 . S
C635 C634 1.349 . S
C635 C651 1.349 . S
C636 C634 1.327 . S
C636 C655 1.429 . S
C636 H660 0.950 . S
C637 C654 1.574 . S
C637 C656 1.368 . S
C637 H661 0.949 . S
H638 C642 0.949 . S
C639 C640 1.349 . S
C639 C641 1.327 . S
C639 H662 0.950 . S
C640 C639 1.349 . S
C640 C652 1.349 . S
C641 C639 1.327 . S
C641 C657 1.429 . S
C641 H663 0.950 . S
C642 H638 0.949 . S
C642 C650 1.574 . S
C642 C658 1.368 . S
H643 C651 0.950 . S
H644 C649 0.950 . S
H645 C650 0.949 . S
H646 C652 0.950 . S
H647 C653 0.950 . S
H648 C654 0.949 . S
C649 H644 0.950 . S
C649 C651 1.327 . S
C649 C655 1.429 . S
C650 C642 1.574 . S
C650 H645 0.949 . S
C650 C656 1.368 . S
C651 C635 1.349 . S
C651 H643 0.950 . S
C651 C649 1.327 . S
C652 C640 1.349 . S
C652 H646 0.950 . S
C652 C653 1.327 . S
C653 H647 0.950 . S
C653 C652 1.327 . S
C653 C657 1.429 . S
C654 C637 1.574 . S
C654 H648 0.949 . S
C654 C658 1.368 . S
C655 C636 1.429 . S
C655 C649 1.429 . S
C655 C656 1.523 . S
C656 C637 1.368 . S
C656 C650 1.368 . S
C656 C655 1.523 . S
C657 C641 1.429 . S
C657 C653 1.429 . S
C657 C658 1.523 . S
C658 C642 1.368 . S
C658 C654 1.368 . S
C658 C657 1.523 . S
H659 C634 0.950 . S
H660 C636 0.950 . S
H661 C637 0.949 . S
H662 C639 0.950 . S
H663 C641 0.950 . S
C664 C665 1.349 . S
C664 C666 1.327 . S
C664 H689 0.950 . S
C665 C664 1.349 . S
C665 C681 1.349 . S
C666 C664 1.327 . S
C666 C685 1.429 . S
C666 H690 0.950 . S
C667 C684 1.574 1_655 S
C667 C686 1.368 . S
C667 H691 0.949 . S
H668 C672 0.949 . S
C669 C670 1.349 . S
C669 C671 1.327 . S
C669 H692 0.950 . S
C670 C669 1.349 . S
C670 C682 1.349 . S
C671 C669 1.327 . S
C671 C687 1.429 . S
C671 H693 0.950 . S
C672 H668 0.949 . S
C672 C680 1.574 1_455 S
C672 C688 1.368 . S
H673 C681 0.950 . S
H674 C679 0.950 . S
H675 C680 0.949 . S
H676 C682 0.950 . S
H677 C683 0.950 . S
H678 C684 0.949 . S
C679 H674 0.950 . S
C679 C681 1.327 . S
C679 C685 1.429 . S
C680 C672 1.574 1_655 S
C680 H675 0.949 . S
C680 C686 1.368 . S
C681 C665 1.349 . S
C681 H673 0.950 . S
C681 C679 1.327 . S
C682 C670 1.349 . S
C682 H676 0.950 . S
C682 C683 1.327 . S
C683 H677 0.950 . S
C683 C682 1.327 . S
C683 C687 1.429 . S
C684 C667 1.574 1_455 S
C684 H678 0.949 . S
C684 C688 1.368 . S
C685 C666 1.429 . S
C685 C679 1.429 . S
C685 C686 1.523 . S
C686 C667 1.368 . S
C686 C680 1.368 . S
C686 C685 1.523 . S
C687 C671 1.429 . S
C687 C683 1.429 . S
C687 C688 1.523 . S
C688 C672 1.368 . S
C688 C684 1.368 . S
C688 C687 1.523 . S
H689 C664 0.950 . S
H690 C666 0.950 . S
H691 C667 0.949 . S
H692 C669 0.950 . S
H693 C671 0.950 . S
C694 C695 1.349 . S
C694 C696 1.327 . S
C694 H719 0.950 . S
C695 C694 1.349 . S
C695 C711 1.349 . S
C696 C694 1.327 . S
C696 C715 1.429 . S
C696 H720 0.950 . S
C697 C714 1.574 1_565 S
C697 C716 1.368 . S
C697 H721 0.949 . S
H698 C702 0.949 . S
C699 C700 1.349 . S
C699 C701 1.327 . S
C699 H722 0.950 . S
C700 C699 1.349 . S
C700 C712 1.349 . S
C701 C699 1.327 . S
C701 C717 1.429 . S
C701 H723 0.950 . S
C702 H698 0.949 . S
C702 C710 1.574 1_545 S
C702 C718 1.368 . S
H703 C711 0.950 . S
H704 C709 0.950 . S
H705 C710 0.949 . S
H706 C712 0.950 . S
H707 C713 0.950 . S
H708 C714 0.949 . S
C709 H704 0.950 . S
C709 C711 1.327 . S
C709 C715 1.429 . S
C710 C702 1.574 1_565 S
C710 H705 0.949 . S
C710 C716 1.368 . S
C711 C695 1.349 . S
C711 H703 0.950 . S
C711 C709 1.327 . S
C712 C700 1.349 . S
C712 H706 0.950 . S
C712 C713 1.327 . S
C713 H707 0.950 . S
C713 C712 1.327 . S
C713 C717 1.429 . S
C714 C697 1.574 1_545 S
C714 H708 0.949 . S
C714 C718 1.368 . S
C715 C696 1.429 . S
C715 C709 1.429 . S
C715 C716 1.523 . S
C716 C697 1.368 . S
C716 C710 1.368 . S
C716 C715 1.523 . S
C717 C701 1.429 . S
C717 C713 1.429 . S
C717 C718 1.523 . S
C718 C702 1.368 . S
C718 C714 1.368 . S
C718 C717 1.523 . S
H719 C694 0.950 . S
H720 C696 0.950 . S
H721 C697 0.949 . S
H722 C699 0.950 . S
H723 C701 0.950 . S
C724 C725 1.349 . S
C724 C726 1.327 . S
C724 H749 0.950 . S
C725 C724 1.349 . S
C725 C741 1.349 . S
C726 C724 1.327 . S
C726 C745 1.429 . S
C726 H750 0.950 . S
C727 C744 1.574 1_655 S
C727 C746 1.368 1_545 S
C727 H751 0.949 . S
H728 C732 0.949 . S
C729 C730 1.349 . S
C729 C731 1.327 . S
C729 H752 0.950 . S
C730 C729 1.349 . S
C730 C742 1.349 . S
C731 C729 1.327 . S
C731 C747 1.429 . S
C731 H753 0.950 . S
C732 H728 0.949 . S
C732 C740 1.574 1_455 S
C732 C748 1.368 1_565 S
H733 C741 0.950 . S
H734 C739 0.950 . S
H735 C740 0.949 . S
H736 C742 0.950 . S
H737 C743 0.950 . S
H738 C744 0.949 . S
C739 H734 0.950 . S
C739 C741 1.327 . S
C739 C745 1.429 . S
C740 C732 1.574 1_655 S
C740 H735 0.949 . S
C740 C746 1.368 . S
C741 C725 1.349 . S
C741 H733 0.950 . S
C741 C739 1.327 . S
C742 C730 1.349 . S
C742 H736 0.950 . S
C742 C743 1.327 . S
C743 H737 0.950 . S
C743 C742 1.327 . S
C743 C747 1.429 . S
C744 C727 1.574 1_455 S
C744 H738 0.949 . S
C744 C748 1.368 . S
C745 C726 1.429 . S
C745 C739 1.429 . S
C745 C746 1.523 . S
C746 C727 1.368 1_565 S
C746 C740 1.368 . S
C746 C745 1.523 . S
C747 C731 1.429 . S
C747 C743 1.429 . S
C747 C748 1.523 . S
C748 C732 1.368 1_545 S
C748 C744 1.368 . S
C748 C747 1.523 . S
H749 C724 0.950 . S
H750 C726 0.950 . S
H751 C727 0.949 . S
H752 C729 0.950 . S
H753 C731 0.950 . S
C754 C755 1.349 . S
C754 C756 1.327 . S
C754 H779 0.950 . S
C755 C754 1.349 . S
C755 C771 1.349 . S
C756 C754 1.327 . S
C756 C775 1.429 . S
C756 H780 0.950 . S
C757 C774 1.574 1_565 S
C757 C776 1.368 . S
C757 H781 0.949 . S
H758 C762 0.949 . S
C759 C760 1.349 . S
C759 C761 1.327 . S
C759 H782 0.950 . S
C760 C759 1.349 . S
C760 C772 1.349 . S
C761 C759 1.327 . S
C761 C777 1.429 . S
C761 H783 0.950 . S
C762 H758 0.949 . S
C762 C770 1.574 1_545 S
C762 C778 1.368 . S
H763 C771 0.950 . S
H764 C769 0.950 . S
H765 C770 0.949 . S
H766 C772 0.950 . S
H767 C773 0.950 . S
H768 C774 0.949 . S
C769 H764 0.950 . S
C769 C771 1.327 . S
C769 C775 1.429 . S
C770 C762 1.574 1_565 S
C770 H765 0.949 . S
C770 C776 1.368 1_655 S
C771 C755 1.349 . S
C771 H763 0.950 . S
C771 C769 1.327 . S
C772 C760 1.349 . S
C772 H766 0.950 . S
C772 C773 1.327 . S
C773 H767 0.950 . S
C773 C772 1.327 . S
C773 C777 1.429 . S
C774 C757 1.574 1_545 S
C774 H768 0.949 . S
C774 C778 1.368 1_455 S
C775 C756 1.429 . S
C775 C769 1.429 . S
C775 C776 1.523 . S
C776 C757 1.368 . S
C776 C770 1.368 1_455 S
C776 C775 1.523 . S
C777 C761 1.429 . S
C777 C773 1.429 . S
C777 C778 1.523 . S
C778 C762 1.368 . S
C778 C774 1.368 1_655 S
C778 C777 1.523 . S
H779 C754 0.950 . S
H780 C756 0.950 . S
H781 C757 0.949 . S
H782 C759 0.950 . S
H783 C761 0.950 . S
C784 C785 1.349 . S
C784 C786 1.327 . S
C784 H809 0.950 . S
C785 C784 1.349 . S
C785 C801 1.349 . S
C786 C784 1.327 . S
C786 C805 1.429 . S
C786 H810 0.950 . S
C787 C804 1.574 . S
C787 C806 1.368 . S
C787 H811 0.949 . S
H788 C792 0.949 . S
C789 C790 1.349 . S
C789 C791 1.327 . S
C789 H812 0.950 . S
C790 C789 1.349 . S
C790 C802 1.349 . S
C791 C789 1.327 . S
C791 C807 1.429 . S
C791 H813 0.950 . S
C792 H788 0.949 . S
C792 C800 1.574 . S
C792 C808 1.368 . S
H793 C801 0.950 . S
H794 C799 0.950 . S
H795 C800 0.949 . S
H796 C802 0.950 . S
H797 C803 0.950 . S
H798 C804 0.949 . S
C799 H794 0.950 . S
C799 C801 1.327 . S
C799 C805 1.429 . S
C800 C792 1.574 . S
C800 H795 0.949 . S
C800 C806 1.368 . S
C801 C785 1.349 . S
C801 H793 0.950 . S
C801 C799 1.327 . S
C802 C790 1.349 . S
C802 H796 0.950 . S
C802 C803 1.327 . S
C803 H797 0.950 . S
C803 C802 1.327 . S
C803 C807 1.429 . S
C804 C787 1.574 . S
C804 H798 0.949 . S
C804 C808 1.368 . S
C805 C786 1.429 . S
C805 C799 1.429 . S
C805 C806 1.523 . S
C806 C787 1.368 . S
C806 C800 1.368 . S
C806 C805 1.523 . S
C807 C791 1.429 . S
C807 C803 1.429 . S
C807 C808 1.523 . S
C808 C792 1.368 . S
C808 C804 1.368 . S
C808 C807 1.523 . S
H809 C784 0.950 . S
H810 C786 0.950 . S
H811 C787 0.949 . S
H812 C789 0.950 . S
H813 C791 0.950 . S
C814 C815 1.349 . S
C814 C816 1.327 . S
C814 H839 0.950 . S
C815 C814 1.349 . S
C815 C831 1.349 . S
C816 C814 1.327 . S
C816 C835 1.429 . S
C816 H840 0.950 . S
C817 C834 1.574 . S
C817 C836 1.368 . S
C817 H841 0.949 . S
H818 C822 0.949 . S
C819 C820 1.349 . S
C819 C821 1.327 . S
C819 H842 0.950 . S
C820 C819 1.349 . S
C820 C832 1.349 . S
C821 C819 1.327 . S
C821 C837 1.429 . S
C821 H843 0.950 . S
C822 H818 0.949 . S
C822 C830 1.574 . S
C822 C838 1.368 . S
H823 C831 0.950 . S
H824 C829 0.950 . S
H825 C830 0.949 . S
H826 C832 0.950 . S
H827 C833 0.950 . S
H828 C834 0.949 . S
C829 H824 0.950 . S
C829 C831 1.327 . S
C829 C835 1.429 . S
C830 C822 1.574 . S
C830 H825 0.949 . S
C830 C836 1.368 . S
C831 C815 1.349 . S
C831 H823 0.950 . S
C831 C829 1.327 . S
C832 C820 1.349 . S
C832 H826 0.950 . S
C832 C833 1.327 . S
C833 H827 0.950 . S
C833 C832 1.327 . S
C833 C837 1.429 . S
C834 C817 1.574 . S
C834 H828 0.949 . S
C834 C838 1.368 . S
C835 C816 1.429 . S
C835 C829 1.429 . S
C835 C836 1.523 . S
C836 C817 1.368 . S
C836 C830 1.368 . S
C836 C835 1.523 . S
C837 C821 1.429 . S
C837 C833 1.429 . S
C837 C838 1.523 . S
C838 C822 1.368 . S
C838 C834 1.368 . S
C838 C837 1.523 . S
H839 C814 0.950 . S
H840 C816 0.950 . S
H841 C817 0.949 . S
H842 C819 0.950 . S
H843 C821 0.950 . S
C844 C845 1.349 . S
C844 C846 1.327 . S
C844 H869 0.950 . S
C845 C844 1.349 . S
C845 C861 1.349 . S
C846 C844 1.327 . S
C846 C865 1.429 . S
C846 H870 0.950 . S
C847 C864 1.574 . S
C847 C866 1.368 . S
C847 H871 0.949 . S
H848 C852 0.949 . S
C849 C850 1.349 . S
C849 C851 1.327 . S
C849 H872 0.950 . S
C850 C849 1.349 . S
C850 C862 1.349 . S
C851 C849 1.327 . S
C851 C867 1.429 . S
C851 H873 0.950 . S
C852 H848 0.949 . S
C852 C860 1.574 . S
C852 C868 1.368 . S
H853 C861 0.950 . S
H854 C859 0.950 . S
H855 C860 0.949 . S
H856 C862 0.950 . S
H857 C863 0.950 . S
H858 C864 0.949 . S
C859 H854 0.950 . S
C859 C861 1.327 . S
C859 C865 1.429 . S
C860 C852 1.574 . S
C860 H855 0.949 . S
C860 C866 1.368 . S
C861 C845 1.349 . S
C861 H853 0.950 . S
C861 C859 1.327 . S
C862 C850 1.349 . S
C862 H856 0.950 . S
C862 C863 1.327 . S
C863 H857 0.950 . S
C863 C862 1.327 . S
C863 C867 1.429 . S
C864 C847 1.574 . S
C864 H858 0.949 . S
C864 C868 1.368 . S
C865 C846 1.429 . S
C865 C859 1.429 . S
C865 C866 1.523 . S
C866 C847 1.368 . S
C866 C860 1.368 . S
C866 C865 1.523 . S
C867 C851 1.429 . S
C867 C863 1.429 . S
C867 C868 1.523 . S
C868 C852 1.368 . S
C868 C864 1.368 . S
C868 C867 1.523 . S
H869 C844 0.950 . S
H870 C846 0.950 . S
H871 C847 0.949 . S
H872 C849 0.950 . S
H873 C851 0.950 . S
C874 C875 1.349 . S
C874 C876 1.327 . S
C874 H899 0.950 . S
C875 C874 1.349 . S
C875 C891 1.349 . S
C876 C874 1.327 . S
C876 C895 1.429 . S
C876 H900 0.950 . S
C877 C894 1.574 . S
C877 C896 1.368 . S
C877 H901 0.949 . S
H878 C882 0.949 . S
C879 C880 1.349 . S
C879 C881 1.327 . S
C879 H902 0.950 . S
C880 C879 1.349 . S
C880 C892 1.349 . S
C881 C879 1.327 . S
C881 C897 1.429 . S
C881 H903 0.950 . S
C882 H878 0.949 . S
C882 C890 1.574 . S
C882 C898 1.368 . S
H883 C891 0.950 . S
H884 C889 0.950 . S
H885 C890 0.949 . S
H886 C892 0.950 . S
H887 C893 0.950 . S
H888 C894 0.949 . S
C889 H884 0.950 . S
C889 C891 1.327 . S
C889 C895 1.429 . S
C890 C882 1.574 . S
C890 H885 0.949 . S
C890 C896 1.368 . S
C891 C875 1.349 . S
C891 H883 0.950 . S
C891 C889 1.327 . S
C892 C880 1.349 . S
C892 H886 0.950 . S
C892 C893 1.327 . S
C893 H887 0.950 . S
C893 C892 1.327 . S
C893 C897 1.429 . S
C894 C877 1.574 . S
C894 H888 0.949 . S
C894 C898 1.368 . S
C895 C876 1.429 . S
C895 C889 1.429 . S
C895 C896 1.523 . S
C896 C877 1.368 . S
C896 C890 1.368 . S
C896 C895 1.523 . S
C897 C881 1.429 . S
C897 C893 1.429 . S
C897 C898 1.523 . S
C898 C882 1.368 . S
C898 C894 1.368 . S
C898 C897 1.523 . S
H899 C874 0.950 . S
H900 C876 0.950 . S
H901 C877 0.949 . S
H902 C879 0.950 . S
H903 C881 0.950 . S
C904 C905 1.349 . S
C904 C906 1.327 . S
C904 H929 0.950 . S
C905 C904 1.349 . S
C905 C921 1.349 . S
C906 C904 1.327 . S
C906 C925 1.429 . S
C906 H930 0.950 . S
C907 C924 1.574 . S
C907 C926 1.368 . S
C907 H931 0.949 . S
H908 C912 0.949 . S
C909 C910 1.349 . S
C909 C911 1.327 . S
C909 H932 0.950 . S
C910 C909 1.349 . S
C910 C922 1.349 . S
C911 C909 1.327 . S
C911 C927 1.429 . S
C911 H933 0.950 . S
C912 H908 0.949 . S
C912 C920 1.574 . S
C912 C928 1.368 . S
H913 C921 0.950 . S
H914 C919 0.950 . S
H915 C920 0.949 . S
H916 C922 0.950 . S
H917 C923 0.950 . S
H918 C924 0.949 . S
C919 H914 0.950 . S
C919 C921 1.327 . S
C919 C925 1.429 . S
C920 C912 1.574 . S
C920 H915 0.949 . S
C920 C926 1.368 . S
C921 C905 1.349 . S
C921 H913 0.950 . S
C921 C919 1.327 . S
C922 C910 1.349 . S
C922 H916 0.950 . S
C922 C923 1.327 . S
C923 H917 0.950 . S
C923 C922 1.327 . S
C923 C927 1.429 . S
C924 C907 1.574 . S
C924 H918 0.949 . S
C924 C928 1.368 . S
C925 C906 1.429 . S
C925 C919 1.429 . S
C925 C926 1.523 . S
C926 C907 1.368 . S
C926 C920 1.368 . S
C926 C925 1.523 . S
C927 C911 1.429 . S
C927 C923 1.429 . S
C927 C928 1.523 . S
C928 C912 1.368 . S
C928 C924 1.368 . S
C928 C927 1.523 . S
H929 C904 0.950 . S
H930 C906 0.950 . S
H931 C907 0.949 . S
H932 C909 0.950 . S
H933 C911 0.950 . S
C934 C935 1.349 . S
C934 C936 1.327 . S
C934 H959 0.950 . S
C935 C934 1.349 . S
C935 C951 1.349 . S
C936 C934 1.327 . S
C936 C955 1.429 . S
C936 H960 0.950 . S
C937 C954 1.574 . S
C937 C956 1.368 . S
C937 H961 0.949 . S
H938 C942 0.949 . S
C939 C940 1.349 . S
C939 C941 1.327 . S
C939 H962 0.950 . S
C940 C939 1.349 . S
C940 C952 1.349 . S
C941 C939 1.327 . S
C941 C957 1.429 . S
C941 H963 0.950 . S
C942 H938 0.949 . S
C942 C950 1.574 . S
C942 C958 1.368 . S
H943 C951 0.950 . S
H944 C949 0.950 . S
H945 C950 0.949 . S
H946 C952 0.950 . S
H947 C953 0.950 . S
H948 C954 0.949 . S
C949 H944 0.950 . S
C949 C951 1.327 . S
C949 C955 1.429 . S
C950 C942 1.574 . S
C950 H945 0.949 . S
C950 C956 1.368 . S
C951 C935 1.349 . S
C951 H943 0.950 . S
C951 C949 1.327 . S
C952 C940 1.349 . S
C952 H946 0.950 . S
C952 C953 1.327 . S
C953 H947 0.950 . S
C953 C952 1.327 . S
C953 C957 1.429 . S
C954 C937 1.574 . S
C954 H948 0.949 . S
C954 C958 1.368 . S
C955 C936 1.429 . S
C955 C949 1.429 . S
C955 C956 1.523 . S
C956 C937 1.368 . S
C956 C950 1.368 . S
C956 C955 1.523 . S
C957 C941 1.429 . S
C957 C953 1.429 . S
C957 C958 1.523 . S
C958 C942 1.368 . S
C958 C954 1.368 . S
C958 C957 1.523 . S
H959 C934 0.950 . S
H960 C936 0.950 . S
H961 C937 0.949 . S
H962 C939 0.950 . S
H963 C941 0.950 . S
C964 C965 1.349 . S
C964 C966 1.327 . S
C964 H989 0.950 . S
C965 C964 1.349 . S
C965 C981 1.349 . S
C966 C964 1.327 . S
C966 C985 1.429 . S
C966 H990 0.950 . S
C967 C984 1.574 . S
C967 C986 1.368 . S
C967 H991 0.949 . S
H968 C972 0.949 . S
C969 C970 1.349 . S
C969 C971 1.327 . S
C969 H992 0.950 . S
C970 C969 1.349 . S
C970 C982 1.349 . S
C971 C969 1.327 . S
C971 C987 1.429 . S
C971 H993 0.950 . S
C972 H968 0.949 . S
C972 C980 1.574 . S
C972 C988 1.368 . S
H973 C981 0.950 . S
H974 C979 0.950 . S
H975 C980 0.949 . S
H976 C982 0.950 . S
H977 C983 0.950 . S
H978 C984 0.949 . S
C979 H974 0.950 . S
C979 C981 1.327 . S
C979 C985 1.429 . S
C980 C972 1.574 . S
C980 H975 0.949 . S
C980 C986 1.368 . S
C981 C965 1.349 . S
C981 H973 0.950 . S
C981 C979 1.327 . S
C982 C970 1.349 . S
C982 H976 0.950 . S
C982 C983 1.327 . S
C983 H977 0.950 . S
C983 C982 1.327 . S
C983 C987 1.429 . S
C984 C967 1.574 . S
C984 H978 0.949 . S
C984 C988 1.368 . S
C985 C966 1.429 . S
C985 C979 1.429 . S
C985 C986 1.523 . S
C986 C967 1.368 . S
C986 C980 1.368 . S
C986 C985 1.523 . S
C987 C971 1.429 . S
C987 C983 1.429 . S
C987 C988 1.523 . S
C988 C972 1.368 . S
C988 C984 1.368 . S
C988 C987 1.523 . S
H989 C964 0.950 . S
H990 C966 0.950 . S
H991 C967 0.949 . S
H992 C969 0.950 . S
H993 C971 0.950 . S
C994 C995 1.349 . S
C994 C996 1.327 . S
C994 H1019 0.950 . S
C995 C994 1.349 . S
C995 C1011 1.349 . S
C996 C994 1.327 . S
C996 C1015 1.429 . S
C996 H1020 0.950 . S
C997 C1014 1.574 . S
C997 C1016 1.368 . S
C997 H1021 0.949 . S
H998 C1002 0.949 . S
C999 C1000 1.349 . S
C999 C1001 1.327 . S
C999 H1022 0.950 . S
C1000 C999 1.349 . S
C1000 C1012 1.349 . S
C1001 C999 1.327 . S
C1001 C1017 1.429 . S
C1001 H1023 0.950 . S
C1002 H998 0.949 . S
C1002 C1010 1.574 . S
C1002 C1018 1.368 . S
H1003 C1011 0.950 . S
H1004 C1009 0.950 . S
H1005 C1010 0.949 . S
H1006 C1012 0.950 . S
H1007 C1013 0.950 . S
H1008 C1014 0.949 . S
C1009 H1004 0.950 . S
C1009 C1011 1.327 . S
C1009 C1015 1.429 . S
C1010 C1002 1.574 . S
C1010 H1005 0.949 . S
C1010 C1016 1.368 . S
C1011 C995 1.349 . S
C1011 H1003 0.950 . S
C1011 C1009 1.327 . S
C1012 C1000 1.349 . S
C1012 H1006 0.950 . S
C1012 C1013 1.327 . S
C1013 H1007 0.950 . S
C1013 C1012 1.327 . S
C1013 C1017 1.429 . S
C1014 C997 1.574 . S
C1014 H1008 0.949 . S
C1014 C1018 1.368 . S
C1015 C996 1.429 . S
C1015 C1009 1.429 . S
C1015 C1016 1.523 . S
C1016 C997 1.368 . S
C1016 C1010 1.368 . S
C1016 C1015 1.523 . S
C1017 C1001 1.429 . S
C1017 C1013 1.429 . S
C1017 C1018 1.523 . S
C1018 C1002 1.368 . S
C1018 C1014 1.368 . S
C1018 C1017 1.523 . S
H1019 C994 0.950 . S
H1020 C996 0.950 . S
H1021 C997 0.949 . S
H1022 C999 0.950 . S
H1023 C1001 0.950 . S
C1024 C1025 1.349 . S
C1024 C1026 1.327 . S
C1024 H1049 0.950 . S
C1025 C1024 1.349 . S
C1025 C1041 1.338 1_545 S
C1026 C1024 1.327 . S
C1026 C1045 1.429 1_545 S
C1026 H1050 0.950 . S
C1027 C1044 1.574 . S
C1027 C1046 1.368 . S
C1027 H1051 0.949 . S
H1028 C1032 0.949 . S
C1029 C1030 1.349 . S
C1029 C1031 1.327 . S
C1029 H1052 0.950 . S
C1030 C1029 1.349 . S
C1030 C1042 1.349 . S
C1031 C1029 1.327 . S
C1031 C1047 1.429 . S
C1031 H1053 0.950 . S
C1032 H1028 0.949 . S
C1032 C1040 1.574 . S
C1032 C1048 1.368 . S
H1033 C1041 0.953 . S
H1034 C1039 0.950 . S
H1035 C1040 0.949 . S
H1036 C1042 0.950 . S
H1037 C1043 0.950 . S
H1038 C1044 0.949 . S
C1039 H1034 0.950 . S
C1039 C1041 1.335 . S
C1039 C1045 1.429 . S
C1040 C1032 1.574 . S
C1040 H1035 0.949 . S
C1040 C1046 1.368 . S
C1041 C1025 1.338 1_565 S
C1041 H1033 0.953 . S
C1041 C1039 1.335 . S
C1042 C1030 1.349 . S
C1042 H1036 0.950 . S
C1042 C1043 1.327 . S
C1043 H1037 0.950 . S
C1043 C1042 1.327 . S
C1043 C1047 1.429 . S
C1044 C1027 1.574 . S
C1044 H1038 0.949 . S
C1044 C1048 1.368 . S
C1045 C1026 1.429 1_565 S
C1045 C1039 1.429 . S
C1045 C1046 1.523 . S
C1046 C1027 1.368 . S
C1046 C1040 1.368 . S
C1046 C1045 1.523 . S
C1047 C1031 1.429 . S
C1047 C1043 1.429 . S
C1047 C1048 1.523 . S
C1048 C1032 1.368 . S
C1048 C1044 1.368 . S
C1048 C1047 1.523 . S
H1049 C1024 0.950 . S
H1050 C1026 0.950 . S
H1051 C1027 0.949 . S
H1052 C1029 0.950 . S
H1053 C1031 0.950 . S
C1054 C1055 1.349 . S
C1054 C1056 1.327 1_455 S
C1054 H1079 0.950 . S
C1055 C1054 1.349 . S
C1055 C1071 1.349 . S
C1056 C1054 1.327 1_655 S
C1056 C1075 1.429 . S
C1056 H1080 0.950 . S
C1057 C1074 1.574 . S
C1057 C1076 1.368 . S
C1057 H1081 0.949 . S
H1058 C1062 0.949 . S
C1059 C1060 1.349 . S
C1059 C1061 1.327 . S
C1059 H1082 0.950 . S
C1060 C1059 1.349 . S
C1060 C1072 1.349 . S
C1061 C1059 1.327 . S
C1061 C1077 1.429 . S
C1061 H1083 0.950 . S
C1062 H1058 0.949 . S
C1062 C1070 1.574 . S
C1062 C1078 1.368 . S
H1063 C1071 0.950 . S
H1064 C1069 0.950 . S
H1065 C1070 0.949 . S
H1066 C1072 0.950 . S
H1067 C1073 0.950 . S
H1068 C1074 0.949 . S
C1069 H1064 0.950 . S
C1069 C1071 1.327 . S
C1069 C1075 1.429 1_455 S
C1070 C1062 1.574 . S
C1070 H1065 0.949 . S
C1070 C1076 1.368 . S
C1071 C1055 1.349 . S
C1071 H1063 0.950 . S
C1071 C1069 1.327 . S
C1072 C1060 1.349 . S
C1072 H1066 0.950 . S
C1072 C1073 1.327 . S
C1073 H1067 0.950 . S
C1073 C1072 1.327 . S
C1073 C1077 1.429 . S
C1074 C1057 1.574 . S
C1074 H1068 0.949 . S
C1074 C1078 1.368 . S
C1075 C1056 1.429 . S
C1075 C1069 1.429 1_655 S
C1075 C1076 1.523 . S
C1076 C1057 1.368 . S
C1076 C1070 1.368 . S
C1076 C1075 1.523 . S
C1077 C1061 1.429 . S
C1077 C1073 1.429 . S
C1077 C1078 1.523 . S
C1078 C1062 1.368 . S
C1078 C1074 1.368 . S
C1078 C1077 1.523 . S
H1079 C1054 0.950 . S
H1080 C1056 0.950 . S
H1081 C1057 0.949 . S
H1082 C1059 0.950 . S
H1083 C1061 0.950 . S
C1084 C1085 1.349 . S
C1084 C1086 1.327 . S
C1084 H1109 0.950 . S
C1085 C1084 1.349 . S
C1085 C1101 1.349 . S
C1086 C1084 1.327 . S
C1086 C1105 1.429 . S
C1086 H1110 0.950 . S
C1087 C1104 1.574 . S
C1087 C1106 1.368 . S
C1087 H1111 0.949 . S
H1088 C1092 0.949 . S
C1089 C1090 1.349 . S
C1089 C1091 1.327 . S
C1089 H1112 0.950 . S
C1090 C1089 1.349 . S
C1090 C1102 1.349 . S
C1091 C1089 1.327 . S
C1091 C1107 1.429 1_565 S
C1091 H1113 0.950 . S
C1092 H1088 0.949 . S
C1092 C1100 1.574 . S
C1092 C1108 1.368 . S
H1093 C1101 0.950 . S
H1094 C1099 0.950 . S
H1095 C1100 0.949 . S
H1096 C1102 0.950 . S
H1097 C1103 0.950 . S
H1098 C1104 0.949 . S
C1099 H1094 0.950 . S
C1099 C1101 1.327 . S
C1099 C1105 1.429 . S
C1100 C1092 1.574 . S
C1100 H1095 0.949 . S
C1100 C1106 1.368 . S
C1101 C1085 1.349 . S
C1101 H1093 0.950 . S
C1101 C1099 1.327 . S
C1102 C1090 1.349 . S
C1102 H1096 0.950 . S
C1102 C1103 1.327 1_565 S
C1103 H1097 0.950 . S
C1103 C1102 1.327 1_545 S
C1103 C1107 1.429 . S
C1104 C1087 1.574 . S
C1104 H1098 0.949 . S
C1104 C1108 1.368 . S
C1105 C1086 1.429 . S
C1105 C1099 1.429 . S
C1105 C1106 1.523 . S
C1106 C1087 1.368 . S
C1106 C1100 1.368 . S
C1106 C1105 1.523 . S
C1107 C1091 1.429 1_545 S
C1107 C1103 1.429 . S
C1107 C1108 1.523 . S
C1108 C1092 1.368 . S
C1108 C1104 1.368 . S
C1108 C1107 1.523 . S
H1109 C1084 0.950 . S
H1110 C1086 0.950 . S
H1111 C1087 0.949 . S
H1112 C1089 0.950 . S
H1113 C1091 0.950 . S
C1114 C1115 1.349 . S
C1114 C1116 1.327 . S
C1114 H1139 0.950 . S
C1115 C1114 1.349 . S
C1115 C1131 1.349 . S
C1116 C1114 1.327 . S
C1116 C1135 1.429 . S
C1116 H1140 0.950 . S
C1117 C1134 1.574 . S
C1117 C1136 1.368 . S
C1117 H1141 0.949 . S
H1118 C1122 0.949 . S
C1119 C1120 1.349 . S
C1119 C1121 1.341 . S
C1119 H1142 0.950 . S
C1120 C1119 1.349 . S
C1120 C1132 1.349 . S
C1121 C1119 1.341 . S
C1121 C1137 1.420 1_655 S
C1121 H1143 0.945 1_655 S
C1122 H1118 0.949 . S
C1122 C1130 1.574 . S
C1122 C1138 1.368 . S
H1123 C1131 0.950 . S
H1124 C1129 0.950 . S
H1125 C1130 0.949 . S
H1126 C1132 0.950 . S
H1127 C1133 0.950 . S
H1128 C1134 0.949 . S
C1129 H1124 0.950 . S
C1129 C1131 1.327 . S
C1129 C1135 1.429 . S
C1130 C1122 1.574 . S
C1130 H1125 0.949 . S
C1130 C1136 1.368 . S
C1131 C1115 1.349 . S
C1131 H1123 0.950 . S
C1131 C1129 1.327 . S
C1132 C1120 1.349 . S
C1132 H1126 0.950 . S
C1132 C1133 1.327 1_655 S
C1133 H1127 0.950 . S
C1133 C1132 1.327 1_455 S
C1133 C1137 1.429 . S
C1134 C1117 1.574 . S
C1134 H1128 0.949 . S
C1134 C1138 1.368 . S
C1135 C1116 1.429 . S
C1135 C1129 1.429 . S
C1135 C1136 1.523 . S
C1136 C1117 1.368 . S
C1136 C1130 1.368 . S
C1136 C1135 1.523 . S
C1137 C1121 1.420 1_455 S
C1137 C1133 1.429 . S
C1137 C1138 1.523 . S
C1138 C1122 1.368 . S
C1138 C1134 1.368 . S
C1138 C1137 1.523 . S
H1139 C1114 0.950 . S
H1140 C1116 0.950 . S
H1141 C1117 0.949 . S
H1142 C1119 0.950 . S
H1143 C1121 0.945 1_455 S
C1144 C1145 1.349 1_556 S
C1144 C1146 1.327 1_556 S
C1144 H1169 0.950 . S
C1145 C1144 1.349 1_554 S
C1145 C1161 1.349 . S
C1146 C1144 1.327 1_554 S
C1146 C1165 1.429 . S
C1146 H1170 0.950 . S
C1147 C1164 1.574 . S
C1147 C1166 1.368 . S
C1147 H1171 0.949 . S
H1148 C1152 0.949 . S
C1149 C1150 1.349 . S
C1149 C1151 1.327 . S
C1149 H1172 0.950 . S
C1150 C1149 1.349 . S
C1150 C1162 1.349 . S
C1151 C1149 1.327 . S
C1151 C1167 1.429 . S
C1151 H1173 0.950 . S
C1152 H1148 0.949 . S
C1152 C1160 1.574 . S
C1152 C1168 1.368 . S
H1153 C1161 0.950 . S
H1154 C1159 0.950 . S
H1155 C1160 0.949 . S
H1156 C1162 0.950 . S
H1157 C1163 0.950 . S
H1158 C1164 0.949 . S
C1159 H1154 0.950 . S
C1159 C1161 1.327 . S
C1159 C1165 1.429 . S
C1160 C1152 1.574 . S
C1160 H1155 0.949 . S
C1160 C1166 1.368 . S
C1161 C1145 1.349 . S
C1161 H1153 0.950 . S
C1161 C1159 1.327 . S
C1162 C1150 1.349 . S
C1162 H1156 0.950 . S
C1162 C1163 1.327 . S
C1163 H1157 0.950 . S
C1163 C1162 1.327 . S
C1163 C1167 1.429 . S
C1164 C1147 1.574 . S
C1164 H1158 0.949 . S
C1164 C1168 1.368 . S
C1165 C1146 1.429 . S
C1165 C1159 1.429 . S
C1165 C1166 1.523 . S
C1166 C1147 1.368 . S
C1166 C1160 1.368 . S
C1166 C1165 1.523 . S
C1167 C1151 1.429 . S
C1167 C1163 1.429 . S
C1167 C1168 1.523 . S
C1168 C1152 1.368 . S
C1168 C1164 1.368 . S
C1168 C1167 1.523 . S
H1169 C1144 0.950 . S
H1170 C1146 0.950 . S
H1171 C1147 0.949 . S
H1172 C1149 0.950 . S
H1173 C1151 0.950 . S
C1174 C1175 1.349 . S
C1174 C1176 1.327 . S
C1174 H1199 0.950 . S
C1175 C1174 1.349 . S
C1175 C1191 1.349 1_556 S
C1176 C1174 1.327 . S
C1176 C1195 1.429 . S
C1176 H1200 0.950 . S
C1177 C1194 1.574 . S
C1177 C1196 1.368 . S
C1177 H1201 0.949 . S
H1178 C1182 0.949 . S
C1179 C1180 1.349 . S
C1179 C1181 1.327 . S
C1179 H1202 0.950 . S
C1180 C1179 1.349 . S
C1180 C1192 1.349 . S
C1181 C1179 1.327 . S
C1181 C1197 1.429 . S
C1181 H1203 0.950 . S
C1182 H1178 0.949 . S
C1182 C1190 1.574 . S
C1182 C1198 1.368 . S
H1183 C1191 0.950 . S
H1184 C1189 0.967 . S
H1185 C1190 0.949 . S
H1186 C1192 0.950 . S
H1187 C1193 0.950 . S
H1188 C1194 0.949 . S
C1189 H1184 0.967 . S
C1189 C1191 1.327 1_556 S
C1189 C1195 1.429 . S
C1190 C1182 1.574 . S
C1190 H1185 0.949 . S
C1190 C1196 1.368 . S
C1191 C1175 1.349 1_554 S
C1191 H1183 0.950 . S
C1191 C1189 1.327 1_554 S
C1192 C1180 1.349 . S
C1192 H1186 0.950 . S
C1192 C1193 1.327 . S
C1193 H1187 0.950 . S
C1193 C1192 1.327 . S
C1193 C1197 1.429 . S
C1194 C1177 1.574 . S
C1194 H1188 0.949 . S
C1194 C1198 1.368 . S
C1195 C1176 1.429 . S
C1195 C1189 1.429 . S
C1195 C1196 1.523 . S
C1196 C1177 1.368 . S
C1196 C1190 1.368 . S
C1196 C1195 1.523 . S
C1197 C1181 1.429 . S
C1197 C1193 1.429 . S
C1197 C1198 1.523 . S
C1198 C1182 1.368 . S
C1198 C1194 1.368 . S
C1198 C1197 1.523 . S
H1199 C1174 0.950 . S
H1200 C1176 0.950 . S
H1201 C1177 0.949 . S
H1202 C1179 0.950 . S
H1203 C1181 0.950 . S
C1204 C1205 1.349 . S
C1204 C1206 1.327 . S
C1204 H1229 0.950 . S
C1205 C1204 1.349 . S
C1205 C1221 1.349 . S
C1206 C1204 1.327 . S
C1206 C1225 1.429 . S
C1206 H1230 0.950 . S
C1207 C1224 1.574 . S
C1207 C1226 1.368 . S
C1207 H1231 0.949 . S
H1208 C1212 0.949 . S
C1209 C1210 1.349 . S
C1209 C1211 1.327 . S
C1209 H1232 0.950 . S
C1210 C1209 1.349 . S
C1210 C1222 1.349 1_554 S
C1211 C1209 1.327 . S
C1211 C1227 1.429 . S
C1211 H1233 0.950 . S
C1212 H1208 0.949 . S
C1212 C1220 1.574 . S
C1212 C1228 1.368 . S
H1213 C1221 0.950 . S
H1214 C1219 0.950 . S
H1215 C1220 0.949 . S
H1216 C1222 0.948 . S
H1217 C1223 0.950 . S
H1218 C1224 0.949 . S
C1219 H1214 0.950 . S
C1219 C1221 1.327 . S
C1219 C1225 1.429 . S
C1220 C1212 1.574 . S
C1220 H1215 0.949 . S
C1220 C1226 1.368 . S
C1221 C1205 1.349 . S
C1221 H1213 0.950 . S
C1221 C1219 1.327 . S
C1222 C1210 1.349 1_556 S
C1222 H1216 0.948 . S
C1222 C1223 1.328 1_556 S
C1223 H1217 0.950 . S
C1223 C1222 1.328 1_554 S
C1223 C1227 1.429 . S
C1224 C1207 1.574 . S
C1224 H1218 0.949 . S
C1224 C1228 1.368 . S
C1225 C1206 1.429 . S
C1225 C1219 1.429 . S
C1225 C1226 1.523 . S
C1226 C1207 1.368 . S
C1226 C1220 1.368 . S
C1226 C1225 1.523 . S
C1227 C1211 1.429 . S
C1227 C1223 1.429 . S
C1227 C1228 1.523 . S
C1228 C1212 1.368 . S
C1228 C1224 1.368 . S
C1228 C1227 1.523 . S
H1229 C1204 0.950 . S
H1230 C1206 0.950 . S
H1231 C1207 0.949 . S
H1232 C1209 0.950 . S
H1233 C1211 0.950 . S
C1234 C1235 1.349 1_554 S
C1234 C1236 1.327 1_554 S
C1234 H1259 0.950 . S
C1235 C1234 1.349 1_556 S
C1235 C1251 1.349 . S
C1236 C1234 1.327 1_556 S
C1236 C1255 1.429 . S
C1236 H1260 0.950 . S
C1237 C1254 1.574 . S
C1237 C1256 1.368 . S
C1237 H1261 0.949 . S
H1238 C1242 0.949 . S
C1239 C1240 1.349 . S
C1239 C1241 1.327 . S
C1239 H1262 0.950 . S
C1240 C1239 1.349 . S
C1240 C1252 1.349 . S
C1241 C1239 1.327 . S
C1241 C1257 1.429 . S
C1241 H1263 0.950 . S
C1242 H1238 0.949 . S
C1242 C1250 1.574 . S
C1242 C1258 1.368 . S
H1243 C1251 0.950 . S
H1244 C1249 0.950 . S
H1245 C1250 0.949 . S
H1246 C1252 0.950 . S
H1247 C1253 0.950 . S
H1248 C1254 0.949 . S
C1249 H1244 0.950 . S
C1249 C1251 1.327 . S
C1249 C1255 1.429 . S
C1250 C1242 1.574 . S
C1250 H1245 0.949 . S
C1250 C1256 1.368 . S
C1251 C1235 1.349 . S
C1251 H1243 0.950 . S
C1251 C1249 1.327 . S
C1252 C1240 1.349 . S
C1252 H1246 0.950 . S
C1252 C1253 1.327 . S
C1253 H1247 0.950 . S
C1253 C1252 1.327 . S
C1253 C1257 1.429 . S
C1254 C1237 1.574 . S
C1254 H1248 0.949 . S
C1254 C1258 1.368 . S
C1255 C1236 1.429 . S
C1255 C1249 1.429 . S
C1255 C1256 1.523 . S
C1256 C1237 1.368 . S
C1256 C1250 1.368 . S
C1256 C1255 1.523 . S
C1257 C1241 1.429 . S
C1257 C1253 1.429 . S
C1257 C1258 1.523 . S
C1258 C1242 1.368 . S
C1258 C1254 1.368 . S
C1258 C1257 1.523 . S
H1259 C1234 0.950 . S
H1260 C1236 0.950 . S
H1261 C1237 0.949 . S
H1262 C1239 0.950 . S
H1263 C1241 0.950 . S
C1264 C1265 1.349 . S
C1264 C1266 1.327 . S
C1264 H1289 0.950 . S
C1265 C1264 1.349 . S
C1265 C1281 1.349 . S
C1266 C1264 1.327 . S
C1266 C1285 1.429 . S
C1266 H1290 0.950 . S
C1267 C1284 1.574 . S
C1267 C1286 1.368 . S
C1267 H1291 0.949 . S
H1268 C1272 0.949 . S
C1269 C1270 1.349 . S
C1269 C1271 1.327 . S
C1269 H1292 0.950 . S
C1270 C1269 1.349 . S
C1270 C1282 1.349 . S
C1271 C1269 1.327 . S
C1271 C1287 1.429 . S
C1271 H1293 0.950 . S
C1272 H1268 0.949 . S
C1272 C1280 1.574 . S
C1272 C1288 1.368 . S
H1273 C1281 0.950 . S
H1274 C1279 0.950 . S
H1275 C1280 0.949 . S
H1276 C1282 0.950 . S
H1277 C1283 0.950 . S
H1278 C1284 0.949 . S
C1279 H1274 0.950 . S
C1279 C1281 1.327 . S
C1279 C1285 1.429 . S
C1280 C1272 1.574 . S
C1280 H1275 0.949 . S
C1280 C1286 1.368 . S
C1281 C1265 1.349 . S
C1281 H1273 0.950 . S
C1281 C1279 1.327 . S
C1282 C1270 1.349 . S
C1282 H1276 0.950 . S
C1282 C1283 1.327 . S
C1283 H1277 0.950 . S
C1283 C1282 1.327 . S
C1283 C1287 1.429 . S
C1284 C1267 1.574 . S
C1284 H1278 0.949 . S
C1284 C1288 1.368 . S
C1285 C1266 1.429 . S
C1285 C1279 1.429 . S
C1285 C1286 1.523 . S
C1286 C1267 1.368 . S
C1286 C1280 1.368 . S
C1286 C1285 1.523 . S
C1287 C1271 1.429 . S
C1287 C1283 1.429 . S
C1287 C1288 1.523 . S
C1288 C1272 1.368 . S
C1288 C1284 1.368 . S
C1288 C1287 1.523 . S
H1289 C1264 0.950 . S
H1290 C1266 0.950 . S
H1291 C1267 0.949 . S
H1292 C1269 0.950 . S
H1293 C1271 0.950 . S
C1294 C1295 1.349 . S
C1294 C1296 1.327 . S
C1294 H1319 0.950 . S
C1295 C1294 1.349 . S
C1295 C1311 1.349 . S
C1296 C1294 1.327 . S
C1296 C1315 1.429 . S
C1296 H1320 0.950 . S
C1297 C1314 1.574 . S
C1297 C1316 1.368 . S
C1297 H1321 0.949 . S
H1298 C1302 0.949 . S
C1299 C1300 1.349 . S
C1299 C1301 1.327 . S
C1299 H1322 0.950 . S
C1300 C1299 1.349 . S
C1300 C1312 1.349 . S
C1301 C1299 1.327 . S
C1301 C1317 1.429 . S
C1301 H1323 0.950 . S
C1302 H1298 0.949 . S
C1302 C1310 1.574 . S
C1302 C1318 1.368 . S
H1303 C1311 0.950 . S
H1304 C1309 0.950 . S
H1305 C1310 0.949 . S
H1306 C1312 0.950 . S
H1307 C1313 0.950 . S
H1308 C1314 0.949 . S
C1309 H1304 0.950 . S
C1309 C1311 1.327 . S
C1309 C1315 1.429 . S
C1310 C1302 1.574 . S
C1310 H1305 0.949 . S
C1310 C1316 1.368 . S
C1311 C1295 1.349 . S
C1311 H1303 0.950 . S
C1311 C1309 1.327 . S
C1312 C1300 1.349 . S
C1312 H1306 0.950 . S
C1312 C1313 1.327 . S
C1313 H1307 0.950 . S
C1313 C1312 1.327 . S
C1313 C1317 1.429 . S
C1314 C1297 1.574 . S
C1314 H1308 0.949 . S
C1314 C1318 1.368 . S
C1315 C1296 1.429 . S
C1315 C1309 1.429 . S
C1315 C1316 1.523 . S
C1316 C1297 1.368 . S
C1316 C1310 1.368 . S
C1316 C1315 1.523 . S
C1317 C1301 1.429 . S
C1317 C1313 1.429 . S
C1317 C1318 1.523 . S
C1318 C1302 1.368 . S
C1318 C1314 1.368 . S
C1318 C1317 1.523 . S
H1319 C1294 0.950 . S
H1320 C1296 0.950 . S
H1321 C1297 0.949 . S
H1322 C1299 0.950 . S
H1323 C1301 0.950 . S
C1324 C1325 1.349 . S
C1324 C1326 1.327 . S
C1324 H1349 0.950 . S
C1325 C1324 1.349 . S
C1325 C1341 1.349 . S
C1326 C1324 1.327 . S
C1326 C1345 1.429 . S
C1326 H1350 0.950 . S
C1327 C1344 1.574 . S
C1327 C1346 1.368 . S
C1327 H1351 0.949 . S
H1328 C1332 0.949 . S
C1329 C1330 1.349 . S
C1329 C1331 1.327 . S
C1329 H1352 0.950 . S
C1330 C1329 1.349 . S
C1330 C1342 1.349 . S
C1331 C1329 1.327 . S
C1331 C1347 1.429 . S
C1331 H1353 0.950 . S
C1332 H1328 0.949 . S
C1332 C1340 1.574 . S
C1332 C1348 1.368 . S
H1333 C1341 0.950 . S
H1334 C1339 0.950 . S
H1335 C1340 0.949 . S
H1336 C1342 0.950 . S
H1337 C1343 0.950 . S
H1338 C1344 0.949 . S
C1339 H1334 0.950 . S
C1339 C1341 1.327 . S
C1339 C1345 1.429 . S
C1340 C1332 1.574 . S
C1340 H1335 0.949 . S
C1340 C1346 1.368 . S
C1341 C1325 1.349 . S
C1341 H1333 0.950 . S
C1341 C1339 1.327 . S
C1342 C1330 1.349 . S
C1342 H1336 0.950 . S
C1342 C1343 1.327 . S
C1343 H1337 0.950 . S
C1343 C1342 1.327 . S
C1343 C1347 1.429 . S
C1344 C1327 1.574 . S
C1344 H1338 0.949 . S
C1344 C1348 1.368 . S
C1345 C1326 1.429 . S
C1345 C1339 1.429 . S
C1345 C1346 1.523 . S
C1346 C1327 1.368 . S
C1346 C1340 1.368 . S
C1346 C1345 1.523 . S
C1347 C1331 1.429 . S
C1347 C1343 1.429 . S
C1347 C1348 1.523 . S
C1348 C1332 1.368 . S
C1348 C1344 1.368 . S
C1348 C1347 1.523 . S
H1349 C1324 0.950 . S
H1350 C1326 0.950 . S
H1351 C1327 0.949 . S
H1352 C1329 0.950 . S
H1353 C1331 0.950 . S
C1354 C1355 1.349 . S
C1354 C1356 1.327 . S
C1354 H1379 0.950 . S
C1355 C1354 1.349 . S
C1355 C1371 1.349 . S
C1356 C1354 1.327 . S
C1356 C1375 1.429 . S
C1356 H1380 0.950 . S
C1357 C1374 1.574 . S
C1357 C1376 1.368 . S
C1357 H1381 0.949 . S
H1358 C1362 0.949 . S
C1359 C1360 1.349 . S
C1359 C1361 1.327 . S
C1359 H1382 0.950 . S
C1360 C1359 1.349 . S
C1360 C1372 1.349 . S
C1361 C1359 1.327 . S
C1361 C1377 1.429 . S
C1361 H1383 0.950 . S
C1362 H1358 0.949 . S
C1362 C1370 1.574 . S
C1362 C1378 1.368 . S
H1363 C1371 0.950 . S
H1364 C1369 0.950 . S
H1365 C1370 0.949 . S
H1366 C1372 0.950 . S
H1367 C1373 0.950 . S
H1368 C1374 0.949 . S
C1369 H1364 0.950 . S
C1369 C1371 1.327 . S
C1369 C1375 1.429 . S
C1370 C1362 1.574 . S
C1370 H1365 0.949 . S
C1370 C1376 1.368 . S
C1371 C1355 1.349 . S
C1371 H1363 0.950 . S
C1371 C1369 1.327 . S
C1372 C1360 1.349 . S
C1372 H1366 0.950 . S
C1372 C1373 1.327 . S
C1373 H1367 0.950 . S
C1373 C1372 1.327 . S
C1373 C1377 1.429 . S
C1374 C1357 1.574 . S
C1374 H1368 0.949 . S
C1374 C1378 1.368 . S
C1375 C1356 1.429 . S
C1375 C1369 1.429 . S
C1375 C1376 1.523 . S
C1376 C1357 1.368 . S
C1376 C1370 1.368 . S
C1376 C1375 1.523 . S
C1377 C1361 1.429 . S
C1377 C1373 1.429 . S
C1377 C1378 1.523 . S
C1378 C1362 1.368 . S
C1378 C1374 1.368 . S
C1378 C1377 1.523 . S
H1379 C1354 0.950 . S
H1380 C1356 0.950 . S
H1381 C1357 0.949 . S
H1382 C1359 0.950 . S
H1383 C1361 0.950 . S
C1384 C1385 1.348 1_545 S
C1384 C1386 1.328 . S
C1384 H1409 0.950 . S
C1385 C1384 1.348 1_565 S
C1385 C1401 1.349 . S
C1386 C1384 1.328 . S
C1386 C1405 1.429 . S
C1386 H1410 0.950 . S
C1387 C1404 1.574 . S
C1387 C1406 1.368 . S
C1387 H1411 0.949 . S
H1388 C1392 0.949 . S
C1389 C1390 1.349 . S
C1389 C1391 1.327 . S
C1389 H1412 0.950 . S
C1390 C1389 1.349 . S
C1390 C1402 1.349 . S
C1391 C1389 1.327 . S
C1391 C1407 1.429 . S
C1391 H1413 0.950 . S
C1392 H1388 0.949 . S
C1392 C1400 1.574 . S
C1392 C1408 1.368 . S
H1393 C1401 0.950 . S
H1394 C1399 0.950 . S
H1395 C1400 0.949 . S
H1396 C1402 0.950 . S
H1397 C1403 0.950 . S
H1398 C1404 0.949 . S
C1399 H1394 0.950 . S
C1399 C1401 1.327 . S
C1399 C1405 1.429 1_565 S
C1400 C1392 1.574 . S
C1400 H1395 0.949 . S
C1400 C1406 1.368 . S
C1401 C1385 1.349 . S
C1401 H1393 0.950 . S
C1401 C1399 1.327 . S
C1402 C1390 1.349 . S
C1402 H1396 0.950 . S
C1402 C1403 1.327 . S
C1403 H1397 0.950 . S
C1403 C1402 1.327 . S
C1403 C1407 1.429 . S
C1404 C1387 1.574 . S
C1404 H1398 0.949 . S
C1404 C1408 1.368 . S
C1405 C1386 1.429 . S
C1405 C1399 1.429 1_545 S
C1405 C1406 1.523 . S
C1406 C1387 1.368 . S
C1406 C1400 1.368 . S
C1406 C1405 1.523 . S
C1407 C1391 1.429 . S
C1407 C1403 1.429 . S
C1407 C1408 1.523 . S
C1408 C1392 1.368 . S
C1408 C1404 1.368 . S
C1408 C1407 1.523 . S
H1409 C1384 0.950 . S
H1410 C1386 0.950 . S
H1411 C1387 0.949 . S
H1412 C1389 0.950 . S
H1413 C1391 0.950 . S
C1414 C1415 1.349 . S
C1414 C1416 1.327 . S
C1414 H1439 0.950 . S
C1415 C1414 1.349 . S
C1415 C1431 1.349 . S
C1416 C1414 1.327 . S
C1416 C1435 1.429 . S
C1416 H1440 0.950 . S
C1417 C1434 1.574 . S
C1417 C1436 1.368 . S
C1417 H1441 0.949 . S
H1418 C1422 0.949 . S
C1419 C1420 1.349 . S
C1419 C1421 1.327 1_655 S
C1419 H1442 0.950 . S
C1420 C1419 1.349 . S
C1420 C1432 1.349 . S
C1421 C1419 1.327 1_455 S
C1421 C1437 1.429 . S
C1421 H1443 0.950 . S
C1422 H1418 0.949 . S
C1422 C1430 1.574 . S
C1422 C1438 1.368 . S
H1423 C1431 0.950 . S
H1424 C1429 0.950 . S
H1425 C1430 0.949 . S
H1426 C1432 0.950 . S
H1427 C1433 0.950 . S
H1428 C1434 0.949 . S
C1429 H1424 0.950 . S
C1429 C1431 1.327 . S
C1429 C1435 1.429 . S
C1430 C1422 1.574 . S
C1430 H1425 0.949 . S
C1430 C1436 1.368 . S
C1431 C1415 1.349 . S
C1431 H1423 0.950 . S
C1431 C1429 1.327 . S
C1432 C1420 1.349 . S
C1432 H1426 0.950 . S
C1432 C1433 1.327 . S
C1433 H1427 0.950 . S
C1433 C1432 1.327 . S
C1433 C1437 1.429 1_655 S
C1434 C1417 1.574 . S
C1434 H1428 0.949 . S
C1434 C1438 1.368 . S
C1435 C1416 1.429 . S
C1435 C1429 1.429 . S
C1435 C1436 1.523 . S
C1436 C1417 1.368 . S
C1436 C1430 1.368 . S
C1436 C1435 1.523 . S
C1437 C1421 1.429 . S
C1437 C1433 1.429 1_455 S
C1437 C1438 1.523 . S
C1438 C1422 1.368 . S
C1438 C1434 1.368 . S
C1438 C1437 1.523 . S
H1439 C1414 0.950 . S
H1440 C1416 0.950 . S
H1441 C1417 0.949 . S
H1442 C1419 0.950 . S
H1443 C1421 0.950 . S
C1444 C1445 1.349 . S
C1444 C1446 1.327 . S
C1444 H1469 0.950 . S
C1445 C1444 1.349 . S
C1445 C1461 1.349 . S
C1446 C1444 1.327 . S
C1446 C1465 1.429 1_545 S
C1446 H1470 0.950 . S
C1447 C1464 1.574 . S
C1447 C1466 1.368 . S
C1447 H1471 0.949 . S
H1448 C1452 0.949 . S
C1449 C1450 1.349 . S
C1449 C1451 1.327 . S
C1449 H1472 0.950 . S
C1450 C1449 1.349 . S
C1450 C1462 1.349 . S
C1451 C1449 1.327 . S
C1451 C1467 1.429 . S
C1451 H1473 0.950 . S
C1452 H1448 0.949 . S
C1452 C1460 1.574 . S
C1452 C1468 1.368 . S
H1453 C1461 0.950 . S
H1454 C1459 0.950 . S
H1455 C1460 0.949 . S
H1456 C1462 0.950 . S
H1457 C1463 0.950 . S
H1458 C1464 0.949 . S
C1459 H1454 0.950 . S
C1459 C1461 1.327 1_565 S
C1459 C1465 1.429 . S
C1460 C1452 1.574 . S
C1460 H1455 0.949 . S
C1460 C1466 1.368 . S
C1461 C1445 1.349 . S
C1461 H1453 0.950 . S
C1461 C1459 1.327 1_545 S
C1462 C1450 1.349 . S
C1462 H1456 0.950 . S
C1462 C1463 1.327 . S
C1463 H1457 0.950 . S
C1463 C1462 1.327 . S
C1463 C1467 1.429 . S
C1464 C1447 1.574 . S
C1464 H1458 0.949 . S
C1464 C1468 1.368 . S
C1465 C1446 1.429 1_565 S
C1465 C1459 1.429 . S
C1465 C1466 1.523 . S
C1466 C1447 1.368 . S
C1466 C1460 1.368 . S
C1466 C1465 1.523 . S
C1467 C1451 1.429 . S
C1467 C1463 1.429 . S
C1467 C1468 1.523 . S
C1468 C1452 1.368 . S
C1468 C1464 1.368 . S
C1468 C1467 1.523 . S
H1469 C1444 0.950 . S
H1470 C1446 0.950 . S
H1471 C1447 0.949 . S
H1472 C1449 0.950 . S
H1473 C1451 0.950 . S
C1474 C1475 1.349 . S
C1474 C1476 1.327 . S
C1474 H1499 0.950 . S
C1475 C1474 1.349 . S
C1475 C1491 1.349 . S
C1476 C1474 1.327 . S
C1476 C1495 1.429 1_455 S
C1476 H1500 0.950 . S
C1477 C1494 1.574 . S
C1477 C1496 1.368 . S
C1477 H1501 0.949 . S
H1478 C1482 0.949 . S
C1479 C1480 1.349 . S
C1479 C1481 1.327 . S
C1479 H1502 0.950 . S
C1480 C1479 1.349 . S
C1480 C1492 1.349 . S
C1481 C1479 1.327 . S
C1481 C1497 1.429 . S
C1481 H1503 0.950 . S
C1482 H1478 0.949 . S
C1482 C1490 1.574 . S
C1482 C1498 1.368 . S
H1483 C1491 0.950 . S
H1484 C1489 0.950 . S
H1485 C1490 0.949 . S
H1486 C1492 0.950 . S
H1487 C1493 0.950 . S
H1488 C1494 0.949 . S
C1489 H1484 0.950 . S
C1489 C1491 1.327 1_655 S
C1489 C1495 1.429 . S
C1490 C1482 1.574 . S
C1490 H1485 0.949 . S
C1490 C1496 1.368 . S
C1491 C1475 1.349 . S
C1491 H1483 0.950 . S
C1491 C1489 1.327 1_455 S
C1492 C1480 1.349 . S
C1492 H1486 0.950 . S
C1492 C1493 1.327 . S
C1493 H1487 0.950 . S
C1493 C1492 1.327 . S
C1493 C1497 1.429 . S
C1494 C1477 1.574 . S
C1494 H1488 0.949 . S
C1494 C1498 1.368 . S
C1495 C1476 1.429 1_655 S
C1495 C1489 1.429 . S
C1495 C1496 1.523 . S
C1496 C1477 1.368 . S
C1496 C1490 1.368 . S
C1496 C1495 1.523 . S
C1497 C1481 1.429 . S
C1497 C1493 1.429 . S
C1497 C1498 1.523 . S
C1498 C1482 1.368 . S
C1498 C1494 1.368 . S
C1498 C1497 1.523 . S
H1499 C1474 0.950 . S
H1500 C1476 0.950 . S
H1501 C1477 0.949 . S
H1502 C1479 0.950 . S
H1503 C1481 0.950 . S
C1504 C1505 1.349 . S
C1504 C1506 1.327 . S
C1504 H1529 0.950 . S
C1505 C1504 1.349 . S
C1505 C1521 1.349 . S
C1506 C1504 1.327 . S
C1506 C1525 1.429 . S
C1506 H1530 0.950 . S
C1507 C1524 1.574 . S
C1507 C1526 1.368 . S
C1507 H1531 0.949 . S
H1508 C1512 0.949 . S
C1509 C1510 1.349 . S
C1509 C1511 1.327 . S
C1509 H1532 0.950 . S
C1510 C1509 1.349 . S
C1510 C1522 1.349 . S
C1511 C1509 1.327 . S
C1511 C1527 1.429 . S
C1511 H1533 0.950 . S
C1512 H1508 0.949 . S
C1512 C1520 1.574 . S
C1512 C1528 1.368 . S
H1513 C1521 0.950 . S
H1514 C1519 0.950 . S
H1515 C1520 0.949 . S
H1516 C1522 0.950 . S
H1517 C1523 0.950 . S
H1518 C1524 0.949 . S
C1519 H1514 0.950 . S
C1519 C1521 1.327 . S
C1519 C1525 1.429 . S
C1520 C1512 1.574 . S
C1520 H1515 0.949 . S
C1520 C1526 1.368 . S
C1521 C1505 1.349 . S
C1521 H1513 0.950 . S
C1521 C1519 1.327 . S
C1522 C1510 1.349 . S
C1522 H1516 0.950 . S
C1522 C1523 1.327 . S
C1523 H1517 0.950 . S
C1523 C1522 1.327 . S
C1523 C1527 1.429 . S
C1524 C1507 1.574 . S
C1524 H1518 0.949 . S
C1524 C1528 1.368 . S
C1525 C1506 1.429 . S
C1525 C1519 1.429 . S
C1525 C1526 1.523 . S
C1526 C1507 1.368 . S
C1526 C1520 1.368 . S
C1526 C1525 1.523 . S
C1527 C1511 1.429 . S
C1527 C1523 1.429 . S
C1527 C1528 1.523 . S
C1528 C1512 1.368 . S
C1528 C1524 1.368 . S
C1528 C1527 1.523 . S
H1529 C1504 0.950 . S
H1530 C1506 0.950 . S
H1531 C1507 0.949 . S
H1532 C1509 0.950 . S
H1533 C1511 0.950 . S
C1534 C1535 1.349 . S
C1534 C1536 1.327 . S
C1534 H1559 0.950 . S
C1535 C1534 1.349 . S
C1535 C1551 1.349 . S
C1536 C1534 1.327 . S
C1536 C1555 1.429 . S
C1536 H1560 0.950 . S
C1537 C1554 1.574 . S
C1537 C1556 1.368 . S
C1537 H1561 0.949 . S
H1538 C1542 0.949 . S
C1539 C1540 1.349 . S
C1539 C1541 1.327 . S
C1539 H1562 0.950 . S
C1540 C1539 1.349 . S
C1540 C1552 1.349 . S
C1541 C1539 1.327 . S
C1541 C1557 1.429 . S
C1541 H1563 0.950 . S
C1542 H1538 0.949 . S
C1542 C1550 1.574 . S
C1542 C1558 1.368 . S
H1543 C1551 0.950 . S
H1544 C1549 0.950 . S
H1545 C1550 0.949 . S
H1546 C1552 0.950 . S
H1547 C1553 0.950 . S
H1548 C1554 0.949 . S
C1549 H1544 0.950 . S
C1549 C1551 1.327 . S
C1549 C1555 1.429 . S
C1550 C1542 1.574 . S
C1550 H1545 0.949 . S
C1550 C1556 1.368 . S
C1551 C1535 1.349 . S
C1551 H1543 0.950 . S
C1551 C1549 1.327 . S
C1552 C1540 1.349 . S
C1552 H1546 0.950 . S
C1552 C1553 1.327 . S
C1553 H1547 0.950 . S
C1553 C1552 1.327 . S
C1553 C1557 1.429 . S
C1554 C1537 1.574 . S
C1554 H1548 0.949 . S
C1554 C1558 1.368 . S
C1555 C1536 1.429 . S
C1555 C1549 1.429 . S
C1555 C1556 1.523 . S
C1556 C1537 1.368 . S
C1556 C1550 1.368 . S
C1556 C1555 1.523 . S
C1557 C1541 1.429 . S
C1557 C1553 1.429 . S
C1557 C1558 1.523 . S
C1558 C1542 1.368 . S
C1558 C1554 1.368 . S
C1558 C1557 1.523 . S
H1559 C1534 0.950 . S
H1560 C1536 0.950 . S
H1561 C1537 0.949 . S
H1562 C1539 0.950 . S
H1563 C1541 0.950 . S
C1564 C1565 1.349 . S
C1564 C1566 1.327 . S
C1564 H1589 0.950 . S
C1565 C1564 1.349 . S
C1565 C1581 1.349 . S
C1566 C1564 1.327 . S
C1566 C1585 1.429 . S
C1566 H1590 0.950 . S
C1567 C1584 1.574 . S
C1567 C1586 1.368 . S
C1567 H1591 0.949 . S
H1568 C1572 0.949 . S
C1569 C1570 1.349 . S
C1569 C1571 1.327 . S
C1569 H1592 0.950 . S
C1570 C1569 1.349 . S
C1570 C1582 1.349 . S
C1571 C1569 1.327 . S
C1571 C1587 1.429 . S
C1571 H1593 0.950 . S
C1572 H1568 0.949 . S
C1572 C1580 1.574 . S
C1572 C1588 1.368 . S
H1573 C1581 0.950 . S
H1574 C1579 0.950 . S
H1575 C1580 0.949 . S
H1576 C1582 0.950 . S
H1577 C1583 0.950 . S
H1578 C1584 0.949 . S
C1579 H1574 0.950 . S
C1579 C1581 1.327 . S
C1579 C1585 1.429 . S
C1580 C1572 1.574 . S
C1580 H1575 0.949 . S
C1580 C1586 1.368 . S
C1581 C1565 1.349 . S
C1581 H1573 0.950 . S
C1581 C1579 1.327 . S
C1582 C1570 1.349 . S
C1582 H1576 0.950 . S
C1582 C1583 1.327 . S
C1583 H1577 0.950 . S
C1583 C1582 1.327 . S
C1583 C1587 1.429 . S
C1584 C1567 1.574 . S
C1584 H1578 0.949 . S
C1584 C1588 1.368 . S
C1585 C1566 1.429 . S
C1585 C1579 1.429 . S
C1585 C1586 1.523 . S
C1586 C1567 1.368 . S
C1586 C1580 1.368 . S
C1586 C1585 1.523 . S
C1587 C1571 1.429 . S
C1587 C1583 1.429 . S
C1587 C1588 1.523 . S
C1588 C1572 1.368 . S
C1588 C1584 1.368 . S
C1588 C1587 1.523 . S
H1589 C1564 0.950 . S
H1590 C1566 0.950 . S
H1591 C1567 0.949 . S
H1592 C1569 0.950 . S
H1593 C1571 0.950 . S
C1594 C1595 1.349 . S
C1594 C1596 1.327 . S
C1594 H1619 0.950 . S
C1595 C1594 1.349 . S
C1595 C1611 1.349 . S
C1596 C1594 1.327 . S
C1596 C1615 1.429 . S
C1596 H1620 0.950 . S
C1597 C1614 1.574 . S
C1597 C1616 1.368 . S
C1597 H1621 0.949 . S
H1598 C1602 0.949 . S
C1599 C1600 1.349 . S
C1599 C1601 1.327 . S
C1599 H1622 0.950 . S
C1600 C1599 1.349 . S
C1600 C1612 1.349 . S
C1601 C1599 1.327 . S
C1601 C1617 1.429 . S
C1601 H1623 0.950 . S
C1602 H1598 0.949 . S
C1602 C1610 1.574 . S
C1602 C1618 1.368 . S
H1603 C1611 0.950 . S
H1604 C1609 0.950 . S
H1605 C1610 0.949 . S
H1606 C1612 0.950 . S
H1607 C1613 0.950 . S
H1608 C1614 0.949 . S
C1609 H1604 0.950 . S
C1609 C1611 1.327 . S
C1609 C1615 1.429 . S
C1610 C1602 1.574 . S
C1610 H1605 0.949 . S
C1610 C1616 1.368 . S
C1611 C1595 1.349 . S
C1611 H1603 0.950 . S
C1611 C1609 1.327 . S
C1612 C1600 1.349 . S
C1612 H1606 0.950 . S
C1612 C1613 1.327 . S
C1613 H1607 0.950 . S
C1613 C1612 1.327 . S
C1613 C1617 1.429 . S
C1614 C1597 1.574 . S
C1614 H1608 0.949 . S
C1614 C1618 1.368 . S
C1615 C1596 1.429 . S
C1615 C1609 1.429 . S
C1615 C1616 1.523 . S
C1616 C1597 1.368 . S
C1616 C1610 1.368 . S
C1616 C1615 1.523 . S
C1617 C1601 1.429 . S
C1617 C1613 1.429 . S
C1617 C1618 1.523 . S
C1618 C1602 1.368 . S
C1618 C1614 1.368 . S
C1618 C1617 1.523 . S
H1619 C1594 0.950 . S
H1620 C1596 0.950 . S
H1621 C1597 0.949 . S
H1622 C1599 0.950 . S
H1623 C1601 0.950 . S
C1624 C1625 1.349 . S
C1624 C1626 1.327 . S
C1624 H1649 0.950 . S
C1625 C1624 1.349 . S
C1625 C1641 1.349 . S
C1626 C1624 1.327 . S
C1626 C1645 1.429 . S
C1626 H1650 0.950 . S
C1627 C1644 1.574 . S
C1627 C1646 1.368 . S
C1627 H1651 0.949 . S
H1628 C1632 0.949 . S
C1629 C1630 1.349 . S
C1629 C1631 1.327 . S
C1629 H1652 0.950 . S
C1630 C1629 1.349 . S
C1630 C1642 1.349 . S
C1631 C1629 1.327 . S
C1631 C1647 1.429 . S
C1631 H1653 0.950 . S
C1632 H1628 0.949 . S
C1632 C1640 1.574 . S
C1632 C1648 1.368 . S
H1633 C1641 0.950 . S
H1634 C1639 0.950 . S
H1635 C1640 0.949 . S
H1636 C1642 0.950 . S
H1637 C1643 0.950 . S
H1638 C1644 0.949 . S
C1639 H1634 0.950 . S
C1639 C1641 1.327 . S
C1639 C1645 1.429 . S
C1640 C1632 1.574 . S
C1640 H1635 0.949 . S
C1640 C1646 1.368 . S
C1641 C1625 1.349 . S
C1641 H1633 0.950 . S
C1641 C1639 1.327 . S
C1642 C1630 1.349 . S
C1642 H1636 0.950 . S
C1642 C1643 1.327 . S
C1643 H1637 0.950 . S
C1643 C1642 1.327 . S
C1643 C1647 1.429 . S
C1644 C1627 1.574 . S
C1644 H1638 0.949 . S
C1644 C1648 1.368 . S
C1645 C1626 1.429 . S
C1645 C1639 1.429 . S
C1645 C1646 1.523 . S
C1646 C1627 1.368 . S
C1646 C1640 1.368 . S
C1646 C1645 1.523 . S
C1647 C1631 1.429 . S
C1647 C1643 1.429 . S
C1647 C1648 1.523 . S
C1648 C1632 1.368 . S
C1648 C1644 1.368 . S
C1648 C1647 1.523 . S
H1649 C1624 0.950 . S
H1650 C1626 0.950 . S
H1651 C1627 0.949 . S
H1652 C1629 0.950 . S
H1653 C1631 0.950 . S
C1654 C1655 1.349 . S
C1654 C1656 1.327 . S
C1654 H1679 0.950 . S
C1655 C1654 1.349 . S
C1655 C1671 1.349 . S
C1656 C1654 1.327 . S
C1656 C1675 1.429 . S
C1656 H1680 0.950 . S
C1657 C1674 1.574 . S
C1657 C1676 1.368 . S
C1657 H1681 0.949 . S
H1658 C1662 0.949 . S
C1659 C1660 1.349 . S
C1659 C1661 1.327 . S
C1659 H1682 0.950 . S
C1660 C1659 1.349 . S
C1660 C1672 1.349 . S
C1661 C1659 1.327 . S
C1661 C1677 1.429 . S
C1661 H1683 0.950 . S
C1662 H1658 0.949 . S
C1662 C1670 1.574 . S
C1662 C1678 1.368 . S
H1663 C1671 0.950 . S
H1664 C1669 0.950 . S
H1665 C1670 0.949 . S
H1666 C1672 0.950 . S
H1667 C1673 0.950 . S
H1668 C1674 0.949 . S
C1669 H1664 0.950 . S
C1669 C1671 1.327 . S
C1669 C1675 1.429 . S
C1670 C1662 1.574 . S
C1670 H1665 0.949 . S
C1670 C1676 1.368 . S
C1671 C1655 1.349 . S
C1671 H1663 0.950 . S
C1671 C1669 1.327 . S
C1672 C1660 1.349 . S
C1672 H1666 0.950 . S
C1672 C1673 1.327 . S
C1673 H1667 0.950 . S
C1673 C1672 1.327 . S
C1673 C1677 1.429 . S
C1674 C1657 1.574 . S
C1674 H1668 0.949 . S
C1674 C1678 1.368 . S
C1675 C1656 1.429 . S
C1675 C1669 1.429 . S
C1675 C1676 1.523 . S
C1676 C1657 1.368 . S
C1676 C1670 1.368 . S
C1676 C1675 1.523 . S
C1677 C1661 1.429 . S
C1677 C1673 1.429 . S
C1677 C1678 1.523 . S
C1678 C1662 1.368 . S
C1678 C1674 1.368 . S
C1678 C1677 1.523 . S
H1679 C1654 0.950 . S
H1680 C1656 0.950 . S
H1681 C1657 0.949 . S
H1682 C1659 0.950 . S
H1683 C1661 0.950 . S
C1684 C1685 1.349 . S
C1684 C1686 1.327 . S
C1684 H1709 0.950 . S
C1685 C1684 1.349 . S
C1685 C1701 1.349 . S
C1686 C1684 1.327 . S
C1686 C1705 1.429 . S
C1686 H1710 0.950 . S
C1687 C1704 1.574 . S
C1687 C1706 1.368 . S
C1687 H1711 0.949 . S
H1688 C1692 0.949 . S
C1689 C1690 1.349 . S
C1689 C1691 1.327 . S
C1689 H1712 0.950 . S
C1690 C1689 1.349 . S
C1690 C1702 1.349 . S
C1691 C1689 1.327 . S
C1691 C1707 1.429 . S
C1691 H1713 0.950 . S
C1692 H1688 0.949 . S
C1692 C1700 1.574 . S
C1692 C1708 1.368 . S
H1693 C1701 0.950 . S
H1694 C1699 0.950 . S
H1695 C1700 0.949 . S
H1696 C1702 0.950 . S
H1697 C1703 0.950 . S
H1698 C1704 0.949 . S
C1699 H1694 0.950 . S
C1699 C1701 1.327 . S
C1699 C1705 1.429 . S
C1700 C1692 1.574 . S
C1700 H1695 0.949 . S
C1700 C1706 1.368 . S
C1701 C1685 1.349 . S
C1701 H1693 0.950 . S
C1701 C1699 1.327 . S
C1702 C1690 1.349 . S
C1702 H1696 0.950 . S
C1702 C1703 1.327 . S
C1703 H1697 0.950 . S
C1703 C1702 1.327 . S
C1703 C1707 1.429 . S
C1704 C1687 1.574 . S
C1704 H1698 0.949 . S
C1704 C1708 1.368 . S
C1705 C1686 1.429 . S
C1705 C1699 1.429 . S
C1705 C1706 1.523 . S
C1706 C1687 1.368 . S
C1706 C1700 1.368 . S
C1706 C1705 1.523 . S
C1707 C1691 1.429 . S
C1707 C1703 1.429 . S
C1707 C1708 1.523 . S
C1708 C1692 1.368 . S
C1708 C1704 1.368 . S
C1708 C1707 1.523 . S
H1709 C1684 0.950 . S
H1710 C1686 0.950 . S
H1711 C1687 0.949 . S
H1712 C1689 0.950 . S
H1713 C1691 0.950 . S
C1714 C1715 1.349 . S
C1714 C1716 1.327 . S
C1714 H1739 0.950 . S
C1715 C1714 1.349 . S
C1715 C1731 1.349 . S
C1716 C1714 1.327 . S
C1716 C1735 1.429 . S
C1716 H1740 0.950 . S
C1717 C1734 1.574 . S
C1717 C1736 1.368 . S
C1717 H1741 0.949 . S
H1718 C1722 0.949 . S
C1719 C1720 1.349 . S
C1719 C1721 1.327 . S
C1719 H1742 0.950 . S
C1720 C1719 1.349 . S
C1720 C1732 1.349 . S
C1721 C1719 1.327 . S
C1721 C1737 1.429 . S
C1721 H1743 0.950 . S
C1722 H1718 0.949 . S
C1722 C1730 1.574 . S
C1722 C1738 1.368 . S
H1723 C1731 0.950 . S
H1724 C1729 0.950 . S
H1725 C1730 0.949 . S
H1726 C1732 0.950 . S
H1727 C1733 0.950 . S
H1728 C1734 0.949 . S
C1729 H1724 0.950 . S
C1729 C1731 1.327 . S
C1729 C1735 1.429 . S
C1730 C1722 1.574 . S
C1730 H1725 0.949 . S
C1730 C1736 1.368 . S
C1731 C1715 1.349 . S
C1731 H1723 0.950 . S
C1731 C1729 1.327 . S
C1732 C1720 1.349 . S
C1732 H1726 0.950 . S
C1732 C1733 1.327 . S
C1733 H1727 0.950 . S
C1733 C1732 1.327 . S
C1733 C1737 1.429 . S
C1734 C1717 1.574 . S
C1734 H1728 0.949 . S
C1734 C1738 1.368 . S
C1735 C1716 1.429 . S
C1735 C1729 1.429 . S
C1735 C1736 1.523 . S
C1736 C1717 1.368 . S
C1736 C1730 1.368 . S
C1736 C1735 1.523 . S
C1737 C1721 1.429 . S
C1737 C1733 1.429 . S
C1737 C1738 1.523 . S
C1738 C1722 1.368 . S
C1738 C1734 1.368 . S
C1738 C1737 1.523 . S
H1739 C1714 0.950 . S
H1740 C1716 0.950 . S
H1741 C1717 0.949 . S
H1742 C1719 0.950 . S
H1743 C1721 0.950 . S
C1744 C1745 1.349 . S
C1744 C1746 1.327 . S
C1744 H1769 0.950 . S
C1745 C1744 1.349 . S
C1745 C1761 1.349 . S
C1746 C1744 1.327 . S
C1746 C1765 1.429 . S
C1746 H1770 0.950 1_556 S
C1747 C1764 1.574 . S
C1747 C1766 1.368 . S
C1747 H1771 0.949 . S
H1748 C1752 0.949 . S
C1749 C1750 1.349 1_556 S
C1749 C1751 1.327 1_545 S
C1749 H1772 0.950 . S
C1750 C1749 1.349 1_554 S
C1750 C1762 1.349 1_545 S
C1751 C1749 1.327 1_565 S
C1751 C1767 1.429 1_556 S
C1751 H1773 0.950 . S
C1752 H1748 0.949 . S
C1752 C1760 1.574 . S
C1752 C1768 1.368 1_554 S
H1753 C1761 0.950 . S
H1754 C1759 0.950 . S
H1755 C1760 0.949 . S
H1756 C1762 0.950 . S
H1757 C1763 0.950 . S
H1758 C1764 0.949 . S
C1759 H1754 0.950 . S
C1759 C1761 1.327 . S
C1759 C1765 1.429 . S
C1760 C1752 1.574 . S
C1760 H1755 0.949 . S
C1760 C1766 1.368 1_554 S
C1761 C1745 1.349 . S
C1761 H1753 0.950 . S
C1761 C1759 1.327 . S
C1762 C1750 1.349 1_565 S
C1762 H1756 0.950 . S
C1762 C1763 1.327 . S
C1763 H1757 0.950 . S
C1763 C1762 1.327 . S
C1763 C1767 1.429 . S
C1764 C1747 1.574 . S
C1764 H1758 0.949 . S
C1764 C1768 1.368 . S
C1765 C1746 1.429 . S
C1765 C1759 1.429 . S
C1765 C1766 1.523 . S
C1766 C1747 1.368 . S
C1766 C1760 1.368 1_556 S
C1766 C1765 1.523 . S
C1767 C1751 1.429 1_554 S
C1767 C1763 1.429 . S
C1767 C1768 1.523 1_554 S
C1768 C1752 1.368 1_556 S
C1768 C1764 1.368 . S
C1768 C1767 1.523 1_556 S
H1769 C1744 0.950 . S
H1770 C1746 0.950 1_554 S
H1771 C1747 0.949 . S
H1772 C1749 0.950 . S
H1773 C1751 0.950 . S
C1774 C1775 1.349 1_654 S
C1774 C1776 1.327 . S
C1774 H1799 0.950 1_655 S
C1775 C1774 1.349 1_456 S
C1775 C1791 1.349 1_455 S
C1776 C1774 1.327 . S
C1776 C1795 1.429 1_554 S
C1776 H1800 0.950 . S
C1777 C1794 1.574 . S
C1777 C1796 1.368 1_556 S
C1777 H1801 0.949 . S
H1778 C1782 0.949 . S
C1779 C1780 1.349 . S
C1779 C1781 1.327 . S
C1779 H1802 0.950 . S
C1780 C1779 1.349 . S
C1780 C1792 1.349 . S
C1781 C1779 1.327 . S
C1781 C1797 1.429 . S
C1781 H1803 0.950 1_554 S
C1782 H1778 0.949 . S
C1782 C1790 1.574 . S
C1782 C1798 1.368 . S
H1783 C1791 0.950 1_455 S
H1784 C1789 0.950 . S
H1785 C1790 0.949 . S
H1786 C1792 0.950 . S
H1787 C1793 0.950 . S
H1788 C1794 0.949 . S
C1789 H1784 0.950 . S
C1789 C1791 1.327 . S
C1789 C1795 1.429 . S
C1790 C1782 1.574 . S
C1790 H1785 0.949 . S
C1790 C1796 1.368 . S
C1791 C1775 1.349 1_655 S
C1791 H1783 0.950 1_655 S
C1791 C1789 1.327 . S
C1792 C1780 1.349 . S
C1792 H1786 0.950 . S
C1792 C1793 1.327 . S
C1793 H1787 0.950 . S
C1793 C1792 1.327 . S
C1793 C1797 1.429 . S
C1794 C1777 1.574 . S
C1794 H1788 0.949 . S
C1794 C1798 1.368 1_556 S
C1795 C1776 1.429 1_556 S
C1795 C1789 1.429 . S
C1795 C1796 1.523 1_556 S
C1796 C1777 1.368 1_554 S
C1796 C1790 1.368 . S
C1796 C1795 1.523 1_554 S
C1797 C1781 1.429 . S
C1797 C1793 1.429 . S
C1797 C1798 1.523 . S
C1798 C1782 1.368 . S
C1798 C1794 1.368 1_554 S
C1798 C1797 1.523 . S
H1799 C1774 0.950 1_455 S
H1800 C1776 0.950 . S
H1801 C1777 0.949 . S
H1802 C1779 0.950 . S
H1803 C1781 0.950 1_556 S
C1804 C1805 1.349 1_546 S
C1804 C1806 1.327 . S
C1804 H1829 0.950 1_545 S
C1805 C1804 1.349 1_564 S
C1805 C1821 1.349 1_565 S
C1806 C1804 1.327 . S
C1806 C1825 1.429 1_556 S
C1806 H1830 0.950 . S
C1807 C1824 1.574 . S
C1807 C1826 1.368 1_554 S
C1807 H1831 0.949 . S
H1808 C1812 0.949 . S
C1809 C1810 1.349 . S
C1809 C1811 1.327 . S
C1809 H1832 0.950 . S
C1810 C1809 1.349 . S
C1810 C1822 1.349 . S
C1811 C1809 1.327 . S
C1811 C1827 1.429 . S
C1811 H1833 0.950 1_556 S
C1812 H1808 0.949 . S
C1812 C1820 1.574 . S
C1812 C1828 1.368 . S
H1813 C1821 0.963 . S
H1814 C1819 0.950 . S
H1815 C1820 0.949 . S
H1816 C1822 0.950 . S
H1817 C1823 0.950 . S
H1818 C1824 0.949 . S
C1819 H1814 0.950 . S
C1819 C1821 1.327 . S
C1819 C1825 1.429 . S
C1820 C1812 1.574 . S
C1820 H1815 0.949 . S
C1820 C1826 1.368 . S
C1821 C1805 1.349 1_545 S
C1821 H1813 0.963 . S
C1821 C1819 1.327 . S
C1822 C1810 1.349 . S
C1822 H1816 0.950 . S
C1822 C1823 1.327 . S
C1823 H1817 0.950 . S
C1823 C1822 1.327 . S
C1823 C1827 1.429 . S
C1824 C1807 1.574 . S
C1824 H1818 0.949 . S
C1824 C1828 1.368 1_554 S
C1825 C1806 1.429 1_554 S
C1825 C1819 1.429 . S
C1825 C1826 1.523 1_554 S
C1826 C1807 1.368 1_556 S
C1826 C1820 1.368 . S
C1826 C1825 1.523 1_556 S
C1827 C1811 1.429 . S
C1827 C1823 1.429 . S
C1827 C1828 1.523 . S
C1828 C1812 1.368 . S
C1828 C1824 1.368 1_556 S
C1828 C1827 1.523 . S
H1829 C1804 0.950 1_565 S
H1830 C1806 0.950 . S
H1831 C1807 0.949 . S
H1832 C1809 0.950 . S
H1833 C1811 0.950 1_554 S
C1834 C1835 1.376 . S
C1834 C1836 1.317 1_656 S
C1834 H1859 0.934 1_556 S
C1835 C1834 1.376 . S
C1835 C1851 1.349 1_655 S
C1836 C1834 1.317 1_454 S
C1836 C1855 1.429 1_554 S
C1836 H1860 0.950 . S
C1837 C1854 1.574 . S
C1837 C1856 1.368 1_556 S
C1837 H1861 0.949 . S
H1838 C1842 0.949 . S
C1839 C1840 1.349 . S
C1839 C1841 1.327 . S
C1839 H1862 0.950 . S
C1840 C1839 1.349 . S
C1840 C1852 1.349 . S
C1841 C1839 1.327 . S
C1841 C1857 1.429 . S
C1841 H1863 0.939 1_554 S
C1842 H1838 0.949 . S
C1842 C1850 1.574 . S
C1842 C1858 1.368 . S
H1843 C1851 0.950 . S
H1844 C1849 0.950 . S
H1845 C1850 0.949 . S
H1846 C1852 0.950 . S
H1847 C1853 0.950 . S
H1848 C1854 0.949 . S
C1849 H1844 0.950 . S
C1849 C1851 1.327 . S
C1849 C1855 1.429 . S
C1850 C1842 1.574 . S
C1850 H1845 0.949 . S
C1850 C1856 1.368 . S
C1851 C1835 1.349 1_455 S
C1851 H1843 0.950 . S
C1851 C1849 1.327 . S
C1852 C1840 1.349 . S
C1852 H1846 0.950 . S
C1852 C1853 1.327 . S
C1853 H1847 0.950 . S
C1853 C1852 1.327 . S
C1853 C1857 1.429 . S
C1854 C1837 1.574 . S
C1854 H1848 0.949 . S
C1854 C1858 1.368 1_556 S
C1855 C1836 1.429 1_556 S
C1855 C1849 1.429 . S
C1855 C1856 1.523 1_556 S
C1856 C1837 1.368 1_554 S
C1856 C1850 1.368 . S
C1856 C1855 1.523 1_554 S
C1857 C1841 1.429 . S
C1857 C1853 1.429 . S
C1857 C1858 1.523 . S
C1858 C1842 1.368 . S
C1858 C1854 1.368 1_554 S
C1858 C1857 1.523 . S
H1859 C1834 0.934 1_554 S
H1860 C1836 0.950 . S
H1861 C1837 0.949 . S
H1862 C1839 0.950 . S
H1863 C1841 0.939 1_556 S
C1864 C1865 1.349 . S
C1864 C1866 1.327 . S
C1864 H1889 0.950 . S
C1865 C1864 1.349 . S
C1865 C1881 1.349 . S
C1866 C1864 1.327 . S
C1866 C1885 1.429 . S
C1866 H1890 0.950 . S
C1867 C1884 1.574 . S
C1867 C1886 1.368 . S
C1867 H1891 0.949 . S
H1868 C1872 0.949 . S
C1869 C1870 1.349 . S
C1869 C1871 1.327 . S
C1869 H1892 0.950 . S
C1870 C1869 1.349 . S
C1870 C1882 1.349 . S
C1871 C1869 1.327 . S
C1871 C1887 1.429 . S
C1871 H1893 0.950 . S
C1872 H1868 0.949 . S
C1872 C1880 1.574 . S
C1872 C1888 1.368 . S
H1873 C1881 0.950 . S
H1874 C1879 0.950 . S
H1875 C1880 0.949 . S
H1876 C1882 0.950 . S
H1877 C1883 0.950 . S
H1878 C1884 0.949 . S
C1879 H1874 0.950 . S
C1879 C1881 1.327 . S
C1879 C1885 1.429 . S
C1880 C1872 1.574 . S
C1880 H1875 0.949 . S
C1880 C1886 1.368 . S
C1881 C1865 1.349 . S
C1881 H1873 0.950 . S
C1881 C1879 1.327 . S
C1882 C1870 1.349 . S
C1882 H1876 0.950 . S
C1882 C1883 1.327 . S
C1883 H1877 0.950 . S
C1883 C1882 1.327 . S
C1883 C1887 1.429 . S
C1884 C1867 1.574 . S
C1884 H1878 0.949 . S
C1884 C1888 1.368 . S
C1885 C1866 1.429 . S
C1885 C1879 1.429 . S
C1885 C1886 1.523 . S
C1886 C1867 1.368 . S
C1886 C1880 1.368 . S
C1886 C1885 1.523 . S
C1887 C1871 1.429 . S
C1887 C1883 1.429 . S
C1887 C1888 1.523 . S
C1888 C1872 1.368 . S
C1888 C1884 1.368 . S
C1888 C1887 1.523 . S
H1889 C1864 0.950 . S
H1890 C1866 0.950 . S
H1891 C1867 0.949 . S
H1892 C1869 0.950 . S
H1893 C1871 0.950 . S
C1894 C1895 1.349 . S
C1894 C1896 1.327 . S
C1894 H1919 0.950 . S
C1895 C1894 1.349 . S
C1895 C1911 1.349 . S
C1896 C1894 1.327 . S
C1896 C1915 1.429 . S
C1896 H1920 0.950 . S
C1897 C1914 1.574 . S
C1897 C1916 1.368 . S
C1897 H1921 0.949 . S
H1898 C1902 0.949 . S
C1899 C1900 1.349 . S
C1899 C1901 1.327 . S
C1899 H1922 0.950 . S
C1900 C1899 1.349 . S
C1900 C1912 1.349 . S
C1901 C1899 1.327 . S
C1901 C1917 1.429 . S
C1901 H1923 0.950 . S
C1902 H1898 0.949 . S
C1902 C1910 1.574 . S
C1902 C1918 1.368 . S
H1903 C1911 0.950 . S
H1904 C1909 0.950 . S
H1905 C1910 0.949 . S
H1906 C1912 0.950 . S
H1907 C1913 0.950 . S
H1908 C1914 0.949 . S
C1909 H1904 0.950 . S
C1909 C1911 1.327 . S
C1909 C1915 1.429 . S
C1910 C1902 1.574 . S
C1910 H1905 0.949 . S
C1910 C1916 1.368 . S
C1911 C1895 1.349 . S
C1911 H1903 0.950 . S
C1911 C1909 1.327 . S
C1912 C1900 1.349 . S
C1912 H1906 0.950 . S
C1912 C1913 1.327 . S
C1913 H1907 0.950 . S
C1913 C1912 1.327 . S
C1913 C1917 1.429 . S
C1914 C1897 1.574 . S
C1914 H1908 0.949 . S
C1914 C1918 1.368 . S
C1915 C1896 1.429 . S
C1915 C1909 1.429 . S
C1915 C1916 1.523 . S
C1916 C1897 1.368 . S
C1916 C1910 1.368 . S
C1916 C1915 1.523 . S
C1917 C1901 1.429 . S
C1917 C1913 1.429 . S
C1917 C1918 1.523 . S
C1918 C1902 1.368 . S
C1918 C1914 1.368 . S
C1918 C1917 1.523 . S
H1919 C1894 0.950 . S
H1920 C1896 0.950 . S
H1921 C1897 0.949 . S
H1922 C1899 0.950 . S
H1923 C1901 0.950 . S
C1924 C1925 1.349 . S
C1924 C1926 1.327 . S
C1924 H1949 0.950 . S
C1925 C1924 1.349 . S
C1925 C1941 1.349 . S
C1926 C1924 1.327 . S
C1926 C1945 1.429 . S
C1926 H1950 0.950 . S
C1927 C1944 1.574 . S
C1927 C1946 1.368 . S
C1927 H1951 0.949 . S
H1928 C1932 0.949 . S
C1929 C1930 1.349 . S
C1929 C1931 1.327 . S
C1929 H1952 0.950 . S
C1930 C1929 1.349 . S
C1930 C1942 1.349 . S
C1931 C1929 1.327 . S
C1931 C1947 1.429 . S
C1931 H1953 0.950 . S
C1932 H1928 0.949 . S
C1932 C1940 1.574 . S
C1932 C1948 1.368 . S
H1933 C1941 0.950 . S
H1934 C1939 0.950 . S
H1935 C1940 0.949 . S
H1936 C1942 0.950 . S
H1937 C1943 0.950 . S
H1938 C1944 0.949 . S
C1939 H1934 0.950 . S
C1939 C1941 1.327 . S
C1939 C1945 1.429 . S
C1940 C1932 1.574 . S
C1940 H1935 0.949 . S
C1940 C1946 1.368 . S
C1941 C1925 1.349 . S
C1941 H1933 0.950 . S
C1941 C1939 1.327 . S
C1942 C1930 1.349 . S
C1942 H1936 0.950 . S
C1942 C1943 1.327 . S
C1943 H1937 0.950 . S
C1943 C1942 1.327 . S
C1943 C1947 1.429 . S
C1944 C1927 1.574 . S
C1944 H1938 0.949 . S
C1944 C1948 1.368 . S
C1945 C1926 1.429 . S
C1945 C1939 1.429 . S
C1945 C1946 1.523 . S
C1946 C1927 1.368 . S
C1946 C1940 1.368 . S
C1946 C1945 1.523 . S
C1947 C1931 1.429 . S
C1947 C1943 1.429 . S
C1947 C1948 1.523 . S
C1948 C1932 1.368 . S
C1948 C1944 1.368 . S
C1948 C1947 1.523 . S
H1949 C1924 0.950 . S
H1950 C1926 0.950 . S
H1951 C1927 0.949 . S
H1952 C1929 0.950 . S
H1953 C1931 0.950 . S
C1954 C1955 1.349 . S
C1954 C1956 1.327 . S
C1954 H1979 0.950 . S
C1955 C1954 1.349 . S
C1955 C1971 1.349 . S
C1956 C1954 1.327 . S
C1956 C1975 1.429 . S
C1956 H1980 0.950 . S
C1957 C1974 1.574 . S
C1957 C1976 1.368 . S
C1957 H1981 0.949 . S
H1958 C1962 0.949 . S
C1959 C1960 1.349 . S
C1959 C1961 1.327 . S
C1959 H1982 0.950 . S
C1960 C1959 1.349 . S
C1960 C1972 1.349 . S
C1961 C1959 1.327 . S
C1961 C1977 1.429 . S
C1961 H1983 0.950 . S
C1962 H1958 0.949 . S
C1962 C1970 1.574 . S
C1962 C1978 1.368 . S
H1963 C1971 0.950 . S
H1964 C1969 0.950 . S
H1965 C1970 0.949 . S
H1966 C1972 0.950 . S
H1967 C1973 0.950 . S
H1968 C1974 0.949 . S
C1969 H1964 0.950 . S
C1969 C1971 1.327 . S
C1969 C1975 1.429 . S
C1970 C1962 1.574 . S
C1970 H1965 0.949 . S
C1970 C1976 1.368 . S
C1971 C1955 1.349 . S
C1971 H1963 0.950 . S
C1971 C1969 1.327 . S
C1972 C1960 1.349 . S
C1972 H1966 0.950 . S
C1972 C1973 1.327 . S
C1973 H1967 0.950 . S
C1973 C1972 1.327 . S
C1973 C1977 1.429 . S
C1974 C1957 1.574 . S
C1974 H1968 0.949 . S
C1974 C1978 1.368 . S
C1975 C1956 1.429 . S
C1975 C1969 1.429 . S
C1975 C1976 1.523 . S
C1976 C1957 1.368 . S
C1976 C1970 1.368 . S
C1976 C1975 1.523 . S
C1977 C1961 1.429 . S
C1977 C1973 1.429 . S
C1977 C1978 1.523 . S
C1978 C1962 1.368 . S
C1978 C1974 1.368 . S
C1978 C1977 1.523 . S
H1979 C1954 0.950 . S
H1980 C1956 0.950 . S
H1981 C1957 0.949 . S
H1982 C1959 0.950 . S
H1983 C1961 0.950 . S
C1984 C1985 1.349 . S
C1984 C1986 1.327 . S
C1984 H2009 0.950 . S
C1985 C1984 1.349 . S
C1985 C2001 1.349 . S
C1986 C1984 1.327 . S
C1986 C2005 1.429 . S
C1986 H2010 0.950 . S
C1987 C2004 1.574 . S
C1987 C2006 1.368 . S
C1987 H2011 0.949 . S
H1988 C1992 0.949 . S
C1989 C1990 1.349 . S
C1989 C1991 1.327 . S
C1989 H2012 0.950 . S
C1990 C1989 1.349 . S
C1990 C2002 1.349 . S
C1991 C1989 1.327 . S
C1991 C2007 1.429 . S
C1991 H2013 0.950 . S
C1992 H1988 0.949 . S
C1992 C2000 1.574 . S
C1992 C2008 1.368 . S
H1993 C2001 0.950 . S
H1994 C1999 0.950 . S
H1995 C2000 0.949 . S
H1996 C2002 0.950 . S
H1997 C2003 0.950 . S
H1998 C2004 0.949 . S
C1999 H1994 0.950 . S
C1999 C2001 1.327 . S
C1999 C2005 1.429 . S
C2000 C1992 1.574 . S
C2000 H1995 0.949 . S
C2000 C2006 1.368 . S
C2001 C1985 1.349 . S
C2001 H1993 0.950 . S
C2001 C1999 1.327 . S
C2002 C1990 1.349 . S
C2002 H1996 0.950 . S
C2002 C2003 1.327 . S
C2003 H1997 0.950 . S
C2003 C2002 1.327 . S
C2003 C2007 1.429 . S
C2004 C1987 1.574 . S
C2004 H1998 0.949 . S
C2004 C2008 1.368 . S
C2005 C1986 1.429 . S
C2005 C1999 1.429 . S
C2005 C2006 1.523 . S
C2006 C1987 1.368 . S
C2006 C2000 1.368 . S
C2006 C2005 1.523 . S
C2007 C1991 1.429 . S
C2007 C2003 1.429 . S
C2007 C2008 1.523 . S
C2008 C1992 1.368 . S
C2008 C2004 1.368 . S
C2008 C2007 1.523 . S
H2009 C1984 0.950 . S
H2010 C1986 0.950 . S
H2011 C1987 0.949 . S
H2012 C1989 0.950 . S
H2013 C1991 0.950 . S
C2014 C2015 1.349 . S
C2014 C2016 1.327 . S
C2014 H2039 0.950 . S
C2015 C2014 1.349 . S
C2015 C2031 1.349 . S
C2016 C2014 1.327 . S
C2016 C2035 1.429 . S
C2016 H2040 0.950 . S
C2017 C2034 1.574 . S
C2017 C2036 1.368 . S
C2017 H2041 0.949 . S
H2018 C2022 0.949 . S
C2019 C2020 1.349 . S
C2019 C2021 1.327 . S
C2019 H2042 0.950 . S
C2020 C2019 1.349 . S
C2020 C2032 1.349 . S
C2021 C2019 1.327 . S
C2021 C2037 1.429 . S
C2021 H2043 0.950 . S
C2022 H2018 0.949 . S
C2022 C2030 1.574 . S
C2022 C2038 1.368 . S
H2023 C2031 0.950 . S
H2024 C2029 0.950 . S
H2025 C2030 0.949 . S
H2026 C2032 0.950 . S
H2027 C2033 0.950 . S
H2028 C2034 0.949 . S
C2029 H2024 0.950 . S
C2029 C2031 1.327 . S
C2029 C2035 1.429 . S
C2030 C2022 1.574 . S
C2030 H2025 0.949 . S
C2030 C2036 1.368 . S
C2031 C2015 1.349 . S
C2031 H2023 0.950 . S
C2031 C2029 1.327 . S
C2032 C2020 1.349 . S
C2032 H2026 0.950 . S
C2032 C2033 1.327 . S
C2033 H2027 0.950 . S
C2033 C2032 1.327 . S
C2033 C2037 1.429 . S
C2034 C2017 1.574 . S
C2034 H2028 0.949 . S
C2034 C2038 1.368 . S
C2035 C2016 1.429 . S
C2035 C2029 1.429 . S
C2035 C2036 1.523 . S
C2036 C2017 1.368 . S
C2036 C2030 1.368 . S
C2036 C2035 1.523 . S
C2037 C2021 1.429 . S
C2037 C2033 1.429 . S
C2037 C2038 1.523 . S
C2038 C2022 1.368 . S
C2038 C2034 1.368 . S
C2038 C2037 1.523 . S
H2039 C2014 0.950 . S
H2040 C2016 0.950 . S
H2041 C2017 0.949 . S
H2042 C2019 0.950 . S
H2043 C2021 0.950 . S
C2044 C2045 1.349 . S
C2044 C2046 1.327 . S
C2044 H2069 0.950 . S
C2045 C2044 1.349 . S
C2045 C2061 1.349 . S
C2046 C2044 1.327 . S
C2046 C2065 1.429 . S
C2046 H2070 0.950 . S
C2047 C2064 1.574 . S
C2047 C2066 1.368 . S
C2047 H2071 0.949 . S
H2048 C2052 0.949 . S
C2049 C2050 1.349 . S
C2049 C2051 1.327 . S
C2049 H2072 0.950 . S
C2050 C2049 1.349 . S
C2050 C2062 1.349 . S
C2051 C2049 1.327 . S
C2051 C2067 1.429 . S
C2051 H2073 0.950 . S
C2052 H2048 0.949 . S
C2052 C2060 1.574 . S
C2052 C2068 1.368 . S
H2053 C2061 0.950 . S
H2054 C2059 0.950 . S
H2055 C2060 0.949 . S
H2056 C2062 0.950 . S
H2057 C2063 0.950 . S
H2058 C2064 0.949 . S
C2059 H2054 0.950 . S
C2059 C2061 1.327 . S
C2059 C2065 1.429 . S
C2060 C2052 1.574 . S
C2060 H2055 0.949 . S
C2060 C2066 1.368 . S
C2061 C2045 1.349 . S
C2061 H2053 0.950 . S
C2061 C2059 1.327 . S
C2062 C2050 1.349 . S
C2062 H2056 0.950 . S
C2062 C2063 1.327 . S
C2063 H2057 0.950 . S
C2063 C2062 1.327 . S
C2063 C2067 1.429 . S
C2064 C2047 1.574 . S
C2064 H2058 0.949 . S
C2064 C2068 1.368 . S
C2065 C2046 1.429 . S
C2065 C2059 1.429 . S
C2065 C2066 1.523 . S
C2066 C2047 1.368 . S
C2066 C2060 1.368 . S
C2066 C2065 1.523 . S
C2067 C2051 1.429 . S
C2067 C2063 1.429 . S
C2067 C2068 1.523 . S
C2068 C2052 1.368 . S
C2068 C2064 1.368 . S
C2068 C2067 1.523 . S
H2069 C2044 0.950 . S
H2070 C2046 0.950 . S
H2071 C2047 0.949 . S
H2072 C2049 0.950 . S
H2073 C2051 0.950 . S
C2074 C2075 1.349 . S
C2074 C2076 1.327 . S
C2074 H2099 0.950 . S
C2075 C2074 1.349 . S
C2075 C2091 1.349 . S
C2076 C2074 1.327 . S
C2076 C2095 1.429 . S
C2076 H2100 0.950 . S
C2077 C2094 1.574 . S
C2077 C2096 1.368 . S
C2077 H2101 0.949 . S
H2078 C2082 0.949 . S
C2079 C2080 1.349 . S
C2079 C2081 1.327 . S
C2079 H2102 0.950 . S
C2080 C2079 1.349 . S
C2080 C2092 1.349 . S
C2081 C2079 1.327 . S
C2081 C2097 1.429 . S
C2081 H2103 0.950 . S
C2082 H2078 0.949 . S
C2082 C2090 1.574 . S
C2082 C2098 1.368 . S
H2083 C2091 0.950 . S
H2084 C2089 0.950 . S
H2085 C2090 0.949 . S
H2086 C2092 0.950 . S
H2087 C2093 0.950 . S
H2088 C2094 0.949 . S
C2089 H2084 0.950 . S
C2089 C2091 1.327 . S
C2089 C2095 1.429 . S
C2090 C2082 1.574 . S
C2090 H2085 0.949 . S
C2090 C2096 1.368 . S
C2091 C2075 1.349 . S
C2091 H2083 0.950 . S
C2091 C2089 1.327 . S
C2092 C2080 1.349 . S
C2092 H2086 0.950 . S
C2092 C2093 1.327 . S
C2093 H2087 0.950 . S
C2093 C2092 1.327 . S
C2093 C2097 1.429 . S
C2094 C2077 1.574 . S
C2094 H2088 0.949 . S
C2094 C2098 1.368 . S
C2095 C2076 1.429 . S
C2095 C2089 1.429 . S
C2095 C2096 1.523 . S
C2096 C2077 1.368 . S
C2096 C2090 1.368 . S
C2096 C2095 1.523 . S
C2097 C2081 1.429 . S
C2097 C2093 1.429 . S
C2097 C2098 1.523 . S
C2098 C2082 1.368 . S
C2098 C2094 1.368 . S
C2098 C2097 1.523 . S
H2099 C2074 0.950 . S
H2100 C2076 0.950 . S
H2101 C2077 0.949 . S
H2102 C2079 0.950 . S
H2103 C2081 0.950 . S
C2104 C2105 1.349 1_545 S
C2104 C2106 1.327 . S
C2104 H2129 0.950 1_545 S
C2105 C2104 1.349 1_565 S
C2105 C2121 1.349 1_565 S
C2106 C2104 1.327 . S
C2106 C2125 1.429 . S
C2106 H2130 0.950 . S
C2107 C2124 1.574 . S
C2107 C2126 1.368 . S
C2107 H2131 0.949 . S
H2108 C2112 0.949 . S
C2109 C2110 1.349 . S
C2109 C2111 1.327 . S
C2109 H2132 0.950 . S
C2110 C2109 1.349 . S
C2110 C2122 1.349 . S
C2111 C2109 1.327 . S
C2111 C2127 1.429 . S
C2111 H2133 0.950 . S
C2112 H2108 0.949 . S
C2112 C2120 1.574 . S
C2112 C2128 1.368 . S
H2113 C2121 0.950 . S
H2114 C2119 0.950 . S
H2115 C2120 0.949 . S
H2116 C2122 0.950 . S
H2117 C2123 0.950 . S
H2118 C2124 0.949 . S
C2119 H2114 0.950 . S
C2119 C2121 1.327 . S
C2119 C2125 1.429 . S
C2120 C2112 1.574 . S
C2120 H2115 0.949 . S
C2120 C2126 1.368 . S
C2121 C2105 1.349 1_545 S
C2121 H2113 0.950 . S
C2121 C2119 1.327 . S
C2122 C2110 1.349 . S
C2122 H2116 0.950 . S
C2122 C2123 1.327 . S
C2123 H2117 0.950 . S
C2123 C2122 1.327 . S
C2123 C2127 1.429 . S
C2124 C2107 1.574 . S
C2124 H2118 0.949 . S
C2124 C2128 1.368 . S
C2125 C2106 1.429 . S
C2125 C2119 1.429 . S
C2125 C2126 1.523 . S
C2126 C2107 1.368 . S
C2126 C2120 1.368 . S
C2126 C2125 1.523 . S
C2127 C2111 1.429 . S
C2127 C2123 1.429 . S
C2127 C2128 1.523 . S
C2128 C2112 1.368 . S
C2128 C2124 1.368 . S
C2128 C2127 1.523 . S
H2129 C2104 0.950 1_565 S
H2130 C2106 0.950 . S
H2131 C2107 0.949 . S
H2132 C2109 0.950 . S
H2133 C2111 0.950 . S
C2134 C2135 1.349 . S
C2134 C2136 1.327 . S
C2134 H2159 0.950 . S
C2135 C2134 1.349 . S
C2135 C2151 1.349 . S
C2136 C2134 1.327 . S
C2136 C2155 1.429 . S
C2136 H2160 0.950 . S
C2137 C2154 1.574 . S
C2137 C2156 1.368 . S
C2137 H2161 0.949 . S
H2138 C2142 0.949 . S
C2139 C2140 1.349 1_455 S
C2139 C2141 1.327 . S
C2139 H2162 0.950 . S
C2140 C2139 1.349 1_655 S
C2140 C2152 1.349 . S
C2141 C2139 1.327 . S
C2141 C2157 1.429 . S
C2141 H2163 0.950 . S
C2142 H2138 0.949 . S
C2142 C2150 1.574 . S
C2142 C2158 1.368 . S
H2143 C2151 0.950 . S
H2144 C2149 0.950 . S
H2145 C2150 0.949 . S
H2146 C2152 0.950 . S
H2147 C2153 0.950 . S
H2148 C2154 0.949 . S
C2149 H2144 0.950 . S
C2149 C2151 1.327 . S
C2149 C2155 1.429 . S
C2150 C2142 1.574 . S
C2150 H2145 0.949 . S
C2150 C2156 1.368 . S
C2151 C2135 1.349 . S
C2151 H2143 0.950 . S
C2151 C2149 1.327 . S
C2152 C2140 1.349 . S
C2152 H2146 0.950 . S
C2152 C2153 1.327 1_655 S
C2153 H2147 0.950 . S
C2153 C2152 1.327 1_455 S
C2153 C2157 1.429 . S
C2154 C2137 1.574 . S
C2154 H2148 0.949 . S
C2154 C2158 1.368 . S
C2155 C2136 1.429 . S
C2155 C2149 1.429 . S
C2155 C2156 1.523 . S
C2156 C2137 1.368 . S
C2156 C2150 1.368 . S
C2156 C2155 1.523 . S
C2157 C2141 1.429 . S
C2157 C2153 1.429 . S
C2157 C2158 1.523 . S
C2158 C2142 1.368 . S
C2158 C2154 1.368 . S
C2158 C2157 1.523 . S
H2159 C2134 0.950 . S
H2160 C2136 0.950 . S
H2161 C2137 0.949 . S
H2162 C2139 0.950 . S
H2163 C2141 0.950 . S
C2164 C2165 1.349 1_565 S
C2164 C2166 1.327 . S
C2164 H2189 0.950 1_565 S
C2165 C2164 1.349 1_545 S
C2165 C2181 1.349 1_545 S
C2166 C2164 1.327 . S
C2166 C2185 1.429 . S
C2166 H2190 0.950 . S
C2167 C2184 1.574 . S
C2167 C2186 1.368 . S
C2167 H2191 0.949 . S
H2168 C2172 0.949 . S
C2169 C2170 1.349 . S
C2169 C2171 1.327 . S
C2169 H2192 0.950 . S
C2170 C2169 1.349 . S
C2170 C2182 1.349 . S
C2171 C2169 1.327 . S
C2171 C2187 1.429 . S
C2171 H2193 0.950 . S
C2172 H2168 0.949 . S
C2172 C2180 1.574 . S
C2172 C2188 1.368 . S
H2173 C2181 0.950 . S
H2174 C2179 0.950 . S
H2175 C2180 0.949 . S
H2176 C2182 0.950 . S
H2177 C2183 0.950 . S
H2178 C2184 0.949 . S
C2179 H2174 0.950 . S
C2179 C2181 1.327 . S
C2179 C2185 1.429 . S
C2180 C2172 1.574 . S
C2180 H2175 0.949 . S
C2180 C2186 1.368 . S
C2181 C2165 1.349 1_565 S
C2181 H2173 0.950 . S
C2181 C2179 1.327 . S
C2182 C2170 1.349 . S
C2182 H2176 0.950 . S
C2182 C2183 1.327 . S
C2183 H2177 0.950 . S
C2183 C2182 1.327 . S
C2183 C2187 1.429 . S
C2184 C2167 1.574 . S
C2184 H2178 0.949 . S
C2184 C2188 1.368 . S
C2185 C2166 1.429 . S
C2185 C2179 1.429 . S
C2185 C2186 1.523 . S
C2186 C2167 1.368 . S
C2186 C2180 1.368 . S
C2186 C2185 1.523 . S
C2187 C2171 1.429 . S
C2187 C2183 1.429 . S
C2187 C2188 1.523 . S
C2188 C2172 1.368 . S
C2188 C2184 1.368 . S
C2188 C2187 1.523 . S
H2189 C2164 0.950 1_545 S
H2190 C2166 0.950 . S
H2191 C2167 0.949 . S
H2192 C2169 0.950 . S
H2193 C2171 0.950 . S
C2194 C2195 1.349 . S
C2194 C2196 1.327 . S
C2194 H2219 0.950 . S
C2195 C2194 1.349 . S
C2195 C2211 1.349 . S
C2196 C2194 1.327 . S
C2196 C2215 1.429 . S
C2196 H2220 0.950 . S
C2197 C2214 1.574 . S
C2197 C2216 1.368 . S
C2197 H2221 0.949 . S
H2198 C2202 0.949 . S
C2199 C2200 1.349 . S
C2199 C2201 1.327 1_455 S
C2199 H2222 0.950 . S
C2200 C2199 1.349 . S
C2200 C2212 1.349 1_455 S
C2201 C2199 1.327 1_655 S
C2201 C2217 1.429 . S
C2201 H2223 0.950 . S
C2202 H2198 0.949 . S
C2202 C2210 1.574 . S
C2202 C2218 1.368 . S
H2203 C2211 0.950 . S
H2204 C2209 0.950 . S
H2205 C2210 0.949 . S
H2206 C2212 0.950 . S
H2207 C2213 0.950 . S
H2208 C2214 0.949 . S
C2209 H2204 0.950 . S
C2209 C2211 1.327 . S
C2209 C2215 1.429 . S
C2210 C2202 1.574 . S
C2210 H2205 0.949 . S
C2210 C2216 1.368 . S
C2211 C2195 1.349 . S
C2211 H2203 0.950 . S
C2211 C2209 1.327 . S
C2212 C2200 1.349 1_655 S
C2212 H2206 0.950 . S
C2212 C2213 1.327 . S
C2213 H2207 0.950 . S
C2213 C2212 1.327 . S
C2213 C2217 1.429 . S
C2214 C2197 1.574 . S
C2214 H2208 0.949 . S
C2214 C2218 1.368 . S
C2215 C2196 1.429 . S
C2215 C2209 1.429 . S
C2215 C2216 1.523 . S
C2216 C2197 1.368 . S
C2216 C2210 1.368 . S
C2216 C2215 1.523 . S
C2217 C2201 1.429 . S
C2217 C2213 1.429 . S
C2217 C2218 1.523 . S
C2218 C2202 1.368 . S
C2218 C2214 1.368 . S
C2218 C2217 1.523 . S
H2219 C2194 0.950 . S
H2220 C2196 0.950 . S
H2221 C2197 0.949 . S
H2222 C2199 0.950 . S
H2223 C2201 0.950 . S
C545 C90 0.567 . S
C550 C15 0.567 . S
C575 C117 0.567 . S
C580 C49 0.567 . S
C605 C158 0.567 . S
C610 C219 0.567 . S
C635 C253 0.567 . S
C640 C185 0.567 . S
C665 C287 0.567 . S
C670 C362 0.567 . S
C695 C396 0.567 . S
C700 C321 0.567 . S
C725 C430 0.567 . S
C730 C491 0.567 . S
C755 C532 0.567 . S
C760 C457 0.567 . S
C785 C28 0.429 . S
C790 C142 0.429 . S
C815 C62 0.429 . S
C820 C198 0.429 . S
C845 C74 0.429 . S
C850 C232 0.429 . S
C875 C266 0.429 . S
C880 C130 0.429 . S
C905 C300 0.429 . S
C910 C414 0.429 . S
C935 C470 0.429 . S
C940 C334 0.429 . S
C965 C504 0.429 . S
C970 C346 0.429 . S
C995 C516 0.429 . S
C1000 C380 0.429 . S
C1025 C17 3.106 . S
C1030 C511 2.987 . S
C1055 C51 3.106 . S
C1060 C409 2.987 . S
C1085 C445 2.987 . S
C1090 C85 3.106 . S
C1115 C479 2.987 . S
C1120 C119 3.106 . S
C1145 C37 2.987 1_554 S
C1150 C153 3.106 . S
C1175 C69 2.987 1_556 S
C1180 C187 3.106 . S
C1205 C221 3.106 . S
C1210 C105 2.987 1_554 S
C1235 C3 2.987 1_556 S
C1240 C255 3.106 . S
C1265 C241 2.987 . S
C1270 C289 3.106 . S
C1295 C137 2.987 . S
C1300 C323 3.106 . S
C1325 C357 3.106 . S
C1330 C173 2.987 . S
C1355 C207 2.987 . S
C1360 C391 3.106 . S
C1385 C425 3.106 . S
C1390 C309 2.987 . S
C1415 C341 2.987 . S
C1420 C459 3.106 . S
C1445 C493 3.106 . S
C1450 C375 2.987 . S
C1475 C527 3.106 . S
C1480 C275 2.987 . S
C1505 C477 1.644 . S
C1510 C1 1.644 1_556 S
C1535 C35 1.644 1_554 S
C1540 C513 1.644 . S
C1565 C411 1.644 . S
C1570 C71 1.644 1_556 S
C1595 C103 1.644 1_554 S
C1600 C443 1.644 . S
C1625 C139 1.644 . S
C1630 C343 1.644 . S
C1655 C377 1.644 . S
C1660 C171 1.644 . S
C1685 C205 1.644 . S
C1690 C273 1.644 . S
C1715 C307 1.644 . S
C1720 C239 1.644 . S
C1745 C56 0.709 . S
C1750 C6 0.689 . S
C1775 C40 0.689 . S
C1780 C83 0.709 . S
C1805 C96 0.689 . S
C1810 C124 0.709 . S
C1835 C108 0.689 . S
C1840 C22 0.709 . S
C1865 C164 0.689 . S
C1870 C525 0.709 . S
C1895 C423 0.709 . S
C1900 C176 0.689 . S
C1925 C210 0.689 . S
C1930 C464 0.709 . S
C1955 C244 0.689 . S
C1960 C498 0.709 . S
C1985 C328 0.709 . S
C1990 C278 0.689 . S
C2015 C355 0.709 . S
C2020 C312 0.689 . S
C2045 C368 0.689 . S
C2050 C389 0.709 . S
C2075 C402 0.689 . S
C2080 C294 0.709 . S
C2105 C436 0.689 . S
C2110 C260 0.709 . S
C2135 C151 0.709 . S
C2140 C448 0.689 . S
C2165 C482 0.689 . S
C2170 C192 0.709 . S
C2195 C226 0.709 . S
C2200 C538 0.689 . S
