# Generated by pormake.
# Topology lcs, (4)-cn, num edge types: 1
# Building blocks:
#     Node 0, Type 0, BuildingBlock: GALJAG_clean_sbu_0, # of connection points: 4
#     Node 1, Type 0, BuildingBlock: GALJAG_clean_sbu_0, # of connection points: 4
#     Node 2, Type 0, BuildingBlock: GALJAG_clean_sbu_0, # of connection points: 4
#     Node 3, Type 0, BuildingBlock: GALJAG_clean_sbu_0, # of connection points: 4
#     Node 4, Type 0, BuildingBlock: GALJAG_clean_sbu_0, # of connection points: 4
#     Node 5, Type 0, BuildingBlock: GALJAG_clean_sbu_0, # of connection points: 4
#     Node 6, Type 0, BuildingBlock: GALJAG_clean_sbu_0, # of connection points: 4
#     Node 7, Type 0, BuildingBlock: GALJAG_clean_sbu_0, # of connection points: 4
#     Node 8, Type 0, BuildingBlock: GALJAG_clean_sbu_0, # of connection points: 4
#     Node 9, Type 0, BuildingBlock: GALJAG_clean_sbu_0, # of connection points: 4
#     Node 10, Type 0, BuildingBlock: GALJAG_clean_sbu_0, # of connection points: 4
#     Node 11, Type 0, BuildingBlock: GALJAG_clean_sbu_0, # of connection points: 4
#     Node 12, Type 0, BuildingBlock: GALJAG_clean_sbu_0, # of connection points: 4
#     Node 13, Type 0, BuildingBlock: GALJAG_clean_sbu_0, # of connection points: 4
#     Node 14, Type 0, BuildingBlock: GALJAG_clean_sbu_0, # of connection points: 4
#     Node 15, Type 0, BuildingBlock: GALJAG_clean_sbu_0, # of connection points: 4
#     Node 16, Type 0, BuildingBlock: GALJAG_clean_sbu_0, # of connection points: 4
#     Node 17, Type 0, BuildingBlock: GALJAG_clean_sbu_0, # of connection points: 4
#     Node 18, Type 0, BuildingBlock: GALJAG_clean_sbu_0, # of connection points: 4
#     Node 19, Type 0, BuildingBlock: GALJAG_clean_sbu_0, # of connection points: 4
#     Node 20, Type 0, BuildingBlock: GALJAG_clean_sbu_0, # of connection points: 4
#     Node 21, Type 0, BuildingBlock: GALJAG_clean_sbu_0, # of connection points: 4
#     Node 22, Type 0, BuildingBlock: GALJAG_clean_sbu_0, # of connection points: 4
#     Node 23, Type 0, BuildingBlock: GALJAG_clean_sbu_0, # of connection points: 4
#     Edge 24, Type (0, 0), BuildingBlock: ZUJKAS_clean_linker_0, # of connection points: 2
#     Edge 25, Type (0, 0), BuildingBlock: ZUJKAS_clean_linker_0, # of connection points: 2
#     Edge 26, Type (0, 0), BuildingBlock: ZUJKAS_clean_linker_0, # of connection points: 2
#     Edge 27, Type (0, 0), BuildingBlock: ZUJKAS_clean_linker_0, # of connection points: 2
#     Edge 28, Type (0, 0), BuildingBlock: ZUJKAS_clean_linker_0, # of connection points: 2
#     Edge 29, Type (0, 0), BuildingBlock: ZUJKAS_clean_linker_0, # of connection points: 2
#     Edge 30, Type (0, 0), BuildingBlock: ZUJKAS_clean_linker_0, # of connection points: 2
#     Edge 31, Type (0, 0), BuildingBlock: ZUJKAS_clean_linker_0, # of connection points: 2
#     Edge 32, Type (0, 0), BuildingBlock: ZUJKAS_clean_linker_0, # of connection points: 2
#     Edge 33, Type (0, 0), BuildingBlock: ZUJKAS_clean_linker_0, # of connection points: 2
#     Edge 34, Type (0, 0), BuildingBlock: ZUJKAS_clean_linker_0, # of connection points: 2
#     Edge 35, Type (0, 0), BuildingBlock: ZUJKAS_clean_linker_0, # of connection points: 2
#     Edge 36, Type (0, 0), BuildingBlock: ZUJKAS_clean_linker_0, # of connection points: 2
#     Edge 37, Type (0, 0), BuildingBlock: ZUJKAS_clean_linker_0, # of connection points: 2
#     Edge 38, Type (0, 0), BuildingBlock: ZUJKAS_clean_linker_0, # of connection points: 2
#     Edge 39, Type (0, 0), BuildingBlock: ZUJKAS_clean_linker_0, # of connection points: 2
#     Edge 40, Type (0, 0), BuildingBlock: ZUJKAS_clean_linker_0, # of connection points: 2
#     Edge 41, Type (0, 0), BuildingBlock: ZUJKAS_clean_linker_0, # of connection points: 2
#     Edge 42, Type (0, 0), BuildingBlock: ZUJKAS_clean_linker_0, # of connection points: 2
#     Edge 43, Type (0, 0), BuildingBlock: ZUJKAS_clean_linker_0, # of connection points: 2
#     Edge 44, Type (0, 0), BuildingBlock: ZUJKAS_clean_linker_0, # of connection points: 2
#     Edge 45, Type (0, 0), BuildingBlock: ZUJKAS_clean_linker_0, # of connection points: 2
#     Edge 46, Type (0, 0), BuildingBlock: ZUJKAS_clean_linker_0, # of connection points: 2
#     Edge 47, Type (0, 0), BuildingBlock: ZUJKAS_clean_linker_0, # of connection points: 2
#     Edge 48, Type (0, 0), BuildingBlock: ZUJKAS_clean_linker_0, # of connection points: 2
#     Edge 49, Type (0, 0), BuildingBlock: ZUJKAS_clean_linker_0, # of connection points: 2
#     Edge 50, Type (0, 0), BuildingBlock: ZUJKAS_clean_linker_0, # of connection points: 2
#     Edge 51, Type (0, 0), BuildingBlock: ZUJKAS_clean_linker_0, # of connection points: 2
#     Edge 52, Type (0, 0), BuildingBlock: ZUJKAS_clean_linker_0, # of connection points: 2
#     Edge 53, Type (0, 0), BuildingBlock: ZUJKAS_clean_linker_0, # of connection points: 2
#     Edge 54, Type (0, 0), BuildingBlock: ZUJKAS_clean_linker_0, # of connection points: 2
#     Edge 55, Type (0, 0), BuildingBlock: ZUJKAS_clean_linker_0, # of connection points: 2
#     Edge 56, Type (0, 0), BuildingBlock: ZUJKAS_clean_linker_0, # of connection points: 2
#     Edge 57, Type (0, 0), BuildingBlock: ZUJKAS_clean_linker_0, # of connection points: 2
#     Edge 58, Type (0, 0), BuildingBlock: ZUJKAS_clean_linker_0, # of connection points: 2
#     Edge 59, Type (0, 0), BuildingBlock: ZUJKAS_clean_linker_0, # of connection points: 2
#     Edge 60, Type (0, 0), BuildingBlock: ZUJKAS_clean_linker_0, # of connection points: 2
#     Edge 61, Type (0, 0), BuildingBlock: ZUJKAS_clean_linker_0, # of connection points: 2
#     Edge 62, Type (0, 0), BuildingBlock: ZUJKAS_clean_linker_0, # of connection points: 2
#     Edge 63, Type (0, 0), BuildingBlock: ZUJKAS_clean_linker_0, # of connection points: 2
#     Edge 64, Type (0, 0), BuildingBlock: ZUJKAS_clean_linker_0, # of connection points: 2
#     Edge 65, Type (0, 0), BuildingBlock: ZUJKAS_clean_linker_0, # of connection points: 2
#     Edge 66, Type (0, 0), BuildingBlock: ZUJKAS_clean_linker_0, # of connection points: 2
#     Edge 67, Type (0, 0), BuildingBlock: ZUJKAS_clean_linker_0, # of connection points: 2
#     Edge 68, Type (0, 0), BuildingBlock: ZUJKAS_clean_linker_0, # of connection points: 2
#     Edge 69, Type (0, 0), BuildingBlock: ZUJKAS_clean_linker_0, # of connection points: 2
#     Edge 70, Type (0, 0), BuildingBlock: ZUJKAS_clean_linker_0, # of connection points: 2
#     Edge 71, Type (0, 0), BuildingBlock: ZUJKAS_clean_linker_0, # of connection points: 2
# Relax obj value: 0.033
# Max RMSD: 0.061
# Mean RMSD: 0.060
data_MOF--net-lcs--node1-GALJAG_clean_sbu_0--edge1-ZUJKAS_clean_linker_0
_symmetry_space_group_name_H-M    P1
_symmetry_Int_Tables_number       1
_symmetry_cell_setting            triclinic
loop_
_symmetry_equiv_pos_as_xyz
'x, y, z'
_cell_length_a     64.455366
_cell_length_b     64.450964
_cell_length_c     64.457102
_cell_angle_alpha  90.122855
_cell_angle_beta   90.113361
_cell_angle_gamma 90.106562
loop_
_atom_site_label
_atom_site_type_symbol
_atom_site_fract_x
_atom_site_fract_y
_atom_site_fract_z
_atom_type_partial_charge
In0 In 0.00157 0.2512 0.37535 0.0
O1 O 0.0201 0.24228 0.40421 0.0
O2 O 0.03373 0.2366 0.37477 0.0
C3 C 0.96753 0.26647 0.39438 0.0
C4 C 0.01634 0.28577 0.35678 0.0
C5 C 0.9872 0.21666 0.35635 0.0
O6 O 0.98349 0.26089 0.40425 0.0
O7 O 0.96874 0.26432 0.37498 0.0
O8 O 0.99583 0.23125 0.34657 0.0
O9 O 0.98584 0.21951 0.37567 0.0
C10 C 0.03549 0.2355 0.39423 0.0
O11 O 0.00688 0.27172 0.34689 0.0
O12 O 0.01829 0.28238 0.37593 0.0
In13 In 0.00132 0.7501 0.62669 0.0
O14 O 0.02108 0.74501 0.59768 0.0
O15 O 0.03287 0.73435 0.62654 0.0
C16 C 0.96635 0.76371 0.60811 0.0
C17 C 0.98578 0.71645 0.64613 0.0
C18 C 0.01728 0.78428 0.64508 0.0
O19 O 0.98065 0.75475 0.5982 0.0
O20 O 0.9697 0.76569 0.6273 0.0
O21 O 0.01436 0.76754 0.65479 0.0
O22 O 0.0122 0.78371 0.62618 0.0
C23 C 0.03564 0.73611 0.60726 0.0
O24 O 0.98952 0.73324 0.65554 0.0
O25 O 0.98986 0.71669 0.62701 0.0
In26 In 0.49993 0.7505 0.87683 0.0
O27 O 0.51947 0.74466 0.90583 0.0
O28 O 0.53101 0.7337 0.87698 0.0
C29 C 0.46575 0.76511 0.8961 0.0
C30 C 0.51503 0.78495 0.85839 0.0
C31 C 0.48556 0.71647 0.85687 0.0
O32 O 0.47997 0.75564 0.90562 0.0
O33 O 0.46876 0.76719 0.87689 0.0
O34 O 0.49541 0.73068 0.84772 0.0
O35 O 0.48292 0.71947 0.87602 0.0
C36 C 0.53379 0.73536 0.89629 0.0
O37 O 0.50489 0.77132 0.84859 0.0
O38 O 0.5175 0.7812 0.87742 0.0
In39 In 0.49947 0.24896 0.12358 0.0
O40 O 0.51887 0.22367 0.10824 0.0
O41 O 0.52733 0.25481 0.10219 0.0
C42 C 0.46581 0.26267 0.10274 0.0
C43 C 0.48561 0.21654 0.14605 0.0
C44 C 0.51397 0.28035 0.14742 0.0
O45 O 0.48307 0.25984 0.09395 0.0
O46 O 0.46561 0.2585 0.12183 0.0
O47 O 0.52137 0.26225 0.14835 0.0
O48 O 0.49918 0.28243 0.13479 0.0
C49 C 0.53115 0.23587 0.09925 0.0
O50 O 0.49533 0.23151 0.15423 0.0
O51 O 0.4829 0.21806 0.12673 0.0
In52 In 0.00053 0.7515 0.12546 0.0
O53 O 0.01241 0.73345 0.15359 0.0
O54 O 0.01233 0.71823 0.12433 0.0
C55 C 0.98475 0.78503 0.14502 0.0
C56 C 0.03457 0.7663 0.10598 0.0
C57 C 0.9657 0.73701 0.10719 0.0
O58 O 0.99129 0.76935 0.1547 0.0
O59 O 0.98618 0.78377 0.12555 0.0
O60 O 0.97997 0.74585 0.09712 0.0
O61 O 0.96899 0.73558 0.12644 0.0
C62 C 0.01633 0.71715 0.14345 0.0
O63 O 0.01992 0.75751 0.09638 0.0
O64 O 0.03204 0.76761 0.12532 0.0
In65 In 0.50192 0.74913 0.37432 0.0
O66 O 0.48607 0.73481 0.40266 0.0
O67 O 0.4675 0.74133 0.37625 0.0
C68 C 0.53587 0.76479 0.39333 0.0
C69 C 0.51405 0.71422 0.35455 0.0
C70 C 0.48981 0.7838 0.35438 0.0
O71 O 0.51878 0.76248 0.40259 0.0
O72 O 0.53579 0.75919 0.37457 0.0
O73 O 0.49801 0.76867 0.34503 0.0
O74 O 0.4878 0.7814 0.37369 0.0
C75 C 0.46828 0.73434 0.39447 0.0
O76 O 0.50354 0.72813 0.34568 0.0
O77 O 0.51836 0.71794 0.37328 0.0
In78 In 0.50181 0.24947 0.62544 0.0
O79 O 0.50808 0.22949 0.65397 0.0
O80 O 0.51776 0.21795 0.62465 0.0
C81 C 0.4871 0.28378 0.64456 0.0
C82 C 0.53566 0.26498 0.60627 0.0
C83 C 0.46771 0.23357 0.60688 0.0
O84 O 0.49637 0.26954 0.65423 0.0
O85 O 0.48529 0.2807 0.62532 0.0
O86 O 0.48279 0.24083 0.59674 0.0
O87 O 0.46986 0.23433 0.62631 0.0
C88 C 0.51667 0.21503 0.64397 0.0
O89 O 0.51975 0.25905 0.59645 0.0
O90 O 0.53447 0.26308 0.62569 0.0
In91 In -0.00011 0.25153 0.87397 0.0
O92 O 0.9804 0.24625 0.90303 0.0
O93 O 0.96926 0.23382 0.87456 0.0
C94 C 0.03346 0.26819 0.89285 0.0
C95 C 0.01572 0.21735 0.85556 0.0
C96 C 0.98406 0.28485 0.85418 0.0
O97 O 0.0199 0.25797 0.90258 0.0
O98 O 0.03007 0.26999 0.87367 0.0
O99 O 0.99466 0.27122 0.84496 0.0
O100 O 0.98142 0.2816 0.87328 0.0
C101 C 0.96635 0.23617 0.89376 0.0
O102 O 0.00509 0.23054 0.84578 0.0
O103 O 0.01834 0.22143 0.87453 0.0
In104 In 0.37964 0.00021 0.25173 0.0
O105 O 0.35041 0.00928 0.26952 0.0
O106 O 0.37947 0.01298 0.28472 0.0
C107 C 0.36048 0.98535 0.21744 0.0
C108 C 0.39834 0.03561 0.23953 0.0
C109 C 0.39951 0.96569 0.26471 0.0
O110 O 0.35101 0.9886 0.23423 0.0
O111 O 0.37957 0.98966 0.21792 0.0
O112 O 0.40856 0.97991 0.25481 0.0
O113 O 0.38052 0.9689 0.26804 0.0
C114 C 0.36002 0.01482 0.2857 0.0
O115 O 0.40806 0.02105 0.24824 0.0
O116 O 0.37921 0.03229 0.23692 0.0
In117 In 0.25086 0.12435 0.50015 0.0
O118 O 0.24486 0.09545 0.51973 0.0
O119 O 0.23389 0.12435 0.53112 0.0
C120 C 0.26635 0.10548 0.46612 0.0
C121 C 0.21694 0.14361 0.48486 0.0
C122 C 0.28497 0.143 0.51593 0.0
O123 O 0.25626 0.09581 0.4798 0.0
O124 O 0.26862 0.12461 0.46963 0.0
O125 O 0.27122 0.15286 0.50609 0.0
O126 O 0.2815 0.12384 0.51777 0.0
C127 C 0.23554 0.10508 0.53399 0.0
O128 O 0.2309 0.15316 0.49478 0.0
O129 O 0.22012 0.12443 0.48266 0.0
In130 In 0.12719 0.00114 0.75119 0.0
O131 O 0.09812 0.0194 0.76005 0.0
O132 O 0.12746 0.03347 0.7655 0.0
C133 C 0.10878 0.96682 0.73564 0.0
C134 C 0.14626 0.0154 0.71674 0.0
C135 C 0.14559 0.98699 0.78603 0.0
O136 O 0.09867 0.98281 0.74065 0.0
O137 O 0.12809 0.96816 0.73851 0.0
O138 O 0.1555 0.99631 0.77197 0.0
O139 O 0.12645 0.98484 0.7825 0.0
C140 C 0.108 0.03499 0.76668 0.0
O141 O 0.156 0.00659 0.73124 0.0
O142 O 0.127 0.01704 0.71967 0.0
In143 In 0.25093 0.8764 0.00183 0.0
O144 O 0.23062 0.84783 0.00688 0.0
O145 O 0.21895 0.877 0.01687 0.0
C146 C 0.28533 0.85703 0.98781 0.0
C147 C 0.23577 0.89584 0.96798 0.0
C148 C 0.26616 0.89482 0.03635 0.0
O149 O 0.27059 0.84741 0.99634 0.0
O150 O 0.28271 0.87634 0.98636 0.0
O151 O 0.26229 0.90477 0.01996 0.0
O152 O 0.26231 0.87566 0.03532 0.0
C153 C 0.21597 0.85771 0.01528 0.0
O154 O 0.24167 0.90556 0.98396 0.0
O155 O 0.23751 0.87639 0.9691 0.0
In156 In 0.25066 0.3764 0.99971 0.0
O157 O 0.24301 0.40551 0.01851 0.0
O158 O 0.23781 0.37626 0.03265 0.0
C159 C 0.26513 0.39449 0.96493 0.0
C160 C 0.28527 0.35704 0.01322 0.0
C161 C 0.21568 0.35849 0.98508 0.0
O162 O 0.26075 0.40471 0.98106 0.0
O163 O 0.2621 0.3752 0.96633 0.0
O164 O 0.23098 0.34806 0.99143 0.0
O165 O 0.21802 0.3779 0.9862 0.0
C166 C 0.23695 0.39573 0.03431 0.0
O167 O 0.2687 0.34737 0.00922 0.0
O168 O 0.28431 0.37637 0.01051 0.0
In169 In 0.75077 0.12818 0.00179 0.0
O170 O 0.7615 0.09985 0.02018 0.0
O171 O 0.76119 0.12896 0.03563 0.0
C172 C 0.73578 0.10873 0.96776 0.0
C173 C 0.71594 0.14763 0.01437 0.0
C174 C 0.78569 0.14677 0.98787 0.0
O175 O 0.74101 0.09907 0.98395 0.0
O176 O 0.7381 0.12814 0.96876 0.0
O177 O 0.7709 0.1568 0.99581 0.0
O178 O 0.78287 0.12743 0.98702 0.0
C179 C 0.76494 0.1098 0.03671 0.0
O180 O 0.73143 0.15729 0.00731 0.0
O181 O 0.71805 0.12818 0.01513 0.0
In182 In 0.12658 0.50139 0.24996 0.0
O183 O 0.15554 0.49642 0.23008 0.0
O184 O 0.12697 0.48425 0.219 0.0
C185 C 0.14471 0.51636 0.28467 0.0
C186 C 0.10795 0.5352 0.23375 0.0
C187 C 0.10744 0.46779 0.26604 0.0
O188 O 0.15473 0.50676 0.27086 0.0
O189 O 0.12559 0.51835 0.28097 0.0
O190 O 0.09754 0.48309 0.25893 0.0
O191 O 0.12691 0.46948 0.26503 0.0
C192 C 0.14613 0.48661 0.21595 0.0
O193 O 0.098 0.51904 0.23859 0.0
O194 O 0.12721 0.53426 0.23708 0.0
In195 In 0.75128 0.87523 0.50186 0.0
O196 O 0.74582 0.90361 0.52241 0.0
O197 O 0.73508 0.87437 0.53321 0.0
C198 C 0.76649 0.89422 0.46775 0.0
C199 C 0.78473 0.85576 0.5178 0.0
C200 C 0.71704 0.85693 0.48593 0.0
O201 O 0.75699 0.90396 0.48181 0.0
O202 O 0.76831 0.87503 0.47094 0.0
O203 O 0.7329 0.84677 0.49122 0.0
O204 O 0.71847 0.87625 0.48868 0.0
C205 C 0.73675 0.8936 0.53656 0.0
O206 O 0.76937 0.84602 0.51044 0.0
O207 O 0.78317 0.87526 0.51714 0.0
In208 In 0.87506 0.00091 0.25143 0.0
O209 O 0.84634 0.01228 0.23399 0.0
O210 O 0.87532 0.01344 0.2184 0.0
C211 C 0.85617 0.98508 0.28527 0.0
C212 C 0.89328 0.96614 0.23688 0.0
C213 C 0.89476 0.03512 0.26583 0.0
O214 O 0.84616 0.9916 0.26976 0.0
O215 O 0.87561 0.98654 0.28367 0.0
O216 O 0.90411 0.0208 0.25634 0.0
O217 O 0.87556 0.03216 0.26805 0.0
C218 C 0.85609 0.01693 0.21768 0.0
O219 O 0.90327 0.98021 0.24621 0.0
O220 O 0.87412 0.96963 0.23487 0.0
In221 In 0.25142 0.62664 0.50103 0.0
O222 O 0.2609 0.59822 0.51989 0.0
O223 O 0.26352 0.62783 0.53423 0.0
C224 C 0.23581 0.60773 0.46696 0.0
C225 C 0.21713 0.64571 0.51547 0.0
C226 C 0.28646 0.64454 0.48661 0.0
O227 O 0.24219 0.59774 0.48253 0.0
O228 O 0.23734 0.62717 0.4686 0.0
O229 O 0.2712 0.655 0.49295 0.0
O230 O 0.28399 0.62516 0.48752 0.0
C231 C 0.26587 0.60848 0.53585 0.0
O232 O 0.23226 0.65561 0.50795 0.0
O233 O 0.21932 0.62626 0.51567 0.0
In234 In 0.37736 0.50011 0.74996 0.0
O235 O 0.34889 0.51311 0.73334 0.0
O236 O 0.37702 0.51099 0.71636 0.0
C237 C 0.35839 0.48446 0.78384 0.0
C238 C 0.39636 0.46558 0.73583 0.0
C239 C 0.39675 0.53467 0.7637 0.0
O240 O 0.34903 0.48713 0.76685 0.0
O241 O 0.37725 0.48965 0.78371 0.0
O242 O 0.40646 0.51965 0.75573 0.0
O243 O 0.37736 0.53221 0.76469 0.0
C244 C 0.35815 0.51611 0.71637 0.0
O245 O 0.40621 0.48033 0.74422 0.0
O246 O 0.37702 0.46826 0.73465 0.0
In247 In 0.62632 0.00019 0.75214 0.0
O248 O 0.65504 0.99413 0.73229 0.0
O249 O 0.62607 0.98269 0.72139 0.0
C250 C 0.64515 0.01591 0.78622 0.0
C251 C 0.60754 0.0339 0.73596 0.0
C252 C 0.60705 0.96653 0.76799 0.0
O253 O 0.65481 0.00568 0.77263 0.0
O254 O 0.62607 0.01823 0.78258 0.0
O255 O 0.59729 0.98103 0.7592 0.0
O256 O 0.62644 0.96905 0.76878 0.0
C257 C 0.64531 0.98441 0.7183 0.0
O258 O 0.59762 0.01966 0.74501 0.0
O259 O 0.62688 0.0311 0.73506 0.0
In260 In 0.74926 0.62546 0.00245 0.0
O261 O 0.73709 0.59679 0.01937 0.0
O262 O 0.73736 0.62545 0.0357 0.0
C263 C 0.76504 0.60676 0.96844 0.0
C264 C 0.71476 0.64456 0.98842 0.0
C265 C 0.7837 0.6445 0.01698 0.0
O266 O 0.76144 0.59705 0.98503 0.0
O267 O 0.76071 0.62582 0.96905 0.0
O268 O 0.76907 0.6543 0.00844 0.0
O269 O 0.78094 0.62516 0.01814 0.0
C270 C 0.73313 0.60634 0.036 0.0
O271 O 0.72954 0.65434 0.99681 0.0
O272 O 0.7174 0.62521 0.98713 0.0
In273 In 0.87355 0.50134 0.75131 0.0
O274 O 0.90236 0.51937 0.74127 0.0
O275 O 0.87357 0.53536 0.74179 0.0
C276 C 0.89289 0.46655 0.76424 0.0
C277 C 0.85518 0.51546 0.78617 0.0
C278 C 0.85395 0.48779 0.7167 0.0
O279 O 0.90264 0.4828 0.75931 0.0
O280 O 0.87343 0.46788 0.76265 0.0
O281 O 0.84479 0.48966 0.73388 0.0
O282 O 0.87286 0.49276 0.71702 0.0
C283 C 0.89278 0.53615 0.73817 0.0
O284 O 0.84544 0.51311 0.76932 0.0
O285 O 0.87412 0.51061 0.78544 0.0
In286 In 0.75118 0.37536 0.50014 0.0
O287 O 0.73402 0.34686 0.51256 0.0
O288 O 0.71663 0.37431 0.50735 0.0
C289 C 0.78598 0.35615 0.48698 0.0
C290 C 0.73818 0.39468 0.46537 0.0
C291 C 0.76401 0.39534 0.53473 0.0
O292 O 0.76869 0.34699 0.48801 0.0
O293 O 0.78569 0.37488 0.49267 0.0
O294 O 0.76189 0.40443 0.51753 0.0
O295 O 0.75959 0.37627 0.53446 0.0
C296 C 0.71658 0.35569 0.5133 0.0
O297 O 0.73971 0.40392 0.48259 0.0
O298 O 0.74329 0.3758 0.46571 0.0
In299 In 0.62334 0.49781 0.25074 0.0
O300 O 0.59358 0.51611 0.25681 0.0
O301 O 0.62238 0.53046 0.26417 0.0
C302 C 0.6059 0.46188 0.2379 0.0
C303 C 0.64127 0.51323 0.21622 0.0
C304 C 0.64338 0.48406 0.28488 0.0
O305 O 0.59539 0.47652 0.24555 0.0
O306 O 0.62511 0.46542 0.23671 0.0
O307 O 0.65258 0.48758 0.26799 0.0
O308 O 0.62414 0.48755 0.28455 0.0
C309 C 0.60288 0.53191 0.2638 0.0
O310 O 0.65108 0.51082 0.23301 0.0
O311 O 0.62247 0.50784 0.21685 0.0
H312 H 0.0659 0.45926 0.26739 0.0
H313 H 0.04908 0.42843 0.28189 0.0
H314 H 0.10889 0.40398 0.29924 0.0
H315 H 0.12581 0.4345 0.28442 0.0
H316 H 0.08416 0.37485 0.28045 0.0
H317 H 0.04115 0.41533 0.34311 0.0
H318 H 0.03613 0.4252 0.31756 0.0
H319 H 0.06166 0.42766 0.32861 0.0
C320 C 0.07544 0.44733 0.27435 0.0
C321 C 0.09716 0.44932 0.27486 0.0
C322 C 0.06581 0.42978 0.28272 0.0
C323 C 0.07772 0.41407 0.29192 0.0
C324 C 0.09941 0.41596 0.29227 0.0
H325 H 0.0392 0.31653 0.37478 0.0
H326 H 0.05362 0.34743 0.35821 0.0
C327 C 0.10904 0.43342 0.28383 0.0
C328 C 0.06771 0.39544 0.30095 0.0
H329 H 0.03392 0.37958 0.33845 0.0
C330 C 0.07315 0.37586 0.29312 0.0
C331 C 0.05354 0.39682 0.31763 0.0
C332 C 0.04789 0.41735 0.32739 0.0
C333 C 0.06482 0.35759 0.30151 0.0
C334 C 0.05033 0.35899 0.31791 0.0
C335 C 0.04489 0.37857 0.32575 0.0
C336 C 0.04129 0.34029 0.32776 0.0
C337 C 0.07206 0.33695 0.29314 0.0
C338 C 0.02937 0.32614 0.31618 0.0
C339 C 0.02122 0.30838 0.32559 0.0
C340 C 0.02468 0.30461 0.34678 0.0
C341 C 0.03631 0.31899 0.35841 0.0
C342 C 0.04452 0.33667 0.34898 0.0
H343 H 0.08684 0.33844 0.28441 0.0
H344 H 0.07432 0.3256 0.30587 0.0
H345 H 0.06014 0.33066 0.28238 0.0
H346 H 0.02633 0.32887 0.29988 0.0
H347 H 0.01218 0.29764 0.31628 0.0
H348 H 0.95458 0.75962 0.56752 0.0
H349 H 0.9233 0.77357 0.55101 0.0
H350 H 0.90426 0.79998 0.60948 0.0
H351 H 0.9352 0.78576 0.62615 0.0
H352 H 0.87229 0.78044 0.5891 0.0
H353 H 0.91386 0.83425 0.53628 0.0
H354 H 0.92157 0.80759 0.53398 0.0
H355 H 0.92654 0.82147 0.5577 0.0
C356 C 0.9437 0.76839 0.57684 0.0
C357 C 0.94737 0.7717 0.59809 0.0
C358 C 0.92592 0.77644 0.56737 0.0
C359 C 0.91164 0.7881 0.57896 0.0
C360 C 0.91512 0.7911 0.60025 0.0
H361 H 0.81813 0.87361 0.53673 0.0
H362 H 0.84853 0.85625 0.55132 0.0
C363 C 0.93282 0.78299 0.60973 0.0
C364 C 0.89302 0.79721 0.56903 0.0
H365 H 0.87746 0.83178 0.53211 0.0
C366 C 0.87339 0.79164 0.57661 0.0
C367 C 0.89455 0.81199 0.55291 0.0
C368 C 0.91525 0.81936 0.54483 0.0
C369 C 0.85521 0.80049 0.56854 0.0
C370 C 0.85673 0.815 0.55217 0.0
C371 C 0.87636 0.82053 0.54456 0.0
C372 C 0.8382 0.82528 0.54327 0.0
C373 C 0.83463 0.7947 0.57805 0.0
C374 C 0.8224 0.81364 0.53373 0.0
C375 C 0.80494 0.82352 0.5255 0.0
C376 C 0.80311 0.84523 0.52648 0.0
C377 C 0.81909 0.85686 0.53578 0.0
C378 C 0.83647 0.84697 0.54409 0.0
H379 H 0.83656 0.78762 0.59364 0.0
H380 H 0.82442 0.80848 0.57951 0.0
H381 H 0.82671 0.78319 0.56793 0.0
H382 H 0.82363 0.79692 0.53254 0.0
H383 H 0.79294 0.81418 0.51829 0.0
H384 H 0.37878 0.56828 0.78193 0.0
H385 H 0.39596 0.59931 0.79551 0.0
H386 H 0.45531 0.57499 0.77663 0.0
H387 H 0.43822 0.54368 0.76323 0.0
H388 H 0.45534 0.59009 0.81683 0.0
H389 H 0.42093 0.64753 0.76304 0.0
H390 H 0.40184 0.63183 0.77584 0.0
H391 H 0.41991 0.61993 0.75824 0.0
C392 C 0.39548 0.56958 0.78056 0.0
C393 C 0.40717 0.55359 0.77146 0.0
C394 C 0.40525 0.58738 0.7882 0.0
C395 C 0.42686 0.5896 0.78675 0.0
C396 C 0.43859 0.57362 0.77776 0.0
H397 H 0.49054 0.70598 0.81609 0.0
H398 H 0.47783 0.67471 0.79844 0.0
C399 C 0.42882 0.55578 0.77011 0.0
C400 C 0.43721 0.60823 0.79544 0.0
H401 H 0.43752 0.66115 0.79338 0.0
C402 C 0.4516 0.60563 0.81158 0.0
C403 C 0.43253 0.62845 0.78836 0.0
C404 C 0.41812 0.63215 0.77028 0.0
C405 C 0.4609 0.62277 0.82135 0.0
C406 C 0.45536 0.64302 0.81502 0.0
C407 C 0.44155 0.6456 0.79837 0.0
C408 C 0.46336 0.66174 0.82577 0.0
C409 C 0.47661 0.61902 0.83832 0.0
C410 C 0.45918 0.66492 0.8469 0.0
C411 C 0.46644 0.6827 0.857 0.0
C412 C 0.47785 0.69773 0.84611 0.0
C413 C 0.48182 0.69464 0.82489 0.0
C414 C 0.47458 0.67681 0.8148 0.0
H415 H 0.48353 0.60328 0.83713 0.0
H416 H 0.48928 0.6307 0.83782 0.0
H417 H 0.46882 0.62022 0.85361 0.0
H418 H 0.45013 0.65372 0.85554 0.0
H419 H 0.46302 0.68471 0.87333 0.0
H420 H 0.56165 0.25906 0.08103 0.0
H421 H 0.59268 0.2463 0.06312 0.0
H422 H 0.57252 0.18326 0.07302 0.0
H423 H 0.54149 0.19584 0.0907 0.0
H424 H 0.62309 0.22063 0.08044 0.0
H425 H 0.58746 0.18354 0.01136 0.0
H426 H 0.57372 0.20195 0.0274 0.0
H427 H 0.57604 0.17532 0.03536 0.0
C428 C 0.56372 0.24249 0.07912 0.0
C429 C 0.54914 0.22844 0.08721 0.0
C430 C 0.58144 0.23524 0.06893 0.0
C431 C 0.58473 0.21385 0.0665 0.0
C432 C 0.57006 0.19983 0.07434 0.0
H433 H 0.68076 0.12988 0.02973 0.0
H434 H 0.64927 0.14741 0.04155 0.0
C435 C 0.5524 0.20704 0.08454 0.0
C436 C 0.60413 0.20603 0.05704 0.0
H437 H 0.62258 0.17423 0.01892 0.0
C438 C 0.62305 0.21072 0.06682 0.0
C439 C 0.60398 0.19308 0.0393 0.0
C440 C 0.58423 0.18832 0.02761 0.0
C441 C 0.64176 0.20209 0.05983 0.0
C442 C 0.64152 0.18871 0.04241 0.0
C443 C 0.62267 0.18444 0.03232 0.0
C444 C 0.66056 0.17832 0.03491 0.0
C445 C 0.6615 0.2067 0.07161 0.0
C446 C 0.67722 0.18991 0.02706 0.0
C447 C 0.69525 0.17994 0.02033 0.0
C448 C 0.69684 0.15821 0.02126 0.0
C449 C 0.68001 0.14664 0.02888 0.0
C450 C 0.66201 0.15662 0.03559 0.0
H451 H 0.65835 0.2136 0.0871 0.0
H452 H 0.6708 0.19237 0.07374 0.0
H453 H 0.67099 0.21791 0.06265 0.0
H454 H 0.67626 0.20666 0.02609 0.0
H455 H 0.70793 0.18925 0.01442 0.0
H456 H 0.06758 0.53955 0.22151 0.0
H457 H 0.05138 0.57016 0.20593 0.0
H458 H 0.10932 0.60342 0.2109 0.0
H459 H 0.12572 0.57277 0.22597 0.0
H460 H 0.04607 0.60927 0.22104 0.0
H461 H 0.09482 0.61148 0.15035 0.0
H462 H 0.09436 0.58946 0.16758 0.0
H463 H 0.10976 0.61194 0.17386 0.0
C464 C 0.07687 0.55338 0.2192 0.0
C465 C 0.09795 0.55373 0.22478 0.0
C466 C 0.06759 0.57085 0.21033 0.0
C467 C 0.07924 0.58894 0.2069 0.0
C468 C 0.10018 0.58946 0.21291 0.0
H469 H 0.03061 0.71247 0.18311 0.0
H470 H 0.04537 0.68119 0.19874 0.0
C471 C 0.10949 0.57197 0.22163 0.0
C472 C 0.06944 0.60737 0.19729 0.0
H473 H 0.07377 0.6411 0.15678 0.0
C474 C 0.05204 0.61619 0.20693 0.0
C475 C 0.07708 0.61618 0.17871 0.0
C476 C 0.0949 0.60667 0.16689 0.0
C477 C 0.04229 0.63382 0.19869 0.0
C478 C 0.05047 0.64313 0.1806 0.0
C479 C 0.06765 0.63409 0.17078 0.0
C480 C 0.04131 0.66208 0.17135 0.0
C481 C 0.0231 0.64203 0.20925 0.0
C482 C 0.03466 0.66191 0.1506 0.0
C483 C 0.02654 0.67982 0.14156 0.0
C484 C 0.02487 0.69825 0.15312 0.0
C485 C 0.03156 0.69844 0.17388 0.0
C486 C 0.03985 0.68054 0.18287 0.0
H487 H 0.01552 0.62995 0.21892 0.0
H488 H 0.02749 0.6551 0.2196 0.0
H489 H 0.01165 0.64781 0.19774 0.0
H490 H 0.03573 0.64787 0.14139 0.0
H491 H 0.02151 0.67921 0.12552 0.0
H492 H 0.57478 0.76808 0.37725 0.0
H493 H 0.60563 0.78274 0.3939 0.0
H494 H 0.56981 0.79642 0.4487 0.0
H495 H 0.53897 0.78131 0.4323 0.0
H496 H 0.61208 0.82198 0.40761 0.0
H497 H 0.61961 0.76661 0.47294 0.0
H498 H 0.60283 0.76181 0.45099 0.0
H499 H 0.59466 0.77884 0.47154 0.0
C500 C 0.57351 0.77409 0.3929 0.0
C501 C 0.5545 0.77348 0.40352 0.0
C502 C 0.59113 0.78247 0.40238 0.0
C503 C 0.5901 0.79039 0.42265 0.0
C504 C 0.57109 0.78995 0.43324 0.0
H505 H 0.68005 0.8753 0.47694 0.0
H506 H 0.64915 0.8591 0.46188 0.0
C507 C 0.55345 0.78144 0.42381 0.0
C508 C 0.60877 0.79979 0.43232 0.0
H509 H 0.64115 0.79661 0.47418 0.0
C510 C 0.61848 0.81639 0.42213 0.0
C511 C 0.61724 0.7923 0.45113 0.0
C512 C 0.60819 0.77378 0.46221 0.0
C513 C 0.6363 0.82588 0.43035 0.0
C514 C 0.64435 0.81887 0.44952 0.0
C515 C 0.63481 0.80209 0.45959 0.0
C516 C 0.66284 0.82857 0.45924 0.0
C517 C 0.64656 0.84304 0.41818 0.0
C518 C 0.68055 0.81662 0.46341 0.0
C519 C 0.69815 0.82579 0.47225 0.0
C520 C 0.69831 0.84707 0.47707 0.0
C521 C 0.68044 0.85891 0.4732 0.0
C522 C 0.66282 0.84971 0.4645 0.0
H523 H 0.64208 0.84254 0.40153 0.0
H524 H 0.64162 0.85825 0.42454 0.0
H525 H 0.66373 0.84208 0.41931 0.0
H526 H 0.68084 0.80025 0.45958 0.0
H527 H 0.71168 0.81627 0.47511 0.0
H528 H 0.49033 0.29455 0.68548 0.0
H529 H 0.47626 0.32552 0.70244 0.0
H530 H 0.45097 0.346 0.64398 0.0
H531 H 0.46526 0.3153 0.62687 0.0
H532 H 0.47113 0.37727 0.66555 0.0
H533 H 0.4152 0.33568 0.71615 0.0
H534 H 0.44163 0.32722 0.71861 0.0
H535 H 0.42801 0.32329 0.69456 0.0
C536 C 0.48175 0.30565 0.67627 0.0
C537 C 0.47881 0.30248 0.65488 0.0
C538 C 0.47364 0.32327 0.68599 0.0
C539 C 0.46231 0.33789 0.67451 0.0
C540 C 0.4596 0.33486 0.65312 0.0
H541 H 0.37824 0.43298 0.71579 0.0
H542 H 0.3952 0.40223 0.70149 0.0
C543 C 0.46774 0.31731 0.64338 0.0
C544 C 0.45337 0.35646 0.68467 0.0
H545 H 0.41833 0.37193 0.72119 0.0
C546 C 0.45962 0.37614 0.67776 0.0
C547 C 0.4382 0.35488 0.70041 0.0
C548 C 0.43019 0.33415 0.70779 0.0
C549 C 0.45107 0.39431 0.68614 0.0
C550 C 0.43614 0.39274 0.70212 0.0
C551 C 0.42992 0.37306 0.70906 0.0
C552 C 0.42607 0.4113 0.71119 0.0
C553 C 0.45763 0.41501 0.67739 0.0
C554 C 0.43779 0.42646 0.72163 0.0
C555 C 0.42815 0.44411 0.72974 0.0
C556 C 0.4066 0.44678 0.72769 0.0
C557 C 0.39487 0.43138 0.71757 0.0
C558 C 0.40453 0.41379 0.70942 0.0
H559 H 0.46529 0.41332 0.66205 0.0
H560 H 0.44411 0.42552 0.67567 0.0
H561 H 0.46886 0.42245 0.68816 0.0
H562 H 0.45439 0.42463 0.72352 0.0
H563 H 0.43756 0.45567 0.73759 0.0
H564 H 0.93472 0.21352 0.87698 0.0
H565 H 0.90407 0.1999 0.89468 0.0
H566 H 0.92543 0.22665 0.9523 0.0
H567 H 0.95633 0.24011 0.93474 0.0
H568 H 0.91218 0.18591 0.9563 0.0
H569 H 0.85372 0.23295 0.91434 0.0
H570 H 0.8706 0.21867 0.89743 0.0
H571 H 0.88112 0.23882 0.91371 0.0
C572 C 0.93286 0.21656 0.89341 0.0
C573 C 0.94786 0.22795 0.90447 0.0
C574 C 0.91529 0.20888 0.90346 0.0
C575 C 0.91232 0.21259 0.92471 0.0
C576 C 0.92738 0.22375 0.93585 0.0
H577 H 0.79553 0.18802 0.98861 0.0
H578 H 0.82682 0.20459 0.97478 0.0
C579 C 0.945 0.23142 0.92581 0.0
C580 C 0.89376 0.2043 0.93539 0.0
H581 H 0.84081 0.20469 0.93441 0.0
C582 C 0.89656 0.19012 0.95164 0.0
C583 C 0.87343 0.21007 0.92947 0.0
C584 C 0.86947 0.22612 0.91292 0.0
C585 C 0.87955 0.18104 0.96172 0.0
C586 C 0.85922 0.18605 0.95511 0.0
C587 C 0.85642 0.20072 0.9393 0.0
C588 C 0.84065 0.17594 0.96409 0.0
C589 C 0.88349 0.16628 0.97942 0.0
C590 C 0.83801 0.15438 0.9625 0.0
C591 C 0.82022 0.14489 0.97041 0.0
C592 C 0.80466 0.15683 0.9799 0.0
C593 C 0.80729 0.17843 0.98141 0.0
C594 C 0.82512 0.18791 0.97352 0.0
H595 H 0.89909 0.16873 0.98638 0.0
H596 H 0.87162 0.16806 0.99176 0.0
H597 H 0.88277 0.1501 0.97354 0.0
H598 H 0.84958 0.14491 0.95485 0.0
H599 H 0.81856 0.12823 0.9689 0.0
H600 H 0.2906 0.1228 0.43618 0.0
H601 H 0.3048 0.10594 0.40533 0.0
H602 H 0.2753 0.04846 0.42278 0.0
H603 H 0.26136 0.06514 0.45396 0.0
H604 H 0.31559 0.04297 0.41107 0.0
H605 H 0.27406 0.0902 0.35258 0.0
H606 H 0.2885 0.1057 0.37074 0.0
H607 H 0.26705 0.09022 0.37968 0.0
C608 C 0.28707 0.10659 0.43341 0.0
C609 C 0.2748 0.0953 0.44743 0.0
C610 C 0.29508 0.09702 0.4157 0.0
C611 C 0.29077 0.07606 0.41156 0.0
C612 C 0.27868 0.06469 0.42563 0.0
H613 H 0.3183 0.0175 0.29251 0.0
H614 H 0.30082 0.03094 0.32344 0.0
C615 C 0.27073 0.07424 0.44341 0.0
C616 C 0.29947 0.06587 0.39288 0.0
H617 H 0.30224 0.06964 0.34015 0.0
C618 C 0.31254 0.04868 0.39554 0.0
C619 C 0.29522 0.07314 0.37262 0.0
C620 C 0.28027 0.09069 0.36867 0.0
C621 C 0.32199 0.03895 0.37851 0.0
C622 C 0.3186 0.04692 0.35835 0.0
C623 C 0.30502 0.0637 0.35564 0.0
C624 C 0.32921 0.0383 0.33988 0.0
C625 C 0.33536 0.02013 0.38229 0.0
C626 C 0.35096 0.03819 0.33879 0.0
C627 C 0.36096 0.03042 0.32122 0.0
C628 C 0.34939 0.02286 0.30431 0.0
C629 C 0.32762 0.02319 0.30533 0.0
C630 C 0.31762 0.03086 0.32296 0.0
H631 H 0.33136 0.01242 0.39716 0.0
H632 H 0.33374 0.00866 0.36951 0.0
H633 H 0.35186 0.02501 0.38319 0.0
H634 H 0.36021 0.04433 0.35144 0.0
H635 H 0.37776 0.03051 0.32081 0.0
H636 H 0.12826 0.03556 0.68427 0.0
H637 H 0.14512 0.04878 0.65303 0.0
H638 H 0.20408 0.02605 0.67502 0.0
H639 H 0.18734 0.01301 0.70654 0.0
H640 H 0.20598 0.06639 0.66054 0.0
H641 H 0.16629 0.01542 0.60354 0.0
H642 H 0.14865 0.02922 0.62005 0.0
H643 H 0.166 0.01037 0.63108 0.0
C644 C 0.14481 0.03329 0.68242 0.0
C645 C 0.15648 0.02319 0.6978 0.0
C646 C 0.15439 0.04073 0.6645 0.0
C647 C 0.17578 0.03806 0.66155 0.0
C648 C 0.18752 0.02813 0.67695 0.0
H649 H 0.2381 0.064 0.54408 0.0
H650 H 0.22493 0.04708 0.57544 0.0
C651 C 0.17794 0.02069 0.69492 0.0
C652 C 0.18595 0.04634 0.64271 0.0
H653 H 0.18448 0.04464 0.58979 0.0
C654 C 0.20142 0.06152 0.64507 0.0
C655 C 0.18018 0.03974 0.62256 0.0
C656 C 0.16452 0.02264 0.6191 0.0
C657 C 0.21079 0.07079 0.62777 0.0
C658 C 0.20425 0.06495 0.60762 0.0
C659 C 0.18929 0.04926 0.60527 0.0
C660 C 0.21242 0.07522 0.58879 0.0
C661 C 0.22767 0.08669 0.63123 0.0
C662 C 0.20948 0.09657 0.58581 0.0
C663 C 0.21699 0.10626 0.56798 0.0
C664 C 0.22744 0.09472 0.55272 0.0
C665 C 0.23014 0.07329 0.5556 0.0
C666 C 0.22264 0.06361 0.57348 0.0
H667 H 0.23488 0.08507 0.64681 0.0
H668 H 0.23998 0.08535 0.61928 0.0
H669 H 0.22088 0.10247 0.63021 0.0
H670 H 0.20122 0.10573 0.59722 0.0
H671 H 0.21457 0.12278 0.56613 0.0
H672 H 0.12792 0.96377 0.81658 0.0
H673 H 0.14454 0.95021 0.84784 0.0
H674 H 0.20227 0.97895 0.82996 0.0
H675 H 0.18584 0.99221 0.79836 0.0
H676 H 0.20761 0.9391 0.84236 0.0
H677 H 0.16025 0.98141 0.90017 0.0
H678 H 0.14475 0.96668 0.88226 0.0
H679 H 0.16022 0.988 0.87297 0.0
C680 C 0.14413 0.96729 0.81935 0.0
C681 C 0.15557 0.97911 0.80508 0.0
C682 C 0.15357 0.95965 0.8373 0.0
C683 C 0.17454 0.96391 0.84143 0.0
C684 C 0.18603 0.97561 0.82713 0.0
H685 H 0.23299 0.93753 0.96088 0.0
H686 H 0.21944 0.95477 0.92985 0.0
C687 C 0.17663 0.98317 0.80911 0.0
C688 C 0.18465 0.95544 0.86026 0.0
H689 H 0.18068 0.95327 0.91302 0.0
C690 C 0.20184 0.94233 0.85783 0.0
C691 C 0.1773 0.95994 0.88045 0.0
C692 C 0.15975 0.97495 0.88418 0.0
C693 C 0.21149 0.93307 0.875 0.0
C694 C 0.20344 0.93669 0.89508 0.0
C695 C 0.18667 0.95032 0.89758 0.0
C696 C 0.21198 0.92624 0.91369 0.0
C697 C 0.23032 0.91966 0.87144 0.0
C698 C 0.21204 0.9045 0.91499 0.0
C699 C 0.21986 0.89464 0.93261 0.0
C700 C 0.22753 0.90635 0.94937 0.0
C701 C 0.22721 0.92811 0.94818 0.0
C702 C 0.21948 0.93797 0.93049 0.0
H703 H 0.23809 0.92349 0.85656 0.0
H704 H 0.24175 0.92143 0.88425 0.0
H705 H 0.22545 0.90315 0.87071 0.0
H706 H 0.20585 0.89515 0.90243 0.0
H707 H 0.21975 0.87784 0.93315 0.0
H708 H 0.27226 0.87709 0.07421 0.0
H709 H 0.28692 0.89325 0.10533 0.0
H710 H 0.29473 0.95073 0.07205 0.0
H711 H 0.2796 0.93479 0.04099 0.0
H712 H 0.32518 0.90949 0.11091 0.0
H713 H 0.26581 0.97018 0.12429 0.0
H714 H 0.2618 0.94885 0.10653 0.0
H715 H 0.27688 0.97102 0.09878 0.0
C716 C 0.27696 0.89322 0.07357 0.0
C717 C 0.27472 0.90471 0.05521 0.0
C718 C 0.28534 0.90242 0.09135 0.0
C719 C 0.29163 0.92328 0.09111 0.0
C720 C 0.28952 0.93477 0.07274 0.0
H721 H 0.37722 0.97961 0.17903 0.0
H722 H 0.36035 0.9648 0.14835 0.0
C723 C 0.281 0.9256 0.05497 0.0
C724 C 0.3012 0.93268 0.10984 0.0
H725 H 0.29685 0.97279 0.14426 0.0
C726 C 0.31894 0.92329 0.11825 0.0
C727 C 0.29287 0.95053 0.11956 0.0
C728 C 0.27317 0.96063 0.11197 0.0
C729 C 0.32877 0.93139 0.13594 0.0
C730 C 0.32091 0.94968 0.14519 0.0
C731 C 0.30298 0.95891 0.13699 0.0
C732 C 0.33094 0.95931 0.16355 0.0
C733 C 0.34725 0.92005 0.14477 0.0
C734 C 0.31978 0.96178 0.18207 0.0
C735 C 0.32932 0.97045 0.19956 0.0
C736 C 0.35017 0.97681 0.1988 0.0
C737 C 0.36119 0.97468 0.18012 0.0
C738 C 0.35161 0.96612 0.16262 0.0
H739 H 0.34768 0.90362 0.13955 0.0
H740 H 0.3617 0.9277 0.13939 0.0
H741 H 0.3471 0.92038 0.16199 0.0
H742 H 0.30378 0.95673 0.18307 0.0
H743 H 0.32043 0.97195 0.21373 0.0
H744 H 0.32333 0.37445 0.01928 0.0
H745 H 0.35479 0.35756 0.03202 0.0
H746 H 0.32159 0.29962 0.03716 0.0
H747 H 0.29015 0.31632 0.02393 0.0
H748 H 0.36087 0.33951 0.06915 0.0
H749 H 0.3735 0.28184 0.00654 0.0
H750 H 0.3557 0.30326 0.00388 0.0
H751 H 0.3481 0.28033 0.01781 0.0
C752 C 0.32277 0.35806 0.02296 0.0
C753 C 0.30431 0.34668 0.02058 0.0
C754 C 0.34075 0.34844 0.03023 0.0
C755 C 0.34062 0.32727 0.03525 0.0
C756 C 0.32218 0.31585 0.03291 0.0
H757 H 0.42676 0.26681 0.1181 0.0
H758 H 0.39663 0.28213 0.10101 0.0
C759 C 0.3042 0.32545 0.0255 0.0
C760 C 0.35949 0.31749 0.04401 0.0
H761 H 0.3936 0.27754 0.03738 0.0
C762 C 0.36809 0.32603 0.06214 0.0
C763 C 0.36906 0.30008 0.03467 0.0
C764 C 0.36126 0.29095 0.01454 0.0
C765 C 0.38575 0.31741 0.07143 0.0
C766 C 0.39477 0.29945 0.06262 0.0
C767 C 0.38649 0.29116 0.04423 0.0
C768 C 0.41275 0.28904 0.07242 0.0
C769 C 0.39472 0.32779 0.09046 0.0
C770 C 0.43158 0.28709 0.06169 0.0
C771 C 0.44882 0.27812 0.07137 0.0
C772 C 0.44742 0.27096 0.0919 0.0
C773 C 0.42836 0.27238 0.10234 0.0
C774 C 0.41116 0.28122 0.09264 0.0
H775 H 0.38979 0.34426 0.09167 0.0
H776 H 0.38916 0.31959 0.10452 0.0
H777 H 0.41194 0.32723 0.09035 0.0
H778 H 0.43307 0.29292 0.04601 0.0
H779 H 0.4633 0.27717 0.06293 0.0
H780 H 0.96767 0.81924 0.12708 0.0
H781 H 0.95328 0.84974 0.14443 0.0
H782 H 0.96815 0.82318 0.20399 0.0
H783 H 0.98222 0.79237 0.18672 0.0
H784 H 0.9289 0.83926 0.20276 0.0
H785 H 0.98532 0.89645 0.17224 0.0
H786 H 0.9727 0.88182 0.15213 0.0
H787 H 0.98936 0.86881 0.17035 0.0
C788 C 0.96794 0.81992 0.14388 0.0
C789 C 0.97615 0.80347 0.15555 0.0
C790 C 0.95984 0.83742 0.15376 0.0
C791 C 0.96001 0.8389 0.17548 0.0
C792 C 0.968 0.8224 0.1872 0.0
H793 H 0.9336 0.9541 0.24165 0.0
H794 H 0.95001 0.9226 0.22819 0.0
C795 C 0.97604 0.80483 0.17732 0.0
C796 C 0.9513 0.85744 0.18594 0.0
H797 H 0.95491 0.91024 0.18822 0.0
C798 C 0.93468 0.85478 0.19972 0.0
C799 C 0.95908 0.87763 0.1822 0.0
C800 C 0.97774 0.88138 0.16859 0.0
C801 C 0.92521 0.87183 0.20939 0.0
C802 C 0.9323 0.8921 0.20481 0.0
C803 C 0.94933 0.89471 0.19152 0.0
C804 C 0.92216 0.91085 0.21344 0.0
C805 C 0.90783 0.86794 0.22456 0.0
C806 C 0.90112 0.91479 0.20943 0.0
C807 C 0.89169 0.93269 0.21719 0.0
C808 C 0.90321 0.94711 0.22887 0.0
C809 C 0.92432 0.94325 0.23271 0.0
C810 C 0.93372 0.92527 0.22504 0.0
H811 H 0.90849 0.85196 0.23096 0.0
H812 H 0.90837 0.87917 0.23764 0.0
H813 H 0.89274 0.86972 0.21645 0.0
H814 H 0.89203 0.90413 0.20008 0.0
H815 H 0.87543 0.93534 0.21385 0.0
H816 H 0.208 0.68711 0.5151 0.0
H817 H 0.17704 0.70404 0.52915 0.0
H818 H 0.15327 0.64459 0.54859 0.0
H819 H 0.18393 0.62754 0.53425 0.0
H820 H 0.12367 0.6687 0.52937 0.0
H821 H 0.16501 0.71343 0.59057 0.0
H822 H 0.17448 0.7177 0.56475 0.0
H823 H 0.1771 0.69253 0.57641 0.0
C824 C 0.19616 0.67767 0.52238 0.0
C825 C 0.19841 0.65602 0.52368 0.0
C826 C 0.17855 0.68737 0.53049 0.0
C827 C 0.16302 0.6756 0.5402 0.0
C828 C 0.16511 0.65396 0.54123 0.0
H829 H 0.0672 0.71405 0.62457 0.0
H830 H 0.09783 0.69999 0.60728 0.0
C831 C 0.18265 0.64425 0.53306 0.0
C832 C 0.14451 0.68571 0.54927 0.0
H833 H 0.12913 0.72 0.58661 0.0
C834 C 0.12483 0.67996 0.54186 0.0
C835 C 0.14611 0.70021 0.56571 0.0
C836 C 0.16678 0.70624 0.575 0.0
C837 C 0.10667 0.68825 0.55049 0.0
C838 C 0.10828 0.70301 0.5667 0.0
C839 C 0.12796 0.70882 0.57406 0.0
C840 C 0.08972 0.71185 0.57695 0.0
C841 C 0.08593 0.68066 0.54261 0.0
C842 C 0.07511 0.72339 0.56567 0.0
C843 C 0.0575 0.73134 0.5755 0.0
C844 C 0.05434 0.72805 0.59681 0.0
C845 C 0.06919 0.71681 0.60812 0.0
C846 C 0.08671 0.7088 0.59828 0.0
H847 H 0.08736 0.66582 0.53392 0.0
H848 H 0.07488 0.67836 0.5556 0.0
H849 H 0.07928 0.69239 0.53194 0.0
H850 H 0.07736 0.7263 0.54929 0.0
H851 H 0.04638 0.74008 0.56643 0.0
H852 H 0.97258 0.71306 0.68626 0.0
H853 H 0.95755 0.68248 0.70305 0.0
H854 H 0.96486 0.64752 0.64639 0.0
H855 H 0.97944 0.67811 0.6294 0.0
H856 H 0.92656 0.64271 0.66303 0.0
H857 H 0.98676 0.63055 0.7234 0.0
H858 H 0.97576 0.65612 0.72363 0.0
H859 H 0.99059 0.64764 0.70159 0.0
C860 C 0.97107 0.69881 0.67744 0.0
C861 C 0.9772 0.69795 0.65654 0.0
C862 C 0.96262 0.68132 0.68708 0.0
C863 C 0.96039 0.66263 0.67606 0.0
C864 C 0.96652 0.66177 0.6552 0.0
H865 H 0.93285 0.54036 0.72513 0.0
H866 H 0.94919 0.57128 0.71029 0.0
C867 C 0.97486 0.67925 0.64553 0.0
C868 C 0.9509 0.64417 0.68592 0.0
H869 H 0.956 0.61033 0.7263 0.0
C870 C 0.93302 0.6356 0.67684 0.0
C871 C 0.95951 0.63477 0.70378 0.0
C872 C 0.97933 0.64259 0.71358 0.0
C873 C 0.92339 0.61798 0.68521 0.0
C874 C 0.9316 0.60899 0.70347 0.0
C875 C 0.94961 0.6174 0.71244 0.0
C876 C 0.9219 0.59058 0.71323 0.0
C877 C 0.90479 0.60893 0.67415 0.0
C878 C 0.9013 0.59133 0.72018 0.0
C879 C 0.8919 0.57367 0.72851 0.0
C880 C 0.90304 0.55503 0.73026 0.0
C881 C 0.92388 0.5545 0.72391 0.0
C882 C 0.93323 0.57214 0.71546 0.0
H883 H 0.90401 0.61404 0.65771 0.0
H884 H 0.90509 0.59171 0.67451 0.0
H885 H 0.89043 0.61423 0.68199 0.0
H886 H 0.89244 0.60554 0.71906 0.0
H887 H 0.87588 0.57459 0.73345 0.0
H888 H 0.2056 0.18421 0.4894 0.0
H889 H 0.17434 0.20105 0.47584 0.0
H890 H 0.15521 0.14332 0.44768 0.0
H891 H 0.18615 0.12633 0.46147 0.0
H892 H 0.16154 0.20586 0.43551 0.0
H893 H 0.10363 0.16028 0.47968 0.0
H894 H 0.13092 0.16019 0.48601 0.0
H895 H 0.12118 0.14432 0.46515 0.0
C896 C 0.19467 0.1751 0.48039 0.0
C897 C 0.19824 0.15393 0.47659 0.0
C898 C 0.17684 0.18474 0.47266 0.0
C899 C 0.16228 0.17335 0.46107 0.0
C900 C 0.16598 0.15228 0.45701 0.0
H901 H 0.06933 0.21816 0.37579 0.0
H902 H 0.1002 0.20404 0.3927 0.0
C903 C 0.18374 0.14263 0.46479 0.0
C904 C 0.14351 0.18359 0.45267 0.0
H905 H 0.09064 0.18051 0.45151 0.0
C906 C 0.14602 0.20043 0.43913 0.0
C907 C 0.12327 0.17669 0.45766 0.0
C908 C 0.11953 0.15952 0.47308 0.0
C909 C 0.12886 0.21016 0.42994 0.0
C910 C 0.10868 0.20257 0.43411 0.0
C911 C 0.10614 0.18615 0.44814 0.0
C912 C 0.09002 0.21125 0.42388 0.0
C913 C 0.1325 0.22859 0.41599 0.0
C914 C 0.07378 0.21945 0.43581 0.0
C915 C 0.05601 0.22732 0.42619 0.0
C916 C 0.05417 0.22707 0.40446 0.0
C917 C 0.07038 0.2187 0.39256 0.0
C918 C 0.08809 0.21076 0.40219 0.0
H919 H 0.14769 0.2361 0.41924 0.0
H920 H 0.13258 0.22331 0.39959 0.0
H921 H 0.12005 0.24034 0.41782 0.0
H922 H 0.07491 0.21984 0.45258 0.0
H923 H 0.04375 0.23365 0.43576 0.0
H924 H 0.56517 0.45015 0.2399 0.0
H925 H 0.54967 0.41792 0.22679 0.0
H926 H 0.60984 0.3972 0.20635 0.0
H927 H 0.62545 0.42936 0.2193 0.0
H928 H 0.57817 0.3945 0.17597 0.0
H929 H 0.55453 0.35833 0.25047 0.0
H930 H 0.54619 0.38469 0.24693 0.0
H931 H 0.57338 0.37906 0.24906 0.0
C932 C 0.57511 0.43865 0.23274 0.0
C933 C 0.59652 0.44225 0.23062 0.0
C934 C 0.56625 0.42022 0.22538 0.0
C935 C 0.57867 0.4051 0.21585 0.0
C936 C 0.60004 0.40864 0.21378 0.0
H937 H 0.54609 0.28012 0.17528 0.0
H938 H 0.56179 0.3102 0.19274 0.0
C939 C 0.60891 0.42701 0.22118 0.0
C940 C 0.56925 0.38608 0.20701 0.0
H941 H 0.54234 0.34217 0.21954 0.0
C942 C 0.5704 0.38301 0.18549 0.0
C943 C 0.55931 0.37108 0.21953 0.0
C944 C 0.55838 0.37327 0.24281 0.0
C945 C 0.56151 0.3655 0.17608 0.0
C946 C 0.55105 0.35079 0.18851 0.0
C947 C 0.55025 0.3536 0.21008 0.0
C948 C 0.54072 0.3325 0.17921 0.0
C949 C 0.56346 0.36276 0.15291 0.0
C950 C 0.52343 0.33512 0.16627 0.0
C951 C 0.51443 0.31805 0.15636 0.0
C952 C 0.52258 0.29805 0.15924 0.0
C953 C 0.53952 0.29537 0.17274 0.0
C954 C 0.54848 0.31249 0.18272 0.0
H955 H 0.57571 0.37292 0.14629 0.0
H956 H 0.56708 0.34639 0.14895 0.0
H957 H 0.54849 0.3668 0.14542 0.0
H958 H 0.51708 0.35044 0.16359 0.0
H959 H 0.50134 0.3206 0.14612 0.0
H960 H 0.29473 0.81575 0.98974 0.0
H961 H 0.32583 0.7985 0.97636 0.0
H962 H 0.34906 0.85728 0.95443 0.0
H963 H 0.31824 0.87465 0.968 0.0
H964 H 0.33988 0.79684 0.93596 0.0
H965 H 0.39832 0.8344 0.98691 0.0
H966 H 0.37084 0.83534 0.99222 0.0
H967 H 0.38215 0.85264 0.9735 0.0
C968 C 0.30654 0.825 0.98218 0.0
C969 C 0.30411 0.84655 0.97998 0.0
C970 C 0.32427 0.81513 0.97455 0.0
C971 C 0.33988 0.82667 0.96471 0.0
C972 C 0.33742 0.84816 0.96239 0.0
H973 H 0.43376 0.78663 0.87874 0.0
H974 H 0.403 0.80034 0.89611 0.0
C975 C 0.31974 0.85804 0.97003 0.0
C976 C 0.35839 0.81615 0.9561 0.0
H977 H 0.41134 0.81623 0.95734 0.0
C978 C 0.35551 0.80095 0.94074 0.0
C979 C 0.37874 0.82132 0.96259 0.0
C980 C 0.38275 0.83667 0.97986 0.0
C981 C 0.37248 0.79124 0.9312 0.0
C982 C 0.39283 0.79718 0.93695 0.0
C983 C 0.39571 0.81188 0.95279 0.0
C984 C 0.41136 0.78863 0.92644 0.0
C985 C 0.36845 0.77465 0.91513 0.0
C986 C 0.42651 0.77794 0.93783 0.0
C987 C 0.44419 0.77022 0.92797 0.0
C988 C 0.44705 0.77317 0.90656 0.0
C989 C 0.43192 0.784 0.89523 0.0
C990 C 0.41428 0.79174 0.9051 0.0
H991 H 0.3527 0.76783 0.9168 0.0
H992 H 0.36951 0.78161 0.89943 0.0
H993 H 0.38008 0.76201 0.91622 0.0
H994 H 0.4246 0.77551 0.95434 0.0
H995 H 0.45562 0.76197 0.93711 0.0
H996 H 0.93455 0.45933 0.76699 0.0
H997 H 0.95176 0.42795 0.77969 0.0
H998 H 0.8921 0.39989 0.79131 0.0
H999 H 0.87483 0.43097 0.77825 0.0
H1000 H 0.94966 0.4107 0.81796 0.0
H1001 H 0.9214 0.35448 0.75924 0.0
H1002 H 0.91914 0.38219 0.7559 0.0
H1003 H 0.90068 0.36833 0.77159 0.0
C1004 C 0.92512 0.4464 0.7721 0.0
C1005 C 0.90336 0.44755 0.77156 0.0
C1006 C 0.93496 0.4285 0.77935 0.0
C1007 C 0.92321 0.41145 0.78611 0.0
C1008 C 0.90147 0.41264 0.78567 0.0
H1009 H 0.95904 0.31465 0.8706 0.0
H1010 H 0.94534 0.34545 0.85334 0.0
C1011 C 0.89163 0.43048 0.77835 0.0
C1012 C 0.93364 0.39283 0.79462 0.0
H1013 H 0.93632 0.34011 0.79007 0.0
C1014 C 0.9469 0.39528 0.81175 0.0
C1015 C 0.93028 0.37276 0.78629 0.0
C1016 C 0.91727 0.36927 0.76711 0.0
C1017 C 0.95635 0.37814 0.82122 0.0
C1018 C 0.95205 0.35797 0.81361 0.0
C1019 C 0.93937 0.35557 0.79604 0.0
C1020 C 0.96024 0.33916 0.82393 0.0
C1021 C 0.97093 0.38183 0.8392 0.0
C1022 C 0.97262 0.32503 0.81293 0.0
C1023 C 0.98029 0.30727 0.8227 0.0
C1024 C 0.97566 0.30334 0.84362 0.0
C1025 C 0.96302 0.31735 0.8545 0.0
C1026 C 0.95529 0.33503 0.84471 0.0
H1027 H 0.97733 0.39785 0.83904 0.0
H1028 H 0.96234 0.37978 0.85396 0.0
H1029 H 0.98404 0.37067 0.83898 0.0
H1030 H 0.97649 0.32786 0.79683 0.0
H1031 H 0.98996 0.29671 0.81392 0.0
H1032 H 0.31526 0.12502 0.53925 0.0
H1033 H 0.34612 0.14154 0.55402 0.0
H1034 H 0.32818 0.19988 0.52673 0.0
H1035 H 0.29702 0.18352 0.5122 0.0
H1036 H 0.37846 0.16114 0.53424 0.0
H1037 H 0.33784 0.21541 0.58738 0.0
H1038 H 0.32482 0.19393 0.57488 0.0
H1039 H 0.33 0.21737 0.56071 0.0
C1040 C 0.31784 0.14139 0.53645 0.0
C1041 C 0.30368 0.15302 0.52467 0.0
C1042 C 0.33549 0.15079 0.54487 0.0
C1043 C 0.33929 0.17199 0.54171 0.0
C1044 C 0.32532 0.1836 0.52972 0.0
H1045 H 0.4585 0.23237 0.56549 0.0
H1046 H 0.42738 0.21789 0.54904 0.0
C1047 C 0.30759 0.17421 0.52134 0.0
C1048 C 0.35806 0.18176 0.55078 0.0
H1049 H 0.37428 0.21929 0.5846 0.0
C1050 C 0.37757 0.17387 0.54525 0.0
C1051 C 0.35681 0.19819 0.5653 0.0
C1052 C 0.33625 0.20664 0.5726 0.0
C1053 C 0.3959 0.18198 0.55383 0.0
C1054 C 0.39468 0.19871 0.56801 0.0
C1055 C 0.37517 0.20658 0.57358 0.0
C1056 C 0.41341 0.20781 0.57784 0.0
C1057 C 0.41636 0.17221 0.54804 0.0
C1058 C 0.41561 0.20743 0.59949 0.0
C1059 C 0.43325 0.21585 0.60892 0.0
C1060 C 0.449 0.22484 0.59685 0.0
C1061 C 0.44668 0.22541 0.57517 0.0
C1062 C 0.42897 0.21705 0.56575 0.0
H1063 H 0.41423 0.15646 0.5413 0.0
H1064 H 0.42418 0.182 0.53627 0.0
H1065 H 0.42674 0.17102 0.56176 0.0
H1066 H 0.40374 0.20044 0.6091 0.0
H1067 H 0.43459 0.21523 0.62566 0.0
H1068 H 0.53979 0.68445 0.36971 0.0
H1069 H 0.55223 0.65337 0.35195 0.0
H1070 H 0.51626 0.66951 0.29785 0.0
H1071 H 0.50409 0.70099 0.31541 0.0
H1072 H 0.53057 0.62019 0.33602 0.0
H1073 H 0.57406 0.66107 0.27386 0.0
H1074 H 0.56445 0.67428 0.29659 0.0
H1075 H 0.54709 0.66774 0.27572 0.0
C1076 C 0.53454 0.68141 0.35402 0.0
C1077 C 0.52108 0.69521 0.34388 0.0
C1078 C 0.54163 0.66363 0.34391 0.0
C1079 C 0.53539 0.65927 0.32349 0.0
C1080 C 0.52161 0.6728 0.31345 0.0
H1081 H 0.56098 0.53845 0.26558 0.0
H1082 H 0.54303 0.56926 0.27882 0.0
C1083 C 0.51459 0.69071 0.32353 0.0
C1084 C 0.54344 0.64053 0.3129 0.0
H1085 H 0.57346 0.62448 0.27234 0.0
C1086 C 0.53985 0.62109 0.32202 0.0
C1087 C 0.55567 0.64181 0.29474 0.0
C1088 C 0.56074 0.66234 0.2847 0.0
C1089 C 0.54842 0.60291 0.31366 0.0
C1090 C 0.56062 0.6042 0.2955 0.0
C1091 C 0.56396 0.62358 0.28619 0.0
C1092 C 0.57121 0.58582 0.28673 0.0
C1093 C 0.54501 0.5826 0.32477 0.0
C1094 C 0.59295 0.58517 0.28634 0.0
C1095 C 0.60321 0.56769 0.27874 0.0
C1096 C 0.59189 0.55056 0.27129 0.0
C1097 C 0.5701 0.55138 0.27132 0.0
C1098 C 0.55983 0.56891 0.27895 0.0
H1099 H 0.53894 0.58493 0.34073 0.0
H1100 H 0.53356 0.57316 0.31599 0.0
H1101 H 0.55968 0.57364 0.32572 0.0
H1102 H 0.602 0.59809 0.29223 0.0
H1103 H 0.62001 0.56754 0.27885 0.0
H1104 H 0.04414 0.76412 0.06474 0.0
H1105 H 0.07518 0.77775 0.04754 0.0
H1106 H 0.09775 0.80095 0.10622 0.0
H1107 H 0.06701 0.78711 0.12353 0.0
H1108 H 0.08919 0.81814 0.04531 0.0
H1109 H 0.14731 0.76843 0.08445 0.0
H1110 H 0.11984 0.76299 0.08522 0.0
H1111 H 0.13095 0.78215 0.10229 0.0
C1112 C 0.05578 0.77204 0.07397 0.0
C1113 C 0.05322 0.77446 0.09549 0.0
C1114 C 0.07348 0.77981 0.06413 0.0
C1115 C 0.08892 0.79005 0.07566 0.0
C1116 C 0.08626 0.79267 0.09711 0.0
H1117 H 0.18323 0.87567 0.03511 0.0
H1118 H 0.15208 0.85859 0.04841 0.0
C1119 C 0.06863 0.78487 0.10696 0.0
C1120 C 0.10751 0.79858 0.06522 0.0
H1121 H 0.16046 0.79773 0.066 0.0
C1122 C 0.10478 0.81357 0.04969 0.0
C1123 C 0.12781 0.79236 0.07076 0.0
C1124 C 0.13171 0.77545 0.08644 0.0
C1125 C 0.12184 0.823 0.04001 0.0
C1126 C 0.14214 0.81754 0.04632 0.0
C1127 C 0.14487 0.80206 0.06136 0.0
C1128 C 0.16078 0.82793 0.03779 0.0
C1129 C 0.11796 0.83862 0.02305 0.0
C1130 C 0.17622 0.81629 0.02784 0.0
C1131 C 0.19413 0.82598 0.02038 0.0
C1132 C 0.19692 0.84748 0.02285 0.0
C1133 C 0.18145 0.8591 0.03287 0.0
C1134 C 0.16358 0.84939 0.04035 0.0
H1135 H 0.10234 0.83659 0.016 0.0
H1136 H 0.11877 0.8545 0.02971 0.0
H1137 H 0.12981 0.83738 0.01063 0.0
H1138 H 0.17441 0.79969 0.02583 0.0
H1139 H 0.20581 0.81663 0.01276 0.0
H1140 H 0.71578 0.87514 0.56824 0.0
H1141 H 0.70129 0.8917 0.59916 0.0
H1142 H 0.72485 0.95092 0.57878 0.0
H1143 H 0.73914 0.9345 0.54762 0.0
H1144 H 0.72115 0.91408 0.63048 0.0
H1145 H 0.6632 0.96249 0.58901 0.0
H1146 H 0.67659 0.94122 0.57668 0.0
H1147 H 0.68947 0.96572 0.58033 0.0
C1148 C 0.71786 0.89169 0.57033 0.0
C1149 C 0.72847 0.90356 0.55546 0.0
C1150 C 0.70961 0.90112 0.588 0.0
C1151 C 0.71176 0.92257 0.5911 0.0
C1152 C 0.72268 0.93441 0.57648 0.0
H1153 H 0.68632 0.98683 0.70784 0.0
H1154 H 0.70314 0.97225 0.67704 0.0
C1155 C 0.73091 0.92499 0.55875 0.0
C1156 C 0.70257 0.93244 0.6097 0.0
H1157 H 0.66642 0.96785 0.6252 0.0
C1158 C 0.70921 0.92587 0.62936 0.0
C1159 C 0.68683 0.94763 0.60814 0.0
C1160 C 0.67842 0.95459 0.58743 0.0
C1161 C 0.70055 0.93412 0.64756 0.0
C1162 C 0.68508 0.94958 0.64599 0.0
C1163 C 0.67842 0.95612 0.62633 0.0
C1164 C 0.67503 0.95862 0.66456 0.0
C1165 C 0.70765 0.92584 0.66827 0.0
C1166 C 0.6536 0.9562 0.66748 0.0
C1167 C 0.64396 0.96461 0.68495 0.0
C1168 C 0.65557 0.97567 0.69978 0.0
C1169 C 0.677 0.97827 0.69673 0.0
C1170 C 0.68665 0.96987 0.67921 0.0
H1171 H 0.71583 0.91076 0.66666 0.0
H1172 H 0.71855 0.93709 0.67547 0.0
H1173 H 0.6943 0.92376 0.67893 0.0
H1174 H 0.64436 0.94764 0.6563 0.0
H1175 H 0.62741 0.96239 0.68686 0.0
H1176 H 0.87485 0.96765 0.31891 0.0
H1177 H 0.8582 0.95295 0.34961 0.0
H1178 H 0.7981 0.9687 0.32471 0.0
H1179 H 0.81466 0.98305 0.2937 0.0
H1180 H 0.83323 0.97149 0.37842 0.0
H1181 H 0.79117 0.90755 0.33852 0.0
H1182 H 0.81138 0.92236 0.32606 0.0
H1183 H 0.78568 0.93289 0.3284 0.0
C1184 C 0.85808 0.96791 0.31994 0.0
C1185 C 0.84604 0.97638 0.30386 0.0
C1186 C 0.8486 0.95955 0.33749 0.0
C1187 C 0.82691 0.95947 0.33932 0.0
C1188 C 0.81484 0.9682 0.32342 0.0
H1189 H 0.76209 0.93471 0.45593 0.0
H1190 H 0.77604 0.95126 0.42473 0.0
C1191 C 0.82432 0.97648 0.30578 0.0
C1192 C 0.81706 0.95046 0.35801 0.0
H1193 H 0.78393 0.91244 0.3742 0.0
C1194 C 0.82243 0.95859 0.37753 0.0
C1195 C 0.80317 0.93348 0.35678 0.0
C1196 C 0.79762 0.9234 0.33635 0.0
C1197 C 0.81429 0.9502 0.39587 0.0
C1198 C 0.80008 0.93349 0.39461 0.0
C1199 C 0.7947 0.92537 0.3751 0.0
C1200 C 0.79129 0.92358 0.41339 0.0
C1201 C 0.82148 0.9589 0.41643 0.0
C1202 C 0.79477 0.90243 0.41707 0.0
C1203 C 0.78666 0.8929 0.43473 0.0
C1204 C 0.77489 0.90438 0.44904 0.0
C1205 C 0.77124 0.92552 0.44525 0.0
C1206 C 0.77928 0.93502 0.4275 0.0
H1207 H 0.83612 0.96788 0.41487 0.0
H1208 H 0.80943 0.9695 0.42261 0.0
H1209 H 0.82396 0.94632 0.42791 0.0
H1210 H 0.80394 0.8933 0.40634 0.0
H1211 H 0.7897 0.87657 0.43721 0.0
H1212 H 0.7783 0.0699 0.04144 0.0
H1213 H 0.79256 0.05393 0.07277 0.0
H1214 H 0.78364 0.11121 0.1063 0.0
H1215 H 0.76987 0.12743 0.07489 0.0
H1216 H 0.82159 0.09536 0.11304 0.0
H1217 H 0.76247 0.03382 0.12387 0.0
H1218 H 0.77426 0.03314 0.09869 0.0
H1219 H 0.75883 0.05515 0.10616 0.0
C1220 C 0.77926 0.07904 0.05553 0.0
C1221 C 0.77294 0.09989 0.05575 0.0
C1222 C 0.78728 0.06985 0.07346 0.0
C1223 C 0.78883 0.08127 0.09198 0.0
C1224 C 0.78248 0.10209 0.09221 0.0
H1225 H 0.81582 0.02953 0.21385 0.0
H1226 H 0.79938 0.04558 0.18358 0.0
C1227 C 0.77461 0.11133 0.07426 0.0
C1228 C 0.79791 0.07182 0.11089 0.0
H1229 H 0.79325 0.03102 0.14429 0.0
C1230 C 0.81532 0.08135 0.11994 0.0
C1231 C 0.78954 0.05371 0.12006 0.0
C1232 C 0.77012 0.04346 0.11183 0.0
C1233 C 0.82484 0.07308 0.13767 0.0
C1234 C 0.81703 0.05447 0.14629 0.0
C1235 C 0.79937 0.04515 0.13751 0.0
C1236 C 0.82694 0.04447 0.16448 0.0
C1237 C 0.84296 0.08456 0.14718 0.0
C1238 C 0.84777 0.03821 0.16365 0.0
C1239 C 0.85721 0.0292 0.18094 0.0
C1240 C 0.84591 0.02603 0.19929 0.0
C1241 C 0.82492 0.03184 0.19994 0.0
C1242 C 0.81551 0.04098 0.18267 0.0
H1243 H 0.84308 0.10117 0.14258 0.0
H1244 H 0.84262 0.08365 0.16437 0.0
H1245 H 0.85764 0.07748 0.14168 0.0
H1246 H 0.85673 0.04027 0.14961 0.0
H1247 H 0.87336 0.02471 0.17992 0.0
H1248 H 0.68521 0.01037 0.79894 0.0
H1249 H 0.70172 0.02423 0.83033 0.0
H1250 H 0.64464 0.05492 0.84682 0.0
H1251 H 0.62795 0.04077 0.81578 0.0
H1252 H 0.70804 0.06434 0.84212 0.0
H1253 H 0.6587 0.02432 0.89988 0.0
H1254 H 0.65891 0.01716 0.87279 0.0
H1255 H 0.6439 0.03903 0.88147 0.0
C1256 C 0.67617 0.01999 0.80933 0.0
C1257 C 0.65526 0.0244 0.80499 0.0
C1258 C 0.68561 0.0279 0.82723 0.0
C1259 C 0.6743 0.04029 0.8411 0.0
C1260 C 0.65351 0.04496 0.83662 0.0
H1261 H 0.72094 0.12668 0.93249 0.0
H1262 H 0.70696 0.10934 0.90172 0.0
C1263 C 0.64403 0.03698 0.81879 0.0
C1264 C 0.68439 0.0489 0.85993 0.0
H1265 H 0.67983 0.05208 0.9126 0.0
C1266 C 0.70198 0.06154 0.85755 0.0
C1267 C 0.67666 0.04495 0.88008 0.0
C1268 C 0.65864 0.03045 0.88378 0.0
C1269 C 0.71169 0.07084 0.87472 0.0
C1270 C 0.7033 0.06777 0.89475 0.0
C1271 C 0.68609 0.05463 0.8972 0.0
C1272 C 0.71194 0.07825 0.91335 0.0
C1273 C 0.73094 0.08372 0.87124 0.0
C1274 C 0.71883 0.06655 0.93037 0.0
C1275 C 0.72659 0.07645 0.94809 0.0
C1276 C 0.72756 0.09821 0.94909 0.0
C1277 C 0.72053 0.10989 0.9321 0.0
C1278 C 0.71267 0.09999 0.91444 0.0
H1279 H 0.73877 0.07946 0.85649 0.0
H1280 H 0.72656 0.10033 0.87028 0.0
H1281 H 0.74217 0.08185 0.88419 0.0
H1282 H 0.71826 0.04976 0.9299 0.0
H1283 H 0.73187 0.06705 0.96097 0.0
H1284 H 0.54384 0.73836 0.93738 0.0
H1285 H 0.5749 0.72489 0.95466 0.0
H1286 H 0.59649 0.70007 0.89639 0.0
H1287 H 0.5657 0.71375 0.87897 0.0
H1288 H 0.58843 0.68443 0.95773 0.0
H1289 H 0.64668 0.73279 0.91703 0.0
H1290 H 0.61926 0.73842 0.91634 0.0
H1291 H 0.62994 0.71875 0.89967 0.0
C1292 C 0.55526 0.73011 0.92825 0.0
C1293 C 0.55242 0.72719 0.90681 0.0
C1294 C 0.57297 0.72243 0.93813 0.0
C1295 C 0.58815 0.71179 0.92673 0.0
C1296 C 0.58521 0.70865 0.90538 0.0
H1297 H 0.68182 0.62658 0.96879 0.0
H1298 H 0.65087 0.64366 0.95512 0.0
C1299 C 0.56755 0.71636 0.89548 0.0
C1300 C 0.60676 0.70339 0.93725 0.0
H1301 H 0.65971 0.70397 0.93625 0.0
C1302 C 0.60403 0.68881 0.95316 0.0
C1303 C 0.62707 0.70937 0.93148 0.0
C1304 C 0.63097 0.72585 0.91534 0.0
C1305 C 0.62108 0.67956 0.96301 0.0
C1306 C 0.64138 0.68476 0.9565 0.0
C1307 C 0.64412 0.69984 0.94106 0.0
C1308 C 0.65997 0.67443 0.96516 0.0
C1309 C 0.61721 0.66436 0.98037 0.0
C1310 C 0.67559 0.68614 0.97489 0.0
C1311 C 0.6934 0.67644 0.98258 0.0
C1312 C 0.69589 0.65487 0.98054 0.0
C1313 C 0.68027 0.64321 0.9707 0.0
C1314 C 0.66251 0.65292 0.963 0.0
H1315 H 0.60167 0.66665 0.98743 0.0
H1316 H 0.61783 0.64833 0.97409 0.0
H1317 H 0.62917 0.66585 0.99271 0.0
H1318 H 0.67398 0.70279 0.97658 0.0
H1319 H 0.70521 0.68582 0.99005 0.0
H1320 H 0.12634 0.06906 0.78388 0.0
H1321 H 0.10935 0.09974 0.79833 0.0
H1322 H 0.04951 0.07394 0.78271 0.0
H1323 H 0.0664 0.04298 0.76858 0.0
H1324 H 0.08369 0.128 0.77934 0.0
H1325 H 0.04292 0.08835 0.84395 0.0
H1326 H 0.06331 0.07607 0.82925 0.0
H1327 H 0.03751 0.07772 0.81874 0.0
C1328 C 0.10955 0.06988 0.78359 0.0
C1329 C 0.09768 0.05358 0.77521 0.0
C1330 C 0.09988 0.08743 0.79181 0.0
C1331 C 0.07817 0.08899 0.79185 0.0
C1332 C 0.06627 0.07286 0.78323 0.0
H1333 H 0.01079 0.20429 0.81546 0.0
H1334 H 0.02535 0.17309 0.79934 0.0
C1335 C 0.07594 0.05524 0.77507 0.0
C1336 C 0.06812 0.10765 0.80072 0.0
H1337 H 0.03508 0.12386 0.83876 0.0
C1338 C 0.07304 0.12712 0.79232 0.0
C1339 C 0.05442 0.10644 0.8178 0.0
C1340 C 0.04933 0.08606 0.82812 0.0
C1341 C 0.06462 0.14544 0.80053 0.0
C1342 C 0.05061 0.1442 0.81734 0.0
C1343 C 0.04569 0.12473 0.82575 0.0
C1344 C 0.0415 0.16296 0.82699 0.0
C1345 C 0.07125 0.166 0.7915 0.0
C1346 C 0.04533 0.16731 0.84798 0.0
C1347 C 0.03692 0.18499 0.85725 0.0
C1348 C 0.02446 0.19862 0.84569 0.0
C1349 C 0.02045 0.19414 0.82471 0.0
C1350 C 0.02884 0.17639 0.81546 0.0
H1351 H 0.08575 0.16457 0.78231 0.0
H1352 H 0.05888 0.17179 0.78102 0.0
H1353 H 0.07374 0.17771 0.80392 0.0
H1354 H 0.05501 0.1571 0.85717 0.0
H1355 H 0.04025 0.18801 0.87346 0.0
H1356 H 0.9306 0.27675 0.37649 0.0
H1357 H 0.9 0.29138 0.39341 0.0
H1358 H 0.9319 0.2904 0.45229 0.0
H1359 H 0.96246 0.27534 0.43552 0.0
H1360 H 0.89182 0.27602 0.45507 0.0
H1361 H 0.89412 0.351 0.41311 0.0
H1362 H 0.89339 0.32888 0.39617 0.0
H1363 H 0.91548 0.33295 0.41281 0.0
C1364 C 0.93111 0.27967 0.39304 0.0
C1365 C 0.94896 0.27503 0.40467 0.0
C1366 C 0.91365 0.28813 0.40266 0.0
C1367 C 0.91382 0.29233 0.42403 0.0
C1368 C 0.9315 0.28738 0.43575 0.0
H1369 H 0.82516 0.37204 0.48639 0.0
H1370 H 0.85646 0.35587 0.47241 0.0
C1371 C 0.94894 0.27881 0.42615 0.0
C1372 C 0.8955 0.30178 0.43417 0.0
H1373 H 0.86377 0.34409 0.43286 0.0
C1374 C 0.88572 0.29095 0.4503 0.0
C1375 C 0.88778 0.32139 0.42812 0.0
C1376 C 0.89834 0.33435 0.41175 0.0
C1377 C 0.86815 0.29903 0.46029 0.0
C1378 C 0.85994 0.31826 0.45367 0.0
C1379 C 0.86996 0.32925 0.43779 0.0
C1380 C 0.84109 0.32745 0.46307 0.0
C1381 C 0.85877 0.28706 0.47806 0.0
C1382 C 0.82204 0.31685 0.46243 0.0
C1383 C 0.80415 0.32601 0.47055 0.0
C1384 C 0.80497 0.34603 0.47919 0.0
C1385 C 0.82406 0.35659 0.47983 0.0
C1386 C 0.84194 0.34738 0.47184 0.0
H1387 H 0.87007 0.27604 0.48495 0.0
H1388 H 0.8532 0.29767 0.49044 0.0
H1389 H 0.84534 0.27793 0.47227 0.0
H1390 H 0.82092 0.30166 0.4553 0.0
H1391 H 0.78962 0.31757 0.46971 0.0
H1392 H 0.56557 0.95757 0.76805 0.0
H1393 H 0.54858 0.92679 0.78251 0.0
H1394 H 0.60805 0.90314 0.80201 0.0
H1395 H 0.62514 0.93368 0.7874 0.0
H1396 H 0.58312 0.87363 0.7819 0.0
H1397 H 0.5402 0.91445 0.84452 0.0
H1398 H 0.53603 0.9245 0.81886 0.0
H1399 H 0.56131 0.92638 0.83053 0.0
C1400 C 0.575 0.94582 0.77546 0.0
C1401 C 0.59667 0.94805 0.77668 0.0
C1402 C 0.56528 0.92831 0.78379 0.0
C1403 C 0.57705 0.91284 0.79356 0.0
C1404 C 0.59869 0.91495 0.79459 0.0
H1405 H 0.53884 0.81512 0.87619 0.0
H1406 H 0.55337 0.84597 0.85962 0.0
C1407 C 0.60842 0.93242 0.78627 0.0
C1408 C 0.56693 0.89429 0.80254 0.0
H1409 H 0.53325 0.87864 0.84022 0.0
C1410 C 0.57218 0.87469 0.79463 0.0
C1411 C 0.55284 0.89577 0.81927 0.0
C1412 C 0.54735 0.91637 0.82896 0.0
C1413 C 0.56371 0.85648 0.80301 0.0
C1414 C 0.54937 0.85797 0.81953 0.0
C1415 C 0.54412 0.87758 0.82744 0.0
C1416 C 0.54026 0.83934 0.82939 0.0
C1417 C 0.57062 0.83579 0.79449 0.0
C1418 C 0.52787 0.82551 0.81793 0.0
C1419 C 0.51962 0.8078 0.82734 0.0
C1420 C 0.52349 0.80375 0.84841 0.0
C1421 C 0.53562 0.8178 0.85992 0.0
C1422 C 0.54391 0.83545 0.85049 0.0
H1423 H 0.58522 0.83716 0.78545 0.0
H1424 H 0.57304 0.82442 0.80718 0.0
H1425 H 0.55843 0.82958 0.78399 0.0
H1426 H 0.52453 0.82844 0.80173 0.0
H1427 H 0.5102 0.79731 0.81813 0.0
H1428 H 0.96737 0.1839 0.37428 0.0
H1429 H 0.95367 0.15286 0.35718 0.0
H1430 H 0.97536 0.17554 0.29815 0.0
H1431 H 0.98887 0.20683 0.31513 0.0
H1432 H 0.93492 0.16132 0.29677 0.0
H1433 H 0.98605 0.10345 0.33445 0.0
H1434 H 0.97271 0.11979 0.35263 0.0
H1435 H 0.99137 0.13096 0.33518 0.0
C1436 C 0.96932 0.18224 0.35767 0.0
C1437 C 0.97924 0.19776 0.34604 0.0
C1438 C 0.9616 0.16443 0.34795 0.0
C1439 C 0.96381 0.16174 0.32646 0.0
C1440 C 0.97362 0.17726 0.31478 0.0
H1441 H 0.93582 0.04524 0.26244 0.0
H1442 H 0.95321 0.07641 0.27576 0.0
C1443 C 0.98133 0.19511 0.3245 0.0
C1444 C 0.95516 0.14309 0.3161 0.0
H1445 H 0.95645 0.09014 0.31642 0.0
C1446 C 0.93974 0.14576 0.30093 0.0
C1447 C 0.96169 0.12282 0.32133 0.0
C1448 C 0.97901 0.11903 0.33664 0.0
C1449 C 0.93018 0.12866 0.29135 0.0
C1450 C 0.93597 0.10838 0.29736 0.0
C1451 C 0.95188 0.10571 0.31201 0.0
C1452 C 0.9254 0.08972 0.28897 0.0
C1453 C 0.91404 0.13247 0.27481 0.0
C1454 C 0.90408 0.08679 0.29222 0.0
C1455 C 0.89413 0.06907 0.28462 0.0
C1456 C 0.90536 0.05387 0.27377 0.0
C1457 C 0.92676 0.05673 0.2707 0.0
C1458 C 0.93671 0.07449 0.2783 0.0
H1459 H 0.91569 0.14815 0.26789 0.0
H1460 H 0.91506 0.12071 0.26224 0.0
H1461 H 0.89837 0.13143 0.28185 0.0
H1462 H 0.89516 0.09813 0.30082 0.0
H1463 H 0.87765 0.06724 0.28734 0.0
H1464 H 0.62568 0.0655 0.71454 0.0
H1465 H 0.6089 0.09626 0.70007 0.0
H1466 H 0.54982 0.07515 0.7233 0.0
H1467 H 0.56646 0.04412 0.73753 0.0
H1468 H 0.54784 0.08857 0.68274 0.0
H1469 H 0.58806 0.14667 0.73208 0.0
H1470 H 0.6055 0.12979 0.71847 0.0
H1471 H 0.58835 0.11926 0.73777 0.0
C1472 C 0.60913 0.06744 0.71662 0.0
C1473 C 0.59739 0.05246 0.72724 0.0
C1474 C 0.59959 0.08508 0.70846 0.0
C1475 C 0.57819 0.08816 0.71094 0.0
C1476 C 0.56639 0.07312 0.72134 0.0
H1477 H 0.51514 0.20489 0.68505 0.0
H1478 H 0.52886 0.17362 0.70165 0.0
C1479 C 0.57591 0.05543 0.72946 0.0
C1480 C 0.56806 0.10682 0.7022 0.0
H1481 H 0.56925 0.15977 0.70304 0.0
C1482 C 0.55241 0.10414 0.68726 0.0
C1483 C 0.57385 0.12711 0.70836 0.0
C1484 C 0.58971 0.13094 0.7252 0.0
C1485 C 0.54277 0.12124 0.67788 0.0
C1486 C 0.54924 0.14152 0.68335 0.0
C1487 C 0.56448 0.1442 0.69871 0.0
C1488 C 0.54055 0.16019 0.67319 0.0
C1489 C 0.52563 0.11744 0.66235 0.0
C1490 C 0.54277 0.16307 0.65174 0.0
C1491 C 0.53491 0.18086 0.64222 0.0
C1492 C 0.52485 0.19617 0.65404 0.0
C1493 C 0.52279 0.19333 0.67555 0.0
C1494 C 0.53062 0.17551 0.68505 0.0
H1495 H 0.51862 0.1018 0.66427 0.0
H1496 H 0.51321 0.12927 0.66382 0.0
H1497 H 0.5321 0.11837 0.64644 0.0
H1498 H 0.5508 0.15167 0.64238 0.0
H1499 H 0.53685 0.18268 0.62564 0.0
H1500 H 0.20627 0.31719 0.983 0.0
H1501 H 0.175 0.30123 0.96831 0.0
H1502 H 0.15117 0.36184 0.95313 0.0
H1503 H 0.18217 0.37791 0.96814 0.0
H1504 H 0.12173 0.33658 0.97089 0.0
H1505 H 0.16202 0.29577 0.90666 0.0
H1506 H 0.17196 0.28977 0.93198 0.0
H1507 H 0.17442 0.3157 0.92203 0.0
C1508 C 0.19435 0.3271 0.97653 0.0
C1509 C 0.19669 0.34879 0.97661 0.0
C1510 C 0.17656 0.31796 0.96805 0.0
C1511 C 0.16094 0.33034 0.95932 0.0
C1512 C 0.16309 0.35201 0.95971 0.0
H1513 H 0.0632 0.29256 0.87531 0.0
H1514 H 0.09374 0.3077 0.89213 0.0
C1515 C 0.18082 0.36116 0.96826 0.0
C1516 C 0.14226 0.32079 0.94983 0.0
H1517 H 0.12633 0.28813 0.91117 0.0
C1518 C 0.1227 0.32598 0.95783 0.0
C1519 C 0.1436 0.3072 0.93262 0.0
C1520 C 0.1641 0.3019 0.92266 0.0
C1521 C 0.10442 0.31785 0.94916 0.0
C1522 C 0.10579 0.30384 0.93229 0.0
C1523 C 0.12535 0.29874 0.92422 0.0
C1524 C 0.08712 0.29474 0.92236 0.0
C1525 C 0.0838 0.32473 0.95781 0.0
C1526 C 0.07337 0.28229 0.93374 0.0
C1527 C 0.05583 0.27372 0.92419 0.0
C1528 C 0.0519 0.27729 0.90305 0.0
C1529 C 0.06581 0.28957 0.89164 0.0
C1530 C 0.08327 0.2982 0.90121 0.0
H1531 H 0.08524 0.33935 0.96686 0.0
H1532 H 0.07229 0.32711 0.9452 0.0
H1533 H 0.07774 0.31255 0.96833 0.0
H1534 H 0.07628 0.27906 0.94997 0.0
H1535 H 0.04545 0.26419 0.93333 0.0
H1536 H 0.46692 0.71326 0.43119 0.0
H1537 H 0.43636 0.69799 0.44787 0.0
H1538 H 0.39754 0.72177 0.39882 0.0
H1539 H 0.42802 0.73655 0.38182 0.0
H1540 H 0.40066 0.71544 0.46271 0.0
H1541 H 0.38256 0.66074 0.39866 0.0
H1542 H 0.40679 0.67473 0.40016 0.0
H1543 H 0.38386 0.68726 0.39036 0.0
C1544 C 0.45186 0.71521 0.42398 0.0
C1545 C 0.44985 0.72591 0.40511 0.0
C1546 C 0.43444 0.70651 0.43352 0.0
C1547 C 0.41475 0.7084 0.42436 0.0
C1548 C 0.41265 0.71965 0.40587 0.0
H1549 H 0.29483 0.68582 0.48154 0.0
H1550 H 0.32642 0.70141 0.4673 0.0
C1551 C 0.43007 0.72819 0.39624 0.0
C1552 C 0.39639 0.6986 0.43412 0.0
H1553 H 0.35693 0.6644 0.4249 0.0
C1554 C 0.39113 0.70421 0.45449 0.0
C1555 C 0.38418 0.68371 0.42348 0.0
C1556 C 0.38972 0.67608 0.40204 0.0
C1557 C 0.37373 0.69564 0.46438 0.0
C1558 C 0.36106 0.68138 0.45342 0.0
C1559 C 0.36654 0.6755 0.43319 0.0
C1560 C 0.34217 0.67213 0.46266 0.0
C1561 C 0.36927 0.70164 0.48656 0.0
C1562 C 0.34039 0.6505 0.46438 0.0
C1563 C 0.32232 0.64157 0.4723 0.0
C1564 C 0.30566 0.65411 0.47859 0.0
C1565 C 0.30746 0.67578 0.4769 0.0
C1566 C 0.32555 0.68471 0.46891 0.0
H1567 H 0.38325 0.70805 0.49441 0.0
H1568 H 0.35707 0.71376 0.48679 0.0
H1569 H 0.36357 0.68812 0.49557 0.0
H1570 H 0.353 0.64051 0.45955 0.0
H1571 H 0.32138 0.62483 0.4734 0.0
H1572 H 0.81573 0.5302 0.79054 0.0
H1573 H 0.80006 0.54525 0.82171 0.0
H1574 H 0.85655 0.53395 0.85582 0.0
H1575 H 0.87245 0.51929 0.82465 0.0
H1576 H 0.79291 0.52852 0.86038 0.0
H1577 H 0.84683 0.59553 0.86581 0.0
H1578 H 0.84515 0.57927 0.84304 0.0
H1579 H 0.85967 0.57085 0.86532 0.0
C1580 C 0.8248 0.53093 0.80469 0.0
C1581 C 0.84537 0.52374 0.80514 0.0
C1582 C 0.81583 0.5395 0.82247 0.0
C1583 C 0.82727 0.54104 0.84096 0.0
C1584 C 0.84762 0.53335 0.84158 0.0
H1585 H 0.77791 0.5666 0.9641 0.0
H1586 H 0.79263 0.55026 0.93312 0.0
C1587 C 0.85663 0.52488 0.8238 0.0
C1588 C 0.81791 0.55071 0.85959 0.0
H1589 H 0.82417 0.5903 0.89432 0.0
C1590 C 0.79969 0.54206 0.86779 0.0
C1591 C 0.82665 0.56854 0.86904 0.0
C1592 C 0.84554 0.57924 0.86026 0.0
C1593 C 0.79012 0.5506 0.88539 0.0
C1594 C 0.79925 0.56802 0.89522 0.0
C1595 C 0.81732 0.57682 0.88686 0.0
C1596 C 0.79011 0.5777 0.91397 0.0
C1597 C 0.7701 0.54117 0.893 0.0
C1598 C 0.78428 0.59866 0.91362 0.0
C1599 C 0.7761 0.60808 0.93133 0.0
C1600 C 0.77362 0.59669 0.94973 0.0
C1601 C 0.77952 0.57571 0.95009 0.0
C1602 C 0.7878 0.56633 0.93237 0.0
H1603 H 0.76237 0.53175 0.88076 0.0
H1604 H 0.77346 0.53081 0.90631 0.0
H1605 H 0.75916 0.55335 0.89831 0.0
H1606 H 0.78603 0.60774 0.8996 0.0
H1607 H 0.77171 0.62427 0.93059 0.0
H1608 H 0.62386 0.5173 0.17786 0.0
H1609 H 0.63985 0.53173 0.14664 0.0
H1610 H 0.69625 0.5435 0.18086 0.0
H1611 H 0.68051 0.52868 0.21203 0.0
H1612 H 0.6547 0.57075 0.14028 0.0
H1613 H 0.71769 0.51318 0.12996 0.0
H1614 H 0.69611 0.50894 0.14725 0.0
H1615 H 0.71755 0.52502 0.15519 0.0
C1616 C 0.63972 0.52284 0.17869 0.0
C1617 C 0.65098 0.52178 0.19735 0.0
C1618 C 0.64882 0.53108 0.16086 0.0
C1619 C 0.66934 0.53839 0.16135 0.0
C1620 C 0.68057 0.5375 0.18001 0.0
H1621 H 0.72547 0.62348 0.07391 0.0
H1622 H 0.70992 0.60671 0.10413 0.0
C1623 C 0.67151 0.52916 0.19783 0.0
C1624 C 0.67869 0.54764 0.14252 0.0
H1625 H 0.71968 0.54373 0.10928 0.0
C1626 C 0.66886 0.56479 0.13343 0.0
C1627 C 0.697 0.53965 0.13346 0.0
C1628 C 0.70761 0.52056 0.14182 0.0
C1629 C 0.67705 0.57442 0.11575 0.0
C1630 C 0.69581 0.56695 0.10719 0.0
C1631 C 0.70542 0.54955 0.11602 0.0
C1632 C 0.70566 0.57697 0.08903 0.0
C1633 C 0.66536 0.59231 0.10623 0.0
C1634 C 0.70903 0.56562 0.07074 0.0
C1635 C 0.71811 0.57511 0.0535 0.0
C1636 C 0.724 0.5961 0.05432 0.0
C1637 C 0.72093 0.60733 0.07277 0.0
C1638 C 0.71194 0.59781 0.09001 0.0
H1639 H 0.64879 0.59231 0.11095 0.0
H1640 H 0.67239 0.60713 0.11156 0.0
H1641 H 0.66616 0.5918 0.08903 0.0
H1642 H 0.7044 0.54948 0.06972 0.0
H1643 H 0.72034 0.56607 0.03951 0.0
H1644 H 0.73583 0.37833 0.42642 0.0
H1645 H 0.72168 0.39465 0.39526 0.0
H1646 H 0.70817 0.45003 0.4304 0.0
H1647 H 0.72271 0.43393 0.46157 0.0
H1648 H 0.68217 0.4081 0.38927 0.0
H1649 H 0.73745 0.47342 0.37973 0.0
H1650 H 0.74256 0.45175 0.39668 0.0
H1651 H 0.72575 0.4724 0.40496 0.0
C1652 C 0.73004 0.39406 0.42747 0.0
C1653 C 0.73041 0.40489 0.44641 0.0
C1654 C 0.72195 0.40335 0.40966 0.0
C1655 C 0.71412 0.42364 0.41044 0.0
C1656 C 0.71455 0.43453 0.42933 0.0
H1657 H 0.62687 0.47694 0.32312 0.0
H1658 H 0.64438 0.4626 0.35357 0.0
C1659 C 0.72274 0.42527 0.44715 0.0
C1660 C 0.70448 0.4329 0.39175 0.0
H1661 H 0.70687 0.47433 0.3589 0.0
C1662 C 0.68763 0.42254 0.38257 0.0
C1663 C 0.71179 0.45161 0.38291 0.0
C1664 C 0.73051 0.46286 0.39144 0.0
C1665 C 0.67766 0.43052 0.36497 0.0
C1666 C 0.68447 0.44961 0.35658 0.0
C1667 C 0.70155 0.45981 0.36552 0.0
C1668 C 0.67411 0.45912 0.33842 0.0
C1669 C 0.66013 0.41826 0.35532 0.0
C1670 C 0.68522 0.46256 0.32004 0.0
C1671 C 0.6753 0.47091 0.30266 0.0
C1672 C 0.65412 0.47601 0.30343 0.0
C1673 C 0.64317 0.473 0.32201 0.0
C1674 C 0.65311 0.46472 0.33939 0.0
H1675 H 0.66056 0.40169 0.36005 0.0
H1676 H 0.64511 0.42484 0.36051 0.0
H1677 H 0.6607 0.41906 0.33812 0.0
H1678 H 0.70147 0.45844 0.31903 0.0
H1679 H 0.68414 0.47312 0.28856 0.0
H1680 H 0.87033 0.48465 0.67792 0.0
H1681 H 0.85367 0.4708 0.64672 0.0
H1682 H 0.79781 0.45895 0.68152 0.0
H1683 H 0.81428 0.47317 0.71277 0.0
H1684 H 0.83885 0.43152 0.64089 0.0
H1685 H 0.7757 0.48899 0.63048 0.0
H1686 H 0.79754 0.49349 0.6475 0.0
H1687 H 0.77633 0.47735 0.65576 0.0
C1688 C 0.85444 0.47927 0.6789 0.0
C1689 C 0.84358 0.48002 0.69777 0.0
C1690 C 0.84495 0.47136 0.66106 0.0
C1691 C 0.82443 0.4641 0.66174 0.0
C1692 C 0.81351 0.46489 0.68055 0.0
H1693 H 0.7688 0.37891 0.57336 0.0
H1694 H 0.78294 0.39597 0.60423 0.0
C1695 C 0.82297 0.47289 0.69841 0.0
C1696 C 0.81493 0.45471 0.64298 0.0
H1697 H 0.77408 0.45865 0.60939 0.0
C1698 C 0.82472 0.43749 0.63396 0.0
C1699 C 0.79663 0.46269 0.63384 0.0
C1700 C 0.78601 0.48177 0.64225 0.0
C1701 C 0.81659 0.42784 0.6162 0.0
C1702 C 0.79792 0.43537 0.60747 0.0
C1703 C 0.78827 0.45279 0.61627 0.0
C1704 C 0.78832 0.42542 0.58908 0.0
C1705 C 0.82823 0.40986 0.60676 0.0
C1706 C 0.78603 0.43655 0.57053 0.0
C1707 C 0.77782 0.42688 0.55289 0.0
C1708 C 0.77172 0.40594 0.55356 0.0
C1709 C 0.77352 0.39501 0.57232 0.0
C1710 C 0.78168 0.4047 0.58995 0.0
H1711 H 0.84468 0.40953 0.61194 0.0
H1712 H 0.82082 0.39511 0.61161 0.0
H1713 H 0.82786 0.4106 0.58955 0.0
H1714 H 0.79098 0.45259 0.5696 0.0
H1715 H 0.77655 0.4357 0.53866 0.0
H1716 H 0.4391 0.04641 0.24397 0.0
H1717 H 0.45606 0.07824 0.232 0.0
H1718 H 0.39775 0.10001 0.20746 0.0
H1719 H 0.38065 0.06843 0.21963 0.0
H1720 H 0.45919 0.09212 0.19198 0.0
H1721 H 0.41823 0.15013 0.2403 0.0
H1722 H 0.41756 0.12268 0.24585 0.0
H1723 H 0.40078 0.13344 0.22631 0.0
C1724 C 0.42987 0.05807 0.23617 0.0
C1725 C 0.40854 0.05497 0.23276 0.0
C1726 C 0.43957 0.07623 0.22937 0.0
C1727 C 0.42809 0.09163 0.21916 0.0
C1728 C 0.40679 0.08856 0.21575 0.0
H1729 H 0.46478 0.18296 0.13108 0.0
H1730 H 0.45252 0.15279 0.15035 0.0
C1731 C 0.39708 0.07043 0.22257 0.0
C1732 C 0.43856 0.11034 0.21091 0.0
H1733 H 0.43651 0.16327 0.21067 0.0
C1734 C 0.45441 0.10768 0.19625 0.0
C1735 C 0.43252 0.13062 0.21674 0.0
C1736 C 0.41649 0.13444 0.23332 0.0
C1737 C 0.46374 0.12477 0.18657 0.0
C1738 C 0.45678 0.145 0.19144 0.0
C1739 C 0.44162 0.14771 0.20679 0.0
C1740 C 0.4643 0.1634 0.18 0.0
C1741 C 0.48087 0.12101 0.17109 0.0
C1742 C 0.4745 0.17964 0.1904 0.0
C1743 C 0.48145 0.19702 0.17942 0.0
C1744 C 0.47815 0.19844 0.15791 0.0
C1745 C 0.46767 0.18227 0.14763 0.0
C1746 C 0.46076 0.16495 0.15858 0.0
H1747 H 0.48844 0.10575 0.17362 0.0
H1748 H 0.47422 0.12101 0.15519 0.0
H1749 H 0.49286 0.13337 0.17198 0.0
H1750 H 0.47722 0.17878 0.20697 0.0
H1751 H 0.48943 0.20929 0.18775 0.0
H1752 H 0.03334 0.78823 0.68417 0.0
H1753 H 0.04822 0.81943 0.70008 0.0
H1754 H 0.03525 0.85402 0.64432 0.0
H1755 H 0.02087 0.82279 0.62815 0.0
H1756 H 0.07403 0.86108 0.65825 0.0
H1757 H 0.0182 0.86953 0.72304 0.0
H1758 H 0.0306 0.84463 0.72236 0.0
H1759 H 0.0137 0.85219 0.70146 0.0
C1760 C 0.03359 0.80252 0.67535 0.0
C1761 C 0.02591 0.8031 0.65494 0.0
C1762 C 0.04196 0.82036 0.68451 0.0
C1763 C 0.04252 0.83914 0.67351 0.0
C1764 C 0.03489 0.83971 0.65312 0.0
H1765 H 0.06813 0.9615 0.72475 0.0
H1766 H 0.05207 0.93059 0.70939 0.0
C1767 C 0.02667 0.82187 0.64391 0.0
C1768 C 0.05174 0.85805 0.68291 0.0
H1769 H 0.04826 0.89104 0.72428 0.0
C1770 C 0.06834 0.86768 0.67265 0.0
C1771 C 0.04411 0.8668 0.70154 0.0
C1772 C 0.02554 0.85789 0.71265 0.0
C1773 C 0.07772 0.88566 0.68064 0.0
C1774 C 0.07063 0.89395 0.69968 0.0
C1775 C 0.05382 0.88452 0.7098 0.0
C1776 C 0.08034 0.9125 0.70926 0.0
C1777 C 0.09488 0.89582 0.66838 0.0
C1778 C 0.10146 0.91246 0.71458 0.0
C1779 C 0.11068 0.93012 0.72319 0.0
C1780 C 0.09888 0.94805 0.7269 0.0
C1781 C 0.07762 0.94792 0.72201 0.0
C1782 C 0.06843 0.93028 0.71327 0.0
H1783 H 0.09438 0.89118 0.65177 0.0
H1784 H 0.09392 0.91299 0.66936 0.0
H1785 H 0.11009 0.89093 0.67478 0.0
H1786 H 0.11082 0.89875 0.71209 0.0
H1787 H 0.12706 0.92971 0.72698 0.0
H1788 H 0.47134 0.81766 0.37156 0.0
H1789 H 0.45825 0.84841 0.35374 0.0
H1790 H 0.47922 0.82365 0.29523 0.0
H1791 H 0.49214 0.7926 0.31295 0.0
H1792 H 0.47921 0.87742 0.32911 0.0
H1793 H 0.4175 0.83604 0.28489 0.0
H1794 H 0.43095 0.82437 0.30649 0.0
H1795 H 0.44333 0.82612 0.28161 0.0
C1796 C 0.47318 0.81875 0.3549 0.0
C1797 C 0.48263 0.80267 0.34362 0.0
C1798 C 0.46574 0.83634 0.34476 0.0
C1799 C 0.46754 0.83817 0.32316 0.0
C1800 C 0.47737 0.82236 0.31187 0.0
H1801 H 0.43993 0.95461 0.2583 0.0
H1802 H 0.45763 0.92351 0.27106 0.0
C1803 C 0.48482 0.8047 0.32202 0.0
C1804 C 0.45888 0.8566 0.3126 0.0
H1805 H 0.42104 0.87195 0.27887 0.0
C1806 C 0.46658 0.87626 0.31802 0.0
C1807 C 0.44227 0.85497 0.29831 0.0
C1808 C 0.43286 0.83428 0.29255 0.0
C1809 C 0.45793 0.89441 0.30972 0.0
C1810 C 0.44136 0.89279 0.29539 0.0
C1811 C 0.43384 0.87311 0.28976 0.0
C1812 C 0.43074 0.91133 0.28704 0.0
C1813 C 0.4661 0.91518 0.31694 0.0
C1814 C 0.40965 0.91449 0.29133 0.0
C1815 C 0.39949 0.93211 0.28395 0.0
C1816 C 0.41024 0.94688 0.27209 0.0
C1817 C 0.4313 0.94355 0.26752 0.0
C1818 C 0.44144 0.92586 0.27488 0.0
H1819 H 0.4756 0.91379 0.33127 0.0
H1820 H 0.47604 0.92193 0.30464 0.0
H1821 H 0.45316 0.92612 0.31995 0.0
H1822 H 0.4011 0.90343 0.30065 0.0
H1823 H 0.38325 0.93423 0.28769 0.0
H1824 H 0.8161 0.62655 0.03734 0.0
H1825 H 0.84679 0.64367 0.05181 0.0
H1826 H 0.82463 0.70268 0.02952 0.0
H1827 H 0.79367 0.6857 0.01528 0.0
H1828 H 0.87719 0.66668 0.03213 0.0
H1829 H 0.83581 0.7141 0.09096 0.0
H1830 H 0.82359 0.69279 0.0774 0.0
H1831 H 0.8267 0.71747 0.06483 0.0
C1832 C 0.81774 0.64318 0.03555 0.0
C1833 C 0.80243 0.65482 0.02529 0.0
C1834 C 0.83529 0.65292 0.0438 0.0
C1835 C 0.83783 0.67447 0.04199 0.0
C1836 C 0.82275 0.68609 0.03144 0.0
H1837 H 0.95447 0.73958 0.06638 0.0
H1838 H 0.92336 0.72509 0.04992 0.0
C1839 C 0.80515 0.67636 0.02323 0.0
C1840 C 0.85638 0.68464 0.05106 0.0
H1841 H 0.87184 0.72023 0.08725 0.0
C1842 C 0.87605 0.67841 0.04416 0.0
C1843 C 0.85481 0.69976 0.06692 0.0
C1844 C 0.83412 0.70633 0.07564 0.0
C1845 C 0.89424 0.68692 0.05268 0.0
C1846 C 0.89265 0.70233 0.06825 0.0
C1847 C 0.87298 0.70854 0.07517 0.0
C1848 C 0.91124 0.71164 0.07816 0.0
C1849 C 0.91496 0.67892 0.04533 0.0
C1850 C 0.91442 0.70938 0.09957 0.0
C1851 C 0.93205 0.71778 0.10903 0.0
C1852 C 0.94681 0.72863 0.09723 0.0
C1853 C 0.94344 0.73117 0.07583 0.0
C1854 C 0.92574 0.72281 0.06639 0.0
H1855 H 0.91345 0.66374 0.03725 0.0
H1856 H 0.92177 0.69018 0.03426 0.0
H1857 H 0.92591 0.67713 0.05853 0.0
H1858 H 0.90336 0.70088 0.10894 0.0
H1859 H 0.93421 0.71562 0.12555 0.0
H1860 H 0.57236 0.27628 0.62413 0.0
H1861 H 0.60285 0.29101 0.60708 0.0
H1862 H 0.57125 0.28819 0.54809 0.0
H1863 H 0.54079 0.27304 0.565 0.0
H1864 H 0.61165 0.27432 0.54588 0.0
H1865 H 0.60793 0.35032 0.58618 0.0
H1866 H 0.60878 0.32864 0.60358 0.0
H1867 H 0.58681 0.33192 0.58666 0.0
C1868 C 0.57189 0.27881 0.60753 0.0
C1869 C 0.55415 0.27364 0.5959 0.0
C1870 C 0.58929 0.28733 0.59783 0.0
C1871 C 0.58917 0.29104 0.57639 0.0
C1872 C 0.5716 0.28555 0.56468 0.0
H1873 H 0.67714 0.37077 0.51311 0.0
H1874 H 0.64597 0.35431 0.52708 0.0
C1875 C 0.55422 0.27694 0.57436 0.0
C1876 C 0.60741 0.30056 0.56617 0.0
H1877 H 0.63852 0.34345 0.56681 0.0
C1878 C 0.61749 0.28947 0.55037 0.0
C1879 C 0.6148 0.32046 0.57185 0.0
C1880 C 0.60391 0.33364 0.58785 0.0
C1881 C 0.63503 0.29761 0.54035 0.0
C1882 C 0.6429 0.31716 0.54661 0.0
C1883 C 0.63258 0.32838 0.56216 0.0
C1884 C 0.66169 0.32645 0.53717 0.0
C1885 C 0.64475 0.28534 0.52294 0.0
C1886 C 0.6809 0.31625 0.53822 0.0
C1887 C 0.69873 0.32556 0.5301 0.0
C1888 C 0.69767 0.34535 0.52106 0.0
C1889 C 0.67843 0.3555 0.51999 0.0
C1890 C 0.66061 0.34614 0.52798 0.0
H1891 H 0.63368 0.27392 0.51621 0.0
H1892 H 0.65027 0.29572 0.51038 0.0
H1893 H 0.65827 0.27663 0.52906 0.0
H1894 H 0.68219 0.30126 0.54567 0.0
H1895 H 0.71338 0.31745 0.53127 0.0
H1896 H 0.23573 0.43735 0.04233 0.0
H1897 H 0.22268 0.45453 0.07363 0.0
H1898 H 0.20729 0.39495 0.09986 0.0
H1899 H 0.22068 0.37768 0.06887 0.0
H1900 H 0.18374 0.4538 0.08974 0.0
H1901 H 0.23949 0.42194 0.14681 0.0
H1902 H 0.24352 0.42009 0.11917 0.0
H1903 H 0.22657 0.40207 0.1321 0.0
C1904 C 0.2297 0.42792 0.05485 0.0
C1905 C 0.2293 0.40617 0.05321 0.0
C1906 C 0.22225 0.43775 0.07269 0.0
C1907 C 0.21435 0.426 0.08922 0.0
C1908 C 0.2138 0.4043 0.08753 0.0
H1909 H 0.12919 0.46338 0.18487 0.0
H1910 H 0.14646 0.44986 0.15397 0.0
C1911 C 0.22132 0.39446 0.06975 0.0
C1912 C 0.20581 0.43645 0.10784 0.0
H1913 H 0.20906 0.438 0.16069 0.0
C1914 C 0.1894 0.45049 0.10524 0.0
C1915 C 0.21342 0.43237 0.12803 0.0
C1916 C 0.23186 0.41846 0.13172 0.0
C1917 C 0.17992 0.46004 0.12234 0.0
C1918 C 0.18678 0.45508 0.1426 0.0
C1919 C 0.20366 0.44159 0.14516 0.0
C1920 C 0.17637 0.46336 0.16133 0.0
C1921 C 0.16274 0.47545 0.11854 0.0
C1922 C 0.1876 0.47492 0.17605 0.0
C1923 C 0.1778 0.48249 0.19385 0.0
C1924 C 0.15663 0.47855 0.19725 0.0
C1925 C 0.14548 0.4668 0.18259 0.0
C1926 C 0.1553 0.45918 0.16486 0.0
H1927 H 0.16362 0.48211 0.10268 0.0
H1928 H 0.14755 0.46747 0.12003 0.0
H1929 H 0.16328 0.48834 0.12999 0.0
H1930 H 0.20392 0.47819 0.17368 0.0
H1931 H 0.18679 0.49147 0.20491 0.0
H1932 H 0.31912 0.46875 0.78691 0.0
H1933 H 0.30253 0.45407 0.81772 0.0
H1934 H 0.35779 0.46653 0.85353 0.0
H1935 H 0.37463 0.48076 0.8227 0.0
H1936 H 0.34319 0.42769 0.85998 0.0
H1937 H 0.27918 0.48459 0.8675 0.0
H1938 H 0.28018 0.47227 0.84253 0.0
H1939 H 0.30117 0.48882 0.85073 0.0
C1940 C 0.32768 0.46844 0.80138 0.0
C1941 C 0.34815 0.47594 0.80244 0.0
C1942 C 0.31814 0.46018 0.81899 0.0
C1943 C 0.3288 0.45953 0.838 0.0
C1944 C 0.34925 0.46698 0.83904 0.0
H1945 H 0.27647 0.43496 0.95957 0.0
H1946 H 0.29198 0.45065 0.92868 0.0
C1947 C 0.35885 0.4751 0.82143 0.0
C1948 C 0.31897 0.45043 0.85666 0.0
H1949 H 0.27722 0.45461 0.88891 0.0
C1950 C 0.3288 0.43362 0.86635 0.0
C1951 C 0.30034 0.45837 0.86509 0.0
C1952 C 0.28969 0.47713 0.85607 0.0
C1953 C 0.32038 0.42435 0.88412 0.0
C1954 C 0.30137 0.43179 0.89211 0.0
C1955 C 0.29168 0.44879 0.8826 0.0
C1956 C 0.29147 0.42235 0.91055 0.0
C1957 C 0.33217 0.40694 0.89439 0.0
C1958 C 0.28569 0.40134 0.91044 0.0
C1959 C 0.27698 0.39232 0.92809 0.0
C1960 C 0.27365 0.40423 0.94606 0.0
C1961 C 0.27891 0.4254 0.94595 0.0
C1962 C 0.28774 0.43438 0.92833 0.0
H1963 H 0.34881 0.40701 0.88992 0.0
H1964 H 0.33112 0.408 0.91155 0.0
H1965 H 0.32542 0.39186 0.88945 0.0
H1966 H 0.28798 0.3919 0.89672 0.0
H1967 H 0.27291 0.37601 0.92766 0.0
H1968 H 0.27633 0.56785 0.54159 0.0
H1969 H 0.29082 0.552 0.57289 0.0
H1970 H 0.28796 0.61106 0.60439 0.0
H1971 H 0.27397 0.6271 0.57299 0.0
H1972 H 0.32493 0.59247 0.60989 0.0
H1973 H 0.26175 0.53643 0.62621 0.0
H1974 H 0.27214 0.53386 0.60053 0.0
H1975 H 0.2589 0.55732 0.60782 0.0
C1976 C 0.27868 0.57741 0.55524 0.0
C1977 C 0.27399 0.59869 0.55488 0.0
C1978 C 0.28682 0.56831 0.57315 0.0
C1979 C 0.29014 0.58027 0.59109 0.0
C1980 C 0.28543 0.60152 0.59075 0.0
H1981 H 0.31894 0.53192 0.71384 0.0
H1982 H 0.30238 0.54792 0.68362 0.0
C1983 C 0.27743 0.61066 0.57281 0.0
C1984 C 0.29938 0.57089 0.60993 0.0
H1985 H 0.29315 0.53206 0.64534 0.0
C1986 C 0.31793 0.57933 0.61771 0.0
C1987 C 0.29006 0.55393 0.62028 0.0
C1988 C 0.26951 0.54497 0.61343 0.0
C1989 C 0.32762 0.57106 0.63534 0.0
C1990 C 0.31878 0.55354 0.64516 0.0
C1991 C 0.30002 0.54534 0.63764 0.0
C1992 C 0.32873 0.54357 0.66331 0.0
C1993 C 0.34704 0.58139 0.64346 0.0
C1994 C 0.34889 0.53552 0.66181 0.0
C1995 C 0.35842 0.52653 0.67906 0.0
C1996 C 0.34785 0.52519 0.69805 0.0
C1997 C 0.32748 0.5328 0.69941 0.0
C1998 C 0.318 0.54191 0.68217 0.0
H1999 H 0.34831 0.59771 0.63806 0.0
H2000 H 0.34746 0.58129 0.66069 0.0
H2001 H 0.36081 0.57286 0.63768 0.0
H2002 H 0.35726 0.53617 0.64727 0.0
H2003 H 0.37406 0.52063 0.6775 0.0
H2004 H 0.12669 0.53986 0.31485 0.0
H2005 H 0.14317 0.55456 0.34579 0.0
H2006 H 0.20124 0.52629 0.32849 0.0
H2007 H 0.18496 0.51188 0.29725 0.0
H2008 H 0.16222 0.53524 0.3785 0.0
H2009 H 0.21771 0.58663 0.33737 0.0
H2010 H 0.1962 0.57418 0.32439 0.0
H2011 H 0.21941 0.55981 0.33001 0.0
C2012 C 0.14299 0.53681 0.31761 0.0
C2013 C 0.15459 0.52484 0.30357 0.0
C2014 C 0.15236 0.54519 0.3353 0.0
C2015 C 0.17349 0.54178 0.33927 0.0
C2016 C 0.18503 0.52949 0.32548 0.0
H2017 H 0.23343 0.56619 0.45864 0.0
H2018 H 0.21875 0.54952 0.42772 0.0
C2019 C 0.17568 0.52118 0.30771 0.0
C2020 C 0.18332 0.55096 0.35796 0.0
H2021 H 0.22154 0.58415 0.37386 0.0
C2022 C 0.1752 0.54593 0.37751 0.0
C2023 C 0.20008 0.5651 0.35658 0.0
C2024 C 0.20877 0.57193 0.33597 0.0
C2025 C 0.18341 0.55462 0.39575 0.0
C2026 C 0.20049 0.56838 0.3944 0.0
C2027 C 0.20857 0.57345 0.37485 0.0
C2028 C 0.20972 0.57831 0.41302 0.0
C2029 C 0.17336 0.54943 0.41623 0.0
C2030 C 0.21006 0.60001 0.41473 0.0
C2031 C 0.21863 0.60956 0.43224 0.0
C2032 C 0.22704 0.59755 0.44836 0.0
C2033 C 0.22691 0.57582 0.44653 0.0
C2034 C 0.21843 0.56628 0.42894 0.0
H2035 H 0.15744 0.54314 0.4141 0.0
H2036 H 0.18275 0.53746 0.42426 0.0
H2037 H 0.17253 0.56331 0.42642 0.0
H2038 H 0.20349 0.60958 0.40259 0.0
H2039 H 0.21853 0.62634 0.4332 0.0
loop_
_geom_bond_atom_site_label_1
_geom_bond_atom_site_label_2
_geom_bond_distance
_geom_bond_site_symmetry_2
_ccdc_geom_bond_type
In0 O1 2.294 . S
In0 O2 2.326 . S
In0 O6 2.266 1_455 S
In0 O7 2.326 1_455 S
In0 O8 2.266 1_455 S
In0 O9 2.326 1_455 S
In0 O11 2.294 . S
In0 O12 2.326 . S
O1 In0 2.294 . S
O1 C10 1.240 . S
O2 In0 2.326 . S
O2 C10 1.252 . S
C3 O6 1.252 . S
C3 O7 1.260 . S
C4 O11 1.240 . S
C4 O12 1.252 . S
C5 O8 1.252 . S
C5 O9 1.260 . S
O6 In0 2.266 1_655 S
O6 C3 1.252 . S
O7 In0 2.326 1_655 S
O7 C3 1.260 . S
O8 In0 2.266 1_655 S
O8 C5 1.252 . S
O9 In0 2.326 1_655 S
O9 C5 1.260 . S
C10 O1 1.240 . S
C10 O2 1.252 . S
O11 In0 2.294 . S
O11 C4 1.240 . S
O12 In0 2.326 . S
O12 C4 1.252 . S
In13 O14 2.294 . S
In13 O15 2.326 . S
In13 O19 2.266 1_455 S
In13 O20 2.326 1_455 S
In13 O21 2.266 . S
In13 O22 2.326 . S
In13 O24 2.294 1_455 S
In13 O25 2.326 1_455 S
O14 In13 2.294 . S
O14 C23 1.240 . S
O15 In13 2.326 . S
O15 C23 1.252 . S
C16 O19 1.252 . S
C16 O20 1.260 . S
C17 O24 1.240 . S
C17 O25 1.252 . S
C18 O21 1.252 . S
C18 O22 1.260 . S
O19 In13 2.266 1_655 S
O19 C16 1.252 . S
O20 In13 2.326 1_655 S
O20 C16 1.260 . S
O21 In13 2.266 . S
O21 C18 1.252 . S
O22 In13 2.326 . S
O22 C18 1.260 . S
C23 O14 1.240 . S
C23 O15 1.252 . S
O24 In13 2.294 1_655 S
O24 C17 1.240 . S
O25 In13 2.326 1_655 S
O25 C17 1.252 . S
In26 O27 2.294 . S
In26 O28 2.326 . S
In26 O32 2.266 . S
In26 O33 2.326 . S
In26 O34 2.266 . S
In26 O35 2.326 . S
In26 O37 2.294 . S
In26 O38 2.326 . S
O27 In26 2.294 . S
O27 C36 1.240 . S
O28 In26 2.326 . S
O28 C36 1.252 . S
C29 O32 1.252 . S
C29 O33 1.260 . S
C30 O37 1.240 . S
C30 O38 1.252 . S
C31 O34 1.252 . S
C31 O35 1.260 . S
O32 In26 2.266 . S
O32 C29 1.252 . S
O33 In26 2.326 . S
O33 C29 1.260 . S
O34 In26 2.266 . S
O34 C31 1.252 . S
O35 In26 2.326 . S
O35 C31 1.260 . S
C36 O27 1.240 . S
C36 O28 1.252 . S
O37 In26 2.294 . S
O37 C30 1.240 . S
O38 In26 2.326 . S
O38 C30 1.252 . S
In39 O40 2.294 . S
In39 O41 2.326 . S
In39 O45 2.266 . S
In39 O46 2.326 . S
In39 O47 2.266 . S
In39 O48 2.326 . S
In39 O50 2.294 . S
In39 O51 2.326 . S
O40 In39 2.294 . S
O40 C49 1.240 . S
O41 In39 2.326 . S
O41 C49 1.252 . S
C42 O45 1.252 . S
C42 O46 1.260 . S
C43 O50 1.240 . S
C43 O51 1.252 . S
C44 O47 1.252 . S
C44 O48 1.260 . S
O45 In39 2.266 . S
O45 C42 1.252 . S
O46 In39 2.326 . S
O46 C42 1.260 . S
O47 In39 2.266 . S
O47 C44 1.252 . S
O48 In39 2.326 . S
O48 C44 1.260 . S
C49 O40 1.240 . S
C49 O41 1.252 . S
O50 In39 2.294 . S
O50 C43 1.240 . S
O51 In39 2.326 . S
O51 C43 1.252 . S
In52 O53 2.294 . S
In52 O54 2.326 . S
In52 O58 2.266 1_455 S
In52 O59 2.326 1_455 S
In52 O60 2.266 1_455 S
In52 O61 2.326 1_455 S
In52 O63 2.294 . S
In52 O64 2.326 . S
O53 In52 2.294 . S
O53 C62 1.240 . S
O54 In52 2.326 . S
O54 C62 1.252 . S
C55 O58 1.252 . S
C55 O59 1.260 . S
C56 O63 1.240 . S
C56 O64 1.252 . S
C57 O60 1.252 . S
C57 O61 1.260 . S
O58 In52 2.266 1_655 S
O58 C55 1.252 . S
O59 In52 2.326 1_655 S
O59 C55 1.260 . S
O60 In52 2.266 1_655 S
O60 C57 1.252 . S
O61 In52 2.326 1_655 S
O61 C57 1.260 . S
C62 O53 1.240 . S
C62 O54 1.252 . S
O63 In52 2.294 . S
O63 C56 1.240 . S
O64 In52 2.326 . S
O64 C56 1.252 . S
In65 O66 2.294 . S
In65 O67 2.326 . S
In65 O71 2.266 . S
In65 O72 2.326 . S
In65 O73 2.266 . S
In65 O74 2.326 . S
In65 O76 2.294 . S
In65 O77 2.326 . S
O66 In65 2.294 . S
O66 C75 1.240 . S
O67 In65 2.326 . S
O67 C75 1.252 . S
C68 O71 1.252 . S
C68 O72 1.260 . S
C69 O76 1.240 . S
C69 O77 1.252 . S
C70 O73 1.252 . S
C70 O74 1.260 . S
O71 In65 2.266 . S
O71 C68 1.252 . S
O72 In65 2.326 . S
O72 C68 1.260 . S
O73 In65 2.266 . S
O73 C70 1.252 . S
O74 In65 2.326 . S
O74 C70 1.260 . S
C75 O66 1.240 . S
C75 O67 1.252 . S
O76 In65 2.294 . S
O76 C69 1.240 . S
O77 In65 2.326 . S
O77 C69 1.252 . S
In78 O79 2.294 . S
In78 O80 2.326 . S
In78 O84 2.266 . S
In78 O85 2.326 . S
In78 O86 2.266 . S
In78 O87 2.326 . S
In78 O89 2.294 . S
In78 O90 2.326 . S
O79 In78 2.294 . S
O79 C88 1.240 . S
O80 In78 2.326 . S
O80 C88 1.252 . S
C81 O84 1.252 . S
C81 O85 1.260 . S
C82 O89 1.240 . S
C82 O90 1.252 . S
C83 O86 1.252 . S
C83 O87 1.260 . S
O84 In78 2.266 . S
O84 C81 1.252 . S
O85 In78 2.326 . S
O85 C81 1.260 . S
O86 In78 2.266 . S
O86 C83 1.252 . S
O87 In78 2.326 . S
O87 C83 1.260 . S
C88 O79 1.240 . S
C88 O80 1.252 . S
O89 In78 2.294 . S
O89 C82 1.240 . S
O90 In78 2.326 . S
O90 C82 1.252 . S
In91 O92 2.269 1_455 S
In91 O93 2.285 1_455 S
In91 O97 2.292 . S
In91 O98 2.368 . S
In91 O99 2.258 1_455 S
In91 O100 2.307 1_455 S
In91 O102 2.303 . S
In91 O103 2.345 . S
O92 In91 2.269 1_655 S
O92 C101 1.240 . S
O93 In91 2.285 1_655 S
O93 C101 1.252 . S
C94 O97 1.252 . S
C94 O98 1.260 . S
C95 O102 1.240 . S
C95 O103 1.252 . S
C96 O99 1.252 . S
C96 O100 1.260 . S
O97 In91 2.292 . S
O97 C94 1.252 . S
O98 In91 2.368 . S
O98 C94 1.260 . S
O99 In91 2.258 1_655 S
O99 C96 1.252 . S
O100 In91 2.307 1_655 S
O100 C96 1.260 . S
C101 O92 1.240 . S
C101 O93 1.252 . S
O102 In91 2.303 . S
O102 C95 1.240 . S
O103 In91 2.345 . S
O103 C95 1.252 . S
In104 O105 2.294 . S
In104 O106 2.326 . S
In104 O110 2.266 1_545 S
In104 O111 2.326 1_545 S
In104 O112 2.266 1_545 S
In104 O113 2.326 1_545 S
In104 O115 2.294 . S
In104 O116 2.326 . S
O105 In104 2.294 . S
O105 C114 1.240 . S
O106 In104 2.326 . S
O106 C114 1.252 . S
C107 O110 1.252 . S
C107 O111 1.260 . S
C108 O115 1.240 . S
C108 O116 1.252 . S
C109 O112 1.252 . S
C109 O113 1.260 . S
O110 In104 2.266 1_565 S
O110 C107 1.252 . S
O111 In104 2.326 1_565 S
O111 C107 1.260 . S
O112 In104 2.266 1_565 S
O112 C109 1.252 . S
O113 In104 2.326 1_565 S
O113 C109 1.260 . S
C114 O105 1.240 . S
C114 O106 1.252 . S
O115 In104 2.294 . S
O115 C108 1.240 . S
O116 In104 2.326 . S
O116 C108 1.252 . S
In117 O118 2.294 . S
In117 O119 2.326 . S
In117 O123 2.266 . S
In117 O124 2.326 . S
In117 O125 2.266 . S
In117 O126 2.326 . S
In117 O128 2.294 . S
In117 O129 2.326 . S
O118 In117 2.294 . S
O118 C127 1.240 . S
O119 In117 2.326 . S
O119 C127 1.252 . S
C120 O123 1.252 . S
C120 O124 1.260 . S
C121 O128 1.240 . S
C121 O129 1.252 . S
C122 O125 1.252 . S
C122 O126 1.260 . S
O123 In117 2.266 . S
O123 C120 1.252 . S
O124 In117 2.326 . S
O124 C120 1.260 . S
O125 In117 2.266 . S
O125 C122 1.252 . S
O126 In117 2.326 . S
O126 C122 1.260 . S
C127 O118 1.240 . S
C127 O119 1.252 . S
O128 In117 2.294 . S
O128 C121 1.240 . S
O129 In117 2.326 . S
O129 C121 1.252 . S
In130 O131 2.294 . S
In130 O132 2.326 . S
In130 O136 2.266 1_545 S
In130 O137 2.326 1_545 S
In130 O138 2.266 1_545 S
In130 O139 2.326 1_545 S
In130 O141 2.294 . S
In130 O142 2.326 . S
O131 In130 2.294 . S
O131 C140 1.240 . S
O132 In130 2.326 . S
O132 C140 1.252 . S
C133 O136 1.252 . S
C133 O137 1.260 . S
C134 O141 1.240 . S
C134 O142 1.252 . S
C135 O138 1.252 . S
C135 O139 1.260 . S
O136 In130 2.266 1_565 S
O136 C133 1.252 . S
O137 In130 2.326 1_565 S
O137 C133 1.260 . S
O138 In130 2.266 1_565 S
O138 C135 1.252 . S
O139 In130 2.326 1_565 S
O139 C135 1.260 . S
C140 O131 1.240 . S
C140 O132 1.252 . S
O141 In130 2.294 . S
O141 C134 1.240 . S
O142 In130 2.326 . S
O142 C134 1.252 . S
In143 O144 2.303 . S
In143 O145 2.345 . S
In143 O149 2.258 1_554 S
In143 O150 2.307 1_554 S
In143 O151 2.292 . S
In143 O152 2.368 . S
In143 O154 2.269 1_554 S
In143 O155 2.285 1_554 S
O144 In143 2.303 . S
O144 C153 1.240 . S
O145 In143 2.345 . S
O145 C153 1.252 . S
C146 O149 1.252 . S
C146 O150 1.260 . S
C147 O154 1.240 . S
C147 O155 1.252 . S
C148 O151 1.252 . S
C148 O152 1.260 . S
O149 In143 2.258 1_556 S
O149 C146 1.252 . S
O150 In143 2.307 1_556 S
O150 C146 1.260 . S
O151 In143 2.292 . S
O151 C148 1.252 . S
O152 In143 2.368 . S
O152 C148 1.260 . S
C153 O144 1.240 . S
C153 O145 1.252 . S
O154 In143 2.269 1_556 S
O154 C147 1.240 . S
O155 In143 2.285 1_556 S
O155 C147 1.252 . S
In156 O157 2.294 . S
In156 O158 2.326 . S
In156 O162 2.266 1_554 S
In156 O163 2.326 1_554 S
In156 O164 2.266 1_554 S
In156 O165 2.326 1_554 S
In156 O167 2.294 . S
In156 O168 2.326 . S
O157 In156 2.294 . S
O157 C166 1.240 . S
O158 In156 2.326 . S
O158 C166 1.252 . S
C159 O162 1.252 . S
C159 O163 1.260 . S
C160 O167 1.240 . S
C160 O168 1.252 . S
C161 O164 1.252 . S
C161 O165 1.260 . S
O162 In156 2.266 1_556 S
O162 C159 1.252 . S
O163 In156 2.326 1_556 S
O163 C159 1.260 . S
O164 In156 2.266 1_556 S
O164 C161 1.252 . S
O165 In156 2.326 1_556 S
O165 C161 1.260 . S
C166 O157 1.240 . S
C166 O158 1.252 . S
O167 In156 2.294 . S
O167 C160 1.240 . S
O168 In156 2.326 . S
O168 C160 1.252 . S
In169 O170 2.294 . S
In169 O171 2.326 . S
In169 O175 2.266 1_554 S
In169 O176 2.326 1_554 S
In169 O177 2.266 1_554 S
In169 O178 2.326 1_554 S
In169 O180 2.294 . S
In169 O181 2.326 . S
O170 In169 2.294 . S
O170 C179 1.240 . S
O171 In169 2.326 . S
O171 C179 1.252 . S
C172 O175 1.252 . S
C172 O176 1.260 . S
C173 O180 1.240 . S
C173 O181 1.252 . S
C174 O177 1.252 . S
C174 O178 1.260 . S
O175 In169 2.266 1_556 S
O175 C172 1.252 . S
O176 In169 2.326 1_556 S
O176 C172 1.260 . S
O177 In169 2.266 1_556 S
O177 C174 1.252 . S
O178 In169 2.326 1_556 S
O178 C174 1.260 . S
C179 O170 1.240 . S
C179 O171 1.252 . S
O180 In169 2.294 . S
O180 C173 1.240 . S
O181 In169 2.326 . S
O181 C173 1.252 . S
In182 O183 2.294 . S
In182 O184 2.326 . S
In182 O188 2.266 . S
In182 O189 2.326 . S
In182 O190 2.266 . S
In182 O191 2.326 . S
In182 O193 2.294 . S
In182 O194 2.326 . S
O183 In182 2.294 . S
O183 C192 1.240 . S
O184 In182 2.326 . S
O184 C192 1.252 . S
C185 O188 1.252 . S
C185 O189 1.260 . S
C186 O193 1.240 . S
C186 O194 1.252 . S
C187 O190 1.252 . S
C187 O191 1.260 . S
O188 In182 2.266 . S
O188 C185 1.252 . S
O189 In182 2.326 . S
O189 C185 1.260 . S
O190 In182 2.266 . S
O190 C187 1.252 . S
O191 In182 2.326 . S
O191 C187 1.260 . S
C192 O183 1.240 . S
C192 O184 1.252 . S
O193 In182 2.294 . S
O193 C186 1.240 . S
O194 In182 2.326 . S
O194 C186 1.252 . S
In195 O196 2.294 . S
In195 O197 2.326 . S
In195 O201 2.266 . S
In195 O202 2.326 . S
In195 O203 2.266 . S
In195 O204 2.326 . S
In195 O206 2.294 . S
In195 O207 2.326 . S
O196 In195 2.294 . S
O196 C205 1.240 . S
O197 In195 2.326 . S
O197 C205 1.252 . S
C198 O201 1.252 . S
C198 O202 1.260 . S
C199 O206 1.240 . S
C199 O207 1.252 . S
C200 O203 1.252 . S
C200 O204 1.260 . S
O201 In195 2.266 . S
O201 C198 1.252 . S
O202 In195 2.326 . S
O202 C198 1.260 . S
O203 In195 2.266 . S
O203 C200 1.252 . S
O204 In195 2.326 . S
O204 C200 1.260 . S
C205 O196 1.240 . S
C205 O197 1.252 . S
O206 In195 2.294 . S
O206 C199 1.240 . S
O207 In195 2.326 . S
O207 C199 1.252 . S
In208 O209 2.303 . S
In208 O210 2.345 . S
In208 O214 2.258 1_545 S
In208 O215 2.307 1_545 S
In208 O216 2.292 . S
In208 O217 2.368 . S
In208 O219 2.269 1_545 S
In208 O220 2.285 1_545 S
O209 In208 2.303 . S
O209 C218 1.240 . S
O210 In208 2.345 . S
O210 C218 1.252 . S
C211 O214 1.252 . S
C211 O215 1.260 . S
C212 O219 1.240 . S
C212 O220 1.252 . S
C213 O216 1.252 . S
C213 O217 1.260 . S
O214 In208 2.258 1_565 S
O214 C211 1.252 . S
O215 In208 2.307 1_565 S
O215 C211 1.260 . S
O216 In208 2.292 . S
O216 C213 1.252 . S
O217 In208 2.368 . S
O217 C213 1.260 . S
C218 O209 1.240 . S
C218 O210 1.252 . S
O219 In208 2.269 1_565 S
O219 C212 1.240 . S
O220 In208 2.285 1_565 S
O220 C212 1.252 . S
In221 O222 2.294 . S
In221 O223 2.326 . S
In221 O227 2.266 . S
In221 O228 2.326 . S
In221 O229 2.266 . S
In221 O230 2.326 . S
In221 O232 2.294 . S
In221 O233 2.326 . S
O222 In221 2.294 . S
O222 C231 1.240 . S
O223 In221 2.326 . S
O223 C231 1.252 . S
C224 O227 1.252 . S
C224 O228 1.260 . S
C225 O232 1.240 . S
C225 O233 1.252 . S
C226 O229 1.252 . S
C226 O230 1.260 . S
O227 In221 2.266 . S
O227 C224 1.252 . S
O228 In221 2.326 . S
O228 C224 1.260 . S
O229 In221 2.266 . S
O229 C226 1.252 . S
O230 In221 2.326 . S
O230 C226 1.260 . S
C231 O222 1.240 . S
C231 O223 1.252 . S
O232 In221 2.294 . S
O232 C225 1.240 . S
O233 In221 2.326 . S
O233 C225 1.252 . S
In234 O235 2.294 . S
In234 O236 2.326 . S
In234 O240 2.266 . S
In234 O241 2.326 . S
In234 O242 2.266 . S
In234 O243 2.326 . S
In234 O245 2.294 . S
In234 O246 2.326 . S
O235 In234 2.294 . S
O235 C244 1.240 . S
O236 In234 2.326 . S
O236 C244 1.252 . S
C237 O240 1.252 . S
C237 O241 1.260 . S
C238 O245 1.240 . S
C238 O246 1.252 . S
C239 O242 1.252 . S
C239 O243 1.260 . S
O240 In234 2.266 . S
O240 C237 1.252 . S
O241 In234 2.326 . S
O241 C237 1.260 . S
O242 In234 2.266 . S
O242 C239 1.252 . S
O243 In234 2.326 . S
O243 C239 1.260 . S
C244 O235 1.240 . S
C244 O236 1.252 . S
O245 In234 2.294 . S
O245 C238 1.240 . S
O246 In234 2.326 . S
O246 C238 1.252 . S
In247 O248 2.294 1_545 S
In247 O249 2.326 1_545 S
In247 O253 2.266 . S
In247 O254 2.326 . S
In247 O255 2.266 1_545 S
In247 O256 2.326 1_545 S
In247 O258 2.294 . S
In247 O259 2.326 . S
O248 In247 2.294 1_565 S
O248 C257 1.240 . S
O249 In247 2.326 1_565 S
O249 C257 1.252 . S
C250 O253 1.252 . S
C250 O254 1.260 . S
C251 O258 1.240 . S
C251 O259 1.252 . S
C252 O255 1.252 . S
C252 O256 1.260 . S
O253 In247 2.266 . S
O253 C250 1.252 . S
O254 In247 2.326 . S
O254 C250 1.260 . S
O255 In247 2.266 1_565 S
O255 C252 1.252 . S
O256 In247 2.326 1_565 S
O256 C252 1.260 . S
C257 O248 1.240 . S
C257 O249 1.252 . S
O258 In247 2.294 . S
O258 C251 1.240 . S
O259 In247 2.326 . S
O259 C251 1.252 . S
In260 O261 2.294 . S
In260 O262 2.326 . S
In260 O266 2.266 1_554 S
In260 O267 2.326 1_554 S
In260 O268 2.266 . S
In260 O269 2.326 . S
In260 O271 2.294 1_554 S
In260 O272 2.326 1_554 S
O261 In260 2.294 . S
O261 C270 1.240 . S
O262 In260 2.326 . S
O262 C270 1.252 . S
C263 O266 1.252 . S
C263 O267 1.260 . S
C264 O271 1.240 . S
C264 O272 1.252 . S
C265 O268 1.252 . S
C265 O269 1.260 . S
O266 In260 2.266 1_556 S
O266 C263 1.252 . S
O267 In260 2.326 1_556 S
O267 C263 1.260 . S
O268 In260 2.266 . S
O268 C265 1.252 . S
O269 In260 2.326 . S
O269 C265 1.260 . S
C270 O261 1.240 . S
C270 O262 1.252 . S
O271 In260 2.294 1_556 S
O271 C264 1.240 . S
O272 In260 2.326 1_556 S
O272 C264 1.252 . S
In273 O274 2.294 . S
In273 O275 2.326 . S
In273 O279 2.266 . S
In273 O280 2.326 . S
In273 O281 2.266 . S
In273 O282 2.326 . S
In273 O284 2.294 . S
In273 O285 2.326 . S
O274 In273 2.294 . S
O274 C283 1.240 . S
O275 In273 2.326 . S
O275 C283 1.252 . S
C276 O279 1.252 . S
C276 O280 1.260 . S
C277 O284 1.240 . S
C277 O285 1.252 . S
C278 O281 1.252 . S
C278 O282 1.260 . S
O279 In273 2.266 . S
O279 C276 1.252 . S
O280 In273 2.326 . S
O280 C276 1.260 . S
O281 In273 2.266 . S
O281 C278 1.252 . S
O282 In273 2.326 . S
O282 C278 1.260 . S
C283 O274 1.240 . S
C283 O275 1.252 . S
O284 In273 2.294 . S
O284 C277 1.240 . S
O285 In273 2.326 . S
O285 C277 1.252 . S
In286 O287 2.294 . S
In286 O288 2.326 . S
In286 O292 2.266 . S
In286 O293 2.326 . S
In286 O294 2.266 . S
In286 O295 2.326 . S
In286 O297 2.294 . S
In286 O298 2.326 . S
O287 In286 2.294 . S
O287 C296 1.240 . S
O288 In286 2.326 . S
O288 C296 1.252 . S
C289 O292 1.252 . S
C289 O293 1.260 . S
C290 O297 1.240 . S
C290 O298 1.252 . S
C291 O294 1.252 . S
C291 O295 1.260 . S
O292 In286 2.266 . S
O292 C289 1.252 . S
O293 In286 2.326 . S
O293 C289 1.260 . S
O294 In286 2.266 . S
O294 C291 1.252 . S
O295 In286 2.326 . S
O295 C291 1.260 . S
C296 O287 1.240 . S
C296 O288 1.252 . S
O297 In286 2.294 . S
O297 C290 1.240 . S
O298 In286 2.326 . S
O298 C290 1.252 . S
In299 O300 2.294 . S
In299 O301 2.326 . S
In299 O305 2.266 . S
In299 O306 2.326 . S
In299 O307 2.266 . S
In299 O308 2.326 . S
In299 O310 2.294 . S
In299 O311 2.326 . S
O300 In299 2.294 . S
O300 C309 1.240 . S
O301 In299 2.326 . S
O301 C309 1.252 . S
C302 O305 1.252 . S
C302 O306 1.260 . S
C303 O310 1.240 . S
C303 O311 1.252 . S
C304 O307 1.252 . S
C304 O308 1.260 . S
O305 In299 2.266 . S
O305 C302 1.252 . S
O306 In299 2.326 . S
O306 C302 1.260 . S
O307 In299 2.266 . S
O307 C304 1.252 . S
O308 In299 2.326 . S
O308 C304 1.260 . S
C309 O300 1.240 . S
C309 O301 1.252 . S
O310 In299 2.294 . S
O310 C303 1.240 . S
O311 In299 2.326 . S
O311 C303 1.252 . S
H312 C320 0.929 . S
H313 C322 0.930 . S
H314 C324 0.930 . S
H315 C327 0.929 . S
H316 C330 0.930 . S
H317 C332 0.960 . S
H318 C332 0.960 . S
H319 C332 0.960 . S
C320 H312 0.929 . S
C320 C321 1.377 . S
C320 C322 1.384 . S
C321 C320 1.377 . S
C321 C327 1.390 . S
C322 H313 0.930 . S
C322 C320 1.384 . S
C322 C323 1.372 . S
C323 C322 1.372 . S
C323 C324 1.400 . S
C323 C328 1.490 . S
C324 H314 0.930 . S
C324 C323 1.400 . S
C324 C327 1.386 . S
H325 C341 0.930 . S
H326 C342 0.931 . S
C327 H315 0.929 . S
C327 C321 1.390 . S
C327 C324 1.386 . S
C328 C323 1.490 . S
C328 C330 1.395 . S
C328 C331 1.403 . S
H329 C335 0.930 . S
C330 H316 0.930 . S
C330 C328 1.395 . S
C330 C333 1.403 . S
C331 C328 1.403 . S
C331 C332 1.524 . S
C331 C335 1.400 . S
C332 H317 0.960 . S
C332 H318 0.960 . S
C332 H319 0.960 . S
C332 C331 1.524 . S
C333 C330 1.403 . S
C333 C334 1.392 . S
C333 C337 1.495 . S
C334 C333 1.392 . S
C334 C335 1.385 . S
C334 C336 1.478 . S
C335 H329 0.930 . S
C335 C331 1.400 . S
C335 C334 1.385 . S
C336 C334 1.478 . S
C336 C338 1.381 . S
C336 C342 1.383 . S
C337 C333 1.495 . S
C337 H343 0.959 . S
C337 H344 0.961 . S
C337 H345 0.960 . S
C338 C336 1.381 . S
C338 C339 1.394 . S
C338 H346 0.930 . S
C339 C338 1.394 . S
C339 C340 1.383 . S
C339 H347 0.929 . S
C340 C339 1.383 . S
C340 C341 1.377 . S
C341 H325 0.930 . S
C341 C340 1.377 . S
C341 C342 1.379 . S
C342 H326 0.931 . S
C342 C336 1.383 . S
C342 C341 1.379 . S
H343 C337 0.959 . S
H344 C337 0.961 . S
H345 C337 0.960 . S
H346 C338 0.930 . S
H347 C339 0.929 . S
H348 C356 0.929 . S
H349 C358 0.930 . S
H350 C360 0.930 . S
H351 C363 0.929 . S
H352 C366 0.930 . S
H353 C368 0.960 . S
H354 C368 0.960 . S
H355 C368 0.960 . S
C356 H348 0.929 . S
C356 C357 1.377 . S
C356 C358 1.384 . S
C357 C356 1.377 . S
C357 C363 1.390 . S
C358 H349 0.930 . S
C358 C356 1.384 . S
C358 C359 1.372 . S
C359 C358 1.372 . S
C359 C360 1.400 . S
C359 C364 1.490 . S
C360 H350 0.930 . S
C360 C359 1.400 . S
C360 C363 1.386 . S
H361 C377 0.930 . S
H362 C378 0.931 . S
C363 H351 0.929 . S
C363 C357 1.390 . S
C363 C360 1.386 . S
C364 C359 1.490 . S
C364 C366 1.395 . S
C364 C367 1.403 . S
H365 C371 0.930 . S
C366 H352 0.930 . S
C366 C364 1.395 . S
C366 C369 1.403 . S
C367 C364 1.403 . S
C367 C368 1.524 . S
C367 C371 1.400 . S
C368 H353 0.960 . S
C368 H354 0.960 . S
C368 H355 0.960 . S
C368 C367 1.524 . S
C369 C366 1.403 . S
C369 C370 1.392 . S
C369 C373 1.495 . S
C370 C369 1.392 . S
C370 C371 1.385 . S
C370 C372 1.478 . S
C371 H365 0.930 . S
C371 C367 1.400 . S
C371 C370 1.385 . S
C372 C370 1.478 . S
C372 C374 1.381 . S
C372 C378 1.383 . S
C373 C369 1.495 . S
C373 H379 0.959 . S
C373 H380 0.961 . S
C373 H381 0.960 . S
C374 C372 1.381 . S
C374 C375 1.394 . S
C374 H382 0.930 . S
C375 C374 1.394 . S
C375 C376 1.383 . S
C375 H383 0.929 . S
C376 C375 1.383 . S
C376 C377 1.377 . S
C377 H361 0.930 . S
C377 C376 1.377 . S
C377 C378 1.379 . S
C378 H362 0.931 . S
C378 C372 1.383 . S
C378 C377 1.379 . S
H379 C373 0.959 . S
H380 C373 0.961 . S
H381 C373 0.960 . S
H382 C374 0.930 . S
H383 C375 0.929 . S
H384 C392 0.929 . S
H385 C394 0.930 . S
H386 C396 0.930 . S
H387 C399 0.929 . S
H388 C402 0.930 . S
H389 C404 0.960 . S
H390 C404 0.960 . S
H391 C404 0.960 . S
C392 H384 0.929 . S
C392 C393 1.377 . S
C392 C394 1.384 . S
C393 C392 1.377 . S
C393 C399 1.390 . S
C394 H385 0.930 . S
C394 C392 1.384 . S
C394 C395 1.372 . S
C395 C394 1.372 . S
C395 C396 1.400 . S
C395 C400 1.490 . S
C396 H386 0.930 . S
C396 C395 1.400 . S
C396 C399 1.386 . S
H397 C413 0.930 . S
H398 C414 0.931 . S
C399 H387 0.929 . S
C399 C393 1.390 . S
C399 C396 1.386 . S
C400 C395 1.490 . S
C400 C402 1.395 . S
C400 C403 1.403 . S
H401 C407 0.930 . S
C402 H388 0.930 . S
C402 C400 1.395 . S
C402 C405 1.403 . S
C403 C400 1.403 . S
C403 C404 1.524 . S
C403 C407 1.400 . S
C404 H389 0.960 . S
C404 H390 0.960 . S
C404 H391 0.960 . S
C404 C403 1.524 . S
C405 C402 1.403 . S
C405 C406 1.392 . S
C405 C409 1.495 . S
C406 C405 1.392 . S
C406 C407 1.385 . S
C406 C408 1.478 . S
C407 H401 0.930 . S
C407 C403 1.400 . S
C407 C406 1.385 . S
C408 C406 1.478 . S
C408 C410 1.381 . S
C408 C414 1.383 . S
C409 C405 1.495 . S
C409 H415 0.959 . S
C409 H416 0.961 . S
C409 H417 0.960 . S
C410 C408 1.381 . S
C410 C411 1.394 . S
C410 H418 0.930 . S
C411 C410 1.394 . S
C411 C412 1.383 . S
C411 H419 0.929 . S
C412 C411 1.383 . S
C412 C413 1.377 . S
C413 H397 0.930 . S
C413 C412 1.377 . S
C413 C414 1.379 . S
C414 H398 0.931 . S
C414 C408 1.383 . S
C414 C413 1.379 . S
H415 C409 0.959 . S
H416 C409 0.961 . S
H417 C409 0.960 . S
H418 C410 0.930 . S
H419 C411 0.929 . S
H420 C428 0.929 . S
H421 C430 0.930 . S
H422 C432 0.930 . S
H423 C435 0.929 . S
H424 C438 0.930 . S
H425 C440 0.960 . S
H426 C440 0.960 . S
H427 C440 0.960 . S
C428 H420 0.929 . S
C428 C429 1.377 . S
C428 C430 1.384 . S
C429 C428 1.377 . S
C429 C435 1.390 . S
C430 H421 0.930 . S
C430 C428 1.384 . S
C430 C431 1.372 . S
C431 C430 1.372 . S
C431 C432 1.400 . S
C431 C436 1.490 . S
C432 H422 0.930 . S
C432 C431 1.400 . S
C432 C435 1.386 . S
H433 C449 0.930 . S
H434 C450 0.931 . S
C435 H423 0.929 . S
C435 C429 1.390 . S
C435 C432 1.386 . S
C436 C431 1.490 . S
C436 C438 1.395 . S
C436 C439 1.403 . S
H437 C443 0.930 . S
C438 H424 0.930 . S
C438 C436 1.395 . S
C438 C441 1.403 . S
C439 C436 1.403 . S
C439 C440 1.524 . S
C439 C443 1.400 . S
C440 H425 0.960 . S
C440 H426 0.960 . S
C440 H427 0.960 . S
C440 C439 1.524 . S
C441 C438 1.403 . S
C441 C442 1.392 . S
C441 C445 1.495 . S
C442 C441 1.392 . S
C442 C443 1.385 . S
C442 C444 1.478 . S
C443 H437 0.930 . S
C443 C439 1.400 . S
C443 C442 1.385 . S
C444 C442 1.478 . S
C444 C446 1.381 . S
C444 C450 1.383 . S
C445 C441 1.495 . S
C445 H451 0.959 . S
C445 H452 0.961 . S
C445 H453 0.960 . S
C446 C444 1.381 . S
C446 C447 1.394 . S
C446 H454 0.930 . S
C447 C446 1.394 . S
C447 C448 1.383 . S
C447 H455 0.929 . S
C448 C447 1.383 . S
C448 C449 1.377 . S
C449 H433 0.930 . S
C449 C448 1.377 . S
C449 C450 1.379 . S
C450 H434 0.931 . S
C450 C444 1.383 . S
C450 C449 1.379 . S
H451 C445 0.959 . S
H452 C445 0.961 . S
H453 C445 0.960 . S
H454 C446 0.930 . S
H455 C447 0.929 . S
H456 C464 0.929 . S
H457 C466 0.930 . S
H458 C468 0.930 . S
H459 C471 0.929 . S
H460 C474 0.930 . S
H461 C476 0.960 . S
H462 C476 0.960 . S
H463 C476 0.960 . S
C464 H456 0.929 . S
C464 C465 1.377 . S
C464 C466 1.384 . S
C465 C464 1.377 . S
C465 C471 1.390 . S
C466 H457 0.930 . S
C466 C464 1.384 . S
C466 C467 1.372 . S
C467 C466 1.372 . S
C467 C468 1.400 . S
C467 C472 1.490 . S
C468 H458 0.930 . S
C468 C467 1.400 . S
C468 C471 1.386 . S
H469 C485 0.930 . S
H470 C486 0.931 . S
C471 H459 0.929 . S
C471 C465 1.390 . S
C471 C468 1.386 . S
C472 C467 1.490 . S
C472 C474 1.395 . S
C472 C475 1.403 . S
H473 C479 0.930 . S
C474 H460 0.930 . S
C474 C472 1.395 . S
C474 C477 1.403 . S
C475 C472 1.403 . S
C475 C476 1.524 . S
C475 C479 1.400 . S
C476 H461 0.960 . S
C476 H462 0.960 . S
C476 H463 0.960 . S
C476 C475 1.524 . S
C477 C474 1.403 . S
C477 C478 1.392 . S
C477 C481 1.495 . S
C478 C477 1.392 . S
C478 C479 1.385 . S
C478 C480 1.478 . S
C479 H473 0.930 . S
C479 C475 1.400 . S
C479 C478 1.385 . S
C480 C478 1.478 . S
C480 C482 1.381 . S
C480 C486 1.383 . S
C481 C477 1.495 . S
C481 H487 0.959 . S
C481 H488 0.961 . S
C481 H489 0.960 . S
C482 C480 1.381 . S
C482 C483 1.394 . S
C482 H490 0.930 . S
C483 C482 1.394 . S
C483 C484 1.383 . S
C483 H491 0.929 . S
C484 C483 1.383 . S
C484 C485 1.377 . S
C485 H469 0.930 . S
C485 C484 1.377 . S
C485 C486 1.379 . S
C486 H470 0.931 . S
C486 C480 1.383 . S
C486 C485 1.379 . S
H487 C481 0.959 . S
H488 C481 0.961 . S
H489 C481 0.960 . S
H490 C482 0.930 . S
H491 C483 0.929 . S
H492 C500 0.929 . S
H493 C502 0.930 . S
H494 C504 0.930 . S
H495 C507 0.929 . S
H496 C510 0.930 . S
H497 C512 0.960 . S
H498 C512 0.960 . S
H499 C512 0.960 . S
C500 H492 0.929 . S
C500 C501 1.377 . S
C500 C502 1.384 . S
C501 C500 1.377 . S
C501 C507 1.390 . S
C502 H493 0.930 . S
C502 C500 1.384 . S
C502 C503 1.372 . S
C503 C502 1.372 . S
C503 C504 1.400 . S
C503 C508 1.490 . S
C504 H494 0.930 . S
C504 C503 1.400 . S
C504 C507 1.386 . S
H505 C521 0.930 . S
H506 C522 0.931 . S
C507 H495 0.929 . S
C507 C501 1.390 . S
C507 C504 1.386 . S
C508 C503 1.490 . S
C508 C510 1.395 . S
C508 C511 1.403 . S
H509 C515 0.930 . S
C510 H496 0.930 . S
C510 C508 1.395 . S
C510 C513 1.403 . S
C511 C508 1.403 . S
C511 C512 1.524 . S
C511 C515 1.400 . S
C512 H497 0.960 . S
C512 H498 0.960 . S
C512 H499 0.960 . S
C512 C511 1.524 . S
C513 C510 1.403 . S
C513 C514 1.392 . S
C513 C517 1.495 . S
C514 C513 1.392 . S
C514 C515 1.385 . S
C514 C516 1.478 . S
C515 H509 0.930 . S
C515 C511 1.400 . S
C515 C514 1.385 . S
C516 C514 1.478 . S
C516 C518 1.381 . S
C516 C522 1.383 . S
C517 C513 1.495 . S
C517 H523 0.959 . S
C517 H524 0.961 . S
C517 H525 0.960 . S
C518 C516 1.381 . S
C518 C519 1.394 . S
C518 H526 0.930 . S
C519 C518 1.394 . S
C519 C520 1.383 . S
C519 H527 0.929 . S
C520 C519 1.383 . S
C520 C521 1.377 . S
C521 H505 0.930 . S
C521 C520 1.377 . S
C521 C522 1.379 . S
C522 H506 0.931 . S
C522 C516 1.383 . S
C522 C521 1.379 . S
H523 C517 0.959 . S
H524 C517 0.961 . S
H525 C517 0.960 . S
H526 C518 0.930 . S
H527 C519 0.929 . S
H528 C536 0.929 . S
H529 C538 0.930 . S
H530 C540 0.930 . S
H531 C543 0.929 . S
H532 C546 0.930 . S
H533 C548 0.960 . S
H534 C548 0.960 . S
H535 C548 0.960 . S
C536 H528 0.929 . S
C536 C537 1.377 . S
C536 C538 1.384 . S
C537 C536 1.377 . S
C537 C543 1.390 . S
C538 H529 0.930 . S
C538 C536 1.384 . S
C538 C539 1.372 . S
C539 C538 1.372 . S
C539 C540 1.400 . S
C539 C544 1.490 . S
C540 H530 0.930 . S
C540 C539 1.400 . S
C540 C543 1.386 . S
H541 C557 0.930 . S
H542 C558 0.931 . S
C543 H531 0.929 . S
C543 C537 1.390 . S
C543 C540 1.386 . S
C544 C539 1.490 . S
C544 C546 1.395 . S
C544 C547 1.403 . S
H545 C551 0.930 . S
C546 H532 0.930 . S
C546 C544 1.395 . S
C546 C549 1.403 . S
C547 C544 1.403 . S
C547 C548 1.524 . S
C547 C551 1.400 . S
C548 H533 0.960 . S
C548 H534 0.960 . S
C548 H535 0.960 . S
C548 C547 1.524 . S
C549 C546 1.403 . S
C549 C550 1.392 . S
C549 C553 1.495 . S
C550 C549 1.392 . S
C550 C551 1.385 . S
C550 C552 1.478 . S
C551 H545 0.930 . S
C551 C547 1.400 . S
C551 C550 1.385 . S
C552 C550 1.478 . S
C552 C554 1.381 . S
C552 C558 1.383 . S
C553 C549 1.495 . S
C553 H559 0.959 . S
C553 H560 0.961 . S
C553 H561 0.960 . S
C554 C552 1.381 . S
C554 C555 1.394 . S
C554 H562 0.930 . S
C555 C554 1.394 . S
C555 C556 1.383 . S
C555 H563 0.929 . S
C556 C555 1.383 . S
C556 C557 1.377 . S
C557 H541 0.930 . S
C557 C556 1.377 . S
C557 C558 1.379 . S
C558 H542 0.931 . S
C558 C552 1.383 . S
C558 C557 1.379 . S
H559 C553 0.959 . S
H560 C553 0.961 . S
H561 C553 0.960 . S
H562 C554 0.930 . S
H563 C555 0.929 . S
H564 C572 0.929 . S
H565 C574 0.930 . S
H566 C576 0.930 . S
H567 C579 0.929 . S
H568 C582 0.930 . S
H569 C584 0.960 . S
H570 C584 0.960 . S
H571 C584 0.960 . S
C572 H564 0.929 . S
C572 C573 1.377 . S
C572 C574 1.384 . S
C573 C572 1.377 . S
C573 C579 1.390 . S
C574 H565 0.930 . S
C574 C572 1.384 . S
C574 C575 1.372 . S
C575 C574 1.372 . S
C575 C576 1.400 . S
C575 C580 1.490 . S
C576 H566 0.930 . S
C576 C575 1.400 . S
C576 C579 1.386 . S
H577 C593 0.930 . S
H578 C594 0.931 . S
C579 H567 0.929 . S
C579 C573 1.390 . S
C579 C576 1.386 . S
C580 C575 1.490 . S
C580 C582 1.395 . S
C580 C583 1.403 . S
H581 C587 0.930 . S
C582 H568 0.930 . S
C582 C580 1.395 . S
C582 C585 1.403 . S
C583 C580 1.403 . S
C583 C584 1.524 . S
C583 C587 1.400 . S
C584 H569 0.960 . S
C584 H570 0.960 . S
C584 H571 0.960 . S
C584 C583 1.524 . S
C585 C582 1.403 . S
C585 C586 1.392 . S
C585 C589 1.495 . S
C586 C585 1.392 . S
C586 C587 1.385 . S
C586 C588 1.478 . S
C587 H581 0.930 . S
C587 C583 1.400 . S
C587 C586 1.385 . S
C588 C586 1.478 . S
C588 C590 1.381 . S
C588 C594 1.383 . S
C589 C585 1.495 . S
C589 H595 0.959 . S
C589 H596 0.961 . S
C589 H597 0.960 . S
C590 C588 1.381 . S
C590 C591 1.394 . S
C590 H598 0.930 . S
C591 C590 1.394 . S
C591 C592 1.383 . S
C591 H599 0.929 . S
C592 C591 1.383 . S
C592 C593 1.377 . S
C593 H577 0.930 . S
C593 C592 1.377 . S
C593 C594 1.379 . S
C594 H578 0.931 . S
C594 C588 1.383 . S
C594 C593 1.379 . S
H595 C589 0.959 . S
H596 C589 0.961 . S
H597 C589 0.960 . S
H598 C590 0.930 . S
H599 C591 0.929 . S
H600 C608 0.929 . S
H601 C610 0.930 . S
H602 C612 0.930 . S
H603 C615 0.929 . S
H604 C618 0.930 . S
H605 C620 0.960 . S
H606 C620 0.960 . S
H607 C620 0.960 . S
C608 H600 0.929 . S
C608 C609 1.377 . S
C608 C610 1.384 . S
C609 C608 1.377 . S
C609 C615 1.390 . S
C610 H601 0.930 . S
C610 C608 1.384 . S
C610 C611 1.372 . S
C611 C610 1.372 . S
C611 C612 1.400 . S
C611 C616 1.490 . S
C612 H602 0.930 . S
C612 C611 1.400 . S
C612 C615 1.386 . S
H613 C629 0.930 . S
H614 C630 0.931 . S
C615 H603 0.929 . S
C615 C609 1.390 . S
C615 C612 1.386 . S
C616 C611 1.490 . S
C616 C618 1.395 . S
C616 C619 1.403 . S
H617 C623 0.930 . S
C618 H604 0.930 . S
C618 C616 1.395 . S
C618 C621 1.403 . S
C619 C616 1.403 . S
C619 C620 1.524 . S
C619 C623 1.400 . S
C620 H605 0.960 . S
C620 H606 0.960 . S
C620 H607 0.960 . S
C620 C619 1.524 . S
C621 C618 1.403 . S
C621 C622 1.392 . S
C621 C625 1.495 . S
C622 C621 1.392 . S
C622 C623 1.385 . S
C622 C624 1.478 . S
C623 H617 0.930 . S
C623 C619 1.400 . S
C623 C622 1.385 . S
C624 C622 1.478 . S
C624 C626 1.381 . S
C624 C630 1.383 . S
C625 C621 1.495 . S
C625 H631 0.959 . S
C625 H632 0.961 . S
C625 H633 0.960 . S
C626 C624 1.381 . S
C626 C627 1.394 . S
C626 H634 0.930 . S
C627 C626 1.394 . S
C627 C628 1.383 . S
C627 H635 0.929 . S
C628 C627 1.383 . S
C628 C629 1.377 . S
C629 H613 0.930 . S
C629 C628 1.377 . S
C629 C630 1.379 . S
C630 H614 0.931 . S
C630 C624 1.383 . S
C630 C629 1.379 . S
H631 C625 0.959 . S
H632 C625 0.961 . S
H633 C625 0.960 . S
H634 C626 0.930 . S
H635 C627 0.929 . S
H636 C644 0.929 . S
H637 C646 0.930 . S
H638 C648 0.930 . S
H639 C651 0.929 . S
H640 C654 0.930 . S
H641 C656 0.960 . S
H642 C656 0.960 . S
H643 C656 0.960 . S
C644 H636 0.929 . S
C644 C645 1.377 . S
C644 C646 1.384 . S
C645 C644 1.377 . S
C645 C651 1.390 . S
C646 H637 0.930 . S
C646 C644 1.384 . S
C646 C647 1.372 . S
C647 C646 1.372 . S
C647 C648 1.400 . S
C647 C652 1.490 . S
C648 H638 0.930 . S
C648 C647 1.400 . S
C648 C651 1.386 . S
H649 C665 0.930 . S
H650 C666 0.931 . S
C651 H639 0.929 . S
C651 C645 1.390 . S
C651 C648 1.386 . S
C652 C647 1.490 . S
C652 C654 1.395 . S
C652 C655 1.403 . S
H653 C659 0.930 . S
C654 H640 0.930 . S
C654 C652 1.395 . S
C654 C657 1.403 . S
C655 C652 1.403 . S
C655 C656 1.524 . S
C655 C659 1.400 . S
C656 H641 0.960 . S
C656 H642 0.960 . S
C656 H643 0.960 . S
C656 C655 1.524 . S
C657 C654 1.403 . S
C657 C658 1.392 . S
C657 C661 1.495 . S
C658 C657 1.392 . S
C658 C659 1.385 . S
C658 C660 1.478 . S
C659 H653 0.930 . S
C659 C655 1.400 . S
C659 C658 1.385 . S
C660 C658 1.478 . S
C660 C662 1.381 . S
C660 C666 1.383 . S
C661 C657 1.495 . S
C661 H667 0.959 . S
C661 H668 0.961 . S
C661 H669 0.960 . S
C662 C660 1.381 . S
C662 C663 1.394 . S
C662 H670 0.930 . S
C663 C662 1.394 . S
C663 C664 1.383 . S
C663 H671 0.929 . S
C664 C663 1.383 . S
C664 C665 1.377 . S
C665 H649 0.930 . S
C665 C664 1.377 . S
C665 C666 1.379 . S
C666 H650 0.931 . S
C666 C660 1.383 . S
C666 C665 1.379 . S
H667 C661 0.959 . S
H668 C661 0.961 . S
H669 C661 0.960 . S
H670 C662 0.930 . S
H671 C663 0.929 . S
H672 C680 0.929 . S
H673 C682 0.930 . S
H674 C684 0.930 . S
H675 C687 0.929 . S
H676 C690 0.930 . S
H677 C692 0.960 . S
H678 C692 0.960 . S
H679 C692 0.960 . S
C680 H672 0.929 . S
C680 C681 1.377 . S
C680 C682 1.384 . S
C681 C680 1.377 . S
C681 C687 1.390 . S
C682 H673 0.930 . S
C682 C680 1.384 . S
C682 C683 1.372 . S
C683 C682 1.372 . S
C683 C684 1.400 . S
C683 C688 1.490 . S
C684 H674 0.930 . S
C684 C683 1.400 . S
C684 C687 1.386 . S
H685 C701 0.930 . S
H686 C702 0.931 . S
C687 H675 0.929 . S
C687 C681 1.390 . S
C687 C684 1.386 . S
C688 C683 1.490 . S
C688 C690 1.395 . S
C688 C691 1.403 . S
H689 C695 0.930 . S
C690 H676 0.930 . S
C690 C688 1.395 . S
C690 C693 1.403 . S
C691 C688 1.403 . S
C691 C692 1.524 . S
C691 C695 1.400 . S
C692 H677 0.960 . S
C692 H678 0.960 . S
C692 H679 0.960 . S
C692 C691 1.524 . S
C693 C690 1.403 . S
C693 C694 1.392 . S
C693 C697 1.495 . S
C694 C693 1.392 . S
C694 C695 1.385 . S
C694 C696 1.478 . S
C695 H689 0.930 . S
C695 C691 1.400 . S
C695 C694 1.385 . S
C696 C694 1.478 . S
C696 C698 1.381 . S
C696 C702 1.383 . S
C697 C693 1.495 . S
C697 H703 0.959 . S
C697 H704 0.961 . S
C697 H705 0.960 . S
C698 C696 1.381 . S
C698 C699 1.394 . S
C698 H706 0.930 . S
C699 C698 1.394 . S
C699 C700 1.383 . S
C699 H707 0.929 . S
C700 C699 1.383 . S
C700 C701 1.377 . S
C701 H685 0.930 . S
C701 C700 1.377 . S
C701 C702 1.379 . S
C702 H686 0.931 . S
C702 C696 1.383 . S
C702 C701 1.379 . S
H703 C697 0.959 . S
H704 C697 0.961 . S
H705 C697 0.960 . S
H706 C698 0.930 . S
H707 C699 0.929 . S
H708 C716 0.929 . S
H709 C718 0.930 . S
H710 C720 0.930 . S
H711 C723 0.929 . S
H712 C726 0.930 . S
H713 C728 0.960 . S
H714 C728 0.960 . S
H715 C728 0.960 . S
C716 H708 0.929 . S
C716 C717 1.377 . S
C716 C718 1.384 . S
C717 C716 1.377 . S
C717 C723 1.390 . S
C718 H709 0.930 . S
C718 C716 1.384 . S
C718 C719 1.372 . S
C719 C718 1.372 . S
C719 C720 1.400 . S
C719 C724 1.490 . S
C720 H710 0.930 . S
C720 C719 1.400 . S
C720 C723 1.386 . S
H721 C737 0.930 . S
H722 C738 0.931 . S
C723 H711 0.929 . S
C723 C717 1.390 . S
C723 C720 1.386 . S
C724 C719 1.490 . S
C724 C726 1.395 . S
C724 C727 1.403 . S
H725 C731 0.930 . S
C726 H712 0.930 . S
C726 C724 1.395 . S
C726 C729 1.403 . S
C727 C724 1.403 . S
C727 C728 1.524 . S
C727 C731 1.400 . S
C728 H713 0.960 . S
C728 H714 0.960 . S
C728 H715 0.960 . S
C728 C727 1.524 . S
C729 C726 1.403 . S
C729 C730 1.392 . S
C729 C733 1.495 . S
C730 C729 1.392 . S
C730 C731 1.385 . S
C730 C732 1.478 . S
C731 H725 0.930 . S
C731 C727 1.400 . S
C731 C730 1.385 . S
C732 C730 1.478 . S
C732 C734 1.381 . S
C732 C738 1.383 . S
C733 C729 1.495 . S
C733 H739 0.959 . S
C733 H740 0.961 . S
C733 H741 0.960 . S
C734 C732 1.381 . S
C734 C735 1.394 . S
C734 H742 0.930 . S
C735 C734 1.394 . S
C735 C736 1.383 . S
C735 H743 0.929 . S
C736 C735 1.383 . S
C736 C737 1.377 . S
C737 H721 0.930 . S
C737 C736 1.377 . S
C737 C738 1.379 . S
C738 H722 0.931 . S
C738 C732 1.383 . S
C738 C737 1.379 . S
H739 C733 0.959 . S
H740 C733 0.961 . S
H741 C733 0.960 . S
H742 C734 0.930 . S
H743 C735 0.929 . S
H744 C752 0.929 . S
H745 C754 0.930 . S
H746 C756 0.930 . S
H747 C759 0.929 . S
H748 C762 0.930 . S
H749 C764 0.960 . S
H750 C764 0.960 . S
H751 C764 0.960 . S
C752 H744 0.929 . S
C752 C753 1.377 . S
C752 C754 1.384 . S
C753 C752 1.377 . S
C753 C759 1.390 . S
C754 H745 0.930 . S
C754 C752 1.384 . S
C754 C755 1.372 . S
C755 C754 1.372 . S
C755 C756 1.400 . S
C755 C760 1.490 . S
C756 H746 0.930 . S
C756 C755 1.400 . S
C756 C759 1.386 . S
H757 C773 0.930 . S
H758 C774 0.931 . S
C759 H747 0.929 . S
C759 C753 1.390 . S
C759 C756 1.386 . S
C760 C755 1.490 . S
C760 C762 1.395 . S
C760 C763 1.403 . S
H761 C767 0.930 . S
C762 H748 0.930 . S
C762 C760 1.395 . S
C762 C765 1.403 . S
C763 C760 1.403 . S
C763 C764 1.524 . S
C763 C767 1.400 . S
C764 H749 0.960 . S
C764 H750 0.960 . S
C764 H751 0.960 . S
C764 C763 1.524 . S
C765 C762 1.403 . S
C765 C766 1.392 . S
C765 C769 1.495 . S
C766 C765 1.392 . S
C766 C767 1.385 . S
C766 C768 1.478 . S
C767 H761 0.930 . S
C767 C763 1.400 . S
C767 C766 1.385 . S
C768 C766 1.478 . S
C768 C770 1.381 . S
C768 C774 1.383 . S
C769 C765 1.495 . S
C769 H775 0.959 . S
C769 H776 0.961 . S
C769 H777 0.960 . S
C770 C768 1.381 . S
C770 C771 1.394 . S
C770 H778 0.930 . S
C771 C770 1.394 . S
C771 C772 1.383 . S
C771 H779 0.929 . S
C772 C771 1.383 . S
C772 C773 1.377 . S
C773 H757 0.930 . S
C773 C772 1.377 . S
C773 C774 1.379 . S
C774 H758 0.931 . S
C774 C768 1.383 . S
C774 C773 1.379 . S
H775 C769 0.959 . S
H776 C769 0.961 . S
H777 C769 0.960 . S
H778 C770 0.930 . S
H779 C771 0.929 . S
H780 C788 0.929 . S
H781 C790 0.930 . S
H782 C792 0.930 . S
H783 C795 0.929 . S
H784 C798 0.930 . S
H785 C800 0.960 . S
H786 C800 0.960 . S
H787 C800 0.960 . S
C788 H780 0.929 . S
C788 C789 1.377 . S
C788 C790 1.384 . S
C789 C788 1.377 . S
C789 C795 1.390 . S
C790 H781 0.930 . S
C790 C788 1.384 . S
C790 C791 1.372 . S
C791 C790 1.372 . S
C791 C792 1.400 . S
C791 C796 1.490 . S
C792 H782 0.930 . S
C792 C791 1.400 . S
C792 C795 1.386 . S
H793 C809 0.930 . S
H794 C810 0.931 . S
C795 H783 0.929 . S
C795 C789 1.390 . S
C795 C792 1.386 . S
C796 C791 1.490 . S
C796 C798 1.395 . S
C796 C799 1.403 . S
H797 C803 0.930 . S
C798 H784 0.930 . S
C798 C796 1.395 . S
C798 C801 1.403 . S
C799 C796 1.403 . S
C799 C800 1.524 . S
C799 C803 1.400 . S
C800 H785 0.960 . S
C800 H786 0.960 . S
C800 H787 0.960 . S
C800 C799 1.524 . S
C801 C798 1.403 . S
C801 C802 1.392 . S
C801 C805 1.495 . S
C802 C801 1.392 . S
C802 C803 1.385 . S
C802 C804 1.478 . S
C803 H797 0.930 . S
C803 C799 1.400 . S
C803 C802 1.385 . S
C804 C802 1.478 . S
C804 C806 1.381 . S
C804 C810 1.383 . S
C805 C801 1.495 . S
C805 H811 0.959 . S
C805 H812 0.961 . S
C805 H813 0.960 . S
C806 C804 1.381 . S
C806 C807 1.394 . S
C806 H814 0.930 . S
C807 C806 1.394 . S
C807 C808 1.383 . S
C807 H815 0.929 . S
C808 C807 1.383 . S
C808 C809 1.377 . S
C809 H793 0.930 . S
C809 C808 1.377 . S
C809 C810 1.379 . S
C810 H794 0.931 . S
C810 C804 1.383 . S
C810 C809 1.379 . S
H811 C805 0.959 . S
H812 C805 0.961 . S
H813 C805 0.960 . S
H814 C806 0.930 . S
H815 C807 0.929 . S
H816 C824 0.929 . S
H817 C826 0.930 . S
H818 C828 0.930 . S
H819 C831 0.929 . S
H820 C834 0.930 . S
H821 C836 0.960 . S
H822 C836 0.960 . S
H823 C836 0.960 . S
C824 H816 0.929 . S
C824 C825 1.377 . S
C824 C826 1.384 . S
C825 C824 1.377 . S
C825 C831 1.390 . S
C826 H817 0.930 . S
C826 C824 1.384 . S
C826 C827 1.372 . S
C827 C826 1.372 . S
C827 C828 1.400 . S
C827 C832 1.490 . S
C828 H818 0.930 . S
C828 C827 1.400 . S
C828 C831 1.386 . S
H829 C845 0.930 . S
H830 C846 0.931 . S
C831 H819 0.929 . S
C831 C825 1.390 . S
C831 C828 1.386 . S
C832 C827 1.490 . S
C832 C834 1.395 . S
C832 C835 1.403 . S
H833 C839 0.930 . S
C834 H820 0.930 . S
C834 C832 1.395 . S
C834 C837 1.403 . S
C835 C832 1.403 . S
C835 C836 1.524 . S
C835 C839 1.400 . S
C836 H821 0.960 . S
C836 H822 0.960 . S
C836 H823 0.960 . S
C836 C835 1.524 . S
C837 C834 1.403 . S
C837 C838 1.392 . S
C837 C841 1.495 . S
C838 C837 1.392 . S
C838 C839 1.385 . S
C838 C840 1.478 . S
C839 H833 0.930 . S
C839 C835 1.400 . S
C839 C838 1.385 . S
C840 C838 1.478 . S
C840 C842 1.381 . S
C840 C846 1.383 . S
C841 C837 1.495 . S
C841 H847 0.959 . S
C841 H848 0.961 . S
C841 H849 0.960 . S
C842 C840 1.381 . S
C842 C843 1.394 . S
C842 H850 0.930 . S
C843 C842 1.394 . S
C843 C844 1.383 . S
C843 H851 0.929 . S
C844 C843 1.383 . S
C844 C845 1.377 . S
C845 H829 0.930 . S
C845 C844 1.377 . S
C845 C846 1.379 . S
C846 H830 0.931 . S
C846 C840 1.383 . S
C846 C845 1.379 . S
H847 C841 0.959 . S
H848 C841 0.961 . S
H849 C841 0.960 . S
H850 C842 0.930 . S
H851 C843 0.929 . S
H852 C860 0.929 . S
H853 C862 0.930 . S
H854 C864 0.930 . S
H855 C867 0.929 . S
H856 C870 0.930 . S
H857 C872 0.960 . S
H858 C872 0.960 . S
H859 C872 0.960 . S
C860 H852 0.929 . S
C860 C861 1.377 . S
C860 C862 1.384 . S
C861 C860 1.377 . S
C861 C867 1.390 . S
C862 H853 0.930 . S
C862 C860 1.384 . S
C862 C863 1.372 . S
C863 C862 1.372 . S
C863 C864 1.400 . S
C863 C868 1.490 . S
C864 H854 0.930 . S
C864 C863 1.400 . S
C864 C867 1.386 . S
H865 C881 0.930 . S
H866 C882 0.931 . S
C867 H855 0.929 . S
C867 C861 1.390 . S
C867 C864 1.386 . S
C868 C863 1.490 . S
C868 C870 1.395 . S
C868 C871 1.403 . S
H869 C875 0.930 . S
C870 H856 0.930 . S
C870 C868 1.395 . S
C870 C873 1.403 . S
C871 C868 1.403 . S
C871 C872 1.524 . S
C871 C875 1.400 . S
C872 H857 0.960 . S
C872 H858 0.960 . S
C872 H859 0.960 . S
C872 C871 1.524 . S
C873 C870 1.403 . S
C873 C874 1.392 . S
C873 C877 1.495 . S
C874 C873 1.392 . S
C874 C875 1.385 . S
C874 C876 1.478 . S
C875 H869 0.930 . S
C875 C871 1.400 . S
C875 C874 1.385 . S
C876 C874 1.478 . S
C876 C878 1.381 . S
C876 C882 1.383 . S
C877 C873 1.495 . S
C877 H883 0.959 . S
C877 H884 0.961 . S
C877 H885 0.960 . S
C878 C876 1.381 . S
C878 C879 1.394 . S
C878 H886 0.930 . S
C879 C878 1.394 . S
C879 C880 1.383 . S
C879 H887 0.929 . S
C880 C879 1.383 . S
C880 C881 1.377 . S
C881 H865 0.930 . S
C881 C880 1.377 . S
C881 C882 1.379 . S
C882 H866 0.931 . S
C882 C876 1.383 . S
C882 C881 1.379 . S
H883 C877 0.959 . S
H884 C877 0.961 . S
H885 C877 0.960 . S
H886 C878 0.930 . S
H887 C879 0.929 . S
H888 C896 0.929 . S
H889 C898 0.930 . S
H890 C900 0.930 . S
H891 C903 0.929 . S
H892 C906 0.930 . S
H893 C908 0.960 . S
H894 C908 0.960 . S
H895 C908 0.960 . S
C896 H888 0.929 . S
C896 C897 1.377 . S
C896 C898 1.384 . S
C897 C896 1.377 . S
C897 C903 1.390 . S
C898 H889 0.930 . S
C898 C896 1.384 . S
C898 C899 1.372 . S
C899 C898 1.372 . S
C899 C900 1.400 . S
C899 C904 1.490 . S
C900 H890 0.930 . S
C900 C899 1.400 . S
C900 C903 1.386 . S
H901 C917 0.930 . S
H902 C918 0.931 . S
C903 H891 0.929 . S
C903 C897 1.390 . S
C903 C900 1.386 . S
C904 C899 1.490 . S
C904 C906 1.395 . S
C904 C907 1.403 . S
H905 C911 0.930 . S
C906 H892 0.930 . S
C906 C904 1.395 . S
C906 C909 1.403 . S
C907 C904 1.403 . S
C907 C908 1.524 . S
C907 C911 1.400 . S
C908 H893 0.960 . S
C908 H894 0.960 . S
C908 H895 0.960 . S
C908 C907 1.524 . S
C909 C906 1.403 . S
C909 C910 1.392 . S
C909 C913 1.495 . S
C910 C909 1.392 . S
C910 C911 1.385 . S
C910 C912 1.478 . S
C911 H905 0.930 . S
C911 C907 1.400 . S
C911 C910 1.385 . S
C912 C910 1.478 . S
C912 C914 1.381 . S
C912 C918 1.383 . S
C913 C909 1.495 . S
C913 H919 0.959 . S
C913 H920 0.961 . S
C913 H921 0.960 . S
C914 C912 1.381 . S
C914 C915 1.394 . S
C914 H922 0.930 . S
C915 C914 1.394 . S
C915 C916 1.383 . S
C915 H923 0.929 . S
C916 C915 1.383 . S
C916 C917 1.377 . S
C917 H901 0.930 . S
C917 C916 1.377 . S
C917 C918 1.379 . S
C918 H902 0.931 . S
C918 C912 1.383 . S
C918 C917 1.379 . S
H919 C913 0.959 . S
H920 C913 0.961 . S
H921 C913 0.960 . S
H922 C914 0.930 . S
H923 C915 0.929 . S
H924 C932 0.929 . S
H925 C934 0.930 . S
H926 C936 0.930 . S
H927 C939 0.929 . S
H928 C942 0.930 . S
H929 C944 0.960 . S
H930 C944 0.960 . S
H931 C944 0.960 . S
C932 H924 0.929 . S
C932 C933 1.377 . S
C932 C934 1.384 . S
C933 C932 1.377 . S
C933 C939 1.390 . S
C934 H925 0.930 . S
C934 C932 1.384 . S
C934 C935 1.372 . S
C935 C934 1.372 . S
C935 C936 1.400 . S
C935 C940 1.490 . S
C936 H926 0.930 . S
C936 C935 1.400 . S
C936 C939 1.386 . S
H937 C953 0.930 . S
H938 C954 0.931 . S
C939 H927 0.929 . S
C939 C933 1.390 . S
C939 C936 1.386 . S
C940 C935 1.490 . S
C940 C942 1.395 . S
C940 C943 1.403 . S
H941 C947 0.930 . S
C942 H928 0.930 . S
C942 C940 1.395 . S
C942 C945 1.403 . S
C943 C940 1.403 . S
C943 C944 1.524 . S
C943 C947 1.400 . S
C944 H929 0.960 . S
C944 H930 0.960 . S
C944 H931 0.960 . S
C944 C943 1.524 . S
C945 C942 1.403 . S
C945 C946 1.392 . S
C945 C949 1.495 . S
C946 C945 1.392 . S
C946 C947 1.385 . S
C946 C948 1.478 . S
C947 H941 0.930 . S
C947 C943 1.400 . S
C947 C946 1.385 . S
C948 C946 1.478 . S
C948 C950 1.381 . S
C948 C954 1.383 . S
C949 C945 1.495 . S
C949 H955 0.959 . S
C949 H956 0.961 . S
C949 H957 0.960 . S
C950 C948 1.381 . S
C950 C951 1.394 . S
C950 H958 0.930 . S
C951 C950 1.394 . S
C951 C952 1.383 . S
C951 H959 0.929 . S
C952 C951 1.383 . S
C952 C953 1.377 . S
C953 H937 0.930 . S
C953 C952 1.377 . S
C953 C954 1.379 . S
C954 H938 0.931 . S
C954 C948 1.383 . S
C954 C953 1.379 . S
H955 C949 0.959 . S
H956 C949 0.961 . S
H957 C949 0.960 . S
H958 C950 0.930 . S
H959 C951 0.929 . S
H960 C968 0.929 1_554 S
H961 C970 0.930 . S
H962 C972 0.930 . S
H963 C975 0.929 . S
H964 C978 0.930 . S
H965 C980 0.960 . S
H966 C980 0.960 . S
H967 C980 0.960 . S
C968 H960 0.929 1_556 S
C968 C969 1.377 . S
C968 C970 1.384 . S
C969 C968 1.377 . S
C969 C975 1.390 . S
C970 H961 0.930 . S
C970 C968 1.384 . S
C970 C971 1.372 . S
C971 C970 1.372 . S
C971 C972 1.400 . S
C971 C976 1.490 . S
C972 H962 0.930 . S
C972 C971 1.400 . S
C972 C975 1.386 . S
H973 C989 0.930 . S
H974 C990 0.931 . S
C975 H963 0.929 . S
C975 C969 1.390 . S
C975 C972 1.386 . S
C976 C971 1.490 . S
C976 C978 1.395 . S
C976 C979 1.403 . S
H977 C983 0.930 . S
C978 H964 0.930 . S
C978 C976 1.395 . S
C978 C981 1.403 . S
C979 C976 1.403 . S
C979 C980 1.524 . S
C979 C983 1.400 . S
C980 H965 0.960 . S
C980 H966 0.960 . S
C980 H967 0.960 . S
C980 C979 1.524 . S
C981 C978 1.403 . S
C981 C982 1.392 . S
C981 C985 1.495 . S
C982 C981 1.392 . S
C982 C983 1.385 . S
C982 C984 1.478 . S
C983 H977 0.930 . S
C983 C979 1.400 . S
C983 C982 1.385 . S
C984 C982 1.478 . S
C984 C986 1.381 . S
C984 C990 1.383 . S
C985 C981 1.495 . S
C985 H991 0.959 . S
C985 H992 0.961 . S
C985 H993 0.960 . S
C986 C984 1.381 . S
C986 C987 1.394 . S
C986 H994 0.930 . S
C987 C986 1.394 . S
C987 C988 1.383 . S
C987 H995 0.929 . S
C988 C987 1.383 . S
C988 C989 1.377 . S
C989 H973 0.930 . S
C989 C988 1.377 . S
C989 C990 1.379 . S
C990 H974 0.931 . S
C990 C984 1.383 . S
C990 C989 1.379 . S
H991 C985 0.959 . S
H992 C985 0.961 . S
H993 C985 0.960 . S
H994 C986 0.930 . S
H995 C987 0.929 . S
H996 C1004 0.929 . S
H997 C1006 0.930 . S
H998 C1008 0.930 . S
H999 C1011 0.929 . S
H1000 C1014 0.930 . S
H1001 C1016 0.960 . S
H1002 C1016 0.960 . S
H1003 C1016 0.960 . S
C1004 H996 0.929 . S
C1004 C1005 1.377 . S
C1004 C1006 1.384 . S
C1005 C1004 1.377 . S
C1005 C1011 1.390 . S
C1006 H997 0.930 . S
C1006 C1004 1.384 . S
C1006 C1007 1.372 . S
C1007 C1006 1.372 . S
C1007 C1008 1.400 . S
C1007 C1012 1.490 . S
C1008 H998 0.930 . S
C1008 C1007 1.400 . S
C1008 C1011 1.386 . S
H1009 C1025 0.930 . S
H1010 C1026 0.931 . S
C1011 H999 0.929 . S
C1011 C1005 1.390 . S
C1011 C1008 1.386 . S
C1012 C1007 1.490 . S
C1012 C1014 1.395 . S
C1012 C1015 1.403 . S
H1013 C1019 0.930 . S
C1014 H1000 0.930 . S
C1014 C1012 1.395 . S
C1014 C1017 1.403 . S
C1015 C1012 1.403 . S
C1015 C1016 1.524 . S
C1015 C1019 1.400 . S
C1016 H1001 0.960 . S
C1016 H1002 0.960 . S
C1016 H1003 0.960 . S
C1016 C1015 1.524 . S
C1017 C1014 1.403 . S
C1017 C1018 1.392 . S
C1017 C1021 1.495 . S
C1018 C1017 1.392 . S
C1018 C1019 1.385 . S
C1018 C1020 1.478 . S
C1019 H1013 0.930 . S
C1019 C1015 1.400 . S
C1019 C1018 1.385 . S
C1020 C1018 1.478 . S
C1020 C1022 1.381 . S
C1020 C1026 1.383 . S
C1021 C1017 1.495 . S
C1021 H1027 0.954 1_655 S
C1021 H1028 0.961 . S
C1021 H1029 0.960 1_655 S
C1022 C1020 1.381 . S
C1022 C1023 1.394 . S
C1022 H1030 0.930 . S
C1023 C1022 1.394 . S
C1023 C1024 1.383 . S
C1023 H1031 0.929 . S
C1024 C1023 1.383 . S
C1024 C1025 1.377 . S
C1025 H1009 0.930 . S
C1025 C1024 1.377 . S
C1025 C1026 1.379 . S
C1026 H1010 0.931 . S
C1026 C1020 1.383 . S
C1026 C1025 1.379 . S
H1027 C1021 0.954 1_455 S
H1028 C1021 0.961 . S
H1029 C1021 0.960 1_455 S
H1030 C1022 0.930 . S
H1031 C1023 0.929 . S
H1032 C1040 0.929 . S
H1033 C1042 0.930 . S
H1034 C1044 0.930 . S
H1035 C1047 0.929 . S
H1036 C1050 0.930 . S
H1037 C1052 0.960 . S
H1038 C1052 0.960 . S
H1039 C1052 0.960 . S
C1040 H1032 0.929 . S
C1040 C1041 1.377 . S
C1040 C1042 1.384 . S
C1041 C1040 1.377 . S
C1041 C1047 1.390 . S
C1042 H1033 0.930 . S
C1042 C1040 1.384 . S
C1042 C1043 1.372 . S
C1043 C1042 1.372 . S
C1043 C1044 1.400 . S
C1043 C1048 1.490 . S
C1044 H1034 0.930 . S
C1044 C1043 1.400 . S
C1044 C1047 1.386 . S
H1045 C1061 0.930 . S
H1046 C1062 0.931 . S
C1047 H1035 0.929 . S
C1047 C1041 1.390 . S
C1047 C1044 1.386 . S
C1048 C1043 1.490 . S
C1048 C1050 1.395 . S
C1048 C1051 1.403 . S
H1049 C1055 0.930 . S
C1050 H1036 0.930 . S
C1050 C1048 1.395 . S
C1050 C1053 1.403 . S
C1051 C1048 1.403 . S
C1051 C1052 1.524 . S
C1051 C1055 1.400 . S
C1052 H1037 0.960 . S
C1052 H1038 0.960 . S
C1052 H1039 0.960 . S
C1052 C1051 1.524 . S
C1053 C1050 1.403 . S
C1053 C1054 1.392 . S
C1053 C1057 1.495 . S
C1054 C1053 1.392 . S
C1054 C1055 1.385 . S
C1054 C1056 1.478 . S
C1055 H1049 0.930 . S
C1055 C1051 1.400 . S
C1055 C1054 1.385 . S
C1056 C1054 1.478 . S
C1056 C1058 1.381 . S
C1056 C1062 1.383 . S
C1057 C1053 1.495 . S
C1057 H1063 0.959 . S
C1057 H1064 0.961 . S
C1057 H1065 0.960 . S
C1058 C1056 1.381 . S
C1058 C1059 1.394 . S
C1058 H1066 0.930 . S
C1059 C1058 1.394 . S
C1059 C1060 1.383 . S
C1059 H1067 0.929 . S
C1060 C1059 1.383 . S
C1060 C1061 1.377 . S
C1061 H1045 0.930 . S
C1061 C1060 1.377 . S
C1061 C1062 1.379 . S
C1062 H1046 0.931 . S
C1062 C1056 1.383 . S
C1062 C1061 1.379 . S
H1063 C1057 0.959 . S
H1064 C1057 0.961 . S
H1065 C1057 0.960 . S
H1066 C1058 0.930 . S
H1067 C1059 0.929 . S
H1068 C1076 0.929 . S
H1069 C1078 0.930 . S
H1070 C1080 0.930 . S
H1071 C1083 0.929 . S
H1072 C1086 0.930 . S
H1073 C1088 0.960 . S
H1074 C1088 0.960 . S
H1075 C1088 0.960 . S
C1076 H1068 0.929 . S
C1076 C1077 1.377 . S
C1076 C1078 1.384 . S
C1077 C1076 1.377 . S
C1077 C1083 1.390 . S
C1078 H1069 0.930 . S
C1078 C1076 1.384 . S
C1078 C1079 1.372 . S
C1079 C1078 1.372 . S
C1079 C1080 1.400 . S
C1079 C1084 1.490 . S
C1080 H1070 0.930 . S
C1080 C1079 1.400 . S
C1080 C1083 1.386 . S
H1081 C1097 0.930 . S
H1082 C1098 0.931 . S
C1083 H1071 0.929 . S
C1083 C1077 1.390 . S
C1083 C1080 1.386 . S
C1084 C1079 1.490 . S
C1084 C1086 1.395 . S
C1084 C1087 1.403 . S
H1085 C1091 0.930 . S
C1086 H1072 0.930 . S
C1086 C1084 1.395 . S
C1086 C1089 1.403 . S
C1087 C1084 1.403 . S
C1087 C1088 1.524 . S
C1087 C1091 1.400 . S
C1088 H1073 0.960 . S
C1088 H1074 0.960 . S
C1088 H1075 0.960 . S
C1088 C1087 1.524 . S
C1089 C1086 1.403 . S
C1089 C1090 1.392 . S
C1089 C1093 1.495 . S
C1090 C1089 1.392 . S
C1090 C1091 1.385 . S
C1090 C1092 1.478 . S
C1091 H1085 0.930 . S
C1091 C1087 1.400 . S
C1091 C1090 1.385 . S
C1092 C1090 1.478 . S
C1092 C1094 1.381 . S
C1092 C1098 1.383 . S
C1093 C1089 1.495 . S
C1093 H1099 0.959 . S
C1093 H1100 0.961 . S
C1093 H1101 0.960 . S
C1094 C1092 1.381 . S
C1094 C1095 1.394 . S
C1094 H1102 0.930 . S
C1095 C1094 1.394 . S
C1095 C1096 1.383 . S
C1095 H1103 0.929 . S
C1096 C1095 1.383 . S
C1096 C1097 1.377 . S
C1097 H1081 0.930 . S
C1097 C1096 1.377 . S
C1097 C1098 1.379 . S
C1098 H1082 0.931 . S
C1098 C1092 1.383 . S
C1098 C1097 1.379 . S
H1099 C1093 0.959 . S
H1100 C1093 0.961 . S
H1101 C1093 0.960 . S
H1102 C1094 0.930 . S
H1103 C1095 0.929 . S
H1104 C1112 0.929 . S
H1105 C1114 0.930 . S
H1106 C1116 0.930 . S
H1107 C1119 0.929 . S
H1108 C1122 0.930 . S
H1109 C1124 0.960 . S
H1110 C1124 0.960 . S
H1111 C1124 0.960 . S
C1112 H1104 0.929 . S
C1112 C1113 1.377 . S
C1112 C1114 1.384 . S
C1113 C1112 1.377 . S
C1113 C1119 1.390 . S
C1114 H1105 0.930 . S
C1114 C1112 1.384 . S
C1114 C1115 1.372 . S
C1115 C1114 1.372 . S
C1115 C1116 1.400 . S
C1115 C1120 1.490 . S
C1116 H1106 0.930 . S
C1116 C1115 1.400 . S
C1116 C1119 1.386 . S
H1117 C1133 0.930 . S
H1118 C1134 0.931 . S
C1119 H1107 0.929 . S
C1119 C1113 1.390 . S
C1119 C1116 1.386 . S
C1120 C1115 1.490 . S
C1120 C1122 1.395 . S
C1120 C1123 1.403 . S
H1121 C1127 0.930 . S
C1122 H1108 0.930 . S
C1122 C1120 1.395 . S
C1122 C1125 1.403 . S
C1123 C1120 1.403 . S
C1123 C1124 1.524 . S
C1123 C1127 1.400 . S
C1124 H1109 0.960 . S
C1124 H1110 0.960 . S
C1124 H1111 0.960 . S
C1124 C1123 1.524 . S
C1125 C1122 1.403 . S
C1125 C1126 1.392 . S
C1125 C1129 1.495 . S
C1126 C1125 1.392 . S
C1126 C1127 1.385 . S
C1126 C1128 1.478 . S
C1127 H1121 0.930 . S
C1127 C1123 1.400 . S
C1127 C1126 1.385 . S
C1128 C1126 1.478 . S
C1128 C1130 1.381 . S
C1128 C1134 1.383 . S
C1129 C1125 1.495 . S
C1129 H1135 0.959 . S
C1129 H1136 0.961 . S
C1129 H1137 0.957 . S
C1130 C1128 1.381 . S
C1130 C1131 1.394 . S
C1130 H1138 0.930 . S
C1131 C1130 1.394 . S
C1131 C1132 1.383 . S
C1131 H1139 0.929 . S
C1132 C1131 1.383 . S
C1132 C1133 1.377 . S
C1133 H1117 0.930 . S
C1133 C1132 1.377 . S
C1133 C1134 1.379 . S
C1134 H1118 0.931 . S
C1134 C1128 1.383 . S
C1134 C1133 1.379 . S
H1135 C1129 0.959 . S
H1136 C1129 0.961 . S
H1137 C1129 0.957 . S
H1138 C1130 0.930 . S
H1139 C1131 0.929 . S
H1140 C1148 0.929 . S
H1141 C1150 0.930 . S
H1142 C1152 0.930 . S
H1143 C1155 0.929 . S
H1144 C1158 0.930 . S
H1145 C1160 0.960 . S
H1146 C1160 0.960 . S
H1147 C1160 0.960 . S
C1148 H1140 0.929 . S
C1148 C1149 1.377 . S
C1148 C1150 1.384 . S
C1149 C1148 1.377 . S
C1149 C1155 1.390 . S
C1150 H1141 0.930 . S
C1150 C1148 1.384 . S
C1150 C1151 1.372 . S
C1151 C1150 1.372 . S
C1151 C1152 1.400 . S
C1151 C1156 1.490 . S
C1152 H1142 0.930 . S
C1152 C1151 1.400 . S
C1152 C1155 1.386 . S
H1153 C1169 0.930 . S
H1154 C1170 0.931 . S
C1155 H1143 0.929 . S
C1155 C1149 1.390 . S
C1155 C1152 1.386 . S
C1156 C1151 1.490 . S
C1156 C1158 1.395 . S
C1156 C1159 1.403 . S
H1157 C1163 0.930 . S
C1158 H1144 0.930 . S
C1158 C1156 1.395 . S
C1158 C1161 1.403 . S
C1159 C1156 1.403 . S
C1159 C1160 1.524 . S
C1159 C1163 1.400 . S
C1160 H1145 0.960 . S
C1160 H1146 0.960 . S
C1160 H1147 0.960 . S
C1160 C1159 1.524 . S
C1161 C1158 1.403 . S
C1161 C1162 1.392 . S
C1161 C1165 1.495 . S
C1162 C1161 1.392 . S
C1162 C1163 1.385 . S
C1162 C1164 1.478 . S
C1163 H1157 0.930 . S
C1163 C1159 1.400 . S
C1163 C1162 1.385 . S
C1164 C1162 1.478 . S
C1164 C1166 1.381 . S
C1164 C1170 1.383 . S
C1165 C1161 1.495 . S
C1165 H1171 0.959 . S
C1165 H1172 0.961 . S
C1165 H1173 0.960 . S
C1166 C1164 1.381 . S
C1166 C1167 1.394 . S
C1166 H1174 0.930 . S
C1167 C1166 1.394 . S
C1167 C1168 1.383 . S
C1167 H1175 0.929 . S
C1168 C1167 1.383 . S
C1168 C1169 1.377 . S
C1169 H1153 0.930 . S
C1169 C1168 1.377 . S
C1169 C1170 1.379 . S
C1170 H1154 0.931 . S
C1170 C1164 1.383 . S
C1170 C1169 1.379 . S
H1171 C1165 0.959 . S
H1172 C1165 0.961 . S
H1173 C1165 0.960 . S
H1174 C1166 0.930 . S
H1175 C1167 0.929 . S
H1176 C1184 0.929 . S
H1177 C1186 0.930 . S
H1178 C1188 0.930 . S
H1179 C1191 0.929 . S
H1180 C1194 0.930 . S
H1181 C1196 0.960 . S
H1182 C1196 0.960 . S
H1183 C1196 0.960 . S
C1184 H1176 0.929 . S
C1184 C1185 1.377 . S
C1184 C1186 1.384 . S
C1185 C1184 1.377 . S
C1185 C1191 1.390 . S
C1186 H1177 0.930 . S
C1186 C1184 1.384 . S
C1186 C1187 1.372 . S
C1187 C1186 1.372 . S
C1187 C1188 1.400 . S
C1187 C1192 1.490 . S
C1188 H1178 0.930 . S
C1188 C1187 1.400 . S
C1188 C1191 1.386 . S
H1189 C1205 0.930 . S
H1190 C1206 0.931 . S
C1191 H1179 0.929 . S
C1191 C1185 1.390 . S
C1191 C1188 1.386 . S
C1192 C1187 1.490 . S
C1192 C1194 1.395 . S
C1192 C1195 1.403 . S
H1193 C1199 0.930 . S
C1194 H1180 0.930 . S
C1194 C1192 1.395 . S
C1194 C1197 1.403 . S
C1195 C1192 1.403 . S
C1195 C1196 1.524 . S
C1195 C1199 1.400 . S
C1196 H1181 0.960 . S
C1196 H1182 0.960 . S
C1196 H1183 0.960 . S
C1196 C1195 1.524 . S
C1197 C1194 1.403 . S
C1197 C1198 1.392 . S
C1197 C1201 1.495 . S
C1198 C1197 1.392 . S
C1198 C1199 1.385 . S
C1198 C1200 1.478 . S
C1199 H1193 0.930 . S
C1199 C1195 1.400 . S
C1199 C1198 1.385 . S
C1200 C1198 1.478 . S
C1200 C1202 1.381 . S
C1200 C1206 1.383 . S
C1201 C1197 1.495 . S
C1201 H1207 0.959 . S
C1201 H1208 0.961 . S
C1201 H1209 0.960 . S
C1202 C1200 1.381 . S
C1202 C1203 1.394 . S
C1202 H1210 0.930 . S
C1203 C1202 1.394 . S
C1203 C1204 1.383 . S
C1203 H1211 0.929 . S
C1204 C1203 1.383 . S
C1204 C1205 1.377 . S
C1205 H1189 0.930 . S
C1205 C1204 1.377 . S
C1205 C1206 1.379 . S
C1206 H1190 0.931 . S
C1206 C1200 1.383 . S
C1206 C1205 1.379 . S
H1207 C1201 0.959 . S
H1208 C1201 0.961 . S
H1209 C1201 0.960 . S
H1210 C1202 0.930 . S
H1211 C1203 0.929 . S
H1212 C1220 0.929 . S
H1213 C1222 0.930 . S
H1214 C1224 0.930 . S
H1215 C1227 0.929 . S
H1216 C1230 0.930 . S
H1217 C1232 0.960 . S
H1218 C1232 0.960 . S
H1219 C1232 0.960 . S
C1220 H1212 0.929 . S
C1220 C1221 1.377 . S
C1220 C1222 1.384 . S
C1221 C1220 1.377 . S
C1221 C1227 1.390 . S
C1222 H1213 0.930 . S
C1222 C1220 1.384 . S
C1222 C1223 1.372 . S
C1223 C1222 1.372 . S
C1223 C1224 1.400 . S
C1223 C1228 1.490 . S
C1224 H1214 0.930 . S
C1224 C1223 1.400 . S
C1224 C1227 1.386 . S
H1225 C1241 0.930 . S
H1226 C1242 0.931 . S
C1227 H1215 0.929 . S
C1227 C1221 1.390 . S
C1227 C1224 1.386 . S
C1228 C1223 1.490 . S
C1228 C1230 1.395 . S
C1228 C1231 1.403 . S
H1229 C1235 0.930 . S
C1230 H1216 0.930 . S
C1230 C1228 1.395 . S
C1230 C1233 1.403 . S
C1231 C1228 1.403 . S
C1231 C1232 1.524 . S
C1231 C1235 1.400 . S
C1232 H1217 0.960 . S
C1232 H1218 0.960 . S
C1232 H1219 0.960 . S
C1232 C1231 1.524 . S
C1233 C1230 1.403 . S
C1233 C1234 1.392 . S
C1233 C1237 1.495 . S
C1234 C1233 1.392 . S
C1234 C1235 1.385 . S
C1234 C1236 1.478 . S
C1235 H1229 0.930 . S
C1235 C1231 1.400 . S
C1235 C1234 1.385 . S
C1236 C1234 1.478 . S
C1236 C1238 1.381 . S
C1236 C1242 1.383 . S
C1237 C1233 1.495 . S
C1237 H1243 0.959 . S
C1237 H1244 0.961 . S
C1237 H1245 0.960 . S
C1238 C1236 1.381 . S
C1238 C1239 1.394 . S
C1238 H1246 0.930 . S
C1239 C1238 1.394 . S
C1239 C1240 1.383 . S
C1239 H1247 0.965 . S
C1240 C1239 1.383 . S
C1240 C1241 1.377 . S
C1241 H1225 0.930 . S
C1241 C1240 1.377 . S
C1241 C1242 1.379 . S
C1242 H1226 0.931 . S
C1242 C1236 1.383 . S
C1242 C1241 1.379 . S
H1243 C1237 0.959 . S
H1244 C1237 0.961 . S
H1245 C1237 0.960 . S
H1246 C1238 0.930 . S
H1247 C1239 0.965 . S
H1248 C1256 0.929 . S
H1249 C1258 0.930 . S
H1250 C1260 0.930 . S
H1251 C1263 0.929 . S
H1252 C1266 0.930 . S
H1253 C1268 0.960 . S
H1254 C1268 0.960 . S
H1255 C1268 0.960 . S
C1256 H1248 0.929 . S
C1256 C1257 1.377 . S
C1256 C1258 1.384 . S
C1257 C1256 1.377 . S
C1257 C1263 1.390 . S
C1258 H1249 0.930 . S
C1258 C1256 1.384 . S
C1258 C1259 1.372 . S
C1259 C1258 1.372 . S
C1259 C1260 1.400 . S
C1259 C1264 1.490 . S
C1260 H1250 0.930 . S
C1260 C1259 1.400 . S
C1260 C1263 1.386 . S
H1261 C1277 0.930 . S
H1262 C1278 0.931 . S
C1263 H1251 0.929 . S
C1263 C1257 1.390 . S
C1263 C1260 1.386 . S
C1264 C1259 1.490 . S
C1264 C1266 1.395 . S
C1264 C1267 1.403 . S
H1265 C1271 0.930 . S
C1266 H1252 0.930 . S
C1266 C1264 1.395 . S
C1266 C1269 1.403 . S
C1267 C1264 1.403 . S
C1267 C1268 1.524 . S
C1267 C1271 1.400 . S
C1268 H1253 0.960 . S
C1268 H1254 0.960 . S
C1268 H1255 0.960 . S
C1268 C1267 1.524 . S
C1269 C1266 1.403 . S
C1269 C1270 1.392 . S
C1269 C1273 1.495 . S
C1270 C1269 1.392 . S
C1270 C1271 1.385 . S
C1270 C1272 1.478 . S
C1271 H1265 0.930 . S
C1271 C1267 1.400 . S
C1271 C1270 1.385 . S
C1272 C1270 1.478 . S
C1272 C1274 1.381 . S
C1272 C1278 1.383 . S
C1273 C1269 1.495 . S
C1273 H1279 0.959 . S
C1273 H1280 0.961 . S
C1273 H1281 0.960 . S
C1274 C1272 1.381 . S
C1274 C1275 1.394 . S
C1274 H1282 0.930 . S
C1275 C1274 1.394 . S
C1275 C1276 1.383 . S
C1275 H1283 0.929 . S
C1276 C1275 1.383 . S
C1276 C1277 1.377 . S
C1277 H1261 0.930 . S
C1277 C1276 1.377 . S
C1277 C1278 1.379 . S
C1278 H1262 0.931 . S
C1278 C1272 1.383 . S
C1278 C1277 1.379 . S
H1279 C1273 0.959 . S
H1280 C1273 0.961 . S
H1281 C1273 0.960 . S
H1282 C1274 0.930 . S
H1283 C1275 0.929 . S
H1284 C1292 0.929 . S
H1285 C1294 0.930 . S
H1286 C1296 0.930 . S
H1287 C1299 0.929 . S
H1288 C1302 0.930 . S
H1289 C1304 0.960 . S
H1290 C1304 0.960 . S
H1291 C1304 0.960 . S
C1292 H1284 0.929 . S
C1292 C1293 1.377 . S
C1292 C1294 1.384 . S
C1293 C1292 1.377 . S
C1293 C1299 1.390 . S
C1294 H1285 0.930 . S
C1294 C1292 1.384 . S
C1294 C1295 1.372 . S
C1295 C1294 1.372 . S
C1295 C1296 1.400 . S
C1295 C1300 1.490 . S
C1296 H1286 0.930 . S
C1296 C1295 1.400 . S
C1296 C1299 1.386 . S
H1297 C1313 0.930 . S
H1298 C1314 0.931 . S
C1299 H1287 0.929 . S
C1299 C1293 1.390 . S
C1299 C1296 1.386 . S
C1300 C1295 1.490 . S
C1300 C1302 1.395 . S
C1300 C1303 1.403 . S
H1301 C1307 0.930 . S
C1302 H1288 0.930 . S
C1302 C1300 1.395 . S
C1302 C1305 1.403 . S
C1303 C1300 1.403 . S
C1303 C1304 1.524 . S
C1303 C1307 1.400 . S
C1304 H1289 0.960 . S
C1304 H1290 0.960 . S
C1304 H1291 0.960 . S
C1304 C1303 1.524 . S
C1305 C1302 1.403 . S
C1305 C1306 1.392 . S
C1305 C1309 1.495 . S
C1306 C1305 1.392 . S
C1306 C1307 1.385 . S
C1306 C1308 1.478 . S
C1307 H1301 0.930 . S
C1307 C1303 1.400 . S
C1307 C1306 1.385 . S
C1308 C1306 1.478 . S
C1308 C1310 1.381 . S
C1308 C1314 1.383 . S
C1309 C1305 1.495 . S
C1309 H1315 0.959 . S
C1309 H1316 0.961 . S
C1309 H1317 0.960 . S
C1310 C1308 1.381 . S
C1310 C1311 1.394 . S
C1310 H1318 0.930 . S
C1311 C1310 1.394 . S
C1311 C1312 1.383 . S
C1311 H1319 0.929 1_556 S
C1312 C1311 1.383 . S
C1312 C1313 1.377 . S
C1313 H1297 0.930 . S
C1313 C1312 1.377 . S
C1313 C1314 1.379 . S
C1314 H1298 0.931 . S
C1314 C1308 1.383 . S
C1314 C1313 1.379 . S
H1315 C1309 0.959 . S
H1316 C1309 0.961 . S
H1317 C1309 0.960 . S
H1318 C1310 0.930 . S
H1319 C1311 0.929 1_554 S
H1320 C1328 0.929 . S
H1321 C1330 0.930 . S
H1322 C1332 0.930 . S
H1323 C1335 0.929 . S
H1324 C1338 0.930 . S
H1325 C1340 0.960 . S
H1326 C1340 0.960 . S
H1327 C1340 0.960 . S
C1328 H1320 0.929 . S
C1328 C1329 1.377 . S
C1328 C1330 1.384 . S
C1329 C1328 1.377 . S
C1329 C1335 1.390 . S
C1330 H1321 0.930 . S
C1330 C1328 1.384 . S
C1330 C1331 1.372 . S
C1331 C1330 1.372 . S
C1331 C1332 1.400 . S
C1331 C1336 1.490 . S
C1332 H1322 0.930 . S
C1332 C1331 1.400 . S
C1332 C1335 1.386 . S
H1333 C1349 0.930 . S
H1334 C1350 0.931 . S
C1335 H1323 0.929 . S
C1335 C1329 1.390 . S
C1335 C1332 1.386 . S
C1336 C1331 1.490 . S
C1336 C1338 1.395 . S
C1336 C1339 1.403 . S
H1337 C1343 0.930 . S
C1338 H1324 0.930 . S
C1338 C1336 1.395 . S
C1338 C1341 1.403 . S
C1339 C1336 1.403 . S
C1339 C1340 1.524 . S
C1339 C1343 1.400 . S
C1340 H1325 0.960 . S
C1340 H1326 0.960 . S
C1340 H1327 0.960 . S
C1340 C1339 1.524 . S
C1341 C1338 1.403 . S
C1341 C1342 1.392 . S
C1341 C1345 1.495 . S
C1342 C1341 1.392 . S
C1342 C1343 1.385 . S
C1342 C1344 1.478 . S
C1343 H1337 0.930 . S
C1343 C1339 1.400 . S
C1343 C1342 1.385 . S
C1344 C1342 1.478 . S
C1344 C1346 1.381 . S
C1344 C1350 1.383 . S
C1345 C1341 1.495 . S
C1345 H1351 0.959 . S
C1345 H1352 0.961 . S
C1345 H1353 0.960 . S
C1346 C1344 1.381 . S
C1346 C1347 1.394 . S
C1346 H1354 0.930 . S
C1347 C1346 1.394 . S
C1347 C1348 1.383 . S
C1347 H1355 0.929 . S
C1348 C1347 1.383 . S
C1348 C1349 1.377 . S
C1349 H1333 0.930 . S
C1349 C1348 1.377 . S
C1349 C1350 1.379 . S
C1350 H1334 0.931 . S
C1350 C1344 1.383 . S
C1350 C1349 1.379 . S
H1351 C1345 0.959 . S
H1352 C1345 0.961 . S
H1353 C1345 0.960 . S
H1354 C1346 0.930 . S
H1355 C1347 0.929 . S
H1356 C1364 0.929 . S
H1357 C1366 0.930 . S
H1358 C1368 0.930 . S
H1359 C1371 0.929 . S
H1360 C1374 0.930 . S
H1361 C1376 0.960 . S
H1362 C1376 0.960 . S
H1363 C1376 0.960 . S
C1364 H1356 0.929 . S
C1364 C1365 1.377 . S
C1364 C1366 1.384 . S
C1365 C1364 1.377 . S
C1365 C1371 1.390 . S
C1366 H1357 0.930 . S
C1366 C1364 1.384 . S
C1366 C1367 1.372 . S
C1367 C1366 1.372 . S
C1367 C1368 1.400 . S
C1367 C1372 1.490 . S
C1368 H1358 0.930 . S
C1368 C1367 1.400 . S
C1368 C1371 1.386 . S
H1369 C1385 0.930 . S
H1370 C1386 0.931 . S
C1371 H1359 0.929 . S
C1371 C1365 1.390 . S
C1371 C1368 1.386 . S
C1372 C1367 1.490 . S
C1372 C1374 1.395 . S
C1372 C1375 1.403 . S
H1373 C1379 0.930 . S
C1374 H1360 0.930 . S
C1374 C1372 1.395 . S
C1374 C1377 1.403 . S
C1375 C1372 1.403 . S
C1375 C1376 1.524 . S
C1375 C1379 1.400 . S
C1376 H1361 0.960 . S
C1376 H1362 0.960 . S
C1376 H1363 0.960 . S
C1376 C1375 1.524 . S
C1377 C1374 1.403 . S
C1377 C1378 1.392 . S
C1377 C1381 1.495 . S
C1378 C1377 1.392 . S
C1378 C1379 1.385 . S
C1378 C1380 1.478 . S
C1379 H1373 0.930 . S
C1379 C1375 1.400 . S
C1379 C1378 1.385 . S
C1380 C1378 1.478 . S
C1380 C1382 1.381 . S
C1380 C1386 1.383 . S
C1381 C1377 1.495 . S
C1381 H1387 0.959 . S
C1381 H1388 0.961 . S
C1381 H1389 0.960 . S
C1382 C1380 1.381 . S
C1382 C1383 1.394 . S
C1382 H1390 0.930 . S
C1383 C1382 1.394 . S
C1383 C1384 1.383 . S
C1383 H1391 0.929 . S
C1384 C1383 1.383 . S
C1384 C1385 1.377 . S
C1385 H1369 0.930 . S
C1385 C1384 1.377 . S
C1385 C1386 1.379 . S
C1386 H1370 0.931 . S
C1386 C1380 1.383 . S
C1386 C1385 1.379 . S
H1387 C1381 0.959 . S
H1388 C1381 0.961 . S
H1389 C1381 0.960 . S
H1390 C1382 0.930 . S
H1391 C1383 0.929 . S
H1392 C1400 0.929 . S
H1393 C1402 0.930 . S
H1394 C1404 0.930 . S
H1395 C1407 0.929 . S
H1396 C1410 0.930 . S
H1397 C1412 0.960 . S
H1398 C1412 0.960 . S
H1399 C1412 0.960 . S
C1400 H1392 0.929 . S
C1400 C1401 1.377 . S
C1400 C1402 1.384 . S
C1401 C1400 1.377 . S
C1401 C1407 1.390 . S
C1402 H1393 0.930 . S
C1402 C1400 1.384 . S
C1402 C1403 1.372 . S
C1403 C1402 1.372 . S
C1403 C1404 1.400 . S
C1403 C1408 1.490 . S
C1404 H1394 0.930 . S
C1404 C1403 1.400 . S
C1404 C1407 1.386 . S
H1405 C1421 0.930 . S
H1406 C1422 0.931 . S
C1407 H1395 0.929 . S
C1407 C1401 1.390 . S
C1407 C1404 1.386 . S
C1408 C1403 1.490 . S
C1408 C1410 1.395 . S
C1408 C1411 1.403 . S
H1409 C1415 0.930 . S
C1410 H1396 0.930 . S
C1410 C1408 1.395 . S
C1410 C1413 1.403 . S
C1411 C1408 1.403 . S
C1411 C1412 1.524 . S
C1411 C1415 1.400 . S
C1412 H1397 0.960 . S
C1412 H1398 0.960 . S
C1412 H1399 0.960 . S
C1412 C1411 1.524 . S
C1413 C1410 1.403 . S
C1413 C1414 1.392 . S
C1413 C1417 1.495 . S
C1414 C1413 1.392 . S
C1414 C1415 1.385 . S
C1414 C1416 1.478 . S
C1415 H1409 0.930 . S
C1415 C1411 1.400 . S
C1415 C1414 1.385 . S
C1416 C1414 1.478 . S
C1416 C1418 1.381 . S
C1416 C1422 1.383 . S
C1417 C1413 1.495 . S
C1417 H1423 0.959 . S
C1417 H1424 0.961 . S
C1417 H1425 0.960 . S
C1418 C1416 1.381 . S
C1418 C1419 1.394 . S
C1418 H1426 0.930 . S
C1419 C1418 1.394 . S
C1419 C1420 1.383 . S
C1419 H1427 0.929 . S
C1420 C1419 1.383 . S
C1420 C1421 1.377 . S
C1421 H1405 0.930 . S
C1421 C1420 1.377 . S
C1421 C1422 1.379 . S
C1422 H1406 0.931 . S
C1422 C1416 1.383 . S
C1422 C1421 1.379 . S
H1423 C1417 0.959 . S
H1424 C1417 0.961 . S
H1425 C1417 0.960 . S
H1426 C1418 0.930 . S
H1427 C1419 0.929 . S
H1428 C1436 0.929 . S
H1429 C1438 0.930 . S
H1430 C1440 0.930 . S
H1431 C1443 0.929 . S
H1432 C1446 0.930 . S
H1433 C1448 0.960 . S
H1434 C1448 0.960 . S
H1435 C1448 0.960 . S
C1436 H1428 0.929 . S
C1436 C1437 1.377 . S
C1436 C1438 1.384 . S
C1437 C1436 1.377 . S
C1437 C1443 1.390 . S
C1438 H1429 0.930 . S
C1438 C1436 1.384 . S
C1438 C1439 1.372 . S
C1439 C1438 1.372 . S
C1439 C1440 1.400 . S
C1439 C1444 1.490 . S
C1440 H1430 0.930 . S
C1440 C1439 1.400 . S
C1440 C1443 1.386 . S
H1441 C1457 0.930 . S
H1442 C1458 0.931 . S
C1443 H1431 0.929 . S
C1443 C1437 1.390 . S
C1443 C1440 1.386 . S
C1444 C1439 1.490 . S
C1444 C1446 1.395 . S
C1444 C1447 1.403 . S
H1445 C1451 0.930 . S
C1446 H1432 0.930 . S
C1446 C1444 1.395 . S
C1446 C1449 1.403 . S
C1447 C1444 1.403 . S
C1447 C1448 1.524 . S
C1447 C1451 1.400 . S
C1448 H1433 0.960 . S
C1448 H1434 0.960 . S
C1448 H1435 0.960 . S
C1448 C1447 1.524 . S
C1449 C1446 1.403 . S
C1449 C1450 1.392 . S
C1449 C1453 1.495 . S
C1450 C1449 1.392 . S
C1450 C1451 1.385 . S
C1450 C1452 1.478 . S
C1451 H1445 0.930 . S
C1451 C1447 1.400 . S
C1451 C1450 1.385 . S
C1452 C1450 1.478 . S
C1452 C1454 1.381 . S
C1452 C1458 1.383 . S
C1453 C1449 1.495 . S
C1453 H1459 0.959 . S
C1453 H1460 0.961 . S
C1453 H1461 0.960 . S
C1454 C1452 1.381 . S
C1454 C1455 1.394 . S
C1454 H1462 0.930 . S
C1455 C1454 1.394 . S
C1455 C1456 1.383 . S
C1455 H1463 0.929 . S
C1456 C1455 1.383 . S
C1456 C1457 1.377 . S
C1457 H1441 0.930 . S
C1457 C1456 1.377 . S
C1457 C1458 1.379 . S
C1458 H1442 0.931 . S
C1458 C1452 1.383 . S
C1458 C1457 1.379 . S
H1459 C1453 0.959 . S
H1460 C1453 0.961 . S
H1461 C1453 0.960 . S
H1462 C1454 0.930 . S
H1463 C1455 0.929 . S
H1464 C1472 0.929 . S
H1465 C1474 0.930 . S
H1466 C1476 0.930 . S
H1467 C1479 0.929 . S
H1468 C1482 0.930 . S
H1469 C1484 0.960 . S
H1470 C1484 0.960 . S
H1471 C1484 0.960 . S
C1472 H1464 0.929 . S
C1472 C1473 1.377 . S
C1472 C1474 1.384 . S
C1473 C1472 1.377 . S
C1473 C1479 1.390 . S
C1474 H1465 0.930 . S
C1474 C1472 1.384 . S
C1474 C1475 1.372 . S
C1475 C1474 1.372 . S
C1475 C1476 1.400 . S
C1475 C1480 1.490 . S
C1476 H1466 0.930 . S
C1476 C1475 1.400 . S
C1476 C1479 1.386 . S
H1477 C1493 0.930 . S
H1478 C1494 0.931 . S
C1479 H1467 0.929 . S
C1479 C1473 1.390 . S
C1479 C1476 1.386 . S
C1480 C1475 1.490 . S
C1480 C1482 1.395 . S
C1480 C1483 1.403 . S
H1481 C1487 0.930 . S
C1482 H1468 0.930 . S
C1482 C1480 1.395 . S
C1482 C1485 1.403 . S
C1483 C1480 1.403 . S
C1483 C1484 1.524 . S
C1483 C1487 1.400 . S
C1484 H1469 0.960 . S
C1484 H1470 0.960 . S
C1484 H1471 0.960 . S
C1484 C1483 1.524 . S
C1485 C1482 1.403 . S
C1485 C1486 1.392 . S
C1485 C1489 1.495 . S
C1486 C1485 1.392 . S
C1486 C1487 1.385 . S
C1486 C1488 1.478 . S
C1487 H1481 0.930 . S
C1487 C1483 1.400 . S
C1487 C1486 1.385 . S
C1488 C1486 1.478 . S
C1488 C1490 1.381 . S
C1488 C1494 1.383 . S
C1489 C1485 1.495 . S
C1489 H1495 0.959 . S
C1489 H1496 0.961 . S
C1489 H1497 0.960 . S
C1490 C1488 1.381 . S
C1490 C1491 1.394 . S
C1490 H1498 0.930 . S
C1491 C1490 1.394 . S
C1491 C1492 1.383 . S
C1491 H1499 0.929 . S
C1492 C1491 1.383 . S
C1492 C1493 1.377 . S
C1493 H1477 0.930 . S
C1493 C1492 1.377 . S
C1493 C1494 1.379 . S
C1494 H1478 0.931 . S
C1494 C1488 1.383 . S
C1494 C1493 1.379 . S
H1495 C1489 0.959 . S
H1496 C1489 0.961 . S
H1497 C1489 0.960 . S
H1498 C1490 0.930 . S
H1499 C1491 0.929 . S
H1500 C1508 0.929 . S
H1501 C1510 0.930 . S
H1502 C1512 0.930 . S
H1503 C1515 0.929 . S
H1504 C1518 0.930 . S
H1505 C1520 0.960 . S
H1506 C1520 0.960 . S
H1507 C1520 0.960 . S
C1508 H1500 0.929 . S
C1508 C1509 1.377 . S
C1508 C1510 1.384 . S
C1509 C1508 1.377 . S
C1509 C1515 1.390 . S
C1510 H1501 0.930 . S
C1510 C1508 1.384 . S
C1510 C1511 1.372 . S
C1511 C1510 1.372 . S
C1511 C1512 1.400 . S
C1511 C1516 1.490 . S
C1512 H1502 0.930 . S
C1512 C1511 1.400 . S
C1512 C1515 1.386 . S
H1513 C1529 0.930 . S
H1514 C1530 0.931 . S
C1515 H1503 0.929 . S
C1515 C1509 1.390 . S
C1515 C1512 1.386 . S
C1516 C1511 1.490 . S
C1516 C1518 1.395 . S
C1516 C1519 1.403 . S
H1517 C1523 0.930 . S
C1518 H1504 0.930 . S
C1518 C1516 1.395 . S
C1518 C1521 1.403 . S
C1519 C1516 1.403 . S
C1519 C1520 1.524 . S
C1519 C1523 1.400 . S
C1520 H1505 0.960 . S
C1520 H1506 0.960 . S
C1520 H1507 0.960 . S
C1520 C1519 1.524 . S
C1521 C1518 1.403 . S
C1521 C1522 1.392 . S
C1521 C1525 1.495 . S
C1522 C1521 1.392 . S
C1522 C1523 1.385 . S
C1522 C1524 1.478 . S
C1523 H1517 0.930 . S
C1523 C1519 1.400 . S
C1523 C1522 1.385 . S
C1524 C1522 1.478 . S
C1524 C1526 1.381 . S
C1524 C1530 1.383 . S
C1525 C1521 1.495 . S
C1525 H1531 0.959 . S
C1525 H1532 0.961 . S
C1525 H1533 0.960 . S
C1526 C1524 1.381 . S
C1526 C1527 1.394 . S
C1526 H1534 0.930 . S
C1527 C1526 1.394 . S
C1527 C1528 1.383 . S
C1527 H1535 0.929 . S
C1528 C1527 1.383 . S
C1528 C1529 1.377 . S
C1529 H1513 0.930 . S
C1529 C1528 1.377 . S
C1529 C1530 1.379 . S
C1530 H1514 0.931 . S
C1530 C1524 1.383 . S
C1530 C1529 1.379 . S
H1531 C1525 0.959 . S
H1532 C1525 0.961 . S
H1533 C1525 0.960 . S
H1534 C1526 0.930 . S
H1535 C1527 0.929 . S
H1536 C1544 0.929 . S
H1537 C1546 0.930 . S
H1538 C1548 0.930 . S
H1539 C1551 0.929 . S
H1540 C1554 0.930 . S
H1541 C1556 0.960 . S
H1542 C1556 0.960 . S
H1543 C1556 0.960 . S
C1544 H1536 0.929 . S
C1544 C1545 1.377 . S
C1544 C1546 1.384 . S
C1545 C1544 1.377 . S
C1545 C1551 1.390 . S
C1546 H1537 0.930 . S
C1546 C1544 1.384 . S
C1546 C1547 1.372 . S
C1547 C1546 1.372 . S
C1547 C1548 1.400 . S
C1547 C1552 1.490 . S
C1548 H1538 0.930 . S
C1548 C1547 1.400 . S
C1548 C1551 1.386 . S
H1549 C1565 0.930 . S
H1550 C1566 0.931 . S
C1551 H1539 0.929 . S
C1551 C1545 1.390 . S
C1551 C1548 1.386 . S
C1552 C1547 1.490 . S
C1552 C1554 1.395 . S
C1552 C1555 1.403 . S
H1553 C1559 0.930 . S
C1554 H1540 0.930 . S
C1554 C1552 1.395 . S
C1554 C1557 1.403 . S
C1555 C1552 1.403 . S
C1555 C1556 1.524 . S
C1555 C1559 1.400 . S
C1556 H1541 0.960 . S
C1556 H1542 0.960 . S
C1556 H1543 0.960 . S
C1556 C1555 1.524 . S
C1557 C1554 1.403 . S
C1557 C1558 1.392 . S
C1557 C1561 1.495 . S
C1558 C1557 1.392 . S
C1558 C1559 1.385 . S
C1558 C1560 1.478 . S
C1559 H1553 0.930 . S
C1559 C1555 1.400 . S
C1559 C1558 1.385 . S
C1560 C1558 1.478 . S
C1560 C1562 1.381 . S
C1560 C1566 1.383 . S
C1561 C1557 1.495 . S
C1561 H1567 0.959 . S
C1561 H1568 0.961 . S
C1561 H1569 0.960 . S
C1562 C1560 1.381 . S
C1562 C1563 1.394 . S
C1562 H1570 0.930 . S
C1563 C1562 1.394 . S
C1563 C1564 1.383 . S
C1563 H1571 0.929 . S
C1564 C1563 1.383 . S
C1564 C1565 1.377 . S
C1565 H1549 0.930 . S
C1565 C1564 1.377 . S
C1565 C1566 1.379 . S
C1566 H1550 0.931 . S
C1566 C1560 1.383 . S
C1566 C1565 1.379 . S
H1567 C1561 0.959 . S
H1568 C1561 0.961 . S
H1569 C1561 0.960 . S
H1570 C1562 0.930 . S
H1571 C1563 0.929 . S
H1572 C1580 0.929 . S
H1573 C1582 0.930 . S
H1574 C1584 0.930 . S
H1575 C1587 0.929 . S
H1576 C1590 0.930 . S
H1577 C1592 0.960 . S
H1578 C1592 0.960 . S
H1579 C1592 0.960 . S
C1580 H1572 0.929 . S
C1580 C1581 1.377 . S
C1580 C1582 1.384 . S
C1581 C1580 1.377 . S
C1581 C1587 1.390 . S
C1582 H1573 0.930 . S
C1582 C1580 1.384 . S
C1582 C1583 1.372 . S
C1583 C1582 1.372 . S
C1583 C1584 1.400 . S
C1583 C1588 1.490 . S
C1584 H1574 0.930 . S
C1584 C1583 1.400 . S
C1584 C1587 1.386 . S
H1585 C1601 0.930 . S
H1586 C1602 0.931 . S
C1587 H1575 0.929 . S
C1587 C1581 1.390 . S
C1587 C1584 1.386 . S
C1588 C1583 1.490 . S
C1588 C1590 1.395 . S
C1588 C1591 1.403 . S
H1589 C1595 0.930 . S
C1590 H1576 0.930 . S
C1590 C1588 1.395 . S
C1590 C1593 1.403 . S
C1591 C1588 1.403 . S
C1591 C1592 1.524 . S
C1591 C1595 1.400 . S
C1592 H1577 0.960 . S
C1592 H1578 0.960 . S
C1592 H1579 0.960 . S
C1592 C1591 1.524 . S
C1593 C1590 1.403 . S
C1593 C1594 1.392 . S
C1593 C1597 1.495 . S
C1594 C1593 1.392 . S
C1594 C1595 1.385 . S
C1594 C1596 1.478 . S
C1595 H1589 0.930 . S
C1595 C1591 1.400 . S
C1595 C1594 1.385 . S
C1596 C1594 1.478 . S
C1596 C1598 1.381 . S
C1596 C1602 1.383 . S
C1597 C1593 1.495 . S
C1597 H1603 0.959 . S
C1597 H1604 0.961 . S
C1597 H1605 0.960 . S
C1598 C1596 1.381 . S
C1598 C1599 1.394 . S
C1598 H1606 0.930 . S
C1599 C1598 1.394 . S
C1599 C1600 1.383 . S
C1599 H1607 0.929 . S
C1600 C1599 1.383 . S
C1600 C1601 1.377 . S
C1601 H1585 0.930 . S
C1601 C1600 1.377 . S
C1601 C1602 1.379 . S
C1602 H1586 0.931 . S
C1602 C1596 1.383 . S
C1602 C1601 1.379 . S
H1603 C1597 0.959 . S
H1604 C1597 0.961 . S
H1605 C1597 0.960 . S
H1606 C1598 0.930 . S
H1607 C1599 0.929 . S
H1608 C1616 0.929 . S
H1609 C1618 0.930 . S
H1610 C1620 0.930 . S
H1611 C1623 0.929 . S
H1612 C1626 0.930 . S
H1613 C1628 0.960 . S
H1614 C1628 0.960 . S
H1615 C1628 0.960 . S
C1616 H1608 0.929 . S
C1616 C1617 1.377 . S
C1616 C1618 1.384 . S
C1617 C1616 1.377 . S
C1617 C1623 1.390 . S
C1618 H1609 0.930 . S
C1618 C1616 1.384 . S
C1618 C1619 1.372 . S
C1619 C1618 1.372 . S
C1619 C1620 1.400 . S
C1619 C1624 1.490 . S
C1620 H1610 0.930 . S
C1620 C1619 1.400 . S
C1620 C1623 1.386 . S
H1621 C1637 0.930 . S
H1622 C1638 0.931 . S
C1623 H1611 0.929 . S
C1623 C1617 1.390 . S
C1623 C1620 1.386 . S
C1624 C1619 1.490 . S
C1624 C1626 1.395 . S
C1624 C1627 1.403 . S
H1625 C1631 0.930 . S
C1626 H1612 0.930 . S
C1626 C1624 1.395 . S
C1626 C1629 1.403 . S
C1627 C1624 1.403 . S
C1627 C1628 1.524 . S
C1627 C1631 1.400 . S
C1628 H1613 0.960 . S
C1628 H1614 0.960 . S
C1628 H1615 0.960 . S
C1628 C1627 1.524 . S
C1629 C1626 1.403 . S
C1629 C1630 1.392 . S
C1629 C1633 1.495 . S
C1630 C1629 1.392 . S
C1630 C1631 1.385 . S
C1630 C1632 1.478 . S
C1631 H1625 0.930 . S
C1631 C1627 1.400 . S
C1631 C1630 1.385 . S
C1632 C1630 1.478 . S
C1632 C1634 1.381 . S
C1632 C1638 1.383 . S
C1633 C1629 1.495 . S
C1633 H1639 0.959 . S
C1633 H1640 0.961 . S
C1633 H1641 0.960 . S
C1634 C1632 1.381 . S
C1634 C1635 1.394 . S
C1634 H1642 0.930 . S
C1635 C1634 1.394 . S
C1635 C1636 1.383 . S
C1635 H1643 0.929 . S
C1636 C1635 1.383 . S
C1636 C1637 1.377 . S
C1637 H1621 0.930 . S
C1637 C1636 1.377 . S
C1637 C1638 1.379 . S
C1638 H1622 0.931 . S
C1638 C1632 1.383 . S
C1638 C1637 1.379 . S
H1639 C1633 0.959 . S
H1640 C1633 0.961 . S
H1641 C1633 0.960 . S
H1642 C1634 0.930 . S
H1643 C1635 0.929 . S
H1644 C1652 0.929 . S
H1645 C1654 0.930 . S
H1646 C1656 0.930 . S
H1647 C1659 0.929 . S
H1648 C1662 0.930 . S
H1649 C1664 0.960 . S
H1650 C1664 0.960 . S
H1651 C1664 0.960 . S
C1652 H1644 0.929 . S
C1652 C1653 1.377 . S
C1652 C1654 1.384 . S
C1653 C1652 1.377 . S
C1653 C1659 1.390 . S
C1654 H1645 0.930 . S
C1654 C1652 1.384 . S
C1654 C1655 1.372 . S
C1655 C1654 1.372 . S
C1655 C1656 1.400 . S
C1655 C1660 1.490 . S
C1656 H1646 0.930 . S
C1656 C1655 1.400 . S
C1656 C1659 1.386 . S
H1657 C1673 0.930 . S
H1658 C1674 0.931 . S
C1659 H1647 0.929 . S
C1659 C1653 1.390 . S
C1659 C1656 1.386 . S
C1660 C1655 1.490 . S
C1660 C1662 1.395 . S
C1660 C1663 1.403 . S
H1661 C1667 0.930 . S
C1662 H1648 0.930 . S
C1662 C1660 1.395 . S
C1662 C1665 1.403 . S
C1663 C1660 1.403 . S
C1663 C1664 1.524 . S
C1663 C1667 1.400 . S
C1664 H1649 0.960 . S
C1664 H1650 0.960 . S
C1664 H1651 0.960 . S
C1664 C1663 1.524 . S
C1665 C1662 1.403 . S
C1665 C1666 1.392 . S
C1665 C1669 1.495 . S
C1666 C1665 1.392 . S
C1666 C1667 1.385 . S
C1666 C1668 1.478 . S
C1667 H1661 0.930 . S
C1667 C1663 1.400 . S
C1667 C1666 1.385 . S
C1668 C1666 1.478 . S
C1668 C1670 1.381 . S
C1668 C1674 1.383 . S
C1669 C1665 1.495 . S
C1669 H1675 0.959 . S
C1669 H1676 0.961 . S
C1669 H1677 0.960 . S
C1670 C1668 1.381 . S
C1670 C1671 1.394 . S
C1670 H1678 0.930 . S
C1671 C1670 1.394 . S
C1671 C1672 1.383 . S
C1671 H1679 0.929 . S
C1672 C1671 1.383 . S
C1672 C1673 1.377 . S
C1673 H1657 0.930 . S
C1673 C1672 1.377 . S
C1673 C1674 1.379 . S
C1674 H1658 0.931 . S
C1674 C1668 1.383 . S
C1674 C1673 1.379 . S
H1675 C1669 0.959 . S
H1676 C1669 0.961 . S
H1677 C1669 0.960 . S
H1678 C1670 0.930 . S
H1679 C1671 0.929 . S
H1680 C1688 0.929 . S
H1681 C1690 0.930 . S
H1682 C1692 0.930 . S
H1683 C1695 0.929 . S
H1684 C1698 0.930 . S
H1685 C1700 0.960 . S
H1686 C1700 0.960 . S
H1687 C1700 0.960 . S
C1688 H1680 0.929 . S
C1688 C1689 1.377 . S
C1688 C1690 1.384 . S
C1689 C1688 1.377 . S
C1689 C1695 1.390 . S
C1690 H1681 0.930 . S
C1690 C1688 1.384 . S
C1690 C1691 1.372 . S
C1691 C1690 1.372 . S
C1691 C1692 1.400 . S
C1691 C1696 1.490 . S
C1692 H1682 0.930 . S
C1692 C1691 1.400 . S
C1692 C1695 1.386 . S
H1693 C1709 0.930 . S
H1694 C1710 0.931 . S
C1695 H1683 0.929 . S
C1695 C1689 1.390 . S
C1695 C1692 1.386 . S
C1696 C1691 1.490 . S
C1696 C1698 1.395 . S
C1696 C1699 1.403 . S
H1697 C1703 0.930 . S
C1698 H1684 0.930 . S
C1698 C1696 1.395 . S
C1698 C1701 1.403 . S
C1699 C1696 1.403 . S
C1699 C1700 1.524 . S
C1699 C1703 1.400 . S
C1700 H1685 0.960 . S
C1700 H1686 0.960 . S
C1700 H1687 0.960 . S
C1700 C1699 1.524 . S
C1701 C1698 1.403 . S
C1701 C1702 1.392 . S
C1701 C1705 1.495 . S
C1702 C1701 1.392 . S
C1702 C1703 1.385 . S
C1702 C1704 1.478 . S
C1703 H1697 0.930 . S
C1703 C1699 1.400 . S
C1703 C1702 1.385 . S
C1704 C1702 1.478 . S
C1704 C1706 1.381 . S
C1704 C1710 1.383 . S
C1705 C1701 1.495 . S
C1705 H1711 0.959 . S
C1705 H1712 0.961 . S
C1705 H1713 0.960 . S
C1706 C1704 1.381 . S
C1706 C1707 1.394 . S
C1706 H1714 0.930 . S
C1707 C1706 1.394 . S
C1707 C1708 1.383 . S
C1707 H1715 0.929 . S
C1708 C1707 1.383 . S
C1708 C1709 1.377 . S
C1709 H1693 0.930 . S
C1709 C1708 1.377 . S
C1709 C1710 1.379 . S
C1710 H1694 0.931 . S
C1710 C1704 1.383 . S
C1710 C1709 1.379 . S
H1711 C1705 0.959 . S
H1712 C1705 0.961 . S
H1713 C1705 0.960 . S
H1714 C1706 0.930 . S
H1715 C1707 0.929 . S
H1716 C1724 0.929 . S
H1717 C1726 0.930 . S
H1718 C1728 0.930 . S
H1719 C1731 0.929 . S
H1720 C1734 0.930 . S
H1721 C1736 0.960 . S
H1722 C1736 0.960 . S
H1723 C1736 0.960 . S
C1724 H1716 0.929 . S
C1724 C1725 1.377 . S
C1724 C1726 1.384 . S
C1725 C1724 1.377 . S
C1725 C1731 1.390 . S
C1726 H1717 0.930 . S
C1726 C1724 1.384 . S
C1726 C1727 1.372 . S
C1727 C1726 1.372 . S
C1727 C1728 1.400 . S
C1727 C1732 1.490 . S
C1728 H1718 0.930 . S
C1728 C1727 1.400 . S
C1728 C1731 1.386 . S
H1729 C1745 0.930 . S
H1730 C1746 0.931 . S
C1731 H1719 0.929 . S
C1731 C1725 1.390 . S
C1731 C1728 1.386 . S
C1732 C1727 1.490 . S
C1732 C1734 1.395 . S
C1732 C1735 1.403 . S
H1733 C1739 0.930 . S
C1734 H1720 0.930 . S
C1734 C1732 1.395 . S
C1734 C1737 1.403 . S
C1735 C1732 1.403 . S
C1735 C1736 1.524 . S
C1735 C1739 1.400 . S
C1736 H1721 0.960 . S
C1736 H1722 0.960 . S
C1736 H1723 0.960 . S
C1736 C1735 1.524 . S
C1737 C1734 1.403 . S
C1737 C1738 1.392 . S
C1737 C1741 1.495 . S
C1738 C1737 1.392 . S
C1738 C1739 1.385 . S
C1738 C1740 1.478 . S
C1739 H1733 0.930 . S
C1739 C1735 1.400 . S
C1739 C1738 1.385 . S
C1740 C1738 1.478 . S
C1740 C1742 1.381 . S
C1740 C1746 1.383 . S
C1741 C1737 1.495 . S
C1741 H1747 0.959 . S
C1741 H1748 0.961 . S
C1741 H1749 0.960 . S
C1742 C1740 1.381 . S
C1742 C1743 1.394 . S
C1742 H1750 0.930 . S
C1743 C1742 1.394 . S
C1743 C1744 1.383 . S
C1743 H1751 0.929 . S
C1744 C1743 1.383 . S
C1744 C1745 1.377 . S
C1745 H1729 0.930 . S
C1745 C1744 1.377 . S
C1745 C1746 1.379 . S
C1746 H1730 0.931 . S
C1746 C1740 1.383 . S
C1746 C1745 1.379 . S
H1747 C1741 0.959 . S
H1748 C1741 0.961 . S
H1749 C1741 0.960 . S
H1750 C1742 0.930 . S
H1751 C1743 0.929 . S
H1752 C1760 0.929 . S
H1753 C1762 0.930 . S
H1754 C1764 0.930 . S
H1755 C1767 0.929 1_655 S
H1756 C1770 0.930 . S
H1757 C1772 0.960 . S
H1758 C1772 0.960 . S
H1759 C1772 0.960 . S
C1760 H1752 0.929 . S
C1760 C1761 1.377 . S
C1760 C1762 1.384 . S
C1761 C1760 1.377 . S
C1761 C1767 1.390 . S
C1762 H1753 0.930 . S
C1762 C1760 1.384 . S
C1762 C1763 1.372 . S
C1763 C1762 1.372 . S
C1763 C1764 1.400 . S
C1763 C1768 1.490 . S
C1764 H1754 0.930 . S
C1764 C1763 1.400 . S
C1764 C1767 1.386 . S
H1765 C1781 0.930 . S
H1766 C1782 0.931 . S
C1767 H1755 0.929 1_455 S
C1767 C1761 1.390 . S
C1767 C1764 1.386 . S
C1768 C1763 1.490 . S
C1768 C1770 1.395 . S
C1768 C1771 1.403 . S
H1769 C1775 0.930 . S
C1770 H1756 0.930 . S
C1770 C1768 1.395 . S
C1770 C1773 1.403 . S
C1771 C1768 1.403 . S
C1771 C1772 1.524 . S
C1771 C1775 1.400 . S
C1772 H1757 0.960 . S
C1772 H1758 0.960 . S
C1772 H1759 0.960 . S
C1772 C1771 1.524 . S
C1773 C1770 1.403 . S
C1773 C1774 1.392 . S
C1773 C1777 1.495 . S
C1774 C1773 1.392 . S
C1774 C1775 1.385 . S
C1774 C1776 1.478 . S
C1775 H1769 0.930 . S
C1775 C1771 1.400 . S
C1775 C1774 1.385 . S
C1776 C1774 1.478 . S
C1776 C1778 1.381 . S
C1776 C1782 1.383 . S
C1777 C1773 1.495 . S
C1777 H1783 0.959 . S
C1777 H1784 0.961 . S
C1777 H1785 0.960 . S
C1778 C1776 1.381 . S
C1778 C1779 1.394 . S
C1778 H1786 0.930 . S
C1779 C1778 1.394 . S
C1779 C1780 1.383 . S
C1779 H1787 0.929 . S
C1780 C1779 1.383 . S
C1780 C1781 1.377 . S
C1781 H1765 0.930 . S
C1781 C1780 1.377 . S
C1781 C1782 1.379 . S
C1782 H1766 0.931 . S
C1782 C1776 1.383 . S
C1782 C1781 1.379 . S
H1783 C1777 0.959 . S
H1784 C1777 0.961 . S
H1785 C1777 0.960 . S
H1786 C1778 0.930 . S
H1787 C1779 0.929 . S
H1788 C1796 0.929 . S
H1789 C1798 0.930 . S
H1790 C1800 0.930 . S
H1791 C1803 0.929 . S
H1792 C1806 0.930 . S
H1793 C1808 0.960 . S
H1794 C1808 0.960 . S
H1795 C1808 0.960 . S
C1796 H1788 0.929 . S
C1796 C1797 1.377 . S
C1796 C1798 1.384 . S
C1797 C1796 1.377 . S
C1797 C1803 1.390 . S
C1798 H1789 0.930 . S
C1798 C1796 1.384 . S
C1798 C1799 1.372 . S
C1799 C1798 1.372 . S
C1799 C1800 1.400 . S
C1799 C1804 1.490 . S
C1800 H1790 0.930 . S
C1800 C1799 1.400 . S
C1800 C1803 1.386 . S
H1801 C1817 0.930 . S
H1802 C1818 0.931 . S
C1803 H1791 0.929 . S
C1803 C1797 1.390 . S
C1803 C1800 1.386 . S
C1804 C1799 1.490 . S
C1804 C1806 1.395 . S
C1804 C1807 1.403 . S
H1805 C1811 0.930 . S
C1806 H1792 0.930 . S
C1806 C1804 1.395 . S
C1806 C1809 1.403 . S
C1807 C1804 1.403 . S
C1807 C1808 1.524 . S
C1807 C1811 1.400 . S
C1808 H1793 0.960 . S
C1808 H1794 0.960 . S
C1808 H1795 0.960 . S
C1808 C1807 1.524 . S
C1809 C1806 1.403 . S
C1809 C1810 1.392 . S
C1809 C1813 1.495 . S
C1810 C1809 1.392 . S
C1810 C1811 1.385 . S
C1810 C1812 1.478 . S
C1811 H1805 0.930 . S
C1811 C1807 1.400 . S
C1811 C1810 1.385 . S
C1812 C1810 1.478 . S
C1812 C1814 1.381 . S
C1812 C1818 1.383 . S
C1813 C1809 1.495 . S
C1813 H1819 0.959 . S
C1813 H1820 0.961 . S
C1813 H1821 0.960 . S
C1814 C1812 1.381 . S
C1814 C1815 1.394 . S
C1814 H1822 0.930 . S
C1815 C1814 1.394 . S
C1815 C1816 1.383 . S
C1815 H1823 0.929 . S
C1816 C1815 1.383 . S
C1816 C1817 1.377 . S
C1817 H1801 0.930 . S
C1817 C1816 1.377 . S
C1817 C1818 1.379 . S
C1818 H1802 0.931 . S
C1818 C1812 1.383 . S
C1818 C1817 1.379 . S
H1819 C1813 0.959 . S
H1820 C1813 0.961 . S
H1821 C1813 0.960 . S
H1822 C1814 0.930 . S
H1823 C1815 0.929 . S
H1824 C1832 0.929 . S
H1825 C1834 0.930 . S
H1826 C1836 0.930 . S
H1827 C1839 0.929 . S
H1828 C1842 0.930 . S
H1829 C1844 0.960 . S
H1830 C1844 0.960 . S
H1831 C1844 0.960 . S
C1832 H1824 0.929 . S
C1832 C1833 1.377 . S
C1832 C1834 1.384 . S
C1833 C1832 1.377 . S
C1833 C1839 1.390 . S
C1834 H1825 0.930 . S
C1834 C1832 1.384 . S
C1834 C1835 1.372 . S
C1835 C1834 1.372 . S
C1835 C1836 1.400 . S
C1835 C1840 1.490 . S
C1836 H1826 0.930 . S
C1836 C1835 1.400 . S
C1836 C1839 1.386 . S
H1837 C1853 0.930 . S
H1838 C1854 0.931 . S
C1839 H1827 0.929 . S
C1839 C1833 1.390 . S
C1839 C1836 1.386 . S
C1840 C1835 1.490 . S
C1840 C1842 1.395 . S
C1840 C1843 1.403 . S
H1841 C1847 0.930 . S
C1842 H1828 0.930 . S
C1842 C1840 1.395 . S
C1842 C1845 1.403 . S
C1843 C1840 1.403 . S
C1843 C1844 1.524 . S
C1843 C1847 1.400 . S
C1844 H1829 0.960 . S
C1844 H1830 0.960 . S
C1844 H1831 0.960 . S
C1844 C1843 1.524 . S
C1845 C1842 1.403 . S
C1845 C1846 1.392 . S
C1845 C1849 1.495 . S
C1846 C1845 1.392 . S
C1846 C1847 1.385 . S
C1846 C1848 1.478 . S
C1847 H1841 0.930 . S
C1847 C1843 1.400 . S
C1847 C1846 1.385 . S
C1848 C1846 1.478 . S
C1848 C1850 1.381 . S
C1848 C1854 1.383 . S
C1849 C1845 1.495 . S
C1849 H1855 0.959 . S
C1849 H1856 0.961 . S
C1849 H1857 0.960 . S
C1850 C1848 1.381 . S
C1850 C1851 1.394 . S
C1850 H1858 0.930 . S
C1851 C1850 1.394 . S
C1851 C1852 1.383 . S
C1851 H1859 0.929 . S
C1852 C1851 1.383 . S
C1852 C1853 1.377 . S
C1853 H1837 0.930 . S
C1853 C1852 1.377 . S
C1853 C1854 1.379 . S
C1854 H1838 0.931 . S
C1854 C1848 1.383 . S
C1854 C1853 1.379 . S
H1855 C1849 0.959 . S
H1856 C1849 0.961 . S
H1857 C1849 0.960 . S
H1858 C1850 0.930 . S
H1859 C1851 0.929 . S
H1860 C1868 0.929 . S
H1861 C1870 0.930 . S
H1862 C1872 0.930 . S
H1863 C1875 0.929 . S
H1864 C1878 0.930 . S
H1865 C1880 0.960 . S
H1866 C1880 0.960 . S
H1867 C1880 0.960 . S
C1868 H1860 0.929 . S
C1868 C1869 1.377 . S
C1868 C1870 1.384 . S
C1869 C1868 1.377 . S
C1869 C1875 1.390 . S
C1870 H1861 0.930 . S
C1870 C1868 1.384 . S
C1870 C1871 1.372 . S
C1871 C1870 1.372 . S
C1871 C1872 1.400 . S
C1871 C1876 1.490 . S
C1872 H1862 0.930 . S
C1872 C1871 1.400 . S
C1872 C1875 1.386 . S
H1873 C1889 0.930 . S
H1874 C1890 0.931 . S
C1875 H1863 0.929 . S
C1875 C1869 1.390 . S
C1875 C1872 1.386 . S
C1876 C1871 1.490 . S
C1876 C1878 1.395 . S
C1876 C1879 1.403 . S
H1877 C1883 0.930 . S
C1878 H1864 0.930 . S
C1878 C1876 1.395 . S
C1878 C1881 1.403 . S
C1879 C1876 1.403 . S
C1879 C1880 1.524 . S
C1879 C1883 1.400 . S
C1880 H1865 0.960 . S
C1880 H1866 0.960 . S
C1880 H1867 0.960 . S
C1880 C1879 1.524 . S
C1881 C1878 1.403 . S
C1881 C1882 1.392 . S
C1881 C1885 1.495 . S
C1882 C1881 1.392 . S
C1882 C1883 1.385 . S
C1882 C1884 1.478 . S
C1883 H1877 0.930 . S
C1883 C1879 1.400 . S
C1883 C1882 1.385 . S
C1884 C1882 1.478 . S
C1884 C1886 1.381 . S
C1884 C1890 1.383 . S
C1885 C1881 1.495 . S
C1885 H1891 0.959 . S
C1885 H1892 0.961 . S
C1885 H1893 0.960 . S
C1886 C1884 1.381 . S
C1886 C1887 1.394 . S
C1886 H1894 0.930 . S
C1887 C1886 1.394 . S
C1887 C1888 1.383 . S
C1887 H1895 0.929 . S
C1888 C1887 1.383 . S
C1888 C1889 1.377 . S
C1889 H1873 0.930 . S
C1889 C1888 1.377 . S
C1889 C1890 1.379 . S
C1890 H1874 0.931 . S
C1890 C1884 1.383 . S
C1890 C1889 1.379 . S
H1891 C1885 0.959 . S
H1892 C1885 0.961 . S
H1893 C1885 0.960 . S
H1894 C1886 0.930 . S
H1895 C1887 0.929 . S
H1896 C1904 0.929 . S
H1897 C1906 0.930 . S
H1898 C1908 0.930 . S
H1899 C1911 0.929 . S
H1900 C1914 0.930 . S
H1901 C1916 0.960 . S
H1902 C1916 0.960 . S
H1903 C1916 0.960 . S
C1904 H1896 0.929 . S
C1904 C1905 1.377 . S
C1904 C1906 1.384 . S
C1905 C1904 1.377 . S
C1905 C1911 1.390 . S
C1906 H1897 0.930 . S
C1906 C1904 1.384 . S
C1906 C1907 1.372 . S
C1907 C1906 1.372 . S
C1907 C1908 1.400 . S
C1907 C1912 1.490 . S
C1908 H1898 0.930 . S
C1908 C1907 1.400 . S
C1908 C1911 1.386 . S
H1909 C1925 0.930 . S
H1910 C1926 0.931 . S
C1911 H1899 0.929 . S
C1911 C1905 1.390 . S
C1911 C1908 1.386 . S
C1912 C1907 1.490 . S
C1912 C1914 1.395 . S
C1912 C1915 1.403 . S
H1913 C1919 0.930 . S
C1914 H1900 0.930 . S
C1914 C1912 1.395 . S
C1914 C1917 1.403 . S
C1915 C1912 1.403 . S
C1915 C1916 1.524 . S
C1915 C1919 1.400 . S
C1916 H1901 0.960 . S
C1916 H1902 0.960 . S
C1916 H1903 0.960 . S
C1916 C1915 1.524 . S
C1917 C1914 1.403 . S
C1917 C1918 1.392 . S
C1917 C1921 1.495 . S
C1918 C1917 1.392 . S
C1918 C1919 1.385 . S
C1918 C1920 1.478 . S
C1919 H1913 0.930 . S
C1919 C1915 1.400 . S
C1919 C1918 1.385 . S
C1920 C1918 1.478 . S
C1920 C1922 1.381 . S
C1920 C1926 1.383 . S
C1921 C1917 1.495 . S
C1921 H1927 0.959 . S
C1921 H1928 0.961 . S
C1921 H1929 0.960 . S
C1922 C1920 1.381 . S
C1922 C1923 1.394 . S
C1922 H1930 0.930 . S
C1923 C1922 1.394 . S
C1923 C1924 1.383 . S
C1923 H1931 0.929 . S
C1924 C1923 1.383 . S
C1924 C1925 1.377 . S
C1925 H1909 0.930 . S
C1925 C1924 1.377 . S
C1925 C1926 1.379 . S
C1926 H1910 0.931 . S
C1926 C1920 1.383 . S
C1926 C1925 1.379 . S
H1927 C1921 0.959 . S
H1928 C1921 0.961 . S
H1929 C1921 0.960 . S
H1930 C1922 0.930 . S
H1931 C1923 0.929 . S
H1932 C1940 0.929 . S
H1933 C1942 0.930 . S
H1934 C1944 0.930 . S
H1935 C1947 0.929 . S
H1936 C1950 0.930 . S
H1937 C1952 0.960 . S
H1938 C1952 0.960 . S
H1939 C1952 0.960 . S
C1940 H1932 0.929 . S
C1940 C1941 1.377 . S
C1940 C1942 1.384 . S
C1941 C1940 1.377 . S
C1941 C1947 1.390 . S
C1942 H1933 0.930 . S
C1942 C1940 1.384 . S
C1942 C1943 1.372 . S
C1943 C1942 1.372 . S
C1943 C1944 1.400 . S
C1943 C1948 1.490 . S
C1944 H1934 0.930 . S
C1944 C1943 1.400 . S
C1944 C1947 1.386 . S
H1945 C1961 0.930 . S
H1946 C1962 0.931 . S
C1947 H1935 0.929 . S
C1947 C1941 1.390 . S
C1947 C1944 1.386 . S
C1948 C1943 1.490 . S
C1948 C1950 1.395 . S
C1948 C1951 1.403 . S
H1949 C1955 0.930 . S
C1950 H1936 0.930 . S
C1950 C1948 1.395 . S
C1950 C1953 1.403 . S
C1951 C1948 1.403 . S
C1951 C1952 1.524 . S
C1951 C1955 1.400 . S
C1952 H1937 0.960 . S
C1952 H1938 0.960 . S
C1952 H1939 0.960 . S
C1952 C1951 1.524 . S
C1953 C1950 1.403 . S
C1953 C1954 1.392 . S
C1953 C1957 1.495 . S
C1954 C1953 1.392 . S
C1954 C1955 1.385 . S
C1954 C1956 1.478 . S
C1955 H1949 0.930 . S
C1955 C1951 1.400 . S
C1955 C1954 1.385 . S
C1956 C1954 1.478 . S
C1956 C1958 1.381 . S
C1956 C1962 1.383 . S
C1957 C1953 1.495 . S
C1957 H1963 0.959 . S
C1957 H1964 0.961 . S
C1957 H1965 0.960 . S
C1958 C1956 1.381 . S
C1958 C1959 1.394 . S
C1958 H1966 0.930 . S
C1959 C1958 1.394 . S
C1959 C1960 1.383 . S
C1959 H1967 0.929 . S
C1960 C1959 1.383 . S
C1960 C1961 1.377 . S
C1961 H1945 0.930 . S
C1961 C1960 1.377 . S
C1961 C1962 1.379 . S
C1962 H1946 0.931 . S
C1962 C1956 1.383 . S
C1962 C1961 1.379 . S
H1963 C1957 0.959 . S
H1964 C1957 0.961 . S
H1965 C1957 0.960 . S
H1966 C1958 0.930 . S
H1967 C1959 0.929 . S
H1968 C1976 0.929 . S
H1969 C1978 0.930 . S
H1970 C1980 0.930 . S
H1971 C1983 0.929 . S
H1972 C1986 0.930 . S
H1973 C1988 0.960 . S
H1974 C1988 0.960 . S
H1975 C1988 0.960 . S
C1976 H1968 0.929 . S
C1976 C1977 1.377 . S
C1976 C1978 1.384 . S
C1977 C1976 1.377 . S
C1977 C1983 1.390 . S
C1978 H1969 0.930 . S
C1978 C1976 1.384 . S
C1978 C1979 1.372 . S
C1979 C1978 1.372 . S
C1979 C1980 1.400 . S
C1979 C1984 1.490 . S
C1980 H1970 0.930 . S
C1980 C1979 1.400 . S
C1980 C1983 1.386 . S
H1981 C1997 0.930 . S
H1982 C1998 0.931 . S
C1983 H1971 0.929 . S
C1983 C1977 1.390 . S
C1983 C1980 1.386 . S
C1984 C1979 1.490 . S
C1984 C1986 1.395 . S
C1984 C1987 1.403 . S
H1985 C1991 0.930 . S
C1986 H1972 0.930 . S
C1986 C1984 1.395 . S
C1986 C1989 1.403 . S
C1987 C1984 1.403 . S
C1987 C1988 1.524 . S
C1987 C1991 1.400 . S
C1988 H1973 0.960 . S
C1988 H1974 0.960 . S
C1988 H1975 0.960 . S
C1988 C1987 1.524 . S
C1989 C1986 1.403 . S
C1989 C1990 1.392 . S
C1989 C1993 1.495 . S
C1990 C1989 1.392 . S
C1990 C1991 1.385 . S
C1990 C1992 1.478 . S
C1991 H1985 0.930 . S
C1991 C1987 1.400 . S
C1991 C1990 1.385 . S
C1992 C1990 1.478 . S
C1992 C1994 1.381 . S
C1992 C1998 1.383 . S
C1993 C1989 1.495 . S
C1993 H1999 0.959 . S
C1993 H2000 0.961 . S
C1993 H2001 0.960 . S
C1994 C1992 1.381 . S
C1994 C1995 1.394 . S
C1994 H2002 0.930 . S
C1995 C1994 1.394 . S
C1995 C1996 1.383 . S
C1995 H2003 0.929 . S
C1996 C1995 1.383 . S
C1996 C1997 1.377 . S
C1997 H1981 0.930 . S
C1997 C1996 1.377 . S
C1997 C1998 1.379 . S
C1998 H1982 0.931 . S
C1998 C1992 1.383 . S
C1998 C1997 1.379 . S
H1999 C1993 0.959 . S
H2000 C1993 0.961 . S
H2001 C1993 0.960 . S
H2002 C1994 0.930 . S
H2003 C1995 0.929 . S
H2004 C2012 0.929 . S
H2005 C2014 0.930 . S
H2006 C2016 0.930 . S
H2007 C2019 0.929 . S
H2008 C2022 0.930 . S
H2009 C2024 0.960 . S
H2010 C2024 0.960 . S
H2011 C2024 0.960 . S
C2012 H2004 0.929 . S
C2012 C2013 1.377 . S
C2012 C2014 1.384 . S
C2013 C2012 1.377 . S
C2013 C2019 1.390 . S
C2014 H2005 0.930 . S
C2014 C2012 1.384 . S
C2014 C2015 1.372 . S
C2015 C2014 1.372 . S
C2015 C2016 1.400 . S
C2015 C2020 1.490 . S
C2016 H2006 0.930 . S
C2016 C2015 1.400 . S
C2016 C2019 1.386 . S
H2017 C2033 0.930 . S
H2018 C2034 0.931 . S
C2019 H2007 0.929 . S
C2019 C2013 1.390 . S
C2019 C2016 1.386 . S
C2020 C2015 1.490 . S
C2020 C2022 1.395 . S
C2020 C2023 1.403 . S
H2021 C2027 0.930 . S
C2022 H2008 0.930 . S
C2022 C2020 1.395 . S
C2022 C2025 1.403 . S
C2023 C2020 1.403 . S
C2023 C2024 1.524 . S
C2023 C2027 1.400 . S
C2024 H2009 0.960 . S
C2024 H2010 0.960 . S
C2024 H2011 0.960 . S
C2024 C2023 1.524 . S
C2025 C2022 1.403 . S
C2025 C2026 1.392 . S
C2025 C2029 1.495 . S
C2026 C2025 1.392 . S
C2026 C2027 1.385 . S
C2026 C2028 1.478 . S
C2027 H2021 0.930 . S
C2027 C2023 1.400 . S
C2027 C2026 1.385 . S
C2028 C2026 1.478 . S
C2028 C2030 1.381 . S
C2028 C2034 1.383 . S
C2029 C2025 1.495 . S
C2029 H2035 0.959 . S
C2029 H2036 0.961 . S
C2029 H2037 0.960 . S
C2030 C2028 1.381 . S
C2030 C2031 1.394 . S
C2030 H2038 0.930 . S
C2031 C2030 1.394 . S
C2031 C2032 1.383 . S
C2031 H2039 0.929 . S
C2032 C2031 1.383 . S
C2032 C2033 1.377 . S
C2033 H2017 0.930 . S
C2033 C2032 1.377 . S
C2033 C2034 1.379 . S
C2034 H2018 0.931 . S
C2034 C2028 1.383 . S
C2034 C2033 1.379 . S
H2035 C2029 0.959 . S
H2036 C2029 0.961 . S
H2037 C2029 0.960 . S
H2038 C2030 0.930 . S
H2039 C2031 0.929 . S
C321 C187 1.996 . S
C340 C4 1.991 . S
C357 C16 1.996 . S
C376 C199 1.990 . S
C393 C239 2.004 . S
C412 C31 2.000 . S
C429 C49 1.978 . S
C448 C173 1.973 . S
C465 C186 1.978 . S
C484 C62 1.972 . S
C501 C68 2.004 . S
C520 C200 2.002 . S
C537 C81 1.996 . S
C556 C238 1.990 . S
C573 C101 1.997 . S
C592 C174 1.994 . S
C609 C120 1.997 . S
C628 C114 1.994 . S
C645 C134 1.978 . S
C664 C127 1.975 . S
C681 C135 1.997 . S
C700 C147 1.994 . S
C717 C148 2.004 . S
C736 C107 2.002 . S
C753 C160 1.997 . S
C772 C42 1.994 . S
C789 C55 1.997 . S
C808 C212 1.994 . S
C825 C225 1.977 . S
C844 C23 1.972 . S
C861 C17 1.120 . S
C880 C283 1.117 . S
C897 C121 1.120 . S
C916 C10 1.117 . S
C933 C302 1.125 . S
C952 C44 1.120 . S
C969 C146 1.139 . S
C988 C29 1.138 . S
C1005 C276 1.139 . S
C1024 C96 1.138 . S
C1041 C122 1.123 . S
C1060 C83 1.120 . S
C1077 C69 1.120 . S
C1096 C309 1.117 . S
C1113 C56 1.120 . S
C1132 C153 1.118 . S
C1149 C205 1.120 . S
C1168 C257 1.118 . S
C1185 C211 1.137 . S
C1204 C198 1.134 . S
C1221 C179 1.120 . S
C1240 C218 1.116 . S
C1257 C250 1.125 . S
C1276 C172 1.124 . S
C1293 C36 1.120 . S
C1312 C264 1.117 . S
C1329 C140 1.120 . S
C1348 C95 1.117 . S
C1365 C3 1.138 . S
C1384 C289 1.139 . S
C1401 C252 1.997 . S
C1420 C30 1.990 . S
C1437 C5 2.004 . S
C1456 C213 2.001 . S
C1473 C251 1.978 . S
C1492 C88 1.975 . S
C1509 C161 2.004 . S
C1528 C94 2.000 . S
C1545 C75 1.997 . S
C1564 C226 1.992 . S
C1581 C277 1.997 . S
C1600 C263 1.992 . S
C1617 C303 1.978 . S
C1636 C270 1.975 . S
C1653 C290 1.996 . S
C1672 C304 1.994 . S
C1689 C278 2.004 . S
C1708 C291 2.002 . S
C1725 C108 1.120 . S
C1744 C43 1.117 . S
C1761 C18 1.124 . S
C1780 C133 1.118 . S
C1797 C70 1.137 . S
C1816 C109 1.136 . S
C1833 C265 1.123 . S
C1852 C57 1.123 . S
C1869 C82 1.120 . S
C1888 C296 1.119 . S
C1905 C166 1.120 . S
C1924 C192 1.118 . S
C1941 C237 1.138 . S
C1960 C159 1.133 . S
C1977 C231 1.120 . S
C1996 C244 1.117 . S
C2013 C185 1.123 . S
C2032 C224 1.121 . S
