# Generated by pormake.
# Topology umh, (4)-cn, num edge types: 1
# Building blocks:
#     Node 0, Type 0, BuildingBlock: NAWXER_clean_sbu_0, # of connection points: 4
#     Node 1, Type 0, BuildingBlock: NAWXER_clean_sbu_0, # of connection points: 4
#     Node 2, Type 0, BuildingBlock: NAWXER_clean_sbu_0, # of connection points: 4
#     Node 3, Type 0, BuildingBlock: NAWXER_clean_sbu_0, # of connection points: 4
#     Node 4, Type 0, BuildingBlock: NAWXER_clean_sbu_0, # of connection points: 4
#     Node 5, Type 0, BuildingBlock: NAWXER_clean_sbu_0, # of connection points: 4
#     Node 6, Type 0, BuildingBlock: NAWXER_clean_sbu_0, # of connection points: 4
#     Node 7, Type 0, BuildingBlock: NAWXER_clean_sbu_0, # of connection points: 4
#     Node 8, Type 0, BuildingBlock: NAWXER_clean_sbu_0, # of connection points: 4
#     Node 9, Type 0, BuildingBlock: NAWXER_clean_sbu_0, # of connection points: 4
#     Node 10, Type 0, BuildingBlock: NAWXER_clean_sbu_0, # of connection points: 4
#     Node 11, Type 0, BuildingBlock: NAWXER_clean_sbu_0, # of connection points: 4
#     Node 12, Type 0, BuildingBlock: NAWXER_clean_sbu_0, # of connection points: 4
#     Node 13, Type 0, BuildingBlock: NAWXER_clean_sbu_0, # of connection points: 4
#     Node 14, Type 0, BuildingBlock: NAWXER_clean_sbu_0, # of connection points: 4
#     Node 15, Type 0, BuildingBlock: NAWXER_clean_sbu_0, # of connection points: 4
#     Edge 16, Type (0, 0), BuildingBlock: EZIPEK_clean_linker_0, # of connection points: 2
#     Edge 17, Type (0, 0), BuildingBlock: EZIPEK_clean_linker_0, # of connection points: 2
#     Edge 18, Type (0, 0), BuildingBlock: EZIPEK_clean_linker_0, # of connection points: 2
#     Edge 19, Type (0, 0), BuildingBlock: EZIPEK_clean_linker_0, # of connection points: 2
#     Edge 20, Type (0, 0), BuildingBlock: EZIPEK_clean_linker_0, # of connection points: 2
#     Edge 21, Type (0, 0), BuildingBlock: EZIPEK_clean_linker_0, # of connection points: 2
#     Edge 22, Type (0, 0), BuildingBlock: EZIPEK_clean_linker_0, # of connection points: 2
#     Edge 23, Type (0, 0), BuildingBlock: EZIPEK_clean_linker_0, # of connection points: 2
#     Edge 24, Type (0, 0), BuildingBlock: EZIPEK_clean_linker_0, # of connection points: 2
#     Edge 25, Type (0, 0), BuildingBlock: EZIPEK_clean_linker_0, # of connection points: 2
#     Edge 26, Type (0, 0), BuildingBlock: EZIPEK_clean_linker_0, # of connection points: 2
#     Edge 27, Type (0, 0), BuildingBlock: EZIPEK_clean_linker_0, # of connection points: 2
#     Edge 28, Type (0, 0), BuildingBlock: EZIPEK_clean_linker_0, # of connection points: 2
#     Edge 29, Type (0, 0), BuildingBlock: EZIPEK_clean_linker_0, # of connection points: 2
#     Edge 30, Type (0, 0), BuildingBlock: EZIPEK_clean_linker_0, # of connection points: 2
#     Edge 31, Type (0, 0), BuildingBlock: EZIPEK_clean_linker_0, # of connection points: 2
#     Edge 32, Type (0, 0), BuildingBlock: EZIPEK_clean_linker_0, # of connection points: 2
#     Edge 33, Type (0, 0), BuildingBlock: EZIPEK_clean_linker_0, # of connection points: 2
#     Edge 34, Type (0, 0), BuildingBlock: EZIPEK_clean_linker_0, # of connection points: 2
#     Edge 35, Type (0, 0), BuildingBlock: EZIPEK_clean_linker_0, # of connection points: 2
#     Edge 36, Type (0, 0), BuildingBlock: EZIPEK_clean_linker_0, # of connection points: 2
#     Edge 37, Type (0, 0), BuildingBlock: EZIPEK_clean_linker_0, # of connection points: 2
#     Edge 38, Type (0, 0), BuildingBlock: EZIPEK_clean_linker_0, # of connection points: 2
#     Edge 39, Type (0, 0), BuildingBlock: EZIPEK_clean_linker_0, # of connection points: 2
#     Edge 40, Type (0, 0), BuildingBlock: EZIPEK_clean_linker_0, # of connection points: 2
#     Edge 41, Type (0, 0), BuildingBlock: EZIPEK_clean_linker_0, # of connection points: 2
#     Edge 42, Type (0, 0), BuildingBlock: EZIPEK_clean_linker_0, # of connection points: 2
#     Edge 43, Type (0, 0), BuildingBlock: EZIPEK_clean_linker_0, # of connection points: 2
#     Edge 44, Type (0, 0), BuildingBlock: EZIPEK_clean_linker_0, # of connection points: 2
#     Edge 45, Type (0, 0), BuildingBlock: EZIPEK_clean_linker_0, # of connection points: 2
#     Edge 46, Type (0, 0), BuildingBlock: EZIPEK_clean_linker_0, # of connection points: 2
#     Edge 47, Type (0, 0), BuildingBlock: EZIPEK_clean_linker_0, # of connection points: 2
# Relax obj value: 0.044
# Max RMSD: 0.109
# Mean RMSD: 0.109
data_MOF--net-umh--node1-NAWXER_clean_sbu_0--edge1-EZIPEK_clean_linker_0
_symmetry_space_group_name_H-M    P1
_symmetry_Int_Tables_number       1
_symmetry_cell_setting            triclinic
loop_
_symmetry_equiv_pos_as_xyz
'x, y, z'
_cell_length_a     30.130082
_cell_length_b     30.05769
_cell_length_c     38.703737
_cell_angle_alpha  90.370254
_cell_angle_beta   89.662516
_cell_angle_gamma 90.065461
loop_
_atom_site_label
_atom_site_type_symbol
_atom_site_fract_x
_atom_site_fract_y
_atom_site_fract_z
_atom_type_partial_charge
C0 C 0.35514 0.10426 0.10289 0.0
C1 C 0.28562 0.0645 0.21431 0.0
O2 O 0.37436 0.12166 0.12912 0.0
Zn3 Zn 0.36626 0.12357 0.18423 0.0
O4 O 0.32253 0.07798 0.10771 0.0
Zn5 Zn 0.32089 0.08012 0.15816 0.0
O6 O 0.29798 0.14659 0.16622 0.0
O7 O 0.35075 0.18573 0.19164 0.0
O8 O 0.2764 0.04723 0.1851 0.0
O9 O 0.31774 0.09229 0.21673 0.0
O10 O 0.42239 0.10041 0.2005 0.0
O11 O 0.38265 0.05033 0.1722 0.0
C12 C 0.31188 0.18336 0.17901 0.0
C13 C 0.41816 0.0613 0.18826 0.0
C14 C 0.4307 0.30379 0.71812 0.0
C15 C 0.39182 0.36023 0.60334 0.0
O16 O 0.40044 0.33365 0.71884 0.0
Zn17 Zn 0.36756 0.37678 0.68346 0.0
O18 O 0.45011 0.29469 0.68965 0.0
Zn19 Zn 0.41472 0.33293 0.66002 0.0
O20 O 0.4396 0.3977 0.67092 0.0
O21 O 0.3867 0.43616 0.69708 0.0
O22 O 0.42073 0.33073 0.61008 0.0
O23 O 0.37024 0.3792 0.62796 0.0
O24 O 0.30704 0.35773 0.69129 0.0
O25 O 0.34941 0.30564 0.66738 0.0
C26 C 0.42595 0.43385 0.68498 0.0
C27 C 0.31192 0.31827 0.67973 0.0
C28 C 0.1887 0.44834 0.22274 0.0
C29 C 0.14512 0.40658 0.10369 0.0
O30 O 0.15995 0.41735 0.21933 0.0
Zn31 Zn 0.12302 0.38144 0.18199 0.0
O32 O 0.20346 0.46688 0.19545 0.0
Zn33 Zn 0.16843 0.43089 0.16248 0.0
O34 O 0.10143 0.45294 0.17176 0.0
O35 O 0.06255 0.39713 0.19377 0.0
O36 O 0.17498 0.43456 0.11228 0.0
O37 O 0.12312 0.38676 0.12736 0.0
O38 O 0.14499 0.32123 0.18851 0.0
O39 O 0.19725 0.36735 0.17072 0.0
C40 C 0.06489 0.43736 0.18392 0.0
C41 C 0.18523 0.32843 0.18004 0.0
C42 C 0.05956 0.06685 0.68845 0.0
C43 C 0.17178 0.18564 0.67942 0.0
O44 O 0.04517 0.10244 0.67441 0.0
Zn45 Zn 0.06872 0.16777 0.6633 0.0
O46 O 0.09902 0.06573 0.69996 0.0
Zn47 Zn 0.11741 0.12507 0.6853 0.0
O48 O 0.08494 0.16882 0.72155 0.0
O49 O 0.03287 0.2055 0.69394 0.0
O50 O 0.17844 0.14577 0.68918 0.0
O51 O 0.13281 0.19723 0.6701 0.0
O52 O 0.06394 0.16969 0.61311 0.0
O53 O 0.11312 0.12047 0.63035 0.0
C54 C 0.05382 0.19788 0.72177 0.0
C55 C 0.09264 0.1399 0.60585 0.0
C56 C 0.29836 0.43909 0.34446 0.0
C57 C 0.35056 0.40839 0.46244 0.0
O58 O 0.32626 0.40722 0.34638 0.0
Zn59 Zn 0.36319 0.37276 0.38455 0.0
O60 O 0.28895 0.46142 0.3716 0.0
Zn61 Zn 0.32551 0.42797 0.40409 0.0
O62 O 0.39176 0.4438 0.38859 0.0
O63 O 0.4241 0.3824 0.36942 0.0
O64 O 0.32621 0.44093 0.45356 0.0
O65 O 0.36592 0.38165 0.43943 0.0
O66 O 0.33492 0.31452 0.3815 0.0
O67 O 0.29079 0.36583 0.40374 0.0
C68 C 0.42584 0.42388 0.37602 0.0
C69 C 0.29731 0.3256 0.39407 0.0
C70 C 0.06436 0.4313 0.87457 0.0
C71 C 0.18074 0.31799 0.88375 0.0
O72 O 0.05094 0.39513 0.88836 0.0
Zn73 Zn 0.07807 0.33354 0.90428 0.0
O74 O 0.10471 0.43487 0.86517 0.0
Zn75 Zn 0.12468 0.37586 0.87908 0.0
O76 O 0.08947 0.33029 0.84583 0.0
O77 O 0.04273 0.29147 0.87798 0.0
O78 O 0.18497 0.3563 0.87021 0.0
O79 O 0.14355 0.30627 0.89715 0.0
O80 O 0.07295 0.33738 0.9543 0.0
O81 O 0.12581 0.38103 0.93429 0.0
C82 C 0.05988 0.29976 0.84857 0.0
C83 C 0.10389 0.36533 0.95989 0.0
C84 C 0.05792 0.06346 0.3748 0.0
C85 C 0.16655 0.18386 0.39096 0.0
O86 O 0.09546 0.05027 0.38612 0.0
Zn87 Zn 0.157 0.07789 0.40171 0.0
O88 O 0.05152 0.10467 0.36958 0.0
Zn89 Zn 0.11057 0.12566 0.38284 0.0
O90 O 0.15402 0.09652 0.34464 0.0
O91 O 0.19935 0.0495 0.37021 0.0
O92 O 0.12679 0.18795 0.38038 0.0
O93 O 0.18089 0.14514 0.39892 0.0
O94 O 0.15591 0.06646 0.45163 0.0
O95 O 0.11095 0.12064 0.43756 0.0
C96 C 0.18661 0.06909 0.3429 0.0
C97 C 0.12872 0.09677 0.46086 0.0
C98 C 0.31852 0.18438 0.88651 0.0
C99 C 0.43372 0.06993 0.87639 0.0
O100 O 0.35649 0.19711 0.89756 0.0
Zn101 Zn 0.4223 0.17029 0.90244 0.0
O102 O 0.31328 0.14494 0.87499 0.0
Zn103 Zn 0.37425 0.12613 0.88105 0.0
O104 O 0.37908 0.12453 0.93664 0.0
O105 O 0.4306 0.17317 0.95192 0.0
O106 O 0.39377 0.06718 0.86622 0.0
O107 O 0.44751 0.10601 0.89039 0.0
O108 O 0.45579 0.20893 0.87145 0.0
O109 O 0.40478 0.16961 0.84441 0.0
C110 C 0.40173 0.14413 0.96023 0.0
C111 C 0.43484 0.19971 0.84385 0.0
C112 C 0.64557 0.90515 0.95589 0.0
C113 C 0.69792 0.93139 0.83646 0.0
O114 O 0.67574 0.93233 0.94655 0.0
Zn115 Zn 0.67047 0.9236 0.89642 0.0
O116 O 0.62353 0.88407 0.93293 0.0
Zn117 Zn 0.62378 0.87523 0.87859 0.0
O118 O 0.64033 0.81321 0.87731 0.0
O119 O 0.69537 0.85749 0.89178 0.0
O120 O 0.66609 0.90311 0.83902 0.0
O121 O 0.71017 0.95289 0.86324 0.0
O122 O 0.60565 0.94894 0.88481 0.0
O123 O 0.56454 0.89276 0.8661 0.0
C124 C 0.68103 0.81838 0.88504 0.0
C125 C 0.56845 0.9337 0.87386 0.0
C126 C 0.59823 0.62877 0.44868 0.0
C127 C 0.56868 0.68227 0.33169 0.0
O128 O 0.57058 0.65842 0.43978 0.0
Zn129 Zn 0.58038 0.6538 0.39028 0.0
O130 O 0.62041 0.60754 0.42554 0.0
Zn131 Zn 0.62653 0.6069 0.37014 0.0
O132 O 0.68878 0.62173 0.36461 0.0
O133 O 0.64799 0.677 0.3852 0.0
O134 O 0.59652 0.64995 0.33235 0.0
O135 O 0.54986 0.69468 0.3596 0.0
O136 O 0.55266 0.5896 0.3783 0.0
O137 O 0.60694 0.54767 0.35762 0.0
C138 C 0.68566 0.66189 0.37489 0.0
C139 C 0.56654 0.55215 0.36644 0.0
C140 C 0.80626 0.67172 0.87834 0.0
C141 C 0.92703 0.56404 0.86602 0.0
O142 O 0.84431 0.679 0.86496 0.0
Zn143 Zn 0.86739 0.61908 0.86981 0.0
O144 O 0.7965 0.63273 0.88887 0.0
Zn145 Zn 0.82523 0.56818 0.89028 0.0
O146 O 0.82219 0.55855 0.93994 0.0
O147 O 0.86728 0.61354 0.92537 0.0
O148 O 0.89124 0.54744 0.8785 0.0
O149 O 0.92821 0.60462 0.85701 0.0
O150 O 0.82841 0.58619 0.83168 0.0
O151 O 0.78684 0.5363 0.85775 0.0
C152 C 0.8486 0.58976 0.9487 0.0
C153 C 0.79786 0.5567 0.83029 0.0
C154 C 0.82342 0.79589 0.37249 0.0
C155 C 0.93159 0.91808 0.36655 0.0
O156 O 0.81606 0.83456 0.36053 0.0
Zn157 Zn 0.87503 0.85822 0.36856 0.0
O158 O 0.86168 0.78597 0.38442 0.0
Zn159 Zn 0.92515 0.81707 0.39089 0.0
O160 O 0.93137 0.81925 0.44116 0.0
O161 O 0.87543 0.86013 0.42361 0.0
O162 O 0.94745 0.88131 0.3773 0.0
O163 O 0.89093 0.91997 0.35797 0.0
O164 O 0.91241 0.81808 0.33263 0.0
O165 O 0.96248 0.77983 0.36145 0.0
C166 C 0.8992 0.84532 0.44822 0.0
C167 C 0.94392 0.78942 0.33297 0.0
C168 C 0.68537 0.55301 0.70969 0.0
C169 C 0.64015 0.58692 0.5905 0.0
O170 O 0.69838 0.53258 0.68253 0.0
Zn171 Zn 0.66336 0.56741 0.6495 0.0
O172 O 0.65802 0.58518 0.70618 0.0
Zn173 Zn 0.62162 0.62027 0.66784 0.0
O174 O 0.56057 0.60894 0.6803 0.0
O175 O 0.59674 0.54879 0.66273 0.0
O176 O 0.62237 0.61257 0.61315 0.0
O177 O 0.66595 0.55583 0.59987 0.0
O178 O 0.69492 0.63149 0.65421 0.0
O179 O 0.64478 0.67928 0.67398 0.0
C180 C 0.56113 0.56748 0.67383 0.0
C181 C 0.68421 0.67083 0.66414 0.0
C182 C 0.94166 0.70226 0.20145 0.0
C183 C 0.89085 0.63902 0.09035 0.0
O184 O 0.95832 0.71089 0.1719 0.0
Zn185 Zn 0.91998 0.67095 0.14536 0.0
O186 O 0.91076 0.6731 0.20398 0.0
Zn187 Zn 0.872 0.63039 0.17149 0.0
O188 O 0.88978 0.57055 0.18508 0.0
O189 O 0.94448 0.60816 0.16098 0.0
O190 O 0.86915 0.6248 0.11655 0.0
O191 O 0.92295 0.66596 0.09498 0.0
O192 O 0.85648 0.70148 0.15411 0.0
O193 O 0.81356 0.65368 0.18213 0.0
C194 C 0.93003 0.57258 0.17508 0.0
C195 C 0.81938 0.69177 0.16857 0.0
C196 C 0.8602 0.89012 0.59232 0.0
C197 C 0.79742 0.927 0.70712 0.0
O198 O 0.82989 0.91835 0.59929 0.0
Zn199 Zn 0.83048 0.91389 0.64959 0.0
O200 O 0.88042 0.87116 0.61715 0.0
Zn201 Zn 0.8747 0.86672 0.67194 0.0
O202 O 0.85689 0.80472 0.67574 0.0
O203 O 0.8048 0.84819 0.6548 0.0
O204 O 0.82864 0.89797 0.70749 0.0
O205 O 0.7879 0.9463 0.67892 0.0
O206 O 0.89356 0.9405 0.66491 0.0
O207 O 0.93249 0.88585 0.68778 0.0
C208 C 0.81755 0.80972 0.66454 0.0
C209 C 0.92928 0.92636 0.67898 0.0
C210 C 0.55285 0.9239 0.18435 0.0
C211 C 0.67971 0.82301 0.17295 0.0
O212 O 0.5924 0.93021 0.19446 0.0
Zn213 Zn 0.61789 0.87386 0.17933 0.0
O214 O 0.54255 0.88691 0.16995 0.0
Zn215 Zn 0.57556 0.8281 0.15323 0.0
O216 O 0.54531 0.78077 0.17863 0.0
O217 O 0.58851 0.8229 0.21122 0.0
O218 O 0.64399 0.80813 0.15915 0.0
O219 O 0.68 0.86118 0.18747 0.0
O220 O 0.61955 0.87978 0.12418 0.0
O221 O 0.57069 0.83232 0.10328 0.0
C222 C 0.56218 0.78955 0.20796 0.0
C223 C 0.59947 0.86268 0.09825 0.0
C224 C 0.37822 0.16844 1.01973 0.0
C225 C 0.39256 0.13402 0.99717 0.0
C226 C 0.38331 0.07967 0.04402 0.0
C227 C 0.3712 0.11474 0.06714 0.0
N228 N 0.37076 0.19442 0.07844 0.0
N229 N 0.41676 0.0583 0.98901 0.0
C230 C 0.37303 0.15968 0.05555 0.0
C231 C 0.3972 0.08992 1.00961 0.0
N232 N 0.36709 0.20914 1.00676 0.0
N233 N 0.38241 0.03658 0.05512 0.0
H234 H 0.42805 0.06484 0.96402 0.0
H235 H 0.42534 0.02668 0.99747 0.0
H236 H 0.37761 0.02792 0.08091 0.0
H237 H 0.38495 0.00922 0.0386 0.0
H238 H 0.35118 0.23367 1.0214 0.0
H239 H 0.36936 0.21692 0.98059 0.0
H240 H 0.37684 0.22727 0.07135 0.0
H241 H 0.36755 0.19084 0.10499 0.0
C242 C 0.33998 0.35939 0.51389 0.0
C243 C 0.35891 0.39842 0.49938 0.0
C244 C 0.39766 0.41375 0.55386 0.0
C245 C 0.38192 0.37264 0.56715 0.0
N246 N 0.34136 0.30417 0.55939 0.0
N247 N 0.40958 0.46024 0.50349 0.0
C248 C 0.35411 0.34476 0.54697 0.0
C249 C 0.38858 0.42514 0.51889 0.0
N250 N 0.30712 0.33734 0.49653 0.0
N251 N 0.42099 0.44206 0.57478 0.0
H252 H 0.40322 0.46989 0.47816 0.0
H253 H 0.4354 0.47797 0.51487 0.0
H254 H 0.43027 0.43392 0.59988 0.0
H255 H 0.42888 0.47465 0.56814 0.0
H256 H 0.28876 0.31125 0.50692 0.0
H257 H 0.29527 0.34766 0.47264 0.0
H258 H 0.32543 0.28005 0.54454 0.0
H259 H 0.34933 0.29315 0.58409 0.0
C260 C 0.12771 0.34204 1.01896 0.0
C261 C 0.11715 0.37689 0.99598 0.0
C262 C 0.12782 0.43178 0.04299 0.0
C263 C 0.13526 0.39641 0.06658 0.0
N264 N 0.13553 0.31674 0.07749 0.0
N265 N 0.10885 0.45543 0.98503 0.0
C266 C 0.13312 0.3513 0.05475 0.0
C267 C 0.11831 0.42197 1.00759 0.0
N268 N 0.13559 0.30017 1.00619 0.0
N269 N 0.12881 0.47487 0.05464 0.0
H270 H 0.1065 0.45063 0.95851 0.0
H271 H 0.10251 0.4882 0.9922 0.0
H272 H 0.12845 0.48352 0.08074 0.0
H273 H 0.13038 0.50254 0.03871 0.0
H274 H 0.14931 0.27465 1.02071 0.0
H275 H 0.13317 0.29192 0.98006 0.0
H276 H 0.12703 0.28417 0.07096 0.0
H277 H 0.14301 0.32005 0.10351 0.0
C278 C 0.1469 0.12607 0.55655 0.0
C279 C 0.10243 0.127 0.56926 0.0
C280 C 0.07505 0.1122 0.51075 0.0
C281 C 0.11957 0.10707 0.49825 0.0
N282 N 0.19838 0.10739 0.51052 0.0
N283 N 0.02573 0.10794 0.56018 0.0
C284 C 0.15555 0.113 0.52164 0.0
C285 C 0.06701 0.11639 0.54685 0.0
N286 N 0.18098 0.14005 0.57715 0.0
N287 N 0.03998 0.11433 0.48859 0.0
H288 H 0.01869 0.10883 0.5866 0.0
H289 H -0.00018 0.09494 0.5455 0.0
H290 H 0.04251 0.11178 0.46195 0.0
H291 H 0.00813 0.12337 0.49658 0.0
H292 H 0.21285 0.14672 0.56801 0.0
H293 H 0.17725 0.14817 0.60313 0.0
H294 H 0.22504 0.10359 0.52725 0.0
H295 H 0.20769 0.10506 0.48466 0.0
C296 C 0.62901 0.84054 0.03993 0.0
C297 C 0.61351 0.87469 0.06244 0.0
C298 C 0.62286 0.92975 1.01591 0.0
C299 C 0.63674 0.89529 0.99305 0.0
N300 N 0.64855 0.81672 0.98211 0.0
N301 N 0.60625 0.9535 0.07447 0.0
C302 C 0.63862 0.85042 1.00478 0.0
C303 C 0.61365 0.91981 0.05125 0.0
N304 N 0.63809 0.79924 0.05288 0.0
N305 N 0.61507 0.97141 1.00324 0.0
H306 H 0.59852 0.94838 0.10032 0.0
H307 H 0.61151 0.98695 0.06897 0.0
H308 H 0.62069 0.98005 0.97754 0.0
H309 H 0.59929 0.99655 1.01723 0.0
H310 H 0.65497 0.77453 0.0392 0.0
H311 H 0.63314 0.79066 0.07866 0.0
H312 H 0.64333 0.78321 0.98741 0.0
H313 H 0.65962 0.82186 0.957 0.0
C314 C 0.64684 0.63583 0.53884 0.0
C315 C 0.63129 0.59556 0.5535 0.0
C316 C 0.59326 0.57699 0.49933 0.0
C317 C 0.60625 0.61884 0.48565 0.0
N318 N 0.63844 0.69157 0.49445 0.0
N319 N 0.58481 0.53043 0.55007 0.0
C320 C 0.63082 0.64939 0.50609 0.0
C321 C 0.60331 0.56665 0.53433 0.0
N322 N 0.67848 0.66023 0.55568 0.0
N323 N 0.57115 0.54722 0.47884 0.0
H324 H 0.59192 0.52157 0.57546 0.0
H325 H 0.56019 0.51081 0.53893 0.0
H326 H 0.56007 0.55501 0.45413 0.0
H327 H 0.56545 0.51424 0.48564 0.0
H328 H 0.69468 0.68742 0.5448 0.0
H329 H 0.69174 0.65072 0.57935 0.0
H330 H 0.65183 0.71677 0.50977 0.0
H331 H 0.62818 0.7026 0.47031 0.0
C332 C 0.84769 0.64512 0.99772 0.0
C333 C 0.85623 0.60113 0.98571 0.0
C334 C 0.87794 0.58003 0.04428 0.0
C335 C 0.87686 0.62557 0.0548 0.0
N336 N 0.86091 0.70216 0.041 0.0
N337 N 0.88669 0.52841 0.99642 0.0
C338 C 0.86212 0.65838 0.03123 0.0
C339 C 0.87319 0.56897 1.00869 0.0
N340 N 0.82344 0.67351 0.97786 0.0
N341 N 0.88222 0.54701 0.06808 0.0
H342 H 0.88444 0.51917 0.97047 0.0
H343 H 0.90407 0.50567 1.01137 0.0
H344 H 0.88359 0.55288 0.09454 0.0
H345 H 0.87913 0.51337 0.06188 0.0
H346 H 0.81227 0.70446 0.98643 0.0
H347 H 0.81027 0.66422 0.95405 0.0
H348 H 0.85611 0.72804 1.02366 0.0
H349 H 0.86677 0.71298 0.06621 0.0
C350 C 0.88003 0.82249 0.50887 0.0
C351 C 0.88789 0.85711 0.48484 0.0
C352 C 0.87958 0.91273 0.53154 0.0
C353 C 0.87152 0.87826 0.55566 0.0
N354 N 0.87165 0.79908 0.56812 0.0
N355 N 0.88259 0.93589 0.472 0.0
C356 C 0.874 0.83281 0.54461 0.0
C357 C 0.88397 0.9024 0.49572 0.0
N358 N 0.87407 0.77988 0.49698 0.0
N359 N 0.88663 0.95525 0.54316 0.0
H360 H 0.88551 0.93111 0.4455 0.0
H361 H 0.87398 0.96851 0.47829 0.0
H362 H 0.88608 0.96406 0.56926 0.0
H363 H 0.8982 0.98084 0.52748 0.0
H364 H 0.8624 0.75388 0.51218 0.0
H365 H 0.87597 0.77107 0.47092 0.0
H366 H 0.88054 0.76637 0.56244 0.0
H367 H 0.8637 0.80331 0.59404 0.0
C368 C 0.23115 0.27208 0.21183 0.0
C369 C 0.21868 0.29225 0.18024 0.0
C370 C 0.26547 0.23967 0.14811 0.0
C371 C 0.28129 0.22204 0.17968 0.0
N372 N 0.2826 0.22424 0.24209 0.0
N373 N 0.23356 0.30262 0.1192 0.0
C374 C 0.26536 0.23931 0.21173 0.0
C375 C 0.23886 0.27845 0.1487 0.0
N376 N 0.21014 0.28401 0.24189 0.0
N377 N 0.27455 0.21884 0.11737 0.0
H378 H 0.21464 0.33143 0.11789 0.0
H379 H 0.25173 0.29661 0.09666 0.0
H380 H 0.29367 0.19022 0.11521 0.0
H381 H 0.25936 0.22744 0.09423 0.0
H382 H 0.21344 0.26666 0.26493 0.0
H383 H 0.18727 0.30996 0.24351 0.0
H384 H 0.27645 0.23923 0.26596 0.0
H385 H 0.30504 0.19797 0.24343 0.0
C386 C 0.24235 0.28674 0.65468 0.0
C387 C 0.27495 0.28595 0.68078 0.0
C388 C 0.23784 0.22238 0.70786 0.0
C389 C 0.20798 0.21966 0.67958 0.0
N390 N 0.18794 0.2452 0.62231 0.0
N391 N 0.30893 0.24834 0.72871 0.0
C392 C 0.21171 0.25088 0.652 0.0
C393 C 0.27443 0.25217 0.70617 0.0
N394 N 0.24073 0.32168 0.63226 0.0
N395 N 0.22978 0.19896 0.73742 0.0
H396 H 0.33497 0.27114 0.72991 0.0
H397 H 0.31333 0.22055 0.74429 0.0
H398 H 0.20125 0.18003 0.74139 0.0
H399 H 0.24882 0.20232 0.75964 0.0
H400 H 0.21452 0.32683 0.61532 0.0
H401 H 0.26378 0.34761 0.63246 0.0
H402 H 0.19351 0.26371 0.60004 0.0
H403 H 0.1656 0.21938 0.6183 0.0
C404 C 0.22042 0.29808 0.37941 0.0
C405 C 0.26086 0.29239 0.39746 0.0
C406 C 0.23084 0.22277 0.42024 0.0
C407 C 0.19703 0.22294 0.39455 0.0
N408 N 0.16784 0.25961 0.34371 0.0
N409 N 0.30436 0.24782 0.43634 0.0
C410 C 0.19376 0.26034 0.37253 0.0
C411 C 0.26632 0.25394 0.41799 0.0
N412 N 0.20619 0.33909 0.36962 0.0
N413 N 0.2275 0.19537 0.44815 0.0
H414 H 0.32952 0.27162 0.4377 0.0
H415 H 0.3116 0.21806 0.44879 0.0
H416 H 0.19926 0.17638 0.45318 0.0
H417 H 0.24965 0.1964 0.46872 0.0
H418 H 0.1745 0.34401 0.35965 0.0
H419 H 0.22337 0.36836 0.37487 0.0
H420 H 0.16759 0.28584 0.32617 0.0
H421 H 0.15157 0.23125 0.33479 0.0
C422 C 0.27098 0.23755 0.85363 0.0
C423 C 0.28211 0.2173 0.88543 0.0
C424 C 0.23317 0.26934 0.91628 0.0
C425 C 0.21807 0.2859 0.88414 0.0
N426 N 0.21754 0.281 0.82184 0.0
N427 N 0.27087 0.2102 0.94682 0.0
C428 C 0.23572 0.26889 0.85266 0.0
C429 C 0.26233 0.23216 0.91675 0.0
N430 N 0.29525 0.2283 0.82454 0.0
N431 N 0.22105 0.29042 0.94629 0.0
H432 H 0.29229 0.18301 0.94806 0.0
H433 H 0.25408 0.2165 0.96992 0.0
H434 H 0.20106 0.31873 0.94675 0.0
H435 H 0.23414 0.28267 0.97035 0.0
H436 H 0.29279 0.24701 0.80209 0.0
H437 H 0.32064 0.20475 0.82378 0.0
H438 H 0.22598 0.26598 0.79838 0.0
H439 H 0.19137 0.30349 0.81989 0.0
C440 C 0.70525 0.74308 0.86289 0.0
C441 C 0.71271 0.78021 0.8849 0.0
C442 C 0.78416 0.74714 0.90138 0.0
C443 C 0.77324 0.70799 0.88262 0.0
N444 N 0.7128 0.66401 0.85857 0.0
N445 N 0.75513 0.80987 0.9333 0.0
C446 C 0.73044 0.70416 0.86771 0.0
C447 C 0.75109 0.78033 0.90649 0.0
N448 N 0.67666 0.74529 0.83569 0.0
N449 N 0.82534 0.75223 0.91549 0.0
H450 H 0.73091 0.83284 0.94028 0.0
H451 H 0.78037 0.80796 0.95152 0.0
H452 H 0.84915 0.72712 0.91563 0.0
H453 H 0.83651 0.78244 0.9256 0.0
H454 H 0.67313 0.71917 0.81802 0.0
H455 H 0.66183 0.77475 0.82772 0.0
H456 H 0.67995 0.66087 0.85048 0.0
H457 H 0.72858 0.6337 0.8622 0.0
C458 C 0.73335 0.71815 0.40488 0.0
C459 C 0.72462 0.69239 0.37478 0.0
C460 C 0.78514 0.7311 0.34462 0.0
C461 C 0.78847 0.76138 0.37272 0.0
N462 N 0.76403 0.78608 0.42904 0.0
N463 N 0.73957 0.67767 0.31419 0.0
C464 C 0.76198 0.75563 0.4027 0.0
C465 C 0.75008 0.69937 0.3442 0.0
N466 N 0.71606 0.70526 0.43597 0.0
N467 N 0.8161 0.73186 0.31869 0.0
H468 H 0.71393 0.65459 0.31221 0.0
H469 H 0.75377 0.6856 0.2904 0.0
H470 H 0.84131 0.75563 0.31733 0.0
H471 H 0.81894 0.70668 0.30019 0.0
H472 H 0.7244 0.72019 0.45941 0.0
H473 H 0.69733 0.67627 0.43875 0.0
H474 H 0.74213 0.78619 0.44997 0.0
H475 H 0.78546 0.81337 0.42868 0.0
C476 C 0.78036 0.74376 0.69276 0.0
C477 C 0.78496 0.77245 0.66388 0.0
C478 C 0.71917 0.73789 0.63759 0.0
C479 C 0.71829 0.70611 0.66434 0.0
N480 N 0.75304 0.6734 0.71409 0.0
N481 N 0.76324 0.79032 0.60527 0.0
C482 C 0.75065 0.70717 0.69074 0.0
C483 C 0.75557 0.76777 0.63529 0.0
N484 N 0.80146 0.75312 0.72314 0.0
N485 N 0.68511 0.73984 0.61446 0.0
H486 H 0.78966 0.81209 0.60173 0.0
H487 H 0.74588 0.7841 0.58254 0.0
H488 H 0.65843 0.71771 0.6147 0.0
H489 H 0.68149 0.7656 0.59682 0.0
H490 H 0.79541 0.73561 0.74585 0.0
H491 H 0.82082 0.78141 0.72705 0.0
H492 H 0.77956 0.66989 0.73102 0.0
H493 H 0.73059 0.64702 0.71457 0.0
C494 C 0.76355 0.73974 0.13908 0.0
C495 C 0.78428 0.72611 0.17004 0.0
C496 C 0.73915 0.77924 0.20334 0.0
C497 C 0.71964 0.79415 0.17215 0.0
N498 N 0.72147 0.79692 0.10997 0.0
N499 N 0.80026 0.74038 0.23006 0.0
C500 C 0.73432 0.77681 0.13987 0.0
C501 C 0.77461 0.74808 0.20173 0.0
N502 N 0.77086 0.7165 0.10909 0.0
N503 N 0.72247 0.79285 0.23459 0.0
H504 H 0.82611 0.71731 0.23016 0.0
H505 H 0.79855 0.75992 0.25233 0.0
H506 H 0.69616 0.8151 0.23718 0.0
H507 H 0.73226 0.77917 0.25799 0.0
H508 H 0.75316 0.72193 0.08648 0.0
H509 H 0.79211 0.68916 0.10752 0.0
H510 H 0.73417 0.78852 0.08572 0.0
H511 H 0.70147 0.82524 0.10981 0.0
C512 C 0.22613 0.02328 0.29598 0.0
C513 C 0.21167 0.06509 0.30956 0.0
C514 C 0.23329 0.10032 0.2553 0.0
C515 C 0.25479 0.06097 0.24426 0.0
N516 N 0.27511 0.98502 0.25531 0.0
N517 N 0.21517 0.14547 0.3047 0.0
C518 C 0.25215 0.02225 0.2649 0.0
C519 C 0.21896 0.10423 0.2899 0.0
N520 N 0.21369 0.98467 0.31171 0.0
N521 N 0.22586 0.13393 0.23254 0.0
H522 H 0.20994 0.15027 0.33107 0.0
H523 H 0.22335 0.17463 0.29167 0.0
H524 H 0.23354 0.13086 0.20635 0.0
H525 H 0.20698 0.16191 0.23887 0.0
H526 H 0.22002 0.95333 0.30115 0.0
H527 H 0.19333 0.98394 0.33356 0.0
H528 H 0.27833 0.95734 0.27116 0.0
H529 H 0.2932 0.98312 0.23227 0.0
C530 C 0.43581 0.22977 0.74849 0.0
C531 C 0.43839 0.27697 0.74987 0.0
C532 C 0.43767 0.27372 0.81335 0.0
C533 C 0.44052 0.22656 0.81183 0.0
N534 N 0.45107 0.16035 0.77702 0.0
N535 N 0.45052 0.34325 0.7842 0.0
C536 C 0.44262 0.20488 0.7791 0.0
C537 C 0.44234 0.29865 0.78248 0.0
N538 N 0.42314 0.20846 0.7188 0.0
N539 N 0.42675 0.29492 0.8436 0.0
H540 H 0.45312 0.36296 0.76237 0.0
H541 H 0.45871 0.35972 0.80708 0.0
H542 H 0.41994 0.27843 0.8666 0.0
H543 H 0.41936 0.32875 0.84499 0.0
H544 H 0.41591 0.17457 0.71777 0.0
H545 H 0.41472 0.22491 0.69618 0.0
H546 H 0.45783 0.14395 0.75377 0.0
H547 H 0.45542 0.14066 0.79869 0.0
C548 C 0.20773 0.4183 0.28067 0.0
C549 C 0.21029 0.4544 0.2575 0.0
C550 C 0.26873 0.486 0.29495 0.0
C551 C 0.27192 0.44441 0.31225 0.0
N552 N 0.253 0.36556 0.30953 0.0
N553 N 0.24069 0.52699 0.24546 0.0
C554 C 0.24451 0.40875 0.30127 0.0
C555 C 0.24026 0.48974 0.26539 0.0
N556 N 0.16963 0.39424 0.28471 0.0
N557 N 0.29315 0.52137 0.3064 0.0
H558 H 0.21604 0.53347 0.22739 0.0
H559 H 0.26517 0.55139 0.24699 0.0
H560 H 0.3163 0.51861 0.32622 0.0
H561 H 0.2893 0.55362 0.29726 0.0
H562 H 0.16722 0.36783 0.30195 0.0
H563 H 0.13912 0.40522 0.27547 0.0
H564 H 0.23435 0.33942 0.29924 0.0
H565 H 0.28027 0.35503 0.32352 0.0
C566 C 0.04631 0.2014 0.7865 0.0
C567 C 0.04559 0.22394 0.75429 0.0
C568 C 0.03925 0.29482 0.78601 0.0
C569 C 0.04878 0.27278 0.81739 0.0
N570 N 0.06877 0.2045 0.84623 0.0
N571 N 0.04914 0.29441 0.72409 0.0
C572 C 0.05374 0.22582 0.81748 0.0
C573 C 0.04348 0.27131 0.7541 0.0
N574 N 0.03971 0.1565 0.78765 0.0
N575 N 0.02618 0.33833 0.78667 0.0
H576 H 0.05503 0.27947 0.7002 0.0
H577 H 0.05267 0.32889 0.72348 0.0
H578 H 0.02206 0.35624 0.80966 0.0
H579 H 0.01492 0.35494 0.76485 0.0
H580 H 0.03549 0.13914 0.81067 0.0
H581 H 0.03372 0.13747 0.76565 0.0
H582 H 0.07786 0.17105 0.84612 0.0
H583 H 0.07647 0.22073 0.86927 0.0
C584 C 0.73542 0.97358 0.78689 0.0
C585 C 0.72403 0.9329 0.80343 0.0
C586 C 0.75079 0.89188 0.75272 0.0
C587 C 0.7685 0.93134 0.73841 0.0
N588 N 0.78217 0.01008 0.74405 0.0
N589 N 0.73545 0.85323 0.80542 0.0
C590 C 0.76199 0.97249 0.75603 0.0
C591 C 0.73583 0.89201 0.78727 0.0
N592 N 0.71976 0.01295 0.7998 0.0
N593 N 0.74687 0.8543 0.733 0.0
H594 H 0.7297 0.85241 0.83189 0.0
H595 H 0.7471 0.8232 0.79523 0.0
H596 H 0.75399 0.85401 0.70666 0.0
H597 H 0.73099 0.8256 0.74173 0.0
H598 H 0.72349 0.04312 0.78701 0.0
H599 H 0.69965 0.01485 0.82177 0.0
H600 H 0.78239 0.04004 0.75773 0.0
H601 H 0.80152 0.01031 0.72162 0.0
C602 C 0.52223 0.72159 0.28599 0.0
C603 C 0.56426 0.70873 0.29933 0.0
C604 C 0.60002 0.73734 0.24725 0.0
C605 C 0.55986 0.75706 0.23673 0.0
N606 N 0.48228 0.77086 0.24731 0.0
N607 N 0.64394 0.71864 0.2964 0.0
C608 C 0.52059 0.7499 0.25636 0.0
C609 C 0.60341 0.7204 0.28095 0.0
N610 N 0.48415 0.70575 0.30073 0.0
N611 N 0.63494 0.73387 0.22481 0.0
H612 H 0.64776 0.71138 0.32244 0.0
H613 H 0.67272 0.73058 0.28458 0.0
H614 H 0.6325 0.74324 0.19903 0.0
H615 H 0.66377 0.71635 0.2307 0.0
H616 H 0.45282 0.71079 0.29024 0.0
H617 H 0.48424 0.68418 0.32172 0.0
H618 H 0.45374 0.77068 0.26263 0.0
H619 H 0.48009 0.79075 0.22539 0.0
C620 C 0.76384 0.51135 0.78117 0.0
C621 C 0.7702 0.5528 0.7985 0.0
C622 C 0.70708 0.58269 0.7677 0.0
C623 C 0.70708 0.54636 0.74431 0.0
N624 N 0.73183 0.47152 0.73218 0.0
N625 N 0.75555 0.63247 0.7973 0.0
C626 C 0.73458 0.50913 0.75196 0.0
C627 C 0.74459 0.58996 0.78827 0.0
N628 N 0.78584 0.47452 0.79238 0.0
N629 N 0.67067 0.60918 0.772 0.0
H630 H 0.78372 0.64116 0.81108 0.0
H631 H 0.73817 0.65983 0.78789 0.0
H632 H 0.63955 0.60034 0.7625 0.0
H633 H 0.66988 0.63536 0.78982 0.0
H634 H 0.77957 0.44248 0.78327 0.0
H635 H 0.80933 0.47592 0.81206 0.0
H636 H 0.75459 0.44555 0.73337 0.0
H637 H 0.70617 0.46626 0.71466 0.0
C638 C 0.9606 0.79297 0.26961 0.0
C639 C 0.95609 0.76678 0.29984 0.0
C640 C 0.96203 0.69967 0.26377 0.0
C641 C 0.9558 0.72562 0.23368 0.0
N642 N 0.94525 0.79844 0.20859 0.0
N643 N 0.94735 0.69355 0.32491 0.0
C644 C 0.95487 0.77279 0.23657 0.0
C645 C 0.95626 0.71959 0.29689 0.0
N646 N 0.97032 0.83724 0.27255 0.0
N647 N 0.9731 0.65576 0.26059 0.0
H648 H 0.94113 0.7061 0.34957 0.0
H649 H 0.94206 0.65935 0.32298 0.0
H650 H 0.97851 0.64055 0.23659 0.0
H651 H 0.98165 0.63606 0.28158 0.0
H652 H 0.97774 0.85721 0.25137 0.0
H653 H 0.97575 0.8527 0.29639 0.0
H654 H 0.93893 0.83245 0.21047 0.0
H655 H 0.93999 0.78559 0.18393 0.0
C656 C 0.47153 0.01117 0.21972 0.0
C657 C 0.45576 0.02953 0.18843 0.0
C658 C 0.50108 0.97706 0.15496 0.0
C659 C 0.51947 0.96035 0.18612 0.0
N660 N 0.52576 0.96449 0.24823 0.0
N661 N 0.46426 0.03833 0.12692 0.0
C662 C 0.50609 0.97867 0.21855 0.0
C663 C 0.47311 0.01488 0.15627 0.0
N664 N 0.45194 0.02308 0.25035 0.0
N665 N 0.50947 0.9566 0.12395 0.0
H666 H 0.44509 0.06718 0.12696 0.0
H667 H 0.4798 0.03219 0.10325 0.0
H668 H 0.53073 0.92971 0.12082 0.0
H669 H 0.49231 0.96404 0.10142 0.0
H670 H 0.45824 0.00737 0.27369 0.0
H671 H 0.42684 0.04688 0.2521 0.0
H672 H 0.52138 0.9801 0.2721 0.0
H673 H 0.54846 0.93836 0.24882 0.0
C674 C 0.48333 0.54212 0.66076 0.0
C675 C 0.52211 0.53926 0.68121 0.0
C676 C 0.49636 0.46924 0.70587 0.0
C677 C 0.45664 0.47241 0.68642 0.0
N678 N 0.4089 0.51504 0.6492 0.0
N679 N 0.55988 0.50768 0.72986 0.0
C680 C 0.44878 0.51023 0.66542 0.0
C681 C 0.52668 0.50524 0.70596 0.0
N682 N 0.48078 0.57349 0.63542 0.0
N683 N 0.50623 0.43104 0.7231 0.0
H684 H 0.58232 0.53412 0.7309 0.0
H685 H 0.56234 0.48613 0.75073 0.0
H686 H 0.48515 0.40372 0.72357 0.0
H687 H 0.53695 0.42496 0.73432 0.0
H688 H 0.45602 0.57399 0.61678 0.0
H689 H 0.5052 0.59758 0.63154 0.0
H690 H 0.39946 0.54398 0.6366 0.0
H691 H 0.38383 0.49117 0.65017 0.0
C692 C 0.00917 0.47868 0.14998 0.0
C693 C 0.02484 0.46571 0.18273 0.0
C694 C 0.97171 0.51646 0.21089 0.0
C695 C 0.96046 0.5338 0.17791 0.0
N696 N 0.97403 0.53526 0.11601 0.0
N697 N 0.02371 0.47293 0.24466 0.0
C698 C 0.98062 0.5159 0.14744 0.0
C699 C 0.00637 0.48427 0.21337 0.0
N700 N 0.02106 0.45472 0.12121 0.0
N701 N 0.95029 0.53164 0.23988 0.0
H702 H 0.04839 0.44889 0.24731 0.0
H703 H 0.01567 0.48892 0.26778 0.0
H704 H 0.92751 0.55769 0.23965 0.0
H705 H 0.95328 0.51693 0.26402 0.0
H706 H 0.00705 0.45954 0.09699 0.0
H707 H 0.04146 0.42675 0.12226 0.0
H708 H 0.99233 0.52704 0.09397 0.0
H709 H 0.95311 0.56216 0.11216 0.0
C710 C 0.00652 0.95477 0.66687 0.0
C711 C 0.96596 0.95822 0.68553 0.0
C712 C 0.9882 0.03116 0.70816 0.0
C713 C 0.02953 0.02748 0.69035 0.0
N714 N 0.0809 0.983 0.65663 0.0
N715 N 0.92246 0.99387 0.73007 0.0
C716 C 0.03981 0.98812 0.67129 0.0
C717 C 0.95819 0.99467 0.70809 0.0
N718 N 0.01205 0.9212 0.6432 0.0
N719 N 0.97691 0.07008 0.72439 0.0
H720 H 0.90001 0.96742 0.73089 0.0
H721 H 0.91735 0.01713 0.74974 0.0
H722 H -0.00164 0.09706 0.72633 0.0
H723 H 0.9452 0.07684 0.73387 0.0
H724 H 0.03828 0.91972 0.62562 0.0
H725 H 0.98863 0.89612 0.63933 0.0
H726 H 0.09218 0.95311 0.64609 0.0
H727 H 0.10511 0.00776 0.65682 0.0
C728 C 0.49907 0.5166 0.34097 0.0
C729 C 0.53517 0.51417 0.36419 0.0
C730 C 0.50515 0.44475 0.38826 0.0
C731 C 0.46617 0.45064 0.36837 0.0
N732 N 0.42567 0.49054 0.32488 0.0
N733 N 0.57326 0.47716 0.41045 0.0
C734 C 0.46324 0.48595 0.34422 0.0
C735 C 0.53889 0.47807 0.38752 0.0
N736 N 0.49976 0.54772 0.31532 0.0
N737 N 0.50955 0.40773 0.40831 0.0
H738 H 0.59898 0.50039 0.41036 0.0
H739 H 0.57527 0.45513 0.431 0.0
H740 H 0.48468 0.38387 0.41099 0.0
H741 H 0.53886 0.39882 0.42052 0.0
H742 H 0.47666 0.54913 0.29549 0.0
H743 H 0.52579 0.5703 0.31217 0.0
H744 H 0.41852 0.51848 0.3102 0.0
H745 H 0.40049 0.46669 0.32436 0.0
C746 C 0.01218 0.48653 0.90221 0.0
C747 C 0.03285 0.46923 0.87175 0.0
C748 C 0.98677 0.51876 0.83637 0.0
C749 C 0.96785 0.53675 0.86702 0.0
N750 N 0.97129 0.54726 0.9286 0.0
N751 N 0.04366 0.47229 0.80988 0.0
C752 C 0.98346 0.52361 0.89975 0.0
C753 C 0.02175 0.48687 0.83883 0.0
N754 N 0.01843 0.46677 0.93351 0.0
N755 N 0.96966 0.53038 0.80508 0.0
H756 H 0.06672 0.44649 0.8101 0.0
H757 H 0.04072 0.48723 0.78582 0.0
H758 H 0.94486 0.55431 0.80252 0.0
H759 H 0.97809 0.51479 0.78187 0.0
H760 H -0.0002 0.47465 0.95547 0.0
H761 H 0.03927 0.4398 0.9373 0.0
H762 H 0.98516 0.54225 0.95286 0.0
H763 H 0.95082 0.57519 0.92761 0.0
C764 C 0.9677 0.98582 0.33914 0.0
C765 C 0.96009 0.9587 0.36866 0.0
C766 C 0.00989 0.00647 0.40274 0.0
C767 C 0.02118 0.03053 0.37258 0.0
N768 N 0.01418 0.04164 0.31134 0.0
N769 N 0.97803 0.94116 0.42825 0.0
C770 C 0.00047 0.02031 0.34063 0.0
C771 C 0.98217 0.96859 0.40032 0.0
N772 N 0.94459 0.97793 0.30944 0.0
N773 N 0.02483 0.02058 0.43427 0.0
H774 H 0.95535 0.91535 0.43003 0.0
H775 H -0.00081 0.94233 0.44942 0.0
H776 H 0.04739 0.0464 0.4373 0.0
H777 H 0.01225 0.00912 0.45771 0.0
H778 H 0.9445 -0.00053 0.2885 0.0
H779 H 0.92349 0.95077 0.30615 0.0
H780 H 0.00443 0.03257 0.28653 0.0
H781 H 0.03791 0.06692 0.31155 0.0
C782 C 0.49242 0.95967 0.89228 0.0
C783 C 0.53039 0.9645 0.8707 0.0
C784 C 0.50439 0.03754 0.85213 0.0
C785 C 0.46513 0.03209 0.87233 0.0
N786 N 0.41873 0.98541 0.90813 0.0
N787 N 0.56736 0.00222 0.82402 0.0
C788 C 0.45793 0.99206 0.89094 0.0
C789 C 0.53469 0.00166 0.84872 0.0
N790 N 0.49067 0.92588 0.91575 0.0
N791 N 0.51367 0.07748 0.83706 0.0
H792 H 0.58986 0.97616 0.82059 0.0
H793 H 0.56943 0.0262 0.80478 0.0
H794 H 0.49239 0.1046 0.83837 0.0
H795 H 0.54414 0.08499 0.82565 0.0
H796 H 0.46668 0.92362 0.93512 0.0
H797 H 0.51521 0.90161 0.91769 0.0
H798 H 0.40945 0.95495 0.91862 0.0
H799 H 0.394 0.00949 0.9102 0.0
loop_
_geom_bond_atom_site_label_1
_geom_bond_atom_site_label_2
_geom_bond_distance
_geom_bond_site_symmetry_2
_ccdc_geom_bond_type
C0 O2 1.247 . S
C0 O4 1.258 . S
C1 O8 1.247 . S
C1 O9 1.258 . S
O2 C0 1.247 . S
O2 Zn3 2.028 . S
Zn3 O2 2.028 . S
Zn3 O7 2.035 . S
Zn3 O9 2.035 . S
Zn3 O10 2.028 . S
O4 C0 1.258 . S
O4 Zn5 2.035 . S
Zn5 O4 2.035 . S
Zn5 O6 2.028 . S
Zn5 O8 2.028 . S
Zn5 O11 2.035 . S
O6 Zn5 2.028 . S
O6 C12 1.247 . S
O7 Zn3 2.035 . S
O7 C12 1.258 . S
O8 C1 1.247 . S
O8 Zn5 2.028 . S
O9 C1 1.258 . S
O9 Zn3 2.035 . S
O10 Zn3 2.028 . S
O10 C13 1.247 . S
O11 Zn5 2.035 . S
O11 C13 1.258 . S
C12 O6 1.247 . S
C12 O7 1.258 . S
C13 O10 1.247 . S
C13 O11 1.258 . S
C14 O16 1.247 . S
C14 O18 1.258 . S
C15 O22 1.247 . S
C15 O23 1.258 . S
O16 C14 1.247 . S
O16 Zn17 2.028 . S
Zn17 O16 2.028 . S
Zn17 O21 2.035 . S
Zn17 O23 2.035 . S
Zn17 O24 2.028 . S
O18 C14 1.258 . S
O18 Zn19 2.035 . S
Zn19 O18 2.035 . S
Zn19 O20 2.028 . S
Zn19 O22 2.028 . S
Zn19 O25 2.035 . S
O20 Zn19 2.028 . S
O20 C26 1.247 . S
O21 Zn17 2.035 . S
O21 C26 1.258 . S
O22 C15 1.247 . S
O22 Zn19 2.028 . S
O23 C15 1.258 . S
O23 Zn17 2.035 . S
O24 Zn17 2.028 . S
O24 C27 1.247 . S
O25 Zn19 2.035 . S
O25 C27 1.258 . S
C26 O20 1.247 . S
C26 O21 1.258 . S
C27 O24 1.247 . S
C27 O25 1.258 . S
C28 O30 1.247 . S
C28 O32 1.258 . S
C29 O36 1.247 . S
C29 O37 1.258 . S
O30 C28 1.247 . S
O30 Zn31 2.028 . S
Zn31 O30 2.028 . S
Zn31 O35 2.035 . S
Zn31 O37 2.035 . S
Zn31 O38 2.028 . S
O32 C28 1.258 . S
O32 Zn33 2.035 . S
Zn33 O32 2.035 . S
Zn33 O34 2.028 . S
Zn33 O36 2.028 . S
Zn33 O39 2.035 . S
O34 Zn33 2.028 . S
O34 C40 1.247 . S
O35 Zn31 2.035 . S
O35 C40 1.258 . S
O36 C29 1.247 . S
O36 Zn33 2.028 . S
O37 C29 1.258 . S
O37 Zn31 2.035 . S
O38 Zn31 2.028 . S
O38 C41 1.247 . S
O39 Zn33 2.035 . S
O39 C41 1.258 . S
C40 O34 1.247 . S
C40 O35 1.258 . S
C41 O38 1.247 . S
C41 O39 1.258 . S
C42 O44 1.247 . S
C42 O46 1.258 . S
C43 O50 1.247 . S
C43 O51 1.258 . S
O44 C42 1.247 . S
O44 Zn45 2.028 . S
Zn45 O44 2.028 . S
Zn45 O49 2.035 . S
Zn45 O51 2.035 . S
Zn45 O52 2.028 . S
O46 C42 1.258 . S
O46 Zn47 2.035 . S
Zn47 O46 2.035 . S
Zn47 O48 2.028 . S
Zn47 O50 2.028 . S
Zn47 O53 2.035 . S
O48 Zn47 2.028 . S
O48 C54 1.247 . S
O49 Zn45 2.035 . S
O49 C54 1.258 . S
O50 C43 1.247 . S
O50 Zn47 2.028 . S
O51 C43 1.258 . S
O51 Zn45 2.035 . S
O52 Zn45 2.028 . S
O52 C55 1.247 . S
O53 Zn47 2.035 . S
O53 C55 1.258 . S
C54 O48 1.247 . S
C54 O49 1.258 . S
C55 O52 1.247 . S
C55 O53 1.258 . S
C56 O58 1.247 . S
C56 O60 1.258 . S
C57 O64 1.247 . S
C57 O65 1.258 . S
O58 C56 1.247 . S
O58 Zn59 2.028 . S
Zn59 O58 2.028 . S
Zn59 O63 2.035 . S
Zn59 O65 2.035 . S
Zn59 O66 2.028 . S
O60 C56 1.258 . S
O60 Zn61 2.035 . S
Zn61 O60 2.035 . S
Zn61 O62 2.028 . S
Zn61 O64 2.028 . S
Zn61 O67 2.035 . S
O62 Zn61 2.028 . S
O62 C68 1.247 . S
O63 Zn59 2.035 . S
O63 C68 1.258 . S
O64 C57 1.247 . S
O64 Zn61 2.028 . S
O65 C57 1.258 . S
O65 Zn59 2.035 . S
O66 Zn59 2.028 . S
O66 C69 1.247 . S
O67 Zn61 2.035 . S
O67 C69 1.258 . S
C68 O62 1.247 . S
C68 O63 1.258 . S
C69 O66 1.247 . S
C69 O67 1.258 . S
C70 O72 1.247 . S
C70 O74 1.258 . S
C71 O78 1.247 . S
C71 O79 1.258 . S
O72 C70 1.247 . S
O72 Zn73 2.028 . S
Zn73 O72 2.028 . S
Zn73 O77 2.035 . S
Zn73 O79 2.035 . S
Zn73 O80 2.028 . S
O74 C70 1.258 . S
O74 Zn75 2.035 . S
Zn75 O74 2.035 . S
Zn75 O76 2.028 . S
Zn75 O78 2.028 . S
Zn75 O81 2.035 . S
O76 Zn75 2.028 . S
O76 C82 1.247 . S
O77 Zn73 2.035 . S
O77 C82 1.258 . S
O78 C71 1.247 . S
O78 Zn75 2.028 . S
O79 C71 1.258 . S
O79 Zn73 2.035 . S
O80 Zn73 2.028 . S
O80 C83 1.247 . S
O81 Zn75 2.035 . S
O81 C83 1.258 . S
C82 O76 1.247 . S
C82 O77 1.258 . S
C83 O80 1.247 . S
C83 O81 1.258 . S
C84 O86 1.247 . S
C84 O88 1.258 . S
C85 O92 1.247 . S
C85 O93 1.258 . S
O86 C84 1.247 . S
O86 Zn87 2.028 . S
Zn87 O86 2.028 . S
Zn87 O91 2.035 . S
Zn87 O93 2.035 . S
Zn87 O94 2.028 . S
O88 C84 1.258 . S
O88 Zn89 2.035 . S
Zn89 O88 2.035 . S
Zn89 O90 2.028 . S
Zn89 O92 2.028 . S
Zn89 O95 2.035 . S
O90 Zn89 2.028 . S
O90 C96 1.247 . S
O91 Zn87 2.035 . S
O91 C96 1.258 . S
O92 C85 1.247 . S
O92 Zn89 2.028 . S
O93 C85 1.258 . S
O93 Zn87 2.035 . S
O94 Zn87 2.028 . S
O94 C97 1.247 . S
O95 Zn89 2.035 . S
O95 C97 1.258 . S
C96 O90 1.247 . S
C96 O91 1.258 . S
C97 O94 1.247 . S
C97 O95 1.258 . S
C98 O100 1.247 . S
C98 O102 1.258 . S
C99 O106 1.247 . S
C99 O107 1.258 . S
O100 C98 1.247 . S
O100 Zn101 2.028 . S
Zn101 O100 2.028 . S
Zn101 O105 2.035 . S
Zn101 O107 2.035 . S
Zn101 O108 2.028 . S
O102 C98 1.258 . S
O102 Zn103 2.035 . S
Zn103 O102 2.035 . S
Zn103 O104 2.028 . S
Zn103 O106 2.028 . S
Zn103 O109 2.035 . S
O104 Zn103 2.028 . S
O104 C110 1.247 . S
O105 Zn101 2.035 . S
O105 C110 1.258 . S
O106 C99 1.247 . S
O106 Zn103 2.028 . S
O107 C99 1.258 . S
O107 Zn101 2.035 . S
O108 Zn101 2.028 . S
O108 C111 1.247 . S
O109 Zn103 2.035 . S
O109 C111 1.258 . S
C110 O104 1.247 . S
C110 O105 1.258 . S
C111 O108 1.247 . S
C111 O109 1.258 . S
C112 O114 1.247 . S
C112 O116 1.258 . S
C113 O120 1.247 . S
C113 O121 1.258 . S
O114 C112 1.247 . S
O114 Zn115 2.028 . S
Zn115 O114 2.028 . S
Zn115 O119 2.035 . S
Zn115 O121 2.035 . S
Zn115 O122 2.028 . S
O116 C112 1.258 . S
O116 Zn117 2.035 . S
Zn117 O116 2.035 . S
Zn117 O118 2.028 . S
Zn117 O120 2.028 . S
Zn117 O123 2.035 . S
O118 Zn117 2.028 . S
O118 C124 1.247 . S
O119 Zn115 2.035 . S
O119 C124 1.258 . S
O120 C113 1.247 . S
O120 Zn117 2.028 . S
O121 C113 1.258 . S
O121 Zn115 2.035 . S
O122 Zn115 2.028 . S
O122 C125 1.247 . S
O123 Zn117 2.035 . S
O123 C125 1.258 . S
C124 O118 1.247 . S
C124 O119 1.258 . S
C125 O122 1.247 . S
C125 O123 1.258 . S
C126 O128 1.247 . S
C126 O130 1.258 . S
C127 O134 1.247 . S
C127 O135 1.258 . S
O128 C126 1.247 . S
O128 Zn129 2.028 . S
Zn129 O128 2.028 . S
Zn129 O133 2.035 . S
Zn129 O135 2.035 . S
Zn129 O136 2.028 . S
O130 C126 1.258 . S
O130 Zn131 2.035 . S
Zn131 O130 2.035 . S
Zn131 O132 2.028 . S
Zn131 O134 2.028 . S
Zn131 O137 2.035 . S
O132 Zn131 2.028 . S
O132 C138 1.247 . S
O133 Zn129 2.035 . S
O133 C138 1.258 . S
O134 C127 1.247 . S
O134 Zn131 2.028 . S
O135 C127 1.258 . S
O135 Zn129 2.035 . S
O136 Zn129 2.028 . S
O136 C139 1.247 . S
O137 Zn131 2.035 . S
O137 C139 1.258 . S
C138 O132 1.247 . S
C138 O133 1.258 . S
C139 O136 1.247 . S
C139 O137 1.258 . S
C140 O142 1.247 . S
C140 O144 1.258 . S
C141 O148 1.247 . S
C141 O149 1.258 . S
O142 C140 1.247 . S
O142 Zn143 2.028 . S
Zn143 O142 2.028 . S
Zn143 O147 2.035 . S
Zn143 O149 2.035 . S
Zn143 O150 2.028 . S
O144 C140 1.258 . S
O144 Zn145 2.035 . S
Zn145 O144 2.035 . S
Zn145 O146 2.028 . S
Zn145 O148 2.028 . S
Zn145 O151 2.035 . S
O146 Zn145 2.028 . S
O146 C152 1.247 . S
O147 Zn143 2.035 . S
O147 C152 1.258 . S
O148 C141 1.247 . S
O148 Zn145 2.028 . S
O149 C141 1.258 . S
O149 Zn143 2.035 . S
O150 Zn143 2.028 . S
O150 C153 1.247 . S
O151 Zn145 2.035 . S
O151 C153 1.258 . S
C152 O146 1.247 . S
C152 O147 1.258 . S
C153 O150 1.247 . S
C153 O151 1.258 . S
C154 O156 1.247 . S
C154 O158 1.258 . S
C155 O162 1.247 . S
C155 O163 1.258 . S
O156 C154 1.247 . S
O156 Zn157 2.028 . S
Zn157 O156 2.028 . S
Zn157 O161 2.035 . S
Zn157 O163 2.035 . S
Zn157 O164 2.028 . S
O158 C154 1.258 . S
O158 Zn159 2.035 . S
Zn159 O158 2.035 . S
Zn159 O160 2.028 . S
Zn159 O162 2.028 . S
Zn159 O165 2.035 . S
O160 Zn159 2.028 . S
O160 C166 1.247 . S
O161 Zn157 2.035 . S
O161 C166 1.258 . S
O162 C155 1.247 . S
O162 Zn159 2.028 . S
O163 C155 1.258 . S
O163 Zn157 2.035 . S
O164 Zn157 2.028 . S
O164 C167 1.247 . S
O165 Zn159 2.035 . S
O165 C167 1.258 . S
C166 O160 1.247 . S
C166 O161 1.258 . S
C167 O164 1.247 . S
C167 O165 1.258 . S
C168 O170 1.247 . S
C168 O172 1.258 . S
C169 O176 1.247 . S
C169 O177 1.258 . S
O170 C168 1.247 . S
O170 Zn171 2.028 . S
Zn171 O170 2.028 . S
Zn171 O175 2.035 . S
Zn171 O177 2.035 . S
Zn171 O178 2.028 . S
O172 C168 1.258 . S
O172 Zn173 2.035 . S
Zn173 O172 2.035 . S
Zn173 O174 2.028 . S
Zn173 O176 2.028 . S
Zn173 O179 2.035 . S
O174 Zn173 2.028 . S
O174 C180 1.247 . S
O175 Zn171 2.035 . S
O175 C180 1.258 . S
O176 C169 1.247 . S
O176 Zn173 2.028 . S
O177 C169 1.258 . S
O177 Zn171 2.035 . S
O178 Zn171 2.028 . S
O178 C181 1.247 . S
O179 Zn173 2.035 . S
O179 C181 1.258 . S
C180 O174 1.247 . S
C180 O175 1.258 . S
C181 O178 1.247 . S
C181 O179 1.258 . S
C182 O184 1.247 . S
C182 O186 1.258 . S
C183 O190 1.247 . S
C183 O191 1.258 . S
O184 C182 1.247 . S
O184 Zn185 2.028 . S
Zn185 O184 2.028 . S
Zn185 O189 2.035 . S
Zn185 O191 2.035 . S
Zn185 O192 2.028 . S
O186 C182 1.258 . S
O186 Zn187 2.035 . S
Zn187 O186 2.035 . S
Zn187 O188 2.028 . S
Zn187 O190 2.028 . S
Zn187 O193 2.035 . S
O188 Zn187 2.028 . S
O188 C194 1.247 . S
O189 Zn185 2.035 . S
O189 C194 1.258 . S
O190 C183 1.247 . S
O190 Zn187 2.028 . S
O191 C183 1.258 . S
O191 Zn185 2.035 . S
O192 Zn185 2.028 . S
O192 C195 1.247 . S
O193 Zn187 2.035 . S
O193 C195 1.258 . S
C194 O188 1.247 . S
C194 O189 1.258 . S
C195 O192 1.247 . S
C195 O193 1.258 . S
C196 O198 1.247 . S
C196 O200 1.258 . S
C197 O204 1.247 . S
C197 O205 1.258 . S
O198 C196 1.247 . S
O198 Zn199 2.028 . S
Zn199 O198 2.028 . S
Zn199 O203 2.035 . S
Zn199 O205 2.035 . S
Zn199 O206 2.028 . S
O200 C196 1.258 . S
O200 Zn201 2.035 . S
Zn201 O200 2.035 . S
Zn201 O202 2.028 . S
Zn201 O204 2.028 . S
Zn201 O207 2.035 . S
O202 Zn201 2.028 . S
O202 C208 1.247 . S
O203 Zn199 2.035 . S
O203 C208 1.258 . S
O204 C197 1.247 . S
O204 Zn201 2.028 . S
O205 C197 1.258 . S
O205 Zn199 2.035 . S
O206 Zn199 2.028 . S
O206 C209 1.247 . S
O207 Zn201 2.035 . S
O207 C209 1.258 . S
C208 O202 1.247 . S
C208 O203 1.258 . S
C209 O206 1.247 . S
C209 O207 1.258 . S
C210 O212 1.247 . S
C210 O214 1.258 . S
C211 O218 1.247 . S
C211 O219 1.258 . S
O212 C210 1.247 . S
O212 Zn213 2.028 . S
Zn213 O212 2.028 . S
Zn213 O217 2.035 . S
Zn213 O219 2.035 . S
Zn213 O220 2.028 . S
O214 C210 1.258 . S
O214 Zn215 2.035 . S
Zn215 O214 2.035 . S
Zn215 O216 2.028 . S
Zn215 O218 2.028 . S
Zn215 O221 2.035 . S
O216 Zn215 2.028 . S
O216 C222 1.247 . S
O217 Zn213 2.035 . S
O217 C222 1.258 . S
O218 C211 1.247 . S
O218 Zn215 2.028 . S
O219 C211 1.258 . S
O219 Zn213 2.035 . S
O220 Zn213 2.028 . S
O220 C223 1.247 . S
O221 Zn215 2.035 . S
O221 C223 1.258 . S
C222 O216 1.247 . S
C222 O217 1.258 . S
C223 O220 1.247 . S
C223 O221 1.258 . S
C224 C225 1.363 . S
C224 C230 1.379 1_556 S
C224 N232 1.356 . S
C225 C224 1.363 . S
C225 C231 1.363 . S
C226 C227 1.363 . S
C226 C231 1.379 1_554 S
C226 N233 1.356 . S
C227 C226 1.363 . S
C227 C230 1.363 . S
N228 C230 1.356 . S
N228 H240 0.984 . S
N228 H241 0.985 . S
N229 C231 1.356 . S
N229 H234 0.984 . S
N229 H235 0.985 . S
C230 C224 1.379 1_554 S
C230 C227 1.363 . S
C230 N228 1.356 . S
C231 C225 1.363 . S
C231 C226 1.379 1_556 S
C231 N229 1.356 . S
N232 C224 1.356 . S
N232 H238 0.984 . S
N232 H239 0.984 . S
N233 C226 1.356 . S
N233 H236 0.984 . S
N233 H237 0.985 . S
H234 N229 0.984 . S
H235 N229 0.985 . S
H236 N233 0.984 . S
H237 N233 0.985 . S
H238 N232 0.984 . S
H239 N232 0.984 . S
H240 N228 0.984 . S
H241 N228 0.985 . S
C242 C243 1.363 . S
C242 C248 1.379 . S
C242 N250 1.356 . S
C243 C242 1.363 . S
C243 C249 1.363 . S
C244 C245 1.363 . S
C244 C249 1.379 . S
C244 N251 1.356 . S
C245 C244 1.363 . S
C245 C248 1.363 . S
N246 C248 1.356 . S
N246 H258 0.984 . S
N246 H259 0.985 . S
N247 C249 1.356 . S
N247 H252 0.984 . S
N247 H253 0.985 . S
C248 C242 1.379 . S
C248 C245 1.363 . S
C248 N246 1.356 . S
C249 C243 1.363 . S
C249 C244 1.379 . S
C249 N247 1.356 . S
N250 C242 1.356 . S
N250 H256 0.984 . S
N250 H257 0.984 . S
N251 C244 1.356 . S
N251 H254 0.984 . S
N251 H255 0.985 . S
H252 N247 0.984 . S
H253 N247 0.985 . S
H254 N251 0.984 . S
H255 N251 0.985 . S
H256 N250 0.984 . S
H257 N250 0.984 . S
H258 N246 0.984 . S
H259 N246 0.985 . S
C260 C261 1.363 . S
C260 C266 1.379 1_556 S
C260 N268 1.356 . S
C261 C260 1.363 . S
C261 C267 1.363 . S
C262 C263 1.363 . S
C262 C267 1.379 1_554 S
C262 N269 1.356 . S
C263 C262 1.363 . S
C263 C266 1.363 . S
N264 C266 1.356 . S
N264 H276 0.984 . S
N264 H277 0.985 . S
N265 C267 1.356 . S
N265 H270 0.984 . S
N265 H271 0.985 . S
C266 C260 1.379 1_554 S
C266 C263 1.363 . S
C266 N264 1.356 . S
C267 C261 1.363 . S
C267 C262 1.379 1_556 S
C267 N265 1.356 . S
N268 C260 1.356 . S
N268 H274 0.984 . S
N268 H275 0.984 . S
N269 C262 1.356 . S
N269 H272 0.984 . S
N269 H273 0.985 . S
H270 N265 0.984 . S
H271 N265 0.985 . S
H272 N269 0.984 . S
H273 N269 0.985 . S
H274 N268 0.984 . S
H275 N268 0.984 . S
H276 N264 0.984 . S
H277 N264 0.985 . S
C278 C279 1.363 . S
C278 C284 1.379 . S
C278 N286 1.356 . S
C279 C278 1.363 . S
C279 C285 1.363 . S
C280 C281 1.363 . S
C280 C285 1.379 . S
C280 N287 1.356 . S
C281 C280 1.363 . S
C281 C284 1.363 . S
N282 C284 1.356 . S
N282 H294 0.984 . S
N282 H295 0.985 . S
N283 C285 1.356 . S
N283 H288 0.984 . S
N283 H289 0.985 . S
C284 C278 1.379 . S
C284 C281 1.363 . S
C284 N282 1.356 . S
C285 C279 1.363 . S
C285 C280 1.379 . S
C285 N283 1.356 . S
N286 C278 1.356 . S
N286 H292 0.984 . S
N286 H293 0.984 . S
N287 C280 1.356 . S
N287 H290 0.984 . S
N287 H291 0.985 . S
H288 N283 0.984 . S
H289 N283 0.985 . S
H290 N287 0.984 . S
H291 N287 0.985 . S
H292 N286 0.984 . S
H293 N286 0.984 . S
H294 N282 0.984 . S
H295 N282 0.985 . S
C296 C297 1.363 . S
C296 C302 1.379 1_554 S
C296 N304 1.356 . S
C297 C296 1.363 . S
C297 C303 1.363 . S
C298 C299 1.363 . S
C298 C303 1.379 1_556 S
C298 N305 1.356 . S
C299 C298 1.363 . S
C299 C302 1.363 . S
N300 C302 1.356 . S
N300 H312 0.984 . S
N300 H313 0.985 . S
N301 C303 1.356 . S
N301 H306 0.984 . S
N301 H307 0.985 . S
C302 C296 1.379 1_556 S
C302 C299 1.363 . S
C302 N300 1.356 . S
C303 C297 1.363 . S
C303 C298 1.379 1_554 S
C303 N301 1.356 . S
N304 C296 1.356 . S
N304 H310 0.984 . S
N304 H311 0.984 . S
N305 C298 1.356 . S
N305 H308 0.984 . S
N305 H309 0.985 . S
H306 N301 0.984 . S
H307 N301 0.985 . S
H308 N305 0.984 . S
H309 N305 0.985 . S
H310 N304 0.984 . S
H311 N304 0.984 . S
H312 N300 0.984 . S
H313 N300 0.985 . S
C314 C315 1.363 . S
C314 C320 1.379 . S
C314 N322 1.356 . S
C315 C314 1.363 . S
C315 C321 1.363 . S
C316 C317 1.363 . S
C316 C321 1.379 . S
C316 N323 1.356 . S
C317 C316 1.363 . S
C317 C320 1.363 . S
N318 C320 1.356 . S
N318 H330 0.984 . S
N318 H331 0.985 . S
N319 C321 1.356 . S
N319 H324 0.984 . S
N319 H325 0.985 . S
C320 C314 1.379 . S
C320 C317 1.363 . S
C320 N318 1.356 . S
C321 C315 1.363 . S
C321 C316 1.379 . S
C321 N319 1.356 . S
N322 C314 1.356 . S
N322 H328 0.984 . S
N322 H329 0.984 . S
N323 C316 1.356 . S
N323 H326 0.984 . S
N323 H327 0.985 . S
H324 N319 0.984 . S
H325 N319 0.985 . S
H326 N323 0.984 . S
H327 N323 0.985 . S
H328 N322 0.984 . S
H329 N322 0.984 . S
H330 N318 0.984 . S
H331 N318 0.985 . S
C332 C333 1.363 . S
C332 C338 1.379 1_556 S
C332 N340 1.356 . S
C333 C332 1.363 . S
C333 C339 1.363 . S
C334 C335 1.363 . S
C334 C339 1.379 1_554 S
C334 N341 1.356 . S
C335 C334 1.363 . S
C335 C338 1.363 . S
N336 C338 1.356 . S
N336 H348 0.984 . S
N336 H349 0.985 . S
N337 C339 1.356 . S
N337 H342 0.984 . S
N337 H343 0.985 . S
C338 C332 1.379 1_554 S
C338 C335 1.363 . S
C338 N336 1.356 . S
C339 C333 1.363 . S
C339 C334 1.379 1_556 S
C339 N337 1.356 . S
N340 C332 1.356 . S
N340 H346 0.984 . S
N340 H347 0.984 . S
N341 C334 1.356 . S
N341 H344 0.984 . S
N341 H345 0.985 . S
H342 N337 0.984 . S
H343 N337 0.985 . S
H344 N341 0.984 . S
H345 N341 0.985 . S
H346 N340 0.984 . S
H347 N340 0.984 . S
H348 N336 0.984 . S
H349 N336 0.985 . S
C350 C351 1.363 . S
C350 C356 1.379 . S
C350 N358 1.356 . S
C351 C350 1.363 . S
C351 C357 1.363 . S
C352 C353 1.363 . S
C352 C357 1.379 . S
C352 N359 1.356 . S
C353 C352 1.363 . S
C353 C356 1.363 . S
N354 C356 1.356 . S
N354 H366 0.984 . S
N354 H367 0.985 . S
N355 C357 1.356 . S
N355 H360 0.984 . S
N355 H361 0.985 . S
C356 C350 1.379 . S
C356 C353 1.363 . S
C356 N354 1.356 . S
C357 C351 1.363 . S
C357 C352 1.379 . S
C357 N355 1.356 . S
N358 C350 1.356 . S
N358 H364 0.984 . S
N358 H365 0.984 . S
N359 C352 1.356 . S
N359 H362 0.984 . S
N359 H363 0.985 . S
H360 N355 0.984 . S
H361 N355 0.985 . S
H362 N359 0.984 . S
H363 N359 0.985 . S
H364 N358 0.984 . S
H365 N358 0.984 . S
H366 N354 0.984 . S
H367 N354 0.985 . S
C368 C369 1.363 . S
C368 C374 1.379 . S
C368 N376 1.356 . S
C369 C368 1.363 . S
C369 C375 1.363 . S
C370 C371 1.363 . S
C370 C375 1.379 . S
C370 N377 1.356 . S
C371 C370 1.363 . S
C371 C374 1.363 . S
N372 C374 1.356 . S
N372 H384 0.984 . S
N372 H385 0.985 . S
N373 C375 1.356 . S
N373 H378 0.984 . S
N373 H379 0.985 . S
C374 C368 1.379 . S
C374 C371 1.363 . S
C374 N372 1.356 . S
C375 C369 1.363 . S
C375 C370 1.379 . S
C375 N373 1.356 . S
N376 C368 1.356 . S
N376 H382 0.984 . S
N376 H383 0.984 . S
N377 C370 1.356 . S
N377 H380 0.984 . S
N377 H381 0.985 . S
H378 N373 0.984 . S
H379 N373 0.985 . S
H380 N377 0.984 . S
H381 N377 0.985 . S
H382 N376 0.984 . S
H383 N376 0.984 . S
H384 N372 0.984 . S
H385 N372 0.985 . S
C386 C387 1.363 . S
C386 C392 1.379 . S
C386 N394 1.356 . S
C387 C386 1.363 . S
C387 C393 1.363 . S
C388 C389 1.363 . S
C388 C393 1.379 . S
C388 N395 1.356 . S
C389 C388 1.363 . S
C389 C392 1.363 . S
N390 C392 1.356 . S
N390 H402 0.984 . S
N390 H403 0.985 . S
N391 C393 1.356 . S
N391 H396 0.984 . S
N391 H397 0.985 . S
C392 C386 1.379 . S
C392 C389 1.363 . S
C392 N390 1.356 . S
C393 C387 1.363 . S
C393 C388 1.379 . S
C393 N391 1.356 . S
N394 C386 1.356 . S
N394 H400 0.984 . S
N394 H401 0.984 . S
N395 C388 1.356 . S
N395 H398 0.984 . S
N395 H399 0.985 . S
H396 N391 0.984 . S
H397 N391 0.985 . S
H398 N395 0.984 . S
H399 N395 0.985 . S
H400 N394 0.984 . S
H401 N394 0.984 . S
H402 N390 0.984 . S
H403 N390 0.985 . S
C404 C405 1.363 . S
C404 C410 1.379 . S
C404 N412 1.356 . S
C405 C404 1.363 . S
C405 C411 1.363 . S
C406 C407 1.363 . S
C406 C411 1.379 . S
C406 N413 1.356 . S
C407 C406 1.363 . S
C407 C410 1.363 . S
N408 C410 1.356 . S
N408 H420 0.984 . S
N408 H421 0.985 . S
N409 C411 1.356 . S
N409 H414 0.984 . S
N409 H415 0.985 . S
C410 C404 1.379 . S
C410 C407 1.363 . S
C410 N408 1.356 . S
C411 C405 1.363 . S
C411 C406 1.379 . S
C411 N409 1.356 . S
N412 C404 1.356 . S
N412 H418 0.984 . S
N412 H419 0.984 . S
N413 C406 1.356 . S
N413 H416 0.984 . S
N413 H417 0.985 . S
H414 N409 0.984 . S
H415 N409 0.985 . S
H416 N413 0.984 . S
H417 N413 0.985 . S
H418 N412 0.984 . S
H419 N412 0.984 . S
H420 N408 0.984 . S
H421 N408 0.985 . S
C422 C423 1.363 . S
C422 C428 1.379 . S
C422 N430 1.356 . S
C423 C422 1.363 . S
C423 C429 1.363 . S
C424 C425 1.363 . S
C424 C429 1.379 . S
C424 N431 1.356 . S
C425 C424 1.363 . S
C425 C428 1.363 . S
N426 C428 1.356 . S
N426 H438 0.984 . S
N426 H439 0.985 . S
N427 C429 1.356 . S
N427 H432 0.984 . S
N427 H433 0.985 . S
C428 C422 1.379 . S
C428 C425 1.363 . S
C428 N426 1.356 . S
C429 C423 1.363 . S
C429 C424 1.379 . S
C429 N427 1.356 . S
N430 C422 1.356 . S
N430 H436 0.984 . S
N430 H437 0.984 . S
N431 C424 1.356 . S
N431 H434 0.984 . S
N431 H435 0.985 . S
H432 N427 0.984 . S
H433 N427 0.985 . S
H434 N431 0.984 . S
H435 N431 0.985 . S
H436 N430 0.984 . S
H437 N430 0.984 . S
H438 N426 0.984 . S
H439 N426 0.985 . S
C440 C441 1.363 . S
C440 C446 1.379 . S
C440 N448 1.356 . S
C441 C440 1.363 . S
C441 C447 1.363 . S
C442 C443 1.363 . S
C442 C447 1.379 . S
C442 N449 1.356 . S
C443 C442 1.363 . S
C443 C446 1.363 . S
N444 C446 1.356 . S
N444 H456 0.984 . S
N444 H457 0.985 . S
N445 C447 1.356 . S
N445 H450 0.984 . S
N445 H451 0.985 . S
C446 C440 1.379 . S
C446 C443 1.363 . S
C446 N444 1.356 . S
C447 C441 1.363 . S
C447 C442 1.379 . S
C447 N445 1.356 . S
N448 C440 1.356 . S
N448 H454 0.984 . S
N448 H455 0.984 . S
N449 C442 1.356 . S
N449 H452 0.984 . S
N449 H453 0.985 . S
H450 N445 0.984 . S
H451 N445 0.985 . S
H452 N449 0.984 . S
H453 N449 0.985 . S
H454 N448 0.984 . S
H455 N448 0.984 . S
H456 N444 0.984 . S
H457 N444 0.985 . S
C458 C459 1.363 . S
C458 C464 1.379 . S
C458 N466 1.356 . S
C459 C458 1.363 . S
C459 C465 1.363 . S
C460 C461 1.363 . S
C460 C465 1.379 . S
C460 N467 1.356 . S
C461 C460 1.363 . S
C461 C464 1.363 . S
N462 C464 1.356 . S
N462 H474 0.984 . S
N462 H475 0.985 . S
N463 C465 1.356 . S
N463 H468 0.984 . S
N463 H469 0.985 . S
C464 C458 1.379 . S
C464 C461 1.363 . S
C464 N462 1.356 . S
C465 C459 1.363 . S
C465 C460 1.379 . S
C465 N463 1.356 . S
N466 C458 1.356 . S
N466 H472 0.984 . S
N466 H473 0.984 . S
N467 C460 1.356 . S
N467 H470 0.984 . S
N467 H471 0.985 . S
H468 N463 0.984 . S
H469 N463 0.985 . S
H470 N467 0.984 . S
H471 N467 0.985 . S
H472 N466 0.984 . S
H473 N466 0.984 . S
H474 N462 0.984 . S
H475 N462 0.985 . S
C476 C477 1.363 . S
C476 C482 1.379 . S
C476 N484 1.356 . S
C477 C476 1.363 . S
C477 C483 1.363 . S
C478 C479 1.363 . S
C478 C483 1.379 . S
C478 N485 1.356 . S
C479 C478 1.363 . S
C479 C482 1.363 . S
N480 C482 1.356 . S
N480 H492 0.984 . S
N480 H493 0.985 . S
N481 C483 1.356 . S
N481 H486 0.984 . S
N481 H487 0.985 . S
C482 C476 1.379 . S
C482 C479 1.363 . S
C482 N480 1.356 . S
C483 C477 1.363 . S
C483 C478 1.379 . S
C483 N481 1.356 . S
N484 C476 1.356 . S
N484 H490 0.984 . S
N484 H491 0.984 . S
N485 C478 1.356 . S
N485 H488 0.984 . S
N485 H489 0.985 . S
H486 N481 0.984 . S
H487 N481 0.985 . S
H488 N485 0.984 . S
H489 N485 0.985 . S
H490 N484 0.984 . S
H491 N484 0.984 . S
H492 N480 0.984 . S
H493 N480 0.985 . S
C494 C495 1.363 . S
C494 C500 1.379 . S
C494 N502 1.356 . S
C495 C494 1.363 . S
C495 C501 1.363 . S
C496 C497 1.363 . S
C496 C501 1.379 . S
C496 N503 1.356 . S
C497 C496 1.363 . S
C497 C500 1.363 . S
N498 C500 1.356 . S
N498 H510 0.984 . S
N498 H511 0.985 . S
N499 C501 1.356 . S
N499 H504 0.984 . S
N499 H505 0.985 . S
C500 C494 1.379 . S
C500 C497 1.363 . S
C500 N498 1.356 . S
C501 C495 1.363 . S
C501 C496 1.379 . S
C501 N499 1.356 . S
N502 C494 1.356 . S
N502 H508 0.984 . S
N502 H509 0.984 . S
N503 C496 1.356 . S
N503 H506 0.984 . S
N503 H507 0.985 . S
H504 N499 0.984 . S
H505 N499 0.985 . S
H506 N503 0.984 . S
H507 N503 0.985 . S
H508 N502 0.984 . S
H509 N502 0.984 . S
H510 N498 0.984 . S
H511 N498 0.985 . S
C512 C513 1.363 . S
C512 C518 1.379 . S
C512 N520 1.356 . S
C513 C512 1.363 . S
C513 C519 1.363 . S
C514 C515 1.363 . S
C514 C519 1.379 . S
C514 N521 1.356 . S
C515 C514 1.363 . S
C515 C518 1.363 . S
N516 C518 1.356 . S
N516 H528 0.984 1_545 S
N516 H529 0.985 . S
N517 C519 1.356 . S
N517 H522 0.984 . S
N517 H523 0.985 . S
C518 C512 1.379 . S
C518 C515 1.363 . S
C518 N516 1.356 . S
C519 C513 1.363 . S
C519 C514 1.379 . S
C519 N517 1.356 . S
N520 C512 1.356 . S
N520 H526 0.984 1_545 S
N520 H527 0.984 . S
N521 C514 1.356 . S
N521 H524 0.984 . S
N521 H525 0.985 . S
H522 N517 0.984 . S
H523 N517 0.985 . S
H524 N521 0.984 . S
H525 N521 0.985 . S
H526 N520 0.984 1_565 S
H527 N520 0.984 . S
H528 N516 0.984 1_565 S
H529 N516 0.985 . S
C530 C531 1.363 . S
C530 C536 1.379 . S
C530 N538 1.356 . S
C531 C530 1.363 . S
C531 C537 1.363 . S
C532 C533 1.363 . S
C532 C537 1.379 . S
C532 N539 1.356 . S
C533 C532 1.363 . S
C533 C536 1.363 . S
N534 C536 1.356 . S
N534 H546 0.984 . S
N534 H547 0.985 . S
N535 C537 1.356 . S
N535 H540 0.984 . S
N535 H541 0.985 . S
C536 C530 1.379 . S
C536 C533 1.363 . S
C536 N534 1.356 . S
C537 C531 1.363 . S
C537 C532 1.379 . S
C537 N535 1.356 . S
N538 C530 1.356 . S
N538 H544 0.984 . S
N538 H545 0.984 . S
N539 C532 1.356 . S
N539 H542 0.984 . S
N539 H543 0.985 . S
H540 N535 0.984 . S
H541 N535 0.985 . S
H542 N539 0.984 . S
H543 N539 0.985 . S
H544 N538 0.984 . S
H545 N538 0.984 . S
H546 N534 0.984 . S
H547 N534 0.985 . S
C548 C549 1.363 . S
C548 C554 1.379 . S
C548 N556 1.356 . S
C549 C548 1.363 . S
C549 C555 1.363 . S
C550 C551 1.363 . S
C550 C555 1.379 . S
C550 N557 1.356 . S
C551 C550 1.363 . S
C551 C554 1.363 . S
N552 C554 1.356 . S
N552 H564 0.984 . S
N552 H565 0.985 . S
N553 C555 1.356 . S
N553 H558 0.984 . S
N553 H559 0.985 . S
C554 C548 1.379 . S
C554 C551 1.363 . S
C554 N552 1.356 . S
C555 C549 1.363 . S
C555 C550 1.379 . S
C555 N553 1.356 . S
N556 C548 1.356 . S
N556 H562 0.984 . S
N556 H563 0.984 . S
N557 C550 1.356 . S
N557 H560 0.984 . S
N557 H561 0.985 . S
H558 N553 0.984 . S
H559 N553 0.985 . S
H560 N557 0.984 . S
H561 N557 0.985 . S
H562 N556 0.984 . S
H563 N556 0.984 . S
H564 N552 0.984 . S
H565 N552 0.985 . S
C566 C567 1.363 . S
C566 C572 1.379 . S
C566 N574 1.356 . S
C567 C566 1.363 . S
C567 C573 1.363 . S
C568 C569 1.363 . S
C568 C573 1.379 . S
C568 N575 1.356 . S
C569 C568 1.363 . S
C569 C572 1.363 . S
N570 C572 1.356 . S
N570 H582 0.984 . S
N570 H583 0.985 . S
N571 C573 1.356 . S
N571 H576 0.984 . S
N571 H577 0.985 . S
C572 C566 1.379 . S
C572 C569 1.363 . S
C572 N570 1.356 . S
C573 C567 1.363 . S
C573 C568 1.379 . S
C573 N571 1.356 . S
N574 C566 1.356 . S
N574 H580 0.984 . S
N574 H581 0.984 . S
N575 C568 1.356 . S
N575 H578 0.984 . S
N575 H579 0.985 . S
H576 N571 0.984 . S
H577 N571 0.985 . S
H578 N575 0.984 . S
H579 N575 0.985 . S
H580 N574 0.984 . S
H581 N574 0.984 . S
H582 N570 0.984 . S
H583 N570 0.985 . S
C584 C585 1.363 . S
C584 C590 1.379 . S
C584 N592 1.356 . S
C585 C584 1.363 . S
C585 C591 1.363 . S
C586 C587 1.363 . S
C586 C591 1.379 . S
C586 N593 1.356 . S
C587 C586 1.363 . S
C587 C590 1.363 . S
N588 C590 1.356 . S
N588 H600 0.984 1_565 S
N588 H601 0.985 . S
N589 C591 1.356 . S
N589 H594 0.984 . S
N589 H595 0.985 . S
C590 C584 1.379 . S
C590 C587 1.363 . S
C590 N588 1.356 . S
C591 C585 1.363 . S
C591 C586 1.379 . S
C591 N589 1.356 . S
N592 C584 1.356 . S
N592 H598 0.984 1_565 S
N592 H599 0.984 . S
N593 C586 1.356 . S
N593 H596 0.984 . S
N593 H597 0.985 . S
H594 N589 0.984 . S
H595 N589 0.985 . S
H596 N593 0.984 . S
H597 N593 0.985 . S
H598 N592 0.984 1_545 S
H599 N592 0.984 . S
H600 N588 0.984 1_545 S
H601 N588 0.985 . S
C602 C603 1.363 . S
C602 C608 1.379 . S
C602 N610 1.356 . S
C603 C602 1.363 . S
C603 C609 1.363 . S
C604 C605 1.363 . S
C604 C609 1.379 . S
C604 N611 1.356 . S
C605 C604 1.363 . S
C605 C608 1.363 . S
N606 C608 1.356 . S
N606 H618 0.984 . S
N606 H619 0.985 . S
N607 C609 1.356 . S
N607 H612 0.984 . S
N607 H613 0.985 . S
C608 C602 1.379 . S
C608 C605 1.363 . S
C608 N606 1.356 . S
C609 C603 1.363 . S
C609 C604 1.379 . S
C609 N607 1.356 . S
N610 C602 1.356 . S
N610 H616 0.984 . S
N610 H617 0.984 . S
N611 C604 1.356 . S
N611 H614 0.984 . S
N611 H615 0.985 . S
H612 N607 0.984 . S
H613 N607 0.985 . S
H614 N611 0.984 . S
H615 N611 0.985 . S
H616 N610 0.984 . S
H617 N610 0.984 . S
H618 N606 0.984 . S
H619 N606 0.985 . S
C620 C621 1.363 . S
C620 C626 1.379 . S
C620 N628 1.356 . S
C621 C620 1.363 . S
C621 C627 1.363 . S
C622 C623 1.363 . S
C622 C627 1.379 . S
C622 N629 1.356 . S
C623 C622 1.363 . S
C623 C626 1.363 . S
N624 C626 1.356 . S
N624 H636 0.984 . S
N624 H637 0.985 . S
N625 C627 1.356 . S
N625 H630 0.984 . S
N625 H631 0.985 . S
C626 C620 1.379 . S
C626 C623 1.363 . S
C626 N624 1.356 . S
C627 C621 1.363 . S
C627 C622 1.379 . S
C627 N625 1.356 . S
N628 C620 1.356 . S
N628 H634 0.984 . S
N628 H635 0.984 . S
N629 C622 1.356 . S
N629 H632 0.984 . S
N629 H633 0.985 . S
H630 N625 0.984 . S
H631 N625 0.985 . S
H632 N629 0.984 . S
H633 N629 0.985 . S
H634 N628 0.984 . S
H635 N628 0.984 . S
H636 N624 0.984 . S
H637 N624 0.985 . S
C638 C639 1.363 . S
C638 C644 1.379 . S
C638 N646 1.356 . S
C639 C638 1.363 . S
C639 C645 1.363 . S
C640 C641 1.363 . S
C640 C645 1.379 . S
C640 N647 1.356 . S
C641 C640 1.363 . S
C641 C644 1.363 . S
N642 C644 1.356 . S
N642 H654 0.984 . S
N642 H655 0.985 . S
N643 C645 1.356 . S
N643 H648 0.984 . S
N643 H649 0.985 . S
C644 C638 1.379 . S
C644 C641 1.363 . S
C644 N642 1.356 . S
C645 C639 1.363 . S
C645 C640 1.379 . S
C645 N643 1.356 . S
N646 C638 1.356 . S
N646 H652 0.984 . S
N646 H653 0.984 . S
N647 C640 1.356 . S
N647 H650 0.984 . S
N647 H651 0.985 . S
H648 N643 0.984 . S
H649 N643 0.985 . S
H650 N647 0.984 . S
H651 N647 0.985 . S
H652 N646 0.984 . S
H653 N646 0.984 . S
H654 N642 0.984 . S
H655 N642 0.985 . S
C656 C657 1.363 . S
C656 C662 1.379 . S
C656 N664 1.356 1_565 S
C657 C656 1.363 . S
C657 C663 1.363 . S
C658 C659 1.363 . S
C658 C663 1.379 . S
C658 N665 1.356 . S
C659 C658 1.363 . S
C659 C662 1.363 . S
N660 C662 1.356 . S
N660 H672 0.984 . S
N660 H673 0.985 . S
N661 C663 1.356 . S
N661 H666 0.984 . S
N661 H667 0.985 . S
C662 C656 1.379 . S
C662 C659 1.363 . S
C662 N660 1.356 . S
C663 C657 1.363 . S
C663 C658 1.379 . S
C663 N661 1.356 . S
N664 C656 1.356 1_545 S
N664 H670 0.984 . S
N664 H671 0.984 . S
N665 C658 1.356 . S
N665 H668 0.984 . S
N665 H669 0.985 . S
H666 N661 0.984 . S
H667 N661 0.985 . S
H668 N665 0.984 . S
H669 N665 0.985 . S
H670 N664 0.984 . S
H671 N664 0.984 . S
H672 N660 0.984 . S
H673 N660 0.985 . S
C674 C675 1.363 . S
C674 C680 1.379 . S
C674 N682 1.356 . S
C675 C674 1.363 . S
C675 C681 1.363 . S
C676 C677 1.363 . S
C676 C681 1.379 . S
C676 N683 1.356 . S
C677 C676 1.363 . S
C677 C680 1.363 . S
N678 C680 1.356 . S
N678 H690 0.984 . S
N678 H691 0.985 . S
N679 C681 1.356 . S
N679 H684 0.984 . S
N679 H685 0.985 . S
C680 C674 1.379 . S
C680 C677 1.363 . S
C680 N678 1.356 . S
C681 C675 1.363 . S
C681 C676 1.379 . S
C681 N679 1.356 . S
N682 C674 1.356 . S
N682 H688 0.984 . S
N682 H689 0.984 . S
N683 C676 1.356 . S
N683 H686 0.984 . S
N683 H687 0.985 . S
H684 N679 0.984 . S
H685 N679 0.985 . S
H686 N683 0.984 . S
H687 N683 0.985 . S
H688 N682 0.984 . S
H689 N682 0.984 . S
H690 N678 0.984 . S
H691 N678 0.985 . S
C692 C693 1.363 . S
C692 C698 1.379 . S
C692 N700 1.356 . S
C693 C692 1.363 . S
C693 C699 1.363 . S
C694 C695 1.363 . S
C694 C699 1.379 . S
C694 N701 1.356 1_455 S
C695 C694 1.363 . S
C695 C698 1.363 . S
N696 C698 1.356 . S
N696 H708 0.984 . S
N696 H709 0.985 . S
N697 C699 1.356 . S
N697 H702 0.984 . S
N697 H703 0.985 . S
C698 C692 1.379 . S
C698 C695 1.363 . S
C698 N696 1.356 . S
C699 C693 1.363 . S
C699 C694 1.379 . S
C699 N697 1.356 . S
N700 C692 1.356 . S
N700 H706 0.984 . S
N700 H707 0.984 . S
N701 C694 1.356 1_655 S
N701 H704 0.984 . S
N701 H705 0.985 . S
H702 N697 0.984 . S
H703 N697 0.985 . S
H704 N701 0.984 . S
H705 N701 0.985 . S
H706 N700 0.984 . S
H707 N700 0.984 . S
H708 N696 0.984 . S
H709 N696 0.985 . S
C710 C711 1.363 . S
C710 C716 1.379 . S
C710 N718 1.356 1_545 S
C711 C710 1.363 . S
C711 C717 1.363 . S
C712 C713 1.363 . S
C712 C717 1.379 . S
C712 N719 1.356 . S
C713 C712 1.363 . S
C713 C716 1.363 . S
N714 C716 1.356 1_455 S
N714 H726 0.984 . S
N714 H727 0.985 . S
N715 C717 1.356 . S
N715 H720 0.984 . S
N715 H721 0.985 . S
C716 C710 1.379 . S
C716 C713 1.363 . S
C716 N714 1.356 1_655 S
C717 C711 1.363 . S
C717 C712 1.379 . S
C717 N715 1.356 . S
N718 C710 1.356 1_565 S
N718 H724 0.984 . S
N718 H725 0.984 . S
N719 C712 1.356 . S
N719 H722 0.984 . S
N719 H723 0.985 . S
H720 N715 0.984 . S
H721 N715 0.985 . S
H722 N719 0.984 . S
H723 N719 0.985 . S
H724 N718 0.984 . S
H725 N718 0.984 . S
H726 N714 0.984 . S
H727 N714 0.985 . S
C728 C729 1.363 . S
C728 C734 1.379 . S
C728 N736 1.356 . S
C729 C728 1.363 . S
C729 C735 1.363 . S
C730 C731 1.363 . S
C730 C735 1.379 . S
C730 N737 1.356 . S
C731 C730 1.363 . S
C731 C734 1.363 . S
N732 C734 1.356 . S
N732 H744 0.984 . S
N732 H745 0.985 . S
N733 C735 1.356 . S
N733 H738 0.984 . S
N733 H739 0.985 . S
C734 C728 1.379 . S
C734 C731 1.363 . S
C734 N732 1.356 . S
C735 C729 1.363 . S
C735 C730 1.379 . S
C735 N733 1.356 . S
N736 C728 1.356 . S
N736 H742 0.984 . S
N736 H743 0.984 . S
N737 C730 1.356 . S
N737 H740 0.984 . S
N737 H741 0.985 . S
H738 N733 0.984 . S
H739 N733 0.985 . S
H740 N737 0.984 . S
H741 N737 0.985 . S
H742 N736 0.984 . S
H743 N736 0.984 . S
H744 N732 0.984 . S
H745 N732 0.985 . S
C746 C747 1.363 . S
C746 C752 1.379 . S
C746 N754 1.356 . S
C747 C746 1.363 . S
C747 C753 1.363 . S
C748 C749 1.363 . S
C748 C753 1.379 . S
C748 N755 1.356 . S
C749 C748 1.363 . S
C749 C752 1.363 . S
N750 C752 1.356 . S
N750 H762 0.984 . S
N750 H763 0.985 . S
N751 C753 1.356 1_455 S
N751 H756 0.984 . S
N751 H757 0.985 . S
C752 C746 1.379 . S
C752 C749 1.363 . S
C752 N750 1.356 . S
C753 C747 1.363 . S
C753 C748 1.379 . S
C753 N751 1.356 1_655 S
N754 C746 1.356 . S
N754 H760 0.984 . S
N754 H761 0.984 . S
N755 C748 1.356 . S
N755 H758 0.984 . S
N755 H759 0.985 . S
H756 N751 0.984 . S
H757 N751 0.985 . S
H758 N755 0.984 . S
H759 N755 0.985 . S
H760 N754 0.984 . S
H761 N754 0.984 . S
H762 N750 0.984 . S
H763 N750 0.985 . S
C764 C765 1.363 . S
C764 C770 1.379 . S
C764 N772 1.356 . S
C765 C764 1.363 . S
C765 C771 1.363 . S
C766 C767 1.363 . S
C766 C771 1.379 . S
C766 N773 1.356 1_565 S
C767 C766 1.363 . S
C767 C770 1.363 . S
N768 C770 1.356 . S
N768 H780 0.984 . S
N768 H781 0.985 . S
N769 C771 1.356 1_655 S
N769 H774 0.984 . S
N769 H775 0.985 . S
C770 C764 1.379 . S
C770 C767 1.363 . S
C770 N768 1.356 . S
C771 C765 1.363 . S
C771 C766 1.379 . S
C771 N769 1.356 1_455 S
N772 C764 1.356 . S
N772 H778 0.984 . S
N772 H779 0.984 . S
N773 C766 1.356 1_545 S
N773 H776 0.984 . S
N773 H777 0.985 . S
H774 N769 0.984 . S
H775 N769 0.985 . S
H776 N773 0.984 . S
H777 N773 0.985 . S
H778 N772 0.984 . S
H779 N772 0.984 . S
H780 N768 0.984 . S
H781 N768 0.985 . S
C782 C783 1.363 . S
C782 C788 1.379 . S
C782 N790 1.356 1_545 S
C783 C782 1.363 . S
C783 C789 1.363 . S
C784 C785 1.363 . S
C784 C789 1.379 . S
C784 N791 1.356 . S
C785 C784 1.363 . S
C785 C788 1.363 . S
N786 C788 1.356 . S
N786 H798 0.984 . S
N786 H799 0.985 . S
N787 C789 1.356 . S
N787 H792 0.984 . S
N787 H793 0.985 . S
C788 C782 1.379 . S
C788 C785 1.363 . S
C788 N786 1.356 . S
C789 C783 1.363 . S
C789 C784 1.379 . S
C789 N787 1.356 . S
N790 C782 1.356 1_565 S
N790 H796 0.984 . S
N790 H797 0.984 . S
N791 C784 1.356 . S
N791 H794 0.984 . S
N791 H795 0.985 . S
H792 N787 0.984 . S
H793 N787 0.985 . S
H794 N791 0.984 . S
H795 N791 0.985 . S
H796 N790 0.984 . S
H797 N790 0.984 . S
H798 N786 0.984 . S
H799 N786 0.985 . S
C225 C110 1.576 . S
C227 C0 1.576 . S
C243 C57 1.576 . S
C245 C15 1.576 . S
C261 C83 1.576 . S
C263 C29 1.576 . S
C279 C55 1.576 . S
C281 C97 1.576 . S
C297 C223 1.576 . S
C299 C112 1.576 . S
C315 C169 1.576 . S
C317 C126 1.576 . S
C333 C152 1.576 . S
C335 C183 1.576 . S
C351 C166 1.576 . S
C353 C196 1.576 . S
C369 C41 1.483 . S
C371 C12 1.485 . S
C387 C27 1.483 . S
C389 C43 1.483 . S
C405 C69 1.483 . S
C407 C85 1.483 . S
C423 C98 1.485 . S
C425 C71 1.483 . S
C441 C124 1.483 . S
C443 C140 1.483 . S
C459 C138 1.483 . S
C461 C154 1.483 . S
C477 C208 1.483 . S
C479 C181 1.485 . S
C495 C195 1.485 . S
C497 C211 1.485 . S
C513 C96 1.595 . S
C515 C1 1.594 . S
C531 C14 1.595 . S
C533 C111 1.594 . S
C549 C28 1.595 . S
C551 C56 1.595 . S
C567 C54 1.595 . S
C569 C82 1.595 . S
C585 C113 1.595 . S
C587 C197 1.595 . S
C603 C127 1.595 . S
C605 C222 1.594 . S
C621 C153 1.595 . S
C623 C168 1.594 . S
C639 C167 1.595 . S
C641 C182 1.594 . S
C657 C13 1.551 1_565 S
C659 C210 1.551 . S
C675 C180 1.551 . S
C677 C26 1.551 . S
C693 C40 1.551 . S
C695 C194 1.551 1_455 S
C711 C209 1.551 1_545 S
C713 C42 1.551 1_655 S
C729 C139 1.551 . S
C731 C68 1.551 . S
C747 C70 1.551 1_655 S
C749 C141 1.551 . S
C765 C155 1.551 1_455 S
C767 C84 1.551 1_565 S
C783 C125 1.551 1_545 S
C785 C99 1.551 . S
