# Generated by pormake.
# Topology wla, (5)-cn, num edge types: 1
# Building blocks:
#     Node 0, Type 0, BuildingBlock: BEQFEK_clean_sbu_0, # of connection points: 5
#     Node 1, Type 0, BuildingBlock: BEQFEK_clean_sbu_0, # of connection points: 5
#     Node 2, Type 0, BuildingBlock: BEQFEK_clean_sbu_0, # of connection points: 5
#     Node 3, Type 0, BuildingBlock: BEQFEK_clean_sbu_0, # of connection points: 5
#     Node 4, Type 0, BuildingBlock: BEQFEK_clean_sbu_0, # of connection points: 5
#     Node 5, Type 0, BuildingBlock: BEQFEK_clean_sbu_0, # of connection points: 5
#     Node 6, Type 0, BuildingBlock: BEQFEK_clean_sbu_0, # of connection points: 5
#     Node 7, Type 0, BuildingBlock: BEQFEK_clean_sbu_0, # of connection points: 5
#     Node 8, Type 0, BuildingBlock: BEQFEK_clean_sbu_0, # of connection points: 5
#     Node 9, Type 0, BuildingBlock: BEQFEK_clean_sbu_0, # of connection points: 5
#     Node 10, Type 0, BuildingBlock: BEQFEK_clean_sbu_0, # of connection points: 5
#     Node 11, Type 0, BuildingBlock: BEQFEK_clean_sbu_0, # of connection points: 5
#     Node 12, Type 0, BuildingBlock: BEQFEK_clean_sbu_0, # of connection points: 5
#     Node 13, Type 0, BuildingBlock: BEQFEK_clean_sbu_0, # of connection points: 5
#     Node 14, Type 0, BuildingBlock: BEQFEK_clean_sbu_0, # of connection points: 5
#     Node 15, Type 0, BuildingBlock: BEQFEK_clean_sbu_0, # of connection points: 5
#     Node 16, Type 0, BuildingBlock: BEQFEK_clean_sbu_0, # of connection points: 5
#     Node 17, Type 0, BuildingBlock: BEQFEK_clean_sbu_0, # of connection points: 5
#     Edge 18, Type (0, 0), BuildingBlock: EZIPEK_clean_linker_0, # of connection points: 2
#     Edge 19, Type (0, 0), BuildingBlock: EZIPEK_clean_linker_0, # of connection points: 2
#     Edge 20, Type (0, 0), BuildingBlock: EZIPEK_clean_linker_0, # of connection points: 2
#     Edge 21, Type (0, 0), BuildingBlock: EZIPEK_clean_linker_0, # of connection points: 2
#     Edge 22, Type (0, 0), BuildingBlock: EZIPEK_clean_linker_0, # of connection points: 2
#     Edge 23, Type (0, 0), BuildingBlock: EZIPEK_clean_linker_0, # of connection points: 2
#     Edge 24, Type (0, 0), BuildingBlock: EZIPEK_clean_linker_0, # of connection points: 2
#     Edge 25, Type (0, 0), BuildingBlock: EZIPEK_clean_linker_0, # of connection points: 2
#     Edge 26, Type (0, 0), BuildingBlock: EZIPEK_clean_linker_0, # of connection points: 2
#     Edge 27, Type (0, 0), BuildingBlock: EZIPEK_clean_linker_0, # of connection points: 2
#     Edge 28, Type (0, 0), BuildingBlock: EZIPEK_clean_linker_0, # of connection points: 2
#     Edge 29, Type (0, 0), BuildingBlock: EZIPEK_clean_linker_0, # of connection points: 2
#     Edge 30, Type (0, 0), BuildingBlock: EZIPEK_clean_linker_0, # of connection points: 2
#     Edge 31, Type (0, 0), BuildingBlock: EZIPEK_clean_linker_0, # of connection points: 2
#     Edge 32, Type (0, 0), BuildingBlock: EZIPEK_clean_linker_0, # of connection points: 2
#     Edge 33, Type (0, 0), BuildingBlock: EZIPEK_clean_linker_0, # of connection points: 2
#     Edge 34, Type (0, 0), BuildingBlock: EZIPEK_clean_linker_0, # of connection points: 2
#     Edge 35, Type (0, 0), BuildingBlock: EZIPEK_clean_linker_0, # of connection points: 2
#     Edge 36, Type (0, 0), BuildingBlock: EZIPEK_clean_linker_0, # of connection points: 2
#     Edge 37, Type (0, 0), BuildingBlock: EZIPEK_clean_linker_0, # of connection points: 2
#     Edge 38, Type (0, 0), BuildingBlock: EZIPEK_clean_linker_0, # of connection points: 2
#     Edge 39, Type (0, 0), BuildingBlock: EZIPEK_clean_linker_0, # of connection points: 2
#     Edge 40, Type (0, 0), BuildingBlock: EZIPEK_clean_linker_0, # of connection points: 2
#     Edge 41, Type (0, 0), BuildingBlock: EZIPEK_clean_linker_0, # of connection points: 2
#     Edge 42, Type (0, 0), BuildingBlock: EZIPEK_clean_linker_0, # of connection points: 2
#     Edge 43, Type (0, 0), BuildingBlock: EZIPEK_clean_linker_0, # of connection points: 2
#     Edge 44, Type (0, 0), BuildingBlock: EZIPEK_clean_linker_0, # of connection points: 2
#     Edge 45, Type (0, 0), BuildingBlock: EZIPEK_clean_linker_0, # of connection points: 2
#     Edge 46, Type (0, 0), BuildingBlock: EZIPEK_clean_linker_0, # of connection points: 2
#     Edge 47, Type (0, 0), BuildingBlock: EZIPEK_clean_linker_0, # of connection points: 2
#     Edge 48, Type (0, 0), BuildingBlock: EZIPEK_clean_linker_0, # of connection points: 2
#     Edge 49, Type (0, 0), BuildingBlock: EZIPEK_clean_linker_0, # of connection points: 2
#     Edge 50, Type (0, 0), BuildingBlock: EZIPEK_clean_linker_0, # of connection points: 2
#     Edge 51, Type (0, 0), BuildingBlock: EZIPEK_clean_linker_0, # of connection points: 2
#     Edge 52, Type (0, 0), BuildingBlock: EZIPEK_clean_linker_0, # of connection points: 2
#     Edge 53, Type (0, 0), BuildingBlock: EZIPEK_clean_linker_0, # of connection points: 2
#     Edge 54, Type (0, 0), BuildingBlock: EZIPEK_clean_linker_0, # of connection points: 2
#     Edge 55, Type (0, 0), BuildingBlock: EZIPEK_clean_linker_0, # of connection points: 2
#     Edge 56, Type (0, 0), BuildingBlock: EZIPEK_clean_linker_0, # of connection points: 2
#     Edge 57, Type (0, 0), BuildingBlock: EZIPEK_clean_linker_0, # of connection points: 2
#     Edge 58, Type (0, 0), BuildingBlock: EZIPEK_clean_linker_0, # of connection points: 2
#     Edge 59, Type (0, 0), BuildingBlock: EZIPEK_clean_linker_0, # of connection points: 2
#     Edge 60, Type (0, 0), BuildingBlock: EZIPEK_clean_linker_0, # of connection points: 2
#     Edge 61, Type (0, 0), BuildingBlock: EZIPEK_clean_linker_0, # of connection points: 2
#     Edge 62, Type (0, 0), BuildingBlock: EZIPEK_clean_linker_0, # of connection points: 2
# Relax obj value: 0.265
# Max RMSD: 0.180
# Mean RMSD: 0.180
data_MOF--net-wla--node1-BEQFEK_clean_sbu_0--edge1-EZIPEK_clean_linker_0
_symmetry_space_group_name_H-M    P1
_symmetry_Int_Tables_number       1
_symmetry_cell_setting            triclinic
loop_
_symmetry_equiv_pos_as_xyz
'x, y, z'
_cell_length_a     49.487395
_cell_length_b     49.545962
_cell_length_c     22.421157
_cell_angle_alpha  89.977586
_cell_angle_beta   89.996492
_cell_angle_gamma 120.07806
loop_
_atom_site_label
_atom_site_type_symbol
_atom_site_fract_x
_atom_site_fract_y
_atom_site_fract_z
_atom_type_partial_charge
Co0 Co 0.11637 0.00937 0.30506 0.0
Co1 Co 0.18566 0.06113 0.28079 0.0
C2 C 0.16941 0.02447 0.39185 0.0
O3 O 0.1411 0.00968 0.37445 0.0
O4 O 0.191 0.04567 0.35993 0.0
C5 C 0.06712 0.94641 0.33084 0.0
O6 O 0.08901 0.94156 0.35234 0.0
C7 C 0.25363 0.10081 0.2537 0.0
C8 C 0.25041 0.12722 0.17703 0.0
C9 C 0.27137 0.12285 0.21054 0.0
N10 N 0.22348 0.0922 0.24505 0.0
N11 N 0.22188 0.10848 0.19984 0.0
C12 C 0.26482 0.08787 0.30178 0.0
H13 H 0.25669 0.063 0.29198 0.0
H14 H 0.29067 0.10099 0.30529 0.0
H15 H 0.25437 0.08874 0.34502 0.0
C16 C 0.12224 0.99383 0.18122 0.0
N17 N 0.13494 0.00862 0.2328 0.0
N18 N 0.16501 0.02776 0.22521 0.0
C19 C 0.17275 0.02405 0.16939 0.0
C20 C 0.1458 0.00326 0.13909 0.0
C21 C 0.08781 0.97456 0.17067 0.0
H22 H 0.07556 0.98506 0.19413 0.0
H23 H 0.07926 0.95091 0.18923 0.0
H24 H 0.08211 0.97244 0.12243 0.0
O25 O 0.11205 0.04615 0.30625 0.0
O26 O 0.16119 0.0831 0.28965 0.0
H27 H 0.20966 0.06305 0.12352 0.0
H28 H 0.20761 0.02655 0.10878 0.0
C29 C 0.20506 0.04082 0.14409 0.0
H30 H 0.22238 0.04572 0.17983 0.0
H31 H 0.20106 0.10605 0.18334 0.0
O32 O 0.07398 0.97293 0.31011 0.0
C33 C 0.1326 0.07453 0.29865 0.0
Co34 Co 0.99359 0.11078 0.26692 0.0
Co35 Co 0.93796 0.12414 0.26969 0.0
C36 C 0.98419 0.14841 0.36435 0.0
O37 O -0.00156 0.13729 0.33523 0.0
O38 O 0.95846 0.14544 0.34571 0.0
C39 C 0.05856 0.13113 0.27901 0.0
O40 O 0.06084 0.15718 0.29845 0.0
C41 C 0.89463 0.14942 0.25582 0.0
C42 C 0.86547 0.11845 0.1828 0.0
C43 C 0.87082 0.14418 0.21603 0.0
N44 N 0.90338 0.12819 0.2449 0.0
N45 N 0.88539 0.10945 0.20215 0.0
C46 C 0.90941 0.17438 0.30215 0.0
H47 H 0.91046 0.16381 0.34512 0.0
H48 H 0.93381 0.19116 0.28887 0.0
H49 H 0.89625 0.1869 0.30807 0.0
C50 C -0.00296 0.13129 0.14369 0.0
N51 N 0.98597 0.12714 0.19954 0.0
N52 N 0.96647 0.13773 0.20414 0.0
C53 C 0.96638 0.15119 0.15204 0.0
C54 C 0.98485 0.14663 0.11161 0.0
C55 C 0.01685 0.11861 0.12072 0.0
H56 H 0.0132 0.09831 0.14782 0.0
H57 H 0.04175 0.13698 0.12386 0.0
H58 H 0.01144 0.11164 0.07323 0.0
O59 O 0.95871 0.06884 0.2814 0.0
O60 O 0.91923 0.07824 0.28269 0.0
H61 H 0.92601 0.15384 0.1273 0.0
H62 H 0.96242 0.18723 0.10624 0.0
C63 C 0.95039 0.16952 0.14171 0.0
H64 H 0.95052 0.18126 0.18378 0.0
H65 H 0.88779 0.09136 0.18409 0.0
O66 O 0.03245 0.10898 0.26105 0.0
C67 C 0.92977 0.05953 0.2862 0.0
Co68 Co 0.88012 0.87795 0.28417 0.0
Co69 Co 0.87532 0.81305 0.2714 0.0
C70 C 0.84322 0.8268 0.37101 0.0
O71 O 0.85446 0.85473 0.35289 0.0
O72 O 0.84773 0.8073 0.34191 0.0
C73 C 0.86688 0.92751 0.30911 0.0
O74 O 0.8449 0.90783 0.34516 0.0
C75 C 0.84408 0.7503 0.2226 0.0
C76 C 0.88229 0.73944 0.21926 0.0
C77 C 0.8516 0.72849 0.20233 0.0
N78 N 0.86942 0.77354 0.24898 0.0
N79 N 0.89203 0.76669 0.24781 0.0
C80 C 0.81408 0.75023 0.21304 0.0
H81 H 0.81722 0.77373 0.22078 0.0
H82 H 0.80505 0.74201 0.16737 0.0
H83 H 0.79635 0.73387 0.24508 0.0
C84 C 0.86015 0.8661 0.15891 0.0
N85 N 0.86532 0.85655 0.2117 0.0
N86 N 0.86718 0.83124 0.20374 0.0
C87 C 0.86499 0.82494 0.14479 0.0
C88 C 0.85979 0.84634 0.11483 0.0
C89 C 0.85858 0.89521 0.15037 0.0
H90 H 0.84311 0.89633 0.18482 0.0
H91 H 0.84971 0.89603 0.10533 0.0
H92 H 0.88225 0.91578 0.15614 0.0
O93 O 0.92309 0.8862 0.29751 0.0
O94 O 0.91953 0.83962 0.29463 0.0
H95 H 0.88387 0.81134 0.0716 0.0
H96 H 0.85145 0.77993 0.10899 0.0
C97 C 0.87305 0.80263 0.11601 0.0
H98 H 0.88954 0.79935 0.14424 0.0
H99 H 0.91457 0.78135 0.26382 0.0
O100 O 0.88345 0.91919 0.27994 0.0
C101 C 0.93544 0.86906 0.3014 0.0
Co102 Co -0.00044 0.12555 0.69701 0.0
Co103 Co 0.05749 0.1924 0.71682 0.0
C104 C 0.02217 0.17768 0.60548 0.0
O105 O 0.00393 0.15053 0.62629 0.0
O106 O 0.04569 0.19812 0.63476 0.0
C107 C 0.94416 0.07211 0.64899 0.0
O108 O 0.94869 0.08888 0.60069 0.0
C109 C 0.10294 0.25914 0.74569 0.0
C110 C 0.12639 0.25137 0.82245 0.0
C111 C 0.1252 0.27447 0.79 0.0
N112 N 0.09115 0.22829 0.75275 0.0
N113 N 0.1057 0.22396 0.79798 0.0
C114 C 0.09246 0.27323 0.69856 0.0
H115 H 0.06867 0.26867 0.70957 0.0
H116 H 0.10859 0.29877 0.69499 0.0
H117 H 0.09101 0.2619 0.65506 0.0
C118 C 0.98619 0.13686 0.81786 0.0
N119 N 0.00131 0.14692 0.76574 0.0
N120 N 0.02274 0.17651 0.7701 0.0
C121 C 0.02008 0.18688 0.824 0.0
C122 C -0.0021 0.16188 0.85686 0.0
C123 C 0.96457 0.10316 0.83206 0.0
H124 H 0.94112 0.09608 0.81376 0.0
H125 H 0.96248 0.09879 0.88082 0.0
H126 H 0.97303 0.08862 0.8105 0.0
O127 O 0.03323 0.11656 0.6984 0.0
O128 O 0.07461 0.16329 0.71328 0.0
H129 H 0.06124 0.22389 0.86446 0.0
H130 H 0.02616 0.22482 0.87979 0.0
C131 C 0.03897 0.21981 0.84491 0.0
H132 H 0.04389 0.23567 0.80652 0.0
H133 H 0.10062 0.20206 0.81362 0.0
O134 O 0.96147 0.08419 0.6943 0.0
C135 C 0.06238 0.13406 0.70537 0.0
Co136 Co 0.88139 0.88375 0.68938 0.0
Co137 Co 0.81624 0.87864 0.7111 0.0
C138 C 0.82685 0.84744 0.60696 0.0
O139 O 0.8552 0.85852 0.6226 0.0
O140 O 0.80781 0.85171 0.63847 0.0
C141 C 0.92706 0.86365 0.66835 0.0
O142 O 0.90407 0.83724 0.64796 0.0
C143 C 0.75142 0.85178 0.7548 0.0
C144 C 0.75069 0.89455 0.78008 0.0
C145 C 0.73317 0.86236 0.7813 0.0
N146 N 0.77889 0.87667 0.73942 0.0
N147 N 0.77811 0.90214 0.75403 0.0
C148 C 0.74353 0.81865 0.74725 0.0
H149 H 0.7649 0.81738 0.73793 0.0
H150 H 0.73167 0.80497 0.78784 0.0
H151 H 0.72711 0.80825 0.70928 0.0
C152 C 0.87232 0.86292 0.81458 0.0
N153 N 0.86174 0.8688 0.76368 0.0
N154 N 0.83515 0.86796 0.77421 0.0
C155 C 0.82843 0.86215 0.83279 0.0
C156 C 0.85157 0.8586 0.85997 0.0
C157 C 0.9028 0.86373 0.82038 0.0
H158 H 0.90304 0.84659 0.78906 0.0
H159 H 0.9066 0.85809 0.86642 0.0
H160 H 0.9221 0.88722 0.80783 0.0
O161 O 0.8907 0.92711 0.67844 0.0
O162 O 0.84405 0.92291 0.68858 0.0
H163 H 0.80581 0.86517 0.91317 0.0
H164 H 0.78021 0.84212 0.85395 0.0
C165 C 0.80254 0.86358 0.86408 0.0
H166 H 0.80137 0.88417 0.8485 0.0
H167 H 0.79674 0.92478 0.74815 0.0
O168 O 0.92194 0.88495 0.68669 0.0
C169 C 0.87323 0.93914 0.67857 0.0
Co170 Co 0.10329 0.98914 0.7138 0.0
Co171 Co 0.12327 0.93826 0.72827 0.0
C172 C 0.14774 0.98252 0.62817 0.0
O173 O 0.13183 0.99465 0.64664 0.0
O174 O 0.14841 0.96059 0.65675 0.0
C175 C 0.11296 0.05227 0.71993 0.0
O176 O 0.14216 0.06133 0.73307 0.0
C177 C 0.15681 0.90365 0.7588 0.0
C178 C 0.11846 0.8629 0.8046 0.0
C179 C 0.14968 0.87665 0.78993 0.0
N180 N 0.13084 0.90595 0.75587 0.0
N181 N 0.108 0.88124 0.78267 0.0
C182 C 0.18808 0.92748 0.73541 0.0
H183 H 0.18833 0.94939 0.72392 0.0
H184 H 0.20642 0.93218 0.76897 0.0
H185 H 0.19337 0.91813 0.69486 0.0
C186 C 0.11938 0.997 0.84339 0.0
N187 N 0.119 0.98552 0.78863 0.0
N188 N 0.13047 0.96667 0.79228 0.0
C189 C 0.14051 0.96751 0.84848 0.0
C190 C 0.13326 0.98614 0.88291 0.0
C191 C 0.10202 0.01331 0.8599 0.0
H192 H 0.07749 -0.00127 0.84507 0.0
H193 H 0.11269 0.03626 0.83746 0.0
H194 H 0.10209 0.01696 0.90871 0.0
O195 O 0.06399 0.95143 0.69922 0.0
O196 O 0.07765 0.91511 0.70555 0.0
H197 H 0.13805 0.92502 0.87358 0.0
H198 H 0.16706 0.9586 0.91393 0.0
C199 C 0.15586 0.95007 0.86976 0.0
H200 H 0.1739 0.95302 0.83707 0.0
H201 H 0.0854 0.87741 0.78786 0.0
O202 O 0.09383 0.02358 0.71066 0.0
C203 C 0.05721 0.92315 0.69678 0.0
Co204 Co 0.7875 0.34233 0.63557 0.0
Co205 Co 0.85637 0.39594 0.61358 0.0
C206 C 0.83998 0.35399 0.7196 0.0
O207 O 0.8116 0.33932 0.70275 0.0
O208 O 0.86102 0.37627 0.68865 0.0
C209 C 0.73036 0.29357 0.68546 0.0
O210 O 0.74493 0.30231 0.73692 0.0
C211 C 0.92272 0.42821 0.57415 0.0
C212 C 0.92788 0.47275 0.54198 0.0
C213 C 0.94334 0.45605 0.54603 0.0
N214 N 0.89603 0.42829 0.58532 0.0
N215 N 0.89955 0.45521 0.56677 0.0
C216 C 0.92756 0.40128 0.58668 0.0
H217 H 0.90479 0.37958 0.5933 0.0
H218 H 0.94074 0.39826 0.54971 0.0
H219 H 0.94154 0.40607 0.62804 0.0
C220 C 0.79213 0.33122 0.50852 0.0
N221 N 0.80566 0.34478 0.5606 0.0
N222 N 0.835 0.36612 0.5512 0.0
C223 C 0.8413 0.36588 0.49264 0.0
C224 C 0.81427 0.34411 0.46345 0.0
C225 C 0.75776 0.30956 0.50135 0.0
H226 H 0.74484 0.31988 0.52286 0.0
H227 H 0.75109 0.28724 0.52437 0.0
H228 H 0.75084 0.30483 0.45377 0.0
O229 O 0.78361 0.37915 0.6457 0.0
O230 O 0.83229 0.41776 0.63149 0.0
H231 H 0.87622 0.41203 0.46924 0.0
H232 H 0.87207 0.38284 0.41583 0.0
C233 C 0.87176 0.3879 0.46391 0.0
H234 H 0.89065 0.38592 0.48598 0.0
H235 H 0.88212 0.46116 0.56891 0.0
O236 O 0.74466 0.30662 0.63759 0.0
C237 C 0.80356 0.408 0.64225 0.0
Co238 Co 0.66285 0.44419 0.61447 0.0
Co239 Co 0.61083 0.46251 0.60309 0.0
C240 C 0.64323 0.47305 0.71497 0.0
O241 O 0.65842 0.46163 0.69005 0.0
O242 O 0.62234 0.47594 0.68715 0.0
C243 C 0.72561 0.46086 0.64717 0.0
O244 O 0.72628 0.48452 0.6749 0.0
C245 C 0.57027 0.49039 0.58192 0.0
C246 C 0.54673 0.46459 0.49964 0.0
C247 C 0.5494 0.48778 0.5376 0.0
N248 N 0.57992 0.47001 0.5696 0.0
N249 N 0.56538 0.45442 0.52096 0.0
C250 C 0.58129 0.51202 0.63422 0.0
H251 H 0.57972 0.49876 0.67523 0.0
H252 H 0.60624 0.52982 0.62777 0.0
H253 H 0.56737 0.52378 0.63975 0.0
C254 C 0.68054 0.47642 0.49946 0.0
N255 N 0.66485 0.46933 0.55129 0.0
N256 N 0.64632 0.4812 0.55187 0.0
C257 C 0.65155 0.49836 0.50213 0.0
C258 C 0.67234 0.49479 0.46638 0.0
C259 C 0.69864 0.4616 0.47767 0.0
H260 H 0.72381 0.47939 0.47647 0.0
H261 H 0.69149 0.45284 0.43147 0.0
H262 H 0.69498 0.44203 0.50692 0.0
O263 O 0.62674 0.40252 0.60452 0.0
O264 O 0.59009 0.4159 0.5999 0.0
H265 H 0.61339 0.50097 0.46319 0.0
H266 H 0.6505 0.53598 0.45655 0.0
C267 C 0.6356 0.51626 0.4867 0.0
H268 H 0.63076 0.52532 0.52803 0.0
H269 H 0.56898 0.43741 0.5012 0.0
O270 O 0.7013 0.44138 0.61899 0.0
C271 C 0.59831 0.39532 0.60022 0.0
Co272 Co 0.54095 0.21263 0.60683 0.0
Co273 Co 0.54295 0.15152 0.62816 0.0
C274 C 0.50848 0.17445 0.70866 0.0
O275 O 0.51169 0.1956 0.67265 0.0
O276 O 0.51945 0.1566 0.69674 0.0
C277 C 0.52676 0.26256 0.59432 0.0
O278 O 0.49884 0.24272 0.61484 0.0
C279 C 0.50838 0.08483 0.60604 0.0
C280 C 0.54584 0.07293 0.60756 0.0
C281 C 0.51483 0.06135 0.59226 0.0
N282 N 0.53479 0.10966 0.62585 0.0
N283 N 0.55689 0.10213 0.6282 0.0
C284 C 0.47836 0.08466 0.59652 0.0
H285 H 0.48131 0.10117 0.5603 0.0
H286 H 0.45912 0.06098 0.58483 0.0
H287 H 0.47232 0.09295 0.63759 0.0
C288 C 0.52331 0.18734 0.48674 0.0
N289 N 0.52846 0.18426 0.54441 0.0
N290 N 0.53451 0.16143 0.55047 0.0
C291 C 0.5363 0.15118 0.49563 0.0
C292 C 0.52801 0.16638 0.45406 0.0
C293 C 0.51828 0.21263 0.4629 0.0
H294 H 0.50293 0.21642 0.49366 0.0
H295 H 0.50769 0.20671 0.41773 0.0
H296 H 0.54112 0.23456 0.46013 0.0
O297 O 0.58395 0.22307 0.63321 0.0
O298 O 0.58678 0.17992 0.64506 0.0
H299 H 0.57892 0.1535 0.47073 0.0
H300 H 0.54492 0.12054 0.44083 0.0
C301 C 0.55451 0.13537 0.4811 0.0
H302 H 0.55521 0.12152 0.51883 0.0
H303 H 0.58007 0.11766 0.6396 0.0
O304 O 0.54619 0.25352 0.58371 0.0
C305 C 0.59936 0.20945 0.64566 0.0
Co306 Co 0.68016 0.45048 0.06289 0.0
Co307 Co 0.73225 0.52111 0.04975 0.0
C308 C 0.68261 0.49038 0.95928 0.0
O309 O 0.66983 0.46595 0.9914 0.0
O310 O 0.70773 0.51473 0.97528 0.0
C311 C 0.6181 0.3976 0.0587 0.0
O312 O 0.611 0.41684 0.03208 0.0
C313 C 0.76399 0.5904 0.05234 0.0
C314 C 0.80594 0.6001 0.10415 0.0
C315 C 0.79017 0.61411 0.08061 0.0
N316 N 0.76394 0.56347 0.06095 0.0
N317 N 0.78949 0.56966 0.09055 0.0
C318 C 0.73931 0.59291 0.01843 0.0
H319 H 0.71615 0.5775 0.03897 0.0
H320 H 0.74416 0.61734 0.01708 0.0
H321 H 0.73832 0.58442 0.97223 0.0
C322 C 0.67626 0.47106 0.18297 0.0
N323 N 0.68719 0.47685 0.12687 0.0
N324 N 0.70695 0.50686 0.12039 0.0
C325 C 0.70816 0.52123 0.17222 0.0
C326 C 0.68893 0.49907 0.21333 0.0
C327 C 0.65626 0.43912 0.20838 0.0
H328 H 0.63142 0.4323 0.20232 0.0
H329 H 0.66068 0.43874 0.25682 0.0
H330 H 0.66073 0.422 0.18519 0.0
O331 O 0.7178 0.4482 0.04755 0.0
O332 O 0.75525 0.49794 0.04017 0.0
H333 H 0.75144 0.56363 0.18372 0.0
H334 H 0.71908 0.56244 0.2234 0.0
C335 C 0.72615 0.55556 0.18171 0.0
H336 H 0.72146 0.56655 0.14349 0.0
H337 H 0.79478 0.55274 0.10452 0.0
O338 O 0.64575 0.40736 0.07705 0.0
C339 C 0.74621 0.46895 0.04005 0.0
Co340 Co 0.54789 0.20596 0.03667 0.0
Co341 Co 0.48521 0.20321 0.0749 0.0
C342 C 0.49248 0.18146 0.95522 0.0
O343 O 0.52024 0.18811 0.96761 0.0
O344 O 0.47544 0.18574 0.99233 0.0
C345 C 0.59694 0.19784 0.9797 0.0
O346 O 0.57795 0.18406 0.93469 0.0
C347 C 0.41912 0.18029 0.10753 0.0
C348 C 0.42554 0.21238 0.18177 0.0
C349 C 0.40305 0.18658 0.15118 0.0
N350 N 0.44974 0.20103 0.1132 0.0
N351 N 0.45328 0.22048 0.15683 0.0
C352 C 0.40595 0.15489 0.06184 0.0
H353 H 0.41449 0.1651 0.017 0.0
H354 H 0.41454 0.13845 0.0708 0.0
H355 H 0.38004 0.1421 0.06206 0.0
C356 C 0.53932 0.17546 0.15239 0.0
N357 N 0.52827 0.18501 0.10719 0.0
N358 N 0.50202 0.18354 0.12362 0.0
C359 C 0.49556 0.17276 0.18007 0.0
C360 C 0.51921 0.16794 0.20029 0.0
C361 C 0.57072 0.17802 0.15267 0.0
H362 H 0.58905 0.20267 0.14524 0.0
H363 H 0.57181 0.16392 0.11546 0.0
H364 H 0.57524 0.16961 0.19534 0.0
O365 O 0.55989 0.2502 0.04322 0.0
O366 O 0.5157 0.24841 0.06933 0.0
H367 H 0.47649 0.19548 0.23147 0.0
H368 H 0.46594 0.15728 0.25829 0.0
C369 C 0.46998 0.17152 0.21756 0.0
H370 H 0.44812 0.16123 0.19152 0.0
H371 H 0.47486 0.2387 0.17095 0.0
O372 O 0.5878 0.20659 0.02481 0.0
C373 C 0.5446 0.26368 0.05653 0.0
Co374 Co 0.77594 0.32658 0.03419 0.0
Co375 Co 0.79139 0.27397 0.05905 0.0
C376 C 0.81983 0.31419 0.95607 0.0
O377 O 0.80471 0.32776 0.97089 0.0
O378 O 0.81911 0.29248 0.98806 0.0
C379 C 0.79814 0.3917 0.02395 0.0
O380 O 0.82583 0.39435 0.01946 0.0
C381 C 0.81406 0.23095 0.09769 0.0
C382 C 0.78003 0.20645 0.17021 0.0
C383 C 0.80639 0.20915 0.14323 0.0
N384 N 0.79334 0.24095 0.09866 0.0
N385 N 0.77283 0.22578 0.14141 0.0
C386 C 0.841 0.24291 0.0554 0.0
H387 H 0.85903 0.26678 0.06911 0.0
H388 H 0.85141 0.2276 0.05489 0.0
H389 H 0.83313 0.24456 0.00989 0.0
C390 C 0.78831 0.33623 0.16365 0.0
N391 N 0.78869 0.32334 0.111 0.0
N392 N 0.79999 0.30466 0.11869 0.0
C393 C 0.80962 0.30707 0.17566 0.0
C394 C 0.80168 0.32635 0.20671 0.0
C395 C 0.77263 0.35501 0.17327 0.0
H396 H 0.75227 0.34684 0.14297 0.0
H397 H 0.78929 0.37978 0.16267 0.0
H398 H 0.76496 0.35347 0.22029 0.0
O399 O 0.73494 0.29111 0.01848 0.0
O400 O 0.74667 0.25365 0.03087 0.0
H401 H 0.811 0.26925 0.21911 0.0
H402 H 0.8435 0.307 0.23564 0.0
C403 C 0.82735 0.29235 0.19974 0.0
H404 H 0.84085 0.28953 0.16331 0.0
H405 H 0.75471 0.22978 0.15287 0.0
O406 O 0.77391 0.36499 0.0291 0.0
C407 C 0.72722 0.26251 0.01783 0.0
Co408 Co 0.45767 0.68026 0.9754 0.0
Co409 Co 0.52546 0.7366 0.95544 0.0
C410 C 0.51143 0.69513 0.05972 0.0
O411 O 0.48311 0.67976 0.04265 0.0
O412 O 0.53217 0.71771 0.02895 0.0
C413 C 0.41199 0.61477 0.98928 0.0
O414 O 0.43544 0.61043 0.00194 0.0
C415 C 0.59198 0.7743 0.91702 0.0
C416 C 0.59186 0.81544 0.87906 0.0
C417 C 0.6103 0.80204 0.8866 0.0
N418 N 0.56363 0.77113 0.92613 0.0
N419 N 0.56401 0.7961 0.90412 0.0
C420 C 0.60072 0.75048 0.93379 0.0
H421 H 0.5796 0.72791 0.94484 0.0
H422 H 0.61384 0.74735 0.89685 0.0
H423 H 0.61627 0.75888 0.97335 0.0
C424 C 0.46365 0.67111 0.84841 0.0
N425 N 0.47639 0.68442 0.90106 0.0
N426 N 0.50554 0.7065 0.89294 0.0
C427 C 0.5127 0.70661 0.83485 0.0
C428 C 0.48629 0.68465 0.80454 0.0
C429 C 0.42946 0.64924 0.8393 0.0
H430 H 0.41577 0.65695 0.86625 0.0
H431 H 0.4236 0.62568 0.85472 0.0
H432 H 0.42278 0.64785 0.79169 0.0
O433 O 0.45047 0.71497 0.98566 0.0
O434 O 0.49871 0.75525 0.97693 0.0
H435 H 0.54611 0.75269 0.80926 0.0
H436 H 0.54496 0.72308 0.76052 0.0
C437 C 0.54332 0.72908 0.80752 0.0
H438 H 0.56233 0.72896 0.83313 0.0
H439 H 0.54481 0.79944 0.9042 0.0
O440 O 0.41673 0.6419 0.97793 0.0
C441 C 0.46956 0.74413 0.9859 0.0
Co442 Co 0.34104 0.79921 0.96595 0.0
Co443 Co 0.27771 0.79806 0.95163 0.0
C444 C 0.32216 0.83358 0.05074 0.0
O445 O 0.34075 0.82452 0.03304 0.0
O446 O 0.29718 0.82626 0.02209 0.0
C447 C 0.39907 0.80642 0.00818 0.0
O448 O 0.39437 0.8192 0.05543 0.0
C449 C 0.23942 0.82366 0.91006 0.0
C450 C 0.19357 0.78113 0.89624 0.0
C451 C 0.20957 0.81317 0.88878 0.0
N452 N 0.24129 0.79889 0.92842 0.0
N453 N 0.21374 0.77355 0.92069 0.0
C454 C 0.26623 0.85642 0.90962 0.0
H455 H 0.2887 0.85675 0.91476 0.0
H456 H 0.26625 0.86834 0.86767 0.0
H457 H 0.26358 0.8694 0.94733 0.0
C458 C 0.34781 0.81788 0.84 0.0
N459 N 0.3329 0.81206 0.89272 0.0
N460 N 0.30525 0.80923 0.88482 0.0
C461 C 0.30132 0.81215 0.82608 0.0
C462 C 0.32818 0.81799 0.79607 0.0
C463 C 0.37885 0.82017 0.83137 0.0
H464 H 0.39539 0.83569 0.86593 0.0
H465 H 0.38844 0.82922 0.78633 0.0
H466 H 0.37619 0.7967 0.83696 0.0
O467 O 0.30903 0.7554 0.97943 0.0
O468 O 0.2638 0.7546 0.97512 0.0
H469 H 0.27059 0.79932 0.74968 0.0
H470 H 0.26862 0.82615 0.80064 0.0
C471 C 0.27118 0.80523 0.79757 0.0
H472 H 0.25133 0.78544 0.82053 0.0
H473 H 0.20901 0.75097 0.93012 0.0
O474 O 0.38056 0.79859 0.96407 0.0
C475 C 0.2794 0.74083 0.98263 0.0
Co476 Co 0.23043 0.55622 0.95535 0.0
Co477 Co 0.21731 0.48834 0.93215 0.0
C478 C 0.18993 0.50139 0.03719 0.0
O479 O 0.2035 0.52992 0.02127 0.0
O480 O 0.19161 0.48081 0.00575 0.0
C481 C 0.23142 0.60939 0.00804 0.0
O482 O 0.22176 0.59228 0.0566 0.0
C483 C 0.19104 0.42121 0.9026 0.0
C484 C 0.22391 0.42566 0.8312 0.0
C485 C 0.1968 0.40427 0.86001 0.0
N486 N 0.21333 0.45135 0.89774 0.0
N487 N 0.23323 0.45365 0.85597 0.0
C488 C 0.16447 0.40942 0.94579 0.0
H489 H 0.17363 0.41856 0.99097 0.0
H490 H 0.1488 0.41842 0.93283 0.0
H491 H 0.15104 0.38355 0.94695 0.0
C492 C 0.21051 0.55018 0.8293 0.0
N493 N 0.21453 0.53839 0.8806 0.0
N494 N 0.20694 0.50915 0.87225 0.0
C495 C 0.19654 0.50113 0.8159 0.0
C496 C 0.19904 0.52683 0.78664 0.0
C497 C 0.21954 0.58356 0.82055 0.0
H498 H 0.24389 0.59884 0.836 0.0
H499 H 0.20417 0.58881 0.84829 0.0
H500 H 0.21738 0.58861 0.77309 0.0
O501 O 0.27197 0.5617 0.9655 0.0
O502 O 0.26256 0.51326 0.95312 0.0
H503 H 0.20459 0.46762 0.77186 0.0
H504 H 0.16858 0.46571 0.75158 0.0
C505 C 0.1847 0.46961 0.78925 0.0
H506 H 0.17215 0.4518 0.82381 0.0
H507 H 0.25245 0.47467 0.84241 0.0
O508 O 0.23527 0.59806 0.96014 0.0
C509 C 0.28121 0.542 0.96378 0.0
Co510 Co 0.34111 0.79558 0.37024 0.0
Co511 Co 0.39994 0.86175 0.39087 0.0
C512 C 0.35728 0.84878 0.28655 0.0
O513 O 0.34054 0.82043 0.3024 0.0
O514 O 0.38034 0.86824 0.31801 0.0
C515 C 0.28426 0.74263 0.32598 0.0
O516 O 0.28838 0.75991 0.27865 0.0
C517 C 0.43252 0.9253 0.43937 0.0
C518 C 0.48018 0.93298 0.4522 0.0
C519 C 0.46155 0.94596 0.46278 0.0
N520 N 0.4336 0.90069 0.41716 0.0
N521 N 0.46228 0.90565 0.42414 0.0
C522 C 0.40387 0.92821 0.4408 0.0
H523 H 0.40179 0.93744 0.48461 0.0
H524 H 0.40593 0.9451 0.40606 0.0
H525 H 0.3827 0.90537 0.43167 0.0
C526 C 0.32884 0.80492 0.49498 0.0
N527 N 0.34509 0.81568 0.44385 0.0
N528 N 0.37096 0.84217 0.45442 0.0
C529 C 0.37255 0.84827 0.51335 0.0
C530 C 0.34581 0.82526 0.54057 0.0
C531 C 0.29919 0.77439 0.50085 0.0
H532 H 0.28248 0.77283 0.46624 0.0
H533 H 0.28862 0.77169 0.54569 0.0
H534 H 0.30409 0.75513 0.49317 0.0
O535 O 0.37682 0.78846 0.36065 0.0
O536 O 0.4185 0.83575 0.3712 0.0
H537 H 0.40138 0.86546 0.59223 0.0
H538 H 0.40098 0.89465 0.54586 0.0
C539 C 0.40103 0.87233 0.54524 0.0
H540 H 0.42233 0.87554 0.52263 0.0
H541 H 0.46932 0.88978 0.412 0.0
O542 O 0.30308 0.75368 0.36963 0.0
C543 C 0.40625 0.80669 0.36137 0.0
Co544 Co 0.21959 0.55653 0.36148 0.0
Co545 Co 0.15284 0.54777 0.3762 0.0
C546 C 0.16887 0.51962 0.27335 0.0
O547 O 0.19676 0.53135 0.2921 0.0
O548 O 0.14847 0.52267 0.30263 0.0
C549 C 0.26746 0.53914 0.35039 0.0
O550 O 0.245 0.51095 0.33672 0.0
C551 C 0.088 0.51129 0.41819 0.0
C552 C 0.0763 0.54812 0.43574 0.0
C553 C 0.06492 0.51638 0.44109 0.0
N554 N 0.11228 0.53892 0.40134 0.0
N555 N 0.10502 0.5608 0.41155 0.0
C556 C 0.08771 0.48102 0.41474 0.0
H557 H 0.10323 0.48053 0.44993 0.0
H558 H 0.06378 0.46095 0.42121 0.0
H559 H 0.09715 0.47914 0.37102 0.0
C560 C 0.20938 0.53753 0.48749 0.0
N561 N 0.19852 0.53998 0.43396 0.0
N562 N 0.17147 0.53833 0.44099 0.0
C563 C 0.16476 0.53611 0.49953 0.0
C564 C 0.1864 0.53111 0.53094 0.0
C565 C 0.24385 0.55185 0.49815 0.0
H566 H 0.25685 0.57223 0.46835 0.0
H567 H 0.25128 0.5347 0.48748 0.0
H568 H 0.25051 0.56038 0.54448 0.0
O569 O 0.22592 0.59871 0.35109 0.0
O570 O 0.17845 0.59312 0.35726 0.0
H571 H 0.1569 0.56191 0.56939 0.0
H572 H 0.12276 0.53541 0.52695 0.0
C573 C 0.14806 0.55191 0.52458 0.0
H574 H 0.15157 0.57131 0.49479 0.0
H575 H 0.12001 0.58451 0.40353 0.0
O576 O 0.26132 0.56061 0.36157 0.0
C577 C 0.20786 0.61008 0.34984 0.0
Co578 Co 0.44715 0.66828 0.37698 0.0
Co579 Co 0.46475 0.61701 0.40184 0.0
C580 C 0.49005 0.65589 0.29612 0.0
O581 O 0.475 0.66944 0.31164 0.0
O582 O 0.48997 0.63453 0.3281 0.0
C583 C 0.463 0.73171 0.34924 0.0
O584 O 0.49007 0.73601 0.33086 0.0
C585 C 0.49046 0.57601 0.43565 0.0
C586 C 0.4581 0.55006 0.50965 0.0
C587 C 0.48417 0.55382 0.47965 0.0
N588 N 0.46921 0.58523 0.44027 0.0
N589 N 0.44976 0.56929 0.48398 0.0
C590 C 0.51636 0.58874 0.39094 0.0
H591 H 0.53377 0.61309 0.4032 0.0
H592 H 0.52798 0.57455 0.3891 0.0
H593 H 0.50701 0.58937 0.3463 0.0
C594 C 0.46145 0.67862 0.50631 0.0
N595 N 0.46215 0.66648 0.45295 0.0
N596 N 0.47476 0.64882 0.45939 0.0
C597 C 0.48519 0.65153 0.51577 0.0
C598 C 0.47628 0.6697 0.54786 0.0
C599 C 0.44229 0.69355 0.51971 0.0
H600 H 0.42842 0.69288 0.48038 0.0
H601 H 0.45772 0.71801 0.53389 0.0
H602 H 0.42629 0.68121 0.55749 0.0
O603 O 0.40631 0.63179 0.36647 0.0
O604 O 0.41894 0.59513 0.38148 0.0
H605 H 0.48749 0.61415 0.5591 0.0
H606 H 0.51992 0.65211 0.57418 0.0
C607 C 0.50345 0.63716 0.53893 0.0
H608 H 0.51665 0.6342 0.50206 0.0
H609 H 0.43133 0.57235 0.49768 0.0
O610 O 0.44268 0.70556 0.37061 0.0
C611 C 0.39885 0.60332 0.36986 0.0
C612 C 0.11073 0.10415 0.34841 0.0
C613 C 0.12194 0.09742 0.29571 0.0
C614 C 0.10084 0.12392 0.23586 0.0
C615 C 0.08468 0.12515 0.28686 0.0
N616 N 0.07422 0.1175 0.39247 0.0
N617 N 0.12832 0.1006 0.18874 0.0
C618 C 0.09011 0.11618 0.34372 0.0
C619 C 0.11778 0.10782 0.23928 0.0
N620 N 0.11983 0.09888 0.40266 0.0
N621 N 0.09994 0.13829 0.18449 0.0
H622 H 0.1414 0.08941 0.18957 0.0
H623 H 0.12272 0.10416 0.1458 0.0
H624 H 0.08812 0.15074 0.18179 0.0
H625 H 0.11323 0.14051 0.14685 0.0
H626 H 0.11471 0.10567 0.44305 0.0
H627 H 0.13505 0.09014 0.4068 0.0
H628 H 0.07413 0.10775 0.43364 0.0
H629 H 0.05975 0.12716 0.39105 0.0
C630 C 0.89919 0.9801 0.35425 0.0
C631 C 0.87702 0.96095 0.31092 0.0
C632 C 0.88603 0.00697 0.25439 0.0
C633 C 0.90822 0.0261 0.29794 0.0
N634 N 0.9287 0.03162 0.39742 0.0
N635 N 0.84332 0.95543 0.22895 0.0
C636 C 0.91248 0.01285 0.35054 0.0
C637 C 0.86837 0.97422 0.26403 0.0
N638 N 0.90879 0.96714 0.39714 0.0
N639 N 0.88316 0.01978 0.20246 0.0
H640 H 0.82984 0.93143 0.23608 0.0
H641 H 0.83414 0.96386 0.19701 0.0
H642 H 0.89571 0.04366 0.19375 0.0
H643 H 0.86996 0.0066 0.16629 0.0
H644 H 0.9283 0.9803 0.42385 0.0
H645 H 0.89866 0.94311 0.40318 0.0
H646 H 0.93021 0.02305 0.43895 0.0
H647 H 0.93771 0.05568 0.39661 0.0
C648 C 0.98069 0.90335 0.36648 0.0
C649 C 0.96916 0.88418 0.31509 0.0
C650 C 0.02257 0.89867 0.28654 0.0
C651 C 0.03402 0.92163 0.33188 0.0
N652 N 0.02498 0.94635 0.41592 0.0
N653 N 0.97895 0.86534 0.22274 0.0
C654 C 0.01333 0.92397 0.37248 0.0
C655 C 0.98998 0.88179 0.27465 0.0
N656 N 0.96032 0.90129 0.40991 0.0
N657 N 0.04289 0.89334 0.25439 0.0
H658 H 0.95537 0.85315 0.21136 0.0
H659 H 0.99337 0.86582 0.18844 0.0
H660 H 0.06696 0.90573 0.26146 0.0
H661 H 0.03577 0.87485 0.22467 0.0
H662 H 0.9672 0.91328 0.4501 0.0
H663 H 0.93639 0.88544 0.40798 0.0
H664 H 0.01121 0.95196 0.44237 0.0
H665 H 0.04887 0.9604 0.42394 0.0
C666 C 0.07889 0.07276 0.75857 0.0
C667 C 0.10202 0.07524 0.71767 0.0
C668 C 0.10261 0.12049 0.67094 0.0
C669 C 0.08089 0.11856 0.71426 0.0
N670 N 0.05641 0.0998 0.80973 0.0
N671 N 0.13866 0.10367 0.63859 0.0
C672 C 0.07186 0.09702 0.76163 0.0
C673 C 0.11507 0.10009 0.67543 0.0
N674 N 0.06227 0.04664 0.79251 0.0
N675 N 0.11006 0.14065 0.6241 0.0
H676 H 0.14658 0.08776 0.63667 0.0
H677 H 0.15143 0.12321 0.61178 0.0
H678 H 0.10225 0.15663 0.62114 0.0
H679 H 0.12264 0.14058 0.58695 0.0
H680 H 0.04319 0.04274 0.81854 0.0
H681 H 0.06472 0.02715 0.78924 0.0
H682 H 0.05191 0.08653 0.8484 0.0
H683 H 0.05124 0.11774 0.81355 0.0
C684 C 0.90003 0.02541 0.69723 0.0
C685 C 0.92172 0.03815 0.64961 0.0
C686 C 0.90482 0.98541 0.61342 0.0
C687 C 0.88743 0.97294 0.66655 0.0
N688 N 0.87122 0.98139 0.76315 0.0
N689 N 0.94815 0.02997 0.5666 0.0
C690 C 0.8854 0.99295 0.70939 0.0
C691 C 0.92481 0.01813 0.60824 0.0
N692 N 0.89324 0.04438 0.73046 0.0
N693 N 0.90185 0.96599 0.56749 0.0
H694 H 0.96403 0.05367 0.56165 0.0
H695 H 0.95358 0.01598 0.54034 0.0
H696 H 0.8869 0.94189 0.56921 0.0
H697 H 0.91167 0.97411 0.52563 0.0
H698 H 0.87552 0.03602 0.76228 0.0
H699 H 0.9032 0.06819 0.72186 0.0
H700 H 0.87216 0.99552 0.79841 0.0
H701 H 0.86085 0.9579 0.77472 0.0
C702 C 0.01251 0.90452 0.62724 0.0
C703 C 0.0247 0.89986 0.6809 0.0
C704 C 0.97189 0.86052 0.71172 0.0
C705 C 0.95972 0.87057 0.66511 0.0
N706 N 0.96788 0.9018 0.57735 0.0
N707 N 0.01632 0.87363 0.7756 0.0
C708 C 0.97986 0.89208 0.62186 0.0
C709 C 0.00459 0.87732 0.72303 0.0
N710 N 0.0323 0.9209 0.58158 0.0
N711 N 0.95213 0.83534 0.74553 0.0
H712 H 0.04008 0.88556 0.78551 0.0
H713 H 0.00237 0.86026 0.81094 0.0
H714 H 0.92818 0.82256 0.73727 0.0
H715 H 0.95976 0.82532 0.77733 0.0
H716 H 0.02463 0.92284 0.53939 0.0
H717 H 0.05638 0.92985 0.58432 0.0
H718 H 0.98173 0.92107 0.55062 0.0
H719 H 0.94394 0.8917 0.56967 0.0
C720 C 0.75513 0.44023 0.70321 0.0
C721 C 0.75208 0.45517 0.65188 0.0
C722 C 0.78971 0.44599 0.59789 0.0
C723 C 0.79191 0.43006 0.64864 0.0
N724 N 0.78466 0.42012 0.75399 0.0
N725 N 0.77256 0.48048 0.55777 0.0
C726 C 0.77726 0.42998 0.70289 0.0
C727 C 0.77154 0.46085 0.60164 0.0
N728 N 0.73561 0.43412 0.75076 0.0
N729 N 0.80317 0.44517 0.54518 0.0
H730 H 0.75978 0.49199 0.56041 0.0
H731 H 0.78815 0.4877 0.52215 0.0
H732 H 0.81708 0.43499 0.54082 0.0
H733 H 0.79912 0.453 0.5049 0.0
H734 H 0.73369 0.41938 0.78565 0.0
H735 H 0.7198 0.44219 0.7535 0.0
H736 H 0.77716 0.42242 0.79603 0.0
H737 H 0.80099 0.41264 0.75474 0.0
C738 C 0.57024 0.34598 0.54119 0.0
C739 C 0.57432 0.36204 0.5957 0.0
C740 C 0.5422 0.31273 0.64807 0.0
C741 C 0.53826 0.29649 0.59357 0.0
N742 N 0.54093 0.29749 0.48645 0.0
N743 N 0.55745 0.36208 0.69648 0.0
C744 C 0.54992 0.31315 0.53943 0.0
C745 C 0.55787 0.34583 0.64757 0.0
N746 N 0.58634 0.36205 0.49157 0.0
N747 N 0.53306 0.29682 0.70089 0.0
H748 H 0.56886 0.38637 0.69759 0.0
H749 H 0.54339 0.35155 0.73359 0.0
H750 H 0.52144 0.2726 0.70385 0.0
H751 H 0.53904 0.30768 0.74241 0.0
H752 H 0.5873 0.35133 0.45235 0.0
H753 H 0.60009 0.38633 0.4906 0.0
H754 H 0.54656 0.30841 0.44498 0.0
H755 H 0.52502 0.27364 0.4843 0.0
C756 C 0.64215 0.25139 0.70658 0.0
C757 C 0.63285 0.22874 0.66068 0.0
C758 C 0.68748 0.24395 0.64327 0.0
C759 C 0.6969 0.26964 0.68231 0.0
N760 N 0.68311 0.30062 0.74512 0.0
N761 N 0.64697 0.20675 0.57827 0.0
C762 C 0.67425 0.27405 0.71288 0.0
C763 C 0.65555 0.22565 0.62735 0.0
N764 N 0.62034 0.25086 0.74477 0.0
N765 N 0.70901 0.23675 0.62214 0.0
H766 H 0.62398 0.19369 0.56343 0.0
H767 H 0.66304 0.20635 0.54879 0.0
H768 H 0.73257 0.24932 0.63391 0.0
H769 H 0.703 0.21651 0.59812 0.0
H770 H 0.62592 0.26549 0.7816 0.0
H771 H 0.59679 0.23376 0.74304 0.0
H772 H 0.66731 0.30657 0.76266 0.0
H773 H 0.70627 0.31824 0.75001 0.0
C774 C 0.77752 0.42177 0.97123 0.0
C775 C 0.79424 0.41924 0.02016 0.0
C776 C 0.78732 0.45767 0.07635 0.0
C777 C 0.76868 0.45831 0.02904 0.0
N778 N 0.75439 0.44982 0.92557 0.0
N779 N 0.82266 0.44046 0.11162 0.0
C780 C 0.76665 0.44328 0.97434 0.0
C781 C 0.80199 0.43941 0.07 0.0
N782 N 0.77085 0.40255 0.92307 0.0
N783 N 0.78931 0.4729 0.12841 0.0
H784 H 0.83331 0.42693 0.10848 0.0
H785 H 0.83121 0.45642 0.14656 0.0
H786 H 0.77963 0.48725 0.13343 0.0
H787 H 0.79933 0.47041 0.1673 0.0
H788 H 0.75465 0.39973 0.8905 0.0
H789 H 0.78049 0.38819 0.91733 0.0
H790 H 0.75459 0.44166 0.88293 0.0
H791 H 0.74686 0.46609 0.92694 0.0
C792 C 0.59305 0.3472 0.0029 0.0
C793 C 0.59618 0.36369 0.05657 0.0
C794 C 0.56513 0.31455 0.1104 0.0
C795 C 0.56096 0.29808 0.05625 0.0
N796 N 0.56521 0.29834 0.94905 0.0
N797 N 0.58 0.36413 0.15757 0.0
C798 C 0.57321 0.31431 0.00185 0.0
C799 C 0.58059 0.34766 0.10923 0.0
N800 N 0.60996 0.36282 0.95357 0.0
N801 N 0.55564 0.29867 0.16321 0.0
H802 H 0.59048 0.38836 0.15715 0.0
H803 H 0.56667 0.3538 0.19556 0.0
H804 H 0.54432 0.2744 0.16601 0.0
H805 H 0.56116 0.30954 0.20473 0.0
H806 H 0.61158 0.35173 0.91544 0.0
H807 H 0.6242 0.38701 0.952 0.0
H808 H 0.57055 0.30914 0.90745 0.0
H809 H 0.55083 0.27419 0.94661 0.0
C810 C 0.67451 0.21537 0.03887 0.0
C811 C 0.69494 0.23952 0.99961 0.0
C812 C 0.65077 0.23047 0.93663 0.0
C813 C 0.63031 0.2069 0.97678 0.0
N814 N 0.6234 0.16952 0.05207 0.0
N815 N 0.70396 0.26235 0.9015 0.0
C816 C 0.64254 0.19682 0.02317 0.0
C817 C 0.68349 0.24441 0.94509 0.0
N818 N 0.68491 0.21151 0.09287 0.0
N819 N 0.63919 0.24118 0.89314 0.0
H820 H 0.7281 0.27238 0.90621 0.0
H821 H 0.69697 0.2645 0.85876 0.0
H822 H 0.61542 0.23145 0.88453 0.0
H823 H 0.65323 0.26114 0.86815 0.0
H824 H 0.67009 0.19653 0.12573 0.0
H825 H 0.70796 0.22501 0.10691 0.0
H826 H 0.63137 0.15959 0.08341 0.0
H827 H 0.60015 0.15519 0.03938 0.0
C828 C 0.44531 0.80552 0.96622 0.0
C829 C 0.42159 0.79513 0.01011 0.0
C830 C 0.43683 0.75834 0.0479 0.0
C831 C 0.45685 0.76503 0.99799 0.0
N832 N 0.47707 0.79226 0.90456 0.0
N833 N 0.39156 0.75848 0.08812 0.0
C834 C 0.46074 0.78827 0.95614 0.0
C835 C 0.41665 0.77091 0.05031 0.0
N836 N 0.45297 0.83185 0.9341 0.0
N837 N 0.43713 0.73985 0.0929 0.0
H838 H 0.37576 0.76651 0.09104 0.0
H839 H 0.3847 0.73835 0.1131 0.0
H840 H 0.45277 0.73152 0.09388 0.0
H841 H 0.42402 0.73511 0.13177 0.0
H842 H 0.47207 0.84228 0.90538 0.0
H843 H 0.44201 0.84494 0.94066 0.0
H844 H 0.47765 0.8064 0.86964 0.0
H845 H 0.48777 0.77935 0.89399 0.0
C846 C 0.23986 0.68552 0.95537 0.0
C847 C 0.2631 0.70697 0.99503 0.0
C848 C 0.26418 0.664 0.04676 0.0
C849 C 0.23986 0.6425 0.00901 0.0
N850 N 0.19899 0.63213 0.93859 0.0
N851 N 0.29121 0.71629 0.0876 0.0
C852 C 0.22585 0.65309 0.96699 0.0
C853 C 0.27322 0.69604 0.04381 0.0
N854 N 0.23264 0.69577 0.90447 0.0
N855 N 0.27998 0.65429 0.08273 0.0
H856 H 0.29723 0.73971 0.08809 0.0
H857 H 0.29755 0.70928 0.12629 0.0
H858 H 0.27461 0.63114 0.08573 0.0
H859 H 0.30021 0.6696 0.10581 0.0
H860 H 0.21844 0.6808 0.871 0.0
H861 H 0.24303 0.71921 0.89261 0.0
H862 H 0.18611 0.63873 0.91168 0.0
H863 H 0.18788 0.6082 0.94687 0.0
C864 C 0.3344 0.55282 0.93126 0.0
C865 C 0.31446 0.55325 0.97633 0.0
C866 C 0.35955 0.58831 0.03711 0.0
C867 C 0.37947 0.5888 0.99124 0.0
N868 N 0.38683 0.5651 0.90376 0.0
N869 N 0.3073 0.56305 0.0786 0.0
C870 C 0.36716 0.56862 0.94154 0.0
C871 C 0.32687 0.56829 0.0315 0.0
N872 N 0.32238 0.53938 0.87722 0.0
N873 N 0.37185 0.60795 0.08478 0.0
H874 H 0.28321 0.54801 0.07593 0.0
H875 H 0.31519 0.57105 0.12153 0.0
H876 H 0.39585 0.62135 0.09237 0.0
H877 H 0.35833 0.6121 0.11492 0.0
H878 H 0.33611 0.54155 0.84034 0.0
H879 H 0.29856 0.52778 0.86775 0.0
H880 H 0.37914 0.54872 0.86952 0.0
H881 H 0.41094 0.57663 0.91029 0.0
C882 C 0.45401 0.76957 0.40595 0.0
C883 C 0.45641 0.75765 0.35018 0.0
C884 C 0.433 0.78484 0.29996 0.0
C885 C 0.42671 0.79313 0.3567 0.0
N886 N 0.43092 0.79414 0.46405 0.0
N887 N 0.45762 0.7612 0.24322 0.0
C888 C 0.43768 0.78625 0.40984 0.0
C889 C 0.44891 0.76763 0.29672 0.0
N890 N 0.46847 0.76579 0.45453 0.0
N891 N 0.42223 0.79198 0.24964 0.0
H892 H 0.4684 0.74779 0.23948 0.0
H893 H 0.457 0.77158 0.20334 0.0
H894 H 0.41154 0.80556 0.25055 0.0
H895 H 0.42266 0.78356 0.20736 0.0
H896 H 0.47005 0.776 0.49588 0.0
H897 H 0.48169 0.75475 0.45165 0.0
H898 H 0.43485 0.78652 0.50466 0.0
H899 H 0.4197 0.80709 0.46871 0.0
C900 C 0.23704 0.69683 0.37001 0.0
C901 C 0.26066 0.70902 0.32571 0.0
C902 C 0.24169 0.65638 0.28724 0.0
C903 C 0.22212 0.64389 0.33786 0.0
N904 N 0.20303 0.65229 0.43128 0.0
N905 N 0.28859 0.69983 0.24724 0.0
C906 C 0.21988 0.66408 0.38003 0.0
C907 C 0.26363 0.68873 0.2851 0.0
N908 N 0.23081 0.71657 0.40191 0.0
N909 N 0.23906 0.63733 0.24084 0.0
H910 H 0.30559 0.72333 0.24425 0.0
H911 H 0.29391 0.68521 0.22278 0.0
H912 H 0.22263 0.61354 0.24039 0.0
H913 H 0.25077 0.64573 0.20046 0.0
H914 H 0.21203 0.70889 0.43119 0.0
H915 H 0.24256 0.74058 0.39433 0.0
H916 H 0.20358 0.66625 0.46651 0.0
H917 H 0.19035 0.62852 0.44084 0.0
C918 C 0.35221 0.58026 0.30419 0.0
C919 C 0.36583 0.57961 0.35927 0.0
C920 C 0.31418 0.54154 0.39783 0.0
C921 C 0.3005 0.54743 0.34774 0.0
N922 N 0.30578 0.57208 0.25245 0.0
N923 N 0.36013 0.56044 0.46024 0.0
C924 C 0.31931 0.56633 0.30019 0.0
C925 C 0.34703 0.5599 0.40627 0.0
N926 N 0.37082 0.59399 0.25565 0.0
N927 N 0.29569 0.51886 0.43764 0.0
H928 H 0.38402 0.57375 0.46839 0.0
H929 H 0.34714 0.5494 0.4982 0.0
H930 H 0.27156 0.50519 0.43218 0.0
H931 H 0.30444 0.51162 0.47254 0.0
H932 H 0.36207 0.59261 0.21286 0.0
H933 H 0.39507 0.60402 0.25723 0.0
H934 H 0.31844 0.58948 0.22121 0.0
H935 H 0.28164 0.5606 0.24609 0.0
C936 C 0.35304 0.1865 0.16981 0.0
C937 C 0.36917 0.16964 0.16556 0.0
C938 C 0.32043 0.12127 0.18671 0.0
C939 C 0.30547 0.13872 0.1989 0.0
N940 N 0.31028 0.1891 0.21589 0.0
N941 N 0.36944 0.12183 0.18645 0.0
C942 C 0.3226 0.17173 0.19463 0.0
C943 C 0.35328 0.13724 0.17884 0.0
N944 N 0.36614 0.2162 0.148 0.0
N945 N 0.30339 0.08966 0.17966 0.0
H946 H 0.39366 0.13287 0.18388 0.0
H947 H 0.35897 0.09887 0.20161 0.0
H948 H 0.27911 0.07711 0.18199 0.0
H949 H 0.31321 0.07648 0.16515 0.0
H950 H 0.35401 0.22832 0.14522 0.0
H951 H 0.38773 0.22737 0.12651 0.0
H952 H 0.32306 0.21336 0.2186 0.0
H953 H 0.28859 0.17922 0.23699 0.0
C954 C 0.85527 0.2105 0.17947 0.0
C955 C 0.82321 0.1931 0.16398 0.0
C956 C 0.8217 0.14584 0.20048 0.0
C957 C 0.85475 0.16225 0.20486 0.0
N958 N 0.90339 0.20975 0.18367 0.0
N959 N 0.77712 0.14255 0.14976 0.0
C960 C 0.87176 0.19452 0.19053 0.0
C961 C 0.80666 0.16026 0.17186 0.0
N962 N 0.86985 0.24211 0.18594 0.0
N963 N 0.8046 0.11673 0.22466 0.0
H964 H 0.76578 0.15193 0.12554 0.0
H965 H 0.76531 0.11824 0.14978 0.0
H966 H 0.8148 0.106 0.24839 0.0
H967 H 0.7803 0.10492 0.227 0.0
H968 H 0.89257 0.25528 0.20223 0.0
H969 H 0.85814 0.25453 0.18187 0.0
H970 H 0.91611 0.23254 0.16762 0.0
H971 H 0.9164 0.1987 0.18755 0.0
C972 C 0.82741 0.67111 0.0734 0.0
C973 C 0.79876 0.64661 0.09533 0.0
C974 C 0.80369 0.67656 0.18502 0.0
C975 C 0.83252 0.70116 0.16377 0.0
N976 N 0.86737 0.72559 0.08028 0.0
N977 N 0.75405 0.63244 0.15761 0.0
C978 C 0.84299 0.6997 0.10538 0.0
C979 C 0.78499 0.65151 0.14637 0.0
N980 N 0.84015 0.66645 0.0232 0.0
N981 N 0.79493 0.67601 0.24301 0.0
H982 H 0.73945 0.6161 0.12653 0.0
H983 H 0.74236 0.63607 0.19259 0.0
H984 H 0.8087 0.69319 0.27387 0.0
H985 H 0.7755 0.6569 0.26185 0.0
H986 H 0.86281 0.68179 0.00877 0.0
H987 H 0.8281 0.64634 0.99728 0.0
H988 H 0.87411 0.7266 0.03596 0.0
H989 H 0.87912 0.74701 0.10209 0.0
C990 C 0.12786 0.32509 0.81759 0.0
C991 C 0.14328 0.30815 0.80485 0.0
C992 C 0.19246 0.35252 0.83908 0.0
C993 C 0.17783 0.37082 0.84348 0.0
N994 N 0.13287 0.37591 0.81938 0.0
N995 N 0.19196 0.3087 0.79065 0.0
C996 C 0.14589 0.35758 0.82765 0.0
C997 C 0.17614 0.32275 0.81175 0.0
N998 N 0.09616 0.31021 0.82321 0.0
N999 N 0.22144 0.36293 0.86293 0.0
H1000 H 0.18099 0.28749 0.7679 0.0
H1001 H 0.21626 0.31976 0.7899 0.0
H1002 H 0.23357 0.38393 0.88614 0.0
H1003 H 0.23182 0.34913 0.86549 0.0
H1004 H 0.08435 0.32145 0.83797 0.0
H1005 H 0.0821 0.28616 0.81987 0.0
H1006 H 0.11042 0.36735 0.80238 0.0
H1007 H 0.14556 0.40003 0.82293 0.0
C1008 C 0.64508 0.81292 0.79772 0.0
C1009 C 0.64184 0.81409 0.86051 0.0
C1010 C 0.69877 0.84215 0.87164 0.0
C1011 C 0.70185 0.84385 0.80855 0.0
N1012 N 0.67848 0.83369 0.71086 0.0
N1013 N 0.66505 0.83177 0.95747 0.0
C1014 C 0.67516 0.82973 0.77136 0.0
C1015 C 0.66855 0.82894 0.89768 0.0
N1016 N 0.61936 0.79528 0.76331 0.0
N1017 N 0.72476 0.85289 0.90661 0.0
H1018 H 0.6433 0.82195 0.9783 0.0
H1019 H 0.68348 0.84553 0.986 0.0
H1020 H 0.74728 0.86376 0.88918 0.0
H1021 H 0.72405 0.8491 0.95239 0.0
H1022 H 0.62037 0.79032 0.71854 0.0
H1023 H 0.59691 0.78349 0.78074 0.0
H1024 H 0.65988 0.8274 0.68174 0.0
H1025 H 0.70014 0.84536 0.68968 0.0
C1026 C 0.1901 0.82877 0.7992 0.0
C1027 C 0.19723 0.83187 0.86109 0.0
C1028 C 0.18209 0.87161 0.86966 0.0
C1029 C 0.1706 0.86519 0.81039 0.0
N1030 N 0.16233 0.83702 0.71846 0.0
N1031 N 0.19641 0.85322 0.95735 0.0
C1032 C 0.17449 0.84376 0.7748 0.0
C1033 C 0.19251 0.85268 0.89687 0.0
N1034 N 0.19884 0.81205 0.76363 0.0
N1035 N 0.18347 0.8962 0.89961 0.0
H1036 H 0.20365 0.83939 0.97935 0.0
H1037 H 0.18984 0.86532 0.98639 0.0
H1038 H 0.17686 0.91092 0.87982 0.0
H1039 H 0.19434 0.90403 0.94082 0.0
H1040 H 0.19729 0.81162 0.7173 0.0
H1041 H 0.21001 0.80049 0.78004 0.0
H1042 H 0.16091 0.81884 0.69282 0.0
H1043 H 0.15211 0.84873 0.69835 0.0
C1044 C 0.00051 0.47335 0.55338 0.0
C1045 C 0.97389 0.46534 0.5177 0.0
C1046 C 0.00696 0.48519 0.42857 0.0
C1047 C 0.03354 0.4936 0.46449 0.0
N1048 N 0.05472 0.48663 0.55603 0.0
N1049 N 0.95061 0.45576 0.41984 0.0
C1050 C 0.03 0.48462 0.52531 0.0
C1051 C 0.97677 0.46875 0.45469 0.0
N1052 N -0.00194 0.472 0.61416 0.0
N1053 N 0.01068 0.49372 0.36982 0.0
H1054 H 0.92819 0.44343 0.43756 0.0
H1055 H 0.95108 0.45469 0.37352 0.0
H1056 H 0.03229 0.50388 0.34834 0.0
H1057 H 0.99269 0.49201 0.34305 0.0
H1058 H 0.01728 0.48095 0.64256 0.0
H1059 H 0.97694 0.46419 0.63649 0.0
H1060 H 0.05301 0.47803 0.59909 0.0
H1061 H 0.07606 0.49348 0.53565 0.0
C1062 C 0.53339 0.55456 0.51124 0.0
C1063 C 0.50141 0.53745 0.49494 0.0
C1064 C 0.50012 0.48899 0.52173 0.0
C1065 C 0.53303 0.50563 0.52858 0.0
N1066 N 0.58182 0.55411 0.51654 0.0
N1067 N 0.45583 0.48756 0.47336 0.0
C1068 C 0.55 0.53843 0.51983 0.0
C1069 C 0.48512 0.50439 0.49709 0.0
N1070 N 0.54772 0.58597 0.52082 0.0
N1071 N 0.48306 0.45867 0.54013 0.0
H1072 H 0.4445 0.49789 0.45225 0.0
H1073 H 0.44424 0.46338 0.46886 0.0
H1074 H 0.49315 0.44696 0.56069 0.0
H1075 H 0.45873 0.4464 0.54104 0.0
H1076 H 0.57021 0.59885 0.53822 0.0
H1077 H 0.53605 0.5985 0.51754 0.0
H1078 H 0.59488 0.5775 0.50423 0.0
H1079 H 0.59495 0.5431 0.52006 0.0
C1080 C 0.47778 0.00248 0.46625 0.0
C1081 C 0.47071 0.97477 0.49717 0.0
C1082 C 0.48576 0.00316 0.59229 0.0
C1083 C 0.49518 0.03128 0.56084 0.0
N1084 N 0.494 0.05733 0.47066 0.0
N1085 N 0.46863 0.94796 0.58845 0.0
C1086 C 0.48916 0.0308 0.49865 0.0
C1087 C 0.47453 0.97481 0.56004 0.0
N1088 N 0.47561 0.00205 0.40531 0.0
N1089 N 0.48666 0.00364 0.6533 0.0
H1090 H 0.45948 0.92657 0.56679 0.0
H1091 H 0.47427 0.94688 0.63273 0.0
H1092 H 0.49419 0.02405 0.67795 0.0
H1093 H 0.47756 0.98381 0.67996 0.0
H1094 H 0.48406 0.02188 0.37878 0.0
H1095 H 0.46696 0.98171 0.38007 0.0
H1096 H 0.48701 0.05811 0.42728 0.0
H1097 H 0.50289 0.07856 0.49229 0.0
C1098 C 0.18523 0.03741 0.49964 0.0
C1099 C 0.17602 0.01607 0.45143 0.0
C1100 C 0.15585 0.97212 0.52102 0.0
C1101 C 0.1636 0.99331 0.56946 0.0
N1102 N 0.19488 0.04573 0.60609 0.0
N1103 N 0.16366 0.96538 0.41641 0.0
C1104 C 0.18162 0.0259 0.55898 0.0
C1105 C 0.16537 0.98418 0.46252 0.0
N1106 N 0.19517 0.06816 0.48923 0.0
N1107 N 0.13711 0.94073 0.52945 0.0
H1108 H 0.17061 0.97397 0.3732 0.0
H1109 H 0.1586 0.94244 0.42223 0.0
H1110 H 0.129 0.9304 0.57092 0.0
H1111 H 0.12761 0.9249 0.49439 0.0
H1112 H 0.19827 0.08393 0.52292 0.0
H1113 H 0.19877 0.07767 0.44655 0.0
H1114 H 0.21035 0.06955 0.60123 0.0
H1115 H 0.1928 0.03766 0.64982 0.0
C1116 C 0.02709 0.15903 0.50877 0.0
C1117 C 0.0211 0.18 0.5403 0.0
C1118 C 0.99587 0.18608 0.45139 0.0
C1119 C 0.99603 0.1599 0.42543 0.0
N1120 N 0.00268 0.1151 0.44364 0.0
N1121 N -0.00137 0.21313 0.5439 0.0
C1122 C 0.00938 0.14468 0.4577 0.0
C1123 C 0.00529 0.1937 0.51221 0.0
N1124 N 0.04792 0.15102 0.53034 0.0
N1125 N 0.98762 0.20393 0.41827 0.0
H1126 H 0.0065 0.21978 0.58757 0.0
H1127 H 0.98427 0.22129 0.52779 0.0
H1128 H 0.98183 0.19976 0.37322 0.0
H1129 H 0.98943 0.22454 0.4341 0.0
H1130 H 0.05418 0.13684 0.50673 0.0
H1131 H 0.0611 0.16126 0.56867 0.0
H1132 H 0.01022 0.10263 0.46951 0.0
H1133 H 0.98612 0.10137 0.41185 0.0
C1134 C 0.82785 0.80927 0.53667 0.0
C1135 C 0.81748 0.83066 0.54884 0.0
C1136 C 0.8075 0.83181 0.4422 0.0
C1137 C 0.82664 0.81874 0.42965 0.0
N1138 N 0.85336 0.79226 0.46677 0.0
N1139 N 0.79552 0.86152 0.51187 0.0
C1140 C 0.83557 0.80575 0.47716 0.0
C1141 C 0.80581 0.84101 0.5015 0.0
N1142 N 0.83085 0.79286 0.58263 0.0
N1143 N 0.7916 0.83601 0.39677 0.0
H1144 H 0.79303 0.86849 0.55426 0.0
H1145 H 0.79089 0.87294 0.4778 0.0
H1146 H 0.79242 0.829 0.35318 0.0
H1147 H 0.77532 0.84319 0.40343 0.0
H1148 H 0.83581 0.77495 0.57651 0.0
H1149 H 0.82502 0.7951 0.62641 0.0
H1150 H 0.86426 0.78688 0.50069 0.0
H1151 H 0.85834 0.78731 0.42454 0.0
C1152 C 0.85553 0.35576 0.88611 0.0
C1153 C 0.83651 0.32344 0.89775 0.0
C1154 C 0.83553 0.31325 0.7905 0.0
C1155 C 0.84707 0.34532 0.77882 0.0
N1156 N 0.86875 0.39792 0.8166 0.0
N1157 N 0.8088 0.27056 0.86014 0.0
C1158 C 0.85817 0.36701 0.82675 0.0
C1159 C 0.82735 0.3018 0.84988 0.0
N1160 N 0.87041 0.37564 0.93242 0.0
N1161 N 0.83194 0.29377 0.74429 0.0
H1162 H 0.80279 0.26087 0.90261 0.0
H1163 H 0.79799 0.25428 0.82619 0.0
H1164 H 0.83805 0.30191 0.7006 0.0
H1165 H 0.8261 0.27061 0.75009 0.0
H1166 H 0.88668 0.3992 0.92672 0.0
H1167 H 0.86874 0.36762 0.97611 0.0
H1168 H 0.87312 0.4139 0.85064 0.0
H1169 H 0.87151 0.40749 0.7742 0.0
C1170 C 0.66335 0.4593 0.86613 0.0
C1171 C 0.67096 0.48716 0.89733 0.0
C1172 C 0.65743 0.50668 0.80808 0.0
C1173 C 0.64714 0.47739 0.78022 0.0
N1174 N 0.62991 0.42269 0.79215 0.0
N1175 N 0.66948 0.53513 0.9017 0.0
C1176 C 0.6464 0.45263 0.81279 0.0
C1177 C 0.66627 0.51031 0.86951 0.0
N1178 N 0.67429 0.4402 0.88456 0.0
N1179 N 0.65999 0.53118 0.7757 0.0
H1180 H 0.67527 0.53806 0.94687 0.0
H1181 H 0.66369 0.5512 0.88496 0.0
H1182 H 0.65328 0.52909 0.73108 0.0
H1183 H 0.67054 0.55389 0.7921 0.0
H1184 H 0.67121 0.42106 0.85972 0.0
H1185 H 0.68984 0.44559 0.91992 0.0
H1186 H 0.62688 0.4036 0.81712 0.0
H1187 H 0.61651 0.41685 0.75334 0.0
C1188 C 0.478 0.14654 0.80128 0.0
C1189 C 0.49723 0.17483 0.76998 0.0
C1190 C 0.49615 0.20403 0.85685 0.0
C1191 C 0.48407 0.17675 0.89161 0.0
N1192 N 0.46286 0.12141 0.89839 0.0
N1193 N 0.53145 0.23122 0.7768 0.0
C1194 C 0.47442 0.14764 0.86414 0.0
C1195 C 0.50774 0.20393 0.79949 0.0
N1196 N 0.46301 0.11894 0.7711 0.0
N1197 N 0.49861 0.23061 0.88021 0.0
H1198 H 0.54444 0.23258 0.73928 0.0
H1199 H 0.5413 0.25223 0.80016 0.0
H1200 H 0.49065 0.23133 0.92296 0.0
H1201 H 0.5054 0.25064 0.85479 0.0
H1202 H 0.447 0.09794 0.79113 0.0
H1203 H 0.46418 0.11772 0.72482 0.0
H1204 H 0.45862 0.09995 0.88203 0.0
H1205 H 0.45883 0.12176 0.94404 0.0
C1206 C 0.49806 0.64348 0.19032 0.0
C1207 C 0.50665 0.66521 0.23788 0.0
C1208 C 0.52919 0.70868 0.16682 0.0
C1209 C 0.51866 0.68687 0.11908 0.0
N1210 N 0.50421 0.63536 0.08549 0.0
N1211 N 0.54032 0.71746 0.27277 0.0
C1212 C 0.50712 0.65486 0.13118 0.0
C1213 C 0.52584 0.69752 0.22634 0.0
N1214 N 0.4792 0.61227 0.20046 0.0
N1215 N 0.53991 0.73957 0.15623 0.0
H1216 H 0.53822 0.70955 0.31664 0.0
H1217 H 0.5567 0.741 0.26712 0.0
H1218 H 0.54344 0.74916 0.11371 0.0
H1219 H 0.54373 0.75555 0.18997 0.0
H1220 H 0.46896 0.59596 0.16634 0.0
H1221 H 0.47221 0.60265 0.24279 0.0
H1222 H 0.49832 0.61221 0.09178 0.0
H1223 H 0.51092 0.64349 0.04195 0.0
C1224 C 0.30725 0.84132 0.15556 0.0
C1225 C 0.32966 0.85062 0.10887 0.0
C1226 C 0.37219 0.87064 0.18175 0.0
C1227 C 0.34972 0.85786 0.22834 0.0
N1228 N 0.29802 0.84318 0.26162 0.0
N1229 N 0.38204 0.88687 0.07807 0.0
C1230 C 0.3179 0.84738 0.2157 0.0
C1231 C 0.3617 0.86998 0.12255 0.0
N1232 N 0.27603 0.82528 0.14335 0.0
N1233 N 0.40301 0.88086 0.19241 0.0
H1234 H 0.37437 0.88662 0.03454 0.0
H1235 H 0.4054 0.90333 0.08566 0.0
H1236 H 0.41223 0.88213 0.23465 0.0
H1237 H 0.41934 0.88642 0.15844 0.0
H1238 H 0.25901 0.81351 0.17576 0.0
H1239 H 0.26688 0.82363 0.10093 0.0
H1240 H 0.27506 0.83805 0.25556 0.0
H1241 H 0.30568 0.84807 0.30578 0.0
C1242 C 0.15064 0.51457 0.16602 0.0
C1243 C 0.16175 0.50399 0.21404 0.0
C1244 C 0.18229 0.481 0.14316 0.0
C1245 C 0.17319 0.49355 0.09535 0.0
N1246 N 0.13834 0.51063 0.06043 0.0
N1247 N 0.17652 0.46722 0.24819 0.0
C1248 C 0.15355 0.50612 0.10679 0.0
C1249 C 0.1734 0.48358 0.20228 0.0
N1250 N 0.13984 0.53473 0.17579 0.0
N1251 N 0.20141 0.46896 0.13328 0.0
H1252 H 0.16979 0.46867 0.29169 0.0
H1253 H 0.18252 0.45004 0.24209 0.0
H1254 H 0.20811 0.46592 0.091 0.0
H1255 H 0.21205 0.46347 0.16755 0.0
H1256 H 0.1356 0.54631 0.14147 0.0
H1257 H 0.13671 0.54148 0.21791 0.0
H1258 H 0.12163 0.51732 0.06617 0.0
H1259 H 0.14015 0.50434 0.01677 0.0
C1260 C 0.15152 0.02471 0.03536 0.0
C1261 C 0.14199 -0.0014 0.07354 0.0
C1262 C 0.12157 0.96404 0.98718 0.0
C1263 C 0.13606 0.99034 0.94872 0.0
N1264 N 0.17036 0.04591 0.93727 0.0
N1265 N 0.12226 0.94335 0.08457 0.0
C1266 C 0.15277 0.02077 0.9731 0.0
C1267 C 0.1283 0.96819 0.04911 0.0
N1268 N 0.15774 0.05286 0.05791 0.0
N1269 N 0.10027 0.93541 0.96528 0.0
H1270 H 0.12719 0.94554 0.13012 0.0
H1271 H 0.11504 0.92118 0.06762 0.0
H1272 H 0.09327 0.93173 0.92074 0.0
H1273 H 0.08708 0.91614 0.99255 0.0
H1274 H 0.1621 0.07176 0.03091 0.0
H1275 H 0.155 0.05629 0.10288 0.0
H1276 H 0.18519 0.06816 0.95416 0.0
H1277 H 0.1725 0.04399 0.89141 0.0
C1278 C 0.96098 0.14029 0.00979 0.0
C1279 C 0.98787 0.153 0.04688 0.0
C1280 C 0.02108 0.16858 0.95909 0.0
C1281 C 0.9946 0.16011 0.92245 0.0
N1282 N 0.93994 0.14412 0.91489 0.0
N1283 N 0.04359 0.18705 0.05632 0.0
C1284 C 0.96471 0.14815 0.94849 0.0
C1285 C 0.01799 0.16982 0.02138 0.0
N1286 N 0.93226 0.11906 0.03163 0.0
N1287 N 0.04851 0.17316 0.93541 0.0
H1288 H 0.04202 0.18929 0.10229 0.0
H1289 H 0.06575 0.20158 0.03854 0.0
H1290 H 0.05112 0.16948 0.89054 0.0
H1291 H 0.06743 0.17687 0.96177 0.0
H1292 H 0.91261 0.10726 0.00455 0.0
H1293 H 0.92871 0.11054 0.07513 0.0
H1294 H 0.91826 0.13792 0.93338 0.0
H1295 H 0.94197 0.14986 0.8697 0.0
C1296 C 0.833 0.82697 0.95367 0.0
C1297 C 0.85487 0.85497 0.92477 0.0
C1298 C 0.88233 0.87554 0.01921 0.0
C1299 C 0.85821 0.84934 0.04928 0.0
N1300 N 0.80808 0.80201 0.04664 0.0
N1301 N 0.89681 0.90844 0.93174 0.0
C1302 C 0.83284 0.82549 0.01692 0.0
C1303 C 0.87862 0.88 0.95794 0.0
N1304 N 0.81283 0.80161 0.9206 0.0
N1305 N 0.9093 0.89553 0.04846 0.0
H1306 H 0.8945 0.91294 0.88718 0.0
H1307 H 0.91219 0.92831 0.95566 0.0
H1308 H 0.91333 0.89255 0.09298 0.0
H1309 H 0.92885 0.91321 0.02697 0.0
H1310 H 0.79855 0.77959 0.9389 0.0
H1311 H 0.81236 0.80184 0.87409 0.0
H1312 H 0.78747 0.78584 0.02566 0.0
H1313 H 0.80694 0.80021 0.09303 0.0
C1314 C 0.81764 0.36151 0.29728 0.0
C1315 C 0.80293 0.33107 0.27259 0.0
C1316 C 0.79712 0.30919 0.37283 0.0
C1317 C 0.80902 0.33933 0.39781 0.0
N1318 N 0.82061 0.39242 0.38301 0.0
N1319 N 0.76904 0.27584 0.28983 0.0
C1320 C 0.81616 0.36501 0.35981 0.0
C1321 C 0.78973 0.3048 0.31122 0.0
N1322 N 0.83417 0.38706 0.26184 0.0
N1323 N 0.7937 0.28488 0.40712 0.0
H1324 H 0.76132 0.27196 0.24571 0.0
H1325 H 0.75692 0.25647 0.31745 0.0
H1326 H 0.79966 0.28723 0.45219 0.0
H1327 H 0.78779 0.26319 0.38922 0.0
H1328 H 0.84754 0.40953 0.279 0.0
H1329 H 0.83714 0.38546 0.2162 0.0
H1330 H 0.82338 0.4109 0.3564 0.0
H1331 H 0.81804 0.39533 0.42834 0.0
C1332 C 0.65454 0.49026 0.30104 0.0
C1333 C 0.68494 0.50332 0.27733 0.0
C1334 C 0.7069 0.51792 0.37755 0.0
C1335 C 0.67644 0.49976 0.40135 0.0
N1336 N 0.62181 0.46192 0.38403 0.0
N1337 N 0.73976 0.52583 0.29093 0.0
C1338 C 0.65023 0.48427 0.36282 0.0
C1339 C 0.71123 0.51658 0.3153 0.0
N1340 N 0.62983 0.48336 0.26452 0.0
N1341 N 0.73135 0.53639 0.41417 0.0
H1342 H 0.76022 0.5335 0.3155 0.0
H1343 H 0.76022 0.5335 0.3155 0.0
H1344 H 0.72869 0.53773 0.46006 0.0
H1345 H 0.75348 0.55249 0.3984 0.0
H1346 H 0.60745 0.47604 0.2807 0.0
H1347 H 0.63254 0.48815 0.21887 0.0
H1348 H 0.60297 0.4482 0.35618 0.0
H1349 H 0.61794 0.45445 0.42823 0.0
C1350 C 0.54782 0.19318 0.29485 0.0
C1351 C 0.52605 0.16589 0.26371 0.0
C1352 C 0.50719 0.13766 0.35772 0.0
C1353 C 0.52956 0.16472 0.38848 0.0
N1354 N 0.57748 0.21417 0.38561 0.0
N1355 N 0.49071 0.11043 0.26313 0.0
C1356 C 0.55203 0.19116 0.35672 0.0
C1357 C 0.50774 0.13745 0.29448 0.0
N1358 N 0.56301 0.22141 0.26653 0.0
N1359 N 0.48442 0.11291 0.38864 0.0
H1360 H 0.49061 0.10977 0.21659 0.0
H1361 H 0.47909 0.08849 0.28305 0.0
H1362 H 0.48314 0.1122 0.43508 0.0
H1363 H 0.46548 0.09402 0.36825 0.0
H1364 H 0.57634 0.24239 0.28912 0.0
H1365 H 0.56023 0.22439 0.22141 0.0
H1366 H 0.59604 0.23265 0.36343 0.0
H1367 H 0.58154 0.21296 0.43095 0.0
C1368 C 0.4705 0.65063 0.71299 0.0
C1369 C 0.48183 0.68049 0.73887 0.0
C1370 C 0.49128 0.70368 0.63935 0.0
C1371 C 0.47709 0.67352 0.61368 0.0
N1372 N 0.44369 0.618 0.62837 0.0
N1373 N 0.49275 0.73349 0.72567 0.0
C1374 C 0.4638 0.64681 0.65113 0.0
C1375 C 0.48907 0.7065 0.70178 0.0
N1376 N 0.467 0.6261 0.74667 0.0
N1377 N 0.50791 0.72962 0.60491 0.0
H1378 H 0.48938 0.7358 0.77089 0.0
H1379 H 0.49561 0.75215 0.69952 0.0
H1380 H 0.51114 0.72852 0.5592 0.0
H1381 H 0.52097 0.75193 0.62295 0.0
H1382 H 0.46148 0.60464 0.72817 0.0
H1383 H 0.47254 0.62808 0.79192 0.0
H1384 H 0.43147 0.59828 0.65512 0.0
H1385 H 0.43654 0.6145 0.58391 0.0
C1386 C 0.33416 0.84493 0.69837 0.0
C1387 C 0.3326 0.81954 0.73051 0.0
C1388 C 0.34081 0.79822 0.6383 0.0
C1389 C 0.3394 0.82197 0.60552 0.0
N1390 N 0.32925 0.86475 0.60261 0.0
N1391 N 0.32709 0.76826 0.72967 0.0
C1392 C 0.33442 0.8444 0.63509 0.0
C1393 C 0.33379 0.79505 0.70012 0.0
N1394 N 0.33635 0.86999 0.72833 0.0
N1395 N 0.35017 0.77957 0.61117 0.0
H1396 H 0.3211 0.76467 0.77473 0.0
H1397 H 0.3245 0.74846 0.70816 0.0
H1398 H 0.35614 0.78149 0.56615 0.0
H1399 H 0.35481 0.76416 0.63455 0.0
H1400 H 0.34088 0.89061 0.70739 0.0
H1401 H 0.33638 0.87129 0.77477 0.0
H1402 H 0.32232 0.87951 0.62157 0.0
H1403 H 0.32909 0.86491 0.55608 0.0
C1404 C 0.21032 0.51997 0.62231 0.0
C1405 C 0.18654 0.52418 0.59694 0.0
C1406 C 0.16781 0.52536 0.69754 0.0
C1407 C 0.19595 0.52903 0.72137 0.0
N1408 N 0.24533 0.53122 0.70528 0.0
N1409 N 0.13178 0.50362 0.61539 0.0
C1410 C 0.21767 0.52682 0.68336 0.0
C1411 C 0.16178 0.5193 0.63563 0.0
N1412 N 0.22194 0.50438 0.59129 0.0
N1413 N 0.14667 0.52725 0.73382 0.0
H1414 H 0.12634 0.4934 0.57317 0.0
H1415 H 0.11244 0.49691 0.64286 0.0
H1416 H 0.15008 0.53106 0.77966 0.0
H1417 H 0.12711 0.52753 0.71732 0.0
H1418 H 0.23738 0.49816 0.60985 0.0
H1419 H 0.21257 0.49397 0.55022 0.0
H1420 H 0.26277 0.53216 0.67772 0.0
H1421 H 0.25187 0.53673 0.74984 0.0
loop_
_geom_bond_atom_site_label_1
_geom_bond_atom_site_label_2
_geom_bond_distance
_geom_bond_site_symmetry_2
_ccdc_geom_bond_type
Co0 O3 1.970 . S
Co0 N17 1.989 . S
Co0 O25 1.967 1_565 S
Co0 O32 1.920 . S
Co1 O4 1.966 . S
Co1 N10 2.022 . S
Co1 N18 1.993 . S
Co1 O26 1.941 . S
C2 O3 1.257 . S
C2 O4 1.265 1_565 S
O3 Co0 1.970 . S
O3 C2 1.257 . S
O4 Co1 1.966 . S
O4 C2 1.265 1_545 S
C5 O6 1.235 . S
C5 O32 1.289 . S
O6 C5 1.235 . S
C7 C9 1.400 . S
C7 N10 1.351 . S
C7 C12 1.501 . S
C8 C9 1.387 . S
C8 N11 1.341 . S
C9 C7 1.400 . S
C9 C8 1.387 . S
N10 Co1 2.022 . S
N10 C7 1.351 . S
N10 N11 1.365 . S
N11 C8 1.341 . S
N11 N10 1.365 . S
N11 H31 0.862 . S
C12 C7 1.501 . S
C12 H13 0.961 . S
C12 H14 0.961 . S
C12 H15 0.960 . S
H13 C12 0.961 . S
H14 C12 0.961 . S
H15 C12 0.960 . S
C16 N17 1.342 . S
C16 C20 1.401 . S
C16 C21 1.499 . S
N17 Co0 1.989 . S
N17 C16 1.342 . S
N17 N18 1.388 1_565 S
N18 Co1 1.993 . S
N18 N17 1.388 1_545 S
N18 C19 1.346 . S
C19 N18 1.346 . S
C19 C20 1.396 1_545 S
C19 C29 1.510 . S
C20 C16 1.401 . S
C20 C19 1.396 1_565 S
C21 C16 1.499 . S
C21 H22 0.959 . S
C21 H23 0.960 . S
C21 H24 0.961 . S
H22 C21 0.959 . S
H23 C21 0.960 . S
H24 C21 0.961 . S
O25 Co0 1.967 1_545 S
O25 C33 1.258 . S
O26 Co1 1.941 . S
O26 C33 1.266 . S
H27 C29 0.959 . S
H28 C29 0.961 . S
C29 C19 1.510 . S
C29 H27 0.959 . S
C29 H28 0.961 . S
C29 H30 0.960 . S
H30 C29 0.960 . S
H31 N11 0.862 . S
O32 Co0 1.920 . S
O32 C5 1.289 . S
C33 O25 1.258 . S
C33 O26 1.266 . S
Co34 O37 1.970 . S
Co34 N51 1.989 . S
Co34 O59 1.967 1_455 S
Co34 O66 1.920 . S
Co35 O38 1.966 . S
Co35 N44 2.022 . S
Co35 N52 1.973 1_655 S
Co35 O60 1.941 . S
C36 O37 1.258 . S
C36 O38 1.263 1_455 S
O37 Co34 1.970 . S
O37 C36 1.258 . S
O38 Co35 1.966 . S
O38 C36 1.263 1_655 S
C39 O40 1.235 . S
C39 O66 1.289 . S
O40 C39 1.235 . S
C41 C43 1.400 . S
C41 N44 1.351 . S
C41 C46 1.501 . S
C42 C43 1.387 . S
C42 N45 1.341 . S
C43 C41 1.400 . S
C43 C42 1.387 . S
N44 Co35 2.022 . S
N44 C41 1.351 . S
N44 N45 1.365 . S
N45 C42 1.341 . S
N45 N44 1.365 . S
N45 H65 0.862 . S
C46 C41 1.501 . S
C46 H47 0.961 . S
C46 H48 0.961 . S
C46 H49 0.960 . S
H47 C46 0.961 . S
H48 C46 0.961 . S
H49 C46 0.960 . S
C50 N51 1.342 . S
C50 C54 1.401 . S
C50 C55 1.499 . S
N51 Co34 1.989 . S
N51 C50 1.342 . S
N51 N52 1.421 . S
N52 Co35 1.973 1_455 S
N52 N51 1.421 . S
N52 C53 1.340 . S
C53 N52 1.340 . S
C53 C54 1.396 . S
C53 C63 1.510 1_455 S
C54 C50 1.401 . S
C54 C53 1.396 . S
C55 C50 1.499 . S
C55 H56 0.959 . S
C55 H57 0.960 . S
C55 H58 0.961 . S
H56 C55 0.959 . S
H57 C55 0.960 . S
H58 C55 0.961 . S
O59 Co34 1.967 1_655 S
O59 C67 1.258 . S
O60 Co35 1.941 . S
O60 C67 1.266 . S
H61 C63 0.959 . S
H62 C63 0.961 . S
C63 C53 1.510 1_655 S
C63 H61 0.959 . S
C63 H62 0.961 . S
C63 H64 0.960 . S
H64 C63 0.960 . S
H65 N45 0.862 . S
O66 Co34 1.920 . S
O66 C39 1.289 . S
C67 O59 1.258 . S
C67 O60 1.266 . S
Co68 O71 1.970 . S
Co68 N85 1.989 . S
Co68 O93 1.967 . S
Co68 O100 1.920 . S
Co69 O72 1.966 . S
Co69 N78 2.022 . S
Co69 N86 1.993 . S
Co69 O94 1.941 . S
C70 O71 1.258 . S
C70 O72 1.263 . S
O71 Co68 1.970 . S
O71 C70 1.258 . S
O72 Co69 1.966 . S
O72 C70 1.263 . S
C73 O74 1.235 . S
C73 O100 1.289 . S
O74 C73 1.235 . S
C75 C77 1.400 . S
C75 N78 1.351 . S
C75 C80 1.501 . S
C76 C77 1.387 . S
C76 N79 1.341 . S
C77 C75 1.400 . S
C77 C76 1.387 . S
N78 Co69 2.022 . S
N78 C75 1.351 . S
N78 N79 1.365 . S
N79 C76 1.341 . S
N79 N78 1.365 . S
N79 H99 0.862 . S
C80 C75 1.501 . S
C80 H81 0.961 . S
C80 H82 0.961 . S
C80 H83 0.960 . S
H81 C80 0.961 . S
H82 C80 0.961 . S
H83 C80 0.960 . S
C84 N85 1.342 . S
C84 C88 1.401 . S
C84 C89 1.499 . S
N85 Co68 1.989 . S
N85 C84 1.342 . S
N85 N86 1.388 . S
N86 Co69 1.993 . S
N86 N85 1.388 . S
N86 C87 1.346 . S
C87 N86 1.346 . S
C87 C88 1.396 . S
C87 C97 1.510 . S
C88 C84 1.401 . S
C88 C87 1.396 . S
C89 C84 1.499 . S
C89 H90 0.959 . S
C89 H91 0.960 . S
C89 H92 0.961 . S
H90 C89 0.959 . S
H91 C89 0.960 . S
H92 C89 0.961 . S
O93 Co68 1.967 . S
O93 C101 1.258 . S
O94 Co69 1.941 . S
O94 C101 1.266 . S
H95 C97 0.959 . S
H96 C97 0.961 . S
C97 C87 1.510 . S
C97 H95 0.959 . S
C97 H96 0.961 . S
C97 H98 0.960 . S
H98 C97 0.960 . S
H99 N79 0.862 . S
O100 Co68 1.920 . S
O100 C73 1.289 . S
C101 O93 1.258 . S
C101 O94 1.266 . S
Co102 O105 1.970 . S
Co102 N119 1.989 . S
Co102 O127 1.967 1_655 S
Co102 O134 1.920 . S
Co103 O106 1.966 . S
Co103 N112 2.022 . S
Co103 N120 1.993 . S
Co103 O128 1.941 . S
C104 O105 1.257 . S
C104 O106 1.265 1_655 S
O105 Co102 1.970 . S
O105 C104 1.257 . S
O106 Co103 1.966 . S
O106 C104 1.265 1_455 S
C107 O108 1.235 . S
C107 O134 1.289 . S
O108 C107 1.235 . S
C109 C111 1.400 . S
C109 N112 1.351 . S
C109 C114 1.501 . S
C110 C111 1.387 . S
C110 N113 1.341 . S
C111 C109 1.400 . S
C111 C110 1.387 . S
N112 Co103 2.022 . S
N112 C109 1.351 . S
N112 N113 1.365 . S
N113 C110 1.341 . S
N113 N112 1.365 . S
N113 H133 0.862 . S
C114 C109 1.501 . S
C114 H115 0.961 . S
C114 H116 0.961 . S
C114 H117 0.960 . S
H115 C114 0.961 . S
H116 C114 0.961 . S
H117 C114 0.960 . S
C118 N119 1.342 . S
C118 C122 1.401 . S
C118 C123 1.499 . S
N119 Co102 1.989 . S
N119 C118 1.342 . S
N119 N120 1.388 1_655 S
N120 Co103 1.993 . S
N120 N119 1.388 1_455 S
N120 C121 1.346 . S
C121 N120 1.346 . S
C121 C122 1.396 1_455 S
C121 C131 1.510 . S
C122 C118 1.401 . S
C122 C121 1.396 1_655 S
C123 C118 1.499 . S
C123 H124 0.959 . S
C123 H125 0.960 . S
C123 H126 0.961 . S
H124 C123 0.959 . S
H125 C123 0.960 . S
H126 C123 0.961 . S
O127 Co102 1.967 1_455 S
O127 C135 1.258 . S
O128 Co103 1.941 . S
O128 C135 1.266 . S
H129 C131 0.959 . S
H130 C131 0.961 . S
C131 C121 1.510 . S
C131 H129 0.959 . S
C131 H130 0.961 . S
C131 H132 0.960 . S
H132 C131 0.960 . S
H133 N113 0.862 . S
O134 Co102 1.920 . S
O134 C107 1.289 . S
C135 O127 1.258 . S
C135 O128 1.266 . S
Co136 O139 1.970 . S
Co136 N153 1.989 . S
Co136 O161 1.967 . S
Co136 O168 1.920 . S
Co137 O140 1.966 . S
Co137 N146 2.022 . S
Co137 N154 1.993 . S
Co137 O162 1.941 . S
C138 O139 1.258 . S
C138 O140 1.263 . S
O139 Co136 1.970 . S
O139 C138 1.258 . S
O140 Co137 1.966 . S
O140 C138 1.263 . S
C141 O142 1.235 . S
C141 O168 1.289 . S
O142 C141 1.235 . S
C143 C145 1.400 . S
C143 N146 1.351 . S
C143 C148 1.501 . S
C144 C145 1.387 . S
C144 N147 1.341 . S
C145 C143 1.400 . S
C145 C144 1.387 . S
N146 Co137 2.022 . S
N146 C143 1.351 . S
N146 N147 1.365 . S
N147 C144 1.341 . S
N147 N146 1.365 . S
N147 H167 0.862 . S
C148 C143 1.501 . S
C148 H149 0.961 . S
C148 H150 0.961 . S
C148 H151 0.960 . S
H149 C148 0.961 . S
H150 C148 0.961 . S
H151 C148 0.960 . S
C152 N153 1.342 . S
C152 C156 1.401 . S
C152 C157 1.499 . S
N153 Co136 1.989 . S
N153 C152 1.342 . S
N153 N154 1.388 . S
N154 Co137 1.993 . S
N154 N153 1.388 . S
N154 C155 1.346 . S
C155 N154 1.346 . S
C155 C156 1.396 . S
C155 C165 1.510 . S
C156 C152 1.401 . S
C156 C155 1.396 . S
C157 C152 1.499 . S
C157 H158 0.959 . S
C157 H159 0.960 . S
C157 H160 0.961 . S
H158 C157 0.959 . S
H159 C157 0.960 . S
H160 C157 0.961 . S
O161 Co136 1.967 . S
O161 C169 1.258 . S
O162 Co137 1.941 . S
O162 C169 1.266 . S
H163 C165 0.959 . S
H164 C165 0.961 . S
C165 C155 1.510 . S
C165 H163 0.959 . S
C165 H164 0.961 . S
C165 H166 0.960 . S
H166 C165 0.960 . S
H167 N147 0.862 . S
O168 Co136 1.920 . S
O168 C141 1.289 . S
C169 O161 1.258 . S
C169 O162 1.266 . S
Co170 O173 1.970 . S
Co170 N187 1.989 . S
Co170 O195 1.967 1_545 S
Co170 O202 1.920 . S
Co171 O174 1.966 . S
Co171 N180 2.022 . S
Co171 N188 1.973 1_565 S
Co171 O196 1.941 . S
C172 O173 1.258 . S
C172 O174 1.263 1_545 S
O173 Co170 1.970 . S
O173 C172 1.258 . S
O174 Co171 1.966 . S
O174 C172 1.263 1_565 S
C175 O176 1.235 . S
C175 O202 1.289 . S
O176 C175 1.235 . S
C177 C179 1.400 . S
C177 N180 1.351 . S
C177 C182 1.501 . S
C178 C179 1.387 . S
C178 N181 1.341 . S
C179 C177 1.400 . S
C179 C178 1.387 . S
N180 Co171 2.022 . S
N180 C177 1.351 . S
N180 N181 1.365 . S
N181 C178 1.341 . S
N181 N180 1.365 . S
N181 H201 0.862 . S
C182 C177 1.501 . S
C182 H183 0.961 . S
C182 H184 0.961 . S
C182 H185 0.960 . S
H183 C182 0.961 . S
H184 C182 0.961 . S
H185 C182 0.960 . S
C186 N187 1.342 . S
C186 C190 1.401 . S
C186 C191 1.499 . S
N187 Co170 1.989 . S
N187 C186 1.342 . S
N187 N188 1.421 . S
N188 Co171 1.973 1_545 S
N188 N187 1.421 . S
N188 C189 1.340 . S
C189 N188 1.340 . S
C189 C190 1.396 . S
C189 C199 1.510 1_545 S
C190 C186 1.401 . S
C190 C189 1.396 . S
C191 C186 1.499 . S
C191 H192 0.959 . S
C191 H193 0.960 . S
C191 H194 0.961 . S
H192 C191 0.959 . S
H193 C191 0.960 . S
H194 C191 0.961 . S
O195 Co170 1.967 1_565 S
O195 C203 1.258 . S
O196 Co171 1.941 . S
O196 C203 1.266 . S
H197 C199 0.959 . S
H198 C199 0.961 . S
C199 C189 1.510 1_565 S
C199 H197 0.959 . S
C199 H198 0.961 . S
C199 H200 0.960 . S
H200 C199 0.960 . S
H201 N181 0.862 . S
O202 Co170 1.920 . S
O202 C175 1.289 . S
C203 O195 1.258 . S
C203 O196 1.266 . S
Co204 O207 1.970 . S
Co204 N221 1.989 . S
Co204 O229 1.967 . S
Co204 O236 1.920 . S
Co205 O208 1.966 . S
Co205 N214 2.022 . S
Co205 N222 1.993 . S
Co205 O230 1.941 . S
C206 O207 1.258 . S
C206 O208 1.263 . S
O207 Co204 1.970 . S
O207 C206 1.258 . S
O208 Co205 1.966 . S
O208 C206 1.263 . S
C209 O210 1.235 . S
C209 O236 1.289 . S
O210 C209 1.235 . S
C211 C213 1.400 . S
C211 N214 1.351 . S
C211 C216 1.501 . S
C212 C213 1.387 . S
C212 N215 1.341 . S
C213 C211 1.400 . S
C213 C212 1.387 . S
N214 Co205 2.022 . S
N214 C211 1.351 . S
N214 N215 1.365 . S
N215 C212 1.341 . S
N215 N214 1.365 . S
N215 H235 0.862 . S
C216 C211 1.501 . S
C216 H217 0.961 . S
C216 H218 0.961 . S
C216 H219 0.960 . S
H217 C216 0.961 . S
H218 C216 0.961 . S
H219 C216 0.960 . S
C220 N221 1.342 . S
C220 C224 1.401 . S
C220 C225 1.499 . S
N221 Co204 1.989 . S
N221 C220 1.342 . S
N221 N222 1.388 . S
N222 Co205 1.993 . S
N222 N221 1.388 . S
N222 C223 1.346 . S
C223 N222 1.346 . S
C223 C224 1.396 . S
C223 C233 1.510 . S
C224 C220 1.401 . S
C224 C223 1.396 . S
C225 C220 1.499 . S
C225 H226 0.959 . S
C225 H227 0.960 . S
C225 H228 0.961 . S
H226 C225 0.959 . S
H227 C225 0.960 . S
H228 C225 0.961 . S
O229 Co204 1.967 . S
O229 C237 1.258 . S
O230 Co205 1.941 . S
O230 C237 1.266 . S
H231 C233 0.959 . S
H232 C233 0.961 . S
C233 C223 1.510 . S
C233 H231 0.959 . S
C233 H232 0.961 . S
C233 H234 0.960 . S
H234 C233 0.960 . S
H235 N215 0.862 . S
O236 Co204 1.920 . S
O236 C209 1.289 . S
C237 O229 1.258 . S
C237 O230 1.266 . S
Co238 O241 1.970 . S
Co238 N255 1.989 . S
Co238 O263 1.967 . S
Co238 O270 1.920 . S
Co239 O242 1.966 . S
Co239 N248 2.022 . S
Co239 N256 1.993 . S
Co239 O264 1.941 . S
C240 O241 1.258 . S
C240 O242 1.263 . S
O241 Co238 1.970 . S
O241 C240 1.258 . S
O242 Co239 1.966 . S
O242 C240 1.263 . S
C243 O244 1.235 . S
C243 O270 1.289 . S
O244 C243 1.235 . S
C245 C247 1.400 . S
C245 N248 1.351 . S
C245 C250 1.501 . S
C246 C247 1.387 . S
C246 N249 1.341 . S
C247 C245 1.400 . S
C247 C246 1.387 . S
N248 Co239 2.022 . S
N248 C245 1.351 . S
N248 N249 1.365 . S
N249 C246 1.341 . S
N249 N248 1.365 . S
N249 H269 0.862 . S
C250 C245 1.501 . S
C250 H251 0.961 . S
C250 H252 0.961 . S
C250 H253 0.960 . S
H251 C250 0.961 . S
H252 C250 0.961 . S
H253 C250 0.960 . S
C254 N255 1.342 . S
C254 C258 1.401 . S
C254 C259 1.499 . S
N255 Co238 1.989 . S
N255 C254 1.342 . S
N255 N256 1.388 . S
N256 Co239 1.993 . S
N256 N255 1.388 . S
N256 C257 1.346 . S
C257 N256 1.346 . S
C257 C258 1.396 . S
C257 C267 1.510 . S
C258 C254 1.401 . S
C258 C257 1.396 . S
C259 C254 1.499 . S
C259 H260 0.959 . S
C259 H261 0.960 . S
C259 H262 0.961 . S
H260 C259 0.959 . S
H261 C259 0.960 . S
H262 C259 0.961 . S
O263 Co238 1.967 . S
O263 C271 1.258 . S
O264 Co239 1.941 . S
O264 C271 1.266 . S
H265 C267 0.959 . S
H266 C267 0.961 . S
C267 C257 1.510 . S
C267 H265 0.959 . S
C267 H266 0.961 . S
C267 H268 0.960 . S
H268 C267 0.960 . S
H269 N249 0.862 . S
O270 Co238 1.920 . S
O270 C243 1.289 . S
C271 O263 1.258 . S
C271 O264 1.266 . S
Co272 O275 1.970 . S
Co272 N289 1.989 . S
Co272 O297 1.967 . S
Co272 O304 1.920 . S
Co273 O276 1.966 . S
Co273 N282 2.022 . S
Co273 N290 1.993 . S
Co273 O298 1.941 . S
C274 O275 1.258 . S
C274 O276 1.263 . S
O275 Co272 1.970 . S
O275 C274 1.258 . S
O276 Co273 1.966 . S
O276 C274 1.263 . S
C277 O278 1.235 . S
C277 O304 1.289 . S
O278 C277 1.235 . S
C279 C281 1.400 . S
C279 N282 1.351 . S
C279 C284 1.501 . S
C280 C281 1.387 . S
C280 N283 1.341 . S
C281 C279 1.400 . S
C281 C280 1.387 . S
N282 Co273 2.022 . S
N282 C279 1.351 . S
N282 N283 1.365 . S
N283 C280 1.341 . S
N283 N282 1.365 . S
N283 H303 0.862 . S
C284 C279 1.501 . S
C284 H285 0.961 . S
C284 H286 0.961 . S
C284 H287 0.960 . S
H285 C284 0.961 . S
H286 C284 0.961 . S
H287 C284 0.960 . S
C288 N289 1.342 . S
C288 C292 1.401 . S
C288 C293 1.499 . S
N289 Co272 1.989 . S
N289 C288 1.342 . S
N289 N290 1.388 . S
N290 Co273 1.993 . S
N290 N289 1.388 . S
N290 C291 1.346 . S
C291 N290 1.346 . S
C291 C292 1.396 . S
C291 C301 1.510 . S
C292 C288 1.401 . S
C292 C291 1.396 . S
C293 C288 1.499 . S
C293 H294 0.959 . S
C293 H295 0.960 . S
C293 H296 0.961 . S
H294 C293 0.959 . S
H295 C293 0.960 . S
H296 C293 0.961 . S
O297 Co272 1.967 . S
O297 C305 1.258 . S
O298 Co273 1.941 . S
O298 C305 1.266 . S
H299 C301 0.959 . S
H300 C301 0.961 . S
C301 C291 1.510 . S
C301 H299 0.959 . S
C301 H300 0.961 . S
C301 H302 0.960 . S
H302 C301 0.960 . S
H303 N283 0.862 . S
O304 Co272 1.920 . S
O304 C277 1.289 . S
C305 O297 1.258 . S
C305 O298 1.266 . S
Co306 O309 1.970 1_554 S
Co306 N323 1.989 . S
Co306 O331 1.967 . S
Co306 O338 1.920 . S
Co307 O310 1.966 1_554 S
Co307 N316 2.022 . S
Co307 N324 1.993 . S
Co307 O332 1.941 . S
C308 O309 1.258 . S
C308 O310 1.263 . S
O309 Co306 1.970 1_556 S
O309 C308 1.258 . S
O310 Co307 1.966 1_556 S
O310 C308 1.263 . S
C311 O312 1.235 . S
C311 O338 1.289 . S
O312 C311 1.235 . S
C313 C315 1.400 . S
C313 N316 1.351 . S
C313 C318 1.501 . S
C314 C315 1.387 . S
C314 N317 1.341 . S
C315 C313 1.400 . S
C315 C314 1.387 . S
N316 Co307 2.022 . S
N316 C313 1.351 . S
N316 N317 1.365 . S
N317 C314 1.341 . S
N317 N316 1.365 . S
N317 H337 0.862 . S
C318 C313 1.501 . S
C318 H319 0.961 1_554 S
C318 H320 0.961 . S
C318 H321 0.960 1_554 S
H319 C318 0.961 1_556 S
H320 C318 0.961 . S
H321 C318 0.960 1_556 S
C322 N323 1.342 . S
C322 C326 1.401 . S
C322 C327 1.499 . S
N323 Co306 1.989 . S
N323 C322 1.342 . S
N323 N324 1.388 . S
N324 Co307 1.993 . S
N324 N323 1.388 . S
N324 C325 1.346 . S
C325 N324 1.346 . S
C325 C326 1.396 . S
C325 C335 1.510 . S
C326 C322 1.401 . S
C326 C325 1.396 . S
C327 C322 1.499 . S
C327 H328 0.959 . S
C327 H329 0.960 . S
C327 H330 0.961 . S
H328 C327 0.959 . S
H329 C327 0.960 . S
H330 C327 0.961 . S
O331 Co306 1.967 . S
O331 C339 1.258 . S
O332 Co307 1.941 . S
O332 C339 1.266 . S
H333 C335 0.959 . S
H334 C335 0.961 . S
C335 C325 1.510 . S
C335 H333 0.959 . S
C335 H334 0.961 . S
C335 H336 0.960 . S
H336 C335 0.960 . S
H337 N317 0.862 . S
O338 Co306 1.920 . S
O338 C311 1.289 . S
C339 O331 1.258 . S
C339 O332 1.266 . S
Co340 O343 1.970 1_554 S
Co340 N357 1.989 . S
Co340 O365 1.967 . S
Co340 O372 1.920 . S
Co341 O344 1.966 1_554 S
Co341 N350 2.022 . S
Co341 N358 1.993 . S
Co341 O366 1.941 . S
C342 O343 1.258 . S
C342 O344 1.263 . S
O343 Co340 1.970 1_556 S
O343 C342 1.258 . S
O344 Co341 1.966 1_556 S
O344 C342 1.263 . S
C345 O346 1.235 . S
C345 O372 1.289 . S
O346 C345 1.235 . S
C347 C349 1.400 . S
C347 N350 1.351 . S
C347 C352 1.501 . S
C348 C349 1.387 . S
C348 N351 1.341 . S
C349 C347 1.400 . S
C349 C348 1.387 . S
N350 Co341 2.022 . S
N350 C347 1.351 . S
N350 N351 1.365 . S
N351 C348 1.341 . S
N351 N350 1.365 . S
N351 H371 0.862 . S
C352 C347 1.501 . S
C352 H353 0.961 1_554 S
C352 H354 0.961 . S
C352 H355 0.960 1_554 S
H353 C352 0.961 1_556 S
H354 C352 0.961 . S
H355 C352 0.960 1_556 S
C356 N357 1.342 . S
C356 C360 1.401 . S
C356 C361 1.499 . S
N357 Co340 1.989 . S
N357 C356 1.342 . S
N357 N358 1.388 . S
N358 Co341 1.993 . S
N358 N357 1.388 . S
N358 C359 1.346 . S
C359 N358 1.346 . S
C359 C360 1.396 . S
C359 C369 1.510 . S
C360 C356 1.401 . S
C360 C359 1.396 . S
C361 C356 1.499 . S
C361 H362 0.959 . S
C361 H363 0.960 . S
C361 H364 0.961 . S
H362 C361 0.959 . S
H363 C361 0.960 . S
H364 C361 0.961 . S
O365 Co340 1.967 . S
O365 C373 1.258 . S
O366 Co341 1.941 . S
O366 C373 1.266 . S
H367 C369 0.959 . S
H368 C369 0.961 . S
C369 C359 1.510 . S
C369 H367 0.959 . S
C369 H368 0.961 . S
C369 H370 0.960 . S
H370 C369 0.960 . S
H371 N351 0.862 . S
O372 Co340 1.920 . S
O372 C345 1.289 . S
C373 O365 1.258 . S
C373 O366 1.266 . S
Co374 O377 1.970 1_554 S
Co374 N391 1.989 . S
Co374 O399 1.967 . S
Co374 O406 1.920 . S
Co375 O378 1.966 1_554 S
Co375 N384 2.022 . S
Co375 N392 1.993 . S
Co375 O400 1.941 . S
C376 O377 1.258 . S
C376 O378 1.263 . S
O377 Co374 1.970 1_556 S
O377 C376 1.258 . S
O378 Co375 1.966 1_556 S
O378 C376 1.263 . S
C379 O380 1.235 . S
C379 O406 1.289 . S
O380 C379 1.235 . S
C381 C383 1.400 . S
C381 N384 1.351 . S
C381 C386 1.501 . S
C382 C383 1.387 . S
C382 N385 1.341 . S
C383 C381 1.400 . S
C383 C382 1.387 . S
N384 Co375 2.022 . S
N384 C381 1.351 . S
N384 N385 1.365 . S
N385 C382 1.341 . S
N385 N384 1.365 . S
N385 H405 0.862 . S
C386 C381 1.501 . S
C386 H387 0.961 1_554 S
C386 H388 0.961 . S
C386 H389 0.960 1_554 S
H387 C386 0.961 1_556 S
H388 C386 0.961 . S
H389 C386 0.960 1_556 S
C390 N391 1.342 . S
C390 C394 1.401 . S
C390 C395 1.499 . S
N391 Co374 1.989 . S
N391 C390 1.342 . S
N391 N392 1.388 . S
N392 Co375 1.993 . S
N392 N391 1.388 . S
N392 C393 1.346 . S
C393 N392 1.346 . S
C393 C394 1.396 . S
C393 C403 1.510 . S
C394 C390 1.401 . S
C394 C393 1.396 . S
C395 C390 1.499 . S
C395 H396 0.959 . S
C395 H397 0.960 . S
C395 H398 0.961 . S
H396 C395 0.959 . S
H397 C395 0.960 . S
H398 C395 0.961 . S
O399 Co374 1.967 . S
O399 C407 1.258 . S
O400 Co375 1.941 . S
O400 C407 1.266 . S
H401 C403 0.959 . S
H402 C403 0.961 . S
C403 C393 1.510 . S
C403 H401 0.959 . S
C403 H402 0.961 . S
C403 H404 0.960 . S
H404 C403 0.960 . S
H405 N385 0.862 . S
O406 Co374 1.920 . S
O406 C379 1.289 . S
C407 O399 1.258 . S
C407 O400 1.266 . S
Co408 O411 1.970 1_556 S
Co408 N425 1.989 . S
Co408 O433 1.967 . S
Co408 O440 1.920 . S
Co409 O412 1.966 1_556 S
Co409 N418 2.022 . S
Co409 N426 1.993 . S
Co409 O434 1.941 . S
C410 O411 1.258 . S
C410 O412 1.263 . S
O411 Co408 1.970 1_554 S
O411 C410 1.258 . S
O412 Co409 1.966 1_554 S
O412 C410 1.263 . S
C413 O414 1.235 . S
C413 O440 1.289 . S
O414 C413 1.235 . S
C415 C417 1.400 . S
C415 N418 1.351 . S
C415 C420 1.501 . S
C416 C417 1.387 . S
C416 N419 1.341 . S
C417 C415 1.400 . S
C417 C416 1.387 . S
N418 Co409 2.022 . S
N418 C415 1.351 . S
N418 N419 1.365 . S
N419 C416 1.341 . S
N419 N418 1.365 . S
N419 H439 0.862 . S
C420 C415 1.501 . S
C420 H421 0.961 1_556 S
C420 H422 0.961 . S
C420 H423 0.960 1_556 S
H421 C420 0.961 1_554 S
H422 C420 0.961 . S
H423 C420 0.960 1_554 S
C424 N425 1.342 . S
C424 C428 1.401 . S
C424 C429 1.499 . S
N425 Co408 1.989 . S
N425 C424 1.342 . S
N425 N426 1.388 . S
N426 Co409 1.993 . S
N426 N425 1.388 . S
N426 C427 1.346 . S
C427 N426 1.346 . S
C427 C428 1.396 . S
C427 C437 1.510 . S
C428 C424 1.401 . S
C428 C427 1.396 . S
C429 C424 1.499 . S
C429 H430 0.959 . S
C429 H431 0.960 . S
C429 H432 0.961 . S
H430 C429 0.959 . S
H431 C429 0.960 . S
H432 C429 0.961 . S
O433 Co408 1.967 . S
O433 C441 1.258 . S
O434 Co409 1.941 . S
O434 C441 1.266 . S
H435 C437 0.959 . S
H436 C437 0.961 . S
C437 C427 1.510 . S
C437 H435 0.959 . S
C437 H436 0.961 . S
C437 H438 0.960 . S
H438 C437 0.960 . S
H439 N419 0.862 . S
O440 Co408 1.920 . S
O440 C413 1.289 . S
C441 O433 1.258 . S
C441 O434 1.266 . S
Co442 O445 1.970 1_556 S
Co442 N459 1.989 . S
Co442 O467 1.967 . S
Co442 O474 1.920 . S
Co443 O446 1.966 1_556 S
Co443 N452 2.022 . S
Co443 N460 1.993 . S
Co443 O468 1.941 . S
C444 O445 1.258 . S
C444 O446 1.263 . S
O445 Co442 1.970 1_554 S
O445 C444 1.258 . S
O446 Co443 1.966 1_554 S
O446 C444 1.263 . S
C447 O448 1.235 . S
C447 O474 1.289 . S
O448 C447 1.235 . S
C449 C451 1.400 . S
C449 N452 1.351 . S
C449 C454 1.501 . S
C450 C451 1.387 . S
C450 N453 1.341 . S
C451 C449 1.400 . S
C451 C450 1.387 . S
N452 Co443 2.022 . S
N452 C449 1.351 . S
N452 N453 1.365 . S
N453 C450 1.341 . S
N453 N452 1.365 . S
N453 H473 0.862 . S
C454 C449 1.501 . S
C454 H455 0.961 1_556 S
C454 H456 0.961 . S
C454 H457 0.960 1_556 S
H455 C454 0.961 1_554 S
H456 C454 0.961 . S
H457 C454 0.960 1_554 S
C458 N459 1.342 . S
C458 C462 1.401 . S
C458 C463 1.499 . S
N459 Co442 1.989 . S
N459 C458 1.342 . S
N459 N460 1.388 . S
N460 Co443 1.993 . S
N460 N459 1.388 . S
N460 C461 1.346 . S
C461 N460 1.346 . S
C461 C462 1.396 . S
C461 C471 1.510 . S
C462 C458 1.401 . S
C462 C461 1.396 . S
C463 C458 1.499 . S
C463 H464 0.959 . S
C463 H465 0.960 . S
C463 H466 0.961 . S
H464 C463 0.959 . S
H465 C463 0.960 . S
H466 C463 0.961 . S
O467 Co442 1.967 . S
O467 C475 1.258 . S
O468 Co443 1.941 . S
O468 C475 1.266 . S
H469 C471 0.959 . S
H470 C471 0.961 . S
C471 C461 1.510 . S
C471 H469 0.959 . S
C471 H470 0.961 . S
C471 H472 0.960 . S
H472 C471 0.960 . S
H473 N453 0.862 . S
O474 Co442 1.920 . S
O474 C447 1.289 . S
C475 O467 1.258 . S
C475 O468 1.266 . S
Co476 O479 1.970 1_556 S
Co476 N493 1.989 . S
Co476 O501 1.967 . S
Co476 O508 1.920 . S
Co477 O480 1.966 1_556 S
Co477 N486 2.022 . S
Co477 N494 1.993 . S
Co477 O502 1.941 . S
C478 O479 1.258 . S
C478 O480 1.263 . S
O479 Co476 1.970 1_554 S
O479 C478 1.258 . S
O480 Co477 1.966 1_554 S
O480 C478 1.263 . S
C481 O482 1.235 . S
C481 O508 1.289 . S
O482 C481 1.235 . S
C483 C485 1.400 . S
C483 N486 1.351 . S
C483 C488 1.501 . S
C484 C485 1.387 . S
C484 N487 1.341 . S
C485 C483 1.400 . S
C485 C484 1.387 . S
N486 Co477 2.022 . S
N486 C483 1.351 . S
N486 N487 1.365 . S
N487 C484 1.341 . S
N487 N486 1.365 . S
N487 H507 0.862 . S
C488 C483 1.501 . S
C488 H489 0.961 1_556 S
C488 H490 0.961 . S
C488 H491 0.960 1_556 S
H489 C488 0.961 1_554 S
H490 C488 0.961 . S
H491 C488 0.960 1_554 S
C492 N493 1.342 . S
C492 C496 1.401 . S
C492 C497 1.499 . S
N493 Co476 1.989 . S
N493 C492 1.342 . S
N493 N494 1.388 . S
N494 Co477 1.993 . S
N494 N493 1.388 . S
N494 C495 1.346 . S
C495 N494 1.346 . S
C495 C496 1.396 . S
C495 C505 1.510 . S
C496 C492 1.401 . S
C496 C495 1.396 . S
C497 C492 1.499 . S
C497 H498 0.959 . S
C497 H499 0.960 . S
C497 H500 0.961 . S
H498 C497 0.959 . S
H499 C497 0.960 . S
H500 C497 0.961 . S
O501 Co476 1.967 . S
O501 C509 1.258 . S
O502 Co477 1.941 . S
O502 C509 1.266 . S
H503 C505 0.959 . S
H504 C505 0.961 . S
C505 C495 1.510 . S
C505 H503 0.959 . S
C505 H504 0.961 . S
C505 H506 0.960 . S
H506 C505 0.960 . S
H507 N487 0.862 . S
O508 Co476 1.920 . S
O508 C481 1.289 . S
C509 O501 1.258 . S
C509 O502 1.266 . S
Co510 O513 1.970 . S
Co510 N527 1.989 . S
Co510 O535 1.967 . S
Co510 O542 1.920 . S
Co511 O514 1.966 . S
Co511 N520 2.022 . S
Co511 N528 1.993 . S
Co511 O536 1.941 . S
C512 O513 1.258 . S
C512 O514 1.263 . S
O513 Co510 1.970 . S
O513 C512 1.258 . S
O514 Co511 1.966 . S
O514 C512 1.263 . S
C515 O516 1.235 . S
C515 O542 1.289 . S
O516 C515 1.235 . S
C517 C519 1.400 . S
C517 N520 1.351 . S
C517 C522 1.501 . S
C518 C519 1.387 . S
C518 N521 1.341 . S
C519 C517 1.400 . S
C519 C518 1.387 . S
N520 Co511 2.022 . S
N520 C517 1.351 . S
N520 N521 1.365 . S
N521 C518 1.341 . S
N521 N520 1.365 . S
N521 H541 0.862 . S
C522 C517 1.501 . S
C522 H523 0.961 . S
C522 H524 0.961 . S
C522 H525 0.960 . S
H523 C522 0.961 . S
H524 C522 0.961 . S
H525 C522 0.960 . S
C526 N527 1.342 . S
C526 C530 1.401 . S
C526 C531 1.499 . S
N527 Co510 1.989 . S
N527 C526 1.342 . S
N527 N528 1.388 . S
N528 Co511 1.993 . S
N528 N527 1.388 . S
N528 C529 1.346 . S
C529 N528 1.346 . S
C529 C530 1.396 . S
C529 C539 1.510 . S
C530 C526 1.401 . S
C530 C529 1.396 . S
C531 C526 1.499 . S
C531 H532 0.959 . S
C531 H533 0.960 . S
C531 H534 0.961 . S
H532 C531 0.959 . S
H533 C531 0.960 . S
H534 C531 0.961 . S
O535 Co510 1.967 . S
O535 C543 1.258 . S
O536 Co511 1.941 . S
O536 C543 1.266 . S
H537 C539 0.959 . S
H538 C539 0.961 . S
C539 C529 1.510 . S
C539 H537 0.959 . S
C539 H538 0.961 . S
C539 H540 0.960 . S
H540 C539 0.960 . S
H541 N521 0.862 . S
O542 Co510 1.920 . S
O542 C515 1.289 . S
C543 O535 1.258 . S
C543 O536 1.266 . S
Co544 O547 1.970 . S
Co544 N561 1.989 . S
Co544 O569 1.967 . S
Co544 O576 1.920 . S
Co545 O548 1.966 . S
Co545 N554 2.022 . S
Co545 N562 1.993 . S
Co545 O570 1.941 . S
C546 O547 1.258 . S
C546 O548 1.263 . S
O547 Co544 1.970 . S
O547 C546 1.258 . S
O548 Co545 1.966 . S
O548 C546 1.263 . S
C549 O550 1.235 . S
C549 O576 1.289 . S
O550 C549 1.235 . S
C551 C553 1.400 . S
C551 N554 1.351 . S
C551 C556 1.501 . S
C552 C553 1.387 . S
C552 N555 1.341 . S
C553 C551 1.400 . S
C553 C552 1.387 . S
N554 Co545 2.022 . S
N554 C551 1.351 . S
N554 N555 1.365 . S
N555 C552 1.341 . S
N555 N554 1.365 . S
N555 H575 0.862 . S
C556 C551 1.501 . S
C556 H557 0.961 . S
C556 H558 0.961 . S
C556 H559 0.960 . S
H557 C556 0.961 . S
H558 C556 0.961 . S
H559 C556 0.960 . S
C560 N561 1.342 . S
C560 C564 1.401 . S
C560 C565 1.499 . S
N561 Co544 1.989 . S
N561 C560 1.342 . S
N561 N562 1.388 . S
N562 Co545 1.993 . S
N562 N561 1.388 . S
N562 C563 1.346 . S
C563 N562 1.346 . S
C563 C564 1.396 . S
C563 C573 1.510 . S
C564 C560 1.401 . S
C564 C563 1.396 . S
C565 C560 1.499 . S
C565 H566 0.959 . S
C565 H567 0.960 . S
C565 H568 0.961 . S
H566 C565 0.959 . S
H567 C565 0.960 . S
H568 C565 0.961 . S
O569 Co544 1.967 . S
O569 C577 1.258 . S
O570 Co545 1.941 . S
O570 C577 1.266 . S
H571 C573 0.959 . S
H572 C573 0.961 . S
C573 C563 1.510 . S
C573 H571 0.959 . S
C573 H572 0.961 . S
C573 H574 0.960 . S
H574 C573 0.960 . S
H575 N555 0.862 . S
O576 Co544 1.920 . S
O576 C549 1.289 . S
C577 O569 1.258 . S
C577 O570 1.266 . S
Co578 O581 1.970 . S
Co578 N595 1.989 . S
Co578 O603 1.967 . S
Co578 O610 1.920 . S
Co579 O582 1.966 . S
Co579 N588 2.022 . S
Co579 N596 1.993 . S
Co579 O604 1.941 . S
C580 O581 1.258 . S
C580 O582 1.263 . S
O581 Co578 1.970 . S
O581 C580 1.258 . S
O582 Co579 1.966 . S
O582 C580 1.263 . S
C583 O584 1.235 . S
C583 O610 1.289 . S
O584 C583 1.235 . S
C585 C587 1.400 . S
C585 N588 1.351 . S
C585 C590 1.501 . S
C586 C587 1.387 . S
C586 N589 1.341 . S
C587 C585 1.400 . S
C587 C586 1.387 . S
N588 Co579 2.022 . S
N588 C585 1.351 . S
N588 N589 1.365 . S
N589 C586 1.341 . S
N589 N588 1.365 . S
N589 H609 0.862 . S
C590 C585 1.501 . S
C590 H591 0.961 . S
C590 H592 0.961 . S
C590 H593 0.960 . S
H591 C590 0.961 . S
H592 C590 0.961 . S
H593 C590 0.960 . S
C594 N595 1.342 . S
C594 C598 1.401 . S
C594 C599 1.499 . S
N595 Co578 1.989 . S
N595 C594 1.342 . S
N595 N596 1.388 . S
N596 Co579 1.993 . S
N596 N595 1.388 . S
N596 C597 1.346 . S
C597 N596 1.346 . S
C597 C598 1.396 . S
C597 C607 1.510 . S
C598 C594 1.401 . S
C598 C597 1.396 . S
C599 C594 1.499 . S
C599 H600 0.959 . S
C599 H601 0.960 . S
C599 H602 0.961 . S
H600 C599 0.959 . S
H601 C599 0.960 . S
H602 C599 0.961 . S
O603 Co578 1.967 . S
O603 C611 1.258 . S
O604 Co579 1.941 . S
O604 C611 1.266 . S
H605 C607 0.959 . S
H606 C607 0.961 . S
C607 C597 1.510 . S
C607 H605 0.959 . S
C607 H606 0.961 . S
C607 H608 0.960 . S
H608 C607 0.960 . S
H609 N589 0.862 . S
O610 Co578 1.920 . S
O610 C583 1.289 . S
C611 O603 1.258 . S
C611 O604 1.266 . S
C612 C613 1.363 . S
C612 C618 1.379 . S
C612 N620 1.356 . S
C613 C612 1.363 . S
C613 C619 1.363 . S
C614 C615 1.363 . S
C614 C619 1.379 . S
C614 N621 1.356 . S
C615 C614 1.363 . S
C615 C618 1.363 . S
N616 C618 1.356 . S
N616 H628 0.984 . S
N616 H629 0.985 . S
N617 C619 1.356 . S
N617 H622 0.984 . S
N617 H623 0.985 . S
C618 C612 1.379 . S
C618 C615 1.363 . S
C618 N616 1.356 . S
C619 C613 1.363 . S
C619 C614 1.379 . S
C619 N617 1.356 . S
N620 C612 1.356 . S
N620 H626 0.984 . S
N620 H627 0.984 . S
N621 C614 1.356 . S
N621 H624 0.984 . S
N621 H625 0.985 . S
H622 N617 0.984 . S
H623 N617 0.985 . S
H624 N621 0.984 . S
H625 N621 0.985 . S
H626 N620 0.984 . S
H627 N620 0.984 . S
H628 N616 0.984 . S
H629 N616 0.985 . S
C630 C631 1.363 1_545 S
C630 C636 1.379 . S
C630 N638 1.356 1_545 S
C631 C630 1.363 1_565 S
C631 C637 1.363 1_565 S
C632 C633 1.363 . S
C632 C637 1.379 . S
C632 N639 1.356 . S
C633 C632 1.363 . S
C633 C636 1.363 . S
N634 C636 1.356 . S
N634 H646 0.984 . S
N634 H647 0.985 . S
N635 C637 1.356 1_565 S
N635 H640 0.984 . S
N635 H641 0.985 . S
C636 C630 1.379 . S
C636 C633 1.363 . S
C636 N634 1.356 . S
C637 C631 1.363 1_545 S
C637 C632 1.379 . S
C637 N635 1.356 1_545 S
N638 C630 1.356 1_565 S
N638 H644 0.984 . S
N638 H645 0.984 . S
N639 C632 1.356 . S
N639 H642 0.984 . S
N639 H643 0.985 . S
H640 N635 0.984 . S
H641 N635 0.985 . S
H642 N639 0.984 . S
H643 N639 0.985 . S
H644 N638 0.984 . S
H645 N638 0.984 . S
H646 N634 0.984 . S
H647 N634 0.985 . S
C648 C649 1.363 . S
C648 C654 1.379 1_655 S
C648 N656 1.356 . S
C649 C648 1.363 . S
C649 C655 1.363 . S
C650 C651 1.363 . S
C650 C655 1.379 1_455 S
C650 N657 1.356 . S
C651 C650 1.363 . S
C651 C654 1.363 . S
N652 C654 1.356 . S
N652 H664 0.984 . S
N652 H665 0.985 . S
N653 C655 1.356 . S
N653 H658 0.984 . S
N653 H659 0.985 . S
C654 C648 1.379 1_455 S
C654 C651 1.363 . S
C654 N652 1.356 . S
C655 C649 1.363 . S
C655 C650 1.379 1_655 S
C655 N653 1.356 . S
N656 C648 1.356 . S
N656 H662 0.984 . S
N656 H663 0.984 . S
N657 C650 1.356 . S
N657 H660 0.984 . S
N657 H661 0.985 . S
H658 N653 0.984 . S
H659 N653 0.985 . S
H660 N657 0.984 . S
H661 N657 0.985 . S
H662 N656 0.984 . S
H663 N656 0.984 . S
H664 N652 0.984 . S
H665 N652 0.985 . S
C666 C667 1.363 . S
C666 C672 1.379 . S
C666 N674 1.356 . S
C667 C666 1.363 . S
C667 C673 1.363 . S
C668 C669 1.363 . S
C668 C673 1.379 . S
C668 N675 1.356 . S
C669 C668 1.363 . S
C669 C672 1.363 . S
N670 C672 1.356 . S
N670 H682 0.984 . S
N670 H683 0.985 . S
N671 C673 1.356 . S
N671 H676 0.984 . S
N671 H677 0.985 . S
C672 C666 1.379 . S
C672 C669 1.363 . S
C672 N670 1.356 . S
C673 C667 1.363 . S
C673 C668 1.379 . S
C673 N671 1.356 . S
N674 C666 1.356 . S
N674 H680 0.984 . S
N674 H681 0.984 . S
N675 C668 1.356 . S
N675 H678 0.984 . S
N675 H679 0.985 . S
H676 N671 0.984 . S
H677 N671 0.985 . S
H678 N675 0.984 . S
H679 N675 0.985 . S
H680 N674 0.984 . S
H681 N674 0.984 . S
H682 N670 0.984 . S
H683 N670 0.985 . S
C684 C685 1.363 . S
C684 C690 1.379 1_545 S
C684 N692 1.356 . S
C685 C684 1.363 . S
C685 C691 1.363 . S
C686 C687 1.363 . S
C686 C691 1.379 1_565 S
C686 N693 1.356 . S
C687 C686 1.363 . S
C687 C690 1.363 . S
N688 C690 1.356 . S
N688 H700 0.984 . S
N688 H701 0.985 . S
N689 C691 1.356 . S
N689 H694 0.984 . S
N689 H695 0.985 . S
C690 C684 1.379 1_565 S
C690 C687 1.363 . S
C690 N688 1.356 . S
C691 C685 1.363 . S
C691 C686 1.379 1_545 S
C691 N689 1.356 . S
N692 C684 1.356 . S
N692 H698 0.984 . S
N692 H699 0.984 . S
N693 C686 1.356 . S
N693 H696 0.984 . S
N693 H697 0.985 . S
H694 N689 0.984 . S
H695 N689 0.985 . S
H696 N693 0.984 . S
H697 N693 0.985 . S
H698 N692 0.984 . S
H699 N692 0.984 . S
H700 N688 0.984 . S
H701 N688 0.985 . S
C702 C703 1.363 . S
C702 C708 1.375 1_455 S
C702 N710 1.356 . S
C703 C702 1.363 . S
C703 C709 1.363 . S
C704 C705 1.363 1_455 S
C704 C709 1.379 . S
C704 N711 1.356 1_455 S
C705 C704 1.363 1_655 S
C705 C708 1.363 . S
N706 C708 1.360 . S
N706 H718 0.984 . S
N706 H719 0.985 . S
N707 C709 1.356 . S
N707 H712 0.984 . S
N707 H713 0.985 . S
C708 C702 1.375 1_655 S
C708 C705 1.363 . S
C708 N706 1.360 . S
C709 C703 1.363 . S
C709 C704 1.379 . S
C709 N707 1.356 . S
N710 C702 1.356 . S
N710 H716 0.984 . S
N710 H717 0.984 . S
N711 C704 1.356 1_655 S
N711 H714 0.984 . S
N711 H715 0.985 . S
H712 N707 0.984 . S
H713 N707 0.985 . S
H714 N711 0.984 . S
H715 N711 0.985 . S
H716 N710 0.984 . S
H717 N710 0.984 . S
H718 N706 0.984 . S
H719 N706 0.985 . S
C720 C721 1.363 . S
C720 C726 1.379 . S
C720 N728 1.356 . S
C721 C720 1.363 . S
C721 C727 1.363 . S
C722 C723 1.363 . S
C722 C727 1.379 . S
C722 N729 1.356 . S
C723 C722 1.363 . S
C723 C726 1.363 . S
N724 C726 1.356 . S
N724 H736 0.984 . S
N724 H737 0.985 . S
N725 C727 1.356 . S
N725 H730 0.984 . S
N725 H731 0.985 . S
C726 C720 1.379 . S
C726 C723 1.363 . S
C726 N724 1.356 . S
C727 C721 1.363 . S
C727 C722 1.379 . S
C727 N725 1.356 . S
N728 C720 1.356 . S
N728 H734 0.984 . S
N728 H735 0.984 . S
N729 C722 1.356 . S
N729 H732 0.984 . S
N729 H733 0.985 . S
H730 N725 0.984 . S
H731 N725 0.985 . S
H732 N729 0.984 . S
H733 N729 0.985 . S
H734 N728 0.984 . S
H735 N728 0.984 . S
H736 N724 0.984 . S
H737 N724 0.985 . S
C738 C739 1.363 . S
C738 C744 1.379 . S
C738 N746 1.356 . S
C739 C738 1.363 . S
C739 C745 1.363 . S
C740 C741 1.363 . S
C740 C745 1.379 . S
C740 N747 1.356 . S
C741 C740 1.363 . S
C741 C744 1.363 . S
N742 C744 1.356 . S
N742 H754 0.984 . S
N742 H755 0.985 . S
N743 C745 1.356 . S
N743 H748 0.984 . S
N743 H749 0.985 . S
C744 C738 1.379 . S
C744 C741 1.363 . S
C744 N742 1.356 . S
C745 C739 1.363 . S
C745 C740 1.379 . S
C745 N743 1.356 . S
N746 C738 1.356 . S
N746 H752 0.984 . S
N746 H753 0.984 . S
N747 C740 1.356 . S
N747 H750 0.984 . S
N747 H751 0.985 . S
H748 N743 0.984 . S
H749 N743 0.985 . S
H750 N747 0.984 . S
H751 N747 0.985 . S
H752 N746 0.984 . S
H753 N746 0.984 . S
H754 N742 0.984 . S
H755 N742 0.985 . S
C756 C757 1.363 . S
C756 C762 1.379 . S
C756 N764 1.356 . S
C757 C756 1.363 . S
C757 C763 1.363 . S
C758 C759 1.363 . S
C758 C763 1.379 . S
C758 N765 1.356 . S
C759 C758 1.363 . S
C759 C762 1.363 . S
N760 C762 1.356 . S
N760 H772 0.984 . S
N760 H773 0.985 . S
N761 C763 1.356 . S
N761 H766 0.984 . S
N761 H767 0.985 . S
C762 C756 1.379 . S
C762 C759 1.363 . S
C762 N760 1.356 . S
C763 C757 1.363 . S
C763 C758 1.379 . S
C763 N761 1.356 . S
N764 C756 1.356 . S
N764 H770 0.984 . S
N764 H771 0.984 . S
N765 C758 1.356 . S
N765 H768 0.984 . S
N765 H769 0.985 . S
H766 N761 0.984 . S
H767 N761 0.985 . S
H768 N765 0.984 . S
H769 N765 0.985 . S
H770 N764 0.984 . S
H771 N764 0.984 . S
H772 N760 0.984 . S
H773 N760 0.985 . S
C774 C775 1.363 . S
C774 C780 1.379 . S
C774 N782 1.356 1_554 S
C775 C774 1.363 . S
C775 C781 1.363 . S
C776 C777 1.363 . S
C776 C781 1.379 . S
C776 N783 1.356 . S
C777 C776 1.363 . S
C777 C780 1.363 . S
N778 C780 1.356 1_556 S
N778 H790 0.984 . S
N778 H791 0.985 . S
N779 C781 1.356 . S
N779 H784 0.984 . S
N779 H785 0.985 . S
C780 C774 1.379 . S
C780 C777 1.363 . S
C780 N778 1.356 1_554 S
C781 C775 1.363 . S
C781 C776 1.379 . S
C781 N779 1.356 . S
N782 C774 1.356 1_556 S
N782 H788 0.984 . S
N782 H789 0.984 . S
N783 C776 1.356 . S
N783 H786 0.984 . S
N783 H787 0.985 . S
H784 N779 0.984 . S
H785 N779 0.985 . S
H786 N783 0.984 . S
H787 N783 0.985 . S
H788 N782 0.984 . S
H789 N782 0.984 . S
H790 N778 0.984 . S
H791 N778 0.985 . S
C792 C793 1.363 . S
C792 C798 1.379 . S
C792 N800 1.356 1_554 S
C793 C792 1.363 . S
C793 C799 1.363 . S
C794 C795 1.363 . S
C794 C799 1.379 . S
C794 N801 1.356 . S
C795 C794 1.363 . S
C795 C798 1.363 . S
N796 C798 1.356 1_556 S
N796 H808 0.984 . S
N796 H809 0.985 . S
N797 C799 1.356 . S
N797 H802 0.984 . S
N797 H803 0.985 . S
C798 C792 1.379 . S
C798 C795 1.363 . S
C798 N796 1.356 1_554 S
C799 C793 1.363 . S
C799 C794 1.379 . S
C799 N797 1.356 . S
N800 C792 1.356 1_556 S
N800 H806 0.984 . S
N800 H807 0.984 . S
N801 C794 1.356 . S
N801 H804 0.984 . S
N801 H805 0.985 . S
H802 N797 0.984 . S
H803 N797 0.985 . S
H804 N801 0.984 . S
H805 N801 0.985 . S
H806 N800 0.984 . S
H807 N800 0.984 . S
H808 N796 0.984 . S
H809 N796 0.985 . S
C810 C811 1.363 . S
C810 C816 1.379 . S
C810 N818 1.356 . S
C811 C810 1.363 . S
C811 C817 1.363 . S
C812 C813 1.363 . S
C812 C817 1.379 . S
C812 N819 1.356 1_554 S
C813 C812 1.363 . S
C813 C816 1.363 . S
N814 C816 1.356 . S
N814 H826 0.984 . S
N814 H827 0.985 . S
N815 C817 1.356 1_556 S
N815 H820 0.984 . S
N815 H821 0.985 . S
C816 C810 1.379 . S
C816 C813 1.363 . S
C816 N814 1.356 . S
C817 C811 1.363 . S
C817 C812 1.379 . S
C817 N815 1.356 1_554 S
N818 C810 1.356 . S
N818 H824 0.984 . S
N818 H825 0.984 . S
N819 C812 1.356 1_556 S
N819 H822 0.984 . S
N819 H823 0.985 . S
H820 N815 0.984 . S
H821 N815 0.985 . S
H822 N819 0.984 . S
H823 N819 0.985 . S
H824 N818 0.984 . S
H825 N818 0.984 . S
H826 N814 0.984 . S
H827 N814 0.985 . S
C828 C829 1.363 . S
C828 C834 1.379 . S
C828 N836 1.356 . S
C829 C828 1.363 . S
C829 C835 1.363 . S
C830 C831 1.363 . S
C830 C835 1.379 . S
C830 N837 1.356 1_556 S
C831 C830 1.363 . S
C831 C834 1.363 . S
N832 C834 1.356 . S
N832 H844 0.984 . S
N832 H845 0.985 . S
N833 C835 1.356 1_554 S
N833 H838 0.984 1_554 S
N833 H839 0.985 . S
C834 C828 1.379 . S
C834 C831 1.363 . S
C834 N832 1.356 . S
C835 C829 1.363 . S
C835 C830 1.379 . S
C835 N833 1.356 1_556 S
N836 C828 1.356 . S
N836 H842 0.984 . S
N836 H843 0.984 . S
N837 C830 1.356 1_554 S
N837 H840 0.984 . S
N837 H841 0.985 . S
H838 N833 0.984 1_556 S
H839 N833 0.985 . S
H840 N837 0.984 . S
H841 N837 0.985 . S
H842 N836 0.984 . S
H843 N836 0.984 . S
H844 N832 0.984 . S
H845 N832 0.985 . S
C846 C847 1.363 . S
C846 C852 1.379 . S
C846 N854 1.356 . S
C847 C846 1.363 . S
C847 C853 1.363 . S
C848 C849 1.363 . S
C848 C853 1.379 . S
C848 N855 1.356 1_556 S
C849 C848 1.363 . S
C849 C852 1.363 . S
N850 C852 1.356 . S
N850 H862 0.984 . S
N850 H863 0.985 . S
N851 C853 1.356 1_554 S
N851 H856 0.984 . S
N851 H857 0.985 . S
C852 C846 1.379 . S
C852 C849 1.363 . S
C852 N850 1.356 . S
C853 C847 1.363 . S
C853 C848 1.379 . S
C853 N851 1.356 1_556 S
N854 C846 1.356 . S
N854 H860 0.984 . S
N854 H861 0.984 . S
N855 C848 1.356 1_554 S
N855 H858 0.984 1_554 S
N855 H859 0.985 . S
H856 N851 0.984 . S
H857 N851 0.985 . S
H858 N855 0.984 1_556 S
H859 N855 0.985 . S
H860 N854 0.984 . S
H861 N854 0.984 . S
H862 N850 0.984 . S
H863 N850 0.985 . S
C864 C865 1.363 . S
C864 C870 1.379 . S
C864 N872 1.356 . S
C865 C864 1.363 . S
C865 C871 1.363 . S
C866 C867 1.363 . S
C866 C871 1.379 . S
C866 N873 1.356 1_556 S
C867 C866 1.363 . S
C867 C870 1.363 . S
N868 C870 1.356 . S
N868 H880 0.984 . S
N868 H881 0.985 . S
N869 C871 1.356 1_554 S
N869 H874 0.984 . S
N869 H875 0.985 . S
C870 C864 1.379 . S
C870 C867 1.363 . S
C870 N868 1.356 . S
C871 C865 1.363 . S
C871 C866 1.379 . S
C871 N869 1.356 1_556 S
N872 C864 1.356 . S
N872 H878 0.984 . S
N872 H879 0.984 . S
N873 C866 1.356 1_554 S
N873 H876 0.984 1_554 S
N873 H877 0.985 . S
H874 N869 0.984 . S
H875 N869 0.985 . S
H876 N873 0.984 1_556 S
H877 N873 0.985 . S
H878 N872 0.984 . S
H879 N872 0.984 . S
H880 N868 0.984 . S
H881 N868 0.985 . S
C882 C883 1.363 . S
C882 C888 1.379 . S
C882 N890 1.356 . S
C883 C882 1.363 . S
C883 C889 1.363 . S
C884 C885 1.363 . S
C884 C889 1.379 . S
C884 N891 1.356 . S
C885 C884 1.363 . S
C885 C888 1.363 . S
N886 C888 1.356 . S
N886 H898 0.984 . S
N886 H899 0.985 . S
N887 C889 1.356 . S
N887 H892 0.984 . S
N887 H893 0.985 . S
C888 C882 1.379 . S
C888 C885 1.363 . S
C888 N886 1.356 . S
C889 C883 1.363 . S
C889 C884 1.379 . S
C889 N887 1.356 . S
N890 C882 1.356 . S
N890 H896 0.984 . S
N890 H897 0.984 . S
N891 C884 1.356 . S
N891 H894 0.984 . S
N891 H895 0.985 . S
H892 N887 0.984 . S
H893 N887 0.985 . S
H894 N891 0.984 . S
H895 N891 0.985 . S
H896 N890 0.984 . S
H897 N890 0.984 . S
H898 N886 0.984 . S
H899 N886 0.985 . S
C900 C901 1.363 . S
C900 C906 1.379 . S
C900 N908 1.356 . S
C901 C900 1.363 . S
C901 C907 1.363 . S
C902 C903 1.363 . S
C902 C907 1.379 . S
C902 N909 1.356 . S
C903 C902 1.363 . S
C903 C906 1.363 . S
N904 C906 1.356 . S
N904 H916 0.984 . S
N904 H917 0.985 . S
N905 C907 1.356 . S
N905 H910 0.984 . S
N905 H911 0.985 . S
C906 C900 1.379 . S
C906 C903 1.363 . S
C906 N904 1.356 . S
C907 C901 1.363 . S
C907 C902 1.379 . S
C907 N905 1.356 . S
N908 C900 1.356 . S
N908 H914 0.984 . S
N908 H915 0.984 . S
N909 C902 1.356 . S
N909 H912 0.984 . S
N909 H913 0.985 . S
H910 N905 0.984 . S
H911 N905 0.985 . S
H912 N909 0.984 . S
H913 N909 0.985 . S
H914 N908 0.984 . S
H915 N908 0.984 . S
H916 N904 0.984 . S
H917 N904 0.985 . S
C918 C919 1.363 . S
C918 C924 1.379 . S
C918 N926 1.356 . S
C919 C918 1.363 . S
C919 C925 1.363 . S
C920 C921 1.363 . S
C920 C925 1.379 . S
C920 N927 1.356 . S
C921 C920 1.363 . S
C921 C924 1.363 . S
N922 C924 1.356 . S
N922 H934 0.984 . S
N922 H935 0.985 . S
N923 C925 1.356 . S
N923 H928 0.984 . S
N923 H929 0.985 . S
C924 C918 1.379 . S
C924 C921 1.363 . S
C924 N922 1.356 . S
C925 C919 1.363 . S
C925 C920 1.379 . S
C925 N923 1.356 . S
N926 C918 1.356 . S
N926 H932 0.984 . S
N926 H933 0.984 . S
N927 C920 1.356 . S
N927 H930 0.984 . S
N927 H931 0.985 . S
H928 N923 0.984 . S
H929 N923 0.985 . S
H930 N927 0.984 . S
H931 N927 0.985 . S
H932 N926 0.984 . S
H933 N926 0.984 . S
H934 N922 0.984 . S
H935 N922 0.985 . S
C936 C937 1.363 . S
C936 C942 1.379 . S
C936 N944 1.356 . S
C937 C936 1.363 . S
C937 C943 1.363 . S
C938 C939 1.363 . S
C938 C943 1.379 . S
C938 N945 1.356 . S
C939 C938 1.363 . S
C939 C942 1.363 . S
N940 C942 1.356 . S
N940 H952 0.984 . S
N940 H953 0.985 . S
N941 C943 1.356 . S
N941 H946 0.984 . S
N941 H947 0.985 . S
C942 C936 1.379 . S
C942 C939 1.363 . S
C942 N940 1.356 . S
C943 C937 1.363 . S
C943 C938 1.379 . S
C943 N941 1.356 . S
N944 C936 1.356 . S
N944 H950 0.984 . S
N944 H951 0.984 . S
N945 C938 1.356 . S
N945 H948 0.984 . S
N945 H949 0.985 . S
H946 N941 0.984 . S
H947 N941 0.985 . S
H948 N945 0.984 . S
H949 N945 0.985 . S
H950 N944 0.984 . S
H951 N944 0.984 . S
H952 N940 0.984 . S
H953 N940 0.985 . S
C954 C955 1.363 . S
C954 C960 1.379 . S
C954 N962 1.356 . S
C955 C954 1.363 . S
C955 C961 1.363 . S
C956 C957 1.363 . S
C956 C961 1.379 . S
C956 N963 1.356 . S
C957 C956 1.363 . S
C957 C960 1.363 . S
N958 C960 1.356 . S
N958 H970 0.984 . S
N958 H971 0.985 . S
N959 C961 1.356 . S
N959 H964 0.984 . S
N959 H965 0.985 . S
C960 C954 1.379 . S
C960 C957 1.363 . S
C960 N958 1.356 . S
C961 C955 1.363 . S
C961 C956 1.379 . S
C961 N959 1.356 . S
N962 C954 1.356 . S
N962 H968 0.984 . S
N962 H969 0.984 . S
N963 C956 1.356 . S
N963 H966 0.984 . S
N963 H967 0.985 . S
H964 N959 0.984 . S
H965 N959 0.985 . S
H966 N963 0.984 . S
H967 N963 0.985 . S
H968 N962 0.984 . S
H969 N962 0.984 . S
H970 N958 0.984 . S
H971 N958 0.985 . S
C972 C973 1.363 . S
C972 C978 1.379 . S
C972 N980 1.356 . S
C973 C972 1.363 . S
C973 C979 1.363 . S
C974 C975 1.363 . S
C974 C979 1.379 . S
C974 N981 1.356 . S
C975 C974 1.363 . S
C975 C978 1.363 . S
N976 C978 1.356 . S
N976 H988 0.984 . S
N976 H989 0.985 . S
N977 C979 1.356 . S
N977 H982 0.984 . S
N977 H983 0.985 . S
C978 C972 1.379 . S
C978 C975 1.363 . S
C978 N976 1.356 . S
C979 C973 1.363 . S
C979 C974 1.379 . S
C979 N977 1.356 . S
N980 C972 1.356 . S
N980 H986 0.984 . S
N980 H987 0.984 . S
N981 C974 1.356 . S
N981 H984 0.984 . S
N981 H985 0.985 . S
H982 N977 0.984 . S
H983 N977 0.985 . S
H984 N981 0.984 . S
H985 N981 0.985 . S
H986 N980 0.984 . S
H987 N980 0.984 . S
H988 N976 0.984 . S
H989 N976 0.985 . S
C990 C991 1.363 . S
C990 C996 1.379 . S
C990 N998 1.356 . S
C991 C990 1.363 . S
C991 C997 1.363 . S
C992 C993 1.363 . S
C992 C997 1.379 . S
C992 N999 1.356 . S
C993 C992 1.363 . S
C993 C996 1.363 . S
N994 C996 1.356 . S
N994 H1006 0.984 . S
N994 H1007 0.985 . S
N995 C997 1.356 . S
N995 H1000 0.984 . S
N995 H1001 0.985 . S
C996 C990 1.379 . S
C996 C993 1.363 . S
C996 N994 1.356 . S
C997 C991 1.363 . S
C997 C992 1.379 . S
C997 N995 1.356 . S
N998 C990 1.356 . S
N998 H1004 0.984 . S
N998 H1005 0.984 . S
N999 C992 1.356 . S
N999 H1002 0.984 . S
N999 H1003 0.985 . S
H1000 N995 0.984 . S
H1001 N995 0.985 . S
H1002 N999 0.984 . S
H1003 N999 0.985 . S
H1004 N998 0.984 . S
H1005 N998 0.984 . S
H1006 N994 0.984 . S
H1007 N994 0.985 . S
C1008 C1009 1.363 . S
C1008 C1014 1.379 . S
C1008 N1016 1.356 . S
C1009 C1008 1.363 . S
C1009 C1015 1.363 . S
C1010 C1011 1.363 . S
C1010 C1015 1.379 . S
C1010 N1017 1.356 . S
C1011 C1010 1.363 . S
C1011 C1014 1.363 . S
N1012 C1014 1.356 . S
N1012 H1024 0.984 . S
N1012 H1025 0.985 . S
N1013 C1015 1.356 . S
N1013 H1018 0.984 . S
N1013 H1019 0.985 . S
C1014 C1008 1.379 . S
C1014 C1011 1.363 . S
C1014 N1012 1.356 . S
C1015 C1009 1.363 . S
C1015 C1010 1.379 . S
C1015 N1013 1.356 . S
N1016 C1008 1.356 . S
N1016 H1022 0.984 . S
N1016 H1023 0.984 . S
N1017 C1010 1.356 . S
N1017 H1020 0.984 . S
N1017 H1021 0.985 . S
H1018 N1013 0.984 . S
H1019 N1013 0.985 . S
H1020 N1017 0.984 . S
H1021 N1017 0.985 . S
H1022 N1016 0.984 . S
H1023 N1016 0.984 . S
H1024 N1012 0.984 . S
H1025 N1012 0.985 . S
C1026 C1027 1.363 . S
C1026 C1032 1.379 . S
C1026 N1034 1.356 . S
C1027 C1026 1.363 . S
C1027 C1033 1.363 . S
C1028 C1029 1.363 . S
C1028 C1033 1.379 . S
C1028 N1035 1.356 . S
C1029 C1028 1.363 . S
C1029 C1032 1.363 . S
N1030 C1032 1.356 . S
N1030 H1042 0.984 . S
N1030 H1043 0.985 . S
N1031 C1033 1.356 . S
N1031 H1036 0.984 . S
N1031 H1037 0.985 . S
C1032 C1026 1.379 . S
C1032 C1029 1.363 . S
C1032 N1030 1.356 . S
C1033 C1027 1.363 . S
C1033 C1028 1.379 . S
C1033 N1031 1.356 . S
N1034 C1026 1.356 . S
N1034 H1040 0.984 . S
N1034 H1041 0.984 . S
N1035 C1028 1.356 . S
N1035 H1038 0.984 . S
N1035 H1039 0.985 . S
H1036 N1031 0.984 . S
H1037 N1031 0.985 . S
H1038 N1035 0.984 . S
H1039 N1035 0.985 . S
H1040 N1034 0.984 . S
H1041 N1034 0.984 . S
H1042 N1030 0.984 . S
H1043 N1030 0.985 . S
C1044 C1045 1.363 1_455 S
C1044 C1050 1.379 . S
C1044 N1052 1.356 . S
C1045 C1044 1.363 1_655 S
C1045 C1051 1.363 . S
C1046 C1047 1.363 . S
C1046 C1051 1.379 1_455 S
C1046 N1053 1.356 . S
C1047 C1046 1.363 . S
C1047 C1050 1.363 . S
N1048 C1050 1.356 . S
N1048 H1060 0.984 . S
N1048 H1061 0.985 . S
N1049 C1051 1.356 . S
N1049 H1054 0.984 . S
N1049 H1055 0.985 . S
C1050 C1044 1.379 . S
C1050 C1047 1.363 . S
C1050 N1048 1.356 . S
C1051 C1045 1.363 . S
C1051 C1046 1.379 1_655 S
C1051 N1049 1.356 . S
N1052 C1044 1.356 . S
N1052 H1058 0.984 . S
N1052 H1059 0.984 1_455 S
N1053 C1046 1.356 . S
N1053 H1056 0.984 . S
N1053 H1057 0.985 1_455 S
H1054 N1049 0.984 . S
H1055 N1049 0.985 . S
H1056 N1053 0.984 . S
H1057 N1053 0.985 1_655 S
H1058 N1052 0.984 . S
H1059 N1052 0.984 1_655 S
H1060 N1048 0.984 . S
H1061 N1048 0.985 . S
C1062 C1063 1.363 . S
C1062 C1068 1.379 . S
C1062 N1070 1.356 . S
C1063 C1062 1.363 . S
C1063 C1069 1.363 . S
C1064 C1065 1.363 . S
C1064 C1069 1.379 . S
C1064 N1071 1.356 . S
C1065 C1064 1.363 . S
C1065 C1068 1.363 . S
N1066 C1068 1.356 . S
N1066 H1078 0.984 . S
N1066 H1079 0.985 . S
N1067 C1069 1.356 . S
N1067 H1072 0.984 . S
N1067 H1073 0.985 . S
C1068 C1062 1.379 . S
C1068 C1065 1.363 . S
C1068 N1066 1.356 . S
C1069 C1063 1.363 . S
C1069 C1064 1.379 . S
C1069 N1067 1.356 . S
N1070 C1062 1.356 . S
N1070 H1076 0.984 . S
N1070 H1077 0.984 . S
N1071 C1064 1.356 . S
N1071 H1074 0.984 . S
N1071 H1075 0.985 . S
H1072 N1067 0.984 . S
H1073 N1067 0.985 . S
H1074 N1071 0.984 . S
H1075 N1071 0.985 . S
H1076 N1070 0.984 . S
H1077 N1070 0.984 . S
H1078 N1066 0.984 . S
H1079 N1066 0.985 . S
C1080 C1081 1.363 1_545 S
C1080 C1086 1.379 . S
C1080 N1088 1.356 . S
C1081 C1080 1.363 1_565 S
C1081 C1087 1.363 . S
C1082 C1083 1.360 1_565 S
C1082 C1087 1.381 . S
C1082 N1089 1.356 1_565 S
C1083 C1082 1.360 1_545 S
C1083 C1086 1.363 . S
N1084 C1086 1.356 . S
N1084 H1096 0.984 . S
N1084 H1097 0.985 . S
N1085 C1087 1.356 . S
N1085 H1090 0.984 . S
N1085 H1091 0.985 . S
C1086 C1080 1.379 . S
C1086 C1083 1.363 . S
C1086 N1084 1.356 . S
C1087 C1081 1.363 . S
C1087 C1082 1.381 . S
C1087 N1085 1.356 . S
N1088 C1080 1.356 . S
N1088 H1094 0.984 . S
N1088 H1095 0.984 1_545 S
N1089 C1082 1.356 1_545 S
N1089 H1092 0.984 . S
N1089 H1093 0.985 1_545 S
H1090 N1085 0.984 . S
H1091 N1085 0.985 . S
H1092 N1089 0.984 . S
H1093 N1089 0.985 1_565 S
H1094 N1088 0.984 . S
H1095 N1088 0.984 1_565 S
H1096 N1084 0.984 . S
H1097 N1084 0.985 . S
C1098 C1099 1.376 . S
C1098 C1104 1.379 . S
C1098 N1106 1.356 . S
C1099 C1098 1.376 . S
C1099 C1105 1.354 1_545 S
C1100 C1101 1.363 1_565 S
C1100 C1105 1.379 . S
C1100 N1107 1.356 . S
C1101 C1100 1.363 1_545 S
C1101 C1104 1.363 . S
N1102 C1104 1.356 . S
N1102 H1114 0.984 . S
N1102 H1115 0.985 . S
N1103 C1105 1.356 . S
N1103 H1108 0.984 . S
N1103 H1109 0.985 . S
C1104 C1098 1.379 . S
C1104 C1101 1.363 . S
C1104 N1102 1.356 . S
C1105 C1099 1.354 1_565 S
C1105 C1100 1.379 . S
C1105 N1103 1.356 . S
N1106 C1098 1.356 . S
N1106 H1112 0.984 . S
N1106 H1113 0.984 . S
N1107 C1100 1.356 . S
N1107 H1110 0.984 . S
N1107 H1111 0.985 . S
H1108 N1103 0.984 . S
H1109 N1103 0.985 . S
H1110 N1107 0.984 . S
H1111 N1107 0.985 . S
H1112 N1106 0.984 . S
H1113 N1106 0.984 . S
H1114 N1102 0.984 . S
H1115 N1102 0.985 . S
C1116 C1117 1.379 . S
C1116 C1122 1.379 . S
C1116 N1124 1.356 . S
C1117 C1116 1.379 . S
C1117 C1123 1.365 . S
C1118 C1119 1.363 . S
C1118 C1123 1.383 . S
C1118 N1125 1.356 . S
C1119 C1118 1.363 . S
C1119 C1122 1.363 . S
N1120 C1122 1.356 . S
N1120 H1132 0.984 . S
N1120 H1133 0.985 . S
N1121 C1123 1.340 1_655 S
N1121 H1126 0.984 . S
N1121 H1127 0.985 . S
C1122 C1116 1.379 . S
C1122 C1119 1.363 . S
C1122 N1120 1.356 . S
C1123 C1117 1.365 . S
C1123 C1118 1.383 . S
C1123 N1121 1.340 1_455 S
N1124 C1116 1.356 . S
N1124 H1130 0.984 . S
N1124 H1131 0.984 . S
N1125 C1118 1.356 . S
N1125 H1128 0.984 . S
N1125 H1129 0.985 . S
H1126 N1121 0.984 . S
H1127 N1121 0.985 . S
H1128 N1125 0.984 . S
H1129 N1125 0.985 . S
H1130 N1124 0.984 . S
H1131 N1124 0.984 . S
H1132 N1120 0.984 . S
H1133 N1120 0.985 . S
C1134 C1135 1.363 . S
C1134 C1140 1.379 . S
C1134 N1142 1.356 . S
C1135 C1134 1.363 . S
C1135 C1141 1.363 . S
C1136 C1137 1.363 . S
C1136 C1141 1.379 . S
C1136 N1143 1.356 . S
C1137 C1136 1.363 . S
C1137 C1140 1.363 . S
N1138 C1140 1.356 . S
N1138 H1150 0.984 . S
N1138 H1151 0.985 . S
N1139 C1141 1.356 . S
N1139 H1144 0.984 . S
N1139 H1145 0.985 . S
C1140 C1134 1.379 . S
C1140 C1137 1.363 . S
C1140 N1138 1.356 . S
C1141 C1135 1.363 . S
C1141 C1136 1.379 . S
C1141 N1139 1.356 . S
N1142 C1134 1.356 . S
N1142 H1148 0.984 . S
N1142 H1149 0.984 . S
N1143 C1136 1.356 . S
N1143 H1146 0.984 . S
N1143 H1147 0.985 . S
H1144 N1139 0.984 . S
H1145 N1139 0.985 . S
H1146 N1143 0.984 . S
H1147 N1143 0.985 . S
H1148 N1142 0.984 . S
H1149 N1142 0.984 . S
H1150 N1138 0.984 . S
H1151 N1138 0.985 . S
C1152 C1153 1.363 . S
C1152 C1158 1.379 . S
C1152 N1160 1.356 . S
C1153 C1152 1.363 . S
C1153 C1159 1.363 . S
C1154 C1155 1.363 . S
C1154 C1159 1.379 . S
C1154 N1161 1.356 . S
C1155 C1154 1.363 . S
C1155 C1158 1.363 . S
N1156 C1158 1.356 . S
N1156 H1168 0.984 . S
N1156 H1169 0.985 . S
N1157 C1159 1.356 . S
N1157 H1162 0.984 . S
N1157 H1163 0.985 . S
C1158 C1152 1.379 . S
C1158 C1155 1.363 . S
C1158 N1156 1.356 . S
C1159 C1153 1.363 . S
C1159 C1154 1.379 . S
C1159 N1157 1.356 . S
N1160 C1152 1.356 . S
N1160 H1166 0.984 . S
N1160 H1167 0.984 . S
N1161 C1154 1.356 . S
N1161 H1164 0.984 . S
N1161 H1165 0.985 . S
H1162 N1157 0.984 . S
H1163 N1157 0.985 . S
H1164 N1161 0.984 . S
H1165 N1161 0.985 . S
H1166 N1160 0.984 . S
H1167 N1160 0.984 . S
H1168 N1156 0.984 . S
H1169 N1156 0.985 . S
C1170 C1171 1.363 . S
C1170 C1176 1.379 . S
C1170 N1178 1.356 . S
C1171 C1170 1.363 . S
C1171 C1177 1.363 . S
C1172 C1173 1.363 . S
C1172 C1177 1.379 . S
C1172 N1179 1.356 . S
C1173 C1172 1.363 . S
C1173 C1176 1.363 . S
N1174 C1176 1.356 . S
N1174 H1186 0.984 . S
N1174 H1187 0.985 . S
N1175 C1177 1.356 . S
N1175 H1180 0.984 . S
N1175 H1181 0.985 . S
C1176 C1170 1.379 . S
C1176 C1173 1.363 . S
C1176 N1174 1.356 . S
C1177 C1171 1.363 . S
C1177 C1172 1.379 . S
C1177 N1175 1.356 . S
N1178 C1170 1.356 . S
N1178 H1184 0.984 . S
N1178 H1185 0.984 . S
N1179 C1172 1.356 . S
N1179 H1182 0.984 . S
N1179 H1183 0.985 . S
H1180 N1175 0.984 . S
H1181 N1175 0.985 . S
H1182 N1179 0.984 . S
H1183 N1179 0.985 . S
H1184 N1178 0.984 . S
H1185 N1178 0.984 . S
H1186 N1174 0.984 . S
H1187 N1174 0.985 . S
C1188 C1189 1.363 . S
C1188 C1194 1.379 . S
C1188 N1196 1.356 . S
C1189 C1188 1.363 . S
C1189 C1195 1.363 . S
C1190 C1191 1.363 . S
C1190 C1195 1.379 . S
C1190 N1197 1.356 . S
C1191 C1190 1.363 . S
C1191 C1194 1.363 . S
N1192 C1194 1.356 . S
N1192 H1204 0.984 . S
N1192 H1205 0.985 . S
N1193 C1195 1.356 . S
N1193 H1198 0.984 . S
N1193 H1199 0.985 . S
C1194 C1188 1.379 . S
C1194 C1191 1.363 . S
C1194 N1192 1.356 . S
C1195 C1189 1.363 . S
C1195 C1190 1.379 . S
C1195 N1193 1.356 . S
N1196 C1188 1.356 . S
N1196 H1202 0.984 . S
N1196 H1203 0.984 . S
N1197 C1190 1.356 . S
N1197 H1200 0.984 . S
N1197 H1201 0.985 . S
H1198 N1193 0.984 . S
H1199 N1193 0.985 . S
H1200 N1197 0.984 . S
H1201 N1197 0.985 . S
H1202 N1196 0.984 . S
H1203 N1196 0.984 . S
H1204 N1192 0.984 . S
H1205 N1192 0.985 . S
C1206 C1207 1.363 . S
C1206 C1212 1.379 . S
C1206 N1214 1.356 . S
C1207 C1206 1.363 . S
C1207 C1213 1.363 . S
C1208 C1209 1.363 . S
C1208 C1213 1.379 . S
C1208 N1215 1.356 . S
C1209 C1208 1.363 . S
C1209 C1212 1.363 . S
N1210 C1212 1.356 . S
N1210 H1222 0.984 . S
N1210 H1223 0.985 . S
N1211 C1213 1.356 . S
N1211 H1216 0.984 . S
N1211 H1217 0.985 . S
C1212 C1206 1.379 . S
C1212 C1209 1.363 . S
C1212 N1210 1.356 . S
C1213 C1207 1.363 . S
C1213 C1208 1.379 . S
C1213 N1211 1.356 . S
N1214 C1206 1.356 . S
N1214 H1220 0.984 . S
N1214 H1221 0.984 . S
N1215 C1208 1.356 . S
N1215 H1218 0.984 . S
N1215 H1219 0.985 . S
H1216 N1211 0.984 . S
H1217 N1211 0.985 . S
H1218 N1215 0.984 . S
H1219 N1215 0.985 . S
H1220 N1214 0.984 . S
H1221 N1214 0.984 . S
H1222 N1210 0.984 . S
H1223 N1210 0.985 . S
C1224 C1225 1.363 . S
C1224 C1230 1.379 . S
C1224 N1232 1.356 . S
C1225 C1224 1.363 . S
C1225 C1231 1.363 . S
C1226 C1227 1.363 . S
C1226 C1231 1.379 . S
C1226 N1233 1.356 . S
C1227 C1226 1.363 . S
C1227 C1230 1.363 . S
N1228 C1230 1.356 . S
N1228 H1240 0.984 . S
N1228 H1241 0.985 . S
N1229 C1231 1.356 . S
N1229 H1234 0.984 . S
N1229 H1235 0.985 . S
C1230 C1224 1.379 . S
C1230 C1227 1.363 . S
C1230 N1228 1.356 . S
C1231 C1225 1.363 . S
C1231 C1226 1.379 . S
C1231 N1229 1.356 . S
N1232 C1224 1.356 . S
N1232 H1238 0.984 . S
N1232 H1239 0.984 . S
N1233 C1226 1.356 . S
N1233 H1236 0.984 . S
N1233 H1237 0.985 . S
H1234 N1229 0.984 . S
H1235 N1229 0.985 . S
H1236 N1233 0.984 . S
H1237 N1233 0.985 . S
H1238 N1232 0.984 . S
H1239 N1232 0.984 . S
H1240 N1228 0.984 . S
H1241 N1228 0.985 . S
C1242 C1243 1.363 . S
C1242 C1248 1.379 . S
C1242 N1250 1.356 . S
C1243 C1242 1.363 . S
C1243 C1249 1.363 . S
C1244 C1245 1.363 . S
C1244 C1249 1.379 . S
C1244 N1251 1.356 . S
C1245 C1244 1.363 . S
C1245 C1248 1.363 . S
N1246 C1248 1.356 . S
N1246 H1258 0.984 . S
N1246 H1259 0.985 . S
N1247 C1249 1.356 . S
N1247 H1252 0.984 . S
N1247 H1253 0.985 . S
C1248 C1242 1.379 . S
C1248 C1245 1.363 . S
C1248 N1246 1.356 . S
C1249 C1243 1.363 . S
C1249 C1244 1.379 . S
C1249 N1247 1.356 . S
N1250 C1242 1.356 . S
N1250 H1256 0.984 . S
N1250 H1257 0.984 . S
N1251 C1244 1.356 . S
N1251 H1254 0.984 . S
N1251 H1255 0.985 . S
H1252 N1247 0.984 . S
H1253 N1247 0.985 . S
H1254 N1251 0.984 . S
H1255 N1251 0.985 . S
H1256 N1250 0.984 . S
H1257 N1250 0.984 . S
H1258 N1246 0.984 . S
H1259 N1246 0.985 . S
C1260 C1261 1.363 1_545 S
C1260 C1266 1.379 1_554 S
C1260 N1268 1.356 . S
C1261 C1260 1.363 1_565 S
C1261 C1267 1.363 . S
C1262 C1263 1.363 1_565 S
C1262 C1267 1.379 1_556 S
C1262 N1269 1.348 . S
C1263 C1262 1.363 1_545 S
C1263 C1266 1.363 . S
N1264 C1266 1.356 . S
N1264 H1276 0.984 . S
N1264 H1277 0.985 . S
N1265 C1267 1.356 . S
N1265 H1270 0.984 . S
N1265 H1271 0.985 . S
C1266 C1260 1.379 1_556 S
C1266 C1263 1.363 . S
C1266 N1264 1.356 . S
C1267 C1261 1.363 . S
C1267 C1262 1.379 1_554 S
C1267 N1265 1.356 . S
N1268 C1260 1.356 . S
N1268 H1274 0.984 . S
N1268 H1275 0.984 1_545 S
N1269 C1262 1.348 . S
N1269 H1272 0.962 1_565 S
N1269 H1273 1.016 . S
H1270 N1265 0.984 . S
H1271 N1265 0.985 . S
H1272 N1269 0.962 1_545 S
H1273 N1269 1.016 . S
H1274 N1268 0.984 . S
H1275 N1268 0.984 1_565 S
H1276 N1264 0.984 . S
H1277 N1264 0.985 . S
C1278 C1279 1.363 . S
C1278 C1284 1.379 1_454 S
C1278 N1286 1.356 . S
C1279 C1278 1.363 . S
C1279 C1285 1.363 . S
C1280 C1281 1.363 1_455 S
C1280 C1285 1.379 1_556 S
C1280 N1287 1.356 . S
C1281 C1280 1.363 1_655 S
C1281 C1284 1.363 . S
N1282 C1284 1.356 . S
N1282 H1294 0.984 . S
N1282 H1295 0.985 . S
N1283 C1285 1.356 . S
N1283 H1288 0.984 . S
N1283 H1289 0.985 . S
C1284 C1278 1.379 1_656 S
C1284 C1281 1.363 . S
C1284 N1282 1.356 . S
C1285 C1279 1.363 . S
C1285 C1280 1.379 1_554 S
C1285 N1283 1.356 . S
N1286 C1278 1.356 . S
N1286 H1292 0.984 1_455 S
N1286 H1293 0.984 . S
N1287 C1280 1.356 . S
N1287 H1290 0.984 1_455 S
N1287 H1291 0.985 . S
H1288 N1283 0.984 . S
H1289 N1283 0.985 . S
H1290 N1287 0.984 1_655 S
H1291 N1287 0.985 . S
H1292 N1286 0.984 1_655 S
H1293 N1286 0.984 . S
H1294 N1282 0.984 . S
H1295 N1282 0.985 . S
C1296 C1297 1.363 . S
C1296 C1302 1.379 1_556 S
C1296 N1304 1.356 . S
C1297 C1296 1.363 . S
C1297 C1303 1.363 . S
C1298 C1299 1.363 . S
C1298 C1303 1.379 1_554 S
C1298 N1305 1.356 . S
C1299 C1298 1.363 . S
C1299 C1302 1.363 . S
N1300 C1302 1.356 . S
N1300 H1312 0.984 . S
N1300 H1313 0.985 . S
N1301 C1303 1.356 . S
N1301 H1306 0.984 . S
N1301 H1307 0.985 . S
C1302 C1296 1.379 1_554 S
C1302 C1299 1.363 . S
C1302 N1300 1.356 . S
C1303 C1297 1.363 . S
C1303 C1298 1.379 1_556 S
C1303 N1301 1.356 . S
N1304 C1296 1.356 . S
N1304 H1310 0.984 . S
N1304 H1311 0.984 . S
N1305 C1298 1.356 . S
N1305 H1308 0.984 . S
N1305 H1309 0.985 . S
H1306 N1301 0.984 . S
H1307 N1301 0.985 . S
H1308 N1305 0.984 . S
H1309 N1305 0.985 . S
H1310 N1304 0.984 . S
H1311 N1304 0.984 . S
H1312 N1300 0.984 . S
H1313 N1300 0.985 . S
C1314 C1315 1.363 . S
C1314 C1320 1.379 . S
C1314 N1322 1.356 . S
C1315 C1314 1.363 . S
C1315 C1321 1.363 . S
C1316 C1317 1.363 . S
C1316 C1321 1.379 . S
C1316 N1323 1.356 . S
C1317 C1316 1.363 . S
C1317 C1320 1.363 . S
N1318 C1320 1.356 . S
N1318 H1330 0.984 . S
N1318 H1331 0.985 . S
N1319 C1321 1.356 . S
N1319 H1324 0.984 . S
N1319 H1325 0.985 . S
C1320 C1314 1.379 . S
C1320 C1317 1.363 . S
C1320 N1318 1.356 . S
C1321 C1315 1.363 . S
C1321 C1316 1.379 . S
C1321 N1319 1.356 . S
N1322 C1314 1.356 . S
N1322 H1328 0.984 . S
N1322 H1329 0.984 . S
N1323 C1316 1.356 . S
N1323 H1326 0.984 . S
N1323 H1327 0.985 . S
H1324 N1319 0.984 . S
H1325 N1319 0.985 . S
H1326 N1323 0.984 . S
H1327 N1323 0.985 . S
H1328 N1322 0.984 . S
H1329 N1322 0.984 . S
H1330 N1318 0.984 . S
H1331 N1318 0.985 . S
C1332 C1333 1.363 . S
C1332 C1338 1.379 . S
C1332 N1340 1.356 . S
C1333 C1332 1.363 . S
C1333 C1339 1.363 . S
C1334 C1335 1.363 . S
C1334 C1339 1.379 . S
C1334 N1341 1.356 . S
C1335 C1334 1.363 . S
C1335 C1338 1.363 . S
N1336 C1338 1.356 . S
N1336 H1348 0.984 . S
N1336 H1349 0.985 . S
N1337 C1339 1.356 . S
N1337 H1342 0.984 . S
N1337 H1343 0.985 . S
C1338 C1332 1.379 . S
C1338 C1335 1.363 . S
C1338 N1336 1.356 . S
C1339 C1333 1.363 . S
C1339 C1334 1.379 . S
C1339 N1337 1.356 . S
N1340 C1332 1.356 . S
N1340 H1346 0.984 . S
N1340 H1347 0.984 . S
N1341 C1334 1.356 . S
N1341 H1344 0.984 . S
N1341 H1345 0.985 . S
H1342 N1337 0.984 . S
H1343 N1337 0.985 . S
H1344 N1341 0.984 . S
H1345 N1341 0.985 . S
H1346 N1340 0.984 . S
H1347 N1340 0.984 . S
H1348 N1336 0.984 . S
H1349 N1336 0.985 . S
C1350 C1351 1.363 . S
C1350 C1356 1.379 . S
C1350 N1358 1.356 . S
C1351 C1350 1.363 . S
C1351 C1357 1.363 . S
C1352 C1353 1.363 . S
C1352 C1357 1.379 . S
C1352 N1359 1.356 . S
C1353 C1352 1.363 . S
C1353 C1356 1.363 . S
N1354 C1356 1.356 . S
N1354 H1366 0.984 . S
N1354 H1367 0.985 . S
N1355 C1357 1.356 . S
N1355 H1360 0.984 . S
N1355 H1361 0.985 . S
C1356 C1350 1.379 . S
C1356 C1353 1.363 . S
C1356 N1354 1.356 . S
C1357 C1351 1.363 . S
C1357 C1352 1.379 . S
C1357 N1355 1.356 . S
N1358 C1350 1.356 . S
N1358 H1364 0.984 . S
N1358 H1365 0.984 . S
N1359 C1352 1.356 . S
N1359 H1362 0.984 . S
N1359 H1363 0.985 . S
H1360 N1355 0.984 . S
H1361 N1355 0.985 . S
H1362 N1359 0.984 . S
H1363 N1359 0.985 . S
H1364 N1358 0.984 . S
H1365 N1358 0.984 . S
H1366 N1354 0.984 . S
H1367 N1354 0.985 . S
C1368 C1369 1.363 . S
C1368 C1374 1.379 . S
C1368 N1376 1.356 . S
C1369 C1368 1.363 . S
C1369 C1375 1.363 . S
C1370 C1371 1.363 . S
C1370 C1375 1.379 . S
C1370 N1377 1.356 . S
C1371 C1370 1.363 . S
C1371 C1374 1.363 . S
N1372 C1374 1.356 . S
N1372 H1384 0.984 . S
N1372 H1385 0.985 . S
N1373 C1375 1.356 . S
N1373 H1378 0.984 . S
N1373 H1379 0.985 . S
C1374 C1368 1.379 . S
C1374 C1371 1.363 . S
C1374 N1372 1.356 . S
C1375 C1369 1.363 . S
C1375 C1370 1.379 . S
C1375 N1373 1.356 . S
N1376 C1368 1.356 . S
N1376 H1382 0.984 . S
N1376 H1383 0.984 . S
N1377 C1370 1.356 . S
N1377 H1380 0.984 . S
N1377 H1381 0.985 . S
H1378 N1373 0.984 . S
H1379 N1373 0.985 . S
H1380 N1377 0.984 . S
H1381 N1377 0.985 . S
H1382 N1376 0.984 . S
H1383 N1376 0.984 . S
H1384 N1372 0.984 . S
H1385 N1372 0.985 . S
C1386 C1387 1.363 . S
C1386 C1392 1.379 . S
C1386 N1394 1.356 . S
C1387 C1386 1.363 . S
C1387 C1393 1.363 . S
C1388 C1389 1.363 . S
C1388 C1393 1.379 . S
C1388 N1395 1.356 . S
C1389 C1388 1.363 . S
C1389 C1392 1.363 . S
N1390 C1392 1.356 . S
N1390 H1402 0.984 . S
N1390 H1403 0.985 . S
N1391 C1393 1.356 . S
N1391 H1396 0.984 . S
N1391 H1397 0.985 . S
C1392 C1386 1.379 . S
C1392 C1389 1.363 . S
C1392 N1390 1.356 . S
C1393 C1387 1.363 . S
C1393 C1388 1.379 . S
C1393 N1391 1.356 . S
N1394 C1386 1.356 . S
N1394 H1400 0.984 . S
N1394 H1401 0.984 . S
N1395 C1388 1.356 . S
N1395 H1398 0.984 . S
N1395 H1399 0.985 . S
H1396 N1391 0.984 . S
H1397 N1391 0.985 . S
H1398 N1395 0.984 . S
H1399 N1395 0.985 . S
H1400 N1394 0.984 . S
H1401 N1394 0.984 . S
H1402 N1390 0.984 . S
H1403 N1390 0.985 . S
C1404 C1405 1.363 . S
C1404 C1410 1.379 . S
C1404 N1412 1.356 . S
C1405 C1404 1.363 . S
C1405 C1411 1.363 . S
C1406 C1407 1.363 . S
C1406 C1411 1.379 . S
C1406 N1413 1.356 . S
C1407 C1406 1.363 . S
C1407 C1410 1.363 . S
N1408 C1410 1.356 . S
N1408 H1420 0.984 . S
N1408 H1421 0.985 . S
N1409 C1411 1.356 . S
N1409 H1414 0.984 . S
N1409 H1415 0.985 . S
C1410 C1404 1.379 . S
C1410 C1407 1.363 . S
C1410 N1408 1.356 . S
C1411 C1405 1.363 . S
C1411 C1406 1.379 . S
C1411 N1409 1.356 . S
N1412 C1404 1.356 . S
N1412 H1418 0.984 . S
N1412 H1419 0.984 . S
N1413 C1406 1.356 . S
N1413 H1416 0.984 . S
N1413 H1417 0.985 . S
H1414 N1409 0.984 . S
H1415 N1409 0.985 . S
H1416 N1413 0.984 . S
H1417 N1413 0.985 . S
H1418 N1412 0.984 . S
H1419 N1412 0.984 . S
H1420 N1408 0.984 . S
H1421 N1408 0.985 . S
C613 C33 1.304 . S
C615 C39 1.309 . S
C631 C73 1.304 . S
C633 C67 1.302 . S
C649 C101 1.303 . S
C651 C5 1.304 . S
C667 C175 1.305 . S
C669 C135 1.308 . S
C685 C107 1.304 . S
C687 C169 1.303 . S
C703 C203 1.303 . S
C705 C141 1.304 . S
C721 C243 1.305 . S
C723 C237 1.304 . S
C739 C271 1.303 . S
C741 C277 1.304 . S
C757 C305 1.303 . S
C759 C209 1.304 . S
C775 C379 1.304 . S
C777 C339 1.303 . S
C793 C311 1.304 . S
C795 C373 1.303 . S
C811 C407 1.303 . S
C813 C345 1.304 . S
C829 C447 1.304 . S
C831 C441 1.304 . S
C847 C475 1.303 . S
C849 C481 1.304 . S
C865 C509 1.303 . S
C867 C413 1.304 . S
C883 C583 1.304 . S
C885 C543 1.304 . S
C901 C515 1.304 . S
C903 C577 1.303 . S
C919 C611 1.303 . S
C921 C549 1.304 . S
C937 C349 1.633 . S
C939 C9 1.633 . S
C955 C383 1.633 . S
C957 C43 1.630 . S
C973 C315 1.633 . S
C975 C77 1.633 . S
C991 C111 1.633 . S
C993 C485 1.633 . S
C1009 C417 1.633 . S
C1011 C145 1.633 . S
C1027 C451 1.633 . S
C1029 C179 1.630 . S
C1045 C213 1.633 . S
C1047 C553 1.633 . S
C1063 C587 1.633 . S
C1065 C247 1.633 . S
C1081 C519 1.633 . S
C1083 C281 1.633 . S
C1099 C2 1.613 1_545 S
C1101 C172 1.611 . S
C1117 C104 1.613 1_455 S
C1119 C36 1.611 . S
C1135 C138 1.612 . S
C1137 C70 1.612 . S
C1153 C376 1.612 . S
C1155 C206 1.612 . S
C1171 C308 1.612 . S
C1173 C240 1.612 . S
C1189 C274 1.612 . S
C1191 C342 1.612 . S
C1207 C580 1.612 . S
C1209 C410 1.612 . S
C1225 C444 1.612 . S
C1227 C512 1.612 . S
C1243 C546 1.612 . S
C1245 C478 1.612 . S
C1261 C20 1.224 . S
C1263 C190 1.223 . S
C1279 C54 1.224 . S
C1281 C122 1.224 . S
C1297 C156 1.224 . S
C1299 C88 1.224 . S
C1315 C394 1.224 . S
C1317 C224 1.224 . S
C1333 C326 1.224 . S
C1335 C258 1.224 . S
C1351 C360 1.224 . S
C1353 C292 1.224 . S
C1369 C428 1.224 . S
C1371 C598 1.224 . S
C1387 C462 1.224 . S
C1389 C530 1.224 . S
C1405 C564 1.224 . S
C1407 C496 1.224 . S
