# Generated by pormake.
# Topology sma, (6)-cn, num edge types: 1
# Building blocks:
#     Node 0, Type 0, BuildingBlock: BETFEN_clean_sbu_0, # of connection points: 6
#     Node 1, Type 0, BuildingBlock: BETFEN_clean_sbu_0, # of connection points: 6
#     Node 2, Type 0, BuildingBlock: BETFEN_clean_sbu_0, # of connection points: 6
#     Edge 3, Type (0, 0), BuildingBlock: EZIPEK_clean_linker_0, # of connection points: 2
#     Edge 4, Type (0, 0), BuildingBlock: EZIPEK_clean_linker_0, # of connection points: 2
#     Edge 5, Type (0, 0), BuildingBlock: EZIPEK_clean_linker_0, # of connection points: 2
#     Edge 6, Type (0, 0), BuildingBlock: EZIPEK_clean_linker_0, # of connection points: 2
#     Edge 7, Type (0, 0), BuildingBlock: EZIPEK_clean_linker_0, # of connection points: 2
#     Edge 8, Type (0, 0), BuildingBlock: EZIPEK_clean_linker_0, # of connection points: 2
#     Edge 9, Type (0, 0), BuildingBlock: EZIPEK_clean_linker_0, # of connection points: 2
#     Edge 10, Type (0, 0), BuildingBlock: EZIPEK_clean_linker_0, # of connection points: 2
#     Edge 11, Type (0, 0), BuildingBlock: EZIPEK_clean_linker_0, # of connection points: 2
# Relax obj value: 0.157
# Max RMSD: 0.277
# Mean RMSD: 0.206
data_MOF--net-sma--node1-BETFEN_clean_sbu_0--edge1-EZIPEK_clean_linker_0
_symmetry_space_group_name_H-M    P1
_symmetry_Int_Tables_number       1
_symmetry_cell_setting            triclinic
loop_
_symmetry_equiv_pos_as_xyz
'x, y, z'
_cell_length_a     23.619334
_cell_length_b     34.316778
_cell_length_c     10.155378
_cell_angle_alpha  90.286563
_cell_angle_beta   95.634688
_cell_angle_gamma 94.019905
loop_
_atom_site_label
_atom_site_type_symbol
_atom_site_fract_x
_atom_site_fract_y
_atom_site_fract_z
_atom_type_partial_charge
Pr0 Pr 0.07191 0.48812 -0.00511 0.0
Pr1 Pr 0.09129 0.58014 -0.03076 0.0
C2 C 1.06739 0.41326 0.07857 0.0
C3 C 1.02875 0.38134 0.12559 0.0
C4 C 0.97337 0.37244 0.0634 0.0
C5 C 0.93951 0.34022 0.10388 0.0
C6 C 0.96034 0.31636 0.20724 0.0
C7 C 1.0151 0.32579 0.2712 0.0
C8 C 1.0489 0.35794 0.23079 0.0
C9 C 1.05799 0.51633 0.74098 0.0
C10 C 0.95585 0.53687 -0.03621 0.0
C11 C 0.09928 0.65875 0.94428 0.0
C12 C 0.1339 0.6926 0.01122 0.0
C13 C 0.10646 0.72106 0.07648 0.0
C14 C 0.13791 0.75256 0.14389 0.0
C15 C 0.19764 0.75654 0.14716 0.0
C16 C 0.22529 0.72834 0.08118 0.0
C17 C 0.19381 0.69663 0.01424 0.0
C18 C 0.10843 0.54975 0.21914 0.0
C19 C 0.20599 0.52966 0.95386 0.0
O20 O 0.0823 0.44318 0.15812 0.0
O21 O 1.05972 0.42302 0.9539 0.0
O22 O 0.09586 0.52872 0.82922 0.0
O23 O 1.02709 0.48636 0.77928 0.0
O24 O 0.98932 0.56689 0.92618 0.0
O25 O 0.97773 0.50481 0.01244 0.0
O26 O 0.12437 0.63532 0.86977 0.0
O27 O 1.06273 0.64008 0.01423 0.0
O28 O 0.06844 0.53944 0.13365 0.0
O29 O 0.14022 0.57885 0.18012 0.0
O30 O 0.17418 0.49839 -0.01063 0.0
O31 O 0.18364 0.5636 0.92986 0.0
H32 H 0.9566 0.38997 -0.01781 0.0
H33 H 0.89744 0.33347 0.05305 0.0
H34 H 1.03207 0.30781 0.35096 0.0
H35 H 0.09139 0.36409 0.28021 0.0
H36 H 1.06046 0.7188 0.07607 0.0
H37 H 0.11559 0.7739 0.19373 0.0
H38 H 0.27129 0.7308 0.08204 0.0
H39 H 0.21646 0.67522 -0.03434 0.0
Pr40 Pr 0.64941 0.03665 0.56689 0.0
Pr41 Pr 0.52 0.02127 0.60253 0.0
C42 C 0.74535 0.06565 0.46665 0.0
C43 C 0.77312 0.10419 0.43189 0.0
C44 C 0.80481 0.12857 0.52877 0.0
C45 C 0.83317 0.16374 0.49341 0.0
C46 C 0.83055 0.17535 0.36055 0.0
C47 C 0.79827 0.15144 0.26398 0.0
C48 C 0.77004 0.11626 0.29912 0.0
C49 C 0.62553 0.03111 0.82708 0.0
C50 C 0.5696 0.11335 0.60963 0.0
C51 C 0.41531 0.98882 0.63671 0.0
C52 C 0.38277 0.955 0.56632 0.0
C53 C 0.39798 0.94239 0.44334 0.0
C54 C 0.36841 0.91006 0.37681 0.0
C55 C 0.323 0.88956 0.43184 0.0
C56 C 0.30792 0.90198 0.55521 0.0
C57 C 0.33761 0.93441 0.62195 0.0
C58 C 0.54812 0.02523 0.34447 0.0
C59 C 0.60551 0.94525 0.61727 0.0
O60 O 0.69906 0.05293 0.39286 0.0
O61 O 0.74333 0.05742 0.5921 0.0
O62 O 0.59583 0.04793 0.73756 0.0
O63 O 0.67279 0.01998 0.78756 0.0
O64 O 0.53091 0.08895 0.65912 0.0
O65 O 0.61139 0.09929 0.54949 0.0
O66 O 0.46099 0.98082 0.71261 0.0
O67 O 0.42367 0.02011 0.56592 0.0
O68 O 0.57436 1.00773 0.43689 0.0
O69 O 0.50352 0.04041 0.38122 0.0
O70 O 0.64551 0.96732 0.56353 0.0
O71 O 0.55915 0.96051 0.65271 0.0
H72 H 0.80837 0.12028 0.63183 0.0
H73 H 0.8579 0.18166 0.56952 0.0
H74 H 0.79572 0.15975 0.16091 0.0
H75 H 0.74635 0.0982 0.22179 0.0
H76 H 0.43299 0.95754 0.3988 0.0
H77 H 0.38097 0.90099 0.28222 0.0
H78 H 0.27309 0.88659 0.59963 0.0
H79 H 0.32536 0.94336 0.71695 0.0
Pr80 Pr 0.57189 0.48663 0.83808 0.0
Pr81 Pr 0.58226 0.58207 0.87142 0.0
C82 C 0.57222 0.4098 0.77223 0.0
C83 C 0.57306 0.3668 0.74143 0.0
C84 C 0.58756 0.34025 0.8428 0.0
C85 C 0.58598 0.29979 0.81708 0.0
C86 C 0.56966 0.28438 0.68923 0.0
C87 C 0.55545 0.31078 0.5873 0.0
C88 C 0.55708 0.3514 0.61303 0.0
C89 C 0.56488 0.51668 0.08496 0.0
C90 C 0.7037 0.53724 0.90062 0.0
C91 C 0.57338 0.6603 0.90646 0.0
C92 C 0.58461 0.70116 0.85857 0.0
C93 C 0.62697 0.71156 0.77411 0.0
C94 C 0.63454 0.75034 0.7286 0.0
C95 C 0.59991 0.77957 0.76635 0.0
C96 C 0.55782 0.76897 0.85091 0.0
C97 C 0.55034 0.73043 0.89621 0.0
C98 C 0.59509 0.55115 0.62881 0.0
C99 C 0.45171 0.52961 0.87171 0.0
O100 O 0.55858 0.43633 0.68402 0.0
O101 O 0.58721 0.42386 0.89163 0.0
O102 O 0.59819 0.53037 0.00591 0.0
O103 O 0.53622 0.48458 0.04224 0.0
O104 O 0.67904 0.56958 0.92899 0.0
O105 O 0.67323 0.50456 0.85732 0.0
O106 O 0.61547 0.64146 -0.03667 0.0
O107 O 0.53535 0.63733 0.83596 0.0
O108 O 0.5588 0.53834 0.7023 0.0
O109 O 0.62163 0.58367 0.67217 0.0
O110 O 0.47343 0.49807 0.82565 0.0
O111 O 0.48465 0.56199 0.90569 0.0
H112 H 0.59985 0.35069 0.94304 0.0
H113 H 0.59744 0.28037 0.8976 0.0
H114 H 0.54306 0.29993 0.48757 0.0
H115 H 0.5454 0.37071 0.53239 0.0
H116 H 0.65384 0.68971 0.74249 0.0
H117 H 0.66714 0.75748 0.66301 0.0
H118 H 0.53033 0.79061 0.88141 0.0
H119 H 0.51718 0.72339 0.96053 0.0
C120 C 0.31169 0.53901 0.0387 0.0
C121 C 0.26882 0.52686 0.93568 0.0
C122 C 0.3452 0.51853 0.78774 0.0
C123 C 0.38836 0.52809 0.89359 0.0
N124 N 0.41093 0.53935 0.12807 0.0
N125 N 0.24532 0.49973 0.71684 0.0
C126 C 0.37097 0.53627 0.02117 0.0
C127 C 0.28593 0.5149 0.81184 0.0
N128 N 0.29585 0.55378 0.15371 0.0
N129 N 0.36051 0.51493 0.66215 0.0
H130 H 0.20202 0.49762 0.73009 0.0
H131 H 0.25465 0.48648 0.62987 0.0
H132 H 0.40276 0.51814 0.64 0.0
H133 H 0.33133 0.51223 0.57832 0.0
H134 H 0.32455 0.56774 0.22627 0.0
H135 H 0.25333 0.55453 0.17275 0.0
H136 H 0.40101 0.54123 0.22545 0.0
H137 H 0.45386 0.5359 0.12069 0.0
C138 C 0.84512 0.24913 0.35027 0.0
C139 C 0.8635 0.21172 0.3215 0.0
C140 C 0.94128 0.24302 0.20605 0.0
C141 C 0.92607 0.2804 0.24498 0.0
N142 N 0.86849 0.31916 0.36994 0.0
N143 N 0.93482 0.17309 0.24202 0.0
C144 C 0.87926 0.28349 0.32143 0.0
C145 C 0.91318 0.2087 0.25474 0.0
N146 N 0.7941 0.25184 0.40149 0.0
N147 N 0.98153 0.24028 0.11904 0.0
H148 H 0.91576 0.14731 0.27672 0.0
H149 H 0.97428 0.1695 0.20779 0.0
H150 H 1.00311 0.26464 0.08125 0.0
H151 H 0.98998 0.21408 0.07524 0.0
H152 H 0.77523 0.27806 0.41165 0.0
H153 H 0.76818 0.22742 0.42425 0.0
H154 H 0.83916 0.32295 0.43823 0.0
H155 H 0.89215 0.34489 0.34987 0.0
C156 C 0.56451 0.87477 0.58526 0.0
C157 C 0.61007 0.90168 0.63809 0.0
C158 C 0.65123 0.84782 0.76926 0.0
C159 C 0.60599 0.82105 0.71554 0.0
N160 N 0.52601 0.80729 0.55265 0.0
N161 N 0.70325 0.91128 0.75944 0.0
C162 C 0.56454 0.83412 0.61773 0.0
C163 C 0.65561 0.88731 0.72271 0.0
N164 N 0.52068 0.88814 0.50383 0.0
N165 N 0.68853 0.83608 0.87035 0.0
H166 H 0.70755 0.94052 0.73319 0.0
H167 H 0.74046 0.9015 0.8077 0.0
H168 H 0.68725 0.8076 0.90584 0.0
H169 H 0.71801 0.85507 0.92592 0.0
H170 H 0.48229 0.87194 0.47749 0.0
H171 H 0.52178 0.9163 0.46586 0.0
H172 H 0.49822 0.81371 0.47097 0.0
H173 H 0.5249 0.77751 0.5734 0.0
C174 C 0.79998 0.54084 0.8047 0.0
C175 C 0.76843 0.53766 0.91722 0.0
C176 C 0.85996 0.53836 0.06081 0.0
C177 C 0.89127 0.53848 0.94765 0.0
N178 N 0.88973 0.53414 0.71049 0.0
N179 N 0.76825 0.52878 0.15198 0.0
C180 C 0.86081 0.53836 0.81925 0.0
C181 C 0.79853 0.53524 0.0452 0.0
N182 N 0.77187 0.54738 0.68353 0.0
N183 N 0.8891 0.54264 0.18375 0.0
H184 H 0.72376 0.52697 0.14463 0.0
H185 H 0.78674 0.52235 0.24591 0.0
H186 H 0.93355 0.54508 0.1989 0.0
H187 H 0.86966 0.54698 0.26977 0.0
H188 H 0.79239 0.55442 0.59976 0.0
H189 H 0.72777 0.54885 0.66868 0.0
H190 H 0.86988 0.52925 0.61517 0.0
H191 H 0.93376 0.53237 0.71659 0.0
C192 C 0.29956 0.81666 0.40223 0.0
C193 C 0.29102 0.85533 0.35912 0.0
C194 C 0.22695 0.82887 0.16871 0.0
C195 C 0.23092 0.79048 0.21913 0.0
N196 N 0.26409 0.74848 0.39578 0.0
N197 N 0.23966 0.89867 0.21286 0.0
C198 C 0.26545 0.78455 0.33918 0.0
C199 C 0.25277 0.86153 0.24541 0.0
N200 N 0.34156 0.81048 0.50084 0.0
N201 N 0.20013 0.83405 0.04516 0.0
H202 H 0.25763 0.92329 0.26627 0.0
H203 H 0.20743 0.90489 0.14016 0.0
H204 H 0.18123 0.81093 -0.01446 0.0
H205 H 0.20111 0.86075 -0.00315 0.0
H206 H 0.35424 0.78286 0.52677 0.0
H207 H 0.36725 0.83317 0.54937 0.0
H208 H 0.28332 0.74323 0.49013 0.0
H209 H 0.2396 0.72433 0.35328 0.0
C210 C 0.51696 0.21746 0.63635 0.0
C211 C 0.56915 0.24078 0.6628 0.0
C212 C 0.62101 0.18064 0.66573 0.0
C213 C 0.56918 0.15739 0.62774 0.0
N214 N 0.46961 0.15668 0.54592 0.0
N215 N 0.6716 0.24483 0.67164 0.0
C216 C 0.51759 0.17667 0.60484 0.0
C217 C 0.62131 0.22237 0.66805 0.0
N218 N 0.46647 0.23401 0.64454 0.0
N219 N 0.6699 0.1632 0.70663 0.0
H220 H 0.67371 0.2753 0.67307 0.0
H221 H 0.7105 0.23337 0.65963 0.0
H222 H 0.67262 0.13313 0.71165 0.0
H223 H 0.70677 0.17864 0.74924 0.0
H224 H 0.42736 0.2178 0.64108 0.0
H225 H 0.46416 0.26357 0.66619 0.0
H226 H 0.43246 0.17005 0.51458 0.0
H227 H 0.46874 0.12763 0.51485 0.0
C228 C 1.05286 0.55998 0.54827 0.0
C229 C 1.06657 0.52356 0.60331 0.0
C230 C 0.12038 0.50981 0.41775 0.0
C231 C 0.10081 0.5438 0.35691 0.0
N232 N 1.04173 0.59869 0.35141 0.0
N233 N 0.10842 0.46142 0.58628 0.0
C234 C 1.06523 0.56828 0.4184 0.0
C235 C 0.09859 0.49756 0.53648 0.0
N236 N 1.0297 0.5872 0.6211 0.0
N237 N 0.16096 0.49006 0.36365 0.0
H238 H 0.09607 0.45179 0.67691 0.0
H239 H 0.12582 0.43986 0.53363 0.0
H240 H 0.17809 0.49897 0.27684 0.0
H241 H 0.18122 0.46713 0.41024 0.0
H242 H 1.02581 0.616 0.5916 0.0
H243 H 1.01834 0.5819 0.71565 0.0
H244 H 1.00942 0.61401 0.38557 0.0
H245 H 1.0515 0.60705 0.2573 0.0
C246 C 0.57388 0.99207 0.14365 0.0
C247 C 0.5662 0.02733 0.21048 0.0
C248 C 0.6014 0.06547 0.02907 0.0
C249 C 0.61166 0.03009 -0.03473 0.0
N250 N 0.61866 0.96024 -0.02729 0.0
N251 N 0.57753 0.09773 0.22669 0.0
C252 C 0.60164 0.99354 0.02634 0.0
C253 C 0.58086 0.06414 0.15559 0.0
N254 N 0.55162 0.95729 0.18847 0.0
N255 N 0.61171 0.1004 -0.03131 0.0
H256 H 0.55974 0.09835 0.3163 0.0
H257 H 0.59493 0.12499 0.20084 0.0
H258 H 0.63401 0.10298 0.88544 0.0
H259 H 0.59721 0.12666 -0.00129 0.0
H260 H 0.5505 0.93096 0.13662 0.0
H261 H 0.52866 0.9553 0.27106 0.0
H262 H 0.61805 0.93343 0.02031 0.0
H263 H 0.6384 0.96 0.88582 0.0
C264 C 0.55874 0.56751 0.4055 0.0
C265 C 0.58825 0.54183 0.49072 0.0
C266 C 0.6024 0.49899 0.30861 0.0
C267 C 0.57563 0.52611 0.22316 0.0
N268 N 0.54609 0.59155 0.18462 0.0
N269 N 0.64488 0.48636 0.52833 0.0
C270 C 0.55927 0.56211 0.26948 0.0
C271 C 0.6119 0.5083 0.44411 0.0
N272 N 0.52876 0.5962 0.45413 0.0
N273 N 0.61949 0.46489 0.26004 0.0
H274 H 0.65086 0.4918 0.62932 0.0
H275 H 0.669 0.46433 0.49805 0.0
H276 H 0.62021 0.45911 0.15938 0.0
H277 H 0.6316 0.44164 0.31934 0.0
H278 H 0.50149 0.61272 0.39404 0.0
H279 H 0.52643 0.601 0.55489 0.0
H280 H 0.53916 0.61963 0.21592 0.0
H281 H 0.54889 0.58932 0.08385 0.0
loop_
_geom_bond_atom_site_label_1
_geom_bond_atom_site_label_2
_geom_bond_distance
_geom_bond_site_symmetry_2
_ccdc_geom_bond_type
Pr0 C2 2.880 1_455 S
Pr0 O20 2.562 1_455 S
Pr0 O21 2.490 1_455 S
Pr0 O22 2.695 1_554 S
Pr0 O23 2.512 1_554 S
Pr0 O25 2.437 1_455 S
Pr0 O28 2.436 . S
Pr0 O30 2.438 . S
Pr1 C11 2.880 . S
Pr1 O22 2.436 1_554 S
Pr1 O24 2.438 1_455 S
Pr1 O26 2.562 . S
Pr1 O27 2.490 . S
Pr1 O28 2.695 . S
Pr1 O29 2.512 . S
Pr1 O31 2.437 . S
C2 Pr0 2.880 1_655 S
C2 C3 1.491 . S
C2 O20 1.254 . S
C2 O21 1.225 . S
C3 C2 1.491 . S
C3 C4 1.392 . S
C3 C8 1.356 . S
C4 C3 1.392 . S
C4 C5 1.368 . S
C4 H32 0.929 1_554 S
C5 C4 1.368 . S
C5 C6 1.386 . S
C5 H33 0.929 1_554 S
C6 C5 1.386 . S
C6 C7 1.373 . S
C7 C6 1.373 . S
C7 C8 1.409 . S
C7 H34 0.931 . S
C8 C3 1.356 . S
C8 C7 1.409 . S
C8 H35 0.930 . S
C9 O22 1.270 . S
C9 O23 1.248 . S
C10 O24 1.267 . S
C10 O25 1.278 . S
C11 Pr1 2.880 . S
C11 C12 1.491 . S
C11 O26 1.254 . S
C11 O27 1.225 . S
C12 C11 1.491 . S
C12 C13 1.392 . S
C12 C17 1.356 1_554 S
C13 C12 1.392 . S
C13 C14 1.368 . S
C13 H36 0.929 . S
C14 C13 1.368 . S
C14 C15 1.386 . S
C14 H37 0.929 . S
C15 C14 1.386 . S
C15 C16 1.373 1_554 S
C16 C15 1.373 1_556 S
C16 C17 1.409 . S
C16 H38 0.931 . S
C17 C12 1.356 1_556 S
C17 C16 1.409 . S
C17 H39 0.930 . S
C18 O28 1.270 . S
C18 O29 1.248 . S
C19 O30 1.267 . S
C19 O31 1.278 . S
O20 Pr0 2.562 1_655 S
O20 C2 1.254 . S
O21 Pr0 2.490 1_655 S
O21 C2 1.225 . S
O22 Pr0 2.695 1_556 S
O22 Pr1 2.436 1_556 S
O22 C9 1.270 . S
O23 Pr0 2.512 1_556 S
O23 C9 1.248 . S
O24 Pr1 2.438 1_655 S
O24 C10 1.267 . S
O25 Pr0 2.437 1_655 S
O25 C10 1.278 . S
O26 Pr1 2.562 . S
O26 C11 1.254 . S
O27 Pr1 2.490 . S
O27 C11 1.225 . S
O28 Pr0 2.436 . S
O28 Pr1 2.695 . S
O28 C18 1.270 . S
O29 Pr1 2.512 . S
O29 C18 1.248 . S
O30 Pr0 2.438 . S
O30 C19 1.267 . S
O31 Pr1 2.437 . S
O31 C19 1.278 . S
H32 C4 0.929 1_556 S
H33 C5 0.929 1_556 S
H34 C7 0.931 . S
H35 C8 0.930 . S
H36 C13 0.929 . S
H37 C14 0.929 . S
H38 C16 0.931 . S
H39 C17 0.930 . S
Pr40 C42 2.880 . S
Pr40 O60 2.562 . S
Pr40 O61 2.490 . S
Pr40 O62 2.695 . S
Pr40 O63 2.512 . S
Pr40 O65 2.437 . S
Pr40 O68 2.436 . S
Pr40 O70 2.438 1_545 S
Pr41 C51 2.880 1_545 S
Pr41 O62 2.436 . S
Pr41 O64 2.438 . S
Pr41 O66 2.562 1_545 S
Pr41 O67 2.490 1_545 S
Pr41 O68 2.695 . S
Pr41 O69 2.512 . S
Pr41 O71 2.437 1_545 S
C42 Pr40 2.880 . S
C42 C43 1.491 . S
C42 O60 1.254 . S
C42 O61 1.225 . S
C43 C42 1.491 . S
C43 C44 1.392 . S
C43 C48 1.356 . S
C44 C43 1.392 . S
C44 C45 1.368 . S
C44 H72 0.929 . S
C45 C44 1.368 . S
C45 C46 1.386 . S
C45 H73 0.929 . S
C46 C45 1.386 . S
C46 C47 1.373 . S
C47 C46 1.373 . S
C47 C48 1.409 . S
C47 H74 0.931 . S
C48 C43 1.356 . S
C48 C47 1.409 . S
C48 H75 0.930 . S
C49 O62 1.270 . S
C49 O63 1.248 . S
C50 O64 1.267 . S
C50 O65 1.278 . S
C51 Pr41 2.880 1_565 S
C51 C52 1.491 . S
C51 O66 1.254 . S
C51 O67 1.225 . S
C52 C51 1.491 . S
C52 C53 1.392 . S
C52 C57 1.356 . S
C53 C52 1.392 . S
C53 C54 1.368 . S
C53 H76 0.929 . S
C54 C53 1.368 . S
C54 C55 1.386 . S
C54 H77 0.929 . S
C55 C54 1.386 . S
C55 C56 1.373 . S
C56 C55 1.373 . S
C56 C57 1.409 . S
C56 H78 0.931 . S
C57 C52 1.356 . S
C57 C56 1.409 . S
C57 H79 0.930 . S
C58 O68 1.270 . S
C58 O69 1.248 . S
C59 O70 1.267 . S
C59 O71 1.278 . S
O60 Pr40 2.562 . S
O60 C42 1.254 . S
O61 Pr40 2.490 . S
O61 C42 1.225 . S
O62 Pr40 2.695 . S
O62 Pr41 2.436 . S
O62 C49 1.270 . S
O63 Pr40 2.512 . S
O63 C49 1.248 . S
O64 Pr41 2.438 . S
O64 C50 1.267 . S
O65 Pr40 2.437 . S
O65 C50 1.278 . S
O66 Pr41 2.562 1_565 S
O66 C51 1.254 . S
O67 Pr41 2.490 1_565 S
O67 C51 1.225 . S
O68 Pr40 2.436 . S
O68 Pr41 2.695 . S
O68 C58 1.270 . S
O69 Pr41 2.512 . S
O69 C58 1.248 . S
O70 Pr40 2.438 1_565 S
O70 C59 1.267 . S
O71 Pr41 2.437 1_565 S
O71 C59 1.278 . S
H72 C44 0.929 . S
H73 C45 0.929 . S
H74 C47 0.931 . S
H75 C48 0.930 . S
H76 C53 0.929 . S
H77 C54 0.929 . S
H78 C56 0.931 . S
H79 C57 0.930 . S
Pr80 C82 2.880 . S
Pr80 O100 2.562 . S
Pr80 O101 2.490 . S
Pr80 O102 2.695 1_556 S
Pr80 O103 2.512 1_556 S
Pr80 O105 2.437 . S
Pr80 O108 2.436 . S
Pr80 O110 2.438 . S
Pr81 C91 2.880 . S
Pr81 O102 2.436 1_556 S
Pr81 O104 2.438 . S
Pr81 O106 2.562 . S
Pr81 O107 2.490 . S
Pr81 O108 2.695 . S
Pr81 O109 2.512 . S
Pr81 O111 2.437 . S
C82 Pr80 2.880 . S
C82 C83 1.491 . S
C82 O100 1.254 . S
C82 O101 1.225 . S
C83 C82 1.491 . S
C83 C84 1.392 . S
C83 C88 1.356 . S
C84 C83 1.392 . S
C84 C85 1.368 . S
C84 H112 0.929 1_556 S
C85 C84 1.368 . S
C85 C86 1.386 . S
C85 H113 0.929 . S
C86 C85 1.386 . S
C86 C87 1.373 . S
C87 C86 1.373 . S
C87 C88 1.409 . S
C87 H114 0.931 . S
C88 C83 1.356 . S
C88 C87 1.409 . S
C88 H115 0.930 . S
C89 O102 1.270 . S
C89 O103 1.248 . S
C90 O104 1.267 . S
C90 O105 1.278 . S
C91 Pr81 2.880 . S
C91 C92 1.491 . S
C91 O106 1.254 . S
C91 O107 1.225 . S
C92 C91 1.491 . S
C92 C93 1.392 . S
C92 C97 1.356 . S
C93 C92 1.392 . S
C93 C94 1.368 . S
C93 H116 0.929 . S
C94 C93 1.368 . S
C94 C95 1.386 . S
C94 H117 0.929 . S
C95 C94 1.386 . S
C95 C96 1.373 . S
C96 C95 1.373 . S
C96 C97 1.409 . S
C96 H118 0.931 1_556 S
C97 C92 1.356 . S
C97 C96 1.409 . S
C97 H119 0.930 1_556 S
C98 O108 1.270 . S
C98 O109 1.248 . S
C99 O110 1.267 . S
C99 O111 1.278 . S
O100 Pr80 2.562 . S
O100 C82 1.254 . S
O101 Pr80 2.490 . S
O101 C82 1.225 . S
O102 Pr80 2.695 1_554 S
O102 Pr81 2.436 1_554 S
O102 C89 1.270 . S
O103 Pr80 2.512 1_554 S
O103 C89 1.248 . S
O104 Pr81 2.438 . S
O104 C90 1.267 . S
O105 Pr80 2.437 . S
O105 C90 1.278 . S
O106 Pr81 2.562 . S
O106 C91 1.254 . S
O107 Pr81 2.490 . S
O107 C91 1.225 . S
O108 Pr80 2.436 . S
O108 Pr81 2.695 . S
O108 C98 1.270 . S
O109 Pr81 2.512 . S
O109 C98 1.248 . S
O110 Pr80 2.438 . S
O110 C99 1.267 . S
O111 Pr81 2.437 . S
O111 C99 1.278 . S
H112 C84 0.929 1_554 S
H113 C85 0.929 . S
H114 C87 0.931 . S
H115 C88 0.930 . S
H116 C93 0.929 . S
H117 C94 0.929 . S
H118 C96 0.931 1_554 S
H119 C97 0.930 1_554 S
C120 C121 1.363 . S
C120 C126 1.379 1_554 S
C120 N128 1.356 . S
C121 C120 1.363 . S
C121 C127 1.363 1_554 S
C122 C123 1.363 . S
C122 C127 1.379 . S
C122 N129 1.356 . S
C123 C122 1.363 . S
C123 C126 1.363 . S
N124 C126 1.356 . S
N124 H136 0.984 . S
N124 H137 0.985 . S
N125 C127 1.356 1_554 S
N125 H130 0.984 . S
N125 H131 0.985 . S
C126 C120 1.379 1_556 S
C126 C123 1.363 . S
C126 N124 1.356 . S
C127 C121 1.363 1_556 S
C127 C122 1.379 . S
C127 N125 1.356 1_556 S
N128 C120 1.356 . S
N128 H134 0.984 . S
N128 H135 0.984 . S
N129 C122 1.356 . S
N129 H132 0.984 . S
N129 H133 0.985 . S
H130 N125 0.984 . S
H131 N125 0.985 . S
H132 N129 0.984 . S
H133 N129 0.985 . S
H134 N128 0.984 . S
H135 N128 0.984 . S
H136 N124 0.984 . S
H137 N124 0.985 . S
C138 C139 1.363 . S
C138 C144 1.379 . S
C138 N146 1.356 . S
C139 C138 1.363 . S
C139 C145 1.363 . S
C140 C141 1.363 . S
C140 C145 1.379 . S
C140 N147 1.356 . S
C141 C140 1.363 . S
C141 C144 1.363 . S
N142 C144 1.356 . S
N142 H154 0.984 . S
N142 H155 0.985 . S
N143 C145 1.356 . S
N143 H148 0.984 . S
N143 H149 0.985 . S
C144 C138 1.379 . S
C144 C141 1.363 . S
C144 N142 1.356 . S
C145 C139 1.363 . S
C145 C140 1.379 . S
C145 N143 1.356 . S
N146 C138 1.356 . S
N146 H152 0.984 . S
N146 H153 0.984 . S
N147 C140 1.356 . S
N147 H150 0.984 . S
N147 H151 0.985 . S
H148 N143 0.984 . S
H149 N143 0.985 . S
H150 N147 0.984 . S
H151 N147 0.985 . S
H152 N146 0.984 . S
H153 N146 0.984 . S
H154 N142 0.984 . S
H155 N142 0.985 . S
C156 C157 1.363 . S
C156 C162 1.379 . S
C156 N164 1.356 . S
C157 C156 1.363 . S
C157 C163 1.363 . S
C158 C159 1.363 . S
C158 C163 1.379 . S
C158 N165 1.356 . S
C159 C158 1.363 . S
C159 C162 1.363 . S
N160 C162 1.356 . S
N160 H172 0.984 . S
N160 H173 0.985 . S
N161 C163 1.356 . S
N161 H166 0.984 . S
N161 H167 0.985 . S
C162 C156 1.379 . S
C162 C159 1.363 . S
C162 N160 1.356 . S
C163 C157 1.363 . S
C163 C158 1.379 . S
C163 N161 1.356 . S
N164 C156 1.356 . S
N164 H170 0.984 . S
N164 H171 0.984 . S
N165 C158 1.356 . S
N165 H168 0.984 1_556 S
N165 H169 0.985 1_556 S
H166 N161 0.984 . S
H167 N161 0.985 . S
H168 N165 0.984 1_554 S
H169 N165 0.985 1_554 S
H170 N164 0.984 . S
H171 N164 0.984 . S
H172 N160 0.984 . S
H173 N160 0.985 . S
C174 C175 1.363 . S
C174 C180 1.379 . S
C174 N182 1.356 . S
C175 C174 1.363 . S
C175 C181 1.363 1_556 S
C176 C177 1.363 . S
C176 C181 1.379 . S
C176 N183 1.356 . S
C177 C176 1.363 . S
C177 C180 1.363 1_554 S
N178 C180 1.356 . S
N178 H190 0.984 . S
N178 H191 0.985 . S
N179 C181 1.356 . S
N179 H184 0.984 . S
N179 H185 0.985 . S
C180 C174 1.379 . S
C180 C177 1.363 1_556 S
C180 N178 1.356 . S
C181 C175 1.363 1_554 S
C181 C176 1.379 . S
C181 N179 1.356 . S
N182 C174 1.356 . S
N182 H188 0.984 . S
N182 H189 0.984 . S
N183 C176 1.356 . S
N183 H186 0.984 . S
N183 H187 0.985 . S
H184 N179 0.984 . S
H185 N179 0.985 . S
H186 N183 0.984 . S
H187 N183 0.985 . S
H188 N182 0.984 . S
H189 N182 0.984 . S
H190 N178 0.984 . S
H191 N178 0.985 . S
C192 C193 1.363 . S
C192 C198 1.379 . S
C192 N200 1.356 . S
C193 C192 1.363 . S
C193 C199 1.363 . S
C194 C195 1.363 . S
C194 C199 1.379 . S
C194 N201 1.356 . S
C195 C194 1.363 . S
C195 C198 1.363 . S
N196 C198 1.356 . S
N196 H208 0.984 . S
N196 H209 0.985 . S
N197 C199 1.356 . S
N197 H202 0.984 . S
N197 H203 0.985 . S
C198 C192 1.379 . S
C198 C195 1.363 . S
C198 N196 1.356 . S
C199 C193 1.363 . S
C199 C194 1.379 . S
C199 N197 1.356 . S
N200 C192 1.356 . S
N200 H206 0.984 . S
N200 H207 0.984 . S
N201 C194 1.356 . S
N201 H204 0.984 1_554 S
N201 H205 0.985 . S
H202 N197 0.984 . S
H203 N197 0.985 . S
H204 N201 0.984 1_556 S
H205 N201 0.985 . S
H206 N200 0.984 . S
H207 N200 0.984 . S
H208 N196 0.984 . S
H209 N196 0.985 . S
C210 C211 1.363 . S
C210 C216 1.379 . S
C210 N218 1.356 . S
C211 C210 1.363 . S
C211 C217 1.363 . S
C212 C213 1.363 . S
C212 C217 1.379 . S
C212 N219 1.356 . S
C213 C212 1.363 . S
C213 C216 1.363 . S
N214 C216 1.356 . S
N214 H226 0.984 . S
N214 H227 0.985 . S
N215 C217 1.356 . S
N215 H220 0.984 . S
N215 H221 0.985 . S
C216 C210 1.379 . S
C216 C213 1.363 . S
C216 N214 1.356 . S
C217 C211 1.363 . S
C217 C212 1.379 . S
C217 N215 1.356 . S
N218 C210 1.356 . S
N218 H224 0.984 . S
N218 H225 0.984 . S
N219 C212 1.356 . S
N219 H222 0.984 . S
N219 H223 0.985 . S
H220 N215 0.984 . S
H221 N215 0.985 . S
H222 N219 0.984 . S
H223 N219 0.985 . S
H224 N218 0.984 . S
H225 N218 0.984 . S
H226 N214 0.984 . S
H227 N214 0.985 . S
C228 C229 1.363 . S
C228 C234 1.377 . S
C228 N236 1.356 1_455 S
C229 C228 1.363 . S
C229 C235 1.363 . S
C230 C231 1.363 . S
C230 C235 1.379 . S
C230 N237 1.356 . S
C231 C230 1.363 . S
C231 C234 1.370 . S
N232 C234 1.353 1_655 S
N232 H244 0.984 . S
N232 H245 0.985 . S
N233 C235 1.356 . S
N233 H238 0.984 . S
N233 H239 0.985 . S
C234 C228 1.377 . S
C234 C231 1.370 . S
C234 N232 1.353 1_455 S
C235 C229 1.363 . S
C235 C230 1.379 . S
C235 N233 1.356 . S
N236 C228 1.356 1_655 S
N236 H242 0.984 . S
N236 H243 0.984 . S
N237 C230 1.356 . S
N237 H240 0.984 . S
N237 H241 0.985 . S
H238 N233 0.984 . S
H239 N233 0.985 . S
H240 N237 0.984 . S
H241 N237 0.985 . S
H242 N236 0.984 . S
H243 N236 0.984 . S
H244 N232 0.984 . S
H245 N232 0.985 . S
C246 C247 1.363 1_565 S
C246 C252 1.379 1_554 S
C246 N254 1.356 . S
C247 C246 1.363 1_545 S
C247 C253 1.363 . S
C248 C249 1.363 . S
C248 C253 1.379 1_556 S
C248 N255 1.356 . S
C249 C248 1.363 . S
C249 C252 1.363 1_545 S
N250 C252 1.356 . S
N250 H262 0.984 . S
N250 H263 0.985 . S
N251 C253 1.356 . S
N251 H256 0.984 . S
N251 H257 0.985 . S
C252 C246 1.379 1_556 S
C252 C249 1.363 1_565 S
C252 N250 1.356 . S
C253 C247 1.363 . S
C253 C248 1.379 1_554 S
C253 N251 1.356 . S
N254 C246 1.356 . S
N254 H260 0.984 . S
N254 H261 0.984 . S
N255 C248 1.356 . S
N255 H258 0.984 . S
N255 H259 0.985 . S
H256 N251 0.984 . S
H257 N251 0.985 . S
H258 N255 0.984 . S
H259 N255 0.985 . S
H260 N254 0.984 . S
H261 N254 0.984 . S
H262 N250 0.984 . S
H263 N250 0.985 . S
C264 C265 1.363 . S
C264 C270 1.379 . S
C264 N272 1.356 . S
C265 C264 1.363 . S
C265 C271 1.363 . S
C266 C267 1.363 . S
C266 C271 1.379 . S
C266 N273 1.356 . S
C267 C266 1.363 . S
C267 C270 1.363 . S
N268 C270 1.356 . S
N268 H280 0.984 . S
N268 H281 0.985 . S
N269 C271 1.356 . S
N269 H274 0.984 . S
N269 H275 0.985 . S
C270 C264 1.379 . S
C270 C267 1.363 . S
C270 N268 1.356 . S
C271 C265 1.363 . S
C271 C266 1.379 . S
C271 N269 1.356 . S
N272 C264 1.356 . S
N272 H278 0.984 . S
N272 H279 0.984 . S
N273 C266 1.356 . S
N273 H276 0.984 . S
N273 H277 0.985 . S
H274 N269 0.984 . S
H275 N269 0.985 . S
H276 N273 0.984 . S
H277 N273 0.985 . S
H278 N272 0.984 . S
H279 N272 0.984 . S
H280 N268 0.984 . S
H281 N268 0.985 . S
C121 C19 2.956 . S
C123 C99 2.876 . S
C139 C46 1.660 . S
C141 C6 1.669 . S
C157 C59 2.775 . S
C159 C95 2.584 . S
C175 C90 2.613 . S
C177 C10 2.684 . S
C193 C55 1.707 . S
C195 C15 1.705 . S
C211 C86 2.325 . S
C213 C50 2.359 . S
C229 C9 0.766 . S
C231 C18 0.766 . S
C247 C58 0.768 . S
C249 C49 0.768 . S
C265 C98 0.772 . S
C267 C89 0.772 . S
