# Generated by pormake.
# Topology umq, (4)-cn, num edge types: 1
# Building blocks:
#     Node 0, Type 0, BuildingBlock: QUQFOY_clean_sbu_1, # of connection points: 4
#     Node 1, Type 0, BuildingBlock: QUQFOY_clean_sbu_1, # of connection points: 4
#     Node 2, Type 0, BuildingBlock: QUQFOY_clean_sbu_1, # of connection points: 4
#     Node 3, Type 0, BuildingBlock: QUQFOY_clean_sbu_1, # of connection points: 4
#     Node 4, Type 0, BuildingBlock: QUQFOY_clean_sbu_1, # of connection points: 4
#     Node 5, Type 0, BuildingBlock: QUQFOY_clean_sbu_1, # of connection points: 4
#     Node 6, Type 0, BuildingBlock: QUQFOY_clean_sbu_1, # of connection points: 4
#     Node 7, Type 0, BuildingBlock: QUQFOY_clean_sbu_1, # of connection points: 4
#     Node 8, Type 0, BuildingBlock: QUQFOY_clean_sbu_1, # of connection points: 4
#     Node 9, Type 0, BuildingBlock: QUQFOY_clean_sbu_1, # of connection points: 4
#     Node 10, Type 0, BuildingBlock: QUQFOY_clean_sbu_1, # of connection points: 4
#     Node 11, Type 0, BuildingBlock: QUQFOY_clean_sbu_1, # of connection points: 4
#     Node 12, Type 0, BuildingBlock: QUQFOY_clean_sbu_1, # of connection points: 4
#     Node 13, Type 0, BuildingBlock: QUQFOY_clean_sbu_1, # of connection points: 4
#     Node 14, Type 0, BuildingBlock: QUQFOY_clean_sbu_1, # of connection points: 4
#     Node 15, Type 0, BuildingBlock: QUQFOY_clean_sbu_1, # of connection points: 4
#     Node 16, Type 0, BuildingBlock: QUQFOY_clean_sbu_1, # of connection points: 4
#     Node 17, Type 0, BuildingBlock: QUQFOY_clean_sbu_1, # of connection points: 4
#     Node 18, Type 0, BuildingBlock: QUQFOY_clean_sbu_1, # of connection points: 4
#     Node 19, Type 0, BuildingBlock: QUQFOY_clean_sbu_1, # of connection points: 4
#     Node 20, Type 0, BuildingBlock: QUQFOY_clean_sbu_1, # of connection points: 4
#     Node 21, Type 0, BuildingBlock: QUQFOY_clean_sbu_1, # of connection points: 4
#     Node 22, Type 0, BuildingBlock: QUQFOY_clean_sbu_1, # of connection points: 4
#     Node 23, Type 0, BuildingBlock: QUQFOY_clean_sbu_1, # of connection points: 4
#     Node 24, Type 0, BuildingBlock: QUQFOY_clean_sbu_1, # of connection points: 4
#     Node 25, Type 0, BuildingBlock: QUQFOY_clean_sbu_1, # of connection points: 4
#     Node 26, Type 0, BuildingBlock: QUQFOY_clean_sbu_1, # of connection points: 4
#     Node 27, Type 0, BuildingBlock: QUQFOY_clean_sbu_1, # of connection points: 4
#     Node 28, Type 0, BuildingBlock: QUQFOY_clean_sbu_1, # of connection points: 4
#     Node 29, Type 0, BuildingBlock: QUQFOY_clean_sbu_1, # of connection points: 4
#     Node 30, Type 0, BuildingBlock: QUQFOY_clean_sbu_1, # of connection points: 4
#     Node 31, Type 0, BuildingBlock: QUQFOY_clean_sbu_1, # of connection points: 4
#     Edge 32, Type (0, 0), BuildingBlock: XIVTED_clean_linker_0, # of connection points: 2
#     Edge 33, Type (0, 0), BuildingBlock: XIVTED_clean_linker_0, # of connection points: 2
#     Edge 34, Type (0, 0), BuildingBlock: XIVTED_clean_linker_0, # of connection points: 2
#     Edge 35, Type (0, 0), BuildingBlock: XIVTED_clean_linker_0, # of connection points: 2
#     Edge 36, Type (0, 0), BuildingBlock: XIVTED_clean_linker_0, # of connection points: 2
#     Edge 37, Type (0, 0), BuildingBlock: XIVTED_clean_linker_0, # of connection points: 2
#     Edge 38, Type (0, 0), BuildingBlock: XIVTED_clean_linker_0, # of connection points: 2
#     Edge 39, Type (0, 0), BuildingBlock: XIVTED_clean_linker_0, # of connection points: 2
#     Edge 40, Type (0, 0), BuildingBlock: XIVTED_clean_linker_0, # of connection points: 2
#     Edge 41, Type (0, 0), BuildingBlock: XIVTED_clean_linker_0, # of connection points: 2
#     Edge 42, Type (0, 0), BuildingBlock: XIVTED_clean_linker_0, # of connection points: 2
#     Edge 43, Type (0, 0), BuildingBlock: XIVTED_clean_linker_0, # of connection points: 2
#     Edge 44, Type (0, 0), BuildingBlock: XIVTED_clean_linker_0, # of connection points: 2
#     Edge 45, Type (0, 0), BuildingBlock: XIVTED_clean_linker_0, # of connection points: 2
#     Edge 46, Type (0, 0), BuildingBlock: XIVTED_clean_linker_0, # of connection points: 2
#     Edge 47, Type (0, 0), BuildingBlock: XIVTED_clean_linker_0, # of connection points: 2
#     Edge 48, Type (0, 0), BuildingBlock: XIVTED_clean_linker_0, # of connection points: 2
#     Edge 49, Type (0, 0), BuildingBlock: XIVTED_clean_linker_0, # of connection points: 2
#     Edge 50, Type (0, 0), BuildingBlock: XIVTED_clean_linker_0, # of connection points: 2
#     Edge 51, Type (0, 0), BuildingBlock: XIVTED_clean_linker_0, # of connection points: 2
#     Edge 52, Type (0, 0), BuildingBlock: XIVTED_clean_linker_0, # of connection points: 2
#     Edge 53, Type (0, 0), BuildingBlock: XIVTED_clean_linker_0, # of connection points: 2
#     Edge 54, Type (0, 0), BuildingBlock: XIVTED_clean_linker_0, # of connection points: 2
#     Edge 55, Type (0, 0), BuildingBlock: XIVTED_clean_linker_0, # of connection points: 2
#     Edge 56, Type (0, 0), BuildingBlock: XIVTED_clean_linker_0, # of connection points: 2
#     Edge 57, Type (0, 0), BuildingBlock: XIVTED_clean_linker_0, # of connection points: 2
#     Edge 58, Type (0, 0), BuildingBlock: XIVTED_clean_linker_0, # of connection points: 2
#     Edge 59, Type (0, 0), BuildingBlock: XIVTED_clean_linker_0, # of connection points: 2
#     Edge 60, Type (0, 0), BuildingBlock: XIVTED_clean_linker_0, # of connection points: 2
#     Edge 61, Type (0, 0), BuildingBlock: XIVTED_clean_linker_0, # of connection points: 2
#     Edge 62, Type (0, 0), BuildingBlock: XIVTED_clean_linker_0, # of connection points: 2
#     Edge 63, Type (0, 0), BuildingBlock: XIVTED_clean_linker_0, # of connection points: 2
#     Edge 64, Type (0, 0), BuildingBlock: XIVTED_clean_linker_0, # of connection points: 2
#     Edge 65, Type (0, 0), BuildingBlock: XIVTED_clean_linker_0, # of connection points: 2
#     Edge 66, Type (0, 0), BuildingBlock: XIVTED_clean_linker_0, # of connection points: 2
#     Edge 67, Type (0, 0), BuildingBlock: XIVTED_clean_linker_0, # of connection points: 2
#     Edge 68, Type (0, 0), BuildingBlock: XIVTED_clean_linker_0, # of connection points: 2
#     Edge 69, Type (0, 0), BuildingBlock: XIVTED_clean_linker_0, # of connection points: 2
#     Edge 70, Type (0, 0), BuildingBlock: XIVTED_clean_linker_0, # of connection points: 2
#     Edge 71, Type (0, 0), BuildingBlock: XIVTED_clean_linker_0, # of connection points: 2
#     Edge 72, Type (0, 0), BuildingBlock: XIVTED_clean_linker_0, # of connection points: 2
#     Edge 73, Type (0, 0), BuildingBlock: XIVTED_clean_linker_0, # of connection points: 2
#     Edge 74, Type (0, 0), BuildingBlock: XIVTED_clean_linker_0, # of connection points: 2
#     Edge 75, Type (0, 0), BuildingBlock: XIVTED_clean_linker_0, # of connection points: 2
#     Edge 76, Type (0, 0), BuildingBlock: XIVTED_clean_linker_0, # of connection points: 2
#     Edge 77, Type (0, 0), BuildingBlock: XIVTED_clean_linker_0, # of connection points: 2
#     Edge 78, Type (0, 0), BuildingBlock: XIVTED_clean_linker_0, # of connection points: 2
#     Edge 79, Type (0, 0), BuildingBlock: XIVTED_clean_linker_0, # of connection points: 2
#     Edge 80, Type (0, 0), BuildingBlock: XIVTED_clean_linker_0, # of connection points: 2
#     Edge 81, Type (0, 0), BuildingBlock: XIVTED_clean_linker_0, # of connection points: 2
#     Edge 82, Type (0, 0), BuildingBlock: XIVTED_clean_linker_0, # of connection points: 2
#     Edge 83, Type (0, 0), BuildingBlock: XIVTED_clean_linker_0, # of connection points: 2
#     Edge 84, Type (0, 0), BuildingBlock: XIVTED_clean_linker_0, # of connection points: 2
#     Edge 85, Type (0, 0), BuildingBlock: XIVTED_clean_linker_0, # of connection points: 2
#     Edge 86, Type (0, 0), BuildingBlock: XIVTED_clean_linker_0, # of connection points: 2
#     Edge 87, Type (0, 0), BuildingBlock: XIVTED_clean_linker_0, # of connection points: 2
#     Edge 88, Type (0, 0), BuildingBlock: XIVTED_clean_linker_0, # of connection points: 2
#     Edge 89, Type (0, 0), BuildingBlock: XIVTED_clean_linker_0, # of connection points: 2
#     Edge 90, Type (0, 0), BuildingBlock: XIVTED_clean_linker_0, # of connection points: 2
#     Edge 91, Type (0, 0), BuildingBlock: XIVTED_clean_linker_0, # of connection points: 2
#     Edge 92, Type (0, 0), BuildingBlock: XIVTED_clean_linker_0, # of connection points: 2
#     Edge 93, Type (0, 0), BuildingBlock: XIVTED_clean_linker_0, # of connection points: 2
#     Edge 94, Type (0, 0), BuildingBlock: XIVTED_clean_linker_0, # of connection points: 2
#     Edge 95, Type (0, 0), BuildingBlock: XIVTED_clean_linker_0, # of connection points: 2
# Relax obj value: 0.035
# Max RMSD: 0.092
# Mean RMSD: 0.092
data_MOF--net-umq--node1-QUQFOY_clean_sbu_1--edge1-XIVTED_clean_linker_0
_symmetry_space_group_name_H-M    P1
_symmetry_Int_Tables_number       1
_symmetry_cell_setting            triclinic
loop_
_symmetry_equiv_pos_as_xyz
'x, y, z'
_cell_length_a     66.4541
_cell_length_b     66.45608
_cell_length_c     51.247039
_cell_angle_alpha  90.003641
_cell_angle_beta   89.982478
_cell_angle_gamma 89.997268
loop_
_atom_site_label
_atom_site_type_symbol
_atom_site_fract_x
_atom_site_fract_y
_atom_site_fract_z
_atom_type_partial_charge
O0 O 0.21466 0.10781 0.20317 0.0
Cd1 Cd 0.23937 0.09423 0.18669 0.0
Cd2 Cd 0.22089 0.11195 0.14105 0.0
O3 O 0.1987 0.11854 0.16807 0.0
O4 O 0.25031 0.07945 0.21731 0.0
O5 O 0.23946 0.06413 0.18175 0.0
C6 C 0.24666 0.06294 0.20511 0.0
C7 C 0.21096 0.10443 0.09821 0.0
C8 C 0.19961 0.11633 0.19268 0.0
C9 C 0.26285 0.12553 0.15738 0.0
O10 O 0.24748 0.12798 0.14295 0.0
O11 O 0.26296 0.11219 0.17513 0.0
O12 O 0.20884 0.12212 0.10803 0.0
O13 O 0.21827 0.09052 0.11303 0.0
O14 O 0.88735 0.21463 0.20384 0.0
Cd15 Cd 0.9004 0.23962 0.18735 0.0
Cd16 Cd 0.88229 0.22124 0.14205 0.0
O17 O 0.87599 0.19888 0.16891 0.0
O18 O 0.91533 0.25059 0.21783 0.0
O19 O 0.93046 0.24011 0.18192 0.0
C20 C 0.93178 0.2472 0.20534 0.0
C21 C 0.89021 0.21169 0.09919 0.0
C22 C 0.87868 0.19962 0.19345 0.0
C23 C 0.86853 0.26298 0.15884 0.0
O24 O 0.86605 0.24768 0.1443 0.0
O25 O 0.88205 0.2631 0.17636 0.0
O26 O 0.87245 0.20937 0.10875 0.0
O27 O 0.90394 0.21899 0.1143 0.0
O28 O 0.78031 0.88852 0.20341 0.0
Cd29 Cd 0.75508 0.9013 0.1872 0.0
Cd30 Cd 0.77365 0.88366 0.14152 0.0
O31 O 0.7962 0.87775 0.16827 0.0
O32 O 0.74379 0.91542 0.21813 0.0
O33 O 0.75386 0.93143 0.1827 0.0
C34 C 0.74674 0.93216 0.20614 0.0
C35 C 0.78309 0.89171 0.09866 0.0
C36 C 0.79547 0.88022 0.19284 0.0
C37 C 0.73221 0.86915 0.15841 0.0
O38 O 0.74753 0.86689 0.14383 0.0
O39 O 0.73194 0.88267 0.17594 0.0
O40 O 0.78576 0.87402 0.10825 0.0
O41 O 0.77543 0.90531 0.11369 0.0
O42 O 0.10807 0.77964 0.20387 0.0
Cd43 Cd 0.09489 0.75473 0.18735 0.0
Cd44 Cd 0.11234 0.77361 0.14174 0.0
O45 O 0.1185 0.79587 0.16881 0.0
O46 O 0.08018 0.74353 0.2179 0.0
O47 O 0.06479 0.75431 0.18235 0.0
C48 C 0.06364 0.74706 0.20569 0.0
C49 C 0.10479 0.78347 0.09887 0.0
C50 C 0.11631 0.79487 0.19342 0.0
C51 C 0.12663 0.73184 0.15801 0.0
O52 O 0.12881 0.74728 0.14364 0.0
O53 O 0.11326 0.73145 0.17574 0.0
O54 O 0.12242 0.78585 0.10877 0.0
O55 O 0.09096 0.77593 0.11362 0.0
O56 O 0.21392 0.88713 0.30233 0.0
Cd57 Cd 0.23864 0.90061 0.31894 0.0
Cd58 Cd 0.22037 0.88278 0.36412 0.0
O59 O 0.19803 0.87618 0.33737 0.0
O60 O 0.24966 0.91539 0.28838 0.0
O61 O 0.23883 0.93071 0.32396 0.0
C62 C 0.24607 0.93191 0.30062 0.0
C63 C 0.21085 0.89145 0.40671 0.0
C64 C 0.19888 0.87853 0.31278 0.0
C65 C 0.26216 0.86907 0.34786 0.0
O66 O 0.24678 0.86645 0.36222 0.0
O67 O 0.26225 0.88261 0.33036 0.0
O68 O 0.20841 0.87356 0.39765 0.0
O69 O 0.21827 0.90489 0.39125 0.0
O70 O 0.10838 0.21559 0.30083 0.0
Cd71 Cd 0.09496 0.24043 0.31721 0.0
Cd72 Cd 0.11268 0.22228 0.36271 0.0
O73 O 0.11926 0.19986 0.33602 0.0
O74 O 0.07994 0.25124 0.28672 0.0
O75 O 0.0649 0.24057 0.3226 0.0
C76 C 0.06352 0.24767 0.2992 0.0
C77 C 0.10448 0.21277 0.40549 0.0
C78 C 0.11693 0.20059 0.31142 0.0
C79 C 0.12643 0.26404 0.34603 0.0
O80 O 0.12888 0.24876 0.36061 0.0
O81 O 0.11302 0.26407 0.32836 0.0
O82 O 0.1223 0.21047 0.39615 0.0
O83 O 0.09084 0.22004 0.39022 0.0
O84 O 0.77974 0.10751 0.30109 0.0
Cd85 Cd 0.75492 0.09464 0.31825 0.0
Cd86 Cd 0.77438 0.11187 0.36309 0.0
O87 O 0.79643 0.11797 0.33574 0.0
O88 O 0.74304 0.08035 0.28785 0.0
O89 O 0.75407 0.06453 0.32295 0.0
C90 C 0.74645 0.06367 0.29979 0.0
C91 C 0.78436 0.10307 0.40545 0.0
C92 C 0.79515 0.1157 0.31118 0.0
C93 C 0.7327 0.12665 0.34803 0.0
O94 O 0.74835 0.12883 0.36199 0.0
O95 O 0.73198 0.1132 0.33044 0.0
O96 O 0.78709 0.12088 0.39624 0.0
O97 O 0.7764 0.08977 0.39025 0.0
O98 O 0.88737 0.78221 0.30074 0.0
Cd99 Cd 0.90026 0.75693 0.31671 0.0
Cd100 Cd 0.8826 0.77545 0.36276 0.0
O101 O 0.87657 0.79797 0.33599 0.0
O102 O 0.91461 0.74588 0.28578 0.0
O103 O 0.93038 0.75588 0.32142 0.0
C104 C 0.93128 0.74889 0.29793 0.0
C105 C 0.89003 0.78491 0.40582 0.0
C106 C 0.87901 0.7973 0.3114 0.0
C107 C 0.8683 0.7339 0.34561 0.0
O108 O 0.86614 0.74915 0.36032 0.0
O109 O 0.88166 0.7337 0.32787 0.0
O110 O 0.87242 0.78737 0.39589 0.0
O111 O 0.9039 0.77752 0.39101 0.0
O112 O 0.77941 0.88823 0.80066 0.0
Cd113 Cd 0.75439 0.90147 0.8168 0.0
Cd114 Cd 0.77312 0.8845 0.86273 0.0
O115 O 0.79552 0.87807 0.83594 0.0
O116 O 0.74322 0.91561 0.78582 0.0
O117 O 0.75367 0.93162 0.82109 0.0
C118 C 0.74651 0.93236 0.79768 0.0
C119 C 0.78267 0.89273 0.90549 0.0
C120 C 0.79461 0.88008 0.81129 0.0
C121 C 0.73146 0.86998 0.8465 0.0
O122 O 0.74685 0.86792 0.86098 0.0
O123 O 0.73112 0.88318 0.82858 0.0
O124 O 0.78518 0.87497 0.89606 0.0
O125 O 0.77519 0.90632 0.89031 0.0
O126 O 0.10855 0.78062 0.80103 0.0
Cd127 Cd 0.09528 0.75566 0.8173 0.0
Cd128 Cd 0.11345 0.77374 0.86276 0.0
O129 O 0.12003 0.79614 0.83606 0.0
O130 O 0.08054 0.74483 0.78658 0.0
O131 O 0.06517 0.75527 0.82231 0.0
C132 C 0.06401 0.74824 0.79886 0.0
C133 C 0.10535 0.78316 0.9056 0.0
C134 C 0.11736 0.79551 0.81152 0.0
C135 C 0.12694 0.73197 0.84581 0.0
O136 O 0.12951 0.7472 0.86044 0.0
O137 O 0.11344 0.73203 0.82825 0.0
O138 O 0.12317 0.78542 0.89623 0.0
O139 O 0.09166 0.77599 0.89033 0.0
O140 O 0.21402 0.10818 0.80041 0.0
Cd141 Cd 0.23919 0.0952 0.81653 0.0
Cd142 Cd 0.22083 0.11326 0.86218 0.0
O143 O 0.19845 0.11969 0.8354 0.0
O144 O 0.25026 0.08098 0.78553 0.0
O145 O 0.2402 0.06506 0.82103 0.0
C146 C 0.24724 0.06427 0.79756 0.0
C147 C 0.21135 0.10507 0.90498 0.0
C148 C 0.19908 0.11693 0.81087 0.0
C149 C 0.26253 0.12703 0.84535 0.0
O150 O 0.24728 0.12947 0.86 0.0
O151 O 0.26256 0.11361 0.82771 0.0
O152 O 0.209 0.12289 0.89562 0.0
O153 O 0.21864 0.09144 0.88971 0.0
O154 O 0.88778 0.21445 0.80118 0.0
Cd155 Cd 0.90076 0.2394 0.81787 0.0
Cd156 Cd 0.88247 0.2206 0.86305 0.0
O157 O 0.87636 0.19842 0.83587 0.0
O158 O 0.91531 0.25068 0.78725 0.0
O159 O 0.93087 0.24016 0.82281 0.0
C160 C 0.9319 0.24739 0.79945 0.0
C161 C 0.89006 0.21081 0.90591 0.0
C162 C 0.8791 0.19935 0.81135 0.0
C163 C 0.86872 0.26243 0.84665 0.0
O164 O 0.86617 0.24701 0.86094 0.0
O165 O 0.88233 0.26271 0.82924 0.0
O166 O 0.8724 0.20844 0.89607 0.0
O167 O 0.90389 0.21828 0.89109 0.0
O168 O 0.7804 0.10782 0.70222 0.0
Cd169 Cd 0.75575 0.09473 0.68492 0.0
Cd170 Cd 0.77483 0.11292 0.64038 0.0
O171 O 0.79682 0.11909 0.66777 0.0
O172 O 0.74398 0.08041 0.71539 0.0
O173 O 0.75512 0.06458 0.68036 0.0
C174 C 0.74749 0.06373 0.70351 0.0
C175 C 0.7849 0.10421 0.59805 0.0
C176 C 0.79563 0.11644 0.69229 0.0
C177 C 0.73293 0.12672 0.65566 0.0
O178 O 0.74854 0.12948 0.64177 0.0
O179 O 0.73252 0.11299 0.6729 0.0
O180 O 0.78747 0.12206 0.60724 0.0
O181 O 0.77702 0.09085 0.61323 0.0
O182 O 0.88689 0.78131 0.7042 0.0
Cd183 Cd 0.90031 0.75628 0.68831 0.0
Cd184 Cd 0.88239 0.77419 0.64227 0.0
O185 O 0.87578 0.79668 0.66885 0.0
O186 O 0.91488 0.7456 0.71926 0.0
O187 O 0.93043 0.75583 0.68355 0.0
C188 C 0.93147 0.74889 0.70705 0.0
C189 C 0.8901 0.78361 0.59928 0.0
C190 C 0.87822 0.79617 0.69344 0.0
C191 C 0.86893 0.73242 0.65953 0.0
O192 O 0.86645 0.74757 0.64473 0.0
O193 O 0.88226 0.73259 0.67729 0.0
O194 O 0.87234 0.78574 0.60888 0.0
O195 O 0.90396 0.77658 0.61441 0.0
O196 O 0.21658 0.8878 0.70408 0.0
Cd197 Cd 0.24114 0.901 0.68673 0.0
Cd198 Cd 0.22169 0.8836 0.64193 0.0
O199 O 0.1998 0.87739 0.66948 0.0
O200 O 0.25286 0.9157 0.71691 0.0
O201 O 0.2414 0.9311 0.68173 0.0
C202 C 0.24906 0.93224 0.70484 0.0
C203 C 0.21134 0.89184 0.59952 0.0
C204 C 0.20118 0.87956 0.69405 0.0
C205 C 0.26361 0.86925 0.65687 0.0
O206 O 0.24793 0.86695 0.643 0.0
O207 O 0.26428 0.88272 0.67446 0.0
O208 O 0.20888 0.87411 0.60907 0.0
O209 O 0.21926 0.90539 0.61438 0.0
O210 O 0.10721 0.21616 0.70327 0.0
Cd211 Cd 0.09426 0.24094 0.68614 0.0
Cd212 Cd 0.11232 0.22194 0.64141 0.0
O213 O 0.11813 0.19971 0.66865 0.0
O214 O 0.07938 0.25237 0.71638 0.0
O215 O 0.06419 0.24142 0.68078 0.0
C216 C 0.06291 0.2488 0.70404 0.0
C217 C 0.10445 0.21216 0.59864 0.0
C218 C 0.11559 0.20086 0.69319 0.0
C219 C 0.12652 0.26365 0.6575 0.0
O220 O 0.12903 0.2481 0.64343 0.0
O221 O 0.11275 0.26417 0.6747 0.0
O222 O 0.12209 0.20954 0.60839 0.0
O223 O 0.09079 0.21991 0.61348 0.0
O224 O 0.7152 0.60703 0.70408 0.0
Cd225 Cd 0.74005 0.5939 0.68737 0.0
Cd226 Cd 0.72123 0.61185 0.6421 0.0
O227 O 0.69905 0.61806 0.66929 0.0
O228 O 0.75122 0.57917 0.71789 0.0
O229 O 0.74053 0.56381 0.68228 0.0
C230 C 0.74774 0.56265 0.70563 0.0
C231 C 0.71138 0.60429 0.59923 0.0
C232 C 0.70004 0.61555 0.69385 0.0
C233 C 0.76308 0.62575 0.65841 0.0
O234 O 0.74765 0.62814 0.64408 0.0
O235 O 0.76339 0.61226 0.67598 0.0
O236 O 0.70904 0.62194 0.60911 0.0
O237 O 0.71886 0.59045 0.61402 0.0
O238 O 0.38776 0.71452 0.70193 0.0
Cd239 Cd 0.40111 0.73926 0.68522 0.0
Cd240 Cd 0.38329 0.7209 0.64007 0.0
O241 O 0.37685 0.69858 0.66693 0.0
O242 O 0.41582 0.75038 0.71575 0.0
O243 O 0.43121 0.73953 0.68022 0.0
C244 C 0.43235 0.7468 0.70355 0.0
C245 C 0.39182 0.71111 0.59754 0.0
C246 C 0.37923 0.69944 0.69151 0.0
C247 C 0.36951 0.76267 0.65626 0.0
O248 O 0.3669 0.74729 0.6419 0.0
O249 O 0.38305 0.76279 0.67375 0.0
O250 O 0.37397 0.70869 0.60675 0.0
O251 O 0.40529 0.71874 0.61278 0.0
O252 O 0.28221 0.38698 0.7036 0.0
Cd253 Cd 0.25743 0.40006 0.68664 0.0
Cd254 Cd 0.27629 0.38247 0.64164 0.0
O255 O 0.29853 0.37636 0.66873 0.0
O256 O 0.24605 0.41494 0.7169 0.0
O257 O 0.25702 0.43011 0.68126 0.0
C258 C 0.24962 0.4314 0.70451 0.0
C259 C 0.28613 0.39083 0.59906 0.0
C260 C 0.29747 0.37868 0.69331 0.0
C261 C 0.23454 0.36822 0.65748 0.0
O262 O 0.25004 0.36583 0.64328 0.0
O263 O 0.23414 0.38173 0.67502 0.0
O264 O 0.28871 0.37306 0.60847 0.0
O265 O 0.27837 0.40432 0.61415 0.0
O266 O 0.60856 0.2791 0.70362 0.0
Cd267 Cd 0.59485 0.25466 0.68668 0.0
Cd268 Cd 0.61072 0.27385 0.64125 0.0
O269 O 0.61674 0.29617 0.66827 0.0
O270 O 0.58007 0.24313 0.71691 0.0
O271 O 0.56479 0.25476 0.6817 0.0
C272 C 0.56357 0.24709 0.70481 0.0
C273 C 0.60198 0.28392 0.59889 0.0
C274 C 0.61579 0.29475 0.69297 0.0
C275 C 0.62603 0.23224 0.65614 0.0
O276 O 0.628 0.24795 0.6422 0.0
O277 O 0.61279 0.23146 0.67399 0.0
O278 O 0.61973 0.28672 0.60821 0.0
O279 O 0.5887 0.27574 0.61392 0.0
O280 O 0.7146 0.38726 0.80127 0.0
Cd281 Cd 0.73917 0.40026 0.81881 0.0
Cd282 Cd 0.7198 0.38191 0.86287 0.0
O283 O 0.69785 0.37583 0.83536 0.0
O284 O 0.75082 0.41508 0.78866 0.0
O285 O 0.73959 0.43035 0.82407 0.0
C286 C 0.74716 0.43158 0.8009 0.0
C287 C 0.70993 0.39047 0.90534 0.0
C288 C 0.69927 0.37861 0.81089 0.0
C289 C 0.76179 0.36805 0.84763 0.0
O290 O 0.74609 0.36537 0.86138 0.0
O291 O 0.76239 0.38186 0.83051 0.0
O292 O 0.70733 0.37266 0.89607 0.0
O293 O 0.71765 0.4039 0.89012 0.0
O294 O 0.60765 0.71457 0.80133 0.0
Cd295 Cd 0.59435 0.73937 0.81794 0.0
Cd296 Cd 0.61282 0.72106 0.86318 0.0
O297 O 0.61927 0.69886 0.83614 0.0
O298 O 0.57967 0.75036 0.78729 0.0
O299 O 0.56423 0.73971 0.82288 0.0
C300 C 0.56312 0.74687 0.79949 0.0
C301 C 0.60509 0.7112 0.90597 0.0
C302 C 0.61651 0.69963 0.81162 0.0
C303 C 0.62598 0.76302 0.8466 0.0
O304 O 0.62874 0.74771 0.86103 0.0
O305 O 0.6124 0.76298 0.82915 0.0
O306 O 0.62284 0.70907 0.89632 0.0
O307 O 0.59127 0.71852 0.89103 0.0
O308 O 0.28138 0.60752 0.80034 0.0
Cd309 Cd 0.25653 0.59425 0.81687 0.0
Cd310 Cd 0.2751 0.61174 0.86234 0.0
O311 O 0.2974 0.61819 0.83542 0.0
O312 O 0.24549 0.57938 0.7864 0.0
O313 O 0.2562 0.56419 0.82214 0.0
C314 C 0.24902 0.56291 0.79878 0.0
C315 C 0.28485 0.60377 0.9051 0.0
C316 C 0.2965 0.61593 0.81082 0.0
C317 C 0.23332 0.62581 0.84602 0.0
O318 O 0.24869 0.62807 0.8605 0.0
O319 O 0.23309 0.61249 0.82826 0.0
O320 O 0.28716 0.62152 0.89555 0.0
O321 O 0.27745 0.59006 0.89004 0.0
O322 O 0.38866 0.28079 0.80242 0.0
Cd323 Cd 0.4015 0.25563 0.81873 0.0
Cd324 Cd 0.38411 0.27415 0.86419 0.0
O325 O 0.37796 0.29671 0.83756 0.0
O326 O 0.41605 0.24451 0.78805 0.0
O327 O 0.43157 0.25471 0.82379 0.0
C328 C 0.43263 0.24765 0.80035 0.0
C329 C 0.39254 0.28343 0.90696 0.0
C330 C 0.38036 0.29594 0.81297 0.0
C331 C 0.36945 0.23273 0.84747 0.0
O332 O 0.36732 0.24804 0.86208 0.0
O333 O 0.38288 0.23242 0.82982 0.0
O334 O 0.37477 0.28614 0.89765 0.0
O335 O 0.40601 0.27587 0.89166 0.0
O336 O 0.28164 0.38729 0.30158 0.0
Cd337 Cd 0.25688 0.40086 0.31793 0.0
Cd338 Cd 0.27512 0.38346 0.36357 0.0
O339 O 0.29742 0.37662 0.33684 0.0
O340 O 0.24605 0.41571 0.28732 0.0
O341 O 0.25683 0.43094 0.323 0.0
C342 C 0.2497 0.43219 0.29961 0.0
C343 C 0.28492 0.39172 0.40621 0.0
C344 C 0.29664 0.37877 0.31221 0.0
C345 C 0.23329 0.36965 0.34723 0.0
O346 O 0.24858 0.36733 0.36182 0.0
O347 O 0.23325 0.38288 0.32934 0.0
O348 O 0.28707 0.37386 0.39693 0.0
O349 O 0.27761 0.40535 0.39097 0.0
O350 O 0.60791 0.28102 0.30244 0.0
Cd351 Cd 0.59481 0.25622 0.31935 0.0
Cd352 Cd 0.61239 0.27474 0.36412 0.0
O353 O 0.61874 0.29713 0.33735 0.0
O354 O 0.58009 0.24489 0.28898 0.0
O355 O 0.56474 0.25572 0.32455 0.0
C356 C 0.56357 0.24835 0.30128 0.0
C357 C 0.60303 0.28419 0.40644 0.0
C358 C 0.61634 0.29619 0.31278 0.0
C359 C 0.62666 0.23314 0.34825 0.0
O360 O 0.62917 0.24859 0.36251 0.0
O361 O 0.61307 0.23286 0.33083 0.0
O362 O 0.62098 0.28696 0.39774 0.0
O363 O 0.58992 0.27644 0.39078 0.0
O364 O 0.71434 0.60717 0.30135 0.0
Cd365 Cd 0.73951 0.59444 0.31776 0.0
Cd366 Cd 0.72116 0.61273 0.36296 0.0
O367 O 0.69862 0.6187 0.33621 0.0
O368 O 0.75051 0.57968 0.28715 0.0
O369 O 0.74036 0.56437 0.32307 0.0
C370 C 0.74734 0.56317 0.2996 0.0
C371 C 0.71192 0.60469 0.40589 0.0
C372 C 0.69929 0.61582 0.31171 0.0
C373 C 0.7627 0.62674 0.34573 0.0
O374 O 0.74744 0.62922 0.36035 0.0
O375 O 0.76285 0.61307 0.32841 0.0
O376 O 0.70935 0.62243 0.39639 0.0
O377 O 0.7193 0.59105 0.39071 0.0
O378 O 0.38829 0.71666 0.30065 0.0
Cd379 Cd 0.4012 0.74128 0.3182 0.0
Cd380 Cd 0.38387 0.72178 0.36257 0.0
O381 O 0.37787 0.69976 0.33515 0.0
O382 O 0.41607 0.7531 0.28824 0.0
O383 O 0.43124 0.7417 0.32364 0.0
C384 C 0.43253 0.74938 0.30054 0.0
C385 C 0.39272 0.71179 0.4049 0.0
C386 C 0.38014 0.70118 0.31059 0.0
C387 C 0.36911 0.76351 0.34768 0.0
O388 O 0.36685 0.74779 0.36149 0.0
O389 O 0.38269 0.7643 0.33024 0.0
O390 O 0.37492 0.70901 0.39571 0.0
O391 O 0.40599 0.71981 0.38969 0.0
O392 O 0.28242 0.60804 0.20267 0.0
Cd393 Cd 0.25757 0.59474 0.18617 0.0
Cd394 Cd 0.27565 0.61323 0.14094 0.0
O395 O 0.29792 0.61983 0.16779 0.0
O396 O 0.24673 0.57989 0.21678 0.0
O397 O 0.25728 0.56465 0.18101 0.0
C398 C 0.25022 0.5634 0.20444 0.0
C399 C 0.28538 0.60528 0.09818 0.0
C400 C 0.29727 0.61701 0.19231 0.0
C401 C 0.23377 0.62641 0.15777 0.0
O402 O 0.249 0.62915 0.14318 0.0
O403 O 0.23389 0.61284 0.17523 0.0
O404 O 0.28752 0.62308 0.10764 0.0
O405 O 0.27811 0.59153 0.11329 0.0
O406 O 0.3878 0.27918 0.20458 0.0
Cd407 Cd 0.40118 0.2544 0.18803 0.0
Cd408 Cd 0.38368 0.27279 0.14256 0.0
O409 O 0.3772 0.29511 0.16941 0.0
O410 O 0.41598 0.24338 0.21855 0.0
O411 O 0.43125 0.25419 0.1829 0.0
C412 C 0.43247 0.24698 0.20625 0.0
C413 C 0.39182 0.28267 0.09992 0.0
C414 C 0.37941 0.29427 0.19402 0.0
C415 C 0.36978 0.23099 0.15884 0.0
O416 O 0.36737 0.24634 0.14438 0.0
O417 O 0.38314 0.23087 0.17657 0.0
O418 O 0.37403 0.28495 0.10937 0.0
O419 O 0.40546 0.27513 0.11497 0.0
O420 O 0.71387 0.38772 0.20306 0.0
Cd421 Cd 0.73878 0.40076 0.18639 0.0
Cd422 Cd 0.72008 0.38297 0.14105 0.0
O423 O 0.69784 0.37676 0.16813 0.0
O424 O 0.75002 0.41548 0.21687 0.0
O425 O 0.73939 0.43084 0.18122 0.0
C426 C 0.74664 0.43201 0.20456 0.0
C427 C 0.71013 0.39077 0.09832 0.0
C428 C 0.69874 0.37924 0.19269 0.0
C429 C 0.76183 0.3689 0.15742 0.0
O430 O 0.74646 0.36657 0.14296 0.0
O431 O 0.76208 0.38234 0.17504 0.0
O432 O 0.7078 0.37307 0.10803 0.0
O433 O 0.71772 0.40451 0.11316 0.0
O434 O 0.60719 0.71418 0.20379 0.0
Cd435 Cd 0.59456 0.73928 0.18704 0.0
Cd436 Cd 0.61241 0.72024 0.14196 0.0
O437 O 0.61827 0.69793 0.16908 0.0
O438 O 0.58012 0.75078 0.21759 0.0
O439 O 0.56448 0.74041 0.18202 0.0
C440 C 0.56351 0.74768 0.20536 0.0
C441 C 0.60426 0.71072 0.09918 0.0
C442 C 0.61559 0.69893 0.19361 0.0
C443 C 0.62685 0.76185 0.15819 0.0
O444 O 0.62915 0.74638 0.1439 0.0
O445 O 0.61328 0.76232 0.17564 0.0
O446 O 0.62196 0.708 0.10873 0.0
O447 O 0.59069 0.71835 0.11427 0.0
H448 H 0.36955 0.19594 0.18711 0.0
H449 H 0.26799 0.1558 0.12169 0.0
H450 H 0.33889 0.22616 0.12397 0.0
H451 H 0.29759 0.12635 0.18626 0.0
H452 H 0.29566 0.17984 0.11943 0.0
H453 H 0.34519 0.16853 0.18425 0.0
C454 C 0.35779 0.19677 0.17251 0.0
C455 C 0.35617 0.2135 0.15591 0.0
C456 C 0.29618 0.16804 0.13398 0.0
C457 C 0.32818 0.18216 0.15262 0.0
C458 C 0.28037 0.15428 0.13529 0.0
C459 C 0.28034 0.13911 0.15436 0.0
C460 C 0.31209 0.1667 0.15192 0.0
C461 C 0.29688 0.13786 0.17134 0.0
C462 C 0.34387 0.1811 0.17091 0.0
C463 C 0.34067 0.21365 0.1373 0.0
N464 N 0.31201 0.15156 0.16984 0.0
N465 N 0.3272 0.1983 0.13628 0.0
H466 H 0.86818 0.29788 0.18747 0.0
H467 H 0.76667 0.33832 0.12208 0.0
H468 H 0.83753 0.26787 0.12416 0.0
H469 H 0.79653 0.36788 0.18637 0.0
H470 H 0.79417 0.31405 0.12002 0.0
H471 H 0.84376 0.32526 0.18482 0.0
C472 C 0.85642 0.29709 0.17288 0.0
C473 C 0.85483 0.28043 0.15615 0.0
C474 C 0.79478 0.32592 0.13448 0.0
C475 C 0.82677 0.31174 0.15309 0.0
C476 C 0.77907 0.33981 0.13566 0.0
C477 C 0.77918 0.3551 0.15458 0.0
C478 C 0.81072 0.32725 0.15238 0.0
C479 C 0.79573 0.3563 0.17156 0.0
C480 C 0.84246 0.31275 0.1714 0.0
C481 C 0.83929 0.28032 0.13758 0.0
N482 N 0.81075 0.34248 0.17017 0.0
N483 N 0.82581 0.29566 0.13667 0.0
H484 H 0.65788 0.76613 0.12337 0.0
H485 H 0.69712 0.86891 0.18658 0.0
H486 H 0.62761 0.79692 0.18639 0.0
H487 H 0.72792 0.83755 0.12448 0.0
H488 H 0.67 0.84422 0.18425 0.0
H489 H 0.68211 0.79365 0.12101 0.0
C490 C 0.65623 0.77873 0.13662 0.0
C491 C 0.64075 0.77911 0.15526 0.0
C492 C 0.68263 0.84281 0.17103 0.0
C493 C 0.66854 0.81068 0.15268 0.0
C494 C 0.69814 0.85692 0.17233 0.0
C495 C 0.71494 0.85524 0.15584 0.0
C496 C 0.68392 0.82684 0.15316 0.0
C497 C 0.71534 0.83941 0.13769 0.0
C498 C 0.6701 0.79445 0.13525 0.0
C499 C 0.63935 0.7959 0.1718 0.0
N500 N 0.70013 0.82576 0.13695 0.0
N501 N 0.65314 0.81094 0.17023 0.0
H502 H 0.19899 0.62615 0.18664 0.0
H503 H 0.15685 0.72729 0.12212 0.0
H504 H 0.22828 0.65744 0.12327 0.0
H505 H 0.12826 0.69712 0.18693 0.0
H506 H 0.18137 0.70005 0.11961 0.0
H507 H 0.17126 0.6502 0.18437 0.0
C508 C 0.19955 0.63798 0.17211 0.0
C509 C 0.21611 0.63986 0.15526 0.0
C510 C 0.16966 0.69932 0.13428 0.0
C511 C 0.1844 0.6675 0.15264 0.0
C512 C 0.15562 0.71487 0.13573 0.0
C513 C 0.14054 0.71461 0.15492 0.0
C514 C 0.16869 0.68336 0.1522 0.0
C515 C 0.13968 0.69804 0.17191 0.0
C516 C 0.1837 0.65172 0.17085 0.0
C517 C 0.21591 0.65545 0.13678 0.0
N518 N 0.15365 0.68316 0.17026 0.0
N519 N 0.20038 0.66873 0.13608 0.0
H520 H 0.29758 0.86982 0.32041 0.0
H521 H 0.33791 0.76704 0.38239 0.0
H522 H 0.26678 0.83736 0.38154 0.0
H523 H 0.36827 0.79903 0.32046 0.0
H524 H 0.31335 0.79426 0.3851 0.0
H525 H 0.32518 0.84567 0.32292 0.0
C526 C 0.29666 0.85771 0.33449 0.0
C527 C 0.27972 0.85553 0.35063 0.0
C528 C 0.32546 0.79539 0.37103 0.0
C529 C 0.31129 0.82776 0.35352 0.0
C530 C 0.33952 0.77985 0.36947 0.0
C531 C 0.35511 0.78064 0.351 0.0
C532 C 0.32693 0.81185 0.35396 0.0
C533 C 0.35645 0.79769 0.33489 0.0
C534 C 0.31244 0.84391 0.33591 0.0
C535 C 0.27946 0.83958 0.36859 0.0
N536 N 0.34246 0.81254 0.33663 0.0
N537 N 0.29493 0.82623 0.36942 0.0
H538 H 0.22802 0.33955 0.38314 0.0
H539 H 0.12681 0.29887 0.31729 0.0
H540 H 0.19871 0.36858 0.31803 0.0
H541 H 0.15718 0.26913 0.38103 0.0
H542 H 0.15117 0.3263 0.31999 0.0
H543 H 0.20038 0.31547 0.38537 0.0
C544 C 0.21571 0.34097 0.36941 0.0
C545 C 0.2158 0.35604 0.3502 0.0
C546 C 0.15242 0.31384 0.3335 0.0
C547 C 0.1841 0.32839 0.3526 0.0
C548 C 0.1385 0.29816 0.33198 0.0
C549 C 0.14003 0.28155 0.34881 0.0
C550 C 0.16803 0.31291 0.35193 0.0
C551 C 0.15546 0.28154 0.36753 0.0
C552 C 0.19992 0.32718 0.3707 0.0
C553 C 0.19936 0.35716 0.33306 0.0
N554 N 0.16892 0.2969 0.36847 0.0
N555 N 0.18425 0.34343 0.33455 0.0
H556 H 0.72911 0.15785 0.38274 0.0
H557 H 0.62597 0.1976 0.32114 0.0
H558 H 0.69717 0.12741 0.32087 0.0
H559 H 0.65862 0.2289 0.38165 0.0
H560 H 0.65026 0.17014 0.32367 0.0
H561 H 0.70182 0.18234 0.38549 0.0
C562 C 0.7163 0.15621 0.36985 0.0
C563 C 0.71554 0.14062 0.35138 0.0
C564 C 0.65204 0.18296 0.33651 0.0
C565 C 0.68425 0.1687 0.35438 0.0
C566 C 0.63816 0.19866 0.33509 0.0
C567 C 0.64034 0.2157 0.35105 0.0
C568 C 0.66828 0.18428 0.35396 0.0
C569 C 0.6564 0.21614 0.36885 0.0
C570 C 0.70072 0.17023 0.37143 0.0
C571 C 0.69849 0.13924 0.33529 0.0
N572 N 0.66982 0.20073 0.3697 0.0
N573 N 0.6836 0.15317 0.33706 0.0
H574 H 0.79736 0.62721 0.31663 0.0
H575 H 0.83793 0.729 0.38123 0.0
H576 H 0.76758 0.65801 0.38002 0.0
H577 H 0.86693 0.69935 0.31632 0.0
H578 H 0.81368 0.70151 0.3835 0.0
H579 H 0.82458 0.65185 0.31869 0.0
C580 C 0.79659 0.63906 0.33111 0.0
C581 C 0.78005 0.64061 0.34805 0.0
C582 C 0.82542 0.70095 0.36885 0.0
C583 C 0.81117 0.66892 0.35044 0.0
C584 C 0.8393 0.71666 0.36754 0.0
C585 C 0.85443 0.71659 0.34841 0.0
C586 C 0.82661 0.68504 0.35088 0.0
C587 C 0.85547 0.70011 0.33131 0.0
C588 C 0.81215 0.65314 0.33225 0.0
C589 C 0.77995 0.65626 0.36646 0.0
N590 N 0.84167 0.68507 0.33285 0.0
N591 N 0.7952 0.66986 0.36706 0.0
H592 H 0.7269 0.8398 0.88245 0.0
H593 H 0.62559 0.79796 0.81813 0.0
H594 H 0.69668 0.86844 0.81775 0.0
H595 H 0.65708 0.76833 0.88104 0.0
H596 H 0.64961 0.82569 0.82056 0.0
H597 H 0.6996 0.81534 0.88504 0.0
C598 C 0.71447 0.84105 0.86889 0.0
C599 C 0.7142 0.85612 0.84968 0.0
C600 C 0.65119 0.81318 0.83394 0.0
C601 C 0.68289 0.82806 0.85251 0.0
C602 C 0.63745 0.79733 0.83259 0.0
C603 C 0.6394 0.78067 0.84925 0.0
C604 C 0.66702 0.81238 0.85206 0.0
C605 C 0.65505 0.78077 0.86767 0.0
C606 C 0.69887 0.82705 0.87038 0.0
C607 C 0.6976 0.85703 0.83276 0.0
N608 N 0.66832 0.7963 0.86845 0.0
N609 N 0.68269 0.8431 0.83446 0.0
H610 H 0.1271 0.69724 0.81685 0.0
H611 H 0.22841 0.656 0.88188 0.0
H612 H 0.15783 0.72669 0.88054 0.0
H613 H 0.19866 0.62712 0.81698 0.0
H614 H 0.20093 0.68026 0.88428 0.0
H615 H 0.15139 0.66972 0.81923 0.0
C616 C 0.13886 0.69787 0.83146 0.0
C617 C 0.14051 0.71442 0.84837 0.0
C618 C 0.20034 0.66854 0.86961 0.0
C619 C 0.16843 0.68296 0.85112 0.0
C620 C 0.21604 0.65466 0.86823 0.0
C621 C 0.21596 0.63958 0.84904 0.0
C622 C 0.18443 0.66742 0.85164 0.0
C623 C 0.19944 0.63855 0.832 0.0
C624 C 0.15274 0.68215 0.83279 0.0
C625 C 0.15602 0.71433 0.86698 0.0
N626 N 0.18442 0.65237 0.83358 0.0
N627 N 0.16944 0.69893 0.86773 0.0
H628 H 0.33881 0.22809 0.88276 0.0
H629 H 0.29741 0.12722 0.81672 0.0
H630 H 0.36805 0.19818 0.81824 0.0
H631 H 0.2676 0.15795 0.88014 0.0
H632 H 0.32499 0.15139 0.81951 0.0
H633 H 0.31423 0.20086 0.88461 0.0
C634 C 0.34016 0.21573 0.86908 0.0
C635 C 0.35545 0.21553 0.85016 0.0
C636 C 0.31247 0.15277 0.83292 0.0
C637 C 0.32725 0.1843 0.85213 0.0
C638 C 0.29671 0.13895 0.83135 0.0
C639 C 0.28005 0.14063 0.84808 0.0
C640 C 0.31159 0.16842 0.85131 0.0
C641 C 0.28005 0.15612 0.86672 0.0
C642 C 0.32609 0.20018 0.87014 0.0
C643 C 0.35647 0.19905 0.83306 0.0
N644 N 0.2955 0.16947 0.86772 0.0
N645 N 0.34249 0.18417 0.83434 0.0
H646 H 0.86873 0.29769 0.8188 0.0
H647 H 0.76604 0.33693 0.88228 0.0
H648 H 0.83728 0.26685 0.88079 0.0
H649 H 0.79706 0.36763 0.81982 0.0
H650 H 0.79358 0.31273 0.8846 0.0
H651 H 0.84424 0.325 0.82149 0.0
C652 C 0.85677 0.29671 0.83311 0.0
C653 C 0.85498 0.27984 0.84944 0.0
C654 C 0.79443 0.32484 0.87049 0.0
C655 C 0.82683 0.31106 0.85254 0.0
C656 C 0.7787 0.33869 0.86916 0.0
C657 C 0.77913 0.35427 0.85066 0.0
C658 C 0.81072 0.3265 0.85316 0.0
C659 C 0.79601 0.35581 0.83429 0.0
C660 C 0.84277 0.31232 0.83462 0.0
C661 C 0.8392 0.27948 0.86768 0.0
N662 N 0.81106 0.34202 0.8358 0.0
N663 N 0.82567 0.29478 0.86861 0.0
H664 H 0.65734 0.22906 0.62149 0.0
H665 H 0.697 0.12544 0.68187 0.0
H666 H 0.6267 0.19641 0.68259 0.0
H667 H 0.7289 0.15901 0.62272 0.0
H668 H 0.66941 0.14956 0.67917 0.0
H669 H 0.68192 0.20185 0.61848 0.0
C670 C 0.65567 0.21611 0.63414 0.0
C671 C 0.64001 0.21513 0.6525 0.0
C672 C 0.68239 0.15159 0.66666 0.0
C673 C 0.66819 0.18394 0.6492 0.0
C674 C 0.69817 0.1378 0.66817 0.0
C675 C 0.71541 0.14029 0.65267 0.0
C676 C 0.68385 0.16805 0.64957 0.0
C677 C 0.71598 0.15655 0.63518 0.0
C678 C 0.66974 0.20058 0.63242 0.0
C679 C 0.63859 0.19791 0.66828 0.0
N680 N 0.70049 0.16988 0.63424 0.0
N681 N 0.65257 0.18308 0.66638 0.0
H682 H 0.76796 0.65604 0.62271 0.0
H683 H 0.86872 0.69774 0.6886 0.0
H684 H 0.79769 0.62709 0.68757 0.0
H685 H 0.83829 0.72694 0.62447 0.0
H686 H 0.84459 0.6701 0.68599 0.0
H687 H 0.79533 0.68043 0.62055 0.0
C688 C 0.7803 0.65471 0.6364 0.0
C689 C 0.78041 0.63957 0.65551 0.0
C690 C 0.84328 0.68249 0.67239 0.0
C691 C 0.81181 0.66756 0.65319 0.0
C692 C 0.85706 0.6983 0.67384 0.0
C693 C 0.85545 0.71481 0.65687 0.0
C694 C 0.82772 0.6832 0.65386 0.0
C695 C 0.84007 0.71461 0.63808 0.0
C696 C 0.79594 0.66867 0.63515 0.0
C697 C 0.79689 0.63856 0.6726 0.0
N698 N 0.82674 0.69913 0.6372 0.0
N699 N 0.81185 0.65246 0.67116 0.0
H700 H 0.26747 0.8384 0.62171 0.0
H701 H 0.37016 0.79802 0.68385 0.0
H702 H 0.29905 0.86838 0.68428 0.0
H703 H 0.33786 0.76735 0.62248 0.0
H704 H 0.34598 0.82559 0.68139 0.0
H705 H 0.2948 0.81398 0.61886 0.0
C706 C 0.28021 0.83996 0.63474 0.0
C707 C 0.28085 0.85539 0.65344 0.0
C708 C 0.34426 0.81289 0.66835 0.0
C709 C 0.3122 0.82738 0.65031 0.0
C710 C 0.35808 0.79712 0.66972 0.0
C711 C 0.35596 0.78023 0.6535 0.0
C712 C 0.32814 0.81177 0.65068 0.0
C713 C 0.34003 0.78 0.63549 0.0
C714 C 0.29582 0.82598 0.6331 0.0
C715 C 0.29782 0.85667 0.66968 0.0
N716 N 0.32667 0.79546 0.6347 0.0
N717 N 0.31274 0.84277 0.66786 0.0
H718 H 0.12657 0.29908 0.68498 0.0
H719 H 0.23019 0.33715 0.62275 0.0
H720 H 0.1584 0.26752 0.62393 0.0
H721 H 0.19925 0.36791 0.68523 0.0
H722 H 0.20245 0.31317 0.6202 0.0
H723 H 0.15142 0.32606 0.68258 0.0
C724 C 0.13869 0.29787 0.67093 0.0
C725 C 0.14047 0.28089 0.65479 0.0
C726 C 0.20167 0.32524 0.63436 0.0
C727 C 0.16905 0.31175 0.65202 0.0
C728 C 0.21751 0.33896 0.63583 0.0
C729 C 0.21715 0.3545 0.65439 0.0
C730 C 0.18533 0.327 0.6516 0.0
C731 C 0.20025 0.35611 0.67072 0.0
C732 C 0.1529 0.31329 0.66959 0.0
C733 C 0.15647 0.28024 0.63689 0.0
N734 N 0.18509 0.34246 0.66905 0.0
N735 N 0.1702 0.29537 0.63611 0.0
H736 H 0.18826 0.12792 0.0663 0.0
H737 H 0.22311 0.07284 0.9352 0.0
H738 H 0.22342 0.07333 0.0665 0.0
H739 H 0.18994 0.12861 0.93837 0.0
H740 H 0.21944 0.06961 0.98274 0.0
H741 H 0.18458 0.12513 0.01923 0.0
C742 C 0.19505 0.11519 0.05644 0.0
C743 C 0.20636 0.10096 0.07032 0.0
C744 C 0.21277 0.08241 0.97294 0.0
C745 C 0.20245 0.0978 0.01608 0.0
C746 C 0.21479 0.08422 0.94581 0.0
C747 C 0.20702 0.10114 0.93285 0.0
C748 C 0.20284 0.09759 0.98707 0.0
C749 C 0.1964 0.11543 0.94755 0.0
C750 C 0.19296 0.11361 0.02949 0.0
C751 C 0.21463 0.08468 0.05651 0.0
N752 N 0.19476 0.1134 0.97381 0.0
N753 N 0.21275 0.08368 0.03005 0.0
H754 H 0.86659 0.1883 0.9381 0.0
H755 H 0.92235 0.22323 0.06866 0.0
H756 H 0.92126 0.2233 0.93739 0.0
H757 H 0.86638 0.19038 0.06606 0.0
H758 H 0.92533 0.21946 0.0211 0.0
H759 H 0.86951 0.18475 0.98517 0.0
C760 C 0.87936 0.19508 0.94785 0.0
C761 C 0.89358 0.20631 0.93382 0.0
C762 C 0.91254 0.21288 0.03104 0.0
C763 C 0.89691 0.20255 0.98806 0.0
C764 C 0.91087 0.21496 0.05817 0.0
C765 C 0.89397 0.2073 0.0713 0.0
C766 C 0.89724 0.20301 0.01707 0.0
C767 C 0.87955 0.19674 0.05675 0.0
C768 C 0.88102 0.19307 0.97481 0.0
C769 C 0.90992 0.21458 0.94749 0.0
N770 N 0.88144 0.19505 0.03049 0.0
N771 N 0.91101 0.21277 0.97395 0.0
H772 H 0.77015 0.92446 0.93612 0.0
H773 H 0.80639 0.86914 0.06637 0.0
H774 H 0.80482 0.86959 0.93848 0.0
H775 H 0.76974 0.92272 0.06741 0.0
H776 H 0.81005 0.87249 0.01936 0.0
H777 H 0.77373 0.92738 0.98371 0.0
C778 C 0.77879 0.91323 0.94656 0.0
C779 C 0.787 0.89663 0.93337 0.0
C780 C 0.80134 0.88367 0.02979 0.0
C781 C 0.79108 0.89982 0.98762 0.0
C782 C 0.79925 0.88176 0.0567 0.0
C783 C 0.78754 0.89554 0.0708 0.0
C784 C 0.79144 0.89934 0.01663 0.0
C785 C 0.77884 0.91172 0.05725 0.0
C786 C 0.78076 0.91486 0.97371 0.0
C787 C 0.79802 0.88251 0.94785 0.0
N788 N 0.78072 0.91303 0.03081 0.0
N789 N 0.79959 0.88436 0.97413 0.0
H790 H 0.07309 0.77147 0.93585 0.0
H791 H 0.12819 0.80627 0.06695 0.0
H792 H 0.12899 0.80442 0.93901 0.0
H793 H 0.07378 0.77085 0.06714 0.0
H794 H 0.1254 0.80995 0.01988 0.0
H795 H 0.06991 0.77509 0.9834 0.0
C796 C 0.08451 0.77973 0.94646 0.0
C797 C 0.10145 0.78746 0.93349 0.0
C798 C 0.11392 0.80151 0.03013 0.0
C799 C 0.09795 0.79159 0.98772 0.0
C800 C 0.11551 0.79942 0.05709 0.0
C801 C 0.10132 0.78804 0.07097 0.0
C802 C 0.09815 0.79196 0.01673 0.0
C803 C 0.08509 0.7797 0.05715 0.0
C804 C 0.08272 0.78173 0.97359 0.0
C805 C 0.11579 0.798 0.94819 0.0
N806 N 0.08408 0.78158 0.0307 0.0
N807 N 0.11378 0.79961 0.97445 0.0
H808 H 0.22344 0.92348 0.43671 0.0
H809 H 0.18718 0.8696 0.56793 0.0
H810 H 0.18856 0.86878 0.4401 0.0
H811 H 0.22462 0.92263 0.56789 0.0
H812 H 0.18311 0.87277 0.52095 0.0
H813 H 0.21984 0.92696 0.48424 0.0
C814 C 0.21475 0.91241 0.44736 0.0
C815 C 0.20649 0.89568 0.43449 0.0
C816 C 0.19208 0.88388 0.53114 0.0
C817 C 0.20239 0.89951 0.48867 0.0
C818 C 0.19439 0.88207 0.55804 0.0
C819 C 0.20647 0.89573 0.57181 0.0
C820 C 0.20212 0.89931 0.51768 0.0
C821 C 0.21525 0.91173 0.55798 0.0
C822 C 0.21277 0.91436 0.47448 0.0
C823 C 0.1954 0.88178 0.44923 0.0
N824 N 0.21315 0.91292 0.53156 0.0
N825 N 0.19382 0.88393 0.47547 0.0
H826 H 0.12728 0.18888 0.5666 0.0
H827 H 0.07241 0.22478 0.43585 0.0
H828 H 0.07354 0.2253 0.56711 0.0
H829 H 0.12783 0.19102 0.4387 0.0
H830 H 0.06924 0.22106 0.4834 0.0
H831 H 0.12423 0.18522 0.51955 0.0
C832 C 0.11468 0.19596 0.55681 0.0
C833 C 0.10077 0.20761 0.57077 0.0
C834 C 0.08194 0.21426 0.47352 0.0
C835 C 0.09732 0.20374 0.51657 0.0
C836 C 0.08371 0.21632 0.44639 0.0
C837 C 0.10053 0.2084 0.43335 0.0
C838 C 0.09705 0.20415 0.48755 0.0
C839 C 0.11474 0.1976 0.44795 0.0
C840 C 0.11295 0.19388 0.52987 0.0
C841 C 0.08464 0.21625 0.55706 0.0
N842 N 0.11274 0.19593 0.47421 0.0
N843 N 0.0835 0.21437 0.53061 0.0
H844 H 0.80926 0.12582 0.56596 0.0
H845 H 0.77129 0.07153 0.43596 0.0
H846 H 0.77115 0.07328 0.56705 0.0
H847 H 0.80768 0.12527 0.43817 0.0
H848 H 0.77518 0.0683 0.48347 0.0
H849 H 0.81316 0.1221 0.51902 0.0
C850 C 0.80187 0.11334 0.55632 0.0
C851 C 0.78966 0.09999 0.57039 0.0
C852 C 0.78253 0.08063 0.47345 0.0
C853 C 0.7938 0.09578 0.51632 0.0
C854 C 0.78038 0.08243 0.44635 0.0
C855 C 0.78896 0.09884 0.43316 0.0
C856 C 0.7934 0.09531 0.48731 0.0
C857 C 0.80057 0.11253 0.44756 0.0
C858 C 0.80409 0.11122 0.52945 0.0
C859 C 0.78064 0.08395 0.5569 0.0
N860 N 0.80229 0.11054 0.4738 0.0
N861 N 0.78264 0.08246 0.5305 0.0
H862 H 0.92233 0.77237 0.5687 0.0
H863 H 0.86633 0.80707 0.43815 0.0
H864 H 0.86596 0.80453 0.56612 0.0
H865 H 0.9212 0.77236 0.43735 0.0
H866 H 0.86915 0.81042 0.48526 0.0
H867 H 0.92524 0.77613 0.52113 0.0
C868 C 0.91075 0.78048 0.55821 0.0
C869 C 0.89377 0.78796 0.57135 0.0
C870 C 0.88072 0.8022 0.47486 0.0
C871 C 0.89695 0.79225 0.51711 0.0
C872 C 0.87912 0.8003 0.44789 0.0
C873 C 0.89343 0.78923 0.43381 0.0
C874 C 0.89664 0.79277 0.4881 0.0
C875 C 0.90979 0.78097 0.44748 0.0
C876 C 0.91238 0.78256 0.53107 0.0
C877 C 0.8792 0.79831 0.5568 0.0
N878 N 0.91082 0.78268 0.47396 0.0
N879 N 0.88106 0.80002 0.53053 0.0
H880 H 0.68866 0.62769 0.56723 0.0
H881 H 0.72385 0.5726 0.43625 0.0
H882 H 0.72405 0.57326 0.56755 0.0
H883 H 0.69051 0.62827 0.43925 0.0
H884 H 0.72021 0.56946 0.48381 0.0
H885 H 0.68509 0.62488 0.52014 0.0
C886 C 0.69553 0.615 0.55739 0.0
C887 C 0.70686 0.60081 0.57132 0.0
C888 C 0.71349 0.58222 0.47396 0.0
C889 C 0.70308 0.59763 0.51706 0.0
C890 C 0.71551 0.58398 0.44683 0.0
C891 C 0.70767 0.60084 0.43381 0.0
C892 C 0.70351 0.59739 0.48805 0.0
C893 C 0.69701 0.61514 0.44847 0.0
C894 C 0.6935 0.6134 0.53043 0.0
C895 C 0.71524 0.58457 0.55753 0.0
N896 N 0.69539 0.61315 0.47473 0.0
N897 N 0.71342 0.58356 0.53107 0.0
H898 H 0.42426 0.72492 0.43537 0.0
H899 H 0.37003 0.68698 0.56543 0.0
H900 H 0.3706 0.68841 0.43764 0.0
H901 H 0.42277 0.72481 0.5665 0.0
H902 H 0.37367 0.68312 0.51848 0.0
H903 H 0.42752 0.72103 0.48287 0.0
C904 C 0.41338 0.7158 0.44577 0.0
C905 C 0.39698 0.70719 0.4326 0.0
C906 C 0.38462 0.69213 0.5289 0.0
C907 C 0.40056 0.70276 0.48675 0.0
C908 C 0.38254 0.69432 0.55578 0.0
C909 C 0.39597 0.70644 0.56985 0.0
C910 C 0.4001 0.70235 0.51576 0.0
C911 C 0.41203 0.7154 0.55634 0.0
C912 C 0.41521 0.71365 0.47287 0.0
C913 C 0.38333 0.69555 0.44702 0.0
N914 N 0.41349 0.71343 0.52993 0.0
N915 N 0.38534 0.69383 0.47326 0.0
H916 H 0.27289 0.42366 0.43676 0.0
H917 H 0.3098 0.36858 0.56683 0.0
H918 H 0.30719 0.36856 0.43903 0.0
H919 H 0.27272 0.42187 0.56796 0.0
H920 H 0.31345 0.37201 0.51982 0.0
H921 H 0.27689 0.42676 0.48428 0.0
C922 C 0.28154 0.41242 0.44716 0.0
C923 C 0.28952 0.3957 0.43398 0.0
C924 C 0.30465 0.38311 0.53027 0.0
C925 C 0.29408 0.3991 0.48814 0.0
C926 C 0.30258 0.38116 0.55719 0.0
C927 C 0.29073 0.39481 0.57129 0.0
C928 C 0.29459 0.3987 0.51714 0.0
C929 C 0.28193 0.41095 0.55778 0.0
C930 C 0.28375 0.41416 0.47427 0.0
C931 C 0.30056 0.38157 0.44841 0.0
N932 N 0.28379 0.4123 0.53134 0.0
N933 N 0.30237 0.38352 0.47465 0.0
H934 H 0.62304 0.30924 0.56751 0.0
H935 H 0.57124 0.27059 0.43613 0.0
H936 H 0.57175 0.26945 0.56727 0.0
H937 H 0.62449 0.30761 0.43983 0.0
H938 H 0.56729 0.27426 0.48358 0.0
H939 H 0.6197 0.31332 0.52055 0.0
C940 C 0.6109 0.30151 0.55757 0.0
C941 C 0.59782 0.28878 0.57126 0.0
C942 C 0.57966 0.2818 0.4739 0.0
C943 C 0.59406 0.29311 0.51717 0.0
C944 C 0.58188 0.27977 0.44683 0.0
C945 C 0.59837 0.2886 0.43409 0.0
C946 C 0.59399 0.29281 0.48817 0.0
C947 C 0.61171 0.30031 0.44888 0.0
C948 C 0.609 0.30383 0.53069 0.0
C949 C 0.58221 0.27935 0.5574 0.0
N950 N 0.60931 0.30193 0.47507 0.0
N951 N 0.58095 0.28145 0.53099 0.0
H952 H 0.72228 0.42248 0.93553 0.0
H953 H 0.68674 0.36786 0.06654 0.0
H954 H 0.68774 0.36756 0.93861 0.0
H955 H 0.72293 0.42176 0.06669 0.0
H956 H 0.68276 0.37092 0.01953 0.0
H957 H 0.71866 0.42578 0.98306 0.0
C958 C 0.71366 0.41132 0.94612 0.0
C959 C 0.7055 0.39459 0.93314 0.0
C960 C 0.69143 0.38224 0.02976 0.0
C961 C 0.70139 0.3982 0.98735 0.0
C962 C 0.6937 0.38049 0.05668 0.0
C963 C 0.70539 0.39444 0.07052 0.0
C964 C 0.70114 0.39792 0.01636 0.0
C965 C 0.71385 0.41063 0.05673 0.0
C966 C 0.71166 0.41317 0.97324 0.0
C967 C 0.6945 0.38057 0.94781 0.0
N968 N 0.71181 0.41177 0.0303 0.0
N969 N 0.69292 0.38261 0.97407 0.0
H970 H 0.57247 0.7231 0.06862 0.0
H971 H 0.62834 0.68841 0.93807 0.0
H972 H 0.62761 0.68888 0.06603 0.0
H973 H 0.57378 0.7236 0.93737 0.0
H974 H 0.62513 0.68449 0.98506 0.0
H975 H 0.56959 0.71967 0.02101 0.0
C976 C 0.58377 0.71459 0.05812 0.0
C977 C 0.60043 0.70646 0.07127 0.0
C978 C 0.61371 0.69293 0.97471 0.0
C979 C 0.5973 0.70257 0.01698 0.0
C980 C 0.61554 0.69517 0.9478 0.0
C981 C 0.60143 0.70654 0.93381 0.0
C982 C 0.59778 0.70236 0.98796 0.0
C983 C 0.58504 0.71477 0.94745 0.0
C984 C 0.58216 0.7127 0.03096 0.0
C985 C 0.61464 0.69561 0.05671 0.0
N986 N 0.5838 0.71275 0.97388 0.0
N987 N 0.61282 0.69413 0.03041 0.0
H988 H 0.30817 0.6283 0.06579 0.0
H989 H 0.27293 0.57192 0.93589 0.0
H990 H 0.27285 0.57384 0.06712 0.0
H991 H 0.30672 0.62734 0.9379 0.0
H992 H 0.27669 0.56915 0.98347 0.0
H993 H 0.31193 0.62488 0.0188 0.0
C994 C 0.30135 0.61547 0.05619 0.0
C995 C 0.28997 0.60146 0.07036 0.0
C996 C 0.28349 0.58176 0.9734 0.0
C997 C 0.29397 0.59757 0.01622 0.0
C998 C 0.28142 0.5833 0.94625 0.0
C999 C 0.28932 0.60001 0.93297 0.0
C1000 C 0.2936 0.597 0.98721 0.0
C1001 C 0.30015 0.61433 0.94735 0.0
C1002 C 0.30349 0.61352 0.02929 0.0
C1003 C 0.28168 0.58503 0.0569 0.0
N1004 N 0.30182 0.61257 0.97363 0.0
N1005 N 0.2836 0.58367 0.03047 0.0
H1006 H 0.42425 0.27054 0.93731 0.0
H1007 H 0.36936 0.30636 0.06802 0.0
H1008 H 0.36972 0.30572 0.94018 0.0
H1009 H 0.42287 0.2696 0.06856 0.0
H1010 H 0.37274 0.31041 0.02107 0.0
H1011 H 0.42736 0.27396 0.9849 0.0
C1012 C 0.41314 0.27926 0.94787 0.0
C1013 C 0.39657 0.28766 0.93482 0.0
C1014 C 0.3839 0.30159 0.03137 0.0
C1015 C 0.39998 0.29155 0.98907 0.0
C1016 C 0.38198 0.29929 0.05826 0.0
C1017 C 0.39572 0.28742 0.07218 0.0
C1018 C 0.39955 0.29174 0.01808 0.0
C1019 C 0.4119 0.27881 0.05852 0.0
C1020 C 0.41488 0.28114 0.97502 0.0
C1021 C 0.38261 0.29877 0.94944 0.0
N1022 N 0.41322 0.2809 0.03211 0.0
N1023 N 0.38455 0.30024 0.97572 0.0
H1024 H 0.24468 0.02502 0.18399 0.0
H1025 H 0.24404 0.96982 0.32176 0.0
H1026 H 0.25472 0.05642 0.25658 0.0
H1027 H 0.25453 0.93844 0.24926 0.0
H1028 H 0.24649 0.00186 0.2983 0.0
H1029 H 0.24683 0.99299 0.20751 0.0
C1030 C 0.24748 0.02517 0.20481 0.0
C1031 C 0.24947 0.04339 0.21835 0.0
C1032 C 0.24843 0.98794 0.2876 0.0
C1033 C 0.2517 0.00692 0.24538 0.0
C1034 C 0.247 0.96968 0.30098 0.0
C1035 C 0.24903 0.95145 0.28744 0.0
C1036 C 0.2516 0.98793 0.26048 0.0
C1037 C 0.25287 0.95213 0.26049 0.0
C1038 C 0.24874 0.00691 0.21821 0.0
C1039 C 0.2531 0.04272 0.24535 0.0
N1040 N 0.25384 0.97006 0.24786 0.0
N1041 N 0.2539 0.0248 0.25801 0.0
H1042 H 0.96955 0.2455 0.1837 0.0
H1043 H 0.02577 0.24557 0.32081 0.0
H1044 H 0.93865 0.25532 0.25672 0.0
H1045 H 0.05659 0.25583 0.24784 0.0
H1046 H 0.99355 0.24775 0.29774 0.0
H1047 H 0.00174 0.2479 0.20679 0.0
C1048 C 0.96954 0.24831 0.20452 0.0
C1049 C 0.95141 0.25017 0.21831 0.0
C1050 C 0.00739 0.24969 0.28685 0.0
C1051 C 0.98807 0.25267 0.24484 0.0
C1052 C 0.02576 0.24843 0.3 0.0
C1053 C 0.04387 0.25047 0.28623 0.0
C1054 C 0.00718 0.25273 0.2597 0.0
C1055 C 0.04298 0.25416 0.25926 0.0
C1056 C 0.9879 0.2497 0.21768 0.0
C1057 C 0.95227 0.2538 0.24529 0.0
N1058 N 0.02496 0.25498 0.24684 0.0
N1059 N 0.97028 0.25474 0.25772 0.0
H1060 H 0.7367 0.05775 0.24867 0.0
H1061 H 0.7381 0.93787 0.25763 0.0
H1062 H 0.74853 0.0255 0.32018 0.0
H1063 H 0.74767 0.97037 0.18574 0.0
H1064 H 0.73529 0.96985 0.28082 0.0
H1065 H 0.73406 0.02572 0.2256 0.0
C1066 C 0.73853 0.04392 0.25961 0.0
C1067 C 0.74297 0.04429 0.2864 0.0
C1068 C 0.73789 0.96996 0.25995 0.0
C1069 C 0.73994 0.00761 0.26003 0.0
C1070 C 0.73941 0.95174 0.24665 0.0
C1071 C 0.74325 0.95146 0.2197 0.0
C1072 C 0.74001 0.98807 0.2462 0.0
C1073 C 0.74482 0.96989 0.20653 0.0
C1074 C 0.73711 0.02566 0.24636 0.0
C1075 C 0.7452 0.02591 0.29951 0.0
N1076 N 0.74322 0.98748 0.21993 0.0
N1077 N 0.74369 0.00828 0.28617 0.0
H1078 H 0.05718 0.7381 0.25696 0.0
H1079 H 0.93737 0.74057 0.2464 0.0
H1080 H 0.02564 0.74955 0.18483 0.0
H1081 H 0.96936 0.74978 0.31874 0.0
H1082 H 0.96951 0.73769 0.2236 0.0
H1083 H 0.02494 0.73616 0.27967 0.0
C1084 C 0.04347 0.74001 0.24582 0.0
C1085 C 0.04411 0.7441 0.21895 0.0
C1086 C 0.96948 0.74023 0.24448 0.0
C1087 C 0.00717 0.74187 0.24491 0.0
C1088 C 0.95116 0.7418 0.25756 0.0
C1089 C 0.95069 0.74552 0.28454 0.0
C1090 C 0.9875 0.7422 0.25847 0.0
C1091 C 0.96903 0.747 0.29793 0.0
C1092 C 0.02509 0.73899 0.25886 0.0
C1093 C 0.02584 0.74646 0.20557 0.0
N1094 N 0.98672 0.74535 0.28474 0.0
N1095 N 0.00809 0.74534 0.21871 0.0
H1096 H 0.73826 0.93803 0.74606 0.0
H1097 H 0.73765 0.05791 0.75461 0.0
H1098 H 0.74783 0.9706 0.81789 0.0
H1099 H 0.7497 0.02551 0.68327 0.0
H1100 H 0.73485 0.02593 0.77775 0.0
H1101 H 0.73595 0.96997 0.72271 0.0
C1102 C 0.73967 0.9519 0.757 0.0
C1103 C 0.74336 0.95166 0.78398 0.0
C1104 C 0.738 0.02583 0.75701 0.0
C1105 C 0.74069 0.98823 0.7573 0.0
C1106 C 0.73951 0.04406 0.74373 0.0
C1107 C 0.74404 0.04437 0.71696 0.0
C1108 C 0.74081 0.00775 0.74341 0.0
C1109 C 0.7463 0.02596 0.70392 0.0
C1110 C 0.73844 0.97011 0.7436 0.0
C1111 C 0.74508 0.9701 0.79708 0.0
N1112 N 0.74469 0.00835 0.7173 0.0
N1113 N 0.74375 0.98767 0.78359 0.0
H1114 H 0.93776 0.74069 0.75856 0.0
H1115 H 0.05755 0.73965 0.74751 0.0
H1116 H 0.96949 0.75043 0.68612 0.0
H1117 H 0.02603 0.75042 0.81986 0.0
H1118 H 0.0253 0.73755 0.7249 0.0
H1119 H 0.96997 0.73824 0.78124 0.0
C1120 C 0.95151 0.74214 0.74735 0.0
C1121 C 0.95095 0.74587 0.72039 0.0
C1122 C 0.02545 0.74027 0.74574 0.0
C1123 C 0.98783 0.74304 0.74631 0.0
C1124 C 0.04384 0.74139 0.75871 0.0
C1125 C 0.04448 0.74532 0.78563 0.0
C1126 C 0.00753 0.7429 0.75978 0.0
C1127 C 0.02623 0.74745 0.79909 0.0
C1128 C 0.96987 0.74082 0.76037 0.0
C1129 C 0.96924 0.74763 0.70693 0.0
N1130 N 0.00847 0.74624 0.78601 0.0
N1131 N 0.98697 0.74621 0.72005 0.0
H1132 H 0.25881 0.93863 0.75586 0.0
H1133 H 0.25534 0.05841 0.74595 0.0
H1134 H 0.24606 0.97025 0.68416 0.0
H1135 H 0.24666 0.02613 0.81819 0.0
H1136 H 0.25832 0.02637 0.72295 0.0
H1137 H 0.26082 0.97082 0.77865 0.0
C1138 C 0.25664 0.95235 0.74482 0.0
C1139 C 0.25214 0.95176 0.71806 0.0
C1140 C 0.25587 0.02631 0.74385 0.0
C1141 C 0.25445 0.98863 0.74411 0.0
C1142 C 0.25426 0.04458 0.75704 0.0
C1143 C 0.25064 0.04493 0.78404 0.0
C1144 C 0.25409 0.00824 0.75777 0.0
C1145 C 0.24934 0.02654 0.79736 0.0
C1146 C 0.2577 0.97071 0.75791 0.0
C1147 C 0.24946 0.97003 0.70481 0.0
N1148 N 0.25105 0.00891 0.78407 0.0
N1149 N 0.25063 0.98775 0.718 0.0
H1150 H 0.96986 0.24632 0.82056 0.0
H1151 H 0.02504 0.24635 0.68283 0.0
H1152 H 0.93824 0.25557 0.74796 0.0
H1153 H 0.05622 0.2577 0.75525 0.0
H1154 H 0.99295 0.24846 0.70624 0.0
H1155 H 0.00183 0.24919 0.79702 0.0
C1156 C 0.96964 0.2491 0.79973 0.0
C1157 C 0.95138 0.25065 0.7862 0.0
C1158 C 0.00684 0.25068 0.71692 0.0
C1159 C 0.98779 0.2537 0.75915 0.0
C1160 C 0.02513 0.24945 0.70358 0.0
C1161 C 0.04332 0.25179 0.71711 0.0
C1162 C 0.00678 0.25396 0.74403 0.0
C1163 C 0.04256 0.25579 0.74401 0.0
C1164 C 0.98787 0.25077 0.78632 0.0
C1165 C 0.95197 0.25428 0.7592 0.0
N1166 N 0.02461 0.25654 0.75663 0.0
N1167 N 0.96987 0.25547 0.74652 0.0
H1168 H 0.74606 0.52473 0.68445 0.0
H1169 H 0.74492 0.46947 0.82209 0.0
H1170 H 0.7558 0.55614 0.75711 0.0
H1171 H 0.75618 0.43816 0.74972 0.0
H1172 H 0.74747 0.50153 0.79869 0.0
H1173 H 0.74833 0.4927 0.70795 0.0
C1174 C 0.74883 0.52488 0.70528 0.0
C1175 C 0.7507 0.54311 0.71884 0.0
C1176 C 0.74957 0.48762 0.78802 0.0
C1177 C 0.75304 0.50664 0.74584 0.0
C1178 C 0.74809 0.46935 0.80135 0.0
C1179 C 0.7503 0.45114 0.78783 0.0
C1180 C 0.75296 0.48764 0.76094 0.0
C1181 C 0.75438 0.45185 0.76094 0.0
C1182 C 0.75015 0.50662 0.71867 0.0
C1183 C 0.75428 0.54244 0.74585 0.0
N1184 N 0.75538 0.46978 0.74834 0.0
N1185 N 0.75513 0.52451 0.7585 0.0
H1186 H 0.52515 0.7451 0.8205 0.0
H1187 H 0.47031 0.74469 0.68254 0.0
H1188 H 0.55676 0.75501 0.74802 0.0
H1189 H 0.43877 0.75535 0.7549 0.0
H1190 H 0.5023 0.74706 0.70612 0.0
H1191 H 0.49318 0.74744 0.79687 0.0
C1192 C 0.52536 0.74792 0.79968 0.0
C1193 C 0.54362 0.74981 0.7862 0.0
C1194 C 0.48835 0.74906 0.71676 0.0
C1195 C 0.50723 0.75226 0.75906 0.0
C1196 C 0.47012 0.74768 0.70332 0.0
C1197 C 0.45187 0.74977 0.71678 0.0
C1198 C 0.48828 0.75225 0.74388 0.0
C1199 C 0.45249 0.75364 0.74372 0.0
C1200 C 0.50714 0.74928 0.78622 0.0
C1201 C 0.54303 0.75347 0.75921 0.0
N1202 N 0.47039 0.75455 0.75643 0.0
N1203 N 0.52514 0.75437 0.74648 0.0
H1204 H 0.25163 0.4692 0.68303 0.0
H1205 H 0.25081 0.52511 0.82026 0.0
H1206 H 0.24087 0.4382 0.75574 0.0
H1207 H 0.24092 0.55614 0.74737 0.0
H1208 H 0.24856 0.49296 0.79704 0.0
H1209 H 0.24908 0.50136 0.70619 0.0
C1210 C 0.24858 0.46916 0.70379 0.0
C1211 C 0.24651 0.45101 0.71748 0.0
C1212 C 0.2467 0.50682 0.7862 0.0
C1213 C 0.24384 0.48763 0.7441 0.0
C1214 C 0.24801 0.52515 0.79944 0.0
C1215 C 0.2461 0.54331 0.78573 0.0
C1216 C 0.24376 0.5067 0.75904 0.0
C1217 C 0.24248 0.5425 0.75874 0.0
C1218 C 0.2471 0.48749 0.71699 0.0
C1219 C 0.24256 0.45183 0.74439 0.0
N1220 N 0.24163 0.52451 0.74624 0.0
N1221 N 0.24156 0.46982 0.75687 0.0
H1222 H 0.47057 0.24865 0.82151 0.0
H1223 H 0.52568 0.24979 0.68378 0.0
H1224 H 0.439 0.23973 0.74881 0.0
H1225 H 0.55698 0.2379 0.75596 0.0
H1226 H 0.49363 0.24745 0.70723 0.0
H1227 H 0.50256 0.24604 0.79796 0.0
C1228 C 0.47037 0.24599 0.80066 0.0
C1229 C 0.45211 0.24446 0.7871 0.0
C1230 C 0.50753 0.24517 0.71785 0.0
C1231 C 0.48854 0.24172 0.76004 0.0
C1232 C 0.5258 0.24653 0.70449 0.0
C1233 C 0.54401 0.2441 0.71794 0.0
C1234 C 0.50752 0.24166 0.74491 0.0
C1235 C 0.5433 0.23989 0.74479 0.0
C1236 C 0.48861 0.24447 0.78724 0.0
C1237 C 0.45272 0.241 0.76007 0.0
N1238 N 0.52537 0.23901 0.75744 0.0
N1239 N 0.47063 0.23995 0.74738 0.0
H1240 H 0.25212 0.52552 0.18317 0.0
H1241 H 0.25187 0.47007 0.32082 0.0
H1242 H 0.24208 0.55679 0.25586 0.0
H1243 H 0.24163 0.43883 0.24816 0.0
H1244 H 0.24979 0.50214 0.29741 0.0
H1245 H 0.24978 0.49344 0.20656 0.0
C1246 C 0.24928 0.52563 0.20398 0.0
C1247 C 0.24734 0.54383 0.21759 0.0
C1248 C 0.24782 0.48825 0.28666 0.0
C1249 C 0.24489 0.50731 0.24447 0.0
C1250 C 0.24904 0.46996 0.30001 0.0
C1251 C 0.24696 0.45177 0.28642 0.0
C1252 C 0.24481 0.48829 0.25951 0.0
C1253 C 0.24331 0.4525 0.25944 0.0
C1254 C 0.24792 0.50735 0.21731 0.0
C1255 C 0.24366 0.54311 0.24457 0.0
N1256 N 0.24255 0.47045 0.24683 0.0
N1257 N 0.24275 0.52517 0.25716 0.0
H1258 H 0.52568 0.25013 0.32254 0.0
H1259 H 0.47034 0.24899 0.18499 0.0
H1260 H 0.55704 0.23956 0.25002 0.0
H1261 H 0.43908 0.23883 0.25768 0.0
H1262 H 0.50241 0.2469 0.20841 0.0
H1263 H 0.49363 0.24736 0.29919 0.0
C1264 C 0.52582 0.24708 0.30178 0.0
C1265 C 0.54403 0.24513 0.2882 0.0
C1266 C 0.48851 0.24494 0.21916 0.0
C1267 C 0.50755 0.2422 0.26137 0.0
C1268 C 0.47023 0.24616 0.20581 0.0
C1269 C 0.45204 0.24413 0.21941 0.0
C1270 C 0.48854 0.24199 0.24632 0.0
C1271 C 0.45276 0.24048 0.2464 0.0
C1272 C 0.50755 0.24547 0.28848 0.0
C1273 C 0.54335 0.24116 0.26129 0.0
N1274 N 0.4707 0.23973 0.25901 0.0
N1275 N 0.52541 0.24003 0.24871 0.0
H1276 H 0.74579 0.5253 0.32093 0.0
H1277 H 0.74488 0.46989 0.18331 0.0
H1278 H 0.75542 0.55656 0.24815 0.0
H1279 H 0.75526 0.43857 0.25587 0.0
H1280 H 0.74752 0.50195 0.20668 0.0
H1281 H 0.74807 0.49322 0.29754 0.0
C1282 C 0.74855 0.52541 0.3001 0.0
C1283 C 0.75036 0.54361 0.28647 0.0
C1284 C 0.7494 0.48804 0.21741 0.0
C1285 C 0.75272 0.50708 0.25958 0.0
C1286 C 0.74787 0.46976 0.20409 0.0
C1287 C 0.7498 0.45155 0.21767 0.0
C1288 C 0.75259 0.48806 0.24453 0.0
C1289 C 0.75367 0.45225 0.2446 0.0
C1290 C 0.74987 0.50712 0.28677 0.0
C1291 C 0.75393 0.54288 0.25946 0.0
N1292 N 0.75474 0.4702 0.25719 0.0
N1293 N 0.75479 0.52493 0.24687 0.0
H1294 H 0.47037 0.7467 0.32178 0.0
H1295 H 0.52557 0.74703 0.18419 0.0
H1296 H 0.43927 0.75879 0.2495 0.0
H1297 H 0.55722 0.75594 0.25684 0.0
H1298 H 0.49361 0.75013 0.2077 0.0
H1299 H 0.50247 0.7489 0.29843 0.0
C1300 C 0.4703 0.74999 0.30108 0.0
C1301 C 0.45213 0.75249 0.28756 0.0
C1302 C 0.50758 0.75159 0.21842 0.0
C1303 C 0.48868 0.75476 0.26071 0.0
C1304 C 0.5258 0.74979 0.20502 0.0
C1305 C 0.54406 0.75117 0.21858 0.0
C1306 C 0.50767 0.75447 0.2456 0.0
C1307 C 0.54349 0.75478 0.24558 0.0
C1308 C 0.48861 0.75127 0.28777 0.0
C1309 C 0.45292 0.75674 0.26072 0.0
N1310 N 0.52559 0.75609 0.25825 0.0
N1311 N 0.47087 0.75753 0.24813 0.0
H1312 H 0.16714 0.13945 0.17842 0.0
H1313 H 0.14004 0.16816 0.32585 0.0
H1314 H 0.19619 0.11333 0.24576 0.0
H1315 H 0.1135 0.19673 0.25844 0.0
H1316 H 0.15718 0.14448 0.29689 0.0
H1317 H 0.14385 0.157 0.20749 0.0
C1318 C 0.16849 0.1372 0.19928 0.0
C1319 C 0.18383 0.12509 0.20965 0.0
C1320 C 0.14745 0.15581 0.28846 0.0
C1321 C 0.15728 0.14524 0.24305 0.0
C1322 C 0.13762 0.16933 0.305 0.0
C1323 C 0.1255 0.18464 0.29457 0.0
C1324 C 0.14516 0.15764 0.2613 0.0
C1325 C 0.12287 0.18533 0.26738 0.0
C1326 C 0.1552 0.14727 0.21588 0.0
C1327 C 0.18476 0.12269 0.23687 0.0
N1328 N 0.13276 0.17216 0.2517 0.0
N1329 N 0.17181 0.13282 0.25261 0.0
H1330 H 0.88387 0.19512 0.24609 0.0
H1331 H 0.79829 0.11159 0.25819 0.0
H1332 H 0.8543 0.16792 0.17987 0.0
H1333 H 0.82782 0.13888 0.32439 0.0
H1334 H 0.82176 0.12879 0.22922 0.0
H1335 H 0.86668 0.17146 0.27479 0.0
C1336 C 0.87391 0.18404 0.23752 0.0
C1337 C 0.87033 0.1837 0.21051 0.0
C1338 C 0.82325 0.13087 0.25009 0.0
C1339 C 0.85047 0.15658 0.24341 0.0
C1340 C 0.80984 0.12104 0.26669 0.0
C1341 C 0.8109 0.124 0.2938 0.0
C1342 C 0.83779 0.14386 0.26061 0.0
C1343 C 0.82632 0.13627 0.30363 0.0
C1344 C 0.86409 0.17051 0.25397 0.0
C1345 C 0.85741 0.16885 0.20057 0.0
N1346 N 0.83902 0.14592 0.28702 0.0
N1347 N 0.84778 0.15603 0.21705 0.0
H1348 H 0.85604 0.82982 0.32586 0.0
H1349 H 0.82834 0.85772 0.17847 0.0
H1350 H 0.88276 0.80136 0.25848 0.0
H1351 H 0.79922 0.88378 0.24583 0.0
H1352 H 0.8521 0.84079 0.20749 0.0
H1353 H 0.83889 0.85347 0.2969 0.0
C1354 C 0.85851 0.82869 0.30502 0.0
C1355 C 0.87065 0.81338 0.2946 0.0
C1356 C 0.84064 0.85038 0.2159 0.0
C1357 C 0.85096 0.84034 0.26131 0.0
C1358 C 0.82708 0.86009 0.19932 0.0
C1359 C 0.81156 0.87198 0.20972 0.0
C1360 C 0.83865 0.85254 0.24307 0.0
C1361 C 0.81077 0.87458 0.23691 0.0
C1362 C 0.84868 0.84218 0.28848 0.0
C1363 C 0.87336 0.81274 0.26741 0.0
N1364 N 0.82398 0.86478 0.25263 0.0
N1365 N 0.86344 0.82587 0.25172 0.0
H1366 H 0.16646 0.85531 0.32693 0.0
H1367 H 0.13904 0.82765 0.17929 0.0
H1368 H 0.19534 0.88189 0.25975 0.0
H1369 H 0.11296 0.79831 0.24646 0.0
H1370 H 0.15609 0.85122 0.20846 0.0
H1371 H 0.14311 0.83795 0.29777 0.0
C1372 C 0.16776 0.85769 0.30609 0.0
C1373 C 0.18307 0.86988 0.29579 0.0
C1374 C 0.14648 0.83974 0.21679 0.0
C1375 C 0.15645 0.84996 0.26228 0.0
C1376 C 0.13669 0.8263 0.20013 0.0
C1377 C 0.12474 0.81079 0.21042 0.0
C1378 C 0.14432 0.83766 0.24395 0.0
C1379 C 0.1222 0.80986 0.23762 0.0
C1380 C 0.15444 0.84773 0.28943 0.0
C1381 C 0.18394 0.87247 0.26859 0.0
N1382 N 0.13205 0.82298 0.25342 0.0
N1383 N 0.17095 0.86245 0.2528 0.0
H1384 H 0.8549 0.82837 0.67871 0.0
H1385 H 0.82737 0.85748 0.82585 0.0
H1386 H 0.88173 0.80043 0.74636 0.0
H1387 H 0.79816 0.88298 0.75823 0.0
H1388 H 0.85096 0.84012 0.79697 0.0
H1389 H 0.83759 0.85208 0.70744 0.0
C1390 C 0.85735 0.82735 0.69956 0.0
C1391 C 0.86959 0.8122 0.71013 0.0
C1392 C 0.8395 0.84968 0.78848 0.0
C1393 C 0.84973 0.83923 0.74316 0.0
C1394 C 0.82605 0.85963 0.80497 0.0
C1395 C 0.81058 0.8715 0.79447 0.0
C1396 C 0.83746 0.85158 0.76129 0.0
C1397 C 0.80969 0.8738 0.76723 0.0
C1398 C 0.84742 0.84088 0.71598 0.0
C1399 C 0.87227 0.8117 0.73732 0.0
N1400 N 0.8228 0.86378 0.7516 0.0
N1401 N 0.86227 0.82488 0.75289 0.0
H1402 H 0.19836 0.88323 0.74713 0.0
H1403 H 0.11216 0.80028 0.75892 0.0
H1404 H 0.16841 0.85653 0.68085 0.0
H1405 H 0.14212 0.82688 0.82526 0.0
H1406 H 0.12955 0.82388 0.73035 0.0
H1407 H 0.17494 0.86594 0.77608 0.0
C1408 C 0.18674 0.87389 0.73861 0.0
C1409 C 0.18553 0.87114 0.71148 0.0
C1410 C 0.13218 0.82471 0.75117 0.0
C1411 C 0.15869 0.85117 0.74465 0.0
C1412 C 0.12225 0.81122 0.76754 0.0
C1413 C 0.12587 0.81141 0.79455 0.0
C1414 C 0.14596 0.83846 0.76179 0.0
C1415 C 0.13896 0.82607 0.80456 0.0
C1416 C 0.17335 0.86401 0.7552 0.0
C1417 C 0.17002 0.85899 0.70163 0.0
N1418 N 0.1487 0.83886 0.78815 0.0
N1419 N 0.15734 0.84929 0.71822 0.0
H1420 H 0.11131 0.19764 0.74615 0.0
H1421 H 0.19433 0.11153 0.75831 0.0
H1422 H 0.13874 0.16815 0.68 0.0
H1423 H 0.1676 0.14161 0.82449 0.0
H1424 H 0.17074 0.12883 0.72963 0.0
H1425 H 0.12835 0.17408 0.77513 0.0
C1426 C 0.12076 0.18608 0.73766 0.0
C1427 C 0.1238 0.18506 0.71056 0.0
C1428 C 0.16988 0.13151 0.75044 0.0
C1429 C 0.14348 0.15805 0.74378 0.0
C1430 C 0.18336 0.12162 0.76688 0.0
C1431 C 0.18314 0.12532 0.79387 0.0
C1432 C 0.15612 0.1453 0.76099 0.0
C1433 C 0.16844 0.1384 0.80381 0.0
C1434 C 0.1305 0.17262 0.75427 0.0
C1435 C 0.13607 0.16962 0.70075 0.0
N1436 N 0.15566 0.14809 0.78734 0.0
N1437 N 0.14563 0.15686 0.71737 0.0
H1438 H 0.88437 0.1953 0.75866 0.0
H1439 H 0.7988 0.11184 0.7452 0.0
H1440 H 0.85467 0.16755 0.82442 0.0
H1441 H 0.82811 0.14003 0.67946 0.0
H1442 H 0.82222 0.12882 0.77443 0.0
H1443 H 0.86713 0.17196 0.72957 0.0
C1444 C 0.87438 0.18416 0.76705 0.0
C1445 C 0.87077 0.18358 0.79405 0.0
C1446 C 0.82367 0.13115 0.7536 0.0
C1447 C 0.85085 0.15684 0.76071 0.0
C1448 C 0.81028 0.12145 0.73685 0.0
C1449 C 0.8113 0.12471 0.7098 0.0
C1450 C 0.83815 0.14431 0.7433 0.0
C1451 C 0.82665 0.13718 0.70017 0.0
C1452 C 0.86453 0.17082 0.75038 0.0
C1453 C 0.85781 0.16867 0.80375 0.0
N1454 N 0.83933 0.14669 0.71693 0.0
N1455 N 0.84815 0.15604 0.78706 0.0
H1456 H 0.69632 0.61101 0.7467 0.0
H1457 H 0.61161 0.69549 0.75887 0.0
H1458 H 0.66792 0.63947 0.6805 0.0
H1459 H 0.64079 0.6678 0.82504 0.0
H1460 H 0.62881 0.67191 0.73007 0.0
H1461 H 0.67291 0.62836 0.77558 0.0
C1462 C 0.68503 0.62075 0.73817 0.0
C1463 C 0.68428 0.62398 0.7111 0.0
C1464 C 0.63131 0.67085 0.7509 0.0
C1465 C 0.65745 0.64402 0.74421 0.0
C1466 C 0.62149 0.68432 0.76741 0.0
C1467 C 0.62495 0.68382 0.79444 0.0
C1468 C 0.64481 0.65678 0.76143 0.0
C1469 C 0.63777 0.66886 0.80433 0.0
C1470 C 0.67165 0.63067 0.75473 0.0
C1471 C 0.66917 0.63663 0.70123 0.0
N1472 N 0.6474 0.65608 0.7878 0.0
N1473 N 0.6565 0.64636 0.71781 0.0
H1474 H 0.32901 0.63902 0.82499 0.0
H1475 H 0.35635 0.66678 0.67736 0.0
H1476 H 0.30008 0.61252 0.75781 0.0
H1477 H 0.38263 0.69593 0.74453 0.0
H1478 H 0.3393 0.6432 0.70652 0.0
H1479 H 0.35241 0.65633 0.79583 0.0
C1480 C 0.32771 0.63664 0.80415 0.0
C1481 C 0.31237 0.6245 0.79385 0.0
C1482 C 0.34896 0.65464 0.71486 0.0
C1483 C 0.33904 0.64436 0.76034 0.0
C1484 C 0.35873 0.6681 0.6982 0.0
C1485 C 0.37074 0.68355 0.7085 0.0
C1486 C 0.35117 0.65666 0.74201 0.0
C1487 C 0.37334 0.68442 0.73569 0.0
C1488 C 0.34106 0.64656 0.78749 0.0
C1489 C 0.31151 0.62191 0.76665 0.0
N1490 N 0.36349 0.6713 0.75149 0.0
N1491 N 0.32452 0.63191 0.75086 0.0
H1492 H 0.35715 0.32837 0.82718 0.0
H1493 H 0.33055 0.35631 0.67943 0.0
H1494 H 0.3844 0.29997 0.7601 0.0
H1495 H 0.30054 0.38195 0.7464 0.0
H1496 H 0.3541 0.33941 0.70878 0.0
H1497 H 0.34007 0.35193 0.798 0.0
C1498 C 0.35976 0.32723 0.80636 0.0
C1499 C 0.37201 0.31197 0.79608 0.0
C1500 C 0.34247 0.3489 0.71703 0.0
C1501 C 0.35242 0.33881 0.76256 0.0
C1502 C 0.32904 0.35859 0.70027 0.0
C1503 C 0.31336 0.37036 0.71045 0.0
C1504 C 0.34019 0.35096 0.74417 0.0
C1505 C 0.31224 0.37284 0.73764 0.0
C1506 C 0.34996 0.34066 0.7897 0.0
C1507 C 0.37489 0.31131 0.76892 0.0
N1508 N 0.32533 0.36306 0.75354 0.0
N1509 N 0.36502 0.3244 0.75312 0.0
H1510 H 0.63125 0.33128 0.67795 0.0
H1511 H 0.69682 0.38356 0.75806 0.0
H1512 H 0.61998 0.29479 0.7461 0.0
H1513 H 0.66668 0.35478 0.82271 0.0
H1514 H 0.67427 0.36668 0.72814 0.0
H1515 H 0.64837 0.35579 0.70538 0.0
C1516 C 0.63242 0.32841 0.6987 0.0
C1517 C 0.62448 0.31075 0.70962 0.0
C1518 C 0.67207 0.36437 0.74881 0.0
C1519 C 0.64479 0.33846 0.74123 0.0
C1520 C 0.68517 0.37395 0.76602 0.0
C1521 C 0.68379 0.37048 0.79299 0.0
C1522 C 0.65734 0.35119 0.75858 0.0
C1523 C 0.66837 0.35787 0.80208 0.0
C1524 C 0.64242 0.34236 0.71441 0.0
C1525 C 0.62609 0.30805 0.73672 0.0
N1526 N 0.65592 0.3485 0.78488 0.0
N1527 N 0.63621 0.32164 0.75151 0.0
H1528 H 0.3568 0.32702 0.17953 0.0
H1529 H 0.32887 0.35545 0.32678 0.0
H1530 H 0.38248 0.29786 0.24707 0.0
H1531 H 0.30046 0.38191 0.2592 0.0
H1532 H 0.35227 0.33783 0.2979 0.0
H1533 H 0.33972 0.35078 0.20843 0.0
C1534 C 0.35904 0.32574 0.2004 0.0
C1535 C 0.37089 0.31024 0.21088 0.0
C1536 C 0.34103 0.34765 0.28942 0.0
C1537 C 0.35129 0.33733 0.24408 0.0
C1538 C 0.32769 0.35775 0.30591 0.0
C1539 C 0.31249 0.36998 0.29541 0.0
C1540 C 0.33915 0.34977 0.26224 0.0
C1541 C 0.31177 0.37246 0.26819 0.0
C1542 C 0.34925 0.33929 0.2169 0.0
C1543 C 0.37331 0.30941 0.2381 0.0
N1544 N 0.32477 0.3623 0.25256 0.0
N1545 N 0.36345 0.32263 0.25374 0.0
H1546 H 0.63914 0.32897 0.32667 0.0
H1547 H 0.66616 0.35616 0.17879 0.0
H1548 H 0.61273 0.29958 0.25977 0.0
H1549 H 0.69521 0.38296 0.24568 0.0
H1550 H 0.64277 0.33903 0.20815 0.0
H1551 H 0.65606 0.35251 0.29732 0.0
C1552 C 0.6367 0.32759 0.30585 0.0
C1553 C 0.62471 0.31209 0.29568 0.0
C1554 C 0.65414 0.34882 0.21638 0.0
C1555 C 0.64412 0.33892 0.26196 0.0
C1556 C 0.66748 0.35865 0.19961 0.0
C1557 C 0.68286 0.37081 0.20978 0.0
C1558 C 0.65621 0.35115 0.24351 0.0
C1559 C 0.68375 0.37354 0.23694 0.0
C1560 C 0.6464 0.34102 0.28909 0.0
C1561 C 0.62203 0.31113 0.26851 0.0
N1562 N 0.67076 0.36364 0.25285 0.0
N1563 N 0.6318 0.32423 0.2526 0.0
H1564 H 0.69478 0.61025 0.25914 0.0
H1565 H 0.61067 0.69522 0.24641 0.0
H1566 H 0.66739 0.64003 0.3251 0.0
H1567 H 0.63918 0.66652 0.18045 0.0
H1568 H 0.6277 0.67169 0.27544 0.0
H1569 H 0.67104 0.62717 0.23028 0.0
C1570 C 0.68364 0.62019 0.26762 0.0
C1571 C 0.68328 0.62394 0.2946 0.0
C1572 C 0.63009 0.67039 0.25461 0.0
C1573 C 0.65609 0.64348 0.26152 0.0
C1574 C 0.62036 0.68384 0.23797 0.0
C1575 C 0.62372 0.68305 0.21092 0.0
C1576 C 0.64339 0.65609 0.2442 0.0
C1577 C 0.63626 0.66781 0.20116 0.0
C1578 C 0.67008 0.62986 0.25108 0.0
C1579 C 0.66835 0.63681 0.30443 0.0
N1580 N 0.64582 0.65508 0.21782 0.0
N1581 N 0.6555 0.6463 0.28786 0.0
H1582 H 0.30197 0.61157 0.24487 0.0
H1583 H 0.38414 0.69844 0.25755 0.0
H1584 H 0.3285 0.64205 0.17886 0.0
H1585 H 0.35733 0.66818 0.32354 0.0
H1586 H 0.36722 0.67491 0.22841 0.0
H1587 H 0.32537 0.62902 0.27367 0.0
C1588 C 0.31285 0.62179 0.23637 0.0
C1589 C 0.31307 0.62554 0.20939 0.0
C1590 C 0.36518 0.67327 0.24927 0.0
C1591 C 0.33988 0.6457 0.2424 0.0
C1592 C 0.37485 0.68672 0.26597 0.0
C1593 C 0.37195 0.68547 0.29308 0.0
C1594 C 0.35241 0.65849 0.25968 0.0
C1595 C 0.35988 0.66983 0.30279 0.0
C1596 C 0.32622 0.63175 0.25287 0.0
C1597 C 0.32766 0.63879 0.19953 0.0
N1598 N 0.35039 0.65709 0.28609 0.0
N1599 N 0.34033 0.64856 0.21606 0.0
loop_
_geom_bond_atom_site_label_1
_geom_bond_atom_site_label_2
_geom_bond_distance
_geom_bond_site_symmetry_2
_ccdc_geom_bond_type
O0 Cd1 2.223 . S
O0 C8 1.315 . S
Cd1 O0 2.223 . S
Cd1 O4 2.297 . S
Cd1 O5 2.439 . S
Cd1 O11 2.240 . S
Cd2 O3 2.240 . S
Cd2 O10 2.223 . S
Cd2 O12 2.297 . S
Cd2 O13 2.439 . S
O3 Cd2 2.240 . S
O3 C8 1.279 . S
O4 Cd1 2.297 . S
O4 C6 1.247 . S
O5 Cd1 2.439 . S
O5 C6 1.208 . S
C6 O4 1.247 . S
C6 O5 1.208 . S
C7 O12 1.247 . S
C7 O13 1.208 . S
C8 O0 1.315 . S
C8 O3 1.279 . S
C9 O10 1.315 . S
C9 O11 1.279 . S
O10 Cd2 2.223 . S
O10 C9 1.315 . S
O11 Cd1 2.240 . S
O11 C9 1.279 . S
O12 Cd2 2.297 . S
O12 C7 1.247 . S
O13 Cd2 2.439 . S
O13 C7 1.208 . S
O14 Cd15 2.223 . S
O14 C22 1.315 . S
Cd15 O14 2.223 . S
Cd15 O18 2.297 . S
Cd15 O19 2.439 . S
Cd15 O25 2.240 . S
Cd16 O17 2.240 . S
Cd16 O24 2.223 . S
Cd16 O26 2.297 . S
Cd16 O27 2.439 . S
O17 Cd16 2.240 . S
O17 C22 1.279 . S
O18 Cd15 2.297 . S
O18 C20 1.247 . S
O19 Cd15 2.439 . S
O19 C20 1.208 . S
C20 O18 1.247 . S
C20 O19 1.208 . S
C21 O26 1.247 . S
C21 O27 1.208 . S
C22 O14 1.315 . S
C22 O17 1.279 . S
C23 O24 1.315 . S
C23 O25 1.279 . S
O24 Cd16 2.223 . S
O24 C23 1.315 . S
O25 Cd15 2.240 . S
O25 C23 1.279 . S
O26 Cd16 2.297 . S
O26 C21 1.247 . S
O27 Cd16 2.439 . S
O27 C21 1.208 . S
O28 Cd29 2.223 . S
O28 C36 1.315 . S
Cd29 O28 2.223 . S
Cd29 O32 2.297 . S
Cd29 O33 2.439 . S
Cd29 O39 2.240 . S
Cd30 O31 2.240 . S
Cd30 O38 2.223 . S
Cd30 O40 2.297 . S
Cd30 O41 2.439 . S
O31 Cd30 2.240 . S
O31 C36 1.279 . S
O32 Cd29 2.297 . S
O32 C34 1.247 . S
O33 Cd29 2.439 . S
O33 C34 1.208 . S
C34 O32 1.247 . S
C34 O33 1.208 . S
C35 O40 1.247 . S
C35 O41 1.208 . S
C36 O28 1.315 . S
C36 O31 1.279 . S
C37 O38 1.315 . S
C37 O39 1.279 . S
O38 Cd30 2.223 . S
O38 C37 1.315 . S
O39 Cd29 2.240 . S
O39 C37 1.279 . S
O40 Cd30 2.297 . S
O40 C35 1.247 . S
O41 Cd30 2.439 . S
O41 C35 1.208 . S
O42 Cd43 2.223 . S
O42 C50 1.315 . S
Cd43 O42 2.223 . S
Cd43 O46 2.297 . S
Cd43 O47 2.439 . S
Cd43 O53 2.240 . S
Cd44 O45 2.240 . S
Cd44 O52 2.223 . S
Cd44 O54 2.297 . S
Cd44 O55 2.439 . S
O45 Cd44 2.240 . S
O45 C50 1.279 . S
O46 Cd43 2.297 . S
O46 C48 1.247 . S
O47 Cd43 2.439 . S
O47 C48 1.208 . S
C48 O46 1.247 . S
C48 O47 1.208 . S
C49 O54 1.247 . S
C49 O55 1.208 . S
C50 O42 1.315 . S
C50 O45 1.279 . S
C51 O52 1.315 . S
C51 O53 1.279 . S
O52 Cd44 2.223 . S
O52 C51 1.315 . S
O53 Cd43 2.240 . S
O53 C51 1.279 . S
O54 Cd44 2.297 . S
O54 C49 1.247 . S
O55 Cd44 2.439 . S
O55 C49 1.208 . S
O56 Cd57 2.223 . S
O56 C64 1.315 . S
Cd57 O56 2.223 . S
Cd57 O60 2.297 . S
Cd57 O61 2.439 . S
Cd57 O67 2.240 . S
Cd58 O59 2.240 . S
Cd58 O66 2.223 . S
Cd58 O68 2.297 . S
Cd58 O69 2.439 . S
O59 Cd58 2.240 . S
O59 C64 1.279 . S
O60 Cd57 2.297 . S
O60 C62 1.247 . S
O61 Cd57 2.439 . S
O61 C62 1.208 . S
C62 O60 1.247 . S
C62 O61 1.208 . S
C63 O68 1.247 . S
C63 O69 1.208 . S
C64 O56 1.315 . S
C64 O59 1.279 . S
C65 O66 1.315 . S
C65 O67 1.279 . S
O66 Cd58 2.223 . S
O66 C65 1.315 . S
O67 Cd57 2.240 . S
O67 C65 1.279 . S
O68 Cd58 2.297 . S
O68 C63 1.247 . S
O69 Cd58 2.439 . S
O69 C63 1.208 . S
O70 Cd71 2.223 . S
O70 C78 1.315 . S
Cd71 O70 2.223 . S
Cd71 O74 2.297 . S
Cd71 O75 2.439 . S
Cd71 O81 2.240 . S
Cd72 O73 2.240 . S
Cd72 O80 2.223 . S
Cd72 O82 2.297 . S
Cd72 O83 2.439 . S
O73 Cd72 2.240 . S
O73 C78 1.279 . S
O74 Cd71 2.297 . S
O74 C76 1.247 . S
O75 Cd71 2.439 . S
O75 C76 1.208 . S
C76 O74 1.247 . S
C76 O75 1.208 . S
C77 O82 1.247 . S
C77 O83 1.208 . S
C78 O70 1.315 . S
C78 O73 1.279 . S
C79 O80 1.315 . S
C79 O81 1.279 . S
O80 Cd72 2.223 . S
O80 C79 1.315 . S
O81 Cd71 2.240 . S
O81 C79 1.279 . S
O82 Cd72 2.297 . S
O82 C77 1.247 . S
O83 Cd72 2.439 . S
O83 C77 1.208 . S
O84 Cd85 2.223 . S
O84 C92 1.315 . S
Cd85 O84 2.223 . S
Cd85 O88 2.297 . S
Cd85 O89 2.439 . S
Cd85 O95 2.240 . S
Cd86 O87 2.240 . S
Cd86 O94 2.223 . S
Cd86 O96 2.297 . S
Cd86 O97 2.439 . S
O87 Cd86 2.240 . S
O87 C92 1.279 . S
O88 Cd85 2.297 . S
O88 C90 1.247 . S
O89 Cd85 2.439 . S
O89 C90 1.208 . S
C90 O88 1.247 . S
C90 O89 1.208 . S
C91 O96 1.247 . S
C91 O97 1.208 . S
C92 O84 1.315 . S
C92 O87 1.279 . S
C93 O94 1.315 . S
C93 O95 1.279 . S
O94 Cd86 2.223 . S
O94 C93 1.315 . S
O95 Cd85 2.240 . S
O95 C93 1.279 . S
O96 Cd86 2.297 . S
O96 C91 1.247 . S
O97 Cd86 2.439 . S
O97 C91 1.208 . S
O98 Cd99 2.223 . S
O98 C106 1.315 . S
Cd99 O98 2.223 . S
Cd99 O102 2.297 . S
Cd99 O103 2.439 . S
Cd99 O109 2.240 . S
Cd100 O101 2.240 . S
Cd100 O108 2.223 . S
Cd100 O110 2.297 . S
Cd100 O111 2.439 . S
O101 Cd100 2.240 . S
O101 C106 1.279 . S
O102 Cd99 2.297 . S
O102 C104 1.247 . S
O103 Cd99 2.439 . S
O103 C104 1.208 . S
C104 O102 1.247 . S
C104 O103 1.208 . S
C105 O110 1.247 . S
C105 O111 1.208 . S
C106 O98 1.315 . S
C106 O101 1.279 . S
C107 O108 1.315 . S
C107 O109 1.279 . S
O108 Cd100 2.223 . S
O108 C107 1.315 . S
O109 Cd99 2.240 . S
O109 C107 1.279 . S
O110 Cd100 2.297 . S
O110 C105 1.247 . S
O111 Cd100 2.439 . S
O111 C105 1.208 . S
O112 Cd113 2.223 . S
O112 C120 1.315 . S
Cd113 O112 2.223 . S
Cd113 O116 2.297 . S
Cd113 O117 2.439 . S
Cd113 O123 2.240 . S
Cd114 O115 2.240 . S
Cd114 O122 2.223 . S
Cd114 O124 2.297 . S
Cd114 O125 2.439 . S
O115 Cd114 2.240 . S
O115 C120 1.279 . S
O116 Cd113 2.297 . S
O116 C118 1.247 . S
O117 Cd113 2.439 . S
O117 C118 1.208 . S
C118 O116 1.247 . S
C118 O117 1.208 . S
C119 O124 1.247 . S
C119 O125 1.208 . S
C120 O112 1.315 . S
C120 O115 1.279 . S
C121 O122 1.315 . S
C121 O123 1.279 . S
O122 Cd114 2.223 . S
O122 C121 1.315 . S
O123 Cd113 2.240 . S
O123 C121 1.279 . S
O124 Cd114 2.297 . S
O124 C119 1.247 . S
O125 Cd114 2.439 . S
O125 C119 1.208 . S
O126 Cd127 2.223 . S
O126 C134 1.315 . S
Cd127 O126 2.223 . S
Cd127 O130 2.297 . S
Cd127 O131 2.439 . S
Cd127 O137 2.240 . S
Cd128 O129 2.240 . S
Cd128 O136 2.223 . S
Cd128 O138 2.297 . S
Cd128 O139 2.439 . S
O129 Cd128 2.240 . S
O129 C134 1.279 . S
O130 Cd127 2.297 . S
O130 C132 1.247 . S
O131 Cd127 2.439 . S
O131 C132 1.208 . S
C132 O130 1.247 . S
C132 O131 1.208 . S
C133 O138 1.247 . S
C133 O139 1.208 . S
C134 O126 1.315 . S
C134 O129 1.279 . S
C135 O136 1.315 . S
C135 O137 1.279 . S
O136 Cd128 2.223 . S
O136 C135 1.315 . S
O137 Cd127 2.240 . S
O137 C135 1.279 . S
O138 Cd128 2.297 . S
O138 C133 1.247 . S
O139 Cd128 2.439 . S
O139 C133 1.208 . S
O140 Cd141 2.223 . S
O140 C148 1.315 . S
Cd141 O140 2.223 . S
Cd141 O144 2.297 . S
Cd141 O145 2.439 . S
Cd141 O151 2.240 . S
Cd142 O143 2.240 . S
Cd142 O150 2.223 . S
Cd142 O152 2.297 . S
Cd142 O153 2.439 . S
O143 Cd142 2.240 . S
O143 C148 1.279 . S
O144 Cd141 2.297 . S
O144 C146 1.247 . S
O145 Cd141 2.439 . S
O145 C146 1.208 . S
C146 O144 1.247 . S
C146 O145 1.208 . S
C147 O152 1.247 . S
C147 O153 1.208 . S
C148 O140 1.315 . S
C148 O143 1.279 . S
C149 O150 1.315 . S
C149 O151 1.279 . S
O150 Cd142 2.223 . S
O150 C149 1.315 . S
O151 Cd141 2.240 . S
O151 C149 1.279 . S
O152 Cd142 2.297 . S
O152 C147 1.247 . S
O153 Cd142 2.439 . S
O153 C147 1.208 . S
O154 Cd155 2.223 . S
O154 C162 1.315 . S
Cd155 O154 2.223 . S
Cd155 O158 2.297 . S
Cd155 O159 2.439 . S
Cd155 O165 2.240 . S
Cd156 O157 2.240 . S
Cd156 O164 2.223 . S
Cd156 O166 2.297 . S
Cd156 O167 2.439 . S
O157 Cd156 2.240 . S
O157 C162 1.279 . S
O158 Cd155 2.297 . S
O158 C160 1.247 . S
O159 Cd155 2.439 . S
O159 C160 1.208 . S
C160 O158 1.247 . S
C160 O159 1.208 . S
C161 O166 1.247 . S
C161 O167 1.208 . S
C162 O154 1.315 . S
C162 O157 1.279 . S
C163 O164 1.315 . S
C163 O165 1.279 . S
O164 Cd156 2.223 . S
O164 C163 1.315 . S
O165 Cd155 2.240 . S
O165 C163 1.279 . S
O166 Cd156 2.297 . S
O166 C161 1.247 . S
O167 Cd156 2.439 . S
O167 C161 1.208 . S
O168 Cd169 2.223 . S
O168 C176 1.315 . S
Cd169 O168 2.223 . S
Cd169 O172 2.297 . S
Cd169 O173 2.439 . S
Cd169 O179 2.240 . S
Cd170 O171 2.240 . S
Cd170 O178 2.223 . S
Cd170 O180 2.297 . S
Cd170 O181 2.439 . S
O171 Cd170 2.240 . S
O171 C176 1.279 . S
O172 Cd169 2.297 . S
O172 C174 1.247 . S
O173 Cd169 2.439 . S
O173 C174 1.208 . S
C174 O172 1.247 . S
C174 O173 1.208 . S
C175 O180 1.247 . S
C175 O181 1.208 . S
C176 O168 1.315 . S
C176 O171 1.279 . S
C177 O178 1.315 . S
C177 O179 1.279 . S
O178 Cd170 2.223 . S
O178 C177 1.315 . S
O179 Cd169 2.240 . S
O179 C177 1.279 . S
O180 Cd170 2.297 . S
O180 C175 1.247 . S
O181 Cd170 2.439 . S
O181 C175 1.208 . S
O182 Cd183 2.223 . S
O182 C190 1.315 . S
Cd183 O182 2.223 . S
Cd183 O186 2.297 . S
Cd183 O187 2.439 . S
Cd183 O193 2.240 . S
Cd184 O185 2.240 . S
Cd184 O192 2.223 . S
Cd184 O194 2.297 . S
Cd184 O195 2.439 . S
O185 Cd184 2.240 . S
O185 C190 1.279 . S
O186 Cd183 2.297 . S
O186 C188 1.247 . S
O187 Cd183 2.439 . S
O187 C188 1.208 . S
C188 O186 1.247 . S
C188 O187 1.208 . S
C189 O194 1.247 . S
C189 O195 1.208 . S
C190 O182 1.315 . S
C190 O185 1.279 . S
C191 O192 1.315 . S
C191 O193 1.279 . S
O192 Cd184 2.223 . S
O192 C191 1.315 . S
O193 Cd183 2.240 . S
O193 C191 1.279 . S
O194 Cd184 2.297 . S
O194 C189 1.247 . S
O195 Cd184 2.439 . S
O195 C189 1.208 . S
O196 Cd197 2.223 . S
O196 C204 1.315 . S
Cd197 O196 2.223 . S
Cd197 O200 2.297 . S
Cd197 O201 2.439 . S
Cd197 O207 2.240 . S
Cd198 O199 2.240 . S
Cd198 O206 2.223 . S
Cd198 O208 2.297 . S
Cd198 O209 2.439 . S
O199 Cd198 2.240 . S
O199 C204 1.279 . S
O200 Cd197 2.297 . S
O200 C202 1.247 . S
O201 Cd197 2.439 . S
O201 C202 1.208 . S
C202 O200 1.247 . S
C202 O201 1.208 . S
C203 O208 1.247 . S
C203 O209 1.208 . S
C204 O196 1.315 . S
C204 O199 1.279 . S
C205 O206 1.315 . S
C205 O207 1.279 . S
O206 Cd198 2.223 . S
O206 C205 1.315 . S
O207 Cd197 2.240 . S
O207 C205 1.279 . S
O208 Cd198 2.297 . S
O208 C203 1.247 . S
O209 Cd198 2.439 . S
O209 C203 1.208 . S
O210 Cd211 2.223 . S
O210 C218 1.315 . S
Cd211 O210 2.223 . S
Cd211 O214 2.297 . S
Cd211 O215 2.439 . S
Cd211 O221 2.240 . S
Cd212 O213 2.240 . S
Cd212 O220 2.223 . S
Cd212 O222 2.297 . S
Cd212 O223 2.439 . S
O213 Cd212 2.240 . S
O213 C218 1.279 . S
O214 Cd211 2.297 . S
O214 C216 1.247 . S
O215 Cd211 2.439 . S
O215 C216 1.208 . S
C216 O214 1.247 . S
C216 O215 1.208 . S
C217 O222 1.247 . S
C217 O223 1.208 . S
C218 O210 1.315 . S
C218 O213 1.279 . S
C219 O220 1.315 . S
C219 O221 1.279 . S
O220 Cd212 2.223 . S
O220 C219 1.315 . S
O221 Cd211 2.240 . S
O221 C219 1.279 . S
O222 Cd212 2.297 . S
O222 C217 1.247 . S
O223 Cd212 2.439 . S
O223 C217 1.208 . S
O224 Cd225 2.223 . S
O224 C232 1.315 . S
Cd225 O224 2.223 . S
Cd225 O228 2.297 . S
Cd225 O229 2.439 . S
Cd225 O235 2.240 . S
Cd226 O227 2.240 . S
Cd226 O234 2.223 . S
Cd226 O236 2.297 . S
Cd226 O237 2.439 . S
O227 Cd226 2.240 . S
O227 C232 1.279 . S
O228 Cd225 2.297 . S
O228 C230 1.247 . S
O229 Cd225 2.439 . S
O229 C230 1.208 . S
C230 O228 1.247 . S
C230 O229 1.208 . S
C231 O236 1.247 . S
C231 O237 1.208 . S
C232 O224 1.315 . S
C232 O227 1.279 . S
C233 O234 1.315 . S
C233 O235 1.279 . S
O234 Cd226 2.223 . S
O234 C233 1.315 . S
O235 Cd225 2.240 . S
O235 C233 1.279 . S
O236 Cd226 2.297 . S
O236 C231 1.247 . S
O237 Cd226 2.439 . S
O237 C231 1.208 . S
O238 Cd239 2.223 . S
O238 C246 1.315 . S
Cd239 O238 2.223 . S
Cd239 O242 2.297 . S
Cd239 O243 2.439 . S
Cd239 O249 2.240 . S
Cd240 O241 2.240 . S
Cd240 O248 2.223 . S
Cd240 O250 2.297 . S
Cd240 O251 2.439 . S
O241 Cd240 2.240 . S
O241 C246 1.279 . S
O242 Cd239 2.297 . S
O242 C244 1.247 . S
O243 Cd239 2.439 . S
O243 C244 1.208 . S
C244 O242 1.247 . S
C244 O243 1.208 . S
C245 O250 1.247 . S
C245 O251 1.208 . S
C246 O238 1.315 . S
C246 O241 1.279 . S
C247 O248 1.315 . S
C247 O249 1.279 . S
O248 Cd240 2.223 . S
O248 C247 1.315 . S
O249 Cd239 2.240 . S
O249 C247 1.279 . S
O250 Cd240 2.297 . S
O250 C245 1.247 . S
O251 Cd240 2.439 . S
O251 C245 1.208 . S
O252 Cd253 2.223 . S
O252 C260 1.315 . S
Cd253 O252 2.223 . S
Cd253 O256 2.297 . S
Cd253 O257 2.439 . S
Cd253 O263 2.240 . S
Cd254 O255 2.240 . S
Cd254 O262 2.223 . S
Cd254 O264 2.297 . S
Cd254 O265 2.439 . S
O255 Cd254 2.240 . S
O255 C260 1.279 . S
O256 Cd253 2.297 . S
O256 C258 1.247 . S
O257 Cd253 2.439 . S
O257 C258 1.208 . S
C258 O256 1.247 . S
C258 O257 1.208 . S
C259 O264 1.247 . S
C259 O265 1.208 . S
C260 O252 1.315 . S
C260 O255 1.279 . S
C261 O262 1.315 . S
C261 O263 1.279 . S
O262 Cd254 2.223 . S
O262 C261 1.315 . S
O263 Cd253 2.240 . S
O263 C261 1.279 . S
O264 Cd254 2.297 . S
O264 C259 1.247 . S
O265 Cd254 2.439 . S
O265 C259 1.208 . S
O266 Cd267 2.223 . S
O266 C274 1.315 . S
Cd267 O266 2.223 . S
Cd267 O270 2.297 . S
Cd267 O271 2.439 . S
Cd267 O277 2.240 . S
Cd268 O269 2.240 . S
Cd268 O276 2.223 . S
Cd268 O278 2.297 . S
Cd268 O279 2.439 . S
O269 Cd268 2.240 . S
O269 C274 1.279 . S
O270 Cd267 2.297 . S
O270 C272 1.247 . S
O271 Cd267 2.439 . S
O271 C272 1.208 . S
C272 O270 1.247 . S
C272 O271 1.208 . S
C273 O278 1.247 . S
C273 O279 1.208 . S
C274 O266 1.315 . S
C274 O269 1.279 . S
C275 O276 1.315 . S
C275 O277 1.279 . S
O276 Cd268 2.223 . S
O276 C275 1.315 . S
O277 Cd267 2.240 . S
O277 C275 1.279 . S
O278 Cd268 2.297 . S
O278 C273 1.247 . S
O279 Cd268 2.439 . S
O279 C273 1.208 . S
O280 Cd281 2.223 . S
O280 C288 1.315 . S
Cd281 O280 2.223 . S
Cd281 O284 2.297 . S
Cd281 O285 2.439 . S
Cd281 O291 2.240 . S
Cd282 O283 2.240 . S
Cd282 O290 2.223 . S
Cd282 O292 2.297 . S
Cd282 O293 2.439 . S
O283 Cd282 2.240 . S
O283 C288 1.279 . S
O284 Cd281 2.297 . S
O284 C286 1.247 . S
O285 Cd281 2.439 . S
O285 C286 1.208 . S
C286 O284 1.247 . S
C286 O285 1.208 . S
C287 O292 1.247 . S
C287 O293 1.208 . S
C288 O280 1.315 . S
C288 O283 1.279 . S
C289 O290 1.315 . S
C289 O291 1.279 . S
O290 Cd282 2.223 . S
O290 C289 1.315 . S
O291 Cd281 2.240 . S
O291 C289 1.279 . S
O292 Cd282 2.297 . S
O292 C287 1.247 . S
O293 Cd282 2.439 . S
O293 C287 1.208 . S
O294 Cd295 2.223 . S
O294 C302 1.315 . S
Cd295 O294 2.223 . S
Cd295 O298 2.297 . S
Cd295 O299 2.439 . S
Cd295 O305 2.240 . S
Cd296 O297 2.240 . S
Cd296 O304 2.223 . S
Cd296 O306 2.297 . S
Cd296 O307 2.439 . S
O297 Cd296 2.240 . S
O297 C302 1.279 . S
O298 Cd295 2.297 . S
O298 C300 1.247 . S
O299 Cd295 2.439 . S
O299 C300 1.208 . S
C300 O298 1.247 . S
C300 O299 1.208 . S
C301 O306 1.247 . S
C301 O307 1.208 . S
C302 O294 1.315 . S
C302 O297 1.279 . S
C303 O304 1.315 . S
C303 O305 1.279 . S
O304 Cd296 2.223 . S
O304 C303 1.315 . S
O305 Cd295 2.240 . S
O305 C303 1.279 . S
O306 Cd296 2.297 . S
O306 C301 1.247 . S
O307 Cd296 2.439 . S
O307 C301 1.208 . S
O308 Cd309 2.223 . S
O308 C316 1.315 . S
Cd309 O308 2.223 . S
Cd309 O312 2.297 . S
Cd309 O313 2.439 . S
Cd309 O319 2.240 . S
Cd310 O311 2.240 . S
Cd310 O318 2.223 . S
Cd310 O320 2.297 . S
Cd310 O321 2.439 . S
O311 Cd310 2.240 . S
O311 C316 1.279 . S
O312 Cd309 2.297 . S
O312 C314 1.247 . S
O313 Cd309 2.439 . S
O313 C314 1.208 . S
C314 O312 1.247 . S
C314 O313 1.208 . S
C315 O320 1.247 . S
C315 O321 1.208 . S
C316 O308 1.315 . S
C316 O311 1.279 . S
C317 O318 1.315 . S
C317 O319 1.279 . S
O318 Cd310 2.223 . S
O318 C317 1.315 . S
O319 Cd309 2.240 . S
O319 C317 1.279 . S
O320 Cd310 2.297 . S
O320 C315 1.247 . S
O321 Cd310 2.439 . S
O321 C315 1.208 . S
O322 Cd323 2.223 . S
O322 C330 1.315 . S
Cd323 O322 2.223 . S
Cd323 O326 2.297 . S
Cd323 O327 2.439 . S
Cd323 O333 2.240 . S
Cd324 O325 2.240 . S
Cd324 O332 2.223 . S
Cd324 O334 2.297 . S
Cd324 O335 2.439 . S
O325 Cd324 2.240 . S
O325 C330 1.279 . S
O326 Cd323 2.297 . S
O326 C328 1.247 . S
O327 Cd323 2.439 . S
O327 C328 1.208 . S
C328 O326 1.247 . S
C328 O327 1.208 . S
C329 O334 1.247 . S
C329 O335 1.208 . S
C330 O322 1.315 . S
C330 O325 1.279 . S
C331 O332 1.315 . S
C331 O333 1.279 . S
O332 Cd324 2.223 . S
O332 C331 1.315 . S
O333 Cd323 2.240 . S
O333 C331 1.279 . S
O334 Cd324 2.297 . S
O334 C329 1.247 . S
O335 Cd324 2.439 . S
O335 C329 1.208 . S
O336 Cd337 2.223 . S
O336 C344 1.315 . S
Cd337 O336 2.223 . S
Cd337 O340 2.297 . S
Cd337 O341 2.439 . S
Cd337 O347 2.240 . S
Cd338 O339 2.240 . S
Cd338 O346 2.223 . S
Cd338 O348 2.297 . S
Cd338 O349 2.439 . S
O339 Cd338 2.240 . S
O339 C344 1.279 . S
O340 Cd337 2.297 . S
O340 C342 1.247 . S
O341 Cd337 2.439 . S
O341 C342 1.208 . S
C342 O340 1.247 . S
C342 O341 1.208 . S
C343 O348 1.247 . S
C343 O349 1.208 . S
C344 O336 1.315 . S
C344 O339 1.279 . S
C345 O346 1.315 . S
C345 O347 1.279 . S
O346 Cd338 2.223 . S
O346 C345 1.315 . S
O347 Cd337 2.240 . S
O347 C345 1.279 . S
O348 Cd338 2.297 . S
O348 C343 1.247 . S
O349 Cd338 2.439 . S
O349 C343 1.208 . S
O350 Cd351 2.223 . S
O350 C358 1.315 . S
Cd351 O350 2.223 . S
Cd351 O354 2.297 . S
Cd351 O355 2.439 . S
Cd351 O361 2.240 . S
Cd352 O353 2.240 . S
Cd352 O360 2.223 . S
Cd352 O362 2.297 . S
Cd352 O363 2.439 . S
O353 Cd352 2.240 . S
O353 C358 1.279 . S
O354 Cd351 2.297 . S
O354 C356 1.247 . S
O355 Cd351 2.439 . S
O355 C356 1.208 . S
C356 O354 1.247 . S
C356 O355 1.208 . S
C357 O362 1.247 . S
C357 O363 1.208 . S
C358 O350 1.315 . S
C358 O353 1.279 . S
C359 O360 1.315 . S
C359 O361 1.279 . S
O360 Cd352 2.223 . S
O360 C359 1.315 . S
O361 Cd351 2.240 . S
O361 C359 1.279 . S
O362 Cd352 2.297 . S
O362 C357 1.247 . S
O363 Cd352 2.439 . S
O363 C357 1.208 . S
O364 Cd365 2.223 . S
O364 C372 1.315 . S
Cd365 O364 2.223 . S
Cd365 O368 2.297 . S
Cd365 O369 2.439 . S
Cd365 O375 2.240 . S
Cd366 O367 2.240 . S
Cd366 O374 2.223 . S
Cd366 O376 2.297 . S
Cd366 O377 2.439 . S
O367 Cd366 2.240 . S
O367 C372 1.279 . S
O368 Cd365 2.297 . S
O368 C370 1.247 . S
O369 Cd365 2.439 . S
O369 C370 1.208 . S
C370 O368 1.247 . S
C370 O369 1.208 . S
C371 O376 1.247 . S
C371 O377 1.208 . S
C372 O364 1.315 . S
C372 O367 1.279 . S
C373 O374 1.315 . S
C373 O375 1.279 . S
O374 Cd366 2.223 . S
O374 C373 1.315 . S
O375 Cd365 2.240 . S
O375 C373 1.279 . S
O376 Cd366 2.297 . S
O376 C371 1.247 . S
O377 Cd366 2.439 . S
O377 C371 1.208 . S
O378 Cd379 2.223 . S
O378 C386 1.315 . S
Cd379 O378 2.223 . S
Cd379 O382 2.297 . S
Cd379 O383 2.439 . S
Cd379 O389 2.240 . S
Cd380 O381 2.240 . S
Cd380 O388 2.223 . S
Cd380 O390 2.297 . S
Cd380 O391 2.439 . S
O381 Cd380 2.240 . S
O381 C386 1.279 . S
O382 Cd379 2.297 . S
O382 C384 1.247 . S
O383 Cd379 2.439 . S
O383 C384 1.208 . S
C384 O382 1.247 . S
C384 O383 1.208 . S
C385 O390 1.247 . S
C385 O391 1.208 . S
C386 O378 1.315 . S
C386 O381 1.279 . S
C387 O388 1.315 . S
C387 O389 1.279 . S
O388 Cd380 2.223 . S
O388 C387 1.315 . S
O389 Cd379 2.240 . S
O389 C387 1.279 . S
O390 Cd380 2.297 . S
O390 C385 1.247 . S
O391 Cd380 2.439 . S
O391 C385 1.208 . S
O392 Cd393 2.223 . S
O392 C400 1.315 . S
Cd393 O392 2.223 . S
Cd393 O396 2.297 . S
Cd393 O397 2.439 . S
Cd393 O403 2.240 . S
Cd394 O395 2.240 . S
Cd394 O402 2.223 . S
Cd394 O404 2.297 . S
Cd394 O405 2.439 . S
O395 Cd394 2.240 . S
O395 C400 1.279 . S
O396 Cd393 2.297 . S
O396 C398 1.247 . S
O397 Cd393 2.439 . S
O397 C398 1.208 . S
C398 O396 1.247 . S
C398 O397 1.208 . S
C399 O404 1.247 . S
C399 O405 1.208 . S
C400 O392 1.315 . S
C400 O395 1.279 . S
C401 O402 1.315 . S
C401 O403 1.279 . S
O402 Cd394 2.223 . S
O402 C401 1.315 . S
O403 Cd393 2.240 . S
O403 C401 1.279 . S
O404 Cd394 2.297 . S
O404 C399 1.247 . S
O405 Cd394 2.439 . S
O405 C399 1.208 . S
O406 Cd407 2.223 . S
O406 C414 1.315 . S
Cd407 O406 2.223 . S
Cd407 O410 2.297 . S
Cd407 O411 2.439 . S
Cd407 O417 2.240 . S
Cd408 O409 2.240 . S
Cd408 O416 2.223 . S
Cd408 O418 2.297 . S
Cd408 O419 2.439 . S
O409 Cd408 2.240 . S
O409 C414 1.279 . S
O410 Cd407 2.297 . S
O410 C412 1.247 . S
O411 Cd407 2.439 . S
O411 C412 1.208 . S
C412 O410 1.247 . S
C412 O411 1.208 . S
C413 O418 1.247 . S
C413 O419 1.208 . S
C414 O406 1.315 . S
C414 O409 1.279 . S
C415 O416 1.315 . S
C415 O417 1.279 . S
O416 Cd408 2.223 . S
O416 C415 1.315 . S
O417 Cd407 2.240 . S
O417 C415 1.279 . S
O418 Cd408 2.297 . S
O418 C413 1.247 . S
O419 Cd408 2.439 . S
O419 C413 1.208 . S
O420 Cd421 2.223 . S
O420 C428 1.315 . S
Cd421 O420 2.223 . S
Cd421 O424 2.297 . S
Cd421 O425 2.439 . S
Cd421 O431 2.240 . S
Cd422 O423 2.240 . S
Cd422 O430 2.223 . S
Cd422 O432 2.297 . S
Cd422 O433 2.439 . S
O423 Cd422 2.240 . S
O423 C428 1.279 . S
O424 Cd421 2.297 . S
O424 C426 1.247 . S
O425 Cd421 2.439 . S
O425 C426 1.208 . S
C426 O424 1.247 . S
C426 O425 1.208 . S
C427 O432 1.247 . S
C427 O433 1.208 . S
C428 O420 1.315 . S
C428 O423 1.279 . S
C429 O430 1.315 . S
C429 O431 1.279 . S
O430 Cd422 2.223 . S
O430 C429 1.315 . S
O431 Cd421 2.240 . S
O431 C429 1.279 . S
O432 Cd422 2.297 . S
O432 C427 1.247 . S
O433 Cd422 2.439 . S
O433 C427 1.208 . S
O434 Cd435 2.223 . S
O434 C442 1.315 . S
Cd435 O434 2.223 . S
Cd435 O438 2.297 . S
Cd435 O439 2.439 . S
Cd435 O445 2.240 . S
Cd436 O437 2.240 . S
Cd436 O444 2.223 . S
Cd436 O446 2.297 . S
Cd436 O447 2.439 . S
O437 Cd436 2.240 . S
O437 C442 1.279 . S
O438 Cd435 2.297 . S
O438 C440 1.247 . S
O439 Cd435 2.439 . S
O439 C440 1.208 . S
C440 O438 1.247 . S
C440 O439 1.208 . S
C441 O446 1.247 . S
C441 O447 1.208 . S
C442 O434 1.315 . S
C442 O437 1.279 . S
C443 O444 1.315 . S
C443 O445 1.279 . S
O444 Cd436 2.223 . S
O444 C443 1.315 . S
O445 Cd435 2.240 . S
O445 C443 1.279 . S
O446 Cd436 2.297 . S
O446 C441 1.247 . S
O447 Cd436 2.439 . S
O447 C441 1.208 . S
H448 C454 0.930 . S
H449 C458 0.930 . S
H450 C463 0.929 . S
H451 C461 0.929 . S
H452 C456 0.929 . S
H453 C462 0.929 . S
C454 H448 0.930 . S
C454 C455 1.367 . S
C454 C462 1.378 . S
C455 C454 1.367 . S
C455 C463 1.433 . S
C456 H452 0.929 . S
C456 C458 1.378 . S
C456 C460 1.350 . S
C457 C460 1.463 . S
C457 C462 1.350 . S
C457 N465 1.427 . S
C458 H449 0.930 . S
C458 C456 1.378 . S
C458 C459 1.367 . S
C459 C458 1.367 . S
C459 C461 1.433 . S
C460 C456 1.350 . S
C460 C457 1.463 . S
C460 N464 1.427 . S
C461 H451 0.929 . S
C461 C459 1.433 . S
C461 N464 1.384 . S
C462 H453 0.929 . S
C462 C454 1.378 . S
C462 C457 1.350 . S
C463 H450 0.929 . S
C463 C455 1.433 . S
C463 N465 1.384 . S
N464 C460 1.427 . S
N464 C461 1.384 . S
N465 C457 1.427 . S
N465 C463 1.384 . S
H466 C472 0.930 . S
H467 C476 0.930 . S
H468 C481 0.929 . S
H469 C479 0.929 . S
H470 C474 0.929 . S
H471 C480 0.929 . S
C472 H466 0.930 . S
C472 C473 1.367 . S
C472 C480 1.378 . S
C473 C472 1.367 . S
C473 C481 1.433 . S
C474 H470 0.929 . S
C474 C476 1.378 . S
C474 C478 1.350 . S
C475 C478 1.463 . S
C475 C480 1.350 . S
C475 N483 1.427 . S
C476 H467 0.930 . S
C476 C474 1.378 . S
C476 C477 1.367 . S
C477 C476 1.367 . S
C477 C479 1.433 . S
C478 C474 1.350 . S
C478 C475 1.463 . S
C478 N482 1.427 . S
C479 H469 0.929 . S
C479 C477 1.433 . S
C479 N482 1.384 . S
C480 H471 0.929 . S
C480 C472 1.378 . S
C480 C475 1.350 . S
C481 H468 0.929 . S
C481 C473 1.433 . S
C481 N483 1.384 . S
N482 C478 1.427 . S
N482 C479 1.384 . S
N483 C475 1.427 . S
N483 C481 1.384 . S
H484 C490 0.930 . S
H485 C494 0.930 . S
H486 C499 0.929 . S
H487 C497 0.929 . S
H488 C492 0.929 . S
H489 C498 0.929 . S
C490 H484 0.930 . S
C490 C491 1.367 . S
C490 C498 1.378 . S
C491 C490 1.367 . S
C491 C499 1.433 . S
C492 H488 0.929 . S
C492 C494 1.378 . S
C492 C496 1.350 . S
C493 C496 1.463 . S
C493 C498 1.350 . S
C493 N501 1.427 . S
C494 H485 0.930 . S
C494 C492 1.378 . S
C494 C495 1.367 . S
C495 C494 1.367 . S
C495 C497 1.433 . S
C496 C492 1.350 . S
C496 C493 1.463 . S
C496 N500 1.427 . S
C497 H487 0.929 . S
C497 C495 1.433 . S
C497 N500 1.384 . S
C498 H489 0.929 . S
C498 C490 1.378 . S
C498 C493 1.350 . S
C499 H486 0.929 . S
C499 C491 1.433 . S
C499 N501 1.384 . S
N500 C496 1.427 . S
N500 C497 1.384 . S
N501 C493 1.427 . S
N501 C499 1.384 . S
H502 C508 0.930 . S
H503 C512 0.930 . S
H504 C517 0.929 . S
H505 C515 0.929 . S
H506 C510 0.929 . S
H507 C516 0.929 . S
C508 H502 0.930 . S
C508 C509 1.367 . S
C508 C516 1.378 . S
C509 C508 1.367 . S
C509 C517 1.433 . S
C510 H506 0.929 . S
C510 C512 1.378 . S
C510 C514 1.350 . S
C511 C514 1.463 . S
C511 C516 1.350 . S
C511 N519 1.427 . S
C512 H503 0.930 . S
C512 C510 1.378 . S
C512 C513 1.367 . S
C513 C512 1.367 . S
C513 C515 1.433 . S
C514 C510 1.350 . S
C514 C511 1.463 . S
C514 N518 1.427 . S
C515 H505 0.929 . S
C515 C513 1.433 . S
C515 N518 1.384 . S
C516 H507 0.929 . S
C516 C508 1.378 . S
C516 C511 1.350 . S
C517 H504 0.929 . S
C517 C509 1.433 . S
C517 N519 1.384 . S
N518 C514 1.427 . S
N518 C515 1.384 . S
N519 C511 1.427 . S
N519 C517 1.384 . S
H520 C526 0.930 . S
H521 C530 0.930 . S
H522 C535 0.929 . S
H523 C533 0.929 . S
H524 C528 0.929 . S
H525 C534 0.929 . S
C526 H520 0.930 . S
C526 C527 1.367 . S
C526 C534 1.378 . S
C527 C526 1.367 . S
C527 C535 1.433 . S
C528 H524 0.929 . S
C528 C530 1.378 . S
C528 C532 1.350 . S
C529 C532 1.463 . S
C529 C534 1.350 . S
C529 N537 1.427 . S
C530 H521 0.930 . S
C530 C528 1.378 . S
C530 C531 1.367 . S
C531 C530 1.367 . S
C531 C533 1.433 . S
C532 C528 1.350 . S
C532 C529 1.463 . S
C532 N536 1.427 . S
C533 H523 0.929 . S
C533 C531 1.433 . S
C533 N536 1.384 . S
C534 H525 0.929 . S
C534 C526 1.378 . S
C534 C529 1.350 . S
C535 H522 0.929 . S
C535 C527 1.433 . S
C535 N537 1.384 . S
N536 C532 1.427 . S
N536 C533 1.384 . S
N537 C529 1.427 . S
N537 C535 1.384 . S
H538 C544 0.930 . S
H539 C548 0.930 . S
H540 C553 0.929 . S
H541 C551 0.929 . S
H542 C546 0.929 . S
H543 C552 0.929 . S
C544 H538 0.930 . S
C544 C545 1.367 . S
C544 C552 1.378 . S
C545 C544 1.367 . S
C545 C553 1.433 . S
C546 H542 0.929 . S
C546 C548 1.378 . S
C546 C550 1.350 . S
C547 C550 1.463 . S
C547 C552 1.350 . S
C547 N555 1.427 . S
C548 H539 0.930 . S
C548 C546 1.378 . S
C548 C549 1.367 . S
C549 C548 1.367 . S
C549 C551 1.433 . S
C550 C546 1.350 . S
C550 C547 1.463 . S
C550 N554 1.427 . S
C551 H541 0.929 . S
C551 C549 1.433 . S
C551 N554 1.384 . S
C552 H543 0.929 . S
C552 C544 1.378 . S
C552 C547 1.350 . S
C553 H540 0.929 . S
C553 C545 1.433 . S
C553 N555 1.384 . S
N554 C550 1.427 . S
N554 C551 1.384 . S
N555 C547 1.427 . S
N555 C553 1.384 . S
H556 C562 0.930 . S
H557 C566 0.930 . S
H558 C571 0.929 . S
H559 C569 0.929 . S
H560 C564 0.929 . S
H561 C570 0.929 . S
C562 H556 0.930 . S
C562 C563 1.367 . S
C562 C570 1.378 . S
C563 C562 1.367 . S
C563 C571 1.433 . S
C564 H560 0.929 . S
C564 C566 1.378 . S
C564 C568 1.350 . S
C565 C568 1.463 . S
C565 C570 1.350 . S
C565 N573 1.427 . S
C566 H557 0.930 . S
C566 C564 1.378 . S
C566 C567 1.367 . S
C567 C566 1.367 . S
C567 C569 1.433 . S
C568 C564 1.350 . S
C568 C565 1.463 . S
C568 N572 1.427 . S
C569 H559 0.929 . S
C569 C567 1.433 . S
C569 N572 1.384 . S
C570 H561 0.929 . S
C570 C562 1.378 . S
C570 C565 1.350 . S
C571 H558 0.929 . S
C571 C563 1.433 . S
C571 N573 1.384 . S
N572 C568 1.427 . S
N572 C569 1.384 . S
N573 C565 1.427 . S
N573 C571 1.384 . S
H574 C580 0.930 . S
H575 C584 0.930 . S
H576 C589 0.929 . S
H577 C587 0.929 . S
H578 C582 0.929 . S
H579 C588 0.929 . S
C580 H574 0.930 . S
C580 C581 1.367 . S
C580 C588 1.378 . S
C581 C580 1.367 . S
C581 C589 1.433 . S
C582 H578 0.929 . S
C582 C584 1.378 . S
C582 C586 1.350 . S
C583 C586 1.463 . S
C583 C588 1.350 . S
C583 N591 1.427 . S
C584 H575 0.930 . S
C584 C582 1.378 . S
C584 C585 1.367 . S
C585 C584 1.367 . S
C585 C587 1.433 . S
C586 C582 1.350 . S
C586 C583 1.463 . S
C586 N590 1.427 . S
C587 H577 0.929 . S
C587 C585 1.433 . S
C587 N590 1.384 . S
C588 H579 0.929 . S
C588 C580 1.378 . S
C588 C583 1.350 . S
C589 H576 0.929 . S
C589 C581 1.433 . S
C589 N591 1.384 . S
N590 C586 1.427 . S
N590 C587 1.384 . S
N591 C583 1.427 . S
N591 C589 1.384 . S
H592 C598 0.930 . S
H593 C602 0.930 . S
H594 C607 0.929 . S
H595 C605 0.929 . S
H596 C600 0.929 . S
H597 C606 0.929 . S
C598 H592 0.930 . S
C598 C599 1.367 . S
C598 C606 1.378 . S
C599 C598 1.367 . S
C599 C607 1.433 . S
C600 H596 0.929 . S
C600 C602 1.378 . S
C600 C604 1.350 . S
C601 C604 1.463 . S
C601 C606 1.350 . S
C601 N609 1.427 . S
C602 H593 0.930 . S
C602 C600 1.378 . S
C602 C603 1.367 . S
C603 C602 1.367 . S
C603 C605 1.433 . S
C604 C600 1.350 . S
C604 C601 1.463 . S
C604 N608 1.427 . S
C605 H595 0.929 . S
C605 C603 1.433 . S
C605 N608 1.384 . S
C606 H597 0.929 . S
C606 C598 1.378 . S
C606 C601 1.350 . S
C607 H594 0.929 . S
C607 C599 1.433 . S
C607 N609 1.384 . S
N608 C604 1.427 . S
N608 C605 1.384 . S
N609 C601 1.427 . S
N609 C607 1.384 . S
H610 C616 0.930 . S
H611 C620 0.930 . S
H612 C625 0.929 . S
H613 C623 0.929 . S
H614 C618 0.929 . S
H615 C624 0.929 . S
C616 H610 0.930 . S
C616 C617 1.367 . S
C616 C624 1.378 . S
C617 C616 1.367 . S
C617 C625 1.433 . S
C618 H614 0.929 . S
C618 C620 1.378 . S
C618 C622 1.350 . S
C619 C622 1.463 . S
C619 C624 1.350 . S
C619 N627 1.427 . S
C620 H611 0.930 . S
C620 C618 1.378 . S
C620 C621 1.367 . S
C621 C620 1.367 . S
C621 C623 1.433 . S
C622 C618 1.350 . S
C622 C619 1.463 . S
C622 N626 1.427 . S
C623 H613 0.929 . S
C623 C621 1.433 . S
C623 N626 1.384 . S
C624 H615 0.929 . S
C624 C616 1.378 . S
C624 C619 1.350 . S
C625 H612 0.929 . S
C625 C617 1.433 . S
C625 N627 1.384 . S
N626 C622 1.427 . S
N626 C623 1.384 . S
N627 C619 1.427 . S
N627 C625 1.384 . S
H628 C634 0.930 . S
H629 C638 0.930 . S
H630 C643 0.929 . S
H631 C641 0.929 . S
H632 C636 0.929 . S
H633 C642 0.929 . S
C634 H628 0.930 . S
C634 C635 1.367 . S
C634 C642 1.378 . S
C635 C634 1.367 . S
C635 C643 1.433 . S
C636 H632 0.929 . S
C636 C638 1.378 . S
C636 C640 1.350 . S
C637 C640 1.463 . S
C637 C642 1.350 . S
C637 N645 1.427 . S
C638 H629 0.930 . S
C638 C636 1.378 . S
C638 C639 1.367 . S
C639 C638 1.367 . S
C639 C641 1.433 . S
C640 C636 1.350 . S
C640 C637 1.463 . S
C640 N644 1.427 . S
C641 H631 0.929 . S
C641 C639 1.433 . S
C641 N644 1.384 . S
C642 H633 0.929 . S
C642 C634 1.378 . S
C642 C637 1.350 . S
C643 H630 0.929 . S
C643 C635 1.433 . S
C643 N645 1.384 . S
N644 C640 1.427 . S
N644 C641 1.384 . S
N645 C637 1.427 . S
N645 C643 1.384 . S
H646 C652 0.930 . S
H647 C656 0.930 . S
H648 C661 0.929 . S
H649 C659 0.929 . S
H650 C654 0.929 . S
H651 C660 0.929 . S
C652 H646 0.930 . S
C652 C653 1.367 . S
C652 C660 1.378 . S
C653 C652 1.367 . S
C653 C661 1.433 . S
C654 H650 0.929 . S
C654 C656 1.378 . S
C654 C658 1.350 . S
C655 C658 1.463 . S
C655 C660 1.350 . S
C655 N663 1.427 . S
C656 H647 0.930 . S
C656 C654 1.378 . S
C656 C657 1.367 . S
C657 C656 1.367 . S
C657 C659 1.433 . S
C658 C654 1.350 . S
C658 C655 1.463 . S
C658 N662 1.427 . S
C659 H649 0.929 . S
C659 C657 1.433 . S
C659 N662 1.384 . S
C660 H651 0.929 . S
C660 C652 1.378 . S
C660 C655 1.350 . S
C661 H648 0.929 . S
C661 C653 1.433 . S
C661 N663 1.384 . S
N662 C658 1.427 . S
N662 C659 1.384 . S
N663 C655 1.427 . S
N663 C661 1.384 . S
H664 C670 0.930 . S
H665 C674 0.930 . S
H666 C679 0.929 . S
H667 C677 0.929 . S
H668 C672 0.929 . S
H669 C678 0.929 . S
C670 H664 0.930 . S
C670 C671 1.367 . S
C670 C678 1.378 . S
C671 C670 1.367 . S
C671 C679 1.433 . S
C672 H668 0.929 . S
C672 C674 1.378 . S
C672 C676 1.350 . S
C673 C676 1.463 . S
C673 C678 1.350 . S
C673 N681 1.427 . S
C674 H665 0.930 . S
C674 C672 1.378 . S
C674 C675 1.367 . S
C675 C674 1.367 . S
C675 C677 1.433 . S
C676 C672 1.350 . S
C676 C673 1.463 . S
C676 N680 1.427 . S
C677 H667 0.929 . S
C677 C675 1.433 . S
C677 N680 1.384 . S
C678 H669 0.929 . S
C678 C670 1.378 . S
C678 C673 1.350 . S
C679 H666 0.929 . S
C679 C671 1.433 . S
C679 N681 1.384 . S
N680 C676 1.427 . S
N680 C677 1.384 . S
N681 C673 1.427 . S
N681 C679 1.384 . S
H682 C688 0.930 . S
H683 C692 0.930 . S
H684 C697 0.929 . S
H685 C695 0.929 . S
H686 C690 0.929 . S
H687 C696 0.929 . S
C688 H682 0.930 . S
C688 C689 1.367 . S
C688 C696 1.378 . S
C689 C688 1.367 . S
C689 C697 1.433 . S
C690 H686 0.929 . S
C690 C692 1.378 . S
C690 C694 1.350 . S
C691 C694 1.463 . S
C691 C696 1.350 . S
C691 N699 1.427 . S
C692 H683 0.930 . S
C692 C690 1.378 . S
C692 C693 1.367 . S
C693 C692 1.367 . S
C693 C695 1.433 . S
C694 C690 1.350 . S
C694 C691 1.463 . S
C694 N698 1.427 . S
C695 H685 0.929 . S
C695 C693 1.433 . S
C695 N698 1.384 . S
C696 H687 0.929 . S
C696 C688 1.378 . S
C696 C691 1.350 . S
C697 H684 0.929 . S
C697 C689 1.433 . S
C697 N699 1.384 . S
N698 C694 1.427 . S
N698 C695 1.384 . S
N699 C691 1.427 . S
N699 C697 1.384 . S
H700 C706 0.930 . S
H701 C710 0.930 . S
H702 C715 0.929 . S
H703 C713 0.929 . S
H704 C708 0.929 . S
H705 C714 0.929 . S
C706 H700 0.930 . S
C706 C707 1.367 . S
C706 C714 1.378 . S
C707 C706 1.367 . S
C707 C715 1.433 . S
C708 H704 0.929 . S
C708 C710 1.378 . S
C708 C712 1.350 . S
C709 C712 1.463 . S
C709 C714 1.350 . S
C709 N717 1.427 . S
C710 H701 0.930 . S
C710 C708 1.378 . S
C710 C711 1.367 . S
C711 C710 1.367 . S
C711 C713 1.433 . S
C712 C708 1.350 . S
C712 C709 1.463 . S
C712 N716 1.427 . S
C713 H703 0.929 . S
C713 C711 1.433 . S
C713 N716 1.384 . S
C714 H705 0.929 . S
C714 C706 1.378 . S
C714 C709 1.350 . S
C715 H702 0.929 . S
C715 C707 1.433 . S
C715 N717 1.384 . S
N716 C712 1.427 . S
N716 C713 1.384 . S
N717 C709 1.427 . S
N717 C715 1.384 . S
H718 C724 0.930 . S
H719 C728 0.930 . S
H720 C733 0.929 . S
H721 C731 0.929 . S
H722 C726 0.929 . S
H723 C732 0.929 . S
C724 H718 0.930 . S
C724 C725 1.367 . S
C724 C732 1.378 . S
C725 C724 1.367 . S
C725 C733 1.433 . S
C726 H722 0.929 . S
C726 C728 1.378 . S
C726 C730 1.350 . S
C727 C730 1.463 . S
C727 C732 1.350 . S
C727 N735 1.427 . S
C728 H719 0.930 . S
C728 C726 1.378 . S
C728 C729 1.367 . S
C729 C728 1.367 . S
C729 C731 1.433 . S
C730 C726 1.350 . S
C730 C727 1.463 . S
C730 N734 1.427 . S
C731 H721 0.929 . S
C731 C729 1.433 . S
C731 N734 1.384 . S
C732 H723 0.929 . S
C732 C724 1.378 . S
C732 C727 1.350 . S
C733 H720 0.929 . S
C733 C725 1.433 . S
C733 N735 1.384 . S
N734 C730 1.427 . S
N734 C731 1.384 . S
N735 C727 1.427 . S
N735 C733 1.384 . S
H736 C742 0.930 . S
H737 C746 0.930 . S
H738 C751 0.929 . S
H739 C749 0.929 . S
H740 C744 0.929 . S
H741 C750 0.929 . S
C742 H736 0.930 . S
C742 C743 1.367 . S
C742 C750 1.378 . S
C743 C742 1.367 . S
C743 C751 1.433 . S
C744 H740 0.929 . S
C744 C746 1.378 . S
C744 C748 1.350 . S
C745 C748 1.463 1_554 S
C745 C750 1.350 . S
C745 N753 1.427 . S
C746 H737 0.930 . S
C746 C744 1.378 . S
C746 C747 1.367 . S
C747 C746 1.367 . S
C747 C749 1.433 . S
C748 C744 1.350 . S
C748 C745 1.463 1_556 S
C748 N752 1.427 . S
C749 H739 0.929 . S
C749 C747 1.433 . S
C749 N752 1.384 . S
C750 H741 0.929 . S
C750 C742 1.378 . S
C750 C745 1.350 . S
C751 H738 0.929 . S
C751 C743 1.433 . S
C751 N753 1.384 . S
N752 C748 1.427 . S
N752 C749 1.384 . S
N753 C745 1.427 . S
N753 C751 1.384 . S
H754 C760 0.930 . S
H755 C764 0.930 . S
H756 C769 0.929 . S
H757 C767 0.929 . S
H758 C762 0.929 . S
H759 C768 0.929 . S
C760 H754 0.930 . S
C760 C761 1.367 . S
C760 C768 1.378 . S
C761 C760 1.367 . S
C761 C769 1.433 . S
C762 H758 0.929 . S
C762 C764 1.378 . S
C762 C766 1.350 . S
C763 C766 1.463 1_556 S
C763 C768 1.350 . S
C763 N771 1.427 . S
C764 H755 0.930 . S
C764 C762 1.378 . S
C764 C765 1.367 . S
C765 C764 1.367 . S
C765 C767 1.433 . S
C766 C762 1.350 . S
C766 C763 1.463 1_554 S
C766 N770 1.427 . S
C767 H757 0.929 . S
C767 C765 1.433 . S
C767 N770 1.384 . S
C768 H759 0.929 . S
C768 C760 1.378 . S
C768 C763 1.350 . S
C769 H756 0.929 . S
C769 C761 1.433 . S
C769 N771 1.384 . S
N770 C766 1.427 . S
N770 C767 1.384 . S
N771 C763 1.427 . S
N771 C769 1.384 . S
H772 C778 0.930 . S
H773 C782 0.930 . S
H774 C787 0.929 . S
H775 C785 0.929 . S
H776 C780 0.929 . S
H777 C786 0.929 . S
C778 H772 0.930 . S
C778 C779 1.367 . S
C778 C786 1.378 . S
C779 C778 1.367 . S
C779 C787 1.433 . S
C780 H776 0.929 . S
C780 C782 1.378 . S
C780 C784 1.350 . S
C781 C784 1.463 1_556 S
C781 C786 1.350 . S
C781 N789 1.427 . S
C782 H773 0.930 . S
C782 C780 1.378 . S
C782 C783 1.367 . S
C783 C782 1.367 . S
C783 C785 1.433 . S
C784 C780 1.350 . S
C784 C781 1.463 1_554 S
C784 N788 1.427 . S
C785 H775 0.929 . S
C785 C783 1.433 . S
C785 N788 1.384 . S
C786 H777 0.929 . S
C786 C778 1.378 . S
C786 C781 1.350 . S
C787 H774 0.929 . S
C787 C779 1.433 . S
C787 N789 1.384 . S
N788 C784 1.427 . S
N788 C785 1.384 . S
N789 C781 1.427 . S
N789 C787 1.384 . S
H790 C796 0.930 . S
H791 C800 0.930 . S
H792 C805 0.929 . S
H793 C803 0.929 . S
H794 C798 0.929 . S
H795 C804 0.929 . S
C796 H790 0.930 . S
C796 C797 1.367 . S
C796 C804 1.378 . S
C797 C796 1.367 . S
C797 C805 1.433 . S
C798 H794 0.929 . S
C798 C800 1.378 . S
C798 C802 1.350 . S
C799 C802 1.463 1_556 S
C799 C804 1.350 . S
C799 N807 1.427 . S
C800 H791 0.930 . S
C800 C798 1.378 . S
C800 C801 1.367 . S
C801 C800 1.367 . S
C801 C803 1.433 . S
C802 C798 1.350 . S
C802 C799 1.463 1_554 S
C802 N806 1.427 . S
C803 H793 0.929 . S
C803 C801 1.433 . S
C803 N806 1.384 . S
C804 H795 0.929 . S
C804 C796 1.378 . S
C804 C799 1.350 . S
C805 H792 0.929 . S
C805 C797 1.433 . S
C805 N807 1.384 . S
N806 C802 1.427 . S
N806 C803 1.384 . S
N807 C799 1.427 . S
N807 C805 1.384 . S
H808 C814 0.930 . S
H809 C818 0.930 . S
H810 C823 0.929 . S
H811 C821 0.929 . S
H812 C816 0.929 . S
H813 C822 0.929 . S
C814 H808 0.930 . S
C814 C815 1.367 . S
C814 C822 1.378 . S
C815 C814 1.367 . S
C815 C823 1.433 . S
C816 H812 0.929 . S
C816 C818 1.378 . S
C816 C820 1.350 . S
C817 C820 1.463 . S
C817 C822 1.350 . S
C817 N825 1.427 . S
C818 H809 0.930 . S
C818 C816 1.378 . S
C818 C819 1.367 . S
C819 C818 1.367 . S
C819 C821 1.433 . S
C820 C816 1.350 . S
C820 C817 1.463 . S
C820 N824 1.427 . S
C821 H811 0.929 . S
C821 C819 1.433 . S
C821 N824 1.384 . S
C822 H813 0.929 . S
C822 C814 1.378 . S
C822 C817 1.350 . S
C823 H810 0.929 . S
C823 C815 1.433 . S
C823 N825 1.384 . S
N824 C820 1.427 . S
N824 C821 1.384 . S
N825 C817 1.427 . S
N825 C823 1.384 . S
H826 C832 0.930 . S
H827 C836 0.930 . S
H828 C841 0.929 . S
H829 C839 0.929 . S
H830 C834 0.929 . S
H831 C840 0.929 . S
C832 H826 0.930 . S
C832 C833 1.367 . S
C832 C840 1.378 . S
C833 C832 1.367 . S
C833 C841 1.433 . S
C834 H830 0.929 . S
C834 C836 1.378 . S
C834 C838 1.350 . S
C835 C838 1.463 . S
C835 C840 1.350 . S
C835 N843 1.427 . S
C836 H827 0.930 . S
C836 C834 1.378 . S
C836 C837 1.367 . S
C837 C836 1.367 . S
C837 C839 1.433 . S
C838 C834 1.350 . S
C838 C835 1.463 . S
C838 N842 1.427 . S
C839 H829 0.929 . S
C839 C837 1.433 . S
C839 N842 1.384 . S
C840 H831 0.929 . S
C840 C832 1.378 . S
C840 C835 1.350 . S
C841 H828 0.929 . S
C841 C833 1.433 . S
C841 N843 1.384 . S
N842 C838 1.427 . S
N842 C839 1.384 . S
N843 C835 1.427 . S
N843 C841 1.384 . S
H844 C850 0.930 . S
H845 C854 0.930 . S
H846 C859 0.929 . S
H847 C857 0.929 . S
H848 C852 0.929 . S
H849 C858 0.929 . S
C850 H844 0.930 . S
C850 C851 1.367 . S
C850 C858 1.378 . S
C851 C850 1.367 . S
C851 C859 1.433 . S
C852 H848 0.929 . S
C852 C854 1.378 . S
C852 C856 1.350 . S
C853 C856 1.463 . S
C853 C858 1.350 . S
C853 N861 1.427 . S
C854 H845 0.930 . S
C854 C852 1.378 . S
C854 C855 1.367 . S
C855 C854 1.367 . S
C855 C857 1.433 . S
C856 C852 1.350 . S
C856 C853 1.463 . S
C856 N860 1.427 . S
C857 H847 0.929 . S
C857 C855 1.433 . S
C857 N860 1.384 . S
C858 H849 0.929 . S
C858 C850 1.378 . S
C858 C853 1.350 . S
C859 H846 0.929 . S
C859 C851 1.433 . S
C859 N861 1.384 . S
N860 C856 1.427 . S
N860 C857 1.384 . S
N861 C853 1.427 . S
N861 C859 1.384 . S
H862 C868 0.930 . S
H863 C872 0.930 . S
H864 C877 0.929 . S
H865 C875 0.929 . S
H866 C870 0.929 . S
H867 C876 0.929 . S
C868 H862 0.930 . S
C868 C869 1.367 . S
C868 C876 1.378 . S
C869 C868 1.367 . S
C869 C877 1.433 . S
C870 H866 0.929 . S
C870 C872 1.378 . S
C870 C874 1.350 . S
C871 C874 1.463 . S
C871 C876 1.350 . S
C871 N879 1.427 . S
C872 H863 0.930 . S
C872 C870 1.378 . S
C872 C873 1.367 . S
C873 C872 1.367 . S
C873 C875 1.433 . S
C874 C870 1.350 . S
C874 C871 1.463 . S
C874 N878 1.427 . S
C875 H865 0.929 . S
C875 C873 1.433 . S
C875 N878 1.384 . S
C876 H867 0.929 . S
C876 C868 1.378 . S
C876 C871 1.350 . S
C877 H864 0.929 . S
C877 C869 1.433 . S
C877 N879 1.384 . S
N878 C874 1.427 . S
N878 C875 1.384 . S
N879 C871 1.427 . S
N879 C877 1.384 . S
H880 C886 0.930 . S
H881 C890 0.930 . S
H882 C895 0.929 . S
H883 C893 0.929 . S
H884 C888 0.929 . S
H885 C894 0.929 . S
C886 H880 0.930 . S
C886 C887 1.367 . S
C886 C894 1.378 . S
C887 C886 1.367 . S
C887 C895 1.433 . S
C888 H884 0.929 . S
C888 C890 1.378 . S
C888 C892 1.350 . S
C889 C892 1.463 . S
C889 C894 1.350 . S
C889 N897 1.427 . S
C890 H881 0.930 . S
C890 C888 1.378 . S
C890 C891 1.367 . S
C891 C890 1.367 . S
C891 C893 1.433 . S
C892 C888 1.350 . S
C892 C889 1.463 . S
C892 N896 1.427 . S
C893 H883 0.929 . S
C893 C891 1.433 . S
C893 N896 1.384 . S
C894 H885 0.929 . S
C894 C886 1.378 . S
C894 C889 1.350 . S
C895 H882 0.929 . S
C895 C887 1.433 . S
C895 N897 1.384 . S
N896 C892 1.427 . S
N896 C893 1.384 . S
N897 C889 1.427 . S
N897 C895 1.384 . S
H898 C904 0.930 . S
H899 C908 0.930 . S
H900 C913 0.929 . S
H901 C911 0.929 . S
H902 C906 0.929 . S
H903 C912 0.929 . S
C904 H898 0.930 . S
C904 C905 1.367 . S
C904 C912 1.378 . S
C905 C904 1.367 . S
C905 C913 1.433 . S
C906 H902 0.929 . S
C906 C908 1.378 . S
C906 C910 1.350 . S
C907 C910 1.463 . S
C907 C912 1.350 . S
C907 N915 1.427 . S
C908 H899 0.930 . S
C908 C906 1.378 . S
C908 C909 1.367 . S
C909 C908 1.367 . S
C909 C911 1.433 . S
C910 C906 1.350 . S
C910 C907 1.463 . S
C910 N914 1.427 . S
C911 H901 0.929 . S
C911 C909 1.433 . S
C911 N914 1.384 . S
C912 H903 0.929 . S
C912 C904 1.378 . S
C912 C907 1.350 . S
C913 H900 0.929 . S
C913 C905 1.433 . S
C913 N915 1.384 . S
N914 C910 1.427 . S
N914 C911 1.384 . S
N915 C907 1.427 . S
N915 C913 1.384 . S
H916 C922 0.930 . S
H917 C926 0.930 . S
H918 C931 0.929 . S
H919 C929 0.929 . S
H920 C924 0.929 . S
H921 C930 0.929 . S
C922 H916 0.930 . S
C922 C923 1.367 . S
C922 C930 1.378 . S
C923 C922 1.367 . S
C923 C931 1.433 . S
C924 H920 0.929 . S
C924 C926 1.378 . S
C924 C928 1.350 . S
C925 C928 1.463 . S
C925 C930 1.350 . S
C925 N933 1.427 . S
C926 H917 0.930 . S
C926 C924 1.378 . S
C926 C927 1.367 . S
C927 C926 1.367 . S
C927 C929 1.433 . S
C928 C924 1.350 . S
C928 C925 1.463 . S
C928 N932 1.427 . S
C929 H919 0.929 . S
C929 C927 1.433 . S
C929 N932 1.384 . S
C930 H921 0.929 . S
C930 C922 1.378 . S
C930 C925 1.350 . S
C931 H918 0.929 . S
C931 C923 1.433 . S
C931 N933 1.384 . S
N932 C928 1.427 . S
N932 C929 1.384 . S
N933 C925 1.427 . S
N933 C931 1.384 . S
H934 C940 0.930 . S
H935 C944 0.930 . S
H936 C949 0.929 . S
H937 C947 0.929 . S
H938 C942 0.929 . S
H939 C948 0.929 . S
C940 H934 0.930 . S
C940 C941 1.367 . S
C940 C948 1.378 . S
C941 C940 1.367 . S
C941 C949 1.433 . S
C942 H938 0.929 . S
C942 C944 1.378 . S
C942 C946 1.350 . S
C943 C946 1.463 . S
C943 C948 1.350 . S
C943 N951 1.427 . S
C944 H935 0.930 . S
C944 C942 1.378 . S
C944 C945 1.367 . S
C945 C944 1.367 . S
C945 C947 1.433 . S
C946 C942 1.350 . S
C946 C943 1.463 . S
C946 N950 1.427 . S
C947 H937 0.929 . S
C947 C945 1.433 . S
C947 N950 1.384 . S
C948 H939 0.929 . S
C948 C940 1.378 . S
C948 C943 1.350 . S
C949 H936 0.929 . S
C949 C941 1.433 . S
C949 N951 1.384 . S
N950 C946 1.427 . S
N950 C947 1.384 . S
N951 C943 1.427 . S
N951 C949 1.384 . S
H952 C958 0.930 . S
H953 C962 0.930 . S
H954 C967 0.929 . S
H955 C965 0.929 . S
H956 C960 0.929 . S
H957 C966 0.929 . S
C958 H952 0.930 . S
C958 C959 1.367 . S
C958 C966 1.378 . S
C959 C958 1.367 . S
C959 C967 1.433 . S
C960 H956 0.929 . S
C960 C962 1.378 . S
C960 C964 1.350 . S
C961 C964 1.463 1_556 S
C961 C966 1.350 . S
C961 N969 1.427 . S
C962 H953 0.930 . S
C962 C960 1.378 . S
C962 C963 1.367 . S
C963 C962 1.367 . S
C963 C965 1.433 . S
C964 C960 1.350 . S
C964 C961 1.463 1_554 S
C964 N968 1.427 . S
C965 H955 0.929 . S
C965 C963 1.433 . S
C965 N968 1.384 . S
C966 H957 0.929 . S
C966 C958 1.378 . S
C966 C961 1.350 . S
C967 H954 0.929 . S
C967 C959 1.433 . S
C967 N969 1.384 . S
N968 C964 1.427 . S
N968 C965 1.384 . S
N969 C961 1.427 . S
N969 C967 1.384 . S
H970 C976 0.930 . S
H971 C980 0.930 . S
H972 C985 0.929 . S
H973 C983 0.929 . S
H974 C978 0.929 . S
H975 C984 0.929 . S
C976 H970 0.930 . S
C976 C977 1.367 . S
C976 C984 1.378 . S
C977 C976 1.367 . S
C977 C985 1.433 . S
C978 H974 0.929 . S
C978 C980 1.378 . S
C978 C982 1.350 . S
C979 C982 1.463 1_554 S
C979 C984 1.350 . S
C979 N987 1.427 . S
C980 H971 0.930 . S
C980 C978 1.378 . S
C980 C981 1.367 . S
C981 C980 1.367 . S
C981 C983 1.433 . S
C982 C978 1.350 . S
C982 C979 1.463 1_556 S
C982 N986 1.427 . S
C983 H973 0.929 . S
C983 C981 1.433 . S
C983 N986 1.384 . S
C984 H975 0.929 . S
C984 C976 1.378 . S
C984 C979 1.350 . S
C985 H972 0.929 . S
C985 C977 1.433 . S
C985 N987 1.384 . S
N986 C982 1.427 . S
N986 C983 1.384 . S
N987 C979 1.427 . S
N987 C985 1.384 . S
H988 C994 0.930 . S
H989 C998 0.930 . S
H990 C1003 0.929 . S
H991 C1001 0.929 . S
H992 C996 0.929 . S
H993 C1002 0.929 . S
C994 H988 0.930 . S
C994 C995 1.367 . S
C994 C1002 1.378 . S
C995 C994 1.367 . S
C995 C1003 1.433 . S
C996 H992 0.929 . S
C996 C998 1.378 . S
C996 C1000 1.350 . S
C997 C1000 1.463 1_554 S
C997 C1002 1.350 . S
C997 N1005 1.427 . S
C998 H989 0.930 . S
C998 C996 1.378 . S
C998 C999 1.367 . S
C999 C998 1.367 . S
C999 C1001 1.433 . S
C1000 C996 1.350 . S
C1000 C997 1.463 1_556 S
C1000 N1004 1.427 . S
C1001 H991 0.929 . S
C1001 C999 1.433 . S
C1001 N1004 1.384 . S
C1002 H993 0.929 . S
C1002 C994 1.378 . S
C1002 C997 1.350 . S
C1003 H990 0.929 . S
C1003 C995 1.433 . S
C1003 N1005 1.384 . S
N1004 C1000 1.427 . S
N1004 C1001 1.384 . S
N1005 C997 1.427 . S
N1005 C1003 1.384 . S
H1006 C1012 0.930 . S
H1007 C1016 0.930 . S
H1008 C1021 0.929 . S
H1009 C1019 0.929 . S
H1010 C1014 0.929 . S
H1011 C1020 0.929 . S
C1012 H1006 0.930 . S
C1012 C1013 1.367 . S
C1012 C1020 1.378 . S
C1013 C1012 1.367 . S
C1013 C1021 1.433 . S
C1014 H1010 0.929 . S
C1014 C1016 1.378 . S
C1014 C1018 1.350 . S
C1015 C1018 1.463 1_556 S
C1015 C1020 1.350 . S
C1015 N1023 1.427 . S
C1016 H1007 0.930 . S
C1016 C1014 1.378 . S
C1016 C1017 1.367 . S
C1017 C1016 1.367 . S
C1017 C1019 1.433 . S
C1018 C1014 1.350 . S
C1018 C1015 1.463 1_554 S
C1018 N1022 1.427 . S
C1019 H1009 0.929 . S
C1019 C1017 1.433 . S
C1019 N1022 1.384 . S
C1020 H1011 0.929 . S
C1020 C1012 1.378 . S
C1020 C1015 1.350 . S
C1021 H1008 0.929 . S
C1021 C1013 1.433 . S
C1021 N1023 1.384 . S
N1022 C1018 1.427 . S
N1022 C1019 1.384 . S
N1023 C1015 1.427 . S
N1023 C1021 1.384 . S
H1024 C1030 0.930 . S
H1025 C1034 0.930 . S
H1026 C1039 0.929 . S
H1027 C1037 0.929 . S
H1028 C1032 0.929 . S
H1029 C1038 0.929 . S
C1030 H1024 0.930 . S
C1030 C1031 1.367 . S
C1030 C1038 1.378 . S
C1031 C1030 1.367 . S
C1031 C1039 1.433 . S
C1032 H1028 0.929 . S
C1032 C1034 1.378 . S
C1032 C1036 1.350 . S
C1033 C1036 1.463 1_545 S
C1033 C1038 1.350 . S
C1033 N1041 1.427 . S
C1034 H1025 0.930 . S
C1034 C1032 1.378 . S
C1034 C1035 1.367 . S
C1035 C1034 1.367 . S
C1035 C1037 1.433 . S
C1036 C1032 1.350 . S
C1036 C1033 1.463 1_565 S
C1036 N1040 1.427 . S
C1037 H1027 0.929 . S
C1037 C1035 1.433 . S
C1037 N1040 1.384 . S
C1038 H1029 0.929 . S
C1038 C1030 1.378 . S
C1038 C1033 1.350 . S
C1039 H1026 0.929 . S
C1039 C1031 1.433 . S
C1039 N1041 1.384 . S
N1040 C1036 1.427 . S
N1040 C1037 1.384 . S
N1041 C1033 1.427 . S
N1041 C1039 1.384 . S
H1042 C1048 0.930 . S
H1043 C1052 0.930 . S
H1044 C1057 0.929 . S
H1045 C1055 0.929 . S
H1046 C1050 0.929 . S
H1047 C1056 0.929 . S
C1048 H1042 0.930 . S
C1048 C1049 1.367 . S
C1048 C1056 1.378 . S
C1049 C1048 1.367 . S
C1049 C1057 1.433 . S
C1050 H1046 0.929 . S
C1050 C1052 1.378 . S
C1050 C1054 1.350 . S
C1051 C1054 1.463 1_655 S
C1051 C1056 1.350 . S
C1051 N1059 1.427 . S
C1052 H1043 0.930 . S
C1052 C1050 1.378 . S
C1052 C1053 1.367 . S
C1053 C1052 1.367 . S
C1053 C1055 1.433 . S
C1054 C1050 1.350 . S
C1054 C1051 1.463 1_455 S
C1054 N1058 1.427 . S
C1055 H1045 0.929 . S
C1055 C1053 1.433 . S
C1055 N1058 1.384 . S
C1056 H1047 0.929 . S
C1056 C1048 1.378 . S
C1056 C1051 1.350 . S
C1057 H1044 0.929 . S
C1057 C1049 1.433 . S
C1057 N1059 1.384 . S
N1058 C1054 1.427 . S
N1058 C1055 1.384 . S
N1059 C1051 1.427 . S
N1059 C1057 1.384 . S
H1060 C1066 0.930 . S
H1061 C1070 0.930 . S
H1062 C1075 0.929 . S
H1063 C1073 0.929 . S
H1064 C1068 0.929 . S
H1065 C1074 0.929 . S
C1066 H1060 0.930 . S
C1066 C1067 1.367 . S
C1066 C1074 1.378 . S
C1067 C1066 1.367 . S
C1067 C1075 1.433 . S
C1068 H1064 0.929 . S
C1068 C1070 1.378 . S
C1068 C1072 1.350 . S
C1069 C1072 1.463 1_545 S
C1069 C1074 1.350 . S
C1069 N1077 1.427 . S
C1070 H1061 0.930 . S
C1070 C1068 1.378 . S
C1070 C1071 1.367 . S
C1071 C1070 1.367 . S
C1071 C1073 1.433 . S
C1072 C1068 1.350 . S
C1072 C1069 1.463 1_565 S
C1072 N1076 1.427 . S
C1073 H1063 0.929 . S
C1073 C1071 1.433 . S
C1073 N1076 1.384 . S
C1074 H1065 0.929 . S
C1074 C1066 1.378 . S
C1074 C1069 1.350 . S
C1075 H1062 0.929 . S
C1075 C1067 1.433 . S
C1075 N1077 1.384 . S
N1076 C1072 1.427 . S
N1076 C1073 1.384 . S
N1077 C1069 1.427 . S
N1077 C1075 1.384 . S
H1078 C1084 0.930 . S
H1079 C1088 0.930 . S
H1080 C1093 0.929 . S
H1081 C1091 0.929 . S
H1082 C1086 0.929 . S
H1083 C1092 0.929 . S
C1084 H1078 0.930 . S
C1084 C1085 1.367 . S
C1084 C1092 1.378 . S
C1085 C1084 1.367 . S
C1085 C1093 1.433 . S
C1086 H1082 0.929 . S
C1086 C1088 1.378 . S
C1086 C1090 1.350 . S
C1087 C1090 1.463 1_455 S
C1087 C1092 1.350 . S
C1087 N1095 1.427 . S
C1088 H1079 0.930 . S
C1088 C1086 1.378 . S
C1088 C1089 1.367 . S
C1089 C1088 1.367 . S
C1089 C1091 1.433 . S
C1090 C1086 1.350 . S
C1090 C1087 1.463 1_655 S
C1090 N1094 1.427 . S
C1091 H1081 0.929 . S
C1091 C1089 1.433 . S
C1091 N1094 1.384 . S
C1092 H1083 0.929 . S
C1092 C1084 1.378 . S
C1092 C1087 1.350 . S
C1093 H1080 0.929 . S
C1093 C1085 1.433 . S
C1093 N1095 1.384 . S
N1094 C1090 1.427 . S
N1094 C1091 1.384 . S
N1095 C1087 1.427 . S
N1095 C1093 1.384 . S
H1096 C1102 0.930 . S
H1097 C1106 0.930 . S
H1098 C1111 0.929 . S
H1099 C1109 0.929 . S
H1100 C1104 0.929 . S
H1101 C1110 0.929 . S
C1102 H1096 0.930 . S
C1102 C1103 1.367 . S
C1102 C1110 1.378 . S
C1103 C1102 1.367 . S
C1103 C1111 1.433 . S
C1104 H1100 0.929 . S
C1104 C1106 1.378 . S
C1104 C1108 1.350 . S
C1105 C1108 1.463 1_565 S
C1105 C1110 1.350 . S
C1105 N1113 1.427 . S
C1106 H1097 0.930 . S
C1106 C1104 1.378 . S
C1106 C1107 1.367 . S
C1107 C1106 1.367 . S
C1107 C1109 1.433 . S
C1108 C1104 1.350 . S
C1108 C1105 1.463 1_545 S
C1108 N1112 1.427 . S
C1109 H1099 0.929 . S
C1109 C1107 1.433 . S
C1109 N1112 1.384 . S
C1110 H1101 0.929 . S
C1110 C1102 1.378 . S
C1110 C1105 1.350 . S
C1111 H1098 0.929 . S
C1111 C1103 1.433 . S
C1111 N1113 1.384 . S
N1112 C1108 1.427 . S
N1112 C1109 1.384 . S
N1113 C1105 1.427 . S
N1113 C1111 1.384 . S
H1114 C1120 0.930 . S
H1115 C1124 0.930 . S
H1116 C1129 0.929 . S
H1117 C1127 0.929 . S
H1118 C1122 0.929 . S
H1119 C1128 0.929 . S
C1120 H1114 0.930 . S
C1120 C1121 1.367 . S
C1120 C1128 1.378 . S
C1121 C1120 1.367 . S
C1121 C1129 1.433 . S
C1122 H1118 0.929 . S
C1122 C1124 1.378 . S
C1122 C1126 1.350 . S
C1123 C1126 1.463 1_655 S
C1123 C1128 1.350 . S
C1123 N1131 1.427 . S
C1124 H1115 0.930 . S
C1124 C1122 1.378 . S
C1124 C1125 1.367 . S
C1125 C1124 1.367 . S
C1125 C1127 1.433 . S
C1126 C1122 1.350 . S
C1126 C1123 1.463 1_455 S
C1126 N1130 1.427 . S
C1127 H1117 0.929 . S
C1127 C1125 1.433 . S
C1127 N1130 1.384 . S
C1128 H1119 0.929 . S
C1128 C1120 1.378 . S
C1128 C1123 1.350 . S
C1129 H1116 0.929 . S
C1129 C1121 1.433 . S
C1129 N1131 1.384 . S
N1130 C1126 1.427 . S
N1130 C1127 1.384 . S
N1131 C1123 1.427 . S
N1131 C1129 1.384 . S
H1132 C1138 0.930 . S
H1133 C1142 0.930 . S
H1134 C1147 0.929 . S
H1135 C1145 0.929 . S
H1136 C1140 0.929 . S
H1137 C1146 0.929 . S
C1138 H1132 0.930 . S
C1138 C1139 1.367 . S
C1138 C1146 1.378 . S
C1139 C1138 1.367 . S
C1139 C1147 1.433 . S
C1140 H1136 0.929 . S
C1140 C1142 1.378 . S
C1140 C1144 1.350 . S
C1141 C1144 1.463 1_565 S
C1141 C1146 1.350 . S
C1141 N1149 1.427 . S
C1142 H1133 0.930 . S
C1142 C1140 1.378 . S
C1142 C1143 1.367 . S
C1143 C1142 1.367 . S
C1143 C1145 1.433 . S
C1144 C1140 1.350 . S
C1144 C1141 1.463 1_545 S
C1144 N1148 1.427 . S
C1145 H1135 0.929 . S
C1145 C1143 1.433 . S
C1145 N1148 1.384 . S
C1146 H1137 0.929 . S
C1146 C1138 1.378 . S
C1146 C1141 1.350 . S
C1147 H1134 0.929 . S
C1147 C1139 1.433 . S
C1147 N1149 1.384 . S
N1148 C1144 1.427 . S
N1148 C1145 1.384 . S
N1149 C1141 1.427 . S
N1149 C1147 1.384 . S
H1150 C1156 0.930 . S
H1151 C1160 0.930 . S
H1152 C1165 0.929 . S
H1153 C1163 0.929 . S
H1154 C1158 0.929 . S
H1155 C1164 0.929 . S
C1156 H1150 0.930 . S
C1156 C1157 1.367 . S
C1156 C1164 1.378 . S
C1157 C1156 1.367 . S
C1157 C1165 1.433 . S
C1158 H1154 0.929 . S
C1158 C1160 1.378 . S
C1158 C1162 1.350 . S
C1159 C1162 1.463 1_655 S
C1159 C1164 1.350 . S
C1159 N1167 1.427 . S
C1160 H1151 0.930 . S
C1160 C1158 1.378 . S
C1160 C1161 1.367 . S
C1161 C1160 1.367 . S
C1161 C1163 1.433 . S
C1162 C1158 1.350 . S
C1162 C1159 1.463 1_455 S
C1162 N1166 1.427 . S
C1163 H1153 0.929 . S
C1163 C1161 1.433 . S
C1163 N1166 1.384 . S
C1164 H1155 0.929 . S
C1164 C1156 1.378 . S
C1164 C1159 1.350 . S
C1165 H1152 0.929 . S
C1165 C1157 1.433 . S
C1165 N1167 1.384 . S
N1166 C1162 1.427 . S
N1166 C1163 1.384 . S
N1167 C1159 1.427 . S
N1167 C1165 1.384 . S
H1168 C1174 0.930 . S
H1169 C1178 0.930 . S
H1170 C1183 0.929 . S
H1171 C1181 0.929 . S
H1172 C1176 0.929 . S
H1173 C1182 0.929 . S
C1174 H1168 0.930 . S
C1174 C1175 1.367 . S
C1174 C1182 1.378 . S
C1175 C1174 1.367 . S
C1175 C1183 1.433 . S
C1176 H1172 0.929 . S
C1176 C1178 1.378 . S
C1176 C1180 1.350 . S
C1177 C1180 1.463 . S
C1177 C1182 1.350 . S
C1177 N1185 1.427 . S
C1178 H1169 0.930 . S
C1178 C1176 1.378 . S
C1178 C1179 1.367 . S
C1179 C1178 1.367 . S
C1179 C1181 1.433 . S
C1180 C1176 1.350 . S
C1180 C1177 1.463 . S
C1180 N1184 1.427 . S
C1181 H1171 0.929 . S
C1181 C1179 1.433 . S
C1181 N1184 1.384 . S
C1182 H1173 0.929 . S
C1182 C1174 1.378 . S
C1182 C1177 1.350 . S
C1183 H1170 0.929 . S
C1183 C1175 1.433 . S
C1183 N1185 1.384 . S
N1184 C1180 1.427 . S
N1184 C1181 1.384 . S
N1185 C1177 1.427 . S
N1185 C1183 1.384 . S
H1186 C1192 0.930 . S
H1187 C1196 0.930 . S
H1188 C1201 0.929 . S
H1189 C1199 0.929 . S
H1190 C1194 0.929 . S
H1191 C1200 0.929 . S
C1192 H1186 0.930 . S
C1192 C1193 1.367 . S
C1192 C1200 1.378 . S
C1193 C1192 1.367 . S
C1193 C1201 1.433 . S
C1194 H1190 0.929 . S
C1194 C1196 1.378 . S
C1194 C1198 1.350 . S
C1195 C1198 1.463 . S
C1195 C1200 1.350 . S
C1195 N1203 1.427 . S
C1196 H1187 0.930 . S
C1196 C1194 1.378 . S
C1196 C1197 1.367 . S
C1197 C1196 1.367 . S
C1197 C1199 1.433 . S
C1198 C1194 1.350 . S
C1198 C1195 1.463 . S
C1198 N1202 1.427 . S
C1199 H1189 0.929 . S
C1199 C1197 1.433 . S
C1199 N1202 1.384 . S
C1200 H1191 0.929 . S
C1200 C1192 1.378 . S
C1200 C1195 1.350 . S
C1201 H1188 0.929 . S
C1201 C1193 1.433 . S
C1201 N1203 1.384 . S
N1202 C1198 1.427 . S
N1202 C1199 1.384 . S
N1203 C1195 1.427 . S
N1203 C1201 1.384 . S
H1204 C1210 0.930 . S
H1205 C1214 0.930 . S
H1206 C1219 0.929 . S
H1207 C1217 0.929 . S
H1208 C1212 0.929 . S
H1209 C1218 0.929 . S
C1210 H1204 0.930 . S
C1210 C1211 1.367 . S
C1210 C1218 1.378 . S
C1211 C1210 1.367 . S
C1211 C1219 1.433 . S
C1212 H1208 0.929 . S
C1212 C1214 1.378 . S
C1212 C1216 1.350 . S
C1213 C1216 1.463 . S
C1213 C1218 1.350 . S
C1213 N1221 1.427 . S
C1214 H1205 0.930 . S
C1214 C1212 1.378 . S
C1214 C1215 1.367 . S
C1215 C1214 1.367 . S
C1215 C1217 1.433 . S
C1216 C1212 1.350 . S
C1216 C1213 1.463 . S
C1216 N1220 1.427 . S
C1217 H1207 0.929 . S
C1217 C1215 1.433 . S
C1217 N1220 1.384 . S
C1218 H1209 0.929 . S
C1218 C1210 1.378 . S
C1218 C1213 1.350 . S
C1219 H1206 0.929 . S
C1219 C1211 1.433 . S
C1219 N1221 1.384 . S
N1220 C1216 1.427 . S
N1220 C1217 1.384 . S
N1221 C1213 1.427 . S
N1221 C1219 1.384 . S
H1222 C1228 0.930 . S
H1223 C1232 0.930 . S
H1224 C1237 0.929 . S
H1225 C1235 0.929 . S
H1226 C1230 0.929 . S
H1227 C1236 0.929 . S
C1228 H1222 0.930 . S
C1228 C1229 1.367 . S
C1228 C1236 1.378 . S
C1229 C1228 1.367 . S
C1229 C1237 1.433 . S
C1230 H1226 0.929 . S
C1230 C1232 1.378 . S
C1230 C1234 1.350 . S
C1231 C1234 1.463 . S
C1231 C1236 1.350 . S
C1231 N1239 1.427 . S
C1232 H1223 0.930 . S
C1232 C1230 1.378 . S
C1232 C1233 1.367 . S
C1233 C1232 1.367 . S
C1233 C1235 1.433 . S
C1234 C1230 1.350 . S
C1234 C1231 1.463 . S
C1234 N1238 1.427 . S
C1235 H1225 0.929 . S
C1235 C1233 1.433 . S
C1235 N1238 1.384 . S
C1236 H1227 0.929 . S
C1236 C1228 1.378 . S
C1236 C1231 1.350 . S
C1237 H1224 0.929 . S
C1237 C1229 1.433 . S
C1237 N1239 1.384 . S
N1238 C1234 1.427 . S
N1238 C1235 1.384 . S
N1239 C1231 1.427 . S
N1239 C1237 1.384 . S
H1240 C1246 0.930 . S
H1241 C1250 0.930 . S
H1242 C1255 0.929 . S
H1243 C1253 0.929 . S
H1244 C1248 0.929 . S
H1245 C1254 0.929 . S
C1246 H1240 0.930 . S
C1246 C1247 1.367 . S
C1246 C1254 1.378 . S
C1247 C1246 1.367 . S
C1247 C1255 1.433 . S
C1248 H1244 0.929 . S
C1248 C1250 1.378 . S
C1248 C1252 1.350 . S
C1249 C1252 1.463 . S
C1249 C1254 1.350 . S
C1249 N1257 1.427 . S
C1250 H1241 0.930 . S
C1250 C1248 1.378 . S
C1250 C1251 1.367 . S
C1251 C1250 1.367 . S
C1251 C1253 1.433 . S
C1252 C1248 1.350 . S
C1252 C1249 1.463 . S
C1252 N1256 1.427 . S
C1253 H1243 0.929 . S
C1253 C1251 1.433 . S
C1253 N1256 1.384 . S
C1254 H1245 0.929 . S
C1254 C1246 1.378 . S
C1254 C1249 1.350 . S
C1255 H1242 0.929 . S
C1255 C1247 1.433 . S
C1255 N1257 1.384 . S
N1256 C1252 1.427 . S
N1256 C1253 1.384 . S
N1257 C1249 1.427 . S
N1257 C1255 1.384 . S
H1258 C1264 0.930 . S
H1259 C1268 0.930 . S
H1260 C1273 0.929 . S
H1261 C1271 0.929 . S
H1262 C1266 0.929 . S
H1263 C1272 0.929 . S
C1264 H1258 0.930 . S
C1264 C1265 1.367 . S
C1264 C1272 1.378 . S
C1265 C1264 1.367 . S
C1265 C1273 1.433 . S
C1266 H1262 0.929 . S
C1266 C1268 1.378 . S
C1266 C1270 1.350 . S
C1267 C1270 1.463 . S
C1267 C1272 1.350 . S
C1267 N1275 1.427 . S
C1268 H1259 0.930 . S
C1268 C1266 1.378 . S
C1268 C1269 1.367 . S
C1269 C1268 1.367 . S
C1269 C1271 1.433 . S
C1270 C1266 1.350 . S
C1270 C1267 1.463 . S
C1270 N1274 1.427 . S
C1271 H1261 0.929 . S
C1271 C1269 1.433 . S
C1271 N1274 1.384 . S
C1272 H1263 0.929 . S
C1272 C1264 1.378 . S
C1272 C1267 1.350 . S
C1273 H1260 0.929 . S
C1273 C1265 1.433 . S
C1273 N1275 1.384 . S
N1274 C1270 1.427 . S
N1274 C1271 1.384 . S
N1275 C1267 1.427 . S
N1275 C1273 1.384 . S
H1276 C1282 0.930 . S
H1277 C1286 0.930 . S
H1278 C1291 0.929 . S
H1279 C1289 0.929 . S
H1280 C1284 0.929 . S
H1281 C1290 0.929 . S
C1282 H1276 0.930 . S
C1282 C1283 1.367 . S
C1282 C1290 1.378 . S
C1283 C1282 1.367 . S
C1283 C1291 1.433 . S
C1284 H1280 0.929 . S
C1284 C1286 1.378 . S
C1284 C1288 1.350 . S
C1285 C1288 1.463 . S
C1285 C1290 1.350 . S
C1285 N1293 1.427 . S
C1286 H1277 0.930 . S
C1286 C1284 1.378 . S
C1286 C1287 1.367 . S
C1287 C1286 1.367 . S
C1287 C1289 1.433 . S
C1288 C1284 1.350 . S
C1288 C1285 1.463 . S
C1288 N1292 1.427 . S
C1289 H1279 0.929 . S
C1289 C1287 1.433 . S
C1289 N1292 1.384 . S
C1290 H1281 0.929 . S
C1290 C1282 1.378 . S
C1290 C1285 1.350 . S
C1291 H1278 0.929 . S
C1291 C1283 1.433 . S
C1291 N1293 1.384 . S
N1292 C1288 1.427 . S
N1292 C1289 1.384 . S
N1293 C1285 1.427 . S
N1293 C1291 1.384 . S
H1294 C1300 0.930 . S
H1295 C1304 0.930 . S
H1296 C1309 0.929 . S
H1297 C1307 0.929 . S
H1298 C1302 0.929 . S
H1299 C1308 0.929 . S
C1300 H1294 0.930 . S
C1300 C1301 1.367 . S
C1300 C1308 1.378 . S
C1301 C1300 1.367 . S
C1301 C1309 1.433 . S
C1302 H1298 0.929 . S
C1302 C1304 1.378 . S
C1302 C1306 1.350 . S
C1303 C1306 1.463 . S
C1303 C1308 1.350 . S
C1303 N1311 1.427 . S
C1304 H1295 0.930 . S
C1304 C1302 1.378 . S
C1304 C1305 1.367 . S
C1305 C1304 1.367 . S
C1305 C1307 1.433 . S
C1306 C1302 1.350 . S
C1306 C1303 1.463 . S
C1306 N1310 1.427 . S
C1307 H1297 0.929 . S
C1307 C1305 1.433 . S
C1307 N1310 1.384 . S
C1308 H1299 0.929 . S
C1308 C1300 1.378 . S
C1308 C1303 1.350 . S
C1309 H1296 0.929 . S
C1309 C1301 1.433 . S
C1309 N1311 1.384 . S
N1310 C1306 1.427 . S
N1310 C1307 1.384 . S
N1311 C1303 1.427 . S
N1311 C1309 1.384 . S
H1312 C1318 0.930 . S
H1313 C1322 0.930 . S
H1314 C1327 0.929 . S
H1315 C1325 0.929 . S
H1316 C1320 0.929 . S
H1317 C1326 0.929 . S
C1318 H1312 0.930 . S
C1318 C1319 1.367 . S
C1318 C1326 1.378 . S
C1319 C1318 1.367 . S
C1319 C1327 1.433 . S
C1320 H1316 0.929 . S
C1320 C1322 1.378 . S
C1320 C1324 1.350 . S
C1321 C1324 1.463 . S
C1321 C1326 1.350 . S
C1321 N1329 1.427 . S
C1322 H1313 0.930 . S
C1322 C1320 1.378 . S
C1322 C1323 1.367 . S
C1323 C1322 1.367 . S
C1323 C1325 1.433 . S
C1324 C1320 1.350 . S
C1324 C1321 1.463 . S
C1324 N1328 1.427 . S
C1325 H1315 0.929 . S
C1325 C1323 1.433 . S
C1325 N1328 1.384 . S
C1326 H1317 0.929 . S
C1326 C1318 1.378 . S
C1326 C1321 1.350 . S
C1327 H1314 0.929 . S
C1327 C1319 1.433 . S
C1327 N1329 1.384 . S
N1328 C1324 1.427 . S
N1328 C1325 1.384 . S
N1329 C1321 1.427 . S
N1329 C1327 1.384 . S
H1330 C1336 0.930 . S
H1331 C1340 0.930 . S
H1332 C1345 0.929 . S
H1333 C1343 0.929 . S
H1334 C1338 0.929 . S
H1335 C1344 0.929 . S
C1336 H1330 0.930 . S
C1336 C1337 1.367 . S
C1336 C1344 1.378 . S
C1337 C1336 1.367 . S
C1337 C1345 1.433 . S
C1338 H1334 0.929 . S
C1338 C1340 1.378 . S
C1338 C1342 1.350 . S
C1339 C1342 1.463 . S
C1339 C1344 1.350 . S
C1339 N1347 1.427 . S
C1340 H1331 0.930 . S
C1340 C1338 1.378 . S
C1340 C1341 1.367 . S
C1341 C1340 1.367 . S
C1341 C1343 1.433 . S
C1342 C1338 1.350 . S
C1342 C1339 1.463 . S
C1342 N1346 1.427 . S
C1343 H1333 0.929 . S
C1343 C1341 1.433 . S
C1343 N1346 1.384 . S
C1344 H1335 0.929 . S
C1344 C1336 1.378 . S
C1344 C1339 1.350 . S
C1345 H1332 0.929 . S
C1345 C1337 1.433 . S
C1345 N1347 1.384 . S
N1346 C1342 1.427 . S
N1346 C1343 1.384 . S
N1347 C1339 1.427 . S
N1347 C1345 1.384 . S
H1348 C1354 0.930 . S
H1349 C1358 0.930 . S
H1350 C1363 0.929 . S
H1351 C1361 0.929 . S
H1352 C1356 0.929 . S
H1353 C1362 0.929 . S
C1354 H1348 0.930 . S
C1354 C1355 1.367 . S
C1354 C1362 1.378 . S
C1355 C1354 1.367 . S
C1355 C1363 1.433 . S
C1356 H1352 0.929 . S
C1356 C1358 1.378 . S
C1356 C1360 1.350 . S
C1357 C1360 1.463 . S
C1357 C1362 1.350 . S
C1357 N1365 1.427 . S
C1358 H1349 0.930 . S
C1358 C1356 1.378 . S
C1358 C1359 1.367 . S
C1359 C1358 1.367 . S
C1359 C1361 1.433 . S
C1360 C1356 1.350 . S
C1360 C1357 1.463 . S
C1360 N1364 1.427 . S
C1361 H1351 0.929 . S
C1361 C1359 1.433 . S
C1361 N1364 1.384 . S
C1362 H1353 0.929 . S
C1362 C1354 1.378 . S
C1362 C1357 1.350 . S
C1363 H1350 0.929 . S
C1363 C1355 1.433 . S
C1363 N1365 1.384 . S
N1364 C1360 1.427 . S
N1364 C1361 1.384 . S
N1365 C1357 1.427 . S
N1365 C1363 1.384 . S
H1366 C1372 0.930 . S
H1367 C1376 0.930 . S
H1368 C1381 0.929 . S
H1369 C1379 0.929 . S
H1370 C1374 0.929 . S
H1371 C1380 0.929 . S
C1372 H1366 0.930 . S
C1372 C1373 1.367 . S
C1372 C1380 1.378 . S
C1373 C1372 1.367 . S
C1373 C1381 1.433 . S
C1374 H1370 0.929 . S
C1374 C1376 1.378 . S
C1374 C1378 1.350 . S
C1375 C1378 1.463 . S
C1375 C1380 1.350 . S
C1375 N1383 1.427 . S
C1376 H1367 0.930 . S
C1376 C1374 1.378 . S
C1376 C1377 1.367 . S
C1377 C1376 1.367 . S
C1377 C1379 1.433 . S
C1378 C1374 1.350 . S
C1378 C1375 1.463 . S
C1378 N1382 1.427 . S
C1379 H1369 0.929 . S
C1379 C1377 1.433 . S
C1379 N1382 1.384 . S
C1380 H1371 0.929 . S
C1380 C1372 1.378 . S
C1380 C1375 1.350 . S
C1381 H1368 0.929 . S
C1381 C1373 1.433 . S
C1381 N1383 1.384 . S
N1382 C1378 1.427 . S
N1382 C1379 1.384 . S
N1383 C1375 1.427 . S
N1383 C1381 1.384 . S
H1384 C1390 0.930 . S
H1385 C1394 0.930 . S
H1386 C1399 0.929 . S
H1387 C1397 0.929 . S
H1388 C1392 0.929 . S
H1389 C1398 0.929 . S
C1390 H1384 0.930 . S
C1390 C1391 1.367 . S
C1390 C1398 1.378 . S
C1391 C1390 1.367 . S
C1391 C1399 1.433 . S
C1392 H1388 0.929 . S
C1392 C1394 1.378 . S
C1392 C1396 1.350 . S
C1393 C1396 1.463 . S
C1393 C1398 1.350 . S
C1393 N1401 1.427 . S
C1394 H1385 0.930 . S
C1394 C1392 1.378 . S
C1394 C1395 1.367 . S
C1395 C1394 1.367 . S
C1395 C1397 1.433 . S
C1396 C1392 1.350 . S
C1396 C1393 1.463 . S
C1396 N1400 1.427 . S
C1397 H1387 0.929 . S
C1397 C1395 1.433 . S
C1397 N1400 1.384 . S
C1398 H1389 0.929 . S
C1398 C1390 1.378 . S
C1398 C1393 1.350 . S
C1399 H1386 0.929 . S
C1399 C1391 1.433 . S
C1399 N1401 1.384 . S
N1400 C1396 1.427 . S
N1400 C1397 1.384 . S
N1401 C1393 1.427 . S
N1401 C1399 1.384 . S
H1402 C1408 0.930 . S
H1403 C1412 0.930 . S
H1404 C1417 0.929 . S
H1405 C1415 0.929 . S
H1406 C1410 0.929 . S
H1407 C1416 0.929 . S
C1408 H1402 0.930 . S
C1408 C1409 1.367 . S
C1408 C1416 1.378 . S
C1409 C1408 1.367 . S
C1409 C1417 1.433 . S
C1410 H1406 0.929 . S
C1410 C1412 1.378 . S
C1410 C1414 1.350 . S
C1411 C1414 1.463 . S
C1411 C1416 1.350 . S
C1411 N1419 1.427 . S
C1412 H1403 0.930 . S
C1412 C1410 1.378 . S
C1412 C1413 1.367 . S
C1413 C1412 1.367 . S
C1413 C1415 1.433 . S
C1414 C1410 1.350 . S
C1414 C1411 1.463 . S
C1414 N1418 1.427 . S
C1415 H1405 0.929 . S
C1415 C1413 1.433 . S
C1415 N1418 1.384 . S
C1416 H1407 0.929 . S
C1416 C1408 1.378 . S
C1416 C1411 1.350 . S
C1417 H1404 0.929 . S
C1417 C1409 1.433 . S
C1417 N1419 1.384 . S
N1418 C1414 1.427 . S
N1418 C1415 1.384 . S
N1419 C1411 1.427 . S
N1419 C1417 1.384 . S
H1420 C1426 0.930 . S
H1421 C1430 0.930 . S
H1422 C1435 0.929 . S
H1423 C1433 0.929 . S
H1424 C1428 0.929 . S
H1425 C1434 0.929 . S
C1426 H1420 0.930 . S
C1426 C1427 1.367 . S
C1426 C1434 1.378 . S
C1427 C1426 1.367 . S
C1427 C1435 1.433 . S
C1428 H1424 0.929 . S
C1428 C1430 1.378 . S
C1428 C1432 1.350 . S
C1429 C1432 1.463 . S
C1429 C1434 1.350 . S
C1429 N1437 1.427 . S
C1430 H1421 0.930 . S
C1430 C1428 1.378 . S
C1430 C1431 1.367 . S
C1431 C1430 1.367 . S
C1431 C1433 1.433 . S
C1432 C1428 1.350 . S
C1432 C1429 1.463 . S
C1432 N1436 1.427 . S
C1433 H1423 0.929 . S
C1433 C1431 1.433 . S
C1433 N1436 1.384 . S
C1434 H1425 0.929 . S
C1434 C1426 1.378 . S
C1434 C1429 1.350 . S
C1435 H1422 0.929 . S
C1435 C1427 1.433 . S
C1435 N1437 1.384 . S
N1436 C1432 1.427 . S
N1436 C1433 1.384 . S
N1437 C1429 1.427 . S
N1437 C1435 1.384 . S
H1438 C1444 0.930 . S
H1439 C1448 0.930 . S
H1440 C1453 0.929 . S
H1441 C1451 0.929 . S
H1442 C1446 0.929 . S
H1443 C1452 0.929 . S
C1444 H1438 0.930 . S
C1444 C1445 1.367 . S
C1444 C1452 1.378 . S
C1445 C1444 1.367 . S
C1445 C1453 1.433 . S
C1446 H1442 0.929 . S
C1446 C1448 1.378 . S
C1446 C1450 1.350 . S
C1447 C1450 1.463 . S
C1447 C1452 1.350 . S
C1447 N1455 1.427 . S
C1448 H1439 0.930 . S
C1448 C1446 1.378 . S
C1448 C1449 1.367 . S
C1449 C1448 1.367 . S
C1449 C1451 1.433 . S
C1450 C1446 1.350 . S
C1450 C1447 1.463 . S
C1450 N1454 1.427 . S
C1451 H1441 0.929 . S
C1451 C1449 1.433 . S
C1451 N1454 1.384 . S
C1452 H1443 0.929 . S
C1452 C1444 1.378 . S
C1452 C1447 1.350 . S
C1453 H1440 0.929 . S
C1453 C1445 1.433 . S
C1453 N1455 1.384 . S
N1454 C1450 1.427 . S
N1454 C1451 1.384 . S
N1455 C1447 1.427 . S
N1455 C1453 1.384 . S
H1456 C1462 0.930 . S
H1457 C1466 0.930 . S
H1458 C1471 0.929 . S
H1459 C1469 0.929 . S
H1460 C1464 0.929 . S
H1461 C1470 0.929 . S
C1462 H1456 0.930 . S
C1462 C1463 1.367 . S
C1462 C1470 1.378 . S
C1463 C1462 1.367 . S
C1463 C1471 1.433 . S
C1464 H1460 0.929 . S
C1464 C1466 1.378 . S
C1464 C1468 1.350 . S
C1465 C1468 1.463 . S
C1465 C1470 1.350 . S
C1465 N1473 1.427 . S
C1466 H1457 0.930 . S
C1466 C1464 1.378 . S
C1466 C1467 1.367 . S
C1467 C1466 1.367 . S
C1467 C1469 1.433 . S
C1468 C1464 1.350 . S
C1468 C1465 1.463 . S
C1468 N1472 1.427 . S
C1469 H1459 0.929 . S
C1469 C1467 1.433 . S
C1469 N1472 1.384 . S
C1470 H1461 0.929 . S
C1470 C1462 1.378 . S
C1470 C1465 1.350 . S
C1471 H1458 0.929 . S
C1471 C1463 1.433 . S
C1471 N1473 1.384 . S
N1472 C1468 1.427 . S
N1472 C1469 1.384 . S
N1473 C1465 1.427 . S
N1473 C1471 1.384 . S
H1474 C1480 0.930 . S
H1475 C1484 0.930 . S
H1476 C1489 0.929 . S
H1477 C1487 0.929 . S
H1478 C1482 0.929 . S
H1479 C1488 0.929 . S
C1480 H1474 0.930 . S
C1480 C1481 1.367 . S
C1480 C1488 1.378 . S
C1481 C1480 1.367 . S
C1481 C1489 1.433 . S
C1482 H1478 0.929 . S
C1482 C1484 1.378 . S
C1482 C1486 1.350 . S
C1483 C1486 1.463 . S
C1483 C1488 1.350 . S
C1483 N1491 1.427 . S
C1484 H1475 0.930 . S
C1484 C1482 1.378 . S
C1484 C1485 1.367 . S
C1485 C1484 1.367 . S
C1485 C1487 1.433 . S
C1486 C1482 1.350 . S
C1486 C1483 1.463 . S
C1486 N1490 1.427 . S
C1487 H1477 0.929 . S
C1487 C1485 1.433 . S
C1487 N1490 1.384 . S
C1488 H1479 0.929 . S
C1488 C1480 1.378 . S
C1488 C1483 1.350 . S
C1489 H1476 0.929 . S
C1489 C1481 1.433 . S
C1489 N1491 1.384 . S
N1490 C1486 1.427 . S
N1490 C1487 1.384 . S
N1491 C1483 1.427 . S
N1491 C1489 1.384 . S
H1492 C1498 0.930 . S
H1493 C1502 0.930 . S
H1494 C1507 0.929 . S
H1495 C1505 0.929 . S
H1496 C1500 0.929 . S
H1497 C1506 0.929 . S
C1498 H1492 0.930 . S
C1498 C1499 1.367 . S
C1498 C1506 1.378 . S
C1499 C1498 1.367 . S
C1499 C1507 1.433 . S
C1500 H1496 0.929 . S
C1500 C1502 1.378 . S
C1500 C1504 1.350 . S
C1501 C1504 1.463 . S
C1501 C1506 1.350 . S
C1501 N1509 1.427 . S
C1502 H1493 0.930 . S
C1502 C1500 1.378 . S
C1502 C1503 1.367 . S
C1503 C1502 1.367 . S
C1503 C1505 1.433 . S
C1504 C1500 1.350 . S
C1504 C1501 1.463 . S
C1504 N1508 1.427 . S
C1505 H1495 0.929 . S
C1505 C1503 1.433 . S
C1505 N1508 1.384 . S
C1506 H1497 0.929 . S
C1506 C1498 1.378 . S
C1506 C1501 1.350 . S
C1507 H1494 0.929 . S
C1507 C1499 1.433 . S
C1507 N1509 1.384 . S
N1508 C1504 1.427 . S
N1508 C1505 1.384 . S
N1509 C1501 1.427 . S
N1509 C1507 1.384 . S
H1510 C1516 0.930 . S
H1511 C1520 0.930 . S
H1512 C1525 0.929 . S
H1513 C1523 0.929 . S
H1514 C1518 0.929 . S
H1515 C1524 0.929 . S
C1516 H1510 0.930 . S
C1516 C1517 1.367 . S
C1516 C1524 1.378 . S
C1517 C1516 1.367 . S
C1517 C1525 1.433 . S
C1518 H1514 0.929 . S
C1518 C1520 1.378 . S
C1518 C1522 1.350 . S
C1519 C1522 1.463 . S
C1519 C1524 1.350 . S
C1519 N1527 1.427 . S
C1520 H1511 0.930 . S
C1520 C1518 1.378 . S
C1520 C1521 1.367 . S
C1521 C1520 1.367 . S
C1521 C1523 1.433 . S
C1522 C1518 1.350 . S
C1522 C1519 1.463 . S
C1522 N1526 1.427 . S
C1523 H1513 0.929 . S
C1523 C1521 1.433 . S
C1523 N1526 1.384 . S
C1524 H1515 0.929 . S
C1524 C1516 1.378 . S
C1524 C1519 1.350 . S
C1525 H1512 0.929 . S
C1525 C1517 1.433 . S
C1525 N1527 1.384 . S
N1526 C1522 1.427 . S
N1526 C1523 1.384 . S
N1527 C1519 1.427 . S
N1527 C1525 1.384 . S
H1528 C1534 0.930 . S
H1529 C1538 0.930 . S
H1530 C1543 0.929 . S
H1531 C1541 0.929 . S
H1532 C1536 0.929 . S
H1533 C1542 0.929 . S
C1534 H1528 0.930 . S
C1534 C1535 1.367 . S
C1534 C1542 1.378 . S
C1535 C1534 1.367 . S
C1535 C1543 1.433 . S
C1536 H1532 0.929 . S
C1536 C1538 1.378 . S
C1536 C1540 1.350 . S
C1537 C1540 1.463 . S
C1537 C1542 1.350 . S
C1537 N1545 1.427 . S
C1538 H1529 0.930 . S
C1538 C1536 1.378 . S
C1538 C1539 1.367 . S
C1539 C1538 1.367 . S
C1539 C1541 1.433 . S
C1540 C1536 1.350 . S
C1540 C1537 1.463 . S
C1540 N1544 1.427 . S
C1541 H1531 0.929 . S
C1541 C1539 1.433 . S
C1541 N1544 1.384 . S
C1542 H1533 0.929 . S
C1542 C1534 1.378 . S
C1542 C1537 1.350 . S
C1543 H1530 0.929 . S
C1543 C1535 1.433 . S
C1543 N1545 1.384 . S
N1544 C1540 1.427 . S
N1544 C1541 1.384 . S
N1545 C1537 1.427 . S
N1545 C1543 1.384 . S
H1546 C1552 0.930 . S
H1547 C1556 0.930 . S
H1548 C1561 0.929 . S
H1549 C1559 0.929 . S
H1550 C1554 0.929 . S
H1551 C1560 0.929 . S
C1552 H1546 0.930 . S
C1552 C1553 1.367 . S
C1552 C1560 1.378 . S
C1553 C1552 1.367 . S
C1553 C1561 1.433 . S
C1554 H1550 0.929 . S
C1554 C1556 1.378 . S
C1554 C1558 1.350 . S
C1555 C1558 1.463 . S
C1555 C1560 1.350 . S
C1555 N1563 1.427 . S
C1556 H1547 0.930 . S
C1556 C1554 1.378 . S
C1556 C1557 1.367 . S
C1557 C1556 1.367 . S
C1557 C1559 1.433 . S
C1558 C1554 1.350 . S
C1558 C1555 1.463 . S
C1558 N1562 1.427 . S
C1559 H1549 0.929 . S
C1559 C1557 1.433 . S
C1559 N1562 1.384 . S
C1560 H1551 0.929 . S
C1560 C1552 1.378 . S
C1560 C1555 1.350 . S
C1561 H1548 0.929 . S
C1561 C1553 1.433 . S
C1561 N1563 1.384 . S
N1562 C1558 1.427 . S
N1562 C1559 1.384 . S
N1563 C1555 1.427 . S
N1563 C1561 1.384 . S
H1564 C1570 0.930 . S
H1565 C1574 0.930 . S
H1566 C1579 0.929 . S
H1567 C1577 0.929 . S
H1568 C1572 0.929 . S
H1569 C1578 0.929 . S
C1570 H1564 0.930 . S
C1570 C1571 1.367 . S
C1570 C1578 1.378 . S
C1571 C1570 1.367 . S
C1571 C1579 1.433 . S
C1572 H1568 0.929 . S
C1572 C1574 1.378 . S
C1572 C1576 1.350 . S
C1573 C1576 1.463 . S
C1573 C1578 1.350 . S
C1573 N1581 1.427 . S
C1574 H1565 0.930 . S
C1574 C1572 1.378 . S
C1574 C1575 1.367 . S
C1575 C1574 1.367 . S
C1575 C1577 1.433 . S
C1576 C1572 1.350 . S
C1576 C1573 1.463 . S
C1576 N1580 1.427 . S
C1577 H1567 0.929 . S
C1577 C1575 1.433 . S
C1577 N1580 1.384 . S
C1578 H1569 0.929 . S
C1578 C1570 1.378 . S
C1578 C1573 1.350 . S
C1579 H1566 0.929 . S
C1579 C1571 1.433 . S
C1579 N1581 1.384 . S
N1580 C1576 1.427 . S
N1580 C1577 1.384 . S
N1581 C1573 1.427 . S
N1581 C1579 1.384 . S
H1582 C1588 0.930 . S
H1583 C1592 0.930 . S
H1584 C1597 0.929 . S
H1585 C1595 0.929 . S
H1586 C1590 0.929 . S
H1587 C1596 0.929 . S
C1588 H1582 0.930 . S
C1588 C1589 1.367 . S
C1588 C1596 1.378 . S
C1589 C1588 1.367 . S
C1589 C1597 1.433 . S
C1590 H1586 0.929 . S
C1590 C1592 1.378 . S
C1590 C1594 1.350 . S
C1591 C1594 1.463 . S
C1591 C1596 1.350 . S
C1591 N1599 1.427 . S
C1592 H1583 0.930 . S
C1592 C1590 1.378 . S
C1592 C1593 1.367 . S
C1593 C1592 1.367 . S
C1593 C1595 1.433 . S
C1594 C1590 1.350 . S
C1594 C1591 1.463 . S
C1594 N1598 1.427 . S
C1595 H1585 0.929 . S
C1595 C1593 1.433 . S
C1595 N1598 1.384 . S
C1596 H1587 0.929 . S
C1596 C1588 1.378 . S
C1596 C1591 1.350 . S
C1597 H1584 0.929 . S
C1597 C1589 1.433 . S
C1597 N1599 1.384 . S
N1598 C1594 1.427 . S
N1598 C1595 1.384 . S
N1599 C1591 1.427 . S
N1599 C1597 1.384 . S
C455 C415 1.653 . S
C459 C9 1.646 . S
C473 C23 1.653 . S
C477 C429 1.646 . S
C491 C443 1.651 . S
C495 C37 1.648 . S
C509 C401 1.654 . S
C513 C51 1.646 . S
C527 C65 1.651 . S
C531 C387 1.648 . S
C545 C345 1.647 . S
C549 C79 1.652 . S
C563 C93 1.646 . S
C567 C359 1.653 . S
C581 C373 1.651 . S
C585 C107 1.648 . S
C599 C121 1.646 . S
C603 C303 1.653 . S
C617 C135 1.652 . S
C621 C317 1.648 . S
C635 C331 1.646 . S
C639 C149 1.653 . S
C653 C163 1.649 . S
C657 C289 1.650 . S
C671 C275 1.648 . S
C675 C177 1.651 . S
C689 C233 1.646 . S
C693 C191 1.653 . S
C707 C205 1.646 . S
C711 C247 1.653 . S
C725 C219 1.649 . S
C729 C261 1.650 . S
C743 C7 1.421 . S
C747 C147 1.429 . S
C761 C161 1.425 . S
C765 C21 1.425 . S
C779 C119 1.429 . S
C783 C35 1.421 . S
C797 C133 1.426 . S
C801 C49 1.425 . S
C815 C63 1.428 . S
C819 C203 1.423 . S
C833 C217 1.424 . S
C837 C77 1.426 . S
C851 C175 1.418 . S
C855 C91 1.432 . S
C869 C189 1.426 . S
C873 C105 1.425 . S
C887 C231 1.422 . S
C891 C371 1.428 . S
C905 C385 1.427 . S
C909 C245 1.424 . S
C923 C343 1.432 . S
C927 C259 1.418 . S
C941 C273 1.419 . S
C945 C357 1.431 . S
C959 C287 1.429 . S
C963 C427 1.422 . S
C977 C441 1.429 . S
C981 C301 1.422 . S
C995 C399 1.419 . S
C999 C315 1.432 . S
C1013 C329 1.430 . S
C1017 C413 1.421 . S
C1031 C6 1.576 . S
C1035 C62 1.583 . S
C1049 C20 1.582 . S
C1053 C76 1.574 . S
C1067 C90 1.569 . S
C1071 C34 1.576 . S
C1085 C48 1.570 . S
C1089 C104 1.576 . S
C1103 C118 1.571 . S
C1107 C174 1.571 . S
C1121 C188 1.574 . S
C1125 C132 1.569 . S
C1139 C202 1.570 . S
C1143 C146 1.577 . S
C1157 C160 1.575 . S
C1161 C216 1.583 . S
C1175 C230 1.580 . S
C1179 C286 1.583 . S
C1193 C300 1.583 . S
C1197 C244 1.578 . S
C1211 C258 1.580 . S
C1215 C314 1.583 . S
C1229 C328 1.579 . S
C1233 C272 1.583 . S
C1247 C398 1.583 . S
C1251 C342 1.578 . S
C1265 C356 1.583 . S
C1269 C412 1.577 . S
C1283 C370 1.582 . S
C1287 C426 1.574 . S
C1301 C384 1.582 . S
C1305 C440 1.581 . S
C1319 C8 1.402 . S
C1323 C78 1.402 . S
C1337 C22 1.396 . S
C1341 C92 1.396 . S
C1355 C106 1.402 . S
C1359 C36 1.402 . S
C1373 C64 1.403 . S
C1377 C50 1.403 . S
C1391 C190 1.404 . S
C1395 C120 1.404 . S
C1409 C204 1.397 . S
C1413 C134 1.396 . S
C1427 C218 1.396 . S
C1431 C148 1.396 . S
C1445 C162 1.396 . S
C1449 C176 1.396 . S
C1463 C232 1.399 . S
C1467 C302 1.399 . S
C1481 C316 1.403 . S
C1485 C246 1.404 . S
C1499 C330 1.403 . S
C1503 C260 1.403 . S
C1517 C274 1.400 . S
C1521 C288 1.400 . S
C1535 C414 1.402 . S
C1539 C344 1.401 . S
C1553 C358 1.403 . S
C1557 C428 1.403 . S
C1571 C372 1.397 . S
C1575 C442 1.396 . S
C1589 C400 1.399 . S
C1593 C386 1.399 . S
