# Generated by pormake.
# Topology yft, (5)-cn, num edge types: 1
# Building blocks:
#     Node 0, Type 0, BuildingBlock: BEQFEK_clean_sbu_0, # of connection points: 5
#     Node 1, Type 0, BuildingBlock: BEQFEK_clean_sbu_0, # of connection points: 5
#     Node 2, Type 0, BuildingBlock: BEQFEK_clean_sbu_0, # of connection points: 5
#     Node 3, Type 0, BuildingBlock: BEQFEK_clean_sbu_0, # of connection points: 5
#     Node 4, Type 0, BuildingBlock: BEQFEK_clean_sbu_0, # of connection points: 5
#     Node 5, Type 0, BuildingBlock: BEQFEK_clean_sbu_0, # of connection points: 5
#     Node 6, Type 0, BuildingBlock: BEQFEK_clean_sbu_0, # of connection points: 5
#     Node 7, Type 0, BuildingBlock: BEQFEK_clean_sbu_0, # of connection points: 5
#     Node 8, Type 0, BuildingBlock: BEQFEK_clean_sbu_0, # of connection points: 5
#     Node 9, Type 0, BuildingBlock: BEQFEK_clean_sbu_0, # of connection points: 5
#     Node 10, Type 0, BuildingBlock: BEQFEK_clean_sbu_0, # of connection points: 5
#     Node 11, Type 0, BuildingBlock: BEQFEK_clean_sbu_0, # of connection points: 5
#     Node 12, Type 0, BuildingBlock: BEQFEK_clean_sbu_0, # of connection points: 5
#     Node 13, Type 0, BuildingBlock: BEQFEK_clean_sbu_0, # of connection points: 5
#     Node 14, Type 0, BuildingBlock: BEQFEK_clean_sbu_0, # of connection points: 5
#     Node 15, Type 0, BuildingBlock: BEQFEK_clean_sbu_0, # of connection points: 5
#     Node 16, Type 0, BuildingBlock: BEQFEK_clean_sbu_0, # of connection points: 5
#     Node 17, Type 0, BuildingBlock: BEQFEK_clean_sbu_0, # of connection points: 5
#     Node 18, Type 0, BuildingBlock: BEQFEK_clean_sbu_0, # of connection points: 5
#     Node 19, Type 0, BuildingBlock: BEQFEK_clean_sbu_0, # of connection points: 5
#     Node 20, Type 0, BuildingBlock: BEQFEK_clean_sbu_0, # of connection points: 5
#     Node 21, Type 0, BuildingBlock: BEQFEK_clean_sbu_0, # of connection points: 5
#     Node 22, Type 0, BuildingBlock: BEQFEK_clean_sbu_0, # of connection points: 5
#     Node 23, Type 0, BuildingBlock: BEQFEK_clean_sbu_0, # of connection points: 5
#     Node 24, Type 0, BuildingBlock: BEQFEK_clean_sbu_0, # of connection points: 5
#     Node 25, Type 0, BuildingBlock: BEQFEK_clean_sbu_0, # of connection points: 5
#     Node 26, Type 0, BuildingBlock: BEQFEK_clean_sbu_0, # of connection points: 5
#     Node 27, Type 0, BuildingBlock: BEQFEK_clean_sbu_0, # of connection points: 5
#     Node 28, Type 0, BuildingBlock: BEQFEK_clean_sbu_0, # of connection points: 5
#     Node 29, Type 0, BuildingBlock: BEQFEK_clean_sbu_0, # of connection points: 5
#     Node 30, Type 0, BuildingBlock: BEQFEK_clean_sbu_0, # of connection points: 5
#     Node 31, Type 0, BuildingBlock: BEQFEK_clean_sbu_0, # of connection points: 5
#     Edge 32, Type (0, 0), BuildingBlock: XUDNAN_clean_linker_2, # of connection points: 2
#     Edge 33, Type (0, 0), BuildingBlock: XUDNAN_clean_linker_2, # of connection points: 2
#     Edge 34, Type (0, 0), BuildingBlock: XUDNAN_clean_linker_2, # of connection points: 2
#     Edge 35, Type (0, 0), BuildingBlock: XUDNAN_clean_linker_2, # of connection points: 2
#     Edge 36, Type (0, 0), BuildingBlock: XUDNAN_clean_linker_2, # of connection points: 2
#     Edge 37, Type (0, 0), BuildingBlock: XUDNAN_clean_linker_2, # of connection points: 2
#     Edge 38, Type (0, 0), BuildingBlock: XUDNAN_clean_linker_2, # of connection points: 2
#     Edge 39, Type (0, 0), BuildingBlock: XUDNAN_clean_linker_2, # of connection points: 2
#     Edge 40, Type (0, 0), BuildingBlock: XUDNAN_clean_linker_2, # of connection points: 2
#     Edge 41, Type (0, 0), BuildingBlock: XUDNAN_clean_linker_2, # of connection points: 2
#     Edge 42, Type (0, 0), BuildingBlock: XUDNAN_clean_linker_2, # of connection points: 2
#     Edge 43, Type (0, 0), BuildingBlock: XUDNAN_clean_linker_2, # of connection points: 2
#     Edge 44, Type (0, 0), BuildingBlock: XUDNAN_clean_linker_2, # of connection points: 2
#     Edge 45, Type (0, 0), BuildingBlock: XUDNAN_clean_linker_2, # of connection points: 2
#     Edge 46, Type (0, 0), BuildingBlock: XUDNAN_clean_linker_2, # of connection points: 2
#     Edge 47, Type (0, 0), BuildingBlock: XUDNAN_clean_linker_2, # of connection points: 2
#     Edge 48, Type (0, 0), BuildingBlock: XUDNAN_clean_linker_2, # of connection points: 2
#     Edge 49, Type (0, 0), BuildingBlock: XUDNAN_clean_linker_2, # of connection points: 2
#     Edge 50, Type (0, 0), BuildingBlock: XUDNAN_clean_linker_2, # of connection points: 2
#     Edge 51, Type (0, 0), BuildingBlock: XUDNAN_clean_linker_2, # of connection points: 2
#     Edge 52, Type (0, 0), BuildingBlock: XUDNAN_clean_linker_2, # of connection points: 2
#     Edge 53, Type (0, 0), BuildingBlock: XUDNAN_clean_linker_2, # of connection points: 2
#     Edge 54, Type (0, 0), BuildingBlock: XUDNAN_clean_linker_2, # of connection points: 2
#     Edge 55, Type (0, 0), BuildingBlock: XUDNAN_clean_linker_2, # of connection points: 2
#     Edge 56, Type (0, 0), BuildingBlock: XUDNAN_clean_linker_2, # of connection points: 2
#     Edge 57, Type (0, 0), BuildingBlock: XUDNAN_clean_linker_2, # of connection points: 2
#     Edge 58, Type (0, 0), BuildingBlock: XUDNAN_clean_linker_2, # of connection points: 2
#     Edge 59, Type (0, 0), BuildingBlock: XUDNAN_clean_linker_2, # of connection points: 2
#     Edge 60, Type (0, 0), BuildingBlock: XUDNAN_clean_linker_2, # of connection points: 2
#     Edge 61, Type (0, 0), BuildingBlock: XUDNAN_clean_linker_2, # of connection points: 2
#     Edge 62, Type (0, 0), BuildingBlock: XUDNAN_clean_linker_2, # of connection points: 2
#     Edge 63, Type (0, 0), BuildingBlock: XUDNAN_clean_linker_2, # of connection points: 2
#     Edge 64, Type (0, 0), BuildingBlock: XUDNAN_clean_linker_2, # of connection points: 2
#     Edge 65, Type (0, 0), BuildingBlock: XUDNAN_clean_linker_2, # of connection points: 2
#     Edge 66, Type (0, 0), BuildingBlock: XUDNAN_clean_linker_2, # of connection points: 2
#     Edge 67, Type (0, 0), BuildingBlock: XUDNAN_clean_linker_2, # of connection points: 2
#     Edge 68, Type (0, 0), BuildingBlock: XUDNAN_clean_linker_2, # of connection points: 2
#     Edge 69, Type (0, 0), BuildingBlock: XUDNAN_clean_linker_2, # of connection points: 2
#     Edge 70, Type (0, 0), BuildingBlock: XUDNAN_clean_linker_2, # of connection points: 2
#     Edge 71, Type (0, 0), BuildingBlock: XUDNAN_clean_linker_2, # of connection points: 2
#     Edge 72, Type (0, 0), BuildingBlock: XUDNAN_clean_linker_2, # of connection points: 2
#     Edge 73, Type (0, 0), BuildingBlock: XUDNAN_clean_linker_2, # of connection points: 2
#     Edge 74, Type (0, 0), BuildingBlock: XUDNAN_clean_linker_2, # of connection points: 2
#     Edge 75, Type (0, 0), BuildingBlock: XUDNAN_clean_linker_2, # of connection points: 2
#     Edge 76, Type (0, 0), BuildingBlock: XUDNAN_clean_linker_2, # of connection points: 2
#     Edge 77, Type (0, 0), BuildingBlock: XUDNAN_clean_linker_2, # of connection points: 2
#     Edge 78, Type (0, 0), BuildingBlock: XUDNAN_clean_linker_2, # of connection points: 2
#     Edge 79, Type (0, 0), BuildingBlock: XUDNAN_clean_linker_2, # of connection points: 2
#     Edge 80, Type (0, 0), BuildingBlock: XUDNAN_clean_linker_2, # of connection points: 2
#     Edge 81, Type (0, 0), BuildingBlock: XUDNAN_clean_linker_2, # of connection points: 2
#     Edge 82, Type (0, 0), BuildingBlock: XUDNAN_clean_linker_2, # of connection points: 2
#     Edge 83, Type (0, 0), BuildingBlock: XUDNAN_clean_linker_2, # of connection points: 2
#     Edge 84, Type (0, 0), BuildingBlock: XUDNAN_clean_linker_2, # of connection points: 2
#     Edge 85, Type (0, 0), BuildingBlock: XUDNAN_clean_linker_2, # of connection points: 2
#     Edge 86, Type (0, 0), BuildingBlock: XUDNAN_clean_linker_2, # of connection points: 2
#     Edge 87, Type (0, 0), BuildingBlock: XUDNAN_clean_linker_2, # of connection points: 2
#     Edge 88, Type (0, 0), BuildingBlock: XUDNAN_clean_linker_2, # of connection points: 2
#     Edge 89, Type (0, 0), BuildingBlock: XUDNAN_clean_linker_2, # of connection points: 2
#     Edge 90, Type (0, 0), BuildingBlock: XUDNAN_clean_linker_2, # of connection points: 2
#     Edge 91, Type (0, 0), BuildingBlock: XUDNAN_clean_linker_2, # of connection points: 2
#     Edge 92, Type (0, 0), BuildingBlock: XUDNAN_clean_linker_2, # of connection points: 2
#     Edge 93, Type (0, 0), BuildingBlock: XUDNAN_clean_linker_2, # of connection points: 2
#     Edge 94, Type (0, 0), BuildingBlock: XUDNAN_clean_linker_2, # of connection points: 2
#     Edge 95, Type (0, 0), BuildingBlock: XUDNAN_clean_linker_2, # of connection points: 2
#     Edge 96, Type (0, 0), BuildingBlock: XUDNAN_clean_linker_2, # of connection points: 2
#     Edge 97, Type (0, 0), BuildingBlock: XUDNAN_clean_linker_2, # of connection points: 2
#     Edge 98, Type (0, 0), BuildingBlock: XUDNAN_clean_linker_2, # of connection points: 2
#     Edge 99, Type (0, 0), BuildingBlock: XUDNAN_clean_linker_2, # of connection points: 2
#     Edge 100, Type (0, 0), BuildingBlock: XUDNAN_clean_linker_2, # of connection points: 2
#     Edge 101, Type (0, 0), BuildingBlock: XUDNAN_clean_linker_2, # of connection points: 2
#     Edge 102, Type (0, 0), BuildingBlock: XUDNAN_clean_linker_2, # of connection points: 2
#     Edge 103, Type (0, 0), BuildingBlock: XUDNAN_clean_linker_2, # of connection points: 2
#     Edge 104, Type (0, 0), BuildingBlock: XUDNAN_clean_linker_2, # of connection points: 2
#     Edge 105, Type (0, 0), BuildingBlock: XUDNAN_clean_linker_2, # of connection points: 2
#     Edge 106, Type (0, 0), BuildingBlock: XUDNAN_clean_linker_2, # of connection points: 2
#     Edge 107, Type (0, 0), BuildingBlock: XUDNAN_clean_linker_2, # of connection points: 2
#     Edge 108, Type (0, 0), BuildingBlock: XUDNAN_clean_linker_2, # of connection points: 2
#     Edge 109, Type (0, 0), BuildingBlock: XUDNAN_clean_linker_2, # of connection points: 2
#     Edge 110, Type (0, 0), BuildingBlock: XUDNAN_clean_linker_2, # of connection points: 2
#     Edge 111, Type (0, 0), BuildingBlock: XUDNAN_clean_linker_2, # of connection points: 2
# Relax obj value: 0.344
# Max RMSD: 0.209
# Mean RMSD: 0.209
data_MOF--net-yft--node1-BEQFEK_clean_sbu_0--edge1-XUDNAN_clean_linker_2
_symmetry_space_group_name_H-M    P1
_symmetry_Int_Tables_number       1
_symmetry_cell_setting            triclinic
loop_
_symmetry_equiv_pos_as_xyz
'x, y, z'
_cell_length_a     48.780833
_cell_length_b     48.768725
_cell_length_c     80.257426
_cell_angle_alpha  90.015146
_cell_angle_beta   90.010263
_cell_angle_gamma 90.017573
loop_
_atom_site_label
_atom_site_type_symbol
_atom_site_fract_x
_atom_site_fract_y
_atom_site_fract_z
_atom_type_partial_charge
Co0 Co 0.37491 0.18945 0.17622 0.0
Co1 Co 0.32144 0.15691 0.16739 0.0
C2 C 0.37636 0.13403 0.15965 0.0
O3 O 0.38755 0.15505 0.16607 0.0
O4 O 0.35041 0.13154 0.15916 0.0
C5 C 0.42067 0.20158 0.19836 0.0
O6 O 0.41086 0.18264 0.20835 0.0
C7 C 0.27952 0.11775 0.15604 0.0
C8 C 0.24151 0.14145 0.15993 0.0
C9 C 0.25149 0.11743 0.15305 0.0
N10 N 0.28589 0.14107 0.16412 0.0
N11 N 0.26299 0.15503 0.1665 0.0
C12 C 0.30004 0.09654 0.15097 0.0
H13 H 0.31144 0.10397 0.1399 0.0
H14 H 0.31489 0.09318 0.16124 0.0
H15 H 0.28996 0.07677 0.14792 0.0
C16 C 0.34502 0.19833 0.2069 0.0
N17 N 0.34854 0.18422 0.19274 0.0
N18 N 0.32739 0.16808 0.19016 0.0
C19 C 0.31082 0.16945 0.20363 0.0
C20 C 0.32137 0.18893 0.21477 0.0
C21 C 0.35964 0.22493 0.21015 0.0
H22 H 0.369 0.23286 0.19853 0.0
H23 H 0.37602 0.22178 0.21953 0.0
H24 H 0.34526 0.24074 0.21487 0.0
O25 O 0.35902 0.21325 0.15945 0.0
O26 O 0.32137 0.19018 0.15251 0.0
H27 H 0.26755 0.16408 0.20077 0.0
H28 H 0.28178 0.14783 0.21895 0.0
C29 C 0.28543 0.15256 0.20561 0.0
H30 H 0.2873 0.13318 0.19845 0.0
H31 H 0.26223 0.17463 0.17171 0.0
O32 O 0.4083 0.20731 0.18487 0.0
C33 C 0.33719 0.21084 0.15095 0.0
Co34 Co 0.05696 0.11785 0.42735 0.0
Co35 Co 0.07642 0.0599 0.41477 0.0
C36 C 0.10924 0.11064 0.40842 0.0
O37 O 0.09278 0.12513 0.41701 0.0
O38 O 0.10513 0.08512 0.40613 0.0
C39 C 0.05256 0.16583 0.44979 0.0
O40 O 0.0727 0.15553 0.45867 0.0
C41 C 0.11165 0.01193 0.40793 0.0
C42 C 0.08085 0.97873 0.40667 0.0
C43 C 0.10869 0.98392 0.40558 0.0
N44 N 0.08663 0.02282 0.41035 0.0
N45 N 0.06832 0.00289 0.40939 0.0
C46 C 0.13778 0.02789 0.40888 0.0
H47 H 0.13607 0.04405 0.41856 0.0
H48 H 0.15544 0.01433 0.41171 0.0
H49 H 0.14142 0.03808 0.39671 0.0
C50 C 0.04827 0.08574 0.45828 0.0
N51 N 0.05881 0.08874 0.44287 0.0
N52 N 0.06927 0.06519 0.43795 0.0
C53 C 0.06681 0.04685 0.45041 0.0
C54 C 0.05313 0.05913 0.4636 0.0
C55 C 0.02936 0.10599 0.46635 0.0
H56 H 0.01944 0.11908 0.45682 0.0
H57 H 0.04127 0.11909 0.47503 0.0
H58 H 0.01319 0.09543 0.47365 0.0
O59 O 0.0308 0.10844 0.40957 0.0
O60 O 0.04205 0.06606 0.40193 0.0
H61 H 0.06039 0.00546 0.44257 0.0
H62 H 0.07825 0.00868 0.4621 0.0
C63 C 0.07592 0.0176 0.44945 0.0
H64 H 0.09578 0.01622 0.4428 0.0
H65 H 0.04725 0.00575 0.41085 0.0
O66 O 0.04373 0.15296 0.43709 0.0
C67 C 0.02666 0.08704 0.40086 0.0
Co68 Co 0.13736 0.79891 0.68481 0.0
Co69 Co 0.18062 0.82354 0.66007 0.0
C70 C 0.12307 0.84386 0.66084 0.0
O71 O 0.11733 0.82747 0.67259 0.0
O72 O 0.14688 0.84463 0.65442 0.0
C73 C 0.0921 0.80016 0.70702 0.0
O74 O 0.0924 0.82638 0.70328 0.0
C75 C 0.21888 0.86534 0.64762 0.0
C76 C 0.24775 0.84029 0.63287 0.0
C77 C 0.24278 0.86694 0.63813 0.0
N78 N 0.21071 0.83902 0.64813 0.0
N79 N 0.2279 0.8242 0.63917 0.0
C80 C 0.20351 0.88808 0.65596 0.0
H81 H 0.18204 0.88198 0.65844 0.0
H82 H 0.21325 0.89269 0.66814 0.0
H83 H 0.20373 0.90683 0.64813 0.0
C84 C 0.18252 0.80304 0.70777 0.0
N85 N 0.17035 0.81189 0.69374 0.0
N86 N 0.18894 0.82182 0.68349 0.0
C87 C 0.21369 0.81974 0.69088 0.0
C88 C 0.21064 0.80702 0.7063 0.0
C89 C 0.1683 0.78456 0.71993 0.0
H90 H 0.14919 0.79457 0.72428 0.0
H91 H 0.18122 0.77971 0.73089 0.0
H92 H 0.16257 0.76518 0.71357 0.0
O93 O 0.14629 0.76781 0.66995 0.0
O94 O 0.17579 0.78559 0.65175 0.0
H95 H 0.24245 0.81027 0.67158 0.0
H96 H 0.25801 0.82234 0.69069 0.0
C97 C 0.24031 0.82482 0.68213 0.0
H98 H 0.24055 0.84598 0.67714 0.0
H99 H 0.22632 0.80303 0.63756 0.0
O100 O 0.1113 0.78485 0.70172 0.0
C101 C 0.16182 0.7655 0.65728 0.0
Co102 Co 0.45037 0.88252 0.92768 0.0
Co103 Co 0.41897 0.92985 0.90929 0.0
C104 C 0.39767 0.87302 0.90891 0.0
O105 O 0.41844 0.86531 0.91721 0.0
O106 O 0.39402 0.89816 0.90532 0.0
C107 C 0.45248 0.83841 0.95082 0.0
O108 O 0.42624 0.84404 0.95219 0.0
C109 C 0.37692 0.97238 0.90374 0.0
C110 C 0.39669 0.99763 0.88429 0.0
C111 C 0.37303 0.99525 0.89371 0.0
N112 N 0.40186 0.96191 0.90048 0.0
N113 N 0.41352 0.9771 0.88883 0.0
C114 C 0.35692 0.95976 0.91561 0.0
H115 H 0.36205 0.93792 0.91786 0.0
H116 H 0.35792 0.97073 0.92771 0.0
H117 H 0.33572 0.96157 0.91071 0.0
C118 C 0.45433 0.92357 0.9535 0.0
N119 N 0.44146 0.9142 0.93983 0.0
N120 N 0.4293 0.93468 0.93211 0.0
C121 C 0.43431 0.95794 0.94068 0.0
C122 C 0.4506 0.95175 0.95443 0.0
C123 C 0.4753 0.90703 0.96274 0.0
H124 H 0.491 0.89949 0.95384 0.0
H125 H 0.46517 0.88893 0.96839 0.0
H126 H 0.48558 0.9189 0.97272 0.0
O127 O 0.4765 0.89293 0.91008 0.0
O128 O 0.45284 0.92422 0.89591 0.0
H129 H 0.43851 0.98909 0.92208 0.0
H130 H 0.43464 0.00223 0.94307 0.0
C131 C 0.42807 0.98604 0.93421 0.0
H132 H 0.40571 0.98802 0.93219 0.0
H133 H 0.43292 0.97333 0.88386 0.0
O134 O 0.46737 0.85347 0.94158 0.0
C135 C 0.47425 0.90964 0.89795 0.0
Co136 Co 0.35938 0.80208 0.31539 0.0
Co137 Co 0.30817 0.8255 0.33458 0.0
C138 C 0.3605 0.85688 0.3324 0.0
O139 O 0.37144 0.83807 0.32368 0.0
O140 O 0.33601 0.85495 0.33779 0.0
C141 C 0.40553 0.80071 0.29253 0.0
O142 O 0.40233 0.8274 0.29153 0.0
C143 C 0.26499 0.85838 0.35168 0.0
C144 C 0.23465 0.82563 0.35654 0.0
C145 C 0.23992 0.85312 0.35938 0.0
N146 N 0.27377 0.83498 0.3445 0.0
N147 N 0.25553 0.81558 0.34752 0.0
C148 C 0.28227 0.88364 0.35311 0.0
H149 H 0.30241 0.87813 0.35857 0.0
H150 H 0.28609 0.89207 0.34048 0.0
H151 H 0.27269 0.89951 0.36108 0.0
C152 C 0.3183 0.792 0.28995 0.0
N153 N 0.32597 0.80483 0.30401 0.0
N154 N 0.30424 0.81477 0.31165 0.0
C155 C 0.28195 0.80883 0.30236 0.0
C156 C 0.29005 0.79376 0.28851 0.0
C157 C 0.33708 0.77369 0.28022 0.0
H158 H 0.34645 0.75841 0.28873 0.0
H159 H 0.35385 0.78621 0.27483 0.0
H160 H 0.32637 0.76277 0.27001 0.0
O161 O 0.35501 0.77581 0.33389 0.0
O162 O 0.31961 0.79315 0.34763 0.0
H163 H 0.24536 0.79787 0.31539 0.0
H164 H 0.23962 0.81574 0.29617 0.0
C165 C 0.25301 0.81469 0.30735 0.0
H166 H 0.25185 0.83434 0.31425 0.0
H167 H 0.25795 0.79511 0.34405 0.0
O168 O 0.38896 0.78673 0.30131 0.0
C169 C 0.33804 0.77496 0.34591 0.0
Co170 Co 0.4361 0.12355 0.5658 0.0
Co171 Co 0.41828 0.06708 0.5809 0.0
C172 C 0.38741 0.12008 0.58734 0.0
O173 O 0.4019 0.13385 0.57716 0.0
O174 O 0.39231 0.09482 0.59005 0.0
C175 C 0.4402 0.17155 0.54329 0.0
O176 O 0.41598 0.1655 0.53716 0.0
C177 C 0.3798 0.0247 0.59176 0.0
C178 C 0.4065 0.98849 0.59482 0.0
C179 C 0.37981 0.99756 0.59676 0.0
N180 N 0.40536 0.03158 0.58715 0.0
N181 N 0.42123 0.00979 0.58895 0.0
C182 C 0.35573 0.04367 0.59111 0.0
H183 H 0.35749 0.05747 0.58017 0.0
H184 H 0.33621 0.03202 0.59038 0.0
H185 H 0.35545 0.05639 0.60257 0.0
C186 C 0.43905 0.08967 0.53522 0.0
N187 N 0.43145 0.09344 0.55119 0.0
N188 N 0.42275 0.06998 0.55737 0.0
C189 C 0.42395 0.0507 0.54536 0.0
C190 C 0.43441 0.06248 0.53097 0.0
C191 C 0.45498 0.11024 0.5253 0.0
H192 H 0.46908 0.12176 0.53356 0.0
H193 H 0.44053 0.12487 0.51942 0.0
H194 H 0.46723 0.10037 0.51532 0.0
O195 O 0.46365 0.11457 0.583 0.0
O196 O 0.45417 0.07259 0.59209 0.0
H197 H 0.43406 0.0112 0.55503 0.0
H198 H 0.41477 0.01026 0.53586 0.0
C199 C 0.41723 0.02107 0.54794 0.0
H200 H 0.39801 0.01914 0.55521 0.0
H201 H 0.44225 0.00964 0.58653 0.0
O202 O 0.45076 0.15646 0.5545 0.0
C203 C 0.4692 0.09392 0.59209 0.0
Co204 Co 0.12937 0.19311 0.81791 0.0
Co205 Co 0.17859 0.1748 0.84059 0.0
C206 C 0.12692 0.14243 0.83893 0.0
O207 O 0.11691 0.15841 0.82801 0.0
O208 O 0.15043 0.14667 0.84522 0.0
C209 C 0.08954 0.20296 0.78872 0.0
O210 O 0.1034 0.18916 0.77749 0.0
C211 C 0.22219 0.13905 0.85356 0.0
C212 C 0.24294 0.16683 0.87129 0.0
C213 C 0.24251 0.14003 0.86563 0.0
N214 N 0.21106 0.16417 0.85217 0.0
N215 N 0.22383 0.18075 0.86265 0.0
C216 C 0.2116 0.11417 0.84476 0.0
H217 H 0.20348 0.09939 0.85405 0.0
H218 H 0.19524 0.11976 0.83578 0.0
H219 H 0.22855 0.10395 0.83797 0.0
C220 C 0.1747 0.20309 0.79459 0.0
N221 N 0.16442 0.19007 0.808 0.0
N222 N 0.18485 0.18111 0.81731 0.0
C223 C 0.2087 0.18731 0.80973 0.0
C224 C 0.20311 0.20171 0.79519 0.0
C225 C 0.15837 0.22256 0.78408 0.0
H226 H 0.14001 0.2297 0.7909 0.0
H227 H 0.15197 0.21197 0.77248 0.0
H228 H 0.17063 0.24079 0.78048 0.0
O229 O 0.1324 0.2225 0.83461 0.0
O230 O 0.16713 0.20991 0.85085 0.0
H231 H 0.23846 0.19727 0.82834 0.0
H232 H 0.25301 0.18727 0.8085 0.0
C233 C 0.23626 0.18324 0.81754 0.0
H234 H 0.23803 0.16187 0.82211 0.0
H235 H 0.21868 0.2013 0.86444 0.0
O236 O 0.09849 0.2053 0.80353 0.0
C237 C 0.14836 0.22675 0.84686 0.0
Co238 Co 0.06037 0.8714 0.0696 0.0
Co239 Co 0.08121 0.9291 0.08219 0.0
C240 C 0.11409 0.87782 0.0871 0.0
O241 O 0.09674 0.86305 0.07935 0.0
O242 O 0.11033 0.9034 0.08908 0.0
C243 C 0.05579 0.82276 0.04822 0.0
O244 O 0.0789 0.83067 0.04132 0.0
C245 C 0.11806 0.97666 0.08685 0.0
C246 C 0.09032 0.0055 0.09974 0.0
C247 C 0.11732 0.00205 0.09479 0.0
N248 N 0.09274 0.96567 0.0873 0.0
N249 N 0.07622 0.98326 0.09478 0.0
C250 C 0.1427 0.96204 0.08018 0.0
H251 H 0.13773 0.94066 0.07671 0.0
H252 H 0.14995 0.97261 0.06877 0.0
H253 H 0.15951 0.96238 0.0895 0.0
C254 C 0.04719 0.90441 0.04011 0.0
N255 N 0.06145 0.90098 0.05432 0.0
N256 N 0.07036 0.92504 0.0595 0.0
C257 C 0.06225 0.94445 0.04862 0.0
C258 C 0.04692 0.93209 0.03611 0.0
C259 C 0.03026 0.8824 0.03213 0.0
H260 H 0.01652 0.87301 0.04155 0.0
H261 H 0.04404 0.86627 0.02723 0.0
H262 H 0.0179 0.89035 0.02159 0.0
O263 O 0.03447 0.8815 0.08752 0.0
O264 O 0.0493 0.92194 0.09664 0.0
H265 H 0.05076 0.97948 0.06299 0.0
H266 H 0.05717 0.98699 0.04132 0.0
C267 C 0.06393 0.97455 0.05213 0.0
H268 H 0.08535 0.9801 0.05528 0.0
H269 H 0.05554 0.97951 0.0972 0.0
O270 O 0.04516 0.83712 0.05974 0.0
C271 C 0.03244 0.90208 0.0972 0.0
Co272 Co 0.63545 0.79882 0.81477 0.0
Co273 Co 0.67954 0.82181 0.83959 0.0
C274 C 0.62589 0.8507 0.83286 0.0
O275 O 0.61815 0.83314 0.82216 0.0
O276 O 0.64874 0.8484 0.84036 0.0
C277 C 0.5883 0.79005 0.79393 0.0
O278 O 0.58211 0.81521 0.79839 0.0
C279 C 0.71914 0.86339 0.84972 0.0
C280 C 0.73995 0.84361 0.87101 0.0
C281 C 0.73888 0.86778 0.86193 0.0
N282 N 0.70895 0.83802 0.85166 0.0
N283 N 0.72144 0.82627 0.8644 0.0
C284 C 0.71047 0.88227 0.83601 0.0
H285 H 0.70229 0.8703 0.82535 0.0
H286 H 0.72792 0.89516 0.83184 0.0
H287 H 0.69386 0.89583 0.84063 0.0
C288 C 0.6833 0.79524 0.79293 0.0
N289 N 0.67131 0.80499 0.80677 0.0
N290 N 0.69023 0.81136 0.81776 0.0
C291 C 0.71488 0.80377 0.81183 0.0
C292 C 0.71158 0.79338 0.79568 0.0
C293 C 0.66729 0.78746 0.77774 0.0
H294 H 0.64888 0.80072 0.77664 0.0
H295 H 0.67991 0.78966 0.76631 0.0
H296 H 0.66013 0.76594 0.77893 0.0
O297 O 0.63744 0.77223 0.83384 0.0
O298 O 0.66856 0.78883 0.85135 0.0
H299 H 0.75206 0.78285 0.81943 0.0
H300 H 0.75212 0.81972 0.82208 0.0
C301 C 0.73946 0.80086 0.82291 0.0
H302 H 0.73295 0.79808 0.83601 0.0
H303 H 0.71712 0.80654 0.86869 0.0
O304 O 0.61127 0.78006 0.79831 0.0
C305 C 0.65126 0.77053 0.84731 0.0
Co306 Co 0.93984 0.87119 0.56275 0.0
Co307 Co 0.91181 0.91859 0.58285 0.0
C308 C 0.88403 0.86499 0.57854 0.0
O309 O 0.90368 0.85604 0.56964 0.0
O310 O 0.88459 0.88897 0.58471 0.0
C311 C 0.95732 0.83454 0.53402 0.0
O312 O 0.94381 0.84861 0.52275 0.0
C313 C 0.87114 0.95765 0.59581 0.0
C314 C 0.89785 0.99032 0.60588 0.0
C315 C 0.8707 0.98263 0.60405 0.0
N316 N 0.89741 0.95087 0.5929 0.0
N317 N 0.91326 0.9704 0.59904 0.0
C318 C 0.84713 0.94098 0.59016 0.0
H319 H 0.85175 0.93122 0.57799 0.0
H320 H 0.82846 0.95385 0.589 0.0
H321 H 0.8432 0.9245 0.59939 0.0
C322 C 0.9509 0.91767 0.53985 0.0
N323 N 0.93687 0.90605 0.55248 0.0
N324 N 0.92291 0.92522 0.56036 0.0
C325 C 0.92637 0.94926 0.55238 0.0
C326 C 0.9446 0.94543 0.53933 0.0
C327 C 0.97442 0.90415 0.53111 0.0
H328 H 0.98184 0.88624 0.53828 0.0
H329 H 0.96768 0.89741 0.51856 0.0
H330 H 0.99168 0.91874 0.52942 0.0
O331 O 0.96415 0.8754 0.58219 0.0
O332 O 0.94442 0.90897 0.59648 0.0
H333 H 0.9267 0.98486 0.56792 0.0
H334 H 0.91343 0.9907 0.54731 0.0
C335 C 0.91408 0.9759 0.55781 0.0
H336 H 0.89299 0.97253 0.56253 0.0
H337 H 0.93464 0.97008 0.5986 0.0
O338 O 0.9573 0.84199 0.5492 0.0
C339 C 0.96358 0.89154 0.59464 0.0
Co340 Co 0.86902 0.205 0.31448 0.0
Co341 Co 0.81993 0.17453 0.33175 0.0
C342 C 0.87601 0.15212 0.33379 0.0
O343 O 0.88465 0.17277 0.32569 0.0
O344 O 0.8506 0.14895 0.33682 0.0
C345 C 0.91515 0.20577 0.29266 0.0
O346 O 0.90959 0.17947 0.29157 0.0
C347 C 0.77929 0.13372 0.34323 0.0
C348 C 0.7477 0.16093 0.35402 0.0
C349 C 0.75474 0.13371 0.35188 0.0
N350 N 0.7865 0.1599 0.34031 0.0
N351 N 0.76737 0.17601 0.34667 0.0
C352 C 0.79666 0.10945 0.33905 0.0
H353 H 0.81123 0.10572 0.34943 0.0
H354 H 0.80867 0.11353 0.32757 0.0
H355 H 0.78382 0.09085 0.33741 0.0
C356 C 0.83002 0.2076 0.28723 0.0
N357 N 0.83821 0.19588 0.30153 0.0
N358 N 0.81729 0.18341 0.30862 0.0
C359 C 0.79505 0.18675 0.29887 0.0
C360 C 0.8022 0.2026 0.28513 0.0
C361 C 0.84693 0.2285 0.27818 0.0
H362 H 0.85362 0.24461 0.28706 0.0
H363 H 0.86559 0.21844 0.27319 0.0
H364 H 0.83566 0.2382 0.26774 0.0
O365 O 0.85777 0.23221 0.3313 0.0
O366 O 0.82516 0.20903 0.3445 0.0
H367 H 0.7595 0.19336 0.31388 0.0
H368 H 0.75222 0.18037 0.29328 0.0
C369 C 0.76657 0.17913 0.30399 0.0
H370 H 0.76642 0.15799 0.30908 0.0
H371 H 0.76826 0.19739 0.34654 0.0
O372 O 0.89935 0.22109 0.30116 0.0
C373 C 0.8399 0.23038 0.3428 0.0
Co374 Co 0.55375 0.11938 0.06158 0.0
Co375 Co 0.58161 0.06936 0.07951 0.0
C376 C 0.60366 0.12643 0.08267 0.0
O377 O 0.5854 0.136 0.073 0.0
O378 O 0.60439 0.10119 0.08665 0.0
C379 C 0.54996 0.1663 0.03991 0.0
O380 O 0.57683 0.16459 0.0395 0.0
C381 C 0.62426 0.0325 0.0925 0.0
C382 C 0.60105 0.99408 0.09626 0.0
C383 C 0.62669 0.00581 0.09826 0.0
N384 N 0.5983 0.03644 0.08741 0.0
N385 N 0.58454 0.01339 0.08971 0.0
C386 C 0.64635 0.05369 0.09134 0.0
H387 H 0.64469 0.06782 0.10214 0.0
H388 H 0.64377 0.06586 0.07977 0.0
H389 H 0.66698 0.04409 0.09142 0.0
C390 C 0.55919 0.08339 0.03263 0.0
N391 N 0.5651 0.08956 0.04854 0.0
N392 N 0.57662 0.06828 0.05581 0.0
C393 C 0.5784 0.04777 0.04457 0.0
C394 C 0.56742 0.05667 0.02954 0.0
C395 C 0.54157 0.10099 0.0217 0.0
H396 H 0.52314 0.10762 0.02871 0.0
H397 H 0.55326 0.11958 0.01811 0.0
H398 H 0.53496 0.09021 0.01022 0.0
O399 O 0.52563 0.10671 0.07765 0.0
O400 O 0.54548 0.0717 0.09071 0.0
H401 H 0.57141 0.00883 0.05591 0.0
H402 H 0.59123 0.00729 0.03696 0.0
C403 C 0.58755 0.01925 0.04852 0.0
H404 H 0.60665 0.01989 0.056 0.0
H405 H 0.56375 0.01097 0.08702 0.0
O406 O 0.5364 0.14856 0.04807 0.0
C407 C 0.52514 0.08755 0.0884 0.0
Co408 Co 0.63497 0.2038 0.68182 0.0
Co409 Co 0.68156 0.16889 0.66513 0.0
C410 C 0.6229 0.15391 0.66097 0.0
O411 O 0.61568 0.17491 0.66928 0.0
O412 O 0.64806 0.148 0.65882 0.0
C413 C 0.58642 0.21151 0.70096 0.0
O414 O 0.58392 0.18493 0.69875 0.0
C415 C 0.71673 0.12376 0.65275 0.0
C416 C 0.75677 0.14484 0.65101 0.0
C417 C 0.74414 0.1197 0.6486 0.0
N418 N 0.71363 0.14992 0.65776 0.0
N419 N 0.73757 0.16243 0.65649 0.0
C420 C 0.69323 0.10443 0.6502 0.0
H421 H 0.67694 0.1149 0.643 0.0
H422 H 0.68458 0.09856 0.66248 0.0
H423 H 0.69922 0.08585 0.64316 0.0
C424 C 0.66964 0.19649 0.71106 0.0
N425 N 0.66293 0.18965 0.69537 0.0
N426 N 0.68297 0.17533 0.68867 0.0
C427 C 0.70304 0.1724 0.70013 0.0
C428 C 0.69546 0.18618 0.71457 0.0
C429 C 0.65326 0.21579 0.72162 0.0
H430 H 0.63228 0.20747 0.72323 0.0
H431 H 0.66262 0.21868 0.7341 0.0
H432 H 0.6516 0.2359 0.71523 0.0
O433 O 0.65065 0.22997 0.66589 0.0
O434 O 0.68153 0.20442 0.65276 0.0
H435 H 0.74316 0.17567 0.68973 0.0
H436 H 0.74154 0.15519 0.70832 0.0
C437 C 0.73066 0.16044 0.69661 0.0
H438 H 0.72851 0.14166 0.68894 0.0
H439 H 0.74076 0.18308 0.6593 0.0
O440 O 0.60731 0.22376 0.69513 0.0
C441 C 0.66881 0.22702 0.65465 0.0
Co442 Co 0.54172 0.88862 0.42274 0.0
Co443 Co 0.57054 0.93717 0.40402 0.0
C444 C 0.59377 0.88083 0.4033 0.0
O445 O 0.5744 0.87219 0.41246 0.0
O446 O 0.59513 0.90589 0.39908 0.0
C447 C 0.53434 0.84865 0.44981 0.0
O448 O 0.5545 0.86074 0.45779 0.0
C449 C 0.61367 0.97794 0.39738 0.0
C450 C 0.59336 0.00483 0.37899 0.0
C451 C 0.61791 0.00069 0.3873 0.0
N452 N 0.58776 0.96919 0.39518 0.0
N453 N 0.57573 0.98541 0.3842 0.0
C454 C 0.63424 0.96371 0.40818 0.0
H455 H 0.65451 0.96308 0.4019 0.0
H456 H 0.62738 0.94265 0.41126 0.0
H457 H 0.63658 0.97521 0.42001 0.0
C458 C 0.5367 0.93072 0.44856 0.0
N459 N 0.54932 0.92093 0.43488 0.0
N460 N 0.56196 0.9412 0.42719 0.0
C461 C 0.55828 0.96442 0.43603 0.0
C462 C 0.54196 0.95863 0.44978 0.0
C463 C 0.51466 0.9154 0.45769 0.0
H464 H 0.50443 0.90063 0.44924 0.0
H465 H 0.52402 0.90397 0.46819 0.0
H466 H 0.49892 0.92942 0.46287 0.0
O467 O 0.5149 0.89833 0.40537 0.0
O468 O 0.53557 0.93206 0.39155 0.0
H469 H 0.55522 0.99726 0.41846 0.0
H470 H 0.56239 0.00829 0.43957 0.0
C471 C 0.56654 0.9923 0.43006 0.0
H472 H 0.58874 0.99238 0.42723 0.0
H473 H 0.55564 0.98289 0.38001 0.0
O474 O 0.52598 0.85809 0.43596 0.0
C475 C 0.51516 0.91613 0.39376 0.0
Co476 Co 0.86827 0.80129 0.18636 0.0
Co477 Co 0.82133 0.83184 0.16685 0.0
C478 C 0.87909 0.85147 0.16593 0.0
O479 O 0.88682 0.83255 0.17572 0.0
O480 O 0.85436 0.85354 0.16113 0.0
C481 C 0.91433 0.79628 0.20832 0.0
O482 O 0.91159 0.823 0.20958 0.0
C483 C 0.78274 0.87572 0.15632 0.0
C484 C 0.75109 0.85084 0.1437 0.0
C485 C 0.75818 0.87767 0.14746 0.0
N486 N 0.78953 0.84903 0.15763 0.0
N487 N 0.77045 0.83435 0.15009 0.0
C488 C 0.80024 0.89855 0.16281 0.0
H489 H 0.82106 0.89119 0.16591 0.0
H490 H 0.79099 0.90674 0.17441 0.0
H491 H 0.80158 0.91535 0.15351 0.0
C492 C 0.82727 0.80148 0.21241 0.0
N493 N 0.83717 0.81258 0.19833 0.0
N494 N 0.81722 0.82504 0.19025 0.0
C495 C 0.79394 0.82225 0.19912 0.0
C496 C 0.7993 0.8066 0.21324 0.0
C497 C 0.84267 0.78043 0.22226 0.0
H498 H 0.84713 0.7625 0.21419 0.0
H499 H 0.8625 0.78922 0.22639 0.0
H500 H 0.83102 0.77351 0.23336 0.0
O501 O 0.85617 0.77406 0.1696 0.0
O502 O 0.82413 0.79632 0.15524 0.0
H503 H 0.76099 0.81527 0.18209 0.0
H504 H 0.75023 0.82709 0.20239 0.0
C505 C 0.76609 0.82922 0.19256 0.0
H506 H 0.76603 0.8506 0.18787 0.0
H507 H 0.77085 0.81302 0.1491 0.0
O508 O 0.89663 0.78278 0.20008 0.0
C509 C 0.83848 0.77506 0.15796 0.0
Co510 Co 0.95254 0.11412 0.9338 0.0
Co511 Co 0.92068 0.06783 0.91487 0.0
C512 C 0.90298 0.12541 0.91221 0.0
O513 O 0.92328 0.1324 0.92118 0.0
O514 O 0.89806 0.10034 0.90897 0.0
C515 C 0.95367 0.15991 0.95548 0.0
O516 O 0.92709 0.15551 0.9556 0.0
C517 C 0.87737 0.0299 0.90394 0.0
C518 C 0.9019 0.99592 0.89348 0.0
C519 C 0.87518 0.0046 0.89604 0.0
N520 N 0.9041 0.0358 0.90581 0.0
N521 N 0.91864 0.01545 0.89951 0.0
C522 C 0.85483 0.04757 0.9106 0.0
H523 H 0.86244 0.06013 0.92117 0.0
H524 H 0.83721 0.03488 0.91473 0.0
H525 H 0.8478 0.0617 0.90064 0.0
C526 C 0.9457 0.07585 0.96155 0.0
N527 N 0.93908 0.08426 0.94614 0.0
N528 N 0.92594 0.06449 0.93833 0.0
C529 C 0.92373 0.04279 0.94865 0.0
C530 C 0.93643 0.04919 0.96366 0.0
C531 C 0.96398 0.09167 0.97306 0.0
H532 H 0.98401 0.09534 0.96689 0.0
H533 H 0.95457 0.1119 0.97568 0.0
H534 H 0.96724 0.08076 0.98503 0.0
O535 O 0.98064 0.10119 0.9181 0.0
O536 O 0.95682 0.0707 0.90351 0.0
H537 H 0.92853 0.00699 0.93358 0.0
H538 H 0.9135 0.00031 0.95372 0.0
C539 C 0.91428 0.015 0.94319 0.0
H540 H 0.8936 0.01666 0.93756 0.0
H541 H 0.94002 0.01492 0.8993 0.0
O542 O 0.96912 0.14315 0.94781 0.0
C543 C 0.97888 0.08392 0.90625 0.0
Co544 Co 0.87014 0.7102 0.6743 0.0
Co545 Co 0.82209 0.66989 0.66579 0.0
C546 C 0.87803 0.65578 0.65619 0.0
O547 O 0.8856 0.67897 0.66179 0.0
O548 O 0.85336 0.64768 0.65757 0.0
C549 C 0.91662 0.7144 0.6941 0.0
O550 O 0.90912 0.68894 0.69693 0.0
C551 C 0.78388 0.62619 0.65561 0.0
C552 C 0.74387 0.64494 0.66163 0.0
C553 C 0.75578 0.62213 0.65436 0.0
N554 N 0.78834 0.65043 0.66312 0.0
N555 N 0.76432 0.66146 0.66675 0.0
C556 C 0.80619 0.60728 0.64998 0.0
H557 H 0.81611 0.6159 0.6387 0.0
H558 H 0.82196 0.60558 0.65989 0.0
H559 H 0.79818 0.58651 0.64716 0.0
C560 C 0.84343 0.70961 0.70657 0.0
N561 N 0.84617 0.69933 0.69119 0.0
N562 N 0.8273 0.68066 0.68851 0.0
C563 C 0.81297 0.677 0.70274 0.0
C564 C 0.82264 0.69542 0.71476 0.0
C565 C 0.85671 0.73602 0.7118 0.0
H566 H 0.86275 0.74816 0.70072 0.0
H567 H 0.87533 0.73151 0.71925 0.0
H568 H 0.84255 0.7487 0.71938 0.0
O569 O 0.85037 0.73342 0.65878 0.0
O570 O 0.81872 0.70316 0.65084 0.0
H571 H 0.77076 0.66544 0.70127 0.0
H572 H 0.78948 0.64912 0.71787 0.0
C573 C 0.7907 0.65617 0.70474 0.0
H574 H 0.79451 0.63836 0.69645 0.0
H575 H 0.76188 0.68075 0.67218 0.0
O576 O 0.90226 0.72896 0.68427 0.0
C577 C 0.8301 0.72668 0.64968 0.0
Co578 Co 0.53977 0.60998 0.93616 0.0
Co579 Co 0.56406 0.55921 0.91664 0.0
C580 C 0.58532 0.61605 0.91164 0.0
O581 O 0.56882 0.62573 0.92235 0.0
O582 O 0.58568 0.59074 0.90786 0.0
C583 C 0.53891 0.66143 0.95346 0.0
O584 O 0.5645 0.66271 0.94842 0.0
C585 C 0.60669 0.51904 0.90752 0.0
C586 C 0.58211 0.48631 0.89577 0.0
C587 C 0.60889 0.49368 0.89955 0.0
N588 N 0.58002 0.52601 0.90832 0.0
N589 N 0.56546 0.50628 0.90135 0.0
C590 C 0.62929 0.53706 0.9138 0.0
H591 H 0.62176 0.55801 0.91641 0.0
H592 H 0.63725 0.5286 0.92568 0.0
H593 H 0.64628 0.53795 0.90461 0.0
C594 C 0.54987 0.57444 0.96461 0.0
N595 N 0.55361 0.5805 0.94846 0.0
N596 N 0.56257 0.55868 0.94049 0.0
C597 C 0.56418 0.53775 0.95142 0.0
C598 C 0.55622 0.54705 0.96707 0.0
C599 C 0.5351 0.59289 0.97651 0.0
H600 H 0.51379 0.59607 0.97207 0.0
H601 H 0.54542 0.61315 0.97683 0.0
H602 H 0.53459 0.58424 0.98929 0.0
O603 O 0.50915 0.59687 0.92204 0.0
O604 O 0.52647 0.5621 0.90743 0.0
H605 H 0.55337 0.5026 0.93688 0.0
H606 H 0.56704 0.49448 0.9573 0.0
C607 C 0.56867 0.50851 0.94646 0.0
H608 H 0.58936 0.5064 0.94089 0.0
H609 H 0.54416 0.50664 0.90017 0.0
O610 O 0.52496 0.63996 0.9504 0.0
C611 C 0.5067 0.578 0.91117 0.0
Co612 Co 0.63876 0.30804 0.1743 0.0
Co613 Co 0.68964 0.3338 0.1565 0.0
C614 C 0.63305 0.35691 0.15229 0.0
O615 O 0.62333 0.33922 0.16227 0.0
O616 O 0.65853 0.35744 0.14882 0.0
C617 C 0.59324 0.3027 0.19804 0.0
O618 O 0.59954 0.32685 0.20418 0.0
C619 C 0.7325 0.37547 0.15146 0.0
C620 C 0.76184 0.35335 0.13535 0.0
C621 C 0.7573 0.37826 0.14315 0.0
N622 N 0.723 0.34994 0.14883 0.0
N623 N 0.74062 0.33686 0.13917 0.0
C624 C 0.71724 0.39708 0.1609 0.0
H625 H 0.71838 0.41694 0.15417 0.0
H626 H 0.69554 0.391 0.16272 0.0
H627 H 0.72676 0.39995 0.17332 0.0
C628 C 0.67517 0.31087 0.2033 0.0
N629 N 0.66886 0.31793 0.18757 0.0
N630 N 0.69069 0.32822 0.18019 0.0
C631 C 0.71175 0.3278 0.19111 0.0
C632 C 0.70244 0.31717 0.20615 0.0
C633 C 0.65728 0.2933 0.21411 0.0
H634 H 0.64607 0.27818 0.20638 0.0
H635 H 0.6422 0.3065 0.22061 0.0
H636 H 0.66927 0.28205 0.22365 0.0
O637 O 0.65025 0.27966 0.15828 0.0
O638 O 0.68596 0.29776 0.1451 0.0
H639 H 0.7467 0.32236 0.17529 0.0
H640 H 0.75519 0.32897 0.19692 0.0
C641 C 0.74088 0.33401 0.18663 0.0
H642 H 0.74287 0.35615 0.18385 0.0
H643 H 0.7381 0.31669 0.13511 0.0
O644 O 0.60776 0.29211 0.18659 0.0
C645 C 0.66913 0.27814 0.14738 0.0
Co646 Co 0.93849 0.38214 0.42867 0.0
Co647 Co 0.91791 0.43391 0.40918 0.0
C648 C 0.88521 0.38172 0.41113 0.0
O649 O 0.90176 0.37085 0.42142 0.0
O650 O 0.8896 0.40538 0.40499 0.0
C651 C 0.9519 0.33956 0.45518 0.0
O652 O 0.93475 0.3498 0.46614 0.0
C653 C 0.88042 0.4768 0.39713 0.0
C654 C 0.90891 0.50273 0.38263 0.0
C655 C 0.88153 0.49916 0.38652 0.0
N656 N 0.90609 0.4675 0.39942 0.0
N657 N 0.92304 0.48336 0.39091 0.0
C658 C 0.8553 0.46258 0.40337 0.0
H659 H 0.84823 0.44774 0.3938 0.0
H660 H 0.85998 0.45118 0.41499 0.0
H661 H 0.83856 0.47755 0.40562 0.0
C662 C 0.95253 0.42513 0.4532 0.0
N663 N 0.93816 0.41635 0.43989 0.0
N664 N 0.92783 0.43773 0.43203 0.0
C665 C 0.93476 0.46067 0.44034 0.0
C666 C 0.95094 0.45355 0.4539 0.0
C667 C 0.97219 0.4074 0.46267 0.0
H668 H 0.98117 0.39171 0.45431 0.0
H669 H 0.96095 0.39685 0.47282 0.0
H670 H 0.98902 0.41954 0.46833 0.0
O671 O 0.96267 0.38506 0.40906 0.0
O672 O 0.95124 0.42411 0.39669 0.0
H673 H 0.94324 0.49327 0.42333 0.0
H674 H 0.93336 0.50457 0.4439 0.0
C675 C 0.92952 0.48906 0.43405 0.0
H676 H 0.90799 0.49079 0.42974 0.0
H677 H 0.94414 0.48013 0.3901 0.0
O678 O 0.95483 0.3509 0.44103 0.0
C679 C 0.9664 0.40305 0.39783 0.0
Co680 Co 0.872 0.31273 0.81926 0.0
Co681 Co 0.81561 0.33184 0.83421 0.0
C682 C 0.86806 0.36483 0.8374 0.0
O683 O 0.88157 0.34916 0.8278 0.0
O684 O 0.84335 0.35963 0.8414 0.0
C685 C 0.91943 0.30698 0.79658 0.0
O686 O 0.91262 0.33058 0.78986 0.0
C687 C 0.77256 0.37026 0.84496 0.0
C688 C 0.73802 0.34237 0.85035 0.0
C689 C 0.74597 0.36959 0.85106 0.0
N690 N 0.78006 0.3446 0.84084 0.0
N691 N 0.75927 0.32804 0.8441 0.0
C692 C 0.79067 0.39484 0.84319 0.0
H693 H 0.80462 0.39599 0.85409 0.0
H694 H 0.80335 0.39294 0.83177 0.0
H695 H 0.77839 0.41398 0.84261 0.0
C696 C 0.83656 0.29991 0.79087 0.0
N697 N 0.84104 0.3137 0.80513 0.0
N698 N 0.81748 0.32276 0.811 0.0
C699 C 0.79738 0.31535 0.80036 0.0
C700 C 0.80872 0.30014 0.78746 0.0
C701 C 0.85771 0.2826 0.78237 0.0
H702 H 0.86736 0.26858 0.79154 0.0
H703 H 0.87382 0.29609 0.77716 0.0
H704 H 0.84884 0.27044 0.772 0.0
O705 O 0.8643 0.28773 0.83817 0.0
O706 O 0.82225 0.29787 0.84694 0.0
H707 H 0.76148 0.30112 0.81283 0.0
H708 H 0.75505 0.31551 0.79257 0.0
C709 C 0.76745 0.31769 0.8041 0.0
H710 H 0.76302 0.33784 0.80988 0.0
H711 H 0.75991 0.30679 0.84264 0.0
O712 O 0.90487 0.29697 0.80823 0.0
C713 C 0.84373 0.28314 0.84753 0.0
Co714 Co 0.92543 0.62805 0.05901 0.0
Co715 Co 0.91793 0.58319 0.08682 0.0
C716 C 0.88025 0.63139 0.084 0.0
O717 O 0.89277 0.64131 0.07146 0.0
O718 O 0.88801 0.60912 0.09068 0.0
C719 C 0.9334 0.66693 0.02633 0.0
O720 O 0.91963 0.66094 0.01274 0.0
C721 C 0.88919 0.53805 0.1033 0.0
C722 C 0.91807 0.52657 0.12332 0.0
C723 C 0.89238 0.52075 0.11687 0.0
N724 N 0.91203 0.55324 0.1017 0.0
N725 N 0.92928 0.54619 0.11366 0.0
C726 C 0.8641 0.54164 0.0928 0.0
H727 H 0.84558 0.54253 0.10082 0.0
H728 H 0.86562 0.56046 0.0851 0.0
H729 H 0.86191 0.52378 0.08434 0.0
C730 C 0.93498 0.57881 0.03923 0.0
N731 N 0.92363 0.59048 0.05278 0.0
N732 N 0.92026 0.57165 0.06436 0.0
C733 C 0.92901 0.54735 0.05845 0.0
C734 C 0.93915 0.5511 0.04244 0.0
C735 C 0.94774 0.59518 0.02548 0.0
H736 H 0.96235 0.61021 0.03087 0.0
H737 H 0.93144 0.60671 0.01889 0.0
H738 H 0.95879 0.58228 0.01633 0.0
O739 O 0.95858 0.63224 0.07284 0.0
O740 O 0.95315 0.60092 0.09278 0.0
H741 H 0.94678 0.52634 0.07924 0.0
H742 H 0.93946 0.50442 0.06154 0.0
C743 C 0.93215 0.52217 0.06896 0.0
H744 H 0.91209 0.51676 0.0745 0.0
H745 H 0.94838 0.55533 0.11553 0.0
O746 O 0.93051 0.65194 0.03917 0.0
C747 C 0.96701 0.61996 0.08588 0.0
Co748 Co 0.62259 0.69112 0.31246 0.0
Co749 Co 0.67336 0.66867 0.3324 0.0
C750 C 0.61781 0.64193 0.33404 0.0
O751 O 0.60749 0.65853 0.32358 0.0
O752 O 0.64261 0.64393 0.33883 0.0
C753 C 0.5713 0.69607 0.29456 0.0
O754 O 0.56649 0.67125 0.3002 0.0
C755 C 0.71668 0.62866 0.33987 0.0
C756 C 0.74272 0.65203 0.35738 0.0
C757 C 0.73996 0.62672 0.34974 0.0
N758 N 0.70628 0.65403 0.34154 0.0
N759 N 0.72197 0.6679 0.352 0.0
C760 C 0.70351 0.6064 0.32984 0.0
H761 H 0.68191 0.61164 0.32693 0.0
H762 H 0.71471 0.60393 0.31791 0.0
H763 H 0.7045 0.58662 0.33665 0.0
C764 C 0.66175 0.68881 0.28501 0.0
N765 N 0.65456 0.68211 0.30063 0.0
N766 N 0.6763 0.67366 0.30889 0.0
C767 C 0.69829 0.67537 0.29877 0.0
C768 C 0.68978 0.68494 0.28329 0.0
C769 C 0.64308 0.7036 0.27323 0.0
H770 H 0.63756 0.72379 0.27864 0.0
H771 H 0.62392 0.69162 0.27165 0.0
H772 H 0.65262 0.70689 0.26086 0.0
O773 O 0.63134 0.7201 0.32906 0.0
O774 O 0.66766 0.70468 0.34298 0.0
H775 H 0.7311 0.68464 0.31559 0.0
H776 H 0.74223 0.67666 0.29456 0.0
C777 C 0.72725 0.67159 0.3045 0.0
H778 H 0.73035 0.64995 0.3082 0.0
H779 H 0.71829 0.6881 0.35566 0.0
O780 O 0.59414 0.70746 0.29776 0.0
C781 C 0.6497 0.72297 0.34019 0.0
Co782 Co 0.55859 0.37822 0.56644 0.0
Co783 Co 0.58159 0.42727 0.58746 0.0
C784 C 0.61027 0.37326 0.5862 0.0
O785 O 0.59332 0.36396 0.57561 0.0
O786 O 0.6076 0.39712 0.59232 0.0
C787 C 0.5464 0.33992 0.53751 0.0
O788 O 0.56094 0.35397 0.52671 0.0
C789 C 0.62145 0.4699 0.59704 0.0
C790 C 0.59629 0.49634 0.61334 0.0
C791 C 0.62253 0.49329 0.60697 0.0
N792 N 0.59575 0.45988 0.59749 0.0
N793 N 0.58083 0.47583 0.60722 0.0
C794 C 0.6445 0.4565 0.58781 0.0
H795 H 0.66361 0.45716 0.5953 0.0
H796 H 0.63944 0.43502 0.58463 0.0
H797 H 0.64806 0.46764 0.57596 0.0
C798 C 0.54865 0.42298 0.5428 0.0
N799 N 0.56268 0.41244 0.55576 0.0
N800 N 0.57428 0.43259 0.56417 0.0
C801 C 0.56911 0.45641 0.55626 0.0
C802 C 0.55234 0.45121 0.54263 0.0
C803 C 0.52634 0.4078 0.53383 0.0
H804 H 0.5193 0.39003 0.54125 0.0
H805 H 0.53422 0.4006 0.52163 0.0
H806 H 0.50842 0.42122 0.5314 0.0
O807 O 0.53091 0.38358 0.58401 0.0
O808 O 0.54612 0.41923 0.59869 0.0
H809 H 0.56435 0.48852 0.57418 0.0
H810 H 0.57325 0.50035 0.55352 0.0
C811 C 0.57675 0.48403 0.56292 0.0
H812 H 0.59869 0.4841 0.56645 0.0
H813 H 0.56016 0.4725 0.60987 0.0
O814 O 0.54409 0.34796 0.5525 0.0
C815 C 0.5282 0.40087 0.59575 0.0
Co816 Co 0.1397 0.29217 0.31339 0.0
Co817 Co 0.18375 0.31617 0.33791 0.0
C818 C 0.12607 0.33618 0.33779 0.0
O819 O 0.11936 0.31837 0.32703 0.0
O820 O 0.15069 0.33876 0.34274 0.0
C821 C 0.09257 0.29183 0.29241 0.0
O822 O 0.0909 0.31743 0.29741 0.0
C823 C 0.22267 0.359 0.34798 0.0
C824 C 0.24805 0.33754 0.36664 0.0
C825 C 0.24477 0.36278 0.35885 0.0
N826 N 0.2138 0.33299 0.34938 0.0
N827 N 0.22903 0.32028 0.36056 0.0
C828 C 0.20897 0.37954 0.33693 0.0
H829 H 0.18897 0.37169 0.33244 0.0
H830 H 0.22205 0.38335 0.32586 0.0
H831 H 0.20579 0.39913 0.3437 0.0
C832 C 0.18247 0.30185 0.2892 0.0
N833 N 0.1717 0.30764 0.30419 0.0
N834 N 0.19155 0.31299 0.31477 0.0
C835 C 0.21577 0.30839 0.30726 0.0
C836 C 0.21104 0.30126 0.29059 0.0
C837 C 0.16509 0.29538 0.27434 0.0
H838 H 0.14622 0.30809 0.27462 0.0
H839 H 0.17636 0.29943 0.26258 0.0
H840 H 0.15868 0.27356 0.27481 0.0
O841 O 0.15085 0.26065 0.32759 0.0
O842 O 0.17852 0.27877 0.34678 0.0
H843 H 0.25402 0.28687 0.31184 0.0
H844 H 0.25387 0.32292 0.31719 0.0
C845 C 0.24155 0.30379 0.31707 0.0
H846 H 0.23656 0.2981 0.33005 0.0
H847 H 0.22636 0.29986 0.36408 0.0
O848 O 0.11339 0.27767 0.29656 0.0
C849 C 0.16566 0.25841 0.34062 0.0
Co850 Co 0.43371 0.37303 0.06173 0.0
Co851 Co 0.41208 0.41673 0.0871 0.0
C852 C 0.38598 0.36117 0.08358 0.0
O853 O 0.40244 0.3541 0.07211 0.0
O854 O 0.38772 0.38455 0.09053 0.0
C855 C 0.43842 0.32632 0.0398 0.0
O856 O 0.41352 0.32057 0.04496 0.0
C857 C 0.37213 0.45877 0.09604 0.0
C858 C 0.39122 0.47841 0.11797 0.0
C859 C 0.36844 0.47949 0.10767 0.0
N860 N 0.39615 0.44634 0.09916 0.0
N861 N 0.40738 0.458 0.11237 0.0
C862 C 0.35287 0.4501 0.08251 0.0
H863 H 0.35608 0.42816 0.07939 0.0
H864 H 0.35697 0.46233 0.07113 0.0
H865 H 0.33128 0.45359 0.08633 0.0
C866 C 0.43373 0.41944 0.03952 0.0
N867 N 0.42375 0.40755 0.05334 0.0
N868 N 0.41682 0.42659 0.06419 0.0
C869 C 0.42304 0.45133 0.05771 0.0
C870 C 0.43433 0.44762 0.04194 0.0
C871 C 0.44913 0.40387 0.02643 0.0
H872 H 0.46923 0.39733 0.03156 0.0
H873 H 0.43738 0.38529 0.02288 0.0
H874 H 0.45272 0.41643 0.01514 0.0
O875 O 0.46415 0.37949 0.07772 0.0
O876 O 0.44883 0.40927 0.09656 0.0
H877 H 0.43537 0.47369 0.07947 0.0
H878 H 0.4332 0.49444 0.06075 0.0
C879 C 0.42381 0.47723 0.06776 0.0
H880 H 0.40265 0.48327 0.0711 0.0
H881 H 0.42615 0.45216 0.11749 0.0
O882 O 0.44978 0.34842 0.04459 0.0
C883 C 0.46772 0.39403 0.09073 0.0
Co884 Co 0.37129 0.68511 0.81582 0.0
Co885 Co 0.3137 0.66787 0.82993 0.0
C886 C 0.36622 0.63702 0.83777 0.0
O887 O 0.38072 0.6515 0.82798 0.0
O888 O 0.34079 0.64186 0.83979 0.0
C889 C 0.42301 0.68297 0.79813 0.0
O890 O 0.41957 0.65626 0.79867 0.0
C891 C 0.27083 0.62999 0.84081 0.0
C892 C 0.23547 0.6575 0.84472 0.0
C893 C 0.24408 0.63063 0.84665 0.0
N894 N 0.27787 0.65536 0.83588 0.0
N895 N 0.25655 0.67168 0.83812 0.0
C896 C 0.28938 0.60563 0.83977 0.0
H897 H 0.30244 0.60485 0.85107 0.0
H898 H 0.30292 0.60743 0.82871 0.0
H899 H 0.27736 0.58634 0.83898 0.0
C900 C 0.3396 0.68714 0.78474 0.0
N901 N 0.34211 0.67939 0.80075 0.0
N902 N 0.31794 0.67201 0.80651 0.0
C903 C 0.29926 0.67494 0.79428 0.0
C904 C 0.31231 0.68477 0.78011 0.0
C905 C 0.36185 0.70136 0.77521 0.0
H906 H 0.37951 0.68724 0.7738 0.0
H907 H 0.35493 0.70799 0.76269 0.0
H908 H 0.36891 0.71954 0.78233 0.0
O909 O 0.36122 0.71372 0.83233 0.0
O910 O 0.31881 0.70395 0.84068 0.0
H911 H 0.26155 0.68967 0.80436 0.0
H912 H 0.25798 0.67217 0.78465 0.0
C913 C 0.26899 0.6722 0.79675 0.0
H914 H 0.26445 0.65291 0.80352 0.0
H915 H 0.25673 0.69272 0.83576 0.0
O916 O 0.40472 0.69853 0.80429 0.0
C917 C 0.33987 0.71932 0.84082 0.0
Co918 Co 0.06724 0.61835 0.5627 0.0
Co919 Co 0.08325 0.56291 0.58 0.0
C920 C 0.11347 0.61633 0.58622 0.0
O921 O 0.10007 0.62929 0.57515 0.0
O922 O 0.10831 0.59128 0.58946 0.0
C923 C 0.06451 0.66625 0.53968 0.0
O924 O 0.08942 0.66099 0.53436 0.0
C925 C 0.1212 0.51773 0.58788 0.0
C926 C 0.09309 0.48702 0.5987 0.0
C927 C 0.12049 0.49174 0.59507 0.0
N928 N 0.09548 0.52764 0.58728 0.0
N929 N 0.07878 0.50911 0.59369 0.0
C930 C 0.14581 0.53354 0.58222 0.0
H931 H 0.1409 0.55549 0.58055 0.0
H932 H 0.15264 0.52551 0.56997 0.0
H933 H 0.16284 0.53127 0.59129 0.0
C934 C 0.06676 0.58251 0.53312 0.0
N935 N 0.07344 0.58743 0.54911 0.0
N936 N 0.08074 0.56428 0.5563 0.0
C937 C 0.07922 0.54392 0.545 0.0
C938 C 0.07024 0.55474 0.52995 0.0
C939 C 0.05227 0.60284 0.52224 0.0
H940 H 0.03672 0.6141 0.52962 0.0
H941 H 0.06741 0.61782 0.51741 0.0
H942 H 0.04194 0.59293 0.51151 0.0
O943 O 0.03795 0.61007 0.57887 0.0
O944 O 0.04642 0.56918 0.58986 0.0
H945 H 0.06754 0.50766 0.5582 0.0
H946 H 0.08179 0.50117 0.53773 0.0
C947 C 0.08323 0.51422 0.54902 0.0
H948 H 0.10373 0.51131 0.5547 0.0
H949 H 0.05764 0.51174 0.5949 0.0
O950 O 0.05336 0.65071 0.55044 0.0
C951 C 0.03136 0.59036 0.58846 0.0
Co952 Co 0.13876 0.70139 0.17788 0.0
Co953 Co 0.18922 0.67714 0.15828 0.0
C954 C 0.13172 0.6626 0.14932 0.0
O955 O 0.12206 0.67745 0.16094 0.0
O956 O 0.15739 0.66033 0.14687 0.0
C957 C 0.08627 0.70299 0.1944 0.0
O958 O 0.08253 0.67924 0.18702 0.0
C959 C 0.2279 0.63547 0.14624 0.0
C960 C 0.2595 0.66131 0.13429 0.0
C961 C 0.25173 0.63437 0.13689 0.0
N962 N 0.22181 0.66193 0.14906 0.0
N963 N 0.24098 0.67726 0.14207 0.0
C964 C 0.20989 0.61197 0.15103 0.0
H965 H 0.1925 0.61911 0.15883 0.0
H966 H 0.22201 0.59652 0.158 0.0
H967 H 0.20192 0.60192 0.13961 0.0
C968 C 0.17132 0.68362 0.20624 0.0
N969 N 0.16615 0.68276 0.18983 0.0
N970 N 0.18786 0.67351 0.18189 0.0
C971 C 0.20781 0.66862 0.1931 0.0
C972 C 0.19812 0.67507 0.20894 0.0
C973 C 0.15318 0.69835 0.21837 0.0
H974 H 0.15169 0.72026 0.21474 0.0
H975 H 0.1323 0.6894 0.21784 0.0
H976 H 0.16084 0.697 0.23133 0.0
O977 O 0.15488 0.73389 0.16663 0.0
O978 O 0.18926 0.71611 0.15199 0.0
H979 H 0.24486 0.67932 0.1804 0.0
H980 H 0.25015 0.66054 0.19964 0.0
C981 C 0.23692 0.66262 0.18846 0.0
H982 H 0.2377 0.64327 0.18123 0.0
H983 H 0.24082 0.69865 0.14202 0.0
O984 O 0.10903 0.71536 0.19261 0.0
C985 C 0.17476 0.73646 0.15647 0.0
Co986 Co 0.04124 0.38913 0.93366 0.0
Co987 Co 0.0685 0.44076 0.9168 0.0
C988 C 0.08903 0.38395 0.91046 0.0
O989 O 0.07093 0.37372 0.92001 0.0
O990 O 0.09062 0.40971 0.90807 0.0
C991 C 0.03912 0.33737 0.95049 0.0
O992 O 0.06498 0.336 0.94603 0.0
C993 C 0.11042 0.48014 0.9054 0.0
C994 C 0.08565 0.51766 0.90187 0.0
C995 C 0.11204 0.50746 0.90048 0.0
N996 N 0.08433 0.47471 0.9097 0.0
N997 N 0.06965 0.4972 0.90752 0.0
C998 C 0.1322 0.45857 0.90435 0.0
H999 H 0.12563 0.44267 0.89532 0.0
H1000 H 0.13454 0.44853 0.91668 0.0
H1001 H 0.15216 0.4667 0.90007 0.0
C1002 C 0.05003 0.42217 0.96358 0.0
N1003 N 0.0545 0.41746 0.94732 0.0
N1004 N 0.06548 0.43938 0.94047 0.0
C1005 C 0.06816 0.45884 0.95229 0.0
C1006 C 0.05837 0.44862 0.9673 0.0
C1007 C 0.03344 0.40359 0.97449 0.0
H1008 H 0.01279 0.40075 0.96894 0.0
H1009 H 0.04348 0.38322 0.9751 0.0
H1010 H 0.03133 0.41188 0.9873 0.0
O1011 O 0.01194 0.4032 0.91883 0.0
O1012 O 0.03165 0.43888 0.90649 0.0
H1013 H 0.05918 0.49789 0.9416 0.0
H1014 H 0.07891 0.4996 0.96061 0.0
C1015 C 0.0758 0.48799 0.94885 0.0
H1016 H 0.09491 0.48866 0.94139 0.0
H1017 H 0.0486 0.49848 0.90972 0.0
O1018 O 0.02532 0.35872 0.94698 0.0
C1019 C 0.01114 0.42308 0.90854 0.0
Co1020 Co 0.36513 0.29667 0.6845 0.0
Co1021 Co 0.31446 0.32122 0.66569 0.0
C1022 C 0.37082 0.34237 0.6596 0.0
O1023 O 0.38051 0.32502 0.66984 0.0
O1024 O 0.34518 0.34374 0.65674 0.0
C1025 C 0.41263 0.30115 0.70484 0.0
O1026 O 0.40764 0.32752 0.70338 0.0
C1027 C 0.27521 0.35962 0.65052 0.0
C1028 C 0.23788 0.33412 0.64873 0.0
C1029 C 0.24831 0.35976 0.64492 0.0
N1030 N 0.28053 0.33493 0.65722 0.0
N1031 N 0.25811 0.31979 0.6561 0.0
C1032 C 0.29529 0.38278 0.65003 0.0
H1033 H 0.30839 0.38238 0.66133 0.0
H1034 H 0.28461 0.40283 0.64921 0.0
H1035 H 0.30865 0.38037 0.63894 0.0
C1036 C 0.33047 0.30694 0.71344 0.0
N1037 N 0.33602 0.31047 0.69719 0.0
N1038 N 0.31434 0.32049 0.68957 0.0
C1039 C 0.29423 0.32383 0.70092 0.0
C1040 C 0.30373 0.31526 0.7164 0.0
C1041 C 0.34856 0.29085 0.72495 0.0
H1042 H 0.35562 0.27192 0.7186 0.0
H1043 H 0.36688 0.30332 0.72805 0.0
H1044 H 0.33805 0.28512 0.73668 0.0
O1045 O 0.35225 0.26514 0.67128 0.0
O1046 O 0.31808 0.28337 0.65664 0.0
H1047 H 0.255 0.31436 0.69063 0.0
H1048 H 0.25385 0.33739 0.7082 0.0
C1049 C 0.26543 0.33185 0.69678 0.0
H1050 H 0.26551 0.34951 0.68809 0.0
H1051 H 0.25676 0.29951 0.66016 0.0
O1052 O 0.396 0.28408 0.69843 0.0
C1053 C 0.33344 0.26318 0.66037 0.0
Co1054 Co 0.44758 0.6184 0.43295 0.0
Co1055 Co 0.41796 0.56644 0.41797 0.0
C1056 C 0.39507 0.62259 0.4138 0.0
O1057 O 0.41441 0.63293 0.42233 0.0
O1058 O 0.39384 0.59705 0.41066 0.0
C1059 C 0.45493 0.66562 0.4549 0.0
O1060 O 0.43086 0.65942 0.4612 0.0
C1061 C 0.37643 0.5268 0.40607 0.0
C1062 C 0.40036 0.48835 0.40556 0.0
C1063 C 0.3748 0.49918 0.40202 0.0
N1064 N 0.40184 0.53207 0.41176 0.0
N1065 N 0.41603 0.50899 0.41135 0.0
C1066 C 0.35412 0.54774 0.40487 0.0
H1067 H 0.35771 0.56074 0.39374 0.0
H1068 H 0.35453 0.56115 0.41604 0.0
H1069 H 0.33368 0.53791 0.40381 0.0
C1070 C 0.44652 0.58454 0.4632 0.0
N1071 N 0.43869 0.58949 0.44743 0.0
N1072 N 0.42565 0.56792 0.44147 0.0
C1073 C 0.42433 0.54875 0.45357 0.0
C1074 C 0.43754 0.55862 0.46766 0.0
C1075 C 0.46629 0.60217 0.47267 0.0
H1076 H 0.48072 0.61231 0.46397 0.0
H1077 H 0.4547 0.61817 0.4795 0.0
H1078 H 0.47821 0.59008 0.48186 0.0
O1079 O 0.47348 0.60512 0.41597 0.0
O1080 O 0.45259 0.56887 0.40503 0.0
H1081 H 0.42784 0.50746 0.44502 0.0
H1082 H 0.40783 0.51128 0.4637 0.0
C1083 C 0.41261 0.52063 0.45142 0.0
H1084 H 0.39369 0.52156 0.4438 0.0
H1085 H 0.43662 0.50742 0.41474 0.0
O1086 O 0.46545 0.65027 0.44381 0.0
C1087 C 0.47289 0.58524 0.40571 0.0
H1088 H 0.55833 0.27913 0.17649 0.0
H1089 H 0.56957 0.29669 0.22897 0.0
H1090 H 0.52632 0.27166 0.23536 0.0
H1091 H 0.48521 0.28921 0.17638 0.0
H1092 H 0.47951 0.26277 0.16108 0.0
H1093 H 0.5113 0.28153 0.16118 0.0
H1094 H 0.53818 0.23574 0.16331 0.0
H1095 H 0.50648 0.21685 0.16336 0.0
H1096 H 0.5307 0.21235 0.18009 0.0
H1097 H 0.48281 0.24165 0.23555 0.0
H1098 H 0.44068 0.21484 0.22935 0.0
H1099 H 0.4579 0.22123 0.17651 0.0
C1100 C 0.55172 0.27764 0.18934 0.0
C1101 C 0.56723 0.28935 0.20231 0.0
C1102 C 0.55779 0.28765 0.21893 0.0
C1103 C 0.53342 0.27344 0.22263 0.0
C1104 C 0.51871 0.26175 0.20948 0.0
C1105 C 0.52736 0.26424 0.19315 0.0
C1106 C 0.50767 0.25099 0.18111 0.0
C1107 C 0.49518 0.2724 0.16924 0.0
C1108 C 0.52159 0.2276 0.1714 0.0
C1109 C 0.48664 0.24015 0.19318 0.0
C1110 C 0.49335 0.24619 0.20952 0.0
C1111 C 0.47723 0.23712 0.22279 0.0
C1112 C 0.4535 0.22183 0.21919 0.0
C1113 C 0.44609 0.2163 0.20247 0.0
C1114 C 0.46294 0.22554 0.1894 0.0
H1115 H 0.02875 0.20272 0.429 0.0
H1116 H 0.04719 0.18808 0.48108 0.0
H1117 H 0.02296 0.23109 0.48865 0.0
H1118 H 0.03903 0.27618 0.43048 0.0
H1119 H 0.01205 0.28294 0.4157 0.0
H1120 H 0.0307 0.25112 0.41476 0.0
H1121 H 0.98497 0.22418 0.41686 0.0
H1122 H 0.96622 0.25591 0.41793 0.0
H1123 H 0.96223 0.23062 0.43413 0.0
H1124 H 0.99373 0.27497 0.49028 0.0
H1125 H 0.96684 0.31754 0.48553 0.0
H1126 H 0.97103 0.30352 0.43222 0.0
C1127 C 0.02772 0.20857 0.44201 0.0
C1128 C 0.0396 0.19207 0.45449 0.0
C1129 C 0.03821 0.20055 0.47134 0.0
C1130 C 0.02441 0.22484 0.47574 0.0
C1131 C 0.01262 0.24055 0.46309 0.0
C1132 C 0.0146 0.23289 0.44654 0.0
C1133 C 0.00096 0.25347 0.43519 0.0
C1134 C 0.02194 0.26671 0.42334 0.0
C1135 C 0.97718 0.24025 0.42546 0.0
C1136 C 0.9906 0.2738 0.44791 0.0
C1137 C 0.99721 0.26602 0.46397 0.0
C1138 C 0.98873 0.28138 0.47774 0.0
C1139 C 0.9734 0.30541 0.47495 0.0
C1140 C 0.96712 0.31393 0.45852 0.0
C1141 C 0.97584 0.29777 0.44493 0.0
H1142 H 0.04032 0.81821 0.70136 0.0
H1143 H 0.08629 0.75199 0.72406 0.0
H1144 H 0.04341 0.72556 0.72754 0.0
H1145 H 0.9732 0.80779 0.72469 0.0
H1146 H 0.95382 0.81527 0.70611 0.0
H1147 H 0.98638 0.83181 0.70961 0.0
H1148 H 0.00331 0.81423 0.68096 0.0
H1149 H 0.97114 0.79726 0.67747 0.0
H1150 H 0.00262 0.77795 0.67663 0.0
H1151 H 0.99782 0.70338 0.72402 0.0
H1152 H 0.95333 0.68675 0.71357 0.0
H1153 H 0.93754 0.7665 0.69157 0.0
C1154 C 0.04115 0.79873 0.70781 0.0
C1155 C 0.06646 0.78728 0.71275 0.0
C1156 C 0.06698 0.7612 0.72044 0.0
C1157 C 0.04274 0.74611 0.72247 0.0
C1158 C 0.01825 0.75737 0.71667 0.0
C1159 C 0.01724 0.7832 0.70958 0.0
C1160 C 0.98941 0.78885 0.70193 0.0
C1161 C 0.97484 0.81232 0.71114 0.0
C1162 C 0.99179 0.79491 0.68314 0.0
C1163 C 0.97535 0.7617 0.7051 0.0
C1164 C 0.99207 0.74409 0.71399 0.0
C1165 C 0.98436 0.71715 0.71733 0.0
C1166 C 0.95907 0.70786 0.71126 0.0
C1167 C 0.94196 0.72532 0.70173 0.0
C1168 C 0.95007 0.75273 0.69891 0.0
H1169 H 0.55592 0.71442 0.95015 0.0
H1170 H 0.48996 0.66464 0.9701 0.0
H1171 H 0.46345 0.70663 0.97624 0.0
H1172 H 0.54623 0.77594 0.97821 0.0
H1173 H 0.55368 0.79913 0.96132 0.0
H1174 H 0.56987 0.76592 0.96206 0.0
H1175 H 0.55161 0.7553 0.93242 0.0
H1176 H 0.53527 0.78826 0.93163 0.0
H1177 H 0.51531 0.7576 0.9284 0.0
H1178 H 0.44136 0.75295 0.97602 0.0
H1179 H 0.42493 0.79922 0.96867 0.0
H1180 H 0.50488 0.81863 0.94808 0.0
C1181 C 0.53635 0.71239 0.9564 0.0
C1182 C 0.52509 0.6863 0.95981 0.0
C1183 C 0.49903 0.68446 0.96749 0.0
C1184 C 0.48389 0.70821 0.97108 0.0
C1185 C 0.49514 0.73361 0.96695 0.0
C1186 C 0.52087 0.73584 0.95985 0.0
C1187 C 0.52677 0.76503 0.95447 0.0
C1188 C 0.55055 0.77722 0.96463 0.0
C1189 C 0.53256 0.76662 0.93562 0.0
C1190 C 0.49986 0.77861 0.9589 0.0
C1191 C 0.48212 0.76033 0.96646 0.0
C1192 C 0.45525 0.76758 0.9704 0.0
C1193 C 0.44608 0.79392 0.96614 0.0
C1194 C 0.46362 0.8126 0.95781 0.0
C1195 C 0.49106 0.80498 0.9546 0.0
H1196 H 0.41876 0.74634 0.29384 0.0
H1197 H 0.44913 0.82507 0.27671 0.0
H1198 H 0.49386 0.80387 0.2703 0.0
H1199 H 0.47476 0.72833 0.31546 0.0
H1200 H 0.474 0.69221 0.31071 0.0
H1201 H 0.44285 0.71176 0.31023 0.0
H1202 H 0.43414 0.69655 0.27974 0.0
H1203 H 0.46531 0.6767 0.28015 0.0
H1204 H 0.46019 0.70219 0.26419 0.0
H1205 H 0.53728 0.77655 0.27101 0.0
H1206 H 0.57529 0.74547 0.27847 0.0
H1207 H 0.51651 0.68445 0.29492 0.0
C1208 C 0.43449 0.75897 0.28822 0.0
C1209 C 0.43042 0.78737 0.28577 0.0
C1210 C 0.4517 0.80324 0.27862 0.0
C1211 C 0.47718 0.79134 0.27489 0.0
C1212 C 0.4809 0.7635 0.27817 0.0
C1213 C 0.45997 0.74743 0.28447 0.0
C1214 C 0.47003 0.71897 0.28884 0.0
C1215 C 0.46513 0.71247 0.3074 0.0
C1216 C 0.45662 0.69732 0.27755 0.0
C1217 C 0.50023 0.722 0.28499 0.0
C1218 C 0.50603 0.74763 0.2785 0.0
C1219 C 0.53291 0.75621 0.27569 0.0
C1220 C 0.55438 0.73845 0.28003 0.0
C1221 C 0.54885 0.71248 0.2872 0.0
C1222 C 0.52139 0.70392 0.28916 0.0
H1223 H 0.5444 0.29382 0.55582 0.0
H1224 H 0.51701 0.3286 0.50905 0.0
H1225 H 0.48813 0.28734 0.50406 0.0
H1226 H 0.54622 0.22151 0.54158 0.0
H1227 H 0.53499 0.20928 0.56164 0.0
H1228 H 0.55523 0.2401 0.56021 0.0
H1229 H 0.51757 0.2666 0.57637 0.0
H1230 H 0.49709 0.23604 0.57764 0.0
H1231 H 0.48294 0.26669 0.56852 0.0
H1232 H 0.45742 0.24454 0.50666 0.0
H1233 H 0.43191 0.20267 0.515 0.0
H1234 H 0.48229 0.19644 0.55938 0.0
C1235 C 0.53276 0.29246 0.54435 0.0
C1236 C 0.53276 0.31417 0.5328 0.0
C1237 C 0.51736 0.31189 0.51794 0.0
C1238 C 0.50087 0.28864 0.51508 0.0
C1239 C 0.50067 0.26784 0.52705 0.0
C1240 C 0.51676 0.26939 0.54122 0.0
C1241 C 0.51242 0.24509 0.55255 0.0
C1242 C 0.53878 0.22798 0.55408 0.0
C1243 C 0.50187 0.25416 0.56978 0.0
C1244 C 0.49065 0.22994 0.54289 0.0
C1245 C 0.484 0.2432 0.52822 0.0
C1246 C 0.46289 0.23374 0.51796 0.0
C1247 C 0.44841 0.21008 0.52283 0.0
C1248 C 0.4553 0.19618 0.53775 0.0
C1249 C 0.47681 0.20629 0.54775 0.0
H1250 H 0.04518 0.20631 0.80867 0.0
H1251 H 0.07514 0.23016 0.75997 0.0
H1252 H 0.03312 0.25812 0.75559 0.0
H1253 H 0.97196 0.20215 0.79691 0.0
H1254 H 0.96115 0.21483 0.81695 0.0
H1255 H 0.99225 0.19513 0.81519 0.0
H1256 H 0.01922 0.23465 0.8293 0.0
H1257 H 0.98834 0.25459 0.83091 0.0
H1258 H 0.01787 0.26857 0.82041 0.0
H1259 H 0.99009 0.2882 0.75861 0.0
H1260 H 0.94828 0.31339 0.76731 0.0
H1261 H 0.94665 0.26696 0.81339 0.0
C1262 C 0.04265 0.21702 0.79694 0.0
C1263 C 0.06326 0.21624 0.78465 0.0
C1264 C 0.05935 0.23041 0.76946 0.0
C1265 C 0.03566 0.24638 0.76693 0.0
C1266 C 0.016 0.24735 0.77959 0.0
C1267 C 0.01908 0.2325 0.79414 0.0
C1268 C 0.99563 0.23733 0.80607 0.0
C1269 C 0.97928 0.21078 0.80894 0.0
C1270 C 0.00589 0.24951 0.82264 0.0
C1271 C 0.97918 0.25796 0.79625 0.0
C1272 C 0.99112 0.2636 0.78101 0.0
C1273 C 0.98033 0.28352 0.77038 0.0
C1274 C 0.95669 0.29782 0.77545 0.0
C1275 C 0.94408 0.29194 0.79095 0.0
C1276 C 0.95551 0.27163 0.80134 0.0
H1277 H 0.02199 0.78852 0.06565 0.0
H1278 H 0.05585 0.8026 0.01643 0.0
H1279 H 0.02831 0.76397 0.0054 0.0
H1280 H 0.02194 0.71367 0.0626 0.0
H1281 H 0.99065 0.71012 0.07433 0.0
H1282 H 0.01319 0.73868 0.07827 0.0
H1283 H 0.97303 0.77238 0.07288 0.0
H1284 H 0.95043 0.74394 0.06883 0.0
H1285 H 0.95455 0.77056 0.05345 0.0
H1286 H 0.99429 0.72614 -0.00055 0.0
H1287 H 0.96027 0.68854 -0.00048 0.0
H1288 H 0.95148 0.69682 0.05308 0.0
C1289 C 0.02369 0.78334 0.05257 0.0
C1290 C 0.0409 0.79855 0.04184 0.0
C1291 C 0.04285 0.79108 0.02484 0.0
C1292 C 0.02722 0.76928 0.01847 0.0
C1293 C 0.01021 0.75486 0.02935 0.0
C1294 C 0.00876 0.76126 0.04611 0.0
C1295 C 0.98933 0.74219 0.05522 0.0
C1296 C 0.0047 0.72516 0.06838 0.0
C1297 C 0.96542 0.75823 0.06305 0.0
C1298 C 0.97966 0.7244 0.04093 0.0
C1299 C 0.99174 0.73219 0.02608 0.0
C1300 C 0.98499 0.71963 0.01103 0.0
C1301 C 0.96557 0.69839 0.01118 0.0
C1302 C 0.95345 0.68966 0.02632 0.0
C1303 C 0.96071 0.70284 0.04136 0.0
H1304 H 0.53341 0.80057 0.79216 0.0
H1305 H 0.59383 0.73727 0.7825 0.0
H1306 H 0.5566 0.70375 0.77798 0.0
H1307 H 0.49265 0.76221 0.81649 0.0
H1308 H 0.4603 0.77608 0.80966 0.0
H1309 H 0.49084 0.79647 0.80812 0.0
H1310 H 0.48268 0.80315 0.77648 0.0
H1311 H 0.45177 0.78301 0.77793 0.0
H1312 H 0.47813 0.77359 0.76327 0.0
H1313 H 0.51351 0.67565 0.77954 0.0
H1314 H 0.46848 0.65567 0.78667 0.0
H1315 H 0.43647 0.73731 0.79583 0.0
C1316 C 0.53885 0.77994 0.78843 0.0
C1317 C 0.56654 0.77159 0.78759 0.0
C1318 C 0.57275 0.74418 0.78312 0.0
C1319 C 0.55172 0.725 0.78049 0.0
C1320 C 0.52461 0.7336 0.78226 0.0
C1321 C 0.51813 0.76054 0.78594 0.0
C1322 C 0.48778 0.76388 0.78931 0.0
C1323 C 0.48262 0.77532 0.80694 0.0
C1324 C 0.4743 0.78198 0.77595 0.0
C1325 C 0.4784 0.73442 0.78782 0.0
C1326 C 0.49978 0.71731 0.7834 0.0
C1327 C 0.4965 0.68892 0.78266 0.0
C1328 C 0.47085 0.67774 0.78679 0.0
C1329 C 0.44891 0.69491 0.79179 0.0
C1330 C 0.45272 0.72363 0.79192 0.0
H1331 H 0.02179 0.69061 0.55543 0.0
H1332 H 0.07405 0.69844 0.51197 0.0
H1333 H 0.04917 0.74084 0.50392 0.0
H1334 H 0.95885 0.71677 0.5372 0.0
H1335 H 0.94927 0.73453 0.55601 0.0
H1336 H 0.9694 0.70363 0.55719 0.0
H1337 H 0.00667 0.7294 0.57407 0.0
H1338 H 0.98667 0.76031 0.57304 0.0
H1339 H 0.02156 0.76027 0.56564 0.0
H1340 H 0.01843 0.7837 0.50137 0.0
H1341 H 0.98879 0.82445 0.50621 0.0
H1342 H 0.95985 0.78822 0.55224 0.0
C1343 C 0.0278 0.70092 0.54405 0.0
C1344 C 0.04964 0.69109 0.53421 0.0
C1345 C 0.05725 0.7056 0.51964 0.0
C1346 C 0.04315 0.72958 0.51495 0.0
C1347 C 0.02171 0.73877 0.52504 0.0
C1348 C 0.01433 0.72489 0.53937 0.0
C1349 C 0.9923 0.73984 0.54895 0.0
C1350 C 0.96589 0.72266 0.54988 0.0
C1351 C 0.00242 0.74793 0.56645 0.0
C1352 C 0.98859 0.76462 0.53794 0.0
C1353 C 0.00523 0.76355 0.52401 0.0
C1354 C 0.00531 0.78465 0.51222 0.0
C1355 C 0.98839 0.80761 0.515 0.0
C1356 C 0.97226 0.80934 0.52961 0.0
C1357 C 0.97213 0.78739 0.541 0.0
H1358 H 0.93517 0.25809 0.29555 0.0
H1359 H 0.95522 0.17764 0.27591 0.0
H1360 H 0.0019 0.19376 0.26929 0.0
H1361 H 0.97919 0.29874 0.2659 0.0
H1362 H 0.98846 0.32269 0.28206 0.0
H1363 H 0.95528 0.30639 0.28238 0.0
H1364 H 0.96481 0.28862 0.31228 0.0
H1365 H 0.99787 0.3048 0.31201 0.0
H1366 H 0.9952 0.26858 0.31617 0.0
H1367 H 0.04831 0.21586 0.2695 0.0
H1368 H 0.09008 0.24257 0.27597 0.0
H1369 H 0.03953 0.30902 0.29457 0.0
C1370 C 0.94908 0.24409 0.28938 0.0
C1371 C 0.94147 0.21661 0.28622 0.0
C1372 C 0.96049 0.19883 0.27839 0.0
C1373 C 0.98707 0.20782 0.27454 0.0
C1374 C 0.99423 0.23476 0.27837 0.0
C1375 C 0.97566 0.25275 0.28544 0.0
C1376 C 0.98918 0.27973 0.28991 0.0
C1377 C 0.97732 0.30328 0.27943 0.0
C1378 C 0.98662 0.28575 0.3087 0.0
C1379 C 0.01853 0.27362 0.28502 0.0
C1380 C 0.021 0.24773 0.27817 0.0
C1381 C 0.04655 0.23643 0.27445 0.0
C1382 C 0.07017 0.25171 0.27819 0.0
C1383 C 0.06804 0.27799 0.28557 0.0
C1384 C 0.04183 0.28931 0.28852 0.0
H1385 H 0.49495 0.1768 0.04016 0.0
H1386 H 0.57288 0.21077 0.02425 0.0
H1387 H 0.54977 0.25409 0.01683 0.0
H1388 H 0.45034 0.21504 0.00907 0.0
H1389 H 0.42377 0.21934 0.02446 0.0
H1390 H 0.44515 0.18919 0.02481 0.0
H1391 H 0.45831 0.19951 0.05547 0.0
H1392 H 0.43712 0.22956 0.0552 0.0
H1393 H 0.47286 0.23242 0.06065 0.0
H1394 H 0.52046 0.29601 0.01667 0.0
H1395 H 0.48759 0.33267 0.0238 0.0
H1396 H 0.42847 0.27131 0.03925 0.0
C1397 C 0.50703 0.19301 0.03459 0.0
C1398 C 0.53572 0.19039 0.03278 0.0
C1399 C 0.55085 0.21225 0.02569 0.0
C1400 C 0.53787 0.23691 0.02136 0.0
C1401 C 0.50969 0.23924 0.02397 0.0
C1402 C 0.49439 0.2177 0.03023 0.0
C1403 C 0.46524 0.22642 0.03392 0.0
C1404 C 0.44492 0.21162 0.02237 0.0
C1405 C 0.45799 0.22172 0.0524 0.0
C1406 C 0.46696 0.25664 0.02978 0.0
C1407 C 0.49259 0.26354 0.02369 0.0
C1408 C 0.5001 0.29077 0.02098 0.0
C1409 C 0.48133 0.31147 0.02511 0.0
C1410 C 0.45541 0.30481 0.03195 0.0
C1411 C 0.44785 0.27701 0.03366 0.0
H1412 H 0.53333 0.19529 0.70481 0.0
H1413 H 0.58791 0.2644 0.71233 0.0
H1414 H 0.54831 0.29343 0.71979 0.0
H1415 H 0.48511 0.23011 0.6838 0.0
H1416 H 0.45568 0.21239 0.69208 0.0
H1417 H 0.48833 0.19549 0.69145 0.0
H1418 H 0.4857 0.18653 0.72325 0.0
H1419 H 0.45281 0.20337 0.72397 0.0
H1420 H 0.48025 0.21484 0.73731 0.0
H1421 H 0.50286 0.31665 0.72136 0.0
H1422 H 0.45559 0.33235 0.71609 0.0
H1423 H 0.43054 0.24822 0.70717 0.0
C1424 C 0.53705 0.21624 0.70865 0.0
C1425 C 0.56365 0.22757 0.70811 0.0
C1426 C 0.56766 0.25531 0.71273 0.0
C1427 C 0.54531 0.2719 0.71708 0.0
C1428 C 0.51915 0.26039 0.71684 0.0
C1429 C 0.51495 0.23311 0.71285 0.0
C1430 C 0.48473 0.22669 0.71109 0.0
C1431 C 0.4781 0.21554 0.69357 0.0
C1432 C 0.47532 0.20668 0.72472 0.0
C1433 C 0.47267 0.25492 0.71377 0.0
C1434 C 0.49276 0.27396 0.7175 0.0
C1435 C 0.48687 0.30185 0.71882 0.0
C1436 C 0.45994 0.31059 0.71577 0.0
C1437 C 0.43936 0.29151 0.71123 0.0
C1438 C 0.44573 0.26327 0.71081 0.0
H1439 H 0.48965 0.69469 0.43521 0.0
H1440 H 0.44908 0.69671 0.48326 0.0
H1441 H 0.46882 0.74277 0.4886 0.0
H1442 H 0.55179 0.73312 0.44657 0.0
H1443 H 0.5525 0.75093 0.42689 0.0
H1444 H 0.53848 0.7168 0.4281 0.0
H1445 H 0.49301 0.73424 0.41515 0.0
H1446 H 0.50687 0.76835 0.41397 0.0
H1447 H 0.47512 0.76236 0.42487 0.0
H1448 H 0.49203 0.78988 0.48795 0.0
H1449 H 0.51248 0.83484 0.48015 0.0
H1450 H 0.5335 0.80226 0.43161 0.0
C1451 C 0.48544 0.7045 0.44704 0.0
C1452 C 0.46821 0.69202 0.45895 0.0
C1453 C 0.46245 0.70589 0.47405 0.0
C1454 C 0.47364 0.73197 0.4772 0.0
C1455 C 0.49025 0.74392 0.46503 0.0
C1456 C 0.4959 0.73063 0.45019 0.0
C1457 C 0.51181 0.74876 0.43837 0.0
C1458 C 0.54034 0.73668 0.43478 0.0
C1459 C 0.49573 0.75372 0.42214 0.0
C1460 C 0.51384 0.77456 0.4487 0.0
C1461 C 0.50192 0.77129 0.46421 0.0
C1462 C 0.5014 0.79261 0.47584 0.0
C1463 C 0.51302 0.81798 0.47136 0.0
C1464 C 0.5242 0.82178 0.45529 0.0
C1465 C 0.52481 0.79977 0.44394 0.0
H1466 H 0.03201 0.68895 0.19335 0.0
H1467 H 0.08814 0.74921 0.21381 0.0
H1468 H 0.04886 0.77609 0.22427 0.0
H1469 H 0.9865 0.73434 0.1775 0.0
H1470 H 0.95594 0.71482 0.18185 0.0
H1471 H 0.98811 0.6975 0.17918 0.0
H1472 H 0.98266 0.67477 0.20818 0.0
H1473 H 0.9503 0.69205 0.21094 0.0
H1474 H 0.97702 0.69593 0.22627 0.0
H1475 H 0.00395 0.79997 0.22839 0.0
H1476 H 0.95751 0.81929 0.22516 0.0
H1477 H 0.93057 0.74354 0.20196 0.0
C1478 C 0.03608 0.70731 0.20052 0.0
C1479 C 0.06314 0.7169 0.20284 0.0
C1480 C 0.06758 0.74141 0.21193 0.0
C1481 C 0.04538 0.75675 0.218 0.0
C1482 C 0.01889 0.74721 0.21499 0.0
C1483 C 0.01416 0.72293 0.20657 0.0
C1484 C 0.9839 0.71887 0.20314 0.0
C1485 C 0.97831 0.71625 0.18431 0.0
C1486 C 0.97282 0.69392 0.21271 0.0
C1487 C 0.97249 0.74534 0.21014 0.0
C1488 C 0.99289 0.76114 0.21727 0.0
C1489 C 0.98771 0.78755 0.22315 0.0
C1490 C 0.96124 0.79838 0.22124 0.0
C1491 C 0.94034 0.78293 0.21336 0.0
C1492 C 0.94594 0.75575 0.20827 0.0
H1493 H 0.05613 0.28416 0.9488 0.0
H1494 H 0.99012 0.33558 0.96707 0.0
H1495 H 0.96397 0.29421 0.97503 0.0
H1496 H 0.01532 0.23784 0.92927 0.0
H1497 H 0.03575 0.20795 0.93374 0.0
H1498 H 0.05166 0.24113 0.93285 0.0
H1499 H 0.07074 0.23443 0.96271 0.0
H1500 H 0.05488 0.20107 0.96369 0.0
H1501 H 0.04758 0.22628 0.9795 0.0
H1502 H 0.9423 0.24793 0.977 0.0
H1503 H 0.92612 0.20076 0.97185 0.0
H1504 H 0.00598 0.17945 0.95183 0.0
C1505 C 0.0366 0.28673 0.95502 0.0
C1506 C 0.02523 0.31304 0.95748 0.0
C1507 C -0.00076 0.31557 0.96516 0.0
C1508 C 0.98432 0.2922 0.9698 0.0
C1509 C 0.99572 0.26648 0.96671 0.0
C1510 C 0.02134 0.26362 0.95955 0.0
C1511 C 0.02746 0.23391 0.95551 0.0
C1512 C 0.03284 0.23 0.93673 0.0
C1513 C 0.0516 0.2233 0.96598 0.0
C1514 C 0.00078 0.22066 0.9608 0.0
C1515 C 0.98298 0.23968 0.96758 0.0
C1516 C 0.95623 0.23274 0.97201 0.0
C1517 C 0.94721 0.20588 0.96901 0.0
C1518 C 0.9648 0.18637 0.96148 0.0
C1519 C 0.99216 0.19374 0.95783 0.0
H1520 H 0.51958 0.09932 0.12119 0.0
H1521 H 0.47523 0.06986 0.07807 0.0
H1522 H 0.43224 0.06899 0.09452 0.0
H1523 H 0.47695 0.06438 0.15441 0.0
H1524 H 0.47886 0.09405 0.16776 0.0
H1525 H 0.50693 0.086 0.15398 0.0
H1526 H 0.5038 0.1346 0.14102 0.0
H1527 H 0.47598 0.14276 0.15477 0.0
H1528 H 0.47156 0.14617 0.13257 0.0
H1529 H 0.39356 0.07746 0.11425 0.0
H1530 H 0.3619 0.09977 0.13403 0.0
H1531 H 0.43119 0.12603 0.16391 0.0
C1532 C 0.50092 0.09178 0.11549 0.0
C1533 C 0.50048 0.08408 0.0986 0.0
C1534 C 0.47574 0.07539 0.09114 0.0
C1535 C 0.45138 0.07467 0.10041 0.0
C1536 C 0.45221 0.08294 0.11705 0.0
C1537 C 0.47636 0.0915 0.1245 0.0
C1538 C 0.4711 0.10363 0.14155 0.0
C1539 C 0.48424 0.08595 0.15524 0.0
C1540 C 0.48119 0.13355 0.14252 0.0
C1541 C 0.44013 0.10187 0.14219 0.0
C1542 C 0.42967 0.08902 0.12822 0.0
C1543 C 0.40151 0.08714 0.12538 0.0
C1544 C 0.38364 0.09979 0.13673 0.0
C1545 C 0.39409 0.11462 0.15049 0.0
C1546 C 0.42261 0.11464 0.15356 0.0
H1547 H 0.16419 0.24907 0.37394 0.0
H1548 H 0.16873 0.20791 0.3262 0.0
H1549 H 0.16627 0.16295 0.34038 0.0
H1550 H 0.19906 0.19443 0.40018 0.0
H1551 H 0.17513 0.19975 0.41698 0.0
H1552 H 0.18483 0.22803 0.40375 0.0
H1553 H 0.13365 0.23721 0.39699 0.0
H1554 H 0.12391 0.20926 0.41024 0.0
H1555 H 0.1129 0.20972 0.3888 0.0
H1556 H 0.15645 0.12343 0.35898 0.0
H1557 H 0.13299 0.0937 0.37932 0.0
H1558 H 0.1316 0.16077 0.4148 0.0
C1559 C 0.1657 0.2305 0.36659 0.0
C1560 C 0.16711 0.23172 0.34908 0.0
C1561 C 0.16788 0.20721 0.33969 0.0
C1562 C 0.16679 0.18164 0.34765 0.0
C1563 C 0.16467 0.18103 0.36498 0.0
C1564 C 0.16387 0.20488 0.37433 0.0
C1565 C 0.15627 0.19903 0.39226 0.0
C1566 C 0.18026 0.2057 0.40398 0.0
C1567 C 0.13013 0.21471 0.39735 0.0
C1568 C 0.15134 0.16843 0.39131 0.0
C1569 C 0.15742 0.15823 0.37566 0.0
C1570 C 0.15206 0.13105 0.37136 0.0
C1571 C 0.1388 0.11426 0.38303 0.0
C1572 C 0.13042 0.12501 0.39861 0.0
C1573 C 0.13799 0.15199 0.40303 0.0
H1574 H 0.11123 0.8496 0.62796 0.0
H1575 H 0.08298 0.87143 0.67738 0.0
H1576 H 0.04049 0.89075 0.66531 0.0
H1577 H 0.07865 0.90723 0.60437 0.0
H1578 H 0.06968 0.88497 0.58729 0.0
H1579 H 0.10001 0.87818 0.59944 0.0
H1580 H 0.08225 0.82905 0.60539 0.0
H1581 H 0.05174 0.83579 0.59351 0.0
H1582 H 0.04902 0.82456 0.61484 0.0
H1583 H -0.00055 0.90376 0.64812 0.0
H1584 H 0.9621 0.90739 0.62736 0.0
H1585 H 0.01577 0.87309 0.58962 0.0
C1586 C 0.09657 0.85951 0.63611 0.0
C1587 C 0.10053 0.8598 0.65351 0.0
C1588 C 0.08039 0.8716 0.66397 0.0
C1589 C 0.05626 0.88258 0.65723 0.0
C1590 C 0.05249 0.88119 0.64003 0.0
C1591 C 0.07207 0.86988 0.62961 0.0
C1592 C 0.06154 0.86753 0.61193 0.0
C1593 C 0.07848 0.88556 0.60006 0.0
C1594 C 0.06111 0.83745 0.60609 0.0
C1595 C 0.03283 0.87868 0.6141 0.0
C1596 C 0.02818 0.88701 0.63031 0.0
C1597 C 0.00291 0.89748 0.63536 0.0
C1598 C 0.98183 0.89942 0.62351 0.0
C1599 C 0.98603 0.89035 0.60695 0.0
C1600 C 0.01192 0.88 0.60223 0.0
H1601 H 0.37976 0.73196 0.86273 0.0
H1602 H 0.30149 0.76004 0.84386 0.0
H1603 H 0.30497 0.80178 0.86155 0.0
H1604 H 0.36898 0.75666 0.90575 0.0
H1605 H 0.40469 0.76522 0.90825 0.0
H1606 H 0.39482 0.73728 0.89483 0.0
H1607 H 0.42107 0.75976 0.87026 0.0
H1608 H 0.43109 0.7876 0.8836 0.0
H1609 H 0.41315 0.79457 0.86442 0.0
H1610 H 0.321 0.84328 0.87867 0.0
H1611 H 0.34608 0.87849 0.89501 0.0
H1612 H 0.41092 0.81962 0.90446 0.0
C1613 C 0.36325 0.74682 0.86247 0.0
C1614 C 0.34052 0.74321 0.85193 0.0
C1615 C 0.31907 0.76271 0.85194 0.0
C1616 C 0.32089 0.78634 0.86193 0.0
C1617 C 0.34387 0.78951 0.87213 0.0
C1618 C 0.36437 0.76992 0.87268 0.0
C1619 C 0.38716 0.77805 0.88438 0.0
C1620 C 0.38901 0.75812 0.89918 0.0
C1621 C 0.41473 0.78013 0.87511 0.0
C1622 C 0.37696 0.80585 0.88984 0.0
C1623 C 0.352 0.81228 0.8827 0.0
C1624 C 0.3402 0.83818 0.88466 0.0
C1625 C 0.35456 0.85805 0.89393 0.0
C1626 C 0.38023 0.85169 0.90123 0.0
C1627 C 0.39103 0.82501 0.89943 0.0
H1628 H 0.46252 0.90162 0.40076 0.0
H1629 H 0.51409 0.93401 0.36141 0.0
H1630 H 0.47509 0.93125 0.34178 0.0
H1631 H 0.43014 0.85321 0.37827 0.0
H1632 H 0.39688 0.85689 0.3878 0.0
H1633 H 0.42708 0.86637 0.39919 0.0
H1634 H 0.40719 0.9151 0.40375 0.0
H1635 H 0.37686 0.90574 0.39221 0.0
H1636 H 0.39667 0.93523 0.38603 0.0
H1637 H 0.43467 0.91495 0.32551 0.0
H1638 H 0.39548 0.88856 0.31431 0.0
H1639 H 0.36823 0.87107 0.36449 0.0
C1640 C 0.46539 0.90877 0.3881 0.0
C1641 C 0.49127 0.91788 0.38253 0.0
C1642 C 0.49435 0.92706 0.36592 0.0
C1643 C 0.47229 0.92566 0.35472 0.0
C1644 C 0.44717 0.91581 0.36049 0.0
C1645 C 0.44349 0.90802 0.3769 0.0
C1646 C 0.41538 0.8957 0.37966 0.0
C1647 C 0.41752 0.86631 0.38662 0.0
C1648 C 0.398 0.91405 0.39109 0.0
C1649 C 0.40449 0.89595 0.36201 0.0
C1650 C 0.42297 0.90799 0.35115 0.0
C1651 C 0.41953 0.9065 0.33391 0.0
C1652 C 0.39724 0.89153 0.32765 0.0
C1653 C 0.37854 0.87869 0.33861 0.0
C1654 C 0.38159 0.88188 0.35594 0.0
H1655 H 0.36704 0.17194 0.58311 0.0
H1656 H 0.36466 0.10201 0.6165 0.0
H1657 H 0.34179 0.13027 0.63773 0.0
H1658 H 0.38611 0.2184 0.61082 0.0
H1659 H 0.36574 0.24679 0.6035 0.0
H1660 H 0.37527 0.21993 0.58936 0.0
H1661 H 0.32424 0.21133 0.58211 0.0
H1662 H 0.31446 0.23857 0.5961 0.0
H1663 H 0.29998 0.20481 0.59858 0.0
H1664 H 0.33158 0.16802 0.65748 0.0
H1665 H 0.32906 0.21172 0.6731 0.0
H1666 H 0.33442 0.25698 0.62683 0.0
C1667 C 0.36066 0.16228 0.59463 0.0
C1668 C 0.36765 0.13476 0.59812 0.0
C1669 C 0.35931 0.12295 0.61343 0.0
C1670 C 0.34631 0.13889 0.62561 0.0
C1671 C 0.34118 0.16641 0.62216 0.0
C1672 C 0.34739 0.17786 0.60685 0.0
C1673 C 0.34264 0.20856 0.60692 0.0
C1674 C 0.36901 0.22432 0.60239 0.0
C1675 C 0.31891 0.21627 0.59524 0.0
C1676 C 0.3348 0.21286 0.62498 0.0
C1677 C 0.33376 0.18824 0.63353 0.0
C1678 C 0.33119 0.18732 0.65084 0.0
C1679 C 0.32994 0.21215 0.65962 0.0
C1680 C 0.33086 0.23742 0.65104 0.0
C1681 C 0.33263 0.23777 0.63352 0.0
H1682 H 0.03221 0.09848 0.91168 0.0
H1683 H 0.97796 0.06333 0.87454 0.0
H1684 H 0.01505 0.06579 0.85372 0.0
H1685 H 0.06056 0.14651 0.8877 0.0
H1686 H 0.09497 0.14442 0.89581 0.0
H1687 H 0.06658 0.13416 0.90856 0.0
H1688 H 0.08862 0.0863 0.91275 0.0
H1689 H 0.11726 0.09648 0.89995 0.0
H1690 H 0.09801 0.06607 0.89483 0.0
H1691 H 0.05296 0.08271 0.8358 0.0
H1692 H 0.09008 0.10976 0.82276 0.0
H1693 H 0.12166 0.13032 0.87162 0.0
C1694 C 0.02843 0.09049 0.8993 0.0
C1695 C 0.00223 0.08082 0.8947 0.0
C1696 C 0.99795 0.0707 0.87837 0.0
C1697 C 0.01893 0.07193 0.86646 0.0
C1698 C 0.04424 0.08266 0.87121 0.0
C1699 C 0.04928 0.09119 0.88736 0.0
C1700 C 0.07711 0.10467 0.88887 0.0
C1701 C 0.07463 0.13417 0.89562 0.0
C1702 C 0.09639 0.08733 0.89975 0.0
C1703 C 0.08607 0.10428 0.87083 0.0
C1704 C 0.06702 0.09112 0.86085 0.0
C1705 C 0.06857 0.0921 0.8435 0.0
C1706 C 0.08963 0.10754 0.83619 0.0
C1707 C 0.10897 0.12144 0.84623 0.0
C1708 C 0.10773 0.11891 0.86371 0.0
H1709 H 0.17428 0.74323 0.12332 0.0
H1710 H 0.17997 0.78781 0.16978 0.0
H1711 H 0.17758 0.83173 0.15434 0.0
H1712 H 0.20686 0.79682 0.09445 0.0
H1713 H 0.18175 0.78953 0.07857 0.0
H1714 H 0.19341 0.76258 0.09223 0.0
H1715 H 0.14314 0.7524 0.10068 0.0
H1716 H 0.13143 0.77913 0.08712 0.0
H1717 H 0.12226 0.77977 0.10888 0.0
H1718 H 0.16662 0.86958 0.13486 0.0
H1719 H 0.14042 0.89711 0.11471 0.0
H1720 H 0.13643 0.82731 0.08131 0.0
C1721 C 0.17636 0.76235 0.13007 0.0
C1722 C 0.1781 0.76248 0.14758 0.0
C1723 C 0.17922 0.78758 0.15629 0.0
C1724 C 0.17809 0.81252 0.1476 0.0
C1725 C 0.17535 0.81181 0.13027 0.0
C1726 C 0.17422 0.78727 0.12162 0.0
C1727 C 0.16493 0.79154 0.10381 0.0
C1728 C 0.18813 0.78472 0.09154 0.0
C1729 C 0.1389 0.77474 0.09992 0.0
C1730 C 0.15917 0.822 0.10409 0.0
C1731 C 0.16666 0.83355 0.11917 0.0
C1732 C 0.16108 0.86088 0.12291 0.0
C1733 C 0.14618 0.87638 0.11135 0.0
C1734 C 0.13627 0.86422 0.0965 0.0
C1735 C 0.14394 0.83711 0.09253 0.0
H1736 H 0.52845 0.89972 0.90326 0.0
H1737 H 0.47016 0.92227 0.86486 0.0
H1738 H 0.50657 0.91813 0.84358 0.0
H1739 H 0.59001 0.93417 0.88309 0.0
H1740 H 0.61236 0.90711 0.8901 0.0
H1741 H 0.58311 0.91686 0.90249 0.0
H1742 H 0.56586 0.86656 0.90214 0.0
H1743 H 0.59495 0.85671 0.88985 0.0
H1744 H 0.56081 0.84955 0.88243 0.0
H1745 H 0.5458 0.90126 0.82635 0.0
H1746 H 0.58551 0.87602 0.81486 0.0
H1747 H 0.6197 0.86878 0.86448 0.0
C1748 C 0.52358 0.90451 0.89042 0.0
C1749 C 0.49659 0.91118 0.88564 0.0
C1750 C 0.49082 0.91726 0.86876 0.0
C1751 C 0.51138 0.91504 0.85661 0.0
C1752 C 0.53769 0.90754 0.86166 0.0
C1753 C 0.54396 0.90296 0.87823 0.0
C1754 C 0.57303 0.89276 0.8803 0.0
C1755 C 0.59067 0.914 0.88954 0.0
C1756 C 0.57367 0.86474 0.88919 0.0
C1757 C 0.58152 0.8904 0.86224 0.0
C1758 C 0.561 0.89935 0.85164 0.0
C1759 C 0.56244 0.89515 0.83447 0.0
C1760 C 0.58499 0.88077 0.82804 0.0
C1761 C 0.60586 0.87108 0.83877 0.0
C1762 C 0.60454 0.87692 0.85595 0.0
H1763 H 0.85705 0.86585 0.60796 0.0
H1764 H 0.86488 0.81942 0.56223 0.0
H1765 H 0.83786 0.78178 0.57465 0.0
H1766 H 0.87434 0.81564 0.63229 0.0
H1767 H 0.85231 0.82331 0.64972 0.0
H1768 H 0.86222 0.85012 0.63576 0.0
H1769 H 0.81119 0.86154 0.63009 0.0
H1770 H 0.80103 0.83464 0.64424 0.0
H1771 H 0.78822 0.83491 0.62317 0.0
H1772 H 0.82009 0.74571 0.59359 0.0
H1773 H 0.81856 0.71369 0.61742 0.0
H1774 H 0.82642 0.78199 0.65151 0.0
C1775 C 0.85178 0.84837 0.60028 0.0
C1776 C 0.8626 0.84566 0.58408 0.0
C1777 C 0.85643 0.82199 0.57461 0.0
C1778 C 0.84094 0.80059 0.58155 0.0
C1779 C 0.83195 0.80313 0.598 0.0
C1780 C 0.83716 0.82655 0.60724 0.0
C1781 C 0.83114 0.82206 0.62555 0.0
C1782 C 0.85651 0.82811 0.63644 0.0
C1783 C 0.80642 0.83931 0.63108 0.0
C1784 C 0.82411 0.79185 0.62539 0.0
C1785 C 0.82323 0.78161 0.60931 0.0
C1786 C 0.82005 0.75362 0.60619 0.0
C1787 C 0.81914 0.73555 0.61979 0.0
C1788 C 0.82227 0.74557 0.6362 0.0
C1789 C 0.82359 0.77405 0.63903 0.0
H1790 H 0.9306 0.16143 0.33682 0.0
H1791 H 0.86768 0.10148 0.34842 0.0
H1792 H 0.90201 0.07399 0.36391 0.0
H1793 H 0.98998 0.11403 0.33415 0.0
H1794 H 0.01215 0.13862 0.34414 0.0
H1795 H 0.98409 0.15022 0.33133 0.0
H1796 H 0.96572 0.17923 0.356 0.0
H1797 H 0.9935 0.16765 0.36888 0.0
H1798 H 0.9586 0.16272 0.37563 0.0
H1799 H 0.94286 0.05554 0.38044 0.0
H1800 H 0.98438 0.05041 0.39815 0.0
H1801 H 0.01781 0.12502 0.37715 0.0
C1802 C 0.92407 0.14211 0.34217 0.0
C1803 C 0.89651 0.13344 0.34125 0.0
C1804 C 0.88877 0.1084 0.34885 0.0
C1805 C 0.90815 0.09262 0.35761 0.0
C1806 C 0.93506 0.10228 0.35866 0.0
C1807 C 0.94289 0.12655 0.35114 0.0
C1808 C 0.97178 0.13461 0.3558 0.0
C1809 C 0.99061 0.13434 0.34044 0.0
C1810 C 0.97241 0.16269 0.3646 0.0
C1811 C 0.9788 0.11163 0.36762 0.0
C1812 C 0.95778 0.09266 0.36879 0.0
C1813 C 0.9595 0.07014 0.37948 0.0
C1814 C 0.98306 0.06734 0.38945 0.0
C1815 C 0.00398 0.08738 0.38888 0.0
C1816 C 0.00198 0.10945 0.37769 0.0
H1817 H 0.64791 0.2274 0.15368 0.0
H1818 H 0.69109 0.27445 0.11606 0.0
H1819 H 0.68512 0.2364 0.09606 0.0
H1820 H 0.67379 0.15784 0.13981 0.0
H1821 H 0.64132 0.14208 0.14463 0.0
H1822 H 0.65327 0.17087 0.15672 0.0
H1823 H 0.60813 0.19682 0.1503 0.0
H1824 H 0.59615 0.16832 0.13814 0.0
H1825 H 0.59804 0.20197 0.12891 0.0
H1826 H 0.66568 0.1984 0.07884 0.0
H1827 H 0.63813 0.16094 0.06642 0.0
H1828 H 0.61096 0.13654 0.11556 0.0
C1829 C 0.6568 0.22937 0.14137 0.0
C1830 C 0.6699 0.25386 0.13638 0.0
C1831 C 0.68115 0.25578 0.12017 0.0
C1832 C 0.67785 0.23427 0.10873 0.0
C1833 C 0.6639 0.21077 0.11386 0.0
C1834 C 0.6541 0.20794 0.12993 0.0
C1835 C 0.6379 0.18165 0.13195 0.0
C1836 C 0.65245 0.16194 0.14399 0.0
C1837 C 0.60832 0.18757 0.13765 0.0
C1838 C 0.63872 0.17092 0.11427 0.0
C1839 C 0.65399 0.18791 0.10403 0.0
C1840 C 0.65454 0.18437 0.08679 0.0
C1841 C 0.63883 0.16318 0.07984 0.0
C1842 C 0.62324 0.14563 0.09015 0.0
C1843 C 0.62367 0.14914 0.10756 0.0
H1844 H 0.57388 0.17288 0.65017 0.0
H1845 H 0.62413 0.09958 0.65154 0.0
H1846 H 0.5885 0.07455 0.63548 0.0
H1847 H 0.5069 0.14047 0.65255 0.0
H1848 H 0.49188 0.16429 0.63801 0.0
H1849 H 0.51991 0.17499 0.65111 0.0
H1850 H 0.54741 0.18968 0.62492 0.0
H1851 H 0.51956 0.17894 0.61176 0.0
H1852 H 0.5534 0.16509 0.60855 0.0
H1853 H 0.54665 0.05808 0.61878 0.0
H1854 H 0.50538 0.05318 0.60085 0.0
H1855 H 0.48609 0.13892 0.60888 0.0
C1856 C 0.57719 0.15139 0.64741 0.0
C1857 C 0.60149 0.13797 0.65231 0.0
C1858 C 0.60548 0.11011 0.64798 0.0
C1859 C 0.58535 0.09577 0.63893 0.0
C1860 C 0.56167 0.10979 0.63413 0.0
C1861 C 0.55776 0.13709 0.63811 0.0
C1862 C 0.53193 0.14839 0.63034 0.0
C1863 C 0.51145 0.15756 0.64381 0.0
C1864 C 0.53848 0.1719 0.61817 0.0
C1865 C 0.52187 0.12325 0.62124 0.0
C1866 C 0.53889 0.10097 0.62378 0.0
C1867 C 0.53328 0.07544 0.61667 0.0
C1868 C 0.50985 0.0728 0.60656 0.0
C1869 C 0.49289 0.09575 0.60341 0.0
C1870 C 0.49897 0.12113 0.61094 0.0
H1871 H 0.62531 0.73232 0.36998 0.0
H1872 H 0.6745 0.77058 0.3316 0.0
H1873 H 0.6721 0.81491 0.34667 0.0
H1874 H 0.57958 0.78511 0.3748 0.0
H1875 H 0.57552 0.78176 0.39704 0.0
H1876 H 0.5853 0.75251 0.38482 0.0
H1877 H 0.62836 0.746 0.40334 0.0
H1878 H 0.61868 0.77546 0.41557 0.0
H1879 H 0.65207 0.77404 0.40598 0.0
H1880 H 0.65923 0.85576 0.36382 0.0
H1881 H 0.63494 0.89041 0.38067 0.0
H1882 H 0.59411 0.82531 0.408 0.0
C1883 C 0.63613 0.74996 0.36508 0.0
C1884 C 0.65036 0.74836 0.34987 0.0
C1885 C 0.66378 0.77169 0.3434 0.0
C1886 C 0.66263 0.79679 0.35191 0.0
C1887 C 0.64807 0.79796 0.36685 0.0
C1888 C 0.63511 0.77513 0.37341 0.0
C1889 C 0.61834 0.78245 0.38863 0.0
C1890 C 0.5879 0.77504 0.38616 0.0
C1891 C 0.63008 0.76867 0.40431 0.0
C1892 C 0.6227 0.81317 0.38908 0.0
C1893 C 0.64043 0.82165 0.37668 0.0
C1894 C 0.6457 0.84934 0.37377 0.0
C1895 C 0.63179 0.86889 0.38341 0.0
C1896 C 0.61259 0.86061 0.39566 0.0
C1897 C 0.60884 0.83236 0.39886 0.0
H1898 H 0.88791 0.85867 0.13308 0.0
H1899 H 0.91897 0.8805 0.18183 0.0
H1900 H 0.95931 0.90262 0.16873 0.0
H1901 H 0.94939 0.83634 0.1185 0.0
H1902 H 0.94495 0.84739 0.09724 0.0
H1903 H 0.91547 0.83976 0.10983 0.0
H1904 H 0.89589 0.88832 0.10425 0.0
H1905 H 0.92525 0.89602 0.09143 0.0
H1906 H 0.91663 0.91804 0.10869 0.0
H1907 H 0.99825 0.9179 0.15052 0.0
H1908 H 0.0347 0.92109 0.12912 0.0
H1909 H 0.98021 0.88408 0.09284 0.0
C1910 C 0.90265 0.86923 0.14088 0.0
C1911 C 0.90016 0.86883 0.15834 0.0
C1912 C 0.92043 0.88134 0.16837 0.0
C1913 C 0.94328 0.89393 0.16104 0.0
C1914 C 0.94566 0.89327 0.14372 0.0
C1915 C 0.92595 0.88105 0.13378 0.0
C1916 C 0.93539 0.87891 0.11587 0.0
C1917 C 0.93636 0.84882 0.11004 0.0
C1918 C 0.91721 0.89637 0.10438 0.0
C1919 C 0.96381 0.89097 0.11739 0.0
C1920 C 0.96905 0.89996 0.13342 0.0
C1921 C 0.9943 0.91115 0.1379 0.0
C1922 C 0.01484 0.91286 0.12572 0.0
C1923 C 0.01013 0.90266 0.10947 0.0
C1924 C 0.98425 0.8919 0.10524 0.0
H1925 H 0.91991 0.17712 0.9056 0.0
H1926 H 0.85002 0.1228 0.90024 0.0
H1927 H 0.82477 0.15968 0.88543 0.0
H1928 H 0.8826 0.24187 0.91028 0.0
H1929 H 0.90734 0.26042 0.89799 0.0
H1930 H 0.91797 0.2312 0.91011 0.0
H1931 H 0.93819 0.20867 0.88354 0.0
H1932 H 0.92761 0.23773 0.87136 0.0
H1933 H 0.91652 0.20377 0.86558 0.0
H1934 H 0.80816 0.20264 0.87025 0.0
H1935 H 0.80375 0.24513 0.85342 0.0
H1936 H 0.88652 0.26831 0.86702 0.0
C1937 C 0.89904 0.17311 0.90167 0.0
C1938 C 0.8867 0.1473 0.90428 0.0
C1939 C 0.85971 0.14257 0.89846 0.0
C1940 C 0.84523 0.16341 0.89013 0.0
C1941 C 0.85822 0.18859 0.88761 0.0
C1942 C 0.88467 0.19332 0.89309 0.0
C1943 C 0.89534 0.22083 0.88738 0.0
C1944 C 0.90114 0.23969 0.90233 0.0
C1945 C 0.92091 0.21753 0.8763 0.0
C1946 C 0.87099 0.23076 0.87749 0.0
C1947 C 0.84947 0.2123 0.87809 0.0
C1948 C 0.82487 0.21721 0.86973 0.0
C1949 C 0.82251 0.24134 0.86027 0.0
C1950 C 0.84487 0.25969 0.85897 0.0
C1951 C 0.86921 0.25445 0.86782 0.0
H1952 H 0.00757 0.63797 0.59802 0.0
H1953 H -0.00055 0.54971 0.6025 0.0
H1954 H 0.95785 0.55615 0.61993 0.0
H1955 H 0.98943 0.65315 0.63979 0.0
H1956 H 0.97189 0.68447 0.63446 0.0
H1957 H -0.00031 0.67243 0.62167 0.0
H1958 H 0.96802 0.67335 0.59571 0.0
H1959 H 0.9401 0.68543 0.60841 0.0
H1960 H 0.93608 0.65476 0.59611 0.0
H1961 H 0.91583 0.57342 0.63652 0.0
H1962 H 0.88073 0.59954 0.65246 0.0
H1963 H 0.92022 0.6756 0.63807 0.0
C1964 C 0.99694 0.61991 0.6025 0.0
C1965 C 0.00647 0.59334 0.59877 0.0
C1966 C 0.99234 0.57027 0.6052 0.0
C1967 C 0.9687 0.57375 0.61504 0.0
C1968 C 0.95986 0.60039 0.61848 0.0
C1969 C 0.97384 0.62302 0.61251 0.0
C1970 C 0.96135 0.64951 0.61853 0.0
C1971 C 0.98181 0.66583 0.62925 0.0
C1972 C 0.95076 0.66677 0.60382 0.0
C1973 C 0.93806 0.63841 0.62887 0.0
C1974 C 0.93711 0.61009 0.62858 0.0
C1975 C 0.91659 0.59559 0.63695 0.0
C1976 C 0.89677 0.61051 0.64593 0.0
C1977 C 0.89812 0.63948 0.64668 0.0
C1978 C 0.91899 0.65341 0.63798 0.0
H1979 H 0.58519 0.63041 0.87897 0.0
H1980 H 0.62483 0.64631 0.92627 0.0
H1981 H 0.65024 0.68502 0.91372 0.0
H1982 H 0.64317 0.65292 0.85104 0.0
H1983 H 0.61983 0.66873 0.83651 0.0
H1984 H 0.60927 0.63896 0.84818 0.0
H1985 H 0.56717 0.66584 0.85914 0.0
H1986 H 0.57779 0.69577 0.84776 0.0
H1987 H 0.57235 0.69785 0.86994 0.0
H1988 H 0.66664 0.72467 0.89738 0.0
H1989 H 0.67324 0.76356 0.87831 0.0
H1990 H 0.62089 0.72381 0.84172 0.0
C1991 C 0.60013 0.64142 0.88639 0.0
C1992 C 0.60388 0.6352 0.90337 0.0
C1993 C 0.62239 0.65063 0.91311 0.0
C1994 C 0.63682 0.67257 0.9061 0.0
C1995 C 0.63213 0.67886 0.88941 0.0
C1996 C 0.6143 0.66375 0.87963 0.0
C1997 C 0.61037 0.67695 0.8627 0.0
C1998 C 0.62132 0.65828 0.84878 0.0
C1999 C 0.58013 0.68455 0.85973 0.0
C2000 C 0.62804 0.70226 0.86472 0.0
C2001 C 0.64076 0.70265 0.88011 0.0
C2002 C 0.65711 0.72446 0.88521 0.0
C2003 C 0.66061 0.74652 0.87429 0.0
C2004 C 0.64756 0.74677 0.8585 0.0
C2005 C 0.63118 0.72422 0.85367 0.0
H2006 H 0.57979 0.36818 0.16024 0.0
H2007 H 0.64131 0.38166 0.12206 0.0
H2008 H 0.60531 0.39809 0.10291 0.0
H2009 H 0.53167 0.34032 0.13565 0.0
H2010 H 0.50202 0.35577 0.1452 0.0
H2011 H 0.53271 0.35077 0.15719 0.0
H2012 H 0.53445 0.4025 0.1644 0.0
H2013 H 0.50328 0.40768 0.15273 0.0
H2014 H 0.53342 0.42752 0.14788 0.0
H2015 H 0.56234 0.40245 0.08626 0.0
H2016 H 0.51557 0.4016 0.07438 0.0
H2017 H 0.48169 0.38811 0.12361 0.0
C2018 C 0.58585 0.37562 0.14807 0.0
C2019 C 0.61337 0.37365 0.14264 0.0
C2020 C 0.62044 0.38325 0.12656 0.0
C2021 C 0.60008 0.3925 0.11556 0.0
C2022 C 0.57291 0.39258 0.12099 0.0
C2023 C 0.56583 0.38514 0.13703 0.0
C2024 C 0.53498 0.38482 0.13933 0.0
C2025 C 0.52477 0.35623 0.14465 0.0
C2026 C 0.52601 0.40696 0.15182 0.0
C2027 C 0.52575 0.39182 0.12184 0.0
C2028 C 0.54797 0.39628 0.11146 0.0
C2029 C 0.54478 0.39987 0.09435 0.0
C2030 C 0.51823 0.39909 0.0877 0.0
C2031 C 0.49525 0.3951 0.09816 0.0
C2032 C 0.499 0.39179 0.11546 0.0
H2033 H 0.85414 0.28398 0.33808 0.0
H2034 H 0.81817 0.22846 0.37419 0.0
H2035 H 0.81661 0.26595 0.39486 0.0
H2036 H 0.89778 0.31651 0.36413 0.0
H2037 H 0.89415 0.35023 0.35521 0.0
H2038 H 0.88774 0.32049 0.34265 0.0
H2039 H 0.83913 0.33891 0.3358 0.0
H2040 H 0.84538 0.36868 0.34859 0.0
H2041 H 0.81595 0.34729 0.35253 0.0
H2042 H 0.82854 0.30564 0.41296 0.0
H2043 H 0.85177 0.34473 0.42661 0.0
H2044 H 0.87543 0.37633 0.37832 0.0
C2045 C 0.84537 0.27989 0.35022 0.0
C2046 C 0.83642 0.25335 0.35459 0.0
C2047 C 0.82508 0.24872 0.37058 0.0
C2048 C 0.82397 0.26991 0.38237 0.0
C2049 C 0.83357 0.29576 0.3778 0.0
C2050 C 0.84363 0.30094 0.362 0.0
C2051 C 0.85509 0.32967 0.36067 0.0
C2052 C 0.88548 0.32917 0.35537 0.0
C2053 C 0.83785 0.34717 0.34869 0.0
C2054 C 0.85168 0.33921 0.37849 0.0
C2055 C 0.83885 0.31951 0.38815 0.0
C2056 C 0.83762 0.3217 0.40547 0.0
C2057 C 0.85079 0.34394 0.41313 0.0
C2058 C 0.86459 0.36381 0.40343 0.0
C2059 C 0.8639 0.36204 0.38592 0.0
H2060 H 0.87284 0.36931 0.87065 0.0
H2061 H 0.89975 0.40547 0.82425 0.0
H2062 H 0.93401 0.43321 0.83954 0.0
H2063 H 0.89035 0.42905 0.8999 0.0
H2064 H 0.90274 0.4054 0.91543 0.0
H2065 H 0.87478 0.39569 0.90195 0.0
H2066 H 0.90182 0.35243 0.89296 0.0
H2067 H 0.92989 0.36211 0.90615 0.0
H2068 H 0.93568 0.3563 0.88425 0.0
H2069 H 0.97031 0.45004 0.85871 0.0
H2070 H 0.00781 0.45164 0.87926 0.0
H2071 H 0.96008 0.40076 0.91281 0.0
C2072 C 0.88495 0.38427 0.86391 0.0
C2073 C 0.88322 0.38614 0.84643 0.0
C2074 C 0.90042 0.40449 0.83773 0.0
C2075 C 0.91985 0.4203 0.84633 0.0
C2076 C 0.92204 0.41707 0.86356 0.0
C2077 C 0.90504 0.39942 0.87227 0.0
C2078 C 0.91507 0.39523 0.88996 0.0
C2079 C 0.89451 0.40706 0.90256 0.0
C2080 C 0.92097 0.36473 0.89351 0.0
C2081 C 0.94117 0.41199 0.88956 0.0
C2082 C 0.94429 0.42525 0.87445 0.0
C2083 C 0.96786 0.44017 0.87069 0.0
C2084 C 0.98909 0.44091 0.88245 0.0
C2085 C 0.9869 0.42624 0.89763 0.0
C2086 C 0.96228 0.41228 0.90136 0.0
H2087 H 0.8683 0.68575 0.07937 0.0
H2088 H 0.84743 0.61514 0.10973 0.0
H2089 H 0.82573 0.64547 0.13028 0.0
H2090 H 0.89033 0.72519 0.10892 0.0
H2091 H 0.87673 0.75769 0.10213 0.0
H2092 H 0.88279 0.73101 0.0872 0.0
H2093 H 0.83221 0.73285 0.07752 0.0
H2094 H 0.82601 0.76025 0.09214 0.0
H2095 H 0.80506 0.72981 0.09264 0.0
H2096 H 0.82036 0.68236 0.15087 0.0
H2097 H 0.82407 0.72416 0.16821 0.0
H2098 H 0.84498 0.77168 0.12447 0.0
C2099 C 0.85787 0.67657 0.08989 0.0
C2100 C 0.8598 0.64814 0.09301 0.0
C2101 C 0.84636 0.63691 0.10709 0.0
C2102 C 0.83387 0.65399 0.11885 0.0
C2103 C 0.83438 0.68217 0.11614 0.0
C2104 C 0.84517 0.69341 0.10172 0.0
C2105 C 0.84642 0.72442 0.10286 0.0
C2106 C 0.8758 0.73517 0.10013 0.0
C2107 C 0.82621 0.73761 0.09056 0.0
C2108 C 0.83712 0.72857 0.12068 0.0
C2109 C 0.82984 0.70396 0.12803 0.0
C2110 C 0.82482 0.70191 0.1451 0.0
C2111 C 0.82725 0.72559 0.15487 0.0
C2112 C 0.83431 0.75087 0.14749 0.0
C2113 C 0.83874 0.75254 0.13019 0.0
H2114 H 0.52571 0.60223 0.40956 0.0
H2115 H 0.47064 0.56307 0.37444 0.0
H2116 H 0.50631 0.56596 0.35265 0.0
H2117 H 0.55153 0.6499 0.38381 0.0
H2118 H 0.58635 0.64912 0.39133 0.0
H2119 H 0.55881 0.63909 0.40484 0.0
H2120 H 0.58212 0.59204 0.4098 0.0
H2121 H 0.60993 0.60201 0.39629 0.0
H2122 H 0.59118 0.57086 0.39223 0.0
H2123 H 0.54296 0.58301 0.33359 0.0
H2124 H 0.5797 0.60902 0.31935 0.0
H2125 H 0.613 0.63312 0.36716 0.0
C2126 C 0.5215 0.59351 0.39742 0.0
C2127 C 0.49549 0.58249 0.39363 0.0
C2128 C 0.49056 0.57141 0.37761 0.0
C2129 C 0.5107 0.57294 0.36517 0.0
C2130 C 0.53585 0.58489 0.36913 0.0
C2131 C 0.54154 0.59439 0.385 0.0
C2132 C 0.56912 0.60856 0.38571 0.0
C2133 C 0.56625 0.63842 0.39176 0.0
C2134 C 0.58928 0.59239 0.39666 0.0
C2135 C 0.57726 0.6072 0.36754 0.0
C2136 C 0.55792 0.59324 0.35818 0.0
C2137 C 0.5588 0.59302 0.34081 0.0
C2138 C 0.57963 0.60786 0.33283 0.0
C2139 C 0.59944 0.62227 0.34224 0.0
C2140 C 0.5987 0.62124 0.35977 0.0
H2141 H 0.65864 0.28139 0.65944 0.0
H2142 H 0.68687 0.22304 0.62248 0.0
H2143 H 0.68379 0.25882 0.6008 0.0
H2144 H 0.60939 0.31002 0.63709 0.0
H2145 H 0.61378 0.34494 0.64398 0.0
H2146 H 0.62462 0.31723 0.6571 0.0
H2147 H 0.67369 0.33749 0.65835 0.0
H2148 H 0.66292 0.36555 0.64526 0.0
H2149 H 0.69182 0.34473 0.63928 0.0
H2150 H 0.66597 0.29612 0.58261 0.0
H2151 H 0.63895 0.33346 0.56978 0.0
H2152 H 0.62579 0.36929 0.6185 0.0
C2153 C 0.66515 0.27647 0.64689 0.0
C2154 C 0.67292 0.2495 0.6426 0.0
C2155 C 0.68107 0.24366 0.62605 0.0
C2156 C 0.67941 0.26388 0.61366 0.0
C2157 C 0.67032 0.28997 0.61814 0.0
C2158 C 0.66402 0.29652 0.63447 0.0
C2159 C 0.65182 0.32497 0.63578 0.0
C2160 C 0.62322 0.32421 0.64396 0.0
C2161 C 0.67123 0.34433 0.64523 0.0
C2162 C 0.65017 0.33256 0.61753 0.0
C2163 C 0.66133 0.31229 0.60754 0.0
C2164 C 0.65817 0.31263 0.59027 0.0
C2165 C 0.64271 0.33381 0.58308 0.0
C2166 C 0.63091 0.35446 0.59316 0.0
C2167 C 0.63553 0.3543 0.6105 0.0
H2168 H 0.98302 0.35634 0.38255 0.0
H2169 H 0.00264 0.44251 0.38825 0.0
H2170 H 0.04566 0.43558 0.37234 0.0
H2171 H 0.04852 0.32995 0.38714 0.0
H2172 H 0.04522 0.30374 0.37143 0.0
H2173 H 0.01529 0.31594 0.38221 0.0
H2174 H 0.99237 0.32831 0.35403 0.0
H2175 H 0.02213 0.3158 0.34313 0.0
H2176 H 0.01016 0.35026 0.33956 0.0
H2177 H 0.08943 0.4173 0.35932 0.0
H2178 H 0.12723 0.39061 0.34639 0.0
H2179 H 0.07609 0.31791 0.34691 0.0
C2180 C 0.99619 0.3738 0.38016 0.0
C2181 C 0.98983 0.39989 0.38656 0.0
C2182 C 0.00729 0.42239 0.38327 0.0
C2183 C 0.03173 0.41862 0.37433 0.0
C2184 C 0.0378 0.3924 0.36848 0.0
C2185 C 0.02015 0.37054 0.37089 0.0
C2186 C 0.03136 0.34442 0.36342 0.0
C2187 C 0.03534 0.32222 0.37685 0.0
C2188 C 0.01291 0.3341 0.34919 0.0
C2189 C 0.0585 0.35477 0.35691 0.0
C2190 C 0.06205 0.38241 0.36005 0.0
C2191 C 0.08663 0.39581 0.35642 0.0
C2192 C 0.10798 0.38056 0.34921 0.0
C2193 C 0.10421 0.35248 0.34548 0.0
C2194 C 0.07916 0.33956 0.34932 0.0
H2195 H 0.36938 0.3556 0.11563 0.0
H2196 H 0.36136 0.31916 0.06665 0.0
H2197 H 0.33686 0.27969 0.07895 0.0
H2198 H 0.38967 0.29847 0.13424 0.0
H2199 H 0.37306 0.30393 0.15403 0.0
H2200 H 0.38175 0.33273 0.14121 0.0
H2201 H 0.33111 0.34884 0.14155 0.0
H2202 H 0.32224 0.31998 0.15453 0.0
H2203 H 0.30438 0.32557 0.13516 0.0
H2204 H 0.32122 0.24075 0.09687 0.0
H2205 H 0.32031 0.20474 0.11866 0.0
H2206 H 0.34202 0.26532 0.15583 0.0
C2207 C 0.36127 0.33992 0.10743 0.0
C2208 C 0.36676 0.34056 0.0902 0.0
C2209 C 0.35702 0.31913 0.07989 0.0
C2210 C 0.34294 0.29674 0.08676 0.0
C2211 C 0.33893 0.29605 0.10396 0.0
C2212 C 0.34786 0.31716 0.11416 0.0
C2213 C 0.34606 0.30933 0.13236 0.0
C2214 C 0.3743 0.3112 0.14094 0.0
C2215 C 0.32466 0.32698 0.14143 0.0
C2216 C 0.33646 0.27997 0.13078 0.0
C2217 C 0.33133 0.27297 0.11438 0.0
C2218 C 0.3246 0.24615 0.10979 0.0
C2219 C 0.32408 0.22585 0.1222 0.0
C2220 C 0.33103 0.23249 0.1388 0.0
C2221 C 0.33637 0.25995 0.14319 0.0
H2222 H 0.41733 0.61495 0.83381 0.0
H2223 H 0.34712 0.61534 0.86698 0.0
H2224 H 0.37436 0.59145 0.88834 0.0
H2225 H 0.44736 0.54672 0.84926 0.0
H2226 H 0.48169 0.55983 0.84687 0.0
H2227 H 0.45495 0.57077 0.83285 0.0
H2228 H 0.46554 0.6214 0.84019 0.0
H2229 H 0.49193 0.61073 0.85435 0.0
H2230 H 0.46437 0.6322 0.86167 0.0
H2231 H 0.41159 0.57962 0.90816 0.0
H2232 H 0.45508 0.57538 0.92385 0.0
H2233 H 0.50071 0.57899 0.87765 0.0
C2234 C 0.40737 0.609 0.84531 0.0
C2235 C 0.38012 0.61701 0.84872 0.0
C2236 C 0.36788 0.6092 0.864 0.0
C2237 C 0.38322 0.59562 0.87624 0.0
C2238 C 0.41054 0.58939 0.87285 0.0
C2239 C 0.42233 0.59516 0.85757 0.0
C2240 C 0.45279 0.58917 0.85768 0.0
C2241 C 0.45959 0.56519 0.84597 0.0
C2242 C 0.46962 0.6149 0.85322 0.0
C2243 C 0.45667 0.58108 0.87573 0.0
C2244 C 0.43199 0.58104 0.88424 0.0
C2245 C 0.43089 0.57846 0.90155 0.0
C2246 C 0.4556 0.57622 0.91036 0.0
C2247 C 0.48092 0.57616 0.90182 0.0
C2248 C 0.48142 0.57791 0.88431 0.0
H2249 H 0.16156 0.75666 0.62383 0.0
H2250 H 0.16362 0.71486 0.67143 0.0
H2251 H 0.16169 0.67009 0.65699 0.0
H2252 H 0.11108 0.71668 0.60745 0.0
H2253 H 0.12359 0.71666 0.58631 0.0
H2254 H 0.13194 0.74461 0.59996 0.0
H2255 H 0.18369 0.73637 0.59451 0.0
H2256 H 0.17541 0.70816 0.58088 0.0
H2257 H 0.1982 0.70295 0.59827 0.0
H2258 H 0.15368 0.63071 0.63793 0.0
H2259 H 0.13365 0.60049 0.61656 0.0
H2260 H 0.13361 0.6681 0.5814 0.0
C2261 C 0.16255 0.73798 0.63111 0.0
C2262 C 0.16319 0.73896 0.64865 0.0
C2263 C 0.16334 0.71433 0.65793 0.0
C2264 C 0.16252 0.68888 0.64984 0.0
C2265 C 0.16129 0.68851 0.63248 0.0
C2266 C 0.16102 0.71245 0.62322 0.0
C2267 C 0.15481 0.70674 0.60507 0.0
C2268 C 0.12881 0.72206 0.59938 0.0
C2269 C 0.17951 0.71398 0.59403 0.0
C2270 C 0.1503 0.67605 0.60571 0.0
C2271 C 0.15513 0.66579 0.6215 0.0
C2272 C 0.15021 0.63841 0.62546 0.0
C2273 C 0.13886 0.62136 0.6132 0.0
C2274 C 0.13195 0.63197 0.59732 0.0
C2275 C 0.13884 0.65936 0.59338 0.0
H2276 H 0.08216 0.63867 0.15529 0.0
H2277 H 0.13751 0.66315 0.11573 0.0
H2278 H 0.10137 0.6538 0.09488 0.0
H2279 H 0.0487 0.58238 0.13069 0.0
H2280 H 0.01589 0.58866 0.14028 0.0
H2281 H 0.047 0.595 0.15178 0.0
H2282 H 0.03106 0.6449 0.15723 0.0
H2283 H 0.00022 0.63894 0.14548 0.0
H2284 H 0.02276 0.6667 0.1398 0.0
H2285 H 0.05731 0.64902 0.07916 0.0
H2286 H 0.01055 0.64039 0.0686 0.0
H2287 H 0.98504 0.61482 0.11803 0.0
C2288 C 0.08683 0.64124 0.14218 0.0
C2289 C 0.11249 0.65144 0.13701 0.0
C2290 C 0.11802 0.65491 0.11984 0.0
C2291 C 0.09759 0.64988 0.10796 0.0
C2292 C 0.07212 0.6407 0.11349 0.0
C2293 C 0.06694 0.63555 0.13014 0.0
C2294 C 0.03778 0.62588 0.13279 0.0
C2295 C 0.03732 0.59622 0.13927 0.0
C2296 C 0.02204 0.64527 0.14452 0.0
C2297 C 0.02704 0.62756 0.11513 0.0
C2298 C 0.04713 0.63635 0.10422 0.0
C2299 C 0.04158 0.64145 0.08748 0.0
C2300 C 0.01494 0.63673 0.08164 0.0
C2301 C 0.99436 0.62666 0.09248 0.0
C2302 C 0.00053 0.62211 0.10944 0.0
H2303 H 0.09807 0.32952 0.91644 0.0
H2304 H 0.11886 0.39553 0.88241 0.0
H2305 H 0.14161 0.36227 0.86385 0.0
H2306 H 0.16172 0.28753 0.90896 0.0
H2307 H 0.14271 0.25593 0.91055 0.0
H2308 H 0.13227 0.28548 0.92247 0.0
H2309 H 0.08368 0.28204 0.90967 0.0
H2310 H 0.09396 0.25282 0.89754 0.0
H2311 H 0.07977 0.28251 0.88733 0.0
H2312 H 0.15395 0.32159 0.84677 0.0
H2313 H 0.15931 0.27613 0.83345 0.0
H2314 H 0.13277 0.2365 0.87896 0.0
C2315 C 0.10807 0.33712 0.90531 0.0
C2316 C 0.1067 0.36513 0.90086 0.0
C2317 C 0.11986 0.37422 0.88615 0.0
C2318 C 0.1328 0.35547 0.87552 0.0
C2319 C 0.13282 0.32784 0.87995 0.0
C2320 C 0.12128 0.31873 0.89467 0.0
C2321 C 0.12218 0.28775 0.89592 0.0
C2322 C 0.14084 0.27864 0.91033 0.0
C2323 C 0.09318 0.27559 0.89771 0.0
C2324 C 0.13473 0.28077 0.87922 0.0
C2325 C 0.1409 0.30423 0.87026 0.0
C2326 C 0.14998 0.30309 0.85382 0.0
C2327 C 0.1528 0.27732 0.84634 0.0
C2328 C 0.14682 0.25319 0.85537 0.0
C2329 C 0.13806 0.25483 0.87204 0.0
H2330 H 0.51905 0.38185 0.62718 0.0
H2331 H 0.47932 0.41848 0.5844 0.0
H2332 H 0.43418 0.41352 0.59817 0.0
H2333 H 0.47114 0.33105 0.63311 0.0
H2334 H 0.47237 0.33094 0.65556 0.0
H2335 H 0.50173 0.34203 0.64383 0.0
H2336 H 0.50156 0.38841 0.65963 0.0
H2337 H 0.47215 0.37736 0.67146 0.0
H2338 H 0.47086 0.40898 0.65986 0.0
H2339 H 0.39334 0.39952 0.61494 0.0
H2340 H 0.35973 0.37582 0.63287 0.0
H2341 H 0.42607 0.34732 0.66453 0.0
C2342 C 0.50084 0.3896 0.62105 0.0
C2343 C 0.50235 0.40102 0.60498 0.0
C2344 C 0.47829 0.41008 0.59689 0.0
C2345 C 0.45268 0.40742 0.60462 0.0
C2346 C 0.45163 0.39555 0.6204 0.0
C2347 C 0.47508 0.38681 0.62855 0.0
C2348 C 0.46805 0.37186 0.64451 0.0
C2349 C 0.47896 0.34222 0.64422 0.0
C2350 C 0.47879 0.3876 0.65977 0.0
C2351 C 0.43705 0.37262 0.64371 0.0
C2352 C 0.42796 0.38685 0.6299 0.0
C2353 C 0.40018 0.38869 0.62595 0.0
C2354 C 0.38122 0.37515 0.63621 0.0
C2355 C 0.39021 0.35972 0.65012 0.0
C2356 C 0.41847 0.35906 0.65405 0.0
H2357 H 0.36182 0.72472 0.34145 0.0
H2358 H 0.31735 0.7738 0.37756 0.0
H2359 H 0.32118 0.73628 0.39809 0.0
H2360 H 0.33215 0.6578 0.35423 0.0
H2361 H 0.36397 0.63995 0.35068 0.0
H2362 H 0.3554 0.66959 0.33831 0.0
H2363 H 0.40114 0.69279 0.34684 0.0
H2364 H 0.40992 0.66319 0.35905 0.0
H2365 H 0.40923 0.69661 0.36864 0.0
H2366 H 0.33597 0.69679 0.41577 0.0
H2367 H 0.35964 0.65746 0.42896 0.0
H2368 H 0.39074 0.63223 0.38085 0.0
C2369 C 0.35264 0.72745 0.35362 0.0
C2370 C 0.33942 0.75218 0.35797 0.0
C2371 C 0.32754 0.75497 0.37398 0.0
C2372 C 0.3295 0.73375 0.38569 0.0
C2373 C 0.34286 0.70968 0.38105 0.0
C2374 C 0.35396 0.7063 0.36534 0.0
C2375 C 0.36856 0.67906 0.36376 0.0
C2376 C 0.35415 0.6605 0.35099 0.0
C2377 C 0.399 0.68318 0.35932 0.0
C2378 C 0.36505 0.66817 0.38128 0.0
C2379 C 0.34998 0.68606 0.39105 0.0
C2380 C 0.347 0.68216 0.40816 0.0
C2381 C 0.36038 0.65982 0.41555 0.0
C2382 C 0.37601 0.64155 0.40574 0.0
C2383 C 0.37778 0.64534 0.38839 0.0
H2384 H 0.12193 0.03008 0.12398 0.0
H2385 H 0.16468 0.01478 0.07749 0.0
H2386 H 0.20414 0.04162 0.08769 0.0
H2387 H 0.14516 0.10021 0.12887 0.0
H2388 H 0.14785 0.0976 0.15122 0.0
H2389 H 0.12311 0.07708 0.14016 0.0
H2390 H 0.14367 0.03315 0.15334 0.0
H2391 H 0.16863 0.0535 0.16432 0.0
H2392 H 0.17972 0.02606 0.15087 0.0
H2393 H 0.2393 0.06942 0.10326 0.0
H2394 H 0.26656 0.09825 0.12237 0.0
H2395 H 0.20037 0.09646 0.15841 0.0
C2396 C 0.13951 0.03251 0.11587 0.0
C2397 C 0.1405 0.01965 0.1001 0.0
C2398 C 0.16382 0.02345 0.08986 0.0
C2399 C 0.18624 0.03895 0.09549 0.0
C2400 C 0.18485 0.05073 0.11129 0.0
C2401 C 0.16196 0.04795 0.12126 0.0
C2402 C 0.16551 0.06282 0.13769 0.0
C2403 C 0.14414 0.0858 0.13959 0.0
C2404 C 0.16432 0.04267 0.15242 0.0
C2405 C 0.19406 0.07434 0.13544 0.0
C2406 C 0.20491 0.06704 0.12016 0.0
C2407 C 0.23109 0.07513 0.11529 0.0
C2408 C 0.24654 0.09122 0.12631 0.0
C2409 C 0.23579 0.09894 0.14202 0.0
C2410 C 0.20914 0.09055 0.14654 0.0
H2411 H 0.22588 0.90742 0.35447 0.0
H2412 H 0.2139 0.83843 0.3878 0.0
H2413 H 0.18168 0.86588 0.40457 0.0
H2414 H 0.22179 0.96149 0.38722 0.0
H2415 H 0.20382 0.98487 0.37369 0.0
H2416 H 0.22784 0.96062 0.36507 0.0
H2417 H 0.19001 0.9421 0.34539 0.0
H2418 H 0.16587 0.96613 0.35399 0.0
H2419 H 0.15818 0.92998 0.35413 0.0
H2420 H 0.14743 0.89851 0.41589 0.0
H2421 H 0.11428 0.93559 0.42183 0.0
H2422 H 0.1499 0.98473 0.38238 0.0
C2423 C 0.21723 0.89846 0.36563 0.0
C2424 C 0.22281 0.87098 0.37005 0.0
C2425 C 0.21004 0.85952 0.38428 0.0
C2426 C 0.19181 0.87496 0.39392 0.0
C2427 C 0.18661 0.90192 0.38922 0.0
C2428 C 0.19908 0.91372 0.37551 0.0
C2429 C 0.18866 0.94266 0.3727 0.0
C2430 C 0.21192 0.96365 0.3748 0.0
C2431 C 0.17486 0.94536 0.35554 0.0
C2432 C 0.16793 0.94494 0.38671 0.0
C2433 C 0.16715 0.92119 0.39609 0.0
C2434 C 0.1482 0.91745 0.40888 0.0
C2435 C 0.12944 0.93851 0.41212 0.0
C2436 C 0.13002 0.96305 0.40277 0.0
C2437 C 0.14965 0.96642 0.39001 0.0
H2438 H 0.27816 0.8721 0.61198 0.0
H2439 H 0.25026 0.91503 0.65627 0.0
H2440 H 0.28001 0.95381 0.64935 0.0
H2441 H 0.34822 0.89175 0.61697 0.0
H2442 H 0.35475 0.89466 0.59494 0.0
H2443 H 0.32905 0.87115 0.60239 0.0
H2444 H 0.29278 0.89434 0.58347 0.0
H2445 H 0.31837 0.91791 0.57594 0.0
H2446 H 0.28718 0.93078 0.58509 0.0
H2447 H 0.31291 0.98821 0.63771 0.0
H2448 H 0.34971 0.01395 0.6234 0.0
H2449 H 0.35997 0.947 0.58842 0.0
C2450 C 0.27804 0.88975 0.62017 0.0
C2451 C 0.26062 0.89083 0.63426 0.0
C2452 C 0.26182 0.91407 0.64485 0.0
C2453 C 0.27913 0.93619 0.64117 0.0
C2454 C 0.29565 0.93454 0.62708 0.0
C2455 C 0.29559 0.91175 0.61687 0.0
C2456 C 0.31671 0.91435 0.60312 0.0
C2457 C 0.33847 0.89163 0.60445 0.0
C2458 C 0.30293 0.91435 0.58589 0.0
C2459 C 0.32868 0.94219 0.60722 0.0
C2460 C 0.31595 0.95363 0.62096 0.0
C2461 C 0.32307 0.97946 0.62697 0.0
C2462 C 0.34383 0.99395 0.61874 0.0
C2463 C 0.35738 0.98239 0.60484 0.0
C2464 C 0.34984 0.95616 0.59907 0.0
H2465 H 0.27435 0.10256 0.84923 0.0
H2466 H 0.24689 0.12698 0.89838 0.0
H2467 H 0.27451 0.08977 0.91096 0.0
H2468 H 0.27732 0.02829 0.85688 0.0
H2469 H 0.30809 0.02403 0.84472 0.0
H2470 H 0.28409 0.05081 0.83956 0.0
H2471 H 0.32291 0.08692 0.84189 0.0
H2472 H 0.34698 0.0603 0.84707 0.0
H2473 H 0.34259 0.08914 0.86086 0.0
H2474 H 0.30652 0.05117 0.91818 0.0
H2475 H 0.34315 0.01629 0.9197 0.0
H2476 H 0.3508 0.01802 0.86588 0.0
C2477 C 0.27367 0.09956 0.86259 0.0
C2478 C 0.25816 0.11712 0.87287 0.0
C2479 C 0.25856 0.11347 0.89035 0.0
C2480 C 0.27404 0.09236 0.89757 0.0
C2481 C 0.2892 0.07534 0.88711 0.0
C2482 C 0.28931 0.07884 0.87 0.0
C2483 C 0.30904 0.05919 0.86167 0.0
C2484 C 0.29371 0.0394 0.85002 0.0
C2485 C 0.33172 0.07483 0.85233 0.0
C2486 C 0.32028 0.04438 0.87678 0.0
C2487 C 0.30826 0.05367 0.8913 0.0
C2488 C 0.31585 0.0435 0.90687 0.0
C2489 C 0.33651 0.02351 0.90761 0.0
C2490 C 0.34941 0.01414 0.89289 0.0
C2491 C 0.34107 0.02469 0.87731 0.0
H2492 H 0.86932 0.94923 0.89497 0.0
H2493 H 0.82583 0.0249 0.88453 0.0
H2494 H 0.78584 0.99824 0.8749 0.0
H2495 H 0.84566 0.91288 0.85922 0.0
H2496 H 0.84313 0.8804 0.86982 0.0
H2497 H 0.86777 0.9055 0.87665 0.0
H2498 H 0.84731 0.90401 0.90645 0.0
H2499 H 0.82271 0.87878 0.89974 0.0
H2500 H 0.81118 0.91012 0.90936 0.0
H2501 H 0.75072 0.9629 0.86602 0.0
H2502 H 0.72333 0.92199 0.85897 0.0
H2503 H 0.79086 0.86972 0.87408 0.0
C2504 C 0.85131 0.96022 0.89077 0.0
C2505 C 0.85046 0.98915 0.89091 0.0
C2506 C 0.82663 0.00277 0.88514 0.0
C2507 C 0.80391 0.98778 0.87944 0.0
C2508 C 0.80547 0.95924 0.8795 0.0
C2509 C 0.82857 0.94562 0.88503 0.0
C2510 C 0.82532 0.91487 0.88357 0.0
C2511 C 0.84674 0.90271 0.8716 0.0
C2512 C 0.8267 0.90115 0.90081 0.0
C2513 C 0.79679 0.91327 0.8763 0.0
C2514 C 0.78565 0.93904 0.87402 0.0
C2515 C 0.75937 0.94263 0.86757 0.0
C2516 C 0.74408 0.91923 0.86338 0.0
C2517 C 0.75523 0.89264 0.86553 0.0
C2518 C 0.78188 0.88978 0.87216 0.0
H2519 H 0.86135 0.0373 0.60133 0.0
H2520 H 0.8275 0.9625 0.62198 0.0
H2521 H 0.78989 0.98916 0.6349 0.0
H2522 H 0.84813 0.08016 0.63558 0.0
H2523 H 0.83907 0.10979 0.62334 0.0
H2524 H 0.86229 0.08461 0.61501 0.0
H2525 H 0.83089 0.07833 0.58922 0.0
H2526 H 0.80763 0.10365 0.59743 0.0
H2527 H 0.79523 0.06992 0.59216 0.0
H2528 H 0.75908 0.02483 0.64793 0.0
H2529 H 0.73488 0.0661 0.65797 0.0
H2530 H 0.78685 0.11701 0.62689 0.0
C2531 C 0.84578 0.02657 0.6084 0.0
C2532 C 0.84699 0.99792 0.61056 0.0
C2533 C 0.82649 0.98442 0.61995 0.0
C2534 C 0.80522 -0.0006 0.6274 0.0
C2535 C 0.80468 0.02774 0.62513 0.0
C2536 C 0.82421 0.04112 0.61565 0.0
C2537 C 0.81922 0.07172 0.61527 0.0
C2538 C 0.84362 0.08748 0.62275 0.0
C2539 C 0.81286 0.08147 0.59746 0.0
C2540 C 0.79419 0.07357 0.62632 0.0
C2541 C 0.78615 0.04802 0.63194 0.0
C2542 C 0.76463 0.04484 0.64319 0.0
C2543 C 0.75077 0.06839 0.64867 0.0
C2544 C 0.75811 0.09465 0.6426 0.0
C2545 C 0.78032 0.09715 0.63143 0.0
H2546 H 0.63779 0.02142 0.35824 0.0
H2547 H 0.65376 0.01851 0.41136 0.0
H2548 H 0.69396 0.04862 0.40751 0.0
H2549 H 0.71043 0.02345 0.34485 0.0
H2550 H 0.70324 0.04668 0.32794 0.0
H2551 H 0.6775 0.02258 0.33467 0.0
H2552 H 0.64325 0.06251 0.33924 0.0
H2553 H 0.66883 0.08668 0.33255 0.0
H2554 H 0.65277 0.09064 0.35263 0.0
H2555 H 0.72921 0.08294 0.39831 0.0
H2556 H 0.75732 0.1184 0.38424 0.0
H2557 H 0.71918 0.09831 0.33709 0.0
C2558 C 0.65005 0.02679 0.36901 0.0
C2559 C 0.64305 0.01719 0.38505 0.0
C2560 C 0.65928 0.02489 0.3989 0.0
C2561 C 0.68205 0.04215 0.39684 0.0
C2562 C 0.68838 0.05131 0.38084 0.0
C2563 C 0.67296 0.04375 0.36714 0.0
C2564 C 0.68319 0.05757 0.35143 0.0
C2565 C 0.69425 0.0363 0.33899 0.0
C2566 C 0.66067 0.07541 0.34351 0.0
C2567 C 0.70614 0.0749 0.35851 0.0
C2568 C 0.70897 0.0708 0.37549 0.0
C2569 C 0.72755 0.08592 0.38498 0.0
C2570 C 0.74338 0.10594 0.37694 0.0
C2571 C 0.74056 0.11046 0.35964 0.0
C2572 C 0.72201 0.0946 0.35028 0.0
H2573 H 0.7235 0.88051 0.12097 0.0
H2574 H 0.7554 0.92982 0.16167 0.0
H2575 H 0.7286 0.96919 0.15175 0.0
H2576 H 0.71886 0.93432 0.08976 0.0
H2577 H 0.68687 0.92166 0.08156 0.0
H2578 H 0.71109 0.89821 0.09074 0.0
H2579 H 0.67368 0.881 0.11115 0.0
H2580 H 0.64936 0.90432 0.10204 0.0
H2581 H 0.65589 0.90536 0.12413 0.0
H2582 H 0.69665 0.003 0.1379 0.0
H2583 H 0.65959 0.02694 0.12268 0.0
H2584 H 0.64614 0.95442 0.09253 0.0
C2585 C 0.72518 0.89963 0.12776 0.0
C2586 C 0.74255 0.90212 0.14179 0.0
C2587 C 0.74353 0.92747 0.15042 0.0
C2588 C 0.72803 0.95 0.14498 0.0
C2589 C 0.71133 0.94679 0.13103 0.0
C2590 C 0.70961 0.92212 0.12265 0.0
C2591 C 0.68857 0.92325 0.10881 0.0
C2592 C 0.70217 0.91912 0.0917 0.0
C2593 C 0.66551 0.90224 0.11172 0.0
C2594 C 0.67835 0.95232 0.11087 0.0
C2595 C 0.69206 0.96575 0.12356 0.0
C2596 C 0.68592 0.99274 0.12787 0.0
C2597 C 0.66501 0.00623 0.1191 0.0
C2598 C 0.65038 0.99256 0.10633 0.0
C2599 C 0.6572 0.96532 0.10218 0.0
H2600 H 0.63142 0.52067 0.63607 0.0
H2601 H 0.66643 0.50771 0.58699 0.0
H2602 H 0.70575 0.53679 0.59452 0.0
H2603 H 0.64935 0.59155 0.63863 0.0
H2604 H 0.65637 0.59063 0.66068 0.0
H2605 H 0.63187 0.5672 0.65178 0.0
H2606 H 0.65892 0.52618 0.66408 0.0
H2607 H 0.68357 0.54949 0.67297 0.0
H2608 H 0.69483 0.52242 0.65929 0.0
H2609 H 0.74085 0.56822 0.60718 0.0
H2610 H 0.76778 0.60167 0.6235 0.0
H2611 H 0.7091 0.59573 0.66391 0.0
C2612 C 0.64742 0.52381 0.62692 0.0
C2613 C 0.64625 0.51102 0.61113 0.0
C2614 C 0.66739 0.51607 0.59943 0.0
C2615 C 0.68972 0.53289 0.60353 0.0
C2616 C 0.69043 0.54479 0.61931 0.0
C2617 C 0.66972 0.54067 0.63077 0.0
C2618 C 0.67475 0.55682 0.64659 0.0
C2619 C 0.65172 0.57779 0.64959 0.0
C2620 C 0.67823 0.53757 0.66162 0.0
C2621 C 0.70148 0.57082 0.6422 0.0
C2622 C 0.7103 0.56341 0.62646 0.0
C2623 C 0.7343 0.57396 0.61958 0.0
C2624 C 0.7496 0.59272 0.629 0.0
C2625 C 0.74082 0.60069 0.6451 0.0
C2626 C 0.7164 0.58966 0.65171 0.0
H2627 H 0.69255 0.38386 0.84585 0.0
H2628 H 0.76419 0.40416 0.87535 0.0
H2629 H 0.73719 0.43858 0.89092 0.0
H2630 H 0.66643 0.45421 0.84306 0.0
H2631 H 0.63109 0.44358 0.84421 0.0
H2632 H 0.65634 0.4211 0.83517 0.0
H2633 H 0.64228 0.38285 0.85589 0.0
H2634 H 0.61716 0.40527 0.86508 0.0
H2635 H 0.64312 0.3897 0.87796 0.0
H2636 H 0.70124 0.46753 0.90491 0.0
H2637 H 0.66058 0.49262 0.91437 0.0
H2638 H 0.61309 0.45671 0.87411 0.0
C2639 C 0.70254 0.39583 0.85547 0.0
C2640 C 0.73045 0.39171 0.85931 0.0
C2641 C 0.74294 0.4075 0.87201 0.0
C2642 C 0.72772 0.42691 0.881 0.0
C2643 C 0.70016 0.43044 0.87697 0.0
C2644 C 0.68778 0.41567 0.86433 0.0
C2645 C 0.65792 0.4236 0.86241 0.0
C2646 C 0.65264 0.43639 0.84519 0.0
C2647 C 0.63901 0.39888 0.86552 0.0
C2648 C 0.65534 0.44474 0.87615 0.0
C2649 C 0.67986 0.44825 0.88446 0.0
C2650 C 0.68212 0.4656 0.89817 0.0
C2651 C 0.65882 0.48017 0.90333 0.0
C2652 C 0.63367 0.47783 0.89458 0.0
C2653 C 0.63204 0.45947 0.88094 0.0
H2654 H 0.86201 0.48208 0.10041 0.0
H2655 H 0.87813 0.51554 0.14948 0.0
H2656 H 0.84388 0.48379 0.16161 0.0
H2657 H 0.78916 0.47141 0.10536 0.0
H2658 H 0.78909 0.43955 0.09397 0.0
H2659 H 0.81412 0.46555 0.08918 0.0
H2660 H 0.85324 0.43052 0.09412 0.0
H2661 H 0.82835 0.40442 0.09889 0.0
H2662 H 0.855 0.41242 0.11368 0.0
H2663 H 0.80734 0.44879 0.16821 0.0
H2664 H 0.77413 0.4105 0.16916 0.0
H2665 H 0.78321 0.39895 0.11588 0.0
C2666 C 0.85797 0.483 0.11366 0.0
C2667 C 0.87219 0.50155 0.12401 0.0
C2668 C 0.86722 0.5015 0.14138 0.0
C2669 C 0.84778 0.48367 0.14834 0.0
C2670 C 0.83384 0.46578 0.13776 0.0
C2671 C 0.83894 0.46509 0.12082 0.0
C2672 C 0.82215 0.44306 0.1123 0.0
C2673 C 0.80246 0.45565 0.09944 0.0
C2674 C 0.8408 0.42132 0.10428 0.0
C2675 C 0.80673 0.43151 0.12708 0.0
C2676 C 0.81352 0.44508 0.14163 0.0
C2677 C 0.80178 0.43809 0.15689 0.0
C2678 C 0.78274 0.41652 0.15729 0.0
C2679 C 0.77585 0.40215 0.14255 0.0
C2680 C 0.78809 0.40973 0.12731 0.0
H2681 H 0.76187 0.60896 0.37897 0.0
H2682 H 0.76076 0.59235 0.32591 0.0
H2683 H 0.79455 0.55521 0.32993 0.0
H2684 H 0.83228 0.5998 0.38505 0.0
H2685 H 0.82929 0.58346 0.40511 0.0
H2686 H 0.80328 0.60706 0.39826 0.0
H2687 H 0.76607 0.56978 0.40257 0.0
H2688 H 0.79199 0.54605 0.4095 0.0
H2689 H 0.76973 0.53699 0.39244 0.0
H2690 H 0.83204 0.52362 0.33932 0.0
H2691 H 0.86868 0.49767 0.35374 0.0
H2692 H 0.84398 0.53318 0.40087 0.0
C2693 C 0.76847 0.59717 0.36826 0.0
C2694 C 0.75843 0.60313 0.35217 0.0
C2695 C 0.76763 0.58757 0.33839 0.0
C2696 C 0.78696 0.56659 0.34055 0.0
C2697 C 0.79659 0.56131 0.35659 0.0
C2698 C 0.78743 0.57594 0.37024 0.0
C2699 C 0.80169 0.56684 0.38606 0.0
C2700 C 0.81758 0.59071 0.39408 0.0
C2701 C 0.78114 0.55416 0.39837 0.0
C2702 C 0.82092 0.54535 0.37911 0.0
C2703 C 0.81764 0.54247 0.36208 0.0
C2704 C 0.83443 0.5253 0.35268 0.0
C2705 C 0.85516 0.51075 0.36092 0.0
C2706 C 0.85862 0.51328 0.37834 0.0
C2707 C 0.84119 0.53056 0.38757 0.0
H2708 H 0.27742 0.37103 0.38603 0.0
H2709 H 0.25247 0.41052 0.33992 0.0
H2710 H 0.27971 0.45086 0.34727 0.0
H2711 H 0.28083 0.43126 0.41207 0.0
H2712 H 0.31144 0.42016 0.42268 0.0
H2713 H 0.28769 0.39518 0.4146 0.0
H2714 H 0.32679 0.37261 0.39757 0.0
H2715 H 0.35067 0.39743 0.40564 0.0
H2716 H 0.34674 0.39331 0.38345 0.0
H2717 H 0.3104 0.48735 0.3596 0.0
H2718 H 0.34562 0.5145 0.37451 0.0
H2719 H 0.35387 0.44958 0.41103 0.0
C2720 C 0.27737 0.38817 0.37746 0.0
C2721 C 0.26151 0.38764 0.36267 0.0
C2722 C 0.26285 0.41048 0.35174 0.0
C2723 C 0.27872 0.4336 0.35572 0.0
C2724 C 0.29366 0.43346 0.3705 0.0
C2725 C 0.29347 0.41114 0.38107 0.0
C2726 C 0.31291 0.41523 0.39557 0.0
C2727 C 0.29728 0.41548 0.41221 0.0
C2728 C 0.33562 0.39335 0.39554 0.0
C2729 C 0.3242 0.44333 0.39147 0.0
C2730 C 0.31252 0.45371 0.3771 0.0
C2731 C 0.31965 0.47944 0.37088 0.0
C2732 C 0.33948 0.49478 0.37947 0.0
C2733 C 0.35212 0.48416 0.39396 0.0
C2734 C 0.34436 0.45814 0.4 0.0
H2735 H 0.34335 0.49961 0.13547 0.0
H2736 H 0.34585 0.50782 0.0817 0.0
H2737 H 0.31278 0.54598 0.08325 0.0
H2738 H 0.26957 0.51694 0.14031 0.0
H2739 H 0.27543 0.53542 0.15944 0.0
H2740 H 0.29715 0.50691 0.15397 0.0
H2741 H 0.33993 0.53811 0.15668 0.0
H2742 H 0.31839 0.5667 0.16208 0.0
H2743 H 0.34171 0.56937 0.14473 0.0
H2744 H 0.28447 0.58672 0.09085 0.0
H2745 H 0.25996 0.62556 0.10397 0.0
H2746 H 0.27375 0.58996 0.1527 0.0
C2747 C 0.33644 0.50913 0.12403 0.0
C2748 C 0.34664 0.50043 0.10844 0.0
C2749 C 0.3376 0.51357 0.09371 0.0
C2750 C 0.31899 0.53542 0.09449 0.0
C2751 C 0.30945 0.54366 0.11006 0.0
C2752 C 0.31757 0.53072 0.12457 0.0
C2753 C 0.30518 0.54439 0.13976 0.0
C2754 C 0.28567 0.52474 0.14891 0.0
C2755 C 0.32765 0.55529 0.1515 0.0
C2756 C 0.28958 0.56759 0.13157 0.0
C2757 C 0.29231 0.56676 0.11442 0.0
C2758 C 0.28166 0.58727 0.10422 0.0
C2759 C 0.26791 0.60923 0.11175 0.0
C2760 C 0.26467 0.61026 0.12923 0.0
C2761 C 0.27539 0.5891 0.13925 0.0
H2762 H 0.19007 0.61667 0.84352 0.0
H2763 H 0.26403 0.59713 0.87105 0.0
H2764 H 0.23851 0.56291 0.88754 0.0
H2765 H 0.14373 0.61149 0.87766 0.0
H2766 H 0.1165 0.59599 0.86575 0.0
H2767 H 0.14076 0.61833 0.85566 0.0
H2768 H 0.15254 0.57999 0.83447 0.0
H2769 H 0.12819 0.55758 0.84444 0.0
H2770 H 0.16332 0.54687 0.84199 0.0
H2771 H 0.20434 0.53318 0.9023 0.0
H2772 H 0.16441 0.50743 0.91297 0.0
H2773 H 0.11308 0.54441 0.87501 0.0
C2774 C 0.20086 0.60494 0.85292 0.0
C2775 C 0.2291 0.60905 0.85579 0.0
C2776 C 0.24259 0.59365 0.8683 0.0
C2777 C 0.2282 0.57438 0.87784 0.0
C2778 C 0.20037 0.57073 0.87468 0.0
C2779 C 0.18686 0.58538 0.86243 0.0
C2780 C 0.15685 0.57753 0.8616 0.0
C2781 C 0.13838 0.60231 0.8654 0.0
C2782 C 0.14982 0.56473 0.84462 0.0
C2783 C 0.15557 0.55643 0.87542 0.0
C2784 C 0.18086 0.5529 0.88285 0.0
C2785 C 0.18456 0.53526 0.89633 0.0
C2786 C 0.16186 0.52049 0.90218 0.0
C2787 C 0.13598 0.52307 0.89436 0.0
C2788 C 0.13278 0.54164 0.881 0.0
H2789 H 0.19626 0.37822 0.64997 0.0
H2790 H 0.26752 0.38902 0.61838 0.0
H2791 H 0.24247 0.42367 0.60181 0.0
H2792 H 0.14527 0.38509 0.61815 0.0
H2793 H 0.12164 0.40397 0.63106 0.0
H2794 H 0.14517 0.38003 0.6404 0.0
H2795 H 0.16383 0.41838 0.65968 0.0
H2796 H 0.14025 0.4424 0.65046 0.0
H2797 H 0.17646 0.44976 0.65062 0.0
H2798 H 0.2087 0.45522 0.58787 0.0
H2799 H 0.1703 0.48438 0.57897 0.0
H2800 H 0.12209 0.45548 0.62091 0.0
C2801 C 0.20654 0.38801 0.63959 0.0
C2802 C 0.23385 0.38131 0.63552 0.0
C2803 C 0.24677 0.39438 0.62187 0.0
C2804 C 0.23264 0.41387 0.61233 0.0
C2805 C 0.20571 0.42011 0.61669 0.0
C2806 C 0.19288 0.4078 0.6301 0.0
C2807 C 0.16404 0.41862 0.63238 0.0
C2808 C 0.14278 0.39555 0.63037 0.0
C2809 C 0.16098 0.43316 0.64929 0.0
C2810 C 0.16258 0.43879 0.61808 0.0
C2811 C 0.18672 0.43918 0.6091 0.0
C2812 C 0.18991 0.45558 0.59503 0.0
C2813 C 0.16802 0.47244 0.5902 0.0
C2814 C 0.14345 0.47321 0.59961 0.0
C2815 C 0.1407 0.45572 0.61356 0.0
H2816 H 0.26586 0.19609 0.22207 0.0
H2817 H 0.34738 0.21049 0.242 0.0
H2818 H 0.3283 0.24441 0.26153 0.0
H2819 H 0.23602 0.25847 0.22594 0.0
H2820 H 0.20374 0.24746 0.23458 0.0
H2821 H 0.22322 0.22452 0.2216 0.0
H2822 H 0.22415 0.18768 0.24487 0.0
H2823 H 0.20347 0.20995 0.25763 0.0
H2824 H 0.2356 0.19703 0.26546 0.0
H2825 H 0.30086 0.28476 0.27326 0.0
H2826 H 0.26579 0.31332 0.28702 0.0
H2827 H 0.2025 0.25943 0.26744 0.0
C2828 C 0.2798 0.20534 0.23085 0.0
C2829 C 0.3085 0.20184 0.22966 0.0
C2830 C 0.32555 0.21432 0.24182 0.0
C2831 C 0.31493 0.2335 0.25305 0.0
C2832 C 0.28685 0.2382 0.2529 0.0
C2833 C 0.26934 0.22295 0.24305 0.0
C2834 C 0.2397 0.22969 0.24683 0.0
C2835 C 0.22481 0.24068 0.23131 0.0
C2836 C 0.22486 0.2046 0.25414 0.0
C2837 C 0.24351 0.25199 0.25975 0.0
C2838 C 0.27086 0.25738 0.26252 0.0
C2839 C 0.27936 0.27968 0.27203 0.0
C2840 C 0.25926 0.29571 0.27983 0.0
C2841 C 0.2312 0.2882 0.27909 0.0
C2842 C 0.22339 0.26631 0.2685 0.0
H2843 H 0.95588 0.94833 0.5061 0.0
H2844 H 0.97039 0.98961 0.55313 0.0
H2845 H -0.0003 0.02356 0.53891 0.0
H2846 H 0.02384 0.95565 0.49059 0.0
H2847 H 0.01356 0.96117 0.46928 0.0
H2848 H 0.9923 0.94103 0.48295 0.0
H2849 H 0.95092 0.97289 0.47689 0.0
H2850 H 0.97197 0.99291 0.46304 0.0
H2851 H 0.95439 0.00932 0.48009 0.0
H2852 H 0.02853 0.05227 0.51963 0.0
H2853 H 0.05388 0.07416 0.49636 0.0
H2854 H 0.02099 0.01358 0.46225 0.0
C2855 C 0.965 0.96475 0.51331 0.0
C2856 C 0.96043 0.96683 0.53058 0.0
C2857 C 0.97295 0.98824 0.53976 0.0
C2858 C 0.98987 0.00742 0.53183 0.0
C2859 C 0.99415 0.00473 0.51477 0.0
C2860 C 0.98201 0.98399 0.5056 0.0
C2861 C 0.99042 0.98532 0.48749 0.0
C2862 C 0.00595 0.95924 0.48228 0.0
C2863 C 0.96544 0.99042 0.47621 0.0
C2864 C 0.00923 0.00994 0.48793 0.0
C2865 C 0.01116 0.02088 0.50377 0.0
C2866 C 0.02723 0.04387 0.50717 0.0
C2867 C 0.04154 0.05611 0.49396 0.0
C2868 C 0.03968 0.04519 0.47769 0.0
C2869 C 0.02333 0.02187 0.47468 0.0
H2870 H 0.28081 0.73031 0.78255 0.0
H2871 H 0.31564 0.67344 0.74691 0.0
H2872 H 0.29584 0.70072 0.72372 0.0
H2873 H 0.21767 0.74277 0.761 0.0
H2874 H 0.21645 0.77855 0.76657 0.0
H2875 H 0.23348 0.75443 0.78003 0.0
H2876 H 0.27779 0.78373 0.77851 0.0
H2877 H 0.26098 0.80774 0.76485 0.0
H2878 H 0.29253 0.7916 0.75848 0.0
H2879 H 0.27069 0.73304 0.70483 0.0
H2880 H 0.24112 0.76749 0.69132 0.0
H2881 H 0.22482 0.80496 0.73929 0.0
C2882 C 0.28396 0.72354 0.76984 0.0
C2883 C 0.29928 0.69974 0.76633 0.0
C2884 C 0.30363 0.69156 0.74966 0.0
C2885 C 0.29263 0.70697 0.7365 0.0
C2886 C 0.27772 0.73055 0.74036 0.0
C2887 C 0.27337 0.73879 0.75661 0.0
C2888 C 0.25646 0.76478 0.75742 0.0
C2889 C 0.22941 0.75982 0.76681 0.0
C2890 C 0.27293 0.78836 0.76528 0.0
C2891 C 0.25156 0.7697 0.73906 0.0
C2892 C 0.26409 0.74976 0.72944 0.0
C2893 C 0.2612 0.74902 0.7122 0.0
C2894 C 0.24459 0.76881 0.70463 0.0
C2895 C 0.23132 0.7892 0.71427 0.0
C2896 C 0.23524 0.78989 0.73166 0.0
H2897 H 0.45694 0.95905 0.98792 0.0
H2898 H 0.48804 0.98537 0.93995 0.0
H2899 H 0.52372 0.01301 0.95399 0.0
H2900 H 0.46824 0.02297 0.00985 0.0
H2901 H 0.47834 0.0063 0.02893 0.0
H2902 H 0.45491 0.98951 0.01491 0.0
H2903 H 0.48731 0.94738 0.01389 0.0
H2904 H 0.51115 0.96434 0.02761 0.0
H2905 H 0.5225 0.95194 0.00761 0.0
H2906 H 0.55583 0.03775 0.97324 0.0
H2907 H 0.58023 0.06035 0.99663 0.0
H2908 H 0.52948 0.01634 0.0319 0.0
C2909 C 0.47106 0.97102 0.98047 0.0
C2910 C 0.46959 0.97065 0.96294 0.0
C2911 C 0.48858 0.98602 0.95344 0.0
C2912 C 0.50905 0.00148 0.96128 0.0
C2913 C 0.51034 0.00105 0.97861 0.0
C2914 C 0.49175 0.98639 0.9881 0.0
C2915 C 0.49766 0.98939 0.00651 0.0
C2916 C 0.47335 0.00285 0.01558 0.0
C2917 C 0.5051 0.96161 0.01436 0.0
C2918 C 0.52226 0.00826 0.00589 0.0
C2919 C 0.52937 0.01463 0.98968 0.0
C2920 C 0.55066 0.03272 0.98599 0.0
C2921 C 0.5645 0.04528 -0.00073 0.0
C2922 C 0.55696 0.03951 0.01589 0.0
C2923 C 0.53602 0.0204 0.01924 0.0
H2924 H 0.28418 0.78972 0.25483 0.0
H2925 H 0.2593 0.75269 0.30151 0.0
H2926 H 0.23613 0.71533 0.28612 0.0
H2927 H 0.22215 0.77376 0.23189 0.0
H2928 H 0.2403 0.7672 0.21274 0.0
H2929 H 0.25411 0.791 0.22769 0.0
H2930 H 0.29941 0.76313 0.22814 0.0
H2931 H 0.28538 0.73879 0.21355 0.0
H2932 H 0.29849 0.72717 0.23333 0.0
H2933 H 0.2163 0.68178 0.2656 0.0
H2934 H 0.19653 0.65752 0.24121 0.0
H2935 H 0.2351 0.71621 0.2082 0.0
C2936 C 0.27341 0.77394 0.26172 0.0
C2937 C 0.27302 0.77409 0.27924 0.0
C2938 C 0.2592 0.75306 0.28801 0.0
C2939 C 0.24636 0.73163 0.2794 0.0
C2940 C 0.24768 0.73161 0.26208 0.0
C2941 C 0.26052 0.75241 0.25332 0.0
C2942 C 0.25859 0.74781 0.23474 0.0
C2943 C 0.24284 0.77133 0.22627 0.0
C2944 C 0.28717 0.744 0.22699 0.0
C2945 C 0.24244 0.72135 0.23441 0.0
C2946 C 0.23661 0.71212 0.2503 0.0
C2947 C 0.22091 0.68866 0.25309 0.0
C2948 C 0.20998 0.6749 0.23925 0.0
C2949 C 0.21484 0.68483 0.22299 0.0
C2950 C 0.2318 0.70786 0.22054 0.0
H2951 H 0.4705 0.01994 0.5308 0.0
H2952 H 0.42468 0.07409 0.4983 0.0
H2953 H 0.4478 0.05369 0.47373 0.0
H2954 H 0.533 0.02316 0.50904 0.0
H2955 H 0.54202 0.98772 0.51227 0.0
H2956 H 0.5206 0.00516 0.52715 0.0
H2957 H 0.48296 0.96804 0.52369 0.0
H2958 H 0.50448 0.95019 0.50902 0.0
H2959 H 0.47023 0.96012 0.50315 0.0
H2960 H 0.47704 0.02846 0.45304 0.0
H2961 H 0.50875 0.99857 0.43734 0.0
H2962 H 0.53607 0.96148 0.48352 0.0
C2963 C 0.46486 0.02696 0.51846 0.0
C2964 C 0.44561 0.04822 0.51628 0.0
C2965 C 0.43925 0.05758 0.50007 0.0
C2966 C 0.45231 0.04621 0.48612 0.0
C2967 C 0.47163 0.02557 0.48871 0.0
C2968 C 0.47771 0.01587 0.50446 0.0
C2969 C 0.49975 0.99405 0.50391 0.0
C2970 C 0.52535 0.00308 0.51367 0.0
C2971 C 0.48869 0.96647 0.51032 0.0
C2972 C 0.50529 0.99311 0.48538 0.0
C2973 C 0.48886 0.01145 0.47684 0.0
C2974 C 0.49012 0.01415 0.45959 0.0
C2975 C 0.50837 0.99734 0.45081 0.0
C2976 C 0.52522 0.97832 0.45933 0.0
C2977 C 0.52369 0.97625 0.47681 0.0
H2978 H 0.26362 0.27702 0.71548 0.0
H2979 H 0.30819 0.33056 0.74894 0.0
H2980 H 0.28683 0.30731 0.77318 0.0
H2981 H 0.20023 0.2709 0.74092 0.0
H2982 H 0.19589 0.23539 0.73527 0.0
H2983 H 0.21199 0.25881 0.72093 0.0
H2984 H 0.25417 0.22658 0.71944 0.0
H2985 H 0.23861 0.20347 0.73414 0.0
H2986 H 0.27202 0.21767 0.73835 0.0
H2987 H 0.26356 0.27564 0.79349 0.0
H2988 H 0.23709 0.24031 0.8086 0.0
H2989 H 0.2092 0.20646 0.76162 0.0
C2990 C 0.26799 0.28448 0.72792 0.0
C2991 C 0.28698 0.30582 0.73051 0.0
C2992 C 0.29321 0.31452 0.74687 0.0
C2993 C 0.28135 0.30133 0.76063 0.0
C2994 C 0.26343 0.27958 0.75768 0.0
C2995 C 0.25647 0.27147 0.74172 0.0
C2996 C 0.23801 0.24654 0.74188 0.0
C2997 C 0.20986 0.25332 0.7343 0.0
C2998 C 0.25152 0.22213 0.73292 0.0
C2999 C 0.23599 0.24157 0.76042 0.0
C3000 C 0.25072 0.26088 0.76932 0.0
C3001 C 0.25198 0.26041 0.78666 0.0
C3002 C 0.23724 0.24005 0.79511 0.0
C3003 C 0.22174 0.22038 0.78619 0.0
C3004 C 0.2213 0.22106 0.76865 0.0
H3005 H 0.05478 0.96676 0.00983 0.0
H3006 H 0.99185 0.92931 0.04038 0.0
H3007 H 0.95606 0.95421 0.02464 0.0
H3008 H 0.0237 0.0326 0.00748 0.0
H3009 H 0.03378 0.03894 0.98622 0.0
H3010 H 0.0543 0.01695 -0.00077 0.0
H3011 H 0.04993 0.97774 0.97755 0.0
H3012 H 0.02954 -0.00032 0.96443 0.0
H3013 H 0.01637 0.96682 0.97087 0.0
H3014 H 0.92731 0.98437 0.0061 0.0
H3015 H 0.90793 0.01792 0.98599 0.0
H3016 H 0.98972 0.03565 0.96793 0.0
C3017 C 0.03341 0.96366 0.013 0.0
C3018 C 0.02583 0.94593 0.02603 0.0
C3019 C 0.99782 0.94253 0.03016 0.0
C3020 C 0.97744 0.95662 0.02136 0.0
C3021 C 0.98552 0.97408 0.00855 0.0
C3022 C 0.01282 0.97763 0.00436 0.0
C3023 C 0.01607 0.99824 0.99044 0.0
C3024 C 0.03296 0.02316 0.9962 0.0
C3025 C 0.02872 0.98481 0.9749 0.0
C3026 C 0.9864 0.00584 0.98756 0.0
C3027 C 0.96904 0.99166 0.99807 0.0
C3028 C 0.94069 0.99557 0.99777 0.0
C3029 C 0.92987 0.01457 0.9864 0.0
C3030 C 0.94746 0.02929 0.97568 0.0
C3031 C 0.97596 0.02473 0.9762 0.0
H3032 H 0.76815 0.69519 0.72463 0.0
H3033 H 0.85033 0.71248 0.74252 0.0
H3034 H 0.83092 0.73967 0.76553 0.0
H3035 H 0.73579 0.75291 0.73297 0.0
H3036 H 0.70459 0.73939 0.74176 0.0
H3037 H 0.72416 0.71903 0.72736 0.0
H3038 H 0.72824 0.67958 0.7488 0.0
H3039 H 0.70752 0.69922 0.76306 0.0
H3040 H 0.74067 0.68681 0.76949 0.0
H3041 H 0.80239 0.77602 0.78006 0.0
H3042 H 0.76694 0.8039 0.7938 0.0
H3043 H 0.70434 0.74981 0.77363 0.0
C3044 C 0.7822 0.70334 0.73377 0.0
C3045 C 0.81086 0.70288 0.73122 0.0
C3046 C 0.82828 0.71393 0.74367 0.0
C3047 C 0.81749 0.72923 0.75687 0.0
C3048 C 0.78916 0.73132 0.75818 0.0
C3049 C 0.77176 0.71705 0.74772 0.0
C3050 C 0.74208 0.72187 0.7524 0.0
C3051 C 0.72572 0.73402 0.73775 0.0
C3052 C 0.72885 0.69529 0.75883 0.0
C3053 C 0.74563 0.74261 0.76627 0.0
C3054 C 0.77291 0.74837 0.76906 0.0
C3055 C 0.78101 0.77042 0.77891 0.0
C3056 C 0.76065 0.78609 0.78674 0.0
C3057 C 0.73259 0.77871 0.78552 0.0
C3058 C 0.72523 0.75658 0.77501 0.0
H3059 H 0.74218 0.27809 0.205 0.0
H3060 H 0.69722 0.33087 0.23871 0.0
H3061 H 0.7178 0.30678 0.26284 0.0
H3062 H 0.73386 0.21772 0.22763 0.0
H3063 H 0.76748 0.204 0.22348 0.0
H3064 H 0.75178 0.22713 0.20883 0.0
H3065 H 0.79362 0.25979 0.21065 0.0
H3066 H 0.8098 0.23639 0.22497 0.0
H3067 H 0.80498 0.27178 0.23075 0.0
H3068 H 0.74041 0.27495 0.28296 0.0
H3069 H 0.76712 0.23993 0.29815 0.0
H3070 H 0.79697 0.20726 0.25132 0.0
C3071 C 0.73753 0.28514 0.21748 0.0
C3072 C 0.71874 0.30664 0.22017 0.0
C3073 C 0.71209 0.31476 0.23658 0.0
C3074 C 0.7235 0.3011 0.25027 0.0
C3075 C 0.7414 0.2794 0.24724 0.0
C3076 C 0.74871 0.27169 0.23127 0.0
C3077 C 0.76748 0.24697 0.23143 0.0
C3078 C 0.75435 0.22252 0.2223 0.0
C3079 C 0.79564 0.25417 0.22401 0.0
C3080 C 0.76934 0.24177 0.24997 0.0
C3081 C 0.75409 0.26069 0.25885 0.0
C3082 C 0.75245 0.26004 0.27616 0.0
C3083 C 0.76739 0.23993 0.28465 0.0
C3084 C 0.78359 0.22078 0.27581 0.0
C3085 C 0.78437 0.22152 0.25827 0.0
H3086 H 0.71027 0.23931 0.71758 0.0
H3087 H 0.72325 0.15896 0.73918 0.0
H3088 H 0.75473 0.17946 0.76014 0.0
H3089 H 0.77895 0.26468 0.72286 0.0
H3090 H 0.76803 0.29904 0.72778 0.0
H3091 H 0.74726 0.27776 0.71446 0.0
H3092 H 0.70564 0.28484 0.73409 0.0
H3093 H 0.72625 0.30617 0.74746 0.0
H3094 H 0.70892 0.27663 0.7559 0.0
H3095 H 0.78374 0.20919 0.77885 0.0
H3096 H 0.80854 0.24575 0.79405 0.0
H3097 H 0.77585 0.30665 0.76016 0.0
C3098 C 0.71973 0.2261 0.72678 0.0
C3099 C 0.71443 0.19769 0.727 0.0
C3100 C 0.72723 0.18081 0.73897 0.0
C3101 C 0.74501 0.19227 0.75085 0.0
C3102 C 0.74961 0.22053 0.75041 0.0
C3103 C 0.73733 0.23719 0.73867 0.0
C3104 C 0.74529 0.26694 0.74094 0.0
C3105 C 0.76081 0.27773 0.7256 0.0
C3106 C 0.72002 0.28468 0.74483 0.0
C3107 C 0.76397 0.26455 0.75588 0.0
C3108 C 0.76625 0.2376 0.76113 0.0
C3109 C 0.78221 0.2303 0.7748 0.0
C3110 C 0.7962 0.2511 0.78331 0.0
C3111 C 0.79414 0.27872 0.77806 0.0
C3112 C 0.77778 0.28557 0.76425 0.0
H3113 H 0.78599 0.80183 0.24624 0.0
H3114 H 0.77005 0.76739 0.19741 0.0
H3115 H 0.74133 0.73129 0.21012 0.0
H3116 H 0.79166 0.73835 0.26773 0.0
H3117 H 0.77477 0.74991 0.28643 0.0
H3118 H 0.79304 0.77403 0.27356 0.0
H3119 H 0.74936 0.80398 0.27081 0.0
H3120 H 0.73112 0.78026 0.28395 0.0
H3121 H 0.71794 0.78855 0.26358 0.0
H3122 H 0.71583 0.69812 0.2281 0.0
H3123 H 0.69199 0.67205 0.25034 0.0
H3124 H 0.7245 0.72792 0.28738 0.0
C3125 C 0.77597 0.78693 0.2383 0.0
C3126 C 0.77965 0.78748 0.22091 0.0
C3127 C 0.76683 0.76749 0.21077 0.0
C3128 C 0.75075 0.74682 0.21787 0.0
C3129 C 0.74782 0.74648 0.23511 0.0
C3130 C 0.75979 0.76614 0.2452 0.0
C3131 C 0.75345 0.76094 0.26338 0.0
C3132 C 0.7798 0.75548 0.27336 0.0
C3133 C 0.73698 0.78485 0.27086 0.0
C3134 C 0.73615 0.73529 0.2619 0.0
C3135 C 0.73328 0.72719 0.2455 0.0
C3136 C 0.71794 0.70421 0.24101 0.0
C3137 C 0.70464 0.68948 0.25364 0.0
C3138 C 0.70688 0.6979 0.27042 0.0
C3139 C 0.72303 0.72085 0.27461 0.0
H3140 H 0.43426 0.46586 0.00983 0.0
H3141 H 0.48078 0.46815 0.0558 0.0
H3142 H 0.51808 0.49319 0.04153 0.0
H3143 H 0.49096 0.4526 0.98354 0.0
H3144 H 0.47888 0.47335 0.96646 0.0
H3145 H 0.4547 0.45778 0.98054 0.0
H3146 H 0.43343 0.50534 0.98701 0.0
H3147 H 0.45716 0.52097 0.97269 0.0
H3148 H 0.45533 0.53288 0.99392 0.0
H3149 H 0.55068 0.51709 0.02203 0.0
H3150 H 0.57539 0.53963 -0.00133 0.0
H3151 H 0.50871 0.51903 0.96532 0.0
C3152 C 0.45208 0.47222 0.01689 0.0
C3153 C 0.45454 0.4658 0.03392 0.0
C3154 C 0.47834 0.47367 0.04281 0.0
C3155 C 0.49969 0.48761 0.03479 0.0
C3156 C 0.49695 0.49318 0.01787 0.0
C3157 C 0.4737 0.48586 0.00903 0.0
C3158 C 0.47627 0.49339 0.99083 0.0
C3159 C 0.47514 0.46775 0.97969 0.0
C3160 C 0.45424 0.5144 0.98582 0.0
C3161 C 0.50457 0.50604 0.99082 0.0
C3162 C 0.51618 0.5058 0.00652 0.0
C3163 C 0.54192 0.51721 0.00964 0.0
C3164 C 0.55587 0.52973 0.99637 0.0
C3165 C 0.54405 0.53031 0.98033 0.0
C3166 C 0.51832 0.51809 0.97748 0.0
H3167 H 0.02963 0.51679 0.53181 0.0
H3168 H 0.08184 0.55995 0.49689 0.0
H3169 H 0.05678 0.53853 0.47333 0.0
H3170 H 0.02327 0.45315 0.50768 0.0
H3171 H 0.98804 0.44822 0.51375 0.0
H3172 H 0.01141 0.46563 0.52756 0.0
H3173 H 0.9784 0.50725 0.52857 0.0
H3174 H 0.95517 0.4902 0.51454 0.0
H3175 H 0.96833 0.52369 0.5094 0.0
H3176 H 0.02454 0.5143 0.4539 0.0
H3177 H 0.98902 0.48676 0.43966 0.0
H3178 H 0.95787 0.4595 0.48743 0.0
C3179 C 0.03622 0.5211 0.51919 0.0
C3180 C 0.05783 0.53955 0.516 0.0
C3181 C 0.06547 0.54553 0.49942 0.0
C3182 C 0.05133 0.53357 0.48605 0.0
C3183 C 0.02973 0.51576 0.4896 0.0
C3184 C 0.02239 0.50933 0.50576 0.0
C3185 C 0.99795 0.49024 0.50624 0.0
C3186 C 0.00564 0.46267 0.51428 0.0
C3187 C 0.97352 0.50366 0.51522 0.0
C3188 C 0.99246 0.4871 0.48781 0.0
C3189 C 0.011 0.50203 0.47843 0.0
C3190 C 0.00992 0.50256 0.4611 0.0
C3191 C 0.98955 0.48713 0.45314 0.0
C3192 C 0.97058 0.47155 0.46254 0.0
C3193 C 0.97204 0.47155 0.48006 0.0
H3194 H 0.01163 0.47766 0.96573 0.0
H3195 H 0.07769 0.45501 -0.00099 0.0
H3196 H 0.05418 0.47909 0.02229 0.0
H3197 H 0.99728 0.54504 0.98348 0.0
H3198 H 0.9608 0.5416 0.98055 0.0
H3199 H 0.98413 0.52453 0.96658 0.0
H3200 H 0.96043 0.47814 0.97306 0.0
H3201 H 0.93729 0.49497 0.98723 0.0
H3202 H 0.95795 0.46666 0.99436 0.0
H3203 H 0.02292 0.50521 0.04164 0.0
H3204 H 0.98639 0.53127 0.05592 0.0
H3205 H 0.93927 0.53365 0.01015 0.0
C3206 C 0.02129 0.47834 0.97788 0.0
C3207 C 0.04651 0.46516 0.98075 0.0
C3208 C 0.05851 0.46555 0.99674 0.0
C3209 C 0.04528 0.47901 0.00994 0.0
C3210 C 0.02008 0.49156 0.00679 0.0
C3211 C 0.00825 0.49134 0.99114 0.0
C3212 C 0.98054 0.50521 0.99113 0.0
C3213 C 0.98071 0.5306 0.97976 0.0
C3214 C 0.95771 0.48504 0.98616 0.0
C3215 C 0.97844 0.51318 0.00926 0.0
C3216 C 0.00154 0.50533 0.01806 0.0
C3217 C 0.00464 0.51119 0.03493 0.0
C3218 C 0.98369 0.52572 0.04295 0.0
C3219 C 0.95985 0.53378 0.03415 0.0
C3220 C 0.95715 0.52727 0.01715 0.0
H3221 H 0.47052 0.51407 0.46586 0.0
H3222 H 0.43036 0.56866 0.50072 0.0
H3223 H 0.45505 0.54641 0.52411 0.0
H3224 H 0.47324 0.45287 0.49312 0.0
H3225 H 0.50663 0.44322 0.48551 0.0
H3226 H 0.48313 0.4612 0.47207 0.0
H3227 H 0.52009 0.49848 0.467 0.0
H3228 H 0.54348 0.481 0.48071 0.0
H3229 H 0.53471 0.51635 0.48455 0.0
H3230 H 0.48605 0.52004 0.54321 0.0
H3231 H 0.52 0.49025 0.55706 0.0
H3232 H 0.54197 0.45483 0.50934 0.0
C3233 C 0.46627 0.5206 0.4785 0.0
C3234 C 0.44821 0.54251 0.48171 0.0
C3235 C 0.44382 0.55147 0.49823 0.0
C3236 C 0.45781 0.53908 0.51149 0.0
C3237 C 0.47616 0.51797 0.50788 0.0
C3238 C 0.48026 0.50866 0.49181 0.0
C3239 C 0.5024 0.48697 0.49113 0.0
C3240 C 0.49064 0.45943 0.4851 0.0
C3241 C 0.5266 0.49627 0.4802 0.0
C3242 C 0.51039 0.48576 0.50931 0.0
C3243 C 0.4949 0.50367 0.51877 0.0
C3244 C 0.49843 0.50606 0.53592 0.0
C3245 C 0.51803 0.48938 0.54363 0.0
C3246 C 0.53408 0.4709 0.53414 0.0
C3247 C 0.53024 0.46917 0.51678 0.0
loop_
_geom_bond_atom_site_label_1
_geom_bond_atom_site_label_2
_geom_bond_distance
_geom_bond_site_symmetry_2
_ccdc_geom_bond_type
Co0 O3 1.970 . S
Co0 N17 1.989 . S
Co0 O25 1.967 . S
Co0 O32 1.920 . S
Co1 O4 1.966 . S
Co1 N10 2.022 . S
Co1 N18 1.993 . S
Co1 O26 1.941 . S
C2 O3 1.258 . S
C2 O4 1.263 . S
O3 Co0 1.970 . S
O3 C2 1.258 . S
O4 Co1 1.966 . S
O4 C2 1.263 . S
C5 O6 1.235 . S
C5 O32 1.289 . S
O6 C5 1.235 . S
C7 C9 1.400 . S
C7 N10 1.351 . S
C7 C12 1.501 . S
C8 C9 1.387 . S
C8 N11 1.341 . S
C9 C7 1.400 . S
C9 C8 1.387 . S
N10 Co1 2.022 . S
N10 C7 1.351 . S
N10 N11 1.365 . S
N11 C8 1.341 . S
N11 N10 1.365 . S
N11 H31 0.862 . S
C12 C7 1.501 . S
C12 H13 0.961 . S
C12 H14 0.961 . S
C12 H15 0.960 . S
H13 C12 0.961 . S
H14 C12 0.961 . S
H15 C12 0.960 . S
C16 N17 1.342 . S
C16 C20 1.401 . S
C16 C21 1.499 . S
N17 Co0 1.989 . S
N17 C16 1.342 . S
N17 N18 1.388 . S
N18 Co1 1.993 . S
N18 N17 1.388 . S
N18 C19 1.346 . S
C19 N18 1.346 . S
C19 C20 1.396 . S
C19 C29 1.510 . S
C20 C16 1.401 . S
C20 C19 1.396 . S
C21 C16 1.499 . S
C21 H22 0.959 . S
C21 H23 0.960 . S
C21 H24 0.961 . S
H22 C21 0.959 . S
H23 C21 0.960 . S
H24 C21 0.961 . S
O25 Co0 1.967 . S
O25 C33 1.258 . S
O26 Co1 1.941 . S
O26 C33 1.266 . S
H27 C29 0.959 . S
H28 C29 0.961 . S
C29 C19 1.510 . S
C29 H27 0.959 . S
C29 H28 0.961 . S
C29 H30 0.960 . S
H30 C29 0.960 . S
H31 N11 0.862 . S
O32 Co0 1.920 . S
O32 C5 1.289 . S
C33 O25 1.258 . S
C33 O26 1.266 . S
Co34 O37 1.970 . S
Co34 N51 1.989 . S
Co34 O59 1.967 . S
Co34 O66 1.920 . S
Co35 O38 1.966 . S
Co35 N44 2.022 . S
Co35 N52 1.993 . S
Co35 O60 1.941 . S
C36 O37 1.258 . S
C36 O38 1.263 . S
O37 Co34 1.970 . S
O37 C36 1.258 . S
O38 Co35 1.966 . S
O38 C36 1.263 . S
C39 O40 1.235 . S
C39 O66 1.289 . S
O40 C39 1.235 . S
C41 C43 1.400 . S
C41 N44 1.351 . S
C41 C46 1.501 . S
C42 C43 1.387 . S
C42 N45 1.341 . S
C43 C41 1.400 . S
C43 C42 1.387 . S
N44 Co35 2.022 . S
N44 C41 1.351 . S
N44 N45 1.365 . S
N45 C42 1.341 . S
N45 N44 1.365 . S
N45 H65 0.862 . S
C46 C41 1.501 . S
C46 H47 0.961 . S
C46 H48 0.961 . S
C46 H49 0.960 . S
H47 C46 0.961 . S
H48 C46 0.961 . S
H49 C46 0.960 . S
C50 N51 1.342 . S
C50 C54 1.401 . S
C50 C55 1.499 . S
N51 Co34 1.989 . S
N51 C50 1.342 . S
N51 N52 1.388 . S
N52 Co35 1.993 . S
N52 N51 1.388 . S
N52 C53 1.346 . S
C53 N52 1.346 . S
C53 C54 1.396 . S
C53 C63 1.510 . S
C54 C50 1.401 . S
C54 C53 1.396 . S
C55 C50 1.499 . S
C55 H56 0.959 . S
C55 H57 0.960 . S
C55 H58 0.961 . S
H56 C55 0.959 . S
H57 C55 0.960 . S
H58 C55 0.961 . S
O59 Co34 1.967 . S
O59 C67 1.258 . S
O60 Co35 1.941 . S
O60 C67 1.266 . S
H61 C63 0.959 . S
H62 C63 0.961 . S
C63 C53 1.510 . S
C63 H61 0.959 . S
C63 H62 0.961 . S
C63 H64 0.960 . S
H64 C63 0.960 . S
H65 N45 0.862 . S
O66 Co34 1.920 . S
O66 C39 1.289 . S
C67 O59 1.258 . S
C67 O60 1.266 . S
Co68 O71 1.970 . S
Co68 N85 1.989 . S
Co68 O93 1.967 . S
Co68 O100 1.920 . S
Co69 O72 1.966 . S
Co69 N78 2.022 . S
Co69 N86 1.993 . S
Co69 O94 1.941 . S
C70 O71 1.258 . S
C70 O72 1.263 . S
O71 Co68 1.970 . S
O71 C70 1.258 . S
O72 Co69 1.966 . S
O72 C70 1.263 . S
C73 O74 1.235 . S
C73 O100 1.289 . S
O74 C73 1.235 . S
C75 C77 1.400 . S
C75 N78 1.351 . S
C75 C80 1.501 . S
C76 C77 1.387 . S
C76 N79 1.341 . S
C77 C75 1.400 . S
C77 C76 1.387 . S
N78 Co69 2.022 . S
N78 C75 1.351 . S
N78 N79 1.365 . S
N79 C76 1.341 . S
N79 N78 1.365 . S
N79 H99 0.862 . S
C80 C75 1.501 . S
C80 H81 0.961 . S
C80 H82 0.961 . S
C80 H83 0.960 . S
H81 C80 0.961 . S
H82 C80 0.961 . S
H83 C80 0.960 . S
C84 N85 1.342 . S
C84 C88 1.401 . S
C84 C89 1.499 . S
N85 Co68 1.989 . S
N85 C84 1.342 . S
N85 N86 1.388 . S
N86 Co69 1.993 . S
N86 N85 1.388 . S
N86 C87 1.346 . S
C87 N86 1.346 . S
C87 C88 1.396 . S
C87 C97 1.510 . S
C88 C84 1.401 . S
C88 C87 1.396 . S
C89 C84 1.499 . S
C89 H90 0.959 . S
C89 H91 0.960 . S
C89 H92 0.961 . S
H90 C89 0.959 . S
H91 C89 0.960 . S
H92 C89 0.961 . S
O93 Co68 1.967 . S
O93 C101 1.258 . S
O94 Co69 1.941 . S
O94 C101 1.266 . S
H95 C97 0.959 . S
H96 C97 0.961 . S
C97 C87 1.510 . S
C97 H95 0.959 . S
C97 H96 0.961 . S
C97 H98 0.960 . S
H98 C97 0.960 . S
H99 N79 0.862 . S
O100 Co68 1.920 . S
O100 C73 1.289 . S
C101 O93 1.258 . S
C101 O94 1.266 . S
Co102 O105 1.970 . S
Co102 N119 1.989 . S
Co102 O127 1.967 . S
Co102 O134 1.920 . S
Co103 O106 1.966 . S
Co103 N112 2.022 . S
Co103 N120 1.993 . S
Co103 O128 1.941 . S
C104 O105 1.258 . S
C104 O106 1.263 . S
O105 Co102 1.970 . S
O105 C104 1.258 . S
O106 Co103 1.966 . S
O106 C104 1.263 . S
C107 O108 1.235 . S
C107 O134 1.289 . S
O108 C107 1.235 . S
C109 C111 1.400 . S
C109 N112 1.351 . S
C109 C114 1.501 . S
C110 C111 1.387 . S
C110 N113 1.341 . S
C111 C109 1.400 . S
C111 C110 1.387 . S
N112 Co103 2.022 . S
N112 C109 1.351 . S
N112 N113 1.365 . S
N113 C110 1.341 . S
N113 N112 1.365 . S
N113 H133 0.862 . S
C114 C109 1.501 . S
C114 H115 0.961 . S
C114 H116 0.961 . S
C114 H117 0.960 . S
H115 C114 0.961 . S
H116 C114 0.961 . S
H117 C114 0.960 . S
C118 N119 1.342 . S
C118 C122 1.401 . S
C118 C123 1.499 . S
N119 Co102 1.989 . S
N119 C118 1.342 . S
N119 N120 1.388 . S
N120 Co103 1.993 . S
N120 N119 1.388 . S
N120 C121 1.346 . S
C121 N120 1.346 . S
C121 C122 1.396 . S
C121 C131 1.510 . S
C122 C118 1.401 . S
C122 C121 1.396 . S
C123 C118 1.499 . S
C123 H124 0.959 . S
C123 H125 0.960 . S
C123 H126 0.961 . S
H124 C123 0.959 . S
H125 C123 0.960 . S
H126 C123 0.961 . S
O127 Co102 1.967 . S
O127 C135 1.258 . S
O128 Co103 1.941 . S
O128 C135 1.266 . S
H129 C131 0.959 . S
H130 C131 0.961 . S
C131 C121 1.510 . S
C131 H129 0.959 . S
C131 H130 0.961 . S
C131 H132 0.960 . S
H132 C131 0.960 . S
H133 N113 0.862 . S
O134 Co102 1.920 . S
O134 C107 1.289 . S
C135 O127 1.258 . S
C135 O128 1.266 . S
Co136 O139 1.970 . S
Co136 N153 1.989 . S
Co136 O161 1.967 . S
Co136 O168 1.920 . S
Co137 O140 1.966 . S
Co137 N146 2.022 . S
Co137 N154 1.993 . S
Co137 O162 1.941 . S
C138 O139 1.258 . S
C138 O140 1.263 . S
O139 Co136 1.970 . S
O139 C138 1.258 . S
O140 Co137 1.966 . S
O140 C138 1.263 . S
C141 O142 1.235 . S
C141 O168 1.289 . S
O142 C141 1.235 . S
C143 C145 1.400 . S
C143 N146 1.351 . S
C143 C148 1.501 . S
C144 C145 1.387 . S
C144 N147 1.341 . S
C145 C143 1.400 . S
C145 C144 1.387 . S
N146 Co137 2.022 . S
N146 C143 1.351 . S
N146 N147 1.365 . S
N147 C144 1.341 . S
N147 N146 1.365 . S
N147 H167 0.862 . S
C148 C143 1.501 . S
C148 H149 0.961 . S
C148 H150 0.961 . S
C148 H151 0.960 . S
H149 C148 0.961 . S
H150 C148 0.961 . S
H151 C148 0.960 . S
C152 N153 1.342 . S
C152 C156 1.401 . S
C152 C157 1.499 . S
N153 Co136 1.989 . S
N153 C152 1.342 . S
N153 N154 1.388 . S
N154 Co137 1.993 . S
N154 N153 1.388 . S
N154 C155 1.346 . S
C155 N154 1.346 . S
C155 C156 1.396 . S
C155 C165 1.510 . S
C156 C152 1.401 . S
C156 C155 1.396 . S
C157 C152 1.499 . S
C157 H158 0.959 . S
C157 H159 0.960 . S
C157 H160 0.961 . S
H158 C157 0.959 . S
H159 C157 0.960 . S
H160 C157 0.961 . S
O161 Co136 1.967 . S
O161 C169 1.258 . S
O162 Co137 1.941 . S
O162 C169 1.266 . S
H163 C165 0.959 . S
H164 C165 0.961 . S
C165 C155 1.510 . S
C165 H163 0.959 . S
C165 H164 0.961 . S
C165 H166 0.960 . S
H166 C165 0.960 . S
H167 N147 0.862 . S
O168 Co136 1.920 . S
O168 C141 1.289 . S
C169 O161 1.258 . S
C169 O162 1.266 . S
Co170 O173 1.970 . S
Co170 N187 1.989 . S
Co170 O195 1.967 . S
Co170 O202 1.920 . S
Co171 O174 1.966 . S
Co171 N180 2.022 . S
Co171 N188 1.993 . S
Co171 O196 1.941 . S
C172 O173 1.258 . S
C172 O174 1.263 . S
O173 Co170 1.970 . S
O173 C172 1.258 . S
O174 Co171 1.966 . S
O174 C172 1.263 . S
C175 O176 1.235 . S
C175 O202 1.289 . S
O176 C175 1.235 . S
C177 C179 1.400 . S
C177 N180 1.351 . S
C177 C182 1.501 . S
C178 C179 1.387 . S
C178 N181 1.341 . S
C179 C177 1.400 . S
C179 C178 1.387 . S
N180 Co171 2.022 . S
N180 C177 1.351 . S
N180 N181 1.365 . S
N181 C178 1.341 . S
N181 N180 1.365 . S
N181 H201 0.862 . S
C182 C177 1.501 . S
C182 H183 0.961 . S
C182 H184 0.961 . S
C182 H185 0.960 . S
H183 C182 0.961 . S
H184 C182 0.961 . S
H185 C182 0.960 . S
C186 N187 1.342 . S
C186 C190 1.401 . S
C186 C191 1.499 . S
N187 Co170 1.989 . S
N187 C186 1.342 . S
N187 N188 1.388 . S
N188 Co171 1.993 . S
N188 N187 1.388 . S
N188 C189 1.346 . S
C189 N188 1.346 . S
C189 C190 1.396 . S
C189 C199 1.510 . S
C190 C186 1.401 . S
C190 C189 1.396 . S
C191 C186 1.499 . S
C191 H192 0.959 . S
C191 H193 0.960 . S
C191 H194 0.961 . S
H192 C191 0.959 . S
H193 C191 0.960 . S
H194 C191 0.961 . S
O195 Co170 1.967 . S
O195 C203 1.258 . S
O196 Co171 1.941 . S
O196 C203 1.266 . S
H197 C199 0.959 . S
H198 C199 0.961 . S
C199 C189 1.510 . S
C199 H197 0.959 . S
C199 H198 0.961 . S
C199 H200 0.960 . S
H200 C199 0.960 . S
H201 N181 0.862 . S
O202 Co170 1.920 . S
O202 C175 1.289 . S
C203 O195 1.258 . S
C203 O196 1.266 . S
Co204 O207 1.970 . S
Co204 N221 1.989 . S
Co204 O229 1.967 . S
Co204 O236 1.920 . S
Co205 O208 1.966 . S
Co205 N214 2.022 . S
Co205 N222 1.993 . S
Co205 O230 1.941 . S
C206 O207 1.258 . S
C206 O208 1.263 . S
O207 Co204 1.970 . S
O207 C206 1.258 . S
O208 Co205 1.966 . S
O208 C206 1.263 . S
C209 O210 1.235 . S
C209 O236 1.289 . S
O210 C209 1.235 . S
C211 C213 1.400 . S
C211 N214 1.351 . S
C211 C216 1.501 . S
C212 C213 1.387 . S
C212 N215 1.341 . S
C213 C211 1.400 . S
C213 C212 1.387 . S
N214 Co205 2.022 . S
N214 C211 1.351 . S
N214 N215 1.365 . S
N215 C212 1.341 . S
N215 N214 1.365 . S
N215 H235 0.862 . S
C216 C211 1.501 . S
C216 H217 0.961 . S
C216 H218 0.961 . S
C216 H219 0.960 . S
H217 C216 0.961 . S
H218 C216 0.961 . S
H219 C216 0.960 . S
C220 N221 1.342 . S
C220 C224 1.401 . S
C220 C225 1.499 . S
N221 Co204 1.989 . S
N221 C220 1.342 . S
N221 N222 1.388 . S
N222 Co205 1.993 . S
N222 N221 1.388 . S
N222 C223 1.346 . S
C223 N222 1.346 . S
C223 C224 1.396 . S
C223 C233 1.510 . S
C224 C220 1.401 . S
C224 C223 1.396 . S
C225 C220 1.499 . S
C225 H226 0.959 . S
C225 H227 0.960 . S
C225 H228 0.961 . S
H226 C225 0.959 . S
H227 C225 0.960 . S
H228 C225 0.961 . S
O229 Co204 1.967 . S
O229 C237 1.258 . S
O230 Co205 1.941 . S
O230 C237 1.266 . S
H231 C233 0.959 . S
H232 C233 0.961 . S
C233 C223 1.510 . S
C233 H231 0.959 . S
C233 H232 0.961 . S
C233 H234 0.960 . S
H234 C233 0.960 . S
H235 N215 0.862 . S
O236 Co204 1.920 . S
O236 C209 1.289 . S
C237 O229 1.258 . S
C237 O230 1.266 . S
Co238 O241 1.970 . S
Co238 N255 1.989 . S
Co238 O263 1.967 . S
Co238 O270 1.920 . S
Co239 O242 1.966 . S
Co239 N248 2.022 . S
Co239 N256 1.993 . S
Co239 O264 1.941 . S
C240 O241 1.258 . S
C240 O242 1.263 . S
O241 Co238 1.970 . S
O241 C240 1.258 . S
O242 Co239 1.966 . S
O242 C240 1.263 . S
C243 O244 1.235 . S
C243 O270 1.289 . S
O244 C243 1.235 . S
C245 C247 1.400 . S
C245 N248 1.351 . S
C245 C250 1.501 . S
C246 C247 1.387 . S
C246 N249 1.341 . S
C247 C245 1.400 . S
C247 C246 1.387 . S
N248 Co239 2.022 . S
N248 C245 1.351 . S
N248 N249 1.365 . S
N249 C246 1.341 . S
N249 N248 1.365 . S
N249 H269 0.862 . S
C250 C245 1.501 . S
C250 H251 0.961 . S
C250 H252 0.961 . S
C250 H253 0.960 . S
H251 C250 0.961 . S
H252 C250 0.961 . S
H253 C250 0.960 . S
C254 N255 1.342 . S
C254 C258 1.401 . S
C254 C259 1.499 . S
N255 Co238 1.989 . S
N255 C254 1.342 . S
N255 N256 1.388 . S
N256 Co239 1.993 . S
N256 N255 1.388 . S
N256 C257 1.346 . S
C257 N256 1.346 . S
C257 C258 1.396 . S
C257 C267 1.510 . S
C258 C254 1.401 . S
C258 C257 1.396 . S
C259 C254 1.499 . S
C259 H260 0.959 . S
C259 H261 0.960 . S
C259 H262 0.961 . S
H260 C259 0.959 . S
H261 C259 0.960 . S
H262 C259 0.961 . S
O263 Co238 1.967 . S
O263 C271 1.258 . S
O264 Co239 1.941 . S
O264 C271 1.266 . S
H265 C267 0.959 . S
H266 C267 0.961 . S
C267 C257 1.510 . S
C267 H265 0.959 . S
C267 H266 0.961 . S
C267 H268 0.960 . S
H268 C267 0.960 . S
H269 N249 0.862 . S
O270 Co238 1.920 . S
O270 C243 1.289 . S
C271 O263 1.258 . S
C271 O264 1.266 . S
Co272 O275 1.970 . S
Co272 N289 1.989 . S
Co272 O297 1.967 . S
Co272 O304 1.920 . S
Co273 O276 1.966 . S
Co273 N282 2.022 . S
Co273 N290 1.993 . S
Co273 O298 1.941 . S
C274 O275 1.258 . S
C274 O276 1.263 . S
O275 Co272 1.970 . S
O275 C274 1.258 . S
O276 Co273 1.966 . S
O276 C274 1.263 . S
C277 O278 1.235 . S
C277 O304 1.289 . S
O278 C277 1.235 . S
C279 C281 1.400 . S
C279 N282 1.351 . S
C279 C284 1.501 . S
C280 C281 1.387 . S
C280 N283 1.341 . S
C281 C279 1.400 . S
C281 C280 1.387 . S
N282 Co273 2.022 . S
N282 C279 1.351 . S
N282 N283 1.365 . S
N283 C280 1.341 . S
N283 N282 1.365 . S
N283 H303 0.862 . S
C284 C279 1.501 . S
C284 H285 0.961 . S
C284 H286 0.961 . S
C284 H287 0.960 . S
H285 C284 0.961 . S
H286 C284 0.961 . S
H287 C284 0.960 . S
C288 N289 1.342 . S
C288 C292 1.401 . S
C288 C293 1.499 . S
N289 Co272 1.989 . S
N289 C288 1.342 . S
N289 N290 1.388 . S
N290 Co273 1.993 . S
N290 N289 1.388 . S
N290 C291 1.346 . S
C291 N290 1.346 . S
C291 C292 1.396 . S
C291 C301 1.510 . S
C292 C288 1.401 . S
C292 C291 1.396 . S
C293 C288 1.499 . S
C293 H294 0.959 . S
C293 H295 0.960 . S
C293 H296 0.961 . S
H294 C293 0.959 . S
H295 C293 0.960 . S
H296 C293 0.961 . S
O297 Co272 1.967 . S
O297 C305 1.258 . S
O298 Co273 1.941 . S
O298 C305 1.266 . S
H299 C301 0.959 . S
H300 C301 0.961 . S
C301 C291 1.510 . S
C301 H299 0.959 . S
C301 H300 0.961 . S
C301 H302 0.960 . S
H302 C301 0.960 . S
H303 N283 0.862 . S
O304 Co272 1.920 . S
O304 C277 1.289 . S
C305 O297 1.258 . S
C305 O298 1.266 . S
Co306 O309 1.970 . S
Co306 N323 1.989 . S
Co306 O331 1.967 . S
Co306 O338 1.920 . S
Co307 O310 1.966 . S
Co307 N316 2.022 . S
Co307 N324 1.993 . S
Co307 O332 1.941 . S
C308 O309 1.258 . S
C308 O310 1.263 . S
O309 Co306 1.970 . S
O309 C308 1.258 . S
O310 Co307 1.966 . S
O310 C308 1.263 . S
C311 O312 1.235 . S
C311 O338 1.289 . S
O312 C311 1.235 . S
C313 C315 1.400 . S
C313 N316 1.351 . S
C313 C318 1.501 . S
C314 C315 1.387 . S
C314 N317 1.341 . S
C315 C313 1.400 . S
C315 C314 1.387 . S
N316 Co307 2.022 . S
N316 C313 1.351 . S
N316 N317 1.365 . S
N317 C314 1.341 . S
N317 N316 1.365 . S
N317 H337 0.862 . S
C318 C313 1.501 . S
C318 H319 0.961 . S
C318 H320 0.961 . S
C318 H321 0.960 . S
H319 C318 0.961 . S
H320 C318 0.961 . S
H321 C318 0.960 . S
C322 N323 1.342 . S
C322 C326 1.401 . S
C322 C327 1.499 . S
N323 Co306 1.989 . S
N323 C322 1.342 . S
N323 N324 1.388 . S
N324 Co307 1.993 . S
N324 N323 1.388 . S
N324 C325 1.346 . S
C325 N324 1.346 . S
C325 C326 1.396 . S
C325 C335 1.510 . S
C326 C322 1.401 . S
C326 C325 1.396 . S
C327 C322 1.499 . S
C327 H328 0.959 . S
C327 H329 0.960 . S
C327 H330 0.961 . S
H328 C327 0.959 . S
H329 C327 0.960 . S
H330 C327 0.961 . S
O331 Co306 1.967 . S
O331 C339 1.258 . S
O332 Co307 1.941 . S
O332 C339 1.266 . S
H333 C335 0.959 . S
H334 C335 0.961 . S
C335 C325 1.510 . S
C335 H333 0.959 . S
C335 H334 0.961 . S
C335 H336 0.960 . S
H336 C335 0.960 . S
H337 N317 0.862 . S
O338 Co306 1.920 . S
O338 C311 1.289 . S
C339 O331 1.258 . S
C339 O332 1.266 . S
Co340 O343 1.970 . S
Co340 N357 1.989 . S
Co340 O365 1.967 . S
Co340 O372 1.920 . S
Co341 O344 1.966 . S
Co341 N350 2.022 . S
Co341 N358 1.993 . S
Co341 O366 1.941 . S
C342 O343 1.258 . S
C342 O344 1.263 . S
O343 Co340 1.970 . S
O343 C342 1.258 . S
O344 Co341 1.966 . S
O344 C342 1.263 . S
C345 O346 1.235 . S
C345 O372 1.289 . S
O346 C345 1.235 . S
C347 C349 1.400 . S
C347 N350 1.351 . S
C347 C352 1.501 . S
C348 C349 1.387 . S
C348 N351 1.341 . S
C349 C347 1.400 . S
C349 C348 1.387 . S
N350 Co341 2.022 . S
N350 C347 1.351 . S
N350 N351 1.365 . S
N351 C348 1.341 . S
N351 N350 1.365 . S
N351 H371 0.862 . S
C352 C347 1.501 . S
C352 H353 0.961 . S
C352 H354 0.961 . S
C352 H355 0.960 . S
H353 C352 0.961 . S
H354 C352 0.961 . S
H355 C352 0.960 . S
C356 N357 1.342 . S
C356 C360 1.401 . S
C356 C361 1.499 . S
N357 Co340 1.989 . S
N357 C356 1.342 . S
N357 N358 1.388 . S
N358 Co341 1.993 . S
N358 N357 1.388 . S
N358 C359 1.346 . S
C359 N358 1.346 . S
C359 C360 1.396 . S
C359 C369 1.510 . S
C360 C356 1.401 . S
C360 C359 1.396 . S
C361 C356 1.499 . S
C361 H362 0.959 . S
C361 H363 0.960 . S
C361 H364 0.961 . S
H362 C361 0.959 . S
H363 C361 0.960 . S
H364 C361 0.961 . S
O365 Co340 1.967 . S
O365 C373 1.258 . S
O366 Co341 1.941 . S
O366 C373 1.266 . S
H367 C369 0.959 . S
H368 C369 0.961 . S
C369 C359 1.510 . S
C369 H367 0.959 . S
C369 H368 0.961 . S
C369 H370 0.960 . S
H370 C369 0.960 . S
H371 N351 0.862 . S
O372 Co340 1.920 . S
O372 C345 1.289 . S
C373 O365 1.258 . S
C373 O366 1.266 . S
Co374 O377 1.970 . S
Co374 N391 1.989 . S
Co374 O399 1.967 . S
Co374 O406 1.920 . S
Co375 O378 1.966 . S
Co375 N384 2.022 . S
Co375 N392 1.993 . S
Co375 O400 1.941 . S
C376 O377 1.258 . S
C376 O378 1.263 . S
O377 Co374 1.970 . S
O377 C376 1.258 . S
O378 Co375 1.966 . S
O378 C376 1.263 . S
C379 O380 1.235 . S
C379 O406 1.289 . S
O380 C379 1.235 . S
C381 C383 1.400 . S
C381 N384 1.351 . S
C381 C386 1.501 . S
C382 C383 1.387 . S
C382 N385 1.341 . S
C383 C381 1.400 . S
C383 C382 1.387 . S
N384 Co375 2.022 . S
N384 C381 1.351 . S
N384 N385 1.365 . S
N385 C382 1.341 . S
N385 N384 1.365 . S
N385 H405 0.862 . S
C386 C381 1.501 . S
C386 H387 0.961 . S
C386 H388 0.961 . S
C386 H389 0.960 . S
H387 C386 0.961 . S
H388 C386 0.961 . S
H389 C386 0.960 . S
C390 N391 1.342 . S
C390 C394 1.401 . S
C390 C395 1.499 . S
N391 Co374 1.989 . S
N391 C390 1.342 . S
N391 N392 1.388 . S
N392 Co375 1.993 . S
N392 N391 1.388 . S
N392 C393 1.346 . S
C393 N392 1.346 . S
C393 C394 1.396 . S
C393 C403 1.510 . S
C394 C390 1.401 . S
C394 C393 1.396 . S
C395 C390 1.499 . S
C395 H396 0.959 . S
C395 H397 0.960 . S
C395 H398 0.961 . S
H396 C395 0.959 . S
H397 C395 0.960 . S
H398 C395 0.961 . S
O399 Co374 1.967 . S
O399 C407 1.258 . S
O400 Co375 1.941 . S
O400 C407 1.266 . S
H401 C403 0.959 . S
H402 C403 0.961 . S
C403 C393 1.510 . S
C403 H401 0.959 . S
C403 H402 0.961 . S
C403 H404 0.960 . S
H404 C403 0.960 . S
H405 N385 0.862 . S
O406 Co374 1.920 . S
O406 C379 1.289 . S
C407 O399 1.258 . S
C407 O400 1.266 . S
Co408 O411 1.970 . S
Co408 N425 1.989 . S
Co408 O433 1.967 . S
Co408 O440 1.920 . S
Co409 O412 1.966 . S
Co409 N418 2.022 . S
Co409 N426 1.993 . S
Co409 O434 1.941 . S
C410 O411 1.258 . S
C410 O412 1.263 . S
O411 Co408 1.970 . S
O411 C410 1.258 . S
O412 Co409 1.966 . S
O412 C410 1.263 . S
C413 O414 1.235 . S
C413 O440 1.289 . S
O414 C413 1.235 . S
C415 C417 1.400 . S
C415 N418 1.351 . S
C415 C420 1.501 . S
C416 C417 1.387 . S
C416 N419 1.341 . S
C417 C415 1.400 . S
C417 C416 1.387 . S
N418 Co409 2.022 . S
N418 C415 1.351 . S
N418 N419 1.365 . S
N419 C416 1.341 . S
N419 N418 1.365 . S
N419 H439 0.862 . S
C420 C415 1.501 . S
C420 H421 0.961 . S
C420 H422 0.961 . S
C420 H423 0.960 . S
H421 C420 0.961 . S
H422 C420 0.961 . S
H423 C420 0.960 . S
C424 N425 1.342 . S
C424 C428 1.401 . S
C424 C429 1.499 . S
N425 Co408 1.989 . S
N425 C424 1.342 . S
N425 N426 1.388 . S
N426 Co409 1.993 . S
N426 N425 1.388 . S
N426 C427 1.346 . S
C427 N426 1.346 . S
C427 C428 1.396 . S
C427 C437 1.510 . S
C428 C424 1.401 . S
C428 C427 1.396 . S
C429 C424 1.499 . S
C429 H430 0.959 . S
C429 H431 0.960 . S
C429 H432 0.961 . S
H430 C429 0.959 . S
H431 C429 0.960 . S
H432 C429 0.961 . S
O433 Co408 1.967 . S
O433 C441 1.258 . S
O434 Co409 1.941 . S
O434 C441 1.266 . S
H435 C437 0.959 . S
H436 C437 0.961 . S
C437 C427 1.510 . S
C437 H435 0.959 . S
C437 H436 0.961 . S
C437 H438 0.960 . S
H438 C437 0.960 . S
H439 N419 0.862 . S
O440 Co408 1.920 . S
O440 C413 1.289 . S
C441 O433 1.258 . S
C441 O434 1.266 . S
Co442 O445 1.970 . S
Co442 N459 1.989 . S
Co442 O467 1.967 . S
Co442 O474 1.920 . S
Co443 O446 1.966 . S
Co443 N452 2.022 . S
Co443 N460 1.993 . S
Co443 O468 1.941 . S
C444 O445 1.258 . S
C444 O446 1.263 . S
O445 Co442 1.970 . S
O445 C444 1.258 . S
O446 Co443 1.966 . S
O446 C444 1.263 . S
C447 O448 1.235 . S
C447 O474 1.289 . S
O448 C447 1.235 . S
C449 C451 1.400 . S
C449 N452 1.351 . S
C449 C454 1.501 . S
C450 C451 1.387 . S
C450 N453 1.341 . S
C451 C449 1.400 . S
C451 C450 1.387 . S
N452 Co443 2.022 . S
N452 C449 1.351 . S
N452 N453 1.365 . S
N453 C450 1.341 . S
N453 N452 1.365 . S
N453 H473 0.862 . S
C454 C449 1.501 . S
C454 H455 0.961 . S
C454 H456 0.961 . S
C454 H457 0.960 . S
H455 C454 0.961 . S
H456 C454 0.961 . S
H457 C454 0.960 . S
C458 N459 1.342 . S
C458 C462 1.401 . S
C458 C463 1.499 . S
N459 Co442 1.989 . S
N459 C458 1.342 . S
N459 N460 1.388 . S
N460 Co443 1.993 . S
N460 N459 1.388 . S
N460 C461 1.346 . S
C461 N460 1.346 . S
C461 C462 1.396 . S
C461 C471 1.510 . S
C462 C458 1.401 . S
C462 C461 1.396 . S
C463 C458 1.499 . S
C463 H464 0.959 . S
C463 H465 0.960 . S
C463 H466 0.961 . S
H464 C463 0.959 . S
H465 C463 0.960 . S
H466 C463 0.961 . S
O467 Co442 1.967 . S
O467 C475 1.258 . S
O468 Co443 1.941 . S
O468 C475 1.266 . S
H469 C471 0.959 . S
H470 C471 0.961 . S
C471 C461 1.510 . S
C471 H469 0.959 . S
C471 H470 0.961 . S
C471 H472 0.960 . S
H472 C471 0.960 . S
H473 N453 0.862 . S
O474 Co442 1.920 . S
O474 C447 1.289 . S
C475 O467 1.258 . S
C475 O468 1.266 . S
Co476 O479 1.970 . S
Co476 N493 1.989 . S
Co476 O501 1.967 . S
Co476 O508 1.920 . S
Co477 O480 1.966 . S
Co477 N486 2.022 . S
Co477 N494 1.993 . S
Co477 O502 1.941 . S
C478 O479 1.258 . S
C478 O480 1.263 . S
O479 Co476 1.970 . S
O479 C478 1.258 . S
O480 Co477 1.966 . S
O480 C478 1.263 . S
C481 O482 1.235 . S
C481 O508 1.289 . S
O482 C481 1.235 . S
C483 C485 1.400 . S
C483 N486 1.351 . S
C483 C488 1.501 . S
C484 C485 1.387 . S
C484 N487 1.341 . S
C485 C483 1.400 . S
C485 C484 1.387 . S
N486 Co477 2.022 . S
N486 C483 1.351 . S
N486 N487 1.365 . S
N487 C484 1.341 . S
N487 N486 1.365 . S
N487 H507 0.862 . S
C488 C483 1.501 . S
C488 H489 0.961 . S
C488 H490 0.961 . S
C488 H491 0.960 . S
H489 C488 0.961 . S
H490 C488 0.961 . S
H491 C488 0.960 . S
C492 N493 1.342 . S
C492 C496 1.401 . S
C492 C497 1.499 . S
N493 Co476 1.989 . S
N493 C492 1.342 . S
N493 N494 1.388 . S
N494 Co477 1.993 . S
N494 N493 1.388 . S
N494 C495 1.346 . S
C495 N494 1.346 . S
C495 C496 1.396 . S
C495 C505 1.510 . S
C496 C492 1.401 . S
C496 C495 1.396 . S
C497 C492 1.499 . S
C497 H498 0.959 . S
C497 H499 0.960 . S
C497 H500 0.961 . S
H498 C497 0.959 . S
H499 C497 0.960 . S
H500 C497 0.961 . S
O501 Co476 1.967 . S
O501 C509 1.258 . S
O502 Co477 1.941 . S
O502 C509 1.266 . S
H503 C505 0.959 . S
H504 C505 0.961 . S
C505 C495 1.510 . S
C505 H503 0.959 . S
C505 H504 0.961 . S
C505 H506 0.960 . S
H506 C505 0.960 . S
H507 N487 0.862 . S
O508 Co476 1.920 . S
O508 C481 1.289 . S
C509 O501 1.258 . S
C509 O502 1.266 . S
Co510 O513 1.970 . S
Co510 N527 1.989 . S
Co510 O535 1.967 . S
Co510 O542 1.920 . S
Co511 O514 1.966 . S
Co511 N520 2.022 . S
Co511 N528 1.993 . S
Co511 O536 1.941 . S
C512 O513 1.258 . S
C512 O514 1.263 . S
O513 Co510 1.970 . S
O513 C512 1.258 . S
O514 Co511 1.966 . S
O514 C512 1.263 . S
C515 O516 1.235 . S
C515 O542 1.289 . S
O516 C515 1.235 . S
C517 C519 1.400 . S
C517 N520 1.351 . S
C517 C522 1.501 . S
C518 C519 1.387 . S
C518 N521 1.341 . S
C519 C517 1.400 . S
C519 C518 1.387 . S
N520 Co511 2.022 . S
N520 C517 1.351 . S
N520 N521 1.365 . S
N521 C518 1.341 . S
N521 N520 1.365 . S
N521 H541 0.862 . S
C522 C517 1.501 . S
C522 H523 0.961 . S
C522 H524 0.961 . S
C522 H525 0.960 . S
H523 C522 0.961 . S
H524 C522 0.961 . S
H525 C522 0.960 . S
C526 N527 1.342 . S
C526 C530 1.401 . S
C526 C531 1.499 . S
N527 Co510 1.989 . S
N527 C526 1.342 . S
N527 N528 1.388 . S
N528 Co511 1.993 . S
N528 N527 1.388 . S
N528 C529 1.346 . S
C529 N528 1.346 . S
C529 C530 1.396 . S
C529 C539 1.510 . S
C530 C526 1.401 . S
C530 C529 1.396 . S
C531 C526 1.499 . S
C531 H532 0.959 . S
C531 H533 0.960 . S
C531 H534 0.961 . S
H532 C531 0.959 . S
H533 C531 0.960 . S
H534 C531 0.961 . S
O535 Co510 1.967 . S
O535 C543 1.258 . S
O536 Co511 1.941 . S
O536 C543 1.266 . S
H537 C539 0.959 . S
H538 C539 0.961 . S
C539 C529 1.510 . S
C539 H537 0.959 . S
C539 H538 0.961 . S
C539 H540 0.960 . S
H540 C539 0.960 . S
H541 N521 0.862 . S
O542 Co510 1.920 . S
O542 C515 1.289 . S
C543 O535 1.258 . S
C543 O536 1.266 . S
Co544 O547 1.970 . S
Co544 N561 1.989 . S
Co544 O569 1.967 . S
Co544 O576 1.920 . S
Co545 O548 1.966 . S
Co545 N554 2.022 . S
Co545 N562 1.993 . S
Co545 O570 1.941 . S
C546 O547 1.258 . S
C546 O548 1.263 . S
O547 Co544 1.970 . S
O547 C546 1.258 . S
O548 Co545 1.966 . S
O548 C546 1.263 . S
C549 O550 1.235 . S
C549 O576 1.289 . S
O550 C549 1.235 . S
C551 C553 1.400 . S
C551 N554 1.351 . S
C551 C556 1.501 . S
C552 C553 1.387 . S
C552 N555 1.341 . S
C553 C551 1.400 . S
C553 C552 1.387 . S
N554 Co545 2.022 . S
N554 C551 1.351 . S
N554 N555 1.365 . S
N555 C552 1.341 . S
N555 N554 1.365 . S
N555 H575 0.862 . S
C556 C551 1.501 . S
C556 H557 0.961 . S
C556 H558 0.961 . S
C556 H559 0.960 . S
H557 C556 0.961 . S
H558 C556 0.961 . S
H559 C556 0.960 . S
C560 N561 1.342 . S
C560 C564 1.401 . S
C560 C565 1.499 . S
N561 Co544 1.989 . S
N561 C560 1.342 . S
N561 N562 1.388 . S
N562 Co545 1.993 . S
N562 N561 1.388 . S
N562 C563 1.346 . S
C563 N562 1.346 . S
C563 C564 1.396 . S
C563 C573 1.510 . S
C564 C560 1.401 . S
C564 C563 1.396 . S
C565 C560 1.499 . S
C565 H566 0.959 . S
C565 H567 0.960 . S
C565 H568 0.961 . S
H566 C565 0.959 . S
H567 C565 0.960 . S
H568 C565 0.961 . S
O569 Co544 1.967 . S
O569 C577 1.258 . S
O570 Co545 1.941 . S
O570 C577 1.266 . S
H571 C573 0.959 . S
H572 C573 0.961 . S
C573 C563 1.510 . S
C573 H571 0.959 . S
C573 H572 0.961 . S
C573 H574 0.960 . S
H574 C573 0.960 . S
H575 N555 0.862 . S
O576 Co544 1.920 . S
O576 C549 1.289 . S
C577 O569 1.258 . S
C577 O570 1.266 . S
Co578 O581 1.970 . S
Co578 N595 1.989 . S
Co578 O603 1.967 . S
Co578 O610 1.920 . S
Co579 O582 1.966 . S
Co579 N588 2.022 . S
Co579 N596 1.993 . S
Co579 O604 1.941 . S
C580 O581 1.258 . S
C580 O582 1.263 . S
O581 Co578 1.970 . S
O581 C580 1.258 . S
O582 Co579 1.966 . S
O582 C580 1.263 . S
C583 O584 1.235 . S
C583 O610 1.289 . S
O584 C583 1.235 . S
C585 C587 1.400 . S
C585 N588 1.351 . S
C585 C590 1.501 . S
C586 C587 1.387 . S
C586 N589 1.341 . S
C587 C585 1.400 . S
C587 C586 1.387 . S
N588 Co579 2.022 . S
N588 C585 1.351 . S
N588 N589 1.365 . S
N589 C586 1.341 . S
N589 N588 1.365 . S
N589 H609 0.862 . S
C590 C585 1.501 . S
C590 H591 0.961 . S
C590 H592 0.961 . S
C590 H593 0.960 . S
H591 C590 0.961 . S
H592 C590 0.961 . S
H593 C590 0.960 . S
C594 N595 1.342 . S
C594 C598 1.401 . S
C594 C599 1.499 . S
N595 Co578 1.989 . S
N595 C594 1.342 . S
N595 N596 1.388 . S
N596 Co579 1.993 . S
N596 N595 1.388 . S
N596 C597 1.346 . S
C597 N596 1.346 . S
C597 C598 1.396 . S
C597 C607 1.510 . S
C598 C594 1.401 . S
C598 C597 1.396 . S
C599 C594 1.499 . S
C599 H600 0.959 . S
C599 H601 0.960 . S
C599 H602 0.961 . S
H600 C599 0.959 . S
H601 C599 0.960 . S
H602 C599 0.961 . S
O603 Co578 1.967 . S
O603 C611 1.258 . S
O604 Co579 1.941 . S
O604 C611 1.266 . S
H605 C607 0.959 . S
H606 C607 0.961 . S
C607 C597 1.510 . S
C607 H605 0.959 . S
C607 H606 0.961 . S
C607 H608 0.960 . S
H608 C607 0.960 . S
H609 N589 0.862 . S
O610 Co578 1.920 . S
O610 C583 1.289 . S
C611 O603 1.258 . S
C611 O604 1.266 . S
Co612 O615 1.970 . S
Co612 N629 1.989 . S
Co612 O637 1.967 . S
Co612 O644 1.920 . S
Co613 O616 1.966 . S
Co613 N622 2.022 . S
Co613 N630 1.993 . S
Co613 O638 1.941 . S
C614 O615 1.258 . S
C614 O616 1.263 . S
O615 Co612 1.970 . S
O615 C614 1.258 . S
O616 Co613 1.966 . S
O616 C614 1.263 . S
C617 O618 1.235 . S
C617 O644 1.289 . S
O618 C617 1.235 . S
C619 C621 1.400 . S
C619 N622 1.351 . S
C619 C624 1.501 . S
C620 C621 1.387 . S
C620 N623 1.341 . S
C621 C619 1.400 . S
C621 C620 1.387 . S
N622 Co613 2.022 . S
N622 C619 1.351 . S
N622 N623 1.365 . S
N623 C620 1.341 . S
N623 N622 1.365 . S
N623 H643 0.862 . S
C624 C619 1.501 . S
C624 H625 0.961 . S
C624 H626 0.961 . S
C624 H627 0.960 . S
H625 C624 0.961 . S
H626 C624 0.961 . S
H627 C624 0.960 . S
C628 N629 1.342 . S
C628 C632 1.401 . S
C628 C633 1.499 . S
N629 Co612 1.989 . S
N629 C628 1.342 . S
N629 N630 1.388 . S
N630 Co613 1.993 . S
N630 N629 1.388 . S
N630 C631 1.346 . S
C631 N630 1.346 . S
C631 C632 1.396 . S
C631 C641 1.510 . S
C632 C628 1.401 . S
C632 C631 1.396 . S
C633 C628 1.499 . S
C633 H634 0.959 . S
C633 H635 0.960 . S
C633 H636 0.961 . S
H634 C633 0.959 . S
H635 C633 0.960 . S
H636 C633 0.961 . S
O637 Co612 1.967 . S
O637 C645 1.258 . S
O638 Co613 1.941 . S
O638 C645 1.266 . S
H639 C641 0.959 . S
H640 C641 0.961 . S
C641 C631 1.510 . S
C641 H639 0.959 . S
C641 H640 0.961 . S
C641 H642 0.960 . S
H642 C641 0.960 . S
H643 N623 0.862 . S
O644 Co612 1.920 . S
O644 C617 1.289 . S
C645 O637 1.258 . S
C645 O638 1.266 . S
Co646 O649 1.970 . S
Co646 N663 1.989 . S
Co646 O671 1.967 . S
Co646 O678 1.920 . S
Co647 O650 1.966 . S
Co647 N656 2.022 . S
Co647 N664 1.993 . S
Co647 O672 1.941 . S
C648 O649 1.258 . S
C648 O650 1.263 . S
O649 Co646 1.970 . S
O649 C648 1.258 . S
O650 Co647 1.966 . S
O650 C648 1.263 . S
C651 O652 1.235 . S
C651 O678 1.289 . S
O652 C651 1.235 . S
C653 C655 1.400 . S
C653 N656 1.351 . S
C653 C658 1.501 . S
C654 C655 1.387 . S
C654 N657 1.341 . S
C655 C653 1.400 . S
C655 C654 1.387 . S
N656 Co647 2.022 . S
N656 C653 1.351 . S
N656 N657 1.365 . S
N657 C654 1.341 . S
N657 N656 1.365 . S
N657 H677 0.862 . S
C658 C653 1.501 . S
C658 H659 0.961 . S
C658 H660 0.961 . S
C658 H661 0.960 . S
H659 C658 0.961 . S
H660 C658 0.961 . S
H661 C658 0.960 . S
C662 N663 1.342 . S
C662 C666 1.401 . S
C662 C667 1.499 . S
N663 Co646 1.989 . S
N663 C662 1.342 . S
N663 N664 1.388 . S
N664 Co647 1.993 . S
N664 N663 1.388 . S
N664 C665 1.346 . S
C665 N664 1.346 . S
C665 C666 1.396 . S
C665 C675 1.510 . S
C666 C662 1.401 . S
C666 C665 1.396 . S
C667 C662 1.499 . S
C667 H668 0.959 . S
C667 H669 0.960 . S
C667 H670 0.961 . S
H668 C667 0.959 . S
H669 C667 0.960 . S
H670 C667 0.961 . S
O671 Co646 1.967 . S
O671 C679 1.258 . S
O672 Co647 1.941 . S
O672 C679 1.266 . S
H673 C675 0.959 . S
H674 C675 0.961 . S
C675 C665 1.510 . S
C675 H673 0.959 . S
C675 H674 0.961 . S
C675 H676 0.960 . S
H676 C675 0.960 . S
H677 N657 0.862 . S
O678 Co646 1.920 . S
O678 C651 1.289 . S
C679 O671 1.258 . S
C679 O672 1.266 . S
Co680 O683 1.970 . S
Co680 N697 1.989 . S
Co680 O705 1.967 . S
Co680 O712 1.920 . S
Co681 O684 1.966 . S
Co681 N690 2.022 . S
Co681 N698 1.993 . S
Co681 O706 1.941 . S
C682 O683 1.258 . S
C682 O684 1.263 . S
O683 Co680 1.970 . S
O683 C682 1.258 . S
O684 Co681 1.966 . S
O684 C682 1.263 . S
C685 O686 1.235 . S
C685 O712 1.289 . S
O686 C685 1.235 . S
C687 C689 1.400 . S
C687 N690 1.351 . S
C687 C692 1.501 . S
C688 C689 1.387 . S
C688 N691 1.341 . S
C689 C687 1.400 . S
C689 C688 1.387 . S
N690 Co681 2.022 . S
N690 C687 1.351 . S
N690 N691 1.365 . S
N691 C688 1.341 . S
N691 N690 1.365 . S
N691 H711 0.862 . S
C692 C687 1.501 . S
C692 H693 0.961 . S
C692 H694 0.961 . S
C692 H695 0.960 . S
H693 C692 0.961 . S
H694 C692 0.961 . S
H695 C692 0.960 . S
C696 N697 1.342 . S
C696 C700 1.401 . S
C696 C701 1.499 . S
N697 Co680 1.989 . S
N697 C696 1.342 . S
N697 N698 1.388 . S
N698 Co681 1.993 . S
N698 N697 1.388 . S
N698 C699 1.346 . S
C699 N698 1.346 . S
C699 C700 1.396 . S
C699 C709 1.510 . S
C700 C696 1.401 . S
C700 C699 1.396 . S
C701 C696 1.499 . S
C701 H702 0.959 . S
C701 H703 0.960 . S
C701 H704 0.961 . S
H702 C701 0.959 . S
H703 C701 0.960 . S
H704 C701 0.961 . S
O705 Co680 1.967 . S
O705 C713 1.258 . S
O706 Co681 1.941 . S
O706 C713 1.266 . S
H707 C709 0.959 . S
H708 C709 0.961 . S
C709 C699 1.510 . S
C709 H707 0.959 . S
C709 H708 0.961 . S
C709 H710 0.960 . S
H710 C709 0.960 . S
H711 N691 0.862 . S
O712 Co680 1.920 . S
O712 C685 1.289 . S
C713 O705 1.258 . S
C713 O706 1.266 . S
Co714 O717 1.970 . S
Co714 N731 1.989 . S
Co714 O739 1.967 . S
Co714 O746 1.920 . S
Co715 O718 1.966 . S
Co715 N724 2.022 . S
Co715 N732 1.993 . S
Co715 O740 1.941 . S
C716 O717 1.258 . S
C716 O718 1.263 . S
O717 Co714 1.970 . S
O717 C716 1.258 . S
O718 Co715 1.966 . S
O718 C716 1.263 . S
C719 O720 1.235 . S
C719 O746 1.289 . S
O720 C719 1.235 . S
C721 C723 1.400 . S
C721 N724 1.351 . S
C721 C726 1.501 . S
C722 C723 1.387 . S
C722 N725 1.341 . S
C723 C721 1.400 . S
C723 C722 1.387 . S
N724 Co715 2.022 . S
N724 C721 1.351 . S
N724 N725 1.365 . S
N725 C722 1.341 . S
N725 N724 1.365 . S
N725 H745 0.862 . S
C726 C721 1.501 . S
C726 H727 0.961 . S
C726 H728 0.961 . S
C726 H729 0.960 . S
H727 C726 0.961 . S
H728 C726 0.961 . S
H729 C726 0.960 . S
C730 N731 1.342 . S
C730 C734 1.401 . S
C730 C735 1.499 . S
N731 Co714 1.989 . S
N731 C730 1.342 . S
N731 N732 1.388 . S
N732 Co715 1.993 . S
N732 N731 1.388 . S
N732 C733 1.346 . S
C733 N732 1.346 . S
C733 C734 1.396 . S
C733 C743 1.510 . S
C734 C730 1.401 . S
C734 C733 1.396 . S
C735 C730 1.499 . S
C735 H736 0.959 . S
C735 H737 0.960 . S
C735 H738 0.961 . S
H736 C735 0.959 . S
H737 C735 0.960 . S
H738 C735 0.961 . S
O739 Co714 1.967 . S
O739 C747 1.258 . S
O740 Co715 1.941 . S
O740 C747 1.266 . S
H741 C743 0.959 . S
H742 C743 0.961 . S
C743 C733 1.510 . S
C743 H741 0.959 . S
C743 H742 0.961 . S
C743 H744 0.960 . S
H744 C743 0.960 . S
H745 N725 0.862 . S
O746 Co714 1.920 . S
O746 C719 1.289 . S
C747 O739 1.258 . S
C747 O740 1.266 . S
Co748 O751 1.970 . S
Co748 N765 1.989 . S
Co748 O773 1.967 . S
Co748 O780 1.920 . S
Co749 O752 1.966 . S
Co749 N758 2.022 . S
Co749 N766 1.993 . S
Co749 O774 1.941 . S
C750 O751 1.258 . S
C750 O752 1.263 . S
O751 Co748 1.970 . S
O751 C750 1.258 . S
O752 Co749 1.966 . S
O752 C750 1.263 . S
C753 O754 1.235 . S
C753 O780 1.289 . S
O754 C753 1.235 . S
C755 C757 1.400 . S
C755 N758 1.351 . S
C755 C760 1.501 . S
C756 C757 1.387 . S
C756 N759 1.341 . S
C757 C755 1.400 . S
C757 C756 1.387 . S
N758 Co749 2.022 . S
N758 C755 1.351 . S
N758 N759 1.365 . S
N759 C756 1.341 . S
N759 N758 1.365 . S
N759 H779 0.862 . S
C760 C755 1.501 . S
C760 H761 0.961 . S
C760 H762 0.961 . S
C760 H763 0.960 . S
H761 C760 0.961 . S
H762 C760 0.961 . S
H763 C760 0.960 . S
C764 N765 1.342 . S
C764 C768 1.401 . S
C764 C769 1.499 . S
N765 Co748 1.989 . S
N765 C764 1.342 . S
N765 N766 1.388 . S
N766 Co749 1.993 . S
N766 N765 1.388 . S
N766 C767 1.346 . S
C767 N766 1.346 . S
C767 C768 1.396 . S
C767 C777 1.510 . S
C768 C764 1.401 . S
C768 C767 1.396 . S
C769 C764 1.499 . S
C769 H770 0.959 . S
C769 H771 0.960 . S
C769 H772 0.961 . S
H770 C769 0.959 . S
H771 C769 0.960 . S
H772 C769 0.961 . S
O773 Co748 1.967 . S
O773 C781 1.258 . S
O774 Co749 1.941 . S
O774 C781 1.266 . S
H775 C777 0.959 . S
H776 C777 0.961 . S
C777 C767 1.510 . S
C777 H775 0.959 . S
C777 H776 0.961 . S
C777 H778 0.960 . S
H778 C777 0.960 . S
H779 N759 0.862 . S
O780 Co748 1.920 . S
O780 C753 1.289 . S
C781 O773 1.258 . S
C781 O774 1.266 . S
Co782 O785 1.970 . S
Co782 N799 1.989 . S
Co782 O807 1.967 . S
Co782 O814 1.920 . S
Co783 O786 1.966 . S
Co783 N792 2.022 . S
Co783 N800 1.993 . S
Co783 O808 1.941 . S
C784 O785 1.258 . S
C784 O786 1.263 . S
O785 Co782 1.970 . S
O785 C784 1.258 . S
O786 Co783 1.966 . S
O786 C784 1.263 . S
C787 O788 1.235 . S
C787 O814 1.289 . S
O788 C787 1.235 . S
C789 C791 1.400 . S
C789 N792 1.351 . S
C789 C794 1.501 . S
C790 C791 1.387 . S
C790 N793 1.341 . S
C791 C789 1.400 . S
C791 C790 1.387 . S
N792 Co783 2.022 . S
N792 C789 1.351 . S
N792 N793 1.365 . S
N793 C790 1.341 . S
N793 N792 1.365 . S
N793 H813 0.862 . S
C794 C789 1.501 . S
C794 H795 0.961 . S
C794 H796 0.961 . S
C794 H797 0.960 . S
H795 C794 0.961 . S
H796 C794 0.961 . S
H797 C794 0.960 . S
C798 N799 1.342 . S
C798 C802 1.401 . S
C798 C803 1.499 . S
N799 Co782 1.989 . S
N799 C798 1.342 . S
N799 N800 1.388 . S
N800 Co783 1.993 . S
N800 N799 1.388 . S
N800 C801 1.346 . S
C801 N800 1.346 . S
C801 C802 1.396 . S
C801 C811 1.510 . S
C802 C798 1.401 . S
C802 C801 1.396 . S
C803 C798 1.499 . S
C803 H804 0.959 . S
C803 H805 0.960 . S
C803 H806 0.961 . S
H804 C803 0.959 . S
H805 C803 0.960 . S
H806 C803 0.961 . S
O807 Co782 1.967 . S
O807 C815 1.258 . S
O808 Co783 1.941 . S
O808 C815 1.266 . S
H809 C811 0.959 . S
H810 C811 0.961 . S
C811 C801 1.510 . S
C811 H809 0.959 . S
C811 H810 0.961 . S
C811 H812 0.960 . S
H812 C811 0.960 . S
H813 N793 0.862 . S
O814 Co782 1.920 . S
O814 C787 1.289 . S
C815 O807 1.258 . S
C815 O808 1.266 . S
Co816 O819 1.970 . S
Co816 N833 1.989 . S
Co816 O841 1.967 . S
Co816 O848 1.920 . S
Co817 O820 1.966 . S
Co817 N826 2.022 . S
Co817 N834 1.993 . S
Co817 O842 1.941 . S
C818 O819 1.258 . S
C818 O820 1.263 . S
O819 Co816 1.970 . S
O819 C818 1.258 . S
O820 Co817 1.966 . S
O820 C818 1.263 . S
C821 O822 1.235 . S
C821 O848 1.289 . S
O822 C821 1.235 . S
C823 C825 1.400 . S
C823 N826 1.351 . S
C823 C828 1.501 . S
C824 C825 1.387 . S
C824 N827 1.341 . S
C825 C823 1.400 . S
C825 C824 1.387 . S
N826 Co817 2.022 . S
N826 C823 1.351 . S
N826 N827 1.365 . S
N827 C824 1.341 . S
N827 N826 1.365 . S
N827 H847 0.862 . S
C828 C823 1.501 . S
C828 H829 0.961 . S
C828 H830 0.961 . S
C828 H831 0.960 . S
H829 C828 0.961 . S
H830 C828 0.961 . S
H831 C828 0.960 . S
C832 N833 1.342 . S
C832 C836 1.401 . S
C832 C837 1.499 . S
N833 Co816 1.989 . S
N833 C832 1.342 . S
N833 N834 1.388 . S
N834 Co817 1.993 . S
N834 N833 1.388 . S
N834 C835 1.346 . S
C835 N834 1.346 . S
C835 C836 1.396 . S
C835 C845 1.510 . S
C836 C832 1.401 . S
C836 C835 1.396 . S
C837 C832 1.499 . S
C837 H838 0.959 . S
C837 H839 0.960 . S
C837 H840 0.961 . S
H838 C837 0.959 . S
H839 C837 0.960 . S
H840 C837 0.961 . S
O841 Co816 1.967 . S
O841 C849 1.258 . S
O842 Co817 1.941 . S
O842 C849 1.266 . S
H843 C845 0.959 . S
H844 C845 0.961 . S
C845 C835 1.510 . S
C845 H843 0.959 . S
C845 H844 0.961 . S
C845 H846 0.960 . S
H846 C845 0.960 . S
H847 N827 0.862 . S
O848 Co816 1.920 . S
O848 C821 1.289 . S
C849 O841 1.258 . S
C849 O842 1.266 . S
Co850 O853 1.970 . S
Co850 N867 1.989 . S
Co850 O875 1.967 . S
Co850 O882 1.920 . S
Co851 O854 1.966 . S
Co851 N860 2.022 . S
Co851 N868 1.993 . S
Co851 O876 1.941 . S
C852 O853 1.258 . S
C852 O854 1.263 . S
O853 Co850 1.970 . S
O853 C852 1.258 . S
O854 Co851 1.966 . S
O854 C852 1.263 . S
C855 O856 1.235 . S
C855 O882 1.289 . S
O856 C855 1.235 . S
C857 C859 1.400 . S
C857 N860 1.351 . S
C857 C862 1.501 . S
C858 C859 1.387 . S
C858 N861 1.341 . S
C859 C857 1.400 . S
C859 C858 1.387 . S
N860 Co851 2.022 . S
N860 C857 1.351 . S
N860 N861 1.365 . S
N861 C858 1.341 . S
N861 N860 1.365 . S
N861 H881 0.862 . S
C862 C857 1.501 . S
C862 H863 0.961 . S
C862 H864 0.961 . S
C862 H865 0.960 . S
H863 C862 0.961 . S
H864 C862 0.961 . S
H865 C862 0.960 . S
C866 N867 1.342 . S
C866 C870 1.401 . S
C866 C871 1.499 . S
N867 Co850 1.989 . S
N867 C866 1.342 . S
N867 N868 1.388 . S
N868 Co851 1.993 . S
N868 N867 1.388 . S
N868 C869 1.346 . S
C869 N868 1.346 . S
C869 C870 1.396 . S
C869 C879 1.510 . S
C870 C866 1.401 . S
C870 C869 1.396 . S
C871 C866 1.499 . S
C871 H872 0.959 . S
C871 H873 0.960 . S
C871 H874 0.961 . S
H872 C871 0.959 . S
H873 C871 0.960 . S
H874 C871 0.961 . S
O875 Co850 1.967 . S
O875 C883 1.258 . S
O876 Co851 1.941 . S
O876 C883 1.266 . S
H877 C879 0.959 . S
H878 C879 0.961 . S
C879 C869 1.510 . S
C879 H877 0.959 . S
C879 H878 0.961 . S
C879 H880 0.960 . S
H880 C879 0.960 . S
H881 N861 0.862 . S
O882 Co850 1.920 . S
O882 C855 1.289 . S
C883 O875 1.258 . S
C883 O876 1.266 . S
Co884 O887 1.970 . S
Co884 N901 1.989 . S
Co884 O909 1.967 . S
Co884 O916 1.920 . S
Co885 O888 1.966 . S
Co885 N894 2.022 . S
Co885 N902 1.993 . S
Co885 O910 1.941 . S
C886 O887 1.258 . S
C886 O888 1.263 . S
O887 Co884 1.970 . S
O887 C886 1.258 . S
O888 Co885 1.966 . S
O888 C886 1.263 . S
C889 O890 1.235 . S
C889 O916 1.289 . S
O890 C889 1.235 . S
C891 C893 1.400 . S
C891 N894 1.351 . S
C891 C896 1.501 . S
C892 C893 1.387 . S
C892 N895 1.341 . S
C893 C891 1.400 . S
C893 C892 1.387 . S
N894 Co885 2.022 . S
N894 C891 1.351 . S
N894 N895 1.365 . S
N895 C892 1.341 . S
N895 N894 1.365 . S
N895 H915 0.862 . S
C896 C891 1.501 . S
C896 H897 0.961 . S
C896 H898 0.961 . S
C896 H899 0.960 . S
H897 C896 0.961 . S
H898 C896 0.961 . S
H899 C896 0.960 . S
C900 N901 1.342 . S
C900 C904 1.401 . S
C900 C905 1.499 . S
N901 Co884 1.989 . S
N901 C900 1.342 . S
N901 N902 1.388 . S
N902 Co885 1.993 . S
N902 N901 1.388 . S
N902 C903 1.346 . S
C903 N902 1.346 . S
C903 C904 1.396 . S
C903 C913 1.510 . S
C904 C900 1.401 . S
C904 C903 1.396 . S
C905 C900 1.499 . S
C905 H906 0.959 . S
C905 H907 0.960 . S
C905 H908 0.961 . S
H906 C905 0.959 . S
H907 C905 0.960 . S
H908 C905 0.961 . S
O909 Co884 1.967 . S
O909 C917 1.258 . S
O910 Co885 1.941 . S
O910 C917 1.266 . S
H911 C913 0.959 . S
H912 C913 0.961 . S
C913 C903 1.510 . S
C913 H911 0.959 . S
C913 H912 0.961 . S
C913 H914 0.960 . S
H914 C913 0.960 . S
H915 N895 0.862 . S
O916 Co884 1.920 . S
O916 C889 1.289 . S
C917 O909 1.258 . S
C917 O910 1.266 . S
Co918 O921 1.970 . S
Co918 N935 1.989 . S
Co918 O943 1.967 . S
Co918 O950 1.920 . S
Co919 O922 1.966 . S
Co919 N928 2.022 . S
Co919 N936 1.993 . S
Co919 O944 1.941 . S
C920 O921 1.258 . S
C920 O922 1.263 . S
O921 Co918 1.970 . S
O921 C920 1.258 . S
O922 Co919 1.966 . S
O922 C920 1.263 . S
C923 O924 1.235 . S
C923 O950 1.289 . S
O924 C923 1.235 . S
C925 C927 1.400 . S
C925 N928 1.351 . S
C925 C930 1.501 . S
C926 C927 1.387 . S
C926 N929 1.341 . S
C927 C925 1.400 . S
C927 C926 1.387 . S
N928 Co919 2.022 . S
N928 C925 1.351 . S
N928 N929 1.365 . S
N929 C926 1.341 . S
N929 N928 1.365 . S
N929 H949 0.862 . S
C930 C925 1.501 . S
C930 H931 0.961 . S
C930 H932 0.961 . S
C930 H933 0.960 . S
H931 C930 0.961 . S
H932 C930 0.961 . S
H933 C930 0.960 . S
C934 N935 1.342 . S
C934 C938 1.401 . S
C934 C939 1.499 . S
N935 Co918 1.989 . S
N935 C934 1.342 . S
N935 N936 1.388 . S
N936 Co919 1.993 . S
N936 N935 1.388 . S
N936 C937 1.346 . S
C937 N936 1.346 . S
C937 C938 1.396 . S
C937 C947 1.510 . S
C938 C934 1.401 . S
C938 C937 1.396 . S
C939 C934 1.499 . S
C939 H940 0.959 . S
C939 H941 0.960 . S
C939 H942 0.961 . S
H940 C939 0.959 . S
H941 C939 0.960 . S
H942 C939 0.961 . S
O943 Co918 1.967 . S
O943 C951 1.258 . S
O944 Co919 1.941 . S
O944 C951 1.266 . S
H945 C947 0.959 . S
H946 C947 0.961 . S
C947 C937 1.510 . S
C947 H945 0.959 . S
C947 H946 0.961 . S
C947 H948 0.960 . S
H948 C947 0.960 . S
H949 N929 0.862 . S
O950 Co918 1.920 . S
O950 C923 1.289 . S
C951 O943 1.258 . S
C951 O944 1.266 . S
Co952 O955 1.970 . S
Co952 N969 1.989 . S
Co952 O977 1.967 . S
Co952 O984 1.920 . S
Co953 O956 1.966 . S
Co953 N962 2.022 . S
Co953 N970 1.993 . S
Co953 O978 1.941 . S
C954 O955 1.258 . S
C954 O956 1.263 . S
O955 Co952 1.970 . S
O955 C954 1.258 . S
O956 Co953 1.966 . S
O956 C954 1.263 . S
C957 O958 1.235 . S
C957 O984 1.289 . S
O958 C957 1.235 . S
C959 C961 1.400 . S
C959 N962 1.351 . S
C959 C964 1.501 . S
C960 C961 1.387 . S
C960 N963 1.341 . S
C961 C959 1.400 . S
C961 C960 1.387 . S
N962 Co953 2.022 . S
N962 C959 1.351 . S
N962 N963 1.365 . S
N963 C960 1.341 . S
N963 N962 1.365 . S
N963 H983 0.862 . S
C964 C959 1.501 . S
C964 H965 0.961 . S
C964 H966 0.961 . S
C964 H967 0.960 . S
H965 C964 0.961 . S
H966 C964 0.961 . S
H967 C964 0.960 . S
C968 N969 1.342 . S
C968 C972 1.401 . S
C968 C973 1.499 . S
N969 Co952 1.989 . S
N969 C968 1.342 . S
N969 N970 1.388 . S
N970 Co953 1.993 . S
N970 N969 1.388 . S
N970 C971 1.346 . S
C971 N970 1.346 . S
C971 C972 1.396 . S
C971 C981 1.510 . S
C972 C968 1.401 . S
C972 C971 1.396 . S
C973 C968 1.499 . S
C973 H974 0.959 . S
C973 H975 0.960 . S
C973 H976 0.961 . S
H974 C973 0.959 . S
H975 C973 0.960 . S
H976 C973 0.961 . S
O977 Co952 1.967 . S
O977 C985 1.258 . S
O978 Co953 1.941 . S
O978 C985 1.266 . S
H979 C981 0.959 . S
H980 C981 0.961 . S
C981 C971 1.510 . S
C981 H979 0.959 . S
C981 H980 0.961 . S
C981 H982 0.960 . S
H982 C981 0.960 . S
H983 N963 0.862 . S
O984 Co952 1.920 . S
O984 C957 1.289 . S
C985 O977 1.258 . S
C985 O978 1.266 . S
Co986 O989 1.970 . S
Co986 N1003 1.989 . S
Co986 O1011 1.967 . S
Co986 O1018 1.920 . S
Co987 O990 1.966 . S
Co987 N996 2.022 . S
Co987 N1004 1.993 . S
Co987 O1012 1.941 . S
C988 O989 1.258 . S
C988 O990 1.263 . S
O989 Co986 1.970 . S
O989 C988 1.258 . S
O990 Co987 1.966 . S
O990 C988 1.263 . S
C991 O992 1.235 . S
C991 O1018 1.289 . S
O992 C991 1.235 . S
C993 C995 1.400 . S
C993 N996 1.351 . S
C993 C998 1.501 . S
C994 C995 1.387 . S
C994 N997 1.341 . S
C995 C993 1.400 . S
C995 C994 1.387 . S
N996 Co987 2.022 . S
N996 C993 1.351 . S
N996 N997 1.365 . S
N997 C994 1.341 . S
N997 N996 1.365 . S
N997 H1017 0.862 . S
C998 C993 1.501 . S
C998 H999 0.961 . S
C998 H1000 0.961 . S
C998 H1001 0.960 . S
H999 C998 0.961 . S
H1000 C998 0.961 . S
H1001 C998 0.960 . S
C1002 N1003 1.342 . S
C1002 C1006 1.401 . S
C1002 C1007 1.499 . S
N1003 Co986 1.989 . S
N1003 C1002 1.342 . S
N1003 N1004 1.388 . S
N1004 Co987 1.993 . S
N1004 N1003 1.388 . S
N1004 C1005 1.346 . S
C1005 N1004 1.346 . S
C1005 C1006 1.396 . S
C1005 C1015 1.510 . S
C1006 C1002 1.401 . S
C1006 C1005 1.396 . S
C1007 C1002 1.499 . S
C1007 H1008 0.959 . S
C1007 H1009 0.960 . S
C1007 H1010 0.961 . S
H1008 C1007 0.959 . S
H1009 C1007 0.960 . S
H1010 C1007 0.961 . S
O1011 Co986 1.967 . S
O1011 C1019 1.258 . S
O1012 Co987 1.941 . S
O1012 C1019 1.266 . S
H1013 C1015 0.959 . S
H1014 C1015 0.961 . S
C1015 C1005 1.510 . S
C1015 H1013 0.959 . S
C1015 H1014 0.961 . S
C1015 H1016 0.960 . S
H1016 C1015 0.960 . S
H1017 N997 0.862 . S
O1018 Co986 1.920 . S
O1018 C991 1.289 . S
C1019 O1011 1.258 . S
C1019 O1012 1.266 . S
Co1020 O1023 1.970 . S
Co1020 N1037 1.989 . S
Co1020 O1045 1.967 . S
Co1020 O1052 1.920 . S
Co1021 O1024 1.966 . S
Co1021 N1030 2.022 . S
Co1021 N1038 1.993 . S
Co1021 O1046 1.941 . S
C1022 O1023 1.258 . S
C1022 O1024 1.263 . S
O1023 Co1020 1.970 . S
O1023 C1022 1.258 . S
O1024 Co1021 1.966 . S
O1024 C1022 1.263 . S
C1025 O1026 1.235 . S
C1025 O1052 1.289 . S
O1026 C1025 1.235 . S
C1027 C1029 1.400 . S
C1027 N1030 1.351 . S
C1027 C1032 1.501 . S
C1028 C1029 1.387 . S
C1028 N1031 1.341 . S
C1029 C1027 1.400 . S
C1029 C1028 1.387 . S
N1030 Co1021 2.022 . S
N1030 C1027 1.351 . S
N1030 N1031 1.365 . S
N1031 C1028 1.341 . S
N1031 N1030 1.365 . S
N1031 H1051 0.862 . S
C1032 C1027 1.501 . S
C1032 H1033 0.961 . S
C1032 H1034 0.961 . S
C1032 H1035 0.960 . S
H1033 C1032 0.961 . S
H1034 C1032 0.961 . S
H1035 C1032 0.960 . S
C1036 N1037 1.342 . S
C1036 C1040 1.401 . S
C1036 C1041 1.499 . S
N1037 Co1020 1.989 . S
N1037 C1036 1.342 . S
N1037 N1038 1.388 . S
N1038 Co1021 1.993 . S
N1038 N1037 1.388 . S
N1038 C1039 1.346 . S
C1039 N1038 1.346 . S
C1039 C1040 1.396 . S
C1039 C1049 1.510 . S
C1040 C1036 1.401 . S
C1040 C1039 1.396 . S
C1041 C1036 1.499 . S
C1041 H1042 0.959 . S
C1041 H1043 0.960 . S
C1041 H1044 0.961 . S
H1042 C1041 0.959 . S
H1043 C1041 0.960 . S
H1044 C1041 0.961 . S
O1045 Co1020 1.967 . S
O1045 C1053 1.258 . S
O1046 Co1021 1.941 . S
O1046 C1053 1.266 . S
H1047 C1049 0.959 . S
H1048 C1049 0.961 . S
C1049 C1039 1.510 . S
C1049 H1047 0.959 . S
C1049 H1048 0.961 . S
C1049 H1050 0.960 . S
H1050 C1049 0.960 . S
H1051 N1031 0.862 . S
O1052 Co1020 1.920 . S
O1052 C1025 1.289 . S
C1053 O1045 1.258 . S
C1053 O1046 1.266 . S
Co1054 O1057 1.970 . S
Co1054 N1071 1.989 . S
Co1054 O1079 1.967 . S
Co1054 O1086 1.920 . S
Co1055 O1058 1.966 . S
Co1055 N1064 2.022 . S
Co1055 N1072 1.993 . S
Co1055 O1080 1.941 . S
C1056 O1057 1.258 . S
C1056 O1058 1.263 . S
O1057 Co1054 1.970 . S
O1057 C1056 1.258 . S
O1058 Co1055 1.966 . S
O1058 C1056 1.263 . S
C1059 O1060 1.235 . S
C1059 O1086 1.289 . S
O1060 C1059 1.235 . S
C1061 C1063 1.400 . S
C1061 N1064 1.351 . S
C1061 C1066 1.501 . S
C1062 C1063 1.387 . S
C1062 N1065 1.341 . S
C1063 C1061 1.400 . S
C1063 C1062 1.387 . S
N1064 Co1055 2.022 . S
N1064 C1061 1.351 . S
N1064 N1065 1.365 . S
N1065 C1062 1.341 . S
N1065 N1064 1.365 . S
N1065 H1085 0.862 . S
C1066 C1061 1.501 . S
C1066 H1067 0.961 . S
C1066 H1068 0.961 . S
C1066 H1069 0.960 . S
H1067 C1066 0.961 . S
H1068 C1066 0.961 . S
H1069 C1066 0.960 . S
C1070 N1071 1.342 . S
C1070 C1074 1.401 . S
C1070 C1075 1.499 . S
N1071 Co1054 1.989 . S
N1071 C1070 1.342 . S
N1071 N1072 1.388 . S
N1072 Co1055 1.993 . S
N1072 N1071 1.388 . S
N1072 C1073 1.346 . S
C1073 N1072 1.346 . S
C1073 C1074 1.396 . S
C1073 C1083 1.510 . S
C1074 C1070 1.401 . S
C1074 C1073 1.396 . S
C1075 C1070 1.499 . S
C1075 H1076 0.959 . S
C1075 H1077 0.960 . S
C1075 H1078 0.961 . S
H1076 C1075 0.959 . S
H1077 C1075 0.960 . S
H1078 C1075 0.961 . S
O1079 Co1054 1.967 . S
O1079 C1087 1.258 . S
O1080 Co1055 1.941 . S
O1080 C1087 1.266 . S
H1081 C1083 0.959 . S
H1082 C1083 0.961 . S
C1083 C1073 1.510 . S
C1083 H1081 0.959 . S
C1083 H1082 0.961 . S
C1083 H1084 0.960 . S
H1084 C1083 0.960 . S
H1085 N1065 0.862 . S
O1086 Co1054 1.920 . S
O1086 C1059 1.289 . S
C1087 O1079 1.258 . S
C1087 O1080 1.266 . S
H1088 C1100 0.930 . S
H1089 C1102 0.930 . S
H1090 C1103 0.930 . S
H1091 C1107 0.959 . S
H1092 C1107 0.959 . S
H1093 C1107 0.961 . S
H1094 C1108 0.960 . S
H1095 C1108 0.961 . S
H1096 C1108 0.959 . S
H1097 C1111 0.929 . S
H1098 C1112 0.931 . S
H1099 C1114 0.930 . S
C1100 H1088 0.930 . S
C1100 C1101 1.399 . S
C1100 C1105 1.399 . S
C1101 C1100 1.399 . S
C1101 C1102 1.376 . S
C1102 H1089 0.930 . S
C1102 C1101 1.376 . S
C1102 C1103 1.388 . S
C1103 H1090 0.930 . S
C1103 C1102 1.388 . S
C1103 C1104 1.390 . S
C1104 C1103 1.390 . S
C1104 C1105 1.394 . S
C1104 C1110 1.465 . S
C1105 C1100 1.399 . S
C1105 C1104 1.394 . S
C1105 C1106 1.516 . S
C1106 C1105 1.516 . S
C1106 C1107 1.502 . S
C1106 C1108 1.561 . S
C1106 C1109 1.526 . S
C1107 H1091 0.959 . S
C1107 H1092 0.959 . S
C1107 H1093 0.961 . S
C1107 C1106 1.502 . S
C1108 H1094 0.960 . S
C1108 H1095 0.961 . S
C1108 H1096 0.959 . S
C1108 C1106 1.561 . S
C1109 C1106 1.526 . S
C1109 C1110 1.396 . S
C1109 C1114 1.390 . S
C1110 C1104 1.465 . S
C1110 C1109 1.396 . S
C1110 C1111 1.399 . S
C1111 H1097 0.929 . S
C1111 C1110 1.399 . S
C1111 C1112 1.385 . S
C1112 H1098 0.931 . S
C1112 C1111 1.385 . S
C1112 C1113 1.389 . S
C1113 C1112 1.389 . S
C1113 C1114 1.387 . S
C1114 H1099 0.930 . S
C1114 C1109 1.390 . S
C1114 C1113 1.387 . S
H1115 C1127 0.930 . S
H1116 C1129 0.930 . S
H1117 C1130 0.930 1_655 S
H1118 C1134 0.959 . S
H1119 C1134 0.959 . S
H1120 C1134 0.961 . S
H1121 C1135 0.960 . S
H1122 C1135 0.961 . S
H1123 C1135 0.959 . S
H1124 C1138 0.929 . S
H1125 C1139 0.931 . S
H1126 C1141 0.930 . S
C1127 H1115 0.930 . S
C1127 C1128 1.399 . S
C1127 C1132 1.399 . S
C1128 C1127 1.399 . S
C1128 C1129 1.376 . S
C1129 H1116 0.930 . S
C1129 C1128 1.376 . S
C1129 C1130 1.388 . S
C1130 H1117 0.930 1_455 S
C1130 C1129 1.388 . S
C1130 C1131 1.396 . S
C1131 C1130 1.396 . S
C1131 C1132 1.409 . S
C1131 C1137 1.448 1_455 S
C1132 C1127 1.399 . S
C1132 C1131 1.409 . S
C1132 C1133 1.516 . S
C1133 C1132 1.516 . S
C1133 C1134 1.502 . S
C1133 C1135 1.561 1_455 S
C1133 C1136 1.526 1_455 S
C1134 H1118 0.959 . S
C1134 H1119 0.959 . S
C1134 H1120 0.961 . S
C1134 C1133 1.502 . S
C1135 H1121 0.960 . S
C1135 H1122 0.961 . S
C1135 H1123 0.959 . S
C1135 C1133 1.561 1_655 S
C1136 C1133 1.526 1_655 S
C1136 C1137 1.396 . S
C1136 C1141 1.390 . S
C1137 C1131 1.448 1_655 S
C1137 C1136 1.396 . S
C1137 C1138 1.399 . S
C1138 H1124 0.929 . S
C1138 C1137 1.399 . S
C1138 C1139 1.385 . S
C1139 H1125 0.931 . S
C1139 C1138 1.385 . S
C1139 C1140 1.389 . S
C1140 C1139 1.389 . S
C1140 C1141 1.387 . S
C1141 H1126 0.930 . S
C1141 C1136 1.390 . S
C1141 C1140 1.387 . S
H1142 C1154 0.930 . S
H1143 C1156 0.930 . S
H1144 C1157 0.930 . S
H1145 C1161 0.959 . S
H1146 C1161 0.959 . S
H1147 C1161 0.961 1_455 S
H1148 C1162 0.960 . S
H1149 C1162 0.961 1_655 S
H1150 C1162 0.959 . S
H1151 C1165 0.929 . S
H1152 C1166 0.931 . S
H1153 C1168 0.930 . S
C1154 H1142 0.930 . S
C1154 C1155 1.399 . S
C1154 C1159 1.399 . S
C1155 C1154 1.399 . S
C1155 C1156 1.376 . S
C1156 H1143 0.930 . S
C1156 C1155 1.376 . S
C1156 C1157 1.388 . S
C1157 H1144 0.930 . S
C1157 C1156 1.388 . S
C1157 C1158 1.390 . S
C1158 C1157 1.390 . S
C1158 C1159 1.394 . S
C1158 C1164 1.465 1_455 S
C1159 C1154 1.399 . S
C1159 C1158 1.394 . S
C1159 C1160 1.516 1_455 S
C1160 C1159 1.516 1_655 S
C1160 C1161 1.502 . S
C1160 C1162 1.561 1_655 S
C1160 C1163 1.526 . S
C1161 H1145 0.959 . S
C1161 H1146 0.959 . S
C1161 H1147 0.961 1_655 S
C1161 C1160 1.502 . S
C1162 H1148 0.960 . S
C1162 H1149 0.961 1_455 S
C1162 H1150 0.959 . S
C1162 C1160 1.561 1_455 S
C1163 C1160 1.526 . S
C1163 C1164 1.396 . S
C1163 C1168 1.390 . S
C1164 C1158 1.465 1_655 S
C1164 C1163 1.396 . S
C1164 C1165 1.399 . S
C1165 H1151 0.929 . S
C1165 C1164 1.399 . S
C1165 C1166 1.385 . S
C1166 H1152 0.931 . S
C1166 C1165 1.385 . S
C1166 C1167 1.389 . S
C1167 C1166 1.389 . S
C1167 C1168 1.387 . S
C1168 H1153 0.930 . S
C1168 C1163 1.390 . S
C1168 C1167 1.387 . S
H1169 C1181 0.930 . S
H1170 C1183 0.930 . S
H1171 C1184 0.930 . S
H1172 C1188 0.959 . S
H1173 C1188 0.959 . S
H1174 C1188 0.961 . S
H1175 C1189 0.960 . S
H1176 C1189 0.961 . S
H1177 C1189 0.959 . S
H1178 C1192 0.929 . S
H1179 C1193 0.931 . S
H1180 C1195 0.930 . S
C1181 H1169 0.930 . S
C1181 C1182 1.399 . S
C1181 C1186 1.399 . S
C1182 C1181 1.399 . S
C1182 C1183 1.376 . S
C1183 H1170 0.930 . S
C1183 C1182 1.376 . S
C1183 C1184 1.388 . S
C1184 H1171 0.930 . S
C1184 C1183 1.388 . S
C1184 C1185 1.390 . S
C1185 C1184 1.390 . S
C1185 C1186 1.394 . S
C1185 C1191 1.465 . S
C1186 C1181 1.399 . S
C1186 C1185 1.394 . S
C1186 C1187 1.516 . S
C1187 C1186 1.516 . S
C1187 C1188 1.502 . S
C1187 C1189 1.561 . S
C1187 C1190 1.526 . S
C1188 H1172 0.959 . S
C1188 H1173 0.959 . S
C1188 H1174 0.961 . S
C1188 C1187 1.502 . S
C1189 H1175 0.960 . S
C1189 H1176 0.961 . S
C1189 H1177 0.959 . S
C1189 C1187 1.561 . S
C1190 C1187 1.526 . S
C1190 C1191 1.396 . S
C1190 C1195 1.390 . S
C1191 C1185 1.465 . S
C1191 C1190 1.396 . S
C1191 C1192 1.399 . S
C1192 H1178 0.929 . S
C1192 C1191 1.399 . S
C1192 C1193 1.385 . S
C1193 H1179 0.931 . S
C1193 C1192 1.385 . S
C1193 C1194 1.389 . S
C1194 C1193 1.389 . S
C1194 C1195 1.387 . S
C1195 H1180 0.930 . S
C1195 C1190 1.390 . S
C1195 C1194 1.387 . S
H1196 C1208 0.930 . S
H1197 C1210 0.930 . S
H1198 C1211 0.930 . S
H1199 C1215 0.959 . S
H1200 C1215 0.959 . S
H1201 C1215 0.961 . S
H1202 C1216 0.960 . S
H1203 C1216 0.961 . S
H1204 C1216 0.959 . S
H1205 C1219 0.929 . S
H1206 C1220 0.931 . S
H1207 C1222 0.930 . S
C1208 H1196 0.930 . S
C1208 C1209 1.399 . S
C1208 C1213 1.399 . S
C1209 C1208 1.399 . S
C1209 C1210 1.376 . S
C1210 H1197 0.930 . S
C1210 C1209 1.376 . S
C1210 C1211 1.388 . S
C1211 H1198 0.930 . S
C1211 C1210 1.388 . S
C1211 C1212 1.390 . S
C1212 C1211 1.390 . S
C1212 C1213 1.394 . S
C1212 C1218 1.465 . S
C1213 C1208 1.399 . S
C1213 C1212 1.394 . S
C1213 C1214 1.516 . S
C1214 C1213 1.516 . S
C1214 C1215 1.502 . S
C1214 C1216 1.561 . S
C1214 C1217 1.526 . S
C1215 H1199 0.959 . S
C1215 H1200 0.959 . S
C1215 H1201 0.961 . S
C1215 C1214 1.502 . S
C1216 H1202 0.960 . S
C1216 H1203 0.961 . S
C1216 H1204 0.959 . S
C1216 C1214 1.561 . S
C1217 C1214 1.526 . S
C1217 C1218 1.396 . S
C1217 C1222 1.390 . S
C1218 C1212 1.465 . S
C1218 C1217 1.396 . S
C1218 C1219 1.399 . S
C1219 H1205 0.929 . S
C1219 C1218 1.399 . S
C1219 C1220 1.385 . S
C1220 H1206 0.931 . S
C1220 C1219 1.385 . S
C1220 C1221 1.389 . S
C1221 C1220 1.389 . S
C1221 C1222 1.387 . S
C1222 H1207 0.930 . S
C1222 C1217 1.390 . S
C1222 C1221 1.387 . S
H1223 C1235 0.930 . S
H1224 C1237 0.930 . S
H1225 C1238 0.930 . S
H1226 C1242 0.959 . S
H1227 C1242 0.959 . S
H1228 C1242 0.961 . S
H1229 C1243 0.960 . S
H1230 C1243 0.961 . S
H1231 C1243 0.959 . S
H1232 C1246 0.929 . S
H1233 C1247 0.931 . S
H1234 C1249 0.930 . S
C1235 H1223 0.930 . S
C1235 C1236 1.399 . S
C1235 C1240 1.399 . S
C1236 C1235 1.399 . S
C1236 C1237 1.376 . S
C1237 H1224 0.930 . S
C1237 C1236 1.376 . S
C1237 C1238 1.388 . S
C1238 H1225 0.930 . S
C1238 C1237 1.388 . S
C1238 C1239 1.390 . S
C1239 C1238 1.390 . S
C1239 C1240 1.394 . S
C1239 C1245 1.465 . S
C1240 C1235 1.399 . S
C1240 C1239 1.394 . S
C1240 C1241 1.516 . S
C1241 C1240 1.516 . S
C1241 C1242 1.502 . S
C1241 C1243 1.561 . S
C1241 C1244 1.526 . S
C1242 H1226 0.959 . S
C1242 H1227 0.959 . S
C1242 H1228 0.961 . S
C1242 C1241 1.502 . S
C1243 H1229 0.960 . S
C1243 H1230 0.961 . S
C1243 H1231 0.959 . S
C1243 C1241 1.561 . S
C1244 C1241 1.526 . S
C1244 C1245 1.396 . S
C1244 C1249 1.390 . S
C1245 C1239 1.465 . S
C1245 C1244 1.396 . S
C1245 C1246 1.399 . S
C1246 H1232 0.929 . S
C1246 C1245 1.399 . S
C1246 C1247 1.385 . S
C1247 H1233 0.931 . S
C1247 C1246 1.385 . S
C1247 C1248 1.389 . S
C1248 C1247 1.389 . S
C1248 C1249 1.387 . S
C1249 H1234 0.930 . S
C1249 C1244 1.390 . S
C1249 C1248 1.387 . S
H1250 C1262 0.930 . S
H1251 C1264 0.930 . S
H1252 C1265 0.930 . S
H1253 C1269 0.959 . S
H1254 C1269 0.959 . S
H1255 C1269 0.974 . S
H1256 C1270 0.960 . S
H1257 C1270 0.961 1_655 S
H1258 C1270 0.959 . S
H1259 C1273 0.929 . S
H1260 C1274 0.931 . S
H1261 C1276 0.930 . S
C1262 H1250 0.930 . S
C1262 C1263 1.399 . S
C1262 C1267 1.399 . S
C1263 C1262 1.399 . S
C1263 C1264 1.376 . S
C1264 H1251 0.930 . S
C1264 C1263 1.376 . S
C1264 C1265 1.388 . S
C1265 H1252 0.930 . S
C1265 C1264 1.388 . S
C1265 C1266 1.390 . S
C1266 C1265 1.390 . S
C1266 C1267 1.394 . S
C1266 C1272 1.465 1_455 S
C1267 C1262 1.399 . S
C1267 C1266 1.394 . S
C1267 C1268 1.516 1_455 S
C1268 C1267 1.516 1_655 S
C1268 C1269 1.502 . S
C1268 C1270 1.561 1_655 S
C1268 C1271 1.526 . S
C1269 H1253 0.959 . S
C1269 H1254 0.959 . S
C1269 H1255 0.974 . S
C1269 C1268 1.502 . S
C1270 H1256 0.960 . S
C1270 H1257 0.961 1_455 S
C1270 H1258 0.959 . S
C1270 C1268 1.561 1_455 S
C1271 C1268 1.526 . S
C1271 C1272 1.396 . S
C1271 C1276 1.390 . S
C1272 C1266 1.465 1_655 S
C1272 C1271 1.396 . S
C1272 C1273 1.399 . S
C1273 H1259 0.929 . S
C1273 C1272 1.399 . S
C1273 C1274 1.385 . S
C1274 H1260 0.931 . S
C1274 C1273 1.385 . S
C1274 C1275 1.389 . S
C1275 C1274 1.389 . S
C1275 C1276 1.387 . S
C1276 H1261 0.930 . S
C1276 C1271 1.390 . S
C1276 C1275 1.387 . S
H1277 C1289 0.930 . S
H1278 C1291 0.930 . S
H1279 C1292 0.930 . S
H1280 C1296 0.959 . S
H1281 C1296 0.959 . S
H1282 C1296 0.961 . S
H1283 C1297 0.960 . S
H1284 C1297 0.961 . S
H1285 C1297 0.959 . S
H1286 C1300 0.929 . S
H1287 C1301 0.931 . S
H1288 C1303 0.930 . S
C1289 H1277 0.930 . S
C1289 C1290 1.399 . S
C1289 C1294 1.399 . S
C1290 C1289 1.399 . S
C1290 C1291 1.376 . S
C1291 H1278 0.930 . S
C1291 C1290 1.376 . S
C1291 C1292 1.388 . S
C1292 H1279 0.930 . S
C1292 C1291 1.388 . S
C1292 C1293 1.390 . S
C1293 C1292 1.390 . S
C1293 C1294 1.394 . S
C1293 C1299 1.465 1_455 S
C1294 C1289 1.399 . S
C1294 C1293 1.394 . S
C1294 C1295 1.518 . S
C1295 C1294 1.518 . S
C1295 C1296 1.505 . S
C1295 C1297 1.558 1_455 S
C1295 C1298 1.524 1_455 S
C1296 H1280 0.959 . S
C1296 H1281 0.959 . S
C1296 H1282 0.961 . S
C1296 C1295 1.505 . S
C1297 H1283 0.960 . S
C1297 H1284 0.961 . S
C1297 H1285 0.959 . S
C1297 C1295 1.558 1_655 S
C1298 C1295 1.524 1_655 S
C1298 C1299 1.396 . S
C1298 C1303 1.390 . S
C1299 C1293 1.465 1_655 S
C1299 C1298 1.396 . S
C1299 C1300 1.399 . S
C1300 H1286 0.929 . S
C1300 C1299 1.399 . S
C1300 C1301 1.385 . S
C1301 H1287 0.931 . S
C1301 C1300 1.385 . S
C1301 C1302 1.389 . S
C1302 C1301 1.389 . S
C1302 C1303 1.387 . S
C1303 H1288 0.930 . S
C1303 C1298 1.390 . S
C1303 C1302 1.387 . S
H1304 C1316 0.930 . S
H1305 C1318 0.930 . S
H1306 C1319 0.930 . S
H1307 C1323 0.959 . S
H1308 C1323 0.959 . S
H1309 C1323 0.961 . S
H1310 C1324 0.960 . S
H1311 C1324 0.961 . S
H1312 C1324 0.959 . S
H1313 C1327 0.929 . S
H1314 C1328 0.931 . S
H1315 C1330 0.930 . S
C1316 H1304 0.930 . S
C1316 C1317 1.399 . S
C1316 C1321 1.399 . S
C1317 C1316 1.399 . S
C1317 C1318 1.376 . S
C1318 H1305 0.930 . S
C1318 C1317 1.376 . S
C1318 C1319 1.388 . S
C1319 H1306 0.930 . S
C1319 C1318 1.388 . S
C1319 C1320 1.390 . S
C1320 C1319 1.390 . S
C1320 C1321 1.394 . S
C1320 C1326 1.465 . S
C1321 C1316 1.399 . S
C1321 C1320 1.394 . S
C1321 C1322 1.516 . S
C1322 C1321 1.516 . S
C1322 C1323 1.502 . S
C1322 C1324 1.561 . S
C1322 C1325 1.526 . S
C1323 H1307 0.959 . S
C1323 H1308 0.959 . S
C1323 H1309 0.961 . S
C1323 C1322 1.502 . S
C1324 H1310 0.960 . S
C1324 H1311 0.961 . S
C1324 H1312 0.959 . S
C1324 C1322 1.561 . S
C1325 C1322 1.526 . S
C1325 C1326 1.396 . S
C1325 C1330 1.390 . S
C1326 C1320 1.465 . S
C1326 C1325 1.396 . S
C1326 C1327 1.399 . S
C1327 H1313 0.929 . S
C1327 C1326 1.399 . S
C1327 C1328 1.385 . S
C1328 H1314 0.931 . S
C1328 C1327 1.385 . S
C1328 C1329 1.389 . S
C1329 C1328 1.389 . S
C1329 C1330 1.387 . S
C1330 H1315 0.930 . S
C1330 C1325 1.390 . S
C1330 C1329 1.387 . S
H1331 C1343 0.930 . S
H1332 C1345 0.930 . S
H1333 C1346 0.930 . S
H1334 C1350 0.959 . S
H1335 C1350 0.959 . S
H1336 C1350 0.961 . S
H1337 C1351 0.960 . S
H1338 C1351 0.961 1_655 S
H1339 C1351 0.959 . S
H1340 C1354 0.929 . S
H1341 C1355 0.931 . S
H1342 C1357 0.930 . S
C1343 H1331 0.930 . S
C1343 C1344 1.399 . S
C1343 C1348 1.399 . S
C1344 C1343 1.399 . S
C1344 C1345 1.376 . S
C1345 H1332 0.930 . S
C1345 C1344 1.376 . S
C1345 C1346 1.388 . S
C1346 H1333 0.930 . S
C1346 C1345 1.388 . S
C1346 C1347 1.390 . S
C1347 C1346 1.390 . S
C1347 C1348 1.394 . S
C1347 C1353 1.465 . S
C1348 C1343 1.399 . S
C1348 C1347 1.394 . S
C1348 C1349 1.516 1_455 S
C1349 C1348 1.516 1_655 S
C1349 C1350 1.502 . S
C1349 C1351 1.561 1_655 S
C1349 C1352 1.526 . S
C1350 H1334 0.959 . S
C1350 H1335 0.959 . S
C1350 H1336 0.961 . S
C1350 C1349 1.502 . S
C1351 H1337 0.960 . S
C1351 H1338 0.961 1_455 S
C1351 H1339 0.959 . S
C1351 C1349 1.561 1_455 S
C1352 C1349 1.526 . S
C1352 C1353 1.396 1_655 S
C1352 C1357 1.390 . S
C1353 C1347 1.465 . S
C1353 C1352 1.396 1_455 S
C1353 C1354 1.399 . S
C1354 H1340 0.929 . S
C1354 C1353 1.399 . S
C1354 C1355 1.385 1_455 S
C1355 H1341 0.931 . S
C1355 C1354 1.385 1_655 S
C1355 C1356 1.389 . S
C1356 C1355 1.389 . S
C1356 C1357 1.387 . S
C1357 H1342 0.930 . S
C1357 C1352 1.390 . S
C1357 C1356 1.387 . S
H1358 C1370 0.930 . S
H1359 C1372 0.930 . S
H1360 C1373 0.930 . S
H1361 C1377 0.959 . S
H1362 C1377 0.959 . S
H1363 C1377 0.961 1_655 S
H1364 C1378 0.960 . S
H1365 C1378 0.969 . S
H1366 C1378 0.959 . S
H1367 C1381 0.929 . S
H1368 C1382 0.931 . S
H1369 C1384 0.930 . S
C1370 H1358 0.930 . S
C1370 C1371 1.399 . S
C1370 C1375 1.399 . S
C1371 C1370 1.399 . S
C1371 C1372 1.376 . S
C1372 H1359 0.930 . S
C1372 C1371 1.376 . S
C1372 C1373 1.388 . S
C1373 H1360 0.930 . S
C1373 C1372 1.388 . S
C1373 C1374 1.390 . S
C1374 C1373 1.390 . S
C1374 C1375 1.394 . S
C1374 C1380 1.465 1_655 S
C1375 C1370 1.399 . S
C1375 C1374 1.394 . S
C1375 C1376 1.516 . S
C1376 C1375 1.516 . S
C1376 C1377 1.502 1_655 S
C1376 C1378 1.561 . S
C1376 C1379 1.526 1_655 S
C1377 H1361 0.959 . S
C1377 H1362 0.959 . S
C1377 H1363 0.961 1_455 S
C1377 C1376 1.502 1_455 S
C1378 H1364 0.960 . S
C1378 H1365 0.969 . S
C1378 H1366 0.959 . S
C1378 C1376 1.561 . S
C1379 C1376 1.526 1_455 S
C1379 C1380 1.396 . S
C1379 C1384 1.390 . S
C1380 C1374 1.465 1_455 S
C1380 C1379 1.396 . S
C1380 C1381 1.399 . S
C1381 H1367 0.929 . S
C1381 C1380 1.399 . S
C1381 C1382 1.385 . S
C1382 H1368 0.931 . S
C1382 C1381 1.385 . S
C1382 C1383 1.389 . S
C1383 C1382 1.389 . S
C1383 C1384 1.387 . S
C1384 H1369 0.930 . S
C1384 C1379 1.390 . S
C1384 C1383 1.387 . S
H1385 C1397 0.930 . S
H1386 C1399 0.930 . S
H1387 C1400 0.930 . S
H1388 C1404 0.959 . S
H1389 C1404 0.959 . S
H1390 C1404 0.961 . S
H1391 C1405 0.960 . S
H1392 C1405 0.961 . S
H1393 C1405 0.959 . S
H1394 C1408 0.929 . S
H1395 C1409 0.931 . S
H1396 C1411 0.930 . S
C1397 H1385 0.930 . S
C1397 C1398 1.399 . S
C1397 C1402 1.399 . S
C1398 C1397 1.399 . S
C1398 C1399 1.376 . S
C1399 H1386 0.930 . S
C1399 C1398 1.376 . S
C1399 C1400 1.388 . S
C1400 H1387 0.930 . S
C1400 C1399 1.388 . S
C1400 C1401 1.390 . S
C1401 C1400 1.390 . S
C1401 C1402 1.394 . S
C1401 C1407 1.465 . S
C1402 C1397 1.399 . S
C1402 C1401 1.394 . S
C1402 C1403 1.516 . S
C1403 C1402 1.516 . S
C1403 C1404 1.502 . S
C1403 C1405 1.561 . S
C1403 C1406 1.526 . S
C1404 H1388 0.959 . S
C1404 H1389 0.959 . S
C1404 H1390 0.961 . S
C1404 C1403 1.502 . S
C1405 H1391 0.960 . S
C1405 H1392 0.961 . S
C1405 H1393 0.959 . S
C1405 C1403 1.561 . S
C1406 C1403 1.526 . S
C1406 C1407 1.396 . S
C1406 C1411 1.390 . S
C1407 C1401 1.465 . S
C1407 C1406 1.396 . S
C1407 C1408 1.399 . S
C1408 H1394 0.929 . S
C1408 C1407 1.399 . S
C1408 C1409 1.385 . S
C1409 H1395 0.931 . S
C1409 C1408 1.385 . S
C1409 C1410 1.389 . S
C1410 C1409 1.389 . S
C1410 C1411 1.387 . S
C1411 H1396 0.930 . S
C1411 C1406 1.390 . S
C1411 C1410 1.387 . S
H1412 C1424 0.930 . S
H1413 C1426 0.930 . S
H1414 C1427 0.930 . S
H1415 C1431 0.959 . S
H1416 C1431 0.959 . S
H1417 C1431 0.961 . S
H1418 C1432 0.960 . S
H1419 C1432 0.961 . S
H1420 C1432 0.959 . S
H1421 C1435 0.929 . S
H1422 C1436 0.931 . S
H1423 C1438 0.930 . S
C1424 H1412 0.930 . S
C1424 C1425 1.399 . S
C1424 C1429 1.399 . S
C1425 C1424 1.399 . S
C1425 C1426 1.376 . S
C1426 H1413 0.930 . S
C1426 C1425 1.376 . S
C1426 C1427 1.388 . S
C1427 H1414 0.930 . S
C1427 C1426 1.388 . S
C1427 C1428 1.390 . S
C1428 C1427 1.390 . S
C1428 C1429 1.394 . S
C1428 C1434 1.465 . S
C1429 C1424 1.399 . S
C1429 C1428 1.394 . S
C1429 C1430 1.516 . S
C1430 C1429 1.516 . S
C1430 C1431 1.502 . S
C1430 C1432 1.561 . S
C1430 C1433 1.526 . S
C1431 H1415 0.959 . S
C1431 H1416 0.959 . S
C1431 H1417 0.961 . S
C1431 C1430 1.502 . S
C1432 H1418 0.960 . S
C1432 H1419 0.961 . S
C1432 H1420 0.959 . S
C1432 C1430 1.561 . S
C1433 C1430 1.526 . S
C1433 C1434 1.396 . S
C1433 C1438 1.390 . S
C1434 C1428 1.465 . S
C1434 C1433 1.396 . S
C1434 C1435 1.399 . S
C1435 H1421 0.929 . S
C1435 C1434 1.399 . S
C1435 C1436 1.385 . S
C1436 H1422 0.931 . S
C1436 C1435 1.385 . S
C1436 C1437 1.389 . S
C1437 C1436 1.389 . S
C1437 C1438 1.387 . S
C1438 H1423 0.930 . S
C1438 C1433 1.390 . S
C1438 C1437 1.387 . S
H1439 C1451 0.930 . S
H1440 C1453 0.930 . S
H1441 C1454 0.930 . S
H1442 C1458 0.959 . S
H1443 C1458 0.959 . S
H1444 C1458 0.961 . S
H1445 C1459 0.960 . S
H1446 C1459 0.961 . S
H1447 C1459 0.959 . S
H1448 C1462 0.929 . S
H1449 C1463 0.931 . S
H1450 C1465 0.930 . S
C1451 H1439 0.930 . S
C1451 C1452 1.399 . S
C1451 C1456 1.399 . S
C1452 C1451 1.399 . S
C1452 C1453 1.376 . S
C1453 H1440 0.930 . S
C1453 C1452 1.376 . S
C1453 C1454 1.388 . S
C1454 H1441 0.930 . S
C1454 C1453 1.388 . S
C1454 C1455 1.390 . S
C1455 C1454 1.390 . S
C1455 C1456 1.394 . S
C1455 C1461 1.465 . S
C1456 C1451 1.399 . S
C1456 C1455 1.394 . S
C1456 C1457 1.516 . S
C1457 C1456 1.516 . S
C1457 C1458 1.502 . S
C1457 C1459 1.561 . S
C1457 C1460 1.526 . S
C1458 H1442 0.959 . S
C1458 H1443 0.959 . S
C1458 H1444 0.961 . S
C1458 C1457 1.502 . S
C1459 H1445 0.960 . S
C1459 H1446 0.961 . S
C1459 H1447 0.959 . S
C1459 C1457 1.561 . S
C1460 C1457 1.526 . S
C1460 C1461 1.396 . S
C1460 C1465 1.390 . S
C1461 C1455 1.465 . S
C1461 C1460 1.396 . S
C1461 C1462 1.399 . S
C1462 H1448 0.929 . S
C1462 C1461 1.399 . S
C1462 C1463 1.385 . S
C1463 H1449 0.931 . S
C1463 C1462 1.385 . S
C1463 C1464 1.389 . S
C1464 C1463 1.389 . S
C1464 C1465 1.387 . S
C1465 H1450 0.930 . S
C1465 C1460 1.390 . S
C1465 C1464 1.387 . S
H1466 C1478 0.930 . S
H1467 C1480 0.930 . S
H1468 C1481 0.930 . S
H1469 C1485 0.959 . S
H1470 C1485 0.959 . S
H1471 C1485 0.961 1_455 S
H1472 C1486 0.960 . S
H1473 C1486 0.940 1_655 S
H1474 C1486 0.959 . S
H1475 C1489 0.929 . S
H1476 C1490 0.931 . S
H1477 C1492 0.930 . S
C1478 H1466 0.930 . S
C1478 C1479 1.399 . S
C1478 C1483 1.399 . S
C1479 C1478 1.399 . S
C1479 C1480 1.376 . S
C1480 H1467 0.930 . S
C1480 C1479 1.376 . S
C1480 C1481 1.388 . S
C1481 H1468 0.930 . S
C1481 C1480 1.388 . S
C1481 C1482 1.390 . S
C1482 C1481 1.390 . S
C1482 C1483 1.394 . S
C1482 C1488 1.465 1_455 S
C1483 C1478 1.399 . S
C1483 C1482 1.394 . S
C1483 C1484 1.544 . S
C1484 C1483 1.544 . S
C1484 C1485 1.489 1_455 S
C1484 C1486 1.577 . S
C1484 C1487 1.498 1_455 S
C1485 H1469 0.959 . S
C1485 H1470 0.959 . S
C1485 H1471 0.961 1_655 S
C1485 C1484 1.489 1_655 S
C1486 H1472 0.960 . S
C1486 H1473 0.940 1_455 S
C1486 H1474 0.959 . S
C1486 C1484 1.577 . S
C1487 C1484 1.498 1_655 S
C1487 C1488 1.396 . S
C1487 C1492 1.390 . S
C1488 C1482 1.465 1_655 S
C1488 C1487 1.396 . S
C1488 C1489 1.399 . S
C1489 H1475 0.929 . S
C1489 C1488 1.399 . S
C1489 C1490 1.385 . S
C1490 H1476 0.931 . S
C1490 C1489 1.385 . S
C1490 C1491 1.389 . S
C1491 C1490 1.389 . S
C1491 C1492 1.387 . S
C1492 H1477 0.930 . S
C1492 C1487 1.390 . S
C1492 C1491 1.387 . S
H1493 C1505 0.930 . S
H1494 C1507 0.930 . S
H1495 C1508 0.930 . S
H1496 C1512 0.959 . S
H1497 C1512 0.981 . S
H1498 C1512 0.961 . S
H1499 C1513 0.960 . S
H1500 C1513 0.961 . S
H1501 C1513 0.959 . S
H1502 C1516 0.929 . S
H1503 C1517 0.931 . S
H1504 C1519 0.930 . S
C1505 H1493 0.930 . S
C1505 C1506 1.399 . S
C1505 C1510 1.399 . S
C1506 C1505 1.399 . S
C1506 C1507 1.376 . S
C1507 H1494 0.930 . S
C1507 C1506 1.376 . S
C1507 C1508 1.388 . S
C1508 H1495 0.930 . S
C1508 C1507 1.388 . S
C1508 C1509 1.390 . S
C1509 C1508 1.390 . S
C1509 C1510 1.394 . S
C1509 C1515 1.465 1_455 S
C1510 C1505 1.399 . S
C1510 C1509 1.394 . S
C1510 C1511 1.516 1_455 S
C1511 C1510 1.516 1_655 S
C1511 C1512 1.502 1_655 S
C1511 C1513 1.561 . S
C1511 C1514 1.526 . S
C1512 H1496 0.959 . S
C1512 H1497 0.981 . S
C1512 H1498 0.961 . S
C1512 C1511 1.502 1_455 S
C1513 H1499 0.960 . S
C1513 H1500 0.961 . S
C1513 H1501 0.959 . S
C1513 C1511 1.561 . S
C1514 C1511 1.526 . S
C1514 C1515 1.396 . S
C1514 C1519 1.390 . S
C1515 C1509 1.465 1_655 S
C1515 C1514 1.396 . S
C1515 C1516 1.399 . S
C1516 H1502 0.929 . S
C1516 C1515 1.399 . S
C1516 C1517 1.385 . S
C1517 H1503 0.931 . S
C1517 C1516 1.385 . S
C1517 C1518 1.389 . S
C1518 C1517 1.389 . S
C1518 C1519 1.387 . S
C1519 H1504 0.930 . S
C1519 C1514 1.390 . S
C1519 C1518 1.387 . S
H1520 C1532 0.930 . S
H1521 C1534 0.930 . S
H1522 C1535 0.930 . S
H1523 C1539 0.959 . S
H1524 C1539 0.959 . S
H1525 C1539 0.961 . S
H1526 C1540 0.960 . S
H1527 C1540 0.961 . S
H1528 C1540 0.959 . S
H1529 C1543 0.929 . S
H1530 C1544 0.931 . S
H1531 C1546 0.930 . S
C1532 H1520 0.930 . S
C1532 C1533 1.399 . S
C1532 C1537 1.399 . S
C1533 C1532 1.399 . S
C1533 C1534 1.376 . S
C1534 H1521 0.930 . S
C1534 C1533 1.376 . S
C1534 C1535 1.388 . S
C1535 H1522 0.930 . S
C1535 C1534 1.388 . S
C1535 C1536 1.390 . S
C1536 C1535 1.390 . S
C1536 C1537 1.394 . S
C1536 C1542 1.465 . S
C1537 C1532 1.399 . S
C1537 C1536 1.394 . S
C1537 C1538 1.516 . S
C1538 C1537 1.516 . S
C1538 C1539 1.502 . S
C1538 C1540 1.561 . S
C1538 C1541 1.526 . S
C1539 H1523 0.959 . S
C1539 H1524 0.959 . S
C1539 H1525 0.961 . S
C1539 C1538 1.502 . S
C1540 H1526 0.960 . S
C1540 H1527 0.961 . S
C1540 H1528 0.959 . S
C1540 C1538 1.561 . S
C1541 C1538 1.526 . S
C1541 C1542 1.396 . S
C1541 C1546 1.390 . S
C1542 C1536 1.465 . S
C1542 C1541 1.396 . S
C1542 C1543 1.399 . S
C1543 H1529 0.929 . S
C1543 C1542 1.399 . S
C1543 C1544 1.385 . S
C1544 H1530 0.931 . S
C1544 C1543 1.385 . S
C1544 C1545 1.389 . S
C1545 C1544 1.389 . S
C1545 C1546 1.387 . S
C1546 H1531 0.930 . S
C1546 C1541 1.390 . S
C1546 C1545 1.387 . S
H1547 C1559 0.930 . S
H1548 C1561 0.930 . S
H1549 C1562 0.930 . S
H1550 C1566 0.959 . S
H1551 C1566 0.959 . S
H1552 C1566 0.961 . S
H1553 C1567 0.960 . S
H1554 C1567 0.961 . S
H1555 C1567 0.959 . S
H1556 C1570 0.929 . S
H1557 C1571 0.931 . S
H1558 C1573 0.930 . S
C1559 H1547 0.930 . S
C1559 C1560 1.399 . S
C1559 C1564 1.399 . S
C1560 C1559 1.399 . S
C1560 C1561 1.376 . S
C1561 H1548 0.930 . S
C1561 C1560 1.376 . S
C1561 C1562 1.388 . S
C1562 H1549 0.930 . S
C1562 C1561 1.388 . S
C1562 C1563 1.390 . S
C1563 C1562 1.390 . S
C1563 C1564 1.394 . S
C1563 C1569 1.465 . S
C1564 C1559 1.399 . S
C1564 C1563 1.394 . S
C1564 C1565 1.516 . S
C1565 C1564 1.516 . S
C1565 C1566 1.502 . S
C1565 C1567 1.561 . S
C1565 C1568 1.526 . S
C1566 H1550 0.959 . S
C1566 H1551 0.959 . S
C1566 H1552 0.961 . S
C1566 C1565 1.502 . S
C1567 H1553 0.960 . S
C1567 H1554 0.961 . S
C1567 H1555 0.959 . S
C1567 C1565 1.561 . S
C1568 C1565 1.526 . S
C1568 C1569 1.396 . S
C1568 C1573 1.390 . S
C1569 C1563 1.465 . S
C1569 C1568 1.396 . S
C1569 C1570 1.399 . S
C1570 H1556 0.929 . S
C1570 C1569 1.399 . S
C1570 C1571 1.385 . S
C1571 H1557 0.931 . S
C1571 C1570 1.385 . S
C1571 C1572 1.389 . S
C1572 C1571 1.389 . S
C1572 C1573 1.387 . S
C1573 H1558 0.930 . S
C1573 C1568 1.390 . S
C1573 C1572 1.387 . S
H1574 C1586 0.930 . S
H1575 C1588 0.930 . S
H1576 C1589 0.930 . S
H1577 C1593 0.959 . S
H1578 C1593 0.959 . S
H1579 C1593 0.961 . S
H1580 C1594 0.960 . S
H1581 C1594 0.961 . S
H1582 C1594 0.959 . S
H1583 C1597 0.929 . S
H1584 C1598 0.931 . S
H1585 C1600 0.930 . S
C1586 H1574 0.930 . S
C1586 C1587 1.399 . S
C1586 C1591 1.399 . S
C1587 C1586 1.399 . S
C1587 C1588 1.376 . S
C1588 H1575 0.930 . S
C1588 C1587 1.376 . S
C1588 C1589 1.388 . S
C1589 H1576 0.930 . S
C1589 C1588 1.388 . S
C1589 C1590 1.390 . S
C1590 C1589 1.390 . S
C1590 C1591 1.394 . S
C1590 C1596 1.465 . S
C1591 C1586 1.399 . S
C1591 C1590 1.394 . S
C1591 C1592 1.516 . S
C1592 C1591 1.516 . S
C1592 C1593 1.502 . S
C1592 C1594 1.561 . S
C1592 C1595 1.526 . S
C1593 H1577 0.959 . S
C1593 H1578 0.959 . S
C1593 H1579 0.961 . S
C1593 C1592 1.502 . S
C1594 H1580 0.960 . S
C1594 H1581 0.961 . S
C1594 H1582 0.959 . S
C1594 C1592 1.561 . S
C1595 C1592 1.526 . S
C1595 C1596 1.396 . S
C1595 C1600 1.390 . S
C1596 C1590 1.465 . S
C1596 C1595 1.396 . S
C1596 C1597 1.399 . S
C1597 H1583 0.929 . S
C1597 C1596 1.399 . S
C1597 C1598 1.385 1_455 S
C1598 H1584 0.931 . S
C1598 C1597 1.385 1_655 S
C1598 C1599 1.389 . S
C1599 C1598 1.389 . S
C1599 C1600 1.387 1_655 S
C1600 H1585 0.930 . S
C1600 C1595 1.390 . S
C1600 C1599 1.387 1_455 S
H1601 C1613 0.930 . S
H1602 C1615 0.930 . S
H1603 C1616 0.930 . S
H1604 C1620 0.959 . S
H1605 C1620 0.959 . S
H1606 C1620 0.961 . S
H1607 C1621 0.960 . S
H1608 C1621 0.961 . S
H1609 C1621 0.959 . S
H1610 C1624 0.929 . S
H1611 C1625 0.931 . S
H1612 C1627 0.930 . S
C1613 H1601 0.930 . S
C1613 C1614 1.399 . S
C1613 C1618 1.399 . S
C1614 C1613 1.399 . S
C1614 C1615 1.376 . S
C1615 H1602 0.930 . S
C1615 C1614 1.376 . S
C1615 C1616 1.388 . S
C1616 H1603 0.930 . S
C1616 C1615 1.388 . S
C1616 C1617 1.390 . S
C1617 C1616 1.390 . S
C1617 C1618 1.394 . S
C1617 C1623 1.465 . S
C1618 C1613 1.399 . S
C1618 C1617 1.394 . S
C1618 C1619 1.516 . S
C1619 C1618 1.516 . S
C1619 C1620 1.502 . S
C1619 C1621 1.561 . S
C1619 C1622 1.526 . S
C1620 H1604 0.959 . S
C1620 H1605 0.959 . S
C1620 H1606 0.961 . S
C1620 C1619 1.502 . S
C1621 H1607 0.960 . S
C1621 H1608 0.961 . S
C1621 H1609 0.959 . S
C1621 C1619 1.561 . S
C1622 C1619 1.526 . S
C1622 C1623 1.396 . S
C1622 C1627 1.390 . S
C1623 C1617 1.465 . S
C1623 C1622 1.396 . S
C1623 C1624 1.399 . S
C1624 H1610 0.929 . S
C1624 C1623 1.399 . S
C1624 C1625 1.385 . S
C1625 H1611 0.931 . S
C1625 C1624 1.385 . S
C1625 C1626 1.389 . S
C1626 C1625 1.389 . S
C1626 C1627 1.387 . S
C1627 H1612 0.930 . S
C1627 C1622 1.390 . S
C1627 C1626 1.387 . S
H1628 C1640 0.930 . S
H1629 C1642 0.930 . S
H1630 C1643 0.930 . S
H1631 C1647 0.959 . S
H1632 C1647 0.959 . S
H1633 C1647 0.961 . S
H1634 C1648 0.960 . S
H1635 C1648 0.961 . S
H1636 C1648 0.959 . S
H1637 C1651 0.929 . S
H1638 C1652 0.931 . S
H1639 C1654 0.930 . S
C1640 H1628 0.930 . S
C1640 C1641 1.399 . S
C1640 C1645 1.399 . S
C1641 C1640 1.399 . S
C1641 C1642 1.376 . S
C1642 H1629 0.930 . S
C1642 C1641 1.376 . S
C1642 C1643 1.388 . S
C1643 H1630 0.930 . S
C1643 C1642 1.388 . S
C1643 C1644 1.390 . S
C1644 C1643 1.390 . S
C1644 C1645 1.394 . S
C1644 C1650 1.465 . S
C1645 C1640 1.399 . S
C1645 C1644 1.394 . S
C1645 C1646 1.516 . S
C1646 C1645 1.516 . S
C1646 C1647 1.502 . S
C1646 C1648 1.561 . S
C1646 C1649 1.526 . S
C1647 H1631 0.959 . S
C1647 H1632 0.959 . S
C1647 H1633 0.961 . S
C1647 C1646 1.502 . S
C1648 H1634 0.960 . S
C1648 H1635 0.961 . S
C1648 H1636 0.959 . S
C1648 C1646 1.561 . S
C1649 C1646 1.526 . S
C1649 C1650 1.396 . S
C1649 C1654 1.390 . S
C1650 C1644 1.465 . S
C1650 C1649 1.396 . S
C1650 C1651 1.399 . S
C1651 H1637 0.929 . S
C1651 C1650 1.399 . S
C1651 C1652 1.385 . S
C1652 H1638 0.931 . S
C1652 C1651 1.385 . S
C1652 C1653 1.389 . S
C1653 C1652 1.389 . S
C1653 C1654 1.387 . S
C1654 H1639 0.930 . S
C1654 C1649 1.390 . S
C1654 C1653 1.387 . S
H1655 C1667 0.930 . S
H1656 C1669 0.930 . S
H1657 C1670 0.930 . S
H1658 C1674 0.959 . S
H1659 C1674 0.959 . S
H1660 C1674 0.961 . S
H1661 C1675 0.960 . S
H1662 C1675 0.961 . S
H1663 C1675 0.959 . S
H1664 C1678 0.929 . S
H1665 C1679 0.931 . S
H1666 C1681 0.930 . S
C1667 H1655 0.930 . S
C1667 C1668 1.399 . S
C1667 C1672 1.399 . S
C1668 C1667 1.399 . S
C1668 C1669 1.376 . S
C1669 H1656 0.930 . S
C1669 C1668 1.376 . S
C1669 C1670 1.388 . S
C1670 H1657 0.930 . S
C1670 C1669 1.388 . S
C1670 C1671 1.390 . S
C1671 C1670 1.390 . S
C1671 C1672 1.394 . S
C1671 C1677 1.465 . S
C1672 C1667 1.399 . S
C1672 C1671 1.394 . S
C1672 C1673 1.516 . S
C1673 C1672 1.516 . S
C1673 C1674 1.502 . S
C1673 C1675 1.561 . S
C1673 C1676 1.526 . S
C1674 H1658 0.959 . S
C1674 H1659 0.959 . S
C1674 H1660 0.961 . S
C1674 C1673 1.502 . S
C1675 H1661 0.960 . S
C1675 H1662 0.961 . S
C1675 H1663 0.959 . S
C1675 C1673 1.561 . S
C1676 C1673 1.526 . S
C1676 C1677 1.396 . S
C1676 C1681 1.390 . S
C1677 C1671 1.465 . S
C1677 C1676 1.396 . S
C1677 C1678 1.399 . S
C1678 H1664 0.929 . S
C1678 C1677 1.399 . S
C1678 C1679 1.385 . S
C1679 H1665 0.931 . S
C1679 C1678 1.385 . S
C1679 C1680 1.389 . S
C1680 C1679 1.389 . S
C1680 C1681 1.387 . S
C1681 H1666 0.930 . S
C1681 C1676 1.390 . S
C1681 C1680 1.387 . S
H1682 C1694 0.930 . S
H1683 C1696 0.930 . S
H1684 C1697 0.930 . S
H1685 C1701 0.959 . S
H1686 C1701 0.959 . S
H1687 C1701 0.961 . S
H1688 C1702 0.960 . S
H1689 C1702 0.961 . S
H1690 C1702 0.959 . S
H1691 C1705 0.929 . S
H1692 C1706 0.931 . S
H1693 C1708 0.930 . S
C1694 H1682 0.930 . S
C1694 C1695 1.399 1_455 S
C1694 C1699 1.399 . S
C1695 C1694 1.399 1_655 S
C1695 C1696 1.376 . S
C1696 H1683 0.930 . S
C1696 C1695 1.376 . S
C1696 C1697 1.388 . S
C1697 H1684 0.930 . S
C1697 C1696 1.388 . S
C1697 C1698 1.390 1_655 S
C1698 C1697 1.390 1_455 S
C1698 C1699 1.394 . S
C1698 C1704 1.465 . S
C1699 C1694 1.399 . S
C1699 C1698 1.394 . S
C1699 C1700 1.516 . S
C1700 C1699 1.516 . S
C1700 C1701 1.502 . S
C1700 C1702 1.561 . S
C1700 C1703 1.526 . S
C1701 H1685 0.959 . S
C1701 H1686 0.959 . S
C1701 H1687 0.961 . S
C1701 C1700 1.502 . S
C1702 H1688 0.960 . S
C1702 H1689 0.961 . S
C1702 H1690 0.959 . S
C1702 C1700 1.561 . S
C1703 C1700 1.526 . S
C1703 C1704 1.396 . S
C1703 C1708 1.390 . S
C1704 C1698 1.465 . S
C1704 C1703 1.396 . S
C1704 C1705 1.399 . S
C1705 H1691 0.929 . S
C1705 C1704 1.399 . S
C1705 C1706 1.385 . S
C1706 H1692 0.931 . S
C1706 C1705 1.385 . S
C1706 C1707 1.389 . S
C1707 C1706 1.389 . S
C1707 C1708 1.387 . S
C1708 H1693 0.930 . S
C1708 C1703 1.390 . S
C1708 C1707 1.387 . S
H1709 C1721 0.930 . S
H1710 C1723 0.930 . S
H1711 C1724 0.930 . S
H1712 C1728 0.959 . S
H1713 C1728 0.959 . S
H1714 C1728 0.961 . S
H1715 C1729 0.960 . S
H1716 C1729 0.961 . S
H1717 C1729 0.959 . S
H1718 C1732 0.929 . S
H1719 C1733 0.931 . S
H1720 C1735 0.930 . S
C1721 H1709 0.930 . S
C1721 C1722 1.399 . S
C1721 C1726 1.399 . S
C1722 C1721 1.399 . S
C1722 C1723 1.376 . S
C1723 H1710 0.930 . S
C1723 C1722 1.376 . S
C1723 C1724 1.388 . S
C1724 H1711 0.930 . S
C1724 C1723 1.388 . S
C1724 C1725 1.390 . S
C1725 C1724 1.390 . S
C1725 C1726 1.394 . S
C1725 C1731 1.465 . S
C1726 C1721 1.399 . S
C1726 C1725 1.394 . S
C1726 C1727 1.516 . S
C1727 C1726 1.516 . S
C1727 C1728 1.502 . S
C1727 C1729 1.561 . S
C1727 C1730 1.526 . S
C1728 H1712 0.959 . S
C1728 H1713 0.959 . S
C1728 H1714 0.961 . S
C1728 C1727 1.502 . S
C1729 H1715 0.960 . S
C1729 H1716 0.961 . S
C1729 H1717 0.959 . S
C1729 C1727 1.561 . S
C1730 C1727 1.526 . S
C1730 C1731 1.396 . S
C1730 C1735 1.390 . S
C1731 C1725 1.465 . S
C1731 C1730 1.396 . S
C1731 C1732 1.399 . S
C1732 H1718 0.929 . S
C1732 C1731 1.399 . S
C1732 C1733 1.385 . S
C1733 H1719 0.931 . S
C1733 C1732 1.385 . S
C1733 C1734 1.389 . S
C1734 C1733 1.389 . S
C1734 C1735 1.387 . S
C1735 H1720 0.930 . S
C1735 C1730 1.390 . S
C1735 C1734 1.387 . S
H1736 C1748 0.930 . S
H1737 C1750 0.930 . S
H1738 C1751 0.930 . S
H1739 C1755 0.959 . S
H1740 C1755 0.959 . S
H1741 C1755 0.961 . S
H1742 C1756 0.960 . S
H1743 C1756 0.961 . S
H1744 C1756 0.959 . S
H1745 C1759 0.929 . S
H1746 C1760 0.931 . S
H1747 C1762 0.930 . S
C1748 H1736 0.930 . S
C1748 C1749 1.399 . S
C1748 C1753 1.399 . S
C1749 C1748 1.399 . S
C1749 C1750 1.376 . S
C1750 H1737 0.930 . S
C1750 C1749 1.376 . S
C1750 C1751 1.388 . S
C1751 H1738 0.930 . S
C1751 C1750 1.388 . S
C1751 C1752 1.390 . S
C1752 C1751 1.390 . S
C1752 C1753 1.394 . S
C1752 C1758 1.465 . S
C1753 C1748 1.399 . S
C1753 C1752 1.394 . S
C1753 C1754 1.516 . S
C1754 C1753 1.516 . S
C1754 C1755 1.502 . S
C1754 C1756 1.561 . S
C1754 C1757 1.526 . S
C1755 H1739 0.959 . S
C1755 H1740 0.959 . S
C1755 H1741 0.961 . S
C1755 C1754 1.502 . S
C1756 H1742 0.960 . S
C1756 H1743 0.961 . S
C1756 H1744 0.959 . S
C1756 C1754 1.561 . S
C1757 C1754 1.526 . S
C1757 C1758 1.396 . S
C1757 C1762 1.390 . S
C1758 C1752 1.465 . S
C1758 C1757 1.396 . S
C1758 C1759 1.399 . S
C1759 H1745 0.929 . S
C1759 C1758 1.399 . S
C1759 C1760 1.385 . S
C1760 H1746 0.931 . S
C1760 C1759 1.385 . S
C1760 C1761 1.389 . S
C1761 C1760 1.389 . S
C1761 C1762 1.387 . S
C1762 H1747 0.930 . S
C1762 C1757 1.390 . S
C1762 C1761 1.387 . S
H1763 C1775 0.930 . S
H1764 C1777 0.930 . S
H1765 C1778 0.930 . S
H1766 C1782 0.959 . S
H1767 C1782 0.959 . S
H1768 C1782 0.961 . S
H1769 C1783 0.960 . S
H1770 C1783 0.961 . S
H1771 C1783 0.959 . S
H1772 C1786 0.929 . S
H1773 C1787 0.931 . S
H1774 C1789 0.930 . S
C1775 H1763 0.930 . S
C1775 C1776 1.399 . S
C1775 C1780 1.399 . S
C1776 C1775 1.399 . S
C1776 C1777 1.376 . S
C1777 H1764 0.930 . S
C1777 C1776 1.376 . S
C1777 C1778 1.388 . S
C1778 H1765 0.930 . S
C1778 C1777 1.388 . S
C1778 C1779 1.390 . S
C1779 C1778 1.390 . S
C1779 C1780 1.394 . S
C1779 C1785 1.465 . S
C1780 C1775 1.399 . S
C1780 C1779 1.394 . S
C1780 C1781 1.516 . S
C1781 C1780 1.516 . S
C1781 C1782 1.502 . S
C1781 C1783 1.561 . S
C1781 C1784 1.526 . S
C1782 H1766 0.959 . S
C1782 H1767 0.959 . S
C1782 H1768 0.961 . S
C1782 C1781 1.502 . S
C1783 H1769 0.960 . S
C1783 H1770 0.961 . S
C1783 H1771 0.959 . S
C1783 C1781 1.561 . S
C1784 C1781 1.526 . S
C1784 C1785 1.396 . S
C1784 C1789 1.390 . S
C1785 C1779 1.465 . S
C1785 C1784 1.396 . S
C1785 C1786 1.399 . S
C1786 H1772 0.929 . S
C1786 C1785 1.399 . S
C1786 C1787 1.385 . S
C1787 H1773 0.931 . S
C1787 C1786 1.385 . S
C1787 C1788 1.389 . S
C1788 C1787 1.389 . S
C1788 C1789 1.387 . S
C1789 H1774 0.930 . S
C1789 C1784 1.390 . S
C1789 C1788 1.387 . S
H1790 C1802 0.930 . S
H1791 C1804 0.930 . S
H1792 C1805 0.930 . S
H1793 C1809 0.959 . S
H1794 C1809 0.959 1_455 S
H1795 C1809 0.961 . S
H1796 C1810 0.960 . S
H1797 C1810 0.961 1_455 S
H1798 C1810 0.959 . S
H1799 C1813 0.929 . S
H1800 C1814 0.931 . S
H1801 C1816 0.930 . S
C1802 H1790 0.930 . S
C1802 C1803 1.399 . S
C1802 C1807 1.399 . S
C1803 C1802 1.399 . S
C1803 C1804 1.376 . S
C1804 H1791 0.930 . S
C1804 C1803 1.376 . S
C1804 C1805 1.388 . S
C1805 H1792 0.930 . S
C1805 C1804 1.388 . S
C1805 C1806 1.390 . S
C1806 C1805 1.390 . S
C1806 C1807 1.394 . S
C1806 C1812 1.465 . S
C1807 C1802 1.399 . S
C1807 C1806 1.394 . S
C1807 C1808 1.516 . S
C1808 C1807 1.516 . S
C1808 C1809 1.502 . S
C1808 C1810 1.561 . S
C1808 C1811 1.526 . S
C1809 H1793 0.959 . S
C1809 H1794 0.959 1_655 S
C1809 H1795 0.961 . S
C1809 C1808 1.502 . S
C1810 H1796 0.960 . S
C1810 H1797 0.961 1_655 S
C1810 H1798 0.959 . S
C1810 C1808 1.561 . S
C1811 C1808 1.526 . S
C1811 C1812 1.396 . S
C1811 C1816 1.390 1_655 S
C1812 C1806 1.465 . S
C1812 C1811 1.396 . S
C1812 C1813 1.399 . S
C1813 H1799 0.929 . S
C1813 C1812 1.399 . S
C1813 C1814 1.385 . S
C1814 H1800 0.931 . S
C1814 C1813 1.385 . S
C1814 C1815 1.389 1_655 S
C1815 C1814 1.389 1_455 S
C1815 C1816 1.387 . S
C1816 H1801 0.930 . S
C1816 C1811 1.390 1_455 S
C1816 C1815 1.387 . S
H1817 C1829 0.930 . S
H1818 C1831 0.930 . S
H1819 C1832 0.930 . S
H1820 C1836 0.959 . S
H1821 C1836 0.959 . S
H1822 C1836 0.961 . S
H1823 C1837 0.960 . S
H1824 C1837 0.961 . S
H1825 C1837 0.959 . S
H1826 C1840 0.929 . S
H1827 C1841 0.931 . S
H1828 C1843 0.930 . S
C1829 H1817 0.930 . S
C1829 C1830 1.399 . S
C1829 C1834 1.399 . S
C1830 C1829 1.399 . S
C1830 C1831 1.376 . S
C1831 H1818 0.930 . S
C1831 C1830 1.376 . S
C1831 C1832 1.388 . S
C1832 H1819 0.930 . S
C1832 C1831 1.388 . S
C1832 C1833 1.390 . S
C1833 C1832 1.390 . S
C1833 C1834 1.394 . S
C1833 C1839 1.465 . S
C1834 C1829 1.399 . S
C1834 C1833 1.394 . S
C1834 C1835 1.516 . S
C1835 C1834 1.516 . S
C1835 C1836 1.502 . S
C1835 C1837 1.561 . S
C1835 C1838 1.526 . S
C1836 H1820 0.959 . S
C1836 H1821 0.959 . S
C1836 H1822 0.961 . S
C1836 C1835 1.502 . S
C1837 H1823 0.960 . S
C1837 H1824 0.961 . S
C1837 H1825 0.959 . S
C1837 C1835 1.561 . S
C1838 C1835 1.526 . S
C1838 C1839 1.396 . S
C1838 C1843 1.390 . S
C1839 C1833 1.465 . S
C1839 C1838 1.396 . S
C1839 C1840 1.399 . S
C1840 H1826 0.929 . S
C1840 C1839 1.399 . S
C1840 C1841 1.385 . S
C1841 H1827 0.931 . S
C1841 C1840 1.385 . S
C1841 C1842 1.389 . S
C1842 C1841 1.389 . S
C1842 C1843 1.387 . S
C1843 H1828 0.930 . S
C1843 C1838 1.390 . S
C1843 C1842 1.387 . S
H1844 C1856 0.930 . S
H1845 C1858 0.930 . S
H1846 C1859 0.930 . S
H1847 C1863 0.959 . S
H1848 C1863 0.959 . S
H1849 C1863 0.961 . S
H1850 C1864 0.960 . S
H1851 C1864 0.961 . S
H1852 C1864 0.959 . S
H1853 C1867 0.929 . S
H1854 C1868 0.931 . S
H1855 C1870 0.930 . S
C1856 H1844 0.930 . S
C1856 C1857 1.399 . S
C1856 C1861 1.399 . S
C1857 C1856 1.399 . S
C1857 C1858 1.376 . S
C1858 H1845 0.930 . S
C1858 C1857 1.376 . S
C1858 C1859 1.388 . S
C1859 H1846 0.930 . S
C1859 C1858 1.388 . S
C1859 C1860 1.390 . S
C1860 C1859 1.390 . S
C1860 C1861 1.394 . S
C1860 C1866 1.465 . S
C1861 C1856 1.399 . S
C1861 C1860 1.394 . S
C1861 C1862 1.516 . S
C1862 C1861 1.516 . S
C1862 C1863 1.502 . S
C1862 C1864 1.561 . S
C1862 C1865 1.526 . S
C1863 H1847 0.959 . S
C1863 H1848 0.959 . S
C1863 H1849 0.961 . S
C1863 C1862 1.502 . S
C1864 H1850 0.960 . S
C1864 H1851 0.961 . S
C1864 H1852 0.959 . S
C1864 C1862 1.561 . S
C1865 C1862 1.526 . S
C1865 C1866 1.396 . S
C1865 C1870 1.390 . S
C1866 C1860 1.465 . S
C1866 C1865 1.396 . S
C1866 C1867 1.399 . S
C1867 H1853 0.929 . S
C1867 C1866 1.399 . S
C1867 C1868 1.385 . S
C1868 H1854 0.931 . S
C1868 C1867 1.385 . S
C1868 C1869 1.389 . S
C1869 C1868 1.389 . S
C1869 C1870 1.387 . S
C1870 H1855 0.930 . S
C1870 C1865 1.390 . S
C1870 C1869 1.387 . S
H1871 C1883 0.930 . S
H1872 C1885 0.930 . S
H1873 C1886 0.930 . S
H1874 C1890 0.959 . S
H1875 C1890 0.959 . S
H1876 C1890 0.961 . S
H1877 C1891 0.960 . S
H1878 C1891 0.961 . S
H1879 C1891 0.959 . S
H1880 C1894 0.929 . S
H1881 C1895 0.931 . S
H1882 C1897 0.930 . S
C1883 H1871 0.930 . S
C1883 C1884 1.399 . S
C1883 C1888 1.399 . S
C1884 C1883 1.399 . S
C1884 C1885 1.376 . S
C1885 H1872 0.930 . S
C1885 C1884 1.376 . S
C1885 C1886 1.388 . S
C1886 H1873 0.930 . S
C1886 C1885 1.388 . S
C1886 C1887 1.390 . S
C1887 C1886 1.390 . S
C1887 C1888 1.394 . S
C1887 C1893 1.465 . S
C1888 C1883 1.399 . S
C1888 C1887 1.394 . S
C1888 C1889 1.516 . S
C1889 C1888 1.516 . S
C1889 C1890 1.502 . S
C1889 C1891 1.561 . S
C1889 C1892 1.526 . S
C1890 H1874 0.959 . S
C1890 H1875 0.959 . S
C1890 H1876 0.961 . S
C1890 C1889 1.502 . S
C1891 H1877 0.960 . S
C1891 H1878 0.961 . S
C1891 H1879 0.959 . S
C1891 C1889 1.561 . S
C1892 C1889 1.526 . S
C1892 C1893 1.396 . S
C1892 C1897 1.390 . S
C1893 C1887 1.465 . S
C1893 C1892 1.396 . S
C1893 C1894 1.399 . S
C1894 H1880 0.929 . S
C1894 C1893 1.399 . S
C1894 C1895 1.385 . S
C1895 H1881 0.931 . S
C1895 C1894 1.385 . S
C1895 C1896 1.389 . S
C1896 C1895 1.389 . S
C1896 C1897 1.387 . S
C1897 H1882 0.930 . S
C1897 C1892 1.390 . S
C1897 C1896 1.387 . S
H1898 C1910 0.930 . S
H1899 C1912 0.930 . S
H1900 C1913 0.930 . S
H1901 C1917 0.959 . S
H1902 C1917 0.959 . S
H1903 C1917 0.961 . S
H1904 C1918 0.960 . S
H1905 C1918 0.961 . S
H1906 C1918 0.959 . S
H1907 C1921 0.929 . S
H1908 C1922 0.931 . S
H1909 C1924 0.930 . S
C1910 H1898 0.930 . S
C1910 C1911 1.399 . S
C1910 C1915 1.399 . S
C1911 C1910 1.399 . S
C1911 C1912 1.376 . S
C1912 H1899 0.930 . S
C1912 C1911 1.376 . S
C1912 C1913 1.388 . S
C1913 H1900 0.930 . S
C1913 C1912 1.388 . S
C1913 C1914 1.390 . S
C1914 C1913 1.390 . S
C1914 C1915 1.394 . S
C1914 C1920 1.465 . S
C1915 C1910 1.399 . S
C1915 C1914 1.394 . S
C1915 C1916 1.516 . S
C1916 C1915 1.516 . S
C1916 C1917 1.502 . S
C1916 C1918 1.561 . S
C1916 C1919 1.526 . S
C1917 H1901 0.959 . S
C1917 H1902 0.959 . S
C1917 H1903 0.961 . S
C1917 C1916 1.502 . S
C1918 H1904 0.960 . S
C1918 H1905 0.961 . S
C1918 H1906 0.959 . S
C1918 C1916 1.561 . S
C1919 C1916 1.526 . S
C1919 C1920 1.396 . S
C1919 C1924 1.390 . S
C1920 C1914 1.465 . S
C1920 C1919 1.396 . S
C1920 C1921 1.399 . S
C1921 H1907 0.929 . S
C1921 C1920 1.399 . S
C1921 C1922 1.385 1_655 S
C1922 H1908 0.931 . S
C1922 C1921 1.385 1_455 S
C1922 C1923 1.389 . S
C1923 C1922 1.389 . S
C1923 C1924 1.387 1_455 S
C1924 H1909 0.930 . S
C1924 C1919 1.390 . S
C1924 C1923 1.387 1_655 S
H1925 C1937 0.930 . S
H1926 C1939 0.930 . S
H1927 C1940 0.930 . S
H1928 C1944 0.959 . S
H1929 C1944 0.959 . S
H1930 C1944 0.961 . S
H1931 C1945 0.960 . S
H1932 C1945 0.961 . S
H1933 C1945 0.959 . S
H1934 C1948 0.929 . S
H1935 C1949 0.931 . S
H1936 C1951 0.930 . S
C1937 H1925 0.930 . S
C1937 C1938 1.399 . S
C1937 C1942 1.399 . S
C1938 C1937 1.399 . S
C1938 C1939 1.376 . S
C1939 H1926 0.930 . S
C1939 C1938 1.376 . S
C1939 C1940 1.388 . S
C1940 H1927 0.930 . S
C1940 C1939 1.388 . S
C1940 C1941 1.390 . S
C1941 C1940 1.390 . S
C1941 C1942 1.394 . S
C1941 C1947 1.465 . S
C1942 C1937 1.399 . S
C1942 C1941 1.394 . S
C1942 C1943 1.516 . S
C1943 C1942 1.516 . S
C1943 C1944 1.502 . S
C1943 C1945 1.561 . S
C1943 C1946 1.526 . S
C1944 H1928 0.959 . S
C1944 H1929 0.959 . S
C1944 H1930 0.961 . S
C1944 C1943 1.502 . S
C1945 H1931 0.960 . S
C1945 H1932 0.961 . S
C1945 H1933 0.959 . S
C1945 C1943 1.561 . S
C1946 C1943 1.526 . S
C1946 C1947 1.396 . S
C1946 C1951 1.390 . S
C1947 C1941 1.465 . S
C1947 C1946 1.396 . S
C1947 C1948 1.399 . S
C1948 H1934 0.929 . S
C1948 C1947 1.399 . S
C1948 C1949 1.385 . S
C1949 H1935 0.931 . S
C1949 C1948 1.385 . S
C1949 C1950 1.389 . S
C1950 C1949 1.389 . S
C1950 C1951 1.387 . S
C1951 H1936 0.930 . S
C1951 C1946 1.390 . S
C1951 C1950 1.387 . S
H1952 C1964 0.930 . S
H1953 C1966 0.930 . S
H1954 C1967 0.930 . S
H1955 C1971 0.959 . S
H1956 C1971 0.959 . S
H1957 C1971 0.961 . S
H1958 C1972 0.960 . S
H1959 C1972 0.961 . S
H1960 C1972 0.959 . S
H1961 C1975 0.929 . S
H1962 C1976 0.931 . S
H1963 C1978 0.930 . S
C1964 H1952 0.930 . S
C1964 C1965 1.399 . S
C1964 C1969 1.399 1_455 S
C1965 C1964 1.399 . S
C1965 C1966 1.376 . S
C1966 H1953 0.930 . S
C1966 C1965 1.376 . S
C1966 C1967 1.388 1_455 S
C1967 H1954 0.930 . S
C1967 C1966 1.388 1_655 S
C1967 C1968 1.390 . S
C1968 C1967 1.390 . S
C1968 C1969 1.394 . S
C1968 C1974 1.465 . S
C1969 C1964 1.399 1_655 S
C1969 C1968 1.394 . S
C1969 C1970 1.516 . S
C1970 C1969 1.516 . S
C1970 C1971 1.502 . S
C1970 C1972 1.561 . S
C1970 C1973 1.526 . S
C1971 H1955 0.959 . S
C1971 H1956 0.959 . S
C1971 H1957 0.961 . S
C1971 C1970 1.502 . S
C1972 H1958 0.960 . S
C1972 H1959 0.961 . S
C1972 H1960 0.959 . S
C1972 C1970 1.561 . S
C1973 C1970 1.526 . S
C1973 C1974 1.396 . S
C1973 C1978 1.390 . S
C1974 C1968 1.465 . S
C1974 C1973 1.396 . S
C1974 C1975 1.399 . S
C1975 H1961 0.929 . S
C1975 C1974 1.399 . S
C1975 C1976 1.385 . S
C1976 H1962 0.931 . S
C1976 C1975 1.385 . S
C1976 C1977 1.389 . S
C1977 C1976 1.389 . S
C1977 C1978 1.387 . S
C1978 H1963 0.930 . S
C1978 C1973 1.390 . S
C1978 C1977 1.387 . S
H1979 C1991 0.930 . S
H1980 C1993 0.930 . S
H1981 C1994 0.930 . S
H1982 C1998 0.959 . S
H1983 C1998 0.959 . S
H1984 C1998 0.961 . S
H1985 C1999 0.960 . S
H1986 C1999 0.961 . S
H1987 C1999 0.959 . S
H1988 C2002 0.929 . S
H1989 C2003 0.931 . S
H1990 C2005 0.930 . S
C1991 H1979 0.930 . S
C1991 C1992 1.399 . S
C1991 C1996 1.399 . S
C1992 C1991 1.399 . S
C1992 C1993 1.376 . S
C1993 H1980 0.930 . S
C1993 C1992 1.376 . S
C1993 C1994 1.388 . S
C1994 H1981 0.930 . S
C1994 C1993 1.388 . S
C1994 C1995 1.390 . S
C1995 C1994 1.390 . S
C1995 C1996 1.394 . S
C1995 C2001 1.465 . S
C1996 C1991 1.399 . S
C1996 C1995 1.394 . S
C1996 C1997 1.516 . S
C1997 C1996 1.516 . S
C1997 C1998 1.502 . S
C1997 C1999 1.561 . S
C1997 C2000 1.526 . S
C1998 H1982 0.959 . S
C1998 H1983 0.959 . S
C1998 H1984 0.961 . S
C1998 C1997 1.502 . S
C1999 H1985 0.960 . S
C1999 H1986 0.961 . S
C1999 H1987 0.959 . S
C1999 C1997 1.561 . S
C2000 C1997 1.526 . S
C2000 C2001 1.396 . S
C2000 C2005 1.390 . S
C2001 C1995 1.465 . S
C2001 C2000 1.396 . S
C2001 C2002 1.399 . S
C2002 H1988 0.929 . S
C2002 C2001 1.399 . S
C2002 C2003 1.385 . S
C2003 H1989 0.931 . S
C2003 C2002 1.385 . S
C2003 C2004 1.389 . S
C2004 C2003 1.389 . S
C2004 C2005 1.387 . S
C2005 H1990 0.930 . S
C2005 C2000 1.390 . S
C2005 C2004 1.387 . S
H2006 C2018 0.930 . S
H2007 C2020 0.930 . S
H2008 C2021 0.930 . S
H2009 C2025 0.959 . S
H2010 C2025 0.959 . S
H2011 C2025 0.961 . S
H2012 C2026 0.960 . S
H2013 C2026 0.961 . S
H2014 C2026 0.959 . S
H2015 C2029 0.929 . S
H2016 C2030 0.931 . S
H2017 C2032 0.930 . S
C2018 H2006 0.930 . S
C2018 C2019 1.399 . S
C2018 C2023 1.399 . S
C2019 C2018 1.399 . S
C2019 C2020 1.376 . S
C2020 H2007 0.930 . S
C2020 C2019 1.376 . S
C2020 C2021 1.388 . S
C2021 H2008 0.930 . S
C2021 C2020 1.388 . S
C2021 C2022 1.390 . S
C2022 C2021 1.390 . S
C2022 C2023 1.394 . S
C2022 C2028 1.465 . S
C2023 C2018 1.399 . S
C2023 C2022 1.394 . S
C2023 C2024 1.516 . S
C2024 C2023 1.516 . S
C2024 C2025 1.502 . S
C2024 C2026 1.561 . S
C2024 C2027 1.526 . S
C2025 H2009 0.959 . S
C2025 H2010 0.959 . S
C2025 H2011 0.961 . S
C2025 C2024 1.502 . S
C2026 H2012 0.960 . S
C2026 H2013 0.961 . S
C2026 H2014 0.959 . S
C2026 C2024 1.561 . S
C2027 C2024 1.526 . S
C2027 C2028 1.396 . S
C2027 C2032 1.390 . S
C2028 C2022 1.465 . S
C2028 C2027 1.396 . S
C2028 C2029 1.399 . S
C2029 H2015 0.929 . S
C2029 C2028 1.399 . S
C2029 C2030 1.385 . S
C2030 H2016 0.931 . S
C2030 C2029 1.385 . S
C2030 C2031 1.389 . S
C2031 C2030 1.389 . S
C2031 C2032 1.387 . S
C2032 H2017 0.930 . S
C2032 C2027 1.390 . S
C2032 C2031 1.387 . S
H2033 C2045 0.930 . S
H2034 C2047 0.930 . S
H2035 C2048 0.930 . S
H2036 C2052 0.959 . S
H2037 C2052 0.959 . S
H2038 C2052 0.961 . S
H2039 C2053 0.960 . S
H2040 C2053 0.961 . S
H2041 C2053 0.959 . S
H2042 C2056 0.929 . S
H2043 C2057 0.931 . S
H2044 C2059 0.930 . S
C2045 H2033 0.930 . S
C2045 C2046 1.399 . S
C2045 C2050 1.399 . S
C2046 C2045 1.399 . S
C2046 C2047 1.376 . S
C2047 H2034 0.930 . S
C2047 C2046 1.376 . S
C2047 C2048 1.388 . S
C2048 H2035 0.930 . S
C2048 C2047 1.388 . S
C2048 C2049 1.390 . S
C2049 C2048 1.390 . S
C2049 C2050 1.394 . S
C2049 C2055 1.465 . S
C2050 C2045 1.399 . S
C2050 C2049 1.394 . S
C2050 C2051 1.516 . S
C2051 C2050 1.516 . S
C2051 C2052 1.502 . S
C2051 C2053 1.561 . S
C2051 C2054 1.526 . S
C2052 H2036 0.959 . S
C2052 H2037 0.959 . S
C2052 H2038 0.961 . S
C2052 C2051 1.502 . S
C2053 H2039 0.960 . S
C2053 H2040 0.961 . S
C2053 H2041 0.959 . S
C2053 C2051 1.561 . S
C2054 C2051 1.526 . S
C2054 C2055 1.396 . S
C2054 C2059 1.390 . S
C2055 C2049 1.465 . S
C2055 C2054 1.396 . S
C2055 C2056 1.399 . S
C2056 H2042 0.929 . S
C2056 C2055 1.399 . S
C2056 C2057 1.385 . S
C2057 H2043 0.931 . S
C2057 C2056 1.385 . S
C2057 C2058 1.389 . S
C2058 C2057 1.389 . S
C2058 C2059 1.387 . S
C2059 H2044 0.930 . S
C2059 C2054 1.390 . S
C2059 C2058 1.387 . S
H2060 C2072 0.930 . S
H2061 C2074 0.930 . S
H2062 C2075 0.930 . S
H2063 C2079 0.959 . S
H2064 C2079 0.959 . S
H2065 C2079 0.961 . S
H2066 C2080 0.960 . S
H2067 C2080 0.961 . S
H2068 C2080 0.959 . S
H2069 C2083 0.929 . S
H2070 C2084 0.931 . S
H2071 C2086 0.927 1_455 S
C2072 H2060 0.930 . S
C2072 C2073 1.399 . S
C2072 C2077 1.399 . S
C2073 C2072 1.399 . S
C2073 C2074 1.376 . S
C2074 H2061 0.930 . S
C2074 C2073 1.376 . S
C2074 C2075 1.388 . S
C2075 H2062 0.930 . S
C2075 C2074 1.388 . S
C2075 C2076 1.390 . S
C2076 C2075 1.390 . S
C2076 C2077 1.394 . S
C2076 C2082 1.465 . S
C2077 C2072 1.399 . S
C2077 C2076 1.394 . S
C2077 C2078 1.516 . S
C2078 C2077 1.516 . S
C2078 C2079 1.502 . S
C2078 C2080 1.561 . S
C2078 C2081 1.526 . S
C2079 H2063 0.959 . S
C2079 H2064 0.959 . S
C2079 H2065 0.961 . S
C2079 C2078 1.502 . S
C2080 H2066 0.960 . S
C2080 H2067 0.961 . S
C2080 H2068 0.959 . S
C2080 C2078 1.561 . S
C2081 C2078 1.526 . S
C2081 C2082 1.396 . S
C2081 C2086 1.390 . S
C2082 C2076 1.465 . S
C2082 C2081 1.396 . S
C2082 C2083 1.399 . S
C2083 H2069 0.929 . S
C2083 C2082 1.399 . S
C2083 C2084 1.385 1_655 S
C2084 H2070 0.931 . S
C2084 C2083 1.385 1_455 S
C2084 C2085 1.389 . S
C2085 C2084 1.389 . S
C2085 C2086 1.387 1_455 S
C2086 H2071 0.927 1_655 S
C2086 C2081 1.390 . S
C2086 C2085 1.387 1_655 S
H2087 C2099 0.930 . S
H2088 C2101 0.930 . S
H2089 C2102 0.930 . S
H2090 C2106 0.959 . S
H2091 C2106 0.959 . S
H2092 C2106 0.961 . S
H2093 C2107 0.960 . S
H2094 C2107 0.961 . S
H2095 C2107 0.959 . S
H2096 C2110 0.929 . S
H2097 C2111 0.931 . S
H2098 C2113 0.930 . S
C2099 H2087 0.930 . S
C2099 C2100 1.399 . S
C2099 C2104 1.399 . S
C2100 C2099 1.399 . S
C2100 C2101 1.376 . S
C2101 H2088 0.930 . S
C2101 C2100 1.376 . S
C2101 C2102 1.388 . S
C2102 H2089 0.930 . S
C2102 C2101 1.388 . S
C2102 C2103 1.390 . S
C2103 C2102 1.390 . S
C2103 C2104 1.394 . S
C2103 C2109 1.465 . S
C2104 C2099 1.399 . S
C2104 C2103 1.394 . S
C2104 C2105 1.516 . S
C2105 C2104 1.516 . S
C2105 C2106 1.502 . S
C2105 C2107 1.561 . S
C2105 C2108 1.526 . S
C2106 H2090 0.959 . S
C2106 H2091 0.959 . S
C2106 H2092 0.961 . S
C2106 C2105 1.502 . S
C2107 H2093 0.960 . S
C2107 H2094 0.961 . S
C2107 H2095 0.959 . S
C2107 C2105 1.561 . S
C2108 C2105 1.526 . S
C2108 C2109 1.396 . S
C2108 C2113 1.390 . S
C2109 C2103 1.465 . S
C2109 C2108 1.396 . S
C2109 C2110 1.399 . S
C2110 H2096 0.929 . S
C2110 C2109 1.399 . S
C2110 C2111 1.385 . S
C2111 H2097 0.931 . S
C2111 C2110 1.385 . S
C2111 C2112 1.389 . S
C2112 C2111 1.389 . S
C2112 C2113 1.387 . S
C2113 H2098 0.930 . S
C2113 C2108 1.390 . S
C2113 C2112 1.387 . S
H2114 C2126 0.930 . S
H2115 C2128 0.930 . S
H2116 C2129 0.930 . S
H2117 C2133 0.959 . S
H2118 C2133 0.959 . S
H2119 C2133 0.961 . S
H2120 C2134 0.960 . S
H2121 C2134 0.961 . S
H2122 C2134 0.959 . S
H2123 C2137 0.929 . S
H2124 C2138 0.931 . S
H2125 C2140 0.930 . S
C2126 H2114 0.930 . S
C2126 C2127 1.399 . S
C2126 C2131 1.399 . S
C2127 C2126 1.399 . S
C2127 C2128 1.376 . S
C2128 H2115 0.930 . S
C2128 C2127 1.376 . S
C2128 C2129 1.388 . S
C2129 H2116 0.930 . S
C2129 C2128 1.388 . S
C2129 C2130 1.390 . S
C2130 C2129 1.390 . S
C2130 C2131 1.394 . S
C2130 C2136 1.465 . S
C2131 C2126 1.399 . S
C2131 C2130 1.394 . S
C2131 C2132 1.516 . S
C2132 C2131 1.516 . S
C2132 C2133 1.502 . S
C2132 C2134 1.561 . S
C2132 C2135 1.526 . S
C2133 H2117 0.959 . S
C2133 H2118 0.959 . S
C2133 H2119 0.961 . S
C2133 C2132 1.502 . S
C2134 H2120 0.960 . S
C2134 H2121 0.961 . S
C2134 H2122 0.959 . S
C2134 C2132 1.561 . S
C2135 C2132 1.526 . S
C2135 C2136 1.396 . S
C2135 C2140 1.390 . S
C2136 C2130 1.465 . S
C2136 C2135 1.396 . S
C2136 C2137 1.399 . S
C2137 H2123 0.929 . S
C2137 C2136 1.399 . S
C2137 C2138 1.385 . S
C2138 H2124 0.931 . S
C2138 C2137 1.385 . S
C2138 C2139 1.389 . S
C2139 C2138 1.389 . S
C2139 C2140 1.387 . S
C2140 H2125 0.930 . S
C2140 C2135 1.390 . S
C2140 C2139 1.387 . S
H2141 C2153 0.930 . S
H2142 C2155 0.930 . S
H2143 C2156 0.930 . S
H2144 C2160 0.959 . S
H2145 C2160 0.959 . S
H2146 C2160 0.961 . S
H2147 C2161 0.960 . S
H2148 C2161 0.961 . S
H2149 C2161 0.959 . S
H2150 C2164 0.929 . S
H2151 C2165 0.931 . S
H2152 C2167 0.930 . S
C2153 H2141 0.930 . S
C2153 C2154 1.399 . S
C2153 C2158 1.399 . S
C2154 C2153 1.399 . S
C2154 C2155 1.376 . S
C2155 H2142 0.930 . S
C2155 C2154 1.376 . S
C2155 C2156 1.388 . S
C2156 H2143 0.930 . S
C2156 C2155 1.388 . S
C2156 C2157 1.390 . S
C2157 C2156 1.390 . S
C2157 C2158 1.394 . S
C2157 C2163 1.465 . S
C2158 C2153 1.399 . S
C2158 C2157 1.394 . S
C2158 C2159 1.516 . S
C2159 C2158 1.516 . S
C2159 C2160 1.502 . S
C2159 C2161 1.561 . S
C2159 C2162 1.526 . S
C2160 H2144 0.959 . S
C2160 H2145 0.959 . S
C2160 H2146 0.961 . S
C2160 C2159 1.502 . S
C2161 H2147 0.960 . S
C2161 H2148 0.961 . S
C2161 H2149 0.959 . S
C2161 C2159 1.561 . S
C2162 C2159 1.526 . S
C2162 C2163 1.396 . S
C2162 C2167 1.390 . S
C2163 C2157 1.465 . S
C2163 C2162 1.396 . S
C2163 C2164 1.399 . S
C2164 H2150 0.929 . S
C2164 C2163 1.399 . S
C2164 C2165 1.385 . S
C2165 H2151 0.931 . S
C2165 C2164 1.385 . S
C2165 C2166 1.389 . S
C2166 C2165 1.389 . S
C2166 C2167 1.387 . S
C2167 H2152 0.930 . S
C2167 C2162 1.390 . S
C2167 C2166 1.387 . S
H2168 C2180 0.939 . S
H2169 C2182 0.930 . S
H2170 C2183 0.930 . S
H2171 C2187 0.959 . S
H2172 C2187 0.959 . S
H2173 C2187 0.961 . S
H2174 C2188 0.960 . S
H2175 C2188 0.961 . S
H2176 C2188 0.959 . S
H2177 C2191 0.929 . S
H2178 C2192 0.931 . S
H2179 C2194 0.930 . S
C2180 H2168 0.939 . S
C2180 C2181 1.418 . S
C2180 C2185 1.372 1_655 S
C2181 C2180 1.418 . S
C2181 C2182 1.376 . S
C2182 H2169 0.930 . S
C2182 C2181 1.376 . S
C2182 C2183 1.388 1_655 S
C2183 H2170 0.930 . S
C2183 C2182 1.388 1_455 S
C2183 C2184 1.390 . S
C2184 C2183 1.390 . S
C2184 C2185 1.394 . S
C2184 C2190 1.465 . S
C2185 C2180 1.372 1_455 S
C2185 C2184 1.394 . S
C2185 C2186 1.516 . S
C2186 C2185 1.516 . S
C2186 C2187 1.502 . S
C2186 C2188 1.561 . S
C2186 C2189 1.526 . S
C2187 H2171 0.959 . S
C2187 H2172 0.959 . S
C2187 H2173 0.961 . S
C2187 C2186 1.502 . S
C2188 H2174 0.960 . S
C2188 H2175 0.961 . S
C2188 H2176 0.959 . S
C2188 C2186 1.561 . S
C2189 C2186 1.526 . S
C2189 C2190 1.396 . S
C2189 C2194 1.390 . S
C2190 C2184 1.465 . S
C2190 C2189 1.396 . S
C2190 C2191 1.399 . S
C2191 H2177 0.929 . S
C2191 C2190 1.399 . S
C2191 C2192 1.385 . S
C2192 H2178 0.931 . S
C2192 C2191 1.385 . S
C2192 C2193 1.389 . S
C2193 C2192 1.389 . S
C2193 C2194 1.387 . S
C2194 H2179 0.930 . S
C2194 C2189 1.390 . S
C2194 C2193 1.387 . S
H2195 C2207 0.930 . S
H2196 C2209 0.930 . S
H2197 C2210 0.930 . S
H2198 C2214 0.959 . S
H2199 C2214 0.959 . S
H2200 C2214 0.961 . S
H2201 C2215 0.960 . S
H2202 C2215 0.961 . S
H2203 C2215 0.959 . S
H2204 C2218 0.929 . S
H2205 C2219 0.931 . S
H2206 C2221 0.930 . S
C2207 H2195 0.930 . S
C2207 C2208 1.399 . S
C2207 C2212 1.399 . S
C2208 C2207 1.399 . S
C2208 C2209 1.376 . S
C2209 H2196 0.930 . S
C2209 C2208 1.376 . S
C2209 C2210 1.388 . S
C2210 H2197 0.930 . S
C2210 C2209 1.388 . S
C2210 C2211 1.390 . S
C2211 C2210 1.390 . S
C2211 C2212 1.394 . S
C2211 C2217 1.465 . S
C2212 C2207 1.399 . S
C2212 C2211 1.394 . S
C2212 C2213 1.516 . S
C2213 C2212 1.516 . S
C2213 C2214 1.502 . S
C2213 C2215 1.561 . S
C2213 C2216 1.526 . S
C2214 H2198 0.959 . S
C2214 H2199 0.959 . S
C2214 H2200 0.961 . S
C2214 C2213 1.502 . S
C2215 H2201 0.960 . S
C2215 H2202 0.961 . S
C2215 H2203 0.959 . S
C2215 C2213 1.561 . S
C2216 C2213 1.526 . S
C2216 C2217 1.396 . S
C2216 C2221 1.390 . S
C2217 C2211 1.465 . S
C2217 C2216 1.396 . S
C2217 C2218 1.399 . S
C2218 H2204 0.929 . S
C2218 C2217 1.399 . S
C2218 C2219 1.385 . S
C2219 H2205 0.931 . S
C2219 C2218 1.385 . S
C2219 C2220 1.389 . S
C2220 C2219 1.389 . S
C2220 C2221 1.387 . S
C2221 H2206 0.930 . S
C2221 C2216 1.390 . S
C2221 C2220 1.387 . S
H2222 C2234 0.930 . S
H2223 C2236 0.930 . S
H2224 C2237 0.930 . S
H2225 C2241 0.959 . S
H2226 C2241 0.959 . S
H2227 C2241 0.961 . S
H2228 C2242 0.960 . S
H2229 C2242 0.961 . S
H2230 C2242 0.959 . S
H2231 C2245 0.929 . S
H2232 C2246 0.931 . S
H2233 C2248 0.930 . S
C2234 H2222 0.930 . S
C2234 C2235 1.399 . S
C2234 C2239 1.399 . S
C2235 C2234 1.399 . S
C2235 C2236 1.376 . S
C2236 H2223 0.930 . S
C2236 C2235 1.376 . S
C2236 C2237 1.388 . S
C2237 H2224 0.930 . S
C2237 C2236 1.388 . S
C2237 C2238 1.390 . S
C2238 C2237 1.390 . S
C2238 C2239 1.394 . S
C2238 C2244 1.465 . S
C2239 C2234 1.399 . S
C2239 C2238 1.394 . S
C2239 C2240 1.516 . S
C2240 C2239 1.516 . S
C2240 C2241 1.502 . S
C2240 C2242 1.561 . S
C2240 C2243 1.526 . S
C2241 H2225 0.959 . S
C2241 H2226 0.959 . S
C2241 H2227 0.961 . S
C2241 C2240 1.502 . S
C2242 H2228 0.960 . S
C2242 H2229 0.961 . S
C2242 H2230 0.959 . S
C2242 C2240 1.561 . S
C2243 C2240 1.526 . S
C2243 C2244 1.396 . S
C2243 C2248 1.390 . S
C2244 C2238 1.465 . S
C2244 C2243 1.396 . S
C2244 C2245 1.399 . S
C2245 H2231 0.929 . S
C2245 C2244 1.399 . S
C2245 C2246 1.385 . S
C2246 H2232 0.931 . S
C2246 C2245 1.385 . S
C2246 C2247 1.389 . S
C2247 C2246 1.389 . S
C2247 C2248 1.387 . S
C2248 H2233 0.930 . S
C2248 C2243 1.390 . S
C2248 C2247 1.387 . S
H2249 C2261 0.930 . S
H2250 C2263 0.930 . S
H2251 C2264 0.930 . S
H2252 C2268 0.959 . S
H2253 C2268 0.959 . S
H2254 C2268 0.961 . S
H2255 C2269 0.960 . S
H2256 C2269 0.961 . S
H2257 C2269 0.959 . S
H2258 C2272 0.929 . S
H2259 C2273 0.931 . S
H2260 C2275 0.930 . S
C2261 H2249 0.930 . S
C2261 C2262 1.399 . S
C2261 C2266 1.399 . S
C2262 C2261 1.399 . S
C2262 C2263 1.376 . S
C2263 H2250 0.930 . S
C2263 C2262 1.376 . S
C2263 C2264 1.388 . S
C2264 H2251 0.930 . S
C2264 C2263 1.388 . S
C2264 C2265 1.390 . S
C2265 C2264 1.390 . S
C2265 C2266 1.394 . S
C2265 C2271 1.465 . S
C2266 C2261 1.399 . S
C2266 C2265 1.394 . S
C2266 C2267 1.516 . S
C2267 C2266 1.516 . S
C2267 C2268 1.502 . S
C2267 C2269 1.561 . S
C2267 C2270 1.526 . S
C2268 H2252 0.959 . S
C2268 H2253 0.959 . S
C2268 H2254 0.961 . S
C2268 C2267 1.502 . S
C2269 H2255 0.960 . S
C2269 H2256 0.961 . S
C2269 H2257 0.959 . S
C2269 C2267 1.561 . S
C2270 C2267 1.526 . S
C2270 C2271 1.396 . S
C2270 C2275 1.390 . S
C2271 C2265 1.465 . S
C2271 C2270 1.396 . S
C2271 C2272 1.399 . S
C2272 H2258 0.929 . S
C2272 C2271 1.399 . S
C2272 C2273 1.385 . S
C2273 H2259 0.931 . S
C2273 C2272 1.385 . S
C2273 C2274 1.389 . S
C2274 C2273 1.389 . S
C2274 C2275 1.387 . S
C2275 H2260 0.930 . S
C2275 C2270 1.390 . S
C2275 C2274 1.387 . S
H2276 C2288 0.930 . S
H2277 C2290 0.930 . S
H2278 C2291 0.930 . S
H2279 C2295 0.959 . S
H2280 C2295 0.959 . S
H2281 C2295 0.961 . S
H2282 C2296 0.960 . S
H2283 C2296 0.961 . S
H2284 C2296 0.959 . S
H2285 C2299 0.929 . S
H2286 C2300 0.931 . S
H2287 C2302 0.930 . S
C2288 H2276 0.930 . S
C2288 C2289 1.399 . S
C2288 C2293 1.399 . S
C2289 C2288 1.399 . S
C2289 C2290 1.376 . S
C2290 H2277 0.930 . S
C2290 C2289 1.376 . S
C2290 C2291 1.388 . S
C2291 H2278 0.930 . S
C2291 C2290 1.388 . S
C2291 C2292 1.390 . S
C2292 C2291 1.390 . S
C2292 C2293 1.394 . S
C2292 C2298 1.465 . S
C2293 C2288 1.399 . S
C2293 C2292 1.394 . S
C2293 C2294 1.516 . S
C2294 C2293 1.516 . S
C2294 C2295 1.502 . S
C2294 C2296 1.561 . S
C2294 C2297 1.526 . S
C2295 H2279 0.959 . S
C2295 H2280 0.959 . S
C2295 H2281 0.961 . S
C2295 C2294 1.502 . S
C2296 H2282 0.960 . S
C2296 H2283 0.961 . S
C2296 H2284 0.959 . S
C2296 C2294 1.561 . S
C2297 C2294 1.526 . S
C2297 C2298 1.396 . S
C2297 C2302 1.390 . S
C2298 C2292 1.465 . S
C2298 C2297 1.396 . S
C2298 C2299 1.399 . S
C2299 H2285 0.929 . S
C2299 C2298 1.399 . S
C2299 C2300 1.385 1_455 S
C2300 H2286 0.931 . S
C2300 C2299 1.385 1_655 S
C2300 C2301 1.389 . S
C2301 C2300 1.389 . S
C2301 C2302 1.387 1_655 S
C2302 H2287 0.930 . S
C2302 C2297 1.390 . S
C2302 C2301 1.387 1_455 S
H2303 C2315 0.930 . S
H2304 C2317 0.930 . S
H2305 C2318 0.930 . S
H2306 C2322 0.959 . S
H2307 C2322 0.959 . S
H2308 C2322 0.961 . S
H2309 C2323 0.960 . S
H2310 C2323 0.961 . S
H2311 C2323 0.959 . S
H2312 C2326 0.929 . S
H2313 C2327 0.931 . S
H2314 C2329 0.930 . S
C2315 H2303 0.930 . S
C2315 C2316 1.399 . S
C2315 C2320 1.399 . S
C2316 C2315 1.399 . S
C2316 C2317 1.376 . S
C2317 H2304 0.930 . S
C2317 C2316 1.376 . S
C2317 C2318 1.388 . S
C2318 H2305 0.930 . S
C2318 C2317 1.388 . S
C2318 C2319 1.390 . S
C2319 C2318 1.390 . S
C2319 C2320 1.394 . S
C2319 C2325 1.465 . S
C2320 C2315 1.399 . S
C2320 C2319 1.394 . S
C2320 C2321 1.516 . S
C2321 C2320 1.516 . S
C2321 C2322 1.502 . S
C2321 C2323 1.561 . S
C2321 C2324 1.526 . S
C2322 H2306 0.959 . S
C2322 H2307 0.959 . S
C2322 H2308 0.961 . S
C2322 C2321 1.502 . S
C2323 H2309 0.960 . S
C2323 H2310 0.961 . S
C2323 H2311 0.959 . S
C2323 C2321 1.561 . S
C2324 C2321 1.526 . S
C2324 C2325 1.396 . S
C2324 C2329 1.390 . S
C2325 C2319 1.465 . S
C2325 C2324 1.396 . S
C2325 C2326 1.399 . S
C2326 H2312 0.929 . S
C2326 C2325 1.399 . S
C2326 C2327 1.385 . S
C2327 H2313 0.931 . S
C2327 C2326 1.385 . S
C2327 C2328 1.389 . S
C2328 C2327 1.389 . S
C2328 C2329 1.387 . S
C2329 H2314 0.930 . S
C2329 C2324 1.390 . S
C2329 C2328 1.387 . S
H2330 C2342 0.930 . S
H2331 C2344 0.930 . S
H2332 C2345 0.930 . S
H2333 C2349 0.959 . S
H2334 C2349 0.959 . S
H2335 C2349 0.961 . S
H2336 C2350 0.960 . S
H2337 C2350 0.961 . S
H2338 C2350 0.959 . S
H2339 C2353 0.929 . S
H2340 C2354 0.931 . S
H2341 C2356 0.930 . S
C2342 H2330 0.930 . S
C2342 C2343 1.399 . S
C2342 C2347 1.399 . S
C2343 C2342 1.399 . S
C2343 C2344 1.376 . S
C2344 H2331 0.930 . S
C2344 C2343 1.376 . S
C2344 C2345 1.388 . S
C2345 H2332 0.930 . S
C2345 C2344 1.388 . S
C2345 C2346 1.390 . S
C2346 C2345 1.390 . S
C2346 C2347 1.394 . S
C2346 C2352 1.465 . S
C2347 C2342 1.399 . S
C2347 C2346 1.394 . S
C2347 C2348 1.516 . S
C2348 C2347 1.516 . S
C2348 C2349 1.502 . S
C2348 C2350 1.561 . S
C2348 C2351 1.526 . S
C2349 H2333 0.959 . S
C2349 H2334 0.959 . S
C2349 H2335 0.961 . S
C2349 C2348 1.502 . S
C2350 H2336 0.960 . S
C2350 H2337 0.961 . S
C2350 H2338 0.959 . S
C2350 C2348 1.561 . S
C2351 C2348 1.526 . S
C2351 C2352 1.396 . S
C2351 C2356 1.390 . S
C2352 C2346 1.465 . S
C2352 C2351 1.396 . S
C2352 C2353 1.399 . S
C2353 H2339 0.929 . S
C2353 C2352 1.399 . S
C2353 C2354 1.385 . S
C2354 H2340 0.931 . S
C2354 C2353 1.385 . S
C2354 C2355 1.389 . S
C2355 C2354 1.389 . S
C2355 C2356 1.387 . S
C2356 H2341 0.930 . S
C2356 C2351 1.390 . S
C2356 C2355 1.387 . S
H2357 C2369 0.930 . S
H2358 C2371 0.930 . S
H2359 C2372 0.930 . S
H2360 C2376 0.959 . S
H2361 C2376 0.959 . S
H2362 C2376 0.961 . S
H2363 C2377 0.960 . S
H2364 C2377 0.961 . S
H2365 C2377 0.959 . S
H2366 C2380 0.929 . S
H2367 C2381 0.931 . S
H2368 C2383 0.930 . S
C2369 H2357 0.930 . S
C2369 C2370 1.399 . S
C2369 C2374 1.399 . S
C2370 C2369 1.399 . S
C2370 C2371 1.376 . S
C2371 H2358 0.930 . S
C2371 C2370 1.376 . S
C2371 C2372 1.388 . S
C2372 H2359 0.930 . S
C2372 C2371 1.388 . S
C2372 C2373 1.390 . S
C2373 C2372 1.390 . S
C2373 C2374 1.394 . S
C2373 C2379 1.465 . S
C2374 C2369 1.399 . S
C2374 C2373 1.394 . S
C2374 C2375 1.516 . S
C2375 C2374 1.516 . S
C2375 C2376 1.502 . S
C2375 C2377 1.561 . S
C2375 C2378 1.526 . S
C2376 H2360 0.959 . S
C2376 H2361 0.959 . S
C2376 H2362 0.961 . S
C2376 C2375 1.502 . S
C2377 H2363 0.960 . S
C2377 H2364 0.961 . S
C2377 H2365 0.959 . S
C2377 C2375 1.561 . S
C2378 C2375 1.526 . S
C2378 C2379 1.396 . S
C2378 C2383 1.390 . S
C2379 C2373 1.465 . S
C2379 C2378 1.396 . S
C2379 C2380 1.399 . S
C2380 H2366 0.929 . S
C2380 C2379 1.399 . S
C2380 C2381 1.385 . S
C2381 H2367 0.931 . S
C2381 C2380 1.385 . S
C2381 C2382 1.389 . S
C2382 C2381 1.389 . S
C2382 C2383 1.387 . S
C2383 H2368 0.930 . S
C2383 C2378 1.390 . S
C2383 C2382 1.387 . S
H2384 C2396 0.930 1_565 S
H2385 C2398 0.930 . S
H2386 C2399 0.930 . S
H2387 C2403 0.959 . S
H2388 C2403 0.959 . S
H2389 C2403 0.961 . S
H2390 C2404 0.960 1_565 S
H2391 C2404 0.961 . S
H2392 C2404 0.959 1_565 S
H2393 C2407 0.929 . S
H2394 C2408 0.931 . S
H2395 C2410 0.930 . S
C2396 H2384 0.930 1_545 S
C2396 C2397 1.399 . S
C2396 C2401 1.399 . S
C2397 C2396 1.399 . S
C2397 C2398 1.376 . S
C2398 H2385 0.930 . S
C2398 C2397 1.376 . S
C2398 C2399 1.388 . S
C2399 H2386 0.930 . S
C2399 C2398 1.388 . S
C2399 C2400 1.390 . S
C2400 C2399 1.390 . S
C2400 C2401 1.394 . S
C2400 C2406 1.465 . S
C2401 C2396 1.399 . S
C2401 C2400 1.394 . S
C2401 C2402 1.516 . S
C2402 C2401 1.516 . S
C2402 C2403 1.502 . S
C2402 C2404 1.561 . S
C2402 C2405 1.526 . S
C2403 H2387 0.959 . S
C2403 H2388 0.959 . S
C2403 H2389 0.961 . S
C2403 C2402 1.502 . S
C2404 H2390 0.960 1_545 S
C2404 H2391 0.961 . S
C2404 H2392 0.959 1_545 S
C2404 C2402 1.561 . S
C2405 C2402 1.526 . S
C2405 C2406 1.396 . S
C2405 C2410 1.390 . S
C2406 C2400 1.465 . S
C2406 C2405 1.396 . S
C2406 C2407 1.399 . S
C2407 H2393 0.929 . S
C2407 C2406 1.399 . S
C2407 C2408 1.385 . S
C2408 H2394 0.931 . S
C2408 C2407 1.385 . S
C2408 C2409 1.389 . S
C2409 C2408 1.389 . S
C2409 C2410 1.387 . S
C2410 H2395 0.930 . S
C2410 C2405 1.390 . S
C2410 C2409 1.387 . S
H2411 C2423 0.930 . S
H2412 C2425 0.930 . S
H2413 C2426 0.930 . S
H2414 C2430 0.959 . S
H2415 C2430 0.959 . S
H2416 C2430 0.963 . S
H2417 C2431 0.960 . S
H2418 C2431 0.937 1_545 S
H2419 C2431 0.959 . S
H2420 C2434 0.929 . S
H2421 C2435 0.931 . S
H2422 C2437 0.934 . S
C2423 H2411 0.930 . S
C2423 C2424 1.399 . S
C2423 C2428 1.399 . S
C2424 C2423 1.399 . S
C2424 C2425 1.376 . S
C2425 H2412 0.930 . S
C2425 C2424 1.376 . S
C2425 C2426 1.388 . S
C2426 H2413 0.930 . S
C2426 C2425 1.388 . S
C2426 C2427 1.390 . S
C2427 C2426 1.390 . S
C2427 C2428 1.394 . S
C2427 C2433 1.465 . S
C2428 C2423 1.399 . S
C2428 C2427 1.394 . S
C2428 C2429 1.516 . S
C2429 C2428 1.516 . S
C2429 C2430 1.502 1_565 S
C2429 C2431 1.561 . S
C2429 C2432 1.526 . S
C2430 H2414 0.959 . S
C2430 H2415 0.959 . S
C2430 H2416 0.963 . S
C2430 C2429 1.502 1_545 S
C2431 H2417 0.960 . S
C2431 H2418 0.937 1_565 S
C2431 H2419 0.959 . S
C2431 C2429 1.561 . S
C2432 C2429 1.526 . S
C2432 C2433 1.396 . S
C2432 C2437 1.387 1_565 S
C2433 C2427 1.465 . S
C2433 C2432 1.396 . S
C2433 C2434 1.399 . S
C2434 H2420 0.929 . S
C2434 C2433 1.399 . S
C2434 C2435 1.385 . S
C2435 H2421 0.931 . S
C2435 C2434 1.385 . S
C2435 C2436 1.389 . S
C2436 C2435 1.389 . S
C2436 C2437 1.386 1_565 S
C2437 H2422 0.934 . S
C2437 C2432 1.387 1_545 S
C2437 C2436 1.386 1_545 S
H2438 C2450 0.930 . S
H2439 C2452 0.930 . S
H2440 C2453 0.930 . S
H2441 C2457 0.959 . S
H2442 C2457 0.959 . S
H2443 C2457 0.961 . S
H2444 C2458 0.960 . S
H2445 C2458 0.961 . S
H2446 C2458 0.959 . S
H2447 C2461 0.929 . S
H2448 C2462 0.931 . S
H2449 C2464 0.930 . S
C2450 H2438 0.930 . S
C2450 C2451 1.399 . S
C2450 C2455 1.399 . S
C2451 C2450 1.399 . S
C2451 C2452 1.376 . S
C2452 H2439 0.930 . S
C2452 C2451 1.376 . S
C2452 C2453 1.388 . S
C2453 H2440 0.930 . S
C2453 C2452 1.388 . S
C2453 C2454 1.390 . S
C2454 C2453 1.390 . S
C2454 C2455 1.394 . S
C2454 C2460 1.465 . S
C2455 C2450 1.399 . S
C2455 C2454 1.394 . S
C2455 C2456 1.516 . S
C2456 C2455 1.516 . S
C2456 C2457 1.502 . S
C2456 C2458 1.561 . S
C2456 C2459 1.526 . S
C2457 H2441 0.959 . S
C2457 H2442 0.959 . S
C2457 H2443 0.961 . S
C2457 C2456 1.502 . S
C2458 H2444 0.960 . S
C2458 H2445 0.961 . S
C2458 H2446 0.959 . S
C2458 C2456 1.561 . S
C2459 C2456 1.526 . S
C2459 C2460 1.396 . S
C2459 C2464 1.390 . S
C2460 C2454 1.465 . S
C2460 C2459 1.396 . S
C2460 C2461 1.399 1_565 S
C2461 H2447 0.929 . S
C2461 C2460 1.399 1_545 S
C2461 C2462 1.385 . S
C2462 H2448 0.931 . S
C2462 C2461 1.385 . S
C2462 C2463 1.388 1_545 S
C2463 C2462 1.388 1_565 S
C2463 C2464 1.388 . S
C2464 H2449 0.930 . S
C2464 C2459 1.390 . S
C2464 C2463 1.388 . S
H2465 C2477 0.930 . S
H2466 C2479 0.930 . S
H2467 C2480 0.930 . S
H2468 C2484 0.959 . S
H2469 C2484 0.959 1_565 S
H2470 C2484 0.961 . S
H2471 C2485 0.960 . S
H2472 C2485 0.961 1_565 S
H2473 C2485 0.959 . S
H2474 C2488 0.929 . S
H2475 C2489 0.931 . S
H2476 C2491 0.930 . S
C2477 H2465 0.930 . S
C2477 C2478 1.399 . S
C2477 C2482 1.399 . S
C2478 C2477 1.399 . S
C2478 C2479 1.376 . S
C2479 H2466 0.930 . S
C2479 C2478 1.376 . S
C2479 C2480 1.388 . S
C2480 H2467 0.930 . S
C2480 C2479 1.388 . S
C2480 C2481 1.390 . S
C2481 C2480 1.390 . S
C2481 C2482 1.394 . S
C2481 C2487 1.465 . S
C2482 C2477 1.399 . S
C2482 C2481 1.394 . S
C2482 C2483 1.516 . S
C2483 C2482 1.516 . S
C2483 C2484 1.502 . S
C2483 C2485 1.561 . S
C2483 C2486 1.526 . S
C2484 H2468 0.959 . S
C2484 H2469 0.959 1_545 S
C2484 H2470 0.961 . S
C2484 C2483 1.502 . S
C2485 H2471 0.960 . S
C2485 H2472 0.961 1_545 S
C2485 H2473 0.959 . S
C2485 C2483 1.561 . S
C2486 C2483 1.526 . S
C2486 C2487 1.396 . S
C2486 C2491 1.390 1_545 S
C2487 C2481 1.465 . S
C2487 C2486 1.396 . S
C2487 C2488 1.399 . S
C2488 H2474 0.929 . S
C2488 C2487 1.399 . S
C2488 C2489 1.385 . S
C2489 H2475 0.931 . S
C2489 C2488 1.385 . S
C2489 C2490 1.389 . S
C2490 C2489 1.389 . S
C2490 C2491 1.387 1_545 S
C2491 H2476 0.930 . S
C2491 C2486 1.390 1_565 S
C2491 C2490 1.387 1_565 S
H2492 C2504 0.930 . S
H2493 C2506 0.930 . S
H2494 C2507 0.931 . S
H2495 C2511 0.959 . S
H2496 C2511 0.959 . S
H2497 C2511 0.961 . S
H2498 C2512 0.960 . S
H2499 C2512 0.961 . S
H2500 C2512 0.959 . S
H2501 C2515 0.929 . S
H2502 C2516 0.931 . S
H2503 C2518 0.930 . S
C2504 H2492 0.930 . S
C2504 C2505 1.399 . S
C2504 C2509 1.399 . S
C2505 C2504 1.399 . S
C2505 C2506 1.376 1_565 S
C2506 H2493 0.930 . S
C2506 C2505 1.376 1_545 S
C2506 C2507 1.389 . S
C2507 H2494 0.931 . S
C2507 C2506 1.389 . S
C2507 C2508 1.388 1_545 S
C2508 C2507 1.388 1_565 S
C2508 C2509 1.394 . S
C2508 C2514 1.465 . S
C2509 C2504 1.399 . S
C2509 C2508 1.394 . S
C2509 C2510 1.516 . S
C2510 C2509 1.516 . S
C2510 C2511 1.502 . S
C2510 C2512 1.561 . S
C2510 C2513 1.526 . S
C2511 H2495 0.959 . S
C2511 H2496 0.959 . S
C2511 H2497 0.961 . S
C2511 C2510 1.502 . S
C2512 H2498 0.960 . S
C2512 H2499 0.961 . S
C2512 H2500 0.959 . S
C2512 C2510 1.561 . S
C2513 C2510 1.526 . S
C2513 C2514 1.396 . S
C2513 C2518 1.390 . S
C2514 C2508 1.465 . S
C2514 C2513 1.396 . S
C2514 C2515 1.399 . S
C2515 H2501 0.929 . S
C2515 C2514 1.399 . S
C2515 C2516 1.385 . S
C2516 H2502 0.931 . S
C2516 C2515 1.385 . S
C2516 C2517 1.389 . S
C2517 C2516 1.389 . S
C2517 C2518 1.387 . S
C2518 H2503 0.930 . S
C2518 C2513 1.390 . S
C2518 C2517 1.387 . S
H2519 C2531 0.930 . S
H2520 C2533 0.930 . S
H2521 C2534 0.930 . S
H2522 C2538 0.959 . S
H2523 C2538 0.959 . S
H2524 C2538 0.961 . S
H2525 C2539 0.960 . S
H2526 C2539 0.961 . S
H2527 C2539 0.959 . S
H2528 C2542 0.929 . S
H2529 C2543 0.931 . S
H2530 C2545 0.930 . S
C2531 H2519 0.930 . S
C2531 C2532 1.403 . S
C2531 C2536 1.399 . S
C2532 C2531 1.403 . S
C2532 C2533 1.374 1_545 S
C2533 H2520 0.930 . S
C2533 C2532 1.374 1_565 S
C2533 C2534 1.388 . S
C2534 H2521 0.930 . S
C2534 C2533 1.388 . S
C2534 C2535 1.390 1_565 S
C2535 C2534 1.390 1_545 S
C2535 C2536 1.394 . S
C2535 C2541 1.465 . S
C2536 C2531 1.399 . S
C2536 C2535 1.394 . S
C2536 C2537 1.516 . S
C2537 C2536 1.516 . S
C2537 C2538 1.502 . S
C2537 C2539 1.561 . S
C2537 C2540 1.526 . S
C2538 H2522 0.959 . S
C2538 H2523 0.959 . S
C2538 H2524 0.961 . S
C2538 C2537 1.502 . S
C2539 H2525 0.960 . S
C2539 H2526 0.961 . S
C2539 H2527 0.959 . S
C2539 C2537 1.561 . S
C2540 C2537 1.526 . S
C2540 C2541 1.396 . S
C2540 C2545 1.390 . S
C2541 C2535 1.465 . S
C2541 C2540 1.396 . S
C2541 C2542 1.399 . S
C2542 H2528 0.929 . S
C2542 C2541 1.399 . S
C2542 C2543 1.385 . S
C2543 H2529 0.931 . S
C2543 C2542 1.385 . S
C2543 C2544 1.389 . S
C2544 C2543 1.389 . S
C2544 C2545 1.387 . S
C2545 H2530 0.930 . S
C2545 C2540 1.390 . S
C2545 C2544 1.387 . S
H2546 C2558 0.951 . S
H2547 C2560 0.930 . S
H2548 C2561 0.930 . S
H2549 C2565 0.959 1_545 S
H2550 C2565 0.959 . S
H2551 C2565 0.961 . S
H2552 C2566 0.969 . S
H2553 C2566 0.961 . S
H2554 C2566 0.959 . S
H2555 C2569 0.929 . S
H2556 C2570 0.931 . S
H2557 C2572 0.930 . S
C2558 H2546 0.951 . S
C2558 C2559 1.395 1_565 S
C2558 C2563 1.382 1_565 S
C2559 C2558 1.395 1_545 S
C2559 C2560 1.376 . S
C2560 H2547 0.930 . S
C2560 C2559 1.376 . S
C2560 C2561 1.388 . S
C2561 H2548 0.930 . S
C2561 C2560 1.388 . S
C2561 C2562 1.390 . S
C2562 C2561 1.390 . S
C2562 C2563 1.394 . S
C2562 C2568 1.465 . S
C2563 C2558 1.382 1_545 S
C2563 C2562 1.394 . S
C2563 C2564 1.516 . S
C2564 C2563 1.516 . S
C2564 C2565 1.502 1_545 S
C2564 C2566 1.561 . S
C2564 C2567 1.526 . S
C2565 H2549 0.959 1_565 S
C2565 H2550 0.959 . S
C2565 H2551 0.961 . S
C2565 C2564 1.502 1_565 S
C2566 H2552 0.969 . S
C2566 H2553 0.961 . S
C2566 H2554 0.959 . S
C2566 C2564 1.561 . S
C2567 C2564 1.526 . S
C2567 C2568 1.396 . S
C2567 C2572 1.390 . S
C2568 C2562 1.465 . S
C2568 C2567 1.396 . S
C2568 C2569 1.399 . S
C2569 H2555 0.929 . S
C2569 C2568 1.399 . S
C2569 C2570 1.385 . S
C2570 H2556 0.931 . S
C2570 C2569 1.385 . S
C2570 C2571 1.389 . S
C2571 C2570 1.389 . S
C2571 C2572 1.387 . S
C2572 H2557 0.930 . S
C2572 C2567 1.390 . S
C2572 C2571 1.387 . S
H2573 C2585 0.930 . S
H2574 C2587 0.930 . S
H2575 C2588 0.930 . S
H2576 C2592 0.959 . S
H2577 C2592 0.959 . S
H2578 C2592 0.961 . S
H2579 C2593 0.960 . S
H2580 C2593 0.961 . S
H2581 C2593 0.959 . S
H2582 C2596 0.929 . S
H2583 C2597 0.931 1_545 S
H2584 C2599 0.930 . S
C2585 H2573 0.930 . S
C2585 C2586 1.399 . S
C2585 C2590 1.399 . S
C2586 C2585 1.399 . S
C2586 C2587 1.376 . S
C2587 H2574 0.930 . S
C2587 C2586 1.376 . S
C2587 C2588 1.388 . S
C2588 H2575 0.930 . S
C2588 C2587 1.388 . S
C2588 C2589 1.390 . S
C2589 C2588 1.390 . S
C2589 C2590 1.394 . S
C2589 C2595 1.465 . S
C2590 C2585 1.399 . S
C2590 C2589 1.394 . S
C2590 C2591 1.516 . S
C2591 C2590 1.516 . S
C2591 C2592 1.502 . S
C2591 C2593 1.561 . S
C2591 C2594 1.526 . S
C2592 H2576 0.959 . S
C2592 H2577 0.959 . S
C2592 H2578 0.961 . S
C2592 C2591 1.502 . S
C2593 H2579 0.960 . S
C2593 H2580 0.961 . S
C2593 H2581 0.959 . S
C2593 C2591 1.561 . S
C2594 C2591 1.526 . S
C2594 C2595 1.396 . S
C2594 C2599 1.390 . S
C2595 C2589 1.465 . S
C2595 C2594 1.396 . S
C2595 C2596 1.399 . S
C2596 H2582 0.929 . S
C2596 C2595 1.399 . S
C2596 C2597 1.385 . S
C2597 H2583 0.931 1_565 S
C2597 C2596 1.385 . S
C2597 C2598 1.389 . S
C2598 C2597 1.389 . S
C2598 C2599 1.387 . S
C2599 H2584 0.930 . S
C2599 C2594 1.390 . S
C2599 C2598 1.387 . S
H2600 C2612 0.930 . S
H2601 C2614 0.930 . S
H2602 C2615 0.930 . S
H2603 C2619 0.959 . S
H2604 C2619 0.959 . S
H2605 C2619 0.961 . S
H2606 C2620 0.960 . S
H2607 C2620 0.961 . S
H2608 C2620 0.959 . S
H2609 C2623 0.929 . S
H2610 C2624 0.931 . S
H2611 C2626 0.930 . S
C2612 H2600 0.930 . S
C2612 C2613 1.399 . S
C2612 C2617 1.399 . S
C2613 C2612 1.399 . S
C2613 C2614 1.376 . S
C2614 H2601 0.930 . S
C2614 C2613 1.376 . S
C2614 C2615 1.388 . S
C2615 H2602 0.930 . S
C2615 C2614 1.388 . S
C2615 C2616 1.390 . S
C2616 C2615 1.390 . S
C2616 C2617 1.394 . S
C2616 C2622 1.465 . S
C2617 C2612 1.399 . S
C2617 C2616 1.394 . S
C2617 C2618 1.516 . S
C2618 C2617 1.516 . S
C2618 C2619 1.502 . S
C2618 C2620 1.561 . S
C2618 C2621 1.526 . S
C2619 H2603 0.959 . S
C2619 H2604 0.959 . S
C2619 H2605 0.961 . S
C2619 C2618 1.502 . S
C2620 H2606 0.960 . S
C2620 H2607 0.961 . S
C2620 H2608 0.959 . S
C2620 C2618 1.561 . S
C2621 C2618 1.526 . S
C2621 C2622 1.396 . S
C2621 C2626 1.390 . S
C2622 C2616 1.465 . S
C2622 C2621 1.396 . S
C2622 C2623 1.399 . S
C2623 H2609 0.929 . S
C2623 C2622 1.399 . S
C2623 C2624 1.385 . S
C2624 H2610 0.931 . S
C2624 C2623 1.385 . S
C2624 C2625 1.389 . S
C2625 C2624 1.389 . S
C2625 C2626 1.387 . S
C2626 H2611 0.930 . S
C2626 C2621 1.390 . S
C2626 C2625 1.387 . S
H2627 C2639 0.930 . S
H2628 C2641 0.930 . S
H2629 C2642 0.930 . S
H2630 C2646 0.959 . S
H2631 C2646 0.959 . S
H2632 C2646 0.961 . S
H2633 C2647 0.960 . S
H2634 C2647 0.961 . S
H2635 C2647 0.959 . S
H2636 C2650 0.929 . S
H2637 C2651 0.931 . S
H2638 C2653 0.930 . S
C2639 H2627 0.930 . S
C2639 C2640 1.399 . S
C2639 C2644 1.399 . S
C2640 C2639 1.399 . S
C2640 C2641 1.376 . S
C2641 H2628 0.930 . S
C2641 C2640 1.376 . S
C2641 C2642 1.388 . S
C2642 H2629 0.930 . S
C2642 C2641 1.388 . S
C2642 C2643 1.390 . S
C2643 C2642 1.390 . S
C2643 C2644 1.394 . S
C2643 C2649 1.465 . S
C2644 C2639 1.399 . S
C2644 C2643 1.394 . S
C2644 C2645 1.516 . S
C2645 C2644 1.516 . S
C2645 C2646 1.502 . S
C2645 C2647 1.561 . S
C2645 C2648 1.526 . S
C2646 H2630 0.959 . S
C2646 H2631 0.959 . S
C2646 H2632 0.961 . S
C2646 C2645 1.502 . S
C2647 H2633 0.960 . S
C2647 H2634 0.961 . S
C2647 H2635 0.959 . S
C2647 C2645 1.561 . S
C2648 C2645 1.526 . S
C2648 C2649 1.396 . S
C2648 C2653 1.390 . S
C2649 C2643 1.465 . S
C2649 C2648 1.396 . S
C2649 C2650 1.399 . S
C2650 H2636 0.929 . S
C2650 C2649 1.399 . S
C2650 C2651 1.385 . S
C2651 H2637 0.931 . S
C2651 C2650 1.385 . S
C2651 C2652 1.389 . S
C2652 C2651 1.389 . S
C2652 C2653 1.387 . S
C2653 H2638 0.930 . S
C2653 C2648 1.390 . S
C2653 C2652 1.387 . S
H2654 C2666 0.930 . S
H2655 C2668 0.930 . S
H2656 C2669 0.930 . S
H2657 C2673 0.959 . S
H2658 C2673 0.959 . S
H2659 C2673 0.961 . S
H2660 C2674 0.960 . S
H2661 C2674 0.961 . S
H2662 C2674 0.959 . S
H2663 C2677 0.929 . S
H2664 C2678 0.931 . S
H2665 C2680 0.930 . S
C2666 H2654 0.930 . S
C2666 C2667 1.399 . S
C2666 C2671 1.399 . S
C2667 C2666 1.399 . S
C2667 C2668 1.376 . S
C2668 H2655 0.930 . S
C2668 C2667 1.376 . S
C2668 C2669 1.388 . S
C2669 H2656 0.930 . S
C2669 C2668 1.388 . S
C2669 C2670 1.390 . S
C2670 C2669 1.390 . S
C2670 C2671 1.394 . S
C2670 C2676 1.465 . S
C2671 C2666 1.399 . S
C2671 C2670 1.394 . S
C2671 C2672 1.516 . S
C2672 C2671 1.516 . S
C2672 C2673 1.502 . S
C2672 C2674 1.561 . S
C2672 C2675 1.526 . S
C2673 H2657 0.959 . S
C2673 H2658 0.959 . S
C2673 H2659 0.961 . S
C2673 C2672 1.502 . S
C2674 H2660 0.960 . S
C2674 H2661 0.961 . S
C2674 H2662 0.959 . S
C2674 C2672 1.561 . S
C2675 C2672 1.526 . S
C2675 C2676 1.396 . S
C2675 C2680 1.390 . S
C2676 C2670 1.465 . S
C2676 C2675 1.396 . S
C2676 C2677 1.399 . S
C2677 H2663 0.929 . S
C2677 C2676 1.399 . S
C2677 C2678 1.385 . S
C2678 H2664 0.931 . S
C2678 C2677 1.385 . S
C2678 C2679 1.389 . S
C2679 C2678 1.389 . S
C2679 C2680 1.387 . S
C2680 H2665 0.930 . S
C2680 C2675 1.390 . S
C2680 C2679 1.387 . S
H2681 C2693 0.930 . S
H2682 C2695 0.930 . S
H2683 C2696 0.930 . S
H2684 C2700 0.959 . S
H2685 C2700 0.959 . S
H2686 C2700 0.961 . S
H2687 C2701 0.960 . S
H2688 C2701 0.961 . S
H2689 C2701 0.959 . S
H2690 C2704 0.929 . S
H2691 C2705 0.931 . S
H2692 C2707 0.930 . S
C2693 H2681 0.930 . S
C2693 C2694 1.399 . S
C2693 C2698 1.399 . S
C2694 C2693 1.399 . S
C2694 C2695 1.376 . S
C2695 H2682 0.930 . S
C2695 C2694 1.376 . S
C2695 C2696 1.388 . S
C2696 H2683 0.930 . S
C2696 C2695 1.388 . S
C2696 C2697 1.390 . S
C2697 C2696 1.390 . S
C2697 C2698 1.394 . S
C2697 C2703 1.465 . S
C2698 C2693 1.399 . S
C2698 C2697 1.394 . S
C2698 C2699 1.516 . S
C2699 C2698 1.516 . S
C2699 C2700 1.502 . S
C2699 C2701 1.561 . S
C2699 C2702 1.526 . S
C2700 H2684 0.959 . S
C2700 H2685 0.959 . S
C2700 H2686 0.961 . S
C2700 C2699 1.502 . S
C2701 H2687 0.960 . S
C2701 H2688 0.961 . S
C2701 H2689 0.959 . S
C2701 C2699 1.561 . S
C2702 C2699 1.526 . S
C2702 C2703 1.396 . S
C2702 C2707 1.390 . S
C2703 C2697 1.465 . S
C2703 C2702 1.396 . S
C2703 C2704 1.399 . S
C2704 H2690 0.929 . S
C2704 C2703 1.399 . S
C2704 C2705 1.385 . S
C2705 H2691 0.931 . S
C2705 C2704 1.385 . S
C2705 C2706 1.389 . S
C2706 C2705 1.389 . S
C2706 C2707 1.387 . S
C2707 H2692 0.930 . S
C2707 C2702 1.390 . S
C2707 C2706 1.387 . S
H2708 C2720 0.930 . S
H2709 C2722 0.930 . S
H2710 C2723 0.930 . S
H2711 C2727 0.959 . S
H2712 C2727 0.959 . S
H2713 C2727 0.961 . S
H2714 C2728 0.960 . S
H2715 C2728 0.961 . S
H2716 C2728 0.959 . S
H2717 C2731 0.929 . S
H2718 C2732 0.931 . S
H2719 C2734 0.930 . S
C2720 H2708 0.930 . S
C2720 C2721 1.399 . S
C2720 C2725 1.399 . S
C2721 C2720 1.399 . S
C2721 C2722 1.376 . S
C2722 H2709 0.930 . S
C2722 C2721 1.376 . S
C2722 C2723 1.388 . S
C2723 H2710 0.930 . S
C2723 C2722 1.388 . S
C2723 C2724 1.390 . S
C2724 C2723 1.390 . S
C2724 C2725 1.394 . S
C2724 C2730 1.465 . S
C2725 C2720 1.399 . S
C2725 C2724 1.394 . S
C2725 C2726 1.516 . S
C2726 C2725 1.516 . S
C2726 C2727 1.502 . S
C2726 C2728 1.561 . S
C2726 C2729 1.526 . S
C2727 H2711 0.959 . S
C2727 H2712 0.959 . S
C2727 H2713 0.961 . S
C2727 C2726 1.502 . S
C2728 H2714 0.960 . S
C2728 H2715 0.961 . S
C2728 H2716 0.959 . S
C2728 C2726 1.561 . S
C2729 C2726 1.526 . S
C2729 C2730 1.396 . S
C2729 C2734 1.390 . S
C2730 C2724 1.465 . S
C2730 C2729 1.396 . S
C2730 C2731 1.399 . S
C2731 H2717 0.929 . S
C2731 C2730 1.399 . S
C2731 C2732 1.385 . S
C2732 H2718 0.931 . S
C2732 C2731 1.385 . S
C2732 C2733 1.389 . S
C2733 C2732 1.389 . S
C2733 C2734 1.387 . S
C2734 H2719 0.930 . S
C2734 C2729 1.390 . S
C2734 C2733 1.387 . S
H2735 C2747 0.930 . S
H2736 C2749 0.930 . S
H2737 C2750 0.930 . S
H2738 C2754 0.959 . S
H2739 C2754 0.959 . S
H2740 C2754 0.961 . S
H2741 C2755 0.960 . S
H2742 C2755 0.961 . S
H2743 C2755 0.959 . S
H2744 C2758 0.929 . S
H2745 C2759 0.931 . S
H2746 C2761 0.930 . S
C2747 H2735 0.930 . S
C2747 C2748 1.399 . S
C2747 C2752 1.399 . S
C2748 C2747 1.399 . S
C2748 C2749 1.376 . S
C2749 H2736 0.930 . S
C2749 C2748 1.376 . S
C2749 C2750 1.388 . S
C2750 H2737 0.930 . S
C2750 C2749 1.388 . S
C2750 C2751 1.390 . S
C2751 C2750 1.390 . S
C2751 C2752 1.394 . S
C2751 C2757 1.465 . S
C2752 C2747 1.399 . S
C2752 C2751 1.394 . S
C2752 C2753 1.516 . S
C2753 C2752 1.516 . S
C2753 C2754 1.502 . S
C2753 C2755 1.561 . S
C2753 C2756 1.526 . S
C2754 H2738 0.959 . S
C2754 H2739 0.959 . S
C2754 H2740 0.961 . S
C2754 C2753 1.502 . S
C2755 H2741 0.960 . S
C2755 H2742 0.961 . S
C2755 H2743 0.959 . S
C2755 C2753 1.561 . S
C2756 C2753 1.526 . S
C2756 C2757 1.396 . S
C2756 C2761 1.390 . S
C2757 C2751 1.465 . S
C2757 C2756 1.396 . S
C2757 C2758 1.399 . S
C2758 H2744 0.929 . S
C2758 C2757 1.399 . S
C2758 C2759 1.385 . S
C2759 H2745 0.931 . S
C2759 C2758 1.385 . S
C2759 C2760 1.389 . S
C2760 C2759 1.389 . S
C2760 C2761 1.387 . S
C2761 H2746 0.930 . S
C2761 C2756 1.390 . S
C2761 C2760 1.387 . S
H2762 C2774 0.930 . S
H2763 C2776 0.930 . S
H2764 C2777 0.930 . S
H2765 C2781 0.959 . S
H2766 C2781 0.959 . S
H2767 C2781 0.961 . S
H2768 C2782 0.960 . S
H2769 C2782 0.961 . S
H2770 C2782 0.959 . S
H2771 C2785 0.929 . S
H2772 C2786 0.931 . S
H2773 C2788 0.930 . S
C2774 H2762 0.930 . S
C2774 C2775 1.399 . S
C2774 C2779 1.399 . S
C2775 C2774 1.399 . S
C2775 C2776 1.376 . S
C2776 H2763 0.930 . S
C2776 C2775 1.376 . S
C2776 C2777 1.388 . S
C2777 H2764 0.930 . S
C2777 C2776 1.388 . S
C2777 C2778 1.390 . S
C2778 C2777 1.390 . S
C2778 C2779 1.394 . S
C2778 C2784 1.465 . S
C2779 C2774 1.399 . S
C2779 C2778 1.394 . S
C2779 C2780 1.516 . S
C2780 C2779 1.516 . S
C2780 C2781 1.502 . S
C2780 C2782 1.561 . S
C2780 C2783 1.526 . S
C2781 H2765 0.959 . S
C2781 H2766 0.959 . S
C2781 H2767 0.961 . S
C2781 C2780 1.502 . S
C2782 H2768 0.960 . S
C2782 H2769 0.961 . S
C2782 H2770 0.959 . S
C2782 C2780 1.561 . S
C2783 C2780 1.526 . S
C2783 C2784 1.396 . S
C2783 C2788 1.390 . S
C2784 C2778 1.465 . S
C2784 C2783 1.396 . S
C2784 C2785 1.399 . S
C2785 H2771 0.929 . S
C2785 C2784 1.399 . S
C2785 C2786 1.385 . S
C2786 H2772 0.931 . S
C2786 C2785 1.385 . S
C2786 C2787 1.389 . S
C2787 C2786 1.389 . S
C2787 C2788 1.387 . S
C2788 H2773 0.930 . S
C2788 C2783 1.390 . S
C2788 C2787 1.387 . S
H2789 C2801 0.930 . S
H2790 C2803 0.930 . S
H2791 C2804 0.930 . S
H2792 C2808 0.959 . S
H2793 C2808 0.959 . S
H2794 C2808 0.961 . S
H2795 C2809 0.960 . S
H2796 C2809 0.961 . S
H2797 C2809 0.959 . S
H2798 C2812 0.929 . S
H2799 C2813 0.931 . S
H2800 C2815 0.930 . S
C2801 H2789 0.930 . S
C2801 C2802 1.399 . S
C2801 C2806 1.399 . S
C2802 C2801 1.399 . S
C2802 C2803 1.376 . S
C2803 H2790 0.930 . S
C2803 C2802 1.376 . S
C2803 C2804 1.388 . S
C2804 H2791 0.930 . S
C2804 C2803 1.388 . S
C2804 C2805 1.390 . S
C2805 C2804 1.390 . S
C2805 C2806 1.394 . S
C2805 C2811 1.465 . S
C2806 C2801 1.399 . S
C2806 C2805 1.394 . S
C2806 C2807 1.516 . S
C2807 C2806 1.516 . S
C2807 C2808 1.502 . S
C2807 C2809 1.561 . S
C2807 C2810 1.526 . S
C2808 H2792 0.959 . S
C2808 H2793 0.959 . S
C2808 H2794 0.961 . S
C2808 C2807 1.502 . S
C2809 H2795 0.960 . S
C2809 H2796 0.961 . S
C2809 H2797 0.959 . S
C2809 C2807 1.561 . S
C2810 C2807 1.526 . S
C2810 C2811 1.396 . S
C2810 C2815 1.390 . S
C2811 C2805 1.465 . S
C2811 C2810 1.396 . S
C2811 C2812 1.399 . S
C2812 H2798 0.929 . S
C2812 C2811 1.399 . S
C2812 C2813 1.385 . S
C2813 H2799 0.931 . S
C2813 C2812 1.385 . S
C2813 C2814 1.389 . S
C2814 C2813 1.389 . S
C2814 C2815 1.387 . S
C2815 H2800 0.930 . S
C2815 C2810 1.390 . S
C2815 C2814 1.387 . S
H2816 C2828 0.930 . S
H2817 C2830 0.930 . S
H2818 C2831 0.930 . S
H2819 C2835 0.959 . S
H2820 C2835 0.959 . S
H2821 C2835 0.961 . S
H2822 C2836 0.960 . S
H2823 C2836 0.961 . S
H2824 C2836 0.959 . S
H2825 C2839 0.929 . S
H2826 C2840 0.931 . S
H2827 C2842 0.930 . S
C2828 H2816 0.930 . S
C2828 C2829 1.399 . S
C2828 C2833 1.399 . S
C2829 C2828 1.399 . S
C2829 C2830 1.376 . S
C2830 H2817 0.930 . S
C2830 C2829 1.376 . S
C2830 C2831 1.388 . S
C2831 H2818 0.930 . S
C2831 C2830 1.388 . S
C2831 C2832 1.390 . S
C2832 C2831 1.390 . S
C2832 C2833 1.394 . S
C2832 C2838 1.465 . S
C2833 C2828 1.399 . S
C2833 C2832 1.394 . S
C2833 C2834 1.516 . S
C2834 C2833 1.516 . S
C2834 C2835 1.502 . S
C2834 C2836 1.561 . S
C2834 C2837 1.526 . S
C2835 H2819 0.959 . S
C2835 H2820 0.959 . S
C2835 H2821 0.961 . S
C2835 C2834 1.502 . S
C2836 H2822 0.960 . S
C2836 H2823 0.961 . S
C2836 H2824 0.959 . S
C2836 C2834 1.561 . S
C2837 C2834 1.526 . S
C2837 C2838 1.396 . S
C2837 C2842 1.390 . S
C2838 C2832 1.465 . S
C2838 C2837 1.396 . S
C2838 C2839 1.399 . S
C2839 H2825 0.929 . S
C2839 C2838 1.399 . S
C2839 C2840 1.385 . S
C2840 H2826 0.931 . S
C2840 C2839 1.385 . S
C2840 C2841 1.389 . S
C2841 C2840 1.389 . S
C2841 C2842 1.387 . S
C2842 H2827 0.930 . S
C2842 C2837 1.390 . S
C2842 C2841 1.387 . S
H2843 C2855 0.930 . S
H2844 C2857 0.930 . S
H2845 C2858 0.930 . S
H2846 C2862 0.959 . S
H2847 C2862 0.959 . S
H2848 C2862 0.961 . S
H2849 C2863 0.960 1_655 S
H2850 C2863 0.961 . S
H2851 C2863 0.959 1_655 S
H2852 C2866 0.929 1_655 S
H2853 C2867 0.931 . S
H2854 C2869 0.930 . S
C2855 H2843 0.930 . S
C2855 C2856 1.399 . S
C2855 C2860 1.399 . S
C2856 C2855 1.399 . S
C2856 C2857 1.376 . S
C2857 H2844 0.930 . S
C2857 C2856 1.376 . S
C2857 C2858 1.388 1_565 S
C2858 H2845 0.930 . S
C2858 C2857 1.388 1_545 S
C2858 C2859 1.390 . S
C2859 C2858 1.390 . S
C2859 C2860 1.394 1_545 S
C2859 C2865 1.465 1_655 S
C2860 C2855 1.399 . S
C2860 C2859 1.394 1_565 S
C2860 C2861 1.516 1_655 S
C2861 C2860 1.516 1_455 S
C2861 C2862 1.502 . S
C2861 C2863 1.561 . S
C2861 C2864 1.526 1_565 S
C2862 H2846 0.959 . S
C2862 H2847 0.959 . S
C2862 H2848 0.961 . S
C2862 C2861 1.502 . S
C2863 H2849 0.960 1_455 S
C2863 H2850 0.961 . S
C2863 H2851 0.959 1_455 S
C2863 C2861 1.561 . S
C2864 C2861 1.526 1_545 S
C2864 C2865 1.396 . S
C2864 C2869 1.390 . S
C2865 C2859 1.465 1_455 S
C2865 C2864 1.396 . S
C2865 C2866 1.399 . S
C2866 H2852 0.929 1_455 S
C2866 C2865 1.399 . S
C2866 C2867 1.385 . S
C2867 H2853 0.931 . S
C2867 C2866 1.385 . S
C2867 C2868 1.389 . S
C2868 C2867 1.389 . S
C2868 C2869 1.387 . S
C2869 H2854 0.930 . S
C2869 C2864 1.390 . S
C2869 C2868 1.387 . S
H2870 C2882 0.930 . S
H2871 C2884 0.930 . S
H2872 C2885 0.930 . S
H2873 C2889 0.959 . S
H2874 C2889 0.959 . S
H2875 C2889 0.961 . S
H2876 C2890 0.960 . S
H2877 C2890 0.961 . S
H2878 C2890 0.959 . S
H2879 C2893 0.929 . S
H2880 C2894 0.931 . S
H2881 C2896 0.930 . S
C2882 H2870 0.930 . S
C2882 C2883 1.399 . S
C2882 C2887 1.399 . S
C2883 C2882 1.399 . S
C2883 C2884 1.376 . S
C2884 H2871 0.930 . S
C2884 C2883 1.376 . S
C2884 C2885 1.388 . S
C2885 H2872 0.930 . S
C2885 C2884 1.388 . S
C2885 C2886 1.390 . S
C2886 C2885 1.390 . S
C2886 C2887 1.394 . S
C2886 C2892 1.465 . S
C2887 C2882 1.399 . S
C2887 C2886 1.394 . S
C2887 C2888 1.516 . S
C2888 C2887 1.516 . S
C2888 C2889 1.502 . S
C2888 C2890 1.561 . S
C2888 C2891 1.526 . S
C2889 H2873 0.959 . S
C2889 H2874 0.959 . S
C2889 H2875 0.961 . S
C2889 C2888 1.502 . S
C2890 H2876 0.960 . S
C2890 H2877 0.961 . S
C2890 H2878 0.959 . S
C2890 C2888 1.561 . S
C2891 C2888 1.526 . S
C2891 C2892 1.396 . S
C2891 C2896 1.390 . S
C2892 C2886 1.465 . S
C2892 C2891 1.396 . S
C2892 C2893 1.399 . S
C2893 H2879 0.929 . S
C2893 C2892 1.399 . S
C2893 C2894 1.385 . S
C2894 H2880 0.931 . S
C2894 C2893 1.385 . S
C2894 C2895 1.389 . S
C2895 C2894 1.389 . S
C2895 C2896 1.387 . S
C2896 H2881 0.930 . S
C2896 C2891 1.390 . S
C2896 C2895 1.387 . S
H2897 C2909 0.930 1_554 S
H2898 C2911 0.930 . S
H2899 C2912 0.930 1_545 S
H2900 C2916 0.959 . S
H2901 C2916 0.959 . S
H2902 C2916 0.961 . S
H2903 C2917 0.960 . S
H2904 C2917 0.961 . S
H2905 C2917 0.959 . S
H2906 C2920 0.929 . S
H2907 C2921 0.913 1_556 S
H2908 C2923 0.930 . S
C2909 H2897 0.930 1_556 S
C2909 C2910 1.399 . S
C2909 C2914 1.414 . S
C2910 C2909 1.399 . S
C2910 C2911 1.376 . S
C2911 H2898 0.930 . S
C2911 C2910 1.376 . S
C2911 C2912 1.388 . S
C2912 H2899 0.930 1_565 S
C2912 C2911 1.388 . S
C2912 C2913 1.390 . S
C2913 C2912 1.390 . S
C2913 C2914 1.428 . S
C2913 C2919 1.465 1_565 S
C2914 C2909 1.414 . S
C2914 C2913 1.428 . S
C2914 C2915 1.471 1_556 S
C2915 C2914 1.471 1_554 S
C2915 C2916 1.502 . S
C2915 C2917 1.561 . S
C2915 C2918 1.526 1_565 S
C2916 H2900 0.959 . S
C2916 H2901 0.959 . S
C2916 H2902 0.961 . S
C2916 C2915 1.502 . S
C2917 H2903 0.960 . S
C2917 H2904 0.961 . S
C2917 H2905 0.959 . S
C2917 C2915 1.561 . S
C2918 C2915 1.526 1_545 S
C2918 C2919 1.396 1_554 S
C2918 C2923 1.390 . S
C2919 C2913 1.465 1_545 S
C2919 C2918 1.396 1_556 S
C2919 C2920 1.399 . S
C2920 H2906 0.929 . S
C2920 C2919 1.399 . S
C2920 C2921 1.385 1_556 S
C2921 H2907 0.913 1_554 S
C2921 C2920 1.385 1_554 S
C2921 C2922 1.389 . S
C2922 C2921 1.389 . S
C2922 C2923 1.387 . S
C2923 H2908 0.930 . S
C2923 C2918 1.390 . S
C2923 C2922 1.387 . S
H2924 C2936 0.930 . S
H2925 C2938 0.930 . S
H2926 C2939 0.930 . S
H2927 C2943 0.959 . S
H2928 C2943 0.959 . S
H2929 C2943 0.961 . S
H2930 C2944 0.960 . S
H2931 C2944 0.961 . S
H2932 C2944 0.959 . S
H2933 C2947 0.929 . S
H2934 C2948 0.931 . S
H2935 C2950 0.930 . S
C2936 H2924 0.930 . S
C2936 C2937 1.399 . S
C2936 C2941 1.399 . S
C2937 C2936 1.399 . S
C2937 C2938 1.376 . S
C2938 H2925 0.930 . S
C2938 C2937 1.376 . S
C2938 C2939 1.388 . S
C2939 H2926 0.930 . S
C2939 C2938 1.388 . S
C2939 C2940 1.390 . S
C2940 C2939 1.390 . S
C2940 C2941 1.394 . S
C2940 C2946 1.465 . S
C2941 C2936 1.399 . S
C2941 C2940 1.394 . S
C2941 C2942 1.516 . S
C2942 C2941 1.516 . S
C2942 C2943 1.502 . S
C2942 C2944 1.561 . S
C2942 C2945 1.526 . S
C2943 H2927 0.959 . S
C2943 H2928 0.959 . S
C2943 H2929 0.961 . S
C2943 C2942 1.502 . S
C2944 H2930 0.960 . S
C2944 H2931 0.961 . S
C2944 H2932 0.959 . S
C2944 C2942 1.561 . S
C2945 C2942 1.526 . S
C2945 C2946 1.396 . S
C2945 C2950 1.390 . S
C2946 C2940 1.465 . S
C2946 C2945 1.396 . S
C2946 C2947 1.399 . S
C2947 H2933 0.929 . S
C2947 C2946 1.399 . S
C2947 C2948 1.385 . S
C2948 H2934 0.931 . S
C2948 C2947 1.385 . S
C2948 C2949 1.389 . S
C2949 C2948 1.389 . S
C2949 C2950 1.387 . S
C2950 H2935 0.930 . S
C2950 C2945 1.390 . S
C2950 C2949 1.387 . S
H2951 C2963 0.930 . S
H2952 C2965 0.930 . S
H2953 C2966 0.930 . S
H2954 C2970 0.959 . S
H2955 C2970 0.959 . S
H2956 C2970 0.961 . S
H2957 C2971 0.960 . S
H2958 C2971 0.961 . S
H2959 C2971 0.959 . S
H2960 C2974 0.929 . S
H2961 C2975 0.931 . S
H2962 C2977 0.930 . S
C2963 H2951 0.930 . S
C2963 C2964 1.399 . S
C2963 C2968 1.399 . S
C2964 C2963 1.399 . S
C2964 C2965 1.376 . S
C2965 H2952 0.930 . S
C2965 C2964 1.376 . S
C2965 C2966 1.388 . S
C2966 H2953 0.930 . S
C2966 C2965 1.388 . S
C2966 C2967 1.390 . S
C2967 C2966 1.390 . S
C2967 C2968 1.394 . S
C2967 C2973 1.465 1_545 S
C2968 C2963 1.399 . S
C2968 C2967 1.394 . S
C2968 C2969 1.516 1_545 S
C2969 C2968 1.516 1_565 S
C2969 C2970 1.502 . S
C2969 C2971 1.561 . S
C2969 C2972 1.526 . S
C2970 H2954 0.959 . S
C2970 H2955 0.959 . S
C2970 H2956 0.961 . S
C2970 C2969 1.502 . S
C2971 H2957 0.960 . S
C2971 H2958 0.961 . S
C2971 H2959 0.959 . S
C2971 C2969 1.561 . S
C2972 C2969 1.526 . S
C2972 C2973 1.396 . S
C2972 C2977 1.390 . S
C2973 C2967 1.465 1_565 S
C2973 C2972 1.396 . S
C2973 C2974 1.399 1_565 S
C2974 H2960 0.929 . S
C2974 C2973 1.399 1_545 S
C2974 C2975 1.385 1_545 S
C2975 H2961 0.931 . S
C2975 C2974 1.385 1_565 S
C2975 C2976 1.389 . S
C2976 C2975 1.389 . S
C2976 C2977 1.387 . S
C2977 H2962 0.930 . S
C2977 C2972 1.390 . S
C2977 C2976 1.387 . S
H2978 C2990 0.930 . S
H2979 C2992 0.930 . S
H2980 C2993 0.930 . S
H2981 C2997 0.959 . S
H2982 C2997 0.959 . S
H2983 C2997 0.961 . S
H2984 C2998 0.960 . S
H2985 C2998 0.961 . S
H2986 C2998 0.959 . S
H2987 C3001 0.929 . S
H2988 C3002 0.931 . S
H2989 C3004 0.930 . S
C2990 H2978 0.930 . S
C2990 C2991 1.399 . S
C2990 C2995 1.399 . S
C2991 C2990 1.399 . S
C2991 C2992 1.376 . S
C2992 H2979 0.930 . S
C2992 C2991 1.376 . S
C2992 C2993 1.388 . S
C2993 H2980 0.930 . S
C2993 C2992 1.388 . S
C2993 C2994 1.390 . S
C2994 C2993 1.390 . S
C2994 C2995 1.394 . S
C2994 C3000 1.465 . S
C2995 C2990 1.399 . S
C2995 C2994 1.394 . S
C2995 C2996 1.516 . S
C2996 C2995 1.516 . S
C2996 C2997 1.502 . S
C2996 C2998 1.561 . S
C2996 C2999 1.526 . S
C2997 H2981 0.959 . S
C2997 H2982 0.959 . S
C2997 H2983 0.961 . S
C2997 C2996 1.502 . S
C2998 H2984 0.960 . S
C2998 H2985 0.961 . S
C2998 H2986 0.959 . S
C2998 C2996 1.561 . S
C2999 C2996 1.526 . S
C2999 C3000 1.396 . S
C2999 C3004 1.390 . S
C3000 C2994 1.465 . S
C3000 C2999 1.396 . S
C3000 C3001 1.399 . S
C3001 H2987 0.929 . S
C3001 C3000 1.399 . S
C3001 C3002 1.385 . S
C3002 H2988 0.931 . S
C3002 C3001 1.385 . S
C3002 C3003 1.389 . S
C3003 C3002 1.389 . S
C3003 C3004 1.387 . S
C3004 H2989 0.930 . S
C3004 C2999 1.390 . S
C3004 C3003 1.387 . S
H3005 C3017 0.930 . S
H3006 C3019 0.930 . S
H3007 C3020 0.930 . S
H3008 C3024 0.959 1_554 S
H3009 C3024 0.959 . S
H3010 C3024 0.961 . S
H3011 C3025 0.963 . S
H3012 C3025 0.954 1_545 S
H3013 C3025 0.965 . S
H3014 C3028 0.927 1_564 S
H3015 C3029 0.931 . S
H3016 C3031 0.930 . S
C3017 H3005 0.930 . S
C3017 C3018 1.399 . S
C3017 C3022 1.399 . S
C3018 C3017 1.399 . S
C3018 C3019 1.376 . S
C3019 H3006 0.930 . S
C3019 C3018 1.376 . S
C3019 C3020 1.388 1_455 S
C3020 H3007 0.930 . S
C3020 C3019 1.388 1_655 S
C3020 C3021 1.390 . S
C3021 C3020 1.390 . S
C3021 C3022 1.394 1_655 S
C3021 C3027 1.465 1_564 S
C3022 C3017 1.399 . S
C3022 C3021 1.394 1_455 S
C3022 C3023 1.516 1_564 S
C3023 C3022 1.516 1_546 S
C3023 C3024 1.502 . S
C3023 C3025 1.558 1_545 S
C3023 C3026 1.526 1_455 S
C3024 H3008 0.959 1_556 S
C3024 H3009 0.959 . S
C3024 H3010 0.961 . S
C3024 C3023 1.502 . S
C3025 H3011 0.963 . S
C3025 H3012 0.954 1_565 S
C3025 H3013 0.965 . S
C3025 C3023 1.558 1_565 S
C3026 C3023 1.526 1_655 S
C3026 C3027 1.396 . S
C3026 C3031 1.390 . S
C3027 C3021 1.465 1_546 S
C3027 C3026 1.396 . S
C3027 C3028 1.399 . S
C3028 H3014 0.927 1_546 S
C3028 C3027 1.399 . S
C3028 C3029 1.387 . S
C3029 H3015 0.931 . S
C3029 C3028 1.387 . S
C3029 C3030 1.389 . S
C3030 C3029 1.389 . S
C3030 C3031 1.387 . S
C3031 H3016 0.930 . S
C3031 C3026 1.390 . S
C3031 C3030 1.387 . S
H3032 C3044 0.930 . S
H3033 C3046 0.930 . S
H3034 C3047 0.930 . S
H3035 C3051 0.959 . S
H3036 C3051 0.959 . S
H3037 C3051 0.961 . S
H3038 C3052 0.960 . S
H3039 C3052 0.961 . S
H3040 C3052 0.959 . S
H3041 C3055 0.929 . S
H3042 C3056 0.931 . S
H3043 C3058 0.930 . S
C3044 H3032 0.930 . S
C3044 C3045 1.399 . S
C3044 C3049 1.399 . S
C3045 C3044 1.399 . S
C3045 C3046 1.376 . S
C3046 H3033 0.930 . S
C3046 C3045 1.376 . S
C3046 C3047 1.388 . S
C3047 H3034 0.930 . S
C3047 C3046 1.388 . S
C3047 C3048 1.390 . S
C3048 C3047 1.390 . S
C3048 C3049 1.394 . S
C3048 C3054 1.465 . S
C3049 C3044 1.399 . S
C3049 C3048 1.394 . S
C3049 C3050 1.516 . S
C3050 C3049 1.516 . S
C3050 C3051 1.502 . S
C3050 C3052 1.561 . S
C3050 C3053 1.526 . S
C3051 H3035 0.959 . S
C3051 H3036 0.959 . S
C3051 H3037 0.961 . S
C3051 C3050 1.502 . S
C3052 H3038 0.960 . S
C3052 H3039 0.961 . S
C3052 H3040 0.959 . S
C3052 C3050 1.561 . S
C3053 C3050 1.526 . S
C3053 C3054 1.396 . S
C3053 C3058 1.390 . S
C3054 C3048 1.465 . S
C3054 C3053 1.396 . S
C3054 C3055 1.399 . S
C3055 H3041 0.929 . S
C3055 C3054 1.399 . S
C3055 C3056 1.385 . S
C3056 H3042 0.931 . S
C3056 C3055 1.385 . S
C3056 C3057 1.389 . S
C3057 C3056 1.389 . S
C3057 C3058 1.387 . S
C3058 H3043 0.930 . S
C3058 C3053 1.390 . S
C3058 C3057 1.387 . S
H3059 C3071 0.930 . S
H3060 C3073 0.930 . S
H3061 C3074 0.930 . S
H3062 C3078 0.959 . S
H3063 C3078 0.959 . S
H3064 C3078 0.961 . S
H3065 C3079 0.960 . S
H3066 C3079 0.961 . S
H3067 C3079 0.959 . S
H3068 C3082 0.929 . S
H3069 C3083 0.931 . S
H3070 C3085 0.930 . S
C3071 H3059 0.930 . S
C3071 C3072 1.399 . S
C3071 C3076 1.399 . S
C3072 C3071 1.399 . S
C3072 C3073 1.376 . S
C3073 H3060 0.930 . S
C3073 C3072 1.376 . S
C3073 C3074 1.388 . S
C3074 H3061 0.930 . S
C3074 C3073 1.388 . S
C3074 C3075 1.390 . S
C3075 C3074 1.390 . S
C3075 C3076 1.394 . S
C3075 C3081 1.465 . S
C3076 C3071 1.399 . S
C3076 C3075 1.394 . S
C3076 C3077 1.516 . S
C3077 C3076 1.516 . S
C3077 C3078 1.502 . S
C3077 C3079 1.561 . S
C3077 C3080 1.526 . S
C3078 H3062 0.959 . S
C3078 H3063 0.959 . S
C3078 H3064 0.961 . S
C3078 C3077 1.502 . S
C3079 H3065 0.960 . S
C3079 H3066 0.961 . S
C3079 H3067 0.959 . S
C3079 C3077 1.561 . S
C3080 C3077 1.526 . S
C3080 C3081 1.396 . S
C3080 C3085 1.390 . S
C3081 C3075 1.465 . S
C3081 C3080 1.396 . S
C3081 C3082 1.399 . S
C3082 H3068 0.929 . S
C3082 C3081 1.399 . S
C3082 C3083 1.385 . S
C3083 H3069 0.931 . S
C3083 C3082 1.385 . S
C3083 C3084 1.389 . S
C3084 C3083 1.389 . S
C3084 C3085 1.387 . S
C3085 H3070 0.930 . S
C3085 C3080 1.390 . S
C3085 C3084 1.387 . S
H3086 C3098 0.930 . S
H3087 C3100 0.930 . S
H3088 C3101 0.930 . S
H3089 C3105 0.959 . S
H3090 C3105 0.959 . S
H3091 C3105 0.961 . S
H3092 C3106 0.960 . S
H3093 C3106 0.961 . S
H3094 C3106 0.959 . S
H3095 C3109 0.929 . S
H3096 C3110 0.931 . S
H3097 C3112 0.930 . S
C3098 H3086 0.930 . S
C3098 C3099 1.399 . S
C3098 C3103 1.399 . S
C3099 C3098 1.399 . S
C3099 C3100 1.376 . S
C3100 H3087 0.930 . S
C3100 C3099 1.376 . S
C3100 C3101 1.388 . S
C3101 H3088 0.930 . S
C3101 C3100 1.388 . S
C3101 C3102 1.390 . S
C3102 C3101 1.390 . S
C3102 C3103 1.394 . S
C3102 C3108 1.465 . S
C3103 C3098 1.399 . S
C3103 C3102 1.394 . S
C3103 C3104 1.516 . S
C3104 C3103 1.516 . S
C3104 C3105 1.502 . S
C3104 C3106 1.561 . S
C3104 C3107 1.526 . S
C3105 H3089 0.959 . S
C3105 H3090 0.959 . S
C3105 H3091 0.961 . S
C3105 C3104 1.502 . S
C3106 H3092 0.960 . S
C3106 H3093 0.961 . S
C3106 H3094 0.959 . S
C3106 C3104 1.561 . S
C3107 C3104 1.526 . S
C3107 C3108 1.396 . S
C3107 C3112 1.390 . S
C3108 C3102 1.465 . S
C3108 C3107 1.396 . S
C3108 C3109 1.399 . S
C3109 H3095 0.929 . S
C3109 C3108 1.399 . S
C3109 C3110 1.385 . S
C3110 H3096 0.931 . S
C3110 C3109 1.385 . S
C3110 C3111 1.389 . S
C3111 C3110 1.389 . S
C3111 C3112 1.387 . S
C3112 H3097 0.930 . S
C3112 C3107 1.390 . S
C3112 C3111 1.387 . S
H3113 C3125 0.930 . S
H3114 C3127 0.930 . S
H3115 C3128 0.930 . S
H3116 C3132 0.959 . S
H3117 C3132 0.959 . S
H3118 C3132 0.961 . S
H3119 C3133 0.960 . S
H3120 C3133 0.961 . S
H3121 C3133 0.959 . S
H3122 C3136 0.929 . S
H3123 C3137 0.931 . S
H3124 C3139 0.930 . S
C3125 H3113 0.930 . S
C3125 C3126 1.399 . S
C3125 C3130 1.399 . S
C3126 C3125 1.399 . S
C3126 C3127 1.376 . S
C3127 H3114 0.930 . S
C3127 C3126 1.376 . S
C3127 C3128 1.388 . S
C3128 H3115 0.930 . S
C3128 C3127 1.388 . S
C3128 C3129 1.390 . S
C3129 C3128 1.390 . S
C3129 C3130 1.394 . S
C3129 C3135 1.465 . S
C3130 C3125 1.399 . S
C3130 C3129 1.394 . S
C3130 C3131 1.516 . S
C3131 C3130 1.516 . S
C3131 C3132 1.502 . S
C3131 C3133 1.561 . S
C3131 C3134 1.526 . S
C3132 H3116 0.959 . S
C3132 H3117 0.959 . S
C3132 H3118 0.961 . S
C3132 C3131 1.502 . S
C3133 H3119 0.960 . S
C3133 H3120 0.961 . S
C3133 H3121 0.959 . S
C3133 C3131 1.561 . S
C3134 C3131 1.526 . S
C3134 C3135 1.396 . S
C3134 C3139 1.390 . S
C3135 C3129 1.465 . S
C3135 C3134 1.396 . S
C3135 C3136 1.399 . S
C3136 H3122 0.929 . S
C3136 C3135 1.399 . S
C3136 C3137 1.385 . S
C3137 H3123 0.931 . S
C3137 C3136 1.385 . S
C3137 C3138 1.389 . S
C3138 C3137 1.389 . S
C3138 C3139 1.387 . S
C3139 H3124 0.930 . S
C3139 C3134 1.390 . S
C3139 C3138 1.387 . S
H3140 C3152 0.930 . S
H3141 C3154 0.930 . S
H3142 C3155 0.930 . S
H3143 C3159 0.959 . S
H3144 C3159 0.959 . S
H3145 C3159 0.961 . S
H3146 C3160 0.960 . S
H3147 C3160 0.961 . S
H3148 C3160 0.959 . S
H3149 C3163 0.929 1_554 S
H3150 C3164 0.931 . S
H3151 C3166 0.930 . S
C3152 H3140 0.930 . S
C3152 C3153 1.399 . S
C3152 C3157 1.399 . S
C3153 C3152 1.399 . S
C3153 C3154 1.376 . S
C3154 H3141 0.930 . S
C3154 C3153 1.376 . S
C3154 C3155 1.388 . S
C3155 H3142 0.930 . S
C3155 C3154 1.388 . S
C3155 C3156 1.390 . S
C3156 C3155 1.390 . S
C3156 C3157 1.394 . S
C3156 C3162 1.465 1_554 S
C3157 C3152 1.399 . S
C3157 C3156 1.394 . S
C3157 C3158 1.516 1_554 S
C3158 C3157 1.516 1_556 S
C3158 C3159 1.502 . S
C3158 C3160 1.561 1_556 S
C3158 C3161 1.526 . S
C3159 H3143 0.959 . S
C3159 H3144 0.959 . S
C3159 H3145 0.961 . S
C3159 C3158 1.502 . S
C3160 H3146 0.960 . S
C3160 H3147 0.961 . S
C3160 H3148 0.959 . S
C3160 C3158 1.561 1_554 S
C3161 C3158 1.526 . S
C3161 C3162 1.396 . S
C3161 C3166 1.390 . S
C3162 C3156 1.465 1_556 S
C3162 C3161 1.396 . S
C3162 C3163 1.399 . S
C3163 H3149 0.929 1_556 S
C3163 C3162 1.399 . S
C3163 C3164 1.385 . S
C3164 H3150 0.931 . S
C3164 C3163 1.385 . S
C3164 C3165 1.389 . S
C3165 C3164 1.389 . S
C3165 C3166 1.387 . S
C3166 H3151 0.930 . S
C3166 C3161 1.390 . S
C3166 C3165 1.387 . S
H3167 C3179 0.930 . S
H3168 C3181 0.930 . S
H3169 C3182 0.930 . S
H3170 C3186 0.959 . S
H3171 C3186 0.935 1_655 S
H3172 C3186 0.961 . S
H3173 C3187 0.960 . S
H3174 C3187 0.961 . S
H3175 C3187 0.959 . S
H3176 C3190 0.929 . S
H3177 C3191 0.931 . S
H3178 C3193 0.930 . S
C3179 H3167 0.930 . S
C3179 C3180 1.399 . S
C3179 C3184 1.399 . S
C3180 C3179 1.399 . S
C3180 C3181 1.376 . S
C3181 H3168 0.930 . S
C3181 C3180 1.376 . S
C3181 C3182 1.388 . S
C3182 H3169 0.930 . S
C3182 C3181 1.388 . S
C3182 C3183 1.390 . S
C3183 C3182 1.390 . S
C3183 C3184 1.394 . S
C3183 C3189 1.465 1_455 S
C3184 C3179 1.399 . S
C3184 C3183 1.394 . S
C3184 C3185 1.516 1_455 S
C3185 C3184 1.516 1_655 S
C3185 C3186 1.502 1_655 S
C3185 C3187 1.561 . S
C3185 C3188 1.526 . S
C3186 H3170 0.959 . S
C3186 H3171 0.935 1_455 S
C3186 H3172 0.961 . S
C3186 C3185 1.502 1_455 S
C3187 H3173 0.960 . S
C3187 H3174 0.961 . S
C3187 H3175 0.959 . S
C3187 C3185 1.561 . S
C3188 C3185 1.526 . S
C3188 C3189 1.396 . S
C3188 C3193 1.390 . S
C3189 C3183 1.465 1_655 S
C3189 C3188 1.396 . S
C3189 C3190 1.399 . S
C3190 H3176 0.929 . S
C3190 C3189 1.399 . S
C3190 C3191 1.385 . S
C3191 H3177 0.931 . S
C3191 C3190 1.385 . S
C3191 C3192 1.389 . S
C3192 C3191 1.389 . S
C3192 C3193 1.387 . S
C3193 H3178 0.930 . S
C3193 C3188 1.390 . S
C3193 C3192 1.387 . S
H3194 C3206 0.930 . S
H3195 C3208 0.930 . S
H3196 C3209 0.930 . S
H3197 C3213 0.959 . S
H3198 C3213 0.959 . S
H3199 C3213 0.961 . S
H3200 C3214 0.960 . S
H3201 C3214 0.961 . S
H3202 C3214 0.959 . S
H3203 C3217 0.929 . S
H3204 C3218 0.931 . S
H3205 C3220 0.960 . S
C3206 H3194 0.930 . S
C3206 C3207 1.399 . S
C3206 C3211 1.399 . S
C3207 C3206 1.399 . S
C3207 C3208 1.376 . S
C3208 H3195 0.930 . S
C3208 C3207 1.376 . S
C3208 C3209 1.388 1_556 S
C3209 H3196 0.930 . S
C3209 C3208 1.388 1_554 S
C3209 C3210 1.398 . S
C3210 C3209 1.398 . S
C3210 C3211 1.365 1_554 S
C3210 C3216 1.483 1_455 S
C3211 C3206 1.399 . S
C3211 C3210 1.365 1_556 S
C3211 C3212 1.516 . S
C3212 C3211 1.516 . S
C3212 C3213 1.502 . S
C3212 C3214 1.561 1_455 S
C3212 C3215 1.488 1_456 S
C3213 H3197 0.959 . S
C3213 H3198 0.959 . S
C3213 H3199 0.961 . S
C3213 C3212 1.502 . S
C3214 H3200 0.960 . S
C3214 H3201 0.961 . S
C3214 H3202 0.959 . S
C3214 C3212 1.561 1_655 S
C3215 C3212 1.488 1_654 S
C3215 C3216 1.420 . S
C3215 C3220 1.406 . S
C3216 C3210 1.483 1_655 S
C3216 C3215 1.420 . S
C3216 C3217 1.399 . S
C3217 H3203 0.929 . S
C3217 C3216 1.399 . S
C3217 C3218 1.385 . S
C3218 H3204 0.931 . S
C3218 C3217 1.385 . S
C3218 C3219 1.389 . S
C3219 C3218 1.389 . S
C3219 C3220 1.387 . S
C3220 H3205 0.960 . S
C3220 C3215 1.406 . S
C3220 C3219 1.387 . S
H3221 C3233 0.930 . S
H3222 C3235 0.930 . S
H3223 C3236 0.930 . S
H3224 C3240 0.959 . S
H3225 C3240 0.959 . S
H3226 C3240 0.961 . S
H3227 C3241 0.960 . S
H3228 C3241 0.961 . S
H3229 C3241 0.959 . S
H3230 C3244 0.929 . S
H3231 C3245 0.931 . S
H3232 C3247 0.930 . S
C3233 H3221 0.930 . S
C3233 C3234 1.399 . S
C3233 C3238 1.399 . S
C3234 C3233 1.399 . S
C3234 C3235 1.376 . S
C3235 H3222 0.930 . S
C3235 C3234 1.376 . S
C3235 C3236 1.388 . S
C3236 H3223 0.930 . S
C3236 C3235 1.388 . S
C3236 C3237 1.390 . S
C3237 C3236 1.390 . S
C3237 C3238 1.394 . S
C3237 C3243 1.465 . S
C3238 C3233 1.399 . S
C3238 C3237 1.394 . S
C3238 C3239 1.516 . S
C3239 C3238 1.516 . S
C3239 C3240 1.502 . S
C3239 C3241 1.561 . S
C3239 C3242 1.526 . S
C3240 H3224 0.959 . S
C3240 H3225 0.959 . S
C3240 H3226 0.961 . S
C3240 C3239 1.502 . S
C3241 H3227 0.960 . S
C3241 H3228 0.961 . S
C3241 H3229 0.959 . S
C3241 C3239 1.561 . S
C3242 C3239 1.526 . S
C3242 C3243 1.396 . S
C3242 C3247 1.390 . S
C3243 C3237 1.465 . S
C3243 C3242 1.396 . S
C3243 C3244 1.399 . S
C3244 H3230 0.929 . S
C3244 C3243 1.399 . S
C3244 C3245 1.385 . S
C3245 H3231 0.931 . S
C3245 C3244 1.385 . S
C3245 C3246 1.389 . S
C3246 C3245 1.389 . S
C3246 C3247 1.387 . S
C3247 H3232 0.930 . S
C3247 C3242 1.390 . S
C3247 C3246 1.387 . S
C1101 C617 0.810 . S
C1113 C5 0.787 . S
C1128 C39 0.811 . S
C1140 C651 0.781 . S
C1155 C73 0.810 . S
C1167 C549 0.782 . S
C1182 C583 0.810 . S
C1194 C107 0.775 . S
C1209 C141 0.789 . S
C1221 C753 0.808 . S
C1236 C787 0.810 . S
C1248 C175 0.775 . S
C1263 C209 0.810 . S
C1275 C685 0.779 . S
C1290 C243 0.810 . S
C1302 C719 0.786 . S
C1317 C277 0.770 . S
C1329 C889 0.804 . S
C1344 C923 0.750 . S
C1356 C311 0.809 . S
C1371 C345 0.722 . S
C1383 C821 0.696 . S
C1398 C379 0.753 . S
C1410 C855 0.809 . S
C1425 C413 0.747 . S
C1437 C1025 0.687 . S
C1452 C1059 0.740 . S
C1464 C447 0.809 . S
C1479 C957 0.725 . S
C1491 C481 0.694 . S
C1506 C991 0.725 . S
C1518 C515 0.695 . S
C1533 C407 1.124 . S
C1545 C2 1.109 . S
C1560 C849 1.115 . S
C1572 C36 1.070 . S
C1587 C70 1.130 . S
C1599 C339 1.148 . S
C1614 C917 1.136 . S
C1626 C104 1.139 . S
C1641 C475 1.149 . S
C1653 C138 1.137 . S
C1668 C172 1.136 . S
C1680 C1053 1.135 . S
C1695 C543 1.137 . S
C1707 C206 1.091 . S
C1722 C985 1.119 . S
C1734 C240 1.091 . S
C1749 C135 1.115 . S
C1761 C274 1.057 . S
C1776 C308 1.080 . S
C1788 C577 1.123 . S
C1803 C342 1.104 . S
C1815 C67 1.133 . S
C1830 C645 1.115 . S
C1842 C376 1.058 . S
C1857 C410 1.151 . S
C1869 C203 1.149 . S
C1884 C781 1.128 . S
C1896 C444 1.090 . S
C1911 C478 1.061 . S
C1923 C271 1.117 . S
C1938 C512 1.085 . S
C1950 C713 1.126 . S
C1965 C951 1.147 . S
C1977 C546 1.151 . S
C1992 C580 1.064 . S
C2004 C305 1.126 . S
C2019 C614 1.083 . S
C2031 C883 1.118 . S
C2046 C373 1.149 . S
C2058 C648 1.146 . S
C2073 C682 1.133 . S
C2085 C1019 1.148 . S
C2100 C716 1.138 . S
C2112 C509 1.135 . S
C2127 C1087 1.149 . S
C2139 C750 1.138 . S
C2154 C441 1.149 . S
C2166 C784 1.147 . S
C2181 C679 1.148 . S
C2193 C818 1.148 . S
C2208 C852 1.146 . S
C2220 C33 1.147 . S
C2235 C886 1.060 . S
C2247 C611 1.117 . S
C2262 C101 1.143 . S
C2274 C920 1.132 . S
C2289 C954 1.061 . S
C2301 C747 1.117 . S
C2316 C988 1.060 . S
C2328 C237 1.117 . S
C2343 C815 1.139 . S
C2355 C1022 1.122 . S
C2370 C169 1.132 . S
C2382 C1056 1.107 . S
C2397 C247 1.778 1_545 S
C2409 C9 1.712 . S
C2424 C145 1.706 . S
C2436 C43 1.744 1_565 S
C2451 C77 1.770 . S
C2463 C179 1.747 1_565 S
C2478 C213 1.717 . S
C2490 C111 1.727 1_545 S
C2505 C519 1.775 1_565 S
C2517 C281 1.762 . S
C2532 C315 1.756 1_545 S
C2544 C417 1.776 . S
C2559 C451 1.731 1_545 S
C2571 C349 1.703 . S
C2586 C485 1.742 . S
C2598 C383 1.703 1_565 S
C2613 C791 1.771 . S
C2625 C553 1.705 . S
C2640 C689 1.702 . S
C2652 C587 1.766 . S
C2667 C723 1.704 . S
C2679 C621 1.749 . S
C2694 C757 1.777 . S
C2706 C655 1.710 . S
C2721 C825 1.764 . S
C2733 C1063 1.712 . S
C2748 C859 1.722 . S
C2760 C961 1.706 . S
C2775 C893 1.725 . S
C2787 C995 1.774 . S
C2802 C1029 1.760 . S
C2814 C927 1.775 . S
C2829 C20 1.758 . S
C2841 C836 1.765 . S
C2856 C326 1.775 . S
C2868 C54 1.748 . S
C2883 C904 1.784 . S
C2895 C88 1.737 . S
C2910 C122 1.728 . S
C2922 C394 1.777 . S
C2937 C156 1.722 . S
C2949 C972 1.788 . S
C2964 C190 1.782 . S
C2976 C462 1.739 . S
C2991 C1040 1.738 . S
C3003 C224 1.765 . S
C3018 C258 1.732 . S
C3030 C530 1.786 . S
C3045 C564 1.753 . S
C3057 C292 1.769 . S
C3072 C632 1.785 . S
C3084 C360 1.734 . S
C3099 C428 1.787 . S
C3111 C700 1.731 . S
C3126 C496 1.743 . S
C3138 C768 1.778 . S
C3153 C870 1.723 . S
C3165 C598 1.785 . S
C3180 C938 1.760 . S
C3192 C666 1.744 . S
C3207 C1006 1.751 . S
C3219 C734 1.752 . S
C3234 C1074 1.744 . S
C3246 C802 1.758 . S
