# Generated by pormake.
# Topology upa, (4)-cn, num edge types: 1
# Building blocks:
#     Node 0, Type 0, BuildingBlock: CEKHIL_clean_sbu_0, # of connection points: 4
#     Node 1, Type 0, BuildingBlock: CEKHIL_clean_sbu_0, # of connection points: 4
#     Node 2, Type 0, BuildingBlock: CEKHIL_clean_sbu_0, # of connection points: 4
#     Node 3, Type 0, BuildingBlock: CEKHIL_clean_sbu_0, # of connection points: 4
#     Node 4, Type 0, BuildingBlock: CEKHIL_clean_sbu_0, # of connection points: 4
#     Node 5, Type 0, BuildingBlock: CEKHIL_clean_sbu_0, # of connection points: 4
#     Node 6, Type 0, BuildingBlock: CEKHIL_clean_sbu_0, # of connection points: 4
#     Node 7, Type 0, BuildingBlock: CEKHIL_clean_sbu_0, # of connection points: 4
#     Edge 8, Type (0, 0), BuildingBlock: UVAHIK_clean_linker_0, # of connection points: 2
#     Edge 9, Type (0, 0), BuildingBlock: UVAHIK_clean_linker_0, # of connection points: 2
#     Edge 10, Type (0, 0), BuildingBlock: UVAHIK_clean_linker_0, # of connection points: 2
#     Edge 11, Type (0, 0), BuildingBlock: UVAHIK_clean_linker_0, # of connection points: 2
#     Edge 12, Type (0, 0), BuildingBlock: UVAHIK_clean_linker_0, # of connection points: 2
#     Edge 13, Type (0, 0), BuildingBlock: UVAHIK_clean_linker_0, # of connection points: 2
#     Edge 14, Type (0, 0), BuildingBlock: UVAHIK_clean_linker_0, # of connection points: 2
#     Edge 15, Type (0, 0), BuildingBlock: UVAHIK_clean_linker_0, # of connection points: 2
#     Edge 16, Type (0, 0), BuildingBlock: UVAHIK_clean_linker_0, # of connection points: 2
#     Edge 17, Type (0, 0), BuildingBlock: UVAHIK_clean_linker_0, # of connection points: 2
#     Edge 18, Type (0, 0), BuildingBlock: UVAHIK_clean_linker_0, # of connection points: 2
#     Edge 19, Type (0, 0), BuildingBlock: UVAHIK_clean_linker_0, # of connection points: 2
#     Edge 20, Type (0, 0), BuildingBlock: UVAHIK_clean_linker_0, # of connection points: 2
#     Edge 21, Type (0, 0), BuildingBlock: UVAHIK_clean_linker_0, # of connection points: 2
#     Edge 22, Type (0, 0), BuildingBlock: UVAHIK_clean_linker_0, # of connection points: 2
#     Edge 23, Type (0, 0), BuildingBlock: UVAHIK_clean_linker_0, # of connection points: 2
# Relax obj value: 0.234
# Max RMSD: 0.138
# Mean RMSD: 0.138
data_MOF--net-upa--node1-CEKHIL_clean_sbu_0--edge1-UVAHIK_clean_linker_0
_symmetry_space_group_name_H-M    P1
_symmetry_Int_Tables_number       1
_symmetry_cell_setting            triclinic
loop_
_symmetry_equiv_pos_as_xyz
'x, y, z'
_cell_length_a     33.21273
_cell_length_b     33.222274
_cell_length_c     56.014147
_cell_angle_alpha  90.003867
_cell_angle_beta   90.014228
_cell_angle_gamma 90.000553
loop_
_atom_site_label
_atom_site_type_symbol
_atom_site_fract_x
_atom_site_fract_y
_atom_site_fract_z
_atom_type_partial_charge
Co0 Co 0.17784 0.23647 0.33214 0.0
O1 O 0.223 0.26832 0.32141 0.0
O2 O 0.22498 0.20279 0.32827 0.0
C3 C 0.13099 0.2601 0.30632 0.0
O4 O 0.13744 0.19337 0.34176 0.0
Co5 Co 0.1034 0.27761 0.35523 0.0
O6 O 0.07869 0.22373 0.35046 0.0
C7 C 0.17639 0.26641 0.38412 0.0
C8 C 0.2436 0.23508 0.32117 0.0
C9 C 0.09951 0.19216 0.34653 0.0
O10 O 0.19222 0.24611 0.3669 0.0
O11 O 0.14256 0.28463 0.3823 0.0
O12 O 0.15721 0.23343 0.29959 0.0
O13 O 0.13753 0.27562 0.32718 0.0
Co14 Co 0.26618 0.68132 0.83238 0.0
O15 O 0.2353 0.72785 0.82256 0.0
O16 O 0.30108 0.72755 0.82883 0.0
C17 C 0.24129 0.63627 0.80594 0.0
O18 O 0.30873 0.63973 0.84112 0.0
Co19 Co 0.22504 0.60572 0.85391 0.0
O20 O 0.27816 0.58039 0.84768 0.0
C21 C 0.2379 0.67679 0.8846 0.0
C22 C 0.26922 0.74736 0.82222 0.0
C23 C 0.30982 0.60138 0.84445 0.0
O24 O 0.25685 0.69435 0.8674 0.0
O25 O 0.2206 0.64257 0.8822 0.0
O26 O 0.26862 0.66205 0.79958 0.0
O27 O 0.22596 0.64217 0.82691 0.0
Co28 Co 0.82192 0.76149 0.33358 0.0
O29 O 0.77676 0.72966 0.32276 0.0
O30 O 0.7741 0.79462 0.33117 0.0
C31 C 0.86775 0.74037 0.3064 0.0
O32 O 0.8619 0.80491 0.34354 0.0
Co33 Co 0.89934 0.72168 0.35374 0.0
O34 O 0.92253 0.77592 0.34829 0.0
C35 C 0.82879 0.73141 0.38537 0.0
C36 C 0.75569 0.76258 0.3235 0.0
C37 C 0.90035 0.80705 0.34632 0.0
O38 O 0.80934 0.74892 0.36834 0.0
O39 O 0.8641 0.71661 0.38267 0.0
O40 O 0.84107 0.76735 0.30085 0.0
O41 O 0.86254 0.72327 0.32694 0.0
Co42 Co 0.74169 0.3232 0.83144 0.0
O43 O 0.77391 0.27693 0.82257 0.0
O44 O 0.70791 0.27624 0.82773 0.0
C45 C 0.76736 0.3681 0.80499 0.0
O46 O 0.69769 0.36405 0.83903 0.0
Co47 Co 0.7797 0.40088 0.85268 0.0
O48 O 0.72622 0.42444 0.84548 0.0
C49 C 0.76631 0.33073 0.88417 0.0
C50 C 0.74035 0.25681 0.82181 0.0
C51 C 0.69534 0.40243 0.84204 0.0
O52 O 0.74964 0.31133 0.8668 0.0
O53 O 0.78217 0.36561 0.88165 0.0
O54 O 0.7409 0.34163 0.7983 0.0
O55 O 0.78121 0.36313 0.82639 0.0
Co56 Co 0.67656 0.25916 0.1794 0.0
O57 O 0.72204 0.22651 0.18897 0.0
O58 O 0.72406 0.29229 0.18318 0.0
C59 C 0.63086 0.2343 0.20562 0.0
O60 O 0.63641 0.3035 0.17124 0.0
Co61 Co 0.59896 0.22166 0.15772 0.0
O62 O 0.57583 0.27541 0.1647 0.0
C63 C 0.66999 0.23369 0.12675 0.0
C64 C 0.74275 0.25969 0.18962 0.0
C65 C 0.59806 0.30613 0.16811 0.0
O66 O 0.68914 0.2505 0.14417 0.0
O67 O 0.63493 0.21817 0.1291 0.0
O68 O 0.65736 0.26068 0.21239 0.0
O69 O 0.63611 0.22019 0.18432 0.0
Co70 Co 0.23416 0.18167 0.68134 0.0
O71 O 0.26478 0.22795 0.69174 0.0
O72 O 0.19898 0.22754 0.68551 0.0
C73 C 0.25895 0.13541 0.70703 0.0
O74 O 0.1922 0.14005 0.67196 0.0
Co75 Co 0.27731 0.10861 0.65811 0.0
O76 O 0.22352 0.08286 0.66099 0.0
C77 C 0.26403 0.18129 0.62936 0.0
C78 C 0.2308 0.24732 0.69222 0.0
C79 C 0.19168 0.10271 0.66582 0.0
O80 O 0.24301 0.19628 0.64655 0.0
O81 O 0.28353 0.1482 0.63122 0.0
O82 O 0.23175 0.16103 0.71381 0.0
O83 O 0.27465 0.14252 0.68627 0.0
Co84 Co 0.32238 0.73797 0.18117 0.0
O85 O 0.27596 0.76961 0.19037 0.0
O86 O 0.27567 0.70373 0.18463 0.0
C87 C 0.36724 0.76312 0.20776 0.0
O88 O 0.36366 0.69473 0.17306 0.0
Co89 Co 0.39892 0.77789 0.15979 0.0
O90 O 0.42335 0.72438 0.16601 0.0
C91 C 0.32784 0.76605 0.12897 0.0
C92 C 0.25605 0.73593 0.19083 0.0
C93 C 0.40196 0.69308 0.16955 0.0
O94 O 0.31017 0.74665 0.14596 0.0
O95 O 0.36195 0.78347 0.13163 0.0
O96 O 0.34093 0.73636 0.21421 0.0
O97 O 0.362 0.77769 0.18654 0.0
Co98 Co 0.76288 0.8215 0.67893 0.0
O99 O 0.73068 0.77704 0.6904 0.0
O100 O 0.79536 0.77327 0.68134 0.0
C101 C 0.74322 0.86839 0.70588 0.0
O102 O 0.80665 0.86052 0.66838 0.0
Co103 Co 0.72328 0.89877 0.65833 0.0
O104 O 0.77862 0.92078 0.66054 0.0
C105 C 0.73136 0.82735 0.62734 0.0
C106 C 0.76328 0.75548 0.68943 0.0
C107 C 0.80932 0.89829 0.66345 0.0
O108 O 0.74939 0.80832 0.64435 0.0
O109 O 0.71659 0.86268 0.62993 0.0
O110 O 0.76984 0.84136 0.71145 0.0
O111 O 0.72544 0.86288 0.68556 0.0
C112 C 0.03677 0.15063 0.34963 0.0
C113 C 0.07892 0.15263 0.3474 0.0
C114 C 0.01708 0.11353 0.35009 0.0
C115 C 0.03309 0.00609 0.36239 0.0
H116 H 0.93637 0.99158 0.32452 0.0
C117 C 0.96216 0.85014 0.34727 0.0
C118 C 0.91992 0.84709 0.34729 0.0
C119 C 0.98092 0.88768 0.34787 0.0
C120 C 0.963 0.99529 0.33546 0.0
H121 H 0.13339 0.11698 0.344 0.0
H122 H 0.09888 0.05215 0.34481 0.0
H123 H 0.97059 0.05651 0.32445 0.0
H124 H 0.8643 0.88134 0.3481 0.0
H125 H 0.89715 0.94697 0.34953 0.0
H126 H 0.02548 0.94499 0.37351 0.0
C127 C 0.08119 0.07942 0.34636 0.0
C128 C 0.98265 0.03246 0.33537 0.0
C129 C 0.10092 0.11658 0.34576 0.0
C130 C 0.89689 0.88257 0.34799 0.0
C131 C 0.91572 0.92021 0.34869 0.0
C132 C 0.01335 0.96897 0.36257 0.0
C133 C 0.03905 0.07754 0.34844 0.0
C134 C 0.01799 0.03819 0.34875 0.0
C135 C 0.95797 0.92318 0.3486 0.0
C136 C 0.9782 0.96306 0.349 0.0
H137 H 0.0188 0.17776 0.35091 0.0
H138 H 0.98462 0.11302 0.35198 0.0
H139 H 0.05992 0.00981 0.37316 0.0
H140 H 0.98091 0.82349 0.34653 0.0
H141 H 0.0135 0.88887 0.34735 0.0
C142 C 0.35135 0.53839 0.84563 0.0
C143 C 0.34933 0.58065 0.84453 0.0
C144 C 0.38849 0.51869 0.8454 0.0
C145 C 0.4961 0.53425 0.85778 0.0
H146 H 0.51067 0.43968 0.8181 0.0
C147 C 0.65223 0.46424 0.84215 0.0
C148 C 0.65526 0.42202 0.84195 0.0
C149 C 0.61466 0.48301 0.84242 0.0
C150 C 0.50695 0.46573 0.82951 0.0
H151 H 0.38498 0.6353 0.84235 0.0
H152 H 0.44979 0.60082 0.84193 0.0
H153 H 0.44557 0.4737 0.81879 0.0
H154 H 0.62096 0.36642 0.84174 0.0
H155 H 0.55528 0.39926 0.84258 0.0
H156 H 0.55729 0.52625 0.86863 0.0
C157 C 0.42255 0.58301 0.84315 0.0
C158 C 0.46968 0.48525 0.82987 0.0
C159 C 0.38538 0.60274 0.84327 0.0
C160 C 0.61974 0.399 0.84184 0.0
C161 C 0.58207 0.41783 0.8422 0.0
C162 C 0.53329 0.51467 0.85749 0.0
C163 C 0.42448 0.54078 0.84417 0.0
C164 C 0.46392 0.51981 0.84394 0.0
C165 C 0.57912 0.46006 0.8426 0.0
C166 C 0.53923 0.48029 0.84326 0.0
H167 H 0.32423 0.52036 0.84658 0.0
H168 H 0.38903 0.48614 0.84647 0.0
H169 H 0.49237 0.56043 0.86909 0.0
H170 H 0.67892 0.48298 0.842 0.0
H171 H 0.61349 0.51558 0.84226 0.0
C172 C 0.53647 0.34962 0.16781 0.0
C173 C 0.5787 0.34632 0.16837 0.0
C174 C 0.51791 0.38728 0.16821 0.0
C175 C 0.53546 0.49414 0.15515 0.0
H176 H 0.44203 0.5107 0.19551 0.0
C177 C 0.46447 0.65087 0.16873 0.0
C178 C 0.42221 0.65334 0.16949 0.0
C179 C 0.48376 0.61354 0.16876 0.0
C180 C 0.46777 0.50644 0.18391 0.0
H181 H 0.63448 0.38027 0.16979 0.0
H182 H 0.6019 0.44617 0.17048 0.0
H183 H 0.47566 0.44548 0.19535 0.0
H184 H 0.36711 0.61829 0.1708 0.0
H185 H 0.4008 0.55312 0.17047 0.0
H186 H 0.52738 0.55492 0.14351 0.0
C187 C 0.58328 0.41944 0.16958 0.0
C188 C 0.48709 0.46911 0.18387 0.0
C189 C 0.60191 0.38169 0.16931 0.0
C190 C 0.3997 0.61753 0.17029 0.0
C191 C 0.41903 0.58015 0.17023 0.0
C192 C 0.51604 0.53144 0.15511 0.0
C193 C 0.54107 0.4226 0.1691 0.0
C194 C 0.52109 0.46253 0.16946 0.0
C195 C 0.4613 0.57772 0.16948 0.0
C196 C 0.48193 0.53803 0.16948 0.0
H197 H 0.51757 0.32307 0.16712 0.0
H198 H 0.48535 0.38875 0.16753 0.0
H199 H 0.56127 0.48979 0.14361 0.0
H200 H 0.48282 0.67781 0.16829 0.0
H201 H 0.51636 0.61279 0.16856 0.0
C202 C 0.14861 0.04611 0.65109 0.0
C203 C 0.15254 0.08168 0.66446 0.0
C204 C 0.11178 0.02591 0.65002 0.0
C205 C 0.00247 0.03995 0.66166 0.0
H206 H 0.00146 0.92332 0.65952 0.0
C207 C 0.88289 0.89987 0.67322 0.0
C208 C 0.84958 0.91687 0.66152 0.0
C209 C 0.92028 0.91918 0.67273 0.0
C210 C 0.00112 0.95587 0.66036 0.0
H211 H 0.12109 0.12367 0.68748 0.0
H212 H 0.05724 0.08779 0.68632 0.0
H213 H 0.06536 0.9588 0.66147 0.0
H214 H 0.82966 0.96645 0.63927 0.0
H215 H 0.89502 0.99922 0.63759 0.0
H216 H 0.93829 0.03705 0.66178 0.0
C217 C 0.08221 0.07604 0.67604 0.0
C218 C 0.03787 0.97631 0.66111 0.0
C219 C 0.1189 0.09656 0.67681 0.0
C220 C 0.85468 0.95285 0.64871 0.0
C221 C 0.89214 0.9718 0.6479 0.0
C222 C 0.96575 0.01953 0.66124 0.0
C223 C 0.07814 0.04047 0.66259 0.0
C224 C 0.03903 0.01863 0.66174 0.0
C225 C 0.9253 0.95561 0.66023 0.0
C226 C 0.96456 0.97721 0.66052 0.0
H227 H 0.17391 0.03404 0.64121 0.0
H228 H 0.10965 0.99909 0.63911 0.0
H229 H 0.00208 0.07254 0.66178 0.0
H230 H 0.87978 0.87232 0.68339 0.0
H231 H 0.94492 0.90607 0.68271 0.0
C232 C 0.2144 0.22955 0.4159 0.0
C233 C 0.19563 0.26499 0.40801 0.0
C234 C 0.22697 0.2256 0.43965 0.0
C235 C 0.2115 0.2729 0.50001 0.0
H236 H 0.29147 0.19374 0.51793 0.0
C237 C 0.22596 0.21801 0.59755 0.0
C238 C 0.26202 0.20048 0.60548 0.0
C239 C 0.22165 0.23045 0.5738 0.0
C240 C 0.2696 0.21667 0.51348 0.0
H241 H 0.17752 0.32504 0.41843 0.0
H242 H 0.20209 0.31958 0.45925 0.0
H243 H 0.28032 0.20827 0.47626 0.0
H244 H 0.32269 0.18442 0.59512 0.0
H245 H 0.31649 0.20878 0.55429 0.0
H246 H 0.20268 0.28327 0.53723 0.0
C247 C 0.20535 0.29377 0.44764 0.0
C248 C 0.26248 0.22443 0.48927 0.0
C249 C 0.19168 0.29724 0.42405 0.0
C250 C 0.29442 0.19762 0.58947 0.0
C251 C 0.29056 0.21116 0.56588 0.0
C252 C 0.21944 0.26599 0.52422 0.0
C253 C 0.22216 0.25745 0.45609 0.0
C254 C 0.2326 0.25198 0.48204 0.0
C255 C 0.2537 0.22673 0.55739 0.0
C256 C 0.24795 0.23703 0.53145 0.0
H257 H 0.21735 0.20394 0.40406 0.0
H258 H 0.23889 0.19679 0.4452 0.0
H259 H 0.18787 0.29401 0.49557 0.0
H260 H 0.20022 0.22009 0.60937 0.0
H261 H 0.19246 0.24138 0.56822 0.0
C262 C 0.21803 0.67657 0.92795 0.0
C263 C 0.23889 0.69494 0.90895 0.0
C264 C 0.22284 0.69016 0.95142 0.0
C265 C 0.29642 0.74359 0.98922 0.0
H266 H 0.21067 0.74128 0.03619 0.0
C267 C 0.3262 0.7904 0.08653 0.0
C268 C 0.31006 0.76565 0.10454 0.0
C269 C 0.3136 0.78656 0.06281 0.0
C270 C 0.23501 0.74183 0.02334 0.0
H271 H 0.27976 0.74354 0.8999 0.0
H272 H 0.28776 0.76752 0.94083 0.0
H273 H 0.19556 0.7269 0.99435 0.0
H274 H 0.26646 0.71856 0.11166 0.0
H275 H 0.24476 0.71154 0.0702 0.0
H276 H 0.33602 0.75769 0.01812 0.0
C277 C 0.26816 0.74206 0.93755 0.0
C278 C 0.22635 0.73362 0.99932 0.0
C279 C 0.26331 0.7285 0.91401 0.0
C280 C 0.27952 0.73821 0.09832 0.0
C281 C 0.267 0.73424 0.0745 0.0
C282 C 0.30506 0.75176 0.01318 0.0
C283 C 0.24865 0.72253 0.95663 0.0
C284 C 0.25702 0.73407 0.98195 0.0
C285 C 0.28459 0.75771 0.05633 0.0
C286 C 0.27457 0.75074 0.03063 0.0
H287 H 0.19887 0.65072 0.92485 0.0
H288 H 0.20757 0.6741 0.9656 0.0
H289 H 0.32098 0.74345 0.97651 0.0
H290 H 0.34943 0.81223 0.09061 0.0
H291 H 0.32715 0.80584 0.04946 0.0
C292 C 0.7242 0.83488 0.58304 0.0
C293 C 0.73102 0.80977 0.60286 0.0
C294 C 0.72832 0.82034 0.55977 0.0
C295 C 0.7756 0.73627 0.52551 0.0
H296 H 0.72152 0.78957 0.47299 0.0
C297 C 0.77056 0.73937 0.41411 0.0
C298 C 0.81152 0.73139 0.40992 0.0
C299 C 0.75574 0.74252 0.43753 0.0
C300 C 0.7365 0.77362 0.4873 0.0
H301 H 0.74577 0.74885 0.61353 0.0
H302 H 0.75103 0.72276 0.57287 0.0
H303 H 0.70218 0.80501 0.51361 0.0
H304 H 0.86891 0.72031 0.42728 0.0
H305 H 0.84391 0.72756 0.46749 0.0
H306 H 0.8085 0.70339 0.4992 0.0
C307 C 0.74388 0.75427 0.5753 0.0
C308 C 0.72587 0.78315 0.51083 0.0
C309 C 0.74048 0.76911 0.59871 0.0
C310 C 0.83706 0.726 0.42971 0.0
C311 C 0.8225 0.7299 0.45299 0.0
C312 C 0.78559 0.72608 0.50197 0.0
C313 C 0.73864 0.77989 0.55542 0.0
C314 C 0.74615 0.76563 0.53036 0.0
C315 C 0.78166 0.73855 0.45738 0.0
C316 C 0.76716 0.74552 0.48245 0.0
H317 H 0.71731 0.8665 0.58541 0.0
H318 H 0.7249 0.84154 0.54525 0.0
H319 H 0.79222 0.72204 0.53982 0.0
H320 H 0.74999 0.74352 0.39931 0.0
H321 H 0.72396 0.74839 0.43999 0.0
C322 C 0.75703 0.27299 0.91318 0.0
C323 C 0.76466 0.31396 0.90881 0.0
C324 C 0.75359 0.25854 0.93667 0.0
C325 C 0.76969 0.28967 1.0009 0.0
H326 H 0.69186 0.20552 0.01323 0.0
C327 C 0.66197 0.22834 0.08241 0.0
C328 C 0.68724 0.23495 0.10219 0.0
C329 C 0.67631 0.23269 0.05913 0.0
C330 C 0.71342 0.22942 0.01024 0.0
H331 H 0.7743 0.37182 0.9259 0.0
H332 H 0.76653 0.34743 0.96619 0.0
H333 H 0.70687 0.22428 0.97243 0.0
H334 H 0.74816 0.25 0.11277 0.0
H335 H 0.77387 0.2559 0.07202 0.0
H336 H 0.77389 0.297 0.03871 0.0
C337 C 0.76481 0.32575 0.9518 0.0
C338 C 0.72268 0.23972 0.98662 0.0
C339 C 0.76898 0.33994 0.92848 0.0
C340 C 0.72779 0.24485 0.09798 0.0
C341 C 0.74242 0.24854 0.07453 0.0
C342 C 0.75978 0.27998 0.02452 0.0
C343 C 0.75694 0.28485 0.95639 0.0
C344 C 0.75032 0.27066 0.98154 0.0
C345 C 0.7167 0.2431 0.05471 0.0
C346 C 0.73079 0.25029 0.0296 0.0
H347 H 0.7537 0.25211 0.89846 0.0
H348 H 0.7482 0.22673 0.93931 0.0
H349 H 0.79207 0.31281 0.99793 0.0
H350 H 0.63043 0.22113 0.08482 0.0
H351 H 0.65504 0.22921 0.04464 0.0
C352 C 0.58895 0.24351 0.24248 0.0
C353 C 0.59311 0.22783 0.21929 0.0
C354 C 0.55212 0.24095 0.25457 0.0
C355 C 0.44405 0.23624 0.24311 0.0
H356 H 0.43476 0.20503 0.30963 0.0
C357 C 0.30081 0.26652 0.29877 0.0
C358 C 0.28532 0.23374 0.31172 0.0
C359 C 0.33894 0.26439 0.28822 0.0
C360 C 0.43691 0.21369 0.29103 0.0
H361 H 0.56208 0.19599 0.19094 0.0
H362 H 0.49761 0.19229 0.21186 0.0
H363 H 0.50052 0.20226 0.28976 0.0
H364 H 0.29826 0.17341 0.32431 0.0
H365 H 0.36542 0.17008 0.30628 0.0
H366 H 0.3807 0.24834 0.24443 0.0
C367 C 0.5229 0.20656 0.22066 0.0
C368 C 0.47453 0.21231 0.27971 0.0
C369 C 0.55991 0.20854 0.20872 0.0
C370 C 0.30934 0.19917 0.31445 0.0
C371 C 0.34781 0.19729 0.30419 0.0
C372 C 0.40663 0.23824 0.25452 0.0
C373 C 0.51847 0.22315 0.2436 0.0
C374 C 0.47849 0.22353 0.25561 0.0
C375 C 0.36276 0.22966 0.29066 0.0
C376 C 0.40262 0.22705 0.27861 0.0
H377 H 0.61395 0.25853 0.25114 0.0
H378 H 0.54959 0.25419 0.27218 0.0
H379 H 0.44619 0.24542 0.2246 0.0
H380 H 0.28309 0.29356 0.29628 0.0
H381 H 0.34981 0.28997 0.27811 0.0
C382 C 0.23717 0.81338 0.81165 0.0
C383 C 0.27177 0.78914 0.81303 0.0
C384 C 0.2391 0.85191 0.80156 0.0
C385 C 0.2924 0.91105 0.75723 0.0
H386 H 0.25021 0.00402 0.79066 0.0
C387 C 0.29704 0.07106 0.71499 0.0
C388 C 0.26487 0.09706 0.72016 0.0
C389 C 0.3011 0.03431 0.72717 0.0
C390 C 0.26156 0.97841 0.7808 0.0
H391 H 0.33552 0.78627 0.80487 0.0
H392 H 0.33856 0.85325 0.78662 0.0
H393 H 0.25002 0.9385 0.81013 0.0
H394 H 0.21123 0.10446 0.74178 0.0
H395 H 0.21709 0.04044 0.76203 0.0
H396 H 0.30222 0.95015 0.72745 0.0
C397 C 0.31012 0.84252 0.79363 0.0
C398 C 0.26168 0.94086 0.79212 0.0
C399 C 0.3084 0.80434 0.80421 0.0
C400 C 0.23677 0.08546 0.73759 0.0
C401 C 0.24035 0.04861 0.7494 0.0
C402 C 0.29154 0.94848 0.74567 0.0
C403 C 0.27547 0.86665 0.79215 0.0
C404 C 0.27689 0.90677 0.78043 0.0
C405 C 0.27264 0.02241 0.74452 0.0
C406 C 0.27576 0.98275 0.7572 0.0
H407 H 0.20852 0.80249 0.81824 0.0
H408 H 0.2119 0.86982 0.80054 0.0
H409 H 0.30406 0.88514 0.74774 0.0
H410 H 0.31915 0.07918 0.70162 0.0
H411 H 0.3267 0.01541 0.72305 0.0
C412 C 0.69124 0.79986 0.31517 0.0
C413 C 0.71367 0.76399 0.31444 0.0
C414 C 0.65263 0.80171 0.30509 0.0
C415 C 0.56837 0.73688 0.28359 0.0
H416 H 0.53654 0.83286 0.24903 0.0
C417 C 0.40856 0.75229 0.24458 0.0
C418 C 0.40469 0.76945 0.22176 0.0
C419 C 0.44505 0.75431 0.25699 0.0
C420 C 0.545 0.80571 0.25847 0.0
H421 H 0.71289 0.70182 0.30267 0.0
H422 H 0.64615 0.70511 0.28487 0.0
H423 H 0.60233 0.83018 0.2683 0.0
H424 H 0.43592 0.8034 0.19442 0.0
H425 H 0.49992 0.80627 0.21582 0.0
H426 H 0.51185 0.71177 0.27305 0.0
C427 C 0.6579 0.73174 0.29357 0.0
C428 C 0.58261 0.80436 0.26983 0.0
C429 C 0.69637 0.72988 0.30371 0.0
C430 C 0.43785 0.78989 0.21197 0.0
C431 C 0.47456 0.79166 0.22433 0.0
C432 C 0.53091 0.73817 0.27217 0.0
C433 C 0.63553 0.76775 0.29396 0.0
C434 C 0.59491 0.76983 0.28247 0.0
C435 C 0.47887 0.77329 0.24686 0.0
C436 C 0.51865 0.77255 0.2594 0.0
H437 H 0.70366 0.8267 0.32332 0.0
H438 H 0.63616 0.82978 0.30609 0.0
H439 H 0.57644 0.70995 0.29337 0.0
H440 H 0.38352 0.73657 0.25274 0.0
H441 H 0.4468 0.74064 0.27451 0.0
C442 C 0.70215 0.19857 0.80455 0.0
C443 C 0.7387 0.21482 0.81281 0.0
C444 C 0.70099 0.16029 0.79409 0.0
C445 C 0.75237 0.06316 0.79121 0.0
H446 H 0.70494 0.05335 0.72823 0.0
C447 C 0.76999 0.91748 0.73582 0.0
C448 C 0.73971 0.90647 0.71957 0.0
C449 C 0.76839 0.95438 0.74782 0.0
C450 C 0.71761 0.05512 0.746 0.0
H451 H 0.80246 0.20312 0.81719 0.0
H452 H 0.80014 0.1356 0.79959 0.0
H453 H 0.70434 0.11819 0.74857 0.0
H454 H 0.68353 0.92526 0.70348 0.0
H455 H 0.67946 0.98882 0.72525 0.0
H456 H 0.76461 1.00012 0.78922 0.0
C457 C 0.77252 0.15278 0.801 0.0
C458 C 0.71746 0.0925 0.75759 0.0
C459 C 0.77385 0.19143 0.81102 0.0
C460 C 0.70735 0.93295 0.71588 0.0
C461 C 0.70531 0.96963 0.72824 0.0
C462 C 0.75185 0.02559 0.77985 0.0
C463 C 0.73618 0.13706 0.79209 0.0
C464 C 0.73517 0.097 0.78021 0.0
C465 C 0.73601 0.98114 0.74428 0.0
C466 C 0.73487 0.02098 0.75692 0.0
H467 H 0.67457 0.21589 0.80554 0.0
H468 H 0.67253 0.14883 0.78752 0.0
H469 H 0.76584 0.06566 0.80876 0.0
H470 H 0.79566 0.89802 0.73884 0.0
H471 H 0.79319 0.96217 0.75947 0.0
C472 C 0.08894 0.24942 0.26983 0.0
C473 C 0.093 0.26603 0.29277 0.0
C474 C 0.05221 0.25118 0.25768 0.0
C475 C 0.96656 0.23441 0.24249 0.0
H476 H 0.89409 0.32541 0.24749 0.0
C477 C 0.80191 0.22614 0.20917 0.0
C478 C 0.78457 0.26074 0.19904 0.0
C479 C 0.84006 0.22775 0.21978 0.0
C480 C 0.9141 0.29987 0.24565 0.0
H481 H 0.06176 0.29858 0.3207 0.0
H482 H 0.99724 0.30097 0.29973 0.0
H483 H 0.95963 0.32801 0.26703 0.0
H484 H 0.79423 0.32406 0.19166 0.0
H485 H 0.86116 0.3267 0.20961 0.0
H486 H 0.92164 0.20663 0.22065 0.0
C487 C 0.02268 0.28704 0.29092 0.0
C488 C 0.95157 0.30116 0.25718 0.0
C489 C 0.05968 0.28556 0.30302 0.0
C490 C 0.80667 0.29684 0.19933 0.0
C491 C 0.84495 0.29842 0.20984 0.0
C492 C 0.92925 0.2332 0.2309 0.0
C493 C 0.01827 0.26928 0.26821 0.0
C494 C 0.97836 0.26841 0.25578 0.0
C495 C 0.86206 0.26398 0.22043 0.0
C496 C 0.90236 0.26582 0.23237 0.0
H497 H 0.1141 0.23443 0.26131 0.0
H498 H 0.05042 0.23804 0.24002 0.0
H499 H 0.98595 0.20829 0.24126 0.0
H500 H 0.78562 0.1979 0.20942 0.0
H501 H 0.85181 0.20071 0.22802 0.0
C502 C 0.1917 0.30451 0.71006 0.0
C503 C 0.22829 0.28914 0.70132 0.0
C504 C 0.19002 0.34294 0.72034 0.0
C505 C 0.23861 0.44128 0.72104 0.0
H506 H 0.19815 0.45185 0.78565 0.0
C507 C 0.2633 0.5869 0.77493 0.0
C508 C 0.23522 0.5984 0.79239 0.0
C509 C 0.25973 0.55002 0.76312 0.0
C510 C 0.2088 0.44983 0.76743 0.0
H511 H 0.29152 0.30238 0.6959 0.0
H512 H 0.28823 0.37006 0.7131 0.0
H513 H 0.19623 0.38648 0.76583 0.0
H514 H 0.18085 0.58051 0.81085 0.0
H515 H 0.1733 0.51686 0.78942 0.0
H516 H 0.25017 0.50447 0.72208 0.0
C517 C 0.26102 0.35214 0.71226 0.0
C518 C 0.20788 0.41219 0.75614 0.0
C519 C 0.2629 0.3134 0.70247 0.0
C520 C 0.20296 0.57245 0.79747 0.0
C521 C 0.19893 0.53574 0.7853 0.0
C522 C 0.23879 0.47906 0.7321 0.0
C523 C 0.22469 0.36709 0.72157 0.0
C524 C 0.22333 0.40745 0.73298 0.0
C525 C 0.2275 0.52377 0.76806 0.0
C526 C 0.22455 0.48387 0.75565 0.0
H527 H 0.16457 0.28644 0.70955 0.0
H528 H 0.16161 0.35383 0.72729 0.0
H529 H 0.25026 0.43854 0.70305 0.0
H530 H 0.28887 0.60591 0.77081 0.0
H531 H 0.28302 0.54181 0.75051 0.0
C532 C 0.19794 0.69731 0.20793 0.0
C533 C 0.21402 0.73393 0.19971 0.0
C534 C 0.15957 0.69593 0.21828 0.0
C535 C 0.06212 0.74673 0.22075 0.0
H536 H 0.05218 0.7005 0.28402 0.0
C537 C 0.91667 0.766 0.27604 0.0
C538 C 0.90557 0.73615 0.29253 0.0
C539 C 0.95349 0.7639 0.26399 0.0
C540 C 0.05399 0.71281 0.26617 0.0
H541 H 0.20195 0.7976 0.19525 0.0
H542 H 0.13431 0.79489 0.21263 0.0
H543 H 0.11712 0.6996 0.26377 0.0
H544 H 0.92407 0.6802 0.30899 0.0
H545 H 0.98749 0.67525 0.28712 0.0
H546 H 0.99906 0.75894 0.22258 0.0
C547 C 0.15167 0.76738 0.2113 0.0
C548 C 0.09142 0.71248 0.25463 0.0
C549 C 0.19039 0.76893 0.2014 0.0
C550 C 0.93183 0.70368 0.29639 0.0
C551 C 0.96844 0.70114 0.28398 0.0
C552 C 0.02452 0.74637 0.23206 0.0
C553 C 0.1361 0.73098 0.22016 0.0
C554 C 0.09596 0.72982 0.23192 0.0
C555 C 0.98006 0.73145 0.26773 0.0
C556 C 0.01989 0.72987 0.2551 0.0
H557 H 0.21546 0.66985 0.207 0.0
H558 H 0.14822 0.66743 0.22484 0.0
H559 H 0.06468 0.7599 0.20313 0.0
H560 H 0.89738 0.79176 0.27289 0.0
H561 H 0.9614 0.78842 0.25217 0.0
C562 C 0.75755 0.40984 0.76812 0.0
C563 C 0.77368 0.40578 0.79121 0.0
C564 C 0.75964 0.44667 0.756 0.0
C565 C 0.7644 0.55492 0.76745 0.0
H566 H 0.79235 0.56397 0.70042 0.0
C567 C 0.73239 0.69865 0.7125 0.0
C568 C 0.76444 0.71363 0.69872 0.0
C569 C 0.73471 0.66049 0.723 0.0
C570 C 0.7846 0.56191 0.71916 0.0
H571 H 0.80592 0.43701 0.81933 0.0
H572 H 0.80889 0.50146 0.79834 0.0
H573 H 0.79615 0.49834 0.72031 0.0
H574 H 0.82358 0.69971 0.68459 0.0
H575 H 0.82723 0.6326 0.70256 0.0
H576 H 0.7523 0.61826 0.76627 0.0
C577 C 0.79457 0.47609 0.78965 0.0
C578 C 0.78656 0.52434 0.73051 0.0
C579 C 0.79303 0.43909 0.80162 0.0
C580 C 0.79838 0.68905 0.6951 0.0
C581 C 0.80044 0.65059 0.70533 0.0
C582 C 0.76185 0.5923 0.75603 0.0
C583 C 0.77744 0.48044 0.76683 0.0
C584 C 0.77652 0.52043 0.7548 0.0
C585 C 0.76888 0.63613 0.71971 0.0
C586 C 0.77187 0.59625 0.73175 0.0
H587 H 0.74247 0.38478 0.75957 0.0
H588 H 0.74598 0.44909 0.7385 0.0
H589 H 0.75609 0.55284 0.78611 0.0
H590 H 0.70585 0.71681 0.71569 0.0
H591 H 0.70971 0.65002 0.73376 0.0
loop_
_geom_bond_atom_site_label_1
_geom_bond_atom_site_label_2
_geom_bond_distance
_geom_bond_site_symmetry_2
_ccdc_geom_bond_type
Co0 O1 2.216 . S
Co0 O2 2.091 . S
Co0 O4 2.004 . S
Co0 O10 2.021 . S
Co0 O12 2.137 . S
Co0 O13 2.244 . S
O1 Co0 2.216 . S
O1 C8 1.247 . S
O2 Co0 2.091 . S
O2 C8 1.261 . S
C3 O12 1.247 . S
C3 O13 1.272 . S
O4 Co0 2.004 . S
O4 C9 1.259 . S
Co5 O6 2.061 . S
Co5 O11 2.052 . S
Co5 O13 2.135 . S
O6 Co5 2.061 . S
O6 C9 1.235 . S
C7 O10 1.238 . S
C7 O11 1.241 . S
C8 O1 1.247 . S
C8 O2 1.261 . S
C9 O4 1.259 . S
C9 O6 1.235 . S
O10 Co0 2.021 . S
O10 C7 1.238 . S
O11 Co5 2.052 . S
O11 C7 1.241 . S
O12 Co0 2.137 . S
O12 C3 1.247 . S
O13 Co0 2.244 . S
O13 C3 1.272 . S
O13 Co5 2.135 . S
Co14 O15 2.216 . S
Co14 O16 2.091 . S
Co14 O18 2.004 . S
Co14 O24 2.021 . S
Co14 O26 2.137 . S
Co14 O27 2.244 . S
O15 Co14 2.216 . S
O15 C22 1.247 . S
O16 Co14 2.091 . S
O16 C22 1.261 . S
C17 O26 1.247 . S
C17 O27 1.272 . S
O18 Co14 2.004 . S
O18 C23 1.259 . S
Co19 O20 2.061 . S
Co19 O25 2.052 . S
Co19 O27 2.135 . S
O20 Co19 2.061 . S
O20 C23 1.235 . S
C21 O24 1.238 . S
C21 O25 1.241 . S
C22 O15 1.247 . S
C22 O16 1.261 . S
C23 O18 1.259 . S
C23 O20 1.235 . S
O24 Co14 2.021 . S
O24 C21 1.238 . S
O25 Co19 2.052 . S
O25 C21 1.241 . S
O26 Co14 2.137 . S
O26 C17 1.247 . S
O27 Co14 2.244 . S
O27 C17 1.272 . S
O27 Co19 2.135 . S
Co28 O29 2.216 . S
Co28 O30 2.091 . S
Co28 O32 2.004 . S
Co28 O38 2.021 . S
Co28 O40 2.137 . S
Co28 O41 2.244 . S
O29 Co28 2.216 . S
O29 C36 1.247 . S
O30 Co28 2.091 . S
O30 C36 1.261 . S
C31 O40 1.247 . S
C31 O41 1.272 . S
O32 Co28 2.004 . S
O32 C37 1.259 . S
Co33 O34 2.061 . S
Co33 O39 2.052 . S
Co33 O41 2.135 . S
O34 Co33 2.061 . S
O34 C37 1.235 . S
C35 O38 1.238 . S
C35 O39 1.241 . S
C36 O29 1.247 . S
C36 O30 1.261 . S
C37 O32 1.259 . S
C37 O34 1.235 . S
O38 Co28 2.021 . S
O38 C35 1.238 . S
O39 Co33 2.052 . S
O39 C35 1.241 . S
O40 Co28 2.137 . S
O40 C31 1.247 . S
O41 Co28 2.244 . S
O41 C31 1.272 . S
O41 Co33 2.135 . S
Co42 O43 2.216 . S
Co42 O44 2.091 . S
Co42 O46 2.004 . S
Co42 O52 2.021 . S
Co42 O54 2.137 . S
Co42 O55 2.244 . S
O43 Co42 2.216 . S
O43 C50 1.247 . S
O44 Co42 2.091 . S
O44 C50 1.261 . S
C45 O54 1.247 . S
C45 O55 1.272 . S
O46 Co42 2.004 . S
O46 C51 1.259 . S
Co47 O48 2.061 . S
Co47 O53 2.052 . S
Co47 O55 2.135 . S
O48 Co47 2.061 . S
O48 C51 1.235 . S
C49 O52 1.238 . S
C49 O53 1.241 . S
C50 O43 1.247 . S
C50 O44 1.261 . S
C51 O46 1.259 . S
C51 O48 1.235 . S
O52 Co42 2.021 . S
O52 C49 1.238 . S
O53 Co47 2.052 . S
O53 C49 1.241 . S
O54 Co42 2.137 . S
O54 C45 1.247 . S
O55 Co42 2.244 . S
O55 C45 1.272 . S
O55 Co47 2.135 . S
Co56 O57 2.216 . S
Co56 O58 2.091 . S
Co56 O60 2.004 . S
Co56 O66 2.021 . S
Co56 O68 2.137 . S
Co56 O69 2.244 . S
O57 Co56 2.216 . S
O57 C64 1.247 . S
O58 Co56 2.091 . S
O58 C64 1.261 . S
C59 O68 1.247 . S
C59 O69 1.272 . S
O60 Co56 2.004 . S
O60 C65 1.259 . S
Co61 O62 2.061 . S
Co61 O67 2.052 . S
Co61 O69 2.135 . S
O62 Co61 2.061 . S
O62 C65 1.235 . S
C63 O66 1.238 . S
C63 O67 1.241 . S
C64 O57 1.247 . S
C64 O58 1.261 . S
C65 O60 1.259 . S
C65 O62 1.235 . S
O66 Co56 2.021 . S
O66 C63 1.238 . S
O67 Co61 2.052 . S
O67 C63 1.241 . S
O68 Co56 2.137 . S
O68 C59 1.247 . S
O69 Co56 2.244 . S
O69 C59 1.272 . S
O69 Co61 2.135 . S
Co70 O71 2.216 . S
Co70 O72 2.091 . S
Co70 O74 2.004 . S
Co70 O80 2.021 . S
Co70 O82 2.137 . S
Co70 O83 2.244 . S
O71 Co70 2.216 . S
O71 C78 1.247 . S
O72 Co70 2.091 . S
O72 C78 1.261 . S
C73 O82 1.247 . S
C73 O83 1.272 . S
O74 Co70 2.004 . S
O74 C79 1.259 . S
Co75 O76 2.061 . S
Co75 O81 2.052 . S
Co75 O83 2.135 . S
O76 Co75 2.061 . S
O76 C79 1.235 . S
C77 O80 1.238 . S
C77 O81 1.241 . S
C78 O71 1.247 . S
C78 O72 1.261 . S
C79 O74 1.259 . S
C79 O76 1.235 . S
O80 Co70 2.021 . S
O80 C77 1.238 . S
O81 Co75 2.052 . S
O81 C77 1.241 . S
O82 Co70 2.137 . S
O82 C73 1.247 . S
O83 Co70 2.244 . S
O83 C73 1.272 . S
O83 Co75 2.135 . S
Co84 O85 2.216 . S
Co84 O86 2.091 . S
Co84 O88 2.004 . S
Co84 O94 2.021 . S
Co84 O96 2.137 . S
Co84 O97 2.244 . S
O85 Co84 2.216 . S
O85 C92 1.247 . S
O86 Co84 2.091 . S
O86 C92 1.261 . S
C87 O96 1.247 . S
C87 O97 1.272 . S
O88 Co84 2.004 . S
O88 C93 1.259 . S
Co89 O90 2.061 . S
Co89 O95 2.052 . S
Co89 O97 2.135 . S
O90 Co89 2.061 . S
O90 C93 1.235 . S
C91 O94 1.238 . S
C91 O95 1.241 . S
C92 O85 1.247 . S
C92 O86 1.261 . S
C93 O88 1.259 . S
C93 O90 1.235 . S
O94 Co84 2.021 . S
O94 C91 1.238 . S
O95 Co89 2.052 . S
O95 C91 1.241 . S
O96 Co84 2.137 . S
O96 C87 1.247 . S
O97 Co84 2.244 . S
O97 C87 1.272 . S
O97 Co89 2.135 . S
Co98 O99 2.216 . S
Co98 O100 2.091 . S
Co98 O102 2.004 . S
Co98 O108 2.021 . S
Co98 O110 2.137 . S
Co98 O111 2.244 . S
O99 Co98 2.216 . S
O99 C106 1.247 . S
O100 Co98 2.091 . S
O100 C106 1.261 . S
C101 O110 1.247 . S
C101 O111 1.272 . S
O102 Co98 2.004 . S
O102 C107 1.259 . S
Co103 O104 2.061 . S
Co103 O109 2.052 . S
Co103 O111 2.135 . S
O104 Co103 2.061 . S
O104 C107 1.235 . S
C105 O108 1.238 . S
C105 O109 1.241 . S
C106 O99 1.247 . S
C106 O100 1.261 . S
C107 O102 1.259 . S
C107 O104 1.235 . S
O108 Co98 2.021 . S
O108 C105 1.238 . S
O109 Co103 2.052 . S
O109 C105 1.241 . S
O110 Co98 2.137 . S
O110 C101 1.247 . S
O111 Co98 2.244 . S
O111 C101 1.272 . S
O111 Co103 2.135 . S
C112 C113 1.349 . S
C112 C114 1.327 . S
C112 H137 0.950 . S
C113 C112 1.349 . S
C113 C129 1.349 . S
C114 C112 1.327 . S
C114 C133 1.429 . S
C114 H138 0.950 . S
C115 C132 1.574 1_545 S
C115 C134 1.368 . S
C115 H139 0.949 . S
H116 C120 0.949 . S
C117 C118 1.349 . S
C117 C119 1.327 . S
C117 H140 0.950 . S
C118 C117 1.349 . S
C118 C130 1.349 . S
C119 C117 1.327 . S
C119 C135 1.429 . S
C119 H141 0.950 . S
C120 H116 0.949 . S
C120 C128 1.574 1_565 S
C120 C136 1.368 . S
H121 C129 0.950 . S
H122 C127 0.950 . S
H123 C128 0.949 . S
H124 C130 0.950 . S
H125 C131 0.950 . S
H126 C132 0.949 . S
C127 H122 0.950 . S
C127 C129 1.327 . S
C127 C133 1.429 . S
C128 C120 1.574 1_545 S
C128 H123 0.949 . S
C128 C134 1.368 1_655 S
C129 C113 1.349 . S
C129 H121 0.950 . S
C129 C127 1.327 . S
C130 C118 1.349 . S
C130 H124 0.950 . S
C130 C131 1.327 . S
C131 H125 0.950 . S
C131 C130 1.327 . S
C131 C135 1.429 . S
C132 C115 1.574 1_565 S
C132 H126 0.949 . S
C132 C136 1.368 1_455 S
C133 C114 1.429 . S
C133 C127 1.429 . S
C133 C134 1.523 . S
C134 C115 1.368 . S
C134 C128 1.368 1_455 S
C134 C133 1.523 . S
C135 C119 1.429 . S
C135 C131 1.429 . S
C135 C136 1.523 . S
C136 C120 1.368 . S
C136 C132 1.368 1_655 S
C136 C135 1.523 . S
H137 C112 0.950 . S
H138 C114 0.950 . S
H139 C115 0.949 . S
H140 C117 0.950 . S
H141 C119 0.950 . S
C142 C143 1.349 . S
C142 C144 1.327 . S
C142 H167 0.950 . S
C143 C142 1.349 . S
C143 C159 1.349 . S
C144 C142 1.327 . S
C144 C163 1.429 . S
C144 H168 0.950 . S
C145 C162 1.574 . S
C145 C164 1.368 . S
C145 H169 0.949 . S
H146 C150 0.949 . S
C147 C148 1.349 . S
C147 C149 1.327 . S
C147 H170 0.950 . S
C148 C147 1.349 . S
C148 C160 1.349 . S
C149 C147 1.327 . S
C149 C165 1.429 . S
C149 H171 0.950 . S
C150 H146 0.949 . S
C150 C158 1.574 . S
C150 C166 1.368 . S
H151 C159 0.950 . S
H152 C157 0.950 . S
H153 C158 0.949 . S
H154 C160 0.950 . S
H155 C161 0.950 . S
H156 C162 0.949 . S
C157 H152 0.950 . S
C157 C159 1.327 . S
C157 C163 1.429 . S
C158 C150 1.574 . S
C158 H153 0.949 . S
C158 C164 1.368 . S
C159 C143 1.349 . S
C159 H151 0.950 . S
C159 C157 1.327 . S
C160 C148 1.349 . S
C160 H154 0.950 . S
C160 C161 1.327 . S
C161 H155 0.950 . S
C161 C160 1.327 . S
C161 C165 1.429 . S
C162 C145 1.574 . S
C162 H156 0.949 . S
C162 C166 1.368 . S
C163 C144 1.429 . S
C163 C157 1.429 . S
C163 C164 1.523 . S
C164 C145 1.368 . S
C164 C158 1.368 . S
C164 C163 1.523 . S
C165 C149 1.429 . S
C165 C161 1.429 . S
C165 C166 1.523 . S
C166 C150 1.368 . S
C166 C162 1.368 . S
C166 C165 1.523 . S
H167 C142 0.950 . S
H168 C144 0.950 . S
H169 C145 0.949 . S
H170 C147 0.950 . S
H171 C149 0.950 . S
C172 C173 1.349 . S
C172 C174 1.327 . S
C172 H197 0.950 . S
C173 C172 1.349 . S
C173 C189 1.349 . S
C174 C172 1.327 . S
C174 C193 1.429 . S
C174 H198 0.950 . S
C175 C192 1.574 . S
C175 C194 1.368 . S
C175 H199 0.949 . S
H176 C180 0.949 . S
C177 C178 1.349 . S
C177 C179 1.327 . S
C177 H200 0.950 . S
C178 C177 1.349 . S
C178 C190 1.349 . S
C179 C177 1.327 . S
C179 C195 1.429 . S
C179 H201 0.950 . S
C180 H176 0.949 . S
C180 C188 1.574 . S
C180 C196 1.368 . S
H181 C189 0.950 . S
H182 C187 0.950 . S
H183 C188 0.949 . S
H184 C190 0.950 . S
H185 C191 0.950 . S
H186 C192 0.949 . S
C187 H182 0.950 . S
C187 C189 1.327 . S
C187 C193 1.429 . S
C188 C180 1.574 . S
C188 H183 0.949 . S
C188 C194 1.368 . S
C189 C173 1.349 . S
C189 H181 0.950 . S
C189 C187 1.327 . S
C190 C178 1.349 . S
C190 H184 0.950 . S
C190 C191 1.327 . S
C191 H185 0.950 . S
C191 C190 1.327 . S
C191 C195 1.429 . S
C192 C175 1.574 . S
C192 H186 0.949 . S
C192 C196 1.368 . S
C193 C174 1.429 . S
C193 C187 1.429 . S
C193 C194 1.523 . S
C194 C175 1.368 . S
C194 C188 1.368 . S
C194 C193 1.523 . S
C195 C179 1.429 . S
C195 C191 1.429 . S
C195 C196 1.523 . S
C196 C180 1.368 . S
C196 C192 1.368 . S
C196 C195 1.523 . S
H197 C172 0.950 . S
H198 C174 0.950 . S
H199 C175 0.949 . S
H200 C177 0.950 . S
H201 C179 0.950 . S
C202 C203 1.349 . S
C202 C204 1.327 . S
C202 H227 0.950 . S
C203 C202 1.349 . S
C203 C219 1.349 . S
C204 C202 1.327 . S
C204 C223 1.429 . S
C204 H228 0.950 . S
C205 C222 1.574 1_455 S
C205 C224 1.368 . S
C205 H229 0.949 . S
H206 C210 0.949 . S
C207 C208 1.349 . S
C207 C209 1.327 . S
C207 H230 0.950 . S
C208 C207 1.349 . S
C208 C220 1.349 . S
C209 C207 1.327 . S
C209 C225 1.429 . S
C209 H231 0.950 . S
C210 H206 0.949 . S
C210 C218 1.574 1_655 S
C210 C226 1.368 . S
H211 C219 0.950 . S
H212 C217 0.950 . S
H213 C218 0.949 . S
H214 C220 0.950 . S
H215 C221 0.950 . S
H216 C222 0.949 . S
C217 H212 0.950 . S
C217 C219 1.327 . S
C217 C223 1.429 . S
C218 C210 1.574 1_455 S
C218 H213 0.949 . S
C218 C224 1.368 1_565 S
C219 C203 1.349 . S
C219 H211 0.950 . S
C219 C217 1.327 . S
C220 C208 1.349 . S
C220 H214 0.950 . S
C220 C221 1.327 . S
C221 H215 0.950 . S
C221 C220 1.327 . S
C221 C225 1.429 . S
C222 C205 1.574 1_655 S
C222 H216 0.949 . S
C222 C226 1.368 1_545 S
C223 C204 1.429 . S
C223 C217 1.429 . S
C223 C224 1.523 . S
C224 C205 1.368 . S
C224 C218 1.368 1_545 S
C224 C223 1.523 . S
C225 C209 1.429 . S
C225 C221 1.429 . S
C225 C226 1.523 . S
C226 C210 1.368 . S
C226 C222 1.368 1_565 S
C226 C225 1.523 . S
H227 C202 0.950 . S
H228 C204 0.950 . S
H229 C205 0.949 . S
H230 C207 0.950 . S
H231 C209 0.950 . S
C232 C233 1.349 . S
C232 C234 1.327 . S
C232 H257 0.950 . S
C233 C232 1.349 . S
C233 C249 1.349 . S
C234 C232 1.327 . S
C234 C253 1.429 . S
C234 H258 0.950 . S
C235 C252 1.574 . S
C235 C254 1.368 . S
C235 H259 0.949 . S
H236 C240 0.949 . S
C237 C238 1.349 . S
C237 C239 1.327 . S
C237 H260 0.950 . S
C238 C237 1.349 . S
C238 C250 1.349 . S
C239 C237 1.327 . S
C239 C255 1.429 . S
C239 H261 0.950 . S
C240 H236 0.949 . S
C240 C248 1.574 . S
C240 C256 1.368 . S
H241 C249 0.950 . S
H242 C247 0.950 . S
H243 C248 0.949 . S
H244 C250 0.950 . S
H245 C251 0.950 . S
H246 C252 0.949 . S
C247 H242 0.950 . S
C247 C249 1.327 . S
C247 C253 1.429 . S
C248 C240 1.574 . S
C248 H243 0.949 . S
C248 C254 1.368 . S
C249 C233 1.349 . S
C249 H241 0.950 . S
C249 C247 1.327 . S
C250 C238 1.349 . S
C250 H244 0.950 . S
C250 C251 1.327 . S
C251 H245 0.950 . S
C251 C250 1.327 . S
C251 C255 1.429 . S
C252 C235 1.574 . S
C252 H246 0.949 . S
C252 C256 1.368 . S
C253 C234 1.429 . S
C253 C247 1.429 . S
C253 C254 1.523 . S
C254 C235 1.368 . S
C254 C248 1.368 . S
C254 C253 1.523 . S
C255 C239 1.429 . S
C255 C251 1.429 . S
C255 C256 1.523 . S
C256 C240 1.368 . S
C256 C252 1.368 . S
C256 C255 1.523 . S
H257 C232 0.950 . S
H258 C234 0.950 . S
H259 C235 0.949 . S
H260 C237 0.950 . S
H261 C239 0.950 . S
C262 C263 1.349 . S
C262 C264 1.327 . S
C262 H287 0.950 . S
C263 C262 1.349 . S
C263 C279 1.349 . S
C264 C262 1.327 . S
C264 C283 1.429 . S
C264 H288 0.950 . S
C265 C282 1.574 1_556 S
C265 C284 1.368 . S
C265 H289 0.949 . S
H266 C270 0.949 . S
C267 C268 1.349 . S
C267 C269 1.327 . S
C267 H290 0.950 . S
C268 C267 1.349 . S
C268 C280 1.349 . S
C269 C267 1.327 . S
C269 C285 1.429 . S
C269 H291 0.950 . S
C270 H266 0.949 . S
C270 C278 1.574 1_554 S
C270 C286 1.368 . S
H271 C279 0.950 . S
H272 C277 0.950 . S
H273 C278 0.949 . S
H274 C280 0.950 . S
H275 C281 0.950 . S
H276 C282 0.949 . S
C277 H272 0.950 . S
C277 C279 1.327 . S
C277 C283 1.429 . S
C278 C270 1.574 1_556 S
C278 H273 0.949 . S
C278 C284 1.368 . S
C279 C263 1.349 . S
C279 H271 0.950 . S
C279 C277 1.327 . S
C280 C268 1.349 . S
C280 H274 0.950 . S
C280 C281 1.327 . S
C281 H275 0.950 . S
C281 C280 1.327 . S
C281 C285 1.429 . S
C282 C265 1.574 1_554 S
C282 H276 0.949 . S
C282 C286 1.368 . S
C283 C264 1.429 . S
C283 C277 1.429 . S
C283 C284 1.523 . S
C284 C265 1.368 . S
C284 C278 1.368 . S
C284 C283 1.523 . S
C285 C269 1.429 . S
C285 C281 1.429 . S
C285 C286 1.523 . S
C286 C270 1.368 . S
C286 C282 1.368 . S
C286 C285 1.523 . S
H287 C262 0.950 . S
H288 C264 0.950 . S
H289 C265 0.949 . S
H290 C267 0.950 . S
H291 C269 0.950 . S
C292 C293 1.349 . S
C292 C294 1.327 . S
C292 H317 0.950 . S
C293 C292 1.349 . S
C293 C309 1.349 . S
C294 C292 1.327 . S
C294 C313 1.429 . S
C294 H318 0.950 . S
C295 C312 1.574 . S
C295 C314 1.368 . S
C295 H319 0.949 . S
H296 C300 0.949 . S
C297 C298 1.349 . S
C297 C299 1.327 . S
C297 H320 0.950 . S
C298 C297 1.349 . S
C298 C310 1.349 . S
C299 C297 1.327 . S
C299 C315 1.429 . S
C299 H321 0.950 . S
C300 H296 0.949 . S
C300 C308 1.574 . S
C300 C316 1.368 . S
H301 C309 0.950 . S
H302 C307 0.950 . S
H303 C308 0.949 . S
H304 C310 0.950 . S
H305 C311 0.950 . S
H306 C312 0.949 . S
C307 H302 0.950 . S
C307 C309 1.327 . S
C307 C313 1.429 . S
C308 C300 1.574 . S
C308 H303 0.949 . S
C308 C314 1.368 . S
C309 C293 1.349 . S
C309 H301 0.950 . S
C309 C307 1.327 . S
C310 C298 1.349 . S
C310 H304 0.950 . S
C310 C311 1.327 . S
C311 H305 0.950 . S
C311 C310 1.327 . S
C311 C315 1.429 . S
C312 C295 1.574 . S
C312 H306 0.949 . S
C312 C316 1.368 . S
C313 C294 1.429 . S
C313 C307 1.429 . S
C313 C314 1.523 . S
C314 C295 1.368 . S
C314 C308 1.368 . S
C314 C313 1.523 . S
C315 C299 1.429 . S
C315 C311 1.429 . S
C315 C316 1.523 . S
C316 C300 1.368 . S
C316 C312 1.368 . S
C316 C315 1.523 . S
H317 C292 0.950 . S
H318 C294 0.950 . S
H319 C295 0.949 . S
H320 C297 0.950 . S
H321 C299 0.950 . S
C322 C323 1.349 . S
C322 C324 1.327 . S
C322 H347 0.950 . S
C323 C322 1.349 . S
C323 C339 1.349 . S
C324 C322 1.327 . S
C324 C343 1.429 . S
C324 H348 0.950 . S
C325 C342 1.574 1_556 S
C325 C344 1.368 . S
C325 H349 0.949 . S
H326 C330 0.949 . S
C327 C328 1.349 . S
C327 C329 1.327 . S
C327 H350 0.950 . S
C328 C327 1.349 . S
C328 C340 1.349 . S
C329 C327 1.327 . S
C329 C345 1.429 . S
C329 H351 0.950 . S
C330 H326 0.949 . S
C330 C338 1.574 1_554 S
C330 C346 1.368 . S
H331 C339 0.950 . S
H332 C337 0.950 . S
H333 C338 0.949 . S
H334 C340 0.950 . S
H335 C341 0.950 . S
H336 C342 0.949 . S
C337 H332 0.950 . S
C337 C339 1.327 . S
C337 C343 1.429 . S
C338 C330 1.574 1_556 S
C338 H333 0.949 . S
C338 C344 1.368 . S
C339 C323 1.349 . S
C339 H331 0.950 . S
C339 C337 1.327 . S
C340 C328 1.349 . S
C340 H334 0.950 . S
C340 C341 1.327 . S
C341 H335 0.950 . S
C341 C340 1.327 . S
C341 C345 1.429 . S
C342 C325 1.574 1_554 S
C342 H336 0.949 . S
C342 C346 1.368 . S
C343 C324 1.429 . S
C343 C337 1.429 . S
C343 C344 1.523 . S
C344 C325 1.368 . S
C344 C338 1.368 . S
C344 C343 1.523 . S
C345 C329 1.429 . S
C345 C341 1.429 . S
C345 C346 1.523 . S
C346 C330 1.368 . S
C346 C342 1.368 . S
C346 C345 1.523 . S
H347 C322 0.950 . S
H348 C324 0.950 . S
H349 C325 0.949 . S
H350 C327 0.950 . S
H351 C329 0.950 . S
C352 C353 1.349 . S
C352 C354 1.327 . S
C352 H377 0.950 . S
C353 C352 1.349 . S
C353 C369 1.349 . S
C354 C352 1.327 . S
C354 C373 1.429 . S
C354 H378 0.950 . S
C355 C372 1.574 . S
C355 C374 1.368 . S
C355 H379 0.949 . S
H356 C360 0.949 . S
C357 C358 1.349 . S
C357 C359 1.327 . S
C357 H380 0.950 . S
C358 C357 1.349 . S
C358 C370 1.349 . S
C359 C357 1.327 . S
C359 C375 1.429 . S
C359 H381 0.950 . S
C360 H356 0.949 . S
C360 C368 1.574 . S
C360 C376 1.368 . S
H361 C369 0.950 . S
H362 C367 0.950 . S
H363 C368 0.949 . S
H364 C370 0.950 . S
H365 C371 0.950 . S
H366 C372 0.949 . S
C367 H362 0.950 . S
C367 C369 1.327 . S
C367 C373 1.429 . S
C368 C360 1.574 . S
C368 H363 0.949 . S
C368 C374 1.368 . S
C369 C353 1.349 . S
C369 H361 0.950 . S
C369 C367 1.327 . S
C370 C358 1.349 . S
C370 H364 0.950 . S
C370 C371 1.327 . S
C371 H365 0.950 . S
C371 C370 1.327 . S
C371 C375 1.429 . S
C372 C355 1.574 . S
C372 H366 0.949 . S
C372 C376 1.368 . S
C373 C354 1.429 . S
C373 C367 1.429 . S
C373 C374 1.523 . S
C374 C355 1.368 . S
C374 C368 1.368 . S
C374 C373 1.523 . S
C375 C359 1.429 . S
C375 C371 1.429 . S
C375 C376 1.523 . S
C376 C360 1.368 . S
C376 C372 1.368 . S
C376 C375 1.523 . S
H377 C352 0.950 . S
H378 C354 0.950 . S
H379 C355 0.949 . S
H380 C357 0.950 . S
H381 C359 0.950 . S
C382 C383 1.349 . S
C382 C384 1.327 . S
C382 H407 0.950 . S
C383 C382 1.349 . S
C383 C399 1.349 . S
C384 C382 1.327 . S
C384 C403 1.429 . S
C384 H408 0.950 . S
C385 C402 1.574 . S
C385 C404 1.368 . S
C385 H409 0.949 . S
H386 C390 0.949 . S
C387 C388 1.349 . S
C387 C389 1.327 1_545 S
C387 H410 0.950 . S
C388 C387 1.349 . S
C388 C400 1.349 . S
C389 C387 1.327 1_565 S
C389 C405 1.429 . S
C389 H411 0.950 . S
C390 H386 0.949 . S
C390 C398 1.574 . S
C390 C406 1.368 . S
H391 C399 0.950 . S
H392 C397 0.950 . S
H393 C398 0.949 . S
H394 C400 0.950 . S
H395 C401 0.950 . S
H396 C402 0.949 . S
C397 H392 0.950 . S
C397 C399 1.327 . S
C397 C403 1.429 . S
C398 C390 1.574 . S
C398 H393 0.949 . S
C398 C404 1.368 . S
C399 C383 1.349 . S
C399 H391 0.950 . S
C399 C397 1.327 . S
C400 C388 1.349 . S
C400 H394 0.950 . S
C400 C401 1.327 . S
C401 H395 0.950 . S
C401 C400 1.327 . S
C401 C405 1.429 1_545 S
C402 C385 1.574 . S
C402 H396 0.949 . S
C402 C406 1.368 . S
C403 C384 1.429 . S
C403 C397 1.429 . S
C403 C404 1.523 . S
C404 C385 1.368 . S
C404 C398 1.368 . S
C404 C403 1.523 . S
C405 C389 1.429 . S
C405 C401 1.429 1_565 S
C405 C406 1.523 . S
C406 C390 1.368 . S
C406 C402 1.368 . S
C406 C405 1.523 . S
H407 C382 0.950 . S
H408 C384 0.950 . S
H409 C385 0.949 . S
H410 C387 0.950 . S
H411 C389 0.950 . S
C412 C413 1.349 . S
C412 C414 1.327 . S
C412 H437 0.950 . S
C413 C412 1.349 . S
C413 C429 1.349 . S
C414 C412 1.327 . S
C414 C433 1.429 . S
C414 H438 0.950 . S
C415 C432 1.574 . S
C415 C434 1.368 . S
C415 H439 0.949 . S
H416 C420 0.949 . S
C417 C418 1.349 . S
C417 C419 1.327 . S
C417 H440 0.950 . S
C418 C417 1.349 . S
C418 C430 1.349 . S
C419 C417 1.327 . S
C419 C435 1.429 . S
C419 H441 0.950 . S
C420 H416 0.949 . S
C420 C428 1.574 . S
C420 C436 1.368 . S
H421 C429 0.950 . S
H422 C427 0.950 . S
H423 C428 0.949 . S
H424 C430 0.950 . S
H425 C431 0.950 . S
H426 C432 0.949 . S
C427 H422 0.950 . S
C427 C429 1.327 . S
C427 C433 1.429 . S
C428 C420 1.574 . S
C428 H423 0.949 . S
C428 C434 1.368 . S
C429 C413 1.349 . S
C429 H421 0.950 . S
C429 C427 1.327 . S
C430 C418 1.349 . S
C430 H424 0.950 . S
C430 C431 1.327 . S
C431 H425 0.950 . S
C431 C430 1.327 . S
C431 C435 1.429 . S
C432 C415 1.574 . S
C432 H426 0.949 . S
C432 C436 1.368 . S
C433 C414 1.429 . S
C433 C427 1.429 . S
C433 C434 1.523 . S
C434 C415 1.368 . S
C434 C428 1.368 . S
C434 C433 1.523 . S
C435 C419 1.429 . S
C435 C431 1.429 . S
C435 C436 1.523 . S
C436 C420 1.368 . S
C436 C432 1.368 . S
C436 C435 1.523 . S
H437 C412 0.950 . S
H438 C414 0.950 . S
H439 C415 0.949 . S
H440 C417 0.950 . S
H441 C419 0.950 . S
C442 C443 1.349 . S
C442 C444 1.327 . S
C442 H467 0.950 . S
C443 C442 1.349 . S
C443 C459 1.349 . S
C444 C442 1.327 . S
C444 C463 1.429 . S
C444 H468 0.950 . S
C445 C462 1.574 . S
C445 C464 1.368 . S
C445 H469 0.949 . S
H446 C450 0.949 . S
C447 C448 1.349 . S
C447 C449 1.327 1_565 S
C447 H470 0.950 . S
C448 C447 1.349 . S
C448 C460 1.349 . S
C449 C447 1.327 1_545 S
C449 C465 1.429 . S
C449 H471 0.950 . S
C450 H446 0.949 . S
C450 C458 1.574 . S
C450 C466 1.368 . S
H451 C459 0.950 . S
H452 C457 0.950 . S
H453 C458 0.949 . S
H454 C460 0.950 . S
H455 C461 0.950 . S
H456 C462 0.949 . S
C457 H452 0.950 . S
C457 C459 1.327 . S
C457 C463 1.429 . S
C458 C450 1.574 . S
C458 H453 0.949 . S
C458 C464 1.368 . S
C459 C443 1.349 . S
C459 H451 0.950 . S
C459 C457 1.327 . S
C460 C448 1.349 . S
C460 H454 0.950 . S
C460 C461 1.327 1_565 S
C461 H455 0.950 . S
C461 C460 1.327 1_545 S
C461 C465 1.429 . S
C462 C445 1.574 . S
C462 H456 0.949 . S
C462 C466 1.368 . S
C463 C444 1.429 . S
C463 C457 1.429 . S
C463 C464 1.523 . S
C464 C445 1.368 . S
C464 C458 1.368 . S
C464 C463 1.523 . S
C465 C449 1.429 . S
C465 C461 1.429 . S
C465 C466 1.523 . S
C466 C450 1.368 . S
C466 C462 1.368 . S
C466 C465 1.523 . S
H467 C442 0.950 . S
H468 C444 0.950 . S
H469 C445 0.949 . S
H470 C447 0.950 . S
H471 C449 0.950 . S
C472 C473 1.349 . S
C472 C474 1.327 . S
C472 H497 0.950 . S
C473 C472 1.349 . S
C473 C489 1.349 . S
C474 C472 1.327 . S
C474 C493 1.429 1_455 S
C474 H498 0.950 1_455 S
C475 C492 1.574 . S
C475 C494 1.368 . S
C475 H499 0.949 . S
H476 C480 0.949 . S
C477 C478 1.349 . S
C477 C479 1.327 . S
C477 H500 0.950 . S
C478 C477 1.349 . S
C478 C490 1.349 . S
C479 C477 1.327 . S
C479 C495 1.429 . S
C479 H501 0.950 . S
C480 H476 0.949 . S
C480 C488 1.574 . S
C480 C496 1.368 . S
H481 C489 0.950 . S
H482 C487 0.950 . S
H483 C488 0.949 . S
H484 C490 0.950 . S
H485 C491 0.950 . S
H486 C492 0.949 . S
C487 H482 0.950 . S
C487 C489 1.327 1_655 S
C487 C493 1.429 . S
C488 C480 1.574 . S
C488 H483 0.949 . S
C488 C494 1.368 . S
C489 C473 1.349 . S
C489 H481 0.950 . S
C489 C487 1.327 1_455 S
C490 C478 1.349 . S
C490 H484 0.950 . S
C490 C491 1.327 . S
C491 H485 0.950 . S
C491 C490 1.327 . S
C491 C495 1.429 . S
C492 C475 1.574 . S
C492 H486 0.949 . S
C492 C496 1.368 . S
C493 C474 1.429 1_655 S
C493 C487 1.429 . S
C493 C494 1.523 . S
C494 C475 1.368 . S
C494 C488 1.368 . S
C494 C493 1.523 . S
C495 C479 1.429 . S
C495 C491 1.429 . S
C495 C496 1.523 . S
C496 C480 1.368 . S
C496 C492 1.368 . S
C496 C495 1.523 . S
H497 C472 0.950 . S
H498 C474 0.950 1_655 S
H499 C475 0.949 . S
H500 C477 0.950 . S
H501 C479 0.950 . S
C502 C503 1.349 . S
C502 C504 1.327 . S
C502 H527 0.950 . S
C503 C502 1.349 . S
C503 C519 1.349 . S
C504 C502 1.327 . S
C504 C523 1.429 . S
C504 H528 0.950 . S
C505 C522 1.574 . S
C505 C524 1.368 . S
C505 H529 0.949 . S
H506 C510 0.949 . S
C507 C508 1.349 . S
C507 C509 1.327 . S
C507 H530 0.950 . S
C508 C507 1.349 . S
C508 C520 1.349 . S
C509 C507 1.327 . S
C509 C525 1.429 . S
C509 H531 0.950 . S
C510 H506 0.949 . S
C510 C518 1.574 . S
C510 C526 1.368 . S
H511 C519 0.950 . S
H512 C517 0.950 . S
H513 C518 0.949 . S
H514 C520 0.950 . S
H515 C521 0.950 . S
H516 C522 0.949 . S
C517 H512 0.950 . S
C517 C519 1.327 . S
C517 C523 1.429 . S
C518 C510 1.574 . S
C518 H513 0.949 . S
C518 C524 1.368 . S
C519 C503 1.349 . S
C519 H511 0.950 . S
C519 C517 1.327 . S
C520 C508 1.349 . S
C520 H514 0.950 . S
C520 C521 1.327 . S
C521 H515 0.950 . S
C521 C520 1.327 . S
C521 C525 1.429 . S
C522 C505 1.574 . S
C522 H516 0.949 . S
C522 C526 1.368 . S
C523 C504 1.429 . S
C523 C517 1.429 . S
C523 C524 1.523 . S
C524 C505 1.368 . S
C524 C518 1.368 . S
C524 C523 1.523 . S
C525 C509 1.429 . S
C525 C521 1.429 . S
C525 C526 1.523 . S
C526 C510 1.368 . S
C526 C522 1.368 . S
C526 C525 1.523 . S
H527 C502 0.950 . S
H528 C504 0.950 . S
H529 C505 0.949 . S
H530 C507 0.950 . S
H531 C509 0.950 . S
C532 C533 1.349 . S
C532 C534 1.327 . S
C532 H557 0.950 . S
C533 C532 1.349 . S
C533 C549 1.349 . S
C534 C532 1.327 . S
C534 C553 1.429 . S
C534 H558 0.950 . S
C535 C552 1.574 . S
C535 C554 1.368 . S
C535 H559 0.949 . S
H536 C540 0.949 . S
C537 C538 1.349 . S
C537 C539 1.327 . S
C537 H560 0.950 . S
C538 C537 1.349 . S
C538 C550 1.349 . S
C539 C537 1.327 . S
C539 C555 1.429 1_655 S
C539 H561 0.950 1_655 S
C540 H536 0.949 . S
C540 C548 1.574 . S
C540 C556 1.368 . S
H541 C549 0.950 . S
H542 C547 0.950 . S
H543 C548 0.949 . S
H544 C550 0.950 . S
H545 C551 0.950 . S
H546 C552 0.949 . S
C547 H542 0.950 . S
C547 C549 1.327 . S
C547 C553 1.429 . S
C548 C540 1.574 . S
C548 H543 0.949 . S
C548 C554 1.368 . S
C549 C533 1.349 . S
C549 H541 0.950 . S
C549 C547 1.327 . S
C550 C538 1.349 . S
C550 H544 0.950 . S
C550 C551 1.327 1_655 S
C551 H545 0.950 . S
C551 C550 1.327 1_455 S
C551 C555 1.429 . S
C552 C535 1.574 . S
C552 H546 0.949 . S
C552 C556 1.368 . S
C553 C534 1.429 . S
C553 C547 1.429 . S
C553 C554 1.523 . S
C554 C535 1.368 . S
C554 C548 1.368 . S
C554 C553 1.523 . S
C555 C539 1.429 1_455 S
C555 C551 1.429 . S
C555 C556 1.523 . S
C556 C540 1.368 . S
C556 C552 1.368 . S
C556 C555 1.523 . S
H557 C532 0.950 . S
H558 C534 0.950 . S
H559 C535 0.949 . S
H560 C537 0.950 . S
H561 C539 0.950 1_455 S
C562 C563 1.349 . S
C562 C564 1.327 . S
C562 H587 0.950 . S
C563 C562 1.349 . S
C563 C579 1.349 . S
C564 C562 1.327 . S
C564 C583 1.429 . S
C564 H588 0.950 . S
C565 C582 1.574 . S
C565 C584 1.368 . S
C565 H589 0.949 . S
H566 C570 0.949 . S
C567 C568 1.349 . S
C567 C569 1.327 . S
C567 H590 0.950 . S
C568 C567 1.349 . S
C568 C580 1.349 . S
C569 C567 1.327 . S
C569 C585 1.429 . S
C569 H591 0.950 . S
C570 H566 0.949 . S
C570 C578 1.574 . S
C570 C586 1.368 . S
H571 C579 0.950 . S
H572 C577 0.950 . S
H573 C578 0.949 . S
H574 C580 0.950 . S
H575 C581 0.950 . S
H576 C582 0.949 . S
C577 H572 0.950 . S
C577 C579 1.327 . S
C577 C583 1.429 . S
C578 C570 1.574 . S
C578 H573 0.949 . S
C578 C584 1.368 . S
C579 C563 1.349 . S
C579 H571 0.950 . S
C579 C577 1.327 . S
C580 C568 1.349 . S
C580 H574 0.950 . S
C580 C581 1.327 . S
C581 H575 0.950 . S
C581 C580 1.327 . S
C581 C585 1.429 . S
C582 C565 1.574 . S
C582 H576 0.949 . S
C582 C586 1.368 . S
C583 C564 1.429 . S
C583 C577 1.429 . S
C583 C584 1.523 . S
C584 C565 1.368 . S
C584 C578 1.368 . S
C584 C583 1.523 . S
C585 C569 1.429 . S
C585 C581 1.429 . S
C585 C586 1.523 . S
C586 C570 1.368 . S
C586 C582 1.368 . S
C586 C585 1.523 . S
H587 C562 0.950 . S
H588 C564 0.950 . S
H589 C565 0.949 . S
H590 C567 0.950 . S
H591 C569 0.950 . S
C113 C9 0.319 . S
C118 C37 0.319 . S
C143 C23 0.319 . S
C148 C51 0.319 . S
C173 C65 0.319 . S
C178 C93 0.319 . S
C203 C79 0.319 . S
C208 C107 0.319 . S
C233 C7 1.275 . S
C238 C77 1.275 . S
C263 C21 1.275 . S
C268 C91 1.275 . S
C293 C105 1.275 . S
C298 C35 1.275 . S
C323 C49 1.275 . S
C328 C63 1.275 . S
C353 C59 1.714 . S
C358 C8 1.749 . S
C383 C22 1.749 . S
C388 C73 1.714 . S
C413 C36 1.749 . S
C418 C87 1.714 . S
C443 C50 1.749 . S
C448 C101 1.714 . S
C473 C3 1.714 . S
C478 C64 1.749 . S
C503 C78 1.749 . S
C508 C17 1.714 . S
C533 C92 1.749 . S
C538 C31 1.714 . S
C563 C45 1.714 . S
C568 C106 1.749 . S
