# Generated by pormake.
# Topology lcv-a, (4)-cn, num edge types: 1
# Building blocks:
#     Node 0, Type 0, BuildingBlock: TATPOV_clean_sbu_0, # of connection points: 4
#     Node 1, Type 0, BuildingBlock: TATPOV_clean_sbu_0, # of connection points: 4
#     Node 2, Type 0, BuildingBlock: TATPOV_clean_sbu_0, # of connection points: 4
#     Node 3, Type 0, BuildingBlock: TATPOV_clean_sbu_0, # of connection points: 4
#     Node 4, Type 0, BuildingBlock: TATPOV_clean_sbu_0, # of connection points: 4
#     Node 5, Type 0, BuildingBlock: TATPOV_clean_sbu_0, # of connection points: 4
#     Node 6, Type 0, BuildingBlock: TATPOV_clean_sbu_0, # of connection points: 4
#     Node 7, Type 0, BuildingBlock: TATPOV_clean_sbu_0, # of connection points: 4
#     Node 8, Type 0, BuildingBlock: TATPOV_clean_sbu_0, # of connection points: 4
#     Node 9, Type 0, BuildingBlock: TATPOV_clean_sbu_0, # of connection points: 4
#     Node 10, Type 0, BuildingBlock: TATPOV_clean_sbu_0, # of connection points: 4
#     Node 11, Type 0, BuildingBlock: TATPOV_clean_sbu_0, # of connection points: 4
#     Node 12, Type 0, BuildingBlock: TATPOV_clean_sbu_0, # of connection points: 4
#     Node 13, Type 0, BuildingBlock: TATPOV_clean_sbu_0, # of connection points: 4
#     Node 14, Type 0, BuildingBlock: TATPOV_clean_sbu_0, # of connection points: 4
#     Node 15, Type 0, BuildingBlock: TATPOV_clean_sbu_0, # of connection points: 4
#     Node 16, Type 0, BuildingBlock: TATPOV_clean_sbu_0, # of connection points: 4
#     Node 17, Type 0, BuildingBlock: TATPOV_clean_sbu_0, # of connection points: 4
#     Node 18, Type 0, BuildingBlock: TATPOV_clean_sbu_0, # of connection points: 4
#     Node 19, Type 0, BuildingBlock: TATPOV_clean_sbu_0, # of connection points: 4
#     Node 20, Type 0, BuildingBlock: TATPOV_clean_sbu_0, # of connection points: 4
#     Node 21, Type 0, BuildingBlock: TATPOV_clean_sbu_0, # of connection points: 4
#     Node 22, Type 0, BuildingBlock: TATPOV_clean_sbu_0, # of connection points: 4
#     Node 23, Type 0, BuildingBlock: TATPOV_clean_sbu_0, # of connection points: 4
#     Node 24, Type 0, BuildingBlock: TATPOV_clean_sbu_0, # of connection points: 4
#     Node 25, Type 0, BuildingBlock: TATPOV_clean_sbu_0, # of connection points: 4
#     Node 26, Type 0, BuildingBlock: TATPOV_clean_sbu_0, # of connection points: 4
#     Node 27, Type 0, BuildingBlock: TATPOV_clean_sbu_0, # of connection points: 4
#     Node 28, Type 0, BuildingBlock: TATPOV_clean_sbu_0, # of connection points: 4
#     Node 29, Type 0, BuildingBlock: TATPOV_clean_sbu_0, # of connection points: 4
#     Node 30, Type 0, BuildingBlock: TATPOV_clean_sbu_0, # of connection points: 4
#     Node 31, Type 0, BuildingBlock: TATPOV_clean_sbu_0, # of connection points: 4
#     Node 32, Type 0, BuildingBlock: TATPOV_clean_sbu_0, # of connection points: 4
#     Node 33, Type 0, BuildingBlock: TATPOV_clean_sbu_0, # of connection points: 4
#     Node 34, Type 0, BuildingBlock: TATPOV_clean_sbu_0, # of connection points: 4
#     Node 35, Type 0, BuildingBlock: TATPOV_clean_sbu_0, # of connection points: 4
#     Node 36, Type 0, BuildingBlock: TATPOV_clean_sbu_0, # of connection points: 4
#     Node 37, Type 0, BuildingBlock: TATPOV_clean_sbu_0, # of connection points: 4
#     Node 38, Type 0, BuildingBlock: TATPOV_clean_sbu_0, # of connection points: 4
#     Node 39, Type 0, BuildingBlock: TATPOV_clean_sbu_0, # of connection points: 4
#     Node 40, Type 0, BuildingBlock: TATPOV_clean_sbu_0, # of connection points: 4
#     Node 41, Type 0, BuildingBlock: TATPOV_clean_sbu_0, # of connection points: 4
#     Node 42, Type 0, BuildingBlock: TATPOV_clean_sbu_0, # of connection points: 4
#     Node 43, Type 0, BuildingBlock: TATPOV_clean_sbu_0, # of connection points: 4
#     Node 44, Type 0, BuildingBlock: TATPOV_clean_sbu_0, # of connection points: 4
#     Node 45, Type 0, BuildingBlock: TATPOV_clean_sbu_0, # of connection points: 4
#     Node 46, Type 0, BuildingBlock: TATPOV_clean_sbu_0, # of connection points: 4
#     Node 47, Type 0, BuildingBlock: TATPOV_clean_sbu_0, # of connection points: 4
#     Edge 48, Type (0, 0), None
#     Edge 49, Type (0, 0), None
#     Edge 50, Type (0, 0), None
#     Edge 51, Type (0, 0), None
#     Edge 52, Type (0, 0), None
#     Edge 53, Type (0, 0), None
#     Edge 54, Type (0, 0), None
#     Edge 55, Type (0, 0), None
#     Edge 56, Type (0, 0), None
#     Edge 57, Type (0, 0), None
#     Edge 58, Type (0, 0), None
#     Edge 59, Type (0, 0), None
#     Edge 60, Type (0, 0), None
#     Edge 61, Type (0, 0), None
#     Edge 62, Type (0, 0), None
#     Edge 63, Type (0, 0), None
#     Edge 64, Type (0, 0), None
#     Edge 65, Type (0, 0), None
#     Edge 66, Type (0, 0), None
#     Edge 67, Type (0, 0), None
#     Edge 68, Type (0, 0), None
#     Edge 69, Type (0, 0), None
#     Edge 70, Type (0, 0), None
#     Edge 71, Type (0, 0), None
#     Edge 72, Type (0, 0), None
#     Edge 73, Type (0, 0), None
#     Edge 74, Type (0, 0), None
#     Edge 75, Type (0, 0), None
#     Edge 76, Type (0, 0), None
#     Edge 77, Type (0, 0), None
#     Edge 78, Type (0, 0), None
#     Edge 79, Type (0, 0), None
#     Edge 80, Type (0, 0), None
#     Edge 81, Type (0, 0), None
#     Edge 82, Type (0, 0), None
#     Edge 83, Type (0, 0), None
#     Edge 84, Type (0, 0), None
#     Edge 85, Type (0, 0), None
#     Edge 86, Type (0, 0), None
#     Edge 87, Type (0, 0), None
#     Edge 88, Type (0, 0), None
#     Edge 89, Type (0, 0), None
#     Edge 90, Type (0, 0), None
#     Edge 91, Type (0, 0), None
#     Edge 92, Type (0, 0), None
#     Edge 93, Type (0, 0), None
#     Edge 94, Type (0, 0), None
#     Edge 95, Type (0, 0), None
#     Edge 96, Type (0, 0), None
#     Edge 97, Type (0, 0), None
#     Edge 98, Type (0, 0), None
#     Edge 99, Type (0, 0), None
#     Edge 100, Type (0, 0), None
#     Edge 101, Type (0, 0), None
#     Edge 102, Type (0, 0), None
#     Edge 103, Type (0, 0), None
#     Edge 104, Type (0, 0), None
#     Edge 105, Type (0, 0), None
#     Edge 106, Type (0, 0), None
#     Edge 107, Type (0, 0), None
#     Edge 108, Type (0, 0), None
#     Edge 109, Type (0, 0), None
#     Edge 110, Type (0, 0), None
#     Edge 111, Type (0, 0), None
#     Edge 112, Type (0, 0), None
#     Edge 113, Type (0, 0), None
#     Edge 114, Type (0, 0), None
#     Edge 115, Type (0, 0), None
#     Edge 116, Type (0, 0), None
#     Edge 117, Type (0, 0), None
#     Edge 118, Type (0, 0), None
#     Edge 119, Type (0, 0), None
#     Edge 120, Type (0, 0), None
#     Edge 121, Type (0, 0), None
#     Edge 122, Type (0, 0), None
#     Edge 123, Type (0, 0), None
#     Edge 124, Type (0, 0), None
#     Edge 125, Type (0, 0), None
#     Edge 126, Type (0, 0), None
#     Edge 127, Type (0, 0), None
#     Edge 128, Type (0, 0), None
#     Edge 129, Type (0, 0), None
#     Edge 130, Type (0, 0), None
#     Edge 131, Type (0, 0), None
#     Edge 132, Type (0, 0), None
#     Edge 133, Type (0, 0), None
#     Edge 134, Type (0, 0), None
#     Edge 135, Type (0, 0), None
#     Edge 136, Type (0, 0), None
#     Edge 137, Type (0, 0), None
#     Edge 138, Type (0, 0), None
#     Edge 139, Type (0, 0), None
#     Edge 140, Type (0, 0), None
#     Edge 141, Type (0, 0), None
#     Edge 142, Type (0, 0), None
#     Edge 143, Type (0, 0), None
# Relax obj value: 0.775
# Max RMSD: 0.308
# Mean RMSD: 0.308
data_MOF--net-lcv-a--node1-TATPOV_clean_sbu_0--edge1-none
_symmetry_space_group_name_H-M    P1
_symmetry_Int_Tables_number       1
_symmetry_cell_setting            triclinic
loop_
_symmetry_equiv_pos_as_xyz
'x, y, z'
_cell_length_a     42.457494
_cell_length_b     42.454069
_cell_length_c     42.464861
_cell_angle_alpha  90.021678
_cell_angle_beta   89.990748
_cell_angle_gamma 90.065993
loop_
_atom_site_label
_atom_site_type_symbol
_atom_site_fract_x
_atom_site_fract_y
_atom_site_fract_z
_atom_type_partial_charge
Zn0 Zn 0.04904 0.34414 0.09794 0.0
Zn1 Zn 0.04858 0.3432 0.15008 0.0
O2 O 0.03305 0.30176 0.16641 0.0
O3 O 0.03187 0.29955 0.11475 0.0
O4 O 0.05455 0.37379 0.186 0.0
O5 O 0.01625 0.37273 0.08018 0.0
O6 O 0.00538 0.35587 0.12757 0.0
C7 C 0.02687 0.28655 0.1414 0.0
C8 C 0.10355 0.32561 0.10055 0.0
O9 O 0.09075 0.32532 0.12801 0.0
O10 O 0.09215 0.34363 0.07983 0.0
C11 C 0.04783 0.36633 0.21424 0.0
O12 O 0.04265 0.33668 0.22131 0.0
C13 C -0.00412 0.36612 0.10085 0.0
Zn14 Zn 0.94905 0.74004 0.45217 0.0
Zn15 Zn 0.95025 0.74101 0.50369 0.0
O16 O -0.00976 0.75818 0.52243 0.0
O17 O -0.00711 0.75854 0.47064 0.0
O18 O 0.91943 0.72376 0.53533 0.0
O19 O 0.95082 0.69631 0.43482 0.0
O20 O 0.9716 0.70088 0.48164 0.0
C21 C 0.00563 0.76415 0.49736 0.0
C22 C 0.92521 0.79265 0.4533 0.0
O23 O 0.93495 0.78402 0.48066 0.0
O24 O 0.92055 0.7717 0.43269 0.0
C25 C 0.89171 0.73428 0.53904 0.0
O26 O 0.88338 0.7604 0.52476 0.0
C27 C 0.9702 0.68652 0.45514 0.0
Zn28 Zn 0.49328 0.69749 0.59919 0.0
Zn29 Zn 0.49435 0.69913 0.6513 0.0
O30 O 0.51007 0.74078 0.66694 0.0
O31 O 0.51065 0.74229 0.61525 0.0
O32 O 0.48861 0.66898 0.68759 0.0
O33 O 0.52587 0.66866 0.5814 0.0
O34 O 0.53729 0.68613 0.62844 0.0
C35 C 0.51596 0.75565 0.64167 0.0
C36 C 0.4388 0.71604 0.60225 0.0
O37 O 0.45195 0.71673 0.62953 0.0
O38 O 0.44995 0.69773 0.58163 0.0
C39 C 0.49609 0.6766 0.7156 0.0
O40 O 0.50212 0.7062 0.72223 0.0
C41 C 0.54648 0.67554 0.60173 0.0
Zn42 Zn 0.59129 0.30235 0.95254 0.0
Zn43 Zn 0.58981 0.30139 0.00405 0.0
O44 O 0.54971 0.28423 0.02258 0.0
O45 O 0.54735 0.28385 0.97078 0.0
O46 O 0.62049 0.31862 0.03584 0.0
O47 O 0.58961 0.34607 0.93521 0.0
O48 O 0.56858 0.34152 -0.01808 0.0
C49 C 0.53447 0.27825 -0.00257 0.0
C50 C 0.61513 0.24973 0.95378 0.0
O51 O 0.60523 0.25837 -0.01891 0.0
O52 O 0.61991 0.27068 0.93321 0.0
C53 C 0.64807 0.30785 0.03995 0.0
O54 O 0.65629 0.28152 0.02598 0.0
C55 C 0.57012 0.35586 0.95543 0.0
Zn56 Zn 0.05282 0.6976 0.44511 0.0
Zn57 Zn 0.05112 0.69856 0.39292 0.0
O58 O 0.03412 0.73961 0.37726 0.0
O59 O 0.03411 0.74172 0.42893 0.0
O60 O 0.05671 0.66858 0.3564 0.0
O61 O 0.0212 0.66806 0.46359 0.0
O62 O 0.00887 0.68454 0.41642 0.0
C63 C 0.02816 0.75461 0.40244 0.0
C64 C 0.10669 0.71772 0.44123 0.0
O65 O 0.09333 0.71759 0.41404 0.0
O66 O 0.0963 0.6993 0.46215 0.0
C67 C 0.04996 0.67657 0.32831 0.0
O68 O 0.0453 0.7064 0.32171 0.0
C69 C 0.00024 0.674 0.44334 0.0
Zn70 Zn 0.59591 0.74298 0.59241 0.0
Zn71 Zn 0.59491 0.74323 0.54083 0.0
O72 O 0.55455 0.75895 0.52184 0.0
O73 O 0.55167 0.75995 0.5736 0.0
O74 O 0.626 0.72661 0.5092 0.0
O75 O 0.59515 0.6995 0.61039 0.0
O76 O 0.57466 0.70275 0.56331 0.0
C77 C 0.5389 0.76481 0.54677 0.0
C78 C 0.61838 0.79622 0.59057 0.0
O79 O 0.60898 0.78694 0.56329 0.0
O80 O 0.62362 0.77569 0.61142 0.0
C81 C 0.65404 0.73672 0.50679 0.0
O82 O 0.66247 0.76202 0.52247 0.0
C83 C 0.57626 0.68882 0.59002 0.0
Zn84 Zn 0.48756 0.34476 0.94495 0.0
Zn85 Zn 0.48955 0.34378 0.89277 0.0
O86 O 0.50664 0.30271 0.87719 0.0
O87 O 0.50636 0.30063 0.92885 0.0
O88 O 0.4842 0.37372 0.85621 0.0
O89 O 0.51906 0.3743 0.96361 0.0
O90 O 0.53167 0.35781 0.91651 0.0
C91 C 0.51247 0.28773 0.90239 0.0
C92 C 0.4337 0.32463 0.94078 0.0
O93 O 0.44722 0.32475 0.91365 0.0
O94 O 0.44398 0.34306 0.96176 0.0
C95 C 0.49099 0.36565 0.82815 0.0
O96 O 0.49549 0.33578 0.82157 0.0
C97 C 0.54014 0.36836 0.94347 0.0
Zn98 Zn 0.94636 0.29856 0.093 0.0
Zn99 Zn 0.94675 0.29762 0.04143 0.0
O100 O -0.01313 0.28165 0.02211 0.0
O101 O -0.00962 0.28134 0.07384 0.0
O102 O 0.91514 0.31379 0.01016 0.0
O103 O 0.94732 0.34229 0.11039 0.0
O104 O 0.96727 0.3384 0.06312 0.0
C105 C 0.00282 0.27612 0.04691 0.0
C106 C 0.92386 0.2453 0.09207 0.0
O107 O 0.93299 0.25421 0.06459 0.0
O108 O 0.91884 0.26611 0.11272 0.0
C109 C 0.88695 0.3039 0.00893 0.0
O110 O 0.87884 0.27906 0.02547 0.0
C111 C 0.96597 0.35269 0.08967 0.0
Zn112 Zn 0.10014 0.04782 0.34248 0.0
Zn113 Zn 0.15222 0.04605 0.33988 0.0
O114 O 0.16678 0.02978 0.29809 0.0
O115 O 0.11506 0.02985 0.29757 0.0
O116 O 0.18921 0.05161 0.36922 0.0
O117 O 0.08245 0.01572 0.37194 0.0
O118 O 0.12901 0.00354 0.35374 0.0
C119 C 0.14114 0.02409 0.28377 0.0
C120 C 0.10363 0.10208 0.32334 0.0
O121 O 0.13072 0.08857 0.32229 0.0
O122 O 0.08322 0.09139 0.34217 0.0
C123 C 0.21689 0.04337 0.3612 0.0
O124 O 0.22276 0.03656 0.33162 0.0
C125 C 0.10237 -0.00522 0.36491 0.0
Zn126 Zn 0.30233 0.95193 0.59208 0.0
Zn127 Zn 0.30221 0.00347 0.58992 0.0
O128 O 0.2861 0.02159 0.54928 0.0
O129 O 0.28495 0.96977 0.54759 0.0
O130 O 0.31927 0.03571 0.62022 0.0
O131 O 0.34576 0.93387 0.59132 0.0
O132 O 0.3424 -0.01956 0.56975 0.0
C133 C 0.28002 -0.00368 0.53426 0.0
C134 C 0.24932 0.95429 0.61494 0.0
O135 O 0.25856 -0.01865 0.60488 0.0
O136 O 0.26985 0.9335 0.62041 0.0
C137 C 0.30837 0.04035 0.64767 0.0
O138 O 0.282 0.02652 0.65607 0.0
C139 C 0.35628 0.95374 0.57182 0.0
Zn140 Zn 0.4425 -0.00674 0.8419 0.0
Zn141 Zn 0.39038 -0.00525 0.83962 0.0
O142 O 0.37556 0.01129 0.79805 0.0
O143 O 0.42728 0.0115 0.79722 0.0
O144 O 0.35344 -0.01106 0.86902 0.0
O145 O 0.46018 0.02523 0.87152 0.0
O146 O 0.41343 0.03727 0.85373 0.0
C147 C 0.40109 0.01722 0.78363 0.0
C148 C 0.43923 0.93916 0.82227 0.0
O149 O 0.41204 0.95248 0.82153 0.0
O150 O 0.45968 0.94981 0.84108 0.0
C151 C 0.32562 -0.00339 0.86092 0.0
O152 O 0.3196 0.00282 0.83126 0.0
C153 C 0.44008 0.0461 0.86482 0.0
Zn154 Zn 0.23816 0.0893 0.09073 0.0
Zn155 Zn 0.23873 0.03776 0.08881 0.0
O156 O 0.25527 0.01952 0.04837 0.0
O157 O 0.256 0.07134 0.04644 0.0
O158 O 0.2217 0.00569 0.1193 0.0
O159 O 0.19457 0.10696 0.08963 0.0
O160 O 0.1985 0.06034 0.06825 0.0
C161 C 0.26125 0.04476 0.03327 0.0
C162 C 0.29104 0.0875 0.11396 0.0
O163 O 0.28209 0.06032 0.10394 0.0
O164 O 0.2703 0.10816 0.11918 0.0
C165 C 0.23276 0.00114 0.14669 0.0
O166 O 0.25925 0.01489 0.15485 0.0
C167 C 0.18438 0.08692 0.07013 0.0
Zn168 Zn 0.09542 -0.01201 0.19527 0.0
Zn169 Zn 0.14761 -0.01129 0.19495 0.0
O170 O 0.16476 0.00467 0.23588 0.0
O171 O 0.11317 0.0056 0.23929 0.0
O172 O 0.18311 -0.017 0.16381 0.0
O173 O 0.07687 0.02047 0.16681 0.0
O174 O 0.12462 0.03167 0.18242 0.0
C175 C 0.1401 0.01084 0.25162 0.0
C176 C 0.09865 0.93367 0.21424 0.0
O177 O 0.1261 0.94655 0.21371 0.0
O178 O 0.07747 0.94483 0.19661 0.0
C179 C 0.21158 -0.01109 0.17113 0.0
O180 O 0.21918 -0.00731 0.20086 0.0
C181 C 0.09763 0.04098 0.17272 0.0
Zn182 Zn 0.24401 0.94919 0.44595 0.0
Zn183 Zn 0.24537 0.00073 0.44585 0.0
O184 O 0.26188 0.02041 0.48561 0.0
O185 O 0.26182 0.9687 0.48961 0.0
O186 O 0.22903 0.03163 0.41396 0.0
O187 O 0.20014 0.93216 0.44744 0.0
O188 O 0.20465 -0.02047 0.46699 0.0
C189 C 0.26738 -0.00428 0.50175 0.0
C190 C 0.29705 0.94947 0.42298 0.0
O191 O 0.28846 0.97711 0.43194 0.0
O192 O 0.27602 0.92892 0.41837 0.0
C193 C 0.23857 0.0322 0.38564 0.0
O194 O 0.26318 0.01532 0.37758 0.0
C195 C 0.19011 0.9531 0.46604 0.0
Zn196 Zn 0.44603 0.05442 0.6952 0.0
Zn197 Zn 0.39383 0.05324 0.69516 0.0
O198 O 0.37707 0.03681 0.73604 0.0
O199 O 0.42869 0.0363 0.73917 0.0
O200 O 0.35805 0.05883 0.66435 0.0
O201 O 0.46473 0.02232 0.66637 0.0
O202 O 0.41714 0.0106 0.68211 0.0
C203 C 0.40187 0.03074 0.75159 0.0
C204 C 0.44241 0.10854 0.71467 0.0
O205 O 0.41506 0.09544 0.71416 0.0
O206 O 0.46359 0.09772 0.6968 0.0
C207 C 0.32967 0.05279 0.67191 0.0
O208 O 0.32232 0.04905 0.7017 0.0
C209 C 0.44416 0.00159 0.67218 0.0
Zn210 Zn 0.29761 0.09177 0.94506 0.0
Zn211 Zn 0.2966 0.04022 0.94511 0.0
O212 O 0.27991 0.02059 -0.01517 0.0
O213 O 0.27961 0.07231 -0.01134 0.0
O214 O 0.31344 0.00924 0.91349 0.0
O215 O 0.34136 0.10909 0.94678 0.0
O216 O 0.33701 0.06178 0.96649 0.0
C217 C 0.27413 0.04531 0.00085 0.0
C218 C 0.24474 0.0911 0.92174 0.0
O219 O 0.25345 0.06353 0.9308 0.0
O220 O 0.26566 0.11179 0.91726 0.0
C221 C 0.3038 0.00787 0.88523 0.0
O222 O 0.27879 0.02404 0.87695 0.0
C223 C 0.35138 0.08831 0.96555 0.0
Zn224 Zn 0.34137 0.09632 0.04846 0.0
Zn225 Zn 0.3405 0.14855 0.04809 0.0
O226 O 0.29928 0.16472 0.03196 0.0
O227 O 0.29708 0.11306 0.03066 0.0
O228 O 0.37079 0.18475 0.05438 0.0
O229 O 0.37052 0.07864 0.01608 0.0
O230 O 0.35393 0.1261 0.0051 0.0
C231 C 0.28416 0.13971 0.02552 0.0
C232 C 0.32196 0.09888 0.10264 0.0
O233 O 0.32194 0.1264 0.08995 0.0
O234 O 0.34016 0.07817 0.09151 0.0
C235 C 0.3631 0.21298 0.04789 0.0
O236 O 0.33339 0.21985 0.04289 0.0
C237 C 0.36432 0.09939 -0.0043 0.0
Zn238 Zn 0.84307 0.442 -0.00732 0.0
Zn239 Zn 0.84084 0.38991 -0.00537 0.0
O240 O 0.79917 0.37503 0.01097 0.0
O241 O 0.79827 0.42676 0.01071 0.0
O242 O 0.87043 0.35313 -0.01071 0.0
O243 O 0.87243 0.46002 0.02471 0.0
O244 O 0.85457 0.41334 0.03705 0.0
C245 C 0.78466 0.40057 0.01657 0.0
C246 C 0.82393 0.43821 0.93845 0.0
O247 O 0.82309 0.41115 0.95204 0.0
O248 O 0.84262 0.4588 0.94907 0.0
C249 C 0.8625 0.32536 -0.00264 0.0
O250 O 0.83287 0.31921 0.00372 0.0
C251 C 0.86556 0.44009 0.0457 0.0
Zn252 Zn 0.95114 0.59485 0.30053 0.0
Zn253 Zn 0.00269 0.59376 0.29985 0.0
O254 O 0.0215 0.55363 0.2832 0.0
O255 O 0.96971 0.55087 0.28259 0.0
O256 O 0.03445 0.62457 0.31692 0.0
O257 O 0.93353 0.59343 0.34414 0.0
O258 O -0.01956 0.57279 0.34008 0.0
C259 C -0.00352 0.53813 0.27726 0.0
C260 C 0.95253 0.61818 0.24769 0.0
O261 O -0.02012 0.60862 0.25657 0.0
O262 O 0.93182 0.62303 0.26848 0.0
C263 C 0.03787 0.65245 0.30667 0.0
O264 O 0.02311 0.66104 0.2809 0.0
C265 C 0.95385 0.57423 0.35427 0.0
Zn266 Zn 0.69813 0.59845 0.49093 0.0
Zn267 Zn 0.69995 0.65058 0.49277 0.0
O268 O 0.7414 0.66576 0.50937 0.0
O269 O 0.7427 0.61405 0.50923 0.0
O270 O 0.67024 0.68728 0.48737 0.0
O271 O 0.66868 0.5803 0.52279 0.0
O272 O 0.68608 0.62716 0.53512 0.0
C273 C 0.75606 0.64035 0.51513 0.0
C274 C 0.71768 0.60219 0.43685 0.0
O275 O 0.71818 0.62933 0.45033 0.0
O276 O 0.69906 0.5815 0.44737 0.0
C277 C 0.67827 0.71519 0.49484 0.0
O278 O 0.70803 0.72154 0.50034 0.0
C279 C 0.67522 0.60037 0.54378 0.0
Zn280 Zn 0.09115 0.94484 0.29819 0.0
Zn281 Zn 0.03957 0.94641 0.29891 0.0
O282 O 0.02079 -0.01314 0.28309 0.0
O283 O 0.07256 -0.01086 0.28112 0.0
O284 O 0.00778 0.91594 0.31651 0.0
O285 O 0.10994 0.94579 0.34133 0.0
O286 O 0.06307 0.96682 0.33873 0.0
C287 C 0.04579 0.00217 0.27661 0.0
C288 C 0.08809 0.92189 0.24526 0.0
O289 O 0.06108 0.93164 0.25493 0.0
O290 O 0.1093 0.91668 0.26544 0.0
C291 C 0.00391 0.88807 0.30638 0.0
O292 O 0.01823 0.87925 0.28043 0.0
C293 C 0.09002 0.96503 0.35217 0.0
Zn294 Zn 0.19942 0.94546 0.54904 0.0
Zn295 Zn 0.19993 0.89323 0.54893 0.0
O296 O 0.24114 0.87663 0.53316 0.0
O297 O 0.24372 0.92827 0.53162 0.0
O298 O 0.16929 0.85733 0.55518 0.0
O299 O 0.17063 0.96316 0.51638 0.0
O300 O 0.18698 0.91553 0.50573 0.0
C301 C 0.25647 0.9015 0.5267 0.0
C302 C 0.21842 0.94309 0.60338 0.0
O303 O 0.21834 0.9155 0.59082 0.0
O304 O 0.20047 0.96387 0.592 0.0
C305 C 0.17679 0.82899 0.54894 0.0
O306 O 0.20649 0.82183 0.54424 0.0
C307 C 0.17685 0.94226 0.49613 0.0
Zn308 Zn 0.95075 0.44917 0.24095 0.0
Zn309 Zn 0.00229 0.45005 0.24185 0.0
O310 O 0.02135 0.49009 0.25852 0.0
O311 O 0.96957 0.49308 0.25893 0.0
O312 O 0.03363 0.41878 0.22504 0.0
O313 O 0.93337 0.45063 0.19725 0.0
O314 O -0.0196 0.47109 0.2015 0.0
C315 C -0.0036 0.5057 0.26435 0.0
C316 C 0.95182 0.42585 0.29381 0.0
O317 O -0.02078 0.43539 0.28504 0.0
O318 O 0.93118 0.42102 0.27293 0.0
C319 C 0.03637 0.39096 0.2356 0.0
O320 O 0.02139 0.38298 0.26145 0.0
C321 C 0.95386 0.46974 0.18721 0.0
Zn322 Zn 0.59168 0.59287 0.742 0.0
Zn323 Zn 0.54015 0.5923 0.74316 0.0
O324 O 0.52091 0.55225 0.75954 0.0
O325 O 0.57266 0.54892 0.75968 0.0
O326 O 0.50896 0.6239 0.72679 0.0
O327 O 0.60886 0.59164 0.69821 0.0
O328 O 0.56171 0.57148 0.7025 0.0
C329 C 0.54578 0.53643 0.76511 0.0
C330 C 0.59096 0.61577 0.79506 0.0
O331 O 0.56347 0.60645 0.78635 0.0
O332 O 0.61151 0.62069 0.77413 0.0
C333 C 0.50738 0.65195 0.73699 0.0
O334 O 0.5234 0.65987 0.76224 0.0
C335 C 0.58818 0.57277 0.68808 0.0
Zn336 Zn 0.55174 0.84535 0.59803 0.0
Zn337 Zn 0.55048 0.84466 0.65018 0.0
O338 O 0.53473 0.80327 0.66644 0.0
O339 O 0.53434 0.80084 0.61479 0.0
O340 O 0.55589 0.87539 0.68607 0.0
O341 O 0.5192 0.87386 0.57967 0.0
O342 O 0.50763 0.85721 0.62696 0.0
C343 C 0.52894 0.78795 0.64141 0.0
C344 C 0.60621 0.82692 0.60157 0.0
O345 O 0.593 0.82673 0.62884 0.0
O346 O 0.59512 0.84482 0.58059 0.0
C347 C 0.54876 0.86803 0.71423 0.0
O348 O 0.54353 0.8384 0.72135 0.0
C349 C 0.49852 0.86734 0.60005 0.0
Zn350 Zn 0.44635 0.24102 0.95084 0.0
Zn351 Zn 0.44671 0.24175 0.00239 0.0
O352 O 0.48639 0.25885 0.02184 0.0
O353 O 0.48987 0.25946 0.9701 0.0
O354 O 0.41542 0.22433 0.03347 0.0
O355 O 0.44842 0.19736 0.93335 0.0
O356 O 0.46843 0.20173 -0.01948 0.0
C357 C 0.50218 0.26495 -0.00295 0.0
C358 C 0.42243 0.29358 0.95185 0.0
O359 O 0.43175 0.28485 -0.02067 0.0
O360 O 0.41811 0.27274 0.93107 0.0
C361 C 0.38754 0.23466 0.03652 0.0
O362 O 0.37933 0.26066 0.02195 0.0
C363 C 0.46747 0.18749 0.95393 0.0
Zn364 Zn -0.00942 0.19628 0.09932 0.0
Zn365 Zn -0.00756 0.19768 0.15143 0.0
O366 O 0.00839 0.23926 0.167 0.0
O367 O 0.00818 0.24101 0.11531 0.0
O368 O -0.01273 0.16738 0.18768 0.0
O369 O 0.02289 0.16753 0.08092 0.0
O370 O 0.03502 0.18479 0.12786 0.0
C371 C 0.01389 0.25425 0.14171 0.0
C372 C 0.93614 0.21475 0.10332 0.0
O373 O 0.9497 0.21533 0.1304 0.0
O374 O 0.94697 0.19655 0.08244 0.0
C375 C -0.00487 0.1749 0.21561 0.0
O376 O 0.00118 0.20449 0.22228 0.0
C377 C 0.04381 0.17431 0.10097 0.0
Zn378 Zn 0.09401 0.80134 0.45126 0.0
Zn379 Zn 0.09336 0.80063 0.5028 0.0
O380 O 0.05357 0.78355 0.52203 0.0
O381 O 0.05038 0.78292 0.47028 0.0
O382 O 0.12453 0.81802 0.53403 0.0
O383 O 0.09205 0.84499 0.43377 0.0
O384 O 0.07178 0.84065 0.48083 0.0
C385 C 0.03792 0.77744 0.49716 0.0
C386 C 0.11791 0.74877 0.45238 0.0
O387 O 0.10843 0.75751 0.4798 0.0
O388 O 0.12235 0.7696 0.43162 0.0
C389 C 0.15226 0.80745 0.53747 0.0
O390 O 0.16038 0.78124 0.52321 0.0
C391 C 0.07289 0.85487 0.45426 0.0
Zn392 Zn 0.55024 0.19863 0.94529 0.0
Zn393 Zn 0.54937 0.19979 0.89307 0.0
O394 O 0.53264 0.24093 0.87733 0.0
O395 O 0.53181 0.24282 0.929 0.0
O396 O 0.5555 0.16996 0.85651 0.0
O397 O 0.51834 0.16901 0.96313 0.0
O398 O 0.50676 0.18569 0.91584 0.0
C399 C 0.52628 0.25582 0.90247 0.0
C400 C 0.60418 0.2187 0.94233 0.0
O401 O 0.59126 0.2187 0.91492 0.0
O402 O 0.59346 0.20022 0.96302 0.0
C403 C 0.54918 0.17808 0.82836 0.0
O404 O 0.54466 0.20795 0.82181 0.0
C405 C 0.4977 0.17504 0.94257 0.0
Zn406 Zn 0.09313 0.24178 0.09121 0.0
Zn407 Zn 0.09137 0.24222 0.03964 0.0
O408 O 0.05072 0.25806 0.02134 0.0
O409 O 0.04862 0.25885 0.07314 0.0
O410 O 0.12196 0.22572 0.00747 0.0
O411 O 0.0926 0.19822 0.10901 0.0
O412 O 0.07142 0.20167 0.06225 0.0
C413 C 0.03545 0.26383 0.04652 0.0
C414 C 0.11563 0.29499 0.08923 0.0
O415 O 0.10581 0.28584 0.06205 0.0
O416 O 0.12116 0.27438 0.10993 0.0
C417 C 0.14987 0.23599 0.0044 0.0
O418 O 0.15848 0.26143 0.01977 0.0
C419 C 0.07342 0.18763 0.08888 0.0
Zn420 Zn -0.00985 0.84374 0.44517 0.0
Zn421 Zn -0.00868 0.84255 0.39295 0.0
O422 O 0.00813 0.8014 0.37729 0.0
O423 O 0.00867 0.79954 0.42896 0.0
O424 O -0.01455 0.87234 0.35635 0.0
O425 O 0.02197 0.87336 0.46319 0.0
O426 O 0.03381 0.85665 0.41596 0.0
C427 C 0.01435 0.78652 0.40245 0.0
C428 C 0.93623 0.82367 0.44191 0.0
O429 O 0.9493 0.82366 0.41457 0.0
O430 O 0.94684 0.84216 0.46267 0.0
C431 C -0.00818 0.86415 0.32823 0.0
O432 O -0.0038 0.83425 0.3217 0.0
C433 C 0.04271 0.86732 0.44274 0.0
Zn434 Zn 0.44912 0.79973 0.59176 0.0
Zn435 Zn 0.45028 0.79859 0.54019 0.0
O436 O 0.49069 0.78254 0.52156 0.0
O437 O 0.49342 0.78243 0.57334 0.0
O438 O 0.41917 0.81466 0.50836 0.0
O439 O 0.44983 0.84354 0.60898 0.0
O440 O 0.47048 0.83945 0.56203 0.0
C441 C 0.50626 0.77711 0.54662 0.0
C442 C 0.4266 0.74651 0.59069 0.0
O443 O 0.43614 0.75529 0.56331 0.0
O444 O 0.42128 0.76739 0.61119 0.0
C445 C 0.39109 0.80458 0.50643 0.0
O446 O 0.38276 0.77959 0.52266 0.0
C447 C 0.46878 0.85385 0.58849 0.0
Zn448 Zn 0.59851 0.54959 0.84466 0.0
Zn449 Zn 0.65065 0.54787 0.84311 0.0
O450 O 0.66605 0.53165 0.80161 0.0
O451 O 0.61434 0.53169 0.80004 0.0
O452 O 0.68709 0.55335 0.87314 0.0
O453 O 0.58028 0.51744 0.87374 0.0
O454 O 0.62721 0.50533 0.85647 0.0
C455 C 0.6407 0.52596 0.78676 0.0
C456 C 0.60236 0.60388 0.82571 0.0
O457 O 0.62948 0.59041 0.82517 0.0
O458 O 0.58157 0.59315 0.84409 0.0
C459 C 0.715 0.54561 0.86548 0.0
O460 O 0.72151 0.53948 0.83589 0.0
C461 C 0.60037 0.49654 0.8671 0.0
Zn462 Zn 0.79882 0.45085 0.09562 0.0
Zn463 Zn 0.79913 0.50242 0.09392 0.0
O464 O 0.78317 0.52101 0.05344 0.0
O465 O 0.78159 0.46921 0.05129 0.0
O466 O 0.81649 0.53433 0.12441 0.0
O467 O 0.8421 0.43244 0.09474 0.0
O468 O 0.83913 0.47923 0.07357 0.0
C469 C 0.77688 0.49592 0.0382 0.0
C470 C 0.74583 0.45347 0.11853 0.0
O471 O 0.75531 0.48055 0.10872 0.0
O472 O 0.76619 0.43246 0.1238 0.0
C473 C 0.80618 0.53819 0.15219 0.0
O474 O 0.78021 0.52378 0.16087 0.0
C475 C 0.85278 0.4524 0.07543 0.0
Zn476 Zn 0.94416 0.49148 0.34411 0.0
Zn477 Zn 0.89196 0.4929 0.3429 0.0
O478 O 0.87632 0.5094 0.30162 0.0
O479 O 0.92801 0.50966 0.29974 0.0
O480 O 0.85557 0.48714 0.37297 0.0
O481 O 0.96237 0.52348 0.37339 0.0
O482 O 0.91523 0.53544 0.35654 0.0
C483 C 0.90154 0.51535 0.28668 0.0
C484 C 0.94051 0.43734 0.32466 0.0
O485 O 0.91329 0.45062 0.32445 0.0
O486 O 0.96135 0.44803 0.34302 0.0
C487 C 0.82753 0.49433 0.36524 0.0
O488 O 0.82089 0.49986 0.33556 0.0
C489 C 0.94208 0.54429 0.3671 0.0
Zn490 Zn 0.74161 0.5904 0.59422 0.0
Zn491 Zn 0.74174 0.53883 0.59276 0.0
O492 O 0.75815 0.52012 0.55248 0.0
O493 O 0.75932 0.57191 0.5501 0.0
O494 O 0.72441 0.50708 0.62341 0.0
O495 O 0.69817 0.60841 0.59298 0.0
O496 O 0.70171 0.56156 0.572 0.0
C497 C 0.76435 0.54518 0.53717 0.0
C498 C 0.79445 0.58834 0.61752 0.0
O499 O 0.78527 0.56114 0.60774 0.0
O500 O 0.77389 0.60922 0.62253 0.0
C501 C 0.73492 0.50324 0.65112 0.0
O502 O 0.76104 0.51751 0.65956 0.0
C503 C 0.68782 0.58828 0.57366 0.0
Zn504 Zn 0.59681 0.48985 0.69734 0.0
Zn505 Zn 0.64901 0.49063 0.69807 0.0
O506 O 0.66531 0.50659 0.73934 0.0
O507 O 0.61365 0.50747 0.74172 0.0
O508 O 0.68511 0.4849 0.66762 0.0
O509 O 0.57879 0.52231 0.66851 0.0
O510 O 0.62623 0.53356 0.68508 0.0
C511 C 0.64032 0.51273 0.75458 0.0
C512 C 0.59973 0.43553 0.71636 0.0
O513 O 0.62717 0.44844 0.71638 0.0
O514 O 0.57889 0.44667 0.69832 0.0
C515 C 0.71337 0.49124 0.67537 0.0
O516 O 0.72038 0.49558 0.70516 0.0
C517 C 0.59943 0.54283 0.67484 0.0
Zn518 Zn 0.74044 0.44988 0.94949 0.0
Zn519 Zn 0.74223 0.50142 0.94984 0.0
O520 O 0.75893 0.5206 -0.01023 0.0
O521 O 0.75844 0.46885 -0.00669 0.0
O522 O 0.72617 0.5327 0.91818 0.0
O523 O 0.69642 0.43321 0.95087 0.0
O524 O 0.70134 0.48038 0.9708 0.0
C525 C 0.76423 0.49571 0.00568 0.0
C526 C 0.79344 0.44993 0.92647 0.0
O527 O 0.7851 0.47756 0.9357 0.0
O528 O 0.77225 0.42958 0.92169 0.0
C529 C 0.73633 0.53414 0.89011 0.0
O530 O 0.76139 0.51786 0.88218 0.0
C531 C 0.68658 0.45408 0.96965 0.0
Zn532 Zn 0.94462 0.55255 0.19734 0.0
Zn533 Zn 0.89241 0.5513 0.19834 0.0
O534 O 0.87653 0.53487 0.23958 0.0
O535 O 0.9282 0.53444 0.24165 0.0
O536 O 0.85601 0.55687 0.16823 0.0
O537 O 0.96277 0.52047 0.16813 0.0
O538 O 0.9155 0.50869 0.18482 0.0
C539 C 0.90165 0.52884 0.25462 0.0
C540 C 0.94129 0.60668 0.21679 0.0
O541 O 0.91395 0.59355 0.21686 0.0
O542 O 0.96214 0.59589 0.19854 0.0
C543 C 0.82784 0.55039 0.17623 0.0
O544 O 0.82112 0.54605 0.20609 0.0
C545 C 0.94233 0.49973 0.17435 0.0
Zn546 Zn 0.8012 0.59109 0.44859 0.0
Zn547 Zn 0.79975 0.53954 0.44909 0.0
O548 O 0.78285 0.52042 0.48896 0.0
O549 O 0.78298 0.57217 0.49233 0.0
O550 O 0.81631 0.50817 0.4177 0.0
O551 O 0.8451 0.60804 0.45022 0.0
O552 O 0.84032 0.56094 0.47031 0.0
C553 C 0.77727 0.54533 0.50475 0.0
C554 C 0.74838 0.59065 0.42519 0.0
O555 O 0.75683 0.5631 0.43452 0.0
O556 O 0.76947 0.61114 0.42055 0.0
C557 C 0.80606 0.5059 0.38972 0.0
O558 O 0.78061 0.52145 0.38158 0.0
C559 C 0.85492 0.58734 0.46916 0.0
Zn560 Zn 0.84491 0.59614 0.552 0.0
Zn561 Zn 0.84451 0.64838 0.55117 0.0
O562 O 0.80345 0.66477 0.53485 0.0
O563 O 0.80078 0.61312 0.53401 0.0
O564 O 0.87503 0.68444 0.55711 0.0
O565 O 0.87393 0.57792 0.5198 0.0
O566 O 0.85778 0.62543 0.5084 0.0
C567 C 0.78812 0.63984 0.52862 0.0
C568 C 0.82548 0.59934 0.60614 0.0
O569 O 0.82573 0.62676 0.59322 0.0
O570 O 0.84351 0.57838 0.5952 0.0
C571 C 0.86737 0.71273 0.55088 0.0
O572 O 0.8376 0.71979 0.54648 0.0
C573 C 0.86794 0.59855 0.49923 0.0
Zn574 Zn 0.34669 0.94259 0.48922 0.0
Zn575 Zn 0.34493 0.89046 0.49161 0.0
O576 O 0.30338 0.87541 0.50808 0.0
O577 O 0.30202 0.92711 0.50737 0.0
O578 O 0.37473 0.85379 0.48666 0.0
O579 O 0.3759 0.96114 0.52108 0.0
O580 O 0.35847 0.91437 0.53381 0.0
C581 C 0.28864 0.90086 0.51346 0.0
C582 C 0.32766 0.93812 0.43501 0.0
O583 O 0.32704 0.91116 0.44882 0.0
O584 O 0.34614 0.95899 0.44545 0.0
C585 C 0.36677 0.82595 0.49441 0.0
O586 O 0.33704 0.81961 0.5001 0.0
C587 C 0.36923 0.94129 0.54222 0.0
Zn588 Zn 0.45052 0.09666 0.79852 0.0
Zn589 Zn 0.50211 0.09549 0.79888 0.0
O590 O 0.52115 0.05533 0.78258 0.0
O591 O 0.46939 0.05265 0.78094 0.0
O592 O 0.53365 0.12618 0.81657 0.0
O593 O 0.43204 0.09525 0.84178 0.0
O594 O 0.47902 0.07456 0.83866 0.0
C595 C 0.49623 0.03987 0.77613 0.0
C596 C 0.45305 0.12006 0.74577 0.0
O597 O 0.4802 0.11044 0.75517 0.0
O598 O 0.43192 0.12491 0.76613 0.0
C599 C 0.53735 0.15406 0.80646 0.0
O600 O 0.52305 0.16279 0.78048 0.0
C601 C 0.45215 0.07605 0.8523 0.0
Zn602 Zn 0.19452 0.09784 -0.01247 0.0
Zn603 Zn 0.19586 0.15001 -0.01018 0.0
O604 O 0.23719 0.16536 0.00653 0.0
O605 O 0.23896 0.11368 0.00594 0.0
O606 O 0.16593 0.18658 -0.01518 0.0
O607 O 0.16523 0.07917 0.01925 0.0
O608 O 0.1822 0.12611 0.03196 0.0
C609 C 0.25209 0.14004 0.01205 0.0
C610 C 0.21392 0.10226 0.93346 0.0
O611 O 0.2142 0.12929 0.94717 0.0
O612 O 0.19553 0.08129 0.94382 0.0
C613 C 0.17397 0.21456 -0.00799 0.0
O614 O 0.20381 0.22109 -0.00312 0.0
C615 C 0.17158 0.09915 0.04038 0.0
Zn616 Zn 0.59055 0.44662 0.80015 0.0
Zn617 Zn 0.53897 0.44811 0.79985 0.0
O618 O 0.52044 0.48854 0.78369 0.0
O619 O 0.57224 0.4909 0.78274 0.0
O620 O 0.50695 0.41752 0.81682 0.0
O621 O 0.60848 0.44756 0.84365 0.0
O622 O 0.56164 0.46853 0.84013 0.0
C623 C 0.54554 0.50389 0.77771 0.0
C624 C 0.58858 0.4237 0.74716 0.0
O625 O 0.56136 0.4334 0.75629 0.0
O626 O 0.60939 0.4185 0.76774 0.0
C627 C 0.50333 0.38968 0.80655 0.0
O628 O 0.5181 0.38096 0.78082 0.0
C629 C 0.58832 0.46677 0.8541 0.0
Zn630 Zn 0.69585 0.44564 0.05257 0.0
Zn631 Zn 0.69589 0.39341 0.05201 0.0
O632 O 0.73695 0.3766 0.03608 0.0
O633 O 0.73999 0.42823 0.03499 0.0
O634 O 0.66502 0.35766 0.0579 0.0
O635 O 0.6672 0.46388 0.02007 0.0
O636 O 0.68313 0.4162 0.00902 0.0
C637 C 0.7525 0.40139 0.02983 0.0
C638 C 0.71484 0.44264 0.10688 0.0
O639 O 0.71451 0.41515 0.09409 0.0
O640 O 0.69707 0.46367 0.09568 0.0
C641 C 0.67249 0.32925 0.05189 0.0
O642 O 0.70223 0.32191 0.0478 0.0
C643 C 0.67323 0.4431 -0.00035 0.0
Zn644 Zn 0.45113 0.95099 0.73885 0.0
Zn645 Zn 0.50267 0.9518 0.74079 0.0
O646 O 0.52141 -0.00819 0.75786 0.0
O647 O 0.46964 -0.00513 0.75724 0.0
O648 O 0.5343 0.92051 0.72459 0.0
O649 O 0.43465 0.95248 0.6948 0.0
O650 O 0.48163 0.97286 0.70001 0.0
C651 C 0.49637 0.00745 0.7632 0.0
C652 C 0.45114 0.92759 0.79167 0.0
O653 O 0.47872 0.93712 0.78348 0.0
O654 O 0.4309 0.92282 0.7704 0.0
C655 C 0.53695 0.89274 0.73532 0.0
O656 O 0.52161 0.88483 0.76099 0.0
C657 C 0.45539 0.97155 0.68518 0.0
Zn658 Zn 0.09132 0.09106 0.23993 0.0
Zn659 Zn 0.03979 0.09057 0.24211 0.0
O660 O 0.02086 0.05054 0.2589 0.0
O661 O 0.07261 0.04716 0.25802 0.0
O662 O 0.00831 0.12219 0.22636 0.0
O663 O 0.10762 0.0898 0.1958 0.0
O664 O 0.06051 0.06972 0.20104 0.0
C665 C 0.04582 0.0347 0.26399 0.0
C666 C 0.09164 0.11405 0.29295 0.0
O667 O 0.06397 0.10474 0.28481 0.0
O668 O 0.1118 0.11892 0.27163 0.0
C669 C 0.00679 0.15018 0.23672 0.0
O670 O 0.02312 0.15803 0.26179 0.0
C671 C 0.08669 0.07098 0.1861 0.0
loop_
_geom_bond_atom_site_label_1
_geom_bond_atom_site_label_2
_geom_bond_distance
_geom_bond_site_symmetry_2
_ccdc_geom_bond_type
Zn0 O3 2.031 . S
Zn0 O5 2.049 . S
Zn0 O10 2.067 . S
Zn1 O2 1.962 . S
Zn1 O4 1.986 . S
Zn1 O6 1.996 . S
Zn1 O9 1.943 . S
O2 Zn1 1.962 . S
O2 C7 1.254 . S
O3 Zn0 2.031 . S
O3 C7 1.269 . S
O4 Zn1 1.986 . S
O4 C11 1.262 . S
O5 Zn0 2.049 . S
O5 C13 1.260 . S
O6 Zn1 1.996 . S
O6 C13 1.257 . S
C7 O2 1.254 . S
C7 O3 1.269 . S
C8 O9 1.249 . S
C8 O10 1.270 . S
O9 Zn1 1.943 . S
O9 C8 1.249 . S
O10 Zn0 2.067 . S
O10 C8 1.270 . S
C11 O4 1.262 . S
C11 O12 1.232 . S
O12 C11 1.232 . S
C13 O5 1.260 . S
C13 O6 1.257 . S
Zn14 O17 2.031 . S
Zn14 O19 2.049 . S
Zn14 O24 2.067 . S
Zn15 O16 1.962 1_655 S
Zn15 O18 1.986 . S
Zn15 O20 1.996 . S
Zn15 O23 1.943 . S
O16 Zn15 1.962 1_455 S
O16 C21 1.254 . S
O17 Zn14 2.031 . S
O17 C21 1.269 . S
O18 Zn15 1.986 . S
O18 C25 1.262 . S
O19 Zn14 2.049 . S
O19 C27 1.260 1_455 S
O20 Zn15 1.996 . S
O20 C27 1.257 . S
C21 O16 1.254 . S
C21 O17 1.269 . S
C22 O23 1.249 . S
C22 O24 1.270 1_655 S
O23 Zn15 1.943 . S
O23 C22 1.249 . S
O24 Zn14 2.067 . S
O24 C22 1.270 1_455 S
C25 O18 1.262 . S
C25 O26 1.232 . S
O26 C25 1.232 . S
C27 O19 1.260 1_655 S
C27 O20 1.257 . S
Zn28 O31 2.031 . S
Zn28 O33 2.049 . S
Zn28 O38 2.067 . S
Zn29 O30 1.962 . S
Zn29 O32 1.986 . S
Zn29 O34 1.996 . S
Zn29 O37 1.943 . S
O30 Zn29 1.962 . S
O30 C35 1.254 . S
O31 Zn28 2.031 . S
O31 C35 1.269 . S
O32 Zn29 1.986 . S
O32 C39 1.262 . S
O33 Zn28 2.049 . S
O33 C41 1.260 . S
O34 Zn29 1.996 . S
O34 C41 1.257 . S
C35 O30 1.254 . S
C35 O31 1.269 . S
C36 O37 1.249 . S
C36 O38 1.270 . S
O37 Zn29 1.943 . S
O37 C36 1.249 . S
O38 Zn28 2.067 . S
O38 C36 1.270 . S
C39 O32 1.262 . S
C39 O40 1.232 . S
O40 C39 1.232 . S
C41 O33 1.260 . S
C41 O34 1.257 . S
Zn42 O45 2.031 . S
Zn42 O47 2.049 . S
Zn42 O52 2.067 . S
Zn43 O44 1.962 1_556 S
Zn43 O46 1.986 . S
Zn43 O48 1.996 . S
Zn43 O51 1.943 . S
O44 Zn43 1.962 1_554 S
O44 C49 1.254 1_554 S
O45 Zn42 2.031 . S
O45 C49 1.269 . S
O46 Zn43 1.986 . S
O46 C53 1.262 1_556 S
O47 Zn42 2.049 . S
O47 C55 1.260 . S
O48 Zn43 1.996 . S
O48 C55 1.257 . S
C49 O44 1.254 1_556 S
C49 O45 1.269 . S
C50 O51 1.249 . S
C50 O52 1.270 . S
O51 Zn43 1.943 . S
O51 C50 1.249 . S
O52 Zn42 2.067 . S
O52 C50 1.270 . S
C53 O46 1.262 1_554 S
C53 O54 1.232 . S
O54 C53 1.232 . S
C55 O47 1.260 . S
C55 O48 1.257 . S
Zn56 O59 2.031 . S
Zn56 O61 2.049 . S
Zn56 O66 2.067 . S
Zn57 O58 1.962 . S
Zn57 O60 1.986 . S
Zn57 O62 1.996 . S
Zn57 O65 1.943 . S
O58 Zn57 1.962 . S
O58 C63 1.254 . S
O59 Zn56 2.031 . S
O59 C63 1.269 . S
O60 Zn57 1.986 . S
O60 C67 1.262 . S
O61 Zn56 2.049 . S
O61 C69 1.260 . S
O62 Zn57 1.996 . S
O62 C69 1.257 . S
C63 O58 1.254 . S
C63 O59 1.269 . S
C64 O65 1.249 . S
C64 O66 1.270 . S
O65 Zn57 1.943 . S
O65 C64 1.249 . S
O66 Zn56 2.067 . S
O66 C64 1.270 . S
C67 O60 1.262 . S
C67 O68 1.232 . S
O68 C67 1.232 . S
C69 O61 1.260 . S
C69 O62 1.257 . S
Zn70 O73 2.031 . S
Zn70 O75 2.049 . S
Zn70 O80 2.067 . S
Zn71 O72 1.962 . S
Zn71 O74 1.986 . S
Zn71 O76 1.996 . S
Zn71 O79 1.943 . S
O72 Zn71 1.962 . S
O72 C77 1.254 . S
O73 Zn70 2.031 . S
O73 C77 1.269 . S
O74 Zn71 1.986 . S
O74 C81 1.262 . S
O75 Zn70 2.049 . S
O75 C83 1.260 . S
O76 Zn71 1.996 . S
O76 C83 1.257 . S
C77 O72 1.254 . S
C77 O73 1.269 . S
C78 O79 1.249 . S
C78 O80 1.270 . S
O79 Zn71 1.943 . S
O79 C78 1.249 . S
O80 Zn70 2.067 . S
O80 C78 1.270 . S
C81 O74 1.262 . S
C81 O82 1.232 . S
O82 C81 1.232 . S
C83 O75 1.260 . S
C83 O76 1.257 . S
Zn84 O87 2.031 . S
Zn84 O89 2.049 . S
Zn84 O94 2.067 . S
Zn85 O86 1.962 . S
Zn85 O88 1.986 . S
Zn85 O90 1.996 . S
Zn85 O93 1.943 . S
O86 Zn85 1.962 . S
O86 C91 1.254 . S
O87 Zn84 2.031 . S
O87 C91 1.269 . S
O88 Zn85 1.986 . S
O88 C95 1.262 . S
O89 Zn84 2.049 . S
O89 C97 1.260 . S
O90 Zn85 1.996 . S
O90 C97 1.257 . S
C91 O86 1.254 . S
C91 O87 1.269 . S
C92 O93 1.249 . S
C92 O94 1.270 . S
O93 Zn85 1.943 . S
O93 C92 1.249 . S
O94 Zn84 2.067 . S
O94 C92 1.270 . S
C95 O88 1.262 . S
C95 O96 1.232 . S
O96 C95 1.232 . S
C97 O89 1.260 . S
C97 O90 1.257 . S
Zn98 O101 2.031 . S
Zn98 O103 2.049 . S
Zn98 O108 2.067 . S
Zn99 O100 1.962 1_655 S
Zn99 O102 1.986 . S
Zn99 O104 1.996 . S
Zn99 O107 1.943 . S
O100 Zn99 1.962 1_455 S
O100 C105 1.254 . S
O101 Zn98 2.031 . S
O101 C105 1.269 . S
O102 Zn99 1.986 . S
O102 C109 1.262 . S
O103 Zn98 2.049 . S
O103 C111 1.260 1_455 S
O104 Zn99 1.996 . S
O104 C111 1.257 . S
C105 O100 1.254 . S
C105 O101 1.269 . S
C106 O107 1.249 . S
C106 O108 1.270 1_655 S
O107 Zn99 1.943 . S
O107 C106 1.249 . S
O108 Zn98 2.067 . S
O108 C106 1.270 1_455 S
C109 O102 1.262 . S
C109 O110 1.232 . S
O110 C109 1.232 . S
C111 O103 1.260 1_655 S
C111 O104 1.257 . S
Zn112 O115 2.031 . S
Zn112 O117 2.049 . S
Zn112 O122 2.067 . S
Zn113 O114 1.962 . S
Zn113 O116 1.986 . S
Zn113 O118 1.996 . S
Zn113 O121 1.943 . S
O114 Zn113 1.962 . S
O114 C119 1.254 . S
O115 Zn112 2.031 . S
O115 C119 1.269 . S
O116 Zn113 1.986 . S
O116 C123 1.262 . S
O117 Zn112 2.049 . S
O117 C125 1.260 . S
O118 Zn113 1.996 . S
O118 C125 1.257 . S
C119 O114 1.254 . S
C119 O115 1.269 . S
C120 O121 1.249 . S
C120 O122 1.270 . S
O121 Zn113 1.943 . S
O121 C120 1.249 . S
O122 Zn112 2.067 . S
O122 C120 1.270 . S
C123 O116 1.262 . S
C123 O124 1.232 . S
O124 C123 1.232 . S
C125 O117 1.260 . S
C125 O118 1.257 . S
Zn126 O129 2.031 . S
Zn126 O131 2.049 . S
Zn126 O136 2.067 . S
Zn127 O128 1.962 1_565 S
Zn127 O130 1.986 . S
Zn127 O132 1.996 . S
Zn127 O135 1.943 . S
O128 Zn127 1.962 1_545 S
O128 C133 1.254 1_545 S
O129 Zn126 2.031 . S
O129 C133 1.269 . S
O130 Zn127 1.986 . S
O130 C137 1.262 1_565 S
O131 Zn126 2.049 . S
O131 C139 1.260 . S
O132 Zn127 1.996 . S
O132 C139 1.257 . S
C133 O128 1.254 1_565 S
C133 O129 1.269 . S
C134 O135 1.249 . S
C134 O136 1.270 . S
O135 Zn127 1.943 . S
O135 C134 1.249 . S
O136 Zn126 2.067 . S
O136 C134 1.270 . S
C137 O130 1.262 1_545 S
C137 O138 1.232 . S
O138 C137 1.232 . S
C139 O131 1.260 . S
C139 O132 1.257 . S
Zn140 O143 2.031 . S
Zn140 O145 2.049 . S
Zn140 O150 2.067 1_545 S
Zn141 O142 1.962 . S
Zn141 O144 1.986 . S
Zn141 O146 1.996 . S
Zn141 O149 1.943 . S
O142 Zn141 1.962 . S
O142 C147 1.254 . S
O143 Zn140 2.031 . S
O143 C147 1.269 . S
O144 Zn141 1.986 . S
O144 C151 1.262 . S
O145 Zn140 2.049 . S
O145 C153 1.260 . S
O146 Zn141 1.996 . S
O146 C153 1.257 . S
C147 O142 1.254 . S
C147 O143 1.269 . S
C148 O149 1.249 1_565 S
C148 O150 1.270 . S
O149 Zn141 1.943 . S
O149 C148 1.249 1_545 S
O150 Zn140 2.067 1_565 S
O150 C148 1.270 . S
C151 O144 1.262 . S
C151 O152 1.232 . S
O152 C151 1.232 . S
C153 O145 1.260 . S
C153 O146 1.257 . S
Zn154 O157 2.031 . S
Zn154 O159 2.049 . S
Zn154 O164 2.067 . S
Zn155 O156 1.962 . S
Zn155 O158 1.986 . S
Zn155 O160 1.996 . S
Zn155 O163 1.943 . S
O156 Zn155 1.962 . S
O156 C161 1.254 . S
O157 Zn154 2.031 . S
O157 C161 1.269 . S
O158 Zn155 1.986 . S
O158 C165 1.262 . S
O159 Zn154 2.049 . S
O159 C167 1.260 . S
O160 Zn155 1.996 . S
O160 C167 1.257 . S
C161 O156 1.254 . S
C161 O157 1.269 . S
C162 O163 1.249 . S
C162 O164 1.270 . S
O163 Zn155 1.943 . S
O163 C162 1.249 . S
O164 Zn154 2.067 . S
O164 C162 1.270 . S
C165 O158 1.262 . S
C165 O166 1.232 . S
O166 C165 1.232 . S
C167 O159 1.260 . S
C167 O160 1.257 . S
Zn168 O171 2.031 . S
Zn168 O173 2.049 . S
Zn168 O178 2.067 1_545 S
Zn169 O170 1.962 . S
Zn169 O172 1.986 . S
Zn169 O174 1.996 . S
Zn169 O177 1.943 . S
O170 Zn169 1.962 . S
O170 C175 1.254 . S
O171 Zn168 2.031 . S
O171 C175 1.269 . S
O172 Zn169 1.986 . S
O172 C179 1.262 . S
O173 Zn168 2.049 . S
O173 C181 1.260 . S
O174 Zn169 1.996 . S
O174 C181 1.257 . S
C175 O170 1.254 . S
C175 O171 1.269 . S
C176 O177 1.249 1_565 S
C176 O178 1.270 . S
O177 Zn169 1.943 . S
O177 C176 1.249 1_545 S
O178 Zn168 2.067 1_565 S
O178 C176 1.270 . S
C179 O172 1.262 . S
C179 O180 1.232 . S
O180 C179 1.232 . S
C181 O173 1.260 . S
C181 O174 1.257 . S
Zn182 O185 2.031 . S
Zn182 O187 2.049 . S
Zn182 O192 2.067 . S
Zn183 O184 1.962 1_565 S
Zn183 O186 1.986 . S
Zn183 O188 1.996 . S
Zn183 O191 1.943 . S
O184 Zn183 1.962 1_545 S
O184 C189 1.254 1_545 S
O185 Zn182 2.031 . S
O185 C189 1.269 . S
O186 Zn183 1.986 . S
O186 C193 1.262 1_565 S
O187 Zn182 2.049 . S
O187 C195 1.260 . S
O188 Zn183 1.996 . S
O188 C195 1.257 . S
C189 O184 1.254 1_565 S
C189 O185 1.269 . S
C190 O191 1.249 . S
C190 O192 1.270 . S
O191 Zn183 1.943 . S
O191 C190 1.249 . S
O192 Zn182 2.067 . S
O192 C190 1.270 . S
C193 O186 1.262 1_545 S
C193 O194 1.232 . S
O194 C193 1.232 . S
C195 O187 1.260 . S
C195 O188 1.257 . S
Zn196 O199 2.031 . S
Zn196 O201 2.049 . S
Zn196 O206 2.067 . S
Zn197 O198 1.962 . S
Zn197 O200 1.986 . S
Zn197 O202 1.996 . S
Zn197 O205 1.943 . S
O198 Zn197 1.962 . S
O198 C203 1.254 . S
O199 Zn196 2.031 . S
O199 C203 1.269 . S
O200 Zn197 1.986 . S
O200 C207 1.262 . S
O201 Zn196 2.049 . S
O201 C209 1.260 . S
O202 Zn197 1.996 . S
O202 C209 1.257 . S
C203 O198 1.254 . S
C203 O199 1.269 . S
C204 O205 1.249 . S
C204 O206 1.270 . S
O205 Zn197 1.943 . S
O205 C204 1.249 . S
O206 Zn196 2.067 . S
O206 C204 1.270 . S
C207 O200 1.262 . S
C207 O208 1.232 . S
O208 C207 1.232 . S
C209 O201 1.260 . S
C209 O202 1.257 . S
Zn210 O213 2.031 . S
Zn210 O215 2.049 . S
Zn210 O220 2.067 . S
Zn211 O212 1.962 1_556 S
Zn211 O214 1.986 . S
Zn211 O216 1.996 . S
Zn211 O219 1.943 . S
O212 Zn211 1.962 1_554 S
O212 C217 1.254 . S
O213 Zn210 2.031 . S
O213 C217 1.269 . S
O214 Zn211 1.986 . S
O214 C221 1.262 . S
O215 Zn210 2.049 . S
O215 C223 1.260 1_554 S
O216 Zn211 1.996 . S
O216 C223 1.257 . S
C217 O212 1.254 . S
C217 O213 1.269 . S
C218 O219 1.249 . S
C218 O220 1.270 1_556 S
O219 Zn211 1.943 . S
O219 C218 1.249 . S
O220 Zn210 2.067 . S
O220 C218 1.270 1_554 S
C221 O214 1.262 . S
C221 O222 1.232 . S
O222 C221 1.232 . S
C223 O215 1.260 1_556 S
C223 O216 1.257 . S
Zn224 O227 2.031 . S
Zn224 O229 2.049 . S
Zn224 O234 2.067 . S
Zn225 O226 1.962 . S
Zn225 O228 1.986 . S
Zn225 O230 1.996 . S
Zn225 O233 1.943 . S
O226 Zn225 1.962 . S
O226 C231 1.254 . S
O227 Zn224 2.031 . S
O227 C231 1.269 . S
O228 Zn225 1.986 . S
O228 C235 1.262 . S
O229 Zn224 2.049 . S
O229 C237 1.260 . S
O230 Zn225 1.996 . S
O230 C237 1.257 . S
C231 O226 1.254 . S
C231 O227 1.269 . S
C232 O233 1.249 . S
C232 O234 1.270 . S
O233 Zn225 1.943 . S
O233 C232 1.249 . S
O234 Zn224 2.067 . S
O234 C232 1.270 . S
C235 O228 1.262 . S
C235 O236 1.232 . S
O236 C235 1.232 . S
C237 O229 1.260 . S
C237 O230 1.257 . S
Zn238 O241 2.031 . S
Zn238 O243 2.049 . S
Zn238 O248 2.067 1_554 S
Zn239 O240 1.962 . S
Zn239 O242 1.986 . S
Zn239 O244 1.996 . S
Zn239 O247 1.943 . S
O240 Zn239 1.962 . S
O240 C245 1.254 . S
O241 Zn238 2.031 . S
O241 C245 1.269 . S
O242 Zn239 1.986 . S
O242 C249 1.262 . S
O243 Zn238 2.049 . S
O243 C251 1.260 . S
O244 Zn239 1.996 . S
O244 C251 1.257 . S
C245 O240 1.254 . S
C245 O241 1.269 . S
C246 O247 1.249 1_556 S
C246 O248 1.270 . S
O247 Zn239 1.943 . S
O247 C246 1.249 1_554 S
O248 Zn238 2.067 1_556 S
O248 C246 1.270 . S
C249 O242 1.262 . S
C249 O250 1.232 . S
O250 C249 1.232 . S
C251 O243 1.260 . S
C251 O244 1.257 . S
Zn252 O255 2.031 . S
Zn252 O257 2.049 . S
Zn252 O262 2.067 . S
Zn253 O254 1.962 1_655 S
Zn253 O256 1.986 . S
Zn253 O258 1.996 . S
Zn253 O261 1.943 . S
O254 Zn253 1.962 1_455 S
O254 C259 1.254 1_455 S
O255 Zn252 2.031 . S
O255 C259 1.269 . S
O256 Zn253 1.986 . S
O256 C263 1.262 1_655 S
O257 Zn252 2.049 . S
O257 C265 1.260 . S
O258 Zn253 1.996 . S
O258 C265 1.257 . S
C259 O254 1.254 1_655 S
C259 O255 1.269 . S
C260 O261 1.249 . S
C260 O262 1.270 . S
O261 Zn253 1.943 . S
O261 C260 1.249 . S
O262 Zn252 2.067 . S
O262 C260 1.270 . S
C263 O256 1.262 1_455 S
C263 O264 1.232 . S
O264 C263 1.232 . S
C265 O257 1.260 . S
C265 O258 1.257 . S
Zn266 O269 2.031 . S
Zn266 O271 2.049 . S
Zn266 O276 2.067 . S
Zn267 O268 1.962 . S
Zn267 O270 1.986 . S
Zn267 O272 1.996 . S
Zn267 O275 1.943 . S
O268 Zn267 1.962 . S
O268 C273 1.254 . S
O269 Zn266 2.031 . S
O269 C273 1.269 . S
O270 Zn267 1.986 . S
O270 C277 1.262 . S
O271 Zn266 2.049 . S
O271 C279 1.260 . S
O272 Zn267 1.996 . S
O272 C279 1.257 . S
C273 O268 1.254 . S
C273 O269 1.269 . S
C274 O275 1.249 . S
C274 O276 1.270 . S
O275 Zn267 1.943 . S
O275 C274 1.249 . S
O276 Zn266 2.067 . S
O276 C274 1.270 . S
C277 O270 1.262 . S
C277 O278 1.232 . S
O278 C277 1.232 . S
C279 O271 1.260 . S
C279 O272 1.257 . S
Zn280 O283 2.031 . S
Zn280 O285 2.049 . S
Zn280 O290 2.067 . S
Zn281 O282 1.962 1_565 S
Zn281 O284 1.986 . S
Zn281 O286 1.996 . S
Zn281 O289 1.943 . S
O282 Zn281 1.962 1_545 S
O282 C287 1.254 . S
O283 Zn280 2.031 . S
O283 C287 1.269 . S
O284 Zn281 1.986 . S
O284 C291 1.262 . S
O285 Zn280 2.049 . S
O285 C293 1.260 1_545 S
O286 Zn281 1.996 . S
O286 C293 1.257 . S
C287 O282 1.254 . S
C287 O283 1.269 . S
C288 O289 1.249 . S
C288 O290 1.270 1_565 S
O289 Zn281 1.943 . S
O289 C288 1.249 . S
O290 Zn280 2.067 . S
O290 C288 1.270 1_545 S
C291 O284 1.262 . S
C291 O292 1.232 . S
O292 C291 1.232 . S
C293 O285 1.260 1_565 S
C293 O286 1.257 . S
Zn294 O297 2.031 . S
Zn294 O299 2.049 . S
Zn294 O304 2.067 . S
Zn295 O296 1.962 . S
Zn295 O298 1.986 . S
Zn295 O300 1.996 . S
Zn295 O303 1.943 . S
O296 Zn295 1.962 . S
O296 C301 1.254 . S
O297 Zn294 2.031 . S
O297 C301 1.269 . S
O298 Zn295 1.986 . S
O298 C305 1.262 . S
O299 Zn294 2.049 . S
O299 C307 1.260 . S
O300 Zn295 1.996 . S
O300 C307 1.257 . S
C301 O296 1.254 . S
C301 O297 1.269 . S
C302 O303 1.249 . S
C302 O304 1.270 . S
O303 Zn295 1.943 . S
O303 C302 1.249 . S
O304 Zn294 2.067 . S
O304 C302 1.270 . S
C305 O298 1.262 . S
C305 O306 1.232 . S
O306 C305 1.232 . S
C307 O299 1.260 . S
C307 O300 1.257 . S
Zn308 O311 2.031 . S
Zn308 O313 2.049 . S
Zn308 O318 2.067 . S
Zn309 O310 1.962 1_655 S
Zn309 O312 1.986 . S
Zn309 O314 1.996 . S
Zn309 O317 1.943 . S
O310 Zn309 1.962 1_455 S
O310 C315 1.254 1_455 S
O311 Zn308 2.031 . S
O311 C315 1.269 . S
O312 Zn309 1.986 . S
O312 C319 1.262 1_655 S
O313 Zn308 2.049 . S
O313 C321 1.260 . S
O314 Zn309 1.996 . S
O314 C321 1.257 . S
C315 O310 1.254 1_655 S
C315 O311 1.269 . S
C316 O317 1.249 . S
C316 O318 1.270 . S
O317 Zn309 1.943 . S
O317 C316 1.249 . S
O318 Zn308 2.067 . S
O318 C316 1.270 . S
C319 O312 1.262 1_455 S
C319 O320 1.232 . S
O320 C319 1.232 . S
C321 O313 1.260 . S
C321 O314 1.257 . S
Zn322 O325 2.031 . S
Zn322 O327 2.049 . S
Zn322 O332 2.067 . S
Zn323 O324 1.962 . S
Zn323 O326 1.986 . S
Zn323 O328 1.996 . S
Zn323 O331 1.943 . S
O324 Zn323 1.962 . S
O324 C329 1.254 . S
O325 Zn322 2.031 . S
O325 C329 1.269 . S
O326 Zn323 1.986 . S
O326 C333 1.262 . S
O327 Zn322 2.049 . S
O327 C335 1.260 . S
O328 Zn323 1.996 . S
O328 C335 1.257 . S
C329 O324 1.254 . S
C329 O325 1.269 . S
C330 O331 1.249 . S
C330 O332 1.270 . S
O331 Zn323 1.943 . S
O331 C330 1.249 . S
O332 Zn322 2.067 . S
O332 C330 1.270 . S
C333 O326 1.262 . S
C333 O334 1.232 . S
O334 C333 1.232 . S
C335 O327 1.260 . S
C335 O328 1.257 . S
Zn336 O339 2.031 . S
Zn336 O341 2.049 . S
Zn336 O346 2.067 . S
Zn337 O338 1.962 . S
Zn337 O340 1.986 . S
Zn337 O342 1.996 . S
Zn337 O345 1.943 . S
O338 Zn337 1.962 . S
O338 C343 1.254 . S
O339 Zn336 2.031 . S
O339 C343 1.269 . S
O340 Zn337 1.986 . S
O340 C347 1.262 . S
O341 Zn336 2.049 . S
O341 C349 1.260 . S
O342 Zn337 1.996 . S
O342 C349 1.257 . S
C343 O338 1.254 . S
C343 O339 1.269 . S
C344 O345 1.249 . S
C344 O346 1.270 . S
O345 Zn337 1.943 . S
O345 C344 1.249 . S
O346 Zn336 2.067 . S
O346 C344 1.270 . S
C347 O340 1.262 . S
C347 O348 1.232 . S
O348 C347 1.232 . S
C349 O341 1.260 . S
C349 O342 1.257 . S
Zn350 O353 2.031 . S
Zn350 O355 2.049 . S
Zn350 O360 2.067 . S
Zn351 O352 1.962 1_556 S
Zn351 O354 1.986 . S
Zn351 O356 1.996 . S
Zn351 O359 1.943 . S
O352 Zn351 1.962 1_554 S
O352 C357 1.254 1_554 S
O353 Zn350 2.031 . S
O353 C357 1.269 . S
O354 Zn351 1.986 . S
O354 C361 1.262 1_556 S
O355 Zn350 2.049 . S
O355 C363 1.260 . S
O356 Zn351 1.996 . S
O356 C363 1.257 . S
C357 O352 1.254 1_556 S
C357 O353 1.269 . S
C358 O359 1.249 . S
C358 O360 1.270 . S
O359 Zn351 1.943 . S
O359 C358 1.249 . S
O360 Zn350 2.067 . S
O360 C358 1.270 . S
C361 O354 1.262 1_554 S
C361 O362 1.232 . S
O362 C361 1.232 . S
C363 O355 1.260 . S
C363 O356 1.257 . S
Zn364 O367 2.031 . S
Zn364 O369 2.049 . S
Zn364 O374 2.067 1_455 S
Zn365 O366 1.962 . S
Zn365 O368 1.986 . S
Zn365 O370 1.996 . S
Zn365 O373 1.943 . S
O366 Zn365 1.962 . S
O366 C371 1.254 . S
O367 Zn364 2.031 . S
O367 C371 1.269 . S
O368 Zn365 1.986 . S
O368 C375 1.262 . S
O369 Zn364 2.049 . S
O369 C377 1.260 . S
O370 Zn365 1.996 . S
O370 C377 1.257 . S
C371 O366 1.254 . S
C371 O367 1.269 . S
C372 O373 1.249 1_655 S
C372 O374 1.270 . S
O373 Zn365 1.943 . S
O373 C372 1.249 1_455 S
O374 Zn364 2.067 1_655 S
O374 C372 1.270 . S
C375 O368 1.262 . S
C375 O376 1.232 . S
O376 C375 1.232 . S
C377 O369 1.260 . S
C377 O370 1.257 . S
Zn378 O381 2.031 . S
Zn378 O383 2.049 . S
Zn378 O388 2.067 . S
Zn379 O380 1.962 . S
Zn379 O382 1.986 . S
Zn379 O384 1.996 . S
Zn379 O387 1.943 . S
O380 Zn379 1.962 . S
O380 C385 1.254 . S
O381 Zn378 2.031 . S
O381 C385 1.269 . S
O382 Zn379 1.986 . S
O382 C389 1.262 . S
O383 Zn378 2.049 . S
O383 C391 1.260 . S
O384 Zn379 1.996 . S
O384 C391 1.257 . S
C385 O380 1.254 . S
C385 O381 1.269 . S
C386 O387 1.249 . S
C386 O388 1.270 . S
O387 Zn379 1.943 . S
O387 C386 1.249 . S
O388 Zn378 2.067 . S
O388 C386 1.270 . S
C389 O382 1.262 . S
C389 O390 1.232 . S
O390 C389 1.232 . S
C391 O383 1.260 . S
C391 O384 1.257 . S
Zn392 O395 2.031 . S
Zn392 O397 2.049 . S
Zn392 O402 2.067 . S
Zn393 O394 1.962 . S
Zn393 O396 1.986 . S
Zn393 O398 1.996 . S
Zn393 O401 1.943 . S
O394 Zn393 1.962 . S
O394 C399 1.254 . S
O395 Zn392 2.031 . S
O395 C399 1.269 . S
O396 Zn393 1.986 . S
O396 C403 1.262 . S
O397 Zn392 2.049 . S
O397 C405 1.260 . S
O398 Zn393 1.996 . S
O398 C405 1.257 . S
C399 O394 1.254 . S
C399 O395 1.269 . S
C400 O401 1.249 . S
C400 O402 1.270 . S
O401 Zn393 1.943 . S
O401 C400 1.249 . S
O402 Zn392 2.067 . S
O402 C400 1.270 . S
C403 O396 1.262 . S
C403 O404 1.232 . S
O404 C403 1.232 . S
C405 O397 1.260 . S
C405 O398 1.257 . S
Zn406 O409 2.031 . S
Zn406 O411 2.049 . S
Zn406 O416 2.067 . S
Zn407 O408 1.962 . S
Zn407 O410 1.986 . S
Zn407 O412 1.996 . S
Zn407 O415 1.943 . S
O408 Zn407 1.962 . S
O408 C413 1.254 . S
O409 Zn406 2.031 . S
O409 C413 1.269 . S
O410 Zn407 1.986 . S
O410 C417 1.262 . S
O411 Zn406 2.049 . S
O411 C419 1.260 . S
O412 Zn407 1.996 . S
O412 C419 1.257 . S
C413 O408 1.254 . S
C413 O409 1.269 . S
C414 O415 1.249 . S
C414 O416 1.270 . S
O415 Zn407 1.943 . S
O415 C414 1.249 . S
O416 Zn406 2.067 . S
O416 C414 1.270 . S
C417 O410 1.262 . S
C417 O418 1.232 . S
O418 C417 1.232 . S
C419 O411 1.260 . S
C419 O412 1.257 . S
Zn420 O423 2.031 . S
Zn420 O425 2.049 . S
Zn420 O430 2.067 1_455 S
Zn421 O422 1.962 . S
Zn421 O424 1.986 . S
Zn421 O426 1.996 . S
Zn421 O429 1.943 . S
O422 Zn421 1.962 . S
O422 C427 1.254 . S
O423 Zn420 2.031 . S
O423 C427 1.269 . S
O424 Zn421 1.986 . S
O424 C431 1.262 . S
O425 Zn420 2.049 . S
O425 C433 1.260 . S
O426 Zn421 1.996 . S
O426 C433 1.257 . S
C427 O422 1.254 . S
C427 O423 1.269 . S
C428 O429 1.249 1_655 S
C428 O430 1.270 . S
O429 Zn421 1.943 . S
O429 C428 1.249 1_455 S
O430 Zn420 2.067 1_655 S
O430 C428 1.270 . S
C431 O424 1.262 . S
C431 O432 1.232 . S
O432 C431 1.232 . S
C433 O425 1.260 . S
C433 O426 1.257 . S
Zn434 O437 2.031 . S
Zn434 O439 2.049 . S
Zn434 O444 2.067 . S
Zn435 O436 1.962 . S
Zn435 O438 1.986 . S
Zn435 O440 1.996 . S
Zn435 O443 1.943 . S
O436 Zn435 1.962 . S
O436 C441 1.254 . S
O437 Zn434 2.031 . S
O437 C441 1.269 . S
O438 Zn435 1.986 . S
O438 C445 1.262 . S
O439 Zn434 2.049 . S
O439 C447 1.260 . S
O440 Zn435 1.996 . S
O440 C447 1.257 . S
C441 O436 1.254 . S
C441 O437 1.269 . S
C442 O443 1.249 . S
C442 O444 1.270 . S
O443 Zn435 1.943 . S
O443 C442 1.249 . S
O444 Zn434 2.067 . S
O444 C442 1.270 . S
C445 O438 1.262 . S
C445 O446 1.232 . S
O446 C445 1.232 . S
C447 O439 1.260 . S
C447 O440 1.257 . S
Zn448 O451 2.031 . S
Zn448 O453 2.049 . S
Zn448 O458 2.067 . S
Zn449 O450 1.962 . S
Zn449 O452 1.986 . S
Zn449 O454 1.996 . S
Zn449 O457 1.943 . S
O450 Zn449 1.962 . S
O450 C455 1.254 . S
O451 Zn448 2.031 . S
O451 C455 1.269 . S
O452 Zn449 1.986 . S
O452 C459 1.262 . S
O453 Zn448 2.049 . S
O453 C461 1.260 . S
O454 Zn449 1.996 . S
O454 C461 1.257 . S
C455 O450 1.254 . S
C455 O451 1.269 . S
C456 O457 1.249 . S
C456 O458 1.270 . S
O457 Zn449 1.943 . S
O457 C456 1.249 . S
O458 Zn448 2.067 . S
O458 C456 1.270 . S
C459 O452 1.262 . S
C459 O460 1.232 . S
O460 C459 1.232 . S
C461 O453 1.260 . S
C461 O454 1.257 . S
Zn462 O465 2.031 . S
Zn462 O467 2.049 . S
Zn462 O472 2.067 . S
Zn463 O464 1.962 . S
Zn463 O466 1.986 . S
Zn463 O468 1.996 . S
Zn463 O471 1.943 . S
O464 Zn463 1.962 . S
O464 C469 1.254 . S
O465 Zn462 2.031 . S
O465 C469 1.269 . S
O466 Zn463 1.986 . S
O466 C473 1.262 . S
O467 Zn462 2.049 . S
O467 C475 1.260 . S
O468 Zn463 1.996 . S
O468 C475 1.257 . S
C469 O464 1.254 . S
C469 O465 1.269 . S
C470 O471 1.249 . S
C470 O472 1.270 . S
O471 Zn463 1.943 . S
O471 C470 1.249 . S
O472 Zn462 2.067 . S
O472 C470 1.270 . S
C473 O466 1.262 . S
C473 O474 1.232 . S
O474 C473 1.232 . S
C475 O467 1.260 . S
C475 O468 1.257 . S
Zn476 O479 2.031 . S
Zn476 O481 2.049 . S
Zn476 O486 2.067 . S
Zn477 O478 1.962 . S
Zn477 O480 1.986 . S
Zn477 O482 1.996 . S
Zn477 O485 1.943 . S
O478 Zn477 1.962 . S
O478 C483 1.254 . S
O479 Zn476 2.031 . S
O479 C483 1.269 . S
O480 Zn477 1.986 . S
O480 C487 1.262 . S
O481 Zn476 2.049 . S
O481 C489 1.260 . S
O482 Zn477 1.996 . S
O482 C489 1.257 . S
C483 O478 1.254 . S
C483 O479 1.269 . S
C484 O485 1.249 . S
C484 O486 1.270 . S
O485 Zn477 1.943 . S
O485 C484 1.249 . S
O486 Zn476 2.067 . S
O486 C484 1.270 . S
C487 O480 1.262 . S
C487 O488 1.232 . S
O488 C487 1.232 . S
C489 O481 1.260 . S
C489 O482 1.257 . S
Zn490 O493 2.031 . S
Zn490 O495 2.049 . S
Zn490 O500 2.067 . S
Zn491 O492 1.962 . S
Zn491 O494 1.986 . S
Zn491 O496 1.996 . S
Zn491 O499 1.943 . S
O492 Zn491 1.962 . S
O492 C497 1.254 . S
O493 Zn490 2.031 . S
O493 C497 1.269 . S
O494 Zn491 1.986 . S
O494 C501 1.262 . S
O495 Zn490 2.049 . S
O495 C503 1.260 . S
O496 Zn491 1.996 . S
O496 C503 1.257 . S
C497 O492 1.254 . S
C497 O493 1.269 . S
C498 O499 1.249 . S
C498 O500 1.270 . S
O499 Zn491 1.943 . S
O499 C498 1.249 . S
O500 Zn490 2.067 . S
O500 C498 1.270 . S
C501 O494 1.262 . S
C501 O502 1.232 . S
O502 C501 1.232 . S
C503 O495 1.260 . S
C503 O496 1.257 . S
Zn504 O507 2.031 . S
Zn504 O509 2.049 . S
Zn504 O514 2.067 . S
Zn505 O506 1.962 . S
Zn505 O508 1.986 . S
Zn505 O510 1.996 . S
Zn505 O513 1.943 . S
O506 Zn505 1.962 . S
O506 C511 1.254 . S
O507 Zn504 2.031 . S
O507 C511 1.269 . S
O508 Zn505 1.986 . S
O508 C515 1.262 . S
O509 Zn504 2.049 . S
O509 C517 1.260 . S
O510 Zn505 1.996 . S
O510 C517 1.257 . S
C511 O506 1.254 . S
C511 O507 1.269 . S
C512 O513 1.249 . S
C512 O514 1.270 . S
O513 Zn505 1.943 . S
O513 C512 1.249 . S
O514 Zn504 2.067 . S
O514 C512 1.270 . S
C515 O508 1.262 . S
C515 O516 1.232 . S
O516 C515 1.232 . S
C517 O509 1.260 . S
C517 O510 1.257 . S
Zn518 O521 2.031 . S
Zn518 O523 2.049 . S
Zn518 O528 2.067 . S
Zn519 O520 1.962 1_556 S
Zn519 O522 1.986 . S
Zn519 O524 1.996 . S
Zn519 O527 1.943 . S
O520 Zn519 1.962 1_554 S
O520 C525 1.254 . S
O521 Zn518 2.031 . S
O521 C525 1.269 . S
O522 Zn519 1.986 . S
O522 C529 1.262 . S
O523 Zn518 2.049 . S
O523 C531 1.260 1_554 S
O524 Zn519 1.996 . S
O524 C531 1.257 . S
C525 O520 1.254 . S
C525 O521 1.269 . S
C526 O527 1.249 . S
C526 O528 1.270 1_556 S
O527 Zn519 1.943 . S
O527 C526 1.249 . S
O528 Zn518 2.067 . S
O528 C526 1.270 1_554 S
C529 O522 1.262 . S
C529 O530 1.232 . S
O530 C529 1.232 . S
C531 O523 1.260 1_556 S
C531 O524 1.257 . S
Zn532 O535 2.031 . S
Zn532 O537 2.049 . S
Zn532 O542 2.067 . S
Zn533 O534 1.962 . S
Zn533 O536 1.986 . S
Zn533 O538 1.996 . S
Zn533 O541 1.943 . S
O534 Zn533 1.962 . S
O534 C539 1.254 . S
O535 Zn532 2.031 . S
O535 C539 1.269 . S
O536 Zn533 1.986 . S
O536 C543 1.262 . S
O537 Zn532 2.049 . S
O537 C545 1.260 . S
O538 Zn533 1.996 . S
O538 C545 1.257 . S
C539 O534 1.254 . S
C539 O535 1.269 . S
C540 O541 1.249 . S
C540 O542 1.270 . S
O541 Zn533 1.943 . S
O541 C540 1.249 . S
O542 Zn532 2.067 . S
O542 C540 1.270 . S
C543 O536 1.262 . S
C543 O544 1.232 . S
O544 C543 1.232 . S
C545 O537 1.260 . S
C545 O538 1.257 . S
Zn546 O549 2.031 . S
Zn546 O551 2.049 . S
Zn546 O556 2.067 . S
Zn547 O548 1.962 . S
Zn547 O550 1.986 . S
Zn547 O552 1.996 . S
Zn547 O555 1.943 . S
O548 Zn547 1.962 . S
O548 C553 1.254 . S
O549 Zn546 2.031 . S
O549 C553 1.269 . S
O550 Zn547 1.986 . S
O550 C557 1.262 . S
O551 Zn546 2.049 . S
O551 C559 1.260 . S
O552 Zn547 1.996 . S
O552 C559 1.257 . S
C553 O548 1.254 . S
C553 O549 1.269 . S
C554 O555 1.249 . S
C554 O556 1.270 . S
O555 Zn547 1.943 . S
O555 C554 1.249 . S
O556 Zn546 2.067 . S
O556 C554 1.270 . S
C557 O550 1.262 . S
C557 O558 1.232 . S
O558 C557 1.232 . S
C559 O551 1.260 . S
C559 O552 1.257 . S
Zn560 O563 2.031 . S
Zn560 O565 2.049 . S
Zn560 O570 2.067 . S
Zn561 O562 1.962 . S
Zn561 O564 1.986 . S
Zn561 O566 1.996 . S
Zn561 O569 1.943 . S
O562 Zn561 1.962 . S
O562 C567 1.254 . S
O563 Zn560 2.031 . S
O563 C567 1.269 . S
O564 Zn561 1.986 . S
O564 C571 1.262 . S
O565 Zn560 2.049 . S
O565 C573 1.260 . S
O566 Zn561 1.996 . S
O566 C573 1.257 . S
C567 O562 1.254 . S
C567 O563 1.269 . S
C568 O569 1.249 . S
C568 O570 1.270 . S
O569 Zn561 1.943 . S
O569 C568 1.249 . S
O570 Zn560 2.067 . S
O570 C568 1.270 . S
C571 O564 1.262 . S
C571 O572 1.232 . S
O572 C571 1.232 . S
C573 O565 1.260 . S
C573 O566 1.257 . S
Zn574 O577 2.031 . S
Zn574 O579 2.049 . S
Zn574 O584 2.067 . S
Zn575 O576 1.962 . S
Zn575 O578 1.986 . S
Zn575 O580 1.996 . S
Zn575 O583 1.943 . S
O576 Zn575 1.962 . S
O576 C581 1.254 . S
O577 Zn574 2.031 . S
O577 C581 1.269 . S
O578 Zn575 1.986 . S
O578 C585 1.262 . S
O579 Zn574 2.049 . S
O579 C587 1.260 . S
O580 Zn575 1.996 . S
O580 C587 1.257 . S
C581 O576 1.254 . S
C581 O577 1.269 . S
C582 O583 1.249 . S
C582 O584 1.270 . S
O583 Zn575 1.943 . S
O583 C582 1.249 . S
O584 Zn574 2.067 . S
O584 C582 1.270 . S
C585 O578 1.262 . S
C585 O586 1.232 . S
O586 C585 1.232 . S
C587 O579 1.260 . S
C587 O580 1.257 . S
Zn588 O591 2.031 . S
Zn588 O593 2.049 . S
Zn588 O598 2.067 . S
Zn589 O590 1.962 . S
Zn589 O592 1.986 . S
Zn589 O594 1.996 . S
Zn589 O597 1.943 . S
O590 Zn589 1.962 . S
O590 C595 1.254 . S
O591 Zn588 2.031 . S
O591 C595 1.269 . S
O592 Zn589 1.986 . S
O592 C599 1.262 . S
O593 Zn588 2.049 . S
O593 C601 1.260 . S
O594 Zn589 1.996 . S
O594 C601 1.257 . S
C595 O590 1.254 . S
C595 O591 1.269 . S
C596 O597 1.249 . S
C596 O598 1.270 . S
O597 Zn589 1.943 . S
O597 C596 1.249 . S
O598 Zn588 2.067 . S
O598 C596 1.270 . S
C599 O592 1.262 . S
C599 O600 1.232 . S
O600 C599 1.232 . S
C601 O593 1.260 . S
C601 O594 1.257 . S
Zn602 O605 2.031 . S
Zn602 O607 2.049 . S
Zn602 O612 2.067 1_554 S
Zn603 O604 1.962 . S
Zn603 O606 1.986 . S
Zn603 O608 1.996 . S
Zn603 O611 1.943 . S
O604 Zn603 1.962 . S
O604 C609 1.254 . S
O605 Zn602 2.031 . S
O605 C609 1.269 . S
O606 Zn603 1.986 . S
O606 C613 1.262 . S
O607 Zn602 2.049 . S
O607 C615 1.260 . S
O608 Zn603 1.996 . S
O608 C615 1.257 . S
C609 O604 1.254 . S
C609 O605 1.269 . S
C610 O611 1.249 1_556 S
C610 O612 1.270 . S
O611 Zn603 1.943 . S
O611 C610 1.249 1_554 S
O612 Zn602 2.067 1_556 S
O612 C610 1.270 . S
C613 O606 1.262 . S
C613 O614 1.232 . S
O614 C613 1.232 . S
C615 O607 1.260 . S
C615 O608 1.257 . S
Zn616 O619 2.031 . S
Zn616 O621 2.049 . S
Zn616 O626 2.067 . S
Zn617 O618 1.962 . S
Zn617 O620 1.986 . S
Zn617 O622 1.996 . S
Zn617 O625 1.943 . S
O618 Zn617 1.962 . S
O618 C623 1.254 . S
O619 Zn616 2.031 . S
O619 C623 1.269 . S
O620 Zn617 1.986 . S
O620 C627 1.262 . S
O621 Zn616 2.049 . S
O621 C629 1.260 . S
O622 Zn617 1.996 . S
O622 C629 1.257 . S
C623 O618 1.254 . S
C623 O619 1.269 . S
C624 O625 1.249 . S
C624 O626 1.270 . S
O625 Zn617 1.943 . S
O625 C624 1.249 . S
O626 Zn616 2.067 . S
O626 C624 1.270 . S
C627 O620 1.262 . S
C627 O628 1.232 . S
O628 C627 1.232 . S
C629 O621 1.260 . S
C629 O622 1.257 . S
Zn630 O633 2.031 . S
Zn630 O635 2.049 . S
Zn630 O640 2.067 . S
Zn631 O632 1.962 . S
Zn631 O634 1.986 . S
Zn631 O636 1.996 . S
Zn631 O639 1.943 . S
O632 Zn631 1.962 . S
O632 C637 1.254 . S
O633 Zn630 2.031 . S
O633 C637 1.269 . S
O634 Zn631 1.986 . S
O634 C641 1.262 . S
O635 Zn630 2.049 . S
O635 C643 1.260 . S
O636 Zn631 1.996 . S
O636 C643 1.257 . S
C637 O632 1.254 . S
C637 O633 1.269 . S
C638 O639 1.249 . S
C638 O640 1.270 . S
O639 Zn631 1.943 . S
O639 C638 1.249 . S
O640 Zn630 2.067 . S
O640 C638 1.270 . S
C641 O634 1.262 . S
C641 O642 1.232 . S
O642 C641 1.232 . S
C643 O635 1.260 . S
C643 O636 1.257 . S
Zn644 O647 2.031 . S
Zn644 O649 2.049 . S
Zn644 O654 2.067 . S
Zn645 O646 1.962 1_565 S
Zn645 O648 1.986 . S
Zn645 O650 1.996 . S
Zn645 O653 1.943 . S
O646 Zn645 1.962 1_545 S
O646 C651 1.254 . S
O647 Zn644 2.031 . S
O647 C651 1.269 . S
O648 Zn645 1.986 . S
O648 C655 1.262 . S
O649 Zn644 2.049 . S
O649 C657 1.260 1_545 S
O650 Zn645 1.996 . S
O650 C657 1.257 . S
C651 O646 1.254 . S
C651 O647 1.269 . S
C652 O653 1.249 . S
C652 O654 1.270 1_565 S
O653 Zn645 1.943 . S
O653 C652 1.249 . S
O654 Zn644 2.067 . S
O654 C652 1.270 1_545 S
C655 O648 1.262 . S
C655 O656 1.232 . S
O656 C655 1.232 . S
C657 O649 1.260 1_565 S
C657 O650 1.257 . S
Zn658 O661 2.031 . S
Zn658 O663 2.049 . S
Zn658 O668 2.067 . S
Zn659 O660 1.962 . S
Zn659 O662 1.986 . S
Zn659 O664 1.996 . S
Zn659 O667 1.943 . S
O660 Zn659 1.962 . S
O660 C665 1.254 . S
O661 Zn658 2.031 . S
O661 C665 1.269 . S
O662 Zn659 1.986 . S
O662 C669 1.262 . S
O663 Zn658 2.049 . S
O663 C671 1.260 . S
O664 Zn659 1.996 . S
O664 C671 1.257 . S
C665 O660 1.254 . S
C665 O661 1.269 . S
C666 O667 1.249 . S
C666 O668 1.270 . S
O667 Zn659 1.943 . S
O667 C666 1.249 . S
O668 Zn658 2.067 . S
O668 C666 1.270 . S
C669 O662 1.262 . S
C669 O670 1.232 . S
O670 C669 1.232 . S
C671 O663 1.260 . S
C671 O664 1.257 . S
C7 C371 1.639 . S
C385 C21 1.639 . S
C35 C343 1.639 . S
C357 C49 1.639 . S
C63 C427 1.639 . S
C77 C441 1.639 . S
C91 C399 1.639 . S
C105 C413 1.639 . S
C175 C119 1.639 . S
C133 C189 1.639 . S
C203 C147 1.639 . S
C161 C217 1.639 . S
C609 C231 1.639 . S
C637 C245 1.639 . S
C315 C259 1.639 . S
C567 C273 1.639 . S
C665 C287 1.639 . S
C581 C301 1.639 . S
C329 C623 1.639 . S
C455 C511 1.639 . S
C525 C469 1.639 . S
C483 C539 1.639 . S
C553 C497 1.639 . S
C595 C651 1.639 . S
C13 C111 0.802 1_455 S
C69 C27 0.801 1_455 S
C41 C83 0.801 . S
C55 C97 0.801 . S
C293 C125 0.802 1_565 S
C587 C139 0.801 . S
C153 C601 0.802 . S
C167 C615 0.802 . S
C671 C181 0.802 . S
C195 C307 0.802 . S
C209 C657 0.801 1_545 S
C223 C237 0.802 1_556 S
C251 C475 0.802 . S
C265 C489 0.801 . S
C503 C279 0.801 . S
C321 C545 0.802 . S
C517 C335 0.801 . S
C447 C349 0.802 . S
C363 C405 0.802 . S
C419 C377 0.802 . S
C391 C433 0.802 . S
C461 C629 0.802 . S
C643 C531 0.801 1_554 S
C573 C559 0.802 . S
C8 C414 1.027 . S
C428 C22 1.027 . S
C36 C442 1.027 . S
C50 C400 1.026 . S
C386 C64 1.025 . S
C78 C344 1.025 . S
C358 C92 1.025 . S
C106 C372 1.025 . S
C666 C120 1.027 . S
C134 C302 1.026 . S
C148 C652 1.027 . S
C232 C162 1.027 . S
C176 C288 1.025 . S
C190 C582 1.025 . S
C596 C204 1.025 . S
C610 C218 1.025 . S
C526 C246 1.027 . S
C540 C260 1.026 . S
C554 C274 1.027 . S
C316 C484 1.025 . S
C456 C330 1.025 . S
C470 C638 1.025 . S
C498 C568 1.025 . S
C624 C512 1.027 . S
C11 C319 1.555 . S
C25 C571 1.555 . S
C333 C39 1.555 . S
C641 C53 1.555 . S
C263 C67 1.555 . S
C277 C81 1.555 . S
C95 C627 1.555 . S
C109 C249 1.555 . S
C193 C123 1.555 . S
C137 C207 1.555 . S
C221 C151 1.555 . S
C179 C165 1.556 . S
C235 C361 1.555 . S
C431 C291 1.555 . S
C389 C305 1.555 . S
C347 C655 1.555 . S
C669 C375 1.556 . S
C599 C403 1.555 . S
C613 C417 1.556 . S
C585 C445 1.555 . S
C529 C459 1.555 . S
C543 C473 1.555 . S
C487 C557 1.555 . S
C501 C515 1.555 . S
