# Generated by pormake.
# Topology uox, (4)-cn, num edge types: 1
# Building blocks:
#     Node 0, Type 0, BuildingBlock: NAHDIM_clean_sbu_0, # of connection points: 4
#     Node 1, Type 0, BuildingBlock: NAHDIM_clean_sbu_0, # of connection points: 4
#     Node 2, Type 0, BuildingBlock: NAHDIM_clean_sbu_0, # of connection points: 4
#     Node 3, Type 0, BuildingBlock: NAHDIM_clean_sbu_0, # of connection points: 4
#     Node 4, Type 0, BuildingBlock: NAHDIM_clean_sbu_0, # of connection points: 4
#     Node 5, Type 0, BuildingBlock: NAHDIM_clean_sbu_0, # of connection points: 4
#     Node 6, Type 0, BuildingBlock: NAHDIM_clean_sbu_0, # of connection points: 4
#     Node 7, Type 0, BuildingBlock: NAHDIM_clean_sbu_0, # of connection points: 4
#     Node 8, Type 0, BuildingBlock: NAHDIM_clean_sbu_0, # of connection points: 4
#     Node 9, Type 0, BuildingBlock: NAHDIM_clean_sbu_0, # of connection points: 4
#     Node 10, Type 0, BuildingBlock: NAHDIM_clean_sbu_0, # of connection points: 4
#     Node 11, Type 0, BuildingBlock: NAHDIM_clean_sbu_0, # of connection points: 4
#     Node 12, Type 0, BuildingBlock: NAHDIM_clean_sbu_0, # of connection points: 4
#     Node 13, Type 0, BuildingBlock: NAHDIM_clean_sbu_0, # of connection points: 4
#     Node 14, Type 0, BuildingBlock: NAHDIM_clean_sbu_0, # of connection points: 4
#     Node 15, Type 0, BuildingBlock: NAHDIM_clean_sbu_0, # of connection points: 4
#     Node 16, Type 0, BuildingBlock: NAHDIM_clean_sbu_0, # of connection points: 4
#     Node 17, Type 0, BuildingBlock: NAHDIM_clean_sbu_0, # of connection points: 4
#     Node 18, Type 0, BuildingBlock: NAHDIM_clean_sbu_0, # of connection points: 4
#     Node 19, Type 0, BuildingBlock: NAHDIM_clean_sbu_0, # of connection points: 4
#     Node 20, Type 0, BuildingBlock: NAHDIM_clean_sbu_0, # of connection points: 4
#     Node 21, Type 0, BuildingBlock: NAHDIM_clean_sbu_0, # of connection points: 4
#     Node 22, Type 0, BuildingBlock: NAHDIM_clean_sbu_0, # of connection points: 4
#     Node 23, Type 0, BuildingBlock: NAHDIM_clean_sbu_0, # of connection points: 4
#     Node 24, Type 0, BuildingBlock: NAHDIM_clean_sbu_0, # of connection points: 4
#     Node 25, Type 0, BuildingBlock: NAHDIM_clean_sbu_0, # of connection points: 4
#     Node 26, Type 0, BuildingBlock: NAHDIM_clean_sbu_0, # of connection points: 4
#     Node 27, Type 0, BuildingBlock: NAHDIM_clean_sbu_0, # of connection points: 4
#     Node 28, Type 0, BuildingBlock: NAHDIM_clean_sbu_0, # of connection points: 4
#     Node 29, Type 0, BuildingBlock: NAHDIM_clean_sbu_0, # of connection points: 4
#     Node 30, Type 0, BuildingBlock: NAHDIM_clean_sbu_0, # of connection points: 4
#     Node 31, Type 0, BuildingBlock: NAHDIM_clean_sbu_0, # of connection points: 4
#     Edge 32, Type (0, 0), BuildingBlock: AJUNOK_clean_linker_0, # of connection points: 2
#     Edge 33, Type (0, 0), BuildingBlock: AJUNOK_clean_linker_0, # of connection points: 2
#     Edge 34, Type (0, 0), BuildingBlock: AJUNOK_clean_linker_0, # of connection points: 2
#     Edge 35, Type (0, 0), BuildingBlock: AJUNOK_clean_linker_0, # of connection points: 2
#     Edge 36, Type (0, 0), BuildingBlock: AJUNOK_clean_linker_0, # of connection points: 2
#     Edge 37, Type (0, 0), BuildingBlock: AJUNOK_clean_linker_0, # of connection points: 2
#     Edge 38, Type (0, 0), BuildingBlock: AJUNOK_clean_linker_0, # of connection points: 2
#     Edge 39, Type (0, 0), BuildingBlock: AJUNOK_clean_linker_0, # of connection points: 2
#     Edge 40, Type (0, 0), BuildingBlock: AJUNOK_clean_linker_0, # of connection points: 2
#     Edge 41, Type (0, 0), BuildingBlock: AJUNOK_clean_linker_0, # of connection points: 2
#     Edge 42, Type (0, 0), BuildingBlock: AJUNOK_clean_linker_0, # of connection points: 2
#     Edge 43, Type (0, 0), BuildingBlock: AJUNOK_clean_linker_0, # of connection points: 2
#     Edge 44, Type (0, 0), BuildingBlock: AJUNOK_clean_linker_0, # of connection points: 2
#     Edge 45, Type (0, 0), BuildingBlock: AJUNOK_clean_linker_0, # of connection points: 2
#     Edge 46, Type (0, 0), BuildingBlock: AJUNOK_clean_linker_0, # of connection points: 2
#     Edge 47, Type (0, 0), BuildingBlock: AJUNOK_clean_linker_0, # of connection points: 2
#     Edge 48, Type (0, 0), BuildingBlock: AJUNOK_clean_linker_0, # of connection points: 2
#     Edge 49, Type (0, 0), BuildingBlock: AJUNOK_clean_linker_0, # of connection points: 2
#     Edge 50, Type (0, 0), BuildingBlock: AJUNOK_clean_linker_0, # of connection points: 2
#     Edge 51, Type (0, 0), BuildingBlock: AJUNOK_clean_linker_0, # of connection points: 2
#     Edge 52, Type (0, 0), BuildingBlock: AJUNOK_clean_linker_0, # of connection points: 2
#     Edge 53, Type (0, 0), BuildingBlock: AJUNOK_clean_linker_0, # of connection points: 2
#     Edge 54, Type (0, 0), BuildingBlock: AJUNOK_clean_linker_0, # of connection points: 2
#     Edge 55, Type (0, 0), BuildingBlock: AJUNOK_clean_linker_0, # of connection points: 2
#     Edge 56, Type (0, 0), BuildingBlock: AJUNOK_clean_linker_0, # of connection points: 2
#     Edge 57, Type (0, 0), BuildingBlock: AJUNOK_clean_linker_0, # of connection points: 2
#     Edge 58, Type (0, 0), BuildingBlock: AJUNOK_clean_linker_0, # of connection points: 2
#     Edge 59, Type (0, 0), BuildingBlock: AJUNOK_clean_linker_0, # of connection points: 2
#     Edge 60, Type (0, 0), BuildingBlock: AJUNOK_clean_linker_0, # of connection points: 2
#     Edge 61, Type (0, 0), BuildingBlock: AJUNOK_clean_linker_0, # of connection points: 2
#     Edge 62, Type (0, 0), BuildingBlock: AJUNOK_clean_linker_0, # of connection points: 2
#     Edge 63, Type (0, 0), BuildingBlock: AJUNOK_clean_linker_0, # of connection points: 2
#     Edge 64, Type (0, 0), BuildingBlock: AJUNOK_clean_linker_0, # of connection points: 2
#     Edge 65, Type (0, 0), BuildingBlock: AJUNOK_clean_linker_0, # of connection points: 2
#     Edge 66, Type (0, 0), BuildingBlock: AJUNOK_clean_linker_0, # of connection points: 2
#     Edge 67, Type (0, 0), BuildingBlock: AJUNOK_clean_linker_0, # of connection points: 2
#     Edge 68, Type (0, 0), BuildingBlock: AJUNOK_clean_linker_0, # of connection points: 2
#     Edge 69, Type (0, 0), BuildingBlock: AJUNOK_clean_linker_0, # of connection points: 2
#     Edge 70, Type (0, 0), BuildingBlock: AJUNOK_clean_linker_0, # of connection points: 2
#     Edge 71, Type (0, 0), BuildingBlock: AJUNOK_clean_linker_0, # of connection points: 2
#     Edge 72, Type (0, 0), BuildingBlock: AJUNOK_clean_linker_0, # of connection points: 2
#     Edge 73, Type (0, 0), BuildingBlock: AJUNOK_clean_linker_0, # of connection points: 2
#     Edge 74, Type (0, 0), BuildingBlock: AJUNOK_clean_linker_0, # of connection points: 2
#     Edge 75, Type (0, 0), BuildingBlock: AJUNOK_clean_linker_0, # of connection points: 2
#     Edge 76, Type (0, 0), BuildingBlock: AJUNOK_clean_linker_0, # of connection points: 2
#     Edge 77, Type (0, 0), BuildingBlock: AJUNOK_clean_linker_0, # of connection points: 2
#     Edge 78, Type (0, 0), BuildingBlock: AJUNOK_clean_linker_0, # of connection points: 2
#     Edge 79, Type (0, 0), BuildingBlock: AJUNOK_clean_linker_0, # of connection points: 2
#     Edge 80, Type (0, 0), BuildingBlock: AJUNOK_clean_linker_0, # of connection points: 2
#     Edge 81, Type (0, 0), BuildingBlock: AJUNOK_clean_linker_0, # of connection points: 2
#     Edge 82, Type (0, 0), BuildingBlock: AJUNOK_clean_linker_0, # of connection points: 2
#     Edge 83, Type (0, 0), BuildingBlock: AJUNOK_clean_linker_0, # of connection points: 2
#     Edge 84, Type (0, 0), BuildingBlock: AJUNOK_clean_linker_0, # of connection points: 2
#     Edge 85, Type (0, 0), BuildingBlock: AJUNOK_clean_linker_0, # of connection points: 2
#     Edge 86, Type (0, 0), BuildingBlock: AJUNOK_clean_linker_0, # of connection points: 2
#     Edge 87, Type (0, 0), BuildingBlock: AJUNOK_clean_linker_0, # of connection points: 2
#     Edge 88, Type (0, 0), BuildingBlock: AJUNOK_clean_linker_0, # of connection points: 2
#     Edge 89, Type (0, 0), BuildingBlock: AJUNOK_clean_linker_0, # of connection points: 2
#     Edge 90, Type (0, 0), BuildingBlock: AJUNOK_clean_linker_0, # of connection points: 2
#     Edge 91, Type (0, 0), BuildingBlock: AJUNOK_clean_linker_0, # of connection points: 2
#     Edge 92, Type (0, 0), BuildingBlock: AJUNOK_clean_linker_0, # of connection points: 2
#     Edge 93, Type (0, 0), BuildingBlock: AJUNOK_clean_linker_0, # of connection points: 2
#     Edge 94, Type (0, 0), BuildingBlock: AJUNOK_clean_linker_0, # of connection points: 2
#     Edge 95, Type (0, 0), BuildingBlock: AJUNOK_clean_linker_0, # of connection points: 2
# Relax obj value: 0.102
# Max RMSD: 0.134
# Mean RMSD: 0.134
data_MOF--net-uox--node1-NAHDIM_clean_sbu_0--edge1-AJUNOK_clean_linker_0
_symmetry_space_group_name_H-M    P1
_symmetry_Int_Tables_number       1
_symmetry_cell_setting            triclinic
loop_
_symmetry_equiv_pos_as_xyz
'x, y, z'
_cell_length_a     33.040079
_cell_length_b     33.079496
_cell_length_c     61.333937
_cell_angle_alpha  89.984104
_cell_angle_beta   90.068889
_cell_angle_gamma 89.837902
loop_
_atom_site_label
_atom_site_type_symbol
_atom_site_fract_x
_atom_site_fract_y
_atom_site_fract_z
_atom_type_partial_charge
C0 C 0.42156 0.00134 0.20022 0.0
O1 O 0.43117 0.97268 0.18633 0.0
O2 O 0.46553 0.04603 0.14987 0.0
Zn3 Zn 0.40817 0.04084 0.16045 0.0
O4 O 0.3806 0.99097 0.14945 0.0
C5 C 0.38184 0.10737 0.13382 0.0
O6 O 0.4113 0.09394 0.12141 0.0
O7 O 0.41049 0.03559 0.19292 0.0
C8 C 0.36472 0.98772 0.13071 0.0
O9 O 0.36827 0.01751 0.11669 0.0
C10 C 0.48009 0.03359 0.13192 0.0
O11 O 0.4566 0.01494 0.11789 0.0
O12 O 0.37508 0.08978 0.15187 0.0
C13 C 0.22708 0.1921 0.44945 0.0
O14 O 0.24169 0.21952 0.43614 0.0
O15 O 0.19105 0.21793 0.39879 0.0
Zn16 Zn 0.20216 0.16092 0.40899 0.0
O17 O 0.25416 0.1363 0.39839 0.0
C18 C 0.13831 0.13574 0.38135 0.0
O19 O 0.15393 0.16534 0.3699 0.0
O20 O 0.20722 0.16262 0.44159 0.0
C21 C 0.26176 0.12509 0.37903 0.0
O22 O 0.23515 0.13231 0.36359 0.0
C23 C 0.20577 0.23795 0.38301 0.0
O24 O 0.23448 0.22179 0.37103 0.0
O25 O 0.15468 0.12628 0.39944 0.0
C26 C 0.05199 -0.00287 0.70641 0.0
O27 O 0.03989 0.02523 0.69271 0.0
O28 O 0.01356 0.95083 0.65523 0.0
Zn29 Zn 0.07031 0.95891 0.66646 0.0
O30 O 0.09774 0.00904 0.65527 0.0
C31 C 0.0986 0.89314 0.64028 0.0
O32 O 0.06921 0.90641 0.62773 0.0
O33 O 0.06677 0.9645 0.69888 0.0
C34 C 0.11076 0.01263 0.6359 0.0
O35 O 0.10439 0.98341 0.62185 0.0
C36 C -0.00262 0.96449 0.63791 0.0
O37 O 0.01832 0.9881 0.62496 0.0
O38 O 0.10462 0.91026 0.65855 0.0
C39 C 0.26117 0.79745 0.94193 0.0
O40 O 0.24693 0.76949 0.92883 0.0
O41 O 0.28741 0.77508 0.8896 0.0
Zn42 Zn 0.28162 0.83184 0.90115 0.0
O43 O 0.23049 0.86016 0.89184 0.0
C44 C 0.34439 0.85661 0.8724 0.0
O45 O 0.3256 0.82994 0.86025 0.0
O46 O 0.27869 0.82815 0.93382 0.0
C47 C 0.22441 0.87514 0.87307 0.0
O48 O 0.25196 0.87034 0.85789 0.0
C49 C 0.2737 0.75922 0.87225 0.0
O50 O 0.2506 0.78058 0.85913 0.0
O51 O 0.33105 0.86364 0.89149 0.0
C52 C 0.42972 0.97659 0.29396 0.0
O53 O 0.43925 0.00731 0.30651 0.0
O54 O 0.4757 0.92671 0.34566 0.0
Zn55 Zn 0.41918 0.93989 0.33535 0.0
O56 O 0.39634 0.99294 0.34563 0.0
C57 C 0.38551 0.87788 0.36252 0.0
O58 O 0.41437 0.8903 0.37563 0.0
O59 O 0.42028 0.94314 0.30275 0.0
C60 C 0.38192 0.00027 0.36438 0.0
O61 O 0.38514 0.97277 0.37973 0.0
C62 C 0.49438 0.93894 0.36253 0.0
O63 O 0.47675 0.9651 0.37554 0.0
O64 O 0.38151 0.89484 0.34406 0.0
C65 C 0.2675 0.19613 0.54156 0.0
O66 O 0.25861 0.2276 0.55372 0.0
O67 O 0.30487 0.22093 0.59255 0.0
Zn68 Zn 0.29141 0.16438 0.5828 0.0
O69 O 0.24006 0.14201 0.59521 0.0
C70 C 0.35747 0.13354 0.60802 0.0
O71 O 0.3456 0.16291 0.62094 0.0
O72 O 0.28302 0.165 0.55041 0.0
C73 C 0.23549 0.12821 0.61435 0.0
O74 O 0.2652 0.13153 0.62847 0.0
C75 C 0.29401 0.23949 0.60971 0.0
O76 O 0.27008 0.22144 0.62373 0.0
O77 O 0.33839 0.12773 0.59029 0.0
C78 C 0.05453 0.03122 0.79937 0.0
O79 O 0.05217 0.00256 0.81412 0.0
O80 O 0.03105 0.08656 0.85574 0.0
Zn81 Zn 0.0792 0.07415 0.83687 0.0
O82 O 0.10834 0.02342 0.84532 0.0
C83 C 0.15039 0.11922 0.8503 0.0
O84 O 0.16268 0.08394 0.85759 0.0
O85 O 0.06353 0.06687 0.80541 0.0
C86 C 0.104 0.00077 0.86182 0.0
O87 O 0.07819 0.01084 0.87718 0.0
C88 C -0.00134 0.06633 0.85774 0.0
O89 O 0.99476 0.03223 0.84701 0.0
O90 O 0.1168 0.12151 0.84021 0.0
C91 C 0.22712 0.78981 0.03462 0.0
O92 O 0.23888 0.75899 0.04658 0.0
O93 O 0.19642 0.76164 0.08638 0.0
Zn94 Zn 0.20206 0.81934 0.07617 0.0
O95 O 0.25002 0.84805 0.08867 0.0
C96 C 0.13265 0.83953 0.10158 0.0
O97 O 0.14721 0.80935 0.11307 0.0
O98 O 0.2096 0.81959 0.04372 0.0
C99 C 0.25147 0.86134 0.10806 0.0
O100 O 0.22135 0.85399 0.12141 0.0
C101 C 0.21061 0.7454 0.10356 0.0
O102 O 0.23327 0.76683 0.1168 0.0
O103 O 0.15119 0.85009 0.08434 0.0
C104 C 0.57037 0.98031 0.79231 0.0
O105 O 0.57264 0.01156 0.80546 0.0
O106 O 0.52193 0.93562 0.847 0.0
Zn107 Zn 0.57682 0.93737 0.83276 0.0
O108 O 0.61216 0.98199 0.84357 0.0
C109 C 0.62046 0.87962 0.85775 0.0
O110 O 0.61819 0.90925 0.87196 0.0
O111 O 0.57124 0.9449 0.80035 0.0
C112 C 0.605 0.00849 0.85801 0.0
O113 O 0.57067 0.00755 0.86878 0.0
C114 C 0.49544 0.91592 0.83642 0.0
O115 O 0.50529 0.90113 0.81726 0.0
O116 O 0.60463 0.88457 0.83904 0.0
C117 C 0.79325 0.79775 0.53905 0.0
O118 O 0.79735 0.76324 0.54941 0.0
O119 O 0.81504 0.78763 0.59848 0.0
Zn120 Zn 0.80151 0.83831 0.58183 0.0
O121 O 0.75021 0.86526 0.59128 0.0
C122 C 0.85061 0.88501 0.60873 0.0
O123 O 0.82468 0.86931 0.62254 0.0
O124 O 0.79621 0.83068 0.54954 0.0
C125 C 0.72759 0.85842 0.60756 0.0
O126 O 0.73682 0.82894 0.62104 0.0
C127 C 0.79527 0.75554 0.60225 0.0
O128 O 0.75899 0.75099 0.59383 0.0
O129 O 0.8467 0.87679 0.58859 0.0
C130 C 0.93251 0.01259 0.2886 0.0
O131 O 0.94108 0.98539 0.30352 0.0
O132 O 0.96672 0.07188 0.34056 0.0
Zn133 Zn 0.91389 0.05589 0.32676 0.0
O134 O 0.88819 0.00517 0.33805 0.0
C135 C 0.86554 0.10686 0.35225 0.0
O136 O 0.8808 0.08218 0.3669 0.0
O137 O 0.9213 0.04763 0.29463 0.0
C138 C 0.89146 0.98611 0.35592 0.0
O139 O 0.91577 -0.00024 0.37117 0.0
C140 C 0.99582 0.05173 0.3487 0.0
O141 O 0.99379 0.01211 0.34943 0.0
O142 O 0.87509 0.10161 0.33238 0.0
C143 C 0.73101 0.16928 0.04533 0.0
O144 O 0.76249 0.16793 0.0584 0.0
O145 O 0.68576 0.19203 0.10482 0.0
Zn146 Zn 0.69158 0.14457 0.08443 0.0
O147 O 0.73872 0.10871 0.09169 0.0
C148 C 0.63715 0.09714 0.10778 0.0
O149 O 0.6658 0.10361 0.12222 0.0
O150 O 0.6962 0.16166 0.05309 0.0
C151 C 0.76889 0.11771 0.10354 0.0
O152 O 0.77085 0.15382 0.11237 0.0
C153 C 0.69475 0.22844 0.10042 0.0
O154 O 0.71208 0.23666 0.08169 0.0
O155 O 0.64146 0.11154 0.08872 0.0
C156 C 0.56526 0.00819 0.69862 0.0
O157 O 0.54801 0.9825 0.6852 0.0
O158 O 0.52255 0.0578 0.6493 0.0
Zn159 Zn 0.57937 0.04367 0.65815 0.0
O160 O 0.59811 0.99012 0.64654 0.0
C161 C 0.61206 0.12384 0.65161 0.0
O162 O 0.58467 0.13365 0.66621 0.0
O163 O 0.58158 0.03975 0.69076 0.0
C164 C 0.61499 0.98737 0.62804 0.0
O165 O 0.61668 0.01964 0.61558 0.0
C166 C 0.50618 0.04892 0.63117 0.0
O167 O 0.52643 0.0269 0.61709 0.0
O168 O 0.61615 0.08692 0.64637 0.0
C169 C 0.74735 0.79735 0.44735 0.0
O170 O 0.76253 0.76954 0.43441 0.0
O171 O 0.70503 0.77095 0.39589 0.0
Zn172 Zn 0.71516 0.82729 0.40712 0.0
O173 O 0.76503 0.85319 0.39473 0.0
C174 C 0.64553 0.85596 0.3835 0.0
O175 O 0.65747 0.8274 0.37009 0.0
O176 O 0.72452 0.82455 0.43934 0.0
C177 C 0.76675 0.8693 0.37597 0.0
O178 O 0.73502 0.86754 0.3631 0.0
C179 C 0.71649 0.75645 0.37772 0.0
O180 O 0.73903 0.77849 0.36475 0.0
O181 O 0.66582 0.86208 0.40082 0.0
C182 C 0.92931 0.9746 0.19606 0.0
O183 O 0.93959 0.00255 0.18191 0.0
O184 O 0.96869 0.91561 0.14635 0.0
Zn185 Zn 0.91362 0.93207 0.15683 0.0
O186 O 0.89266 0.98319 0.14322 0.0
C187 C 0.83948 0.88652 0.14536 0.0
O188 O 0.82012 0.92122 0.14621 0.0
O189 O 0.91664 0.94073 0.18911 0.0
C190 C 0.87801 0.98534 0.12412 0.0
O191 O 0.87846 0.95298 0.1117 0.0
C192 C 0.98653 0.92497 0.12874 0.0
O193 O 0.96973 0.95133 0.11549 0.0
O194 O 0.87705 0.88527 0.14984 0.0
C195 C 0.74685 0.18263 0.95118 0.0
O196 O 0.71465 0.18986 0.93919 0.0
O197 O 0.78789 0.22314 0.89571 0.0
Zn198 Zn 0.78179 0.16803 0.90929 0.0
O199 O 0.73135 0.14031 0.89874 0.0
C200 C 0.8656 0.14536 0.90314 0.0
O201 O 0.87222 0.18042 0.91254 0.0
O202 O 0.77973 0.17291 0.94182 0.0
C203 C 0.73329 0.12041 0.88107 0.0
O204 O 0.76744 0.12023 0.87015 0.0
C205 C 0.80219 0.22665 0.87656 0.0
O206 O 0.81148 0.19378 0.86565 0.0
O207 O 0.82938 0.13356 0.9007 0.0
C208 C 0.9288 0.50358 0.68964 0.0
O209 O 0.95357 0.4869 0.67549 0.0
O210 O 0.96129 0.55669 0.64247 0.0
Zn211 Zn 0.90472 0.54155 0.65097 0.0
O212 O 0.88584 0.49097 0.63627 0.0
C213 C 0.87904 0.62373 0.64629 0.0
O214 O 0.91384 0.62966 0.65614 0.0
O215 O 0.90395 0.53028 0.68301 0.0
C216 C 0.86581 0.49235 0.61862 0.0
O217 O 0.8603 0.52747 0.60906 0.0
C218 C 0.97198 0.56286 0.62288 0.0
O219 O 0.94568 0.55699 0.60713 0.0
O220 O 0.86754 0.58765 0.64296 0.0
C221 C 0.7372 0.67777 0.95353 0.0
O222 O 0.76432 0.69312 0.94028 0.0
O223 O 0.6964 0.71395 0.90114 0.0
Zn224 Zn 0.70426 0.65763 0.91284 0.0
O225 O 0.75628 0.63258 0.90275 0.0
C226 C 0.62198 0.63411 0.90369 0.0
O227 O 0.61398 0.66882 0.9132 0.0
O228 O 0.70641 0.66041 0.94541 0.0
C229 C 0.75859 0.61764 0.88376 0.0
O230 O 0.72754 0.62159 0.87052 0.0
C231 C 0.68092 0.72059 0.8825 0.0
O232 O 0.67194 0.68972 0.86995 0.0
O233 O 0.65854 0.62245 0.90247 0.0
C234 C 0.56707 0.47282 0.19597 0.0
O235 O 0.55272 0.50033 0.18255 0.0
O236 O 0.52584 0.42086 0.14558 0.0
Zn237 Zn 0.58176 0.4356 0.15555 0.0
O238 O 0.60059 0.48866 0.14345 0.0
C239 C 0.61688 0.35552 0.15077 0.0
O240 O 0.58834 0.34528 0.1646 0.0
O241 O 0.58178 0.44042 0.18811 0.0
C242 C 0.61964 0.48984 0.12551 0.0
O243 O 0.6238 0.45634 0.11424 0.0
C244 C 0.51084 0.42969 0.12709 0.0
O245 O 0.53214 0.4515 0.11341 0.0
O246 O 0.62026 0.39238 0.14535 0.0
C247 C 0.75264 0.30583 0.44704 0.0
O248 O 0.72659 0.29192 0.4327 0.0
O249 O 0.79832 0.2704 0.39649 0.0
Zn250 Zn 0.79114 0.32708 0.40784 0.0
O251 O 0.74082 0.35448 0.39661 0.0
C252 C 0.85866 0.35434 0.38226 0.0
O253 O 0.84548 0.3254 0.36949 0.0
O254 O 0.78471 0.32278 0.44023 0.0
C255 C 0.73798 0.36956 0.37764 0.0
O256 O 0.76858 0.36609 0.36413 0.0
C257 C 0.78662 0.25576 0.37841 0.0
O258 O 0.76656 0.27864 0.36461 0.0
O259 O 0.84051 0.36072 0.40023 0.0
C260 C 0.9356 0.44928 0.77989 0.0
O261 O 0.96982 0.43461 0.78747 0.0
O262 O 0.96486 0.4315 0.83429 0.0
Zn263 Zn 0.90736 0.44111 0.8247 0.0
O264 O 0.88039 0.48878 0.83882 0.0
C265 C 0.85248 0.38587 0.84696 0.0
O266 O 0.84519 0.41724 0.85946 0.0
O267 O 0.9056 0.45293 0.79265 0.0
C268 C 0.88169 0.50133 0.85837 0.0
O269 O 0.90402 0.48195 0.87272 0.0
C270 C 0.98968 0.45465 0.84396 0.0
O271 O 0.97862 0.49142 0.84944 0.0
O272 O 0.87668 0.38969 0.831 0.0
C273 C 0.75845 0.67348 0.04765 0.0
O274 O 0.7266 0.66798 0.06009 0.0
O275 O 0.80053 0.70905 0.10635 0.0
Zn276 Zn 0.79865 0.65858 0.08806 0.0
O277 O 0.75332 0.62132 0.09566 0.0
C278 C 0.8624 0.62469 0.11296 0.0
O279 O 0.84173 0.64288 0.12841 0.0
O280 O 0.79349 0.67202 0.05621 0.0
C281 C 0.72311 0.62721 0.10801 0.0
O282 O 0.71974 0.66144 0.11871 0.0
C283 C 0.77954 0.74093 0.10372 0.0
O284 O 0.75194 0.74187 0.0883 0.0
O285 O 0.85013 0.62745 0.09337 0.0
C286 C 0.57245 0.50864 0.28871 0.0
O287 O 0.56683 0.48076 0.30364 0.0
O288 O 0.53608 0.57002 0.34022 0.0
Zn289 Zn 0.58911 0.55417 0.32666 0.0
O290 O 0.61544 0.50431 0.33876 0.0
C291 C 0.6346 0.60908 0.35134 0.0
O292 O 0.61771 0.58702 0.36662 0.0
O293 O 0.58128 0.54437 0.29466 0.0
C294 C 0.61354 0.4872 0.35724 0.0
O295 O 0.59066 0.5028 0.3726 0.0
C296 C 0.50803 0.5493 0.34883 0.0
O297 O 0.51187 0.50987 0.35036 0.0
O298 O 0.6272 0.6006 0.33154 0.0
C299 C 0.72217 0.30653 0.54034 0.0
O300 O 0.75301 0.30763 0.55386 0.0
O301 O 0.67744 0.28478 0.60009 0.0
Zn302 Zn 0.68211 0.33114 0.57894 0.0
O303 O 0.72933 0.36694 0.58535 0.0
C304 C 0.62981 0.37989 0.60263 0.0
O305 O 0.6591 0.37238 0.61658 0.0
O306 O 0.68687 0.31367 0.54765 0.0
C307 C 0.75923 0.35934 0.59769 0.0
O308 O 0.7606 0.32493 0.60837 0.0
C309 C 0.68121 0.24751 0.59559 0.0
O310 O 0.69201 0.23695 0.57578 0.0
O311 O 0.63248 0.36519 0.58354 0.0
C312 C 0.05275 0.47378 0.29207 0.0
O313 O 0.02051 0.483 0.30358 0.0
O314 O 0.02512 0.43212 0.34285 0.0
Zn315 Zn 0.08181 0.4473 0.33367 0.0
O316 O 0.10353 0.49876 0.34649 0.0
C317 C 0.11451 0.38188 0.35874 0.0
O318 O 0.0844 0.39238 0.37152 0.0
O319 O 0.08244 0.45643 0.30138 0.0
C320 C 0.11669 0.50296 0.36581 0.0
O321 O 0.11265 0.4731 0.37973 0.0
C322 C 0.00581 0.44184 0.35998 0.0
O323 O 0.02277 0.46612 0.37423 0.0
O324 O 0.11978 0.40127 0.34109 0.0
C325 C 0.25396 0.31473 0.03537 0.0
O326 O 0.22377 0.30568 0.04838 0.0
O327 O 0.30566 0.26537 0.0863 0.0
Zn328 Zn 0.29436 0.32211 0.07613 0.0
O329 O 0.24331 0.34647 0.08822 0.0
C330 C 0.36115 0.3496 0.102 0.0
O331 O 0.34839 0.32022 0.11462 0.0
O332 O 0.28845 0.32212 0.04363 0.0
C333 C 0.24006 0.36188 0.10707 0.0
O334 O 0.27083 0.35954 0.12059 0.0
C335 C 0.29291 0.24904 0.10373 0.0
O336 O 0.26722 0.26891 0.11607 0.0
O337 O 0.3423 0.35677 0.08433 0.0
C338 C 0.44117 0.51878 0.79191 0.0
O339 O 0.44421 0.49015 0.80666 0.0
O340 O 0.46428 0.57821 0.84816 0.0
Zn341 Zn 0.41693 0.56275 0.82933 0.0
O342 O 0.39 0.51177 0.83913 0.0
C343 C 0.3595 0.6121 0.85031 0.0
O344 O 0.36959 0.58723 0.86612 0.0
O345 O 0.43226 0.55446 0.79798 0.0
C346 C 0.39306 0.49408 0.8574 0.0
O347 O 0.41574 0.50983 0.8728 0.0
C348 C 0.49532 0.55692 0.85247 0.0
O349 O 0.4985 0.52055 0.84406 0.0
O350 O 0.37603 0.60761 0.83177 0.0
C351 C 0.23995 0.68418 0.5459 0.0
O352 O 0.26915 0.6883 0.56027 0.0
O353 O 0.18098 0.73433 0.5955 0.0
Zn354 Zn 0.19292 0.67818 0.58466 0.0
O355 O 0.24163 0.65096 0.59776 0.0
C356 C 0.12378 0.64631 0.60706 0.0
O357 O 0.13647 0.67117 0.62228 0.0
O358 O 0.20366 0.68081 0.55251 0.0
C359 C 0.24466 0.63289 0.61592 0.0
O360 O 0.21443 0.63441 0.62978 0.0
C361 C 0.18802 0.74946 0.61415 0.0
O362 O 0.2076 0.7279 0.62876 0.0
O363 O 0.14353 0.64374 0.58936 0.0
C364 C 0.05798 0.52007 0.20069 0.0
O365 O 0.02684 0.51108 0.18828 0.0
O366 O 0.03549 0.55979 0.14882 0.0
Zn367 Zn 0.09093 0.54371 0.15968 0.0
O368 O 0.11354 0.49162 0.14783 0.0
C369 C 0.12788 0.6007 0.13204 0.0
O370 O 0.10118 0.58438 0.11887 0.0
O371 O 0.08892 0.53632 0.19211 0.0
C372 C 0.11614 0.4796 0.12822 0.0
O373 O 0.10009 0.50148 0.11257 0.0
C374 C 0.01106 0.54082 0.13654 0.0
O375 O 0.02051 0.50453 0.12951 0.0
O376 O 0.12943 0.58856 0.15169 0.0
C377 C 0.23474 0.33352 0.94157 0.0
O378 O 0.26731 0.33269 0.92932 0.0
O379 O 0.19327 0.29808 0.88464 0.0
Zn380 Zn 0.19941 0.35088 0.90042 0.0
O381 O 0.2499 0.38034 0.89208 0.0
C382 C 0.14287 0.3852 0.87183 0.0
O383 O 0.16686 0.36582 0.85832 0.0
O384 O 0.20074 0.34088 0.9327 0.0
C385 C 0.27053 0.37416 0.87496 0.0
O386 O 0.25883 0.34637 0.86105 0.0
C387 C 0.21733 0.26809 0.88469 0.0
O388 O 0.25134 0.27032 0.89572 0.0
O389 O 0.15122 0.38485 0.89207 0.0
C390 C 0.4338 0.48602 0.699 0.0
O391 O 0.44682 0.51325 0.68509 0.0
O392 O 0.46473 0.44503 0.64702 0.0
Zn393 Zn 0.40865 0.45179 0.65941 0.0
O394 O 0.37997 0.50283 0.65023 0.0
C395 C 0.37868 0.3874 0.6327 0.0
O396 O 0.40568 0.40249 0.61933 0.0
O397 O 0.41538 0.45513 0.69176 0.0
C398 C 0.36554 0.50895 0.63133 0.0
O399 O 0.3706 0.4815 0.61612 0.0
C400 C 0.47929 0.45642 0.62887 0.0
O401 O 0.45652 0.47664 0.61509 0.0
O402 O 0.37451 0.40325 0.65145 0.0
C403 C 0.27102 0.67377 0.45281 0.0
O404 O 0.24394 0.68884 0.43933 0.0
O405 O 0.31314 0.71314 0.40289 0.0
Zn406 Zn 0.30386 0.65561 0.41236 0.0
O407 O 0.25108 0.63132 0.40272 0.0
C408 C 0.36541 0.63149 0.38296 0.0
O409 O 0.34857 0.66128 0.37207 0.0
O410 O 0.30212 0.65647 0.44494 0.0
C411 C 0.24177 0.62072 0.38349 0.0
O412 O 0.26704 0.62825 0.36749 0.0
C413 C 0.29705 0.73337 0.38754 0.0
O414 O 0.26809 0.71704 0.37584 0.0
O415 O 0.35074 0.6217 0.40137 0.0
C416 C 0.4278 0.02085 0.26102 0.0
C417 C 0.42824 0.9817 0.27 0.0
C418 C 0.4254 0.02687 0.23847 0.0
C419 C 0.42386 0.99398 0.22398 0.0
H420 H 0.42883 0.04721 0.27148 0.0
H421 H 0.42505 0.05761 0.23237 0.0
S422 S 0.42428 0.88527 0.23911 0.0
N423 N 0.42694 0.90942 0.26261 0.0
N424 N 0.42274 0.92074 0.2202 0.0
C425 C 0.42451 0.95462 0.2327 0.0
C426 C 0.42658 0.94848 0.25571 0.0
C427 C 0.24884 0.15928 0.50751 0.0
C428 C 0.25736 0.19601 0.5181 0.0
C429 C 0.23805 0.1584 0.48542 0.0
C430 C 0.23622 0.19412 0.47301 0.0
H431 H 0.25001 0.13101 0.51641 0.0
H432 H 0.23187 0.12941 0.47792 0.0
S433 S 0.25599 0.29808 0.49304 0.0
N434 N 0.26302 0.26899 0.5146 0.0
N435 N 0.24356 0.26728 0.47296 0.0
C436 C 0.2448 0.23103 0.48339 0.0
C437 C 0.25512 0.232 0.50597 0.0
C438 C 0.04563 0.05236 0.76051 0.0
C439 C 0.05102 0.0213 0.7759 0.0
C440 C 0.04502 0.04407 0.73811 0.0
C441 C 0.05032 0.00446 0.73021 0.0
H442 H 0.04224 0.08345 0.76576 0.0
H443 H 0.0413 0.06914 0.72692 0.0
S444 S 0.06427 0.912 0.76376 0.0
N445 N 0.06061 0.94903 0.78167 0.0
N446 N 0.05975 0.93359 0.73961 0.0
C447 C 0.055 0.97297 0.74543 0.0
C448 C 0.05523 0.98135 0.76826 0.0
C449 C 0.25022 0.83003 0.97815 0.0
C450 C 0.25402 0.79462 0.96564 0.0
C451 C 0.24096 0.82818 0.00041 0.0
C452 C 0.23603 0.79084 0.01104 0.0
H453 H 0.25356 0.85945 0.97061 0.0
H454 H 0.23807 0.85624 0.00938 0.0
S455 S 0.244 0.68929 0.98572 0.0
N456 N 0.2526 0.7211 0.96551 0.0
N457 N 0.23607 0.71762 0.00746 0.0
C458 C 0.2404 0.75518 -0.0012 0.0
C459 C 0.24914 0.75708 0.97606 0.0
C460 C 0.57724 0.02467 0.75954 0.0
C461 C 0.56821 0.9865 0.76841 0.0
C462 C 0.57634 0.03135 0.73699 0.0
C463 C 0.56594 0.00025 0.7224 0.0
H464 H 0.58555 0.04962 0.77005 0.0
H465 H 0.58369 0.06124 0.73098 0.0
S466 S 0.53929 0.89473 0.73728 0.0
N467 N 0.54829 0.91714 0.76082 0.0
N468 N 0.5464 0.92968 0.71848 0.0
C469 C 0.55657 0.96195 0.73105 0.0
C470 C 0.55778 0.95507 0.75402 0.0
C471 C 0.77481 0.7634 0.48075 0.0
C472 C 0.75847 0.79812 0.47075 0.0
C473 C 0.78611 0.76353 0.5028 0.0
C474 C 0.78206 0.79856 0.51562 0.0
H475 H 0.77865 0.73574 0.47153 0.0
H476 H 0.79826 0.73598 0.50979 0.0
S477 S 0.74145 0.89777 0.49712 0.0
N478 N 0.7391 0.86863 0.47533 0.0
N479 N 0.76055 0.86908 0.5166 0.0
C480 C 0.76602 0.83363 0.50576 0.0
C481 C 0.75412 0.83334 0.48339 0.0
C482 C 0.93445 0.0326 0.24932 0.0
C483 C 0.93338 0.0019 0.26517 0.0
C484 C 0.93376 0.02338 0.22704 0.0
C485 C 0.93137 0.98314 0.21973 0.0
H486 H 0.9358 0.06407 0.25414 0.0
H487 H 0.9344 0.04814 0.21548 0.0
S488 S 0.92817 0.89146 0.25462 0.0
N489 N 0.9303 0.92946 0.27201 0.0
N490 N 0.92864 0.91221 0.23015 0.0
C491 C 0.93053 0.95208 0.2354 0.0
C492 C 0.93168 0.96144 0.25811 0.0
C493 C 0.7057 0.1821 0.98534 0.0
C494 C 0.74394 0.18265 0.97529 0.0
C495 C 0.70188 0.17884 0.00801 0.0
C496 C 0.73616 0.17628 0.0216 0.0
H497 H 0.67832 0.18307 0.97562 0.0
H498 H 0.67171 0.17757 0.01485 0.0
S499 S 0.84341 0.18013 0.00353 0.0
N500 N 0.8169 0.18299 0.98076 0.0
N501 N 0.80982 0.17706 0.02335 0.0
C502 C 0.77467 0.17842 0.01183 0.0
C503 C 0.77854 0.18151 0.9887 0.0
C504 C 0.962 0.46677 0.72044 0.0
C505 C 0.92958 0.49054 0.71276 0.0
C506 C 0.96356 0.4535 0.74211 0.0
C507 C 0.93259 0.46312 0.75695 0.0
H508 H 0.98662 0.45844 0.70968 0.0
H509 H 0.98929 0.43544 0.7472 0.0
S510 S 0.84064 0.52429 0.745 0.0
N511 N 0.86556 0.52304 0.72171 0.0
N512 N 0.86831 0.49796 0.76238 0.0
C513 C 0.89981 0.48672 0.74946 0.0
C514 C 0.89838 0.5005 0.72741 0.0
C515 C 0.71633 0.66694 0.01405 0.0
C516 C 0.75343 0.6775 0.02375 0.0
C517 C 0.71129 0.66761 0.99139 0.0
C518 C 0.74303 0.67924 0.97749 0.0
H519 H 0.69109 0.6571 0.02397 0.0
H520 H 0.6823 0.65857 0.98476 0.0
S521 S 0.84564 0.71208 -0.00522 0.0
N522 N 0.82203 0.70158 0.01779 0.0
N523 N 0.81258 0.70312 0.97519 0.0
C524 C 0.78001 0.69099 0.987 0.0
C525 C 0.78522 0.69002 0.01012 0.0
C526 C 0.56372 0.52903 0.24979 0.0
C527 C 0.57003 0.49833 0.26528 0.0
C528 C 0.56221 0.5203 0.22748 0.0
C529 C 0.56756 0.48059 0.21974 0.0
H530 H 0.5598 0.56013 0.25493 0.0
H531 H 0.55743 0.54508 0.21621 0.0
S532 S 0.58512 0.38916 0.25361 0.0
N533 N 0.58152 0.42648 0.27137 0.0
N534 N 0.57908 0.41013 0.22939 0.0
C535 C 0.57382 0.44952 0.23505 0.0
C536 C 0.5749 0.45836 0.25783 0.0
C537 C 0.76835 0.30972 0.50825 0.0
C538 C 0.72937 0.30258 0.51661 0.0
C539 C 0.7756 0.31018 0.48578 0.0
C540 C 0.74429 0.30302 0.47073 0.0
H541 H 0.79339 0.31624 0.5191 0.0
H542 H 0.806 0.3166 0.48019 0.0
S543 S 0.63721 0.27997 0.48425 0.0
N544 N 0.65937 0.2863 0.50814 0.0
N545 N 0.673 0.28671 0.46585 0.0
C546 C 0.70539 0.29444 0.47887 0.0
C547 C 0.69793 0.29436 0.50181 0.0
C548 C 0.01929 0.492 0.25686 0.0
C549 C 0.05506 0.48528 0.2688 0.0
C550 C 0.02057 0.50336 0.23487 0.0
C551 C 0.05765 0.5092 0.22409 0.0
H552 H 0.99001 0.48806 0.26449 0.0
H553 H 0.99222 0.50784 0.22629 0.0
S554 S 0.16005 0.49623 0.24814 0.0
N555 N 0.12871 0.48557 0.26826 0.0
N556 N 0.1311 0.50751 0.22703 0.0
C557 C 0.09368 0.50301 0.23589 0.0
C558 C 0.09239 0.49083 0.2582 0.0
C559 C 0.28154 0.3211 -0.00235 0.0
C560 C 0.2478 0.3179 0.01149 0.0
C561 C 0.27688 0.32558 0.97511 0.0
C562 C 0.23827 0.32735 0.96544 0.0
H563 H 0.31197 0.3203 0.00424 0.0
H564 H 0.30393 0.32819 0.96525 0.0
S565 S 0.13991 0.31975 -0.00561 0.0
N566 N 0.17426 0.31623 0.01386 0.0
N567 N 0.1655 0.32478 0.97146 0.0
C568 C 0.20417 0.32378 0.97904 0.0
C569 C 0.20893 0.31898 0.00205 0.0
C570 C 0.44848 0.53976 0.753 0.0
C571 C 0.44289 0.50881 0.76841 0.0
C572 C 0.44661 0.53181 0.7306 0.0
C573 C 0.43845 0.49271 0.72273 0.0
H574 H 0.45383 0.57055 0.75826 0.0
H575 H 0.45049 0.55683 0.7194 0.0
S576 S 0.42318 0.4006 0.75628 0.0
N577 N 0.43038 0.43708 0.77421 0.0
N578 N 0.42645 0.42229 0.73211 0.0
C579 C 0.43373 0.46125 0.73794 0.0
C580 C 0.43612 0.46925 0.76077 0.0
C581 C 0.2185 0.68991 0.50702 0.0
C582 C 0.24919 0.68207 0.52235 0.0
C583 C 0.22608 0.68742 0.48462 0.0
C584 C 0.2645 0.67648 0.47664 0.0
H585 H 0.18835 0.69824 0.51233 0.0
H586 H 0.20136 0.69376 0.47351 0.0
S587 S 0.35514 0.65216 0.51006 0.0
N588 N 0.31951 0.66263 0.52805 0.0
N589 N 0.33368 0.65761 0.48591 0.0
C590 C 0.2955 0.6684 0.4918 0.0
C591 C 0.28787 0.67135 0.51465 0.0
C592 C 0.33009 0.94374 0.10353 0.0
C593 C 0.33925 0.9524 0.12541 0.0
C594 C 0.30308 0.91286 0.09807 0.0
C595 C 0.28366 0.88996 0.1143 0.0
H596 H 0.34332 0.9614 0.0905 0.0
H597 H 0.29617 0.90808 0.08099 0.0
S598 S 0.29939 0.89854 0.17399 0.0
N599 N 0.3287 0.9338 0.16343 0.0
N600 N 0.27729 0.87622 0.15307 0.0
C601 C 0.29356 0.89731 0.13621 0.0
C602 C 0.32156 0.92838 0.14179 0.0
C603 C 0.31437 0.07679 0.3925 0.0
C604 C 0.29673 0.09801 0.37497 0.0
C605 C 0.34328 0.04648 0.38898 0.0
C606 C 0.35615 0.0365 0.36781 0.0
H607 H 0.30445 0.08221 0.40908 0.0
H608 H 0.35465 0.02989 0.40295 0.0
S609 S 0.32337 0.08699 0.31654 0.0
N610 N 0.29698 0.10967 0.33585 0.0
N611 N 0.35179 0.05314 0.32914 0.0
C612 C 0.34074 0.05937 0.35022 0.0
C613 C 0.31089 0.08995 0.35382 0.0
C614 C 0.16125 0.06496 0.64663 0.0
C615 C 0.13804 0.04632 0.63024 0.0
C616 C 0.19167 0.09272 0.6414 0.0
C617 C 0.19958 0.10336 0.61962 0.0
H618 H 0.15728 0.05665 0.66358 0.0
H619 H 0.20987 0.10502 0.65451 0.0
S620 S 0.14355 0.06679 0.57088 0.0
N621 N 0.12245 0.04294 0.59157 0.0
N622 N 0.17906 0.09559 0.58165 0.0
C623 C 0.17477 0.08681 0.60318 0.0
C624 C 0.14419 0.05812 0.60851 0.0
C625 C 0.13937 0.9492 0.88484 0.0
C626 C 0.13046 0.9649 0.86411 0.0
C627 C 0.16849 0.91869 0.88749 0.0
C628 C 0.1897 0.90279 0.86949 0.0
H629 H 0.12511 0.96173 0.89924 0.0
H630 H 0.17558 0.90881 0.9039 0.0
S631 S 0.17212 0.9287 0.81135 0.0
N632 N 0.14125 0.95875 0.82498 0.0
N633 N 0.19597 0.90156 0.82997 0.0
C634 C 0.17905 0.91637 0.84853 0.0
C635 C 0.14944 0.94739 0.84584 0.0
C636 C 0.66599 0.08812 0.88805 0.0
C637 C 0.69907 0.09465 0.87402 0.0
C638 C 0.63505 0.06102 0.88255 0.0
C639 C 0.63611 0.03936 0.86284 0.0
H640 H 0.66442 0.10323 0.9037 0.0
H641 H 0.61078 0.0562 0.89411 0.0
S642 S 0.71357 0.04893 0.81926 0.0
N643 N 0.72916 0.0796 0.83872 0.0
N644 N 0.67123 0.02884 0.8284 0.0
C645 C 0.66813 0.04688 0.84825 0.0
C646 C 0.69953 0.07447 0.85383 0.0
C647 C 0.65814 0.94901 0.60192 0.0
C648 C 0.63814 0.95052 0.6221 0.0
C649 C 0.68541 0.91796 0.59706 0.0
C650 C 0.69402 0.88704 0.61219 0.0
H651 H 0.65393 0.97282 0.58999 0.0
H652 H 0.70093 0.91916 0.58152 0.0
S653 S 0.64558 0.87393 0.6663 0.0
N654 N 0.62558 0.91599 0.65654 0.0
N655 N 0.67715 0.85763 0.64738 0.0
C656 C 0.67226 0.88661 0.63188 0.0
C657 C 0.64426 0.91833 0.63684 0.0
C658 C 0.82715 0.91026 0.38653 0.0
C659 C 0.802 0.8945 0.37005 0.0
C660 C 0.85739 0.9385 0.38172 0.0
C661 C 0.86372 0.9519 0.36024 0.0
H662 H 0.82233 0.90215 0.40344 0.0
H663 H 0.8747 0.95111 0.39508 0.0
S664 S 0.8107 0.91449 0.31073 0.0
N665 N 0.78861 0.89066 0.33113 0.0
N666 N 0.84571 0.94327 0.32197 0.0
C667 C 0.84063 0.93422 0.34343 0.0
C668 C 0.80968 0.90568 0.34836 0.0
C669 C 0.80054 0.05083 0.09535 0.0
C670 C 0.80032 0.08661 0.1078 0.0
C671 C 0.82721 0.01909 0.10006 0.0
C672 C 0.85462 0.02164 0.11754 0.0
H673 H 0.77928 0.04679 0.08207 0.0
H674 H 0.82511 0.99175 0.09041 0.0
S675 S 0.86918 0.11023 0.15391 0.0
N676 N 0.8321 0.12389 0.13739 0.0
N677 N 0.88224 0.06414 0.14632 0.0
C678 C 0.85613 0.05797 0.12951 0.0
C679 C 0.82902 0.09046 0.12462 0.0
C680 C 0.81464 0.38994 0.61996 0.0
C681 C 0.7904 0.39072 0.60113 0.0
C682 C 0.8406 0.42207 0.62492 0.0
C683 C 0.84332 0.45617 0.61121 0.0
H684 H 0.81232 0.36521 0.63146 0.0
H685 H 0.85731 0.42083 0.64011 0.0
S686 S 0.79131 0.46959 0.558 0.0
N687 N 0.77446 0.42597 0.56732 0.0
N688 N 0.82318 0.48632 0.57665 0.0
C689 C 0.82129 0.45599 0.59158 0.0
C690 C 0.79484 0.4233 0.58655 0.0
C691 C 0.82561 0.54947 0.84985 0.0
C692 C 0.85391 0.5344 0.86503 0.0
C693 C 0.796 0.5775 0.85592 0.0
C694 C 0.79346 0.59195 0.87741 0.0
H695 H 0.82535 0.53867 0.83318 0.0
H696 H 0.77428 0.58708 0.84371 0.0
S697 S 0.86298 0.56558 0.92296 0.0
N698 N 0.8795 0.53849 0.90218 0.0
N699 N 0.82386 0.5915 0.91363 0.0
C700 C 0.82284 0.57883 0.89256 0.0
C701 C 0.853 0.54998 0.88637 0.0
C702 C 0.66885 0.5931 0.12961 0.0
C703 C 0.69319 0.59445 0.11086 0.0
C704 C 0.6437 0.55992 0.13374 0.0
C705 C 0.64184 0.52693 0.11922 0.0
H706 H 0.67039 0.61703 0.14163 0.0
H707 H 0.62674 0.55958 0.14884 0.0
S708 S 0.69499 0.51886 0.06608 0.0
N709 N 0.71051 0.56216 0.07643 0.0
N710 N 0.66332 0.49994 0.08416 0.0
C711 C 0.66417 0.52915 0.09975 0.0
C712 C 0.68984 0.56285 0.09559 0.0
C713 C 0.67937 0.41305 0.38848 0.0
C714 C 0.70274 0.39509 0.37189 0.0
C715 C 0.64919 0.44151 0.38358 0.0
C716 C 0.64114 0.45289 0.36192 0.0
H717 H 0.68559 0.40648 0.40546 0.0
H718 H 0.63329 0.45584 0.39696 0.0
S719 S 0.68903 0.40932 0.31235 0.0
N720 N 0.71254 0.38704 0.33287 0.0
N721 N 0.65556 0.44002 0.32356 0.0
C722 C 0.66242 0.43302 0.3451 0.0
C723 C 0.6933 0.40428 0.35012 0.0
C724 C 0.16293 0.5583 0.35392 0.0
C725 C 0.14347 0.53749 0.37097 0.0
C726 C 0.1935 0.58645 0.35817 0.0
C727 C 0.2055 0.59534 0.37964 0.0
H728 H 0.15602 0.55139 0.33706 0.0
H729 H 0.20869 0.60036 0.34446 0.0
S730 S 0.15984 0.55337 0.43017 0.0
N731 N 0.13545 0.53059 0.41016 0.0
N732 N 0.19244 0.58398 0.41828 0.0
C733 C 0.18431 0.57679 0.3969 0.0
C734 C 0.15347 0.54773 0.39253 0.0
C735 C 0.20047 0.40258 0.13387 0.0
C736 C 0.2043 0.38698 0.11267 0.0
C737 C 0.1704 0.43086 0.13899 0.0
C738 C 0.14311 0.44504 0.12305 0.0
H739 H 0.22168 0.39395 0.14654 0.0
H740 H 0.16985 0.44297 0.15539 0.0
S741 S 0.13668 0.40976 0.06572 0.0
N742 N 0.17545 0.38469 0.07608 0.0
N743 N 0.11917 0.43822 0.08572 0.0
C744 C 0.14499 0.42793 0.10209 0.0
C745 C 0.17548 0.39879 0.0969 0.0
C746 C 0.35252 0.45247 0.88322 0.0
C747 C 0.3666 0.45923 0.86195 0.0
C748 C 0.32243 0.42378 0.88733 0.0
C749 C 0.30568 0.40043 0.87037 0.0
H750 H 0.36333 0.4708 0.89665 0.0
H751 H 0.31148 0.42067 0.90389 0.0
S752 S 0.33636 0.403 0.81219 0.0
N753 N 0.36457 0.43779 0.82403 0.0
N754 N 0.30824 0.38353 0.83177 0.0
C755 C 0.32141 0.40512 0.84924 0.0
C756 C 0.35178 0.43465 0.84502 0.0
C757 C 0.316 0.56037 0.64469 0.0
C758 C 0.33871 0.544 0.6274 0.0
C759 C 0.28657 0.59017 0.64096 0.0
C760 C 0.27929 0.60524 0.61987 0.0
H761 H 0.31969 0.54885 0.66111 0.0
H762 H 0.26876 0.60077 0.65464 0.0
S763 S 0.33411 0.57539 0.56941 0.0
N764 N 0.35424 0.54698 0.58874 0.0
N765 N 0.29962 0.60352 0.58166 0.0
C766 C 0.30348 0.59066 0.60262 0.0
C767 C 0.33297 0.55986 0.6064 0.0
C768 C 0.36343 0.15857 0.10563 0.0
C769 C 0.35679 0.14211 0.12646 0.0
C770 C 0.34155 0.1921 0.09824 0.0
C771 C 0.31205 0.21088 0.11135 0.0
H772 H 0.38611 0.14579 0.0949 0.0
H773 H 0.34857 0.20382 0.08219 0.0
S774 S 0.28127 0.1783 0.16686 0.0
N775 N 0.31719 0.14607 0.15985 0.0
N776 N 0.27606 0.20934 0.14596 0.0
C777 C 0.30416 0.19409 0.13202 0.0
C778 C 0.32653 0.15973 0.13957 0.0
C779 C 0.09337 0.07468 0.37948 0.0
C780 C 0.10166 0.11478 0.37331 0.0
C781 C 0.05932 0.05424 0.37131 0.0
C782 C 0.03199 0.07343 0.35699 0.0
H783 H 0.11364 0.05876 0.39043 0.0
H784 H 0.05423 0.02332 0.37641 0.0
S785 S 0.03947 0.17894 0.33648 0.0
N786 N 0.07937 0.17322 0.35238 0.0
N787 N 0.01554 0.13527 0.33724 0.0
C788 C 0.0398 0.11377 0.35095 0.0
C789 C 0.07458 0.1343 0.35904 0.0
C790 C 0.14542 0.83528 0.64852 0.0
C791 C 0.12401 0.85862 0.63315 0.0
C792 C 0.16736 0.80084 0.64217 0.0
C793 C 0.16892 0.7886 0.62019 0.0
H794 H 0.14423 0.84291 0.66568 0.0
H795 H 0.18215 0.78307 0.6547 0.0
S796 S 0.12249 0.8427 0.57323 0.0
N797 N 0.10881 0.86928 0.59476 0.0
N798 N 0.15014 0.80504 0.58279 0.0
C799 C 0.14928 0.81295 0.60454 0.0
C800 C 0.12678 0.84779 0.61103 0.0
C801 C 0.42612 0.88756 0.83271 0.0
C802 C 0.45548 0.90596 0.84599 0.0
C803 C 0.38989 0.87312 0.8414 0.0
C804 C 0.38125 0.87644 0.86378 0.0
H805 H 0.43146 0.88328 0.81544 0.0
H806 H 0.36883 0.85842 0.83043 0.0
S807 S 0.44658 0.92489 0.90548 0.0
N808 N 0.47249 0.92895 0.88257 0.0
N809 N 0.40404 0.90172 0.89895 0.0
C810 C 0.40941 0.89646 0.87718 0.0
C811 C 0.44658 0.91123 0.86827 0.0
C812 C 0.34416 0.7903 0.39543 0.0
C813 C 0.3153 0.77275 0.38145 0.0
C814 C 0.36576 0.82477 0.38933 0.0
C815 C 0.35955 0.8433 0.36895 0.0
H816 H 0.35095 0.77683 0.41112 0.0
H817 H 0.38816 0.83637 0.40059 0.0
S818 S 0.28519 0.81128 0.32692 0.0
N819 N 0.27993 0.77795 0.34674 0.0
N820 N 0.32054 0.84292 0.33523 0.0
C821 C 0.32961 0.82712 0.35511 0.0
C822 C 0.30747 0.79187 0.36138 0.0
C823 C 0.41344 0.11646 0.63376 0.0
C824 C 0.39362 0.10907 0.61386 0.0
C825 C 0.44899 0.09595 0.6394 0.0
C826 C 0.46649 0.06716 0.62536 0.0
H827 H 0.40186 0.13883 0.64506 0.0
H828 H 0.4633 0.10357 0.65475 0.0
S829 S 0.42498 0.03424 0.57196 0.0
N830 N 0.3929 0.06912 0.58052 0.0
N831 N 0.45993 0.03056 0.59112 0.0
C832 C 0.44634 0.05841 0.60568 0.0
C833 C 0.4099 0.07933 0.59993 0.0
C834 C 0.15382 0.19452 0.85214 0.0
C835 C 0.1718 0.15683 0.85664 0.0
C836 C 0.16985 0.23033 0.86056 0.0
C837 C 0.20469 0.23012 0.8738 0.0
H838 H 0.12615 0.19645 0.8427 0.0
H839 H 0.15395 0.25831 0.85713 0.0
S840 S 0.26649 0.14004 0.88815 0.0
N841 N 0.22878 0.12186 0.87349 0.0
N842 N 0.25895 0.18935 0.88932 0.0
C843 C 0.22451 0.19298 0.87734 0.0
C844 C 0.20806 0.15632 0.86877 0.0
C845 C 0.08204 0.89589 0.09779 0.0
C846 C 0.09562 0.86113 0.10889 0.0
C847 C 0.04707 0.91666 0.10444 0.0
C848 C 0.02435 0.90357 0.1225 0.0
H849 H 0.09849 0.90724 0.08381 0.0
H850 H 0.03779 0.94314 0.0953 0.0
S851 S 0.0464 0.81357 0.15692 0.0
N852 N 0.08309 0.81421 0.13872 0.0
N853 N 0.01778 0.85311 0.15122 0.0
C854 C 0.03767 0.86886 0.13379 0.0
C855 C 0.07314 0.84769 0.12698 0.0
C856 C 0.64917 0.76844 0.85588 0.0
C857 C 0.66908 0.76218 0.87591 0.0
C858 C 0.63447 0.80666 0.84996 0.0
C859 C 0.63892 0.84024 0.86383 0.0
H860 H 0.64406 0.7435 0.8448 0.0
H861 H 0.61864 0.80957 0.83455 0.0
S862 S 0.69161 0.84087 0.91738 0.0
N863 N 0.69459 0.7935 0.90911 0.0
N864 N 0.6669 0.86522 0.89799 0.0
C865 C 0.65995 0.83475 0.8836 0.0
C866 C 0.67505 0.7958 0.88962 0.0
C867 C 0.94753 0.94664 0.60876 0.0
C868 C 0.95748 0.94878 0.63103 0.0
C869 C 0.91235 0.92692 0.60171 0.0
C870 C 0.88558 0.90894 0.61668 0.0
H871 H 0.96787 0.95881 0.59658 0.0
H872 H 0.90666 0.92498 0.58434 0.0
S873 S 0.89576 0.91027 0.67704 0.0
N874 N 0.93628 0.93416 0.66813 0.0
N875 N 0.87011 0.89743 0.65502 0.0
C876 C 0.89422 0.91271 0.63909 0.0
C877 C 0.93017 0.93251 0.64622 0.0
C878 C 0.80863 0.20676 0.34973 0.0
C879 C 0.80129 0.21533 0.37183 0.0
C880 C 0.8282 0.17094 0.34345 0.0
C881 C 0.84086 0.14224 0.35903 0.0
H882 H 0.80093 0.22866 0.33725 0.0
H883 H 0.83456 0.1664 0.3263 0.0
S884 S 0.82319 0.14805 0.4188 0.0
N885 N 0.80434 0.19068 0.40911 0.0
N886 N 0.84063 0.12323 0.39743 0.0
C887 C 0.83138 0.14946 0.38109 0.0
C888 C 0.81175 0.18604 0.38745 0.0
C889 C 0.56968 0.06763 0.09818 0.0
C890 C 0.59902 0.07671 0.11412 0.0
C891 C 0.53187 0.05179 0.10396 0.0
C892 C 0.52182 0.04493 0.12591 0.0
H893 H 0.57554 0.07365 0.08112 0.0
H894 H 0.5098 0.04652 0.09121 0.0
S895 S 0.58897 0.05953 0.17376 0.0
N896 N 0.6163 0.07441 0.15275 0.0
N897 N 0.5451 0.04519 0.16351 0.0
C898 C 0.55136 0.05219 0.14193 0.0
C899 C 0.59 0.0679 0.13606 0.0
C900 C 0.67052 0.17515 0.60612 0.0
C901 C 0.66814 0.21639 0.6116 0.0
C902 C 0.65391 0.14536 0.61965 0.0
C903 C 0.63394 0.15554 0.63918 0.0
H904 H 0.68427 0.16572 0.59092 0.0
H905 H 0.65545 0.11421 0.61426 0.0
S906 S 0.62345 0.25873 0.66234 0.0
N907 N 0.64731 0.26554 0.63901 0.0
N908 N 0.61591 0.20956 0.66428 0.0
C909 C 0.63313 0.19645 0.64544 0.0
C910 C 0.65028 0.22683 0.63171 0.0
C911 C 0.55175 0.89248 0.35364 0.0
C912 C 0.53432 0.92071 0.36804 0.0
C913 C 0.58785 0.87242 0.35872 0.0
C914 C 0.60836 0.87962 0.37845 0.0
H915 H 0.53714 0.88518 0.33832 0.0
H916 H 0.59942 0.85068 0.34708 0.0
S917 S 0.57685 0.95211 0.42149 0.0
N918 N 0.54128 0.95597 0.40267 0.0
N919 N 0.60933 0.91822 0.41223 0.0
C920 C 0.59195 0.90852 0.39284 0.0
C921 C 0.55496 0.92905 0.38764 0.0
C922 C 0.82336 0.77668 0.13069 0.0
C923 C 0.79019 0.77787 0.11626 0.0
C924 C 0.83783 0.81174 0.14071 0.0
C925 C 0.81961 0.84956 0.13692 0.0
H926 H 0.83937 0.74863 0.13377 0.0
H927 H 0.86429 0.80925 0.15108 0.0
S928 S 0.72933 0.8689 0.10233 0.0
N929 N 0.73753 0.81983 0.09999 0.0
N930 N 0.76473 0.88582 0.11898 0.0
C931 C 0.78501 0.85102 0.12353 0.0
C932 C 0.77033 0.81519 0.11315 0.0
C933 C 0.97059 0.11976 0.88231 0.0
C934 C 0.96485 0.08332 0.87084 0.0
C935 C 0.93868 0.13875 0.89329 0.0
C936 C 0.89953 0.1222 0.89329 0.0
H937 H -0.00011 0.13443 0.88247 0.0
H938 H 0.94468 0.16721 0.90135 0.0
S939 S 0.86888 0.02548 0.86731 0.0
N940 N 0.91735 0.03004 0.86133 0.0
N941 N 0.8573 0.06568 0.88199 0.0
C942 C 0.89361 0.08492 0.88264 0.0
C943 C 0.92623 0.06548 0.87143 0.0
C944 C 0.80126 0.68271 0.61319 0.0
C945 C 0.8145 0.72288 0.61524 0.0
C946 C 0.82155 0.65099 0.62383 0.0
C947 C 0.85573 0.65822 0.63704 0.0
H948 H 0.77586 0.67547 0.60273 0.0
H949 H 0.81089 0.62044 0.62117 0.0
S950 S 0.89951 0.75884 0.64982 0.0
N951 N 0.86179 0.76865 0.63297 0.0
N952 N 0.89972 0.70929 0.65295 0.0
C953 C 0.86807 0.69855 0.64002 0.0
C954 C 0.84753 0.73078 0.62913 0.0
C955 C 0.5509 0.62917 0.89004 0.0
C956 C 0.58954 0.61166 0.89213 0.0
C957 C 0.52065 0.61081 0.87752 0.0
C958 C 0.52757 0.57397 0.86661 0.0
H959 H 0.54407 0.6579 0.89767 0.0
H960 H 0.49169 0.62607 0.87621 0.0
S961 S 0.62275 0.51404 0.86798 0.0
N962 N 0.63253 0.55414 0.88308 0.0
N963 N 0.57556 0.51958 0.8596 0.0
C964 C 0.56564 0.55533 0.86914 0.0
C965 C 0.59661 0.57417 0.88186 0.0
C966 C 0.63409 0.28288 0.14402 0.0
C967 C 0.64138 0.32395 0.13962 0.0
C968 C 0.65299 0.25228 0.13194 0.0
C969 C 0.67993 0.26139 0.11485 0.0
H970 H 0.61256 0.27411 0.15644 0.0
H971 H 0.64511 0.22123 0.13556 0.0
S972 S 0.71356 0.36406 0.09855 0.0
N973 N 0.68065 0.37206 0.11831 0.0
N974 N 0.71595 0.31452 0.09556 0.0
C975 C 0.68929 0.30227 0.11106 0.0
C976 C 0.67011 0.33352 0.12344 0.0
C977 C 0.91457 0.40282 0.39134 0.0
C978 C 0.89454 0.37858 0.37588 0.0
C979 C 0.94984 0.42416 0.38592 0.0
C980 C 0.96643 0.42218 0.36481 0.0
H981 H 0.90353 0.40463 0.40794 0.0
H982 H 0.96471 0.44149 0.39857 0.0
S983 S 0.92305 0.36656 0.31765 0.0
N984 N 0.89226 0.35638 0.33806 0.0
N985 N 0.95817 0.39642 0.32789 0.0
C986 C 0.94576 0.39931 0.34896 0.0
C987 C 0.90996 0.37754 0.35449 0.0
C988 C 0.81725 0.34022 0.87327 0.0
C989 C 0.83628 0.34555 0.85295 0.0
C990 C 0.80527 0.30189 0.88044 0.0
C991 C 0.81169 0.26722 0.86758 0.0
H992 H 0.81257 0.36566 0.8841 0.0
H993 H 0.79177 0.29941 0.89647 0.0
S994 S 0.85641 0.26526 0.81202 0.0
N995 N 0.8582 0.31324 0.81931 0.0
N996 N 0.83561 0.24123 0.83274 0.0
C997 C 0.82905 0.27233 0.84679 0.0
C998 C 0.84135 0.31143 0.8395 0.0
C999 C 0.95638 0.59122 0.14352 0.0
C1000 C 0.97242 0.56039 0.13027 0.0
C1001 C 0.92063 0.61144 0.13784 0.0
C1002 C 0.89982 0.60217 0.11847 0.0
H1003 H 0.97147 0.59981 0.1585 0.0
H1004 H 0.9096 0.63498 0.14859 0.0
S1005 S 0.92891 0.52373 0.07812 0.0
N1006 N 0.96448 0.52116 0.09701 0.0
N1007 N 0.8975 0.55969 0.08612 0.0
C1008 C 0.91542 0.57137 0.10504 0.0
C1009 C 0.95161 0.55029 0.11102 0.0
C1010 C 0.66194 0.65604 0.37952 0.0
C1011 C 0.65914 0.64485 0.35743 0.0
C1012 C 0.68182 0.69137 0.38589 0.0
C1013 C 0.70006 0.717 0.37048 0.0
H1014 H 0.64775 0.63795 0.39208 0.0
H1015 H 0.68215 0.69902 0.40306 0.0
S1016 S 0.70422 0.70003 0.31068 0.0
N1017 N 0.67844 0.66114 0.32016 0.0
N1018 N 0.71602 0.72762 0.33218 0.0
C1019 C 0.69908 0.7054 0.3484 0.0
C1020 C 0.67854 0.66938 0.34187 0.0
C1021 C 0.56436 0.41494 0.59393 0.0
C1022 C 0.59335 0.40285 0.6095 0.0
C1023 C 0.52831 0.43415 0.60021 0.0
C1024 C 0.51971 0.44153 0.62231 0.0
H1025 H 0.56914 0.40887 0.57677 0.0
H1026 H 0.50635 0.44176 0.58773 0.0
S1027 S 0.58676 0.41903 0.66937 0.0
N1028 N 0.61193 0.40224 0.64797 0.0
N1029 N 0.54412 0.43791 0.65965 0.0
C1030 C 0.54901 0.43101 0.63796 0.0
C1031 C 0.58584 0.41181 0.63159 0.0
C1032 C 0.13518 0.32829 0.38511 0.0
C1033 C 0.14085 0.34721 0.36481 0.0
C1034 C 0.15744 0.29402 0.39104 0.0
C1035 C 0.18643 0.27696 0.37695 0.0
H1036 H 0.11282 0.33956 0.39651 0.0
H1037 H 0.15114 0.28036 0.40673 0.0
S1038 S 0.21488 0.31633 0.32239 0.0
N1039 N 0.17919 0.34753 0.33093 0.0
N1040 N 0.22106 0.28286 0.34209 0.0
C1041 C 0.19357 0.29635 0.35688 0.0
C1042 C 0.17077 0.33146 0.35081 0.0
C1043 C 0.41632 0.36507 0.12846 0.0
C1044 C 0.39781 0.37273 0.1082 0.0
C1045 C 0.45213 0.38443 0.13454 0.0
C1046 C 0.47124 0.41229 0.12061 0.0
H1047 H 0.4034 0.34345 0.13973 0.0
H1048 H 0.4653 0.37675 0.15019 0.0
S1049 S 0.43396 0.44506 0.06623 0.0
N1050 N 0.40031 0.41164 0.07453 0.0
N1051 N 0.46785 0.44806 0.08596 0.0
C1052 C 0.45254 0.42117 0.10052 0.0
C1053 C 0.41582 0.40143 0.09432 0.0
C1054 C 0.30282 0.69232 0.88202 0.0
C1055 C 0.28945 0.71916 0.86576 0.0
C1056 C 0.32382 0.65693 0.87673 0.0
C1057 C 0.33284 0.64717 0.85494 0.0
H1058 H 0.29806 0.69929 0.8991 0.0
H1059 H 0.33442 0.63797 0.88997 0.0
S1060 S 0.30152 0.70577 0.80607 0.0
N1061 N 0.28412 0.73234 0.82685 0.0
N1062 N 0.32403 0.66582 0.81681 0.0
C1063 C 0.31796 0.67278 0.8384 0.0
C1064 C 0.29609 0.70874 0.84382 0.0
C1065 C 0.03394 0.59894 0.6355 0.0
C1066 C 0.012 0.58111 0.61834 0.0
C1067 C 0.07023 0.61938 0.63165 0.0
C1068 C 0.08641 0.62251 0.61053 0.0
H1069 H 0.02254 0.59809 0.65204 0.0
H1070 H 0.0855 0.63312 0.64541 0.0
S1071 S 0.04217 0.57897 0.56007 0.0
N1072 N 0.00999 0.56645 0.57949 0.0
N1073 N 0.07853 0.60461 0.57226 0.0
C1074 C 0.06551 0.60376 0.59327 0.0
C1075 C 0.02823 0.58319 0.59717 0.0
C1076 C 0.17237 0.66043 0.13946 0.0
C1077 C 0.15347 0.63455 0.12436 0.0
C1078 C 0.19288 0.69523 0.13254 0.0
C1079 C 0.19519 0.70536 0.1103 0.0
H1080 H 0.16994 0.65473 0.1568 0.0
H1081 H 0.2053 0.71525 0.1448 0.0
S1082 S 0.15675 0.64415 0.06404 0.0
N1083 N 0.14273 0.61897 0.08599 0.0
N1084 N 0.18111 0.68429 0.07309 0.0
C1085 C 0.1787 0.6784 0.09499 0.0
C1086 C 0.15787 0.64303 0.102 0.0
C1087 C 0.08657 0.43563 0.87572 0.0
C1088 C 0.10519 0.40439 0.86377 0.0
C1089 C 0.04989 0.45291 0.86879 0.0
C1090 C 0.03013 0.4389 0.84994 0.0
H1091 H 0.10034 0.44671 0.8906 0.0
H1092 H 0.0363 0.47648 0.87864 0.0
S1093 S 0.06672 0.35851 0.81255 0.0
N1094 N 0.10161 0.36104 0.83178 0.0
N1095 N 0.03251 0.39289 0.81904 0.0
C1096 C 0.04874 0.40812 0.83768 0.0
C1097 C 0.08633 0.39104 0.84451 0.0
C1098 C 0.31231 0.2939 0.63638 0.0
C1099 C 0.31225 0.27928 0.61484 0.0
C1100 C 0.33306 0.32939 0.64196 0.0
C1101 C 0.35455 0.3516 0.6262 0.0
H1102 H 0.29729 0.27719 0.64921 0.0
H1103 H 0.33311 0.33883 0.65887 0.0
S1104 S 0.3596 0.32893 0.56693 0.0
N1105 N 0.33251 0.29179 0.5773 0.0
N1106 N 0.37144 0.35823 0.58773 0.0
C1107 C 0.35323 0.33825 0.60442 0.0
C1108 C 0.3321 0.30219 0.59875 0.0
C1109 C 0.44632 0.55159 0.37269 0.0
C1110 C 0.4713 0.57016 0.35706 0.0
C1111 C 0.41224 0.57165 0.38116 0.0
C1112 C 0.40155 0.6107 0.37402 0.0
H1113 H 0.45344 0.5216 0.37868 0.0
H1114 H 0.394 0.55631 0.39325 0.0
S1115 S 0.4566 0.67238 0.3331 0.0
N1116 N 0.48264 0.62986 0.33466 0.0
N1117 N 0.41876 0.66718 0.35039 0.0
C1118 C 0.42607 0.62941 0.35825 0.0
C1119 C 0.46089 0.60925 0.34983 0.0
loop_
_geom_bond_atom_site_label_1
_geom_bond_atom_site_label_2
_geom_bond_distance
_geom_bond_site_symmetry_2
_ccdc_geom_bond_type
C0 O1 1.160 . S
C0 O7 1.185 . S
O1 C0 1.160 . S
O2 Zn3 1.899 . S
O2 C10 1.284 . S
Zn3 O2 1.899 . S
Zn3 O4 2.032 . S
Zn3 O7 2.086 . S
Zn3 O12 1.977 . S
O4 Zn3 2.032 . S
O4 C8 1.277 1_545 S
C5 O6 1.203 . S
C5 O12 1.267 . S
O6 C5 1.203 . S
O7 C0 1.185 . S
O7 Zn3 2.086 . S
C8 O4 1.277 1_565 S
C8 O9 1.204 1_565 S
O9 C8 1.204 1_545 S
C10 O2 1.284 . S
C10 O11 1.273 . S
O11 C10 1.273 . S
O12 Zn3 1.977 . S
O12 C5 1.267 . S
C13 O14 1.160 . S
C13 O20 1.185 . S
O14 C13 1.160 . S
O15 Zn16 1.899 . S
O15 C23 1.284 . S
Zn16 O15 1.899 . S
Zn16 O17 2.032 . S
Zn16 O20 2.086 . S
Zn16 O25 1.977 . S
O17 Zn16 2.032 . S
O17 C21 1.278 . S
C18 O19 1.203 . S
C18 O25 1.267 . S
O19 C18 1.203 . S
O20 C13 1.185 . S
O20 Zn16 2.086 . S
C21 O17 1.278 . S
C21 O22 1.211 . S
O22 C21 1.211 . S
C23 O15 1.284 . S
C23 O24 1.273 . S
O24 C23 1.273 . S
O25 Zn16 1.977 . S
O25 C18 1.267 . S
C26 O27 1.160 . S
C26 O33 1.185 . S
O27 C26 1.160 . S
O28 Zn29 1.899 . S
O28 C36 1.284 . S
Zn29 O28 1.899 . S
Zn29 O30 2.032 . S
Zn29 O33 2.086 . S
Zn29 O38 1.977 . S
O30 Zn29 2.032 . S
O30 C34 1.277 1_565 S
C31 O32 1.203 . S
C31 O38 1.267 . S
O32 C31 1.203 . S
O33 C26 1.185 . S
O33 Zn29 2.086 . S
C34 O30 1.277 1_545 S
C34 O35 1.204 1_545 S
O35 C34 1.204 1_565 S
C36 O28 1.284 . S
C36 O37 1.273 . S
O37 C36 1.273 . S
O38 Zn29 1.977 . S
O38 C31 1.267 . S
C39 O40 1.160 . S
C39 O46 1.185 . S
O40 C39 1.160 . S
O41 Zn42 1.899 . S
O41 C49 1.284 . S
Zn42 O41 1.899 . S
Zn42 O43 2.032 . S
Zn42 O46 2.086 . S
Zn42 O51 1.977 . S
O43 Zn42 2.032 . S
O43 C47 1.278 . S
C44 O45 1.203 . S
C44 O51 1.267 . S
O45 C44 1.203 . S
O46 C39 1.185 . S
O46 Zn42 2.086 . S
C47 O43 1.278 . S
C47 O48 1.211 . S
O48 C47 1.211 . S
C49 O41 1.284 . S
C49 O50 1.273 . S
O50 C49 1.273 . S
O51 Zn42 1.977 . S
O51 C44 1.267 . S
C52 O53 1.160 . S
C52 O59 1.185 . S
O53 C52 1.160 . S
O54 Zn55 1.899 . S
O54 C62 1.284 . S
Zn55 O54 1.899 . S
Zn55 O56 2.032 . S
Zn55 O59 2.086 . S
Zn55 O64 1.977 . S
O56 Zn55 2.032 . S
O56 C60 1.277 1_565 S
C57 O58 1.203 . S
C57 O64 1.267 . S
O58 C57 1.203 . S
O59 C52 1.185 . S
O59 Zn55 2.086 . S
C60 O56 1.277 1_545 S
C60 O61 1.204 1_545 S
O61 C60 1.204 1_565 S
C62 O54 1.284 . S
C62 O63 1.273 . S
O63 C62 1.273 . S
O64 Zn55 1.977 . S
O64 C57 1.267 . S
C65 O66 1.160 . S
C65 O72 1.185 . S
O66 C65 1.160 . S
O67 Zn68 1.899 . S
O67 C75 1.284 . S
Zn68 O67 1.899 . S
Zn68 O69 2.032 . S
Zn68 O72 2.086 . S
Zn68 O77 1.977 . S
O69 Zn68 2.032 . S
O69 C73 1.278 . S
C70 O71 1.203 . S
C70 O77 1.267 . S
O71 C70 1.203 . S
O72 C65 1.185 . S
O72 Zn68 2.086 . S
C73 O69 1.278 . S
C73 O74 1.211 . S
O74 C73 1.211 . S
C75 O67 1.284 . S
C75 O76 1.273 . S
O76 C75 1.273 . S
O77 Zn68 1.977 . S
O77 C70 1.267 . S
C78 O79 1.160 . S
C78 O85 1.185 . S
O79 C78 1.160 . S
O80 Zn81 1.899 . S
O80 C88 1.284 . S
Zn81 O80 1.899 . S
Zn81 O82 2.032 . S
Zn81 O85 2.086 . S
Zn81 O90 1.977 . S
O82 Zn81 2.032 . S
O82 C86 1.277 1_545 S
C83 O84 1.203 . S
C83 O90 1.267 . S
O84 C83 1.203 . S
O85 C78 1.185 . S
O85 Zn81 2.086 . S
C86 O82 1.277 1_565 S
C86 O87 1.204 1_565 S
O87 C86 1.204 1_545 S
C88 O80 1.284 . S
C88 O89 1.273 . S
O89 C88 1.273 . S
O90 Zn81 1.977 . S
O90 C83 1.267 . S
C91 O92 1.160 . S
C91 O98 1.185 . S
O92 C91 1.160 . S
O93 Zn94 1.899 . S
O93 C101 1.284 . S
Zn94 O93 1.899 . S
Zn94 O95 2.032 . S
Zn94 O98 2.086 . S
Zn94 O103 1.977 . S
O95 Zn94 2.032 . S
O95 C99 1.278 . S
C96 O97 1.203 . S
C96 O103 1.267 . S
O97 C96 1.203 . S
O98 C91 1.185 . S
O98 Zn94 2.086 . S
C99 O95 1.278 . S
C99 O100 1.211 . S
O100 C99 1.211 . S
C101 O93 1.284 . S
C101 O102 1.273 . S
O102 C101 1.273 . S
O103 Zn94 1.977 . S
O103 C96 1.267 . S
C104 O105 1.160 . S
C104 O111 1.185 . S
O105 C104 1.160 . S
O106 Zn107 1.899 . S
O106 C114 1.284 . S
Zn107 O106 1.899 . S
Zn107 O108 2.032 . S
Zn107 O111 2.086 . S
Zn107 O116 1.977 . S
O108 Zn107 2.032 . S
O108 C112 1.277 1_565 S
C109 O110 1.203 . S
C109 O116 1.267 . S
O110 C109 1.203 . S
O111 C104 1.185 . S
O111 Zn107 2.086 . S
C112 O108 1.277 1_545 S
C112 O113 1.204 1_545 S
O113 C112 1.204 1_565 S
C114 O106 1.284 . S
C114 O115 1.273 . S
O115 C114 1.273 . S
O116 Zn107 1.977 . S
O116 C109 1.267 . S
C117 O118 1.160 . S
C117 O124 1.185 . S
O118 C117 1.160 . S
O119 Zn120 1.899 . S
O119 C127 1.284 . S
Zn120 O119 1.899 . S
Zn120 O121 2.032 . S
Zn120 O124 2.086 . S
Zn120 O129 1.977 . S
O121 Zn120 2.032 . S
O121 C125 1.278 . S
C122 O123 1.203 . S
C122 O129 1.267 . S
O123 C122 1.203 . S
O124 C117 1.185 . S
O124 Zn120 2.086 . S
C125 O121 1.278 . S
C125 O126 1.211 . S
O126 C125 1.211 . S
C127 O119 1.284 . S
C127 O128 1.273 . S
O128 C127 1.273 . S
O129 Zn120 1.977 . S
O129 C122 1.267 . S
C130 O131 1.160 . S
C130 O137 1.185 . S
O131 C130 1.160 . S
O132 Zn133 1.899 . S
O132 C140 1.284 . S
Zn133 O132 1.899 . S
Zn133 O134 2.032 . S
Zn133 O137 2.086 . S
Zn133 O142 1.977 . S
O134 Zn133 2.032 . S
O134 C138 1.277 1_545 S
C135 O136 1.203 . S
C135 O142 1.267 . S
O136 C135 1.203 . S
O137 C130 1.185 . S
O137 Zn133 2.086 . S
C138 O134 1.277 1_565 S
C138 O139 1.204 1_565 S
O139 C138 1.204 1_545 S
C140 O132 1.284 . S
C140 O141 1.273 . S
O141 C140 1.273 . S
O142 Zn133 1.977 . S
O142 C135 1.267 . S
C143 O144 1.160 . S
C143 O150 1.185 . S
O144 C143 1.160 . S
O145 Zn146 1.899 . S
O145 C153 1.284 . S
Zn146 O145 1.899 . S
Zn146 O147 2.032 . S
Zn146 O150 2.086 . S
Zn146 O155 1.977 . S
O147 Zn146 2.032 . S
O147 C151 1.278 . S
C148 O149 1.203 . S
C148 O155 1.267 . S
O149 C148 1.203 . S
O150 C143 1.185 . S
O150 Zn146 2.086 . S
C151 O147 1.278 . S
C151 O152 1.211 . S
O152 C151 1.211 . S
C153 O145 1.284 . S
C153 O154 1.273 . S
O154 C153 1.273 . S
O155 Zn146 1.977 . S
O155 C148 1.267 . S
C156 O157 1.160 . S
C156 O163 1.185 . S
O157 C156 1.160 . S
O158 Zn159 1.899 . S
O158 C166 1.284 . S
Zn159 O158 1.899 . S
Zn159 O160 2.032 . S
Zn159 O163 2.086 . S
Zn159 O168 1.977 . S
O160 Zn159 2.032 . S
O160 C164 1.277 1_545 S
C161 O162 1.203 . S
C161 O168 1.267 . S
O162 C161 1.203 . S
O163 C156 1.185 . S
O163 Zn159 2.086 . S
C164 O160 1.277 1_565 S
C164 O165 1.204 1_565 S
O165 C164 1.204 1_545 S
C166 O158 1.284 . S
C166 O167 1.273 . S
O167 C166 1.273 . S
O168 Zn159 1.977 . S
O168 C161 1.267 . S
C169 O170 1.160 . S
C169 O176 1.185 . S
O170 C169 1.160 . S
O171 Zn172 1.899 . S
O171 C179 1.284 . S
Zn172 O171 1.899 . S
Zn172 O173 2.032 . S
Zn172 O176 2.086 . S
Zn172 O181 1.977 . S
O173 Zn172 2.032 . S
O173 C177 1.278 . S
C174 O175 1.203 . S
C174 O181 1.267 . S
O175 C174 1.203 . S
O176 C169 1.185 . S
O176 Zn172 2.086 . S
C177 O173 1.278 . S
C177 O178 1.211 . S
O178 C177 1.211 . S
C179 O171 1.284 . S
C179 O180 1.273 . S
O180 C179 1.273 . S
O181 Zn172 1.977 . S
O181 C174 1.267 . S
C182 O183 1.160 . S
C182 O189 1.185 . S
O183 C182 1.160 . S
O184 Zn185 1.899 . S
O184 C192 1.284 . S
Zn185 O184 1.899 . S
Zn185 O186 2.032 . S
Zn185 O189 2.086 . S
Zn185 O194 1.977 . S
O186 Zn185 2.032 . S
O186 C190 1.277 1_565 S
C187 O188 1.203 . S
C187 O194 1.267 . S
O188 C187 1.203 . S
O189 C182 1.185 . S
O189 Zn185 2.086 . S
C190 O186 1.277 1_545 S
C190 O191 1.204 1_545 S
O191 C190 1.204 1_565 S
C192 O184 1.284 . S
C192 O193 1.273 . S
O193 C192 1.273 . S
O194 Zn185 1.977 . S
O194 C187 1.267 . S
C195 O196 1.160 . S
C195 O202 1.185 . S
O196 C195 1.160 . S
O197 Zn198 1.899 . S
O197 C205 1.284 . S
Zn198 O197 1.899 . S
Zn198 O199 2.032 . S
Zn198 O202 2.086 . S
Zn198 O207 1.977 . S
O199 Zn198 2.032 . S
O199 C203 1.278 . S
C200 O201 1.203 . S
C200 O207 1.267 . S
O201 C200 1.203 . S
O202 C195 1.185 . S
O202 Zn198 2.086 . S
C203 O199 1.278 . S
C203 O204 1.211 . S
O204 C203 1.211 . S
C205 O197 1.284 . S
C205 O206 1.273 . S
O206 C205 1.273 . S
O207 Zn198 1.977 . S
O207 C200 1.267 . S
C208 O209 1.160 . S
C208 O215 1.185 . S
O209 C208 1.160 . S
O210 Zn211 1.899 . S
O210 C218 1.284 . S
Zn211 O210 1.899 . S
Zn211 O212 2.032 . S
Zn211 O215 2.086 . S
Zn211 O220 1.977 . S
O212 Zn211 2.032 . S
O212 C216 1.278 . S
C213 O214 1.203 . S
C213 O220 1.267 . S
O214 C213 1.203 . S
O215 C208 1.185 . S
O215 Zn211 2.086 . S
C216 O212 1.278 . S
C216 O217 1.211 . S
O217 C216 1.211 . S
C218 O210 1.284 . S
C218 O219 1.273 . S
O219 C218 1.273 . S
O220 Zn211 1.977 . S
O220 C213 1.267 . S
C221 O222 1.160 . S
C221 O228 1.185 . S
O222 C221 1.160 . S
O223 Zn224 1.899 . S
O223 C231 1.284 . S
Zn224 O223 1.899 . S
Zn224 O225 2.032 . S
Zn224 O228 2.086 . S
Zn224 O233 1.977 . S
O225 Zn224 2.032 . S
O225 C229 1.278 . S
C226 O227 1.203 . S
C226 O233 1.267 . S
O227 C226 1.203 . S
O228 C221 1.185 . S
O228 Zn224 2.086 . S
C229 O225 1.278 . S
C229 O230 1.211 . S
O230 C229 1.211 . S
C231 O223 1.284 . S
C231 O232 1.273 . S
O232 C231 1.273 . S
O233 Zn224 1.977 . S
O233 C226 1.267 . S
C234 O235 1.160 . S
C234 O241 1.185 . S
O235 C234 1.160 . S
O236 Zn237 1.899 . S
O236 C244 1.284 . S
Zn237 O236 1.899 . S
Zn237 O238 2.032 . S
Zn237 O241 2.086 . S
Zn237 O246 1.977 . S
O238 Zn237 2.032 . S
O238 C242 1.278 . S
C239 O240 1.203 . S
C239 O246 1.267 . S
O240 C239 1.203 . S
O241 C234 1.185 . S
O241 Zn237 2.086 . S
C242 O238 1.278 . S
C242 O243 1.211 . S
O243 C242 1.211 . S
C244 O236 1.284 . S
C244 O245 1.273 . S
O245 C244 1.273 . S
O246 Zn237 1.977 . S
O246 C239 1.267 . S
C247 O248 1.160 . S
C247 O254 1.185 . S
O248 C247 1.160 . S
O249 Zn250 1.899 . S
O249 C257 1.284 . S
Zn250 O249 1.899 . S
Zn250 O251 2.032 . S
Zn250 O254 2.086 . S
Zn250 O259 1.977 . S
O251 Zn250 2.032 . S
O251 C255 1.278 . S
C252 O253 1.203 . S
C252 O259 1.267 . S
O253 C252 1.203 . S
O254 C247 1.185 . S
O254 Zn250 2.086 . S
C255 O251 1.278 . S
C255 O256 1.211 . S
O256 C255 1.211 . S
C257 O249 1.284 . S
C257 O258 1.273 . S
O258 C257 1.273 . S
O259 Zn250 1.977 . S
O259 C252 1.267 . S
C260 O261 1.160 . S
C260 O267 1.185 . S
O261 C260 1.160 . S
O262 Zn263 1.899 . S
O262 C270 1.284 . S
Zn263 O262 1.899 . S
Zn263 O264 2.032 . S
Zn263 O267 2.086 . S
Zn263 O272 1.977 . S
O264 Zn263 2.032 . S
O264 C268 1.278 . S
C265 O266 1.203 . S
C265 O272 1.267 . S
O266 C265 1.203 . S
O267 C260 1.185 . S
O267 Zn263 2.086 . S
C268 O264 1.278 . S
C268 O269 1.211 . S
O269 C268 1.211 . S
C270 O262 1.284 . S
C270 O271 1.273 . S
O271 C270 1.273 . S
O272 Zn263 1.977 . S
O272 C265 1.267 . S
C273 O274 1.160 . S
C273 O280 1.185 . S
O274 C273 1.160 . S
O275 Zn276 1.899 . S
O275 C283 1.284 . S
Zn276 O275 1.899 . S
Zn276 O277 2.032 . S
Zn276 O280 2.086 . S
Zn276 O285 1.977 . S
O277 Zn276 2.032 . S
O277 C281 1.278 . S
C278 O279 1.203 . S
C278 O285 1.267 . S
O279 C278 1.203 . S
O280 C273 1.185 . S
O280 Zn276 2.086 . S
C281 O277 1.278 . S
C281 O282 1.211 . S
O282 C281 1.211 . S
C283 O275 1.284 . S
C283 O284 1.273 . S
O284 C283 1.273 . S
O285 Zn276 1.977 . S
O285 C278 1.267 . S
C286 O287 1.160 . S
C286 O293 1.185 . S
O287 C286 1.160 . S
O288 Zn289 1.899 . S
O288 C296 1.284 . S
Zn289 O288 1.899 . S
Zn289 O290 2.032 . S
Zn289 O293 2.086 . S
Zn289 O298 1.977 . S
O290 Zn289 2.032 . S
O290 C294 1.278 . S
C291 O292 1.203 . S
C291 O298 1.267 . S
O292 C291 1.203 . S
O293 C286 1.185 . S
O293 Zn289 2.086 . S
C294 O290 1.278 . S
C294 O295 1.211 . S
O295 C294 1.211 . S
C296 O288 1.284 . S
C296 O297 1.273 . S
O297 C296 1.273 . S
O298 Zn289 1.977 . S
O298 C291 1.267 . S
C299 O300 1.160 . S
C299 O306 1.185 . S
O300 C299 1.160 . S
O301 Zn302 1.899 . S
O301 C309 1.284 . S
Zn302 O301 1.899 . S
Zn302 O303 2.032 . S
Zn302 O306 2.086 . S
Zn302 O311 1.977 . S
O303 Zn302 2.032 . S
O303 C307 1.278 . S
C304 O305 1.203 . S
C304 O311 1.267 . S
O305 C304 1.203 . S
O306 C299 1.185 . S
O306 Zn302 2.086 . S
C307 O303 1.278 . S
C307 O308 1.211 . S
O308 C307 1.211 . S
C309 O301 1.284 . S
C309 O310 1.273 . S
O310 C309 1.273 . S
O311 Zn302 1.977 . S
O311 C304 1.267 . S
C312 O313 1.160 . S
C312 O319 1.185 . S
O313 C312 1.160 . S
O314 Zn315 1.899 . S
O314 C322 1.284 . S
Zn315 O314 1.899 . S
Zn315 O316 2.032 . S
Zn315 O319 2.086 . S
Zn315 O324 1.977 . S
O316 Zn315 2.032 . S
O316 C320 1.278 . S
C317 O318 1.203 . S
C317 O324 1.267 . S
O318 C317 1.203 . S
O319 C312 1.185 . S
O319 Zn315 2.086 . S
C320 O316 1.278 . S
C320 O321 1.211 . S
O321 C320 1.211 . S
C322 O314 1.284 . S
C322 O323 1.273 . S
O323 C322 1.273 . S
O324 Zn315 1.977 . S
O324 C317 1.267 . S
C325 O326 1.160 . S
C325 O332 1.185 . S
O326 C325 1.160 . S
O327 Zn328 1.899 . S
O327 C335 1.284 . S
Zn328 O327 1.899 . S
Zn328 O329 2.032 . S
Zn328 O332 2.086 . S
Zn328 O337 1.977 . S
O329 Zn328 2.032 . S
O329 C333 1.278 . S
C330 O331 1.203 . S
C330 O337 1.267 . S
O331 C330 1.203 . S
O332 C325 1.185 . S
O332 Zn328 2.086 . S
C333 O329 1.278 . S
C333 O334 1.211 . S
O334 C333 1.211 . S
C335 O327 1.284 . S
C335 O336 1.273 . S
O336 C335 1.273 . S
O337 Zn328 1.977 . S
O337 C330 1.267 . S
C338 O339 1.160 . S
C338 O345 1.185 . S
O339 C338 1.160 . S
O340 Zn341 1.899 . S
O340 C348 1.284 . S
Zn341 O340 1.899 . S
Zn341 O342 2.032 . S
Zn341 O345 2.086 . S
Zn341 O350 1.977 . S
O342 Zn341 2.032 . S
O342 C346 1.278 . S
C343 O344 1.203 . S
C343 O350 1.267 . S
O344 C343 1.203 . S
O345 C338 1.185 . S
O345 Zn341 2.086 . S
C346 O342 1.278 . S
C346 O347 1.211 . S
O347 C346 1.211 . S
C348 O340 1.284 . S
C348 O349 1.273 . S
O349 C348 1.273 . S
O350 Zn341 1.977 . S
O350 C343 1.267 . S
C351 O352 1.160 . S
C351 O358 1.185 . S
O352 C351 1.160 . S
O353 Zn354 1.899 . S
O353 C361 1.284 . S
Zn354 O353 1.899 . S
Zn354 O355 2.032 . S
Zn354 O358 2.086 . S
Zn354 O363 1.977 . S
O355 Zn354 2.032 . S
O355 C359 1.278 . S
C356 O357 1.203 . S
C356 O363 1.267 . S
O357 C356 1.203 . S
O358 C351 1.185 . S
O358 Zn354 2.086 . S
C359 O355 1.278 . S
C359 O360 1.211 . S
O360 C359 1.211 . S
C361 O353 1.284 . S
C361 O362 1.273 . S
O362 C361 1.273 . S
O363 Zn354 1.977 . S
O363 C356 1.267 . S
C364 O365 1.160 . S
C364 O371 1.185 . S
O365 C364 1.160 . S
O366 Zn367 1.899 . S
O366 C374 1.284 . S
Zn367 O366 1.899 . S
Zn367 O368 2.032 . S
Zn367 O371 2.086 . S
Zn367 O376 1.977 . S
O368 Zn367 2.032 . S
O368 C372 1.278 . S
C369 O370 1.203 . S
C369 O376 1.267 . S
O370 C369 1.203 . S
O371 C364 1.185 . S
O371 Zn367 2.086 . S
C372 O368 1.278 . S
C372 O373 1.211 . S
O373 C372 1.211 . S
C374 O366 1.284 . S
C374 O375 1.273 . S
O375 C374 1.273 . S
O376 Zn367 1.977 . S
O376 C369 1.267 . S
C377 O378 1.160 . S
C377 O384 1.185 . S
O378 C377 1.160 . S
O379 Zn380 1.899 . S
O379 C387 1.284 . S
Zn380 O379 1.899 . S
Zn380 O381 2.032 . S
Zn380 O384 2.086 . S
Zn380 O389 1.977 . S
O381 Zn380 2.032 . S
O381 C385 1.278 . S
C382 O383 1.203 . S
C382 O389 1.267 . S
O383 C382 1.203 . S
O384 C377 1.185 . S
O384 Zn380 2.086 . S
C385 O381 1.278 . S
C385 O386 1.211 . S
O386 C385 1.211 . S
C387 O379 1.284 . S
C387 O388 1.273 . S
O388 C387 1.273 . S
O389 Zn380 1.977 . S
O389 C382 1.267 . S
C390 O391 1.160 . S
C390 O397 1.185 . S
O391 C390 1.160 . S
O392 Zn393 1.899 . S
O392 C400 1.284 . S
Zn393 O392 1.899 . S
Zn393 O394 2.032 . S
Zn393 O397 2.086 . S
Zn393 O402 1.977 . S
O394 Zn393 2.032 . S
O394 C398 1.278 . S
C395 O396 1.203 . S
C395 O402 1.267 . S
O396 C395 1.203 . S
O397 C390 1.185 . S
O397 Zn393 2.086 . S
C398 O394 1.278 . S
C398 O399 1.211 . S
O399 C398 1.211 . S
C400 O392 1.284 . S
C400 O401 1.273 . S
O401 C400 1.273 . S
O402 Zn393 1.977 . S
O402 C395 1.267 . S
C403 O404 1.160 . S
C403 O410 1.185 . S
O404 C403 1.160 . S
O405 Zn406 1.899 . S
O405 C413 1.284 . S
Zn406 O405 1.899 . S
Zn406 O407 2.032 . S
Zn406 O410 2.086 . S
Zn406 O415 1.977 . S
O407 Zn406 2.032 . S
O407 C411 1.278 . S
C408 O409 1.203 . S
C408 O415 1.267 . S
O409 C408 1.203 . S
O410 C403 1.185 . S
O410 Zn406 2.086 . S
C411 O407 1.278 . S
C411 O412 1.211 . S
O412 C411 1.211 . S
C413 O405 1.284 . S
C413 O414 1.273 . S
O414 C413 1.273 . S
O415 Zn406 1.977 . S
O415 C408 1.267 . S
C416 C417 1.369 1_545 S
C416 C418 1.419 . S
C416 H420 0.930 . S
C417 C416 1.369 1_565 S
C417 C426 1.429 . S
C418 C416 1.419 . S
C418 C419 1.363 . S
C418 H421 0.929 . S
C419 C418 1.363 . S
C419 C425 1.428 1_545 S
H420 C416 0.930 . S
H421 C418 0.929 . S
S422 N423 1.613 . S
S422 N424 1.610 . S
N423 S422 1.613 . S
N423 C426 1.350 . S
N424 S422 1.610 . S
N424 C425 1.351 . S
C425 C419 1.428 1_565 S
C425 N424 1.351 . S
C425 C426 1.434 . S
C426 C417 1.429 . S
C426 N423 1.350 . S
C426 C425 1.434 . S
C427 C428 1.369 . S
C427 C429 1.419 . S
C427 H431 0.930 . S
C428 C427 1.369 . S
C428 C437 1.429 . S
C429 C427 1.419 . S
C429 C430 1.363 . S
C429 H432 0.929 . S
C430 C429 1.363 . S
C430 C436 1.428 . S
H431 C427 0.930 . S
H432 C429 0.929 . S
S433 N434 1.613 . S
S433 N435 1.610 . S
N434 S433 1.613 . S
N434 C437 1.350 . S
N435 S433 1.610 . S
N435 C436 1.351 . S
C436 C430 1.428 . S
C436 N435 1.351 . S
C436 C437 1.434 . S
C437 C428 1.429 . S
C437 N434 1.350 . S
C437 C436 1.434 . S
C438 C439 1.369 . S
C438 C440 1.419 . S
C438 H442 0.930 . S
C439 C438 1.369 . S
C439 C448 1.429 1_545 S
C440 C438 1.419 . S
C440 C441 1.363 1_545 S
C440 H443 0.929 . S
C441 C440 1.363 1_565 S
C441 C447 1.428 . S
H442 C438 0.930 . S
H443 C440 0.929 . S
S444 N445 1.613 . S
S444 N446 1.610 . S
N445 S444 1.613 . S
N445 C448 1.350 . S
N446 S444 1.610 . S
N446 C447 1.351 . S
C447 C441 1.428 . S
C447 N446 1.351 . S
C447 C448 1.434 . S
C448 C439 1.429 1_565 S
C448 N445 1.350 . S
C448 C447 1.434 . S
C449 C450 1.369 . S
C449 C451 1.419 1_556 S
C449 H453 0.930 . S
C450 C449 1.369 . S
C450 C459 1.429 . S
C451 C449 1.419 1_554 S
C451 C452 1.363 . S
C451 H454 0.929 . S
C452 C451 1.363 . S
C452 C458 1.428 . S
H453 C449 0.930 . S
H454 C451 0.929 . S
S455 N456 1.638 . S
S455 N457 1.586 1_556 S
N456 S455 1.638 . S
N456 C459 1.350 . S
N457 S455 1.586 1_554 S
N457 C458 1.351 . S
C458 C452 1.428 . S
C458 N457 1.351 . S
C458 C459 1.434 1_554 S
C459 C450 1.429 . S
C459 N456 1.350 . S
C459 C458 1.434 1_556 S
C460 C461 1.369 1_545 S
C460 C462 1.419 . S
C460 H464 0.930 . S
C461 C460 1.369 1_565 S
C461 C470 1.429 . S
C462 C460 1.419 . S
C462 C463 1.363 . S
C462 H465 0.929 . S
C463 C462 1.363 . S
C463 C469 1.428 1_545 S
H464 C460 0.930 . S
H465 C462 0.929 . S
S466 N467 1.613 . S
S466 N468 1.610 . S
N467 S466 1.613 . S
N467 C470 1.350 . S
N468 S466 1.610 . S
N468 C469 1.351 . S
C469 C463 1.428 1_565 S
C469 N468 1.351 . S
C469 C470 1.434 . S
C470 C461 1.429 . S
C470 N467 1.350 . S
C470 C469 1.434 . S
C471 C472 1.369 . S
C471 C473 1.419 . S
C471 H475 0.930 . S
C472 C471 1.369 . S
C472 C481 1.429 . S
C473 C471 1.419 . S
C473 C474 1.363 . S
C473 H476 0.929 . S
C474 C473 1.363 . S
C474 C480 1.428 . S
H475 C471 0.930 . S
H476 C473 0.929 . S
S477 N478 1.613 . S
S477 N479 1.610 . S
N478 S477 1.613 . S
N478 C481 1.350 . S
N479 S477 1.610 . S
N479 C480 1.351 . S
C480 C474 1.428 . S
C480 N479 1.351 . S
C480 C481 1.434 . S
C481 C472 1.429 . S
C481 N478 1.350 . S
C481 C480 1.434 . S
C482 C483 1.369 . S
C482 C484 1.419 . S
C482 H486 0.930 . S
C483 C482 1.369 . S
C483 C492 1.429 1_545 S
C484 C482 1.419 . S
C484 C485 1.363 1_545 S
C484 H487 0.929 . S
C485 C484 1.363 1_565 S
C485 C491 1.428 . S
H486 C482 0.930 . S
H487 C484 0.929 . S
S488 N489 1.613 . S
S488 N490 1.610 . S
N489 S488 1.613 . S
N489 C492 1.350 . S
N490 S488 1.610 . S
N490 C491 1.351 . S
C491 C485 1.428 . S
C491 N490 1.351 . S
C491 C492 1.434 . S
C492 C483 1.429 1_565 S
C492 N489 1.350 . S
C492 C491 1.434 . S
C493 C494 1.369 . S
C493 C495 1.419 1_556 S
C493 H497 0.930 . S
C494 C493 1.369 . S
C494 C503 1.429 . S
C495 C493 1.419 1_554 S
C495 C496 1.363 . S
C495 H498 0.929 . S
C496 C495 1.363 . S
C496 C502 1.428 . S
H497 C493 0.930 . S
H498 C495 0.929 . S
S499 N500 1.613 1_554 S
S499 N501 1.610 . S
N500 S499 1.613 1_556 S
N500 C503 1.350 . S
N501 S499 1.610 . S
N501 C502 1.351 . S
C502 C496 1.428 . S
C502 N501 1.351 . S
C502 C503 1.434 1_554 S
C503 C494 1.429 . S
C503 N500 1.350 . S
C503 C502 1.434 1_556 S
C504 C505 1.369 . S
C504 C506 1.419 . S
C504 H508 0.930 . S
C505 C504 1.369 . S
C505 C514 1.429 . S
C506 C504 1.419 . S
C506 C507 1.363 . S
C506 H509 0.929 . S
C507 C506 1.363 . S
C507 C513 1.428 . S
H508 C504 0.930 . S
H509 C506 0.929 . S
S510 N511 1.613 . S
S510 N512 1.610 . S
N511 S510 1.613 . S
N511 C514 1.350 . S
N512 S510 1.610 . S
N512 C513 1.351 . S
C513 C507 1.428 . S
C513 N512 1.351 . S
C513 C514 1.434 . S
C514 C505 1.429 . S
C514 N511 1.350 . S
C514 C513 1.434 . S
C515 C516 1.369 . S
C515 C517 1.419 1_554 S
C515 H519 0.930 . S
C516 C515 1.369 . S
C516 C525 1.429 . S
C517 C515 1.419 1_556 S
C517 C518 1.363 . S
C517 H520 0.929 . S
C518 C517 1.363 . S
C518 C524 1.428 . S
H519 C515 0.930 . S
H520 C517 0.929 . S
S521 N522 1.613 1_556 S
S521 N523 1.610 . S
N522 S521 1.613 1_554 S
N522 C525 1.350 . S
N523 S521 1.610 . S
N523 C524 1.351 . S
C524 C518 1.428 . S
C524 N523 1.351 . S
C524 C525 1.434 1_556 S
C525 C516 1.429 . S
C525 N522 1.350 . S
C525 C524 1.434 1_554 S
C526 C527 1.369 . S
C526 C528 1.419 . S
C526 H530 0.930 . S
C527 C526 1.369 . S
C527 C536 1.429 . S
C528 C526 1.419 . S
C528 C529 1.363 . S
C528 H531 0.929 . S
C529 C528 1.363 . S
C529 C535 1.428 . S
H530 C526 0.930 . S
H531 C528 0.929 . S
S532 N533 1.613 . S
S532 N534 1.610 . S
N533 S532 1.613 . S
N533 C536 1.350 . S
N534 S532 1.610 . S
N534 C535 1.351 . S
C535 C529 1.428 . S
C535 N534 1.351 . S
C535 C536 1.434 . S
C536 C527 1.429 . S
C536 N533 1.350 . S
C536 C535 1.434 . S
C537 C538 1.369 . S
C537 C539 1.419 . S
C537 H541 0.930 . S
C538 C537 1.369 . S
C538 C547 1.429 . S
C539 C537 1.419 . S
C539 C540 1.363 . S
C539 H542 0.929 . S
C540 C539 1.363 . S
C540 C546 1.428 . S
H541 C537 0.930 . S
H542 C539 0.929 . S
S543 N544 1.613 . S
S543 N545 1.610 . S
N544 S543 1.613 . S
N544 C547 1.350 . S
N545 S543 1.610 . S
N545 C546 1.351 . S
C546 C540 1.428 . S
C546 N545 1.351 . S
C546 C547 1.434 . S
C547 C538 1.429 . S
C547 N544 1.350 . S
C547 C546 1.434 . S
C548 C549 1.369 . S
C548 C550 1.419 . S
C548 H552 0.930 . S
C549 C548 1.369 . S
C549 C558 1.429 . S
C550 C548 1.419 . S
C550 C551 1.363 . S
C550 H553 0.929 . S
C551 C550 1.363 . S
C551 C557 1.428 . S
H552 C548 0.930 . S
H553 C550 0.929 . S
S554 N555 1.613 . S
S554 N556 1.610 . S
N555 S554 1.613 . S
N555 C558 1.350 . S
N556 S554 1.610 . S
N556 C557 1.351 . S
C557 C551 1.428 . S
C557 N556 1.351 . S
C557 C558 1.434 . S
C558 C549 1.429 . S
C558 N555 1.350 . S
C558 C557 1.434 . S
C559 C560 1.369 . S
C559 C561 1.419 1_554 S
C559 H563 0.930 . S
C560 C559 1.369 . S
C560 C569 1.429 . S
C561 C559 1.419 1_556 S
C561 C562 1.363 . S
C561 H564 0.929 . S
C562 C561 1.363 . S
C562 C568 1.428 . S
H563 C559 0.930 . S
H564 C561 0.929 . S
S565 N566 1.613 . S
S565 N567 1.610 1_554 S
N566 S565 1.613 . S
N566 C569 1.350 . S
N567 S565 1.610 1_556 S
N567 C568 1.351 . S
C568 C562 1.428 . S
C568 N567 1.351 . S
C568 C569 1.434 1_556 S
C569 C560 1.429 . S
C569 N566 1.350 . S
C569 C568 1.434 1_554 S
C570 C571 1.369 . S
C570 C572 1.419 . S
C570 H574 0.930 . S
C571 C570 1.369 . S
C571 C580 1.429 . S
C572 C570 1.419 . S
C572 C573 1.363 . S
C572 H575 0.929 . S
C573 C572 1.363 . S
C573 C579 1.428 . S
H574 C570 0.930 . S
H575 C572 0.929 . S
S576 N577 1.613 . S
S576 N578 1.610 . S
N577 S576 1.613 . S
N577 C580 1.350 . S
N578 S576 1.610 . S
N578 C579 1.351 . S
C579 C573 1.428 . S
C579 N578 1.351 . S
C579 C580 1.434 . S
C580 C571 1.429 . S
C580 N577 1.350 . S
C580 C579 1.434 . S
C581 C582 1.369 . S
C581 C583 1.419 . S
C581 H585 0.930 . S
C582 C581 1.369 . S
C582 C591 1.429 . S
C583 C581 1.419 . S
C583 C584 1.363 . S
C583 H586 0.929 . S
C584 C583 1.363 . S
C584 C590 1.428 . S
H585 C581 0.930 . S
H586 C583 0.929 . S
S587 N588 1.613 . S
S587 N589 1.610 . S
N588 S587 1.613 . S
N588 C591 1.350 . S
N589 S587 1.610 . S
N589 C590 1.351 . S
C590 C584 1.428 . S
C590 N589 1.351 . S
C590 C591 1.434 . S
C591 C582 1.429 . S
C591 N588 1.350 . S
C591 C590 1.434 . S
C592 C593 1.369 . S
C592 C594 1.419 . S
C592 H596 0.930 . S
C593 C592 1.369 . S
C593 C602 1.429 . S
C594 C592 1.419 . S
C594 C595 1.363 . S
C594 H597 0.929 . S
C595 C594 1.363 . S
C595 C601 1.428 . S
H596 C592 0.930 . S
H597 C594 0.929 . S
S598 N599 1.613 . S
S598 N600 1.610 . S
N599 S598 1.613 . S
N599 C602 1.350 . S
N600 S598 1.610 . S
N600 C601 1.351 . S
C601 C595 1.428 . S
C601 N600 1.351 . S
C601 C602 1.434 . S
C602 C593 1.429 . S
C602 N599 1.350 . S
C602 C601 1.434 . S
C603 C604 1.369 . S
C603 C605 1.419 . S
C603 H607 0.930 . S
C604 C603 1.369 . S
C604 C613 1.429 . S
C605 C603 1.419 . S
C605 C606 1.363 . S
C605 H608 0.929 . S
C606 C605 1.363 . S
C606 C612 1.428 . S
H607 C603 0.930 . S
H608 C605 0.929 . S
S609 N610 1.613 . S
S609 N611 1.610 . S
N610 S609 1.613 . S
N610 C613 1.350 . S
N611 S609 1.610 . S
N611 C612 1.351 . S
C612 C606 1.428 . S
C612 N611 1.351 . S
C612 C613 1.434 . S
C613 C604 1.429 . S
C613 N610 1.350 . S
C613 C612 1.434 . S
C614 C615 1.369 . S
C614 C616 1.419 . S
C614 H618 0.930 1_545 S
C615 C614 1.369 . S
C615 C624 1.429 . S
C616 C614 1.419 . S
C616 C617 1.363 . S
C616 H619 0.929 . S
C617 C616 1.363 . S
C617 C623 1.428 . S
H618 C614 0.930 1_565 S
H619 C616 0.929 . S
S620 N621 1.613 . S
S620 N622 1.610 . S
N621 S620 1.613 . S
N621 C624 1.350 . S
N622 S620 1.610 . S
N622 C623 1.351 . S
C623 C617 1.428 . S
C623 N622 1.351 . S
C623 C624 1.434 . S
C624 C615 1.429 . S
C624 N621 1.350 . S
C624 C623 1.434 . S
C625 C626 1.369 . S
C625 C627 1.419 . S
C625 H629 0.930 . S
C626 C625 1.369 . S
C626 C635 1.429 . S
C627 C625 1.419 . S
C627 C628 1.363 . S
C627 H630 0.929 . S
C628 C627 1.363 . S
C628 C634 1.428 . S
H629 C625 0.930 . S
H630 C627 0.929 . S
S631 N632 1.613 . S
S631 N633 1.610 1_545 S
N632 S631 1.613 . S
N632 C635 1.350 1_545 S
N633 S631 1.610 1_565 S
N633 C634 1.351 . S
C634 C628 1.428 . S
C634 N633 1.351 . S
C634 C635 1.434 . S
C635 C626 1.429 . S
C635 N632 1.350 1_565 S
C635 C634 1.434 . S
C636 C637 1.369 . S
C636 C638 1.419 . S
C636 H640 0.930 . S
C637 C636 1.369 . S
C637 C646 1.429 . S
C638 C636 1.419 . S
C638 C639 1.363 . S
C638 H641 0.929 . S
C639 C638 1.363 . S
C639 C645 1.428 . S
H640 C636 0.930 . S
H641 C638 0.929 . S
S642 N643 1.613 1_565 S
S642 N644 1.610 . S
N643 S642 1.613 1_545 S
N643 C646 1.350 . S
N644 S642 1.610 . S
N644 C645 1.351 1_565 S
C645 C639 1.428 . S
C645 N644 1.351 1_545 S
C645 C646 1.434 . S
C646 C637 1.429 . S
C646 N643 1.350 . S
C646 C645 1.434 . S
C647 C648 1.369 . S
C647 C649 1.419 . S
C647 H651 0.940 . S
C648 C647 1.369 . S
C648 C657 1.429 . S
C649 C647 1.419 . S
C649 C650 1.363 . S
C649 H652 0.929 . S
C650 C649 1.363 . S
C650 C656 1.428 . S
H651 C647 0.940 . S
H652 C649 0.929 . S
S653 N654 1.613 . S
S653 N655 1.610 . S
N654 S653 1.613 . S
N654 C657 1.350 . S
N655 S653 1.610 . S
N655 C656 1.351 . S
C656 C650 1.428 . S
C656 N655 1.351 . S
C656 C657 1.434 . S
C657 C648 1.429 . S
C657 N654 1.350 . S
C657 C656 1.434 . S
C658 C659 1.369 . S
C658 C660 1.419 . S
C658 H662 0.930 . S
C659 C658 1.369 . S
C659 C668 1.429 . S
C660 C658 1.419 . S
C660 C661 1.363 . S
C660 H663 0.929 . S
C661 C660 1.363 . S
C661 C667 1.428 . S
H662 C658 0.930 . S
H663 C660 0.929 . S
S664 N665 1.613 . S
S664 N666 1.610 . S
N665 S664 1.613 . S
N665 C668 1.350 . S
N666 S664 1.610 . S
N666 C667 1.351 . S
C667 C661 1.428 . S
C667 N666 1.351 . S
C667 C668 1.434 . S
C668 C659 1.429 . S
C668 N665 1.350 . S
C668 C667 1.434 . S
C669 C670 1.369 . S
C669 C671 1.419 . S
C669 H673 0.930 . S
C670 C669 1.369 . S
C670 C679 1.429 . S
C671 C669 1.419 . S
C671 C672 1.363 . S
C671 H674 0.929 . S
C672 C671 1.363 . S
C672 C678 1.428 . S
H673 C669 0.930 . S
H674 C671 0.929 . S
S675 N676 1.613 . S
S675 N677 1.610 . S
N676 S675 1.613 . S
N676 C679 1.350 . S
N677 S675 1.610 . S
N677 C678 1.351 . S
C678 C672 1.428 . S
C678 N677 1.351 . S
C678 C679 1.434 . S
C679 C670 1.429 . S
C679 N676 1.350 . S
C679 C678 1.434 . S
C680 C681 1.369 . S
C680 C682 1.419 . S
C680 H684 0.930 . S
C681 C680 1.369 . S
C681 C690 1.429 . S
C682 C680 1.419 . S
C682 C683 1.363 . S
C682 H685 0.929 . S
C683 C682 1.363 . S
C683 C689 1.428 . S
H684 C680 0.930 . S
H685 C682 0.929 . S
S686 N687 1.613 . S
S686 N688 1.610 . S
N687 S686 1.613 . S
N687 C690 1.350 . S
N688 S686 1.610 . S
N688 C689 1.351 . S
C689 C683 1.428 . S
C689 N688 1.351 . S
C689 C690 1.434 . S
C690 C681 1.429 . S
C690 N687 1.350 . S
C690 C689 1.434 . S
C691 C692 1.369 . S
C691 C693 1.419 . S
C691 H695 0.930 . S
C692 C691 1.369 . S
C692 C701 1.429 . S
C693 C691 1.419 . S
C693 C694 1.363 . S
C693 H696 0.929 . S
C694 C693 1.363 . S
C694 C700 1.428 . S
H695 C691 0.930 . S
H696 C693 0.929 . S
S697 N698 1.613 . S
S697 N699 1.610 . S
N698 S697 1.613 . S
N698 C701 1.350 . S
N699 S697 1.610 . S
N699 C700 1.351 . S
C700 C694 1.428 . S
C700 N699 1.351 . S
C700 C701 1.434 . S
C701 C692 1.429 . S
C701 N698 1.350 . S
C701 C700 1.434 . S
C702 C703 1.369 . S
C702 C704 1.419 . S
C702 H706 0.930 . S
C703 C702 1.369 . S
C703 C712 1.429 . S
C704 C702 1.419 . S
C704 C705 1.363 . S
C704 H707 0.929 . S
C705 C704 1.363 . S
C705 C711 1.428 . S
H706 C702 0.930 . S
H707 C704 0.929 . S
S708 N709 1.613 . S
S708 N710 1.610 . S
N709 S708 1.613 . S
N709 C712 1.350 . S
N710 S708 1.610 . S
N710 C711 1.351 . S
C711 C705 1.428 . S
C711 N710 1.351 . S
C711 C712 1.434 . S
C712 C703 1.429 . S
C712 N709 1.350 . S
C712 C711 1.434 . S
C713 C714 1.369 . S
C713 C715 1.419 . S
C713 H717 0.930 . S
C714 C713 1.369 . S
C714 C723 1.429 . S
C715 C713 1.419 . S
C715 C716 1.363 . S
C715 H718 0.929 . S
C716 C715 1.363 . S
C716 C722 1.428 . S
H717 C713 0.930 . S
H718 C715 0.929 . S
S719 N720 1.613 . S
S719 N721 1.610 . S
N720 S719 1.613 . S
N720 C723 1.350 . S
N721 S719 1.610 . S
N721 C722 1.351 . S
C722 C716 1.428 . S
C722 N721 1.351 . S
C722 C723 1.434 . S
C723 C714 1.429 . S
C723 N720 1.350 . S
C723 C722 1.434 . S
C724 C725 1.369 . S
C724 C726 1.419 . S
C724 H728 0.930 . S
C725 C724 1.369 . S
C725 C734 1.429 . S
C726 C724 1.419 . S
C726 C727 1.363 . S
C726 H729 0.929 . S
C727 C726 1.363 . S
C727 C733 1.428 . S
H728 C724 0.930 . S
H729 C726 0.929 . S
S730 N731 1.613 . S
S730 N732 1.610 . S
N731 S730 1.613 . S
N731 C734 1.350 . S
N732 S730 1.610 . S
N732 C733 1.351 . S
C733 C727 1.428 . S
C733 N732 1.351 . S
C733 C734 1.434 . S
C734 C725 1.429 . S
C734 N731 1.350 . S
C734 C733 1.434 . S
C735 C736 1.369 . S
C735 C737 1.419 . S
C735 H739 0.930 . S
C736 C735 1.369 . S
C736 C745 1.429 . S
C737 C735 1.419 . S
C737 C738 1.363 . S
C737 H740 0.929 . S
C738 C737 1.363 . S
C738 C744 1.428 . S
H739 C735 0.930 . S
H740 C737 0.929 . S
S741 N742 1.613 . S
S741 N743 1.610 . S
N742 S741 1.613 . S
N742 C745 1.350 . S
N743 S741 1.610 . S
N743 C744 1.351 . S
C744 C738 1.428 . S
C744 N743 1.351 . S
C744 C745 1.434 . S
C745 C736 1.429 . S
C745 N742 1.350 . S
C745 C744 1.434 . S
C746 C747 1.369 . S
C746 C748 1.419 . S
C746 H750 0.930 . S
C747 C746 1.369 . S
C747 C756 1.429 . S
C748 C746 1.419 . S
C748 C749 1.363 . S
C748 H751 0.929 . S
C749 C748 1.363 . S
C749 C755 1.428 . S
H750 C746 0.930 . S
H751 C748 0.929 . S
S752 N753 1.613 . S
S752 N754 1.610 . S
N753 S752 1.613 . S
N753 C756 1.350 . S
N754 S752 1.610 . S
N754 C755 1.351 . S
C755 C749 1.428 . S
C755 N754 1.351 . S
C755 C756 1.434 . S
C756 C747 1.429 . S
C756 N753 1.350 . S
C756 C755 1.434 . S
C757 C758 1.369 . S
C757 C759 1.419 . S
C757 H761 0.930 . S
C758 C757 1.369 . S
C758 C767 1.429 . S
C759 C757 1.419 . S
C759 C760 1.363 . S
C759 H762 0.929 . S
C760 C759 1.363 . S
C760 C766 1.428 . S
H761 C757 0.930 . S
H762 C759 0.929 . S
S763 N764 1.613 . S
S763 N765 1.610 . S
N764 S763 1.613 . S
N764 C767 1.350 . S
N765 S763 1.610 . S
N765 C766 1.351 . S
C766 C760 1.428 . S
C766 N765 1.351 . S
C766 C767 1.434 . S
C767 C758 1.429 . S
C767 N764 1.350 . S
C767 C766 1.434 . S
C768 C769 1.369 . S
C768 C770 1.419 . S
C768 H772 0.930 . S
C769 C768 1.369 . S
C769 C778 1.429 . S
C770 C768 1.419 . S
C770 C771 1.363 . S
C770 H773 0.929 . S
C771 C770 1.363 . S
C771 C777 1.428 . S
H772 C768 0.930 . S
H773 C770 0.929 . S
S774 N775 1.613 . S
S774 N776 1.610 . S
N775 S774 1.613 . S
N775 C778 1.350 . S
N776 S774 1.610 . S
N776 C777 1.351 . S
C777 C771 1.428 . S
C777 N776 1.351 . S
C777 C778 1.434 . S
C778 C769 1.429 . S
C778 N775 1.350 . S
C778 C777 1.434 . S
C779 C780 1.369 . S
C779 C781 1.419 . S
C779 H783 0.930 . S
C780 C779 1.369 . S
C780 C789 1.429 . S
C781 C779 1.419 . S
C781 C782 1.363 . S
C781 H784 0.929 . S
C782 C781 1.363 . S
C782 C788 1.428 . S
H783 C779 0.930 . S
H784 C781 0.929 . S
S785 N786 1.613 . S
S785 N787 1.610 1_455 S
N786 S785 1.613 . S
N786 C789 1.350 . S
N787 S785 1.610 1_655 S
N787 C788 1.351 1_655 S
C788 C782 1.428 . S
C788 N787 1.351 1_455 S
C788 C789 1.434 . S
C789 C780 1.429 . S
C789 N786 1.350 . S
C789 C788 1.434 . S
C790 C791 1.369 . S
C790 C792 1.419 . S
C790 H794 0.930 . S
C791 C790 1.369 . S
C791 C800 1.429 . S
C792 C790 1.419 . S
C792 C793 1.363 . S
C792 H795 0.929 . S
C793 C792 1.363 . S
C793 C799 1.428 . S
H794 C790 0.930 . S
H795 C792 0.929 . S
S796 N797 1.613 . S
S796 N798 1.610 . S
N797 S796 1.613 . S
N797 C800 1.350 . S
N798 S796 1.610 . S
N798 C799 1.351 . S
C799 C793 1.428 . S
C799 N798 1.351 . S
C799 C800 1.434 . S
C800 C791 1.429 . S
C800 N797 1.350 . S
C800 C799 1.434 . S
C801 C802 1.369 . S
C801 C803 1.419 . S
C801 H805 0.930 . S
C802 C801 1.369 . S
C802 C811 1.429 . S
C803 C801 1.419 . S
C803 C804 1.363 . S
C803 H806 0.929 . S
C804 C803 1.363 . S
C804 C810 1.428 . S
H805 C801 0.930 . S
H806 C803 0.929 . S
S807 N808 1.613 . S
S807 N809 1.610 . S
N808 S807 1.613 . S
N808 C811 1.350 . S
N809 S807 1.610 . S
N809 C810 1.351 . S
C810 C804 1.428 . S
C810 N809 1.351 . S
C810 C811 1.434 . S
C811 C802 1.429 . S
C811 N808 1.350 . S
C811 C810 1.434 . S
C812 C813 1.369 . S
C812 C814 1.419 . S
C812 H816 0.930 . S
C813 C812 1.369 . S
C813 C822 1.429 . S
C814 C812 1.419 . S
C814 C815 1.363 . S
C814 H817 0.929 . S
C815 C814 1.363 . S
C815 C821 1.428 . S
H816 C812 0.930 . S
H817 C814 0.929 . S
S818 N819 1.613 . S
S818 N820 1.610 . S
N819 S818 1.613 . S
N819 C822 1.350 . S
N820 S818 1.610 . S
N820 C821 1.351 . S
C821 C815 1.428 . S
C821 N820 1.351 . S
C821 C822 1.434 . S
C822 C813 1.429 . S
C822 N819 1.350 . S
C822 C821 1.434 . S
C823 C824 1.369 . S
C823 C825 1.419 . S
C823 H827 0.930 . S
C824 C823 1.369 . S
C824 C833 1.429 . S
C825 C823 1.419 . S
C825 C826 1.363 . S
C825 H828 0.929 . S
C826 C825 1.363 . S
C826 C832 1.428 . S
H827 C823 0.930 . S
H828 C825 0.929 . S
S829 N830 1.613 . S
S829 N831 1.610 . S
N830 S829 1.613 . S
N830 C833 1.350 . S
N831 S829 1.610 . S
N831 C832 1.351 . S
C832 C826 1.428 . S
C832 N831 1.351 . S
C832 C833 1.434 . S
C833 C824 1.429 . S
C833 N830 1.350 . S
C833 C832 1.434 . S
C834 C835 1.369 . S
C834 C836 1.419 . S
C834 H838 0.930 . S
C835 C834 1.369 . S
C835 C844 1.429 . S
C836 C834 1.419 . S
C836 C837 1.363 . S
C836 H839 0.929 . S
C837 C836 1.363 . S
C837 C843 1.428 . S
H838 C834 0.930 . S
H839 C836 0.929 . S
S840 N841 1.613 . S
S840 N842 1.610 . S
N841 S840 1.613 . S
N841 C844 1.350 . S
N842 S840 1.610 . S
N842 C843 1.351 . S
C843 C837 1.428 . S
C843 N842 1.351 . S
C843 C844 1.434 . S
C844 C835 1.429 . S
C844 N841 1.350 . S
C844 C843 1.434 . S
C845 C846 1.369 . S
C845 C847 1.419 . S
C845 H849 0.930 . S
C846 C845 1.369 . S
C846 C855 1.429 . S
C847 C845 1.419 . S
C847 C848 1.363 . S
C847 H850 0.929 . S
C848 C847 1.363 . S
C848 C854 1.428 . S
H849 C845 0.930 . S
H850 C847 0.929 . S
S851 N852 1.606 1_655 S
S851 N853 1.613 . S
N852 S851 1.606 1_455 S
N852 C855 1.350 . S
N853 S851 1.613 . S
N853 C854 1.351 1_655 S
C854 C848 1.428 . S
C854 N853 1.351 1_455 S
C854 C855 1.434 . S
C855 C846 1.429 . S
C855 N852 1.350 . S
C855 C854 1.434 . S
C856 C857 1.369 . S
C856 C858 1.419 . S
C856 H860 0.930 . S
C857 C856 1.369 . S
C857 C866 1.429 . S
C858 C856 1.419 . S
C858 C859 1.363 . S
C858 H861 0.929 . S
C859 C858 1.363 . S
C859 C865 1.428 . S
H860 C856 0.930 . S
H861 C858 0.929 . S
S862 N863 1.613 . S
S862 N864 1.610 . S
N863 S862 1.613 . S
N863 C866 1.350 . S
N864 S862 1.610 . S
N864 C865 1.351 . S
C865 C859 1.428 . S
C865 N864 1.351 . S
C865 C866 1.434 . S
C866 C857 1.429 . S
C866 N863 1.350 . S
C866 C865 1.434 . S
C867 C868 1.369 . S
C867 C869 1.419 . S
C867 H871 0.930 1_655 S
C868 C867 1.369 . S
C868 C877 1.429 . S
C869 C867 1.419 . S
C869 C870 1.363 . S
C869 H872 0.929 . S
C870 C869 1.363 . S
C870 C876 1.428 . S
H871 C867 0.930 1_455 S
H872 C869 0.929 . S
S873 N874 1.613 . S
S873 N875 1.610 . S
N874 S873 1.613 . S
N874 C877 1.350 . S
N875 S873 1.610 . S
N875 C876 1.351 . S
C876 C870 1.428 . S
C876 N875 1.351 . S
C876 C877 1.434 . S
C877 C868 1.429 . S
C877 N874 1.350 . S
C877 C876 1.434 . S
C878 C879 1.369 . S
C878 C880 1.419 . S
C878 H882 0.930 . S
C879 C878 1.369 . S
C879 C888 1.429 . S
C880 C878 1.419 . S
C880 C881 1.363 . S
C880 H883 0.929 . S
C881 C880 1.363 . S
C881 C887 1.428 . S
H882 C878 0.930 . S
H883 C880 0.929 . S
S884 N885 1.613 . S
S884 N886 1.610 . S
N885 S884 1.613 . S
N885 C888 1.350 . S
N886 S884 1.610 . S
N886 C887 1.351 . S
C887 C881 1.428 . S
C887 N886 1.351 . S
C887 C888 1.434 . S
C888 C879 1.429 . S
C888 N885 1.350 . S
C888 C887 1.434 . S
C889 C890 1.369 . S
C889 C891 1.419 . S
C889 H893 0.930 . S
C890 C889 1.369 . S
C890 C899 1.429 . S
C891 C889 1.419 . S
C891 C892 1.363 . S
C891 H894 0.929 . S
C892 C891 1.363 . S
C892 C898 1.428 . S
H893 C889 0.930 . S
H894 C891 0.929 . S
S895 N896 1.613 . S
S895 N897 1.610 . S
N896 S895 1.613 . S
N896 C899 1.350 . S
N897 S895 1.610 . S
N897 C898 1.351 . S
C898 C892 1.428 . S
C898 N897 1.351 . S
C898 C899 1.434 . S
C899 C890 1.429 . S
C899 N896 1.350 . S
C899 C898 1.434 . S
C900 C901 1.369 . S
C900 C902 1.419 . S
C900 H904 0.930 . S
C901 C900 1.369 . S
C901 C910 1.429 . S
C902 C900 1.419 . S
C902 C903 1.363 . S
C902 H905 0.929 . S
C903 C902 1.363 . S
C903 C909 1.428 . S
H904 C900 0.930 . S
H905 C902 0.929 . S
S906 N907 1.613 . S
S906 N908 1.610 . S
N907 S906 1.613 . S
N907 C910 1.350 . S
N908 S906 1.610 . S
N908 C909 1.351 . S
C909 C903 1.428 . S
C909 N908 1.351 . S
C909 C910 1.434 . S
C910 C901 1.429 . S
C910 N907 1.350 . S
C910 C909 1.434 . S
C911 C912 1.369 . S
C911 C913 1.419 . S
C911 H915 0.930 . S
C912 C911 1.369 . S
C912 C921 1.429 . S
C913 C911 1.419 . S
C913 C914 1.363 . S
C913 H916 0.929 . S
C914 C913 1.363 . S
C914 C920 1.428 . S
H915 C911 0.930 . S
H916 C913 0.929 . S
S917 N918 1.613 . S
S917 N919 1.610 . S
N918 S917 1.613 . S
N918 C921 1.350 . S
N919 S917 1.610 . S
N919 C920 1.351 . S
C920 C914 1.428 . S
C920 N919 1.351 . S
C920 C921 1.434 . S
C921 C912 1.429 . S
C921 N918 1.350 . S
C921 C920 1.434 . S
C922 C923 1.369 . S
C922 C924 1.419 . S
C922 H926 0.930 . S
C923 C922 1.369 . S
C923 C932 1.429 . S
C924 C922 1.419 . S
C924 C925 1.363 . S
C924 H927 0.929 . S
C925 C924 1.363 . S
C925 C931 1.428 . S
H926 C922 0.930 . S
H927 C924 0.929 . S
S928 N929 1.613 . S
S928 N930 1.610 . S
N929 S928 1.613 . S
N929 C932 1.350 . S
N930 S928 1.610 . S
N930 C931 1.351 . S
C931 C925 1.428 . S
C931 N930 1.351 . S
C931 C932 1.434 . S
C932 C923 1.429 . S
C932 N929 1.350 . S
C932 C931 1.434 . S
C933 C934 1.369 . S
C933 C935 1.419 . S
C933 H937 0.930 1_655 S
C934 C933 1.369 . S
C934 C943 1.429 . S
C935 C933 1.419 . S
C935 C936 1.363 . S
C935 H938 0.929 . S
C936 C935 1.363 . S
C936 C942 1.428 . S
H937 C933 0.930 1_455 S
H938 C935 0.929 . S
S939 N940 1.613 1_565 S
S939 N941 1.610 1_565 S
N940 S939 1.613 1_545 S
N940 C943 1.350 . S
N941 S939 1.610 1_545 S
N941 C942 1.351 . S
C942 C936 1.428 . S
C942 N941 1.351 . S
C942 C943 1.434 . S
C943 C934 1.429 . S
C943 N940 1.350 . S
C943 C942 1.434 . S
C944 C945 1.369 . S
C944 C946 1.419 . S
C944 H948 0.930 . S
C945 C944 1.369 . S
C945 C954 1.429 . S
C946 C944 1.419 . S
C946 C947 1.363 . S
C946 H949 0.929 . S
C947 C946 1.363 . S
C947 C953 1.428 . S
H948 C944 0.930 . S
H949 C946 0.929 . S
S950 N951 1.613 . S
S950 N952 1.610 . S
N951 S950 1.613 . S
N951 C954 1.350 . S
N952 S950 1.610 . S
N952 C953 1.351 . S
C953 C947 1.428 . S
C953 N952 1.351 . S
C953 C954 1.434 . S
C954 C945 1.429 . S
C954 N951 1.350 . S
C954 C953 1.434 . S
C955 C956 1.369 . S
C955 C957 1.419 . S
C955 H959 0.930 . S
C956 C955 1.369 . S
C956 C965 1.429 . S
C957 C955 1.419 . S
C957 C958 1.363 . S
C957 H960 0.929 . S
C958 C957 1.363 . S
C958 C964 1.428 . S
H959 C955 0.930 . S
H960 C957 0.929 . S
S961 N962 1.613 . S
S961 N963 1.610 . S
N962 S961 1.613 . S
N962 C965 1.350 . S
N963 S961 1.610 . S
N963 C964 1.351 . S
C964 C958 1.428 . S
C964 N963 1.351 . S
C964 C965 1.434 . S
C965 C956 1.429 . S
C965 N962 1.350 . S
C965 C964 1.434 . S
C966 C967 1.369 . S
C966 C968 1.419 . S
C966 H970 0.930 . S
C967 C966 1.369 . S
C967 C976 1.429 . S
C968 C966 1.419 . S
C968 C969 1.363 . S
C968 H971 0.929 . S
C969 C968 1.363 . S
C969 C975 1.428 . S
H970 C966 0.930 . S
H971 C968 0.929 . S
S972 N973 1.613 . S
S972 N974 1.610 . S
N973 S972 1.613 . S
N973 C976 1.350 . S
N974 S972 1.610 . S
N974 C975 1.351 . S
C975 C969 1.428 . S
C975 N974 1.351 . S
C975 C976 1.434 . S
C976 C967 1.429 . S
C976 N973 1.350 . S
C976 C975 1.434 . S
C977 C978 1.369 . S
C977 C979 1.419 . S
C977 H981 0.930 . S
C978 C977 1.369 . S
C978 C987 1.429 . S
C979 C977 1.419 . S
C979 C980 1.363 . S
C979 H982 0.929 1_655 S
C980 C979 1.363 . S
C980 C986 1.428 . S
H981 C977 0.930 . S
H982 C979 0.929 1_455 S
S983 N984 1.613 . S
S983 N985 1.610 . S
N984 S983 1.613 . S
N984 C987 1.350 . S
N985 S983 1.610 . S
N985 C986 1.351 . S
C986 C980 1.428 . S
C986 N985 1.351 . S
C986 C987 1.434 . S
C987 C978 1.429 . S
C987 N984 1.350 . S
C987 C986 1.434 . S
C988 C989 1.369 . S
C988 C990 1.419 . S
C988 H992 0.930 . S
C989 C988 1.369 . S
C989 C998 1.429 . S
C990 C988 1.419 . S
C990 C991 1.363 . S
C990 H993 0.929 . S
C991 C990 1.363 . S
C991 C997 1.428 . S
H992 C988 0.930 . S
H993 C990 0.929 . S
S994 N995 1.613 . S
S994 N996 1.610 . S
N995 S994 1.613 . S
N995 C998 1.350 . S
N996 S994 1.610 . S
N996 C997 1.351 . S
C997 C991 1.428 . S
C997 N996 1.351 . S
C997 C998 1.434 . S
C998 C989 1.429 . S
C998 N995 1.350 . S
C998 C997 1.434 . S
C999 C1000 1.369 . S
C999 C1001 1.419 . S
C999 H1003 0.930 . S
C1000 C999 1.369 . S
C1000 C1009 1.429 . S
C1001 C999 1.419 . S
C1001 C1002 1.363 . S
C1001 H1004 0.929 . S
C1002 C1001 1.363 . S
C1002 C1008 1.428 . S
H1003 C999 0.930 . S
H1004 C1001 0.929 . S
S1005 N1006 1.613 . S
S1005 N1007 1.610 . S
N1006 S1005 1.613 . S
N1006 C1009 1.350 . S
N1007 S1005 1.610 . S
N1007 C1008 1.351 . S
C1008 C1002 1.428 . S
C1008 N1007 1.351 . S
C1008 C1009 1.434 . S
C1009 C1000 1.429 . S
C1009 N1006 1.350 . S
C1009 C1008 1.434 . S
C1010 C1011 1.369 . S
C1010 C1012 1.419 . S
C1010 H1014 0.930 . S
C1011 C1010 1.369 . S
C1011 C1020 1.429 . S
C1012 C1010 1.419 . S
C1012 C1013 1.363 . S
C1012 H1015 0.929 . S
C1013 C1012 1.363 . S
C1013 C1019 1.428 . S
H1014 C1010 0.930 . S
H1015 C1012 0.929 . S
S1016 N1017 1.613 . S
S1016 N1018 1.610 . S
N1017 S1016 1.613 . S
N1017 C1020 1.350 . S
N1018 S1016 1.610 . S
N1018 C1019 1.351 . S
C1019 C1013 1.428 . S
C1019 N1018 1.351 . S
C1019 C1020 1.434 . S
C1020 C1011 1.429 . S
C1020 N1017 1.350 . S
C1020 C1019 1.434 . S
C1021 C1022 1.369 . S
C1021 C1023 1.419 . S
C1021 H1025 0.930 . S
C1022 C1021 1.369 . S
C1022 C1031 1.429 . S
C1023 C1021 1.419 . S
C1023 C1024 1.363 . S
C1023 H1026 0.929 . S
C1024 C1023 1.363 . S
C1024 C1030 1.428 . S
H1025 C1021 0.930 . S
H1026 C1023 0.929 . S
S1027 N1028 1.613 . S
S1027 N1029 1.610 . S
N1028 S1027 1.613 . S
N1028 C1031 1.350 . S
N1029 S1027 1.610 . S
N1029 C1030 1.351 . S
C1030 C1024 1.428 . S
C1030 N1029 1.351 . S
C1030 C1031 1.434 . S
C1031 C1022 1.429 . S
C1031 N1028 1.350 . S
C1031 C1030 1.434 . S
C1032 C1033 1.369 . S
C1032 C1034 1.419 . S
C1032 H1036 0.930 . S
C1033 C1032 1.369 . S
C1033 C1042 1.429 . S
C1034 C1032 1.419 . S
C1034 C1035 1.363 . S
C1034 H1037 0.929 . S
C1035 C1034 1.363 . S
C1035 C1041 1.428 . S
H1036 C1032 0.930 . S
H1037 C1034 0.929 . S
S1038 N1039 1.613 . S
S1038 N1040 1.610 . S
N1039 S1038 1.613 . S
N1039 C1042 1.350 . S
N1040 S1038 1.610 . S
N1040 C1041 1.351 . S
C1041 C1035 1.428 . S
C1041 N1040 1.351 . S
C1041 C1042 1.434 . S
C1042 C1033 1.429 . S
C1042 N1039 1.350 . S
C1042 C1041 1.434 . S
C1043 C1044 1.369 . S
C1043 C1045 1.419 . S
C1043 H1047 0.930 . S
C1044 C1043 1.369 . S
C1044 C1053 1.429 . S
C1045 C1043 1.419 . S
C1045 C1046 1.363 . S
C1045 H1048 0.929 . S
C1046 C1045 1.363 . S
C1046 C1052 1.428 . S
H1047 C1043 0.930 . S
H1048 C1045 0.929 . S
S1049 N1050 1.613 . S
S1049 N1051 1.610 . S
N1050 S1049 1.613 . S
N1050 C1053 1.350 . S
N1051 S1049 1.610 . S
N1051 C1052 1.351 . S
C1052 C1046 1.428 . S
C1052 N1051 1.351 . S
C1052 C1053 1.434 . S
C1053 C1044 1.429 . S
C1053 N1050 1.350 . S
C1053 C1052 1.434 . S
C1054 C1055 1.369 . S
C1054 C1056 1.419 . S
C1054 H1058 0.930 . S
C1055 C1054 1.369 . S
C1055 C1064 1.429 . S
C1056 C1054 1.419 . S
C1056 C1057 1.363 . S
C1056 H1059 0.929 . S
C1057 C1056 1.363 . S
C1057 C1063 1.428 . S
H1058 C1054 0.930 . S
H1059 C1056 0.929 . S
S1060 N1061 1.613 . S
S1060 N1062 1.610 . S
N1061 S1060 1.613 . S
N1061 C1064 1.350 . S
N1062 S1060 1.610 . S
N1062 C1063 1.351 . S
C1063 C1057 1.428 . S
C1063 N1062 1.351 . S
C1063 C1064 1.434 . S
C1064 C1055 1.429 . S
C1064 N1061 1.350 . S
C1064 C1063 1.434 . S
C1065 C1066 1.369 . S
C1065 C1067 1.419 . S
C1065 H1069 0.930 . S
C1066 C1065 1.369 . S
C1066 C1075 1.429 . S
C1067 C1065 1.419 . S
C1067 C1068 1.363 . S
C1067 H1070 0.929 . S
C1068 C1067 1.363 . S
C1068 C1074 1.428 . S
H1069 C1065 0.930 . S
H1070 C1067 0.929 . S
S1071 N1072 1.607 1_455 S
S1071 N1073 1.626 . S
N1072 S1071 1.607 1_655 S
N1072 C1075 1.350 1_655 S
N1073 S1071 1.626 . S
N1073 C1074 1.351 . S
C1074 C1068 1.428 . S
C1074 N1073 1.351 . S
C1074 C1075 1.434 . S
C1075 C1066 1.429 . S
C1075 N1072 1.350 1_455 S
C1075 C1074 1.434 . S
C1076 C1077 1.369 . S
C1076 C1078 1.419 . S
C1076 H1080 0.930 . S
C1077 C1076 1.369 . S
C1077 C1086 1.429 . S
C1078 C1076 1.419 . S
C1078 C1079 1.363 . S
C1078 H1081 0.929 . S
C1079 C1078 1.363 . S
C1079 C1085 1.428 . S
H1080 C1076 0.930 . S
H1081 C1078 0.929 . S
S1082 N1083 1.613 . S
S1082 N1084 1.610 . S
N1083 S1082 1.613 . S
N1083 C1086 1.350 . S
N1084 S1082 1.610 . S
N1084 C1085 1.351 . S
C1085 C1079 1.428 . S
C1085 N1084 1.351 . S
C1085 C1086 1.434 . S
C1086 C1077 1.429 . S
C1086 N1083 1.350 . S
C1086 C1085 1.434 . S
C1087 C1088 1.369 . S
C1087 C1089 1.419 . S
C1087 H1091 0.930 . S
C1088 C1087 1.369 . S
C1088 C1097 1.429 . S
C1089 C1087 1.419 . S
C1089 C1090 1.363 . S
C1089 H1092 0.929 . S
C1090 C1089 1.363 . S
C1090 C1096 1.428 . S
H1091 C1087 0.930 . S
H1092 C1089 0.929 . S
S1093 N1094 1.613 . S
S1093 N1095 1.610 1_455 S
N1094 S1093 1.613 . S
N1094 C1097 1.350 . S
N1095 S1093 1.610 1_655 S
N1095 C1096 1.351 1_655 S
C1096 C1090 1.428 . S
C1096 N1095 1.351 1_455 S
C1096 C1097 1.434 . S
C1097 C1088 1.429 . S
C1097 N1094 1.350 . S
C1097 C1096 1.434 . S
C1098 C1099 1.369 . S
C1098 C1100 1.419 . S
C1098 H1102 0.930 . S
C1099 C1098 1.369 . S
C1099 C1108 1.429 . S
C1100 C1098 1.419 . S
C1100 C1101 1.363 . S
C1100 H1103 0.929 . S
C1101 C1100 1.363 . S
C1101 C1107 1.428 . S
H1102 C1098 0.930 . S
H1103 C1100 0.929 . S
S1104 N1105 1.613 . S
S1104 N1106 1.610 . S
N1105 S1104 1.613 . S
N1105 C1108 1.350 . S
N1106 S1104 1.610 . S
N1106 C1107 1.351 . S
C1107 C1101 1.428 . S
C1107 N1106 1.351 . S
C1107 C1108 1.434 . S
C1108 C1099 1.429 . S
C1108 N1105 1.350 . S
C1108 C1107 1.434 . S
C1109 C1110 1.369 . S
C1109 C1111 1.419 . S
C1109 H1113 0.930 . S
C1110 C1109 1.369 . S
C1110 C1119 1.429 . S
C1111 C1109 1.419 . S
C1111 C1112 1.363 . S
C1111 H1114 0.929 . S
C1112 C1111 1.363 . S
C1112 C1118 1.428 . S
H1113 C1109 0.930 . S
H1114 C1111 0.929 . S
S1115 N1116 1.613 . S
S1115 N1117 1.610 . S
N1116 S1115 1.613 . S
N1116 C1119 1.350 . S
N1117 S1115 1.610 . S
N1117 C1118 1.351 . S
C1118 C1112 1.428 . S
C1118 N1117 1.351 . S
C1118 C1119 1.434 . S
C1119 C1110 1.429 . S
C1119 N1116 1.350 . S
C1119 C1118 1.434 . S
C417 C52 1.465 . S
C419 C0 1.464 . S
C428 C65 1.461 . S
C430 C13 1.462 . S
C439 C78 1.464 . S
C441 C26 1.464 . S
C450 C39 1.461 . S
C452 C91 1.462 . S
C461 C104 1.464 . S
C463 C156 1.463 . S
C472 C169 1.467 . S
C474 C117 1.467 . S
C483 C130 1.464 . S
C485 C182 1.465 . S
C494 C195 1.467 . S
C496 C143 1.466 . S
C505 C208 1.467 . S
C507 C260 1.466 . S
C516 C273 1.462 . S
C518 C221 1.462 . S
C527 C286 1.463 . S
C529 C234 1.464 . S
C538 C299 1.461 . S
C540 C247 1.462 . S
C549 C312 1.467 . S
C551 C364 1.467 . S
C560 C325 1.461 . S
C562 C377 1.462 . S
C571 C338 1.464 . S
C573 C390 1.465 . S
C582 C351 1.464 . S
C584 C403 1.465 . S
C593 C8 1.057 . S
C595 C99 1.048 . S
C604 C21 1.046 . S
C606 C60 1.054 . S
C615 C34 1.057 . S
C617 C73 1.048 . S
C626 C86 1.049 . S
C628 C47 1.042 . S
C637 C203 1.040 . S
C639 C112 1.049 . S
C648 C164 1.054 . S
C650 C125 1.046 . S
C659 C177 1.045 . S
C661 C138 1.053 . S
C670 C151 1.050 . S
C672 C190 1.056 . S
C681 C307 1.042 . S
C683 C216 1.043 . S
C692 C268 1.050 . S
C694 C229 1.049 . S
C703 C281 1.040 . S
C705 C242 1.041 . S
C714 C255 1.045 . S
C716 C294 1.045 . S
C725 C320 1.050 . S
C727 C411 1.049 . S
C736 C333 1.041 . S
C738 C372 1.042 . S
C747 C346 1.048 . S
C749 C385 1.048 . S
C758 C398 1.041 . S
C760 C359 1.041 . S
C769 C5 1.448 . S
C771 C335 1.472 . S
C780 C18 1.444 . S
C782 C140 1.472 1_455 S
C791 C31 1.441 . S
C793 C361 1.475 . S
C802 C114 1.472 . S
C804 C44 1.444 . S
C813 C413 1.475 . S
C815 C57 1.446 . S
C824 C70 1.448 . S
C826 C166 1.474 . S
C835 C83 1.442 . S
C837 C387 1.475 . S
C846 C96 1.445 . S
C848 C192 1.472 1_455 S
C857 C231 1.472 . S
C859 C109 1.443 . S
C868 C36 1.476 1_655 S
C870 C122 1.442 . S
C879 C257 1.474 . S
C881 C135 1.441 . S
C890 C148 1.443 . S
C892 C10 1.475 . S
C901 C309 1.471 . S
C903 C161 1.445 . S
C912 C62 1.472 . S
C914 C174 1.447 . S
C923 C283 1.476 . S
C925 C187 1.443 . S
C934 C88 1.476 1_655 S
C936 C200 1.444 . S
C945 C127 1.473 . S
C947 C213 1.442 . S
C956 C226 1.443 . S
C958 C348 1.475 . S
C967 C239 1.443 . S
C969 C153 1.475 . S
C978 C252 1.442 . S
C980 C322 1.475 1_655 S
C989 C265 1.448 . S
C991 C205 1.472 . S
C1000 C374 1.474 1_655 S
C1002 C278 1.447 . S
C1011 C291 1.447 . S
C1013 C179 1.472 . S
C1022 C304 1.441 . S
C1024 C400 1.473 . S
C1033 C317 1.446 . S
C1035 C23 1.472 . S
C1044 C330 1.449 . S
C1046 C244 1.473 . S
C1055 C49 1.472 . S
C1057 C343 1.447 . S
C1066 C218 1.472 1_455 S
C1068 C356 1.447 . S
C1077 C369 1.440 . S
C1079 C101 1.475 . S
C1088 C382 1.441 . S
C1090 C270 1.473 1_455 S
C1099 C75 1.473 . S
C1101 C395 1.442 . S
C1110 C296 1.471 . S
C1112 C408 1.445 . S
