# Generated by pormake.
# Topology smg, (6)-cn, num edge types: 1
# Building blocks:
#     Node 0, Type 0, BuildingBlock: IZENUY_clean_sbu_0, # of connection points: 6
#     Node 1, Type 0, BuildingBlock: IZENUY_clean_sbu_0, # of connection points: 6
#     Node 2, Type 0, BuildingBlock: IZENUY_clean_sbu_0, # of connection points: 6
#     Node 3, Type 0, BuildingBlock: IZENUY_clean_sbu_0, # of connection points: 6
#     Node 4, Type 0, BuildingBlock: IZENUY_clean_sbu_0, # of connection points: 6
#     Node 5, Type 0, BuildingBlock: IZENUY_clean_sbu_0, # of connection points: 6
#     Node 6, Type 0, BuildingBlock: IZENUY_clean_sbu_0, # of connection points: 6
#     Node 7, Type 0, BuildingBlock: IZENUY_clean_sbu_0, # of connection points: 6
#     Node 8, Type 0, BuildingBlock: IZENUY_clean_sbu_0, # of connection points: 6
#     Node 9, Type 0, BuildingBlock: IZENUY_clean_sbu_0, # of connection points: 6
#     Node 10, Type 0, BuildingBlock: IZENUY_clean_sbu_0, # of connection points: 6
#     Node 11, Type 0, BuildingBlock: IZENUY_clean_sbu_0, # of connection points: 6
#     Node 12, Type 0, BuildingBlock: IZENUY_clean_sbu_0, # of connection points: 6
#     Node 13, Type 0, BuildingBlock: IZENUY_clean_sbu_0, # of connection points: 6
#     Node 14, Type 0, BuildingBlock: IZENUY_clean_sbu_0, # of connection points: 6
#     Node 15, Type 0, BuildingBlock: IZENUY_clean_sbu_0, # of connection points: 6
#     Node 16, Type 0, BuildingBlock: IZENUY_clean_sbu_0, # of connection points: 6
#     Node 17, Type 0, BuildingBlock: IZENUY_clean_sbu_0, # of connection points: 6
#     Edge 18, Type (0, 0), BuildingBlock: CIFDUS_clean_linker_0, # of connection points: 2
#     Edge 19, Type (0, 0), BuildingBlock: CIFDUS_clean_linker_0, # of connection points: 2
#     Edge 20, Type (0, 0), BuildingBlock: CIFDUS_clean_linker_0, # of connection points: 2
#     Edge 21, Type (0, 0), BuildingBlock: CIFDUS_clean_linker_0, # of connection points: 2
#     Edge 22, Type (0, 0), BuildingBlock: CIFDUS_clean_linker_0, # of connection points: 2
#     Edge 23, Type (0, 0), BuildingBlock: CIFDUS_clean_linker_0, # of connection points: 2
#     Edge 24, Type (0, 0), BuildingBlock: CIFDUS_clean_linker_0, # of connection points: 2
#     Edge 25, Type (0, 0), BuildingBlock: CIFDUS_clean_linker_0, # of connection points: 2
#     Edge 26, Type (0, 0), BuildingBlock: CIFDUS_clean_linker_0, # of connection points: 2
#     Edge 27, Type (0, 0), BuildingBlock: CIFDUS_clean_linker_0, # of connection points: 2
#     Edge 28, Type (0, 0), BuildingBlock: CIFDUS_clean_linker_0, # of connection points: 2
#     Edge 29, Type (0, 0), BuildingBlock: CIFDUS_clean_linker_0, # of connection points: 2
#     Edge 30, Type (0, 0), BuildingBlock: CIFDUS_clean_linker_0, # of connection points: 2
#     Edge 31, Type (0, 0), BuildingBlock: CIFDUS_clean_linker_0, # of connection points: 2
#     Edge 32, Type (0, 0), BuildingBlock: CIFDUS_clean_linker_0, # of connection points: 2
#     Edge 33, Type (0, 0), BuildingBlock: CIFDUS_clean_linker_0, # of connection points: 2
#     Edge 34, Type (0, 0), BuildingBlock: CIFDUS_clean_linker_0, # of connection points: 2
#     Edge 35, Type (0, 0), BuildingBlock: CIFDUS_clean_linker_0, # of connection points: 2
#     Edge 36, Type (0, 0), BuildingBlock: CIFDUS_clean_linker_0, # of connection points: 2
#     Edge 37, Type (0, 0), BuildingBlock: CIFDUS_clean_linker_0, # of connection points: 2
#     Edge 38, Type (0, 0), BuildingBlock: CIFDUS_clean_linker_0, # of connection points: 2
#     Edge 39, Type (0, 0), BuildingBlock: CIFDUS_clean_linker_0, # of connection points: 2
#     Edge 40, Type (0, 0), BuildingBlock: CIFDUS_clean_linker_0, # of connection points: 2
#     Edge 41, Type (0, 0), BuildingBlock: CIFDUS_clean_linker_0, # of connection points: 2
#     Edge 42, Type (0, 0), BuildingBlock: CIFDUS_clean_linker_0, # of connection points: 2
#     Edge 43, Type (0, 0), BuildingBlock: CIFDUS_clean_linker_0, # of connection points: 2
#     Edge 44, Type (0, 0), BuildingBlock: CIFDUS_clean_linker_0, # of connection points: 2
#     Edge 45, Type (0, 0), BuildingBlock: CIFDUS_clean_linker_0, # of connection points: 2
#     Edge 46, Type (0, 0), BuildingBlock: CIFDUS_clean_linker_0, # of connection points: 2
#     Edge 47, Type (0, 0), BuildingBlock: CIFDUS_clean_linker_0, # of connection points: 2
#     Edge 48, Type (0, 0), BuildingBlock: CIFDUS_clean_linker_0, # of connection points: 2
#     Edge 49, Type (0, 0), BuildingBlock: CIFDUS_clean_linker_0, # of connection points: 2
#     Edge 50, Type (0, 0), BuildingBlock: CIFDUS_clean_linker_0, # of connection points: 2
#     Edge 51, Type (0, 0), BuildingBlock: CIFDUS_clean_linker_0, # of connection points: 2
#     Edge 52, Type (0, 0), BuildingBlock: CIFDUS_clean_linker_0, # of connection points: 2
#     Edge 53, Type (0, 0), BuildingBlock: CIFDUS_clean_linker_0, # of connection points: 2
#     Edge 54, Type (0, 0), BuildingBlock: CIFDUS_clean_linker_0, # of connection points: 2
#     Edge 55, Type (0, 0), BuildingBlock: CIFDUS_clean_linker_0, # of connection points: 2
#     Edge 56, Type (0, 0), BuildingBlock: CIFDUS_clean_linker_0, # of connection points: 2
#     Edge 57, Type (0, 0), BuildingBlock: CIFDUS_clean_linker_0, # of connection points: 2
#     Edge 58, Type (0, 0), BuildingBlock: CIFDUS_clean_linker_0, # of connection points: 2
#     Edge 59, Type (0, 0), BuildingBlock: CIFDUS_clean_linker_0, # of connection points: 2
#     Edge 60, Type (0, 0), BuildingBlock: CIFDUS_clean_linker_0, # of connection points: 2
#     Edge 61, Type (0, 0), BuildingBlock: CIFDUS_clean_linker_0, # of connection points: 2
#     Edge 62, Type (0, 0), BuildingBlock: CIFDUS_clean_linker_0, # of connection points: 2
#     Edge 63, Type (0, 0), BuildingBlock: CIFDUS_clean_linker_0, # of connection points: 2
#     Edge 64, Type (0, 0), BuildingBlock: CIFDUS_clean_linker_0, # of connection points: 2
#     Edge 65, Type (0, 0), BuildingBlock: CIFDUS_clean_linker_0, # of connection points: 2
#     Edge 66, Type (0, 0), BuildingBlock: CIFDUS_clean_linker_0, # of connection points: 2
#     Edge 67, Type (0, 0), BuildingBlock: CIFDUS_clean_linker_0, # of connection points: 2
#     Edge 68, Type (0, 0), BuildingBlock: CIFDUS_clean_linker_0, # of connection points: 2
#     Edge 69, Type (0, 0), BuildingBlock: CIFDUS_clean_linker_0, # of connection points: 2
#     Edge 70, Type (0, 0), BuildingBlock: CIFDUS_clean_linker_0, # of connection points: 2
#     Edge 71, Type (0, 0), BuildingBlock: CIFDUS_clean_linker_0, # of connection points: 2
# Relax obj value: 0.248
# Max RMSD: 0.243
# Mean RMSD: 0.241
data_MOF--net-smg--node1-IZENUY_clean_sbu_0--edge1-CIFDUS_clean_linker_0
_symmetry_space_group_name_H-M    P1
_symmetry_Int_Tables_number       1
_symmetry_cell_setting            triclinic
loop_
_symmetry_equiv_pos_as_xyz
'x, y, z'
_cell_length_a     40.461403
_cell_length_b     40.487666
_cell_length_c     37.279911
_cell_angle_alpha  89.897757
_cell_angle_beta   90.023195
_cell_angle_gamma 120.14712
loop_
_atom_site_label
_atom_site_type_symbol
_atom_site_fract_x
_atom_site_fract_y
_atom_site_fract_z
_atom_type_partial_charge
Fe0 Fe 0.06506 0.61971 0.25793 0.0
Fe1 Fe 0.0205 0.66094 0.24258 0.0
O2 O 0.02224 0.61823 0.2447 0.0
Fe3 Fe 0.98122 0.57403 0.23384 0.0
O4 O 0.9797 0.55456 0.2782 0.0
O5 O 0.04071 0.57227 0.27878 0.0
O6 O 0.06319 0.63852 0.30131 0.0
C7 C 0.06011 0.66762 0.30648 0.0
C8 C 0.04276 0.56883 0.20304 0.0
O9 O 0.05274 0.68338 0.28078 0.0
C10 C 0.98027 0.62034 0.18095 0.0
O11 O 0.09748 0.66777 0.23969 0.0
O12 O 0.05894 0.68179 0.21059 0.0
O13 O 1.00891 0.55335 0.21531 0.0
O14 O 0.06884 0.60025 0.21533 0.0
C15 C 0.95007 0.61422 0.27029 0.0
O16 O 0.98759 0.64586 0.20419 0.0
O17 O 0.98068 0.59032 0.18881 0.0
C18 C 0.09187 0.68715 0.21632 0.0
O19 O 0.98228 0.6434 0.27444 0.0
O20 O 0.94594 0.58722 0.25002 0.0
C21 C 1.00721 0.55211 0.29123 0.0
Fe22 Fe 0.4286 0.46029 0.25216 0.0
Fe23 Fe 0.47177 0.41975 0.22532 0.0
O24 O 0.4291 0.41857 0.23863 0.0
Fe25 Fe 0.38559 0.37432 0.23837 0.0
O26 O 0.35446 0.39414 0.23272 0.0
O27 O 0.39281 0.4535 0.21819 0.0
O28 O 0.46508 0.49218 0.22038 0.0
C29 C 0.48159 0.48675 0.19418 0.0
C30 C 0.38216 0.40371 0.30294 0.0
O31 O 0.48221 0.45593 0.19098 0.0
C32 C 0.43642 0.35058 0.26016 0.0
O33 O 0.46427 0.47108 0.28681 0.0
O34 O 0.50251 0.45622 0.25777 0.0
O35 O 0.38217 0.37602 0.28706 0.0
O36 O 0.39218 0.43506 0.2869 0.0
C37 C 0.41651 0.37392 0.17349 0.0
O38 O 0.46536 0.38374 0.25913 0.0
O39 O 0.40657 0.34402 0.24386 0.0
C40 C 0.49588 0.47203 0.28384 0.0
O41 O 0.44773 0.38376 0.18982 0.0
O42 O 0.38814 0.3721 0.18976 0.0
C43 C 0.36015 0.42397 0.21694 0.0
Fe44 Fe 0.62237 0.06309 0.23021 0.0
Fe45 Fe 0.57311 0.98049 0.25685 0.0
O46 O 0.61785 0.01902 0.24322 0.0
Fe47 Fe 0.65828 0.01346 0.24252 0.0
O48 O 0.68257 0.05111 0.27437 0.0
O49 O 0.6726 0.09291 0.24617 0.0
O50 O 0.60701 0.06962 0.27375 0.0
C51 C 0.57469 0.04658 0.2867 0.0
C52 C 0.66556 0.05482 0.17923 0.0
O53 O 0.55667 0.01182 0.27654 0.0
C54 C 0.60597 0.94471 0.21566 0.0
O55 O 0.57347 0.04126 0.21171 0.0
O56 O 0.55144 0.97927 0.21402 0.0
O57 O 0.68106 0.04559 0.20382 0.0
O58 O 0.63727 0.05873 0.18585 0.0
C59 C 0.62035 0.97628 0.30636 0.0
O60 O 0.58209 0.94228 0.23934 0.0
O61 O 0.63621 0.97581 0.21052 0.0
C62 C 0.55015 1.00747 0.20124 0.0
O63 O 0.59175 0.97997 0.30066 0.0
O64 O 0.64297 0.98019 0.28105 0.0
C65 C 0.69179 0.08514 0.26818 0.0
Fe66 Fe 0.07257 0.47578 0.75821 0.0
Fe67 Fe 0.98765 0.43278 0.73722 0.0
O68 O 0.03014 0.43251 0.74801 0.0
Fe69 Fe 0.03026 0.38893 0.74869 0.0
O70 O 0.06686 0.40559 0.7151 0.0
O71 O 0.10585 0.46069 0.74016 0.0
O72 O 0.07357 0.49586 0.71454 0.0
C73 C 0.04655 0.49989 0.70283 0.0
C74 C 0.07292 0.42811 0.8097 0.0
O75 O 0.01295 0.48035 0.71563 0.0
C76 C 0.96041 0.36356 0.77789 0.0
O77 O 0.04729 0.49844 0.77812 0.0
O78 O 0.98685 0.45317 0.78037 0.0
O79 O 0.06489 0.40299 0.78579 0.0
O80 O 0.07347 0.45874 0.80263 0.0
C81 C 0.98699 0.38327 0.68731 0.0
O82 O 0.95448 0.38449 0.75637 0.0
O83 O 0.99361 0.36926 0.78234 0.0
C84 C 0.0139 0.48487 0.79109 0.0
O85 O 0.98647 0.41353 0.69342 0.0
O86 O 0.99565 0.3671 0.71169 0.0
C87 C 0.09983 0.43388 0.7187 0.0
Fe88 Fe 0.65558 0.65468 0.74541 0.0
Fe89 Fe 0.61333 0.56801 0.73638 0.0
O90 O 0.61271 0.61028 0.74657 0.0
Fe91 Fe 0.56913 0.60795 0.75829 0.0
O92 O 0.5877 0.62712 0.80228 0.0
O93 O 0.64221 0.67511 0.78309 0.0
O94 O 0.67767 0.63953 0.77825 0.0
C95 C 0.68316 0.61187 0.77429 0.0
C96 C 0.60838 0.67735 0.71772 0.0
O97 O 0.66227 0.5847 0.75327 0.0
C98 C 0.54442 0.55648 0.70396 0.0
O99 O 0.67636 0.64185 0.70759 0.0
O100 O 0.63027 0.58483 0.69162 0.0
O101 O 0.58246 0.65604 0.73994 0.0
O102 O 0.63656 0.67295 0.71247 0.0
C103 C 0.56373 0.54206 0.79195 0.0
O104 O 0.56489 0.5438 0.71715 0.0
O105 O 0.54789 0.5876 0.71499 0.0
C106 C 0.6599 0.61593 0.68415 0.0
O107 O 0.59586 0.54866 0.78073 0.0
O108 O 0.5481 0.55988 0.77883 0.0
C109 C 0.61833 0.65796 0.80809 0.0
Fe110 Fe 0.47086 0.06098 0.73899 0.0
Fe111 Fe 0.38516 0.01697 0.75568 0.0
O112 O 0.42912 0.01781 0.75156 0.0
Fe113 Fe 0.43172 0.97601 0.76003 0.0
O114 O 0.44962 0.97639 0.71527 0.0
O115 O 0.49377 0.03703 0.71651 0.0
O116 O 0.44981 0.0606 0.69634 0.0
C117 C 0.41781 0.05835 0.69225 0.0
C118 C 0.49966 0.03649 0.79183 0.0
O119 O 0.39478 0.05008 0.71822 0.0
C120 C 0.3855 0.97365 0.81483 0.0
O121 O 0.45585 0.09368 0.75853 0.0
O122 O 0.40457 0.05446 0.78857 0.0
O123 O 0.48043 1.00287 0.77901 0.0
O124 O 0.49423 0.06301 0.78107 0.0
C125 C 0.35927 0.94717 0.7251 0.0
O126 O 0.36782 0.98358 0.79344 0.0
O127 O 0.4148 0.97271 0.8053 0.0
C128 C 0.43079 0.08786 0.782 0.0
O129 O 0.36211 0.97944 0.72341 0.0
O130 O 0.38299 0.94197 0.74307 0.0
C131 C 0.48039 1.0038 0.70337 0.0
Fe132 Fe 0.72936 0.94582 0.58927 0.0
Fe133 Fe 0.68543 0.98794 0.57719 0.0
O134 O 0.68667 0.945 0.5775 0.0
Fe135 Fe 0.6455 0.90125 0.5657 0.0
O136 O 0.64377 0.88015 0.60932 0.0
O137 O 0.70469 0.89732 0.60871 0.0
O138 O 0.72806 0.96285 0.63359 0.0
C139 C 0.7266 0.99261 0.63998 0.0
C140 C 0.70697 0.89657 0.53353 0.0
O141 O 0.71839 0.0091 0.61551 0.0
C142 C 0.6451 0.94963 0.51462 0.0
O143 O 0.76224 0.99482 0.57237 0.0
O144 O 0.72346 0.00946 0.54488 0.0
O145 O 0.67315 0.8805 0.54606 0.0
O146 O 0.73243 0.92839 0.54543 0.0
C147 C 0.61489 0.9411 0.6044 0.0
O148 O 0.65222 0.9742 0.53892 0.0
O149 O 0.64531 0.91924 0.52133 0.0
C150 C 0.75659 0.01524 0.55016 0.0
O151 O 0.64744 0.96958 0.60942 0.0
O152 O 0.61045 0.9146 0.5831 0.0
C153 C 0.67109 0.87653 0.62106 0.0
Fe154 Fe 0.13825 0.76409 0.56674 0.0
Fe155 Fe 0.09286 0.80127 0.5964 0.0
O156 O 0.09496 0.76103 0.58066 0.0
Fe157 Fe 0.05242 0.71603 0.57896 0.0
O158 O 0.07521 0.68731 0.58193 0.0
O159 O 0.13295 0.72737 0.59932 0.0
O160 O 0.16834 0.79974 0.59976 0.0
C161 C 0.16143 0.81432 0.62658 0.0
C162 C 0.08383 0.71872 0.51411 0.0
O163 O 0.12952 0.81258 0.6303 0.0
C164 C 0.0239 0.76388 0.5612 0.0
O165 O 0.14728 0.80097 0.53381 0.0
O166 O 0.12835 0.83511 0.56464 0.0
O167 O 0.05505 0.71619 0.53023 0.0
O168 O 0.11515 0.7292 0.53044 0.0
C169 C 0.05001 0.74169 0.6459 0.0
O170 O 0.05592 0.7942 0.56329 0.0
O171 O 0.01957 0.7341 0.57592 0.0
C172 C 0.14554 0.8311 0.53809 0.0
O173 O 0.05757 0.77334 0.63155 0.0
O174 O 0.0496 0.71524 0.62746 0.0
C175 C 0.10449 0.6939 0.59922 0.0
Fe176 Fe 0.23667 0.3102 0.58047 0.0
Fe177 Fe 0.32392 0.35108 0.57435 0.0
O178 O 0.28081 0.35194 0.5711 0.0
Fe179 Fe 0.28203 0.39479 0.55836 0.0
O180 O 0.26082 0.39701 0.60069 0.0
O181 O 0.2147 0.33674 0.59901 0.0
O182 O 0.25156 0.30848 0.62574 0.0
C183 C 0.28141 0.3081 0.63432 0.0
C184 C 0.21495 0.33686 0.52361 0.0
O185 O 0.30807 0.31693 0.61191 0.0
C186 C 0.33172 0.39137 0.51072 0.0
O187 O 0.25142 0.27617 0.56398 0.0
O188 O 0.30849 0.31402 0.54159 0.0
O189 O 0.23499 0.37032 0.53625 0.0
O190 O 0.21825 0.30958 0.53587 0.0
C191 C 0.34868 0.42147 0.60177 0.0
O192 O 0.34729 0.38472 0.5371 0.0
O193 O 0.30228 0.39408 0.51525 0.0
C194 C 0.27955 0.28147 0.54467 0.0
O195 O 0.34243 0.38825 0.60745 0.0
O196 O 0.32979 0.42749 0.57802 0.0
C197 C 0.2291 0.37021 0.61195 0.0
Fe198 Fe 0.729 0.79813 0.09769 0.0
Fe199 Fe 0.68734 0.7125 0.08217 0.0
O200 O 0.68823 0.75656 0.08155 0.0
Fe201 Fe 0.64872 0.75924 0.06481 0.0
O202 O 0.64186 0.77712 0.10724 0.0
O203 O 0.70213 0.82131 0.11263 0.0
O204 O 0.72194 0.7776 0.14207 0.0
C205 C 0.72064 0.74645 0.14868 0.0
C206 C 0.71415 0.82745 0.03842 0.0
O207 O 0.71588 0.72323 0.12367 0.0
C208 C 0.65304 0.71159 0.01562 0.0
O209 O 0.76386 0.78297 0.08521 0.0
O210 O 0.72877 0.73101 0.05393 0.0
O211 O 0.67864 0.80824 0.04621 0.0
O212 O 0.73783 0.8209 0.05426 0.0
C213 C 0.61426 0.68757 0.1023 0.0
O214 O 0.6585 0.6939 0.04093 0.0
O215 O 0.65318 0.74226 0.02138 0.0
C216 C 0.76095 0.75844 0.06234 0.0
O217 O 0.64592 0.69097 0.11036 0.0
O218 O 0.61209 0.71032 0.08004 0.0
C219 C 0.66717 0.80838 0.12028 0.0
Fe220 Fe 0.28459 0.91485 0.06897 0.0
Fe221 Fe 0.23974 0.95353 0.09595 0.0
O222 O 0.28287 0.95575 0.08285 0.0
Fe223 Fe 0.32565 1.00051 0.08369 0.0
O224 O 0.35805 0.98199 0.08847 0.0
O225 O 0.32079 0.92244 0.10275 0.0
O226 O 0.24854 0.88243 0.101 0.0
C227 C 0.23128 0.88754 0.12683 0.0
C228 C 0.32837 0.97255 0.01836 0.0
O229 O 0.23036 0.91809 0.13012 0.0
C230 C 0.27371 0.02219 0.06156 0.0
O231 O 0.24857 0.90301 0.03456 0.0
O232 O 0.20956 0.91662 0.06377 0.0
O233 O 0.32867 0.99969 0.03544 0.0
O234 O 0.32041 0.94134 0.03385 0.0
C235 C 0.29407 0.99922 0.14803 0.0
O236 O 0.2453 0.98883 0.06208 0.0
O237 O 0.30315 0.0294 0.07895 0.0
C238 C 0.21652 0.90096 0.03785 0.0
O239 O 0.26308 0.98958 0.13138 0.0
O240 O 0.3228 1.00164 0.13202 0.0
C241 C 0.35307 0.9524 0.1042 0.0
Fe242 Fe 0.0546 0.36524 0.08094 0.0
Fe243 Fe 0.14043 0.40017 0.06907 0.0
O244 O 0.09559 0.36056 0.08084 0.0
Fe245 Fe 0.09165 0.31622 0.09228 0.0
O246 O 0.07496 0.31826 0.13668 0.0
O247 O 0.03145 0.33202 0.11884 0.0
O248 O 0.07501 0.40251 0.11373 0.0
C249 C 0.10482 0.43406 0.1087 0.0
C250 C 0.02249 0.2942 0.05352 0.0
O251 O 0.13013 0.43701 0.08671 0.0
C252 C 0.14083 0.33724 0.03591 0.0
O253 O 0.0703 0.39925 0.04306 0.0
O254 O 0.12325 0.40193 0.02503 0.0
O255 O 0.0418 0.28606 0.07504 0.0
O256 O 0.03183 0.32836 0.04808 0.0
C257 C 0.16233 0.37171 0.12396 0.0
O258 O 0.1583 0.37075 0.0489 0.0
O259 O 0.10901 0.31212 0.04852 0.0
C260 C 0.09418 0.40452 0.01855 0.0
O261 O 0.16058 0.40005 0.11231 0.0
O262 O 0.14006 0.33827 0.11197 0.0
C263 C 0.04641 0.32186 0.1432 0.0
Fe264 Fe 0.38252 0.2769 0.9155 0.0
Fe265 Fe 0.33563 0.31649 0.90347 0.0
O266 O 0.33867 0.2745 0.90465 0.0
Fe267 Fe 0.29745 0.23003 0.89493 0.0
O268 O 0.2976 0.21188 0.93916 0.0
O269 O 0.35914 0.2304 0.93882 0.0
O270 O 0.38397 0.29758 0.95868 0.0
C271 C 0.38064 0.32631 0.96468 0.0
C272 C 0.35774 0.22237 0.86365 0.0
O273 O 0.37002 0.34058 0.9401 0.0
C274 C 0.29419 0.27528 0.84271 0.0
O275 O 0.41332 0.32449 0.89436 0.0
O276 O 0.3716 0.33705 0.8694 0.0
O277 O 0.32425 0.20842 0.87635 0.0
O278 O 0.38386 0.25513 0.87319 0.0
C279 C 0.26705 0.26941 0.93354 0.0
O280 O 0.30053 0.3 0.8666 0.0
O281 O 0.29587 0.24578 0.84996 0.0
C282 C 0.40496 0.34258 0.87159 0.0
O283 O 0.29937 0.29852 0.93741 0.0
O284 O 0.26241 0.24327 0.91188 0.0
C285 C 0.32571 0.21028 0.95182 0.0
Fe286 Fe 0.77 0.13685 0.92297 0.0
Fe287 Fe 0.80448 0.08798 0.89914 0.0
O288 O 0.76436 0.09223 0.91037 0.0
Fe289 Fe 0.71832 0.0517 0.90904 0.0
O290 O 0.7033 0.07348 0.87596 0.0
O291 O 0.72281 0.12715 0.90491 0.0
O292 O 0.79117 0.15807 0.88003 0.0
C293 C 0.82169 0.16024 0.86888 0.0
C294 C 0.71793 0.08944 0.97203 0.0
O295 O 0.83189 0.13699 0.88037 0.0
C296 C 0.75549 0.01813 0.93683 0.0
O297 O 0.81741 0.15401 0.9436 0.0
O298 O 0.82544 0.1041 0.9432 0.0
O299 O 0.69949 0.06701 0.94658 0.0
O300 O 0.75022 0.11838 0.96669 0.0
C301 C 0.75413 0.04424 0.84734 0.0
O302 O 0.78354 0.03756 0.91573 0.0
O303 O 0.73095 0.02784 0.94201 0.0
C304 C 0.83382 0.13641 0.95557 0.0
O305 O 0.78633 0.07257 0.85435 0.0
O306 O 0.72871 0.02887 0.87137 0.0
C307 C 0.70075 0.10255 0.8821 0.0
Fe308 Fe 0.99315 0.68939 0.91121 0.0
Fe309 Fe 0.94842 0.73226 0.90589 0.0
O310 O 0.94956 0.68956 0.91363 0.0
Fe311 Fe 0.9065 0.64664 0.92383 0.0
O312 O 0.92474 0.64449 0.96719 0.0
O313 O 0.98106 0.65518 0.94865 0.0
O314 O 0.01579 0.72645 0.94422 0.0
C315 C 0.01916 0.75897 0.94263 0.0
C316 C 0.94718 0.61957 0.88238 0.0
O317 O 0.99656 0.76493 0.92389 0.0
C318 C 0.88128 0.67476 0.87119 0.0
O319 O 0.01219 0.72328 0.87353 0.0
O320 O 0.96667 0.7364 0.86105 0.0
O321 O 0.92089 0.61361 0.90435 0.0
O322 O 0.97469 0.65267 0.87771 0.0
C323 C 0.89827 0.70309 0.96134 0.0
O324 O 0.90041 0.70737 0.88585 0.0
O325 O 0.88569 0.64727 0.88085 0.0
C326 C 0.99569 0.7346 0.85195 0.0
O327 O 0.92948 0.73075 0.95044 0.0
O328 O 0.88396 0.67082 0.94608 0.0
C329 C 0.95597 0.64571 0.97307 0.0
Fe330 Fe 0.36053 0.04838 0.42369 0.0
Fe331 Fe 0.40556 0.13524 0.42754 0.0
O332 O 0.36232 0.09267 0.41725 0.0
Fe333 Fe 0.3215 0.09295 0.40066 0.0
O334 O 0.31073 0.05445 0.3684 0.0
O335 O 0.35675 0.0405 0.37582 0.0
O336 O 0.41158 0.06745 0.42047 0.0
C337 C 0.43354 0.09209 0.39847 0.0
C338 C 0.28504 0.02665 0.43996 0.0
O339 O 0.43272 0.12279 0.39561 0.0
C340 C 0.35016 0.15007 0.45495 0.0
O341 O 0.3644 0.05618 0.4718 0.0
O342 O 0.41574 0.11353 0.4662 0.0
O343 O 0.29012 0.05976 0.43567 0.0
O344 O 0.3092 0.01885 0.42803 0.0
C345 C 0.37947 0.15749 0.3662 0.0
O346 O 0.38163 0.15075 0.45897 0.0
O347 O 0.32721 0.13154 0.42985 0.0
C348 C 0.39286 0.08521 0.48547 0.0
O349 O 0.40202 0.16436 0.39211 0.0
O350 O 0.34796 0.12642 0.36444 0.0
C351 C 0.33193 0.04204 0.35631 0.0
Fe352 Fe 0.90517 0.28704 0.42916 0.0
Fe353 Fe 0.9913 0.32822 0.41528 0.0
O354 O 0.94628 0.28585 0.41495 0.0
Fe355 Fe 0.94227 0.24235 0.40037 0.0
O356 O 0.92309 0.21925 0.44339 0.0
O357 O 0.88078 0.23802 0.44674 0.0
O358 O 0.92501 0.30218 0.4735 0.0
C359 C 0.95678 0.33142 0.47993 0.0
C360 C 0.87605 0.24046 0.37139 0.0
O361 O 0.98101 0.34832 0.45519 0.0
C362 C 0.99152 0.29233 0.35045 0.0
O363 O 0.92201 0.3366 0.41414 0.0
O364 O 0.97499 0.35174 0.38518 0.0
O365 O 0.89398 0.22371 0.3814 0.0
O366 O 0.88277 0.27141 0.38571 0.0
C367 C 0.01337 0.27877 0.43831 0.0
O368 O 1.00963 0.31568 0.37543 0.0
O369 O 0.96026 0.26227 0.35643 0.0
C370 C 0.94767 0.35727 0.39165 0.0
O371 O 0.01072 0.30767 0.44536 0.0
O372 O 0.99045 0.2537 0.41636 0.0
C373 C 0.89297 0.2161 0.45682 0.0
Fe374 Fe 0.71156 0.67623 0.41704 0.0
Fe375 Fe 0.76063 0.63881 0.42524 0.0
O376 O 0.75689 0.67968 0.41609 0.0
Fe377 Fe 0.7982 0.72401 0.40606 0.0
O378 O 0.77926 0.72484 0.36252 0.0
O379 O 0.72281 0.71226 0.38158 0.0
O380 O 0.69367 0.64106 0.3821 0.0
C381 C 0.69126 0.609 0.38478 0.0
C382 C 0.75397 0.74444 0.45028 0.0
O383 O 0.71301 0.60407 0.40611 0.0
C384 C 0.82682 0.69944 0.45922 0.0
O385 O 0.692 0.63966 0.45258 0.0
O386 O 0.74151 0.63522 0.46975 0.0
O387 O 0.78004 0.75374 0.42682 0.0
O388 O 0.72658 0.71079 0.45227 0.0
C389 C 0.81109 0.66927 0.37009 0.0
O390 O 0.80841 0.66599 0.44604 0.0
O391 O 0.8205 0.72544 0.44876 0.0
C392 C 0.70996 0.63286 0.47654 0.0
O393 O 0.78086 0.64067 0.38145 0.0
O394 O 0.8231 0.70216 0.38365 0.0
C395 C 0.74747 0.72233 0.35682 0.0
H396 H 0.04564 0.44527 0.10498 0.0
H397 H 0.16202 0.49828 0.14213 0.0
H398 H 0.15451 0.54837 0.17213 0.0
H399 H 0.11163 0.57209 0.19316 0.0
H400 H 0.99462 0.51558 0.15633 0.0
H401 H 1.00563 0.47185 0.12054 0.0
C402 C 0.06954 0.46804 0.11939 0.0
C403 C 0.10411 0.46796 0.12198 0.0
C404 C 0.06471 0.49584 0.13675 0.0
C405 C 0.13512 0.49787 0.13997 0.0
C406 C 0.13067 0.52624 0.15724 0.0
C407 C 0.08883 0.5506 0.17678 0.0
C408 C 0.05216 0.54669 0.17777 0.0
C409 C 0.09517 0.52486 0.15664 0.0
C410 C 0.02287 0.51877 0.15644 0.0
C411 C 0.02913 0.49377 0.13595 0.0
H412 H 0.48006 0.55337 0.18782 0.0
H413 H 0.53354 0.49308 0.14369 0.0
H414 H 0.57607 0.54907 0.10795 0.0
H415 H 0.60272 0.61699 0.09429 0.0
H416 H 0.55068 0.67839 0.13804 0.0
H417 H 0.50236 0.61988 0.16848 0.0
C418 C 0.50074 0.55228 0.1701 0.0
C419 C 0.5039 0.51905 0.16897 0.0
C420 C 0.52534 0.58479 0.14962 0.0
C421 C 0.53053 0.51814 0.14539 0.0
C422 C 0.55496 0.55024 0.12496 0.0
C423 C 0.58027 0.61731 0.10995 0.0
C424 C 0.58017 0.65182 0.11413 0.0
C425 C 0.55326 0.58393 0.1276 0.0
C426 C 0.55103 0.65205 0.13426 0.0
C427 C 0.52374 0.61871 0.1519 0.0
H428 H 0.48069 0.94192 0.19417 0.0
H429 H 0.54631 0.05844 0.15666 0.0
H430 H 0.49156 0.05046 0.12229 0.0
H431 H 0.42503 0.01226 0.10543 0.0
H432 H 0.3569 0.89632 0.14358 0.0
H433 H 0.41294 0.90221 0.17519 0.0
C434 C 0.48311 0.96539 0.17812 0.0
C435 C 0.51762 1.00083 0.17805 0.0
C436 C 0.45111 0.96082 0.15882 0.0
C437 C 0.52013 0.03102 0.15736 0.0
C438 C 0.48882 0.02648 0.13771 0.0
C439 C 0.42216 0.988 0.12047 0.0
C440 C 0.38659 0.95385 0.12215 0.0
C441 C 0.45411 0.99177 0.1387 0.0
C442 C 0.38384 0.92291 0.14179 0.0
C443 C 0.41588 0.92633 0.15989 0.0
H444 H 0.5067 0.13627 0.37022 0.0
H445 H 0.41028 0.0214 0.37519 0.0
H446 H 0.44496 0.99754 0.34189 0.0
H447 H 0.50276 0.00761 0.3131 0.0
H448 H 0.60166 0.12073 0.30866 0.0
H449 H 0.56654 0.14641 0.34042 0.0
C450 C 0.49332 0.10623 0.3635 0.0
C451 C 0.45573 0.08089 0.37489 0.0
C452 C 0.51413 0.09198 0.34501 0.0
C453 C 0.43901 0.04179 0.36654 0.0
C454 C 0.45891 0.02785 0.34765 0.0
C455 C 0.51685 0.03788 0.31917 0.0
C456 C 0.55479 0.06201 0.3085 0.0
C457 C 0.49657 0.05248 0.33719 0.0
C458 C 0.57241 0.10127 0.31666 0.0
C459 C 0.55228 0.1161 0.33468 0.0
H460 H 0.93856 0.48937 0.31033 0.0
H461 H 0.06023 0.54513 0.32951 0.0
H462 H 0.0517 0.4905 0.36401 0.0
H463 H 0.01123 0.42506 0.38397 0.0
H464 H 0.88954 0.36778 0.36695 0.0
H465 H 0.89641 0.42497 0.33662 0.0
C466 C 0.96308 0.48977 0.32255 0.0
C467 C 1.00008 0.5211 0.31672 0.0
C468 C 0.95805 0.4579 0.3424 0.0
C469 C 0.03151 0.52123 0.333 0.0
C470 C 0.02672 0.48997 0.35277 0.0
C471 C 0.98614 0.42516 0.37378 0.0
C472 C 0.95005 0.39224 0.37698 0.0
C473 C 0.99037 0.45783 0.35674 0.0
C474 C 0.91765 0.39289 0.36452 0.0
C475 C 0.92164 0.42548 0.34712 0.0
H476 H 0.56444 0.47438 0.29216 0.0
H477 H 0.49859 0.52361 0.33244 0.0
H478 H 0.55269 0.56834 0.36871 0.0
H479 H 0.6199 0.59697 0.38537 0.0
H480 H 0.68659 0.54815 0.34743 0.0
H481 H 0.63081 0.49941 0.31407 0.0
C482 C 0.5618 0.49465 0.30913 0.0
C483 C 0.52746 0.49583 0.30912 0.0
C484 C 0.59319 0.52045 0.33018 0.0
C485 C 0.52451 0.52201 0.33169 0.0
C486 C 0.55554 0.54776 0.35241 0.0
C487 C 0.62214 0.57543 0.37 0.0
C488 C 0.65732 0.57633 0.36836 0.0
C489 C 0.59016 0.54775 0.35125 0.0
C490 C 0.65976 0.54796 0.34899 0.0
C491 C 0.62795 0.52031 0.32982 0.0
H492 H 0.01264 0.6197 0.87224 0.0
H493 H 0.89071 0.5479 0.86051 0.0
H494 H 0.90012 0.4978 0.83327 0.0
H495 H 0.94415 0.47674 0.80944 0.0
H496 H 0.06591 0.55022 0.82379 0.0
H497 H 0.05525 0.59722 0.85377 0.0
C498 C 0.98799 0.59312 0.86366 0.0
C499 C 0.95106 0.58776 0.86762 0.0
C500 C 0.99365 0.56474 0.84861 0.0
C501 C 0.91944 0.55276 0.85738 0.0
C502 C 0.92487 0.52423 0.84183 0.0
C503 C 0.96828 0.50278 0.8196 0.0
C504 C 1.00587 0.51006 0.81386 0.0
C505 C 0.96198 0.53014 0.83687 0.0
C506 C 0.03675 0.54395 0.82736 0.0
C507 C 0.03072 0.57097 0.8445 0.0
H508 H 0.49408 0.48623 0.7731 0.0
H509 H 0.58139 0.51661 0.85312 0.0
H510 H 0.54156 0.4552 0.88385 0.0
H511 H 0.47978 0.39378 0.88906 0.0
H512 H 0.39508 0.36394 0.80601 0.0
H513 H 0.43633 0.4236 0.77486 0.0
C514 C 0.50418 0.47947 0.79747 0.0
C515 C 0.53994 0.50606 0.81154 0.0
C516 C 0.48182 0.44391 0.81408 0.0
C517 C 0.5535 0.49663 0.84231 0.0
C518 C 0.53086 0.46151 0.85969 0.0
C519 C 0.4709 0.40003 0.86372 0.0
C520 C 0.43431 0.37459 0.85002 0.0
C521 C 0.49477 0.4349 0.84591 0.0
C522 C 0.423 0.38318 0.81725 0.0
C523 C 0.44644 0.41741 0.79949 0.0
H524 H 0.56394 0.10623 0.8041 0.0
H525 H 0.50921 0.9868 0.83293 0.0
H526 H 0.56555 0.99849 0.86664 0.0
H527 H 0.63164 0.04052 0.8832 0.0
H528 H 0.68959 0.15953 0.85363 0.0
H529 H 0.63038 0.15042 0.82547 0.0
C530 C 0.56421 0.08293 0.81822 0.0
C531 C 0.53247 0.04552 0.81564 0.0
C532 C 0.59724 0.08976 0.83719 0.0
C533 C 0.5333 0.01567 0.83406 0.0
C534 C 0.56551 0.02233 0.85339 0.0
C535 C 0.63133 0.06465 0.87078 0.0
C536 C 0.66499 0.10052 0.86989 0.0
C537 C 0.59784 0.05894 0.85432 0.0
C538 C 0.664 0.13165 0.85451 0.0
C539 C 0.63025 0.1263 0.83826 0.0
H540 H 0.61158 1.00506 0.61226 0.0
H541 H 0.54463 0.8834 0.62888 0.0
H542 H 0.49482 0.89151 0.65878 0.0
H543 H 0.47344 0.93464 0.68452 0.0
H544 H 0.54277 0.05629 0.66677 0.0
H545 H 0.58844 0.0466 0.63279 0.0
C546 C 0.58603 0.98015 0.62232 0.0
C547 C 0.58209 0.9437 0.61894 0.0
C548 C 0.55802 0.98514 0.63937 0.0
C549 C 0.5484 0.91174 0.6313 0.0
C550 C 0.52007 0.91648 0.64851 0.0
C551 C 0.49825 0.95895 0.67277 0.0
C552 C 0.50476 0.99628 0.67865 0.0
C553 C 0.52495 0.95322 0.65333 0.0
C554 C 0.5371 0.02736 0.66311 0.0
C555 C 0.56334 0.02187 0.64365 0.0
H556 H 0.11188 0.56975 0.69794 0.0
H557 H 0.99953 0.50109 0.65208 0.0
H558 H 1.00965 0.55443 0.61401 0.0
H559 H 0.04781 0.62062 0.59676 0.0
H560 H 0.15862 0.69278 0.64436 0.0
H561 H 0.1519 0.63771 0.67865 0.0
C562 C 0.08991 0.56643 0.67921 0.0
C563 C 0.05493 0.53149 0.67773 0.0
C564 C 0.09555 0.59776 0.65801 0.0
C565 C 0.02651 0.52768 0.65377 0.0
C566 C 0.0323 0.55816 0.63203 0.0
C567 C 0.07086 0.62464 0.61441 0.0
C568 C 0.10373 0.66105 0.61799 0.0
C569 C 0.06634 0.5934 0.63443 0.0
C570 C 0.13308 0.66518 0.64099 0.0
C571 C 0.12913 0.6337 0.66068 0.0
H572 H 0.41281 0.42101 0.61818 0.0
H573 H 0.36313 0.49343 0.62123 0.0
H574 H 0.42068 0.5434 0.65164 0.0
H575 H 0.48395 0.5644 0.68041 0.0
H576 H 0.53183 0.49013 0.67436 0.0
H577 H 0.47614 0.44313 0.64185 0.0
C578 C 0.41441 0.4477 0.62552 0.0
C579 C 0.3835 0.45328 0.61812 0.0
C580 C 0.44734 0.47598 0.64245 0.0
C581 C 0.3865 0.48841 0.62691 0.0
C582 C 0.41935 0.51687 0.64432 0.0
C583 C 0.48235 0.53813 0.6716 0.0
C584 C 0.51203 0.53077 0.68036 0.0
C585 C 0.44983 0.51075 0.65265 0.0
C586 C 0.50945 0.49658 0.66849 0.0
C587 C 0.47751 0.46953 0.64986 0.0
H588 H 0.77374 0.81822 0.43301 0.0
H589 H 0.72489 0.73334 0.51685 0.0
H590 H 0.70473 0.77235 0.54922 0.0
H591 H 0.69661 0.8281 0.55192 0.0
H592 H 0.74768 0.91555 0.47099 0.0
H593 H 0.77087 0.87804 0.43895 0.0
C594 C 0.75959 0.80887 0.45878 0.0
C595 C 0.75064 0.77288 0.47242 0.0
C596 C 0.74753 0.83139 0.47727 0.0
C597 C 0.73192 0.76088 0.50572 0.0
C598 C 0.7201 0.78299 0.52415 0.0
C599 C 0.71253 0.83868 0.52706 0.0
C600 C 0.71959 0.87379 0.51312 0.0
C601 C 0.72675 0.8177 0.5097 0.0
C602 C 0.74138 0.88809 0.48169 0.0
C603 C 0.75481 0.8668 0.46358 0.0
H604 H 0.25211 0.95235 0.42366 0.0
H605 H 0.24187 0.02964 0.49603 0.0
H606 H 0.19466 0.97495 0.5317 0.0
H607 H 0.16232 0.9055 0.5457 0.0
H608 H 0.1764 0.8301 0.47343 0.0
H609 H 0.21633 0.88388 0.43443 0.0
C610 C 0.23915 0.95732 0.44698 0.0
C611 C 0.25069 0.99503 0.45738 0.0
C612 C 0.21318 0.92605 0.46765 0.0
C613 C 0.23331 1.00092 0.48735 0.0
C614 C 0.20666 0.96964 0.50792 0.0
C615 C 0.17374 0.90075 0.5212 0.0
C616 C 0.16663 0.86365 0.51285 0.0
C617 C 0.1973 0.93211 0.49891 0.0
C618 C 0.18166 0.85819 0.48088 0.0
C619 C 0.20448 0.88897 0.45846 0.0
H620 H 0.08342 0.33996 0.43772 0.0
H621 H 0.02292 0.22028 0.46472 0.0
H622 H 0.08188 0.22658 0.49064 0.0
H623 H 0.14918 0.26839 0.51082 0.0
H624 H 0.20757 0.38819 0.48287 0.0
H625 H 0.15092 0.37944 0.4517 0.0
C626 C 0.08316 0.31512 0.44909 0.0
C627 C 0.04885 0.27986 0.45 0.0
C628 C 0.11678 0.31909 0.4638 0.0
C629 C 0.04903 0.24775 0.46396 0.0
C630 C 0.08267 0.25145 0.47886 0.0
C631 C 0.1497 0.29239 0.4973 0.0
C632 C 0.18254 0.32907 0.49962 0.0
C633 C 0.11656 0.28727 0.47968 0.0
C634 C 0.18266 0.35981 0.48193 0.0
C635 C 0.15022 0.35487 0.46413 0.0
H636 H 0.1019 0.36967 0.70842 0.0
H637 H 0.16888 0.49137 0.69211 0.0
H638 H 0.21708 0.48307 0.65925 0.0
H639 H 0.23707 0.43972 0.63131 0.0
H640 H 0.16771 0.3181 0.64943 0.0
H641 H 0.12361 0.328 0.68555 0.0
C642 C 0.12709 0.39453 0.69775 0.0
C643 C 0.13155 0.43103 0.70209 0.0
C644 C 0.15416 0.38946 0.67909 0.0
C645 C 0.16478 0.46296 0.68894 0.0
C646 C 0.19217 0.45814 0.67006 0.0
C647 C 0.21255 0.4155 0.64353 0.0
C648 C 0.20548 0.37811 0.6371 0.0
C649 C 0.18678 0.42134 0.66438 0.0
C650 C 0.17364 0.34709 0.65334 0.0
C651 C 0.14833 0.35268 0.6741 0.0
H652 H 0.6727 0.74417 0.70775 0.0
H653 H 0.55061 0.69041 0.69494 0.0
H654 H 0.55866 0.7487 0.66569 0.0
H655 H 0.60174 0.81371 0.64003 0.0
H656 H 0.72373 0.86513 0.65498 0.0
H657 H 0.71422 0.80894 0.68725 0.0
C658 C 0.64768 0.74504 0.6986 0.0
C659 C 0.61112 0.71273 0.7029 0.0
C660 C 0.6526 0.77831 0.68212 0.0
C661 C 0.57906 0.71482 0.69175 0.0
C662 C 0.58374 0.74811 0.67495 0.0
C663 C 0.62616 0.81279 0.65077 0.0
C664 C 0.66352 0.84368 0.64458 0.0
C665 C 0.62053 0.7799 0.66944 0.0
C666 C 0.69475 0.84187 0.65885 0.0
C667 C 0.68938 0.80965 0.67736 0.0
H668 H 0.2282 0.81361 0.63517 0.0
H669 H 0.1663 0.8673 0.67479 0.0
H670 H 0.22158 0.91122 0.71051 0.0
H671 H 0.28884 0.93787 0.72643 0.0
H672 H 0.35139 0.88445 0.68872 0.0
H673 H 0.29426 0.8365 0.65645 0.0
C674 C 0.22666 0.83468 0.6519 0.0
C675 C 0.19317 0.83741 0.65188 0.0
C676 C 0.25867 0.85994 0.67249 0.0
C677 C 0.19157 0.86453 0.67414 0.0
C678 C 0.22327 0.88981 0.69448 0.0
C679 C 0.2899 0.91552 0.71136 0.0
C680 C 0.32436 0.91492 0.70945 0.0
C681 C 0.25715 0.8883 0.69319 0.0
C682 C 0.32519 0.88545 0.69048 0.0
C683 C 0.2926 0.85825 0.67194 0.0
H684 H 0.6437 0.9462 0.15633 0.0
H685 H 0.56513 0.86777 0.23486 0.0
H686 H 0.57509 0.81679 0.21067 0.0
H687 H 0.61206 0.79692 0.1705 0.0
H688 H 0.69601 0.88071 0.09853 0.0
H689 H 0.67876 0.92743 0.11746 0.0
C690 C 0.6284 0.91789 0.16821 0.0
C691 C 0.604 0.911 0.19767 0.0
C692 C 0.63603 0.88988 0.15575 0.0
C693 C 0.58397 0.8739 0.2121 0.0
C694 C 0.5901 0.84492 0.19854 0.0
C695 C 0.62645 0.82546 0.15917 0.0
C696 C 0.65574 0.83559 0.13357 0.0
C697 C 0.61705 0.85294 0.17103 0.0
C698 C 0.67404 0.87251 0.11881 0.0
C699 C 0.66396 0.89916 0.12937 0.0
H700 H 0.10079 0.757 0.21821 0.0
H701 H 0.15525 0.69499 0.18204 0.0
H702 H 0.20576 0.75308 0.15284 0.0
H703 H 0.23099 0.8202 0.13406 0.0
H704 H 0.17651 0.88162 0.17312 0.0
H705 H 0.1297 0.82508 0.20536 0.0
C706 C 0.1239 0.75636 0.20405 0.0
C707 C 0.12425 0.72199 0.20151 0.0
C708 C 0.15271 0.78966 0.188 0.0
C709 C 0.15454 0.72133 0.18396 0.0
C710 C 0.18323 0.75441 0.16729 0.0
C711 C 0.20916 0.82133 0.14998 0.0
C712 C 0.207 0.855 0.1507 0.0
C713 C 0.18216 0.78859 0.1686 0.0
C714 C 0.17884 0.85613 0.17189 0.0
C715 C 0.15187 0.82374 0.19024 0.0
H716 H 0.2323 0.4366 0.12969 0.0
H717 H 0.16554 0.321 0.16922 0.0
H718 H 0.22058 0.32844 0.20279 0.0
H719 H 0.28753 0.36561 0.21793 0.0
H720 H 0.35704 0.48038 0.17729 0.0
H721 H 0.3007 0.47545 0.14705 0.0
C722 C 0.22972 0.41326 0.14607 0.0
C723 C 0.19484 0.3782 0.14698 0.0
C724 C 0.26189 0.41745 0.16473 0.0
C725 C 0.19204 0.34811 0.16797 0.0
C726 C 0.2235 0.35234 0.18712 0.0
C727 C 0.29068 0.38985 0.20262 0.0
C728 C 0.32669 0.42334 0.19978 0.0
C729 C 0.25861 0.38657 0.18516 0.0
C730 C 0.32976 0.45427 0.1799 0.0
C731 C 0.29755 0.45139 0.1626 0.0
H732 H 0.13405 0.26713 0.0237 0.0
H733 H 0.19349 0.38468 0.98834 0.0
H734 H 0.23487 0.37221 0.95039 0.0
H735 H 0.2588 0.33057 0.93248 0.0
H736 H 0.20254 0.21337 0.96769 0.0
H737 H 0.15474 0.22269 8e-05 0.0
C738 C 0.15561 0.28973 0.00715 0.0
C739 C 0.1611 0.32695 0.0092 0.0
C740 C 0.18 0.28251 0.98569 0.0
C741 C 0.18912 0.35599 0.98764 0.0
C742 C 0.21279 0.3489 0.96592 0.0
C743 C 0.23581 0.3069 0.94698 0.0
C744 C 0.23436 0.27154 0.94831 0.0
C745 C 0.20924 0.3127 0.96564 0.0
C746 C 0.20414 0.24087 0.96647 0.0
C747 C 0.17706 0.24633 0.9851 0.0
H748 H 0.67335 0.85131 -0.00087 0.0
H749 H 0.78901 0.88245 0.02655 0.0
H750 H 0.81321 0.9432 0.99498 0.0
H751 H 0.80095 0.99047 0.96354 0.0
H752 H 0.6845 0.95744 0.93712 0.0
H753 H 0.66168 0.89503 0.96376 0.0
C754 C 0.70389 0.87115 -0.00206 0.0
C755 C 0.7291 0.86229 0.01561 0.0
C756 C 0.71769 0.90618 0.97992 0.0
C757 C 0.76871 0.88842 0.01339 0.0
C758 C 0.78268 0.92336 0.99537 0.0
C759 C 0.77075 0.96932 0.96317 0.0
C760 C 0.74453 0.97897 0.94887 0.0
C761 C 0.75739 0.933 0.97909 0.0
C762 C 0.70536 0.95114 0.94855 0.0
C763 C 0.69213 0.91527 0.96376 0.0
H764 H 0.14872 0.89902 0.02767 0.0
H765 H 0.21248 0.84504 0.99425 0.0
H766 H 0.15707 0.79708 0.96133 0.0
H767 H 0.08947 0.7678 0.94554 0.0
H768 H 0.02557 0.82227 0.97599 0.0
H769 H 0.08217 0.87288 0.00665 0.0
C770 C 0.15061 0.87699 0.01286 0.0
C771 C 0.18467 0.87545 0.01378 0.0
C772 C 0.11856 0.84943 0.99382 0.0
C773 C 0.18674 0.84699 0.99407 0.0
C774 C 0.15496 0.81936 0.97539 0.0
C775 C 0.08796 0.79081 0.95888 0.0
C776 C 0.05335 0.79108 0.95917 0.0
C777 C 0.12057 0.81987 0.97573 0.0
C778 C 0.05192 0.82145 0.97568 0.0
C779 C 0.08421 0.85026 0.9932 0.0
H780 H 0.42861 0.23221 0.84592 0.0
H781 H 0.30729 0.15381 0.83501 0.0
H782 H 0.31981 0.10631 0.80906 0.0
H783 H 0.36401 0.08505 0.79271 0.0
H784 H 0.48555 0.16181 0.80005 0.0
H785 H 0.47417 0.21195 0.82405 0.0
C786 C 0.40497 0.20496 0.83736 0.0
C787 C 0.36697 0.19661 0.84294 0.0
C788 C 0.41235 0.17727 0.82224 0.0
C789 C 0.33677 0.16108 0.83152 0.0
C790 C 0.34385 0.13372 0.81669 0.0
C791 C 0.38816 0.11271 0.79967 0.0
C792 C 0.42559 0.11946 0.79537 0.0
C793 C 0.38137 0.14118 0.81267 0.0
C794 C 0.45647 0.15582 0.80349 0.0
C795 C 0.4499 0.18441 0.81717 0.0
H796 H 0.81373 0.22035 0.84475 0.0
H797 H 0.89276 0.17794 0.84647 0.0
H798 H 0.9416 0.23673 0.8188 0.0
H799 H 0.96318 0.30073 0.79666 0.0
H800 H 0.8857 0.34462 0.79228 0.0
H801 H 0.8349 0.28458 0.81849 0.0
C802 C 0.84151 0.22379 0.83875 0.0
C803 C 0.84944 0.19456 0.84807 0.0
C804 C 0.86987 0.25805 0.82271 0.0
C805 C 0.88565 0.1997 0.83985 0.0
C806 C 0.91377 0.23347 0.82409 0.0
C807 C 0.93526 0.29747 0.80153 0.0
C808 C 0.92852 0.32755 0.79307 0.0
C809 C 0.90639 0.26297 0.81597 0.0
C810 C 0.8918 0.32213 0.79879 0.0
C811 C 0.86279 0.28778 0.81375 0.0
H812 H 0.82026 0.60605 0.84987 0.0
H813 H 0.86939 0.72825 0.8398 0.0
H814 H 0.81286 0.71894 0.80825 0.0
H815 H 0.74833 0.67713 0.78722 0.0
H816 H 0.69751 0.55488 0.79514 0.0
H817 H 0.75602 0.56316 0.82374 0.0
C818 C 0.81877 0.63058 0.84032 0.0
C819 C 0.8489 0.66784 0.84769 0.0
C820 C 0.7858 0.62507 0.8222 0.0
C821 C 0.84653 0.69929 0.83497 0.0
C822 C 0.81416 0.69405 0.81692 0.0
C823 C 0.74991 0.65218 0.79524 0.0
C824 C 0.71844 0.61545 0.78977 0.0
C825 C 0.78339 0.6572 0.81117 0.0
C826 C 0.72134 0.58345 0.79938 0.0
C827 C 0.75473 0.58823 0.81572 0.0
H828 H 0.90431 0.77101 0.98256 0.0
H829 H 0.83827 0.64892 -0.00108 0.0
H830 H 0.79211 0.65628 0.03456 0.0
H831 H 0.76675 0.6959 0.05552 0.0
H832 H 0.83051 0.81782 0.04001 0.0
H833 H 0.88169 0.8122 0.01002 0.0
C834 C 0.88017 0.74614 0.99447 0.0
C835 C 0.87444 0.70936 0.98753 0.0
C836 C 0.85321 0.75051 0.01478 0.0
C837 C 0.84309 0.67746 0.00331 0.0
C838 C 0.81662 0.6816 0.02372 0.0
C839 C 0.79206 0.72134 0.04587 0.0
C840 C 0.79474 0.75714 0.04936 0.0
C841 C 0.82079 0.71776 0.02865 0.0
C842 C 0.8279 0.78996 0.03748 0.0
C843 C 0.85696 0.78666 0.02019 0.0
H844 H 0.26116 0.14098 0.96042 0.0
H845 H 0.37528 0.2124 0.00165 0.0
H846 H 0.3673 0.16097 0.04137 0.0
H847 H 0.3304 0.09541 0.06096 0.0
H848 H 0.2177 0.02095 0.01802 0.0
H849 H 0.22247 0.0743 0.98238 0.0
C850 C 0.28399 0.14536 0.97853 0.0
C851 C 0.31882 0.18036 0.97818 0.0
C852 C 0.27957 0.11523 0.00063 0.0
C853 C 0.34837 0.18564 0.00138 0.0
C854 C 0.34382 0.15629 0.02404 0.0
C855 C 0.30656 0.0906 0.04406 0.0
C856 C 0.27374 0.05409 0.04205 0.0
C857 C 0.3099 0.12085 0.02332 0.0
C858 C 0.24327 0.04874 0.02004 0.0
C859 C 0.24607 0.0792 -0.00037 0.0
H860 H 0.85675 0.20306 0.98999 0.0
H861 H 0.8882 0.11705 0.97325 0.0
H862 H 0.94877 0.15669 0.00465 0.0
H863 H 0.99567 0.21922 0.03247 0.0
H864 H 0.96205 0.30418 0.04651 0.0
H865 H 0.9 0.26167 0.0208 0.0
C866 C 0.87661 0.19269 0.99343 0.0
C867 C 0.86801 0.15733 0.97886 0.0
C868 C 0.91149 0.21578 0.01086 0.0
C869 C 0.89405 0.14427 0.98407 0.0
C870 C 0.92886 0.16704 0.00189 0.0
C871 C 0.97453 0.22808 0.03018 0.0
C872 C 0.98392 0.26515 0.0408 0.0
C873 C 0.93837 0.20336 0.01473 0.0
C874 C 0.95607 0.27617 0.03785 0.0
C875 C 0.92035 0.25181 0.02325 0.0
H876 H 0.28137 0.14667 0.4623 0.0
H877 H 0.39808 0.20718 0.50017 0.0
H878 H 0.38487 0.25104 0.53346 0.0
H879 H 0.34218 0.27531 0.5477 0.0
H880 H 0.22539 0.21587 0.51102 0.0
H881 H 0.23646 0.16788 0.48155 0.0
C882 C 0.30388 0.1693 0.47803 0.0
C883 C 0.34089 0.17394 0.47828 0.0
C884 C 0.29609 0.19454 0.49714 0.0
C885 C 0.36947 0.20301 0.49931 0.0
C886 C 0.36196 0.22819 0.51828 0.0
C887 C 0.31902 0.25167 0.53343 0.0
C888 C 0.28318 0.24929 0.53092 0.0
C889 C 0.3257 0.22468 0.51672 0.0
C890 C 0.25319 0.2182 0.51314 0.0
C891 C 0.25964 0.19102 0.49619 0.0
H892 H 0.89923 0.15296 0.47363 0.0
H893 H 0.82932 0.20429 0.49191 0.0
H894 H 0.78232 0.1473 0.52306 0.0
H895 H 0.7585 0.08177 0.54159 0.0
H896 H 0.8269 0.02876 0.52628 0.0
H897 H 0.87719 0.08759 0.49773 0.0
C898 C 0.87396 0.15182 0.48483 0.0
C899 C 0.8677 0.18285 0.47983 0.0
C900 C 0.84659 0.11857 0.50296 0.0
C901 C 0.83483 0.18086 0.49481 0.0
C902 C 0.80778 0.14819 0.51268 0.0
C903 C 0.78444 0.08301 0.53202 0.0
C904 C 0.78876 0.05083 0.53535 0.0
C905 C 0.81296 0.11668 0.51618 0.0
C906 C 0.8229 0.05318 0.52374 0.0
C907 C 0.85153 0.08675 0.50739 0.0
H908 H 0.95216 0.7036 0.56138 0.0
H909 H 0.01859 0.81825 0.51973 0.0
H910 H 0.9622 0.80968 0.48651 0.0
H911 H 0.8947 0.76732 0.46636 0.0
H912 H 0.83185 0.65186 0.50686 0.0
H913 H 0.88633 0.66321 0.54365 0.0
C914 C 0.95463 0.72706 0.54525 0.0
C915 C 0.9899 0.76157 0.54304 0.0
C916 C 0.92259 0.72163 0.5259 0.0
C917 C 0.99195 0.79142 0.52203 0.0
C918 C 0.95969 0.78642 0.50294 0.0
C919 C 0.89287 0.7449 0.48366 0.0
C920 C 0.85917 0.70869 0.48386 0.0
C921 C 0.92494 0.75137 0.50426 0.0
C922 C 0.85739 0.67981 0.50606 0.0
C923 C 0.88856 0.68629 0.5271 0.0
H924 H 0.94539 0.6772 0.27977 0.0
H925 H 0.88046 0.55494 0.29335 0.0
H926 H 0.82927 0.56074 0.32309 0.0
H927 H 0.80616 0.60182 0.34951 0.0
H928 H 0.87331 0.72418 0.33503 0.0
H929 H 0.9205 0.71693 0.30099 0.0
C930 C 0.92001 0.65168 0.28916 0.0
C931 C 0.91695 0.61572 0.28506 0.0
C932 C 0.89122 0.65533 0.30607 0.0
C933 C 0.8835 0.58292 0.29647 0.0
C934 C 0.85439 0.58632 0.31352 0.0
C935 C 0.83084 0.62684 0.33846 0.0
C936 C 0.8364 0.66359 0.34528 0.0
C937 C 0.85833 0.62253 0.3191 0.0
C938 C 0.86849 0.69564 0.33062 0.0
C939 C 0.89556 0.69156 0.31116 0.0
H940 H 0.38535 0.27534 0.25181 0.0
H941 H 0.48589 0.35238 0.31224 0.0
H942 H 0.47872 0.29853 0.34864 0.0
H943 H 0.44058 0.23054 0.3663 0.0
H944 H 0.33908 0.15474 0.30613 0.0
H945 H 0.35016 0.20738 0.26651 0.0
C946 C 0.40602 0.28052 0.27275 0.0
C947 C 0.43602 0.3181 0.27943 0.0
C948 C 0.40135 0.24964 0.29377 0.0
C949 C 0.46263 0.3239 0.30643 0.0
C950 C 0.45835 0.29309 0.32737 0.0
C951 C 0.42105 0.22531 0.34428 0.0
C952 C 0.38875 0.1885 0.33952 0.0
C953 C 0.42733 0.25596 0.32175 0.0
C954 C 0.36397 0.18256 0.3107 0.0
C955 C 0.37027 0.21274 0.28802 0.0
H956 H 0.85672 0.17737 0.33209 0.0
H957 H 0.81963 0.25769 0.35713 0.0
H958 H 0.76011 0.21865 0.32418 0.0
H959 H 0.71559 0.15772 0.29309 0.0
H960 H 0.75411 0.07793 0.27064 0.0
H961 H 0.81579 0.12071 0.29738 0.0
C962 C 0.83582 0.18661 0.33013 0.0
C963 C 0.84243 0.22006 0.34753 0.0
C964 C 0.80157 0.16386 0.3117 0.0
C965 C 0.81521 0.23186 0.34418 0.0
C966 C 0.78104 0.20947 0.32543 0.0
C967 C 0.73779 0.15017 0.29367 0.0
C968 C 0.7301 0.1145 0.2805 0.0
C969 C 0.77343 0.17483 0.3098 0.0
C970 C 0.75908 0.10496 0.28126 0.0
C971 C 0.79446 0.12941 0.29648 0.0
H972 H 0.0514 0.73349 0.45736 0.0
H973 H 0.10944 0.67324 0.48886 0.0
H974 H 0.10805 0.65271 0.42704 0.0
H975 H 0.09103 0.65245 0.36417 0.0
H976 H 0.03613 0.7155 0.33134 0.0
H977 H 0.03621 0.735 0.39336 0.0
C978 C 0.0633 0.71554 0.45054 0.0
C979 C 0.0801 0.70445 0.47734 0.0
C980 C 0.06352 0.70488 0.41474 0.0
C981 C 0.09624 0.6819 0.46843 0.0
C982 C 0.09557 0.67029 0.43317 0.0
C983 C 0.07931 0.67067 0.37053 0.0
C984 C 0.06371 0.68257 0.34322 0.0
C985 C 0.07955 0.68184 0.40609 0.0
C986 C 0.0487 0.70627 0.35186 0.0
C987 C 0.04843 0.71717 0.38735 0.0
H988 H 0.30827 0.40925 0.44911 0.0
H989 H 0.38828 0.37727 0.48966 0.0
H990 H 0.40863 0.37478 0.42855 0.0
H991 H 0.40384 0.38195 0.36311 0.0
H992 H 0.3261 0.41702 0.32353 0.0
H993 H 0.3041 0.41723 0.38457 0.0
C994 C 0.33039 0.40203 0.44468 0.0
C995 C 0.34683 0.3937 0.47402 0.0
C996 C 0.34191 0.40056 0.40951 0.0
C997 C 0.37536 0.38423 0.46764 0.0
C998 C 0.38683 0.38247 0.43265 0.0
C999 C 0.38164 0.38896 0.36802 0.0
C1000 C 0.36606 0.39885 0.33914 0.0
C1001 C 0.37014 0.39036 0.40334 0.0
C1002 C 0.33808 0.40894 0.34556 0.0
C1003 C 0.32573 0.40931 0.38038 0.0
H1004 H 0.66116 0.92616 0.45257 0.0
H1005 H 0.60953 0.98884 0.49465 0.0
H1006 H 0.59583 1.00103 0.43363 0.0
H1007 H 0.59972 0.9949 0.36851 0.0
H1008 H 0.65611 0.93692 0.32615 0.0
H1009 H 0.66689 0.9218 0.3872 0.0
C1010 C 0.64661 0.94221 0.44831 0.0
C1011 C 0.63595 0.95627 0.47795 0.0
C1012 C 0.63988 0.95002 0.41321 0.0
C1013 C 0.6179 0.97771 0.47219 0.0
C1014 C 0.61007 0.98464 0.43736 0.0
C1015 C 0.61414 0.97871 0.37267 0.0
C1016 C 0.62679 0.96667 0.34296 0.0
C1017 C 0.62107 0.97106 0.40771 0.0
C1018 C 0.6461 0.94641 0.34865 0.0
C1019 C 0.65219 0.93774 0.3835 0.0
H1020 H 0.75702 0.10252 0.03369 0.0
H1021 H 0.64311 0.05764 0.99159 0.0
H1022 H 0.61699 0.0437 0.0526 0.0
H1023 H 0.62681 0.04412 0.11763 0.0
H1024 H 0.74009 0.08396 0.15939 0.0
H1025 H 0.76645 0.0999 0.09854 0.0
C1026 C 0.72651 0.08995 0.038 0.0
C1027 C 0.70195 0.08157 0.00848 0.0
C1028 C 0.71173 0.08098 0.07289 0.0
C1029 C 0.66243 0.06445 0.01408 0.0
C1030 C 0.64757 0.0565 0.04885 0.0
C1031 C 0.6573 0.0564 0.11334 0.0
C1032 C 0.68164 0.06329 0.14277 0.0
C1033 C 0.67198 0.06462 0.0784 0.0
C1034 C 0.72091 0.07847 0.13702 0.0
C1035 C 0.73594 0.08767 0.10233 0.0
H1036 H 1.00108 0.60048 0.11955 0.0
H1037 H 0.93845 0.65264 0.16052 0.0
H1038 H 0.92387 0.66318 0.09929 0.0
H1039 H 0.93046 0.65913 0.03455 0.0
H1040 H 0.99812 0.61278 0.99291 0.0
H1041 H 1.00952 0.59842 0.05415 0.0
C1042 C 0.98397 0.61385 0.11491 0.0
C1043 C 0.97044 0.62548 0.14422 0.0
C1044 C 0.97689 0.62098 0.07972 0.0
C1045 C 0.94901 0.64347 0.1382 0.0
C1046 C 0.94072 0.64947 0.1033 0.0
C1047 C 0.94747 0.6456 0.03889 0.0
C1048 C 0.96312 0.63656 0.00945 0.0
C1049 C 0.95471 0.63855 0.07393 0.0
C1050 C 0.98579 0.61987 0.01531 0.0
C1051 C 0.99221 0.61164 0.05022 0.0
H1052 H 0.37837 0.3868 0.12037 0.0
H1053 H 0.44783 0.33586 0.14165 0.0
H1054 H 0.44431 0.31817 0.07853 0.0
H1055 H 0.42083 0.31636 0.01761 0.0
H1056 H 0.35419 0.37015 0.99498 0.0
H1057 H 0.3579 0.38827 0.0581 0.0
C1058 C 0.39244 0.37157 0.1111 0.0
C1059 C 0.41286 0.36211 0.13559 0.0
C1060 C 0.39125 0.3625 0.07452 0.0
C1061 C 0.43177 0.34321 0.12326 0.0
C1062 C 0.42985 0.33319 0.0872 0.0
C1063 C 0.40742 0.33238 0.02638 0.0
C1064 C 0.38726 0.34187 0.0016 0.0
C1065 C 0.40971 0.34271 0.0626 0.0
C1066 C 0.3702 0.3628 0.01342 0.0
C1067 C 0.37202 0.37286 0.04958 0.0
H1068 H 1.00372 0.42229 0.62535 0.0
H1069 H 0.94987 0.30792 0.66827 0.0
H1070 H 0.93422 0.28165 0.60736 0.0
H1071 H 0.93644 0.29164 0.54195 0.0
H1072 H 0.99569 0.40624 0.49935 0.0
H1073 H 1.00877 0.43227 0.56026 0.0
C1074 C 0.98836 0.3916 0.6213 0.0
C1075 C 0.97747 0.36694 0.65102 0.0
C1076 C 0.98058 0.37692 0.5864 0.0
C1077 C 0.95838 0.32731 0.64563 0.0
C1078 C 0.94943 0.31237 0.61091 0.0
C1079 C 0.95205 0.3223 0.54614 0.0
C1080 C 0.96481 0.34712 0.51647 0.0
C1081 C 0.96042 0.33694 0.58112 0.0
C1082 C 0.98564 0.38673 0.52195 0.0
C1083 C 0.99304 0.40156 0.55667 0.0
H1084 H 0.62047 0.58706 0.62297 0.0
H1085 H 0.73474 0.65775 0.66384 0.0
H1086 H 0.76052 0.66682 0.60286 0.0
H1087 H 0.75015 0.6558 0.53794 0.0
H1088 H 0.63537 0.59034 0.49678 0.0
H1089 H 0.60995 0.57771 0.55805 0.0
C1090 C 0.65105 0.60423 0.61848 0.0
C1091 C 0.6758 0.62147 0.64769 0.0
C1092 C 0.66542 0.61014 0.58343 0.0
C1093 C 0.71524 0.64425 0.64164 0.0
C1094 C 0.72993 0.64934 0.60687 0.0
C1095 C 0.71961 0.6384 0.54252 0.0
C1096 C 0.69457 0.62349 0.51318 0.0
C1097 C 0.70525 0.63252 0.57759 0.0
C1098 C 0.65504 0.60185 0.51914 0.0
C1099 C 0.64058 0.59471 0.55406 0.0
H1100 H 0.46475 0.09611 0.63699 0.0
H1101 H 0.34568 0.03247 0.66697 0.0
H1102 H 0.32705 0.03449 0.60496 0.0
H1103 H 0.34493 0.0518 0.54157 0.0
H1104 H 0.46427 0.11735 0.5129 0.0
H1105 H 0.48254 0.11679 0.5751 0.0
C1106 C 0.43473 0.08299 0.63001 0.0
C1107 C 0.40664 0.06408 0.65631 0.0
C1108 C 0.4243 0.08418 0.59452 0.0
C1109 C 0.36784 0.04746 0.64709 0.0
C1110 C 0.35716 0.04831 0.61164 0.0
C1111 C 0.37487 0.06576 0.5491 0.0
C1112 C 0.40325 0.08419 0.52292 0.0
C1113 C 0.38518 0.06604 0.58503 0.0
C1114 C 0.44197 0.10291 0.53277 0.0
C1115 C 0.45245 0.10265 0.56826 0.0
H1116 H 0.35621 0.0086 0.85357 0.0
H1117 H 0.38954 0.92296 0.86023 0.0
H1118 H 0.37429 0.91465 0.92438 0.0
H1119 H 0.35317 0.93326 0.97857 0.0
H1120 H 0.3246 0.02253 0.97222 0.0
H1121 H 0.33683 0.02834 0.90778 0.0
C1122 C 0.35955 0.98772 0.86903 0.0
C1123 C 0.37332 0.96595 0.8524 0.0
C1124 C 0.35218 0.98423 0.90588 0.0
C1125 C 0.37863 0.93974 0.87266 0.0
C1126 C 0.37009 0.93514 0.90924 0.0
C1127 C 0.34971 0.95401 0.96305 0.0
C1128 C 0.33811 0.97747 0.98001 0.0
C1129 C 0.35721 0.95753 0.92616 0.0
C1130 C 0.33391 1.00442 0.95974 0.0
C1131 C 0.34061 0.00758 0.9229 0.0
H1132 H 0.11545 0.38458 0.95787 0.0
H1133 H 0.05889 0.44371 -0.00304 0.0
H1134 H 0.04918 0.45789 0.93517 0.0
H1135 H 0.05604 0.45245 0.87032 0.0
H1136 H 0.1075 0.38839 0.83137 0.0
H1137 H 0.12015 0.37707 0.89315 0.0
C1138 C 0.10123 0.40082 0.95281 0.0
C1139 C 0.08825 0.41354 0.98172 0.0
C1140 C 0.09487 0.40783 0.91743 0.0
C1141 C 0.06915 0.43378 0.975 0.0
C1142 C 0.06367 0.44189 0.93977 0.0
C1143 C 0.07031 0.43627 0.87543 0.0
C1144 C 0.08132 0.42162 0.84656 0.0
C1145 C 0.07636 0.42897 0.91084 0.0
C1146 C 0.09895 0.39998 0.85332 0.0
C1147 C 0.10616 0.39356 0.88853 0.0
H1148 H 0.60039 0.61895 0.87058 0.0
H1149 H 0.65548 0.73313 0.82707 0.0
H1150 H 0.67033 0.75972 0.88779 0.0
H1151 H 0.6681 0.75035 0.95308 0.0
H1152 H 0.61778 0.63633 -0.00354 0.0
H1153 H 0.60078 0.60966 0.93588 0.0
C1154 C 0.61536 0.64965 0.87451 0.0
C1155 C 0.62639 0.67413 0.84458 0.0
C1156 C 0.62484 0.66464 0.90935 0.0
C1157 C 0.64657 0.71382 0.8498 0.0
C1158 C 0.65507 0.72897 0.88445 0.0
C1159 C 0.65333 0.71964 0.94923 0.0
C1160 C 0.64391 0.69527 0.97913 0.0
C1161 C 0.64443 0.70465 0.91438 0.0
C1162 C 0.62538 0.65561 0.97382 0.0
C1163 C 0.61554 0.64039 0.93924 0.0
H1164 H 0.70793 0.95323 0.70191 0.0
H1165 H 0.76459 0.06775 0.65917 0.0
H1166 H 0.77979 0.09386 0.72011 0.0
H1167 H 0.77639 0.08378 0.78546 0.0
H1168 H 0.71416 0.96934 0.82807 0.0
H1169 H 0.70159 0.94322 0.76713 0.0
C1170 C 0.72377 0.9839 0.70604 0.0
C1171 C 0.73558 0.00866 0.67636 0.0
C1172 C 0.73128 0.99854 0.74099 0.0
C1173 C 0.75533 0.04829 0.6818 0.0
C1174 C 0.76405 0.06315 0.71653 0.0
C1175 C 0.76027 0.05312 0.78126 0.0
C1176 C 0.74654 0.02836 0.81091 0.0
C1177 C 0.75215 0.03852 0.74629 0.0
C1178 C 0.725 0.98878 0.80545 0.0
C1179 C 0.71788 0.97392 0.77072 0.0
H1180 H 0.03045 0.7827 0.68979 0.0
H1181 H 0.04999 0.68721 0.68902 0.0
H1182 H 0.0385 0.67899 0.75358 0.0
H1183 H 0.02161 0.69812 0.81013 0.0
H1184 H 0.99759 0.79051 0.81002 0.0
H1185 H 0.01281 0.80126 0.74602 0.0
C1186 C 0.03213 0.76004 0.70372 0.0
C1187 C 0.04089 0.73552 0.68458 0.0
C1188 C 0.02513 0.75523 0.74075 0.0
C1189 C 0.04287 0.70623 0.70304 0.0
C1190 C 0.03658 0.70167 0.74001 0.0
C1191 C 0.0204 0.72101 0.79613 0.0
C1192 C 1.00911 0.7439 0.81465 0.0
C1193 C 0.0277 0.726 0.75913 0.0
C1194 C 1.00656 0.7728 0.7962 0.0
C1195 C 0.01504 0.7788 0.75965 0.0
H1196 H 0.25246 0.32018 0.69474 0.0
H1197 H 0.31905 0.27144 0.65586 0.0
H1198 H 0.32628 0.25433 0.71722 0.0
H1199 H 0.31553 0.25539 0.78193 0.0
H1200 H 0.25443 0.30979 0.82124 0.0
H1201 H 0.24291 0.32248 0.75957 0.0
C1202 C 0.26825 0.3055 0.69975 0.0
C1203 C 0.28496 0.29675 0.67099 0.0
C1204 C 0.27326 0.29689 0.73506 0.0
C1205 C 0.30598 0.27842 0.67771 0.0
C1206 C 0.31006 0.26862 0.7127 0.0
C1207 C 0.29931 0.26962 0.77688 0.0
C1208 C 0.28541 0.28128 0.80583 0.0
C1209 C 0.29405 0.27796 0.74157 0.0
C1210 C 0.26523 0.30049 0.79921 0.0
C1211 C 0.25869 0.30774 0.76405 0.0
H1212 H 0.08445 0.33454 0.20564 0.0
H1213 H 0.97128 0.29 0.16187 0.0
H1214 H 0.94408 0.27523 0.22246 0.0
H1215 H 0.95282 0.27566 0.2879 0.0
H1216 H 0.06659 0.3258 0.33167 0.0
H1217 H 0.09345 0.33777 0.27101 0.0
C1218 C 0.05381 0.3214 0.20945 0.0
C1219 C 0.02976 0.31294 0.1795 0.0
C1220 C 0.03863 0.31411 0.24427 0.0
C1221 C 0.99024 0.29668 0.18463 0.0
C1222 C 0.97474 0.2882 0.2192 0.0
C1223 C 0.98347 0.28902 0.28404 0.0
C1224 C 1.00777 0.29952 0.31401 0.0
C1225 C 0.99868 0.29684 0.2492 0.0
C1226 C 0.04744 0.31749 0.30888 0.0
C1227 C 0.06274 0.32426 0.27428 0.0
H1228 H 0.76927 0.70526 0.29495 0.0
H1229 H 0.70588 0.75592 0.33736 0.0
H1230 H 0.69281 0.7689 0.27619 0.0
H1231 H 0.69982 0.76577 0.21063 0.0
H1232 H 0.75845 0.70975 0.16894 0.0
H1233 H 0.77301 0.69873 0.22998 0.0
C1234 C 0.75276 0.71934 0.29074 0.0
C1235 C 0.73899 0.7302 0.32041 0.0
C1236 C 0.74449 0.72557 0.25573 0.0
C1237 C 0.71687 0.74754 0.31479 0.0
C1238 C 0.70946 0.75494 0.27991 0.0
C1239 C 0.71584 0.75122 0.21504 0.0
C1240 C 0.7284 0.73887 0.1855 0.0
C1241 C 0.7232 0.74412 0.25019 0.0
C1242 C 0.74851 0.71946 0.19135 0.0
C1243 C 0.75691 0.71327 0.22618 0.0
H1244 H 0.28173 0.04094 0.3076 0.0
H1245 H 0.37312 0.016 0.32006 0.0
H1246 H 0.37036 1.00193 0.25627 0.0
H1247 H 0.34288 0.99805 0.19674 0.0
H1248 H 0.25053 0.02157 0.18477 0.0
H1249 H 0.25304 0.0352 0.24876 0.0
C1250 C 0.30086 0.03212 0.29651 0.0
C1251 C 0.32767 0.02965 0.31861 0.0
C1252 C 0.29924 0.02423 0.25985 0.0
C1253 C 0.35222 0.01816 0.30371 0.0
C1254 C 0.35078 0.01025 0.26718 0.0
C1255 C 0.32357 1.0065 0.20814 0.0
C1256 C 0.29686 0.00922 0.18617 0.0
C1257 C 0.3247 0.01362 0.24496 0.0
C1258 C 0.27145 0.01944 0.20124 0.0
C1259 C 0.27279 0.02714 0.23778 0.0
loop_
_geom_bond_atom_site_label_1
_geom_bond_atom_site_label_2
_geom_bond_distance
_geom_bond_site_symmetry_2
_ccdc_geom_bond_type
Fe0 O2 1.918 . S
Fe0 O5 1.997 . S
Fe0 O6 2.002 . S
Fe0 O11 1.976 . S
Fe0 O14 1.996 . S
Fe1 O2 1.918 . S
Fe1 O9 1.997 . S
Fe1 O12 1.996 . S
Fe1 O16 1.976 1_455 S
Fe1 O19 2.002 1_455 S
O2 Fe0 1.918 . S
O2 Fe1 1.918 . S
O2 Fe3 1.918 1_455 S
Fe3 O2 1.918 1_655 S
Fe3 O4 2.002 . S
Fe3 O13 1.970 1_655 S
Fe3 O17 1.996 . S
Fe3 O20 1.997 . S
O4 Fe3 2.002 . S
O4 C21 1.295 . S
O5 Fe0 1.997 . S
O5 C21 1.235 1_455 S
O6 Fe0 2.002 . S
O6 C7 1.295 . S
C7 O6 1.295 . S
C7 O9 1.235 . S
C8 O13 1.293 . S
C8 O14 1.255 . S
O9 Fe1 1.997 . S
O9 C7 1.235 . S
C10 O16 1.287 . S
C10 O17 1.255 . S
O11 Fe0 1.976 . S
O11 C18 1.287 . S
O12 Fe1 1.996 . S
O12 C18 1.255 . S
O13 Fe3 1.970 1_455 S
O13 C8 1.293 . S
O14 Fe0 1.996 . S
O14 C8 1.255 . S
C15 O19 1.295 . S
C15 O20 1.235 . S
O16 Fe1 1.976 1_655 S
O16 C10 1.287 . S
O17 Fe3 1.996 . S
O17 C10 1.255 . S
C18 O11 1.287 . S
C18 O12 1.255 . S
O19 Fe1 2.002 1_655 S
O19 C15 1.295 . S
O20 Fe3 1.997 . S
O20 C15 1.235 . S
C21 O4 1.295 . S
C21 O5 1.235 1_655 S
Fe22 O24 1.918 . S
Fe22 O27 1.997 . S
Fe22 O28 2.002 . S
Fe22 O33 1.976 . S
Fe22 O36 1.996 . S
Fe23 O24 1.918 . S
Fe23 O31 1.997 . S
Fe23 O34 1.996 . S
Fe23 O38 1.976 . S
Fe23 O41 2.002 . S
O24 Fe22 1.918 . S
O24 Fe23 1.918 . S
O24 Fe25 1.918 . S
Fe25 O24 1.918 . S
Fe25 O26 2.002 . S
Fe25 O35 1.976 . S
Fe25 O39 1.996 . S
Fe25 O42 1.997 . S
O26 Fe25 2.002 . S
O26 C43 1.295 . S
O27 Fe22 1.997 . S
O27 C43 1.235 . S
O28 Fe22 2.002 . S
O28 C29 1.295 . S
C29 O28 1.295 . S
C29 O31 1.235 . S
C30 O35 1.287 . S
C30 O36 1.255 . S
O31 Fe23 1.997 . S
O31 C29 1.235 . S
C32 O38 1.287 . S
C32 O39 1.255 . S
O33 Fe22 1.976 . S
O33 C40 1.287 . S
O34 Fe23 1.996 . S
O34 C40 1.255 . S
O35 Fe25 1.976 . S
O35 C30 1.287 . S
O36 Fe22 1.996 . S
O36 C30 1.255 . S
C37 O41 1.295 . S
C37 O42 1.235 . S
O38 Fe23 1.976 . S
O38 C32 1.287 . S
O39 Fe25 1.996 . S
O39 C32 1.255 . S
C40 O33 1.287 . S
C40 O34 1.255 . S
O41 Fe23 2.002 . S
O41 C37 1.295 . S
O42 Fe25 1.997 . S
O42 C37 1.235 . S
C43 O26 1.295 . S
C43 O27 1.235 . S
Fe44 O46 1.918 . S
Fe44 O49 1.997 . S
Fe44 O50 2.002 . S
Fe44 O55 1.976 . S
Fe44 O58 1.996 . S
Fe45 O46 1.918 1_565 S
Fe45 O53 1.997 . S
Fe45 O56 1.996 . S
Fe45 O60 1.976 . S
Fe45 O63 2.002 . S
O46 Fe44 1.918 . S
O46 Fe45 1.918 1_545 S
O46 Fe47 1.918 . S
Fe47 O46 1.918 . S
Fe47 O48 2.002 . S
Fe47 O57 1.976 . S
Fe47 O61 1.996 1_545 S
Fe47 O64 1.997 1_545 S
O48 Fe47 2.002 . S
O48 C65 1.295 . S
O49 Fe44 1.997 . S
O49 C65 1.235 . S
O50 Fe44 2.002 . S
O50 C51 1.295 . S
C51 O50 1.295 . S
C51 O53 1.235 1_545 S
C52 O57 1.287 . S
C52 O58 1.255 . S
O53 Fe45 1.997 . S
O53 C51 1.235 1_565 S
C54 O60 1.287 . S
C54 O61 1.255 . S
O55 Fe44 1.976 . S
O55 C62 1.287 1_545 S
O56 Fe45 1.996 . S
O56 C62 1.255 . S
O57 Fe47 1.976 . S
O57 C52 1.287 . S
O58 Fe44 1.996 . S
O58 C52 1.255 . S
C59 O63 1.295 . S
C59 O64 1.235 . S
O60 Fe45 1.976 . S
O60 C54 1.287 . S
O61 Fe47 1.996 1_565 S
O61 C54 1.255 . S
C62 O55 1.287 1_565 S
C62 O56 1.255 . S
O63 Fe45 2.002 . S
O63 C59 1.295 . S
O64 Fe47 1.997 1_565 S
O64 C59 1.235 . S
C65 O48 1.295 . S
C65 O49 1.235 . S
Fe66 O68 1.918 . S
Fe66 O71 1.997 . S
Fe66 O72 2.002 . S
Fe66 O77 1.976 . S
Fe66 O80 1.996 . S
Fe67 O68 1.918 1_655 S
Fe67 O75 2.002 . S
Fe67 O78 1.996 . S
Fe67 O82 1.976 . S
Fe67 O85 2.002 . S
O68 Fe66 1.918 . S
O68 Fe67 1.918 1_455 S
O68 Fe69 1.918 . S
Fe69 O68 1.918 . S
Fe69 O70 2.002 . S
Fe69 O79 1.976 . S
Fe69 O83 1.996 1_455 S
Fe69 O86 1.997 1_455 S
O70 Fe69 2.002 . S
O70 C87 1.295 . S
O71 Fe66 1.997 . S
O71 C87 1.235 . S
O72 Fe66 2.002 . S
O72 C73 1.295 . S
C73 O72 1.295 . S
C73 O75 1.213 1_455 S
C74 O79 1.287 . S
C74 O80 1.255 . S
O75 Fe67 2.002 . S
O75 C73 1.213 1_655 S
C76 O82 1.287 . S
C76 O83 1.255 . S
O77 Fe66 1.976 . S
O77 C84 1.287 1_455 S
O78 Fe67 1.996 . S
O78 C84 1.255 . S
O79 Fe69 1.976 . S
O79 C74 1.287 . S
O80 Fe66 1.996 . S
O80 C74 1.255 . S
C81 O85 1.295 . S
C81 O86 1.235 . S
O82 Fe67 1.976 . S
O82 C76 1.287 . S
O83 Fe69 1.996 1_655 S
O83 C76 1.255 . S
C84 O77 1.287 1_655 S
C84 O78 1.255 . S
O85 Fe67 2.002 . S
O85 C81 1.295 . S
O86 Fe69 1.997 1_655 S
O86 C81 1.235 . S
C87 O70 1.295 . S
C87 O71 1.235 . S
Fe88 O90 1.918 . S
Fe88 O93 1.997 . S
Fe88 O94 2.002 . S
Fe88 O99 1.976 . S
Fe88 O102 1.996 . S
Fe89 O90 1.918 . S
Fe89 O97 1.997 . S
Fe89 O100 1.996 . S
Fe89 O104 1.976 . S
Fe89 O107 2.002 . S
O90 Fe88 1.918 . S
O90 Fe89 1.918 . S
O90 Fe91 1.918 . S
Fe91 O90 1.918 . S
Fe91 O92 2.002 . S
Fe91 O101 1.976 . S
Fe91 O105 1.996 . S
Fe91 O108 1.997 . S
O92 Fe91 2.002 . S
O92 C109 1.295 . S
O93 Fe88 1.997 . S
O93 C109 1.235 . S
O94 Fe88 2.002 . S
O94 C95 1.295 . S
C95 O94 1.295 . S
C95 O97 1.235 . S
C96 O101 1.287 . S
C96 O102 1.255 . S
O97 Fe89 1.997 . S
O97 C95 1.235 . S
C98 O104 1.287 . S
C98 O105 1.255 . S
O99 Fe88 1.976 . S
O99 C106 1.287 . S
O100 Fe89 1.996 . S
O100 C106 1.255 . S
O101 Fe91 1.976 . S
O101 C96 1.287 . S
O102 Fe88 1.996 . S
O102 C96 1.255 . S
C103 O107 1.295 . S
C103 O108 1.235 . S
O104 Fe89 1.976 . S
O104 C98 1.287 . S
O105 Fe91 1.996 . S
O105 C98 1.255 . S
C106 O99 1.287 . S
C106 O100 1.255 . S
O107 Fe89 2.002 . S
O107 C103 1.295 . S
O108 Fe91 1.997 . S
O108 C103 1.235 . S
C109 O92 1.295 . S
C109 O93 1.235 . S
Fe110 O112 1.918 . S
Fe110 O115 1.997 . S
Fe110 O116 2.002 . S
Fe110 O121 1.976 . S
Fe110 O124 1.996 . S
Fe111 O112 1.918 . S
Fe111 O119 1.997 . S
Fe111 O122 1.996 . S
Fe111 O126 1.976 1_545 S
Fe111 O129 2.002 1_545 S
O112 Fe110 1.918 . S
O112 Fe111 1.918 . S
O112 Fe113 1.918 1_545 S
Fe113 O112 1.918 1_565 S
Fe113 O114 2.002 . S
Fe113 O123 1.980 . S
Fe113 O127 1.996 . S
Fe113 O130 1.997 . S
O114 Fe113 2.002 . S
O114 C131 1.295 . S
O115 Fe110 1.997 . S
O115 C131 1.235 1_545 S
O116 Fe110 2.002 . S
O116 C117 1.295 . S
C117 O116 1.295 . S
C117 O119 1.235 . S
C118 O123 1.270 1_545 S
C118 O124 1.255 . S
O119 Fe111 1.997 . S
O119 C117 1.235 . S
C120 O126 1.287 . S
C120 O127 1.255 . S
O121 Fe110 1.976 . S
O121 C128 1.287 . S
O122 Fe111 1.996 . S
O122 C128 1.255 . S
O123 Fe113 1.980 . S
O123 C118 1.270 1_565 S
O124 Fe110 1.996 . S
O124 C118 1.255 . S
C125 O129 1.295 . S
C125 O130 1.235 . S
O126 Fe111 1.976 1_565 S
O126 C120 1.287 . S
O127 Fe113 1.996 . S
O127 C120 1.255 . S
C128 O121 1.287 . S
C128 O122 1.255 . S
O129 Fe111 2.002 1_565 S
O129 C125 1.295 . S
O130 Fe113 1.997 . S
O130 C125 1.235 . S
C131 O114 1.295 . S
C131 O115 1.235 1_565 S
Fe132 O134 1.918 . S
Fe132 O137 1.997 . S
Fe132 O138 2.002 . S
Fe132 O143 1.976 . S
Fe132 O146 1.996 . S
Fe133 O134 1.918 . S
Fe133 O141 1.997 . S
Fe133 O144 1.996 1_565 S
Fe133 O148 1.976 . S
Fe133 O151 2.002 . S
O134 Fe132 1.918 . S
O134 Fe133 1.918 . S
O134 Fe135 1.918 . S
Fe135 O134 1.918 . S
Fe135 O136 2.002 . S
Fe135 O145 1.976 . S
Fe135 O149 1.996 . S
Fe135 O152 1.997 . S
O136 Fe135 2.002 . S
O136 C153 1.295 . S
O137 Fe132 1.997 . S
O137 C153 1.235 . S
O138 Fe132 2.002 . S
O138 C139 1.295 . S
C139 O138 1.295 . S
C139 O141 1.235 . S
C140 O145 1.287 . S
C140 O146 1.255 . S
O141 Fe133 1.997 . S
O141 C139 1.235 . S
C142 O148 1.287 . S
C142 O149 1.255 . S
O143 Fe132 1.976 . S
O143 C150 1.287 1_565 S
O144 Fe133 1.996 1_545 S
O144 C150 1.255 . S
O145 Fe135 1.976 . S
O145 C140 1.287 . S
O146 Fe132 1.996 . S
O146 C140 1.255 . S
C147 O151 1.295 . S
C147 O152 1.235 . S
O148 Fe133 1.976 . S
O148 C142 1.287 . S
O149 Fe135 1.996 . S
O149 C142 1.255 . S
C150 O143 1.287 1_545 S
C150 O144 1.255 . S
O151 Fe133 2.002 . S
O151 C147 1.295 . S
O152 Fe135 1.997 . S
O152 C147 1.235 . S
C153 O136 1.295 . S
C153 O137 1.235 . S
Fe154 O156 1.918 . S
Fe154 O159 1.997 . S
Fe154 O160 2.002 . S
Fe154 O165 1.976 . S
Fe154 O168 1.996 . S
Fe155 O156 1.918 . S
Fe155 O163 1.997 . S
Fe155 O166 1.996 . S
Fe155 O170 1.976 . S
Fe155 O173 2.002 . S
O156 Fe154 1.918 . S
O156 Fe155 1.918 . S
O156 Fe157 1.918 . S
Fe157 O156 1.918 . S
Fe157 O158 2.002 . S
Fe157 O167 1.976 . S
Fe157 O171 1.996 . S
Fe157 O174 1.997 . S
O158 Fe157 2.002 . S
O158 C175 1.295 . S
O159 Fe154 1.997 . S
O159 C175 1.235 . S
O160 Fe154 2.002 . S
O160 C161 1.295 . S
C161 O160 1.295 . S
C161 O163 1.235 . S
C162 O167 1.287 . S
C162 O168 1.255 . S
O163 Fe155 1.997 . S
O163 C161 1.235 . S
C164 O170 1.287 . S
C164 O171 1.255 . S
O165 Fe154 1.976 . S
O165 C172 1.287 . S
O166 Fe155 1.996 . S
O166 C172 1.255 . S
O167 Fe157 1.976 . S
O167 C162 1.287 . S
O168 Fe154 1.996 . S
O168 C162 1.255 . S
C169 O173 1.295 . S
C169 O174 1.235 . S
O170 Fe155 1.976 . S
O170 C164 1.287 . S
O171 Fe157 1.996 . S
O171 C164 1.255 . S
C172 O165 1.287 . S
C172 O166 1.255 . S
O173 Fe155 2.002 . S
O173 C169 1.295 . S
O174 Fe157 1.997 . S
O174 C169 1.235 . S
C175 O158 1.295 . S
C175 O159 1.235 . S
Fe176 O178 1.918 . S
Fe176 O181 1.997 . S
Fe176 O182 2.002 . S
Fe176 O187 1.976 . S
Fe176 O190 1.996 . S
Fe177 O178 1.918 . S
Fe177 O185 1.997 . S
Fe177 O188 1.996 . S
Fe177 O192 1.976 . S
Fe177 O195 2.002 . S
O178 Fe176 1.918 . S
O178 Fe177 1.918 . S
O178 Fe179 1.918 . S
Fe179 O178 1.918 . S
Fe179 O180 2.002 . S
Fe179 O189 1.976 . S
Fe179 O193 1.996 . S
Fe179 O196 1.997 . S
O180 Fe179 2.002 . S
O180 C197 1.295 . S
O181 Fe176 1.997 . S
O181 C197 1.235 . S
O182 Fe176 2.002 . S
O182 C183 1.295 . S
C183 O182 1.295 . S
C183 O185 1.235 . S
C184 O189 1.287 . S
C184 O190 1.255 . S
O185 Fe177 1.997 . S
O185 C183 1.235 . S
C186 O192 1.287 . S
C186 O193 1.255 . S
O187 Fe176 1.976 . S
O187 C194 1.287 . S
O188 Fe177 1.996 . S
O188 C194 1.255 . S
O189 Fe179 1.976 . S
O189 C184 1.287 . S
O190 Fe176 1.996 . S
O190 C184 1.255 . S
C191 O195 1.295 . S
C191 O196 1.235 . S
O192 Fe177 1.976 . S
O192 C186 1.287 . S
O193 Fe179 1.996 . S
O193 C186 1.255 . S
C194 O187 1.287 . S
C194 O188 1.255 . S
O195 Fe177 2.002 . S
O195 C191 1.295 . S
O196 Fe179 1.997 . S
O196 C191 1.235 . S
C197 O180 1.295 . S
C197 O181 1.235 . S
Fe198 O200 1.918 . S
Fe198 O203 1.997 . S
Fe198 O204 2.002 . S
Fe198 O209 1.976 . S
Fe198 O212 1.996 . S
Fe199 O200 1.918 . S
Fe199 O207 1.997 . S
Fe199 O210 1.996 . S
Fe199 O214 1.976 . S
Fe199 O217 2.002 . S
O200 Fe198 1.918 . S
O200 Fe199 1.918 . S
O200 Fe201 1.918 . S
Fe201 O200 1.918 . S
Fe201 O202 2.002 . S
Fe201 O211 1.976 . S
Fe201 O215 1.996 . S
Fe201 O218 1.997 . S
O202 Fe201 2.002 . S
O202 C219 1.295 . S
O203 Fe198 1.997 . S
O203 C219 1.235 . S
O204 Fe198 2.002 . S
O204 C205 1.295 . S
C205 O204 1.295 . S
C205 O207 1.235 . S
C206 O211 1.287 . S
C206 O212 1.255 . S
O207 Fe199 1.997 . S
O207 C205 1.235 . S
C208 O214 1.287 . S
C208 O215 1.255 . S
O209 Fe198 1.976 . S
O209 C216 1.287 . S
O210 Fe199 1.996 . S
O210 C216 1.255 . S
O211 Fe201 1.976 . S
O211 C206 1.287 . S
O212 Fe198 1.996 . S
O212 C206 1.255 . S
C213 O217 1.295 . S
C213 O218 1.235 . S
O214 Fe199 1.976 . S
O214 C208 1.287 . S
O215 Fe201 1.996 . S
O215 C208 1.255 . S
C216 O209 1.287 . S
C216 O210 1.255 . S
O217 Fe199 2.002 . S
O217 C213 1.295 . S
O218 Fe201 1.997 . S
O218 C213 1.235 . S
C219 O202 1.295 . S
C219 O203 1.235 . S
Fe220 O222 1.918 . S
Fe220 O225 1.997 . S
Fe220 O226 2.002 . S
Fe220 O231 1.976 . S
Fe220 O234 1.996 . S
Fe221 O222 1.918 . S
Fe221 O229 1.997 . S
Fe221 O232 1.996 . S
Fe221 O236 1.976 . S
Fe221 O239 2.002 . S
O222 Fe220 1.918 . S
O222 Fe221 1.918 . S
O222 Fe223 1.918 . S
Fe223 O222 1.918 . S
Fe223 O224 2.002 . S
Fe223 O233 1.976 . S
Fe223 O237 1.996 1_565 S
Fe223 O240 1.997 . S
O224 Fe223 2.002 . S
O224 C241 1.295 . S
O225 Fe220 1.997 . S
O225 C241 1.235 . S
O226 Fe220 2.002 . S
O226 C227 1.295 . S
C227 O226 1.295 . S
C227 O229 1.235 . S
C228 O233 1.287 . S
C228 O234 1.255 . S
O229 Fe221 1.997 . S
O229 C227 1.235 . S
C230 O236 1.287 1_545 S
C230 O237 1.255 . S
O231 Fe220 1.976 . S
O231 C238 1.287 . S
O232 Fe221 1.996 . S
O232 C238 1.255 . S
O233 Fe223 1.976 . S
O233 C228 1.287 . S
O234 Fe220 1.996 . S
O234 C228 1.255 . S
C235 O239 1.295 . S
C235 O240 1.235 . S
O236 Fe221 1.976 . S
O236 C230 1.287 1_565 S
O237 Fe223 1.996 1_545 S
O237 C230 1.255 . S
C238 O231 1.287 . S
C238 O232 1.255 . S
O239 Fe221 2.002 . S
O239 C235 1.295 . S
O240 Fe223 1.997 . S
O240 C235 1.235 . S
C241 O224 1.295 . S
C241 O225 1.235 . S
Fe242 O244 1.918 . S
Fe242 O247 1.997 . S
Fe242 O248 2.002 . S
Fe242 O253 1.976 . S
Fe242 O256 1.996 . S
Fe243 O244 1.918 . S
Fe243 O251 1.997 . S
Fe243 O254 1.996 . S
Fe243 O258 1.976 . S
Fe243 O261 2.002 . S
O244 Fe242 1.918 . S
O244 Fe243 1.918 . S
O244 Fe245 1.918 . S
Fe245 O244 1.918 . S
Fe245 O246 2.002 . S
Fe245 O255 1.976 . S
Fe245 O259 1.996 . S
Fe245 O262 1.997 . S
O246 Fe245 2.002 . S
O246 C263 1.295 . S
O247 Fe242 1.997 . S
O247 C263 1.235 . S
O248 Fe242 2.002 . S
O248 C249 1.295 . S
C249 O248 1.295 . S
C249 O251 1.235 . S
C250 O255 1.287 . S
C250 O256 1.255 . S
O251 Fe243 1.997 . S
O251 C249 1.235 . S
C252 O258 1.287 . S
C252 O259 1.255 . S
O253 Fe242 1.976 . S
O253 C260 1.287 . S
O254 Fe243 1.996 . S
O254 C260 1.255 . S
O255 Fe245 1.976 . S
O255 C250 1.287 . S
O256 Fe242 1.996 . S
O256 C250 1.255 . S
C257 O261 1.295 . S
C257 O262 1.235 . S
O258 Fe243 1.976 . S
O258 C252 1.287 . S
O259 Fe245 1.996 . S
O259 C252 1.255 . S
C260 O253 1.287 . S
C260 O254 1.255 . S
O261 Fe243 2.002 . S
O261 C257 1.295 . S
O262 Fe245 1.997 . S
O262 C257 1.235 . S
C263 O246 1.295 . S
C263 O247 1.235 . S
Fe264 O266 1.918 . S
Fe264 O269 1.997 . S
Fe264 O270 2.002 . S
Fe264 O275 1.976 . S
Fe264 O278 1.996 . S
Fe265 O266 1.918 . S
Fe265 O273 1.997 . S
Fe265 O276 1.996 . S
Fe265 O280 1.976 . S
Fe265 O283 2.002 . S
O266 Fe264 1.918 . S
O266 Fe265 1.918 . S
O266 Fe267 1.918 . S
Fe267 O266 1.918 . S
Fe267 O268 2.002 . S
Fe267 O277 1.976 . S
Fe267 O281 1.996 . S
Fe267 O284 1.997 . S
O268 Fe267 2.002 . S
O268 C285 1.295 . S
O269 Fe264 1.997 . S
O269 C285 1.235 . S
O270 Fe264 2.002 . S
O270 C271 1.295 . S
C271 O270 1.295 . S
C271 O273 1.235 . S
C272 O277 1.287 . S
C272 O278 1.255 . S
O273 Fe265 1.997 . S
O273 C271 1.235 . S
C274 O280 1.287 . S
C274 O281 1.255 . S
O275 Fe264 1.976 . S
O275 C282 1.287 . S
O276 Fe265 1.996 . S
O276 C282 1.255 . S
O277 Fe267 1.976 . S
O277 C272 1.287 . S
O278 Fe264 1.996 . S
O278 C272 1.255 . S
C279 O283 1.295 . S
C279 O284 1.235 . S
O280 Fe265 1.976 . S
O280 C274 1.287 . S
O281 Fe267 1.996 . S
O281 C274 1.255 . S
C282 O275 1.287 . S
C282 O276 1.255 . S
O283 Fe265 2.002 . S
O283 C279 1.295 . S
O284 Fe267 1.997 . S
O284 C279 1.235 . S
C285 O268 1.295 . S
C285 O269 1.235 . S
Fe286 O288 1.918 . S
Fe286 O291 1.997 . S
Fe286 O292 2.002 . S
Fe286 O297 1.976 . S
Fe286 O300 1.996 . S
Fe287 O288 1.918 . S
Fe287 O295 1.997 . S
Fe287 O298 1.996 . S
Fe287 O302 1.976 . S
Fe287 O305 2.002 . S
O288 Fe286 1.918 . S
O288 Fe287 1.918 . S
O288 Fe289 1.918 . S
Fe289 O288 1.918 . S
Fe289 O290 2.002 . S
Fe289 O299 1.976 . S
Fe289 O303 1.996 . S
Fe289 O306 1.997 . S
O290 Fe289 2.002 . S
O290 C307 1.295 . S
O291 Fe286 1.997 . S
O291 C307 1.235 . S
O292 Fe286 2.002 . S
O292 C293 1.295 . S
C293 O292 1.295 . S
C293 O295 1.235 . S
C294 O299 1.287 . S
C294 O300 1.255 . S
O295 Fe287 1.997 . S
O295 C293 1.235 . S
C296 O302 1.287 . S
C296 O303 1.255 . S
O297 Fe286 1.976 . S
O297 C304 1.287 . S
O298 Fe287 1.996 . S
O298 C304 1.255 . S
O299 Fe289 1.976 . S
O299 C294 1.287 . S
O300 Fe286 1.996 . S
O300 C294 1.255 . S
C301 O305 1.295 . S
C301 O306 1.235 . S
O302 Fe287 1.976 . S
O302 C296 1.287 . S
O303 Fe289 1.996 . S
O303 C296 1.255 . S
C304 O297 1.287 . S
C304 O298 1.255 . S
O305 Fe287 2.002 . S
O305 C301 1.295 . S
O306 Fe289 1.997 . S
O306 C301 1.235 . S
C307 O290 1.295 . S
C307 O291 1.235 . S
Fe308 O310 1.918 . S
Fe308 O313 1.997 . S
Fe308 O314 2.002 1_655 S
Fe308 O319 1.976 . S
Fe308 O322 1.996 . S
Fe309 O310 1.918 . S
Fe309 O317 1.997 . S
Fe309 O320 1.996 . S
Fe309 O324 1.976 . S
Fe309 O327 2.002 . S
O310 Fe308 1.918 . S
O310 Fe309 1.918 . S
O310 Fe311 1.918 . S
Fe311 O310 1.918 . S
Fe311 O312 2.002 . S
Fe311 O321 1.976 . S
Fe311 O325 1.996 . S
Fe311 O328 1.997 . S
O312 Fe311 2.002 . S
O312 C329 1.295 . S
O313 Fe308 1.997 . S
O313 C329 1.235 . S
O314 Fe308 2.002 1_455 S
O314 C315 1.295 . S
C315 O314 1.295 . S
C315 O317 1.235 1_455 S
C316 O321 1.287 . S
C316 O322 1.255 . S
O317 Fe309 1.997 . S
O317 C315 1.235 1_655 S
C318 O324 1.287 . S
C318 O325 1.255 . S
O319 Fe308 1.976 . S
O319 C326 1.287 . S
O320 Fe309 1.996 . S
O320 C326 1.255 . S
O321 Fe311 1.976 . S
O321 C316 1.287 . S
O322 Fe308 1.996 . S
O322 C316 1.255 . S
C323 O327 1.295 . S
C323 O328 1.235 . S
O324 Fe309 1.976 . S
O324 C318 1.287 . S
O325 Fe311 1.996 . S
O325 C318 1.255 . S
C326 O319 1.287 . S
C326 O320 1.255 . S
O327 Fe309 2.002 . S
O327 C323 1.295 . S
O328 Fe311 1.997 . S
O328 C323 1.235 . S
C329 O312 1.295 . S
C329 O313 1.235 . S
Fe330 O332 1.918 . S
Fe330 O335 1.997 . S
Fe330 O336 2.002 . S
Fe330 O341 1.976 . S
Fe330 O344 1.996 . S
Fe331 O332 1.918 . S
Fe331 O339 1.997 . S
Fe331 O342 1.996 . S
Fe331 O346 1.976 . S
Fe331 O349 2.002 . S
O332 Fe330 1.918 . S
O332 Fe331 1.918 . S
O332 Fe333 1.918 . S
Fe333 O332 1.918 . S
Fe333 O334 2.002 . S
Fe333 O343 1.976 . S
Fe333 O347 1.996 . S
Fe333 O350 1.997 . S
O334 Fe333 2.002 . S
O334 C351 1.295 . S
O335 Fe330 1.997 . S
O335 C351 1.235 . S
O336 Fe330 2.002 . S
O336 C337 1.295 . S
C337 O336 1.295 . S
C337 O339 1.235 . S
C338 O343 1.287 . S
C338 O344 1.255 . S
O339 Fe331 1.997 . S
O339 C337 1.235 . S
C340 O346 1.287 . S
C340 O347 1.255 . S
O341 Fe330 1.976 . S
O341 C348 1.287 . S
O342 Fe331 1.996 . S
O342 C348 1.255 . S
O343 Fe333 1.976 . S
O343 C338 1.287 . S
O344 Fe330 1.996 . S
O344 C338 1.255 . S
C345 O349 1.295 . S
C345 O350 1.235 . S
O346 Fe331 1.976 . S
O346 C340 1.287 . S
O347 Fe333 1.996 . S
O347 C340 1.255 . S
C348 O341 1.287 . S
C348 O342 1.255 . S
O349 Fe331 2.002 . S
O349 C345 1.295 . S
O350 Fe333 1.997 . S
O350 C345 1.235 . S
C351 O334 1.295 . S
C351 O335 1.235 . S
Fe352 O354 1.918 . S
Fe352 O357 1.997 . S
Fe352 O358 2.002 . S
Fe352 O363 1.976 . S
Fe352 O366 1.996 . S
Fe353 O354 1.918 . S
Fe353 O361 1.997 . S
Fe353 O364 1.996 . S
Fe353 O368 1.976 . S
Fe353 O371 2.002 1_655 S
O354 Fe352 1.918 . S
O354 Fe353 1.918 . S
O354 Fe355 1.918 . S
Fe355 O354 1.918 . S
Fe355 O356 2.002 . S
Fe355 O365 1.976 . S
Fe355 O369 1.996 . S
Fe355 O372 1.997 . S
O356 Fe355 2.002 . S
O356 C373 1.295 . S
O357 Fe352 1.997 . S
O357 C373 1.235 . S
O358 Fe352 2.002 . S
O358 C359 1.295 . S
C359 O358 1.295 . S
C359 O361 1.235 . S
C360 O365 1.287 . S
C360 O366 1.255 . S
O361 Fe353 1.997 . S
O361 C359 1.235 . S
C362 O368 1.287 . S
C362 O369 1.255 . S
O363 Fe352 1.976 . S
O363 C370 1.287 . S
O364 Fe353 1.996 . S
O364 C370 1.255 . S
O365 Fe355 1.976 . S
O365 C360 1.287 . S
O366 Fe352 1.996 . S
O366 C360 1.255 . S
C367 O371 1.295 . S
C367 O372 1.235 1_455 S
O368 Fe353 1.976 . S
O368 C362 1.287 . S
O369 Fe355 1.996 . S
O369 C362 1.255 . S
C370 O363 1.287 . S
C370 O364 1.255 . S
O371 Fe353 2.002 1_455 S
O371 C367 1.295 . S
O372 Fe355 1.997 . S
O372 C367 1.235 1_655 S
C373 O356 1.295 . S
C373 O357 1.235 . S
Fe374 O376 1.918 . S
Fe374 O379 1.997 . S
Fe374 O380 2.002 . S
Fe374 O385 1.976 . S
Fe374 O388 1.996 . S
Fe375 O376 1.918 . S
Fe375 O383 1.997 . S
Fe375 O386 1.996 . S
Fe375 O390 1.976 . S
Fe375 O393 2.002 . S
O376 Fe374 1.918 . S
O376 Fe375 1.918 . S
O376 Fe377 1.918 . S
Fe377 O376 1.918 . S
Fe377 O378 2.002 . S
Fe377 O387 1.976 . S
Fe377 O391 1.996 . S
Fe377 O394 1.997 . S
O378 Fe377 2.002 . S
O378 C395 1.295 . S
O379 Fe374 1.997 . S
O379 C395 1.235 . S
O380 Fe374 2.002 . S
O380 C381 1.295 . S
C381 O380 1.295 . S
C381 O383 1.235 . S
C382 O387 1.287 . S
C382 O388 1.255 . S
O383 Fe375 1.997 . S
O383 C381 1.235 . S
C384 O390 1.287 . S
C384 O391 1.255 . S
O385 Fe374 1.976 . S
O385 C392 1.287 . S
O386 Fe375 1.996 . S
O386 C392 1.255 . S
O387 Fe377 1.976 . S
O387 C382 1.287 . S
O388 Fe374 1.996 . S
O388 C382 1.255 . S
C389 O393 1.295 . S
C389 O394 1.235 . S
O390 Fe375 1.976 . S
O390 C384 1.287 . S
O391 Fe377 1.996 . S
O391 C384 1.255 . S
C392 O385 1.287 . S
C392 O386 1.255 . S
O393 Fe375 2.002 . S
O393 C389 1.295 . S
O394 Fe377 1.997 . S
O394 C389 1.235 . S
C395 O378 1.295 . S
C395 O379 1.235 . S
H396 C402 0.930 . S
H397 C405 0.930 . S
H398 C406 0.930 . S
H399 C407 0.930 . S
H400 C410 0.930 . S
H401 C411 0.930 . S
C402 H396 0.930 . S
C402 C403 1.355 . S
C402 C404 1.415 . S
C403 C402 1.355 . S
C403 C405 1.419 . S
C404 C402 1.415 . S
C404 C409 1.425 . S
C404 C411 1.409 . S
C405 H397 0.930 . S
C405 C403 1.419 . S
C405 C406 1.362 . S
C406 H398 0.930 . S
C406 C405 1.362 . S
C406 C409 1.409 . S
C407 H399 0.930 . S
C407 C408 1.355 . S
C407 C409 1.415 . S
C408 C407 1.355 . S
C408 C410 1.419 . S
C409 C404 1.425 . S
C409 C406 1.409 . S
C409 C407 1.415 . S
C410 H400 0.930 . S
C410 C408 1.419 . S
C410 C411 1.362 . S
C411 H401 0.930 . S
C411 C404 1.409 . S
C411 C410 1.362 . S
H412 C418 0.930 . S
H413 C421 0.930 . S
H414 C422 0.930 . S
H415 C423 0.930 . S
H416 C426 0.930 . S
H417 C427 0.930 . S
C418 H412 0.930 . S
C418 C419 1.355 . S
C418 C420 1.415 . S
C419 C418 1.355 . S
C419 C421 1.419 . S
C420 C418 1.415 . S
C420 C425 1.425 . S
C420 C427 1.409 . S
C421 H413 0.930 . S
C421 C419 1.419 . S
C421 C422 1.362 . S
C422 H414 0.930 . S
C422 C421 1.362 . S
C422 C425 1.409 . S
C423 H415 0.930 . S
C423 C424 1.355 . S
C423 C425 1.415 . S
C424 C423 1.355 . S
C424 C426 1.419 . S
C425 C420 1.425 . S
C425 C422 1.409 . S
C425 C423 1.415 . S
C426 H416 0.930 . S
C426 C424 1.419 . S
C426 C427 1.362 . S
C427 H417 0.930 . S
C427 C420 1.409 . S
C427 C426 1.362 . S
H428 C434 0.930 1_545 S
H429 C437 0.930 . S
H430 C438 0.930 . S
H431 C439 0.930 . S
H432 C442 0.930 . S
H433 C443 0.930 1_545 S
C434 H428 0.930 1_565 S
C434 C435 1.355 . S
C434 C436 1.415 . S
C435 C434 1.355 . S
C435 C437 1.419 . S
C436 C434 1.415 . S
C436 C441 1.425 . S
C436 C443 1.409 . S
C437 H429 0.930 . S
C437 C435 1.419 . S
C437 C438 1.362 . S
C438 H430 0.930 . S
C438 C437 1.362 . S
C438 C441 1.409 . S
C439 H431 0.930 . S
C439 C440 1.355 . S
C439 C441 1.415 . S
C440 C439 1.355 . S
C440 C442 1.419 . S
C441 C436 1.425 . S
C441 C438 1.409 . S
C441 C439 1.415 . S
C442 H432 0.930 . S
C442 C440 1.419 . S
C442 C443 1.362 . S
C443 H433 0.930 1_565 S
C443 C436 1.409 . S
C443 C442 1.362 . S
H444 C450 0.930 . S
H445 C453 0.930 . S
H446 C454 0.930 . S
H447 C455 0.930 . S
H448 C458 0.930 . S
H449 C459 0.930 . S
C450 H444 0.930 . S
C450 C451 1.355 . S
C450 C452 1.415 . S
C451 C450 1.355 . S
C451 C453 1.419 . S
C452 C450 1.415 . S
C452 C457 1.425 . S
C452 C459 1.409 . S
C453 H445 0.930 . S
C453 C451 1.419 . S
C453 C454 1.362 . S
C454 H446 0.930 . S
C454 C453 1.362 . S
C454 C457 1.409 . S
C455 H447 0.930 . S
C455 C456 1.355 . S
C455 C457 1.415 . S
C456 C455 1.355 . S
C456 C458 1.419 . S
C457 C452 1.425 . S
C457 C454 1.409 . S
C457 C455 1.415 . S
C458 H448 0.930 . S
C458 C456 1.419 . S
C458 C459 1.362 . S
C459 H449 0.930 . S
C459 C452 1.409 . S
C459 C458 1.362 . S
H460 C466 0.930 1_455 S
H461 C469 0.930 . S
H462 C470 0.930 . S
H463 C471 0.930 . S
H464 C474 0.930 . S
H465 C475 0.930 . S
C466 H460 0.930 1_655 S
C466 C467 1.355 . S
C466 C468 1.415 . S
C467 C466 1.355 . S
C467 C469 1.419 . S
C468 C466 1.415 . S
C468 C473 1.425 . S
C468 C475 1.409 . S
C469 H461 0.930 . S
C469 C467 1.419 . S
C469 C470 1.362 . S
C470 H462 0.930 . S
C470 C469 1.362 . S
C470 C473 1.409 . S
C471 H463 0.930 . S
C471 C472 1.355 . S
C471 C473 1.415 . S
C472 C471 1.355 . S
C472 C474 1.419 . S
C473 C468 1.425 . S
C473 C470 1.409 . S
C473 C471 1.415 . S
C474 H464 0.930 . S
C474 C472 1.419 . S
C474 C475 1.362 . S
C475 H465 0.930 . S
C475 C468 1.409 . S
C475 C474 1.362 . S
H476 C482 0.930 . S
H477 C485 0.930 . S
H478 C486 0.930 . S
H479 C487 0.930 . S
H480 C490 0.930 . S
H481 C491 0.930 . S
C482 H476 0.930 . S
C482 C483 1.355 . S
C482 C484 1.415 . S
C483 C482 1.355 . S
C483 C485 1.419 . S
C484 C482 1.415 . S
C484 C489 1.425 . S
C484 C491 1.409 . S
C485 H477 0.930 . S
C485 C483 1.419 . S
C485 C486 1.362 . S
C486 H478 0.930 . S
C486 C485 1.362 . S
C486 C489 1.409 . S
C487 H479 0.930 . S
C487 C488 1.355 . S
C487 C489 1.415 . S
C488 C487 1.355 . S
C488 C490 1.419 . S
C489 C484 1.425 . S
C489 C486 1.409 . S
C489 C487 1.415 . S
C490 H480 0.930 . S
C490 C488 1.419 . S
C490 C491 1.362 . S
C491 H481 0.930 . S
C491 C484 1.409 . S
C491 C490 1.362 . S
H492 C498 0.930 . S
H493 C501 0.930 . S
H494 C502 0.930 . S
H495 C503 0.930 . S
H496 C506 0.930 . S
H497 C507 0.930 1_455 S
C498 H492 0.930 . S
C498 C499 1.355 . S
C498 C500 1.415 . S
C499 C498 1.355 . S
C499 C501 1.419 . S
C500 C498 1.415 . S
C500 C505 1.425 . S
C500 C507 1.409 . S
C501 H493 0.930 . S
C501 C499 1.419 . S
C501 C502 1.362 . S
C502 H494 0.930 . S
C502 C501 1.362 . S
C502 C505 1.409 . S
C503 H495 0.930 . S
C503 C504 1.355 . S
C503 C505 1.415 . S
C504 C503 1.355 . S
C504 C506 1.419 1_655 S
C505 C500 1.425 . S
C505 C502 1.409 . S
C505 C503 1.415 . S
C506 H496 0.930 . S
C506 C504 1.419 1_455 S
C506 C507 1.362 1_455 S
C507 H497 0.930 1_655 S
C507 C500 1.409 . S
C507 C506 1.362 1_655 S
H508 C514 0.930 . S
H509 C517 0.930 . S
H510 C518 0.930 . S
H511 C519 0.930 . S
H512 C522 0.930 . S
H513 C523 0.930 . S
C514 H508 0.930 . S
C514 C515 1.355 . S
C514 C516 1.415 . S
C515 C514 1.355 . S
C515 C517 1.419 . S
C516 C514 1.415 . S
C516 C521 1.425 . S
C516 C523 1.409 . S
C517 H509 0.930 . S
C517 C515 1.419 . S
C517 C518 1.362 . S
C518 H510 0.930 . S
C518 C517 1.362 . S
C518 C521 1.409 . S
C519 H511 0.930 . S
C519 C520 1.355 . S
C519 C521 1.415 . S
C520 C519 1.355 . S
C520 C522 1.419 . S
C521 C516 1.425 . S
C521 C518 1.409 . S
C521 C519 1.415 . S
C522 H512 0.930 . S
C522 C520 1.419 . S
C522 C523 1.362 . S
C523 H513 0.930 . S
C523 C516 1.409 . S
C523 C522 1.362 . S
H524 C530 0.930 . S
H525 C533 0.930 . S
H526 C534 0.930 . S
H527 C535 0.930 . S
H528 C538 0.930 . S
H529 C539 0.930 . S
C530 H524 0.930 . S
C530 C531 1.355 . S
C530 C532 1.415 . S
C531 C530 1.355 . S
C531 C533 1.419 . S
C532 C530 1.415 . S
C532 C537 1.425 . S
C532 C539 1.409 . S
C533 H525 0.930 . S
C533 C531 1.419 . S
C533 C534 1.362 . S
C534 H526 0.930 . S
C534 C533 1.362 . S
C534 C537 1.409 . S
C535 H527 0.930 . S
C535 C536 1.355 . S
C535 C537 1.415 . S
C536 C535 1.355 . S
C536 C538 1.419 . S
C537 C532 1.425 . S
C537 C534 1.409 . S
C537 C535 1.415 . S
C538 H528 0.930 . S
C538 C536 1.419 . S
C538 C539 1.362 . S
C539 H529 0.930 . S
C539 C532 1.409 . S
C539 C538 1.362 . S
H540 C546 0.930 . S
H541 C549 0.930 . S
H542 C550 0.930 1_545 S
H543 C551 0.930 1_545 S
H544 C554 0.930 . S
H545 C555 0.930 . S
C546 H540 0.930 . S
C546 C547 1.355 . S
C546 C548 1.415 . S
C547 C546 1.355 . S
C547 C549 1.419 . S
C548 C546 1.415 . S
C548 C553 1.425 . S
C548 C555 1.409 . S
C549 H541 0.930 . S
C549 C547 1.419 . S
C549 C550 1.362 . S
C550 H542 0.930 1_565 S
C550 C549 1.362 . S
C550 C553 1.409 . S
C551 H543 0.930 1_565 S
C551 C552 1.355 . S
C551 C553 1.415 . S
C552 C551 1.355 . S
C552 C554 1.419 . S
C553 C548 1.425 . S
C553 C550 1.409 . S
C553 C551 1.415 . S
C554 H544 0.930 . S
C554 C552 1.419 . S
C554 C555 1.362 . S
C555 H545 0.930 . S
C555 C548 1.409 . S
C555 C554 1.362 . S
H556 C562 0.930 . S
H557 C565 0.930 . S
H558 C566 0.930 . S
H559 C567 0.930 . S
H560 C570 0.930 . S
H561 C571 0.930 . S
C562 H556 0.930 . S
C562 C563 1.355 . S
C562 C564 1.415 . S
C563 C562 1.355 . S
C563 C565 1.419 . S
C564 C562 1.415 . S
C564 C569 1.425 . S
C564 C571 1.409 . S
C565 H557 0.930 . S
C565 C563 1.419 . S
C565 C566 1.362 . S
C566 H558 0.930 . S
C566 C565 1.362 . S
C566 C569 1.409 . S
C567 H559 0.930 . S
C567 C568 1.355 . S
C567 C569 1.415 . S
C568 C567 1.355 . S
C568 C570 1.419 . S
C569 C564 1.425 . S
C569 C566 1.409 . S
C569 C567 1.415 . S
C570 H560 0.930 . S
C570 C568 1.419 . S
C570 C571 1.362 . S
C571 H561 0.930 . S
C571 C564 1.409 . S
C571 C570 1.362 . S
H572 C578 0.930 . S
H573 C581 0.930 . S
H574 C582 0.930 . S
H575 C583 0.930 . S
H576 C586 0.930 . S
H577 C587 0.930 . S
C578 H572 0.930 . S
C578 C579 1.355 . S
C578 C580 1.415 . S
C579 C578 1.355 . S
C579 C581 1.419 . S
C580 C578 1.415 . S
C580 C585 1.425 . S
C580 C587 1.409 . S
C581 H573 0.930 . S
C581 C579 1.419 . S
C581 C582 1.362 . S
C582 H574 0.930 . S
C582 C581 1.362 . S
C582 C585 1.409 . S
C583 H575 0.930 . S
C583 C584 1.355 . S
C583 C585 1.415 . S
C584 C583 1.355 . S
C584 C586 1.419 . S
C585 C580 1.425 . S
C585 C582 1.409 . S
C585 C583 1.415 . S
C586 H576 0.930 . S
C586 C584 1.419 . S
C586 C587 1.362 . S
C587 H577 0.930 . S
C587 C580 1.409 . S
C587 C586 1.362 . S
H588 C594 0.930 . S
H589 C597 0.930 . S
H590 C598 0.930 . S
H591 C599 0.930 . S
H592 C602 0.930 . S
H593 C603 0.930 . S
C594 H588 0.930 . S
C594 C595 1.355 . S
C594 C596 1.415 . S
C595 C594 1.355 . S
C595 C597 1.419 . S
C596 C594 1.415 . S
C596 C601 1.425 . S
C596 C603 1.409 . S
C597 H589 0.930 . S
C597 C595 1.419 . S
C597 C598 1.362 . S
C598 H590 0.930 . S
C598 C597 1.362 . S
C598 C601 1.409 . S
C599 H591 0.930 . S
C599 C600 1.355 . S
C599 C601 1.415 . S
C600 C599 1.355 . S
C600 C602 1.419 . S
C601 C596 1.425 . S
C601 C598 1.409 . S
C601 C599 1.415 . S
C602 H592 0.930 . S
C602 C600 1.419 . S
C602 C603 1.362 . S
C603 H593 0.930 . S
C603 C596 1.409 . S
C603 C602 1.362 . S
H604 C610 0.930 . S
H605 C613 0.930 . S
H606 C614 0.930 . S
H607 C615 0.930 . S
H608 C618 0.930 . S
H609 C619 0.930 . S
C610 H604 0.930 . S
C610 C611 1.355 . S
C610 C612 1.415 . S
C611 C610 1.355 . S
C611 C613 1.419 . S
C612 C610 1.415 . S
C612 C617 1.425 . S
C612 C619 1.409 . S
C613 H605 0.930 . S
C613 C611 1.419 . S
C613 C614 1.362 . S
C614 H606 0.930 . S
C614 C613 1.362 . S
C614 C617 1.409 . S
C615 H607 0.930 . S
C615 C616 1.355 . S
C615 C617 1.415 . S
C616 C615 1.355 . S
C616 C618 1.419 . S
C617 C612 1.425 . S
C617 C614 1.409 . S
C617 C615 1.415 . S
C618 H608 0.930 . S
C618 C616 1.419 . S
C618 C619 1.362 . S
C619 H609 0.930 . S
C619 C612 1.409 . S
C619 C618 1.362 . S
H620 C626 0.930 . S
H621 C629 0.930 . S
H622 C630 0.930 . S
H623 C631 0.930 . S
H624 C634 0.930 . S
H625 C635 0.930 . S
C626 H620 0.930 . S
C626 C627 1.355 . S
C626 C628 1.415 . S
C627 C626 1.355 . S
C627 C629 1.419 . S
C628 C626 1.415 . S
C628 C633 1.425 . S
C628 C635 1.409 . S
C629 H621 0.930 . S
C629 C627 1.419 . S
C629 C630 1.362 . S
C630 H622 0.930 . S
C630 C629 1.362 . S
C630 C633 1.409 . S
C631 H623 0.930 . S
C631 C632 1.355 . S
C631 C633 1.415 . S
C632 C631 1.355 . S
C632 C634 1.419 . S
C633 C628 1.425 . S
C633 C630 1.409 . S
C633 C631 1.415 . S
C634 H624 0.930 . S
C634 C632 1.419 . S
C634 C635 1.362 . S
C635 H625 0.930 . S
C635 C628 1.409 . S
C635 C634 1.362 . S
H636 C642 0.930 . S
H637 C645 0.930 . S
H638 C646 0.930 . S
H639 C647 0.930 . S
H640 C650 0.930 . S
H641 C651 0.930 . S
C642 H636 0.930 . S
C642 C643 1.355 . S
C642 C644 1.415 . S
C643 C642 1.355 . S
C643 C645 1.419 . S
C644 C642 1.415 . S
C644 C649 1.425 . S
C644 C651 1.409 . S
C645 H637 0.930 . S
C645 C643 1.419 . S
C645 C646 1.362 . S
C646 H638 0.930 . S
C646 C645 1.362 . S
C646 C649 1.409 . S
C647 H639 0.930 . S
C647 C648 1.355 . S
C647 C649 1.415 . S
C648 C647 1.355 . S
C648 C650 1.419 . S
C649 C644 1.425 . S
C649 C646 1.409 . S
C649 C647 1.415 . S
C650 H640 0.930 . S
C650 C648 1.419 . S
C650 C651 1.362 . S
C651 H641 0.930 . S
C651 C644 1.409 . S
C651 C650 1.362 . S
H652 C658 0.930 . S
H653 C661 0.930 . S
H654 C662 0.930 . S
H655 C663 0.930 . S
H656 C666 0.930 . S
H657 C667 0.930 . S
C658 H652 0.930 . S
C658 C659 1.355 . S
C658 C660 1.415 . S
C659 C658 1.355 . S
C659 C661 1.419 . S
C660 C658 1.415 . S
C660 C665 1.425 . S
C660 C667 1.409 . S
C661 H653 0.930 . S
C661 C659 1.419 . S
C661 C662 1.362 . S
C662 H654 0.930 . S
C662 C661 1.362 . S
C662 C665 1.409 . S
C663 H655 0.930 . S
C663 C664 1.355 . S
C663 C665 1.415 . S
C664 C663 1.355 . S
C664 C666 1.419 . S
C665 C660 1.425 . S
C665 C662 1.409 . S
C665 C663 1.415 . S
C666 H656 0.930 . S
C666 C664 1.419 . S
C666 C667 1.362 . S
C667 H657 0.930 . S
C667 C660 1.409 . S
C667 C666 1.362 . S
H668 C674 0.930 . S
H669 C677 0.930 . S
H670 C678 0.930 . S
H671 C679 0.930 . S
H672 C682 0.930 . S
H673 C683 0.930 . S
C674 H668 0.930 . S
C674 C675 1.355 . S
C674 C676 1.415 . S
C675 C674 1.355 . S
C675 C677 1.419 . S
C676 C674 1.415 . S
C676 C681 1.425 . S
C676 C683 1.409 . S
C677 H669 0.930 . S
C677 C675 1.419 . S
C677 C678 1.362 . S
C678 H670 0.930 . S
C678 C677 1.362 . S
C678 C681 1.409 . S
C679 H671 0.930 . S
C679 C680 1.355 . S
C679 C681 1.415 . S
C680 C679 1.355 . S
C680 C682 1.419 . S
C681 C676 1.425 . S
C681 C678 1.409 . S
C681 C679 1.415 . S
C682 H672 0.930 . S
C682 C680 1.419 . S
C682 C683 1.362 . S
C683 H673 0.930 . S
C683 C676 1.409 . S
C683 C682 1.362 . S
H684 C690 0.930 . S
H685 C693 0.930 . S
H686 C694 0.930 . S
H687 C695 0.930 . S
H688 C698 0.930 . S
H689 C699 0.930 . S
C690 H684 0.930 . S
C690 C691 1.355 . S
C690 C692 1.415 . S
C691 C690 1.355 . S
C691 C693 1.419 . S
C692 C690 1.415 . S
C692 C697 1.425 . S
C692 C699 1.409 . S
C693 H685 0.930 . S
C693 C691 1.419 . S
C693 C694 1.362 . S
C694 H686 0.930 . S
C694 C693 1.362 . S
C694 C697 1.409 . S
C695 H687 0.930 . S
C695 C696 1.355 . S
C695 C697 1.415 . S
C696 C695 1.355 . S
C696 C698 1.419 . S
C697 C692 1.425 . S
C697 C694 1.409 . S
C697 C695 1.415 . S
C698 H688 0.930 . S
C698 C696 1.419 . S
C698 C699 1.362 . S
C699 H689 0.930 . S
C699 C692 1.409 . S
C699 C698 1.362 . S
H700 C706 0.930 . S
H701 C709 0.930 . S
H702 C710 0.930 . S
H703 C711 0.930 . S
H704 C714 0.930 . S
H705 C715 0.930 . S
C706 H700 0.930 . S
C706 C707 1.355 . S
C706 C708 1.415 . S
C707 C706 1.355 . S
C707 C709 1.419 . S
C708 C706 1.415 . S
C708 C713 1.425 . S
C708 C715 1.409 . S
C709 H701 0.930 . S
C709 C707 1.419 . S
C709 C710 1.362 . S
C710 H702 0.930 . S
C710 C709 1.362 . S
C710 C713 1.409 . S
C711 H703 0.930 . S
C711 C712 1.355 . S
C711 C713 1.415 . S
C712 C711 1.355 . S
C712 C714 1.419 . S
C713 C708 1.425 . S
C713 C710 1.409 . S
C713 C711 1.415 . S
C714 H704 0.930 . S
C714 C712 1.419 . S
C714 C715 1.362 . S
C715 H705 0.930 . S
C715 C708 1.409 . S
C715 C714 1.362 . S
H716 C722 0.930 . S
H717 C725 0.930 . S
H718 C726 0.930 . S
H719 C727 0.930 . S
H720 C730 0.930 . S
H721 C731 0.930 . S
C722 H716 0.930 . S
C722 C723 1.355 . S
C722 C724 1.415 . S
C723 C722 1.355 . S
C723 C725 1.419 . S
C724 C722 1.415 . S
C724 C729 1.425 . S
C724 C731 1.409 . S
C725 H717 0.930 . S
C725 C723 1.419 . S
C725 C726 1.362 . S
C726 H718 0.930 . S
C726 C725 1.362 . S
C726 C729 1.409 . S
C727 H719 0.930 . S
C727 C728 1.355 . S
C727 C729 1.415 . S
C728 C727 1.355 . S
C728 C730 1.419 . S
C729 C724 1.425 . S
C729 C726 1.409 . S
C729 C727 1.415 . S
C730 H720 0.930 . S
C730 C728 1.419 . S
C730 C731 1.362 . S
C731 H721 0.930 . S
C731 C724 1.409 . S
C731 C730 1.362 . S
H732 C738 0.930 . S
H733 C741 0.930 . S
H734 C742 0.930 . S
H735 C743 0.930 . S
H736 C746 0.930 1_554 S
H737 C747 0.930 . S
C738 H732 0.930 . S
C738 C739 1.355 . S
C738 C740 1.415 . S
C739 C738 1.355 . S
C739 C741 1.419 1_554 S
C740 C738 1.415 . S
C740 C745 1.425 1_554 S
C740 C747 1.409 . S
C741 H733 0.930 . S
C741 C739 1.419 1_556 S
C741 C742 1.362 . S
C742 H734 0.930 . S
C742 C741 1.362 . S
C742 C745 1.409 . S
C743 H735 0.930 . S
C743 C744 1.355 . S
C743 C745 1.415 . S
C744 C743 1.355 . S
C744 C746 1.419 . S
C745 C740 1.425 1_556 S
C745 C742 1.409 . S
C745 C743 1.415 . S
C746 H736 0.930 1_556 S
C746 C744 1.419 . S
C746 C747 1.362 1_556 S
C747 H737 0.930 . S
C747 C740 1.409 . S
C747 C746 1.362 1_554 S
H748 C754 0.930 . S
H749 C757 0.930 . S
H750 C758 0.930 . S
H751 C759 0.930 . S
H752 C762 0.930 . S
H753 C763 0.930 . S
C754 H748 0.930 . S
C754 C755 1.355 1_556 S
C754 C756 1.415 . S
C755 C754 1.355 1_554 S
C755 C757 1.419 . S
C756 C754 1.415 . S
C756 C761 1.425 . S
C756 C763 1.409 . S
C757 H749 0.930 . S
C757 C755 1.419 . S
C757 C758 1.362 . S
C758 H750 0.930 . S
C758 C757 1.362 . S
C758 C761 1.409 1_554 S
C759 H751 0.930 . S
C759 C760 1.355 . S
C759 C761 1.415 . S
C760 C759 1.355 . S
C760 C762 1.419 . S
C761 C756 1.425 . S
C761 C758 1.409 1_556 S
C761 C759 1.415 . S
C762 H752 0.930 . S
C762 C760 1.419 . S
C762 C763 1.362 . S
C763 H753 0.930 . S
C763 C756 1.409 . S
C763 C762 1.362 . S
H764 C770 0.930 . S
H765 C773 0.930 . S
H766 C774 0.930 . S
H767 C775 0.930 . S
H768 C778 0.930 . S
H769 C779 0.930 . S
C770 H764 0.930 . S
C770 C771 1.355 1_556 S
C770 C772 1.415 . S
C771 C770 1.355 1_554 S
C771 C773 1.419 . S
C772 C770 1.415 . S
C772 C777 1.425 . S
C772 C779 1.409 . S
C773 H765 0.930 . S
C773 C771 1.419 . S
C773 C774 1.362 . S
C774 H766 0.930 . S
C774 C773 1.362 . S
C774 C777 1.409 1_554 S
C775 H767 0.930 . S
C775 C776 1.355 . S
C775 C777 1.415 . S
C776 C775 1.355 . S
C776 C778 1.419 . S
C777 C772 1.425 . S
C777 C774 1.409 1_556 S
C777 C775 1.415 . S
C778 H768 0.930 . S
C778 C776 1.419 . S
C778 C779 1.362 . S
C779 H769 0.930 . S
C779 C772 1.409 . S
C779 C778 1.362 . S
H780 C786 0.930 . S
H781 C789 0.930 . S
H782 C790 0.930 . S
H783 C791 0.930 . S
H784 C794 0.930 . S
H785 C795 0.930 . S
C786 H780 0.930 . S
C786 C787 1.355 . S
C786 C788 1.415 . S
C787 C786 1.355 . S
C787 C789 1.419 . S
C788 C786 1.415 . S
C788 C793 1.425 . S
C788 C795 1.409 . S
C789 H781 0.930 . S
C789 C787 1.419 . S
C789 C790 1.362 . S
C790 H782 0.930 . S
C790 C789 1.362 . S
C790 C793 1.409 . S
C791 H783 0.930 . S
C791 C792 1.355 . S
C791 C793 1.415 . S
C792 C791 1.355 . S
C792 C794 1.419 . S
C793 C788 1.425 . S
C793 C790 1.409 . S
C793 C791 1.415 . S
C794 H784 0.930 . S
C794 C792 1.419 . S
C794 C795 1.362 . S
C795 H785 0.930 . S
C795 C788 1.409 . S
C795 C794 1.362 . S
H796 C802 0.930 . S
H797 C805 0.930 . S
H798 C806 0.930 . S
H799 C807 0.930 . S
H800 C810 0.930 . S
H801 C811 0.930 . S
C802 H796 0.930 . S
C802 C803 1.355 . S
C802 C804 1.415 . S
C803 C802 1.355 . S
C803 C805 1.419 . S
C804 C802 1.415 . S
C804 C809 1.425 . S
C804 C811 1.409 . S
C805 H797 0.930 . S
C805 C803 1.419 . S
C805 C806 1.362 . S
C806 H798 0.930 . S
C806 C805 1.362 . S
C806 C809 1.409 . S
C807 H799 0.930 . S
C807 C808 1.355 . S
C807 C809 1.415 . S
C808 C807 1.355 . S
C808 C810 1.419 . S
C809 C804 1.425 . S
C809 C806 1.409 . S
C809 C807 1.415 . S
C810 H800 0.930 . S
C810 C808 1.419 . S
C810 C811 1.362 . S
C811 H801 0.930 . S
C811 C804 1.409 . S
C811 C810 1.362 . S
H812 C818 0.930 . S
H813 C821 0.930 . S
H814 C822 0.930 . S
H815 C823 0.930 . S
H816 C826 0.930 . S
H817 C827 0.930 . S
C818 H812 0.930 . S
C818 C819 1.355 . S
C818 C820 1.415 . S
C819 C818 1.355 . S
C819 C821 1.419 . S
C820 C818 1.415 . S
C820 C825 1.425 . S
C820 C827 1.409 . S
C821 H813 0.930 . S
C821 C819 1.419 . S
C821 C822 1.362 . S
C822 H814 0.930 . S
C822 C821 1.362 . S
C822 C825 1.409 . S
C823 H815 0.930 . S
C823 C824 1.355 . S
C823 C825 1.415 . S
C824 C823 1.355 . S
C824 C826 1.419 . S
C825 C820 1.425 . S
C825 C822 1.409 . S
C825 C823 1.415 . S
C826 H816 0.930 . S
C826 C824 1.419 . S
C826 C827 1.362 . S
C827 H817 0.930 . S
C827 C820 1.409 . S
C827 C826 1.362 . S
H828 C834 0.930 . S
H829 C837 0.930 . S
H830 C838 0.930 . S
H831 C839 0.930 1_556 S
H832 C842 0.930 . S
H833 C843 0.930 . S
C834 H828 0.930 . S
C834 C835 1.355 1_554 S
C834 C836 1.415 . S
C835 C834 1.355 1_556 S
C835 C837 1.419 . S
C836 C834 1.415 . S
C836 C841 1.425 . S
C836 C843 1.409 . S
C837 H829 0.930 . S
C837 C835 1.419 . S
C837 C838 1.362 . S
C838 H830 0.930 . S
C838 C837 1.362 . S
C838 C841 1.409 1_556 S
C839 H831 0.930 1_554 S
C839 C840 1.355 . S
C839 C841 1.415 . S
C840 C839 1.355 . S
C840 C842 1.419 . S
C841 C836 1.425 . S
C841 C838 1.409 1_554 S
C841 C839 1.415 . S
C842 H832 0.930 . S
C842 C840 1.419 . S
C842 C843 1.362 . S
C843 H833 0.930 . S
C843 C836 1.409 . S
C843 C842 1.362 . S
H844 C850 0.930 . S
H845 C853 0.930 . S
H846 C854 0.930 . S
H847 C855 0.930 . S
H848 C858 0.930 . S
H849 C859 0.930 . S
C850 H844 0.930 . S
C850 C851 1.355 1_554 S
C850 C852 1.415 . S
C851 C850 1.355 1_556 S
C851 C853 1.419 . S
C852 C850 1.415 . S
C852 C857 1.425 . S
C852 C859 1.409 . S
C853 H845 0.930 . S
C853 C851 1.419 . S
C853 C854 1.362 . S
C854 H846 0.930 . S
C854 C853 1.362 . S
C854 C857 1.409 1_556 S
C855 H847 0.930 . S
C855 C856 1.355 . S
C855 C857 1.415 . S
C856 C855 1.355 . S
C856 C858 1.419 . S
C857 C852 1.425 . S
C857 C854 1.409 1_554 S
C857 C855 1.415 . S
C858 H848 0.930 . S
C858 C856 1.419 . S
C858 C859 1.362 . S
C859 H849 0.930 . S
C859 C852 1.409 . S
C859 C858 1.362 . S
H860 C866 0.930 . S
H861 C869 0.930 . S
H862 C870 0.930 . S
H863 C871 0.930 . S
H864 C874 0.930 . S
H865 C875 0.930 . S
C866 H860 0.930 . S
C866 C867 1.355 1_554 S
C866 C868 1.415 . S
C867 C866 1.355 1_556 S
C867 C869 1.419 . S
C868 C866 1.415 . S
C868 C873 1.425 . S
C868 C875 1.409 . S
C869 H861 0.930 . S
C869 C867 1.419 . S
C869 C870 1.362 . S
C870 H862 0.930 . S
C870 C869 1.362 . S
C870 C873 1.409 1_556 S
C871 H863 0.930 . S
C871 C872 1.355 . S
C871 C873 1.415 . S
C872 C871 1.355 . S
C872 C874 1.419 . S
C873 C868 1.425 . S
C873 C870 1.409 1_554 S
C873 C871 1.415 . S
C874 H864 0.930 . S
C874 C872 1.419 . S
C874 C875 1.362 . S
C875 H865 0.930 . S
C875 C868 1.409 . S
C875 C874 1.362 . S
H876 C882 0.930 . S
H877 C885 0.930 . S
H878 C886 0.930 . S
H879 C887 0.930 . S
H880 C890 0.930 . S
H881 C891 0.930 . S
C882 H876 0.930 . S
C882 C883 1.355 . S
C882 C884 1.415 . S
C883 C882 1.355 . S
C883 C885 1.419 . S
C884 C882 1.415 . S
C884 C889 1.425 . S
C884 C891 1.409 . S
C885 H877 0.930 . S
C885 C883 1.419 . S
C885 C886 1.362 . S
C886 H878 0.930 . S
C886 C885 1.362 . S
C886 C889 1.409 . S
C887 H879 0.930 . S
C887 C888 1.355 . S
C887 C889 1.415 . S
C888 C887 1.355 . S
C888 C890 1.419 . S
C889 C884 1.425 . S
C889 C886 1.409 . S
C889 C887 1.415 . S
C890 H880 0.930 . S
C890 C888 1.419 . S
C890 C891 1.362 . S
C891 H881 0.930 . S
C891 C884 1.409 . S
C891 C890 1.362 . S
H892 C898 0.930 . S
H893 C901 0.930 . S
H894 C902 0.930 . S
H895 C903 0.930 . S
H896 C906 0.930 . S
H897 C907 0.930 . S
C898 H892 0.930 . S
C898 C899 1.355 . S
C898 C900 1.415 . S
C899 C898 1.355 . S
C899 C901 1.419 . S
C900 C898 1.415 . S
C900 C905 1.425 . S
C900 C907 1.409 . S
C901 H893 0.930 . S
C901 C899 1.419 . S
C901 C902 1.362 . S
C902 H894 0.930 . S
C902 C901 1.362 . S
C902 C905 1.409 . S
C903 H895 0.930 . S
C903 C904 1.355 . S
C903 C905 1.415 . S
C904 C903 1.355 . S
C904 C906 1.419 . S
C905 C900 1.425 . S
C905 C902 1.409 . S
C905 C903 1.415 . S
C906 H896 0.930 . S
C906 C904 1.419 . S
C906 C907 1.362 . S
C907 H897 0.930 . S
C907 C900 1.409 . S
C907 C906 1.362 . S
H908 C914 0.930 . S
H909 C917 0.930 . S
H910 C918 0.930 . S
H911 C919 0.930 . S
H912 C922 0.930 . S
H913 C923 0.930 . S
C914 H908 0.930 . S
C914 C915 1.355 . S
C914 C916 1.415 . S
C915 C914 1.355 . S
C915 C917 1.419 . S
C916 C914 1.415 . S
C916 C921 1.425 . S
C916 C923 1.409 . S
C917 H909 0.930 . S
C917 C915 1.419 . S
C917 C918 1.362 . S
C918 H910 0.930 . S
C918 C917 1.362 . S
C918 C921 1.409 . S
C919 H911 0.930 . S
C919 C920 1.355 . S
C919 C921 1.415 . S
C920 C919 1.355 . S
C920 C922 1.419 . S
C921 C916 1.425 . S
C921 C918 1.409 . S
C921 C919 1.415 . S
C922 H912 0.930 . S
C922 C920 1.419 . S
C922 C923 1.362 . S
C923 H913 0.930 . S
C923 C916 1.409 . S
C923 C922 1.362 . S
H924 C930 0.930 . S
H925 C933 0.930 . S
H926 C934 0.930 . S
H927 C935 0.930 . S
H928 C938 0.930 . S
H929 C939 0.930 . S
C930 H924 0.930 . S
C930 C931 1.355 . S
C930 C932 1.415 . S
C931 C930 1.355 . S
C931 C933 1.419 . S
C932 C930 1.415 . S
C932 C937 1.425 . S
C932 C939 1.409 . S
C933 H925 0.930 . S
C933 C931 1.419 . S
C933 C934 1.362 . S
C934 H926 0.930 . S
C934 C933 1.362 . S
C934 C937 1.409 . S
C935 H927 0.930 . S
C935 C936 1.355 . S
C935 C937 1.415 . S
C936 C935 1.355 . S
C936 C938 1.419 . S
C937 C932 1.425 . S
C937 C934 1.409 . S
C937 C935 1.415 . S
C938 H928 0.930 . S
C938 C936 1.419 . S
C938 C939 1.362 . S
C939 H929 0.930 . S
C939 C932 1.409 . S
C939 C938 1.362 . S
H940 C946 0.930 . S
H941 C949 0.930 . S
H942 C950 0.930 . S
H943 C951 0.930 . S
H944 C954 0.930 . S
H945 C955 0.930 . S
C946 H940 0.930 . S
C946 C947 1.355 . S
C946 C948 1.415 . S
C947 C946 1.355 . S
C947 C949 1.419 . S
C948 C946 1.415 . S
C948 C953 1.425 . S
C948 C955 1.409 . S
C949 H941 0.930 . S
C949 C947 1.419 . S
C949 C950 1.362 . S
C950 H942 0.930 . S
C950 C949 1.362 . S
C950 C953 1.409 . S
C951 H943 0.930 . S
C951 C952 1.355 . S
C951 C953 1.415 . S
C952 C951 1.355 . S
C952 C954 1.419 . S
C953 C948 1.425 . S
C953 C950 1.409 . S
C953 C951 1.415 . S
C954 H944 0.930 . S
C954 C952 1.419 . S
C954 C955 1.362 . S
C955 H945 0.930 . S
C955 C948 1.409 . S
C955 C954 1.362 . S
H956 C962 0.930 . S
H957 C965 0.930 . S
H958 C966 0.930 . S
H959 C967 0.930 . S
H960 C970 0.930 . S
H961 C971 0.930 . S
C962 H956 0.930 . S
C962 C963 1.355 . S
C962 C964 1.415 . S
C963 C962 1.355 . S
C963 C965 1.419 . S
C964 C962 1.415 . S
C964 C969 1.425 . S
C964 C971 1.409 . S
C965 H957 0.930 . S
C965 C963 1.419 . S
C965 C966 1.362 . S
C966 H958 0.930 . S
C966 C965 1.362 . S
C966 C969 1.409 . S
C967 H959 0.930 . S
C967 C968 1.355 . S
C967 C969 1.415 . S
C968 C967 1.355 . S
C968 C970 1.419 . S
C969 C964 1.425 . S
C969 C966 1.409 . S
C969 C967 1.415 . S
C970 H960 0.930 . S
C970 C968 1.419 . S
C970 C971 1.362 . S
C971 H961 0.930 . S
C971 C964 1.409 . S
C971 C970 1.362 . S
H972 C978 0.930 . S
H973 C981 0.930 . S
H974 C982 0.930 . S
H975 C983 0.930 . S
H976 C986 0.930 . S
H977 C987 0.930 . S
C978 H972 0.930 . S
C978 C979 1.355 . S
C978 C980 1.415 . S
C979 C978 1.355 . S
C979 C981 1.419 . S
C980 C978 1.415 . S
C980 C985 1.425 . S
C980 C987 1.409 . S
C981 H973 0.930 . S
C981 C979 1.419 . S
C981 C982 1.362 . S
C982 H974 0.930 . S
C982 C981 1.362 . S
C982 C985 1.409 . S
C983 H975 0.930 . S
C983 C984 1.355 . S
C983 C985 1.415 . S
C984 C983 1.355 . S
C984 C986 1.419 . S
C985 C980 1.425 . S
C985 C982 1.409 . S
C985 C983 1.415 . S
C986 H976 0.930 . S
C986 C984 1.419 . S
C986 C987 1.362 . S
C987 H977 0.930 . S
C987 C980 1.409 . S
C987 C986 1.362 . S
H988 C994 0.930 . S
H989 C997 0.930 . S
H990 C998 0.930 . S
H991 C999 0.930 . S
H992 C1002 0.930 . S
H993 C1003 0.930 . S
C994 H988 0.930 . S
C994 C995 1.355 . S
C994 C996 1.415 . S
C995 C994 1.355 . S
C995 C997 1.419 . S
C996 C994 1.415 . S
C996 C1001 1.425 . S
C996 C1003 1.409 . S
C997 H989 0.930 . S
C997 C995 1.419 . S
C997 C998 1.362 . S
C998 H990 0.930 . S
C998 C997 1.362 . S
C998 C1001 1.409 . S
C999 H991 0.930 . S
C999 C1000 1.355 . S
C999 C1001 1.415 . S
C1000 C999 1.355 . S
C1000 C1002 1.419 . S
C1001 C996 1.425 . S
C1001 C998 1.409 . S
C1001 C999 1.415 . S
C1002 H992 0.930 . S
C1002 C1000 1.419 . S
C1002 C1003 1.362 . S
C1003 H993 0.930 . S
C1003 C996 1.409 . S
C1003 C1002 1.362 . S
H1004 C1010 0.930 . S
H1005 C1013 0.930 . S
H1006 C1014 0.930 . S
H1007 C1015 0.930 . S
H1008 C1018 0.930 . S
H1009 C1019 0.930 . S
C1010 H1004 0.930 . S
C1010 C1011 1.355 . S
C1010 C1012 1.415 . S
C1011 C1010 1.355 . S
C1011 C1013 1.419 . S
C1012 C1010 1.415 . S
C1012 C1017 1.425 . S
C1012 C1019 1.409 . S
C1013 H1005 0.930 . S
C1013 C1011 1.419 . S
C1013 C1014 1.362 . S
C1014 H1006 0.930 . S
C1014 C1013 1.362 . S
C1014 C1017 1.409 . S
C1015 H1007 0.930 . S
C1015 C1016 1.355 . S
C1015 C1017 1.415 . S
C1016 C1015 1.355 . S
C1016 C1018 1.419 . S
C1017 C1012 1.425 . S
C1017 C1014 1.409 . S
C1017 C1015 1.415 . S
C1018 H1008 0.930 . S
C1018 C1016 1.419 . S
C1018 C1019 1.362 . S
C1019 H1009 0.930 . S
C1019 C1012 1.409 . S
C1019 C1018 1.362 . S
H1020 C1026 0.930 . S
H1021 C1029 0.930 . S
H1022 C1030 0.930 . S
H1023 C1031 0.930 . S
H1024 C1034 0.930 . S
H1025 C1035 0.930 . S
C1026 H1020 0.930 . S
C1026 C1027 1.355 . S
C1026 C1028 1.415 . S
C1027 C1026 1.355 . S
C1027 C1029 1.419 . S
C1028 C1026 1.415 . S
C1028 C1033 1.425 . S
C1028 C1035 1.409 . S
C1029 H1021 0.930 . S
C1029 C1027 1.419 . S
C1029 C1030 1.362 . S
C1030 H1022 0.930 . S
C1030 C1029 1.362 . S
C1030 C1033 1.409 . S
C1031 H1023 0.930 . S
C1031 C1032 1.355 . S
C1031 C1033 1.415 . S
C1032 C1031 1.355 . S
C1032 C1034 1.419 . S
C1033 C1028 1.425 . S
C1033 C1030 1.409 . S
C1033 C1031 1.415 . S
C1034 H1024 0.930 . S
C1034 C1032 1.419 . S
C1034 C1035 1.362 . S
C1035 H1025 0.930 . S
C1035 C1028 1.409 . S
C1035 C1034 1.362 . S
H1036 C1042 0.930 . S
H1037 C1045 0.930 . S
H1038 C1046 0.930 . S
H1039 C1047 0.930 . S
H1040 C1050 0.930 . S
H1041 C1051 0.930 1_455 S
C1042 H1036 0.930 . S
C1042 C1043 1.355 . S
C1042 C1044 1.415 . S
C1043 C1042 1.355 . S
C1043 C1045 1.419 . S
C1044 C1042 1.415 . S
C1044 C1049 1.425 . S
C1044 C1051 1.409 . S
C1045 H1037 0.930 . S
C1045 C1043 1.419 . S
C1045 C1046 1.362 . S
C1046 H1038 0.930 . S
C1046 C1045 1.362 . S
C1046 C1049 1.409 . S
C1047 H1039 0.930 . S
C1047 C1048 1.355 . S
C1047 C1049 1.415 . S
C1048 C1047 1.355 . S
C1048 C1050 1.419 . S
C1049 C1044 1.425 . S
C1049 C1046 1.409 . S
C1049 C1047 1.415 . S
C1050 H1040 0.930 . S
C1050 C1048 1.419 . S
C1050 C1051 1.362 . S
C1051 H1041 0.930 1_655 S
C1051 C1044 1.409 . S
C1051 C1050 1.362 . S
H1052 C1058 0.930 . S
H1053 C1061 0.930 . S
H1054 C1062 0.930 . S
H1055 C1063 0.930 . S
H1056 C1066 0.922 1_556 S
H1057 C1067 0.930 . S
C1058 H1052 0.930 . S
C1058 C1059 1.355 . S
C1058 C1060 1.415 . S
C1059 C1058 1.355 . S
C1059 C1061 1.419 . S
C1060 C1058 1.415 . S
C1060 C1065 1.425 . S
C1060 C1067 1.409 . S
C1061 H1053 0.930 . S
C1061 C1059 1.419 . S
C1061 C1062 1.362 . S
C1062 H1054 0.930 . S
C1062 C1061 1.362 . S
C1062 C1065 1.409 . S
C1063 H1055 0.930 . S
C1063 C1064 1.355 . S
C1063 C1065 1.415 . S
C1064 C1063 1.355 . S
C1064 C1066 1.419 . S
C1065 C1060 1.425 . S
C1065 C1062 1.409 . S
C1065 C1063 1.415 . S
C1066 H1056 0.922 1_554 S
C1066 C1064 1.419 . S
C1066 C1067 1.362 . S
C1067 H1057 0.930 . S
C1067 C1060 1.409 . S
C1067 C1066 1.362 . S
H1068 C1074 0.930 . S
H1069 C1077 0.930 . S
H1070 C1078 0.930 . S
H1071 C1079 0.930 . S
H1072 C1082 0.930 . S
H1073 C1083 0.930 . S
C1074 H1068 0.930 . S
C1074 C1075 1.355 . S
C1074 C1076 1.415 . S
C1075 C1074 1.355 . S
C1075 C1077 1.419 . S
C1076 C1074 1.415 . S
C1076 C1081 1.425 . S
C1076 C1083 1.409 . S
C1077 H1069 0.930 . S
C1077 C1075 1.419 . S
C1077 C1078 1.362 . S
C1078 H1070 0.930 . S
C1078 C1077 1.362 . S
C1078 C1081 1.409 . S
C1079 H1071 0.930 . S
C1079 C1080 1.355 . S
C1079 C1081 1.415 . S
C1080 C1079 1.355 . S
C1080 C1082 1.419 . S
C1081 C1076 1.425 . S
C1081 C1078 1.409 . S
C1081 C1079 1.415 . S
C1082 H1072 0.930 . S
C1082 C1080 1.419 . S
C1082 C1083 1.362 . S
C1083 H1073 0.930 . S
C1083 C1076 1.409 . S
C1083 C1082 1.362 . S
H1084 C1090 0.930 . S
H1085 C1093 0.930 . S
H1086 C1094 0.930 . S
H1087 C1095 0.930 . S
H1088 C1098 0.930 . S
H1089 C1099 0.930 . S
C1090 H1084 0.930 . S
C1090 C1091 1.355 . S
C1090 C1092 1.415 . S
C1091 C1090 1.355 . S
C1091 C1093 1.419 . S
C1092 C1090 1.415 . S
C1092 C1097 1.425 . S
C1092 C1099 1.409 . S
C1093 H1085 0.930 . S
C1093 C1091 1.419 . S
C1093 C1094 1.362 . S
C1094 H1086 0.930 . S
C1094 C1093 1.362 . S
C1094 C1097 1.409 . S
C1095 H1087 0.930 . S
C1095 C1096 1.355 . S
C1095 C1097 1.415 . S
C1096 C1095 1.355 . S
C1096 C1098 1.419 . S
C1097 C1092 1.425 . S
C1097 C1094 1.409 . S
C1097 C1095 1.415 . S
C1098 H1088 0.930 . S
C1098 C1096 1.419 . S
C1098 C1099 1.362 . S
C1099 H1089 0.930 . S
C1099 C1092 1.409 . S
C1099 C1098 1.362 . S
H1100 C1106 0.930 . S
H1101 C1109 0.930 1_565 S
H1102 C1110 0.930 1_565 S
H1103 C1111 0.930 . S
H1104 C1114 0.930 . S
H1105 C1115 0.930 . S
C1106 H1100 0.930 . S
C1106 C1107 1.355 . S
C1106 C1108 1.415 . S
C1107 C1106 1.355 . S
C1107 C1109 1.419 . S
C1108 C1106 1.415 . S
C1108 C1113 1.425 . S
C1108 C1115 1.409 . S
C1109 H1101 0.930 1_545 S
C1109 C1107 1.419 . S
C1109 C1110 1.362 . S
C1110 H1102 0.930 1_545 S
C1110 C1109 1.362 . S
C1110 C1113 1.409 . S
C1111 H1103 0.930 . S
C1111 C1112 1.355 . S
C1111 C1113 1.415 . S
C1112 C1111 1.355 . S
C1112 C1114 1.419 . S
C1113 C1108 1.425 . S
C1113 C1110 1.409 . S
C1113 C1111 1.415 . S
C1114 H1104 0.930 . S
C1114 C1112 1.419 . S
C1114 C1115 1.362 . S
C1115 H1105 0.930 . S
C1115 C1108 1.409 . S
C1115 C1114 1.362 . S
H1116 C1122 0.930 1_545 S
H1117 C1125 0.930 . S
H1118 C1126 0.930 . S
H1119 C1127 0.930 . S
H1120 C1130 0.930 1_545 S
H1121 C1131 0.930 . S
C1122 H1116 0.930 1_565 S
C1122 C1123 1.355 . S
C1122 C1124 1.415 . S
C1123 C1122 1.355 . S
C1123 C1125 1.419 . S
C1124 C1122 1.415 . S
C1124 C1129 1.425 . S
C1124 C1131 1.409 1_565 S
C1125 H1117 0.930 . S
C1125 C1123 1.419 . S
C1125 C1126 1.362 . S
C1126 H1118 0.930 . S
C1126 C1125 1.362 . S
C1126 C1129 1.409 . S
C1127 H1119 0.930 . S
C1127 C1128 1.355 . S
C1127 C1129 1.415 . S
C1128 C1127 1.355 . S
C1128 C1130 1.419 . S
C1129 C1124 1.425 . S
C1129 C1126 1.409 . S
C1129 C1127 1.415 . S
C1130 H1120 0.930 1_565 S
C1130 C1128 1.419 . S
C1130 C1131 1.362 1_565 S
C1131 H1121 0.930 . S
C1131 C1124 1.409 1_545 S
C1131 C1130 1.362 1_545 S
H1132 C1138 0.930 . S
H1133 C1141 0.930 . S
H1134 C1142 0.930 . S
H1135 C1143 0.930 . S
H1136 C1146 0.930 . S
H1137 C1147 0.930 . S
C1138 H1132 0.930 . S
C1138 C1139 1.355 . S
C1138 C1140 1.415 . S
C1139 C1138 1.355 . S
C1139 C1141 1.419 . S
C1140 C1138 1.415 . S
C1140 C1145 1.425 . S
C1140 C1147 1.409 . S
C1141 H1133 0.930 . S
C1141 C1139 1.419 . S
C1141 C1142 1.362 . S
C1142 H1134 0.930 . S
C1142 C1141 1.362 . S
C1142 C1145 1.409 . S
C1143 H1135 0.930 . S
C1143 C1144 1.355 . S
C1143 C1145 1.415 . S
C1144 C1143 1.355 . S
C1144 C1146 1.419 . S
C1145 C1140 1.425 . S
C1145 C1142 1.409 . S
C1145 C1143 1.415 . S
C1146 H1136 0.930 . S
C1146 C1144 1.419 . S
C1146 C1147 1.362 . S
C1147 H1137 0.930 . S
C1147 C1140 1.409 . S
C1147 C1146 1.362 . S
H1148 C1154 0.930 . S
H1149 C1157 0.930 . S
H1150 C1158 0.930 . S
H1151 C1159 0.930 . S
H1152 C1162 0.930 . S
H1153 C1163 0.930 . S
C1154 H1148 0.930 . S
C1154 C1155 1.355 . S
C1154 C1156 1.415 . S
C1155 C1154 1.355 . S
C1155 C1157 1.419 . S
C1156 C1154 1.415 . S
C1156 C1161 1.425 . S
C1156 C1163 1.409 . S
C1157 H1149 0.930 . S
C1157 C1155 1.419 . S
C1157 C1158 1.362 . S
C1158 H1150 0.930 . S
C1158 C1157 1.362 . S
C1158 C1161 1.409 . S
C1159 H1151 0.930 . S
C1159 C1160 1.355 . S
C1159 C1161 1.415 . S
C1160 C1159 1.355 . S
C1160 C1162 1.419 . S
C1161 C1156 1.425 . S
C1161 C1158 1.409 . S
C1161 C1159 1.415 . S
C1162 H1152 0.930 . S
C1162 C1160 1.419 . S
C1162 C1163 1.362 . S
C1163 H1153 0.930 . S
C1163 C1156 1.409 . S
C1163 C1162 1.362 . S
H1164 C1170 0.930 . S
H1165 C1173 0.930 . S
H1166 C1174 0.930 . S
H1167 C1175 0.930 . S
H1168 C1178 0.930 . S
H1169 C1179 0.930 . S
C1170 H1164 0.930 . S
C1170 C1171 1.355 1_545 S
C1170 C1172 1.415 . S
C1171 C1170 1.355 1_565 S
C1171 C1173 1.419 . S
C1172 C1170 1.415 . S
C1172 C1177 1.425 . S
C1172 C1179 1.409 . S
C1173 H1165 0.930 . S
C1173 C1171 1.419 . S
C1173 C1174 1.362 . S
C1174 H1166 0.930 . S
C1174 C1173 1.362 . S
C1174 C1177 1.409 1_565 S
C1175 H1167 0.930 . S
C1175 C1176 1.355 . S
C1175 C1177 1.415 . S
C1176 C1175 1.355 . S
C1176 C1178 1.419 . S
C1177 C1172 1.425 . S
C1177 C1174 1.409 1_545 S
C1177 C1175 1.415 . S
C1178 H1168 0.930 . S
C1178 C1176 1.419 . S
C1178 C1179 1.362 . S
C1179 H1169 0.930 . S
C1179 C1172 1.409 . S
C1179 C1178 1.362 . S
H1180 C1186 0.913 1_655 S
H1181 C1189 0.930 . S
H1182 C1190 0.930 . S
H1183 C1191 0.930 . S
H1184 C1194 0.930 . S
H1185 C1195 0.930 . S
C1186 H1180 0.913 1_455 S
C1186 C1187 1.375 . S
C1186 C1188 1.412 1_455 S
C1187 C1186 1.375 . S
C1187 C1189 1.419 . S
C1188 C1186 1.412 1_655 S
C1188 C1193 1.425 1_655 S
C1188 C1195 1.409 . S
C1189 H1181 0.930 . S
C1189 C1187 1.419 . S
C1189 C1190 1.362 . S
C1190 H1182 0.930 . S
C1190 C1189 1.362 . S
C1190 C1193 1.409 . S
C1191 H1183 0.930 . S
C1191 C1192 1.355 1_455 S
C1191 C1193 1.415 . S
C1192 C1191 1.355 1_655 S
C1192 C1194 1.419 . S
C1193 C1188 1.425 1_455 S
C1193 C1190 1.409 . S
C1193 C1191 1.415 . S
C1194 H1184 0.930 . S
C1194 C1192 1.419 . S
C1194 C1195 1.362 . S
C1195 H1185 0.930 . S
C1195 C1188 1.409 . S
C1195 C1194 1.362 . S
H1196 C1202 0.930 . S
H1197 C1205 0.930 . S
H1198 C1206 0.930 . S
H1199 C1207 0.930 . S
H1200 C1210 0.930 . S
H1201 C1211 0.930 . S
C1202 H1196 0.930 . S
C1202 C1203 1.355 . S
C1202 C1204 1.415 . S
C1203 C1202 1.355 . S
C1203 C1205 1.419 . S
C1204 C1202 1.415 . S
C1204 C1209 1.425 . S
C1204 C1211 1.409 . S
C1205 H1197 0.930 . S
C1205 C1203 1.419 . S
C1205 C1206 1.362 . S
C1206 H1198 0.930 . S
C1206 C1205 1.362 . S
C1206 C1209 1.409 . S
C1207 H1199 0.930 . S
C1207 C1208 1.355 . S
C1207 C1209 1.415 . S
C1208 C1207 1.355 . S
C1208 C1210 1.419 . S
C1209 C1204 1.425 . S
C1209 C1206 1.409 . S
C1209 C1207 1.415 . S
C1210 H1200 0.930 . S
C1210 C1208 1.419 . S
C1210 C1211 1.362 . S
C1211 H1201 0.930 . S
C1211 C1204 1.409 . S
C1211 C1210 1.362 . S
H1212 C1218 0.930 . S
H1213 C1221 0.930 1_655 S
H1214 C1222 0.930 . S
H1215 C1223 0.930 . S
H1216 C1226 0.930 . S
H1217 C1227 0.930 . S
C1218 H1212 0.930 . S
C1218 C1219 1.355 . S
C1218 C1220 1.415 . S
C1219 C1218 1.355 . S
C1219 C1221 1.419 . S
C1220 C1218 1.415 . S
C1220 C1225 1.425 . S
C1220 C1227 1.409 . S
C1221 H1213 0.930 1_455 S
C1221 C1219 1.419 . S
C1221 C1222 1.362 1_455 S
C1222 H1214 0.930 . S
C1222 C1221 1.362 1_655 S
C1222 C1225 1.409 1_655 S
C1223 H1215 0.930 . S
C1223 C1224 1.355 . S
C1223 C1225 1.415 1_655 S
C1224 C1223 1.355 . S
C1224 C1226 1.419 1_655 S
C1225 C1220 1.425 . S
C1225 C1222 1.409 1_455 S
C1225 C1223 1.415 1_455 S
C1226 H1216 0.930 . S
C1226 C1224 1.419 1_455 S
C1226 C1227 1.362 . S
C1227 H1217 0.930 . S
C1227 C1220 1.409 . S
C1227 C1226 1.362 . S
H1228 C1234 0.930 . S
H1229 C1237 0.930 . S
H1230 C1238 0.930 . S
H1231 C1239 0.930 . S
H1232 C1242 0.930 . S
H1233 C1243 0.930 . S
C1234 H1228 0.930 . S
C1234 C1235 1.355 . S
C1234 C1236 1.415 . S
C1235 C1234 1.355 . S
C1235 C1237 1.419 . S
C1236 C1234 1.415 . S
C1236 C1241 1.425 . S
C1236 C1243 1.409 . S
C1237 H1229 0.930 . S
C1237 C1235 1.419 . S
C1237 C1238 1.362 . S
C1238 H1230 0.930 . S
C1238 C1237 1.362 . S
C1238 C1241 1.409 . S
C1239 H1231 0.930 . S
C1239 C1240 1.355 . S
C1239 C1241 1.415 . S
C1240 C1239 1.355 . S
C1240 C1242 1.419 . S
C1241 C1236 1.425 . S
C1241 C1238 1.409 . S
C1241 C1239 1.415 . S
C1242 H1232 0.930 . S
C1242 C1240 1.419 . S
C1242 C1243 1.362 . S
C1243 H1233 0.930 . S
C1243 C1236 1.409 . S
C1243 C1242 1.362 . S
H1244 C1250 0.916 1_565 S
H1245 C1253 0.930 . S
H1246 C1254 0.930 . S
H1247 C1255 0.930 . S
H1248 C1258 0.930 . S
H1249 C1259 0.930 . S
C1250 H1244 0.916 1_545 S
C1250 C1251 1.370 . S
C1250 C1252 1.413 1_545 S
C1251 C1250 1.370 . S
C1251 C1253 1.419 . S
C1252 C1250 1.413 1_565 S
C1252 C1257 1.425 1_565 S
C1252 C1259 1.409 . S
C1253 H1245 0.930 . S
C1253 C1251 1.419 . S
C1253 C1254 1.362 . S
C1254 H1246 0.930 . S
C1254 C1253 1.362 . S
C1254 C1257 1.409 . S
C1255 H1247 0.930 . S
C1255 C1256 1.355 1_545 S
C1255 C1257 1.415 . S
C1256 C1255 1.355 1_565 S
C1256 C1258 1.419 . S
C1257 C1252 1.425 1_545 S
C1257 C1254 1.409 . S
C1257 C1255 1.415 . S
C1258 H1248 0.930 . S
C1258 C1256 1.419 . S
C1258 C1259 1.362 . S
C1259 H1249 0.930 . S
C1259 C1252 1.409 . S
C1259 C1258 1.362 . S
C403 C249 1.367 . S
C408 C8 1.384 . S
C419 C29 1.385 . S
C424 C213 1.381 . S
C435 C62 1.324 . S
C440 C241 1.257 . S
C451 C337 1.292 . S
C456 C51 1.357 . S
C467 C21 1.314 . S
C472 C370 1.306 . S
C483 C40 1.316 . S
C488 C381 1.270 . S
C499 C316 1.290 . S
C504 C84 1.329 . S
C515 C103 1.338 . S
C520 C282 1.265 . S
C531 C118 1.303 . S
C536 C307 1.273 . S
C547 C147 1.297 . S
C552 C131 1.323 . S
C563 C73 1.412 . S
C568 C175 1.366 . S
C579 C191 1.337 . S
C584 C98 1.341 . S
C595 C382 1.270 . S
C600 C140 1.326 . S
C611 C338 1.238 1_565 S
C616 C172 1.311 . S
C627 C367 1.251 . S
C632 C184 1.318 . S
C643 C87 1.310 . S
C648 C197 1.322 . S
C659 C96 1.326 . S
C664 C153 1.391 . S
C675 C161 1.377 . S
C680 C125 1.395 . S
C691 C54 1.328 . S
C696 C219 1.358 . S
C707 C18 1.279 . S
C712 C227 1.346 . S
C723 C257 1.388 . S
C728 C43 1.341 . S
C739 C252 1.330 . S
C744 C279 1.312 . S
C755 C206 1.315 . S
C760 C296 1.258 1_565 S
C771 C238 1.333 . S
C776 C315 1.315 . S
C787 C272 1.324 . S
C792 C128 1.323 . S
C803 C293 1.333 . S
C808 C76 1.355 . S
C819 C318 1.341 . S
C824 C95 1.334 . S
C835 C323 1.302 . S
C840 C216 1.326 . S
C851 C285 1.336 . S
C856 C230 1.333 . S
C867 C304 1.303 . S
C872 C250 1.261 1_655 S
C883 C340 1.357 . S
C888 C194 1.344 . S
C899 C373 1.324 . S
C904 C150 1.298 . S
C915 C164 1.309 1_655 S
C920 C384 1.311 . S
C931 C15 1.371 . S
C936 C389 1.358 . S
C947 C32 1.309 . S
C952 C345 1.364 . S
C963 C360 1.354 . S
C968 C65 1.292 . S
C979 C162 1.207 . S
C984 C7 1.207 . S
C995 C186 1.148 . S
C1000 C30 1.155 . S
C1011 C142 1.213 . S
C1016 C59 1.209 . S
C1027 C294 1.158 1_554 S
C1032 C52 1.169 . S
C1043 C10 1.206 . S
C1048 C329 1.209 1_554 S
C1059 C37 1.245 . S
C1064 C271 1.244 1_554 S
C1075 C81 1.223 . S
C1080 C359 1.224 . S
C1091 C106 1.193 . S
C1096 C392 1.192 . S
C1107 C117 1.206 . S
C1112 C348 1.199 . S
C1123 C120 1.186 . S
C1128 C228 1.176 1_556 S
C1139 C260 1.189 1_556 S
C1144 C74 1.181 . S
C1155 C109 1.209 . S
C1160 C208 1.209 1_556 S
C1171 C139 1.228 . S
C1176 C301 1.226 . S
C1187 C169 1.205 . S
C1192 C326 1.186 . S
C1203 C183 1.221 . S
C1208 C274 1.222 . S
C1219 C263 1.224 . S
C1224 C362 1.227 . S
C1235 C395 1.242 . S
C1240 C205 1.239 . S
C1251 C351 1.226 . S
C1256 C235 1.225 . S
