# Generated by pormake.
# Topology acs-a, (4)-cn, num edge types: 1
# Building blocks:
#     Node 0, Type 0, BuildingBlock: NAHDIM_clean_sbu_0, # of connection points: 4
#     Node 1, Type 0, BuildingBlock: NAHDIM_clean_sbu_0, # of connection points: 4
#     Node 2, Type 0, BuildingBlock: NAHDIM_clean_sbu_0, # of connection points: 4
#     Node 3, Type 0, BuildingBlock: NAHDIM_clean_sbu_0, # of connection points: 4
#     Node 4, Type 0, BuildingBlock: NAHDIM_clean_sbu_0, # of connection points: 4
#     Node 5, Type 0, BuildingBlock: NAHDIM_clean_sbu_0, # of connection points: 4
#     Node 6, Type 0, BuildingBlock: NAHDIM_clean_sbu_0, # of connection points: 4
#     Node 7, Type 0, BuildingBlock: NAHDIM_clean_sbu_0, # of connection points: 4
#     Node 8, Type 0, BuildingBlock: NAHDIM_clean_sbu_0, # of connection points: 4
#     Node 9, Type 0, BuildingBlock: NAHDIM_clean_sbu_0, # of connection points: 4
#     Node 10, Type 0, BuildingBlock: NAHDIM_clean_sbu_0, # of connection points: 4
#     Node 11, Type 0, BuildingBlock: NAHDIM_clean_sbu_0, # of connection points: 4
#     Edge 12, Type (0, 0), BuildingBlock: ZUJKAS_clean_linker_0, # of connection points: 2
#     Edge 13, Type (0, 0), BuildingBlock: ZUJKAS_clean_linker_0, # of connection points: 2
#     Edge 14, Type (0, 0), BuildingBlock: ZUJKAS_clean_linker_0, # of connection points: 2
#     Edge 15, Type (0, 0), BuildingBlock: ZUJKAS_clean_linker_0, # of connection points: 2
#     Edge 16, Type (0, 0), BuildingBlock: ZUJKAS_clean_linker_0, # of connection points: 2
#     Edge 17, Type (0, 0), BuildingBlock: ZUJKAS_clean_linker_0, # of connection points: 2
#     Edge 18, Type (0, 0), BuildingBlock: ZUJKAS_clean_linker_0, # of connection points: 2
#     Edge 19, Type (0, 0), BuildingBlock: ZUJKAS_clean_linker_0, # of connection points: 2
#     Edge 20, Type (0, 0), BuildingBlock: ZUJKAS_clean_linker_0, # of connection points: 2
#     Edge 21, Type (0, 0), BuildingBlock: ZUJKAS_clean_linker_0, # of connection points: 2
#     Edge 22, Type (0, 0), BuildingBlock: ZUJKAS_clean_linker_0, # of connection points: 2
#     Edge 23, Type (0, 0), BuildingBlock: ZUJKAS_clean_linker_0, # of connection points: 2
#     Edge 24, Type (0, 0), BuildingBlock: ZUJKAS_clean_linker_0, # of connection points: 2
#     Edge 25, Type (0, 0), BuildingBlock: ZUJKAS_clean_linker_0, # of connection points: 2
#     Edge 26, Type (0, 0), BuildingBlock: ZUJKAS_clean_linker_0, # of connection points: 2
#     Edge 27, Type (0, 0), BuildingBlock: ZUJKAS_clean_linker_0, # of connection points: 2
#     Edge 28, Type (0, 0), BuildingBlock: ZUJKAS_clean_linker_0, # of connection points: 2
#     Edge 29, Type (0, 0), BuildingBlock: ZUJKAS_clean_linker_0, # of connection points: 2
#     Edge 30, Type (0, 0), BuildingBlock: ZUJKAS_clean_linker_0, # of connection points: 2
#     Edge 31, Type (0, 0), BuildingBlock: ZUJKAS_clean_linker_0, # of connection points: 2
#     Edge 32, Type (0, 0), BuildingBlock: ZUJKAS_clean_linker_0, # of connection points: 2
#     Edge 33, Type (0, 0), BuildingBlock: ZUJKAS_clean_linker_0, # of connection points: 2
#     Edge 34, Type (0, 0), BuildingBlock: ZUJKAS_clean_linker_0, # of connection points: 2
#     Edge 35, Type (0, 0), BuildingBlock: ZUJKAS_clean_linker_0, # of connection points: 2
# Relax obj value: 0.414
# Max RMSD: 0.205
# Mean RMSD: 0.200
data_MOF--net-acs-a--node1-NAHDIM_clean_sbu_0--edge1-ZUJKAS_clean_linker_0
_symmetry_space_group_name_H-M    P1
_symmetry_Int_Tables_number       1
_symmetry_cell_setting            triclinic
loop_
_symmetry_equiv_pos_as_xyz
'x, y, z'
_cell_length_a     61.670285
_cell_length_b     55.626819
_cell_length_c     0.021888042
_cell_angle_alpha  89.928245
_cell_angle_beta   114.77667
_cell_angle_gamma 61.676734
loop_
_atom_site_label
_atom_site_type_symbol
_atom_site_fract_x
_atom_site_fract_y
_atom_site_fract_z
_atom_type_partial_charge
C0 C 0.53665 0.10866 122.35465 0.0
O1 O 0.5283 0.13518 101.89292 0.0
O2 O 0.53179 0.15 242.54054 0.0
Zn3 Zn 0.56666 0.11827 245.35034 0.0
O4 O 0.59394 0.09615 344.58464 0.0
C5 C 0.60709 0.12072 213.27471 0.0
O6 O 0.6243 0.09447 250.61218 0.0
O7 O 0.55495 0.09531 185.09312 0.0
C8 C 0.60711 0.10653 384.71389 0.0
O9 O 0.60338 0.13035 358.9458 0.0
C10 C 0.51543 0.14423 250.90897 0.0
O11 O 0.52232 0.11778 263.06 0.0
O12 O 0.58234 0.13427 205.37877 0.0
C13 C 0.24472 0.47983 1623.02201 0.0
O14 O 0.24896 0.46425 1676.75158 0.0
O15 O 0.17616 0.50368 1627.31575 0.0
Zn16 Zn 0.20127 0.51941 1648.06275 0.0
O17 O 0.22657 0.50784 1751.41676 0.0
C18 C 0.15197 0.57129 1561.09196 0.0
O19 O 0.14879 0.55436 1521.01931 0.0
O20 O 0.22444 0.50532 1599.00084 0.0
C21 C 0.21822 0.52172 1791.1007 0.0
O22 O 0.19325 0.54478 1763.58202 0.0
C23 C 0.17823 0.48755 1673.30495 0.0
O24 O 0.19974 0.47756 1736.00723 0.0
O25 O 0.17487 0.56148 1617.25333 0.0
C26 C 0.58396 0.43719 171.92945 0.0
O27 O 0.60688 0.41872 228.05017 0.0
O28 O 0.57966 0.36675 133.66912 0.0
Zn29 Zn 0.56678 0.39786 179.57071 0.0
O30 O 0.5935 0.38364 281.97878 0.0
C31 C 0.50594 0.42755 116.75491 0.0
O32 O 0.50645 0.44161 69.62177 0.0
O33 O 0.5645 0.43215 141.351 0.0
C34 C 0.58562 0.39632 323.64104 0.0
O35 O 0.56025 0.41865 298.53786 0.0
C36 C 0.60482 0.3524 144.57227 0.0
O37 O 0.62281 0.3594 183.52177 0.0
O38 O 0.5289 0.4081 166.6429 0.0
C39 C -0.15124 0.85091 1510.40185 0.0
O40 O -0.14719 0.82938 1482.15689 0.0
O41 O -0.10266 0.78177 1602.42522 0.0
Zn42 Zn -0.13181 0.80951 1626.66129 0.0
O43 O -0.11243 0.80701 1728.51333 0.0
C44 C -0.1869 0.81438 1560.38924 0.0
O45 O -0.19639 0.83812 1519.05731 0.0
O46 O -0.14743 0.84787 1572.28458 0.0
C47 C -0.09482 0.78271 1770.25736 0.0
O48 O -0.09079 0.76031 1745.59886 0.0
C49 C -0.0812 0.78361 1619.39744 0.0
O50 O -0.07915 0.8029 1651.85944 0.0
O51 O -0.1613 0.8001 1606.67026 0.0
C52 C 0.18806 0.4824 152.8824 0.0
O53 O 0.20084 0.49087 204.51555 0.0
O54 O 0.26124 0.45465 156.72643 0.0
Zn55 Zn 0.24453 0.4393 195.18051 0.0
O56 O 0.25576 0.44092 294.93031 0.0
C57 C 0.26543 0.39111 142.46294 0.0
O58 O 0.25525 0.41075 88.01097 0.0
O59 O 0.20265 0.46039 138.08377 0.0
C60 C 0.2812 0.42453 340.31321 0.0
O61 O 0.29918 0.40753 320.33457 0.0
C62 C 0.27299 0.46796 186.71891 0.0
O63 O 0.27265 0.47442 244.13978 0.0
O64 O 0.26166 0.39846 193.78601 0.0
C65 C -0.1378 0.51082 1578.28635 0.0
O66 O -0.15347 0.53661 1538.58671 0.0
O67 O -0.14347 0.57379 1622.89181 0.0
Zn68 Zn -0.11191 0.53477 1680.54308 0.0
O69 O -0.10691 0.53116 1777.33924 0.0
C70 C -0.07619 0.53174 1626.15578 0.0
O71 O -0.09929 0.54069 1567.22083 0.0
O72 O -0.11928 0.50551 1640.27333 0.0
C73 C -0.08675 0.5087 1824.17999 0.0
O74 O -0.06962 0.48805 1807.94059 0.0
C75 C -0.16821 0.58448 1614.34672 0.0
O76 O -0.17407 0.56943 1643.75975 0.0
O77 O -0.0765 0.52797 1682.98321 0.0
C78 C 0.7964 0.30722 1308.60259 0.0
O79 O 0.78254 0.30096 1330.9898 0.0
O80 O 0.74697 0.28888 1221.90454 0.0
Zn81 Zn 0.77973 0.27914 1205.65538 0.0
O82 O 0.76491 0.29094 1102.88847 0.0
C83 C 0.81271 0.2248 1298.51406 0.0
O84 O 0.8016 0.23967 1335.24051 0.0
O85 O 0.79845 0.29963 1255.59819 0.0
C86 C 0.74663 0.28552 1063.41596 0.0
O87 O 0.73922 0.27188 1091.53033 0.0
C88 C 0.72649 0.31417 1202.24456 0.0
O89 O 0.72698 0.33407 1171.4829 0.0
O90 O 0.80685 0.23738 1240.34964 0.0
C91 C 0.09529 0.78781 2642.08886 0.0
O92 O 0.07069 0.79346 2593.4633 0.0
O93 O 0.10246 0.71272 2683.47513 0.0
Zn94 Zn 0.11358 0.7303 2631.42657 0.0
O95 O 0.08533 0.7431 2530.23878 0.0
C96 C 0.16948 0.68109 2699.10628 0.0
O97 O 0.16342 0.68 2749.47744 0.0
O98 O 0.1159 0.76253 2666.00303 0.0
C99 C 0.09259 0.74157 2483.30005 0.0
O100 O 0.11894 0.73225 2501.37902 0.0
C101 C 0.08348 0.72538 2701.16477 0.0
O102 O 0.06944 0.75306 2687.12787 0.0
O103 O 0.15144 0.70088 2644.002 0.0
C104 C 0.42748 0.35727 1321.97448 0.0
O105 O 0.44785 0.33067 1347.77671 0.0
O106 O 0.46531 0.31055 1242.88857 0.0
Zn107 Zn 0.44199 0.35298 1210.48584 0.0
O108 O 0.41384 0.36427 1109.65654 0.0
C109 C 0.4923 0.35429 1272.04322 0.0
O110 O 0.49784 0.33701 1324.72929 0.0
O111 O 0.4219 0.37076 1265.32617 0.0
C112 C 0.39999 0.38964 1074.6543 0.0
O113 O 0.40342 0.40863 1106.07448 0.0
C114 C 0.47345 0.29779 1201.62277 0.0
O115 O 0.46481 0.31264 1140.73275 0.0
O116 O 0.46852 0.36543 1218.09386 0.0
C117 C 0.07657 0.41803 2805.86078 0.0
O118 O 0.09476 0.42616 2830.25846 0.0
O119 O 0.09298 0.44447 2697.12539 0.0
Zn120 Zn 0.05422 0.45897 2684.28386 0.0
O121 O 0.0299 0.46297 2584.12339 0.0
C122 C 0.03905 0.51506 2669.74689 0.0
O123 O 0.04483 0.50858 2618.52444 0.0
O124 O 0.05612 0.4304 2744.77549 0.0
C125 C 0.00408 0.48175 2548.42154 0.0
O126 O -0.00861 0.49996 2577.87067 0.0
C127 C 0.1074 0.41965 2692.62659 0.0
O128 O 0.09675 0.40347 2679.99598 0.0
O129 O 0.04085 0.4964 2708.28883 0.0
C130 C 0.75937 -0.05618 1266.92497 0.0
O131 O 0.76186 -0.05236 1211.52061 0.0
O132 O 0.7767 0.00663 1310.47653 0.0
Zn133 Zn 0.74426 0.00164 1258.11892 0.0
O134 O 0.73487 0.00659 1157.65099 0.0
C135 C 0.71021 0.0357 1320.11126 0.0
O136 O 0.73289 0.0195 1379.21521 0.0
O137 O 0.75274 -0.03617 1296.39207 0.0
C138 C 0.72532 0.03079 1122.68158 0.0
O139 O 0.72223 0.05153 1153.58818 0.0
C140 C 0.79761 -0.00433 1299.24872 0.0
O141 O 0.79854 -0.02053 1255.61728 0.0
O142 O 0.71054 0.0317 1263.29269 0.0
C143 C 0.44403 0.34776 2680.22551 0.0
O144 O 0.43078 0.36577 2620.01907 0.0
O145 O 0.37939 0.40975 2695.91815 0.0
Zn146 Zn 0.3884 0.37466 2661.05235 0.0
O147 O 0.37341 0.38629 2558.0536 0.0
C148 C 0.3646 0.36033 2731.74482 0.0
O149 O 0.37834 0.36914 2780.24566 0.0
O150 O 0.43007 0.34724 2708.99596 0.0
C151 C 0.34715 0.40227 2519.33251 0.0
O152 O 0.33052 0.40981 2547.43256 0.0
C153 C 0.37894 0.4304 2669.33293 0.0
O154 O 0.3864 0.42814 2620.51002 0.0
O155 O 0.36724 0.35901 2677.09466 0.0
H156 H 0.73268 -0.00815 1045.24128 0.0
H157 H 0.71637 0.00078 919.81729 0.0
H158 H 0.68195 0.08981 905.10647 0.0
H159 H 0.69819 0.08118 1030.2643 0.0
H160 H 0.6444 0.07219 809.49841 0.0
H161 H 0.74642 0.02776 808.75153 0.0
H162 H 0.74415 0.0067 865.70093 0.0
H163 H 0.74179 0.03923 881.92188 0.0
C164 C 0.72182 0.01331 1015.40852 0.0
C165 C 0.71668 0.03583 1047.6409 0.0
C166 C 0.71264 0.01833 943.91174 0.0
C167 C 0.69818 0.0459 903.64496 0.0
C168 C 0.69321 0.06837 935.62326 0.0
H169 H 0.64019 0.12169 482.84104 0.0
H170 H 0.66404 0.10399 609.09817 0.0
C171 C 0.70252 0.06338 1007.08788 0.0
C172 C 0.68693 0.05163 827.52773 0.0
H173 H 0.70589 0.04492 699.75034 0.0
C174 C 0.65779 0.06612 785.36456 0.0
C175 C 0.70459 0.04373 796.70024 0.0
C176 C 0.73601 0.02863 840.29234 0.0
C177 C 0.64574 0.07311 712.75016 0.0
C178 C 0.66336 0.06523 681.80917 0.0
C179 C 0.69253 0.05066 723.93269 0.0
C180 C 0.65158 0.07345 605.72356 0.0
C181 C 0.61423 0.08948 669.54979 0.0
C182 C 0.63735 0.06153 562.36099 0.0
C183 C 0.62374 0.07153 490.18519 0.0
C184 C 0.62409 0.09369 460.40596 0.0
C185 C 0.63938 0.10473 504.15101 0.0
C186 C 0.65309 0.09461 576.24154 0.0
H187 H 0.60362 0.09778 701.66293 0.0
H188 H 0.60719 0.10744 629.12803 0.0
H189 H 0.60743 0.07549 642.71312 0.0
H190 H 0.63619 0.04501 584.4296 0.0
H191 H 0.61222 0.06252 457.91522 0.0
H192 H 0.20781 0.5469 1890.87529 0.0
H193 H 0.23323 0.52609 2016.18715 0.0
H194 H 0.29162 0.44992 1989.11066 0.0
H195 H 0.2664 0.47048 1863.75247 0.0
H196 H 0.26543 0.44285 2065.12107 0.0
H197 H 0.31248 0.50775 2165.76984 0.0
H198 H 0.27576 0.52713 2103.7863 0.0
H199 H 0.30084 0.50471 2076.99798 0.0
C200 C 0.22628 0.52586 1911.6307 0.0
C201 C 0.23506 0.51032 1867.35682 0.0
C202 C 0.24083 0.51407 1983.24383 0.0
C203 C 0.26437 0.48659 2011.71213 0.0
C204 C 0.27355 0.47123 1967.96048 0.0
H205 H 0.37602 0.39759 2448.8712 0.0
H206 H 0.35659 0.41722 2325.09468 0.0
C207 C 0.25913 0.48305 1896.41712 0.0
C208 C 0.2782 0.47316 2086.42584 0.0
H209 H 0.31487 0.47778 2248.98837 0.0
C210 C 0.27639 0.45035 2105.38898 0.0
C211 C 0.29257 0.48297 2138.53745 0.0
C212 C 0.29581 0.50685 2120.57848 0.0
C213 C 0.28807 0.43743 2175.42986 0.0
C214 C 0.30176 0.44773 2227.51867 0.0
C215 C 0.30417 0.47011 2208.65968 0.0
C216 C 0.31342 0.4357 2301.98009 0.0
C217 C 0.28575 0.41285 2193.39528 0.0
C218 C 0.29547 0.43978 2329.61681 0.0
C219 C 0.30644 0.42872 2400.2251 0.0
C220 C 0.33557 0.41332 2444.27793 0.0
C221 C 0.35349 0.40921 2416.22748 0.0
C222 C 0.34247 0.42047 2345.67686 0.0
H223 H 0.27953 0.40399 2148.11102 0.0
H224 H 0.30598 0.39586 2236.57975 0.0
H225 H 0.26968 0.41999 2210.88257 0.0
H226 H 0.27296 0.45173 2296.61647 0.0
H227 H 0.29209 0.43231 2420.24813 0.0
H228 H 0.64114 0.35494 391.95403 0.0
H229 H 0.67154 0.33591 517.55225 0.0
H230 H 0.60282 0.39354 552.09383 0.0
H231 H 0.57249 0.41319 426.78292 0.0
H232 H 0.65144 0.39041 640.25162 0.0
H233 H 0.66888 0.28298 637.67142 0.0
H234 H 0.67882 0.29483 583.27207 0.0
H235 H 0.64262 0.31267 563.14141 0.0
C236 C 0.63251 0.36359 426.3094 0.0
C237 C 0.60435 0.38542 399.46694 0.0
C238 C 0.64988 0.35259 498.02382 0.0
C239 C 0.63928 0.36293 544.03309 0.0
C240 C 0.61137 0.38517 517.42079 0.0
H241 H 0.7014 0.28468 966.95645 0.0
H242 H 0.67687 0.30354 841.29717 0.0
C243 C 0.59406 0.39635 445.79492 0.0
C244 C 0.65709 0.35055 619.96971 0.0
H245 H 0.69446 0.28941 745.34948 0.0
C246 C 0.66091 0.36832 663.33548 0.0
C247 C 0.66912 0.32178 649.83091 0.0
C248 C 0.66448 0.30198 606.22169 0.0
C249 C 0.67631 0.35816 735.90864 0.0
C250 C 0.68876 0.32928 765.70067 0.0
C251 C 0.6851 0.31148 722.28577 0.0
C252 C 0.70434 0.3174 841.90349 0.0
C253 C 0.67824 0.37866 779.9321 0.0
C254 C 0.72821 0.31854 883.8772 0.0
C255 C 0.74217 0.30798 955.96477 0.0
C256 C 0.7327 0.29575 987.09046 0.0
C257 C 0.70924 0.29396 944.64918 0.0
C258 C 0.69519 0.30472 872.78513 0.0
H259 H 0.66181 0.40087 750.11571 0.0
H260 H 0.67621 0.37429 826.14538 0.0
H261 H 0.69896 0.37649 798.30662 0.0
H262 H 0.73602 0.32762 860.92936 0.0
H263 H 0.76032 0.30944 987.24225 0.0
H264 H 0.03593 0.76549 2427.30639 0.0
H265 H 0.00229 0.7746 2306.19248 0.0
H266 H 0.0689 0.74184 2251.88741 0.0
H267 H 0.10261 0.73324 2372.51676 0.0
H268 H 0.02196 0.79034 2157.85298 0.0
H269 H -0.00561 0.71412 2212.27417 0.0
H270 H -0.01082 0.7405 2260.6924 0.0
H271 H 0.02399 0.7153 2275.70249 0.0
C272 C 0.04342 0.76029 2389.55924 0.0
C273 C 0.07197 0.74845 2409.5781 0.0
C274 C 0.02419 0.76536 2320.4793 0.0
C275 C 0.03321 0.75835 2270.43037 0.0
C276 C 0.06156 0.74724 2289.87227 0.0
H277 H -0.0509 0.73412 1869.10085 0.0
H278 H -0.02068 0.72931 1990.33741 0.0
C279 C 0.08078 0.74233 2358.82532 0.0
C280 C 0.0132 0.76252 2197.73014 0.0
H281 H -0.03233 0.74287 2097.32701 0.0
C282 C 0.01006 0.77999 2144.52163 0.0
C283 C -0.00197 0.74865 2180.58454 0.0
C284 C 0.0017 0.72837 2235.18786 0.0
C285 C -0.00794 0.78408 2074.47887 0.0
C286 C -0.02368 0.77081 2057.46537 0.0
C287 C -0.02046 0.75325 2110.65953 0.0
C288 C -0.04274 0.77395 1984.56102 0.0
C289 C -0.00933 0.80192 2019.3331 0.0
C290 C -0.06551 0.8006 1941.54568 0.0
C291 C -0.08274 0.80345 1872.04594 0.0
C292 C -0.07766 0.77964 1844.65476 0.0
C293 C -0.05536 0.75288 1888.53277 0.0
C294 C -0.03806 0.75008 1957.84265 0.0
H295 H 0.00911 0.80439 2039.70852 0.0
H296 H -0.01048 0.79258 1974.08796 0.0
H297 H -0.02841 0.82324 2000.90065 0.0
H298 H -0.06988 0.8192 1961.62891 0.0
H299 H -0.09989 0.82433 1839.72604 0.0
H300 H 0.36901 0.44136 983.38789 0.0
H301 H 0.34285 0.45256 856.51295 0.0
H302 H 0.36534 0.3659 866.83929 0.0
H303 H 0.39115 0.35459 993.4047 0.0
H304 H 0.36541 0.42966 771.61145 0.0
H305 H 0.28178 0.40862 731.11856 0.0
H306 H 0.30243 0.41288 812.95217 0.0
H307 H 0.31612 0.37966 790.52142 0.0
C308 C 0.36804 0.42477 958.72581 0.0
C309 C 0.38218 0.39707 998.50327 0.0
C310 C 0.35309 0.43122 886.24952 0.0
C311 C 0.35186 0.41015 852.35342 0.0
C312 C 0.36549 0.38263 891.98732 0.0
H313 H 0.33401 0.39227 449.24629 0.0
H314 H 0.34935 0.39163 572.07382 0.0
C315 C 0.3804 0.37616 964.37789 0.0
C316 C 0.33836 0.41628 775.53779 0.0
H317 H 0.29044 0.41039 634.43912 0.0
C318 C 0.34876 0.4258 741.48777 0.0
C319 C 0.31642 0.41156 736.2667 0.0
C320 C 0.30332 0.40289 769.48766 0.0
C321 C 0.33863 0.42958 669.515 0.0
C322 C 0.31789 0.42323 630.90396 0.0
C323 C 0.3066 0.41491 664.39259 0.0
C324 C 0.30845 0.42404 556.24555 0.0
C325 C 0.35035 0.44019 635.51722 0.0
C326 C 0.28022 0.44204 506.85204 0.0
C327 C 0.27133 0.44237 436.49498 0.0
C328 C 0.29051 0.42452 414.52912 0.0
C329 C 0.31873 0.40639 464.33571 0.0
C330 C 0.32758 0.4061 534.54121 0.0
H331 H 0.35966 0.45162 667.46505 0.0
H332 H 0.36711 0.42197 629.58373 0.0
H333 H 0.33387 0.45447 583.13765 0.0
H334 H 0.26512 0.45591 522.73831 0.0
H335 H 0.24943 0.45653 399.43346 0.0
H336 H -0.11937 0.54665 1873.77663 0.0
H337 H -0.11037 0.54345 1994.35842 0.0
H338 H -0.03451 0.46258 2058.75917 0.0
H339 H -0.04352 0.46534 1938.28477 0.0
H340 H -0.06706 0.46438 2120.17694 0.0
H341 H -0.05011 0.55442 2142.87758 0.0
H342 H -0.08301 0.56201 2072.69943 0.0
H343 H -0.05094 0.53771 2072.00293 0.0
C344 C -0.1008 0.52814 1913.54971 0.0
C345 C -0.08202 0.50634 1896.54394 0.0
C346 C -0.09565 0.52641 1982.42401 0.0
C347 C -0.07156 0.503 2035.48397 0.0
C348 C -0.05318 0.48088 2018.48357 0.0
H349 H 0.02315 0.445 2475.26892 0.0
H350 H 0.00079 0.45087 2349.8276 0.0
C351 C -0.05834 0.48253 1949.64035 0.0
C352 C -0.06504 0.50164 2109.06015 0.0
H353 H -0.0469 0.53248 2240.88787 0.0
C354 C -0.06282 0.47936 2146.53947 0.0
C355 C -0.05964 0.5213 2143.10594 0.0
C356 C -0.06079 0.5451 2105.95597 0.0
C357 C -0.05489 0.47595 2217.60546 0.0
C358 C -0.04868 0.49511 2252.03762 0.0
C359 C -0.05179 0.51791 2214.11697 0.0
C360 C -0.03664 0.4906 2328.3516 0.0
C361 C -0.05303 0.45178 2255.35353 0.0
C362 C -0.05021 0.51114 2357.81878 0.0
C363 C -0.03743 0.5079 2429.76159 0.0
C364 C -0.01071 0.48422 2473.1452 0.0
C365 C 0.00255 0.46348 2443.37465 0.0
C366 C -0.01028 0.46668 2371.68608 0.0
H367 H -0.06616 0.4444 2218.94506 0.0
H368 H -0.03098 0.43382 2281.47589 0.0
H369 H -0.0597 0.45789 2295.61807 0.0
H370 H -0.07048 0.52988 2325.02599 0.0
H371 H -0.04814 0.52429 2451.07361 0.0
H372 H 1.05581 -0.16287 2875.0271 0.0
H373 H 1.03267 -0.18446 2796.71881 0.0
H374 H 0.52107 0.03541 73.83887 0.0
H375 H 0.54425 0.05673 152.525 0.0
H376 H 1.05928 -0.23748 2765.65084 0.0
H377 H 0.43756 0.05921 -7.6024 0.0
H378 H 0.45289 0.08083 7.06035 0.0
H379 H 0.4738 0.04445 54.54424 0.0
C380 C 0.50409 0.10973 4.24152 0.0
C381 C 0.52346 0.0953 74.40613 0.0
C382 C 1.04751 -0.19585 2850.62441 0.0
C383 C 1.05319 -0.22249 2875.58778 0.0
C384 C 0.51604 0.05627 54.13059 0.0
H385 H 0.14483 0.78375 2725.55254 0.0
H386 H 0.15222 0.8208 2770.14361 0.0
C387 C 0.52942 0.06838 98.80794 0.0
C388 C 1.03972 -0.23582 2828.48032 0.0
H389 H 1.00145 -0.26629 2810.78801 0.0
C390 C 1.0462 -0.24334 2774.56369 0.0
C391 C 1.0223 -0.24296 2839.6585 0.0
C392 C 0.45678 0.05937 3.34255 0.0
C393 C 1.03726 -0.25962 2734.51437 0.0
C394 C 1.02171 -0.26864 2749.4013 0.0
C395 C 1.01358 -0.25947 2800.02514 0.0
C396 C 0.1082 0.85324 2718.98528 0.0
C397 C 1.04531 -0.26786 2678.18938 0.0
C398 C 0.08089 0.85924 2676.40097 0.0
C399 C 0.07654 0.83804 2650.59473 0.0
C400 C 0.09945 0.81053 2668.09161 0.0
C401 C 0.12672 0.80471 2711.12369 0.0
C402 C 0.13103 0.82588 2736.26161 0.0
H403 H 1.04997 -0.25307 2660.09853 0.0
H404 H 0.156 0.85422 2698.99538 0.0
H405 H 1.02837 -0.2684 2633.02386 0.0
H406 H 0.97148 -0.26323 2663.25827 0.0
H407 H 0.05529 0.8431 2617.71434 0.0
H408 H 0.29073 0.42682 1665.50611 0.0
H409 H 0.32243 0.40724 1615.67663 0.0
H410 H 0.27378 0.48611 1461.8519 0.0
H411 H 0.24171 0.5059 1510.979 0.0
H412 H 0.28696 0.43779 1407.96484 0.0
H413 H 0.3813 0.42615 1632.14292 0.0
H414 H 0.3651 0.41036 1653.87156 0.0
H415 H 0.34646 0.44798 1621.89978 0.0
C416 C 0.28676 0.44007 1621.16289 0.0
C417 C 0.26374 0.46796 1592.33644 0.0
C418 C 0.30502 0.42888 1593.06691 0.0
C419 C 0.30069 0.44539 1535.87564 0.0
C420 C 0.27756 0.47312 1506.37107 0.0
H421 H 0.38377 0.41175 1281.40175 0.0
H422 H 0.35329 0.43365 1333.77141 0.0
C423 C 0.25928 0.48437 1534.50137 0.0
C424 C 0.31984 0.43339 1505.57762 0.0
H425 H 0.38802 0.40473 1542.65116 0.0
C426 C 0.30902 0.43073 1437.14189 0.0
C427 C 0.3486 0.42414 1544.02625 0.0
C428 C 0.36108 0.42748 1616.86084 0.0
C429 C 0.32635 0.41847 1406.50461 0.0
C430 C 0.35514 0.40913 1445.0225 0.0
C431 C 0.36594 0.4119 1513.36768 0.0
C432 C 0.37441 0.39625 1415.28211 0.0
C433 C 0.31386 0.41496 1333.83885 0.0
C434 C 0.39697 0.36825 1445.26699 0.0
C435 C 0.41458 0.35568 1415.74902 0.0
C436 C 0.40996 0.37098 1355.86988 0.0
C437 C 0.38779 0.3993 1327.20234 0.0
C438 C 0.37024 0.41183 1356.79808 0.0
H439 H 0.29347 0.41666 1318.35612 0.0
H440 H 0.31018 0.43177 1296.6248 0.0
H441 H 0.32833 0.39424 1329.29793 0.0
H442 H 0.40061 0.35595 1490.73831 0.0
H443 H 0.43151 0.33387 1439.24536 0.0
H444 H -0.4338 0.6746 36.17268 0.0
H445 H -0.42116 0.6277 87.2786 0.0
H446 H 0.05636 0.34864 2820.50037 0.0
H447 H 0.04356 0.39537 2768.70504 0.0
H448 H -0.44941 0.60851 134.64386 0.0
H449 H 0.11729 0.27777 2798.36662 0.0
H450 H 0.11619 0.30986 2816.63333 0.0
H451 H 0.08443 0.30926 2776.99381 0.0
C452 C -0.44872 0.66795 12.9414 0.0
C453 C 0.08238 0.39186 2843.41676 0.0
C454 C -0.44143 0.64117 42.17642 0.0
C455 C -0.45961 0.63132 11.07847 0.0
C456 C 0.07084 0.35578 2844.32565 0.0
H457 H 0.53878 0.47988 59.09123 0.0
H458 H 0.53027 0.52647 23.61704 0.0
C459 C 0.06354 0.3825 2815.03898 0.0
C460 C -0.45067 0.60192 36.65608 0.0
H461 H 1.11956 0.24698 2878.84606 0.0
C462 C -0.44651 0.59347 102.95818 0.0
C463 C -0.44676 0.58246 -4.95133 0.0
C464 C 0.107 0.29679 2815.8133 0.0
C465 C -0.43955 0.56617 127.80903 0.0
C466 C 0.56382 0.54692 85.46364 0.0
C467 C -0.43985 0.55524 19.81666 0.0
C468 C 0.56967 0.51841 106.86212 0.0
C469 C 0.56342 0.55843 198.01877 0.0
C470 C 0.59493 0.49834 164.57762 0.0
C471 C 0.59992 0.47163 185.02435 0.0
C472 C 0.57971 0.46462 147.83228 0.0
C473 C 0.55474 0.48462 88.97085 0.0
C474 C 0.54982 0.51125 68.62337 0.0
H475 H 0.55472 0.5773 217.67302 0.0
H476 H 0.5526 0.54693 195.62669 0.0
H477 H 0.58594 0.54433 235.93586 0.0
H478 H 0.61072 0.50337 193.88282 0.0
H479 H 0.6194 0.45665 230.43488 0.0
H480 H 0.75729 -0.07112 1382.11582 0.0
H481 H 0.75768 -0.11293 1417.95779 0.0
H482 H -0.14132 1.00094 1243.53532 0.0
H483 H 0.76657 -0.10056 1206.69805 0.0
H484 H -0.18531 1.00154 1259.35018 0.0
H485 H -0.08442 0.9482 1504.67086 0.0
H486 H -0.10715 0.98469 1497.48148 0.0
H487 H -0.0931 0.97532 1438.05343 0.0
C488 C 0.75975 -0.08664 1351.68666 0.0
C489 C 0.76189 -0.08254 1291.53874 0.0
C490 C 0.76009 -0.11056 1372.45681 0.0
C491 C 0.76271 -0.13085 1333.71161 0.0
C492 C 0.76522 -0.12709 1274.16759 0.0
H493 H -0.15217 0.86121 1386.9292 0.0
H494 H -0.15266 0.90113 1338.11797 0.0
C495 C 0.76497 -0.10316 1253.38827 0.0
C496 C -0.14707 0.98826 1353.80671 0.0
H497 H -0.11546 0.93186 1487.63064 0.0
C498 C -0.16992 0.98607 1308.8737 0.0
C499 C -0.12692 0.96826 1418.43684 0.0
C500 C -0.10136 0.969 1467.24502 0.0
C501 C -0.17371 0.96487 1328.18029 0.0
C502 C -0.15391 0.9453 1393.59376 0.0
C503 C -0.13072 0.94712 1437.72964 0.0
C504 C -0.15682 0.92284 1418.1591 0.0
C505 C -0.19928 0.9641 1279.63924 0.0
C506 C -0.15923 0.92203 1478.91952 0.0
C507 C -0.15883 0.89925 1507.12057 0.0
C508 C -0.15584 0.87679 1475.15454 0.0
C509 C -0.15459 0.87823 1412.64359 0.0
C510 C -0.15495 0.90105 1384.52925 0.0
H511 H -0.21546 0.98416 1238.72669 0.0
H512 H -0.19307 0.94678 1253.6776 0.0
H513 H -0.20868 0.95995 1308.79165 0.0
H514 H -0.16068 0.93871 1505.5291 0.0
H515 H -0.1599 0.89881 1555.23018 0.0
H516 H 0.47893 0.34037 2626.84329 0.0
H517 H 0.53002 0.31122 2685.35196 0.0
H518 H 0.53011 0.2848 2870.87131 0.0
H519 H 0.47889 0.31344 2812.20896 0.0
H520 H 0.56644 0.31637 2800.12692 0.0
H521 H 0.58179 0.21015 2847.70933 0.0
H522 H 0.54827 0.24079 2788.77076 0.0
H523 H 0.00372 0.52796 -10.20414 0.0
C524 C 0.48977 0.32815 2679.89511 0.0
C525 C 0.47486 0.32917 2714.8839 0.0
C526 C 0.51897 0.31151 2713.22662 0.0
C527 C 0.53383 0.29557 2782.11462 0.0
C528 C 0.51902 0.29643 2817.16511 0.0
H529 H 0.15096 0.5273 178.65467 0.0
H530 H 0.09984 0.55296 113.76591 0.0
C531 C 0.48977 0.31295 2783.6983 0.0
C532 C 0.56485 0.2793 2818.27296 0.0
H533 H 0.06566 0.50679 15.66956 0.0
C534 C 0.57868 0.29383 2823.12564 0.0
C535 C 0.58074 0.24986 2847.42239 0.0
C536 C 0.56708 0.23286 2840.44578 0.0
C537 C 0.60801 0.2798 2857.46118 0.0
C538 C 0.06719 0.54393 -2.02324 0.0
C539 C 0.05339 0.52927 -8.03781 0.0
C540 C 0.09816 0.52819 37.61883 0.0
C541 C 0.62169 0.29635 2858.63765 0.0
C542 C 0.11414 0.50526 17.40989 0.0
C543 C 0.14338 0.49035 54.78802 0.0
C544 C 0.15713 0.49812 113.14608 0.0
C545 C 0.14103 0.52094 133.60169 0.0
C546 C 0.1118 0.53573 96.38945 0.0
H547 H 0.60722 0.31605 2816.19261 0.0
H548 H 0.07096 0.59571 17.65145 0.0
H549 H 0.64092 0.28361 2853.60526 0.0
H550 H 0.66067 0.20568 2863.50745 0.0
H551 H 0.15519 0.47283 37.78891 0.0
H552 H 0.8359 0.3138 1297.68177 0.0
H553 H 0.85348 0.34398 1349.91126 0.0
H554 H 0.79916 0.37081 1443.30411 0.0
H555 H 0.78246 0.33989 1393.86384 0.0
H556 H -0.17366 0.3988 1327.80229 0.0
H557 H 0.87052 0.35357 1606.3221 0.0
H558 H 0.86036 0.33599 1540.48466 0.0
H559 H 0.83463 0.36321 1559.36376 0.0
C560 C 0.82802 0.32587 1330.15436 0.0
C561 C 0.80795 0.3244 1342.11323 0.0
C562 C 0.83806 0.34308 1359.91532 0.0
C563 C 0.82803 0.35924 1401.61115 0.0
C564 C 0.80789 0.35785 1413.24893 0.0
H565 H -0.18325 0.51588 1466.4477 0.0
H566 H -0.18931 0.47785 1423.2482 0.0
C567 C 0.7982 0.34032 1384.50511 0.0
C568 C 0.83713 0.379 1429.15344 0.0
H569 H -0.14061 0.40113 1575.68724 0.0
C570 C -0.16603 0.39905 1382.2201 0.0
C571 C 0.84762 0.37899 1500.34284 0.0
C572 C 0.85377 0.35655 1554.53839 0.0
C573 C -0.15999 0.41983 1404.02866 0.0
C574 C -0.15167 0.42118 1474.15589 0.0
C575 C -0.14747 0.4004 1521.64134 0.0
C576 C -0.1478 0.44427 1499.26366 0.0
C577 C -0.16245 0.43995 1351.67582 0.0
C578 C -0.12286 0.43802 1557.85353 0.0
C579 C -0.11966 0.45968 1583.70331 0.0
C580 C -0.14126 0.48799 1550.96519 0.0
C581 C -0.16616 0.49425 1492.19746 0.0
C582 C -0.16954 0.47254 1467.11816 0.0
H583 H -0.15925 0.43031 1309.43788 0.0
H584 H -0.18383 0.45905 1327.43035 0.0
H585 H -0.14699 0.4465 1376.43398 0.0
H586 H -0.10587 0.41634 1583.69571 0.0
H587 H -0.10019 0.45426 1628.99276 0.0
H588 H 0.49513 0.20086 227.06896 0.0
H589 H 0.45005 0.23853 213.00913 0.0
H590 H 0.42962 0.1771 245.33319 0.0
H591 H 0.47463 0.13918 258.91658 0.0
H592 H 0.38622 0.22341 129.75465 0.0
H593 H 0.42761 0.25798 366.79731 0.0
H594 H 0.44331 0.25628 312.66816 0.0
H595 H 0.44857 0.22449 353.38272 0.0
C596 C 0.48115 0.1953 231.60803 0.0
C597 C 0.48852 0.167 244.41653 0.0
C598 C 0.45545 0.21685 223.85491 0.0
C599 C 0.43672 0.21053 229.1024 0.0
C600 C 0.44389 0.18236 241.50533 0.0
H601 H 0.29251 0.34571 251.25389 0.0
H602 H 0.33143 0.29851 271.6483 0.0
C603 C 0.46964 0.16074 249.39307 0.0
C604 C 0.40935 0.23351 219.76203 0.0
H605 H 0.37994 0.28982 281.66476 0.0
C606 C 0.38475 0.23776 163.39654 0.0
C607 C 0.40752 0.25185 264.4734 0.0
C608 C 0.43314 0.24731 328.15372 0.0
C609 C 0.35836 0.26077 148.59243 0.0
C610 C 0.35671 0.28013 190.76992 0.0
C611 C 0.38123 0.27507 249.037 0.0
C612 C 0.3302 0.30681 173.2873 0.0
C613 C 0.33257 0.26423 87.71794 0.0
C614 C 0.31616 0.32691 110.47784 0.0
C615 C 0.29383 0.35387 98.5093 0.0
C616 C 0.28538 0.36132 149.55532 0.0
C617 C 0.29854 0.34068 210.9228 0.0
C618 C 0.32081 0.31369 222.73288 0.0
H619 H 0.33621 0.24367 75.646 0.0
H620 H 0.31437 0.27378 97.82428 0.0
H621 H 0.32721 0.27829 41.12071 0.0
H622 H 0.3234 0.32228 72.19092 0.0
H623 H 0.28421 0.36927 50.77748 0.0
H624 H 0.17129 0.46312 1766.51475 0.0
H625 H 0.12815 0.46654 1749.79215 0.0
H626 H 0.08696 0.50966 1534.27615 0.0
H627 H 0.12988 0.50688 1550.83731 0.0
H628 H 0.05835 0.53867 1601.08517 0.0
H629 H 0.08658 0.42762 1656.4285 0.0
H630 H 0.11049 0.43442 1724.24906 0.0
H631 H 0.10777 0.43759 1639.12189 0.0
C632 C 0.15328 0.47274 1715.106 0.0
C633 C 0.154 0.48486 1660.1022 0.0
C634 C 0.12863 0.47455 1705.55121 0.0
C635 C 0.10439 0.48814 1640.63005 0.0
C636 C 0.10546 0.49901 1584.76226 0.0
H637 H -0.06921 0.54064 1514.55374 0.0
H638 H -0.02578 0.52987 1514.95757 0.0
C639 C 0.13004 0.49734 1594.31928 0.0
C640 C 0.07727 0.49373 1633.11096 0.0
H641 H 0.04485 0.46224 1659.07021 0.0
C642 C 0.05527 0.52194 1612.82261 0.0
C643 C 0.07336 0.47188 1648.8531 0.0
C644 C 0.09572 0.44117 1667.72043 0.0
C645 C 0.02974 0.52892 1609.79966 0.0
C646 C 0.02606 0.50711 1626.90814 0.0
C647 C 0.04786 0.47889 1646.24817 0.0
C648 C -0.00012 0.51326 1626.38062 0.0
C649 C 0.00719 0.5596 1590.43893 0.0
C650 C 9e-05 0.50713 1688.85004 0.0
C651 C -0.02466 0.5133 1688.89889 0.0
C652 C -0.05002 0.5255 1626.28737 0.0
C653 C -0.05007 0.53135 1563.67834 0.0
C654 C -0.02531 0.52528 1563.76726 0.0
H655 H 0.01528 0.5738 1591.76974 0.0
H656 H -0.00984 0.56505 1536.98313 0.0
H657 H -0.002 0.56365 1626.13504 0.0
H658 H 0.01939 0.4978 1737.66173 0.0
H659 H -0.02388 0.50842 1737.96981 0.0
H660 H 0.57304 0.33155 67.64368 0.0
H661 H 0.58952 0.283 59.63197 0.0
H662 H 0.6751 0.26274 167.75523 0.0
H663 H 0.65874 0.31146 177.95446 0.0
H664 H 0.62371 0.24237 13.85863 0.0
H665 H 0.67191 0.21615 303.45167 0.0
H666 H 0.64906 0.25219 252.50136 0.0
H667 H 0.68403 0.23179 263.84409 0.0
C668 C 0.59537 0.31699 88.58718 0.0
C669 C 0.61462 0.32517 125.19151 0.0
C670 C 0.60477 0.28922 83.52313 0.0
C671 C 0.63355 0.26911 114.60344 0.0
C672 C 0.6528 0.27783 144.79664 0.0
H673 H 0.66117 0.10503 249.75493 0.0
H674 H 0.67652 0.13378 215.93132 0.0
C675 C 0.64339 0.3057 150.33862 0.0
C676 C 0.64257 0.23889 124.07069 0.0
H677 H 0.66284 0.18419 247.11431 0.0
C678 C 0.63308 0.22921 64.9886 0.0
C679 C 0.65512 0.22156 190.89423 0.0
C680 C 0.66556 0.23083 256.46686 0.0
C681 C 0.63322 0.204 70.65001 0.0
C682 C 0.64279 0.1884 136.89109 0.0
C683 C 0.65532 0.19633 196.31029 0.0
C684 C 0.63455 0.1681 145.41427 0.0
C685 C 0.62149 0.19524 5.36146 0.0
C686 C 0.60592 0.1777 116.28572 0.0
C687 C 0.59714 0.16158 135.98473 0.0
C688 C 0.61681 0.13551 185.42134 0.0
C689 C 0.64554 0.12507 211.55567 0.0
C690 C 0.65435 0.14139 192.1213 0.0
H691 H 1.18258 -0.09185 2856.80141 0.0
H692 H 0.63035 0.17212 15.92931 0.0
H693 H 1.1551 -0.0872 2874.23411 0.0
H694 H 0.59021 0.19854 81.65956 0.0
H695 H 0.57486 0.17012 114.57596 0.0
H696 H -0.02971 0.777 1665.62727 0.0
H697 H 0.00781 0.74459 1641.46693 0.0
H698 H -0.04438 0.71472 1511.70253 0.0
H699 H -0.08185 0.74661 1537.23832 0.0
H700 H 0.00702 0.672 1599.95538 0.0
H701 H 0.01656 0.74937 1470.69707 0.0
H702 H 0.0199 0.75374 1554.72402 0.0
H703 H -0.01274 0.7596 1486.52637 0.0
C704 C -0.03332 0.76369 1631.52161 0.0
C705 C -0.05878 0.7644 1603.24536 0.0
C706 C -0.01191 0.74534 1617.25593 0.0
C707 C -0.01568 0.72767 1573.51708 0.0
C708 C -0.0411 0.72835 1545.13286 0.0
H709 H 0.09792 0.59454 1458.15806 0.0
H710 H 0.05609 0.63477 1453.55149 0.0
C711 C -0.06247 0.74654 1559.86712 0.0
C712 C 0.00756 0.70721 1561.14181 0.0
H713 H 0.0547 0.70122 1509.33716 0.0
C714 C 0.01718 0.67844 1579.27159 0.0
C715 C 0.02081 0.71565 1534.07935 0.0
C716 C 0.01042 0.7463 1509.72319 0.0
C717 C 0.04022 0.65784 1573.14776 0.0
C718 C 0.05391 0.66625 1548.04366 0.0
C719 C 0.04413 0.69496 1528.81587 0.0
C720 C 0.07902 0.64513 1543.82753 0.0
C721 C 0.0503 0.62711 1595.24277 0.0
C722 C 0.10568 0.6385 1594.4989 0.0
C723 C 0.12967 0.61548 1597.50357 0.0
C724 C 0.1273 0.59881 1549.65749 0.0
C725 C 0.10052 0.60684 1495.97142 0.0
C726 C 0.07656 0.62977 1493.25804 0.0
H727 H 0.03964 0.62395 1621.88734 0.0
H728 H 0.04617 0.61846 1548.76443 0.0
H729 H 0.07326 0.61483 1630.65227 0.0
H730 H 0.10789 0.65024 1633.85692 0.0
H731 H 0.14997 0.60993 1639.36201 0.0
H732 H 0.31015 0.48467 253.83604 0.0
H733 H 0.3444 0.48374 223.78728 0.0
H734 H 0.31005 0.45931 36.47216 0.0
H735 H 0.27614 0.45951 66.99191 0.0
H736 H 0.36519 0.42413 111.47185 0.0
H737 H 0.34253 0.53354 85.42128 0.0
H738 H 0.34667 0.51974 166.2437 0.0
H739 H 0.31807 0.52444 85.65815 0.0
C740 C 0.30945 0.47971 205.45662 0.0
C741 C 0.29052 0.472 163.02133 0.0
C742 C 0.32896 0.47937 188.09545 0.0
C743 C 0.32962 0.47175 127.48039 0.0
C744 C 0.30987 0.46534 83.38664 0.0
H745 H 0.45277 0.46709 16.36231 0.0
H746 H 0.40841 0.47844 11.47928 0.0
C747 C 0.29049 0.46548 100.92468 0.0
C748 C 0.35287 0.46725 114.49442 0.0
H749 H 0.38873 0.49763 106.22106 0.0
C750 C 0.37006 0.44036 109.27547 0.0
C751 C 0.35907 0.48848 110.78325 0.0
C752 C 0.34042 0.51825 111.57845 0.0
C753 C 0.39395 0.43376 103.518 0.0
C754 C 0.40119 0.45442 104.53097 0.0
C755 C 0.38333 0.4817 106.45118 0.0
C756 C 0.42789 0.44764 106.96328 0.0
C757 C 0.41134 0.40463 96.91262 0.0
C758 C 0.45348 0.42685 162.7133 0.0
C759 C 0.47877 0.42026 165.57459 0.0
C760 C 0.47899 0.43452 112.9672 0.0
C761 C 0.45332 0.45563 57.54599 0.0
C762 C 0.42796 0.46218 54.70044 0.0
H763 H 0.39877 0.39461 75.75645 0.0
H764 H 0.42029 0.40527 62.68902 0.0
H765 H 0.42889 0.39109 149.09533 0.0
H766 H 0.45389 0.41582 204.38836 0.0
H767 H 0.49814 0.40407 209.31691 0.0
H768 H -0.22179 0.61654 1596.22835 0.0
H769 H -0.25376 0.66758 1546.32446 0.0
H770 H -0.19352 0.67046 1499.41319 0.0
H771 H -0.16232 0.62003 1546.48244 0.0
H772 H -0.24438 0.70489 1597.94376 0.0
H773 H -0.26219 0.72747 1333.49651 0.0
H774 H -0.25034 0.69261 1377.03444 0.0
H775 H -0.22547 0.7024 1383.73385 0.0
C776 C -0.21579 0.62803 1573.43652 0.0
C777 C -0.18939 0.61431 1575.98686 0.0
C778 C -0.23413 0.65717 1544.71378 0.0
C779 C -0.2264 0.67293 1517.73579 0.0
C780 C -0.20059 0.65885 1517.40633 0.0
H781 H -0.17544 0.77039 1647.57931 0.0
H782 H -0.20075 0.7462 1625.15057 0.0
C783 C -0.18243 0.6299 1545.61109 0.0
C784 C -0.24199 0.7042 1502.19779 0.0
H785 H -0.24724 0.7574 1408.83356 0.0
C786 C -0.24624 0.71681 1554.89843 0.0
C787 C -0.24609 0.72064 1444.58589 0.0
C788 C -0.2461 0.71001 1381.26098 0.0
C789 C -0.24911 0.74327 1557.74818 0.0
C790 C -0.24664 0.75668 1508.20999 0.0
C791 C -0.24788 0.74661 1448.76868 0.0
C792 C -0.23515 0.77535 1526.01698 0.0
C793 C -0.2521 0.7553 1617.38278 0.0
C794 C -0.24577 0.79983 1477.62675 0.0
C795 C -0.23086 0.8136 1490.03651 0.0
C796 C -0.20498 0.80281 1550.58412 0.0
C797 C -0.19522 0.77919 1600.25423 0.0
C798 C -0.21002 0.76556 1587.93589 0.0
H799 H -0.26676 0.75194 1627.68392 0.0
H800 H -0.23148 0.74404 1665.21326 0.0
H801 H -0.2599 0.77821 1606.84257 0.0
H802 H -0.26491 0.80756 1429.08429 0.0
H803 H -0.23891 0.83182 1450.82202 0.0
H804 H 0.68034 0.36616 1171.46888 0.0
H805 H 0.63999 0.37703 1187.66247 0.0
H806 H 0.67772 0.28872 1274.65806 0.0
H807 H 0.71805 0.27758 1258.45081 0.0
H808 H 0.62115 0.31622 1167.0969 0.0
H809 H 0.63569 0.37469 1372.02399 0.0
H810 H 0.63643 0.38637 1296.64909 0.0
H811 H 0.66356 0.35188 1353.11404 0.0
C812 C 0.68014 0.34906 1194.43276 0.0
C813 C 0.7024 0.321 1213.64693 0.0
C814 C 0.65715 0.35535 1204.01551 0.0
C815 C 0.65607 0.33371 1233.06617 0.0
C816 C 0.67827 0.30572 1252.46836 0.0
H817 H 0.5464 0.33078 1375.31725 0.0
H818 H 0.58537 0.32875 1365.91676 0.0
C819 C 0.70128 0.29941 1243.13919 0.0
C820 C 0.63122 0.33994 1240.13215 0.0
H821 H 0.59417 0.37318 1325.21152 0.0
C822 C 0.61519 0.32872 1201.51988 0.0
C823 C 0.6237 0.35609 1285.4901 0.0
C824 C 0.64081 0.36782 1329.72209 0.0
C825 C 0.59175 0.33327 1206.90388 0.0
C826 C 0.584 0.34971 1251.56058 0.0
C827 C 0.60007 0.36084 1290.51227 0.0
C828 C 0.55988 0.35441 1260.21351 0.0
C829 C 0.57576 0.31995 1165.89893 0.0
C830 C 0.53256 0.37036 1204.67579 0.0
C831 C 0.51024 0.37161 1209.82199 0.0
C832 C 0.51492 0.35686 1270.65319 0.0
C833 C 0.5421 0.34226 1327.63812 0.0
C834 C 0.5644 0.34109 1322.44989 0.0
H835 H 0.58748 0.30369 1144.20442 0.0
H836 H 0.5711 0.31006 1198.97851 0.0
H837 H 0.55551 0.33651 1122.00254 0.0
H838 H 0.52868 0.38103 1156.48567 0.0
H839 H 0.48955 0.38318 1165.08765 0.0
H840 H 0.10877 0.66836 2735.46085 0.0
H841 H 0.09089 0.64121 2760.33314 0.0
H842 H 0.02181 0.71707 2756.72384 0.0
H843 H 0.03921 0.74488 2729.01112 0.0
H844 H 0.0777 0.63188 2858.46136 0.0
H845 H -0.01851 0.69063 2601.11964 0.0
H846 H 0.01086 0.69509 2625.24224 0.0
H847 H -0.0114 0.71002 2664.60696 0.0
C848 C 0.08994 0.67937 2740.67058 0.0
C849 C 0.07505 0.70888 2728.60749 0.0
C850 C 0.07982 0.66374 2755.45004 0.0
C851 C 0.05469 0.67716 2759.02406 0.0
C852 C 0.04089 0.70638 2752.61625 0.0
H853 H 0.02821 0.5352 2774.83302 0.0
H854 H 0.02365 0.57908 2806.43157 0.0
C855 C 0.05095 0.72219 2737.15138 0.0
C856 C 0.04214 0.66035 2761.36478 0.0
H857 H -0.00658 0.64633 2650.65709 0.0
C858 C 0.05879 0.63533 2814.15174 0.0
C859 C 0.01727 0.66514 2703.70486 0.0
C860 C -0.00153 0.69157 2645.1623 0.0
C861 C 0.0533 0.61344 2806.56219 0.0
C862 C 0.03003 0.61717 2745.37446 0.0
C863 C 0.01136 0.64356 2697.12299 0.0
C864 C 0.02849 0.59269 2722.74954 0.0
C865 C 0.07408 0.58558 2860.41488 0.0
C866 C 0.03142 0.58647 2663.56606 0.0
C867 C 0.03369 0.56179 2645.04493 0.0
C868 C 0.03324 0.54263 2685.55121 0.0
C869 C 0.02892 0.54946 2742.99969 0.0
C870 C 0.02643 0.57442 2761.31464 0.0
H871 H -0.46422 0.87885 10.29548 0.0
H872 H -0.49299 0.8744 -5.36634 0.0
H873 H 0.0817 0.56826 2835.49688 0.0
H874 H 0.0331 0.60023 2633.03714 0.0
H875 H 0.03679 0.55732 2600.23072 0.0
H876 H 0.70271 0.05248 1431.12594 0.0
H877 H 0.66076 0.09234 1427.80536 0.0
H878 H 0.61851 0.11151 1203.86266 0.0
H879 H 0.65996 0.07177 1206.55984 0.0
H880 H 0.636 0.14832 1365.52628 0.0
H881 H 0.56012 0.1139 1249.58839 0.0
H882 H 0.59751 0.08983 1287.16736 0.0
H883 H 0.5776 0.11156 1199.80782 0.0
C884 C 0.68436 0.065 1381.21971 0.0
C885 C 0.68467 0.05893 1319.10436 0.0
C886 C 0.66043 0.08773 1379.45956 0.0
C887 C 0.63637 0.10454 1315.6601 0.0
C888 C 0.63659 0.09838 1253.73595 0.0
H889 H 0.49024 0.26401 1121.07723 0.0
H890 H 0.52907 0.21518 1159.26691 0.0
C891 C 0.66043 0.07576 1255.39545 0.0
C892 C 0.61168 0.12993 1312.73694 0.0
H893 H 0.54039 0.16404 1238.15316 0.0
C894 C 0.61514 0.15157 1339.12788 0.0
C895 C 0.58454 0.13404 1278.45875 0.0
C896 C 0.57973 0.11096 1252.79047 0.0
C897 C 0.59196 0.17791 1327.96784 0.0
C898 C 0.56471 0.18251 1290.16924 0.0
C899 C 0.56134 0.16042 1266.92968 0.0
C900 C 0.53949 0.21095 1267.69417 0.0
C901 C 0.59661 0.20117 1352.97076 0.0
C902 C 0.53207 0.22445 1315.92882 0.0
C903 C 0.50976 0.25243 1294.21168 0.0
C904 C 0.4947 0.26729 1223.98338 0.0
C905 C 0.50153 0.25323 1175.579 0.0
C906 C 0.52366 0.2253 1197.23909 0.0
H907 H 0.61877 0.1952 1373.51805 0.0
H908 H 0.58303 0.22062 1310.0225 0.0
H909 H 0.59087 0.20618 1395.04383 0.0
H910 H 0.54393 0.21356 1370.47616 0.0
H911 H 0.50497 0.26269 1332.71855 0.0
H912 H 0.1344 0.44854 2713.5756 0.0
H913 H 0.18024 0.43207 2722.01521 0.0
H914 H 0.19002 0.35126 2696.67544 0.0
H915 H 0.14417 0.36747 2688.60632 0.0
H916 H 0.23861 0.34863 2805.33256 0.0
H917 H 0.19585 0.42028 2554.60882 0.0
H918 H 0.18371 0.43777 2612.60704 0.0
H919 H 0.17439 0.41283 2577.7217 0.0
C920 C 0.14627 0.42724 2709.8821 0.0
C921 C 0.13553 0.40938 2699.90016 0.0
C922 C 0.17242 0.41791 2714.46654 0.0
C923 C 0.18828 0.39061 2708.9499 0.0
C924 C 0.17799 0.37247 2700.678 0.0
H925 H 0.32939 0.34659 2635.29623 0.0
H926 H 0.28842 0.34868 2632.12299 0.0
C927 C 0.15178 0.3818 2695.93723 0.0
C928 C 0.21549 0.38123 2711.24509 0.0
H929 H 0.24503 0.39721 2629.05943 0.0
C930 C 0.24008 0.35903 2766.53989 0.0
C931 C 0.21723 0.39455 2659.90349 0.0
C932 C 0.19139 0.41751 2597.44774 0.0
C933 C 0.26654 0.35055 2773.29058 0.0
C934 C 0.26833 0.36487 2723.82822 0.0
C935 C 0.24364 0.38634 2667.16494 0.0
C936 C 0.29547 0.35914 2731.17084 0.0
C937 C 0.2923 0.3264 2833.2657 0.0
C938 C 0.31335 0.36374 2788.62119 0.0
C939 C 0.33682 0.3625 2790.7075 0.0
C940 C 0.34269 0.35691 2735.00372 0.0
C941 C 0.32547 0.35099 2679.0344 0.0
C942 C 0.30202 0.3522 2677.06075 0.0
H943 H 0.28723 0.31244 2853.2241 0.0
H944 H 0.30858 0.31356 2817.92008 0.0
H945 H 0.30119 0.33495 2876.36398 0.0
H946 H 0.3084 0.36968 2830.3114 0.0
H947 H 0.34959 0.36723 2834.50589 0.0
H948 H 0.83588 -0.0114 1257.43637 0.0
H949 H 0.8602 0.0144 1279.021 0.0
H950 H 0.82791 0.05138 1417.70124 0.0
H951 H 0.80382 0.02563 1396.95393 0.0
H952 H 0.8267 0.0715 1236.82014 0.0
H953 H 0.90498 0.04184 1512.23126 0.0
H954 H 0.89326 0.01875 1473.13264 0.0
H955 H 0.87305 0.04624 1503.95055 0.0
C956 C 0.83477 0.00145 1294.42631 0.0
C957 C 0.81753 0.00549 1324.57867 0.0
C958 C 0.84877 0.0161 1306.85355 0.0
C959 C 0.84603 0.03466 1350.30647 0.0
C960 C 0.83083 0.03675 1385.12355 0.0
H961 H 0.81432 0.19184 1394.34055 0.0
H962 H 0.83174 0.14151 1411.44946 0.0
C963 C 0.81676 0.02225 1372.5137 0.0
C964 C 0.85333 0.05629 1347.57779 0.0
H965 H 0.88077 0.09116 1450.47229 0.0
C966 C 0.83927 0.07539 1283.16112 0.0
C967 C 0.86963 0.06129 1408.14377 0.0
C968 C 0.88631 0.04073 1478.14186 0.0
C969 C 0.83871 0.1008 1278.42233 0.0
C970 C 0.85343 0.1068 1339.81158 0.0
C971 C 0.86944 0.08657 1403.53784 0.0
C972 C 0.84869 0.13551 1340.0035 0.0
C973 C 0.82026 0.12198 1208.59466 0.0
C974 C 0.85364 0.14857 1296.72196 0.0
C975 C 0.8431 0.17756 1285.60225 0.0
C976 C 0.82809 0.1937 1318.99107 0.0
C977 C 0.8256 0.18002 1367.43853 0.0
C978 C 0.83568 0.15119 1377.53302 0.0
H979 H 0.80644 0.11596 1169.32193 0.0
H980 H 0.80683 0.14321 1213.2076 0.0
H981 H 0.83358 0.12344 1188.80612 0.0
H982 H 0.86431 0.13668 1268.71858 0.0
H983 H 0.84576 0.18749 1248.88813 0.0
H984 H 0.36418 0.48161 2602.8218 0.0
H985 H 0.33558 0.52788 2617.05723 0.0
H986 H 0.33501 0.48782 2784.70922 0.0
H987 H 0.36361 0.44155 2771.12505 0.0
H988 H 0.28191 0.54395 2598.80056 0.0
H989 H 0.34721 0.55136 2856.55396 0.0
H990 H 0.36205 0.5274 2810.18825 0.0
H991 H 0.34777 0.51877 2857.30035 0.0
C992 C 0.35858 0.48261 2643.88683 0.0
C993 C 0.36596 0.45792 2685.4675 0.0
C994 C 0.34225 0.50906 2651.92795 0.0
C995 C 0.33341 0.51122 2702.27393 0.0
C996 C 0.34205 0.48659 2746.3883 0.0
H997 H 0.20708 0.63007 2794.29072 0.0
H998 H 0.24859 0.59088 2794.98362 0.0
C999 C 0.35822 0.46016 2738.1609 0.0
C1000 C 0.31198 0.53889 2702.26955 0.0
H1001 H 0.29763 0.58348 2805.47488 0.0
C1002 C 0.28542 0.55291 2643.4679 0.0
C1003 C 0.31665 0.55022 2760.9814 0.0
C1004 C 0.34503 0.53631 2824.68833 0.0
C1005 C 0.26297 0.57737 2642.77529 0.0
C1006 C 0.26747 0.58854 2701.93958 0.0
C1007 C 0.29427 0.57491 2760.1566 0.0
C1008 C 0.24413 0.61334 2705.56694 0.0
C1009 C 0.23437 0.59013 2580.00786 0.0
C1010 C 0.22837 0.63923 2656.34986 0.0
C1011 C 0.20442 0.66151 2655.18778 0.0
C1012 C 0.19612 0.65845 2704.07314 0.0
C1013 C 0.21285 0.63304 2755.75018 0.0
C1014 C 0.23662 0.61065 2756.34187 0.0
H1015 H 0.23316 0.57513 2547.14995 0.0
H1016 H 0.21782 0.59684 2595.77434 0.0
H1017 H 0.22981 0.60896 2547.64644 0.0
H1018 H 0.23422 0.64197 2617.77385 0.0
H1019 H 0.19217 0.68098 2615.32373 0.0
loop_
_geom_bond_atom_site_label_1
_geom_bond_atom_site_label_2
_geom_bond_distance
_geom_bond_site_symmetry_2
_ccdc_geom_bond_type
C0 O1 1.160 . S
C0 O7 1.185 . S
O1 C0 1.160 . S
O2 Zn3 1.899 . S
O2 C10 1.284 . S
Zn3 O2 1.899 . S
Zn3 O4 2.032 . S
Zn3 O7 2.086 . S
Zn3 O12 1.977 . S
O4 Zn3 2.032 . S
O4 C8 1.278 . S
C5 O6 1.203 . S
C5 O12 1.267 . S
O6 C5 1.203 . S
O7 C0 1.185 . S
O7 Zn3 2.086 . S
C8 O4 1.278 . S
C8 O9 1.211 . S
O9 C8 1.211 . S
C10 O2 1.284 . S
C10 O11 1.273 . S
O11 C10 1.273 . S
O12 Zn3 1.977 . S
O12 C5 1.267 . S
C13 O14 1.160 . S
C13 O20 1.185 . S
O14 C13 1.160 . S
O15 Zn16 1.899 . S
O15 C23 1.284 . S
Zn16 O15 1.899 . S
Zn16 O17 2.032 . S
Zn16 O20 2.086 . S
Zn16 O25 1.977 . S
O17 Zn16 2.032 . S
O17 C21 1.278 . S
C18 O19 1.203 . S
C18 O25 1.267 . S
O19 C18 1.203 . S
O20 C13 1.185 . S
O20 Zn16 2.086 . S
C21 O17 1.278 . S
C21 O22 1.211 . S
O22 C21 1.211 . S
C23 O15 1.284 . S
C23 O24 1.273 . S
O24 C23 1.273 . S
O25 Zn16 1.977 . S
O25 C18 1.267 . S
C26 O27 1.160 . S
C26 O33 1.185 . S
O27 C26 1.160 . S
O28 Zn29 1.899 . S
O28 C36 1.284 . S
Zn29 O28 1.899 . S
Zn29 O30 2.032 . S
Zn29 O33 2.086 . S
Zn29 O38 1.977 . S
O30 Zn29 2.032 . S
O30 C34 1.278 . S
C31 O32 1.203 . S
C31 O38 1.267 . S
O32 C31 1.203 . S
O33 C26 1.185 . S
O33 Zn29 2.086 . S
C34 O30 1.278 . S
C34 O35 1.211 . S
O35 C34 1.211 . S
C36 O28 1.284 . S
C36 O37 1.273 . S
O37 C36 1.273 . S
O38 Zn29 1.977 . S
O38 C31 1.267 . S
C39 O40 1.160 . S
C39 O46 1.185 . S
O40 C39 1.160 . S
O41 Zn42 1.899 . S
O41 C49 1.284 . S
Zn42 O41 1.899 . S
Zn42 O43 2.032 . S
Zn42 O46 2.086 . S
Zn42 O51 1.977 . S
O43 Zn42 2.032 . S
O43 C47 1.278 . S
C44 O45 1.203 . S
C44 O51 1.267 . S
O45 C44 1.203 . S
O46 C39 1.185 . S
O46 Zn42 2.086 . S
C47 O43 1.278 . S
C47 O48 1.211 . S
O48 C47 1.211 . S
C49 O41 1.284 . S
C49 O50 1.273 . S
O50 C49 1.273 . S
O51 Zn42 1.977 . S
O51 C44 1.267 . S
C52 O53 1.160 . S
C52 O59 1.185 . S
O53 C52 1.160 . S
O54 Zn55 1.899 . S
O54 C62 1.284 . S
Zn55 O54 1.899 . S
Zn55 O56 2.032 . S
Zn55 O59 2.086 . S
Zn55 O64 1.977 . S
O56 Zn55 2.032 . S
O56 C60 1.278 . S
C57 O58 1.203 . S
C57 O64 1.267 . S
O58 C57 1.203 . S
O59 C52 1.185 . S
O59 Zn55 2.086 . S
C60 O56 1.278 . S
C60 O61 1.211 . S
O61 C60 1.211 . S
C62 O54 1.284 . S
C62 O63 1.273 . S
O63 C62 1.273 . S
O64 Zn55 1.977 . S
O64 C57 1.267 . S
C65 O66 1.160 . S
C65 O72 1.185 . S
O66 C65 1.160 . S
O67 Zn68 1.899 . S
O67 C75 1.284 . S
Zn68 O67 1.899 . S
Zn68 O69 2.032 . S
Zn68 O72 2.086 . S
Zn68 O77 1.977 . S
O69 Zn68 2.032 . S
O69 C73 1.278 . S
C70 O71 1.203 . S
C70 O77 1.267 . S
O71 C70 1.203 . S
O72 C65 1.185 . S
O72 Zn68 2.086 . S
C73 O69 1.278 . S
C73 O74 1.211 . S
O74 C73 1.211 . S
C75 O67 1.284 . S
C75 O76 1.273 . S
O76 C75 1.273 . S
O77 Zn68 1.977 . S
O77 C70 1.267 . S
C78 O79 1.160 . S
C78 O85 1.185 . S
O79 C78 1.160 . S
O80 Zn81 1.899 . S
O80 C88 1.284 . S
Zn81 O80 1.899 . S
Zn81 O82 2.032 . S
Zn81 O85 2.086 . S
Zn81 O90 1.977 . S
O82 Zn81 2.032 . S
O82 C86 1.278 . S
C83 O84 1.203 . S
C83 O90 1.267 . S
O84 C83 1.203 . S
O85 C78 1.185 . S
O85 Zn81 2.086 . S
C86 O82 1.278 . S
C86 O87 1.211 . S
O87 C86 1.211 . S
C88 O80 1.284 . S
C88 O89 1.273 . S
O89 C88 1.273 . S
O90 Zn81 1.977 . S
O90 C83 1.267 . S
C91 O92 1.160 . S
C91 O98 1.185 . S
O92 C91 1.160 . S
O93 Zn94 1.899 . S
O93 C101 1.284 . S
Zn94 O93 1.899 . S
Zn94 O95 2.032 . S
Zn94 O98 2.086 . S
Zn94 O103 1.977 . S
O95 Zn94 2.032 . S
O95 C99 1.278 . S
C96 O97 1.203 . S
C96 O103 1.267 . S
O97 C96 1.203 . S
O98 C91 1.185 . S
O98 Zn94 2.086 . S
C99 O95 1.278 . S
C99 O100 1.211 . S
O100 C99 1.211 . S
C101 O93 1.284 . S
C101 O102 1.273 . S
O102 C101 1.273 . S
O103 Zn94 1.977 . S
O103 C96 1.267 . S
C104 O105 1.160 . S
C104 O111 1.185 . S
O105 C104 1.160 . S
O106 Zn107 1.899 . S
O106 C114 1.284 . S
Zn107 O106 1.899 . S
Zn107 O108 2.032 . S
Zn107 O111 2.086 . S
Zn107 O116 1.977 . S
O108 Zn107 2.032 . S
O108 C112 1.278 . S
C109 O110 1.203 . S
C109 O116 1.267 . S
O110 C109 1.203 . S
O111 C104 1.185 . S
O111 Zn107 2.086 . S
C112 O108 1.278 . S
C112 O113 1.211 . S
O113 C112 1.211 . S
C114 O106 1.284 . S
C114 O115 1.273 . S
O115 C114 1.273 . S
O116 Zn107 1.977 . S
O116 C109 1.267 . S
C117 O118 1.160 . S
C117 O124 1.185 . S
O118 C117 1.160 . S
O119 Zn120 1.899 . S
O119 C127 1.284 . S
Zn120 O119 1.899 . S
Zn120 O121 2.032 . S
Zn120 O124 2.086 . S
Zn120 O129 1.977 . S
O121 Zn120 2.032 . S
O121 C125 1.278 . S
C122 O123 1.203 . S
C122 O129 1.267 . S
O123 C122 1.203 . S
O124 C117 1.185 . S
O124 Zn120 2.086 . S
C125 O121 1.278 . S
C125 O126 1.211 . S
O126 C125 1.211 . S
C127 O119 1.284 . S
C127 O128 1.273 . S
O128 C127 1.273 . S
O129 Zn120 1.977 . S
O129 C122 1.267 . S
C130 O131 1.160 . S
C130 O137 1.185 . S
O131 C130 1.160 . S
O132 Zn133 1.899 . S
O132 C140 1.284 . S
Zn133 O132 1.899 . S
Zn133 O134 2.032 . S
Zn133 O137 2.086 . S
Zn133 O142 1.977 . S
O134 Zn133 2.032 . S
O134 C138 1.278 . S
C135 O136 1.203 . S
C135 O142 1.267 . S
O136 C135 1.203 . S
O137 C130 1.185 . S
O137 Zn133 2.086 . S
C138 O134 1.278 . S
C138 O139 1.211 . S
O139 C138 1.211 . S
C140 O132 1.284 . S
C140 O141 1.273 . S
O141 C140 1.273 . S
O142 Zn133 1.977 . S
O142 C135 1.267 . S
C143 O144 1.160 . S
C143 O150 1.185 . S
O144 C143 1.160 . S
O145 Zn146 1.899 . S
O145 C153 1.284 . S
Zn146 O145 1.899 . S
Zn146 O147 2.032 . S
Zn146 O150 2.086 . S
Zn146 O155 1.977 . S
O147 Zn146 2.032 . S
O147 C151 1.278 . S
C148 O149 1.203 . S
C148 O155 1.267 . S
O149 C148 1.203 . S
O150 C143 1.185 . S
O150 Zn146 2.086 . S
C151 O147 1.278 . S
C151 O152 1.211 . S
O152 C151 1.211 . S
C153 O145 1.284 . S
C153 O154 1.273 . S
O154 C153 1.273 . S
O155 Zn146 1.977 . S
O155 C148 1.267 . S
H156 C164 0.929 . S
H157 C166 0.930 . S
H158 C168 0.930 . S
H159 C171 0.929 . S
H160 C174 0.930 . S
H161 C176 0.960 . S
H162 C176 0.960 . S
H163 C176 0.960 . S
C164 H156 0.929 . S
C164 C165 1.377 . S
C164 C166 1.384 . S
C165 C164 1.377 . S
C165 C171 1.390 . S
C166 H157 0.930 . S
C166 C164 1.384 . S
C166 C167 1.372 . S
C167 C166 1.372 . S
C167 C168 1.400 . S
C167 C172 1.490 . S
C168 H158 0.930 . S
C168 C167 1.400 . S
C168 C171 1.386 . S
H169 C185 0.930 . S
H170 C186 0.931 . S
C171 H159 0.929 . S
C171 C165 1.390 . S
C171 C168 1.386 . S
C172 C167 1.490 . S
C172 C174 1.395 . S
C172 C175 1.403 . S
H173 C179 0.930 . S
C174 H160 0.930 . S
C174 C172 1.395 . S
C174 C177 1.403 . S
C175 C172 1.403 . S
C175 C176 1.524 . S
C175 C179 1.400 . S
C176 H161 0.960 . S
C176 H162 0.960 . S
C176 H163 0.960 . S
C176 C175 1.524 . S
C177 C174 1.403 . S
C177 C178 1.392 . S
C177 C181 1.495 . S
C178 C177 1.392 . S
C178 C179 1.385 . S
C178 C180 1.478 . S
C179 H173 0.930 . S
C179 C175 1.400 . S
C179 C178 1.385 . S
C180 C178 1.478 . S
C180 C182 1.381 . S
C180 C186 1.383 . S
C181 C177 1.495 . S
C181 H187 0.959 . S
C181 H188 0.961 . S
C181 H189 0.960 . S
C182 C180 1.381 . S
C182 C183 1.394 . S
C182 H190 0.930 . S
C183 C182 1.394 . S
C183 C184 1.383 . S
C183 H191 0.929 . S
C184 C183 1.383 . S
C184 C185 1.377 . S
C185 H169 0.930 . S
C185 C184 1.377 . S
C185 C186 1.379 . S
C186 H170 0.931 . S
C186 C180 1.383 . S
C186 C185 1.379 . S
H187 C181 0.959 . S
H188 C181 0.961 . S
H189 C181 0.960 . S
H190 C182 0.930 . S
H191 C183 0.929 . S
H192 C200 0.929 . S
H193 C202 0.930 . S
H194 C204 0.930 . S
H195 C207 0.929 . S
H196 C210 0.930 . S
H197 C212 0.960 . S
H198 C212 0.960 . S
H199 C212 0.960 . S
C200 H192 0.929 . S
C200 C201 1.377 . S
C200 C202 1.384 . S
C201 C200 1.377 . S
C201 C207 1.390 . S
C202 H193 0.930 . S
C202 C200 1.384 . S
C202 C203 1.372 . S
C203 C202 1.372 . S
C203 C204 1.400 . S
C203 C208 1.490 . S
C204 H194 0.930 . S
C204 C203 1.400 . S
C204 C207 1.386 . S
H205 C221 0.930 . S
H206 C222 0.931 . S
C207 H195 0.929 . S
C207 C201 1.390 . S
C207 C204 1.386 . S
C208 C203 1.490 . S
C208 C210 1.395 . S
C208 C211 1.403 . S
H209 C215 0.930 . S
C210 H196 0.930 . S
C210 C208 1.395 . S
C210 C213 1.403 . S
C211 C208 1.403 . S
C211 C212 1.524 . S
C211 C215 1.400 . S
C212 H197 0.960 . S
C212 H198 0.960 . S
C212 H199 0.960 . S
C212 C211 1.524 . S
C213 C210 1.403 . S
C213 C214 1.392 . S
C213 C217 1.495 . S
C214 C213 1.392 . S
C214 C215 1.385 . S
C214 C216 1.478 . S
C215 H209 0.930 . S
C215 C211 1.400 . S
C215 C214 1.385 . S
C216 C214 1.478 . S
C216 C218 1.381 . S
C216 C222 1.383 . S
C217 C213 1.495 . S
C217 H223 0.959 . S
C217 H224 0.961 . S
C217 H225 0.960 . S
C218 C216 1.381 . S
C218 C219 1.394 . S
C218 H226 0.930 . S
C219 C218 1.394 . S
C219 C220 1.383 . S
C219 H227 0.929 . S
C220 C219 1.383 . S
C220 C221 1.377 . S
C221 H205 0.930 . S
C221 C220 1.377 . S
C221 C222 1.379 . S
C222 H206 0.931 . S
C222 C216 1.383 . S
C222 C221 1.379 . S
H223 C217 0.959 . S
H224 C217 0.961 . S
H225 C217 0.960 . S
H226 C218 0.930 . S
H227 C219 0.929 . S
H228 C236 0.929 . S
H229 C238 0.930 . S
H230 C240 0.930 . S
H231 C243 0.929 . S
H232 C246 0.930 . S
H233 C248 0.960 . S
H234 C248 0.960 . S
H235 C248 0.960 . S
C236 H228 0.929 . S
C236 C237 1.377 . S
C236 C238 1.384 . S
C237 C236 1.377 . S
C237 C243 1.390 . S
C238 H229 0.930 . S
C238 C236 1.384 . S
C238 C239 1.372 . S
C239 C238 1.372 . S
C239 C240 1.400 . S
C239 C244 1.490 . S
C240 H230 0.930 . S
C240 C239 1.400 . S
C240 C243 1.386 . S
H241 C257 0.930 . S
H242 C258 0.931 . S
C243 H231 0.929 . S
C243 C237 1.390 . S
C243 C240 1.386 . S
C244 C239 1.490 . S
C244 C246 1.395 . S
C244 C247 1.403 . S
H245 C251 0.930 . S
C246 H232 0.930 . S
C246 C244 1.395 . S
C246 C249 1.403 . S
C247 C244 1.403 . S
C247 C248 1.524 . S
C247 C251 1.400 . S
C248 H233 0.960 . S
C248 H234 0.960 . S
C248 H235 0.960 . S
C248 C247 1.524 . S
C249 C246 1.403 . S
C249 C250 1.392 . S
C249 C253 1.495 . S
C250 C249 1.392 . S
C250 C251 1.385 . S
C250 C252 1.478 . S
C251 H245 0.930 . S
C251 C247 1.400 . S
C251 C250 1.385 . S
C252 C250 1.478 . S
C252 C254 1.381 . S
C252 C258 1.383 . S
C253 C249 1.495 . S
C253 H259 0.959 . S
C253 H260 0.961 . S
C253 H261 0.960 . S
C254 C252 1.381 . S
C254 C255 1.394 . S
C254 H262 0.930 . S
C255 C254 1.394 . S
C255 C256 1.383 . S
C255 H263 0.929 . S
C256 C255 1.383 . S
C256 C257 1.377 . S
C257 H241 0.930 . S
C257 C256 1.377 . S
C257 C258 1.379 . S
C258 H242 0.931 . S
C258 C252 1.383 . S
C258 C257 1.379 . S
H259 C253 0.959 . S
H260 C253 0.961 . S
H261 C253 0.960 . S
H262 C254 0.930 . S
H263 C255 0.929 . S
H264 C272 0.929 . S
H265 C274 0.930 . S
H266 C276 0.930 . S
H267 C279 0.929 . S
H268 C282 0.930 . S
H269 C284 0.960 . S
H270 C284 0.960 . S
H271 C284 0.960 . S
C272 H264 0.929 . S
C272 C273 1.377 . S
C272 C274 1.384 . S
C273 C272 1.377 . S
C273 C279 1.390 . S
C274 H265 0.930 . S
C274 C272 1.384 . S
C274 C275 1.372 . S
C275 C274 1.372 . S
C275 C276 1.400 . S
C275 C280 1.490 . S
C276 H266 0.930 . S
C276 C275 1.400 . S
C276 C279 1.386 . S
H277 C293 0.930 . S
H278 C294 0.931 . S
C279 H267 0.929 . S
C279 C273 1.390 . S
C279 C276 1.386 . S
C280 C275 1.490 . S
C280 C282 1.395 . S
C280 C283 1.403 . S
H281 C287 0.930 . S
C282 H268 0.930 . S
C282 C280 1.395 . S
C282 C285 1.403 . S
C283 C280 1.403 . S
C283 C284 1.524 . S
C283 C287 1.400 . S
C284 H269 0.960 . S
C284 H270 0.960 . S
C284 H271 0.960 . S
C284 C283 1.524 . S
C285 C282 1.403 . S
C285 C286 1.392 . S
C285 C289 1.495 . S
C286 C285 1.392 . S
C286 C287 1.385 . S
C286 C288 1.478 . S
C287 H281 0.930 . S
C287 C283 1.400 . S
C287 C286 1.385 . S
C288 C286 1.478 . S
C288 C290 1.381 . S
C288 C294 1.383 . S
C289 C285 1.495 . S
C289 H295 0.959 . S
C289 H296 0.961 . S
C289 H297 0.960 . S
C290 C288 1.381 . S
C290 C291 1.394 . S
C290 H298 0.930 . S
C291 C290 1.394 . S
C291 C292 1.383 . S
C291 H299 0.929 . S
C292 C291 1.383 . S
C292 C293 1.377 . S
C293 H277 0.930 . S
C293 C292 1.377 . S
C293 C294 1.379 . S
C294 H278 0.931 . S
C294 C288 1.383 . S
C294 C293 1.379 . S
H295 C289 0.959 . S
H296 C289 0.961 . S
H297 C289 0.960 . S
H298 C290 0.930 . S
H299 C291 0.929 . S
H300 C308 0.929 . S
H301 C310 0.930 . S
H302 C312 0.930 . S
H303 C315 0.929 . S
H304 C318 0.930 . S
H305 C320 0.960 . S
H306 C320 0.960 . S
H307 C320 0.960 . S
C308 H300 0.929 . S
C308 C309 1.377 . S
C308 C310 1.384 . S
C309 C308 1.377 . S
C309 C315 1.390 . S
C310 H301 0.930 . S
C310 C308 1.384 . S
C310 C311 1.372 . S
C311 C310 1.372 . S
C311 C312 1.400 . S
C311 C316 1.490 . S
C312 H302 0.930 . S
C312 C311 1.400 . S
C312 C315 1.386 . S
H313 C329 0.930 . S
H314 C330 0.931 . S
C315 H303 0.929 . S
C315 C309 1.390 . S
C315 C312 1.386 . S
C316 C311 1.490 . S
C316 C318 1.395 . S
C316 C319 1.403 . S
H317 C323 0.930 . S
C318 H304 0.930 . S
C318 C316 1.395 . S
C318 C321 1.403 . S
C319 C316 1.403 . S
C319 C320 1.524 . S
C319 C323 1.400 . S
C320 H305 0.960 . S
C320 H306 0.960 . S
C320 H307 0.960 . S
C320 C319 1.524 . S
C321 C318 1.403 . S
C321 C322 1.392 . S
C321 C325 1.495 . S
C322 C321 1.392 . S
C322 C323 1.385 . S
C322 C324 1.478 . S
C323 H317 0.930 . S
C323 C319 1.400 . S
C323 C322 1.385 . S
C324 C322 1.478 . S
C324 C326 1.381 . S
C324 C330 1.383 . S
C325 C321 1.495 . S
C325 H331 0.959 . S
C325 H332 0.961 . S
C325 H333 0.960 . S
C326 C324 1.381 . S
C326 C327 1.394 . S
C326 H334 0.930 . S
C327 C326 1.394 . S
C327 C328 1.383 . S
C327 H335 0.929 . S
C328 C327 1.383 . S
C328 C329 1.377 . S
C329 H313 0.930 . S
C329 C328 1.377 . S
C329 C330 1.379 . S
C330 H314 0.931 . S
C330 C324 1.383 . S
C330 C329 1.379 . S
H331 C325 0.959 . S
H332 C325 0.961 . S
H333 C325 0.960 . S
H334 C326 0.930 . S
H335 C327 0.929 . S
H336 C344 0.929 . S
H337 C346 0.930 . S
H338 C348 0.930 . S
H339 C351 0.929 . S
H340 C354 0.930 . S
H341 C356 0.960 . S
H342 C356 0.960 . S
H343 C356 0.960 . S
C344 H336 0.929 . S
C344 C345 1.377 . S
C344 C346 1.384 . S
C345 C344 1.377 . S
C345 C351 1.390 . S
C346 H337 0.930 . S
C346 C344 1.384 . S
C346 C347 1.372 . S
C347 C346 1.372 . S
C347 C348 1.400 . S
C347 C352 1.490 . S
C348 H338 0.930 . S
C348 C347 1.400 . S
C348 C351 1.386 . S
H349 C365 0.930 . S
H350 C366 0.931 . S
C351 H339 0.929 . S
C351 C345 1.390 . S
C351 C348 1.386 . S
C352 C347 1.490 . S
C352 C354 1.395 . S
C352 C355 1.403 . S
H353 C359 0.930 . S
C354 H340 0.930 . S
C354 C352 1.395 . S
C354 C357 1.403 . S
C355 C352 1.403 . S
C355 C356 1.524 . S
C355 C359 1.400 . S
C356 H341 0.960 . S
C356 H342 0.960 . S
C356 H343 0.960 . S
C356 C355 1.524 . S
C357 C354 1.403 . S
C357 C358 1.392 . S
C357 C361 1.495 . S
C358 C357 1.392 . S
C358 C359 1.385 . S
C358 C360 1.478 . S
C359 H353 0.930 . S
C359 C355 1.400 . S
C359 C358 1.385 . S
C360 C358 1.478 . S
C360 C362 1.381 . S
C360 C366 1.383 . S
C361 C357 1.495 . S
C361 H367 0.959 . S
C361 H368 0.961 . S
C361 H369 0.960 . S
C362 C360 1.381 . S
C362 C363 1.394 . S
C362 H370 0.930 . S
C363 C362 1.394 . S
C363 C364 1.383 . S
C363 H371 0.929 . S
C364 C363 1.383 . S
C364 C365 1.377 . S
C365 H349 0.930 . S
C365 C364 1.377 . S
C365 C366 1.379 . S
C366 H350 0.931 . S
C366 C360 1.383 . S
C366 C365 1.379 . S
H367 C361 0.959 . S
H368 C361 0.961 . S
H369 C361 0.960 . S
H370 C362 0.930 . S
H371 C363 0.929 . S
H372 C380 0.929 . S
H373 C382 0.930 . S
H374 C384 0.930 . S
H375 C387 0.929 . S
H376 C390 0.930 . S
H377 C392 0.960 . S
H378 C392 0.945 1_545 S
H379 C392 0.960 1_545 S
C380 H372 0.929 . S
C380 C381 1.377 . S
C380 C382 1.384 . S
C381 C380 1.377 . S
C381 C387 1.390 . S
C382 H373 0.930 . S
C382 C380 1.384 . S
C382 C383 1.372 . S
C383 C382 1.372 . S
C383 C384 1.400 . S
C383 C388 1.490 . S
C384 H374 0.930 . S
C384 C383 1.400 . S
C384 C387 1.386 . S
H385 C401 0.930 . S
H386 C402 0.931 . S
C387 H375 0.929 . S
C387 C381 1.390 . S
C387 C384 1.386 . S
C388 C383 1.490 . S
C388 C390 1.395 1_554 S
C388 C391 1.373 1_545 S
H389 C395 0.930 . S
C390 H376 0.930 . S
C390 C388 1.395 1_556 S
C390 C393 1.403 . S
C391 C388 1.373 1_565 S
C391 C392 1.537 . S
C391 C395 1.418 . S
C392 H377 0.960 . S
C392 H378 0.945 1_565 S
C392 H379 0.960 1_565 S
C392 C391 1.537 . S
C393 C390 1.403 . S
C393 C394 1.392 1_545 S
C393 C397 1.495 . S
C394 C393 1.392 1_565 S
C394 C395 1.385 1_556 S
C394 C396 1.478 . S
C395 H389 0.930 . S
C395 C391 1.418 . S
C395 C394 1.385 1_554 S
C396 C394 1.478 . S
C396 C398 1.381 . S
C396 C402 1.383 . S
C397 C393 1.495 . S
C397 H403 0.959 . S
C397 H404 0.948 1_545 S
C397 H405 0.960 1_545 S
C398 C396 1.381 . S
C398 C399 1.394 . S
C398 H406 0.930 . S
C399 C398 1.394 . S
C399 C400 1.383 . S
C399 H407 0.929 . S
C400 C399 1.383 . S
C400 C401 1.377 . S
C401 H385 0.930 . S
C401 C400 1.377 . S
C401 C402 1.379 . S
C402 H386 0.931 . S
C402 C396 1.383 . S
C402 C401 1.379 . S
H403 C397 0.959 . S
H404 C397 0.948 1_565 S
H405 C397 0.960 1_565 S
H406 C398 0.930 . S
H407 C399 0.929 . S
H408 C416 0.929 . S
H409 C418 0.930 . S
H410 C420 0.930 . S
H411 C423 0.929 . S
H412 C426 0.930 . S
H413 C428 0.960 . S
H414 C428 0.960 . S
H415 C428 0.960 . S
C416 H408 0.929 . S
C416 C417 1.377 . S
C416 C418 1.384 . S
C417 C416 1.377 . S
C417 C423 1.390 . S
C418 H409 0.930 . S
C418 C416 1.384 . S
C418 C419 1.372 . S
C419 C418 1.372 . S
C419 C420 1.400 . S
C419 C424 1.490 . S
C420 H410 0.930 . S
C420 C419 1.400 . S
C420 C423 1.386 . S
H421 C437 0.930 . S
H422 C438 0.931 . S
C423 H411 0.929 . S
C423 C417 1.390 . S
C423 C420 1.386 . S
C424 C419 1.490 . S
C424 C426 1.395 . S
C424 C427 1.403 . S
H425 C431 0.930 . S
C426 H412 0.930 . S
C426 C424 1.395 . S
C426 C429 1.403 . S
C427 C424 1.403 . S
C427 C428 1.524 . S
C427 C431 1.400 . S
C428 H413 0.960 . S
C428 H414 0.960 . S
C428 H415 0.960 . S
C428 C427 1.524 . S
C429 C426 1.403 . S
C429 C430 1.392 . S
C429 C433 1.495 . S
C430 C429 1.392 . S
C430 C431 1.385 . S
C430 C432 1.478 . S
C431 H425 0.930 . S
C431 C427 1.400 . S
C431 C430 1.385 . S
C432 C430 1.478 . S
C432 C434 1.381 . S
C432 C438 1.383 . S
C433 C429 1.495 . S
C433 H439 0.959 . S
C433 H440 0.961 . S
C433 H441 0.960 . S
C434 C432 1.381 . S
C434 C435 1.394 . S
C434 H442 0.930 . S
C435 C434 1.394 . S
C435 C436 1.383 . S
C435 H443 0.929 . S
C436 C435 1.383 . S
C436 C437 1.377 . S
C437 H421 0.930 . S
C437 C436 1.377 . S
C437 C438 1.379 . S
C438 H422 0.931 . S
C438 C432 1.383 . S
C438 C437 1.379 . S
H439 C433 0.959 . S
H440 C433 0.961 . S
H441 C433 0.960 . S
H442 C434 0.930 . S
H443 C435 0.929 . S
H444 C452 0.929 . S
H445 C454 0.930 . S
H446 C456 0.930 . S
H447 C459 0.929 . S
H448 C462 0.930 . S
H449 C464 0.960 1_655 S
H450 C464 0.960 . S
H451 C464 0.960 . S
C452 H444 0.929 . S
C452 C453 1.377 . S
C452 C454 1.384 . S
C453 C452 1.377 . S
C453 C459 1.390 . S
C454 H445 0.930 . S
C454 C452 1.384 . S
C454 C455 1.372 . S
C455 C454 1.372 . S
C455 C456 1.400 . S
C455 C460 1.490 . S
C456 H446 0.930 . S
C456 C455 1.400 . S
C456 C459 1.386 . S
H457 C473 0.930 . S
H458 C474 0.931 . S
C459 H447 0.929 . S
C459 C453 1.390 . S
C459 C456 1.386 . S
C460 C455 1.490 . S
C460 C462 1.395 1_556 S
C460 C463 1.403 . S
H461 C467 0.930 . S
C462 H448 0.930 . S
C462 C460 1.395 1_554 S
C462 C465 1.413 . S
C463 C460 1.403 . S
C463 C464 1.524 . S
C463 C467 1.400 1_455 S
C464 H449 0.960 1_455 S
C464 H450 0.960 . S
C464 H451 0.960 . S
C464 C463 1.524 . S
C465 C462 1.413 . S
C465 C466 1.383 1_455 S
C465 C469 1.495 . S
C466 C465 1.383 1_655 S
C466 C467 1.385 1_554 S
C466 C468 1.478 . S
C467 H461 0.930 . S
C467 C463 1.400 1_655 S
C467 C466 1.385 1_556 S
C468 C466 1.478 . S
C468 C470 1.381 . S
C468 C474 1.383 . S
C469 C465 1.495 . S
C469 H475 0.980 . S
C469 H476 0.935 1_455 S
C469 H477 0.966 1_455 S
C470 C468 1.381 . S
C470 C471 1.394 . S
C470 H478 0.930 . S
C471 C470 1.394 . S
C471 C472 1.383 . S
C471 H479 0.929 . S
C472 C471 1.383 . S
C472 C473 1.377 . S
C473 H457 0.930 . S
C473 C472 1.377 . S
C473 C474 1.379 . S
C474 H458 0.931 . S
C474 C468 1.383 . S
C474 C473 1.379 . S
H475 C469 0.980 . S
H476 C469 0.935 1_655 S
H477 C469 0.966 1_655 S
H478 C470 0.930 . S
H479 C471 0.929 . S
H480 C488 0.929 . S
H481 C490 0.930 . S
H482 C492 0.930 . S
H483 C495 0.929 . S
H484 C498 0.930 . S
H485 C500 0.960 . S
H486 C500 0.960 . S
H487 C500 0.960 . S
C488 H480 0.929 . S
C488 C489 1.377 . S
C488 C490 1.384 . S
C489 C488 1.377 . S
C489 C495 1.390 . S
C490 H481 0.930 . S
C490 C488 1.384 . S
C490 C491 1.372 . S
C491 C490 1.372 . S
C491 C492 1.400 . S
C491 C496 1.490 . S
C492 H482 0.930 . S
C492 C491 1.400 . S
C492 C495 1.386 . S
H493 C509 0.930 . S
H494 C510 0.931 . S
C495 H483 0.929 . S
C495 C489 1.390 . S
C495 C492 1.386 . S
C496 C491 1.490 . S
C496 C498 1.395 . S
C496 C499 1.403 . S
H497 C503 0.930 . S
C498 H484 0.930 . S
C498 C496 1.395 . S
C498 C501 1.403 1_545 S
C499 C496 1.403 . S
C499 C500 1.524 . S
C499 C503 1.400 1_545 S
C500 H485 0.960 . S
C500 H486 0.960 . S
C500 H487 0.960 . S
C500 C499 1.524 . S
C501 C498 1.403 1_565 S
C501 C502 1.392 . S
C501 C505 1.495 . S
C502 C501 1.392 . S
C502 C503 1.385 . S
C502 C504 1.478 . S
C503 H497 0.930 . S
C503 C499 1.400 1_565 S
C503 C502 1.385 . S
C504 C502 1.478 . S
C504 C506 1.381 . S
C504 C510 1.383 . S
C505 C501 1.495 . S
C505 H511 0.959 . S
C505 H512 0.961 . S
C505 H513 0.960 . S
C506 C504 1.381 . S
C506 C507 1.394 . S
C506 H514 0.930 . S
C507 C506 1.394 . S
C507 C508 1.383 . S
C507 H515 0.929 . S
C508 C507 1.383 . S
C508 C509 1.377 . S
C509 H493 0.930 . S
C509 C508 1.377 . S
C509 C510 1.379 . S
C510 H494 0.931 . S
C510 C504 1.383 . S
C510 C509 1.379 . S
H511 C505 0.959 . S
H512 C505 0.961 . S
H513 C505 0.960 . S
H514 C506 0.930 . S
H515 C507 0.929 . S
H516 C524 0.929 . S
H517 C526 0.930 . S
H518 C528 0.930 1_554 S
H519 C531 0.929 . S
H520 C534 0.930 . S
H521 C536 0.947 1_554 S
H522 C536 0.984 . S
H523 C536 0.950 1_554 S
C524 H516 0.929 . S
C524 C525 1.377 . S
C524 C526 1.384 . S
C525 C524 1.377 . S
C525 C531 1.390 . S
C526 H517 0.930 . S
C526 C524 1.384 . S
C526 C527 1.372 . S
C527 C526 1.372 . S
C527 C528 1.400 . S
C527 C532 1.490 . S
C528 H518 0.930 1_556 S
C528 C527 1.400 . S
C528 C531 1.386 . S
H529 C545 0.930 . S
H530 C546 0.931 . S
C531 H519 0.929 . S
C531 C525 1.390 . S
C531 C528 1.386 . S
C532 C527 1.490 . S
C532 C534 1.395 . S
C532 C535 1.403 . S
H533 C539 0.930 . S
C534 H520 0.930 . S
C534 C532 1.395 . S
C534 C537 1.403 . S
C535 C532 1.403 . S
C535 C536 1.524 . S
C535 C539 1.400 1_556 S
C536 H521 0.947 1_556 S
C536 H522 0.984 . S
C536 H523 0.950 1_556 S
C536 C535 1.524 . S
C537 C534 1.403 . S
C537 C538 1.392 1_556 S
C537 C541 1.495 . S
C538 C537 1.392 1_554 S
C538 C539 1.385 . S
C538 C540 1.478 . S
C539 H533 0.930 . S
C539 C535 1.400 1_554 S
C539 C538 1.385 . S
C540 C538 1.478 . S
C540 C542 1.381 . S
C540 C546 1.383 . S
C541 C537 1.495 . S
C541 H547 0.959 . S
C541 H548 0.961 1_556 S
C541 H549 0.960 . S
C542 C540 1.381 . S
C542 C543 1.394 . S
C542 H550 0.930 1_554 S
C543 C542 1.394 . S
C543 C544 1.383 . S
C543 H551 0.929 . S
C544 C543 1.383 . S
C544 C545 1.377 . S
C545 H529 0.930 . S
C545 C544 1.377 . S
C545 C546 1.379 . S
C546 H530 0.931 . S
C546 C540 1.383 . S
C546 C545 1.379 . S
H547 C541 0.959 . S
H548 C541 0.961 1_554 S
H549 C541 0.960 . S
H550 C542 0.930 1_556 S
H551 C543 0.929 . S
H552 C560 0.929 . S
H553 C562 0.930 . S
H554 C564 0.930 . S
H555 C567 0.929 . S
H556 C570 0.943 1_655 S
H557 C572 0.960 . S
H558 C572 0.960 . S
H559 C572 0.960 . S
C560 H552 0.929 . S
C560 C561 1.377 . S
C560 C562 1.384 . S
C561 C560 1.377 . S
C561 C567 1.390 . S
C562 H553 0.930 . S
C562 C560 1.384 . S
C562 C563 1.372 . S
C563 C562 1.372 . S
C563 C564 1.400 . S
C563 C568 1.490 . S
C564 H554 0.930 . S
C564 C563 1.400 . S
C564 C567 1.386 . S
H565 C581 0.930 . S
H566 C582 0.931 . S
C567 H555 0.929 . S
C567 C561 1.390 . S
C567 C564 1.386 . S
C568 C563 1.490 . S
C568 C570 1.357 1_655 S
C568 C571 1.403 . S
H569 C575 0.930 . S
C570 H556 0.943 1_455 S
C570 C568 1.357 1_455 S
C570 C573 1.432 . S
C571 C568 1.403 . S
C571 C572 1.524 . S
C571 C575 1.400 1_655 S
C572 H557 0.960 . S
C572 H558 0.960 . S
C572 H559 0.960 . S
C572 C571 1.524 . S
C573 C570 1.432 . S
C573 C574 1.392 . S
C573 C577 1.495 . S
C574 C573 1.392 . S
C574 C575 1.385 . S
C574 C576 1.478 . S
C575 H569 0.930 . S
C575 C571 1.400 1_455 S
C575 C574 1.385 . S
C576 C574 1.478 . S
C576 C578 1.381 . S
C576 C582 1.383 . S
C577 C573 1.495 . S
C577 H583 0.959 . S
C577 H584 0.961 . S
C577 H585 0.960 . S
C578 C576 1.381 . S
C578 C579 1.394 . S
C578 H586 0.930 . S
C579 C578 1.394 . S
C579 C580 1.383 . S
C579 H587 0.929 . S
C580 C579 1.383 . S
C580 C581 1.377 . S
C581 H565 0.930 . S
C581 C580 1.377 . S
C581 C582 1.379 . S
C582 H566 0.931 . S
C582 C576 1.383 . S
C582 C581 1.379 . S
H583 C577 0.959 . S
H584 C577 0.961 . S
H585 C577 0.960 . S
H586 C578 0.930 . S
H587 C579 0.929 . S
H588 C596 0.929 . S
H589 C598 0.930 . S
H590 C600 0.930 . S
H591 C603 0.929 . S
H592 C606 0.930 . S
H593 C608 0.960 . S
H594 C608 0.960 . S
H595 C608 0.960 . S
C596 H588 0.929 . S
C596 C597 1.377 . S
C596 C598 1.384 . S
C597 C596 1.377 . S
C597 C603 1.390 . S
C598 H589 0.930 . S
C598 C596 1.384 . S
C598 C599 1.372 . S
C599 C598 1.372 . S
C599 C600 1.400 . S
C599 C604 1.490 . S
C600 H590 0.930 . S
C600 C599 1.400 . S
C600 C603 1.386 . S
H601 C617 0.930 . S
H602 C618 0.931 . S
C603 H591 0.929 . S
C603 C597 1.390 . S
C603 C600 1.386 . S
C604 C599 1.490 . S
C604 C606 1.395 . S
C604 C607 1.403 . S
H605 C611 0.930 . S
C606 H592 0.930 . S
C606 C604 1.395 . S
C606 C609 1.403 . S
C607 C604 1.403 . S
C607 C608 1.524 . S
C607 C611 1.400 . S
C608 H593 0.960 . S
C608 H594 0.960 . S
C608 H595 0.960 . S
C608 C607 1.524 . S
C609 C606 1.403 . S
C609 C610 1.392 . S
C609 C613 1.495 . S
C610 C609 1.392 . S
C610 C611 1.385 . S
C610 C612 1.478 . S
C611 H605 0.930 . S
C611 C607 1.400 . S
C611 C610 1.385 . S
C612 C610 1.478 . S
C612 C614 1.381 . S
C612 C618 1.383 . S
C613 C609 1.495 . S
C613 H619 0.959 . S
C613 H620 0.961 . S
C613 H621 0.960 . S
C614 C612 1.381 . S
C614 C615 1.394 . S
C614 H622 0.930 . S
C615 C614 1.394 . S
C615 C616 1.383 . S
C615 H623 0.929 . S
C616 C615 1.383 . S
C616 C617 1.377 . S
C617 H601 0.930 . S
C617 C616 1.377 . S
C617 C618 1.379 . S
C618 H602 0.931 . S
C618 C612 1.383 . S
C618 C617 1.379 . S
H619 C613 0.959 . S
H620 C613 0.961 . S
H621 C613 0.960 . S
H622 C614 0.930 . S
H623 C615 0.929 . S
H624 C632 0.929 . S
H625 C634 0.930 . S
H626 C636 0.930 . S
H627 C639 0.929 . S
H628 C642 0.930 . S
H629 C644 0.960 . S
H630 C644 0.960 . S
H631 C644 0.960 . S
C632 H624 0.929 . S
C632 C633 1.377 . S
C632 C634 1.384 . S
C633 C632 1.377 . S
C633 C639 1.390 . S
C634 H625 0.930 . S
C634 C632 1.384 . S
C634 C635 1.372 . S
C635 C634 1.372 . S
C635 C636 1.400 . S
C635 C640 1.490 . S
C636 H626 0.930 . S
C636 C635 1.400 . S
C636 C639 1.386 . S
H637 C653 0.930 . S
H638 C654 0.931 . S
C639 H627 0.929 . S
C639 C633 1.390 . S
C639 C636 1.386 . S
C640 C635 1.490 . S
C640 C642 1.395 . S
C640 C643 1.403 . S
H641 C647 0.930 . S
C642 H628 0.930 . S
C642 C640 1.395 . S
C642 C645 1.403 . S
C643 C640 1.403 . S
C643 C644 1.524 . S
C643 C647 1.400 . S
C644 H629 0.960 . S
C644 H630 0.960 . S
C644 H631 0.960 . S
C644 C643 1.524 . S
C645 C642 1.403 . S
C645 C646 1.392 . S
C645 C649 1.495 . S
C646 C645 1.392 . S
C646 C647 1.385 . S
C646 C648 1.478 . S
C647 H641 0.930 . S
C647 C643 1.400 . S
C647 C646 1.385 . S
C648 C646 1.478 . S
C648 C650 1.381 . S
C648 C654 1.383 . S
C649 C645 1.495 . S
C649 H655 0.959 . S
C649 H656 0.961 . S
C649 H657 0.960 . S
C650 C648 1.381 . S
C650 C651 1.394 . S
C650 H658 0.930 . S
C651 C650 1.394 . S
C651 C652 1.383 . S
C651 H659 0.929 . S
C652 C651 1.383 . S
C652 C653 1.377 . S
C653 H637 0.930 . S
C653 C652 1.377 . S
C653 C654 1.379 . S
C654 H638 0.931 . S
C654 C648 1.383 . S
C654 C653 1.379 . S
H655 C649 0.959 . S
H656 C649 0.961 . S
H657 C649 0.960 . S
H658 C650 0.930 . S
H659 C651 0.929 . S
H660 C668 0.929 . S
H661 C670 0.930 . S
H662 C672 0.930 . S
H663 C675 0.929 . S
H664 C678 0.930 . S
H665 C680 0.960 . S
H666 C680 0.960 . S
H667 C680 0.960 . S
C668 H660 0.929 . S
C668 C669 1.377 . S
C668 C670 1.384 . S
C669 C668 1.377 . S
C669 C675 1.390 . S
C670 H661 0.930 . S
C670 C668 1.384 . S
C670 C671 1.372 . S
C671 C670 1.372 . S
C671 C672 1.400 . S
C671 C676 1.490 . S
C672 H662 0.930 . S
C672 C671 1.400 . S
C672 C675 1.386 . S
H673 C689 0.930 . S
H674 C690 0.931 . S
C675 H663 0.929 . S
C675 C669 1.390 . S
C675 C672 1.386 . S
C676 C671 1.490 . S
C676 C678 1.395 . S
C676 C679 1.403 . S
H677 C683 0.930 . S
C678 H664 0.930 . S
C678 C676 1.395 . S
C678 C681 1.403 . S
C679 C676 1.403 . S
C679 C680 1.524 . S
C679 C683 1.400 . S
C680 H665 0.960 . S
C680 H666 0.960 . S
C680 H667 0.960 . S
C680 C679 1.524 . S
C681 C678 1.403 . S
C681 C682 1.392 . S
C681 C685 1.495 . S
C682 C681 1.392 . S
C682 C683 1.385 . S
C682 C684 1.478 . S
C683 H677 0.930 . S
C683 C679 1.400 . S
C683 C682 1.385 . S
C684 C682 1.478 . S
C684 C686 1.381 . S
C684 C690 1.383 . S
C685 C681 1.495 . S
C685 H691 0.959 . S
C685 H692 0.961 . S
C685 H693 0.960 . S
C686 C684 1.381 . S
C686 C687 1.394 . S
C686 H694 0.930 . S
C687 C686 1.394 . S
C687 C688 1.383 . S
C687 H695 0.929 . S
C688 C687 1.383 . S
C688 C689 1.377 . S
C689 H673 0.930 . S
C689 C688 1.377 . S
C689 C690 1.379 . S
C690 H674 0.931 . S
C690 C684 1.383 . S
C690 C689 1.379 . S
H691 C685 0.959 . S
H692 C685 0.961 . S
H693 C685 0.960 . S
H694 C686 0.930 . S
H695 C687 0.929 . S
H696 C704 0.929 . S
H697 C706 0.930 . S
H698 C708 0.930 . S
H699 C711 0.929 . S
H700 C714 0.930 . S
H701 C716 0.960 . S
H702 C716 0.960 . S
H703 C716 0.960 . S
C704 H696 0.929 . S
C704 C705 1.377 . S
C704 C706 1.384 . S
C705 C704 1.377 . S
C705 C711 1.390 . S
C706 H697 0.930 . S
C706 C704 1.384 . S
C706 C707 1.372 . S
C707 C706 1.372 . S
C707 C708 1.400 . S
C707 C712 1.490 . S
C708 H698 0.930 . S
C708 C707 1.400 . S
C708 C711 1.386 . S
H709 C725 0.930 . S
H710 C726 0.931 . S
C711 H699 0.929 . S
C711 C705 1.390 . S
C711 C708 1.386 . S
C712 C707 1.490 . S
C712 C714 1.395 . S
C712 C715 1.403 . S
H713 C719 0.930 . S
C714 H700 0.930 . S
C714 C712 1.395 . S
C714 C717 1.403 . S
C715 C712 1.403 . S
C715 C716 1.524 . S
C715 C719 1.400 . S
C716 H701 0.960 . S
C716 H702 0.960 . S
C716 H703 0.960 . S
C716 C715 1.524 . S
C717 C714 1.403 . S
C717 C718 1.392 . S
C717 C721 1.495 . S
C718 C717 1.392 . S
C718 C719 1.385 . S
C718 C720 1.478 . S
C719 H713 0.930 . S
C719 C715 1.400 . S
C719 C718 1.385 . S
C720 C718 1.478 . S
C720 C722 1.381 . S
C720 C726 1.383 . S
C721 C717 1.495 . S
C721 H727 0.959 . S
C721 H728 0.961 . S
C721 H729 0.960 . S
C722 C720 1.381 . S
C722 C723 1.394 . S
C722 H730 0.930 . S
C723 C722 1.394 . S
C723 C724 1.383 . S
C723 H731 0.929 . S
C724 C723 1.383 . S
C724 C725 1.377 . S
C725 H709 0.930 . S
C725 C724 1.377 . S
C725 C726 1.379 . S
C726 H710 0.931 . S
C726 C720 1.383 . S
C726 C725 1.379 . S
H727 C721 0.959 . S
H728 C721 0.961 . S
H729 C721 0.960 . S
H730 C722 0.930 . S
H731 C723 0.929 . S
H732 C740 0.929 . S
H733 C742 0.930 . S
H734 C744 0.930 . S
H735 C747 0.929 . S
H736 C750 0.930 . S
H737 C752 0.960 . S
H738 C752 0.960 . S
H739 C752 0.960 . S
C740 H732 0.929 . S
C740 C741 1.377 . S
C740 C742 1.384 . S
C741 C740 1.377 . S
C741 C747 1.390 . S
C742 H733 0.930 . S
C742 C740 1.384 . S
C742 C743 1.372 . S
C743 C742 1.372 . S
C743 C744 1.400 . S
C743 C748 1.490 . S
C744 H734 0.930 . S
C744 C743 1.400 . S
C744 C747 1.386 . S
H745 C761 0.930 . S
H746 C762 0.931 . S
C747 H735 0.929 . S
C747 C741 1.390 . S
C747 C744 1.386 . S
C748 C743 1.490 . S
C748 C750 1.395 . S
C748 C751 1.403 . S
H749 C755 0.930 . S
C750 H736 0.930 . S
C750 C748 1.395 . S
C750 C753 1.403 . S
C751 C748 1.403 . S
C751 C752 1.524 . S
C751 C755 1.400 . S
C752 H737 0.960 . S
C752 H738 0.960 . S
C752 H739 0.960 . S
C752 C751 1.524 . S
C753 C750 1.403 . S
C753 C754 1.392 . S
C753 C757 1.495 . S
C754 C753 1.392 . S
C754 C755 1.385 . S
C754 C756 1.478 . S
C755 H749 0.930 . S
C755 C751 1.400 . S
C755 C754 1.385 . S
C756 C754 1.478 . S
C756 C758 1.381 . S
C756 C762 1.383 . S
C757 C753 1.495 . S
C757 H763 0.959 . S
C757 H764 0.961 . S
C757 H765 0.960 . S
C758 C756 1.381 . S
C758 C759 1.394 . S
C758 H766 0.930 . S
C759 C758 1.394 . S
C759 C760 1.383 . S
C759 H767 0.929 . S
C760 C759 1.383 . S
C760 C761 1.377 . S
C761 H745 0.930 . S
C761 C760 1.377 . S
C761 C762 1.379 . S
C762 H746 0.931 . S
C762 C756 1.383 . S
C762 C761 1.379 . S
H763 C757 0.959 . S
H764 C757 0.961 . S
H765 C757 0.960 . S
H766 C758 0.930 . S
H767 C759 0.929 . S
H768 C776 0.929 . S
H769 C778 0.930 . S
H770 C780 0.930 . S
H771 C783 0.929 . S
H772 C786 0.930 . S
H773 C788 0.960 . S
H774 C788 0.960 . S
H775 C788 0.960 . S
C776 H768 0.929 . S
C776 C777 1.377 . S
C776 C778 1.384 . S
C777 C776 1.377 . S
C777 C783 1.390 . S
C778 H769 0.930 . S
C778 C776 1.384 . S
C778 C779 1.372 . S
C779 C778 1.372 . S
C779 C780 1.400 . S
C779 C784 1.490 . S
C780 H770 0.930 . S
C780 C779 1.400 . S
C780 C783 1.386 . S
H781 C797 0.930 . S
H782 C798 0.931 . S
C783 H771 0.929 . S
C783 C777 1.390 . S
C783 C780 1.386 . S
C784 C779 1.490 . S
C784 C786 1.395 . S
C784 C787 1.403 . S
H785 C791 0.930 . S
C786 H772 0.930 . S
C786 C784 1.395 . S
C786 C789 1.403 . S
C787 C784 1.403 . S
C787 C788 1.524 . S
C787 C791 1.400 . S
C788 H773 0.960 . S
C788 H774 0.960 . S
C788 H775 0.960 . S
C788 C787 1.524 . S
C789 C786 1.403 . S
C789 C790 1.392 . S
C789 C793 1.495 . S
C790 C789 1.392 . S
C790 C791 1.385 . S
C790 C792 1.478 . S
C791 H785 0.930 . S
C791 C787 1.400 . S
C791 C790 1.385 . S
C792 C790 1.478 . S
C792 C794 1.381 . S
C792 C798 1.383 . S
C793 C789 1.495 . S
C793 H799 0.959 . S
C793 H800 0.961 . S
C793 H801 0.960 . S
C794 C792 1.381 . S
C794 C795 1.394 . S
C794 H802 0.930 . S
C795 C794 1.394 . S
C795 C796 1.383 . S
C795 H803 0.929 . S
C796 C795 1.383 . S
C796 C797 1.377 . S
C797 H781 0.930 . S
C797 C796 1.377 . S
C797 C798 1.379 . S
C798 H782 0.931 . S
C798 C792 1.383 . S
C798 C797 1.379 . S
H799 C793 0.959 . S
H800 C793 0.961 . S
H801 C793 0.960 . S
H802 C794 0.930 . S
H803 C795 0.929 . S
H804 C812 0.929 . S
H805 C814 0.930 . S
H806 C816 0.930 . S
H807 C819 0.929 . S
H808 C822 0.930 . S
H809 C824 0.960 . S
H810 C824 0.960 . S
H811 C824 0.960 . S
C812 H804 0.929 . S
C812 C813 1.377 . S
C812 C814 1.384 . S
C813 C812 1.377 . S
C813 C819 1.390 . S
C814 H805 0.930 . S
C814 C812 1.384 . S
C814 C815 1.372 . S
C815 C814 1.372 . S
C815 C816 1.400 . S
C815 C820 1.490 . S
C816 H806 0.930 . S
C816 C815 1.400 . S
C816 C819 1.386 . S
H817 C833 0.930 . S
H818 C834 0.931 . S
C819 H807 0.929 . S
C819 C813 1.390 . S
C819 C816 1.386 . S
C820 C815 1.490 . S
C820 C822 1.395 . S
C820 C823 1.403 . S
H821 C827 0.930 . S
C822 H808 0.930 . S
C822 C820 1.395 . S
C822 C825 1.403 . S
C823 C820 1.403 . S
C823 C824 1.524 . S
C823 C827 1.400 . S
C824 H809 0.960 . S
C824 H810 0.960 . S
C824 H811 0.960 . S
C824 C823 1.524 . S
C825 C822 1.403 . S
C825 C826 1.392 . S
C825 C829 1.495 . S
C826 C825 1.392 . S
C826 C827 1.385 . S
C826 C828 1.478 . S
C827 H821 0.930 . S
C827 C823 1.400 . S
C827 C826 1.385 . S
C828 C826 1.478 . S
C828 C830 1.381 . S
C828 C834 1.383 . S
C829 C825 1.495 . S
C829 H835 0.959 . S
C829 H836 0.961 . S
C829 H837 0.960 . S
C830 C828 1.381 . S
C830 C831 1.394 . S
C830 H838 0.930 . S
C831 C830 1.394 . S
C831 C832 1.383 . S
C831 H839 0.929 . S
C832 C831 1.383 . S
C832 C833 1.377 . S
C833 H817 0.930 . S
C833 C832 1.377 . S
C833 C834 1.379 . S
C834 H818 0.931 . S
C834 C828 1.383 . S
C834 C833 1.379 . S
H835 C829 0.959 . S
H836 C829 0.961 . S
H837 C829 0.960 . S
H838 C830 0.930 . S
H839 C831 0.929 . S
H840 C848 0.929 . S
H841 C850 0.930 . S
H842 C852 0.930 . S
H843 C855 0.929 . S
H844 C858 0.930 . S
H845 C860 0.960 . S
H846 C860 0.960 . S
H847 C860 0.960 . S
C848 H840 0.929 . S
C848 C849 1.377 . S
C848 C850 1.384 . S
C849 C848 1.377 . S
C849 C855 1.390 . S
C850 H841 0.930 . S
C850 C848 1.384 . S
C850 C851 1.372 . S
C851 C850 1.372 . S
C851 C852 1.400 . S
C851 C856 1.490 . S
C852 H842 0.930 . S
C852 C851 1.400 . S
C852 C855 1.386 . S
H853 C869 0.930 . S
H854 C870 0.931 . S
C855 H843 0.929 . S
C855 C849 1.390 . S
C855 C852 1.386 . S
C856 C851 1.490 . S
C856 C858 1.395 . S
C856 C859 1.403 . S
H857 C863 0.930 . S
C858 H844 0.930 . S
C858 C856 1.395 . S
C858 C861 1.403 . S
C859 C856 1.403 . S
C859 C860 1.524 . S
C859 C863 1.400 . S
C860 H845 0.960 . S
C860 H846 0.960 . S
C860 H847 0.960 . S
C860 C859 1.524 . S
C861 C858 1.403 . S
C861 C862 1.392 . S
C861 C865 1.495 . S
C862 C861 1.392 . S
C862 C863 1.385 . S
C862 C864 1.478 . S
C863 H857 0.930 . S
C863 C859 1.400 . S
C863 C862 1.385 . S
C864 C862 1.478 . S
C864 C866 1.381 . S
C864 C870 1.383 . S
C865 C861 1.495 . S
C865 H871 0.959 . S
C865 H872 0.961 . S
C865 H873 0.960 . S
C866 C864 1.381 . S
C866 C867 1.394 . S
C866 H874 0.930 . S
C867 C866 1.394 . S
C867 C868 1.383 . S
C867 H875 0.929 . S
C868 C867 1.383 . S
C868 C869 1.377 . S
C869 H853 0.930 . S
C869 C868 1.377 . S
C869 C870 1.379 . S
C870 H854 0.931 . S
C870 C864 1.383 . S
C870 C869 1.379 . S
H871 C865 0.959 . S
H872 C865 0.961 . S
H873 C865 0.960 . S
H874 C866 0.930 . S
H875 C867 0.929 . S
H876 C884 0.929 . S
H877 C886 0.930 . S
H878 C888 0.930 . S
H879 C891 0.929 . S
H880 C894 0.930 . S
H881 C896 0.960 . S
H882 C896 0.960 . S
H883 C896 0.960 . S
C884 H876 0.929 . S
C884 C885 1.377 . S
C884 C886 1.384 . S
C885 C884 1.377 . S
C885 C891 1.390 . S
C886 H877 0.930 . S
C886 C884 1.384 . S
C886 C887 1.372 . S
C887 C886 1.372 . S
C887 C888 1.400 . S
C887 C892 1.490 . S
C888 H878 0.930 . S
C888 C887 1.400 . S
C888 C891 1.386 . S
H889 C905 0.930 . S
H890 C906 0.931 . S
C891 H879 0.929 . S
C891 C885 1.390 . S
C891 C888 1.386 . S
C892 C887 1.490 . S
C892 C894 1.395 . S
C892 C895 1.403 . S
H893 C899 0.930 . S
C894 H880 0.930 . S
C894 C892 1.395 . S
C894 C897 1.403 . S
C895 C892 1.403 . S
C895 C896 1.524 . S
C895 C899 1.400 . S
C896 H881 0.960 . S
C896 H882 0.960 . S
C896 H883 0.960 . S
C896 C895 1.524 . S
C897 C894 1.403 . S
C897 C898 1.392 . S
C897 C901 1.495 . S
C898 C897 1.392 . S
C898 C899 1.385 . S
C898 C900 1.478 . S
C899 H893 0.930 . S
C899 C895 1.400 . S
C899 C898 1.385 . S
C900 C898 1.478 . S
C900 C902 1.381 . S
C900 C906 1.383 . S
C901 C897 1.495 . S
C901 H907 0.959 . S
C901 H908 0.961 . S
C901 H909 0.960 . S
C902 C900 1.381 . S
C902 C903 1.394 . S
C902 H910 0.930 . S
C903 C902 1.394 . S
C903 C904 1.383 . S
C903 H911 0.929 . S
C904 C903 1.383 . S
C904 C905 1.377 . S
C905 H889 0.930 . S
C905 C904 1.377 . S
C905 C906 1.379 . S
C906 H890 0.931 . S
C906 C900 1.383 . S
C906 C905 1.379 . S
H907 C901 0.959 . S
H908 C901 0.961 . S
H909 C901 0.960 . S
H910 C902 0.930 . S
H911 C903 0.929 . S
H912 C920 0.929 . S
H913 C922 0.930 . S
H914 C924 0.930 . S
H915 C927 0.929 . S
H916 C930 0.930 . S
H917 C932 0.960 . S
H918 C932 0.960 . S
H919 C932 0.960 . S
C920 H912 0.929 . S
C920 C921 1.377 . S
C920 C922 1.384 . S
C921 C920 1.377 . S
C921 C927 1.390 . S
C922 H913 0.930 . S
C922 C920 1.384 . S
C922 C923 1.372 . S
C923 C922 1.372 . S
C923 C924 1.400 . S
C923 C928 1.490 . S
C924 H914 0.930 . S
C924 C923 1.400 . S
C924 C927 1.386 . S
H925 C941 0.930 . S
H926 C942 0.931 . S
C927 H915 0.929 . S
C927 C921 1.390 . S
C927 C924 1.386 . S
C928 C923 1.490 . S
C928 C930 1.395 . S
C928 C931 1.403 . S
H929 C935 0.930 . S
C930 H916 0.930 . S
C930 C928 1.395 . S
C930 C933 1.403 . S
C931 C928 1.403 . S
C931 C932 1.524 . S
C931 C935 1.400 . S
C932 H917 0.960 . S
C932 H918 0.960 . S
C932 H919 0.960 . S
C932 C931 1.524 . S
C933 C930 1.403 . S
C933 C934 1.392 . S
C933 C937 1.495 . S
C934 C933 1.392 . S
C934 C935 1.385 . S
C934 C936 1.478 . S
C935 H929 0.930 . S
C935 C931 1.400 . S
C935 C934 1.385 . S
C936 C934 1.478 . S
C936 C938 1.381 . S
C936 C942 1.383 . S
C937 C933 1.495 . S
C937 H943 0.959 . S
C937 H944 0.961 . S
C937 H945 0.960 . S
C938 C936 1.381 . S
C938 C939 1.394 . S
C938 H946 0.930 . S
C939 C938 1.394 . S
C939 C940 1.383 . S
C939 H947 0.929 . S
C940 C939 1.383 . S
C940 C941 1.377 . S
C941 H925 0.930 . S
C941 C940 1.377 . S
C941 C942 1.379 . S
C942 H926 0.931 . S
C942 C936 1.383 . S
C942 C941 1.379 . S
H943 C937 0.959 . S
H944 C937 0.961 . S
H945 C937 0.960 . S
H946 C938 0.930 . S
H947 C939 0.929 . S
H948 C956 0.929 . S
H949 C958 0.930 . S
H950 C960 0.930 . S
H951 C963 0.929 . S
H952 C966 0.930 . S
H953 C968 0.960 . S
H954 C968 0.960 . S
H955 C968 0.960 . S
C956 H948 0.929 . S
C956 C957 1.377 . S
C956 C958 1.384 . S
C957 C956 1.377 . S
C957 C963 1.390 . S
C958 H949 0.930 . S
C958 C956 1.384 . S
C958 C959 1.372 . S
C959 C958 1.372 . S
C959 C960 1.400 . S
C959 C964 1.490 . S
C960 H950 0.930 . S
C960 C959 1.400 . S
C960 C963 1.386 . S
H961 C977 0.930 . S
H962 C978 0.931 . S
C963 H951 0.929 . S
C963 C957 1.390 . S
C963 C960 1.386 . S
C964 C959 1.490 . S
C964 C966 1.395 . S
C964 C967 1.403 . S
H965 C971 0.930 . S
C966 H952 0.930 . S
C966 C964 1.395 . S
C966 C969 1.403 . S
C967 C964 1.403 . S
C967 C968 1.524 . S
C967 C971 1.400 . S
C968 H953 0.960 . S
C968 H954 0.960 . S
C968 H955 0.960 . S
C968 C967 1.524 . S
C969 C966 1.403 . S
C969 C970 1.392 . S
C969 C973 1.495 . S
C970 C969 1.392 . S
C970 C971 1.385 . S
C970 C972 1.478 . S
C971 H965 0.930 . S
C971 C967 1.400 . S
C971 C970 1.385 . S
C972 C970 1.478 . S
C972 C974 1.381 . S
C972 C978 1.383 . S
C973 C969 1.495 . S
C973 H979 0.959 . S
C973 H980 0.961 . S
C973 H981 0.960 . S
C974 C972 1.381 . S
C974 C975 1.394 . S
C974 H982 0.930 . S
C975 C974 1.394 . S
C975 C976 1.383 . S
C975 H983 0.929 . S
C976 C975 1.383 . S
C976 C977 1.377 . S
C977 H961 0.930 . S
C977 C976 1.377 . S
C977 C978 1.379 . S
C978 H962 0.931 . S
C978 C972 1.383 . S
C978 C977 1.379 . S
H979 C973 0.959 . S
H980 C973 0.961 . S
H981 C973 0.960 . S
H982 C974 0.930 . S
H983 C975 0.929 . S
H984 C992 0.929 . S
H985 C994 0.930 . S
H986 C996 0.930 . S
H987 C999 0.929 . S
H988 C1002 0.930 . S
H989 C1004 0.960 . S
H990 C1004 0.960 . S
H991 C1004 0.960 . S
C992 H984 0.929 . S
C992 C993 1.377 . S
C992 C994 1.384 . S
C993 C992 1.377 . S
C993 C999 1.390 . S
C994 H985 0.930 . S
C994 C992 1.384 . S
C994 C995 1.372 . S
C995 C994 1.372 . S
C995 C996 1.400 . S
C995 C1000 1.490 . S
C996 H986 0.930 . S
C996 C995 1.400 . S
C996 C999 1.386 . S
H997 C1013 0.930 . S
H998 C1014 0.931 . S
C999 H987 0.929 . S
C999 C993 1.390 . S
C999 C996 1.386 . S
C1000 C995 1.490 . S
C1000 C1002 1.395 . S
C1000 C1003 1.403 . S
H1001 C1007 0.930 . S
C1002 H988 0.930 . S
C1002 C1000 1.395 . S
C1002 C1005 1.403 . S
C1003 C1000 1.403 . S
C1003 C1004 1.524 . S
C1003 C1007 1.400 . S
C1004 H989 0.960 . S
C1004 H990 0.960 . S
C1004 H991 0.960 . S
C1004 C1003 1.524 . S
C1005 C1002 1.403 . S
C1005 C1006 1.392 . S
C1005 C1009 1.495 . S
C1006 C1005 1.392 . S
C1006 C1007 1.385 . S
C1006 C1008 1.478 . S
C1007 H1001 0.930 . S
C1007 C1003 1.400 . S
C1007 C1006 1.385 . S
C1008 C1006 1.478 . S
C1008 C1010 1.381 . S
C1008 C1014 1.383 . S
C1009 C1005 1.495 . S
C1009 H1015 0.959 . S
C1009 H1016 0.961 . S
C1009 H1017 0.960 . S
C1010 C1008 1.381 . S
C1010 C1011 1.394 . S
C1010 H1018 0.930 . S
C1011 C1010 1.394 . S
C1011 C1012 1.383 . S
C1011 H1019 0.929 . S
C1012 C1011 1.383 . S
C1012 C1013 1.377 . S
C1013 H997 0.930 . S
C1013 C1012 1.377 . S
C1013 C1014 1.379 . S
C1014 H998 0.931 . S
C1014 C1008 1.383 . S
C1014 C1013 1.379 . S
H1015 C1009 0.959 . S
H1016 C1009 0.961 . S
H1017 C1009 0.960 . S
H1018 C1010 0.930 . S
H1019 C1011 0.929 . S
C165 C138 1.414 . S
C184 C8 1.446 . S
C201 C21 1.282 . S
C220 C151 1.296 . S
C237 C34 1.411 . S
C256 C86 1.442 . S
C273 C99 1.416 . S
C292 C47 1.444 . S
C309 C112 1.291 . S
C328 C60 1.265 . S
C345 C73 1.411 . S
C364 C125 1.442 . S
C381 C0 0.710 . S
C400 C91 0.705 . S
C417 C13 0.596 . S
C436 C104 0.600 . S
C453 C117 0.701 . S
C472 C26 0.721 . S
C489 C130 0.705 . S
C508 C39 0.703 . S
C525 C143 0.605 . S
C544 C52 0.559 . S
C561 C78 0.712 . S
C580 C65 0.701 . S
C597 C10 0.627 . S
C616 C57 0.669 . S
C633 C23 0.643 . S
C652 C70 0.599 . S
C669 C36 0.608 . S
C688 C5 0.589 . S
C705 C49 0.631 . S
C724 C18 0.592 . S
C741 C62 0.642 . S
C760 C31 0.605 . S
C777 C75 0.635 . S
C796 C44 0.691 . S
C813 C88 0.629 . S
C832 C109 0.602 . S
C849 C101 0.605 . S
C868 C122 0.672 . S
C885 C135 0.662 . S
C904 C114 0.590 . S
C921 C127 0.631 . S
C940 C148 0.715 . S
C957 C140 0.626 . S
C976 C83 0.571 . S
C993 C153 0.661 . S
C1012 C96 0.609 . S
