# Generated by pormake.
# Topology yfx, (5)-cn, num edge types: 1
# Building blocks:
#     Node 0, Type 0, BuildingBlock: BEQFEK_clean_sbu_0, # of connection points: 5
#     Node 1, Type 0, BuildingBlock: BEQFEK_clean_sbu_0, # of connection points: 5
#     Node 2, Type 0, BuildingBlock: BEQFEK_clean_sbu_0, # of connection points: 5
#     Node 3, Type 0, BuildingBlock: BEQFEK_clean_sbu_0, # of connection points: 5
#     Node 4, Type 0, BuildingBlock: BEQFEK_clean_sbu_0, # of connection points: 5
#     Node 5, Type 0, BuildingBlock: BEQFEK_clean_sbu_0, # of connection points: 5
#     Node 6, Type 0, BuildingBlock: BEQFEK_clean_sbu_0, # of connection points: 5
#     Node 7, Type 0, BuildingBlock: BEQFEK_clean_sbu_0, # of connection points: 5
#     Edge 8, Type (0, 0), BuildingBlock: CIFDUS_clean_linker_0, # of connection points: 2
#     Edge 9, Type (0, 0), BuildingBlock: CIFDUS_clean_linker_0, # of connection points: 2
#     Edge 10, Type (0, 0), BuildingBlock: CIFDUS_clean_linker_0, # of connection points: 2
#     Edge 11, Type (0, 0), BuildingBlock: CIFDUS_clean_linker_0, # of connection points: 2
#     Edge 12, Type (0, 0), BuildingBlock: CIFDUS_clean_linker_0, # of connection points: 2
#     Edge 13, Type (0, 0), BuildingBlock: CIFDUS_clean_linker_0, # of connection points: 2
#     Edge 14, Type (0, 0), BuildingBlock: CIFDUS_clean_linker_0, # of connection points: 2
#     Edge 15, Type (0, 0), BuildingBlock: CIFDUS_clean_linker_0, # of connection points: 2
#     Edge 16, Type (0, 0), BuildingBlock: CIFDUS_clean_linker_0, # of connection points: 2
#     Edge 17, Type (0, 0), BuildingBlock: CIFDUS_clean_linker_0, # of connection points: 2
#     Edge 18, Type (0, 0), BuildingBlock: CIFDUS_clean_linker_0, # of connection points: 2
#     Edge 19, Type (0, 0), BuildingBlock: CIFDUS_clean_linker_0, # of connection points: 2
#     Edge 20, Type (0, 0), BuildingBlock: CIFDUS_clean_linker_0, # of connection points: 2
#     Edge 21, Type (0, 0), BuildingBlock: CIFDUS_clean_linker_0, # of connection points: 2
#     Edge 22, Type (0, 0), BuildingBlock: CIFDUS_clean_linker_0, # of connection points: 2
#     Edge 23, Type (0, 0), BuildingBlock: CIFDUS_clean_linker_0, # of connection points: 2
#     Edge 24, Type (0, 0), BuildingBlock: CIFDUS_clean_linker_0, # of connection points: 2
#     Edge 25, Type (0, 0), BuildingBlock: CIFDUS_clean_linker_0, # of connection points: 2
#     Edge 26, Type (0, 0), BuildingBlock: CIFDUS_clean_linker_0, # of connection points: 2
#     Edge 27, Type (0, 0), BuildingBlock: CIFDUS_clean_linker_0, # of connection points: 2
# Relax obj value: 0.156
# Max RMSD: 0.151
# Mean RMSD: 0.151
data_MOF--net-yfx--node1-BEQFEK_clean_sbu_0--edge1-CIFDUS_clean_linker_0
_symmetry_space_group_name_H-M    P1
_symmetry_Int_Tables_number       1
_symmetry_cell_setting            triclinic
loop_
_symmetry_equiv_pos_as_xyz
'x, y, z'
_cell_length_a     35.684958
_cell_length_b     35.69592
_cell_length_c     19.76031
_cell_angle_alpha  89.96736
_cell_angle_beta   89.875569
_cell_angle_gamma 89.913851
loop_
_atom_site_label
_atom_site_type_symbol
_atom_site_fract_x
_atom_site_fract_y
_atom_site_fract_z
_atom_type_partial_charge
Co0 Co 0.27525 0.3625 0.0083 0.0
Co1 Co 0.18759 0.37184 0.017 0.0
C2 C 0.22511 0.32512 0.90892 0.0
O3 O 0.25612 0.33349 0.93559 0.0
O4 O 0.19427 0.33836 0.9325 0.0
C5 C 0.34605 0.35459 0.94541 0.0
O6 O 0.32755 0.35857 0.88847 0.0
C7 C 0.11284 0.40906 0.98876 0.0
C8 C 0.08421 0.39944 0.08625 0.0
C9 C 0.08003 0.41735 0.02453 0.0
N10 N 0.1355 0.38794 0.02838 0.0
N11 N 0.11776 0.38212 0.08623 0.0
C12 C 0.12172 0.41944 0.91719 0.0
H13 H 0.15201 0.41531 0.90655 0.0
H14 H 0.11344 0.44881 0.90664 0.0
H15 H 0.10533 0.40119 0.88283 0.0
C16 C 0.27425 0.44277 0.00284 0.0
N17 N 0.25597 0.41019 0.00714 0.0
N18 N 0.21965 0.416 0.01331 0.0
C19 C 0.21409 0.4536 0.01514 0.0
C20 C 0.24842 0.47131 0.00693 0.0
C21 C 0.31601 0.44622 -0.00194 0.0
H22 H 0.32925 0.42879 0.03787 0.0
H23 H 0.32547 0.43563 0.94809 0.0
H24 H 0.3255 0.4756 0.00426 0.0
O25 O 0.26382 0.33733 0.09091 0.0
O26 O 0.2019 0.33954 0.09924 0.0
H27 H 0.15967 0.45593 0.06158 0.0
H28 H 0.18142 0.50097 0.04872 0.0
C29 C 0.17732 0.47267 0.02679 0.0
H30 H 0.16282 0.47626 0.97776 0.0
H31 H 0.12907 0.36717 0.12679 0.0
O32 O 0.32941 0.35971 0.00138 0.0
C33 C 0.23388 0.32863 0.12133 0.0
Co34 Co 0.64761 0.27551 0.00086 0.0
Co35 Co 0.63543 0.18796 0.00622 0.0
C36 C 0.67867 0.22614 0.89404 0.0
O37 O 0.67239 0.2569 0.92334 0.0
O38 O 0.66583 0.19537 0.91817 0.0
C39 C 0.65583 0.34644 0.94037 0.0
O40 O 0.6471 0.3288 0.88427 0.0
C41 C 0.59185 0.11877 0.97129 0.0
C42 C 0.60213 0.08323 0.06058 0.0
C43 C 0.58141 0.08492 0.00142 0.0
N44 N 0.61688 0.13639 0.0115 0.0
N45 N 0.62332 0.11444 0.06414 0.0
C46 C 0.57883 0.13387 0.90471 0.0
H47 H 0.58323 0.16461 0.90215 0.0
H48 H 0.54899 0.12695 0.89559 0.0
H49 H 0.59555 0.12059 0.86382 0.0
C50 C 0.56757 0.27784 0.00577 0.0
N51 N 0.59951 0.25826 0.00515 0.0
N52 N 0.59266 0.22215 0.01138 0.0
C53 C 0.55509 0.21815 0.01884 0.0
C54 C 0.53841 0.25314 0.01357 0.0
C55 C 0.56537 0.31967 0.00119 0.0
H56 H 0.5847 0.3323 0.0386 0.0
H57 H 0.57436 0.32867 0.94993 0.0
H58 H 0.53661 0.33019 0.01107 0.0
O59 O 0.6751 0.26052 0.07856 0.0
O60 O 0.67117 0.19861 0.08563 0.0
H61 H 0.50954 0.18762 0.06414 0.0
H62 H 0.52578 0.16986 0.98501 0.0
C63 C 0.53504 0.18235 0.03337 0.0
H64 H 0.5534 0.16267 0.06115 0.0
H65 H 0.64084 0.12158 0.10431 0.0
O66 O 0.65291 0.32963 -0.00331 0.0
C67 C 0.68375 0.23007 0.10726 0.0
Co68 Co 0.73911 0.6423 0.00352 0.0
Co69 Co 0.82692 0.63313 0.01492 0.0
C70 C 0.7903 0.68256 0.90951 0.0
O71 O 0.75899 0.67275 0.93358 0.0
O72 O 0.821 0.66925 0.93339 0.0
C73 C 0.67388 0.6791 0.00036 0.0
O74 O 0.69916 0.70581 0.00127 0.0
C75 C 0.90127 0.59643 0.98322 0.0
C76 C 0.92844 0.59923 0.08321 0.0
C77 C 0.93306 0.58498 0.01863 0.0
N78 N 0.87877 0.61621 0.02536 0.0
N79 N 0.89572 0.61813 0.0847 0.0
C80 C 0.89217 0.58794 0.91107 0.0
H81 H 0.86174 0.59169 0.90158 0.0
H82 H 0.90113 0.55905 0.8979 0.0
H83 H 0.90791 0.60756 0.87803 0.0
C84 C 0.74052 0.56273 0.99054 0.0
N85 N 0.75873 0.59509 -0.00197 0.0
N86 N 0.79493 0.58918 0.00563 0.0
C87 C 0.80048 0.55158 0.00537 0.0
C88 C 0.76631 0.53409 -0.006 0.0
C89 C 0.69871 0.55976 0.98592 0.0
H90 H 0.68584 0.57435 0.02975 0.0
H91 H 0.68903 0.57405 0.93921 0.0
H92 H 0.68889 0.53031 0.98575 0.0
O93 O 0.75027 0.66449 0.08836 0.0
O94 O 0.81187 0.66235 0.10074 0.0
H95 H 0.85355 0.54839 0.05623 0.0
H96 H 0.83241 0.50358 0.03869 0.0
C97 C 0.83694 0.53231 0.01898 0.0
H98 H 0.85287 0.52974 0.97109 0.0
H99 H 0.88411 0.6309 0.12742 0.0
O100 O 0.68455 0.64516 -0.00163 0.0
C101 C 0.77931 0.67219 0.12184 0.0
Co102 Co 0.35917 0.73496 0.99149 0.0
Co103 Co 0.36913 0.82274 0.00433 0.0
C104 C 0.32251 0.78562 0.89418 0.0
O105 O 0.33086 0.75414 0.91904 0.0
O106 O 0.33556 0.81598 0.91963 0.0
C107 C 0.34849 0.66362 0.93218 0.0
O108 O 0.3513 0.68185 0.87464 0.0
C109 C 0.41504 0.89047 0.97084 0.0
C110 C 0.40112 0.92856 0.05495 0.0
C111 C 0.42456 0.92501 -0.00075 0.0
N112 N 0.38792 0.87427 0.0088 0.0
N113 N 0.37945 0.89766 0.05839 0.0
C114 C 0.43035 0.87374 0.90703 0.0
H115 H 0.41636 0.8467 0.89574 0.0
H116 H 0.46095 0.8692 0.91096 0.0
H117 H 0.42572 0.89356 0.86456 0.0
C118 C 0.43992 0.73613 0.98642 0.0
N119 N 0.40699 0.75401 0.98959 0.0
N120 N 0.4121 0.78954 0.00441 0.0
C121 C 0.44897 0.79459 0.01685 0.0
C122 C 0.46778 0.76117 0.00421 0.0
C123 C 0.44405 0.69621 0.96435 0.0
H124 H 0.4396 0.67749 0.00848 0.0
H125 H 0.42269 0.68955 0.92567 0.0
H126 H 0.47218 0.6908 0.94244 0.0
O127 O 0.33379 0.74849 0.0743 0.0
O128 O 0.3371 0.81026 0.08661 0.0
H129 H 0.4427 0.84375 0.07932 0.0
H130 H 0.48609 0.81841 0.09063 0.0
C131 C 0.46497 0.82772 0.05297 0.0
H132 H 0.47956 0.84597 0.01637 0.0
H133 H 0.35999 0.89183 0.09647 0.0
O134 O 0.35547 0.68037 0.98736 0.0
C135 C 0.32572 0.77806 0.10673 0.0
Co136 Co 0.76977 0.85892 0.49859 0.0
Co137 Co 0.68206 0.86509 0.51636 0.0
C138 C 0.71781 0.81491 0.41234 0.0
O139 O 0.74888 0.8255 0.43564 0.0
O140 O 0.68698 0.82887 0.43462 0.0
C141 C 0.83735 0.84867 0.426 0.0
O142 O 0.81578 0.84841 0.37223 0.0
C143 C 0.60563 0.90168 0.49824 0.0
C144 C 0.58215 0.89129 0.59978 0.0
C145 C 0.57463 0.90977 0.53952 0.0
N146 N 0.6302 0.88025 0.53362 0.0
N147 N 0.61546 0.87399 0.59392 0.0
C148 C 0.61108 0.91245 0.42572 0.0
H149 H 0.63407 0.89574 0.40271 0.0
H150 H 0.61832 0.94251 0.42176 0.0
H151 H 0.58465 0.90805 0.39733 0.0
C152 C 0.76433 0.93869 0.48233 0.0
N153 N 0.74784 0.90541 0.49068 0.0
N154 N 0.71215 0.90983 0.50565 0.0
C155 C 0.70554 0.94702 0.51202 0.0
C156 C 0.73831 0.96628 0.49662 0.0
C157 C 0.80421 0.94334 0.46007 0.0
H158 H 0.82307 0.93828 0.50372 0.0
H159 H 0.81087 0.9225 0.42033 0.0
H160 H 0.80947 0.9717 0.43922 0.0
O161 O 0.76257 0.83766 0.58729 0.0
O162 O 0.70071 0.83646 0.59916 0.0
H163 H 0.65752 0.94338 0.57795 0.0
H164 H 0.67879 0.98905 0.57367 0.0
C165 C 0.67131 0.96379 0.5439 0.0
H166 H 0.65153 0.97275 0.504 0.0
H167 H 0.62882 0.85893 0.63224 0.0
O168 O 0.8237 0.85738 0.48325 0.0
C169 C 0.73364 0.82842 0.62051 0.0
Co170 Co 0.14062 0.77674 0.49316 0.0
Co171 Co 0.13076 0.68906 0.50255 0.0
C172 C 0.17912 0.72373 0.39704 0.0
O173 O 0.17081 0.75471 0.42421 0.0
O174 O 0.16468 0.69303 0.41852 0.0
C175 C 0.15098 0.84602 0.42456 0.0
O176 O 0.14777 0.82651 0.36854 0.0
C177 C 0.09675 0.61083 0.4865 0.0
C178 C 0.09736 0.59401 0.59393 0.0
C179 C 0.08557 0.58221 0.53071 0.0
N180 N 0.11362 0.63827 0.52285 0.0
N181 N 0.11398 0.62751 0.58681 0.0
C182 C 0.09333 0.61118 0.41109 0.0
H183 H 0.1076 0.63609 0.38944 0.0
H184 H 0.06346 0.61156 0.39608 0.0
H185 H 0.10591 0.5852 0.39009 0.0
C186 C 0.06038 0.77599 0.4832 0.0
N187 N 0.09296 0.75782 0.48973 0.0
N188 N 0.08721 0.72147 0.49467 0.0
C189 C 0.04974 0.71567 0.4928 0.0
C190 C 0.03197 0.74996 0.48416 0.0
C191 C 0.05683 0.81776 0.47954 0.0
H192 H 0.07465 0.83077 0.51896 0.0
H193 H 0.06698 0.82748 0.42942 0.0
H194 H 0.02746 0.82719 0.48681 0.0
O195 O 0.16365 0.76727 0.57835 0.0
O196 O 0.16291 0.70526 0.58332 0.0
H197 H 0.04301 0.66273 0.54231 0.0
H198 H 1.00035 0.68137 0.50637 0.0
C199 C 0.03104 0.67841 0.49905 0.0
H200 H 0.03593 0.66235 0.45203 0.0
H201 H 0.12469 0.64364 0.62632 0.0
O202 O 0.14444 0.83066 0.48124 0.0
C203 C 0.17281 0.73706 0.60733 0.0
Co204 Co 0.23448 0.14434 0.50882 0.0
Co205 Co 0.32185 0.13169 0.51523 0.0
C206 C 0.28727 0.18093 0.41039 0.0
O207 O 0.25637 0.17351 0.43867 0.0
O208 O 0.31787 0.16597 0.43136 0.0
C209 C 0.16511 0.15485 0.44168 0.0
O210 O 0.18423 0.14932 0.38569 0.0
C211 C 0.39734 0.09421 0.49026 0.0
C212 C 0.41371 0.08425 0.59635 0.0
C213 C 0.42392 0.07593 0.53042 0.0
N214 N 0.37223 0.1117 0.5311 0.0
N215 N 0.38309 0.10627 0.59428 0.0
C216 C 0.3938 0.09182 0.41504 0.0
H217 H 0.36507 0.09972 0.39887 0.0
H218 H 0.40083 0.06316 0.39722 0.0
H219 H 0.41409 0.11147 0.39157 0.0
C220 C 0.23234 0.06433 0.49712 0.0
N221 N 0.25167 0.09612 0.50452 0.0
N222 N 0.28789 0.08909 0.50738 0.0
C223 C 0.29239 0.05144 0.50275 0.0
C224 C 0.2574 0.03505 0.49484 0.0
C225 C 0.19044 0.06222 0.49497 0.0
H226 H 0.1783 0.08081 0.53426 0.0
H227 H 0.18059 0.07203 0.44478 0.0
H228 H 0.18024 0.03325 0.50351 0.0
O229 O 0.24574 0.16697 0.59321 0.0
O230 O 0.30773 0.16423 0.59808 0.0
H231 H 0.34569 0.04114 0.5486 0.0
H232 H 0.32512 1.00048 0.50938 0.0
C233 C 0.32905 0.0312 0.50497 0.0
H234 H 0.34465 0.03682 0.45764 0.0
H235 H 0.36803 0.11547 0.63649 0.0
O236 O 0.18069 0.14995 0.49861 0.0
C237 C 0.27614 0.17511 0.62232 0.0
Co238 Co 0.86374 0.2335 0.49967 0.0
Co239 Co 0.87492 0.3212 0.50447 0.0
C240 C 0.83296 0.28326 0.3918 0.0
O241 O 0.83989 0.2524 0.42064 0.0
O242 O 0.84468 0.31433 0.41665 0.0
C243 C 0.82516 0.16963 0.49214 0.0
O244 O 0.79962 0.19571 0.48324 0.0
C245 C 0.91192 0.39618 0.47657 0.0
C246 C 0.9169 0.41648 0.58162 0.0
C247 C 0.92771 0.42456 0.51591 0.0
N248 N 0.89337 0.37215 0.51777 0.0
N249 N 0.89583 0.38527 0.58015 0.0
C250 C 0.91771 0.39003 0.40247 0.0
H251 H 0.91108 0.36064 0.38862 0.0
H252 H 0.94696 0.39696 0.38793 0.0
H253 H 0.89881 0.40906 0.37406 0.0
C254 C 0.94379 0.2322 0.50294 0.0
N255 N 0.91158 0.25129 0.50443 0.0
N256 N 0.91802 0.2876 0.50638 0.0
C257 C 0.95567 0.29246 0.50719 0.0
C258 C 0.97277 0.25755 0.50389 0.0
C259 C 0.94626 0.19032 0.50105 0.0
H260 H 0.92832 0.17838 0.54155 0.0
H261 H 0.93546 0.18016 0.45175 0.0
H262 H 0.9754 0.18021 0.50816 0.0
O263 O 0.83571 0.24777 0.57706 0.0
O264 O 0.83924 0.30952 0.58361 0.0
H265 H 0.96299 0.34723 0.54908 0.0
H266 H 0.0057 0.32601 0.51857 0.0
C267 C 0.97528 0.32941 0.50891 0.0
H268 H 0.97184 0.34348 0.45942 0.0
H269 H 0.88516 0.37148 0.62264 0.0
O270 O 0.85927 0.17914 0.49822 0.0
C271 C 0.82674 0.27812 0.60545 0.0
H272 H 0.50452 0.28072 0.9044 0.0
H273 H 0.48542 0.24946 0.11218 0.0
H274 H 0.42329 0.27889 0.10897 0.0
H275 H 0.37741 0.31744 0.04961 0.0
H276 H 0.39654 0.34964 0.84167 0.0
H277 H 0.45662 0.31637 0.84248 0.0
C278 C 0.48619 0.27974 0.94828 0.0
C279 C 0.49875 0.26288 0.0082 0.0
C280 C 0.45139 0.29762 0.94645 0.0
C281 C 0.47559 0.26183 0.06537 0.0
C282 C 0.44051 0.27907 0.06372 0.0
C283 C 0.39482 0.31748 0.00452 0.0
C284 C 0.38303 0.33651 0.94594 0.0
C285 C 0.42867 0.29787 0.00508 0.0
C286 C 0.40538 0.33554 0.8875 0.0
C287 C 0.4395 0.31638 0.88785 0.0
H288 H 0.69832 0.37624 0.03934 0.0
H289 H 0.66087 0.39541 0.83449 0.0
H290 H 0.69792 0.453 0.82946 0.0
H291 H 0.73743 0.49961 0.88639 0.0
H292 H 0.77238 0.48136 0.09228 0.0
H293 H 0.74105 0.42034 0.0931 0.0
C294 C 0.69801 0.39309 0.99363 0.0
C295 C 0.67634 0.38207 0.93773 0.0
C296 C 0.71963 0.42562 0.99089 0.0
C297 C 0.67695 0.4037 0.87842 0.0
C298 C 0.69831 0.43638 0.87537 0.0
C299 C 0.73898 0.48157 0.93055 0.0
C300 C 0.75728 0.49424 0.98892 0.0
C301 C 0.71948 0.44767 0.93149 0.0
C302 C 0.75897 0.47147 0.04653 0.0
C303 C 0.74053 0.43706 0.0473 0.0
H304 H 0.6416 0.74452 0.96607 0.0
H305 H 0.61765 0.63556 0.05029 0.0
H306 H 0.55211 0.65354 0.06705 0.0
H307 H 0.50195 0.69995 0.05635 0.0
H308 H 0.5243 0.80579 0.95901 0.0
H309 H 0.5909 0.79024 0.95226 0.0
C310 C 0.62197 0.72475 0.98806 0.0
C311 C 0.63414 0.68883 0.00687 0.0
C312 C 0.58444 0.73502 -0.00362 0.0
C313 C 0.60862 0.66326 0.03487 0.0
C314 C 0.57134 0.67361 0.04492 0.0
C315 C 0.52136 0.71942 0.033 0.0
C316 C 0.50833 0.75373 0.00754 0.0
C317 C 0.55898 0.70935 0.0256 0.0
C318 C 0.53384 0.77936 0.97967 0.0
C319 C 0.57177 0.77026 0.9749 0.0
H320 H 0.27579 0.50448 0.89647 0.0
H321 H 0.24283 0.52562 0.10271 0.0
H322 H 0.2717 0.5879 0.09762 0.0
H323 H 0.31066 0.63345 0.03721 0.0
H324 H 0.34425 0.61207 0.83078 0.0
H325 H 0.31131 0.55197 0.83332 0.0
C326 C 0.2742 0.5233 0.93951 0.0
C327 C 0.25707 0.5112 -0.00042 0.0
C328 C 0.29181 0.55822 0.93667 0.0
C329 C 0.25537 0.53504 0.05573 0.0
C330 C 0.27233 0.57023 0.05304 0.0
C331 C 0.31104 0.6155 0.99292 0.0
C332 C 0.33042 0.62668 0.93425 0.0
C333 C 0.29152 0.58157 -0.0056 0.0
C334 C 0.32987 0.60371 0.87669 0.0
C335 C 0.31089 0.56956 0.87801 0.0
H336 H 0.99769 0.78047 0.37713 0.0
H337 H 0.97847 0.74039 0.57988 0.0
H338 H 0.91553 0.76799 0.57934 0.0
H339 H 0.86892 0.80791 0.52467 0.0
H340 H 0.88715 0.84758 0.32099 0.0
H341 H 0.94828 0.81603 0.31821 0.0
C342 C 0.97916 0.77713 0.42034 0.0
C343 C 0.992 0.75848 0.47831 0.0
C344 C 0.94364 0.79369 0.41995 0.0
C345 C 0.96851 0.7543 0.53459 0.0
C346 C 0.93291 0.77045 0.53451 0.0
C347 C 0.88642 0.80989 0.47982 0.0
C348 C 0.8743 0.83074 0.42367 0.0
C349 C 0.92074 0.7911 0.47822 0.0
C350 C 0.89645 0.8321 0.36505 0.0
C351 C 0.93114 0.81397 0.3634 0.0
H352 H 0.22323 0.00536 0.38694 0.0
H353 H 0.26765 0.97808 0.58345 0.0
H354 H 0.23833 0.91611 0.57814 0.0
H355 H 0.19576 0.87275 0.52205 0.0
H356 H 0.15119 0.89916 0.32485 0.0
H357 H 0.18465 0.95919 0.32591 0.0
C358 C 0.22708 0.98531 0.42767 0.0
C359 C 0.24749 0.99562 0.48532 0.0
C360 C 0.20948 0.95038 0.42472 0.0
C361 C 0.25238 0.97011 0.53838 0.0
C362 C 0.23526 0.93507 0.53564 0.0
C363 C 0.19315 0.89175 0.47941 0.0
C364 C 0.17038 0.88223 0.4241 0.0
C365 C 0.2129 0.92546 0.47996 0.0
C366 C 0.16818 0.90638 0.36828 0.0
C367 C 0.18738 0.94047 0.36882 0.0
H368 H 0.13586 0.19884 0.53861 0.0
H369 H 0.1135 0.15436 0.33969 0.0
H370 H 0.05285 0.18674 0.33827 0.0
H371 H 0.00501 0.22435 0.39733 0.0
H372 H 0.02785 0.26831 0.59594 0.0
H373 H 0.09059 0.24022 0.59332 0.0
C374 C 0.11764 0.19602 0.49503 0.0
C375 C 0.12853 0.17363 0.43988 0.0
C376 C 0.08347 0.21506 0.49427 0.0
C377 C 0.10528 0.17109 0.38297 0.0
C378 C 0.07082 0.18968 0.38208 0.0
C379 C 0.02424 0.22833 0.43918 0.0
C380 C 0.01249 0.2482 0.49666 0.0
C381 C 0.05956 0.2114 0.43777 0.0
C382 C 0.03693 0.25334 0.55111 0.0
C383 C 0.07241 0.23696 0.54984 0.0
H384 H 0.75991 0.13875 0.45219 0.0
H385 H 0.86434 0.11338 0.5524 0.0
H386 H 0.84371 0.04899 0.5711 0.0
H387 H 0.79696 0.99993 0.55618 0.0
H388 H 0.6957 0.02287 0.44497 0.0
H389 H 0.7131 0.08913 0.43647 0.0
C390 C 0.77811 0.11908 0.47814 0.0
C391 C 0.81359 0.13053 0.50068 0.0
C392 C 0.76634 0.08211 0.48771 0.0
C393 C 0.83705 0.10494 0.534 0.0
C394 C 0.82518 0.0683 0.54515 0.0
C395 C 0.77885 0.01946 0.5297 0.0
C396 C 0.74558 0.00675 0.50001 0.0
C397 C 0.79004 0.05662 0.5218 0.0
C398 C 0.72152 0.03228 0.46809 0.0
C399 C 0.73167 0.06993 0.46258 0.0
H400 H 0.22481 0.21516 0.36413 0.0
H401 H 0.34436 0.20938 0.32945 0.0
H402 H 0.33791 0.25596 0.23839 0.0
H403 H 0.29811 0.29728 0.16944 0.0
H404 H 0.17851 0.30128 0.20471 0.0
H405 H 0.18555 0.25585 0.29663 0.0
C406 C 0.24979 0.2237 0.33693 0.0
C407 C 0.28523 0.20843 0.35382 0.0
C408 C 0.24579 0.25019 0.28536 0.0
C409 C 0.31686 0.22043 0.31762 0.0
C410 C 0.3131 0.2471 0.26574 0.0
C411 C 0.27342 0.28851 0.1973 0.0
C412 C 0.23763 0.3029 0.18006 0.0
C413 C 0.27767 0.2621 0.24937 0.0
C414 C 0.20623 0.29089 0.21683 0.0
C415 C 0.21029 0.26484 0.26918 0.0
H416 H 0.70994 0.2939 0.16444 0.0
H417 H 0.72037 0.17333 0.1752 0.0
H418 H 0.7697 0.18021 0.26041 0.0
H419 H 0.8094 0.22006 0.32969 0.0
H420 H 0.79818 0.34062 0.32152 0.0
H421 H 0.74996 0.33392 0.23392 0.0
C422 C 0.7228 0.26889 0.18527 0.0
C423 C 0.71131 0.23294 0.16323 0.0
C424 C 0.75129 0.27313 0.2333 0.0
C425 C 0.72839 0.20117 0.19135 0.0
C426 C 0.75677 0.20517 0.23962 0.0
C427 C 0.79668 0.24516 0.30891 0.0
C428 C 0.80747 0.28101 0.3326 0.0
C429 C 0.76848 0.241 0.26047 0.0
C430 C 0.79067 0.31285 0.30419 0.0
C431 C 0.76289 0.30894 0.25463 0.0
H432 H 0.71413 0.70425 0.16342 0.0
H433 H 0.83091 0.69301 0.21819 0.0
H434 H 0.82027 0.73412 0.31564 0.0
H435 H 0.77906 0.77421 0.38098 0.0
H436 H 0.66309 0.78914 0.3238 0.0
H437 H 0.67223 0.74416 0.23082 0.0
C438 C 0.73742 0.71043 0.19674 0.0
C439 C 0.77352 0.69542 0.18331 0.0
C440 C 0.73118 0.73446 0.25171 0.0
C441 C 0.80306 0.70409 0.22714 0.0
C442 C 0.79691 0.72756 0.28274 0.0
C443 C 0.75546 0.76798 0.34837 0.0
C444 C 0.72033 0.78561 0.35904 0.0
C445 C 0.76124 0.74312 0.29481 0.0
C446 C 0.69029 0.7762 0.31679 0.0
C447 C 0.69566 0.75064 0.26358 0.0
H448 H 0.29288 0.71386 0.15167 0.0
H449 H 0.30135 0.83229 0.19505 0.0
H450 H 0.25722 0.82474 0.28891 0.0
H451 H 0.21615 0.78551 0.35562 0.0
H452 H 0.20552 0.66724 0.31266 0.0
H453 H 0.25141 0.67395 0.22037 0.0
C454 C 0.28535 0.73815 0.18172 0.0
C455 C 0.30057 0.77379 0.16615 0.0
C456 C 0.25968 0.73363 0.23501 0.0
C457 C 0.29022 0.8047 0.20576 0.0
C458 C 0.26495 0.80035 0.2593 0.0
C459 C 0.22347 0.76089 0.32629 0.0
C460 C 0.20696 0.72576 0.34104 0.0
C461 C 0.24941 0.76506 0.27382 0.0
C462 C 0.21755 0.69451 0.30245 0.0
C463 C 0.24377 0.69842 0.2498 0.0
H464 H 0.79876 0.79615 0.66351 0.0
H465 H 0.68131 0.80705 0.71433 0.0
H466 H 0.69 0.76421 0.80942 0.0
H467 H 0.72938 0.72235 0.87351 0.0
H468 H 0.84653 0.70843 0.82343 0.0
H469 H 0.83938 0.75457 0.73161 0.0
C470 C 0.77502 0.7895 0.69568 0.0
C471 C 0.73924 0.80488 0.6816 0.0
C472 C 0.78013 0.76433 0.74962 0.0
C473 C 0.70897 0.79569 0.72376 0.0
C474 C 0.71396 0.77114 0.77802 0.0
C475 C 0.75369 0.72906 0.84284 0.0
C476 C 0.78854 0.71139 0.85516 0.0
C477 C 0.74921 0.755 0.7906 0.0
C478 C 0.81945 0.72133 0.81504 0.0
C479 C 0.81527 0.74766 0.7626 0.0
H480 H 0.20154 0.8009 0.66205 0.0
H481 H 0.20306 0.68028 0.68317 0.0
H482 H 0.25015 0.68574 0.77218 0.0
H483 H 0.29094 0.72384 0.84054 0.0
H484 H 0.2909 0.84451 0.82175 0.0
H485 H 0.2428 0.83971 0.73313 0.0
C486 C 0.21187 0.77568 0.68632 0.0
C487 C 0.19864 0.74005 0.66578 0.0
C488 C 0.23929 0.77903 0.73677 0.0
C489 C 0.21254 0.7079 0.69793 0.0
C490 C 0.23959 0.71105 0.74854 0.0
C491 C 0.28087 0.74943 0.81729 0.0
C492 C 0.29494 0.78468 0.83786 0.0
C493 C 0.2533 0.74639 0.76765 0.0
C494 C 0.28088 0.81712 0.80682 0.0
C495 C 0.25328 0.8143 0.75647 0.0
H496 H 0.21234 0.20292 0.67875 0.0
H497 H 0.33302 0.20663 0.69704 0.0
H498 H 0.32693 0.25412 0.78581 0.0
H499 H 0.28794 0.29487 0.85474 0.0
H500 H 0.16724 0.29226 0.83681 0.0
H501 H 0.17302 0.24387 0.74899 0.0
C502 C 0.23751 0.2138 0.70222 0.0
C503 C 0.27329 0.20101 0.68101 0.0
C504 C 0.23377 0.24147 0.75218 0.0
C505 C 0.30528 0.21567 0.71237 0.0
C506 C 0.30176 0.24299 0.76278 0.0
C507 C 0.26259 0.28408 0.83182 0.0
C508 C 0.22699 0.29752 0.85255 0.0
C509 C 0.26619 0.25625 0.78239 0.0
C510 C 0.19487 0.28273 0.82182 0.0
C511 C 0.19823 0.25494 0.77193 0.0
H512 H 0.70525 0.28916 0.83544 0.0
H513 H 0.71017 0.16847 0.81904 0.0
H514 H 0.7572 0.17468 0.7287 0.0
H515 H 0.79772 0.2143 0.65867 0.0
H516 H 0.7931 0.33493 0.67786 0.0
H517 H 0.74492 0.3285 0.76562 0.0
C518 C 0.71621 0.2639 0.81226 0.0
C519 C 0.70402 0.22818 0.8344 0.0
C520 C 0.74353 0.26775 0.76202 0.0
C521 C 0.71881 0.19617 0.80303 0.0
C522 C 0.74585 0.19979 0.75181 0.0
C523 C 0.7864 0.23941 0.68194 0.0
C524 C 0.79923 0.27527 0.66163 0.0
C525 C 0.75867 0.23545 0.73169 0.0
C526 C 0.78401 0.30716 0.69262 0.0
C527 C 0.75635 0.30343 0.74245 0.0
H528 H 0.92859 0.50918 0.02074 0.0
H529 H 0.00457 0.59977 0.97877 0.0
H530 H 0.05675 0.55523 0.96809 0.0
H531 H 0.082 0.49098 0.98413 0.0
H532 H 0.00613 0.40126 0.03363 0.0
H533 H 0.95297 0.44445 0.02778 0.0
C534 C 0.95643 0.51893 0.00747 0.0
C535 C 0.96268 0.55761 -0.00064 0.0
C536 C 0.98648 0.49317 0.00349 0.0
C537 C 0.99903 0.57008 0.98409 0.0
C538 C 0.02889 0.54459 0.97849 0.0
C539 C 0.0537 0.48068 0.99121 0.0
C540 C 0.04801 0.44265 0.00785 0.0
C541 C 0.02319 0.5061 0.9897 0.0
C542 C 0.01124 0.43019 0.01986 0.0
C543 C 0.98081 0.45497 0.01687 0.0
H544 H 0.58081 0.00894 0.98624 0.0
H545 H 0.50814 0.10532 0.98846 0.0
H546 H 0.45315 0.06475 0.98337 0.0
H547 H 0.4253 1.00123 0.98862 0.0
H548 H 0.49814 0.90496 0.98277 0.0
H549 H 0.55288 0.94555 0.97811 0.0
C550 C 0.55292 0.02101 0.98403 0.0
C551 C 0.54872 0.06024 0.98656 0.0
C552 C 0.52123 0.99732 0.98083 0.0
C553 C 0.51235 0.0754 0.98473 0.0
C554 C 0.48077 0.0521 0.9826 0.0
C555 C 0.45315 0.98919 0.98485 0.0
C556 C 0.45733 0.94989 0.98504 0.0
C557 C 0.4848 0.01295 0.98193 0.0
C558 C 0.49371 0.93485 0.98088 0.0
C559 C 0.52525 0.9582 0.97905 0.0
H560 H 0.42696 0.00501 0.57655 0.0
H561 H 0.48461 0.0816 0.44439 0.0
H562 H 0.53575 0.03584 0.42977 0.0
H563 H 0.56682 0.97606 0.46495 0.0
H564 H 0.50621 0.89984 0.59477 0.0
H565 H 0.45376 0.94318 0.5996 0.0
C566 C 0.4505 0.01148 0.54372 0.0
C567 C 0.45213 0.04673 0.51197 0.0
C568 C 0.47951 0.98504 0.5355 0.0
C569 C 0.48263 0.05461 0.4692 0.0
C570 C 0.51197 0.02847 0.46122 0.0
C571 C 0.54179 0.96832 0.49253 0.0
C572 C 0.54089 0.93434 0.52955 0.0
C573 C 0.51115 0.99377 0.49535 0.0
C574 C 0.50812 0.92566 0.56616 0.0
C575 C 0.47794 0.95054 0.56912 0.0
H576 H 0.02387 0.56893 0.44788 0.0
H577 H 0.09701 0.51619 0.59331 0.0
H578 H 0.05609 0.46182 0.59778 0.0
H579 H 0.99646 0.43175 0.57003 0.0
H580 H 0.92316 0.48178 0.42276 0.0
H581 H 0.96732 0.53413 0.40814 0.0
C582 C 0.03164 0.54505 0.47857 0.0
C583 C 0.06387 0.54685 0.51999 0.0
C584 C 0.00757 0.51345 0.48129 0.0
C585 C 0.07251 0.5158 0.56102 0.0
C586 C 0.04901 0.48461 0.56384 0.0
C587 C 0.99044 0.45386 0.53392 0.0
C588 C 0.9565 0.45308 0.49788 0.0
C589 C 0.01596 0.48357 0.52578 0.0
C590 C 0.94916 0.48171 0.45092 0.0
C591 C 0.97436 0.51174 0.44292 0.0
loop_
_geom_bond_atom_site_label_1
_geom_bond_atom_site_label_2
_geom_bond_distance
_geom_bond_site_symmetry_2
_ccdc_geom_bond_type
Co0 O3 1.970 1_554 S
Co0 N17 1.989 . S
Co0 O25 1.967 . S
Co0 O32 1.920 . S
Co1 O4 1.966 1_554 S
Co1 N10 2.022 . S
Co1 N18 1.993 . S
Co1 O26 1.941 . S
C2 O3 1.258 . S
C2 O4 1.263 . S
O3 Co0 1.970 1_556 S
O3 C2 1.258 . S
O4 Co1 1.966 1_556 S
O4 C2 1.263 . S
C5 O6 1.235 . S
C5 O32 1.289 1_556 S
O6 C5 1.235 . S
C7 C9 1.400 . S
C7 N10 1.351 1_556 S
C7 C12 1.501 . S
C8 C9 1.387 1_554 S
C8 N11 1.341 . S
C9 C7 1.400 . S
C9 C8 1.387 1_556 S
N10 Co1 2.022 . S
N10 C7 1.351 1_554 S
N10 N11 1.365 . S
N11 C8 1.341 . S
N11 N10 1.365 . S
N11 H31 0.862 . S
C12 C7 1.501 . S
C12 H13 0.961 . S
C12 H14 0.961 . S
C12 H15 0.960 . S
H13 C12 0.961 . S
H14 C12 0.961 . S
H15 C12 0.960 . S
C16 N17 1.342 . S
C16 C20 1.401 . S
C16 C21 1.499 . S
N17 Co0 1.989 . S
N17 C16 1.342 . S
N17 N18 1.388 . S
N18 Co1 1.993 . S
N18 N17 1.388 . S
N18 C19 1.346 . S
C19 N18 1.346 . S
C19 C20 1.396 . S
C19 C29 1.510 . S
C20 C16 1.401 . S
C20 C19 1.396 . S
C21 C16 1.499 . S
C21 H22 0.959 . S
C21 H23 0.960 1_554 S
C21 H24 0.961 . S
H22 C21 0.959 . S
H23 C21 0.960 1_556 S
H24 C21 0.961 . S
O25 Co0 1.967 . S
O25 C33 1.258 . S
O26 Co1 1.941 . S
O26 C33 1.266 . S
H27 C29 0.959 . S
H28 C29 0.961 1_556 S
C29 C19 1.510 . S
C29 H27 0.959 . S
C29 H28 0.961 1_554 S
C29 H30 0.960 . S
H30 C29 0.960 . S
H31 N11 0.862 . S
O32 Co0 1.920 . S
O32 C5 1.289 1_554 S
C33 O25 1.258 . S
C33 O26 1.266 . S
Co34 O37 1.970 1_554 S
Co34 N51 1.989 . S
Co34 O59 1.967 . S
Co34 O66 1.920 . S
Co35 O38 1.966 1_554 S
Co35 N44 2.022 . S
Co35 N52 1.993 . S
Co35 O60 1.941 . S
C36 O37 1.258 . S
C36 O38 1.263 . S
O37 Co34 1.970 1_556 S
O37 C36 1.258 . S
O38 Co35 1.966 1_556 S
O38 C36 1.263 . S
C39 O40 1.235 . S
C39 O66 1.289 1_556 S
O40 C39 1.235 . S
C41 C43 1.400 . S
C41 N44 1.351 1_556 S
C41 C46 1.501 . S
C42 C43 1.387 1_554 S
C42 N45 1.341 . S
C43 C41 1.400 . S
C43 C42 1.387 1_556 S
N44 Co35 2.022 . S
N44 C41 1.351 1_554 S
N44 N45 1.365 . S
N45 C42 1.341 . S
N45 N44 1.365 . S
N45 H65 0.862 . S
C46 C41 1.501 . S
C46 H47 0.961 . S
C46 H48 0.961 . S
C46 H49 0.960 . S
H47 C46 0.961 . S
H48 C46 0.961 . S
H49 C46 0.960 . S
C50 N51 1.342 . S
C50 C54 1.401 . S
C50 C55 1.499 . S
N51 Co34 1.989 . S
N51 C50 1.342 . S
N51 N52 1.388 . S
N52 Co35 1.993 . S
N52 N51 1.388 . S
N52 C53 1.346 . S
C53 N52 1.346 . S
C53 C54 1.396 . S
C53 C63 1.510 . S
C54 C50 1.401 . S
C54 C53 1.396 . S
C55 C50 1.499 . S
C55 H56 0.959 . S
C55 H57 0.960 1_554 S
C55 H58 0.961 . S
H56 C55 0.959 . S
H57 C55 0.960 1_556 S
H58 C55 0.961 . S
O59 Co34 1.967 . S
O59 C67 1.258 . S
O60 Co35 1.941 . S
O60 C67 1.266 . S
H61 C63 0.959 . S
H62 C63 0.961 1_556 S
C63 C53 1.510 . S
C63 H61 0.959 . S
C63 H62 0.961 1_554 S
C63 H64 0.960 . S
H64 C63 0.960 . S
H65 N45 0.862 . S
O66 Co34 1.920 . S
O66 C39 1.289 1_554 S
C67 O59 1.258 . S
C67 O60 1.266 . S
Co68 O71 1.970 1_554 S
Co68 N85 1.989 . S
Co68 O93 1.967 . S
Co68 O100 1.920 . S
Co69 O72 1.966 1_554 S
Co69 N78 2.022 . S
Co69 N86 1.993 . S
Co69 O94 1.941 . S
C70 O71 1.258 . S
C70 O72 1.263 . S
O71 Co68 1.970 1_556 S
O71 C70 1.258 . S
O72 Co69 1.966 1_556 S
O72 C70 1.263 . S
C73 O74 1.235 . S
C73 O100 1.289 1_556 S
O74 C73 1.235 . S
C75 C77 1.400 . S
C75 N78 1.351 1_556 S
C75 C80 1.501 . S
C76 C77 1.387 1_554 S
C76 N79 1.341 . S
C77 C75 1.400 . S
C77 C76 1.387 1_556 S
N78 Co69 2.022 . S
N78 C75 1.351 1_554 S
N78 N79 1.365 . S
N79 C76 1.341 . S
N79 N78 1.365 . S
N79 H99 0.862 . S
C80 C75 1.501 . S
C80 H81 0.961 . S
C80 H82 0.961 . S
C80 H83 0.960 . S
H81 C80 0.961 . S
H82 C80 0.961 . S
H83 C80 0.960 . S
C84 N85 1.342 . S
C84 C88 1.401 . S
C84 C89 1.499 . S
N85 Co68 1.989 . S
N85 C84 1.342 . S
N85 N86 1.388 . S
N86 Co69 1.993 . S
N86 N85 1.388 . S
N86 C87 1.346 . S
C87 N86 1.346 . S
C87 C88 1.396 . S
C87 C97 1.510 . S
C88 C84 1.401 . S
C88 C87 1.396 . S
C89 C84 1.499 . S
C89 H90 0.959 . S
C89 H91 0.960 1_554 S
C89 H92 0.961 . S
H90 C89 0.959 . S
H91 C89 0.960 1_556 S
H92 C89 0.961 . S
O93 Co68 1.967 . S
O93 C101 1.258 . S
O94 Co69 1.941 . S
O94 C101 1.266 . S
H95 C97 0.959 . S
H96 C97 0.961 1_556 S
C97 C87 1.510 . S
C97 H95 0.959 . S
C97 H96 0.961 1_554 S
C97 H98 0.960 . S
H98 C97 0.960 . S
H99 N79 0.862 . S
O100 Co68 1.920 . S
O100 C73 1.289 1_554 S
C101 O93 1.258 . S
C101 O94 1.266 . S
Co102 O105 1.970 1_554 S
Co102 N119 1.989 . S
Co102 O127 1.967 . S
Co102 O134 1.920 . S
Co103 O106 1.966 1_554 S
Co103 N112 2.022 . S
Co103 N120 1.993 . S
Co103 O128 1.941 . S
C104 O105 1.258 . S
C104 O106 1.263 . S
O105 Co102 1.970 1_556 S
O105 C104 1.258 . S
O106 Co103 1.966 1_556 S
O106 C104 1.263 . S
C107 O108 1.235 . S
C107 O134 1.289 1_556 S
O108 C107 1.235 . S
C109 C111 1.400 . S
C109 N112 1.351 1_556 S
C109 C114 1.501 . S
C110 C111 1.387 1_554 S
C110 N113 1.341 . S
C111 C109 1.400 . S
C111 C110 1.387 1_556 S
N112 Co103 2.022 . S
N112 C109 1.351 1_554 S
N112 N113 1.365 . S
N113 C110 1.341 . S
N113 N112 1.365 . S
N113 H133 0.862 . S
C114 C109 1.501 . S
C114 H115 0.961 . S
C114 H116 0.961 . S
C114 H117 0.960 . S
H115 C114 0.961 . S
H116 C114 0.961 . S
H117 C114 0.960 . S
C118 N119 1.342 . S
C118 C122 1.401 . S
C118 C123 1.499 . S
N119 Co102 1.989 . S
N119 C118 1.342 . S
N119 N120 1.388 . S
N120 Co103 1.993 . S
N120 N119 1.388 . S
N120 C121 1.346 . S
C121 N120 1.346 . S
C121 C122 1.396 . S
C121 C131 1.510 . S
C122 C118 1.401 . S
C122 C121 1.396 . S
C123 C118 1.499 . S
C123 H124 0.959 . S
C123 H125 0.960 1_554 S
C123 H126 0.961 . S
H124 C123 0.959 . S
H125 C123 0.960 1_556 S
H126 C123 0.961 . S
O127 Co102 1.967 . S
O127 C135 1.258 . S
O128 Co103 1.941 . S
O128 C135 1.266 . S
H129 C131 0.959 . S
H130 C131 0.961 1_556 S
C131 C121 1.510 . S
C131 H129 0.959 . S
C131 H130 0.961 1_554 S
C131 H132 0.960 . S
H132 C131 0.960 . S
H133 N113 0.862 . S
O134 Co102 1.920 . S
O134 C107 1.289 1_554 S
C135 O127 1.258 . S
C135 O128 1.266 . S
Co136 O139 1.970 . S
Co136 N153 1.989 . S
Co136 O161 1.967 . S
Co136 O168 1.920 . S
Co137 O140 1.966 . S
Co137 N146 2.022 . S
Co137 N154 1.993 . S
Co137 O162 1.941 . S
C138 O139 1.258 . S
C138 O140 1.263 . S
O139 Co136 1.970 . S
O139 C138 1.258 . S
O140 Co137 1.966 . S
O140 C138 1.263 . S
C141 O142 1.235 . S
C141 O168 1.289 . S
O142 C141 1.235 . S
C143 C145 1.400 . S
C143 N146 1.351 . S
C143 C148 1.501 . S
C144 C145 1.387 . S
C144 N147 1.341 . S
C145 C143 1.400 . S
C145 C144 1.387 . S
N146 Co137 2.022 . S
N146 C143 1.351 . S
N146 N147 1.365 . S
N147 C144 1.341 . S
N147 N146 1.365 . S
N147 H167 0.862 . S
C148 C143 1.501 . S
C148 H149 0.961 . S
C148 H150 0.961 . S
C148 H151 0.960 . S
H149 C148 0.961 . S
H150 C148 0.961 . S
H151 C148 0.960 . S
C152 N153 1.342 . S
C152 C156 1.401 . S
C152 C157 1.499 . S
N153 Co136 1.989 . S
N153 C152 1.342 . S
N153 N154 1.388 . S
N154 Co137 1.993 . S
N154 N153 1.388 . S
N154 C155 1.346 . S
C155 N154 1.346 . S
C155 C156 1.396 . S
C155 C165 1.510 . S
C156 C152 1.401 . S
C156 C155 1.396 . S
C157 C152 1.499 . S
C157 H158 0.959 . S
C157 H159 0.960 . S
C157 H160 0.961 . S
H158 C157 0.959 . S
H159 C157 0.960 . S
H160 C157 0.961 . S
O161 Co136 1.967 . S
O161 C169 1.258 . S
O162 Co137 1.941 . S
O162 C169 1.266 . S
H163 C165 0.959 . S
H164 C165 0.961 . S
C165 C155 1.510 . S
C165 H163 0.959 . S
C165 H164 0.961 . S
C165 H166 0.960 . S
H166 C165 0.960 . S
H167 N147 0.862 . S
O168 Co136 1.920 . S
O168 C141 1.289 . S
C169 O161 1.258 . S
C169 O162 1.266 . S
Co170 O173 1.970 . S
Co170 N187 1.989 . S
Co170 O195 1.967 . S
Co170 O202 1.920 . S
Co171 O174 1.966 . S
Co171 N180 2.022 . S
Co171 N188 1.993 . S
Co171 O196 1.941 . S
C172 O173 1.258 . S
C172 O174 1.263 . S
O173 Co170 1.970 . S
O173 C172 1.258 . S
O174 Co171 1.966 . S
O174 C172 1.263 . S
C175 O176 1.235 . S
C175 O202 1.289 . S
O176 C175 1.235 . S
C177 C179 1.400 . S
C177 N180 1.351 . S
C177 C182 1.501 . S
C178 C179 1.387 . S
C178 N181 1.341 . S
C179 C177 1.400 . S
C179 C178 1.387 . S
N180 Co171 2.022 . S
N180 C177 1.351 . S
N180 N181 1.365 . S
N181 C178 1.341 . S
N181 N180 1.365 . S
N181 H201 0.862 . S
C182 C177 1.501 . S
C182 H183 0.961 . S
C182 H184 0.961 . S
C182 H185 0.960 . S
H183 C182 0.961 . S
H184 C182 0.961 . S
H185 C182 0.960 . S
C186 N187 1.342 . S
C186 C190 1.401 . S
C186 C191 1.499 . S
N187 Co170 1.989 . S
N187 C186 1.342 . S
N187 N188 1.388 . S
N188 Co171 1.993 . S
N188 N187 1.388 . S
N188 C189 1.346 . S
C189 N188 1.346 . S
C189 C190 1.396 . S
C189 C199 1.510 . S
C190 C186 1.401 . S
C190 C189 1.396 . S
C191 C186 1.499 . S
C191 H192 0.959 . S
C191 H193 0.960 . S
C191 H194 0.961 . S
H192 C191 0.959 . S
H193 C191 0.960 . S
H194 C191 0.961 . S
O195 Co170 1.967 . S
O195 C203 1.258 . S
O196 Co171 1.941 . S
O196 C203 1.266 . S
H197 C199 0.959 . S
H198 C199 0.961 . S
C199 C189 1.510 . S
C199 H197 0.959 . S
C199 H198 0.961 . S
C199 H200 0.960 . S
H200 C199 0.960 . S
H201 N181 0.862 . S
O202 Co170 1.920 . S
O202 C175 1.289 . S
C203 O195 1.258 . S
C203 O196 1.266 . S
Co204 O207 1.970 . S
Co204 N221 1.989 . S
Co204 O229 1.967 . S
Co204 O236 1.920 . S
Co205 O208 1.966 . S
Co205 N214 2.022 . S
Co205 N222 1.993 . S
Co205 O230 1.941 . S
C206 O207 1.258 . S
C206 O208 1.263 . S
O207 Co204 1.970 . S
O207 C206 1.258 . S
O208 Co205 1.966 . S
O208 C206 1.263 . S
C209 O210 1.235 . S
C209 O236 1.289 . S
O210 C209 1.235 . S
C211 C213 1.400 . S
C211 N214 1.351 . S
C211 C216 1.501 . S
C212 C213 1.387 . S
C212 N215 1.341 . S
C213 C211 1.400 . S
C213 C212 1.387 . S
N214 Co205 2.022 . S
N214 C211 1.351 . S
N214 N215 1.365 . S
N215 C212 1.341 . S
N215 N214 1.365 . S
N215 H235 0.862 . S
C216 C211 1.501 . S
C216 H217 0.961 . S
C216 H218 0.961 . S
C216 H219 0.960 . S
H217 C216 0.961 . S
H218 C216 0.961 . S
H219 C216 0.960 . S
C220 N221 1.342 . S
C220 C224 1.401 . S
C220 C225 1.499 . S
N221 Co204 1.989 . S
N221 C220 1.342 . S
N221 N222 1.388 . S
N222 Co205 1.993 . S
N222 N221 1.388 . S
N222 C223 1.346 . S
C223 N222 1.346 . S
C223 C224 1.396 . S
C223 C233 1.510 . S
C224 C220 1.401 . S
C224 C223 1.396 . S
C225 C220 1.499 . S
C225 H226 0.959 . S
C225 H227 0.960 . S
C225 H228 0.961 . S
H226 C225 0.959 . S
H227 C225 0.960 . S
H228 C225 0.961 . S
O229 Co204 1.967 . S
O229 C237 1.258 . S
O230 Co205 1.941 . S
O230 C237 1.266 . S
H231 C233 0.959 . S
H232 C233 0.961 . S
C233 C223 1.510 . S
C233 H231 0.959 . S
C233 H232 0.961 . S
C233 H234 0.960 . S
H234 C233 0.960 . S
H235 N215 0.862 . S
O236 Co204 1.920 . S
O236 C209 1.289 . S
C237 O229 1.258 . S
C237 O230 1.266 . S
Co238 O241 1.970 . S
Co238 N255 1.989 . S
Co238 O263 1.967 . S
Co238 O270 1.920 . S
Co239 O242 1.966 . S
Co239 N248 2.022 . S
Co239 N256 1.993 . S
Co239 O264 1.941 . S
C240 O241 1.258 . S
C240 O242 1.263 . S
O241 Co238 1.970 . S
O241 C240 1.258 . S
O242 Co239 1.966 . S
O242 C240 1.263 . S
C243 O244 1.235 . S
C243 O270 1.289 . S
O244 C243 1.235 . S
C245 C247 1.400 . S
C245 N248 1.351 . S
C245 C250 1.501 . S
C246 C247 1.387 . S
C246 N249 1.341 . S
C247 C245 1.400 . S
C247 C246 1.387 . S
N248 Co239 2.022 . S
N248 C245 1.351 . S
N248 N249 1.365 . S
N249 C246 1.341 . S
N249 N248 1.365 . S
N249 H269 0.862 . S
C250 C245 1.501 . S
C250 H251 0.961 . S
C250 H252 0.961 . S
C250 H253 0.960 . S
H251 C250 0.961 . S
H252 C250 0.961 . S
H253 C250 0.960 . S
C254 N255 1.342 . S
C254 C258 1.401 . S
C254 C259 1.499 . S
N255 Co238 1.989 . S
N255 C254 1.342 . S
N255 N256 1.388 . S
N256 Co239 1.993 . S
N256 N255 1.388 . S
N256 C257 1.346 . S
C257 N256 1.346 . S
C257 C258 1.396 . S
C257 C267 1.510 . S
C258 C254 1.401 . S
C258 C257 1.396 . S
C259 C254 1.499 . S
C259 H260 0.959 . S
C259 H261 0.960 . S
C259 H262 0.961 . S
H260 C259 0.959 . S
H261 C259 0.960 . S
H262 C259 0.961 . S
O263 Co238 1.967 . S
O263 C271 1.258 . S
O264 Co239 1.941 . S
O264 C271 1.266 . S
H265 C267 0.959 . S
H266 C267 0.961 . S
C267 C257 1.510 . S
C267 H265 0.959 . S
C267 H266 0.961 . S
C267 H268 0.960 . S
H268 C267 0.960 . S
H269 N249 0.862 . S
O270 Co238 1.920 . S
O270 C243 1.289 . S
C271 O263 1.258 . S
C271 O264 1.266 . S
H272 C278 0.930 . S
H273 C281 0.930 . S
H274 C282 0.930 . S
H275 C283 0.930 . S
H276 C286 0.930 . S
H277 C287 0.930 . S
C278 H272 0.930 . S
C278 C279 1.355 . S
C278 C280 1.415 . S
C279 C278 1.355 . S
C279 C281 1.419 . S
C280 C278 1.415 . S
C280 C285 1.425 . S
C280 C287 1.409 1_554 S
C281 H273 0.930 . S
C281 C279 1.419 . S
C281 C282 1.362 . S
C282 H274 0.930 . S
C282 C281 1.362 . S
C282 C285 1.409 . S
C283 H275 0.930 . S
C283 C284 1.355 . S
C283 C285 1.415 1_556 S
C284 C283 1.355 . S
C284 C286 1.419 . S
C285 C280 1.425 . S
C285 C282 1.409 . S
C285 C283 1.415 1_554 S
C286 H276 0.930 . S
C286 C284 1.419 . S
C286 C287 1.362 . S
C287 H277 0.930 . S
C287 C280 1.409 1_556 S
C287 C286 1.362 . S
H288 C294 0.930 . S
H289 C297 0.930 . S
H290 C298 0.930 . S
H291 C299 0.930 . S
H292 C302 0.930 . S
H293 C303 0.930 . S
C294 H288 0.930 . S
C294 C295 1.355 . S
C294 C296 1.415 . S
C295 C294 1.355 . S
C295 C297 1.419 . S
C296 C294 1.415 . S
C296 C301 1.425 1_556 S
C296 C303 1.409 . S
C297 H289 0.930 . S
C297 C295 1.419 . S
C297 C298 1.362 1_556 S
C298 H290 0.930 . S
C298 C297 1.362 1_554 S
C298 C301 1.409 . S
C299 H291 0.930 . S
C299 C300 1.355 . S
C299 C301 1.415 . S
C300 C299 1.355 . S
C300 C302 1.419 . S
C301 C296 1.425 1_554 S
C301 C298 1.409 . S
C301 C299 1.415 . S
C302 H292 0.930 . S
C302 C300 1.419 . S
C302 C303 1.362 1_554 S
C303 H293 0.930 . S
C303 C296 1.409 . S
C303 C302 1.362 1_556 S
H304 C310 0.930 . S
H305 C313 0.930 . S
H306 C314 0.930 . S
H307 C315 0.930 . S
H308 C318 0.930 . S
H309 C319 0.930 . S
C310 H304 0.930 . S
C310 C311 1.355 . S
C310 C312 1.415 . S
C311 C310 1.355 . S
C311 C313 1.419 1_556 S
C312 C310 1.415 . S
C312 C317 1.425 1_556 S
C312 C319 1.409 . S
C313 H305 0.930 . S
C313 C311 1.419 1_554 S
C313 C314 1.362 . S
C314 H306 0.930 . S
C314 C313 1.362 . S
C314 C317 1.409 . S
C315 H307 0.930 . S
C315 C316 1.355 . S
C315 C317 1.415 . S
C316 C315 1.355 . S
C316 C318 1.419 1_554 S
C317 C312 1.425 1_554 S
C317 C314 1.409 . S
C317 C315 1.415 . S
C318 H308 0.930 . S
C318 C316 1.419 1_556 S
C318 C319 1.362 . S
C319 H309 0.930 . S
C319 C312 1.409 . S
C319 C318 1.362 . S
H320 C326 0.930 . S
H321 C329 0.930 . S
H322 C330 0.930 . S
H323 C331 0.930 . S
H324 C334 0.930 . S
H325 C335 0.930 . S
C326 H320 0.930 . S
C326 C327 1.355 1_556 S
C326 C328 1.415 . S
C327 C326 1.355 1_554 S
C327 C329 1.419 . S
C328 C326 1.415 . S
C328 C333 1.425 1_556 S
C328 C335 1.409 . S
C329 H321 0.930 . S
C329 C327 1.419 . S
C329 C330 1.362 . S
C330 H322 0.930 . S
C330 C329 1.362 . S
C330 C333 1.409 . S
C331 H323 0.930 . S
C331 C332 1.355 1_554 S
C331 C333 1.415 . S
C332 C331 1.355 1_556 S
C332 C334 1.419 . S
C333 C328 1.425 1_554 S
C333 C330 1.409 . S
C333 C331 1.415 . S
C334 H324 0.930 . S
C334 C332 1.419 . S
C334 C335 1.362 . S
C335 H325 0.930 . S
C335 C328 1.409 . S
C335 C334 1.362 . S
H336 C342 0.931 . S
H337 C345 0.930 1_455 S
H338 C346 0.930 . S
H339 C347 0.930 . S
H340 C350 0.930 . S
H341 C351 0.930 . S
C342 H336 0.931 . S
C342 C343 1.355 1_655 S
C342 C344 1.415 . S
C343 C342 1.355 1_455 S
C343 C345 1.419 1_455 S
C344 C342 1.415 . S
C344 C349 1.425 . S
C344 C351 1.409 . S
C345 H337 0.930 1_655 S
C345 C343 1.419 1_655 S
C345 C346 1.362 . S
C346 H338 0.930 . S
C346 C345 1.362 . S
C346 C349 1.409 . S
C347 H339 0.930 . S
C347 C348 1.355 . S
C347 C349 1.415 . S
C348 C347 1.355 . S
C348 C350 1.419 . S
C349 C344 1.425 . S
C349 C346 1.409 . S
C349 C347 1.415 . S
C350 H340 0.930 . S
C350 C348 1.419 . S
C350 C351 1.362 . S
C351 H341 0.930 . S
C351 C344 1.409 . S
C351 C350 1.362 . S
H352 C358 0.930 . S
H353 C361 0.930 . S
H354 C362 0.930 . S
H355 C363 0.930 . S
H356 C366 0.930 . S
H357 C367 0.930 . S
C358 H352 0.930 . S
C358 C359 1.355 1_565 S
C358 C360 1.415 . S
C359 C358 1.355 1_545 S
C359 C361 1.419 . S
C360 C358 1.415 . S
C360 C365 1.425 . S
C360 C367 1.409 . S
C361 H353 0.930 . S
C361 C359 1.419 . S
C361 C362 1.362 1_545 S
C362 H354 0.930 . S
C362 C361 1.362 1_565 S
C362 C365 1.409 . S
C363 H355 0.930 . S
C363 C364 1.355 . S
C363 C365 1.415 . S
C364 C363 1.355 . S
C364 C366 1.419 . S
C365 C360 1.425 . S
C365 C362 1.409 . S
C365 C363 1.415 . S
C366 H356 0.930 . S
C366 C364 1.419 . S
C366 C367 1.362 . S
C367 H357 0.930 . S
C367 C360 1.409 . S
C367 C366 1.362 . S
H368 C374 0.930 . S
H369 C377 0.930 . S
H370 C378 0.930 . S
H371 C379 0.930 1_655 S
H372 C382 0.930 . S
H373 C383 0.930 . S
C374 H368 0.930 . S
C374 C375 1.355 . S
C374 C376 1.415 . S
C375 C374 1.355 . S
C375 C377 1.419 . S
C376 C374 1.415 . S
C376 C381 1.425 . S
C376 C383 1.409 . S
C377 H369 0.930 . S
C377 C375 1.419 . S
C377 C378 1.362 . S
C378 H370 0.930 . S
C378 C377 1.362 . S
C378 C381 1.409 . S
C379 H371 0.930 1_455 S
C379 C380 1.355 1_455 S
C379 C381 1.415 . S
C380 C379 1.355 1_655 S
C380 C382 1.419 1_655 S
C381 C376 1.425 . S
C381 C378 1.409 . S
C381 C379 1.415 . S
C382 H372 0.930 . S
C382 C380 1.419 1_455 S
C382 C383 1.362 . S
C383 H373 0.930 . S
C383 C376 1.409 . S
C383 C382 1.362 . S
H384 C390 0.930 . S
H385 C393 0.930 . S
H386 C394 0.930 . S
H387 C395 0.930 . S
H388 C398 0.930 . S
H389 C399 0.930 . S
C390 H384 0.930 . S
C390 C391 1.355 . S
C390 C392 1.415 . S
C391 C390 1.355 . S
C391 C393 1.419 . S
C392 C390 1.415 . S
C392 C397 1.425 . S
C392 C399 1.409 . S
C393 H385 0.930 . S
C393 C391 1.419 . S
C393 C394 1.362 . S
C394 H386 0.930 . S
C394 C393 1.362 . S
C394 C397 1.409 . S
C395 H387 0.930 . S
C395 C396 1.355 1_545 S
C395 C397 1.415 . S
C396 C395 1.355 1_565 S
C396 C398 1.419 . S
C397 C392 1.425 . S
C397 C394 1.409 . S
C397 C395 1.415 . S
C398 H388 0.930 . S
C398 C396 1.419 . S
C398 C399 1.362 1_565 S
C399 H389 0.930 . S
C399 C392 1.409 . S
C399 C398 1.362 1_545 S
H400 C406 0.930 . S
H401 C409 0.930 . S
H402 C410 0.930 . S
H403 C411 0.930 . S
H404 C414 0.930 . S
H405 C415 0.930 . S
C406 H400 0.930 . S
C406 C407 1.355 . S
C406 C408 1.415 . S
C407 C406 1.355 . S
C407 C409 1.419 . S
C408 C406 1.415 . S
C408 C413 1.425 . S
C408 C415 1.409 . S
C409 H401 0.930 . S
C409 C407 1.419 . S
C409 C410 1.362 . S
C410 H402 0.930 . S
C410 C409 1.362 . S
C410 C413 1.409 . S
C411 H403 0.930 . S
C411 C412 1.355 . S
C411 C413 1.415 . S
C412 C411 1.355 . S
C412 C414 1.419 . S
C413 C408 1.425 . S
C413 C410 1.409 . S
C413 C411 1.415 . S
C414 H404 0.930 . S
C414 C412 1.419 . S
C414 C415 1.362 . S
C415 H405 0.930 . S
C415 C408 1.409 . S
C415 C414 1.362 . S
H416 C422 0.930 . S
H417 C425 0.930 . S
H418 C426 0.930 . S
H419 C427 0.930 . S
H420 C430 0.930 . S
H421 C431 0.930 . S
C422 H416 0.930 . S
C422 C423 1.355 . S
C422 C424 1.415 . S
C423 C422 1.355 . S
C423 C425 1.419 . S
C424 C422 1.415 . S
C424 C429 1.425 . S
C424 C431 1.409 . S
C425 H417 0.930 . S
C425 C423 1.419 . S
C425 C426 1.362 . S
C426 H418 0.930 . S
C426 C425 1.362 . S
C426 C429 1.409 . S
C427 H419 0.930 . S
C427 C428 1.355 . S
C427 C429 1.415 . S
C428 C427 1.355 . S
C428 C430 1.419 . S
C429 C424 1.425 . S
C429 C426 1.409 . S
C429 C427 1.415 . S
C430 H420 0.930 . S
C430 C428 1.419 . S
C430 C431 1.362 . S
C431 H421 0.930 . S
C431 C424 1.409 . S
C431 C430 1.362 . S
H432 C438 0.930 . S
H433 C441 0.930 . S
H434 C442 0.930 . S
H435 C443 0.930 . S
H436 C446 0.930 . S
H437 C447 0.930 . S
C438 H432 0.930 . S
C438 C439 1.355 . S
C438 C440 1.415 . S
C439 C438 1.355 . S
C439 C441 1.419 . S
C440 C438 1.415 . S
C440 C445 1.425 . S
C440 C447 1.409 . S
C441 H433 0.930 . S
C441 C439 1.419 . S
C441 C442 1.362 . S
C442 H434 0.930 . S
C442 C441 1.362 . S
C442 C445 1.409 . S
C443 H435 0.930 . S
C443 C444 1.355 . S
C443 C445 1.415 . S
C444 C443 1.355 . S
C444 C446 1.419 . S
C445 C440 1.425 . S
C445 C442 1.409 . S
C445 C443 1.415 . S
C446 H436 0.930 . S
C446 C444 1.419 . S
C446 C447 1.362 . S
C447 H437 0.930 . S
C447 C440 1.409 . S
C447 C446 1.362 . S
H448 C454 0.930 . S
H449 C457 0.930 . S
H450 C458 0.930 . S
H451 C459 0.930 . S
H452 C462 0.930 . S
H453 C463 0.930 . S
C454 H448 0.930 . S
C454 C455 1.355 . S
C454 C456 1.415 . S
C455 C454 1.355 . S
C455 C457 1.419 . S
C456 C454 1.415 . S
C456 C461 1.425 . S
C456 C463 1.409 . S
C457 H449 0.930 . S
C457 C455 1.419 . S
C457 C458 1.362 . S
C458 H450 0.930 . S
C458 C457 1.362 . S
C458 C461 1.409 . S
C459 H451 0.930 . S
C459 C460 1.355 . S
C459 C461 1.415 . S
C460 C459 1.355 . S
C460 C462 1.419 . S
C461 C456 1.425 . S
C461 C458 1.409 . S
C461 C459 1.415 . S
C462 H452 0.930 . S
C462 C460 1.419 . S
C462 C463 1.362 . S
C463 H453 0.930 . S
C463 C456 1.409 . S
C463 C462 1.362 . S
H464 C470 0.930 . S
H465 C473 0.930 . S
H466 C474 0.930 . S
H467 C475 0.930 . S
H468 C478 0.930 . S
H469 C479 0.930 . S
C470 H464 0.930 . S
C470 C471 1.355 . S
C470 C472 1.415 . S
C471 C470 1.355 . S
C471 C473 1.419 . S
C472 C470 1.415 . S
C472 C477 1.425 . S
C472 C479 1.409 . S
C473 H465 0.930 . S
C473 C471 1.419 . S
C473 C474 1.362 . S
C474 H466 0.930 . S
C474 C473 1.362 . S
C474 C477 1.409 . S
C475 H467 0.930 . S
C475 C476 1.355 . S
C475 C477 1.415 . S
C476 C475 1.355 . S
C476 C478 1.419 . S
C477 C472 1.425 . S
C477 C474 1.409 . S
C477 C475 1.415 . S
C478 H468 0.930 . S
C478 C476 1.419 . S
C478 C479 1.362 . S
C479 H469 0.930 . S
C479 C472 1.409 . S
C479 C478 1.362 . S
H480 C486 0.930 . S
H481 C489 0.930 . S
H482 C490 0.930 . S
H483 C491 0.930 . S
H484 C494 0.930 . S
H485 C495 0.930 . S
C486 H480 0.930 . S
C486 C487 1.355 . S
C486 C488 1.415 . S
C487 C486 1.355 . S
C487 C489 1.419 . S
C488 C486 1.415 . S
C488 C493 1.425 . S
C488 C495 1.409 . S
C489 H481 0.930 . S
C489 C487 1.419 . S
C489 C490 1.362 . S
C490 H482 0.930 . S
C490 C489 1.362 . S
C490 C493 1.409 . S
C491 H483 0.930 . S
C491 C492 1.355 . S
C491 C493 1.415 . S
C492 C491 1.355 . S
C492 C494 1.419 . S
C493 C488 1.425 . S
C493 C490 1.409 . S
C493 C491 1.415 . S
C494 H484 0.930 . S
C494 C492 1.419 . S
C494 C495 1.362 . S
C495 H485 0.930 . S
C495 C488 1.409 . S
C495 C494 1.362 . S
H496 C502 0.930 . S
H497 C505 0.930 . S
H498 C506 0.930 . S
H499 C507 0.930 . S
H500 C510 0.930 . S
H501 C511 0.930 . S
C502 H496 0.930 . S
C502 C503 1.355 . S
C502 C504 1.415 . S
C503 C502 1.355 . S
C503 C505 1.419 . S
C504 C502 1.415 . S
C504 C509 1.425 . S
C504 C511 1.409 . S
C505 H497 0.930 . S
C505 C503 1.419 . S
C505 C506 1.362 . S
C506 H498 0.930 . S
C506 C505 1.362 . S
C506 C509 1.409 . S
C507 H499 0.930 . S
C507 C508 1.355 . S
C507 C509 1.415 . S
C508 C507 1.355 . S
C508 C510 1.419 . S
C509 C504 1.425 . S
C509 C506 1.409 . S
C509 C507 1.415 . S
C510 H500 0.930 . S
C510 C508 1.419 . S
C510 C511 1.362 . S
C511 H501 0.930 . S
C511 C504 1.409 . S
C511 C510 1.362 . S
H512 C518 0.930 . S
H513 C521 0.930 . S
H514 C522 0.930 . S
H515 C523 0.930 . S
H516 C526 0.930 . S
H517 C527 0.930 . S
C518 H512 0.930 . S
C518 C519 1.355 . S
C518 C520 1.415 . S
C519 C518 1.355 . S
C519 C521 1.419 . S
C520 C518 1.415 . S
C520 C525 1.425 . S
C520 C527 1.409 . S
C521 H513 0.930 . S
C521 C519 1.419 . S
C521 C522 1.362 . S
C522 H514 0.930 . S
C522 C521 1.362 . S
C522 C525 1.409 . S
C523 H515 0.930 . S
C523 C524 1.355 . S
C523 C525 1.415 . S
C524 C523 1.355 . S
C524 C526 1.419 . S
C525 C520 1.425 . S
C525 C522 1.409 . S
C525 C523 1.415 . S
C526 H516 0.930 . S
C526 C524 1.419 . S
C526 C527 1.362 . S
C527 H517 0.930 . S
C527 C520 1.409 . S
C527 C526 1.362 . S
H528 C534 0.930 . S
H529 C537 0.930 . S
H530 C538 0.930 . S
H531 C539 0.930 . S
H532 C542 0.930 . S
H533 C543 0.930 . S
C534 H528 0.930 . S
C534 C535 1.355 . S
C534 C536 1.415 . S
C535 C534 1.355 . S
C535 C537 1.419 . S
C536 C534 1.415 . S
C536 C541 1.425 1_655 S
C536 C543 1.409 . S
C537 H529 0.930 . S
C537 C535 1.419 . S
C537 C538 1.362 1_655 S
C538 H530 0.930 . S
C538 C537 1.362 1_455 S
C538 C541 1.409 . S
C539 H531 0.930 . S
C539 C540 1.355 . S
C539 C541 1.415 . S
C540 C539 1.355 . S
C540 C542 1.419 . S
C541 C536 1.425 1_455 S
C541 C538 1.409 . S
C541 C539 1.415 . S
C542 H532 0.930 . S
C542 C540 1.419 . S
C542 C543 1.362 1_455 S
C543 H533 0.930 . S
C543 C536 1.409 . S
C543 C542 1.362 1_655 S
H544 C550 0.930 . S
H545 C553 0.930 . S
H546 C554 0.930 . S
H547 C555 0.930 . S
H548 C558 0.930 . S
H549 C559 0.930 . S
C550 H544 0.930 . S
C550 C551 1.355 . S
C550 C552 1.415 1_545 S
C551 C550 1.355 . S
C551 C553 1.419 . S
C552 C550 1.415 1_565 S
C552 C557 1.425 1_565 S
C552 C559 1.409 . S
C553 H545 0.930 . S
C553 C551 1.419 . S
C553 C554 1.362 . S
C554 H546 0.930 . S
C554 C553 1.362 . S
C554 C557 1.409 . S
C555 H547 0.930 . S
C555 C556 1.355 . S
C555 C557 1.415 1_565 S
C556 C555 1.355 . S
C556 C558 1.419 . S
C557 C552 1.425 1_545 S
C557 C554 1.409 . S
C557 C555 1.415 1_545 S
C558 H548 0.930 . S
C558 C556 1.419 . S
C558 C559 1.362 . S
C559 H549 0.930 . S
C559 C552 1.409 . S
C559 C558 1.362 . S
H560 C566 0.930 1_565 S
H561 C569 0.930 . S
H562 C570 0.930 . S
H563 C571 0.930 1_545 S
H564 C574 0.930 . S
H565 C575 0.930 . S
C566 H560 0.930 1_545 S
C566 C567 1.355 . S
C566 C568 1.415 1_545 S
C567 C566 1.355 . S
C567 C569 1.419 . S
C568 C566 1.415 1_565 S
C568 C573 1.425 1_565 S
C568 C575 1.409 . S
C569 H561 0.930 . S
C569 C567 1.419 . S
C569 C570 1.362 . S
C570 H562 0.930 . S
C570 C569 1.362 . S
C570 C573 1.409 . S
C571 H563 0.930 1_565 S
C571 C572 1.355 . S
C571 C573 1.415 1_565 S
C572 C571 1.355 . S
C572 C574 1.419 . S
C573 C568 1.425 1_545 S
C573 C570 1.409 . S
C573 C571 1.415 1_545 S
C574 H564 0.930 . S
C574 C572 1.419 . S
C574 C575 1.362 . S
C575 H565 0.930 . S
C575 C568 1.409 . S
C575 C574 1.362 . S
H576 C582 0.930 . S
H577 C585 0.930 . S
H578 C586 0.930 . S
H579 C587 0.930 . S
H580 C590 0.930 . S
H581 C591 0.930 . S
C582 H576 0.930 . S
C582 C583 1.355 . S
C582 C584 1.415 . S
C583 C582 1.355 . S
C583 C585 1.419 . S
C584 C582 1.415 . S
C584 C589 1.425 1_455 S
C584 C591 1.409 1_455 S
C585 H577 0.930 . S
C585 C583 1.419 . S
C585 C586 1.362 . S
C586 H578 0.930 . S
C586 C585 1.362 . S
C586 C589 1.409 1_455 S
C587 H579 0.930 . S
C587 C588 1.355 . S
C587 C589 1.415 . S
C588 C587 1.355 . S
C588 C590 1.419 . S
C589 C584 1.425 1_655 S
C589 C586 1.409 1_655 S
C589 C587 1.415 . S
C590 H580 0.930 . S
C590 C588 1.419 . S
C590 C591 1.362 . S
C591 H581 0.930 . S
C591 C584 1.409 1_655 S
C591 C590 1.362 . S
C279 C54 0.761 . S
C284 C5 0.791 . S
C295 C39 0.819 . S
C300 C88 0.800 . S
C311 C73 0.794 . S
C316 C122 0.740 . S
C327 C20 0.815 . S
C332 C107 0.803 . S
C343 C190 0.835 . S
C348 C141 0.810 . S
C359 C224 0.799 . S
C364 C175 0.799 . S
C375 C209 0.823 . S
C380 C258 0.814 . S
C391 C243 0.792 . S
C396 C156 0.740 . S
C407 C206 1.553 . S
C412 C33 1.580 . S
C423 C67 1.558 . S
C428 C240 1.536 . S
C439 C101 1.575 . S
C444 C138 1.536 . S
C455 C135 1.583 . S
C460 C172 1.568 . S
C471 C169 1.568 . S
C476 C70 1.527 . S
C487 C203 1.569 . S
C492 C104 1.559 . S
C503 C237 1.553 . S
C508 C2 1.524 . S
C519 C36 1.562 . S
C524 C271 1.585 . S
C535 C77 1.981 . S
C540 C9 2.005 . S
C551 C43 1.999 . S
C556 C111 1.971 . S
C567 C213 1.993 . S
C572 C145 1.994 . S
C583 C179 1.957 . S
C588 C247 2.017 . S
