# Generated by pormake.
# Topology vda, (6)-cn, num edge types: 1
# Building blocks:
#     Node 0, Type 0, BuildingBlock: IZENUY_clean_sbu_0, # of connection points: 6
#     Node 1, Type 0, BuildingBlock: IZENUY_clean_sbu_0, # of connection points: 6
#     Node 2, Type 0, BuildingBlock: IZENUY_clean_sbu_0, # of connection points: 6
#     Node 3, Type 0, BuildingBlock: IZENUY_clean_sbu_0, # of connection points: 6
#     Node 4, Type 0, BuildingBlock: IZENUY_clean_sbu_0, # of connection points: 6
#     Node 5, Type 0, BuildingBlock: IZENUY_clean_sbu_0, # of connection points: 6
#     Node 6, Type 0, BuildingBlock: IZENUY_clean_sbu_0, # of connection points: 6
#     Node 7, Type 0, BuildingBlock: IZENUY_clean_sbu_0, # of connection points: 6
#     Node 8, Type 0, BuildingBlock: IZENUY_clean_sbu_0, # of connection points: 6
#     Node 9, Type 0, BuildingBlock: IZENUY_clean_sbu_0, # of connection points: 6
#     Node 10, Type 0, BuildingBlock: IZENUY_clean_sbu_0, # of connection points: 6
#     Node 11, Type 0, BuildingBlock: IZENUY_clean_sbu_0, # of connection points: 6
#     Node 12, Type 0, BuildingBlock: IZENUY_clean_sbu_0, # of connection points: 6
#     Node 13, Type 0, BuildingBlock: IZENUY_clean_sbu_0, # of connection points: 6
#     Node 14, Type 0, BuildingBlock: IZENUY_clean_sbu_0, # of connection points: 6
#     Node 15, Type 0, BuildingBlock: IZENUY_clean_sbu_0, # of connection points: 6
#     Node 16, Type 0, BuildingBlock: IZENUY_clean_sbu_0, # of connection points: 6
#     Node 17, Type 0, BuildingBlock: IZENUY_clean_sbu_0, # of connection points: 6
#     Node 18, Type 0, BuildingBlock: IZENUY_clean_sbu_0, # of connection points: 6
#     Node 19, Type 0, BuildingBlock: IZENUY_clean_sbu_0, # of connection points: 6
#     Node 20, Type 0, BuildingBlock: IZENUY_clean_sbu_0, # of connection points: 6
#     Node 21, Type 0, BuildingBlock: IZENUY_clean_sbu_0, # of connection points: 6
#     Node 22, Type 0, BuildingBlock: IZENUY_clean_sbu_0, # of connection points: 6
#     Node 23, Type 0, BuildingBlock: IZENUY_clean_sbu_0, # of connection points: 6
#     Node 24, Type 0, BuildingBlock: IZENUY_clean_sbu_0, # of connection points: 6
#     Node 25, Type 0, BuildingBlock: IZENUY_clean_sbu_0, # of connection points: 6
#     Node 26, Type 0, BuildingBlock: IZENUY_clean_sbu_0, # of connection points: 6
#     Node 27, Type 0, BuildingBlock: IZENUY_clean_sbu_0, # of connection points: 6
#     Node 28, Type 0, BuildingBlock: IZENUY_clean_sbu_0, # of connection points: 6
#     Node 29, Type 0, BuildingBlock: IZENUY_clean_sbu_0, # of connection points: 6
#     Node 30, Type 0, BuildingBlock: IZENUY_clean_sbu_0, # of connection points: 6
#     Node 31, Type 0, BuildingBlock: IZENUY_clean_sbu_0, # of connection points: 6
#     Edge 32, Type (0, 0), BuildingBlock: OJICUG_clean_linker_0, # of connection points: 2
#     Edge 33, Type (0, 0), BuildingBlock: OJICUG_clean_linker_0, # of connection points: 2
#     Edge 34, Type (0, 0), BuildingBlock: OJICUG_clean_linker_0, # of connection points: 2
#     Edge 35, Type (0, 0), BuildingBlock: OJICUG_clean_linker_0, # of connection points: 2
#     Edge 36, Type (0, 0), BuildingBlock: OJICUG_clean_linker_0, # of connection points: 2
#     Edge 37, Type (0, 0), BuildingBlock: OJICUG_clean_linker_0, # of connection points: 2
#     Edge 38, Type (0, 0), BuildingBlock: OJICUG_clean_linker_0, # of connection points: 2
#     Edge 39, Type (0, 0), BuildingBlock: OJICUG_clean_linker_0, # of connection points: 2
#     Edge 40, Type (0, 0), BuildingBlock: OJICUG_clean_linker_0, # of connection points: 2
#     Edge 41, Type (0, 0), BuildingBlock: OJICUG_clean_linker_0, # of connection points: 2
#     Edge 42, Type (0, 0), BuildingBlock: OJICUG_clean_linker_0, # of connection points: 2
#     Edge 43, Type (0, 0), BuildingBlock: OJICUG_clean_linker_0, # of connection points: 2
#     Edge 44, Type (0, 0), BuildingBlock: OJICUG_clean_linker_0, # of connection points: 2
#     Edge 45, Type (0, 0), BuildingBlock: OJICUG_clean_linker_0, # of connection points: 2
#     Edge 46, Type (0, 0), BuildingBlock: OJICUG_clean_linker_0, # of connection points: 2
#     Edge 47, Type (0, 0), BuildingBlock: OJICUG_clean_linker_0, # of connection points: 2
#     Edge 48, Type (0, 0), BuildingBlock: OJICUG_clean_linker_0, # of connection points: 2
#     Edge 49, Type (0, 0), BuildingBlock: OJICUG_clean_linker_0, # of connection points: 2
#     Edge 50, Type (0, 0), BuildingBlock: OJICUG_clean_linker_0, # of connection points: 2
#     Edge 51, Type (0, 0), BuildingBlock: OJICUG_clean_linker_0, # of connection points: 2
#     Edge 52, Type (0, 0), BuildingBlock: OJICUG_clean_linker_0, # of connection points: 2
#     Edge 53, Type (0, 0), BuildingBlock: OJICUG_clean_linker_0, # of connection points: 2
#     Edge 54, Type (0, 0), BuildingBlock: OJICUG_clean_linker_0, # of connection points: 2
#     Edge 55, Type (0, 0), BuildingBlock: OJICUG_clean_linker_0, # of connection points: 2
#     Edge 56, Type (0, 0), BuildingBlock: OJICUG_clean_linker_0, # of connection points: 2
#     Edge 57, Type (0, 0), BuildingBlock: OJICUG_clean_linker_0, # of connection points: 2
#     Edge 58, Type (0, 0), BuildingBlock: OJICUG_clean_linker_0, # of connection points: 2
#     Edge 59, Type (0, 0), BuildingBlock: OJICUG_clean_linker_0, # of connection points: 2
#     Edge 60, Type (0, 0), BuildingBlock: OJICUG_clean_linker_0, # of connection points: 2
#     Edge 61, Type (0, 0), BuildingBlock: OJICUG_clean_linker_0, # of connection points: 2
#     Edge 62, Type (0, 0), BuildingBlock: OJICUG_clean_linker_0, # of connection points: 2
#     Edge 63, Type (0, 0), BuildingBlock: OJICUG_clean_linker_0, # of connection points: 2
#     Edge 64, Type (0, 0), BuildingBlock: OJICUG_clean_linker_0, # of connection points: 2
#     Edge 65, Type (0, 0), BuildingBlock: OJICUG_clean_linker_0, # of connection points: 2
#     Edge 66, Type (0, 0), BuildingBlock: OJICUG_clean_linker_0, # of connection points: 2
#     Edge 67, Type (0, 0), BuildingBlock: OJICUG_clean_linker_0, # of connection points: 2
#     Edge 68, Type (0, 0), BuildingBlock: OJICUG_clean_linker_0, # of connection points: 2
#     Edge 69, Type (0, 0), BuildingBlock: OJICUG_clean_linker_0, # of connection points: 2
#     Edge 70, Type (0, 0), BuildingBlock: OJICUG_clean_linker_0, # of connection points: 2
#     Edge 71, Type (0, 0), BuildingBlock: OJICUG_clean_linker_0, # of connection points: 2
#     Edge 72, Type (0, 0), BuildingBlock: OJICUG_clean_linker_0, # of connection points: 2
#     Edge 73, Type (0, 0), BuildingBlock: OJICUG_clean_linker_0, # of connection points: 2
#     Edge 74, Type (0, 0), BuildingBlock: OJICUG_clean_linker_0, # of connection points: 2
#     Edge 75, Type (0, 0), BuildingBlock: OJICUG_clean_linker_0, # of connection points: 2
#     Edge 76, Type (0, 0), BuildingBlock: OJICUG_clean_linker_0, # of connection points: 2
#     Edge 77, Type (0, 0), BuildingBlock: OJICUG_clean_linker_0, # of connection points: 2
#     Edge 78, Type (0, 0), BuildingBlock: OJICUG_clean_linker_0, # of connection points: 2
#     Edge 79, Type (0, 0), BuildingBlock: OJICUG_clean_linker_0, # of connection points: 2
#     Edge 80, Type (0, 0), BuildingBlock: OJICUG_clean_linker_0, # of connection points: 2
#     Edge 81, Type (0, 0), BuildingBlock: OJICUG_clean_linker_0, # of connection points: 2
#     Edge 82, Type (0, 0), BuildingBlock: OJICUG_clean_linker_0, # of connection points: 2
#     Edge 83, Type (0, 0), BuildingBlock: OJICUG_clean_linker_0, # of connection points: 2
#     Edge 84, Type (0, 0), BuildingBlock: OJICUG_clean_linker_0, # of connection points: 2
#     Edge 85, Type (0, 0), BuildingBlock: OJICUG_clean_linker_0, # of connection points: 2
#     Edge 86, Type (0, 0), BuildingBlock: OJICUG_clean_linker_0, # of connection points: 2
#     Edge 87, Type (0, 0), BuildingBlock: OJICUG_clean_linker_0, # of connection points: 2
#     Edge 88, Type (0, 0), BuildingBlock: OJICUG_clean_linker_0, # of connection points: 2
#     Edge 89, Type (0, 0), BuildingBlock: OJICUG_clean_linker_0, # of connection points: 2
#     Edge 90, Type (0, 0), BuildingBlock: OJICUG_clean_linker_0, # of connection points: 2
#     Edge 91, Type (0, 0), BuildingBlock: OJICUG_clean_linker_0, # of connection points: 2
#     Edge 92, Type (0, 0), BuildingBlock: OJICUG_clean_linker_0, # of connection points: 2
#     Edge 93, Type (0, 0), BuildingBlock: OJICUG_clean_linker_0, # of connection points: 2
#     Edge 94, Type (0, 0), BuildingBlock: OJICUG_clean_linker_0, # of connection points: 2
#     Edge 95, Type (0, 0), BuildingBlock: OJICUG_clean_linker_0, # of connection points: 2
#     Edge 96, Type (0, 0), BuildingBlock: OJICUG_clean_linker_0, # of connection points: 2
#     Edge 97, Type (0, 0), BuildingBlock: OJICUG_clean_linker_0, # of connection points: 2
#     Edge 98, Type (0, 0), BuildingBlock: OJICUG_clean_linker_0, # of connection points: 2
#     Edge 99, Type (0, 0), BuildingBlock: OJICUG_clean_linker_0, # of connection points: 2
#     Edge 100, Type (0, 0), BuildingBlock: OJICUG_clean_linker_0, # of connection points: 2
#     Edge 101, Type (0, 0), BuildingBlock: OJICUG_clean_linker_0, # of connection points: 2
#     Edge 102, Type (0, 0), BuildingBlock: OJICUG_clean_linker_0, # of connection points: 2
#     Edge 103, Type (0, 0), BuildingBlock: OJICUG_clean_linker_0, # of connection points: 2
#     Edge 104, Type (0, 0), BuildingBlock: OJICUG_clean_linker_0, # of connection points: 2
#     Edge 105, Type (0, 0), BuildingBlock: OJICUG_clean_linker_0, # of connection points: 2
#     Edge 106, Type (0, 0), BuildingBlock: OJICUG_clean_linker_0, # of connection points: 2
#     Edge 107, Type (0, 0), BuildingBlock: OJICUG_clean_linker_0, # of connection points: 2
#     Edge 108, Type (0, 0), BuildingBlock: OJICUG_clean_linker_0, # of connection points: 2
#     Edge 109, Type (0, 0), BuildingBlock: OJICUG_clean_linker_0, # of connection points: 2
#     Edge 110, Type (0, 0), BuildingBlock: OJICUG_clean_linker_0, # of connection points: 2
#     Edge 111, Type (0, 0), BuildingBlock: OJICUG_clean_linker_0, # of connection points: 2
#     Edge 112, Type (0, 0), BuildingBlock: OJICUG_clean_linker_0, # of connection points: 2
#     Edge 113, Type (0, 0), BuildingBlock: OJICUG_clean_linker_0, # of connection points: 2
#     Edge 114, Type (0, 0), BuildingBlock: OJICUG_clean_linker_0, # of connection points: 2
#     Edge 115, Type (0, 0), BuildingBlock: OJICUG_clean_linker_0, # of connection points: 2
#     Edge 116, Type (0, 0), BuildingBlock: OJICUG_clean_linker_0, # of connection points: 2
#     Edge 117, Type (0, 0), BuildingBlock: OJICUG_clean_linker_0, # of connection points: 2
#     Edge 118, Type (0, 0), BuildingBlock: OJICUG_clean_linker_0, # of connection points: 2
#     Edge 119, Type (0, 0), BuildingBlock: OJICUG_clean_linker_0, # of connection points: 2
#     Edge 120, Type (0, 0), BuildingBlock: OJICUG_clean_linker_0, # of connection points: 2
#     Edge 121, Type (0, 0), BuildingBlock: OJICUG_clean_linker_0, # of connection points: 2
#     Edge 122, Type (0, 0), BuildingBlock: OJICUG_clean_linker_0, # of connection points: 2
#     Edge 123, Type (0, 0), BuildingBlock: OJICUG_clean_linker_0, # of connection points: 2
#     Edge 124, Type (0, 0), BuildingBlock: OJICUG_clean_linker_0, # of connection points: 2
#     Edge 125, Type (0, 0), BuildingBlock: OJICUG_clean_linker_0, # of connection points: 2
#     Edge 126, Type (0, 0), BuildingBlock: OJICUG_clean_linker_0, # of connection points: 2
#     Edge 127, Type (0, 0), BuildingBlock: OJICUG_clean_linker_0, # of connection points: 2
# Relax obj value: 0.426
# Max RMSD: 0.269
# Mean RMSD: 0.268
data_MOF--net-vda--node1-IZENUY_clean_sbu_0--edge1-OJICUG_clean_linker_0
_symmetry_space_group_name_H-M    P1
_symmetry_Int_Tables_number       1
_symmetry_cell_setting            triclinic
loop_
_symmetry_equiv_pos_as_xyz
'x, y, z'
_cell_length_a     36.793365
_cell_length_b     25.908009
_cell_length_c     44.151653
_cell_angle_alpha  90.173432
_cell_angle_beta   89.967216
_cell_angle_gamma 89.940452
loop_
_atom_site_label
_atom_site_type_symbol
_atom_site_fract_x
_atom_site_fract_y
_atom_site_fract_z
_atom_type_partial_charge
Fe0 Fe 0.41329 0.0889 0.05568 0.0
Fe1 Fe 0.38238 0.04173 0.99807 0.0
O2 O 0.38353 0.09311 0.02443 0.0
Fe3 Fe 0.35599 0.14823 1.0198 0.0
O4 O 0.39707 0.19188 1.01951 0.0
O5 O 0.42059 0.15892 0.06021 0.0
O6 O 0.45161 0.08868 0.03065 0.0
C7 C 0.45726 0.05081 1.01352 0.0
C8 C 0.35191 0.12251 0.08321 0.0
O9 O 0.4307 0.02474 1.0033 0.0
C10 C 0.30763 0.06791 1.00337 0.0
O11 O 0.41222 0.01789 0.05811 0.0
O12 O 0.36807 0.99685 0.02731 0.0
O13 O 0.34813 0.15599 0.06197 0.0
O14 O 0.37595 0.08832 0.08132 0.0
C15 C 0.38277 0.12513 0.95978 0.0
O16 O 0.33376 0.04906 0.98809 0.0
O17 O 0.31354 0.10796 1.01959 0.0
C18 C 0.38795 0.98634 0.04976 0.0
O19 O 0.39717 0.08322 0.96774 0.0
O20 O 0.35978 0.148 0.97713 0.0
C21 C 0.42192 0.19282 0.03969 0.0
Fe22 Fe 0.91579 0.20783 0.99334 0.0
Fe23 Fe 0.94163 0.10405 1.01836 0.0
O24 O 0.91436 0.15972 0.02137 0.0
Fe25 Fe 0.88533 0.16813 0.05276 0.0
O26 O 0.84651 0.16699 0.02833 0.0
O27 O 0.86758 0.22717 0.9985 0.0
O28 O 0.89986 0.16365 0.96479 0.0
C29 C 0.9146 0.12147 0.95782 0.0
C30 C 0.91134 0.26983 0.0419 0.0
O31 O 0.93825 0.10096 0.97554 0.0
C32 C 0.94572 0.13417 0.08121 0.0
O33 O 0.96433 0.19785 0.9834 0.0
O34 O 0.98393 0.14402 1.01778 0.0
O35 O 0.88756 0.23976 0.05285 0.0
O36 O 0.93149 0.25431 1.02075 0.0
C37 C 0.87576 0.06274 0.0391 0.0
O38 O 0.94882 0.09904 0.06072 0.0
O39 O 0.92316 0.17001 0.07798 0.0
C40 C 0.99 0.18223 1.00038 0.0
O41 O 0.90055 0.06148 1.01892 0.0
O42 O 0.87702 0.09843 0.05885 0.0
C43 C 0.84088 0.20308 1.01009 0.0
Fe44 Fe 0.38054 0.20933 0.29724 0.0
Fe45 Fe 0.41176 0.16896 0.23807 0.0
O46 O 0.38234 0.16087 0.26922 0.0
Fe47 Fe 0.3552 0.10515 0.27206 0.0
O48 O 0.31271 0.14496 0.2726 0.0
O49 O 0.33197 0.19949 0.30689 0.0
O50 O 0.36518 0.25566 0.26969 0.0
C51 C 0.38564 0.27094 0.24873 0.0
C52 C 0.38173 0.12327 0.33274 0.0
O53 O 0.40953 0.24061 0.23799 0.0
C54 C 0.42142 0.0636 0.25152 0.0
O55 O 0.4287 0.22846 0.29249 0.0
O56 O 0.45021 0.1679 0.26288 0.0
O57 O 0.35843 0.10226 0.31486 0.0
O58 O 0.39621 0.16556 0.32592 0.0
C59 C 0.35128 0.13539 0.20938 0.0
O60 O 0.42022 0.09922 0.23186 0.0
O61 O 0.39643 0.06247 0.27154 0.0
C62 C 0.45553 0.20406 0.28124 0.0
O63 O 0.37425 0.1707 0.21256 0.0
O64 O 0.3481 0.10019 0.22969 0.0
C65 C 0.30642 0.18336 0.28995 0.0
Fe66 Fe 0.91474 0.04692 0.29516 0.0
Fe67 Fe 0.9405 0.15192 0.27108 0.0
O68 O 0.91288 0.09663 0.26796 0.0
Fe69 Fe 0.88236 0.09065 0.23735 0.0
O70 O 0.84469 0.09254 0.26306 0.0
O71 O 0.86608 0.03032 0.2914 0.0
O72 O 0.901 0.09017 0.32506 0.0
C73 C 0.91541 0.13255 0.33199 0.0
C74 C 0.90697 0.98801 0.24514 0.0
O75 O 0.93799 0.15428 0.31387 0.0
C76 C 0.94288 0.12242 0.20803 0.0
O77 O 0.96377 0.0545 0.30369 0.0
O78 O 0.98283 0.11164 0.27085 0.0
O79 O 0.88289 0.01953 0.23643 0.0
O80 O 0.92799 1.00015 0.26651 0.0
C81 C 0.87434 0.19533 0.25169 0.0
O82 O 0.94706 0.15716 0.22864 0.0
O83 O 0.91916 0.08804 0.21107 0.0
C84 C 0.98923 0.07222 0.28726 0.0
O85 O 0.8995 0.19546 0.27155 0.0
O86 O 0.87532 0.16041 0.23163 0.0
C87 C 0.83932 0.05606 0.28116 0.0
Fe88 Fe 0.69364 0.85372 0.02151 0.0
Fe89 Fe 0.63681 0.91838 0.98858 0.0
O90 O 0.66657 0.90962 1.01937 0.0
Fe91 Fe 0.66857 0.95743 0.0478 0.0
O92 O 0.65315 0.91301 0.07623 0.0
O93 O 0.6908 0.84983 0.06438 0.0
O94 O 0.65227 0.81129 0.02113 0.0
C95 C 0.62694 0.81335 1.00148 0.0
C96 C 0.74245 0.93142 0.03976 0.0
O97 O 0.62848 0.84893 0.98185 0.0
C98 C 0.66337 0.01966 0.99942 0.0
O99 O 0.70032 0.84981 0.97886 0.0
O100 O 0.67391 0.92083 0.96266 0.0
O101 O 0.71708 0.94708 0.05704 0.0
O102 O 0.73609 0.89347 0.02208 0.0
C103 C 0.59358 0.952 0.03274 0.0
O104 O 0.63901 0.98978 0.98918 0.0
O105 O 0.68368 0.00457 1.02053 0.0
C106 C 0.69665 0.88538 0.95874 0.0
O107 O 0.59873 0.91664 1.01379 0.0
O108 O 0.62043 0.97665 0.04362 0.0
C109 C 0.66769 0.87055 0.08264 0.0
Fe110 Fe 0.16017 0.83987 0.9831 0.0
Fe111 Fe 0.13245 0.79603 0.04234 0.0
O112 O 0.13224 0.84579 1.01534 0.0
Fe113 Fe 0.10477 0.90078 1.02023 0.0
O114 O 0.1458 0.94379 1.01969 0.0
O115 O 0.16758 0.91013 0.97824 0.0
O116 O 0.19961 0.84096 1.00659 0.0
C117 C 0.20672 0.80295 0.02288 0.0
C118 C 0.09827 0.8735 0.95706 0.0
O119 O 0.18085 0.77803 0.03528 0.0
C120 C 0.05753 0.82108 0.03809 0.0
O121 O 0.15869 0.76805 0.98175 0.0
O122 O 0.1159 0.75102 1.01431 0.0
O123 O 0.09589 0.9079 0.97809 0.0
O124 O 0.12152 0.83833 0.95893 0.0
C125 C 0.13382 0.88007 0.07978 0.0
O126 O 0.0841 0.80437 0.05377 0.0
O127 O 0.06271 0.86028 0.02121 0.0
C128 C 0.13547 0.73684 0.9925 0.0
O129 O 0.14902 0.83887 0.07146 0.0
O130 O 0.10957 0.9013 0.06295 0.0
C131 C 0.17015 0.94378 0.99912 0.0
Fe132 Fe 0.69273 0.90281 0.76795 0.0
Fe133 Fe 0.63723 0.83911 0.80312 0.0
O134 O 0.66629 0.84665 0.77168 0.0
Fe135 Fe 0.66843 0.79697 0.74445 0.0
O136 O 0.65219 0.83883 0.71516 0.0
O137 O 0.68873 0.90431 0.72494 0.0
O138 O 0.65095 0.94459 0.7683 0.0
C139 C 0.62615 0.94346 0.7885 0.0
C140 C 0.74217 0.82472 0.75071 0.0
O141 O 0.62829 0.90882 0.80867 0.0
C142 C 0.66436 0.73759 0.79381 0.0
O143 O 0.70029 0.90916 0.81043 0.0
O144 O 0.67487 0.83869 0.82843 0.0
O145 O 0.71664 0.80744 0.73423 0.0
O146 O 0.73571 0.86384 0.7675 0.0
C147 C 0.59349 0.802 0.76058 0.0
O148 O 0.63998 0.7676 0.80401 0.0
O149 O 0.68466 0.75266 0.77274 0.0
C150 C 0.69737 0.87464 0.83126 0.0
O151 O 0.59875 0.83885 0.77847 0.0
O152 O 0.62039 0.77715 0.74975 0.0
C153 C 0.66594 0.88117 0.7074 0.0
Fe154 Fe 0.12895 0.95899 0.74365 0.0
Fe155 Fe 0.10318 0.85459 0.76805 0.0
O156 O 0.13021 0.91031 0.77141 0.0
Fe157 Fe 0.15914 0.91804 0.80289 0.0
O158 O 0.19795 0.9167 0.77847 0.0
O159 O 0.17715 0.97745 0.74886 0.0
O160 O 0.14479 0.91529 0.7148 0.0
C161 C 0.13034 0.8731 0.70759 0.0
C162 C 0.13324 0.01982 0.79296 0.0
O163 O 0.10696 0.85185 0.72525 0.0
C164 C 0.09823 0.88494 0.83088 0.0
O165 O 0.0805 0.94953 0.73362 0.0
O166 O 0.06069 0.89441 0.76725 0.0
O167 O 0.15723 0.98938 0.80315 0.0
O168 O 0.11339 0.00553 0.77133 0.0
C169 C 0.1693 0.81337 0.78893 0.0
O170 O 0.09538 0.84961 0.81043 0.0
O171 O 0.12125 0.92017 0.82797 0.0
C172 C 0.0547 0.93307 0.75013 0.0
O173 O 0.14461 0.81205 0.76866 0.0
O174 O 0.16712 0.84838 0.80898 0.0
C175 C 0.20371 0.95277 0.76023 0.0
Fe176 Fe 0.35367 0.65285 0.52004 0.0
Fe177 Fe 0.41195 0.59129 0.55311 0.0
O178 O 0.38124 0.59741 0.52271 0.0
Fe179 Fe 0.37933 0.54786 0.49524 0.0
O180 O 0.39273 0.59122 0.46551 0.0
O181 O 0.35596 0.65554 0.47723 0.0
O182 O 0.39469 0.69617 0.51957 0.0
C183 C 0.41987 0.69565 0.53936 0.0
C184 C 0.30497 0.57353 0.50354 0.0
O185 O 0.41857 0.66091 0.55934 0.0
C186 C 0.38778 0.48867 0.54491 0.0
O187 O 0.34734 0.65762 0.56264 0.0
O188 O 0.37534 0.58814 0.57953 0.0
O189 O 0.33032 0.55553 0.48703 0.0
O190 O 0.31141 0.61282 0.52015 0.0
C191 C 0.45466 0.55771 0.5086 0.0
O192 O 0.41185 0.52025 0.55354 0.0
O193 O 0.36649 0.50075 0.52372 0.0
C194 C 0.35171 0.62263 0.58302 0.0
O195 O 0.44934 0.59379 0.52713 0.0
O196 O 0.42799 0.53154 0.49861 0.0
C197 C 0.37836 0.63371 0.45889 0.0
Fe198 Fe 0.91342 0.71249 0.4998 0.0
Fe199 Fe 0.94133 0.60772 0.52163 0.0
O200 O 0.91388 0.66271 0.52674 0.0
Fe201 Fe 0.88637 0.66858 0.55922 0.0
O202 O 0.84659 0.6675 0.53612 0.0
O203 O 0.86503 0.73033 0.50717 0.0
O204 O 0.89668 0.6697 0.4707 0.0
C205 C 0.91198 0.62868 0.46217 0.0
C206 C 0.91067 0.77177 0.54962 0.0
O207 O 0.93634 0.60745 0.4789 0.0
C208 C 0.94838 0.63458 0.58477 0.0
O209 O 0.96173 0.7042 0.48821 0.0
O210 O 0.98328 0.64815 0.52064 0.0
O211 O 0.88772 0.74043 0.56062 0.0
O212 O 0.93012 0.75754 0.52775 0.0
C213 C 0.87639 0.56468 0.5431 0.0
O214 O 0.95041 0.60025 0.5637 0.0
O215 O 0.92539 0.67012 0.583 0.0
C216 C 0.98834 0.68744 0.50385 0.0
O217 O 0.90039 0.56484 0.52228 0.0
O218 O 0.87912 0.59827 0.56402 0.0
C219 C 0.8393 0.70544 0.51982 0.0
Fe220 Fe 0.38118 0.71543 0.79479 0.0
Fe221 Fe 0.4129 0.66764 0.73769 0.0
O222 O 0.38283 0.66362 0.7688 0.0
Fe223 Fe 0.35551 0.60833 0.77341 0.0
O224 O 0.31287 0.64811 0.77331 0.0
O225 O 0.33234 0.70865 0.80403 0.0
O226 O 0.36754 0.75983 0.76518 0.0
C227 C 0.38842 0.77061 0.74351 0.0
C228 C 0.38128 0.63271 0.83376 0.0
O229 O 0.41256 0.73863 0.73544 0.0
C230 C 0.4214 0.56399 0.7536 0.0
O231 O 0.4299 0.73144 0.79024 0.0
O232 O 0.45097 0.66723 0.76297 0.0
O233 O 0.35914 0.60842 0.81628 0.0
O234 O 0.39507 0.67479 0.82555 0.0
C235 C 0.35184 0.63438 0.70983 0.0
O236 O 0.41976 0.59762 0.73298 0.0
O237 O 0.39673 0.56502 0.7739 0.0
C238 C 0.45652 0.70473 0.78043 0.0
O239 O 0.37567 0.6688 0.71194 0.0
O240 O 0.34799 0.60078 0.73107 0.0
C241 C 0.30658 0.68883 0.78881 0.0
Fe242 Fe 0.94265 0.6537 0.77354 0.0
Fe243 Fe 0.88654 0.58925 0.73931 0.0
O244 O 0.91544 0.59805 0.77073 0.0
Fe245 Fe 0.91674 0.55031 0.799 0.0
O246 O 0.90062 0.59486 0.82729 0.0
O247 O 0.93887 0.65753 0.81633 0.0
O248 O 0.90148 0.69644 0.77252 0.0
C249 C 0.87671 0.69478 0.75234 0.0
C250 C 0.99095 0.57554 0.79213 0.0
O251 O 0.87823 0.65883 0.73278 0.0
C252 C 0.91269 0.48781 0.75062 0.0
O253 O 0.95036 0.65777 0.73118 0.0
O254 O 0.92443 0.5869 0.71418 0.0
O255 O 0.96518 0.56031 0.80909 0.0
O256 O 0.98501 0.61362 0.77457 0.0
C257 C 0.84196 0.555 0.78208 0.0
O258 O 0.88885 0.51769 0.73955 0.0
O259 O 0.93261 0.50346 0.77186 0.0
C260 C 0.94738 0.62217 0.71096 0.0
O261 O 0.84765 0.59078 0.76365 0.0
O262 O 0.86861 0.53098 0.79382 0.0
C263 C 0.91521 0.63716 0.8341 0.0
Fe264 Fe 0.66503 0.46657 0.54498 0.0
Fe265 Fe 0.69129 0.36024 0.52281 0.0
O266 O 0.66393 0.41558 0.51836 0.0
Fe267 Fe 0.63429 0.42021 0.48711 0.0
O268 O 0.59603 0.42027 0.51214 0.0
O269 O 0.6168 0.48395 0.53971 0.0
O270 O 0.65001 0.42457 0.57503 0.0
C271 C 0.66436 0.38254 0.58284 0.0
C272 C 0.65971 0.52279 0.49355 0.0
O273 O 0.68756 0.36009 0.5655 0.0
C274 C 0.69534 0.3862 0.45937 0.0
O275 O 0.71356 0.4587 0.55498 0.0
O276 O 0.7337 0.40034 0.52307 0.0
O277 O 0.63554 0.49127 0.48491 0.0
O278 O 0.67949 0.51197 0.51603 0.0
C279 C 0.62535 0.31632 0.50293 0.0
O280 O 0.69903 0.35265 0.48059 0.0
O281 O 0.67167 0.42086 0.46148 0.0
C282 C 0.73961 0.44012 0.53949 0.0
O283 O 0.65018 0.31691 0.52309 0.0
O284 O 0.62685 0.35024 0.48242 0.0
C285 C 0.59028 0.45814 0.52922 0.0
Fe286 Fe 0.13084 0.29761 0.54702 0.0
Fe287 Fe 0.10434 0.40281 0.5237 0.0
O288 O 0.13197 0.34756 0.51996 0.0
Fe289 Fe 0.16182 0.34199 0.48891 0.0
O290 O 0.19997 0.34368 0.51409 0.0
O291 O 0.17938 0.28101 0.54241 0.0
O292 O 0.14515 0.34073 0.57677 0.0
C293 C 0.13063 0.3829 0.5841 0.0
C294 C 0.13763 0.23923 0.49661 0.0
O295 O 0.10748 0.40453 0.56645 0.0
C296 C 0.10098 0.37438 0.46051 0.0
O297 O 0.08203 0.30521 0.55631 0.0
O298 O 0.06223 0.36247 0.52379 0.0
O299 O 0.16142 0.27093 0.48767 0.0
O300 O 0.1171 0.25094 0.51845 0.0
C301 C 0.16992 0.44633 0.5037 0.0
O302 O 0.09717 0.40882 0.48135 0.0
O303 O 0.1245 0.3396 0.46321 0.0
C304 C 0.05628 0.32295 0.54021 0.0
O305 O 0.14522 0.44623 0.52394 0.0
O306 O 0.16853 0.4118 0.48343 0.0
C307 C 0.20585 0.30673 0.53173 0.0
Fe308 Fe 0.69118 0.40359 0.27022 0.0
Fe309 Fe 0.63441 0.33947 0.30374 0.0
O310 O 0.66397 0.34788 0.27271 0.0
Fe311 Fe 0.66576 0.29986 0.24442 0.0
O312 O 0.65026 0.34421 0.21596 0.0
O313 O 0.68817 0.40712 0.22742 0.0
O314 O 0.65002 0.44631 0.27076 0.0
C315 C 0.62489 0.44495 0.29064 0.0
C316 C 0.73989 0.32549 0.25209 0.0
O317 O 0.62598 0.40915 0.3102 0.0
C318 C 0.66039 0.2375 0.29261 0.0
O319 O 0.69808 0.40803 0.31264 0.0
O320 O 0.67179 0.33736 0.3294 0.0
O321 O 0.71439 0.30972 0.23498 0.0
O322 O 0.7336 0.36365 0.26963 0.0
C323 C 0.59074 0.30509 0.26026 0.0
O324 O 0.63658 0.2678 0.3035 0.0
O325 O 0.6809 0.25292 0.27172 0.0
C326 C 0.69469 0.37271 0.33286 0.0
O327 O 0.59606 0.34094 0.27883 0.0
O328 O 0.61757 0.28079 0.24895 0.0
C329 C 0.66482 0.38658 0.20941 0.0
Fe330 Fe 0.13123 0.46115 0.2466 0.0
Fe331 Fe 0.10546 0.35631 0.27092 0.0
O332 O 0.1331 0.41161 0.2739 0.0
Fe333 Fe 0.16365 0.41773 0.30448 0.0
O334 O 0.2013 0.41569 0.27875 0.0
O335 O 0.1799 0.47768 0.25025 0.0
O336 O 0.14486 0.41766 0.21678 0.0
C337 C 0.13031 0.37533 0.20993 0.0
C338 C 0.13917 0.5204 0.29648 0.0
O339 O 0.10778 0.35376 0.22815 0.0
C340 C 0.10316 0.38609 0.33389 0.0
O341 O 0.08218 0.45357 0.23817 0.0
O342 O 0.06314 0.39662 0.27115 0.0
O343 O 0.16318 0.48884 0.30526 0.0
O344 O 0.11809 0.50819 0.27515 0.0
C345 C 0.17168 0.31302 0.29028 0.0
O346 O 0.09901 0.35123 0.31336 0.0
O347 O 0.12685 0.4205 0.33078 0.0
C348 C 0.05674 0.43595 0.25466 0.0
O349 O 0.14648 0.31278 0.27044 0.0
O350 O 0.17067 0.34799 0.31031 0.0
C351 C 0.20665 0.452 0.26053 0.0
Fe352 Fe 0.85466 0.15589 0.51893 0.0
Fe353 Fe 0.91012 0.09139 0.55359 0.0
O354 O 0.88108 0.09944 0.52222 0.0
Fe355 Fe 0.87905 0.05033 0.49456 0.0
O356 O 0.89485 0.09319 0.4654 0.0
O357 O 0.8581 0.158 0.47612 0.0
O358 O 0.89631 0.19742 0.51934 0.0
C359 C 0.92088 0.19602 0.53965 0.0
C360 C 0.80524 0.07859 0.50159 0.0
O361 O 0.9188 0.16098 0.55957 0.0
C362 C 0.88356 0.9898 0.54374 0.0
O363 O 0.84727 0.16158 0.56134 0.0
O364 O 0.87235 0.09045 0.5788 0.0
O365 O 0.83045 0.06031 0.48505 0.0
O366 O 0.812 0.11727 0.51849 0.0
C367 C 0.95397 0.05516 0.51079 0.0
O368 O 0.90769 0.01986 0.55416 0.0
O369 O 0.86355 0.0047 0.52242 0.0
C370 C 0.84978 0.12638 0.58177 0.0
O371 O 0.94865 0.09165 0.52895 0.0
O372 O 0.92715 0.03092 0.49947 0.0
C373 C 0.88092 0.13575 0.45828 0.0
Fe374 Fe 0.41565 0.21249 0.49545 0.0
Fe375 Fe 0.44165 0.10737 0.51927 0.0
O376 O 0.41399 0.16265 0.52258 0.0
Fe377 Fe 0.38348 0.16833 0.55321 0.0
O378 O 0.34594 0.16652 0.52741 0.0
O379 O 0.36702 0.22922 0.49941 0.0
O380 O 0.40182 0.16928 0.46561 0.0
C381 C 0.41626 0.1269 0.45862 0.0
C382 C 0.40788 0.27112 0.54559 0.0
O383 O 0.43913 0.10534 0.47653 0.0
C384 C 0.44394 0.13626 0.58242 0.0
O385 O 0.46463 0.20486 0.48672 0.0
O386 O 0.48394 0.14781 0.51955 0.0
O387 O 0.38394 0.23944 0.55433 0.0
O388 O 0.42891 0.25917 0.52413 0.0
C389 C 0.37533 0.06397 0.53846 0.0
O390 O 0.44818 0.10173 0.56168 0.0
O391 O 0.42022 0.17073 0.5795 0.0
C392 C 0.49018 0.18735 0.50314 0.0
O393 O 0.40059 0.06385 0.51866 0.0
O394 O 0.37652 0.09853 0.55873 0.0
C395 C 0.34035 0.20347 0.50971 0.0
Fe396 Fe 0.88049 0.20833 0.79656 0.0
Fe397 Fe 0.91111 0.16814 0.73712 0.0
O398 O 0.88177 0.16018 0.76834 0.0
Fe399 Fe 0.85421 0.10486 0.77099 0.0
O400 O 0.81202 0.14528 0.77188 0.0
O401 O 0.83182 0.19933 0.80624 0.0
O402 O 0.86541 0.25541 0.76924 0.0
C403 C 0.88558 0.27004 0.74794 0.0
C404 C 0.88099 0.12174 0.83173 0.0
O405 O 0.9095 0.23958 0.7375 0.0
C406 C 0.92014 0.06286 0.75017 0.0
O407 O 0.92889 0.22642 0.79179 0.0
O408 O 0.94982 0.16612 0.76169 0.0
O409 O 0.85753 0.1013 0.81377 0.0
O410 O 0.89581 0.16388 0.82505 0.0
C411 C 0.85025 0.13613 0.70844 0.0
O412 O 0.91882 0.09844 0.73051 0.0
O413 O 0.89519 0.06171 0.77022 0.0
C414 C 0.95553 0.20185 0.78028 0.0
O415 O 0.87348 0.17101 0.7118 0.0
O416 O 0.84689 0.10062 0.72856 0.0
C417 C 0.80606 0.1836 0.78939 0.0
Fe418 Fe 0.44095 0.14992 0.77228 0.0
Fe419 Fe 0.38308 0.09036 0.73722 0.0
O420 O 0.41325 0.09491 0.76815 0.0
Fe421 Fe 0.41471 0.04403 0.79462 0.0
O422 O 0.40075 0.08604 0.82505 0.0
O423 O 0.43811 0.15032 0.81504 0.0
O424 O 0.39993 0.19368 0.77305 0.0
C425 C 0.37499 0.19446 0.75296 0.0
C426 C 0.4894 0.0694 0.78792 0.0
O427 O 0.3762 0.16035 0.73244 0.0
C428 C 0.40751 0.98744 0.74359 0.0
O429 O 0.44795 0.15699 0.72999 0.0
O430 O 0.42017 0.08869 0.71124 0.0
O431 O 0.46362 0.051 0.80372 0.0
O432 O 0.48326 0.10942 0.77188 0.0
C433 C 0.33948 0.05389 0.78006 0.0
O434 O 0.38353 0.01936 0.73523 0.0
O435 O 0.42824 0.99848 0.76537 0.0
C436 C 0.44396 0.1231 0.70888 0.0
O437 O 0.34511 0.09125 0.76265 0.0
O438 O 0.3661 0.02775 0.79019 0.0
C439 C 0.41547 0.12781 0.83276 0.0
Fe440 Fe 0.19039 0.8577 0.52067 0.0
Fe441 Fe 0.13228 0.91905 0.48708 0.0
O442 O 0.16281 0.9131 0.51767 0.0
Fe443 Fe 0.16461 0.96282 0.54504 0.0
O444 O 0.15083 0.9196 0.57476 0.0
O445 O 0.18786 0.85542 0.56343 0.0
O446 O 0.14928 0.81443 0.52108 0.0
C447 C 0.124 0.81478 0.50133 0.0
C448 C 0.23916 0.93725 0.53721 0.0
O449 O 0.12525 0.84934 0.4812 0.0
C450 C 0.15683 0.02167 0.49517 0.0
O451 O 0.19692 0.85228 0.47821 0.0
O452 O 0.16908 0.92148 0.46079 0.0
O453 O 0.21362 0.95512 0.5536 0.0
O454 O 0.23279 0.89784 0.52062 0.0
C455 C 0.08924 0.95367 0.53105 0.0
O456 O 0.13278 0.99015 0.48636 0.0
O457 O 0.17785 0.00956 0.51654 0.0
C458 C 0.1927 0.88689 0.45764 0.0
O459 O 0.09463 0.91722 0.51282 0.0
O460 O 0.11597 0.97949 0.54128 0.0
C461 C 0.16516 0.87714 0.58154 0.0
Fe462 Fe 0.60748 0.89848 0.52056 0.0
Fe463 Fe 0.66677 0.83479 0.48821 0.0
O464 O 0.63488 0.84216 0.51824 0.0
Fe465 Fe 0.63135 0.79273 0.54612 0.0
O466 O 0.6188 0.83511 0.57763 0.0
O467 O 0.62403 0.91319 0.55945 0.0
O468 O 0.64503 0.94377 0.50732 0.0
C469 C 0.67952 0.93656 0.50461 0.0
C470 C 0.55846 0.81309 0.53523 0.0
O471 O 0.6917 0.89175 0.49995 0.0
C472 C 0.6416 0.73653 0.49157 0.0
O473 O 0.5891 0.88794 0.48195 0.0
O474 O 0.64113 0.87062 0.4603 0.0
O475 O 0.58402 0.78061 0.53697 0.0
O476 O 0.56568 0.86175 0.53395 0.0
C477 C 0.70466 0.79872 0.53812 0.0
O478 O 0.64484 0.77578 0.47482 0.0
O479 O 0.64301 0.74061 0.52006 0.0
C480 C 0.60742 0.87723 0.45845 0.0
O481 O 0.69846 0.7982 0.5102 0.0
O482 O 0.67897 0.80086 0.55711 0.0
C483 C 0.62564 0.88225 0.58164 0.0
Fe484 Fe 0.19135 0.90126 0.26758 0.0
Fe485 Fe 0.13363 0.84083 0.30194 0.0
O486 O 0.16386 0.846 0.27114 0.0
Fe487 Fe 0.16539 0.79569 0.24412 0.0
O488 O 0.15141 0.83833 0.21414 0.0
O489 O 0.18879 0.90233 0.22481 0.0
O490 O 0.15018 0.94468 0.26701 0.0
C491 C 0.12521 0.94495 0.28708 0.0
C492 C 0.23992 0.82121 0.2514 0.0
O493 O 0.12667 0.9107 0.30739 0.0
C494 C 0.15814 0.73797 0.29452 0.0
O495 O 0.19803 0.90775 0.30999 0.0
O496 O 0.1706 0.83876 0.328 0.0
O497 O 0.21433 0.80312 0.23522 0.0
O498 O 0.23366 0.86095 0.26778 0.0
C499 C 0.09019 0.8051 0.25879 0.0
O500 O 0.13414 0.76974 0.30323 0.0
O501 O 0.17889 0.74948 0.27285 0.0
C502 C 0.19406 0.87355 0.33083 0.0
O503 O 0.09592 0.84236 0.27634 0.0
O504 O 0.11679 0.77911 0.24838 0.0
C505 C 0.16615 0.88023 0.20685 0.0
Fe506 Fe 0.62905 0.95849 0.24507 0.0
Fe507 Fe 0.60385 0.85331 0.26854 0.0
O508 O 0.63021 0.90959 0.27269 0.0
Fe509 Fe 0.658 0.91756 0.30482 0.0
O510 O 0.69766 0.91827 0.28141 0.0
O511 O 0.67687 0.97811 0.25112 0.0
O512 O 0.6461 0.91521 0.21635 0.0
C513 C 0.63188 0.87308 0.20864 0.0
C514 C 0.63161 0.01947 0.29441 0.0
O515 O 0.60794 0.85186 0.22574 0.0
C516 C 0.598 0.87993 0.33187 0.0
O517 O 0.58092 0.94785 0.23439 0.0
O518 O 0.56104 0.89267 0.26796 0.0
O519 O 0.65502 0.98903 0.30556 0.0
O520 O 0.61235 0.00458 0.27255 0.0
C521 C 0.6699 0.81323 0.28973 0.0
O522 O 0.59615 0.84585 0.31072 0.0
O523 O 0.61916 0.91754 0.32924 0.0
C524 C 0.55508 0.93155 0.25094 0.0
O525 O 0.64567 0.81193 0.26907 0.0
O526 O 0.66716 0.84779 0.3101 0.0
C527 C 0.70338 0.95434 0.26318 0.0
Fe528 Fe 0.85441 0.65383 1.02078 0.0
Fe529 Fe 0.91103 0.58929 0.05415 0.0
O530 O 0.88139 0.59788 0.02322 0.0
Fe531 Fe 0.87936 0.5498 0.99495 0.0
O532 O 0.895 0.59396 0.96643 0.0
O533 O 0.85731 0.65723 0.97797 0.0
O534 O 0.89591 0.69606 0.02109 0.0
C535 C 0.9213 0.6942 0.04075 0.0
C536 C 0.80537 0.57592 1.00275 0.0
O537 O 0.9198 0.65882 0.06052 0.0
C538 C 0.88422 0.48793 0.0435 0.0
O539 O 0.84773 0.65854 0.06328 0.0
O540 O 0.87377 0.58762 0.07998 0.0
O541 O 0.83082 0.5602 0.98555 0.0
O542 O 0.81177 0.6141 1.02031 0.0
C543 C 0.95441 0.55452 1.01043 0.0
O544 O 0.90849 0.51785 0.05386 0.0
O545 O 0.86399 0.50307 0.02235 0.0
C546 C 0.8512 0.62338 0.0836 0.0
O547 O 0.94927 0.59031 0.02909 0.0
O548 O 0.92748 0.53028 0.99936 0.0
C549 C 0.88061 0.63651 0.95992 0.0
Fe550 Fe 0.41483 0.717 0.99639 0.0
Fe551 Fe 0.43837 0.6105 1.02083 0.0
O552 O 0.41149 0.6671 0.02407 0.0
Fe553 Fe 0.38049 0.67488 0.05478 0.0
O554 O 0.34835 0.71113 0.03296 0.0
O555 O 0.36717 0.70862 0.98578 0.0
O556 O 0.42741 0.67546 0.96459 0.0
C557 C 0.42021 0.62866 0.96003 0.0
C558 C 0.40565 0.77301 0.0509 0.0
O559 O 0.42135 0.59713 0.98191 0.0
C560 C 0.44013 0.6308 0.08336 0.0
O561 O 0.4622 0.72898 1.00537 0.0
O562 O 0.48035 0.64756 1.00755 0.0
O563 O 0.40304 0.73372 0.06759 0.0
O564 O 0.4032 0.76897 0.0225 0.0
C565 C 0.36627 0.57289 0.03895 0.0
O566 O 0.45746 0.6193 0.05944 0.0
O567 O 0.40665 0.63946 0.08234 0.0
C568 C 0.48773 0.69631 1.00648 0.0
O569 O 0.4004 0.5653 0.03376 0.0
O570 O 0.3549 0.61789 0.04441 0.0
C571 C 0.34176 0.71026 1.00506 0.0
Fe572 Fe 0.88091 0.71282 0.2976 0.0
Fe573 Fe 0.91286 0.66766 0.23985 0.0
O574 O 0.88247 0.66254 0.27056 0.0
Fe575 Fe 0.85486 0.60738 0.274 0.0
O576 O 0.81263 0.64776 0.27379 0.0
O577 O 0.83194 0.70555 0.30639 0.0
O578 O 0.86758 0.75906 0.26883 0.0
C579 C 0.88842 0.7705 0.24721 0.0
C580 C 0.87988 0.62827 0.33488 0.0
O581 O 0.91249 0.73875 0.23862 0.0
C582 C 0.92096 0.56347 0.25457 0.0
O583 O 0.92956 0.72922 0.29347 0.0
O584 O 0.95042 0.66588 0.26559 0.0
O585 O 0.85737 0.60612 0.31681 0.0
O586 O 0.8947 0.67013 0.32762 0.0
C587 C 0.85237 0.63554 0.21074 0.0
O588 O 0.91966 0.5978 0.23431 0.0
O589 O 0.89592 0.56378 0.27457 0.0
C590 C 0.95615 0.70315 0.28313 0.0
O591 O 0.87605 0.67 0.21365 0.0
O592 O 0.8482 0.60122 0.23151 0.0
C593 C 0.80636 0.68746 0.29018 0.0
Fe594 Fe 0.44233 0.65465 0.27289 0.0
Fe595 Fe 0.38803 0.59078 0.23648 0.0
O596 O 0.41587 0.59851 0.26862 0.0
Fe597 Fe 0.41697 0.54941 0.2961 0.0
O598 O 0.39993 0.59241 0.32493 0.0
O599 O 0.43806 0.65591 0.31569 0.0
O600 O 0.40058 0.69624 0.27232 0.0
C601 C 0.37633 0.6951 0.25168 0.0
C602 C 0.49099 0.57634 0.29056 0.0
O603 O 0.37901 0.6606 0.23127 0.0
C604 C 0.4144 0.48883 0.24662 0.0
O605 O 0.45027 0.66207 0.2307 0.0
O606 O 0.42681 0.59074 0.21206 0.0
O607 O 0.46506 0.55985 0.30693 0.0
O608 O 0.4851 0.61525 0.27355 0.0
C609 C 0.34264 0.55385 0.27804 0.0
O610 O 0.39091 0.51931 0.23562 0.0
O611 O 0.43372 0.5036 0.26847 0.0
C612 C 0.44834 0.62794 0.20957 0.0
O613 O 0.34837 0.59009 0.25992 0.0
O614 O 0.36916 0.52992 0.28998 0.0
C615 C 0.41417 0.63444 0.33277 0.0
Fe616 Fe 0.19041 0.35335 0.02287 0.0
Fe617 Fe 0.13458 0.41714 0.98796 0.0
O618 O 0.16316 0.40897 1.01959 0.0
Fe619 Fe 0.16415 0.45723 0.04769 0.0
O620 O 0.14765 0.41325 0.076 0.0
O621 O 0.18647 0.35078 0.06569 0.0
O622 O 0.14918 0.31077 0.02191 0.0
C623 C 0.1245 0.31208 1.00162 0.0
C624 C 0.23833 0.43191 0.04135 0.0
O625 O 0.12622 0.34745 0.98183 0.0
C626 C 0.16097 0.51863 0.99881 0.0
O627 O 0.19828 0.34796 0.98058 0.0
O628 O 0.17271 0.41861 0.9631 0.0
O629 O 0.21233 0.44696 0.05817 0.0
O630 O 0.23279 0.39348 0.02384 0.0
C631 C 0.08971 0.45266 0.03029 0.0
O632 O 0.13709 0.48871 0.98776 0.0
O633 O 0.18036 0.50358 1.02052 0.0
C634 C 0.19554 0.38305 0.96017 0.0
O635 O 0.09543 0.41649 1.01201 0.0
O636 O 0.11627 0.47678 0.04204 0.0
C637 C 0.16262 0.37146 0.08326 0.0
Fe638 Fe 0.60479 0.40325 0.02272 0.0
Fe639 Fe 0.66189 0.33932 0.98911 0.0
O640 O 0.63218 0.34768 1.02009 0.0
Fe641 Fe 0.63031 0.29957 0.04814 0.0
O642 O 0.64568 0.34378 0.07686 0.0
O643 O 0.60767 0.40667 0.06554 0.0
O644 O 0.64594 0.44612 0.02246 0.0
C645 C 0.67121 0.44478 1.00265 0.0
C646 C 0.5561 0.32474 0.04029 0.0
O647 O 0.67022 0.40901 0.98294 0.0
C648 C 0.6358 0.23756 0.99971 0.0
O649 O 0.59806 0.40776 0.98031 0.0
O650 O 0.62462 0.3372 0.96334 0.0
O651 O 0.58157 0.30935 0.05754 0.0
O652 O 0.56239 0.36305 0.02298 0.0
C653 C 0.70553 0.30462 0.0324 0.0
O654 O 0.65978 0.26767 0.9891 0.0
O655 O 0.61515 0.25311 1.02051 0.0
C656 C 0.60161 0.37244 0.95999 0.0
O657 O 0.70015 0.34075 1.01414 0.0
O658 O 0.67865 0.28038 0.04359 0.0
C659 C 0.63104 0.38616 0.08352 0.0
Fe660 Fe 0.19149 0.40325 0.77099 0.0
Fe661 Fe 0.13501 0.33873 0.80457 0.0
O662 O 0.16446 0.34743 0.77351 0.0
Fe663 Fe 0.16653 0.29931 0.74532 0.0
O664 O 0.15073 0.34324 0.71677 0.0
O665 O 0.18837 0.40656 0.72815 0.0
O666 O 0.15012 0.4457 0.77158 0.0
C667 C 0.12502 0.44413 0.79151 0.0
C668 C 0.24053 0.32535 0.75298 0.0
O669 O 0.12628 0.40832 0.81105 0.0
C670 C 0.16165 0.23728 0.79352 0.0
O671 O 0.19843 0.4078 0.81341 0.0
O672 O 0.17242 0.33693 0.83016 0.0
O673 O 0.2151 0.30965 0.73577 0.0
O674 O 0.23409 0.36355 0.77045 0.0
C675 C 0.09141 0.30361 0.7613 0.0
O676 O 0.13753 0.26714 0.80433 0.0
O677 O 0.18215 0.25312 0.77277 0.0
C678 C 0.19525 0.37234 0.83357 0.0
O679 O 0.09665 0.33977 0.7797 0.0
O680 O 0.11836 0.27961 0.74992 0.0
C681 C 0.16516 0.38565 0.71013 0.0
Fe682 Fe 0.60514 0.35565 0.77028 0.0
Fe683 Fe 0.66167 0.41814 0.80521 0.0
O684 O 0.63239 0.41111 0.77386 0.0
Fe685 Fe 0.63074 0.46046 0.74659 0.0
O686 O 0.64613 0.41758 0.71713 0.0
O687 O 0.60822 0.35415 0.72743 0.0
O688 O 0.64645 0.31294 0.77018 0.0
C689 C 0.6713 0.31349 0.79034 0.0
C690 C 0.55645 0.43463 0.75353 0.0
O691 O 0.6697 0.34826 0.8106 0.0
C692 C 0.63582 0.52028 0.79615 0.0
O693 O 0.59803 0.34941 0.81261 0.0
O694 O 0.62395 0.41963 0.83055 0.0
O695 O 0.58208 0.45139 0.73691 0.0
O696 O 0.56268 0.39563 0.77032 0.0
C697 C 0.70588 0.45392 0.76254 0.0
O698 O 0.65984 0.48959 0.80606 0.0
O699 O 0.61545 0.506 0.7749 0.0
C700 C 0.60105 0.38418 0.83331 0.0
O701 O 0.70037 0.41749 0.7806 0.0
O702 O 0.67912 0.47873 0.75153 0.0
C703 C 0.63129 0.3758 0.70966 0.0
C704 C 0.42841 0.85721 0.06936 0.0
C705 C 0.39897 0.82466 0.06316 0.0
H706 H 0.44768 0.93508 0.07067 0.0
C707 C 0.36437 0.84615 0.05845 0.0
H708 H 0.45545 0.84135 0.07221 0.0
C709 C 0.36 0.89953 0.05658 0.0
C710 C 0.39013 0.93218 0.05985 0.0
H711 H 0.34146 0.82155 0.05297 0.0
H712 H 0.33368 0.91501 0.05035 0.0
C713 C 0.42391 0.9108 0.06813 0.0
C714 C 0.88977 0.40408 0.072 0.0
C715 C 0.8908 0.43221 0.04487 0.0
H716 H 0.8948 0.32883 0.09242 0.0
C717 C 0.89969 0.4071 1.01775 0.0
H718 H 0.8831 0.42311 0.09317 0.0
C719 C 0.9076 0.3549 1.01749 0.0
C720 C 0.90594 0.32595 0.04426 0.0
H721 H 0.9009 0.4281 0.99657 0.0
H722 H 0.914 0.33688 0.99594 0.0
C723 C 0.89658 0.35065 0.07159 0.0
C724 C 0.39448 0.40961 0.27175 0.0
C725 C 0.4069 0.43326 0.24523 0.0
H726 H 0.37692 0.34084 0.29318 0.0
C727 C 0.41088 0.40376 0.2187 0.0
H728 H 0.39129 0.43152 0.29253 0.0
C729 C 0.40355 0.35046 0.21924 0.0
C730 C 0.39078 0.32716 0.24597 0.0
H731 H 0.42037 0.42155 0.19799 0.0
H732 H 0.40784 0.32758 0.19898 0.0
C733 C 0.38597 0.35759 0.27202 0.0
C734 C 0.86233 0.8582 0.23911 0.0
C735 C 0.89261 0.82535 0.23947 0.0
H736 H 0.84337 0.93624 0.23895 0.0
C737 C 0.92765 0.84653 0.23681 0.0
H738 H 0.83509 0.8427 0.24109 0.0
C739 C 0.9325 0.89997 0.23693 0.0
C740 C 0.90228 0.93285 0.23833 0.0
H741 H 0.95146 0.82194 0.23693 0.0
H742 H 0.95982 0.91556 0.23726 0.0
C743 C 0.86713 0.9116 0.23789 0.0
C744 C 0.64804 0.10089 0.02477 0.0
C745 C 0.65695 0.07536 0.99779 0.0
H746 H 0.63354 0.17144 0.04613 0.0
C747 C 0.65794 0.103 0.97049 0.0
H748 H 0.64682 0.08021 0.04606 0.0
C749 C 0.65099 0.15639 0.97057 0.0
C750 C 0.64155 0.1815 0.99774 0.0
H751 H 0.6646 0.08362 0.94943 0.0
H752 H 0.65268 0.17784 0.9496 0.0
C753 C 0.64001 0.15305 0.0247 0.0
C754 C 0.15632 0.65899 1.0184 0.0
C755 C 0.14374 0.68146 0.99158 0.0
H756 H 0.17297 0.59112 0.04116 0.0
C757 C 0.13845 0.65047 0.96583 0.0
H758 H 0.16001 0.68186 0.03874 0.0
C759 C 0.1447 0.59693 0.9675 0.0
C760 C 0.15752 0.57483 0.99459 0.0
H761 H 0.12846 0.66723 0.94498 0.0
H762 H 0.13926 0.57289 0.94791 0.0
C763 C 0.16383 0.60677 1.01974 0.0
C764 C 0.66269 0.65152 0.77026 0.0
C765 C 0.65937 0.68153 0.79662 0.0
H766 H 0.65636 0.57788 0.74968 0.0
C767 C 0.64815 0.65801 0.82374 0.0
H768 H 0.67048 0.66857 0.74883 0.0
C769 C 0.64092 0.60473 0.82434 0.0
C770 C 0.64346 0.57565 0.79754 0.0
H771 H 0.64501 0.68069 0.84422 0.0
H772 H 0.63261 0.58665 0.84531 0.0
C773 C 0.65431 0.59955 0.77064 0.0
C774 C 0.14344 0.15699 0.82194 0.0
C775 C 0.15654 0.18109 0.7956 0.0
H776 H 0.12639 0.08522 0.8422 0.0
C777 C 0.16167 0.15158 0.76922 0.0
H778 H 0.1389 0.1792 0.84242 0.0
C779 C 0.15319 0.0996 0.7688 0.0
C780 C 0.14045 0.07522 0.79494 0.0
H781 H 0.17099 0.16901 0.74832 0.0
H782 H 0.15667 0.0783 0.74784 0.0
C783 C 0.1361 0.10375 0.82179 0.0
C784 C 0.43298 0.35943 0.55343 0.0
C785 C 0.40298 0.32622 0.55253 0.0
H786 H 0.45139 0.43764 0.55343 0.0
C787 C 0.36769 0.34709 0.55373 0.0
H788 H 0.4604 0.34415 0.55256 0.0
C789 C 0.36247 0.40045 0.55275 0.0
C790 C 0.3925 0.43363 0.55196 0.0
H791 H 0.34409 0.3222 0.55316 0.0
H792 H 0.33508 0.41568 0.55141 0.0
C793 C 0.42776 0.4128 0.55385 0.0
C794 C 0.89972 0.91135 0.57496 0.0
C795 C 0.88761 0.93363 0.54771 0.0
H796 H 0.9157 0.84098 0.59753 0.0
C797 C 0.88252 0.902 0.52224 0.0
H798 H 0.90422 0.9352 0.5948 0.0
C799 C 0.89043 0.84986 0.52349 0.0
C800 C 0.90226 0.82717 0.5505 0.0
H801 H 0.87395 0.91788 0.50071 0.0
H802 H 0.88743 0.82715 0.503 0.0
C803 C 0.90637 0.85789 0.57652 0.0
C804 C 0.43304 0.89971 0.73436 0.0
C805 C 0.40288 0.93269 0.73578 0.0
H806 H 0.45179 0.82159 0.73388 0.0
C807 C 0.36768 0.91169 0.73446 0.0
H808 H 0.46038 0.91513 0.73531 0.0
C809 C 0.36272 0.85831 0.73503 0.0
C810 C 0.39291 0.8253 0.73561 0.0
H811 H 0.34397 0.93641 0.73548 0.0
H812 H 0.33541 0.84291 0.73654 0.0
C813 C 0.42805 0.84632 0.73358 0.0
C814 C 0.88954 0.35456 0.72007 0.0
C815 C 0.89286 0.3255 0.7467 0.0
H816 H 0.89269 0.43053 0.70039 0.0
C817 C 0.90415 0.34951 0.77351 0.0
H818 H 0.8809 0.33638 0.69916 0.0
C819 C 0.91218 0.40163 0.77396 0.0
C820 C 0.90803 0.43163 0.74777 0.0
H821 H 0.90683 0.3278 0.79433 0.0
H822 H 0.92034 0.41876 0.79532 0.0
C823 C 0.89642 0.40792 0.72075 0.0
C824 C 0.62385 0.59831 0.47485 0.0
C825 C 0.65753 0.5771 0.48357 0.0
H826 H 0.59226 0.66758 0.47006 0.0
C827 C 0.68751 0.60994 0.48712 0.0
H828 H 0.60018 0.57391 0.47209 0.0
C829 C 0.68309 0.66332 0.48491 0.0
C830 C 0.64856 0.68468 0.47962 0.0
H831 H 0.71376 0.59464 0.49371 0.0
H832 H 0.70587 0.68806 0.49054 0.0
C833 C 0.61929 0.65189 0.47331 0.0
C834 C 0.18241 0.10977 0.48785 0.0
C835 C 0.15226 0.0768 0.48829 0.0
H836 H 0.20112 0.18785 0.48841 0.0
C837 C 0.11709 0.09797 0.48669 0.0
H838 H 0.20975 0.09429 0.48901 0.0
C839 C 0.11207 0.15137 0.48786 0.0
C840 C 0.14222 0.18428 0.48915 0.0
H841 H 0.09338 0.07328 0.48681 0.0
H842 H 0.08473 0.16684 0.48897 0.0
C843 C 0.17741 0.16318 0.48758 0.0
C844 C 0.65964 0.15101 0.26907 0.0
C845 C 0.65516 0.18125 0.29524 0.0
H846 H 0.65416 0.07717 0.24843 0.0
C847 C 0.64267 0.15774 0.322 0.0
H848 H 0.66848 0.16793 0.24789 0.0
C849 C 0.63534 0.10443 0.32246 0.0
C850 C 0.63902 0.0751 0.29583 0.0
H851 H 0.63864 0.18047 0.34235 0.0
H852 H 0.62611 0.0865 0.34321 0.0
C853 C 0.65114 0.09896 0.26927 0.0
C854 C 0.18409 0.65009 0.3023 0.0
C855 C 0.15388 0.68308 0.30216 0.0
H856 H 0.20288 0.57197 0.30226 0.0
C857 C 0.11881 0.66201 0.30492 0.0
H858 H 0.21134 0.66549 0.30023 0.0
C859 C 0.11385 0.60859 0.30473 0.0
C860 C 0.14398 0.57559 0.30317 0.0
H861 H 0.09505 0.6867 0.30496 0.0
H862 H 0.0865 0.5931 0.30452 0.0
C863 C 0.17919 0.5967 0.30346 0.0
C864 C 0.36356 0.14813 0.90634 0.0
C865 C 0.39114 0.14244 0.92808 0.0
H866 H 0.34992 0.14844 0.85894 0.0
C867 C 0.42753 0.14173 0.91776 0.0
H868 H 0.33532 0.14756 0.91325 0.0
C869 C 0.43603 0.14339 0.8866 0.0
C870 C 0.40831 0.14473 0.86476 0.0
H871 H 0.44947 0.13652 0.93383 0.0
H872 H 0.46408 0.13889 0.8796 0.0
C873 C 0.37204 0.1486 0.87513 0.0
C874 C 0.9253 0.10025 0.87317 0.0
C875 C 0.88883 0.10249 0.86311 0.0
H876 H 0.96236 0.10231 0.91098 0.0
C877 C 0.86133 0.1004 0.88516 0.0
H878 H 0.94723 0.10292 0.85685 0.0
C879 C 0.87013 0.10087 0.91628 0.0
C880 C 0.90662 0.10246 0.92634 0.0
H881 H 0.8331 0.10351 0.87847 0.0
H882 H 0.84822 0.104 0.9326 0.0
C883 C 0.93409 0.09973 0.90429 0.0
C884 C 0.37125 0.10646 0.41749 0.0
C885 C 0.40783 0.10746 0.42732 0.0
H886 H 0.33397 0.10837 0.37986 0.0
C887 C 0.4351 0.1028 0.40521 0.0
H888 H 0.34952 0.11097 0.43387 0.0
C889 C 0.42607 0.10199 0.37413 0.0
C890 C 0.38955 0.10478 0.36424 0.0
H891 H 0.46344 0.10476 0.41173 0.0
H892 H 0.44789 0.10327 0.35766 0.0
C893 C 0.36221 0.10468 0.38645 0.0
C894 C 0.87079 0.154 0.37339 0.0
C895 C 0.90733 0.15174 0.36345 0.0
H896 H 0.83351 0.15302 0.41109 0.0
C897 C 0.93467 0.15448 0.38559 0.0
H898 H 0.84897 0.15083 0.35702 0.0
C899 C 0.92568 0.15493 0.4167 0.0
C900 C 0.88914 0.15369 0.42667 0.0
H901 H 0.96296 0.15138 0.37901 0.0
H902 H 0.94749 0.15236 0.43311 0.0
C903 C 0.86181 0.15547 0.40449 0.0
C904 C 0.61438 0.84745 0.155 0.0
C905 C 0.64124 0.85443 0.17725 0.0
H906 H 0.60202 0.8462 0.10735 0.0
C907 C 0.67789 0.85579 0.16755 0.0
H908 H 0.58595 0.84751 0.16136 0.0
C909 C 0.68726 0.85401 0.13655 0.0
C910 C 0.66019 0.85164 0.11417 0.0
H911 H 0.69932 0.86199 0.18398 0.0
H912 H 0.71539 0.85954 0.13008 0.0
C913 C 0.62372 0.84666 0.12393 0.0
C914 C 0.18675 0.89772 0.15321 0.0
C915 C 0.15896 0.89786 0.17503 0.0
H916 H 0.20037 0.89246 0.10591 0.0
C917 C 0.12269 0.90142 0.16466 0.0
H918 H 0.21482 0.89354 0.16018 0.0
C919 C 0.1143 0.90171 0.13344 0.0
C920 C 0.14197 0.89713 0.11165 0.0
H921 H 0.10052 0.90041 0.18082 0.0
H922 H 0.08608 0.90077 0.12651 0.0
C923 C 0.17834 0.89685 0.12201 0.0
C924 C 0.60871 0.8919 0.6364 0.0
C925 C 0.6345 0.8993 0.61338 0.0
H926 H 0.59834 0.88308 0.68384 0.0
C927 C 0.67066 0.91012 0.62226 0.0
H928 H 0.58091 0.88234 0.63056 0.0
C929 C 0.68102 0.91002 0.65327 0.0
C930 C 0.65539 0.89908 0.67612 0.0
H931 H 0.69152 0.91445 0.60513 0.0
H932 H 0.70946 0.91411 0.65907 0.0
C933 C 0.61887 0.89224 0.66709 0.0
C934 C 0.12016 0.8564 0.62264 0.0
C935 C 0.15675 0.8577 0.61281 0.0
H936 H 0.08279 0.85792 0.66028 0.0
C937 C 0.18399 0.85346 0.63494 0.0
H938 H 0.09843 0.86063 0.60628 0.0
C939 C 0.1749 0.85264 0.66603 0.0
C940 C 0.13835 0.85498 0.67593 0.0
H941 H 0.21234 0.85572 0.62844 0.0
H942 H 0.19669 0.85416 0.68251 0.0
C943 C 0.11106 0.85457 0.6537 0.0
C944 C 0.43208 0.65716 0.38667 0.0
C945 C 0.40511 0.65238 0.36433 0.0
H946 H 0.44446 0.65571 0.4343 0.0
C947 C 0.36844 0.65186 0.37402 0.0
H948 H 0.46051 0.65629 0.3803 0.0
C949 C 0.3591 0.65246 0.40505 0.0
C950 C 0.38622 0.65271 0.42743 0.0
H951 H 0.34691 0.64721 0.3575 0.0
H952 H 0.33087 0.6478 0.41145 0.0
C953 C 0.42277 0.65676 0.41773 0.0
C954 C 0.86742 0.61268 0.4198 0.0
C955 C 0.90377 0.61184 0.43024 0.0
H956 H 0.83105 0.61624 0.38157 0.0
C957 C 0.93143 0.6066 0.40847 0.0
H958 H 0.84539 0.61754 0.43585 0.0
C959 C 0.9231 0.60672 0.37723 0.0
C960 C 0.88687 0.61074 0.36677 0.0
H961 H 0.95965 0.60708 0.41544 0.0
H962 H 0.9453 0.60721 0.3611 0.0
C963 C 0.85907 0.61163 0.38858 0.0
C964 C 0.36641 0.6011 0.88752 0.0
C965 C 0.39185 0.61535 0.86515 0.0
H966 H 0.35561 0.59298 0.93545 0.0
C967 C 0.42797 0.62425 0.87462 0.0
H968 H 0.33825 0.59505 0.88136 0.0
C969 C 0.43779 0.62337 0.90534 0.0
C970 C 0.41208 0.61273 0.92797 0.0
H971 H 0.44838 0.6356 0.85824 0.0
H972 H 0.46518 0.63444 0.91158 0.0
C973 C 0.37644 0.59987 0.9186 0.0
C974 C 0.8705 0.65838 0.8754 0.0
C975 C 0.90706 0.65643 0.8655 0.0
H976 H 0.83315 0.65579 0.91302 0.0
C977 C 0.93437 0.65863 0.88769 0.0
H978 H 0.84872 0.65559 0.85897 0.0
C979 C 0.92531 0.65795 0.91877 0.0
C980 C 0.88875 0.65602 0.92864 0.0
H981 H 0.96267 0.65572 0.88113 0.0
H982 H 0.9471 0.65484 0.93517 0.0
C983 C 0.86145 0.65866 0.90648 0.0
C984 C 0.61048 0.36335 0.65571 0.0
C985 C 0.63804 0.35908 0.67756 0.0
H986 H 0.5974 0.37376 0.60866 0.0
C987 C 0.67422 0.35376 0.66715 0.0
H988 H 0.58257 0.36917 0.66275 0.0
C989 C 0.68282 0.35567 0.63597 0.0
C990 C 0.65552 0.36435 0.61432 0.0
H991 H 0.69627 0.35182 0.68336 0.0
H992 H 0.71109 0.35499 0.62911 0.0
C993 C 0.61914 0.3664 0.62462 0.0
C994 C 0.18483 0.40382 0.65641 0.0
C995 C 0.15749 0.40432 0.67862 0.0
H996 H 0.19752 0.39728 0.609 0.0
C997 C 0.121 0.40773 0.66869 0.0
H998 H 0.21303 0.39961 0.66302 0.0
C999 C 0.11199 0.40708 0.6376 0.0
C1000 C 0.13923 0.40188 0.61549 0.0
H1001 H 0.09916 0.40687 0.68515 0.0
H1002 H 0.08363 0.40568 0.63107 0.0
C1003 C 0.1758 0.40217 0.62535 0.0
C1004 C 0.62037 0.40785 0.16808 0.0
C1005 C 0.65687 0.40593 0.17808 0.0
H1006 H 0.58325 0.40527 0.13032 0.0
C1007 C 0.68431 0.40826 0.156 0.0
H1008 H 0.59849 0.40497 0.18442 0.0
C1009 C 0.67546 0.40766 0.12489 0.0
C1010 C 0.63895 0.40566 0.11489 0.0
H1011 H 0.71258 0.4054 0.16265 0.0
H1012 H 0.69735 0.40466 0.10855 0.0
C1013 C 0.61151 0.40819 0.13697 0.0
C1014 C 0.1744 0.35437 0.16806 0.0
C1015 C 0.13802 0.35612 0.17842 0.0
H1016 H 0.211 0.35555 0.12991 0.0
C1017 C 0.11031 0.35255 0.15665 0.0
H1018 H 0.19648 0.35811 0.18415 0.0
C1019 C 0.11875 0.35191 0.12544 0.0
C1020 C 0.1551 0.35374 0.11503 0.0
H1021 H 0.08211 0.35517 0.16357 0.0
H1022 H 0.09663 0.35386 0.10929 0.0
C1023 C 0.18284 0.35267 0.13687 0.0
C1024 C 0.52802 0.94769 0.02093 0.0
C1025 C 0.55775 0.97627 0.03176 0.0
H1026 H 0.47325 0.94928 1.0053 0.0
C1027 C 0.55454 0.02984 0.03546 0.0
H1028 H 0.52997 0.90628 1.01769 0.0
C1029 C 0.5224 0.05463 0.02764 0.0
C1030 C 0.49285 0.02614 1.01635 0.0
H1031 H 0.57723 0.05292 0.04323 0.0
H1032 H 0.5205 0.09605 0.03079 0.0
C1033 C 0.49591 0.97244 1.01311 0.0
C1034 C 0.80288 0.28235 1.01065 0.0
C1035 C 0.80539 0.22847 1.01286 0.0
H1036 H 0.76958 0.3491 1.0169 0.0
C1037 C 0.77546 0.20022 0.02363 0.0
H1038 H 0.82584 0.30526 1.00327 0.0
C1039 C 0.7436 0.22538 0.03218 0.0
C1040 C 0.74106 0.27925 0.02992 0.0
H1041 H 0.77692 0.15863 0.02594 0.0
H1042 H 0.72064 0.20247 0.03955 0.0
C1043 C 0.77104 0.30751 1.01922 0.0
C1044 C 0.4933 0.28325 0.28108 0.0
C1045 C 0.49096 0.22934 0.27894 0.0
H1046 H 0.52654 0.34994 0.27504 0.0
C1047 C 0.52106 0.20091 0.26854 0.0
H1048 H 0.47018 0.30626 0.28818 0.0
C1049 C 0.55293 0.22596 0.26024 0.0
C1050 C 0.55528 0.27987 0.26242 0.0
H1051 H 0.51971 0.15928 0.2663 0.0
H1052 H 0.57605 0.20295 0.25315 0.0
C1053 C 0.52517 0.30831 0.27278 0.0
C1054 C 0.76763 0.95359 0.28007 0.0
C1055 C 0.73894 0.97942 0.2655 0.0
H1056 H 0.82132 0.95835 0.29796 0.0
C1057 C 0.74273 0.03173 0.25816 0.0
H1058 H 0.76534 0.91327 0.28626 0.0
C1059 C 0.77455 0.05783 0.26544 0.0
C1060 C 0.80337 0.03186 0.27979 0.0
H1061 H 0.72091 0.05287 0.24739 0.0
H1062 H 0.77693 0.09806 0.2591 0.0
C1063 C 0.7994 0.97968 0.2874 0.0
C1064 C 0.26912 0.80486 1.00112 0.0
C1065 C 0.24148 0.7773 1.01617 0.0
H1066 H 0.32305 0.80295 0.983 0.0
C1067 C 0.24539 0.72396 1.02019 0.0
H1068 H 0.26666 0.846 0.99721 0.0
C1069 C 0.27693 0.69913 1.01059 0.0
C1070 C 0.30545 0.72744 0.9976 0.0
H1071 H 0.22454 0.70151 0.03123 0.0
H1072 H 0.28064 0.65875 1.01624 0.0
C1073 C 0.30079 0.78003 0.99179 0.0
C1074 C 0.55432 0.72395 0.75911 0.0
C1075 C 0.55777 0.77749 0.7628 0.0
H1076 H 0.51972 0.65827 0.76341 0.0
C1077 C 0.52841 0.80616 0.77441 0.0
H1078 H 0.57684 0.70071 0.75103 0.0
C1079 C 0.49631 0.78174 0.78255 0.0
C1080 C 0.49261 0.72834 0.7785 0.0
H1081 H 0.53052 0.8475 0.77782 0.0
H1082 H 0.47398 0.80511 0.79087 0.0
C1083 C 0.52199 0.69956 0.76695 0.0
C1084 C 0.29969 0.97704 0.78473 0.0
C1085 C 0.30366 0.02951 0.77779 0.0
H1086 H 0.26566 0.91066 0.7827 0.0
C1087 C 0.27506 0.05581 0.76337 0.0
H1088 H 0.32148 0.95543 0.79528 0.0
C1089 C 0.24335 0.02989 0.75556 0.0
C1090 C 0.23943 0.97742 0.76247 0.0
H1091 H 0.27748 0.09623 0.75746 0.0
H1092 H 0.22166 0.05134 0.74485 0.0
C1093 C 0.26803 0.95113 0.77688 0.0
C1094 C 0.52588 0.4554 0.51315 0.0
C1095 C 0.55491 0.48319 0.52587 0.0
H1096 H 0.47188 0.45793 0.49589 0.0
C1097 C 0.55176 0.53671 0.52998 0.0
H1098 H 0.52783 0.41415 0.5093 0.0
C1099 C 0.51995 0.56191 0.52178 0.0
C1100 C 0.49065 0.53392 0.50965 0.0
H1101 H 0.57409 0.55938 0.53886 0.0
H1102 H 0.51784 0.60309 0.52584 0.0
C1103 C 0.49418 0.48065 0.50478 0.0
C1104 C 0.77679 0.7033 0.54144 0.0
C1105 C 0.80461 0.7311 0.52679 0.0
H1106 H 0.72275 0.70513 0.55938 0.0
C1107 C 0.80102 0.78461 0.52352 0.0
H1108 H 0.77904 0.662 0.54482 0.0
C1109 C 0.7696 0.80942 0.53336 0.0
C1110 C 0.7408 0.78101 0.54586 0.0
H1111 H 0.82206 0.80726 0.51287 0.0
H1112 H 0.76618 0.84994 0.52812 0.0
C1113 C 0.74518 0.72814 0.551 0.0
C1114 C 0.80304 0.47677 0.78488 0.0
C1115 C 0.80634 0.52996 0.77979 0.0
H1116 H 0.76901 0.41031 0.78181 0.0
C1117 C 0.77706 0.55717 0.76701 0.0
H1118 H 0.82549 0.45451 0.7939 0.0
C1119 C 0.74517 0.53165 0.75922 0.0
C1120 C 0.74169 0.47858 0.76456 0.0
H1121 H 0.77907 0.59815 0.76244 0.0
H1122 H 0.72296 0.55386 0.74986 0.0
C1123 C 0.77104 0.45129 0.77725 0.0
C1124 C 0.27644 0.20279 0.5275 0.0
C1125 C 0.3047 0.22834 0.51222 0.0
H1126 H 0.22378 0.20839 0.54734 0.0
C1127 C 0.30082 0.2807 0.50496 0.0
H1128 H 0.27874 0.16242 0.53358 0.0
C1129 C 0.26964 0.30731 0.51348 0.0
C1130 C 0.24144 0.28179 0.52887 0.0
H1131 H 0.32237 0.30171 0.49371 0.0
H1132 H 0.2673 0.34768 0.5074 0.0
C1133 C 0.2453 0.22941 0.53606 0.0
C1134 C 0.27141 0.45041 0.27626 0.0
C1135 C 0.24263 0.47615 0.26173 0.0
H1136 H 0.32498 0.45564 0.29439 0.0
C1137 C 0.24667 0.52816 0.25374 0.0
H1138 H 0.26898 0.41032 0.2829 0.0
C1139 C 0.27846 0.55433 0.2609 0.0
C1140 C 0.30709 0.52874 0.27571 0.0
H1141 H 0.22479 0.54931 0.243 0.0
H1142 H 0.2808 0.59451 0.25443 0.0
C1143 C 0.30323 0.47659 0.28341 0.0
C1144 C 0.02405 0.95063 0.51682 0.0
C1145 C 0.05339 0.97803 0.52942 0.0
H1146 H 0.9698 0.95405 0.49977 0.0
C1147 C 0.0501 0.03124 0.53454 0.0
H1148 H 0.02598 0.90951 0.51249 0.0
C1149 C 1.01857 0.05694 0.52619 0.0
C1150 C 0.98933 0.0297 0.51335 0.0
H1151 H 0.07241 0.05357 0.54374 0.0
H1152 H 1.01681 0.09813 0.53035 0.0
C1153 C 0.99229 0.97628 0.50878 0.0
C1154 C 0.02645 0.30534 0.77618 0.0
C1155 C 0.05586 0.27829 0.76335 0.0
H1156 H 0.97238 0.30175 0.79334 0.0
C1157 C 0.05272 0.22507 0.75808 0.0
H1158 H 0.0283 0.34634 0.78088 0.0
C1159 C 1.02073 0.19942 0.76557 0.0
C1160 C 0.99132 0.22655 0.77838 0.0
H1161 H 0.07525 0.20294 0.74899 0.0
H1162 H 1.01877 0.15844 0.76083 0.0
C1163 C 0.99466 0.27964 0.78391 0.0
C1164 C 1.02018 0.70115 0.26572 0.0
C1165 C 0.99169 0.72797 0.28007 0.0
H1166 H 0.07298 0.7052 0.246 0.0
C1167 C 0.99515 0.78107 0.28554 0.0
H1168 H 1.01814 0.66018 0.26098 0.0
C1169 C 0.02618 0.80706 0.27625 0.0
C1170 C 0.05467 0.78024 0.2619 0.0
H1171 H 0.97338 0.80302 0.29596 0.0
H1172 H 0.02822 0.84803 0.28098 0.0
C1173 C 0.05121 0.72715 0.25642 0.0
C1174 C 1.01979 0.55718 0.02362 0.0
C1175 C 0.99004 0.5295 1.01197 0.0
H1176 H 0.07437 0.55412 0.03984 0.0
C1177 C 0.99291 0.47601 1.00775 0.0
H1178 H 1.01813 0.5985 0.02731 0.0
C1179 C 0.02472 0.45045 1.01571 0.0
C1180 C 0.05432 0.47805 0.02766 0.0
H1181 H 0.97025 0.45357 0.99932 0.0
H1182 H 0.02637 0.40912 1.01206 0.0
C1183 C 0.05162 0.53164 0.03153 0.0
C1184 C 0.33345 0.17715 0.16054 0.0
C1185 C 0.33574 0.13166 0.17821 0.0
H1186 H 0.33632 0.2105 0.11604 0.0
C1187 C 0.33232 0.08405 0.16344 0.0
H1188 H 0.33551 0.21469 0.17129 0.0
C1189 C 0.33197 0.08193 0.13165 0.0
C1190 C 0.33551 0.12723 0.11398 0.0
H1191 H 0.33394 0.04841 0.17614 0.0
H1192 H 0.33306 0.04432 0.12087 0.0
C1193 C 0.33357 0.17501 0.12875 0.0
C1194 C 0.96068 0.08003 0.1592 0.0
C1195 C 0.95858 0.12567 0.17689 0.0
H1196 H 0.9588 0.04636 0.11464 0.0
C1197 C 0.96264 0.17311 0.1622 0.0
H1198 H 0.95805 0.04261 0.16989 0.0
C1199 C 0.9637 0.17499 0.1304 0.0
C1200 C 0.96038 0.1296 0.11261 0.0
H1201 H 0.96112 0.20886 0.17492 0.0
H1202 H 0.9633 0.21254 0.11965 0.0
C1203 C 0.96142 0.08192 0.12741 0.0
C1204 C 0.7165 0.83392 0.88014 0.0
C1205 C 0.71251 0.87941 0.86262 0.0
H1206 H 0.71486 0.79945 0.92444 0.0
C1207 C 0.71313 0.9269 0.87781 0.0
H1208 H 0.71639 0.79648 0.86913 0.0
C1209 C 0.71288 0.9284 0.90967 0.0
C1210 C 0.71153 0.88255 0.92715 0.0
H1211 H 0.70994 0.96254 0.86533 0.0
H1212 H 0.71012 0.96569 0.92062 0.0
C1213 C 0.7158 0.83539 0.912 0.0
C1214 C 0.07793 0.83265 0.90861 0.0
C1215 C 0.08178 0.87812 0.92628 0.0
H1216 H 0.07998 0.79848 0.86415 0.0
C1217 C 0.08017 0.9257 0.91144 0.0
H1218 H 0.07868 0.79515 0.91941 0.0
C1219 C 0.0801 0.9274 0.87963 0.0
C1220 C 0.08228 0.88165 0.86197 0.0
H1221 H 0.08311 0.96133 0.9241 0.0
H1222 H 0.0824 0.96479 0.86887 0.0
C1223 C 0.07848 0.83431 0.87679 0.0
C1224 C 0.33498 0.58187 0.66382 0.0
C1225 C 0.33598 0.62953 0.67881 0.0
H1226 H 0.33775 0.54265 0.62114 0.0
C1227 C 0.332 0.67488 0.66123 0.0
H1228 H 0.33819 0.54635 0.67642 0.0
C1229 C 0.33246 0.67307 0.62939 0.0
C1230 C 0.33655 0.62571 0.61442 0.0
H1231 H 0.33247 0.71241 0.67213 0.0
H1232 H 0.33353 0.70887 0.61682 0.0
C1233 C 0.33507 0.58003 0.63199 0.0
C1234 C 0.9652 0.58147 0.63027 0.0
C1235 C 0.96462 0.62922 0.61557 0.0
H1236 H 0.96177 0.54207 0.67268 0.0
C1237 C 0.96904 0.67439 0.63339 0.0
H1238 H 0.96177 0.54607 0.61747 0.0
C1239 C 0.96807 0.67247 0.66519 0.0
C1240 C 0.96325 0.62513 0.67983 0.0
H1241 H 0.96905 0.71199 0.62269 0.0
H1242 H 0.96713 0.70823 0.67794 0.0
C1243 C 0.96481 0.57948 0.66206 0.0
C1244 C 0.7142 0.42382 0.3788 0.0
C1245 C 0.71006 0.37623 0.36412 0.0
H1246 H 0.71446 0.46379 0.42131 0.0
C1247 C 0.7119 0.33079 0.38188 0.0
H1248 H 0.71295 0.45943 0.36605 0.0
C1249 C 0.71224 0.3331 0.41368 0.0
C1250 C 0.71116 0.38098 0.42839 0.0
H1251 H 0.7093 0.29324 0.37122 0.0
H1252 H 0.70924 0.29775 0.42647 0.0
C1253 C 0.71495 0.4261 0.4106 0.0
C1254 C 0.08247 0.33355 0.41153 0.0
C1255 C 0.08584 0.37894 0.42929 0.0
H1256 H 0.08497 0.29967 0.36703 0.0
C1257 C 0.08473 0.42662 0.41451 0.0
H1258 H 0.08299 0.29602 0.4223 0.0
C1259 C 0.08539 0.42852 0.38272 0.0
C1260 C 0.08749 0.38287 0.36504 0.0
H1261 H 0.08741 0.46218 0.42728 0.0
H1262 H 0.08801 0.46594 0.37202 0.0
C1263 C 0.08345 0.33543 0.37974 0.0
C1264 C 0.83268 0.17797 0.62812 0.0
C1265 C 0.83418 0.13056 0.61291 0.0
H1266 H 0.83499 0.21654 0.671 0.0
C1267 C 0.83042 0.08486 0.63023 0.0
H1268 H 0.83554 0.21374 0.61572 0.0
C1269 C 0.83091 0.08616 0.66205 0.0
C1270 C 0.83466 0.13333 0.67724 0.0
H1271 H 0.83106 0.0475 0.61913 0.0
H1272 H 0.8323 0.05018 0.67442 0.0
C1273 C 0.83266 0.17929 0.65994 0.0
C1274 C 0.46265 0.08472 0.62816 0.0
C1275 C 0.45934 0.13241 0.61361 0.0
H1276 H 0.46188 0.04483 0.67056 0.0
C1277 C 0.46155 0.17781 0.63149 0.0
H1278 H 0.461 0.04914 0.61529 0.0
C1279 C 0.46153 0.17555 0.66328 0.0
C1280 C 0.45964 0.12773 0.67784 0.0
H1281 H 0.45946 0.21539 0.6209 0.0
H1282 H 0.45893 0.21101 0.67616 0.0
C1283 C 0.46296 0.08247 0.65995 0.0
C1284 C 0.21062 0.92616 0.37685 0.0
C1285 C 0.20912 0.87831 0.3621 0.0
H1286 H 0.20794 0.96605 0.41933 0.0
C1287 C 0.21233 0.8331 0.37989 0.0
H1288 H 0.20808 0.96158 0.36406 0.0
C1289 C 0.21167 0.83539 0.4117 0.0
C1290 C 0.20808 0.88308 0.4264 0.0
H1291 H 0.21153 0.79543 0.36917 0.0
H1292 H 0.21006 0.79982 0.42445 0.0
C1293 C 0.21025 0.92847 0.40865 0.0
C1294 C 0.57674 0.91495 0.41253 0.0
C1295 C 0.59123 0.87216 0.42766 0.0
H1296 H 0.56619 0.95003 0.36944 0.0
C1297 C 0.59873 0.82713 0.41066 0.0
H1298 H 0.57126 0.95037 0.42481 0.0
C1299 C 0.59543 0.82654 0.37895 0.0
C1300 C 0.58506 0.87134 0.36345 0.0
H1301 H 0.6102 0.79357 0.42168 0.0
H1302 H 0.60509 0.79313 0.3665 0.0
C1303 C 0.57376 0.91454 0.38074 0.0
C1304 C 0.83426 0.67511 0.13005 0.0
C1305 C 0.83653 0.62748 0.11511 0.0
H1306 H 0.83604 0.7146 0.1727 0.0
C1307 C 0.83387 0.58201 0.13277 0.0
H1308 H 0.83631 0.71075 0.1174 0.0
C1309 C 0.83427 0.58398 0.1646 0.0
C1310 C 0.83699 0.63158 0.17949 0.0
H1311 H 0.83517 0.54446 0.12194 0.0
H1312 H 0.83633 0.54832 0.17723 0.0
C1313 C 0.83433 0.67708 0.16187 0.0
C1314 C 0.45405 0.68122 0.1625 0.0
C1315 C 0.46221 0.63566 0.17815 0.0
H1316 H 0.44142 0.71517 0.11956 0.0
C1317 C 0.47224 0.59164 0.16099 0.0
H1318 H 0.44549 0.71537 0.17481 0.0
C1319 C 0.46974 0.59132 0.12918 0.0
C1320 C 0.45724 0.63512 0.11384 0.0
H1321 H 0.47823 0.55564 0.17239 0.0
H1322 H 0.47382 0.55539 0.11702 0.0
C1323 C 0.45142 0.68081 0.13073 0.0
C1324 C 0.21456 0.42457 0.91163 0.0
C1325 C 0.21121 0.37895 0.92906 0.0
H1326 H 0.21239 0.45886 0.86735 0.0
C1327 C 0.21312 0.33144 0.91399 0.0
H1328 H 0.21358 0.46201 0.92262 0.0
C1329 C 0.21312 0.32986 0.88218 0.0
C1330 C 0.21073 0.37564 0.86478 0.0
H1331 H 0.21058 0.29572 0.92649 0.0
H1332 H 0.21112 0.29248 0.87122 0.0
C1333 C 0.21409 0.423 0.87982 0.0
C1334 C 0.58425 0.33015 0.91104 0.0
C1335 C 0.5863 0.3758 0.92873 0.0
H1336 H 0.58686 0.29643 0.8665 0.0
C1337 C 0.58263 0.42326 0.91399 0.0
H1338 H 0.58653 0.29271 0.92176 0.0
C1339 C 0.58211 0.42511 0.88219 0.0
C1340 C 0.58565 0.37968 0.86447 0.0
H1341 H 0.58408 0.45902 0.92671 0.0
H1342 H 0.58283 0.46265 0.87144 0.0
C1343 C 0.58413 0.33202 0.87924 0.0
C1344 C 0.231 0.97478 0.97757 0.0
C1345 C 0.2032 0.98037 0.9995 0.0
H1346 H 0.28386 0.99665 0.9614 0.0
C1347 C 0.20947 0.0181 0.02228 0.0
H1348 H 0.22818 0.94641 0.95967 0.0
C1349 C 0.24217 0.04803 0.02315 0.0
C1350 C 0.27027 0.04118 1.00147 0.0
H1351 H 0.18939 0.02386 0.03991 0.0
H1352 H 0.2459 0.07542 0.04145 0.0
C1353 C 0.2635 1.00403 0.9786 0.0
C1354 C 0.06544 0.27918 0.97784 0.0
C1355 C 0.09233 0.27417 1.00057 0.0
H1356 H 1.01384 0.25545 0.95978 0.0
C1357 C 0.08594 0.23565 0.02267 0.0
H1358 H 0.06847 0.30806 0.96034 0.0
C1359 C 0.05387 0.20449 0.02221 0.0
C1360 C 0.02667 0.21069 0.99974 0.0
H1361 H 0.10533 0.23029 0.04082 0.0
H1362 H 0.04991 0.17652 0.04007 0.0
C1363 C 0.03359 0.24854 0.97749 0.0
C1364 C 0.24257 0.20609 0.26802 0.0
C1365 C 0.26954 0.21137 0.2908 0.0
H1366 H 0.19121 0.23273 0.24951 0.0
C1367 C 0.26226 0.24814 0.31371 0.0
H1368 H 0.24683 0.17897 0.24965 0.0
C1369 C 0.23036 0.27867 0.31371 0.0
C1370 C 0.20372 0.27474 0.29069 0.0
H1371 H 0.28177 0.25428 0.33171 0.0
H1372 H 0.22712 0.30668 0.33176 0.0
C1373 C 0.2104 0.23723 0.2679 0.0
C1374 C 0.05325 0.05048 0.26497 0.0
C1375 C 0.02641 0.04494 0.28786 0.0
H1376 H 0.10476 0.02448 0.24623 0.0
C1377 C 0.03414 0.00853 0.31072 0.0
H1378 H 0.04866 0.07733 0.24662 0.0
C1379 C 0.06631 0.97861 0.31061 0.0
C1380 C 0.09283 0.98271 0.28748 0.0
H1381 H 1.01478 1.00223 0.32882 0.0
H1382 H 0.06986 0.95089 0.32867 0.0
C1383 C 0.0857 0.01985 0.26471 0.0
C1384 C 0.80591 0.95475 1.01766 0.0
C1385 C 0.77905 0.9598 0.04052 0.0
H1386 H 0.85687 0.98206 0.99891 0.0
C1387 C 0.78606 0.9968 0.06337 0.0
H1388 H 0.80183 0.92747 0.99936 0.0
C1389 C 0.81761 0.02793 0.06317 0.0
C1390 C 0.84409 0.0242 0.04003 0.0
H1391 H 0.76656 1.00273 0.08144 0.0
H1392 H 0.82072 0.05618 0.08111 0.0
C1393 C 0.83772 0.98638 1.01738 0.0
C1394 C 1.01465 0.7543 0.06169 0.0
C1395 C 1.02067 0.79305 0.03978 0.0
H1396 H 0.98008 0.69487 0.07944 0.0
C1397 C 0.99216 0.80084 1.01862 0.0
H1398 H 0.03538 0.74613 0.0784 0.0
C1399 C 0.9597 0.77045 1.01908 0.0
C1400 C 0.95413 0.73115 0.04088 0.0
H1401 H 0.99531 0.82956 1.00106 0.0
H1402 H 0.93926 0.77713 1.0019 0.0
C1403 C 0.98238 0.72446 0.06229 0.0
C1404 C 0.81801 0.72807 0.72827 0.0
C1405 C 0.84469 0.73301 0.75116 0.0
H1406 H 0.7666 0.75188 0.70999 0.0
C1407 C 0.83817 0.77171 0.77331 0.0
H1408 H 0.82114 0.69911 0.71072 0.0
C1409 C 0.80611 0.80301 0.77276 0.0
C1410 C 0.77907 0.79676 0.75015 0.0
H1411 H 0.85743 0.77702 0.79158 0.0
H1412 H 0.80198 0.83101 0.79069 0.0
C1413 C 0.7862 0.75883 0.72783 0.0
C1414 C 0.95842 0.98647 0.77167 0.0
C1415 C 0.95221 0.02473 0.74937 0.0
H1416 H 0.99438 0.92755 0.78953 0.0
C1417 C 0.97925 0.02938 0.72673 0.0
H1418 H 0.93889 0.98141 0.78977 0.0
C1419 C 1.0111 0.99871 0.72668 0.0
C1420 C 1.01789 0.96119 0.74915 0.0
H1421 H 0.97634 0.05803 0.70909 0.0
H1422 H 0.03097 0.00537 0.70902 0.0
C1423 C 0.99051 0.95525 0.77151 0.0
C1424 C 0.25997 0.51086 0.47956 0.0
C1425 C 0.26788 0.54661 0.50283 0.0
H1426 H 0.22419 0.45352 0.46132 0.0
C1427 C 0.24143 0.55166 0.52604 0.0
H1428 H 0.27909 0.50508 0.4612 0.0
C1429 C 0.20914 0.52098 0.52627 0.0
C1430 C 0.2019 0.48434 0.50316 0.0
H1431 H 0.24625 0.57805 0.54467 0.0
H1432 H 0.19035 0.52504 0.54501 0.0
C1433 C 0.22795 0.48085 0.47966 0.0
C1434 C 0.0636 0.78326 0.47947 0.0
C1435 C 0.09145 0.77749 0.50136 0.0
H1436 H 1.01099 0.76084 0.46292 0.0
C1437 C 0.08563 0.73896 0.52354 0.0
H1438 H 0.06614 0.81222 0.46197 0.0
C1439 C 0.05325 0.70843 0.5239 0.0
C1440 C 0.02513 0.71542 0.50228 0.0
H1441 H 0.10576 0.73303 0.54107 0.0
H1442 H 0.0498 0.6803 0.54176 0.0
C1443 C 0.03143 0.75337 0.48 0.0
C1444 C 0.26177 0.75341 0.81194 0.0
C1445 C 0.26915 0.71544 0.78971 0.0
H1446 H 0.22603 0.81178 0.82943 0.0
C1447 C 0.24169 0.70778 0.76758 0.0
H1448 H 0.28163 0.76138 0.82944 0.0
C1449 C 0.20899 0.73782 0.76741 0.0
C1450 C 0.20217 0.77647 0.78953 0.0
H1451 H 0.24596 0.67969 0.74972 0.0
H1452 H 0.18941 0.73148 0.74949 0.0
C1453 C 0.22932 0.78277 0.81194 0.0
C1454 C 0.08697 0.52115 0.77038 0.0
C1455 C 0.09295 0.48237 0.79242 0.0
H1456 H 0.0514 0.58083 0.75285 0.0
C1457 C 0.06575 0.47751 0.81493 0.0
H1458 H 0.10661 0.52643 0.75238 0.0
C1459 C 0.03404 0.50855 0.81514 0.0
C1460 C 0.02753 0.54667 0.79294 0.0
H1461 H 0.06845 0.44846 0.83237 0.0
H1462 H 1.01406 0.50174 0.83269 0.0
C1463 C 0.05502 0.55269 0.77068 0.0
C1464 C 0.80464 0.46039 0.51935 0.0
C1465 C 0.77685 0.46686 0.54131 0.0
H1466 H 0.85708 0.48509 0.50224 0.0
C1467 C 0.78373 0.50366 0.56432 0.0
H1468 H 0.80074 0.43324 0.50096 0.0
C1469 C 0.81611 0.53308 0.5652 0.0
C1470 C 0.84357 0.52792 0.54296 0.0
H1471 H 0.76356 0.51066 0.58173 0.0
H1472 H 0.8191 0.56123 0.5832 0.0
C1473 C 0.83721 0.49047 0.52007 0.0
C1474 C 1.01231 0.25773 0.56329 0.0
C1475 C 1.01936 0.29547 0.54102 0.0
H1476 H 0.97709 0.19887 0.58061 0.0
C1477 C 0.99208 0.30233 0.51871 0.0
H1478 H 0.03212 0.25045 0.5809 0.0
C1479 C 0.95977 0.27173 0.51839 0.0
C1480 C 0.95329 0.23329 0.54052 0.0
H1481 H 0.99617 0.33028 0.50085 0.0
H1482 H 0.94027 0.27746 0.50036 0.0
C1483 C 0.98024 0.22773 0.56311 0.0
C1484 C 0.78398 0.26074 0.22823 0.0
C1485 C 0.7767 0.29734 0.25123 0.0
H1486 H 0.81906 0.2022 0.21009 0.0
C1487 C 0.80361 0.30234 0.27408 0.0
H1488 H 0.7645 0.25483 0.21017 0.0
C1489 C 0.83572 0.27108 0.27417 0.0
C1490 C 0.84239 0.23373 0.2513 0.0
H1491 H 0.79936 0.32933 0.29252 0.0
H1492 H 0.85486 0.27535 0.29262 0.0
C1493 C 0.81581 0.23009 0.22821 0.0
C1494 C 0.97973 0.52942 0.23106 0.0
C1495 C 0.95324 0.52557 0.25422 0.0
H1496 H 0.03121 0.50554 0.21288 0.0
C1497 C 0.96034 0.4886 0.27709 0.0
H1498 H 0.97619 0.557 0.21292 0.0
C1499 C 0.99276 0.45792 0.27691 0.0
C1500 C 1.01958 0.46323 0.25399 0.0
H1501 H 0.94129 0.48418 0.2956 0.0
H1502 H 0.99734 0.43122 0.29533 0.0
C1503 C 1.01186 0.49943 0.23101 0.0
C1504 C 0.73783 0.05902 0.48868 0.0
C1505 C 0.77017 0.04787 0.50482 0.0
H1506 H 0.6835 0.0341 0.47613 0.0
C1507 C 0.77009 1.00305 0.52278 0.0
H1508 H 0.73672 0.09281 0.47435 0.0
C1509 C 0.73983 0.96968 0.52378 0.0
C1510 C 0.70787 0.97933 0.50701 0.0
H1511 H 0.79404 0.99283 0.53567 0.0
H1512 H 0.74181 0.93508 0.53737 0.0
C1513 C 0.70709 0.02537 0.48985 0.0
C1514 C 0.55411 0.21 0.52532 0.0
C1515 C 0.52721 0.21504 0.50245 0.0
H1516 H 0.60543 0.23676 0.54393 0.0
C1517 C 0.53467 0.25146 0.47952 0.0
H1518 H 0.54974 0.18319 0.54372 0.0
C1519 C 0.56662 0.28183 0.47954 0.0
C1520 C 0.59318 0.2782 0.50263 0.0
H1521 H 0.51526 0.25743 0.46143 0.0
H1522 H 0.56995 0.30952 0.46143 0.0
C1523 C 0.58632 0.24106 0.52548 0.0
C1524 C 0.73056 0.27992 0.81338 0.0
C1525 C 0.70354 0.27553 0.79071 0.0
H1526 H 0.78228 0.25572 0.83094 0.0
C1527 C 0.70985 0.23758 0.76809 0.0
H1528 H 0.72761 0.30833 0.83125 0.0
C1529 C 0.74198 0.20637 0.76804 0.0
C1530 C 0.76931 0.21199 0.79048 0.0
H1531 H 0.69035 0.23269 0.74996 0.0
H1532 H 0.74587 0.17886 0.74982 0.0
C1533 C 0.76245 0.24928 0.81321 0.0
C1534 C 0.58678 0.01886 0.76674 0.0
C1535 C 0.59333 0.98048 0.78894 0.0
H1536 H 0.55019 0.07711 0.74889 0.0
C1537 C 0.56602 0.97471 0.81126 0.0
H1538 H 0.60649 0.02481 0.74888 0.0
C1539 C 0.5337 0.00441 0.81115 0.0
C1540 C 0.52661 0.04216 0.78885 0.0
H1541 H 0.5691 0.94592 0.8288 0.0
H1542 H 0.51373 0.99689 0.82861 0.0
C1543 C 0.55421 0.0492 0.76678 0.0
C1544 C 0.2839 1.00081 0.56118 0.0
C1545 C 0.2764 0.96435 0.53816 0.0
H1546 H 0.31945 0.05838 0.57958 0.0
C1547 C 0.30352 0.95863 0.5155 0.0
H1548 H 0.26433 0.00727 0.57913 0.0
C1549 C 0.33602 0.9891 0.51561 0.0
C1550 C 0.34291 0.0263 0.53853 0.0
H1551 H 0.29915 0.93174 0.49704 0.0
H1552 H 0.35531 0.98433 0.49728 0.0
C1553 C 0.3161 0.0306 0.56143 0.0
C1554 C 0.48052 0.72509 0.56101 0.0
C1555 C 0.45262 0.73241 0.5394 0.0
H1556 H 0.53409 0.74416 0.57672 0.0
C1557 C 0.45875 0.77147 0.51754 0.0
H1558 H 0.47777 0.69575 0.57828 0.0
C1559 C 0.49178 0.80066 0.51706 0.0
C1560 C 0.52002 0.79139 0.53819 0.0
H1561 H 0.43853 0.77849 0.50023 0.0
H1562 H 0.49591 0.82862 0.49921 0.0
C1563 C 0.51328 0.75333 0.56023 0.0
C1564 C 0.33674 0.77038 0.27329 0.0
C1565 C 0.34359 0.73211 0.25096 0.0
H1566 H 0.29995 0.8286 0.29105 0.0
C1567 C 0.31671 0.7265 0.22829 0.0
H1568 H 0.35613 0.77618 0.2914 0.0
C1569 C 0.28444 0.75628 0.22819 0.0
C1570 C 0.27706 0.79391 0.25063 0.0
H1571 H 0.32008 0.69777 0.21064 0.0
H1572 H 0.26475 0.74892 0.21048 0.0
C1573 C 0.30425 0.80078 0.27305 0.0
C1574 C 0.51187 0.99805 0.22776 0.0
C1575 C 0.51844 0.96022 0.25012 0.0
H1576 H 0.47758 0.05813 0.21038 0.0
C1577 C 0.49107 0.95466 0.27253 0.0
H1578 H 0.53174 0.00449 0.21007 0.0
C1579 C 0.45924 0.98646 0.27283 0.0
C1580 C 0.45327 0.02501 0.25063 0.0
H1581 H 0.49476 0.92678 0.29048 0.0
H1582 H 0.43972 0.9816 0.29095 0.0
C1583 C 0.48029 0.02931 0.22795 0.0
C1584 C 0.70942 0.5213 0.02459 0.0
C1585 C 0.70317 0.48322 1.00203 0.0
H1586 H 0.74525 0.58032 0.04271 0.0
C1587 C 0.73007 0.47912 0.97922 0.0
H1588 H 0.69002 0.52599 0.04284 0.0
C1589 C 0.76176 0.51011 0.9792 0.0
C1590 C 0.76862 0.54746 1.00191 0.0
H1591 H 0.72717 0.45068 0.96136 0.0
H1592 H 0.78148 0.50382 0.96135 0.0
C1593 C 0.74139 0.55281 0.02449 0.0
C1594 C 0.53224 0.75792 0.98185 0.0
C1595 C 0.5262 0.71818 1.00307 0.0
H1596 H 0.56725 0.81673 0.96431 0.0
C1597 C 0.55529 0.70729 0.0231 0.0
H1598 H 0.51081 0.76843 0.9662 0.0
C1599 C 0.58839 0.73638 0.0224 0.0
C1600 C 0.59384 0.77703 1.00139 0.0
H1601 H 0.55183 0.67803 0.04032 0.0
H1602 H 0.60928 0.72791 0.03891 0.0
C1603 C 0.56507 0.7861 0.98084 0.0
C1604 C 0.70955 0.738 0.26822 0.0
C1605 C 0.70266 0.77632 0.2905 0.0
H1606 H 0.7464 0.67982 0.25054 0.0
C1607 C 0.72951 0.78208 0.31319 0.0
H1608 H 0.69017 0.7321 0.2501 0.0
C1609 C 0.76181 0.75238 0.31332 0.0
C1610 C 0.76923 0.71471 0.29092 0.0
H1611 H 0.7261 0.81086 0.3308 0.0
H1612 H 0.78149 0.75983 0.33103 0.0
C1613 C 0.74207 0.70769 0.26851 0.0
C1614 C 0.56578 0.4789 0.31393 0.0
C1615 C 0.59298 0.4834 0.29142 0.0
H1616 H 0.51412 0.50343 0.33152 0.0
C1617 C 0.58713 0.52199 0.26922 0.0
H1618 H 0.56841 0.45004 0.33149 0.0
C1619 C 0.55523 0.55363 0.26935 0.0
C1620 C 0.52768 0.54786 0.29158 0.0
H1621 H 0.6068 0.52698 0.25123 0.0
H1622 H 0.55164 0.58154 0.2514 0.0
C1623 C 0.53413 0.51001 0.31396 0.0
C1624 C 0.33495 0.48702 0.02164 0.0
C1625 C 0.33767 0.52999 0.04145 0.0
H1626 H 0.3023 0.42266 1.0056 0.0
C1627 C 0.30873 0.53663 0.0622 0.0
H1628 H 0.35598 0.4805 1.0049 0.0
C1629 C 0.27824 0.50365 0.06272 0.0
C1630 C 0.27439 0.46194 0.04231 0.0
H1631 H 0.30912 0.56883 0.07791 0.0
H1632 H 0.25685 0.51223 0.07883 0.0
C1633 C 0.30382 0.45375 0.02198 0.0
C1634 C 0.51204 0.25934 0.0636 0.0
C1635 C 0.51938 0.29597 0.04075 0.0
H1636 H 0.47712 0.20057 0.08144 0.0
C1637 C 0.49262 0.3004 1.0177 0.0
H1638 H 0.53136 0.25372 0.08179 0.0
C1639 C 0.46066 0.26874 1.01733 0.0
C1640 C 0.45388 0.23147 0.04012 0.0
H1641 H 0.49686 0.32732 0.99933 0.0
H1642 H 0.44167 0.27275 0.99876 0.0
C1643 C 0.48035 0.22833 0.06336 0.0
C1644 C 0.33609 0.27004 0.77567 0.0
C1645 C 0.34302 0.23302 0.75265 0.0
H1646 H 0.29958 0.32819 0.794 0.0
C1647 C 0.31669 0.22992 0.72931 0.0
H1648 H 0.355 0.27394 0.79431 0.0
C1649 C 0.28489 0.26072 0.72922 0.0
C1650 C 0.27736 0.29703 0.75233 0.0
H1651 H 0.32009 0.20235 0.71105 0.0
H1652 H 0.26564 0.25516 0.71095 0.0
C1653 C 0.30402 0.30148 0.77545 0.0
C1654 C 0.512 0.49891 0.72994 0.0
C1655 C 0.51951 0.46255 0.75288 0.0
H1656 H 0.47665 0.55699 0.71192 0.0
C1657 C 0.49272 0.45767 0.77586 0.0
H1658 H 0.53136 0.50474 0.71179 0.0
C1659 C 0.46051 0.48881 0.77612 0.0
C1660 C 0.45358 0.52586 0.75325 0.0
H1661 H 0.49715 0.43089 0.79427 0.0
H1662 H 0.44147 0.48461 0.79464 0.0
C1663 C 0.48006 0.52936 0.73005 0.0
loop_
_geom_bond_atom_site_label_1
_geom_bond_atom_site_label_2
_geom_bond_distance
_geom_bond_site_symmetry_2
_ccdc_geom_bond_type
Fe0 O2 1.918 . S
Fe0 O5 1.997 . S
Fe0 O6 2.002 . S
Fe0 O11 1.976 . S
Fe0 O14 1.996 . S
Fe1 O2 1.918 1_556 S
Fe1 O9 1.997 . S
Fe1 O12 1.996 1_546 S
Fe1 O16 1.976 . S
Fe1 O19 2.002 . S
O2 Fe0 1.918 . S
O2 Fe1 1.918 1_554 S
O2 Fe3 1.918 . S
Fe3 O2 1.918 . S
Fe3 O4 2.002 . S
Fe3 O13 1.976 . S
Fe3 O17 1.999 . S
Fe3 O20 1.997 1_554 S
O4 Fe3 2.002 . S
O4 C21 1.295 . S
O5 Fe0 1.997 . S
O5 C21 1.235 . S
O6 Fe0 2.002 . S
O6 C7 1.295 1_554 S
C7 O6 1.295 1_556 S
C7 O9 1.235 . S
C8 O13 1.287 . S
C8 O14 1.255 . S
O9 Fe1 1.997 . S
O9 C7 1.235 . S
C10 O16 1.287 . S
C10 O17 1.248 1_556 S
O11 Fe0 1.976 . S
O11 C18 1.287 1_545 S
O12 Fe1 1.996 1_564 S
O12 C18 1.255 . S
O13 Fe3 1.976 . S
O13 C8 1.287 . S
O14 Fe0 1.996 . S
O14 C8 1.255 . S
C15 O19 1.295 . S
C15 O20 1.235 . S
O16 Fe1 1.976 . S
O16 C10 1.287 . S
O17 Fe3 1.999 . S
O17 C10 1.248 1_554 S
C18 O11 1.287 1_565 S
C18 O12 1.255 . S
O19 Fe1 2.002 . S
O19 C15 1.295 . S
O20 Fe3 1.997 1_556 S
O20 C15 1.235 . S
C21 O4 1.295 . S
C21 O5 1.235 . S
Fe22 O24 1.918 1_556 S
Fe22 O27 1.997 . S
Fe22 O28 2.002 . S
Fe22 O33 1.976 . S
Fe22 O36 1.996 1_556 S
Fe23 O24 1.918 . S
Fe23 O31 1.997 1_554 S
Fe23 O34 1.998 . S
Fe23 O38 1.976 . S
Fe23 O41 2.002 . S
O24 Fe22 1.918 1_554 S
O24 Fe23 1.918 . S
O24 Fe25 1.918 . S
Fe25 O24 1.918 . S
Fe25 O26 2.002 . S
Fe25 O35 1.976 . S
Fe25 O39 1.996 . S
Fe25 O42 1.997 . S
O26 Fe25 2.002 . S
O26 C43 1.295 1_554 S
O27 Fe22 1.997 . S
O27 C43 1.235 . S
O28 Fe22 2.002 . S
O28 C29 1.295 . S
C29 O28 1.295 . S
C29 O31 1.235 . S
C30 O35 1.287 . S
C30 O36 1.255 . S
O31 Fe23 1.997 1_556 S
O31 C29 1.235 . S
C32 O38 1.287 . S
C32 O39 1.255 . S
O33 Fe22 1.976 . S
O33 C40 1.287 . S
O34 Fe23 1.998 . S
O34 C40 1.249 1_554 S
O35 Fe25 1.976 . S
O35 C30 1.287 . S
O36 Fe22 1.996 1_554 S
O36 C30 1.255 . S
C37 O41 1.295 . S
C37 O42 1.235 . S
O38 Fe23 1.976 . S
O38 C32 1.287 . S
O39 Fe25 1.996 . S
O39 C32 1.255 . S
C40 O33 1.287 . S
C40 O34 1.249 1_556 S
O41 Fe23 2.002 . S
O41 C37 1.295 . S
O42 Fe25 1.997 . S
O42 C37 1.235 . S
C43 O26 1.295 1_556 S
C43 O27 1.235 . S
Fe44 O46 1.918 . S
Fe44 O49 1.997 . S
Fe44 O50 2.002 . S
Fe44 O55 1.976 . S
Fe44 O58 1.996 . S
Fe45 O46 1.918 . S
Fe45 O53 1.997 . S
Fe45 O56 1.996 . S
Fe45 O60 1.976 . S
Fe45 O63 2.002 . S
O46 Fe44 1.918 . S
O46 Fe45 1.918 . S
O46 Fe47 1.918 . S
Fe47 O46 1.918 . S
Fe47 O48 2.002 . S
Fe47 O57 1.976 . S
Fe47 O61 1.996 . S
Fe47 O64 1.997 . S
O48 Fe47 2.002 . S
O48 C65 1.295 . S
O49 Fe44 1.997 . S
O49 C65 1.235 . S
O50 Fe44 2.002 . S
O50 C51 1.295 . S
C51 O50 1.295 . S
C51 O53 1.235 . S
C52 O57 1.287 . S
C52 O58 1.255 . S
O53 Fe45 1.997 . S
O53 C51 1.235 . S
C54 O60 1.287 . S
C54 O61 1.255 . S
O55 Fe44 1.976 . S
O55 C62 1.287 . S
O56 Fe45 1.996 . S
O56 C62 1.255 . S
O57 Fe47 1.976 . S
O57 C52 1.287 . S
O58 Fe44 1.996 . S
O58 C52 1.255 . S
C59 O63 1.295 . S
C59 O64 1.235 . S
O60 Fe45 1.976 . S
O60 C54 1.287 . S
O61 Fe47 1.996 . S
O61 C54 1.255 . S
C62 O55 1.287 . S
C62 O56 1.255 . S
O63 Fe45 2.002 . S
O63 C59 1.295 . S
O64 Fe47 1.997 . S
O64 C59 1.235 . S
C65 O48 1.295 . S
C65 O49 1.235 . S
Fe66 O68 1.918 . S
Fe66 O71 1.997 . S
Fe66 O72 2.002 . S
Fe66 O77 1.976 . S
Fe66 O80 1.996 1_545 S
Fe67 O68 1.918 . S
Fe67 O75 1.997 . S
Fe67 O78 1.996 . S
Fe67 O82 1.976 . S
Fe67 O85 2.002 . S
O68 Fe66 1.918 . S
O68 Fe67 1.918 . S
O68 Fe69 1.918 . S
Fe69 O68 1.918 . S
Fe69 O70 2.002 . S
Fe69 O79 1.976 . S
Fe69 O83 1.996 . S
Fe69 O86 1.997 . S
O70 Fe69 2.002 . S
O70 C87 1.295 . S
O71 Fe66 1.997 . S
O71 C87 1.235 . S
O72 Fe66 2.002 . S
O72 C73 1.295 . S
C73 O72 1.295 . S
C73 O75 1.235 . S
C74 O79 1.287 1_565 S
C74 O80 1.255 . S
O75 Fe67 1.997 . S
O75 C73 1.235 . S
C76 O82 1.287 . S
C76 O83 1.255 . S
O77 Fe66 1.976 . S
O77 C84 1.287 . S
O78 Fe67 1.996 . S
O78 C84 1.255 . S
O79 Fe69 1.976 . S
O79 C74 1.287 1_545 S
O80 Fe66 1.996 1_565 S
O80 C74 1.255 . S
C81 O85 1.295 . S
C81 O86 1.235 . S
O82 Fe67 1.976 . S
O82 C76 1.287 . S
O83 Fe69 1.996 . S
O83 C76 1.255 . S
C84 O77 1.287 . S
C84 O78 1.255 . S
O85 Fe67 2.002 . S
O85 C81 1.295 . S
O86 Fe69 1.997 . S
O86 C81 1.235 . S
C87 O70 1.295 . S
C87 O71 1.235 . S
Fe88 O90 1.918 . S
Fe88 O93 1.997 1_556 S
Fe88 O94 2.002 . S
Fe88 O99 1.976 . S
Fe88 O102 1.996 . S
Fe89 O90 1.918 . S
Fe89 O97 1.997 . S
Fe89 O100 1.996 . S
Fe89 O104 1.976 . S
Fe89 O107 2.002 . S
O90 Fe88 1.918 . S
O90 Fe89 1.918 . S
O90 Fe91 1.918 1_556 S
Fe91 O90 1.918 1_554 S
Fe91 O92 2.002 . S
Fe91 O101 1.976 . S
Fe91 O105 1.996 1_564 S
Fe91 O108 1.997 . S
O92 Fe91 2.002 . S
O92 C109 1.295 . S
O93 Fe88 1.997 1_554 S
O93 C109 1.235 . S
O94 Fe88 2.002 . S
O94 C95 1.295 . S
C95 O94 1.295 . S
C95 O97 1.235 . S
C96 O101 1.287 . S
C96 O102 1.254 1_554 S
O97 Fe89 1.997 . S
O97 C95 1.235 . S
C98 O104 1.287 1_545 S
C98 O105 1.255 . S
O99 Fe88 1.976 . S
O99 C106 1.287 . S
O100 Fe89 1.996 . S
O100 C106 1.255 . S
O101 Fe91 1.976 . S
O101 C96 1.287 . S
O102 Fe88 1.996 . S
O102 C96 1.254 1_556 S
C103 O107 1.295 1_554 S
C103 O108 1.235 . S
O104 Fe89 1.976 . S
O104 C98 1.287 1_565 S
O105 Fe91 1.996 1_546 S
O105 C98 1.255 . S
C106 O99 1.287 . S
C106 O100 1.255 . S
O107 Fe89 2.002 . S
O107 C103 1.295 1_556 S
O108 Fe91 1.997 . S
O108 C103 1.235 . S
C109 O92 1.295 . S
C109 O93 1.235 . S
Fe110 O112 1.918 . S
Fe110 O115 1.997 . S
Fe110 O116 2.002 . S
Fe110 O121 1.976 . S
Fe110 O124 1.996 . S
Fe111 O112 1.918 1_554 S
Fe111 O119 1.997 . S
Fe111 O122 1.996 1_554 S
Fe111 O126 1.976 . S
Fe111 O129 2.002 . S
O112 Fe110 1.918 . S
O112 Fe111 1.918 1_556 S
O112 Fe113 1.918 . S
Fe113 O112 1.918 . S
Fe113 O114 2.002 . S
Fe113 O123 1.976 . S
Fe113 O127 1.996 1_556 S
Fe113 O130 1.997 1_556 S
O114 Fe113 2.002 . S
O114 C131 1.295 . S
O115 Fe110 1.997 . S
O115 C131 1.235 . S
O116 Fe110 2.002 . S
O116 C117 1.295 1_556 S
C117 O116 1.295 1_554 S
C117 O119 1.235 . S
C118 O123 1.287 . S
C118 O124 1.255 . S
O119 Fe111 1.997 . S
O119 C117 1.235 . S
C120 O126 1.287 . S
C120 O127 1.254 . S
O121 Fe110 1.976 . S
O121 C128 1.287 . S
O122 Fe111 1.996 1_556 S
O122 C128 1.255 . S
O123 Fe113 1.976 . S
O123 C118 1.287 . S
O124 Fe110 1.996 . S
O124 C118 1.255 . S
C125 O129 1.295 . S
C125 O130 1.235 . S
O126 Fe111 1.976 . S
O126 C120 1.287 . S
O127 Fe113 1.996 1_554 S
O127 C120 1.254 . S
C128 O121 1.287 . S
C128 O122 1.255 . S
O129 Fe111 2.002 . S
O129 C125 1.295 . S
O130 Fe113 1.997 1_554 S
O130 C125 1.235 . S
C131 O114 1.295 . S
C131 O115 1.235 . S
Fe132 O134 1.918 . S
Fe132 O137 1.997 . S
Fe132 O138 2.002 . S
Fe132 O143 1.976 . S
Fe132 O146 1.996 . S
Fe133 O134 1.918 . S
Fe133 O141 1.997 . S
Fe133 O144 1.996 . S
Fe133 O148 1.976 . S
Fe133 O151 2.002 . S
O134 Fe132 1.918 . S
O134 Fe133 1.918 . S
O134 Fe135 1.918 . S
Fe135 O134 1.918 . S
Fe135 O136 2.002 . S
Fe135 O145 1.976 . S
Fe135 O149 1.996 . S
Fe135 O152 1.997 . S
O136 Fe135 2.002 . S
O136 C153 1.295 . S
O137 Fe132 1.997 . S
O137 C153 1.235 . S
O138 Fe132 2.002 . S
O138 C139 1.295 . S
C139 O138 1.295 . S
C139 O141 1.235 . S
C140 O145 1.287 . S
C140 O146 1.255 . S
O141 Fe133 1.997 . S
O141 C139 1.235 . S
C142 O148 1.287 . S
C142 O149 1.255 . S
O143 Fe132 1.976 . S
O143 C150 1.287 . S
O144 Fe133 1.996 . S
O144 C150 1.255 . S
O145 Fe135 1.976 . S
O145 C140 1.287 . S
O146 Fe132 1.996 . S
O146 C140 1.255 . S
C147 O151 1.295 . S
C147 O152 1.235 . S
O148 Fe133 1.976 . S
O148 C142 1.287 . S
O149 Fe135 1.996 . S
O149 C142 1.255 . S
C150 O143 1.287 . S
C150 O144 1.255 . S
O151 Fe133 2.002 . S
O151 C147 1.295 . S
O152 Fe135 1.997 . S
O152 C147 1.235 . S
C153 O136 1.295 . S
C153 O137 1.235 . S
Fe154 O156 1.918 . S
Fe154 O159 1.997 . S
Fe154 O160 2.002 . S
Fe154 O165 1.976 . S
Fe154 O168 1.996 1_565 S
Fe155 O156 1.918 . S
Fe155 O163 1.997 . S
Fe155 O166 1.996 . S
Fe155 O170 1.976 . S
Fe155 O173 2.002 . S
O156 Fe154 1.918 . S
O156 Fe155 1.918 . S
O156 Fe157 1.918 . S
Fe157 O156 1.918 . S
Fe157 O158 2.002 . S
Fe157 O167 1.976 . S
Fe157 O171 1.996 . S
Fe157 O174 1.997 . S
O158 Fe157 2.002 . S
O158 C175 1.295 . S
O159 Fe154 1.997 . S
O159 C175 1.235 . S
O160 Fe154 2.002 . S
O160 C161 1.295 . S
C161 O160 1.295 . S
C161 O163 1.235 . S
C162 O167 1.287 1_545 S
C162 O168 1.255 . S
O163 Fe155 1.997 . S
O163 C161 1.235 . S
C164 O170 1.287 . S
C164 O171 1.255 . S
O165 Fe154 1.976 . S
O165 C172 1.287 . S
O166 Fe155 1.996 . S
O166 C172 1.255 . S
O167 Fe157 1.976 . S
O167 C162 1.287 1_565 S
O168 Fe154 1.996 1_545 S
O168 C162 1.255 . S
C169 O173 1.295 . S
C169 O174 1.235 . S
O170 Fe155 1.976 . S
O170 C164 1.287 . S
O171 Fe157 1.996 . S
O171 C164 1.255 . S
C172 O165 1.287 . S
C172 O166 1.255 . S
O173 Fe155 2.002 . S
O173 C169 1.295 . S
O174 Fe157 1.997 . S
O174 C169 1.235 . S
C175 O158 1.295 . S
C175 O159 1.235 . S
Fe176 O178 1.918 . S
Fe176 O181 1.997 . S
Fe176 O182 2.002 . S
Fe176 O187 1.976 . S
Fe176 O190 1.996 . S
Fe177 O178 1.918 . S
Fe177 O185 1.997 . S
Fe177 O188 1.996 . S
Fe177 O192 1.976 . S
Fe177 O195 2.002 . S
O178 Fe176 1.918 . S
O178 Fe177 1.918 . S
O178 Fe179 1.918 . S
Fe179 O178 1.918 . S
Fe179 O180 2.002 . S
Fe179 O189 1.976 . S
Fe179 O193 1.996 . S
Fe179 O196 1.997 . S
O180 Fe179 2.002 . S
O180 C197 1.295 . S
O181 Fe176 1.997 . S
O181 C197 1.235 . S
O182 Fe176 2.002 . S
O182 C183 1.295 . S
C183 O182 1.295 . S
C183 O185 1.235 . S
C184 O189 1.287 . S
C184 O190 1.255 . S
O185 Fe177 1.997 . S
O185 C183 1.235 . S
C186 O192 1.287 . S
C186 O193 1.255 . S
O187 Fe176 1.976 . S
O187 C194 1.287 . S
O188 Fe177 1.996 . S
O188 C194 1.255 . S
O189 Fe179 1.976 . S
O189 C184 1.287 . S
O190 Fe176 1.996 . S
O190 C184 1.255 . S
C191 O195 1.295 . S
C191 O196 1.235 . S
O192 Fe177 1.976 . S
O192 C186 1.287 . S
O193 Fe179 1.996 . S
O193 C186 1.255 . S
C194 O187 1.287 . S
C194 O188 1.255 . S
O195 Fe177 2.002 . S
O195 C191 1.295 . S
O196 Fe179 1.997 . S
O196 C191 1.235 . S
C197 O180 1.295 . S
C197 O181 1.235 . S
Fe198 O200 1.918 . S
Fe198 O203 1.997 . S
Fe198 O204 2.002 . S
Fe198 O209 1.976 . S
Fe198 O212 1.996 . S
Fe199 O200 1.918 . S
Fe199 O207 1.997 . S
Fe199 O210 1.996 . S
Fe199 O214 1.976 . S
Fe199 O217 2.002 . S
O200 Fe198 1.918 . S
O200 Fe199 1.918 . S
O200 Fe201 1.918 . S
Fe201 O200 1.918 . S
Fe201 O202 2.002 . S
Fe201 O211 1.976 . S
Fe201 O215 1.996 . S
Fe201 O218 1.997 . S
O202 Fe201 2.002 . S
O202 C219 1.295 . S
O203 Fe198 1.997 . S
O203 C219 1.235 . S
O204 Fe198 2.002 . S
O204 C205 1.295 . S
C205 O204 1.295 . S
C205 O207 1.235 . S
C206 O211 1.287 . S
C206 O212 1.255 . S
O207 Fe199 1.997 . S
O207 C205 1.235 . S
C208 O214 1.287 . S
C208 O215 1.255 . S
O209 Fe198 1.976 . S
O209 C216 1.287 . S
O210 Fe199 1.996 . S
O210 C216 1.255 . S
O211 Fe201 1.976 . S
O211 C206 1.287 . S
O212 Fe198 1.996 . S
O212 C206 1.255 . S
C213 O217 1.295 . S
C213 O218 1.235 . S
O214 Fe199 1.976 . S
O214 C208 1.287 . S
O215 Fe201 1.996 . S
O215 C208 1.255 . S
C216 O209 1.287 . S
C216 O210 1.255 . S
O217 Fe199 2.002 . S
O217 C213 1.295 . S
O218 Fe201 1.997 . S
O218 C213 1.235 . S
C219 O202 1.295 . S
C219 O203 1.235 . S
Fe220 O222 1.918 . S
Fe220 O225 1.997 . S
Fe220 O226 2.002 . S
Fe220 O231 1.976 . S
Fe220 O234 1.996 . S
Fe221 O222 1.918 . S
Fe221 O229 1.997 . S
Fe221 O232 1.996 . S
Fe221 O236 1.976 . S
Fe221 O239 2.002 . S
O222 Fe220 1.918 . S
O222 Fe221 1.918 . S
O222 Fe223 1.918 . S
Fe223 O222 1.918 . S
Fe223 O224 2.002 . S
Fe223 O233 1.976 . S
Fe223 O237 1.996 . S
Fe223 O240 1.997 . S
O224 Fe223 2.002 . S
O224 C241 1.295 . S
O225 Fe220 1.997 . S
O225 C241 1.235 . S
O226 Fe220 2.002 . S
O226 C227 1.295 . S
C227 O226 1.295 . S
C227 O229 1.235 . S
C228 O233 1.287 . S
C228 O234 1.255 . S
O229 Fe221 1.997 . S
O229 C227 1.235 . S
C230 O236 1.287 . S
C230 O237 1.255 . S
O231 Fe220 1.976 . S
O231 C238 1.287 . S
O232 Fe221 1.996 . S
O232 C238 1.255 . S
O233 Fe223 1.976 . S
O233 C228 1.287 . S
O234 Fe220 1.996 . S
O234 C228 1.255 . S
C235 O239 1.295 . S
C235 O240 1.235 . S
O236 Fe221 1.976 . S
O236 C230 1.287 . S
O237 Fe223 1.996 . S
O237 C230 1.255 . S
C238 O231 1.287 . S
C238 O232 1.255 . S
O239 Fe221 2.002 . S
O239 C235 1.295 . S
O240 Fe223 1.997 . S
O240 C235 1.235 . S
C241 O224 1.295 . S
C241 O225 1.235 . S
Fe242 O244 1.918 . S
Fe242 O247 1.997 . S
Fe242 O248 2.002 . S
Fe242 O253 1.976 . S
Fe242 O256 1.996 . S
Fe243 O244 1.918 . S
Fe243 O251 1.997 . S
Fe243 O254 1.996 . S
Fe243 O258 1.976 . S
Fe243 O261 2.002 . S
O244 Fe242 1.918 . S
O244 Fe243 1.918 . S
O244 Fe245 1.918 . S
Fe245 O244 1.918 . S
Fe245 O246 2.002 . S
Fe245 O255 1.976 . S
Fe245 O259 1.996 . S
Fe245 O262 1.997 . S
O246 Fe245 2.002 . S
O246 C263 1.295 . S
O247 Fe242 1.997 . S
O247 C263 1.235 . S
O248 Fe242 2.002 . S
O248 C249 1.295 . S
C249 O248 1.295 . S
C249 O251 1.235 . S
C250 O255 1.287 . S
C250 O256 1.255 . S
O251 Fe243 1.997 . S
O251 C249 1.235 . S
C252 O258 1.287 . S
C252 O259 1.255 . S
O253 Fe242 1.976 . S
O253 C260 1.287 . S
O254 Fe243 1.996 . S
O254 C260 1.255 . S
O255 Fe245 1.976 . S
O255 C250 1.287 . S
O256 Fe242 1.996 . S
O256 C250 1.255 . S
C257 O261 1.295 . S
C257 O262 1.235 . S
O258 Fe243 1.976 . S
O258 C252 1.287 . S
O259 Fe245 1.996 . S
O259 C252 1.255 . S
C260 O253 1.287 . S
C260 O254 1.255 . S
O261 Fe243 2.002 . S
O261 C257 1.295 . S
O262 Fe245 1.997 . S
O262 C257 1.235 . S
C263 O246 1.295 . S
C263 O247 1.235 . S
Fe264 O266 1.918 . S
Fe264 O269 1.997 . S
Fe264 O270 2.002 . S
Fe264 O275 1.976 . S
Fe264 O278 1.996 . S
Fe265 O266 1.918 . S
Fe265 O273 1.997 . S
Fe265 O276 1.996 . S
Fe265 O280 1.976 . S
Fe265 O283 2.002 . S
O266 Fe264 1.918 . S
O266 Fe265 1.918 . S
O266 Fe267 1.918 . S
Fe267 O266 1.918 . S
Fe267 O268 2.002 . S
Fe267 O277 1.976 . S
Fe267 O281 1.996 . S
Fe267 O284 1.997 . S
O268 Fe267 2.002 . S
O268 C285 1.295 . S
O269 Fe264 1.997 . S
O269 C285 1.235 . S
O270 Fe264 2.002 . S
O270 C271 1.295 . S
C271 O270 1.295 . S
C271 O273 1.235 . S
C272 O277 1.287 . S
C272 O278 1.255 . S
O273 Fe265 1.997 . S
O273 C271 1.235 . S
C274 O280 1.287 . S
C274 O281 1.255 . S
O275 Fe264 1.976 . S
O275 C282 1.287 . S
O276 Fe265 1.996 . S
O276 C282 1.255 . S
O277 Fe267 1.976 . S
O277 C272 1.287 . S
O278 Fe264 1.996 . S
O278 C272 1.255 . S
C279 O283 1.295 . S
C279 O284 1.235 . S
O280 Fe265 1.976 . S
O280 C274 1.287 . S
O281 Fe267 1.996 . S
O281 C274 1.255 . S
C282 O275 1.287 . S
C282 O276 1.255 . S
O283 Fe265 2.002 . S
O283 C279 1.295 . S
O284 Fe267 1.997 . S
O284 C279 1.235 . S
C285 O268 1.295 . S
C285 O269 1.235 . S
Fe286 O288 1.918 . S
Fe286 O291 1.997 . S
Fe286 O292 2.002 . S
Fe286 O297 1.976 . S
Fe286 O300 1.996 . S
Fe287 O288 1.918 . S
Fe287 O295 1.997 . S
Fe287 O298 1.996 . S
Fe287 O302 1.976 . S
Fe287 O305 2.002 . S
O288 Fe286 1.918 . S
O288 Fe287 1.918 . S
O288 Fe289 1.918 . S
Fe289 O288 1.918 . S
Fe289 O290 2.002 . S
Fe289 O299 1.976 . S
Fe289 O303 1.996 . S
Fe289 O306 1.997 . S
O290 Fe289 2.002 . S
O290 C307 1.295 . S
O291 Fe286 1.997 . S
O291 C307 1.235 . S
O292 Fe286 2.002 . S
O292 C293 1.295 . S
C293 O292 1.295 . S
C293 O295 1.235 . S
C294 O299 1.287 . S
C294 O300 1.255 . S
O295 Fe287 1.997 . S
O295 C293 1.235 . S
C296 O302 1.287 . S
C296 O303 1.255 . S
O297 Fe286 1.976 . S
O297 C304 1.287 . S
O298 Fe287 1.996 . S
O298 C304 1.255 . S
O299 Fe289 1.976 . S
O299 C294 1.287 . S
O300 Fe286 1.996 . S
O300 C294 1.255 . S
C301 O305 1.295 . S
C301 O306 1.235 . S
O302 Fe287 1.976 . S
O302 C296 1.287 . S
O303 Fe289 1.996 . S
O303 C296 1.255 . S
C304 O297 1.287 . S
C304 O298 1.255 . S
O305 Fe287 2.002 . S
O305 C301 1.295 . S
O306 Fe289 1.997 . S
O306 C301 1.235 . S
C307 O290 1.295 . S
C307 O291 1.235 . S
Fe308 O310 1.918 . S
Fe308 O313 1.997 . S
Fe308 O314 2.002 . S
Fe308 O319 1.976 . S
Fe308 O322 1.996 . S
Fe309 O310 1.918 . S
Fe309 O317 1.997 . S
Fe309 O320 1.996 . S
Fe309 O324 1.976 . S
Fe309 O327 2.002 . S
O310 Fe308 1.918 . S
O310 Fe309 1.918 . S
O310 Fe311 1.918 . S
Fe311 O310 1.918 . S
Fe311 O312 2.002 . S
Fe311 O321 1.976 . S
Fe311 O325 1.996 . S
Fe311 O328 1.997 . S
O312 Fe311 2.002 . S
O312 C329 1.295 . S
O313 Fe308 1.997 . S
O313 C329 1.235 . S
O314 Fe308 2.002 . S
O314 C315 1.295 . S
C315 O314 1.295 . S
C315 O317 1.235 . S
C316 O321 1.287 . S
C316 O322 1.255 . S
O317 Fe309 1.997 . S
O317 C315 1.235 . S
C318 O324 1.287 . S
C318 O325 1.255 . S
O319 Fe308 1.976 . S
O319 C326 1.287 . S
O320 Fe309 1.996 . S
O320 C326 1.255 . S
O321 Fe311 1.976 . S
O321 C316 1.287 . S
O322 Fe308 1.996 . S
O322 C316 1.255 . S
C323 O327 1.295 . S
C323 O328 1.235 . S
O324 Fe309 1.976 . S
O324 C318 1.287 . S
O325 Fe311 1.996 . S
O325 C318 1.255 . S
C326 O319 1.287 . S
C326 O320 1.255 . S
O327 Fe309 2.002 . S
O327 C323 1.295 . S
O328 Fe311 1.997 . S
O328 C323 1.235 . S
C329 O312 1.295 . S
C329 O313 1.235 . S
Fe330 O332 1.918 . S
Fe330 O335 1.997 . S
Fe330 O336 2.002 . S
Fe330 O341 1.976 . S
Fe330 O344 1.996 . S
Fe331 O332 1.918 . S
Fe331 O339 1.997 . S
Fe331 O342 1.996 . S
Fe331 O346 1.976 . S
Fe331 O349 2.002 . S
O332 Fe330 1.918 . S
O332 Fe331 1.918 . S
O332 Fe333 1.918 . S
Fe333 O332 1.918 . S
Fe333 O334 2.002 . S
Fe333 O343 1.976 . S
Fe333 O347 1.996 . S
Fe333 O350 1.997 . S
O334 Fe333 2.002 . S
O334 C351 1.295 . S
O335 Fe330 1.997 . S
O335 C351 1.235 . S
O336 Fe330 2.002 . S
O336 C337 1.295 . S
C337 O336 1.295 . S
C337 O339 1.235 . S
C338 O343 1.287 . S
C338 O344 1.255 . S
O339 Fe331 1.997 . S
O339 C337 1.235 . S
C340 O346 1.287 . S
C340 O347 1.255 . S
O341 Fe330 1.976 . S
O341 C348 1.287 . S
O342 Fe331 1.996 . S
O342 C348 1.255 . S
O343 Fe333 1.976 . S
O343 C338 1.287 . S
O344 Fe330 1.996 . S
O344 C338 1.255 . S
C345 O349 1.295 . S
C345 O350 1.235 . S
O346 Fe331 1.976 . S
O346 C340 1.287 . S
O347 Fe333 1.996 . S
O347 C340 1.255 . S
C348 O341 1.287 . S
C348 O342 1.255 . S
O349 Fe331 2.002 . S
O349 C345 1.295 . S
O350 Fe333 1.997 . S
O350 C345 1.235 . S
C351 O334 1.295 . S
C351 O335 1.235 . S
Fe352 O354 1.918 . S
Fe352 O357 1.997 . S
Fe352 O358 2.002 . S
Fe352 O363 1.976 . S
Fe352 O366 1.996 . S
Fe353 O354 1.918 . S
Fe353 O361 1.997 . S
Fe353 O364 1.996 . S
Fe353 O368 1.976 . S
Fe353 O371 2.002 . S
O354 Fe352 1.918 . S
O354 Fe353 1.918 . S
O354 Fe355 1.918 . S
Fe355 O354 1.918 . S
Fe355 O356 2.002 . S
Fe355 O365 1.976 . S
Fe355 O369 1.996 1_545 S
Fe355 O372 1.997 . S
O356 Fe355 2.002 . S
O356 C373 1.295 . S
O357 Fe352 1.997 . S
O357 C373 1.235 . S
O358 Fe352 2.002 . S
O358 C359 1.295 . S
C359 O358 1.295 . S
C359 O361 1.235 . S
C360 O365 1.287 . S
C360 O366 1.255 . S
O361 Fe353 1.997 . S
O361 C359 1.235 . S
C362 O368 1.287 1_565 S
C362 O369 1.255 . S
O363 Fe352 1.976 . S
O363 C370 1.287 . S
O364 Fe353 1.996 . S
O364 C370 1.255 . S
O365 Fe355 1.976 . S
O365 C360 1.287 . S
O366 Fe352 1.996 . S
O366 C360 1.255 . S
C367 O371 1.295 . S
C367 O372 1.235 . S
O368 Fe353 1.976 . S
O368 C362 1.287 1_545 S
O369 Fe355 1.996 1_565 S
O369 C362 1.255 . S
C370 O363 1.287 . S
C370 O364 1.255 . S
O371 Fe353 2.002 . S
O371 C367 1.295 . S
O372 Fe355 1.997 . S
O372 C367 1.235 . S
C373 O356 1.295 . S
C373 O357 1.235 . S
Fe374 O376 1.918 . S
Fe374 O379 1.997 . S
Fe374 O380 2.002 . S
Fe374 O385 1.976 . S
Fe374 O388 1.996 . S
Fe375 O376 1.918 . S
Fe375 O383 1.997 . S
Fe375 O386 1.996 . S
Fe375 O390 1.976 . S
Fe375 O393 2.002 . S
O376 Fe374 1.918 . S
O376 Fe375 1.918 . S
O376 Fe377 1.918 . S
Fe377 O376 1.918 . S
Fe377 O378 2.002 . S
Fe377 O387 1.976 . S
Fe377 O391 1.996 . S
Fe377 O394 1.997 . S
O378 Fe377 2.002 . S
O378 C395 1.295 . S
O379 Fe374 1.997 . S
O379 C395 1.235 . S
O380 Fe374 2.002 . S
O380 C381 1.295 . S
C381 O380 1.295 . S
C381 O383 1.235 . S
C382 O387 1.287 . S
C382 O388 1.255 . S
O383 Fe375 1.997 . S
O383 C381 1.235 . S
C384 O390 1.287 . S
C384 O391 1.255 . S
O385 Fe374 1.976 . S
O385 C392 1.287 . S
O386 Fe375 1.996 . S
O386 C392 1.255 . S
O387 Fe377 1.976 . S
O387 C382 1.287 . S
O388 Fe374 1.996 . S
O388 C382 1.255 . S
C389 O393 1.295 . S
C389 O394 1.235 . S
O390 Fe375 1.976 . S
O390 C384 1.287 . S
O391 Fe377 1.996 . S
O391 C384 1.255 . S
C392 O385 1.287 . S
C392 O386 1.255 . S
O393 Fe375 2.002 . S
O393 C389 1.295 . S
O394 Fe377 1.997 . S
O394 C389 1.235 . S
C395 O378 1.295 . S
C395 O379 1.235 . S
Fe396 O398 1.918 . S
Fe396 O401 1.997 . S
Fe396 O402 2.002 . S
Fe396 O407 1.976 . S
Fe396 O410 1.996 . S
Fe397 O398 1.918 . S
Fe397 O405 1.997 . S
Fe397 O408 1.996 . S
Fe397 O412 1.976 . S
Fe397 O415 2.002 . S
O398 Fe396 1.918 . S
O398 Fe397 1.918 . S
O398 Fe399 1.918 . S
Fe399 O398 1.918 . S
Fe399 O400 2.002 . S
Fe399 O409 1.976 . S
Fe399 O413 1.996 . S
Fe399 O416 1.997 . S
O400 Fe399 2.002 . S
O400 C417 1.295 . S
O401 Fe396 1.997 . S
O401 C417 1.235 . S
O402 Fe396 2.002 . S
O402 C403 1.295 . S
C403 O402 1.295 . S
C403 O405 1.235 . S
C404 O409 1.287 . S
C404 O410 1.255 . S
O405 Fe397 1.997 . S
O405 C403 1.235 . S
C406 O412 1.287 . S
C406 O413 1.255 . S
O407 Fe396 1.976 . S
O407 C414 1.287 . S
O408 Fe397 1.996 . S
O408 C414 1.255 . S
O409 Fe399 1.976 . S
O409 C404 1.287 . S
O410 Fe396 1.996 . S
O410 C404 1.255 . S
C411 O415 1.295 . S
C411 O416 1.235 . S
O412 Fe397 1.976 . S
O412 C406 1.287 . S
O413 Fe399 1.996 . S
O413 C406 1.255 . S
C414 O407 1.287 . S
C414 O408 1.255 . S
O415 Fe397 2.002 . S
O415 C411 1.295 . S
O416 Fe399 1.997 . S
O416 C411 1.235 . S
C417 O400 1.295 . S
C417 O401 1.235 . S
Fe418 O420 1.918 . S
Fe418 O423 1.997 . S
Fe418 O424 2.002 . S
Fe418 O429 1.976 . S
Fe418 O432 1.996 . S
Fe419 O420 1.918 . S
Fe419 O427 1.997 . S
Fe419 O430 1.996 . S
Fe419 O434 1.976 . S
Fe419 O437 2.002 . S
O420 Fe418 1.918 . S
O420 Fe419 1.918 . S
O420 Fe421 1.918 . S
Fe421 O420 1.918 . S
Fe421 O422 2.002 . S
Fe421 O431 1.976 . S
Fe421 O435 1.996 1_545 S
Fe421 O438 1.997 . S
O422 Fe421 2.002 . S
O422 C439 1.295 . S
O423 Fe418 1.997 . S
O423 C439 1.235 . S
O424 Fe418 2.002 . S
O424 C425 1.295 . S
C425 O424 1.295 . S
C425 O427 1.235 . S
C426 O431 1.287 . S
C426 O432 1.255 . S
O427 Fe419 1.997 . S
O427 C425 1.235 . S
C428 O434 1.287 1_565 S
C428 O435 1.255 . S
O429 Fe418 1.976 . S
O429 C436 1.287 . S
O430 Fe419 1.996 . S
O430 C436 1.255 . S
O431 Fe421 1.976 . S
O431 C426 1.287 . S
O432 Fe418 1.996 . S
O432 C426 1.255 . S
C433 O437 1.295 . S
C433 O438 1.235 . S
O434 Fe419 1.976 . S
O434 C428 1.287 1_545 S
O435 Fe421 1.996 1_565 S
O435 C428 1.255 . S
C436 O429 1.287 . S
C436 O430 1.255 . S
O437 Fe419 2.002 . S
O437 C433 1.295 . S
O438 Fe421 1.997 . S
O438 C433 1.235 . S
C439 O422 1.295 . S
C439 O423 1.235 . S
Fe440 O442 1.918 . S
Fe440 O445 1.997 . S
Fe440 O446 2.002 . S
Fe440 O451 1.976 . S
Fe440 O454 1.996 . S
Fe441 O442 1.918 . S
Fe441 O449 1.997 . S
Fe441 O452 1.996 . S
Fe441 O456 1.976 . S
Fe441 O459 2.002 . S
O442 Fe440 1.918 . S
O442 Fe441 1.918 . S
O442 Fe443 1.918 . S
Fe443 O442 1.918 . S
Fe443 O444 2.002 . S
Fe443 O453 1.976 . S
Fe443 O457 1.996 1_565 S
Fe443 O460 1.997 . S
O444 Fe443 2.002 . S
O444 C461 1.295 . S
O445 Fe440 1.997 . S
O445 C461 1.235 . S
O446 Fe440 2.002 . S
O446 C447 1.295 . S
C447 O446 1.295 . S
C447 O449 1.235 . S
C448 O453 1.287 . S
C448 O454 1.255 . S
O449 Fe441 1.997 . S
O449 C447 1.235 . S
C450 O456 1.287 1_545 S
C450 O457 1.255 . S
O451 Fe440 1.976 . S
O451 C458 1.287 . S
O452 Fe441 1.996 . S
O452 C458 1.255 . S
O453 Fe443 1.976 . S
O453 C448 1.287 . S
O454 Fe440 1.996 . S
O454 C448 1.255 . S
C455 O459 1.295 . S
C455 O460 1.235 . S
O456 Fe441 1.976 . S
O456 C450 1.287 1_565 S
O457 Fe443 1.996 1_545 S
O457 C450 1.255 . S
C458 O451 1.287 . S
C458 O452 1.255 . S
O459 Fe441 2.002 . S
O459 C455 1.295 . S
O460 Fe443 1.997 . S
O460 C455 1.235 . S
C461 O444 1.295 . S
C461 O445 1.235 . S
Fe462 O464 1.918 . S
Fe462 O467 1.997 . S
Fe462 O468 2.002 . S
Fe462 O473 1.976 . S
Fe462 O476 1.996 . S
Fe463 O464 1.918 . S
Fe463 O471 1.997 . S
Fe463 O474 1.996 . S
Fe463 O478 1.976 . S
Fe463 O481 2.002 . S
O464 Fe462 1.918 . S
O464 Fe463 1.918 . S
O464 Fe465 1.918 . S
Fe465 O464 1.918 . S
Fe465 O466 2.002 . S
Fe465 O475 1.976 . S
Fe465 O479 1.996 . S
Fe465 O482 1.997 . S
O466 Fe465 2.002 . S
O466 C483 1.295 . S
O467 Fe462 1.997 . S
O467 C483 1.235 . S
O468 Fe462 2.002 . S
O468 C469 1.295 . S
C469 O468 1.295 . S
C469 O471 1.235 . S
C470 O475 1.287 . S
C470 O476 1.255 . S
O471 Fe463 1.997 . S
O471 C469 1.235 . S
C472 O478 1.287 . S
C472 O479 1.255 . S
O473 Fe462 1.976 . S
O473 C480 1.287 . S
O474 Fe463 1.996 . S
O474 C480 1.255 . S
O475 Fe465 1.976 . S
O475 C470 1.287 . S
O476 Fe462 1.996 . S
O476 C470 1.255 . S
C477 O481 1.295 . S
C477 O482 1.235 . S
O478 Fe463 1.976 . S
O478 C472 1.287 . S
O479 Fe465 1.996 . S
O479 C472 1.255 . S
C480 O473 1.287 . S
C480 O474 1.255 . S
O481 Fe463 2.002 . S
O481 C477 1.295 . S
O482 Fe465 1.997 . S
O482 C477 1.235 . S
C483 O466 1.295 . S
C483 O467 1.235 . S
Fe484 O486 1.918 . S
Fe484 O489 1.997 . S
Fe484 O490 2.002 . S
Fe484 O495 1.976 . S
Fe484 O498 1.996 . S
Fe485 O486 1.918 . S
Fe485 O493 1.997 . S
Fe485 O496 1.996 . S
Fe485 O500 1.976 . S
Fe485 O503 2.002 . S
O486 Fe484 1.918 . S
O486 Fe485 1.918 . S
O486 Fe487 1.918 . S
Fe487 O486 1.918 . S
Fe487 O488 2.002 . S
Fe487 O497 1.976 . S
Fe487 O501 1.996 . S
Fe487 O504 1.997 . S
O488 Fe487 2.002 . S
O488 C505 1.295 . S
O489 Fe484 1.997 . S
O489 C505 1.235 . S
O490 Fe484 2.002 . S
O490 C491 1.295 . S
C491 O490 1.295 . S
C491 O493 1.235 . S
C492 O497 1.287 . S
C492 O498 1.255 . S
O493 Fe485 1.997 . S
O493 C491 1.235 . S
C494 O500 1.287 . S
C494 O501 1.255 . S
O495 Fe484 1.976 . S
O495 C502 1.287 . S
O496 Fe485 1.996 . S
O496 C502 1.255 . S
O497 Fe487 1.976 . S
O497 C492 1.287 . S
O498 Fe484 1.996 . S
O498 C492 1.255 . S
C499 O503 1.295 . S
C499 O504 1.235 . S
O500 Fe485 1.976 . S
O500 C494 1.287 . S
O501 Fe487 1.996 . S
O501 C494 1.255 . S
C502 O495 1.287 . S
C502 O496 1.255 . S
O503 Fe485 2.002 . S
O503 C499 1.295 . S
O504 Fe487 1.997 . S
O504 C499 1.235 . S
C505 O488 1.295 . S
C505 O489 1.235 . S
Fe506 O508 1.918 . S
Fe506 O511 1.997 . S
Fe506 O512 2.002 . S
Fe506 O517 1.976 . S
Fe506 O520 1.996 1_565 S
Fe507 O508 1.918 . S
Fe507 O515 1.997 . S
Fe507 O518 1.996 . S
Fe507 O522 1.976 . S
Fe507 O525 2.002 . S
O508 Fe506 1.918 . S
O508 Fe507 1.918 . S
O508 Fe509 1.918 . S
Fe509 O508 1.918 . S
Fe509 O510 2.002 . S
Fe509 O519 1.976 . S
Fe509 O523 1.996 . S
Fe509 O526 1.997 . S
O510 Fe509 2.002 . S
O510 C527 1.295 . S
O511 Fe506 1.997 . S
O511 C527 1.235 . S
O512 Fe506 2.002 . S
O512 C513 1.295 . S
C513 O512 1.295 . S
C513 O515 1.235 . S
C514 O519 1.287 1_545 S
C514 O520 1.255 . S
O515 Fe507 1.997 . S
O515 C513 1.235 . S
C516 O522 1.287 . S
C516 O523 1.255 . S
O517 Fe506 1.976 . S
O517 C524 1.287 . S
O518 Fe507 1.996 . S
O518 C524 1.255 . S
O519 Fe509 1.976 . S
O519 C514 1.287 1_565 S
O520 Fe506 1.996 1_545 S
O520 C514 1.255 . S
C521 O525 1.295 . S
C521 O526 1.235 . S
O522 Fe507 1.976 . S
O522 C516 1.287 . S
O523 Fe509 1.996 . S
O523 C516 1.255 . S
C524 O517 1.287 . S
C524 O518 1.255 . S
O525 Fe507 2.002 . S
O525 C521 1.295 . S
O526 Fe509 1.997 . S
O526 C521 1.235 . S
C527 O510 1.295 . S
C527 O511 1.235 . S
Fe528 O530 1.918 . S
Fe528 O533 1.997 1_554 S
Fe528 O534 2.002 . S
Fe528 O539 1.976 . S
Fe528 O542 1.999 . S
Fe529 O530 1.918 . S
Fe529 O537 1.997 . S
Fe529 O540 1.996 . S
Fe529 O544 1.976 . S
Fe529 O547 2.002 . S
O530 Fe528 1.918 . S
O530 Fe529 1.918 . S
O530 Fe531 1.918 1_554 S
Fe531 O530 1.918 1_556 S
Fe531 O532 2.002 . S
Fe531 O541 1.976 . S
Fe531 O545 1.996 1_556 S
Fe531 O548 1.997 . S
O532 Fe531 2.002 . S
O532 C549 1.295 . S
O533 Fe528 1.997 1_556 S
O533 C549 1.235 . S
O534 Fe528 2.002 . S
O534 C535 1.295 . S
C535 O534 1.295 . S
C535 O537 1.235 . S
C536 O541 1.287 . S
C536 O542 1.248 1_556 S
O537 Fe529 1.997 . S
O537 C535 1.235 . S
C538 O544 1.287 . S
C538 O545 1.255 . S
O539 Fe528 1.976 . S
O539 C546 1.287 . S
O540 Fe529 1.996 . S
O540 C546 1.255 . S
O541 Fe531 1.976 . S
O541 C536 1.287 . S
O542 Fe528 1.999 . S
O542 C536 1.248 1_554 S
C543 O547 1.295 1_556 S
C543 O548 1.235 . S
O544 Fe529 1.976 . S
O544 C538 1.287 . S
O545 Fe531 1.996 1_554 S
O545 C538 1.255 . S
C546 O539 1.287 . S
C546 O540 1.255 . S
O547 Fe529 2.002 . S
O547 C543 1.295 1_554 S
O548 Fe531 1.997 . S
O548 C543 1.235 . S
C549 O532 1.295 . S
C549 O533 1.235 . S
Fe550 O552 1.918 1_556 S
Fe550 O555 1.997 . S
Fe550 O556 2.002 . S
Fe550 O561 1.976 . S
Fe550 O564 1.996 1_556 S
Fe551 O552 1.918 . S
Fe551 O559 1.997 1_554 S
Fe551 O562 1.998 . S
Fe551 O566 1.976 . S
Fe551 O569 2.002 . S
O552 Fe550 1.918 1_554 S
O552 Fe551 1.918 . S
O552 Fe553 1.918 . S
Fe553 O552 1.918 . S
Fe553 O554 2.002 . S
Fe553 O563 1.976 . S
Fe553 O567 1.996 . S
Fe553 O570 1.997 . S
O554 Fe553 2.002 . S
O554 C571 1.295 1_554 S
O555 Fe550 1.997 . S
O555 C571 1.235 . S
O556 Fe550 2.002 . S
O556 C557 1.295 . S
C557 O556 1.295 . S
C557 O559 1.235 . S
C558 O563 1.287 . S
C558 O564 1.255 . S
O559 Fe551 1.997 1_556 S
O559 C557 1.235 . S
C560 O566 1.287 . S
C560 O567 1.255 . S
O561 Fe550 1.976 . S
O561 C568 1.287 . S
O562 Fe551 1.998 . S
O562 C568 1.249 1_554 S
O563 Fe553 1.976 . S
O563 C558 1.287 . S
O564 Fe550 1.996 1_554 S
O564 C558 1.255 . S
C565 O569 1.295 . S
C565 O570 1.235 . S
O566 Fe551 1.976 . S
O566 C560 1.287 . S
O567 Fe553 1.996 . S
O567 C560 1.255 . S
C568 O561 1.287 . S
C568 O562 1.249 1_556 S
O569 Fe551 2.002 . S
O569 C565 1.295 . S
O570 Fe553 1.997 . S
O570 C565 1.235 . S
C571 O554 1.295 1_556 S
C571 O555 1.235 . S
Fe572 O574 1.918 . S
Fe572 O577 1.997 . S
Fe572 O578 2.002 . S
Fe572 O583 1.976 . S
Fe572 O586 1.996 . S
Fe573 O574 1.918 . S
Fe573 O581 1.997 . S
Fe573 O584 1.996 . S
Fe573 O588 1.976 . S
Fe573 O591 2.002 . S
O574 Fe572 1.918 . S
O574 Fe573 1.918 . S
O574 Fe575 1.918 . S
Fe575 O574 1.918 . S
Fe575 O576 2.002 . S
Fe575 O585 1.976 . S
Fe575 O589 1.996 . S
Fe575 O592 1.997 . S
O576 Fe575 2.002 . S
O576 C593 1.295 . S
O577 Fe572 1.997 . S
O577 C593 1.235 . S
O578 Fe572 2.002 . S
O578 C579 1.295 . S
C579 O578 1.295 . S
C579 O581 1.235 . S
C580 O585 1.287 . S
C580 O586 1.255 . S
O581 Fe573 1.997 . S
O581 C579 1.235 . S
C582 O588 1.287 . S
C582 O589 1.255 . S
O583 Fe572 1.976 . S
O583 C590 1.287 . S
O584 Fe573 1.996 . S
O584 C590 1.255 . S
O585 Fe575 1.976 . S
O585 C580 1.287 . S
O586 Fe572 1.996 . S
O586 C580 1.255 . S
C587 O591 1.295 . S
C587 O592 1.235 . S
O588 Fe573 1.976 . S
O588 C582 1.287 . S
O589 Fe575 1.996 . S
O589 C582 1.255 . S
C590 O583 1.287 . S
C590 O584 1.255 . S
O591 Fe573 2.002 . S
O591 C587 1.295 . S
O592 Fe575 1.997 . S
O592 C587 1.235 . S
C593 O576 1.295 . S
C593 O577 1.235 . S
Fe594 O596 1.918 . S
Fe594 O599 1.997 . S
Fe594 O600 2.002 . S
Fe594 O605 1.976 . S
Fe594 O608 1.996 . S
Fe595 O596 1.918 . S
Fe595 O603 1.997 . S
Fe595 O606 1.996 . S
Fe595 O610 1.976 . S
Fe595 O613 2.002 . S
O596 Fe594 1.918 . S
O596 Fe595 1.918 . S
O596 Fe597 1.918 . S
Fe597 O596 1.918 . S
Fe597 O598 2.002 . S
Fe597 O607 1.976 . S
Fe597 O611 1.996 . S
Fe597 O614 1.997 . S
O598 Fe597 2.002 . S
O598 C615 1.295 . S
O599 Fe594 1.997 . S
O599 C615 1.235 . S
O600 Fe594 2.002 . S
O600 C601 1.295 . S
C601 O600 1.295 . S
C601 O603 1.235 . S
C602 O607 1.287 . S
C602 O608 1.255 . S
O603 Fe595 1.997 . S
O603 C601 1.235 . S
C604 O610 1.287 . S
C604 O611 1.255 . S
O605 Fe594 1.976 . S
O605 C612 1.287 . S
O606 Fe595 1.996 . S
O606 C612 1.255 . S
O607 Fe597 1.976 . S
O607 C602 1.287 . S
O608 Fe594 1.996 . S
O608 C602 1.255 . S
C609 O613 1.295 . S
C609 O614 1.235 . S
O610 Fe595 1.976 . S
O610 C604 1.287 . S
O611 Fe597 1.996 . S
O611 C604 1.255 . S
C612 O605 1.287 . S
C612 O606 1.255 . S
O613 Fe595 2.002 . S
O613 C609 1.295 . S
O614 Fe597 1.997 . S
O614 C609 1.235 . S
C615 O598 1.295 . S
C615 O599 1.235 . S
Fe616 O618 1.918 . S
Fe616 O621 1.997 1_556 S
Fe616 O622 2.002 . S
Fe616 O627 1.976 . S
Fe616 O630 1.996 . S
Fe617 O618 1.918 . S
Fe617 O625 1.997 . S
Fe617 O628 1.996 . S
Fe617 O632 1.976 . S
Fe617 O635 2.002 . S
O618 Fe616 1.918 . S
O618 Fe617 1.918 . S
O618 Fe619 1.918 1_556 S
Fe619 O618 1.918 1_554 S
Fe619 O620 2.002 . S
Fe619 O629 1.976 . S
Fe619 O633 1.996 1_554 S
Fe619 O636 1.997 . S
O620 Fe619 2.002 . S
O620 C637 1.295 . S
O621 Fe616 1.997 1_554 S
O621 C637 1.235 . S
O622 Fe616 2.002 . S
O622 C623 1.295 . S
C623 O622 1.295 . S
C623 O625 1.235 . S
C624 O629 1.287 . S
C624 O630 1.254 1_554 S
O625 Fe617 1.997 . S
O625 C623 1.235 . S
C626 O632 1.287 . S
C626 O633 1.255 . S
O627 Fe616 1.976 . S
O627 C634 1.287 . S
O628 Fe617 1.996 . S
O628 C634 1.255 . S
O629 Fe619 1.976 . S
O629 C624 1.287 . S
O630 Fe616 1.996 . S
O630 C624 1.254 1_556 S
C631 O635 1.295 1_554 S
C631 O636 1.235 . S
O632 Fe617 1.976 . S
O632 C626 1.287 . S
O633 Fe619 1.996 1_556 S
O633 C626 1.255 . S
C634 O627 1.287 . S
C634 O628 1.255 . S
O635 Fe617 2.002 . S
O635 C631 1.295 1_556 S
O636 Fe619 1.997 . S
O636 C631 1.235 . S
C637 O620 1.295 . S
C637 O621 1.235 . S
Fe638 O640 1.918 . S
Fe638 O643 1.997 1_556 S
Fe638 O644 2.002 . S
Fe638 O649 1.976 . S
Fe638 O652 1.996 1_556 S
Fe639 O640 1.918 . S
Fe639 O647 1.997 . S
Fe639 O650 1.996 . S
Fe639 O654 1.976 . S
Fe639 O657 2.002 . S
O640 Fe638 1.918 . S
O640 Fe639 1.918 . S
O640 Fe641 1.918 1_556 S
Fe641 O640 1.918 1_554 S
Fe641 O642 2.002 . S
Fe641 O651 1.976 . S
Fe641 O655 1.996 1_554 S
Fe641 O658 1.997 . S
O642 Fe641 2.002 . S
O642 C659 1.295 . S
O643 Fe638 1.997 1_554 S
O643 C659 1.235 . S
O644 Fe638 2.002 . S
O644 C645 1.295 . S
C645 O644 1.295 . S
C645 O647 1.235 . S
C646 O651 1.287 . S
C646 O652 1.254 . S
O647 Fe639 1.997 . S
O647 C645 1.235 . S
C648 O654 1.287 . S
C648 O655 1.255 . S
O649 Fe638 1.976 . S
O649 C656 1.287 . S
O650 Fe639 1.996 . S
O650 C656 1.255 . S
O651 Fe641 1.976 . S
O651 C646 1.287 . S
O652 Fe638 1.996 1_554 S
O652 C646 1.254 . S
C653 O657 1.295 1_554 S
C653 O658 1.235 . S
O654 Fe639 1.976 . S
O654 C648 1.287 . S
O655 Fe641 1.996 1_556 S
O655 C648 1.255 . S
C656 O649 1.287 . S
C656 O650 1.255 . S
O657 Fe639 2.002 . S
O657 C653 1.295 1_556 S
O658 Fe641 1.997 . S
O658 C653 1.235 . S
C659 O642 1.295 . S
C659 O643 1.235 . S
Fe660 O662 1.918 . S
Fe660 O665 1.997 . S
Fe660 O666 2.002 . S
Fe660 O671 1.976 . S
Fe660 O674 1.996 . S
Fe661 O662 1.918 . S
Fe661 O669 1.997 . S
Fe661 O672 1.996 . S
Fe661 O676 1.976 . S
Fe661 O679 2.002 . S
O662 Fe660 1.918 . S
O662 Fe661 1.918 . S
O662 Fe663 1.918 . S
Fe663 O662 1.918 . S
Fe663 O664 2.002 . S
Fe663 O673 1.976 . S
Fe663 O677 1.996 . S
Fe663 O680 1.997 . S
O664 Fe663 2.002 . S
O664 C681 1.295 . S
O665 Fe660 1.997 . S
O665 C681 1.235 . S
O666 Fe660 2.002 . S
O666 C667 1.295 . S
C667 O666 1.295 . S
C667 O669 1.235 . S
C668 O673 1.287 . S
C668 O674 1.255 . S
O669 Fe661 1.997 . S
O669 C667 1.235 . S
C670 O676 1.287 . S
C670 O677 1.255 . S
O671 Fe660 1.976 . S
O671 C678 1.287 . S
O672 Fe661 1.996 . S
O672 C678 1.255 . S
O673 Fe663 1.976 . S
O673 C668 1.287 . S
O674 Fe660 1.996 . S
O674 C668 1.255 . S
C675 O679 1.295 . S
C675 O680 1.235 . S
O676 Fe661 1.976 . S
O676 C670 1.287 . S
O677 Fe663 1.996 . S
O677 C670 1.255 . S
C678 O671 1.287 . S
C678 O672 1.255 . S
O679 Fe661 2.002 . S
O679 C675 1.295 . S
O680 Fe663 1.997 . S
O680 C675 1.235 . S
C681 O664 1.295 . S
C681 O665 1.235 . S
Fe682 O684 1.918 . S
Fe682 O687 1.997 . S
Fe682 O688 2.002 . S
Fe682 O693 1.976 . S
Fe682 O696 1.996 . S
Fe683 O684 1.918 . S
Fe683 O691 1.997 . S
Fe683 O694 1.996 . S
Fe683 O698 1.976 . S
Fe683 O701 2.002 . S
O684 Fe682 1.918 . S
O684 Fe683 1.918 . S
O684 Fe685 1.918 . S
Fe685 O684 1.918 . S
Fe685 O686 2.002 . S
Fe685 O695 1.976 . S
Fe685 O699 1.996 . S
Fe685 O702 1.997 . S
O686 Fe685 2.002 . S
O686 C703 1.295 . S
O687 Fe682 1.997 . S
O687 C703 1.235 . S
O688 Fe682 2.002 . S
O688 C689 1.295 . S
C689 O688 1.295 . S
C689 O691 1.235 . S
C690 O695 1.287 . S
C690 O696 1.255 . S
O691 Fe683 1.997 . S
O691 C689 1.235 . S
C692 O698 1.287 . S
C692 O699 1.255 . S
O693 Fe682 1.976 . S
O693 C700 1.287 . S
O694 Fe683 1.996 . S
O694 C700 1.255 . S
O695 Fe685 1.976 . S
O695 C690 1.287 . S
O696 Fe682 1.996 . S
O696 C690 1.255 . S
C697 O701 1.295 . S
C697 O702 1.235 . S
O698 Fe683 1.976 . S
O698 C692 1.287 . S
O699 Fe685 1.996 . S
O699 C692 1.255 . S
C700 O693 1.287 . S
C700 O694 1.255 . S
O701 Fe683 2.002 . S
O701 C697 1.295 . S
O702 Fe685 1.997 . S
O702 C697 1.235 . S
C703 O686 1.295 . S
C703 O687 1.235 . S
C704 C705 1.387 . S
C704 H708 0.945 1_554 S
C704 C713 1.390 . S
C705 C704 1.387 . S
C705 C707 1.387 . S
H706 C713 0.942 1_556 S
C707 C705 1.387 . S
C707 C709 1.390 . S
C707 H711 0.950 . S
H708 C704 0.945 1_556 S
C709 C707 1.390 . S
C709 C710 1.387 . S
C709 H712 0.950 . S
C710 C709 1.387 . S
C710 C713 1.387 . S
H711 C707 0.950 . S
H712 C709 0.950 . S
C713 C704 1.390 . S
C713 H706 0.942 1_554 S
C713 C710 1.387 . S
C714 C715 1.387 . S
C714 H718 0.950 . S
C714 C723 1.390 . S
C715 C714 1.387 . S
C715 C717 1.387 . S
H716 C723 0.950 . S
C717 C715 1.387 . S
C717 C719 1.390 . S
C717 H721 0.944 1_554 S
H718 C714 0.950 . S
C719 C717 1.390 . S
C719 C720 1.387 . S
C719 H722 0.946 1_554 S
C720 C719 1.387 . S
C720 C723 1.387 . S
H721 C717 0.944 1_556 S
H722 C719 0.946 1_556 S
C723 C714 1.390 . S
C723 H716 0.950 . S
C723 C720 1.387 . S
C724 C725 1.387 . S
C724 H728 0.950 . S
C724 C733 1.390 . S
C725 C724 1.387 . S
C725 C727 1.387 . S
H726 C733 0.950 . S
C727 C725 1.387 . S
C727 C729 1.390 . S
C727 H731 0.950 . S
H728 C724 0.950 . S
C729 C727 1.390 . S
C729 C730 1.387 . S
C729 H732 0.950 . S
C730 C729 1.387 . S
C730 C733 1.387 . S
H731 C727 0.950 . S
H732 C729 0.950 . S
C733 C724 1.390 . S
C733 H726 0.950 . S
C733 C730 1.387 . S
C734 C735 1.387 . S
C734 H738 0.950 . S
C734 C743 1.390 . S
C735 C734 1.387 . S
C735 C737 1.387 . S
H736 C743 0.950 . S
C737 C735 1.387 . S
C737 C739 1.390 . S
C737 H741 0.950 . S
H738 C734 0.950 . S
C739 C737 1.390 . S
C739 C740 1.387 . S
C739 H742 0.950 . S
C740 C739 1.387 . S
C740 C743 1.387 . S
H741 C737 0.950 . S
H742 C739 0.950 . S
C743 C734 1.390 . S
C743 H736 0.950 . S
C743 C740 1.387 . S
C744 C745 1.387 . S
C744 H748 0.950 1_556 S
C744 C753 1.390 . S
C745 C744 1.387 . S
C745 C747 1.387 . S
H746 C753 0.950 1_554 S
C747 C745 1.387 . S
C747 C749 1.390 . S
C747 H751 0.950 . S
H748 C744 0.950 1_554 S
C749 C747 1.390 . S
C749 C750 1.387 . S
C749 H752 0.950 . S
C750 C749 1.387 . S
C750 C753 1.387 . S
H751 C747 0.950 . S
H752 C749 0.950 . S
C753 C744 1.390 . S
C753 H746 0.950 1_556 S
C753 C750 1.387 . S
C754 C755 1.387 . S
C754 H758 0.950 1_556 S
C754 C763 1.390 . S
C755 C754 1.387 . S
C755 C757 1.387 . S
H756 C763 0.950 1_554 S
C757 C755 1.387 . S
C757 C759 1.390 . S
C757 H761 0.950 . S
H758 C754 0.950 1_554 S
C759 C757 1.390 . S
C759 C760 1.387 . S
C759 H762 0.950 . S
C760 C759 1.387 . S
C760 C763 1.387 . S
H761 C757 0.950 . S
H762 C759 0.950 . S
C763 C754 1.390 . S
C763 H756 0.950 1_556 S
C763 C760 1.387 . S
C764 C765 1.387 . S
C764 H768 0.950 . S
C764 C773 1.390 . S
C765 C764 1.387 . S
C765 C767 1.387 . S
H766 C773 0.950 . S
C767 C765 1.387 . S
C767 C769 1.390 . S
C767 H771 0.950 . S
H768 C764 0.950 . S
C769 C767 1.390 . S
C769 C770 1.387 . S
C769 H772 0.950 . S
C770 C769 1.387 . S
C770 C773 1.387 . S
H771 C767 0.950 . S
H772 C769 0.950 . S
C773 C764 1.390 . S
C773 H766 0.950 . S
C773 C770 1.387 . S
C774 C775 1.387 . S
C774 H778 0.950 . S
C774 C783 1.390 . S
C775 C774 1.387 . S
C775 C777 1.387 . S
H776 C783 0.950 . S
C777 C775 1.387 . S
C777 C779 1.390 . S
C777 H781 0.950 . S
H778 C774 0.950 . S
C779 C777 1.390 . S
C779 C780 1.387 . S
C779 H782 0.950 . S
C780 C779 1.387 . S
C780 C783 1.387 . S
H781 C777 0.950 . S
H782 C779 0.950 . S
C783 C774 1.390 . S
C783 H776 0.950 . S
C783 C780 1.387 . S
C784 C785 1.387 . S
C784 H788 0.950 . S
C784 C793 1.390 . S
C785 C784 1.387 . S
C785 C787 1.387 . S
H786 C793 0.950 . S
C787 C785 1.387 . S
C787 C789 1.390 . S
C787 H791 0.950 . S
H788 C784 0.950 . S
C789 C787 1.390 . S
C789 C790 1.387 . S
C789 H792 0.950 . S
C790 C789 1.387 . S
C790 C793 1.387 . S
H791 C787 0.950 . S
H792 C789 0.950 . S
C793 C784 1.390 . S
C793 H786 0.950 . S
C793 C790 1.387 . S
C794 C795 1.387 . S
C794 H798 0.950 . S
C794 C803 1.390 . S
C795 C794 1.387 . S
C795 C797 1.387 . S
H796 C803 0.950 . S
C797 C795 1.387 . S
C797 C799 1.390 . S
C797 H801 0.950 . S
H798 C794 0.950 . S
C799 C797 1.390 . S
C799 C800 1.387 . S
C799 H802 0.950 . S
C800 C799 1.387 . S
C800 C803 1.387 . S
H801 C797 0.950 . S
H802 C799 0.950 . S
C803 C794 1.390 . S
C803 H796 0.950 . S
C803 C800 1.387 . S
C804 C805 1.387 . S
C804 H808 0.950 . S
C804 C813 1.390 . S
C805 C804 1.387 . S
C805 C807 1.387 . S
H806 C813 0.950 . S
C807 C805 1.387 . S
C807 C809 1.390 . S
C807 H811 0.950 . S
H808 C804 0.950 . S
C809 C807 1.390 . S
C809 C810 1.387 . S
C809 H812 0.950 . S
C810 C809 1.387 . S
C810 C813 1.387 . S
H811 C807 0.950 . S
H812 C809 0.950 . S
C813 C804 1.390 . S
C813 H806 0.950 . S
C813 C810 1.387 . S
C814 C815 1.387 . S
C814 H818 0.950 . S
C814 C823 1.390 . S
C815 C814 1.387 . S
C815 C817 1.387 . S
H816 C823 0.950 . S
C817 C815 1.387 . S
C817 C819 1.390 . S
C817 H821 0.950 . S
H818 C814 0.950 . S
C819 C817 1.390 . S
C819 C820 1.387 . S
C819 H822 0.950 . S
C820 C819 1.387 . S
C820 C823 1.387 . S
H821 C817 0.950 . S
H822 C819 0.950 . S
C823 C814 1.390 . S
C823 H816 0.950 . S
C823 C820 1.387 . S
C824 C825 1.387 . S
C824 H828 0.950 . S
C824 C833 1.390 . S
C825 C824 1.387 . S
C825 C827 1.387 . S
H826 C833 0.950 . S
C827 C825 1.387 . S
C827 C829 1.390 . S
C827 H831 0.950 . S
H828 C824 0.950 . S
C829 C827 1.390 . S
C829 C830 1.387 . S
C829 H832 0.950 . S
C830 C829 1.387 . S
C830 C833 1.387 . S
H831 C827 0.950 . S
H832 C829 0.950 . S
C833 C824 1.390 . S
C833 H826 0.950 . S
C833 C830 1.387 . S
C834 C835 1.387 . S
C834 H838 0.950 . S
C834 C843 1.390 . S
C835 C834 1.387 . S
C835 C837 1.387 . S
H836 C843 0.950 . S
C837 C835 1.387 . S
C837 C839 1.390 . S
C837 H841 0.950 . S
H838 C834 0.950 . S
C839 C837 1.390 . S
C839 C840 1.387 . S
C839 H842 0.950 . S
C840 C839 1.387 . S
C840 C843 1.387 . S
H841 C837 0.950 . S
H842 C839 0.950 . S
C843 C834 1.390 . S
C843 H836 0.950 . S
C843 C840 1.387 . S
C844 C845 1.387 . S
C844 H848 0.950 . S
C844 C853 1.390 . S
C845 C844 1.387 . S
C845 C847 1.387 . S
H846 C853 0.950 . S
C847 C845 1.387 . S
C847 C849 1.390 . S
C847 H851 0.950 . S
H848 C844 0.950 . S
C849 C847 1.390 . S
C849 C850 1.387 . S
C849 H852 0.950 . S
C850 C849 1.387 . S
C850 C853 1.387 . S
H851 C847 0.950 . S
H852 C849 0.950 . S
C853 C844 1.390 . S
C853 H846 0.950 . S
C853 C850 1.387 . S
C854 C855 1.387 . S
C854 H858 0.950 . S
C854 C863 1.390 . S
C855 C854 1.387 . S
C855 C857 1.387 . S
H856 C863 0.950 . S
C857 C855 1.387 . S
C857 C859 1.390 . S
C857 H861 0.950 . S
H858 C854 0.950 . S
C859 C857 1.390 . S
C859 C860 1.387 . S
C859 H862 0.950 . S
C860 C859 1.387 . S
C860 C863 1.387 . S
H861 C857 0.950 . S
H862 C859 0.950 . S
C863 C854 1.390 . S
C863 H856 0.950 . S
C863 C860 1.387 . S
C864 C865 1.387 . S
C864 H868 0.950 . S
C864 C873 1.390 . S
C865 C864 1.387 . S
C865 C867 1.387 . S
H866 C873 0.950 . S
C867 C865 1.387 . S
C867 C869 1.390 . S
C867 H871 0.950 . S
H868 C864 0.950 . S
C869 C867 1.390 . S
C869 C870 1.387 . S
C869 H872 0.950 . S
C870 C869 1.387 . S
C870 C873 1.387 . S
H871 C867 0.950 . S
H872 C869 0.950 . S
C873 C864 1.390 . S
C873 H866 0.950 . S
C873 C870 1.387 . S
C874 C875 1.387 . S
C874 H878 0.950 . S
C874 C883 1.390 . S
C875 C874 1.387 . S
C875 C877 1.387 . S
H876 C883 0.950 . S
C877 C875 1.387 . S
C877 C879 1.390 . S
C877 H881 0.950 . S
H878 C874 0.950 . S
C879 C877 1.390 . S
C879 C880 1.387 . S
C879 H882 0.950 . S
C880 C879 1.387 . S
C880 C883 1.387 . S
H881 C877 0.950 . S
H882 C879 0.950 . S
C883 C874 1.390 . S
C883 H876 0.950 . S
C883 C880 1.387 . S
C884 C885 1.387 . S
C884 H888 0.950 . S
C884 C893 1.390 . S
C885 C884 1.387 . S
C885 C887 1.387 . S
H886 C893 0.950 . S
C887 C885 1.387 . S
C887 C889 1.390 . S
C887 H891 0.950 . S
H888 C884 0.950 . S
C889 C887 1.390 . S
C889 C890 1.387 . S
C889 H892 0.950 . S
C890 C889 1.387 . S
C890 C893 1.387 . S
H891 C887 0.950 . S
H892 C889 0.950 . S
C893 C884 1.390 . S
C893 H886 0.950 . S
C893 C890 1.387 . S
C894 C895 1.387 . S
C894 H898 0.950 . S
C894 C903 1.390 . S
C895 C894 1.387 . S
C895 C897 1.387 . S
H896 C903 0.950 . S
C897 C895 1.387 . S
C897 C899 1.390 . S
C897 H901 0.950 . S
H898 C894 0.950 . S
C899 C897 1.390 . S
C899 C900 1.387 . S
C899 H902 0.950 . S
C900 C899 1.387 . S
C900 C903 1.387 . S
H901 C897 0.950 . S
H902 C899 0.950 . S
C903 C894 1.390 . S
C903 H896 0.950 . S
C903 C900 1.387 . S
C904 C905 1.387 . S
C904 H908 0.950 . S
C904 C913 1.390 . S
C905 C904 1.387 . S
C905 C907 1.387 . S
H906 C913 0.950 . S
C907 C905 1.387 . S
C907 C909 1.390 . S
C907 H911 0.950 . S
H908 C904 0.950 . S
C909 C907 1.390 . S
C909 C910 1.387 . S
C909 H912 0.950 . S
C910 C909 1.387 . S
C910 C913 1.387 . S
H911 C907 0.950 . S
H912 C909 0.950 . S
C913 C904 1.390 . S
C913 H906 0.950 . S
C913 C910 1.387 . S
C914 C915 1.387 . S
C914 H918 0.950 . S
C914 C923 1.390 . S
C915 C914 1.387 . S
C915 C917 1.387 . S
H916 C923 0.950 . S
C917 C915 1.387 . S
C917 C919 1.390 . S
C917 H921 0.950 . S
H918 C914 0.950 . S
C919 C917 1.390 . S
C919 C920 1.387 . S
C919 H922 0.950 . S
C920 C919 1.387 . S
C920 C923 1.387 . S
H921 C917 0.950 . S
H922 C919 0.950 . S
C923 C914 1.390 . S
C923 H916 0.950 . S
C923 C920 1.387 . S
C924 C925 1.387 . S
C924 H928 0.950 . S
C924 C933 1.390 . S
C925 C924 1.387 . S
C925 C927 1.387 . S
H926 C933 0.950 . S
C927 C925 1.387 . S
C927 C929 1.390 . S
C927 H931 0.950 . S
H928 C924 0.950 . S
C929 C927 1.390 . S
C929 C930 1.387 . S
C929 H932 0.950 . S
C930 C929 1.387 . S
C930 C933 1.387 . S
H931 C927 0.950 . S
H932 C929 0.950 . S
C933 C924 1.390 . S
C933 H926 0.950 . S
C933 C930 1.387 . S
C934 C935 1.387 . S
C934 H938 0.950 . S
C934 C943 1.390 . S
C935 C934 1.387 . S
C935 C937 1.387 . S
H936 C943 0.950 . S
C937 C935 1.387 . S
C937 C939 1.390 . S
C937 H941 0.950 . S
H938 C934 0.950 . S
C939 C937 1.390 . S
C939 C940 1.387 . S
C939 H942 0.950 . S
C940 C939 1.387 . S
C940 C943 1.387 . S
H941 C937 0.950 . S
H942 C939 0.950 . S
C943 C934 1.390 . S
C943 H936 0.950 . S
C943 C940 1.387 . S
C944 C945 1.387 . S
C944 H948 0.950 . S
C944 C953 1.390 . S
C945 C944 1.387 . S
C945 C947 1.387 . S
H946 C953 0.950 . S
C947 C945 1.387 . S
C947 C949 1.390 . S
C947 H951 0.950 . S
H948 C944 0.950 . S
C949 C947 1.390 . S
C949 C950 1.387 . S
C949 H952 0.950 . S
C950 C949 1.387 . S
C950 C953 1.387 . S
H951 C947 0.950 . S
H952 C949 0.950 . S
C953 C944 1.390 . S
C953 H946 0.950 . S
C953 C950 1.387 . S
C954 C955 1.387 . S
C954 H958 0.950 . S
C954 C963 1.390 . S
C955 C954 1.387 . S
C955 C957 1.387 . S
H956 C963 0.950 . S
C957 C955 1.387 . S
C957 C959 1.390 . S
C957 H961 0.950 . S
H958 C954 0.950 . S
C959 C957 1.390 . S
C959 C960 1.387 . S
C959 H962 0.950 . S
C960 C959 1.387 . S
C960 C963 1.387 . S
H961 C957 0.950 . S
H962 C959 0.950 . S
C963 C954 1.390 . S
C963 H956 0.950 . S
C963 C960 1.387 . S
C964 C965 1.387 . S
C964 H968 0.950 . S
C964 C973 1.390 . S
C965 C964 1.387 . S
C965 C967 1.387 . S
H966 C973 0.950 . S
C967 C965 1.387 . S
C967 C969 1.390 . S
C967 H971 0.950 . S
H968 C964 0.950 . S
C969 C967 1.390 . S
C969 C970 1.387 . S
C969 H972 0.950 . S
C970 C969 1.387 . S
C970 C973 1.387 . S
H971 C967 0.950 . S
H972 C969 0.950 . S
C973 C964 1.390 . S
C973 H966 0.950 . S
C973 C970 1.387 . S
C974 C975 1.387 . S
C974 H978 0.950 . S
C974 C983 1.390 . S
C975 C974 1.387 . S
C975 C977 1.387 . S
H976 C983 0.950 . S
C977 C975 1.387 . S
C977 C979 1.390 . S
C977 H981 0.950 . S
H978 C974 0.950 . S
C979 C977 1.390 . S
C979 C980 1.387 . S
C979 H982 0.950 . S
C980 C979 1.387 . S
C980 C983 1.387 . S
H981 C977 0.950 . S
H982 C979 0.950 . S
C983 C974 1.390 . S
C983 H976 0.950 . S
C983 C980 1.387 . S
C984 C985 1.387 . S
C984 H988 0.950 . S
C984 C993 1.390 . S
C985 C984 1.387 . S
C985 C987 1.387 . S
H986 C993 0.950 . S
C987 C985 1.387 . S
C987 C989 1.390 . S
C987 H991 0.950 . S
H988 C984 0.950 . S
C989 C987 1.390 . S
C989 C990 1.387 . S
C989 H992 0.950 . S
C990 C989 1.387 . S
C990 C993 1.387 . S
H991 C987 0.950 . S
H992 C989 0.950 . S
C993 C984 1.390 . S
C993 H986 0.950 . S
C993 C990 1.387 . S
C994 C995 1.387 . S
C994 H998 0.950 . S
C994 C1003 1.390 . S
C995 C994 1.387 . S
C995 C997 1.387 . S
H996 C1003 0.950 . S
C997 C995 1.387 . S
C997 C999 1.390 . S
C997 H1001 0.950 . S
H998 C994 0.950 . S
C999 C997 1.390 . S
C999 C1000 1.387 . S
C999 H1002 0.950 . S
C1000 C999 1.387 . S
C1000 C1003 1.387 . S
H1001 C997 0.950 . S
H1002 C999 0.950 . S
C1003 C994 1.390 . S
C1003 H996 0.950 . S
C1003 C1000 1.387 . S
C1004 C1005 1.387 . S
C1004 H1008 0.950 . S
C1004 C1013 1.390 . S
C1005 C1004 1.387 . S
C1005 C1007 1.387 . S
H1006 C1013 0.950 . S
C1007 C1005 1.387 . S
C1007 C1009 1.390 . S
C1007 H1011 0.950 . S
H1008 C1004 0.950 . S
C1009 C1007 1.390 . S
C1009 C1010 1.387 . S
C1009 H1012 0.950 . S
C1010 C1009 1.387 . S
C1010 C1013 1.387 . S
H1011 C1007 0.950 . S
H1012 C1009 0.950 . S
C1013 C1004 1.390 . S
C1013 H1006 0.950 . S
C1013 C1010 1.387 . S
C1014 C1015 1.387 . S
C1014 H1018 0.950 . S
C1014 C1023 1.390 . S
C1015 C1014 1.387 . S
C1015 C1017 1.387 . S
H1016 C1023 0.950 . S
C1017 C1015 1.387 . S
C1017 C1019 1.390 . S
C1017 H1021 0.950 . S
H1018 C1014 0.950 . S
C1019 C1017 1.390 . S
C1019 C1020 1.387 . S
C1019 H1022 0.950 . S
C1020 C1019 1.387 . S
C1020 C1023 1.387 . S
H1021 C1017 0.950 . S
H1022 C1019 0.950 . S
C1023 C1014 1.390 . S
C1023 H1016 0.950 . S
C1023 C1020 1.387 . S
C1024 C1025 1.387 1_556 S
C1024 H1028 0.950 . S
C1024 C1033 1.390 . S
C1025 C1024 1.387 1_554 S
C1025 C1027 1.387 1_565 S
H1026 C1033 0.950 . S
C1027 C1025 1.387 1_545 S
C1027 C1029 1.390 . S
C1027 H1031 0.950 . S
H1028 C1024 0.950 . S
C1029 C1027 1.390 . S
C1029 C1030 1.387 1_554 S
C1029 H1032 0.950 . S
C1030 C1029 1.387 1_556 S
C1030 C1033 1.387 1_545 S
H1031 C1027 0.950 . S
H1032 C1029 0.950 . S
C1033 C1024 1.390 . S
C1033 H1026 0.950 . S
C1033 C1030 1.387 1_565 S
C1034 C1035 1.387 . S
C1034 H1038 0.950 . S
C1034 C1043 1.390 . S
C1035 C1034 1.387 . S
C1035 C1037 1.387 1_556 S
H1036 C1043 0.950 . S
C1037 C1035 1.387 1_554 S
C1037 C1039 1.390 . S
C1037 H1041 0.950 . S
H1038 C1034 0.950 . S
C1039 C1037 1.390 . S
C1039 C1040 1.387 . S
C1039 H1042 0.950 . S
C1040 C1039 1.387 . S
C1040 C1043 1.387 1_554 S
H1041 C1037 0.950 . S
H1042 C1039 0.950 . S
C1043 C1034 1.390 . S
C1043 H1036 0.950 . S
C1043 C1040 1.387 1_556 S
C1044 C1045 1.387 . S
C1044 H1048 0.950 . S
C1044 C1053 1.390 . S
C1045 C1044 1.387 . S
C1045 C1047 1.387 . S
H1046 C1053 0.950 . S
C1047 C1045 1.387 . S
C1047 C1049 1.390 . S
C1047 H1051 0.950 . S
H1048 C1044 0.950 . S
C1049 C1047 1.390 . S
C1049 C1050 1.387 . S
C1049 H1052 0.950 . S
C1050 C1049 1.387 . S
C1050 C1053 1.387 . S
H1051 C1047 0.950 . S
H1052 C1049 0.950 . S
C1053 C1044 1.390 . S
C1053 H1046 0.950 . S
C1053 C1050 1.387 . S
C1054 C1055 1.387 . S
C1054 H1058 0.950 . S
C1054 C1063 1.390 . S
C1055 C1054 1.387 . S
C1055 C1057 1.387 1_565 S
H1056 C1063 0.950 . S
C1057 C1055 1.387 1_545 S
C1057 C1059 1.390 . S
C1057 H1061 0.950 . S
H1058 C1054 0.950 . S
C1059 C1057 1.390 . S
C1059 C1060 1.387 . S
C1059 H1062 0.950 . S
C1060 C1059 1.387 . S
C1060 C1063 1.387 1_545 S
H1061 C1057 0.950 . S
H1062 C1059 0.950 . S
C1063 C1054 1.390 . S
C1063 H1056 0.950 . S
C1063 C1060 1.387 1_565 S
C1064 C1065 1.387 1_556 S
C1064 H1068 0.950 . S
C1064 C1073 1.390 . S
C1065 C1064 1.387 1_554 S
C1065 C1067 1.387 . S
H1066 C1073 0.950 . S
C1067 C1065 1.387 . S
C1067 C1069 1.390 . S
C1067 H1071 0.950 . S
H1068 C1064 0.950 . S
C1069 C1067 1.390 . S
C1069 C1070 1.387 1_554 S
C1069 H1072 0.950 . S
C1070 C1069 1.387 1_556 S
C1070 C1073 1.387 . S
H1071 C1067 0.950 . S
H1072 C1069 0.950 . S
C1073 C1064 1.390 . S
C1073 H1066 0.950 . S
C1073 C1070 1.387 . S
C1074 C1075 1.387 . S
C1074 H1078 0.950 . S
C1074 C1083 1.390 . S
C1075 C1074 1.387 . S
C1075 C1077 1.387 . S
H1076 C1083 0.950 . S
C1077 C1075 1.387 . S
C1077 C1079 1.390 . S
C1077 H1081 0.950 . S
H1078 C1074 0.950 . S
C1079 C1077 1.390 . S
C1079 C1080 1.387 . S
C1079 H1082 0.950 . S
C1080 C1079 1.387 . S
C1080 C1083 1.387 . S
H1081 C1077 0.950 . S
H1082 C1079 0.950 . S
C1083 C1074 1.390 . S
C1083 H1076 0.950 . S
C1083 C1080 1.387 . S
C1084 C1085 1.387 1_565 S
C1084 H1088 0.950 . S
C1084 C1093 1.390 . S
C1085 C1084 1.387 1_545 S
C1085 C1087 1.387 . S
H1086 C1093 0.950 . S
C1087 C1085 1.387 . S
C1087 C1089 1.390 . S
C1087 H1091 0.950 . S
H1088 C1084 0.950 . S
C1089 C1087 1.390 . S
C1089 C1090 1.387 1_545 S
C1089 H1092 0.950 . S
C1090 C1089 1.387 1_565 S
C1090 C1093 1.387 . S
H1091 C1087 0.950 . S
H1092 C1089 0.950 . S
C1093 C1084 1.390 . S
C1093 H1086 0.950 . S
C1093 C1090 1.387 . S
C1094 C1095 1.387 . S
C1094 H1098 0.950 . S
C1094 C1103 1.390 . S
C1095 C1094 1.387 . S
C1095 C1097 1.387 . S
H1096 C1103 0.950 . S
C1097 C1095 1.387 . S
C1097 C1099 1.390 . S
C1097 H1101 0.950 . S
H1098 C1094 0.950 . S
C1099 C1097 1.390 . S
C1099 C1100 1.387 . S
C1099 H1102 0.950 . S
C1100 C1099 1.387 . S
C1100 C1103 1.387 . S
H1101 C1097 0.950 . S
H1102 C1099 0.950 . S
C1103 C1094 1.390 . S
C1103 H1096 0.950 . S
C1103 C1100 1.387 . S
C1104 C1105 1.387 . S
C1104 H1108 0.950 . S
C1104 C1113 1.390 . S
C1105 C1104 1.387 . S
C1105 C1107 1.387 . S
H1106 C1113 0.950 . S
C1107 C1105 1.387 . S
C1107 C1109 1.390 . S
C1107 H1111 0.950 . S
H1108 C1104 0.950 . S
C1109 C1107 1.390 . S
C1109 C1110 1.387 . S
C1109 H1112 0.950 . S
C1110 C1109 1.387 . S
C1110 C1113 1.387 . S
H1111 C1107 0.950 . S
H1112 C1109 0.950 . S
C1113 C1104 1.390 . S
C1113 H1106 0.950 . S
C1113 C1110 1.387 . S
C1114 C1115 1.387 . S
C1114 H1118 0.950 . S
C1114 C1123 1.390 . S
C1115 C1114 1.387 . S
C1115 C1117 1.387 . S
H1116 C1123 0.950 . S
C1117 C1115 1.387 . S
C1117 C1119 1.390 . S
C1117 H1121 0.950 . S
H1118 C1114 0.950 . S
C1119 C1117 1.390 . S
C1119 C1120 1.387 . S
C1119 H1122 0.950 . S
C1120 C1119 1.387 . S
C1120 C1123 1.387 . S
H1121 C1117 0.950 . S
H1122 C1119 0.950 . S
C1123 C1114 1.390 . S
C1123 H1116 0.950 . S
C1123 C1120 1.387 . S
C1124 C1125 1.387 . S
C1124 H1128 0.950 . S
C1124 C1133 1.390 . S
C1125 C1124 1.387 . S
C1125 C1127 1.387 . S
H1126 C1133 0.950 . S
C1127 C1125 1.387 . S
C1127 C1129 1.390 . S
C1127 H1131 0.950 . S
H1128 C1124 0.950 . S
C1129 C1127 1.390 . S
C1129 C1130 1.387 . S
C1129 H1132 0.950 . S
C1130 C1129 1.387 . S
C1130 C1133 1.387 . S
H1131 C1127 0.950 . S
H1132 C1129 0.950 . S
C1133 C1124 1.390 . S
C1133 H1126 0.950 . S
C1133 C1130 1.387 . S
C1134 C1135 1.387 . S
C1134 H1138 0.950 . S
C1134 C1143 1.390 . S
C1135 C1134 1.387 . S
C1135 C1137 1.387 . S
H1136 C1143 0.950 . S
C1137 C1135 1.387 . S
C1137 C1139 1.390 . S
C1137 H1141 0.950 . S
H1138 C1134 0.950 . S
C1139 C1137 1.390 . S
C1139 C1140 1.387 . S
C1139 H1142 0.950 . S
C1140 C1139 1.387 . S
C1140 C1143 1.387 . S
H1141 C1137 0.950 . S
H1142 C1139 0.950 . S
C1143 C1134 1.390 . S
C1143 H1136 0.950 . S
C1143 C1140 1.387 . S
C1144 C1145 1.387 . S
C1144 H1148 0.950 . S
C1144 C1153 1.390 1_455 S
C1145 C1144 1.387 . S
C1145 C1147 1.387 1_565 S
H1146 C1153 0.950 . S
C1147 C1145 1.387 1_545 S
C1147 C1149 1.390 1_455 S
C1147 H1151 0.950 . S
H1148 C1144 0.950 . S
C1149 C1147 1.390 1_655 S
C1149 C1150 1.387 . S
C1149 H1152 0.950 . S
C1150 C1149 1.387 . S
C1150 C1153 1.387 1_545 S
H1151 C1147 0.950 . S
H1152 C1149 0.950 . S
C1153 C1144 1.390 1_655 S
C1153 H1146 0.950 . S
C1153 C1150 1.387 1_565 S
C1154 C1155 1.387 1_655 S
C1154 H1158 0.950 . S
C1154 C1163 1.390 . S
C1155 C1154 1.387 1_455 S
C1155 C1157 1.387 . S
H1156 C1163 0.950 . S
C1157 C1155 1.387 . S
C1157 C1159 1.390 . S
C1157 H1161 0.950 . S
H1158 C1154 0.950 . S
C1159 C1157 1.390 . S
C1159 C1160 1.387 1_455 S
C1159 H1162 0.950 . S
C1160 C1159 1.387 1_655 S
C1160 C1163 1.387 . S
H1161 C1157 0.950 . S
H1162 C1159 0.950 . S
C1163 C1154 1.390 . S
C1163 H1156 0.950 . S
C1163 C1160 1.387 . S
C1164 C1165 1.387 . S
C1164 H1168 0.950 . S
C1164 C1173 1.390 1_655 S
C1165 C1164 1.387 . S
C1165 C1167 1.387 . S
H1166 C1173 0.950 . S
C1167 C1165 1.387 . S
C1167 C1169 1.390 1_655 S
C1167 H1171 0.950 . S
H1168 C1164 0.950 . S
C1169 C1167 1.390 1_455 S
C1169 C1170 1.387 . S
C1169 H1172 0.950 . S
C1170 C1169 1.387 . S
C1170 C1173 1.387 . S
H1171 C1167 0.950 . S
H1172 C1169 0.950 . S
C1173 C1164 1.390 1_455 S
C1173 H1166 0.950 . S
C1173 C1170 1.387 . S
C1174 C1175 1.387 1_554 S
C1174 H1178 0.950 . S
C1174 C1183 1.390 1_655 S
C1175 C1174 1.387 1_556 S
C1175 C1177 1.387 . S
H1176 C1183 0.950 . S
C1177 C1175 1.387 . S
C1177 C1179 1.390 1_655 S
C1177 H1181 0.950 . S
H1178 C1174 0.950 . S
C1179 C1177 1.390 1_455 S
C1179 C1180 1.387 1_556 S
C1179 H1182 0.950 . S
C1180 C1179 1.387 1_554 S
C1180 C1183 1.387 . S
H1181 C1177 0.950 . S
H1182 C1179 0.950 . S
C1183 C1174 1.390 1_455 S
C1183 H1176 0.950 . S
C1183 C1180 1.387 . S
C1184 C1185 1.387 . S
C1184 H1188 0.950 . S
C1184 C1193 1.390 . S
C1185 C1184 1.387 . S
C1185 C1187 1.387 . S
H1186 C1193 0.950 . S
C1187 C1185 1.387 . S
C1187 C1189 1.390 . S
C1187 H1191 0.950 . S
H1188 C1184 0.950 . S
C1189 C1187 1.390 . S
C1189 C1190 1.387 . S
C1189 H1192 0.950 . S
C1190 C1189 1.387 . S
C1190 C1193 1.387 . S
H1191 C1187 0.950 . S
H1192 C1189 0.950 . S
C1193 C1184 1.390 . S
C1193 H1186 0.950 . S
C1193 C1190 1.387 . S
C1194 C1195 1.387 . S
C1194 H1198 0.950 . S
C1194 C1203 1.390 . S
C1195 C1194 1.387 . S
C1195 C1197 1.387 . S
H1196 C1203 0.950 . S
C1197 C1195 1.387 . S
C1197 C1199 1.390 . S
C1197 H1201 0.950 . S
H1198 C1194 0.950 . S
C1199 C1197 1.390 . S
C1199 C1200 1.387 . S
C1199 H1202 0.950 . S
C1200 C1199 1.387 . S
C1200 C1203 1.387 . S
H1201 C1197 0.950 . S
H1202 C1199 0.950 . S
C1203 C1194 1.390 . S
C1203 H1196 0.950 . S
C1203 C1200 1.387 . S
C1204 C1205 1.387 . S
C1204 H1208 0.950 . S
C1204 C1213 1.390 . S
C1205 C1204 1.387 . S
C1205 C1207 1.387 . S
H1206 C1213 0.950 . S
C1207 C1205 1.387 . S
C1207 C1209 1.390 . S
C1207 H1211 0.950 . S
H1208 C1204 0.950 . S
C1209 C1207 1.390 . S
C1209 C1210 1.387 . S
C1209 H1212 0.950 . S
C1210 C1209 1.387 . S
C1210 C1213 1.387 . S
H1211 C1207 0.950 . S
H1212 C1209 0.950 . S
C1213 C1204 1.390 . S
C1213 H1206 0.950 . S
C1213 C1210 1.387 . S
C1214 C1215 1.387 . S
C1214 H1218 0.950 . S
C1214 C1223 1.390 . S
C1215 C1214 1.387 . S
C1215 C1217 1.387 . S
H1216 C1223 0.950 . S
C1217 C1215 1.387 . S
C1217 C1219 1.390 . S
C1217 H1221 0.950 . S
H1218 C1214 0.950 . S
C1219 C1217 1.390 . S
C1219 C1220 1.387 . S
C1219 H1222 0.950 . S
C1220 C1219 1.387 . S
C1220 C1223 1.387 . S
H1221 C1217 0.950 . S
H1222 C1219 0.950 . S
C1223 C1214 1.390 . S
C1223 H1216 0.950 . S
C1223 C1220 1.387 . S
C1224 C1225 1.387 . S
C1224 H1228 0.950 . S
C1224 C1233 1.390 . S
C1225 C1224 1.387 . S
C1225 C1227 1.387 . S
H1226 C1233 0.950 . S
C1227 C1225 1.387 . S
C1227 C1229 1.390 . S
C1227 H1231 0.950 . S
H1228 C1224 0.950 . S
C1229 C1227 1.390 . S
C1229 C1230 1.387 . S
C1229 H1232 0.950 . S
C1230 C1229 1.387 . S
C1230 C1233 1.387 . S
H1231 C1227 0.950 . S
H1232 C1229 0.950 . S
C1233 C1224 1.390 . S
C1233 H1226 0.950 . S
C1233 C1230 1.387 . S
C1234 C1235 1.387 . S
C1234 H1238 0.950 . S
C1234 C1243 1.390 . S
C1235 C1234 1.387 . S
C1235 C1237 1.387 . S
H1236 C1243 0.950 . S
C1237 C1235 1.387 . S
C1237 C1239 1.390 . S
C1237 H1241 0.950 . S
H1238 C1234 0.950 . S
C1239 C1237 1.390 . S
C1239 C1240 1.387 . S
C1239 H1242 0.950 . S
C1240 C1239 1.387 . S
C1240 C1243 1.387 . S
H1241 C1237 0.950 . S
H1242 C1239 0.950 . S
C1243 C1234 1.390 . S
C1243 H1236 0.950 . S
C1243 C1240 1.387 . S
C1244 C1245 1.387 . S
C1244 H1248 0.950 . S
C1244 C1253 1.390 . S
C1245 C1244 1.387 . S
C1245 C1247 1.387 . S
H1246 C1253 0.950 . S
C1247 C1245 1.387 . S
C1247 C1249 1.390 . S
C1247 H1251 0.950 . S
H1248 C1244 0.950 . S
C1249 C1247 1.390 . S
C1249 C1250 1.387 . S
C1249 H1252 0.950 . S
C1250 C1249 1.387 . S
C1250 C1253 1.387 . S
H1251 C1247 0.950 . S
H1252 C1249 0.950 . S
C1253 C1244 1.390 . S
C1253 H1246 0.950 . S
C1253 C1250 1.387 . S
C1254 C1255 1.387 . S
C1254 H1258 0.950 . S
C1254 C1263 1.390 . S
C1255 C1254 1.387 . S
C1255 C1257 1.387 . S
H1256 C1263 0.950 . S
C1257 C1255 1.387 . S
C1257 C1259 1.390 . S
C1257 H1261 0.950 . S
H1258 C1254 0.950 . S
C1259 C1257 1.390 . S
C1259 C1260 1.387 . S
C1259 H1262 0.950 . S
C1260 C1259 1.387 . S
C1260 C1263 1.387 . S
H1261 C1257 0.950 . S
H1262 C1259 0.950 . S
C1263 C1254 1.390 . S
C1263 H1256 0.950 . S
C1263 C1260 1.387 . S
C1264 C1265 1.387 . S
C1264 H1268 0.950 . S
C1264 C1273 1.390 . S
C1265 C1264 1.387 . S
C1265 C1267 1.387 . S
H1266 C1273 0.950 . S
C1267 C1265 1.387 . S
C1267 C1269 1.390 . S
C1267 H1271 0.950 . S
H1268 C1264 0.950 . S
C1269 C1267 1.390 . S
C1269 C1270 1.387 . S
C1269 H1272 0.950 . S
C1270 C1269 1.387 . S
C1270 C1273 1.387 . S
H1271 C1267 0.950 . S
H1272 C1269 0.950 . S
C1273 C1264 1.390 . S
C1273 H1266 0.950 . S
C1273 C1270 1.387 . S
C1274 C1275 1.387 . S
C1274 H1278 0.950 . S
C1274 C1283 1.390 . S
C1275 C1274 1.387 . S
C1275 C1277 1.387 . S
H1276 C1283 0.950 . S
C1277 C1275 1.387 . S
C1277 C1279 1.390 . S
C1277 H1281 0.950 . S
H1278 C1274 0.950 . S
C1279 C1277 1.390 . S
C1279 C1280 1.387 . S
C1279 H1282 0.950 . S
C1280 C1279 1.387 . S
C1280 C1283 1.387 . S
H1281 C1277 0.950 . S
H1282 C1279 0.950 . S
C1283 C1274 1.390 . S
C1283 H1276 0.950 . S
C1283 C1280 1.387 . S
C1284 C1285 1.387 . S
C1284 H1288 0.950 . S
C1284 C1293 1.390 . S
C1285 C1284 1.387 . S
C1285 C1287 1.387 . S
H1286 C1293 0.950 . S
C1287 C1285 1.387 . S
C1287 C1289 1.390 . S
C1287 H1291 0.950 . S
H1288 C1284 0.950 . S
C1289 C1287 1.390 . S
C1289 C1290 1.387 . S
C1289 H1292 0.950 . S
C1290 C1289 1.387 . S
C1290 C1293 1.387 . S
H1291 C1287 0.950 . S
H1292 C1289 0.950 . S
C1293 C1284 1.390 . S
C1293 H1286 0.950 . S
C1293 C1290 1.387 . S
C1294 C1295 1.387 . S
C1294 H1298 0.950 . S
C1294 C1303 1.390 . S
C1295 C1294 1.387 . S
C1295 C1297 1.387 . S
H1296 C1303 0.950 . S
C1297 C1295 1.387 . S
C1297 C1299 1.390 . S
C1297 H1301 0.950 . S
H1298 C1294 0.950 . S
C1299 C1297 1.390 . S
C1299 C1300 1.387 . S
C1299 H1302 0.950 . S
C1300 C1299 1.387 . S
C1300 C1303 1.387 . S
H1301 C1297 0.950 . S
H1302 C1299 0.950 . S
C1303 C1294 1.390 . S
C1303 H1296 0.950 . S
C1303 C1300 1.387 . S
C1304 C1305 1.387 . S
C1304 H1308 0.950 . S
C1304 C1313 1.390 . S
C1305 C1304 1.387 . S
C1305 C1307 1.387 . S
H1306 C1313 0.950 . S
C1307 C1305 1.387 . S
C1307 C1309 1.390 . S
C1307 H1311 0.950 . S
H1308 C1304 0.950 . S
C1309 C1307 1.390 . S
C1309 C1310 1.387 . S
C1309 H1312 0.950 . S
C1310 C1309 1.387 . S
C1310 C1313 1.387 . S
H1311 C1307 0.950 . S
H1312 C1309 0.950 . S
C1313 C1304 1.390 . S
C1313 H1306 0.950 . S
C1313 C1310 1.387 . S
C1314 C1315 1.387 . S
C1314 H1318 0.950 . S
C1314 C1323 1.390 . S
C1315 C1314 1.387 . S
C1315 C1317 1.387 . S
H1316 C1323 0.950 . S
C1317 C1315 1.387 . S
C1317 C1319 1.390 . S
C1317 H1321 0.950 . S
H1318 C1314 0.950 . S
C1319 C1317 1.390 . S
C1319 C1320 1.387 . S
C1319 H1322 0.950 . S
C1320 C1319 1.387 . S
C1320 C1323 1.387 . S
H1321 C1317 0.950 . S
H1322 C1319 0.950 . S
C1323 C1314 1.390 . S
C1323 H1316 0.950 . S
C1323 C1320 1.387 . S
C1324 C1325 1.387 . S
C1324 H1328 0.950 . S
C1324 C1333 1.390 . S
C1325 C1324 1.387 . S
C1325 C1327 1.387 . S
H1326 C1333 0.950 . S
C1327 C1325 1.387 . S
C1327 C1329 1.390 . S
C1327 H1331 0.950 . S
H1328 C1324 0.950 . S
C1329 C1327 1.390 . S
C1329 C1330 1.387 . S
C1329 H1332 0.950 . S
C1330 C1329 1.387 . S
C1330 C1333 1.387 . S
H1331 C1327 0.950 . S
H1332 C1329 0.950 . S
C1333 C1324 1.390 . S
C1333 H1326 0.950 . S
C1333 C1330 1.387 . S
C1334 C1335 1.387 . S
C1334 H1338 0.950 . S
C1334 C1343 1.390 . S
C1335 C1334 1.387 . S
C1335 C1337 1.387 . S
H1336 C1343 0.950 . S
C1337 C1335 1.387 . S
C1337 C1339 1.390 . S
C1337 H1341 0.950 . S
H1338 C1334 0.950 . S
C1339 C1337 1.390 . S
C1339 C1340 1.387 . S
C1339 H1342 0.950 . S
C1340 C1339 1.387 . S
C1340 C1343 1.387 . S
H1341 C1337 0.950 . S
H1342 C1339 0.950 . S
C1343 C1334 1.390 . S
C1343 H1336 0.950 . S
C1343 C1340 1.387 . S
C1344 C1345 1.387 . S
C1344 H1348 0.950 . S
C1344 C1353 1.390 1_565 S
C1345 C1344 1.387 . S
C1345 C1347 1.387 1_566 S
H1346 C1353 0.950 . S
C1347 C1345 1.387 1_544 S
C1347 C1349 1.390 . S
C1347 H1351 0.950 . S
H1348 C1344 0.950 . S
C1349 C1347 1.390 . S
C1349 C1350 1.387 1_554 S
C1349 H1352 0.950 . S
C1350 C1349 1.387 1_556 S
C1350 C1353 1.387 . S
H1351 C1347 0.950 . S
H1352 C1349 0.950 . S
C1353 C1344 1.390 1_545 S
C1353 H1346 0.950 . S
C1353 C1350 1.387 . S
C1354 C1355 1.387 . S
C1354 H1358 0.950 . S
C1354 C1363 1.390 . S
C1355 C1354 1.387 . S
C1355 C1357 1.387 1_556 S
H1356 C1363 0.948 1_655 S
C1357 C1355 1.387 1_554 S
C1357 C1359 1.390 . S
C1357 H1361 0.950 . S
H1358 C1354 0.950 . S
C1359 C1357 1.390 . S
C1359 C1360 1.387 1_454 S
C1359 H1362 0.950 . S
C1360 C1359 1.387 1_656 S
C1360 C1363 1.387 1_655 S
H1361 C1357 0.950 . S
H1362 C1359 0.950 . S
C1363 C1354 1.390 . S
C1363 H1356 0.948 1_455 S
C1363 C1360 1.387 1_455 S
C1364 C1365 1.387 . S
C1364 H1368 0.950 . S
C1364 C1373 1.390 . S
C1365 C1364 1.387 . S
C1365 C1367 1.387 . S
H1366 C1373 0.950 . S
C1367 C1365 1.387 . S
C1367 C1369 1.390 . S
C1367 H1371 0.950 . S
H1368 C1364 0.950 . S
C1369 C1367 1.390 . S
C1369 C1370 1.387 . S
C1369 H1372 0.950 . S
C1370 C1369 1.387 . S
C1370 C1373 1.387 . S
H1371 C1367 0.950 . S
H1372 C1369 0.950 . S
C1373 C1364 1.390 . S
C1373 H1366 0.950 . S
C1373 C1370 1.387 . S
C1374 C1375 1.387 1_455 S
C1374 H1378 0.950 . S
C1374 C1383 1.381 1_545 S
C1375 C1374 1.387 1_655 S
C1375 C1377 1.387 1_655 S
H1376 C1383 0.955 . S
C1377 C1375 1.387 1_455 S
C1377 C1379 1.390 . S
C1377 H1381 0.958 . S
H1378 C1374 0.950 . S
C1379 C1377 1.390 . S
C1379 C1380 1.387 1_545 S
C1379 H1382 0.950 1_545 S
C1380 C1379 1.387 1_565 S
C1380 C1383 1.391 . S
H1381 C1377 0.958 . S
H1382 C1379 0.950 1_565 S
C1383 C1374 1.381 1_565 S
C1383 H1376 0.955 . S
C1383 C1380 1.391 . S
C1384 C1385 1.387 1_556 S
C1384 H1388 0.950 . S
C1384 C1393 1.390 1_565 S
C1385 C1384 1.387 1_554 S
C1385 C1387 1.387 . S
H1386 C1393 0.950 . S
C1387 C1385 1.387 . S
C1387 C1389 1.390 . S
C1387 H1391 0.950 . S
H1388 C1384 0.950 . S
C1389 C1387 1.390 . S
C1389 C1390 1.387 1_565 S
C1389 H1392 0.950 . S
C1390 C1389 1.387 1_545 S
C1390 C1393 1.387 1_554 S
H1391 C1387 0.950 . S
H1392 C1389 0.950 . S
C1393 C1384 1.390 1_545 S
C1393 H1386 0.950 . S
C1393 C1390 1.387 1_556 S
C1394 C1395 1.387 1_655 S
C1394 H1398 0.950 . S
C1394 C1403 1.390 . S
C1395 C1394 1.387 1_455 S
C1395 C1397 1.387 1_454 S
H1396 C1403 0.950 . S
C1397 C1395 1.387 1_656 S
C1397 C1399 1.390 . S
C1397 H1401 0.950 . S
H1398 C1394 0.950 . S
C1399 C1397 1.390 . S
C1399 C1400 1.387 1_556 S
C1399 H1402 0.950 . S
C1400 C1399 1.387 1_554 S
C1400 C1403 1.387 . S
H1401 C1397 0.950 . S
H1402 C1399 0.950 . S
C1403 C1394 1.390 . S
C1403 H1396 0.950 . S
C1403 C1400 1.387 . S
C1404 C1405 1.387 . S
C1404 H1408 0.950 . S
C1404 C1413 1.390 . S
C1405 C1404 1.387 . S
C1405 C1407 1.387 . S
H1406 C1413 0.950 . S
C1407 C1405 1.387 . S
C1407 C1409 1.390 . S
C1407 H1411 0.950 . S
H1408 C1404 0.950 . S
C1409 C1407 1.390 . S
C1409 C1410 1.387 . S
C1409 H1412 0.950 . S
C1410 C1409 1.387 . S
C1410 C1413 1.387 . S
H1411 C1407 0.950 . S
H1412 C1409 0.950 . S
C1413 C1404 1.390 . S
C1413 H1406 0.950 . S
C1413 C1410 1.387 . S
C1414 C1415 1.387 . S
C1414 H1418 0.950 . S
C1414 C1423 1.390 1_545 S
C1415 C1414 1.387 . S
C1415 C1417 1.387 1_545 S
H1416 C1423 0.951 1_455 S
C1417 C1415 1.387 1_565 S
C1417 C1419 1.390 . S
C1417 H1421 0.950 . S
H1418 C1414 0.950 . S
C1419 C1417 1.390 . S
C1419 C1420 1.387 1_655 S
C1419 H1422 0.950 . S
C1420 C1419 1.387 1_455 S
C1420 C1423 1.387 1_455 S
H1421 C1417 0.950 . S
H1422 C1419 0.950 . S
C1423 C1414 1.390 1_565 S
C1423 H1416 0.951 1_655 S
C1423 C1420 1.387 1_655 S
C1424 C1425 1.387 . S
C1424 H1428 0.950 . S
C1424 C1433 1.390 . S
C1425 C1424 1.387 . S
C1425 C1427 1.387 . S
H1426 C1433 0.950 . S
C1427 C1425 1.387 . S
C1427 C1429 1.390 . S
C1427 H1431 0.950 . S
H1428 C1424 0.950 . S
C1429 C1427 1.390 . S
C1429 C1430 1.387 . S
C1429 H1432 0.950 . S
C1430 C1429 1.387 . S
C1430 C1433 1.387 . S
H1431 C1427 0.950 . S
H1432 C1429 0.950 . S
C1433 C1424 1.390 . S
C1433 H1426 0.950 . S
C1433 C1430 1.387 . S
C1434 C1435 1.387 . S
C1434 H1438 0.950 . S
C1434 C1443 1.390 . S
C1435 C1434 1.387 . S
C1435 C1437 1.387 . S
H1436 C1443 0.950 . S
C1437 C1435 1.387 . S
C1437 C1439 1.390 . S
C1437 H1441 0.950 . S
H1438 C1434 0.950 . S
C1439 C1437 1.390 . S
C1439 C1440 1.387 1_455 S
C1439 H1442 0.950 . S
C1440 C1439 1.387 1_655 S
C1440 C1443 1.387 1_655 S
H1441 C1437 0.950 . S
H1442 C1439 0.950 . S
C1443 C1434 1.390 . S
C1443 H1436 0.950 . S
C1443 C1440 1.387 1_455 S
C1444 C1445 1.387 . S
C1444 H1448 0.950 . S
C1444 C1453 1.390 . S
C1445 C1444 1.387 . S
C1445 C1447 1.387 . S
H1446 C1453 0.950 . S
C1447 C1445 1.387 . S
C1447 C1449 1.390 . S
C1447 H1451 0.950 . S
H1448 C1444 0.950 . S
C1449 C1447 1.390 . S
C1449 C1450 1.387 . S
C1449 H1452 0.950 . S
C1450 C1449 1.387 . S
C1450 C1453 1.387 . S
H1451 C1447 0.950 . S
H1452 C1449 0.950 . S
C1453 C1444 1.390 . S
C1453 H1446 0.950 . S
C1453 C1450 1.387 . S
C1454 C1455 1.387 . S
C1454 H1458 0.950 . S
C1454 C1463 1.390 . S
C1455 C1454 1.387 . S
C1455 C1457 1.387 . S
H1456 C1463 0.950 . S
C1457 C1455 1.387 . S
C1457 C1459 1.390 . S
C1457 H1461 0.950 . S
H1458 C1454 0.950 . S
C1459 C1457 1.390 . S
C1459 C1460 1.387 1_455 S
C1459 H1462 0.950 1_455 S
C1460 C1459 1.387 1_655 S
C1460 C1463 1.387 1_655 S
H1461 C1457 0.950 . S
H1462 C1459 0.950 1_655 S
C1463 C1454 1.390 . S
C1463 H1456 0.950 . S
C1463 C1460 1.387 1_455 S
C1464 C1465 1.387 . S
C1464 H1468 0.950 . S
C1464 C1473 1.390 . S
C1465 C1464 1.387 . S
C1465 C1467 1.387 . S
H1466 C1473 0.950 . S
C1467 C1465 1.387 . S
C1467 C1469 1.390 . S
C1467 H1471 0.950 . S
H1468 C1464 0.950 . S
C1469 C1467 1.390 . S
C1469 C1470 1.387 . S
C1469 H1472 0.950 . S
C1470 C1469 1.387 . S
C1470 C1473 1.387 . S
H1471 C1467 0.950 . S
H1472 C1469 0.950 . S
C1473 C1464 1.390 . S
C1473 H1466 0.950 . S
C1473 C1470 1.387 . S
C1474 C1475 1.387 1_655 S
C1474 H1478 0.964 . S
C1474 C1483 1.390 . S
C1475 C1474 1.387 1_455 S
C1475 C1477 1.387 1_455 S
H1476 C1483 0.950 . S
C1477 C1475 1.387 1_655 S
C1477 C1479 1.390 . S
C1477 H1481 0.950 . S
H1478 C1474 0.964 . S
C1479 C1477 1.390 . S
C1479 C1480 1.387 . S
C1479 H1482 0.950 . S
C1480 C1479 1.387 . S
C1480 C1483 1.387 . S
H1481 C1477 0.950 . S
H1482 C1479 0.950 . S
C1483 C1474 1.390 . S
C1483 H1476 0.950 . S
C1483 C1480 1.387 . S
C1484 C1485 1.387 . S
C1484 H1488 0.950 . S
C1484 C1493 1.390 . S
C1485 C1484 1.387 . S
C1485 C1487 1.387 . S
H1486 C1493 0.950 . S
C1487 C1485 1.387 . S
C1487 C1489 1.390 . S
C1487 H1491 0.950 . S
H1488 C1484 0.950 . S
C1489 C1487 1.390 . S
C1489 C1490 1.387 . S
C1489 H1492 0.950 . S
C1490 C1489 1.387 . S
C1490 C1493 1.387 . S
H1491 C1487 0.950 . S
H1492 C1489 0.950 . S
C1493 C1484 1.390 . S
C1493 H1486 0.950 . S
C1493 C1490 1.387 . S
C1494 C1495 1.387 . S
C1494 H1498 0.950 . S
C1494 C1503 1.390 . S
C1495 C1494 1.387 . S
C1495 C1497 1.387 . S
H1496 C1503 0.950 1_455 S
C1497 C1495 1.387 . S
C1497 C1499 1.390 . S
C1497 H1501 0.950 . S
H1498 C1494 0.950 . S
C1499 C1497 1.390 . S
C1499 C1500 1.387 1_655 S
C1499 H1502 0.950 . S
C1500 C1499 1.387 1_455 S
C1500 C1503 1.387 1_455 S
H1501 C1497 0.950 . S
H1502 C1499 0.950 . S
C1503 C1494 1.390 . S
C1503 H1496 0.950 1_655 S
C1503 C1500 1.387 1_655 S
C1504 C1505 1.387 . S
C1504 H1508 0.950 . S
C1504 C1513 1.390 . S
C1505 C1504 1.387 . S
C1505 C1507 1.387 . S
H1506 C1513 0.950 . S
C1507 C1505 1.387 . S
C1507 C1509 1.390 1_545 S
C1507 H1511 0.950 . S
H1508 C1504 0.950 . S
C1509 C1507 1.390 1_565 S
C1509 C1510 1.387 . S
C1509 H1512 0.950 . S
C1510 C1509 1.387 . S
C1510 C1513 1.387 1_565 S
H1511 C1507 0.950 . S
H1512 C1509 0.950 . S
C1513 C1504 1.390 . S
C1513 H1506 0.950 . S
C1513 C1510 1.387 1_545 S
C1514 C1515 1.387 . S
C1514 H1518 0.950 . S
C1514 C1523 1.390 . S
C1515 C1514 1.387 . S
C1515 C1517 1.387 . S
H1516 C1523 0.950 . S
C1517 C1515 1.387 . S
C1517 C1519 1.390 . S
C1517 H1521 0.950 . S
H1518 C1514 0.950 . S
C1519 C1517 1.390 . S
C1519 C1520 1.387 . S
C1519 H1522 0.950 . S
C1520 C1519 1.387 . S
C1520 C1523 1.387 . S
H1521 C1517 0.950 . S
H1522 C1519 0.950 . S
C1523 C1514 1.390 . S
C1523 H1516 0.950 . S
C1523 C1520 1.387 . S
C1524 C1525 1.387 . S
C1524 H1528 0.950 . S
C1524 C1533 1.390 . S
C1525 C1524 1.387 . S
C1525 C1527 1.387 . S
H1526 C1533 0.950 . S
C1527 C1525 1.387 . S
C1527 C1529 1.390 . S
C1527 H1531 0.950 . S
H1528 C1524 0.950 . S
C1529 C1527 1.390 . S
C1529 C1530 1.387 . S
C1529 H1532 0.950 . S
C1530 C1529 1.387 . S
C1530 C1533 1.387 . S
H1531 C1527 0.950 . S
H1532 C1529 0.950 . S
C1533 C1524 1.390 . S
C1533 H1526 0.950 . S
C1533 C1530 1.387 . S
C1534 C1535 1.387 . S
C1534 H1538 0.950 . S
C1534 C1543 1.390 1_565 S
C1535 C1534 1.387 . S
C1535 C1537 1.387 1_565 S
H1536 C1543 0.950 . S
C1537 C1535 1.387 1_545 S
C1537 C1539 1.390 . S
C1537 H1541 0.950 . S
H1538 C1534 0.950 . S
C1539 C1537 1.390 . S
C1539 C1540 1.387 . S
C1539 H1542 0.950 . S
C1540 C1539 1.387 . S
C1540 C1543 1.387 . S
H1541 C1537 0.950 . S
H1542 C1539 0.950 . S
C1543 C1534 1.390 1_545 S
C1543 H1536 0.950 . S
C1543 C1540 1.387 . S
C1544 C1545 1.387 1_545 S
C1544 H1548 0.950 . S
C1544 C1553 1.390 . S
C1545 C1544 1.387 1_565 S
C1545 C1547 1.387 . S
H1546 C1553 0.950 . S
C1547 C1545 1.387 . S
C1547 C1549 1.390 . S
C1547 H1551 0.950 . S
H1548 C1544 0.950 . S
C1549 C1547 1.390 . S
C1549 C1550 1.387 1_565 S
C1549 H1552 0.950 . S
C1550 C1549 1.387 1_545 S
C1550 C1553 1.387 . S
H1551 C1547 0.950 . S
H1552 C1549 0.950 . S
C1553 C1544 1.390 . S
C1553 H1546 0.950 . S
C1553 C1550 1.387 . S
C1554 C1555 1.387 . S
C1554 H1558 0.950 . S
C1554 C1563 1.390 . S
C1555 C1554 1.387 . S
C1555 C1557 1.387 . S
H1556 C1563 0.950 . S
C1557 C1555 1.387 . S
C1557 C1559 1.390 . S
C1557 H1561 0.950 . S
H1558 C1554 0.950 . S
C1559 C1557 1.390 . S
C1559 C1560 1.387 . S
C1559 H1562 0.950 . S
C1560 C1559 1.387 . S
C1560 C1563 1.387 . S
H1561 C1557 0.950 . S
H1562 C1559 0.950 . S
C1563 C1554 1.390 . S
C1563 H1556 0.950 . S
C1563 C1560 1.387 . S
C1564 C1565 1.387 . S
C1564 H1568 0.950 . S
C1564 C1573 1.390 . S
C1565 C1564 1.387 . S
C1565 C1567 1.387 . S
H1566 C1573 0.950 . S
C1567 C1565 1.387 . S
C1567 C1569 1.390 . S
C1567 H1571 0.950 . S
H1568 C1564 0.950 . S
C1569 C1567 1.390 . S
C1569 C1570 1.387 . S
C1569 H1572 0.950 . S
C1570 C1569 1.387 . S
C1570 C1573 1.387 . S
H1571 C1567 0.950 . S
H1572 C1569 0.950 . S
C1573 C1564 1.390 . S
C1573 H1566 0.950 . S
C1573 C1570 1.387 . S
C1574 C1575 1.387 . S
C1574 H1578 0.950 . S
C1574 C1583 1.390 . S
C1575 C1574 1.387 . S
C1575 C1577 1.387 . S
H1576 C1583 0.950 . S
C1577 C1575 1.387 . S
C1577 C1579 1.390 1_565 S
C1577 H1581 0.950 . S
H1578 C1574 0.950 . S
C1579 C1577 1.390 1_545 S
C1579 C1580 1.387 . S
C1579 H1582 0.950 . S
C1580 C1579 1.387 . S
C1580 C1583 1.387 1_545 S
H1581 C1577 0.950 . S
H1582 C1579 0.950 . S
C1583 C1574 1.390 . S
C1583 H1576 0.950 . S
C1583 C1580 1.387 1_565 S
C1584 C1585 1.387 1_554 S
C1584 H1588 0.950 . S
C1584 C1593 1.390 . S
C1585 C1584 1.387 1_556 S
C1585 C1587 1.387 . S
H1586 C1593 0.950 . S
C1587 C1585 1.387 . S
C1587 C1589 1.390 . S
C1587 H1591 0.950 . S
H1588 C1584 0.950 . S
C1589 C1587 1.390 . S
C1589 C1590 1.387 . S
C1589 H1592 0.950 . S
C1590 C1589 1.387 . S
C1590 C1593 1.387 1_556 S
H1591 C1587 0.950 . S
H1592 C1589 0.950 . S
C1593 C1584 1.390 . S
C1593 H1586 0.950 . S
C1593 C1590 1.387 1_554 S
C1594 C1595 1.387 . S
C1594 H1598 0.950 . S
C1594 C1603 1.390 . S
C1595 C1594 1.387 . S
C1595 C1597 1.387 1_556 S
H1596 C1603 0.950 . S
C1597 C1595 1.387 1_554 S
C1597 C1599 1.390 . S
C1597 H1601 0.950 . S
H1598 C1594 0.950 . S
C1599 C1597 1.390 . S
C1599 C1600 1.387 1_554 S
C1599 H1602 0.950 . S
C1600 C1599 1.387 1_556 S
C1600 C1603 1.387 . S
H1601 C1597 0.950 . S
H1602 C1599 0.950 . S
C1603 C1594 1.390 . S
C1603 H1596 0.950 . S
C1603 C1600 1.387 . S
C1604 C1605 1.387 . S
C1604 H1608 0.950 . S
C1604 C1613 1.390 . S
C1605 C1604 1.387 . S
C1605 C1607 1.387 . S
H1606 C1613 0.950 . S
C1607 C1605 1.387 . S
C1607 C1609 1.390 . S
C1607 H1611 0.950 . S
H1608 C1604 0.950 . S
C1609 C1607 1.390 . S
C1609 C1610 1.387 . S
C1609 H1612 0.950 . S
C1610 C1609 1.387 . S
C1610 C1613 1.387 . S
H1611 C1607 0.950 . S
H1612 C1609 0.950 . S
C1613 C1604 1.390 . S
C1613 H1606 0.950 . S
C1613 C1610 1.387 . S
C1614 C1615 1.387 . S
C1614 H1618 0.950 . S
C1614 C1623 1.390 . S
C1615 C1614 1.387 . S
C1615 C1617 1.387 . S
H1616 C1623 0.950 . S
C1617 C1615 1.387 . S
C1617 C1619 1.390 . S
C1617 H1621 0.950 . S
H1618 C1614 0.950 . S
C1619 C1617 1.390 . S
C1619 C1620 1.387 . S
C1619 H1622 0.950 . S
C1620 C1619 1.387 . S
C1620 C1623 1.387 . S
H1621 C1617 0.950 . S
H1622 C1619 0.950 . S
C1623 C1614 1.390 . S
C1623 H1616 0.950 . S
C1623 C1620 1.387 . S
C1624 C1625 1.387 1_556 S
C1624 H1628 0.950 . S
C1624 C1633 1.390 . S
C1625 C1624 1.387 1_554 S
C1625 C1627 1.387 . S
H1626 C1633 0.950 . S
C1627 C1625 1.387 . S
C1627 C1629 1.390 . S
C1627 H1631 0.950 . S
H1628 C1624 0.950 . S
C1629 C1627 1.390 . S
C1629 C1630 1.387 . S
C1629 H1632 0.950 . S
C1630 C1629 1.387 . S
C1630 C1633 1.387 1_554 S
H1631 C1627 0.950 . S
H1632 C1629 0.950 . S
C1633 C1624 1.390 . S
C1633 H1626 0.950 . S
C1633 C1630 1.387 1_556 S
C1634 C1635 1.387 . S
C1634 H1638 0.957 . S
C1634 C1643 1.390 . S
C1635 C1634 1.387 . S
C1635 C1637 1.387 . S
H1636 C1643 0.950 . S
C1637 C1635 1.387 . S
C1637 C1639 1.390 . S
C1637 H1641 0.950 . S
H1638 C1634 0.957 . S
C1639 C1637 1.390 . S
C1639 C1640 1.387 . S
C1639 H1642 0.950 . S
C1640 C1639 1.387 . S
C1640 C1643 1.387 . S
H1641 C1637 0.950 . S
H1642 C1639 0.950 . S
C1643 C1634 1.390 . S
C1643 H1636 0.950 . S
C1643 C1640 1.387 . S
C1644 C1645 1.387 . S
C1644 H1648 0.950 . S
C1644 C1653 1.390 . S
C1645 C1644 1.387 . S
C1645 C1647 1.387 . S
H1646 C1653 0.950 . S
C1647 C1645 1.387 . S
C1647 C1649 1.390 . S
C1647 H1651 0.950 . S
H1648 C1644 0.950 . S
C1649 C1647 1.390 . S
C1649 C1650 1.387 . S
C1649 H1652 0.950 . S
C1650 C1649 1.387 . S
C1650 C1653 1.387 . S
H1651 C1647 0.950 . S
H1652 C1649 0.950 . S
C1653 C1644 1.390 . S
C1653 H1646 0.950 . S
C1653 C1650 1.387 . S
C1654 C1655 1.387 . S
C1654 H1658 0.950 . S
C1654 C1663 1.390 . S
C1655 C1654 1.387 . S
C1655 C1657 1.387 . S
H1656 C1663 0.950 . S
C1657 C1655 1.387 . S
C1657 C1659 1.390 . S
C1657 H1661 0.950 . S
H1658 C1654 0.950 . S
C1659 C1657 1.390 . S
C1659 C1660 1.387 . S
C1659 H1662 0.950 . S
C1660 C1659 1.387 . S
C1660 C1663 1.387 . S
H1661 C1657 0.950 . S
H1662 C1659 0.950 . S
C1663 C1654 1.390 . S
C1663 H1656 0.950 . S
C1663 C1660 1.387 . S
C705 C558 1.384 . S
C710 C18 1.385 . S
C715 C538 1.385 . S
C720 C30 1.383 . S
C725 C604 1.431 . S
C730 C51 1.409 . S
C735 C579 1.408 . S
C740 C74 1.431 . S
C745 C98 1.381 . S
C750 C648 1.380 . S
C755 C128 1.380 . S
C760 C626 1.381 . S
C765 C142 1.393 . S
C770 C692 1.393 . S
C775 C670 1.394 . S
C780 C162 1.394 . S
C785 C382 1.384 . S
C790 C186 1.385 . S
C795 C362 1.385 . S
C800 C206 1.383 . S
C805 C428 1.432 . S
C810 C227 1.407 . S
C815 C403 1.408 . S
C820 C252 1.430 . S
C825 C272 1.381 . S
C830 C472 1.380 . S
C835 C450 1.381 . S
C840 C294 1.380 . S
C845 C318 1.393 . S
C850 C514 1.393 . S
C855 C494 1.394 . S
C860 C338 1.394 . S
C865 C15 1.843 . S
C870 C439 1.847 . S
C875 C404 1.790 . S
C880 C29 1.805 . S
C885 C381 1.805 . S
C890 C52 1.790 . S
C895 C73 1.848 . S
C900 C373 1.843 . S
C905 C513 1.804 . S
C910 C109 1.808 . S
C915 C505 1.824 . S
C920 C125 1.821 . S
C925 C483 1.820 . S
C930 C153 1.823 . S
C935 C461 1.809 . S
C940 C161 1.805 . S
C945 C615 1.848 . S
C950 C197 1.844 . S
C955 C205 1.805 . S
C960 C580 1.790 . S
C965 C228 1.790 . S
C970 C557 1.805 . S
C975 C263 1.848 . S
C980 C549 1.844 . S
C985 C703 1.805 . S
C990 C271 1.809 . S
C995 C681 1.824 . S
C1000 C293 1.821 . S
C1005 C329 1.823 . S
C1010 C659 1.822 . S
C1015 C337 1.804 . S
C1020 C637 1.808 . S
C1025 C103 1.312 . S
C1030 C7 1.313 . S
C1035 C43 1.295 . S
C1040 C653 1.294 . S
C1045 C62 1.296 . S
C1050 C323 1.263 . S
C1055 C527 1.296 . S
C1060 C87 1.297 . S
C1065 C117 1.295 . S
C1070 C571 1.295 . S
C1075 C147 1.269 . S
C1080 C238 1.300 . S
C1085 C433 1.297 . S
C1090 C175 1.296 . S
C1095 C285 1.312 . S
C1100 C191 1.312 . S
C1105 C219 1.300 . S
C1110 C477 1.300 . S
C1115 C257 1.297 . S
C1120 C697 1.296 . S
C1125 C395 1.300 . S
C1130 C307 1.299 . S
C1135 C351 1.296 . S
C1140 C609 1.297 . S
C1145 C455 1.312 . S
C1150 C367 1.312 . S
C1155 C675 1.264 . S
C1160 C414 1.296 . S
C1165 C590 1.300 . S
C1170 C499 1.268 . S
C1175 C543 1.317 . S
C1180 C631 1.317 . S
C1185 C59 1.237 . S
C1190 C8 1.227 . S
C1195 C76 1.191 . S
C1200 C32 1.193 . S
C1205 C150 1.211 . S
C1210 C106 1.215 . S
C1215 C118 1.226 . S
C1220 C164 1.229 . S
C1225 C235 1.237 . S
C1230 C194 1.227 . S
C1235 C208 1.189 . S
C1240 C260 1.187 . S
C1245 C326 1.212 . S
C1250 C274 1.214 . S
C1255 C296 1.226 . S
C1260 C340 1.229 . S
C1265 C370 1.227 . S
C1270 C411 1.237 . S
C1275 C384 1.189 . S
C1280 C436 1.187 . S
C1285 C502 1.208 . S
C1290 C458 1.210 . S
C1295 C480 1.228 . S
C1300 C516 1.229 . S
C1305 C546 1.224 . S
C1310 C587 1.234 . S
C1315 C612 1.187 . S
C1320 C560 1.191 . S
C1325 C634 1.210 . S
C1330 C678 1.208 . S
C1335 C656 1.230 . S
C1340 C700 1.233 . S
C1345 C131 1.608 . S
C1350 C10 1.586 . S
C1355 C623 1.612 . S
C1360 C40 1.592 . S
C1365 C65 1.606 . S
C1370 C345 1.622 . S
C1375 C84 1.581 . S
C1380 C491 1.604 . S
C1385 C96 1.582 . S
C1390 C37 1.604 . S
C1395 C120 1.586 . S
C1400 C535 1.609 . S
C1405 C249 1.605 . S
C1410 C140 1.578 . S
C1415 C406 1.570 . S
C1420 C172 1.568 . S
C1425 C184 1.586 . S
C1430 C301 1.608 . S
C1435 C447 1.612 . S
C1440 C216 1.592 . S
C1445 C241 1.608 . S
C1450 C169 1.621 . S
C1455 C667 1.604 . S
C1460 C250 1.581 . S
C1465 C282 1.582 . S
C1470 C213 1.604 . S
C1475 C304 1.586 . S
C1480 C359 1.609 . S
C1485 C316 1.577 . S
C1490 C81 1.605 . S
C1495 C582 1.572 . S
C1500 C348 1.566 . S
C1505 C360 1.586 . S
C1510 C469 1.609 . S
C1515 C392 1.590 . S
C1520 C279 1.613 . S
C1525 C689 1.621 . S
C1530 C417 1.608 . S
C1535 C139 1.604 . S
C1540 C426 1.581 . S
C1545 C448 1.581 . S
C1550 C389 1.605 . S
C1555 C183 1.609 . S
C1560 C470 1.586 . S
C1565 C601 1.604 . S
C1570 C492 1.580 . S
C1575 C524 1.566 . S
C1580 C54 1.572 . S
C1585 C645 1.610 . S
C1590 C536 1.584 . S
C1595 C568 1.592 . S
C1600 C95 1.612 . S
C1605 C521 1.622 . S
C1610 C593 1.606 . S
C1615 C315 1.603 . S
C1620 C602 1.583 . S
C1625 C565 1.604 . S
C1630 C624 1.582 . S
C1635 C646 1.587 . S
C1640 C21 1.608 . S
C1645 C425 1.604 . S
C1650 C668 1.580 . S
C1655 C690 1.566 . S
C1660 C230 1.571 . S
