# Generated by pormake.
# Topology mer, (4)-cn, num edge types: 1
# Building blocks:
#     Node 0, Type 0, BuildingBlock: AZAVOO_clean_sbu_0, # of connection points: 4
#     Node 1, Type 0, BuildingBlock: AZAVOO_clean_sbu_0, # of connection points: 4
#     Node 2, Type 0, BuildingBlock: AZAVOO_clean_sbu_0, # of connection points: 4
#     Node 3, Type 0, BuildingBlock: AZAVOO_clean_sbu_0, # of connection points: 4
#     Node 4, Type 0, BuildingBlock: AZAVOO_clean_sbu_0, # of connection points: 4
#     Node 5, Type 0, BuildingBlock: AZAVOO_clean_sbu_0, # of connection points: 4
#     Node 6, Type 0, BuildingBlock: AZAVOO_clean_sbu_0, # of connection points: 4
#     Node 7, Type 0, BuildingBlock: AZAVOO_clean_sbu_0, # of connection points: 4
#     Node 8, Type 0, BuildingBlock: AZAVOO_clean_sbu_0, # of connection points: 4
#     Node 9, Type 0, BuildingBlock: AZAVOO_clean_sbu_0, # of connection points: 4
#     Node 10, Type 0, BuildingBlock: AZAVOO_clean_sbu_0, # of connection points: 4
#     Node 11, Type 0, BuildingBlock: AZAVOO_clean_sbu_0, # of connection points: 4
#     Node 12, Type 0, BuildingBlock: AZAVOO_clean_sbu_0, # of connection points: 4
#     Node 13, Type 0, BuildingBlock: AZAVOO_clean_sbu_0, # of connection points: 4
#     Node 14, Type 0, BuildingBlock: AZAVOO_clean_sbu_0, # of connection points: 4
#     Node 15, Type 0, BuildingBlock: AZAVOO_clean_sbu_0, # of connection points: 4
#     Node 16, Type 0, BuildingBlock: AZAVOO_clean_sbu_0, # of connection points: 4
#     Node 17, Type 0, BuildingBlock: AZAVOO_clean_sbu_0, # of connection points: 4
#     Node 18, Type 0, BuildingBlock: AZAVOO_clean_sbu_0, # of connection points: 4
#     Node 19, Type 0, BuildingBlock: AZAVOO_clean_sbu_0, # of connection points: 4
#     Node 20, Type 0, BuildingBlock: AZAVOO_clean_sbu_0, # of connection points: 4
#     Node 21, Type 0, BuildingBlock: AZAVOO_clean_sbu_0, # of connection points: 4
#     Node 22, Type 0, BuildingBlock: AZAVOO_clean_sbu_0, # of connection points: 4
#     Node 23, Type 0, BuildingBlock: AZAVOO_clean_sbu_0, # of connection points: 4
#     Node 24, Type 0, BuildingBlock: AZAVOO_clean_sbu_0, # of connection points: 4
#     Node 25, Type 0, BuildingBlock: AZAVOO_clean_sbu_0, # of connection points: 4
#     Node 26, Type 0, BuildingBlock: AZAVOO_clean_sbu_0, # of connection points: 4
#     Node 27, Type 0, BuildingBlock: AZAVOO_clean_sbu_0, # of connection points: 4
#     Node 28, Type 0, BuildingBlock: AZAVOO_clean_sbu_0, # of connection points: 4
#     Node 29, Type 0, BuildingBlock: AZAVOO_clean_sbu_0, # of connection points: 4
#     Node 30, Type 0, BuildingBlock: AZAVOO_clean_sbu_0, # of connection points: 4
#     Node 31, Type 0, BuildingBlock: AZAVOO_clean_sbu_0, # of connection points: 4
#     Edge 32, Type (0, 0), BuildingBlock: XUDNAN_clean_linker_2, # of connection points: 2
#     Edge 33, Type (0, 0), BuildingBlock: XUDNAN_clean_linker_2, # of connection points: 2
#     Edge 34, Type (0, 0), BuildingBlock: XUDNAN_clean_linker_2, # of connection points: 2
#     Edge 35, Type (0, 0), BuildingBlock: XUDNAN_clean_linker_2, # of connection points: 2
#     Edge 36, Type (0, 0), BuildingBlock: XUDNAN_clean_linker_2, # of connection points: 2
#     Edge 37, Type (0, 0), BuildingBlock: XUDNAN_clean_linker_2, # of connection points: 2
#     Edge 38, Type (0, 0), BuildingBlock: XUDNAN_clean_linker_2, # of connection points: 2
#     Edge 39, Type (0, 0), BuildingBlock: XUDNAN_clean_linker_2, # of connection points: 2
#     Edge 40, Type (0, 0), BuildingBlock: XUDNAN_clean_linker_2, # of connection points: 2
#     Edge 41, Type (0, 0), BuildingBlock: XUDNAN_clean_linker_2, # of connection points: 2
#     Edge 42, Type (0, 0), BuildingBlock: XUDNAN_clean_linker_2, # of connection points: 2
#     Edge 43, Type (0, 0), BuildingBlock: XUDNAN_clean_linker_2, # of connection points: 2
#     Edge 44, Type (0, 0), BuildingBlock: XUDNAN_clean_linker_2, # of connection points: 2
#     Edge 45, Type (0, 0), BuildingBlock: XUDNAN_clean_linker_2, # of connection points: 2
#     Edge 46, Type (0, 0), BuildingBlock: XUDNAN_clean_linker_2, # of connection points: 2
#     Edge 47, Type (0, 0), BuildingBlock: XUDNAN_clean_linker_2, # of connection points: 2
#     Edge 48, Type (0, 0), BuildingBlock: XUDNAN_clean_linker_2, # of connection points: 2
#     Edge 49, Type (0, 0), BuildingBlock: XUDNAN_clean_linker_2, # of connection points: 2
#     Edge 50, Type (0, 0), BuildingBlock: XUDNAN_clean_linker_2, # of connection points: 2
#     Edge 51, Type (0, 0), BuildingBlock: XUDNAN_clean_linker_2, # of connection points: 2
#     Edge 52, Type (0, 0), BuildingBlock: XUDNAN_clean_linker_2, # of connection points: 2
#     Edge 53, Type (0, 0), BuildingBlock: XUDNAN_clean_linker_2, # of connection points: 2
#     Edge 54, Type (0, 0), BuildingBlock: XUDNAN_clean_linker_2, # of connection points: 2
#     Edge 55, Type (0, 0), BuildingBlock: XUDNAN_clean_linker_2, # of connection points: 2
#     Edge 56, Type (0, 0), BuildingBlock: XUDNAN_clean_linker_2, # of connection points: 2
#     Edge 57, Type (0, 0), BuildingBlock: XUDNAN_clean_linker_2, # of connection points: 2
#     Edge 58, Type (0, 0), BuildingBlock: XUDNAN_clean_linker_2, # of connection points: 2
#     Edge 59, Type (0, 0), BuildingBlock: XUDNAN_clean_linker_2, # of connection points: 2
#     Edge 60, Type (0, 0), BuildingBlock: XUDNAN_clean_linker_2, # of connection points: 2
#     Edge 61, Type (0, 0), BuildingBlock: XUDNAN_clean_linker_2, # of connection points: 2
#     Edge 62, Type (0, 0), BuildingBlock: XUDNAN_clean_linker_2, # of connection points: 2
#     Edge 63, Type (0, 0), BuildingBlock: XUDNAN_clean_linker_2, # of connection points: 2
#     Edge 64, Type (0, 0), BuildingBlock: XUDNAN_clean_linker_2, # of connection points: 2
#     Edge 65, Type (0, 0), BuildingBlock: XUDNAN_clean_linker_2, # of connection points: 2
#     Edge 66, Type (0, 0), BuildingBlock: XUDNAN_clean_linker_2, # of connection points: 2
#     Edge 67, Type (0, 0), BuildingBlock: XUDNAN_clean_linker_2, # of connection points: 2
#     Edge 68, Type (0, 0), BuildingBlock: XUDNAN_clean_linker_2, # of connection points: 2
#     Edge 69, Type (0, 0), BuildingBlock: XUDNAN_clean_linker_2, # of connection points: 2
#     Edge 70, Type (0, 0), BuildingBlock: XUDNAN_clean_linker_2, # of connection points: 2
#     Edge 71, Type (0, 0), BuildingBlock: XUDNAN_clean_linker_2, # of connection points: 2
#     Edge 72, Type (0, 0), BuildingBlock: XUDNAN_clean_linker_2, # of connection points: 2
#     Edge 73, Type (0, 0), BuildingBlock: XUDNAN_clean_linker_2, # of connection points: 2
#     Edge 74, Type (0, 0), BuildingBlock: XUDNAN_clean_linker_2, # of connection points: 2
#     Edge 75, Type (0, 0), BuildingBlock: XUDNAN_clean_linker_2, # of connection points: 2
#     Edge 76, Type (0, 0), BuildingBlock: XUDNAN_clean_linker_2, # of connection points: 2
#     Edge 77, Type (0, 0), BuildingBlock: XUDNAN_clean_linker_2, # of connection points: 2
#     Edge 78, Type (0, 0), BuildingBlock: XUDNAN_clean_linker_2, # of connection points: 2
#     Edge 79, Type (0, 0), BuildingBlock: XUDNAN_clean_linker_2, # of connection points: 2
#     Edge 80, Type (0, 0), BuildingBlock: XUDNAN_clean_linker_2, # of connection points: 2
#     Edge 81, Type (0, 0), BuildingBlock: XUDNAN_clean_linker_2, # of connection points: 2
#     Edge 82, Type (0, 0), BuildingBlock: XUDNAN_clean_linker_2, # of connection points: 2
#     Edge 83, Type (0, 0), BuildingBlock: XUDNAN_clean_linker_2, # of connection points: 2
#     Edge 84, Type (0, 0), BuildingBlock: XUDNAN_clean_linker_2, # of connection points: 2
#     Edge 85, Type (0, 0), BuildingBlock: XUDNAN_clean_linker_2, # of connection points: 2
#     Edge 86, Type (0, 0), BuildingBlock: XUDNAN_clean_linker_2, # of connection points: 2
#     Edge 87, Type (0, 0), BuildingBlock: XUDNAN_clean_linker_2, # of connection points: 2
#     Edge 88, Type (0, 0), BuildingBlock: XUDNAN_clean_linker_2, # of connection points: 2
#     Edge 89, Type (0, 0), BuildingBlock: XUDNAN_clean_linker_2, # of connection points: 2
#     Edge 90, Type (0, 0), BuildingBlock: XUDNAN_clean_linker_2, # of connection points: 2
#     Edge 91, Type (0, 0), BuildingBlock: XUDNAN_clean_linker_2, # of connection points: 2
#     Edge 92, Type (0, 0), BuildingBlock: XUDNAN_clean_linker_2, # of connection points: 2
#     Edge 93, Type (0, 0), BuildingBlock: XUDNAN_clean_linker_2, # of connection points: 2
#     Edge 94, Type (0, 0), BuildingBlock: XUDNAN_clean_linker_2, # of connection points: 2
#     Edge 95, Type (0, 0), BuildingBlock: XUDNAN_clean_linker_2, # of connection points: 2
# Relax obj value: 0.175
# Max RMSD: 0.167
# Mean RMSD: 0.163
data_MOF--net-mer--node1-AZAVOO_clean_sbu_0--edge1-XUDNAN_clean_linker_2
_symmetry_space_group_name_H-M    P1
_symmetry_Int_Tables_number       1
_symmetry_cell_setting            triclinic
loop_
_symmetry_equiv_pos_as_xyz
'x, y, z'
_cell_length_a     69.320323
_cell_length_b     69.273786
_cell_length_c     41.097235
_cell_angle_alpha  89.977528
_cell_angle_beta   90.004801
_cell_angle_gamma 89.985437
loop_
_atom_site_label
_atom_site_type_symbol
_atom_site_fract_x
_atom_site_fract_y
_atom_site_fract_z
_atom_type_partial_charge
Mg0 Mg 0.09217 0.23399 0.2685 0.0
O1 O 0.09996 0.23133 0.32265 0.0
O2 O 0.13085 0.22255 0.3268 0.0
Mg3 Mg 0.14306 0.22002 0.2753 0.0
C4 C 0.11471 0.22698 0.33976 0.0
C5 C 0.04901 0.24084 0.26652 0.0
O6 O 0.05241 0.22877 0.24253 0.0
O7 O 0.10826 0.26312 0.26512 0.0
O8 O 0.13875 0.25253 0.26908 0.0
O9 O 0.08579 0.20209 0.26672 0.0
O10 O 0.11409 0.21516 0.2556 0.0
C11 C 0.12649 0.26617 0.26589 0.0
C12 C 0.10372 0.19992 0.25877 0.0
O13 O 0.06326 0.24732 0.28266 0.0
Mg14 Mg 0.70476 0.0973 0.40033 0.0
O15 O 0.73574 0.10884 0.3927 0.0
O16 O 0.75544 0.08687 0.41489 0.0
Mg17 Mg 0.73784 0.06235 0.4374 0.0
C18 C 0.75268 0.10275 0.39975 0.0
C19 C 0.67485 0.11477 0.35455 0.0
O20 O 0.66678 0.09872 0.36478 0.0
O21 O 0.70958 0.07491 0.36003 0.0
O22 O 0.72793 0.05342 0.38644 0.0
O23 O 0.70346 0.11205 0.44919 0.0
O24 O 0.7136 0.08226 0.44136 0.0
C25 C 0.71853 0.05879 0.36127 0.0
C26 C 0.71094 0.09641 0.46101 0.0
O27 O 0.69183 0.11879 0.36422 0.0
Mg28 Mg 0.9063 0.76516 0.2707 0.0
O29 O 0.89888 0.76416 0.3253 0.0
O30 O 0.86767 0.7716 0.33094 0.0
Mg31 Mg 0.85499 0.77714 0.2806 0.0
C32 C 0.88399 0.76693 0.34304 0.0
C33 C 0.94974 0.75814 0.26599 0.0
O34 O 0.94646 0.7713 0.24361 0.0
O35 O 0.89084 0.73609 0.26258 0.0
O36 O 0.8601 0.7454 0.26838 0.0
O37 O 0.91279 0.79689 0.27398 0.0
O38 O 0.88397 0.78481 0.26345 0.0
C39 C 0.87275 0.73243 0.26279 0.0
C40 C 0.89457 0.79968 0.26919 0.0
O41 O 0.93545 0.75118 0.28145 0.0
Mg42 Mg 0.29236 0.89816 0.41177 0.0
O43 O 0.261 0.88882 0.40104 0.0
O44 O 0.2417 0.90746 0.4313 0.0
Mg45 Mg 0.26039 0.92812 0.46118 0.0
C46 C 0.2442 0.89391 0.41064 0.0
C47 C 0.3208 0.87669 0.36658 0.0
O48 O 0.33178 0.88043 0.39186 0.0
O49 O 0.28827 0.92538 0.3821 0.0
O50 O 0.2697 0.94376 0.41388 0.0
O51 O 0.29339 0.87665 0.45143 0.0
O52 O 0.28409 0.90694 0.45833 0.0
C53 C 0.27936 0.94113 0.38774 0.0
C54 C 0.28605 0.88979 0.47014 0.0
O55 O 0.30327 0.8821 0.36703 0.0
Mg56 Mg 0.09983 0.75978 0.72972 0.0
O57 O 0.10743 0.7596 0.6751 0.0
O58 O 0.13865 0.76713 0.67024 0.0
Mg59 Mg 0.15115 0.77168 0.72098 0.0
C60 C 0.12238 0.76276 0.65768 0.0
C61 C 0.05662 0.75239 0.73442 0.0
O62 O 0.05993 0.76506 0.75755 0.0
O63 O 0.11514 0.73063 0.73738 0.0
O64 O 0.14593 0.73987 0.73233 0.0
O65 O 0.09327 0.79148 0.72719 0.0
O66 O 0.12207 0.77933 0.73789 0.0
C67 C 0.13321 0.72691 0.73743 0.0
C68 C 0.11148 0.79423 0.73223 0.0
O69 O 0.07085 0.74587 0.71832 0.0
Mg70 Mg 0.29522 0.1021 0.57352 0.0
O71 O 0.26802 0.1174 0.59304 0.0
O72 O 0.2422 0.10481 0.56824 0.0
Mg73 Mg 0.25266 0.08092 0.53419 0.0
C74 C 0.24979 0.11671 0.58823 0.0
C75 C 0.30938 0.11915 0.64205 0.0
O76 O 0.29168 0.11539 0.65151 0.0
O77 O 0.28856 0.0758 0.6049 0.0
O78 O 0.26314 0.06366 0.57844 0.0
O79 O 0.29612 0.12341 0.53274 0.0
O80 O 0.28055 0.0956 0.5308 0.0
C81 C 0.27549 0.06297 0.60152 0.0
C82 C 0.28454 0.11189 0.51743 0.0
O83 O 0.31439 0.11534 0.613 0.0
Mg84 Mg 0.90823 0.23372 0.72621 0.0
O85 O 0.8996 0.23299 0.67211 0.0
O86 O 0.8677 0.22871 0.66947 0.0
Mg87 Mg 0.85563 0.22764 0.72091 0.0
C88 C 0.88407 0.2309 0.65575 0.0
C89 C 0.94808 0.25456 0.73076 0.0
O90 O 0.93946 0.26163 0.75662 0.0
O91 O 0.89659 0.26485 0.73112 0.0
O92 O 0.86484 0.25896 0.72777 0.0
O93 O 0.9098 0.20116 0.72692 0.0
O94 O 0.88382 0.21814 0.73874 0.0
C95 C 0.87902 0.27057 0.73092 0.0
C96 C 0.89169 0.20155 0.73457 0.0
O97 O 0.93873 0.24324 0.71225 0.0
Mg98 Mg 0.71652 0.89774 0.58854 0.0
O99 O 0.7476 0.88635 0.5954 0.0
O100 O 0.76757 0.90731 0.57142 0.0
Mg101 Mg 0.74975 0.93209 0.55051 0.0
C102 C 0.76457 0.89176 0.58731 0.0
C103 C 0.68767 0.87216 0.62757 0.0
O104 O 0.67607 0.87878 0.60487 0.0
O105 O 0.72133 0.92055 0.62776 0.0
O106 O 0.74168 0.94074 0.60264 0.0
O107 O 0.71496 0.88279 0.53985 0.0
O108 O 0.72475 0.91278 0.54737 0.0
C109 C 0.73173 0.93575 0.62743 0.0
C110 C 0.72195 0.8986 0.52781 0.0
O111 O 0.70542 0.87675 0.62681 0.0
Mg112 Mg 0.87736 0.76167 0.65882 0.0
O113 O 0.87818 0.75921 0.60297 0.0
O114 O 0.84776 0.76074 0.58508 0.0
Mg115 Mg 0.82764 0.76276 0.62879 0.0
C116 C 0.86587 0.75942 0.57981 0.0
C117 C 0.91842 0.75746 0.68667 0.0
O118 O 0.90971 0.76755 0.70941 0.0
O119 O 0.86754 0.73045 0.66307 0.0
O120 O 0.8371 0.73229 0.64507 0.0
O121 O 0.87807 0.79368 0.65415 0.0
O122 O 0.85116 0.77665 0.65609 0.0
C123 C 0.85137 0.72269 0.65623 0.0
C124 C 0.85944 0.79312 0.65192 0.0
O125 O 0.90889 0.75248 0.66163 0.0
Mg126 Mg 0.23828 0.90863 0.7622 0.0
O127 O 0.24341 0.89596 0.7109 0.0
O128 O 0.23674 0.8644 0.71241 0.0
Mg129 Mg 0.22722 0.85677 0.7639 0.0
C130 C 0.24218 0.87947 0.69707 0.0
C131 C 0.24634 0.94424 0.72164 0.0
O132 O 0.23143 0.93613 0.70743 0.0
O133 O 0.26659 0.89487 0.77944 0.0
O134 O 0.258 0.86368 0.77974 0.0
O135 O 0.20706 0.91404 0.75028 0.0
O136 O 0.21836 0.88686 0.77104 0.0
C137 C 0.27039 0.87705 0.78413 0.0
C138 C 0.20414 0.89632 0.75874 0.0
O139 O 0.2535 0.93622 0.74668 0.0
Mg140 Mg 0.12453 0.23521 0.65609 0.0
O141 O 0.12215 0.2346 0.60008 0.0
O142 O 0.15196 0.23875 0.5805 0.0
Mg143 Mg 0.17301 0.24305 0.6225 0.0
C144 C 0.13394 0.23594 0.57624 0.0
C145 C 0.0873 0.24869 0.68648 0.0
O146 O 0.10129 0.2555 0.70473 0.0
O147 O 0.12793 0.26807 0.65549 0.0
O148 O 0.15787 0.27135 0.63604 0.0
O149 O 0.13218 0.2033 0.65651 0.0
O150 O 0.15327 0.22704 0.65405 0.0
C151 C 0.14221 0.27857 0.64705 0.0
C152 C 0.14998 0.20885 0.65436 0.0
O153 O 0.09173 0.23833 0.66201 0.0
Mg154 Mg 0.75435 0.09261 0.76677 0.0
O155 O 0.74958 0.09591 0.71207 0.0
O156 O 0.75345 0.12662 0.69705 0.0
Mg157 Mg 0.76146 0.14331 0.74329 0.0
C158 C 0.74964 0.10905 0.69033 0.0
C159 C 0.75347 0.04843 0.7608 0.0
O160 O 0.77199 0.05209 0.7633 0.0
O161 O 0.72479 0.10637 0.77666 0.0
O162 O 0.73143 0.13715 0.7639 0.0
O163 O 0.78621 0.08878 0.75816 0.0
O164 O 0.77218 0.11686 0.76681 0.0
C165 C 0.71992 0.1241 0.77411 0.0
C166 C 0.7876 0.10735 0.76017 0.0
O167 O 0.74155 0.0623 0.76312 0.0
Mg168 Mg 0.8688 0.23199 0.34021 0.0
O169 O 0.87118 0.23254 0.39603 0.0
O170 O 0.84141 0.23075 0.41661 0.0
Mg171 Mg 0.82003 0.23049 0.37456 0.0
C172 C 0.85967 0.23174 0.42027 0.0
C173 C 0.91034 0.23521 0.31222 0.0
O174 O 0.90194 0.22463 0.28979 0.0
O175 O 0.85926 0.26345 0.33977 0.0
O176 O 0.82962 0.26134 0.36119 0.0
O177 O 0.86878 0.19978 0.34151 0.0
O178 O 0.84235 0.21754 0.34333 0.0
C179 C 0.84357 0.27117 0.34944 0.0
C180 C 0.85022 0.20073 0.34487 0.0
O181 O 0.90049 0.24077 0.33655 0.0
Mg182 Mg 0.76708 0.91066 0.22399 0.0
O183 O 0.7607 0.90454 0.27716 0.0
O184 O 0.76603 0.87376 0.29022 0.0
Mg185 Mg 0.77749 0.85989 0.24305 0.0
C186 C 0.76076 0.89083 0.29783 0.0
C187 C 0.74787 0.95336 0.21317 0.0
O188 O 0.75352 0.95305 0.18267 0.0
O189 O 0.73923 0.89495 0.20936 0.0
O190 O 0.74828 0.86437 0.21849 0.0
O191 O 0.79791 0.91742 0.23682 0.0
O192 O 0.78712 0.88825 0.22471 0.0
C193 C 0.73608 0.8768 0.20841 0.0
C194 C 0.801 0.89904 0.23475 0.0
O195 O 0.75125 0.93898 0.23151 0.0
Mg196 Mg 0.12935 0.7663 0.34105 0.0
O197 O 0.12827 0.76475 0.39707 0.0
O198 O 0.15849 0.76741 0.41549 0.0
Mg199 Mg 0.17886 0.76922 0.37209 0.0
C200 C 0.1404 0.76559 0.42046 0.0
C201 C 0.08814 0.76225 0.31355 0.0
O202 O 0.09671 0.77285 0.29131 0.0
O203 O 0.13981 0.735 0.33902 0.0
O204 O 0.16984 0.73842 0.358 0.0
O205 O 0.12843 0.7986 0.34372 0.0
O206 O 0.15534 0.78161 0.34316 0.0
C207 C 0.15614 0.72792 0.34705 0.0
C208 C 0.14707 0.79815 0.34589 0.0
O209 O 0.09783 0.75679 0.33815 0.0
Mg210 Mg 0.23427 0.09107 0.23789 0.0
O211 O 0.23288 0.10557 0.28773 0.0
O212 O 0.22205 0.13586 0.2839 0.0
Mg213 Mg 0.21795 0.14126 0.2295 0.0
C214 C 0.2282 0.12164 0.3007 0.0
C215 C 0.26056 0.05402 0.24708 0.0
O216 O 0.26425 0.05671 0.21605 0.0
O217 O 0.26276 0.10741 0.22883 0.0
O218 O 0.25048 0.13725 0.22598 0.0
O219 O 0.20287 0.08338 0.24226 0.0
O220 O 0.21379 0.11035 0.22034 0.0
C221 C 0.26481 0.12567 0.22597 0.0
C222 C 0.19934 0.10024 0.23009 0.0
O223 O 0.24958 0.06579 0.26184 0.0
Mg224 Mg 0.59716 0.73833 0.76324 0.0
O225 O 0.60564 0.73707 0.81724 0.0
O226 O 0.63685 0.72941 0.82086 0.0
Mg227 Mg 0.64867 0.72668 0.76924 0.0
C228 C 0.6207 0.73347 0.83409 0.0
C229 C 0.55372 0.74508 0.76161 0.0
O230 O 0.55672 0.73316 0.73725 0.0
O231 O 0.61192 0.76791 0.7576 0.0
O232 O 0.64288 0.7588 0.76138 0.0
O233 O 0.59209 0.70614 0.76348 0.0
O234 O 0.61969 0.72021 0.75103 0.0
C235 C 0.62998 0.77178 0.75773 0.0
C236 C 0.6101 0.70459 0.75557 0.0
O237 O 0.56817 0.75117 0.77763 0.0
Mg238 Mg 0.21624 0.59989 0.91197 0.0
O239 O 0.24728 0.61128 0.90539 0.0
O240 O 0.26739 0.59068 0.92994 0.0
Mg241 Mg 0.24961 0.56595 0.95099 0.0
C242 C 0.26428 0.60609 0.9137 0.0
C243 C 0.18789 0.62608 0.87207 0.0
O244 O 0.1759 0.62006 0.89465 0.0
O245 O 0.22146 0.57697 0.87306 0.0
O246 O 0.24189 0.55716 0.89887 0.0
O247 O 0.21449 0.61506 0.96045 0.0
O248 O 0.22443 0.58509 0.9535 0.0
C249 C 0.23207 0.56191 0.8738 0.0
C250 C 0.22161 0.59939 0.97277 0.0
O251 O 0.20546 0.62083 0.87325 0.0
Mg252 Mg 0.39683 0.2525 0.79756 0.0
O253 O 0.3825 0.24893 0.84806 0.0
O254 O 0.3507 0.25155 0.8398 0.0
Mg255 Mg 0.34444 0.25725 0.78642 0.0
C256 C 0.36513 0.2489 0.85857 0.0
C257 C 0.44016 0.2468 0.79912 0.0
O258 O 0.4365 0.25467 0.77067 0.0
O259 O 0.38728 0.22183 0.78237 0.0
O260 O 0.35572 0.22713 0.77494 0.0
O261 O 0.39756 0.28474 0.80422 0.0
O262 O 0.3736 0.26886 0.78128 0.0
C263 C 0.37039 0.21599 0.77443 0.0
C264 C 0.38053 0.285 0.79133 0.0
O265 O 0.42603 0.24263 0.81757 0.0
Mg266 Mg 0.79322 0.39289 0.90258 0.0
O267 O 0.76121 0.38451 0.89337 0.0
O268 O 0.74371 0.4044 0.92456 0.0
Mg269 Mg 0.76352 0.42476 0.95257 0.0
C270 C 0.74494 0.39056 0.90412 0.0
C271 C 0.82112 0.37008 0.85974 0.0
O272 O 0.83115 0.37341 0.88629 0.0
O273 O 0.78954 0.41982 0.87195 0.0
O274 O 0.77225 0.43928 0.90388 0.0
O275 O 0.79424 0.37172 0.94268 0.0
O276 O 0.78585 0.40225 0.94936 0.0
C277 C 0.78123 0.43592 0.87729 0.0
C278 C 0.78743 0.38511 0.96142 0.0
O279 O 0.80381 0.37616 0.85822 0.0
Mg280 Mg 0.58931 0.25999 0.2152 0.0
O281 O 0.60558 0.25714 0.16627 0.0
O282 O 0.63667 0.26275 0.17793 0.0
Mg283 Mg 0.6404 0.2706 0.23142 0.0
C284 C 0.6233 0.25847 0.15778 0.0
C285 C 0.55325 0.23253 0.20835 0.0
O286 O 0.56115 0.22466 0.2342 0.0
O287 O 0.60211 0.2308 0.23228 0.0
O288 O 0.63228 0.2397 0.24414 0.0
O289 O 0.5848 0.29178 0.20612 0.0
O290 O 0.61016 0.27929 0.23093 0.0
C291 C 0.619 0.22697 0.24316 0.0
C292 C 0.60175 0.29415 0.21865 0.0
O293 O 0.56192 0.24634 0.19417 0.0
Mg294 Mg 0.7922 0.59984 0.09639 0.0
O295 O 0.76064 0.60985 0.10189 0.0
O296 O 0.74185 0.58914 0.07478 0.0
Mg297 Mg 0.76101 0.56579 0.0525 0.0
C298 C 0.74403 0.60422 0.09224 0.0
C299 C 0.81894 0.62721 0.13595 0.0
O300 O 0.83058 0.62216 0.11221 0.0
O301 O 0.78722 0.57559 0.13375 0.0
O302 O 0.76907 0.55592 0.10346 0.0
O303 O 0.79407 0.61612 0.04853 0.0
O304 O 0.7854 0.58567 0.05372 0.0
C305 C 0.77785 0.55985 0.12995 0.0
C306 C 0.78788 0.60034 0.03523 0.0
O307 O 0.80179 0.62067 0.1362 0.0
Mg308 Mg 0.40832 0.7423 0.22878 0.0
O309 O 0.4004 0.74172 0.17438 0.0
O310 O 0.36895 0.73505 0.17031 0.0
Mg311 Mg 0.35657 0.7319 0.22137 0.0
C312 C 0.38528 0.73872 0.15734 0.0
C313 C 0.45197 0.74807 0.23126 0.0
O314 O 0.4487 0.7355 0.25458 0.0
O315 O 0.39397 0.77205 0.23474 0.0
O316 O 0.36286 0.76378 0.23042 0.0
O317 O 0.41379 0.71038 0.22798 0.0
O318 O 0.38546 0.72364 0.23841 0.0
C319 C 0.37604 0.7764 0.23453 0.0
C320 C 0.39554 0.7083 0.23346 0.0
O321 O 0.43766 0.75507 0.21594 0.0
Mg322 Mg 0.21499 0.39863 0.113 0.0
O323 O 0.24665 0.38798 0.11652 0.0
O324 O 0.26478 0.40941 0.08969 0.0
Mg325 Mg 0.24556 0.43358 0.07025 0.0
C326 C 0.26305 0.39387 0.10617 0.0
C327 C 0.18759 0.37178 0.15086 0.0
O328 O 0.17646 0.37824 0.12737 0.0
O329 O 0.22083 0.42181 0.15147 0.0
O330 O 0.23867 0.44256 0.12267 0.0
O331 O 0.21162 0.38335 0.06491 0.0
O332 O 0.22122 0.41351 0.07043 0.0
C333 C 0.23021 0.43762 0.14901 0.0
C334 C 0.21783 0.39912 0.0516 0.0
O335 O 0.20511 0.37722 0.15184 0.0
Mg336 Mg 0.37835 0.26431 0.1636 0.0
O337 O 0.36956 0.25824 0.11041 0.0
O338 O 0.33734 0.26079 0.10967 0.0
Mg339 Mg 0.32571 0.27 0.15923 0.0
C340 C 0.35337 0.2573 0.09551 0.0
C341 C 0.41481 0.23947 0.17674 0.0
O342 O 0.4032 0.23399 0.20023 0.0
O343 O 0.36631 0.23454 0.1777 0.0
O344 O 0.3346 0.24053 0.17933 0.0
O345 O 0.38073 0.29604 0.15219 0.0
O346 O 0.35415 0.282 0.16944 0.0
C347 C 0.34901 0.22936 0.18374 0.0
C348 C 0.36246 0.29725 0.15849 0.0
O349 O 0.40884 0.25184 0.15614 0.0
Mg350 Mg 0.73476 0.40303 0.25295 0.0
O351 O 0.74145 0.39129 0.20137 0.0
O352 O 0.73479 0.3597 0.20175 0.0
Mg353 Mg 0.72431 0.35115 0.25226 0.0
C354 C 0.74057 0.37489 0.1871 0.0
C355 C 0.76014 0.44188 0.25755 0.0
O356 O 0.76446 0.43661 0.28738 0.0
O357 O 0.76275 0.38947 0.27203 0.0
O358 O 0.75458 0.3582 0.27073 0.0
O359 O 0.70404 0.40847 0.23856 0.0
O360 O 0.71476 0.38102 0.25925 0.0
C361 C 0.76666 0.37166 0.2765 0.0
C362 C 0.70088 0.39062 0.24611 0.0
O363 O 0.7496 0.43108 0.23997 0.0
Mg364 Mg 0.63021 0.73479 0.15048 0.0
O365 O 0.62886 0.73534 0.09449 0.0
O366 O 0.6589 0.73175 0.0757 0.0
Mg367 Mg 0.67946 0.73019 0.11893 0.0
C368 C 0.64082 0.73382 0.07095 0.0
C369 C 0.5895 0.74013 0.1786 0.0
O370 O 0.59817 0.72975 0.20103 0.0
O371 O 0.64136 0.76586 0.15097 0.0
O372 O 0.67129 0.7613 0.13225 0.0
O373 O 0.62862 0.70246 0.14938 0.0
O374 O 0.65582 0.71899 0.14884 0.0
C375 C 0.65792 0.77235 0.14284 0.0
C376 C 0.64725 0.70257 0.14702 0.0
O377 O 0.59896 0.74501 0.15341 0.0
Mg378 Mg 0.26871 0.593 0.27674 0.0
O379 O 0.26262 0.5974 0.22276 0.0
O380 O 0.26534 0.62843 0.20884 0.0
Mg381 Mg 0.27437 0.64423 0.25555 0.0
C382 C 0.26178 0.61086 0.20162 0.0
C383 C 0.24407 0.5526 0.28476 0.0
O384 O 0.23411 0.55996 0.30895 0.0
O385 O 0.23903 0.60593 0.28903 0.0
O386 O 0.24522 0.63705 0.27831 0.0
O387 O 0.30019 0.58904 0.26622 0.0
O388 O 0.28649 0.61732 0.27559 0.0
C389 C 0.23406 0.62369 0.28841 0.0
C390 C 0.30157 0.60764 0.26728 0.0
O391 O 0.25705 0.56258 0.27088 0.0
Mg392 Mg 0.37513 0.73707 0.8411 0.0
O393 O 0.37686 0.73853 0.89703 0.0
O394 O 0.34684 0.73595 0.91638 0.0
Mg395 Mg 0.32602 0.73456 0.87367 0.0
C396 C 0.36499 0.73762 0.92078 0.0
C397 C 0.4158 0.74159 0.81212 0.0
O398 O 0.40688 0.7315 0.78961 0.0
O399 O 0.36483 0.76822 0.83934 0.0
O400 O 0.33501 0.76553 0.85987 0.0
O401 O 0.37632 0.705 0.84394 0.0
O402 O 0.34921 0.72178 0.84422 0.0
C403 C 0.34884 0.7756 0.84834 0.0
C404 C 0.35773 0.70534 0.84708 0.0
O405 O 0.4065 0.74657 0.8374 0.0
Mg406 Mg 0.25187 0.40246 0.74127 0.0
O407 O 0.24526 0.39949 0.79567 0.0
O408 O 0.24658 0.3685 0.81045 0.0
Mg409 Mg 0.25338 0.35132 0.76434 0.0
C410 C 0.24401 0.38629 0.81727 0.0
C411 C 0.25397 0.44677 0.74778 0.0
O412 O 0.2723 0.44199 0.74843 0.0
O413 O 0.22167 0.3917 0.72853 0.0
O414 O 0.22425 0.36056 0.74269 0.0
O415 O 0.28339 0.40362 0.75313 0.0
O416 O 0.26751 0.37672 0.7426 0.0
C417 C 0.21461 0.37478 0.73144 0.0
C418 C 0.28329 0.38499 0.75139 0.0
O419 O 0.24142 0.43363 0.7437 0.0
Mg420 Mg 0.62151 0.26849 0.85111 0.0
O421 O 0.62901 0.26374 0.90555 0.0
O422 O 0.66123 0.26478 0.9088 0.0
Mg423 Mg 0.67427 0.26926 0.85876 0.0
C424 C 0.64467 0.26286 0.92201 0.0
C425 C 0.57957 0.25981 0.83399 0.0
O426 O 0.58741 0.26511 0.80628 0.0
O427 O 0.63026 0.23729 0.84004 0.0
O428 O 0.66229 0.23945 0.84574 0.0
O429 O 0.62194 0.30052 0.85878 0.0
O430 O 0.64743 0.28354 0.84439 0.0
C431 C 0.64704 0.2297 0.83995 0.0
C432 C 0.64031 0.29989 0.85308 0.0
O433 O 0.59013 0.25937 0.85929 0.0
Mg434 Mg 0.74067 0.58899 0.73482 0.0
O435 O 0.74396 0.59605 0.78823 0.0
O436 O 0.73859 0.62684 0.8006 0.0
Mg437 Mg 0.73217 0.64046 0.75082 0.0
C438 C 0.74294 0.60966 0.80893 0.0
C439 C 0.76445 0.54822 0.73373 0.0
O440 O 0.77106 0.55268 0.70473 0.0
O441 O 0.77038 0.60259 0.7249 0.0
O442 O 0.76311 0.63345 0.73586 0.0
O443 O 0.70869 0.5853 0.74188 0.0
O444 O 0.72287 0.61281 0.72891 0.0
C445 C 0.77513 0.62038 0.72753 0.0
C446 C 0.70734 0.60363 0.73614 0.0
O447 O 0.75305 0.55968 0.74828 0.0
H448 H 0.18757 0.13249 0.19875 0.0
H449 H 0.168 0.08897 0.267 0.0
H450 H 0.13833 0.10811 0.27705 0.0
H451 H 0.1756 0.17097 0.24621 0.0
H452 H 0.16872 0.18668 0.21321 0.0
H453 H 0.18596 0.16777 0.20634 0.0
H454 H 0.16479 0.15394 0.15984 0.0
H455 H 0.1475 0.17299 0.16627 0.0
H456 H 0.13987 0.14813 0.16764 0.0
H457 H 0.11259 0.13457 0.28425 0.0
H458 H 0.09453 0.16549 0.28887 0.0
H459 H 0.13329 0.19158 0.21883 0.0
C460 C 0.1769 0.12674 0.21537 0.0
C461 C 0.1801 0.10931 0.2322 0.0
C462 C 0.16574 0.10225 0.25363 0.0
C463 C 0.14887 0.11305 0.25951 0.0
C464 C 0.14665 0.13073 0.24359 0.0
C465 C 0.16031 0.1374 0.2218 0.0
C466 C 0.15602 0.1577 0.21063 0.0
C467 C 0.17255 0.17158 0.21966 0.0
C468 C 0.15179 0.15821 0.17392 0.0
C469 C 0.13811 0.16176 0.23025 0.0
C470 C 0.13255 0.14599 0.24864 0.0
C471 C 0.11673 0.1469 0.26967 0.0
C472 C 0.10657 0.16446 0.27216 0.0
C473 C 0.11265 0.18083 0.2543 0.0
C474 C 0.12839 0.17927 0.23284 0.0
H475 H 0.75379 0.14066 0.37908 0.0
H476 H 0.79046 0.09137 0.40026 0.0
H477 H 0.81919 0.1108 0.38725 0.0
H478 H 0.78211 0.15956 0.31181 0.0
H479 H 0.77813 0.18441 0.32292 0.0
H480 H 0.76028 0.16641 0.33266 0.0
H481 H 0.7619 0.17634 0.39339 0.0
H482 H 0.7798 0.19431 0.38386 0.0
H483 H 0.78483 0.17614 0.41411 0.0
H484 H 0.84409 0.13563 0.37299 0.0
H485 H 0.86341 0.16444 0.35916 0.0
H486 H 0.81075 0.19771 0.34785 0.0
C487 C 0.76784 0.13389 0.3807 0.0
C488 C 0.7698 0.11444 0.39065 0.0
C489 C 0.78851 0.10623 0.39277 0.0
C490 C 0.80496 0.11714 0.38536 0.0
C491 C 0.80253 0.13628 0.37593 0.0
C492 C 0.78446 0.14462 0.37359 0.0
C493 C 0.78594 0.16567 0.36378 0.0
C494 C 0.77603 0.16921 0.33083 0.0
C495 C 0.77762 0.17889 0.39038 0.0
C496 C 0.80764 0.16784 0.36113 0.0
C497 C 0.81694 0.15069 0.36809 0.0
C498 C 0.83698 0.14914 0.36744 0.0
C499 C 0.84784 0.16558 0.35955 0.0
C500 C 0.83863 0.18336 0.35258 0.0
C501 C 0.81825 0.18439 0.35329 0.0
H502 H 0.85979 0.8096 0.29477 0.0
H503 H 0.90984 0.83347 0.24634 0.0
H504 H 0.89271 0.86471 0.24006 0.0
H505 H 0.82624 0.82796 0.24385 0.0
H506 H 0.80813 0.83275 0.27427 0.0
H507 H 0.82568 0.81411 0.28099 0.0
H508 H 0.83595 0.83035 0.33512 0.0
H509 H 0.81829 0.84906 0.32862 0.0
H510 H 0.84322 0.85533 0.33514 0.0
H511 H 0.86778 0.89123 0.23072 0.0
H512 H 0.83791 0.90995 0.21963 0.0
H513 H 0.80485 0.86822 0.27469 0.0
C514 C 0.86724 0.82144 0.28322 0.0
C515 C 0.88597 0.81912 0.2706 0.0
C516 C 0.89547 0.83508 0.25632 0.0
C517 C 0.88585 0.85283 0.25267 0.0
C518 C 0.86693 0.85438 0.26408 0.0
C519 C 0.85789 0.83913 0.27956 0.0
C520 C 0.83698 0.84354 0.28673 0.0
C521 C 0.82348 0.82872 0.27048 0.0
C522 C 0.83341 0.84464 0.3236 0.0
C523 C 0.83528 0.86319 0.2711 0.0
C524 C 0.85274 0.86949 0.25878 0.0
C525 C 0.85413 0.88658 0.24085 0.0
C526 C 0.83716 0.89713 0.23469 0.0
C527 C 0.81916 0.89028 0.24596 0.0
C528 C 0.81839 0.87353 0.26528 0.0
H529 H 0.18638 0.80226 0.34505 0.0
H530 H 0.13345 0.83353 0.36516 0.0
H531 H 0.15258 0.86215 0.38103 0.0
H532 H 0.21329 0.82051 0.41147 0.0
H533 H 0.23573 0.82186 0.38944 0.0
H534 H 0.21783 0.80431 0.37801 0.0
H535 H 0.21788 0.81767 0.3191 0.0
H536 H 0.23578 0.83531 0.33038 0.0
H537 H 0.21336 0.84298 0.31227 0.0
H538 H 0.17757 0.88659 0.39799 0.0
H539 H 0.2064 0.90525 0.41382 0.0
H540 H 0.24303 0.85813 0.38163 0.0
C541 C 0.17878 0.81513 0.3527 0.0
C542 C 0.1584 0.81562 0.35403 0.0
C543 C 0.14904 0.83282 0.36391 0.0
C544 C 0.15979 0.84915 0.37297 0.0
C545 C 0.17987 0.84808 0.37172 0.0
C546 C 0.18926 0.83154 0.36166 0.0
C547 C 0.21097 0.83395 0.36328 0.0
C548 C 0.21998 0.81929 0.38697 0.0
C549 C 0.22003 0.83239 0.32923 0.0
C550 C 0.21235 0.85434 0.37635 0.0
C551 C 0.19424 0.86225 0.38098 0.0
C552 C 0.19181 0.88061 0.39417 0.0
C553 C 0.2083 0.89108 0.40315 0.0
C554 C 0.22702 0.88323 0.39881 0.0
C555 C 0.22897 0.86468 0.38485 0.0
H556 H 0.14662 0.8038 0.7079 0.0
H557 H 0.09583 0.82842 0.75294 0.0
H558 H 0.11279 0.85986 0.75796 0.0
H559 H 0.1794 0.82357 0.75973 0.0
H560 H 0.19793 0.82749 0.72969 0.0
H561 H 0.18055 0.80858 0.72392 0.0
H562 H 0.17104 0.82307 0.66797 0.0
H563 H 0.18853 0.84204 0.67353 0.0
H564 H 0.16367 0.84799 0.66542 0.0
H565 H 0.13746 0.88719 0.76494 0.0
H566 H 0.16701 0.90696 0.77342 0.0
H567 H 0.20094 0.86301 0.72531 0.0
C568 C 0.13899 0.81576 0.71866 0.0
C569 C 0.1201 0.81364 0.73059 0.0
C570 C 0.11036 0.82986 0.74357 0.0
C571 C 0.11988 0.84772 0.7465 0.0
C572 C 0.13896 0.84906 0.73581 0.0
C573 C 0.14827 0.83348 0.72178 0.0
C574 C 0.16924 0.83774 0.71508 0.0
C575 C 0.18255 0.82351 0.7332 0.0
C576 C 0.17335 0.83772 0.67831 0.0
C577 C 0.17061 0.85781 0.729 0.0
C578 C 0.15299 0.8644 0.74021 0.0
C579 C 0.15125 0.88224 0.75581 0.0
C580 C 0.16802 0.89336 0.76055 0.0
C581 C 0.18616 0.88628 0.75033 0.0
C582 C 0.1873 0.86859 0.73375 0.0
H583 H 0.21021 0.11977 0.58455 0.0
H584 H 0.2606 0.14563 0.62995 0.0
H585 H 0.23984 0.1704 0.65493 0.0
H586 H 0.18675 0.1631 0.56462 0.0
H587 H 0.16273 0.15452 0.57314 0.0
H588 H 0.1812 0.13777 0.56089 0.0
H589 H 0.17522 0.11753 0.61294 0.0
H590 H 0.15667 0.13421 0.62534 0.0
H591 H 0.17655 0.12902 0.65223 0.0
H592 H 0.21457 0.19403 0.67036 0.0
H593 H 0.18589 0.21458 0.6775 0.0
H594 H 0.15121 0.17314 0.62424 0.0
C595 C 0.21689 0.13047 0.60012 0.0
C596 C 0.23711 0.13071 0.60523 0.0
C597 C 0.24519 0.14507 0.62564 0.0
C598 C 0.23351 0.15921 0.64 0.0
C599 C 0.21373 0.15871 0.63401 0.0
C600 C 0.20542 0.14465 0.6148 0.0
C601 C 0.18385 0.14792 0.61123 0.0
C602 C 0.17832 0.15102 0.57534 0.0
C603 C 0.1724 0.13117 0.62634 0.0
C604 C 0.18143 0.16631 0.63082 0.0
C605 C 0.1989 0.1722 0.64374 0.0
C606 C 0.20076 0.18941 0.66085 0.0
C607 C 0.18441 0.20101 0.66466 0.0
C608 C 0.16635 0.19532 0.6517 0.0
C609 C 0.16477 0.1776 0.63495 0.0
H610 H 0.7951 0.14513 0.77186 0.0
H611 H 0.82147 0.09277 0.73481 0.0
H612 H 0.85184 0.11078 0.72467 0.0
H613 H 0.81639 0.17768 0.71526 0.0
H614 H 0.81918 0.19667 0.74487 0.0
H615 H 0.79995 0.1794 0.74913 0.0
H616 H 0.81201 0.17088 0.80716 0.0
H617 H 0.83129 0.18812 0.80306 0.0
H618 H 0.83667 0.16333 0.8129 0.0
H619 H 0.8794 0.1356 0.71796 0.0
H620 H 0.90085 0.16432 0.71562 0.0
H621 H 0.85539 0.19902 0.75856 0.0
C622 C 0.80718 0.1374 0.76141 0.0
C623 C 0.80589 0.1176 0.75386 0.0
C624 C 0.82216 0.10799 0.74071 0.0
C625 C 0.83944 0.11809 0.73487 0.0
C626 C 0.84015 0.13771 0.74254 0.0
C627 C 0.82438 0.14717 0.75562 0.0
C628 C 0.82855 0.16819 0.76193 0.0
C629 C 0.81523 0.18125 0.74158 0.0
C630 C 0.82705 0.17289 0.79843 0.0
C631 C 0.84913 0.16924 0.7502 0.0
C632 C 0.85571 0.15161 0.73906 0.0
C633 C 0.87436 0.14945 0.72669 0.0
C634 C 0.88644 0.16579 0.7255 0.0
C635 C 0.87972 0.18394 0.73657 0.0
C636 C 0.86092 0.18546 0.74938 0.0
H637 H 0.82001 0.79739 0.65 0.0
H638 H 0.8736 0.82798 0.63178 0.0
H639 H 0.85512 0.85658 0.61413 0.0
H640 H 0.79401 0.81615 0.58164 0.0
H641 H 0.77138 0.81793 0.60301 0.0
H642 H 0.7888 0.79996 0.61486 0.0
H643 H 0.78841 0.81315 0.67385 0.0
H644 H 0.77099 0.83117 0.66219 0.0
H645 H 0.79336 0.83835 0.68097 0.0
H646 H 0.83096 0.88146 0.59699 0.0
H647 H 0.80277 0.90136 0.58265 0.0
H648 H 0.76468 0.85482 0.61256 0.0
C649 C 0.82787 0.81008 0.64227 0.0
C650 C 0.84828 0.8104 0.64214 0.0
C651 C 0.85799 0.82738 0.63212 0.0
C652 C 0.84762 0.8437 0.62201 0.0
C653 C 0.82754 0.84286 0.62223 0.0
C654 C 0.81775 0.82653 0.63221 0.0
C655 C 0.7961 0.82941 0.62998 0.0
C656 C 0.78704 0.81501 0.60594 0.0
C657 C 0.78666 0.82793 0.66376 0.0
C658 C 0.79526 0.84987 0.61698 0.0
C659 C 0.81357 0.85733 0.61267 0.0
C660 C 0.81655 0.87581 0.60038 0.0
C661 C 0.8004 0.88699 0.59225 0.0
C662 C 0.78144 0.87971 0.5965 0.0
C663 C 0.77893 0.86088 0.60918 0.0
H664 H 0.64425 0.69797 0.72631 0.0
H665 H 0.59879 0.66905 0.77995 0.0
H666 H 0.61782 0.6386 0.77851 0.0
H667 H 0.65754 0.65785 0.67452 0.0
H668 H 0.68277 0.66408 0.6758 0.0
H669 H 0.66475 0.68268 0.67943 0.0
H670 H 0.68001 0.69376 0.73399 0.0
H671 H 0.69802 0.67519 0.73059 0.0
H672 H 0.68308 0.6765 0.76641 0.0
H673 H 0.64381 0.61173 0.77352 0.0
H674 H 0.67331 0.59187 0.76539 0.0
H675 H 0.70026 0.63987 0.71511 0.0
C676 C 0.63816 0.68524 0.73769 0.0
C677 C 0.62013 0.68585 0.75345 0.0
C678 C 0.61261 0.66882 0.76769 0.0
C679 C 0.62332 0.65152 0.76699 0.0
C680 C 0.64132 0.65159 0.75168 0.0
C681 C 0.64852 0.66808 0.73713 0.0
C682 C 0.66839 0.66499 0.72323 0.0
C683 C 0.66835 0.66755 0.68604 0.0
C684 C 0.68324 0.6784 0.73954 0.0
C685 C 0.67156 0.64423 0.73265 0.0
C686 C 0.65587 0.63655 0.74886 0.0
C687 C 0.65609 0.61762 0.76064 0.0
C688 C 0.67286 0.60645 0.75592 0.0
C689 C 0.68909 0.61439 0.73982 0.0
C690 C 0.68818 0.6334 0.72777 0.0
H691 H 0.26396 0.64294 0.88841 0.0
H692 H 0.30257 0.59665 0.9176 0.0
H693 H 0.33053 0.61666 0.90233 0.0
H694 H 0.29175 0.65936 0.81923 0.0
H695 H 0.28663 0.68451 0.82636 0.0
H696 H 0.26953 0.66636 0.83873 0.0
H697 H 0.27038 0.6796 0.89769 0.0
H698 H 0.28749 0.69778 0.88551 0.0
H699 H 0.29319 0.68161 0.91851 0.0
H700 H 0.35439 0.64168 0.88425 0.0
H701 H 0.37247 0.67049 0.86628 0.0
H702 H 0.31844 0.70063 0.84958 0.0
C703 C 0.27828 0.63695 0.89144 0.0
C704 C 0.28102 0.61817 0.90417 0.0
C705 C 0.30005 0.61099 0.90798 0.0
C706 C 0.31606 0.62222 0.89929 0.0
C707 C 0.31284 0.64066 0.88693 0.0
C708 C 0.29445 0.64802 0.8831 0.0
C709 C 0.29503 0.66847 0.87005 0.0
C710 C 0.28515 0.66974 0.8366 0.0
C711 C 0.28599 0.6827 0.8944 0.0
C712 C 0.31661 0.67145 0.86725 0.0
C713 C 0.32663 0.6552 0.87694 0.0
C714 C 0.34672 0.6545 0.8766 0.0
C715 C 0.35685 0.67093 0.86631 0.0
C716 C 0.34689 0.68785 0.85669 0.0
C717 C 0.32649 0.68799 0.85702 0.0
H718 H 0.3455 0.28928 0.76218 0.0
H719 H 0.38924 0.32115 0.81524 0.0
H720 H 0.36922 0.35074 0.81096 0.0
H721 H 0.3321 0.32624 0.7072 0.0
H722 H 0.30685 0.32003 0.70775 0.0
H723 H 0.32475 0.30171 0.71505 0.0
H724 H 0.30846 0.29327 0.77005 0.0
H725 H 0.29046 0.31153 0.76288 0.0
H726 H 0.30458 0.31205 0.7997 0.0
H727 H 0.34403 0.377 0.79955 0.0
H728 H 0.31592 0.39703 0.78366 0.0
H729 H 0.28899 0.34671 0.74026 0.0
C730 C 0.35085 0.30234 0.77337 0.0
C731 C 0.36885 0.30283 0.78938 0.0
C732 C 0.37544 0.32044 0.80295 0.0
C733 C 0.36417 0.33728 0.80065 0.0
C734 C 0.34638 0.33618 0.78484 0.0
C735 C 0.33978 0.31909 0.7716 0.0
C736 C 0.32019 0.32146 0.75602 0.0
C737 C 0.32104 0.31711 0.71933 0.0
C738 C 0.30503 0.30883 0.7732 0.0
C739 C 0.31674 0.34263 0.76234 0.0
C740 C 0.33197 0.35098 0.77887 0.0
C741 C 0.33201 0.37056 0.78676 0.0
C742 C 0.31602 0.38182 0.77759 0.0
C743 C 0.30023 0.37337 0.76095 0.0
C744 C 0.30072 0.35355 0.7533 0.0
H745 H 0.67941 0.30297 0.84263 0.0
H746 H 0.62981 0.33513 0.87759 0.0
H747 H 0.65104 0.3627 0.89055 0.0
H748 H 0.71161 0.31822 0.90432 0.0
H749 H 0.73238 0.31945 0.878 0.0
H750 H 0.71309 0.30292 0.86893 0.0
H751 H 0.70954 0.31806 0.81158 0.0
H752 H 0.7288 0.3347 0.82051 0.0
H753 H 0.7056 0.34368 0.80773 0.0
H754 H 0.67775 0.38592 0.9027 0.0
H755 H 0.70804 0.40311 0.91423 0.0
H756 H 0.74061 0.35564 0.87236 0.0
C757 C 0.67296 0.31578 0.85297 0.0
C758 C 0.65291 0.31679 0.85929 0.0
C759 C 0.6451 0.33398 0.87251 0.0
C760 C 0.65704 0.34973 0.87992 0.0
C761 C 0.67677 0.34811 0.87388 0.0
C762 C 0.68469 0.33158 0.86069 0.0
C763 C 0.70646 0.33319 0.85807 0.0
C764 C 0.71647 0.31752 0.87856 0.0
C765 C 0.71298 0.33236 0.82234 0.0
C766 C 0.7096 0.35311 0.87237 0.0
C767 C 0.69224 0.3615 0.88105 0.0
C768 C 0.69141 0.37955 0.89581 0.0
C769 C 0.70875 0.38919 0.90231 0.0
C770 C 0.72679 0.38078 0.89418 0.0
C771 C 0.72711 0.36258 0.87857 0.0
H772 H 0.63894 0.29942 0.20096 0.0
H773 H 0.58785 0.33049 0.23131 0.0
H774 H 0.60719 0.36062 0.23543 0.0
H775 H 0.66993 0.31963 0.25592 0.0
H776 H 0.69053 0.32031 0.22919 0.0
H777 H 0.67204 0.30251 0.22308 0.0
H778 H 0.66736 0.31418 0.16365 0.0
H779 H 0.68601 0.33198 0.16948 0.0
H780 H 0.66241 0.3393 0.15577 0.0
H781 H 0.63363 0.38626 0.24286 0.0
H782 H 0.66402 0.40436 0.25288 0.0
H783 H 0.69692 0.35528 0.21864 0.0
C784 C 0.63178 0.31254 0.20835 0.0
C785 C 0.61206 0.31266 0.21642 0.0
C786 C 0.60301 0.33023 0.22497 0.0
C787 C 0.61388 0.34734 0.22737 0.0
C788 C 0.63362 0.34653 0.2206 0.0
C789 C 0.64236 0.32954 0.21085 0.0
C790 C 0.66393 0.33175 0.20757 0.0
C791 C 0.67473 0.31773 0.2303 0.0
C792 C 0.67029 0.32915 0.172 0.0
C793 C 0.66619 0.35241 0.21844 0.0
C794 C 0.6486 0.36092 0.22526 0.0
C795 C 0.64743 0.37976 0.23723 0.0
C796 C 0.66469 0.38991 0.24286 0.0
C797 C 0.68274 0.38099 0.23712 0.0
C798 C 0.68337 0.36225 0.22406 0.0
H799 H 0.74272 0.64088 0.11777 0.0
H800 H 0.70608 0.59368 0.08595 0.0
H801 H 0.67723 0.61314 0.09861 0.0
H802 H 0.71229 0.65734 0.18418 0.0
H803 H 0.71733 0.68248 0.17672 0.0
H804 H 0.73508 0.66443 0.16672 0.0
H805 H 0.73616 0.67704 0.10736 0.0
H806 H 0.71839 0.69508 0.11714 0.0
H807 H 0.71412 0.67847 0.08418 0.0
H808 H 0.65223 0.63818 0.11358 0.0
H809 H 0.63327 0.6672 0.12817 0.0
H810 H 0.68638 0.69791 0.14929 0.0
C811 C 0.72865 0.63453 0.11377 0.0
C812 C 0.72671 0.61569 0.10097 0.0
C813 C 0.70798 0.60807 0.09572 0.0
C814 C 0.69148 0.61899 0.10291 0.0
C815 C 0.69391 0.63755 0.11525 0.0
C816 C 0.71203 0.64527 0.12057 0.0
C817 C 0.71072 0.66584 0.13282 0.0
C818 C 0.71936 0.66762 0.16715 0.0
C819 C 0.72042 0.67993 0.10894 0.0
C820 C 0.68905 0.66852 0.13333 0.0
C821 C 0.67958 0.65202 0.12334 0.0
C822 C 0.6595 0.65117 0.12151 0.0
C823 C 0.64885 0.6677 0.12987 0.0
C824 C 0.65833 0.68485 0.13967 0.0
C825 C 0.67868 0.6851 0.14162 0.0
H826 H 0.30469 0.64055 0.23163 0.0
H827 H 0.33872 0.59711 0.28109 0.0
H828 H 0.36829 0.61644 0.27101 0.0
H829 H 0.34171 0.65485 0.17081 0.0
H830 H 0.33448 0.67982 0.17282 0.0
H831 H 0.31694 0.66099 0.1793 0.0
H832 H 0.30801 0.67608 0.23503 0.0
H833 H 0.3255 0.69484 0.22882 0.0
H834 H 0.32668 0.68002 0.26483 0.0
H835 H 0.39321 0.6431 0.26199 0.0
H836 H 0.41068 0.67411 0.25507 0.0
H837 H 0.35963 0.69919 0.21143 0.0
C838 C 0.31832 0.63505 0.24026 0.0
C839 C 0.31945 0.61759 0.25766 0.0
C840 C 0.33766 0.61052 0.26764 0.0
C841 C 0.35447 0.62138 0.262 0.0
C842 C 0.35274 0.63902 0.24579 0.0
C843 C 0.3351 0.64562 0.2347 0.0
C844 C 0.3366 0.66561 0.22028 0.0
C845 C 0.33218 0.66529 0.18362 0.0
C846 C 0.32343 0.67997 0.23833 0.0
C847 C 0.35765 0.66973 0.22653 0.0
C848 C 0.36691 0.65415 0.24065 0.0
C849 C 0.38615 0.65526 0.25049 0.0
C850 C 0.39596 0.67287 0.24646 0.0
C851 C 0.38635 0.68911 0.23327 0.0
C852 C 0.36721 0.68723 0.22233 0.0
H853 H 0.26625 0.35985 0.1409 0.0
H854 H 0.29998 0.40161 0.08626 0.0
H855 H 0.32924 0.38225 0.09565 0.0
H856 H 0.30306 0.34913 0.20146 0.0
H857 H 0.29701 0.32386 0.20346 0.0
H858 H 0.27871 0.34135 0.1934 0.0
H859 H 0.2712 0.32279 0.14015 0.0
H860 H 0.28949 0.30527 0.15001 0.0
H861 H 0.29042 0.31795 0.11174 0.0
H862 H 0.35483 0.35767 0.1091 0.0
H863 H 0.37456 0.32958 0.12567 0.0
H864 H 0.32444 0.30444 0.17268 0.0
C865 C 0.27979 0.36501 0.13105 0.0
C866 C 0.2807 0.38232 0.11282 0.0
C867 C 0.29879 0.38845 0.10034 0.0
C868 C 0.31556 0.37755 0.10555 0.0
C869 C 0.31412 0.36055 0.12344 0.0
C870 C 0.29672 0.35433 0.1361 0.0
C871 C 0.29907 0.33532 0.15392 0.0
C872 C 0.29418 0.33756 0.19022 0.0
C873 C 0.28682 0.31939 0.13799 0.0
C874 C 0.32044 0.33174 0.14892 0.0
C875 C 0.32888 0.34648 0.13136 0.0
C876 C 0.34839 0.34608 0.12302 0.0
C877 C 0.35949 0.33008 0.13258 0.0
C878 C 0.35105 0.31469 0.15024 0.0
C879 C 0.33132 0.31579 0.15885 0.0
H880 H 0.93565 0.22378 0.26484 0.0
H881 H 0.93208 0.25749 0.35365 0.0
H882 H 0.96696 0.2646 0.34979 0.0
H883 H 0.98066 0.20221 0.28152 0.0
H884 H 0.98885 0.20278 0.2399 0.0
H885 H 0.96345 0.20153 0.24864 0.0
H886 H 0.95769 0.23232 0.21409 0.0
H887 H 0.98312 0.23369 0.2053 0.0
H888 H 0.97094 0.25403 0.22335 0.0
H889 H 0.0028 0.26662 0.33743 0.0
H890 H 0.03644 0.26268 0.31831 0.0
H891 H 0.016 0.2277 0.23776 0.0
C892 C 0.94211 0.23282 0.28334 0.0
C893 C 0.93109 0.24011 0.30951 0.0
C894 C 0.94021 0.25176 0.33333 0.0
C895 C 0.96001 0.25592 0.33131 0.0
C896 C 0.97047 0.24838 0.30527 0.0
C897 C 0.96181 0.23709 0.28171 0.0
C898 C 0.97633 0.23002 0.25697 0.0
C899 C 0.97739 0.20783 0.25677 0.0
C900 C 0.97174 0.238 0.22291 0.0
C901 C 0.99461 0.23884 0.27052 0.0
C902 C 0.99096 0.24951 0.29824 0.0
C903 C 0.00579 0.25842 0.31559 0.0
C904 C 0.02485 0.25612 0.30453 0.0
C905 C 0.02888 0.24493 0.27649 0.0
C906 C 0.01345 0.23646 0.25915 0.0
H907 H 0.72199 0.01986 0.36263 0.0
H908 H 0.71525 0.06804 0.29623 0.0
H909 H 0.71907 0.04569 0.24943 0.0
H910 H 0.75815 0.99615 0.32127 0.0
H911 H 0.74948 0.97217 0.33002 0.0
H912 H 0.74409 0.99166 0.3574 0.0
H913 H 0.70752 0.98443 0.35189 0.0
H914 H 0.71288 0.96484 0.32452 0.0
H915 H 0.69664 0.98378 0.31205 0.0
H916 H 0.72785 0.01807 0.21039 0.0
H917 H 0.73896 0.98804 0.18338 0.0
H918 H 0.73834 0.95869 0.27672 0.0
C919 C 0.72101 0.02571 0.33824 0.0
C920 C 0.71842 0.04566 0.33296 0.0
C921 C 0.71713 0.05275 0.30072 0.0
C922 C 0.71931 0.04017 0.27406 0.0
C923 C 0.72236 0.02057 0.28022 0.0
C924 C 0.72288 0.01341 0.31162 0.0
C925 C 0.7272 0.99205 0.31221 0.0
C926 C 0.74584 0.98777 0.33134 0.0
C927 C 0.71003 0.9806 0.32597 0.0
C928 C 0.72976 0.98835 0.2763 0.0
C929 C 0.72683 0.00485 0.25804 0.0
C930 C 0.72983 0.005 0.22443 0.0
C931 C 0.73617 0.9879 0.2093 0.0
C932 C 0.73944 0.97097 0.22785 0.0
C933 C 0.73581 0.97127 0.26165 0.0
H934 H 0.06321 0.77412 0.26595 0.0
H935 H 0.06611 0.73946 0.35383 0.0
H936 H 0.03125 0.73236 0.34893 0.0
H937 H 0.01831 0.79562 0.28239 0.0
H938 H 0.01034 0.79557 0.24064 0.0
H939 H 0.0357 0.79655 0.2498 0.0
H940 H 0.04144 0.76611 0.2144 0.0
H941 H 0.01605 0.76502 0.20519 0.0
H942 H 0.028 0.7444 0.22278 0.0
H943 H 0.9955 0.73056 0.33575 0.0
H944 H 0.96198 0.73516 0.31658 0.0
H945 H 0.98297 0.77113 0.23765 0.0
C946 C 0.05661 0.76485 0.28401 0.0
C947 C 0.06743 0.75729 0.31023 0.0
C948 C 0.05814 0.74538 0.33348 0.0
C949 C 0.03835 0.74123 0.33085 0.0
C950 C 0.02809 0.74904 0.30479 0.0
C951 C 0.03694 0.7606 0.28179 0.0
C952 C 0.02258 0.76806 0.25705 0.0
C953 C 0.02168 0.79026 0.25752 0.0
C954 C 0.0273 0.76044 0.22283 0.0
C955 C 0.00418 0.75921 0.27004 0.0
C956 C 0.00763 0.74812 0.29738 0.0
C957 C 0.99266 0.7391 0.31421 0.0
C958 C 0.97367 0.74177 0.30311 0.0
C959 C 0.96982 0.75347 0.27556 0.0
C960 C 0.98539 0.762 0.25865 0.0
H961 H 0.26307 0.97729 0.3912 0.0
H962 H 0.29734 0.94037 0.32825 0.0
H963 H 0.29796 0.96603 0.28666 0.0
H964 H 0.2339 0.99742 0.3294 0.0
H965 H 0.233 0.02117 0.34725 0.0
H966 H 0.23622 0.00033 0.37282 0.0
H967 H 0.26751 0.01531 0.39647 0.0
H968 H 0.26433 0.03619 0.37089 0.0
H969 H 0.28652 0.02266 0.36922 0.0
H970 H 0.29347 0.99511 0.25068 0.0
H971 H 0.28386 0.02532 0.22303 0.0
H972 H 0.2529 0.04315 0.30984 0.0
C973 C 0.27084 0.9746 0.3688 0.0
C974 C 0.28016 0.95676 0.36309 0.0
C975 C 0.2901 0.9539 0.33331 0.0
C976 C 0.29058 0.96841 0.30951 0.0
C977 C 0.28116 0.98575 0.31589 0.0
C978 C 0.27152 0.98893 0.34484 0.0
C979 C 0.26199 0.0086 0.34521 0.0
C980 C 0.23998 0.00676 0.34887 0.0
C981 C 0.27061 0.02145 0.37204 0.0
C982 C 0.26749 0.01582 0.31171 0.0
C983 C 0.27865 0.00251 0.29524 0.0
C984 C 0.28486 0.00572 0.26343 0.0
C985 C 0.27932 0.02292 0.24792 0.0
C986 C 0.26765 0.03662 0.26424 0.0
C987 C 0.26192 0.03304 0.29671 0.0
H988 H 0.02345 0.76506 0.76329 0.0
H989 H 0.04438 0.73001 0.68319 0.0
H990 H 0.01086 0.7257 0.66387 0.0
H991 H 0.97831 0.7383 0.77722 0.0
H992 H 0.96504 0.76001 0.78638 0.0
H993 H 0.99043 0.75862 0.79546 0.0
H994 H 0.99637 0.78949 0.76123 0.0
H995 H 0.97106 0.7909 0.75182 0.0
H996 H 0.98855 0.79015 0.7194 0.0
H997 H 0.97523 0.72779 0.65065 0.0
H998 H 0.94043 0.73512 0.64576 0.0
H999 H 0.94326 0.7687 0.73481 0.0
C1000 C 0.021 0.75617 0.74202 0.0
C1001 C 0.03655 0.74783 0.7248 0.0
C1002 C 0.03269 0.73646 0.69689 0.0
C1003 C 0.01371 0.73395 0.68572 0.0
C1004 C 0.99876 0.74279 0.70286 0.0
C1005 C 0.00221 0.75352 0.73059 0.0
C1006 C 0.98382 0.76234 0.74372 0.0
C1007 C 0.97912 0.75434 0.77771 0.0
C1008 C 0.98503 0.78453 0.74404 0.0
C1009 C 0.96951 0.75528 0.71863 0.0
C1010 C 0.97835 0.74392 0.69535 0.0
C1011 C 0.96813 0.73647 0.66897 0.0
C1012 C 0.94838 0.74076 0.66635 0.0
C1013 C 0.93909 0.75243 0.68995 0.0
C1014 C 0.94987 0.75962 0.71648 0.0
H1015 H 0.23278 0.96485 0.67014 0.0
H1016 H 0.27767 0.96489 0.74379 0.0
H1017 H 0.29025 0.99567 0.72156 0.0
H1018 H 0.26126 0.98354 0.60515 0.0
H1019 H 0.24182 0.99775 0.58854 0.0
H1020 H 0.23662 0.97588 0.61053 0.0
H1021 H 0.21429 0.99499 0.64964 0.0
H1022 H 0.21945 0.01693 0.62782 0.0
H1023 H 0.22371 0.01566 0.67103 0.0
H1024 H 0.2977 0.0268 0.69052 0.0
H1025 H 0.29945 0.05496 0.65348 0.0
H1026 H 0.24929 0.03358 0.6014 0.0
C1027 C 0.24527 0.97126 0.68169 0.0
C1028 C 0.25424 0.96249 0.7087 0.0
C1029 C 0.27056 0.9714 0.72305 0.0
C1030 C 0.27779 0.98887 0.71061 0.0
C1031 C 0.2685 0.99716 0.68394 0.0
C1032 C 0.25259 0.9886 0.66972 0.0
C1033 C 0.24509 0.00026 0.6414 0.0
C1034 C 0.24628 0.98867 0.60952 0.0
C1035 C 0.22442 0.00738 0.64788 0.0
C1036 C 0.25931 0.01676 0.64169 0.0
C1037 C 0.27271 0.01482 0.66636 0.0
C1038 C 0.28726 0.02844 0.67113 0.0
C1039 C 0.28813 0.04439 0.65 0.0
C1040 C 0.27453 0.04651 0.62447 0.0
C1041 C 0.25995 0.03247 0.62057 0.0
H1042 H 0.05381 0.23284 0.66117 0.0
H1043 H 0.07484 0.27504 0.7308 0.0
H1044 H 0.04148 0.28254 0.7467 0.0
H1045 H 0.01032 0.25953 0.63693 0.0
H1046 H 0.99568 0.2381 0.63404 0.0
H1047 H 0.02124 0.23677 0.6263 0.0
H1048 H 0.02462 0.21012 0.67018 0.0
H1049 H 0.9991 0.21136 0.678 0.0
H1050 H 0.016 0.21468 0.71086 0.0
H1051 H 0.00626 0.28451 0.75735 0.0
H1052 H 0.97112 0.28023 0.76288 0.0
H1053 H 0.97228 0.23681 0.68669 0.0
C1054 C 0.05136 0.2438 0.67948 0.0
C1055 C 0.06699 0.25336 0.69468 0.0
C1056 C 0.06316 0.26747 0.71881 0.0
C1057 C 0.04423 0.27192 0.72796 0.0
C1058 C 0.02918 0.26216 0.71279 0.0
C1059 C 0.03246 0.24839 0.68908 0.0
C1060 C 0.01362 0.23945 0.67782 0.0
C1061 C 0.01001 0.24372 0.64162 0.0
C1062 C 0.01333 0.21761 0.68464 0.0
C1063 C 0.99936 0.25014 0.69929 0.0
C1064 C 0.00867 0.26327 0.71906 0.0
C1065 C 0.99875 0.27438 0.74183 0.0
C1066 C 0.97878 0.27182 0.74481 0.0
C1067 C 0.96889 0.25824 0.72518 0.0
C1068 C 0.97936 0.24746 0.70182 0.0
H1069 H 0.77497 0.02148 0.72967 0.0
H1070 H 0.71726 0.03243 0.76595 0.0
H1071 H 0.70624 0.00147 0.74205 0.0
H1072 H 0.76043 0.00564 0.65468 0.0
H1073 H 0.77921 0.98787 0.64988 0.0
H1074 H 0.78324 0.00862 0.67515 0.0
H1075 H 0.7917 0.98634 0.72383 0.0
H1076 H 0.78773 0.96543 0.6986 0.0
H1077 H 0.77481 0.96801 0.7364 0.0
H1078 H 0.70113 0.97057 0.70976 0.0
H1079 H 0.70162 0.94479 0.66788 0.0
H1080 H 0.76218 0.95623 0.65014 0.0
C1081 C 0.76014 0.0171 0.73352 0.0
C1082 C 0.74702 0.02915 0.7501 0.0
C1083 C 0.72758 0.02326 0.75358 0.0
C1084 C 0.72124 0.00568 0.74024 0.0
C1085 C 0.73451 0.99432 0.72333 0.0
C1086 C 0.75355 -9e-05 0.71983 0.0
C1087 C 0.7644 0.9867 0.69702 0.0
C1088 C 0.77227 0.99788 0.66744 0.0
C1089 C 0.78061 0.97598 0.71505 0.0
C1090 C 0.74838 0.97308 0.6874 0.0
C1091 C 0.73137 0.97731 0.70344 0.0
C1092 C 0.71443 0.96704 0.69731 0.0
C1093 C 0.71483 0.95241 0.67361 0.0
C1094 C 0.73193 0.94865 0.6559 0.0
C1095 C 0.74893 0.95885 0.66342 0.0
H1096 H 0.52015 0.73306 0.73325 0.0
H1097 H 0.5422 0.76674 0.81416 0.0
H1098 H 0.5089 0.77136 0.83429 0.0
H1099 H 0.4755 0.76076 0.72104 0.0
H1100 H 0.46174 0.73945 0.71139 0.0
H1101 H 0.4871 0.74041 0.70194 0.0
H1102 H 0.49262 0.70905 0.73508 0.0
H1103 H 0.46734 0.70804 0.7448 0.0
H1104 H 0.485 0.70805 0.777 0.0
H1105 H 0.47331 0.76993 0.84792 0.0
H1106 H 0.43841 0.76322 0.85316 0.0
H1107 H 0.44009 0.73056 0.76306 0.0
C1108 C 0.518 0.74169 0.75491 0.0
C1109 C 0.53379 0.74957 0.77209 0.0
C1110 C 0.53032 0.76063 0.8005 0.0
C1111 C 0.51146 0.76333 0.81213 0.0
C1112 C 0.49625 0.75499 0.79493 0.0
C1113 C 0.49933 0.74452 0.76679 0.0
C1114 C 0.4807 0.73623 0.75366 0.0
C1115 C 0.47599 0.74473 0.72002 0.0
C1116 C 0.48147 0.71403 0.7526 0.0
C1117 C 0.46668 0.7433 0.7792 0.0
C1118 C 0.47586 0.7542 0.80271 0.0
C1119 C 0.46594 0.76158 0.82945 0.0
C1120 C 0.44613 0.75766 0.83226 0.0
C1121 C 0.43649 0.74641 0.80848 0.0
C1122 C 0.44697 0.73932 0.78154 0.0
H1123 H 0.27566 0.47381 0.77853 0.0
H1124 H 0.21866 0.46397 0.73833 0.0
H1125 H 0.20807 0.49576 0.75935 0.0
H1126 H 0.25989 0.49163 0.85101 0.0
H1127 H 0.27899 0.50901 0.85623 0.0
H1128 H 0.28311 0.4877 0.83235 0.0
H1129 H 0.2933 0.50885 0.78319 0.0
H1130 H 0.28926 0.53031 0.80704 0.0
H1131 H 0.27721 0.52735 0.7685 0.0
H1132 H 0.20288 0.52707 0.79007 0.0
H1133 H 0.20282 0.55319 0.83132 0.0
H1134 H 0.26268 0.54079 0.85352 0.0
C1135 C 0.26112 0.47859 0.77319 0.0
C1136 C 0.24805 0.46658 0.75646 0.0
C1137 C 0.22895 0.47307 0.7509 0.0
C1138 C 0.22285 0.49112 0.7626 0.0
C1139 C 0.23602 0.50242 0.77983 0.0
C1140 C 0.25476 0.49632 0.78515 0.0
C1141 C 0.26537 0.50967 0.80804 0.0
C1142 C 0.27222 0.49885 0.83871 0.0
C1143 C 0.28228 0.51964 0.79064 0.0
C1144 C 0.24949 0.52386 0.8158 0.0
C1145 C 0.23281 0.51983 0.79866 0.0
C1146 C 0.21594 0.53049 0.8033 0.0
C1147 C 0.21603 0.5453 0.82667 0.0
C1148 C 0.23273 0.54889 0.8455 0.0
C1149 C 0.24973 0.53832 0.83937 0.0
H1150 H 0.47283 0.25372 0.76394 0.0
H1151 H 0.45336 0.23595 0.85973 0.0
H1152 H 0.48722 0.23583 0.87901 0.0
H1153 H 0.51753 0.22577 0.76316 0.0
H1154 H 0.53059 0.24442 0.74194 0.0
H1155 H 0.50503 0.24165 0.73553 0.0
H1156 H 0.49976 0.27747 0.75149 0.0
H1157 H 0.52525 0.28032 0.75815 0.0
H1158 H 0.50847 0.28601 0.79024 0.0
H1159 H 0.52346 0.24001 0.88847 0.0
H1160 H 0.55848 0.24708 0.88668 0.0
H1161 H 0.55341 0.26187 0.7844 0.0
C1162 C 0.47564 0.24953 0.78888 0.0
C1163 C 0.46041 0.24482 0.81031 0.0
C1164 C 0.46479 0.23953 0.8428 0.0
C1165 C 0.48398 0.23945 0.85398 0.0
C1166 C 0.49861 0.24457 0.8323 0.0
C1167 C 0.49462 0.24935 0.80035 0.0
C1168 C 0.51271 0.25498 0.7821 0.0
C1169 C 0.5167 0.24086 0.75403 0.0
C1170 C 0.51146 0.27594 0.76979 0.0
C1171 C 0.52754 0.25294 0.80885 0.0
C1172 C 0.51922 0.24686 0.83764 0.0
C1173 C 0.53012 0.24461 0.86595 0.0
C1174 C 0.54999 0.24869 0.86472 0.0
C1175 C 0.55874 0.25498 0.83539 0.0
C1176 C 0.54726 0.25699 0.80718 0.0
H1177 H 0.7649 0.47209 0.87895 0.0
H1178 H 0.79865 0.43394 0.81733 0.0
H1179 H 0.79883 0.45873 0.7742 0.0
H1180 H 0.73517 0.49123 0.8163 0.0
H1181 H 0.73453 0.51526 0.8331 0.0
H1182 H 0.7377 0.49478 0.85955 0.0
H1183 H 0.76917 0.50987 0.88222 0.0
H1184 H 0.76606 0.5304 0.85583 0.0
H1185 H 0.78814 0.51666 0.85447 0.0
H1186 H 0.79464 0.48767 0.73701 0.0
H1187 H 0.7862 0.51826 0.70919 0.0
H1188 H 0.75522 0.53691 0.79549 0.0
C1189 C 0.77243 0.46893 0.8565 0.0
C1190 C 0.78177 0.45102 0.85165 0.0
C1191 C 0.79139 0.44754 0.82174 0.0
C1192 C 0.7916 0.46154 0.79705 0.0
C1193 C 0.78216 0.47898 0.8026 0.0
C1194 C 0.77279 0.48272 0.83163 0.0
C1195 C 0.76341 0.50244 0.8313 0.0
C1196 C 0.7414 0.50082 0.83529 0.0
C1197 C 0.77223 0.51562 0.8575 0.0
C1198 C 0.7688 0.50913 0.79746 0.0
C1199 C 0.77969 0.49549 0.78127 0.0
C1200 C 0.78616 0.49849 0.7495 0.0
C1201 C 0.7813 0.51589 0.73389 0.0
C1202 C 0.77002 0.52998 0.75006 0.0
C1203 C 0.76382 0.52646 0.78231 0.0
H1204 H 0.44677 0.25723 0.15059 0.0
H1205 H 0.42848 0.20648 0.2042 0.0
H1206 H 0.46244 0.19676 0.2112 0.0
H1207 H 0.49056 0.23504 0.11138 0.0
H1208 H 0.50437 0.2569 0.11614 0.0
H1209 H 0.47862 0.25815 0.11023 0.0
H1210 H 0.47532 0.27813 0.16322 0.0
H1211 H 0.50097 0.27689 0.16933 0.0
H1212 H 0.48483 0.26855 0.20073 0.0
H1213 H 0.49793 0.19479 0.21907 0.0
H1214 H 0.5326 0.20096 0.22772 0.0
H1215 H 0.52836 0.25302 0.16937 0.0
C1216 C 0.44992 0.24375 0.16285 0.0
C1217 C 0.43499 0.2325 0.1766 0.0
C1218 C 0.43969 0.21527 0.19336 0.0
C1219 C 0.45894 0.20957 0.19734 0.0
C1220 C 0.47338 0.22125 0.18439 0.0
C1221 C 0.46914 0.23794 0.16733 0.0
C1222 C 0.4874 0.24896 0.15901 0.0
C1223 C 0.49041 0.2498 0.12199 0.0
C1224 C 0.4871 0.26933 0.17398 0.0
C1225 C 0.50244 0.23624 0.17514 0.0
C1226 C 0.49406 0.22017 0.18917 0.0
C1227 C 0.50473 0.20713 0.20769 0.0
C1228 C 0.52442 0.21078 0.21255 0.0
C1229 C 0.53324 0.22738 0.19905 0.0
C1230 C 0.52214 0.24 0.17949 0.0
H1231 H 0.75722 0.52659 0.12945 0.0
H1232 H 0.79741 0.55923 0.18895 0.0
H1233 H 0.79741 0.53263 0.22955 0.0
H1234 H 0.72951 0.50599 0.19446 0.0
H1235 H 0.72635 0.48344 0.17327 0.0
H1236 H 0.7291 0.50551 0.15061 0.0
H1237 H 0.75794 0.49051 0.11926 0.0
H1238 H 0.7554 0.46847 0.14201 0.0
H1239 H 0.77817 0.48101 0.14172 0.0
H1240 H 0.79306 0.50108 0.26295 0.0
H1241 H 0.78469 0.46879 0.28516 0.0
H1242 H 0.74844 0.45823 0.20092 0.0
C1243 C 0.76601 0.52838 0.15103 0.0
C1244 C 0.77734 0.54504 0.15595 0.0
C1245 C 0.78855 0.54661 0.18469 0.0
C1246 C 0.78866 0.53157 0.20781 0.0
C1247 C 0.7775 0.51516 0.20169 0.0
C1248 C 0.76636 0.51364 0.17394 0.0
C1249 C 0.75592 0.4946 0.17208 0.0
C1250 C 0.73392 0.49757 0.17265 0.0
C1251 C 0.76225 0.48297 0.14199 0.0
C1252 C 0.76298 0.4854 0.20307 0.0
C1253 C 0.77532 0.49737 0.22011 0.0
C1254 C 0.78341 0.49165 0.24971 0.0
C1255 C 0.77861 0.4733 0.26211 0.0
C1256 C 0.76598 0.46095 0.24473 0.0
C1257 C 0.75823 0.4672 0.21482 0.0
H1258 H 0.48527 0.73462 0.25876 0.0
H1259 H 0.46399 0.76998 0.17925 0.0
H1260 H 0.49731 0.7735 0.15856 0.0
H1261 H 0.53103 0.76045 0.27081 0.0
H1262 H 0.54401 0.73852 0.27964 0.0
H1263 H 0.51876 0.74039 0.2896 0.0
H1264 H 0.51183 0.70959 0.25576 0.0
H1265 H 0.53699 0.7077 0.24551 0.0
H1266 H 0.51912 0.70872 0.21368 0.0
H1267 H 0.5328 0.77073 0.1441 0.0
H1268 H 0.56743 0.76281 0.13819 0.0
H1269 H 0.56498 0.72941 0.22749 0.0
C1270 C 0.4876 0.7434 0.2373 0.0
C1271 C 0.472 0.75206 0.22067 0.0
C1272 C 0.47572 0.76329 0.19251 0.0
C1273 C 0.4946 0.76535 0.18056 0.0
C1274 C 0.50959 0.75622 0.19718 0.0
C1275 C 0.50629 0.74561 0.22511 0.0
C1276 C 0.52467 0.73647 0.23766 0.0
C1277 C 0.52992 0.74444 0.27143 0.0
C1278 C 0.52305 0.71431 0.23816 0.0
C1279 C 0.53879 0.74323 0.21204 0.0
C1280 C 0.52989 0.75469 0.18897 0.0
C1281 C 0.53995 0.76194 0.16224 0.0
C1282 C 0.5596 0.75732 0.15904 0.0
C1283 C 0.56895 0.74553 0.18242 0.0
C1284 C 0.55834 0.73856 0.20931 0.0
H1285 H 0.25407 0.46852 0.15585 0.0
H1286 H 0.20755 0.43803 0.20435 0.0
H1287 H 0.20695 0.46326 0.24715 0.0
H1288 H 0.27858 0.48545 0.22905 0.0
H1289 H 0.2849 0.50816 0.21044 0.0
H1290 H 0.28249 0.48682 0.18574 0.0
H1291 H 0.25749 0.50451 0.14941 0.0
H1292 H 0.25971 0.52582 0.17408 0.0
H1293 H 0.23636 0.51499 0.16789 0.0
H1294 H 0.20997 0.49399 0.28217 0.0
H1295 H 0.21709 0.52604 0.30634 0.0
H1296 H 0.26167 0.53496 0.23369 0.0
C1297 C 0.24387 0.46693 0.17563 0.0
C1298 C 0.23083 0.45131 0.17669 0.0
C1299 C 0.21776 0.44984 0.20311 0.0
C1300 C 0.2173 0.46412 0.22748 0.0
C1301 C 0.23011 0.4796 0.22516 0.0
C1302 C 0.24327 0.4809 0.19998 0.0
C1303 C 0.25503 0.4992 0.2019 0.0
C1304 C 0.27652 0.49462 0.20711 0.0
C1305 C 0.25195 0.51187 0.17153 0.0
C1306 C 0.24622 0.50827 0.23176 0.0
C1307 C 0.23193 0.49685 0.24509 0.0
C1308 C 0.2213 0.50292 0.27209 0.0
C1309 C 0.22541 0.52115 0.28563 0.0
C1310 C 0.23998 0.53301 0.27203 0.0
C1311 C 0.25052 0.52627 0.24493 0.0
H1312 H 0.14422 0.22537 0.38407 0.0
H1313 H 0.08191 0.23026 0.37699 0.0
H1314 H 0.07976 0.23218 0.43695 0.0
H1315 H 0.14561 0.1964 0.45731 0.0
H1316 H 0.16664 0.2085 0.47308 0.0
H1317 H 0.16306 0.20667 0.42978 0.0
H1318 H 0.16573 0.24387 0.42458 0.0
H1319 H 0.16927 0.24582 0.46785 0.0
H1320 H 0.15002 0.25903 0.44847 0.0
H1321 H 0.08464 0.23395 0.49818 0.0
H1322 H 0.09625 0.23642 0.55498 0.0
H1323 H 0.1553 0.23116 0.52083 0.0
C1324 C 0.13008 0.22666 0.39505 0.0
C1325 C 0.11323 0.22757 0.37575 0.0
C1326 C 0.09504 0.22952 0.39122 0.0
C1327 C 0.09366 0.23058 0.42527 0.0
C1328 C 0.1106 0.22976 0.44351 0.0
C1329 C 0.12846 0.22789 0.42888 0.0
C1330 C 0.14453 0.22799 0.45377 0.0
C1331 C 0.15561 0.20874 0.45346 0.0
C1332 C 0.15818 0.2452 0.44834 0.0
C1333 C 0.13297 0.23032 0.48471 0.0
C1334 C 0.11341 0.23117 0.47842 0.0
C1335 C 0.09994 0.2333 0.50337 0.0
C1336 C 0.10666 0.23467 0.53555 0.0
C1337 C 0.12669 0.23407 0.54243 0.0
C1338 C 0.13991 0.2318 0.51651 0.0
H1339 H 0.73984 0.13302 0.63935 0.0
H1340 H 0.74848 0.07271 0.6646 0.0
H1341 H 0.73986 0.06328 0.60869 0.0
H1342 H 0.69858 0.1254 0.58841 0.0
H1343 H 0.70512 0.14369 0.55922 0.0
H1344 H 0.71267 0.14596 0.60098 0.0
H1345 H 0.74828 0.14876 0.58246 0.0
H1346 H 0.74084 0.14655 0.54062 0.0
H1347 H 0.75853 0.13016 0.5571 0.0
H1348 H 0.73031 0.06019 0.55071 0.0
H1349 H 0.71963 0.06349 0.49387 0.0
H1350 H 0.71623 0.12569 0.50571 0.0
C1351 C 0.74006 0.11784 0.63306 0.0
C1352 C 0.74491 0.10361 0.6564 0.0
C1353 C 0.7448 0.08389 0.64723 0.0
C1354 C 0.73996 0.07837 0.6155 0.0
C1355 C 0.73514 0.09272 0.59321 0.0
C1356 C 0.73509 0.11204 0.6015 0.0
C1357 C 0.72885 0.12447 0.57296 0.0
C1358 C 0.7102 0.13553 0.58087 0.0
C1359 C 0.7451 0.1383 0.56268 0.0
C1360 C 0.7254 0.10908 0.54739 0.0
C1361 C 0.72924 0.0909 0.55964 0.0
C1362 C 0.72728 0.07434 0.54079 0.0
C1363 C 0.72125 0.07639 0.50849 0.0
C1364 C 0.71715 0.09485 0.49532 0.0
C1365 C 0.71919 0.1114 0.51514 0.0
H1366 H 0.85483 0.76905 0.38786 0.0
H1367 H 0.91656 0.75948 0.37935 0.0
H1368 H 0.91876 0.75581 0.43909 0.0
H1369 H 0.85633 0.7968 0.46084 0.0
H1370 H 0.83444 0.78655 0.477 0.0
H1371 H 0.83785 0.78813 0.43366 0.0
H1372 H 0.83198 0.75129 0.42845 0.0
H1373 H 0.82858 0.7496 0.4718 0.0
H1374 H 0.84646 0.7348 0.45203 0.0
H1375 H 0.91409 0.75391 0.50038 0.0
H1376 H 0.90292 0.75372 0.55754 0.0
H1377 H 0.84429 0.7641 0.52459 0.0
C1378 C 0.86886 0.76617 0.39842 0.0
C1379 C 0.88553 0.76459 0.37881 0.0
C1380 C 0.90356 0.76076 0.3938 0.0
C1381 C 0.90496 0.75864 0.42773 0.0
C1382 C 0.8882 0.76033 0.44627 0.0
C1383 C 0.8705 0.76397 0.43207 0.0
C1384 C 0.85465 0.76524 0.45724 0.0
C1385 C 0.84527 0.78538 0.45717 0.0
C1386 C 0.83953 0.74927 0.45207 0.0
C1387 C 0.86618 0.76185 0.48792 0.0
C1388 C 0.88551 0.75904 0.4812 0.0
C1389 C 0.89897 0.75601 0.5059 0.0
C1390 C 0.89248 0.75593 0.53829 0.0
C1391 C 0.8727 0.75882 0.54565 0.0
C1392 C 0.85947 0.76171 0.51994 0.0
H1393 H 0.25085 0.90836 0.65306 0.0
H1394 H 0.24601 0.84604 0.66244 0.0
H1395 H 0.25607 0.84226 0.60544 0.0
H1396 H 0.23283 0.91101 0.57 0.0
H1397 H 0.24918 0.93001 0.55827 0.0
H1398 H 0.24127 0.92808 0.5999 0.0
H1399 H 0.27677 0.9267 0.61914 0.0
H1400 H 0.28485 0.92861 0.57762 0.0
H1401 H 0.29271 0.90866 0.60248 0.0
H1402 H 0.26797 0.84481 0.54872 0.0
H1403 H 0.27978 0.85371 0.49422 0.0
H1404 H 0.27612 0.91439 0.52007 0.0
C1405 C 0.25183 0.89392 0.6431 0.0
C1406 C 0.24766 0.8775 0.66237 0.0
C1407 C 0.24909 0.85887 0.64829 0.0
C1408 C 0.25481 0.85654 0.61589 0.0
C1409 C 0.25893 0.87296 0.59769 0.0
C1410 C 0.2574 0.89131 0.61061 0.0
C1411 C 0.26277 0.9065 0.58558 0.0
C1412 C 0.24548 0.91967 0.57799 0.0
C1413 C 0.28032 0.91831 0.59689 0.0
C1414 C 0.26775 0.89375 0.55677 0.0
C1415 C 0.26546 0.87447 0.56442 0.0
C1416 C 0.2697 0.85986 0.5423 0.0
C1417 C 0.27646 0.86507 0.51144 0.0
C1418 C 0.2788 0.88473 0.50287 0.0
C1419 C 0.2743 0.89924 0.52585 0.0
H1420 H 0.16175 0.7694 0.47615 0.0
H1421 H 0.10336 0.75896 0.44208 0.0
H1422 H 0.09223 0.75661 0.49912 0.0
H1423 H 0.16047 0.7369 0.54387 0.0
H1424 H 0.17464 0.75241 0.56971 0.0
H1425 H 0.17786 0.75318 0.52625 0.0
H1426 H 0.17103 0.78998 0.52646 0.0
H1427 H 0.16783 0.78934 0.56992 0.0
H1428 H 0.14898 0.79885 0.5443 0.0
H1429 H 0.08767 0.75533 0.56055 0.0
H1430 H 0.08996 0.75598 0.6206 0.0
H1431 H 0.15141 0.76744 0.61315 0.0
C1432 C 0.1466 0.7666 0.48052 0.0
C1433 C 0.13344 0.76434 0.45452 0.0
C1434 C 0.11374 0.76076 0.46154 0.0
C1435 C 0.10728 0.75937 0.49387 0.0
C1436 C 0.12069 0.76163 0.51887 0.0
C1437 C 0.13993 0.76522 0.51249 0.0
C1438 C 0.15146 0.76727 0.54352 0.0
C1439 C 0.16702 0.7515 0.54597 0.0
C1440 C 0.16034 0.78757 0.5462 0.0
C1441 C 0.13573 0.76429 0.56847 0.0
C1442 C 0.11807 0.761 0.55388 0.0
C1443 C 0.10143 0.7579 0.57221 0.0
C1444 C 0.10289 0.75827 0.60631 0.0
C1445 C 0.12086 0.76177 0.62171 0.0
C1446 C 0.13744 0.76473 0.60231 0.0
H1447 H 0.23451 0.09372 0.34652 0.0
H1448 H 0.2323 0.15587 0.33347 0.0
H1449 H 0.24498 0.16035 0.38912 0.0
H1450 H 0.22143 0.09369 0.43415 0.0
H1451 H 0.2375 0.07387 0.44275 0.0
H1452 H 0.2262 0.07576 0.40339 0.0
H1453 H 0.25981 0.07455 0.37586 0.0
H1454 H 0.2712 0.07283 0.41507 0.0
H1455 H 0.27794 0.09189 0.38744 0.0
H1456 H 0.26211 0.15786 0.4432 0.0
H1457 H 0.27888 0.14855 0.49407 0.0
H1458 H 0.26864 0.08817 0.47203 0.0
C1459 C 0.23625 0.10829 0.35561 0.0
C1460 C 0.23241 0.12444 0.33565 0.0
C1461 C 0.23498 0.14327 0.34841 0.0
C1462 C 0.24226 0.14597 0.37994 0.0
C1463 C 0.24659 0.1297 0.39851 0.0
C1464 C 0.24331 0.11123 0.38704 0.0
C1465 C 0.2499 0.09613 0.41121 0.0
C1466 C 0.23273 0.08416 0.42361 0.0
C1467 C 0.26565 0.08309 0.39651 0.0
C1468 C 0.25794 0.10898 0.43767 0.0
C1469 C 0.25593 0.12829 0.42995 0.0
C1470 C 0.26344 0.14279 0.44979 0.0
C1471 C 0.27305 0.13739 0.47846 0.0
C1472 C 0.27489 0.11768 0.48701 0.0
C1473 C 0.26718 0.10337 0.46633 0.0
H1474 H 0.83964 0.22856 0.47741 0.0
H1475 H 0.89765 0.23525 0.43909 0.0
H1476 H 0.9105 0.23555 0.49523 0.0
H1477 H 0.84529 0.25956 0.54614 0.0
H1478 H 0.83066 0.24477 0.57246 0.0
H1479 H 0.82623 0.24495 0.5293 0.0
H1480 H 0.8302 0.20774 0.52759 0.0
H1481 H 0.83464 0.20744 0.57075 0.0
H1482 H 0.85196 0.19693 0.54326 0.0
H1483 H 0.91684 0.23538 0.55622 0.0
H1484 H 0.91605 0.23463 0.61639 0.0
H1485 H 0.85377 0.22789 0.61337 0.0
C1486 C 0.85506 0.2301 0.48066 0.0
C1487 C 0.86761 0.2319 0.45375 0.0
C1488 C 0.88772 0.23384 0.45929 0.0
C1489 C 0.89516 0.23402 0.49109 0.0
C1490 C 0.88233 0.23223 0.51703 0.0
C1491 C 0.86271 0.23028 0.51208 0.0
C1492 C 0.85191 0.22861 0.5439 0.0
C1493 C 0.83769 0.24548 0.54819 0.0
C1494 C 0.84158 0.20902 0.54652 0.0
C1495 C 0.86849 0.22998 0.56763 0.0
C1496 C 0.88594 0.23206 0.55178 0.0
C1497 C 0.90324 0.23373 0.56887 0.0
C1498 C 0.90264 0.23329 0.60304 0.0
C1499 C 0.88485 0.23119 0.61971 0.0
C1500 C 0.86763 0.22949 0.60153 0.0
H1501 H 0.72925 0.86983 0.4827 0.0
H1502 H 0.72669 0.93206 0.49478 0.0
H1503 H 0.7359 0.93646 0.4375 0.0
H1504 H 0.77105 0.86991 0.43035 0.0
H1505 H 0.76274 0.85033 0.40511 0.0
H1506 H 0.75526 0.85175 0.44702 0.0
H1507 H 0.71944 0.85083 0.4291 0.0
H1508 H 0.72681 0.84939 0.38713 0.0
H1509 H 0.71075 0.86834 0.40013 0.0
H1510 H 0.74494 0.93457 0.37969 0.0
H1511 H 0.75482 0.92649 0.324 0.0
H1512 H 0.75298 0.8654 0.34818 0.0
C1513 C 0.73053 0.88434 0.47314 0.0
C1514 C 0.72723 0.90061 0.49316 0.0
C1515 C 0.72924 0.91939 0.47995 0.0
C1516 C 0.7344 0.92206 0.4474 0.0
C1517 C 0.73767 0.90581 0.42836 0.0
C1518 C 0.73595 0.88731 0.4406 0.0
C1519 C 0.74089 0.87244 0.41477 0.0
C1520 C 0.75854 0.8604 0.42493 0.0
C1521 C 0.72343 0.85949 0.40735 0.0
C1522 C 0.74557 0.88554 0.38622 0.0
C1523 C 0.74348 0.90472 0.39471 0.0
C1524 C 0.74671 0.91961 0.3727 0.0
C1525 C 0.7523 0.91483 0.34104 0.0
C1526 C 0.75475 0.89529 0.33161 0.0
C1527 C 0.75134 0.88046 0.35464 0.0
H1528 H 0.6617 0.72873 0.01498 0.0
H1529 H 0.60366 0.74018 0.04984 0.0
H1530 H 0.592 0.74122 0.99302 0.0
H1531 H 0.65986 0.75968 0.94543 0.0
H1532 H 0.67375 0.74361 0.92011 0.0
H1533 H 0.67737 0.74368 0.96349 0.0
H1534 H 0.67042 0.70693 0.96549 0.0
H1535 H 0.66677 0.70674 0.92211 0.0
H1536 H 0.64816 0.69781 0.94879 0.0
H1537 H 0.58686 0.74129 0.93191 0.0
H1538 H 0.58861 0.74009 0.87189 0.0
H1539 H 0.65007 0.72836 0.878 0.0
C1540 C 0.64652 0.73147 0.01081 0.0
C1541 C 0.63361 0.7344 0.03699 0.0
C1542 C 0.61385 0.73788 0.03026 0.0
C1543 C 0.60709 0.73851 0.99805 0.0
C1544 C 0.62025 0.73557 0.97288 0.0
C1545 C 0.63954 0.73209 0.97895 0.0
C1546 C 0.65076 0.72937 0.94772 0.0
C1547 C 0.66635 0.74502 0.94398 0.0
C1548 C 0.65954 0.709 0.94593 0.0
C1549 C 0.63479 0.73193 0.92304 0.0
C1550 C 0.61729 0.7355 0.93795 0.0
C1551 C 0.60049 0.73847 0.91998 0.0
C1552 C 0.60165 0.73777 0.88589 0.0
C1553 C 0.61947 0.73411 0.87011 0.0
C1554 C 0.6362 0.73115 0.88916 0.0
H1555 H 0.22764 0.62871 0.01737 0.0
H1556 H 0.2287 0.56638 0.00612 0.0
H1557 H 0.23917 0.56284 0.06294 0.0
H1558 H 0.26999 0.63169 0.06818 0.0
H1559 H 0.26063 0.65074 0.09353 0.0
H1560 H 0.25278 0.64865 0.05189 0.0
H1561 H 0.21719 0.64716 0.07096 0.0
H1562 H 0.22493 0.6493 0.11265 0.0
H1563 H 0.21008 0.62922 0.10041 0.0
H1564 H 0.24923 0.56561 0.12037 0.0
H1565 H 0.25886 0.57467 0.17586 0.0
H1566 H 0.2522 0.63531 0.15095 0.0
C1567 C 0.22999 0.61435 0.02698 0.0
C1568 C 0.2274 0.59782 0.00728 0.0
C1569 C 0.23073 0.57926 0.02064 0.0
C1570 C 0.23664 0.57707 0.05295 0.0
C1571 C 0.23923 0.59358 0.07164 0.0
C1572 C 0.23607 0.61187 0.0593 0.0
C1573 C 0.24026 0.62715 0.0848 0.0
C1574 C 0.25691 0.64033 0.07394 0.0
C1575 C 0.22203 0.6389 0.09267 0.0
C1576 C 0.24617 0.61452 0.11329 0.0
C1577 C 0.24539 0.59521 0.10506 0.0
C1578 C 0.24994 0.58069 0.12716 0.0
C1579 C 0.25538 0.58601 0.15868 0.0
C1580 C 0.25634 0.60572 0.16786 0.0
C1581 C 0.25172 0.62013 0.14469 0.0
H1582 H 0.38258 0.26021 0.05003 0.0
H1583 H 0.32275 0.24297 0.06194 0.0
H1584 H 0.32054 0.23626 0.00333 0.0
H1585 H 0.3759 0.28498 0.97625 0.0
H1586 H 0.39848 0.27778 0.95819 0.0
H1587 H 0.39628 0.27927 0.00175 0.0
H1588 H 0.40741 0.24371 0.00707 0.0
H1589 H 0.40968 0.24211 0.96345 0.0
H1590 H 0.39474 0.22511 0.98508 0.0
H1591 H 0.32356 0.23397 0.94381 0.0
H1592 H 0.33162 0.23644 0.88571 0.0
H1593 H 0.38956 0.25514 0.91066 0.0
C1594 C 0.36915 0.25467 0.04036 0.0
C1595 C 0.35285 0.25207 0.06061 0.0
C1596 C 0.33541 0.24514 0.04694 0.0
C1597 C 0.33403 0.24118 0.01367 0.0
C1598 C 0.3502 0.2442 0.99429 0.0
C1599 C 0.36745 0.25075 0.00698 0.0
C1600 C 0.38216 0.25402 0.98016 0.0
C1601 C 0.38857 0.27527 0.97903 0.0
C1602 C 0.39953 0.24042 0.98419 0.0
C1603 C 0.37028 0.2487 0.95047 0.0
C1604 C 0.35195 0.2429 0.95937 0.0
C1605 C 0.33792 0.23827 0.93648 0.0
C1606 C 0.34263 0.23981 0.90351 0.0
C1607 C 0.36123 0.24594 0.89361 0.0
C1608 C 0.37532 0.25015 0.91749 0.0
H1609 H 0.74995 0.40394 0.14349 0.0
H1610 H 0.7457 0.34157 0.1528 0.0
H1611 H 0.75692 0.33784 0.09648 0.0
H1612 H 0.73339 0.40617 0.05965 0.0
H1613 H 0.74966 0.42535 0.04844 0.0
H1614 H 0.74117 0.42342 0.08975 0.0
H1615 H 0.77643 0.42255 0.11041 0.0
H1616 H 0.78506 0.42444 0.0692 0.0
H1617 H 0.7928 0.40466 0.09454 0.0
H1618 H 0.76945 0.34038 0.04038 0.0
H1619 H 0.78151 0.34918 0.98608 0.0
H1620 H 0.77705 0.40994 0.01111 0.0
C1621 C 0.75134 0.38951 0.13366 0.0
C1622 C 0.74693 0.37305 0.15275 0.0
C1623 C 0.74891 0.35443 0.13882 0.0
C1624 C 0.75531 0.35212 0.10679 0.0
C1625 C 0.75959 0.36856 0.08876 0.0
C1626 C 0.7576 0.38691 0.10147 0.0
C1627 C 0.76314 0.40209 0.07649 0.0
C1628 C 0.7458 0.41502 0.06809 0.0
C1629 C 0.78038 0.41414 0.08838 0.0
C1630 C 0.76869 0.38934 0.04794 0.0
C1631 C 0.76655 0.37005 0.05574 0.0
C1632 C 0.7711 0.35542 0.03387 0.0
C1633 C 0.77799 0.36059 0.00309 0.0
C1634 C 0.78019 0.38024 0.99428 0.0
C1635 C 0.77541 0.3948 0.01706 0.0
H1636 H 0.60087 0.26268 0.10265 0.0
H1637 H 0.65854 0.24769 0.13538 0.0
H1638 H 0.66925 0.24507 0.07853 0.0
H1639 H 0.60062 0.23159 0.02922 0.0
H1640 H 0.58784 0.24915 0.00507 0.0
H1641 H 0.58393 0.24798 0.0484 0.0
H1642 H 0.5928 0.28418 0.05341 0.0
H1643 H 0.59683 0.28543 0.01019 0.0
H1644 H 0.61568 0.2925 0.03796 0.0
H1645 H 0.67464 0.24645 0.01954 0.0
H1646 H 0.67455 0.25151 0.96045 0.0
H1647 H 0.61354 0.2659 0.96404 0.0
C1648 C 0.61562 0.25845 0.09777 0.0
C1649 C 0.62886 0.25532 0.12346 0.0
C1650 C 0.64816 0.2502 0.11613 0.0
C1651 C 0.65438 0.2486 0.0839 0.0
C1652 C 0.64115 0.25216 0.05918 0.0
C1653 C 0.62217 0.25693 0.06555 0.0
C1654 C 0.61135 0.26121 0.03421 0.0
C1655 C 0.59496 0.24661 0.02892 0.0
C1656 C 0.60372 0.28207 0.03394 0.0
C1657 C 0.62737 0.25846 0.00944 0.0
C1658 C 0.64435 0.2531 0.02454 0.0
C1659 C 0.66141 0.25048 0.00733 0.0
C1660 C 0.6612 0.2535 0.97373 0.0
C1661 C 0.64404 0.25913 0.95749 0.0
C1662 C 0.62684 0.26145 0.97566 0.0
H1663 H 0.77897 0.62979 0.99175 0.0
H1664 H 0.78389 0.56748 0.00074 0.0
H1665 H 0.77186 0.56356 0.94506 0.0
H1666 H 0.73524 0.62984 0.9446 0.0
H1667 H 0.7422 0.64961 0.9186 0.0
H1668 H 0.75161 0.64806 0.95939 0.0
H1669 H 0.78653 0.64928 0.93705 0.0
H1670 H 0.77723 0.65105 0.89622 0.0
H1671 H 0.79395 0.63209 0.90659 0.0
H1672 H 0.75886 0.56568 0.89005 0.0
H1673 H 0.74732 0.57394 0.83541 0.0
H1674 H 0.75065 0.63499 0.85948 0.0
C1675 C 0.77768 0.61538 0.98178 0.0
C1676 C 0.7822 0.59893 0.00069 0.0
C1677 C 0.78027 0.58029 0.9869 0.0
C1678 C 0.77347 0.57787 0.95524 0.0
C1679 C 0.76869 0.59424 0.9375 0.0
C1680 C 0.77083 0.61266 0.94992 0.0
C1681 C 0.7646 0.62766 0.92507 0.0
C1682 C 0.74739 0.63949 0.93768 0.0
C1683 C 0.78159 0.64079 0.91568 0.0
C1684 C 0.75871 0.6147 0.89695 0.0
C1685 C 0.76115 0.59549 0.90495 0.0
C1686 C 0.75691 0.58066 0.88335 0.0
C1687 C 0.75034 0.58555 0.85233 0.0
C1688 C 0.74809 0.60514 0.84304 0.0
C1689 C 0.75209 0.6199 0.8659 0.0
H1690 H 0.34425 0.73329 0.97692 0.0
H1691 H 0.40232 0.74379 0.94139 0.0
H1692 H 0.4141 0.74528 0.99816 0.0
H1693 H 0.34643 0.76488 0.04544 0.0
H1694 H 0.33242 0.74918 0.07122 0.0
H1695 H 0.32877 0.74889 0.02785 0.0
H1696 H 0.33539 0.71205 0.02681 0.0
H1697 H 0.33905 0.71222 0.07019 0.0
H1698 H 0.35757 0.70288 0.04373 0.0
H1699 H 0.41929 0.74584 0.05947 0.0
H1700 H 0.41751 0.74499 0.11956 0.0
H1701 H 0.35593 0.73393 0.1135 0.0
C1702 C 0.35946 0.73593 0.98091 0.0
C1703 C 0.37234 0.73846 0.95461 0.0
C1704 C 0.39215 0.7418 0.96111 0.0
C1705 C 0.39898 0.74268 0.99328 0.0
C1706 C 0.38582 0.74015 0.01859 0.0
C1707 C 0.36649 0.7368 0.01268 0.0
C1708 C 0.35526 0.73447 0.04395 0.0
C1709 C 0.33981 0.7503 0.0473 0.0
C1710 C 0.3463 0.7142 0.0463 0.0
C1711 C 0.37126 0.7371 0.0685 0.0
C1712 C 0.3888 0.74037 0.05351 0.0
C1713 C 0.40563 0.74327 0.07144 0.0
C1714 C 0.40446 0.74277 0.10557 0.0
C1715 C 0.38659 0.73939 0.12136 0.0
C1716 C 0.36984 0.73654 0.10235 0.0
H1717 H 0.23621 0.36249 0.86943 0.0
H1718 H 0.24237 0.42284 0.84239 0.0
H1719 H 0.23613 0.43236 0.89914 0.0
H1720 H 0.19743 0.36959 0.92715 0.0
H1721 H 0.20614 0.35149 0.95504 0.0
H1722 H 0.21103 0.34927 0.91215 0.0
H1723 H 0.24765 0.34711 0.92422 0.0
H1724 H 0.24289 0.34935 0.96714 0.0
H1725 H 0.25911 0.36599 0.94741 0.0
H1726 H 0.23014 0.43546 0.95854 0.0
H1727 H 0.22363 0.4321 0.01712 0.0
H1728 H 0.2206 0.36982 0.00627 0.0
C1729 C 0.23622 0.37772 0.8754 0.0
C1730 C 0.23982 0.39191 0.85135 0.0
C1731 C 0.23963 0.41168 0.86025 0.0
C1732 C 0.23612 0.41725 0.89247 0.0
C1733 C 0.23272 0.40291 0.91551 0.0
C1734 C 0.23263 0.38356 0.90745 0.0
C1735 C 0.22849 0.37111 0.93701 0.0
C1736 C 0.20965 0.35969 0.93256 0.0
C1737 C 0.24555 0.35759 0.94437 0.0
C1738 C 0.22639 0.3865 0.96297 0.0
C1739 C 0.22895 0.40473 0.94996 0.0
C1740 C 0.22805 0.42128 0.96903 0.0
C1741 C 0.22442 0.41919 0.00233 0.0
C1742 C 0.22165 0.40069 0.0163 0.0
C1743 C 0.22258 0.38414 0.99626 0.0
H1744 H 0.15251 0.35343 0.15047 0.0
H1745 H 0.20496 0.3597 0.20722 0.0
H1746 H 0.19217 0.33676 0.24781 0.0
H1747 H 0.11887 0.34743 0.21989 0.0
H1748 H 0.10466 0.3296 0.19879 0.0
H1749 H 0.1168 0.34831 0.17619 0.0
H1750 H 0.1341 0.32244 0.1412 0.0
H1751 H 0.12188 0.30373 0.16343 0.0
H1752 H 0.14785 0.30375 0.16108 0.0
H1753 H 0.17544 0.31095 0.27898 0.0
H1754 H 0.15693 0.28241 0.29669 0.0
H1755 H 0.11499 0.29278 0.22047 0.0
C1756 C 0.16118 0.35024 0.17172 0.0
C1757 C 0.17972 0.35846 0.17575 0.0
C1758 C 0.19073 0.35363 0.20362 0.0
C1759 C 0.18352 0.34071 0.22693 0.0
C1760 C 0.16525 0.3328 0.22212 0.0
C1761 C 0.15423 0.33732 0.19516 0.0
C1762 C 0.13584 0.32547 0.19426 0.0
C1763 C 0.11798 0.33848 0.19748 0.0
C1764 C 0.13487 0.31311 0.16316 0.0
C1765 C 0.13853 0.31308 0.22434 0.0
C1766 C 0.15546 0.31782 0.24033 0.0
C1767 C 0.16199 0.30735 0.26706 0.0
C1768 C 0.15138 0.2912 0.27698 0.0
C1769 C 0.13439 0.28566 0.26028 0.0
C1770 C 0.12756 0.29711 0.23429 0.0
H1771 H 0.65374 0.21476 0.26673 0.0
H1772 H 0.59524 0.19501 0.2487 0.0
H1773 H 0.6037 0.16321 0.27249 0.0
H1774 H 0.67805 0.16948 0.24953 0.0
H1775 H 0.69561 0.17305 0.28132 0.0
H1776 H 0.68515 0.19358 0.26098 0.0
H1777 H 0.67415 0.20741 0.31657 0.0
H1778 H 0.68453 0.18694 0.33706 0.0
H1779 H 0.65944 0.19278 0.34306 0.0
H1780 H 0.61852 0.13408 0.30095 0.0
H1781 H 0.63791 0.1105 0.33196 0.0
H1782 H 0.68643 0.15009 0.33122 0.0
C1783 C 0.64265 0.20377 0.2674 0.0
C1784 C 0.62378 0.20744 0.25575 0.0
C1785 C 0.60979 0.19256 0.25736 0.0
C1786 C 0.61449 0.17446 0.2708 0.0
C1787 C 0.63321 0.17149 0.28236 0.0
C1788 C 0.64705 0.18578 0.28068 0.0
C1789 C 0.66589 0.17942 0.29589 0.0
C1790 C 0.68213 0.17884 0.2704 0.0
C1791 C 0.67131 0.19241 0.32486 0.0
C1792 C 0.66049 0.15934 0.30698 0.0
C1793 C 0.64164 0.15494 0.29876 0.0
C1794 C 0.63331 0.13736 0.30731 0.0
C1795 C 0.64447 0.12406 0.32495 0.0
C1796 C 0.66373 0.12842 0.33403 0.0
C1797 C 0.67181 0.14626 0.32455 0.0
H1798 H 0.85294 0.64752 0.13841 0.0
H1799 H 0.80013 0.63675 0.19225 0.0
H1800 H 0.81087 0.65937 0.23489 0.0
H1801 H 0.88503 0.65362 0.20984 0.0
H1802 H 0.89854 0.67277 0.19078 0.0
H1803 H 0.88786 0.65404 0.16624 0.0
H1804 H 0.86971 0.67983 0.1323 0.0
H1805 H 0.88044 0.69859 0.15652 0.0
H1806 H 0.85457 0.69715 0.1528 0.0
H1807 H 0.8255 0.68523 0.26857 0.0
H1808 H 0.84225 0.714 0.28975 0.0
H1809 H 0.88598 0.70811 0.21501 0.0
C1810 C 0.84378 0.64967 0.15944 0.0
C1811 C 0.82572 0.64029 0.16206 0.0
C1812 C 0.81402 0.64374 0.1897 0.0
C1813 C 0.82006 0.65647 0.21417 0.0
C1814 C 0.83787 0.66558 0.21073 0.0
C1815 C 0.84956 0.66239 0.18406 0.0
C1816 C 0.86726 0.67527 0.18496 0.0
C1817 C 0.88577 0.6632 0.18815 0.0
C1818 C 0.86802 0.68849 0.15487 0.0
C1819 C 0.86336 0.68666 0.21577 0.0
C1820 C 0.84646 0.68059 0.23047 0.0
C1821 C 0.83891 0.68989 0.25765 0.0
C1822 C 0.84853 0.7062 0.26951 0.0
C1823 C 0.86552 0.71305 0.25428 0.0
C1824 C 0.87334 0.70281 0.22766 0.0
H1825 H 0.3896 0.80002 0.28257 0.0
H1826 H 0.34681 0.79611 0.20604 0.0
H1827 H 0.33045 0.82502 0.2276 0.0
H1828 H 0.35822 0.80937 0.3429 0.0
H1829 H 0.37283 0.82609 0.36573 0.0
H1830 H 0.38416 0.80838 0.34016 0.0
H1831 H 0.40238 0.83526 0.30895 0.0
H1832 H 0.39136 0.85313 0.33487 0.0
H1833 H 0.38902 0.85499 0.2913 0.0
H1834 H 0.31536 0.84988 0.26273 0.0
H1835 H 0.30339 0.87014 0.30778 0.0
H1836 H 0.35553 0.85788 0.36254 0.0
C1837 C 0.37738 0.8059 0.26948 0.0
C1838 C 0.36964 0.79614 0.24233 0.0
C1839 C 0.35308 0.80362 0.22661 0.0
C1840 C 0.3437 0.82002 0.23869 0.0
C1841 C 0.35106 0.82877 0.26654 0.0
C1842 C 0.36768 0.82216 0.28157 0.0
C1843 C 0.37104 0.83253 0.31355 0.0
C1844 C 0.37158 0.81824 0.34226 0.0
C1845 C 0.38955 0.8447 0.31207 0.0
C1846 C 0.35326 0.84525 0.31487 0.0
C1847 C 0.34211 0.8431 0.28726 0.0
C1848 C 0.32418 0.85204 0.28414 0.0
C1849 C 0.31744 0.86342 0.30996 0.0
C1850 C 0.32855 0.86569 0.33862 0.0
C1851 C 0.34681 0.85667 0.34077 0.0
H1852 H 0.15332 0.64534 0.86736 0.0
H1853 H 0.20694 0.63481 0.81575 0.0
H1854 H 0.19589 0.65579 0.77103 0.0
H1855 H 0.12165 0.64867 0.79466 0.0
H1856 H 0.10749 0.66796 0.81189 0.0
H1857 H 0.11841 0.65017 0.83812 0.0
H1858 H 0.13562 0.67727 0.87047 0.0
H1859 H 0.12461 0.69508 0.84461 0.0
H1860 H 0.15048 0.69443 0.84901 0.0
H1861 H 0.18087 0.68011 0.7349 0.0
H1862 H 0.16386 0.70816 0.71159 0.0
H1863 H 0.11965 0.70321 0.7857 0.0
C1864 C 0.16259 0.64719 0.84639 0.0
C1865 C 0.18097 0.63835 0.84498 0.0
C1866 C 0.19282 0.64142 0.81739 0.0
C1867 C 0.1866 0.65319 0.79172 0.0
C1868 C 0.16847 0.66177 0.79392 0.0
C1869 C 0.15664 0.65901 0.82058 0.0
C1870 C 0.13864 0.6714 0.81827 0.0
C1871 C 0.12047 0.65879 0.81557 0.0
C1872 C 0.13727 0.68537 0.8473 0.0
C1873 C 0.14253 0.68205 0.7867 0.0
C1874 C 0.15967 0.67597 0.77281 0.0
C1875 C 0.16726 0.68476 0.74518 0.0
C1876 C 0.1575 0.70065 0.73208 0.0
C1877 C 0.14033 0.70759 0.74657 0.0
C1878 C 0.13242 0.69778 0.77358 0.0
H1879 H 0.30109 0.1389 0.69796 0.0
H1880 H 0.34861 0.1221 0.63543 0.0
H1881 H 0.37106 0.14098 0.66957 0.0
H1882 H 0.3147 0.18618 0.70583 0.0
H1883 H 0.3071 0.18889 0.74753 0.0
H1884 H 0.29566 0.17126 0.72198 0.0
H1885 H 0.30408 0.14448 0.76374 0.0
H1886 H 0.31569 0.1621 0.78939 0.0
H1887 H 0.32881 0.14106 0.77608 0.0
H1888 H 0.38765 0.16488 0.70666 0.0
H1889 H 0.39593 0.19353 0.73993 0.0
H1890 H 0.33743 0.19494 0.77711 0.0
C1891 C 0.31631 0.13874 0.69198 0.0
C1892 C 0.32312 0.1289 0.66421 0.0
C1893 C 0.34307 0.12948 0.65669 0.0
C1894 C 0.35597 0.14006 0.67608 0.0
C1895 C 0.34872 0.14996 0.70296 0.0
C1896 C 0.32931 0.14938 0.71086 0.0
C1897 C 0.3247 0.16311 0.73838 0.0
C1898 C 0.30967 0.17825 0.72778 0.0
C1899 C 0.31792 0.15202 0.7687 0.0
C1900 C 0.34433 0.1721 0.74381 0.0
C1901 C 0.35815 0.16402 0.72379 0.0
C1902 C 0.37702 0.1711 0.72285 0.0
C1903 C 0.38165 0.1873 0.74194 0.0
C1904 C 0.36735 0.19639 0.76113 0.0
C1905 C 0.34871 0.18819 0.76285 0.0
H1906 H 0.89134 0.29247 0.7819 0.0
H1907 H 0.85373 0.29287 0.69782 0.0
H1908 H 0.83751 0.32208 0.71855 0.0
H1909 H 0.85698 0.30159 0.83657 0.0
H1910 H 0.87055 0.31697 0.86351 0.0
H1911 H 0.88289 0.29963 0.83859 0.0
H1912 H 0.90399 0.3266 0.81338 0.0
H1913 H 0.89202 0.34408 0.83885 0.0
H1914 H 0.8926 0.34741 0.79536 0.0
H1915 H 0.82097 0.34626 0.75331 0.0
H1916 H 0.80695 0.36563 0.79788 0.0
H1917 H 0.85491 0.3496 0.86018 0.0
C1918 C 0.88047 0.29944 0.76705 0.0
C1919 C 0.87406 0.29081 0.73792 0.0
C1920 C 0.85907 0.2996 0.71984 0.0
C1921 C 0.84974 0.31614 0.7315 0.0
C1922 C 0.85558 0.32371 0.76131 0.0
C1923 C 0.87083 0.31588 0.77864 0.0
C1924 C 0.87246 0.32508 0.81201 0.0
C1925 C 0.8706 0.30991 0.83925 0.0
C1926 C 0.89139 0.33647 0.81507 0.0
C1927 C 0.85518 0.33849 0.81132 0.0
C1928 C 0.84581 0.3377 0.7817 0.0
C1929 C 0.82846 0.3474 0.77634 0.0
C1930 C 0.82051 0.35824 0.80188 0.0
C1931 C 0.82988 0.35924 0.83244 0.0
C1932 C 0.84755 0.34938 0.83694 0.0
H1933 H 0.65273 0.85358 0.63056 0.0
H1934 H 0.70553 0.86328 0.68492 0.0
H1935 H 0.69324 0.8427 0.72927 0.0
H1936 H 0.61954 0.85082 0.70164 0.0
H1937 H 0.6055 0.83171 0.68361 0.0
H1938 H 0.61713 0.84937 0.65803 0.0
H1939 H 0.63465 0.82208 0.62657 0.0
H1940 H 0.62291 0.80442 0.65175 0.0
H1941 H 0.64885 0.80472 0.64883 0.0
H1942 H 0.67721 0.81867 0.76458 0.0
H1943 H 0.65975 0.79047 0.78634 0.0
H1944 H 0.61703 0.79601 0.70992 0.0
C1945 C 0.66154 0.85165 0.65207 0.0
C1946 C 0.68005 0.86012 0.65437 0.0
C1947 C 0.69132 0.85694 0.68261 0.0
C1948 C 0.68438 0.84542 0.70807 0.0
C1949 C 0.66613 0.8372 0.70499 0.0
C1950 C 0.65489 0.84006 0.67765 0.0
C1951 C 0.63671 0.82789 0.67894 0.0
C1952 C 0.61865 0.84072 0.68066 0.0
C1953 C 0.63574 0.81395 0.64981 0.0
C1954 C 0.63987 0.81719 0.71069 0.0
C1955 C 0.65675 0.82313 0.72562 0.0
C1956 C 0.66377 0.81416 0.75353 0.0
C1957 C 0.65375 0.7982 0.76576 0.0
C1958 C 0.6369 0.79137 0.75011 0.0
C1959 C 0.62949 0.8014 0.72294 0.0
H1960 H 0.84217 0.70866 0.71517 0.0
H1961 H 0.85154 0.69183 0.61516 0.0
H1962 H 0.83992 0.6588 0.62777 0.0
H1963 H 0.85121 0.65935 0.75477 0.0
H1964 H 0.83179 0.66342 0.7831 0.0
H1965 H 0.84605 0.68346 0.76876 0.0
H1966 H 0.81496 0.70079 0.74929 0.0
H1967 H 0.80072 0.68096 0.76366 0.0
H1968 H 0.79888 0.68847 0.72176 0.0
H1969 H 0.82158 0.63016 0.64848 0.0
H1970 H 0.79549 0.61056 0.67301 0.0
H1971 H 0.79691 0.64664 0.75888 0.0
C1972 C 0.8426 0.69767 0.69645 0.0
C1973 C 0.84817 0.70237 0.66453 0.0
C1974 C 0.84772 0.68815 0.63995 0.0
C1975 C 0.84123 0.66939 0.64699 0.0
C1976 C 0.83521 0.66523 0.67866 0.0
C1977 C 0.83587 0.67904 0.70303 0.0
C1978 C 0.82533 0.67235 0.73321 0.0
C1979 C 0.83944 0.66947 0.76164 0.0
C1980 C 0.80901 0.68647 0.74247 0.0
C1981 C 0.81751 0.65322 0.72137 0.0
C1982 C 0.82395 0.64895 0.69033 0.0
C1983 C 0.81684 0.63309 0.67307 0.0
C1984 C 0.80211 0.62194 0.68722 0.0
C1985 C 0.79445 0.62706 0.71788 0.0
C1986 C 0.80288 0.64228 0.73566 0.0
H1987 H 0.34292 0.79307 0.79067 0.0
H1988 H 0.34487 0.80349 0.8943 0.0
H1989 H 0.33216 0.83651 0.88569 0.0
H1990 H 0.35036 0.84556 0.76194 0.0
H1991 H 0.33293 0.84214 0.72991 0.0
H1992 H 0.34798 0.82229 0.74273 0.0
H1993 H 0.31749 0.80157 0.75347 0.0
H1994 H 0.30249 0.82122 0.74068 0.0
H1995 H 0.29907 0.81068 0.78039 0.0
H1996 H 0.31326 0.86503 0.86753 0.0
H1997 H 0.28699 0.88431 0.84283 0.0
H1998 H 0.29524 0.85444 0.75154 0.0
C1999 C 0.34158 0.80278 0.81121 0.0
C2000 C 0.34534 0.79622 0.84296 0.0
C2001 C 0.34247 0.80864 0.86973 0.0
C2002 C 0.33536 0.8274 0.86499 0.0
C2003 C 0.33103 0.83335 0.83335 0.0
C2004 C 0.33403 0.82133 0.80686 0.0
C2005 C 0.3246 0.82932 0.77649 0.0
C2006 C 0.33988 0.83518 0.75128 0.0
C2007 C 0.31005 0.81485 0.76196 0.0
C2008 C 0.31464 0.8469 0.79047 0.0
C2009 C 0.3192 0.8495 0.82296 0.0
C2010 C 0.31 0.86349 0.84191 0.0
C2011 C 0.29517 0.87445 0.82773 0.0
C2012 C 0.28954 0.871 0.79525 0.0
C2013 C 0.29983 0.85763 0.77616 0.0
H2014 H 0.16296 0.30667 0.61732 0.0
H2015 H 0.12268 0.2968 0.69606 0.0
H2016 H 0.13143 0.32823 0.71995 0.0
H2017 H 0.19862 0.32074 0.65977 0.0
H2018 H 0.20815 0.33944 0.63381 0.0
H2019 H 0.19388 0.32053 0.6166 0.0
H2020 H 0.17025 0.34564 0.59231 0.0
H2021 H 0.18467 0.36483 0.60927 0.0
H2022 H 0.15927 0.36344 0.61839 0.0
H2023 H 0.15208 0.35333 0.74439 0.0
H2024 H 0.18079 0.37092 0.76429 0.0
H2025 H 0.20698 0.3663 0.66929 0.0
C2026 C 0.15527 0.31166 0.63865 0.0
C2027 C 0.14223 0.29937 0.6549 0.0
C2028 C 0.13257 0.3061 0.68301 0.0
C2029 C 0.13748 0.32398 0.69676 0.0
C2030 C 0.15166 0.33513 0.6816 0.0
C2031 C 0.15999 0.32948 0.65249 0.0
C2032 C 0.1771 0.34209 0.64393 0.0
C2033 C 0.1955 0.32997 0.63826 0.0
C2034 C 0.17254 0.35475 0.61422 0.0
C2035 C 0.17851 0.35419 0.67448 0.0
C2036 C 0.16333 0.35046 0.69551 0.0
C2037 C 0.1635 0.35711 0.72761 0.0
C2038 C 0.17983 0.36709 0.73878 0.0
C2039 C 0.19559 0.37044 0.71781 0.0
C2040 C 0.19458 0.36464 0.68508 0.0
H2041 H 0.71421 0.14043 0.83197 0.0
H2042 H 0.68529 0.12522 0.74251 0.0
H2043 H 0.65799 0.14663 0.75719 0.0
H2044 H 0.66872 0.15083 0.88393 0.0
H2045 H 0.68095 0.17089 0.90275 0.0
H2046 H 0.69436 0.14971 0.89092 0.0
H2047 H 0.71734 0.17125 0.85697 0.0
H2048 H 0.70392 0.19233 0.86807 0.0
H2049 H 0.70742 0.1866 0.82569 0.0
H2050 H 0.6381 0.17515 0.77526 0.0
H2051 H 0.62852 0.20788 0.79367 0.0
H2052 H 0.67174 0.20534 0.86958 0.0
C2053 C 0.70151 0.14073 0.81663 0.0
C2054 C 0.70135 0.13079 0.78682 0.0
C2055 C 0.68519 0.13224 0.76606 0.0
C2056 C 0.6697 0.14443 0.77421 0.0
C2057 C 0.67072 0.15498 0.80314 0.0
C2058 C 0.68619 0.15301 0.82427 0.0
C2059 C 0.68598 0.16839 0.85036 0.0
C2060 C 0.68227 0.15941 0.88398 0.0
C2061 C 0.70476 0.18034 0.8502 0.0
C2062 C 0.66889 0.18022 0.83929 0.0
C2063 C 0.65978 0.17196 0.81277 0.0
C2064 C 0.64482 0.18146 0.7965 0.0
C2065 C 0.63947 0.20003 0.80705 0.0
C2066 C 0.64945 0.20898 0.83298 0.0
C2067 C 0.66384 0.19867 0.84981 0.0
H2068 H 0.79286 0.34914 0.24675 0.0
H2069 H 0.78107 0.37927 0.33665 0.0
H2070 H 0.80657 0.36034 0.36423 0.0
H2071 H 0.79604 0.30592 0.27594 0.0
H2072 H 0.81555 0.29669 0.25146 0.0
H2073 H 0.80115 0.31627 0.2366 0.0
H2074 H 0.83162 0.33742 0.22929 0.0
H2075 H 0.84632 0.31769 0.24367 0.0
H2076 H 0.84781 0.34097 0.26308 0.0
H2077 H 0.82489 0.33198 0.38466 0.0
H2078 H 0.83755 0.2991 0.39483 0.0
H2079 H 0.83999 0.28863 0.29122 0.0
C2080 C 0.79655 0.35247 0.27174 0.0
C2081 C 0.78544 0.36579 0.28959 0.0
C2082 C 0.78988 0.36944 0.32253 0.0
C2083 C 0.80428 0.3587 0.33833 0.0
C2084 C 0.81433 0.34477 0.32052 0.0
C2085 C 0.81107 0.34208 0.28758 0.0
C2086 C 0.8217 0.32452 0.27492 0.0
C2087 C 0.80777 0.31001 0.25883 0.0
C2088 C 0.83783 0.33052 0.25135 0.0
C2089 C 0.82998 0.3167 0.30633 0.0
C2090 C 0.82587 0.32874 0.33233 0.0
C2091 C 0.82901 0.32288 0.36441 0.0
C2092 C 0.83612 0.30421 0.37003 0.0
C2093 C 0.84027 0.2918 0.34369 0.0
C2094 C 0.83772 0.29831 0.31155 0.0
H2095 H 0.68832 0.79192 0.11737 0.0
H2096 H 0.63872 0.79917 0.18048 0.0
H2097 H 0.65054 0.83162 0.19593 0.0
H2098 H 0.72105 0.8089 0.16925 0.0
H2099 H 0.73618 0.82071 0.13964 0.0
H2100 H 0.7214 0.80073 0.12759 0.0
H2101 H 0.70542 0.82184 0.08296 0.0
H2102 H 0.72025 0.84201 0.09496 0.0
H2103 H 0.69437 0.84448 0.09393 0.0
H2104 H 0.67123 0.86017 0.21263 0.0
H2105 H 0.69878 0.88081 0.22949 0.0
H2106 H 0.73448 0.85418 0.15584 0.0
C2107 C 0.67958 0.80055 0.13367 0.0
C2108 C 0.66262 0.79301 0.14774 0.0
C2109 C 0.6517 0.80471 0.16918 0.0
C2110 C 0.6583 0.82319 0.17803 0.0
C2111 C 0.67562 0.82983 0.16477 0.0
C2112 C 0.68596 0.81886 0.1427 0.0
C2113 C 0.70537 0.82774 0.13529 0.0
C2114 C 0.72195 0.81369 0.14346 0.0
C2115 C 0.7064 0.83442 0.09967 0.0
C2116 C 0.70496 0.84476 0.1582 0.0
C2117 C 0.68751 0.84616 0.1744 0.0
C2118 C 0.68472 0.85955 0.19943 0.0
C2119 C 0.70036 0.87126 0.20879 0.0
C2120 C 0.71846 0.8692 0.19339 0.0
C2121 C 0.72054 0.85628 0.16724 0.0
H2122 H 0.18341 0.70635 0.37745 0.0
H2123 H 0.13844 0.70287 0.30443 0.0
H2124 H 0.14966 0.67012 0.28952 0.0
H2125 H 0.21881 0.68847 0.33247 0.0
H2126 H 0.2309 0.67521 0.36425 0.0
H2127 H 0.21631 0.69568 0.37442 0.0
H2128 H 0.19603 0.67443 0.41355 0.0
H2129 H 0.21063 0.65376 0.40328 0.0
H2130 H 0.1848 0.65272 0.39854 0.0
H2131 H 0.17039 0.64158 0.2743 0.0
H2132 H 0.19843 0.62092 0.26042 0.0
H2133 H 0.22912 0.64278 0.34415 0.0
C2134 C 0.17551 0.69845 0.35904 0.0
C2135 C 0.1601 0.70713 0.34206 0.0
C2136 C 0.15019 0.69641 0.31796 0.0
C2137 C 0.15645 0.67777 0.3094 0.0
C2138 C 0.17232 0.66994 0.3257 0.0
C2139 C 0.18149 0.6799 0.35043 0.0
C2140 C 0.19971 0.66978 0.36125 0.0
C2141 C 0.21746 0.68307 0.35784 0.0
C2142 C 0.19766 0.66222 0.39623 0.0
C2143 C 0.20022 0.65333 0.33713 0.0
C2144 C 0.18405 0.65325 0.31735 0.0
C2145 C 0.18275 0.64104 0.29036 0.0
C2146 C 0.19865 0.62926 0.28271 0.0
C2147 C 0.21552 0.62995 0.30193 0.0
C2148 C 0.21598 0.64152 0.33001 0.0
H2149 H 0.27548 0.15765 0.25759 0.0
H2150 H 0.29691 0.11443 0.19071 0.0
H2151 H 0.32607 0.13452 0.18082 0.0
H2152 H 0.28508 0.19562 0.21181 0.0
H2153 H 0.29167 0.21195 0.2441 0.0
H2154 H 0.27587 0.1921 0.25241 0.0
H2155 H 0.29896 0.17997 0.29766 0.0
H2156 H 0.31488 0.19999 0.28961 0.0
H2157 H 0.32399 0.17563 0.28832 0.0
H2158 H 0.34924 0.16261 0.17036 0.0
H2159 H 0.36283 0.19514 0.15942 0.0
H2160 H 0.32487 0.21954 0.23215 0.0
C2161 C 0.28667 0.1521 0.24173 0.0
C2162 C 0.2841 0.13458 0.22491 0.0
C2163 C 0.29883 0.12775 0.20411 0.0
C2164 C 0.31539 0.13909 0.19841 0.0
C2165 C 0.317 0.15692 0.21422 0.0
C2166 C 0.30305 0.16317 0.23587 0.0
C2167 C 0.30628 0.18382 0.24625 0.0
C2168 C 0.2887 0.1966 0.23812 0.0
C2169 C 0.31134 0.18491 0.28262 0.0
C2170 C 0.32348 0.1888 0.22542 0.0
C2171 C 0.32995 0.17303 0.20783 0.0
C2172 C 0.34457 0.17488 0.18461 0.0
C2173 C 0.35224 0.19336 0.17857 0.0
C2174 C 0.34489 0.20966 0.19517 0.0
C2175 C 0.33085 0.20718 0.21951 0.0
loop_
_geom_bond_atom_site_label_1
_geom_bond_atom_site_label_2
_geom_bond_distance
_geom_bond_site_symmetry_2
_ccdc_geom_bond_type
Mg0 O1 2.028 . S
Mg0 O7 1.986 . S
Mg0 O9 2.114 . S
Mg0 O10 2.251 . S
Mg0 O13 2.010 . S
O1 Mg0 2.028 . S
O1 C4 1.250 . S
O2 Mg3 2.028 . S
O2 C4 1.248 . S
Mg3 O2 2.028 . S
Mg3 O8 2.032 . S
Mg3 O10 2.079 . S
C4 O1 1.250 . S
C4 O2 1.248 . S
C5 O6 1.264 . S
C5 O13 1.249 . S
O6 C5 1.264 . S
O7 Mg0 1.986 . S
O7 C11 1.246 . S
O8 Mg3 2.032 . S
O8 C11 1.259 . S
O9 Mg0 2.114 . S
O9 C12 1.252 . S
O10 Mg0 2.251 . S
O10 Mg3 2.079 . S
O10 C12 1.273 . S
C11 O7 1.246 . S
C11 O8 1.259 . S
C12 O9 1.252 . S
C12 O10 1.273 . S
O13 Mg0 2.010 . S
O13 C5 1.249 . S
Mg14 O15 2.028 . S
Mg14 O21 1.986 . S
Mg14 O23 2.114 . S
Mg14 O24 2.251 . S
Mg14 O27 2.010 . S
O15 Mg14 2.028 . S
O15 C18 1.250 . S
O16 Mg17 2.028 . S
O16 C18 1.248 . S
Mg17 O16 2.028 . S
Mg17 O22 2.032 . S
Mg17 O24 2.079 . S
C18 O15 1.250 . S
C18 O16 1.248 . S
C19 O20 1.264 . S
C19 O27 1.249 . S
O20 C19 1.264 . S
O21 Mg14 1.986 . S
O21 C25 1.246 . S
O22 Mg17 2.032 . S
O22 C25 1.259 . S
O23 Mg14 2.114 . S
O23 C26 1.252 . S
O24 Mg14 2.251 . S
O24 Mg17 2.079 . S
O24 C26 1.273 . S
C25 O21 1.246 . S
C25 O22 1.259 . S
C26 O23 1.252 . S
C26 O24 1.273 . S
O27 Mg14 2.010 . S
O27 C19 1.249 . S
Mg28 O29 2.028 . S
Mg28 O35 1.986 . S
Mg28 O37 2.114 . S
Mg28 O38 2.251 . S
Mg28 O41 2.010 . S
O29 Mg28 2.028 . S
O29 C32 1.250 . S
O30 Mg31 2.028 . S
O30 C32 1.248 . S
Mg31 O30 2.028 . S
Mg31 O36 2.032 . S
Mg31 O38 2.079 . S
C32 O29 1.250 . S
C32 O30 1.248 . S
C33 O34 1.264 . S
C33 O41 1.249 . S
O34 C33 1.264 . S
O35 Mg28 1.986 . S
O35 C39 1.246 . S
O36 Mg31 2.032 . S
O36 C39 1.259 . S
O37 Mg28 2.114 . S
O37 C40 1.252 . S
O38 Mg28 2.251 . S
O38 Mg31 2.079 . S
O38 C40 1.273 . S
C39 O35 1.246 . S
C39 O36 1.259 . S
C40 O37 1.252 . S
C40 O38 1.273 . S
O41 Mg28 2.010 . S
O41 C33 1.249 . S
Mg42 O43 2.028 . S
Mg42 O49 1.986 . S
Mg42 O51 2.114 . S
Mg42 O52 2.251 . S
Mg42 O55 2.010 . S
O43 Mg42 2.028 . S
O43 C46 1.250 . S
O44 Mg45 2.028 . S
O44 C46 1.248 . S
Mg45 O44 2.028 . S
Mg45 O50 2.032 . S
Mg45 O52 2.079 . S
C46 O43 1.250 . S
C46 O44 1.248 . S
C47 O48 1.264 . S
C47 O55 1.249 . S
O48 C47 1.264 . S
O49 Mg42 1.986 . S
O49 C53 1.246 . S
O50 Mg45 2.032 . S
O50 C53 1.259 . S
O51 Mg42 2.114 . S
O51 C54 1.252 . S
O52 Mg42 2.251 . S
O52 Mg45 2.079 . S
O52 C54 1.273 . S
C53 O49 1.246 . S
C53 O50 1.259 . S
C54 O51 1.252 . S
C54 O52 1.273 . S
O55 Mg42 2.010 . S
O55 C47 1.249 . S
Mg56 O57 2.028 . S
Mg56 O63 1.986 . S
Mg56 O65 2.114 . S
Mg56 O66 2.251 . S
Mg56 O69 2.010 . S
O57 Mg56 2.028 . S
O57 C60 1.250 . S
O58 Mg59 2.028 . S
O58 C60 1.248 . S
Mg59 O58 2.028 . S
Mg59 O64 2.032 . S
Mg59 O66 2.079 . S
C60 O57 1.250 . S
C60 O58 1.248 . S
C61 O62 1.264 . S
C61 O69 1.249 . S
O62 C61 1.264 . S
O63 Mg56 1.986 . S
O63 C67 1.246 . S
O64 Mg59 2.032 . S
O64 C67 1.259 . S
O65 Mg56 2.114 . S
O65 C68 1.252 . S
O66 Mg56 2.251 . S
O66 Mg59 2.079 . S
O66 C68 1.273 . S
C67 O63 1.246 . S
C67 O64 1.259 . S
C68 O65 1.252 . S
C68 O66 1.273 . S
O69 Mg56 2.010 . S
O69 C61 1.249 . S
Mg70 O71 2.028 . S
Mg70 O77 1.986 . S
Mg70 O79 2.114 . S
Mg70 O80 2.251 . S
Mg70 O83 2.010 . S
O71 Mg70 2.028 . S
O71 C74 1.250 . S
O72 Mg73 2.028 . S
O72 C74 1.248 . S
Mg73 O72 2.028 . S
Mg73 O78 2.032 . S
Mg73 O80 2.079 . S
C74 O71 1.250 . S
C74 O72 1.248 . S
C75 O76 1.264 . S
C75 O83 1.249 . S
O76 C75 1.264 . S
O77 Mg70 1.986 . S
O77 C81 1.246 . S
O78 Mg73 2.032 . S
O78 C81 1.259 . S
O79 Mg70 2.114 . S
O79 C82 1.252 . S
O80 Mg70 2.251 . S
O80 Mg73 2.079 . S
O80 C82 1.273 . S
C81 O77 1.246 . S
C81 O78 1.259 . S
C82 O79 1.252 . S
C82 O80 1.273 . S
O83 Mg70 2.010 . S
O83 C75 1.249 . S
Mg84 O85 2.028 . S
Mg84 O91 1.986 . S
Mg84 O93 2.114 . S
Mg84 O94 2.251 . S
Mg84 O97 2.010 . S
O85 Mg84 2.028 . S
O85 C88 1.250 . S
O86 Mg87 2.028 . S
O86 C88 1.248 . S
Mg87 O86 2.028 . S
Mg87 O92 2.032 . S
Mg87 O94 2.079 . S
C88 O85 1.250 . S
C88 O86 1.248 . S
C89 O90 1.264 . S
C89 O97 1.249 . S
O90 C89 1.264 . S
O91 Mg84 1.986 . S
O91 C95 1.246 . S
O92 Mg87 2.032 . S
O92 C95 1.259 . S
O93 Mg84 2.114 . S
O93 C96 1.252 . S
O94 Mg84 2.251 . S
O94 Mg87 2.079 . S
O94 C96 1.273 . S
C95 O91 1.246 . S
C95 O92 1.259 . S
C96 O93 1.252 . S
C96 O94 1.273 . S
O97 Mg84 2.010 . S
O97 C89 1.249 . S
Mg98 O99 2.028 . S
Mg98 O105 1.986 . S
Mg98 O107 2.114 . S
Mg98 O108 2.251 . S
Mg98 O111 2.010 . S
O99 Mg98 2.028 . S
O99 C102 1.250 . S
O100 Mg101 2.028 . S
O100 C102 1.248 . S
Mg101 O100 2.028 . S
Mg101 O106 2.032 . S
Mg101 O108 2.079 . S
C102 O99 1.250 . S
C102 O100 1.248 . S
C103 O104 1.264 . S
C103 O111 1.249 . S
O104 C103 1.264 . S
O105 Mg98 1.986 . S
O105 C109 1.246 . S
O106 Mg101 2.032 . S
O106 C109 1.259 . S
O107 Mg98 2.114 . S
O107 C110 1.252 . S
O108 Mg98 2.251 . S
O108 Mg101 2.079 . S
O108 C110 1.273 . S
C109 O105 1.246 . S
C109 O106 1.259 . S
C110 O107 1.252 . S
C110 O108 1.273 . S
O111 Mg98 2.010 . S
O111 C103 1.249 . S
Mg112 O113 2.028 . S
Mg112 O119 1.986 . S
Mg112 O121 2.114 . S
Mg112 O122 2.251 . S
Mg112 O125 2.010 . S
O113 Mg112 2.028 . S
O113 C116 1.250 . S
O114 Mg115 2.028 . S
O114 C116 1.248 . S
Mg115 O114 2.028 . S
Mg115 O120 2.032 . S
Mg115 O122 2.079 . S
C116 O113 1.250 . S
C116 O114 1.248 . S
C117 O118 1.264 . S
C117 O125 1.249 . S
O118 C117 1.264 . S
O119 Mg112 1.986 . S
O119 C123 1.246 . S
O120 Mg115 2.032 . S
O120 C123 1.259 . S
O121 Mg112 2.114 . S
O121 C124 1.252 . S
O122 Mg112 2.251 . S
O122 Mg115 2.079 . S
O122 C124 1.273 . S
C123 O119 1.246 . S
C123 O120 1.259 . S
C124 O121 1.252 . S
C124 O122 1.273 . S
O125 Mg112 2.010 . S
O125 C117 1.249 . S
Mg126 O127 2.028 . S
Mg126 O133 1.986 . S
Mg126 O135 2.114 . S
Mg126 O136 2.251 . S
Mg126 O139 2.010 . S
O127 Mg126 2.028 . S
O127 C130 1.250 . S
O128 Mg129 2.028 . S
O128 C130 1.248 . S
Mg129 O128 2.028 . S
Mg129 O134 2.032 . S
Mg129 O136 2.079 . S
C130 O127 1.250 . S
C130 O128 1.248 . S
C131 O132 1.264 . S
C131 O139 1.249 . S
O132 C131 1.264 . S
O133 Mg126 1.986 . S
O133 C137 1.246 . S
O134 Mg129 2.032 . S
O134 C137 1.259 . S
O135 Mg126 2.114 . S
O135 C138 1.252 . S
O136 Mg126 2.251 . S
O136 Mg129 2.079 . S
O136 C138 1.273 . S
C137 O133 1.246 . S
C137 O134 1.259 . S
C138 O135 1.252 . S
C138 O136 1.273 . S
O139 Mg126 2.010 . S
O139 C131 1.249 . S
Mg140 O141 2.028 . S
Mg140 O147 1.986 . S
Mg140 O149 2.114 . S
Mg140 O150 2.251 . S
Mg140 O153 2.010 . S
O141 Mg140 2.028 . S
O141 C144 1.250 . S
O142 Mg143 2.028 . S
O142 C144 1.248 . S
Mg143 O142 2.028 . S
Mg143 O148 2.032 . S
Mg143 O150 2.079 . S
C144 O141 1.250 . S
C144 O142 1.248 . S
C145 O146 1.264 . S
C145 O153 1.249 . S
O146 C145 1.264 . S
O147 Mg140 1.986 . S
O147 C151 1.246 . S
O148 Mg143 2.032 . S
O148 C151 1.259 . S
O149 Mg140 2.114 . S
O149 C152 1.252 . S
O150 Mg140 2.251 . S
O150 Mg143 2.079 . S
O150 C152 1.273 . S
C151 O147 1.246 . S
C151 O148 1.259 . S
C152 O149 1.252 . S
C152 O150 1.273 . S
O153 Mg140 2.010 . S
O153 C145 1.249 . S
Mg154 O155 2.028 . S
Mg154 O161 1.986 . S
Mg154 O163 2.114 . S
Mg154 O164 2.251 . S
Mg154 O167 2.010 . S
O155 Mg154 2.028 . S
O155 C158 1.250 . S
O156 Mg157 2.028 . S
O156 C158 1.248 . S
Mg157 O156 2.028 . S
Mg157 O162 2.032 . S
Mg157 O164 2.079 . S
C158 O155 1.250 . S
C158 O156 1.248 . S
C159 O160 1.264 . S
C159 O167 1.249 . S
O160 C159 1.264 . S
O161 Mg154 1.986 . S
O161 C165 1.246 . S
O162 Mg157 2.032 . S
O162 C165 1.259 . S
O163 Mg154 2.114 . S
O163 C166 1.252 . S
O164 Mg154 2.251 . S
O164 Mg157 2.079 . S
O164 C166 1.273 . S
C165 O161 1.246 . S
C165 O162 1.259 . S
C166 O163 1.252 . S
C166 O164 1.273 . S
O167 Mg154 2.010 . S
O167 C159 1.249 . S
Mg168 O169 2.028 . S
Mg168 O175 1.986 . S
Mg168 O177 2.114 . S
Mg168 O178 2.251 . S
Mg168 O181 2.010 . S
O169 Mg168 2.028 . S
O169 C172 1.250 . S
O170 Mg171 2.028 . S
O170 C172 1.248 . S
Mg171 O170 2.028 . S
Mg171 O176 2.032 . S
Mg171 O178 2.079 . S
C172 O169 1.250 . S
C172 O170 1.248 . S
C173 O174 1.264 . S
C173 O181 1.249 . S
O174 C173 1.264 . S
O175 Mg168 1.986 . S
O175 C179 1.246 . S
O176 Mg171 2.032 . S
O176 C179 1.259 . S
O177 Mg168 2.114 . S
O177 C180 1.252 . S
O178 Mg168 2.251 . S
O178 Mg171 2.079 . S
O178 C180 1.273 . S
C179 O175 1.246 . S
C179 O176 1.259 . S
C180 O177 1.252 . S
C180 O178 1.273 . S
O181 Mg168 2.010 . S
O181 C173 1.249 . S
Mg182 O183 2.028 . S
Mg182 O189 1.986 . S
Mg182 O191 2.114 . S
Mg182 O192 2.251 . S
Mg182 O195 2.010 . S
O183 Mg182 2.028 . S
O183 C186 1.250 . S
O184 Mg185 2.028 . S
O184 C186 1.248 . S
Mg185 O184 2.028 . S
Mg185 O190 2.032 . S
Mg185 O192 2.079 . S
C186 O183 1.250 . S
C186 O184 1.248 . S
C187 O188 1.264 . S
C187 O195 1.249 . S
O188 C187 1.264 . S
O189 Mg182 1.986 . S
O189 C193 1.246 . S
O190 Mg185 2.032 . S
O190 C193 1.259 . S
O191 Mg182 2.114 . S
O191 C194 1.252 . S
O192 Mg182 2.251 . S
O192 Mg185 2.079 . S
O192 C194 1.273 . S
C193 O189 1.246 . S
C193 O190 1.259 . S
C194 O191 1.252 . S
C194 O192 1.273 . S
O195 Mg182 2.010 . S
O195 C187 1.249 . S
Mg196 O197 2.028 . S
Mg196 O203 1.986 . S
Mg196 O205 2.114 . S
Mg196 O206 2.251 . S
Mg196 O209 2.010 . S
O197 Mg196 2.028 . S
O197 C200 1.250 . S
O198 Mg199 2.028 . S
O198 C200 1.248 . S
Mg199 O198 2.028 . S
Mg199 O204 2.032 . S
Mg199 O206 2.079 . S
C200 O197 1.250 . S
C200 O198 1.248 . S
C201 O202 1.264 . S
C201 O209 1.249 . S
O202 C201 1.264 . S
O203 Mg196 1.986 . S
O203 C207 1.246 . S
O204 Mg199 2.032 . S
O204 C207 1.259 . S
O205 Mg196 2.114 . S
O205 C208 1.252 . S
O206 Mg196 2.251 . S
O206 Mg199 2.079 . S
O206 C208 1.273 . S
C207 O203 1.246 . S
C207 O204 1.259 . S
C208 O205 1.252 . S
C208 O206 1.273 . S
O209 Mg196 2.010 . S
O209 C201 1.249 . S
Mg210 O211 2.028 . S
Mg210 O217 1.986 . S
Mg210 O219 2.114 . S
Mg210 O220 2.251 . S
Mg210 O223 2.010 . S
O211 Mg210 2.028 . S
O211 C214 1.250 . S
O212 Mg213 2.028 . S
O212 C214 1.248 . S
Mg213 O212 2.028 . S
Mg213 O218 2.032 . S
Mg213 O220 2.079 . S
C214 O211 1.250 . S
C214 O212 1.248 . S
C215 O216 1.264 . S
C215 O223 1.249 . S
O216 C215 1.264 . S
O217 Mg210 1.986 . S
O217 C221 1.246 . S
O218 Mg213 2.032 . S
O218 C221 1.259 . S
O219 Mg210 2.114 . S
O219 C222 1.252 . S
O220 Mg210 2.251 . S
O220 Mg213 2.079 . S
O220 C222 1.273 . S
C221 O217 1.246 . S
C221 O218 1.259 . S
C222 O219 1.252 . S
C222 O220 1.273 . S
O223 Mg210 2.010 . S
O223 C215 1.249 . S
Mg224 O225 2.028 . S
Mg224 O231 1.986 . S
Mg224 O233 2.114 . S
Mg224 O234 2.251 . S
Mg224 O237 2.010 . S
O225 Mg224 2.028 . S
O225 C228 1.250 . S
O226 Mg227 2.028 . S
O226 C228 1.248 . S
Mg227 O226 2.028 . S
Mg227 O232 2.032 . S
Mg227 O234 2.079 . S
C228 O225 1.250 . S
C228 O226 1.248 . S
C229 O230 1.264 . S
C229 O237 1.249 . S
O230 C229 1.264 . S
O231 Mg224 1.986 . S
O231 C235 1.246 . S
O232 Mg227 2.032 . S
O232 C235 1.259 . S
O233 Mg224 2.114 . S
O233 C236 1.252 . S
O234 Mg224 2.251 . S
O234 Mg227 2.079 . S
O234 C236 1.273 . S
C235 O231 1.246 . S
C235 O232 1.259 . S
C236 O233 1.252 . S
C236 O234 1.273 . S
O237 Mg224 2.010 . S
O237 C229 1.249 . S
Mg238 O239 2.028 . S
Mg238 O245 1.986 . S
Mg238 O247 2.114 . S
Mg238 O248 2.251 . S
Mg238 O251 2.010 . S
O239 Mg238 2.028 . S
O239 C242 1.250 . S
O240 Mg241 2.028 . S
O240 C242 1.248 . S
Mg241 O240 2.028 . S
Mg241 O246 2.032 . S
Mg241 O248 2.079 . S
C242 O239 1.250 . S
C242 O240 1.248 . S
C243 O244 1.264 . S
C243 O251 1.249 . S
O244 C243 1.264 . S
O245 Mg238 1.986 . S
O245 C249 1.246 . S
O246 Mg241 2.032 . S
O246 C249 1.259 . S
O247 Mg238 2.114 . S
O247 C250 1.252 . S
O248 Mg238 2.251 . S
O248 Mg241 2.079 . S
O248 C250 1.273 . S
C249 O245 1.246 . S
C249 O246 1.259 . S
C250 O247 1.252 . S
C250 O248 1.273 . S
O251 Mg238 2.010 . S
O251 C243 1.249 . S
Mg252 O253 2.028 . S
Mg252 O259 1.986 . S
Mg252 O261 2.114 . S
Mg252 O262 2.251 . S
Mg252 O265 2.010 . S
O253 Mg252 2.028 . S
O253 C256 1.250 . S
O254 Mg255 2.028 . S
O254 C256 1.248 . S
Mg255 O254 2.028 . S
Mg255 O260 2.032 . S
Mg255 O262 2.079 . S
C256 O253 1.250 . S
C256 O254 1.248 . S
C257 O258 1.264 . S
C257 O265 1.249 . S
O258 C257 1.264 . S
O259 Mg252 1.986 . S
O259 C263 1.246 . S
O260 Mg255 2.032 . S
O260 C263 1.259 . S
O261 Mg252 2.114 . S
O261 C264 1.252 . S
O262 Mg252 2.251 . S
O262 Mg255 2.079 . S
O262 C264 1.273 . S
C263 O259 1.246 . S
C263 O260 1.259 . S
C264 O261 1.252 . S
C264 O262 1.273 . S
O265 Mg252 2.010 . S
O265 C257 1.249 . S
Mg266 O267 2.028 . S
Mg266 O273 1.986 . S
Mg266 O275 2.114 . S
Mg266 O276 2.251 . S
Mg266 O279 2.010 . S
O267 Mg266 2.028 . S
O267 C270 1.250 . S
O268 Mg269 2.028 . S
O268 C270 1.248 . S
Mg269 O268 2.028 . S
Mg269 O274 2.032 . S
Mg269 O276 2.079 . S
C270 O267 1.250 . S
C270 O268 1.248 . S
C271 O272 1.264 . S
C271 O279 1.249 . S
O272 C271 1.264 . S
O273 Mg266 1.986 . S
O273 C277 1.246 . S
O274 Mg269 2.032 . S
O274 C277 1.259 . S
O275 Mg266 2.114 . S
O275 C278 1.252 . S
O276 Mg266 2.251 . S
O276 Mg269 2.079 . S
O276 C278 1.273 . S
C277 O273 1.246 . S
C277 O274 1.259 . S
C278 O275 1.252 . S
C278 O276 1.273 . S
O279 Mg266 2.010 . S
O279 C271 1.249 . S
Mg280 O281 2.028 . S
Mg280 O287 1.986 . S
Mg280 O289 2.114 . S
Mg280 O290 2.251 . S
Mg280 O293 2.010 . S
O281 Mg280 2.028 . S
O281 C284 1.250 . S
O282 Mg283 2.028 . S
O282 C284 1.248 . S
Mg283 O282 2.028 . S
Mg283 O288 2.032 . S
Mg283 O290 2.079 . S
C284 O281 1.250 . S
C284 O282 1.248 . S
C285 O286 1.264 . S
C285 O293 1.249 . S
O286 C285 1.264 . S
O287 Mg280 1.986 . S
O287 C291 1.246 . S
O288 Mg283 2.032 . S
O288 C291 1.259 . S
O289 Mg280 2.114 . S
O289 C292 1.252 . S
O290 Mg280 2.251 . S
O290 Mg283 2.079 . S
O290 C292 1.273 . S
C291 O287 1.246 . S
C291 O288 1.259 . S
C292 O289 1.252 . S
C292 O290 1.273 . S
O293 Mg280 2.010 . S
O293 C285 1.249 . S
Mg294 O295 2.028 . S
Mg294 O301 1.986 . S
Mg294 O303 2.114 . S
Mg294 O304 2.251 . S
Mg294 O307 2.010 . S
O295 Mg294 2.028 . S
O295 C298 1.250 . S
O296 Mg297 2.028 . S
O296 C298 1.248 . S
Mg297 O296 2.028 . S
Mg297 O302 2.032 . S
Mg297 O304 2.079 . S
C298 O295 1.250 . S
C298 O296 1.248 . S
C299 O300 1.264 . S
C299 O307 1.249 . S
O300 C299 1.264 . S
O301 Mg294 1.986 . S
O301 C305 1.246 . S
O302 Mg297 2.032 . S
O302 C305 1.259 . S
O303 Mg294 2.114 . S
O303 C306 1.252 . S
O304 Mg294 2.251 . S
O304 Mg297 2.079 . S
O304 C306 1.273 . S
C305 O301 1.246 . S
C305 O302 1.259 . S
C306 O303 1.252 . S
C306 O304 1.273 . S
O307 Mg294 2.010 . S
O307 C299 1.249 . S
Mg308 O309 2.028 . S
Mg308 O315 1.986 . S
Mg308 O317 2.114 . S
Mg308 O318 2.251 . S
Mg308 O321 2.010 . S
O309 Mg308 2.028 . S
O309 C312 1.250 . S
O310 Mg311 2.028 . S
O310 C312 1.248 . S
Mg311 O310 2.028 . S
Mg311 O316 2.032 . S
Mg311 O318 2.079 . S
C312 O309 1.250 . S
C312 O310 1.248 . S
C313 O314 1.264 . S
C313 O321 1.249 . S
O314 C313 1.264 . S
O315 Mg308 1.986 . S
O315 C319 1.246 . S
O316 Mg311 2.032 . S
O316 C319 1.259 . S
O317 Mg308 2.114 . S
O317 C320 1.252 . S
O318 Mg308 2.251 . S
O318 Mg311 2.079 . S
O318 C320 1.273 . S
C319 O315 1.246 . S
C319 O316 1.259 . S
C320 O317 1.252 . S
C320 O318 1.273 . S
O321 Mg308 2.010 . S
O321 C313 1.249 . S
Mg322 O323 2.028 . S
Mg322 O329 1.986 . S
Mg322 O331 2.114 . S
Mg322 O332 2.251 . S
Mg322 O335 2.010 . S
O323 Mg322 2.028 . S
O323 C326 1.250 . S
O324 Mg325 2.028 . S
O324 C326 1.248 . S
Mg325 O324 2.028 . S
Mg325 O330 2.032 . S
Mg325 O332 2.079 . S
C326 O323 1.250 . S
C326 O324 1.248 . S
C327 O328 1.264 . S
C327 O335 1.249 . S
O328 C327 1.264 . S
O329 Mg322 1.986 . S
O329 C333 1.246 . S
O330 Mg325 2.032 . S
O330 C333 1.259 . S
O331 Mg322 2.114 . S
O331 C334 1.252 . S
O332 Mg322 2.251 . S
O332 Mg325 2.079 . S
O332 C334 1.273 . S
C333 O329 1.246 . S
C333 O330 1.259 . S
C334 O331 1.252 . S
C334 O332 1.273 . S
O335 Mg322 2.010 . S
O335 C327 1.249 . S
Mg336 O337 2.028 . S
Mg336 O343 1.986 . S
Mg336 O345 2.114 . S
Mg336 O346 2.251 . S
Mg336 O349 2.010 . S
O337 Mg336 2.028 . S
O337 C340 1.250 . S
O338 Mg339 2.028 . S
O338 C340 1.248 . S
Mg339 O338 2.028 . S
Mg339 O344 2.032 . S
Mg339 O346 2.079 . S
C340 O337 1.250 . S
C340 O338 1.248 . S
C341 O342 1.264 . S
C341 O349 1.249 . S
O342 C341 1.264 . S
O343 Mg336 1.986 . S
O343 C347 1.246 . S
O344 Mg339 2.032 . S
O344 C347 1.259 . S
O345 Mg336 2.114 . S
O345 C348 1.252 . S
O346 Mg336 2.251 . S
O346 Mg339 2.079 . S
O346 C348 1.273 . S
C347 O343 1.246 . S
C347 O344 1.259 . S
C348 O345 1.252 . S
C348 O346 1.273 . S
O349 Mg336 2.010 . S
O349 C341 1.249 . S
Mg350 O351 2.028 . S
Mg350 O357 1.986 . S
Mg350 O359 2.114 . S
Mg350 O360 2.251 . S
Mg350 O363 2.010 . S
O351 Mg350 2.028 . S
O351 C354 1.250 . S
O352 Mg353 2.028 . S
O352 C354 1.248 . S
Mg353 O352 2.028 . S
Mg353 O358 2.032 . S
Mg353 O360 2.079 . S
C354 O351 1.250 . S
C354 O352 1.248 . S
C355 O356 1.264 . S
C355 O363 1.249 . S
O356 C355 1.264 . S
O357 Mg350 1.986 . S
O357 C361 1.246 . S
O358 Mg353 2.032 . S
O358 C361 1.259 . S
O359 Mg350 2.114 . S
O359 C362 1.252 . S
O360 Mg350 2.251 . S
O360 Mg353 2.079 . S
O360 C362 1.273 . S
C361 O357 1.246 . S
C361 O358 1.259 . S
C362 O359 1.252 . S
C362 O360 1.273 . S
O363 Mg350 2.010 . S
O363 C355 1.249 . S
Mg364 O365 2.028 . S
Mg364 O371 1.986 . S
Mg364 O373 2.114 . S
Mg364 O374 2.251 . S
Mg364 O377 2.010 . S
O365 Mg364 2.028 . S
O365 C368 1.250 . S
O366 Mg367 2.028 . S
O366 C368 1.248 . S
Mg367 O366 2.028 . S
Mg367 O372 2.032 . S
Mg367 O374 2.079 . S
C368 O365 1.250 . S
C368 O366 1.248 . S
C369 O370 1.264 . S
C369 O377 1.249 . S
O370 C369 1.264 . S
O371 Mg364 1.986 . S
O371 C375 1.246 . S
O372 Mg367 2.032 . S
O372 C375 1.259 . S
O373 Mg364 2.114 . S
O373 C376 1.252 . S
O374 Mg364 2.251 . S
O374 Mg367 2.079 . S
O374 C376 1.273 . S
C375 O371 1.246 . S
C375 O372 1.259 . S
C376 O373 1.252 . S
C376 O374 1.273 . S
O377 Mg364 2.010 . S
O377 C369 1.249 . S
Mg378 O379 2.028 . S
Mg378 O385 1.986 . S
Mg378 O387 2.114 . S
Mg378 O388 2.251 . S
Mg378 O391 2.010 . S
O379 Mg378 2.028 . S
O379 C382 1.250 . S
O380 Mg381 2.028 . S
O380 C382 1.248 . S
Mg381 O380 2.028 . S
Mg381 O386 2.032 . S
Mg381 O388 2.079 . S
C382 O379 1.250 . S
C382 O380 1.248 . S
C383 O384 1.264 . S
C383 O391 1.249 . S
O384 C383 1.264 . S
O385 Mg378 1.986 . S
O385 C389 1.246 . S
O386 Mg381 2.032 . S
O386 C389 1.259 . S
O387 Mg378 2.114 . S
O387 C390 1.252 . S
O388 Mg378 2.251 . S
O388 Mg381 2.079 . S
O388 C390 1.273 . S
C389 O385 1.246 . S
C389 O386 1.259 . S
C390 O387 1.252 . S
C390 O388 1.273 . S
O391 Mg378 2.010 . S
O391 C383 1.249 . S
Mg392 O393 2.028 . S
Mg392 O399 1.986 . S
Mg392 O401 2.114 . S
Mg392 O402 2.251 . S
Mg392 O405 2.010 . S
O393 Mg392 2.028 . S
O393 C396 1.250 . S
O394 Mg395 2.028 . S
O394 C396 1.248 . S
Mg395 O394 2.028 . S
Mg395 O400 2.032 . S
Mg395 O402 2.079 . S
C396 O393 1.250 . S
C396 O394 1.248 . S
C397 O398 1.264 . S
C397 O405 1.249 . S
O398 C397 1.264 . S
O399 Mg392 1.986 . S
O399 C403 1.246 . S
O400 Mg395 2.032 . S
O400 C403 1.259 . S
O401 Mg392 2.114 . S
O401 C404 1.252 . S
O402 Mg392 2.251 . S
O402 Mg395 2.079 . S
O402 C404 1.273 . S
C403 O399 1.246 . S
C403 O400 1.259 . S
C404 O401 1.252 . S
C404 O402 1.273 . S
O405 Mg392 2.010 . S
O405 C397 1.249 . S
Mg406 O407 2.028 . S
Mg406 O413 1.986 . S
Mg406 O415 2.114 . S
Mg406 O416 2.251 . S
Mg406 O419 2.010 . S
O407 Mg406 2.028 . S
O407 C410 1.250 . S
O408 Mg409 2.028 . S
O408 C410 1.248 . S
Mg409 O408 2.028 . S
Mg409 O414 2.032 . S
Mg409 O416 2.079 . S
C410 O407 1.250 . S
C410 O408 1.248 . S
C411 O412 1.264 . S
C411 O419 1.249 . S
O412 C411 1.264 . S
O413 Mg406 1.986 . S
O413 C417 1.246 . S
O414 Mg409 2.032 . S
O414 C417 1.259 . S
O415 Mg406 2.114 . S
O415 C418 1.252 . S
O416 Mg406 2.251 . S
O416 Mg409 2.079 . S
O416 C418 1.273 . S
C417 O413 1.246 . S
C417 O414 1.259 . S
C418 O415 1.252 . S
C418 O416 1.273 . S
O419 Mg406 2.010 . S
O419 C411 1.249 . S
Mg420 O421 2.028 . S
Mg420 O427 1.986 . S
Mg420 O429 2.114 . S
Mg420 O430 2.251 . S
Mg420 O433 2.010 . S
O421 Mg420 2.028 . S
O421 C424 1.250 . S
O422 Mg423 2.028 . S
O422 C424 1.248 . S
Mg423 O422 2.028 . S
Mg423 O428 2.032 . S
Mg423 O430 2.079 . S
C424 O421 1.250 . S
C424 O422 1.248 . S
C425 O426 1.264 . S
C425 O433 1.249 . S
O426 C425 1.264 . S
O427 Mg420 1.986 . S
O427 C431 1.246 . S
O428 Mg423 2.032 . S
O428 C431 1.259 . S
O429 Mg420 2.114 . S
O429 C432 1.252 . S
O430 Mg420 2.251 . S
O430 Mg423 2.079 . S
O430 C432 1.273 . S
C431 O427 1.246 . S
C431 O428 1.259 . S
C432 O429 1.252 . S
C432 O430 1.273 . S
O433 Mg420 2.010 . S
O433 C425 1.249 . S
Mg434 O435 2.028 . S
Mg434 O441 1.986 . S
Mg434 O443 2.114 . S
Mg434 O444 2.251 . S
Mg434 O447 2.010 . S
O435 Mg434 2.028 . S
O435 C438 1.250 . S
O436 Mg437 2.028 . S
O436 C438 1.248 . S
Mg437 O436 2.028 . S
Mg437 O442 2.032 . S
Mg437 O444 2.079 . S
C438 O435 1.250 . S
C438 O436 1.248 . S
C439 O440 1.264 . S
C439 O447 1.249 . S
O440 C439 1.264 . S
O441 Mg434 1.986 . S
O441 C445 1.246 . S
O442 Mg437 2.032 . S
O442 C445 1.259 . S
O443 Mg434 2.114 . S
O443 C446 1.252 . S
O444 Mg434 2.251 . S
O444 Mg437 2.079 . S
O444 C446 1.273 . S
C445 O441 1.246 . S
C445 O442 1.259 . S
C446 O443 1.252 . S
C446 O444 1.273 . S
O447 Mg434 2.010 . S
O447 C439 1.249 . S
H448 C460 0.930 . S
H449 C462 0.930 . S
H450 C463 0.930 . S
H451 C467 0.959 . S
H452 C467 0.959 . S
H453 C467 0.961 . S
H454 C468 0.960 . S
H455 C468 0.961 . S
H456 C468 0.959 . S
H457 C471 0.929 . S
H458 C472 0.931 . S
H459 C474 0.930 . S
C460 H448 0.930 . S
C460 C461 1.399 . S
C460 C465 1.399 . S
C461 C460 1.399 . S
C461 C462 1.376 . S
C462 H449 0.930 . S
C462 C461 1.376 . S
C462 C463 1.388 . S
C463 H450 0.930 . S
C463 C462 1.388 . S
C463 C464 1.390 . S
C464 C463 1.390 . S
C464 C465 1.394 . S
C464 C470 1.465 . S
C465 C460 1.399 . S
C465 C464 1.394 . S
C465 C466 1.516 . S
C466 C465 1.516 . S
C466 C467 1.502 . S
C466 C468 1.561 . S
C466 C469 1.526 . S
C467 H451 0.959 . S
C467 H452 0.959 . S
C467 H453 0.961 . S
C467 C466 1.502 . S
C468 H454 0.960 . S
C468 H455 0.961 . S
C468 H456 0.959 . S
C468 C466 1.561 . S
C469 C466 1.526 . S
C469 C470 1.396 . S
C469 C474 1.390 . S
C470 C464 1.465 . S
C470 C469 1.396 . S
C470 C471 1.399 . S
C471 H457 0.929 . S
C471 C470 1.399 . S
C471 C472 1.385 . S
C472 H458 0.931 . S
C472 C471 1.385 . S
C472 C473 1.389 . S
C473 C472 1.389 . S
C473 C474 1.387 . S
C474 H459 0.930 . S
C474 C469 1.390 . S
C474 C473 1.387 . S
H475 C487 0.930 . S
H476 C489 0.930 . S
H477 C490 0.930 . S
H478 C494 0.959 . S
H479 C494 0.959 . S
H480 C494 0.961 . S
H481 C495 0.960 . S
H482 C495 0.961 . S
H483 C495 0.959 . S
H484 C498 0.929 . S
H485 C499 0.931 . S
H486 C501 0.930 . S
C487 H475 0.930 . S
C487 C488 1.399 . S
C487 C492 1.399 . S
C488 C487 1.399 . S
C488 C489 1.376 . S
C489 H476 0.930 . S
C489 C488 1.376 . S
C489 C490 1.388 . S
C490 H477 0.930 . S
C490 C489 1.388 . S
C490 C491 1.390 . S
C491 C490 1.390 . S
C491 C492 1.394 . S
C491 C497 1.465 . S
C492 C487 1.399 . S
C492 C491 1.394 . S
C492 C493 1.516 . S
C493 C492 1.516 . S
C493 C494 1.502 . S
C493 C495 1.561 . S
C493 C496 1.526 . S
C494 H478 0.959 . S
C494 H479 0.959 . S
C494 H480 0.961 . S
C494 C493 1.502 . S
C495 H481 0.960 . S
C495 H482 0.961 . S
C495 H483 0.959 . S
C495 C493 1.561 . S
C496 C493 1.526 . S
C496 C497 1.396 . S
C496 C501 1.390 . S
C497 C491 1.465 . S
C497 C496 1.396 . S
C497 C498 1.399 . S
C498 H484 0.929 . S
C498 C497 1.399 . S
C498 C499 1.385 . S
C499 H485 0.931 . S
C499 C498 1.385 . S
C499 C500 1.389 . S
C500 C499 1.389 . S
C500 C501 1.387 . S
C501 H486 0.930 . S
C501 C496 1.390 . S
C501 C500 1.387 . S
H502 C514 0.930 . S
H503 C516 0.930 . S
H504 C517 0.930 . S
H505 C521 0.959 . S
H506 C521 0.959 . S
H507 C521 0.961 . S
H508 C522 0.960 . S
H509 C522 0.961 . S
H510 C522 0.959 . S
H511 C525 0.929 . S
H512 C526 0.931 . S
H513 C528 0.930 . S
C514 H502 0.930 . S
C514 C515 1.399 . S
C514 C519 1.399 . S
C515 C514 1.399 . S
C515 C516 1.376 . S
C516 H503 0.930 . S
C516 C515 1.376 . S
C516 C517 1.388 . S
C517 H504 0.930 . S
C517 C516 1.388 . S
C517 C518 1.390 . S
C518 C517 1.390 . S
C518 C519 1.394 . S
C518 C524 1.465 . S
C519 C514 1.399 . S
C519 C518 1.394 . S
C519 C520 1.516 . S
C520 C519 1.516 . S
C520 C521 1.502 . S
C520 C522 1.561 . S
C520 C523 1.526 . S
C521 H505 0.959 . S
C521 H506 0.959 . S
C521 H507 0.961 . S
C521 C520 1.502 . S
C522 H508 0.960 . S
C522 H509 0.961 . S
C522 H510 0.959 . S
C522 C520 1.561 . S
C523 C520 1.526 . S
C523 C524 1.396 . S
C523 C528 1.390 . S
C524 C518 1.465 . S
C524 C523 1.396 . S
C524 C525 1.399 . S
C525 H511 0.929 . S
C525 C524 1.399 . S
C525 C526 1.385 . S
C526 H512 0.931 . S
C526 C525 1.385 . S
C526 C527 1.389 . S
C527 C526 1.389 . S
C527 C528 1.387 . S
C528 H513 0.930 . S
C528 C523 1.390 . S
C528 C527 1.387 . S
H529 C541 0.930 . S
H530 C543 0.930 . S
H531 C544 0.930 . S
H532 C548 0.959 . S
H533 C548 0.959 . S
H534 C548 0.961 . S
H535 C549 0.960 . S
H536 C549 0.961 . S
H537 C549 0.959 . S
H538 C552 0.929 . S
H539 C553 0.931 . S
H540 C555 0.930 . S
C541 H529 0.930 . S
C541 C542 1.399 . S
C541 C546 1.399 . S
C542 C541 1.399 . S
C542 C543 1.376 . S
C543 H530 0.930 . S
C543 C542 1.376 . S
C543 C544 1.388 . S
C544 H531 0.930 . S
C544 C543 1.388 . S
C544 C545 1.390 . S
C545 C544 1.390 . S
C545 C546 1.394 . S
C545 C551 1.465 . S
C546 C541 1.399 . S
C546 C545 1.394 . S
C546 C547 1.516 . S
C547 C546 1.516 . S
C547 C548 1.502 . S
C547 C549 1.561 . S
C547 C550 1.526 . S
C548 H532 0.959 . S
C548 H533 0.959 . S
C548 H534 0.961 . S
C548 C547 1.502 . S
C549 H535 0.960 . S
C549 H536 0.961 . S
C549 H537 0.959 . S
C549 C547 1.561 . S
C550 C547 1.526 . S
C550 C551 1.396 . S
C550 C555 1.390 . S
C551 C545 1.465 . S
C551 C550 1.396 . S
C551 C552 1.399 . S
C552 H538 0.929 . S
C552 C551 1.399 . S
C552 C553 1.385 . S
C553 H539 0.931 . S
C553 C552 1.385 . S
C553 C554 1.389 . S
C554 C553 1.389 . S
C554 C555 1.387 . S
C555 H540 0.930 . S
C555 C550 1.390 . S
C555 C554 1.387 . S
H556 C568 0.930 . S
H557 C570 0.930 . S
H558 C571 0.930 . S
H559 C575 0.959 . S
H560 C575 0.959 . S
H561 C575 0.961 . S
H562 C576 0.960 . S
H563 C576 0.961 . S
H564 C576 0.959 . S
H565 C579 0.929 . S
H566 C580 0.931 . S
H567 C582 0.930 . S
C568 H556 0.930 . S
C568 C569 1.399 . S
C568 C573 1.399 . S
C569 C568 1.399 . S
C569 C570 1.376 . S
C570 H557 0.930 . S
C570 C569 1.376 . S
C570 C571 1.388 . S
C571 H558 0.930 . S
C571 C570 1.388 . S
C571 C572 1.390 . S
C572 C571 1.390 . S
C572 C573 1.394 . S
C572 C578 1.465 . S
C573 C568 1.399 . S
C573 C572 1.394 . S
C573 C574 1.516 . S
C574 C573 1.516 . S
C574 C575 1.502 . S
C574 C576 1.561 . S
C574 C577 1.526 . S
C575 H559 0.959 . S
C575 H560 0.959 . S
C575 H561 0.961 . S
C575 C574 1.502 . S
C576 H562 0.960 . S
C576 H563 0.961 . S
C576 H564 0.959 . S
C576 C574 1.561 . S
C577 C574 1.526 . S
C577 C578 1.396 . S
C577 C582 1.390 . S
C578 C572 1.465 . S
C578 C577 1.396 . S
C578 C579 1.399 . S
C579 H565 0.929 . S
C579 C578 1.399 . S
C579 C580 1.385 . S
C580 H566 0.931 . S
C580 C579 1.385 . S
C580 C581 1.389 . S
C581 C580 1.389 . S
C581 C582 1.387 . S
C582 H567 0.930 . S
C582 C577 1.390 . S
C582 C581 1.387 . S
H583 C595 0.930 . S
H584 C597 0.930 . S
H585 C598 0.930 . S
H586 C602 0.959 . S
H587 C602 0.959 . S
H588 C602 0.961 . S
H589 C603 0.960 . S
H590 C603 0.961 . S
H591 C603 0.959 . S
H592 C606 0.929 . S
H593 C607 0.931 . S
H594 C609 0.930 . S
C595 H583 0.930 . S
C595 C596 1.399 . S
C595 C600 1.399 . S
C596 C595 1.399 . S
C596 C597 1.376 . S
C597 H584 0.930 . S
C597 C596 1.376 . S
C597 C598 1.388 . S
C598 H585 0.930 . S
C598 C597 1.388 . S
C598 C599 1.390 . S
C599 C598 1.390 . S
C599 C600 1.394 . S
C599 C605 1.465 . S
C600 C595 1.399 . S
C600 C599 1.394 . S
C600 C601 1.516 . S
C601 C600 1.516 . S
C601 C602 1.502 . S
C601 C603 1.561 . S
C601 C604 1.526 . S
C602 H586 0.959 . S
C602 H587 0.959 . S
C602 H588 0.961 . S
C602 C601 1.502 . S
C603 H589 0.960 . S
C603 H590 0.961 . S
C603 H591 0.959 . S
C603 C601 1.561 . S
C604 C601 1.526 . S
C604 C605 1.396 . S
C604 C609 1.390 . S
C605 C599 1.465 . S
C605 C604 1.396 . S
C605 C606 1.399 . S
C606 H592 0.929 . S
C606 C605 1.399 . S
C606 C607 1.385 . S
C607 H593 0.931 . S
C607 C606 1.385 . S
C607 C608 1.389 . S
C608 C607 1.389 . S
C608 C609 1.387 . S
C609 H594 0.930 . S
C609 C604 1.390 . S
C609 C608 1.387 . S
H610 C622 0.930 . S
H611 C624 0.930 . S
H612 C625 0.930 . S
H613 C629 0.959 . S
H614 C629 0.959 . S
H615 C629 0.961 . S
H616 C630 0.960 . S
H617 C630 0.961 . S
H618 C630 0.959 . S
H619 C633 0.929 . S
H620 C634 0.931 . S
H621 C636 0.930 . S
C622 H610 0.930 . S
C622 C623 1.399 . S
C622 C627 1.399 . S
C623 C622 1.399 . S
C623 C624 1.376 . S
C624 H611 0.930 . S
C624 C623 1.376 . S
C624 C625 1.388 . S
C625 H612 0.930 . S
C625 C624 1.388 . S
C625 C626 1.390 . S
C626 C625 1.390 . S
C626 C627 1.394 . S
C626 C632 1.465 . S
C627 C622 1.399 . S
C627 C626 1.394 . S
C627 C628 1.516 . S
C628 C627 1.516 . S
C628 C629 1.502 . S
C628 C630 1.561 . S
C628 C631 1.526 . S
C629 H613 0.959 . S
C629 H614 0.959 . S
C629 H615 0.961 . S
C629 C628 1.502 . S
C630 H616 0.960 . S
C630 H617 0.961 . S
C630 H618 0.959 . S
C630 C628 1.561 . S
C631 C628 1.526 . S
C631 C632 1.396 . S
C631 C636 1.390 . S
C632 C626 1.465 . S
C632 C631 1.396 . S
C632 C633 1.399 . S
C633 H619 0.929 . S
C633 C632 1.399 . S
C633 C634 1.385 . S
C634 H620 0.931 . S
C634 C633 1.385 . S
C634 C635 1.389 . S
C635 C634 1.389 . S
C635 C636 1.387 . S
C636 H621 0.930 . S
C636 C631 1.390 . S
C636 C635 1.387 . S
H637 C649 0.930 . S
H638 C651 0.930 . S
H639 C652 0.930 . S
H640 C656 0.959 . S
H641 C656 0.959 . S
H642 C656 0.961 . S
H643 C657 0.960 . S
H644 C657 0.961 . S
H645 C657 0.959 . S
H646 C660 0.929 . S
H647 C661 0.931 . S
H648 C663 0.930 . S
C649 H637 0.930 . S
C649 C650 1.399 . S
C649 C654 1.399 . S
C650 C649 1.399 . S
C650 C651 1.376 . S
C651 H638 0.930 . S
C651 C650 1.376 . S
C651 C652 1.388 . S
C652 H639 0.930 . S
C652 C651 1.388 . S
C652 C653 1.390 . S
C653 C652 1.390 . S
C653 C654 1.394 . S
C653 C659 1.465 . S
C654 C649 1.399 . S
C654 C653 1.394 . S
C654 C655 1.516 . S
C655 C654 1.516 . S
C655 C656 1.502 . S
C655 C657 1.561 . S
C655 C658 1.526 . S
C656 H640 0.959 . S
C656 H641 0.959 . S
C656 H642 0.961 . S
C656 C655 1.502 . S
C657 H643 0.960 . S
C657 H644 0.961 . S
C657 H645 0.959 . S
C657 C655 1.561 . S
C658 C655 1.526 . S
C658 C659 1.396 . S
C658 C663 1.390 . S
C659 C653 1.465 . S
C659 C658 1.396 . S
C659 C660 1.399 . S
C660 H646 0.929 . S
C660 C659 1.399 . S
C660 C661 1.385 . S
C661 H647 0.931 . S
C661 C660 1.385 . S
C661 C662 1.389 . S
C662 C661 1.389 . S
C662 C663 1.387 . S
C663 H648 0.930 . S
C663 C658 1.390 . S
C663 C662 1.387 . S
H664 C676 0.930 . S
H665 C678 0.930 . S
H666 C679 0.930 . S
H667 C683 0.959 . S
H668 C683 0.959 . S
H669 C683 0.961 . S
H670 C684 0.960 . S
H671 C684 0.961 . S
H672 C684 0.959 . S
H673 C687 0.929 . S
H674 C688 0.931 . S
H675 C690 0.930 . S
C676 H664 0.930 . S
C676 C677 1.399 . S
C676 C681 1.399 . S
C677 C676 1.399 . S
C677 C678 1.376 . S
C678 H665 0.930 . S
C678 C677 1.376 . S
C678 C679 1.388 . S
C679 H666 0.930 . S
C679 C678 1.388 . S
C679 C680 1.390 . S
C680 C679 1.390 . S
C680 C681 1.394 . S
C680 C686 1.465 . S
C681 C676 1.399 . S
C681 C680 1.394 . S
C681 C682 1.516 . S
C682 C681 1.516 . S
C682 C683 1.502 . S
C682 C684 1.561 . S
C682 C685 1.526 . S
C683 H667 0.959 . S
C683 H668 0.959 . S
C683 H669 0.961 . S
C683 C682 1.502 . S
C684 H670 0.960 . S
C684 H671 0.961 . S
C684 H672 0.959 . S
C684 C682 1.561 . S
C685 C682 1.526 . S
C685 C686 1.396 . S
C685 C690 1.390 . S
C686 C680 1.465 . S
C686 C685 1.396 . S
C686 C687 1.399 . S
C687 H673 0.929 . S
C687 C686 1.399 . S
C687 C688 1.385 . S
C688 H674 0.931 . S
C688 C687 1.385 . S
C688 C689 1.389 . S
C689 C688 1.389 . S
C689 C690 1.387 . S
C690 H675 0.930 . S
C690 C685 1.390 . S
C690 C689 1.387 . S
H691 C703 0.930 . S
H692 C705 0.930 . S
H693 C706 0.930 . S
H694 C710 0.959 . S
H695 C710 0.959 . S
H696 C710 0.961 . S
H697 C711 0.960 . S
H698 C711 0.961 . S
H699 C711 0.959 . S
H700 C714 0.929 . S
H701 C715 0.931 . S
H702 C717 0.930 . S
C703 H691 0.930 . S
C703 C704 1.399 . S
C703 C708 1.399 . S
C704 C703 1.399 . S
C704 C705 1.376 . S
C705 H692 0.930 . S
C705 C704 1.376 . S
C705 C706 1.388 . S
C706 H693 0.930 . S
C706 C705 1.388 . S
C706 C707 1.390 . S
C707 C706 1.390 . S
C707 C708 1.394 . S
C707 C713 1.465 . S
C708 C703 1.399 . S
C708 C707 1.394 . S
C708 C709 1.516 . S
C709 C708 1.516 . S
C709 C710 1.502 . S
C709 C711 1.561 . S
C709 C712 1.526 . S
C710 H694 0.959 . S
C710 H695 0.959 . S
C710 H696 0.961 . S
C710 C709 1.502 . S
C711 H697 0.960 . S
C711 H698 0.961 . S
C711 H699 0.959 . S
C711 C709 1.561 . S
C712 C709 1.526 . S
C712 C713 1.396 . S
C712 C717 1.390 . S
C713 C707 1.465 . S
C713 C712 1.396 . S
C713 C714 1.399 . S
C714 H700 0.929 . S
C714 C713 1.399 . S
C714 C715 1.385 . S
C715 H701 0.931 . S
C715 C714 1.385 . S
C715 C716 1.389 . S
C716 C715 1.389 . S
C716 C717 1.387 . S
C717 H702 0.930 . S
C717 C712 1.390 . S
C717 C716 1.387 . S
H718 C730 0.930 . S
H719 C732 0.930 . S
H720 C733 0.930 . S
H721 C737 0.959 . S
H722 C737 0.959 . S
H723 C737 0.961 . S
H724 C738 0.960 . S
H725 C738 0.961 . S
H726 C738 0.959 . S
H727 C741 0.929 . S
H728 C742 0.931 . S
H729 C744 0.930 . S
C730 H718 0.930 . S
C730 C731 1.399 . S
C730 C735 1.399 . S
C731 C730 1.399 . S
C731 C732 1.376 . S
C732 H719 0.930 . S
C732 C731 1.376 . S
C732 C733 1.388 . S
C733 H720 0.930 . S
C733 C732 1.388 . S
C733 C734 1.390 . S
C734 C733 1.390 . S
C734 C735 1.394 . S
C734 C740 1.465 . S
C735 C730 1.399 . S
C735 C734 1.394 . S
C735 C736 1.516 . S
C736 C735 1.516 . S
C736 C737 1.502 . S
C736 C738 1.561 . S
C736 C739 1.526 . S
C737 H721 0.959 . S
C737 H722 0.959 . S
C737 H723 0.961 . S
C737 C736 1.502 . S
C738 H724 0.960 . S
C738 H725 0.961 . S
C738 H726 0.959 . S
C738 C736 1.561 . S
C739 C736 1.526 . S
C739 C740 1.396 . S
C739 C744 1.390 . S
C740 C734 1.465 . S
C740 C739 1.396 . S
C740 C741 1.399 . S
C741 H727 0.929 . S
C741 C740 1.399 . S
C741 C742 1.385 . S
C742 H728 0.931 . S
C742 C741 1.385 . S
C742 C743 1.389 . S
C743 C742 1.389 . S
C743 C744 1.387 . S
C744 H729 0.930 . S
C744 C739 1.390 . S
C744 C743 1.387 . S
H745 C757 0.930 . S
H746 C759 0.930 . S
H747 C760 0.930 . S
H748 C764 0.959 . S
H749 C764 0.959 . S
H750 C764 0.961 . S
H751 C765 0.960 . S
H752 C765 0.961 . S
H753 C765 0.959 . S
H754 C768 0.929 . S
H755 C769 0.931 . S
H756 C771 0.930 . S
C757 H745 0.930 . S
C757 C758 1.399 . S
C757 C762 1.399 . S
C758 C757 1.399 . S
C758 C759 1.376 . S
C759 H746 0.930 . S
C759 C758 1.376 . S
C759 C760 1.388 . S
C760 H747 0.930 . S
C760 C759 1.388 . S
C760 C761 1.390 . S
C761 C760 1.390 . S
C761 C762 1.394 . S
C761 C767 1.465 . S
C762 C757 1.399 . S
C762 C761 1.394 . S
C762 C763 1.516 . S
C763 C762 1.516 . S
C763 C764 1.502 . S
C763 C765 1.561 . S
C763 C766 1.526 . S
C764 H748 0.959 . S
C764 H749 0.959 . S
C764 H750 0.961 . S
C764 C763 1.502 . S
C765 H751 0.960 . S
C765 H752 0.961 . S
C765 H753 0.959 . S
C765 C763 1.561 . S
C766 C763 1.526 . S
C766 C767 1.396 . S
C766 C771 1.390 . S
C767 C761 1.465 . S
C767 C766 1.396 . S
C767 C768 1.399 . S
C768 H754 0.929 . S
C768 C767 1.399 . S
C768 C769 1.385 . S
C769 H755 0.931 . S
C769 C768 1.385 . S
C769 C770 1.389 . S
C770 C769 1.389 . S
C770 C771 1.387 . S
C771 H756 0.930 . S
C771 C766 1.390 . S
C771 C770 1.387 . S
H772 C784 0.930 . S
H773 C786 0.930 . S
H774 C787 0.930 . S
H775 C791 0.959 . S
H776 C791 0.959 . S
H777 C791 0.961 . S
H778 C792 0.960 . S
H779 C792 0.961 . S
H780 C792 0.959 . S
H781 C795 0.929 . S
H782 C796 0.931 . S
H783 C798 0.930 . S
C784 H772 0.930 . S
C784 C785 1.399 . S
C784 C789 1.399 . S
C785 C784 1.399 . S
C785 C786 1.376 . S
C786 H773 0.930 . S
C786 C785 1.376 . S
C786 C787 1.388 . S
C787 H774 0.930 . S
C787 C786 1.388 . S
C787 C788 1.390 . S
C788 C787 1.390 . S
C788 C789 1.394 . S
C788 C794 1.465 . S
C789 C784 1.399 . S
C789 C788 1.394 . S
C789 C790 1.516 . S
C790 C789 1.516 . S
C790 C791 1.502 . S
C790 C792 1.561 . S
C790 C793 1.526 . S
C791 H775 0.959 . S
C791 H776 0.959 . S
C791 H777 0.961 . S
C791 C790 1.502 . S
C792 H778 0.960 . S
C792 H779 0.961 . S
C792 H780 0.959 . S
C792 C790 1.561 . S
C793 C790 1.526 . S
C793 C794 1.396 . S
C793 C798 1.390 . S
C794 C788 1.465 . S
C794 C793 1.396 . S
C794 C795 1.399 . S
C795 H781 0.929 . S
C795 C794 1.399 . S
C795 C796 1.385 . S
C796 H782 0.931 . S
C796 C795 1.385 . S
C796 C797 1.389 . S
C797 C796 1.389 . S
C797 C798 1.387 . S
C798 H783 0.930 . S
C798 C793 1.390 . S
C798 C797 1.387 . S
H799 C811 0.930 . S
H800 C813 0.930 . S
H801 C814 0.930 . S
H802 C818 0.959 . S
H803 C818 0.959 . S
H804 C818 0.961 . S
H805 C819 0.960 . S
H806 C819 0.961 . S
H807 C819 0.959 . S
H808 C822 0.929 . S
H809 C823 0.931 . S
H810 C825 0.930 . S
C811 H799 0.930 . S
C811 C812 1.399 . S
C811 C816 1.399 . S
C812 C811 1.399 . S
C812 C813 1.376 . S
C813 H800 0.930 . S
C813 C812 1.376 . S
C813 C814 1.388 . S
C814 H801 0.930 . S
C814 C813 1.388 . S
C814 C815 1.390 . S
C815 C814 1.390 . S
C815 C816 1.394 . S
C815 C821 1.465 . S
C816 C811 1.399 . S
C816 C815 1.394 . S
C816 C817 1.516 . S
C817 C816 1.516 . S
C817 C818 1.502 . S
C817 C819 1.561 . S
C817 C820 1.526 . S
C818 H802 0.959 . S
C818 H803 0.959 . S
C818 H804 0.961 . S
C818 C817 1.502 . S
C819 H805 0.960 . S
C819 H806 0.961 . S
C819 H807 0.959 . S
C819 C817 1.561 . S
C820 C817 1.526 . S
C820 C821 1.396 . S
C820 C825 1.390 . S
C821 C815 1.465 . S
C821 C820 1.396 . S
C821 C822 1.399 . S
C822 H808 0.929 . S
C822 C821 1.399 . S
C822 C823 1.385 . S
C823 H809 0.931 . S
C823 C822 1.385 . S
C823 C824 1.389 . S
C824 C823 1.389 . S
C824 C825 1.387 . S
C825 H810 0.930 . S
C825 C820 1.390 . S
C825 C824 1.387 . S
H826 C838 0.930 . S
H827 C840 0.930 . S
H828 C841 0.930 . S
H829 C845 0.959 . S
H830 C845 0.959 . S
H831 C845 0.961 . S
H832 C846 0.960 . S
H833 C846 0.961 . S
H834 C846 0.959 . S
H835 C849 0.929 . S
H836 C850 0.931 . S
H837 C852 0.930 . S
C838 H826 0.930 . S
C838 C839 1.399 . S
C838 C843 1.399 . S
C839 C838 1.399 . S
C839 C840 1.376 . S
C840 H827 0.930 . S
C840 C839 1.376 . S
C840 C841 1.388 . S
C841 H828 0.930 . S
C841 C840 1.388 . S
C841 C842 1.390 . S
C842 C841 1.390 . S
C842 C843 1.394 . S
C842 C848 1.465 . S
C843 C838 1.399 . S
C843 C842 1.394 . S
C843 C844 1.516 . S
C844 C843 1.516 . S
C844 C845 1.502 . S
C844 C846 1.561 . S
C844 C847 1.526 . S
C845 H829 0.959 . S
C845 H830 0.959 . S
C845 H831 0.961 . S
C845 C844 1.502 . S
C846 H832 0.960 . S
C846 H833 0.961 . S
C846 H834 0.959 . S
C846 C844 1.561 . S
C847 C844 1.526 . S
C847 C848 1.396 . S
C847 C852 1.390 . S
C848 C842 1.465 . S
C848 C847 1.396 . S
C848 C849 1.399 . S
C849 H835 0.929 . S
C849 C848 1.399 . S
C849 C850 1.385 . S
C850 H836 0.931 . S
C850 C849 1.385 . S
C850 C851 1.389 . S
C851 C850 1.389 . S
C851 C852 1.387 . S
C852 H837 0.930 . S
C852 C847 1.390 . S
C852 C851 1.387 . S
H853 C865 0.930 . S
H854 C867 0.930 . S
H855 C868 0.930 . S
H856 C872 0.959 . S
H857 C872 0.959 . S
H858 C872 0.961 . S
H859 C873 0.960 . S
H860 C873 0.961 . S
H861 C873 0.959 . S
H862 C876 0.929 . S
H863 C877 0.931 . S
H864 C879 0.930 . S
C865 H853 0.930 . S
C865 C866 1.399 . S
C865 C870 1.399 . S
C866 C865 1.399 . S
C866 C867 1.376 . S
C867 H854 0.930 . S
C867 C866 1.376 . S
C867 C868 1.388 . S
C868 H855 0.930 . S
C868 C867 1.388 . S
C868 C869 1.390 . S
C869 C868 1.390 . S
C869 C870 1.394 . S
C869 C875 1.465 . S
C870 C865 1.399 . S
C870 C869 1.394 . S
C870 C871 1.516 . S
C871 C870 1.516 . S
C871 C872 1.502 . S
C871 C873 1.561 . S
C871 C874 1.526 . S
C872 H856 0.959 . S
C872 H857 0.959 . S
C872 H858 0.961 . S
C872 C871 1.502 . S
C873 H859 0.960 . S
C873 H860 0.961 . S
C873 H861 0.959 . S
C873 C871 1.561 . S
C874 C871 1.526 . S
C874 C875 1.396 . S
C874 C879 1.390 . S
C875 C869 1.465 . S
C875 C874 1.396 . S
C875 C876 1.399 . S
C876 H862 0.929 . S
C876 C875 1.399 . S
C876 C877 1.385 . S
C877 H863 0.931 . S
C877 C876 1.385 . S
C877 C878 1.389 . S
C878 C877 1.389 . S
C878 C879 1.387 . S
C879 H864 0.930 . S
C879 C874 1.390 . S
C879 C878 1.387 . S
H880 C892 0.930 . S
H881 C894 0.930 . S
H882 C895 0.930 . S
H883 C899 0.959 . S
H884 C899 0.959 1_455 S
H885 C899 0.961 . S
H886 C900 0.960 . S
H887 C900 0.961 1_455 S
H888 C900 0.959 . S
H889 C903 0.929 . S
H890 C904 0.931 . S
H891 C906 0.930 . S
C892 H880 0.930 . S
C892 C893 1.399 . S
C892 C897 1.399 . S
C893 C892 1.399 . S
C893 C894 1.376 . S
C894 H881 0.930 . S
C894 C893 1.376 . S
C894 C895 1.388 . S
C895 H882 0.930 . S
C895 C894 1.388 . S
C895 C896 1.390 . S
C896 C895 1.390 . S
C896 C897 1.394 . S
C896 C902 1.465 1_655 S
C897 C892 1.399 . S
C897 C896 1.394 . S
C897 C898 1.516 . S
C898 C897 1.516 . S
C898 C899 1.502 . S
C898 C900 1.561 . S
C898 C901 1.526 1_655 S
C899 H883 0.959 . S
C899 H884 0.959 1_655 S
C899 H885 0.961 . S
C899 C898 1.502 . S
C900 H886 0.960 . S
C900 H887 0.961 1_655 S
C900 H888 0.959 . S
C900 C898 1.561 . S
C901 C898 1.526 1_455 S
C901 C902 1.396 . S
C901 C906 1.390 . S
C902 C896 1.465 1_455 S
C902 C901 1.396 . S
C902 C903 1.399 . S
C903 H889 0.929 . S
C903 C902 1.399 . S
C903 C904 1.385 . S
C904 H890 0.931 . S
C904 C903 1.385 . S
C904 C905 1.389 . S
C905 C904 1.389 . S
C905 C906 1.387 . S
C906 H891 0.930 . S
C906 C901 1.390 . S
C906 C905 1.387 . S
H907 C919 0.930 . S
H908 C921 0.930 . S
H909 C922 0.930 . S
H910 C926 0.959 . S
H911 C926 0.959 1_565 S
H912 C926 0.961 . S
H913 C927 0.960 . S
H914 C927 0.961 . S
H915 C927 0.959 . S
H916 C930 0.929 . S
H917 C931 0.931 . S
H918 C933 0.930 . S
C919 H907 0.930 . S
C919 C920 1.399 . S
C919 C924 1.399 . S
C920 C919 1.399 . S
C920 C921 1.376 . S
C921 H908 0.930 . S
C921 C920 1.376 . S
C921 C922 1.388 . S
C922 H909 0.930 . S
C922 C921 1.388 . S
C922 C923 1.390 . S
C923 C922 1.390 . S
C923 C924 1.394 . S
C923 C929 1.465 1_545 S
C924 C919 1.399 . S
C924 C923 1.394 . S
C924 C925 1.516 . S
C925 C924 1.516 . S
C925 C926 1.502 . S
C925 C927 1.561 . S
C925 C928 1.526 1_545 S
C926 H910 0.959 . S
C926 H911 0.959 1_545 S
C926 H912 0.961 . S
C926 C925 1.502 . S
C927 H913 0.960 . S
C927 H914 0.961 . S
C927 H915 0.959 . S
C927 C925 1.561 . S
C928 C925 1.526 1_565 S
C928 C929 1.396 . S
C928 C933 1.390 . S
C929 C923 1.465 1_565 S
C929 C928 1.396 . S
C929 C930 1.399 . S
C930 H916 0.929 . S
C930 C929 1.399 . S
C930 C931 1.385 . S
C931 H917 0.931 . S
C931 C930 1.385 . S
C931 C932 1.389 . S
C932 C931 1.389 . S
C932 C933 1.387 . S
C933 H918 0.930 . S
C933 C928 1.390 . S
C933 C932 1.387 . S
H934 C946 0.930 . S
H935 C948 0.930 . S
H936 C949 0.930 . S
H937 C953 0.959 . S
H938 C953 0.959 1_655 S
H939 C953 0.961 . S
H940 C954 0.960 . S
H941 C954 0.961 1_655 S
H942 C954 0.959 . S
H943 C957 0.929 . S
H944 C958 0.931 . S
H945 C960 0.930 . S
C946 H934 0.930 . S
C946 C947 1.399 . S
C946 C951 1.399 . S
C947 C946 1.399 . S
C947 C948 1.376 . S
C948 H935 0.930 . S
C948 C947 1.376 . S
C948 C949 1.388 . S
C949 H936 0.930 . S
C949 C948 1.388 . S
C949 C950 1.390 . S
C950 C949 1.390 . S
C950 C951 1.394 . S
C950 C956 1.465 1_455 S
C951 C946 1.399 . S
C951 C950 1.394 . S
C951 C952 1.516 . S
C952 C951 1.516 . S
C952 C953 1.502 . S
C952 C954 1.561 . S
C952 C955 1.526 1_455 S
C953 H937 0.959 . S
C953 H938 0.959 1_455 S
C953 H939 0.961 . S
C953 C952 1.502 . S
C954 H940 0.960 . S
C954 H941 0.961 1_455 S
C954 H942 0.959 . S
C954 C952 1.561 . S
C955 C952 1.526 1_655 S
C955 C956 1.396 . S
C955 C960 1.390 . S
C956 C950 1.465 1_655 S
C956 C955 1.396 . S
C956 C957 1.399 . S
C957 H943 0.929 . S
C957 C956 1.399 . S
C957 C958 1.385 . S
C958 H944 0.931 . S
C958 C957 1.385 . S
C958 C959 1.389 . S
C959 C958 1.389 . S
C959 C960 1.387 . S
C960 H945 0.930 . S
C960 C955 1.390 . S
C960 C959 1.387 . S
H961 C973 0.930 . S
H962 C975 0.930 . S
H963 C976 0.930 . S
H964 C980 0.959 . S
H965 C980 0.959 1_545 S
H966 C980 0.961 . S
H967 C981 0.956 1_565 S
H968 C981 0.966 . S
H969 C981 0.960 . S
H970 C984 0.929 . S
H971 C985 0.931 . S
H972 C987 0.930 . S
C973 H961 0.930 . S
C973 C974 1.399 . S
C973 C978 1.399 . S
C974 C973 1.399 . S
C974 C975 1.376 . S
C975 H962 0.930 . S
C975 C974 1.376 . S
C975 C976 1.388 . S
C976 H963 0.930 . S
C976 C975 1.388 . S
C976 C977 1.390 . S
C977 C976 1.390 . S
C977 C978 1.394 . S
C977 C983 1.465 1_565 S
C978 C973 1.399 . S
C978 C977 1.394 . S
C978 C979 1.516 . S
C979 C978 1.516 . S
C979 C980 1.502 . S
C979 C981 1.560 1_565 S
C979 C982 1.526 1_565 S
C980 H964 0.959 . S
C980 H965 0.959 1_565 S
C980 H966 0.961 . S
C980 C979 1.502 . S
C981 H967 0.956 1_545 S
C981 H968 0.966 . S
C981 H969 0.960 . S
C981 C979 1.560 1_545 S
C982 C979 1.526 1_545 S
C982 C983 1.396 . S
C982 C987 1.390 . S
C983 C977 1.465 1_545 S
C983 C982 1.396 . S
C983 C984 1.399 . S
C984 H970 0.929 . S
C984 C983 1.399 . S
C984 C985 1.385 . S
C985 H971 0.931 . S
C985 C984 1.385 . S
C985 C986 1.389 . S
C986 C985 1.389 . S
C986 C987 1.387 . S
C987 H972 0.930 . S
C987 C982 1.390 . S
C987 C986 1.387 . S
H988 C1000 0.930 . S
H989 C1002 0.930 . S
H990 C1003 0.930 . S
H991 C1007 0.959 . S
H992 C1007 0.959 . S
H993 C1007 0.961 1_455 S
H994 C1008 0.960 1_455 S
H995 C1008 0.961 . S
H996 C1008 0.959 . S
H997 C1011 0.929 . S
H998 C1012 0.931 . S
H999 C1014 0.930 . S
C1000 H988 0.930 . S
C1000 C1001 1.399 . S
C1000 C1005 1.399 . S
C1001 C1000 1.399 . S
C1001 C1002 1.376 . S
C1002 H989 0.930 . S
C1002 C1001 1.376 . S
C1002 C1003 1.388 . S
C1003 H990 0.930 . S
C1003 C1002 1.388 . S
C1003 C1004 1.390 . S
C1004 C1003 1.390 . S
C1004 C1005 1.394 . S
C1004 C1010 1.465 1_455 S
C1005 C1000 1.399 . S
C1005 C1004 1.394 . S
C1005 C1006 1.516 1_455 S
C1006 C1005 1.516 1_655 S
C1006 C1007 1.502 . S
C1006 C1008 1.561 . S
C1006 C1009 1.526 . S
C1007 H991 0.959 . S
C1007 H992 0.959 . S
C1007 H993 0.961 1_655 S
C1007 C1006 1.502 . S
C1008 H994 0.960 1_655 S
C1008 H995 0.961 . S
C1008 H996 0.959 . S
C1008 C1006 1.561 . S
C1009 C1006 1.526 . S
C1009 C1010 1.396 . S
C1009 C1014 1.390 . S
C1010 C1004 1.465 1_655 S
C1010 C1009 1.396 . S
C1010 C1011 1.399 . S
C1011 H997 0.929 . S
C1011 C1010 1.399 . S
C1011 C1012 1.385 . S
C1012 H998 0.931 . S
C1012 C1011 1.385 . S
C1012 C1013 1.389 . S
C1013 C1012 1.389 . S
C1013 C1014 1.387 . S
C1014 H999 0.930 . S
C1014 C1009 1.390 . S
C1014 C1013 1.387 . S
H1015 C1027 0.930 . S
H1016 C1029 0.930 . S
H1017 C1030 0.930 . S
H1018 C1034 0.959 . S
H1019 C1034 0.959 . S
H1020 C1034 0.973 . S
H1021 C1035 0.960 . S
H1022 C1035 0.961 . S
H1023 C1035 0.959 . S
H1024 C1038 0.929 . S
H1025 C1039 0.931 . S
H1026 C1041 0.930 . S
C1027 H1015 0.930 . S
C1027 C1028 1.399 . S
C1027 C1032 1.399 . S
C1028 C1027 1.399 . S
C1028 C1029 1.376 . S
C1029 H1016 0.930 . S
C1029 C1028 1.376 . S
C1029 C1030 1.388 . S
C1030 H1017 0.930 . S
C1030 C1029 1.388 . S
C1030 C1031 1.390 . S
C1031 C1030 1.390 . S
C1031 C1032 1.394 . S
C1031 C1037 1.465 1_565 S
C1032 C1027 1.399 . S
C1032 C1031 1.394 . S
C1032 C1033 1.516 1_565 S
C1033 C1032 1.516 1_545 S
C1033 C1034 1.502 . S
C1033 C1035 1.561 . S
C1033 C1036 1.526 . S
C1034 H1018 0.959 . S
C1034 H1019 0.959 . S
C1034 H1020 0.973 . S
C1034 C1033 1.502 . S
C1035 H1021 0.960 . S
C1035 H1022 0.961 . S
C1035 H1023 0.959 . S
C1035 C1033 1.561 . S
C1036 C1033 1.526 . S
C1036 C1037 1.396 . S
C1036 C1041 1.390 . S
C1037 C1031 1.465 1_545 S
C1037 C1036 1.396 . S
C1037 C1038 1.399 . S
C1038 H1024 0.929 . S
C1038 C1037 1.399 . S
C1038 C1039 1.385 . S
C1039 H1025 0.931 . S
C1039 C1038 1.385 . S
C1039 C1040 1.389 . S
C1040 C1039 1.389 . S
C1040 C1041 1.387 . S
C1041 H1026 0.930 . S
C1041 C1036 1.390 . S
C1041 C1040 1.387 . S
H1042 C1054 0.930 . S
H1043 C1056 0.930 . S
H1044 C1057 0.930 . S
H1045 C1061 0.959 . S
H1046 C1061 0.959 1_655 S
H1047 C1061 0.961 . S
H1048 C1062 0.960 . S
H1049 C1062 0.961 1_655 S
H1050 C1062 0.959 . S
H1051 C1065 0.929 . S
H1052 C1066 0.931 . S
H1053 C1068 0.930 . S
C1054 H1042 0.930 . S
C1054 C1055 1.399 . S
C1054 C1059 1.399 . S
C1055 C1054 1.399 . S
C1055 C1056 1.376 . S
C1056 H1043 0.930 . S
C1056 C1055 1.376 . S
C1056 C1057 1.388 . S
C1057 H1044 0.930 . S
C1057 C1056 1.388 . S
C1057 C1058 1.390 . S
C1058 C1057 1.390 . S
C1058 C1059 1.394 . S
C1058 C1064 1.465 1_455 S
C1059 C1054 1.399 . S
C1059 C1058 1.394 . S
C1059 C1060 1.516 . S
C1060 C1059 1.516 . S
C1060 C1061 1.502 . S
C1060 C1062 1.561 . S
C1060 C1063 1.526 1_455 S
C1061 H1045 0.959 . S
C1061 H1046 0.959 1_455 S
C1061 H1047 0.961 . S
C1061 C1060 1.502 . S
C1062 H1048 0.960 . S
C1062 H1049 0.961 1_455 S
C1062 H1050 0.959 . S
C1062 C1060 1.561 . S
C1063 C1060 1.526 1_655 S
C1063 C1064 1.396 . S
C1063 C1068 1.390 . S
C1064 C1058 1.465 1_655 S
C1064 C1063 1.396 . S
C1064 C1065 1.399 . S
C1065 H1051 0.929 . S
C1065 C1064 1.399 . S
C1065 C1066 1.385 . S
C1066 H1052 0.931 . S
C1066 C1065 1.385 . S
C1066 C1067 1.389 . S
C1067 C1066 1.389 . S
C1067 C1068 1.387 . S
C1068 H1053 0.930 . S
C1068 C1063 1.390 . S
C1068 C1067 1.387 . S
H1069 C1081 0.930 . S
H1070 C1083 0.930 . S
H1071 C1084 0.930 . S
H1072 C1088 0.959 . S
H1073 C1088 0.959 . S
H1074 C1088 0.961 . S
H1075 C1089 0.960 . S
H1076 C1089 0.961 . S
H1077 C1089 0.959 . S
H1078 C1092 0.929 . S
H1079 C1093 0.931 . S
H1080 C1095 0.930 . S
C1081 H1069 0.930 . S
C1081 C1082 1.399 . S
C1081 C1086 1.399 . S
C1082 C1081 1.399 . S
C1082 C1083 1.376 . S
C1083 H1070 0.930 . S
C1083 C1082 1.376 . S
C1083 C1084 1.388 . S
C1084 H1071 0.930 . S
C1084 C1083 1.388 . S
C1084 C1085 1.390 . S
C1085 C1084 1.390 . S
C1085 C1086 1.394 . S
C1085 C1091 1.465 1_545 S
C1086 C1081 1.399 . S
C1086 C1085 1.394 . S
C1086 C1087 1.516 1_545 S
C1087 C1086 1.516 1_565 S
C1087 C1088 1.502 . S
C1087 C1089 1.561 . S
C1087 C1090 1.526 . S
C1088 H1072 0.959 . S
C1088 H1073 0.959 . S
C1088 H1074 0.961 . S
C1088 C1087 1.502 . S
C1089 H1075 0.960 . S
C1089 H1076 0.961 . S
C1089 H1077 0.959 . S
C1089 C1087 1.561 . S
C1090 C1087 1.526 . S
C1090 C1091 1.396 . S
C1090 C1095 1.390 . S
C1091 C1085 1.465 1_565 S
C1091 C1090 1.396 . S
C1091 C1092 1.399 . S
C1092 H1078 0.929 . S
C1092 C1091 1.399 . S
C1092 C1093 1.385 . S
C1093 H1079 0.931 . S
C1093 C1092 1.385 . S
C1093 C1094 1.389 . S
C1094 C1093 1.389 . S
C1094 C1095 1.387 . S
C1095 H1080 0.930 . S
C1095 C1090 1.390 . S
C1095 C1094 1.387 . S
H1096 C1108 0.930 . S
H1097 C1110 0.930 . S
H1098 C1111 0.930 . S
H1099 C1115 0.959 . S
H1100 C1115 0.959 . S
H1101 C1115 0.961 . S
H1102 C1116 0.960 . S
H1103 C1116 0.961 . S
H1104 C1116 0.959 . S
H1105 C1119 0.929 . S
H1106 C1120 0.931 . S
H1107 C1122 0.930 . S
C1108 H1096 0.930 . S
C1108 C1109 1.399 . S
C1108 C1113 1.399 . S
C1109 C1108 1.399 . S
C1109 C1110 1.376 . S
C1110 H1097 0.930 . S
C1110 C1109 1.376 . S
C1110 C1111 1.388 . S
C1111 H1098 0.930 . S
C1111 C1110 1.388 . S
C1111 C1112 1.390 . S
C1112 C1111 1.390 . S
C1112 C1113 1.394 . S
C1112 C1118 1.465 . S
C1113 C1108 1.399 . S
C1113 C1112 1.394 . S
C1113 C1114 1.516 . S
C1114 C1113 1.516 . S
C1114 C1115 1.502 . S
C1114 C1116 1.561 . S
C1114 C1117 1.526 . S
C1115 H1099 0.959 . S
C1115 H1100 0.959 . S
C1115 H1101 0.961 . S
C1115 C1114 1.502 . S
C1116 H1102 0.960 . S
C1116 H1103 0.961 . S
C1116 H1104 0.959 . S
C1116 C1114 1.561 . S
C1117 C1114 1.526 . S
C1117 C1118 1.396 . S
C1117 C1122 1.390 . S
C1118 C1112 1.465 . S
C1118 C1117 1.396 . S
C1118 C1119 1.399 . S
C1119 H1105 0.929 . S
C1119 C1118 1.399 . S
C1119 C1120 1.385 . S
C1120 H1106 0.931 . S
C1120 C1119 1.385 . S
C1120 C1121 1.389 . S
C1121 C1120 1.389 . S
C1121 C1122 1.387 . S
C1122 H1107 0.930 . S
C1122 C1117 1.390 . S
C1122 C1121 1.387 . S
H1123 C1135 0.930 . S
H1124 C1137 0.930 . S
H1125 C1138 0.930 . S
H1126 C1142 0.959 . S
H1127 C1142 0.959 . S
H1128 C1142 0.961 . S
H1129 C1143 0.960 . S
H1130 C1143 0.961 . S
H1131 C1143 0.959 . S
H1132 C1146 0.929 . S
H1133 C1147 0.931 . S
H1134 C1149 0.930 . S
C1135 H1123 0.930 . S
C1135 C1136 1.399 . S
C1135 C1140 1.399 . S
C1136 C1135 1.399 . S
C1136 C1137 1.376 . S
C1137 H1124 0.930 . S
C1137 C1136 1.376 . S
C1137 C1138 1.388 . S
C1138 H1125 0.930 . S
C1138 C1137 1.388 . S
C1138 C1139 1.390 . S
C1139 C1138 1.390 . S
C1139 C1140 1.394 . S
C1139 C1145 1.465 . S
C1140 C1135 1.399 . S
C1140 C1139 1.394 . S
C1140 C1141 1.516 . S
C1141 C1140 1.516 . S
C1141 C1142 1.502 . S
C1141 C1143 1.561 . S
C1141 C1144 1.526 . S
C1142 H1126 0.959 . S
C1142 H1127 0.959 . S
C1142 H1128 0.961 . S
C1142 C1141 1.502 . S
C1143 H1129 0.960 . S
C1143 H1130 0.961 . S
C1143 H1131 0.959 . S
C1143 C1141 1.561 . S
C1144 C1141 1.526 . S
C1144 C1145 1.396 . S
C1144 C1149 1.390 . S
C1145 C1139 1.465 . S
C1145 C1144 1.396 . S
C1145 C1146 1.399 . S
C1146 H1132 0.929 . S
C1146 C1145 1.399 . S
C1146 C1147 1.385 . S
C1147 H1133 0.931 . S
C1147 C1146 1.385 . S
C1147 C1148 1.389 . S
C1148 C1147 1.389 . S
C1148 C1149 1.387 . S
C1149 H1134 0.930 . S
C1149 C1144 1.390 . S
C1149 C1148 1.387 . S
H1150 C1162 0.930 . S
H1151 C1164 0.930 . S
H1152 C1165 0.930 . S
H1153 C1169 0.959 . S
H1154 C1169 0.959 . S
H1155 C1169 0.961 . S
H1156 C1170 0.960 . S
H1157 C1170 0.961 . S
H1158 C1170 0.959 . S
H1159 C1173 0.929 . S
H1160 C1174 0.931 . S
H1161 C1176 0.930 . S
C1162 H1150 0.930 . S
C1162 C1163 1.399 . S
C1162 C1167 1.399 . S
C1163 C1162 1.399 . S
C1163 C1164 1.376 . S
C1164 H1151 0.930 . S
C1164 C1163 1.376 . S
C1164 C1165 1.388 . S
C1165 H1152 0.930 . S
C1165 C1164 1.388 . S
C1165 C1166 1.390 . S
C1166 C1165 1.390 . S
C1166 C1167 1.394 . S
C1166 C1172 1.465 . S
C1167 C1162 1.399 . S
C1167 C1166 1.394 . S
C1167 C1168 1.516 . S
C1168 C1167 1.516 . S
C1168 C1169 1.502 . S
C1168 C1170 1.561 . S
C1168 C1171 1.526 . S
C1169 H1153 0.959 . S
C1169 H1154 0.959 . S
C1169 H1155 0.961 . S
C1169 C1168 1.502 . S
C1170 H1156 0.960 . S
C1170 H1157 0.961 . S
C1170 H1158 0.959 . S
C1170 C1168 1.561 . S
C1171 C1168 1.526 . S
C1171 C1172 1.396 . S
C1171 C1176 1.390 . S
C1172 C1166 1.465 . S
C1172 C1171 1.396 . S
C1172 C1173 1.399 . S
C1173 H1159 0.929 . S
C1173 C1172 1.399 . S
C1173 C1174 1.385 . S
C1174 H1160 0.931 . S
C1174 C1173 1.385 . S
C1174 C1175 1.389 . S
C1175 C1174 1.389 . S
C1175 C1176 1.387 . S
C1176 H1161 0.930 . S
C1176 C1171 1.390 . S
C1176 C1175 1.387 . S
H1177 C1189 0.930 . S
H1178 C1191 0.930 . S
H1179 C1192 0.930 . S
H1180 C1196 0.959 . S
H1181 C1196 0.959 . S
H1182 C1196 0.961 . S
H1183 C1197 0.960 . S
H1184 C1197 0.961 . S
H1185 C1197 0.959 . S
H1186 C1200 0.929 . S
H1187 C1201 0.931 . S
H1188 C1203 0.930 . S
C1189 H1177 0.930 . S
C1189 C1190 1.399 . S
C1189 C1194 1.399 . S
C1190 C1189 1.399 . S
C1190 C1191 1.376 . S
C1191 H1178 0.930 . S
C1191 C1190 1.376 . S
C1191 C1192 1.388 . S
C1192 H1179 0.930 . S
C1192 C1191 1.388 . S
C1192 C1193 1.390 . S
C1193 C1192 1.390 . S
C1193 C1194 1.394 . S
C1193 C1199 1.465 . S
C1194 C1189 1.399 . S
C1194 C1193 1.394 . S
C1194 C1195 1.516 . S
C1195 C1194 1.516 . S
C1195 C1196 1.502 . S
C1195 C1197 1.561 . S
C1195 C1198 1.526 . S
C1196 H1180 0.959 . S
C1196 H1181 0.959 . S
C1196 H1182 0.961 . S
C1196 C1195 1.502 . S
C1197 H1183 0.960 . S
C1197 H1184 0.961 . S
C1197 H1185 0.959 . S
C1197 C1195 1.561 . S
C1198 C1195 1.526 . S
C1198 C1199 1.396 . S
C1198 C1203 1.390 . S
C1199 C1193 1.465 . S
C1199 C1198 1.396 . S
C1199 C1200 1.399 . S
C1200 H1186 0.929 . S
C1200 C1199 1.399 . S
C1200 C1201 1.385 . S
C1201 H1187 0.931 . S
C1201 C1200 1.385 . S
C1201 C1202 1.389 . S
C1202 C1201 1.389 . S
C1202 C1203 1.387 . S
C1203 H1188 0.930 . S
C1203 C1198 1.390 . S
C1203 C1202 1.387 . S
H1204 C1216 0.930 . S
H1205 C1218 0.930 . S
H1206 C1219 0.930 . S
H1207 C1223 0.959 . S
H1208 C1223 0.959 . S
H1209 C1223 0.961 . S
H1210 C1224 0.960 . S
H1211 C1224 0.961 . S
H1212 C1224 0.959 . S
H1213 C1227 0.929 . S
H1214 C1228 0.931 . S
H1215 C1230 0.930 . S
C1216 H1204 0.930 . S
C1216 C1217 1.399 . S
C1216 C1221 1.399 . S
C1217 C1216 1.399 . S
C1217 C1218 1.376 . S
C1218 H1205 0.930 . S
C1218 C1217 1.376 . S
C1218 C1219 1.388 . S
C1219 H1206 0.930 . S
C1219 C1218 1.388 . S
C1219 C1220 1.390 . S
C1220 C1219 1.390 . S
C1220 C1221 1.394 . S
C1220 C1226 1.465 . S
C1221 C1216 1.399 . S
C1221 C1220 1.394 . S
C1221 C1222 1.516 . S
C1222 C1221 1.516 . S
C1222 C1223 1.502 . S
C1222 C1224 1.561 . S
C1222 C1225 1.526 . S
C1223 H1207 0.959 . S
C1223 H1208 0.959 . S
C1223 H1209 0.961 . S
C1223 C1222 1.502 . S
C1224 H1210 0.960 . S
C1224 H1211 0.961 . S
C1224 H1212 0.959 . S
C1224 C1222 1.561 . S
C1225 C1222 1.526 . S
C1225 C1226 1.396 . S
C1225 C1230 1.390 . S
C1226 C1220 1.465 . S
C1226 C1225 1.396 . S
C1226 C1227 1.399 . S
C1227 H1213 0.929 . S
C1227 C1226 1.399 . S
C1227 C1228 1.385 . S
C1228 H1214 0.931 . S
C1228 C1227 1.385 . S
C1228 C1229 1.389 . S
C1229 C1228 1.389 . S
C1229 C1230 1.387 . S
C1230 H1215 0.930 . S
C1230 C1225 1.390 . S
C1230 C1229 1.387 . S
H1231 C1243 0.930 . S
H1232 C1245 0.930 . S
H1233 C1246 0.930 . S
H1234 C1250 0.959 . S
H1235 C1250 0.959 . S
H1236 C1250 0.961 . S
H1237 C1251 0.960 . S
H1238 C1251 0.961 . S
H1239 C1251 0.959 . S
H1240 C1254 0.929 . S
H1241 C1255 0.931 . S
H1242 C1257 0.930 . S
C1243 H1231 0.930 . S
C1243 C1244 1.399 . S
C1243 C1248 1.399 . S
C1244 C1243 1.399 . S
C1244 C1245 1.376 . S
C1245 H1232 0.930 . S
C1245 C1244 1.376 . S
C1245 C1246 1.388 . S
C1246 H1233 0.930 . S
C1246 C1245 1.388 . S
C1246 C1247 1.390 . S
C1247 C1246 1.390 . S
C1247 C1248 1.394 . S
C1247 C1253 1.465 . S
C1248 C1243 1.399 . S
C1248 C1247 1.394 . S
C1248 C1249 1.516 . S
C1249 C1248 1.516 . S
C1249 C1250 1.502 . S
C1249 C1251 1.561 . S
C1249 C1252 1.526 . S
C1250 H1234 0.959 . S
C1250 H1235 0.959 . S
C1250 H1236 0.961 . S
C1250 C1249 1.502 . S
C1251 H1237 0.960 . S
C1251 H1238 0.961 . S
C1251 H1239 0.959 . S
C1251 C1249 1.561 . S
C1252 C1249 1.526 . S
C1252 C1253 1.396 . S
C1252 C1257 1.390 . S
C1253 C1247 1.465 . S
C1253 C1252 1.396 . S
C1253 C1254 1.399 . S
C1254 H1240 0.929 . S
C1254 C1253 1.399 . S
C1254 C1255 1.385 . S
C1255 H1241 0.931 . S
C1255 C1254 1.385 . S
C1255 C1256 1.389 . S
C1256 C1255 1.389 . S
C1256 C1257 1.387 . S
C1257 H1242 0.930 . S
C1257 C1252 1.390 . S
C1257 C1256 1.387 . S
H1258 C1270 0.930 . S
H1259 C1272 0.930 . S
H1260 C1273 0.930 . S
H1261 C1277 0.959 . S
H1262 C1277 0.959 . S
H1263 C1277 0.961 . S
H1264 C1278 0.960 . S
H1265 C1278 0.961 . S
H1266 C1278 0.959 . S
H1267 C1281 0.929 . S
H1268 C1282 0.931 . S
H1269 C1284 0.930 . S
C1270 H1258 0.930 . S
C1270 C1271 1.399 . S
C1270 C1275 1.399 . S
C1271 C1270 1.399 . S
C1271 C1272 1.376 . S
C1272 H1259 0.930 . S
C1272 C1271 1.376 . S
C1272 C1273 1.388 . S
C1273 H1260 0.930 . S
C1273 C1272 1.388 . S
C1273 C1274 1.390 . S
C1274 C1273 1.390 . S
C1274 C1275 1.394 . S
C1274 C1280 1.465 . S
C1275 C1270 1.399 . S
C1275 C1274 1.394 . S
C1275 C1276 1.516 . S
C1276 C1275 1.516 . S
C1276 C1277 1.502 . S
C1276 C1278 1.561 . S
C1276 C1279 1.526 . S
C1277 H1261 0.959 . S
C1277 H1262 0.959 . S
C1277 H1263 0.961 . S
C1277 C1276 1.502 . S
C1278 H1264 0.960 . S
C1278 H1265 0.961 . S
C1278 H1266 0.959 . S
C1278 C1276 1.561 . S
C1279 C1276 1.526 . S
C1279 C1280 1.396 . S
C1279 C1284 1.390 . S
C1280 C1274 1.465 . S
C1280 C1279 1.396 . S
C1280 C1281 1.399 . S
C1281 H1267 0.929 . S
C1281 C1280 1.399 . S
C1281 C1282 1.385 . S
C1282 H1268 0.931 . S
C1282 C1281 1.385 . S
C1282 C1283 1.389 . S
C1283 C1282 1.389 . S
C1283 C1284 1.387 . S
C1284 H1269 0.930 . S
C1284 C1279 1.390 . S
C1284 C1283 1.387 . S
H1285 C1297 0.930 . S
H1286 C1299 0.930 . S
H1287 C1300 0.930 . S
H1288 C1304 0.959 . S
H1289 C1304 0.959 . S
H1290 C1304 0.961 . S
H1291 C1305 0.960 . S
H1292 C1305 0.961 . S
H1293 C1305 0.959 . S
H1294 C1308 0.929 . S
H1295 C1309 0.931 . S
H1296 C1311 0.930 . S
C1297 H1285 0.930 . S
C1297 C1298 1.399 . S
C1297 C1302 1.399 . S
C1298 C1297 1.399 . S
C1298 C1299 1.376 . S
C1299 H1286 0.930 . S
C1299 C1298 1.376 . S
C1299 C1300 1.388 . S
C1300 H1287 0.930 . S
C1300 C1299 1.388 . S
C1300 C1301 1.390 . S
C1301 C1300 1.390 . S
C1301 C1302 1.394 . S
C1301 C1307 1.465 . S
C1302 C1297 1.399 . S
C1302 C1301 1.394 . S
C1302 C1303 1.516 . S
C1303 C1302 1.516 . S
C1303 C1304 1.502 . S
C1303 C1305 1.561 . S
C1303 C1306 1.526 . S
C1304 H1288 0.959 . S
C1304 H1289 0.959 . S
C1304 H1290 0.961 . S
C1304 C1303 1.502 . S
C1305 H1291 0.960 . S
C1305 H1292 0.961 . S
C1305 H1293 0.959 . S
C1305 C1303 1.561 . S
C1306 C1303 1.526 . S
C1306 C1307 1.396 . S
C1306 C1311 1.390 . S
C1307 C1301 1.465 . S
C1307 C1306 1.396 . S
C1307 C1308 1.399 . S
C1308 H1294 0.929 . S
C1308 C1307 1.399 . S
C1308 C1309 1.385 . S
C1309 H1295 0.931 . S
C1309 C1308 1.385 . S
C1309 C1310 1.389 . S
C1310 C1309 1.389 . S
C1310 C1311 1.387 . S
C1311 H1296 0.930 . S
C1311 C1306 1.390 . S
C1311 C1310 1.387 . S
H1312 C1324 0.930 . S
H1313 C1326 0.930 . S
H1314 C1327 0.930 . S
H1315 C1331 0.959 . S
H1316 C1331 0.959 . S
H1317 C1331 0.961 . S
H1318 C1332 0.960 . S
H1319 C1332 0.961 . S
H1320 C1332 0.959 . S
H1321 C1335 0.929 . S
H1322 C1336 0.931 . S
H1323 C1338 0.930 . S
C1324 H1312 0.930 . S
C1324 C1325 1.399 . S
C1324 C1329 1.399 . S
C1325 C1324 1.399 . S
C1325 C1326 1.376 . S
C1326 H1313 0.930 . S
C1326 C1325 1.376 . S
C1326 C1327 1.388 . S
C1327 H1314 0.930 . S
C1327 C1326 1.388 . S
C1327 C1328 1.390 . S
C1328 C1327 1.390 . S
C1328 C1329 1.394 . S
C1328 C1334 1.465 . S
C1329 C1324 1.399 . S
C1329 C1328 1.394 . S
C1329 C1330 1.516 . S
C1330 C1329 1.516 . S
C1330 C1331 1.502 . S
C1330 C1332 1.561 . S
C1330 C1333 1.526 . S
C1331 H1315 0.959 . S
C1331 H1316 0.959 . S
C1331 H1317 0.961 . S
C1331 C1330 1.502 . S
C1332 H1318 0.960 . S
C1332 H1319 0.961 . S
C1332 H1320 0.959 . S
C1332 C1330 1.561 . S
C1333 C1330 1.526 . S
C1333 C1334 1.396 . S
C1333 C1338 1.390 . S
C1334 C1328 1.465 . S
C1334 C1333 1.396 . S
C1334 C1335 1.399 . S
C1335 H1321 0.929 . S
C1335 C1334 1.399 . S
C1335 C1336 1.385 . S
C1336 H1322 0.931 . S
C1336 C1335 1.385 . S
C1336 C1337 1.389 . S
C1337 C1336 1.389 . S
C1337 C1338 1.387 . S
C1338 H1323 0.930 . S
C1338 C1333 1.390 . S
C1338 C1337 1.387 . S
H1339 C1351 0.930 . S
H1340 C1353 0.930 . S
H1341 C1354 0.930 . S
H1342 C1358 0.959 . S
H1343 C1358 0.959 . S
H1344 C1358 0.961 . S
H1345 C1359 0.960 . S
H1346 C1359 0.961 . S
H1347 C1359 0.959 . S
H1348 C1362 0.929 . S
H1349 C1363 0.931 . S
H1350 C1365 0.930 . S
C1351 H1339 0.930 . S
C1351 C1352 1.399 . S
C1351 C1356 1.399 . S
C1352 C1351 1.399 . S
C1352 C1353 1.376 . S
C1353 H1340 0.930 . S
C1353 C1352 1.376 . S
C1353 C1354 1.388 . S
C1354 H1341 0.930 . S
C1354 C1353 1.388 . S
C1354 C1355 1.390 . S
C1355 C1354 1.390 . S
C1355 C1356 1.394 . S
C1355 C1361 1.465 . S
C1356 C1351 1.399 . S
C1356 C1355 1.394 . S
C1356 C1357 1.516 . S
C1357 C1356 1.516 . S
C1357 C1358 1.502 . S
C1357 C1359 1.561 . S
C1357 C1360 1.526 . S
C1358 H1342 0.959 . S
C1358 H1343 0.959 . S
C1358 H1344 0.961 . S
C1358 C1357 1.502 . S
C1359 H1345 0.960 . S
C1359 H1346 0.961 . S
C1359 H1347 0.959 . S
C1359 C1357 1.561 . S
C1360 C1357 1.526 . S
C1360 C1361 1.396 . S
C1360 C1365 1.390 . S
C1361 C1355 1.465 . S
C1361 C1360 1.396 . S
C1361 C1362 1.399 . S
C1362 H1348 0.929 . S
C1362 C1361 1.399 . S
C1362 C1363 1.385 . S
C1363 H1349 0.931 . S
C1363 C1362 1.385 . S
C1363 C1364 1.389 . S
C1364 C1363 1.389 . S
C1364 C1365 1.387 . S
C1365 H1350 0.930 . S
C1365 C1360 1.390 . S
C1365 C1364 1.387 . S
H1366 C1378 0.930 . S
H1367 C1380 0.930 . S
H1368 C1381 0.930 . S
H1369 C1385 0.959 . S
H1370 C1385 0.959 . S
H1371 C1385 0.961 . S
H1372 C1386 0.960 . S
H1373 C1386 0.961 . S
H1374 C1386 0.959 . S
H1375 C1389 0.929 . S
H1376 C1390 0.931 . S
H1377 C1392 0.930 . S
C1378 H1366 0.930 . S
C1378 C1379 1.399 . S
C1378 C1383 1.399 . S
C1379 C1378 1.399 . S
C1379 C1380 1.376 . S
C1380 H1367 0.930 . S
C1380 C1379 1.376 . S
C1380 C1381 1.388 . S
C1381 H1368 0.930 . S
C1381 C1380 1.388 . S
C1381 C1382 1.390 . S
C1382 C1381 1.390 . S
C1382 C1383 1.394 . S
C1382 C1388 1.465 . S
C1383 C1378 1.399 . S
C1383 C1382 1.394 . S
C1383 C1384 1.516 . S
C1384 C1383 1.516 . S
C1384 C1385 1.502 . S
C1384 C1386 1.561 . S
C1384 C1387 1.526 . S
C1385 H1369 0.959 . S
C1385 H1370 0.959 . S
C1385 H1371 0.961 . S
C1385 C1384 1.502 . S
C1386 H1372 0.960 . S
C1386 H1373 0.961 . S
C1386 H1374 0.959 . S
C1386 C1384 1.561 . S
C1387 C1384 1.526 . S
C1387 C1388 1.396 . S
C1387 C1392 1.390 . S
C1388 C1382 1.465 . S
C1388 C1387 1.396 . S
C1388 C1389 1.399 . S
C1389 H1375 0.929 . S
C1389 C1388 1.399 . S
C1389 C1390 1.385 . S
C1390 H1376 0.931 . S
C1390 C1389 1.385 . S
C1390 C1391 1.389 . S
C1391 C1390 1.389 . S
C1391 C1392 1.387 . S
C1392 H1377 0.930 . S
C1392 C1387 1.390 . S
C1392 C1391 1.387 . S
H1393 C1405 0.930 . S
H1394 C1407 0.930 . S
H1395 C1408 0.930 . S
H1396 C1412 0.959 . S
H1397 C1412 0.959 . S
H1398 C1412 0.961 . S
H1399 C1413 0.960 . S
H1400 C1413 0.961 . S
H1401 C1413 0.959 . S
H1402 C1416 0.929 . S
H1403 C1417 0.931 . S
H1404 C1419 0.930 . S
C1405 H1393 0.930 . S
C1405 C1406 1.399 . S
C1405 C1410 1.399 . S
C1406 C1405 1.399 . S
C1406 C1407 1.376 . S
C1407 H1394 0.930 . S
C1407 C1406 1.376 . S
C1407 C1408 1.388 . S
C1408 H1395 0.930 . S
C1408 C1407 1.388 . S
C1408 C1409 1.390 . S
C1409 C1408 1.390 . S
C1409 C1410 1.394 . S
C1409 C1415 1.465 . S
C1410 C1405 1.399 . S
C1410 C1409 1.394 . S
C1410 C1411 1.516 . S
C1411 C1410 1.516 . S
C1411 C1412 1.502 . S
C1411 C1413 1.561 . S
C1411 C1414 1.526 . S
C1412 H1396 0.959 . S
C1412 H1397 0.959 . S
C1412 H1398 0.961 . S
C1412 C1411 1.502 . S
C1413 H1399 0.960 . S
C1413 H1400 0.961 . S
C1413 H1401 0.959 . S
C1413 C1411 1.561 . S
C1414 C1411 1.526 . S
C1414 C1415 1.396 . S
C1414 C1419 1.390 . S
C1415 C1409 1.465 . S
C1415 C1414 1.396 . S
C1415 C1416 1.399 . S
C1416 H1402 0.929 . S
C1416 C1415 1.399 . S
C1416 C1417 1.385 . S
C1417 H1403 0.931 . S
C1417 C1416 1.385 . S
C1417 C1418 1.389 . S
C1418 C1417 1.389 . S
C1418 C1419 1.387 . S
C1419 H1404 0.930 . S
C1419 C1414 1.390 . S
C1419 C1418 1.387 . S
H1420 C1432 0.930 . S
H1421 C1434 0.930 . S
H1422 C1435 0.930 . S
H1423 C1439 0.959 . S
H1424 C1439 0.959 . S
H1425 C1439 0.961 . S
H1426 C1440 0.960 . S
H1427 C1440 0.961 . S
H1428 C1440 0.959 . S
H1429 C1443 0.929 . S
H1430 C1444 0.931 . S
H1431 C1446 0.930 . S
C1432 H1420 0.930 . S
C1432 C1433 1.399 . S
C1432 C1437 1.399 . S
C1433 C1432 1.399 . S
C1433 C1434 1.376 . S
C1434 H1421 0.930 . S
C1434 C1433 1.376 . S
C1434 C1435 1.388 . S
C1435 H1422 0.930 . S
C1435 C1434 1.388 . S
C1435 C1436 1.390 . S
C1436 C1435 1.390 . S
C1436 C1437 1.394 . S
C1436 C1442 1.465 . S
C1437 C1432 1.399 . S
C1437 C1436 1.394 . S
C1437 C1438 1.516 . S
C1438 C1437 1.516 . S
C1438 C1439 1.502 . S
C1438 C1440 1.561 . S
C1438 C1441 1.526 . S
C1439 H1423 0.959 . S
C1439 H1424 0.959 . S
C1439 H1425 0.961 . S
C1439 C1438 1.502 . S
C1440 H1426 0.960 . S
C1440 H1427 0.961 . S
C1440 H1428 0.959 . S
C1440 C1438 1.561 . S
C1441 C1438 1.526 . S
C1441 C1442 1.396 . S
C1441 C1446 1.390 . S
C1442 C1436 1.465 . S
C1442 C1441 1.396 . S
C1442 C1443 1.399 . S
C1443 H1429 0.929 . S
C1443 C1442 1.399 . S
C1443 C1444 1.385 . S
C1444 H1430 0.931 . S
C1444 C1443 1.385 . S
C1444 C1445 1.389 . S
C1445 C1444 1.389 . S
C1445 C1446 1.387 . S
C1446 H1431 0.930 . S
C1446 C1441 1.390 . S
C1446 C1445 1.387 . S
H1447 C1459 0.930 . S
H1448 C1461 0.930 . S
H1449 C1462 0.930 . S
H1450 C1466 0.959 . S
H1451 C1466 0.959 . S
H1452 C1466 0.961 . S
H1453 C1467 0.960 . S
H1454 C1467 0.961 . S
H1455 C1467 0.959 . S
H1456 C1470 0.929 . S
H1457 C1471 0.931 . S
H1458 C1473 0.930 . S
C1459 H1447 0.930 . S
C1459 C1460 1.399 . S
C1459 C1464 1.399 . S
C1460 C1459 1.399 . S
C1460 C1461 1.376 . S
C1461 H1448 0.930 . S
C1461 C1460 1.376 . S
C1461 C1462 1.388 . S
C1462 H1449 0.930 . S
C1462 C1461 1.388 . S
C1462 C1463 1.390 . S
C1463 C1462 1.390 . S
C1463 C1464 1.394 . S
C1463 C1469 1.465 . S
C1464 C1459 1.399 . S
C1464 C1463 1.394 . S
C1464 C1465 1.516 . S
C1465 C1464 1.516 . S
C1465 C1466 1.502 . S
C1465 C1467 1.561 . S
C1465 C1468 1.526 . S
C1466 H1450 0.959 . S
C1466 H1451 0.959 . S
C1466 H1452 0.961 . S
C1466 C1465 1.502 . S
C1467 H1453 0.960 . S
C1467 H1454 0.961 . S
C1467 H1455 0.959 . S
C1467 C1465 1.561 . S
C1468 C1465 1.526 . S
C1468 C1469 1.396 . S
C1468 C1473 1.390 . S
C1469 C1463 1.465 . S
C1469 C1468 1.396 . S
C1469 C1470 1.399 . S
C1470 H1456 0.929 . S
C1470 C1469 1.399 . S
C1470 C1471 1.385 . S
C1471 H1457 0.931 . S
C1471 C1470 1.385 . S
C1471 C1472 1.389 . S
C1472 C1471 1.389 . S
C1472 C1473 1.387 . S
C1473 H1458 0.930 . S
C1473 C1468 1.390 . S
C1473 C1472 1.387 . S
H1474 C1486 0.930 . S
H1475 C1488 0.930 . S
H1476 C1489 0.930 . S
H1477 C1493 0.959 . S
H1478 C1493 0.959 . S
H1479 C1493 0.961 . S
H1480 C1494 0.960 . S
H1481 C1494 0.961 . S
H1482 C1494 0.959 . S
H1483 C1497 0.929 . S
H1484 C1498 0.931 . S
H1485 C1500 0.930 . S
C1486 H1474 0.930 . S
C1486 C1487 1.399 . S
C1486 C1491 1.399 . S
C1487 C1486 1.399 . S
C1487 C1488 1.376 . S
C1488 H1475 0.930 . S
C1488 C1487 1.376 . S
C1488 C1489 1.388 . S
C1489 H1476 0.930 . S
C1489 C1488 1.388 . S
C1489 C1490 1.390 . S
C1490 C1489 1.390 . S
C1490 C1491 1.394 . S
C1490 C1496 1.465 . S
C1491 C1486 1.399 . S
C1491 C1490 1.394 . S
C1491 C1492 1.516 . S
C1492 C1491 1.516 . S
C1492 C1493 1.502 . S
C1492 C1494 1.561 . S
C1492 C1495 1.526 . S
C1493 H1477 0.959 . S
C1493 H1478 0.959 . S
C1493 H1479 0.961 . S
C1493 C1492 1.502 . S
C1494 H1480 0.960 . S
C1494 H1481 0.961 . S
C1494 H1482 0.959 . S
C1494 C1492 1.561 . S
C1495 C1492 1.526 . S
C1495 C1496 1.396 . S
C1495 C1500 1.390 . S
C1496 C1490 1.465 . S
C1496 C1495 1.396 . S
C1496 C1497 1.399 . S
C1497 H1483 0.929 . S
C1497 C1496 1.399 . S
C1497 C1498 1.385 . S
C1498 H1484 0.931 . S
C1498 C1497 1.385 . S
C1498 C1499 1.389 . S
C1499 C1498 1.389 . S
C1499 C1500 1.387 . S
C1500 H1485 0.930 . S
C1500 C1495 1.390 . S
C1500 C1499 1.387 . S
H1501 C1513 0.930 . S
H1502 C1515 0.930 . S
H1503 C1516 0.930 . S
H1504 C1520 0.959 . S
H1505 C1520 0.959 . S
H1506 C1520 0.961 . S
H1507 C1521 0.960 . S
H1508 C1521 0.961 . S
H1509 C1521 0.959 . S
H1510 C1524 0.929 . S
H1511 C1525 0.931 . S
H1512 C1527 0.930 . S
C1513 H1501 0.930 . S
C1513 C1514 1.399 . S
C1513 C1518 1.399 . S
C1514 C1513 1.399 . S
C1514 C1515 1.376 . S
C1515 H1502 0.930 . S
C1515 C1514 1.376 . S
C1515 C1516 1.388 . S
C1516 H1503 0.930 . S
C1516 C1515 1.388 . S
C1516 C1517 1.390 . S
C1517 C1516 1.390 . S
C1517 C1518 1.394 . S
C1517 C1523 1.465 . S
C1518 C1513 1.399 . S
C1518 C1517 1.394 . S
C1518 C1519 1.516 . S
C1519 C1518 1.516 . S
C1519 C1520 1.502 . S
C1519 C1521 1.561 . S
C1519 C1522 1.526 . S
C1520 H1504 0.959 . S
C1520 H1505 0.959 . S
C1520 H1506 0.961 . S
C1520 C1519 1.502 . S
C1521 H1507 0.960 . S
C1521 H1508 0.961 . S
C1521 H1509 0.959 . S
C1521 C1519 1.561 . S
C1522 C1519 1.526 . S
C1522 C1523 1.396 . S
C1522 C1527 1.390 . S
C1523 C1517 1.465 . S
C1523 C1522 1.396 . S
C1523 C1524 1.399 . S
C1524 H1510 0.929 . S
C1524 C1523 1.399 . S
C1524 C1525 1.385 . S
C1525 H1511 0.931 . S
C1525 C1524 1.385 . S
C1525 C1526 1.389 . S
C1526 C1525 1.389 . S
C1526 C1527 1.387 . S
C1527 H1512 0.930 . S
C1527 C1522 1.390 . S
C1527 C1526 1.387 . S
H1528 C1540 0.930 . S
H1529 C1542 0.930 . S
H1530 C1543 0.930 . S
H1531 C1547 0.959 . S
H1532 C1547 0.959 . S
H1533 C1547 0.961 1_554 S
H1534 C1548 0.960 1_554 S
H1535 C1548 0.961 . S
H1536 C1548 0.959 . S
H1537 C1551 0.929 . S
H1538 C1552 0.931 . S
H1539 C1554 0.930 . S
C1540 H1528 0.930 . S
C1540 C1541 1.399 . S
C1540 C1545 1.399 . S
C1541 C1540 1.399 . S
C1541 C1542 1.376 . S
C1542 H1529 0.930 . S
C1542 C1541 1.376 . S
C1542 C1543 1.388 . S
C1543 H1530 0.930 . S
C1543 C1542 1.388 . S
C1543 C1544 1.390 . S
C1544 C1543 1.390 . S
C1544 C1545 1.394 . S
C1544 C1550 1.465 1_554 S
C1545 C1540 1.399 . S
C1545 C1544 1.394 . S
C1545 C1546 1.516 1_554 S
C1546 C1545 1.516 1_556 S
C1546 C1547 1.502 . S
C1546 C1548 1.561 . S
C1546 C1549 1.526 . S
C1547 H1531 0.959 . S
C1547 H1532 0.959 . S
C1547 H1533 0.961 1_556 S
C1547 C1546 1.502 . S
C1548 H1534 0.960 1_556 S
C1548 H1535 0.961 . S
C1548 H1536 0.959 . S
C1548 C1546 1.561 . S
C1549 C1546 1.526 . S
C1549 C1550 1.396 . S
C1549 C1554 1.390 . S
C1550 C1544 1.465 1_556 S
C1550 C1549 1.396 . S
C1550 C1551 1.399 . S
C1551 H1537 0.929 . S
C1551 C1550 1.399 . S
C1551 C1552 1.385 . S
C1552 H1538 0.931 . S
C1552 C1551 1.385 . S
C1552 C1553 1.389 . S
C1553 C1552 1.389 . S
C1553 C1554 1.387 . S
C1554 H1539 0.930 . S
C1554 C1549 1.390 . S
C1554 C1553 1.387 . S
H1555 C1567 0.930 . S
H1556 C1569 0.930 . S
H1557 C1570 0.930 . S
H1558 C1574 0.959 . S
H1559 C1574 0.959 . S
H1560 C1574 0.961 . S
H1561 C1575 0.960 . S
H1562 C1575 0.961 . S
H1563 C1575 0.959 . S
H1564 C1578 0.929 . S
H1565 C1579 0.931 . S
H1566 C1581 0.930 . S
C1567 H1555 0.930 . S
C1567 C1568 1.399 . S
C1567 C1572 1.399 . S
C1568 C1567 1.399 . S
C1568 C1569 1.376 . S
C1569 H1556 0.930 . S
C1569 C1568 1.376 . S
C1569 C1570 1.388 . S
C1570 H1557 0.930 . S
C1570 C1569 1.388 . S
C1570 C1571 1.390 1_556 S
C1571 C1570 1.390 1_554 S
C1571 C1572 1.394 1_554 S
C1571 C1577 1.465 . S
C1572 C1567 1.399 . S
C1572 C1571 1.394 1_556 S
C1572 C1573 1.516 1_556 S
C1573 C1572 1.516 1_554 S
C1573 C1574 1.502 . S
C1573 C1575 1.561 . S
C1573 C1576 1.526 . S
C1574 H1558 0.959 . S
C1574 H1559 0.959 . S
C1574 H1560 0.961 . S
C1574 C1573 1.502 . S
C1575 H1561 0.960 . S
C1575 H1562 0.961 . S
C1575 H1563 0.959 . S
C1575 C1573 1.561 . S
C1576 C1573 1.526 . S
C1576 C1577 1.396 . S
C1576 C1581 1.390 . S
C1577 C1571 1.465 . S
C1577 C1576 1.396 . S
C1577 C1578 1.399 . S
C1578 H1564 0.929 . S
C1578 C1577 1.399 . S
C1578 C1579 1.385 . S
C1579 H1565 0.931 . S
C1579 C1578 1.385 . S
C1579 C1580 1.389 . S
C1580 C1579 1.389 . S
C1580 C1581 1.387 . S
C1581 H1566 0.930 . S
C1581 C1576 1.390 . S
C1581 C1580 1.387 . S
H1582 C1594 0.930 . S
H1583 C1596 0.930 . S
H1584 C1597 0.930 . S
H1585 C1601 0.959 . S
H1586 C1601 0.959 . S
H1587 C1601 0.961 1_554 S
H1588 C1602 0.960 1_554 S
H1589 C1602 0.961 . S
H1590 C1602 0.959 . S
H1591 C1605 0.929 . S
H1592 C1606 0.931 . S
H1593 C1608 0.930 . S
C1594 H1582 0.930 . S
C1594 C1595 1.399 . S
C1594 C1599 1.399 . S
C1595 C1594 1.399 . S
C1595 C1596 1.376 . S
C1596 H1583 0.930 . S
C1596 C1595 1.376 . S
C1596 C1597 1.388 . S
C1597 H1584 0.930 . S
C1597 C1596 1.388 . S
C1597 C1598 1.390 . S
C1598 C1597 1.390 . S
C1598 C1599 1.394 . S
C1598 C1604 1.465 1_554 S
C1599 C1594 1.399 . S
C1599 C1598 1.394 . S
C1599 C1600 1.516 1_554 S
C1600 C1599 1.516 1_556 S
C1600 C1601 1.502 . S
C1600 C1602 1.561 . S
C1600 C1603 1.526 . S
C1601 H1585 0.959 . S
C1601 H1586 0.959 . S
C1601 H1587 0.961 1_556 S
C1601 C1600 1.502 . S
C1602 H1588 0.960 1_556 S
C1602 H1589 0.961 . S
C1602 H1590 0.959 . S
C1602 C1600 1.561 . S
C1603 C1600 1.526 . S
C1603 C1604 1.396 . S
C1603 C1608 1.390 . S
C1604 C1598 1.465 1_556 S
C1604 C1603 1.396 . S
C1604 C1605 1.399 . S
C1605 H1591 0.929 . S
C1605 C1604 1.399 . S
C1605 C1606 1.385 . S
C1606 H1592 0.931 . S
C1606 C1605 1.385 . S
C1606 C1607 1.389 . S
C1607 C1606 1.389 . S
C1607 C1608 1.387 . S
C1608 H1593 0.930 . S
C1608 C1603 1.390 . S
C1608 C1607 1.387 . S
H1609 C1621 0.930 . S
H1610 C1623 0.930 . S
H1611 C1624 0.930 . S
H1612 C1628 0.959 . S
H1613 C1628 0.963 . S
H1614 C1628 0.961 . S
H1615 C1629 0.960 . S
H1616 C1629 0.961 . S
H1617 C1629 0.959 . S
H1618 C1632 0.929 . S
H1619 C1633 0.931 . S
H1620 C1635 0.930 . S
C1621 H1609 0.930 . S
C1621 C1622 1.399 . S
C1621 C1626 1.399 . S
C1622 C1621 1.399 . S
C1622 C1623 1.376 . S
C1623 H1610 0.930 . S
C1623 C1622 1.376 . S
C1623 C1624 1.388 . S
C1624 H1611 0.930 . S
C1624 C1623 1.388 . S
C1624 C1625 1.390 . S
C1625 C1624 1.390 . S
C1625 C1626 1.394 . S
C1625 C1631 1.465 . S
C1626 C1621 1.399 . S
C1626 C1625 1.394 . S
C1626 C1627 1.516 . S
C1627 C1626 1.516 . S
C1627 C1628 1.502 . S
C1627 C1629 1.561 . S
C1627 C1630 1.526 1_554 S
C1628 H1612 0.959 . S
C1628 H1613 0.963 . S
C1628 H1614 0.961 . S
C1628 C1627 1.502 . S
C1629 H1615 0.960 . S
C1629 H1616 0.961 . S
C1629 H1617 0.959 . S
C1629 C1627 1.561 . S
C1630 C1627 1.526 1_556 S
C1630 C1631 1.396 1_556 S
C1630 C1635 1.390 . S
C1631 C1625 1.465 . S
C1631 C1630 1.396 1_554 S
C1631 C1632 1.399 1_554 S
C1632 H1618 0.929 . S
C1632 C1631 1.399 1_556 S
C1632 C1633 1.385 . S
C1633 H1619 0.931 . S
C1633 C1632 1.385 . S
C1633 C1634 1.389 . S
C1634 C1633 1.389 . S
C1634 C1635 1.387 . S
C1635 H1620 0.930 . S
C1635 C1630 1.390 . S
C1635 C1634 1.387 . S
H1636 C1648 0.930 . S
H1637 C1650 0.930 . S
H1638 C1651 0.930 . S
H1639 C1655 0.959 . S
H1640 C1655 0.959 1_556 S
H1641 C1655 0.961 . S
H1642 C1656 0.960 . S
H1643 C1656 0.961 1_556 S
H1644 C1656 0.959 . S
H1645 C1659 0.929 . S
H1646 C1660 0.931 . S
H1647 C1662 0.930 . S
C1648 H1636 0.930 . S
C1648 C1649 1.399 . S
C1648 C1653 1.399 . S
C1649 C1648 1.399 . S
C1649 C1650 1.376 . S
C1650 H1637 0.930 . S
C1650 C1649 1.376 . S
C1650 C1651 1.388 . S
C1651 H1638 0.930 . S
C1651 C1650 1.388 . S
C1651 C1652 1.390 . S
C1652 C1651 1.390 . S
C1652 C1653 1.394 . S
C1652 C1658 1.465 1_554 S
C1653 C1648 1.399 . S
C1653 C1652 1.394 . S
C1653 C1654 1.516 . S
C1654 C1653 1.516 . S
C1654 C1655 1.502 . S
C1654 C1656 1.561 . S
C1654 C1657 1.526 1_554 S
C1655 H1639 0.959 . S
C1655 H1640 0.959 1_554 S
C1655 H1641 0.961 . S
C1655 C1654 1.502 . S
C1656 H1642 0.960 . S
C1656 H1643 0.961 1_554 S
C1656 H1644 0.959 . S
C1656 C1654 1.561 . S
C1657 C1654 1.526 1_556 S
C1657 C1658 1.396 . S
C1657 C1662 1.390 . S
C1658 C1652 1.465 1_556 S
C1658 C1657 1.396 . S
C1658 C1659 1.399 . S
C1659 H1645 0.929 . S
C1659 C1658 1.399 . S
C1659 C1660 1.385 . S
C1660 H1646 0.931 . S
C1660 C1659 1.385 . S
C1660 C1661 1.389 . S
C1661 C1660 1.389 . S
C1661 C1662 1.387 . S
C1662 H1647 0.930 . S
C1662 C1657 1.390 . S
C1662 C1661 1.387 . S
H1663 C1675 0.930 . S
H1664 C1677 0.930 . S
H1665 C1678 0.930 . S
H1666 C1682 0.959 . S
H1667 C1682 0.959 . S
H1668 C1682 0.961 . S
H1669 C1683 0.960 . S
H1670 C1683 0.961 . S
H1671 C1683 0.959 . S
H1672 C1686 0.929 . S
H1673 C1687 0.931 . S
H1674 C1689 0.930 . S
C1675 H1663 0.930 . S
C1675 C1676 1.399 . S
C1675 C1680 1.399 . S
C1676 C1675 1.399 . S
C1676 C1677 1.376 . S
C1677 H1664 0.930 . S
C1677 C1676 1.376 . S
C1677 C1678 1.388 . S
C1678 H1665 0.930 . S
C1678 C1677 1.388 . S
C1678 C1679 1.390 1_554 S
C1679 C1678 1.390 1_556 S
C1679 C1680 1.394 1_556 S
C1679 C1685 1.465 . S
C1680 C1675 1.399 . S
C1680 C1679 1.394 1_554 S
C1680 C1681 1.516 1_554 S
C1681 C1680 1.516 1_556 S
C1681 C1682 1.502 . S
C1681 C1683 1.561 . S
C1681 C1684 1.526 . S
C1682 H1666 0.959 . S
C1682 H1667 0.959 . S
C1682 H1668 0.961 . S
C1682 C1681 1.502 . S
C1683 H1669 0.960 . S
C1683 H1670 0.961 . S
C1683 H1671 0.959 . S
C1683 C1681 1.561 . S
C1684 C1681 1.526 . S
C1684 C1685 1.396 . S
C1684 C1689 1.390 . S
C1685 C1679 1.465 . S
C1685 C1684 1.396 . S
C1685 C1686 1.399 . S
C1686 H1672 0.929 . S
C1686 C1685 1.399 . S
C1686 C1687 1.385 . S
C1687 H1673 0.931 . S
C1687 C1686 1.385 . S
C1687 C1688 1.389 . S
C1688 C1687 1.389 . S
C1688 C1689 1.387 . S
C1689 H1674 0.930 . S
C1689 C1684 1.390 . S
C1689 C1688 1.387 . S
H1690 C1702 0.930 . S
H1691 C1704 0.930 . S
H1692 C1705 0.930 . S
H1693 C1709 0.959 . S
H1694 C1709 0.959 . S
H1695 C1709 0.961 1_556 S
H1696 C1710 0.960 1_556 S
H1697 C1710 0.961 . S
H1698 C1710 0.959 . S
H1699 C1713 0.929 . S
H1700 C1714 0.931 . S
H1701 C1716 0.930 . S
C1702 H1690 0.930 . S
C1702 C1703 1.399 . S
C1702 C1707 1.399 . S
C1703 C1702 1.399 . S
C1703 C1704 1.376 . S
C1704 H1691 0.930 . S
C1704 C1703 1.376 . S
C1704 C1705 1.388 . S
C1705 H1692 0.930 . S
C1705 C1704 1.388 . S
C1705 C1706 1.390 . S
C1706 C1705 1.390 . S
C1706 C1707 1.394 . S
C1706 C1712 1.465 1_556 S
C1707 C1702 1.399 . S
C1707 C1706 1.394 . S
C1707 C1708 1.516 1_556 S
C1708 C1707 1.516 1_554 S
C1708 C1709 1.502 . S
C1708 C1710 1.561 . S
C1708 C1711 1.526 . S
C1709 H1693 0.959 . S
C1709 H1694 0.959 . S
C1709 H1695 0.961 1_554 S
C1709 C1708 1.502 . S
C1710 H1696 0.960 1_554 S
C1710 H1697 0.961 . S
C1710 H1698 0.959 . S
C1710 C1708 1.561 . S
C1711 C1708 1.526 . S
C1711 C1712 1.396 . S
C1711 C1716 1.390 . S
C1712 C1706 1.465 1_554 S
C1712 C1711 1.396 . S
C1712 C1713 1.399 . S
C1713 H1699 0.929 . S
C1713 C1712 1.399 . S
C1713 C1714 1.385 . S
C1714 H1700 0.931 . S
C1714 C1713 1.385 . S
C1714 C1715 1.389 . S
C1715 C1714 1.389 . S
C1715 C1716 1.387 . S
C1716 H1701 0.930 . S
C1716 C1711 1.390 . S
C1716 C1715 1.387 . S
H1717 C1729 0.930 . S
H1718 C1731 0.930 . S
H1719 C1732 0.930 . S
H1720 C1736 0.959 . S
H1721 C1736 0.959 . S
H1722 C1736 0.961 . S
H1723 C1737 0.960 . S
H1724 C1737 0.961 . S
H1725 C1737 0.959 . S
H1726 C1740 0.929 . S
H1727 C1741 0.931 . S
H1728 C1743 0.930 . S
C1729 H1717 0.930 . S
C1729 C1730 1.399 . S
C1729 C1734 1.399 . S
C1730 C1729 1.399 . S
C1730 C1731 1.376 . S
C1731 H1718 0.930 . S
C1731 C1730 1.376 . S
C1731 C1732 1.388 . S
C1732 H1719 0.930 . S
C1732 C1731 1.388 . S
C1732 C1733 1.390 . S
C1733 C1732 1.390 . S
C1733 C1734 1.394 . S
C1733 C1739 1.465 . S
C1734 C1729 1.399 . S
C1734 C1733 1.394 . S
C1734 C1735 1.516 . S
C1735 C1734 1.516 . S
C1735 C1736 1.502 . S
C1735 C1737 1.561 . S
C1735 C1738 1.526 1_556 S
C1736 H1720 0.959 . S
C1736 H1721 0.959 . S
C1736 H1722 0.961 . S
C1736 C1735 1.502 . S
C1737 H1723 0.960 . S
C1737 H1724 0.961 . S
C1737 H1725 0.959 . S
C1737 C1735 1.561 . S
C1738 C1735 1.526 1_554 S
C1738 C1739 1.396 1_554 S
C1738 C1743 1.390 . S
C1739 C1733 1.465 . S
C1739 C1738 1.396 1_556 S
C1739 C1740 1.399 1_556 S
C1740 H1726 0.929 . S
C1740 C1739 1.399 1_554 S
C1740 C1741 1.385 . S
C1741 H1727 0.931 . S
C1741 C1740 1.385 . S
C1741 C1742 1.389 . S
C1742 C1741 1.389 . S
C1742 C1743 1.387 . S
C1743 H1728 0.930 . S
C1743 C1738 1.390 . S
C1743 C1742 1.387 . S
H1744 C1756 0.930 . S
H1745 C1758 0.930 . S
H1746 C1759 0.930 . S
H1747 C1763 0.959 . S
H1748 C1763 0.959 . S
H1749 C1763 0.961 . S
H1750 C1764 0.960 . S
H1751 C1764 0.961 . S
H1752 C1764 0.959 . S
H1753 C1767 0.929 . S
H1754 C1768 0.931 . S
H1755 C1770 0.930 . S
C1756 H1744 0.930 . S
C1756 C1757 1.399 . S
C1756 C1761 1.399 . S
C1757 C1756 1.399 . S
C1757 C1758 1.376 . S
C1758 H1745 0.930 . S
C1758 C1757 1.376 . S
C1758 C1759 1.388 . S
C1759 H1746 0.930 . S
C1759 C1758 1.388 . S
C1759 C1760 1.390 . S
C1760 C1759 1.390 . S
C1760 C1761 1.394 . S
C1760 C1766 1.465 . S
C1761 C1756 1.399 . S
C1761 C1760 1.394 . S
C1761 C1762 1.516 . S
C1762 C1761 1.516 . S
C1762 C1763 1.502 . S
C1762 C1764 1.561 . S
C1762 C1765 1.526 . S
C1763 H1747 0.959 . S
C1763 H1748 0.959 . S
C1763 H1749 0.961 . S
C1763 C1762 1.502 . S
C1764 H1750 0.960 . S
C1764 H1751 0.961 . S
C1764 H1752 0.959 . S
C1764 C1762 1.561 . S
C1765 C1762 1.526 . S
C1765 C1766 1.396 . S
C1765 C1770 1.390 . S
C1766 C1760 1.465 . S
C1766 C1765 1.396 . S
C1766 C1767 1.399 . S
C1767 H1753 0.929 . S
C1767 C1766 1.399 . S
C1767 C1768 1.385 . S
C1768 H1754 0.931 . S
C1768 C1767 1.385 . S
C1768 C1769 1.389 . S
C1769 C1768 1.389 . S
C1769 C1770 1.387 . S
C1770 H1755 0.930 . S
C1770 C1765 1.390 . S
C1770 C1769 1.387 . S
H1771 C1783 0.930 . S
H1772 C1785 0.930 . S
H1773 C1786 0.930 . S
H1774 C1790 0.959 . S
H1775 C1790 0.959 . S
H1776 C1790 0.961 . S
H1777 C1791 0.960 . S
H1778 C1791 0.961 . S
H1779 C1791 0.959 . S
H1780 C1794 0.929 . S
H1781 C1795 0.931 . S
H1782 C1797 0.930 . S
C1783 H1771 0.930 . S
C1783 C1784 1.399 . S
C1783 C1788 1.399 . S
C1784 C1783 1.399 . S
C1784 C1785 1.376 . S
C1785 H1772 0.930 . S
C1785 C1784 1.376 . S
C1785 C1786 1.388 . S
C1786 H1773 0.930 . S
C1786 C1785 1.388 . S
C1786 C1787 1.390 . S
C1787 C1786 1.390 . S
C1787 C1788 1.394 . S
C1787 C1793 1.465 . S
C1788 C1783 1.399 . S
C1788 C1787 1.394 . S
C1788 C1789 1.516 . S
C1789 C1788 1.516 . S
C1789 C1790 1.502 . S
C1789 C1791 1.561 . S
C1789 C1792 1.526 . S
C1790 H1774 0.959 . S
C1790 H1775 0.959 . S
C1790 H1776 0.961 . S
C1790 C1789 1.502 . S
C1791 H1777 0.960 . S
C1791 H1778 0.961 . S
C1791 H1779 0.959 . S
C1791 C1789 1.561 . S
C1792 C1789 1.526 . S
C1792 C1793 1.396 . S
C1792 C1797 1.390 . S
C1793 C1787 1.465 . S
C1793 C1792 1.396 . S
C1793 C1794 1.399 . S
C1794 H1780 0.929 . S
C1794 C1793 1.399 . S
C1794 C1795 1.385 . S
C1795 H1781 0.931 . S
C1795 C1794 1.385 . S
C1795 C1796 1.389 . S
C1796 C1795 1.389 . S
C1796 C1797 1.387 . S
C1797 H1782 0.930 . S
C1797 C1792 1.390 . S
C1797 C1796 1.387 . S
H1798 C1810 0.930 . S
H1799 C1812 0.930 . S
H1800 C1813 0.930 . S
H1801 C1817 0.959 . S
H1802 C1817 0.959 . S
H1803 C1817 0.961 . S
H1804 C1818 0.960 . S
H1805 C1818 0.961 . S
H1806 C1818 0.959 . S
H1807 C1821 0.929 . S
H1808 C1822 0.931 . S
H1809 C1824 0.930 . S
C1810 H1798 0.930 . S
C1810 C1811 1.399 . S
C1810 C1815 1.399 . S
C1811 C1810 1.399 . S
C1811 C1812 1.376 . S
C1812 H1799 0.930 . S
C1812 C1811 1.376 . S
C1812 C1813 1.388 . S
C1813 H1800 0.930 . S
C1813 C1812 1.388 . S
C1813 C1814 1.390 . S
C1814 C1813 1.390 . S
C1814 C1815 1.394 . S
C1814 C1820 1.465 . S
C1815 C1810 1.399 . S
C1815 C1814 1.394 . S
C1815 C1816 1.516 . S
C1816 C1815 1.516 . S
C1816 C1817 1.502 . S
C1816 C1818 1.561 . S
C1816 C1819 1.526 . S
C1817 H1801 0.959 . S
C1817 H1802 0.959 . S
C1817 H1803 0.961 . S
C1817 C1816 1.502 . S
C1818 H1804 0.960 . S
C1818 H1805 0.961 . S
C1818 H1806 0.959 . S
C1818 C1816 1.561 . S
C1819 C1816 1.526 . S
C1819 C1820 1.396 . S
C1819 C1824 1.390 . S
C1820 C1814 1.465 . S
C1820 C1819 1.396 . S
C1820 C1821 1.399 . S
C1821 H1807 0.929 . S
C1821 C1820 1.399 . S
C1821 C1822 1.385 . S
C1822 H1808 0.931 . S
C1822 C1821 1.385 . S
C1822 C1823 1.389 . S
C1823 C1822 1.389 . S
C1823 C1824 1.387 . S
C1824 H1809 0.930 . S
C1824 C1819 1.390 . S
C1824 C1823 1.387 . S
H1825 C1837 0.930 . S
H1826 C1839 0.930 . S
H1827 C1840 0.930 . S
H1828 C1844 0.959 . S
H1829 C1844 0.959 . S
H1830 C1844 0.961 . S
H1831 C1845 0.960 . S
H1832 C1845 0.961 . S
H1833 C1845 0.959 . S
H1834 C1848 0.929 . S
H1835 C1849 0.931 . S
H1836 C1851 0.930 . S
C1837 H1825 0.930 . S
C1837 C1838 1.399 . S
C1837 C1842 1.399 . S
C1838 C1837 1.399 . S
C1838 C1839 1.376 . S
C1839 H1826 0.930 . S
C1839 C1838 1.376 . S
C1839 C1840 1.388 . S
C1840 H1827 0.930 . S
C1840 C1839 1.388 . S
C1840 C1841 1.390 . S
C1841 C1840 1.390 . S
C1841 C1842 1.394 . S
C1841 C1847 1.465 . S
C1842 C1837 1.399 . S
C1842 C1841 1.394 . S
C1842 C1843 1.516 . S
C1843 C1842 1.516 . S
C1843 C1844 1.502 . S
C1843 C1845 1.561 . S
C1843 C1846 1.526 . S
C1844 H1828 0.959 . S
C1844 H1829 0.959 . S
C1844 H1830 0.961 . S
C1844 C1843 1.502 . S
C1845 H1831 0.960 . S
C1845 H1832 0.961 . S
C1845 H1833 0.959 . S
C1845 C1843 1.561 . S
C1846 C1843 1.526 . S
C1846 C1847 1.396 . S
C1846 C1851 1.390 . S
C1847 C1841 1.465 . S
C1847 C1846 1.396 . S
C1847 C1848 1.399 . S
C1848 H1834 0.929 . S
C1848 C1847 1.399 . S
C1848 C1849 1.385 . S
C1849 H1835 0.931 . S
C1849 C1848 1.385 . S
C1849 C1850 1.389 . S
C1850 C1849 1.389 . S
C1850 C1851 1.387 . S
C1851 H1836 0.930 . S
C1851 C1846 1.390 . S
C1851 C1850 1.387 . S
H1852 C1864 0.930 . S
H1853 C1866 0.930 . S
H1854 C1867 0.930 . S
H1855 C1871 0.959 . S
H1856 C1871 0.959 . S
H1857 C1871 0.961 . S
H1858 C1872 0.960 . S
H1859 C1872 0.961 . S
H1860 C1872 0.959 . S
H1861 C1875 0.929 . S
H1862 C1876 0.931 . S
H1863 C1878 0.930 . S
C1864 H1852 0.930 . S
C1864 C1865 1.399 . S
C1864 C1869 1.399 . S
C1865 C1864 1.399 . S
C1865 C1866 1.376 . S
C1866 H1853 0.930 . S
C1866 C1865 1.376 . S
C1866 C1867 1.388 . S
C1867 H1854 0.930 . S
C1867 C1866 1.388 . S
C1867 C1868 1.390 . S
C1868 C1867 1.390 . S
C1868 C1869 1.394 . S
C1868 C1874 1.465 . S
C1869 C1864 1.399 . S
C1869 C1868 1.394 . S
C1869 C1870 1.516 . S
C1870 C1869 1.516 . S
C1870 C1871 1.502 . S
C1870 C1872 1.561 . S
C1870 C1873 1.526 . S
C1871 H1855 0.959 . S
C1871 H1856 0.959 . S
C1871 H1857 0.961 . S
C1871 C1870 1.502 . S
C1872 H1858 0.960 . S
C1872 H1859 0.961 . S
C1872 H1860 0.959 . S
C1872 C1870 1.561 . S
C1873 C1870 1.526 . S
C1873 C1874 1.396 . S
C1873 C1878 1.390 . S
C1874 C1868 1.465 . S
C1874 C1873 1.396 . S
C1874 C1875 1.399 . S
C1875 H1861 0.929 . S
C1875 C1874 1.399 . S
C1875 C1876 1.385 . S
C1876 H1862 0.931 . S
C1876 C1875 1.385 . S
C1876 C1877 1.389 . S
C1877 C1876 1.389 . S
C1877 C1878 1.387 . S
C1878 H1863 0.930 . S
C1878 C1873 1.390 . S
C1878 C1877 1.387 . S
H1879 C1891 0.930 . S
H1880 C1893 0.930 . S
H1881 C1894 0.930 . S
H1882 C1898 0.959 . S
H1883 C1898 0.959 . S
H1884 C1898 0.961 . S
H1885 C1899 0.960 . S
H1886 C1899 0.961 . S
H1887 C1899 0.959 . S
H1888 C1902 0.929 . S
H1889 C1903 0.931 . S
H1890 C1905 0.930 . S
C1891 H1879 0.930 . S
C1891 C1892 1.399 . S
C1891 C1896 1.399 . S
C1892 C1891 1.399 . S
C1892 C1893 1.376 . S
C1893 H1880 0.930 . S
C1893 C1892 1.376 . S
C1893 C1894 1.388 . S
C1894 H1881 0.930 . S
C1894 C1893 1.388 . S
C1894 C1895 1.390 . S
C1895 C1894 1.390 . S
C1895 C1896 1.394 . S
C1895 C1901 1.465 . S
C1896 C1891 1.399 . S
C1896 C1895 1.394 . S
C1896 C1897 1.516 . S
C1897 C1896 1.516 . S
C1897 C1898 1.502 . S
C1897 C1899 1.561 . S
C1897 C1900 1.526 . S
C1898 H1882 0.959 . S
C1898 H1883 0.959 . S
C1898 H1884 0.961 . S
C1898 C1897 1.502 . S
C1899 H1885 0.960 . S
C1899 H1886 0.961 . S
C1899 H1887 0.959 . S
C1899 C1897 1.561 . S
C1900 C1897 1.526 . S
C1900 C1901 1.396 . S
C1900 C1905 1.390 . S
C1901 C1895 1.465 . S
C1901 C1900 1.396 . S
C1901 C1902 1.399 . S
C1902 H1888 0.929 . S
C1902 C1901 1.399 . S
C1902 C1903 1.385 . S
C1903 H1889 0.931 . S
C1903 C1902 1.385 . S
C1903 C1904 1.389 . S
C1904 C1903 1.389 . S
C1904 C1905 1.387 . S
C1905 H1890 0.930 . S
C1905 C1900 1.390 . S
C1905 C1904 1.387 . S
H1906 C1918 0.930 . S
H1907 C1920 0.930 . S
H1908 C1921 0.930 . S
H1909 C1925 0.959 . S
H1910 C1925 0.959 . S
H1911 C1925 0.961 . S
H1912 C1926 0.960 . S
H1913 C1926 0.961 . S
H1914 C1926 0.959 . S
H1915 C1929 0.929 . S
H1916 C1930 0.931 . S
H1917 C1932 0.930 . S
C1918 H1906 0.930 . S
C1918 C1919 1.399 . S
C1918 C1923 1.399 . S
C1919 C1918 1.399 . S
C1919 C1920 1.376 . S
C1920 H1907 0.930 . S
C1920 C1919 1.376 . S
C1920 C1921 1.388 . S
C1921 H1908 0.930 . S
C1921 C1920 1.388 . S
C1921 C1922 1.390 . S
C1922 C1921 1.390 . S
C1922 C1923 1.394 . S
C1922 C1928 1.465 . S
C1923 C1918 1.399 . S
C1923 C1922 1.394 . S
C1923 C1924 1.516 . S
C1924 C1923 1.516 . S
C1924 C1925 1.502 . S
C1924 C1926 1.561 . S
C1924 C1927 1.526 . S
C1925 H1909 0.959 . S
C1925 H1910 0.959 . S
C1925 H1911 0.961 . S
C1925 C1924 1.502 . S
C1926 H1912 0.960 . S
C1926 H1913 0.961 . S
C1926 H1914 0.959 . S
C1926 C1924 1.561 . S
C1927 C1924 1.526 . S
C1927 C1928 1.396 . S
C1927 C1932 1.390 . S
C1928 C1922 1.465 . S
C1928 C1927 1.396 . S
C1928 C1929 1.399 . S
C1929 H1915 0.929 . S
C1929 C1928 1.399 . S
C1929 C1930 1.385 . S
C1930 H1916 0.931 . S
C1930 C1929 1.385 . S
C1930 C1931 1.389 . S
C1931 C1930 1.389 . S
C1931 C1932 1.387 . S
C1932 H1917 0.930 . S
C1932 C1927 1.390 . S
C1932 C1931 1.387 . S
H1933 C1945 0.930 . S
H1934 C1947 0.930 . S
H1935 C1948 0.930 . S
H1936 C1952 0.959 . S
H1937 C1952 0.959 . S
H1938 C1952 0.961 . S
H1939 C1953 0.960 . S
H1940 C1953 0.961 . S
H1941 C1953 0.959 . S
H1942 C1956 0.929 . S
H1943 C1957 0.931 . S
H1944 C1959 0.930 . S
C1945 H1933 0.930 . S
C1945 C1946 1.399 . S
C1945 C1950 1.399 . S
C1946 C1945 1.399 . S
C1946 C1947 1.376 . S
C1947 H1934 0.930 . S
C1947 C1946 1.376 . S
C1947 C1948 1.388 . S
C1948 H1935 0.930 . S
C1948 C1947 1.388 . S
C1948 C1949 1.390 . S
C1949 C1948 1.390 . S
C1949 C1950 1.394 . S
C1949 C1955 1.465 . S
C1950 C1945 1.399 . S
C1950 C1949 1.394 . S
C1950 C1951 1.516 . S
C1951 C1950 1.516 . S
C1951 C1952 1.502 . S
C1951 C1953 1.561 . S
C1951 C1954 1.526 . S
C1952 H1936 0.959 . S
C1952 H1937 0.959 . S
C1952 H1938 0.961 . S
C1952 C1951 1.502 . S
C1953 H1939 0.960 . S
C1953 H1940 0.961 . S
C1953 H1941 0.959 . S
C1953 C1951 1.561 . S
C1954 C1951 1.526 . S
C1954 C1955 1.396 . S
C1954 C1959 1.390 . S
C1955 C1949 1.465 . S
C1955 C1954 1.396 . S
C1955 C1956 1.399 . S
C1956 H1942 0.929 . S
C1956 C1955 1.399 . S
C1956 C1957 1.385 . S
C1957 H1943 0.931 . S
C1957 C1956 1.385 . S
C1957 C1958 1.389 . S
C1958 C1957 1.389 . S
C1958 C1959 1.387 . S
C1959 H1944 0.930 . S
C1959 C1954 1.390 . S
C1959 C1958 1.387 . S
H1960 C1972 0.930 . S
H1961 C1974 0.930 . S
H1962 C1975 0.930 . S
H1963 C1979 0.959 . S
H1964 C1979 0.959 . S
H1965 C1979 0.961 . S
H1966 C1980 0.960 . S
H1967 C1980 0.961 . S
H1968 C1980 0.959 . S
H1969 C1983 0.929 . S
H1970 C1984 0.931 . S
H1971 C1986 0.930 . S
C1972 H1960 0.930 . S
C1972 C1973 1.399 . S
C1972 C1977 1.399 . S
C1973 C1972 1.399 . S
C1973 C1974 1.376 . S
C1974 H1961 0.930 . S
C1974 C1973 1.376 . S
C1974 C1975 1.388 . S
C1975 H1962 0.930 . S
C1975 C1974 1.388 . S
C1975 C1976 1.390 . S
C1976 C1975 1.390 . S
C1976 C1977 1.394 . S
C1976 C1982 1.465 . S
C1977 C1972 1.399 . S
C1977 C1976 1.394 . S
C1977 C1978 1.516 . S
C1978 C1977 1.516 . S
C1978 C1979 1.502 . S
C1978 C1980 1.561 . S
C1978 C1981 1.526 . S
C1979 H1963 0.959 . S
C1979 H1964 0.959 . S
C1979 H1965 0.961 . S
C1979 C1978 1.502 . S
C1980 H1966 0.960 . S
C1980 H1967 0.961 . S
C1980 H1968 0.959 . S
C1980 C1978 1.561 . S
C1981 C1978 1.526 . S
C1981 C1982 1.396 . S
C1981 C1986 1.390 . S
C1982 C1976 1.465 . S
C1982 C1981 1.396 . S
C1982 C1983 1.399 . S
C1983 H1969 0.929 . S
C1983 C1982 1.399 . S
C1983 C1984 1.385 . S
C1984 H1970 0.931 . S
C1984 C1983 1.385 . S
C1984 C1985 1.389 . S
C1985 C1984 1.389 . S
C1985 C1986 1.387 . S
C1986 H1971 0.930 . S
C1986 C1981 1.390 . S
C1986 C1985 1.387 . S
H1987 C1999 0.930 . S
H1988 C2001 0.930 . S
H1989 C2002 0.930 . S
H1990 C2006 0.959 . S
H1991 C2006 0.959 . S
H1992 C2006 0.961 . S
H1993 C2007 0.960 . S
H1994 C2007 0.961 . S
H1995 C2007 0.959 . S
H1996 C2010 0.929 . S
H1997 C2011 0.931 . S
H1998 C2013 0.930 . S
C1999 H1987 0.930 . S
C1999 C2000 1.399 . S
C1999 C2004 1.399 . S
C2000 C1999 1.399 . S
C2000 C2001 1.376 . S
C2001 H1988 0.930 . S
C2001 C2000 1.376 . S
C2001 C2002 1.388 . S
C2002 H1989 0.930 . S
C2002 C2001 1.388 . S
C2002 C2003 1.390 . S
C2003 C2002 1.390 . S
C2003 C2004 1.394 . S
C2003 C2009 1.465 . S
C2004 C1999 1.399 . S
C2004 C2003 1.394 . S
C2004 C2005 1.516 . S
C2005 C2004 1.516 . S
C2005 C2006 1.502 . S
C2005 C2007 1.561 . S
C2005 C2008 1.526 . S
C2006 H1990 0.959 . S
C2006 H1991 0.959 . S
C2006 H1992 0.961 . S
C2006 C2005 1.502 . S
C2007 H1993 0.960 . S
C2007 H1994 0.961 . S
C2007 H1995 0.959 . S
C2007 C2005 1.561 . S
C2008 C2005 1.526 . S
C2008 C2009 1.396 . S
C2008 C2013 1.390 . S
C2009 C2003 1.465 . S
C2009 C2008 1.396 . S
C2009 C2010 1.399 . S
C2010 H1996 0.929 . S
C2010 C2009 1.399 . S
C2010 C2011 1.385 . S
C2011 H1997 0.931 . S
C2011 C2010 1.385 . S
C2011 C2012 1.389 . S
C2012 C2011 1.389 . S
C2012 C2013 1.387 . S
C2013 H1998 0.930 . S
C2013 C2008 1.390 . S
C2013 C2012 1.387 . S
H2014 C2026 0.930 . S
H2015 C2028 0.930 . S
H2016 C2029 0.930 . S
H2017 C2033 0.959 . S
H2018 C2033 0.959 . S
H2019 C2033 0.961 . S
H2020 C2034 0.960 . S
H2021 C2034 0.961 . S
H2022 C2034 0.959 . S
H2023 C2037 0.929 . S
H2024 C2038 0.931 . S
H2025 C2040 0.930 . S
C2026 H2014 0.930 . S
C2026 C2027 1.399 . S
C2026 C2031 1.399 . S
C2027 C2026 1.399 . S
C2027 C2028 1.376 . S
C2028 H2015 0.930 . S
C2028 C2027 1.376 . S
C2028 C2029 1.388 . S
C2029 H2016 0.930 . S
C2029 C2028 1.388 . S
C2029 C2030 1.390 . S
C2030 C2029 1.390 . S
C2030 C2031 1.394 . S
C2030 C2036 1.465 . S
C2031 C2026 1.399 . S
C2031 C2030 1.394 . S
C2031 C2032 1.516 . S
C2032 C2031 1.516 . S
C2032 C2033 1.502 . S
C2032 C2034 1.561 . S
C2032 C2035 1.526 . S
C2033 H2017 0.959 . S
C2033 H2018 0.959 . S
C2033 H2019 0.961 . S
C2033 C2032 1.502 . S
C2034 H2020 0.960 . S
C2034 H2021 0.961 . S
C2034 H2022 0.959 . S
C2034 C2032 1.561 . S
C2035 C2032 1.526 . S
C2035 C2036 1.396 . S
C2035 C2040 1.390 . S
C2036 C2030 1.465 . S
C2036 C2035 1.396 . S
C2036 C2037 1.399 . S
C2037 H2023 0.929 . S
C2037 C2036 1.399 . S
C2037 C2038 1.385 . S
C2038 H2024 0.931 . S
C2038 C2037 1.385 . S
C2038 C2039 1.389 . S
C2039 C2038 1.389 . S
C2039 C2040 1.387 . S
C2040 H2025 0.930 . S
C2040 C2035 1.390 . S
C2040 C2039 1.387 . S
H2041 C2053 0.930 . S
H2042 C2055 0.930 . S
H2043 C2056 0.930 . S
H2044 C2060 0.959 . S
H2045 C2060 0.959 . S
H2046 C2060 0.961 . S
H2047 C2061 0.960 . S
H2048 C2061 0.961 . S
H2049 C2061 0.959 . S
H2050 C2064 0.929 . S
H2051 C2065 0.931 . S
H2052 C2067 0.930 . S
C2053 H2041 0.930 . S
C2053 C2054 1.399 . S
C2053 C2058 1.399 . S
C2054 C2053 1.399 . S
C2054 C2055 1.376 . S
C2055 H2042 0.930 . S
C2055 C2054 1.376 . S
C2055 C2056 1.388 . S
C2056 H2043 0.930 . S
C2056 C2055 1.388 . S
C2056 C2057 1.390 . S
C2057 C2056 1.390 . S
C2057 C2058 1.394 . S
C2057 C2063 1.465 . S
C2058 C2053 1.399 . S
C2058 C2057 1.394 . S
C2058 C2059 1.516 . S
C2059 C2058 1.516 . S
C2059 C2060 1.502 . S
C2059 C2061 1.561 . S
C2059 C2062 1.526 . S
C2060 H2044 0.959 . S
C2060 H2045 0.959 . S
C2060 H2046 0.961 . S
C2060 C2059 1.502 . S
C2061 H2047 0.960 . S
C2061 H2048 0.961 . S
C2061 H2049 0.959 . S
C2061 C2059 1.561 . S
C2062 C2059 1.526 . S
C2062 C2063 1.396 . S
C2062 C2067 1.390 . S
C2063 C2057 1.465 . S
C2063 C2062 1.396 . S
C2063 C2064 1.399 . S
C2064 H2050 0.929 . S
C2064 C2063 1.399 . S
C2064 C2065 1.385 . S
C2065 H2051 0.931 . S
C2065 C2064 1.385 . S
C2065 C2066 1.389 . S
C2066 C2065 1.389 . S
C2066 C2067 1.387 . S
C2067 H2052 0.930 . S
C2067 C2062 1.390 . S
C2067 C2066 1.387 . S
H2068 C2080 0.930 . S
H2069 C2082 0.930 . S
H2070 C2083 0.930 . S
H2071 C2087 0.959 . S
H2072 C2087 0.959 . S
H2073 C2087 0.961 . S
H2074 C2088 0.960 . S
H2075 C2088 0.961 . S
H2076 C2088 0.959 . S
H2077 C2091 0.929 . S
H2078 C2092 0.931 . S
H2079 C2094 0.930 . S
C2080 H2068 0.930 . S
C2080 C2081 1.399 . S
C2080 C2085 1.399 . S
C2081 C2080 1.399 . S
C2081 C2082 1.376 . S
C2082 H2069 0.930 . S
C2082 C2081 1.376 . S
C2082 C2083 1.388 . S
C2083 H2070 0.930 . S
C2083 C2082 1.388 . S
C2083 C2084 1.390 . S
C2084 C2083 1.390 . S
C2084 C2085 1.394 . S
C2084 C2090 1.465 . S
C2085 C2080 1.399 . S
C2085 C2084 1.394 . S
C2085 C2086 1.516 . S
C2086 C2085 1.516 . S
C2086 C2087 1.502 . S
C2086 C2088 1.561 . S
C2086 C2089 1.526 . S
C2087 H2071 0.959 . S
C2087 H2072 0.959 . S
C2087 H2073 0.961 . S
C2087 C2086 1.502 . S
C2088 H2074 0.960 . S
C2088 H2075 0.961 . S
C2088 H2076 0.959 . S
C2088 C2086 1.561 . S
C2089 C2086 1.526 . S
C2089 C2090 1.396 . S
C2089 C2094 1.390 . S
C2090 C2084 1.465 . S
C2090 C2089 1.396 . S
C2090 C2091 1.399 . S
C2091 H2077 0.929 . S
C2091 C2090 1.399 . S
C2091 C2092 1.385 . S
C2092 H2078 0.931 . S
C2092 C2091 1.385 . S
C2092 C2093 1.389 . S
C2093 C2092 1.389 . S
C2093 C2094 1.387 . S
C2094 H2079 0.930 . S
C2094 C2089 1.390 . S
C2094 C2093 1.387 . S
H2095 C2107 0.930 . S
H2096 C2109 0.930 . S
H2097 C2110 0.930 . S
H2098 C2114 0.959 . S
H2099 C2114 0.959 . S
H2100 C2114 0.961 . S
H2101 C2115 0.960 . S
H2102 C2115 0.961 . S
H2103 C2115 0.959 . S
H2104 C2118 0.929 . S
H2105 C2119 0.931 . S
H2106 C2121 0.930 . S
C2107 H2095 0.930 . S
C2107 C2108 1.399 . S
C2107 C2112 1.399 . S
C2108 C2107 1.399 . S
C2108 C2109 1.376 . S
C2109 H2096 0.930 . S
C2109 C2108 1.376 . S
C2109 C2110 1.388 . S
C2110 H2097 0.930 . S
C2110 C2109 1.388 . S
C2110 C2111 1.390 . S
C2111 C2110 1.390 . S
C2111 C2112 1.394 . S
C2111 C2117 1.465 . S
C2112 C2107 1.399 . S
C2112 C2111 1.394 . S
C2112 C2113 1.516 . S
C2113 C2112 1.516 . S
C2113 C2114 1.502 . S
C2113 C2115 1.561 . S
C2113 C2116 1.526 . S
C2114 H2098 0.959 . S
C2114 H2099 0.959 . S
C2114 H2100 0.961 . S
C2114 C2113 1.502 . S
C2115 H2101 0.960 . S
C2115 H2102 0.961 . S
C2115 H2103 0.959 . S
C2115 C2113 1.561 . S
C2116 C2113 1.526 . S
C2116 C2117 1.396 . S
C2116 C2121 1.390 . S
C2117 C2111 1.465 . S
C2117 C2116 1.396 . S
C2117 C2118 1.399 . S
C2118 H2104 0.929 . S
C2118 C2117 1.399 . S
C2118 C2119 1.385 . S
C2119 H2105 0.931 . S
C2119 C2118 1.385 . S
C2119 C2120 1.389 . S
C2120 C2119 1.389 . S
C2120 C2121 1.387 . S
C2121 H2106 0.930 . S
C2121 C2116 1.390 . S
C2121 C2120 1.387 . S
H2122 C2134 0.930 . S
H2123 C2136 0.930 . S
H2124 C2137 0.930 . S
H2125 C2141 0.959 . S
H2126 C2141 0.959 . S
H2127 C2141 0.961 . S
H2128 C2142 0.960 . S
H2129 C2142 0.961 . S
H2130 C2142 0.959 . S
H2131 C2145 0.929 . S
H2132 C2146 0.931 . S
H2133 C2148 0.930 . S
C2134 H2122 0.930 . S
C2134 C2135 1.399 . S
C2134 C2139 1.399 . S
C2135 C2134 1.399 . S
C2135 C2136 1.376 . S
C2136 H2123 0.930 . S
C2136 C2135 1.376 . S
C2136 C2137 1.388 . S
C2137 H2124 0.930 . S
C2137 C2136 1.388 . S
C2137 C2138 1.390 . S
C2138 C2137 1.390 . S
C2138 C2139 1.394 . S
C2138 C2144 1.465 . S
C2139 C2134 1.399 . S
C2139 C2138 1.394 . S
C2139 C2140 1.516 . S
C2140 C2139 1.516 . S
C2140 C2141 1.502 . S
C2140 C2142 1.561 . S
C2140 C2143 1.526 . S
C2141 H2125 0.959 . S
C2141 H2126 0.959 . S
C2141 H2127 0.961 . S
C2141 C2140 1.502 . S
C2142 H2128 0.960 . S
C2142 H2129 0.961 . S
C2142 H2130 0.959 . S
C2142 C2140 1.561 . S
C2143 C2140 1.526 . S
C2143 C2144 1.396 . S
C2143 C2148 1.390 . S
C2144 C2138 1.465 . S
C2144 C2143 1.396 . S
C2144 C2145 1.399 . S
C2145 H2131 0.929 . S
C2145 C2144 1.399 . S
C2145 C2146 1.385 . S
C2146 H2132 0.931 . S
C2146 C2145 1.385 . S
C2146 C2147 1.389 . S
C2147 C2146 1.389 . S
C2147 C2148 1.387 . S
C2148 H2133 0.930 . S
C2148 C2143 1.390 . S
C2148 C2147 1.387 . S
H2149 C2161 0.930 . S
H2150 C2163 0.930 . S
H2151 C2164 0.930 . S
H2152 C2168 0.959 . S
H2153 C2168 0.959 . S
H2154 C2168 0.961 . S
H2155 C2169 0.960 . S
H2156 C2169 0.961 . S
H2157 C2169 0.959 . S
H2158 C2172 0.929 . S
H2159 C2173 0.931 . S
H2160 C2175 0.930 . S
C2161 H2149 0.930 . S
C2161 C2162 1.399 . S
C2161 C2166 1.399 . S
C2162 C2161 1.399 . S
C2162 C2163 1.376 . S
C2163 H2150 0.930 . S
C2163 C2162 1.376 . S
C2163 C2164 1.388 . S
C2164 H2151 0.930 . S
C2164 C2163 1.388 . S
C2164 C2165 1.390 . S
C2165 C2164 1.390 . S
C2165 C2166 1.394 . S
C2165 C2171 1.465 . S
C2166 C2161 1.399 . S
C2166 C2165 1.394 . S
C2166 C2167 1.516 . S
C2167 C2166 1.516 . S
C2167 C2168 1.502 . S
C2167 C2169 1.561 . S
C2167 C2170 1.526 . S
C2168 H2152 0.959 . S
C2168 H2153 0.959 . S
C2168 H2154 0.961 . S
C2168 C2167 1.502 . S
C2169 H2155 0.960 . S
C2169 H2156 0.961 . S
C2169 H2157 0.959 . S
C2169 C2167 1.561 . S
C2170 C2167 1.526 . S
C2170 C2171 1.396 . S
C2170 C2175 1.390 . S
C2171 C2165 1.465 . S
C2171 C2170 1.396 . S
C2171 C2172 1.399 . S
C2172 H2158 0.929 . S
C2172 C2171 1.399 . S
C2172 C2173 1.385 . S
C2173 H2159 0.931 . S
C2173 C2172 1.385 . S
C2173 C2174 1.389 . S
C2174 C2173 1.389 . S
C2174 C2175 1.387 . S
C2175 H2160 0.930 . S
C2175 C2170 1.390 . S
C2175 C2174 1.387 . S
C461 C222 1.213 . S
C473 C12 1.216 . S
C488 C18 1.303 . S
C500 C180 1.319 . S
C515 C40 1.239 . S
C527 C194 1.238 . S
C542 C208 1.348 . S
C554 C46 1.283 . S
C569 C68 1.239 . S
C581 C138 1.237 . S
C596 C74 1.307 . S
C608 C152 1.318 . S
C623 C166 1.221 . S
C635 C96 1.223 . S
C650 C124 1.346 . S
C662 C102 1.282 . S
C677 C236 1.198 . S
C689 C446 1.191 . S
C704 C242 1.327 . S
C716 C404 1.357 . S
C731 C264 1.240 . S
C743 C418 1.240 . S
C758 C432 1.356 . S
C770 C270 1.294 . S
C785 C292 1.232 . S
C797 C362 1.227 . S
C812 C298 1.327 . S
C824 C376 1.357 . S
C839 C390 1.204 . S
C851 C320 1.213 . S
C866 C326 1.309 . S
C878 C348 1.317 . S
C893 C173 0.970 . S
C905 C5 0.996 . S
C920 C25 1.018 . S
C932 C187 1.073 . S
C947 C201 1.029 . S
C959 C33 1.056 . S
C974 C53 1.103 . S
C986 C215 0.975 . S
C1001 C61 1.086 . S
C1013 C117 1.064 . S
C1028 C131 1.061 . S
C1040 C81 1.055 . S
C1055 C145 1.073 . S
C1067 C89 1.050 . S
C1082 C159 1.075 . S
C1094 C109 1.044 . S
C1109 C229 1.088 . S
C1121 C397 1.066 . S
C1136 C411 1.085 . S
C1148 C249 1.034 . S
C1163 C257 1.087 . S
C1175 C425 1.065 . S
C1190 C277 1.015 . S
C1202 C439 1.082 . S
C1217 C341 1.083 . S
C1229 C285 1.062 . S
C1244 C305 1.106 . S
C1256 C355 0.966 . S
C1271 C313 1.053 . S
C1283 C369 1.025 . S
C1298 C333 1.101 . S
C1310 C383 0.980 . S
C1325 C4 1.460 . S
C1337 C144 1.452 . S
C1352 C158 1.429 . S
C1364 C26 1.444 . S
C1379 C32 1.471 . S
C1391 C116 1.463 . S
C1406 C130 1.372 . S
C1418 C54 1.436 . S
C1433 C200 1.430 . S
C1445 C60 1.437 . S
C1460 C214 1.384 . S
C1472 C82 1.441 . S
C1487 C172 1.484 . S
C1499 C88 1.476 . S
C1514 C110 1.442 . S
C1526 C186 1.434 . S
C1541 C368 1.425 . S
C1553 C228 1.429 . S
C1568 C250 1.444 . S
C1580 C382 1.425 . S
C1595 C340 1.427 . S
C1607 C256 1.421 . S
C1622 C354 1.387 . S
C1634 C278 1.441 . S
C1649 C284 1.433 . S
C1661 C424 1.446 . S
C1676 C306 1.442 . S
C1688 C438 1.434 . S
C1703 C396 1.480 . S
C1715 C312 1.471 . S
C1730 C410 1.420 . S
C1742 C334 1.432 . S
C1757 C327 1.216 . S
C1769 C11 1.216 . S
C1784 C291 1.225 . S
C1796 C19 1.177 . S
C1811 C299 1.155 . S
C1823 C39 1.237 . S
C1838 C319 1.255 . S
C1850 C47 1.156 . S
C1865 C243 1.211 . S
C1877 C67 1.220 . S
C1892 C75 1.137 . S
C1904 C263 1.247 . S
C1919 C95 1.270 . S
C1931 C271 1.128 . S
C1946 C103 1.184 . S
C1958 C235 1.239 . S
C1973 C123 1.269 . S
C1985 C445 1.316 . S
C2000 C403 1.266 . S
C2012 C137 1.311 . S
C2027 C151 1.276 . S
C2039 C417 1.248 . S
C2054 C165 1.238 . S
C2066 C431 1.309 . S
C2081 C361 1.335 . S
C2093 C179 1.310 . S
C2108 C375 1.345 . S
C2120 C193 1.290 . S
C2135 C207 1.344 . S
C2147 C389 1.298 . S
C2162 C221 1.331 . S
C2174 C347 1.322 . S
