# Generated by pormake.
# Topology xfg, (7)-cn, num edge types: 1
# Building blocks:
#     Node 0, Type 0, BuildingBlock: NUHQUE_clean_sbu_2, # of connection points: 7
#     Node 1, Type 0, BuildingBlock: NUHQUE_clean_sbu_2, # of connection points: 7
#     Node 2, Type 0, BuildingBlock: NUHQUE_clean_sbu_2, # of connection points: 7
#     Node 3, Type 0, BuildingBlock: NUHQUE_clean_sbu_2, # of connection points: 7
#     Node 4, Type 0, BuildingBlock: NUHQUE_clean_sbu_2, # of connection points: 7
#     Node 5, Type 0, BuildingBlock: NUHQUE_clean_sbu_2, # of connection points: 7
#     Node 6, Type 0, BuildingBlock: NUHQUE_clean_sbu_2, # of connection points: 7
#     Node 7, Type 0, BuildingBlock: NUHQUE_clean_sbu_2, # of connection points: 7
#     Node 8, Type 0, BuildingBlock: NUHQUE_clean_sbu_2, # of connection points: 7
#     Node 9, Type 0, BuildingBlock: NUHQUE_clean_sbu_2, # of connection points: 7
#     Node 10, Type 0, BuildingBlock: NUHQUE_clean_sbu_2, # of connection points: 7
#     Node 11, Type 0, BuildingBlock: NUHQUE_clean_sbu_2, # of connection points: 7
#     Node 12, Type 0, BuildingBlock: NUHQUE_clean_sbu_2, # of connection points: 7
#     Node 13, Type 0, BuildingBlock: NUHQUE_clean_sbu_2, # of connection points: 7
#     Node 14, Type 0, BuildingBlock: NUHQUE_clean_sbu_2, # of connection points: 7
#     Node 15, Type 0, BuildingBlock: NUHQUE_clean_sbu_2, # of connection points: 7
#     Edge 16, Type (0, 0), BuildingBlock: AJUNOK_clean_linker_0, # of connection points: 2
#     Edge 17, Type (0, 0), BuildingBlock: AJUNOK_clean_linker_0, # of connection points: 2
#     Edge 18, Type (0, 0), BuildingBlock: AJUNOK_clean_linker_0, # of connection points: 2
#     Edge 19, Type (0, 0), BuildingBlock: AJUNOK_clean_linker_0, # of connection points: 2
#     Edge 20, Type (0, 0), BuildingBlock: AJUNOK_clean_linker_0, # of connection points: 2
#     Edge 21, Type (0, 0), BuildingBlock: AJUNOK_clean_linker_0, # of connection points: 2
#     Edge 22, Type (0, 0), BuildingBlock: AJUNOK_clean_linker_0, # of connection points: 2
#     Edge 23, Type (0, 0), BuildingBlock: AJUNOK_clean_linker_0, # of connection points: 2
#     Edge 24, Type (0, 0), BuildingBlock: AJUNOK_clean_linker_0, # of connection points: 2
#     Edge 25, Type (0, 0), BuildingBlock: AJUNOK_clean_linker_0, # of connection points: 2
#     Edge 26, Type (0, 0), BuildingBlock: AJUNOK_clean_linker_0, # of connection points: 2
#     Edge 27, Type (0, 0), BuildingBlock: AJUNOK_clean_linker_0, # of connection points: 2
#     Edge 28, Type (0, 0), BuildingBlock: AJUNOK_clean_linker_0, # of connection points: 2
#     Edge 29, Type (0, 0), BuildingBlock: AJUNOK_clean_linker_0, # of connection points: 2
#     Edge 30, Type (0, 0), BuildingBlock: AJUNOK_clean_linker_0, # of connection points: 2
#     Edge 31, Type (0, 0), BuildingBlock: AJUNOK_clean_linker_0, # of connection points: 2
#     Edge 32, Type (0, 0), BuildingBlock: AJUNOK_clean_linker_0, # of connection points: 2
#     Edge 33, Type (0, 0), BuildingBlock: AJUNOK_clean_linker_0, # of connection points: 2
#     Edge 34, Type (0, 0), BuildingBlock: AJUNOK_clean_linker_0, # of connection points: 2
#     Edge 35, Type (0, 0), BuildingBlock: AJUNOK_clean_linker_0, # of connection points: 2
#     Edge 36, Type (0, 0), BuildingBlock: AJUNOK_clean_linker_0, # of connection points: 2
#     Edge 37, Type (0, 0), BuildingBlock: AJUNOK_clean_linker_0, # of connection points: 2
#     Edge 38, Type (0, 0), BuildingBlock: AJUNOK_clean_linker_0, # of connection points: 2
#     Edge 39, Type (0, 0), BuildingBlock: AJUNOK_clean_linker_0, # of connection points: 2
#     Edge 40, Type (0, 0), BuildingBlock: AJUNOK_clean_linker_0, # of connection points: 2
#     Edge 41, Type (0, 0), BuildingBlock: AJUNOK_clean_linker_0, # of connection points: 2
#     Edge 42, Type (0, 0), BuildingBlock: AJUNOK_clean_linker_0, # of connection points: 2
#     Edge 43, Type (0, 0), BuildingBlock: AJUNOK_clean_linker_0, # of connection points: 2
#     Edge 44, Type (0, 0), BuildingBlock: AJUNOK_clean_linker_0, # of connection points: 2
#     Edge 45, Type (0, 0), BuildingBlock: AJUNOK_clean_linker_0, # of connection points: 2
#     Edge 46, Type (0, 0), BuildingBlock: AJUNOK_clean_linker_0, # of connection points: 2
#     Edge 47, Type (0, 0), BuildingBlock: AJUNOK_clean_linker_0, # of connection points: 2
#     Edge 48, Type (0, 0), BuildingBlock: AJUNOK_clean_linker_0, # of connection points: 2
#     Edge 49, Type (0, 0), BuildingBlock: AJUNOK_clean_linker_0, # of connection points: 2
#     Edge 50, Type (0, 0), BuildingBlock: AJUNOK_clean_linker_0, # of connection points: 2
#     Edge 51, Type (0, 0), BuildingBlock: AJUNOK_clean_linker_0, # of connection points: 2
#     Edge 52, Type (0, 0), BuildingBlock: AJUNOK_clean_linker_0, # of connection points: 2
#     Edge 53, Type (0, 0), BuildingBlock: AJUNOK_clean_linker_0, # of connection points: 2
#     Edge 54, Type (0, 0), BuildingBlock: AJUNOK_clean_linker_0, # of connection points: 2
#     Edge 55, Type (0, 0), BuildingBlock: AJUNOK_clean_linker_0, # of connection points: 2
#     Edge 56, Type (0, 0), BuildingBlock: AJUNOK_clean_linker_0, # of connection points: 2
#     Edge 57, Type (0, 0), BuildingBlock: AJUNOK_clean_linker_0, # of connection points: 2
#     Edge 58, Type (0, 0), BuildingBlock: AJUNOK_clean_linker_0, # of connection points: 2
#     Edge 59, Type (0, 0), BuildingBlock: AJUNOK_clean_linker_0, # of connection points: 2
#     Edge 60, Type (0, 0), BuildingBlock: AJUNOK_clean_linker_0, # of connection points: 2
#     Edge 61, Type (0, 0), BuildingBlock: AJUNOK_clean_linker_0, # of connection points: 2
#     Edge 62, Type (0, 0), BuildingBlock: AJUNOK_clean_linker_0, # of connection points: 2
#     Edge 63, Type (0, 0), BuildingBlock: AJUNOK_clean_linker_0, # of connection points: 2
#     Edge 64, Type (0, 0), BuildingBlock: AJUNOK_clean_linker_0, # of connection points: 2
#     Edge 65, Type (0, 0), BuildingBlock: AJUNOK_clean_linker_0, # of connection points: 2
#     Edge 66, Type (0, 0), BuildingBlock: AJUNOK_clean_linker_0, # of connection points: 2
#     Edge 67, Type (0, 0), BuildingBlock: AJUNOK_clean_linker_0, # of connection points: 2
#     Edge 68, Type (0, 0), BuildingBlock: AJUNOK_clean_linker_0, # of connection points: 2
#     Edge 69, Type (0, 0), BuildingBlock: AJUNOK_clean_linker_0, # of connection points: 2
#     Edge 70, Type (0, 0), BuildingBlock: AJUNOK_clean_linker_0, # of connection points: 2
#     Edge 71, Type (0, 0), BuildingBlock: AJUNOK_clean_linker_0, # of connection points: 2
# Relax obj value: 0.118
# Max RMSD: 0.188
# Mean RMSD: 0.188
data_MOF--net-xfg--node1-NUHQUE_clean_sbu_2--edge1-AJUNOK_clean_linker_0
_symmetry_space_group_name_H-M    P1
_symmetry_Int_Tables_number       1
_symmetry_cell_setting            triclinic
loop_
_symmetry_equiv_pos_as_xyz
'x, y, z'
_cell_length_a     24.193646
_cell_length_b     24.441129
_cell_length_c     54.616935
_cell_angle_alpha  89.940657
_cell_angle_beta   90.374707
_cell_angle_gamma 89.775512
loop_
_atom_site_label
_atom_site_type_symbol
_atom_site_fract_x
_atom_site_fract_y
_atom_site_fract_z
_atom_type_partial_charge
O0 O 0.31432 0.14327 1.00316 0.0
Tb1 Tb 0.3448 0.11019 0.03749 0.0
Eu2 Eu 0.41281 0.12684 0.08847 0.0
C3 C 0.34246 0.17752 0.98964 0.0
O4 O 0.38608 0.20196 0.99887 0.0
C5 C 0.47379 0.09692 0.03889 0.0
O6 O 0.44895 0.10765 0.12526 0.0
C7 C 0.40602 0.23244 0.08404 0.0
C8 C 0.43485 0.06193 0.13599 0.0
O9 O 0.40498 1.02622 0.12387 0.0
C10 C 0.28496 0.11124 0.08632 0.0
C11 C 0.37127 0.28232 0.08609 0.0
C12 C 0.36005 0.30951 0.06406 0.0
C13 C 0.33734 0.36171 0.064 0.0
C14 C 0.32158 0.38629 0.0859 0.0
C15 C 0.33177 0.36048 0.10836 0.0
C16 C 0.35743 0.30819 0.10859 0.0
O17 O 0.43234 0.12387 0.02852 0.0
O18 O 0.47285 0.08553 0.06249 0.0
O19 O 0.29744 1.04368 0.02202 0.0
O20 O 0.36798 1.02457 0.0428 0.0
C21 C 0.32949 1.00383 0.02889 0.0
O22 O 0.32973 0.0901 0.09604 0.0
O23 O 0.28807 0.13852 0.06568 0.0
O24 O 0.4253 0.20857 0.10388 0.0
O25 O 0.39393 0.19808 0.06627 0.0
H26 H 0.37384 0.29219 0.04683 0.0
H27 H 0.3054 0.42781 0.08554 0.0
H28 H 0.36855 0.2893 0.12588 0.0
O29 O 0.72257 0.57423 0.25293 0.0
Tb30 Tb 0.75611 0.59481 0.28865 0.0
Eu31 Eu 0.74935 0.65912 0.33815 0.0
C32 C 0.74996 0.59568 0.23454 0.0
O33 O 0.79191 0.62763 0.23974 0.0
C34 C 0.77265 0.72171 0.28893 0.0
O35 O 0.77039 0.68956 0.37561 0.0
C36 C 0.64295 0.65185 0.33346 0.0
C37 C 0.81978 0.67816 0.38417 0.0
O38 O 0.85615 0.65681 0.36917 0.0
C39 C 0.7655 0.53338 0.33642 0.0
C40 C 0.59579 0.6145 0.33656 0.0
C41 C 0.56871 0.59738 0.31514 0.0
C42 C 0.51964 0.56804 0.31642 0.0
C43 C 0.49971 0.55151 0.33916 0.0
C44 C 0.52392 0.57073 0.36076 0.0
C45 C 0.5724 0.60231 0.3596 0.0
O46 O 0.74244 0.68189 0.2795 0.0
O47 O 0.78811 0.71876 0.31207 0.0
O48 O 0.82481 0.54694 0.27518 0.0
O49 O 0.84151 0.61949 0.29503 0.0
C50 C 0.86362 0.579 0.28309 0.0
O51 O 0.7902 0.57758 0.34412 0.0
O52 O 0.73169 0.53727 0.31749 0.0
O53 O 0.6668 0.67284 0.35296 0.0
O54 O 0.67776 0.63923 0.316 0.0
H55 H 0.58322 0.61102 0.2974 0.0
H56 H 0.46099 0.52926 0.34003 0.0
H57 H 0.58997 0.61909 0.37626 0.0
O58 O 0.31696 0.9793 0.50335 0.0
Tb59 Tb 0.28485 1.01221 0.53736 0.0
Eu60 Eu 0.21825 0.99401 0.58807 0.0
C61 C 0.29114 0.94242 0.49011 0.0
O62 O 0.24919 0.91575 0.4994 0.0
C63 C 0.15583 1.02114 0.53863 0.0
O64 O 0.18885 1.00883 0.62604 0.0
C65 C 0.23248 0.88992 0.58219 0.0
C66 C 0.18736 1.05915 0.63408 0.0
O67 O 0.19765 0.09941 0.61884 0.0
C68 C 0.34326 1.02492 0.58641 0.0
C69 C 0.26799 0.84098 0.58482 0.0
C70 C 0.28516 0.81754 0.56287 0.0
C71 C 0.30836 0.76554 0.56234 0.0
C72 C 0.32002 0.73829 0.58438 0.0
C73 C 0.30598 0.76186 0.60693 0.0
C74 C 0.27823 0.81299 0.60716 0.0
O75 O 0.1977 0.99405 0.52881 0.0
O76 O 0.1565 1.03231 0.56222 0.0
O77 O 0.32465 0.08219 0.52102 0.0
O78 O 0.2548 0.09545 0.54319 0.0
C79 C 0.2913 0.11916 0.52945 0.0
O80 O 0.29569 1.0413 0.59496 0.0
O81 O 0.34405 0.99384 0.56677 0.0
O82 O 0.20689 0.91025 0.60128 0.0
O83 O 0.24773 0.92684 0.56606 0.0
H84 H 0.27713 0.83855 0.54569 0.0
H85 H 0.3376 0.69739 0.58398 0.0
H86 H 0.26397 0.82996 0.62432 0.0
O87 O 0.90741 0.55886 0.75334 0.0
Tb88 Tb 0.8693 0.52926 0.78684 0.0
Eu89 Eu 0.88202 0.46096 0.83709 0.0
C90 C 0.93857 0.52773 0.7394 0.0
O91 O 0.95646 0.48052 0.74779 0.0
C92 C 0.85577 0.40101 0.78731 0.0
O93 O 0.8674 0.4321 0.87526 0.0
C94 C 0.9877 0.47326 0.83181 0.0
C95 C 0.81786 0.43529 0.88461 0.0
O96 O 0.77564 0.44828 0.87052 0.0
C97 C 0.86037 0.586 0.83612 0.0
C98 C 1.0358 0.50987 0.83481 0.0
C99 C 1.06161 0.52562 0.81306 0.0
C100 C 0.11309 0.55043 0.81352 0.0
C101 C 0.13744 0.56433 0.83587 0.0
C102 C 0.11348 0.54843 0.85807 0.0
C103 C 1.06208 0.52096 0.8576 0.0
O104 O 0.88408 0.44243 0.77828 0.0
O105 O 0.84335 0.40034 0.8108 0.0
O106 O 0.8021 0.57462 0.77006 0.0
O107 O 0.78301 0.50576 0.79157 0.0
C108 C 0.76203 0.54438 0.77794 0.0
O109 O 0.83861 0.54059 0.84412 0.0
O110 O 0.89197 0.58473 0.81666 0.0
O111 O 0.96631 0.44904 0.85098 0.0
O112 O 0.95106 0.48709 0.81503 0.0
H113 H 1.04434 0.51329 0.79551 0.0
H114 H 0.17839 0.58238 0.8359 0.0
H115 H 1.04469 0.50569 0.8745 0.0
O116 O 0.82201 0.97706 0.00847 0.0
Tb117 Tb 0.79232 1.02029 0.97624 0.0
Eu118 Eu 0.71679 0.99269 0.92552 0.0
C119 C 0.79146 0.94314 0.02115 0.0
O120 O 0.74522 0.92433 0.01177 0.0
C121 C 0.65784 1.02536 0.97676 0.0
O122 O 0.68717 1.00976 0.88732 0.0
C123 C 0.74712 0.8917 0.92506 0.0
C124 C 0.69121 1.05865 0.87765 0.0
O125 O 0.7034 0.10056 0.89168 0.0
C126 C 0.83925 1.02956 0.92539 0.0
C127 C 0.76426 0.83399 0.92564 0.0
C128 C 0.76792 0.809 0.94853 0.0
C129 C 0.78843 0.75613 0.95076 0.0
C130 C 0.80563 0.72738 0.93003 0.0
C131 C 0.80282 0.75142 0.9067 0.0
C132 C 0.7809 0.80499 0.90445 0.0
O133 O 0.70575 1.01924 0.98824 0.0
O134 O 0.65162 1.01907 0.95284 0.0
O135 O 0.78272 0.10878 0.97239 0.0
O136 O 0.84773 0.07629 0.99436 0.0
C137 C 0.82457 0.12093 0.98651 0.0
O138 O 0.78996 1.04664 0.91881 0.0
O139 O 0.84423 0.99947 0.94517 0.0
O140 O 0.71076 0.91087 0.90925 0.0
O141 O 0.7629 0.926 0.94229 0.0
H142 H 0.75535 0.83102 0.96484 0.0
H143 H 0.82065 0.68572 0.9321 0.0
H144 H 0.77886 0.82454 0.88665 0.0
O145 O 0.4017 0.5631 0.75824 0.0
Tb146 Tb 0.36804 0.5333 0.72401 0.0
Eu147 Eu 0.37791 0.46363 0.67352 0.0
C148 C 0.43822 0.53587 0.77132 0.0
O149 O 0.46508 0.4946 0.7616 0.0
C150 C 0.35578 0.40533 0.72449 0.0
O151 O 0.35277 0.42687 0.63754 0.0
C152 C 0.48528 0.4713 0.67524 0.0
C153 C 0.31086 0.4491 0.62578 0.0
O154 O 0.27985 0.48528 0.63698 0.0
C155 C 0.35955 0.59002 0.67526 0.0
C156 C 0.53547 0.50617 0.67395 0.0
C157 C 0.56064 0.51878 0.69645 0.0
C158 C 0.6131 0.54143 0.69738 0.0
C159 C 0.6399 0.55559 0.67579 0.0
C160 C 0.61721 0.54264 0.65285 0.0
C161 C 0.56428 0.51778 0.65186 0.0
O162 O 0.38405 0.44685 0.73363 0.0
O163 O 0.34072 0.4053 0.70122 0.0
O164 O 0.30179 0.58174 0.7394 0.0
O165 O 0.28111 0.5107 0.71977 0.0
C166 C 0.26102 0.55098 0.7326 0.0
O167 O 0.33617 0.54476 0.6681 0.0
O168 O 0.39266 0.58836 0.69439 0.0
O169 O 0.45846 0.45765 0.65522 0.0
O170 O 0.45285 0.47806 0.69424 0.0
H171 H 0.54175 0.5061 0.7135 0.0
H172 H 0.68122 0.57265 0.67698 0.0
H173 H 0.54743 0.50491 0.63439 0.0
O174 O 0.81536 0.14193 0.5068 0.0
Tb175 Tb 0.84731 0.11134 0.47248 0.0
Eu176 Eu 0.92144 0.13241 0.42322 0.0
C177 C 0.83827 0.18162 0.51937 0.0
O178 O 0.87623 0.2124 0.5093 0.0
C179 C 0.9776 0.1048 0.47415 0.0
O180 O 0.95844 0.11611 0.38659 0.0
C181 C 0.90647 0.23718 0.42735 0.0
C182 C 0.9494 0.06839 0.37654 0.0
O183 O 0.92767 1.02958 0.39003 0.0
C184 C 0.79584 0.1078 0.42183 0.0
C185 C 0.86819 0.28448 0.42548 0.0
C186 C 0.85301 0.3079 0.44774 0.0
C187 C 0.82606 0.35805 0.44857 0.0
C188 C 0.80933 0.38369 0.42684 0.0
C189 C 0.82234 0.36081 0.40402 0.0
C190 C 0.85339 0.31143 0.4033 0.0
O191 O 0.93339 0.12962 0.48313 0.0
O192 O 0.98085 0.09493 0.45047 0.0
O193 O 0.79952 1.04361 0.48629 0.0
O194 O 0.87489 1.02648 0.46876 0.0
C195 C 0.83354 1.00481 0.48043 0.0
O196 O 0.84348 0.08645 0.41599 0.0
O197 O 0.79243 0.13575 0.44229 0.0
O198 O 0.92674 0.21481 0.4075 0.0
O199 O 0.89742 0.20193 0.4451 0.0
H200 H 0.86585 0.28897 0.46487 0.0
H201 H 0.78916 0.42338 0.42766 0.0
H202 H 0.86644 0.29493 0.38586 0.0
O203 O 0.22139 0.56044 0.25627 0.0
Tb204 Tb 0.26542 0.58601 0.22365 0.0
Eu205 Eu 0.24165 0.65971 0.17414 0.0
C206 C 0.19574 0.59533 0.27064 0.0
O207 O 0.18264 0.64402 0.26222 0.0
C208 C 0.28101 0.71741 0.22395 0.0
O209 O 0.25505 0.69081 0.13633 0.0
C210 C 0.13694 0.64532 0.18004 0.0
C211 C 0.30596 0.68923 0.12863 0.0
O212 O 0.34524 0.67899 0.14473 0.0
C213 C 0.272 0.53574 0.17329 0.0
C214 C 0.08434 0.61519 0.17876 0.0
C215 C 1.05737 0.61113 0.20109 0.0
C216 C 1.00547 0.58829 0.20252 0.0
C217 C 0.97912 0.56865 0.18157 0.0
C218 C 1.00492 0.57079 0.15852 0.0
C219 C 1.05833 0.59508 0.15713 0.0
O220 O 0.26471 0.67239 0.23515 0.0
O221 O 0.28056 0.72147 0.19981 0.0
O222 O 0.3234 0.53041 0.24093 0.0
O223 O 0.35464 0.59748 0.22137 0.0
C224 C 0.36834 0.55612 0.23523 0.0
O225 O 0.28938 0.58325 0.16562 0.0
O226 O 0.241 0.53411 0.19287 0.0
O227 O 0.15685 0.67026 0.16074 0.0
O228 O 0.17439 0.6293 0.19617 0.0
H229 H 0.07646 0.62708 0.21767 0.0
H230 H 0.93758 0.5527 0.18336 0.0
H231 H 0.07935 0.59804 0.13975 0.0
O232 O 0.82101 0.65486 0.50302 0.0
Tb233 Tb 0.8454 0.61144 0.53632 0.0
Eu234 Eu 0.91809 0.63257 0.58687 0.0
C235 C 0.85762 0.68002 0.4893 0.0
O236 O 0.90605 0.69287 0.49851 0.0
C237 C 0.97898 0.59818 0.53738 0.0
O238 O 0.94808 0.61751 0.62513 0.0
C239 C 0.89896 0.73642 0.58198 0.0
C240 C 0.94289 0.56865 0.63473 0.0
O241 O 0.92802 0.5278 0.62055 0.0
C242 C 0.79349 0.59961 0.58617 0.0
C243 C 0.86241 0.78479 0.58466 0.0
C244 C 0.849 0.8115 0.56279 0.0
C245 C 0.8252 0.86322 0.56293 0.0
C246 C 0.80983 0.88739 0.58505 0.0
C247 C 0.82104 0.86131 0.60743 0.0
C248 C 0.84886 0.81004 0.60731 0.0
O249 O 0.93303 0.61275 0.52592 0.0
O250 O 0.98307 0.59823 0.5615 0.0
O251 O 0.79417 0.55138 0.51819 0.0
O252 O 0.85988 0.52408 0.54119 0.0
C253 C 0.82004 0.50867 0.52664 0.0
O254 O 0.84219 0.58265 0.59346 0.0
O255 O 0.79057 0.63143 0.56678 0.0
O256 O 0.92498 0.71595 0.60109 0.0
O257 O 0.88575 0.69994 0.56521 0.0
H258 H 0.86247 0.79448 0.54545 0.0
H259 H 0.79279 0.92855 0.5849 0.0
H260 H 0.86104 0.79109 0.62446 0.0
O261 O 0.22014 0.07165 0.75217 0.0
Tb262 Tb 0.26571 0.09648 0.78467 0.0
Eu263 Eu 0.24855 0.16449 0.83794 0.0
C264 C 0.1942 0.10661 0.73781 0.0
O265 O 0.1849 0.1565 0.74559 0.0
C266 C 0.28351 0.22556 0.78838 0.0
O267 O 0.27185 0.20233 0.87376 0.0
C268 C 0.14095 0.15895 0.83591 0.0
C269 C 0.317 0.18479 0.88457 0.0
O270 O 0.3501 0.15171 0.87264 0.0
C271 C 0.26527 1.03764 0.83404 0.0
C272 C 0.09453 0.11902 0.83578 0.0
C273 C 0.0745 0.10234 0.81282 0.0
C274 C 1.02885 0.06842 0.81104 0.0
C275 C 1.0064 1.0458 0.83216 0.0
C276 C 1.01784 0.06872 0.85523 0.0
C277 C 1.06399 0.10457 0.85712 0.0
O278 O 0.25922 0.18474 0.7768 0.0
O279 O 0.29069 0.22474 0.81237 0.0
O280 O 0.35586 0.10278 0.78841 0.0
O281 O 0.32115 1.04422 0.76425 0.0
C282 C 0.36697 0.06414 0.7727 0.0
O283 O 0.28673 0.0815 0.84384 0.0
O284 O 0.23713 1.04149 0.81348 0.0
O285 O 0.16824 0.16711 0.8564 0.0
O286 O 0.17314 0.15929 0.81653 0.0
H287 H 0.09113 0.11973 0.79615 0.0
H288 H 0.97273 1.01705 0.82991 0.0
H289 H 0.07417 0.12351 0.87445 0.0
O290 O 0.81115 0.47151 1.00393 0.0
Tb291 Tb 0.78074 0.50625 0.03788 0.0
Eu292 Eu 0.71091 0.49125 0.08841 0.0
C293 C 0.78021 0.4422 0.98913 0.0
O294 O 0.73302 0.42281 0.99698 0.0
C295 C 0.65248 0.52297 0.0384 0.0
O296 O 0.6796 0.51153 0.12563 0.0
C297 C 0.71878 0.38608 0.08332 0.0
C298 C 0.68896 0.56154 0.13292 0.0
O299 O 0.70345 0.5979 0.11645 0.0
C300 C 0.83902 0.50838 0.08756 0.0
C301 C 0.75728 0.3391 0.08601 0.0
C302 C 0.78138 0.31962 0.06446 0.0
C303 C 0.80926 0.26978 0.06397 0.0
C304 C 0.81621 0.24007 0.08569 0.0
C305 C 0.79418 0.25903 0.1078 0.0
C306 C 0.7641 0.30877 0.10799 0.0
O307 O 0.6929 0.49364 0.02884 0.0
O308 O 0.65299 0.53422 0.06201 0.0
O309 O 0.82806 0.57145 0.02167 0.0
O310 O 0.75976 0.59238 0.04391 0.0
C311 C 0.79898 0.61168 0.0302 0.0
O312 O 0.79347 0.52898 0.09647 0.0
O313 O 0.83736 0.48027 0.06707 0.0
O314 O 0.69741 0.40871 0.10291 0.0
O315 O 0.73044 0.42149 0.06596 0.0
H316 H 0.77515 0.34145 0.04735 0.0
H317 H 0.83575 0.20006 0.08516 0.0
H318 H 0.74422 0.32212 0.12468 0.0
O319 O 0.39906 0.06236 0.25515 0.0
Tb320 Tb 0.36787 1.02879 0.28911 0.0
Eu321 Eu 0.38643 0.95353 0.33919 0.0
C322 C 0.43349 1.03557 0.24104 0.0
O323 O 0.45959 0.99243 0.24968 0.0
C324 C 0.35809 0.89906 0.28702 0.0
O325 O 0.36509 0.91253 0.37463 0.0
C326 C 0.493 0.96912 0.33785 0.0
C327 C 0.31902 0.92773 0.38522 0.0
O328 O 0.2837 0.95791 0.37278 0.0
C329 C 0.36118 0.07883 0.33859 0.0
C330 C 0.53531 1.01299 0.33625 0.0
C331 C 0.54966 1.03134 0.3128 0.0
C332 C 0.59363 0.06684 0.30959 0.0
C333 C 0.61888 0.09047 0.32995 0.0
C334 C 0.61277 0.06663 0.35318 0.0
C335 C 0.56886 1.02896 0.35655 0.0
O336 O 0.38071 0.94338 0.27741 0.0
O337 O 0.3512 0.89459 0.31097 0.0
O338 O 0.29979 0.07925 0.2766 0.0
O339 O 0.28175 1.00467 0.29362 0.0
C340 C 0.25992 1.04624 0.28212 0.0
O341 O 0.33948 1.03185 0.34454 0.0
O342 O 0.39413 0.08006 0.31966 0.0
O343 O 0.46594 0.96301 0.35837 0.0
O344 O 0.46162 0.96151 0.31839 0.0
H345 H 0.5312 1.01307 0.29662 0.0
H346 H 0.65131 0.12012 0.32684 0.0
H347 H 0.56319 1.00974 0.37422 0.0
O348 O 0.32393 0.47601 0.50779 0.0
Tb349 Tb 0.29371 0.51414 0.47451 0.0
Eu350 Eu 0.22164 0.49906 0.42354 0.0
C351 C 0.29509 0.44048 0.52035 0.0
O352 O 0.25209 0.4166 0.5103 0.0
C353 C 0.16255 0.52469 0.47496 0.0
O354 O 0.1877 0.51742 0.38626 0.0
C355 C 0.24783 0.39677 0.42276 0.0
C356 C 0.19522 0.56525 0.37602 0.0
O357 O 0.21396 0.60613 0.38922 0.0
C358 C 0.34549 0.52604 0.42538 0.0
C359 C 0.26263 0.33831 0.42295 0.0
C360 C 0.26335 0.31204 0.44562 0.0
C361 C 0.27681 0.25701 0.4473 0.0
C362 C 0.29088 0.22752 0.42638 0.0
C363 C 0.29116 0.2526 0.40327 0.0
C364 C 0.27684 0.30869 0.4015 0.0
O365 O 0.20739 0.50437 0.48552 0.0
O366 O 0.1581 0.52899 0.4509 0.0
O367 O 0.27746 0.60162 0.47045 0.0
O368 O 0.34703 0.57439 0.49102 0.0
C369 C 0.31962 0.61709 0.4837 0.0
O370 O 0.29859 0.54838 0.41853 0.0
O371 O 0.34532 0.49151 0.44376 0.0
O372 O 0.21922 0.41951 0.40497 0.0
O373 O 0.2574 0.42823 0.44185 0.0
H374 H 0.25214 0.3341 0.46211 0.0
H375 H 0.30143 0.18453 0.42815 0.0
H376 H 0.27632 0.32874 0.3838 0.0
O377 O 0.90798 0.06507 0.25837 0.0
Tb378 Tb 0.8637 1.03344 0.22645 0.0
Eu379 Eu 0.87482 0.96322 0.17509 0.0
C380 C 0.94083 1.03358 0.27157 0.0
O381 O 0.9565 0.98608 0.2628 0.0
C382 C 0.85381 0.90249 0.22637 0.0
O383 O 0.85561 0.92611 0.13834 0.0
C384 C 0.97663 0.99469 0.17469 0.0
C385 C 0.8108 0.94181 0.12659 0.0
O386 O 0.7745 0.97255 0.13789 0.0
C387 C 0.84176 0.08515 0.17698 0.0
C388 C 1.03484 1.01265 0.17452 0.0
C389 C 1.06355 1.01266 0.19683 0.0
C390 C 0.11671 1.03405 0.19838 0.0
C391 C 0.14138 1.05571 0.1774 0.0
C392 C 0.11459 1.05559 0.15457 0.0
C393 C 1.06063 1.03343 0.15315 0.0
O394 O 0.87582 0.94659 0.23651 0.0
O395 O 0.8465 0.89956 0.20243 0.0
O396 O 0.80021 0.08012 0.24485 0.0
O397 O 0.77638 1.0129 0.22278 0.0
C398 C 0.75849 1.05238 0.23662 0.0
O399 O 0.82106 1.03747 0.1712 0.0
O400 O 0.87779 0.0874 0.19509 0.0
O401 O 0.95406 0.96888 0.15613 0.0
O402 O 0.94551 0.99883 0.19428 0.0
H403 H 1.04467 0.99518 0.21298 0.0
H404 H 0.18286 0.07197 0.17886 0.0
H405 H 1.03828 1.034 0.13591 0.0
O406 O 0.31586 0.65412 0.00931 0.0
Tb407 Tb 0.34623 0.61723 0.97549 0.0
Eu408 Eu 0.4114 0.62484 0.92331 0.0
C409 C 0.34896 0.68066 0.02434 0.0
O410 O 0.39738 0.69705 0.01674 0.0
C411 C 0.47678 0.60904 0.97341 0.0
O412 O 0.44788 0.60197 0.88714 0.0
C413 C 0.38274 0.72678 0.92175 0.0
C414 C 0.4316 0.55682 0.87643 0.0
O415 O 0.39938 0.5229 0.88821 0.0
C416 C 0.28825 0.59418 0.92743 0.0
C417 C 0.36656 0.78517 0.92136 0.0
C418 C 0.36851 0.81359 0.94356 0.0
C419 C 0.35098 0.86773 0.9448 0.0
C420 C 0.3298 0.89363 0.92392 0.0
C421 C 0.3268 0.86671 0.90132 0.0
C422 C 0.34626 0.81198 0.89995 0.0
O423 O 0.43419 0.63559 0.98281 0.0
O424 O 0.47679 0.59597 0.95006 0.0
O425 O 0.30421 0.54984 0.99283 0.0
O426 O 0.3748 0.53288 0.97157 0.0
C427 C 0.33655 0.5113 0.98508 0.0
O428 O 0.33577 0.573 0.92114 0.0
O429 O 0.28765 0.63048 0.94523 0.0
O430 O 0.40603 0.70236 0.90306 0.0
O431 O 0.37897 0.69696 0.94175 0.0
H432 H 0.38433 0.79378 0.95996 0.0
H433 H 0.31565 0.93565 0.92535 0.0
H434 H 0.34384 0.78999 0.88278 0.0
O435 O 0.72964 0.06312 0.75824 0.0
Tb436 Tb 0.76583 0.09101 0.72403 0.0
Eu437 Eu 0.75522 0.16055 0.67304 0.0
C438 C 0.70052 0.09521 0.7726 0.0
O439 O 0.68246 0.14232 0.76416 0.0
C440 C 0.78254 0.21976 0.72332 0.0
O441 O 0.7767 0.1959 0.63632 0.0
C442 C 0.64837 0.15377 0.67708 0.0
C443 C 0.81948 0.17542 0.62482 0.0
O444 O 0.85209 0.14083 0.63637 0.0
C445 C 0.77052 1.03412 0.67501 0.0
C446 C 0.59927 0.11778 0.67502 0.0
C447 C 0.57605 0.09904 0.69695 0.0
C448 C 0.5248 0.07303 0.69715 0.0
C449 C 0.49699 0.06405 0.67497 0.0
C450 C 0.51942 0.08117 0.65268 0.0
C451 C 0.57072 0.10854 0.65264 0.0
O452 O 0.75566 0.17833 0.73324 0.0
O453 O 0.79462 0.2193 0.6998 0.0
O454 O 0.85337 0.10999 0.71934 0.0
O455 O 0.83088 1.04004 0.7392 0.0
C456 C 0.87261 0.0691 0.73216 0.0
O457 O 0.79486 0.07841 0.66728 0.0
O458 O 0.73836 1.03736 0.69426 0.0
O459 O 0.67252 0.17144 0.65714 0.0
O460 O 0.68321 0.14357 0.6951 0.0
H461 H 0.59656 0.10729 0.71427 0.0
H462 H 0.45591 1.04639 0.67505 0.0
H463 H 0.58685 0.12436 0.6356 0.0
C464 C 0.34323 0.22866 0.92404 0.0
C465 C 0.31934 0.18495 0.9113 0.0
C466 C 0.34906 0.22671 0.9496 0.0
C467 C 0.33034 0.18138 0.96311 0.0
H468 H 0.35867 0.26381 0.91416 0.0
H469 H 0.36907 0.26058 0.9588 0.0
S470 S 0.26339 1.05692 0.93748 0.0
N471 N 0.2761 0.09567 0.9134 0.0
N472 N 0.28565 0.09198 0.96141 0.0
C473 C 0.30468 0.13806 0.95037 0.0
C474 C 0.2996 0.13985 0.92441 0.0
C475 C 0.67017 0.55126 0.17769 0.0
C476 C 0.70387 0.57047 0.15871 0.0
C477 C 0.68538 0.55894 0.20233 0.0
C478 C 0.73523 0.58516 0.20862 0.0
H479 H 0.63159 0.53087 0.17347 0.0
H480 H 0.65772 0.54474 0.21647 0.0
S481 S 0.84268 0.63289 0.16513 0.0
N482 N 0.79207 0.61023 0.14756 0.0
N483 N 0.8213 0.62411 0.19349 0.0
C484 C 0.77059 0.60173 0.18959 0.0
C485 C 0.75477 0.59446 0.1647 0.0
C486 C 0.30051 0.88418 0.42573 0.0
C487 C 0.31702 0.92975 0.41204 0.0
C488 C 0.29347 0.88812 0.45119 0.0
C489 C 0.30377 0.93747 0.4637 0.0
H490 H 0.29145 0.84587 0.41662 0.0
H491 H 0.27923 0.85252 0.46112 0.0
S492 S 0.3488 0.06836 0.43552 0.0
N493 N 0.34413 1.02527 0.41235 0.0
N494 N 0.33185 1.03289 0.4601 0.0
C495 C 0.32182 0.98296 0.45006 0.0
C496 C 0.32818 0.97903 0.42421 0.0
C497 C 0.95523 0.50806 0.67105 0.0
C498 C 0.94663 0.56081 0.66153 0.0
C499 C 0.95485 0.4984 0.69631 0.0
C500 C 0.94479 0.54095 0.71308 0.0
H501 H 0.96169 0.47367 0.65888 0.0
H502 H 0.96058 0.45673 0.70263 0.0
S503 S 0.91829 0.68663 0.69751 0.0
N504 N 0.92749 0.65647 0.6708 0.0
N505 N 0.92563 0.63801 0.71831 0.0
C506 C 0.93619 0.59406 0.70382 0.0
C507 C 0.93747 0.60409 0.67805 0.0
C508 C 0.8079 0.98913 0.06097 0.0
C509 C 0.80075 0.94018 0.04781 0.0
C510 C 0.81142 0.98889 0.08655 0.0
C511 C 0.80934 0.93962 0.09975 0.0
H512 H 0.80884 1.02812 0.0515 0.0
H513 H 0.81554 1.02756 0.0961 0.0
S514 S 0.79532 0.80045 0.0739 0.0
N515 N 0.79336 0.84127 0.04974 0.0
N516 N 0.80303 0.84066 0.098 0.0
C517 C 0.80451 0.89031 0.08686 0.0
C518 C 0.79925 0.89065 0.06079 0.0
C519 C 0.38742 0.56027 0.83564 0.0
C520 C 0.43539 0.55267 0.84982 0.0
C521 C 0.3893 0.55667 0.81011 0.0
C522 C 0.43904 0.54407 0.79804 0.0
H523 H 0.34824 0.56915 0.84435 0.0
H524 H 0.35118 0.56218 0.79985 0.0
S525 S 0.5757 0.52116 0.82732 0.0
N526 N 0.53383 0.53401 0.85042 0.0
N527 N 0.53707 0.52419 0.80228 0.0
C528 C 0.48714 0.53632 0.81214 0.0
C529 C 0.48544 0.54155 0.83812 0.0
C530 C 0.82697 0.13074 0.58438 0.0
C531 C 0.82262 0.17924 0.59802 0.0
C532 C 0.83015 0.13213 0.55885 0.0
C533 C 0.83058 0.18219 0.54611 0.0
H534 H 0.82748 0.09132 0.59352 0.0
H535 H 0.83383 0.09372 0.54908 0.0
S536 S 0.81879 0.32037 0.57334 0.0
N537 N 0.81647 0.27839 0.59708 0.0
N538 N 0.82553 0.28119 0.54888 0.0
C539 C 0.82612 0.23094 0.5595 0.0
C540 C 0.82113 0.22942 0.58554 0.0
C541 C 0.17018 0.62468 0.31297 0.0
C542 C 0.19116 0.5839 0.29727 0.0
C543 C 0.17099 0.61813 0.33845 0.0
C544 C 0.19179 0.57016 0.3492 0.0
H545 H 0.15426 0.66281 0.30561 0.0
H546 H 0.15545 0.65095 0.34985 0.0
S547 S 0.25524 0.45231 0.31693 0.0
N548 N 0.2361 0.49457 0.29483 0.0
N549 N 0.23624 0.48204 0.34268 0.0
C550 C 0.21272 0.52881 0.33392 0.0
C551 C 0.21271 0.53572 0.30796 0.0
C552 C 0.78902 0.69699 0.4271 0.0
C553 C 0.8313 0.68155 0.41081 0.0
C554 C 0.79773 0.69673 0.45253 0.0
C555 C 0.84929 0.68214 0.46252 0.0
H556 H 0.74847 0.70841 0.42025 0.0
H557 H 0.76397 0.7081 0.46445 0.0
S558 S 0.97176 0.63277 0.42822 0.0
N559 N 0.92552 0.64745 0.40685 0.0
N560 N 0.94187 0.64765 0.45448 0.0
C561 C 0.89167 0.66587 0.44654 0.0
C562 C 0.88269 0.66549 0.42072 0.0
C563 C 0.20397 1.0311 0.67736 0.0
C564 C 0.18299 0.06958 0.66051 0.0
C565 C 0.2054 1.04252 0.70247 0.0
C566 C 0.18539 0.09265 0.71167 0.0
H567 H 0.22148 0.99278 0.67105 0.0
H568 H 0.22402 1.01246 0.71459 0.0
S569 S 0.12264 0.20505 0.67486 0.0
N570 N 0.13954 0.15812 0.65452 0.0
N571 N 0.1413 0.17976 0.70172 0.0
C572 C 0.16253 0.13054 0.69494 0.0
C573 C 0.16165 0.11899 0.66937 0.0
C574 C 0.76347 0.40281 0.94755 0.0
C575 C 0.79439 0.43783 0.96282 0.0
C576 C 0.77166 0.40171 0.92219 0.0
C577 C 0.81166 0.43484 0.91129 0.0
H578 H 0.73183 0.37671 0.95514 0.0
H579 H 0.74644 0.37488 0.91101 0.0
S580 S 0.901 0.53686 0.94221 0.0
N581 N 0.86499 0.50894 0.96454 0.0
N582 N 0.88099 0.50541 0.91693 0.0
C583 C 0.84321 0.46989 0.92611 0.0
C584 C 0.83448 0.4717 0.9519 0.0
C585 C 0.48133 1.03578 0.17505 0.0
C586 C 0.43626 1.05935 0.16272 0.0
C587 C 0.48092 1.03 0.2006 0.0
C588 C 0.43569 1.04824 0.21455 0.0
H589 H 0.51647 1.02067 0.16485 0.0
H590 H 0.51591 1.01031 0.20945 0.0
S591 S 0.30778 0.11402 0.19005 0.0
N592 N 0.34576 0.1018 0.16563 0.0
N593 N 0.34471 0.09197 0.21365 0.0
C594 C 0.39088 0.07345 0.20221 0.0
C595 C 0.39124 0.07869 0.17623 0.0
C596 C 0.30396 0.49318 0.58508 0.0
C597 C 0.30753 0.44494 0.59903 0.0
C598 C 0.30164 0.49111 0.55952 0.0
C599 C 0.30127 0.44067 0.54714 0.0
H600 H 0.30362 0.53282 0.59398 0.0
H601 H 0.29873 0.52923 0.5494 0.0
S602 S 0.30985 0.30323 0.57538 0.0
N603 N 0.31247 0.34581 0.59884 0.0
N604 N 0.30416 0.3418 0.5506 0.0
C605 C 0.30436 0.3923 0.56087 0.0
C606 C 0.30874 0.39447 0.58692 0.0
C607 C 0.9446 1.00068 0.31449 0.0
C608 C 0.94811 1.04457 0.29802 0.0
C609 C 0.94572 1.00879 0.33977 0.0
C610 C 0.95363 1.06111 0.34972 0.0
H611 H 0.93994 0.95963 0.30774 0.0
H612 H 0.94003 0.9736 0.35156 0.0
S613 S 0.97352 0.1894 0.31429 0.0
N614 N 0.9626 0.14218 0.29321 0.0
N615 N 0.97051 0.15745 0.34092 0.0
C616 C 0.96054 0.1054 0.33343 0.0
C617 C 0.95633 0.09722 0.30755 0.0
C618 C 0.28595 0.69967 0.05962 0.0
C619 C 0.33733 0.68193 0.0508 0.0
C620 C 0.27618 0.7029 0.08492 0.0
C621 C 0.31743 0.68811 0.10209 0.0
H622 H 0.25356 0.71185 0.04693 0.0
H623 H 0.23608 0.71704 0.09102 0.0
S624 S 0.45414 0.62738 0.08796 0.0
N625 N 0.42638 0.64144 0.06097 0.0
N626 N 0.40859 0.64807 0.10825 0.0
C627 C 0.36785 0.66769 0.09334 0.0
C628 C 0.37762 0.66436 0.06773 0.0
C629 C 0.66837 0.11251 0.84016 0.0
C630 C 0.69043 0.06493 0.85079 0.0
C631 C 0.67001 0.12074 0.81479 0.0
C632 C 0.69477 0.08216 0.79907 0.0
H633 H 0.64986 0.14376 0.85156 0.0
H634 H 0.65282 0.15846 0.80757 0.0
S635 S 0.76291 0.95237 0.81846 0.0
N636 N 0.73986 0.97947 0.84413 0.0
N637 N 0.74419 0.99521 0.7965 0.0
C638 C 0.71759 1.0344 0.80963 0.0
C639 C 0.71512 1.02572 0.83547 0.0
C640 C 0.25597 0.44003 0.15735 0.0
C641 C 0.29122 0.48516 0.16076 0.0
C642 C 0.27144 0.39588 0.14216 0.0
C643 C 0.32328 0.39468 0.13054 0.0
H644 H 0.21487 0.44054 0.16509 0.0
H645 H 0.24136 0.36435 0.1382 0.0
S646 S 0.4325 0.50011 0.13554 0.0
N647 N 0.38176 0.52378 0.15265 0.0
N648 N 0.41079 0.44082 0.12475 0.0
C649 C 0.36006 0.43781 0.13523 0.0
C650 C 0.34407 0.483 0.15017 0.0
C651 C 0.44433 0.60287 0.38469 0.0
C652 C 0.48963 0.56693 0.38291 0.0
C653 C 0.39885 0.59011 0.39927 0.0
C654 C 0.39718 0.54115 0.41281 0.0
H655 H 0.44209 0.63894 0.37315 0.0
H656 H 0.36379 0.61785 0.3991 0.0
S657 S 0.50761 0.43563 0.41582 0.0
N658 N 0.53165 0.48213 0.39671 0.0
N659 N 0.44679 0.45857 0.42493 0.0
C660 C 0.44391 0.5067 0.41252 0.0
C661 C 0.49 0.51949 0.39734 0.0
C662 C 0.37003 0.72235 0.63876 0.0
C663 C 0.31592 0.7285 0.62934 0.0
C664 C 0.38359 0.68001 0.65538 0.0
C665 C 0.34366 0.64168 0.6626 0.0
H666 H 0.40274 0.74848 0.63211 0.0
H667 H 0.42622 0.67495 0.66115 0.0
S668 S 0.19556 0.64177 0.64432 0.0
N669 N 0.22193 0.69449 0.62956 0.0
N670 N 0.24701 0.61508 0.66042 0.0
C671 C 0.28892 0.64923 0.65424 0.0
C672 C 0.27513 0.69252 0.63767 0.0
C673 C 0.24357 0.53624 0.89553 0.0
C674 C 0.2381 0.5777 0.91328 0.0
C675 C 0.20044 0.52338 0.87944 0.0
C676 C 0.1497 0.55148 0.88015 0.0
H677 H 0.28236 0.51466 0.89321 0.0
H678 H 0.20817 0.49352 0.8652 0.0
S679 S 0.11036 0.65751 0.92529 0.0
N680 N 0.17505 0.64218 0.93253 0.0
N681 N 0.09401 0.61849 0.90164 0.0
C682 C 0.14185 0.59012 0.89886 0.0
C683 C 0.18603 0.60316 0.91555 0.0
C684 C 0.80094 0.66473 0.84884 0.0
C685 C 0.85169 0.63651 0.85041 0.0
C686 C 0.78693 0.70562 0.86593 0.0
C687 C 0.82292 0.71885 0.88538 0.0
H688 H 0.77079 0.65322 0.83504 0.0
H689 H 0.74629 0.72426 0.86487 0.0
S690 S 0.96171 0.65824 0.89666 0.0
N691 N 0.93869 0.62598 0.8721 0.0
N692 N 0.913 0.70261 0.9041 0.0
C693 C 0.87491 0.69258 0.88628 0.0
C694 C 0.88908 0.65132 0.86888 0.0
C695 C 0.75122 0.5402 0.61808 0.0
C696 C 0.74382 0.58035 0.59981 0.0
C697 C 0.70795 0.52429 0.63332 0.0
C698 C 0.65505 0.54822 0.63143 0.0
H699 H 0.79145 0.52189 0.62137 0.0
H700 H 0.71701 0.49536 0.64788 0.0
S701 S 0.61085 0.64868 0.58427 0.0
N702 N 0.6771 0.63839 0.57855 0.0
N703 N 0.59584 0.60957 0.60802 0.0
C704 C 0.6456 0.58533 0.61213 0.0
C705 C 0.68994 0.60122 0.5962 0.0
C706 C 0.83418 0.46708 0.35384 0.0
C707 C 0.77852 0.48079 0.34889 0.0
C708 C 0.84842 0.42391 0.36982 0.0
C709 C 0.80747 0.39345 0.38181 0.0
H710 H 0.86704 0.4916 0.34616 0.0
H711 H 0.89163 0.41707 0.37422 0.0
S712 S 0.65595 0.4129 0.37512 0.0
N713 N 0.68253 0.45945 0.35672 0.0
N714 N 0.709 0.37952 0.38725 0.0
C715 C 0.75175 0.40553 0.37629 0.0
C716 C 0.73731 0.44883 0.35969 0.0
C717 C 0.89896 0.48649 0.1233 0.0
C718 C 0.89083 0.51622 0.10164 0.0
C719 C 0.93994 0.50145 0.14028 0.0
C720 C 0.97317 0.5484 0.13693 0.0
H721 H 0.87166 0.45289 0.12773 0.0
H722 H 0.94331 0.47763 0.15696 0.0
S723 S 0.97056 0.63722 0.08168 0.0
N724 N 0.92202 0.59133 0.07629 0.0
N725 N 0.99738 0.6216 0.10873 0.0
C726 C 0.9675 0.57652 0.11447 0.0
C727 C 0.9264 0.56022 0.09684 0.0
C728 C 0.75424 0.90631 0.63612 0.0
C729 C 0.80941 0.8933 0.63007 0.0
C730 C 0.74153 0.9492 0.65243 0.0
C731 C 0.78357 0.98145 0.66278 0.0
H732 H 0.7206 0.8854 0.62694 0.0
H733 H 0.69859 0.95974 0.65549 0.0
S734 S 0.93436 0.96309 0.65389 0.0
N735 N 0.90613 0.91473 0.63684 0.0
N736 N 0.88244 0.99566 0.66699 0.0
C737 C 0.8388 0.9673 0.65778 0.0
C738 C 0.8517 0.92317 0.64157 0.0
C739 C 0.9183 1.05726 0.86748 0.0
C740 C 0.97445 1.06138 0.87484 0.0
C741 C 0.87597 1.0465 0.88394 0.0
C742 C 0.88663 1.04035 0.90898 0.0
H743 H 0.90587 0.06221 0.8486 0.0
H744 H 0.83426 1.0426 0.87677 0.0
S745 S 1.02312 1.05541 0.93949 0.0
N746 N 1.03678 0.06307 0.91006 0.0
N747 N 0.9559 1.04447 0.94129 0.0
C748 C 0.94151 1.04673 0.91724 0.0
C749 C 0.98548 1.05736 0.90021 0.0
C750 C 0.7856 0.12736 0.14337 0.0
C751 C 0.82523 0.13395 0.16217 0.0
C752 C 0.77227 0.17 0.12725 0.0
C753 C 0.79769 0.22141 0.12917 0.0
H754 H 0.76585 0.08824 0.14036 0.0
H755 H 0.74394 0.16176 0.11226 0.0
S756 S 0.90014 0.26251 0.17631 0.0
N757 N 0.88662 0.19791 0.18287 0.0
N758 N 0.86161 0.27808 0.15217 0.0
C759 C 0.83502 0.2299 0.1486 0.0
C760 C 0.84878 0.18621 0.16518 0.0
C761 C 0.69292 0.09742 0.4129 0.0
C762 C 0.7482 0.09926 0.40483 0.0
C763 C 0.64898 0.0853 0.3965 0.0
C764 C 0.65889 0.07462 0.37151 0.0
H765 H 0.68365 0.1047 0.43199 0.0
H766 H 0.60707 0.08516 0.40333 0.0
S767 S 0.79727 0.07133 0.34171 0.0
N768 N 0.81004 0.08948 0.3702 0.0
N769 N 0.72993 0.06205 0.34041 0.0
C770 C 0.71458 0.07451 0.36368 0.0
C771 C 0.75845 0.08825 0.38001 0.0
C772 C 0.27272 0.16868 0.37909 0.0
C773 C 0.30357 0.21692 0.38184 0.0
C774 C 0.29096 0.12582 0.36425 0.0
C775 C 0.34081 0.1291 0.35115 0.0
H776 H 0.23565 0.16261 0.38978 0.0
H777 H 0.26639 0.08887 0.3638 0.0
S778 S 0.43381 0.24934 0.34954 0.0
N779 N 0.38423 0.26765 0.3686 0.0
N780 N 0.41811 0.18711 0.33997 0.0
C781 C 0.37012 0.17875 0.35215 0.0
C782 C 0.35159 0.22264 0.36763 0.0
C783 C 0.18025 0.1241 0.13667 0.0
C784 C 0.14621 0.07775 0.13314 0.0
C785 C 0.22316 0.13678 0.12053 0.0
C786 C 0.23228 0.10534 0.09952 0.0
H787 H 0.17636 0.14865 0.15308 0.0
H788 H 0.25112 0.16979 0.12517 0.0
S789 S 0.14997 0.98632 0.07893 0.0
N790 N 0.12157 1.00411 0.10521 0.0
N791 N 0.20051 1.03027 0.07416 0.0
C792 C 0.19556 0.06246 0.09429 0.0
C793 C 0.15255 1.04843 0.11112 0.0
C794 C 0.25587 0.9314 0.88394 0.0
C795 C 0.30334 0.89859 0.88013 0.0
C796 C 0.24145 0.97418 0.86793 0.0
C797 C 0.27267 0.98482 0.84695 0.0
H798 H 0.23184 0.92656 0.90047 0.0
H799 H 0.20739 1.00096 0.87272 0.0
S800 S 0.39602 0.90761 0.82644 0.0
N801 N 0.37864 0.87753 0.85239 0.0
N802 N 0.34994 0.95669 0.82179 0.0
C803 C 0.31728 0.94982 0.84168 0.0
C804 C 0.33274 0.9067 0.85827 0.0
C805 C 0.43561 0.1067 0.62889 0.0
C806 C 0.48399 0.07493 0.63055 0.0
C807 C 0.39178 0.09144 0.61351 0.0
C808 C 0.39439 1.0437 0.59908 0.0
H809 H 0.43003 0.14155 0.64089 0.0
H810 H 0.3545 0.11614 0.61379 0.0
S811 S 0.51422 0.94925 0.59514 0.0
N812 N 0.53375 0.99574 0.61535 0.0
N813 N 0.45155 0.96737 0.58593 0.0
C814 C 0.44412 1.01371 0.59921 0.0
C815 C 0.48882 1.02919 0.61512 0.0
C816 C 0.60924 0.09521 1.00286 0.0
C817 C 0.60965 1.0429 0.99191 0.0
C818 C 0.56533 0.11258 0.01798 0.0
C819 C 0.52097 0.07765 0.02346 0.0
H820 H 0.64305 0.12314 0.99954 0.0
H821 H 0.56634 0.15347 0.02559 0.0
S822 S 0.50577 0.93443 1.00185 0.0
N823 N 0.56289 0.95575 0.98851 0.0
N824 N 0.48306 0.98646 0.01835 0.0
C825 C 0.52211 1.02454 0.01339 0.0
C826 C 0.56571 1.00764 0.99729 0.0
C827 C 0.78414 0.76886 0.24756 0.0
C828 C 0.79236 0.76842 0.27318 0.0
C829 C 0.80529 0.81121 0.23263 0.0
C830 C 0.8356 0.85547 0.24251 0.0
H831 H 0.76131 0.73616 0.23884 0.0
H832 H 0.79707 0.80942 0.21313 0.0
S833 S 0.86819 0.87359 0.30871 0.0
N834 N 0.83297 0.81626 0.30767 0.0
N835 N 0.87212 0.89519 0.28012 0.0
C836 C 0.84398 0.85526 0.26816 0.0
C837 C 0.82259 0.81213 0.28327 0.0
C838 C 1.06657 1.05257 0.4819 0.0
C839 C 1.02364 0.08613 0.49092 0.0
C840 C 0.10836 1.03126 0.49736 0.0
C841 C 0.10933 1.04219 0.52271 0.0
H842 H 0.06779 1.04201 0.46266 0.0
H843 H 0.14026 1.00603 0.48926 0.0
S844 S 1.00857 0.13041 0.55568 0.0
N845 N 0.98643 0.13097 0.52703 0.0
N846 N 1.06415 0.09105 0.55592 0.0
C847 C 1.0671 0.07637 0.53196 0.0
C848 C 1.02465 0.09825 0.51618 0.0
C849 C 0.80002 0.26241 0.76499 0.0
C850 C 0.79981 0.26722 0.7392 0.0
C851 C 0.81869 0.30517 0.78031 0.0
C852 C 0.83796 0.35507 0.77065 0.0
H853 H 0.78602 0.225 0.77352 0.0
H854 H 0.81812 0.29884 0.79994 0.0
S855 S 0.8414 0.39098 0.70442 0.0
N856 N 0.8178 0.32773 0.70486 0.0
N857 N 0.85254 0.4075 0.73332 0.0
C858 C 0.83702 0.36081 0.74488 0.0
C859 C 0.81804 0.31724 0.72931 0.0
C860 C 0.35806 0.283 0.76885 0.0
C861 C 0.30155 0.27401 0.77362 0.0
C862 C 0.37561 0.32553 0.75309 0.0
C863 C 0.33729 0.36014 0.74111 0.0
H864 H 0.38891 0.25623 0.77698 0.0
H865 H 0.41942 0.33066 0.74988 0.0
S866 S 0.18506 0.35644 0.74875 0.0
N867 N 0.20781 0.30547 0.76604 0.0
N868 N 0.24036 0.38393 0.73618 0.0
C869 C 0.28083 0.35182 0.74596 0.0
C870 C 0.26308 0.30915 0.7622 0.0
C871 C 0.32121 0.75536 0.26343 0.0
C872 C 0.30015 0.76462 0.23957 0.0
C873 C 0.34027 0.79846 0.27849 0.0
C874 C 0.33985 0.85318 0.27035 0.0
H875 H 0.3234 0.71423 0.27052 0.0
H876 H 0.35595 0.78865 0.29659 0.0
S877 S 0.28632 0.90028 0.20988 0.0
N878 N 0.27772 0.83343 0.20913 0.0
N879 N 0.31498 0.91382 0.23673 0.0
C880 C 0.31892 0.86296 0.2465 0.0
C881 C 0.29879 0.81907 0.23134 0.0
C882 C 1.01706 0.55579 0.49884 0.0
C883 C 1.02688 0.58069 0.52183 0.0
C884 C 1.06071 0.53781 0.48379 0.0
C885 C 0.11627 0.54367 0.49106 0.0
H886 H 0.97507 0.54935 0.4925 0.0
H887 H 1.05077 0.5185 0.46648 0.0
S888 S 0.16503 0.61344 0.54767 0.0
N889 N 0.09695 0.6148 0.54985 0.0
N890 N 0.17869 0.58133 0.52178 0.0
C891 C 0.12677 0.57 0.51364 0.0
C892 C 0.08229 0.58833 0.52894 0.0
C893 C 0.59558 0.5213 0.99924 0.0
C894 C 0.6074 0.54532 0.02214 0.0
C895 C 0.55445 0.54295 0.98347 0.0
C896 C 0.52351 0.59 0.9897 0.0
H897 H 0.61792 0.48509 0.99349 0.0
H898 H 0.54621 0.52192 0.9664 0.0
S899 S 0.54694 0.67517 0.04501 0.0
N900 N 0.58941 0.62281 0.04872 0.0
N901 N 0.51347 0.66378 0.01907 0.0
C902 C 0.53662 0.61564 0.01207 0.0
C903 C 0.57811 0.59332 0.02823 0.0
C904 C 0.32849 0.87795 0.98919 0.0
C905 C 0.35419 0.89816 0.96795 0.0
C906 C 0.32319 0.91094 0.01008 0.0
C907 C 0.344 0.96433 0.01005 0.0
H908 H 0.30976 0.83776 0.98916 0.0
H909 H 0.30059 0.89574 0.02571 0.0
S910 S 0.41898 1.03401 0.95992 0.0
N911 N 0.40494 0.97257 0.94909 0.0
N912 N 0.39293 1.03524 0.98776 0.0
C913 C 0.37184 0.98382 0.98933 0.0
C914 C 0.37771 0.9504 0.96841 0.0
C915 C 0.95546 0.63538 0.23576 0.0
C916 C 0.97797 0.58706 0.22617 0.0
C917 C 0.92409 0.63395 0.25711 0.0
C918 C 0.91428 0.58399 0.2691 0.0
H919 H 0.95953 0.67372 0.22595 0.0
H920 H 0.9029 0.671 0.26273 0.0
S921 S 0.97273 0.44863 0.25325 0.0
N922 N 0.99556 0.49009 0.23168 0.0
N923 N 0.93515 0.48698 0.27173 0.0
C924 C 0.94079 0.53656 0.2608 0.0
C925 C 0.97288 0.53812 0.23918 0.0
C926 C 0.23686 0.15658 0.49588 0.0
C927 C 0.27768 0.16536 0.51385 0.0
C928 C 0.23567 0.1879 0.47455 0.0
C929 C 0.27442 0.22955 0.47101 0.0
H930 H 0.20906 0.12201 0.49723 0.0
H931 H 0.206 0.17798 0.46029 0.0
S932 S 0.38601 0.27155 0.51352 0.0
N933 N 0.35576 0.21963 0.5274 0.0
N934 N 0.35142 0.28129 0.48769 0.0
C935 C 0.31261 0.24153 0.48963 0.0
C936 C 0.31476 0.2086 0.51106 0.0
C937 C 0.69152 0.50316 0.72078 0.0
C938 C 0.64529 0.53798 0.72017 0.0
C939 C 0.72589 0.50129 0.74127 0.0
C940 C 0.71552 0.53468 0.7616 0.0
H941 H 0.70216 0.47854 0.70498 0.0
H942 H 0.76311 0.47657 0.74048 0.0
S943 S 0.59667 0.62812 0.77003 0.0
N944 N 0.58731 0.60204 0.7424 0.0
N945 N 0.65429 0.60035 0.78088 0.0
C946 C 0.66794 0.56738 0.76185 0.0
C947 C 0.63202 0.56846 0.74108 0.0
C948 C 0.78422 0.20655 1.00216 0.0
C949 C 0.83057 0.17241 0.99983 0.0
C950 C 0.77955 0.24163 0.02219 0.0
C951 C 0.82149 0.24406 0.04019 0.0
H952 H 0.74882 0.2019 0.99009 0.0
H953 H 0.74076 0.26316 0.02467 0.0
S954 S 0.95649 0.17242 0.03883 0.0
N955 N 0.92312 0.14999 0.01437 0.0
N956 N 0.91461 0.21692 0.05197 0.0
C957 C 0.87077 0.21514 0.03631 0.0
C958 C 0.87542 0.1793 0.01597 0.0
C959 C 0.16995 0.5774 0.75014 0.0
C960 C 0.21646 0.54285 0.75 0.0
C961 C 0.13511 0.57905 0.77061 0.0
C962 C 0.14745 0.5476 0.79151 0.0
H963 H 0.16184 0.60464 0.73487 0.0
H964 H 0.09978 0.60642 0.77051 0.0
S965 S 0.26415 0.45053 0.79978 0.0
N966 N 0.27248 0.47621 0.77209 0.0
N967 N 0.20729 0.47922 0.81039 0.0
C968 C 0.19283 0.51178 0.79114 0.0
C969 C 0.22744 0.50953 0.77038 0.0
C970 C 0.80219 0.91757 0.49875 0.0
C971 C 0.84085 0.9602 0.49785 0.0
C972 C 0.79747 0.88513 0.51984 0.0
C973 C 0.82963 0.89645 0.54072 0.0
H974 H 0.77399 0.91092 0.48357 0.0
H975 H 0.76729 0.85252 0.5202 0.0
S976 S 0.93763 1.00217 0.54717 0.0
N977 N 0.91337 1.01027 0.51906 0.0
N978 N 0.90306 0.95047 0.55889 0.0
C979 C 0.8695 0.93768 0.53968 0.0
C980 C 0.87546 0.96937 0.51814 0.0
C981 C 0.49986 0.54368 0.27259 0.0
C982 C 0.48263 0.56635 0.29499 0.0
C983 C 0.46352 0.54159 0.25244 0.0
C984 C 0.40975 0.56263 0.25442 0.0
H985 H 0.54102 0.52656 0.27088 0.0
H986 H 0.47692 0.52249 0.23559 0.0
S987 S 0.34675 0.63039 0.30823 0.0
N988 N 0.41004 0.61432 0.31712 0.0
N989 N 0.34167 0.60867 0.27971 0.0
C990 C 0.393 0.58706 0.27638 0.0
C991 C 0.42956 0.58945 0.29661 0.0
C992 C 0.77087 0.4426 0.50063 0.0
C993 C 0.8196 0.45726 0.51309 0.0
C994 C 0.77264 0.408 0.48031 0.0
C995 C 0.82319 0.3872 0.47202 0.0
H996 H 0.7318 0.46144 0.50543 0.0
H997 H 0.73478 0.39968 0.4703 0.0
S998 S 0.96198 0.41064 0.49931 0.0
N999 N 0.91916 0.44532 0.51692 0.0
N1000 N 0.92275 0.38112 0.47835 0.0
C1001 C 0.87175 0.39847 0.48536 0.0
C1002 C 0.86983 0.43313 0.50618 0.0
C1003 C 0.49251 0.10527 0.73804 0.0
C1004 C 0.49613 0.06295 0.7206 0.0
C1005 C 0.45483 0.1024 0.75734 0.0
C1006 C 0.41927 1.05747 0.75953 0.0
H1007 H 0.51541 0.14287 0.73562 0.0
H1008 H 0.44974 0.1379 0.76899 0.0
S1009 S 0.421 0.93122 0.72196 0.0
N1010 N 0.46817 0.97086 0.70943 0.0
N1011 N 0.3962 0.96604 0.74537 0.0
C1012 C 0.42679 1.01246 0.74391 0.0
C1013 C 0.4654 1.01516 0.72442 0.0
C1014 C 0.84539 0.68054 1.0052 0.0
C1015 C 0.79695 0.66378 0.01709 0.0
C1016 C 0.84263 0.71315 0.98425 0.0
C1017 C 0.79142 0.73046 0.97493 0.0
H1018 H 0.8852 0.66396 0.01071 0.0
H1019 H 0.88036 0.72227 0.9745 0.0
S1020 S 0.65349 0.70436 1.00103 0.0
N1021 N 0.69685 0.67196 0.01956 0.0
N1022 N 0.69203 0.73418 0.98013 0.0
C1023 C 0.74322 0.71878 0.98795 0.0
C1024 C 0.74592 0.68541 0.00926 0.0
C1025 C 0.23912 1.02009 0.24036 0.0
C1026 C 0.21885 1.03684 0.26307 0.0
C1027 C 0.20477 1.01636 0.22006 0.0
C1028 C 0.14896 1.03158 0.22141 0.0
H1029 H 0.28279 1.01228 0.23802 0.0
H1030 H 0.22278 1.00355 0.20289 0.0
S1031 S 0.07663 0.08005 0.27699 0.0
N1032 N 0.14043 0.06808 0.28647 0.0
N1033 N 0.07463 0.06438 0.24758 0.0
C1034 C 0.12763 1.04778 0.24427 0.0
C1035 C 0.16303 1.05011 0.26529 0.0
C1036 C 0.36427 0.70975 0.53357 0.0
C1037 C 0.31496 0.73762 0.53863 0.0
C1038 C 0.36827 0.67597 0.51309 0.0
C1039 C 0.3228 0.66853 0.49728 0.0
H1040 H 0.39894 0.71185 0.54619 0.0
H1041 H 0.4055 0.6517 0.51091 0.0
S1042 S 0.18724 0.73892 0.50039 0.0
N1043 N 0.22161 0.76051 0.52472 0.0
N1044 N 0.23001 0.69764 0.48585 0.0
C1045 C 0.27538 0.70067 0.50061 0.0
C1046 C 0.27102 0.73481 0.52158 0.0
C1047 C 0.66792 0.08969 0.24979 0.0
C1048 C 0.7085 1.04851 0.25102 0.0
C1049 C 0.62788 0.0943 0.26817 0.0
C1050 C 0.62851 1.05812 0.28811 0.0
H1051 H 0.66893 0.11995 0.2353 0.0
H1052 H 0.59819 0.12753 0.26743 0.0
S1053 S 0.72741 0.94446 0.29966 0.0
N1054 N 0.74732 0.97154 0.27348 0.0
N1055 N 0.67208 0.97954 0.30784 0.0
C1056 C 0.66778 1.0156 0.28891 0.0
C1057 C 0.708 1.01097 0.27035 0.0
C1058 C 0.30915 0.42108 1.00135 0.0
C1059 C 0.34674 0.46463 1.00086 0.0
C1060 C 0.3075 0.38583 0.02158 0.0
C1061 C 0.34197 0.39506 0.04191 0.0
H1062 H 0.27916 0.41612 0.98672 0.0
H1063 H 0.27741 0.35313 0.0219 0.0
S1064 S 0.44873 0.50223 0.04875 0.0
N1065 N 0.42093 0.51335 0.0215 0.0
N1066 N 0.41661 0.44823 0.05985 0.0
C1067 C 0.38121 0.43701 0.04108 0.0
C1068 C 0.38389 0.47166 0.02037 0.0
C1069 C 0.96908 1.05075 0.74705 0.0
C1070 C 0.91761 0.07682 0.74962 0.0
C1071 C 1.0068 1.04936 0.76677 0.0
C1072 C 0.99288 0.0731 0.78934 0.0
H1073 H 0.97915 1.02969 0.73021 0.0
H1074 H 1.0458 1.028 0.76471 0.0
S1075 S 0.86447 0.14923 0.80424 0.0
N1076 N 0.85576 0.12882 0.7757 0.0
N1077 N 0.92667 0.1276 0.81229 0.0
C1078 C 0.94271 0.10174 0.79145 0.0
C1079 C 0.90489 0.10312 0.77165 0.0
loop_
_geom_bond_atom_site_label_1
_geom_bond_atom_site_label_2
_geom_bond_distance
_geom_bond_site_symmetry_2
_ccdc_geom_bond_type
O0 Tb1 2.292 1_556 S
O0 C3 1.255 . S
Tb1 O0 2.292 1_554 S
Tb1 O17 2.326 . S
Tb1 O19 2.488 1_544 S
Tb1 O20 2.473 1_545 S
Tb1 O23 2.324 . S
Eu2 O6 2.292 . S
Eu2 C7 2.852 . S
Eu2 O18 2.324 . S
Eu2 O22 2.326 . S
Eu2 O24 2.500 . S
Eu2 O25 2.473 . S
C3 O0 1.255 . S
C3 O4 1.247 . S
O4 C3 1.247 . S
C5 O17 1.242 . S
C5 O18 1.258 . S
O6 Eu2 2.292 . S
O6 C8 1.255 . S
C7 Eu2 2.852 . S
C7 C11 1.503 . S
C7 O24 1.273 . S
C7 O25 1.257 . S
C8 O6 1.255 . S
C8 O9 1.247 . S
O9 C8 1.247 . S
C10 O22 1.242 . S
C10 O23 1.258 . S
C11 C7 1.503 . S
C11 C12 1.379 . S
C11 C16 1.392 . S
C12 C11 1.379 . S
C12 C13 1.404 . S
C12 H26 0.929 . S
C13 C12 1.404 . S
C13 C14 1.389 . S
C14 C13 1.389 . S
C14 C15 1.399 . S
C14 H27 0.931 . S
C15 C14 1.399 . S
C15 C16 1.390 . S
C16 C11 1.392 . S
C16 C15 1.390 . S
C16 H28 0.929 . S
O17 Tb1 2.326 . S
O17 C5 1.242 . S
O18 Eu2 2.324 . S
O18 C5 1.258 . S
O19 Tb1 2.488 1_566 S
O19 C21 1.240 1_556 S
O20 Tb1 2.473 1_565 S
O20 C21 1.257 . S
C21 O19 1.240 1_554 S
C21 O20 1.257 . S
O22 Eu2 2.326 . S
O22 C10 1.242 . S
O23 Tb1 2.324 . S
O23 C10 1.258 . S
O24 Eu2 2.500 . S
O24 C7 1.273 . S
O25 Eu2 2.473 . S
O25 C7 1.257 . S
H26 C12 0.929 . S
H27 C14 0.931 . S
H28 C16 0.929 . S
O29 Tb30 2.292 . S
O29 C32 1.255 . S
Tb30 O29 2.292 . S
Tb30 O46 2.326 . S
Tb30 O48 2.500 . S
Tb30 O49 2.473 . S
Tb30 O52 2.324 . S
Eu31 O35 2.292 . S
Eu31 C36 2.852 . S
Eu31 O47 2.324 . S
Eu31 O51 2.326 . S
Eu31 O53 2.500 . S
Eu31 O54 2.473 . S
C32 O29 1.255 . S
C32 O33 1.247 . S
O33 C32 1.247 . S
C34 O46 1.242 . S
C34 O47 1.258 . S
O35 Eu31 2.292 . S
O35 C37 1.255 . S
C36 Eu31 2.852 . S
C36 C40 1.503 . S
C36 O53 1.273 . S
C36 O54 1.257 . S
C37 O35 1.255 . S
C37 O38 1.247 . S
O38 C37 1.247 . S
C39 O51 1.242 . S
C39 O52 1.258 . S
C40 C36 1.503 . S
C40 C41 1.379 . S
C40 C45 1.392 . S
C41 C40 1.379 . S
C41 C42 1.404 . S
C41 H55 0.929 . S
C42 C41 1.404 . S
C42 C43 1.389 . S
C43 C42 1.389 . S
C43 C44 1.399 . S
C43 H56 0.931 . S
C44 C43 1.399 . S
C44 C45 1.390 . S
C45 C40 1.392 . S
C45 C44 1.390 . S
C45 H57 0.929 . S
O46 Tb30 2.326 . S
O46 C34 1.242 . S
O47 Eu31 2.324 . S
O47 C34 1.258 . S
O48 Tb30 2.500 . S
O48 C50 1.273 . S
O49 Tb30 2.473 . S
O49 C50 1.257 . S
C50 O48 1.273 . S
C50 O49 1.257 . S
O51 Eu31 2.326 . S
O51 C39 1.242 . S
O52 Tb30 2.324 . S
O52 C39 1.258 . S
O53 Eu31 2.500 . S
O53 C36 1.273 . S
O54 Eu31 2.473 . S
O54 C36 1.257 . S
H55 C41 0.929 . S
H56 C43 0.931 . S
H57 C45 0.929 . S
O58 Tb59 2.292 . S
O58 C61 1.255 . S
Tb59 O58 2.292 . S
Tb59 O75 2.326 . S
Tb59 O77 2.500 1_565 S
Tb59 O78 2.473 1_565 S
Tb59 O81 2.324 . S
Eu60 O64 2.292 . S
Eu60 C65 2.852 . S
Eu60 O76 2.324 . S
Eu60 O80 2.326 . S
Eu60 O82 2.500 . S
Eu60 O83 2.473 . S
C61 O58 1.255 . S
C61 O62 1.247 . S
O62 C61 1.247 . S
C63 O75 1.242 . S
C63 O76 1.258 . S
O64 Eu60 2.292 . S
O64 C66 1.255 . S
C65 Eu60 2.852 . S
C65 C69 1.503 . S
C65 O82 1.273 . S
C65 O83 1.257 . S
C66 O64 1.255 . S
C66 O67 1.247 . S
O67 C66 1.247 . S
C68 O80 1.242 . S
C68 O81 1.258 . S
C69 C65 1.503 . S
C69 C70 1.379 . S
C69 C74 1.392 . S
C70 C69 1.379 . S
C70 C71 1.404 . S
C70 H84 0.929 . S
C71 C70 1.404 . S
C71 C72 1.389 . S
C72 C71 1.389 . S
C72 C73 1.399 . S
C72 H85 0.931 . S
C73 C72 1.399 . S
C73 C74 1.390 . S
C74 C69 1.392 . S
C74 C73 1.390 . S
C74 H86 0.929 . S
O75 Tb59 2.326 . S
O75 C63 1.242 . S
O76 Eu60 2.324 . S
O76 C63 1.258 . S
O77 Tb59 2.500 1_545 S
O77 C79 1.273 . S
O78 Tb59 2.473 1_545 S
O78 C79 1.257 . S
C79 O77 1.273 . S
C79 O78 1.257 . S
O80 Eu60 2.326 . S
O80 C68 1.242 . S
O81 Tb59 2.324 . S
O81 C68 1.258 . S
O82 Eu60 2.500 . S
O82 C65 1.273 . S
O83 Eu60 2.473 . S
O83 C65 1.257 . S
H84 C70 0.929 . S
H85 C72 0.931 . S
H86 C74 0.929 . S
O87 Tb88 2.292 . S
O87 C90 1.255 . S
Tb88 O87 2.292 . S
Tb88 O104 2.326 . S
Tb88 O106 2.500 . S
Tb88 O107 2.473 . S
Tb88 O110 2.324 . S
Eu89 O93 2.292 . S
Eu89 C94 2.852 . S
Eu89 O105 2.324 . S
Eu89 O109 2.326 . S
Eu89 O111 2.500 . S
Eu89 O112 2.473 . S
C90 O87 1.255 . S
C90 O91 1.247 . S
O91 C90 1.247 . S
C92 O104 1.242 . S
C92 O105 1.258 . S
O93 Eu89 2.292 . S
O93 C95 1.255 . S
C94 Eu89 2.852 . S
C94 C98 1.503 . S
C94 O111 1.273 . S
C94 O112 1.257 . S
C95 O93 1.255 . S
C95 O96 1.247 . S
O96 C95 1.247 . S
C97 O109 1.242 . S
C97 O110 1.258 . S
C98 C94 1.503 . S
C98 C99 1.379 1_655 S
C98 C103 1.392 1_655 S
C99 C98 1.379 1_455 S
C99 C100 1.404 . S
C99 H113 0.929 1_455 S
C100 C99 1.404 . S
C100 C101 1.389 . S
C101 C100 1.389 . S
C101 C102 1.399 . S
C101 H114 0.931 . S
C102 C101 1.399 . S
C102 C103 1.390 . S
C103 C98 1.392 1_455 S
C103 C102 1.390 . S
C103 H115 0.929 . S
O104 Tb88 2.326 . S
O104 C92 1.242 . S
O105 Eu89 2.324 . S
O105 C92 1.258 . S
O106 Tb88 2.500 . S
O106 C108 1.273 . S
O107 Tb88 2.473 . S
O107 C108 1.257 . S
C108 O106 1.273 . S
C108 O107 1.257 . S
O109 Eu89 2.326 . S
O109 C97 1.242 . S
O110 Tb88 2.324 . S
O110 C97 1.258 . S
O111 Eu89 2.500 . S
O111 C94 1.273 . S
O112 Eu89 2.473 . S
O112 C94 1.257 . S
H113 C99 0.929 1_655 S
H114 C101 0.931 . S
H115 C103 0.929 . S
O116 Tb117 2.292 1_554 S
O116 C119 1.255 . S
Tb117 O116 2.292 1_556 S
Tb117 O133 2.326 . S
Tb117 O135 2.488 1_566 S
Tb117 O136 2.473 1_565 S
Tb117 O139 2.324 . S
Eu118 O122 2.292 . S
Eu118 C123 2.852 . S
Eu118 O134 2.324 . S
Eu118 O138 2.326 . S
Eu118 O140 2.500 . S
Eu118 O141 2.473 . S
C119 O116 1.255 . S
C119 O120 1.247 . S
O120 C119 1.247 . S
C121 O133 1.242 . S
C121 O134 1.258 . S
O122 Eu118 2.292 . S
O122 C124 1.255 . S
C123 Eu118 2.852 . S
C123 C127 1.503 . S
C123 O140 1.273 . S
C123 O141 1.257 . S
C124 O122 1.255 . S
C124 O125 1.247 . S
O125 C124 1.247 . S
C126 O138 1.242 . S
C126 O139 1.258 . S
C127 C123 1.503 . S
C127 C128 1.379 . S
C127 C132 1.392 . S
C128 C127 1.379 . S
C128 C129 1.404 . S
C128 H142 0.929 . S
C129 C128 1.404 . S
C129 C130 1.389 . S
C130 C129 1.389 . S
C130 C131 1.399 . S
C130 H143 0.931 . S
C131 C130 1.399 . S
C131 C132 1.390 . S
C132 C127 1.392 . S
C132 C131 1.390 . S
C132 H144 0.929 . S
O133 Tb117 2.326 . S
O133 C121 1.242 . S
O134 Eu118 2.324 . S
O134 C121 1.258 . S
O135 Tb117 2.488 1_544 S
O135 C137 1.240 1_554 S
O136 Tb117 2.473 1_545 S
O136 C137 1.257 . S
C137 O135 1.240 1_556 S
C137 O136 1.257 . S
O138 Eu118 2.326 . S
O138 C126 1.242 . S
O139 Tb117 2.324 . S
O139 C126 1.258 . S
O140 Eu118 2.500 . S
O140 C123 1.273 . S
O141 Eu118 2.473 . S
O141 C123 1.257 . S
H142 C128 0.929 . S
H143 C130 0.931 . S
H144 C132 0.929 . S
O145 Tb146 2.292 . S
O145 C148 1.255 . S
Tb146 O145 2.292 . S
Tb146 O162 2.326 . S
Tb146 O164 2.500 . S
Tb146 O165 2.473 . S
Tb146 O168 2.324 . S
Eu147 O151 2.292 . S
Eu147 C152 2.852 . S
Eu147 O163 2.324 . S
Eu147 O167 2.326 . S
Eu147 O169 2.500 . S
Eu147 O170 2.473 . S
C148 O145 1.255 . S
C148 O149 1.247 . S
O149 C148 1.247 . S
C150 O162 1.242 . S
C150 O163 1.258 . S
O151 Eu147 2.292 . S
O151 C153 1.255 . S
C152 Eu147 2.852 . S
C152 C156 1.503 . S
C152 O169 1.273 . S
C152 O170 1.257 . S
C153 O151 1.255 . S
C153 O154 1.247 . S
O154 C153 1.247 . S
C155 O167 1.242 . S
C155 O168 1.258 . S
C156 C152 1.503 . S
C156 C157 1.379 . S
C156 C161 1.392 . S
C157 C156 1.379 . S
C157 C158 1.404 . S
C157 H171 0.929 . S
C158 C157 1.404 . S
C158 C159 1.389 . S
C159 C158 1.389 . S
C159 C160 1.399 . S
C159 H172 0.931 . S
C160 C159 1.399 . S
C160 C161 1.390 . S
C161 C156 1.392 . S
C161 C160 1.390 . S
C161 H173 0.929 . S
O162 Tb146 2.326 . S
O162 C150 1.242 . S
O163 Eu147 2.324 . S
O163 C150 1.258 . S
O164 Tb146 2.500 . S
O164 C166 1.273 . S
O165 Tb146 2.473 . S
O165 C166 1.257 . S
C166 O164 1.273 . S
C166 O165 1.257 . S
O167 Eu147 2.326 . S
O167 C155 1.242 . S
O168 Tb146 2.324 . S
O168 C155 1.258 . S
O169 Eu147 2.500 . S
O169 C152 1.273 . S
O170 Eu147 2.473 . S
O170 C152 1.257 . S
H171 C157 0.929 . S
H172 C159 0.931 . S
H173 C161 0.929 . S
O174 Tb175 2.292 . S
O174 C177 1.255 . S
Tb175 O174 2.292 . S
Tb175 O191 2.326 . S
Tb175 O193 2.500 1_545 S
Tb175 O194 2.473 1_545 S
Tb175 O197 2.324 . S
Eu176 O180 2.292 . S
Eu176 C181 2.852 . S
Eu176 O192 2.324 . S
Eu176 O196 2.326 . S
Eu176 O198 2.500 . S
Eu176 O199 2.473 . S
C177 O174 1.255 . S
C177 O178 1.247 . S
O178 C177 1.247 . S
C179 O191 1.242 . S
C179 O192 1.258 . S
O180 Eu176 2.292 . S
O180 C182 1.255 . S
C181 Eu176 2.852 . S
C181 C185 1.503 . S
C181 O198 1.273 . S
C181 O199 1.257 . S
C182 O180 1.255 . S
C182 O183 1.247 . S
O183 C182 1.247 . S
C184 O196 1.242 . S
C184 O197 1.258 . S
C185 C181 1.503 . S
C185 C186 1.379 . S
C185 C190 1.392 . S
C186 C185 1.379 . S
C186 C187 1.404 . S
C186 H200 0.929 . S
C187 C186 1.404 . S
C187 C188 1.389 . S
C188 C187 1.389 . S
C188 C189 1.399 . S
C188 H201 0.931 . S
C189 C188 1.399 . S
C189 C190 1.390 . S
C190 C185 1.392 . S
C190 C189 1.390 . S
C190 H202 0.929 . S
O191 Tb175 2.326 . S
O191 C179 1.242 . S
O192 Eu176 2.324 . S
O192 C179 1.258 . S
O193 Tb175 2.500 1_565 S
O193 C195 1.273 . S
O194 Tb175 2.473 1_565 S
O194 C195 1.257 . S
C195 O193 1.273 . S
C195 O194 1.257 . S
O196 Eu176 2.326 . S
O196 C184 1.242 . S
O197 Tb175 2.324 . S
O197 C184 1.258 . S
O198 Eu176 2.500 . S
O198 C181 1.273 . S
O199 Eu176 2.473 . S
O199 C181 1.257 . S
H200 C186 0.929 . S
H201 C188 0.931 . S
H202 C190 0.929 . S
O203 Tb204 2.292 . S
O203 C206 1.255 . S
Tb204 O203 2.292 . S
Tb204 O220 2.326 . S
Tb204 O222 2.500 . S
Tb204 O223 2.473 . S
Tb204 O226 2.324 . S
Eu205 O209 2.292 . S
Eu205 C210 2.852 . S
Eu205 O221 2.324 . S
Eu205 O225 2.326 . S
Eu205 O227 2.500 . S
Eu205 O228 2.473 . S
C206 O203 1.255 . S
C206 O207 1.247 . S
O207 C206 1.247 . S
C208 O220 1.242 . S
C208 O221 1.258 . S
O209 Eu205 2.292 . S
O209 C211 1.255 . S
C210 Eu205 2.852 . S
C210 C214 1.503 . S
C210 O227 1.273 . S
C210 O228 1.257 . S
C211 O209 1.255 . S
C211 O212 1.247 . S
O212 C211 1.247 . S
C213 O225 1.242 . S
C213 O226 1.258 . S
C214 C210 1.503 . S
C214 C215 1.379 1_455 S
C214 C219 1.392 1_455 S
C215 C214 1.379 1_655 S
C215 C216 1.404 . S
C215 H229 0.929 1_655 S
C216 C215 1.404 . S
C216 C217 1.389 . S
C217 C216 1.389 . S
C217 C218 1.399 . S
C217 H230 0.931 . S
C218 C217 1.399 . S
C218 C219 1.390 . S
C219 C214 1.392 1_655 S
C219 C218 1.390 . S
C219 H231 0.929 . S
O220 Tb204 2.326 . S
O220 C208 1.242 . S
O221 Eu205 2.324 . S
O221 C208 1.258 . S
O222 Tb204 2.500 . S
O222 C224 1.273 . S
O223 Tb204 2.473 . S
O223 C224 1.257 . S
C224 O222 1.273 . S
C224 O223 1.257 . S
O225 Eu205 2.326 . S
O225 C213 1.242 . S
O226 Tb204 2.324 . S
O226 C213 1.258 . S
O227 Eu205 2.500 . S
O227 C210 1.273 . S
O228 Eu205 2.473 . S
O228 C210 1.257 . S
H229 C215 0.929 1_455 S
H230 C217 0.931 . S
H231 C219 0.929 . S
O232 Tb233 2.292 . S
O232 C235 1.255 . S
Tb233 O232 2.292 . S
Tb233 O249 2.326 . S
Tb233 O251 2.500 . S
Tb233 O252 2.473 . S
Tb233 O255 2.324 . S
Eu234 O238 2.292 . S
Eu234 C239 2.852 . S
Eu234 O250 2.324 . S
Eu234 O254 2.326 . S
Eu234 O256 2.500 . S
Eu234 O257 2.473 . S
C235 O232 1.255 . S
C235 O236 1.247 . S
O236 C235 1.247 . S
C237 O249 1.242 . S
C237 O250 1.258 . S
O238 Eu234 2.292 . S
O238 C240 1.255 . S
C239 Eu234 2.852 . S
C239 C243 1.503 . S
C239 O256 1.273 . S
C239 O257 1.257 . S
C240 O238 1.255 . S
C240 O241 1.247 . S
O241 C240 1.247 . S
C242 O254 1.242 . S
C242 O255 1.258 . S
C243 C239 1.503 . S
C243 C244 1.379 . S
C243 C248 1.392 . S
C244 C243 1.379 . S
C244 C245 1.404 . S
C244 H258 0.929 . S
C245 C244 1.404 . S
C245 C246 1.389 . S
C246 C245 1.389 . S
C246 C247 1.399 . S
C246 H259 0.931 . S
C247 C246 1.399 . S
C247 C248 1.390 . S
C248 C243 1.392 . S
C248 C247 1.390 . S
C248 H260 0.929 . S
O249 Tb233 2.326 . S
O249 C237 1.242 . S
O250 Eu234 2.324 . S
O250 C237 1.258 . S
O251 Tb233 2.500 . S
O251 C253 1.273 . S
O252 Tb233 2.473 . S
O252 C253 1.257 . S
C253 O251 1.273 . S
C253 O252 1.257 . S
O254 Eu234 2.326 . S
O254 C242 1.242 . S
O255 Tb233 2.324 . S
O255 C242 1.258 . S
O256 Eu234 2.500 . S
O256 C239 1.273 . S
O257 Eu234 2.473 . S
O257 C239 1.257 . S
H258 C244 0.929 . S
H259 C246 0.931 . S
H260 C248 0.929 . S
O261 Tb262 2.292 . S
O261 C264 1.255 . S
Tb262 O261 2.292 . S
Tb262 O278 2.326 . S
Tb262 O280 2.500 . S
Tb262 O281 2.473 . S
Tb262 O284 2.324 1_545 S
Eu263 O267 2.292 . S
Eu263 C268 2.852 . S
Eu263 O279 2.324 . S
Eu263 O283 2.326 . S
Eu263 O285 2.500 . S
Eu263 O286 2.473 . S
C264 O261 1.255 . S
C264 O265 1.247 . S
O265 C264 1.247 . S
C266 O278 1.242 . S
C266 O279 1.258 . S
O267 Eu263 2.292 . S
O267 C269 1.255 . S
C268 Eu263 2.852 . S
C268 C272 1.503 . S
C268 O285 1.273 . S
C268 O286 1.257 . S
C269 O267 1.255 . S
C269 O270 1.247 . S
O270 C269 1.247 . S
C271 O283 1.242 1_565 S
C271 O284 1.258 . S
C272 C268 1.503 . S
C272 C273 1.379 1_455 S
C272 C277 1.392 1_455 S
C273 C272 1.379 1_655 S
C273 C274 1.404 . S
C273 H287 0.929 1_655 S
C274 C273 1.404 . S
C274 C275 1.389 . S
C275 C274 1.389 . S
C275 C276 1.399 . S
C275 H288 0.931 . S
C276 C275 1.399 . S
C276 C277 1.390 . S
C277 C272 1.392 1_655 S
C277 C276 1.390 . S
C277 H289 0.929 . S
O278 Tb262 2.326 . S
O278 C266 1.242 . S
O279 Eu263 2.324 . S
O279 C266 1.258 . S
O280 Tb262 2.500 . S
O280 C282 1.273 . S
O281 Tb262 2.473 . S
O281 C282 1.257 . S
C282 O280 1.273 . S
C282 O281 1.257 . S
O283 Eu263 2.326 . S
O283 C271 1.242 1_545 S
O284 Tb262 2.324 1_565 S
O284 C271 1.258 . S
O285 Eu263 2.500 . S
O285 C268 1.273 . S
O286 Eu263 2.473 . S
O286 C268 1.257 . S
H287 C273 0.929 1_455 S
H288 C275 0.931 . S
H289 C277 0.929 . S
O290 Tb291 2.292 1_556 S
O290 C293 1.255 . S
Tb291 O290 2.292 1_554 S
Tb291 O307 2.326 . S
Tb291 O309 2.488 1_554 S
Tb291 O310 2.473 . S
Tb291 O313 2.324 . S
Eu292 O296 2.292 . S
Eu292 C297 2.852 . S
Eu292 O308 2.324 . S
Eu292 O312 2.326 . S
Eu292 O314 2.500 . S
Eu292 O315 2.473 . S
C293 O290 1.255 . S
C293 O294 1.247 . S
O294 C293 1.247 . S
C295 O307 1.242 . S
C295 O308 1.258 . S
O296 Eu292 2.292 . S
O296 C298 1.255 . S
C297 Eu292 2.852 . S
C297 C301 1.503 . S
C297 O314 1.273 . S
C297 O315 1.257 . S
C298 O296 1.255 . S
C298 O299 1.247 . S
O299 C298 1.247 . S
C300 O312 1.242 . S
C300 O313 1.258 . S
C301 C297 1.503 . S
C301 C302 1.379 . S
C301 C306 1.392 . S
C302 C301 1.379 . S
C302 C303 1.404 . S
C302 H316 0.929 . S
C303 C302 1.404 . S
C303 C304 1.389 . S
C304 C303 1.389 . S
C304 C305 1.399 . S
C304 H317 0.931 . S
C305 C304 1.399 . S
C305 C306 1.390 . S
C306 C301 1.392 . S
C306 C305 1.390 . S
C306 H318 0.929 . S
O307 Tb291 2.326 . S
O307 C295 1.242 . S
O308 Eu292 2.324 . S
O308 C295 1.258 . S
O309 Tb291 2.488 1_556 S
O309 C311 1.240 1_556 S
O310 Tb291 2.473 . S
O310 C311 1.257 . S
C311 O309 1.240 1_554 S
C311 O310 1.257 . S
O312 Eu292 2.326 . S
O312 C300 1.242 . S
O313 Tb291 2.324 . S
O313 C300 1.258 . S
O314 Eu292 2.500 . S
O314 C297 1.273 . S
O315 Eu292 2.473 . S
O315 C297 1.257 . S
H316 C302 0.929 . S
H317 C304 0.931 . S
H318 C306 0.929 . S
O319 Tb320 2.292 . S
O319 C322 1.255 . S
Tb320 O319 2.292 . S
Tb320 O336 2.326 . S
Tb320 O338 2.500 . S
Tb320 O339 2.473 . S
Tb320 O342 2.324 1_565 S
Eu321 O325 2.292 . S
Eu321 C326 2.852 . S
Eu321 O337 2.324 . S
Eu321 O341 2.326 . S
Eu321 O343 2.500 . S
Eu321 O344 2.473 . S
C322 O319 1.255 . S
C322 O323 1.247 . S
O323 C322 1.247 . S
C324 O336 1.242 . S
C324 O337 1.258 . S
O325 Eu321 2.292 . S
O325 C327 1.255 . S
C326 Eu321 2.852 . S
C326 C330 1.503 . S
C326 O343 1.273 . S
C326 O344 1.257 . S
C327 O325 1.255 . S
C327 O328 1.247 . S
O328 C327 1.247 . S
C329 O341 1.242 1_545 S
C329 O342 1.258 . S
C330 C326 1.503 . S
C330 C331 1.379 . S
C330 C335 1.392 . S
C331 C330 1.379 . S
C331 C332 1.404 . S
C331 H345 0.929 . S
C332 C331 1.404 . S
C332 C333 1.389 . S
C333 C332 1.389 . S
C333 C334 1.399 . S
C333 H346 0.931 . S
C334 C333 1.399 . S
C334 C335 1.390 . S
C335 C330 1.392 . S
C335 C334 1.390 . S
C335 H347 0.929 . S
O336 Tb320 2.326 . S
O336 C324 1.242 . S
O337 Eu321 2.324 . S
O337 C324 1.258 . S
O338 Tb320 2.500 . S
O338 C340 1.273 . S
O339 Tb320 2.473 . S
O339 C340 1.257 . S
C340 O338 1.273 . S
C340 O339 1.257 . S
O341 Eu321 2.326 . S
O341 C329 1.242 1_565 S
O342 Tb320 2.324 1_545 S
O342 C329 1.258 . S
O343 Eu321 2.500 . S
O343 C326 1.273 . S
O344 Eu321 2.473 . S
O344 C326 1.257 . S
H345 C331 0.929 . S
H346 C333 0.931 . S
H347 C335 0.929 . S
O348 Tb349 2.292 . S
O348 C351 1.255 . S
Tb349 O348 2.292 . S
Tb349 O365 2.326 . S
Tb349 O367 2.500 . S
Tb349 O368 2.473 . S
Tb349 O371 2.324 . S
Eu350 O354 2.292 . S
Eu350 C355 2.852 . S
Eu350 O366 2.324 . S
Eu350 O370 2.326 . S
Eu350 O372 2.500 . S
Eu350 O373 2.473 . S
C351 O348 1.255 . S
C351 O352 1.247 . S
O352 C351 1.247 . S
C353 O365 1.242 . S
C353 O366 1.258 . S
O354 Eu350 2.292 . S
O354 C356 1.255 . S
C355 Eu350 2.852 . S
C355 C359 1.503 . S
C355 O372 1.273 . S
C355 O373 1.257 . S
C356 O354 1.255 . S
C356 O357 1.247 . S
O357 C356 1.247 . S
C358 O370 1.242 . S
C358 O371 1.258 . S
C359 C355 1.503 . S
C359 C360 1.379 . S
C359 C364 1.392 . S
C360 C359 1.379 . S
C360 C361 1.404 . S
C360 H374 0.929 . S
C361 C360 1.404 . S
C361 C362 1.389 . S
C362 C361 1.389 . S
C362 C363 1.399 . S
C362 H375 0.931 . S
C363 C362 1.399 . S
C363 C364 1.390 . S
C364 C359 1.392 . S
C364 C363 1.390 . S
C364 H376 0.929 . S
O365 Tb349 2.326 . S
O365 C353 1.242 . S
O366 Eu350 2.324 . S
O366 C353 1.258 . S
O367 Tb349 2.500 . S
O367 C369 1.273 . S
O368 Tb349 2.473 . S
O368 C369 1.257 . S
C369 O367 1.273 . S
C369 O368 1.257 . S
O370 Eu350 2.326 . S
O370 C358 1.242 . S
O371 Tb349 2.324 . S
O371 C358 1.258 . S
O372 Eu350 2.500 . S
O372 C355 1.273 . S
O373 Eu350 2.473 . S
O373 C355 1.257 . S
H374 C360 0.929 . S
H375 C362 0.931 . S
H376 C364 0.929 . S
O377 Tb378 2.292 . S
O377 C380 1.255 . S
Tb378 O377 2.292 . S
Tb378 O394 2.326 . S
Tb378 O396 2.500 . S
Tb378 O397 2.473 . S
Tb378 O400 2.324 1_565 S
Eu379 O383 2.292 . S
Eu379 C384 2.852 . S
Eu379 O395 2.324 . S
Eu379 O399 2.326 . S
Eu379 O401 2.500 . S
Eu379 O402 2.473 . S
C380 O377 1.255 . S
C380 O381 1.247 . S
O381 C380 1.247 . S
C382 O394 1.242 . S
C382 O395 1.258 . S
O383 Eu379 2.292 . S
O383 C385 1.255 . S
C384 Eu379 2.852 . S
C384 C388 1.503 . S
C384 O401 1.273 . S
C384 O402 1.257 . S
C385 O383 1.255 . S
C385 O386 1.247 . S
O386 C385 1.247 . S
C387 O399 1.242 1_545 S
C387 O400 1.258 . S
C388 C384 1.503 . S
C388 C389 1.379 1_655 S
C388 C393 1.392 1_655 S
C389 C388 1.379 1_455 S
C389 C390 1.404 . S
C389 H403 0.929 1_455 S
C390 C389 1.404 . S
C390 C391 1.389 . S
C391 C390 1.389 . S
C391 C392 1.399 . S
C391 H404 0.931 . S
C392 C391 1.399 . S
C392 C393 1.390 . S
C393 C388 1.392 1_455 S
C393 C392 1.390 . S
C393 H405 0.929 . S
O394 Tb378 2.326 . S
O394 C382 1.242 . S
O395 Eu379 2.324 . S
O395 C382 1.258 . S
O396 Tb378 2.500 . S
O396 C398 1.273 . S
O397 Tb378 2.473 . S
O397 C398 1.257 . S
C398 O396 1.273 . S
C398 O397 1.257 . S
O399 Eu379 2.326 . S
O399 C387 1.242 1_565 S
O400 Tb378 2.324 1_545 S
O400 C387 1.258 . S
O401 Eu379 2.500 . S
O401 C384 1.273 . S
O402 Eu379 2.473 . S
O402 C384 1.257 . S
H403 C389 0.929 1_655 S
H404 C391 0.931 . S
H405 C393 0.929 . S
O406 Tb407 2.292 1_554 S
O406 C409 1.255 . S
Tb407 O406 2.292 1_556 S
Tb407 O423 2.326 . S
Tb407 O425 2.488 1_556 S
Tb407 O426 2.473 . S
Tb407 O429 2.324 . S
Eu408 O412 2.292 . S
Eu408 C413 2.852 . S
Eu408 O424 2.324 . S
Eu408 O428 2.326 . S
Eu408 O430 2.500 . S
Eu408 O431 2.473 . S
C409 O406 1.255 . S
C409 O410 1.247 . S
O410 C409 1.247 . S
C411 O423 1.242 . S
C411 O424 1.258 . S
O412 Eu408 2.292 . S
O412 C414 1.255 . S
C413 Eu408 2.852 . S
C413 C417 1.503 . S
C413 O430 1.273 . S
C413 O431 1.257 . S
C414 O412 1.255 . S
C414 O415 1.247 . S
O415 C414 1.247 . S
C416 O428 1.242 . S
C416 O429 1.258 . S
C417 C413 1.503 . S
C417 C418 1.379 . S
C417 C422 1.392 . S
C418 C417 1.379 . S
C418 C419 1.404 . S
C418 H432 0.929 . S
C419 C418 1.404 . S
C419 C420 1.389 . S
C420 C419 1.389 . S
C420 C421 1.399 . S
C420 H433 0.931 . S
C421 C420 1.399 . S
C421 C422 1.390 . S
C422 C417 1.392 . S
C422 C421 1.390 . S
C422 H434 0.929 . S
O423 Tb407 2.326 . S
O423 C411 1.242 . S
O424 Eu408 2.324 . S
O424 C411 1.258 . S
O425 Tb407 2.488 1_554 S
O425 C427 1.240 1_554 S
O426 Tb407 2.473 . S
O426 C427 1.257 . S
C427 O425 1.240 1_556 S
C427 O426 1.257 . S
O428 Eu408 2.326 . S
O428 C416 1.242 . S
O429 Tb407 2.324 . S
O429 C416 1.258 . S
O430 Eu408 2.500 . S
O430 C413 1.273 . S
O431 Eu408 2.473 . S
O431 C413 1.257 . S
H432 C418 0.929 . S
H433 C420 0.931 . S
H434 C422 0.929 . S
O435 Tb436 2.292 . S
O435 C438 1.255 . S
Tb436 O435 2.292 . S
Tb436 O452 2.326 . S
Tb436 O454 2.500 . S
Tb436 O455 2.473 . S
Tb436 O458 2.324 1_545 S
Eu437 O441 2.292 . S
Eu437 C442 2.852 . S
Eu437 O453 2.324 . S
Eu437 O457 2.326 . S
Eu437 O459 2.500 . S
Eu437 O460 2.473 . S
C438 O435 1.255 . S
C438 O439 1.247 . S
O439 C438 1.247 . S
C440 O452 1.242 . S
C440 O453 1.258 . S
O441 Eu437 2.292 . S
O441 C443 1.255 . S
C442 Eu437 2.852 . S
C442 C446 1.503 . S
C442 O459 1.273 . S
C442 O460 1.257 . S
C443 O441 1.255 . S
C443 O444 1.247 . S
O444 C443 1.247 . S
C445 O457 1.242 1_565 S
C445 O458 1.258 . S
C446 C442 1.503 . S
C446 C447 1.379 . S
C446 C451 1.392 . S
C447 C446 1.379 . S
C447 C448 1.404 . S
C447 H461 0.929 . S
C448 C447 1.404 . S
C448 C449 1.389 . S
C449 C448 1.389 . S
C449 C450 1.399 . S
C449 H462 0.931 . S
C450 C449 1.399 . S
C450 C451 1.390 . S
C451 C446 1.392 . S
C451 C450 1.390 . S
C451 H463 0.929 . S
O452 Tb436 2.326 . S
O452 C440 1.242 . S
O453 Eu437 2.324 . S
O453 C440 1.258 . S
O454 Tb436 2.500 . S
O454 C456 1.273 . S
O455 Tb436 2.473 . S
O455 C456 1.257 . S
C456 O454 1.273 . S
C456 O455 1.257 . S
O457 Eu437 2.326 . S
O457 C445 1.242 1_545 S
O458 Tb436 2.324 1_565 S
O458 C445 1.258 . S
O459 Eu437 2.500 . S
O459 C442 1.273 . S
O460 Eu437 2.473 . S
O460 C442 1.257 . S
H461 C447 0.929 . S
H462 C449 0.931 . S
H463 C451 0.929 . S
C464 C465 1.369 . S
C464 C466 1.419 . S
C464 H468 0.930 . S
C465 C464 1.369 . S
C465 C474 1.429 . S
C466 C464 1.419 . S
C466 C467 1.363 . S
C466 H469 0.929 . S
C467 C466 1.363 . S
C467 C473 1.428 . S
H468 C464 0.930 . S
H469 C466 0.929 . S
S470 N471 1.613 . S
S470 N472 1.610 . S
N471 S470 1.613 . S
N471 C474 1.350 1_565 S
N472 S470 1.610 . S
N472 C473 1.351 1_565 S
C473 C467 1.428 . S
C473 N472 1.351 1_545 S
C473 C474 1.434 . S
C474 C465 1.429 . S
C474 N471 1.350 1_545 S
C474 C473 1.434 . S
C475 C476 1.369 . S
C475 C477 1.419 . S
C475 H479 0.930 . S
C476 C475 1.369 . S
C476 C485 1.429 . S
C477 C475 1.419 . S
C477 C478 1.363 . S
C477 H480 0.929 . S
C478 C477 1.363 . S
C478 C484 1.428 . S
H479 C475 0.930 . S
H480 C477 0.929 . S
S481 N482 1.613 . S
S481 N483 1.610 . S
N482 S481 1.613 . S
N482 C485 1.350 . S
N483 S481 1.610 . S
N483 C484 1.351 . S
C484 C478 1.428 . S
C484 N483 1.351 . S
C484 C485 1.434 . S
C485 C476 1.429 . S
C485 N482 1.350 . S
C485 C484 1.434 . S
C486 C487 1.369 . S
C486 C488 1.419 . S
C486 H490 0.930 . S
C487 C486 1.369 . S
C487 C496 1.429 . S
C488 C486 1.419 . S
C488 C489 1.363 . S
C488 H491 0.929 . S
C489 C488 1.363 . S
C489 C495 1.428 . S
H490 C486 0.930 . S
H491 C488 0.929 . S
S492 N493 1.613 . S
S492 N494 1.610 . S
N493 S492 1.613 . S
N493 C496 1.350 1_545 S
N494 S492 1.610 . S
N494 C495 1.351 1_545 S
C495 C489 1.428 . S
C495 N494 1.351 1_565 S
C495 C496 1.434 . S
C496 C487 1.429 . S
C496 N493 1.350 1_565 S
C496 C495 1.434 . S
C497 C498 1.369 . S
C497 C499 1.419 . S
C497 H501 0.930 . S
C498 C497 1.369 . S
C498 C507 1.429 . S
C499 C497 1.419 . S
C499 C500 1.363 . S
C499 H502 0.929 . S
C500 C499 1.363 . S
C500 C506 1.428 . S
H501 C497 0.930 . S
H502 C499 0.929 . S
S503 N504 1.613 . S
S503 N505 1.610 . S
N504 S503 1.613 . S
N504 C507 1.350 . S
N505 S503 1.610 . S
N505 C506 1.351 . S
C506 C500 1.428 . S
C506 N505 1.351 . S
C506 C507 1.434 . S
C507 C498 1.429 . S
C507 N504 1.350 . S
C507 C506 1.434 . S
C508 C509 1.369 . S
C508 C510 1.419 . S
C508 H512 0.930 . S
C509 C508 1.369 . S
C509 C518 1.429 . S
C510 C508 1.419 . S
C510 C511 1.363 . S
C510 H513 0.929 . S
C511 C510 1.363 . S
C511 C517 1.428 . S
H512 C508 0.930 . S
H513 C510 0.929 . S
S514 N515 1.613 . S
S514 N516 1.610 . S
N515 S514 1.613 . S
N515 C518 1.350 . S
N516 S514 1.610 . S
N516 C517 1.351 . S
C517 C511 1.428 . S
C517 N516 1.351 . S
C517 C518 1.434 . S
C518 C509 1.429 . S
C518 N515 1.350 . S
C518 C517 1.434 . S
C519 C520 1.369 . S
C519 C521 1.419 . S
C519 H523 0.930 . S
C520 C519 1.369 . S
C520 C529 1.429 . S
C521 C519 1.419 . S
C521 C522 1.363 . S
C521 H524 0.929 . S
C522 C521 1.363 . S
C522 C528 1.428 . S
H523 C519 0.930 . S
H524 C521 0.929 . S
S525 N526 1.613 . S
S525 N527 1.610 . S
N526 S525 1.613 . S
N526 C529 1.350 . S
N527 S525 1.610 . S
N527 C528 1.351 . S
C528 C522 1.428 . S
C528 N527 1.351 . S
C528 C529 1.434 . S
C529 C520 1.429 . S
C529 N526 1.350 . S
C529 C528 1.434 . S
C530 C531 1.369 . S
C530 C532 1.419 . S
C530 H534 0.930 . S
C531 C530 1.369 . S
C531 C540 1.429 . S
C532 C530 1.419 . S
C532 C533 1.363 . S
C532 H535 0.929 . S
C533 C532 1.363 . S
C533 C539 1.428 . S
H534 C530 0.930 . S
H535 C532 0.929 . S
S536 N537 1.613 . S
S536 N538 1.610 . S
N537 S536 1.613 . S
N537 C540 1.350 . S
N538 S536 1.610 . S
N538 C539 1.351 . S
C539 C533 1.428 . S
C539 N538 1.351 . S
C539 C540 1.434 . S
C540 C531 1.429 . S
C540 N537 1.350 . S
C540 C539 1.434 . S
C541 C542 1.369 . S
C541 C543 1.419 . S
C541 H545 0.930 . S
C542 C541 1.369 . S
C542 C551 1.429 . S
C543 C541 1.419 . S
C543 C544 1.363 . S
C543 H546 0.929 . S
C544 C543 1.363 . S
C544 C550 1.428 . S
H545 C541 0.930 . S
H546 C543 0.929 . S
S547 N548 1.613 . S
S547 N549 1.610 . S
N548 S547 1.613 . S
N548 C551 1.350 . S
N549 S547 1.610 . S
N549 C550 1.351 . S
C550 C544 1.428 . S
C550 N549 1.351 . S
C550 C551 1.434 . S
C551 C542 1.429 . S
C551 N548 1.350 . S
C551 C550 1.434 . S
C552 C553 1.369 . S
C552 C554 1.419 . S
C552 H556 0.930 . S
C553 C552 1.369 . S
C553 C562 1.429 . S
C554 C552 1.419 . S
C554 C555 1.363 . S
C554 H557 0.929 . S
C555 C554 1.363 . S
C555 C561 1.428 . S
H556 C552 0.930 . S
H557 C554 0.929 . S
S558 N559 1.613 . S
S558 N560 1.610 . S
N559 S558 1.613 . S
N559 C562 1.350 . S
N560 S558 1.610 . S
N560 C561 1.351 . S
C561 C555 1.428 . S
C561 N560 1.351 . S
C561 C562 1.434 . S
C562 C553 1.429 . S
C562 N559 1.350 . S
C562 C561 1.434 . S
C563 C564 1.369 . S
C563 C565 1.419 . S
C563 H567 0.930 . S
C564 C563 1.369 . S
C564 C573 1.429 1_565 S
C565 C563 1.419 . S
C565 C566 1.363 1_565 S
C565 H568 0.929 . S
C566 C565 1.363 1_545 S
C566 C572 1.428 . S
H567 C563 0.930 . S
H568 C565 0.929 . S
S569 N570 1.613 . S
S569 N571 1.610 . S
N570 S569 1.613 . S
N570 C573 1.350 . S
N571 S569 1.610 . S
N571 C572 1.351 . S
C572 C566 1.428 . S
C572 N571 1.351 . S
C572 C573 1.434 . S
C573 C564 1.429 1_545 S
C573 N570 1.350 . S
C573 C572 1.434 . S
C574 C575 1.369 . S
C574 C576 1.419 . S
C574 H578 0.930 . S
C575 C574 1.369 . S
C575 C584 1.429 . S
C576 C574 1.419 . S
C576 C577 1.363 . S
C576 H579 0.929 . S
C577 C576 1.363 . S
C577 C583 1.428 . S
H578 C574 0.930 . S
H579 C576 0.929 . S
S580 N581 1.613 . S
S580 N582 1.610 . S
N581 S580 1.613 . S
N581 C584 1.350 . S
N582 S580 1.610 . S
N582 C583 1.351 . S
C583 C577 1.428 . S
C583 N582 1.351 . S
C583 C584 1.434 . S
C584 C575 1.429 . S
C584 N581 1.350 . S
C584 C583 1.434 . S
C585 C586 1.369 . S
C585 C587 1.419 1_545 S
C585 H589 0.930 . S
C586 C585 1.369 . S
C586 C595 1.429 . S
C587 C585 1.419 1_565 S
C587 C588 1.363 . S
C587 H590 0.929 . S
C588 C587 1.363 . S
C588 C594 1.428 . S
H589 C585 0.930 . S
H590 C587 0.929 . S
S591 N592 1.613 . S
S591 N593 1.610 1_545 S
N592 S591 1.613 . S
N592 C595 1.350 . S
N593 S591 1.610 1_565 S
N593 C594 1.351 . S
C594 C588 1.428 . S
C594 N593 1.351 . S
C594 C595 1.434 1_565 S
C595 C586 1.429 . S
C595 N592 1.350 . S
C595 C594 1.434 1_545 S
C596 C597 1.369 . S
C596 C598 1.419 . S
C596 H600 0.930 . S
C597 C596 1.369 . S
C597 C606 1.429 . S
C598 C596 1.419 . S
C598 C599 1.363 . S
C598 H601 0.929 . S
C599 C598 1.363 . S
C599 C605 1.428 . S
H600 C596 0.930 . S
H601 C598 0.929 . S
S602 N603 1.613 . S
S602 N604 1.610 . S
N603 S602 1.613 . S
N603 C606 1.350 . S
N604 S602 1.610 . S
N604 C605 1.351 . S
C605 C599 1.428 . S
C605 N604 1.351 . S
C605 C606 1.434 . S
C606 C597 1.429 . S
C606 N603 1.350 . S
C606 C605 1.434 . S
C607 C608 1.369 . S
C607 C609 1.419 . S
C607 H611 0.930 . S
C608 C607 1.369 . S
C608 C617 1.429 1_565 S
C609 C607 1.419 . S
C609 C610 1.363 1_565 S
C609 H612 0.929 . S
C610 C609 1.363 1_545 S
C610 C616 1.428 . S
H611 C607 0.930 . S
H612 C609 0.929 . S
S613 N614 1.613 . S
S613 N615 1.610 . S
N614 S613 1.613 . S
N614 C617 1.350 . S
N615 S613 1.610 . S
N615 C616 1.351 . S
C616 C610 1.428 . S
C616 N615 1.351 . S
C616 C617 1.434 . S
C617 C608 1.429 1_545 S
C617 N614 1.350 . S
C617 C616 1.434 . S
C618 C619 1.369 . S
C618 C620 1.419 . S
C618 H622 0.930 . S
C619 C618 1.369 . S
C619 C628 1.429 . S
C620 C618 1.419 . S
C620 C621 1.363 . S
C620 H623 0.929 . S
C621 C620 1.363 . S
C621 C627 1.428 . S
H622 C618 0.930 . S
H623 C620 0.929 . S
S624 N625 1.613 . S
S624 N626 1.610 . S
N625 S624 1.613 . S
N625 C628 1.350 . S
N626 S624 1.610 . S
N626 C627 1.351 . S
C627 C621 1.428 . S
C627 N626 1.351 . S
C627 C628 1.434 . S
C628 C619 1.429 . S
C628 N625 1.350 . S
C628 C627 1.434 . S
C629 C630 1.369 1_545 S
C629 C631 1.419 . S
C629 H633 0.930 . S
C630 C629 1.369 1_565 S
C630 C639 1.429 . S
C631 C629 1.419 . S
C631 C632 1.363 . S
C631 H634 0.929 . S
C632 C631 1.363 . S
C632 C638 1.428 1_545 S
H633 C629 0.930 . S
H634 C631 0.929 . S
S635 N636 1.613 . S
S635 N637 1.610 . S
N636 S635 1.613 . S
N636 C639 1.350 . S
N637 S635 1.610 . S
N637 C638 1.351 . S
C638 C632 1.428 1_565 S
C638 N637 1.351 . S
C638 C639 1.434 . S
C639 C630 1.429 . S
C639 N636 1.350 . S
C639 C638 1.434 . S
C640 C641 1.369 . S
C640 C642 1.419 . S
C640 H644 0.930 . S
C641 C640 1.369 . S
C641 C650 1.429 . S
C642 C640 1.419 . S
C642 C643 1.363 . S
C642 H645 0.929 . S
C643 C642 1.363 . S
C643 C649 1.428 . S
H644 C640 0.930 . S
H645 C642 0.929 . S
S646 N647 1.613 . S
S646 N648 1.610 . S
N647 S646 1.613 . S
N647 C650 1.350 . S
N648 S646 1.610 . S
N648 C649 1.351 . S
C649 C643 1.428 . S
C649 N648 1.351 . S
C649 C650 1.434 . S
C650 C641 1.429 . S
C650 N647 1.350 . S
C650 C649 1.434 . S
C651 C652 1.369 . S
C651 C653 1.419 . S
C651 H655 0.930 . S
C652 C651 1.369 . S
C652 C661 1.429 . S
C653 C651 1.419 . S
C653 C654 1.363 . S
C653 H656 0.929 . S
C654 C653 1.363 . S
C654 C660 1.428 . S
H655 C651 0.930 . S
H656 C653 0.929 . S
S657 N658 1.613 . S
S657 N659 1.610 . S
N658 S657 1.613 . S
N658 C661 1.350 . S
N659 S657 1.610 . S
N659 C660 1.351 . S
C660 C654 1.428 . S
C660 N659 1.351 . S
C660 C661 1.434 . S
C661 C652 1.429 . S
C661 N658 1.350 . S
C661 C660 1.434 . S
C662 C663 1.369 . S
C662 C664 1.419 . S
C662 H666 0.930 . S
C663 C662 1.369 . S
C663 C672 1.429 . S
C664 C662 1.419 . S
C664 C665 1.363 . S
C664 H667 0.929 . S
C665 C664 1.363 . S
C665 C671 1.428 . S
H666 C662 0.930 . S
H667 C664 0.929 . S
S668 N669 1.613 . S
S668 N670 1.610 . S
N669 S668 1.613 . S
N669 C672 1.350 . S
N670 S668 1.610 . S
N670 C671 1.351 . S
C671 C665 1.428 . S
C671 N670 1.351 . S
C671 C672 1.434 . S
C672 C663 1.429 . S
C672 N669 1.350 . S
C672 C671 1.434 . S
C673 C674 1.369 . S
C673 C675 1.419 . S
C673 H677 0.930 . S
C674 C673 1.369 . S
C674 C683 1.429 . S
C675 C673 1.419 . S
C675 C676 1.363 . S
C675 H678 0.929 . S
C676 C675 1.363 . S
C676 C682 1.428 . S
H677 C673 0.930 . S
H678 C675 0.929 . S
S679 N680 1.613 . S
S679 N681 1.610 . S
N680 S679 1.613 . S
N680 C683 1.350 . S
N681 S679 1.610 . S
N681 C682 1.351 . S
C682 C676 1.428 . S
C682 N681 1.351 . S
C682 C683 1.434 . S
C683 C674 1.429 . S
C683 N680 1.350 . S
C683 C682 1.434 . S
C684 C685 1.369 . S
C684 C686 1.419 . S
C684 H688 0.930 . S
C685 C684 1.369 . S
C685 C694 1.429 . S
C686 C684 1.419 . S
C686 C687 1.363 . S
C686 H689 0.929 . S
C687 C686 1.363 . S
C687 C693 1.428 . S
H688 C684 0.930 . S
H689 C686 0.929 . S
S690 N691 1.613 . S
S690 N692 1.610 . S
N691 S690 1.613 . S
N691 C694 1.350 . S
N692 S690 1.610 . S
N692 C693 1.351 . S
C693 C687 1.428 . S
C693 N692 1.351 . S
C693 C694 1.434 . S
C694 C685 1.429 . S
C694 N691 1.350 . S
C694 C693 1.434 . S
C695 C696 1.369 . S
C695 C697 1.419 . S
C695 H699 0.930 . S
C696 C695 1.369 . S
C696 C705 1.429 . S
C697 C695 1.419 . S
C697 C698 1.363 . S
C697 H700 0.929 . S
C698 C697 1.363 . S
C698 C704 1.428 . S
H699 C695 0.930 . S
H700 C697 0.929 . S
S701 N702 1.613 . S
S701 N703 1.610 . S
N702 S701 1.613 . S
N702 C705 1.350 . S
N703 S701 1.610 . S
N703 C704 1.351 . S
C704 C698 1.428 . S
C704 N703 1.351 . S
C704 C705 1.434 . S
C705 C696 1.429 . S
C705 N702 1.350 . S
C705 C704 1.434 . S
C706 C707 1.369 . S
C706 C708 1.419 . S
C706 H710 0.930 . S
C707 C706 1.369 . S
C707 C716 1.429 . S
C708 C706 1.419 . S
C708 C709 1.363 . S
C708 H711 0.929 . S
C709 C708 1.363 . S
C709 C715 1.428 . S
H710 C706 0.930 . S
H711 C708 0.929 . S
S712 N713 1.613 . S
S712 N714 1.610 . S
N713 S712 1.613 . S
N713 C716 1.350 . S
N714 S712 1.610 . S
N714 C715 1.351 . S
C715 C709 1.428 . S
C715 N714 1.351 . S
C715 C716 1.434 . S
C716 C707 1.429 . S
C716 N713 1.350 . S
C716 C715 1.434 . S
C717 C718 1.369 . S
C717 C719 1.419 . S
C717 H721 0.930 . S
C718 C717 1.369 . S
C718 C727 1.429 . S
C719 C717 1.419 . S
C719 C720 1.363 . S
C719 H722 0.929 . S
C720 C719 1.363 . S
C720 C726 1.428 . S
H721 C717 0.930 . S
H722 C719 0.929 . S
S723 N724 1.613 . S
S723 N725 1.610 . S
N724 S723 1.613 . S
N724 C727 1.350 . S
N725 S723 1.610 . S
N725 C726 1.351 . S
C726 C720 1.428 . S
C726 N725 1.351 . S
C726 C727 1.434 . S
C727 C718 1.429 . S
C727 N724 1.350 . S
C727 C726 1.434 . S
C728 C729 1.369 . S
C728 C730 1.419 . S
C728 H732 0.930 . S
C729 C728 1.369 . S
C729 C738 1.429 . S
C730 C728 1.419 . S
C730 C731 1.363 . S
C730 H733 0.929 . S
C731 C730 1.363 . S
C731 C737 1.428 . S
H732 C728 0.930 . S
H733 C730 0.929 . S
S734 N735 1.613 . S
S734 N736 1.610 . S
N735 S734 1.613 . S
N735 C738 1.350 . S
N736 S734 1.610 . S
N736 C737 1.351 . S
C737 C731 1.428 . S
C737 N736 1.351 . S
C737 C738 1.434 . S
C738 C729 1.429 . S
C738 N735 1.350 . S
C738 C737 1.434 . S
C739 C740 1.369 . S
C739 C741 1.419 . S
C739 H743 0.930 . S
C740 C739 1.369 . S
C740 C749 1.429 . S
C741 C739 1.419 . S
C741 C742 1.363 . S
C741 H744 0.929 . S
C742 C741 1.363 . S
C742 C748 1.428 . S
H743 C739 0.930 . S
H744 C741 0.929 . S
S745 N746 1.613 . S
S745 N747 1.610 1_545 S
N746 S745 1.613 . S
N746 C749 1.350 1_545 S
N747 S745 1.610 1_565 S
N747 C748 1.351 . S
C748 C742 1.428 . S
C748 N747 1.351 . S
C748 C749 1.434 . S
C749 C740 1.429 . S
C749 N746 1.350 1_565 S
C749 C748 1.434 . S
C750 C751 1.369 . S
C750 C752 1.419 . S
C750 H754 0.930 . S
C751 C750 1.369 . S
C751 C760 1.429 . S
C752 C750 1.419 . S
C752 C753 1.363 . S
C752 H755 0.929 . S
C753 C752 1.363 . S
C753 C759 1.428 . S
H754 C750 0.930 . S
H755 C752 0.929 . S
S756 N757 1.613 . S
S756 N758 1.610 . S
N757 S756 1.613 . S
N757 C760 1.350 . S
N758 S756 1.610 . S
N758 C759 1.351 . S
C759 C753 1.428 . S
C759 N758 1.351 . S
C759 C760 1.434 . S
C760 C751 1.429 . S
C760 N757 1.350 . S
C760 C759 1.434 . S
C761 C762 1.369 . S
C761 C763 1.419 . S
C761 H765 0.930 . S
C762 C761 1.369 . S
C762 C771 1.429 . S
C763 C761 1.419 . S
C763 C764 1.363 . S
C763 H766 0.929 . S
C764 C763 1.363 . S
C764 C770 1.428 . S
H765 C761 0.930 . S
H766 C763 0.929 . S
S767 N768 1.613 . S
S767 N769 1.610 . S
N768 S767 1.613 . S
N768 C771 1.350 . S
N769 S767 1.610 . S
N769 C770 1.351 . S
C770 C764 1.428 . S
C770 N769 1.351 . S
C770 C771 1.434 . S
C771 C762 1.429 . S
C771 N768 1.350 . S
C771 C770 1.434 . S
C772 C773 1.369 . S
C772 C774 1.419 . S
C772 H776 0.930 . S
C773 C772 1.369 . S
C773 C782 1.429 . S
C774 C772 1.419 . S
C774 C775 1.363 . S
C774 H777 0.929 . S
C775 C774 1.363 . S
C775 C781 1.428 . S
H776 C772 0.930 . S
H777 C774 0.929 . S
S778 N779 1.613 . S
S778 N780 1.610 . S
N779 S778 1.613 . S
N779 C782 1.350 . S
N780 S778 1.610 . S
N780 C781 1.351 . S
C781 C775 1.428 . S
C781 N780 1.351 . S
C781 C782 1.434 . S
C782 C773 1.429 . S
C782 N779 1.350 . S
C782 C781 1.434 . S
C783 C784 1.369 . S
C783 C785 1.419 . S
C783 H787 0.930 . S
C784 C783 1.369 . S
C784 C793 1.429 . S
C785 C783 1.419 . S
C785 C786 1.363 . S
C785 H788 0.929 . S
C786 C785 1.363 . S
C786 C792 1.428 . S
H787 C783 0.930 . S
H788 C785 0.929 . S
S789 N790 1.613 . S
S789 N791 1.610 1_565 S
N790 S789 1.613 . S
N790 C793 1.350 1_565 S
N791 S789 1.610 1_545 S
N791 C792 1.351 . S
C792 C786 1.428 . S
C792 N791 1.351 . S
C792 C793 1.434 . S
C793 C784 1.429 . S
C793 N790 1.350 1_545 S
C793 C792 1.434 . S
C794 C795 1.369 . S
C794 C796 1.419 . S
C794 H798 0.930 . S
C795 C794 1.369 . S
C795 C804 1.429 . S
C796 C794 1.419 . S
C796 C797 1.363 . S
C796 H799 0.929 . S
C797 C796 1.363 . S
C797 C803 1.428 . S
H798 C794 0.930 . S
H799 C796 0.929 . S
S800 N801 1.613 . S
S800 N802 1.610 . S
N801 S800 1.613 . S
N801 C804 1.350 . S
N802 S800 1.610 . S
N802 C803 1.351 . S
C803 C797 1.428 . S
C803 N802 1.351 . S
C803 C804 1.434 . S
C804 C795 1.429 . S
C804 N801 1.350 . S
C804 C803 1.434 . S
C805 C806 1.369 1_545 S
C805 C807 1.419 1_545 S
C805 H809 0.930 . S
C806 C805 1.369 1_565 S
C806 C815 1.429 . S
C807 C805 1.419 1_565 S
C807 C808 1.363 . S
C807 H810 0.932 . S
C808 C807 1.363 . S
C808 C814 1.428 . S
H809 C805 0.930 . S
H810 C807 0.932 . S
S811 N812 1.613 . S
S811 N813 1.610 . S
N812 S811 1.613 . S
N812 C815 1.350 . S
N813 S811 1.610 . S
N813 C814 1.351 . S
C814 C808 1.428 . S
C814 N813 1.351 . S
C814 C815 1.434 . S
C815 C806 1.429 . S
C815 N812 1.350 . S
C815 C814 1.434 . S
C816 C817 1.369 1_544 S
C816 C818 1.419 . S
C816 H820 0.930 . S
C817 C816 1.369 1_566 S
C817 C826 1.429 . S
C818 C816 1.419 . S
C818 C819 1.363 . S
C818 H821 0.929 . S
C819 C818 1.363 . S
C819 C825 1.428 1_544 S
H820 C816 0.930 . S
H821 C818 0.929 . S
S822 N823 1.613 . S
S822 N824 1.610 . S
N823 S822 1.613 . S
N823 C826 1.350 . S
N824 S822 1.610 . S
N824 C825 1.351 . S
C825 C819 1.428 1_566 S
C825 N824 1.351 . S
C825 C826 1.434 . S
C826 C817 1.429 . S
C826 N823 1.350 . S
C826 C825 1.434 . S
C827 C828 1.369 . S
C827 C829 1.419 . S
C827 H831 0.930 . S
C828 C827 1.369 . S
C828 C837 1.429 . S
C829 C827 1.419 . S
C829 C830 1.363 . S
C829 H832 0.929 . S
C830 C829 1.363 . S
C830 C836 1.428 . S
H831 C827 0.930 . S
H832 C829 0.929 . S
S833 N834 1.613 . S
S833 N835 1.610 . S
N834 S833 1.613 . S
N834 C837 1.350 . S
N835 S833 1.610 . S
N835 C836 1.351 . S
C836 C830 1.428 . S
C836 N835 1.351 . S
C836 C837 1.434 . S
C837 C828 1.429 . S
C837 N834 1.350 . S
C837 C836 1.434 . S
C838 C839 1.369 . S
C838 C840 1.419 1_645 S
C838 H842 0.930 . S
C839 C838 1.369 . S
C839 C848 1.429 . S
C840 C838 1.419 1_465 S
C840 C841 1.363 . S
C840 H843 0.929 . S
C841 C840 1.363 . S
C841 C847 1.428 . S
H842 C838 0.930 . S
H843 C840 0.929 . S
S844 N845 1.613 1_565 S
S844 N846 1.610 1_655 S
N845 S844 1.613 1_545 S
N845 C848 1.350 . S
N846 S844 1.610 1_455 S
N846 C847 1.351 . S
C847 C841 1.428 . S
C847 N846 1.351 . S
C847 C848 1.434 1_465 S
C848 C839 1.429 . S
C848 N845 1.350 . S
C848 C847 1.434 1_645 S
C849 C850 1.369 . S
C849 C851 1.419 . S
C849 H853 0.930 . S
C850 C849 1.369 . S
C850 C859 1.429 . S
C851 C849 1.419 . S
C851 C852 1.363 . S
C851 H854 0.929 . S
C852 C851 1.363 . S
C852 C858 1.428 . S
H853 C849 0.930 . S
H854 C851 0.929 . S
S855 N856 1.613 . S
S855 N857 1.610 . S
N856 S855 1.613 . S
N856 C859 1.350 . S
N857 S855 1.610 . S
N857 C858 1.351 . S
C858 C852 1.428 . S
C858 N857 1.351 . S
C858 C859 1.434 . S
C859 C850 1.429 . S
C859 N856 1.350 . S
C859 C858 1.434 . S
C860 C861 1.369 . S
C860 C862 1.419 . S
C860 H864 0.930 . S
C861 C860 1.369 . S
C861 C870 1.429 . S
C862 C860 1.419 . S
C862 C863 1.363 . S
C862 H865 0.929 . S
C863 C862 1.363 . S
C863 C869 1.428 . S
H864 C860 0.930 . S
H865 C862 0.929 . S
S866 N867 1.613 . S
S866 N868 1.610 . S
N867 S866 1.613 . S
N867 C870 1.350 . S
N868 S866 1.610 . S
N868 C869 1.351 . S
C869 C863 1.428 . S
C869 N868 1.351 . S
C869 C870 1.434 . S
C870 C861 1.429 . S
C870 N867 1.350 . S
C870 C869 1.434 . S
C871 C872 1.369 . S
C871 C873 1.419 . S
C871 H875 0.930 . S
C872 C871 1.369 . S
C872 C881 1.429 . S
C873 C871 1.419 . S
C873 C874 1.363 . S
C873 H876 0.929 . S
C874 C873 1.363 . S
C874 C880 1.428 . S
H875 C871 0.930 . S
H876 C873 0.929 . S
S877 N878 1.613 . S
S877 N879 1.610 . S
N878 S877 1.613 . S
N878 C881 1.350 . S
N879 S877 1.610 . S
N879 C880 1.351 . S
C880 C874 1.428 . S
C880 N879 1.351 . S
C880 C881 1.434 . S
C881 C872 1.429 . S
C881 N878 1.350 . S
C881 C880 1.434 . S
C882 C883 1.369 . S
C882 C884 1.419 1_655 S
C882 H886 0.930 . S
C883 C882 1.369 . S
C883 C892 1.442 . S
C884 C882 1.419 1_455 S
C884 C885 1.363 . S
C884 H887 0.929 . S
C885 C884 1.363 . S
C885 C891 1.428 . S
H886 C882 0.930 . S
H887 C884 0.929 . S
S888 N889 1.613 . S
S888 N890 1.610 . S
N889 S888 1.613 . S
N889 C892 1.348 1_455 S
N890 S888 1.610 . S
N890 C891 1.351 . S
C891 C885 1.428 . S
C891 N890 1.351 . S
C891 C892 1.420 1_455 S
C892 C883 1.442 . S
C892 N889 1.348 1_655 S
C892 C891 1.420 1_655 S
C893 C894 1.369 1_556 S
C893 C895 1.419 . S
C893 H897 0.930 . S
C894 C893 1.369 1_554 S
C894 C903 1.429 . S
C895 C893 1.419 . S
C895 C896 1.363 . S
C895 H898 0.929 . S
C896 C895 1.363 . S
C896 C902 1.428 1_556 S
H897 C893 0.930 . S
H898 C895 0.929 . S
S899 N900 1.613 . S
S899 N901 1.610 . S
N900 S899 1.613 . S
N900 C903 1.350 . S
N901 S899 1.610 . S
N901 C902 1.351 . S
C902 C896 1.428 1_554 S
C902 N901 1.351 . S
C902 C903 1.434 . S
C903 C894 1.429 . S
C903 N900 1.350 . S
C903 C902 1.434 . S
C904 C905 1.370 . S
C904 C906 1.418 1_556 S
C904 H908 0.930 1_556 S
C905 C904 1.370 . S
C905 C914 1.429 . S
C906 C904 1.418 1_554 S
C906 C907 1.363 . S
C906 H909 0.929 . S
C907 C906 1.363 . S
C907 C913 1.428 1_554 S
H908 C904 0.930 1_554 S
H909 C906 0.929 . S
S910 N911 1.613 . S
S910 N912 1.610 . S
N911 S910 1.613 . S
N911 C914 1.350 . S
N912 S910 1.610 . S
N912 C913 1.351 . S
C913 C907 1.428 1_556 S
C913 N912 1.351 . S
C913 C914 1.434 . S
C914 C905 1.429 . S
C914 N911 1.350 . S
C914 C913 1.434 . S
C915 C916 1.369 . S
C915 C917 1.419 . S
C915 H919 0.930 . S
C916 C915 1.369 . S
C916 C925 1.429 . S
C917 C915 1.419 . S
C917 C918 1.363 . S
C917 H920 0.929 . S
C918 C917 1.363 . S
C918 C924 1.428 . S
H919 C915 0.930 . S
H920 C917 0.929 . S
S921 N922 1.613 . S
S921 N923 1.610 . S
N922 S921 1.613 . S
N922 C925 1.350 . S
N923 S921 1.610 . S
N923 C924 1.351 . S
C924 C918 1.428 . S
C924 N923 1.351 . S
C924 C925 1.434 . S
C925 C916 1.429 . S
C925 N922 1.350 . S
C925 C924 1.434 . S
C926 C927 1.369 . S
C926 C928 1.419 . S
C926 H930 0.930 . S
C927 C926 1.369 . S
C927 C936 1.429 . S
C928 C926 1.419 . S
C928 C929 1.363 . S
C928 H931 0.929 . S
C929 C928 1.363 . S
C929 C935 1.428 . S
H930 C926 0.930 . S
H931 C928 0.929 . S
S932 N933 1.613 . S
S932 N934 1.610 . S
N933 S932 1.613 . S
N933 C936 1.350 . S
N934 S932 1.610 . S
N934 C935 1.351 . S
C935 C929 1.428 . S
C935 N934 1.351 . S
C935 C936 1.434 . S
C936 C927 1.429 . S
C936 N933 1.350 . S
C936 C935 1.434 . S
C937 C938 1.369 . S
C937 C939 1.419 . S
C937 H941 0.930 . S
C938 C937 1.369 . S
C938 C947 1.429 . S
C939 C937 1.419 . S
C939 C940 1.363 . S
C939 H942 0.929 . S
C940 C939 1.363 . S
C940 C946 1.428 . S
H941 C937 0.930 . S
H942 C939 0.929 . S
S943 N944 1.613 . S
S943 N945 1.610 . S
N944 S943 1.613 . S
N944 C947 1.350 . S
N945 S943 1.610 . S
N945 C946 1.351 . S
C946 C940 1.428 . S
C946 N945 1.351 . S
C946 C947 1.434 . S
C947 C938 1.429 . S
C947 N944 1.350 . S
C947 C946 1.434 . S
C948 C949 1.369 . S
C948 C950 1.419 1_556 S
C948 H952 0.930 . S
C949 C948 1.369 . S
C949 C958 1.429 1_556 S
C950 C948 1.419 1_554 S
C950 C951 1.363 . S
C950 H953 0.924 1_554 S
C951 C950 1.363 . S
C951 C957 1.428 . S
H952 C948 0.930 . S
H953 C950 0.924 1_556 S
S954 N955 1.613 . S
S954 N956 1.610 . S
N955 S954 1.613 . S
N955 C958 1.350 . S
N956 S954 1.610 . S
N956 C957 1.351 . S
C957 C951 1.428 . S
C957 N956 1.351 . S
C957 C958 1.434 . S
C958 C949 1.429 1_554 S
C958 N955 1.350 . S
C958 C957 1.434 . S
C959 C960 1.369 . S
C959 C961 1.419 . S
C959 H963 0.930 . S
C960 C959 1.369 . S
C960 C969 1.429 . S
C961 C959 1.419 . S
C961 C962 1.363 . S
C961 H964 0.929 . S
C962 C961 1.363 . S
C962 C968 1.428 . S
H963 C959 0.930 . S
H964 C961 0.929 . S
S965 N966 1.613 . S
S965 N967 1.610 . S
N966 S965 1.613 . S
N966 C969 1.350 . S
N967 S965 1.610 . S
N967 C968 1.351 . S
C968 C962 1.428 . S
C968 N967 1.351 . S
C968 C969 1.434 . S
C969 C960 1.429 . S
C969 N966 1.350 . S
C969 C968 1.434 . S
C970 C971 1.369 . S
C970 C972 1.419 . S
C970 H974 0.930 . S
C971 C970 1.369 . S
C971 C980 1.429 . S
C972 C970 1.419 . S
C972 C973 1.363 . S
C972 H975 0.929 . S
C973 C972 1.363 . S
C973 C979 1.428 . S
H974 C970 0.930 . S
H975 C972 0.929 . S
S976 N977 1.613 . S
S976 N978 1.610 . S
N977 S976 1.613 . S
N977 C980 1.350 . S
N978 S976 1.610 . S
N978 C979 1.351 . S
C979 C973 1.428 . S
C979 N978 1.351 . S
C979 C980 1.434 . S
C980 C971 1.429 . S
C980 N977 1.350 . S
C980 C979 1.434 . S
C981 C982 1.369 . S
C981 C983 1.419 . S
C981 H985 0.930 . S
C982 C981 1.369 . S
C982 C991 1.429 . S
C983 C981 1.419 . S
C983 C984 1.363 . S
C983 H986 0.929 . S
C984 C983 1.363 . S
C984 C990 1.428 . S
H985 C981 0.930 . S
H986 C983 0.929 . S
S987 N988 1.613 . S
S987 N989 1.610 . S
N988 S987 1.613 . S
N988 C991 1.350 . S
N989 S987 1.610 . S
N989 C990 1.351 . S
C990 C984 1.428 . S
C990 N989 1.351 . S
C990 C991 1.434 . S
C991 C982 1.429 . S
C991 N988 1.350 . S
C991 C990 1.434 . S
C992 C993 1.369 . S
C992 C994 1.419 . S
C992 H996 0.930 . S
C993 C992 1.369 . S
C993 C1002 1.429 . S
C994 C992 1.419 . S
C994 C995 1.363 . S
C994 H997 0.929 . S
C995 C994 1.363 . S
C995 C1001 1.428 . S
H996 C992 0.930 . S
H997 C994 0.929 . S
S998 N999 1.613 . S
S998 N1000 1.610 . S
N999 S998 1.613 . S
N999 C1002 1.350 . S
N1000 S998 1.610 . S
N1000 C1001 1.351 . S
C1001 C995 1.428 . S
C1001 N1000 1.351 . S
C1001 C1002 1.434 . S
C1002 C993 1.429 . S
C1002 N999 1.350 . S
C1002 C1001 1.434 . S
C1003 C1004 1.369 . S
C1003 C1005 1.419 . S
C1003 H1007 0.930 . S
C1004 C1003 1.369 . S
C1004 C1013 1.429 . S
C1005 C1003 1.419 . S
C1005 C1006 1.363 . S
C1005 H1008 0.929 . S
C1006 C1005 1.363 . S
C1006 C1012 1.428 . S
H1007 C1003 0.930 . S
H1008 C1005 0.929 . S
S1009 N1010 1.613 . S
S1009 N1011 1.610 1_565 S
N1010 S1009 1.613 . S
N1010 C1013 1.350 1_565 S
N1011 S1009 1.610 1_545 S
N1011 C1012 1.351 . S
C1012 C1006 1.428 . S
C1012 N1011 1.351 . S
C1012 C1013 1.434 . S
C1013 C1004 1.429 . S
C1013 N1010 1.350 1_545 S
C1013 C1012 1.434 . S
C1014 C1015 1.369 . S
C1014 C1016 1.419 1_554 S
C1014 H1018 0.930 . S
C1015 C1014 1.369 . S
C1015 C1024 1.445 . S
C1016 C1014 1.419 1_556 S
C1016 C1017 1.363 . S
C1016 H1019 0.929 . S
C1017 C1016 1.363 . S
C1017 C1023 1.428 . S
H1018 C1014 0.930 . S
H1019 C1016 0.929 . S
S1020 N1021 1.613 1_556 S
S1020 N1022 1.610 . S
N1021 S1020 1.613 1_554 S
N1021 C1024 1.355 . S
N1022 S1020 1.610 . S
N1022 C1023 1.351 . S
C1023 C1017 1.428 . S
C1023 N1022 1.351 . S
C1023 C1024 1.410 1_556 S
C1024 C1015 1.445 . S
C1024 N1021 1.355 . S
C1024 C1023 1.410 1_554 S
C1025 C1026 1.369 . S
C1025 C1027 1.419 . S
C1025 H1029 0.930 . S
C1026 C1025 1.369 . S
C1026 C1035 1.429 . S
C1027 C1025 1.419 . S
C1027 C1028 1.363 . S
C1027 H1030 0.929 . S
C1028 C1027 1.363 . S
C1028 C1034 1.428 . S
H1029 C1025 0.930 . S
H1030 C1027 0.929 . S
S1031 N1032 1.613 . S
S1031 N1033 1.610 . S
N1032 S1031 1.613 . S
N1032 C1035 1.350 . S
N1033 S1031 1.610 . S
N1033 C1034 1.351 . S
C1034 C1028 1.428 . S
C1034 N1033 1.351 . S
C1034 C1035 1.434 . S
C1035 C1026 1.429 . S
C1035 N1032 1.350 . S
C1035 C1034 1.434 . S
C1036 C1037 1.369 . S
C1036 C1038 1.419 . S
C1036 H1040 0.930 . S
C1037 C1036 1.369 . S
C1037 C1046 1.429 . S
C1038 C1036 1.419 . S
C1038 C1039 1.363 . S
C1038 H1041 0.929 . S
C1039 C1038 1.363 . S
C1039 C1045 1.428 . S
H1040 C1036 0.930 . S
H1041 C1038 0.929 . S
S1042 N1043 1.613 . S
S1042 N1044 1.610 . S
N1043 S1042 1.613 . S
N1043 C1046 1.350 . S
N1044 S1042 1.610 . S
N1044 C1045 1.351 . S
C1045 C1039 1.428 . S
C1045 N1044 1.351 . S
C1045 C1046 1.434 . S
C1046 C1037 1.429 . S
C1046 N1043 1.350 . S
C1046 C1045 1.434 . S
C1047 C1048 1.369 . S
C1047 C1049 1.419 . S
C1047 H1051 0.930 . S
C1048 C1047 1.369 . S
C1048 C1057 1.429 . S
C1049 C1047 1.419 . S
C1049 C1050 1.363 . S
C1049 H1052 0.929 . S
C1050 C1049 1.363 . S
C1050 C1056 1.428 . S
H1051 C1047 0.930 . S
H1052 C1049 0.929 . S
S1053 N1054 1.613 . S
S1053 N1055 1.610 . S
N1054 S1053 1.613 . S
N1054 C1057 1.350 . S
N1055 S1053 1.610 . S
N1055 C1056 1.351 . S
C1056 C1050 1.428 . S
C1056 N1055 1.351 . S
C1056 C1057 1.434 . S
C1057 C1048 1.429 . S
C1057 N1054 1.350 . S
C1057 C1056 1.434 . S
C1058 C1059 1.369 . S
C1058 C1060 1.419 1_556 S
C1058 H1062 0.930 . S
C1059 C1058 1.369 . S
C1059 C1068 1.429 1_556 S
C1060 C1058 1.419 1_554 S
C1060 C1061 1.362 . S
C1060 H1063 0.929 1_554 S
C1061 C1060 1.362 . S
C1061 C1067 1.428 . S
H1062 C1058 0.930 . S
H1063 C1060 0.929 1_556 S
S1064 N1065 1.613 . S
S1064 N1066 1.610 . S
N1065 S1064 1.613 . S
N1065 C1068 1.350 . S
N1066 S1064 1.610 . S
N1066 C1067 1.351 . S
C1067 C1061 1.428 . S
C1067 N1066 1.351 . S
C1067 C1068 1.434 . S
C1068 C1059 1.429 1_554 S
C1068 N1065 1.350 . S
C1068 C1067 1.434 . S
C1069 C1070 1.369 . S
C1069 C1071 1.419 . S
C1069 H1073 0.930 . S
C1070 C1069 1.369 . S
C1070 C1079 1.429 . S
C1071 C1069 1.419 . S
C1071 C1072 1.363 . S
C1071 H1074 0.929 . S
C1072 C1071 1.363 . S
C1072 C1078 1.428 . S
H1073 C1069 0.930 . S
H1074 C1071 0.929 . S
S1075 N1076 1.613 . S
S1075 N1077 1.610 . S
N1076 S1075 1.613 . S
N1076 C1079 1.350 . S
N1077 S1075 1.610 . S
N1077 C1078 1.351 . S
C1078 C1072 1.428 . S
C1078 N1077 1.351 . S
C1078 C1079 1.434 . S
C1079 C1070 1.429 . S
C1079 N1076 1.350 . S
C1079 C1078 1.434 . S
C465 C269 1.117 . S
C467 C3 1.138 . S
C476 C298 1.111 . S
C478 C32 1.142 . S
C487 C327 1.117 . S
C489 C61 1.138 . S
C498 C240 1.119 . S
C500 C90 1.133 . S
C509 C119 1.142 . S
C511 C385 1.107 . S
C520 C414 1.113 . S
C522 C148 1.136 . S
C531 C443 1.113 . S
C533 C177 1.136 . S
C542 C206 1.131 . S
C544 C356 1.118 . S
C553 C37 1.104 . S
C555 C235 1.145 . S
C564 C66 1.102 . S
C566 C264 1.145 . S
C575 C293 1.137 . S
C577 C95 1.116 . S
C586 C8 1.118 . S
C588 C322 1.137 . S
C597 C153 1.113 . S
C599 C351 1.136 . S
C608 C380 1.135 . S
C610 C182 1.113 . S
C619 C409 1.147 . S
C621 C211 1.106 . S
C630 C124 1.119 . S
C632 C438 1.136 . S
C641 C213 2.232 . S
C643 C15 2.313 . S
C652 C44 2.312 . S
C654 C358 2.237 . S
C663 C73 2.314 . S
C665 C155 2.232 . S
C674 C416 2.234 . S
C676 C102 2.314 . S
C685 C97 2.237 . S
C687 C131 2.312 . S
C696 C242 2.236 . S
C698 C160 2.313 . S
C707 C39 2.238 . S
C709 C189 2.312 . S
C718 C300 2.233 . S
C720 C218 2.314 . S
C729 C247 2.314 . S
C731 C445 2.232 . S
C740 C276 2.314 1_565 S
C742 C126 2.233 . S
C751 C387 2.234 . S
C753 C305 2.314 . S
C762 C184 2.237 . S
C764 C334 2.312 1_545 S
C773 C363 2.313 . S
C775 C329 2.235 . S
C784 C392 2.314 1_545 S
C786 C10 2.232 . S
C795 C421 2.314 . S
C797 C271 2.232 . S
C806 C450 2.313 1_565 S
C808 C68 2.235 . S
C817 C121 2.403 . S
C819 C5 2.406 . S
C828 C34 2.402 . S
C830 C382 2.407 . S
C839 C179 2.408 . S
C841 C63 2.402 . S
C850 C440 2.401 . S
C852 C92 2.407 . S
C861 C266 2.406 . S
C863 C150 2.403 . S
C872 C208 2.402 . S
C874 C324 2.406 . S
C883 C237 2.405 . S
C885 C353 2.404 . S
C894 C295 2.401 . S
C896 C411 2.407 . S
C905 C419 1.368 . S
C907 C21 1.221 . S
C916 C216 1.377 . S
C918 C50 1.222 . S
C927 C79 1.235 . S
C929 C361 1.375 . S
C938 C158 1.378 . S
C940 C108 1.230 . S
C949 C137 1.218 . S
C951 C303 1.370 . S
C960 C166 1.227 . S
C962 C100 1.369 . S
C971 C195 1.223 . S
C973 C245 1.369 . S
C982 C42 1.372 . S
C984 C224 1.218 . S
C993 C253 1.224 . S
C995 C187 1.369 . S
C1004 C448 1.369 . S
C1006 C282 1.219 . S
C1015 C311 1.227 . S
C1017 C129 1.369 . S
C1026 C340 1.235 . S
C1028 C390 1.375 . S
C1037 C71 1.372 . S
C1039 C369 1.232 . S
C1048 C398 1.220 . S
C1050 C332 1.370 . S
C1059 C427 1.221 . S
C1061 C13 1.369 . S
C1070 C456 1.218 . S
C1072 C274 1.370 . S
