# Generated by pormake.
# Topology sma, (6)-cn, num edge types: 1
# Building blocks:
#     Node 0, Type 0, BuildingBlock: NUHQIS_clean_sbu_0, # of connection points: 6
#     Node 1, Type 0, BuildingBlock: NUHQIS_clean_sbu_0, # of connection points: 6
#     Node 2, Type 0, BuildingBlock: NUHQIS_clean_sbu_0, # of connection points: 6
#     Edge 3, Type (0, 0), BuildingBlock: XIVTED_clean_linker_0, # of connection points: 2
#     Edge 4, Type (0, 0), BuildingBlock: XIVTED_clean_linker_0, # of connection points: 2
#     Edge 5, Type (0, 0), BuildingBlock: XIVTED_clean_linker_0, # of connection points: 2
#     Edge 6, Type (0, 0), BuildingBlock: XIVTED_clean_linker_0, # of connection points: 2
#     Edge 7, Type (0, 0), BuildingBlock: XIVTED_clean_linker_0, # of connection points: 2
#     Edge 8, Type (0, 0), BuildingBlock: XIVTED_clean_linker_0, # of connection points: 2
#     Edge 9, Type (0, 0), BuildingBlock: XIVTED_clean_linker_0, # of connection points: 2
#     Edge 10, Type (0, 0), BuildingBlock: XIVTED_clean_linker_0, # of connection points: 2
#     Edge 11, Type (0, 0), BuildingBlock: XIVTED_clean_linker_0, # of connection points: 2
# Relax obj value: 0.071
# Max RMSD: 0.179
# Mean RMSD: 0.174
data_MOF--net-sma--node1-NUHQIS_clean_sbu_0--edge1-XIVTED_clean_linker_0
_symmetry_space_group_name_H-M    P1
_symmetry_Int_Tables_number       1
_symmetry_cell_setting            triclinic
loop_
_symmetry_equiv_pos_as_xyz
'x, y, z'
_cell_length_a     39.645784
_cell_length_b     39.712056
_cell_length_c     15.261693
_cell_angle_alpha  90.228154
_cell_angle_beta   93.062521
_cell_angle_gamma 119.69501
loop_
_atom_site_label
_atom_site_type_symbol
_atom_site_fract_x
_atom_site_fract_y
_atom_site_fract_z
_atom_type_partial_charge
Tb0 Tb 0.09359 0.52407 0.12878 0.0
Eu1 Eu 1.04334 0.57096 0.12444 0.0
C2 C 0.07122 0.54794 0.30155 0.0
C3 C 1.00085 0.47759 0.13504 0.0
C4 C 0.16937 0.49752 0.08589 0.0
C5 C 0.22167 0.48271 0.07978 0.0
C6 C 0.18738 0.47659 0.11516 0.0
C7 C 0.18629 0.52513 0.02139 0.0
C8 C 0.22062 0.53123 -0.01432 0.0
C9 C 0.23858 0.50986 0.01404 0.0
C10 C 0.13282 0.48986 0.12268 0.0
O11 O 0.0958 0.54801 0.00049 0.0
O12 O 1.03562 0.54224 -0.00713 0.0
O13 O 0.10567 0.61591 0.10797 0.0
O14 O 0.1371 0.58406 0.16222 0.0
C15 C 0.06509 0.54392 -0.04561 0.0
O16 O 1.02946 0.61179 0.05902 0.0
O17 O 1.00392 0.58714 0.18149 0.0
O18 O 0.06936 0.57615 0.26126 0.0
O19 O 0.07224 0.51984 0.25833 0.0
O20 O 1.03287 0.47806 0.11374 0.0
O21 O 0.99934 0.50939 0.15035 0.0
C22 C 0.13727 0.61596 0.13878 0.0
O23 O 0.13597 0.51279 0.18776 0.0
O24 O 0.10438 0.48362 0.06592 0.0
C25 C 0.96773 0.60434 0.08141 0.0
C26 C 0.89648 0.59773 0.01795 0.0
C27 C 0.92986 0.63439 0.03317 0.0
C28 C 0.96508 0.63761 0.06469 0.0
C29 C 0.93484 0.5676 0.06494 0.0
C30 C 0.89945 0.56432 0.03351 0.0
C31 C 1.00504 0.60889 0.11651 0.0
H32 H 0.23509 0.46632 0.10452 0.0
H33 H 0.17484 0.45537 0.16534 0.0
H34 H 0.17276 0.54165 -0.00184 0.0
H35 H 0.23266 0.55214 -0.06521 0.0
H36 H 0.92884 0.66069 0.02039 0.0
H37 H 0.99029 0.66619 0.07643 0.0
H38 H 0.93643 0.54155 0.0772 0.0
H39 H 0.87426 0.53567 0.0232 0.0
Tb40 Tb 0.62543 0.0895 0.477 0.0
Eu41 Eu 0.52927 1.02717 0.46655 0.0
C42 C 0.58036 0.05979 0.64928 0.0
C43 C 0.59109 0.99946 0.47461 0.0
C44 C 0.7255 0.1674 0.42681 0.0
C45 C 0.79236 0.21169 0.39455 0.0
C46 C 0.76533 0.18044 0.44058 0.0
C47 C 0.71281 0.18549 0.36506 0.0
C48 C 0.73989 0.21693 0.31909 0.0
C49 C 0.78004 0.23058 0.33383 0.0
C50 C 0.69796 0.13582 0.47964 0.0
O51 O 0.60886 0.07187 0.34069 0.0
O52 O 0.54331 0.05133 0.33395 0.0
O53 O 0.53977 0.08519 0.51534 0.0
O54 O 0.59627 0.12289 0.44751 0.0
C55 C 0.57614 0.06328 0.29681 0.0
O56 O 0.46968 1.01053 0.41987 0.0
O57 O 0.48052 0.97311 0.50587 0.0
O58 O 0.54992 1.03134 0.60669 0.0
O59 O 0.60984 0.08724 0.61072 0.0
O60 O 0.61566 1.03268 0.51533 0.0
O61 O 0.56007 0.99516 0.42921 0.0
C62 C 0.56564 0.11881 0.48632 0.0
O63 O 0.67372 0.14251 0.52045 0.0
O64 O 0.68087 0.10107 0.44335 0.0
C65 C 0.42538 0.94294 0.40593 0.0
C66 C 0.367 0.87415 0.31896 0.0
C67 C 0.35753 0.90004 0.35933 0.0
C68 C 0.38646 0.93407 0.40244 0.0
C69 C 0.43527 0.91782 0.36378 0.0
C70 C 0.40628 0.88364 0.32082 0.0
C71 C 0.45465 0.97727 0.45802 0.0
H72 H 0.82302 0.22175 0.40849 0.0
H73 H 0.77562 0.16685 0.48817 0.0
H74 H 0.68206 0.17563 0.35332 0.0
H75 H 0.72942 0.23057 0.27215 0.0
H76 H 0.32756 0.89342 0.36021 0.0
H77 H 0.3783 0.95305 0.43493 0.0
H78 H 0.46525 0.92428 0.36548 0.0
H79 H 0.41458 0.86453 0.28951 0.0
Tb80 Tb 0.58078 0.605 0.82406 0.0
Eu81 Eu 0.54908 0.50933 0.81446 0.0
C82 C 0.56538 0.55745 -0.00318 0.0
C83 C 0.63746 0.57166 0.83138 0.0
C84 C 0.60682 0.70822 0.77643 0.0
C85 C 0.62721 0.77641 0.76317 0.0
C86 C 0.6275 0.74647 0.81004 0.0
C87 C 0.58588 0.70012 0.69471 0.0
C88 C 0.58553 0.73019 0.6475 0.0
C89 C 0.60622 0.76874 0.68133 0.0
C90 C 0.60738 0.67758 0.82891 0.0
O91 O 0.58227 0.59053 0.68864 0.0
O92 O 0.5378 0.52521 0.68127 0.0
O93 O 0.50046 0.51781 0.85716 0.0
O94 O 0.51807 0.57603 0.79255 0.0
C95 C 0.55846 0.55832 0.64421 0.0
O96 O 0.50713 0.4503 0.76651 0.0
O97 O 0.55677 0.46078 0.85338 0.0
O98 O 0.56347 0.52736 -0.04383 0.0
O99 O 0.56745 0.58746 -0.04336 0.0
O100 O 0.62749 0.59452 0.8712 0.0
O101 O 0.61172 0.54192 0.7822 0.0
C102 C 0.49208 0.54415 0.8285 0.0
O103 O 0.57467 0.65263 0.86073 0.0
O104 O 0.62563 0.66085 0.79803 0.0
C105 C 0.53199 0.40702 0.75123 0.0
C106 C 0.53825 0.34708 0.66623 0.0
C107 C 0.5025 0.34665 0.66402 0.0
C108 C 0.4994 0.37618 0.70637 0.0
C109 C 0.56811 0.40838 0.75066 0.0
C110 C 0.57119 0.37872 0.7086 0.0
C111 C 0.52693 0.43542 0.8038 0.0
H112 H 0.64282 0.80552 0.79214 0.0
H113 H 0.64368 0.75317 0.87323 0.0
H114 H 0.56979 0.67065 0.66779 0.0
H115 H 0.56929 0.72332 0.58445 0.0
H116 H 0.47668 0.32311 0.63072 0.0
H117 H 0.47122 0.3744 0.70589 0.0
H118 H 0.59382 0.43173 0.78479 0.0
H119 H 0.59909 0.37986 0.71244 0.0
H120 H 0.30182 0.57802 -0.03246 0.0
H121 H 0.42731 0.47701 0.86702 0.0
H122 H 0.25764 0.4545 -0.02826 0.0
H123 H 0.46741 0.59787 0.82125 0.0
H124 H 0.36448 0.46854 0.90234 0.0
H125 H 0.36196 0.58631 0.91048 0.0
C126 C 0.30456 0.5526 -0.04424 0.0
C127 C 0.27467 0.51551 -0.02458 0.0
C128 C 0.38684 0.49689 0.88396 0.0
C129 C 0.34364 0.52489 0.911 0.0
C130 C 0.42283 0.50177 0.86382 0.0
C131 C 0.45281 0.53827 0.84157 0.0
C132 C 0.3807 0.52881 0.8829 0.0
C133 C 0.44512 0.5692 0.83799 0.0
C134 C 0.33899 0.55739 -0.07652 0.0
C135 C 0.28013 0.48373 -0.04048 0.0
N136 N 0.40992 0.56386 0.85932 0.0
N137 N 0.31393 0.48918 -0.07118 0.0
H138 H 0.77963 0.29843 0.30283 0.0
H139 H 0.99289 0.40496 0.12227 0.0
H140 H 0.84726 0.24218 0.26397 0.0
H141 H 0.92857 0.46332 0.17759 0.0
H142 H 0.93684 0.34351 0.15791 0.0
H143 H 0.83066 0.35717 0.24085 0.0
C144 C 0.80495 0.29822 0.28019 0.0
C145 C 0.80924 0.26534 0.28929 0.0
C146 C 0.93488 0.36972 0.16164 0.0
C147 C 0.86811 0.33278 0.21919 0.0
C148 C 0.9669 0.4049 0.14106 0.0
C149 C 0.9657 0.43958 0.14758 0.0
C150 C 0.9013 0.36907 0.18907 0.0
C151 C 0.93105 0.43746 0.17216 0.0
C152 C 0.83423 0.3319 0.24533 0.0
C153 C 0.84298 0.26702 0.25969 0.0
N154 N 0.90038 0.40289 0.19253 0.0
N155 N 0.87115 0.30019 0.22645 0.0
H156 H 0.6549 0.99806 0.54765 0.0
H157 H 0.5441 0.76829 0.59054 0.0
H158 H 0.53838 0.92278 0.43547 0.0
H159 H 0.66615 0.84286 0.66382 0.0
H160 H 0.54204 0.82361 0.52607 0.0
H161 H 0.66025 0.94107 0.58443 0.0
C162 C 0.63053 0.96955 0.53007 0.0
C163 C 0.59605 0.96525 0.48893 0.0
C164 C 0.56935 0.82777 0.55559 0.0
C165 C 0.60185 0.89968 0.53167 0.0
C166 C 0.5706 0.79612 0.59203 0.0
C167 C 0.60525 0.80095 0.63374 0.0
C168 C 0.60293 0.86458 0.5612 0.0
C169 C 0.63856 0.83788 0.63425 0.0
C170 C 0.63362 0.93696 0.55104 0.0
C171 C 0.56552 0.92752 0.46731 0.0
N172 N 0.63648 0.86826 0.59937 0.0
N173 N 0.56898 0.8962 0.48977 0.0
H174 H 0.66721 0.52684 0.77225 0.0
H175 H 0.86601 0.64258 0.07062 0.0
H176 H 0.69733 0.62807 -0.06436 0.0
H177 H 0.84063 0.54574 0.8968 0.0
H178 H 0.80446 0.63783 0.0198 0.0
H179 H 0.73075 0.53362 0.81425 0.0
C180 C 0.68724 0.55066 0.81642 0.0
C181 C 0.6768 0.57687 0.85066 0.0
C182 C 0.81233 0.61764 -0.00751 0.0
C183 C 0.74949 0.58458 0.89945 0.0
C184 C 0.84764 0.62047 0.0212 0.0
C185 C 0.85871 0.59464 -0.0123 0.0
C186 C 0.78761 0.58868 -0.07014 0.0
C187 C 0.83317 0.56604 -0.07485 0.0
C188 C 0.7235 0.55444 0.84052 0.0
C189 C 0.70399 0.6071 0.90772 0.0
N190 N 0.79882 0.56383 0.89825 0.0
N191 N 0.73894 0.61001 -0.06946 0.0
H192 H 0.3019 0.86053 0.21754 0.0
H193 H 0.20856 0.62962 0.20776 0.0
H194 H 0.36042 0.80218 0.32989 0.0
H195 H 0.1493 0.68853 0.10224 0.0
H196 H 0.26665 0.69254 0.24126 0.0
H197 H 0.24794 0.79787 0.16375 0.0
C198 C 0.30346 0.83454 0.2307 0.0
C199 C 0.33566 0.83665 0.27893 0.0
C200 C 0.24101 0.69167 0.21025 0.0
C201 C 0.27393 0.76466 0.21711 0.0
C202 C 0.20779 0.65572 0.19096 0.0
C203 C 0.17378 0.65367 0.15267 0.0
C204 C 0.24029 0.72591 0.19125 0.0
C205 C 0.17469 0.68856 0.13221 0.0
C206 C 0.27269 0.79875 0.19964 0.0
C207 C 0.33636 0.80202 0.29251 0.0
N208 N 0.20727 0.72317 0.15223 0.0
N209 N 0.30584 0.76746 0.26238 0.0
H210 H 0.48489 0.26982 0.67382 0.0
H211 H 0.6161 0.19535 0.45356 0.0
H212 H 0.59707 0.34742 0.57659 0.0
H213 H 0.50394 0.12027 0.55415 0.0
H214 H 0.60852 0.2514 0.48906 0.0
H215 H 0.49007 0.21485 0.62069 0.0
C216 C 0.51044 0.2754 0.64023 0.0
C217 C 0.54055 0.31348 0.62965 0.0
C218 C 0.58552 0.22261 0.50284 0.0
C219 C 0.54707 0.2502 0.56989 0.0
C220 C 0.58977 0.19058 0.48242 0.0
C221 C 0.5607 0.15298 0.50125 0.0
C222 C 0.55195 0.217 0.54229 0.0
C223 C 0.52725 0.14864 0.53881 0.0
C224 C 0.51353 0.24387 0.61044 0.0
C225 C 0.57333 0.31863 0.58721 0.0
N226 N 0.5239 0.1802 0.55831 0.0
N227 N 0.57578 0.28736 0.55914 0.0
H228 H 1.01909 0.55817 0.83855 0.0
H229 H 0.09506 0.5088 0.41195 0.0
H230 H 0.11038 0.5286 0.85149 0.0
H231 H 1.04616 0.58477 0.40965 0.0
H232 H 0.09301 0.50693 0.57195 0.0
H233 H 1.02042 0.55886 0.67847 0.0
C234 C 1.03926 0.55165 0.80766 0.0
C235 C 0.06476 0.54343 0.85805 0.0
C236 C 0.08285 0.52406 0.53622 0.0
C237 C 0.06622 0.54397 0.67585 0.0
C238 C 0.08388 0.52505 0.44513 0.0
C239 C 0.07085 0.54706 0.39779 0.0
C240 C 0.06806 0.54467 0.57973 0.0
C241 C 0.05674 0.56766 0.44385 0.0
C242 C 1.04014 0.55225 0.71656 0.0
C243 C 0.09042 0.53532 0.81489 0.0
N244 N 1.05548 0.56576 0.53244 0.0
N245 N 0.09039 0.53561 0.72599 0.0
H246 H 0.51321 1.03424 0.17941 0.0
H247 H 0.64109 0.10703 0.76417 0.0
H248 H 0.63903 0.09852 0.1982 0.0
H249 H 0.51981 1.01798 0.75099 0.0
H250 H 0.63979 0.11139 0.92318 0.0
H251 H 0.51414 0.03606 0.02011 0.0
C252 C 0.541 0.04888 0.15 0.0
C253 C 0.57612 0.06585 0.20157 0.0
C254 C 0.61355 0.0909 0.88523 0.0
C255 C 0.57732 0.0679 0.02054 0.0
C256 C 0.61424 0.08838 0.79473 0.0
C257 C 0.58055 0.06197 0.74474 0.0
C258 C 0.57889 0.06701 -0.07475 0.0
C259 C 0.54653 0.03852 0.78729 0.0
C260 C 0.5415 0.04978 0.05929 0.0
C261 C 0.61131 0.08459 0.16048 0.0
N262 N 0.54656 0.04163 0.87546 0.0
N263 N 0.61103 0.08501 0.0719 0.0
H264 H 0.5873 0.62159 0.54215 0.0
H265 H 0.54565 0.49609 0.10244 0.0
H266 H 0.52539 0.49614 0.52943 0.0
H267 H 0.58125 0.61817 0.10719 0.0
H268 H 0.54145 0.49616 0.26095 0.0
H269 H 0.58778 0.62147 0.38263 0.0
C270 C 0.5737 0.59405 0.50573 0.0
C271 C 0.55659 0.55882 0.54864 0.0
C272 C 0.55005 0.52286 0.22709 0.0
C273 C 0.55714 0.55851 0.36744 0.0
C274 C 0.55272 0.52291 0.13689 0.0
C275 C 0.56385 0.55719 0.09205 0.0
C276 C 0.55887 0.55737 0.2722 0.0
C277 C 0.57243 0.59108 0.13945 0.0
C278 C 0.57388 0.59401 0.4149 0.0
C279 C 0.53899 0.52396 0.49871 0.0
N280 N 0.56985 0.59034 0.22741 0.0
N281 N 0.53998 0.52469 0.41038 0.0
loop_
_geom_bond_atom_site_label_1
_geom_bond_atom_site_label_2
_geom_bond_distance
_geom_bond_site_symmetry_2
_ccdc_geom_bond_type
Tb0 C10 2.825 . S
Tb0 O11 2.347 . S
Tb0 O14 2.366 . S
Tb0 O19 2.418 . S
Tb0 O20 2.384 1_455 S
Tb0 O23 2.479 . S
Tb0 O24 2.471 . S
Eu1 O12 2.418 1_554 S
Eu1 O13 2.384 1_655 S
Eu1 O16 2.479 . S
Eu1 O17 2.471 . S
Eu1 O18 2.347 1_655 S
Eu1 O21 2.366 . S
Eu1 C31 2.825 . S
C2 O18 1.259 . S
C2 O19 1.265 . S
C3 O20 1.255 . S
C3 O21 1.265 . S
C4 C6 1.380 . S
C4 C7 1.374 . S
C4 C10 1.507 . S
C5 C6 1.384 . S
C5 C9 1.387 . S
C5 H32 0.930 . S
C6 C4 1.380 . S
C6 C5 1.384 . S
C6 H33 0.931 . S
C7 C4 1.374 . S
C7 C8 1.390 . S
C7 H34 0.930 . S
C8 C7 1.390 . S
C8 C9 1.391 . S
C8 H35 0.930 1_554 S
C9 C5 1.387 . S
C9 C8 1.391 . S
C10 Tb0 2.825 . S
C10 C4 1.507 . S
C10 O23 1.238 . S
C10 O24 1.247 . S
O11 Tb0 2.347 . S
O11 C15 1.259 1_554 S
O12 Eu1 2.418 1_556 S
O12 C15 1.265 1_655 S
O13 Eu1 2.384 1_455 S
O13 C22 1.255 . S
O14 Tb0 2.366 . S
O14 C22 1.265 . S
C15 O11 1.259 1_556 S
C15 O12 1.265 1_455 S
O16 Eu1 2.479 . S
O16 C31 1.238 . S
O17 Eu1 2.471 . S
O17 C31 1.247 . S
O18 Eu1 2.347 1_455 S
O18 C2 1.259 . S
O19 Tb0 2.418 . S
O19 C2 1.265 . S
O20 Tb0 2.384 1_655 S
O20 C3 1.255 . S
O21 Eu1 2.366 . S
O21 C3 1.265 . S
C22 O13 1.255 . S
C22 O14 1.265 . S
O23 Tb0 2.479 . S
O23 C10 1.238 . S
O24 Tb0 2.471 . S
O24 C10 1.247 . S
C25 C28 1.380 . S
C25 C29 1.374 . S
C25 C31 1.507 . S
C26 C27 1.387 . S
C26 C30 1.391 . S
C27 C26 1.387 . S
C27 C28 1.384 . S
C27 H36 0.930 . S
C28 C25 1.380 . S
C28 C27 1.384 . S
C28 H37 0.931 . S
C29 C25 1.374 . S
C29 C30 1.390 . S
C29 H38 0.930 . S
C30 C26 1.391 . S
C30 C29 1.390 . S
C30 H39 0.930 . S
C31 Eu1 2.825 . S
C31 O16 1.238 . S
C31 O17 1.247 . S
C31 C25 1.507 . S
H32 C5 0.930 . S
H33 C6 0.931 . S
H34 C7 0.930 . S
H35 C8 0.930 1_556 S
H36 C27 0.930 . S
H37 C28 0.931 . S
H38 C29 0.930 . S
H39 C30 0.930 . S
Tb40 C50 2.825 . S
Tb40 O51 2.347 . S
Tb40 O54 2.366 . S
Tb40 O59 2.418 . S
Tb40 O60 2.384 1_545 S
Tb40 O63 2.479 . S
Tb40 O64 2.471 . S
Eu41 O52 2.418 . S
Eu41 O53 2.384 1_565 S
Eu41 O56 2.479 . S
Eu41 O57 2.471 . S
Eu41 O58 2.347 1_565 S
Eu41 O61 2.366 . S
Eu41 C71 2.825 . S
C42 O58 1.259 . S
C42 O59 1.265 . S
C43 O60 1.255 . S
C43 O61 1.265 . S
C44 C46 1.380 . S
C44 C47 1.374 . S
C44 C50 1.507 . S
C45 C46 1.384 . S
C45 C49 1.387 . S
C45 H72 0.930 . S
C46 C44 1.380 . S
C46 C45 1.384 . S
C46 H73 0.931 . S
C47 C44 1.374 . S
C47 C48 1.390 . S
C47 H74 0.930 . S
C48 C47 1.390 . S
C48 C49 1.391 . S
C48 H75 0.930 . S
C49 C45 1.387 . S
C49 C48 1.391 . S
C50 Tb40 2.825 . S
C50 C44 1.507 . S
C50 O63 1.238 . S
C50 O64 1.247 . S
O51 Tb40 2.347 . S
O51 C55 1.259 . S
O52 Eu41 2.418 . S
O52 C55 1.265 1_565 S
O53 Eu41 2.384 1_545 S
O53 C62 1.255 . S
O54 Tb40 2.366 . S
O54 C62 1.265 . S
C55 O51 1.259 . S
C55 O52 1.265 1_545 S
O56 Eu41 2.479 . S
O56 C71 1.238 . S
O57 Eu41 2.471 . S
O57 C71 1.247 . S
O58 Eu41 2.347 1_545 S
O58 C42 1.259 . S
O59 Tb40 2.418 . S
O59 C42 1.265 . S
O60 Tb40 2.384 1_565 S
O60 C43 1.255 . S
O61 Eu41 2.366 . S
O61 C43 1.265 . S
C62 O53 1.255 . S
C62 O54 1.265 . S
O63 Tb40 2.479 . S
O63 C50 1.238 . S
O64 Tb40 2.471 . S
O64 C50 1.247 . S
C65 C68 1.380 . S
C65 C69 1.374 . S
C65 C71 1.507 . S
C66 C67 1.387 . S
C66 C70 1.391 . S
C67 C66 1.387 . S
C67 C68 1.384 . S
C67 H76 0.930 . S
C68 C65 1.380 . S
C68 C67 1.384 . S
C68 H77 0.931 . S
C69 C65 1.374 . S
C69 C70 1.390 . S
C69 H78 0.930 . S
C70 C66 1.391 . S
C70 C69 1.390 . S
C70 H79 0.930 . S
C71 Eu41 2.825 . S
C71 O56 1.238 . S
C71 O57 1.247 . S
C71 C65 1.507 . S
H72 C45 0.930 . S
H73 C46 0.931 . S
H74 C47 0.930 . S
H75 C48 0.930 . S
H76 C67 0.930 . S
H77 C68 0.931 . S
H78 C69 0.930 . S
H79 C70 0.930 . S
Tb80 C90 2.825 . S
Tb80 O91 2.347 . S
Tb80 O94 2.366 . S
Tb80 O99 2.418 1_556 S
Tb80 O100 2.384 . S
Tb80 O103 2.479 . S
Tb80 O104 2.471 . S
Eu81 O92 2.418 . S
Eu81 O93 2.384 . S
Eu81 O96 2.479 . S
Eu81 O97 2.471 . S
Eu81 O98 2.347 . S
Eu81 O101 2.366 . S
Eu81 C111 2.825 . S
C82 O98 1.259 1_554 S
C82 O99 1.265 . S
C83 O100 1.255 . S
C83 O101 1.265 . S
C84 C86 1.380 . S
C84 C87 1.374 . S
C84 C90 1.507 . S
C85 C86 1.384 . S
C85 C89 1.387 . S
C85 H112 0.930 . S
C86 C84 1.380 . S
C86 C85 1.384 . S
C86 H113 0.931 . S
C87 C84 1.374 . S
C87 C88 1.390 . S
C87 H114 0.930 . S
C88 C87 1.390 . S
C88 C89 1.391 . S
C88 H115 0.930 . S
C89 C85 1.387 . S
C89 C88 1.391 . S
C90 Tb80 2.825 . S
C90 C84 1.507 . S
C90 O103 1.238 . S
C90 O104 1.247 . S
O91 Tb80 2.347 . S
O91 C95 1.259 . S
O92 Eu81 2.418 . S
O92 C95 1.265 . S
O93 Eu81 2.384 . S
O93 C102 1.255 . S
O94 Tb80 2.366 . S
O94 C102 1.265 . S
C95 O91 1.259 . S
C95 O92 1.265 . S
O96 Eu81 2.479 . S
O96 C111 1.238 . S
O97 Eu81 2.471 . S
O97 C111 1.247 . S
O98 Eu81 2.347 . S
O98 C82 1.259 1_556 S
O99 Tb80 2.418 1_554 S
O99 C82 1.265 . S
O100 Tb80 2.384 . S
O100 C83 1.255 . S
O101 Eu81 2.366 . S
O101 C83 1.265 . S
C102 O93 1.255 . S
C102 O94 1.265 . S
O103 Tb80 2.479 . S
O103 C90 1.238 . S
O104 Tb80 2.471 . S
O104 C90 1.247 . S
C105 C108 1.380 . S
C105 C109 1.374 . S
C105 C111 1.507 . S
C106 C107 1.387 . S
C106 C110 1.391 . S
C107 C106 1.387 . S
C107 C108 1.384 . S
C107 H116 0.930 . S
C108 C105 1.380 . S
C108 C107 1.384 . S
C108 H117 0.931 . S
C109 C105 1.374 . S
C109 C110 1.390 . S
C109 H118 0.930 . S
C110 C106 1.391 . S
C110 C109 1.390 . S
C110 H119 0.930 1_556 S
C111 Eu81 2.825 . S
C111 O96 1.238 . S
C111 O97 1.247 . S
C111 C105 1.507 . S
H112 C85 0.930 . S
H113 C86 0.931 . S
H114 C87 0.930 . S
H115 C88 0.930 . S
H116 C107 0.930 . S
H117 C108 0.931 . S
H118 C109 0.930 . S
H119 C110 0.930 1_554 S
H120 C126 0.930 . S
H121 C130 0.930 . S
H122 C135 0.929 . S
H123 C133 0.929 . S
H124 C128 0.929 . S
H125 C134 0.929 . S
C126 H120 0.930 . S
C126 C127 1.367 1_556 S
C126 C134 1.378 . S
C127 C126 1.367 1_554 S
C127 C135 1.433 . S
C128 H124 0.929 . S
C128 C130 1.378 1_554 S
C128 C132 1.350 1_554 S
C129 C132 1.463 . S
C129 C134 1.350 . S
C129 N137 1.427 1_556 S
C130 H121 0.930 . S
C130 C128 1.378 1_556 S
C130 C131 1.367 . S
C131 C130 1.367 . S
C131 C133 1.433 . S
C132 C128 1.350 1_556 S
C132 C129 1.463 . S
C132 N136 1.427 . S
C133 H123 0.929 . S
C133 C131 1.433 . S
C133 N136 1.384 . S
C134 H125 0.929 . S
C134 C126 1.378 . S
C134 C129 1.350 . S
C135 H122 0.929 . S
C135 C127 1.433 . S
C135 N137 1.384 . S
N136 C132 1.427 . S
N136 C133 1.384 . S
N137 C129 1.427 1_554 S
N137 C135 1.384 . S
H138 C144 0.930 . S
H139 C148 0.930 . S
H140 C153 0.929 . S
H141 C151 0.929 . S
H142 C146 0.929 . S
H143 C152 0.929 . S
C144 H138 0.930 . S
C144 C145 1.367 . S
C144 C152 1.378 . S
C145 C144 1.367 . S
C145 C153 1.433 . S
C146 H142 0.929 . S
C146 C148 1.378 . S
C146 C150 1.350 . S
C147 C150 1.463 . S
C147 C152 1.350 . S
C147 N155 1.427 . S
C148 H139 0.930 . S
C148 C146 1.378 . S
C148 C149 1.367 . S
C149 C148 1.367 . S
C149 C151 1.433 . S
C150 C146 1.350 . S
C150 C147 1.463 . S
C150 N154 1.427 . S
C151 H141 0.929 . S
C151 C149 1.433 . S
C151 N154 1.384 . S
C152 H143 0.929 . S
C152 C144 1.378 . S
C152 C147 1.350 . S
C153 H140 0.929 . S
C153 C145 1.433 . S
C153 N155 1.384 . S
N154 C150 1.427 . S
N154 C151 1.384 . S
N155 C147 1.427 . S
N155 C153 1.384 . S
H156 C162 0.930 . S
H157 C166 0.930 . S
H158 C171 0.929 . S
H159 C169 0.929 . S
H160 C164 0.929 . S
H161 C170 0.929 . S
C162 H156 0.930 . S
C162 C163 1.367 . S
C162 C170 1.378 . S
C163 C162 1.367 . S
C163 C171 1.433 . S
C164 H160 0.929 . S
C164 C166 1.378 . S
C164 C168 1.350 . S
C165 C168 1.463 . S
C165 C170 1.350 . S
C165 N173 1.427 . S
C166 H157 0.930 . S
C166 C164 1.378 . S
C166 C167 1.367 . S
C167 C166 1.367 . S
C167 C169 1.433 . S
C168 C164 1.350 . S
C168 C165 1.463 . S
C168 N172 1.427 . S
C169 H159 0.929 . S
C169 C167 1.433 . S
C169 N172 1.384 . S
C170 H161 0.929 . S
C170 C162 1.378 . S
C170 C165 1.350 . S
C171 H158 0.929 . S
C171 C163 1.433 . S
C171 N173 1.384 . S
N172 C168 1.427 . S
N172 C169 1.384 . S
N173 C165 1.427 . S
N173 C171 1.384 . S
H174 C180 0.930 . S
H175 C184 0.930 . S
H176 C189 0.929 . S
H177 C187 0.929 . S
H178 C182 0.929 . S
H179 C188 0.929 . S
C180 H174 0.930 . S
C180 C181 1.367 . S
C180 C188 1.378 . S
C181 C180 1.367 . S
C181 C189 1.433 . S
C182 H178 0.929 . S
C182 C184 1.378 . S
C182 C186 1.350 . S
C183 C186 1.463 1_556 S
C183 C188 1.350 . S
C183 N191 1.427 . S
C184 H175 0.930 . S
C184 C182 1.378 . S
C184 C185 1.367 . S
C185 C184 1.367 . S
C185 C187 1.433 . S
C186 C182 1.350 . S
C186 C183 1.463 1_554 S
C186 N190 1.427 . S
C187 H177 0.929 . S
C187 C185 1.433 . S
C187 N190 1.384 . S
C188 H179 0.929 . S
C188 C180 1.378 . S
C188 C183 1.350 . S
C189 H176 0.929 . S
C189 C181 1.433 . S
C189 N191 1.384 . S
N190 C186 1.427 . S
N190 C187 1.384 . S
N191 C183 1.427 . S
N191 C189 1.384 . S
H192 C198 0.930 . S
H193 C202 0.930 . S
H194 C207 0.929 . S
H195 C205 0.929 . S
H196 C200 0.929 . S
H197 C206 0.929 . S
C198 H192 0.930 . S
C198 C199 1.367 . S
C198 C206 1.378 . S
C199 C198 1.367 . S
C199 C207 1.433 . S
C200 H196 0.929 . S
C200 C202 1.378 . S
C200 C204 1.350 . S
C201 C204 1.463 . S
C201 C206 1.350 . S
C201 N209 1.427 . S
C202 H193 0.930 . S
C202 C200 1.378 . S
C202 C203 1.367 . S
C203 C202 1.367 . S
C203 C205 1.433 . S
C204 C200 1.350 . S
C204 C201 1.463 . S
C204 N208 1.427 . S
C205 H195 0.929 . S
C205 C203 1.433 . S
C205 N208 1.384 . S
C206 H197 0.929 . S
C206 C198 1.378 . S
C206 C201 1.350 . S
C207 H194 0.929 . S
C207 C199 1.433 . S
C207 N209 1.384 . S
N208 C204 1.427 . S
N208 C205 1.384 . S
N209 C201 1.427 . S
N209 C207 1.384 . S
H210 C216 0.930 . S
H211 C220 0.930 . S
H212 C225 0.929 . S
H213 C223 0.929 . S
H214 C218 0.929 . S
H215 C224 0.929 . S
C216 H210 0.930 . S
C216 C217 1.367 . S
C216 C224 1.378 . S
C217 C216 1.367 . S
C217 C225 1.433 . S
C218 H214 0.929 . S
C218 C220 1.378 . S
C218 C222 1.350 . S
C219 C222 1.463 . S
C219 C224 1.350 . S
C219 N227 1.427 . S
C220 H211 0.930 . S
C220 C218 1.378 . S
C220 C221 1.367 . S
C221 C220 1.367 . S
C221 C223 1.433 . S
C222 C218 1.350 . S
C222 C219 1.463 . S
C222 N226 1.427 . S
C223 H213 0.929 . S
C223 C221 1.433 . S
C223 N226 1.384 . S
C224 H215 0.929 . S
C224 C216 1.378 . S
C224 C219 1.350 . S
C225 H212 0.929 . S
C225 C217 1.433 . S
C225 N227 1.384 . S
N226 C222 1.427 . S
N226 C223 1.384 . S
N227 C219 1.427 . S
N227 C225 1.384 . S
H228 C234 0.930 . S
H229 C238 0.930 . S
H230 C243 0.929 . S
H231 C241 0.929 . S
H232 C236 0.929 . S
H233 C242 0.929 . S
C234 H228 0.930 . S
C234 C235 1.367 1_655 S
C234 C242 1.378 . S
C235 C234 1.367 1_455 S
C235 C243 1.433 . S
C236 H232 0.929 . S
C236 C238 1.378 . S
C236 C240 1.350 . S
C237 C240 1.463 . S
C237 C242 1.350 1_455 S
C237 N245 1.427 . S
C238 H229 0.930 . S
C238 C236 1.378 . S
C238 C239 1.367 . S
C239 C238 1.367 . S
C239 C241 1.433 1_455 S
C240 C236 1.350 . S
C240 C237 1.463 . S
C240 N244 1.427 1_455 S
C241 H231 0.929 . S
C241 C239 1.433 1_655 S
C241 N244 1.384 . S
C242 H233 0.929 . S
C242 C234 1.378 . S
C242 C237 1.350 1_655 S
C243 H230 0.929 . S
C243 C235 1.433 . S
C243 N245 1.384 . S
N244 C240 1.427 1_655 S
N244 C241 1.384 . S
N245 C237 1.427 . S
N245 C243 1.384 . S
H246 C252 0.930 . S
H247 C256 0.930 . S
H248 C261 0.929 . S
H249 C259 0.929 . S
H250 C254 0.929 . S
H251 C260 0.929 . S
C252 H246 0.930 . S
C252 C253 1.367 1_565 S
C252 C260 1.378 . S
C253 C252 1.367 1_545 S
C253 C261 1.433 . S
C254 H250 0.929 . S
C254 C256 1.378 . S
C254 C258 1.350 . S
C255 C258 1.463 1_554 S
C255 C260 1.350 1_545 S
C255 N263 1.427 . S
C256 H247 0.930 . S
C256 C254 1.378 . S
C256 C257 1.367 . S
C257 C256 1.367 . S
C257 C259 1.433 1_545 S
C258 C254 1.350 . S
C258 C255 1.463 1_556 S
C258 N262 1.427 1_545 S
C259 H249 0.929 . S
C259 C257 1.433 1_565 S
C259 N262 1.384 . S
C260 H251 0.929 . S
C260 C252 1.378 . S
C260 C255 1.350 1_565 S
C261 H248 0.929 . S
C261 C253 1.433 . S
C261 N263 1.384 . S
N262 C258 1.427 1_565 S
N262 C259 1.384 . S
N263 C255 1.427 . S
N263 C261 1.384 . S
H264 C270 0.930 . S
H265 C274 0.930 . S
H266 C279 0.929 . S
H267 C277 0.929 . S
H268 C272 0.929 . S
H269 C278 0.929 . S
C270 H264 0.930 . S
C270 C271 1.367 . S
C270 C278 1.378 . S
C271 C270 1.367 . S
C271 C279 1.433 . S
C272 H268 0.929 . S
C272 C274 1.378 . S
C272 C276 1.350 . S
C273 C276 1.463 . S
C273 C278 1.350 . S
C273 N281 1.427 . S
C274 H265 0.930 . S
C274 C272 1.378 . S
C274 C275 1.367 . S
C275 C274 1.367 . S
C275 C277 1.433 . S
C276 C272 1.350 . S
C276 C273 1.463 . S
C276 N280 1.427 . S
C277 H267 0.929 . S
C277 C275 1.433 . S
C277 N280 1.384 . S
C278 H269 0.929 . S
C278 C270 1.378 . S
C278 C273 1.350 . S
C279 H266 0.929 . S
C279 C271 1.433 . S
C279 N281 1.384 . S
N280 C276 1.427 . S
N280 C277 1.384 . S
N281 C273 1.427 . S
N281 C279 1.384 . S
C127 C9 1.977 . S
C131 C102 1.963 . S
C145 C49 2.093 . S
C149 C3 2.071 . S
C163 C43 1.989 . S
C167 C89 2.001 . S
C181 C83 2.123 . S
C185 C26 2.065 . S
C199 C66 1.936 . S
C203 C22 1.990 . S
C217 C106 2.033 . S
C221 C62 2.084 . S
C235 C15 0.545 . S
C239 C2 0.545 . S
C253 C55 0.514 . S
C257 C42 0.514 . S
C271 C95 0.551 . S
C275 C82 0.551 . S
