# Generated by pormake.
# Topology fny, (5)-cn, num edge types: 1
# Building blocks:
#     Node 0, Type 0, BuildingBlock: XOMCOT_clean_sbu_0, # of connection points: 5
#     Node 1, Type 0, BuildingBlock: XOMCOT_clean_sbu_0, # of connection points: 5
#     Node 2, Type 0, BuildingBlock: XOMCOT_clean_sbu_0, # of connection points: 5
#     Node 3, Type 0, BuildingBlock: XOMCOT_clean_sbu_0, # of connection points: 5
#     Node 4, Type 0, BuildingBlock: XOMCOT_clean_sbu_0, # of connection points: 5
#     Node 5, Type 0, BuildingBlock: XOMCOT_clean_sbu_0, # of connection points: 5
#     Node 6, Type 0, BuildingBlock: XOMCOT_clean_sbu_0, # of connection points: 5
#     Node 7, Type 0, BuildingBlock: XOMCOT_clean_sbu_0, # of connection points: 5
#     Node 8, Type 0, BuildingBlock: XOMCOT_clean_sbu_0, # of connection points: 5
#     Node 9, Type 0, BuildingBlock: XOMCOT_clean_sbu_0, # of connection points: 5
#     Node 10, Type 0, BuildingBlock: XOMCOT_clean_sbu_0, # of connection points: 5
#     Node 11, Type 0, BuildingBlock: XOMCOT_clean_sbu_0, # of connection points: 5
#     Edge 12, Type (0, 0), BuildingBlock: EZIPEK_clean_linker_0, # of connection points: 2
#     Edge 13, Type (0, 0), BuildingBlock: EZIPEK_clean_linker_0, # of connection points: 2
#     Edge 14, Type (0, 0), BuildingBlock: EZIPEK_clean_linker_0, # of connection points: 2
#     Edge 15, Type (0, 0), BuildingBlock: EZIPEK_clean_linker_0, # of connection points: 2
#     Edge 16, Type (0, 0), BuildingBlock: EZIPEK_clean_linker_0, # of connection points: 2
#     Edge 17, Type (0, 0), BuildingBlock: EZIPEK_clean_linker_0, # of connection points: 2
#     Edge 18, Type (0, 0), BuildingBlock: EZIPEK_clean_linker_0, # of connection points: 2
#     Edge 19, Type (0, 0), BuildingBlock: EZIPEK_clean_linker_0, # of connection points: 2
#     Edge 20, Type (0, 0), BuildingBlock: EZIPEK_clean_linker_0, # of connection points: 2
#     Edge 21, Type (0, 0), BuildingBlock: EZIPEK_clean_linker_0, # of connection points: 2
#     Edge 22, Type (0, 0), BuildingBlock: EZIPEK_clean_linker_0, # of connection points: 2
#     Edge 23, Type (0, 0), BuildingBlock: EZIPEK_clean_linker_0, # of connection points: 2
#     Edge 24, Type (0, 0), BuildingBlock: EZIPEK_clean_linker_0, # of connection points: 2
#     Edge 25, Type (0, 0), BuildingBlock: EZIPEK_clean_linker_0, # of connection points: 2
#     Edge 26, Type (0, 0), BuildingBlock: EZIPEK_clean_linker_0, # of connection points: 2
#     Edge 27, Type (0, 0), BuildingBlock: EZIPEK_clean_linker_0, # of connection points: 2
#     Edge 28, Type (0, 0), BuildingBlock: EZIPEK_clean_linker_0, # of connection points: 2
#     Edge 29, Type (0, 0), BuildingBlock: EZIPEK_clean_linker_0, # of connection points: 2
#     Edge 30, Type (0, 0), BuildingBlock: EZIPEK_clean_linker_0, # of connection points: 2
#     Edge 31, Type (0, 0), BuildingBlock: EZIPEK_clean_linker_0, # of connection points: 2
#     Edge 32, Type (0, 0), BuildingBlock: EZIPEK_clean_linker_0, # of connection points: 2
#     Edge 33, Type (0, 0), BuildingBlock: EZIPEK_clean_linker_0, # of connection points: 2
#     Edge 34, Type (0, 0), BuildingBlock: EZIPEK_clean_linker_0, # of connection points: 2
#     Edge 35, Type (0, 0), BuildingBlock: EZIPEK_clean_linker_0, # of connection points: 2
#     Edge 36, Type (0, 0), BuildingBlock: EZIPEK_clean_linker_0, # of connection points: 2
#     Edge 37, Type (0, 0), BuildingBlock: EZIPEK_clean_linker_0, # of connection points: 2
#     Edge 38, Type (0, 0), BuildingBlock: EZIPEK_clean_linker_0, # of connection points: 2
#     Edge 39, Type (0, 0), BuildingBlock: EZIPEK_clean_linker_0, # of connection points: 2
#     Edge 40, Type (0, 0), BuildingBlock: EZIPEK_clean_linker_0, # of connection points: 2
#     Edge 41, Type (0, 0), BuildingBlock: EZIPEK_clean_linker_0, # of connection points: 2
# Relax obj value: 0.307
# Max RMSD: 0.232
# Mean RMSD: 0.232
data_MOF--net-fny--node1-XOMCOT_clean_sbu_0--edge1-EZIPEK_clean_linker_0
_symmetry_space_group_name_H-M    P1
_symmetry_Int_Tables_number       1
_symmetry_cell_setting            triclinic
loop_
_symmetry_equiv_pos_as_xyz
'x, y, z'
_cell_length_a     46.286041
_cell_length_b     46.576962
_cell_length_c     18.109729
_cell_angle_alpha  89.760166
_cell_angle_beta   89.953696
_cell_angle_gamma 120.25312
loop_
_atom_site_label
_atom_site_type_symbol
_atom_site_fract_x
_atom_site_fract_y
_atom_site_fract_z
_atom_type_partial_charge
Co0 Co 0.36988 0.54192 0.31461 0.0
C1 C 0.44199 0.58656 0.34418 0.0
C2 C 0.41625 0.61265 0.31942 0.0
C3 C 0.45004 0.63491 0.31776 0.0
N4 N 0.41111 0.58221 0.33629 0.0
N5 N 0.46637 0.61844 0.33368 0.0
H6 H 0.44728 0.56704 0.35524 0.0
H7 H 0.39677 0.61804 0.30541 0.0
C8 C 0.40643 0.56825 0.16702 0.0
O9 O 0.43203 0.5679 0.19693 0.0
N10 N 0.32872 0.50328 0.28839 0.0
C11 C 0.31709 0.47091 0.30407 0.0
C12 C 0.29147 0.452 0.25546 0.0
C13 C 0.30989 0.50375 0.23309 0.0
N14 N 0.28765 0.47305 0.21068 0.0
C15 C 0.40287 0.50891 0.37234 0.0
C16 C 0.40794 0.4803 0.24334 0.0
C17 C 0.42131 0.47553 0.30873 0.0
C18 C 0.4179 0.4895 0.37387 0.0
C19 C 0.39241 0.49964 0.24472 0.0
N20 N 0.39214 0.51561 0.30763 0.0
H21 H 0.40142 0.51998 0.42339 0.0
H22 H 0.37999 0.50126 0.19606 0.0
H23 H 0.32836 0.46179 0.34294 0.0
H24 H 0.315 0.52616 0.20383 0.0
O25 O 0.35763 0.53266 0.41891 0.0
O26 O 0.34401 0.56282 0.35047 0.0
O27 O 0.37885 0.55699 0.20415 0.0
C28 C 0.34235 0.54936 0.41506 0.0
H29 H 0.46167 0.66141 0.30804 0.0
H30 H 0.27934 0.42536 0.24816 0.0
H31 H 0.40903 0.46882 0.19236 0.0
H32 H 0.42732 0.48584 0.4257 0.0
Co33 Co 0.84836 0.36579 0.81903 0.0
C34 C 0.88486 0.4369 0.8556 0.0
C35 C 0.83199 0.4169 0.8539 0.0
C36 C 0.84747 0.4509 0.85922 0.0
N37 N 0.85553 0.40808 0.852 0.0
N38 N 0.88099 0.46352 0.86061 0.0
H39 H 0.90909 0.43937 0.85161 0.0
H40 H 0.80543 0.40001 0.84817 0.0
C41 C 0.858 0.40712 0.67751 0.0
O42 O 0.88666 0.43009 0.70435 0.0
N43 N 0.84106 0.32417 0.78406 0.0
C44 C 0.85862 0.30898 0.80001 0.0
C45 C 0.84994 0.28368 0.75017 0.0
C46 C 0.82192 0.3081 0.72627 0.0
N47 N 0.82717 0.28371 0.70405 0.0
C48 C 0.91597 0.39088 0.86546 0.0
C49 C 0.94495 0.39821 0.72817 0.0
C50 C 0.96555 0.40897 0.79085 0.0
C51 C 0.95051 0.40444 0.86015 0.0
C52 C 0.9103 0.38512 0.73599 0.0
N53 N 0.89651 0.38367 0.80369 0.0
H54 H 0.90519 0.38838 0.91962 0.0
H55 H 0.89465 0.37618 0.68778 0.0
H56 H 0.87811 0.31731 0.84112 0.0
H57 H 0.80694 0.31611 0.69639 0.0
O58 O 0.84573 0.34987 0.92098 0.0
O59 O 0.80196 0.34279 0.86008 0.0
O60 O 0.84052 0.37931 0.71323 0.0
C61 C 0.8136 0.33731 0.92098 0.0
H62 H 0.83487 0.46506 0.86427 0.0
H63 H 0.86165 0.26875 0.74364 0.0
H64 H 0.95559 0.40019 0.67381 0.0
H65 H 0.96546 0.41178 0.90993 0.0
Co66 Co 0.50584 0.83838 0.3306 0.0
C67 C 0.49051 0.88185 0.40959 0.0
C68 C 0.44759 0.84655 0.34922 0.0
C69 C 0.44322 0.87269 0.36878 0.0
N70 N 0.47773 0.85296 0.37346 0.0
N71 N 0.47081 0.89537 0.40521 0.0
H72 H 0.51495 0.89371 0.43487 0.0
H73 H 0.43111 0.82575 0.31484 0.0
C74 C 0.48757 0.836 0.16415 0.0
O75 O 0.51952 0.85157 0.1474 0.0
N76 N 0.53469 0.82437 0.28821 0.0
C77 C 0.56768 0.83631 0.29941 0.0
C78 C 0.57836 0.82046 0.25253 0.0
C79 C 0.52556 0.80066 0.23735 0.0
N80 N 0.55186 0.79875 0.21275 0.0
C81 C 0.56595 0.90212 0.345 0.0
C82 C 0.55089 0.93706 0.24496 0.0
C83 C 0.5825 0.95432 0.27963 0.0
C84 C 0.58798 0.93617 0.335 0.0
C85 C 0.52936 0.90293 0.25695 0.0
N86 N 0.5377 0.88514 0.30354 0.0
H87 H 0.57072 0.89001 0.39023 0.0
H88 H 0.50508 0.89162 0.23223 0.0
H89 H 0.5835 0.85575 0.33697 0.0
H90 H 0.50053 0.7864 0.21568 0.0
O91 O 0.52338 0.83711 0.42866 0.0
O92 O 0.48011 0.79436 0.3788 0.0
O93 O 0.47861 0.82886 0.23248 0.0
C94 C 0.50078 0.80587 0.43433 0.0
H95 H 0.42161 0.87496 0.35616 0.0
H96 H 0.60395 0.82656 0.24324 0.0
H97 H 0.54136 0.94964 0.21148 0.0
H98 H 0.60805 0.94789 0.37431 0.0
Co99 Co 0.70343 0.50026 0.80967 0.0
C100 C 0.63408 0.45493 0.85753 0.0
C101 C 0.66169 0.43053 0.83376 0.0
C102 C 0.62856 0.40704 0.83819 0.0
N103 N 0.66512 0.46059 0.84436 0.0
N104 N 0.61096 0.42232 0.85355 0.0
H105 H 0.62804 0.47399 0.86837 0.0
H106 H 0.68181 0.42617 0.81927 0.0
C107 C 0.66263 0.46262 0.67255 0.0
O108 O 0.63659 0.46115 0.70491 0.0
N109 N 0.74181 0.53903 0.77305 0.0
C110 C 0.75299 0.5712 0.78922 0.0
C111 C 0.77729 0.59071 0.73823 0.0
C112 C 0.75938 0.53913 0.71459 0.0
N113 N 0.78074 0.57013 0.69175 0.0
C114 C 0.67079 0.53539 0.85812 0.0
C115 C 0.65226 0.54746 0.72189 0.0
C116 C 0.64339 0.55858 0.78537 0.0
C117 C 0.65408 0.55332 0.85384 0.0
C118 C 0.67095 0.53139 0.72846 0.0
N119 N 0.67786 0.52325 0.79625 0.0
H120 H 0.67731 0.53063 0.9121 0.0
H121 H 0.67987 0.52571 0.67889 0.0
H122 H 0.74266 0.57975 0.83157 0.0
H123 H 0.75468 0.51698 0.68524 0.0
O124 O 0.71883 0.51474 0.91111 0.0
O125 O 0.73268 0.4836 0.84778 0.0
O126 O 0.69179 0.47884 0.70377 0.0
C127 C 0.73524 0.49901 0.90965 0.0
H128 H 0.61846 0.38055 0.83302 0.0
H129 H 0.78934 0.61742 0.73192 0.0
H130 H 0.64541 0.55177 0.66753 0.0
H131 H 0.64866 0.5622 0.90422 0.0
Co132 Co 0.23249 0.69133 0.30861 0.0
C133 C 0.19835 0.62006 0.34948 0.0
C134 C 0.25161 0.64256 0.34872 0.0
C135 C 0.23777 0.60891 0.35784 0.0
N136 N 0.22687 0.64965 0.34353 0.0
N137 N 0.20407 0.59467 0.35851 0.0
H138 H 0.17355 0.61634 0.34478 0.0
H139 H 0.278 0.66036 0.3434 0.0
C140 C 0.22075 0.64901 0.16951 0.0
O141 O 0.19242 0.62613 0.19846 0.0
N142 N 0.23853 0.73256 0.272 0.0
C143 C 0.22352 0.74928 0.29574 0.0
C144 C 0.22884 0.77327 0.24382 0.0
C145 C 0.25321 0.74671 0.20779 0.0
N146 N 0.24741 0.77124 0.18903 0.0
C147 C 0.16608 0.66537 0.36354 0.0
C148 C 0.13335 0.65663 0.23071 0.0
C149 C 0.11458 0.64686 0.29642 0.0
C150 C 0.13155 0.65215 0.36328 0.0
C151 C 0.1683 0.67034 0.23359 0.0
N152 N 0.18396 0.67258 0.29918 0.0
H153 H 0.1782 0.66809 0.416 0.0
H154 H 0.18266 0.67893 0.18324 0.0
H155 H 0.20762 0.74272 0.34402 0.0
H156 H 0.26546 0.7375 0.17208 0.0
O157 O 0.23696 0.70794 0.4097 0.0
O158 O 0.27955 0.71485 0.3433 0.0
O159 O 0.23849 0.67706 0.20313 0.0
C160 C 0.26897 0.72009 0.40592 0.0
H161 H 0.25165 0.59615 0.36605 0.0
H162 H 0.21777 0.78893 0.24317 0.0
H163 H 0.12115 0.6536 0.17798 0.0
H164 H 0.118 0.64526 0.41521 0.0
Co165 Co 0.55429 0.20582 0.81807 0.0
C166 C 0.59448 0.1747 0.85393 0.0
C167 C 0.62383 0.22768 0.84872 0.0
C168 C 0.64495 0.21511 0.85335 0.0
N169 N 0.59207 0.20229 0.84932 0.0
N170 N 0.62636 0.18154 0.8573 0.0
H171 H 0.57376 0.14972 0.85264 0.0
H172 H 0.6313 0.25359 0.8423 0.0
C173 C 0.58637 0.19833 0.67555 0.0
O174 O 0.58252 0.17052 0.70288 0.0
N175 N 0.51755 0.20988 0.78441 0.0
C176 C 0.4848 0.1909 0.80161 0.0
C177 C 0.46667 0.19807 0.75198 0.0
C178 C 0.51914 0.22847 0.72661 0.0
N179 N 0.48861 0.22144 0.70511 0.0
C180 C 0.51591 0.13849 0.86766 0.0
C181 C 0.49221 0.10879 0.73234 0.0
C182 C 0.48356 0.08884 0.796 0.0
C183 C 0.49512 0.10411 0.86427 0.0
C184 C 0.51316 0.14337 0.7383 0.0
N185 N 0.52642 0.15762 0.80493 0.0
H186 H 0.52503 0.14958 0.92104 0.0
H187 H 0.5185 0.15865 0.6896 0.0
H188 H 0.47477 0.17161 0.84343 0.0
H189 H 0.54189 0.24453 0.69629 0.0
O190 O 0.54122 0.20753 0.92055 0.0
O191 O 0.57552 0.25192 0.8569 0.0
O192 O 0.57487 0.21452 0.71147 0.0
C193 C 0.55949 0.23959 0.91893 0.0
H194 H 0.67195 0.22977 0.85677 0.0
H195 H 0.43973 0.1851 0.74633 0.0
H196 H 0.48289 0.09776 0.67878 0.0
H197 H 0.48857 0.08946 0.9146 0.0
Co198 Co 0.50069 0.68048 0.76102 0.0
C199 C 0.49364 0.64256 0.63513 0.0
C200 C 0.44507 0.63457 0.66335 0.0
C201 C 0.44412 0.62291 0.59261 0.0
N202 N 0.4765 0.64732 0.68861 0.0
N203 N 0.47488 0.62816 0.57613 0.0
H204 H 0.52064 0.65423 0.63458 0.0
H205 H 0.42565 0.63719 0.69021 0.0
C206 C 0.47146 0.64022 0.90459 0.0
O207 O 0.50196 0.64842 0.92406 0.0
N208 N 0.52737 0.7153 0.83006 0.0
C209 C 0.55857 0.74107 0.81711 0.0
C210 C 0.57034 0.76004 0.87905 0.0
C211 C 0.51992 0.7202 0.89881 0.0
N212 N 0.54594 0.74678 0.92984 0.0
C213 C 0.56263 0.67696 0.77085 0.0
C214 C 0.53059 0.60866 0.78331 0.0
C215 C 0.56562 0.62647 0.78109 0.0
C216 C 0.58158 0.6612 0.77626 0.0
C217 C 0.51273 0.62558 0.78243 0.0
N218 N 0.52847 0.6595 0.77666 0.0
H219 H 0.57588 0.70285 0.75786 0.0
H220 H 0.48592 0.61115 0.78115 0.0
H221 H 0.57225 0.74623 0.76602 0.0
H222 H 0.4963 0.70516 0.92597 0.0
O223 O 0.52443 0.71171 0.67857 0.0
O224 O 0.47863 0.70529 0.72925 0.0
O225 O 0.46667 0.65076 0.84233 0.0
C226 C 0.50125 0.71985 0.67811 0.0
H227 H 0.42379 0.61489 0.55363 0.0
H228 H 0.5945 0.78226 0.88605 0.0
H229 H 0.51702 0.58175 0.78495 0.0
H230 H 0.6086 0.67601 0.7728 0.0
Co231 Co 0.85037 0.50841 0.27071 0.0
C232 C 0.88706 0.49707 0.1616 0.0
C233 C 0.84452 0.45009 0.19119 0.0
C234 C 0.8578 0.44679 0.1253 0.0
N235 N 0.86265 0.48204 0.21222 0.0
N236 N 0.88436 0.47664 0.10727 0.0
H237 H 0.90268 0.52377 0.15688 0.0
H238 H 0.82107 0.43187 0.21608 0.0
C239 C 0.85439 0.48421 0.42888 0.0
O240 O 0.87432 0.5153 0.44797 0.0
N241 N 0.83976 0.53749 0.32511 0.0
C242 C 0.84824 0.5687 0.30407 0.0
C243 C 0.83886 0.58298 0.3575 0.0
C244 C 0.82385 0.53271 0.39 0.0
N245 N 0.82387 0.56039 0.41124 0.0
C246 C 0.91616 0.56868 0.26688 0.0
C247 C 0.95043 0.54117 0.33103 0.0
C248 C 0.96893 0.57555 0.31444 0.0
C249 C 0.95091 0.58808 0.27638 0.0
C250 C 0.91574 0.52284 0.32163 0.0
N251 N 0.89839 0.53694 0.29357 0.0
H252 H 0.90432 0.57855 0.23249 0.0
H253 H 0.90317 0.4965 0.33259 0.0
H254 H 0.86042 0.58077 0.25323 0.0
H255 H 0.81259 0.50979 0.42099 0.0
O256 O 0.84633 0.52889 0.17812 0.0
O257 O 0.80455 0.48508 0.22953 0.0
O258 O 0.84256 0.47777 0.36241 0.0
C259 C 0.81481 0.50603 0.17452 0.0
H260 H 0.84629 0.4255 0.089 0.0
H261 H 0.84333 0.60815 0.35807 0.0
H262 H 0.96197 0.52706 0.34723 0.0
H263 H 0.96343 0.61216 0.24976 0.0
Co264 Co 0.37145 0.83028 0.76993 0.0
C265 C 0.43331 0.88055 0.70137 0.0
C266 C 0.42615 0.83208 0.68256 0.0
C267 C 0.44911 0.85398 0.63217 0.0
N268 N 0.41508 0.84865 0.72397 0.0
N269 N 0.45257 0.88413 0.6433 0.0
H270 H 0.42893 0.9001 0.71744 0.0
H271 H 0.41518 0.80539 0.68173 0.0
C272 C 0.41952 0.83178 0.89058 0.0
O273 O 0.44481 0.85036 0.8468 0.0
N274 N 0.32759 0.81325 0.81262 0.0
C275 C 0.30193 0.81497 0.78146 0.0
C276 C 0.27797 0.80819 0.8342 0.0
C277 C 0.3186 0.80494 0.88359 0.0
N278 N 0.28866 0.80193 0.89787 0.0
C279 C 0.36946 0.8906 0.75428 0.0
C280 C 0.41763 0.92784 0.85768 0.0
C281 C 0.40844 0.94426 0.80611 0.0
C282 C 0.38293 0.9251 0.75615 0.0
C283 C 0.40374 0.8933 0.85355 0.0
N284 N 0.38158 0.87526 0.79887 0.0
H285 H 0.35131 0.87679 0.71219 0.0
H286 H 0.41296 0.88217 0.89136 0.0
H287 H 0.30135 0.82272 0.72546 0.0
H288 H 0.33417 0.80299 0.92533 0.0
O289 O 0.35272 0.82796 0.67098 0.0
O290 O 0.35592 0.78688 0.72154 0.0
O291 O 0.38933 0.82226 0.86919 0.0
C292 C 0.34657 0.79766 0.66499 0.0
H293 H 0.45887 0.84734 0.58495 0.0
H294 H 0.25528 0.80923 0.82749 0.0
H295 H 0.43679 0.94185 0.89823 0.0
H296 H 0.37474 0.93688 0.71626 0.0
Co297 Co 0.55769 0.35027 0.27688 0.0
C298 C 0.57276 0.39629 0.16099 0.0
C299 C 0.61875 0.40253 0.20406 0.0
C300 C 0.625 0.41846 0.13636 0.0
N301 N 0.58577 0.38823 0.21781 0.0
N302 N 0.59563 0.41342 0.10915 0.0
H303 H 0.54609 0.38466 0.15156 0.0
H304 H 0.63585 0.39773 0.23509 0.0
C305 C 0.58476 0.38074 0.43132 0.0
O306 O 0.5541 0.37148 0.45228 0.0
N307 N 0.52735 0.31084 0.33258 0.0
C308 C 0.49676 0.28687 0.30937 0.0
C309 C 0.4811 0.26415 0.36467 0.0
C310 C 0.53049 0.30111 0.4005 0.0
N311 N 0.50231 0.27338 0.42158 0.0
C312 C 0.49835 0.35649 0.2811 0.0
C313 C 0.52918 0.42042 0.33365 0.0
C314 C 0.49409 0.40401 0.32451 0.0
C315 C 0.47968 0.37224 0.29184 0.0
C316 C 0.54684 0.40368 0.32307 0.0
N317 N 0.53118 0.37132 0.3009 0.0
H318 H 0.48662 0.33315 0.25265 0.0
H319 H 0.5736 0.41745 0.32947 0.0
H320 H 0.48594 0.28562 0.25588 0.0
H321 H 0.55271 0.31351 0.43335 0.0
O322 O 0.53468 0.32608 0.18732 0.0
O323 O 0.57832 0.32634 0.23131 0.0
O324 O 0.58986 0.3729 0.36606 0.0
C325 C 0.55586 0.31586 0.1792 0.0
H326 H 0.64789 0.42796 0.10464 0.0
H327 H 0.45605 0.24278 0.36389 0.0
H328 H 0.54411 0.44654 0.34522 0.0
H329 H 0.45441 0.35972 0.27099 0.0
Co330 Co 0.22999 0.54263 0.77704 0.0
C331 C 0.19548 0.55476 0.66291 0.0
C332 C 0.23857 0.60097 0.69355 0.0
C333 C 0.22713 0.60479 0.62578 0.0
N334 N 0.21904 0.56918 0.71523 0.0
N335 N 0.2001 0.57556 0.60736 0.0
H336 H 0.17905 0.52822 0.65846 0.0
H337 H 0.26183 0.61858 0.71962 0.0
C338 C 0.22652 0.57064 0.93186 0.0
O339 O 0.20712 0.5405 0.958 0.0
N340 N 0.23918 0.51308 0.83547 0.0
C341 C 0.23145 0.48217 0.81415 0.0
C342 C 0.23785 0.46652 0.87034 0.0
C343 C 0.25129 0.51603 0.90434 0.0
N344 N 0.25004 0.48779 0.92675 0.0
C345 C 0.16489 0.48323 0.76494 0.0
C346 C 0.12839 0.50859 0.82907 0.0
C347 C 0.1112 0.47712 0.79666 0.0
C348 C 0.1299 0.46438 0.76472 0.0
C349 C 0.16341 0.52686 0.82693 0.0
N350 N 0.1816 0.51407 0.7965 0.0
H351 H 0.17814 0.47404 0.73338 0.0
H352 H 0.17547 0.55213 0.84524 0.0
H353 H 0.22138 0.47103 0.7615 0.0
H354 H 0.26056 0.53782 0.93775 0.0
O355 O 0.23503 0.52198 0.68659 0.0
O356 O 0.27637 0.56564 0.7383 0.0
O357 O 0.23727 0.57459 0.86465 0.0
C358 C 0.26653 0.54488 0.68348 0.0
H359 H 0.24021 0.62568 0.5886 0.0
H360 H 0.23345 0.44138 0.87056 0.0
H361 H 0.11478 0.51969 0.85251 0.0
H362 H 0.1175 0.44059 0.737 0.0
Co363 Co 0.70122 0.21588 0.27144 0.0
C364 C 0.65476 0.17877 0.16002 0.0
C365 C 0.64813 0.21976 0.18816 0.0
C366 C 0.63231 0.20642 0.12169 0.0
N367 N 0.66275 0.20256 0.21069 0.0
N368 N 0.63702 0.18089 0.10463 0.0
H369 H 0.6669 0.16421 0.15586 0.0
H370 H 0.65232 0.2427 0.21255 0.0
C371 C 0.67062 0.20845 0.42839 0.0
O372 O 0.68338 0.18998 0.44788 0.0
N373 N 0.74085 0.22773 0.32851 0.0
C374 C 0.76482 0.22042 0.31065 0.0
C375 C 0.78742 0.22975 0.36674 0.0
C376 C 0.75033 0.24312 0.39394 0.0
N377 N 0.77797 0.24363 0.41886 0.0
C378 C 0.69986 0.15316 0.25975 0.0
C379 C 0.6374 0.11363 0.32193 0.0
C380 C 0.65389 0.09842 0.29045 0.0
C381 C 0.6856 0.11862 0.25978 0.0
C382 C 0.65251 0.14839 0.32027 0.0
N383 N 0.6839 0.16811 0.29109 0.0
H384 H 0.72197 0.16725 0.22704 0.0
H385 H 0.6377 0.15902 0.3376 0.0
H386 H 0.76648 0.20926 0.26021 0.0
H387 H 0.73745 0.25359 0.42273 0.0
O388 O 0.72774 0.22268 0.18059 0.0
O389 O 0.72235 0.262 0.23242 0.0
O390 O 0.67573 0.22051 0.36199 0.0
C391 C 0.73495 0.25357 0.17807 0.0
H392 H 0.62207 0.21718 0.08448 0.0
H393 H 0.80865 0.226 0.37014 0.0
H394 H 0.61232 0.09872 0.34388 0.0
H395 H 0.69848 0.10766 0.23221 0.0
C396 C 0.42083 0.567 1.03247 0.0
C397 C 0.41121 0.58176 0.08893 0.0
C398 C 0.43019 0.63142 1.00859 0.0
C399 C 0.44316 0.61792 0.95672 0.0
N400 N 0.43815 0.56842 0.90524 0.0
N401 N 0.39991 0.62491 0.124 0.0
C402 C 0.43455 0.58428 0.96456 0.0
C403 C 0.41343 0.61293 0.0744 0.0
N404 N 0.41775 0.53663 0.04458 0.0
N405 N 0.4341 0.66197 0.99453 0.0
H406 H 0.38703 0.6116 0.1709 0.0
H407 H 0.39951 0.64687 0.11733 0.0
H408 H 0.44183 0.67325 0.94285 0.0
H409 H 0.42887 0.67563 1.03189 0.0
H410 H 0.42864 0.52653 1.01114 0.0
H411 H 0.40511 0.52194 0.09002 0.0
H412 H 0.43018 0.54316 0.90415 0.0
H413 H 0.44497 0.57985 0.8537 0.0
C414 C 0.8585 0.41427 0.53727 0.0
C415 C 0.84621 0.41638 0.60781 0.0
C416 C 0.8338 0.45843 0.55736 0.0
C417 C 0.84679 0.45714 0.48649 0.0
N418 N 0.86387 0.42717 0.40571 0.0
N419 N 0.81193 0.43172 0.6764 0.0
C420 C 0.8564 0.4327 0.47526 0.0
C421 C 0.83056 0.43568 0.61476 0.0
N422 N 0.87326 0.39539 0.53024 0.0
N423 N 0.82527 0.48202 0.57112 0.0
H424 H 0.80776 0.41382 0.71623 0.0
H425 H 0.79743 0.44282 0.68347 0.0
H426 H 0.82517 0.49786 0.5307 0.0
H427 H 0.82014 0.48723 0.62379 0.0
H428 H 0.88675 0.39574 0.48389 0.0
H429 H 0.87282 0.38002 0.57279 0.0
H430 H 0.86794 0.40775 0.39256 0.0
H431 H 0.86319 0.44013 0.35949 0.0
C432 C 0.44061 0.8406 0.09754 0.0
C433 C 0.46257 0.82742 0.10133 0.0
C434 C 0.44878 0.80962 0.97094 0.0
C435 C 0.42802 0.82401 0.9663 0.0
N436 N 0.39708 0.84488 1.03172 0.0
N437 N 0.47923 0.79086 0.04724 0.0
C438 C 0.42147 0.83657 1.03186 0.0
C439 C 0.46405 0.80935 0.03956 0.0
N440 N 0.43948 0.85892 0.15482 0.0
N441 N 0.45448 0.79663 0.90875 0.0
H442 H 0.48998 0.78957 0.09656 0.0
H443 H 0.47827 0.77423 1.00775 0.0
H444 H 0.44129 0.79328 0.85979 0.0
H445 H 0.47305 0.79035 0.90465 0.0
H446 H 0.42808 0.87328 0.15193 0.0
H447 H 0.45165 0.86138 0.20435 0.0
H448 H 0.38837 0.85058 0.07927 0.0
H449 H 0.38311 0.84297 0.9852 0.0
C450 C 0.63648 0.43543 0.47197 0.0
C451 C 0.61306 0.40103 0.48529 0.0
C452 C 0.6384 0.40769 0.60877 0.0
C453 C 0.65551 0.4427 0.6021 0.0
N454 N 0.67257 0.49044 0.52469 0.0
N455 N 0.59095 0.35529 0.57272 0.0
C456 C 0.65537 0.4567 0.5324 0.0
C457 C 0.61399 0.3874 0.55538 0.0
N458 N 0.64065 0.4479 0.40199 0.0
N459 N 0.64624 0.39377 0.66587 0.0
H460 H 0.57301 0.3392 0.53581 0.0
H461 H 0.58811 0.34546 0.6258 0.0
H462 H 0.66633 0.40839 0.7003 0.0
H463 H 0.63644 0.36825 0.67197 0.0
H464 H 0.65896 0.47197 0.38751 0.0
H465 H 0.62803 0.43313 0.35688 0.0
H466 H 0.67051 0.50289 0.47893 0.0
H467 H 0.68833 0.50594 0.56603 0.0
C468 C 0.25297 0.62561 0.10491 0.0
C469 C 0.23209 0.63979 0.09954 0.0
C470 C 0.21788 0.6186 0.97141 0.0
C471 C 0.23418 0.59988 0.9817 0.0
N472 N 0.27623 0.59448 0.04703 0.0
N473 N 0.19693 0.65254 1.02583 0.0
C474 C 0.25439 0.60605 0.04545 0.0
C475 C 0.21562 0.63745 1.03162 0.0
N476 N 0.27066 0.63012 0.16831 0.0
N477 N 0.20545 0.61913 0.90339 0.0
H478 H 0.19714 0.66842 0.0665 0.0
H479 H 0.18087 0.649 0.98226 0.0
H480 H 0.20884 0.60758 0.85782 0.0
H481 H 0.195 0.63365 0.88973 0.0
H482 H 0.28299 0.61735 0.18184 0.0
H483 H 0.27288 0.64713 0.20819 0.0
H484 H 0.29308 0.59882 0.08938 0.0
H485 H 0.27987 0.58318 1.00141 0.0
C486 C 0.61451 0.20131 0.47381 0.0
C487 C 0.64944 0.2139 0.4852 0.0
C488 C 0.64239 0.22961 0.61196 0.0
C489 C 0.60715 0.2111 0.60549 0.0
N490 N 0.55914 0.17975 0.52895 0.0
N491 N 0.69599 0.23859 0.57034 0.0
C492 C 0.59312 0.19743 0.53559 0.0
C493 C 0.66317 0.22783 0.55567 0.0
N494 N 0.60157 0.19272 0.40438 0.0
N495 N 0.65608 0.24948 0.672 0.0
H496 H 0.71263 0.23926 0.53098 0.0
H497 H 0.7062 0.24477 0.62312 0.0
H498 H 0.64125 0.25267 0.71058 0.0
H499 H 0.68164 0.26579 0.67824 0.0
H500 H 0.57717 0.18632 0.39115 0.0
H501 H 0.61596 0.1948 0.35834 0.0
H502 H 0.54672 0.16539 0.48314 0.0
H503 H 0.54331 0.17863 0.57131 0.0
C504 C 0.58115 0.38112 0.99351 0.0
C505 C 0.58617 0.40967 1.03325 0.0
C506 C 0.56975 0.42796 0.92328 0.0
C507 C 0.57763 0.40675 0.88416 0.0
N508 N 0.55731 0.34862 0.88205 0.0
N509 N 0.57631 0.45578 0.041 0.0
C510 C 0.56903 0.37724 0.92085 0.0
C511 C 0.57671 0.43145 1.00028 0.0
N512 N 0.59091 0.36016 1.02116 0.0
N513 N 0.55973 0.44661 0.88528 0.0
H514 H 0.58174 0.4584 0.09735 0.0
H515 H 0.57146 0.47355 1.01868 0.0
H516 H 0.55705 0.44453 0.82791 0.0
H517 H 0.55263 0.46215 0.91054 0.0
H518 H 0.59188 0.34228 0.98845 0.0
H519 H 0.60031 0.36222 0.07416 0.0
H520 H 0.55224 0.32627 0.90638 0.0
H521 H 0.55157 0.34788 0.82601 0.0
C522 C 0.15435 0.56062 0.42942 0.0
C523 C 0.18002 0.56188 0.38542 0.0
C524 C 0.20377 0.55052 0.48951 0.0
C525 C 0.18841 0.56437 0.53417 0.0
N526 N 0.14206 0.5736 0.55131 0.0
N527 N 0.20435 0.52792 0.36858 0.0
C528 C 0.16067 0.56588 0.50616 0.0
C529 C 0.1943 0.54419 0.41463 0.0
N530 N 0.12642 0.55721 0.39683 0.0
N531 N 0.22923 0.54697 0.51586 0.0
H532 H 0.19946 0.52678 0.31199 0.0
H533 H 0.21502 0.51417 0.38742 0.0
H534 H 0.23851 0.55485 0.56839 0.0
H535 H 0.24266 0.53924 0.48355 0.0
H536 H 0.10619 0.55519 0.42656 0.0
H537 H 0.12348 0.55422 0.33966 0.0
H538 H 0.12301 0.57736 0.53204 0.0
H539 H 0.14665 0.57704 0.60796 0.0
C540 C 0.66889 0.1863 0.99018 0.0
C541 C 0.63859 0.16964 1.03221 0.0
C542 C 0.61257 0.13276 0.92849 0.0
C543 C 0.63682 0.159 0.88489 0.0
N544 N 0.69617 0.18579 0.87531 0.0
N545 N 0.58466 0.12017 0.04835 0.0
C546 C 0.66832 0.17523 0.91751 0.0
C547 C 0.61132 0.1399 1.00429 0.0
N548 N 0.6961 0.21418 1.01574 0.0
N549 N 0.58931 0.10427 0.89549 0.0
H550 H 0.58414 0.12556 0.10408 0.0
H551 H 0.56323 0.09921 1.0292 0.0
H552 H 0.59023 0.10125 0.83853 0.0
H553 H 0.57077 0.08393 0.92448 0.0
H554 H 0.71778 0.22805 0.98455 0.0
H555 H 0.69519 0.22504 0.06486 0.0
H556 H 0.72025 0.1982 0.89728 0.0
H557 H 0.69414 0.17969 0.81934 0.0
C558 C 0.50109 0.66244 0.46463 0.0
C559 C 0.48943 0.63212 0.50478 0.0
C560 C 0.50645 0.61099 0.40159 0.0
C561 C 0.50064 0.63272 0.35831 0.0
N562 N 0.53067 0.69202 0.35273 0.0
N563 N 0.49147 0.58155 0.51956 0.0
C564 C 0.51261 0.66355 0.39199 0.0
C565 C 0.49631 0.60772 0.47675 0.0
N566 N 0.49938 0.68844 0.49338 0.0
N567 N 0.51605 0.59099 0.36868 0.0
H568 H 0.48398 0.57935 0.57469 0.0
H569 H 0.49401 0.56199 0.49961 0.0
H570 H 0.52066 0.59275 0.31186 0.0
H571 H 0.5209 0.57459 0.39803 0.0
H572 H 0.50577 0.70997 0.46325 0.0
H573 H 0.48945 0.68717 0.54556 0.0
H574 H 0.54026 0.71552 0.37603 0.0
H575 H 0.53786 0.69104 0.29858 0.0
C576 C 0.92432 0.48773 1.00532 0.0
C577 C 0.89636 0.48872 0.03431 0.0
C578 C 0.89334 0.51389 0.91881 0.0
C579 C 0.90646 0.49589 0.88631 0.0
N580 N 0.95893 0.4977 0.89516 0.0
N581 N 0.85521 0.50587 1.01724 0.0
C582 C 0.93164 0.49539 0.92909 0.0
C583 C 0.882 0.50438 0.99196 0.0
N584 N 0.94205 0.47821 0.04876 0.0
N585 N 0.88509 0.53274 0.87628 0.0
H586 H 0.84319 0.49371 0.06547 0.0
H587 H 0.84286 0.51522 0.98596 0.0
H588 H 0.89094 0.53599 0.81998 0.0
H589 H 0.87491 0.54639 0.89826 0.0
H590 H 0.96134 0.47502 1.02873 0.0
H591 H 0.93651 0.4728 0.10477 0.0
H592 H 0.97843 0.4976 0.92359 0.0
H593 H 0.96196 0.50122 0.83801 0.0
C594 C 0.50332 0.93896 0.49197 0.0
C595 C 0.47622 0.92497 0.44272 0.0
C596 C 0.43736 0.91037 0.54175 0.0
C597 C 0.46209 0.90928 0.58755 0.0
N598 N 0.52041 0.93202 0.61475 0.0
N599 N 0.42789 0.9296 0.4235 0.0
C600 C 0.49614 0.92788 0.56631 0.0
C601 C 0.44721 0.92329 0.4696 0.0
N602 N 0.5349 0.95765 0.46492 0.0
N603 N 0.40477 0.89656 0.56293 0.0
H604 H 0.43541 0.93705 0.36893 0.0
H605 H 0.40653 0.92978 0.44102 0.0
H606 H 0.39604 0.88695 0.61512 0.0
H607 H 0.38596 0.89375 0.527 0.0
H608 H 0.5561 0.96869 0.49817 0.0
H609 H 0.53888 0.96301 0.40845 0.0
H610 H 0.54561 0.94319 0.60056 0.0
H611 H 0.51459 0.92374 0.66937 0.0
C612 C 0.23438 0.47189 0.05641 0.0
C613 C 0.25772 0.48036 0.99811 0.0
C614 C 0.29452 0.47085 0.07764 0.0
C615 C 0.27351 0.467 0.13838 0.0
N616 N 0.22439 0.46438 0.18865 0.0
N617 N 0.31048 0.49018 0.95146 0.0
C618 C 0.24335 0.46713 0.12834 0.0
C619 C 0.2878 0.48006 1.00798 0.0
N620 N 0.20371 0.46818 0.04229 0.0
N621 N 0.32128 0.46647 0.08767 0.0
H622 H 0.30604 0.49727 0.89991 0.0
H623 H 0.33452 0.49391 0.95679 0.0
H624 H 0.32671 0.45975 0.13846 0.0
H625 H 0.33642 0.46664 0.04496 0.0
H626 H 0.18442 0.45936 0.08095 0.0
H627 H 0.19678 0.47182 0.98982 0.0
H628 H 0.20397 0.46801 0.18712 0.0
H629 H 0.23022 0.4597 0.2414 0.0
C630 C 0.8373 0.28938 0.57136 0.0
C631 C 0.8185 0.26965 0.63229 0.0
C632 C 0.77552 0.23 0.55024 0.0
C633 C 0.7919 0.25223 0.49086 0.0
N634 N 0.83676 0.30345 0.44252 0.0
N635 N 0.76958 0.22271 0.68309 0.0
C636 C 0.82261 0.28193 0.50056 0.0
C637 C 0.78766 0.24011 0.62262 0.0
N638 N 0.86895 0.31537 0.58208 0.0
N639 N 0.74896 0.19909 0.53672 0.0
H640 H 0.77881 0.22933 0.73669 0.0
H641 H 0.74506 0.20298 0.68043 0.0
H642 H 0.74013 0.19088 0.48352 0.0
H643 H 0.73755 0.18071 0.57706 0.0
H644 H 0.88507 0.32929 0.53936 0.0
H645 H 0.88016 0.32131 0.63392 0.0
H646 H 0.85754 0.32717 0.44728 0.0
H647 H 0.82613 0.29836 0.38997 0.0
C648 C 0.55998 0.80685 0.07918 0.0
C649 C 0.553 0.78617 0.14209 0.0
C650 C 0.54373 0.73993 0.06454 0.0
C651 C 0.54725 0.75957 1.00172 0.0
N652 N 0.55025 0.80844 0.94867 0.0
N653 N 0.53184 0.73195 0.19534 0.0
C654 C 0.55316 0.79224 1.00874 0.0
C655 C 0.54292 0.7523 0.135 0.0
N656 N 0.57272 0.84025 0.08674 0.0
N657 N 0.54274 0.71031 0.05698 0.0
H658 H 0.53203 0.74083 0.24827 0.0
H659 H 0.51998 0.70616 0.19134 0.0
H660 H 0.54511 0.70143 1.00593 0.0
H661 H 0.54294 0.6963 0.10179 0.0
H662 H 0.5813 0.85675 0.04222 0.0
H663 H 0.57713 0.85193 0.13772 0.0
H664 H 0.55096 0.83111 0.95205 0.0
H665 H 0.5433 0.79744 0.89676 0.0
C666 C 0.77519 0.57307 0.55883 0.0
C667 C 0.79573 0.57723 0.6204 0.0
C668 C 0.83727 0.57548 0.5411 0.0
C669 C 0.81466 0.56684 0.48156 0.0
N670 N 0.76247 0.55645 0.43059 0.0
N671 N 0.84527 0.58201 0.67369 0.0
C672 C 0.78383 0.56582 0.48925 0.0
C673 C 0.82685 0.57894 0.61228 0.0
N674 N 0.747 0.57513 0.56827 0.0
N675 N 0.86864 0.58056 0.52884 0.0
H676 H 0.83831 0.58572 0.72606 0.0
H677 H 0.86644 0.57959 0.67346 0.0
H678 H 0.8767 0.57785 0.47689 0.0
H679 H 0.88738 0.58957 0.56857 0.0
H680 H 0.73179 0.57445 0.52527 0.0
H681 H 0.74003 0.57992 0.61945 0.0
H682 H 0.73817 0.55218 0.43356 0.0
H683 H 0.76855 0.55101 0.37901 0.0
C684 C 0.23132 0.76298 0.05949 0.0
C685 C 0.252 0.78435 0.1158 0.0
C686 C 0.29104 0.82234 1.02373 0.0
C687 C 0.27382 0.79779 0.9693 0.0
N688 N 0.22852 0.7441 0.93397 0.0
N689 N 0.30099 0.83417 0.15463 0.0
C690 C 0.24372 0.76817 0.98632 0.0
C691 C 0.28144 0.81441 0.0987 0.0
N692 N 0.20033 0.73721 0.07726 0.0
N693 N 0.31642 0.85301 1.00312 0.0
H694 H 0.29367 0.82895 0.20989 0.0
H695 H 0.32481 0.85462 0.14664 0.0
H696 H 0.32326 0.85942 0.94795 0.0
H697 H 0.32859 0.87281 0.03948 0.0
H698 H 0.18288 0.72188 0.0383 0.0
H699 H 0.19104 0.73322 0.13112 0.0
H700 H 0.20848 0.72044 0.94513 0.0
H701 H 0.23754 0.74695 0.88009 0.0
C702 C 0.48377 0.26048 0.62364 0.0
C703 C 0.48242 0.22978 0.63341 0.0
C704 C 0.49318 0.2274 0.50247 0.0
C705 C 0.4947 0.2582 0.49279 0.0
N706 N 0.4847 0.30097 0.53766 0.0
N707 N 0.47883 0.18041 0.58312 0.0
C708 C 0.48778 0.27379 0.55153 0.0
C709 C 0.48442 0.21186 0.57261 0.0
N710 N 0.48294 0.27743 0.68417 0.0
N711 N 0.50192 0.21414 0.44546 0.0
H712 H 0.47275 0.16873 0.63461 0.0
H713 H 0.47749 0.16491 0.54042 0.0
H714 H 0.50894 0.22551 0.39364 0.0
H715 H 0.50461 0.19335 0.45059 0.0
H716 H 0.48768 0.30177 0.68229 0.0
H717 H 0.47886 0.26727 0.73729 0.0
H718 H 0.47704 0.31197 0.57706 0.0
H719 H 0.4874 0.31104 0.48482 0.0
C720 C 0.75092 0.47038 1.01113 0.0
C721 C 0.7563 0.49995 0.97535 0.0
C722 C 0.79474 0.53227 0.07702 0.0
C723 C 0.79268 0.50317 0.10843 0.0
N724 N 0.7722 0.44432 0.09364 0.0
N725 N 0.78979 0.55962 0.96756 0.0
C726 C 0.77155 0.47213 0.0724 0.0
C727 C 0.78009 0.531 1.00651 0.0
N728 N 0.72515 0.44038 0.98878 0.0
N729 N 0.80914 0.56108 0.11635 0.0
H730 H 0.78071 0.55977 0.91505 0.0
H731 H 0.80952 0.58265 0.98367 0.0
H732 H 0.81758 0.56237 0.17004 0.0
H733 H 0.80864 0.58227 0.0997 0.0
H734 H 0.71735 0.41835 1.01801 0.0
H735 H 0.70959 0.43794 0.94485 0.0
H736 H 0.7608 0.42229 0.06365 0.0
H737 H 0.7866 0.44394 0.13704 0.0
C738 C 0.28214 0.72522 0.5436 0.0
C739 C 0.29141 0.73875 0.47089 0.0
C740 C 0.3402 0.78827 0.52512 0.0
C741 C 0.32853 0.77646 0.59817 0.0
N742 N 0.28424 0.73563 0.67537 0.0
N743 N 0.32692 0.7864 0.39476 0.0
C744 C 0.29845 0.74536 0.6069 0.0
C745 C 0.31999 0.77107 0.46224 0.0
N746 N 0.25827 0.69255 0.5525 0.0
N747 N 0.37115 0.8156 0.51536 0.0
H748 H 0.31261 0.77533 0.34791 0.0
H749 H 0.34498 0.81127 0.38662 0.0
H750 H 0.38661 0.82868 0.55931 0.0
H751 H 0.38274 0.82339 0.46401 0.0
H752 H 0.25233 0.68054 0.60353 0.0
H753 H 0.2469 0.67652 0.50821 0.0
H754 H 0.26034 0.71541 0.68418 0.0
H755 H 0.29479 0.74952 0.72291 0.0
C756 C 0.53411 0.28898 0.04932 0.0
C757 C 0.55519 0.29478 0.11277 0.0
C758 C 0.58238 0.26897 0.04199 0.0
C759 C 0.55929 0.26036 0.98322 0.0
N760 N 0.50799 0.25582 0.94034 0.0
N761 N 0.59013 0.27671 0.17369 0.0
C762 C 0.53334 0.26798 0.9906 0.0
C763 C 0.57685 0.28107 0.11024 0.0
N764 N 0.51676 0.30539 0.04017 0.0
N765 N 0.60961 0.26529 1.03346 0.0
H766 H 0.58268 0.27957 0.22603 0.0
H767 H 0.60419 0.2649 0.17484 0.0
H768 H 0.61402 0.25584 0.98533 0.0
H769 H 0.62915 0.27451 0.07146 0.0
H770 H 0.50317 0.3034 0.99275 0.0
H771 H 0.51967 0.32508 0.07194 0.0
H772 H 0.48592 0.25627 0.94833 0.0
H773 H 0.50804 0.24321 0.8932 0.0
C774 C 0.32959 0.57972 0.51716 0.0
C775 C 0.32207 0.54979 0.48069 0.0
C776 C 0.28512 0.51833 0.58552 0.0
C777 C 0.2888 0.54778 0.61772 0.0
N778 N 0.3121 0.60731 0.60449 0.0
N779 N 0.28591 0.49042 0.47389 0.0
C780 C 0.31055 0.57877 0.58111 0.0
C781 C 0.29783 0.51911 0.51317 0.0
N782 N 0.35576 0.60915 0.49258 0.0
N783 N 0.27108 0.48958 0.62574 0.0
H784 H 0.29327 0.49012 0.41974 0.0
H785 H 0.26592 0.46778 0.49176 0.0
H786 H 0.26468 0.48883 0.68104 0.0
H787 H 0.27028 0.46798 0.60772 0.0
H788 H 0.36523 0.63128 0.52187 0.0
H789 H 0.36977 0.61088 0.44591 0.0
H790 H 0.32394 0.62946 0.57446 0.0
H791 H 0.29948 0.6085 0.65062 0.0
C792 C 0.78403 0.27641 0.08699 0.0
C793 C 0.75563 0.2771 0.11473 0.0
C794 C 0.76657 0.32011 1.01872 0.0
C795 C 0.79202 0.31572 0.98551 0.0
N796 N 0.81761 0.28162 0.98028 0.0
N797 N 0.71659 0.29656 0.09522 0.0
C798 C 0.79858 0.29157 1.01758 0.0
C799 C 0.74606 0.29825 0.07748 0.0
N800 N 0.79855 0.26269 0.12866 0.0
N801 N 0.76263 0.34597 0.99655 0.0
H802 H 0.70062 0.28097 0.13621 0.0
H803 H 0.7065 0.30833 0.06442 0.0
H804 H 0.77721 0.36262 0.95518 0.0
H805 H 0.74718 0.35274 1.02399 0.0
H806 H 0.82105 0.26412 0.11429 0.0
H807 H 0.79065 0.25413 0.18211 0.0
H808 H 0.82049 0.26184 0.99766 0.0
H809 H 0.82684 0.29014 0.92754 0.0
C810 C 0.5306 0.78793 0.52759 0.0
C811 C 0.50026 0.7843 0.4987 0.0
C812 C 0.46954 0.73699 0.58555 0.0
C813 C 0.50007 0.74323 0.61981 0.0
N814 N 0.55864 0.78308 0.63513 0.0
N815 N 0.44078 0.75997 0.51654 0.0
C816 C 0.53024 0.77115 0.59411 0.0
C817 C 0.46971 0.76016 0.53248 0.0
N818 N 0.55999 0.80614 0.49018 0.0
N819 N 0.44036 0.70821 0.59999 0.0
H820 H 0.43993 0.77719 0.481 0.0
H821 H 0.41847 0.74521 0.54505 0.0
H822 H 0.43863 0.68997 0.63585 0.0
H823 H 0.41848 0.70091 0.5703 0.0
H824 H 0.58199 0.80668 0.50524 0.0
H825 H 0.56159 0.8173 0.43952 0.0
H826 H 0.58064 0.80507 0.62226 0.0
H827 H 0.55863 0.77374 0.68727 0.0
C828 C 0.42122 0.42116 0.31256 0.0
C829 C 0.43933 0.45648 0.3118 0.0
C830 C 0.48888 0.45537 0.3548 0.0
C831 C 0.47355 0.42106 0.33793 0.0
N832 N 0.4202 0.37154 0.35679 0.0
N833 N 0.49208 0.50748 0.32658 0.0
C834 C 0.43804 0.40357 0.33187 0.0
C835 C 0.47372 0.47362 0.33073 0.0
N836 N 0.38798 0.40433 0.29547 0.0
N837 N 0.51359 0.46892 0.40633 0.0
H838 H 0.48209 0.5219 0.30804 0.0
H839 H 0.51788 0.52061 0.33507 0.0
H840 H 0.51955 0.45405 0.4388 0.0
H841 H 0.52369 0.49326 0.42506 0.0
H842 H 0.37453 0.37874 0.28697 0.0
H843 H 0.3744 0.41618 0.28469 0.0
H844 H 0.3942 0.35818 0.36059 0.0
H845 H 0.43178 0.36016 0.38366 0.0
C846 C 0.0575 0.47218 0.74935 0.0
C847 C 0.07381 0.45865 0.79135 0.0
C848 C 1.01917 0.40932 0.81814 0.0
C849 C 1.0028 0.42507 0.78549 0.0
N850 N 1.00682 0.47432 0.73062 0.0
N851 N 0.06964 0.4163 0.8752 0.0
C852 C 1.02207 0.45725 0.75366 0.0
C853 C 0.05449 0.42764 0.82813 0.0
N854 N 0.07572 0.4987 0.70343 0.0
N855 N 1.001 0.37657 0.83815 0.0
H856 H 0.09531 0.42922 0.88518 0.0
H857 H 0.05641 0.39566 0.90945 0.0
H858 H 0.97521 0.36225 0.83033 0.0
H859 H 1.01188 0.36283 0.8555 0.0
H860 H 0.0648 0.50746 0.66607 0.0
H861 H 0.10157 0.50981 0.69712 0.0
H862 H 1.02003 0.49923 0.71468 0.0
H863 H 0.98105 0.46463 0.7337 0.0
C864 C 0.64914 0.04363 0.32392 0.0
C865 C 0.63725 0.06153 0.28277 0.0
C866 C 0.60027 1.01044 0.2144 0.0
C867 C 0.60672 0.9916 0.26694 0.0
N868 N 0.6563 0.99595 0.32092 0.0
N869 N 0.60236 0.06216 0.18417 0.0
C870 C 0.63665 1.00953 0.3083 0.0
C871 C 0.61303 0.04499 0.22657 0.0
N872 N 0.67212 0.05892 0.37861 0.0
N873 N 0.58743 0.99693 0.1472 0.0
H874 H 0.61245 0.08781 0.18781 0.0
H875 H 0.58206 0.05048 0.14843 0.0
H876 H 0.58419 0.97392 0.13174 0.0
H877 H 0.58493 1.01025 0.10375 0.0
H878 H 0.67914 0.04587 0.41427 0.0
H879 H 0.68193 0.08389 0.39208 0.0
H880 H 0.67989 1.00907 0.34505 0.0
H881 H 0.65105 0.97351 0.29677 0.0
C882 C 0.61005 0.61588 0.72588 0.0
C883 C 0.58532 0.60876 0.78096 0.0
C884 C 0.59422 0.56427 0.82755 0.0
C885 C 0.62287 0.5754 0.78148 0.0
N886 N 0.66246 0.61846 0.69933 0.0
N887 N 0.5606 0.58101 0.89673 0.0
C888 C 0.6321 0.60313 0.73406 0.0
C889 C 0.57931 0.58432 0.83551 0.0
N890 N 0.61174 0.63356 0.66406 0.0
N891 N 0.58031 0.53397 0.86167 0.0
H892 H 0.55106 0.59662 0.90754 0.0
H893 H 0.558 0.56533 0.94066 0.0
H894 H 0.58897 0.51747 0.85319 0.0
H895 H 0.55785 0.5238 0.89098 0.0
H896 H 0.62764 0.63691 0.61992 0.0
H897 H 0.59461 0.64131 0.65303 0.0
H898 H 0.67117 0.64045 0.66924 0.0
H899 H 0.68041 0.61153 0.7076 0.0
C900 C 0.05943 0.59589 0.32229 0.0
C901 C 0.07714 0.62938 0.29796 0.0
C902 C 1.02527 0.63154 0.31135 0.0
C903 C 1.00698 0.59661 0.32542 0.0
N904 N 1.01548 0.55981 0.40461 0.0
N905 N 0.07682 0.67971 0.26848 0.0
C906 C 1.02614 0.58207 0.34766 0.0
C907 C 0.06002 0.64744 0.29215 0.0
N908 N 0.07438 0.57709 0.32193 0.0
N909 N 1.01109 0.65021 0.32867 0.0
H910 H 0.10237 0.69239 0.25671 0.0
H911 H 0.06493 0.693 0.25531 0.0
H912 H 0.98809 0.63991 0.35594 0.0
H913 H 1.02379 0.67606 0.3262 0.0
H914 H 0.06128 0.55178 0.3349 0.0
H915 H 0.09854 0.58608 0.30152 0.0
H916 H 1.03003 0.55056 0.4266 0.0
H917 H 0.99492 0.55529 0.43703 0.0
C918 C 0.46054 0.99831 0.77311 0.0
C919 C 0.42718 0.98141 0.80081 0.0
C920 C 0.42912 0.03497 0.81236 0.0
C921 C 0.46348 0.05185 0.79233 0.0
N922 N 0.51342 0.05003 0.7638 0.0
N923 N 0.38088 0.98371 0.85536 0.0
C924 C 0.47959 0.03363 0.77528 0.0
C925 C 0.4117 0.99977 0.82246 0.0
N926 N 0.47375 0.98069 0.74236 0.0
N927 N 0.41305 0.05263 0.82057 0.0
H928 H 0.36749 0.95805 0.86383 0.0
H929 H 0.36971 0.99595 0.87957 0.0
H930 H 0.42517 0.07839 0.81402 0.0
H931 H 0.3873 0.04163 0.82769 0.0
H932 H 0.49631 0.99167 0.71346 0.0
H933 H 0.46086 0.95488 0.73996 0.0
H934 H 0.52724 0.03804 0.76045 0.0
H935 H 0.52823 0.07588 0.76326 0.0
loop_
_geom_bond_atom_site_label_1
_geom_bond_atom_site_label_2
_geom_bond_distance
_geom_bond_site_symmetry_2
_ccdc_geom_bond_type
Co0 N4 2.148 . S
Co0 N10 2.128 . S
Co0 N20 2.194 . S
Co0 O25 2.351 . S
Co0 O26 2.155 . S
Co0 O27 2.096 . S
C1 N4 1.301 . S
C1 N5 1.328 . S
C1 H6 0.930 . S
C2 C3 1.333 . S
C2 N4 1.317 . S
C2 H7 0.930 . S
C3 C2 1.333 . S
C3 N5 1.350 . S
C3 H29 0.931 . S
N4 Co0 2.148 . S
N4 C1 1.301 . S
N4 C2 1.317 . S
N5 C1 1.328 . S
N5 C3 1.350 . S
H6 C1 0.930 . S
H7 C2 0.930 . S
C8 O9 1.224 . S
C8 O27 1.247 . S
O9 C8 1.224 . S
N10 Co0 2.128 . S
N10 C11 1.355 . S
N10 C13 1.311 . S
C11 N10 1.355 . S
C11 C12 1.363 . S
C11 H23 0.929 . S
C12 C11 1.363 . S
C12 N14 1.375 . S
C12 H30 0.931 . S
C13 N10 1.311 . S
C13 N14 1.347 . S
C13 H24 0.929 . S
N14 C12 1.375 . S
N14 C13 1.347 . S
C15 C18 1.365 . S
C15 N20 1.328 . S
C15 H21 0.929 . S
C16 C17 1.362 . S
C16 C19 1.378 . S
C16 H31 0.929 . S
C17 C16 1.362 . S
C17 C18 1.366 . S
C18 C15 1.365 . S
C18 C17 1.366 . S
C18 H32 0.930 . S
C19 C16 1.378 . S
C19 N20 1.315 . S
C19 H22 0.930 . S
N20 Co0 2.194 . S
N20 C15 1.328 . S
N20 C19 1.315 . S
H21 C15 0.929 . S
H22 C19 0.930 . S
H23 C11 0.929 . S
H24 C13 0.929 . S
O25 Co0 2.351 . S
O25 C28 1.244 . S
O26 Co0 2.155 . S
O26 C28 1.240 . S
O27 Co0 2.096 . S
O27 C8 1.247 . S
C28 O25 1.244 . S
C28 O26 1.240 . S
H29 C3 0.931 . S
H30 C12 0.931 . S
H31 C16 0.929 . S
H32 C18 0.930 . S
Co33 N37 2.148 . S
Co33 N43 2.128 . S
Co33 N53 2.194 . S
Co33 O58 2.351 . S
Co33 O59 2.155 . S
Co33 O60 2.096 . S
C34 N37 1.301 . S
C34 N38 1.328 . S
C34 H39 0.930 . S
C35 C36 1.333 . S
C35 N37 1.317 . S
C35 H40 0.930 . S
C36 C35 1.333 . S
C36 N38 1.350 . S
C36 H62 0.931 . S
N37 Co33 2.148 . S
N37 C34 1.301 . S
N37 C35 1.317 . S
N38 C34 1.328 . S
N38 C36 1.350 . S
H39 C34 0.930 . S
H40 C35 0.930 . S
C41 O42 1.224 . S
C41 O60 1.247 . S
O42 C41 1.224 . S
N43 Co33 2.128 . S
N43 C44 1.355 . S
N43 C46 1.311 . S
C44 N43 1.355 . S
C44 C45 1.363 . S
C44 H56 0.929 . S
C45 C44 1.363 . S
C45 N47 1.375 . S
C45 H63 0.931 . S
C46 N43 1.311 . S
C46 N47 1.347 . S
C46 H57 0.929 . S
N47 C45 1.375 . S
N47 C46 1.347 . S
C48 C51 1.365 . S
C48 N53 1.328 . S
C48 H54 0.929 . S
C49 C50 1.362 . S
C49 C52 1.378 . S
C49 H64 0.929 . S
C50 C49 1.362 . S
C50 C51 1.366 . S
C51 C48 1.365 . S
C51 C50 1.366 . S
C51 H65 0.930 . S
C52 C49 1.378 . S
C52 N53 1.315 . S
C52 H55 0.930 . S
N53 Co33 2.194 . S
N53 C48 1.328 . S
N53 C52 1.315 . S
H54 C48 0.929 . S
H55 C52 0.930 . S
H56 C44 0.929 . S
H57 C46 0.929 . S
O58 Co33 2.351 . S
O58 C61 1.244 . S
O59 Co33 2.155 . S
O59 C61 1.240 . S
O60 Co33 2.096 . S
O60 C41 1.247 . S
C61 O58 1.244 . S
C61 O59 1.240 . S
H62 C36 0.931 . S
H63 C45 0.931 . S
H64 C49 0.929 . S
H65 C51 0.930 . S
Co66 N70 2.148 . S
Co66 N76 2.128 . S
Co66 N86 2.194 . S
Co66 O91 2.351 . S
Co66 O92 2.155 . S
Co66 O93 2.096 . S
C67 N70 1.301 . S
C67 N71 1.328 . S
C67 H72 0.930 . S
C68 C69 1.333 . S
C68 N70 1.317 . S
C68 H73 0.930 . S
C69 C68 1.333 . S
C69 N71 1.350 . S
C69 H95 0.931 . S
N70 Co66 2.148 . S
N70 C67 1.301 . S
N70 C68 1.317 . S
N71 C67 1.328 . S
N71 C69 1.350 . S
H72 C67 0.930 . S
H73 C68 0.930 . S
C74 O75 1.224 . S
C74 O93 1.247 . S
O75 C74 1.224 . S
N76 Co66 2.128 . S
N76 C77 1.355 . S
N76 C79 1.311 . S
C77 N76 1.355 . S
C77 C78 1.363 . S
C77 H89 0.929 . S
C78 C77 1.363 . S
C78 N80 1.375 . S
C78 H96 0.931 . S
C79 N76 1.311 . S
C79 N80 1.347 . S
C79 H90 0.929 . S
N80 C78 1.375 . S
N80 C79 1.347 . S
C81 C84 1.365 . S
C81 N86 1.328 . S
C81 H87 0.929 . S
C82 C83 1.362 . S
C82 C85 1.378 . S
C82 H97 0.929 . S
C83 C82 1.362 . S
C83 C84 1.366 . S
C84 C81 1.365 . S
C84 C83 1.366 . S
C84 H98 0.930 . S
C85 C82 1.378 . S
C85 N86 1.315 . S
C85 H88 0.930 . S
N86 Co66 2.194 . S
N86 C81 1.328 . S
N86 C85 1.315 . S
H87 C81 0.929 . S
H88 C85 0.930 . S
H89 C77 0.929 . S
H90 C79 0.929 . S
O91 Co66 2.351 . S
O91 C94 1.244 . S
O92 Co66 2.155 . S
O92 C94 1.240 . S
O93 Co66 2.096 . S
O93 C74 1.247 . S
C94 O91 1.244 . S
C94 O92 1.240 . S
H95 C69 0.931 . S
H96 C78 0.931 . S
H97 C82 0.929 . S
H98 C84 0.930 . S
Co99 N103 2.148 . S
Co99 N109 2.128 . S
Co99 N119 2.194 . S
Co99 O124 2.351 . S
Co99 O125 2.155 . S
Co99 O126 2.096 . S
C100 N103 1.301 . S
C100 N104 1.328 . S
C100 H105 0.930 . S
C101 C102 1.333 . S
C101 N103 1.317 . S
C101 H106 0.930 . S
C102 C101 1.333 . S
C102 N104 1.350 . S
C102 H128 0.931 . S
N103 Co99 2.148 . S
N103 C100 1.301 . S
N103 C101 1.317 . S
N104 C100 1.328 . S
N104 C102 1.350 . S
H105 C100 0.930 . S
H106 C101 0.930 . S
C107 O108 1.224 . S
C107 O126 1.247 . S
O108 C107 1.224 . S
N109 Co99 2.128 . S
N109 C110 1.355 . S
N109 C112 1.311 . S
C110 N109 1.355 . S
C110 C111 1.363 . S
C110 H122 0.929 . S
C111 C110 1.363 . S
C111 N113 1.375 . S
C111 H129 0.931 . S
C112 N109 1.311 . S
C112 N113 1.347 . S
C112 H123 0.929 . S
N113 C111 1.375 . S
N113 C112 1.347 . S
C114 C117 1.365 . S
C114 N119 1.328 . S
C114 H120 0.929 . S
C115 C116 1.362 . S
C115 C118 1.378 . S
C115 H130 0.929 . S
C116 C115 1.362 . S
C116 C117 1.366 . S
C117 C114 1.365 . S
C117 C116 1.366 . S
C117 H131 0.930 . S
C118 C115 1.378 . S
C118 N119 1.315 . S
C118 H121 0.930 . S
N119 Co99 2.194 . S
N119 C114 1.328 . S
N119 C118 1.315 . S
H120 C114 0.929 . S
H121 C118 0.930 . S
H122 C110 0.929 . S
H123 C112 0.929 . S
O124 Co99 2.351 . S
O124 C127 1.244 . S
O125 Co99 2.155 . S
O125 C127 1.240 . S
O126 Co99 2.096 . S
O126 C107 1.247 . S
C127 O124 1.244 . S
C127 O125 1.240 . S
H128 C102 0.931 . S
H129 C111 0.931 . S
H130 C115 0.929 . S
H131 C117 0.930 . S
Co132 N136 2.148 . S
Co132 N142 2.128 . S
Co132 N152 2.194 . S
Co132 O157 2.351 . S
Co132 O158 2.155 . S
Co132 O159 2.096 . S
C133 N136 1.301 . S
C133 N137 1.328 . S
C133 H138 0.930 . S
C134 C135 1.333 . S
C134 N136 1.317 . S
C134 H139 0.930 . S
C135 C134 1.333 . S
C135 N137 1.350 . S
C135 H161 0.931 . S
N136 Co132 2.148 . S
N136 C133 1.301 . S
N136 C134 1.317 . S
N137 C133 1.328 . S
N137 C135 1.350 . S
H138 C133 0.930 . S
H139 C134 0.930 . S
C140 O141 1.224 . S
C140 O159 1.247 . S
O141 C140 1.224 . S
N142 Co132 2.128 . S
N142 C143 1.355 . S
N142 C145 1.311 . S
C143 N142 1.355 . S
C143 C144 1.363 . S
C143 H155 0.929 . S
C144 C143 1.363 . S
C144 N146 1.375 . S
C144 H162 0.931 . S
C145 N142 1.311 . S
C145 N146 1.347 . S
C145 H156 0.929 . S
N146 C144 1.375 . S
N146 C145 1.347 . S
C147 C150 1.365 . S
C147 N152 1.328 . S
C147 H153 0.929 . S
C148 C149 1.362 . S
C148 C151 1.378 . S
C148 H163 0.929 . S
C149 C148 1.362 . S
C149 C150 1.366 . S
C150 C147 1.365 . S
C150 C149 1.366 . S
C150 H164 0.930 . S
C151 C148 1.378 . S
C151 N152 1.315 . S
C151 H154 0.930 . S
N152 Co132 2.194 . S
N152 C147 1.328 . S
N152 C151 1.315 . S
H153 C147 0.929 . S
H154 C151 0.930 . S
H155 C143 0.929 . S
H156 C145 0.929 . S
O157 Co132 2.351 . S
O157 C160 1.244 . S
O158 Co132 2.155 . S
O158 C160 1.240 . S
O159 Co132 2.096 . S
O159 C140 1.247 . S
C160 O157 1.244 . S
C160 O158 1.240 . S
H161 C135 0.931 . S
H162 C144 0.931 . S
H163 C148 0.929 . S
H164 C150 0.930 . S
Co165 N169 2.148 . S
Co165 N175 2.128 . S
Co165 N185 2.194 . S
Co165 O190 2.351 . S
Co165 O191 2.155 . S
Co165 O192 2.096 . S
C166 N169 1.301 . S
C166 N170 1.328 . S
C166 H171 0.930 . S
C167 C168 1.333 . S
C167 N169 1.317 . S
C167 H172 0.930 . S
C168 C167 1.333 . S
C168 N170 1.350 . S
C168 H194 0.931 . S
N169 Co165 2.148 . S
N169 C166 1.301 . S
N169 C167 1.317 . S
N170 C166 1.328 . S
N170 C168 1.350 . S
H171 C166 0.930 . S
H172 C167 0.930 . S
C173 O174 1.224 . S
C173 O192 1.247 . S
O174 C173 1.224 . S
N175 Co165 2.128 . S
N175 C176 1.355 . S
N175 C178 1.311 . S
C176 N175 1.355 . S
C176 C177 1.363 . S
C176 H188 0.929 . S
C177 C176 1.363 . S
C177 N179 1.375 . S
C177 H195 0.931 . S
C178 N175 1.311 . S
C178 N179 1.347 . S
C178 H189 0.929 . S
N179 C177 1.375 . S
N179 C178 1.347 . S
C180 C183 1.365 . S
C180 N185 1.328 . S
C180 H186 0.929 . S
C181 C182 1.362 . S
C181 C184 1.378 . S
C181 H196 0.929 . S
C182 C181 1.362 . S
C182 C183 1.366 . S
C183 C180 1.365 . S
C183 C182 1.366 . S
C183 H197 0.930 . S
C184 C181 1.378 . S
C184 N185 1.315 . S
C184 H187 0.930 . S
N185 Co165 2.194 . S
N185 C180 1.328 . S
N185 C184 1.315 . S
H186 C180 0.929 . S
H187 C184 0.930 . S
H188 C176 0.929 . S
H189 C178 0.929 . S
O190 Co165 2.351 . S
O190 C193 1.244 . S
O191 Co165 2.155 . S
O191 C193 1.240 . S
O192 Co165 2.096 . S
O192 C173 1.247 . S
C193 O190 1.244 . S
C193 O191 1.240 . S
H194 C168 0.931 . S
H195 C177 0.931 . S
H196 C181 0.929 . S
H197 C183 0.930 . S
Co198 N202 2.148 . S
Co198 N208 2.128 . S
Co198 N218 2.194 . S
Co198 O223 2.351 . S
Co198 O224 2.155 . S
Co198 O225 2.096 . S
C199 N202 1.301 . S
C199 N203 1.328 . S
C199 H204 0.930 . S
C200 C201 1.333 . S
C200 N202 1.317 . S
C200 H205 0.930 . S
C201 C200 1.333 . S
C201 N203 1.350 . S
C201 H227 0.931 . S
N202 Co198 2.148 . S
N202 C199 1.301 . S
N202 C200 1.317 . S
N203 C199 1.328 . S
N203 C201 1.350 . S
H204 C199 0.930 . S
H205 C200 0.930 . S
C206 O207 1.224 . S
C206 O225 1.247 . S
O207 C206 1.224 . S
N208 Co198 2.128 . S
N208 C209 1.355 . S
N208 C211 1.311 . S
C209 N208 1.355 . S
C209 C210 1.363 . S
C209 H221 0.929 . S
C210 C209 1.363 . S
C210 N212 1.375 . S
C210 H228 0.931 . S
C211 N208 1.311 . S
C211 N212 1.347 . S
C211 H222 0.929 . S
N212 C210 1.375 . S
N212 C211 1.347 . S
C213 C216 1.365 . S
C213 N218 1.328 . S
C213 H219 0.929 . S
C214 C215 1.362 . S
C214 C217 1.378 . S
C214 H229 0.929 . S
C215 C214 1.362 . S
C215 C216 1.366 . S
C216 C213 1.365 . S
C216 C215 1.366 . S
C216 H230 0.930 . S
C217 C214 1.378 . S
C217 N218 1.315 . S
C217 H220 0.930 . S
N218 Co198 2.194 . S
N218 C213 1.328 . S
N218 C217 1.315 . S
H219 C213 0.929 . S
H220 C217 0.930 . S
H221 C209 0.929 . S
H222 C211 0.929 . S
O223 Co198 2.351 . S
O223 C226 1.244 . S
O224 Co198 2.155 . S
O224 C226 1.240 . S
O225 Co198 2.096 . S
O225 C206 1.247 . S
C226 O223 1.244 . S
C226 O224 1.240 . S
H227 C201 0.931 . S
H228 C210 0.931 . S
H229 C214 0.929 . S
H230 C216 0.930 . S
Co231 N235 2.148 . S
Co231 N241 2.128 . S
Co231 N251 2.194 . S
Co231 O256 2.351 . S
Co231 O257 2.155 . S
Co231 O258 2.096 . S
C232 N235 1.301 . S
C232 N236 1.328 . S
C232 H237 0.930 . S
C233 C234 1.333 . S
C233 N235 1.317 . S
C233 H238 0.930 . S
C234 C233 1.333 . S
C234 N236 1.350 . S
C234 H260 0.931 . S
N235 Co231 2.148 . S
N235 C232 1.301 . S
N235 C233 1.317 . S
N236 C232 1.328 . S
N236 C234 1.350 . S
H237 C232 0.930 . S
H238 C233 0.930 . S
C239 O240 1.224 . S
C239 O258 1.247 . S
O240 C239 1.224 . S
N241 Co231 2.128 . S
N241 C242 1.355 . S
N241 C244 1.311 . S
C242 N241 1.355 . S
C242 C243 1.363 . S
C242 H254 0.929 . S
C243 C242 1.363 . S
C243 N245 1.375 . S
C243 H261 0.931 . S
C244 N241 1.311 . S
C244 N245 1.347 . S
C244 H255 0.929 . S
N245 C243 1.375 . S
N245 C244 1.347 . S
C246 C249 1.365 . S
C246 N251 1.328 . S
C246 H252 0.929 . S
C247 C248 1.362 . S
C247 C250 1.378 . S
C247 H262 0.929 . S
C248 C247 1.362 . S
C248 C249 1.366 . S
C249 C246 1.365 . S
C249 C248 1.366 . S
C249 H263 0.930 . S
C250 C247 1.378 . S
C250 N251 1.315 . S
C250 H253 0.930 . S
N251 Co231 2.194 . S
N251 C246 1.328 . S
N251 C250 1.315 . S
H252 C246 0.929 . S
H253 C250 0.930 . S
H254 C242 0.929 . S
H255 C244 0.929 . S
O256 Co231 2.351 . S
O256 C259 1.244 . S
O257 Co231 2.155 . S
O257 C259 1.240 . S
O258 Co231 2.096 . S
O258 C239 1.247 . S
C259 O256 1.244 . S
C259 O257 1.240 . S
H260 C234 0.931 . S
H261 C243 0.931 . S
H262 C247 0.929 . S
H263 C249 0.930 . S
Co264 N268 2.148 . S
Co264 N274 2.128 . S
Co264 N284 2.194 . S
Co264 O289 2.351 . S
Co264 O290 2.155 . S
Co264 O291 2.096 . S
C265 N268 1.301 . S
C265 N269 1.328 . S
C265 H270 0.930 . S
C266 C267 1.333 . S
C266 N268 1.317 . S
C266 H271 0.930 . S
C267 C266 1.333 . S
C267 N269 1.350 . S
C267 H293 0.931 . S
N268 Co264 2.148 . S
N268 C265 1.301 . S
N268 C266 1.317 . S
N269 C265 1.328 . S
N269 C267 1.350 . S
H270 C265 0.930 . S
H271 C266 0.930 . S
C272 O273 1.224 . S
C272 O291 1.247 . S
O273 C272 1.224 . S
N274 Co264 2.128 . S
N274 C275 1.355 . S
N274 C277 1.311 . S
C275 N274 1.355 . S
C275 C276 1.363 . S
C275 H287 0.929 . S
C276 C275 1.363 . S
C276 N278 1.375 . S
C276 H294 0.931 . S
C277 N274 1.311 . S
C277 N278 1.347 . S
C277 H288 0.929 . S
N278 C276 1.375 . S
N278 C277 1.347 . S
C279 C282 1.365 . S
C279 N284 1.328 . S
C279 H285 0.929 . S
C280 C281 1.362 . S
C280 C283 1.378 . S
C280 H295 0.929 . S
C281 C280 1.362 . S
C281 C282 1.366 . S
C282 C279 1.365 . S
C282 C281 1.366 . S
C282 H296 0.930 . S
C283 C280 1.378 . S
C283 N284 1.315 . S
C283 H286 0.930 . S
N284 Co264 2.194 . S
N284 C279 1.328 . S
N284 C283 1.315 . S
H285 C279 0.929 . S
H286 C283 0.930 . S
H287 C275 0.929 . S
H288 C277 0.929 . S
O289 Co264 2.351 . S
O289 C292 1.244 . S
O290 Co264 2.155 . S
O290 C292 1.240 . S
O291 Co264 2.096 . S
O291 C272 1.247 . S
C292 O289 1.244 . S
C292 O290 1.240 . S
H293 C267 0.931 . S
H294 C276 0.931 . S
H295 C280 0.929 . S
H296 C282 0.930 . S
Co297 N301 2.148 . S
Co297 N307 2.128 . S
Co297 N317 2.194 . S
Co297 O322 2.351 . S
Co297 O323 2.155 . S
Co297 O324 2.096 . S
C298 N301 1.301 . S
C298 N302 1.328 . S
C298 H303 0.930 . S
C299 C300 1.333 . S
C299 N301 1.317 . S
C299 H304 0.930 . S
C300 C299 1.333 . S
C300 N302 1.350 . S
C300 H326 0.931 . S
N301 Co297 2.148 . S
N301 C298 1.301 . S
N301 C299 1.317 . S
N302 C298 1.328 . S
N302 C300 1.350 . S
H303 C298 0.930 . S
H304 C299 0.930 . S
C305 O306 1.224 . S
C305 O324 1.247 . S
O306 C305 1.224 . S
N307 Co297 2.128 . S
N307 C308 1.355 . S
N307 C310 1.311 . S
C308 N307 1.355 . S
C308 C309 1.363 . S
C308 H320 0.929 . S
C309 C308 1.363 . S
C309 N311 1.375 . S
C309 H327 0.931 . S
C310 N307 1.311 . S
C310 N311 1.347 . S
C310 H321 0.929 . S
N311 C309 1.375 . S
N311 C310 1.347 . S
C312 C315 1.365 . S
C312 N317 1.328 . S
C312 H318 0.929 . S
C313 C314 1.362 . S
C313 C316 1.378 . S
C313 H328 0.929 . S
C314 C313 1.362 . S
C314 C315 1.366 . S
C315 C312 1.365 . S
C315 C314 1.366 . S
C315 H329 0.930 . S
C316 C313 1.378 . S
C316 N317 1.315 . S
C316 H319 0.930 . S
N317 Co297 2.194 . S
N317 C312 1.328 . S
N317 C316 1.315 . S
H318 C312 0.929 . S
H319 C316 0.930 . S
H320 C308 0.929 . S
H321 C310 0.929 . S
O322 Co297 2.351 . S
O322 C325 1.244 . S
O323 Co297 2.155 . S
O323 C325 1.240 . S
O324 Co297 2.096 . S
O324 C305 1.247 . S
C325 O322 1.244 . S
C325 O323 1.240 . S
H326 C300 0.931 . S
H327 C309 0.931 . S
H328 C313 0.929 . S
H329 C315 0.930 . S
Co330 N334 2.148 . S
Co330 N340 2.128 . S
Co330 N350 2.194 . S
Co330 O355 2.351 . S
Co330 O356 2.155 . S
Co330 O357 2.096 . S
C331 N334 1.301 . S
C331 N335 1.328 . S
C331 H336 0.930 . S
C332 C333 1.333 . S
C332 N334 1.317 . S
C332 H337 0.930 . S
C333 C332 1.333 . S
C333 N335 1.350 . S
C333 H359 0.931 . S
N334 Co330 2.148 . S
N334 C331 1.301 . S
N334 C332 1.317 . S
N335 C331 1.328 . S
N335 C333 1.350 . S
H336 C331 0.930 . S
H337 C332 0.930 . S
C338 O339 1.224 . S
C338 O357 1.247 . S
O339 C338 1.224 . S
N340 Co330 2.128 . S
N340 C341 1.355 . S
N340 C343 1.311 . S
C341 N340 1.355 . S
C341 C342 1.363 . S
C341 H353 0.929 . S
C342 C341 1.363 . S
C342 N344 1.375 . S
C342 H360 0.931 . S
C343 N340 1.311 . S
C343 N344 1.347 . S
C343 H354 0.929 . S
N344 C342 1.375 . S
N344 C343 1.347 . S
C345 C348 1.365 . S
C345 N350 1.328 . S
C345 H351 0.929 . S
C346 C347 1.362 . S
C346 C349 1.378 . S
C346 H361 0.929 . S
C347 C346 1.362 . S
C347 C348 1.366 . S
C348 C345 1.365 . S
C348 C347 1.366 . S
C348 H362 0.930 . S
C349 C346 1.378 . S
C349 N350 1.315 . S
C349 H352 0.930 . S
N350 Co330 2.194 . S
N350 C345 1.328 . S
N350 C349 1.315 . S
H351 C345 0.929 . S
H352 C349 0.930 . S
H353 C341 0.929 . S
H354 C343 0.929 . S
O355 Co330 2.351 . S
O355 C358 1.244 . S
O356 Co330 2.155 . S
O356 C358 1.240 . S
O357 Co330 2.096 . S
O357 C338 1.247 . S
C358 O355 1.244 . S
C358 O356 1.240 . S
H359 C333 0.931 . S
H360 C342 0.931 . S
H361 C346 0.929 . S
H362 C348 0.930 . S
Co363 N367 2.148 . S
Co363 N373 2.128 . S
Co363 N383 2.194 . S
Co363 O388 2.351 . S
Co363 O389 2.155 . S
Co363 O390 2.096 . S
C364 N367 1.301 . S
C364 N368 1.328 . S
C364 H369 0.930 . S
C365 C366 1.333 . S
C365 N367 1.317 . S
C365 H370 0.930 . S
C366 C365 1.333 . S
C366 N368 1.350 . S
C366 H392 0.931 . S
N367 Co363 2.148 . S
N367 C364 1.301 . S
N367 C365 1.317 . S
N368 C364 1.328 . S
N368 C366 1.350 . S
H369 C364 0.930 . S
H370 C365 0.930 . S
C371 O372 1.224 . S
C371 O390 1.247 . S
O372 C371 1.224 . S
N373 Co363 2.128 . S
N373 C374 1.355 . S
N373 C376 1.311 . S
C374 N373 1.355 . S
C374 C375 1.363 . S
C374 H386 0.929 . S
C375 C374 1.363 . S
C375 N377 1.375 . S
C375 H393 0.931 . S
C376 N373 1.311 . S
C376 N377 1.347 . S
C376 H387 0.929 . S
N377 C375 1.375 . S
N377 C376 1.347 . S
C378 C381 1.365 . S
C378 N383 1.328 . S
C378 H384 0.929 . S
C379 C380 1.362 . S
C379 C382 1.378 . S
C379 H394 0.929 . S
C380 C379 1.362 . S
C380 C381 1.366 . S
C381 C378 1.365 . S
C381 C380 1.366 . S
C381 H395 0.930 . S
C382 C379 1.378 . S
C382 N383 1.315 . S
C382 H385 0.930 . S
N383 Co363 2.194 . S
N383 C378 1.328 . S
N383 C382 1.315 . S
H384 C378 0.929 . S
H385 C382 0.930 . S
H386 C374 0.929 . S
H387 C376 0.929 . S
O388 Co363 2.351 . S
O388 C391 1.244 . S
O389 Co363 2.155 . S
O389 C391 1.240 . S
O390 Co363 2.096 . S
O390 C371 1.247 . S
C391 O388 1.244 . S
C391 O389 1.240 . S
H392 C366 0.931 . S
H393 C375 0.931 . S
H394 C379 0.929 . S
H395 C381 0.930 . S
C396 C397 1.363 . S
C396 C402 1.379 1_554 S
C396 N404 1.356 . S
C397 C396 1.363 . S
C397 C403 1.363 . S
C398 C399 1.363 . S
C398 C403 1.379 1_556 S
C398 N405 1.356 . S
C399 C398 1.363 . S
C399 C402 1.363 . S
N400 C402 1.356 . S
N400 H412 0.984 . S
N400 H413 0.985 . S
N401 C403 1.356 . S
N401 H406 0.984 . S
N401 H407 0.985 . S
C402 C396 1.379 1_556 S
C402 C399 1.363 . S
C402 N400 1.356 . S
C403 C397 1.363 . S
C403 C398 1.379 1_554 S
C403 N401 1.356 . S
N404 C396 1.356 . S
N404 H410 0.984 1_554 S
N404 H411 0.984 . S
N405 C398 1.356 . S
N405 H408 0.984 . S
N405 H409 0.985 1_556 S
H406 N401 0.984 . S
H407 N401 0.985 . S
H408 N405 0.984 . S
H409 N405 0.985 1_554 S
H410 N404 0.984 1_556 S
H411 N404 0.984 . S
H412 N400 0.984 . S
H413 N400 0.985 . S
C414 C415 1.363 . S
C414 C420 1.379 . S
C414 N422 1.356 . S
C415 C414 1.363 . S
C415 C421 1.363 . S
C416 C417 1.363 . S
C416 C421 1.379 . S
C416 N423 1.356 . S
C417 C416 1.363 . S
C417 C420 1.363 . S
N418 C420 1.356 . S
N418 H430 0.984 . S
N418 H431 0.985 . S
N419 C421 1.356 . S
N419 H424 0.984 . S
N419 H425 0.985 . S
C420 C414 1.379 . S
C420 C417 1.363 . S
C420 N418 1.356 . S
C421 C415 1.363 . S
C421 C416 1.379 . S
C421 N419 1.356 . S
N422 C414 1.356 . S
N422 H428 0.984 . S
N422 H429 0.984 . S
N423 C416 1.356 . S
N423 H426 0.984 . S
N423 H427 0.985 . S
H424 N419 0.984 . S
H425 N419 0.985 . S
H426 N423 0.984 . S
H427 N423 0.985 . S
H428 N422 0.984 . S
H429 N422 0.984 . S
H430 N418 0.984 . S
H431 N418 0.985 . S
C432 C433 1.363 . S
C432 C438 1.379 1_554 S
C432 N440 1.356 . S
C433 C432 1.363 . S
C433 C439 1.363 . S
C434 C435 1.363 . S
C434 C439 1.379 1_556 S
C434 N441 1.356 . S
C435 C434 1.363 . S
C435 C438 1.363 . S
N436 C438 1.356 . S
N436 H448 0.980 1_556 S
N436 H449 0.985 . S
N437 C439 1.356 . S
N437 H442 0.984 . S
N437 H443 0.981 1_554 S
C438 C432 1.379 1_556 S
C438 C435 1.363 . S
C438 N436 1.356 . S
C439 C433 1.363 . S
C439 C434 1.379 1_554 S
C439 N437 1.356 . S
N440 C432 1.356 . S
N440 H446 0.984 . S
N440 H447 0.984 . S
N441 C434 1.356 . S
N441 H444 0.984 . S
N441 H445 0.985 . S
H442 N437 0.984 . S
H443 N437 0.981 1_556 S
H444 N441 0.984 . S
H445 N441 0.985 . S
H446 N440 0.984 . S
H447 N440 0.984 . S
H448 N436 0.980 1_554 S
H449 N436 0.985 . S
C450 C451 1.363 . S
C450 C456 1.379 . S
C450 N458 1.356 . S
C451 C450 1.363 . S
C451 C457 1.363 . S
C452 C453 1.363 . S
C452 C457 1.379 . S
C452 N459 1.356 . S
C453 C452 1.363 . S
C453 C456 1.363 . S
N454 C456 1.356 . S
N454 H466 0.984 . S
N454 H467 0.985 . S
N455 C457 1.356 . S
N455 H460 0.984 . S
N455 H461 0.985 . S
C456 C450 1.379 . S
C456 C453 1.363 . S
C456 N454 1.356 . S
C457 C451 1.363 . S
C457 C452 1.379 . S
C457 N455 1.356 . S
N458 C450 1.356 . S
N458 H464 0.984 . S
N458 H465 0.984 . S
N459 C452 1.356 . S
N459 H462 0.984 . S
N459 H463 0.985 . S
H460 N455 0.984 . S
H461 N455 0.985 . S
H462 N459 0.984 . S
H463 N459 0.985 . S
H464 N458 0.984 . S
H465 N458 0.984 . S
H466 N454 0.984 . S
H467 N454 0.985 . S
C468 C469 1.363 . S
C468 C474 1.379 . S
C468 N476 1.356 . S
C469 C468 1.363 . S
C469 C475 1.363 1_554 S
C470 C471 1.363 . S
C470 C475 1.379 . S
C470 N477 1.356 . S
C471 C470 1.363 . S
C471 C474 1.363 1_556 S
N472 C474 1.356 1_556 S
N472 H484 0.984 1_556 S
N472 H485 0.985 . S
N473 C475 1.356 1_554 S
N473 H478 0.984 . S
N473 H479 0.985 1_554 S
C474 C468 1.379 . S
C474 C471 1.363 1_554 S
C474 N472 1.356 1_554 S
C475 C469 1.363 1_556 S
C475 C470 1.379 . S
C475 N473 1.356 1_556 S
N476 C468 1.356 . S
N476 H482 0.984 . S
N476 H483 0.984 . S
N477 C470 1.356 . S
N477 H480 0.984 . S
N477 H481 0.985 . S
H478 N473 0.984 . S
H479 N473 0.985 1_556 S
H480 N477 0.984 . S
H481 N477 0.985 . S
H482 N476 0.984 . S
H483 N476 0.984 . S
H484 N472 0.984 1_554 S
H485 N472 0.985 . S
C486 C487 1.363 . S
C486 C492 1.379 . S
C486 N494 1.356 . S
C487 C486 1.363 . S
C487 C493 1.363 . S
C488 C489 1.363 . S
C488 C493 1.379 . S
C488 N495 1.356 . S
C489 C488 1.363 . S
C489 C492 1.363 . S
N490 C492 1.356 . S
N490 H502 0.984 . S
N490 H503 0.985 . S
N491 C493 1.356 . S
N491 H496 0.984 . S
N491 H497 0.985 . S
C492 C486 1.379 . S
C492 C489 1.363 . S
C492 N490 1.356 . S
C493 C487 1.363 . S
C493 C488 1.379 . S
C493 N491 1.356 . S
N494 C486 1.356 . S
N494 H500 0.984 . S
N494 H501 0.984 . S
N495 C488 1.356 . S
N495 H498 0.984 . S
N495 H499 0.985 . S
H496 N491 0.984 . S
H497 N491 0.985 . S
H498 N495 0.984 . S
H499 N495 0.985 . S
H500 N494 0.984 . S
H501 N494 0.984 . S
H502 N490 0.984 . S
H503 N490 0.985 . S
C504 C505 1.363 1_556 S
C504 C510 1.379 . S
C504 N512 1.355 1_556 S
C505 C504 1.363 1_554 S
C505 C511 1.363 . S
C506 C507 1.363 1_554 S
C506 C511 1.379 . S
C506 N513 1.355 1_554 S
C507 C506 1.363 1_556 S
C507 C510 1.363 . S
N508 C510 1.356 . S
N508 H520 0.984 . S
N508 H521 0.985 . S
N509 C511 1.356 . S
N509 H514 0.984 . S
N509 H515 0.985 . S
C510 C504 1.379 . S
C510 C507 1.363 . S
C510 N508 1.356 . S
C511 C505 1.363 . S
C511 C506 1.379 . S
C511 N509 1.356 . S
N512 C504 1.355 1_554 S
N512 H518 0.977 1_554 S
N512 H519 0.993 . S
N513 C506 1.355 1_556 S
N513 H516 0.993 . S
N513 H517 0.977 1_556 S
H514 N509 0.984 . S
H515 N509 0.985 . S
H516 N513 0.993 . S
H517 N513 0.977 1_554 S
H518 N512 0.977 1_556 S
H519 N512 0.993 . S
H520 N508 0.984 . S
H521 N508 0.985 . S
C522 C523 1.363 . S
C522 C528 1.379 . S
C522 N530 1.356 . S
C523 C522 1.363 . S
C523 C529 1.363 . S
C524 C525 1.363 . S
C524 C529 1.379 . S
C524 N531 1.356 . S
C525 C524 1.363 . S
C525 C528 1.363 . S
N526 C528 1.356 . S
N526 H538 0.984 . S
N526 H539 0.985 . S
N527 C529 1.356 . S
N527 H532 0.984 . S
N527 H533 0.985 . S
C528 C522 1.379 . S
C528 C525 1.363 . S
C528 N526 1.356 . S
C529 C523 1.363 . S
C529 C524 1.379 . S
C529 N527 1.356 . S
N530 C522 1.356 . S
N530 H536 0.984 . S
N530 H537 0.984 . S
N531 C524 1.356 . S
N531 H534 0.984 . S
N531 H535 0.985 . S
H532 N527 0.984 . S
H533 N527 0.985 . S
H534 N531 0.984 . S
H535 N531 0.985 . S
H536 N530 0.984 . S
H537 N530 0.984 . S
H538 N526 0.984 . S
H539 N526 0.985 . S
C540 C541 1.363 . S
C540 C546 1.379 . S
C540 N548 1.356 . S
C541 C540 1.363 . S
C541 C547 1.363 1_554 S
C542 C543 1.363 . S
C542 C547 1.379 . S
C542 N549 1.356 . S
C543 C542 1.363 . S
C543 C546 1.363 1_556 S
N544 C546 1.355 1_556 S
N544 H556 0.976 1_556 S
N544 H557 0.995 . S
N545 C547 1.354 1_554 S
N545 H550 0.996 . S
N545 H551 0.975 1_554 S
C546 C540 1.379 . S
C546 C543 1.363 1_554 S
C546 N544 1.355 1_554 S
C547 C541 1.363 1_556 S
C547 C542 1.379 . S
C547 N545 1.354 1_556 S
N548 C540 1.356 . S
N548 H554 0.984 . S
N548 H555 0.984 . S
N549 C542 1.356 . S
N549 H552 0.984 . S
N549 H553 0.985 . S
H550 N545 0.996 . S
H551 N545 0.975 1_556 S
H552 N549 0.984 . S
H553 N549 0.985 . S
H554 N548 0.984 . S
H555 N548 0.984 . S
H556 N544 0.976 1_554 S
H557 N544 0.995 . S
C558 C559 1.363 . S
C558 C564 1.379 . S
C558 N566 1.356 . S
C559 C558 1.363 . S
C559 C565 1.363 . S
C560 C561 1.363 . S
C560 C565 1.379 . S
C560 N567 1.356 . S
C561 C560 1.363 . S
C561 C564 1.363 . S
N562 C564 1.356 . S
N562 H574 0.984 . S
N562 H575 0.985 . S
N563 C565 1.356 . S
N563 H568 0.984 . S
N563 H569 0.985 . S
C564 C558 1.379 . S
C564 C561 1.363 . S
C564 N562 1.356 . S
C565 C559 1.363 . S
C565 C560 1.379 . S
C565 N563 1.356 . S
N566 C558 1.356 . S
N566 H572 0.984 . S
N566 H573 0.984 . S
N567 C560 1.356 . S
N567 H570 0.984 . S
N567 H571 0.985 . S
H568 N563 0.984 . S
H569 N563 0.985 . S
H570 N567 0.984 . S
H571 N567 0.985 . S
H572 N566 0.984 . S
H573 N566 0.984 . S
H574 N562 0.984 . S
H575 N562 0.985 . S
C576 C577 1.363 . S
C576 C582 1.379 . S
C576 N584 1.356 . S
C577 C576 1.363 . S
C577 C583 1.363 1_554 S
C578 C579 1.363 . S
C578 C583 1.379 . S
C578 N585 1.356 . S
C579 C578 1.363 . S
C579 C582 1.363 1_556 S
N580 C582 1.356 . S
N580 H592 0.984 . S
N580 H593 0.985 1_554 S
N581 C583 1.356 . S
N581 H586 0.984 1_556 S
N581 H587 0.985 . S
C582 C576 1.379 . S
C582 C579 1.363 1_554 S
C582 N580 1.356 . S
C583 C577 1.363 1_556 S
C583 C578 1.379 . S
C583 N581 1.356 . S
N584 C576 1.356 . S
N584 H590 0.984 . S
N584 H591 0.984 . S
N585 C578 1.356 . S
N585 H588 0.984 . S
N585 H589 0.985 . S
H586 N581 0.984 1_554 S
H587 N581 0.985 . S
H588 N585 0.984 . S
H589 N585 0.985 . S
H590 N584 0.984 . S
H591 N584 0.984 . S
H592 N580 0.984 . S
H593 N580 0.985 1_556 S
C594 C595 1.363 . S
C594 C600 1.379 . S
C594 N602 1.356 . S
C595 C594 1.363 . S
C595 C601 1.363 . S
C596 C597 1.363 . S
C596 C601 1.379 . S
C596 N603 1.356 . S
C597 C596 1.363 . S
C597 C600 1.363 . S
N598 C600 1.356 . S
N598 H610 0.984 . S
N598 H611 0.985 . S
N599 C601 1.356 . S
N599 H604 0.984 . S
N599 H605 0.985 . S
C600 C594 1.379 . S
C600 C597 1.363 . S
C600 N598 1.356 . S
C601 C595 1.363 . S
C601 C596 1.379 . S
C601 N599 1.356 . S
N602 C594 1.356 . S
N602 H608 0.984 . S
N602 H609 0.984 . S
N603 C596 1.356 . S
N603 H606 0.984 . S
N603 H607 0.985 . S
H604 N599 0.984 . S
H605 N599 0.985 . S
H606 N603 0.984 . S
H607 N603 0.985 . S
H608 N602 0.984 . S
H609 N602 0.984 . S
H610 N598 0.984 . S
H611 N598 0.985 . S
C612 C613 1.363 1_554 S
C612 C618 1.379 . S
C612 N620 1.356 1_554 S
C613 C612 1.363 1_556 S
C613 C619 1.363 . S
C614 C615 1.363 1_556 S
C614 C619 1.379 . S
C614 N621 1.356 1_556 S
C615 C614 1.363 1_554 S
C615 C618 1.363 . S
N616 C618 1.356 . S
N616 H628 0.984 . S
N616 H629 0.985 . S
N617 C619 1.356 . S
N617 H622 0.984 . S
N617 H623 0.985 . S
C618 C612 1.379 . S
C618 C615 1.363 . S
C618 N616 1.356 . S
C619 C613 1.363 . S
C619 C614 1.379 . S
C619 N617 1.356 . S
N620 C612 1.356 1_556 S
N620 H626 0.984 1_556 S
N620 H627 0.984 . S
N621 C614 1.356 1_554 S
N621 H624 0.984 . S
N621 H625 0.985 1_554 S
H622 N617 0.984 . S
H623 N617 0.985 . S
H624 N621 0.984 . S
H625 N621 0.985 1_556 S
H626 N620 0.984 1_554 S
H627 N620 0.984 . S
H628 N616 0.984 . S
H629 N616 0.985 . S
C630 C631 1.363 . S
C630 C636 1.379 . S
C630 N638 1.356 . S
C631 C630 1.363 . S
C631 C637 1.363 . S
C632 C633 1.363 . S
C632 C637 1.379 . S
C632 N639 1.356 . S
C633 C632 1.363 . S
C633 C636 1.363 . S
N634 C636 1.356 . S
N634 H646 0.984 . S
N634 H647 0.985 . S
N635 C637 1.356 . S
N635 H640 0.984 . S
N635 H641 0.985 . S
C636 C630 1.379 . S
C636 C633 1.363 . S
C636 N634 1.356 . S
C637 C631 1.363 . S
C637 C632 1.379 . S
C637 N635 1.356 . S
N638 C630 1.356 . S
N638 H644 0.984 . S
N638 H645 0.984 . S
N639 C632 1.356 . S
N639 H642 0.984 . S
N639 H643 0.985 . S
H640 N635 0.984 . S
H641 N635 0.985 . S
H642 N639 0.984 . S
H643 N639 0.985 . S
H644 N638 0.984 . S
H645 N638 0.984 . S
H646 N634 0.984 . S
H647 N634 0.985 . S
C648 C649 1.363 1_556 S
C648 C654 1.379 . S
C648 N656 1.356 . S
C649 C648 1.363 1_554 S
C649 C655 1.363 . S
C650 C651 1.363 1_554 S
C650 C655 1.379 . S
C650 N657 1.356 . S
C651 C650 1.363 1_556 S
C651 C654 1.363 . S
N652 C654 1.356 . S
N652 H664 0.984 . S
N652 H665 0.985 . S
N653 C655 1.356 . S
N653 H658 0.984 . S
N653 H659 0.985 . S
C654 C648 1.379 . S
C654 C651 1.363 . S
C654 N652 1.356 . S
C655 C649 1.363 . S
C655 C650 1.379 . S
C655 N653 1.356 . S
N656 C648 1.356 . S
N656 H662 0.984 . S
N656 H663 0.984 1_556 S
N657 C650 1.356 . S
N657 H660 0.984 1_554 S
N657 H661 0.985 . S
H658 N653 0.984 . S
H659 N653 0.985 . S
H660 N657 0.984 1_556 S
H661 N657 0.985 . S
H662 N656 0.984 . S
H663 N656 0.984 1_554 S
H664 N652 0.984 . S
H665 N652 0.985 . S
C666 C667 1.363 . S
C666 C672 1.379 . S
C666 N674 1.356 . S
C667 C666 1.363 . S
C667 C673 1.363 . S
C668 C669 1.363 . S
C668 C673 1.379 . S
C668 N675 1.356 . S
C669 C668 1.363 . S
C669 C672 1.363 . S
N670 C672 1.356 . S
N670 H682 0.984 . S
N670 H683 0.985 . S
N671 C673 1.356 . S
N671 H676 0.984 . S
N671 H677 0.985 . S
C672 C666 1.379 . S
C672 C669 1.363 . S
C672 N670 1.356 . S
C673 C667 1.363 . S
C673 C668 1.379 . S
C673 N671 1.356 . S
N674 C666 1.356 . S
N674 H680 0.984 . S
N674 H681 0.984 . S
N675 C668 1.356 . S
N675 H678 0.984 . S
N675 H679 0.985 . S
H676 N671 0.984 . S
H677 N671 0.985 . S
H678 N675 0.984 . S
H679 N675 0.985 . S
H680 N674 0.984 . S
H681 N674 0.984 . S
H682 N670 0.984 . S
H683 N670 0.985 . S
C684 C685 1.363 1_556 S
C684 C690 1.379 . S
C684 N692 1.356 . S
C685 C684 1.363 1_554 S
C685 C691 1.363 . S
C686 C687 1.363 1_554 S
C686 C691 1.379 . S
C686 N693 1.356 . S
C687 C686 1.363 1_556 S
C687 C690 1.363 . S
N688 C690 1.356 . S
N688 H700 0.984 . S
N688 H701 0.985 . S
N689 C691 1.356 . S
N689 H694 0.984 . S
N689 H695 0.985 . S
C690 C684 1.379 . S
C690 C687 1.363 . S
C690 N688 1.356 . S
C691 C685 1.363 . S
C691 C686 1.379 . S
C691 N689 1.356 . S
N692 C684 1.356 . S
N692 H698 0.984 . S
N692 H699 0.984 1_556 S
N693 C686 1.356 . S
N693 H696 0.984 1_554 S
N693 H697 0.985 . S
H694 N689 0.984 . S
H695 N689 0.985 . S
H696 N693 0.984 1_556 S
H697 N693 0.985 . S
H698 N692 0.984 . S
H699 N692 0.984 1_554 S
H700 N688 0.984 . S
H701 N688 0.985 . S
C702 C703 1.363 . S
C702 C708 1.379 . S
C702 N710 1.356 . S
C703 C702 1.363 . S
C703 C709 1.363 . S
C704 C705 1.363 . S
C704 C709 1.379 . S
C704 N711 1.356 . S
C705 C704 1.363 . S
C705 C708 1.363 . S
N706 C708 1.356 . S
N706 H718 0.984 . S
N706 H719 0.985 . S
N707 C709 1.356 . S
N707 H712 0.984 . S
N707 H713 0.985 . S
C708 C702 1.379 . S
C708 C705 1.363 . S
C708 N706 1.356 . S
C709 C703 1.363 . S
C709 C704 1.379 . S
C709 N707 1.356 . S
N710 C702 1.356 . S
N710 H716 0.984 . S
N710 H717 0.984 . S
N711 C704 1.356 . S
N711 H714 0.984 . S
N711 H715 0.985 . S
H712 N707 0.984 . S
H713 N707 0.985 . S
H714 N711 0.984 . S
H715 N711 0.985 . S
H716 N710 0.984 . S
H717 N710 0.984 . S
H718 N706 0.984 . S
H719 N706 0.985 . S
C720 C721 1.363 . S
C720 C726 1.379 1_556 S
C720 N728 1.356 . S
C721 C720 1.363 . S
C721 C727 1.363 . S
C722 C723 1.363 . S
C722 C727 1.379 1_554 S
C722 N729 1.356 . S
C723 C722 1.363 . S
C723 C726 1.363 . S
N724 C726 1.356 . S
N724 H736 0.984 . S
N724 H737 0.985 . S
N725 C727 1.356 . S
N725 H730 0.984 . S
N725 H731 0.985 . S
C726 C720 1.379 1_554 S
C726 C723 1.363 . S
C726 N724 1.356 . S
C727 C721 1.363 . S
C727 C722 1.379 1_556 S
C727 N725 1.356 . S
N728 C720 1.356 . S
N728 H734 0.984 . S
N728 H735 0.984 . S
N729 C722 1.356 . S
N729 H732 0.984 . S
N729 H733 0.985 . S
H730 N725 0.984 . S
H731 N725 0.985 . S
H732 N729 0.984 . S
H733 N729 0.985 . S
H734 N728 0.984 . S
H735 N728 0.984 . S
H736 N724 0.984 . S
H737 N724 0.985 . S
C738 C739 1.363 . S
C738 C744 1.379 . S
C738 N746 1.356 . S
C739 C738 1.363 . S
C739 C745 1.363 . S
C740 C741 1.363 . S
C740 C745 1.379 . S
C740 N747 1.356 . S
C741 C740 1.363 . S
C741 C744 1.363 . S
N742 C744 1.356 . S
N742 H754 0.984 . S
N742 H755 0.985 . S
N743 C745 1.356 . S
N743 H748 0.984 . S
N743 H749 0.985 . S
C744 C738 1.379 . S
C744 C741 1.363 . S
C744 N742 1.356 . S
C745 C739 1.363 . S
C745 C740 1.379 . S
C745 N743 1.356 . S
N746 C738 1.356 . S
N746 H752 0.984 . S
N746 H753 0.984 . S
N747 C740 1.356 . S
N747 H750 0.984 . S
N747 H751 0.985 . S
H748 N743 0.984 . S
H749 N743 0.985 . S
H750 N747 0.984 . S
H751 N747 0.985 . S
H752 N746 0.984 . S
H753 N746 0.984 . S
H754 N742 0.984 . S
H755 N742 0.985 . S
C756 C757 1.363 . S
C756 C762 1.379 1_554 S
C756 N764 1.356 . S
C757 C756 1.363 . S
C757 C763 1.363 . S
C758 C759 1.363 . S
C758 C763 1.379 1_556 S
C758 N765 1.356 . S
C759 C758 1.363 . S
C759 C762 1.363 . S
N760 C762 1.356 . S
N760 H772 0.984 . S
N760 H773 0.985 . S
N761 C763 1.356 . S
N761 H766 0.984 . S
N761 H767 0.985 . S
C762 C756 1.379 1_556 S
C762 C759 1.363 . S
C762 N760 1.356 . S
C763 C757 1.363 . S
C763 C758 1.379 1_554 S
C763 N761 1.356 . S
N764 C756 1.356 . S
N764 H770 0.984 . S
N764 H771 0.984 . S
N765 C758 1.356 . S
N765 H768 0.984 . S
N765 H769 0.985 . S
H766 N761 0.984 . S
H767 N761 0.985 . S
H768 N765 0.984 . S
H769 N765 0.985 . S
H770 N764 0.984 . S
H771 N764 0.984 . S
H772 N760 0.984 . S
H773 N760 0.985 . S
C774 C775 1.363 . S
C774 C780 1.379 . S
C774 N782 1.356 . S
C775 C774 1.363 . S
C775 C781 1.363 . S
C776 C777 1.363 . S
C776 C781 1.379 . S
C776 N783 1.356 . S
C777 C776 1.363 . S
C777 C780 1.363 . S
N778 C780 1.356 . S
N778 H790 0.984 . S
N778 H791 0.985 . S
N779 C781 1.356 . S
N779 H784 0.984 . S
N779 H785 0.985 . S
C780 C774 1.379 . S
C780 C777 1.363 . S
C780 N778 1.356 . S
C781 C775 1.363 . S
C781 C776 1.379 . S
C781 N779 1.356 . S
N782 C774 1.356 . S
N782 H788 0.984 . S
N782 H789 0.984 . S
N783 C776 1.356 . S
N783 H786 0.984 . S
N783 H787 0.985 . S
H784 N779 0.984 . S
H785 N779 0.985 . S
H786 N783 0.984 . S
H787 N783 0.985 . S
H788 N782 0.984 . S
H789 N782 0.984 . S
H790 N778 0.984 . S
H791 N778 0.985 . S
C792 C793 1.363 . S
C792 C798 1.379 1_554 S
C792 N800 1.356 . S
C793 C792 1.363 . S
C793 C799 1.363 . S
C794 C795 1.363 . S
C794 C799 1.379 1_556 S
C794 N801 1.356 . S
C795 C794 1.363 . S
C795 C798 1.363 . S
N796 C798 1.356 . S
N796 H808 0.984 . S
N796 H809 0.985 . S
N797 C799 1.356 . S
N797 H802 0.984 . S
N797 H803 0.985 . S
C798 C792 1.379 1_556 S
C798 C795 1.363 . S
C798 N796 1.356 . S
C799 C793 1.363 . S
C799 C794 1.379 1_554 S
C799 N797 1.356 . S
N800 C792 1.356 . S
N800 H806 0.984 . S
N800 H807 0.984 . S
N801 C794 1.356 . S
N801 H804 0.984 . S
N801 H805 0.985 . S
H802 N797 0.984 . S
H803 N797 0.985 . S
H804 N801 0.984 . S
H805 N801 0.985 . S
H806 N800 0.984 . S
H807 N800 0.984 . S
H808 N796 0.984 . S
H809 N796 0.985 . S
C810 C811 1.363 . S
C810 C816 1.379 . S
C810 N818 1.356 . S
C811 C810 1.363 . S
C811 C817 1.363 . S
C812 C813 1.363 . S
C812 C817 1.379 . S
C812 N819 1.356 . S
C813 C812 1.363 . S
C813 C816 1.363 . S
N814 C816 1.356 . S
N814 H826 0.984 . S
N814 H827 0.985 . S
N815 C817 1.356 . S
N815 H820 0.984 . S
N815 H821 0.985 . S
C816 C810 1.379 . S
C816 C813 1.363 . S
C816 N814 1.356 . S
C817 C811 1.363 . S
C817 C812 1.379 . S
C817 N815 1.356 . S
N818 C810 1.356 . S
N818 H824 0.984 . S
N818 H825 0.984 . S
N819 C812 1.356 . S
N819 H822 0.984 . S
N819 H823 0.985 . S
H820 N815 0.984 . S
H821 N815 0.985 . S
H822 N819 0.984 . S
H823 N819 0.985 . S
H824 N818 0.984 . S
H825 N818 0.984 . S
H826 N814 0.984 . S
H827 N814 0.985 . S
C828 C829 1.363 . S
C828 C834 1.379 . S
C828 N836 1.356 . S
C829 C828 1.363 . S
C829 C835 1.363 . S
C830 C831 1.363 . S
C830 C835 1.379 . S
C830 N837 1.356 . S
C831 C830 1.363 . S
C831 C834 1.363 . S
N832 C834 1.356 . S
N832 H844 0.984 . S
N832 H845 0.985 . S
N833 C835 1.356 . S
N833 H838 0.984 . S
N833 H839 0.985 . S
C834 C828 1.379 . S
C834 C831 1.363 . S
C834 N832 1.356 . S
C835 C829 1.363 . S
C835 C830 1.379 . S
C835 N833 1.356 . S
N836 C828 1.356 . S
N836 H842 0.984 . S
N836 H843 0.984 . S
N837 C830 1.356 . S
N837 H840 0.984 . S
N837 H841 0.985 . S
H838 N833 0.984 . S
H839 N833 0.985 . S
H840 N837 0.984 . S
H841 N837 0.985 . S
H842 N836 0.984 . S
H843 N836 0.984 . S
H844 N832 0.984 . S
H845 N832 0.985 . S
C846 C847 1.363 . S
C846 C852 1.379 1_455 S
C846 N854 1.356 . S
C847 C846 1.363 . S
C847 C853 1.363 . S
C848 C849 1.363 . S
C848 C853 1.379 1_655 S
C848 N855 1.356 . S
C849 C848 1.363 . S
C849 C852 1.363 . S
N850 C852 1.356 . S
N850 H862 0.984 . S
N850 H863 0.985 . S
N851 C853 1.356 . S
N851 H856 0.984 . S
N851 H857 0.985 . S
C852 C846 1.379 1_655 S
C852 C849 1.363 . S
C852 N850 1.356 . S
C853 C847 1.363 . S
C853 C848 1.379 1_455 S
C853 N851 1.356 . S
N854 C846 1.356 . S
N854 H860 0.984 . S
N854 H861 0.984 . S
N855 C848 1.356 . S
N855 H858 0.984 . S
N855 H859 0.985 . S
H856 N851 0.984 . S
H857 N851 0.985 . S
H858 N855 0.984 . S
H859 N855 0.985 . S
H860 N854 0.984 . S
H861 N854 0.984 . S
H862 N850 0.984 . S
H863 N850 0.985 . S
C864 C865 1.363 . S
C864 C870 1.379 1_545 S
C864 N872 1.356 . S
C865 C864 1.363 . S
C865 C871 1.363 . S
C866 C867 1.363 . S
C866 C871 1.379 1_565 S
C866 N873 1.356 . S
C867 C866 1.363 . S
C867 C870 1.363 . S
N868 C870 1.356 . S
N868 H880 0.984 . S
N868 H881 0.985 . S
N869 C871 1.356 . S
N869 H874 0.984 . S
N869 H875 0.985 . S
C870 C864 1.379 1_565 S
C870 C867 1.363 . S
C870 N868 1.356 . S
C871 C865 1.363 . S
C871 C866 1.379 1_545 S
C871 N869 1.356 . S
N872 C864 1.356 . S
N872 H878 0.984 . S
N872 H879 0.984 . S
N873 C866 1.356 . S
N873 H876 0.984 . S
N873 H877 0.985 . S
H874 N869 0.984 . S
H875 N869 0.985 . S
H876 N873 0.984 . S
H877 N873 0.985 . S
H878 N872 0.984 . S
H879 N872 0.984 . S
H880 N868 0.984 . S
H881 N868 0.985 . S
C882 C883 1.363 . S
C882 C888 1.379 . S
C882 N890 1.356 . S
C883 C882 1.363 . S
C883 C889 1.363 . S
C884 C885 1.363 . S
C884 C889 1.379 . S
C884 N891 1.356 . S
C885 C884 1.363 . S
C885 C888 1.363 . S
N886 C888 1.356 . S
N886 H898 0.984 . S
N886 H899 0.985 . S
N887 C889 1.356 . S
N887 H892 0.984 . S
N887 H893 0.985 . S
C888 C882 1.379 . S
C888 C885 1.363 . S
C888 N886 1.356 . S
C889 C883 1.363 . S
C889 C884 1.379 . S
C889 N887 1.356 . S
N890 C882 1.356 . S
N890 H896 0.984 . S
N890 H897 0.984 . S
N891 C884 1.356 . S
N891 H894 0.984 . S
N891 H895 0.985 . S
H892 N887 0.984 . S
H893 N887 0.985 . S
H894 N891 0.984 . S
H895 N891 0.985 . S
H896 N890 0.984 . S
H897 N890 0.984 . S
H898 N886 0.984 . S
H899 N886 0.985 . S
C900 C901 1.363 . S
C900 C906 1.379 1_455 S
C900 N908 1.356 . S
C901 C900 1.363 . S
C901 C907 1.363 . S
C902 C903 1.363 . S
C902 C907 1.379 1_655 S
C902 N909 1.356 . S
C903 C902 1.363 . S
C903 C906 1.363 . S
N904 C906 1.356 . S
N904 H916 0.984 . S
N904 H917 0.985 . S
N905 C907 1.356 . S
N905 H910 0.984 . S
N905 H911 0.985 . S
C906 C900 1.379 1_655 S
C906 C903 1.363 . S
C906 N904 1.356 . S
C907 C901 1.363 . S
C907 C902 1.379 1_455 S
C907 N905 1.356 . S
N908 C900 1.356 . S
N908 H914 0.984 . S
N908 H915 0.984 . S
N909 C902 1.356 . S
N909 H912 0.984 . S
N909 H913 0.985 . S
H910 N905 0.984 . S
H911 N905 0.985 . S
H912 N909 0.984 . S
H913 N909 0.985 . S
H914 N908 0.984 . S
H915 N908 0.984 . S
H916 N904 0.984 . S
H917 N904 0.985 . S
C918 C919 1.363 . S
C918 C924 1.379 1_565 S
C918 N926 1.356 . S
C919 C918 1.363 . S
C919 C925 1.363 . S
C920 C921 1.363 . S
C920 C925 1.379 1_545 S
C920 N927 1.356 . S
C921 C920 1.363 . S
C921 C924 1.363 . S
N922 C924 1.356 . S
N922 H934 0.984 . S
N922 H935 0.985 . S
N923 C925 1.356 . S
N923 H928 0.984 . S
N923 H929 0.985 . S
C924 C918 1.379 1_545 S
C924 C921 1.363 . S
C924 N922 1.356 . S
C925 C919 1.363 . S
C925 C920 1.379 1_565 S
C925 N923 1.356 . S
N926 C918 1.356 . S
N926 H932 0.984 . S
N926 H933 0.984 . S
N927 C920 1.356 . S
N927 H930 0.984 . S
N927 H931 0.985 . S
H928 N923 0.984 . S
H929 N923 0.985 . S
H930 N927 0.984 . S
H931 N927 0.985 . S
H932 N926 0.984 . S
H933 N926 0.984 . S
H934 N922 0.984 . S
H935 N922 0.985 . S
C397 C8 2.352 . S
C399 C206 2.352 . S
C415 C41 2.352 . S
C417 C239 2.352 . S
C433 C74 2.352 . S
C435 C272 2.352 . S
C451 C305 2.352 . S
C453 C107 2.352 . S
C469 C140 2.352 . S
C471 C338 2.352 . S
C487 C371 2.352 . S
C489 C173 2.352 . S
C505 N302 0.892 . S
C507 N104 0.892 . S
C523 N137 0.892 . S
C525 N335 0.892 . S
C541 N368 0.892 . S
C543 N170 0.892 . S
C559 N203 0.892 . S
C561 N5 0.892 . S
C577 N236 0.892 . S
C579 N38 0.892 . S
C595 N71 0.892 . S
C597 N269 0.892 . S
C613 N344 0.933 . S
C615 N14 0.933 . S
C631 N47 0.933 . S
C633 N377 0.933 . S
C649 N80 0.933 . S
C651 N212 0.933 . S
C667 N113 0.933 . S
C669 N245 0.933 . S
C685 N146 0.933 . S
C687 N278 0.933 . S
C703 N179 0.933 . S
C705 N311 0.933 . S
C721 C127 1.962 . S
C723 C259 1.962 . S
C739 C160 1.963 . S
C741 C292 1.963 . S
C757 C325 1.962 . S
C759 C193 1.962 . S
C775 C28 1.962 . S
C777 C358 1.962 . S
C793 C391 1.963 . S
C795 C61 1.963 . S
C811 C94 1.962 . S
C813 C226 1.962 . S
C829 C17 1.394 . S
C831 C314 1.394 . S
C847 C347 1.394 . S
C849 C50 1.394 . S
C865 C380 1.394 . S
C867 C83 1.394 . S
C883 C215 1.394 . S
C885 C116 1.394 . S
C901 C149 1.394 . S
C903 C248 1.394 . S
C919 C281 1.394 . S
C921 C182 1.394 . S
