# Generated by pormake.
# Topology snl, (6)-cn, num edge types: 1
# Building blocks:
#     Node 0, Type 0, BuildingBlock: KUMBOL_clean_sbu_1, # of connection points: 6
#     Node 1, Type 0, BuildingBlock: KUMBOL_clean_sbu_1, # of connection points: 6
#     Node 2, Type 0, BuildingBlock: KUMBOL_clean_sbu_1, # of connection points: 6
#     Node 3, Type 0, BuildingBlock: KUMBOL_clean_sbu_1, # of connection points: 6
#     Node 4, Type 0, BuildingBlock: KUMBOL_clean_sbu_1, # of connection points: 6
#     Node 5, Type 0, BuildingBlock: KUMBOL_clean_sbu_1, # of connection points: 6
#     Node 6, Type 0, BuildingBlock: KUMBOL_clean_sbu_1, # of connection points: 6
#     Node 7, Type 0, BuildingBlock: KUMBOL_clean_sbu_1, # of connection points: 6
#     Node 8, Type 0, BuildingBlock: KUMBOL_clean_sbu_1, # of connection points: 6
#     Node 9, Type 0, BuildingBlock: KUMBOL_clean_sbu_1, # of connection points: 6
#     Node 10, Type 0, BuildingBlock: KUMBOL_clean_sbu_1, # of connection points: 6
#     Node 11, Type 0, BuildingBlock: KUMBOL_clean_sbu_1, # of connection points: 6
#     Node 12, Type 0, BuildingBlock: KUMBOL_clean_sbu_1, # of connection points: 6
#     Node 13, Type 0, BuildingBlock: KUMBOL_clean_sbu_1, # of connection points: 6
#     Node 14, Type 0, BuildingBlock: KUMBOL_clean_sbu_1, # of connection points: 6
#     Node 15, Type 0, BuildingBlock: KUMBOL_clean_sbu_1, # of connection points: 6
#     Edge 16, Type (0, 0), BuildingBlock: EZIPEK_clean_linker_0, # of connection points: 2
#     Edge 17, Type (0, 0), BuildingBlock: EZIPEK_clean_linker_0, # of connection points: 2
#     Edge 18, Type (0, 0), BuildingBlock: EZIPEK_clean_linker_0, # of connection points: 2
#     Edge 19, Type (0, 0), BuildingBlock: EZIPEK_clean_linker_0, # of connection points: 2
#     Edge 20, Type (0, 0), BuildingBlock: EZIPEK_clean_linker_0, # of connection points: 2
#     Edge 21, Type (0, 0), BuildingBlock: EZIPEK_clean_linker_0, # of connection points: 2
#     Edge 22, Type (0, 0), BuildingBlock: EZIPEK_clean_linker_0, # of connection points: 2
#     Edge 23, Type (0, 0), BuildingBlock: EZIPEK_clean_linker_0, # of connection points: 2
#     Edge 24, Type (0, 0), BuildingBlock: EZIPEK_clean_linker_0, # of connection points: 2
#     Edge 25, Type (0, 0), BuildingBlock: EZIPEK_clean_linker_0, # of connection points: 2
#     Edge 26, Type (0, 0), BuildingBlock: EZIPEK_clean_linker_0, # of connection points: 2
#     Edge 27, Type (0, 0), BuildingBlock: EZIPEK_clean_linker_0, # of connection points: 2
#     Edge 28, Type (0, 0), BuildingBlock: EZIPEK_clean_linker_0, # of connection points: 2
#     Edge 29, Type (0, 0), BuildingBlock: EZIPEK_clean_linker_0, # of connection points: 2
#     Edge 30, Type (0, 0), BuildingBlock: EZIPEK_clean_linker_0, # of connection points: 2
#     Edge 31, Type (0, 0), BuildingBlock: EZIPEK_clean_linker_0, # of connection points: 2
#     Edge 32, Type (0, 0), BuildingBlock: EZIPEK_clean_linker_0, # of connection points: 2
#     Edge 33, Type (0, 0), BuildingBlock: EZIPEK_clean_linker_0, # of connection points: 2
#     Edge 34, Type (0, 0), BuildingBlock: EZIPEK_clean_linker_0, # of connection points: 2
#     Edge 35, Type (0, 0), BuildingBlock: EZIPEK_clean_linker_0, # of connection points: 2
#     Edge 36, Type (0, 0), BuildingBlock: EZIPEK_clean_linker_0, # of connection points: 2
#     Edge 37, Type (0, 0), BuildingBlock: EZIPEK_clean_linker_0, # of connection points: 2
#     Edge 38, Type (0, 0), BuildingBlock: EZIPEK_clean_linker_0, # of connection points: 2
#     Edge 39, Type (0, 0), BuildingBlock: EZIPEK_clean_linker_0, # of connection points: 2
#     Edge 40, Type (0, 0), BuildingBlock: EZIPEK_clean_linker_0, # of connection points: 2
#     Edge 41, Type (0, 0), BuildingBlock: EZIPEK_clean_linker_0, # of connection points: 2
#     Edge 42, Type (0, 0), BuildingBlock: EZIPEK_clean_linker_0, # of connection points: 2
#     Edge 43, Type (0, 0), BuildingBlock: EZIPEK_clean_linker_0, # of connection points: 2
#     Edge 44, Type (0, 0), BuildingBlock: EZIPEK_clean_linker_0, # of connection points: 2
#     Edge 45, Type (0, 0), BuildingBlock: EZIPEK_clean_linker_0, # of connection points: 2
#     Edge 46, Type (0, 0), BuildingBlock: EZIPEK_clean_linker_0, # of connection points: 2
#     Edge 47, Type (0, 0), BuildingBlock: EZIPEK_clean_linker_0, # of connection points: 2
#     Edge 48, Type (0, 0), BuildingBlock: EZIPEK_clean_linker_0, # of connection points: 2
#     Edge 49, Type (0, 0), BuildingBlock: EZIPEK_clean_linker_0, # of connection points: 2
#     Edge 50, Type (0, 0), BuildingBlock: EZIPEK_clean_linker_0, # of connection points: 2
#     Edge 51, Type (0, 0), BuildingBlock: EZIPEK_clean_linker_0, # of connection points: 2
#     Edge 52, Type (0, 0), BuildingBlock: EZIPEK_clean_linker_0, # of connection points: 2
#     Edge 53, Type (0, 0), BuildingBlock: EZIPEK_clean_linker_0, # of connection points: 2
#     Edge 54, Type (0, 0), BuildingBlock: EZIPEK_clean_linker_0, # of connection points: 2
#     Edge 55, Type (0, 0), BuildingBlock: EZIPEK_clean_linker_0, # of connection points: 2
#     Edge 56, Type (0, 0), BuildingBlock: EZIPEK_clean_linker_0, # of connection points: 2
#     Edge 57, Type (0, 0), BuildingBlock: EZIPEK_clean_linker_0, # of connection points: 2
#     Edge 58, Type (0, 0), BuildingBlock: EZIPEK_clean_linker_0, # of connection points: 2
#     Edge 59, Type (0, 0), BuildingBlock: EZIPEK_clean_linker_0, # of connection points: 2
#     Edge 60, Type (0, 0), BuildingBlock: EZIPEK_clean_linker_0, # of connection points: 2
#     Edge 61, Type (0, 0), BuildingBlock: EZIPEK_clean_linker_0, # of connection points: 2
#     Edge 62, Type (0, 0), BuildingBlock: EZIPEK_clean_linker_0, # of connection points: 2
#     Edge 63, Type (0, 0), BuildingBlock: EZIPEK_clean_linker_0, # of connection points: 2
# Relax obj value: 0.157
# Max RMSD: 0.239
# Mean RMSD: 0.236
data_MOF--net-snl--node1-KUMBOL_clean_sbu_1--edge1-EZIPEK_clean_linker_0
_symmetry_space_group_name_H-M    P1
_symmetry_Int_Tables_number       1
_symmetry_cell_setting            triclinic
loop_
_symmetry_equiv_pos_as_xyz
'x, y, z'
_cell_length_a     41.914858
_cell_length_b     41.872339
_cell_length_c     20.843828
_cell_angle_alpha  90.198317
_cell_angle_beta   90.346087
_cell_angle_gamma 89.889443
loop_
_atom_site_label
_atom_site_type_symbol
_atom_site_fract_x
_atom_site_fract_y
_atom_site_fract_z
_atom_type_partial_charge
C0 C 0.09527 0.53872 0.2307 0.0
C1 C 0.13696 0.5045 0.273 0.0
C2 C 0.12616 0.53494 0.25358 0.0
C3 C 0.11736 0.4777 0.26364 0.0
C4 C 0.07506 0.51205 0.22321 0.0
C5 C 0.08654 0.48145 0.23839 0.0
N6 N 0.08473 0.56874 0.21737 0.0
C7 C 0.05345 0.57381 0.20147 0.0
C8 C 0.0437 0.51702 0.20199 0.0
C9 C 0.03279 0.54809 0.19164 0.0
Gd10 Gd 0.15263 0.64331 0.06285 0.0
Gd11 Gd 0.12276 0.61011 0.22704 0.0
N12 N 0.14466 0.56131 0.2618 0.0
C13 C 0.16642 0.50216 0.30447 0.0
C14 C 0.17162 0.55952 0.29856 0.0
C15 C 0.18332 0.52993 0.31909 0.0
H16 H 0.18398 0.58091 0.31333 0.0
H17 H 0.20512 0.52861 0.34704 0.0
H18 H 0.08795 0.69046 0.09367 0.0
H19 H 0.04399 0.59759 0.19761 0.0
H20 H 0.0661 0.74126 0.06923 0.0
H21 H 0.17543 0.47929 0.32079 0.0
H22 H 0.12543 0.45411 0.27763 0.0
H23 H 0.22963 0.63686 0.03115 0.0
H24 H 0.02745 0.49717 0.19546 0.0
H25 H 0.00826 0.55232 0.17744 0.0
H26 H 0.17579 0.79786 0.87721 0.0
H27 H 0.07143 0.46066 0.23268 0.0
H28 H 0.26082 0.71083 0.90606 0.0
H29 H 0.27021 0.66176 0.96613 0.0
N30 N 0.19484 0.67298 0.01931 0.0
C31 C 0.18694 0.70159 0.99386 0.0
C32 C 0.22427 0.6599 1.01047 0.0
C33 C 0.24216 0.70181 0.93674 0.0
C34 C 0.24754 0.67389 0.97153 0.0
C35 C 0.2136 0.71837 0.94209 0.0
H36 H 0.22874 0.76053 0.86928 0.0
N37 N 0.13199 0.69575 0.04822 0.0
C38 C 0.15091 0.71551 0.01487 0.0
C39 C 0.10476 0.75736 1.01197 0.0
C40 C 0.13568 0.75067 0.98584 0.0
C41 C 0.10236 0.7055 0.06581 0.0
C42 C 0.08955 0.73538 0.051 0.0
O43 O 0.1179 0.57727 0.13819 0.0
O44 O 0.16307 0.59199 0.08973 0.0
O45 O 0.13862 0.64802 0.96178 0.0
O46 O 0.16904 0.60913 0.99289 0.0
O47 O 0.17695 0.61792 0.22528 0.0
O48 O 0.19661 0.63631 0.12807 0.0
O49 O 0.15896 0.67886 0.14371 0.0
O50 O 0.11825 0.66453 0.21062 0.0
O51 O 0.13794 0.62405 0.32497 0.0
O52 O 0.0886 0.61046 0.30271 0.0
O53 O 0.09817 0.6325 0.07012 0.0
O54 O 0.08481 0.63758 0.1759 0.0
C55 C 0.14003 0.57128 0.09555 0.0
C56 C 0.20085 0.62752 0.18878 0.0
C57 C 0.17377 0.62465 0.88454 0.0
C58 C 0.17421 0.62668 0.76793 0.0
C59 C 0.22345 0.6177 0.82636 0.0
C60 C 0.20675 0.6183 0.8839 0.0
C61 C 0.20729 0.62192 0.76851 0.0
C62 C 0.15748 0.62835 0.82604 0.0
C63 C 0.1554 0.62323 0.94449 0.0
C64 C 0.17627 0.77597 0.90581 0.0
C65 C 0.20958 0.7528 0.90005 0.0
H66 H 0.09109 0.77884 1.00324 0.0
C67 C 0.13895 0.686 0.19011 0.0
C68 C 0.07612 0.63511 0.11549 0.0
C69 C 0.09831 0.62643 0.41137 0.0
C70 C 0.10639 0.62848 0.5268 0.0
C71 C 0.05372 0.63743 0.48179 0.0
C72 C 0.06622 0.63407 0.42047 0.0
C73 C 0.07365 0.63421 0.53491 0.0
C74 C 0.11888 0.62471 0.46462 0.0
C75 C 0.10905 0.61985 0.34582 0.0
H76 H 0.24876 0.61264 0.82654 0.0
H77 H 0.21958 0.61256 0.92738 0.0
H78 H 0.22017 0.61988 0.72388 0.0
H79 H 0.13178 0.63147 0.82546 0.0
H80 H 0.02866 0.64269 0.48813 0.0
H81 H 0.05106 0.63729 0.37921 0.0
H82 H 0.06375 0.6371 0.58249 0.0
H83 H 0.1441 0.61996 0.45808 0.0
C84 C 0.72184 0.85307 0.5076 0.0
C85 C 0.7508 0.89894 0.54852 0.0
C86 C 0.72312 0.8857 0.51998 0.0
C87 C 0.77642 0.87896 0.5653 0.0
C88 C 0.74854 0.83353 0.52019 0.0
C89 C 0.77528 0.84643 0.55079 0.0
N90 N 0.69469 0.84029 0.48275 0.0
C91 C 0.69275 0.80849 0.46973 0.0
C92 C 0.74762 0.80147 0.50161 0.0
C93 C 0.71989 0.78925 0.47413 0.0
Gd94 Gd 0.6214 0.90208 0.30468 0.0
Gd95 Gd 0.65126 0.87452 0.47543 0.0
N96 N 0.69694 0.90409 0.5074 0.0
C97 C 0.75137 0.93158 0.5624 0.0
C98 C 0.69702 0.93554 0.52542 0.0
C99 C 0.72437 0.94996 0.55053 0.0
H100 H 0.67583 0.94942 0.52608 0.0
H101 H 0.72399 0.97495 0.56404 0.0
H102 H 0.62227 0.83844 0.20872 0.0
H103 H 0.67039 0.79792 0.45591 0.0
H104 H 0.59233 0.81388 0.12367 0.0
H105 H 0.77201 0.9426 0.58464 0.0
H106 H 0.79694 0.88822 0.59085 0.0
H107 H 0.58525 0.96941 0.36401 0.0
H108 H 0.76812 0.786 0.50817 0.0
H109 H 0.71919 0.76476 0.45806 0.0
H110 H 0.48665 0.8968 0.14249 0.0
H111 H 0.79471 0.83104 0.5648 0.0
H112 H 0.48828 0.97521 0.31918 0.0
H113 H 0.53416 0.99326 0.37303 0.0
N114 N 0.57115 0.92876 0.30962 0.0
C115 C 0.54799 0.9164 0.27115 0.0
C116 C 0.56625 0.9573 0.3397 0.0
C117 C 0.50957 0.96129 0.31049 0.0
C118 C 0.53639 0.97204 0.34349 0.0
C119 C 0.51209 0.9359 0.26432 0.0
H120 H 0.45291 0.92206 0.14758 0.0
N121 N 0.58767 0.87331 0.23417 0.0
C122 C 0.55865 0.88644 0.22172 0.0
C123 C 0.55238 0.8453 0.1279 0.0
C124 C 0.53778 0.87083 0.15826 0.0
C125 C 0.59873 0.84783 0.1996 0.0
C126 C 0.58175 0.83388 0.14887 0.0
O127 O 0.68931 0.87316 0.39291 0.0
O128 O 0.67346 0.91314 0.32741 0.0
O129 O 0.647 0.89506 0.21532 0.0
O130 O 0.61682 0.93764 0.2281 0.0
O131 O 0.63209 0.92458 0.47784 0.0
O132 O 0.63373 0.94465 0.37482 0.0
O133 O 0.58309 0.87643 0.36245 0.0
O134 O 0.59771 0.88744 0.46704 0.0
O135 O 0.65407 0.88323 0.57843 0.0
O136 O 0.63777 0.8376 0.54275 0.0
O137 O 0.6403 0.85006 0.31366 0.0
O138 O 0.6287 0.83443 0.41662 0.0
C139 C 0.696 0.89291 0.3449 0.0
C140 C 0.6321 0.94896 0.43858 0.0
C141 C 0.64115 0.92947 0.12294 0.0
C142 C 0.63749 0.91959 1.00722 0.0
C143 C 0.66901 0.96385 0.04873 0.0
C144 C 0.66092 0.95568 0.11128 0.0
C145 C 0.65746 0.94596 0.99708 0.0
C146 C 0.62911 0.91139 0.07074 0.0
C147 C 0.63498 0.92084 0.19011 0.0
C148 C 0.50148 0.88094 0.12937 0.0
C149 C 0.47908 0.91247 0.16561 0.0
H150 H 0.54067 0.83367 0.08771 0.0
C151 C 0.57558 0.88073 0.42323 0.0
C152 C 0.63427 0.82729 0.35608 0.0
C153 C 0.61975 0.8538 0.6465 0.0
C154 C 0.60716 0.86345 0.7596 0.0
C155 C 0.57228 0.83058 0.69353 0.0
C156 C 0.59196 0.83528 0.64067 0.0
C157 C 0.58 0.84419 0.75278 0.0
C158 C 0.62695 0.86841 0.70606 0.0
C159 C 0.64291 0.85533 0.59327 0.0
H160 H 0.68452 0.98401 0.04025 0.0
H161 H 0.67054 0.96959 0.15084 0.0
H162 H 0.66417 0.95266 0.94885 0.0
H163 H 0.61371 0.89111 0.07931 0.0
H164 H 0.55116 0.81592 0.68877 0.0
H165 H 0.58572 0.82381 0.59567 0.0
H166 H 0.56464 0.83989 0.79346 0.0
H167 H 0.64836 0.8827 0.71142 0.0
C168 C 0.41706 0.46701 0.76378 0.0
C169 C 0.37596 0.50792 0.76188 0.0
C170 C 0.38559 0.47596 0.75183 0.0
C171 C 0.39799 0.53037 0.78531 0.0
C172 C 0.43888 0.48923 0.78971 0.0
C173 C 0.42927 0.52098 0.79982 0.0
N174 N 0.42619 0.43645 0.75179 0.0
C175 C 0.45615 0.42611 0.76683 0.0
C176 C 0.46952 0.47867 0.80635 0.0
C177 C 0.47798 0.44681 0.7958 0.0
Gd178 Gd 0.36264 0.37283 0.5431 0.0
Gd179 Gd 0.38628 0.4019 0.71716 0.0
N180 N 0.36446 0.45355 0.73062 0.0
C181 C 0.34439 0.51644 0.74836 0.0
C182 C 0.33342 0.46185 0.71852 0.0
C183 C 0.32302 0.49327 0.72696 0.0
H184 H 0.31642 0.44498 0.70028 0.0
H185 H 0.29853 0.49966 0.71623 0.0
H186 H 0.42534 0.32878 0.50069 0.0
H187 H 0.463 0.4016 0.75837 0.0
H188 H 0.4368 0.27457 0.45998 0.0
H189 H 0.3363 0.54082 0.75411 0.0
H190 H 0.39092 0.55497 0.79338 0.0
H191 H 0.28445 0.38589 0.51812 0.0
H192 H 0.48679 0.49485 0.82755 0.0
H193 H 0.50147 0.43828 0.80922 0.0
H194 H 0.33367 0.2319 0.41337 0.0
H195 H 0.44581 0.53842 0.81922 0.0
H196 H 0.24323 0.29983 0.44431 0.0
H197 H 0.23727 0.35583 0.48031 0.0
N198 N 0.31569 0.34586 0.51301 0.0
C199 C 0.31971 0.31534 0.49158 0.0
C200 C 0.28688 0.36087 0.50611 0.0
C201 C 0.26371 0.31248 0.46355 0.0
C202 C 0.26024 0.34408 0.48378 0.0
C203 C 0.29389 0.29817 0.46486 0.0
H204 H 0.27971 0.2548 0.4154 0.0
N205 N 0.37531 0.32124 0.50703 0.0
C206 C 0.35037 0.30252 0.48927 0.0
C207 C 0.38717 0.26162 0.45339 0.0
C208 C 0.35575 0.27235 0.46082 0.0
C209 C 0.40596 0.31223 0.49334 0.0
C210 C 0.41243 0.28187 0.46895 0.0
O211 O 0.39237 0.43724 0.63186 0.0
O212 O 0.34881 0.42287 0.5744 0.0
O213 O 0.36616 0.41206 0.47431 0.0
O214 O 0.3676 0.36388 0.44103 0.0
O215 O 0.33414 0.39292 0.71492 0.0
O216 O 0.31847 0.37437 0.61373 0.0
O217 O 0.38939 0.33769 0.60551 0.0
O218 O 0.36798 0.35105 0.7006 0.0
O219 O 0.37522 0.40632 0.81899 0.0
O220 O 0.40915 0.37058 0.78502 0.0
O221 O 0.41683 0.38214 0.55897 0.0
O222 O 0.4295 0.38242 0.66771 0.0
C223 C 0.37066 0.44444 0.5876 0.0
C224 C 0.31227 0.3827 0.67482 0.0
C225 C 0.34755 0.40104 0.36868 0.0
C226 C 0.34105 0.40009 0.25235 0.0
C227 C 0.29633 0.41402 0.32068 0.0
C228 C 0.3156 0.41041 0.37517 0.0
C229 C 0.3088 0.4084 0.25959 0.0
C230 C 0.36021 0.3961 0.30727 0.0
C231 C 0.36752 0.3935 0.42463 0.0
C232 C 0.32996 0.255 0.43577 0.0
C233 C 0.29922 0.26809 0.43685 0.0
H234 H 0.39214 0.23859 0.43194 0.0
C235 C 0.37973 0.32923 0.66211 0.0
C236 C 0.43779 0.38153 0.60726 0.0
C237 C 0.41084 0.38306 0.89612 0.0
C238 C 0.40725 0.38276 1.01236 0.0
C239 C 0.45867 0.37663 0.96123 0.0
C240 C 0.44402 0.37864 0.90104 0.0
C241 C 0.44041 0.37885 0.01682 0.0
C242 C 0.39249 0.38438 0.95198 0.0
C243 C 0.39418 0.38269 0.83408 0.0
H244 H 0.2716 0.42099 0.32582 0.0
H245 H 0.30548 0.4144 0.42215 0.0
H246 H 0.29355 0.41113 0.21782 0.0
H247 H 0.38493 0.38882 0.30212 0.0
H248 H 0.48421 0.37322 0.96478 0.0
H249 H 0.45859 0.37607 0.85875 0.0
H250 H 0.45204 0.37753 0.06328 0.0
H251 H 0.36676 0.38699 0.94872 0.0
C252 C 0.92415 0.03942 0.81693 0.0
C253 C 0.88541 1.00068 0.77835 0.0
C254 C 0.89401 0.03237 0.79315 0.0
C255 C 0.90669 0.97584 0.79245 0.0
C256 C 0.94641 0.01456 0.82703 0.0
C257 C 0.93723 0.98272 0.81632 0.0
N258 N 0.93227 0.0706 0.82654 0.0
C259 C 0.96337 0.07826 0.83928 0.0
C260 C 0.97734 0.02244 0.84683 0.0
C261 C 0.98588 0.05447 0.8526 0.0
Gd262 Gd 0.86236 0.1387 0.97916 0.0
Gd263 Gd 0.89051 0.10799 0.80937 0.0
N264 N 0.87344 0.05676 0.78195 0.0
C265 C 0.85608 0.99506 0.74782 0.0
C266 C 0.84635 0.05186 0.74702 0.0
C267 C 0.83684 0.02092 0.73048 0.0
H268 H 0.83245 0.07199 0.73086 0.0
H269 H 0.81494 0.01709 0.70378 0.0
H270 H 0.92888 0.18532 0.99801 0.0
H271 H 0.97153 0.10251 0.8374 0.0
H272 H 0.94231 0.23777 0.04104 0.0
H273 H 0.84879 0.97107 0.73487 0.0
H274 H 0.89981 0.95131 0.78404 0.0
H275 H 0.78353 0.13111 0.9978 0.0
H276 H 0.99507 1.00407 0.85551 0.0
H277 H 0.01015 0.06089 0.86506 0.0
H278 H 0.8437 0.27757 0.12387 0.0
H279 H 0.9538 0.9633 0.82506 0.0
H280 H 0.74952 0.21475 0.09338 0.0
H281 H 0.73938 0.16176 0.04453 0.0
N282 N 0.81795 0.16781 1.01294 0.0
C283 C 0.82429 0.19658 0.04048 0.0
C284 C 0.78811 0.15488 0.01586 0.0
C285 C 0.76891 0.20181 0.07097 0.0
C286 C 0.76304 0.17198 0.04336 0.0
C287 C 0.79991 0.21418 0.07097 0.0
H288 H 0.78886 0.25693 0.12543 0.0
N289 N 0.87898 0.18951 0.01489 0.0
C290 C 0.85551 0.20789 0.0409 0.0
C291 C 0.89413 0.24855 0.0689 0.0
C292 C 0.86269 0.23752 0.0701 0.0
C293 C 0.90988 0.19986 0.01566 0.0
C294 C 0.91779 0.2297 0.04125 0.0
O295 O 0.8681 0.07252 0.88277 0.0
O296 O 0.89125 0.09375 0.96967 0.0
O297 O 0.87039 0.14034 0.08245 0.0
O298 O 0.83724 0.10526 0.03962 0.0
O299 O 0.83922 0.12491 0.80497 0.0
O300 O 0.82071 0.12395 0.90964 0.0
O301 O 0.86388 0.17937 0.90806 0.0
O302 O 0.89355 0.16264 0.82006 0.0
O303 O 0.87189 0.11637 0.71353 0.0
O304 O 0.92171 0.10483 0.72664 0.0
O305 O 0.91624 0.13171 0.97201 0.0
O306 O 0.9288 0.13582 0.86439 0.0
C307 C 0.87904 0.06877 0.94191 0.0
C308 C 0.81565 0.12528 0.84633 0.0
C309 C 0.84334 0.10432 0.15594 0.0
C310 C 0.85072 0.1049 0.2721 0.0
C311 C 0.81428 0.06706 0.22275 0.0
C312 C 0.82141 0.07924 0.16236 0.0
C313 C 0.82881 0.07982 0.27743 0.0
C314 C 0.85809 0.11713 0.21122 0.0
C315 C 0.85039 0.11697 0.0917 0.0
C316 C 0.8385 0.25493 0.10076 0.0
C317 C 0.80726 0.24319 0.10161 0.0
H318 H 0.90047 0.2713 0.09019 0.0
C319 C 0.88002 0.18539 0.85523 0.0
C320 C 0.93732 0.13507 0.92559 0.0
C321 C 0.90671 0.13267 0.6321 0.0
C322 C 0.90204 0.14409 0.51796 0.0
C323 C 0.93276 0.17919 0.5876 0.0
C324 C 0.92564 0.15996 0.64031 0.0
C325 C 0.92114 0.17125 0.52657 0.0
C326 C 0.8947 0.12498 0.57101 0.0
C327 C 0.89912 0.11155 0.68578 0.0
H328 H 0.79739 0.04769 0.22717 0.0
H329 H 0.80966 0.06906 0.12068 0.0
H330 H 0.82305 0.07009 0.32403 0.0
H331 H 0.87513 0.13645 0.20726 0.0
H332 H 0.94746 0.20019 0.594 0.0
H333 H 0.93502 0.16623 0.68712 0.0
H334 H 0.92703 0.18621 0.48605 0.0
H335 H 0.87997 0.10392 0.56445 0.0
C336 C 0.23036 0.35526 1.00172 0.0
C337 C 0.26231 0.40333 0.01402 0.0
C338 C 0.23269 0.38854 1.00004 0.0
C339 C 0.28877 0.38475 0.03173 0.0
C340 C 0.25799 0.33669 1.01329 0.0
C341 C 0.28677 0.35152 0.03037 0.0
N342 N 0.20191 0.34088 0.98733 0.0
C343 C 0.20024 0.30847 0.98048 0.0
C344 C 0.25651 0.30378 1.00339 0.0
C345 C 0.22791 0.29002 0.984 0.0
Gd346 Gd 0.12352 0.40338 0.80695 0.0
Gd347 Gd 0.15836 0.37557 0.97428 0.0
N348 N 0.20717 0.40605 0.97867 0.0
C349 C 0.26516 0.43632 1.00689 0.0
C350 C 0.21129 0.43816 0.96655 0.0
C351 C 0.23977 0.45365 0.9817 0.0
H352 H 0.19308 0.45207 0.94407 0.0
H353 H 0.24222 0.479 0.97309 0.0
H354 H 0.12938 0.34706 0.69672 0.0
H355 H 0.17783 0.29672 0.97126 0.0
H356 H 0.10158 0.32427 0.60555 0.0
H357 H 0.28741 0.44841 0.01768 0.0
H358 H 0.31143 0.39583 0.04321 0.0
H359 H 0.09041 0.46971 0.85061 0.0
H360 H 0.27759 0.28893 1.00822 0.0
H361 H 0.22739 0.2652 0.97114 0.0
H362 H 0.99101 0.40084 0.63383 0.0
H363 H 0.30794 0.33749 0.0406 0.0
H364 H 0.99089 0.47387 0.82022 0.0
H365 H 0.03755 0.49367 0.86803 0.0
N366 N 0.0735 0.42859 0.80566 0.0
C367 C 0.05096 0.4172 0.76622 0.0
C368 C 0.06956 0.4576 0.83325 0.0
C369 C 0.01236 0.46053 0.80977 0.0
C370 C 0.0396 0.47194 0.84029 0.0
C371 C 0.0151 0.43633 0.76113 0.0
H372 H 0.95682 0.42539 0.64188 0.0
N373 N 0.09215 0.37793 0.72618 0.0
C374 C 0.06272 0.38971 0.714 0.0
C375 C 0.05925 0.35226 0.61424 0.0
C376 C 0.04295 0.37567 0.64785 0.0
C377 C 0.10532 0.35522 0.68726 0.0
C378 C 0.0895 0.3423 0.63376 0.0
O379 O 0.19354 0.39151 0.89405 0.0
O380 O 0.1686 0.37451 0.80488 0.0
O381 O 0.15096 0.40474 0.71861 0.0
O382 O 0.12867 0.44771 0.75225 0.0
O383 O 0.13008 0.42112 0.98155 0.0
O384 O 0.14063 0.44306 0.88419 0.0
O385 O 0.08533 0.39757 0.88227 0.0
O386 O 0.1053 0.36086 0.9557 0.0
O387 O 0.1393 0.39195 0.06727 0.0
O388 O 0.1704 0.35148 0.06314 0.0
O389 O 0.12397 0.34759 0.81568 0.0
O390 O 0.14314 0.33186 0.91658 0.0
C391 C 0.19471 0.38375 0.83277 0.0
C392 C 0.1346 0.44669 0.94768 0.0
C393 C 0.13558 0.44219 0.63766 0.0
C394 C 0.13448 0.43063 0.52142 0.0
C395 C 0.1216 0.48367 0.56097 0.0
C396 C 0.12658 0.47376 0.62403 0.0
C397 C 0.12563 0.46241 0.51015 0.0
C398 C 0.13958 0.42042 0.58557 0.0
C399 C 0.14399 0.43406 0.70543 0.0
C400 C 1.00643 0.38581 0.61922 0.0
C401 C 0.98299 0.41568 0.65915 0.0
H402 H 0.04852 0.34159 0.57195 0.0
C403 C 0.08098 0.37629 0.92767 0.0
C404 C 0.13207 0.32511 0.85839 0.0
C405 C 0.14191 0.35805 0.16026 0.0
C406 C 0.13545 0.36202 0.27729 0.0
C407 C 0.12365 0.31231 0.22098 0.0
C408 C 0.13156 0.32624 0.16251 0.0
C409 C 0.12594 0.32985 0.2779 0.0
C410 C 0.14333 0.37614 0.21781 0.0
C411 C 0.1553 0.3711 0.10024 0.0
H412 H 0.11466 0.50808 0.55134 0.0
H413 H 0.12393 0.49112 0.6623 0.0
H414 H 0.12164 0.47074 0.46158 0.0
H415 H 0.14677 0.39596 0.59449 0.0
H416 H 0.11612 0.28762 0.22234 0.0
H417 H 0.13046 0.31185 0.11924 0.0
H418 H 0.11992 0.31838 0.32272 0.0
H419 H 0.15135 0.40073 0.21664 0.0
C420 C 0.78602 0.85797 0.05911 0.0
C421 C 0.75657 0.90528 0.02701 0.0
C422 C 0.78582 0.88986 0.04001 0.0
C423 C 0.72783 0.88904 0.03751 0.0
C424 C 0.75719 0.84172 0.06999 0.0
C425 C 0.72817 0.8575 0.05962 0.0
N426 N 0.81455 0.84356 0.07148 0.0
C427 C 0.81582 0.81241 0.0906 0.0
C428 C 0.75835 0.81035 0.09286 0.0
C429 C 0.78781 0.79574 0.10361 0.0
Gd430 Gd 0.88906 0.90364 0.22248 0.0
Gd431 Gd 0.85993 0.87518 0.0549 0.0
N432 N 0.81404 0.90562 0.0334 0.0
C433 C 0.75708 0.93645 1.00313 0.0
C434 C 0.81465 0.93493 1.00516 0.0
C435 C 0.78628 0.95105 0.99077 0.0
H436 H 0.83692 0.94536 0.99079 0.0
H437 H 0.78696 0.97447 0.96908 0.0
H438 H 0.92262 0.83872 0.28396 0.0
H439 H 0.8383 0.80037 0.09659 0.0
H440 H 0.97121 0.82387 0.34266 0.0
H441 H 0.73513 0.94901 0.99199 0.0
H442 H 0.70524 0.90075 0.02889 0.0
H443 H 0.89098 0.98554 0.21002 0.0
H444 H 0.73666 0.7972 0.10237 0.0
H445 H 0.78895 0.77148 0.12124 0.0
H446 H 0.02933 0.92175 0.36196 0.0
H447 H 0.70593 0.84539 0.06904 0.0
H448 H 0.98081 0.01704 0.2814 0.0
H449 H 0.92891 0.02845 0.22984 0.0
N450 N 0.92316 0.94808 0.23734 0.0
C451 C 0.95163 0.94136 0.26642 0.0
C452 C 0.9145 0.97918 0.2267 0.0
C453 C 0.96489 0.99753 0.26935 0.0
C454 C 0.93563 1.00408 0.24025 0.0
C455 C 0.97284 0.96602 0.28451 0.0
H456 H 0.0176 0.97727 0.33209 0.0
N457 N 0.93714 0.88672 0.26783 0.0
C458 C 0.95862 0.9099 0.28269 0.0
C459 C 0.99116 0.87111 0.33844 0.0
C460 C 0.98645 0.90257 0.31805 0.0
C461 C 0.94085 0.85646 0.29091 0.0
C462 C 0.96822 0.84801 0.32514 0.0
O463 O 0.82818 0.87195 0.14759 0.0
O464 O 0.83821 0.91763 0.2002 0.0
O465 O 0.86613 0.88027 0.30414 0.0
O466 O 0.88817 0.92727 0.31429 0.0
O467 O 0.88336 0.92376 0.05475 0.0
O468 O 0.87023 0.94305 0.15377 0.0
O469 O 0.93224 0.89082 0.16291 0.0
O470 O 0.91559 0.8745 0.06135 0.0
O471 O 0.85679 0.88692 0.95348 0.0
O472 O 0.8618 0.83785 0.98236 0.0
O473 O 0.88151 0.84858 0.20718 0.0
O474 O 0.88587 0.8354 0.10063 0.0
C475 C 0.81799 0.89495 0.18639 0.0
C476 C 0.87739 0.94802 0.09268 0.0
C477 C 0.85953 0.90892 0.40391 0.0
C478 C 0.86184 0.90492 0.52022 0.0
C479 C 0.82285 0.93961 0.46872 0.0
C480 C 0.83402 0.9304 0.40845 0.0
C481 C 0.83703 0.92735 0.52434 0.0
C482 C 0.87346 0.89623 0.45971 0.0
C483 C 0.8753 0.90307 0.34295 0.0
C484 C 0.00779 0.92699 0.33496 0.0
C485 C 1.00102 0.95862 0.31823 0.0
H486 H 0.01155 0.86468 0.3672 0.0
C487 C 0.93849 0.88078 0.10449 0.0
C488 C 0.88697 0.82711 0.16099 0.0
C489 C 0.88469 0.85307 0.88311 0.0
C490 C 0.89952 0.85915 0.77073 0.0
C491 C 0.93489 0.83146 0.84457 0.0
C492 C 0.91354 0.83688 0.89466 0.0
C493 C 0.92779 0.84218 0.78274 0.0
C494 C 0.87802 0.86465 0.82115 0.0
C495 C 0.86111 0.85772 0.93453 0.0
H496 H 0.80354 0.95669 0.47237 0.0
H497 H 0.82353 0.94075 0.36565 0.0
H498 H 0.82863 0.93524 0.57078 0.0
H499 H 0.8936 0.88001 0.45622 0.0
H500 H 0.95691 0.81867 0.85359 0.0
H501 H 0.91946 0.82818 0.94215 0.0
H502 H 0.9444 0.83744 0.74423 0.0
H503 H 0.8559 0.87736 0.81181 0.0
C504 C 0.42181 0.53984 0.31156 0.0
C505 C 0.37711 0.50361 0.29775 0.0
C506 C 0.38976 0.53466 0.29694 0.0
C507 C 0.39755 0.47754 0.30783 0.0
C508 C 0.4425 0.51359 0.32056 0.0
C509 C 0.43024 0.48244 0.31787 0.0
N510 N 0.43243 0.57035 0.31974 0.0
C511 C 0.46407 0.57608 0.33023 0.0
C512 C 0.47457 0.51944 0.33532 0.0
C513 C 0.48532 0.55083 0.34059 0.0
Gd514 Gd 0.36643 0.63473 0.48008 0.0
Gd515 Gd 0.39326 0.61032 0.3082 0.0
N516 N 0.37009 0.56036 0.29002 0.0
C517 C 0.34402 0.49994 0.29143 0.0
C518 C 0.33874 0.55655 0.2738 0.0
C519 C 0.32494 0.52628 0.27634 0.0
H520 H 0.3242 0.57702 0.26272 0.0
H521 H 0.29958 0.52338 0.26832 0.0
H522 H 0.43433 0.67541 0.51694 0.0
H523 H 0.47338 0.59998 0.32946 0.0
H524 H 0.44905 0.72368 0.57588 0.0
H525 H 0.33297 0.47691 0.29823 0.0
H526 H 0.38833 0.45352 0.30817 0.0
H527 H 0.28503 0.6378 0.46436 0.0
H528 H 0.49117 0.49994 0.34309 0.0
H529 H 0.51016 0.55565 0.35119 0.0
H530 H 0.34937 0.76531 0.65118 0.0
H531 H 0.44567 0.462 0.32564 0.0
H532 H 0.25316 0.71596 0.57793 0.0
H533 H 0.2416 0.67053 0.50567 0.0
N534 N 0.32217 0.6671 0.5037 0.0
C535 C 0.32901 0.69257 0.54206 0.0
C536 C 0.29114 0.65916 0.49048 0.0
C537 C 0.27269 0.70255 0.55713 0.0
C538 C 0.26606 0.67716 0.5158 0.0
C539 C 0.3044 0.7104 0.57113 0.0
H540 H 0.29349 0.74972 0.63527 0.0
N541 N 0.38418 0.68236 0.52715 0.0
C542 C 0.36077 0.70072 0.55319 0.0
C543 C 0.40053 0.73609 0.59806 0.0
C544 C 0.36842 0.72766 0.59089 0.0
C545 C 0.41559 0.69013 0.5356 0.0
C546 C 0.42416 0.71744 0.56989 0.0
O547 O 0.37003 0.57494 0.38275 0.0
O548 O 0.39467 0.58951 0.47243 0.0
O549 O 0.37691 0.62941 0.5814 0.0
O550 O 0.33573 0.60566 0.54024 0.0
O551 O 0.34639 0.63454 0.30354 0.0
O552 O 0.32717 0.62106 0.40235 0.0
O553 O 0.375 0.6797 0.42417 0.0
O554 O 0.38789 0.66521 0.31949 0.0
O555 O 0.37644 0.61267 0.20794 0.0
O556 O 0.42727 0.61406 0.2311 0.0
O557 O 0.42046 0.62558 0.46996 0.0
O558 O 0.43235 0.63573 0.36419 0.0
C559 C 0.38254 0.56658 0.43875 0.0
C560 C 0.3222 0.63014 0.34138 0.0
C561 C 0.33334 0.62234 0.65024 0.0
C562 C 0.33217 0.63353 0.76518 0.0
C563 C 0.28581 0.64473 0.69927 0.0
C564 C 0.30141 0.63228 0.64581 0.0
C565 C 0.30111 0.64549 0.75877 0.0
C566 C 0.34852 0.62251 0.71068 0.0
C567 C 0.35149 0.61264 0.59277 0.0
C568 C 0.34397 0.74496 0.62092 0.0
C569 C 0.31211 0.73596 0.61214 0.0
H570 H 0.40757 0.75672 0.6255 0.0
C571 C 0.38172 0.68701 0.36451 0.0
C572 C 0.4414 0.63189 0.42427 0.0
C573 C 0.41378 0.61761 0.11782 0.0
C574 C 0.40001 0.62454 1.00466 0.0
C575 C 0.45534 0.61936 0.03677 0.0
C576 C 0.44605 0.61651 0.1003 0.0
C577 C 0.43248 0.62321 0.98908 0.0
C578 C 0.39052 0.62199 0.06939 0.0
C579 C 0.40542 0.61502 0.18663 0.0
H580 H 0.26173 0.65373 0.69449 0.0
H581 H 0.28846 0.63056 0.60122 0.0
H582 H 0.28857 0.65478 0.80014 0.0
H583 H 0.37293 0.61414 0.71539 0.0
H584 H 0.48038 0.61849 0.0245 0.0
H585 H 0.46439 0.6134 0.13552 0.0
H586 H 0.44011 0.62521 0.93968 0.0
H587 H 0.36544 0.6233 0.08153 0.0
C588 C 0.58977 0.0433 0.72364 0.0
C589 C 0.63335 1.00602 0.7426 0.0
C590 C 0.62227 0.03753 0.73335 0.0
C591 C 0.61163 0.98054 0.74117 0.0
C592 C 0.56806 0.01763 0.72129 0.0
C593 C 0.57915 0.98633 0.73026 0.0
N594 N 0.57955 0.07386 0.71445 0.0
C595 C 0.54796 0.08038 0.70518 0.0
C596 C 0.53583 0.02412 0.70899 0.0
C597 C 0.52582 0.05562 0.70056 0.0
Gd598 Gd 0.65057 0.1466 0.56074 0.0
Gd599 Gd 0.61892 0.11315 0.72428 0.0
N600 N 0.64301 0.06262 0.73307 0.0
C601 C 0.66594 1.00101 0.75349 0.0
C602 C 0.6745 0.05787 0.74676 0.0
C603 C 0.68655 0.0271 0.75608 0.0
H604 H 0.69027 0.07763 0.75347 0.0
H605 H 0.71163 0.0236 0.76658 0.0
H606 H 0.58224 0.18885 0.55462 0.0
H607 H 0.53954 0.10467 0.70324 0.0
H608 H 0.56248 0.24164 0.54264 0.0
H609 H 0.67532 0.97719 0.76119 0.0
H610 H 0.61977 0.9562 0.74811 0.0
H611 H 0.7292 0.13927 0.54121 0.0
H612 H 0.51845 1.00503 0.70646 0.0
H613 H 0.50086 0.06091 0.69238 0.0
H614 H 0.68207 0.30271 0.38772 0.0
H615 H 0.56275 0.96642 0.72822 0.0
H616 H 0.76642 0.21577 0.42973 0.0
H617 H 0.77273 0.16526 0.48651 0.0
N618 N 0.6957 0.1767 0.52914 0.0
C619 C 0.6895 0.20657 0.50661 0.0
C620 C 0.72523 0.16315 0.52333 0.0
C621 C 0.74658 0.20658 0.45702 0.0
C622 C 0.75016 0.17774 0.48978 0.0
C623 C 0.71809 0.22351 0.45914 0.0
H624 H 0.73576 0.2658 0.38865 0.0
N625 N 0.63117 0.19929 0.54566 0.0
C626 C 0.6524 0.22023 0.52109 0.0
C627 C 0.606 0.26128 0.50892 0.0
C628 C 0.63835 0.2552 0.48965 0.0
C629 C 0.59948 0.20669 0.54592 0.0
C630 C 0.58766 0.23722 0.53501 0.0
O631 O 0.61871 0.08082 0.63282 0.0
O632 O 0.66264 0.09471 0.57747 0.0
O633 O 0.62387 0.1257 0.47989 0.0
O634 O 0.66829 0.15009 0.46446 0.0
O635 O 0.66916 0.13091 0.73254 0.0
O636 O 0.69185 0.13199 0.63124 0.0
O637 O 0.64428 0.18609 0.63192 0.0
O638 O 0.62078 0.16863 0.726 0.0
O639 O 0.63418 0.1069 0.82325 0.0
O640 O 0.58445 0.11536 0.80103 0.0
O641 O 0.59678 0.134 0.5696 0.0
O642 O 0.58213 0.14281 0.67402 0.0
C643 C 0.64011 0.07365 0.58836 0.0
C644 C 0.69423 0.13284 0.69542 0.0
C645 C 0.65344 0.11444 0.38456 0.0
C646 C 0.65383 0.10617 0.26917 0.0
C647 C 0.69012 0.07631 0.33721 0.0
C648 C 0.67805 0.09195 0.39121 0.0
C649 C 0.67805 0.08333 0.27633 0.0
C650 C 0.64128 0.12143 0.32342 0.0
C651 C 0.64466 0.13535 0.43793 0.0
C652 C 0.68176 0.28093 0.41661 0.0
C653 C 0.71554 0.25803 0.4165 0.0
H654 H 0.59291 0.2831 0.50032 0.0
C655 C 0.63224 0.19161 0.68865 0.0
C656 C 0.57447 0.13909 0.6135 0.0
C657 C 0.60379 0.13371 0.90118 0.0
C658 C 0.61188 0.14284 0.01538 0.0
C659 C 0.58607 0.18332 0.95003 0.0
C660 C 0.58944 0.16394 0.89586 0.0
C661 C 0.59699 0.17275 1.0097 0.0
C662 C 0.61556 0.12352 0.96081 0.0
C663 C 0.60581 0.11198 0.84601 0.0
H664 H 0.70967 0.0596 0.34214 0.0
H665 H 0.68889 0.08776 0.4376 0.0
H666 H 0.68809 0.07158 0.23466 0.0
H667 H 0.6233 0.13989 0.31757 0.0
H668 H 0.57475 0.20647 0.94584 0.0
H669 H 0.58052 0.17238 0.85014 0.0
H670 H 0.59398 0.1879 0.05146 0.0
H671 H 0.62693 0.10032 0.96516 0.0
C672 C 0.95749 0.43894 0.7514 0.0
C673 C 1.00551 0.38726 0.73399 0.0
C674 C 0.97061 0.40155 0.76514 0.0
C675 C 0.03218 0.43154 0.66374 0.0
C676 C 0.97499 0.46786 0.70576 0.0
C677 C 0.00966 0.46545 0.66429 0.0
N678 N 0.92805 0.44554 0.77509 0.0
C679 C 0.9151 0.47546 0.77065 0.0
C680 C 0.95872 0.49674 0.70507 0.0
C681 C 0.93008 0.50053 0.73812 0.0
Gd682 Gd 0.8665 0.37093 0.97017 0.0
Gd683 Gd 0.89806 0.4003 0.80662 0.0
N684 N 0.95063 0.38122 0.79446 0.0
C685 C 0.01119 0.35469 0.7523 0.0
C686 C 0.95919 0.35034 0.8042 0.0
C687 C 0.98849 0.33755 0.7858 0.0
H688 H 0.94356 0.33518 0.83026 0.0
H689 H 0.99358 0.31287 0.79751 0.0
H690 H 0.83745 0.44077 0.02115 0.0
H691 H 0.89147 0.4799 0.78897 0.0
H692 H 0.78524 0.46548 0.04407 0.0
H693 H 0.03233 0.34108 0.74092 0.0
H694 H 0.05418 0.4321 0.6357 0.0
H695 H 0.85383 0.29117 0.96461 0.0
H696 H 0.96838 0.51679 0.67898 0.0
H697 H 0.91818 0.52348 0.73613 0.0
H698 H 0.71122 0.37984 0.01853 0.0
H699 H 0.01789 0.48598 0.6378 0.0
H700 H 0.75365 0.27527 0.98097 0.0
H701 H 0.80808 0.25469 0.96281 0.0
N702 N 0.8254 0.33302 0.97546 0.0
C703 C 0.79572 0.34484 0.98733 0.0
C704 C 0.83011 0.30091 0.96923 0.0
C705 C 0.77358 0.2917 0.98011 0.0
C706 C 0.80424 0.27998 0.9696 0.0
C707 C 0.76903 0.32444 0.98977 0.0
H708 H 0.71789 0.32199 0.9996 0.0
N709 N 0.81789 0.39679 0.99075 0.0
C710 C 0.79183 0.37759 0.99472 0.0
C711 C 0.75899 0.42287 0.02299 0.0
C712 C 0.76145 0.39038 1.0084 0.0
C713 C 0.81608 0.4275 1.01191 0.0
C714 C 0.78662 0.4412 0.02706 0.0
O715 O 0.9361 0.39808 0.88688 0.0
O716 O 0.91959 0.35934 0.95785 0.0
O717 O 0.87315 0.39131 0.06555 0.0
O718 O 0.8659 0.34042 0.0535 0.0
O719 O 0.88461 0.34664 0.8096 0.0
O720 O 0.88809 0.32949 0.91449 0.0
O721 O 0.82993 0.37335 0.88578 0.0
O722 O 0.84579 0.41272 0.81883 0.0
O723 O 0.87818 0.37369 0.7244 0.0
O724 O 0.90229 0.41842 0.71102 0.0
O725 O 0.88811 0.42122 0.96863 0.0
O726 O 0.87705 0.44102 0.86854 0.0
C727 C 0.94242 0.37678 0.93214 0.0
C728 C 0.88582 0.32337 0.85248 0.0
C729 C 0.89009 0.35754 0.15001 0.0
C730 C 0.89583 0.36167 0.26566 0.0
C731 C 0.9314 0.32741 0.20476 0.0
C732 C 0.91583 0.33613 0.14799 0.0
C733 C 0.92126 0.33985 0.26352 0.0
C734 C 0.88074 0.37095 0.20857 0.0
C735 C 0.87021 0.36379 0.09368 0.0
C736 C 0.73479 0.37023 1.00949 0.0
C737 C 0.73858 0.33736 0.99962 0.0
H738 H 0.7362 0.43356 0.03487 0.0
C739 C 0.82354 0.39255 0.83688 0.0
C740 C 0.88214 0.44568 0.93072 0.0
C741 C 0.86658 0.40499 0.63101 0.0
C742 C 0.85837 0.40734 0.51575 0.0
C743 C 0.83126 0.44498 0.58508 0.0
C744 C 0.84602 0.43121 0.63852 0.0
C745 C 0.8374 0.43313 0.52376 0.0
C746 C 0.87245 0.3929 0.56952 0.0
C747 C 0.88768 0.39509 0.68339 0.0
H748 H 0.95101 0.31059 0.20334 0.0
H749 H 0.92341 0.32572 0.10292 0.0
H750 H 0.9332 0.33254 0.30731 0.0
H751 H 0.86081 0.38752 0.21024 0.0
H752 H 0.81605 0.46568 0.59088 0.0
H753 H 0.843 0.44211 0.68513 0.0
H754 H 0.82653 0.44453 0.48247 0.0
H755 H 0.88959 0.37373 0.56298 0.0
C756 C 0.44779 0.07254 0.78885 0.0
C757 C 0.49056 0.1093 0.81642 0.0
C758 C 0.46012 0.10336 0.78983 0.0
C759 C 0.50769 0.0842 0.84506 0.0
C760 C 0.46548 0.04708 0.81548 0.0
C761 C 0.49521 0.05318 0.84449 0.0
N762 N 0.41874 0.06737 0.76135 0.0
C763 C 0.40591 0.0374 0.75941 0.0
C764 C 0.45281 0.01621 0.81208 0.0
C765 C 0.42292 0.01136 0.78379 0.0
Gd766 Gd 0.35807 0.14145 0.56142 0.0
Gd767 Gd 0.39104 0.11363 0.73038 0.0
N768 N 0.44286 0.12732 0.76259 0.0
C769 C 0.50318 0.14016 0.81203 0.0
C770 C 0.45585 0.1567 0.75447 0.0
C771 C 0.48602 0.16381 0.77966 0.0
H772 H 0.44354 0.17373 0.72521 0.0
H773 H 0.49616 0.18733 0.77332 0.0
H774 H 0.34091 0.07002 0.48943 0.0
H775 H 0.3823 0.03372 0.73992 0.0
H776 H 0.29674 0.04548 0.43107 0.0
H777 H 0.52653 0.14566 0.83151 0.0
H778 H 0.53098 0.08836 0.86628 0.0
H779 H 0.33754 0.2184 0.57556 0.0
H780 H 0.4658 0.99601 0.83148 0.0
H781 H 0.41274 0.98764 0.78167 0.0
H782 H 0.21936 0.12891 0.41367 0.0
H783 H 0.50905 0.03394 0.86546 0.0
H784 H 0.24059 0.22853 0.51658 0.0
H785 H 0.28882 0.25117 0.56604 0.0
N786 N 0.31449 0.17552 0.54784 0.0
C787 C 0.28834 0.16251 0.51906 0.0
C788 C 0.31555 0.20734 0.56109 0.0
C789 C 0.26105 0.21329 0.52551 0.0
C790 C 0.28827 0.22618 0.55389 0.0
C791 C 0.2614 0.18155 0.50489 0.0
H792 H 0.21643 0.18388 0.45401 0.0
N793 N 0.31571 0.1129 0.51276 0.0
C794 C 0.28928 0.1307 0.49953 0.0
C795 C 0.26661 0.08691 0.43834 0.0
C796 C 0.26421 0.11821 0.46141 0.0
C797 C 0.31882 0.08302 0.48637 0.0
C798 C 0.29406 0.06926 0.45092 0.0
O799 O 0.43049 0.11533 0.65919 0.0
O800 O 0.41262 0.14782 0.57625 0.0
O801 O 0.37686 0.12151 0.47351 0.0
O802 O 0.35831 0.17001 0.47481 0.0
O803 O 0.38004 0.16815 0.72505 0.0
O804 O 0.37845 0.18355 0.61757 0.0
O805 O 0.32016 0.14448 0.64118 0.0
O806 O 0.33803 0.1058 0.70917 0.0
O807 O 0.3949 0.12721 0.83206 0.0
O808 O 0.36453 0.08711 0.79969 0.0
O809 O 0.35769 0.08992 0.59085 0.0
O810 O 0.39909 0.07574 0.65204 0.0
C811 C 0.43571 0.13316 0.609 0.0
C812 C 0.37963 0.1905 0.67957 0.0
C813 C 0.39298 0.1557 0.39016 0.0
C814 C 0.40725 0.15306 0.2775 0.0
C815 C 0.43802 0.18597 0.35123 0.0
C816 C 0.41843 0.17661 0.40184 0.0
C817 C 0.43237 0.17441 0.28915 0.0
C818 C 0.38772 0.1436 0.32824 0.0
C819 C 0.3705 0.14704 0.44033 0.0
C820 C 0.23822 0.13775 0.44472 0.0
C821 C 0.23647 0.16903 0.4677 0.0
H822 H 0.24787 0.07654 0.40894 0.0
C823 C 0.31512 0.12564 0.69106 0.0
C824 C 0.38288 0.07201 0.59846 0.0
C825 C 0.36734 0.0956 0.91406 0.0
C826 C 0.37282 0.10268 0.02967 0.0
C827 C 0.33836 0.06119 0.98684 0.0
C828 C 0.34592 0.0704 0.92472 0.0
C829 C 0.35149 0.07738 0.03911 0.0
C830 C 0.38125 0.11143 0.96691 0.0
C831 C 0.37666 0.10314 0.84786 0.0
H832 H 0.45743 0.20245 0.36001 0.0
H833 H 0.42279 0.18598 0.4496 0.0
H834 H 0.44747 0.18211 0.25019 0.0
H835 H 0.36797 0.12745 0.31912 0.0
H836 H 0.32202 0.0416 0.99452 0.0
H837 H 0.33525 0.05742 0.88502 0.0
H838 H 0.34507 0.07011 0.08717 0.0
H839 H 0.39845 0.13036 0.95959 0.0
C840 C 0.57125 0.56344 0.25918 0.0
C841 C 0.52676 0.59762 0.22923 0.0
C842 C 0.558 0.59372 0.25343 0.0
C843 C 0.51014 0.57089 0.20575 0.0
C844 C 0.55385 0.53643 0.23863 0.0
C845 C 0.52373 0.54043 0.21005 0.0
N846 N 0.60088 0.56032 0.28551 0.0
C847 C 0.61433 0.53071 0.29242 0.0
C848 C 0.5671 0.50613 0.24782 0.0
C849 C 0.59736 0.50333 0.27536 0.0
Gd850 Gd 0.65309 0.63692 0.47467 0.0
Gd851 Gd 0.62801 0.6087 0.3035 0.0
N852 N 0.57487 0.61918 0.27527 0.0
C853 C 0.51285 0.62807 0.23192 0.0
C854 C 0.56115 0.64858 0.27858 0.0
C855 C 0.53005 0.65358 0.25709 0.0
H856 H 0.57315 0.66756 0.30244 0.0
H857 H 0.5191 0.67692 0.26162 0.0
H858 H 0.68698 0.57029 0.52148 0.0
H859 H 0.63873 0.52771 0.30783 0.0
H860 H 0.73759 0.55104 0.56893 0.0
H861 H 0.48841 0.63214 0.21815 0.0
H862 H 0.48611 0.573 0.18737 0.0
H863 H 0.64925 0.71565 0.50072 0.0
H864 H 0.55425 0.48484 0.23341 0.0
H865 H 0.60826 0.48022 0.28178 0.0
H866 H 0.79349 0.64732 0.6179 0.0
H867 H 0.51015 0.51997 0.19351 0.0
H868 H 0.73495 0.74441 0.59635 0.0
H869 H 0.68027 0.75639 0.55813 0.0
N870 N 0.68512 0.67977 0.50904 0.0
C871 C 0.71417 0.67204 0.53388 0.0
C872 C 0.67329 0.70998 0.51613 0.0
C873 C 0.72141 0.72619 0.57126 0.0
C874 C 0.6907 0.73316 0.54925 0.0
C875 C 0.73351 0.69529 0.56399 0.0
H876 H 0.77815 0.70398 0.61411 0.0
N877 N 0.70156 0.61809 0.51583 0.0
C878 C 0.72285 0.64019 0.53645 0.0
C879 C 0.75701 0.59832 0.57747 0.0
C880 C 0.75131 0.63085 0.56773 0.0
C881 C 0.70607 0.58665 0.52929 0.0
C882 C 0.73421 0.57607 0.55834 0.0
O883 O 0.58874 0.6062 0.37822 0.0
O884 O 0.60304 0.64938 0.43791 0.0
O885 O 0.64672 0.61763 0.57119 0.0
O886 O 0.62352 0.66153 0.54356 0.0
O887 O 0.62893 0.66454 0.31032 0.0
O888 O 0.65156 0.67989 0.40791 0.0
O889 O 0.69504 0.61912 0.40897 0.0
O890 O 0.67484 0.63454 0.31291 0.0
O891 O 0.62571 0.62301 0.20356 0.0
O892 O 0.65412 0.58201 0.2313 0.0
O893 O 0.63256 0.5868 0.46699 0.0
O894 O 0.65219 0.57136 0.37071 0.0
C895 C 0.58093 0.62944 0.4176 0.0
C896 C 0.63956 0.687 0.35088 0.0
C897 C 0.6376 0.65629 0.65311 0.0
C898 C 0.64212 0.65096 0.76898 0.0
C899 C 0.64938 0.70266 0.71988 0.0
C900 C 0.64287 0.68931 0.65992 0.0
C901 C 0.64912 0.68357 0.77434 0.0
C902 C 0.63681 0.63725 0.70827 0.0
C903 C 0.62985 0.64196 0.59014 0.0
C904 C 0.77176 0.65417 0.59315 0.0
C905 C 0.76292 0.68638 0.59121 0.0
H906 H 0.77774 0.5903 0.60393 0.0
C907 C 0.69917 0.6247 0.34673 0.0
C908 C 0.64294 0.56394 0.42951 0.0
C909 C 0.63354 0.58331 0.12463 0.0
C910 C 0.6273 0.58468 1.00865 0.0
C911 C 0.6098 0.53836 0.06782 0.0
C912 C 0.62024 0.55256 0.12483 0.0
C913 C 0.6131 0.55443 1.00983 0.0
C914 C 0.63745 0.59912 0.06604 0.0
C915 C 0.64365 0.59954 0.18408 0.0
H916 H 0.65359 0.72807 0.72434 0.0
H917 H 0.6408 0.70516 0.61966 0.0
H918 H 0.65312 0.69439 0.82098 0.0
H919 H 0.63079 0.61222 0.70415 0.0
H920 H 0.5993 0.51477 0.0686 0.0
H921 H 0.61811 0.5393 0.16848 0.0
H922 H 0.60501 0.54319 0.96576 0.0
H923 H 0.64811 0.62271 0.06499 0.0
C924 C 0.16786 0.79597 1.00983 0.0
C925 C 0.12009 0.78743 0.90064 0.0
C926 C 0.13768 0.8078 0.96258 0.0
C927 C 0.12815 0.75056 0.87182 0.0
C928 C 0.18597 0.75948 1.00234 0.0
C929 C 0.15949 0.72701 0.90622 0.0
N930 N 0.18173 0.81864 0.04638 0.0
C931 C 0.21142 0.81369 0.07079 0.0
C932 C 0.21215 0.75637 0.04678 0.0
C933 C 0.22495 0.78331 0.07654 0.0
Gd934 Gd 0.12167 0.9025 0.2181 0.0
Gd935 Gd 0.15616 0.86883 0.05008 0.0
N936 N 0.12691 0.83785 0.97438 0.0
C937 C 0.09589 0.80384 0.86954 0.0
C938 C 0.10376 0.85127 0.93668 0.0
C939 C 0.08809 0.83489 0.88715 0.0
H940 H 0.09755 0.87604 0.94302 0.0
H941 H 0.06972 0.84724 0.86017 0.0
H942 H 0.18119 0.94872 0.27472 0.0
H943 H 0.22546 0.83376 0.0861 0.0
H944 H 0.19538 1.00593 0.27679 0.0
H945 H 0.08324 0.79272 0.82993 0.0
H946 H 0.14363 0.73508 0.88404 0.0
H947 H 0.04105 0.8994 0.20178 0.0
H948 H 0.2254 0.73461 0.05524 0.0
H949 H 0.24721 0.78091 0.10277 0.0
H950 H 0.10177 0.05798 0.19235 0.0
H951 H 0.16773 0.70042 0.88813 0.0
H952 H 0.00923 0.9934 0.15337 0.0
H953 H 0.99859 0.93556 0.16358 0.0
N954 N 0.0766 0.93552 0.20382 0.0
C955 C 0.08235 0.96754 0.2033 0.0
C956 C 0.04645 0.92427 0.1942 0.0
C957 C 0.02817 0.97751 0.16885 0.0
C958 C 0.02213 0.94484 0.17405 0.0
C959 C 0.05836 0.98936 0.18509 0.0
H960 H 0.04773 0.03907 0.16571 0.0
N961 N 0.13622 0.95638 0.23014 0.0
C962 C 0.11296 0.97828 0.21767 0.0
C963 C 0.15029 0.0211 0.23681 0.0
C964 C 0.11989 0.01114 0.21705 0.0
C965 C 0.16468 0.96596 0.25536 0.0
C966 C 0.17242 0.99844 0.25813 0.0
O967 O 0.14675 0.82859 0.12122 0.0
O968 O 0.1233 0.84736 0.216 0.0
O969 O 0.1407 0.8977 0.31599 0.0
O970 O 0.09082 0.90798 0.29991 0.0
O971 O 0.10154 0.88024 0.05753 0.0
O972 O 0.08749 0.87026 0.16218 0.0
O973 O 0.12083 0.93387 0.1274 0.0
O974 O 0.16584 0.91965 0.07933 0.0
O975 O 0.15388 0.89764 0.96295 0.0
O976 O 0.19611 0.86935 0.98444 0.0
O977 O 0.17606 0.89801 0.22046 0.0
O978 O 0.19695 0.87867 0.12444 0.0
C979 C 0.13406 0.82392 0.17849 0.0
C980 C 0.07933 0.87382 0.10113 0.0
C981 C 0.10432 0.88576 0.40115 0.0
C982 C 0.10827 0.87978 0.51804 0.0
C983 C 0.06396 0.85621 0.45888 0.0
C984 C 0.07676 0.8669 0.40128 0.0
C985 C 0.07911 0.86326 0.51687 0.0
C986 C 0.12078 0.89127 0.45959 0.0
C987 C 0.11318 0.90324 0.34237 0.0
C988 C 0.09637 0.03283 0.19671 0.0
C989 C 0.06564 0.02201 0.18111 0.0
H990 H 0.15647 0.04621 0.23795 0.0
C991 C 0.14273 0.94035 0.08481 0.0
C992 C 0.20046 0.88884 0.18493 0.0
C993 C 0.18954 0.88576 0.87528 0.0
C994 C 0.17593 0.88748 0.76077 0.0
C995 C 0.23125 0.8839 0.79476 0.0
C996 C 0.22191 0.88384 0.85871 0.0
C997 C 0.20848 0.88567 0.74615 0.0
C998 C 0.16628 0.88788 0.82581 0.0
C999 C 0.18223 0.88889 0.94448 0.0
H1000 H 0.0421 0.84251 0.45872 0.0
H1001 H 0.06462 0.86134 0.3567 0.0
H1002 H 0.06866 0.85473 0.56102 0.0
H1003 H 0.14268 0.90501 0.45984 0.0
H1004 H 0.25628 0.88263 0.78273 0.0
H1005 H 0.24023 0.88293 0.8956 0.0
H1006 H 0.21627 0.88541 0.69665 0.0
H1007 H 0.14118 0.88966 0.83737 0.0
C1008 C 0.94488 0.57176 0.27423 0.0
C1009 C 0.97871 0.61088 0.32743 0.0
C1010 C 0.95151 0.60334 0.29046 0.0
C1011 C 1.00001 0.58644 0.34505 0.0
C1012 C 0.96589 0.54715 0.29329 0.0
C1013 C 0.99376 0.55476 0.3276 0.0
N1014 N 0.91697 0.56491 0.24368 0.0
C1015 C 0.90783 0.53383 0.23438 0.0
C1016 C 0.9577 0.51546 0.27947 0.0
C1017 C 0.92835 0.50876 0.25057 0.0
Gd1018 Gd 0.85698 0.63697 0.04878 0.0
Gd1019 Gd 0.88482 0.60943 0.21901 0.0
N1020 N 0.93035 0.62647 0.27349 0.0
C1021 C 0.98274 0.64254 0.34802 0.0
C1022 C 0.93386 0.65712 0.29482 0.0
C1023 C 0.96034 0.66571 0.3315 0.0
H1024 H 0.91614 0.67504 0.28414 0.0
H1025 H 0.96312 0.69006 0.3482 0.0
H1026 H 0.81109 0.57706 0.99397 0.0
H1027 H 0.88461 0.52837 0.21425 0.0
H1028 H 0.75447 0.56663 0.9716 0.0
H1029 H 1.00201 0.64944 0.3792 0.0
H1030 H 0.02096 0.59145 0.37362 0.0
H1031 H 0.86883 0.71597 0.024 0.0
H1032 H 0.97336 0.49595 0.29293 0.0
H1033 H 0.92129 0.48428 0.24176 0.0
H1034 H 0.70692 0.67033 0.97848 0.0
H1035 H 0.01023 0.53618 0.34243 0.0
H1036 H 0.77807 0.75891 0.98849 0.0
H1037 H 0.83659 0.7635 1.00094 0.0
N1038 N 0.82889 0.68472 0.0304 0.0
C1039 C 0.79688 0.68137 0.02053 0.0
C1040 C 0.84321 0.71373 0.02252 0.0
C1041 C 0.79201 0.73801 1.00104 0.0
C1042 C 0.82501 0.74074 1.00818 0.0
C1043 C 0.77755 0.70811 1.00664 0.0
H1044 H 0.72962 0.72432 0.98436 0.0
N1045 N 0.80389 0.62525 0.02219 0.0
C1046 C 0.78401 0.65077 0.01663 0.0
C1047 C 0.74058 0.61558 0.98715 0.0
C1048 C 0.75163 0.6465 0.99965 0.0
C1049 C 0.79412 0.59584 1.0018 0.0
C1050 C 0.76217 0.59023 0.98631 0.0
O1051 O 0.92879 0.62373 0.16752 0.0
O1052 O 0.91292 0.63745 0.06356 0.0
O1053 O 0.87663 0.60951 0.96912 0.0
O1054 O 0.85296 0.65467 0.95195 0.0
O1055 O 0.87528 0.66409 0.20384 0.0
O1056 O 0.88434 0.67547 0.09818 0.0
O1057 O 0.82041 0.64249 0.13261 0.0
O1058 O 0.83467 0.59856 0.18756 0.0
O1059 O 0.86978 0.63096 0.30927 0.0
O1060 O 0.86642 0.579 0.29451 0.0
O1061 O 0.85149 0.58482 0.07096 0.0
O1062 O 0.89223 0.57238 0.13735 0.0
C1063 C 0.93541 0.63189 0.10849 0.0
C1064 C 0.88275 0.68494 0.15802 0.0
C1065 C 0.89129 0.6394 0.87741 0.0
C1066 C 0.90367 0.64315 0.76392 0.0
C1067 C 0.93816 0.6684 0.84304 0.0
C1068 C 0.91845 0.65757 0.89227 0.0
C1069 C 0.93073 0.66142 0.77901 0.0
C1070 C 0.8841 0.63204 0.81332 0.0
C1071 C 0.86821 0.63082 0.92671 0.0
C1072 C 0.73188 0.67322 0.99109 0.0
C1073 C 0.74483 0.70396 0.99436 0.0
H1074 H 0.71595 0.61145 0.97384 0.0
C1075 C 0.81427 0.62174 0.1788 0.0
C1076 C 0.87456 0.56533 0.0866 0.0
C1077 C 0.85162 0.59941 0.39902 0.0
C1078 C 0.85862 0.60622 0.51416 0.0
C1079 C 0.81729 0.57114 0.47256 0.0
C1080 C 0.82624 0.57843 0.41004 0.0
C1081 C 0.83376 0.58454 0.52434 0.0
C1082 C 0.86766 0.61369 0.45118 0.0
C1083 C 0.86366 0.60305 0.33378 0.0
H1084 H 0.95899 0.68259 0.85446 0.0
H1085 H 0.92398 0.66388 0.94153 0.0
H1086 H 0.94597 0.67023 0.74124 0.0
H1087 H 0.86283 0.61843 0.80165 0.0
H1088 H 0.79805 0.5545 0.4809 0.0
H1089 H 0.81387 0.56711 0.37026 0.0
H1090 H 0.82762 0.57759 0.57263 0.0
H1091 H 0.88773 0.62946 0.44305 0.0
C1092 C 0.06487 0.06069 0.76321 0.0
C1093 C 0.02043 0.09509 0.73385 0.0
C1094 C 0.05076 0.09067 0.76229 0.0
C1095 C 1.00435 0.06881 0.70709 0.0
C1096 C 0.04839 0.0341 0.73788 0.0
C1097 C 0.01808 0.03831 0.70998 0.0
N1098 N 0.09544 0.05795 0.78505 0.0
C1099 C 0.11066 0.02899 0.78326 0.0
C1100 C 0.06335 1.00422 0.73912 0.0
C1101 C 0.0946 1.00167 0.76196 0.0
Gd1102 Gd 0.14967 0.13595 0.97685 0.0
Gd1103 Gd 0.12102 0.10664 0.81118 0.0
N1104 N 0.06713 0.11574 0.78726 0.0
C1105 C 0.00726 0.12584 0.7328 0.0
C1106 C 0.05443 0.14563 0.78618 0.0
C1107 C 0.02422 0.1512 0.75983 0.0
H1108 H 0.0674 0.16482 0.80775 0.0
H1109 H 0.01417 0.17504 0.76008 0.0
H1110 H 0.18848 0.06747 0.99729 0.0
H1111 H 0.1356 0.0268 0.79558 0.0
H1112 H 0.24285 0.04854 0.01937 0.0
H1113 H 0.98399 0.13018 0.71175 0.0
H1114 H 0.98104 0.07172 0.68508 0.0
H1115 H 0.14722 0.21425 0.01465 0.0
H1116 H 0.05134 0.98317 0.72076 0.0
H1117 H 0.10673 0.97883 0.76109 0.0
H1118 H 0.3007 0.14414 0.05921 0.0
H1119 H 1.00519 0.01819 0.68988 0.0
H1120 H 0.24014 0.2398 0.08314 0.0
H1121 H 0.18338 0.25351 0.06453 0.0
N1122 N 0.18304 0.17831 1.00638 0.0
C1123 C 0.21414 0.17008 0.01666 0.0
C1124 C 0.17216 0.20831 0.02079 0.0
C1125 C 0.22446 0.22251 0.06052 0.0
C1126 C 0.19245 0.23041 0.04994 0.0
C1127 C 0.23583 0.19238 0.04268 0.0
H1128 H 0.28459 0.2002 0.07409 0.0
N1129 N 0.20108 0.1161 0.99202 0.0
C1130 C 0.22342 0.13824 1.00878 0.0
C1131 C 0.26197 0.09609 0.02601 0.0
C1132 C 0.25466 0.12867 0.02528 0.0
C1133 C 0.20728 0.08445 0.99971 0.0
C1134 C 0.23799 0.07382 0.01461 0.0
O1135 O 0.08261 0.11027 0.88825 0.0
O1136 O 0.09827 0.15093 0.9563 0.0
O1137 O 0.12938 0.1098 0.05767 0.0
O1138 O 0.15532 0.15338 0.07384 0.0
O1139 O 0.12882 0.1619 0.81869 0.0
O1140 O 0.12994 0.17917 0.92455 0.0
O1141 O 0.18732 0.13676 0.89409 0.0
O1142 O 0.1732 0.0956 0.82785 0.0
O1143 O 0.13642 0.13661 0.73212 0.0
O1144 O 0.12106 0.08789 0.71475 0.0
O1145 O 0.13112 0.08469 0.97048 0.0
O1146 O 0.14524 0.06737 0.87123 0.0
C1147 C 0.07576 0.1334 0.92907 0.0
C1148 C 0.12918 0.18525 0.86238 0.0
C1149 C 0.1196 0.13938 0.15357 0.0
C1150 C 0.1138 0.14439 0.26916 0.0
C1151 C 0.0743 0.16781 0.19764 0.0
C1152 C 0.09136 0.15679 0.14443 0.0
C1153 C 0.08542 0.16164 0.25984 0.0
C1154 C 0.13077 0.13332 0.21581 0.0
C1155 C 0.13998 0.13024 0.09994 0.0
C1156 C 0.27686 0.15145 0.04593 0.0
C1157 C 0.26753 0.18324 0.05478 0.0
H1158 H 0.28535 0.08789 0.04032 0.0
C1159 C 0.194 0.11733 0.84543 0.0
C1160 C 0.13838 0.06109 0.93157 0.0
C1161 C 0.15344 0.11063 0.63711 0.0
C1162 C 0.16139 0.11172 0.52209 0.0
C1163 C 0.20206 0.08911 0.59228 0.0
C1164 C 0.1834 0.09631 0.64571 0.0
C1165 C 0.19076 0.09612 0.53067 0.0
C1166 C 0.1426 0.11843 0.57561 0.0
C1167 C 0.13112 0.11427 0.68967 0.0
H1168 H 0.05251 0.18129 0.19068 0.0
H1169 H 0.08286 0.16222 0.09649 0.0
H1170 H 0.07193 0.17017 0.30063 0.0
H1171 H 0.15289 0.12023 0.22289 0.0
H1172 H 0.22486 0.0773 0.59843 0.0
H1173 H 0.19172 0.08971 0.69312 0.0
H1174 H 0.20435 0.08848 0.48965 0.0
H1175 H 0.11924 0.12922 0.5691 0.0
C1176 C 0.66901 0.30093 0.51876 0.0
C1177 C 0.62571 0.29141 0.4019 0.0
C1178 C 0.64035 0.31204 0.46657 0.0
C1179 C 0.63556 0.25475 0.37472 0.0
C1180 C 0.68775 0.26452 0.51434 0.0
C1181 C 0.66566 0.23172 0.41441 0.0
N1182 N 0.68092 0.32392 0.55799 0.0
C1183 C 0.709 0.31887 0.58972 0.0
C1184 C 0.71284 0.26208 0.56116 0.0
C1185 C 0.72374 0.289 0.59359 0.0
Gd1186 Gd 0.6246 0.4086 0.72182 0.0
Gd1187 Gd 0.65283 0.37333 0.5547 0.0
N1188 N 0.62642 0.34048 0.47963 0.0
C1189 C 0.60079 0.30624 0.36979 0.0
C1190 C 0.60114 0.35151 0.44427 0.0
C1191 C 0.58858 0.3352 0.39124 0.0
H1192 H 0.59086 0.37456 0.45476 0.0
H1193 H 0.56885 0.34582 0.36517 0.0
H1194 H 0.69953 0.43624 0.76488 0.0
H1195 H 0.72075 0.33763 0.6155 0.0
H1196 H 0.72707 0.48693 0.77364 0.0
H1197 H 0.58993 0.29479 0.32846 0.0
H1198 H 0.65073 0.23961 0.38969 0.0
H1199 H 0.5474 0.42648 0.7156 0.0
H1200 H 0.72652 0.24069 0.57075 0.0
H1201 H 0.74475 0.2867 0.62376 0.0
H1202 H 0.64462 0.56445 0.75027 0.0
H1203 H 0.67504 0.2053 0.39757 0.0
H1204 H 0.53761 0.52817 0.71765 0.0
H1205 H 0.51364 0.47484 0.70776 0.0
N1206 N 0.59064 0.45273 0.71918 0.0
C1207 C 0.60452 0.48186 0.72585 0.0
C1208 C 0.55831 0.44981 0.71712 0.0
C1209 C 0.55277 0.50719 0.71889 0.0
C1210 C 0.53903 0.47702 0.71427 0.0
C1211 C 0.58582 0.50992 0.72601 0.0
H1212 H 0.58654 0.56149 0.73445 0.0
N1213 N 0.65487 0.45604 0.73518 0.0
C1214 C 0.63747 0.48359 0.73357 0.0
C1215 C 0.68494 0.51476 0.75486 0.0
C1216 C 0.65214 0.5136 0.74298 0.0
C1217 C 0.68637 0.45725 0.7528 0.0
C1218 C 0.70202 0.48641 0.76074 0.0
O1219 O 0.6285 0.33569 0.61485 0.0
O1220 O 0.63576 0.35404 0.71907 0.0
O1221 O 0.63618 0.41484 0.82341 0.0
O1222 O 0.58889 0.40045 0.79463 0.0
O1223 O 0.59903 0.38603 0.566 0.0
O1224 O 0.58478 0.38201 0.67267 0.0
O1225 O 0.62096 0.43987 0.62878 0.0
O1226 O 0.66648 0.42325 0.58415 0.0
O1227 O 0.64265 0.40402 0.4738 0.0
O1228 O 0.68339 0.37079 0.46979 0.0
O1229 O 0.67459 0.39054 0.72602 0.0
O1230 O 0.69548 0.38527 0.62377 0.0
C1231 C 0.63129 0.33044 0.67687 0.0
C1232 C 0.57722 0.38269 0.61153 0.0
C1233 C 0.60731 0.38251 0.89629 0.0
C1234 C 0.61556 0.3709 1.01028 0.0
C1235 C 0.58775 0.33292 0.94174 0.0
C1236 C 0.59188 0.35291 0.88903 0.0
C1237 C 0.599 0.34205 1.00218 0.0
C1238 C 0.61979 0.39109 0.95695 0.0
C1239 C 0.60829 0.40549 0.84252 0.0
C1240 C 0.63359 0.54147 0.7426 0.0
C1241 C 0.60055 0.53971 0.73392 0.0
H1242 H 0.69701 0.53734 0.76239 0.0
C1243 C 0.64415 0.44506 0.58722 0.0
C1244 C 0.69894 0.38669 0.68771 0.0
C1245 C 0.67334 0.4047 0.3771 0.0
C1246 C 0.66397 0.40727 0.26151 0.0
C1247 C 0.69365 0.44927 0.31605 0.0
C1248 C 0.68978 0.43372 0.37462 0.0
C1249 C 0.68074 0.43623 0.25983 0.0
C1250 C 0.66042 0.39139 0.32044 0.0
C1251 C 0.66497 0.39101 0.43924 0.0
H1252 H 0.57541 0.31041 0.93588 0.0
H1253 H 0.5824 0.34544 0.84291 0.0
H1254 H 0.59521 0.3264 0.04268 0.0
H1255 H 0.6319 0.41376 0.96318 0.0
H1256 H 0.70623 0.4718 0.31439 0.0
H1257 H 0.69896 0.44465 0.41813 0.0
H1258 H 0.68362 0.44884 0.21495 0.0
H1259 H 0.64675 0.36946 0.32244 0.0
C1260 C 0.45426 0.93896 0.25478 0.0
C1261 C 0.50151 0.88629 0.24391 0.0
C1262 C 0.46681 0.90215 0.27323 0.0
C1263 C 0.52859 0.92741 0.1675 0.0
C1264 C 0.47217 0.9661 0.20554 0.0
C1265 C 0.50664 0.96171 0.16381 0.0
N1266 N 0.42569 0.9471 0.27986 0.0
C1267 C 0.41375 0.97721 0.27355 0.0
C1268 C 0.45676 0.9954 0.20269 0.0
C1269 C 0.42894 1.00099 0.23754 0.0
Gd1270 Gd 0.35927 0.8735 0.4757 0.0
Gd1271 Gd 0.39403 0.90472 0.3178 0.0
N1272 N 0.44604 0.88321 0.3039 0.0
C1273 C 0.50657 0.85437 0.26693 0.0
C1274 C 0.45426 0.85273 0.31898 0.0
C1275 C 0.48347 0.8389 0.30277 0.0
H1276 H 0.43847 0.83856 0.34711 0.0
H1277 H 0.48819 0.81468 0.3184 0.0
H1278 H 0.32529 0.94831 0.4457 0.0
H1279 H 0.39074 0.98283 0.29387 0.0
H1280 H 0.27421 0.97424 0.46244 0.0
H1281 H 0.52753 0.84005 0.25779 0.0
H1282 H 0.55046 0.92658 0.13906 0.0
H1283 H 0.34425 0.79454 0.48513 0.0
H1284 H 0.46674 0.01444 0.17423 0.0
H1285 H 0.41776 0.02426 0.23425 0.0
H1286 H 0.20426 0.8897 0.52192 0.0
H1287 H 0.51514 0.98121 0.13466 0.0
H1288 H 0.24441 0.78301 0.51771 0.0
H1289 H 0.29735 0.75995 0.49669 0.0
N1290 N 0.31708 0.83749 0.48838 0.0
C1291 C 0.28779 0.851 0.49684 0.0
C1292 C 0.32084 0.80508 0.49007 0.0
C1293 C 0.26459 0.79862 0.50981 0.0
C1294 C 0.29453 0.78537 0.49889 0.0
C1295 C 0.26089 0.83177 0.50923 0.0
H1296 H 0.21028 0.83157 0.52974 0.0
N1297 N 0.31016 0.90211 0.47489 0.0
C1298 C 0.28437 0.88406 0.49137 0.0
C1299 C 0.25058 0.93105 0.49054 0.0
C1300 C 0.25395 0.89818 0.49947 0.0
C1301 C 0.30618 0.93393 0.46254 0.0
C1302 C 0.27674 0.9489 0.47134 0.0
O1303 O 0.42938 0.90655 0.39936 0.0
O1304 O 0.41337 0.86382 0.45986 0.0
O1305 O 0.37434 0.89189 0.57038 0.0
O1306 O 0.3495 0.84752 0.56224 0.0
O1307 O 0.38073 0.85008 0.32061 0.0
O1308 O 0.38123 0.83152 0.42508 0.0
O1309 O 0.32585 0.87183 0.38508 0.0
O1310 O 0.34289 0.91657 0.33851 0.0
O1311 O 0.39727 0.88806 0.21819 0.0
O1312 O 0.36441 0.92577 0.24434 0.0
O1313 O 0.38066 0.9227 0.48695 0.0
O1314 O 0.38406 0.94712 0.38845 0.0
C1315 C 0.43598 0.88417 0.44159 0.0
C1316 C 0.38014 0.8261 0.36288 0.0
C1317 C 0.37812 0.85498 0.65803 0.0
C1318 C 0.38559 0.85756 0.77399 0.0
C1319 C 0.39683 0.80847 0.71658 0.0
C1320 C 0.38872 0.82315 0.65869 0.0
C1321 C 0.39469 0.82533 0.77395 0.0
C1322 C 0.37752 0.87248 0.71568 0.0
C1323 C 0.36203 0.86802 0.60095 0.0
C1324 C 0.22761 0.87912 0.51488 0.0
C1325 C 0.23103 0.84602 0.51933 0.0
H1326 H 0.2277 0.94272 0.49663 0.0
C1327 C 0.32146 0.89412 0.34102 0.0
C1328 C 0.38327 0.94863 0.45259 0.0
C1329 C 0.381 0.92472 0.1361 0.0
C1330 C 0.38451 0.92174 0.01968 0.0
C1331 C 0.38431 0.97328 0.07256 0.0
C1332 C 0.38086 0.95825 0.13166 0.0
C1333 C 0.3863 0.95512 0.0167 0.0
C1334 C 0.38223 0.90651 0.07947 0.0
C1335 C 0.37601 0.90854 0.19801 0.0
H1336 H 0.40412 0.78373 0.71776 0.0
H1337 H 0.38929 0.80932 0.61476 0.0
H1338 H 0.40054 0.81335 0.81849 0.0
H1339 H 0.36933 0.89707 0.71575 0.0
H1340 H 0.38451 0.9991 0.06989 0.0
H1341 H 0.37695 0.97303 0.17326 0.0
H1342 H 0.38818 0.96707 0.97086 0.0
H1343 H 0.38073 0.88068 0.08163 0.0
C1344 C 0.15439 0.59849 0.66955 0.0
C1345 C 0.15712 0.62725 0.70563 0.0
C1346 C 0.13062 0.65723 0.61992 0.0
C1347 C 0.12707 0.62837 0.58462 0.0
N1348 N 0.13955 0.57259 0.56951 0.0
N1349 N 0.14508 0.68315 0.72017 0.0
C1350 C 0.14028 0.59931 0.60743 0.0
C1351 C 0.14447 0.65643 0.6822 0.0
N1352 N 0.1633 0.57008 0.69675 0.0
N1353 N 0.12211 0.6856 0.59214 0.0
H1354 H 0.15676 0.6841 0.76443 0.0
H1355 H 0.13248 0.70398 0.70995 0.0
H1356 H 0.11299 0.68715 0.54557 0.0
H1357 H 0.12655 0.7079 0.61241 0.0
H1358 H 0.15908 0.54782 0.67617 0.0
H1359 H 0.17281 0.56834 0.74296 0.0
H1360 H 0.15279 0.55208 0.57894 0.0
H1361 H 0.12733 0.57142 0.52592 0.0
C1362 C 0.6021 0.91639 0.90944 0.0
C1363 C 0.62545 0.90187 0.94947 0.0
C1364 C 0.63836 0.86368 0.86351 0.0
C1365 C 0.61457 0.87775 0.82378 0.0
N1366 N 0.57063 0.91453 0.81139 0.0
N1367 N 0.65938 0.85686 0.97124 0.0
C1368 C 0.59543 0.90319 0.84766 0.0
C1369 C 0.6417 0.87405 0.92837 0.0
N1370 N 0.58686 0.94339 0.93017 0.0
N1371 N 0.65795 0.84051 0.83922 0.0
H1372 H 0.66047 0.86297 0.01963 0.0
H1373 H 0.66983 0.83489 0.96086 0.0
H1374 H 0.65531 0.83103 0.79319 0.0
H1375 H 0.67822 0.83219 0.86301 0.0
H1376 H 0.57283 0.95781 0.90076 0.0
H1377 H 0.58931 0.95216 0.97687 0.0
H1378 H 0.55315 0.92987 0.82892 0.0
H1379 H 0.56655 0.90745 0.76403 0.0
C1380 C 0.36493 0.3637 0.169 0.0
C1381 C 0.35485 0.39487 0.18736 0.0
C1382 C 0.37625 0.41709 0.08759 0.0
C1383 C 0.3881 0.38645 0.07131 0.0
N1384 N 0.39113 0.3298 0.08977 0.0
N1385 N 0.35142 0.45135 0.1657 0.0
C1386 C 0.38174 0.35945 0.11027 0.0
C1387 C 0.36027 0.42147 0.14659 0.0
N1388 N 0.35814 0.33835 0.20791 0.0
N1389 N 0.37963 0.442 0.04575 0.0
H1390 H 0.33583 0.45522 0.2032 0.0
H1391 H 0.35989 0.47235 0.1454 0.0
H1392 H 0.39363 0.44092 1.00466 0.0
H1393 H 0.36719 0.46345 0.04955 0.0
H1394 H 0.36582 0.31506 0.20031 0.0
H1395 H 0.34413 0.34044 0.2489 0.0
H1396 H 0.38751 0.30867 0.1146 0.0
H1397 H 0.40222 0.32591 0.04575 0.0
C1398 C 0.86323 0.1517 0.42694 0.0
C1399 C 0.89006 0.13536 0.45296 0.0
C1400 C 0.8935 0.10175 0.35636 0.0
C1401 C 0.86619 0.11755 0.33122 0.0
N1402 N 0.82802 0.16051 0.33541 0.0
N1403 N 0.93038 0.09437 0.4457 0.0
C1404 C 0.85198 0.1435 0.36441 0.0
C1405 C 0.90523 0.11032 0.41834 0.0
N1406 N 0.84767 0.17396 0.46351 0.0
N1407 N 0.90854 0.07917 0.31976 0.0
H1408 H 0.94049 0.10095 0.48962 0.0
H1409 H 0.94085 0.07395 0.42668 0.0
H1410 H 0.9006 0.07279 0.27398 0.0
H1411 H 0.92978 0.06789 0.33223 0.0
H1412 H 0.8264 0.18499 0.45032 0.0
H1413 H 0.85507 0.18034 0.50966 0.0
H1414 H 0.81832 0.18148 0.35375 0.0
H1415 H 0.81902 0.1548 0.29005 0.0
C1416 C 0.16543 0.39109 0.3671 0.0
C1417 C 0.13614 0.38023 0.33976 0.0
C1418 C 0.10847 0.39486 0.43972 0.0
C1419 C 0.1368 0.40888 0.46419 0.0
N1420 N 0.19186 0.42318 0.44912 0.0
N1421 N 0.07876 0.37761 0.3458 0.0
C1422 C 0.16522 0.40774 0.42725 0.0
C1423 C 0.1074 0.38363 0.37512 0.0
N1424 N 0.19356 0.38444 0.33702 0.0
N1425 N 0.08244 0.39227 0.47847 0.0
H1426 H 0.0768 0.37076 0.29777 0.0
H1427 H 0.05682 0.38252 0.36686 0.0
H1428 H 0.08225 0.40078 0.52556 0.0
H1429 H 0.06221 0.37915 0.4661 0.0
H1430 H 0.21586 0.38865 0.35762 0.0
H1431 H 0.19477 0.37227 0.29338 0.0
H1432 H 0.21209 0.4268 0.42134 0.0
H1433 H 0.19303 0.43392 0.49432 0.0
C1434 C 0.87127 0.8515 0.66521 0.0
C1435 C 0.89199 0.86997 0.70445 0.0
C1436 C 0.89638 0.90993 0.61909 0.0
C1437 C 0.87578 0.89125 0.57997 0.0
N1438 N 0.85347 0.8394 0.55742 0.0
N1439 N 0.93108 0.91204 0.7125 0.0
C1440 C 0.86626 0.86051 0.60037 0.0
C1441 C 0.90672 0.89776 0.67943 0.0
N1442 N 0.85583 0.82564 0.68998 0.0
N1443 N 0.90576 0.93946 0.5989 0.0
H1444 H 0.93838 0.90475 0.75808 0.0
H1445 H 0.94528 0.92996 0.69329 0.0
H1446 H 0.90048 0.94816 0.55319 0.0
H1447 H 0.9174 0.95587 0.62846 0.0
H1448 H 0.83754 0.81379 0.66561 0.0
H1449 H 0.85971 0.81735 0.7365 0.0
H1450 H 0.8502 0.8153 0.56787 0.0
H1451 H 0.84839 0.84523 0.50989 0.0
C1452 C 0.34167 0.60541 0.86957 0.0
C1453 C 0.34718 0.63222 0.82966 0.0
C1454 C 0.3783 0.6576 0.91532 0.0
C1455 C 0.37693 0.62887 0.95109 0.0
N1456 N 0.35953 0.57418 0.9606 0.0
N1457 N 0.3725 0.68302 0.81153 0.0
C1458 C 0.35885 0.60252 0.92825 0.0
C1459 C 0.3659 0.65821 0.85179 0.0
N1460 N 0.31983 0.58284 0.85161 0.0
N1461 N 0.39128 0.68432 0.94271 0.0
H1462 H 0.36318 0.68463 0.76512 0.0
H1463 H 0.38895 0.70088 0.82236 0.0
H1464 H 0.40001 0.68459 0.98973 0.0
H1465 H 0.39064 0.70678 0.92146 0.0
H1466 H 0.31222 0.56464 0.88175 0.0
H1467 H 0.30737 0.58367 0.80818 0.0
H1468 H 0.35024 0.553 0.94203 0.0
H1469 H 0.37125 0.57118 1.0044 0.0
C1470 C 0.64994 0.14787 0.10775 0.0
C1471 C 0.6236 0.13197 0.07899 0.0
C1472 C 0.61814 0.09784 0.17387 0.0
C1473 C 0.64294 0.1154 0.20416 0.0
N1474 N 0.68019 0.15926 0.20474 0.0
N1475 N 0.58094 0.09342 0.08446 0.0
C1476 C 0.65819 0.14108 0.17246 0.0
C1477 C 0.60735 0.10716 0.1118 0.0
N1478 N 0.66771 0.16864 0.07221 0.0
N1479 N 0.60504 0.07227 0.20475 0.0
H1480 H 0.57222 0.09965 0.03928 0.0
H1481 H 0.5663 0.07712 0.10749 0.0
H1482 H 0.61125 0.06587 0.25153 0.0
H1483 H 0.58919 0.05627 0.18356 0.0
H1484 H 0.68867 0.17927 0.08845 0.0
H1485 H 0.66294 0.17345 0.02402 0.0
H1486 H 0.68955 0.18047 0.18715 0.0
H1487 H 0.68762 0.15438 0.25154 0.0
C1488 C 0.90491 0.3968 0.36119 0.0
C1489 C 0.88506 0.37475 0.32811 0.0
C1490 C 0.84627 0.37615 0.41601 0.0
C1491 C 0.86715 0.39668 0.45048 0.0
N1492 N 0.91727 0.42465 0.46035 0.0
N1493 N 0.83553 0.34567 0.31879 0.0
C1494 C 0.89671 0.40655 0.42424 0.0
C1495 C 0.85522 0.36517 0.35392 0.0
N1496 N 0.93071 0.40967 0.33076 0.0
N1497 N 0.81871 0.36598 0.4444 0.0
H1498 H 0.84221 0.33516 0.27552 0.0
H1499 H 0.81211 0.34037 0.3308 0.0
H1500 H 0.8116 0.37343 0.48993 0.0
H1501 H 0.80318 0.34922 0.42487 0.0
H1502 H 0.9443 0.42836 0.34926 0.0
H1503 H 0.93711 0.4036 0.28399 0.0
H1504 H 0.94085 0.42901 0.44776 0.0
H1505 H 0.91144 0.43396 0.50524 0.0
C1506 C 0.37801 0.15773 0.17283 0.0
C1507 C 0.40064 0.14139 0.21153 0.0
C1508 C 0.40891 0.10192 0.12594 0.0
C1509 C 0.38665 0.11874 0.08703 0.0
N1510 N 0.3571 0.16706 0.06612 0.0
N1511 N 0.44071 0.10046 0.22385 0.0
C1512 C 0.37345 0.14807 0.10816 0.0
C1513 C 0.41716 0.11427 0.18758 0.0
N1514 N 0.35995 0.18176 0.19856 0.0
N1515 N 0.42157 0.07382 0.10411 0.0
H1516 H 0.44632 0.10804 0.27029 0.0
H1517 H 0.45594 0.08269 0.20712 0.0
H1518 H 0.41786 0.06544 0.05745 0.0
H1519 H 0.43488 0.05825 0.13234 0.0
H1520 H 0.34023 0.19163 0.17523 0.0
H1521 H 0.36307 0.19022 0.2453 0.0
H1522 H 0.34978 0.19022 0.07707 0.0
H1523 H 0.35302 0.16073 0.0184 0.0
C1524 C 0.65659 0.59263 0.90558 0.0
C1525 C 0.63117 0.60133 0.94686 0.0
C1526 C 0.61035 0.63824 0.86626 0.0
C1527 C 0.63759 0.63214 0.82804 0.0
N1528 N 0.68876 0.60676 0.81374 0.0
N1529 N 0.58603 0.63511 0.97104 0.0
C1530 C 0.66128 0.61009 0.84816 0.0
C1531 C 0.60871 0.62502 0.92861 0.0
N1532 N 0.67608 0.56755 0.92103 0.0
N1533 N 0.58555 0.6558 0.84193 0.0
H1534 H 0.58301 0.62499 0.01624 0.0
H1535 H 0.57162 0.65504 0.96329 0.0
H1536 H 0.58563 0.6654 0.7958 0.0
H1537 H 0.5637 0.65838 0.86492 0.0
H1538 H 0.6924 0.55756 0.88925 0.0
H1539 H 0.67478 0.55547 0.96461 0.0
H1540 H 0.7085 0.59392 0.82994 0.0
H1541 H 0.69276 0.61871 0.77071 0.0
C1542 C 0.13259 0.85507 0.61671 0.0
C1543 C 0.12558 0.88315 0.58098 0.0
C1544 C 0.14865 0.91554 0.6685 0.0
C1545 C 0.15305 0.88745 0.70568 0.0
N1546 N 0.14185 0.83168 0.72125 0.0
N1547 N 0.12185 0.94075 0.57829 0.0
C1548 C 0.14237 0.85767 0.68182 0.0
C1549 C 0.13224 0.91366 0.6083 0.0
N1550 N 0.13167 0.82584 0.58734 0.0
N1551 N 0.16066 0.9439 0.69037 0.0
H1552 H 0.10922 0.94039 0.53508 0.0
H1553 H 0.12329 0.96341 0.59885 0.0
H1554 H 0.17084 0.94641 0.73594 0.0
H1555 H 0.16191 0.96441 0.66238 0.0
H1556 H 0.13929 0.80489 0.60951 0.0
H1557 H 0.12676 0.82293 0.53855 0.0
H1558 H 0.13114 0.81014 0.70833 0.0
H1559 H 0.14917 0.83265 0.76913 0.0
C1560 C 0.87275 0.65539 0.66343 0.0
C1561 C 0.89537 0.63598 0.69612 0.0
C1562 C 0.89865 0.60013 0.60306 0.0
C1563 C 0.87571 0.61936 0.57092 0.0
N1564 N 0.84725 0.66911 0.56232 0.0
N1565 N 0.93368 0.59297 0.69524 0.0
C1566 C 0.86485 0.64831 0.59854 0.0
C1567 C 0.90966 0.60937 0.66511 0.0
N1568 N 0.85793 0.67984 0.69523 0.0
N1569 N 0.90897 0.57249 0.57481 0.0
H1570 H 0.94125 0.59808 0.74191 0.0
H1571 H 0.94751 0.57555 0.67305 0.0
H1572 H 0.9029 0.56621 0.52781 0.0
H1573 H 0.92256 0.5552 0.59815 0.0
H1574 H 0.8384 0.69226 0.67679 0.0
H1575 H 0.86384 0.68648 0.74208 0.0
H1576 H 0.8412 0.69205 0.57738 0.0
H1577 H 0.84075 0.66432 0.51487 0.0
C1578 C 0.13828 0.09587 0.4152 0.0
C1579 C 0.14949 0.12023 0.45709 0.0
C1580 C 0.13854 0.16065 0.37471 0.0
C1581 C 0.12528 0.13655 0.3348 0.0
N1582 N 0.10589 0.08281 0.32233 0.0
N1583 N 0.15558 0.17642 0.48139 0.0
C1584 C 0.12351 0.10453 0.35635 0.0
C1585 C 0.14807 0.15285 0.43833 0.0
N1586 N 0.14128 0.06446 0.4319 0.0
N1587 N 0.14321 0.19068 0.35097 0.0
H1588 H 0.16514 0.17191 0.52675 0.0
H1589 H 0.15094 0.20052 0.47328 0.0
H1590 H 0.13661 0.19725 0.30451 0.0
H1591 H 0.15591 0.20836 0.37531 0.0
H1592 H 0.13777 0.04572 0.39964 0.0
H1593 H 0.14913 0.05697 0.47694 0.0
H1594 H 0.10119 0.05975 0.33814 0.0
H1595 H 0.09294 0.089 0.28139 0.0
C1596 C 0.62073 0.40797 0.17771 0.0
C1597 C 0.64959 0.39456 0.20099 0.0
C1598 C 0.654 0.36266 0.10252 0.0
C1599 C 0.62783 0.37972 0.0754 0.0
N1600 N 0.58723 0.42041 0.086 0.0
N1601 N 0.6949 0.36007 0.18523 0.0
C1602 C 0.61154 0.40303 0.1126 0.0
C1603 C 0.66643 0.37193 0.16352 0.0
N1604 N 0.60126 0.42403 0.21904 0.0
N1605 N 0.66674 0.33721 0.07048 0.0
H1606 H 0.70407 0.36527 0.23072 0.0
H1607 H 0.71033 0.34665 0.15685 0.0
H1608 H 0.66051 0.33125 0.02345 0.0
H1609 H 0.68223 0.32091 0.09198 0.0
H1610 H 0.57844 0.43187 0.20684 0.0
H1611 H 0.60657 0.42612 0.26783 0.0
H1612 H 0.5772 0.44033 0.10823 0.0
H1613 H 0.57838 0.41628 0.03987 0.0
C1614 C 0.41217 0.88882 0.93668 0.0
C1615 C 0.38377 0.90322 0.95911 0.0
C1616 C 0.35548 0.8865 0.86125 0.0
C1617 C 0.38483 0.87513 0.83601 0.0
N1618 N 0.44218 0.87113 0.84444 0.0
N1619 N 0.32876 0.91836 0.9422 0.0
C1620 C 0.41347 0.87777 0.87241 0.0
C1621 C 0.35552 0.9029 0.92109 0.0
N1622 N 0.43792 0.88562 0.97676 0.0
N1623 N 0.32744 0.88024 0.82982 0.0
H1624 H 0.32702 0.92842 0.98791 0.0
H1625 H 0.30889 0.92275 0.9133 0.0
H1626 H 0.32619 0.86779 0.78652 0.0
H1627 H 0.3051 0.88491 0.8493 0.0
H1628 H 0.45781 0.87181 0.96549 0.0
H1629 H 0.43841 0.89454 0.02352 0.0
H1630 H 0.46408 0.87544 0.86666 0.0
H1631 H 0.44435 0.86437 0.79645 0.0
C1632 C 0.16541 0.74008 0.20849 0.0
C1633 C 0.13725 0.72132 0.20983 0.0
C1634 C 0.10616 0.77172 0.21733 0.0
C1635 C 0.134 0.78951 0.20245 0.0
N1636 N 0.18801 0.79118 0.23631 0.0
N1637 N 0.0853 0.72168 0.25882 0.0
C1638 C 0.1634 0.77394 0.21189 0.0
C1639 C 0.10849 0.73762 0.22663 0.0
N1640 N 0.19437 0.72551 0.20976 0.0
N1641 N 0.07812 0.7874 0.22653 0.0
H1642 H 0.0885 0.69844 0.27523 0.0
H1643 H 0.06478 0.73249 0.27657 0.0
H1644 H 0.07689 0.81223 0.22873 0.0
H1645 H 0.05631 0.77583 0.23138 0.0
H1646 H 0.21551 0.73763 0.20012 0.0
H1647 H 0.1966 0.70161 0.22279 0.0
H1648 H 0.20935 0.78092 0.25186 0.0
H1649 H 0.18446 0.81482 0.25086 0.0
C1650 C 0.52268 0.851 0.44262 0.0
C1651 C 0.54021 0.88014 0.44177 0.0
C1652 C 0.48988 0.90933 0.46468 0.0
C1653 C 0.47166 0.88075 0.45807 0.0
N1654 N 0.47242 0.82309 0.46102 0.0
N1655 N 0.54116 0.93588 0.46818 0.0
C1656 C 0.48862 0.85112 0.45391 0.0
C1657 C 0.5239 0.90884 0.45804 0.0
N1658 N 0.53878 0.82307 0.43254 0.0
N1659 N 0.47425 0.93743 0.47629 0.0
H1660 H 0.56521 0.93708 0.45731 0.0
H1661 H 0.53222 0.95675 0.48852 0.0
H1662 H 0.45056 0.93812 0.49131 0.0
H1663 H 0.48427 0.95994 0.47036 0.0
H1664 H 0.52794 0.80113 0.42413 0.0
H1665 H 0.56362 0.82204 0.43122 0.0
H1666 H 0.4831 0.80068 0.46198 0.0
H1667 H 0.44828 0.82204 0.4716 0.0
C1668 C 0.34933 0.27663 0.67448 0.0
C1669 C 0.37847 0.29402 0.67889 0.0
C1670 C 0.40511 0.24418 0.71421 0.0
C1671 C 0.37784 0.22614 0.69688 0.0
N1672 N 0.32112 0.22735 0.6995 0.0
N1673 N 0.43386 0.29449 0.71043 0.0
C1674 C 0.34892 0.24315 0.68895 0.0
C1675 C 0.40633 0.27777 0.70086 0.0
N1676 N 0.32232 0.29178 0.65398 0.0
N1677 N 0.42707 0.23051 0.75367 0.0
H1678 H 0.43483 0.31932 0.70737 0.0
H1679 H 0.45587 0.2836 0.71863 0.0
H1680 H 0.421 0.20997 0.77888 0.0
H1681 H 0.44731 0.24208 0.77113 0.0
H1682 H 0.30007 0.28104 0.6506 0.0
H1683 H 0.32235 0.31535 0.63841 0.0
H1684 H 0.29881 0.23828 0.70029 0.0
H1685 H 0.32132 0.2036 0.71449 0.0
C1686 C 0.99007 0.16552 0.91876 0.0
C1687 C 0.97257 0.139 0.94266 0.0
C1688 C 0.02363 0.11441 0.97715 0.0
C1689 C 0.04091 0.13864 0.94508 0.0
N1690 N 0.04115 0.19268 0.9068 0.0
N1691 N 0.97287 0.09418 0.01545 0.0
C1692 C 0.02425 0.16602 0.92285 0.0
C1693 C 0.98939 0.11529 0.97857 0.0
N1694 N 0.97374 0.19063 0.89324 0.0
N1695 N 0.04031 0.09092 1.00777 0.0
H1696 H 0.94833 0.09488 0.02102 0.0
H1697 H 0.98322 0.07734 0.04557 0.0
H1698 H 0.06499 0.09212 0.01413 0.0
H1699 H 0.03014 0.07056 0.02718 0.0
H1700 H 0.98433 0.20946 0.8691 0.0
H1701 H 0.94905 0.19256 0.89683 0.0
H1702 H 0.03109 0.21445 0.89394 0.0
H1703 H 0.06588 0.1938 0.91062 0.0
C1704 C 0.10496 0.2722 0.81858 0.0
C1705 C 0.13216 0.28946 0.8405 0.0
C1706 C 0.16017 0.23791 0.85743 0.0
C1707 C 0.13197 0.22052 0.84277 0.0
N1708 N 0.08639 0.22205 0.77271 0.0
N1709 N 0.18904 0.28729 0.84097 0.0
C1710 C 0.10658 0.23784 0.8129 0.0
C1711 C 0.16086 0.27181 0.84856 0.0
N1712 N 0.07801 0.28833 0.80139 0.0
N1713 N 0.18685 0.22199 0.87724 0.0
H1714 H 0.18929 0.31099 0.82597 0.0
H1715 H 0.21113 0.27586 0.8403 0.0
H1716 H 0.18794 0.1972 0.87977 0.0
H1717 H 0.20754 0.23335 0.89273 0.0
H1718 H 0.05651 0.27699 0.79079 0.0
H1719 H 0.07688 0.31319 0.801 0.0
H1720 H 0.06798 0.23307 0.74731 0.0
H1721 H 0.09249 0.1995 0.75554 0.0
C1722 C 0.02513 0.84716 0.11466 0.0
C1723 C 0.0433 0.87096 0.08372 0.0
C1724 C 0.99112 0.89316 0.04429 0.0
C1725 C 0.97396 0.87456 0.08976 0.0
N1726 N 0.97662 0.83243 0.16855 0.0
N1727 N 0.04199 0.91329 1.00544 0.0
C1728 C 0.99163 0.85124 0.12498 0.0
C1729 C 0.02581 0.89282 0.04388 0.0
N1730 N 0.03946 0.81883 0.12849 0.0
N1731 N 0.97428 0.91073 1.00061 0.0
H1732 H 0.06634 0.9114 0.9977 0.0
H1733 H 0.0315 0.93247 0.98174 0.0
H1734 H 0.94944 0.91111 0.99938 0.0
H1735 H 0.98447 0.92267 0.9622 0.0
H1736 H 0.02674 0.79886 0.14348 0.0
H1737 H 0.06309 0.81429 0.11557 0.0
H1738 H 0.98895 0.81761 0.20033 0.0
H1739 H 0.95206 0.83281 0.17483 0.0
C1740 C 0.35053 0.73949 0.36298 0.0
C1741 C 0.37902 0.72235 0.34746 0.0
C1742 C 0.40265 0.7739 0.31305 0.0
C1743 C 0.37722 0.79104 0.34188 0.0
N1744 N 0.32088 0.7893 0.35757 0.0
N1745 N 0.43156 0.72387 0.3007 0.0
C1746 C 0.34929 0.77351 0.3561 0.0
C1747 C 0.40475 0.73972 0.31962 0.0
N1748 N 0.32462 0.72341 0.38571 0.0
N1749 N 0.42245 0.78976 0.27272 0.0
H1750 H 0.43332 0.69907 0.30035 0.0
H1751 H 0.45262 0.7354 0.28825 0.0
H1752 H 0.4171 0.81292 0.25795 0.0
H1753 H 0.4405 0.77888 0.24639 0.0
H1754 H 0.30402 0.73443 0.40226 0.0
H1755 H 0.32352 0.69866 0.38898 0.0
H1756 H 0.29875 0.77805 0.35697 0.0
H1757 H 0.31959 0.81404 0.35521 0.0
C1758 C 0.52334 0.11535 0.56553 0.0
C1759 C 0.53922 0.14153 0.59499 0.0
C1760 C 0.48603 0.16709 0.60756 0.0
C1761 C 0.47059 0.13772 0.59315 0.0
N1762 N 0.47722 0.08125 0.57122 0.0
N1763 N 0.53405 0.19318 0.64568 0.0
C1764 C 0.48997 0.11114 0.5754 0.0
C1765 C 0.52002 0.16773 0.61618 0.0
N1766 N 0.53968 0.09439 0.52789 0.0
N1767 N 0.46836 0.1943 0.6145 0.0
H1768 H 0.55864 0.19558 0.64889 0.0
H1769 H 0.52134 0.21101 0.66937 0.0
H1770 H 0.44362 0.19464 0.60981 0.0
H1771 H 0.47839 0.21692 0.61942 0.0
H1772 H 0.52843 0.07616 0.50217 0.0
H1773 H 0.56354 0.09752 0.51615 0.0
H1774 H 0.4911 0.06087 0.56403 0.0
H1775 H 0.45362 0.07633 0.58228 0.0
C1776 C 0.90845 0.23621 0.80981 0.0
C1777 C 0.88073 0.2203 0.83366 0.0
C1778 C 0.85348 0.27272 0.8337 0.0
C1779 C 0.88306 0.2884 0.83142 0.0
N1780 N 0.92889 0.28556 0.76459 0.0
N1781 N 0.8238 0.22352 0.84307 0.0
C1782 C 0.90846 0.2705 0.80481 0.0
C1783 C 0.85228 0.23876 0.8386 0.0
N1784 N 0.9342 0.21911 0.78962 0.0
N1785 N 0.82693 0.28997 0.81964 0.0
H1786 H 0.82197 0.19935 0.8318 0.0
H1787 H 0.80252 0.23489 0.85487 0.0
H1788 H 0.82922 0.31325 0.80258 0.0
H1789 H 0.80418 0.2803 0.81512 0.0
H1790 H 0.95591 0.22953 0.77789 0.0
H1791 H 0.9345 0.19439 0.78636 0.0
H1792 H 0.94717 0.27426 0.73965 0.0
H1793 H 0.92343 0.30828 0.74742 0.0
C1794 C 0.60869 0.7733 0.32456 0.0
C1795 C 0.6364 0.79187 0.33737 0.0
C1796 C 0.66767 0.74149 0.34112 0.0
C1797 C 0.63964 0.72275 0.333 0.0
N1798 N 0.58996 0.72436 0.2753 0.0
N1799 N 0.69386 0.79182 0.32873 0.0
C1800 C 0.61158 0.73947 0.3134 0.0
C1801 C 0.66622 0.77553 0.33628 0.0
N1802 N 0.57974 0.78798 0.31982 0.0
N1803 N 0.69646 0.72684 0.3492 0.0
H1804 H 0.69448 0.81632 0.32014 0.0
H1805 H 0.69448 0.81632 0.32014 0.0
H1806 H 0.69891 0.70211 0.34757 0.0
H1807 H 0.71767 0.73958 0.35507 0.0
H1808 H 0.55839 0.77531 0.31682 0.0
H1809 H 0.5773 0.81276 0.32135 0.0
H1810 H 0.56945 0.73535 0.25742 0.0
H1811 H 0.59655 0.7037 0.25078 0.0
C1812 C 0.87393 0.7392 0.22043 0.0
C1813 C 0.88913 0.721 0.17057 0.0
C1814 C 0.90911 0.77257 0.12624 0.0
C1815 C 0.89199 0.79095 0.17297 0.0
N1816 N 0.86686 0.7895 0.2773 0.0
N1817 N 0.93047 0.72259 0.08885 0.0
C1818 C 0.877 0.77365 0.22371 0.0
C1819 C 0.90927 0.73839 0.12747 0.0
N1820 N 0.85582 0.72407 0.26508 0.0
N1821 N 0.92565 0.78767 0.0788 0.0
H1822 H 0.93229 0.69808 0.0841 0.0
H1823 H 0.94932 0.73375 0.0656 0.0
H1824 H 0.9337 0.81106 0.08214 0.0
H1825 H 0.93098 0.77694 0.03494 0.0
H1826 H 0.83839 0.73563 0.292 0.0
H1827 H 0.85809 0.70007 0.27608 0.0
H1828 H 0.85936 0.77813 0.31887 0.0
H1829 H 0.86929 0.81383 0.28466 0.0
C1830 C 0.66135 0.24469 0.70294 0.0
C1831 C 0.63247 0.22685 0.70776 0.0
C1832 C 0.60265 0.27812 0.70648 0.0
C1833 C 0.63141 0.29561 0.69846 0.0
N1834 N 0.68794 0.29559 0.71616 0.0
N1835 N 0.57783 0.22887 0.74225 0.0
C1836 C 0.66064 0.27885 0.70593 0.0
C1837 C 0.60372 0.24424 0.71826 0.0
N1838 N 0.68965 0.22922 0.69299 0.0
N1839 N 0.57416 0.29379 0.70281 0.0
H1840 H 0.57832 0.20471 0.75386 0.0
H1841 H 0.55712 0.24064 0.75649 0.0
H1842 H 0.57272 0.3186 0.69958 0.0
H1843 H 0.55229 0.28205 0.70022 0.0
H1844 H 0.71136 0.24081 0.6873 0.0
H1845 H 0.69158 0.20465 0.68685 0.0
H1846 H 0.70914 0.28529 0.73236 0.0
H1847 H 0.68865 0.32021 0.71127 0.0
C1848 C 0.99493 0.39793 0.97663 0.0
C1849 C 0.97755 0.37196 0.95072 0.0
C1850 C 0.02903 0.34322 0.93577 0.0
C1851 C 0.04632 0.37184 0.94889 0.0
N1852 N 0.04545 0.42506 0.99214 0.0
N1853 N 0.97782 0.31521 0.93208 0.0
C1854 C 0.02905 0.39863 0.97287 0.0
C1855 C 0.99455 0.34299 0.93884 0.0
N1856 N 0.97872 0.42045 1.01081 0.0
N1857 N 0.04556 0.31656 0.91826 0.0
H1858 H 0.95308 0.31426 0.93553 0.0
H1859 H 0.98818 0.29275 0.92741 0.0
H1860 H 0.07038 0.31556 0.9203 0.0
H1861 H 0.03505 0.29572 0.90111 0.0
H1862 H 0.98977 0.43813 0.03817 0.0
H1863 H 0.95418 0.41874 0.01836 0.0
H1864 H 0.03471 0.44702 1.00141 0.0
H1865 H 0.07014 0.42482 0.99794 0.0
C1866 C 0.49425 0.66224 0.41891 0.0
C1867 C 0.47709 0.63486 0.43973 0.0
C1868 C 0.52899 0.60852 0.46398 0.0
C1869 C 0.54577 0.6339 0.4342 0.0
N1870 N 0.54497 0.68974 0.40581 0.0
N1871 N 0.47869 0.58439 0.49477 0.0
C1872 C 0.52859 0.66232 0.41873 0.0
C1873 C 0.49471 0.60893 0.46687 0.0
N1874 N 0.47744 0.68838 0.39911 0.0
N1875 N 0.54629 0.58514 0.49389 0.0
H1876 H 0.45474 0.58588 0.50677 0.0
H1877 H 0.48885 0.56257 0.5069 0.0
H1878 H 0.57108 0.58601 0.49748 0.0
H1879 H 0.53668 0.56645 0.52004 0.0
H1880 H 0.48734 0.70753 0.37467 0.0
H1881 H 0.45297 0.69059 0.40672 0.0
H1882 H 0.53438 0.712 0.39976 0.0
H1883 H 0.56972 0.69104 0.4055 0.0
C1884 C 0.49092 0.3522 0.59216 0.0
C1885 C 0.47332 0.38141 0.59473 0.0
C1886 C 0.52418 0.411 0.59123 0.0
C1887 C 0.54188 0.3821 0.59503 0.0
N1888 N 0.5424 0.32528 0.58094 0.0
N1889 N 0.47427 0.4386 0.60818 0.0
C1890 C 0.52524 0.35267 0.59007 0.0
C1891 C 0.49026 0.41079 0.59595 0.0
N1892 N 0.47488 0.32394 0.59582 0.0
N1893 N 0.53989 0.43909 0.58367 0.0
H1894 H 0.45 0.43943 0.6175 0.0
H1895 H 0.48519 0.46064 0.61486 0.0
H1896 H 0.56427 0.44082 0.59088 0.0
H1897 H 0.52892 0.46025 0.56925 0.0
H1898 H 0.48578 0.30179 0.60149 0.0
H1899 H 0.45012 0.32281 0.59716 0.0
H1900 H 0.53235 0.30306 0.57143 0.0
H1901 H 0.56722 0.32532 0.5776 0.0
C1902 C 0.02358 0.62216 0.0517 0.0
C1903 C 0.04027 0.64009 0.1 0.0
C1904 C 0.98748 0.65937 0.13904 0.0
C1905 C 0.97091 0.63807 0.09714 0.0
N1906 N 0.97376 0.59845 0.01381 0.0
N1907 N 0.03638 0.67949 0.18445 0.0
C1908 C 0.98919 0.61957 0.05308 0.0
C1909 C 0.02153 0.65986 0.14148 0.0
N1910 N 0.04018 0.60843 1.00274 0.0
N1911 N 0.97049 0.68035 0.17581 0.0
H1912 H 0.05963 0.68699 0.17814 0.0
H1913 H 0.02582 0.68828 0.22603 0.0
H1914 H 0.94584 0.67988 0.17886 0.0
H1915 H 0.98022 0.69994 0.19966 0.0
H1916 H 0.02964 0.59694 0.96373 0.0
H1917 H 0.06422 0.61233 0.99563 0.0
H1918 H 0.98525 0.58037 0.98845 0.0
H1919 H 0.94899 0.59786 1.00947 0.0
C1920 C 0.12012 0.53576 1.00279 0.0
C1921 C 0.14004 0.53997 0.05726 0.0
C1922 C 0.15651 0.48319 0.04406 0.0
C1923 C 0.13719 0.47919 0.98647 0.0
N1924 N 0.08566 0.49774 0.95359 0.0
N1925 N 0.18016 0.51777 0.12596 0.0
C1926 C 0.11524 0.5047 0.97572 0.0
C1927 C 0.15892 0.51362 0.0767 0.0
N1928 N 0.10506 0.56139 0.9765 0.0
N1929 N 0.17004 0.45741 0.0729 0.0
H1930 H 0.18091 0.53856 0.15339 0.0
H1931 H 0.19845 0.50175 0.13671 0.0
H1932 H 0.17062 0.43521 0.05229 0.0
H1933 H 0.17869 0.45735 0.11984 0.0
H1934 H 0.09191 0.55978 0.93391 0.0
H1935 H 0.10866 0.58436 0.99405 0.0
H1936 H 0.06741 0.5147 0.95137 0.0
H1937 H 0.07818 0.47416 0.95141 0.0
C1938 C 0.73796 0.9199 0.26894 0.0
C1939 C 0.72916 0.89298 0.30792 0.0
C1940 C 0.77949 0.86652 0.26593 0.0
C1941 C 0.78647 0.89276 0.22503 0.0
N1942 N 0.76655 0.94081 0.17691 0.0
N1943 N 0.75073 0.84431 0.35495 0.0
C1944 C 0.76395 0.91824 0.22368 0.0
C1945 C 0.75232 0.8672 0.30896 0.0
N1946 N 0.72414 0.94889 0.28029 0.0
N1947 N 0.7984 0.83994 0.26291 0.0
H1948 H 0.7322 0.84222 0.38635 0.0
H1949 H 0.76936 0.82882 0.3663 0.0
H1950 H 0.81956 0.83895 0.2373 0.0
H1951 H 0.79194 0.81787 0.28163 0.0
H1952 H 0.7309 0.96985 0.25735 0.0
H1953 H 0.71032 0.95328 0.3205 0.0
H1954 H 0.74877 0.95757 0.16716 0.0
H1955 H 0.78469 0.94036 0.143 0.0
C1956 C 0.3458 0.49551 0.53577 0.0
C1957 C 0.3728 0.47506 0.54617 0.0
C1958 C 0.40516 0.51384 0.48393 0.0
C1959 C 0.37822 0.53366 0.47093 0.0
N1960 N 0.32151 0.54021 0.47853 0.0
N1961 N 0.42474 0.46073 0.50682 0.0
C1962 C 0.34814 0.52334 0.49489 0.0
C1963 C 0.40155 0.48327 0.51405 0.0
N1964 N 0.31792 0.48907 0.56659 0.0
N1965 N 0.43477 0.52415 0.46768 0.0
H1966 H 0.42181 0.43742 0.52243 0.0
H1967 H 0.44478 0.46389 0.47816 0.0
H1968 H 0.43828 0.54508 0.44218 0.0
H1969 H 0.4557 0.51286 0.48269 0.0
H1970 H 0.29883 0.50496 0.56899 0.0
H1971 H 0.31438 0.46852 0.5934 0.0
H1972 H 0.29832 0.5325 0.48695 0.0
H1973 H 0.32279 0.56122 0.45239 0.0
C1974 C 0.77143 0.10079 0.77635 0.0
C1975 C 0.78173 0.12601 0.81697 0.0
C1976 C 0.73189 0.15445 0.78485 0.0
C1977 C 0.72628 0.13258 0.73238 0.0
N1978 N 0.74405 0.0843 0.67923 0.0
N1979 N 0.76847 0.1765 0.8646 0.0
C1980 C 0.74746 0.10593 0.72783 0.0
C1981 C 0.76095 0.15276 0.82242 0.0
N1982 N 0.78142 0.07063 0.78999 0.0
N1983 N 0.70889 0.17608 0.80152 0.0
H1984 H 0.78777 0.17471 0.8959 0.0
H1985 H 0.75688 0.1985 0.86604 0.0
H1986 H 0.68743 0.17879 0.77708 0.0
H1987 H 0.70963 0.18959 0.84351 0.0
H1988 H 0.772 0.05046 0.76739 0.0
H1989 H 0.79652 0.06597 0.82894 0.0
H1990 H 0.76042 0.06589 0.67166 0.0
H1991 H 0.72627 0.08599 0.64433 0.0
C1992 C 0.90837 0.52027 0.03151 0.0
C1993 C 0.87809 0.53378 0.04844 0.0
C1994 C 0.85278 0.49588 0.97112 0.0
C1995 C 0.88189 0.47926 0.9614 0.0
N1996 N 0.93845 0.47803 0.9772 0.0
N1997 N 0.82126 0.52551 0.04796 0.0
C1998 C 0.90994 0.49214 0.99074 0.0
C1999 C 0.85029 0.5192 0.02147 0.0
N2000 N 0.93575 0.53474 0.05232 0.0
N2001 N 0.82705 0.48896 0.9333 0.0
H2002 H 0.81887 0.5383 0.09067 0.0
H2003 H 0.79995 0.51597 0.03091 0.0
H2004 H 0.82783 0.47159 0.89746 0.0
H2005 H 0.80606 0.50235 0.93408 0.0
H2006 H 0.95854 0.52832 0.03776 0.0
H2007 H 0.93609 0.5547 0.08197 0.0
H2008 H 0.95977 0.48336 1.0005 0.0
H2009 H 0.94059 0.46047 0.94182 0.0
C2010 C 0.22978 0.14642 0.76357 0.0
C2011 C 0.22514 0.12062 0.80693 0.0
C2012 C 0.27379 0.09555 0.76081 0.0
C2013 C 0.28184 0.12355 0.72487 0.0
N2014 N 0.26393 0.17669 0.69368 0.0
N2015 N 0.2464 0.07221 0.85133 0.0
C2016 C 0.25876 0.14916 0.72659 0.0
C2017 C 0.24842 0.0959 0.80698 0.0
N2018 N 0.20558 0.16786 0.75477 0.0
N2019 N 0.28809 0.06715 0.74628 0.0
H2020 H 0.22752 0.07079 0.88313 0.0
H2021 H 0.26473 0.05588 0.85995 0.0
H2022 H 0.30166 0.06416 0.70512 0.0
H2023 H 0.28207 0.04558 0.76776 0.0
H2024 H 0.20465 0.18411 0.71708 0.0
H2025 H 0.18503 0.16771 0.78226 0.0
H2026 H 0.25153 0.19782 0.70253 0.0
H2027 H 0.28083 0.17919 0.65841 0.0
C2028 C 0.61523 0.51311 0.47147 0.0
C2029 C 0.64387 0.52965 0.45664 0.0
C2030 C 0.67294 0.49039 0.52482 0.0
C2031 C 0.64423 0.47371 0.53998 0.0
N2032 N 0.59267 0.46149 0.49525 0.0
N2033 N 0.70077 0.52373 0.44769 0.0
C2034 C 0.61642 0.48305 0.50474 0.0
C2035 C 0.67297 0.51474 0.47589 0.0
N2036 N 0.5867 0.52509 0.45095 0.0
N2037 N 0.7001 0.48437 0.5591 0.0
H2038 H 0.70147 0.54145 0.41273 0.0
H2039 H 0.72229 0.51176 0.45526 0.0
H2040 H 0.70053 0.4693 0.59871 0.0
H2041 H 0.72121 0.49698 0.5526 0.0
H2042 H 0.56488 0.51591 0.46595 0.0
H2043 H 0.58511 0.54481 0.42071 0.0
H2044 H 0.57296 0.46572 0.46573 0.0
H2045 H 0.59539 0.43781 0.50893 0.0
C2046 C 0.28402 0.86625 0.25967 0.0
C2047 C 0.29221 0.89417 0.29517 0.0
C2048 C 0.24635 0.9207 0.23915 0.0
C2049 C 0.23408 0.89096 0.21674 0.0
N2050 N 0.24292 0.83441 0.21004 0.0
N2051 N 0.2798 0.94993 0.3142 0.0
C2052 C 0.25357 0.86357 0.2282 0.0
C2053 C 0.27304 0.92197 0.28338 0.0
N2054 N 0.30647 0.84313 0.2507 0.0
N2055 N 0.23418 0.94815 0.21397 0.0
H2056 H 0.30032 0.9535 0.34133 0.0
H2057 H 0.26406 0.96923 0.315 0.0
H2058 H 0.2161 0.94786 0.17947 0.0
H2059 H 0.24405 0.97062 0.22222 0.0
H2060 H 0.30329 0.82362 0.22018 0.0
H2061 H 0.32977 0.84583 0.26694 0.0
H2062 H 0.25432 0.8131 0.22211 0.0
H2063 H 0.22108 0.832 0.18754 0.0
C2064 C 0.65801 1.00448 0.46333 0.0
C2065 C 0.6322 0.98256 0.47152 0.0
C2066 C 0.60942 0.02258 0.54736 0.0
C2067 C 0.63748 0.04215 0.54774 0.0
N2068 N 0.69357 0.04077 0.5197 0.0
N2069 N 0.59196 0.96823 0.55096 0.0
C2070 C 0.66321 0.03021 0.50904 0.0
C2071 C 0.6105 0.9907 0.52218 0.0
N2072 N 0.67923 0.99966 0.41506 0.0
N2073 N 0.58101 0.03363 0.56981 0.0
H2074 H 0.59361 0.9439 0.54268 0.0
H2075 H 0.57774 0.97356 0.59051 0.0
H2076 H 0.57724 0.05679 0.58519 0.0
H2077 H 0.55996 0.02049 0.56531 0.0
H2078 H 0.69766 0.01548 0.4052 0.0
H2079 H 0.67689 0.98123 0.38199 0.0
H2080 H 0.71334 0.03107 0.4966 0.0
H2081 H 0.69975 0.05553 0.55795 0.0
C2082 C 0.23086 0.40731 0.74522 0.0
C2083 C 0.22581 0.38406 0.79392 0.0
C2084 C 0.27654 0.35832 0.76056 0.0
C2085 C 0.27963 0.37924 0.70671 0.0
N2086 N 0.25718 0.42248 0.64575 0.0
N2087 N 0.24461 0.33671 0.84625 0.0
C2088 C 0.25576 0.40316 0.69823 0.0
C2089 C 0.24897 0.35949 0.80087 0.0
N2090 N 0.21356 0.43491 0.74731 0.0
N2091 N 0.3008 0.33781 0.77531 0.0
H2092 H 0.22613 0.33822 0.87864 0.0
H2093 H 0.25762 0.31556 0.84914 0.0
H2094 H 0.31974 0.33368 0.74491 0.0
H2095 H 0.3031 0.32607 0.81905 0.0
H2096 H 0.21764 0.45432 0.71741 0.0
H2097 H 0.19734 0.43956 0.78399 0.0
H2098 H 0.23907 0.43834 0.63299 0.0
H2099 H 0.27538 0.42064 0.61205 0.0
C2100 C 0.85078 1.00081 0.05539 0.0
C2101 C 0.87868 0.98152 0.06269 0.0
C2102 C 0.90733 0.02064 0.9944 0.0
C2103 C 0.87836 0.03708 0.97908 0.0
N2104 N 0.82141 0.03975 0.99109 0.0
N2105 N 0.93418 0.97399 0.03868 0.0
C2106 C 0.84979 0.02618 1.00855 0.0
C2107 C 0.90703 0.99175 0.03165 0.0
N2108 N 0.82519 0.99519 0.0938 0.0
N2109 N 0.93561 0.03329 0.97529 0.0
H2110 H 0.93614 0.95552 0.07195 0.0
H2111 H 0.95434 0.97687 1.01034 0.0
H2112 H 0.93678 0.05381 0.94772 0.0
H2113 H 0.95785 0.02504 0.99041 0.0
H2114 H 0.80507 0.00978 0.09524 0.0
H2115 H 0.82533 0.97745 0.1286 0.0
H2116 H 0.79934 0.0313 1.00603 0.0
H2117 H 0.81981 0.05797 0.95721 0.0
C2118 C 0.24449 0.60139 0.25717 0.0
C2119 C 0.23429 0.62798 0.22039 0.0
C2120 C 0.28301 0.65607 0.26043 0.0
C2121 C 0.28936 0.63137 0.30694 0.0
N2122 N 0.27096 0.58155 0.35202 0.0
N2123 N 0.24825 0.67978 0.17926 0.0
C2124 C 0.26828 0.60463 0.30647 0.0
C2125 C 0.25495 0.65502 0.21959 0.0
N2126 N 0.23411 0.57183 0.23964 0.0
N2127 N 0.30427 0.68055 0.25396 0.0
H2128 H 0.23028 0.67907 0.14482 0.0
H2129 H 0.2595 0.70186 0.18113 0.0
H2130 H 0.32307 0.68454 0.28549 0.0
H2131 H 0.30463 0.69625 0.21546 0.0
H2132 H 0.24356 0.55083 0.25873 0.0
H2133 H 0.21889 0.56857 0.20047 0.0
H2134 H 0.25468 0.56288 0.35604 0.0
H2135 H 0.28716 0.58291 0.38953 0.0
C2136 C 0.36607 0.98459 0.54982 0.0
C2137 C 0.38349 0.98062 0.49038 0.0
C2138 C 0.40228 0.03677 0.50488 0.0
C2139 C 0.38462 0.04026 0.56282 0.0
N2140 N 0.34436 0.01931 0.63199 0.0
N2141 N 0.42614 1.00156 0.42567 0.0
C2142 C 0.36544 0.01455 0.58298 0.0
C2143 C 0.40345 1.00657 0.47145 0.0
N2144 N 0.35082 0.95963 0.57815 0.0
N2145 N 0.41719 0.06282 0.47998 0.0
H2146 H 0.43027 0.97937 0.40472 0.0
H2147 H 0.44367 0.01814 0.41424 0.0
H2148 H 0.41834 0.08457 0.50412 0.0
H2149 H 0.42637 0.0636 0.43369 0.0
H2150 H 0.34576 0.95906 0.62705 0.0
H2151 H 0.34338 0.93921 0.55516 0.0
H2152 H 0.32558 1.00389 0.64212 0.0
H2153 H 0.34392 0.04002 0.65963 0.0
C2154 C 0.77881 0.64887 0.26524 0.0
C2155 C 0.78417 0.62322 0.22113 0.0
C2156 C 0.73696 0.59583 0.26829 0.0
C2157 C 0.73139 0.62167 0.31174 0.0
N2158 N 0.75257 0.66862 0.36205 0.0
N2159 N 0.76438 0.57464 0.17425 0.0
C2160 C 0.75396 0.64701 0.31298 0.0
C2161 C 0.76225 0.59721 0.22157 0.0
N2162 N 0.79656 0.67594 0.25967 0.0
N2163 N 0.71905 0.56886 0.27438 0.0
H2164 H 0.78169 0.57543 0.13861 0.0
H2165 H 0.74743 0.55694 0.1662 0.0
H2166 H 0.70178 0.56669 0.30963 0.0
H2167 H 0.72322 0.54769 0.24955 0.0
H2168 H 0.79195 0.69687 0.28503 0.0
H2169 H 0.81383 0.67853 0.22448 0.0
H2170 H 0.76988 0.68591 0.37074 0.0
H2171 H 0.73553 0.6671 0.39815 0.0
C2172 C 0.11019 0.01484 0.98829 0.0
C2173 C 0.13821 0.027 0.95928 0.0
C2174 C 0.16896 0.9844 0.01467 0.0
C2175 C 0.14079 0.97065 0.04186 0.0
N2176 N 0.08273 0.97154 0.04091 0.0
N2177 N 0.19188 0.01497 0.92753 0.0
C2178 C 0.1109 0.98565 0.02507 0.0
C2179 C 0.16669 0.00893 0.96663 0.0
N2180 N 0.0822 0.03083 0.97876 0.0
N2181 N 0.19836 0.97619 0.03788 0.0
H2182 H 0.19045 0.03162 0.89068 0.0
H2183 H 0.21245 1.00095 0.92697 0.0
H2184 H 0.2017 0.96143 0.07726 0.0
H2185 H 0.21924 0.98765 0.02393 0.0
H2186 H 0.06173 0.02683 1.00547 0.0
H2187 H 0.07982 0.04884 0.94459 0.0
H2188 H 0.06055 0.97909 0.02427 0.0
H2189 H 0.08084 0.95046 0.0661 0.0
C2190 C 0.73681 0.3676 0.77894 0.0
C2191 C 0.73173 0.38625 0.72224 0.0
C2192 C 0.78138 0.41513 0.75466 0.0
C2193 C 0.79068 0.39105 0.80014 0.0
N2194 N 0.77455 0.33905 0.84209 0.0
N2195 N 0.75316 0.42806 0.65578 0.0
C2196 C 0.76777 0.36581 0.80802 0.0
C2197 C 0.75572 0.40949 0.70913 0.0
N2198 N 0.71231 0.35209 0.80869 0.0
N2199 N 0.79418 0.44498 0.75901 0.0
H2200 H 0.73483 0.42571 0.62232 0.0
H2201 H 0.77071 0.44423 0.64253 0.0
H2202 H 0.80889 0.45208 0.79674 0.0
H2203 H 0.78635 0.46403 0.73091 0.0
H2204 H 0.71486 0.34208 0.85424 0.0
H2205 H 0.68882 0.35145 0.79326 0.0
H2206 H 0.75983 0.31896 0.84147 0.0
H2207 H 0.79562 0.33502 0.86567 0.0
loop_
_geom_bond_atom_site_label_1
_geom_bond_atom_site_label_2
_geom_bond_distance
_geom_bond_site_symmetry_2
_ccdc_geom_bond_type
C0 C2 1.422 . S
C0 C4 1.415 . S
C0 N6 1.369 . S
C1 C2 1.421 . S
C1 C3 1.417 . S
C1 C13 1.422 . S
C2 C0 1.422 . S
C2 C1 1.421 . S
C2 N12 1.359 . S
C3 C1 1.417 . S
C3 C5 1.329 . S
C3 H22 0.930 . S
C4 C0 1.415 . S
C4 C5 1.437 . S
C4 C8 1.413 . S
C5 C3 1.329 . S
C5 C4 1.437 . S
C5 H27 0.929 . S
N6 C0 1.369 . S
N6 C7 1.338 . S
N6 Gd11 2.622 . S
C7 N6 1.338 . S
C7 C9 1.378 . S
C7 H19 0.929 . S
C8 C4 1.413 . S
C8 C9 1.348 . S
C8 H24 0.931 . S
C9 C7 1.378 . S
C9 C8 1.348 . S
C9 H25 0.930 1_455 S
Gd10 N30 2.622 . S
Gd10 N37 2.570 1_554 S
Gd10 O44 2.353 . S
Gd10 O45 2.468 1_554 S
Gd10 O46 2.427 1_554 S
Gd10 O48 2.388 . S
Gd10 O49 2.386 . S
Gd10 O53 2.307 . S
Gd10 C63 2.805 1_554 S
Gd11 N6 2.622 . S
Gd11 N12 2.570 . S
Gd11 O43 2.386 . S
Gd11 O47 2.307 . S
Gd11 O50 2.353 . S
Gd11 O51 2.468 . S
Gd11 O52 2.427 . S
Gd11 O54 2.388 . S
Gd11 C75 2.805 . S
N12 C2 1.359 . S
N12 Gd11 2.570 . S
N12 C14 1.343 . S
C13 C1 1.422 . S
C13 C15 1.321 . S
C13 H21 0.931 . S
C14 N12 1.343 . S
C14 C15 1.390 . S
C14 H16 0.931 . S
C15 C13 1.321 . S
C15 C14 1.390 . S
C15 H17 0.930 . S
H16 C14 0.931 . S
H17 C15 0.930 . S
H18 C41 0.931 . S
H19 C7 0.929 . S
H20 C42 0.930 . S
H21 C13 0.931 . S
H22 C3 0.930 . S
H23 C32 0.929 . S
H24 C8 0.931 . S
H25 C9 0.930 1_655 S
H26 C64 0.930 . S
H27 C5 0.929 . S
H28 C33 0.931 . S
H29 C34 0.930 . S
N30 Gd10 2.622 . S
N30 C31 1.369 1_554 S
N30 C32 1.338 . S
C31 N30 1.369 1_556 S
C31 C35 1.415 . S
C31 C38 1.422 . S
C32 H23 0.929 . S
C32 N30 1.338 . S
C32 C34 1.378 . S
C33 H28 0.931 . S
C33 C34 1.348 . S
C33 C35 1.413 1_554 S
C34 H29 0.930 . S
C34 C32 1.378 . S
C34 C33 1.348 . S
C35 C31 1.415 . S
C35 C33 1.413 1_556 S
C35 C65 1.437 . S
H36 C65 0.929 . S
N37 Gd10 2.570 1_556 S
N37 C38 1.359 . S
N37 C41 1.343 . S
C38 C31 1.422 . S
C38 N37 1.359 . S
C38 C40 1.421 . S
C39 C40 1.422 . S
C39 C42 1.321 . S
C39 H66 0.931 . S
C40 C38 1.421 . S
C40 C39 1.422 . S
C40 C64 1.417 . S
C41 H18 0.931 . S
C41 N37 1.343 . S
C41 C42 1.390 . S
C42 H20 0.930 . S
C42 C39 1.321 . S
C42 C41 1.390 . S
O43 Gd11 2.386 . S
O43 C55 1.265 . S
O44 Gd10 2.353 . S
O44 C55 1.242 . S
O45 Gd10 2.468 1_556 S
O45 C63 1.263 . S
O46 Gd10 2.427 1_556 S
O46 C63 1.252 . S
O47 Gd11 2.307 . S
O47 C56 1.261 . S
O48 Gd10 2.388 . S
O48 C56 1.252 . S
O49 Gd10 2.386 . S
O49 C67 1.265 . S
O50 Gd11 2.353 . S
O50 C67 1.242 . S
O51 Gd11 2.468 . S
O51 C75 1.263 . S
O52 Gd11 2.427 . S
O52 C75 1.252 . S
O53 Gd10 2.307 . S
O53 C68 1.261 . S
O54 Gd11 2.388 . S
O54 C68 1.252 . S
C55 O43 1.265 . S
C55 O44 1.242 . S
C56 O47 1.261 . S
C56 O48 1.252 . S
C57 C60 1.394 . S
C57 C62 1.370 . S
C57 C63 1.500 . S
C58 C61 1.383 . S
C58 C62 1.395 . S
C59 C60 1.396 . S
C59 C61 1.365 . S
C59 H76 0.929 . S
C60 C57 1.394 . S
C60 C59 1.396 . S
C60 H77 0.930 . S
C61 C58 1.383 . S
C61 C59 1.365 . S
C61 H78 0.931 . S
C62 C57 1.370 . S
C62 C58 1.395 . S
C62 H79 0.930 . S
C63 Gd10 2.805 1_556 S
C63 O45 1.263 . S
C63 O46 1.252 . S
C63 C57 1.500 . S
C64 H26 0.930 . S
C64 C40 1.417 . S
C64 C65 1.329 . S
C65 C35 1.437 . S
C65 H36 0.929 . S
C65 C64 1.329 . S
H66 C39 0.931 . S
C67 O49 1.265 . S
C67 O50 1.242 . S
C68 O53 1.261 . S
C68 O54 1.252 . S
C69 C72 1.394 . S
C69 C74 1.370 . S
C69 C75 1.500 . S
C70 C73 1.383 . S
C70 C74 1.395 . S
C71 C72 1.396 . S
C71 C73 1.365 . S
C71 H80 0.929 . S
C72 C69 1.394 . S
C72 C71 1.396 . S
C72 H81 0.930 . S
C73 C70 1.383 . S
C73 C71 1.365 . S
C73 H82 0.931 . S
C74 C69 1.370 . S
C74 C70 1.395 . S
C74 H83 0.930 . S
C75 Gd11 2.805 . S
C75 O51 1.263 . S
C75 O52 1.252 . S
C75 C69 1.500 . S
H76 C59 0.929 . S
H77 C60 0.930 . S
H78 C61 0.931 . S
H79 C62 0.930 . S
H80 C71 0.929 . S
H81 C72 0.930 . S
H82 C73 0.931 . S
H83 C74 0.930 . S
C84 C86 1.422 . S
C84 C88 1.415 . S
C84 N90 1.369 . S
C85 C86 1.421 . S
C85 C87 1.417 . S
C85 C97 1.422 . S
C86 C84 1.422 . S
C86 C85 1.421 . S
C86 N96 1.359 . S
C87 C85 1.417 . S
C87 C89 1.329 . S
C87 H106 0.930 . S
C88 C84 1.415 . S
C88 C89 1.437 . S
C88 C92 1.413 . S
C89 C87 1.329 . S
C89 C88 1.437 . S
C89 H111 0.929 . S
N90 C84 1.369 . S
N90 C91 1.338 . S
N90 Gd95 2.622 . S
C91 N90 1.338 . S
C91 C93 1.378 . S
C91 H103 0.929 . S
C92 C88 1.413 . S
C92 C93 1.348 . S
C92 H108 0.931 . S
C93 C91 1.378 . S
C93 C92 1.348 . S
C93 H109 0.930 . S
Gd94 N114 2.622 . S
Gd94 N121 2.570 . S
Gd94 O128 2.353 . S
Gd94 O129 2.468 . S
Gd94 O130 2.427 . S
Gd94 O132 2.388 . S
Gd94 O133 2.386 . S
Gd94 O137 2.307 . S
Gd94 C147 2.805 . S
Gd95 N90 2.622 . S
Gd95 N96 2.570 . S
Gd95 O127 2.386 . S
Gd95 O131 2.307 . S
Gd95 O134 2.353 . S
Gd95 O135 2.468 . S
Gd95 O136 2.427 . S
Gd95 O138 2.388 . S
Gd95 C159 2.805 . S
N96 C86 1.359 . S
N96 Gd95 2.570 . S
N96 C98 1.343 . S
C97 C85 1.422 . S
C97 C99 1.321 . S
C97 H105 0.931 . S
C98 N96 1.343 . S
C98 C99 1.390 . S
C98 H100 0.931 . S
C99 C97 1.321 . S
C99 C98 1.390 . S
C99 H101 0.930 . S
H100 C98 0.931 . S
H101 C99 0.930 . S
H102 C125 0.931 . S
H103 C91 0.929 . S
H104 C126 0.930 . S
H105 C97 0.931 . S
H106 C87 0.930 . S
H107 C116 0.929 . S
H108 C92 0.931 . S
H109 C93 0.930 . S
H110 C148 0.930 . S
H111 C89 0.929 . S
H112 C117 0.931 1_545 S
H113 C118 0.930 1_545 S
N114 Gd94 2.622 . S
N114 C115 1.369 . S
N114 C116 1.338 . S
C115 N114 1.369 . S
C115 C119 1.415 . S
C115 C122 1.422 . S
C116 H107 0.929 . S
C116 N114 1.338 . S
C116 C118 1.378 . S
C117 H112 0.931 1_565 S
C117 C118 1.348 . S
C117 C119 1.413 . S
C118 H113 0.930 1_565 S
C118 C116 1.378 . S
C118 C117 1.348 . S
C119 C115 1.415 . S
C119 C117 1.413 . S
C119 C149 1.437 . S
H120 C149 0.929 . S
N121 Gd94 2.570 . S
N121 C122 1.359 . S
N121 C125 1.343 . S
C122 C115 1.422 . S
C122 N121 1.359 . S
C122 C124 1.421 . S
C123 C124 1.422 . S
C123 C126 1.321 . S
C123 H150 0.931 . S
C124 C122 1.421 . S
C124 C123 1.422 . S
C124 C148 1.417 . S
C125 H102 0.931 . S
C125 N121 1.343 . S
C125 C126 1.390 . S
C126 H104 0.930 . S
C126 C123 1.321 . S
C126 C125 1.390 . S
O127 Gd95 2.386 . S
O127 C139 1.265 . S
O128 Gd94 2.353 . S
O128 C139 1.242 . S
O129 Gd94 2.468 . S
O129 C147 1.263 . S
O130 Gd94 2.427 . S
O130 C147 1.252 . S
O131 Gd95 2.307 . S
O131 C140 1.261 . S
O132 Gd94 2.388 . S
O132 C140 1.252 . S
O133 Gd94 2.386 . S
O133 C151 1.265 . S
O134 Gd95 2.353 . S
O134 C151 1.242 . S
O135 Gd95 2.468 . S
O135 C159 1.263 . S
O136 Gd95 2.427 . S
O136 C159 1.252 . S
O137 Gd94 2.307 . S
O137 C152 1.261 . S
O138 Gd95 2.388 . S
O138 C152 1.252 . S
C139 O127 1.265 . S
C139 O128 1.242 . S
C140 O131 1.261 . S
C140 O132 1.252 . S
C141 C144 1.394 . S
C141 C146 1.370 . S
C141 C147 1.500 . S
C142 C145 1.381 1_554 S
C142 C146 1.400 . S
C143 C144 1.396 . S
C143 C145 1.365 1_554 S
C143 H160 0.929 1_554 S
C144 C141 1.394 . S
C144 C143 1.396 . S
C144 H161 0.930 . S
C145 C142 1.381 1_556 S
C145 C143 1.365 1_556 S
C145 H162 0.931 . S
C146 C141 1.370 . S
C146 C142 1.400 . S
C146 H163 0.930 . S
C147 Gd94 2.805 . S
C147 O129 1.263 . S
C147 O130 1.252 . S
C147 C141 1.500 . S
C148 H110 0.930 . S
C148 C124 1.417 . S
C148 C149 1.329 . S
C149 C119 1.437 . S
C149 H120 0.929 . S
C149 C148 1.329 . S
H150 C123 0.931 . S
C151 O133 1.265 . S
C151 O134 1.242 . S
C152 O137 1.261 . S
C152 O138 1.252 . S
C153 C156 1.394 . S
C153 C158 1.370 . S
C153 C159 1.500 . S
C154 C157 1.383 . S
C154 C158 1.395 . S
C155 C156 1.396 . S
C155 C157 1.365 . S
C155 H164 0.929 . S
C156 C153 1.394 . S
C156 C155 1.396 . S
C156 H165 0.930 . S
C157 C154 1.383 . S
C157 C155 1.365 . S
C157 H166 0.931 . S
C158 C153 1.370 . S
C158 C154 1.395 . S
C158 H167 0.930 . S
C159 Gd95 2.805 . S
C159 O135 1.263 . S
C159 O136 1.252 . S
C159 C153 1.500 . S
H160 C143 0.929 1_556 S
H161 C144 0.930 . S
H162 C145 0.931 . S
H163 C146 0.930 . S
H164 C155 0.929 . S
H165 C156 0.930 . S
H166 C157 0.931 . S
H167 C158 0.930 . S
C168 C170 1.422 . S
C168 C172 1.415 . S
C168 N174 1.369 . S
C169 C170 1.421 . S
C169 C171 1.417 . S
C169 C181 1.422 . S
C170 C168 1.422 . S
C170 C169 1.421 . S
C170 N180 1.359 . S
C171 C169 1.417 . S
C171 C173 1.329 . S
C171 H190 0.930 . S
C172 C168 1.415 . S
C172 C173 1.437 . S
C172 C176 1.413 . S
C173 C171 1.329 . S
C173 C172 1.437 . S
C173 H195 0.929 . S
N174 C168 1.369 . S
N174 C175 1.338 . S
N174 Gd179 2.622 . S
C175 N174 1.338 . S
C175 C177 1.378 . S
C175 H187 0.929 . S
C176 C172 1.413 . S
C176 C177 1.348 . S
C176 H192 0.931 . S
C177 C175 1.378 . S
C177 C176 1.348 . S
C177 H193 0.930 . S
Gd178 N198 2.622 . S
Gd178 N205 2.570 . S
Gd178 O212 2.353 . S
Gd178 O213 2.468 . S
Gd178 O214 2.427 . S
Gd178 O216 2.388 . S
Gd178 O217 2.386 . S
Gd178 O221 2.307 . S
Gd178 C231 2.805 . S
Gd179 N174 2.622 . S
Gd179 N180 2.570 . S
Gd179 O211 2.386 . S
Gd179 O215 2.307 . S
Gd179 O218 2.353 . S
Gd179 O219 2.468 . S
Gd179 O220 2.427 . S
Gd179 O222 2.388 . S
Gd179 C243 2.805 . S
N180 C170 1.359 . S
N180 Gd179 2.570 . S
N180 C182 1.343 . S
C181 C169 1.422 . S
C181 C183 1.321 . S
C181 H189 0.931 . S
C182 N180 1.343 . S
C182 C183 1.390 . S
C182 H184 0.931 . S
C183 C181 1.321 . S
C183 C182 1.390 . S
C183 H185 0.930 . S
H184 C182 0.931 . S
H185 C183 0.930 . S
H186 C209 0.931 . S
H187 C175 0.929 . S
H188 C210 0.930 . S
H189 C181 0.931 . S
H190 C171 0.930 . S
H191 C200 0.929 . S
H192 C176 0.931 . S
H193 C177 0.930 . S
H194 C232 0.930 . S
H195 C173 0.929 . S
H196 C201 0.931 . S
H197 C202 0.930 . S
N198 Gd178 2.622 . S
N198 C199 1.369 . S
N198 C200 1.338 . S
C199 N198 1.369 . S
C199 C203 1.415 . S
C199 C206 1.422 . S
C200 H191 0.929 . S
C200 N198 1.338 . S
C200 C202 1.378 . S
C201 H196 0.931 . S
C201 C202 1.348 . S
C201 C203 1.413 . S
C202 H197 0.930 . S
C202 C200 1.378 . S
C202 C201 1.348 . S
C203 C199 1.415 . S
C203 C201 1.413 . S
C203 C233 1.437 . S
H204 C233 0.929 . S
N205 Gd178 2.570 . S
N205 C206 1.359 . S
N205 C209 1.343 . S
C206 C199 1.422 . S
C206 N205 1.359 . S
C206 C208 1.421 . S
C207 C208 1.422 . S
C207 C210 1.321 . S
C207 H234 0.931 . S
C208 C206 1.421 . S
C208 C207 1.422 . S
C208 C232 1.417 . S
C209 H186 0.931 . S
C209 N205 1.343 . S
C209 C210 1.390 . S
C210 H188 0.930 . S
C210 C207 1.321 . S
C210 C209 1.390 . S
O211 Gd179 2.386 . S
O211 C223 1.265 . S
O212 Gd178 2.353 . S
O212 C223 1.242 . S
O213 Gd178 2.468 . S
O213 C231 1.263 . S
O214 Gd178 2.427 . S
O214 C231 1.252 . S
O215 Gd179 2.307 . S
O215 C224 1.261 . S
O216 Gd178 2.388 . S
O216 C224 1.252 . S
O217 Gd178 2.386 . S
O217 C235 1.265 . S
O218 Gd179 2.353 . S
O218 C235 1.242 . S
O219 Gd179 2.468 . S
O219 C243 1.263 . S
O220 Gd179 2.427 . S
O220 C243 1.252 . S
O221 Gd178 2.307 . S
O221 C236 1.261 . S
O222 Gd179 2.388 . S
O222 C236 1.252 . S
C223 O211 1.265 . S
C223 O212 1.242 . S
C224 O215 1.261 . S
C224 O216 1.252 . S
C225 C228 1.394 . S
C225 C230 1.370 . S
C225 C231 1.500 . S
C226 C229 1.383 . S
C226 C230 1.395 . S
C227 C228 1.396 . S
C227 C229 1.365 . S
C227 H244 0.929 . S
C228 C225 1.394 . S
C228 C227 1.396 . S
C228 H245 0.930 . S
C229 C226 1.383 . S
C229 C227 1.365 . S
C229 H246 0.931 . S
C230 C225 1.370 . S
C230 C226 1.395 . S
C230 H247 0.930 . S
C231 Gd178 2.805 . S
C231 O213 1.263 . S
C231 O214 1.252 . S
C231 C225 1.500 . S
C232 H194 0.930 . S
C232 C208 1.417 . S
C232 C233 1.329 . S
C233 C203 1.437 . S
C233 H204 0.929 . S
C233 C232 1.329 . S
H234 C207 0.931 . S
C235 O217 1.265 . S
C235 O218 1.242 . S
C236 O221 1.261 . S
C236 O222 1.252 . S
C237 C240 1.394 . S
C237 C242 1.370 . S
C237 C243 1.500 . S
C238 C241 1.383 . S
C238 C242 1.395 1_554 S
C239 C240 1.396 . S
C239 C241 1.365 1_556 S
C239 H248 0.929 1_556 S
C240 C237 1.394 . S
C240 C239 1.396 . S
C240 H249 0.930 . S
C241 C238 1.383 . S
C241 C239 1.365 1_554 S
C241 H250 0.931 . S
C242 C237 1.370 . S
C242 C238 1.395 1_556 S
C242 H251 0.930 . S
C243 Gd179 2.805 . S
C243 O219 1.263 . S
C243 O220 1.252 . S
C243 C237 1.500 . S
H244 C227 0.929 . S
H245 C228 0.930 . S
H246 C229 0.931 . S
H247 C230 0.930 . S
H248 C239 0.929 1_554 S
H249 C240 0.930 . S
H250 C241 0.931 . S
H251 C242 0.930 . S
C252 C254 1.422 . S
C252 C256 1.415 . S
C252 N258 1.369 . S
C253 C254 1.421 1_565 S
C253 C255 1.417 . S
C253 C265 1.422 . S
C254 C252 1.422 . S
C254 C253 1.421 1_545 S
C254 N264 1.359 . S
C255 C253 1.417 . S
C255 C257 1.329 . S
C255 H274 0.930 . S
C256 C252 1.415 . S
C256 C257 1.437 1_545 S
C256 C260 1.413 . S
C257 C255 1.329 . S
C257 C256 1.437 1_565 S
C257 H279 0.929 . S
N258 C252 1.369 . S
N258 C259 1.338 . S
N258 Gd263 2.622 . S
C259 N258 1.338 . S
C259 C261 1.378 . S
C259 H271 0.929 . S
C260 C256 1.413 . S
C260 C261 1.348 . S
C260 H276 0.931 1_545 S
C261 C259 1.378 . S
C261 C260 1.348 . S
C261 H277 0.930 1_655 S
Gd262 N282 2.622 . S
Gd262 N289 2.570 1_556 S
Gd262 O296 2.353 . S
Gd262 O297 2.468 1_556 S
Gd262 O298 2.427 1_556 S
Gd262 O300 2.388 . S
Gd262 O301 2.386 . S
Gd262 O305 2.307 . S
Gd262 C315 2.805 1_556 S
Gd263 N258 2.622 . S
Gd263 N264 2.570 . S
Gd263 O295 2.386 . S
Gd263 O299 2.307 . S
Gd263 O302 2.353 . S
Gd263 O303 2.468 . S
Gd263 O304 2.427 . S
Gd263 O306 2.388 . S
Gd263 C327 2.805 . S
N264 C254 1.359 . S
N264 Gd263 2.570 . S
N264 C266 1.343 . S
C265 C253 1.422 . S
C265 C267 1.321 1_565 S
C265 H273 0.931 . S
C266 N264 1.343 . S
C266 C267 1.390 . S
C266 H268 0.931 . S
C267 C265 1.321 1_545 S
C267 C266 1.390 . S
C267 H269 0.930 . S
H268 C266 0.931 . S
H269 C267 0.930 . S
H270 C293 0.931 . S
H271 C259 0.929 . S
H272 C294 0.930 . S
H273 C265 0.931 . S
H274 C255 0.930 . S
H275 C284 0.929 . S
H276 C260 0.931 1_565 S
H277 C261 0.930 1_455 S
H278 C316 0.930 . S
H279 C257 0.929 . S
H280 C285 0.931 . S
H281 C286 0.930 . S
N282 Gd262 2.622 . S
N282 C283 1.369 1_556 S
N282 C284 1.338 . S
C283 N282 1.369 1_554 S
C283 C287 1.415 . S
C283 C290 1.422 . S
C284 H275 0.929 . S
C284 N282 1.338 . S
C284 C286 1.378 . S
C285 H280 0.931 . S
C285 C286 1.348 . S
C285 C287 1.413 1_556 S
C286 H281 0.930 . S
C286 C284 1.378 . S
C286 C285 1.348 . S
C287 C283 1.415 . S
C287 C285 1.413 1_554 S
C287 C317 1.437 . S
H288 C317 0.929 . S
N289 Gd262 2.570 1_554 S
N289 C290 1.359 . S
N289 C293 1.343 . S
C290 C283 1.422 . S
C290 N289 1.359 . S
C290 C292 1.421 . S
C291 C292 1.422 . S
C291 C294 1.321 . S
C291 H318 0.931 . S
C292 C290 1.421 . S
C292 C291 1.422 . S
C292 C316 1.417 . S
C293 H270 0.931 . S
C293 N289 1.343 . S
C293 C294 1.390 . S
C294 H272 0.930 . S
C294 C291 1.321 . S
C294 C293 1.390 . S
O295 Gd263 2.386 . S
O295 C307 1.265 . S
O296 Gd262 2.353 . S
O296 C307 1.242 . S
O297 Gd262 2.468 1_554 S
O297 C315 1.263 . S
O298 Gd262 2.427 1_554 S
O298 C315 1.252 . S
O299 Gd263 2.307 . S
O299 C308 1.261 . S
O300 Gd262 2.388 . S
O300 C308 1.252 . S
O301 Gd262 2.386 . S
O301 C319 1.265 . S
O302 Gd263 2.353 . S
O302 C319 1.242 . S
O303 Gd263 2.468 . S
O303 C327 1.263 . S
O304 Gd263 2.427 . S
O304 C327 1.252 . S
O305 Gd262 2.307 . S
O305 C320 1.261 . S
O306 Gd263 2.388 . S
O306 C320 1.252 . S
C307 O295 1.265 . S
C307 O296 1.242 . S
C308 O299 1.261 . S
C308 O300 1.252 . S
C309 C312 1.394 . S
C309 C314 1.370 . S
C309 C315 1.500 . S
C310 C313 1.383 . S
C310 C314 1.395 . S
C311 C312 1.396 . S
C311 C313 1.365 . S
C311 H328 0.929 . S
C312 C309 1.394 . S
C312 C311 1.396 . S
C312 H329 0.930 . S
C313 C310 1.383 . S
C313 C311 1.365 . S
C313 H330 0.931 . S
C314 C309 1.370 . S
C314 C310 1.395 . S
C314 H331 0.930 . S
C315 Gd262 2.805 1_554 S
C315 O297 1.263 . S
C315 O298 1.252 . S
C315 C309 1.500 . S
C316 H278 0.930 . S
C316 C292 1.417 . S
C316 C317 1.329 . S
C317 C287 1.437 . S
C317 H288 0.929 . S
C317 C316 1.329 . S
H318 C291 0.931 . S
C319 O301 1.265 . S
C319 O302 1.242 . S
C320 O305 1.261 . S
C320 O306 1.252 . S
C321 C324 1.394 . S
C321 C326 1.370 . S
C321 C327 1.500 . S
C322 C325 1.383 . S
C322 C326 1.395 . S
C323 C324 1.396 . S
C323 C325 1.365 . S
C323 H332 0.929 . S
C324 C321 1.394 . S
C324 C323 1.396 . S
C324 H333 0.930 . S
C325 C322 1.383 . S
C325 C323 1.365 . S
C325 H334 0.931 . S
C326 C321 1.370 . S
C326 C322 1.395 . S
C326 H335 0.930 . S
C327 Gd263 2.805 . S
C327 O303 1.263 . S
C327 O304 1.252 . S
C327 C321 1.500 . S
H328 C311 0.929 . S
H329 C312 0.930 . S
H330 C313 0.931 . S
H331 C314 0.930 . S
H332 C323 0.929 . S
H333 C324 0.930 . S
H334 C325 0.931 . S
H335 C326 0.930 . S
C336 C338 1.422 . S
C336 C340 1.415 . S
C336 N342 1.369 1_554 S
C337 C338 1.421 . S
C337 C339 1.417 . S
C337 C349 1.422 . S
C338 C336 1.422 . S
C338 C337 1.421 . S
C338 N348 1.359 . S
C339 C337 1.417 . S
C339 C341 1.329 . S
C339 H358 0.930 . S
C340 C336 1.415 . S
C340 C341 1.437 . S
C340 C344 1.413 1_554 S
C341 C339 1.329 . S
C341 C340 1.437 . S
C341 H363 0.929 . S
N342 C336 1.369 1_556 S
N342 C343 1.338 . S
N342 Gd347 2.622 . S
C343 N342 1.338 . S
C343 C345 1.378 . S
C343 H355 0.929 . S
C344 C340 1.413 1_556 S
C344 C345 1.348 . S
C344 H360 0.931 . S
C345 C343 1.378 . S
C345 C344 1.348 . S
C345 H361 0.930 . S
Gd346 N366 2.622 . S
Gd346 N373 2.570 . S
Gd346 O380 2.353 . S
Gd346 O381 2.468 . S
Gd346 O382 2.427 . S
Gd346 O384 2.388 . S
Gd346 O385 2.386 . S
Gd346 O389 2.307 . S
Gd346 C399 2.805 . S
Gd347 N342 2.622 . S
Gd347 N348 2.570 1_556 S
Gd347 O379 2.386 . S
Gd347 O383 2.307 . S
Gd347 O386 2.353 . S
Gd347 O387 2.468 1_556 S
Gd347 O388 2.427 1_556 S
Gd347 O390 2.388 . S
Gd347 C411 2.805 1_556 S
N348 C338 1.359 . S
N348 Gd347 2.570 1_554 S
N348 C350 1.343 . S
C349 C337 1.422 . S
C349 C351 1.321 . S
C349 H357 0.931 . S
C350 N348 1.343 . S
C350 C351 1.390 . S
C350 H352 0.931 . S
C351 C349 1.321 . S
C351 C350 1.390 . S
C351 H353 0.930 . S
H352 C350 0.931 . S
H353 C351 0.930 . S
H354 C377 0.931 . S
H355 C343 0.929 . S
H356 C378 0.930 . S
H357 C349 0.931 . S
H358 C339 0.930 . S
H359 C368 0.929 . S
H360 C344 0.931 . S
H361 C345 0.930 . S
H362 C400 0.930 . S
H363 C341 0.929 . S
H364 C369 0.931 . S
H365 C370 0.930 . S
N366 Gd346 2.622 . S
N366 C367 1.369 . S
N366 C368 1.338 . S
C367 N366 1.369 . S
C367 C371 1.415 . S
C367 C374 1.422 . S
C368 H359 0.929 . S
C368 N366 1.338 . S
C368 C370 1.378 . S
C369 H364 0.931 . S
C369 C370 1.348 . S
C369 C371 1.413 . S
C370 H365 0.930 . S
C370 C368 1.378 . S
C370 C369 1.348 . S
C371 C367 1.415 . S
C371 C369 1.413 . S
C371 C401 1.437 1_455 S
H372 C401 0.929 . S
N373 Gd346 2.570 . S
N373 C374 1.359 . S
N373 C377 1.343 . S
C374 C367 1.422 . S
C374 N373 1.359 . S
C374 C376 1.421 . S
C375 C376 1.422 . S
C375 C378 1.321 . S
C375 H402 0.931 1_455 S
C376 C374 1.421 . S
C376 C375 1.422 . S
C376 C400 1.417 1_455 S
C377 H354 0.931 . S
C377 N373 1.343 . S
C377 C378 1.390 . S
C378 H356 0.930 . S
C378 C375 1.321 . S
C378 C377 1.390 . S
O379 Gd347 2.386 . S
O379 C391 1.265 . S
O380 Gd346 2.353 . S
O380 C391 1.242 . S
O381 Gd346 2.468 . S
O381 C399 1.263 . S
O382 Gd346 2.427 . S
O382 C399 1.252 . S
O383 Gd347 2.307 . S
O383 C392 1.261 . S
O384 Gd346 2.388 . S
O384 C392 1.252 . S
O385 Gd346 2.386 . S
O385 C403 1.265 . S
O386 Gd347 2.353 . S
O386 C403 1.242 . S
O387 Gd347 2.468 1_554 S
O387 C411 1.263 . S
O388 Gd347 2.427 1_554 S
O388 C411 1.252 . S
O389 Gd346 2.307 . S
O389 C404 1.261 . S
O390 Gd347 2.388 . S
O390 C404 1.252 . S
C391 O379 1.265 . S
C391 O380 1.242 . S
C392 O383 1.261 . S
C392 O384 1.252 . S
C393 C396 1.394 . S
C393 C398 1.370 . S
C393 C399 1.500 . S
C394 C397 1.383 . S
C394 C398 1.395 . S
C395 C396 1.396 . S
C395 C397 1.365 . S
C395 H412 0.929 . S
C396 C393 1.394 . S
C396 C395 1.396 . S
C396 H413 0.930 . S
C397 C394 1.383 . S
C397 C395 1.365 . S
C397 H414 0.931 . S
C398 C393 1.370 . S
C398 C394 1.395 . S
C398 H415 0.930 . S
C399 Gd346 2.805 . S
C399 O381 1.263 . S
C399 O382 1.252 . S
C399 C393 1.500 . S
C400 H362 0.930 . S
C400 C376 1.417 1_655 S
C400 C401 1.329 . S
C401 C371 1.437 1_655 S
C401 H372 0.929 . S
C401 C400 1.329 . S
H402 C375 0.931 1_655 S
C403 O385 1.265 . S
C403 O386 1.242 . S
C404 O389 1.261 . S
C404 O390 1.252 . S
C405 C408 1.394 . S
C405 C410 1.370 . S
C405 C411 1.500 . S
C406 C409 1.383 . S
C406 C410 1.395 . S
C407 C408 1.396 . S
C407 C409 1.365 . S
C407 H416 0.929 . S
C408 C405 1.394 . S
C408 C407 1.396 . S
C408 H417 0.930 . S
C409 C406 1.383 . S
C409 C407 1.365 . S
C409 H418 0.931 . S
C410 C405 1.370 . S
C410 C406 1.395 . S
C410 H419 0.930 . S
C411 Gd347 2.805 1_554 S
C411 O387 1.263 . S
C411 O388 1.252 . S
C411 C405 1.500 . S
H412 C395 0.929 . S
H413 C396 0.930 . S
H414 C397 0.931 . S
H415 C398 0.930 . S
H416 C407 0.929 . S
H417 C408 0.930 . S
H418 C409 0.931 . S
H419 C410 0.930 . S
C420 C422 1.422 . S
C420 C424 1.415 . S
C420 N426 1.369 1_556 S
C421 C422 1.421 . S
C421 C423 1.417 . S
C421 C433 1.422 . S
C422 C420 1.422 . S
C422 C421 1.421 . S
C422 N432 1.359 . S
C423 C421 1.417 . S
C423 C425 1.329 . S
C423 H442 0.930 . S
C424 C420 1.415 . S
C424 C425 1.437 . S
C424 C428 1.413 1_556 S
C425 C423 1.329 . S
C425 C424 1.437 . S
C425 H447 0.929 . S
N426 C420 1.369 1_554 S
N426 C427 1.338 . S
N426 Gd431 2.622 . S
C427 N426 1.338 . S
C427 C429 1.378 . S
C427 H439 0.929 . S
C428 C424 1.413 1_554 S
C428 C429 1.348 . S
C428 H444 0.931 . S
C429 C427 1.378 . S
C429 C428 1.348 . S
C429 H445 0.930 . S
Gd430 N450 2.622 . S
Gd430 N457 2.570 . S
Gd430 O464 2.353 . S
Gd430 O465 2.468 . S
Gd430 O466 2.427 . S
Gd430 O468 2.388 . S
Gd430 O469 2.386 . S
Gd430 O473 2.307 . S
Gd430 C483 2.805 . S
Gd431 N426 2.622 . S
Gd431 N432 2.570 1_554 S
Gd431 O463 2.386 . S
Gd431 O467 2.307 . S
Gd431 O470 2.353 . S
Gd431 O471 2.468 1_554 S
Gd431 O472 2.427 1_554 S
Gd431 O474 2.388 . S
Gd431 C495 2.805 1_554 S
N432 C422 1.359 . S
N432 Gd431 2.570 1_556 S
N432 C434 1.343 . S
C433 C421 1.422 . S
C433 C435 1.321 . S
C433 H441 0.931 . S
C434 N432 1.343 . S
C434 C435 1.390 . S
C434 H436 0.931 . S
C435 C433 1.321 . S
C435 C434 1.390 . S
C435 H437 0.930 . S
H436 C434 0.931 . S
H437 C435 0.930 . S
H438 C461 0.931 . S
H439 C427 0.929 . S
H440 C462 0.930 . S
H441 C433 0.931 . S
H442 C423 0.930 . S
H443 C452 0.929 . S
H444 C428 0.931 . S
H445 C429 0.930 . S
H446 C484 0.930 . S
H447 C425 0.929 . S
H448 C453 0.931 1_545 S
H449 C454 0.930 1_545 S
N450 Gd430 2.622 . S
N450 C451 1.369 . S
N450 C452 1.338 . S
C451 N450 1.369 . S
C451 C455 1.415 . S
C451 C458 1.422 . S
C452 H443 0.929 . S
C452 N450 1.338 . S
C452 C454 1.378 . S
C453 H448 0.931 1_565 S
C453 C454 1.348 . S
C453 C455 1.413 . S
C454 H449 0.930 1_565 S
C454 C452 1.378 . S
C454 C453 1.348 . S
C455 C451 1.415 . S
C455 C453 1.413 . S
C455 C485 1.437 1_655 S
H456 C485 0.929 . S
N457 Gd430 2.570 . S
N457 C458 1.359 . S
N457 C461 1.343 . S
C458 C451 1.422 . S
C458 N457 1.359 . S
C458 C460 1.421 . S
C459 C460 1.422 . S
C459 C462 1.321 . S
C459 H486 0.931 1_655 S
C460 C458 1.421 . S
C460 C459 1.422 . S
C460 C484 1.417 1_655 S
C461 H438 0.931 . S
C461 N457 1.343 . S
C461 C462 1.390 . S
C462 H440 0.930 . S
C462 C459 1.321 . S
C462 C461 1.390 . S
O463 Gd431 2.386 . S
O463 C475 1.265 . S
O464 Gd430 2.353 . S
O464 C475 1.242 . S
O465 Gd430 2.468 . S
O465 C483 1.263 . S
O466 Gd430 2.427 . S
O466 C483 1.252 . S
O467 Gd431 2.307 . S
O467 C476 1.261 . S
O468 Gd430 2.388 . S
O468 C476 1.252 . S
O469 Gd430 2.386 . S
O469 C487 1.265 . S
O470 Gd431 2.353 . S
O470 C487 1.242 . S
O471 Gd431 2.468 1_556 S
O471 C495 1.263 . S
O472 Gd431 2.427 1_556 S
O472 C495 1.252 . S
O473 Gd430 2.307 . S
O473 C488 1.261 . S
O474 Gd431 2.388 . S
O474 C488 1.252 . S
C475 O463 1.265 . S
C475 O464 1.242 . S
C476 O467 1.261 . S
C476 O468 1.252 . S
C477 C480 1.394 . S
C477 C482 1.370 . S
C477 C483 1.500 . S
C478 C481 1.383 . S
C478 C482 1.395 . S
C479 C480 1.396 . S
C479 C481 1.365 . S
C479 H496 0.929 . S
C480 C477 1.394 . S
C480 C479 1.396 . S
C480 H497 0.930 . S
C481 C478 1.383 . S
C481 C479 1.365 . S
C481 H498 0.931 . S
C482 C477 1.370 . S
C482 C478 1.395 . S
C482 H499 0.930 . S
C483 Gd430 2.805 . S
C483 O465 1.263 . S
C483 O466 1.252 . S
C483 C477 1.500 . S
C484 H446 0.930 . S
C484 C460 1.417 1_455 S
C484 C485 1.329 . S
C485 C455 1.437 1_455 S
C485 H456 0.929 . S
C485 C484 1.329 . S
H486 C459 0.931 1_455 S
C487 O469 1.265 . S
C487 O470 1.242 . S
C488 O473 1.261 . S
C488 O474 1.252 . S
C489 C492 1.394 . S
C489 C494 1.370 . S
C489 C495 1.500 . S
C490 C493 1.383 . S
C490 C494 1.395 . S
C491 C492 1.396 . S
C491 C493 1.365 . S
C491 H500 0.929 . S
C492 C489 1.394 . S
C492 C491 1.396 . S
C492 H501 0.930 . S
C493 C490 1.383 . S
C493 C491 1.365 . S
C493 H502 0.931 . S
C494 C489 1.370 . S
C494 C490 1.395 . S
C494 H503 0.930 . S
C495 Gd431 2.805 1_556 S
C495 O471 1.263 . S
C495 O472 1.252 . S
C495 C489 1.500 . S
H496 C479 0.929 . S
H497 C480 0.930 . S
H498 C481 0.931 . S
H499 C482 0.930 . S
H500 C491 0.929 . S
H501 C492 0.930 . S
H502 C493 0.931 . S
H503 C494 0.930 . S
C504 C506 1.422 . S
C504 C508 1.415 . S
C504 N510 1.369 . S
C505 C506 1.421 . S
C505 C507 1.417 . S
C505 C517 1.422 . S
C506 C504 1.422 . S
C506 C505 1.421 . S
C506 N516 1.359 . S
C507 C505 1.417 . S
C507 C509 1.329 . S
C507 H526 0.930 . S
C508 C504 1.415 . S
C508 C509 1.437 . S
C508 C512 1.413 . S
C509 C507 1.329 . S
C509 C508 1.437 . S
C509 H531 0.929 . S
N510 C504 1.369 . S
N510 C511 1.338 . S
N510 Gd515 2.622 . S
C511 N510 1.338 . S
C511 C513 1.378 . S
C511 H523 0.929 . S
C512 C508 1.413 . S
C512 C513 1.348 . S
C512 H528 0.931 . S
C513 C511 1.378 . S
C513 C512 1.348 . S
C513 H529 0.930 . S
Gd514 N534 2.622 . S
Gd514 N541 2.570 . S
Gd514 O548 2.353 . S
Gd514 O549 2.468 . S
Gd514 O550 2.427 . S
Gd514 O552 2.388 . S
Gd514 O553 2.386 . S
Gd514 O557 2.307 . S
Gd514 C567 2.805 . S
Gd515 N510 2.622 . S
Gd515 N516 2.570 . S
Gd515 O547 2.386 . S
Gd515 O551 2.307 . S
Gd515 O554 2.353 . S
Gd515 O555 2.468 . S
Gd515 O556 2.427 . S
Gd515 O558 2.388 . S
Gd515 C579 2.805 . S
N516 C506 1.359 . S
N516 Gd515 2.570 . S
N516 C518 1.343 . S
C517 C505 1.422 . S
C517 C519 1.321 . S
C517 H525 0.931 . S
C518 N516 1.343 . S
C518 C519 1.390 . S
C518 H520 0.931 . S
C519 C517 1.321 . S
C519 C518 1.390 . S
C519 H521 0.930 . S
H520 C518 0.931 . S
H521 C519 0.930 . S
H522 C545 0.931 . S
H523 C511 0.929 . S
H524 C546 0.930 . S
H525 C517 0.931 . S
H526 C507 0.930 . S
H527 C536 0.929 . S
H528 C512 0.931 . S
H529 C513 0.930 . S
H530 C568 0.930 . S
H531 C509 0.929 . S
H532 C537 0.931 . S
H533 C538 0.930 . S
N534 Gd514 2.622 . S
N534 C535 1.369 . S
N534 C536 1.338 . S
C535 N534 1.369 . S
C535 C539 1.415 . S
C535 C542 1.422 . S
C536 H527 0.929 . S
C536 N534 1.338 . S
C536 C538 1.378 . S
C537 H532 0.931 . S
C537 C538 1.348 . S
C537 C539 1.413 . S
C538 H533 0.930 . S
C538 C536 1.378 . S
C538 C537 1.348 . S
C539 C535 1.415 . S
C539 C537 1.413 . S
C539 C569 1.437 . S
H540 C569 0.929 . S
N541 Gd514 2.570 . S
N541 C542 1.359 . S
N541 C545 1.343 . S
C542 C535 1.422 . S
C542 N541 1.359 . S
C542 C544 1.421 . S
C543 C544 1.422 . S
C543 C546 1.321 . S
C543 H570 0.931 . S
C544 C542 1.421 . S
C544 C543 1.422 . S
C544 C568 1.417 . S
C545 H522 0.931 . S
C545 N541 1.343 . S
C545 C546 1.390 . S
C546 H524 0.930 . S
C546 C543 1.321 . S
C546 C545 1.390 . S
O547 Gd515 2.386 . S
O547 C559 1.265 . S
O548 Gd514 2.353 . S
O548 C559 1.242 . S
O549 Gd514 2.468 . S
O549 C567 1.263 . S
O550 Gd514 2.427 . S
O550 C567 1.252 . S
O551 Gd515 2.307 . S
O551 C560 1.261 . S
O552 Gd514 2.388 . S
O552 C560 1.252 . S
O553 Gd514 2.386 . S
O553 C571 1.265 . S
O554 Gd515 2.353 . S
O554 C571 1.242 . S
O555 Gd515 2.468 . S
O555 C579 1.263 . S
O556 Gd515 2.427 . S
O556 C579 1.252 . S
O557 Gd514 2.307 . S
O557 C572 1.261 . S
O558 Gd515 2.388 . S
O558 C572 1.252 . S
C559 O547 1.265 . S
C559 O548 1.242 . S
C560 O551 1.261 . S
C560 O552 1.252 . S
C561 C564 1.394 . S
C561 C566 1.370 . S
C561 C567 1.500 . S
C562 C565 1.383 . S
C562 C566 1.395 . S
C563 C564 1.396 . S
C563 C565 1.365 . S
C563 H580 0.929 . S
C564 C561 1.394 . S
C564 C563 1.396 . S
C564 H581 0.930 . S
C565 C562 1.383 . S
C565 C563 1.365 . S
C565 H582 0.931 . S
C566 C561 1.370 . S
C566 C562 1.395 . S
C566 H583 0.930 . S
C567 Gd514 2.805 . S
C567 O549 1.263 . S
C567 O550 1.252 . S
C567 C561 1.500 . S
C568 H530 0.930 . S
C568 C544 1.417 . S
C568 C569 1.329 . S
C569 C539 1.437 . S
C569 H540 0.929 . S
C569 C568 1.329 . S
H570 C543 0.931 . S
C571 O553 1.265 . S
C571 O554 1.242 . S
C572 O557 1.261 . S
C572 O558 1.252 . S
C573 C576 1.394 . S
C573 C578 1.370 . S
C573 C579 1.500 . S
C574 C577 1.383 . S
C574 C578 1.395 1_556 S
C575 C576 1.396 . S
C575 C577 1.365 1_554 S
C575 H584 0.929 1_554 S
C576 C573 1.394 . S
C576 C575 1.396 . S
C576 H585 0.930 . S
C577 C574 1.383 . S
C577 C575 1.365 1_556 S
C577 H586 0.931 . S
C578 C573 1.370 . S
C578 C574 1.395 1_554 S
C578 H587 0.930 . S
C579 Gd515 2.805 . S
C579 O555 1.263 . S
C579 O556 1.252 . S
C579 C573 1.500 . S
H580 C563 0.929 . S
H581 C564 0.930 . S
H582 C565 0.931 . S
H583 C566 0.930 . S
H584 C575 0.929 1_556 S
H585 C576 0.930 . S
H586 C577 0.931 . S
H587 C578 0.930 . S
C588 C590 1.422 . S
C588 C592 1.415 . S
C588 N594 1.369 . S
C589 C590 1.421 1_565 S
C589 C591 1.417 . S
C589 C601 1.422 . S
C590 C588 1.422 . S
C590 C589 1.421 1_545 S
C590 N600 1.359 . S
C591 C589 1.417 . S
C591 C593 1.329 . S
C591 H610 0.930 . S
C592 C588 1.415 . S
C592 C593 1.437 1_545 S
C592 C596 1.413 . S
C593 C591 1.329 . S
C593 C592 1.437 1_565 S
C593 H615 0.929 . S
N594 C588 1.369 . S
N594 C595 1.338 . S
N594 Gd599 2.622 . S
C595 N594 1.338 . S
C595 C597 1.378 . S
C595 H607 0.929 . S
C596 C592 1.413 . S
C596 C597 1.348 . S
C596 H612 0.931 1_545 S
C597 C595 1.378 . S
C597 C596 1.348 . S
C597 H613 0.930 . S
Gd598 N618 2.622 . S
Gd598 N625 2.570 . S
Gd598 O632 2.353 . S
Gd598 O633 2.468 . S
Gd598 O634 2.427 . S
Gd598 O636 2.388 . S
Gd598 O637 2.386 . S
Gd598 O641 2.307 . S
Gd598 C651 2.805 . S
Gd599 N594 2.622 . S
Gd599 N600 2.570 . S
Gd599 O631 2.386 . S
Gd599 O635 2.307 . S
Gd599 O638 2.353 . S
Gd599 O639 2.468 . S
Gd599 O640 2.427 . S
Gd599 O642 2.388 . S
Gd599 C663 2.805 . S
N600 C590 1.359 . S
N600 Gd599 2.570 . S
N600 C602 1.343 . S
C601 C589 1.422 . S
C601 C603 1.321 1_565 S
C601 H609 0.931 . S
C602 N600 1.343 . S
C602 C603 1.390 . S
C602 H604 0.931 . S
C603 C601 1.321 1_545 S
C603 C602 1.390 . S
C603 H605 0.930 . S
H604 C602 0.931 . S
H605 C603 0.930 . S
H606 C629 0.931 . S
H607 C595 0.929 . S
H608 C630 0.930 . S
H609 C601 0.931 . S
H610 C591 0.930 . S
H611 C620 0.929 . S
H612 C596 0.931 1_565 S
H613 C597 0.930 . S
H614 C652 0.930 . S
H615 C593 0.929 . S
H616 C621 0.931 . S
H617 C622 0.930 . S
N618 Gd598 2.622 . S
N618 C619 1.369 . S
N618 C620 1.338 . S
C619 N618 1.369 . S
C619 C623 1.415 . S
C619 C626 1.422 . S
C620 H611 0.929 . S
C620 N618 1.338 . S
C620 C622 1.378 . S
C621 H616 0.931 . S
C621 C622 1.348 . S
C621 C623 1.413 . S
C622 H617 0.930 . S
C622 C620 1.378 . S
C622 C621 1.348 . S
C623 C619 1.415 . S
C623 C621 1.413 . S
C623 C653 1.437 . S
H624 C653 0.929 . S
N625 Gd598 2.570 . S
N625 C626 1.359 . S
N625 C629 1.343 . S
C626 C619 1.422 . S
C626 N625 1.359 . S
C626 C628 1.421 . S
C627 C628 1.422 . S
C627 C630 1.321 . S
C627 H654 0.931 . S
C628 C626 1.421 . S
C628 C627 1.422 . S
C628 C652 1.417 . S
C629 H606 0.931 . S
C629 N625 1.343 . S
C629 C630 1.390 . S
C630 H608 0.930 . S
C630 C627 1.321 . S
C630 C629 1.390 . S
O631 Gd599 2.386 . S
O631 C643 1.265 . S
O632 Gd598 2.353 . S
O632 C643 1.242 . S
O633 Gd598 2.468 . S
O633 C651 1.263 . S
O634 Gd598 2.427 . S
O634 C651 1.252 . S
O635 Gd599 2.307 . S
O635 C644 1.261 . S
O636 Gd598 2.388 . S
O636 C644 1.252 . S
O637 Gd598 2.386 . S
O637 C655 1.265 . S
O638 Gd599 2.353 . S
O638 C655 1.242 . S
O639 Gd599 2.468 . S
O639 C663 1.263 . S
O640 Gd599 2.427 . S
O640 C663 1.252 . S
O641 Gd598 2.307 . S
O641 C656 1.261 . S
O642 Gd599 2.388 . S
O642 C656 1.252 . S
C643 O631 1.265 . S
C643 O632 1.242 . S
C644 O635 1.261 . S
C644 O636 1.252 . S
C645 C648 1.394 . S
C645 C650 1.370 . S
C645 C651 1.500 . S
C646 C649 1.383 . S
C646 C650 1.395 . S
C647 C648 1.396 . S
C647 C649 1.365 . S
C647 H664 0.929 . S
C648 C645 1.394 . S
C648 C647 1.396 . S
C648 H665 0.930 . S
C649 C646 1.383 . S
C649 C647 1.365 . S
C649 H666 0.931 . S
C650 C645 1.370 . S
C650 C646 1.395 . S
C650 H667 0.930 . S
C651 Gd598 2.805 . S
C651 O633 1.263 . S
C651 O634 1.252 . S
C651 C645 1.500 . S
C652 H614 0.930 . S
C652 C628 1.417 . S
C652 C653 1.329 . S
C653 C623 1.437 . S
C653 H624 0.929 . S
C653 C652 1.329 . S
H654 C627 0.931 . S
C655 O637 1.265 . S
C655 O638 1.242 . S
C656 O641 1.261 . S
C656 O642 1.252 . S
C657 C660 1.394 . S
C657 C662 1.370 . S
C657 C663 1.500 . S
C658 C661 1.383 . S
C658 C662 1.395 1_554 S
C659 C660 1.407 . S
C659 C661 1.359 1_556 S
C659 H668 0.924 1_556 S
C660 C657 1.394 . S
C660 C659 1.407 . S
C660 H669 0.930 . S
C661 C658 1.383 . S
C661 C659 1.359 1_554 S
C661 H670 0.931 . S
C662 C657 1.370 . S
C662 C658 1.395 1_556 S
C662 H671 0.930 . S
C663 Gd599 2.805 . S
C663 O639 1.263 . S
C663 O640 1.252 . S
C663 C657 1.500 . S
H664 C647 0.929 . S
H665 C648 0.930 . S
H666 C649 0.931 . S
H667 C650 0.930 . S
H668 C659 0.924 1_554 S
H669 C660 0.930 . S
H670 C661 0.931 . S
H671 C662 0.930 . S
C672 C674 1.422 . S
C672 C676 1.415 . S
C672 N678 1.369 . S
C673 C674 1.421 . S
C673 C675 1.417 1_655 S
C673 C685 1.422 . S
C674 C672 1.422 . S
C674 C673 1.421 . S
C674 N684 1.359 . S
C675 C673 1.417 1_455 S
C675 C677 1.329 . S
C675 H694 0.930 . S
C676 C672 1.415 . S
C676 C677 1.437 1_655 S
C676 C680 1.413 . S
C677 C675 1.329 . S
C677 C676 1.437 1_455 S
C677 H699 0.929 . S
N678 C672 1.369 . S
N678 C679 1.338 . S
N678 Gd683 2.622 . S
C679 N678 1.338 . S
C679 C681 1.378 . S
C679 H691 0.929 . S
C680 C676 1.413 . S
C680 C681 1.348 . S
C680 H696 0.931 . S
C681 C679 1.378 . S
C681 C680 1.348 . S
C681 H697 0.930 . S
Gd682 N702 2.622 . S
Gd682 N709 2.570 1_556 S
Gd682 O716 2.353 . S
Gd682 O717 2.468 1_556 S
Gd682 O718 2.427 1_556 S
Gd682 O720 2.388 . S
Gd682 O721 2.386 . S
Gd682 O725 2.307 . S
Gd682 C735 2.805 1_556 S
Gd683 N678 2.622 . S
Gd683 N684 2.570 . S
Gd683 O715 2.386 . S
Gd683 O719 2.307 . S
Gd683 O722 2.353 . S
Gd683 O723 2.468 . S
Gd683 O724 2.427 . S
Gd683 O726 2.388 . S
Gd683 C747 2.805 . S
N684 C674 1.359 . S
N684 Gd683 2.570 . S
N684 C686 1.343 . S
C685 C673 1.422 . S
C685 C687 1.321 . S
C685 H693 0.931 1_655 S
C686 N684 1.343 . S
C686 C687 1.390 . S
C686 H688 0.931 . S
C687 C685 1.321 . S
C687 C686 1.390 . S
C687 H689 0.930 . S
H688 C686 0.931 . S
H689 C687 0.930 . S
H690 C713 0.931 . S
H691 C679 0.929 . S
H692 C714 0.930 . S
H693 C685 0.931 1_455 S
H694 C675 0.930 . S
H695 C704 0.929 . S
H696 C680 0.931 . S
H697 C681 0.930 . S
H698 C736 0.930 . S
H699 C677 0.929 . S
H700 C705 0.931 . S
H701 C706 0.930 . S
N702 Gd682 2.622 . S
N702 C703 1.369 1_556 S
N702 C704 1.338 . S
C703 N702 1.369 1_554 S
C703 C707 1.415 . S
C703 C710 1.422 . S
C704 H695 0.929 . S
C704 N702 1.338 . S
C704 C706 1.378 . S
C705 H700 0.931 . S
C705 C706 1.348 . S
C705 C707 1.413 1_556 S
C706 H701 0.930 . S
C706 C704 1.378 . S
C706 C705 1.348 . S
C707 C703 1.415 . S
C707 C705 1.413 1_554 S
C707 C737 1.437 . S
H708 C737 0.929 . S
N709 Gd682 2.570 1_554 S
N709 C710 1.359 . S
N709 C713 1.343 . S
C710 C703 1.422 . S
C710 N709 1.359 . S
C710 C712 1.421 . S
C711 C712 1.422 . S
C711 C714 1.321 . S
C711 H738 0.931 . S
C712 C710 1.421 . S
C712 C711 1.422 . S
C712 C736 1.417 . S
C713 H690 0.931 . S
C713 N709 1.343 . S
C713 C714 1.390 . S
C714 H692 0.930 . S
C714 C711 1.321 . S
C714 C713 1.390 . S
O715 Gd683 2.386 . S
O715 C727 1.265 . S
O716 Gd682 2.353 . S
O716 C727 1.242 . S
O717 Gd682 2.468 1_554 S
O717 C735 1.263 . S
O718 Gd682 2.427 1_554 S
O718 C735 1.252 . S
O719 Gd683 2.307 . S
O719 C728 1.261 . S
O720 Gd682 2.388 . S
O720 C728 1.252 . S
O721 Gd682 2.386 . S
O721 C739 1.265 . S
O722 Gd683 2.353 . S
O722 C739 1.242 . S
O723 Gd683 2.468 . S
O723 C747 1.263 . S
O724 Gd683 2.427 . S
O724 C747 1.252 . S
O725 Gd682 2.307 . S
O725 C740 1.261 . S
O726 Gd683 2.388 . S
O726 C740 1.252 . S
C727 O715 1.265 . S
C727 O716 1.242 . S
C728 O719 1.261 . S
C728 O720 1.252 . S
C729 C732 1.394 . S
C729 C734 1.370 . S
C729 C735 1.500 . S
C730 C733 1.383 . S
C730 C734 1.395 . S
C731 C732 1.396 . S
C731 C733 1.365 . S
C731 H748 0.929 . S
C732 C729 1.394 . S
C732 C731 1.396 . S
C732 H749 0.930 . S
C733 C730 1.383 . S
C733 C731 1.365 . S
C733 H750 0.931 . S
C734 C729 1.370 . S
C734 C730 1.395 . S
C734 H751 0.930 . S
C735 Gd682 2.805 1_554 S
C735 O717 1.263 . S
C735 O718 1.252 . S
C735 C729 1.500 . S
C736 H698 0.930 . S
C736 C712 1.417 . S
C736 C737 1.329 . S
C737 C707 1.437 . S
C737 H708 0.929 . S
C737 C736 1.329 . S
H738 C711 0.931 . S
C739 O721 1.265 . S
C739 O722 1.242 . S
C740 O725 1.261 . S
C740 O726 1.252 . S
C741 C744 1.394 . S
C741 C746 1.370 . S
C741 C747 1.500 . S
C742 C745 1.383 . S
C742 C746 1.395 . S
C743 C744 1.396 . S
C743 C745 1.365 . S
C743 H752 0.929 . S
C744 C741 1.394 . S
C744 C743 1.396 . S
C744 H753 0.930 . S
C745 C742 1.383 . S
C745 C743 1.365 . S
C745 H754 0.931 . S
C746 C741 1.370 . S
C746 C742 1.395 . S
C746 H755 0.930 . S
C747 Gd683 2.805 . S
C747 O723 1.263 . S
C747 O724 1.252 . S
C747 C741 1.500 . S
H748 C731 0.929 . S
H749 C732 0.930 . S
H750 C733 0.931 . S
H751 C734 0.930 . S
H752 C743 0.929 . S
H753 C744 0.930 . S
H754 C745 0.931 . S
H755 C746 0.930 . S
C756 C758 1.422 . S
C756 C760 1.415 . S
C756 N762 1.369 . S
C757 C758 1.421 . S
C757 C759 1.417 . S
C757 C769 1.422 . S
C758 C756 1.422 . S
C758 C757 1.421 . S
C758 N768 1.359 . S
C759 C757 1.417 . S
C759 C761 1.329 . S
C759 H778 0.930 . S
C760 C756 1.415 . S
C760 C761 1.437 . S
C760 C764 1.413 . S
C761 C759 1.329 . S
C761 C760 1.437 . S
C761 H783 0.929 . S
N762 C756 1.369 . S
N762 C763 1.338 . S
N762 Gd767 2.622 . S
C763 N762 1.338 . S
C763 C765 1.379 . S
C763 H775 0.929 . S
C764 C760 1.413 . S
C764 C765 1.348 . S
C764 H780 0.931 1_545 S
C765 C763 1.379 . S
C765 C764 1.348 . S
C765 H781 0.928 1_545 S
Gd766 N786 2.622 . S
Gd766 N793 2.570 . S
Gd766 O800 2.353 . S
Gd766 O801 2.468 . S
Gd766 O802 2.427 . S
Gd766 O804 2.388 . S
Gd766 O805 2.386 . S
Gd766 O809 2.307 . S
Gd766 C819 2.805 . S
Gd767 N762 2.622 . S
Gd767 N768 2.570 . S
Gd767 O799 2.386 . S
Gd767 O803 2.307 . S
Gd767 O806 2.353 . S
Gd767 O807 2.468 . S
Gd767 O808 2.427 . S
Gd767 O810 2.388 . S
Gd767 C831 2.805 . S
N768 C758 1.359 . S
N768 Gd767 2.570 . S
N768 C770 1.343 . S
C769 C757 1.422 . S
C769 C771 1.321 . S
C769 H777 0.931 . S
C770 N768 1.343 . S
C770 C771 1.390 . S
C770 H772 0.931 . S
C771 C769 1.321 . S
C771 C770 1.390 . S
C771 H773 0.930 . S
H772 C770 0.931 . S
H773 C771 0.930 . S
H774 C797 0.931 . S
H775 C763 0.929 . S
H776 C798 0.930 . S
H777 C769 0.931 . S
H778 C759 0.930 . S
H779 C788 0.929 . S
H780 C764 0.931 1_565 S
H781 C765 0.928 1_565 S
H782 C820 0.930 . S
H783 C761 0.929 . S
H784 C789 0.931 . S
H785 C790 0.930 . S
N786 Gd766 2.622 . S
N786 C787 1.369 . S
N786 C788 1.338 . S
C787 N786 1.369 . S
C787 C791 1.415 . S
C787 C794 1.422 . S
C788 H779 0.929 . S
C788 N786 1.338 . S
C788 C790 1.378 . S
C789 H784 0.931 . S
C789 C790 1.348 . S
C789 C791 1.413 . S
C790 H785 0.930 . S
C790 C788 1.378 . S
C790 C789 1.348 . S
C791 C787 1.415 . S
C791 C789 1.413 . S
C791 C821 1.437 . S
H792 C821 0.929 . S
N793 Gd766 2.570 . S
N793 C794 1.359 . S
N793 C797 1.343 . S
C794 C787 1.422 . S
C794 N793 1.359 . S
C794 C796 1.421 . S
C795 C796 1.422 . S
C795 C798 1.321 . S
C795 H822 0.931 . S
C796 C794 1.421 . S
C796 C795 1.422 . S
C796 C820 1.417 . S
C797 H774 0.931 . S
C797 N793 1.343 . S
C797 C798 1.390 . S
C798 H776 0.930 . S
C798 C795 1.321 . S
C798 C797 1.390 . S
O799 Gd767 2.386 . S
O799 C811 1.265 . S
O800 Gd766 2.353 . S
O800 C811 1.242 . S
O801 Gd766 2.468 . S
O801 C819 1.263 . S
O802 Gd766 2.427 . S
O802 C819 1.252 . S
O803 Gd767 2.307 . S
O803 C812 1.261 . S
O804 Gd766 2.388 . S
O804 C812 1.252 . S
O805 Gd766 2.386 . S
O805 C823 1.265 . S
O806 Gd767 2.353 . S
O806 C823 1.242 . S
O807 Gd767 2.468 . S
O807 C831 1.263 . S
O808 Gd767 2.427 . S
O808 C831 1.252 . S
O809 Gd766 2.307 . S
O809 C824 1.261 . S
O810 Gd767 2.388 . S
O810 C824 1.252 . S
C811 O799 1.265 . S
C811 O800 1.242 . S
C812 O803 1.261 . S
C812 O804 1.252 . S
C813 C816 1.394 . S
C813 C818 1.370 . S
C813 C819 1.500 . S
C814 C817 1.383 . S
C814 C818 1.395 . S
C815 C816 1.396 . S
C815 C817 1.365 . S
C815 H832 0.929 . S
C816 C813 1.394 . S
C816 C815 1.396 . S
C816 H833 0.930 . S
C817 C814 1.383 . S
C817 C815 1.365 . S
C817 H834 0.931 . S
C818 C813 1.370 . S
C818 C814 1.395 . S
C818 H835 0.930 . S
C819 Gd766 2.805 . S
C819 O801 1.263 . S
C819 O802 1.252 . S
C819 C813 1.500 . S
C820 H782 0.930 . S
C820 C796 1.417 . S
C820 C821 1.329 . S
C821 C791 1.437 . S
C821 H792 0.929 . S
C821 C820 1.329 . S
H822 C795 0.931 . S
C823 O805 1.265 . S
C823 O806 1.242 . S
C824 O809 1.261 . S
C824 O810 1.252 . S
C825 C828 1.394 . S
C825 C830 1.370 . S
C825 C831 1.500 . S
C826 C829 1.383 . S
C826 C830 1.395 1_554 S
C827 C828 1.396 . S
C827 C829 1.365 1_556 S
C827 H836 0.929 1_556 S
C828 C825 1.394 . S
C828 C827 1.396 . S
C828 H837 0.930 . S
C829 C826 1.383 . S
C829 C827 1.365 1_554 S
C829 H838 0.931 . S
C830 C825 1.370 . S
C830 C826 1.395 1_556 S
C830 H839 0.930 . S
C831 Gd767 2.805 . S
C831 O807 1.263 . S
C831 O808 1.252 . S
C831 C825 1.500 . S
H832 C815 0.929 . S
H833 C816 0.930 . S
H834 C817 0.931 . S
H835 C818 0.930 . S
H836 C827 0.929 1_554 S
H837 C828 0.930 . S
H838 C829 0.931 . S
H839 C830 0.930 . S
C840 C842 1.422 . S
C840 C844 1.415 . S
C840 N846 1.369 . S
C841 C842 1.421 . S
C841 C843 1.417 . S
C841 C853 1.422 . S
C842 C840 1.422 . S
C842 C841 1.421 . S
C842 N852 1.359 . S
C843 C841 1.417 . S
C843 C845 1.329 . S
C843 H862 0.930 . S
C844 C840 1.415 . S
C844 C845 1.437 . S
C844 C848 1.413 . S
C845 C843 1.329 . S
C845 C844 1.437 . S
C845 H867 0.929 . S
N846 C840 1.369 . S
N846 C847 1.338 . S
N846 Gd851 2.622 . S
C847 N846 1.338 . S
C847 C849 1.378 . S
C847 H859 0.929 . S
C848 C844 1.413 . S
C848 C849 1.348 . S
C848 H864 0.931 . S
C849 C847 1.378 . S
C849 C848 1.348 . S
C849 H865 0.930 . S
Gd850 N870 2.622 . S
Gd850 N877 2.570 . S
Gd850 O884 2.353 . S
Gd850 O885 2.468 . S
Gd850 O886 2.427 . S
Gd850 O888 2.388 . S
Gd850 O889 2.386 . S
Gd850 O893 2.307 . S
Gd850 C903 2.805 . S
Gd851 N846 2.622 . S
Gd851 N852 2.570 . S
Gd851 O883 2.386 . S
Gd851 O887 2.307 . S
Gd851 O890 2.353 . S
Gd851 O891 2.468 . S
Gd851 O892 2.427 . S
Gd851 O894 2.388 . S
Gd851 C915 2.805 . S
N852 C842 1.359 . S
N852 Gd851 2.570 . S
N852 C854 1.343 . S
C853 C841 1.422 . S
C853 C855 1.321 . S
C853 H861 0.931 . S
C854 N852 1.343 . S
C854 C855 1.390 . S
C854 H856 0.931 . S
C855 C853 1.321 . S
C855 C854 1.390 . S
C855 H857 0.930 . S
H856 C854 0.931 . S
H857 C855 0.930 . S
H858 C881 0.931 . S
H859 C847 0.929 . S
H860 C882 0.930 . S
H861 C853 0.931 . S
H862 C843 0.930 . S
H863 C872 0.929 . S
H864 C848 0.931 . S
H865 C849 0.930 . S
H866 C904 0.930 . S
H867 C845 0.929 . S
H868 C873 0.931 . S
H869 C874 0.930 . S
N870 Gd850 2.622 . S
N870 C871 1.369 . S
N870 C872 1.338 . S
C871 N870 1.369 . S
C871 C875 1.415 . S
C871 C878 1.422 . S
C872 H863 0.929 . S
C872 N870 1.338 . S
C872 C874 1.378 . S
C873 H868 0.931 . S
C873 C874 1.348 . S
C873 C875 1.413 . S
C874 H869 0.930 . S
C874 C872 1.378 . S
C874 C873 1.348 . S
C875 C871 1.415 . S
C875 C873 1.413 . S
C875 C905 1.437 . S
H876 C905 0.929 . S
N877 Gd850 2.570 . S
N877 C878 1.359 . S
N877 C881 1.343 . S
C878 C871 1.422 . S
C878 N877 1.359 . S
C878 C880 1.421 . S
C879 C880 1.422 . S
C879 C882 1.321 . S
C879 H906 0.931 . S
C880 C878 1.421 . S
C880 C879 1.422 . S
C880 C904 1.417 . S
C881 H858 0.931 . S
C881 N877 1.343 . S
C881 C882 1.390 . S
C882 H860 0.930 . S
C882 C879 1.321 . S
C882 C881 1.390 . S
O883 Gd851 2.386 . S
O883 C895 1.265 . S
O884 Gd850 2.353 . S
O884 C895 1.242 . S
O885 Gd850 2.468 . S
O885 C903 1.263 . S
O886 Gd850 2.427 . S
O886 C903 1.252 . S
O887 Gd851 2.307 . S
O887 C896 1.261 . S
O888 Gd850 2.388 . S
O888 C896 1.252 . S
O889 Gd850 2.386 . S
O889 C907 1.265 . S
O890 Gd851 2.353 . S
O890 C907 1.242 . S
O891 Gd851 2.468 . S
O891 C915 1.263 . S
O892 Gd851 2.427 . S
O892 C915 1.252 . S
O893 Gd850 2.307 . S
O893 C908 1.261 . S
O894 Gd851 2.388 . S
O894 C908 1.252 . S
C895 O883 1.265 . S
C895 O884 1.242 . S
C896 O887 1.261 . S
C896 O888 1.252 . S
C897 C900 1.394 . S
C897 C902 1.370 . S
C897 C903 1.500 . S
C898 C901 1.383 . S
C898 C902 1.395 . S
C899 C900 1.396 . S
C899 C901 1.365 . S
C899 H916 0.929 . S
C900 C897 1.394 . S
C900 C899 1.396 . S
C900 H917 0.930 . S
C901 C898 1.383 . S
C901 C899 1.365 . S
C901 H918 0.931 . S
C902 C897 1.370 . S
C902 C898 1.395 . S
C902 H919 0.930 . S
C903 Gd850 2.805 . S
C903 O885 1.263 . S
C903 O886 1.252 . S
C903 C897 1.500 . S
C904 H866 0.930 . S
C904 C880 1.417 . S
C904 C905 1.329 . S
C905 C875 1.437 . S
C905 H876 0.929 . S
C905 C904 1.329 . S
H906 C879 0.931 . S
C907 O889 1.265 . S
C907 O890 1.242 . S
C908 O893 1.261 . S
C908 O894 1.252 . S
C909 C912 1.394 . S
C909 C914 1.370 . S
C909 C915 1.500 . S
C910 C913 1.383 . S
C910 C914 1.395 1_556 S
C911 C912 1.396 . S
C911 C913 1.365 1_554 S
C911 H920 0.929 1_554 S
C912 C909 1.394 . S
C912 C911 1.396 . S
C912 H921 0.930 . S
C913 C910 1.383 . S
C913 C911 1.365 1_556 S
C913 H922 0.931 . S
C914 C909 1.370 . S
C914 C910 1.395 1_554 S
C914 H923 0.930 . S
C915 Gd851 2.805 . S
C915 O891 1.263 . S
C915 O892 1.252 . S
C915 C909 1.500 . S
H916 C899 0.929 . S
H917 C900 0.930 . S
H918 C901 0.931 . S
H919 C902 0.930 . S
H920 C911 0.929 1_556 S
H921 C912 0.930 . S
H922 C913 0.931 . S
H923 C914 0.930 . S
C924 C926 1.422 . S
C924 C928 1.415 . S
C924 N930 1.369 1_556 S
C925 C926 1.421 . S
C925 C927 1.417 . S
C925 C937 1.422 . S
C926 C924 1.422 . S
C926 C925 1.421 . S
C926 N936 1.359 . S
C927 C925 1.417 . S
C927 C929 1.329 . S
C927 H946 0.930 . S
C928 C924 1.415 . S
C928 C929 1.437 . S
C928 C932 1.413 1_556 S
C929 C927 1.329 . S
C929 C928 1.437 . S
C929 H951 0.929 . S
N930 C924 1.369 1_554 S
N930 C931 1.338 . S
N930 Gd935 2.622 . S
C931 N930 1.338 . S
C931 C933 1.378 . S
C931 H943 0.929 . S
C932 C928 1.413 1_554 S
C932 C933 1.348 . S
C932 H948 0.931 . S
C933 C931 1.378 . S
C933 C932 1.348 . S
C933 H949 0.930 . S
Gd934 N954 2.622 . S
Gd934 N961 2.570 . S
Gd934 O968 2.353 . S
Gd934 O969 2.468 . S
Gd934 O970 2.427 . S
Gd934 O972 2.388 . S
Gd934 O973 2.386 . S
Gd934 O977 2.307 . S
Gd934 C987 2.805 . S
Gd935 N930 2.622 . S
Gd935 N936 2.570 1_554 S
Gd935 O967 2.386 . S
Gd935 O971 2.307 . S
Gd935 O974 2.353 . S
Gd935 O975 2.468 1_554 S
Gd935 O976 2.427 1_554 S
Gd935 O978 2.388 . S
Gd935 C999 2.805 1_554 S
N936 C926 1.359 . S
N936 Gd935 2.570 1_556 S
N936 C938 1.343 . S
C937 C925 1.422 . S
C937 C939 1.321 . S
C937 H945 0.931 . S
C938 N936 1.343 . S
C938 C939 1.390 . S
C938 H940 0.931 . S
C939 C937 1.321 . S
C939 C938 1.390 . S
C939 H941 0.930 . S
H940 C938 0.931 . S
H941 C939 0.930 . S
H942 C965 0.931 . S
H943 C931 0.929 . S
H944 C966 0.930 . S
H945 C937 0.931 . S
H946 C927 0.930 . S
H947 C956 0.929 . S
H948 C932 0.931 . S
H949 C933 0.930 . S
H950 C988 0.930 . S
H951 C929 0.929 . S
H952 C957 0.931 1_545 S
H953 C958 0.930 1_655 S
N954 Gd934 2.622 . S
N954 C955 1.369 . S
N954 C956 1.338 . S
C955 N954 1.369 . S
C955 C959 1.415 . S
C955 C962 1.422 . S
C956 H947 0.929 . S
C956 N954 1.338 . S
C956 C958 1.378 . S
C957 H952 0.931 1_565 S
C957 C958 1.348 . S
C957 C959 1.413 . S
C958 H953 0.930 1_455 S
C958 C956 1.378 . S
C958 C957 1.348 . S
C959 C955 1.415 . S
C959 C957 1.413 . S
C959 C989 1.437 1_565 S
H960 C989 0.929 . S
N961 Gd934 2.570 . S
N961 C962 1.359 . S
N961 C965 1.343 . S
C962 C955 1.422 . S
C962 N961 1.359 . S
C962 C964 1.421 1_565 S
C963 C964 1.422 . S
C963 C966 1.321 1_545 S
C963 H990 0.931 . S
C964 C962 1.421 1_545 S
C964 C963 1.422 . S
C964 C988 1.417 . S
C965 H942 0.931 . S
C965 N961 1.343 . S
C965 C966 1.390 . S
C966 H944 0.930 . S
C966 C963 1.321 1_565 S
C966 C965 1.390 . S
O967 Gd935 2.386 . S
O967 C979 1.265 . S
O968 Gd934 2.353 . S
O968 C979 1.242 . S
O969 Gd934 2.468 . S
O969 C987 1.263 . S
O970 Gd934 2.427 . S
O970 C987 1.252 . S
O971 Gd935 2.307 . S
O971 C980 1.261 . S
O972 Gd934 2.388 . S
O972 C980 1.252 . S
O973 Gd934 2.386 . S
O973 C991 1.265 . S
O974 Gd935 2.353 . S
O974 C991 1.242 . S
O975 Gd935 2.468 1_556 S
O975 C999 1.263 . S
O976 Gd935 2.427 1_556 S
O976 C999 1.252 . S
O977 Gd934 2.307 . S
O977 C992 1.261 . S
O978 Gd935 2.388 . S
O978 C992 1.252 . S
C979 O967 1.265 . S
C979 O968 1.242 . S
C980 O971 1.261 . S
C980 O972 1.252 . S
C981 C984 1.394 . S
C981 C986 1.370 . S
C981 C987 1.500 . S
C982 C985 1.383 . S
C982 C986 1.395 . S
C983 C984 1.396 . S
C983 C985 1.365 . S
C983 H1000 0.929 . S
C984 C981 1.394 . S
C984 C983 1.396 . S
C984 H1001 0.930 . S
C985 C982 1.383 . S
C985 C983 1.365 . S
C985 H1002 0.931 . S
C986 C981 1.370 . S
C986 C982 1.395 . S
C986 H1003 0.930 . S
C987 Gd934 2.805 . S
C987 O969 1.263 . S
C987 O970 1.252 . S
C987 C981 1.500 . S
C988 H950 0.930 . S
C988 C964 1.417 . S
C988 C989 1.329 . S
C989 C959 1.437 1_545 S
C989 H960 0.929 . S
C989 C988 1.329 . S
H990 C963 0.931 . S
C991 O973 1.265 . S
C991 O974 1.242 . S
C992 O977 1.261 . S
C992 O978 1.252 . S
C993 C996 1.394 . S
C993 C998 1.370 . S
C993 C999 1.500 . S
C994 C997 1.383 . S
C994 C998 1.395 . S
C995 C996 1.396 . S
C995 C997 1.365 . S
C995 H1004 0.929 . S
C996 C993 1.394 . S
C996 C995 1.396 . S
C996 H1005 0.930 . S
C997 C994 1.383 . S
C997 C995 1.365 . S
C997 H1006 0.931 . S
C998 C993 1.370 . S
C998 C994 1.395 . S
C998 H1007 0.930 . S
C999 Gd935 2.805 1_556 S
C999 O975 1.263 . S
C999 O976 1.252 . S
C999 C993 1.500 . S
H1000 C983 0.929 . S
H1001 C984 0.930 . S
H1002 C985 0.931 . S
H1003 C986 0.930 . S
H1004 C995 0.929 . S
H1005 C996 0.930 . S
H1006 C997 0.931 . S
H1007 C998 0.930 . S
C1008 C1010 1.422 . S
C1008 C1012 1.415 . S
C1008 N1014 1.369 . S
C1009 C1010 1.421 . S
C1009 C1011 1.417 1_655 S
C1009 C1021 1.422 . S
C1010 C1008 1.422 . S
C1010 C1009 1.421 . S
C1010 N1020 1.359 . S
C1011 C1009 1.417 1_455 S
C1011 C1013 1.329 . S
C1011 H1030 0.930 . S
C1012 C1008 1.415 . S
C1012 C1013 1.437 1_655 S
C1012 C1016 1.413 . S
C1013 C1011 1.329 . S
C1013 C1012 1.437 1_455 S
C1013 H1035 0.929 . S
N1014 C1008 1.369 . S
N1014 C1015 1.338 . S
N1014 Gd1019 2.622 . S
C1015 N1014 1.338 . S
C1015 C1017 1.378 . S
C1015 H1027 0.929 . S
C1016 C1012 1.413 . S
C1016 C1017 1.348 . S
C1016 H1032 0.931 . S
C1017 C1015 1.378 . S
C1017 C1016 1.348 . S
C1017 H1033 0.930 . S
Gd1018 N1038 2.622 . S
Gd1018 N1045 2.570 1_554 S
Gd1018 O1052 2.353 . S
Gd1018 O1053 2.468 1_554 S
Gd1018 O1054 2.427 1_554 S
Gd1018 O1056 2.388 . S
Gd1018 O1057 2.386 . S
Gd1018 O1061 2.307 . S
Gd1018 C1071 2.805 1_554 S
Gd1019 N1014 2.622 . S
Gd1019 N1020 2.570 . S
Gd1019 O1051 2.386 . S
Gd1019 O1055 2.307 . S
Gd1019 O1058 2.353 . S
Gd1019 O1059 2.468 . S
Gd1019 O1060 2.427 . S
Gd1019 O1062 2.388 . S
Gd1019 C1083 2.805 . S
N1020 C1010 1.359 . S
N1020 Gd1019 2.570 . S
N1020 C1022 1.343 . S
C1021 C1009 1.422 . S
C1021 C1023 1.321 . S
C1021 H1029 0.931 1_655 S
C1022 N1020 1.343 . S
C1022 C1023 1.390 . S
C1022 H1024 0.931 . S
C1023 C1021 1.321 . S
C1023 C1022 1.390 . S
C1023 H1025 0.930 . S
H1024 C1022 0.931 . S
H1025 C1023 0.930 . S
H1026 C1049 0.931 . S
H1027 C1015 0.929 . S
H1028 C1050 0.930 . S
H1029 C1021 0.931 1_455 S
H1030 C1011 0.930 . S
H1031 C1040 0.929 . S
H1032 C1016 0.931 . S
H1033 C1017 0.930 . S
H1034 C1072 0.930 . S
H1035 C1013 0.929 . S
H1036 C1041 0.932 . S
H1037 C1042 0.930 . S
N1038 Gd1018 2.622 . S
N1038 C1039 1.369 1_554 S
N1038 C1040 1.338 . S
C1039 N1038 1.369 1_556 S
C1039 C1043 1.415 . S
C1039 C1046 1.422 . S
C1040 H1031 0.929 . S
C1040 N1038 1.338 . S
C1040 C1042 1.378 . S
C1041 H1036 0.932 . S
C1041 C1042 1.348 . S
C1041 C1043 1.413 1_554 S
C1042 H1037 0.930 . S
C1042 C1040 1.378 . S
C1042 C1041 1.348 . S
C1043 C1039 1.415 . S
C1043 C1041 1.413 1_556 S
C1043 C1073 1.437 . S
H1044 C1073 0.929 . S
N1045 Gd1018 2.570 1_556 S
N1045 C1046 1.359 . S
N1045 C1049 1.343 . S
C1046 C1039 1.422 . S
C1046 N1045 1.359 . S
C1046 C1048 1.421 . S
C1047 C1048 1.422 . S
C1047 C1050 1.321 . S
C1047 H1074 0.931 . S
C1048 C1046 1.421 . S
C1048 C1047 1.422 . S
C1048 C1072 1.417 . S
C1049 H1026 0.931 . S
C1049 N1045 1.343 . S
C1049 C1050 1.390 . S
C1050 H1028 0.930 . S
C1050 C1047 1.321 . S
C1050 C1049 1.390 . S
O1051 Gd1019 2.386 . S
O1051 C1063 1.265 . S
O1052 Gd1018 2.353 . S
O1052 C1063 1.242 . S
O1053 Gd1018 2.468 1_556 S
O1053 C1071 1.263 . S
O1054 Gd1018 2.427 1_556 S
O1054 C1071 1.252 . S
O1055 Gd1019 2.307 . S
O1055 C1064 1.261 . S
O1056 Gd1018 2.388 . S
O1056 C1064 1.252 . S
O1057 Gd1018 2.386 . S
O1057 C1075 1.265 . S
O1058 Gd1019 2.353 . S
O1058 C1075 1.242 . S
O1059 Gd1019 2.468 . S
O1059 C1083 1.263 . S
O1060 Gd1019 2.427 . S
O1060 C1083 1.252 . S
O1061 Gd1018 2.307 . S
O1061 C1076 1.261 . S
O1062 Gd1019 2.388 . S
O1062 C1076 1.252 . S
C1063 O1051 1.265 . S
C1063 O1052 1.242 . S
C1064 O1055 1.261 . S
C1064 O1056 1.252 . S
C1065 C1068 1.394 . S
C1065 C1070 1.370 . S
C1065 C1071 1.500 . S
C1066 C1069 1.383 . S
C1066 C1070 1.395 . S
C1067 C1068 1.396 . S
C1067 C1069 1.365 . S
C1067 H1084 0.929 . S
C1068 C1065 1.394 . S
C1068 C1067 1.396 . S
C1068 H1085 0.930 . S
C1069 C1066 1.383 . S
C1069 C1067 1.365 . S
C1069 H1086 0.931 . S
C1070 C1065 1.370 . S
C1070 C1066 1.395 . S
C1070 H1087 0.930 . S
C1071 Gd1018 2.805 1_556 S
C1071 O1053 1.263 . S
C1071 O1054 1.252 . S
C1071 C1065 1.500 . S
C1072 H1034 0.930 . S
C1072 C1048 1.417 . S
C1072 C1073 1.329 . S
C1073 C1043 1.437 . S
C1073 H1044 0.929 . S
C1073 C1072 1.329 . S
H1074 C1047 0.931 . S
C1075 O1057 1.265 . S
C1075 O1058 1.242 . S
C1076 O1061 1.261 . S
C1076 O1062 1.252 . S
C1077 C1080 1.394 . S
C1077 C1082 1.370 . S
C1077 C1083 1.500 . S
C1078 C1081 1.383 . S
C1078 C1082 1.395 . S
C1079 C1080 1.396 . S
C1079 C1081 1.365 . S
C1079 H1088 0.929 . S
C1080 C1077 1.394 . S
C1080 C1079 1.396 . S
C1080 H1089 0.930 . S
C1081 C1078 1.383 . S
C1081 C1079 1.365 . S
C1081 H1090 0.931 . S
C1082 C1077 1.370 . S
C1082 C1078 1.395 . S
C1082 H1091 0.930 . S
C1083 Gd1019 2.805 . S
C1083 O1059 1.263 . S
C1083 O1060 1.252 . S
C1083 C1077 1.500 . S
H1084 C1067 0.929 . S
H1085 C1068 0.930 . S
H1086 C1069 0.931 . S
H1087 C1070 0.930 . S
H1088 C1079 0.929 . S
H1089 C1080 0.930 . S
H1090 C1081 0.931 . S
H1091 C1082 0.930 . S
C1092 C1094 1.422 . S
C1092 C1096 1.415 . S
C1092 N1098 1.369 . S
C1093 C1094 1.421 . S
C1093 C1095 1.417 1_455 S
C1093 C1105 1.422 . S
C1094 C1092 1.422 . S
C1094 C1093 1.421 . S
C1094 N1104 1.359 . S
C1095 C1093 1.417 1_655 S
C1095 C1097 1.329 . S
C1095 H1114 0.930 . S
C1096 C1092 1.415 . S
C1096 C1097 1.437 1_455 S
C1096 C1100 1.413 . S
C1097 C1095 1.329 . S
C1097 C1096 1.437 1_655 S
C1097 H1119 0.929 . S
N1098 C1092 1.369 . S
N1098 C1099 1.338 . S
N1098 Gd1103 2.622 . S
C1099 N1098 1.338 . S
C1099 C1101 1.378 . S
C1099 H1111 0.929 . S
C1100 C1096 1.413 . S
C1100 C1101 1.348 . S
C1100 H1116 0.931 1_545 S
C1101 C1099 1.378 . S
C1101 C1100 1.348 . S
C1101 H1117 0.930 1_545 S
Gd1102 N1122 2.622 . S
Gd1102 N1129 2.570 1_556 S
Gd1102 O1136 2.353 . S
Gd1102 O1137 2.468 1_556 S
Gd1102 O1138 2.427 1_556 S
Gd1102 O1140 2.388 . S
Gd1102 O1141 2.386 . S
Gd1102 O1145 2.307 . S
Gd1102 C1155 2.805 1_556 S
Gd1103 N1098 2.622 . S
Gd1103 N1104 2.570 . S
Gd1103 O1135 2.386 . S
Gd1103 O1139 2.307 . S
Gd1103 O1142 2.353 . S
Gd1103 O1143 2.468 . S
Gd1103 O1144 2.427 . S
Gd1103 O1146 2.388 . S
Gd1103 C1167 2.805 . S
N1104 C1094 1.359 . S
N1104 Gd1103 2.570 . S
N1104 C1106 1.343 . S
C1105 C1093 1.422 . S
C1105 C1107 1.321 . S
C1105 H1113 0.931 1_455 S
C1106 N1104 1.343 . S
C1106 C1107 1.390 . S
C1106 H1108 0.931 . S
C1107 C1105 1.321 . S
C1107 C1106 1.390 . S
C1107 H1109 0.930 . S
H1108 C1106 0.931 . S
H1109 C1107 0.930 . S
H1110 C1133 0.931 . S
H1111 C1099 0.929 . S
H1112 C1134 0.930 . S
H1113 C1105 0.931 1_655 S
H1114 C1095 0.930 . S
H1115 C1124 0.929 . S
H1116 C1100 0.931 1_565 S
H1117 C1101 0.930 1_565 S
H1118 C1156 0.930 . S
H1119 C1097 0.929 . S
H1120 C1125 0.931 . S
H1121 C1126 0.930 . S
N1122 Gd1102 2.622 . S
N1122 C1123 1.369 1_556 S
N1122 C1124 1.338 . S
C1123 N1122 1.369 1_554 S
C1123 C1127 1.415 . S
C1123 C1130 1.422 . S
C1124 H1115 0.929 . S
C1124 N1122 1.338 . S
C1124 C1126 1.378 . S
C1125 H1120 0.931 . S
C1125 C1126 1.348 . S
C1125 C1127 1.413 1_556 S
C1126 H1121 0.930 . S
C1126 C1124 1.378 . S
C1126 C1125 1.348 . S
C1127 C1123 1.415 . S
C1127 C1125 1.413 1_554 S
C1127 C1157 1.437 . S
H1128 C1157 0.929 . S
N1129 Gd1102 2.570 1_554 S
N1129 C1130 1.359 . S
N1129 C1133 1.343 . S
C1130 C1123 1.422 . S
C1130 N1129 1.359 . S
C1130 C1132 1.421 . S
C1131 C1132 1.422 . S
C1131 C1134 1.321 . S
C1131 H1158 0.931 . S
C1132 C1130 1.421 . S
C1132 C1131 1.422 . S
C1132 C1156 1.417 . S
C1133 H1110 0.931 . S
C1133 N1129 1.343 . S
C1133 C1134 1.390 . S
C1134 H1112 0.930 . S
C1134 C1131 1.321 . S
C1134 C1133 1.390 . S
O1135 Gd1103 2.386 . S
O1135 C1147 1.265 . S
O1136 Gd1102 2.353 . S
O1136 C1147 1.242 . S
O1137 Gd1102 2.468 1_554 S
O1137 C1155 1.263 . S
O1138 Gd1102 2.427 1_554 S
O1138 C1155 1.252 . S
O1139 Gd1103 2.307 . S
O1139 C1148 1.261 . S
O1140 Gd1102 2.388 . S
O1140 C1148 1.252 . S
O1141 Gd1102 2.386 . S
O1141 C1159 1.265 . S
O1142 Gd1103 2.353 . S
O1142 C1159 1.242 . S
O1143 Gd1103 2.468 . S
O1143 C1167 1.263 . S
O1144 Gd1103 2.427 . S
O1144 C1167 1.252 . S
O1145 Gd1102 2.307 . S
O1145 C1160 1.261 . S
O1146 Gd1103 2.388 . S
O1146 C1160 1.252 . S
C1147 O1135 1.265 . S
C1147 O1136 1.242 . S
C1148 O1139 1.261 . S
C1148 O1140 1.252 . S
C1149 C1152 1.394 . S
C1149 C1154 1.370 . S
C1149 C1155 1.500 . S
C1150 C1153 1.383 . S
C1150 C1154 1.395 . S
C1151 C1152 1.396 . S
C1151 C1153 1.365 . S
C1151 H1168 0.929 . S
C1152 C1149 1.394 . S
C1152 C1151 1.396 . S
C1152 H1169 0.930 . S
C1153 C1150 1.383 . S
C1153 C1151 1.365 . S
C1153 H1170 0.931 . S
C1154 C1149 1.370 . S
C1154 C1150 1.395 . S
C1154 H1171 0.930 . S
C1155 Gd1102 2.805 1_554 S
C1155 O1137 1.263 . S
C1155 O1138 1.252 . S
C1155 C1149 1.500 . S
C1156 H1118 0.930 . S
C1156 C1132 1.417 . S
C1156 C1157 1.329 . S
C1157 C1127 1.437 . S
C1157 H1128 0.929 . S
C1157 C1156 1.329 . S
H1158 C1131 0.931 . S
C1159 O1141 1.265 . S
C1159 O1142 1.242 . S
C1160 O1145 1.261 . S
C1160 O1146 1.252 . S
C1161 C1164 1.394 . S
C1161 C1166 1.370 . S
C1161 C1167 1.500 . S
C1162 C1165 1.383 . S
C1162 C1166 1.395 . S
C1163 C1164 1.396 . S
C1163 C1165 1.365 . S
C1163 H1172 0.929 . S
C1164 C1161 1.394 . S
C1164 C1163 1.396 . S
C1164 H1173 0.930 . S
C1165 C1162 1.383 . S
C1165 C1163 1.365 . S
C1165 H1174 0.931 . S
C1166 C1161 1.370 . S
C1166 C1162 1.395 . S
C1166 H1175 0.930 . S
C1167 Gd1103 2.805 . S
C1167 O1143 1.263 . S
C1167 O1144 1.252 . S
C1167 C1161 1.500 . S
H1168 C1151 0.929 . S
H1169 C1152 0.930 . S
H1170 C1153 0.931 . S
H1171 C1154 0.930 . S
H1172 C1163 0.929 . S
H1173 C1164 0.930 . S
H1174 C1165 0.931 . S
H1175 C1166 0.930 . S
C1176 C1178 1.422 . S
C1176 C1180 1.415 . S
C1176 N1182 1.369 . S
C1177 C1178 1.421 . S
C1177 C1179 1.417 . S
C1177 C1189 1.422 . S
C1178 C1176 1.422 . S
C1178 C1177 1.421 . S
C1178 N1188 1.359 . S
C1179 C1177 1.417 . S
C1179 C1181 1.329 . S
C1179 H1198 0.930 . S
C1180 C1176 1.415 . S
C1180 C1181 1.437 . S
C1180 C1184 1.413 . S
C1181 C1179 1.329 . S
C1181 C1180 1.437 . S
C1181 H1203 0.929 . S
N1182 C1176 1.369 . S
N1182 C1183 1.338 . S
N1182 Gd1187 2.622 . S
C1183 N1182 1.338 . S
C1183 C1185 1.378 . S
C1183 H1195 0.929 . S
C1184 C1180 1.413 . S
C1184 C1185 1.348 . S
C1184 H1200 0.931 . S
C1185 C1183 1.378 . S
C1185 C1184 1.348 . S
C1185 H1201 0.930 . S
Gd1186 N1206 2.622 . S
Gd1186 N1213 2.570 . S
Gd1186 O1220 2.353 . S
Gd1186 O1221 2.468 . S
Gd1186 O1222 2.427 . S
Gd1186 O1224 2.388 . S
Gd1186 O1225 2.386 . S
Gd1186 O1229 2.307 . S
Gd1186 C1239 2.805 . S
Gd1187 N1182 2.622 . S
Gd1187 N1188 2.570 . S
Gd1187 O1219 2.386 . S
Gd1187 O1223 2.307 . S
Gd1187 O1226 2.353 . S
Gd1187 O1227 2.468 . S
Gd1187 O1228 2.427 . S
Gd1187 O1230 2.388 . S
Gd1187 C1251 2.805 . S
N1188 C1178 1.359 . S
N1188 Gd1187 2.570 . S
N1188 C1190 1.343 . S
C1189 C1177 1.422 . S
C1189 C1191 1.321 . S
C1189 H1197 0.931 . S
C1190 N1188 1.343 . S
C1190 C1191 1.390 . S
C1190 H1192 0.931 . S
C1191 C1189 1.321 . S
C1191 C1190 1.390 . S
C1191 H1193 0.930 . S
H1192 C1190 0.931 . S
H1193 C1191 0.930 . S
H1194 C1217 0.931 . S
H1195 C1183 0.929 . S
H1196 C1218 0.930 . S
H1197 C1189 0.931 . S
H1198 C1179 0.930 . S
H1199 C1208 0.929 . S
H1200 C1184 0.931 . S
H1201 C1185 0.930 . S
H1202 C1240 0.930 . S
H1203 C1181 0.929 . S
H1204 C1209 0.931 . S
H1205 C1210 0.930 . S
N1206 Gd1186 2.622 . S
N1206 C1207 1.369 . S
N1206 C1208 1.338 . S
C1207 N1206 1.369 . S
C1207 C1211 1.415 . S
C1207 C1214 1.422 . S
C1208 H1199 0.929 . S
C1208 N1206 1.338 . S
C1208 C1210 1.378 . S
C1209 H1204 0.931 . S
C1209 C1210 1.348 . S
C1209 C1211 1.413 . S
C1210 H1205 0.930 . S
C1210 C1208 1.378 . S
C1210 C1209 1.348 . S
C1211 C1207 1.415 . S
C1211 C1209 1.413 . S
C1211 C1241 1.437 . S
H1212 C1241 0.929 . S
N1213 Gd1186 2.570 . S
N1213 C1214 1.359 . S
N1213 C1217 1.343 . S
C1214 C1207 1.422 . S
C1214 N1213 1.359 . S
C1214 C1216 1.421 . S
C1215 C1216 1.422 . S
C1215 C1218 1.321 . S
C1215 H1242 0.931 . S
C1216 C1214 1.421 . S
C1216 C1215 1.422 . S
C1216 C1240 1.417 . S
C1217 H1194 0.931 . S
C1217 N1213 1.343 . S
C1217 C1218 1.390 . S
C1218 H1196 0.930 . S
C1218 C1215 1.321 . S
C1218 C1217 1.390 . S
O1219 Gd1187 2.386 . S
O1219 C1231 1.265 . S
O1220 Gd1186 2.353 . S
O1220 C1231 1.242 . S
O1221 Gd1186 2.468 . S
O1221 C1239 1.263 . S
O1222 Gd1186 2.427 . S
O1222 C1239 1.252 . S
O1223 Gd1187 2.307 . S
O1223 C1232 1.261 . S
O1224 Gd1186 2.388 . S
O1224 C1232 1.252 . S
O1225 Gd1186 2.386 . S
O1225 C1243 1.265 . S
O1226 Gd1187 2.353 . S
O1226 C1243 1.242 . S
O1227 Gd1187 2.468 . S
O1227 C1251 1.263 . S
O1228 Gd1187 2.427 . S
O1228 C1251 1.252 . S
O1229 Gd1186 2.307 . S
O1229 C1244 1.261 . S
O1230 Gd1187 2.388 . S
O1230 C1244 1.252 . S
C1231 O1219 1.265 . S
C1231 O1220 1.242 . S
C1232 O1223 1.261 . S
C1232 O1224 1.252 . S
C1233 C1236 1.394 . S
C1233 C1238 1.370 . S
C1233 C1239 1.500 . S
C1234 C1237 1.383 . S
C1234 C1238 1.395 1_554 S
C1235 C1236 1.396 . S
C1235 C1237 1.365 1_556 S
C1235 H1252 0.929 1_556 S
C1236 C1233 1.394 . S
C1236 C1235 1.396 . S
C1236 H1253 0.930 . S
C1237 C1234 1.383 . S
C1237 C1235 1.365 1_554 S
C1237 H1254 0.931 . S
C1238 C1233 1.370 . S
C1238 C1234 1.395 1_556 S
C1238 H1255 0.930 . S
C1239 Gd1186 2.805 . S
C1239 O1221 1.263 . S
C1239 O1222 1.252 . S
C1239 C1233 1.500 . S
C1240 H1202 0.930 . S
C1240 C1216 1.417 . S
C1240 C1241 1.329 . S
C1241 C1211 1.437 . S
C1241 H1212 0.929 . S
C1241 C1240 1.329 . S
H1242 C1215 0.931 . S
C1243 O1225 1.265 . S
C1243 O1226 1.242 . S
C1244 O1229 1.261 . S
C1244 O1230 1.252 . S
C1245 C1248 1.394 . S
C1245 C1250 1.370 . S
C1245 C1251 1.500 . S
C1246 C1249 1.383 . S
C1246 C1250 1.395 . S
C1247 C1248 1.396 . S
C1247 C1249 1.365 . S
C1247 H1256 0.929 . S
C1248 C1245 1.394 . S
C1248 C1247 1.396 . S
C1248 H1257 0.930 . S
C1249 C1246 1.383 . S
C1249 C1247 1.365 . S
C1249 H1258 0.931 . S
C1250 C1245 1.370 . S
C1250 C1246 1.395 . S
C1250 H1259 0.930 . S
C1251 Gd1187 2.805 . S
C1251 O1227 1.263 . S
C1251 O1228 1.252 . S
C1251 C1245 1.500 . S
H1252 C1235 0.929 1_554 S
H1253 C1236 0.930 . S
H1254 C1237 0.931 . S
H1255 C1238 0.930 . S
H1256 C1247 0.929 . S
H1257 C1248 0.930 . S
H1258 C1249 0.931 . S
H1259 C1250 0.930 . S
C1260 C1262 1.422 . S
C1260 C1264 1.415 . S
C1260 N1266 1.369 . S
C1261 C1262 1.421 . S
C1261 C1263 1.417 . S
C1261 C1273 1.422 . S
C1262 C1260 1.422 . S
C1262 C1261 1.421 . S
C1262 N1272 1.359 . S
C1263 C1261 1.417 . S
C1263 C1265 1.329 . S
C1263 H1282 0.930 . S
C1264 C1260 1.415 . S
C1264 C1265 1.437 . S
C1264 C1268 1.413 . S
C1265 C1263 1.329 . S
C1265 C1264 1.437 . S
C1265 H1287 0.929 . S
N1266 C1260 1.369 . S
N1266 C1267 1.338 . S
N1266 Gd1271 2.622 . S
C1267 N1266 1.338 . S
C1267 C1269 1.396 . S
C1267 H1279 0.929 . S
C1268 C1264 1.413 . S
C1268 C1269 1.354 . S
C1268 H1284 0.931 1_565 S
C1269 C1267 1.396 . S
C1269 C1268 1.354 . S
C1269 H1285 0.906 1_565 S
Gd1270 N1290 2.622 . S
Gd1270 N1297 2.570 . S
Gd1270 O1304 2.353 . S
Gd1270 O1305 2.468 . S
Gd1270 O1306 2.427 . S
Gd1270 O1308 2.388 . S
Gd1270 O1309 2.386 . S
Gd1270 O1313 2.307 . S
Gd1270 C1323 2.805 . S
Gd1271 N1266 2.622 . S
Gd1271 N1272 2.570 . S
Gd1271 O1303 2.386 . S
Gd1271 O1307 2.307 . S
Gd1271 O1310 2.353 . S
Gd1271 O1311 2.468 . S
Gd1271 O1312 2.427 . S
Gd1271 O1314 2.388 . S
Gd1271 C1335 2.805 . S
N1272 C1262 1.359 . S
N1272 Gd1271 2.570 . S
N1272 C1274 1.343 . S
C1273 C1261 1.422 . S
C1273 C1275 1.321 . S
C1273 H1281 0.931 . S
C1274 N1272 1.343 . S
C1274 C1275 1.390 . S
C1274 H1276 0.931 . S
C1275 C1273 1.321 . S
C1275 C1274 1.390 . S
C1275 H1277 0.930 . S
H1276 C1274 0.931 . S
H1277 C1275 0.930 . S
H1278 C1301 0.931 . S
H1279 C1267 0.929 . S
H1280 C1302 0.930 . S
H1281 C1273 0.931 . S
H1282 C1263 0.930 . S
H1283 C1292 0.929 . S
H1284 C1268 0.931 1_545 S
H1285 C1269 0.906 1_545 S
H1286 C1324 0.930 . S
H1287 C1265 0.929 . S
H1288 C1293 0.931 . S
H1289 C1294 0.930 . S
N1290 Gd1270 2.622 . S
N1290 C1291 1.369 . S
N1290 C1292 1.338 . S
C1291 N1290 1.369 . S
C1291 C1295 1.415 . S
C1291 C1298 1.422 . S
C1292 H1283 0.929 . S
C1292 N1290 1.338 . S
C1292 C1294 1.378 . S
C1293 H1288 0.931 . S
C1293 C1294 1.348 . S
C1293 C1295 1.413 . S
C1294 H1289 0.930 . S
C1294 C1292 1.378 . S
C1294 C1293 1.348 . S
C1295 C1291 1.415 . S
C1295 C1293 1.413 . S
C1295 C1325 1.437 . S
H1296 C1325 0.929 . S
N1297 Gd1270 2.570 . S
N1297 C1298 1.359 . S
N1297 C1301 1.343 . S
C1298 C1291 1.422 . S
C1298 N1297 1.359 . S
C1298 C1300 1.421 . S
C1299 C1300 1.422 . S
C1299 C1302 1.321 . S
C1299 H1326 0.931 . S
C1300 C1298 1.421 . S
C1300 C1299 1.422 . S
C1300 C1324 1.417 . S
C1301 H1278 0.931 . S
C1301 N1297 1.343 . S
C1301 C1302 1.390 . S
C1302 H1280 0.930 . S
C1302 C1299 1.321 . S
C1302 C1301 1.390 . S
O1303 Gd1271 2.386 . S
O1303 C1315 1.265 . S
O1304 Gd1270 2.353 . S
O1304 C1315 1.242 . S
O1305 Gd1270 2.468 . S
O1305 C1323 1.263 . S
O1306 Gd1270 2.427 . S
O1306 C1323 1.252 . S
O1307 Gd1271 2.307 . S
O1307 C1316 1.261 . S
O1308 Gd1270 2.388 . S
O1308 C1316 1.252 . S
O1309 Gd1270 2.386 . S
O1309 C1327 1.265 . S
O1310 Gd1271 2.353 . S
O1310 C1327 1.242 . S
O1311 Gd1271 2.468 . S
O1311 C1335 1.263 . S
O1312 Gd1271 2.427 . S
O1312 C1335 1.252 . S
O1313 Gd1270 2.307 . S
O1313 C1328 1.261 . S
O1314 Gd1271 2.388 . S
O1314 C1328 1.252 . S
C1315 O1303 1.265 . S
C1315 O1304 1.242 . S
C1316 O1307 1.261 . S
C1316 O1308 1.252 . S
C1317 C1320 1.394 . S
C1317 C1322 1.370 . S
C1317 C1323 1.500 . S
C1318 C1321 1.383 . S
C1318 C1322 1.395 . S
C1319 C1320 1.396 . S
C1319 C1321 1.365 . S
C1319 H1336 0.929 . S
C1320 C1317 1.394 . S
C1320 C1319 1.396 . S
C1320 H1337 0.930 . S
C1321 C1318 1.383 . S
C1321 C1319 1.365 . S
C1321 H1338 0.931 . S
C1322 C1317 1.370 . S
C1322 C1318 1.395 . S
C1322 H1339 0.930 . S
C1323 Gd1270 2.805 . S
C1323 O1305 1.263 . S
C1323 O1306 1.252 . S
C1323 C1317 1.500 . S
C1324 H1286 0.930 . S
C1324 C1300 1.417 . S
C1324 C1325 1.329 . S
C1325 C1295 1.437 . S
C1325 H1296 0.929 . S
C1325 C1324 1.329 . S
H1326 C1299 0.931 . S
C1327 O1309 1.265 . S
C1327 O1310 1.242 . S
C1328 O1313 1.261 . S
C1328 O1314 1.252 . S
C1329 C1332 1.394 . S
C1329 C1334 1.370 . S
C1329 C1335 1.500 . S
C1330 C1333 1.383 . S
C1330 C1334 1.395 1_556 S
C1331 C1332 1.396 . S
C1331 C1333 1.365 1_554 S
C1331 H1340 0.929 1_554 S
C1332 C1329 1.394 . S
C1332 C1331 1.396 . S
C1332 H1341 0.930 . S
C1333 C1330 1.383 . S
C1333 C1331 1.365 1_556 S
C1333 H1342 0.931 . S
C1334 C1329 1.370 . S
C1334 C1330 1.395 1_554 S
C1334 H1343 0.930 . S
C1335 Gd1271 2.805 . S
C1335 O1311 1.263 . S
C1335 O1312 1.252 . S
C1335 C1329 1.500 . S
H1336 C1319 0.929 . S
H1337 C1320 0.930 . S
H1338 C1321 0.931 . S
H1339 C1322 0.930 . S
H1340 C1331 0.929 1_556 S
H1341 C1332 0.930 . S
H1342 C1333 0.931 . S
H1343 C1334 0.930 . S
C1344 C1345 1.363 . S
C1344 C1350 1.379 . S
C1344 N1352 1.356 . S
C1345 C1344 1.363 . S
C1345 C1351 1.363 . S
C1346 C1347 1.363 . S
C1346 C1351 1.379 . S
C1346 N1353 1.356 . S
C1347 C1346 1.363 . S
C1347 C1350 1.363 . S
N1348 C1350 1.356 . S
N1348 H1360 0.984 . S
N1348 H1361 0.985 . S
N1349 C1351 1.356 . S
N1349 H1354 0.984 . S
N1349 H1355 0.985 . S
C1350 C1344 1.379 . S
C1350 C1347 1.363 . S
C1350 N1348 1.356 . S
C1351 C1345 1.363 . S
C1351 C1346 1.379 . S
C1351 N1349 1.356 . S
N1352 C1344 1.356 . S
N1352 H1358 0.984 . S
N1352 H1359 0.984 . S
N1353 C1346 1.356 . S
N1353 H1356 0.984 . S
N1353 H1357 0.985 . S
H1354 N1349 0.984 . S
H1355 N1349 0.985 . S
H1356 N1353 0.984 . S
H1357 N1353 0.985 . S
H1358 N1352 0.984 . S
H1359 N1352 0.984 . S
H1360 N1348 0.984 . S
H1361 N1348 0.985 . S
C1362 C1363 1.363 . S
C1362 C1368 1.379 . S
C1362 N1370 1.356 . S
C1363 C1362 1.363 . S
C1363 C1369 1.363 . S
C1364 C1365 1.363 . S
C1364 C1369 1.379 . S
C1364 N1371 1.356 . S
C1365 C1364 1.363 . S
C1365 C1368 1.363 . S
N1366 C1368 1.356 . S
N1366 H1378 0.984 . S
N1366 H1379 0.985 . S
N1367 C1369 1.356 . S
N1367 H1372 0.984 . S
N1367 H1373 0.985 . S
C1368 C1362 1.379 . S
C1368 C1365 1.363 . S
C1368 N1366 1.356 . S
C1369 C1363 1.363 . S
C1369 C1364 1.379 . S
C1369 N1367 1.356 . S
N1370 C1362 1.356 . S
N1370 H1376 0.984 1_556 S
N1370 H1377 0.984 1_556 S
N1371 C1364 1.356 . S
N1371 H1374 0.984 . S
N1371 H1375 0.985 . S
H1372 N1367 0.984 . S
H1373 N1367 0.985 . S
H1374 N1371 0.984 . S
H1375 N1371 0.985 . S
H1376 N1370 0.984 1_554 S
H1377 N1370 0.984 1_554 S
H1378 N1366 0.984 . S
H1379 N1366 0.985 . S
C1380 C1381 1.363 . S
C1380 C1386 1.379 . S
C1380 N1388 1.356 . S
C1381 C1380 1.363 . S
C1381 C1387 1.363 . S
C1382 C1383 1.363 . S
C1382 C1387 1.379 . S
C1382 N1389 1.356 . S
C1383 C1382 1.363 . S
C1383 C1386 1.363 . S
N1384 C1386 1.356 . S
N1384 H1396 0.984 . S
N1384 H1397 0.985 . S
N1385 C1387 1.356 . S
N1385 H1390 0.984 . S
N1385 H1391 0.985 . S
C1386 C1380 1.379 . S
C1386 C1383 1.363 . S
C1386 N1384 1.356 . S
C1387 C1381 1.363 . S
C1387 C1382 1.379 . S
C1387 N1385 1.356 . S
N1388 C1380 1.356 . S
N1388 H1394 0.984 . S
N1388 H1395 0.984 . S
N1389 C1382 1.356 . S
N1389 H1392 0.984 1_554 S
N1389 H1393 0.985 . S
H1390 N1385 0.984 . S
H1391 N1385 0.985 . S
H1392 N1389 0.984 1_556 S
H1393 N1389 0.985 . S
H1394 N1388 0.984 . S
H1395 N1388 0.984 . S
H1396 N1384 0.984 . S
H1397 N1384 0.985 . S
C1398 C1399 1.363 . S
C1398 C1404 1.379 . S
C1398 N1406 1.356 . S
C1399 C1398 1.363 . S
C1399 C1405 1.363 . S
C1400 C1401 1.363 . S
C1400 C1405 1.379 . S
C1400 N1407 1.356 . S
C1401 C1400 1.363 . S
C1401 C1404 1.363 . S
N1402 C1404 1.356 . S
N1402 H1414 0.984 . S
N1402 H1415 0.985 . S
N1403 C1405 1.356 . S
N1403 H1408 0.984 . S
N1403 H1409 0.985 . S
C1404 C1398 1.379 . S
C1404 C1401 1.363 . S
C1404 N1402 1.356 . S
C1405 C1399 1.363 . S
C1405 C1400 1.379 . S
C1405 N1403 1.356 . S
N1406 C1398 1.356 . S
N1406 H1412 0.984 . S
N1406 H1413 0.984 . S
N1407 C1400 1.356 . S
N1407 H1410 0.984 . S
N1407 H1411 0.985 . S
H1408 N1403 0.984 . S
H1409 N1403 0.985 . S
H1410 N1407 0.984 . S
H1411 N1407 0.985 . S
H1412 N1406 0.984 . S
H1413 N1406 0.984 . S
H1414 N1402 0.984 . S
H1415 N1402 0.985 . S
C1416 C1417 1.363 . S
C1416 C1422 1.379 . S
C1416 N1424 1.356 . S
C1417 C1416 1.363 . S
C1417 C1423 1.363 . S
C1418 C1419 1.363 . S
C1418 C1423 1.379 . S
C1418 N1425 1.356 . S
C1419 C1418 1.363 . S
C1419 C1422 1.363 . S
N1420 C1422 1.356 . S
N1420 H1432 0.984 . S
N1420 H1433 0.985 . S
N1421 C1423 1.356 . S
N1421 H1426 0.984 . S
N1421 H1427 0.985 . S
C1422 C1416 1.379 . S
C1422 C1419 1.363 . S
C1422 N1420 1.356 . S
C1423 C1417 1.363 . S
C1423 C1418 1.379 . S
C1423 N1421 1.356 . S
N1424 C1416 1.356 . S
N1424 H1430 0.984 . S
N1424 H1431 0.984 . S
N1425 C1418 1.356 . S
N1425 H1428 0.984 . S
N1425 H1429 0.985 . S
H1426 N1421 0.984 . S
H1427 N1421 0.985 . S
H1428 N1425 0.984 . S
H1429 N1425 0.985 . S
H1430 N1424 0.984 . S
H1431 N1424 0.984 . S
H1432 N1420 0.984 . S
H1433 N1420 0.985 . S
C1434 C1435 1.363 . S
C1434 C1440 1.379 . S
C1434 N1442 1.356 . S
C1435 C1434 1.363 . S
C1435 C1441 1.363 . S
C1436 C1437 1.363 . S
C1436 C1441 1.379 . S
C1436 N1443 1.356 . S
C1437 C1436 1.363 . S
C1437 C1440 1.363 . S
N1438 C1440 1.356 . S
N1438 H1450 0.984 . S
N1438 H1451 0.985 . S
N1439 C1441 1.356 . S
N1439 H1444 0.984 . S
N1439 H1445 0.985 . S
C1440 C1434 1.379 . S
C1440 C1437 1.363 . S
C1440 N1438 1.356 . S
C1441 C1435 1.363 . S
C1441 C1436 1.379 . S
C1441 N1439 1.356 . S
N1442 C1434 1.356 . S
N1442 H1448 0.984 . S
N1442 H1449 0.984 . S
N1443 C1436 1.356 . S
N1443 H1446 0.984 . S
N1443 H1447 0.985 . S
H1444 N1439 0.984 . S
H1445 N1439 0.985 . S
H1446 N1443 0.984 . S
H1447 N1443 0.985 . S
H1448 N1442 0.984 . S
H1449 N1442 0.984 . S
H1450 N1438 0.984 . S
H1451 N1438 0.985 . S
C1452 C1453 1.363 . S
C1452 C1458 1.379 . S
C1452 N1460 1.356 . S
C1453 C1452 1.363 . S
C1453 C1459 1.363 . S
C1454 C1455 1.363 . S
C1454 C1459 1.379 . S
C1454 N1461 1.356 . S
C1455 C1454 1.363 . S
C1455 C1458 1.363 . S
N1456 C1458 1.356 . S
N1456 H1468 0.984 . S
N1456 H1469 0.985 . S
N1457 C1459 1.356 . S
N1457 H1462 0.984 . S
N1457 H1463 0.985 . S
C1458 C1452 1.379 . S
C1458 C1455 1.363 . S
C1458 N1456 1.356 . S
C1459 C1453 1.363 . S
C1459 C1454 1.379 . S
C1459 N1457 1.356 . S
N1460 C1452 1.356 . S
N1460 H1466 0.984 . S
N1460 H1467 0.984 . S
N1461 C1454 1.356 . S
N1461 H1464 0.984 . S
N1461 H1465 0.985 . S
H1462 N1457 0.984 . S
H1463 N1457 0.985 . S
H1464 N1461 0.984 . S
H1465 N1461 0.985 . S
H1466 N1460 0.984 . S
H1467 N1460 0.984 . S
H1468 N1456 0.984 . S
H1469 N1456 0.985 . S
C1470 C1471 1.363 . S
C1470 C1476 1.379 . S
C1470 N1478 1.356 . S
C1471 C1470 1.363 . S
C1471 C1477 1.363 . S
C1472 C1473 1.363 . S
C1472 C1477 1.379 . S
C1472 N1479 1.356 . S
C1473 C1472 1.363 . S
C1473 C1476 1.363 . S
N1474 C1476 1.356 . S
N1474 H1486 0.984 . S
N1474 H1487 0.985 . S
N1475 C1477 1.356 . S
N1475 H1480 0.984 1_554 S
N1475 H1481 0.985 1_554 S
C1476 C1470 1.379 . S
C1476 C1473 1.363 . S
C1476 N1474 1.356 . S
C1477 C1471 1.363 . S
C1477 C1472 1.379 . S
C1477 N1475 1.356 . S
N1478 C1470 1.356 . S
N1478 H1484 0.984 . S
N1478 H1485 0.984 . S
N1479 C1472 1.356 . S
N1479 H1482 0.984 . S
N1479 H1483 0.985 . S
H1480 N1475 0.984 1_556 S
H1481 N1475 0.985 1_556 S
H1482 N1479 0.984 . S
H1483 N1479 0.985 . S
H1484 N1478 0.984 . S
H1485 N1478 0.984 . S
H1486 N1474 0.984 . S
H1487 N1474 0.985 . S
C1488 C1489 1.363 . S
C1488 C1494 1.379 . S
C1488 N1496 1.356 . S
C1489 C1488 1.363 . S
C1489 C1495 1.363 . S
C1490 C1491 1.363 . S
C1490 C1495 1.379 . S
C1490 N1497 1.356 . S
C1491 C1490 1.363 . S
C1491 C1494 1.363 . S
N1492 C1494 1.356 . S
N1492 H1504 0.984 . S
N1492 H1505 0.985 . S
N1493 C1495 1.356 . S
N1493 H1498 0.984 . S
N1493 H1499 0.985 . S
C1494 C1488 1.379 . S
C1494 C1491 1.363 . S
C1494 N1492 1.356 . S
C1495 C1489 1.363 . S
C1495 C1490 1.379 . S
C1495 N1493 1.356 . S
N1496 C1488 1.356 . S
N1496 H1502 0.984 . S
N1496 H1503 0.984 . S
N1497 C1490 1.356 . S
N1497 H1500 0.984 . S
N1497 H1501 0.985 . S
H1498 N1493 0.984 . S
H1499 N1493 0.985 . S
H1500 N1497 0.984 . S
H1501 N1497 0.985 . S
H1502 N1496 0.984 . S
H1503 N1496 0.984 . S
H1504 N1492 0.984 . S
H1505 N1492 0.985 . S
C1506 C1507 1.363 . S
C1506 C1512 1.379 . S
C1506 N1514 1.356 . S
C1507 C1506 1.363 . S
C1507 C1513 1.363 . S
C1508 C1509 1.363 . S
C1508 C1513 1.379 . S
C1508 N1515 1.356 . S
C1509 C1508 1.363 . S
C1509 C1512 1.363 . S
N1510 C1512 1.356 . S
N1510 H1522 0.984 . S
N1510 H1523 0.985 . S
N1511 C1513 1.356 . S
N1511 H1516 0.984 . S
N1511 H1517 0.985 . S
C1512 C1506 1.379 . S
C1512 C1509 1.363 . S
C1512 N1510 1.356 . S
C1513 C1507 1.363 . S
C1513 C1508 1.379 . S
C1513 N1511 1.356 . S
N1514 C1506 1.356 . S
N1514 H1520 0.984 . S
N1514 H1521 0.984 . S
N1515 C1508 1.356 . S
N1515 H1518 0.984 1_554 S
N1515 H1519 0.985 1_554 S
H1516 N1511 0.984 . S
H1517 N1511 0.985 . S
H1518 N1515 0.984 1_556 S
H1519 N1515 0.985 1_556 S
H1520 N1514 0.984 . S
H1521 N1514 0.984 . S
H1522 N1510 0.984 . S
H1523 N1510 0.985 . S
C1524 C1525 1.363 . S
C1524 C1530 1.379 . S
C1524 N1532 1.356 . S
C1525 C1524 1.363 . S
C1525 C1531 1.363 . S
C1526 C1527 1.363 . S
C1526 C1531 1.379 . S
C1526 N1533 1.356 . S
C1527 C1526 1.363 . S
C1527 C1530 1.363 . S
N1528 C1530 1.356 . S
N1528 H1540 0.984 . S
N1528 H1541 0.985 . S
N1529 C1531 1.356 . S
N1529 H1534 0.984 . S
N1529 H1535 0.985 . S
C1530 C1524 1.379 . S
C1530 C1527 1.363 . S
C1530 N1528 1.356 . S
C1531 C1525 1.363 . S
C1531 C1526 1.379 . S
C1531 N1529 1.356 . S
N1532 C1524 1.356 . S
N1532 H1538 0.984 . S
N1532 H1539 0.984 . S
N1533 C1526 1.356 . S
N1533 H1536 0.984 . S
N1533 H1537 0.985 . S
H1534 N1529 0.984 . S
H1535 N1529 0.985 . S
H1536 N1533 0.984 . S
H1537 N1533 0.985 . S
H1538 N1532 0.984 . S
H1539 N1532 0.984 . S
H1540 N1528 0.984 . S
H1541 N1528 0.985 . S
C1542 C1543 1.363 . S
C1542 C1548 1.379 . S
C1542 N1550 1.356 . S
C1543 C1542 1.363 . S
C1543 C1549 1.363 . S
C1544 C1545 1.363 . S
C1544 C1549 1.379 . S
C1544 N1551 1.356 . S
C1545 C1544 1.363 . S
C1545 C1548 1.363 . S
N1546 C1548 1.356 . S
N1546 H1558 0.984 . S
N1546 H1559 0.985 . S
N1547 C1549 1.356 . S
N1547 H1552 0.984 . S
N1547 H1553 0.985 . S
C1548 C1542 1.379 . S
C1548 C1545 1.363 . S
C1548 N1546 1.356 . S
C1549 C1543 1.363 . S
C1549 C1544 1.379 . S
C1549 N1547 1.356 . S
N1550 C1542 1.356 . S
N1550 H1556 0.984 . S
N1550 H1557 0.984 . S
N1551 C1544 1.356 . S
N1551 H1554 0.984 . S
N1551 H1555 0.985 . S
H1552 N1547 0.984 . S
H1553 N1547 0.985 . S
H1554 N1551 0.984 . S
H1555 N1551 0.985 . S
H1556 N1550 0.984 . S
H1557 N1550 0.984 . S
H1558 N1546 0.984 . S
H1559 N1546 0.985 . S
C1560 C1561 1.363 . S
C1560 C1566 1.379 . S
C1560 N1568 1.356 . S
C1561 C1560 1.363 . S
C1561 C1567 1.363 . S
C1562 C1563 1.363 . S
C1562 C1567 1.379 . S
C1562 N1569 1.356 . S
C1563 C1562 1.363 . S
C1563 C1566 1.363 . S
N1564 C1566 1.356 . S
N1564 H1576 0.984 . S
N1564 H1577 0.985 . S
N1565 C1567 1.356 . S
N1565 H1570 0.984 . S
N1565 H1571 0.985 . S
C1566 C1560 1.379 . S
C1566 C1563 1.363 . S
C1566 N1564 1.356 . S
C1567 C1561 1.363 . S
C1567 C1562 1.379 . S
C1567 N1565 1.356 . S
N1568 C1560 1.356 . S
N1568 H1574 0.984 . S
N1568 H1575 0.984 . S
N1569 C1562 1.356 . S
N1569 H1572 0.984 . S
N1569 H1573 0.985 . S
H1570 N1565 0.984 . S
H1571 N1565 0.985 . S
H1572 N1569 0.984 . S
H1573 N1569 0.985 . S
H1574 N1568 0.984 . S
H1575 N1568 0.984 . S
H1576 N1564 0.984 . S
H1577 N1564 0.985 . S
C1578 C1579 1.363 . S
C1578 C1584 1.379 . S
C1578 N1586 1.356 . S
C1579 C1578 1.363 . S
C1579 C1585 1.363 . S
C1580 C1581 1.363 . S
C1580 C1585 1.379 . S
C1580 N1587 1.356 . S
C1581 C1580 1.363 . S
C1581 C1584 1.363 . S
N1582 C1584 1.356 . S
N1582 H1594 0.984 . S
N1582 H1595 0.985 . S
N1583 C1585 1.356 . S
N1583 H1588 0.984 . S
N1583 H1589 0.985 . S
C1584 C1578 1.379 . S
C1584 C1581 1.363 . S
C1584 N1582 1.356 . S
C1585 C1579 1.363 . S
C1585 C1580 1.379 . S
C1585 N1583 1.356 . S
N1586 C1578 1.356 . S
N1586 H1592 0.984 . S
N1586 H1593 0.984 . S
N1587 C1580 1.356 . S
N1587 H1590 0.984 . S
N1587 H1591 0.985 . S
H1588 N1583 0.984 . S
H1589 N1583 0.985 . S
H1590 N1587 0.984 . S
H1591 N1587 0.985 . S
H1592 N1586 0.984 . S
H1593 N1586 0.984 . S
H1594 N1582 0.984 . S
H1595 N1582 0.985 . S
C1596 C1597 1.363 . S
C1596 C1602 1.379 . S
C1596 N1604 1.356 . S
C1597 C1596 1.363 . S
C1597 C1603 1.363 . S
C1598 C1599 1.363 . S
C1598 C1603 1.379 . S
C1598 N1605 1.356 . S
C1599 C1598 1.363 . S
C1599 C1602 1.363 . S
N1600 C1602 1.356 . S
N1600 H1612 0.984 . S
N1600 H1613 0.985 1_554 S
N1601 C1603 1.356 . S
N1601 H1606 0.984 . S
N1601 H1607 0.985 . S
C1602 C1596 1.379 . S
C1602 C1599 1.363 . S
C1602 N1600 1.356 . S
C1603 C1597 1.363 . S
C1603 C1598 1.379 . S
C1603 N1601 1.356 . S
N1604 C1596 1.356 . S
N1604 H1610 0.984 . S
N1604 H1611 0.984 . S
N1605 C1598 1.356 . S
N1605 H1608 0.984 . S
N1605 H1609 0.985 . S
H1606 N1601 0.984 . S
H1607 N1601 0.985 . S
H1608 N1605 0.984 . S
H1609 N1605 0.985 . S
H1610 N1604 0.984 . S
H1611 N1604 0.984 . S
H1612 N1600 0.984 . S
H1613 N1600 0.985 1_556 S
C1614 C1615 1.363 . S
C1614 C1620 1.379 . S
C1614 N1622 1.356 . S
C1615 C1614 1.363 . S
C1615 C1621 1.363 . S
C1616 C1617 1.363 . S
C1616 C1621 1.379 . S
C1616 N1623 1.356 . S
C1617 C1616 1.363 . S
C1617 C1620 1.363 . S
N1618 C1620 1.356 . S
N1618 H1630 0.984 . S
N1618 H1631 0.985 . S
N1619 C1621 1.356 . S
N1619 H1624 0.984 . S
N1619 H1625 0.985 . S
C1620 C1614 1.379 . S
C1620 C1617 1.363 . S
C1620 N1618 1.356 . S
C1621 C1615 1.363 . S
C1621 C1616 1.379 . S
C1621 N1619 1.356 . S
N1622 C1614 1.356 . S
N1622 H1628 0.984 . S
N1622 H1629 0.984 . S
N1623 C1616 1.356 . S
N1623 H1626 0.984 . S
N1623 H1627 0.985 . S
H1624 N1619 0.984 . S
H1625 N1619 0.985 . S
H1626 N1623 0.984 . S
H1627 N1623 0.985 . S
H1628 N1622 0.984 . S
H1629 N1622 0.984 . S
H1630 N1618 0.984 . S
H1631 N1618 0.985 . S
C1632 C1633 1.363 . S
C1632 C1638 1.379 . S
C1632 N1640 1.356 . S
C1633 C1632 1.363 . S
C1633 C1639 1.363 . S
C1634 C1635 1.363 . S
C1634 C1639 1.379 . S
C1634 N1641 1.356 . S
C1635 C1634 1.363 . S
C1635 C1638 1.363 . S
N1636 C1638 1.356 . S
N1636 H1648 0.984 . S
N1636 H1649 0.985 . S
N1637 C1639 1.356 . S
N1637 H1642 0.984 . S
N1637 H1643 0.985 . S
C1638 C1632 1.379 . S
C1638 C1635 1.363 . S
C1638 N1636 1.356 . S
C1639 C1633 1.363 . S
C1639 C1634 1.379 . S
C1639 N1637 1.356 . S
N1640 C1632 1.356 . S
N1640 H1646 0.984 . S
N1640 H1647 0.984 . S
N1641 C1634 1.356 . S
N1641 H1644 0.984 . S
N1641 H1645 0.985 . S
H1642 N1637 0.984 . S
H1643 N1637 0.985 . S
H1644 N1641 0.984 . S
H1645 N1641 0.985 . S
H1646 N1640 0.984 . S
H1647 N1640 0.984 . S
H1648 N1636 0.984 . S
H1649 N1636 0.985 . S
C1650 C1651 1.363 . S
C1650 C1656 1.379 . S
C1650 N1658 1.356 . S
C1651 C1650 1.363 . S
C1651 C1657 1.363 . S
C1652 C1653 1.363 . S
C1652 C1657 1.379 . S
C1652 N1659 1.356 . S
C1653 C1652 1.363 . S
C1653 C1656 1.363 . S
N1654 C1656 1.356 . S
N1654 H1666 0.984 . S
N1654 H1667 0.985 . S
N1655 C1657 1.356 . S
N1655 H1660 0.984 . S
N1655 H1661 0.985 . S
C1656 C1650 1.379 . S
C1656 C1653 1.363 . S
C1656 N1654 1.356 . S
C1657 C1651 1.363 . S
C1657 C1652 1.379 . S
C1657 N1655 1.356 . S
N1658 C1650 1.356 . S
N1658 H1664 0.984 . S
N1658 H1665 0.984 . S
N1659 C1652 1.356 . S
N1659 H1662 0.984 . S
N1659 H1663 0.985 . S
H1660 N1655 0.984 . S
H1661 N1655 0.985 . S
H1662 N1659 0.984 . S
H1663 N1659 0.985 . S
H1664 N1658 0.984 . S
H1665 N1658 0.984 . S
H1666 N1654 0.984 . S
H1667 N1654 0.985 . S
C1668 C1669 1.363 . S
C1668 C1674 1.379 . S
C1668 N1676 1.356 . S
C1669 C1668 1.363 . S
C1669 C1675 1.363 . S
C1670 C1671 1.363 . S
C1670 C1675 1.379 . S
C1670 N1677 1.356 . S
C1671 C1670 1.363 . S
C1671 C1674 1.363 . S
N1672 C1674 1.356 . S
N1672 H1684 0.984 . S
N1672 H1685 0.985 . S
N1673 C1675 1.356 . S
N1673 H1678 0.984 . S
N1673 H1679 0.985 . S
C1674 C1668 1.379 . S
C1674 C1671 1.363 . S
C1674 N1672 1.356 . S
C1675 C1669 1.363 . S
C1675 C1670 1.379 . S
C1675 N1673 1.356 . S
N1676 C1668 1.356 . S
N1676 H1682 0.984 . S
N1676 H1683 0.984 . S
N1677 C1670 1.356 . S
N1677 H1680 0.984 . S
N1677 H1681 0.985 . S
H1678 N1673 0.984 . S
H1679 N1673 0.985 . S
H1680 N1677 0.984 . S
H1681 N1677 0.985 . S
H1682 N1676 0.984 . S
H1683 N1676 0.984 . S
H1684 N1672 0.984 . S
H1685 N1672 0.985 . S
C1686 C1687 1.363 . S
C1686 C1692 1.379 1_655 S
C1686 N1694 1.356 . S
C1687 C1686 1.363 . S
C1687 C1693 1.363 . S
C1688 C1689 1.363 . S
C1688 C1693 1.379 1_455 S
C1688 N1695 1.356 1_556 S
C1689 C1688 1.363 . S
C1689 C1692 1.363 . S
N1690 C1692 1.356 . S
N1690 H1702 0.984 . S
N1690 H1703 0.985 . S
N1691 C1693 1.356 1_554 S
N1691 H1696 0.984 . S
N1691 H1697 0.985 . S
C1692 C1686 1.379 1_455 S
C1692 C1689 1.363 . S
C1692 N1690 1.356 . S
C1693 C1687 1.363 . S
C1693 C1688 1.379 1_655 S
C1693 N1691 1.356 1_556 S
N1694 C1686 1.356 . S
N1694 H1700 0.984 . S
N1694 H1701 0.984 . S
N1695 C1688 1.356 1_554 S
N1695 H1698 0.984 . S
N1695 H1699 0.985 . S
H1696 N1691 0.984 . S
H1697 N1691 0.985 . S
H1698 N1695 0.984 . S
H1699 N1695 0.985 . S
H1700 N1694 0.984 . S
H1701 N1694 0.984 . S
H1702 N1690 0.984 . S
H1703 N1690 0.985 . S
C1704 C1705 1.363 . S
C1704 C1710 1.379 . S
C1704 N1712 1.356 . S
C1705 C1704 1.363 . S
C1705 C1711 1.363 . S
C1706 C1707 1.363 . S
C1706 C1711 1.379 . S
C1706 N1713 1.356 . S
C1707 C1706 1.363 . S
C1707 C1710 1.363 . S
N1708 C1710 1.356 . S
N1708 H1720 0.984 . S
N1708 H1721 0.985 . S
N1709 C1711 1.356 . S
N1709 H1714 0.984 . S
N1709 H1715 0.985 . S
C1710 C1704 1.379 . S
C1710 C1707 1.363 . S
C1710 N1708 1.356 . S
C1711 C1705 1.363 . S
C1711 C1706 1.379 . S
C1711 N1709 1.356 . S
N1712 C1704 1.356 . S
N1712 H1718 0.984 . S
N1712 H1719 0.984 . S
N1713 C1706 1.356 . S
N1713 H1716 0.984 . S
N1713 H1717 0.985 . S
H1714 N1709 0.984 . S
H1715 N1709 0.985 . S
H1716 N1713 0.984 . S
H1717 N1713 0.985 . S
H1718 N1712 0.984 . S
H1719 N1712 0.984 . S
H1720 N1708 0.984 . S
H1721 N1708 0.985 . S
C1722 C1723 1.363 . S
C1722 C1728 1.379 1_455 S
C1722 N1730 1.356 . S
C1723 C1722 1.363 . S
C1723 C1729 1.363 . S
C1724 C1725 1.363 . S
C1724 C1729 1.379 1_655 S
C1724 N1731 1.356 1_554 S
C1725 C1724 1.363 . S
C1725 C1728 1.363 . S
N1726 C1728 1.356 . S
N1726 H1738 0.984 . S
N1726 H1739 0.985 . S
N1727 C1729 1.356 1_556 S
N1727 H1732 0.984 1_556 S
N1727 H1733 0.985 . S
C1728 C1722 1.379 1_655 S
C1728 C1725 1.363 . S
C1728 N1726 1.356 . S
C1729 C1723 1.363 . S
C1729 C1724 1.379 1_455 S
C1729 N1727 1.356 1_554 S
N1730 C1722 1.356 . S
N1730 H1736 0.984 . S
N1730 H1737 0.984 . S
N1731 C1724 1.356 1_556 S
N1731 H1734 0.984 1_556 S
N1731 H1735 0.985 . S
H1732 N1727 0.984 1_554 S
H1733 N1727 0.985 . S
H1734 N1731 0.984 1_554 S
H1735 N1731 0.985 . S
H1736 N1730 0.984 . S
H1737 N1730 0.984 . S
H1738 N1726 0.984 . S
H1739 N1726 0.985 . S
C1740 C1741 1.363 . S
C1740 C1746 1.379 . S
C1740 N1748 1.356 . S
C1741 C1740 1.363 . S
C1741 C1747 1.363 . S
C1742 C1743 1.363 . S
C1742 C1747 1.379 . S
C1742 N1749 1.356 . S
C1743 C1742 1.363 . S
C1743 C1746 1.363 . S
N1744 C1746 1.356 . S
N1744 H1756 0.984 . S
N1744 H1757 0.985 . S
N1745 C1747 1.356 . S
N1745 H1750 0.984 . S
N1745 H1751 0.985 . S
C1746 C1740 1.379 . S
C1746 C1743 1.363 . S
C1746 N1744 1.356 . S
C1747 C1741 1.363 . S
C1747 C1742 1.379 . S
C1747 N1745 1.356 . S
N1748 C1740 1.356 . S
N1748 H1754 0.984 . S
N1748 H1755 0.984 . S
N1749 C1742 1.356 . S
N1749 H1752 0.984 . S
N1749 H1753 0.985 . S
H1750 N1745 0.984 . S
H1751 N1745 0.985 . S
H1752 N1749 0.984 . S
H1753 N1749 0.985 . S
H1754 N1748 0.984 . S
H1755 N1748 0.984 . S
H1756 N1744 0.984 . S
H1757 N1744 0.985 . S
C1758 C1759 1.363 . S
C1758 C1764 1.379 . S
C1758 N1766 1.356 . S
C1759 C1758 1.363 . S
C1759 C1765 1.363 . S
C1760 C1761 1.363 . S
C1760 C1765 1.379 . S
C1760 N1767 1.356 . S
C1761 C1760 1.363 . S
C1761 C1764 1.363 . S
N1762 C1764 1.356 . S
N1762 H1774 0.984 . S
N1762 H1775 0.985 . S
N1763 C1765 1.356 . S
N1763 H1768 0.984 . S
N1763 H1769 0.985 . S
C1764 C1758 1.379 . S
C1764 C1761 1.363 . S
C1764 N1762 1.356 . S
C1765 C1759 1.363 . S
C1765 C1760 1.379 . S
C1765 N1763 1.356 . S
N1766 C1758 1.356 . S
N1766 H1772 0.984 . S
N1766 H1773 0.984 . S
N1767 C1760 1.356 . S
N1767 H1770 0.984 . S
N1767 H1771 0.985 . S
H1768 N1763 0.984 . S
H1769 N1763 0.985 . S
H1770 N1767 0.984 . S
H1771 N1767 0.985 . S
H1772 N1766 0.984 . S
H1773 N1766 0.984 . S
H1774 N1762 0.984 . S
H1775 N1762 0.985 . S
C1776 C1777 1.363 . S
C1776 C1782 1.379 . S
C1776 N1784 1.356 . S
C1777 C1776 1.363 . S
C1777 C1783 1.363 . S
C1778 C1779 1.363 . S
C1778 C1783 1.379 . S
C1778 N1785 1.356 . S
C1779 C1778 1.363 . S
C1779 C1782 1.363 . S
N1780 C1782 1.356 . S
N1780 H1792 0.984 . S
N1780 H1793 0.985 . S
N1781 C1783 1.356 . S
N1781 H1786 0.984 . S
N1781 H1787 0.985 . S
C1782 C1776 1.379 . S
C1782 C1779 1.363 . S
C1782 N1780 1.356 . S
C1783 C1777 1.363 . S
C1783 C1778 1.379 . S
C1783 N1781 1.356 . S
N1784 C1776 1.356 . S
N1784 H1790 0.984 . S
N1784 H1791 0.984 . S
N1785 C1778 1.356 . S
N1785 H1788 0.984 . S
N1785 H1789 0.985 . S
H1786 N1781 0.984 . S
H1787 N1781 0.985 . S
H1788 N1785 0.984 . S
H1789 N1785 0.985 . S
H1790 N1784 0.984 . S
H1791 N1784 0.984 . S
H1792 N1780 0.984 . S
H1793 N1780 0.985 . S
C1794 C1795 1.363 . S
C1794 C1800 1.379 . S
C1794 N1802 1.356 . S
C1795 C1794 1.363 . S
C1795 C1801 1.363 . S
C1796 C1797 1.363 . S
C1796 C1801 1.379 . S
C1796 N1803 1.356 . S
C1797 C1796 1.363 . S
C1797 C1800 1.363 . S
N1798 C1800 1.356 . S
N1798 H1810 0.984 . S
N1798 H1811 0.985 . S
N1799 C1801 1.356 . S
N1799 H1804 0.984 . S
N1799 H1805 0.985 . S
C1800 C1794 1.379 . S
C1800 C1797 1.363 . S
C1800 N1798 1.356 . S
C1801 C1795 1.363 . S
C1801 C1796 1.379 . S
C1801 N1799 1.356 . S
N1802 C1794 1.356 . S
N1802 H1808 0.984 . S
N1802 H1809 0.984 . S
N1803 C1796 1.356 . S
N1803 H1806 0.984 . S
N1803 H1807 0.985 . S
H1804 N1799 0.984 . S
H1805 N1799 0.985 . S
H1806 N1803 0.984 . S
H1807 N1803 0.985 . S
H1808 N1802 0.984 . S
H1809 N1802 0.984 . S
H1810 N1798 0.984 . S
H1811 N1798 0.985 . S
C1812 C1813 1.363 . S
C1812 C1818 1.379 . S
C1812 N1820 1.356 . S
C1813 C1812 1.363 . S
C1813 C1819 1.363 . S
C1814 C1815 1.363 . S
C1814 C1819 1.379 . S
C1814 N1821 1.356 . S
C1815 C1814 1.363 . S
C1815 C1818 1.363 . S
N1816 C1818 1.356 . S
N1816 H1828 0.984 . S
N1816 H1829 0.985 . S
N1817 C1819 1.356 . S
N1817 H1822 0.984 . S
N1817 H1823 0.985 . S
C1818 C1812 1.379 . S
C1818 C1815 1.363 . S
C1818 N1816 1.356 . S
C1819 C1813 1.363 . S
C1819 C1814 1.379 . S
C1819 N1817 1.356 . S
N1820 C1812 1.356 . S
N1820 H1826 0.984 . S
N1820 H1827 0.984 . S
N1821 C1814 1.356 . S
N1821 H1824 0.984 . S
N1821 H1825 0.985 . S
H1822 N1817 0.984 . S
H1823 N1817 0.985 . S
H1824 N1821 0.984 . S
H1825 N1821 0.985 . S
H1826 N1820 0.984 . S
H1827 N1820 0.984 . S
H1828 N1816 0.984 . S
H1829 N1816 0.985 . S
C1830 C1831 1.363 . S
C1830 C1836 1.379 . S
C1830 N1838 1.356 . S
C1831 C1830 1.363 . S
C1831 C1837 1.363 . S
C1832 C1833 1.363 . S
C1832 C1837 1.379 . S
C1832 N1839 1.356 . S
C1833 C1832 1.363 . S
C1833 C1836 1.363 . S
N1834 C1836 1.356 . S
N1834 H1846 0.984 . S
N1834 H1847 0.985 . S
N1835 C1837 1.356 . S
N1835 H1840 0.984 . S
N1835 H1841 0.985 . S
C1836 C1830 1.379 . S
C1836 C1833 1.363 . S
C1836 N1834 1.356 . S
C1837 C1831 1.363 . S
C1837 C1832 1.379 . S
C1837 N1835 1.356 . S
N1838 C1830 1.356 . S
N1838 H1844 0.984 . S
N1838 H1845 0.984 . S
N1839 C1832 1.356 . S
N1839 H1842 0.984 . S
N1839 H1843 0.985 . S
H1840 N1835 0.984 . S
H1841 N1835 0.985 . S
H1842 N1839 0.984 . S
H1843 N1839 0.985 . S
H1844 N1838 0.984 . S
H1845 N1838 0.984 . S
H1846 N1834 0.984 . S
H1847 N1834 0.985 . S
C1848 C1849 1.363 . S
C1848 C1854 1.379 1_655 S
C1848 N1856 1.356 1_556 S
C1849 C1848 1.363 . S
C1849 C1855 1.363 . S
C1850 C1851 1.363 . S
C1850 C1855 1.379 1_455 S
C1850 N1857 1.356 . S
C1851 C1850 1.363 . S
C1851 C1854 1.363 . S
N1852 C1854 1.356 1_554 S
N1852 H1864 0.984 . S
N1852 H1865 0.985 1_554 S
N1853 C1855 1.356 . S
N1853 H1858 0.984 . S
N1853 H1859 0.985 . S
C1854 C1848 1.379 1_455 S
C1854 C1851 1.363 . S
C1854 N1852 1.356 1_556 S
C1855 C1849 1.363 . S
C1855 C1850 1.379 1_655 S
C1855 N1853 1.356 . S
N1856 C1848 1.356 1_554 S
N1856 H1862 0.984 . S
N1856 H1863 0.988 . S
N1857 C1850 1.356 . S
N1857 H1860 0.984 . S
N1857 H1861 0.985 . S
H1858 N1853 0.984 . S
H1859 N1853 0.985 . S
H1860 N1857 0.984 . S
H1861 N1857 0.985 . S
H1862 N1856 0.984 . S
H1863 N1856 0.988 . S
H1864 N1852 0.984 . S
H1865 N1852 0.985 1_556 S
C1866 C1867 1.363 . S
C1866 C1872 1.379 . S
C1866 N1874 1.356 . S
C1867 C1866 1.363 . S
C1867 C1873 1.363 . S
C1868 C1869 1.363 . S
C1868 C1873 1.379 . S
C1868 N1875 1.356 . S
C1869 C1868 1.363 . S
C1869 C1872 1.363 . S
N1870 C1872 1.356 . S
N1870 H1882 0.984 . S
N1870 H1883 0.985 . S
N1871 C1873 1.356 . S
N1871 H1876 0.984 . S
N1871 H1877 0.985 . S
C1872 C1866 1.379 . S
C1872 C1869 1.363 . S
C1872 N1870 1.356 . S
C1873 C1867 1.363 . S
C1873 C1868 1.379 . S
C1873 N1871 1.356 . S
N1874 C1866 1.356 . S
N1874 H1880 0.984 . S
N1874 H1881 0.984 . S
N1875 C1868 1.356 . S
N1875 H1878 0.984 . S
N1875 H1879 0.985 . S
H1876 N1871 0.984 . S
H1877 N1871 0.985 . S
H1878 N1875 0.984 . S
H1879 N1875 0.985 . S
H1880 N1874 0.984 . S
H1881 N1874 0.984 . S
H1882 N1870 0.984 . S
H1883 N1870 0.985 . S
C1884 C1885 1.363 . S
C1884 C1890 1.379 . S
C1884 N1892 1.356 . S
C1885 C1884 1.363 . S
C1885 C1891 1.363 . S
C1886 C1887 1.363 . S
C1886 C1891 1.379 . S
C1886 N1893 1.356 . S
C1887 C1886 1.363 . S
C1887 C1890 1.363 . S
N1888 C1890 1.356 . S
N1888 H1900 0.984 . S
N1888 H1901 0.985 . S
N1889 C1891 1.356 . S
N1889 H1894 0.984 . S
N1889 H1895 0.985 . S
C1890 C1884 1.379 . S
C1890 C1887 1.363 . S
C1890 N1888 1.356 . S
C1891 C1885 1.363 . S
C1891 C1886 1.379 . S
C1891 N1889 1.356 . S
N1892 C1884 1.356 . S
N1892 H1898 0.984 . S
N1892 H1899 0.984 . S
N1893 C1886 1.356 . S
N1893 H1896 0.984 . S
N1893 H1897 0.985 . S
H1894 N1889 0.984 . S
H1895 N1889 0.985 . S
H1896 N1893 0.984 . S
H1897 N1893 0.985 . S
H1898 N1892 0.984 . S
H1899 N1892 0.984 . S
H1900 N1888 0.984 . S
H1901 N1888 0.985 . S
C1902 C1903 1.363 . S
C1902 C1908 1.379 1_455 S
C1902 N1910 1.356 1_554 S
C1903 C1902 1.363 . S
C1903 C1909 1.363 . S
C1904 C1905 1.363 . S
C1904 C1909 1.379 1_655 S
C1904 N1911 1.356 . S
C1905 C1904 1.363 . S
C1905 C1908 1.363 . S
N1906 C1908 1.356 1_556 S
N1906 H1918 0.984 . S
N1906 H1919 0.985 . S
N1907 C1909 1.356 . S
N1907 H1912 0.984 . S
N1907 H1913 0.985 . S
C1908 C1902 1.379 1_655 S
C1908 C1905 1.363 . S
C1908 N1906 1.356 1_554 S
C1909 C1903 1.363 . S
C1909 C1904 1.379 1_455 S
C1909 N1907 1.356 . S
N1910 C1902 1.356 1_556 S
N1910 H1916 0.984 . S
N1910 H1917 0.984 . S
N1911 C1904 1.356 . S
N1911 H1914 0.984 . S
N1911 H1915 0.985 . S
H1912 N1907 0.984 . S
H1913 N1907 0.985 . S
H1914 N1911 0.984 . S
H1915 N1911 0.985 . S
H1916 N1910 0.984 . S
H1917 N1910 0.984 . S
H1918 N1906 0.984 . S
H1919 N1906 0.985 . S
C1920 C1921 1.363 1_556 S
C1920 C1926 1.379 . S
C1920 N1928 1.356 . S
C1921 C1920 1.363 1_554 S
C1921 C1927 1.363 . S
C1922 C1923 1.363 1_554 S
C1922 C1927 1.379 . S
C1922 N1929 1.356 . S
C1923 C1922 1.363 1_556 S
C1923 C1926 1.363 . S
N1924 C1926 1.356 . S
N1924 H1936 0.984 . S
N1924 H1937 0.985 . S
N1925 C1927 1.356 . S
N1925 H1930 0.984 . S
N1925 H1931 0.985 . S
C1926 C1920 1.379 . S
C1926 C1923 1.363 . S
C1926 N1924 1.356 . S
C1927 C1921 1.363 . S
C1927 C1922 1.379 . S
C1927 N1925 1.356 . S
N1928 C1920 1.356 . S
N1928 H1934 0.984 . S
N1928 H1935 0.984 1_556 S
N1929 C1922 1.356 . S
N1929 H1932 0.984 1_554 S
N1929 H1933 0.985 . S
H1930 N1925 0.984 . S
H1931 N1925 0.985 . S
H1932 N1929 0.984 1_556 S
H1933 N1929 0.985 . S
H1934 N1928 0.984 . S
H1935 N1928 0.984 1_554 S
H1936 N1924 0.984 . S
H1937 N1924 0.985 . S
C1938 C1939 1.363 . S
C1938 C1944 1.379 . S
C1938 N1946 1.356 . S
C1939 C1938 1.363 . S
C1939 C1945 1.363 . S
C1940 C1941 1.363 . S
C1940 C1945 1.379 . S
C1940 N1947 1.356 . S
C1941 C1940 1.363 . S
C1941 C1944 1.363 . S
N1942 C1944 1.356 . S
N1942 H1954 0.984 . S
N1942 H1955 0.985 . S
N1943 C1945 1.356 . S
N1943 H1948 0.984 . S
N1943 H1949 0.985 . S
C1944 C1938 1.379 . S
C1944 C1941 1.363 . S
C1944 N1942 1.356 . S
C1945 C1939 1.363 . S
C1945 C1940 1.379 . S
C1945 N1943 1.356 . S
N1946 C1938 1.356 . S
N1946 H1952 0.984 . S
N1946 H1953 0.984 . S
N1947 C1940 1.356 . S
N1947 H1950 0.984 . S
N1947 H1951 0.985 . S
H1948 N1943 0.984 . S
H1949 N1943 0.985 . S
H1950 N1947 0.984 . S
H1951 N1947 0.985 . S
H1952 N1946 0.984 . S
H1953 N1946 0.984 . S
H1954 N1942 0.984 . S
H1955 N1942 0.985 . S
C1956 C1957 1.363 . S
C1956 C1962 1.379 . S
C1956 N1964 1.356 . S
C1957 C1956 1.363 . S
C1957 C1963 1.363 . S
C1958 C1959 1.363 . S
C1958 C1963 1.379 . S
C1958 N1965 1.356 . S
C1959 C1958 1.363 . S
C1959 C1962 1.363 . S
N1960 C1962 1.356 . S
N1960 H1972 0.984 . S
N1960 H1973 0.985 . S
N1961 C1963 1.356 . S
N1961 H1966 0.984 . S
N1961 H1967 0.985 . S
C1962 C1956 1.379 . S
C1962 C1959 1.363 . S
C1962 N1960 1.356 . S
C1963 C1957 1.363 . S
C1963 C1958 1.379 . S
C1963 N1961 1.356 . S
N1964 C1956 1.356 . S
N1964 H1970 0.984 . S
N1964 H1971 0.984 . S
N1965 C1958 1.356 . S
N1965 H1968 0.984 . S
N1965 H1969 0.985 . S
H1966 N1961 0.984 . S
H1967 N1961 0.985 . S
H1968 N1965 0.984 . S
H1969 N1965 0.985 . S
H1970 N1964 0.984 . S
H1971 N1964 0.984 . S
H1972 N1960 0.984 . S
H1973 N1960 0.985 . S
C1974 C1975 1.363 . S
C1974 C1980 1.379 . S
C1974 N1982 1.356 . S
C1975 C1974 1.363 . S
C1975 C1981 1.363 . S
C1976 C1977 1.363 . S
C1976 C1981 1.379 . S
C1976 N1983 1.356 . S
C1977 C1976 1.363 . S
C1977 C1980 1.363 . S
N1978 C1980 1.356 . S
N1978 H1990 0.984 . S
N1978 H1991 0.985 . S
N1979 C1981 1.356 . S
N1979 H1984 0.984 . S
N1979 H1985 0.985 . S
C1980 C1974 1.379 . S
C1980 C1977 1.363 . S
C1980 N1978 1.356 . S
C1981 C1975 1.363 . S
C1981 C1976 1.379 . S
C1981 N1979 1.356 . S
N1982 C1974 1.356 . S
N1982 H1988 0.984 . S
N1982 H1989 0.984 . S
N1983 C1976 1.356 . S
N1983 H1986 0.984 . S
N1983 H1987 0.985 . S
H1984 N1979 0.984 . S
H1985 N1979 0.985 . S
H1986 N1983 0.984 . S
H1987 N1983 0.985 . S
H1988 N1982 0.984 . S
H1989 N1982 0.984 . S
H1990 N1978 0.984 . S
H1991 N1978 0.985 . S
C1992 C1993 1.363 . S
C1992 C1998 1.379 . S
C1992 N2000 1.356 . S
C1993 C1992 1.363 . S
C1993 C1999 1.363 1_554 S
C1994 C1995 1.363 . S
C1994 C1999 1.379 . S
C1994 N2001 1.356 . S
C1995 C1994 1.363 . S
C1995 C1998 1.363 1_556 S
N1996 C1998 1.354 1_556 S
N1996 H2008 0.973 1_556 S
N1996 H2009 0.999 . S
N1997 C1999 1.356 . S
N1997 H2002 0.984 1_556 S
N1997 H2003 0.985 . S
C1998 C1992 1.379 . S
C1998 C1995 1.363 1_554 S
C1998 N1996 1.354 1_554 S
C1999 C1993 1.363 1_556 S
C1999 C1994 1.379 . S
C1999 N1997 1.356 . S
N2000 C1992 1.356 . S
N2000 H2006 0.984 . S
N2000 H2007 0.984 . S
N2001 C1994 1.356 . S
N2001 H2004 0.984 . S
N2001 H2005 0.985 . S
H2002 N1997 0.984 1_554 S
H2003 N1997 0.985 . S
H2004 N2001 0.984 . S
H2005 N2001 0.985 . S
H2006 N2000 0.984 . S
H2007 N2000 0.984 . S
H2008 N1996 0.973 1_554 S
H2009 N1996 0.999 . S
C2010 C2011 1.363 . S
C2010 C2016 1.379 . S
C2010 N2018 1.356 . S
C2011 C2010 1.363 . S
C2011 C2017 1.363 . S
C2012 C2013 1.363 . S
C2012 C2017 1.379 . S
C2012 N2019 1.356 . S
C2013 C2012 1.363 . S
C2013 C2016 1.363 . S
N2014 C2016 1.356 . S
N2014 H2026 0.984 . S
N2014 H2027 0.985 . S
N2015 C2017 1.356 . S
N2015 H2020 0.984 . S
N2015 H2021 0.985 . S
C2016 C2010 1.379 . S
C2016 C2013 1.363 . S
C2016 N2014 1.356 . S
C2017 C2011 1.363 . S
C2017 C2012 1.379 . S
C2017 N2015 1.356 . S
N2018 C2010 1.356 . S
N2018 H2024 0.984 . S
N2018 H2025 0.984 . S
N2019 C2012 1.356 . S
N2019 H2022 0.984 . S
N2019 H2023 0.985 . S
H2020 N2015 0.984 . S
H2021 N2015 0.985 . S
H2022 N2019 0.984 . S
H2023 N2019 0.985 . S
H2024 N2018 0.984 . S
H2025 N2018 0.984 . S
H2026 N2014 0.984 . S
H2027 N2014 0.985 . S
C2028 C2029 1.363 . S
C2028 C2034 1.379 . S
C2028 N2036 1.356 . S
C2029 C2028 1.363 . S
C2029 C2035 1.363 . S
C2030 C2031 1.363 . S
C2030 C2035 1.379 . S
C2030 N2037 1.356 . S
C2031 C2030 1.363 . S
C2031 C2034 1.363 . S
N2032 C2034 1.356 . S
N2032 H2044 0.984 . S
N2032 H2045 0.985 . S
N2033 C2035 1.356 . S
N2033 H2038 0.984 . S
N2033 H2039 0.985 . S
C2034 C2028 1.379 . S
C2034 C2031 1.363 . S
C2034 N2032 1.356 . S
C2035 C2029 1.363 . S
C2035 C2030 1.379 . S
C2035 N2033 1.356 . S
N2036 C2028 1.356 . S
N2036 H2042 0.984 . S
N2036 H2043 0.984 . S
N2037 C2030 1.356 . S
N2037 H2040 0.984 . S
N2037 H2041 0.985 . S
H2038 N2033 0.984 . S
H2039 N2033 0.985 . S
H2040 N2037 0.984 . S
H2041 N2037 0.985 . S
H2042 N2036 0.984 . S
H2043 N2036 0.984 . S
H2044 N2032 0.984 . S
H2045 N2032 0.985 . S
C2046 C2047 1.363 . S
C2046 C2052 1.379 . S
C2046 N2054 1.356 . S
C2047 C2046 1.363 . S
C2047 C2053 1.363 . S
C2048 C2049 1.363 . S
C2048 C2053 1.379 . S
C2048 N2055 1.356 . S
C2049 C2048 1.363 . S
C2049 C2052 1.363 . S
N2050 C2052 1.356 . S
N2050 H2062 0.984 . S
N2050 H2063 0.985 . S
N2051 C2053 1.356 . S
N2051 H2056 0.984 . S
N2051 H2057 0.985 . S
C2052 C2046 1.379 . S
C2052 C2049 1.363 . S
C2052 N2050 1.356 . S
C2053 C2047 1.363 . S
C2053 C2048 1.379 . S
C2053 N2051 1.356 . S
N2054 C2046 1.356 . S
N2054 H2060 0.984 . S
N2054 H2061 0.984 . S
N2055 C2048 1.356 . S
N2055 H2058 0.984 . S
N2055 H2059 0.985 . S
H2056 N2051 0.984 . S
H2057 N2051 0.985 . S
H2058 N2055 0.984 . S
H2059 N2055 0.985 . S
H2060 N2054 0.984 . S
H2061 N2054 0.984 . S
H2062 N2050 0.984 . S
H2063 N2050 0.985 . S
C2064 C2065 1.376 . S
C2064 C2070 1.367 1_565 S
C2064 N2072 1.360 . S
C2065 C2064 1.376 . S
C2065 C2071 1.363 . S
C2066 C2067 1.363 1_565 S
C2066 C2071 1.379 . S
C2066 N2073 1.356 1_565 S
C2067 C2066 1.363 1_545 S
C2067 C2070 1.363 . S
N2068 C2070 1.356 . S
N2068 H2080 0.984 . S
N2068 H2081 0.985 . S
N2069 C2071 1.356 . S
N2069 H2074 0.984 . S
N2069 H2075 0.985 . S
C2070 C2064 1.367 1_545 S
C2070 C2067 1.363 . S
C2070 N2068 1.356 . S
C2071 C2065 1.363 . S
C2071 C2066 1.379 . S
C2071 N2069 1.356 . S
N2072 C2064 1.360 . S
N2072 H2078 0.984 1_565 S
N2072 H2079 0.984 . S
N2073 C2066 1.356 1_545 S
N2073 H2076 0.984 . S
N2073 H2077 0.985 1_545 S
H2074 N2069 0.984 . S
H2075 N2069 0.985 . S
H2076 N2073 0.984 . S
H2077 N2073 0.985 1_565 S
H2078 N2072 0.984 1_545 S
H2079 N2072 0.984 . S
H2080 N2068 0.984 . S
H2081 N2068 0.985 . S
C2082 C2083 1.363 . S
C2082 C2088 1.379 . S
C2082 N2090 1.356 . S
C2083 C2082 1.363 . S
C2083 C2089 1.363 . S
C2084 C2085 1.363 . S
C2084 C2089 1.379 . S
C2084 N2091 1.356 . S
C2085 C2084 1.363 . S
C2085 C2088 1.363 . S
N2086 C2088 1.356 . S
N2086 H2098 0.984 . S
N2086 H2099 0.985 . S
N2087 C2089 1.356 . S
N2087 H2092 0.984 . S
N2087 H2093 0.985 . S
C2088 C2082 1.379 . S
C2088 C2085 1.363 . S
C2088 N2086 1.356 . S
C2089 C2083 1.363 . S
C2089 C2084 1.379 . S
C2089 N2087 1.356 . S
N2090 C2082 1.356 . S
N2090 H2096 0.984 . S
N2090 H2097 0.984 . S
N2091 C2084 1.356 . S
N2091 H2094 0.984 . S
N2091 H2095 0.985 . S
H2092 N2087 0.984 . S
H2093 N2087 0.985 . S
H2094 N2091 0.984 . S
H2095 N2091 0.985 . S
H2096 N2090 0.984 . S
H2097 N2090 0.984 . S
H2098 N2086 0.984 . S
H2099 N2086 0.985 . S
C2100 C2101 1.344 1_545 S
C2100 C2106 1.396 . S
C2100 N2108 1.351 1_545 S
C2101 C2100 1.344 1_565 S
C2101 C2107 1.363 1_554 S
C2102 C2103 1.363 1_565 S
C2102 C2107 1.379 . S
C2102 N2109 1.356 1_565 S
C2103 C2102 1.363 1_545 S
C2103 C2106 1.363 1_556 S
N2104 C2106 1.356 . S
N2104 H2116 0.984 . S
N2104 H2117 0.985 1_554 S
N2105 C2107 1.356 . S
N2105 H2110 0.984 1_556 S
N2105 H2111 0.985 . S
C2106 C2100 1.396 . S
C2106 C2103 1.363 1_554 S
C2106 N2104 1.356 . S
C2107 C2101 1.363 1_556 S
C2107 C2102 1.379 . S
C2107 N2105 1.356 . S
N2108 C2100 1.351 1_565 S
N2108 H2114 0.984 1_565 S
N2108 H2115 0.984 . S
N2109 C2102 1.356 1_545 S
N2109 H2112 0.984 . S
N2109 H2113 0.985 1_545 S
H2110 N2105 0.984 1_554 S
H2111 N2105 0.985 . S
H2112 N2109 0.984 . S
H2113 N2109 0.985 1_565 S
H2114 N2108 0.984 1_545 S
H2115 N2108 0.984 . S
H2116 N2104 0.984 . S
H2117 N2104 0.985 1_556 S
C2118 C2119 1.363 . S
C2118 C2124 1.379 . S
C2118 N2126 1.356 . S
C2119 C2118 1.363 . S
C2119 C2125 1.363 . S
C2120 C2121 1.363 . S
C2120 C2125 1.379 . S
C2120 N2127 1.356 . S
C2121 C2120 1.363 . S
C2121 C2124 1.363 . S
N2122 C2124 1.356 . S
N2122 H2134 0.984 . S
N2122 H2135 0.985 . S
N2123 C2125 1.356 . S
N2123 H2128 0.984 . S
N2123 H2129 0.985 . S
C2124 C2118 1.379 . S
C2124 C2121 1.363 . S
C2124 N2122 1.356 . S
C2125 C2119 1.363 . S
C2125 C2120 1.379 . S
C2125 N2123 1.356 . S
N2126 C2118 1.356 . S
N2126 H2132 0.984 . S
N2126 H2133 0.984 . S
N2127 C2120 1.356 . S
N2127 H2130 0.984 . S
N2127 H2131 0.985 . S
H2128 N2123 0.984 . S
H2129 N2123 0.985 . S
H2130 N2127 0.984 . S
H2131 N2127 0.985 . S
H2132 N2126 0.984 . S
H2133 N2126 0.984 . S
H2134 N2122 0.984 . S
H2135 N2122 0.985 . S
C2136 C2137 1.363 . S
C2136 C2142 1.379 . S
C2136 N2144 1.356 . S
C2137 C2136 1.363 . S
C2137 C2143 1.363 1_565 S
C2138 C2139 1.363 . S
C2138 C2143 1.379 . S
C2138 N2145 1.356 . S
C2139 C2138 1.363 . S
C2139 C2142 1.363 1_545 S
N2140 C2142 1.356 1_545 S
N2140 H2152 0.984 1_545 S
N2140 H2153 0.985 . S
N2141 C2143 1.356 1_565 S
N2141 H2146 0.984 . S
N2141 H2147 0.985 1_565 S
C2142 C2136 1.379 . S
C2142 C2139 1.363 1_565 S
C2142 N2140 1.356 1_565 S
C2143 C2137 1.363 1_545 S
C2143 C2138 1.379 . S
C2143 N2141 1.356 1_545 S
N2144 C2136 1.356 . S
N2144 H2150 0.984 . S
N2144 H2151 0.984 . S
N2145 C2138 1.356 . S
N2145 H2148 0.984 . S
N2145 H2149 0.985 . S
H2146 N2141 0.984 . S
H2147 N2141 0.985 1_545 S
H2148 N2145 0.984 . S
H2149 N2145 0.985 . S
H2150 N2144 0.984 . S
H2151 N2144 0.984 . S
H2152 N2140 0.984 1_565 S
H2153 N2140 0.985 . S
C2154 C2155 1.363 . S
C2154 C2160 1.379 . S
C2154 N2162 1.356 . S
C2155 C2154 1.363 . S
C2155 C2161 1.363 . S
C2156 C2157 1.363 . S
C2156 C2161 1.379 . S
C2156 N2163 1.356 . S
C2157 C2156 1.363 . S
C2157 C2160 1.363 . S
N2158 C2160 1.356 . S
N2158 H2170 0.984 . S
N2158 H2171 0.985 . S
N2159 C2161 1.356 . S
N2159 H2164 0.984 . S
N2159 H2165 0.985 . S
C2160 C2154 1.379 . S
C2160 C2157 1.363 . S
C2160 N2158 1.356 . S
C2161 C2155 1.363 . S
C2161 C2156 1.379 . S
C2161 N2159 1.356 . S
N2162 C2154 1.356 . S
N2162 H2168 0.984 . S
N2162 H2169 0.984 . S
N2163 C2156 1.356 . S
N2163 H2166 0.984 . S
N2163 H2167 0.985 . S
H2164 N2159 0.984 . S
H2165 N2159 0.985 . S
H2166 N2163 0.984 . S
H2167 N2163 0.985 . S
H2168 N2162 0.984 . S
H2169 N2162 0.984 . S
H2170 N2158 0.984 . S
H2171 N2158 0.985 . S
C2172 C2173 1.363 . S
C2172 C2178 1.379 1_545 S
C2172 N2180 1.356 . S
C2173 C2172 1.363 . S
C2173 C2179 1.349 1_556 S
C2174 C2175 1.371 . S
C2174 C2179 1.382 1_565 S
C2174 N2181 1.360 . S
C2175 C2174 1.371 . S
C2175 C2178 1.363 1_554 S
N2176 C2178 1.356 1_554 S
N2176 H2188 0.984 1_554 S
N2176 H2189 0.985 . S
N2177 C2179 1.353 1_556 S
N2177 H2182 0.984 . S
N2177 H2183 0.985 1_556 S
C2178 C2172 1.379 1_565 S
C2178 C2175 1.363 1_556 S
C2178 N2176 1.356 1_556 S
C2179 C2173 1.349 1_554 S
C2179 C2174 1.382 1_545 S
C2179 N2177 1.353 1_554 S
N2180 C2172 1.356 . S
N2180 H2186 1.004 . S
N2180 H2187 0.984 . S
N2181 C2174 1.360 . S
N2181 H2184 0.984 . S
N2181 H2185 0.985 1_565 S
H2182 N2177 0.984 . S
H2183 N2177 0.985 1_554 S
H2184 N2181 0.984 . S
H2185 N2181 0.985 1_545 S
H2186 N2180 1.004 . S
H2187 N2180 0.984 . S
H2188 N2176 0.984 1_556 S
H2189 N2176 0.985 . S
C2190 C2191 1.363 . S
C2190 C2196 1.379 . S
C2190 N2198 1.356 . S
C2191 C2190 1.363 . S
C2191 C2197 1.363 . S
C2192 C2193 1.363 . S
C2192 C2197 1.379 . S
C2192 N2199 1.356 . S
C2193 C2192 1.363 . S
C2193 C2196 1.363 . S
N2194 C2196 1.356 . S
N2194 H2206 0.984 . S
N2194 H2207 0.985 . S
N2195 C2197 1.356 . S
N2195 H2200 0.984 . S
N2195 H2201 0.985 . S
C2196 C2190 1.379 . S
C2196 C2193 1.363 . S
C2196 N2194 1.356 . S
C2197 C2191 1.363 . S
C2197 C2192 1.379 . S
C2197 N2195 1.356 . S
N2198 C2190 1.356 . S
N2198 H2204 0.984 . S
N2198 H2205 0.984 . S
N2199 C2192 1.356 . S
N2199 H2202 0.984 . S
N2199 H2203 0.985 . S
H2200 N2195 0.984 . S
H2201 N2195 0.985 . S
H2202 N2199 0.984 . S
H2203 N2199 0.985 . S
H2204 N2198 0.984 . S
H2205 N2198 0.984 . S
H2206 N2194 0.984 . S
H2207 N2194 0.985 . S
C1345 C58 1.497 . S
C1347 C70 1.497 . S
C1363 C142 1.464 1_556 S
C1365 C154 1.469 . S
C1381 C226 1.471 . S
C1383 C238 1.471 . S
C1399 C322 1.480 . S
C1401 C310 1.480 . S
C1417 C406 1.471 . S
C1419 C394 1.471 . S
C1435 C490 1.461 . S
C1437 C478 1.461 . S
C1453 C562 1.478 . S
C1455 C574 1.478 . S
C1471 C658 1.497 . S
C1473 C646 1.497 . S
C1489 C730 1.503 . S
C1491 C742 1.503 . S
C1507 C814 1.473 . S
C1509 C826 1.473 . S
C1525 C910 1.466 . S
C1527 C898 1.466 . S
C1543 C982 1.479 . S
C1545 C994 1.479 . S
C1561 C1066 1.470 . S
C1563 C1078 1.470 . S
C1579 C1162 1.464 . S
C1581 C1150 1.464 . S
C1597 C1246 1.476 . S
C1599 C1234 1.476 . S
C1615 C1330 1.491 . S
C1617 C1318 1.491 . S
C1633 C67 1.763 . S
C1635 C979 1.765 . S
C1651 C151 1.770 . S
C1653 C1315 1.770 . S
C1669 C235 1.775 . S
C1671 C812 1.719 . S
C1687 C320 1.726 . S
C1689 C1147 1.787 . S
C1705 C404 1.710 . S
C1707 C1148 1.715 . S
C1723 C980 1.709 . S
C1725 C487 1.769 . S
C1741 C571 1.767 . S
C1743 C1316 1.712 . S
C1759 C656 1.718 . S
C1761 C811 1.774 . S
C1777 C319 1.778 . S
C1779 C728 1.719 . S
C1795 C152 1.708 . S
C1797 C896 1.708 . S
C1813 C1064 1.726 . S
C1815 C488 1.727 . S
C1831 C655 1.772 . S
C1833 C1231 1.773 . S
C1849 C727 1.778 . S
C1851 C403 1.780 . S
C1867 C572 1.725 . S
C1869 C895 1.782 . S
C1885 C236 1.723 . S
C1887 C1232 1.716 . S
C1903 C68 1.726 . S
C1905 C1063 1.782 . S
C1921 C55 1.661 . S
C1923 C392 1.699 . S
C1939 C139 1.677 . S
C1941 C475 1.677 . S
C1957 C223 1.672 . S
C1959 C559 1.671 . S
C1975 C308 1.722 . S
C1977 C644 1.723 . S
C1993 C1076 1.722 . S
C1995 C740 1.722 . S
C2011 C1159 1.680 . S
C2013 C823 1.679 . S
C2029 C908 1.731 . S
C2031 C1243 1.691 . S
C2047 C1327 1.656 . S
C2049 C992 1.695 . S
C2065 C140 1.695 . S
C2067 C643 1.657 . S
C2083 C391 1.698 . S
C2085 C224 1.739 . S
C2101 C476 1.731 . S
C2103 C307 1.692 . S
C2119 C56 1.719 . S
C2121 C560 1.719 . S
C2137 C1328 1.721 . S
C2139 C824 1.720 . S
C2155 C1075 1.697 . S
C2157 C907 1.697 . S
C2173 C1160 1.711 . S
C2175 C991 1.672 . S
C2191 C1244 1.697 . S
C2193 C739 1.660 . S
