# Generated by pormake.
# Topology soi, (5)-cn, num edge types: 1
# Building blocks:
#     Node 0, Type 0, BuildingBlock: XOMCOT_clean_sbu_0, # of connection points: 5
#     Node 1, Type 0, BuildingBlock: XOMCOT_clean_sbu_0, # of connection points: 5
#     Node 2, Type 0, BuildingBlock: XOMCOT_clean_sbu_0, # of connection points: 5
#     Node 3, Type 0, BuildingBlock: XOMCOT_clean_sbu_0, # of connection points: 5
#     Node 4, Type 0, BuildingBlock: XOMCOT_clean_sbu_0, # of connection points: 5
#     Node 5, Type 0, BuildingBlock: XOMCOT_clean_sbu_0, # of connection points: 5
#     Node 6, Type 0, BuildingBlock: XOMCOT_clean_sbu_0, # of connection points: 5
#     Node 7, Type 0, BuildingBlock: XOMCOT_clean_sbu_0, # of connection points: 5
#     Node 8, Type 0, BuildingBlock: XOMCOT_clean_sbu_0, # of connection points: 5
#     Node 9, Type 0, BuildingBlock: XOMCOT_clean_sbu_0, # of connection points: 5
#     Node 10, Type 0, BuildingBlock: XOMCOT_clean_sbu_0, # of connection points: 5
#     Node 11, Type 0, BuildingBlock: XOMCOT_clean_sbu_0, # of connection points: 5
#     Node 12, Type 0, BuildingBlock: XOMCOT_clean_sbu_0, # of connection points: 5
#     Node 13, Type 0, BuildingBlock: XOMCOT_clean_sbu_0, # of connection points: 5
#     Node 14, Type 0, BuildingBlock: XOMCOT_clean_sbu_0, # of connection points: 5
#     Node 15, Type 0, BuildingBlock: XOMCOT_clean_sbu_0, # of connection points: 5
#     Edge 16, Type (0, 0), BuildingBlock: UVAHIK_clean_linker_0, # of connection points: 2
#     Edge 17, Type (0, 0), BuildingBlock: UVAHIK_clean_linker_0, # of connection points: 2
#     Edge 18, Type (0, 0), BuildingBlock: UVAHIK_clean_linker_0, # of connection points: 2
#     Edge 19, Type (0, 0), BuildingBlock: UVAHIK_clean_linker_0, # of connection points: 2
#     Edge 20, Type (0, 0), BuildingBlock: UVAHIK_clean_linker_0, # of connection points: 2
#     Edge 21, Type (0, 0), BuildingBlock: UVAHIK_clean_linker_0, # of connection points: 2
#     Edge 22, Type (0, 0), BuildingBlock: UVAHIK_clean_linker_0, # of connection points: 2
#     Edge 23, Type (0, 0), BuildingBlock: UVAHIK_clean_linker_0, # of connection points: 2
#     Edge 24, Type (0, 0), BuildingBlock: UVAHIK_clean_linker_0, # of connection points: 2
#     Edge 25, Type (0, 0), BuildingBlock: UVAHIK_clean_linker_0, # of connection points: 2
#     Edge 26, Type (0, 0), BuildingBlock: UVAHIK_clean_linker_0, # of connection points: 2
#     Edge 27, Type (0, 0), BuildingBlock: UVAHIK_clean_linker_0, # of connection points: 2
#     Edge 28, Type (0, 0), BuildingBlock: UVAHIK_clean_linker_0, # of connection points: 2
#     Edge 29, Type (0, 0), BuildingBlock: UVAHIK_clean_linker_0, # of connection points: 2
#     Edge 30, Type (0, 0), BuildingBlock: UVAHIK_clean_linker_0, # of connection points: 2
#     Edge 31, Type (0, 0), BuildingBlock: UVAHIK_clean_linker_0, # of connection points: 2
#     Edge 32, Type (0, 0), BuildingBlock: UVAHIK_clean_linker_0, # of connection points: 2
#     Edge 33, Type (0, 0), BuildingBlock: UVAHIK_clean_linker_0, # of connection points: 2
#     Edge 34, Type (0, 0), BuildingBlock: UVAHIK_clean_linker_0, # of connection points: 2
#     Edge 35, Type (0, 0), BuildingBlock: UVAHIK_clean_linker_0, # of connection points: 2
#     Edge 36, Type (0, 0), BuildingBlock: UVAHIK_clean_linker_0, # of connection points: 2
#     Edge 37, Type (0, 0), BuildingBlock: UVAHIK_clean_linker_0, # of connection points: 2
#     Edge 38, Type (0, 0), BuildingBlock: UVAHIK_clean_linker_0, # of connection points: 2
#     Edge 39, Type (0, 0), BuildingBlock: UVAHIK_clean_linker_0, # of connection points: 2
#     Edge 40, Type (0, 0), BuildingBlock: UVAHIK_clean_linker_0, # of connection points: 2
#     Edge 41, Type (0, 0), BuildingBlock: UVAHIK_clean_linker_0, # of connection points: 2
#     Edge 42, Type (0, 0), BuildingBlock: UVAHIK_clean_linker_0, # of connection points: 2
#     Edge 43, Type (0, 0), BuildingBlock: UVAHIK_clean_linker_0, # of connection points: 2
#     Edge 44, Type (0, 0), BuildingBlock: UVAHIK_clean_linker_0, # of connection points: 2
#     Edge 45, Type (0, 0), BuildingBlock: UVAHIK_clean_linker_0, # of connection points: 2
#     Edge 46, Type (0, 0), BuildingBlock: UVAHIK_clean_linker_0, # of connection points: 2
#     Edge 47, Type (0, 0), BuildingBlock: UVAHIK_clean_linker_0, # of connection points: 2
#     Edge 48, Type (0, 0), BuildingBlock: UVAHIK_clean_linker_0, # of connection points: 2
#     Edge 49, Type (0, 0), BuildingBlock: UVAHIK_clean_linker_0, # of connection points: 2
#     Edge 50, Type (0, 0), BuildingBlock: UVAHIK_clean_linker_0, # of connection points: 2
#     Edge 51, Type (0, 0), BuildingBlock: UVAHIK_clean_linker_0, # of connection points: 2
#     Edge 52, Type (0, 0), BuildingBlock: UVAHIK_clean_linker_0, # of connection points: 2
#     Edge 53, Type (0, 0), BuildingBlock: UVAHIK_clean_linker_0, # of connection points: 2
#     Edge 54, Type (0, 0), BuildingBlock: UVAHIK_clean_linker_0, # of connection points: 2
#     Edge 55, Type (0, 0), BuildingBlock: UVAHIK_clean_linker_0, # of connection points: 2
# Relax obj value: 0.126
# Max RMSD: 0.175
# Mean RMSD: 0.175
data_MOF--net-soi--node1-XOMCOT_clean_sbu_0--edge1-UVAHIK_clean_linker_0
_symmetry_space_group_name_H-M    P1
_symmetry_Int_Tables_number       1
_symmetry_cell_setting            triclinic
loop_
_symmetry_equiv_pos_as_xyz
'x, y, z'
_cell_length_a     61.947796
_cell_length_b     31.301262
_cell_length_c     82.650367
_cell_angle_alpha  90.061815
_cell_angle_beta   90.004232
_cell_angle_gamma 89.973105
loop_
_atom_site_label
_atom_site_type_symbol
_atom_site_fract_x
_atom_site_fract_y
_atom_site_fract_z
_atom_type_partial_charge
Co0 Co 0.32981 0.09174 0.13639 0.0
C1 C 0.33059 0.07527 0.17207 0.0
C2 C 0.33938 0.13948 0.16587 0.0
C3 C 0.34029 0.13524 0.18243 0.0
N4 N 0.33331 0.10195 0.15937 0.0
N5 N 0.33474 0.09484 0.18636 0.0
H6 H 0.32551 0.04241 0.17096 0.0
H7 H 0.3431 0.16791 0.15898 0.0
C8 C 0.29227 0.13507 0.13935 0.0
O9 O 0.30768 0.16319 0.13701 0.0
N10 N 0.32644 0.08193 0.11338 0.0
C11 C 0.33997 0.05891 0.10407 0.0
C12 C 0.33213 0.05818 0.0885 0.0
C13 C 0.31044 0.09474 0.10338 0.0
N14 N 0.31353 0.08061 0.08807 0.0
C15 C 0.37589 0.08676 0.14115 0.0
C16 C 0.38418 0.15789 0.12218 0.0
C17 C 0.40121 0.13901 0.13075 0.0
C18 C 0.39696 0.10273 0.14023 0.0
C19 C 0.36341 0.14139 0.12364 0.0
N20 N 0.35955 0.10659 0.13304 0.0
H21 H 0.37247 0.05968 0.14884 0.0
H22 H 0.3501 0.15723 0.11765 0.0
H23 H 0.35447 0.04332 0.10837 0.0
H24 H 0.29687 0.11398 0.10713 0.0
O25 O 0.33481 0.02947 0.13918 0.0
O26 O 0.30312 0.0556 0.1404 0.0
O27 O 0.29737 0.09512 0.13945 0.0
C28 C 0.31487 0.02154 0.14071 0.0
H29 H 0.34509 0.15994 0.19085 0.0
H30 H 0.33927 0.04141 0.07837 0.0
H31 H 0.38669 0.18637 0.11498 0.0
H32 H 0.40971 0.08736 0.14704 0.0
Co33 Co 0.66758 0.43421 0.1327 0.0
C34 C 0.66468 0.44706 0.16842 0.0
C35 C 0.66172 0.38124 0.1615 0.0
C36 C 0.66065 0.38394 0.17813 0.0
N37 N 0.66434 0.42076 0.15543 0.0
N38 N 0.66252 0.42538 0.18247 0.0
H39 H 0.66683 0.48125 0.16772 0.0
H40 H 0.66073 0.35243 0.15431 0.0
C41 C 0.70474 0.38887 0.13348 0.0
O42 O 0.68941 0.36306 0.12848 0.0
N43 N 0.6708 0.44762 0.1099 0.0
C44 C 0.657 0.47145 0.10114 0.0
C45 C 0.66512 0.47609 0.08575 0.0
C46 C 0.68724 0.43824 0.09972 0.0
N47 N 0.68421 0.45536 0.08483 0.0
C48 C 0.62173 0.44005 0.13821 0.0
C49 C 0.61238 0.37137 0.1182 0.0
C50 C 0.59585 0.38899 0.12769 0.0
C51 C 0.60061 0.42421 0.13762 0.0
C52 C 0.63323 0.3877 0.11935 0.0
N53 N 0.63763 0.42114 0.12933 0.0
H54 H 0.62557 0.46604 0.14635 0.0
H55 H 0.64621 0.37252 0.11273 0.0
H56 H 0.64211 0.48493 0.1057 0.0
H57 H 0.70141 0.42039 0.10319 0.0
O58 O 0.66342 0.4961 0.13711 0.0
O59 O 0.69479 0.46823 0.13719 0.0
O60 O 0.69994 0.42855 0.13568 0.0
C61 C 0.6835 0.50271 0.13862 0.0
H62 H 0.65846 0.35742 0.18635 0.0
H63 H 0.65744 0.49341 0.076 0.0
H64 H 0.6095 0.34373 0.11061 0.0
H65 H 0.58827 0.43864 0.14513 0.0
Co66 Co 0.33086 0.92656 0.39746 0.0
C67 C 0.3328 0.94162 0.36173 0.0
C68 C 0.34421 0.87953 0.36862 0.0
C69 C 0.34553 0.8831 0.35205 0.0
N70 N 0.33628 0.9162 0.3747 0.0
N71 N 0.33832 0.92216 0.34769 0.0
H72 H 0.32606 0.97337 0.36246 0.0
H73 H 0.34876 0.85208 0.37579 0.0
C74 C 0.29529 0.87925 0.39315 0.0
O75 O 0.31128 0.85384 0.39721 0.0
N76 N 0.32557 0.93651 0.42026 0.0
C77 C 0.33811 0.96051 0.42999 0.0
C78 C 0.32953 0.96025 0.44533 0.0
C79 C 0.30936 0.9222 0.42979 0.0
N80 N 0.31146 0.93622 0.44521 0.0
C81 C 0.37692 0.93566 0.39429 0.0
C82 C 0.38575 0.8646 0.41316 0.0
C83 C 0.40267 0.88422 0.4047 0.0
C84 C 0.39816 0.9207 0.3954 0.0
C85 C 0.3648 0.88016 0.41153 0.0
N86 N 0.36066 0.9147 0.40205 0.0
H87 H 0.37331 0.96251 0.38653 0.0
H88 H 0.35158 0.86342 0.41725 0.0
H89 H 0.35252 0.97719 0.42616 0.0
H90 H 0.29643 0.90179 0.42563 0.0
O91 O 0.33457 0.98908 0.39463 0.0
O92 O 0.30363 0.96015 0.39223 0.0
O93 O 0.29894 0.9198 0.39288 0.0
C94 C 0.31461 0.99521 0.39228 0.0
H95 H 0.35162 0.85883 0.34391 0.0
H96 H 0.33588 0.97719 0.45572 0.0
H97 H 0.38846 0.83598 0.42023 0.0
H98 H 0.41081 0.9367 0.38869 0.0
Co99 Co 0.66915 0.58822 0.39393 0.0
C100 C 0.66548 0.57568 0.35828 0.0
C101 C 0.66677 0.64184 0.365 0.0
C102 C 0.66566 0.63906 0.34837 0.0
N103 N 0.66671 0.60213 0.37119 0.0
N104 N 0.66489 0.59739 0.34414 0.0
H105 H 0.66486 0.54128 0.35915 0.0
H106 H 0.66783 0.67082 0.37209 0.0
C107 C 0.70732 0.63043 0.39462 0.0
O108 O 0.69249 0.65709 0.39985 0.0
N109 N 0.67152 0.57429 0.41676 0.0
C110 C 0.65726 0.55051 0.42513 0.0
C111 C 0.66405 0.54761 0.44095 0.0
C112 C 0.68694 0.58522 0.42759 0.0
N113 N 0.68272 0.56938 0.44248 0.0
C114 C 0.62322 0.58495 0.38818 0.0
C115 C 0.61459 0.65301 0.40868 0.0
C116 C 0.59774 0.6357 0.39946 0.0
C117 C 0.60216 0.60098 0.38919 0.0
C118 C 0.63536 0.63654 0.40712 0.0
N119 N 0.63938 0.60322 0.39698 0.0
H120 H 0.62675 0.55898 0.37996 0.0
H121 H 0.64853 0.65116 0.41369 0.0
H122 H 0.64288 0.5362 0.42006 0.0
H123 H 0.70086 0.60458 0.42482 0.0
O124 O 0.66406 0.52669 0.38938 0.0
O125 O 0.69585 0.55239 0.38955 0.0
O126 O 0.70165 0.59164 0.3915 0.0
C127 C 0.68401 0.51873 0.38791 0.0
H128 H 0.66591 0.66576 0.34007 0.0
H129 H 0.65604 0.53015 0.45052 0.0
H130 H 0.61195 0.68029 0.41652 0.0
H131 H 0.58954 0.58685 0.38186 0.0
Co132 Co 0.66723 0.91881 0.89499 0.0
C133 C 0.66532 0.93289 0.85931 0.0
C134 C 0.66457 0.86654 0.86575 0.0
C135 C 0.66375 0.86979 0.84915 0.0
N136 N 0.66563 0.90605 0.87211 0.0
N137 N 0.66423 0.91156 0.84508 0.0
H138 H 0.66554 0.96729 0.86033 0.0
H139 H 0.66442 0.83733 0.87272 0.0
C140 C 0.70506 0.87596 0.89555 0.0
O141 O 0.68969 0.84865 0.89912 0.0
N142 N 0.66876 0.93127 0.91795 0.0
C143 C 0.65455 0.95519 0.92634 0.0
C144 C 0.66121 0.95753 0.94221 0.0
C145 C 0.68395 0.91955 0.92882 0.0
N146 N 0.67974 0.93521 0.94374 0.0
C147 C 0.62166 0.92365 0.88829 0.0
C148 C 0.61185 0.8539 0.90757 0.0
C149 C 0.5955 0.87244 0.89818 0.0
C150 C 0.60051 0.90804 0.88855 0.0
C151 C 0.63274 0.87009 0.90678 0.0
N152 N 0.63733 0.90419 0.8972 0.0
H153 H 0.62567 0.95022 0.8805 0.0
H154 H 0.64556 0.85461 0.91345 0.0
H155 H 0.6404 0.97024 0.92121 0.0
H156 H 0.69776 0.89993 0.92599 0.0
O157 O 0.66235 0.98051 0.8909 0.0
O158 O 0.69413 0.95477 0.89155 0.0
O159 O 0.69983 0.91543 0.89339 0.0
C160 C 0.68233 0.98854 0.88998 0.0
H161 H 0.66317 0.84327 0.84075 0.0
H162 H 0.65331 0.97522 0.95179 0.0
H163 H 0.60875 0.82594 0.91492 0.0
H164 H 0.5883 0.92315 0.88113 0.0
Co165 Co 0.32843 0.58136 0.89251 0.0
C166 C 0.32974 0.567 0.85679 0.0
C167 C 0.3333 0.63299 0.86332 0.0
C168 C 0.33394 0.62969 0.84671 0.0
N169 N 0.33057 0.59376 0.86963 0.0
N170 N 0.3317 0.58817 0.84261 0.0
H171 H 0.32753 0.53286 0.85771 0.0
H172 H 0.33486 0.66198 0.87035 0.0
C173 C 0.29069 0.62546 0.89208 0.0
O174 O 0.30607 0.65311 0.89525 0.0
N175 N 0.32635 0.56939 0.91545 0.0
C176 C 0.33992 0.54454 0.92403 0.0
C177 C 0.33291 0.54307 0.93984 0.0
C178 C 0.31123 0.58259 0.92613 0.0
N179 N 0.31483 0.5669 0.94113 0.0
C180 C 0.37411 0.57544 0.88619 0.0
C181 C 0.384 0.64428 0.90598 0.0
C182 C 0.40041 0.62562 0.89667 0.0
C183 C 0.39536 0.59051 0.88677 0.0
C184 C 0.36303 0.62871 0.90484 0.0
N185 N 0.3584 0.59502 0.89505 0.0
H186 H 0.37007 0.54923 0.87822 0.0
H187 H 0.35018 0.64437 0.91144 0.0
H188 H 0.35384 0.52828 0.91907 0.0
H189 H 0.29791 0.6033 0.92309 0.0
O190 O 0.33278 0.51932 0.88846 0.0
O191 O 0.30127 0.54646 0.88898 0.0
O192 O 0.29586 0.58574 0.89056 0.0
C193 C 0.3127 0.51218 0.88751 0.0
H194 H 0.33623 0.65583 0.83833 0.0
H195 H 0.34025 0.52492 0.94952 0.0
H196 H 0.38712 0.67193 0.91351 0.0
H197 H 0.40763 0.5754 0.87938 0.0
Co198 Co 0.66664 0.08186 0.63438 0.0
C199 C 0.66451 0.0664 0.66999 0.0
C200 C 0.66138 0.13265 0.66375 0.0
C201 C 0.66064 0.12895 0.68034 0.0
N202 N 0.66389 0.09351 0.65728 0.0
N203 N 0.66263 0.08728 0.68426 0.0
H204 H 0.66665 0.03226 0.66893 0.0
H205 H 0.66018 0.16189 0.65685 0.0
C206 C 0.70438 0.12501 0.63526 0.0
O207 O 0.68914 0.15246 0.63152 0.0
N208 N 0.66931 0.07049 0.6114 0.0
C209 C 0.65525 0.0475 0.60251 0.0
C210 C 0.6625 0.04582 0.58679 0.0
C211 C 0.68504 0.08224 0.60098 0.0
N212 N 0.68125 0.06758 0.58584 0.0
C213 C 0.62074 0.07727 0.63989 0.0
C214 C 0.61199 0.14758 0.6206 0.0
C215 C 0.59518 0.12915 0.62954 0.0
C216 C 0.59965 0.09326 0.63917 0.0
C217 C 0.63277 0.13105 0.62185 0.0
N218 N 0.63685 0.09666 0.63141 0.0
H219 H 0.62434 0.0505 0.64769 0.0
H220 H 0.64592 0.14653 0.61555 0.0
H221 H 0.64077 0.03269 0.6072 0.0
H222 H 0.69892 0.1012 0.60427 0.0
O223 O 0.66173 0.0198 0.63776 0.0
O224 O 0.69343 0.04601 0.63837 0.0
O225 O 0.69914 0.08539 0.63693 0.0
C226 C 0.6817 0.012 0.63917 0.0
H227 H 0.65858 0.15495 0.68884 0.0
H228 H 0.65482 0.02899 0.5769 0.0
H229 H 0.60932 0.17578 0.61327 0.0
H230 H 0.58708 0.07824 0.64627 0.0
Co231 Co 0.3283 0.42279 0.63143 0.0
C232 C 0.33036 0.43624 0.66712 0.0
C233 C 0.33034 0.36994 0.66051 0.0
C234 C 0.33105 0.37296 0.67713 0.0
N235 N 0.32985 0.40956 0.65425 0.0
N236 N 0.33104 0.41471 0.6813 0.0
H237 H 0.33052 0.47065 0.66618 0.0
H238 H 0.3301 0.34082 0.65346 0.0
C239 C 0.29039 0.3791 0.63041 0.0
O240 O 0.30563 0.35203 0.62625 0.0
N241 N 0.32678 0.43575 0.60851 0.0
C242 C 0.34083 0.46033 0.60028 0.0
C243 C 0.33439 0.46239 0.58434 0.0
C244 C 0.3119 0.42338 0.5975 0.0
N245 N 0.31617 0.43924 0.58262 0.0
C246 C 0.37383 0.42835 0.63836 0.0
C247 C 0.38412 0.35945 0.61871 0.0
C248 C 0.40029 0.37777 0.62834 0.0
C249 C 0.39504 0.41296 0.63815 0.0
C250 C 0.36317 0.37536 0.61948 0.0
N251 N 0.35832 0.40903 0.62923 0.0
H252 H 0.36963 0.45459 0.64628 0.0
H253 H 0.35048 0.35993 0.61264 0.0
H254 H 0.35475 0.47588 0.60554 0.0
H255 H 0.2983 0.40306 0.60016 0.0
O256 O 0.33252 0.48472 0.63586 0.0
O257 O 0.30105 0.45755 0.63488 0.0
O258 O 0.29569 0.41834 0.63301 0.0
C259 C 0.31242 0.49178 0.63671 0.0
H260 H 0.33117 0.34634 0.68547 0.0
H261 H 0.34227 0.48035 0.57484 0.0
H262 H 0.3874 0.3318 0.61121 0.0
H263 H 0.40712 0.42788 0.64576 0.0
Co264 Co 0.82941 0.58051 0.63418 0.0
C265 C 0.83099 0.56892 0.67004 0.0
C266 C 0.83883 0.63273 0.66264 0.0
C267 C 0.84003 0.63058 0.67927 0.0
N268 N 0.83319 0.5941 0.65687 0.0
N269 N 0.83507 0.59044 0.68391 0.0
H270 H 0.82683 0.53544 0.66958 0.0
H271 H 0.84186 0.66056 0.65524 0.0
C272 C 0.79292 0.62731 0.63597 0.0
O273 O 0.80865 0.65289 0.63155 0.0
N274 N 0.82569 0.56737 0.61144 0.0
C275 C 0.8387 0.5419 0.60262 0.0
C276 C 0.83103 0.54026 0.587 0.0
C277 C 0.81018 0.58068 0.6011 0.0
N278 N 0.81309 0.56458 0.58606 0.0
C279 C 0.87526 0.57326 0.63933 0.0
C280 C 0.88476 0.64172 0.61931 0.0
C281 C 0.90125 0.624 0.62879 0.0
C282 C 0.89642 0.5888 0.63869 0.0
C283 C 0.86388 0.62567 0.62048 0.0
N284 N 0.85939 0.59244 0.63051 0.0
H285 H 0.87134 0.54746 0.6475 0.0
H286 H 0.85092 0.64109 0.61393 0.0
H287 H 0.85278 0.52555 0.60726 0.0
H288 H 0.79714 0.6019 0.6044 0.0
O289 O 0.8331 0.5185 0.6386 0.0
O290 O 0.80197 0.54735 0.63886 0.0
O291 O 0.79717 0.58718 0.63746 0.0
C292 C 0.81299 0.5125 0.64018 0.0
H293 H 0.84392 0.65677 0.68731 0.0
H294 H 0.83791 0.52186 0.57718 0.0
H295 H 0.88768 0.66936 0.61175 0.0
H296 H 0.90874 0.57429 0.6462 0.0
Co297 Co 0.16577 0.9233 0.63568 0.0
C298 C 0.16418 0.93765 0.67141 0.0
C299 C 0.16215 0.8714 0.6649 0.0
C300 C 0.16138 0.87469 0.68151 0.0
N301 N 0.16397 0.9108 0.65858 0.0
N302 N 0.16265 0.91639 0.68563 0.0
H303 H 0.16507 0.972 0.67043 0.0
H304 H 0.16144 0.84224 0.6579 0.0
C305 C 0.20345 0.87894 0.63541 0.0
O306 O 0.18803 0.85162 0.63197 0.0
N307 N 0.16753 0.93545 0.61271 0.0
C308 C 0.15379 0.9604 0.60433 0.0
C309 C 0.16032 0.96164 0.58841 0.0
C310 C 0.18228 0.92196 0.6018 0.0
N311 N 0.17827 0.93754 0.58683 0.0
C312 C 0.12011 0.92919 0.64233 0.0
C313 C 0.11006 0.86035 0.62258 0.0
C314 C 0.09372 0.87894 0.63197 0.0
C315 C 0.09885 0.91403 0.64186 0.0
C316 C 0.13103 0.876 0.6236 0.0
N317 N 0.13574 0.9097 0.63337 0.0
H318 H 0.12421 0.95542 0.65027 0.0
H319 H 0.14382 0.86039 0.61692 0.0
H320 H 0.14003 0.97678 0.60949 0.0
H321 H 0.1956 0.90103 0.60461 0.0
O322 O 0.16167 0.98544 0.63982 0.0
O323 O 0.19307 0.95783 0.63906 0.0
O324 O 0.19836 0.91856 0.63736 0.0
C325 C 0.18179 0.99227 0.64066 0.0
H326 H 0.16029 0.84821 0.68987 0.0
H327 H 0.1527 0.97968 0.57881 0.0
H328 H 0.10689 0.83272 0.61504 0.0
H329 H 0.08664 0.92911 0.64931 0.0
Co330 Co 0.82713 0.4149 0.89469 0.0
C331 C 0.82769 0.43512 0.8594 0.0
C332 C 0.81547 0.37247 0.86467 0.0
C333 C 0.81456 0.37877 0.84822 0.0
N334 N 0.82361 0.40773 0.87166 0.0
N335 N 0.82215 0.41825 0.84488 0.0
H336 H 0.83409 0.46694 0.86109 0.0
H337 H 0.81043 0.34417 0.87114 0.0
C338 C 0.78896 0.37537 0.90349 0.0
O339 O 0.80416 0.35042 0.9093 0.0
N340 N 0.83038 0.42062 0.91815 0.0
C341 C 0.84576 0.40193 0.9273 0.0
C342 C 0.84028 0.40563 0.94335 0.0
C343 C 0.81567 0.43533 0.92897 0.0
N344 N 0.8212 0.42617 0.94443 0.0
C345 C 0.87359 0.42826 0.89503 0.0
C346 C 0.88207 0.34387 0.88697 0.0
C347 C 0.89938 0.37159 0.88985 0.0
C348 C 0.89505 0.4143 0.89396 0.0
C349 C 0.86104 0.3588 0.88848 0.0
N350 N 0.85708 0.40023 0.89244 0.0
H351 H 0.87025 0.46097 0.89839 0.0
H352 H 0.84769 0.33704 0.88675 0.0
H353 H 0.85943 0.38417 0.92277 0.0
H354 H 0.80038 0.44945 0.92563 0.0
O355 O 0.83124 0.47747 0.89207 0.0
O356 O 0.79991 0.45123 0.89511 0.0
O357 O 0.79458 0.41141 0.89719 0.0
C358 C 0.81127 0.48531 0.89309 0.0
H359 H 0.80886 0.35577 0.83943 0.0
H360 H 0.84927 0.39244 0.9534 0.0
H361 H 0.88476 0.31052 0.88406 0.0
H362 H 0.90809 0.43647 0.89636 0.0
Co363 Co 0.16787 0.08287 0.89711 0.0
C364 C 0.16597 0.06787 0.86141 0.0
C365 C 0.16449 0.13428 0.8678 0.0
C366 C 0.16389 0.13084 0.85119 0.0
N367 N 0.1659 0.09488 0.8742 0.0
N368 N 0.16485 0.08906 0.84718 0.0
H369 H 0.16716 0.03354 0.86241 0.0
H370 H 0.16391 0.16353 0.87476 0.0
C371 C 0.2061 0.1251 0.89704 0.0
O372 O 0.19112 0.15312 0.90078 0.0
N373 N 0.16976 0.0714 0.92012 0.0
C374 C 0.15571 0.04775 0.92873 0.0
C375 C 0.16237 0.04679 0.94463 0.0
C376 C 0.18483 0.0844 0.93087 0.0
N377 N 0.18072 0.06977 0.94596 0.0
C378 C 0.1219 0.0775 0.89175 0.0
C379 C 0.11366 0.15246 0.90856 0.0
C380 C 0.09666 0.13246 0.90028 0.0
C381 C 0.1009 0.09405 0.892 0.0
C382 C 0.13428 0.13488 0.908 0.0
N383 N 0.13813 0.09838 0.89957 0.0
H384 H 0.12531 0.04899 0.88481 0.0
H385 H 0.14755 0.15132 0.9138 0.0
H386 H 0.14162 0.0321 0.92376 0.0
H387 H 0.19844 0.10437 0.92787 0.0
O388 O 0.16289 0.02086 0.89324 0.0
O389 O 0.19465 0.04677 0.89366 0.0
O390 O 0.20046 0.08578 0.89511 0.0
C391 C 0.1829 0.01292 0.89225 0.0
H392 H 0.16259 0.15712 0.84275 0.0
H393 H 0.15454 0.02974 0.95438 0.0
H394 H 0.11136 0.18255 0.9148 0.0
H395 H 0.08824 0.07743 0.88551 0.0
Co396 Co 0.16592 0.42661 0.39242 0.0
C397 C 0.16214 0.4438 0.35698 0.0
C398 C 0.15741 0.37781 0.36299 0.0
C399 C 0.15575 0.3823 0.34647 0.0
N400 N 0.16148 0.41629 0.36957 0.0
N401 N 0.15874 0.42385 0.34266 0.0
H402 H 0.16483 0.47772 0.35823 0.0
H403 H 0.1559 0.34842 0.36976 0.0
C404 C 0.20206 0.37989 0.38948 0.0
O405 O 0.18618 0.35428 0.39359 0.0
N406 N 0.17026 0.43667 0.41533 0.0
C407 C 0.15719 0.46028 0.42482 0.0
C408 C 0.16538 0.4607 0.44028 0.0
C409 C 0.18638 0.4233 0.42513 0.0
N410 N 0.18375 0.43752 0.44047 0.0
C411 C 0.1199 0.43509 0.38841 0.0
C412 C 0.11078 0.36458 0.40749 0.0
C413 C 0.09394 0.38442 0.39901 0.0
C414 C 0.09861 0.42048 0.38952 0.0
C415 C 0.13177 0.37976 0.40584 0.0
N416 N 0.13604 0.4142 0.39634 0.0
H417 H 0.12362 0.46187 0.38065 0.0
H418 H 0.14491 0.36308 0.4117 0.0
H419 H 0.14273 0.47636 0.42072 0.0
H420 H 0.1997 0.40352 0.42123 0.0
O421 O 0.1621 0.4891 0.38958 0.0
O422 O 0.1932 0.46049 0.38774 0.0
O423 O 0.19807 0.42027 0.38863 0.0
C424 C 0.18211 0.49543 0.38757 0.0
H425 H 0.15298 0.35664 0.33795 0.0
H426 H 0.15861 0.47764 0.45051 0.0
H427 H 0.10794 0.33623 0.41469 0.0
H428 H 0.08601 0.43658 0.38278 0.0
Co429 Co 0.8278 0.088 0.39494 0.0
C430 C 0.83113 0.07769 0.35919 0.0
C431 C 0.83059 0.1434 0.36658 0.0
C432 C 0.8315 0.14176 0.34992 0.0
N433 N 0.8303 0.10326 0.37235 0.0
N434 N 0.8318 0.10037 0.34527 0.0
H435 H 0.83138 0.04322 0.35973 0.0
H436 H 0.82988 0.17189 0.37397 0.0
C437 C 0.78959 0.13041 0.3957 0.0
O438 O 0.80435 0.1569 0.40115 0.0
N439 N 0.8253 0.07298 0.41764 0.0
C440 C 0.83926 0.04831 0.42595 0.0
C441 C 0.83216 0.0447 0.44168 0.0
C442 C 0.80981 0.08381 0.42841 0.0
N443 N 0.81361 0.06697 0.4432 0.0
C444 C 0.8736 0.08445 0.38906 0.0
C445 C 0.88252 0.15219 0.40963 0.0
C446 C 0.89916 0.13544 0.40002 0.0
C447 C 0.89461 0.10073 0.38979 0.0
C448 C 0.86178 0.13543 0.40835 0.0
N449 N 0.8576 0.10242 0.39811 0.0
H450 H 0.86994 0.05875 0.38075 0.0
H451 H 0.84872 0.14981 0.41513 0.0
H452 H 0.85359 0.03379 0.42088 0.0
H453 H 0.7961 0.10376 0.42566 0.0
O454 O 0.8328 0.02668 0.38992 0.0
O455 O 0.80105 0.05254 0.39027 0.0
O456 O 0.79531 0.09173 0.39243 0.0
C457 C 0.81285 0.01889 0.3884 0.0
H458 H 0.83141 0.16904 0.3419 0.0
H459 H 0.83983 0.02635 0.45117 0.0
H460 H 0.88525 0.17943 0.41746 0.0
H461 H 0.90705 0.08697 0.38219 0.0
Co462 Co 0.16781 0.59066 0.13215 0.0
C463 C 0.16427 0.57773 0.1678 0.0
C464 C 0.16339 0.64387 0.16103 0.0
C465 C 0.16223 0.64117 0.17765 0.0
N466 N 0.16479 0.60415 0.15488 0.0
N467 N 0.16278 0.59955 0.18189 0.0
H468 H 0.16533 0.54333 0.16704 0.0
H469 H 0.16332 0.67282 0.1539 0.0
C470 C 0.20539 0.63517 0.13271 0.0
O471 O 0.19031 0.66143 0.12762 0.0
N472 N 0.17075 0.57739 0.10934 0.0
C473 C 0.15678 0.55375 0.10063 0.0
C474 C 0.16409 0.55118 0.08493 0.0
C475 C 0.18653 0.58857 0.09886 0.0
N476 N 0.18281 0.57301 0.08384 0.0
C477 C 0.12191 0.58451 0.13747 0.0
C478 C 0.11266 0.65398 0.11788 0.0
C479 C 0.09598 0.63543 0.12694 0.0
C480 C 0.10071 0.59988 0.13669 0.0
C481 C 0.13356 0.63801 0.11918 0.0
N482 N 0.13789 0.6041 0.12893 0.0
H483 H 0.12569 0.55812 0.14542 0.0
H484 H 0.1466 0.65367 0.11282 0.0
H485 H 0.14228 0.53923 0.10539 0.0
H486 H 0.20036 0.60783 0.10201 0.0
O487 O 0.16351 0.52876 0.13651 0.0
O488 O 0.19494 0.55621 0.13651 0.0
O489 O 0.20023 0.59573 0.135 0.0
C490 C 0.18356 0.52188 0.13797 0.0
H491 H 0.1609 0.66781 0.18595 0.0
H492 H 0.15644 0.53384 0.07516 0.0
H493 H 0.1098 0.68192 0.11046 0.0
H494 H 0.08826 0.58472 0.14386 0.0
Co495 Co 0.82946 0.93194 0.13379 0.0
C496 C 0.83139 0.94935 0.16934 0.0
C497 C 0.83664 0.88339 0.16341 0.0
C498 C 0.83737 0.88784 0.17998 0.0
N499 N 0.83281 0.92185 0.15675 0.0
N500 N 0.83405 0.92933 0.18369 0.0
H501 H 0.82811 0.9831 0.16813 0.0
H502 H 0.83875 0.85408 0.15665 0.0
C503 C 0.79167 0.88919 0.13626 0.0
O504 O 0.80683 0.86091 0.1333 0.0
N505 N 0.82614 0.94153 0.11077 0.0
C506 C 0.83955 0.96469 0.10143 0.0
C507 C 0.83178 0.96476 0.08583 0.0
C508 C 0.81032 0.92795 0.10076 0.0
N509 N 0.81337 0.94176 0.08542 0.0
C510 C 0.87544 0.93604 0.13887 0.0
C511 C 0.88375 0.8653 0.11963 0.0
C512 C 0.90069 0.88356 0.1285 0.0
C513 C 0.89644 0.91965 0.1381 0.0
C514 C 0.86303 0.88215 0.12098 0.0
N515 N 0.85916 0.91676 0.13051 0.0
H516 H 0.87201 0.96298 0.14666 0.0
H517 H 0.84976 0.8667 0.11479 0.0
H518 H 0.85392 0.98072 0.10572 0.0
H519 H 0.79692 0.90829 0.1045 0.0
O520 O 0.83456 0.99423 0.13654 0.0
O521 O 0.80284 0.96832 0.13781 0.0
O522 O 0.79701 0.92898 0.13683 0.0
C523 C 0.81464 1.00229 0.13813 0.0
H524 H 0.84034 0.86251 0.1886 0.0
H525 H 0.83886 0.98138 0.07565 0.0
H526 H 0.88628 0.83699 0.11232 0.0
H527 H 0.90914 0.93451 0.14514 0.0
C528 C 0.31955 0.94329 0.13684 0.0
C529 C 0.30657 0.97747 0.14209 0.0
C530 C 0.31199 0.90134 0.13758 0.0
C531 C 0.27816 0.82783 0.15868 0.0
H532 H 0.26947 0.7695 0.11781 0.0
C533 C 0.22393 0.68017 0.15254 0.0
C534 C 0.22542 0.65434 0.13872 0.0
C535 C 0.23838 0.7138 0.15495 0.0
C536 C 0.27233 0.78449 0.12941 0.0
H537 H 0.27572 0.99461 0.15256 0.0
H538 H 0.26267 0.92041 0.15436 0.0
H539 H 0.28475 0.841 0.1181 0.0
H540 H 0.24417 0.64056 0.11732 0.0
H541 H 0.27061 0.69717 0.12208 0.0
H542 H 0.26644 0.77125 0.17016 0.0
C543 C 0.2786 0.92654 0.1495 0.0
C544 C 0.28083 0.82584 0.1295 0.0
C545 C 0.28599 0.96882 0.14841 0.0
C546 C 0.24297 0.65961 0.12823 0.0
C547 C 0.25776 0.69283 0.13079 0.0
C548 C 0.27014 0.78599 0.15865 0.0
C549 C 0.2915 0.89258 0.14394 0.0
C550 C 0.28338 0.84815 0.14409 0.0
C551 C 0.25483 0.72214 0.14362 0.0
C552 C 0.26659 0.76397 0.14398 0.0
H553 H 0.33546 0.94903 0.13185 0.0
H554 H 0.32216 0.87565 0.1332 0.0
H555 H 0.28034 0.84431 0.1701 0.0
H556 H 0.2102 0.67727 0.16059 0.0
H557 H 0.23526 0.73537 0.16491 0.0
C558 C 0.71439 0.55452 0.13833 0.0
C559 C 0.69245 0.54597 0.14102 0.0
C560 C 0.72207 0.5966 0.13894 0.0
C561 C 0.72889 0.6895 0.12909 0.0
H562 H 0.71252 0.76954 0.16282 0.0
C563 C 0.75787 0.86087 0.12505 0.0
C564 C 0.76973 0.87313 0.13873 0.0
C565 C 0.74328 0.82688 0.12594 0.0
C566 C 0.7171 0.74761 0.15327 0.0
H567 H 0.66152 0.57426 0.1471 0.0
H568 H 0.67496 0.64739 0.14831 0.0
H569 H 0.69952 0.69566 0.16388 0.0
H570 H 0.77435 0.86252 0.16433 0.0
H571 H 0.74856 0.80382 0.16607 0.0
H572 H 0.74678 0.7408 0.1186 0.0
C573 C 0.68623 0.62182 0.14571 0.0
C574 C 0.70965 0.70537 0.15386 0.0
C575 C 0.67853 0.57993 0.14494 0.0
C576 C 0.76494 0.85435 0.15371 0.0
C577 C 0.75032 0.82037 0.15464 0.0
C578 C 0.73614 0.73169 0.12841 0.0
C579 C 0.70799 0.63076 0.14241 0.0
C580 C 0.7157 0.67573 0.14187 0.0
C581 C 0.74044 0.80449 0.14055 0.0
C582 C 0.73049 0.76122 0.14054 0.0
H583 H 0.72544 0.52894 0.13527 0.0
H584 H 0.739 0.60248 0.13653 0.0
H585 H 0.73358 0.66763 0.11955 0.0
H586 H 0.76163 0.87427 0.1133 0.0
H587 H 0.7356 0.81587 0.11493 0.0
C588 C 0.28571 0.04559 0.3825 0.0
C589 C 0.30558 0.03855 0.39023 0.0
C590 C 0.27791 0.08737 0.38046 0.0
C591 C 0.27836 0.19186 0.39888 0.0
H592 H 0.26434 0.23777 0.35664 0.0
C593 C 0.23988 0.35759 0.39479 0.0
C594 C 0.22228 0.35988 0.38419 0.0
C595 C 0.25485 0.32411 0.39337 0.0
C596 C 0.26794 0.22548 0.36858 0.0
H597 H 0.33267 0.06931 0.4021 0.0
H598 H 0.31866 0.14174 0.39907 0.0
H599 H 0.27854 0.16522 0.35893 0.0
H600 H 0.20722 0.33155 0.36318 0.0
H601 H 0.23268 0.27335 0.36079 0.0
H602 H 0.26667 0.25037 0.40879 0.0
C603 C 0.30933 0.11523 0.39435 0.0
C604 C 0.27612 0.18388 0.36983 0.0
C605 C 0.31733 0.07379 0.39604 0.0
C606 C 0.22097 0.33087 0.3713 0.0
C607 C 0.23564 0.29721 0.37 0.0
C608 C 0.26973 0.23303 0.39769 0.0
C609 C 0.28963 0.12247 0.38649 0.0
C610 C 0.2812 0.16661 0.38501 0.0
C611 C 0.25212 0.2919 0.38155 0.0
C612 C 0.26412 0.25039 0.38253 0.0
H613 H 0.2764 0.01896 0.37787 0.0
H614 H 0.26259 0.09226 0.37443 0.0
H615 H 0.28217 0.17918 0.41074 0.0
H616 H 0.24095 0.37914 0.40502 0.0
H617 H 0.26769 0.32199 0.40222 0.0
C618 C 0.76442 0.16113 0.37577 0.0
C619 C 0.7684 0.14839 0.39176 0.0
C620 C 0.75036 0.19518 0.3726 0.0
C621 C 0.74026 0.29037 0.37334 0.0
H622 H 0.68915 0.32103 0.39778 0.0
C623 C 0.71438 0.46581 0.38513 0.0
C624 C 0.6922 0.47496 0.38509 0.0
C625 C 0.7216 0.42351 0.38361 0.0
C626 C 0.70327 0.3129 0.39069 0.0
H627 H 0.75973 0.15839 0.4168 0.0
H628 H 0.7347 0.21661 0.41134 0.0
H629 H 0.70256 0.24779 0.39867 0.0
H630 H 0.66022 0.44731 0.38285 0.0
H631 H 0.67278 0.37401 0.38011 0.0
H632 H 0.74122 0.3557 0.36562 0.0
C633 C 0.74226 0.20064 0.40118 0.0
C634 C 0.71101 0.27093 0.39128 0.0
C635 C 0.75645 0.16697 0.40433 0.0
C636 C 0.67744 0.44127 0.38305 0.0
C637 C 0.68462 0.39917 0.38156 0.0
C638 C 0.73258 0.33241 0.37282 0.0
C639 C 0.74003 0.21678 0.38539 0.0
C640 C 0.7298 0.2593 0.38283 0.0
C641 C 0.70676 0.38962 0.38206 0.0
C642 C 0.71419 0.34435 0.38169 0.0
H643 H 0.77392 0.14801 0.36593 0.0
H644 H 0.74876 0.20653 0.36028 0.0
H645 H 0.75496 0.28273 0.36687 0.0
H646 H 0.7261 0.49114 0.38671 0.0
H647 H 0.73878 0.41722 0.38418 0.0
C648 C 0.71272 0.04161 0.88787 0.0
C649 C 0.69053 0.03257 0.88805 0.0
C650 C 0.71992 0.08406 0.88724 0.0
C651 C 0.70248 0.19221 0.89831 0.0
H652 H 0.75132 0.22878 0.8725 0.0
C653 C 0.76058 0.34892 0.88492 0.0
C654 C 0.76767 0.35609 0.90081 0.0
C655 C 0.74624 0.31542 0.8816 0.0
C656 C 0.7374 0.21928 0.87957 0.0
H657 H 0.6585 0.06065 0.88714 0.0
H658 H 0.67104 0.13421 0.88611 0.0
H659 H 0.73762 0.15589 0.86967 0.0
H660 H 0.76388 0.33741 0.92583 0.0
H661 H 0.73815 0.28045 0.92021 0.0
H662 H 0.70274 0.2551 0.90862 0.0
C663 C 0.68289 0.10877 0.8866 0.0
C664 C 0.72977 0.17738 0.87811 0.0
C665 C 0.67573 0.06656 0.88712 0.0
C666 C 0.75834 0.33284 0.91351 0.0
C667 C 0.74372 0.30002 0.91025 0.0
C668 C 0.71025 0.23393 0.89991 0.0
C669 C 0.70503 0.1181 0.88688 0.0
C670 C 0.71242 0.16322 0.88763 0.0
C671 C 0.73852 0.28936 0.8942 0.0
C672 C 0.728 0.24773 0.89072 0.0
H673 H 0.72446 0.01602 0.88858 0.0
H674 H 0.73711 0.09031 0.88758 0.0
H675 H 0.68916 0.18217 0.9059 0.0
H676 H 0.76786 0.36598 0.87491 0.0
H677 H 0.74232 0.30812 0.86913 0.0
C678 C 0.28196 0.46018 0.88853 0.0
C679 C 0.30387 0.46863 0.88572 0.0
C680 C 0.27437 0.41803 0.88853 0.0
C681 C 0.26773 0.32663 0.89996 0.0
H682 H 0.28475 0.24209 0.86803 0.0
C683 C 0.23948 0.1562 0.90776 0.0
C684 C 0.22795 0.14123 0.89431 0.0
C685 C 0.25398 0.1901 0.9061 0.0
C686 C 0.27998 0.2653 0.87707 0.0
H687 H 0.33486 0.44004 0.88002 0.0
H688 H 0.32161 0.36673 0.87993 0.0
H689 H 0.29739 0.31596 0.86546 0.0
H690 H 0.22378 0.14684 0.86845 0.0
H691 H 0.24928 0.20573 0.86542 0.0
H692 H 0.24998 0.27669 0.91142 0.0
C693 C 0.31027 0.39244 0.88213 0.0
C694 C 0.28723 0.30754 0.87562 0.0
C695 C 0.31787 0.43444 0.88226 0.0
C696 C 0.23296 0.15716 0.87891 0.0
C697 C 0.2474 0.19124 0.87723 0.0
C698 C 0.26065 0.28451 0.90148 0.0
C699 C 0.28854 0.38366 0.88559 0.0
C700 C 0.28097 0.33875 0.88697 0.0
C701 C 0.25694 0.20988 0.89099 0.0
C702 C 0.26657 0.25334 0.89002 0.0
H703 H 0.27084 0.48594 0.89122 0.0
H704 H 0.25746 0.41227 0.89104 0.0
H705 H 0.26288 0.34973 0.90902 0.0
H706 H 0.23553 0.14495 0.9198 0.0
H707 H 0.26143 0.20319 0.91688 0.0
C708 C 0.71063 0.95994 0.64734 0.0
C709 C 0.69005 0.96808 0.64093 0.0
C710 C 0.71802 0.91778 0.64893 0.0
C711 C 0.71527 0.81468 0.63042 0.0
H712 H 0.73158 0.76608 0.67176 0.0
C713 C 0.75485 0.64976 0.63175 0.0
C714 C 0.77299 0.64728 0.64182 0.0
C715 C 0.73973 0.68265 0.63392 0.0
C716 C 0.72731 0.77913 0.66006 0.0
H717 H 0.66118 0.9389 0.631 0.0
H718 H 0.67447 0.86563 0.63321 0.0
H719 H 0.71725 0.83873 0.67057 0.0
H720 H 0.78896 0.67463 0.66263 0.0
H721 H 0.76326 0.73195 0.66631 0.0
H722 H 0.72653 0.75697 0.61961 0.0
C723 C 0.68466 0.89165 0.63727 0.0
C724 C 0.71905 0.82074 0.65945 0.0
C725 C 0.67709 0.93353 0.63605 0.0
C726 C 0.7748 0.67551 0.65492 0.0
C727 C 0.75998 0.70861 0.65697 0.0
C728 C 0.72401 0.77353 0.63095 0.0
C729 C 0.70513 0.88339 0.64376 0.0
C730 C 0.71322 0.83897 0.6446 0.0
C731 C 0.74284 0.71411 0.64597 0.0
C732 C 0.7305 0.75527 0.64576 0.0
H733 H 0.72089 0.98604 0.65121 0.0
H734 H 0.73395 0.91204 0.65388 0.0
H735 H 0.71085 0.8282 0.61881 0.0
H736 H 0.75338 0.62875 0.62138 0.0
H737 H 0.72641 0.68495 0.62549 0.0
C738 C 0.23631 0.84899 0.62327 0.0
C739 C 0.22533 0.86197 0.63726 0.0
C740 C 0.25094 0.81502 0.6239 0.0
C741 C 0.27865 0.73683 0.65089 0.0
H742 H 0.26121 0.6561 0.61771 0.0
C743 C 0.28151 0.54357 0.63627 0.0
C744 C 0.30349 0.53518 0.63884 0.0
C745 C 0.27374 0.58558 0.63684 0.0
C746 C 0.26618 0.67817 0.6271 0.0
H747 H 0.22218 0.8525 0.66305 0.0
H748 H 0.24795 0.7936 0.66429 0.0
H749 H 0.24763 0.72897 0.61692 0.0
H750 H 0.33444 0.56377 0.64459 0.0
H751 H 0.32088 0.63684 0.64567 0.0
H752 H 0.29683 0.68531 0.66124 0.0
C753 C 0.24554 0.80969 0.65283 0.0
C754 C 0.2587 0.72021 0.6265 0.0
C755 C 0.23093 0.84377 0.65218 0.0
C756 C 0.3174 0.5693 0.64253 0.0
C757 C 0.30963 0.61116 0.64323 0.0
C758 C 0.28629 0.69471 0.65142 0.0
C759 C 0.25462 0.79322 0.63852 0.0
C760 C 0.26469 0.75003 0.63844 0.0
C761 C 0.28779 0.6199 0.64012 0.0
C762 C 0.27992 0.66479 0.63962 0.0
H763 H 0.23189 0.86198 0.61158 0.0
H764 H 0.25802 0.80361 0.61271 0.0
H765 H 0.28352 0.75898 0.66028 0.0
H766 H 0.27044 0.51786 0.63341 0.0
H767 H 0.25675 0.59127 0.63459 0.0
C768 C 0.81739 0.435 0.64624 0.0
C769 C 0.8037 0.46951 0.64258 0.0
C770 C 0.80934 0.39336 0.64694 0.0
C771 C 0.78555 0.31001 0.65471 0.0
H772 H 0.74769 0.27721 0.61949 0.0
C773 C 0.73093 0.15948 0.65307 0.0
C774 C 0.72612 0.142 0.63785 0.0
C775 C 0.74518 0.19402 0.65439 0.0
C776 C 0.75851 0.2856 0.62929 0.0
H777 H 0.77074 0.48776 0.63729 0.0
H778 H 0.75658 0.41468 0.63842 0.0
H779 H 0.76105 0.35017 0.62104 0.0
H780 H 0.73379 0.14383 0.61235 0.0
H781 H 0.75928 0.203 0.61467 0.0
H782 H 0.78275 0.24524 0.663 0.0
C783 C 0.77359 0.41993 0.64068 0.0
C784 C 0.76586 0.32767 0.63032 0.0
C785 C 0.78163 0.46175 0.64014 0.0
C786 C 0.7376 0.1562 0.62427 0.0
C787 C 0.75186 0.19064 0.62557 0.0
C788 C 0.778 0.26786 0.65376 0.0
C789 C 0.78744 0.3852 0.64384 0.0
C790 C 0.77938 0.34047 0.64306 0.0
C791 C 0.7547 0.21168 0.64047 0.0
C792 C 0.76439 0.25517 0.64101 0.0
H793 H 0.83449 0.44004 0.64821 0.0
H794 H 0.82045 0.36736 0.6493 0.0
H795 H 0.79592 0.31896 0.6647 0.0
H796 H 0.72178 0.14984 0.66363 0.0
H797 H 0.74697 0.20949 0.66604 0.0
C798 C 0.25758 0.34599 0.61949 0.0
C799 C 0.2687 0.36188 0.63298 0.0
C800 C 0.24313 0.31205 0.6212 0.0
C801 C 0.21621 0.23861 0.6504 0.0
H802 H 0.23332 0.15264 0.61905 0.0
C803 C 0.21289 0.04344 0.63969 0.0
C804 C 0.19088 0.03567 0.64234 0.0
C805 C 0.2208 0.08534 0.63961 0.0
C806 C 0.22846 0.17617 0.62796 0.0
H807 H 0.27229 0.3576 0.65894 0.0
H808 H 0.24688 0.2985 0.66204 0.0
H809 H 0.24685 0.22518 0.61649 0.0
H810 H 0.16003 0.06531 0.64768 0.0
H811 H 0.17384 0.13825 0.64762 0.0
H812 H 0.19814 0.18887 0.66203 0.0
C813 C 0.24902 0.31239 0.65015 0.0
C814 C 0.23591 0.21801 0.62634 0.0
C815 C 0.26342 0.34658 0.64843 0.0
C816 C 0.17709 0.07036 0.64556 0.0
C817 C 0.18501 0.11215 0.6456 0.0
C818 C 0.20859 0.19664 0.65196 0.0
C819 C 0.23981 0.29304 0.63641 0.0
C820 C 0.22998 0.24976 0.63756 0.0
C821 C 0.20687 0.12021 0.6423 0.0
C822 C 0.21483 0.16487 0.64083 0.0
H823 H 0.26175 0.35677 0.60743 0.0
H824 H 0.23592 0.29843 0.61042 0.0
H825 H 0.2114 0.26227 0.65927 0.0
H826 H 0.22386 0.01729 0.63719 0.0
H827 H 0.2378 0.09051 0.63724 0.0
C828 C 0.78097 0.53829 0.89594 0.0
C829 C 0.80264 0.52929 0.89235 0.0
C830 C 0.7735 0.58059 0.89586 0.0
C831 C 0.76654 0.67409 0.90503 0.0
H832 H 0.78377 0.75275 0.87115 0.0
C833 C 0.73779 0.84616 0.90785 0.0
C834 C 0.72695 0.85898 0.89378 0.0
C835 C 0.75207 0.81157 0.90743 0.0
C836 C 0.77891 0.73123 0.88073 0.0
H837 H 0.83338 0.55724 0.88557 0.0
H838 H 0.8204 0.63061 0.88544 0.0
H839 H 0.79645 0.67876 0.87047 0.0
H840 H 0.72377 0.84852 0.86805 0.0
H841 H 0.74894 0.78861 0.86716 0.0
H842 H 0.74853 0.72592 0.91508 0.0
C843 C 0.80911 0.60526 0.88823 0.0
C844 C 0.78622 0.68889 0.88038 0.0
C845 C 0.81657 0.56317 0.88841 0.0
C846 C 0.73244 0.83996 0.87897 0.0
C847 C 0.74668 0.80525 0.87853 0.0
C848 C 0.75934 0.71639 0.90543 0.0
C849 C 0.78754 0.61458 0.89208 0.0
C850 C 0.77994 0.65971 0.89245 0.0
C851 C 0.75555 0.78898 0.89294 0.0
C852 C 0.76529 0.74546 0.89324 0.0
H853 H 0.7699 0.51278 0.89901 0.0
H854 H 0.75672 0.5867 0.89871 0.0
H855 H 0.76163 0.65265 0.91463 0.0
H856 H 0.73346 0.85976 0.91947 0.0
H857 H 0.75901 0.80039 0.91869 0.0
C858 C 0.17712 0.9354 0.88678 0.0
C859 C 0.19138 0.96913 0.89025 0.0
C860 C 0.18456 0.89329 0.88605 0.0
C861 C 0.20744 0.80941 0.87737 0.0
H862 H 0.24627 0.77366 0.91156 0.0
C863 C 0.26312 0.66105 0.87556 0.0
C864 C 0.26873 0.64204 0.89033 0.0
C865 C 0.24837 0.69491 0.87515 0.0
C866 C 0.23515 0.78284 0.90206 0.0
H867 H 0.22466 0.98548 0.8953 0.0
H868 H 0.23774 0.91166 0.8941 0.0
H869 H 0.23286 0.84671 0.91115 0.0
H870 H 0.26204 0.64041 0.91599 0.0
H871 H 0.23573 0.69852 0.91528 0.0
H872 H 0.21007 0.74544 0.86817 0.0
C873 C 0.22076 0.91784 0.89203 0.0
C874 C 0.22776 0.82496 0.90169 0.0
C875 C 0.21333 0.96009 0.89261 0.0
C876 C 0.25761 0.654 0.9044 0.0
C877 C 0.24287 0.68781 0.90402 0.0
C878 C 0.21501 0.76722 0.87766 0.0
C879 C 0.2064 0.88394 0.88892 0.0
C880 C 0.21399 0.83888 0.88927 0.0
C881 C 0.23917 0.7104 0.88957 0.0
C882 C 0.22904 0.75351 0.88998 0.0
H883 H 0.16009 0.94144 0.88488 0.0
H884 H 0.17309 0.86792 0.88374 0.0
H885 H 0.19687 0.81925 0.86763 0.0
H886 H 0.27197 0.65311 0.86464 0.0
H887 H 0.24595 0.71164 0.86383 0.0
C888 C 0.21162 0.54621 0.37924 0.0
C889 C 0.19113 0.5389 0.38594 0.0
C890 C 0.21958 0.58805 0.37785 0.0
C891 C 0.21764 0.69128 0.39711 0.0
H892 H 0.23566 0.73974 0.35617 0.0
C893 C 0.25709 0.85651 0.39657 0.0
C894 C 0.27561 0.8591 0.3869 0.0
C895 C 0.24218 0.82337 0.39412 0.0
C896 C 0.23092 0.72672 0.36776 0.0
H897 H 0.16301 0.56928 0.39658 0.0
H898 H 0.17724 0.64176 0.39468 0.0
H899 H 0.22101 0.66733 0.357 0.0
H900 H 0.29242 0.83173 0.36646 0.0
H901 H 0.26707 0.7741 0.36231 0.0
H902 H 0.22862 0.74886 0.40818 0.0
C903 C 0.18696 0.61543 0.39026 0.0
C904 C 0.2225 0.68521 0.36818 0.0
C905 C 0.17885 0.57395 0.39131 0.0
C906 C 0.27799 0.83075 0.37388 0.0
C907 C 0.26336 0.79746 0.37155 0.0
C908 C 0.22651 0.73233 0.39678 0.0
C909 C 0.20736 0.62292 0.3835 0.0
C910 C 0.21598 0.66703 0.38288 0.0
C911 C 0.24584 0.79183 0.38218 0.0
C912 C 0.23358 0.75058 0.38212 0.0
H913 H 0.22137 0.51975 0.37499 0.0
H914 H 0.23543 0.59313 0.37267 0.0
H915 H 0.21272 0.67786 0.40862 0.0
H916 H 0.25515 0.87758 0.40688 0.0
H917 H 0.22856 0.82098 0.40227 0.0
C918 C 0.81935 0.94157 0.38314 0.0
C919 C 0.80462 0.97525 0.38537 0.0
C920 C 0.81215 0.89954 0.38151 0.0
C921 C 0.76415 0.8331 0.37266 0.0
H922 H 0.79429 0.74773 0.3981 0.0
C923 C 0.74051 0.66646 0.40341 0.0
C924 C 0.72855 0.64831 0.39075 0.0
C925 C 0.75466 0.7003 0.40042 0.0
C926 C 0.78581 0.77108 0.39083 0.0
H927 H 0.77073 0.99149 0.38716 0.0
H928 H 0.75802 0.91767 0.38438 0.0
H929 H 0.80767 0.821 0.39748 0.0
H930 H 0.72299 0.64889 0.36493 0.0
H931 H 0.74807 0.70766 0.35956 0.0
H932 H 0.74177 0.78358 0.36655 0.0
C933 C 0.77519 0.92392 0.38378 0.0
C934 C 0.79353 0.81307 0.39039 0.0
C935 C 0.78243 0.96617 0.38544 0.0
C936 C 0.7325 0.66165 0.37483 0.0
C937 C 0.74651 0.69586 0.37182 0.0
C938 C 0.75649 0.79104 0.37302 0.0
C939 C 0.79001 0.89003 0.38205 0.0
C940 C 0.78257 0.84478 0.38154 0.0
C941 C 0.75683 0.71703 0.38472 0.0
C942 C 0.767 0.75969 0.38235 0.0
H943 H 0.83657 0.94756 0.38292 0.0
H944 H 0.82398 0.87438 0.37993 0.0
H945 H 0.75547 0.8566 0.36558 0.0
H946 H 0.73725 0.65744 0.41583 0.0
H947 H 0.76221 0.71593 0.41065 0.0
C948 C 0.26528 0.17166 0.1561 0.0
C949 C 0.27029 0.15148 0.1414 0.0
C950 C 0.25058 0.2056 0.1565 0.0
C951 C 0.2364 0.29191 0.12923 0.0
H952 H 0.19916 0.33006 0.16406 0.0
C953 C 0.17842 0.44471 0.14432 0.0
C954 C 0.19242 0.4785 0.14039 0.0
C955 C 0.18608 0.4028 0.14527 0.0
C956 C 0.20945 0.31976 0.15421 0.0
H957 H 0.26253 0.14797 0.11594 0.0
H958 H 0.23641 0.20646 0.11665 0.0
H959 H 0.2124 0.25628 0.16379 0.0
H960 H 0.22548 0.49515 0.13475 0.0
H961 H 0.23895 0.42158 0.13632 0.0
H962 H 0.2338 0.35534 0.11977 0.0
C963 C 0.24396 0.19648 0.12785 0.0
C964 C 0.21704 0.27756 0.15407 0.0
C965 C 0.25861 0.16244 0.12748 0.0
C966 C 0.21436 0.46972 0.13782 0.0
C967 C 0.222 0.42761 0.1386 0.0
C968 C 0.22902 0.33408 0.12946 0.0
C969 C 0.24085 0.22012 0.14215 0.0
C970 C 0.23069 0.26321 0.1416 0.0
C971 C 0.20787 0.39363 0.14215 0.0
C972 C 0.21561 0.34863 0.142 0.0
H973 H 0.27455 0.16451 0.16689 0.0
H974 H 0.24861 0.22313 0.16771 0.0
H975 H 0.24722 0.28221 0.11961 0.0
H976 H 0.1614 0.45055 0.14638 0.0
H977 H 0.17477 0.37737 0.14793 0.0
C978 C 0.72318 0.34205 0.15272 0.0
C979 C 0.72476 0.36916 0.13929 0.0
C980 C 0.73775 0.30848 0.15479 0.0
C981 C 0.77234 0.24044 0.12868 0.0
H982 H 0.78006 0.17772 0.16872 0.0
C983 C 0.81922 0.08058 0.13435 0.0
C984 C 0.80638 0.04636 0.13968 0.0
C985 C 0.81171 0.12256 0.13537 0.0
C986 C 0.77798 0.19502 0.15747 0.0
H987 H 0.74371 0.38512 0.11822 0.0
H988 H 0.77032 0.32841 0.12239 0.0
H989 H 0.766 0.25063 0.16952 0.0
H990 H 0.77582 0.02913 0.15057 0.0
H991 H 0.76287 0.10331 0.15287 0.0
H992 H 0.78499 0.18484 0.1168 0.0
C993 C 0.75735 0.33182 0.13107 0.0
C994 C 0.76986 0.23677 0.15787 0.0
C995 C 0.74245 0.36507 0.12886 0.0
C996 C 0.78598 0.05496 0.14634 0.0
C997 C 0.77866 0.09723 0.14772 0.0
C998 C 0.78094 0.19915 0.12835 0.0
C999 C 0.7544 0.30141 0.14349 0.0
C1000 C 0.76638 0.2598 0.14343 0.0
C1001 C 0.79142 0.13127 0.1421 0.0
C1002 C 0.78337 0.17577 0.14269 0.0
H1003 H 0.70933 0.34406 0.1607 0.0
H1004 H 0.7346 0.286 0.16443 0.0
H1005 H 0.76956 0.25627 0.11724 0.0
H1006 H 0.83499 0.07486 0.12911 0.0
H1007 H 0.8218 0.1483 0.13095 0.0
C1008 C 0.2771 0.08976 0.07607 0.0
C1009 C 0.2996 0.0862 0.0742 0.0
C1010 C 0.26358 0.09207 0.0625 0.0
C1011 C 0.26312 0.11627 0.01859 0.0
H1012 H 0.21291 0.04247 0.01767 0.0
C1013 C 0.21592 0.08202 0.95947 0.0
C1014 C 0.19346 0.07615 0.96041 0.0
C1015 C 0.22834 0.0863 0.97355 0.0
C1016 C 0.22664 0.06386 0.01777 0.0
H1017 H 0.32552 0.08415 0.05662 0.0
H1018 H 0.30202 0.08816 0.03301 0.0
H1019 H 0.23517 0.04571 0.04193 0.0
H1020 H 0.16637 0.07189 0.97691 0.0
H1021 H 0.18786 0.08008 1.0014 0.0
H1022 H 0.25462 0.13456 0.99447 0.0
C1023 C 0.29479 0.08907 0.04494 0.0
C1024 C 0.23943 0.06565 0.03172 0.0
C1025 C 0.30826 0.08634 0.05848 0.0
C1026 C 0.18367 0.07559 0.97576 0.0
C1027 C 0.19605 0.0802 0.98982 0.0
C1028 C 0.25024 0.11473 1.00468 0.0
C1029 C 0.27226 0.0914 0.04676 0.0
C1030 C 0.25795 0.09155 0.03225 0.0
C1031 C 0.2186 0.08518 0.98894 0.0
C1032 C 0.23192 0.08819 1.004 0.0
H1033 H 0.2699 0.08949 0.088 0.0
H1034 H 0.2463 0.09423 0.06432 0.0
H1035 H 0.27712 0.13699 0.01868 0.0
H1036 H 0.22402 0.0821 0.94787 0.0
H1037 H 0.24567 0.08941 0.97234 0.0
C1038 C 0.79221 0.46319 0.95979 0.0
C1039 C 0.808 0.43097 0.95877 0.0
C1040 C 0.77902 0.46677 0.97353 0.0
C1041 C 0.75856 0.40372 1.00824 0.0
H1042 H 0.74527 0.51439 0.02681 0.0
C1043 C 0.71398 0.42048 0.06955 0.0
C1044 C 0.69849 0.45318 0.07097 0.0
C1045 C 0.72755 0.41824 0.056 0.0
C1046 C 0.74859 0.48322 0.02169 0.0
H1047 H 0.82199 0.37696 0.97148 0.0
H1048 H 0.79938 0.38364 0.99534 0.0
H1049 H 0.7681 0.50996 1.00282 0.0
H1050 H 0.68567 0.50976 0.0592 0.0
H1051 H 0.70879 0.50517 0.03556 0.0
H1052 H 0.73896 0.37692 0.02698 0.0
C1053 C 0.79707 0.40603 0.98551 0.0
C1054 C 0.76171 0.48072 1.00791 0.0
C1055 C 0.81027 0.40257 0.97186 0.0
C1056 C 0.69712 0.48373 0.05852 0.0
C1057 C 0.71064 0.48145 0.04499 0.0
C1058 C 0.74539 0.40622 0.02197 0.0
C1059 C 0.78119 0.43801 0.98652 0.0
C1060 C 0.76692 0.44092 1.00103 0.0
C1061 C 0.72603 0.44864 0.0435 0.0
C1062 C 0.74024 0.446 0.02891 0.0
H1063 H 0.79009 0.48574 0.95 0.0
H1064 H 0.76686 0.49162 0.97385 0.0
H1065 H 0.76194 0.37257 1.00312 0.0
H1066 H 0.71548 0.39619 0.07878 0.0
H1067 H 0.73938 0.3928 0.0554 0.0
C1068 C 0.30568 0.92737 0.4746 0.0
C1069 C 0.29731 0.92868 0.45879 0.0
C1070 C 0.29199 0.92307 0.48794 0.0
C1071 C 0.2365 0.94482 0.50097 0.0
H1072 H 0.25146 0.87316 0.53753 0.0
C1073 C 0.18094 0.93298 0.55699 0.0
C1074 C 0.19082 0.93124 0.57229 0.0
C1075 C 0.19317 0.92869 0.54284 0.0
C1076 C 0.24713 0.89373 0.52752 0.0
H1077 H 0.26795 0.92571 0.44461 0.0
H1078 H 0.24389 0.91839 0.468 0.0
H1079 H 0.27402 0.87227 0.51335 0.0
H1080 H 0.2214 0.92347 0.58466 0.0
H1081 H 0.24282 0.9168 0.56006 0.0
H1082 H 0.21003 0.96735 0.51522 0.0
C1083 C 0.26113 0.92078 0.47002 0.0
C1084 C 0.26004 0.89305 0.51362 0.0
C1085 C 0.27489 0.92459 0.45662 0.0
C1086 C 0.21323 0.92447 0.57309 0.0
C1087 C 0.22551 0.92054 0.55894 0.0
C1088 C 0.22369 0.94578 0.51491 0.0
C1089 C 0.26952 0.92034 0.48585 0.0
C1090 C 0.25499 0.91884 0.50022 0.0
C1091 C 0.21568 0.92291 0.54359 0.0
C1092 C 0.2289 0.9205 0.52846 0.0
H1093 H 0.32288 0.92996 0.47666 0.0
H1094 H 0.29899 0.92317 0.49995 0.0
H1095 H 0.23233 0.96553 0.49095 0.0
H1096 H 0.16367 0.93741 0.55594 0.0
H1097 H 0.1849 0.92977 0.53131 0.0
C1098 C 0.80879 0.56922 0.55635 0.0
C1099 C 0.79971 0.57075 0.57193 0.0
C1100 C 0.7958 0.57308 0.54259 0.0
C1101 C 0.74026 0.55604 0.52853 0.0
H1102 H 0.75808 0.62383 0.49164 0.0
C1103 C 0.68563 0.57362 0.4723 0.0
C1104 C 0.69553 0.5739 0.457 0.0
C1105 C 0.69799 0.57635 0.48643 0.0
C1106 C 0.75296 0.6043 0.50173 0.0
H1107 H 0.7698 0.57799 0.58524 0.0
H1108 H 0.74702 0.58459 0.56117 0.0
H1109 H 0.78018 0.6232 0.51608 0.0
H1110 H 0.72625 0.57743 0.44457 0.0
H1111 H 0.74792 0.58129 0.46918 0.0
H1112 H 0.71339 0.53611 0.51416 0.0
C1113 C 0.76425 0.58033 0.55963 0.0
C1114 C 0.76561 0.6041 0.51578 0.0
C1115 C 0.77731 0.57693 0.57343 0.0
C1116 C 0.71811 0.57758 0.45616 0.0
C1117 C 0.73053 0.5799 0.47031 0.0
C1118 C 0.7277 0.55592 0.51445 0.0
C1119 C 0.77334 0.57818 0.54404 0.0
C1120 C 0.75945 0.57986 0.52933 0.0
C1121 C 0.72065 0.57902 0.48567 0.0
C1122 C 0.73389 0.57995 0.50081 0.0
H1123 H 0.826 0.56498 0.55478 0.0
H1124 H 0.8033 0.57098 0.53077 0.0
H1125 H 0.73522 0.5365 0.53866 0.0
H1126 H 0.66824 0.5716 0.47336 0.0
H1127 H 0.68971 0.57657 0.49796 0.0
C1128 C 0.7152 0.9258 0.95717 0.0
C1129 C 0.69268 0.93067 0.95818 0.0
C1130 C 0.7278 0.9234 0.97121 0.0
C1131 C 0.72622 0.9499 0.0151 0.0
H1132 H 0.77763 0.87932 0.01665 0.0
C1133 C 0.77709 0.93062 0.07348 0.0
C1134 C 0.79954 0.93514 0.07158 0.0
C1135 C 0.76361 0.92683 0.05994 0.0
C1136 C 0.76337 0.89935 0.01637 0.0
H1137 H 0.6657 0.93513 0.97477 0.0
H1138 H 0.68752 0.93017 0.99921 0.0
H1139 H 0.7549 0.8784 0.99254 0.0
H1140 H 0.82544 0.93753 0.05399 0.0
H1141 H 0.80198 0.93093 0.03041 0.0
H1142 H 0.7347 0.97064 0.03898 0.0
C1143 C 0.69559 0.92939 0.9876 0.0
C1144 C 0.75035 0.89896 1.00252 0.0
C1145 C 0.68303 0.93214 0.97357 0.0
C1146 C 0.80822 0.93461 0.05586 0.0
C1147 C 0.79478 0.9304 0.04235 0.0
C1148 C 0.73915 0.95001 0.02899 0.0
C1149 C 0.71819 0.92545 0.98664 0.0
C1150 C 0.73168 0.92452 1.00163 0.0
C1151 C 0.7723 0.92698 0.04421 0.0
C1152 C 0.75797 0.92503 0.02974 0.0
H1153 H 0.72318 0.92509 0.94553 0.0
H1154 H 0.74515 0.92104 0.96993 0.0
H1155 H 0.71222 0.9706 0.01481 0.0
H1156 H 0.76988 0.93117 0.0854 0.0
H1157 H 0.74637 0.92387 0.06178 0.0
C1158 C 0.21868 0.58034 0.07085 0.0
C1159 C 0.1961 0.57756 0.0696 0.0
C1160 C 0.23156 0.58222 0.05692 0.0
C1161 C 0.22964 0.55797 1.01279 0.0
H1162 H 0.28272 0.62348 1.01167 0.0
C1163 C 0.27926 0.57899 0.95407 0.0
C1164 C 0.30166 0.57254 0.95539 0.0
C1165 C 0.26637 0.5822 0.96793 0.0
C1166 C 0.268 0.60484 1.01184 0.0
H1167 H 0.1693 0.57665 0.05278 0.0
H1168 H 0.19156 0.58093 0.02857 0.0
H1169 H 0.26026 0.62479 0.03595 0.0
H1170 H 0.32812 0.56591 0.97237 0.0
H1171 H 0.30564 0.57147 0.99654 0.0
H1172 H 0.23732 0.53835 0.98864 0.0
C1173 C 0.19948 0.58025 0.04024 0.0
C1174 C 0.25513 0.60545 0.02578 0.0
C1175 C 0.18667 0.57794 0.05414 0.0
C1176 C 0.3109 0.57039 0.97092 0.0
C1177 C 0.29804 0.574 0.98478 0.0
C1178 C 0.2424 0.55767 0.99883 0.0
C1179 C 0.22214 0.58179 0.0414 0.0
C1180 C 0.23579 0.58191 0.02648 0.0
C1181 C 0.27559 0.57945 0.98345 0.0
C1182 C 0.26177 0.58095 0.9982 0.0
H1183 H 0.22644 0.5797 0.08258 0.0
H1184 H 0.24893 0.58283 0.05834 0.0
H1185 H 0.21514 0.53868 1.01293 0.0
H1186 H 0.27159 0.58048 0.94232 0.0
H1187 H 0.24914 0.58678 0.9665 0.0
C1188 C 0.68526 0.07312 0.55616 0.0
C1189 C 0.69461 0.07253 0.57165 0.0
C1190 C 0.69815 0.0756 0.54231 0.0
C1191 C 0.75381 0.1011 0.52803 0.0
H1192 H 0.73629 0.03398 0.49082 0.0
C1193 C 0.80971 0.06843 0.47303 0.0
C1194 C 0.8004 0.07089 0.45753 0.0
C1195 C 0.79686 0.07107 0.48692 0.0
C1196 C 0.74129 0.05328 0.50103 0.0
H1197 H 0.7249 0.07457 0.58473 0.0
H1198 H 0.7475 0.07807 0.56057 0.0
H1199 H 0.71404 0.03396 0.51508 0.0
H1200 H 0.77021 0.07813 0.44455 0.0
H1201 H 0.74779 0.08278 0.46879 0.0
H1202 H 0.78136 0.11956 0.51397 0.0
C1203 C 0.73014 0.07744 0.55909 0.0
C1204 C 0.7285 0.05339 0.51497 0.0
C1205 C 0.71719 0.07535 0.57298 0.0
C1206 C 0.77793 0.07644 0.45628 0.0
C1207 C 0.76506 0.0787 0.47017 0.0
C1208 C 0.76671 0.1007 0.51411 0.0
C1209 C 0.7208 0.07713 0.54355 0.0
C1210 C 0.73452 0.07736 0.52867 0.0
C1211 C 0.77436 0.07585 0.48567 0.0
C1212 C 0.76058 0.07683 0.50044 0.0
H1213 H 0.66791 0.07182 0.55474 0.0
H1214 H 0.6903 0.07638 0.53061 0.0
H1215 H 0.75885 0.12045 0.53822 0.0
H1216 H 0.82697 0.06462 0.47443 0.0
H1217 H 0.80451 0.06847 0.49866 0.0
C1218 C 0.31356 0.43542 0.55276 0.0
C1219 C 0.30361 0.43384 0.56804 0.0
C1220 C 0.30134 0.43157 0.5386 0.0
C1221 C 0.24733 0.3975 0.52324 0.0
H1222 H 0.26242 0.46892 0.48663 0.0
C1223 C 0.18921 0.4302 0.46996 0.0
C1224 C 0.19776 0.43099 0.4542 0.0
C1225 C 0.20276 0.42645 0.4834 0.0
C1226 C 0.25816 0.44833 0.49666 0.0
H1227 H 0.27293 0.42702 0.58035 0.0
H1228 H 0.25154 0.42108 0.55572 0.0
H1229 H 0.28463 0.47069 0.51095 0.0
H1230 H 0.22731 0.42784 0.44023 0.0
H1231 H 0.25109 0.4214 0.46378 0.0
H1232 H 0.22047 0.37613 0.50902 0.0
C1233 C 0.26888 0.42433 0.55463 0.0
C1234 C 0.27092 0.44927 0.51063 0.0
C1235 C 0.28114 0.42783 0.5688 0.0
C1236 C 0.22022 0.42709 0.4522 0.0
C1237 C 0.23383 0.42379 0.46569 0.0
C1238 C 0.23448 0.39683 0.50931 0.0
C1239 C 0.27879 0.42637 0.53931 0.0
C1240 C 0.26561 0.42409 0.52418 0.0
C1241 C 0.22526 0.42374 0.48146 0.0
C1242 C 0.23964 0.42247 0.4959 0.0
H1243 H 0.33086 0.4393 0.55175 0.0
H1244 H 0.30963 0.43243 0.52707 0.0
H1245 H 0.24294 0.37702 0.53326 0.0
H1246 H 0.17198 0.43265 0.4719 0.0
H1247 H 0.19564 0.42685 0.49537 0.0
C1248 C 0.33515 0.03219 0.20483 0.0
C1249 C 0.33375 0.07663 0.20245 0.0
C1250 C 0.33471 0.01485 0.22044 0.0
C1251 C 0.31986 0.04064 0.26307 0.0
H1252 H 0.35782 0.94582 0.27312 0.0
C1253 C 0.33593 0.98358 0.32872 0.0
C1254 C 0.33683 0.93921 0.33144 0.0
C1255 C 0.33482 0.99993 0.31297 0.0
C1256 C 0.34695 0.97201 0.27048 0.0
H1257 H 0.33024 0.13738 0.21487 0.0
H1258 H 0.33012 0.1074 0.24194 0.0
H1259 H 0.35713 0.97471 0.24576 0.0
H1260 H 0.33666 0.87743 0.31946 0.0
H1261 H 0.33497 0.90593 0.29214 0.0
H1262 H 0.30994 0.03821 0.28789 0.0
C1263 C 0.33129 0.0858 0.23173 0.0
C1264 C 0.34651 0.98855 0.25475 0.0
C1265 C 0.33167 0.10312 0.21614 0.0
C1266 C 0.33642 0.91173 0.31794 0.0
C1267 C 0.33542 0.92809 0.30221 0.0
C1268 C 0.32039 0.02422 0.27881 0.0
C1269 C 0.33289 0.04144 0.23413 0.0
C1270 C 0.333 0.02317 0.25082 0.0
C1271 C 0.33468 0.97239 0.29951 0.0
C1272 C 0.33396 0.98973 0.28273 0.0
H1273 H 0.33693 0.01069 0.19466 0.0
H1274 H 0.3357 0.98049 0.22177 0.0
H1275 H 0.30897 0.06681 0.26046 0.0
H1276 H 0.3365 0.00586 0.33872 0.0
H1277 H 0.33453 0.03425 0.31133 0.0
C1278 C 0.65609 0.48509 0.20165 0.0
C1279 C 0.66257 0.4427 0.19871 0.0
C1280 C 0.65617 0.50182 0.21738 0.0
C1281 C 0.68014 0.48543 0.25796 0.0
H1282 H 0.63266 0.55651 0.27249 0.0
C1283 C 0.67139 0.53793 0.32481 0.0
C1284 C 0.66422 0.57982 0.32793 0.0
C1285 C 0.67102 0.52119 0.3091 0.0
C1286 C 0.64619 0.53716 0.26858 0.0
H1287 H 0.67448 0.38494 0.2101 0.0
H1288 H 0.67437 0.41388 0.23749 0.0
H1289 H 0.63246 0.52775 0.24506 0.0
H1290 H 0.65077 0.63659 0.31675 0.0
H1291 H 0.6506 0.60784 0.28939 0.0
H1292 H 0.69396 0.495 0.28142 0.0
C1293 C 0.66934 0.43431 0.22761 0.0
C1294 C 0.64606 0.52062 0.25283 0.0
C1295 C 0.66917 0.41754 0.21191 0.0
C1296 C 0.65662 0.60441 0.31486 0.0
C1297 C 0.65628 0.58768 0.29915 0.0
C1298 C 0.68031 0.50206 0.27369 0.0
C1299 C 0.66283 0.47667 0.23056 0.0
C1300 C 0.66302 0.49449 0.24732 0.0
C1301 C 0.66351 0.54585 0.29603 0.0
C1302 C 0.66332 0.52813 0.27924 0.0
H1303 H 0.6507 0.50529 0.19183 0.0
H1304 H 0.65124 0.53468 0.21917 0.0
H1305 H 0.69363 0.46599 0.25405 0.0
H1306 H 0.67759 0.51809 0.33446 0.0
H1307 H 0.67648 0.48869 0.30723 0.0
C1308 C 0.6556 0.9057 0.81584 0.0
C1309 C 0.66383 0.92943 0.82893 0.0
C1310 C 0.65548 0.92263 0.80018 0.0
C1311 C 0.68093 0.0066 0.77483 0.0
H1312 H 0.63237 0.98476 0.7464 0.0
C1313 C 0.67007 0.0935 0.71362 0.0
C1314 C 0.66298 0.06913 0.70033 0.0
C1315 C 0.67034 0.07613 0.7292 0.0
C1316 C 0.64617 0.99078 0.75412 0.0
H1317 H 0.6785 0.98989 0.83559 0.0
H1318 H 0.67777 0.01977 0.80843 0.0
H1319 H 0.63229 0.95575 0.77376 0.0
H1320 H 0.65047 0.00729 0.69314 0.0
H1321 H 0.6511 0.97684 0.72032 0.0
H1322 H 0.6947 0.04195 0.75521 0.0
C1323 C 0.67167 0.98772 0.81024 0.0
C1324 C 0.64614 0.97411 0.76983 0.0
C1325 C 0.67183 0.97074 0.82591 0.0
C1326 C 0.6562 0.02686 0.70305 0.0
C1327 C 0.65635 0.00954 0.71866 0.0
C1328 C 0.68091 0.02341 0.75915 0.0
C1329 C 0.66354 0.96386 0.79715 0.0
C1330 C 0.66352 0.98178 0.78041 0.0
C1331 C 0.66343 0.03398 0.73194 0.0
C1332 C 0.66353 0.01572 0.74859 0.0
H1333 H 0.64907 0.87402 0.81765 0.0
H1334 H 0.64932 0.90308 0.7904 0.0
H1335 H 0.69477 0.01257 0.78251 0.0
H1336 H 0.67564 0.12597 0.71197 0.0
H1337 H 0.67571 0.09599 0.73916 0.0
C1338 C 0.32374 0.47401 0.70053 0.0
C1339 C 0.33138 0.43241 0.69749 0.0
C1340 C 0.32384 0.49086 0.71623 0.0
C1341 C 0.34865 0.47603 0.7568 0.0
H1342 H 0.30043 0.54532 0.7712 0.0
C1343 C 0.33803 0.528 0.82364 0.0
C1344 C 0.33145 0.57037 0.82647 0.0
C1345 C 0.338 0.51103 0.80796 0.0
C1346 C 0.31413 0.52638 0.76732 0.0
H1347 H 0.34542 0.37632 0.70877 0.0
H1348 H 0.34507 0.4052 0.73608 0.0
H1349 H 0.30052 0.51626 0.74382 0.0
H1350 H 0.3193 0.62777 0.81496 0.0
H1351 H 0.31945 0.59838 0.78764 0.0
H1352 H 0.36217 0.48597 0.78036 0.0
C1353 C 0.33924 0.42506 0.72629 0.0
C1354 C 0.3142 0.50974 0.7516 0.0
C1355 C 0.33918 0.40824 0.71059 0.0
C1356 C 0.3247 0.59521 0.81322 0.0
C1357 C 0.32456 0.57818 0.79757 0.0
C1358 C 0.34854 0.49254 0.77254 0.0
C1359 C 0.33154 0.46658 0.72933 0.0
C1360 C 0.33148 0.48438 0.7461 0.0
C1361 C 0.33126 0.53591 0.79472 0.0
C1362 C 0.33129 0.51798 0.778 0.0
H1363 H 0.31739 0.49351 0.69083 0.0
H1364 H 0.31802 0.52314 0.71805 0.0
H1365 H 0.3624 0.45724 0.75293 0.0
H1366 H 0.34352 0.50808 0.83351 0.0
H1367 H 0.34308 0.47823 0.80622 0.0
C1368 C 0.83787 0.47176 0.82603 0.0
C1369 C 0.82338 0.4381 0.82909 0.0
C1370 C 0.8392 0.49022 0.81061 0.0
C1371 C 0.80881 0.50047 0.77192 0.0
H1372 H 0.86473 0.52935 0.75396 0.0
C1373 C 0.82041 0.5399 0.70419 0.0
C1374 C 0.83409 0.5742 0.70026 0.0
C1375 C 0.8192 0.52466 0.72008 0.0
C1376 C 0.84896 0.52188 0.75886 0.0
H1377 H 0.79856 0.39841 0.81823 0.0
H1378 H 0.80128 0.42955 0.79148 0.0
H1379 H 0.86236 0.5011 0.78142 0.0
H1380 H 0.85751 0.61879 0.71 0.0
H1381 H 0.85527 0.59245 0.73772 0.0
H1382 H 0.79544 0.52076 0.74931 0.0
C1383 C 0.81149 0.44211 0.80099 0.0
C1384 C 0.8476 0.50576 0.77464 0.0
C1385 C 0.81015 0.42376 0.81636 0.0
C1386 C 0.84665 0.59264 0.71261 0.0
C1387 C 0.84553 0.57724 0.72849 0.0
C1388 C 0.81019 0.51641 0.75615 0.0
C1389 C 0.82603 0.47556 0.79787 0.0
C1390 C 0.8275 0.49453 0.78134 0.0
C1391 C 0.83172 0.54318 0.73244 0.0
C1392 C 0.83029 0.52706 0.74938 0.0
H1393 H 0.84842 0.4835 0.83547 0.0
H1394 H 0.85044 0.51621 0.80871 0.0
H1395 H 0.79301 0.49302 0.77677 0.0
H1396 H 0.81036 0.52518 0.69505 0.0
H1397 H 0.80856 0.49808 0.72266 0.0
C1398 C 0.17261 0.09511 0.81786 0.0
C1399 C 0.16489 0.07116 0.83104 0.0
C1400 C 0.17249 0.0781 0.80219 0.0
C1401 C 0.14632 0.99559 0.77689 0.0
H1402 H 0.19522 0.01413 0.74848 0.0
C1403 C 0.15384 0.91099 0.71485 0.0
C1404 C 0.16256 0.93418 0.70181 0.0
C1405 C 0.15407 0.92774 0.73056 0.0
C1406 C 0.18129 0.0091 0.75616 0.0
H1407 H 0.15088 0.01041 0.83795 0.0
H1408 H 0.15085 0.98056 0.81064 0.0
H1409 H 0.19588 0.04274 0.77592 0.0
H1410 H 0.17844 0.99351 0.69531 0.0
H1411 H 0.17834 0.02308 0.72256 0.0
H1412 H 0.13165 0.96224 0.75713 0.0
C1413 C 0.15688 0.01269 0.81244 0.0
C1414 C 0.1817 0.02546 0.77193 0.0
C1415 C 0.15711 0.02964 0.82813 0.0
C1416 C 0.17138 0.97479 0.70494 0.0
C1417 C 0.17158 0.99158 0.72066 0.0
C1418 C 0.14588 0.97935 0.7611 0.0
C1419 C 0.16457 0.03673 0.79926 0.0
C1420 C 0.16422 0.01892 0.78251 0.0
C1421 C 0.16297 0.96823 0.7337 0.0
C1422 C 0.16337 0.98585 0.75051 0.0
H1423 H 0.17895 0.12696 0.81964 0.0
H1424 H 0.17835 0.09767 0.79233 0.0
H1425 H 0.13244 0.99051 0.78462 0.0
H1426 H 0.14667 0.87989 0.71296 0.0
H1427 H 0.14751 0.90856 0.74028 0.0
C1428 C 0.16888 0.48193 0.32364 0.0
C1429 C 0.15868 0.44255 0.32664 0.0
C1430 C 0.16911 0.49952 0.30807 0.0
C1431 C 0.14174 0.49259 0.26801 0.0
H1432 H 0.19321 0.55036 0.25278 0.0
C1433 C 0.15368 0.54133 0.201 0.0
C1434 C 0.16228 0.58217 0.19807 0.0
C1435 C 0.15312 0.52463 0.2167 0.0
C1436 C 0.17864 0.53467 0.2569 0.0
H1437 H 0.14038 0.39136 0.3154 0.0
H1438 H 0.14137 0.42121 0.28832 0.0
H1439 H 0.19241 0.52087 0.28006 0.0
H1440 H 0.17736 0.6371 0.20936 0.0
H1441 H 0.17631 0.60808 0.23674 0.0
H1442 H 0.12812 0.50596 0.24472 0.0
C1443 C 0.14895 0.43891 0.29805 0.0
C1444 C 0.17814 0.51783 0.27258 0.0
C1445 C 0.14863 0.42143 0.31362 0.0
C1446 C 0.17042 0.60576 0.21121 0.0
C1447 C 0.17002 0.58893 0.22688 0.0
C1448 C 0.1423 0.5092 0.2523 0.0
C1449 C 0.15921 0.47818 0.29504 0.0
C1450 C 0.15968 0.49654 0.27836 0.0
C1451 C 0.16131 0.54821 0.22984 0.0
C1452 C 0.16075 0.53045 0.24655 0.0
H1453 H 0.17698 0.49906 0.33325 0.0
H1454 H 0.17694 0.53007 0.30628 0.0
H1455 H 0.1271 0.47712 0.2721 0.0
H1456 H 0.14712 0.52246 0.19119 0.0
H1457 H 0.14647 0.49301 0.21854 0.0
C1458 C 0.83951 0.10925 0.31599 0.0
C1459 C 0.83204 0.08394 0.32889 0.0
C1460 C 0.83945 0.09359 0.30012 0.0
C1461 C 0.81473 0.00962 0.27423 0.0
H1462 H 0.86233 0.03565 0.24542 0.0
C1463 C 0.82682 0.92329 0.21306 0.0
C1464 C 0.83323 0.94796 0.19968 0.0
C1465 C 0.82624 0.94101 0.22859 0.0
C1466 C 0.84879 0.02849 0.25325 0.0
H1467 H 0.81849 0.02205 0.33497 0.0
H1468 H 0.81897 0.99445 0.3075 0.0
H1469 H 0.8624 0.06393 0.27293 0.0
H1470 H 0.84411 0.01073 0.19224 0.0
H1471 H 0.84298 0.0418 0.21937 0.0
H1472 H 0.80129 0.97373 0.25459 0.0
C1473 C 0.8246 0.02673 0.3096 0.0
C1474 C 0.84881 0.04475 0.26904 0.0
C1475 C 0.8246 0.04242 0.32546 0.0
C1476 C 0.83895 0.99093 0.20224 0.0
C1477 C 0.8385 0.00861 0.21781 0.0
C1478 C 0.81477 0.99323 0.25847 0.0
C1479 C 0.83196 0.05213 0.2967 0.0
C1480 C 0.83182 0.03539 0.27977 0.0
C1481 C 0.83214 0.98384 0.23118 0.0
C1482 C 0.83184 1.00231 0.24781 0.0
H1483 H 0.84556 0.14117 0.31812 0.0
H1484 H 0.84503 0.11427 0.2905 0.0
H1485 H 0.80116 1.00241 0.28201 0.0
H1486 H 0.82207 0.89027 0.21152 0.0
H1487 H 0.82145 0.92091 0.23863 0.0
C1488 C 0.56455 0.35828 0.14294 0.0
C1489 C 0.57437 0.3681 0.12809 0.0
C1490 C 0.54573 0.33364 0.14342 0.0
C1491 C 0.51532 0.25543 0.11861 0.0
H1492 H 0.47018 0.27474 0.15028 0.0
C1493 C 0.4318 0.17365 0.11592 0.0
C1494 C 0.42284 0.15927 0.13055 0.0
C1495 C 0.45098 0.19709 0.11587 0.0
C1496 C 0.48279 0.26867 0.14149 0.0
H1497 H 0.57162 0.36184 0.10207 0.0
H1498 H 0.53849 0.31984 0.10283 0.0
H1499 H 0.50133 0.32236 0.14948 0.0
H1500 H 0.42713 0.15737 0.15656 0.0
H1501 H 0.46076 0.19836 0.15647 0.0
H1502 H 0.49653 0.20217 0.11046 0.0
C1503 C 0.54562 0.33001 0.11416 0.0
C1504 C 0.50064 0.29596 0.14102 0.0
C1505 C 0.56452 0.35433 0.1137 0.0
C1506 C 0.43378 0.16772 0.14509 0.0
C1507 C 0.45287 0.19157 0.14506 0.0
C1508 C 0.4974 0.22836 0.11901 0.0
C1509 C 0.53624 0.31854 0.12904 0.0
C1510 C 0.51711 0.28977 0.12954 0.0
C1511 C 0.4615 0.207 0.13046 0.0
C1512 C 0.48093 0.23473 0.13043 0.0
H1513 H 0.57195 0.36796 0.15424 0.0
H1514 H 0.53912 0.32509 0.1551 0.0
H1515 H 0.5279 0.24906 0.10984 0.0
H1516 H 0.42374 0.16743 0.10453 0.0
H1517 H 0.45717 0.20875 0.10444 0.0
C1518 C 0.4335 0.84797 0.41876 0.0
C1519 C 0.42431 0.86396 0.40446 0.0
C1520 C 0.45256 0.8241 0.41825 0.0
C1521 C 0.49893 0.79509 0.39178 0.0
H1522 H 0.50193 0.69608 0.41989 0.0
C1523 C 0.56558 0.6671 0.38544 0.0
C1524 C 0.57614 0.65605 0.39989 0.0
C1525 C 0.54654 0.69111 0.38583 0.0
C1526 C 0.50136 0.72374 0.41203 0.0
H1527 H 0.42806 0.8682 0.37844 0.0
H1528 H 0.46114 0.82615 0.37748 0.0
H1529 H 0.47051 0.74287 0.42106 0.0
H1530 H 0.5746 0.65968 0.42605 0.0
H1531 H 0.54123 0.70125 0.42674 0.0
H1532 H 0.52972 0.7754 0.38262 0.0
C1533 C 0.45391 0.83264 0.38915 0.0
C1534 C 0.48342 0.75075 0.41276 0.0
C1535 C 0.43494 0.85682 0.38969 0.0
C1536 C 0.56683 0.66794 0.41473 0.0
C1537 C 0.5477 0.69153 0.41512 0.0
C1538 C 0.51679 0.76786 0.39097 0.0
C1539 C 0.46275 0.81532 0.40339 0.0
C1540 C 0.48201 0.78689 0.4027 0.0
C1541 C 0.53758 0.70408 0.40067 0.0
C1542 C 0.51823 0.732 0.40112 0.0
H1543 H 0.42575 0.85336 0.43033 0.0
H1544 H 0.45917 0.81214 0.42949 0.0
H1545 H 0.49855 0.82291 0.38401 0.0
H1546 H 0.5725 0.65868 0.37383 0.0
H1547 H 0.53895 0.69996 0.37451 0.0
C1548 C 0.56392 0.83874 0.91206 0.0
C1549 C 0.57384 0.85249 0.8977 0.0
C1550 C 0.54473 0.81547 0.91154 0.0
C1551 C 0.51441 0.74353 0.88505 0.0
H1552 H 0.46779 0.76348 0.91542 0.0
C1553 C 0.43237 0.65501 0.88186 0.0
C1554 C 0.42216 0.6452 0.89657 0.0
C1555 C 0.45135 0.67913 0.8817 0.0
C1556 C 0.48079 0.75707 0.90701 0.0
H1557 H 0.57122 0.85361 0.87156 0.0
H1558 H 0.5375 0.81306 0.87063 0.0
H1559 H 0.49909 0.81055 0.91552 0.0
H1560 H 0.42443 0.65049 0.92265 0.0
H1561 H 0.45782 0.6917 0.92243 0.0
H1562 H 0.49626 0.68969 0.87667 0.0
C1563 C 0.54468 0.82012 0.88228 0.0
C1564 C 0.49866 0.7842 0.90702 0.0
C1565 C 0.56382 0.84372 0.88282 0.0
C1566 C 0.43184 0.6581 0.91113 0.0
C1567 C 0.45087 0.68193 0.91099 0.0
C1568 C 0.49657 0.71621 0.88509 0.0
C1569 C 0.53513 0.80522 0.89663 0.0
C1570 C 0.5157 0.77762 0.8961 0.0
C1571 C 0.46055 0.69369 0.89627 0.0
C1572 C 0.4796 0.72253 0.89614 0.0
H1573 H 0.57126 0.84528 0.92371 0.0
H1574 H 0.53781 0.80421 0.92279 0.0
H1575 H 0.52745 0.73732 0.87664 0.0
H1576 H 0.4251 0.64587 0.87045 0.0
H1577 H 0.45829 0.68788 0.87015 0.0
C1578 C 0.43218 0.34502 0.61446 0.0
C1579 C 0.422 0.35794 0.62884 0.0
C1580 C 0.4514 0.32175 0.61496 0.0
C1581 C 0.48129 0.24816 0.64104 0.0
H1582 H 0.52851 0.27006 0.61142 0.0
C1583 C 0.56306 0.15851 0.64425 0.0
C1584 C 0.57361 0.14964 0.62958 0.0
C1585 C 0.54418 0.18303 0.64443 0.0
C1586 C 0.51534 0.2631 0.61962 0.0
H1587 H 0.42416 0.35752 0.65502 0.0
H1588 H 0.4579 0.31691 0.6559 0.0
H1589 H 0.49717 0.31711 0.61143 0.0
H1590 H 0.57205 0.1572 0.60355 0.0
H1591 H 0.53886 0.19908 0.6038 0.0
H1592 H 0.49927 0.19375 0.64906 0.0
C1593 C 0.45092 0.32466 0.64425 0.0
C1594 C 0.49745 0.29023 0.61967 0.0
C1595 C 0.43177 0.3483 0.64374 0.0
C1596 C 0.56439 0.16405 0.61505 0.0
C1597 C 0.54547 0.18827 0.61522 0.0
C1598 C 0.49915 0.22083 0.64092 0.0
C1599 C 0.46075 0.31061 0.62987 0.0
C1600 C 0.4802 0.28297 0.63033 0.0
C1601 C 0.53541 0.19894 0.62993 0.0
C1602 C 0.51635 0.22785 0.63015 0.0
H1603 H 0.42503 0.3522 0.60281 0.0
H1604 H 0.45853 0.31116 0.60368 0.0
H1605 H 0.46808 0.24142 0.64923 0.0
H1606 H 0.56995 0.14824 0.65564 0.0
H1607 H 0.53697 0.19091 0.65599 0.0
C1608 C 0.93234 0.65474 0.64428 0.0
C1609 C 0.92266 0.64508 0.62935 0.0
C1610 C 0.95088 0.68014 0.64494 0.0
C1611 C 0.97979 0.76144 0.62086 0.0
H1612 H 0.02594 0.74229 0.6517 0.0
C1613 C 0.06218 0.84663 0.61753 0.0
C1614 C 0.07193 0.85942 0.6321 0.0
C1615 C 0.04306 0.82309 0.61767 0.0
C1616 C 0.01303 0.74837 0.64317 0.0
H1617 H 0.92547 0.65224 0.60336 0.0
H1618 H 0.95808 0.69577 0.60446 0.0
H1619 H 0.99542 0.69308 0.65077 0.0
H1620 H 0.06898 0.85876 0.65822 0.0
H1621 H 0.03536 0.81772 0.65847 0.0
H1622 H 0.99757 0.81637 0.61311 0.0
C1623 C 0.95104 0.68479 0.6157 0.0
C1624 C 0.99556 0.72013 0.64261 0.0
C1625 C 0.93246 0.65962 0.61505 0.0
C1626 C 0.06172 0.8496 0.64681 0.0
C1627 C 0.04264 0.82572 0.64696 0.0
C1628 C 0.99729 0.78953 0.62137 0.0
C1629 C 0.96018 0.69623 0.63067 0.0
C1630 C 0.9788 0.72617 0.63137 0.0
C1631 C 0.03333 0.81158 0.63239 0.0
C1632 C 0.01415 0.78318 0.63247 0.0
H1633 H 0.92498 0.64446 0.65551 0.0
H1634 H 0.95738 0.68861 0.65668 0.0
H1635 H 0.96693 0.76764 0.6123 0.0
H1636 H 0.06966 0.85397 0.60601 0.0
H1637 H 0.03635 0.81246 0.60625 0.0
C1638 C 0.06354 0.15448 0.88481 0.0
C1639 C 0.07518 0.1536 0.89942 0.0
C1640 C 0.04457 0.17843 0.8835 0.0
C1641 C 0.01778 0.2719 0.9011 0.0
H1642 H 0.96648 0.22746 0.8802 0.0
C1643 C 0.9354 0.35922 0.90271 0.0
C1644 C 0.92164 0.35454 0.88934 0.0
C1645 C 0.95499 0.337 0.90333 0.0
C1646 C 0.98078 0.24071 0.88582 0.0
H1647 H 0.07529 0.17541 0.92436 0.0
H1648 H 0.04236 0.21763 0.92197 0.0
H1649 H -0.00169 0.18225 0.88275 0.0
H1650 H 0.91804 0.32554 0.8657 0.0
H1651 H 0.95251 0.28796 0.86647 0.0
H1652 H 0.00044 0.33054 0.90401 0.0
C1653 C 0.04812 0.20026 0.91149 0.0
C1654 C -0.00103 0.21464 0.88735 0.0
C1655 C 0.06697 0.17604 0.91284 0.0
C1656 C 0.92832 0.32929 0.87621 0.0
C1657 C 0.94796 0.3075 0.87674 0.0
C1658 C -0.00034 0.29814 0.89944 0.0
C1659 C 0.03691 0.20222 0.89674 0.0
C1660 C 0.01761 0.22989 0.89507 0.0
C1661 C 0.96125 0.31002 0.89051 0.0
C1662 C 0.98089 0.28283 0.89182 0.0
H1663 H 0.06953 0.13812 0.87417 0.0
H1664 H 0.03631 0.17958 0.87196 0.0
H1665 H 0.03207 0.28469 0.9069 0.0
H1666 H 0.93049 0.37817 0.91305 0.0
H1667 H 0.9647 0.33947 0.91418 0.0
C1668 C 0.06304 0.35043 0.4137 0.0
C1669 C 0.07211 0.36506 0.39915 0.0
C1670 C 0.04376 0.32732 0.41362 0.0
C1671 C 0.01209 0.25681 0.38752 0.0
H1672 H 0.96679 0.27494 0.41915 0.0
C1673 C 0.93042 0.16739 0.38512 0.0
C1674 C 0.92055 0.15664 0.39987 0.0
C1675 C 0.9492 0.19213 0.38491 0.0
C1676 C 0.97943 0.26901 0.41038 0.0
H1677 H 0.06787 0.36794 0.37314 0.0
H1678 H 0.03406 0.32764 0.373 0.0
H1679 H -0.00185 0.32194 0.41892 0.0
H1680 H 0.92316 0.16139 0.42594 0.0
H1681 H 0.95623 0.20362 0.42562 0.0
H1682 H 0.99363 0.20345 0.37914 0.0
C1683 C 0.04194 0.33392 0.38446 0.0
C1684 C 0.99733 0.29613 0.41021 0.0
C1685 C 0.06114 0.35739 0.38456 0.0
C1686 C 0.9303 0.16964 0.4144 0.0
C1687 C 0.94916 0.19407 0.4142 0.0
C1688 C 0.99426 0.22948 0.38777 0.0
C1689 C 0.03325 0.31805 0.39896 0.0
C1690 C 0.01385 0.29029 0.39879 0.0
C1691 C 0.9586 0.20641 0.39944 0.0
C1692 C 0.97772 0.23517 0.39922 0.0
H1693 H 0.07112 0.35607 0.42513 0.0
H1694 H 0.03751 0.31533 0.42498 0.0
H1695 H 0.02475 0.25113 0.37874 0.0
H1696 H 0.92309 0.15831 0.37373 0.0
H1697 H 0.95587 0.20139 0.37332 0.0
C1698 C 0.93253 0.85295 0.14313 0.0
C1699 C 0.92218 0.86281 0.12847 0.0
C1700 C 0.95152 0.82877 0.14319 0.0
C1701 C 0.99705 0.79436 0.11775 0.0
H1702 H -0.00021 0.69743 0.14688 0.0
C1703 C 0.06496 0.67007 0.11256 0.0
C1704 C 0.07429 0.65554 0.12704 0.0
C1705 C 0.04586 0.69377 0.11281 0.0
C1706 C -0.00059 0.72464 0.13881 0.0
H1707 H 0.92396 0.8567 0.1024 0.0
H1708 H 0.95729 0.81493 0.10247 0.0
H1709 H 0.96845 0.74471 0.14752 0.0
H1710 H 0.07064 0.6535 0.1531 0.0
H1711 H 0.03739 0.69522 0.15359 0.0
H1712 H 0.02806 0.77487 0.10915 0.0
C1713 C 0.9507 0.82571 0.11391 0.0
C1714 C 0.98146 0.75172 0.13918 0.0
C1715 C 0.9316 0.84942 0.11386 0.0
C1716 C 0.06369 0.66383 0.14173 0.0
C1717 C 0.04464 0.68781 0.142 0.0
C1718 C 0.01506 0.76751 0.11745 0.0
C1719 C 0.96064 0.81448 0.12858 0.0
C1720 C 0.98006 0.78674 0.12861 0.0
C1721 C 0.03572 0.70379 0.12756 0.0
C1722 C 0.01643 0.73215 0.12791 0.0
H1723 H 0.92549 0.86251 0.15457 0.0
H1724 H 0.95896 0.82091 0.15467 0.0
H1725 H 0.99652 0.8214 0.10959 0.0
H1726 H 0.07265 0.66368 0.10104 0.0
H1727 H 0.03918 0.70466 0.10143 0.0
loop_
_geom_bond_atom_site_label_1
_geom_bond_atom_site_label_2
_geom_bond_distance
_geom_bond_site_symmetry_2
_ccdc_geom_bond_type
Co0 N4 2.148 . S
Co0 N10 2.128 . S
Co0 N20 2.194 . S
Co0 O25 2.351 . S
Co0 O26 2.155 . S
Co0 O27 2.096 . S
C1 N4 1.301 . S
C1 N5 1.328 . S
C1 H6 0.930 . S
C2 C3 1.333 . S
C2 N4 1.317 . S
C2 H7 0.930 . S
C3 C2 1.333 . S
C3 N5 1.350 . S
C3 H29 0.931 . S
N4 Co0 2.148 . S
N4 C1 1.301 . S
N4 C2 1.317 . S
N5 C1 1.328 . S
N5 C3 1.350 . S
H6 C1 0.930 . S
H7 C2 0.930 . S
C8 O9 1.224 . S
C8 O27 1.247 . S
O9 C8 1.224 . S
N10 Co0 2.128 . S
N10 C11 1.355 . S
N10 C13 1.311 . S
C11 N10 1.355 . S
C11 C12 1.363 . S
C11 H23 0.929 . S
C12 C11 1.363 . S
C12 N14 1.375 . S
C12 H30 0.931 . S
C13 N10 1.311 . S
C13 N14 1.347 . S
C13 H24 0.929 . S
N14 C12 1.375 . S
N14 C13 1.347 . S
C15 C18 1.365 . S
C15 N20 1.328 . S
C15 H21 0.929 . S
C16 C17 1.362 . S
C16 C19 1.378 . S
C16 H31 0.929 . S
C17 C16 1.362 . S
C17 C18 1.366 . S
C18 C15 1.365 . S
C18 C17 1.366 . S
C18 H32 0.930 . S
C19 C16 1.378 . S
C19 N20 1.315 . S
C19 H22 0.930 . S
N20 Co0 2.194 . S
N20 C15 1.328 . S
N20 C19 1.315 . S
H21 C15 0.929 . S
H22 C19 0.930 . S
H23 C11 0.929 . S
H24 C13 0.929 . S
O25 Co0 2.351 . S
O25 C28 1.244 . S
O26 Co0 2.155 . S
O26 C28 1.240 . S
O27 Co0 2.096 . S
O27 C8 1.247 . S
C28 O25 1.244 . S
C28 O26 1.240 . S
H29 C3 0.931 . S
H30 C12 0.931 . S
H31 C16 0.929 . S
H32 C18 0.930 . S
Co33 N37 2.148 . S
Co33 N43 2.128 . S
Co33 N53 2.194 . S
Co33 O58 2.351 . S
Co33 O59 2.155 . S
Co33 O60 2.096 . S
C34 N37 1.301 . S
C34 N38 1.328 . S
C34 H39 0.930 . S
C35 C36 1.333 . S
C35 N37 1.317 . S
C35 H40 0.930 . S
C36 C35 1.333 . S
C36 N38 1.350 . S
C36 H62 0.931 . S
N37 Co33 2.148 . S
N37 C34 1.301 . S
N37 C35 1.317 . S
N38 C34 1.328 . S
N38 C36 1.350 . S
H39 C34 0.930 . S
H40 C35 0.930 . S
C41 O42 1.224 . S
C41 O60 1.247 . S
O42 C41 1.224 . S
N43 Co33 2.128 . S
N43 C44 1.355 . S
N43 C46 1.311 . S
C44 N43 1.355 . S
C44 C45 1.363 . S
C44 H56 0.929 . S
C45 C44 1.363 . S
C45 N47 1.375 . S
C45 H63 0.931 . S
C46 N43 1.311 . S
C46 N47 1.347 . S
C46 H57 0.929 . S
N47 C45 1.375 . S
N47 C46 1.347 . S
C48 C51 1.365 . S
C48 N53 1.328 . S
C48 H54 0.929 . S
C49 C50 1.362 . S
C49 C52 1.378 . S
C49 H64 0.929 . S
C50 C49 1.362 . S
C50 C51 1.366 . S
C51 C48 1.365 . S
C51 C50 1.366 . S
C51 H65 0.930 . S
C52 C49 1.378 . S
C52 N53 1.315 . S
C52 H55 0.930 . S
N53 Co33 2.194 . S
N53 C48 1.328 . S
N53 C52 1.315 . S
H54 C48 0.929 . S
H55 C52 0.930 . S
H56 C44 0.929 . S
H57 C46 0.929 . S
O58 Co33 2.351 . S
O58 C61 1.244 . S
O59 Co33 2.155 . S
O59 C61 1.240 . S
O60 Co33 2.096 . S
O60 C41 1.247 . S
C61 O58 1.244 . S
C61 O59 1.240 . S
H62 C36 0.931 . S
H63 C45 0.931 . S
H64 C49 0.929 . S
H65 C51 0.930 . S
Co66 N70 2.148 . S
Co66 N76 2.128 . S
Co66 N86 2.194 . S
Co66 O91 2.351 . S
Co66 O92 2.155 . S
Co66 O93 2.096 . S
C67 N70 1.301 . S
C67 N71 1.328 . S
C67 H72 0.930 . S
C68 C69 1.333 . S
C68 N70 1.317 . S
C68 H73 0.930 . S
C69 C68 1.333 . S
C69 N71 1.350 . S
C69 H95 0.931 . S
N70 Co66 2.148 . S
N70 C67 1.301 . S
N70 C68 1.317 . S
N71 C67 1.328 . S
N71 C69 1.350 . S
H72 C67 0.930 . S
H73 C68 0.930 . S
C74 O75 1.224 . S
C74 O93 1.247 . S
O75 C74 1.224 . S
N76 Co66 2.128 . S
N76 C77 1.355 . S
N76 C79 1.311 . S
C77 N76 1.355 . S
C77 C78 1.363 . S
C77 H89 0.929 . S
C78 C77 1.363 . S
C78 N80 1.375 . S
C78 H96 0.931 . S
C79 N76 1.311 . S
C79 N80 1.347 . S
C79 H90 0.929 . S
N80 C78 1.375 . S
N80 C79 1.347 . S
C81 C84 1.365 . S
C81 N86 1.328 . S
C81 H87 0.929 . S
C82 C83 1.362 . S
C82 C85 1.378 . S
C82 H97 0.929 . S
C83 C82 1.362 . S
C83 C84 1.366 . S
C84 C81 1.365 . S
C84 C83 1.366 . S
C84 H98 0.930 . S
C85 C82 1.378 . S
C85 N86 1.315 . S
C85 H88 0.930 . S
N86 Co66 2.194 . S
N86 C81 1.328 . S
N86 C85 1.315 . S
H87 C81 0.929 . S
H88 C85 0.930 . S
H89 C77 0.929 . S
H90 C79 0.929 . S
O91 Co66 2.351 . S
O91 C94 1.244 . S
O92 Co66 2.155 . S
O92 C94 1.240 . S
O93 Co66 2.096 . S
O93 C74 1.247 . S
C94 O91 1.244 . S
C94 O92 1.240 . S
H95 C69 0.931 . S
H96 C78 0.931 . S
H97 C82 0.929 . S
H98 C84 0.930 . S
Co99 N103 2.148 . S
Co99 N109 2.128 . S
Co99 N119 2.194 . S
Co99 O124 2.351 . S
Co99 O125 2.155 . S
Co99 O126 2.096 . S
C100 N103 1.301 . S
C100 N104 1.328 . S
C100 H105 0.930 . S
C101 C102 1.333 . S
C101 N103 1.317 . S
C101 H106 0.930 . S
C102 C101 1.333 . S
C102 N104 1.350 . S
C102 H128 0.931 . S
N103 Co99 2.148 . S
N103 C100 1.301 . S
N103 C101 1.317 . S
N104 C100 1.328 . S
N104 C102 1.350 . S
H105 C100 0.930 . S
H106 C101 0.930 . S
C107 O108 1.224 . S
C107 O126 1.247 . S
O108 C107 1.224 . S
N109 Co99 2.128 . S
N109 C110 1.355 . S
N109 C112 1.311 . S
C110 N109 1.355 . S
C110 C111 1.363 . S
C110 H122 0.929 . S
C111 C110 1.363 . S
C111 N113 1.375 . S
C111 H129 0.931 . S
C112 N109 1.311 . S
C112 N113 1.347 . S
C112 H123 0.929 . S
N113 C111 1.375 . S
N113 C112 1.347 . S
C114 C117 1.365 . S
C114 N119 1.328 . S
C114 H120 0.929 . S
C115 C116 1.362 . S
C115 C118 1.378 . S
C115 H130 0.929 . S
C116 C115 1.362 . S
C116 C117 1.366 . S
C117 C114 1.365 . S
C117 C116 1.366 . S
C117 H131 0.930 . S
C118 C115 1.378 . S
C118 N119 1.315 . S
C118 H121 0.930 . S
N119 Co99 2.194 . S
N119 C114 1.328 . S
N119 C118 1.315 . S
H120 C114 0.929 . S
H121 C118 0.930 . S
H122 C110 0.929 . S
H123 C112 0.929 . S
O124 Co99 2.351 . S
O124 C127 1.244 . S
O125 Co99 2.155 . S
O125 C127 1.240 . S
O126 Co99 2.096 . S
O126 C107 1.247 . S
C127 O124 1.244 . S
C127 O125 1.240 . S
H128 C102 0.931 . S
H129 C111 0.931 . S
H130 C115 0.929 . S
H131 C117 0.930 . S
Co132 N136 2.148 . S
Co132 N142 2.128 . S
Co132 N152 2.194 . S
Co132 O157 2.351 . S
Co132 O158 2.155 . S
Co132 O159 2.096 . S
C133 N136 1.301 . S
C133 N137 1.328 . S
C133 H138 0.930 . S
C134 C135 1.333 . S
C134 N136 1.317 . S
C134 H139 0.930 . S
C135 C134 1.333 . S
C135 N137 1.350 . S
C135 H161 0.931 . S
N136 Co132 2.148 . S
N136 C133 1.301 . S
N136 C134 1.317 . S
N137 C133 1.328 . S
N137 C135 1.350 . S
H138 C133 0.930 . S
H139 C134 0.930 . S
C140 O141 1.224 . S
C140 O159 1.247 . S
O141 C140 1.224 . S
N142 Co132 2.128 . S
N142 C143 1.355 . S
N142 C145 1.311 . S
C143 N142 1.355 . S
C143 C144 1.363 . S
C143 H155 0.929 . S
C144 C143 1.363 . S
C144 N146 1.375 . S
C144 H162 0.931 . S
C145 N142 1.311 . S
C145 N146 1.347 . S
C145 H156 0.929 . S
N146 C144 1.375 . S
N146 C145 1.347 . S
C147 C150 1.365 . S
C147 N152 1.328 . S
C147 H153 0.929 . S
C148 C149 1.362 . S
C148 C151 1.378 . S
C148 H163 0.929 . S
C149 C148 1.362 . S
C149 C150 1.366 . S
C150 C147 1.365 . S
C150 C149 1.366 . S
C150 H164 0.930 . S
C151 C148 1.378 . S
C151 N152 1.315 . S
C151 H154 0.930 . S
N152 Co132 2.194 . S
N152 C147 1.328 . S
N152 C151 1.315 . S
H153 C147 0.929 . S
H154 C151 0.930 . S
H155 C143 0.929 . S
H156 C145 0.929 . S
O157 Co132 2.351 . S
O157 C160 1.244 . S
O158 Co132 2.155 . S
O158 C160 1.240 . S
O159 Co132 2.096 . S
O159 C140 1.247 . S
C160 O157 1.244 . S
C160 O158 1.240 . S
H161 C135 0.931 . S
H162 C144 0.931 . S
H163 C148 0.929 . S
H164 C150 0.930 . S
Co165 N169 2.148 . S
Co165 N175 2.128 . S
Co165 N185 2.194 . S
Co165 O190 2.351 . S
Co165 O191 2.155 . S
Co165 O192 2.096 . S
C166 N169 1.301 . S
C166 N170 1.328 . S
C166 H171 0.930 . S
C167 C168 1.333 . S
C167 N169 1.317 . S
C167 H172 0.930 . S
C168 C167 1.333 . S
C168 N170 1.350 . S
C168 H194 0.931 . S
N169 Co165 2.148 . S
N169 C166 1.301 . S
N169 C167 1.317 . S
N170 C166 1.328 . S
N170 C168 1.350 . S
H171 C166 0.930 . S
H172 C167 0.930 . S
C173 O174 1.224 . S
C173 O192 1.247 . S
O174 C173 1.224 . S
N175 Co165 2.128 . S
N175 C176 1.355 . S
N175 C178 1.311 . S
C176 N175 1.355 . S
C176 C177 1.363 . S
C176 H188 0.929 . S
C177 C176 1.363 . S
C177 N179 1.375 . S
C177 H195 0.931 . S
C178 N175 1.311 . S
C178 N179 1.347 . S
C178 H189 0.929 . S
N179 C177 1.375 . S
N179 C178 1.347 . S
C180 C183 1.365 . S
C180 N185 1.328 . S
C180 H186 0.929 . S
C181 C182 1.362 . S
C181 C184 1.378 . S
C181 H196 0.929 . S
C182 C181 1.362 . S
C182 C183 1.366 . S
C183 C180 1.365 . S
C183 C182 1.366 . S
C183 H197 0.930 . S
C184 C181 1.378 . S
C184 N185 1.315 . S
C184 H187 0.930 . S
N185 Co165 2.194 . S
N185 C180 1.328 . S
N185 C184 1.315 . S
H186 C180 0.929 . S
H187 C184 0.930 . S
H188 C176 0.929 . S
H189 C178 0.929 . S
O190 Co165 2.351 . S
O190 C193 1.244 . S
O191 Co165 2.155 . S
O191 C193 1.240 . S
O192 Co165 2.096 . S
O192 C173 1.247 . S
C193 O190 1.244 . S
C193 O191 1.240 . S
H194 C168 0.931 . S
H195 C177 0.931 . S
H196 C181 0.929 . S
H197 C183 0.930 . S
Co198 N202 2.148 . S
Co198 N208 2.128 . S
Co198 N218 2.194 . S
Co198 O223 2.351 . S
Co198 O224 2.155 . S
Co198 O225 2.096 . S
C199 N202 1.301 . S
C199 N203 1.328 . S
C199 H204 0.930 . S
C200 C201 1.333 . S
C200 N202 1.317 . S
C200 H205 0.930 . S
C201 C200 1.333 . S
C201 N203 1.350 . S
C201 H227 0.931 . S
N202 Co198 2.148 . S
N202 C199 1.301 . S
N202 C200 1.317 . S
N203 C199 1.328 . S
N203 C201 1.350 . S
H204 C199 0.930 . S
H205 C200 0.930 . S
C206 O207 1.224 . S
C206 O225 1.247 . S
O207 C206 1.224 . S
N208 Co198 2.128 . S
N208 C209 1.355 . S
N208 C211 1.311 . S
C209 N208 1.355 . S
C209 C210 1.363 . S
C209 H221 0.929 . S
C210 C209 1.363 . S
C210 N212 1.375 . S
C210 H228 0.931 . S
C211 N208 1.311 . S
C211 N212 1.347 . S
C211 H222 0.929 . S
N212 C210 1.375 . S
N212 C211 1.347 . S
C213 C216 1.365 . S
C213 N218 1.328 . S
C213 H219 0.929 . S
C214 C215 1.362 . S
C214 C217 1.378 . S
C214 H229 0.929 . S
C215 C214 1.362 . S
C215 C216 1.366 . S
C216 C213 1.365 . S
C216 C215 1.366 . S
C216 H230 0.930 . S
C217 C214 1.378 . S
C217 N218 1.315 . S
C217 H220 0.930 . S
N218 Co198 2.194 . S
N218 C213 1.328 . S
N218 C217 1.315 . S
H219 C213 0.929 . S
H220 C217 0.930 . S
H221 C209 0.929 . S
H222 C211 0.929 . S
O223 Co198 2.351 . S
O223 C226 1.244 . S
O224 Co198 2.155 . S
O224 C226 1.240 . S
O225 Co198 2.096 . S
O225 C206 1.247 . S
C226 O223 1.244 . S
C226 O224 1.240 . S
H227 C201 0.931 . S
H228 C210 0.931 . S
H229 C214 0.929 . S
H230 C216 0.930 . S
Co231 N235 2.148 . S
Co231 N241 2.128 . S
Co231 N251 2.194 . S
Co231 O256 2.351 . S
Co231 O257 2.155 . S
Co231 O258 2.096 . S
C232 N235 1.301 . S
C232 N236 1.328 . S
C232 H237 0.930 . S
C233 C234 1.333 . S
C233 N235 1.317 . S
C233 H238 0.930 . S
C234 C233 1.333 . S
C234 N236 1.350 . S
C234 H260 0.931 . S
N235 Co231 2.148 . S
N235 C232 1.301 . S
N235 C233 1.317 . S
N236 C232 1.328 . S
N236 C234 1.350 . S
H237 C232 0.930 . S
H238 C233 0.930 . S
C239 O240 1.224 . S
C239 O258 1.247 . S
O240 C239 1.224 . S
N241 Co231 2.128 . S
N241 C242 1.355 . S
N241 C244 1.311 . S
C242 N241 1.355 . S
C242 C243 1.363 . S
C242 H254 0.929 . S
C243 C242 1.363 . S
C243 N245 1.375 . S
C243 H261 0.931 . S
C244 N241 1.311 . S
C244 N245 1.347 . S
C244 H255 0.929 . S
N245 C243 1.375 . S
N245 C244 1.347 . S
C246 C249 1.365 . S
C246 N251 1.328 . S
C246 H252 0.929 . S
C247 C248 1.362 . S
C247 C250 1.378 . S
C247 H262 0.929 . S
C248 C247 1.362 . S
C248 C249 1.366 . S
C249 C246 1.365 . S
C249 C248 1.366 . S
C249 H263 0.930 . S
C250 C247 1.378 . S
C250 N251 1.315 . S
C250 H253 0.930 . S
N251 Co231 2.194 . S
N251 C246 1.328 . S
N251 C250 1.315 . S
H252 C246 0.929 . S
H253 C250 0.930 . S
H254 C242 0.929 . S
H255 C244 0.929 . S
O256 Co231 2.351 . S
O256 C259 1.244 . S
O257 Co231 2.155 . S
O257 C259 1.240 . S
O258 Co231 2.096 . S
O258 C239 1.247 . S
C259 O256 1.244 . S
C259 O257 1.240 . S
H260 C234 0.931 . S
H261 C243 0.931 . S
H262 C247 0.929 . S
H263 C249 0.930 . S
Co264 N268 2.148 . S
Co264 N274 2.128 . S
Co264 N284 2.194 . S
Co264 O289 2.351 . S
Co264 O290 2.155 . S
Co264 O291 2.096 . S
C265 N268 1.301 . S
C265 N269 1.328 . S
C265 H270 0.930 . S
C266 C267 1.333 . S
C266 N268 1.317 . S
C266 H271 0.930 . S
C267 C266 1.333 . S
C267 N269 1.350 . S
C267 H293 0.931 . S
N268 Co264 2.148 . S
N268 C265 1.301 . S
N268 C266 1.317 . S
N269 C265 1.328 . S
N269 C267 1.350 . S
H270 C265 0.930 . S
H271 C266 0.930 . S
C272 O273 1.224 . S
C272 O291 1.247 . S
O273 C272 1.224 . S
N274 Co264 2.128 . S
N274 C275 1.355 . S
N274 C277 1.311 . S
C275 N274 1.355 . S
C275 C276 1.363 . S
C275 H287 0.929 . S
C276 C275 1.363 . S
C276 N278 1.375 . S
C276 H294 0.931 . S
C277 N274 1.311 . S
C277 N278 1.347 . S
C277 H288 0.929 . S
N278 C276 1.375 . S
N278 C277 1.347 . S
C279 C282 1.365 . S
C279 N284 1.328 . S
C279 H285 0.929 . S
C280 C281 1.362 . S
C280 C283 1.378 . S
C280 H295 0.929 . S
C281 C280 1.362 . S
C281 C282 1.366 . S
C282 C279 1.365 . S
C282 C281 1.366 . S
C282 H296 0.930 . S
C283 C280 1.378 . S
C283 N284 1.315 . S
C283 H286 0.930 . S
N284 Co264 2.194 . S
N284 C279 1.328 . S
N284 C283 1.315 . S
H285 C279 0.929 . S
H286 C283 0.930 . S
H287 C275 0.929 . S
H288 C277 0.929 . S
O289 Co264 2.351 . S
O289 C292 1.244 . S
O290 Co264 2.155 . S
O290 C292 1.240 . S
O291 Co264 2.096 . S
O291 C272 1.247 . S
C292 O289 1.244 . S
C292 O290 1.240 . S
H293 C267 0.931 . S
H294 C276 0.931 . S
H295 C280 0.929 . S
H296 C282 0.930 . S
Co297 N301 2.148 . S
Co297 N307 2.128 . S
Co297 N317 2.194 . S
Co297 O322 2.351 . S
Co297 O323 2.155 . S
Co297 O324 2.096 . S
C298 N301 1.301 . S
C298 N302 1.328 . S
C298 H303 0.930 . S
C299 C300 1.333 . S
C299 N301 1.317 . S
C299 H304 0.930 . S
C300 C299 1.333 . S
C300 N302 1.350 . S
C300 H326 0.931 . S
N301 Co297 2.148 . S
N301 C298 1.301 . S
N301 C299 1.317 . S
N302 C298 1.328 . S
N302 C300 1.350 . S
H303 C298 0.930 . S
H304 C299 0.930 . S
C305 O306 1.224 . S
C305 O324 1.247 . S
O306 C305 1.224 . S
N307 Co297 2.128 . S
N307 C308 1.355 . S
N307 C310 1.311 . S
C308 N307 1.355 . S
C308 C309 1.363 . S
C308 H320 0.929 . S
C309 C308 1.363 . S
C309 N311 1.375 . S
C309 H327 0.931 . S
C310 N307 1.311 . S
C310 N311 1.347 . S
C310 H321 0.929 . S
N311 C309 1.375 . S
N311 C310 1.347 . S
C312 C315 1.365 . S
C312 N317 1.328 . S
C312 H318 0.929 . S
C313 C314 1.362 . S
C313 C316 1.378 . S
C313 H328 0.929 . S
C314 C313 1.362 . S
C314 C315 1.366 . S
C315 C312 1.365 . S
C315 C314 1.366 . S
C315 H329 0.930 . S
C316 C313 1.378 . S
C316 N317 1.315 . S
C316 H319 0.930 . S
N317 Co297 2.194 . S
N317 C312 1.328 . S
N317 C316 1.315 . S
H318 C312 0.929 . S
H319 C316 0.930 . S
H320 C308 0.929 . S
H321 C310 0.929 . S
O322 Co297 2.351 . S
O322 C325 1.244 . S
O323 Co297 2.155 . S
O323 C325 1.240 . S
O324 Co297 2.096 . S
O324 C305 1.247 . S
C325 O322 1.244 . S
C325 O323 1.240 . S
H326 C300 0.931 . S
H327 C309 0.931 . S
H328 C313 0.929 . S
H329 C315 0.930 . S
Co330 N334 2.148 . S
Co330 N340 2.128 . S
Co330 N350 2.194 . S
Co330 O355 2.351 . S
Co330 O356 2.155 . S
Co330 O357 2.096 . S
C331 N334 1.301 . S
C331 N335 1.328 . S
C331 H336 0.930 . S
C332 C333 1.333 . S
C332 N334 1.317 . S
C332 H337 0.930 . S
C333 C332 1.333 . S
C333 N335 1.350 . S
C333 H359 0.931 . S
N334 Co330 2.148 . S
N334 C331 1.301 . S
N334 C332 1.317 . S
N335 C331 1.328 . S
N335 C333 1.350 . S
H336 C331 0.930 . S
H337 C332 0.930 . S
C338 O339 1.224 . S
C338 O357 1.247 . S
O339 C338 1.224 . S
N340 Co330 2.128 . S
N340 C341 1.355 . S
N340 C343 1.311 . S
C341 N340 1.355 . S
C341 C342 1.363 . S
C341 H353 0.929 . S
C342 C341 1.363 . S
C342 N344 1.375 . S
C342 H360 0.931 . S
C343 N340 1.311 . S
C343 N344 1.347 . S
C343 H354 0.929 . S
N344 C342 1.375 . S
N344 C343 1.347 . S
C345 C348 1.365 . S
C345 N350 1.328 . S
C345 H351 0.929 . S
C346 C347 1.362 . S
C346 C349 1.378 . S
C346 H361 0.929 . S
C347 C346 1.362 . S
C347 C348 1.366 . S
C348 C345 1.365 . S
C348 C347 1.366 . S
C348 H362 0.930 . S
C349 C346 1.378 . S
C349 N350 1.315 . S
C349 H352 0.930 . S
N350 Co330 2.194 . S
N350 C345 1.328 . S
N350 C349 1.315 . S
H351 C345 0.929 . S
H352 C349 0.930 . S
H353 C341 0.929 . S
H354 C343 0.929 . S
O355 Co330 2.351 . S
O355 C358 1.244 . S
O356 Co330 2.155 . S
O356 C358 1.240 . S
O357 Co330 2.096 . S
O357 C338 1.247 . S
C358 O355 1.244 . S
C358 O356 1.240 . S
H359 C333 0.931 . S
H360 C342 0.931 . S
H361 C346 0.929 . S
H362 C348 0.930 . S
Co363 N367 2.148 . S
Co363 N373 2.128 . S
Co363 N383 2.194 . S
Co363 O388 2.351 . S
Co363 O389 2.155 . S
Co363 O390 2.096 . S
C364 N367 1.301 . S
C364 N368 1.328 . S
C364 H369 0.930 . S
C365 C366 1.333 . S
C365 N367 1.317 . S
C365 H370 0.930 . S
C366 C365 1.333 . S
C366 N368 1.350 . S
C366 H392 0.931 . S
N367 Co363 2.148 . S
N367 C364 1.301 . S
N367 C365 1.317 . S
N368 C364 1.328 . S
N368 C366 1.350 . S
H369 C364 0.930 . S
H370 C365 0.930 . S
C371 O372 1.224 . S
C371 O390 1.247 . S
O372 C371 1.224 . S
N373 Co363 2.128 . S
N373 C374 1.355 . S
N373 C376 1.311 . S
C374 N373 1.355 . S
C374 C375 1.363 . S
C374 H386 0.929 . S
C375 C374 1.363 . S
C375 N377 1.375 . S
C375 H393 0.931 . S
C376 N373 1.311 . S
C376 N377 1.347 . S
C376 H387 0.929 . S
N377 C375 1.375 . S
N377 C376 1.347 . S
C378 C381 1.365 . S
C378 N383 1.328 . S
C378 H384 0.929 . S
C379 C380 1.362 . S
C379 C382 1.378 . S
C379 H394 0.929 . S
C380 C379 1.362 . S
C380 C381 1.366 . S
C381 C378 1.365 . S
C381 C380 1.366 . S
C381 H395 0.930 . S
C382 C379 1.378 . S
C382 N383 1.315 . S
C382 H385 0.930 . S
N383 Co363 2.194 . S
N383 C378 1.328 . S
N383 C382 1.315 . S
H384 C378 0.929 . S
H385 C382 0.930 . S
H386 C374 0.929 . S
H387 C376 0.929 . S
O388 Co363 2.351 . S
O388 C391 1.244 . S
O389 Co363 2.155 . S
O389 C391 1.240 . S
O390 Co363 2.096 . S
O390 C371 1.247 . S
C391 O388 1.244 . S
C391 O389 1.240 . S
H392 C366 0.931 . S
H393 C375 0.931 . S
H394 C379 0.929 . S
H395 C381 0.930 . S
Co396 N400 2.148 . S
Co396 N406 2.128 . S
Co396 N416 2.194 . S
Co396 O421 2.351 . S
Co396 O422 2.155 . S
Co396 O423 2.096 . S
C397 N400 1.301 . S
C397 N401 1.328 . S
C397 H402 0.930 . S
C398 C399 1.333 . S
C398 N400 1.317 . S
C398 H403 0.930 . S
C399 C398 1.333 . S
C399 N401 1.350 . S
C399 H425 0.931 . S
N400 Co396 2.148 . S
N400 C397 1.301 . S
N400 C398 1.317 . S
N401 C397 1.328 . S
N401 C399 1.350 . S
H402 C397 0.930 . S
H403 C398 0.930 . S
C404 O405 1.224 . S
C404 O423 1.247 . S
O405 C404 1.224 . S
N406 Co396 2.128 . S
N406 C407 1.355 . S
N406 C409 1.311 . S
C407 N406 1.355 . S
C407 C408 1.363 . S
C407 H419 0.929 . S
C408 C407 1.363 . S
C408 N410 1.375 . S
C408 H426 0.931 . S
C409 N406 1.311 . S
C409 N410 1.347 . S
C409 H420 0.929 . S
N410 C408 1.375 . S
N410 C409 1.347 . S
C411 C414 1.365 . S
C411 N416 1.328 . S
C411 H417 0.929 . S
C412 C413 1.362 . S
C412 C415 1.378 . S
C412 H427 0.929 . S
C413 C412 1.362 . S
C413 C414 1.366 . S
C414 C411 1.365 . S
C414 C413 1.366 . S
C414 H428 0.930 . S
C415 C412 1.378 . S
C415 N416 1.315 . S
C415 H418 0.930 . S
N416 Co396 2.194 . S
N416 C411 1.328 . S
N416 C415 1.315 . S
H417 C411 0.929 . S
H418 C415 0.930 . S
H419 C407 0.929 . S
H420 C409 0.929 . S
O421 Co396 2.351 . S
O421 C424 1.244 . S
O422 Co396 2.155 . S
O422 C424 1.240 . S
O423 Co396 2.096 . S
O423 C404 1.247 . S
C424 O421 1.244 . S
C424 O422 1.240 . S
H425 C399 0.931 . S
H426 C408 0.931 . S
H427 C412 0.929 . S
H428 C414 0.930 . S
Co429 N433 2.148 . S
Co429 N439 2.128 . S
Co429 N449 2.194 . S
Co429 O454 2.351 . S
Co429 O455 2.155 . S
Co429 O456 2.096 . S
C430 N433 1.301 . S
C430 N434 1.328 . S
C430 H435 0.930 . S
C431 C432 1.333 . S
C431 N433 1.317 . S
C431 H436 0.930 . S
C432 C431 1.333 . S
C432 N434 1.350 . S
C432 H458 0.931 . S
N433 Co429 2.148 . S
N433 C430 1.301 . S
N433 C431 1.317 . S
N434 C430 1.328 . S
N434 C432 1.350 . S
H435 C430 0.930 . S
H436 C431 0.930 . S
C437 O438 1.224 . S
C437 O456 1.247 . S
O438 C437 1.224 . S
N439 Co429 2.128 . S
N439 C440 1.355 . S
N439 C442 1.311 . S
C440 N439 1.355 . S
C440 C441 1.363 . S
C440 H452 0.929 . S
C441 C440 1.363 . S
C441 N443 1.375 . S
C441 H459 0.931 . S
C442 N439 1.311 . S
C442 N443 1.347 . S
C442 H453 0.929 . S
N443 C441 1.375 . S
N443 C442 1.347 . S
C444 C447 1.365 . S
C444 N449 1.328 . S
C444 H450 0.929 . S
C445 C446 1.362 . S
C445 C448 1.378 . S
C445 H460 0.929 . S
C446 C445 1.362 . S
C446 C447 1.366 . S
C447 C444 1.365 . S
C447 C446 1.366 . S
C447 H461 0.930 . S
C448 C445 1.378 . S
C448 N449 1.315 . S
C448 H451 0.930 . S
N449 Co429 2.194 . S
N449 C444 1.328 . S
N449 C448 1.315 . S
H450 C444 0.929 . S
H451 C448 0.930 . S
H452 C440 0.929 . S
H453 C442 0.929 . S
O454 Co429 2.351 . S
O454 C457 1.244 . S
O455 Co429 2.155 . S
O455 C457 1.240 . S
O456 Co429 2.096 . S
O456 C437 1.247 . S
C457 O454 1.244 . S
C457 O455 1.240 . S
H458 C432 0.931 . S
H459 C441 0.931 . S
H460 C445 0.929 . S
H461 C447 0.930 . S
Co462 N466 2.148 . S
Co462 N472 2.128 . S
Co462 N482 2.194 . S
Co462 O487 2.351 . S
Co462 O488 2.155 . S
Co462 O489 2.096 . S
C463 N466 1.301 . S
C463 N467 1.328 . S
C463 H468 0.930 . S
C464 C465 1.333 . S
C464 N466 1.317 . S
C464 H469 0.930 . S
C465 C464 1.333 . S
C465 N467 1.350 . S
C465 H491 0.931 . S
N466 Co462 2.148 . S
N466 C463 1.301 . S
N466 C464 1.317 . S
N467 C463 1.328 . S
N467 C465 1.350 . S
H468 C463 0.930 . S
H469 C464 0.930 . S
C470 O471 1.224 . S
C470 O489 1.247 . S
O471 C470 1.224 . S
N472 Co462 2.128 . S
N472 C473 1.355 . S
N472 C475 1.311 . S
C473 N472 1.355 . S
C473 C474 1.363 . S
C473 H485 0.929 . S
C474 C473 1.363 . S
C474 N476 1.375 . S
C474 H492 0.931 . S
C475 N472 1.311 . S
C475 N476 1.347 . S
C475 H486 0.929 . S
N476 C474 1.375 . S
N476 C475 1.347 . S
C477 C480 1.365 . S
C477 N482 1.328 . S
C477 H483 0.929 . S
C478 C479 1.362 . S
C478 C481 1.378 . S
C478 H493 0.929 . S
C479 C478 1.362 . S
C479 C480 1.366 . S
C480 C477 1.365 . S
C480 C479 1.366 . S
C480 H494 0.930 . S
C481 C478 1.378 . S
C481 N482 1.315 . S
C481 H484 0.930 . S
N482 Co462 2.194 . S
N482 C477 1.328 . S
N482 C481 1.315 . S
H483 C477 0.929 . S
H484 C481 0.930 . S
H485 C473 0.929 . S
H486 C475 0.929 . S
O487 Co462 2.351 . S
O487 C490 1.244 . S
O488 Co462 2.155 . S
O488 C490 1.240 . S
O489 Co462 2.096 . S
O489 C470 1.247 . S
C490 O487 1.244 . S
C490 O488 1.240 . S
H491 C465 0.931 . S
H492 C474 0.931 . S
H493 C478 0.929 . S
H494 C480 0.930 . S
Co495 N499 2.148 . S
Co495 N505 2.128 . S
Co495 N515 2.194 . S
Co495 O520 2.351 . S
Co495 O521 2.155 . S
Co495 O522 2.096 . S
C496 N499 1.301 . S
C496 N500 1.328 . S
C496 H501 0.930 . S
C497 C498 1.333 . S
C497 N499 1.317 . S
C497 H502 0.930 . S
C498 C497 1.333 . S
C498 N500 1.350 . S
C498 H524 0.931 . S
N499 Co495 2.148 . S
N499 C496 1.301 . S
N499 C497 1.317 . S
N500 C496 1.328 . S
N500 C498 1.350 . S
H501 C496 0.930 . S
H502 C497 0.930 . S
C503 O504 1.224 . S
C503 O522 1.247 . S
O504 C503 1.224 . S
N505 Co495 2.128 . S
N505 C506 1.355 . S
N505 C508 1.311 . S
C506 N505 1.355 . S
C506 C507 1.363 . S
C506 H518 0.929 . S
C507 C506 1.363 . S
C507 N509 1.375 . S
C507 H525 0.931 . S
C508 N505 1.311 . S
C508 N509 1.347 . S
C508 H519 0.929 . S
N509 C507 1.375 . S
N509 C508 1.347 . S
C510 C513 1.365 . S
C510 N515 1.328 . S
C510 H516 0.929 . S
C511 C512 1.362 . S
C511 C514 1.378 . S
C511 H526 0.929 . S
C512 C511 1.362 . S
C512 C513 1.366 . S
C513 C510 1.365 . S
C513 C512 1.366 . S
C513 H527 0.930 . S
C514 C511 1.378 . S
C514 N515 1.315 . S
C514 H517 0.930 . S
N515 Co495 2.194 . S
N515 C510 1.328 . S
N515 C514 1.315 . S
H516 C510 0.929 . S
H517 C514 0.930 . S
H518 C506 0.929 . S
H519 C508 0.929 . S
O520 Co495 2.351 . S
O520 C523 1.244 . S
O521 Co495 2.155 . S
O521 C523 1.240 . S
O522 Co495 2.096 . S
O522 C503 1.247 . S
C523 O520 1.244 . S
C523 O521 1.240 . S
H524 C498 0.931 . S
H525 C507 0.931 . S
H526 C511 0.929 . S
H527 C513 0.930 . S
C528 C529 1.349 . S
C528 C530 1.327 1_545 S
C528 H553 0.950 . S
C529 C528 1.349 . S
C529 C545 1.349 . S
C530 C528 1.327 1_565 S
C530 C549 1.429 . S
C530 H554 0.950 . S
C531 C548 1.574 . S
C531 C550 1.368 . S
C531 H555 0.949 . S
H532 C536 0.949 . S
C533 C534 1.349 . S
C533 C535 1.327 . S
C533 H556 0.950 . S
C534 C533 1.349 . S
C534 C546 1.349 . S
C535 C533 1.327 . S
C535 C551 1.429 . S
C535 H557 0.950 . S
C536 H532 0.949 . S
C536 C544 1.574 . S
C536 C552 1.368 . S
H537 C545 0.950 . S
H538 C543 0.950 . S
H539 C544 0.949 . S
H540 C546 0.950 . S
H541 C547 0.950 . S
H542 C548 0.949 . S
C543 H538 0.950 . S
C543 C545 1.327 . S
C543 C549 1.429 1_545 S
C544 C536 1.574 . S
C544 H539 0.949 . S
C544 C550 1.368 . S
C545 C529 1.349 . S
C545 H537 0.950 . S
C545 C543 1.327 . S
C546 C534 1.349 . S
C546 H540 0.950 . S
C546 C547 1.327 . S
C547 H541 0.950 . S
C547 C546 1.327 . S
C547 C551 1.429 . S
C548 C531 1.574 . S
C548 H542 0.949 . S
C548 C552 1.368 . S
C549 C530 1.429 . S
C549 C543 1.429 1_565 S
C549 C550 1.523 . S
C550 C531 1.368 . S
C550 C544 1.368 . S
C550 C549 1.523 . S
C551 C535 1.429 . S
C551 C547 1.429 . S
C551 C552 1.523 . S
C552 C536 1.368 . S
C552 C548 1.368 . S
C552 C551 1.523 . S
H553 C528 0.950 . S
H554 C530 0.950 . S
H555 C531 0.949 . S
H556 C533 0.950 . S
H557 C535 0.950 . S
C558 C559 1.349 . S
C558 C560 1.327 . S
C558 H583 0.950 . S
C559 C558 1.349 . S
C559 C575 1.349 . S
C560 C558 1.327 . S
C560 C579 1.429 . S
C560 H584 0.950 . S
C561 C578 1.574 . S
C561 C580 1.368 . S
C561 H585 0.949 . S
H562 C566 0.949 . S
C563 C564 1.349 . S
C563 C565 1.327 . S
C563 H586 0.950 . S
C564 C563 1.349 . S
C564 C576 1.349 . S
C565 C563 1.327 . S
C565 C581 1.429 . S
C565 H587 0.950 . S
C566 H562 0.949 . S
C566 C574 1.574 . S
C566 C582 1.368 . S
H567 C575 0.950 . S
H568 C573 0.950 . S
H569 C574 0.949 . S
H570 C576 0.950 . S
H571 C577 0.950 . S
H572 C578 0.949 . S
C573 H568 0.950 . S
C573 C575 1.327 . S
C573 C579 1.429 . S
C574 C566 1.574 . S
C574 H569 0.949 . S
C574 C580 1.368 . S
C575 C559 1.349 . S
C575 H567 0.950 . S
C575 C573 1.327 . S
C576 C564 1.349 . S
C576 H570 0.950 . S
C576 C577 1.327 . S
C577 H571 0.950 . S
C577 C576 1.327 . S
C577 C581 1.429 . S
C578 C561 1.574 . S
C578 H572 0.949 . S
C578 C582 1.368 . S
C579 C560 1.429 . S
C579 C573 1.429 . S
C579 C580 1.523 . S
C580 C561 1.368 . S
C580 C574 1.368 . S
C580 C579 1.523 . S
C581 C565 1.429 . S
C581 C577 1.429 . S
C581 C582 1.523 . S
C582 C566 1.368 . S
C582 C578 1.368 . S
C582 C581 1.523 . S
H583 C558 0.950 . S
H584 C560 0.950 . S
H585 C561 0.949 . S
H586 C563 0.950 . S
H587 C565 0.950 . S
C588 C589 1.349 . S
C588 C590 1.327 . S
C588 H613 0.950 . S
C589 C588 1.349 . S
C589 C605 1.349 . S
C590 C588 1.327 . S
C590 C609 1.429 1_565 S
C590 H614 0.950 . S
C591 C608 1.574 . S
C591 C610 1.368 . S
C591 H615 0.949 . S
H592 C596 0.949 . S
C593 C594 1.349 . S
C593 C595 1.327 . S
C593 H616 0.950 . S
C594 C593 1.349 . S
C594 C606 1.349 . S
C595 C593 1.327 . S
C595 C611 1.429 . S
C595 H617 0.950 . S
C596 H592 0.949 . S
C596 C604 1.574 . S
C596 C612 1.368 . S
H597 C605 0.950 . S
H598 C603 0.950 . S
H599 C604 0.949 . S
H600 C606 0.950 . S
H601 C607 0.950 . S
H602 C608 0.949 . S
C603 H598 0.950 . S
C603 C605 1.327 1_545 S
C603 C609 1.429 . S
C604 C596 1.574 . S
C604 H599 0.949 . S
C604 C610 1.368 . S
C605 C589 1.349 . S
C605 H597 0.950 . S
C605 C603 1.327 1_565 S
C606 C594 1.349 . S
C606 H600 0.950 . S
C606 C607 1.327 . S
C607 H601 0.950 . S
C607 C606 1.327 . S
C607 C611 1.429 . S
C608 C591 1.574 . S
C608 H602 0.949 . S
C608 C612 1.368 . S
C609 C590 1.429 1_545 S
C609 C603 1.429 . S
C609 C610 1.523 . S
C610 C591 1.368 . S
C610 C604 1.368 . S
C610 C609 1.523 . S
C611 C595 1.429 . S
C611 C607 1.429 . S
C611 C612 1.523 . S
C612 C596 1.368 . S
C612 C608 1.368 . S
C612 C611 1.523 . S
H613 C588 0.950 . S
H614 C590 0.950 . S
H615 C591 0.949 . S
H616 C593 0.950 . S
H617 C595 0.950 . S
C618 C619 1.349 . S
C618 C620 1.327 . S
C618 H643 0.950 . S
C619 C618 1.349 . S
C619 C635 1.349 . S
C620 C618 1.327 . S
C620 C639 1.429 . S
C620 H644 0.950 . S
C621 C638 1.574 . S
C621 C640 1.368 . S
C621 H645 0.949 . S
H622 C626 0.949 . S
C623 C624 1.349 . S
C623 C625 1.327 . S
C623 H646 0.950 . S
C624 C623 1.349 . S
C624 C636 1.349 . S
C625 C623 1.327 . S
C625 C641 1.429 . S
C625 H647 0.950 . S
C626 H622 0.949 . S
C626 C634 1.574 . S
C626 C642 1.368 . S
H627 C635 0.950 . S
H628 C633 0.950 . S
H629 C634 0.949 . S
H630 C636 0.950 . S
H631 C637 0.950 . S
H632 C638 0.949 . S
C633 H628 0.950 . S
C633 C635 1.327 . S
C633 C639 1.429 . S
C634 C626 1.574 . S
C634 H629 0.949 . S
C634 C640 1.368 . S
C635 C619 1.349 . S
C635 H627 0.950 . S
C635 C633 1.327 . S
C636 C624 1.349 . S
C636 H630 0.950 . S
C636 C637 1.327 . S
C637 H631 0.950 . S
C637 C636 1.327 . S
C637 C641 1.429 . S
C638 C621 1.574 . S
C638 H632 0.949 . S
C638 C642 1.368 . S
C639 C620 1.429 . S
C639 C633 1.429 . S
C639 C640 1.523 . S
C640 C621 1.368 . S
C640 C634 1.368 . S
C640 C639 1.523 . S
C641 C625 1.429 . S
C641 C637 1.429 . S
C641 C642 1.523 . S
C642 C626 1.368 . S
C642 C638 1.368 . S
C642 C641 1.523 . S
H643 C618 0.950 . S
H644 C620 0.950 . S
H645 C621 0.949 . S
H646 C623 0.950 . S
H647 C625 0.950 . S
C648 C649 1.349 . S
C648 C650 1.327 . S
C648 H673 0.950 . S
C649 C648 1.349 . S
C649 C665 1.349 . S
C650 C648 1.327 . S
C650 C669 1.429 1_565 S
C650 H674 0.950 . S
C651 C668 1.574 . S
C651 C670 1.368 . S
C651 H675 0.949 . S
H652 C656 0.949 . S
C653 C654 1.349 . S
C653 C655 1.327 . S
C653 H676 0.950 . S
C654 C653 1.349 . S
C654 C666 1.349 . S
C655 C653 1.327 . S
C655 C671 1.429 . S
C655 H677 0.950 . S
C656 H652 0.949 . S
C656 C664 1.574 . S
C656 C672 1.368 . S
H657 C665 0.950 . S
H658 C663 0.950 . S
H659 C664 0.949 . S
H660 C666 0.950 . S
H661 C667 0.950 . S
H662 C668 0.949 . S
C663 H658 0.950 . S
C663 C665 1.327 1_545 S
C663 C669 1.429 . S
C664 C656 1.574 . S
C664 H659 0.949 . S
C664 C670 1.368 . S
C665 C649 1.349 . S
C665 H657 0.950 . S
C665 C663 1.327 1_565 S
C666 C654 1.349 . S
C666 H660 0.950 . S
C666 C667 1.327 . S
C667 H661 0.950 . S
C667 C666 1.327 . S
C667 C671 1.429 . S
C668 C651 1.574 . S
C668 H662 0.949 . S
C668 C672 1.368 . S
C669 C650 1.429 1_545 S
C669 C663 1.429 . S
C669 C670 1.523 . S
C670 C651 1.368 . S
C670 C664 1.368 . S
C670 C669 1.523 . S
C671 C655 1.429 . S
C671 C667 1.429 . S
C671 C672 1.523 . S
C672 C656 1.368 . S
C672 C668 1.368 . S
C672 C671 1.523 . S
H673 C648 0.950 . S
H674 C650 0.950 . S
H675 C651 0.949 . S
H676 C653 0.950 . S
H677 C655 0.950 . S
C678 C679 1.349 . S
C678 C680 1.327 . S
C678 H703 0.950 . S
C679 C678 1.349 . S
C679 C695 1.349 . S
C680 C678 1.327 . S
C680 C699 1.429 . S
C680 H704 0.950 . S
C681 C698 1.574 . S
C681 C700 1.368 . S
C681 H705 0.949 . S
H682 C686 0.949 . S
C683 C684 1.349 . S
C683 C685 1.327 . S
C683 H706 0.950 . S
C684 C683 1.349 . S
C684 C696 1.349 . S
C685 C683 1.327 . S
C685 C701 1.429 . S
C685 H707 0.950 . S
C686 H682 0.949 . S
C686 C694 1.574 . S
C686 C702 1.368 . S
H687 C695 0.950 . S
H688 C693 0.950 . S
H689 C694 0.949 . S
H690 C696 0.950 . S
H691 C697 0.950 . S
H692 C698 0.949 . S
C693 H688 0.950 . S
C693 C695 1.327 . S
C693 C699 1.429 . S
C694 C686 1.574 . S
C694 H689 0.949 . S
C694 C700 1.368 . S
C695 C679 1.349 . S
C695 H687 0.950 . S
C695 C693 1.327 . S
C696 C684 1.349 . S
C696 H690 0.950 . S
C696 C697 1.327 . S
C697 H691 0.950 . S
C697 C696 1.327 . S
C697 C701 1.429 . S
C698 C681 1.574 . S
C698 H692 0.949 . S
C698 C702 1.368 . S
C699 C680 1.429 . S
C699 C693 1.429 . S
C699 C700 1.523 . S
C700 C681 1.368 . S
C700 C694 1.368 . S
C700 C699 1.523 . S
C701 C685 1.429 . S
C701 C697 1.429 . S
C701 C702 1.523 . S
C702 C686 1.368 . S
C702 C698 1.368 . S
C702 C701 1.523 . S
H703 C678 0.950 . S
H704 C680 0.950 . S
H705 C681 0.949 . S
H706 C683 0.950 . S
H707 C685 0.950 . S
C708 C709 1.349 . S
C708 C710 1.327 1_545 S
C708 H733 0.950 . S
C709 C708 1.349 . S
C709 C725 1.349 . S
C710 C708 1.327 1_565 S
C710 C729 1.429 . S
C710 H734 0.950 . S
C711 C728 1.574 . S
C711 C730 1.368 . S
C711 H735 0.949 . S
H712 C716 0.949 . S
C713 C714 1.349 . S
C713 C715 1.327 . S
C713 H736 0.950 . S
C714 C713 1.349 . S
C714 C726 1.349 . S
C715 C713 1.327 . S
C715 C731 1.429 . S
C715 H737 0.950 . S
C716 H712 0.949 . S
C716 C724 1.574 . S
C716 C732 1.368 . S
H717 C725 0.950 . S
H718 C723 0.950 . S
H719 C724 0.949 . S
H720 C726 0.950 . S
H721 C727 0.950 . S
H722 C728 0.949 . S
C723 H718 0.950 . S
C723 C725 1.327 . S
C723 C729 1.429 1_545 S
C724 C716 1.574 . S
C724 H719 0.949 . S
C724 C730 1.368 . S
C725 C709 1.349 . S
C725 H717 0.950 . S
C725 C723 1.327 . S
C726 C714 1.349 . S
C726 H720 0.950 . S
C726 C727 1.327 . S
C727 H721 0.950 . S
C727 C726 1.327 . S
C727 C731 1.429 . S
C728 C711 1.574 . S
C728 H722 0.949 . S
C728 C732 1.368 . S
C729 C710 1.429 . S
C729 C723 1.429 1_565 S
C729 C730 1.523 . S
C730 C711 1.368 . S
C730 C724 1.368 . S
C730 C729 1.523 . S
C731 C715 1.429 . S
C731 C727 1.429 . S
C731 C732 1.523 . S
C732 C716 1.368 . S
C732 C728 1.368 . S
C732 C731 1.523 . S
H733 C708 0.950 . S
H734 C710 0.950 . S
H735 C711 0.949 . S
H736 C713 0.950 . S
H737 C715 0.950 . S
C738 C739 1.349 . S
C738 C740 1.327 . S
C738 H763 0.950 . S
C739 C738 1.349 . S
C739 C755 1.349 . S
C740 C738 1.327 . S
C740 C759 1.429 . S
C740 H764 0.950 . S
C741 C758 1.574 . S
C741 C760 1.368 . S
C741 H765 0.949 . S
H742 C746 0.949 . S
C743 C744 1.349 . S
C743 C745 1.327 . S
C743 H766 0.950 . S
C744 C743 1.349 . S
C744 C756 1.349 . S
C745 C743 1.327 . S
C745 C761 1.429 . S
C745 H767 0.950 . S
C746 H742 0.949 . S
C746 C754 1.574 . S
C746 C762 1.368 . S
H747 C755 0.950 . S
H748 C753 0.950 . S
H749 C754 0.949 . S
H750 C756 0.950 . S
H751 C757 0.950 . S
H752 C758 0.949 . S
C753 H748 0.950 . S
C753 C755 1.327 . S
C753 C759 1.429 . S
C754 C746 1.574 . S
C754 H749 0.949 . S
C754 C760 1.368 . S
C755 C739 1.349 . S
C755 H747 0.950 . S
C755 C753 1.327 . S
C756 C744 1.349 . S
C756 H750 0.950 . S
C756 C757 1.327 . S
C757 H751 0.950 . S
C757 C756 1.327 . S
C757 C761 1.429 . S
C758 C741 1.574 . S
C758 H752 0.949 . S
C758 C762 1.368 . S
C759 C740 1.429 . S
C759 C753 1.429 . S
C759 C760 1.523 . S
C760 C741 1.368 . S
C760 C754 1.368 . S
C760 C759 1.523 . S
C761 C745 1.429 . S
C761 C757 1.429 . S
C761 C762 1.523 . S
C762 C746 1.368 . S
C762 C758 1.368 . S
C762 C761 1.523 . S
H763 C738 0.950 . S
H764 C740 0.950 . S
H765 C741 0.949 . S
H766 C743 0.950 . S
H767 C745 0.950 . S
C768 C769 1.349 . S
C768 C770 1.327 . S
C768 H793 0.950 . S
C769 C768 1.349 . S
C769 C785 1.349 . S
C770 C768 1.327 . S
C770 C789 1.429 . S
C770 H794 0.950 . S
C771 C788 1.574 . S
C771 C790 1.368 . S
C771 H795 0.949 . S
H772 C776 0.949 . S
C773 C774 1.349 . S
C773 C775 1.327 . S
C773 H796 0.950 . S
C774 C773 1.349 . S
C774 C786 1.349 . S
C775 C773 1.327 . S
C775 C791 1.429 . S
C775 H797 0.950 . S
C776 H772 0.949 . S
C776 C784 1.574 . S
C776 C792 1.368 . S
H777 C785 0.950 . S
H778 C783 0.950 . S
H779 C784 0.949 . S
H780 C786 0.950 . S
H781 C787 0.950 . S
H782 C788 0.949 . S
C783 H778 0.950 . S
C783 C785 1.327 . S
C783 C789 1.429 . S
C784 C776 1.574 . S
C784 H779 0.949 . S
C784 C790 1.368 . S
C785 C769 1.349 . S
C785 H777 0.950 . S
C785 C783 1.327 . S
C786 C774 1.349 . S
C786 H780 0.950 . S
C786 C787 1.327 . S
C787 H781 0.950 . S
C787 C786 1.327 . S
C787 C791 1.429 . S
C788 C771 1.574 . S
C788 H782 0.949 . S
C788 C792 1.368 . S
C789 C770 1.429 . S
C789 C783 1.429 . S
C789 C790 1.523 . S
C790 C771 1.368 . S
C790 C784 1.368 . S
C790 C789 1.523 . S
C791 C775 1.429 . S
C791 C787 1.429 . S
C791 C792 1.523 . S
C792 C776 1.368 . S
C792 C788 1.368 . S
C792 C791 1.523 . S
H793 C768 0.950 . S
H794 C770 0.950 . S
H795 C771 0.949 . S
H796 C773 0.950 . S
H797 C775 0.950 . S
C798 C799 1.349 . S
C798 C800 1.327 . S
C798 H823 0.950 . S
C799 C798 1.349 . S
C799 C815 1.349 . S
C800 C798 1.327 . S
C800 C819 1.429 . S
C800 H824 0.950 . S
C801 C818 1.574 . S
C801 C820 1.368 . S
C801 H825 0.949 . S
H802 C806 0.949 . S
C803 C804 1.349 . S
C803 C805 1.327 1_565 S
C803 H826 0.950 . S
C804 C803 1.349 . S
C804 C816 1.349 . S
C805 C803 1.327 1_545 S
C805 C821 1.429 . S
C805 H827 0.950 . S
C806 H802 0.949 . S
C806 C814 1.574 . S
C806 C822 1.368 . S
H807 C815 0.950 . S
H808 C813 0.950 . S
H809 C814 0.949 . S
H810 C816 0.950 . S
H811 C817 0.950 . S
H812 C818 0.949 . S
C813 H808 0.950 . S
C813 C815 1.327 . S
C813 C819 1.429 . S
C814 C806 1.574 . S
C814 H809 0.949 . S
C814 C820 1.368 . S
C815 C799 1.349 . S
C815 H807 0.950 . S
C815 C813 1.327 . S
C816 C804 1.349 . S
C816 H810 0.950 . S
C816 C817 1.327 . S
C817 H811 0.950 . S
C817 C816 1.327 . S
C817 C821 1.429 1_565 S
C818 C801 1.574 . S
C818 H812 0.949 . S
C818 C822 1.368 . S
C819 C800 1.429 . S
C819 C813 1.429 . S
C819 C820 1.523 . S
C820 C801 1.368 . S
C820 C814 1.368 . S
C820 C819 1.523 . S
C821 C805 1.429 . S
C821 C817 1.429 1_545 S
C821 C822 1.523 . S
C822 C806 1.368 . S
C822 C818 1.368 . S
C822 C821 1.523 . S
H823 C798 0.950 . S
H824 C800 0.950 . S
H825 C801 0.949 . S
H826 C803 0.950 . S
H827 C805 0.950 . S
C828 C829 1.349 . S
C828 C830 1.327 . S
C828 H853 0.950 . S
C829 C828 1.349 . S
C829 C845 1.349 . S
C830 C828 1.327 . S
C830 C849 1.429 . S
C830 H854 0.950 . S
C831 C848 1.574 . S
C831 C850 1.368 . S
C831 H855 0.949 . S
H832 C836 0.949 . S
C833 C834 1.349 . S
C833 C835 1.327 . S
C833 H856 0.950 . S
C834 C833 1.349 . S
C834 C846 1.349 . S
C835 C833 1.327 . S
C835 C851 1.429 . S
C835 H857 0.950 . S
C836 H832 0.949 . S
C836 C844 1.574 . S
C836 C852 1.368 . S
H837 C845 0.950 . S
H838 C843 0.950 . S
H839 C844 0.949 . S
H840 C846 0.950 . S
H841 C847 0.950 . S
H842 C848 0.949 . S
C843 H838 0.950 . S
C843 C845 1.327 . S
C843 C849 1.429 . S
C844 C836 1.574 . S
C844 H839 0.949 . S
C844 C850 1.368 . S
C845 C829 1.349 . S
C845 H837 0.950 . S
C845 C843 1.327 . S
C846 C834 1.349 . S
C846 H840 0.950 . S
C846 C847 1.327 . S
C847 H841 0.950 . S
C847 C846 1.327 . S
C847 C851 1.429 . S
C848 C831 1.574 . S
C848 H842 0.949 . S
C848 C852 1.368 . S
C849 C830 1.429 . S
C849 C843 1.429 . S
C849 C850 1.523 . S
C850 C831 1.368 . S
C850 C844 1.368 . S
C850 C849 1.523 . S
C851 C835 1.429 . S
C851 C847 1.429 . S
C851 C852 1.523 . S
C852 C836 1.368 . S
C852 C848 1.368 . S
C852 C851 1.523 . S
H853 C828 0.950 . S
H854 C830 0.950 . S
H855 C831 0.949 . S
H856 C833 0.950 . S
H857 C835 0.950 . S
C858 C859 1.349 . S
C858 C860 1.327 1_545 S
C858 H883 0.950 . S
C859 C858 1.349 . S
C859 C875 1.349 . S
C860 C858 1.327 1_565 S
C860 C879 1.429 . S
C860 H884 0.950 . S
C861 C878 1.574 . S
C861 C880 1.368 . S
C861 H885 0.949 . S
H862 C866 0.949 . S
C863 C864 1.349 . S
C863 C865 1.327 . S
C863 H886 0.950 . S
C864 C863 1.349 . S
C864 C876 1.349 . S
C865 C863 1.327 . S
C865 C881 1.429 . S
C865 H887 0.950 . S
C866 H862 0.949 . S
C866 C874 1.574 . S
C866 C882 1.368 . S
H867 C875 0.950 . S
H868 C873 0.950 . S
H869 C874 0.949 . S
H870 C876 0.950 . S
H871 C877 0.950 . S
H872 C878 0.949 . S
C873 H868 0.950 . S
C873 C875 1.327 . S
C873 C879 1.429 1_545 S
C874 C866 1.574 . S
C874 H869 0.949 . S
C874 C880 1.368 . S
C875 C859 1.349 . S
C875 H867 0.950 . S
C875 C873 1.327 . S
C876 C864 1.349 . S
C876 H870 0.950 . S
C876 C877 1.327 . S
C877 H871 0.950 . S
C877 C876 1.327 . S
C877 C881 1.429 . S
C878 C861 1.574 . S
C878 H872 0.949 . S
C878 C882 1.368 . S
C879 C860 1.429 . S
C879 C873 1.429 1_565 S
C879 C880 1.523 . S
C880 C861 1.368 . S
C880 C874 1.368 . S
C880 C879 1.523 . S
C881 C865 1.429 . S
C881 C877 1.429 . S
C881 C882 1.523 . S
C882 C866 1.368 . S
C882 C878 1.368 . S
C882 C881 1.523 . S
H883 C858 0.950 . S
H884 C860 0.950 . S
H885 C861 0.949 . S
H886 C863 0.950 . S
H887 C865 0.950 . S
C888 C889 1.349 . S
C888 C890 1.327 . S
C888 H913 0.950 . S
C889 C888 1.349 . S
C889 C905 1.349 . S
C890 C888 1.327 . S
C890 C909 1.429 . S
C890 H914 0.950 . S
C891 C908 1.574 . S
C891 C910 1.368 . S
C891 H915 0.949 . S
H892 C896 0.949 . S
C893 C894 1.349 . S
C893 C895 1.327 . S
C893 H916 0.950 . S
C894 C893 1.349 . S
C894 C906 1.349 . S
C895 C893 1.327 . S
C895 C911 1.429 . S
C895 H917 0.950 . S
C896 H892 0.949 . S
C896 C904 1.574 . S
C896 C912 1.368 . S
H897 C905 0.950 . S
H898 C903 0.950 . S
H899 C904 0.949 . S
H900 C906 0.950 . S
H901 C907 0.950 . S
H902 C908 0.949 . S
C903 H898 0.950 . S
C903 C905 1.327 . S
C903 C909 1.429 . S
C904 C896 1.574 . S
C904 H899 0.949 . S
C904 C910 1.368 . S
C905 C889 1.349 . S
C905 H897 0.950 . S
C905 C903 1.327 . S
C906 C894 1.349 . S
C906 H900 0.950 . S
C906 C907 1.327 . S
C907 H901 0.950 . S
C907 C906 1.327 . S
C907 C911 1.429 . S
C908 C891 1.574 . S
C908 H902 0.949 . S
C908 C912 1.368 . S
C909 C890 1.429 . S
C909 C903 1.429 . S
C909 C910 1.523 . S
C910 C891 1.368 . S
C910 C904 1.368 . S
C910 C909 1.523 . S
C911 C895 1.429 . S
C911 C907 1.429 . S
C911 C912 1.523 . S
C912 C896 1.368 . S
C912 C908 1.368 . S
C912 C911 1.523 . S
H913 C888 0.950 . S
H914 C890 0.950 . S
H915 C891 0.949 . S
H916 C893 0.950 . S
H917 C895 0.950 . S
C918 C919 1.349 . S
C918 C920 1.327 1_545 S
C918 H943 0.950 . S
C919 C918 1.349 . S
C919 C935 1.349 . S
C920 C918 1.327 1_565 S
C920 C939 1.429 . S
C920 H944 0.950 . S
C921 C938 1.574 . S
C921 C940 1.368 . S
C921 H945 0.949 . S
H922 C926 0.949 . S
C923 C924 1.349 . S
C923 C925 1.327 . S
C923 H946 0.950 . S
C924 C923 1.349 . S
C924 C936 1.349 . S
C925 C923 1.327 . S
C925 C941 1.429 . S
C925 H947 0.950 . S
C926 H922 0.949 . S
C926 C934 1.574 . S
C926 C942 1.368 . S
H927 C935 0.950 . S
H928 C933 0.950 . S
H929 C934 0.949 . S
H930 C936 0.950 . S
H931 C937 0.950 . S
H932 C938 0.949 . S
C933 H928 0.950 . S
C933 C935 1.327 . S
C933 C939 1.429 1_545 S
C934 C926 1.574 . S
C934 H929 0.949 . S
C934 C940 1.368 . S
C935 C919 1.349 . S
C935 H927 0.950 . S
C935 C933 1.327 . S
C936 C924 1.349 . S
C936 H930 0.950 . S
C936 C937 1.327 . S
C937 H931 0.950 . S
C937 C936 1.327 . S
C937 C941 1.429 . S
C938 C921 1.574 . S
C938 H932 0.949 . S
C938 C942 1.368 . S
C939 C920 1.429 . S
C939 C933 1.429 1_565 S
C939 C940 1.523 . S
C940 C921 1.368 . S
C940 C934 1.368 . S
C940 C939 1.523 . S
C941 C925 1.429 . S
C941 C937 1.429 . S
C941 C942 1.523 . S
C942 C926 1.368 . S
C942 C938 1.368 . S
C942 C941 1.523 . S
H943 C918 0.950 . S
H944 C920 0.950 . S
H945 C921 0.949 . S
H946 C923 0.950 . S
H947 C925 0.950 . S
C948 C949 1.349 . S
C948 C950 1.327 . S
C948 H973 0.950 . S
C949 C948 1.349 . S
C949 C965 1.349 . S
C950 C948 1.327 . S
C950 C969 1.429 . S
C950 H974 0.950 . S
C951 C968 1.574 . S
C951 C970 1.368 . S
C951 H975 0.949 . S
H952 C956 0.949 . S
C953 C954 1.349 . S
C953 C955 1.327 . S
C953 H976 0.950 . S
C954 C953 1.349 . S
C954 C966 1.349 . S
C955 C953 1.327 . S
C955 C971 1.429 . S
C955 H977 0.950 . S
C956 H952 0.949 . S
C956 C964 1.574 . S
C956 C972 1.368 . S
H957 C965 0.950 . S
H958 C963 0.950 . S
H959 C964 0.949 . S
H960 C966 0.950 . S
H961 C967 0.950 . S
H962 C968 0.949 . S
C963 H958 0.950 . S
C963 C965 1.327 . S
C963 C969 1.429 . S
C964 C956 1.574 . S
C964 H959 0.949 . S
C964 C970 1.368 . S
C965 C949 1.349 . S
C965 H957 0.950 . S
C965 C963 1.327 . S
C966 C954 1.349 . S
C966 H960 0.950 . S
C966 C967 1.327 . S
C967 H961 0.950 . S
C967 C966 1.327 . S
C967 C971 1.429 . S
C968 C951 1.574 . S
C968 H962 0.949 . S
C968 C972 1.368 . S
C969 C950 1.429 . S
C969 C963 1.429 . S
C969 C970 1.523 . S
C970 C951 1.368 . S
C970 C964 1.368 . S
C970 C969 1.523 . S
C971 C955 1.429 . S
C971 C967 1.429 . S
C971 C972 1.523 . S
C972 C956 1.368 . S
C972 C968 1.368 . S
C972 C971 1.523 . S
H973 C948 0.950 . S
H974 C950 0.950 . S
H975 C951 0.949 . S
H976 C953 0.950 . S
H977 C955 0.950 . S
C978 C979 1.349 . S
C978 C980 1.327 . S
C978 H1003 0.950 . S
C979 C978 1.349 . S
C979 C995 1.349 . S
C980 C978 1.327 . S
C980 C999 1.429 . S
C980 H1004 0.950 . S
C981 C998 1.574 . S
C981 C1000 1.368 . S
C981 H1005 0.949 . S
H982 C986 0.949 . S
C983 C984 1.349 . S
C983 C985 1.327 1_565 S
C983 H1006 0.950 . S
C984 C983 1.349 . S
C984 C996 1.349 . S
C985 C983 1.327 1_545 S
C985 C1001 1.429 . S
C985 H1007 0.950 . S
C986 H982 0.949 . S
C986 C994 1.574 . S
C986 C1002 1.368 . S
H987 C995 0.950 . S
H988 C993 0.950 . S
H989 C994 0.949 . S
H990 C996 0.950 . S
H991 C997 0.950 . S
H992 C998 0.949 . S
C993 H988 0.950 . S
C993 C995 1.327 . S
C993 C999 1.429 . S
C994 C986 1.574 . S
C994 H989 0.949 . S
C994 C1000 1.368 . S
C995 C979 1.349 . S
C995 H987 0.950 . S
C995 C993 1.327 . S
C996 C984 1.349 . S
C996 H990 0.950 . S
C996 C997 1.327 . S
C997 H991 0.950 . S
C997 C996 1.327 . S
C997 C1001 1.429 1_565 S
C998 C981 1.574 . S
C998 H992 0.949 . S
C998 C1002 1.368 . S
C999 C980 1.429 . S
C999 C993 1.429 . S
C999 C1000 1.523 . S
C1000 C981 1.368 . S
C1000 C994 1.368 . S
C1000 C999 1.523 . S
C1001 C985 1.429 . S
C1001 C997 1.429 1_545 S
C1001 C1002 1.523 . S
C1002 C986 1.368 . S
C1002 C998 1.368 . S
C1002 C1001 1.523 . S
H1003 C978 0.950 . S
H1004 C980 0.950 . S
H1005 C981 0.949 . S
H1006 C983 0.950 . S
H1007 C985 0.950 . S
C1008 C1009 1.349 . S
C1008 C1010 1.327 . S
C1008 H1033 0.950 . S
C1009 C1008 1.349 . S
C1009 C1025 1.349 . S
C1010 C1008 1.327 . S
C1010 C1029 1.429 . S
C1010 H1034 0.950 . S
C1011 C1028 1.574 1_554 S
C1011 C1030 1.368 . S
C1011 H1035 0.949 . S
H1012 C1016 0.949 . S
C1013 C1014 1.349 . S
C1013 C1015 1.327 . S
C1013 H1036 0.950 . S
C1014 C1013 1.349 . S
C1014 C1026 1.349 . S
C1015 C1013 1.327 . S
C1015 C1031 1.429 . S
C1015 H1037 0.950 . S
C1016 H1012 0.949 . S
C1016 C1024 1.574 1_556 S
C1016 C1032 1.368 . S
H1017 C1025 0.950 . S
H1018 C1023 0.950 . S
H1019 C1024 0.949 . S
H1020 C1026 0.950 . S
H1021 C1027 0.950 . S
H1022 C1028 0.949 . S
C1023 H1018 0.950 . S
C1023 C1025 1.327 . S
C1023 C1029 1.429 . S
C1024 C1016 1.574 1_554 S
C1024 H1019 0.949 . S
C1024 C1030 1.368 . S
C1025 C1009 1.349 . S
C1025 H1017 0.950 . S
C1025 C1023 1.327 . S
C1026 C1014 1.349 . S
C1026 H1020 0.950 . S
C1026 C1027 1.327 . S
C1027 H1021 0.950 . S
C1027 C1026 1.327 . S
C1027 C1031 1.429 . S
C1028 C1011 1.574 1_556 S
C1028 H1022 0.949 . S
C1028 C1032 1.368 . S
C1029 C1010 1.429 . S
C1029 C1023 1.429 . S
C1029 C1030 1.523 . S
C1030 C1011 1.368 . S
C1030 C1024 1.368 . S
C1030 C1029 1.523 . S
C1031 C1015 1.429 . S
C1031 C1027 1.429 . S
C1031 C1032 1.523 . S
C1032 C1016 1.368 . S
C1032 C1028 1.368 . S
C1032 C1031 1.523 . S
H1033 C1008 0.950 . S
H1034 C1010 0.950 . S
H1035 C1011 0.949 . S
H1036 C1013 0.950 . S
H1037 C1015 0.950 . S
C1038 C1039 1.349 . S
C1038 C1040 1.327 . S
C1038 H1063 0.950 . S
C1039 C1038 1.349 . S
C1039 C1055 1.349 . S
C1040 C1038 1.327 . S
C1040 C1059 1.429 . S
C1040 H1064 0.950 . S
C1041 C1058 1.574 1_556 S
C1041 C1060 1.368 . S
C1041 H1065 0.949 . S
H1042 C1046 0.949 . S
C1043 C1044 1.349 . S
C1043 C1045 1.327 . S
C1043 H1066 0.950 . S
C1044 C1043 1.349 . S
C1044 C1056 1.349 . S
C1045 C1043 1.327 . S
C1045 C1061 1.429 . S
C1045 H1067 0.950 . S
C1046 H1042 0.949 . S
C1046 C1054 1.574 1_554 S
C1046 C1062 1.368 . S
H1047 C1055 0.950 . S
H1048 C1053 0.950 . S
H1049 C1054 0.949 . S
H1050 C1056 0.950 . S
H1051 C1057 0.950 . S
H1052 C1058 0.949 . S
C1053 H1048 0.950 . S
C1053 C1055 1.327 . S
C1053 C1059 1.429 . S
C1054 C1046 1.574 1_556 S
C1054 H1049 0.949 . S
C1054 C1060 1.368 . S
C1055 C1039 1.349 . S
C1055 H1047 0.950 . S
C1055 C1053 1.327 . S
C1056 C1044 1.349 . S
C1056 H1050 0.950 . S
C1056 C1057 1.327 . S
C1057 H1051 0.950 . S
C1057 C1056 1.327 . S
C1057 C1061 1.429 . S
C1058 C1041 1.574 1_554 S
C1058 H1052 0.949 . S
C1058 C1062 1.368 . S
C1059 C1040 1.429 . S
C1059 C1053 1.429 . S
C1059 C1060 1.523 . S
C1060 C1041 1.368 . S
C1060 C1054 1.368 . S
C1060 C1059 1.523 . S
C1061 C1045 1.429 . S
C1061 C1057 1.429 . S
C1061 C1062 1.523 . S
C1062 C1046 1.368 . S
C1062 C1058 1.368 . S
C1062 C1061 1.523 . S
H1063 C1038 0.950 . S
H1064 C1040 0.950 . S
H1065 C1041 0.949 . S
H1066 C1043 0.950 . S
H1067 C1045 0.950 . S
C1068 C1069 1.349 . S
C1068 C1070 1.327 . S
C1068 H1093 0.950 . S
C1069 C1068 1.349 . S
C1069 C1085 1.349 . S
C1070 C1068 1.327 . S
C1070 C1089 1.429 . S
C1070 H1094 0.950 . S
C1071 C1088 1.574 . S
C1071 C1090 1.368 . S
C1071 H1095 0.949 . S
H1072 C1076 0.949 . S
C1073 C1074 1.349 . S
C1073 C1075 1.327 . S
C1073 H1096 0.950 . S
C1074 C1073 1.349 . S
C1074 C1086 1.349 . S
C1075 C1073 1.327 . S
C1075 C1091 1.429 . S
C1075 H1097 0.950 . S
C1076 H1072 0.949 . S
C1076 C1084 1.574 . S
C1076 C1092 1.368 . S
H1077 C1085 0.950 . S
H1078 C1083 0.950 . S
H1079 C1084 0.949 . S
H1080 C1086 0.950 . S
H1081 C1087 0.950 . S
H1082 C1088 0.949 . S
C1083 H1078 0.950 . S
C1083 C1085 1.327 . S
C1083 C1089 1.429 . S
C1084 C1076 1.574 . S
C1084 H1079 0.949 . S
C1084 C1090 1.368 . S
C1085 C1069 1.349 . S
C1085 H1077 0.950 . S
C1085 C1083 1.327 . S
C1086 C1074 1.349 . S
C1086 H1080 0.950 . S
C1086 C1087 1.327 . S
C1087 H1081 0.950 . S
C1087 C1086 1.327 . S
C1087 C1091 1.429 . S
C1088 C1071 1.574 . S
C1088 H1082 0.949 . S
C1088 C1092 1.368 . S
C1089 C1070 1.429 . S
C1089 C1083 1.429 . S
C1089 C1090 1.523 . S
C1090 C1071 1.368 . S
C1090 C1084 1.368 . S
C1090 C1089 1.523 . S
C1091 C1075 1.429 . S
C1091 C1087 1.429 . S
C1091 C1092 1.523 . S
C1092 C1076 1.368 . S
C1092 C1088 1.368 . S
C1092 C1091 1.523 . S
H1093 C1068 0.950 . S
H1094 C1070 0.950 . S
H1095 C1071 0.949 . S
H1096 C1073 0.950 . S
H1097 C1075 0.950 . S
C1098 C1099 1.349 . S
C1098 C1100 1.327 . S
C1098 H1123 0.950 . S
C1099 C1098 1.349 . S
C1099 C1115 1.349 . S
C1100 C1098 1.327 . S
C1100 C1119 1.429 . S
C1100 H1124 0.950 . S
C1101 C1118 1.574 . S
C1101 C1120 1.368 . S
C1101 H1125 0.949 . S
H1102 C1106 0.949 . S
C1103 C1104 1.349 . S
C1103 C1105 1.327 . S
C1103 H1126 0.950 . S
C1104 C1103 1.349 . S
C1104 C1116 1.349 . S
C1105 C1103 1.327 . S
C1105 C1121 1.429 . S
C1105 H1127 0.950 . S
C1106 H1102 0.949 . S
C1106 C1114 1.574 . S
C1106 C1122 1.368 . S
H1107 C1115 0.950 . S
H1108 C1113 0.950 . S
H1109 C1114 0.949 . S
H1110 C1116 0.950 . S
H1111 C1117 0.950 . S
H1112 C1118 0.949 . S
C1113 H1108 0.950 . S
C1113 C1115 1.327 . S
C1113 C1119 1.429 . S
C1114 C1106 1.574 . S
C1114 H1109 0.949 . S
C1114 C1120 1.368 . S
C1115 C1099 1.349 . S
C1115 H1107 0.950 . S
C1115 C1113 1.327 . S
C1116 C1104 1.349 . S
C1116 H1110 0.950 . S
C1116 C1117 1.327 . S
C1117 H1111 0.950 . S
C1117 C1116 1.327 . S
C1117 C1121 1.429 . S
C1118 C1101 1.574 . S
C1118 H1112 0.949 . S
C1118 C1122 1.368 . S
C1119 C1100 1.429 . S
C1119 C1113 1.429 . S
C1119 C1120 1.523 . S
C1120 C1101 1.368 . S
C1120 C1114 1.368 . S
C1120 C1119 1.523 . S
C1121 C1105 1.429 . S
C1121 C1117 1.429 . S
C1121 C1122 1.523 . S
C1122 C1106 1.368 . S
C1122 C1118 1.368 . S
C1122 C1121 1.523 . S
H1123 C1098 0.950 . S
H1124 C1100 0.950 . S
H1125 C1101 0.949 . S
H1126 C1103 0.950 . S
H1127 C1105 0.950 . S
C1128 C1129 1.349 . S
C1128 C1130 1.327 . S
C1128 H1153 0.950 . S
C1129 C1128 1.349 . S
C1129 C1145 1.349 . S
C1130 C1128 1.327 . S
C1130 C1149 1.429 . S
C1130 H1154 0.950 . S
C1131 C1148 1.574 1_556 S
C1131 C1150 1.368 . S
C1131 H1155 0.949 . S
H1132 C1136 0.949 . S
C1133 C1134 1.349 . S
C1133 C1135 1.327 . S
C1133 H1156 0.950 . S
C1134 C1133 1.349 . S
C1134 C1146 1.349 . S
C1135 C1133 1.327 . S
C1135 C1151 1.429 . S
C1135 H1157 0.950 . S
C1136 H1132 0.949 . S
C1136 C1144 1.574 1_554 S
C1136 C1152 1.368 . S
H1137 C1145 0.950 . S
H1138 C1143 0.950 . S
H1139 C1144 0.949 . S
H1140 C1146 0.950 . S
H1141 C1147 0.950 . S
H1142 C1148 0.949 . S
C1143 H1138 0.950 . S
C1143 C1145 1.327 . S
C1143 C1149 1.429 . S
C1144 C1136 1.574 1_556 S
C1144 H1139 0.949 . S
C1144 C1150 1.368 . S
C1145 C1129 1.349 . S
C1145 H1137 0.950 . S
C1145 C1143 1.327 . S
C1146 C1134 1.349 . S
C1146 H1140 0.950 . S
C1146 C1147 1.327 . S
C1147 H1141 0.950 . S
C1147 C1146 1.327 . S
C1147 C1151 1.429 . S
C1148 C1131 1.574 1_554 S
C1148 H1142 0.949 . S
C1148 C1152 1.368 . S
C1149 C1130 1.429 . S
C1149 C1143 1.429 . S
C1149 C1150 1.523 . S
C1150 C1131 1.368 . S
C1150 C1144 1.368 . S
C1150 C1149 1.523 . S
C1151 C1135 1.429 . S
C1151 C1147 1.429 . S
C1151 C1152 1.523 . S
C1152 C1136 1.368 . S
C1152 C1148 1.368 . S
C1152 C1151 1.523 . S
H1153 C1128 0.950 . S
H1154 C1130 0.950 . S
H1155 C1131 0.949 . S
H1156 C1133 0.950 . S
H1157 C1135 0.950 . S
C1158 C1159 1.349 . S
C1158 C1160 1.327 . S
C1158 H1183 0.950 . S
C1159 C1158 1.349 . S
C1159 C1175 1.349 . S
C1160 C1158 1.327 . S
C1160 C1179 1.429 . S
C1160 H1184 0.950 . S
C1161 C1178 1.574 1_554 S
C1161 C1180 1.368 . S
C1161 H1185 0.949 . S
H1162 C1166 0.949 . S
C1163 C1164 1.349 . S
C1163 C1165 1.327 . S
C1163 H1186 0.950 . S
C1164 C1163 1.349 . S
C1164 C1176 1.349 . S
C1165 C1163 1.327 . S
C1165 C1181 1.429 . S
C1165 H1187 0.950 . S
C1166 H1162 0.949 . S
C1166 C1174 1.574 1_556 S
C1166 C1182 1.368 . S
H1167 C1175 0.950 . S
H1168 C1173 0.950 . S
H1169 C1174 0.949 . S
H1170 C1176 0.950 . S
H1171 C1177 0.950 . S
H1172 C1178 0.949 . S
C1173 H1168 0.950 . S
C1173 C1175 1.327 . S
C1173 C1179 1.429 . S
C1174 C1166 1.574 1_554 S
C1174 H1169 0.949 . S
C1174 C1180 1.368 . S
C1175 C1159 1.349 . S
C1175 H1167 0.950 . S
C1175 C1173 1.327 . S
C1176 C1164 1.349 . S
C1176 H1170 0.950 . S
C1176 C1177 1.327 . S
C1177 H1171 0.950 . S
C1177 C1176 1.327 . S
C1177 C1181 1.429 . S
C1178 C1161 1.574 1_556 S
C1178 H1172 0.949 . S
C1178 C1182 1.368 . S
C1179 C1160 1.429 . S
C1179 C1173 1.429 . S
C1179 C1180 1.523 . S
C1180 C1161 1.368 . S
C1180 C1174 1.368 . S
C1180 C1179 1.523 . S
C1181 C1165 1.429 . S
C1181 C1177 1.429 . S
C1181 C1182 1.523 . S
C1182 C1166 1.368 . S
C1182 C1178 1.368 . S
C1182 C1181 1.523 . S
H1183 C1158 0.950 . S
H1184 C1160 0.950 . S
H1185 C1161 0.949 . S
H1186 C1163 0.950 . S
H1187 C1165 0.950 . S
C1188 C1189 1.349 . S
C1188 C1190 1.327 . S
C1188 H1213 0.950 . S
C1189 C1188 1.349 . S
C1189 C1205 1.349 . S
C1190 C1188 1.327 . S
C1190 C1209 1.429 . S
C1190 H1214 0.950 . S
C1191 C1208 1.574 . S
C1191 C1210 1.368 . S
C1191 H1215 0.949 . S
H1192 C1196 0.949 . S
C1193 C1194 1.349 . S
C1193 C1195 1.327 . S
C1193 H1216 0.950 . S
C1194 C1193 1.349 . S
C1194 C1206 1.349 . S
C1195 C1193 1.327 . S
C1195 C1211 1.429 . S
C1195 H1217 0.950 . S
C1196 H1192 0.949 . S
C1196 C1204 1.574 . S
C1196 C1212 1.368 . S
H1197 C1205 0.950 . S
H1198 C1203 0.950 . S
H1199 C1204 0.949 . S
H1200 C1206 0.950 . S
H1201 C1207 0.950 . S
H1202 C1208 0.949 . S
C1203 H1198 0.950 . S
C1203 C1205 1.327 . S
C1203 C1209 1.429 . S
C1204 C1196 1.574 . S
C1204 H1199 0.949 . S
C1204 C1210 1.368 . S
C1205 C1189 1.349 . S
C1205 H1197 0.950 . S
C1205 C1203 1.327 . S
C1206 C1194 1.349 . S
C1206 H1200 0.950 . S
C1206 C1207 1.327 . S
C1207 H1201 0.950 . S
C1207 C1206 1.327 . S
C1207 C1211 1.429 . S
C1208 C1191 1.574 . S
C1208 H1202 0.949 . S
C1208 C1212 1.368 . S
C1209 C1190 1.429 . S
C1209 C1203 1.429 . S
C1209 C1210 1.523 . S
C1210 C1191 1.368 . S
C1210 C1204 1.368 . S
C1210 C1209 1.523 . S
C1211 C1195 1.429 . S
C1211 C1207 1.429 . S
C1211 C1212 1.523 . S
C1212 C1196 1.368 . S
C1212 C1208 1.368 . S
C1212 C1211 1.523 . S
H1213 C1188 0.950 . S
H1214 C1190 0.950 . S
H1215 C1191 0.949 . S
H1216 C1193 0.950 . S
H1217 C1195 0.950 . S
C1218 C1219 1.349 . S
C1218 C1220 1.327 . S
C1218 H1243 0.950 . S
C1219 C1218 1.349 . S
C1219 C1235 1.349 . S
C1220 C1218 1.327 . S
C1220 C1239 1.429 . S
C1220 H1244 0.950 . S
C1221 C1238 1.574 . S
C1221 C1240 1.368 . S
C1221 H1245 0.949 . S
H1222 C1226 0.949 . S
C1223 C1224 1.349 . S
C1223 C1225 1.327 . S
C1223 H1246 0.950 . S
C1224 C1223 1.349 . S
C1224 C1236 1.349 . S
C1225 C1223 1.327 . S
C1225 C1241 1.429 . S
C1225 H1247 0.950 . S
C1226 H1222 0.949 . S
C1226 C1234 1.574 . S
C1226 C1242 1.368 . S
H1227 C1235 0.950 . S
H1228 C1233 0.950 . S
H1229 C1234 0.949 . S
H1230 C1236 0.950 . S
H1231 C1237 0.950 . S
H1232 C1238 0.949 . S
C1233 H1228 0.950 . S
C1233 C1235 1.327 . S
C1233 C1239 1.429 . S
C1234 C1226 1.574 . S
C1234 H1229 0.949 . S
C1234 C1240 1.368 . S
C1235 C1219 1.349 . S
C1235 H1227 0.950 . S
C1235 C1233 1.327 . S
C1236 C1224 1.349 . S
C1236 H1230 0.950 . S
C1236 C1237 1.327 . S
C1237 H1231 0.950 . S
C1237 C1236 1.327 . S
C1237 C1241 1.429 . S
C1238 C1221 1.574 . S
C1238 H1232 0.949 . S
C1238 C1242 1.368 . S
C1239 C1220 1.429 . S
C1239 C1233 1.429 . S
C1239 C1240 1.523 . S
C1240 C1221 1.368 . S
C1240 C1234 1.368 . S
C1240 C1239 1.523 . S
C1241 C1225 1.429 . S
C1241 C1237 1.429 . S
C1241 C1242 1.523 . S
C1242 C1226 1.368 . S
C1242 C1238 1.368 . S
C1242 C1241 1.523 . S
H1243 C1218 0.950 . S
H1244 C1220 0.950 . S
H1245 C1221 0.949 . S
H1246 C1223 0.950 . S
H1247 C1225 0.950 . S
C1248 C1249 1.349 . S
C1248 C1250 1.327 . S
C1248 H1273 0.950 . S
C1249 C1248 1.349 . S
C1249 C1265 1.349 . S
C1250 C1248 1.327 . S
C1250 C1269 1.429 . S
C1250 H1274 0.950 . S
C1251 C1268 1.574 . S
C1251 C1270 1.368 . S
C1251 H1275 0.949 . S
H1252 C1256 0.949 . S
C1253 C1254 1.349 . S
C1253 C1255 1.327 . S
C1253 H1276 0.950 . S
C1254 C1253 1.349 . S
C1254 C1266 1.349 . S
C1255 C1253 1.327 . S
C1255 C1271 1.429 . S
C1255 H1277 0.950 . S
C1256 H1252 0.949 . S
C1256 C1264 1.574 . S
C1256 C1272 1.368 . S
H1257 C1265 0.950 . S
H1258 C1263 0.950 . S
H1259 C1264 0.949 . S
H1260 C1266 0.950 . S
H1261 C1267 0.950 . S
H1262 C1268 0.949 . S
C1263 H1258 0.950 . S
C1263 C1265 1.327 . S
C1263 C1269 1.429 . S
C1264 C1256 1.574 . S
C1264 H1259 0.949 . S
C1264 C1270 1.368 1_565 S
C1265 C1249 1.349 . S
C1265 H1257 0.950 . S
C1265 C1263 1.327 . S
C1266 C1254 1.349 . S
C1266 H1260 0.950 . S
C1266 C1267 1.327 . S
C1267 H1261 0.950 . S
C1267 C1266 1.327 . S
C1267 C1271 1.429 . S
C1268 C1251 1.574 . S
C1268 H1262 0.949 . S
C1268 C1272 1.368 1_545 S
C1269 C1250 1.429 . S
C1269 C1263 1.429 . S
C1269 C1270 1.523 . S
C1270 C1251 1.368 . S
C1270 C1264 1.368 1_545 S
C1270 C1269 1.523 . S
C1271 C1255 1.429 . S
C1271 C1267 1.429 . S
C1271 C1272 1.523 . S
C1272 C1256 1.368 . S
C1272 C1268 1.368 1_565 S
C1272 C1271 1.523 . S
H1273 C1248 0.950 . S
H1274 C1250 0.950 . S
H1275 C1251 0.949 . S
H1276 C1253 0.950 . S
H1277 C1255 0.950 . S
C1278 C1279 1.349 . S
C1278 C1280 1.327 . S
C1278 H1303 0.950 . S
C1279 C1278 1.349 . S
C1279 C1295 1.349 . S
C1280 C1278 1.327 . S
C1280 C1299 1.429 . S
C1280 H1304 0.950 . S
C1281 C1298 1.574 . S
C1281 C1300 1.368 . S
C1281 H1305 0.949 . S
H1282 C1286 0.949 . S
C1283 C1284 1.349 . S
C1283 C1285 1.327 . S
C1283 H1306 0.950 . S
C1284 C1283 1.349 . S
C1284 C1296 1.349 . S
C1285 C1283 1.327 . S
C1285 C1301 1.429 . S
C1285 H1307 0.950 . S
C1286 H1282 0.949 . S
C1286 C1294 1.574 . S
C1286 C1302 1.368 . S
H1287 C1295 0.950 . S
H1288 C1293 0.950 . S
H1289 C1294 0.949 . S
H1290 C1296 0.950 . S
H1291 C1297 0.950 . S
H1292 C1298 0.949 . S
C1293 H1288 0.950 . S
C1293 C1295 1.327 . S
C1293 C1299 1.429 . S
C1294 C1286 1.574 . S
C1294 H1289 0.949 . S
C1294 C1300 1.368 . S
C1295 C1279 1.349 . S
C1295 H1287 0.950 . S
C1295 C1293 1.327 . S
C1296 C1284 1.349 . S
C1296 H1290 0.950 . S
C1296 C1297 1.327 . S
C1297 H1291 0.950 . S
C1297 C1296 1.327 . S
C1297 C1301 1.429 . S
C1298 C1281 1.574 . S
C1298 H1292 0.949 . S
C1298 C1302 1.368 . S
C1299 C1280 1.429 . S
C1299 C1293 1.429 . S
C1299 C1300 1.523 . S
C1300 C1281 1.368 . S
C1300 C1294 1.368 . S
C1300 C1299 1.523 . S
C1301 C1285 1.429 . S
C1301 C1297 1.429 . S
C1301 C1302 1.523 . S
C1302 C1286 1.368 . S
C1302 C1298 1.368 . S
C1302 C1301 1.523 . S
H1303 C1278 0.950 . S
H1304 C1280 0.950 . S
H1305 C1281 0.949 . S
H1306 C1283 0.950 . S
H1307 C1285 0.950 . S
C1308 C1309 1.349 . S
C1308 C1310 1.327 . S
C1308 H1333 0.950 . S
C1309 C1308 1.349 . S
C1309 C1325 1.349 . S
C1310 C1308 1.327 . S
C1310 C1329 1.429 . S
C1310 H1334 0.950 . S
C1311 C1328 1.574 . S
C1311 C1330 1.368 1_545 S
C1311 H1335 0.949 . S
H1312 C1316 0.949 . S
C1313 C1314 1.349 . S
C1313 C1315 1.327 . S
C1313 H1336 0.950 . S
C1314 C1313 1.349 . S
C1314 C1326 1.349 . S
C1315 C1313 1.327 . S
C1315 C1331 1.429 . S
C1315 H1337 0.950 . S
C1316 H1312 0.949 . S
C1316 C1324 1.574 . S
C1316 C1332 1.368 1_565 S
H1317 C1325 0.950 . S
H1318 C1323 0.950 . S
H1319 C1324 0.949 . S
H1320 C1326 0.950 . S
H1321 C1327 0.950 . S
H1322 C1328 0.949 . S
C1323 H1318 0.950 . S
C1323 C1325 1.327 . S
C1323 C1329 1.429 . S
C1324 C1316 1.574 . S
C1324 H1319 0.949 . S
C1324 C1330 1.368 . S
C1325 C1309 1.349 . S
C1325 H1317 0.950 . S
C1325 C1323 1.327 . S
C1326 C1314 1.349 . S
C1326 H1320 0.950 . S
C1326 C1327 1.327 . S
C1327 H1321 0.950 . S
C1327 C1326 1.327 . S
C1327 C1331 1.429 . S
C1328 C1311 1.574 . S
C1328 H1322 0.949 . S
C1328 C1332 1.368 . S
C1329 C1310 1.429 . S
C1329 C1323 1.429 . S
C1329 C1330 1.523 . S
C1330 C1311 1.368 1_565 S
C1330 C1324 1.368 . S
C1330 C1329 1.523 . S
C1331 C1315 1.429 . S
C1331 C1327 1.429 . S
C1331 C1332 1.523 . S
C1332 C1316 1.368 1_545 S
C1332 C1328 1.368 . S
C1332 C1331 1.523 . S
H1333 C1308 0.950 . S
H1334 C1310 0.950 . S
H1335 C1311 0.949 . S
H1336 C1313 0.950 . S
H1337 C1315 0.950 . S
C1338 C1339 1.349 . S
C1338 C1340 1.327 . S
C1338 H1363 0.950 . S
C1339 C1338 1.349 . S
C1339 C1355 1.349 . S
C1340 C1338 1.327 . S
C1340 C1359 1.429 . S
C1340 H1364 0.950 . S
C1341 C1358 1.574 . S
C1341 C1360 1.368 . S
C1341 H1365 0.949 . S
H1342 C1346 0.949 . S
C1343 C1344 1.349 . S
C1343 C1345 1.327 . S
C1343 H1366 0.950 . S
C1344 C1343 1.349 . S
C1344 C1356 1.349 . S
C1345 C1343 1.327 . S
C1345 C1361 1.429 . S
C1345 H1367 0.950 . S
C1346 H1342 0.949 . S
C1346 C1354 1.574 . S
C1346 C1362 1.368 . S
H1347 C1355 0.950 . S
H1348 C1353 0.950 . S
H1349 C1354 0.949 . S
H1350 C1356 0.950 . S
H1351 C1357 0.950 . S
H1352 C1358 0.949 . S
C1353 H1348 0.950 . S
C1353 C1355 1.327 . S
C1353 C1359 1.429 . S
C1354 C1346 1.574 . S
C1354 H1349 0.949 . S
C1354 C1360 1.368 . S
C1355 C1339 1.349 . S
C1355 H1347 0.950 . S
C1355 C1353 1.327 . S
C1356 C1344 1.349 . S
C1356 H1350 0.950 . S
C1356 C1357 1.327 . S
C1357 H1351 0.950 . S
C1357 C1356 1.327 . S
C1357 C1361 1.429 . S
C1358 C1341 1.574 . S
C1358 H1352 0.949 . S
C1358 C1362 1.368 . S
C1359 C1340 1.429 . S
C1359 C1353 1.429 . S
C1359 C1360 1.523 . S
C1360 C1341 1.368 . S
C1360 C1354 1.368 . S
C1360 C1359 1.523 . S
C1361 C1345 1.429 . S
C1361 C1357 1.429 . S
C1361 C1362 1.523 . S
C1362 C1346 1.368 . S
C1362 C1358 1.368 . S
C1362 C1361 1.523 . S
H1363 C1338 0.950 . S
H1364 C1340 0.950 . S
H1365 C1341 0.949 . S
H1366 C1343 0.950 . S
H1367 C1345 0.950 . S
C1368 C1369 1.349 . S
C1368 C1370 1.327 . S
C1368 H1393 0.950 . S
C1369 C1368 1.349 . S
C1369 C1385 1.349 . S
C1370 C1368 1.327 . S
C1370 C1389 1.429 . S
C1370 H1394 0.950 . S
C1371 C1388 1.574 . S
C1371 C1390 1.368 . S
C1371 H1395 0.949 . S
H1372 C1376 0.949 . S
C1373 C1374 1.349 . S
C1373 C1375 1.327 . S
C1373 H1396 0.950 . S
C1374 C1373 1.349 . S
C1374 C1386 1.349 . S
C1375 C1373 1.327 . S
C1375 C1391 1.429 . S
C1375 H1397 0.950 . S
C1376 H1372 0.949 . S
C1376 C1384 1.574 . S
C1376 C1392 1.368 . S
H1377 C1385 0.950 . S
H1378 C1383 0.950 . S
H1379 C1384 0.949 . S
H1380 C1386 0.950 . S
H1381 C1387 0.950 . S
H1382 C1388 0.949 . S
C1383 H1378 0.950 . S
C1383 C1385 1.327 . S
C1383 C1389 1.429 . S
C1384 C1376 1.574 . S
C1384 H1379 0.949 . S
C1384 C1390 1.368 . S
C1385 C1369 1.349 . S
C1385 H1377 0.950 . S
C1385 C1383 1.327 . S
C1386 C1374 1.349 . S
C1386 H1380 0.950 . S
C1386 C1387 1.327 . S
C1387 H1381 0.950 . S
C1387 C1386 1.327 . S
C1387 C1391 1.429 . S
C1388 C1371 1.574 . S
C1388 H1382 0.949 . S
C1388 C1392 1.368 . S
C1389 C1370 1.429 . S
C1389 C1383 1.429 . S
C1389 C1390 1.523 . S
C1390 C1371 1.368 . S
C1390 C1384 1.368 . S
C1390 C1389 1.523 . S
C1391 C1375 1.429 . S
C1391 C1387 1.429 . S
C1391 C1392 1.523 . S
C1392 C1376 1.368 . S
C1392 C1388 1.368 . S
C1392 C1391 1.523 . S
H1393 C1368 0.950 . S
H1394 C1370 0.950 . S
H1395 C1371 0.949 . S
H1396 C1373 0.950 . S
H1397 C1375 0.950 . S
C1398 C1399 1.349 . S
C1398 C1400 1.327 . S
C1398 H1423 0.950 . S
C1399 C1398 1.349 . S
C1399 C1415 1.349 . S
C1400 C1398 1.327 . S
C1400 C1419 1.429 . S
C1400 H1424 0.950 . S
C1401 C1418 1.574 . S
C1401 C1420 1.368 1_565 S
C1401 H1425 0.949 . S
H1402 C1406 0.949 . S
C1403 C1404 1.349 . S
C1403 C1405 1.327 . S
C1403 H1426 0.950 . S
C1404 C1403 1.349 . S
C1404 C1416 1.349 . S
C1405 C1403 1.327 . S
C1405 C1421 1.429 . S
C1405 H1427 0.950 . S
C1406 H1402 0.949 . S
C1406 C1414 1.574 . S
C1406 C1422 1.368 1_545 S
H1407 C1415 0.950 . S
H1408 C1413 0.950 . S
H1409 C1414 0.949 . S
H1410 C1416 0.950 . S
H1411 C1417 0.950 . S
H1412 C1418 0.949 . S
C1413 H1408 0.950 . S
C1413 C1415 1.327 . S
C1413 C1419 1.429 . S
C1414 C1406 1.574 . S
C1414 H1409 0.949 . S
C1414 C1420 1.368 . S
C1415 C1399 1.349 . S
C1415 H1407 0.950 . S
C1415 C1413 1.327 . S
C1416 C1404 1.349 . S
C1416 H1410 0.950 . S
C1416 C1417 1.327 . S
C1417 H1411 0.950 . S
C1417 C1416 1.327 . S
C1417 C1421 1.429 . S
C1418 C1401 1.574 . S
C1418 H1412 0.949 . S
C1418 C1422 1.368 . S
C1419 C1400 1.429 . S
C1419 C1413 1.429 . S
C1419 C1420 1.523 . S
C1420 C1401 1.368 1_545 S
C1420 C1414 1.368 . S
C1420 C1419 1.523 . S
C1421 C1405 1.429 . S
C1421 C1417 1.429 . S
C1421 C1422 1.523 . S
C1422 C1406 1.368 1_565 S
C1422 C1418 1.368 . S
C1422 C1421 1.523 . S
H1423 C1398 0.950 . S
H1424 C1400 0.950 . S
H1425 C1401 0.949 . S
H1426 C1403 0.950 . S
H1427 C1405 0.950 . S
C1428 C1429 1.349 . S
C1428 C1430 1.327 . S
C1428 H1453 0.950 . S
C1429 C1428 1.349 . S
C1429 C1445 1.349 . S
C1430 C1428 1.327 . S
C1430 C1449 1.429 . S
C1430 H1454 0.950 . S
C1431 C1448 1.574 . S
C1431 C1450 1.368 . S
C1431 H1455 0.949 . S
H1432 C1436 0.949 . S
C1433 C1434 1.349 . S
C1433 C1435 1.327 . S
C1433 H1456 0.950 . S
C1434 C1433 1.349 . S
C1434 C1446 1.349 . S
C1435 C1433 1.327 . S
C1435 C1451 1.429 . S
C1435 H1457 0.950 . S
C1436 H1432 0.949 . S
C1436 C1444 1.574 . S
C1436 C1452 1.368 . S
H1437 C1445 0.950 . S
H1438 C1443 0.950 . S
H1439 C1444 0.949 . S
H1440 C1446 0.950 . S
H1441 C1447 0.950 . S
H1442 C1448 0.949 . S
C1443 H1438 0.950 . S
C1443 C1445 1.327 . S
C1443 C1449 1.429 . S
C1444 C1436 1.574 . S
C1444 H1439 0.949 . S
C1444 C1450 1.368 . S
C1445 C1429 1.349 . S
C1445 H1437 0.950 . S
C1445 C1443 1.327 . S
C1446 C1434 1.349 . S
C1446 H1440 0.950 . S
C1446 C1447 1.327 . S
C1447 H1441 0.950 . S
C1447 C1446 1.327 . S
C1447 C1451 1.429 . S
C1448 C1431 1.574 . S
C1448 H1442 0.949 . S
C1448 C1452 1.368 . S
C1449 C1430 1.429 . S
C1449 C1443 1.429 . S
C1449 C1450 1.523 . S
C1450 C1431 1.368 . S
C1450 C1444 1.368 . S
C1450 C1449 1.523 . S
C1451 C1435 1.429 . S
C1451 C1447 1.429 . S
C1451 C1452 1.523 . S
C1452 C1436 1.368 . S
C1452 C1448 1.368 . S
C1452 C1451 1.523 . S
H1453 C1428 0.950 . S
H1454 C1430 0.950 . S
H1455 C1431 0.949 . S
H1456 C1433 0.950 . S
H1457 C1435 0.950 . S
C1458 C1459 1.349 . S
C1458 C1460 1.327 . S
C1458 H1483 0.950 . S
C1459 C1458 1.349 . S
C1459 C1475 1.349 . S
C1460 C1458 1.327 . S
C1460 C1479 1.429 . S
C1460 H1484 0.950 . S
C1461 C1478 1.574 . S
C1461 C1480 1.368 1_565 S
C1461 H1485 0.949 . S
H1462 C1466 0.949 . S
C1463 C1464 1.349 . S
C1463 C1465 1.327 . S
C1463 H1486 0.950 . S
C1464 C1463 1.349 . S
C1464 C1476 1.349 . S
C1465 C1463 1.327 . S
C1465 C1481 1.429 . S
C1465 H1487 0.950 . S
C1466 H1462 0.949 . S
C1466 C1474 1.574 . S
C1466 C1482 1.368 1_545 S
H1467 C1475 0.950 . S
H1468 C1473 0.950 . S
H1469 C1474 0.949 . S
H1470 C1476 0.950 . S
H1471 C1477 0.950 . S
H1472 C1478 0.949 . S
C1473 H1468 0.950 . S
C1473 C1475 1.327 . S
C1473 C1479 1.429 . S
C1474 C1466 1.574 . S
C1474 H1469 0.949 . S
C1474 C1480 1.368 . S
C1475 C1459 1.349 . S
C1475 H1467 0.950 . S
C1475 C1473 1.327 . S
C1476 C1464 1.349 . S
C1476 H1470 0.950 . S
C1476 C1477 1.327 . S
C1477 H1471 0.950 . S
C1477 C1476 1.327 . S
C1477 C1481 1.429 . S
C1478 C1461 1.574 . S
C1478 H1472 0.949 . S
C1478 C1482 1.368 . S
C1479 C1460 1.429 . S
C1479 C1473 1.429 . S
C1479 C1480 1.523 . S
C1480 C1461 1.368 1_545 S
C1480 C1474 1.368 . S
C1480 C1479 1.523 . S
C1481 C1465 1.429 . S
C1481 C1477 1.429 . S
C1481 C1482 1.523 . S
C1482 C1466 1.368 1_565 S
C1482 C1478 1.368 . S
C1482 C1481 1.523 . S
H1483 C1458 0.950 . S
H1484 C1460 0.950 . S
H1485 C1461 0.949 . S
H1486 C1463 0.950 . S
H1487 C1465 0.950 . S
C1488 C1489 1.349 . S
C1488 C1490 1.327 . S
C1488 H1513 0.950 . S
C1489 C1488 1.349 . S
C1489 C1505 1.349 . S
C1490 C1488 1.327 . S
C1490 C1509 1.429 . S
C1490 H1514 0.950 . S
C1491 C1508 1.574 . S
C1491 C1510 1.368 . S
C1491 H1515 0.949 . S
H1492 C1496 0.949 . S
C1493 C1494 1.349 . S
C1493 C1495 1.327 . S
C1493 H1516 0.950 . S
C1494 C1493 1.349 . S
C1494 C1506 1.349 . S
C1495 C1493 1.327 . S
C1495 C1511 1.429 . S
C1495 H1517 0.950 . S
C1496 H1492 0.949 . S
C1496 C1504 1.574 . S
C1496 C1512 1.368 . S
H1497 C1505 0.950 . S
H1498 C1503 0.950 . S
H1499 C1504 0.949 . S
H1500 C1506 0.950 . S
H1501 C1507 0.950 . S
H1502 C1508 0.949 . S
C1503 H1498 0.950 . S
C1503 C1505 1.327 . S
C1503 C1509 1.429 . S
C1504 C1496 1.574 . S
C1504 H1499 0.949 . S
C1504 C1510 1.368 . S
C1505 C1489 1.349 . S
C1505 H1497 0.950 . S
C1505 C1503 1.327 . S
C1506 C1494 1.349 . S
C1506 H1500 0.950 . S
C1506 C1507 1.327 . S
C1507 H1501 0.950 . S
C1507 C1506 1.327 . S
C1507 C1511 1.429 . S
C1508 C1491 1.574 . S
C1508 H1502 0.949 . S
C1508 C1512 1.368 . S
C1509 C1490 1.429 . S
C1509 C1503 1.429 . S
C1509 C1510 1.523 . S
C1510 C1491 1.368 . S
C1510 C1504 1.368 . S
C1510 C1509 1.523 . S
C1511 C1495 1.429 . S
C1511 C1507 1.429 . S
C1511 C1512 1.523 . S
C1512 C1496 1.368 . S
C1512 C1508 1.368 . S
C1512 C1511 1.523 . S
H1513 C1488 0.950 . S
H1514 C1490 0.950 . S
H1515 C1491 0.949 . S
H1516 C1493 0.950 . S
H1517 C1495 0.950 . S
C1518 C1519 1.349 . S
C1518 C1520 1.327 . S
C1518 H1543 0.950 . S
C1519 C1518 1.349 . S
C1519 C1535 1.349 . S
C1520 C1518 1.327 . S
C1520 C1539 1.429 . S
C1520 H1544 0.950 . S
C1521 C1538 1.574 . S
C1521 C1540 1.368 . S
C1521 H1545 0.949 . S
H1522 C1526 0.949 . S
C1523 C1524 1.349 . S
C1523 C1525 1.327 . S
C1523 H1546 0.950 . S
C1524 C1523 1.349 . S
C1524 C1536 1.349 . S
C1525 C1523 1.327 . S
C1525 C1541 1.429 . S
C1525 H1547 0.950 . S
C1526 H1522 0.949 . S
C1526 C1534 1.574 . S
C1526 C1542 1.368 . S
H1527 C1535 0.950 . S
H1528 C1533 0.950 . S
H1529 C1534 0.949 . S
H1530 C1536 0.950 . S
H1531 C1537 0.950 . S
H1532 C1538 0.949 . S
C1533 H1528 0.950 . S
C1533 C1535 1.327 . S
C1533 C1539 1.429 . S
C1534 C1526 1.574 . S
C1534 H1529 0.949 . S
C1534 C1540 1.368 . S
C1535 C1519 1.349 . S
C1535 H1527 0.950 . S
C1535 C1533 1.327 . S
C1536 C1524 1.349 . S
C1536 H1530 0.950 . S
C1536 C1537 1.327 . S
C1537 H1531 0.950 . S
C1537 C1536 1.327 . S
C1537 C1541 1.429 . S
C1538 C1521 1.574 . S
C1538 H1532 0.949 . S
C1538 C1542 1.368 . S
C1539 C1520 1.429 . S
C1539 C1533 1.429 . S
C1539 C1540 1.523 . S
C1540 C1521 1.368 . S
C1540 C1534 1.368 . S
C1540 C1539 1.523 . S
C1541 C1525 1.429 . S
C1541 C1537 1.429 . S
C1541 C1542 1.523 . S
C1542 C1526 1.368 . S
C1542 C1538 1.368 . S
C1542 C1541 1.523 . S
H1543 C1518 0.950 . S
H1544 C1520 0.950 . S
H1545 C1521 0.949 . S
H1546 C1523 0.950 . S
H1547 C1525 0.950 . S
C1548 C1549 1.349 . S
C1548 C1550 1.327 . S
C1548 H1573 0.950 . S
C1549 C1548 1.349 . S
C1549 C1565 1.349 . S
C1550 C1548 1.327 . S
C1550 C1569 1.429 . S
C1550 H1574 0.950 . S
C1551 C1568 1.574 . S
C1551 C1570 1.368 . S
C1551 H1575 0.949 . S
H1552 C1556 0.949 . S
C1553 C1554 1.349 . S
C1553 C1555 1.327 . S
C1553 H1576 0.950 . S
C1554 C1553 1.349 . S
C1554 C1566 1.349 . S
C1555 C1553 1.327 . S
C1555 C1571 1.429 . S
C1555 H1577 0.950 . S
C1556 H1552 0.949 . S
C1556 C1564 1.574 . S
C1556 C1572 1.368 . S
H1557 C1565 0.950 . S
H1558 C1563 0.950 . S
H1559 C1564 0.949 . S
H1560 C1566 0.950 . S
H1561 C1567 0.950 . S
H1562 C1568 0.949 . S
C1563 H1558 0.950 . S
C1563 C1565 1.327 . S
C1563 C1569 1.429 . S
C1564 C1556 1.574 . S
C1564 H1559 0.949 . S
C1564 C1570 1.368 . S
C1565 C1549 1.349 . S
C1565 H1557 0.950 . S
C1565 C1563 1.327 . S
C1566 C1554 1.349 . S
C1566 H1560 0.950 . S
C1566 C1567 1.327 . S
C1567 H1561 0.950 . S
C1567 C1566 1.327 . S
C1567 C1571 1.429 . S
C1568 C1551 1.574 . S
C1568 H1562 0.949 . S
C1568 C1572 1.368 . S
C1569 C1550 1.429 . S
C1569 C1563 1.429 . S
C1569 C1570 1.523 . S
C1570 C1551 1.368 . S
C1570 C1564 1.368 . S
C1570 C1569 1.523 . S
C1571 C1555 1.429 . S
C1571 C1567 1.429 . S
C1571 C1572 1.523 . S
C1572 C1556 1.368 . S
C1572 C1568 1.368 . S
C1572 C1571 1.523 . S
H1573 C1548 0.950 . S
H1574 C1550 0.950 . S
H1575 C1551 0.949 . S
H1576 C1553 0.950 . S
H1577 C1555 0.950 . S
C1578 C1579 1.349 . S
C1578 C1580 1.327 . S
C1578 H1603 0.950 . S
C1579 C1578 1.349 . S
C1579 C1595 1.349 . S
C1580 C1578 1.327 . S
C1580 C1599 1.429 . S
C1580 H1604 0.950 . S
C1581 C1598 1.574 . S
C1581 C1600 1.368 . S
C1581 H1605 0.949 . S
H1582 C1586 0.949 . S
C1583 C1584 1.349 . S
C1583 C1585 1.327 . S
C1583 H1606 0.950 . S
C1584 C1583 1.349 . S
C1584 C1596 1.349 . S
C1585 C1583 1.327 . S
C1585 C1601 1.429 . S
C1585 H1607 0.950 . S
C1586 H1582 0.949 . S
C1586 C1594 1.574 . S
C1586 C1602 1.368 . S
H1587 C1595 0.950 . S
H1588 C1593 0.950 . S
H1589 C1594 0.949 . S
H1590 C1596 0.950 . S
H1591 C1597 0.950 . S
H1592 C1598 0.949 . S
C1593 H1588 0.950 . S
C1593 C1595 1.327 . S
C1593 C1599 1.429 . S
C1594 C1586 1.574 . S
C1594 H1589 0.949 . S
C1594 C1600 1.368 . S
C1595 C1579 1.349 . S
C1595 H1587 0.950 . S
C1595 C1593 1.327 . S
C1596 C1584 1.349 . S
C1596 H1590 0.950 . S
C1596 C1597 1.327 . S
C1597 H1591 0.950 . S
C1597 C1596 1.327 . S
C1597 C1601 1.429 . S
C1598 C1581 1.574 . S
C1598 H1592 0.949 . S
C1598 C1602 1.368 . S
C1599 C1580 1.429 . S
C1599 C1593 1.429 . S
C1599 C1600 1.523 . S
C1600 C1581 1.368 . S
C1600 C1594 1.368 . S
C1600 C1599 1.523 . S
C1601 C1585 1.429 . S
C1601 C1597 1.429 . S
C1601 C1602 1.523 . S
C1602 C1586 1.368 . S
C1602 C1598 1.368 . S
C1602 C1601 1.523 . S
H1603 C1578 0.950 . S
H1604 C1580 0.950 . S
H1605 C1581 0.949 . S
H1606 C1583 0.950 . S
H1607 C1585 0.950 . S
C1608 C1609 1.349 . S
C1608 C1610 1.327 . S
C1608 H1633 0.950 . S
C1609 C1608 1.349 . S
C1609 C1625 1.349 . S
C1610 C1608 1.327 . S
C1610 C1629 1.429 . S
C1610 H1634 0.950 . S
C1611 C1628 1.574 1_655 S
C1611 C1630 1.368 . S
C1611 H1635 0.949 . S
H1612 C1616 0.949 . S
C1613 C1614 1.349 . S
C1613 C1615 1.327 . S
C1613 H1636 0.950 . S
C1614 C1613 1.349 . S
C1614 C1626 1.349 . S
C1615 C1613 1.327 . S
C1615 C1631 1.429 . S
C1615 H1637 0.950 . S
C1616 H1612 0.949 . S
C1616 C1624 1.574 1_455 S
C1616 C1632 1.368 . S
H1617 C1625 0.950 . S
H1618 C1623 0.950 . S
H1619 C1624 0.949 . S
H1620 C1626 0.950 . S
H1621 C1627 0.950 . S
H1622 C1628 0.949 . S
C1623 H1618 0.950 . S
C1623 C1625 1.327 . S
C1623 C1629 1.429 . S
C1624 C1616 1.574 1_655 S
C1624 H1619 0.949 . S
C1624 C1630 1.368 . S
C1625 C1609 1.349 . S
C1625 H1617 0.950 . S
C1625 C1623 1.327 . S
C1626 C1614 1.349 . S
C1626 H1620 0.950 . S
C1626 C1627 1.327 . S
C1627 H1621 0.950 . S
C1627 C1626 1.327 . S
C1627 C1631 1.429 . S
C1628 C1611 1.574 1_455 S
C1628 H1622 0.949 . S
C1628 C1632 1.368 . S
C1629 C1610 1.429 . S
C1629 C1623 1.429 . S
C1629 C1630 1.523 . S
C1630 C1611 1.368 . S
C1630 C1624 1.368 . S
C1630 C1629 1.523 . S
C1631 C1615 1.429 . S
C1631 C1627 1.429 . S
C1631 C1632 1.523 . S
C1632 C1616 1.368 . S
C1632 C1628 1.368 . S
C1632 C1631 1.523 . S
H1633 C1608 0.950 . S
H1634 C1610 0.950 . S
H1635 C1611 0.949 . S
H1636 C1613 0.950 . S
H1637 C1615 0.950 . S
C1638 C1639 1.349 . S
C1638 C1640 1.327 . S
C1638 H1663 0.950 . S
C1639 C1638 1.349 . S
C1639 C1655 1.349 . S
C1640 C1638 1.327 . S
C1640 C1659 1.429 . S
C1640 H1664 0.950 . S
C1641 C1658 1.574 1_455 S
C1641 C1660 1.368 . S
C1641 H1665 0.949 . S
H1642 C1646 0.949 . S
C1643 C1644 1.349 . S
C1643 C1645 1.327 . S
C1643 H1666 0.950 . S
C1644 C1643 1.349 . S
C1644 C1656 1.349 . S
C1645 C1643 1.327 . S
C1645 C1661 1.429 . S
C1645 H1667 0.950 . S
C1646 H1642 0.949 . S
C1646 C1654 1.574 1_655 S
C1646 C1662 1.368 . S
H1647 C1655 0.950 . S
H1648 C1653 0.950 . S
H1649 C1654 0.949 . S
H1650 C1656 0.950 . S
H1651 C1657 0.950 . S
H1652 C1658 0.949 . S
C1653 H1648 0.950 . S
C1653 C1655 1.327 . S
C1653 C1659 1.429 . S
C1654 C1646 1.574 1_455 S
C1654 H1649 0.949 . S
C1654 C1660 1.368 . S
C1655 C1639 1.349 . S
C1655 H1647 0.950 . S
C1655 C1653 1.327 . S
C1656 C1644 1.349 . S
C1656 H1650 0.950 . S
C1656 C1657 1.327 . S
C1657 H1651 0.950 . S
C1657 C1656 1.327 . S
C1657 C1661 1.429 . S
C1658 C1641 1.574 1_655 S
C1658 H1652 0.949 . S
C1658 C1662 1.368 . S
C1659 C1640 1.429 . S
C1659 C1653 1.429 . S
C1659 C1660 1.523 . S
C1660 C1641 1.368 . S
C1660 C1654 1.368 . S
C1660 C1659 1.523 . S
C1661 C1645 1.429 . S
C1661 C1657 1.429 . S
C1661 C1662 1.523 . S
C1662 C1646 1.368 . S
C1662 C1658 1.368 . S
C1662 C1661 1.523 . S
H1663 C1638 0.950 . S
H1664 C1640 0.950 . S
H1665 C1641 0.949 . S
H1666 C1643 0.950 . S
H1667 C1645 0.950 . S
C1668 C1669 1.349 . S
C1668 C1670 1.327 . S
C1668 H1693 0.950 . S
C1669 C1668 1.349 . S
C1669 C1685 1.349 . S
C1670 C1668 1.327 . S
C1670 C1689 1.429 . S
C1670 H1694 0.950 . S
C1671 C1688 1.574 1_455 S
C1671 C1690 1.368 . S
C1671 H1695 0.949 . S
H1672 C1676 0.949 . S
C1673 C1674 1.349 . S
C1673 C1675 1.327 . S
C1673 H1696 0.950 . S
C1674 C1673 1.349 . S
C1674 C1686 1.349 . S
C1675 C1673 1.327 . S
C1675 C1691 1.429 . S
C1675 H1697 0.950 . S
C1676 H1672 0.949 . S
C1676 C1684 1.574 1_655 S
C1676 C1692 1.368 . S
H1677 C1685 0.950 . S
H1678 C1683 0.950 . S
H1679 C1684 0.949 . S
H1680 C1686 0.950 . S
H1681 C1687 0.950 . S
H1682 C1688 0.949 . S
C1683 H1678 0.950 . S
C1683 C1685 1.327 . S
C1683 C1689 1.429 . S
C1684 C1676 1.574 1_455 S
C1684 H1679 0.949 . S
C1684 C1690 1.368 . S
C1685 C1669 1.349 . S
C1685 H1677 0.950 . S
C1685 C1683 1.327 . S
C1686 C1674 1.349 . S
C1686 H1680 0.950 . S
C1686 C1687 1.327 . S
C1687 H1681 0.950 . S
C1687 C1686 1.327 . S
C1687 C1691 1.429 . S
C1688 C1671 1.574 1_655 S
C1688 H1682 0.949 . S
C1688 C1692 1.368 . S
C1689 C1670 1.429 . S
C1689 C1683 1.429 . S
C1689 C1690 1.523 . S
C1690 C1671 1.368 . S
C1690 C1684 1.368 . S
C1690 C1689 1.523 . S
C1691 C1675 1.429 . S
C1691 C1687 1.429 . S
C1691 C1692 1.523 . S
C1692 C1676 1.368 . S
C1692 C1688 1.368 . S
C1692 C1691 1.523 . S
H1693 C1668 0.950 . S
H1694 C1670 0.950 . S
H1695 C1671 0.949 . S
H1696 C1673 0.950 . S
H1697 C1675 0.950 . S
C1698 C1699 1.349 . S
C1698 C1700 1.327 . S
C1698 H1723 0.950 . S
C1699 C1698 1.349 . S
C1699 C1715 1.349 . S
C1700 C1698 1.327 . S
C1700 C1719 1.429 . S
C1700 H1724 0.950 . S
C1701 C1718 1.574 1_655 S
C1701 C1720 1.368 . S
C1701 H1725 0.949 . S
H1702 C1706 0.949 . S
C1703 C1704 1.349 . S
C1703 C1705 1.327 . S
C1703 H1726 0.950 . S
C1704 C1703 1.349 . S
C1704 C1716 1.349 . S
C1705 C1703 1.327 . S
C1705 C1721 1.429 . S
C1705 H1727 0.950 . S
C1706 H1702 0.949 . S
C1706 C1714 1.574 1_455 S
C1706 C1722 1.368 . S
H1707 C1715 0.950 . S
H1708 C1713 0.950 . S
H1709 C1714 0.949 . S
H1710 C1716 0.950 . S
H1711 C1717 0.950 . S
H1712 C1718 0.949 . S
C1713 H1708 0.950 . S
C1713 C1715 1.327 . S
C1713 C1719 1.429 . S
C1714 C1706 1.574 1_655 S
C1714 H1709 0.949 . S
C1714 C1720 1.368 . S
C1715 C1699 1.349 . S
C1715 H1707 0.950 . S
C1715 C1713 1.327 . S
C1716 C1704 1.349 . S
C1716 H1710 0.950 . S
C1716 C1717 1.327 . S
C1717 H1711 0.950 . S
C1717 C1716 1.327 . S
C1717 C1721 1.429 . S
C1718 C1701 1.574 1_455 S
C1718 H1712 0.949 . S
C1718 C1722 1.368 . S
C1719 C1700 1.429 . S
C1719 C1713 1.429 . S
C1719 C1720 1.523 . S
C1720 C1701 1.368 . S
C1720 C1714 1.368 . S
C1720 C1719 1.523 . S
C1721 C1705 1.429 . S
C1721 C1717 1.429 . S
C1721 C1722 1.523 . S
C1722 C1706 1.368 . S
C1722 C1718 1.368 . S
C1722 C1721 1.523 . S
H1723 C1698 0.950 . S
H1724 C1700 0.950 . S
H1725 C1701 0.949 . S
H1726 C1703 0.950 . S
H1727 C1705 0.950 . S
C529 C28 0.520 . S
C534 C470 0.523 . S
C559 C61 0.520 . S
C564 C503 0.523 . S
C589 C94 0.520 . S
C594 C404 0.523 . S
C619 C437 0.523 . S
C624 C127 0.520 . S
C649 C160 0.520 . S
C654 C338 0.523 . S
C679 C193 0.520 . S
C684 C371 0.523 . S
C709 C226 0.520 . S
C714 C272 0.523 . S
C739 C305 0.523 . S
C744 C259 0.520 . S
C769 C292 0.520 . S
C774 C206 0.523 . S
C799 C239 0.523 . S
C804 C325 0.520 . S
C829 C358 0.520 . S
C834 C140 0.523 . S
C859 C391 0.520 . S
C864 C173 0.523 . S
C889 C424 0.520 . S
C894 C74 0.523 . S
C919 C457 0.520 . S
C924 C107 0.523 . S
C949 C8 0.523 . S
C954 C490 0.520 . S
C979 C41 0.523 . S
C984 C523 0.520 . S
C1009 N14 1.901 . S
C1014 N377 1.901 . S
C1039 N344 1.901 . S
C1044 N47 1.901 . S
C1069 N80 1.901 . S
C1074 N311 1.901 . S
C1099 N278 1.901 . S
C1104 N113 1.901 . S
C1129 N146 1.901 . S
C1134 N509 1.901 . S
C1159 N476 1.901 . S
C1164 N179 1.901 . S
C1189 N212 1.901 . S
C1194 N443 1.901 . S
C1219 N245 1.901 . S
C1224 N410 1.901 . S
C1249 N5 1.937 . S
C1254 N71 1.937 . S
C1279 N38 1.937 . S
C1284 N104 1.937 . S
C1309 N137 1.937 . S
C1314 N203 1.937 . S
C1339 N236 1.937 . S
C1344 N170 1.937 . S
C1369 N335 1.937 . S
C1374 N269 1.937 . S
C1399 N368 1.937 . S
C1404 N302 1.937 . S
C1429 N401 1.937 . S
C1434 N467 1.937 . S
C1459 N434 1.937 . S
C1464 N500 1.937 . S
C1489 C50 1.532 . S
C1494 C17 1.532 . S
C1519 C83 1.532 . S
C1524 C116 1.532 . S
C1549 C149 1.532 . S
C1554 C182 1.532 . S
C1579 C248 1.532 . S
C1584 C215 1.532 . S
C1609 C281 1.532 . S
C1614 C314 1.532 . S
C1639 C380 1.532 . S
C1644 C347 1.532 . S
C1669 C413 1.532 . S
C1674 C446 1.532 . S
C1699 C512 1.532 . S
C1704 C479 1.532 . S
