# Generated by pormake.
# Topology uoc, (4)-cn, num edge types: 1
# Building blocks:
#     Node 0, Type 0, BuildingBlock: ESEHIV_clean_sbu_0, # of connection points: 4
#     Node 1, Type 0, BuildingBlock: ESEHIV_clean_sbu_0, # of connection points: 4
#     Node 2, Type 0, BuildingBlock: ESEHIV_clean_sbu_0, # of connection points: 4
#     Node 3, Type 0, BuildingBlock: ESEHIV_clean_sbu_0, # of connection points: 4
#     Node 4, Type 0, BuildingBlock: ESEHIV_clean_sbu_0, # of connection points: 4
#     Node 5, Type 0, BuildingBlock: ESEHIV_clean_sbu_0, # of connection points: 4
#     Node 6, Type 0, BuildingBlock: ESEHIV_clean_sbu_0, # of connection points: 4
#     Node 7, Type 0, BuildingBlock: ESEHIV_clean_sbu_0, # of connection points: 4
#     Edge 8, Type (0, 0), BuildingBlock: ZUJKAS_clean_linker_0, # of connection points: 2
#     Edge 9, Type (0, 0), BuildingBlock: ZUJKAS_clean_linker_0, # of connection points: 2
#     Edge 10, Type (0, 0), BuildingBlock: ZUJKAS_clean_linker_0, # of connection points: 2
#     Edge 11, Type (0, 0), BuildingBlock: ZUJKAS_clean_linker_0, # of connection points: 2
#     Edge 12, Type (0, 0), BuildingBlock: ZUJKAS_clean_linker_0, # of connection points: 2
#     Edge 13, Type (0, 0), BuildingBlock: ZUJKAS_clean_linker_0, # of connection points: 2
#     Edge 14, Type (0, 0), BuildingBlock: ZUJKAS_clean_linker_0, # of connection points: 2
#     Edge 15, Type (0, 0), BuildingBlock: ZUJKAS_clean_linker_0, # of connection points: 2
#     Edge 16, Type (0, 0), BuildingBlock: ZUJKAS_clean_linker_0, # of connection points: 2
#     Edge 17, Type (0, 0), BuildingBlock: ZUJKAS_clean_linker_0, # of connection points: 2
#     Edge 18, Type (0, 0), BuildingBlock: ZUJKAS_clean_linker_0, # of connection points: 2
#     Edge 19, Type (0, 0), BuildingBlock: ZUJKAS_clean_linker_0, # of connection points: 2
#     Edge 20, Type (0, 0), BuildingBlock: ZUJKAS_clean_linker_0, # of connection points: 2
#     Edge 21, Type (0, 0), BuildingBlock: ZUJKAS_clean_linker_0, # of connection points: 2
#     Edge 22, Type (0, 0), BuildingBlock: ZUJKAS_clean_linker_0, # of connection points: 2
#     Edge 23, Type (0, 0), BuildingBlock: ZUJKAS_clean_linker_0, # of connection points: 2
# Relax obj value: 0.049
# Max RMSD: 0.255
# Mean RMSD: 0.255
data_MOF--net-uoc--node1-ESEHIV_clean_sbu_0--edge1-ZUJKAS_clean_linker_0
_symmetry_space_group_name_H-M    P1
_symmetry_Int_Tables_number       1
_symmetry_cell_setting            triclinic
loop_
_symmetry_equiv_pos_as_xyz
'x, y, z'
_cell_length_a     41.430017
_cell_length_b     41.303506
_cell_length_c     67.807245
_cell_angle_alpha  89.9398
_cell_angle_beta   90.008884
_cell_angle_gamma 91.489646
loop_
_atom_site_label
_atom_site_type_symbol
_atom_site_fract_x
_atom_site_fract_y
_atom_site_fract_z
_atom_type_partial_charge
Cu0 Cu 0.10241 0.27086 0.14936 0.0
N1 N 0.07862 0.23548 0.15919 0.0
N2 N 0.05674 0.18616 0.16413 0.0
C3 C 0.07508 0.20514 0.15207 0.0
C4 C 0.04823 0.20546 0.17922 0.0
C5 C 0.06169 0.2358 0.1761 0.0
O6 O 0.12557 0.25981 0.12543 0.0
C7 C 0.14366 0.26829 0.18248 0.0
O8 O 0.14062 0.23689 0.17974 0.0
H9 H 0.08628 0.19697 0.13861 0.0
H10 H 0.05964 0.25667 0.18559 0.0
N11 N 0.07309 0.30246 0.14285 0.0
N12 N 0.04895 0.34992 0.1397 0.0
C13 C 0.07507 0.33446 0.14655 0.0
C14 C 0.04487 0.29739 0.13342 0.0
C15 C 0.02993 0.32659 0.13144 0.0
C16 C 0.14445 0.23615 0.12382 0.0
O17 O 0.15022 0.21814 0.13933 0.0
H18 H 0.09541 0.34612 0.15393 0.0
H19 H 0.03578 0.274 0.12846 0.0
O20 O 0.13039 0.28736 0.17033 0.0
H21 H 0.03323 0.19823 0.19161 0.0
H22 H 1.0066 0.3302 0.12472 0.0
Cu23 Cu 0.76181 0.60422 0.40196 0.0
N24 N 0.72766 0.57906 0.39211 0.0
N25 N 0.67861 0.55672 0.3876 0.0
C26 C 0.69714 0.57679 0.39885 0.0
C27 C 0.69837 0.54597 0.37333 0.0
C28 C 0.72861 0.55976 0.37618 0.0
O29 O 0.74703 0.62924 0.42426 0.0
C30 C 0.76027 0.64574 0.36908 0.0
O31 O 0.72903 0.64438 0.37246 0.0
H32 H 0.68856 0.59016 0.41144 0.0
H33 H 0.74983 0.55621 0.36722 0.0
N34 N 0.79339 0.57641 0.41062 0.0
N35 N 0.84074 0.55283 0.4149 0.0
C36 C 0.82465 0.5761 0.40528 0.0
C37 C 0.78944 0.55257 0.42398 0.0
C38 C 0.81862 0.53799 0.42669 0.0
C39 C 0.76697 0.64144 0.43662 0.0
O40 O 0.79807 0.63896 0.43335 0.0
H41 H 0.83544 0.59305 0.39486 0.0
H42 H 0.76689 0.54638 0.43127 0.0
O43 O 0.77904 0.63113 0.38076 0.0
H44 H 0.69153 0.5292 0.36172 0.0
H45 H 0.8231 0.51785 0.43645 0.0
Cu46 Cu 0.42896 0.26694 0.64788 0.0
N47 N 0.45991 0.29958 0.65211 0.0
N48 N 0.48527 0.34783 0.65397 0.0
C49 C 0.45773 0.33162 0.64893 0.0
C50 C 0.50543 0.32499 0.6605 0.0
C51 C 0.48972 0.29531 0.65932 0.0
O52 O 0.40228 0.27779 0.62547 0.0
C53 C 0.38505 0.2367 0.67513 0.0
O54 O 0.3776 0.21709 0.66048 0.0
H55 H 0.43626 0.34281 0.64333 0.0
H56 H 0.49931 0.27213 0.66342 0.0
N57 N 0.45082 0.23017 0.64052 0.0
N58 N 0.47307 0.18154 0.63968 0.0
C59 C 0.45581 0.20251 0.65048 0.0
C60 C 0.4653 0.22665 0.62296 0.0
C61 C 0.47899 0.19675 0.62236 0.0
C62 C 0.3812 0.29954 0.62445 0.0
O63 O 0.3744 0.31652 0.64021 0.0
H64 H 0.44712 0.198 0.66531 0.0
H65 H 0.46558 0.24461 0.61133 0.0
O66 O 0.40546 0.25976 0.6723 0.0
H67 H 0.52994 0.32931 0.66555 0.0
H68 H 0.49161 0.18673 0.60991 0.0
Cu69 Cu 0.757 0.92862 0.90618 0.0
N70 N 0.78897 0.95795 0.89801 0.0
N71 N 0.83689 0.98297 0.89414 0.0
C72 C 0.82078 0.95707 0.90183 0.0
C73 C 0.81426 1.00072 0.88514 0.0
C74 C 0.78471 0.98517 0.88756 0.0
O75 O 0.7743 0.90111 0.92658 0.0
C76 C 0.76118 0.89054 0.87201 0.0
O77 O 0.79211 0.89158 0.87632 0.0
H78 H 0.83171 0.93813 0.91039 0.0
H79 H 0.76166 0.99318 0.88218 0.0
N80 N 0.72376 0.95229 0.91685 0.0
N81 N 0.67678 0.97672 0.92081 0.0
C82 C 0.69424 0.95703 0.90928 0.0
C83 C 0.72519 0.9695 0.93364 0.0
C84 C 0.69624 0.98457 0.93615 0.0
C85 C 0.75579 0.88408 0.93766 0.0
O86 O 0.72455 0.88356 0.93429 0.0
H87 H 0.68582 0.9461 0.89566 0.0
H88 H 0.74603 0.97123 0.94323 0.0
O89 O 0.74149 0.90424 0.88351 0.0
H90 H 0.81876 0.02313 0.87721 0.0
H91 H 0.69033 1.00059 0.94816 0.0
Cu92 Cu 0.60554 0.77088 0.65189 0.0
N93 N 0.5805 0.73577 0.66075 0.0
N94 N 0.55724 0.68668 0.66399 0.0
C95 C 0.57833 0.70543 0.65354 0.0
C96 C 0.5457 0.70616 0.67818 0.0
C97 C 0.56005 0.73637 0.67611 0.0
O98 O 0.62974 0.75988 0.62842 0.0
C99 C 0.6448 0.76768 0.68591 0.0
O100 O 0.64075 0.73628 0.6835 0.0
H101 H 0.5922 0.69726 0.64107 0.0
H102 H 0.55587 0.75744 0.68513 0.0
N103 N 0.57732 0.80295 0.64464 0.0
N104 N 0.55228 0.84996 0.6424 0.0
C105 C 0.57543 0.83328 0.6517 0.0
C106 C 0.55459 0.80023 0.63055 0.0
C107 C 0.53912 0.82921 0.62909 0.0
C108 C 0.65017 0.73753 0.62712 0.0
O109 O 0.65705 0.7204 0.64282 0.0
H110 H 0.59119 0.8431 0.66307 0.0
H111 H 0.5498 0.77866 0.62188 0.0
O112 O 0.63265 0.78682 0.67337 0.0
H113 H 0.5278 0.69928 0.68913 0.0
H114 H 0.5196 0.83454 0.61909 0.0
Cu115 Cu 0.26127 0.09853 0.8982 0.0
N116 N 0.22589 0.07175 0.89214 0.0
N117 N 0.17647 0.04915 0.89092 0.0
C118 C 0.19511 0.07356 0.89832 0.0
C119 C 0.19627 0.03156 0.87961 0.0
C120 C 0.22667 0.04564 0.88034 0.0
O121 O 0.25116 0.12519 0.921 0.0
C122 C 0.29182 0.14586 0.87234 0.0
O123 O 0.30783 0.15668 0.88782 0.0
H124 H 0.18669 0.09209 0.90821 0.0
H125 H 0.24799 0.03744 0.87284 0.0
N126 N 0.29527 0.0715 0.90434 0.0
N127 N 0.34424 0.05098 0.90822 0.0
C128 C 0.32735 0.07704 0.90263 0.0
C129 C 0.29182 0.04098 0.91111 0.0
C130 C 0.32186 0.0283 0.91354 0.0
C131 C 0.2454 0.11033 0.93715 0.0
O132 O 0.24638 0.07858 0.93736 0.0
H133 H 0.33801 0.09968 0.89746 0.0
H134 H 0.26893 0.02866 0.91392 0.0
O135 O 0.27123 0.12273 0.87434 0.0
H136 H 0.18916 1.01034 0.87114 0.0
H137 H 0.32673 1.00395 0.9184 0.0
Cu138 Cu 0.92686 0.76538 0.15172 0.0
N139 N 0.95186 0.79986 0.16138 0.0
N140 N 0.97366 0.8493 0.16577 0.0
C141 C 0.95387 0.83046 0.15454 0.0
C142 C 0.98452 0.82968 0.18013 0.0
C143 C 0.97106 0.7992 0.17734 0.0
O144 O 0.90061 0.78022 0.12999 0.0
C145 C 0.88482 0.76636 0.18418 0.0
O146 O 0.88422 0.79739 0.17993 0.0
H147 H 0.94046 0.83887 0.14191 0.0
H148 H 0.97471 0.77804 0.18641 0.0
N149 N 0.95449 0.734 0.14254 0.0
N150 N 0.97854 0.68682 0.13799 0.0
C151 C 0.95523 0.70258 0.14775 0.0
C152 C 0.97804 0.7384 0.1291 0.0
C153 C 0.99292 0.70935 0.12624 0.0
C154 C 0.88669 0.76026 0.11829 0.0
O155 O 0.88877 0.72906 0.12171 0.0
H156 H 0.93868 0.6915 0.15826 0.0
H157 H 0.98397 0.7612 0.12195 0.0
O158 O 0.90097 0.74777 0.17322 0.0
H159 H 1.0011 0.83678 0.19177 0.0
H160 H 1.01306 0.7053 0.11647 0.0
Cu161 Cu 0.25656 0.43363 0.40067 0.0
N162 N 0.29274 0.45571 0.39071 0.0
N163 N 0.34256 0.47608 0.38597 0.0
C164 C 0.32298 0.45825 0.39796 0.0
C165 C 0.32378 0.48516 0.37077 0.0
C166 C 0.29314 0.47261 0.37376 0.0
O167 O 0.26577 0.41321 0.42579 0.0
C168 C 0.2596 0.38933 0.36904 0.0
O169 O 0.29086 0.39225 0.37206 0.0
H170 H 0.33054 0.44685 0.41151 0.0
H171 H 0.27246 0.47545 0.36423 0.0
N172 N 0.22544 0.46425 0.40538 0.0
N173 N 0.17812 0.48834 0.40847 0.0
C174 C 0.19327 0.46125 0.40289 0.0
C175 C 0.23089 0.49415 0.41267 0.0
C176 C 0.20175 0.50908 0.41461 0.0
C177 C 0.28654 0.39161 0.4288 0.0
O178 O 0.30323 0.38059 0.41389 0.0
H179 H 0.18124 0.43941 0.39753 0.0
H180 H 0.25445 0.50425 0.41641 0.0
O181 O 0.24044 0.40379 0.38055 0.0
H182 H 0.33152 0.50014 0.35846 0.0
H183 H 0.19828 0.5334 0.42 0.0
H184 H 0.14057 0.27015 0.08917 0.0
H185 H 0.15892 0.25355 0.05642 0.0
H186 H 0.19603 0.16593 0.08125 0.0
H187 H 0.17796 0.18227 0.11403 0.0
H188 H 0.22618 0.23252 0.04357 0.0
H189 H 0.12778 0.13907 0.03668 0.0
H190 H 0.12558 0.17282 0.05351 0.0
H191 H 0.15018 0.13901 0.05942 0.0
C192 C 0.15287 0.24746 0.08771 0.0
C193 C 0.15762 0.22744 0.10423 0.0
C194 C 0.16338 0.23808 0.06899 0.0
C195 C 0.17855 0.20843 0.06643 0.0
C196 C 0.18414 0.18882 0.08293 0.0
H197 H 0.24167 0.08529 0.97415 0.0
H198 H 0.22612 0.11221 1.00446 0.0
C199 C 0.17385 0.19825 0.10166 0.0
C200 C 0.18742 0.19717 0.04646 0.0
H201 H 0.16857 0.1391 1.01232 0.0
C202 C 0.21351 0.21228 0.03659 0.0
C203 C 0.17067 0.17089 0.03745 0.0
C204 C 0.14181 0.15455 0.04717 0.0
C205 C 0.2242 0.2008 1.01823 0.0
C206 C 0.20787 0.17397 1.00941 0.0
C207 C 0.18116 0.15959 1.01909 0.0
C208 C 0.21909 0.15887 0.99081 0.0
C209 C 0.25362 0.21662 1.00885 0.0
C210 C 0.22054 0.17618 0.97295 0.0
C211 C 0.22973 0.16079 0.95545 0.0
C212 C 0.23721 0.12775 0.95552 0.0
C213 C 0.23594 0.11071 0.97349 0.0
C214 C 0.22703 0.12608 0.99088 0.0
H215 H 0.26756 0.23185 1.01952 0.0
H216 H 0.26979 0.19814 1.0027 0.0
H217 H 0.24591 0.23242 0.99657 0.0
H218 H 0.21392 0.20135 0.97244 0.0
H219 H 0.2303 0.17453 0.94183 0.0
H220 H 0.82312 0.65016 0.35645 0.0
H221 H 0.84323 0.67221 0.32514 0.0
H222 H 0.74661 0.69824 0.30905 0.0
H223 H 0.7262 0.67602 0.34021 0.0
H224 H 0.77856 0.66463 0.27952 0.0
H225 H 0.85454 0.76706 0.30781 0.0
H226 H 0.86297 0.72856 0.31875 0.0
H227 H 0.82439 0.74636 0.32275 0.0
C228 C 0.80617 0.66091 0.34637 0.0
C229 C 0.77303 0.66137 0.35088 0.0
C230 C 0.81774 0.67361 0.32849 0.0
C231 C 0.79646 0.68716 0.31485 0.0
C232 C 0.76346 0.68798 0.3194 0.0
H233 H 0.84942 0.7999 0.21095 0.0
H234 H 0.82665 0.78014 0.24211 0.0
C235 C 0.75186 0.67533 0.33726 0.0
C236 C 0.80832 0.6992 0.29545 0.0
H237 H 0.85975 0.75454 0.27379 0.0
C238 C 0.79624 0.68436 0.27825 0.0
C239 C 0.83112 0.72515 0.29383 0.0
C240 C 0.84385 0.74296 0.31174 0.0
C241 C 0.8067 0.69446 0.25946 0.0
C242 C 0.8302 0.71979 0.25786 0.0
C243 C 0.84191 0.73496 0.27505 0.0
C244 C 0.84284 0.73113 0.23849 0.0
C245 C 0.79212 0.67825 0.2415 0.0
C246 C 0.85948 0.71012 0.22606 0.0
C247 C 0.87246 0.72131 0.20818 0.0
C248 C 0.86923 0.75382 0.20244 0.0
C249 C 0.8523 0.77471 0.21487 0.0
C250 C 0.83933 0.76349 0.23272 0.0
H251 H 0.76881 0.66561 0.24498 0.0
H252 H 0.78803 0.69613 0.22957 0.0
H253 H 0.80898 0.65997 0.23588 0.0
H254 H 0.86302 0.68521 0.23037 0.0
H255 H 0.88554 0.70462 0.19904 0.0
H256 H 0.33685 0.34581 0.61567 0.0
H257 H 0.31563 0.35975 0.58306 0.0
H258 H 0.37222 0.28503 0.55675 0.0
H259 H 0.39292 0.27056 0.58909 0.0
H260 H 0.34993 0.38149 0.55107 0.0
H261 H 0.28512 0.26695 0.53182 0.0
H262 H 0.29838 0.27602 0.55661 0.0
H263 H 0.32629 0.26078 0.53874 0.0
C264 C 0.34441 0.33206 0.60298 0.0
C265 C 0.3665 0.30699 0.60505 0.0
C266 C 0.33231 0.34008 0.58434 0.0
C267 C 0.34192 0.32309 0.56748 0.0
C268 C 0.36378 0.29795 0.56956 0.0
H269 H 0.32837 0.34515 0.4409 0.0
H270 H 0.34034 0.32871 0.47481 0.0
C271 C 0.37578 0.28986 0.58812 0.0
C272 C 0.33086 0.33285 0.54753 0.0
H273 H 0.29604 0.30377 0.50517 0.0
C274 C 0.33778 0.36461 0.54113 0.0
C275 C 0.31512 0.31077 0.53452 0.0
C276 C 0.3055 0.27683 0.54083 0.0
C277 C 0.33029 0.37461 0.52189 0.0
C278 C 0.31515 0.35234 0.50878 0.0
C279 C 0.30782 0.32072 0.51524 0.0
C280 C 0.30695 0.36148 0.48826 0.0
C281 C 0.33947 0.40864 0.51553 0.0
C282 C 0.2838 0.38492 0.4846 0.0
C283 C 0.27684 0.3943 0.46528 0.0
C284 C 0.29291 0.38041 0.4492 0.0
C285 C 0.31564 0.35642 0.45292 0.0
C286 C 0.32248 0.34696 0.47228 0.0
H287 H 0.35692 0.42045 0.52588 0.0
H288 H 0.35023 0.40868 0.50053 0.0
H289 H 0.31749 0.4234 0.51505 0.0
H290 H 0.2712 0.39607 0.49672 0.0
H291 H 0.25911 0.41274 0.46299 0.0
H292 H 0.69971 0.88867 0.85705 0.0
H293 H 0.68173 0.86675 0.82529 0.0
H294 H 0.77857 0.83691 0.8128 0.0
H295 H 0.7969 0.8592 0.84439 0.0
H296 H 0.75118 0.86894 0.78161 0.0
H297 H 0.66763 0.77232 0.80952 0.0
H298 H 0.65941 0.8118 0.81905 0.0
H299 H 0.69678 0.79298 0.82515 0.0
C300 C 0.71715 0.87718 0.84764 0.0
C301 C 0.74975 0.8756 0.85331 0.0
C302 C 0.70679 0.86454 0.82951 0.0
C303 C 0.72872 0.84981 0.81678 0.0
C304 C 0.76122 0.84807 0.82243 0.0
H305 H 0.67538 0.73348 0.71457 0.0
H306 H 0.69776 0.75384 0.74565 0.0
C307 C 0.77163 0.86076 0.84052 0.0
C308 C 0.71804 0.83719 0.79728 0.0
H309 H 0.66532 0.78367 0.77516 0.0
C310 C 0.73251 0.85019 0.78018 0.0
C311 C 0.69396 0.81245 0.79545 0.0
C312 C 0.67873 0.79632 0.81326 0.0
C313 C 0.72316 0.83953 0.76131 0.0
C314 C 0.69828 0.81559 0.75947 0.0
C315 C 0.68421 0.80221 0.77658 0.0
C316 C 0.68652 0.80386 0.73999 0.0
C317 C 0.74037 0.85362 0.74354 0.0
C318 C 0.67289 0.82524 0.72639 0.0
C319 C 0.66023 0.8137 0.70852 0.0
C320 C 0.66063 0.78047 0.704 0.0
C321 C 0.67467 0.75921 0.71755 0.0
C322 C 0.68743 0.77079 0.73536 0.0
H323 H 0.76429 0.86451 0.74753 0.0
H324 H 0.74392 0.83488 0.73207 0.0
H325 H 0.7256 0.87301 0.73709 0.0
H326 H 0.6713 0.85076 0.72981 0.0
H327 H 0.64935 0.8307 0.6985 0.0
H328 H 0.19735 0.38598 0.35522 0.0
H329 H 0.17853 0.36381 0.32367 0.0
H330 H 0.27502 0.33378 0.31036 0.0
H331 H 0.29415 0.35624 0.3417 0.0
H332 H 0.24762 0.36758 0.27988 0.0
H333 H 0.16364 0.27009 0.30629 0.0
H334 H 0.1559 0.30926 0.31645 0.0
H335 H 0.19306 0.28978 0.32219 0.0
C336 C 0.21449 0.37423 0.34572 0.0
C337 C 0.24727 0.37287 0.35101 0.0
C338 C 0.20366 0.36148 0.3277 0.0
C339 C 0.22532 0.34688 0.31472 0.0
C340 C 0.25788 0.3449 0.32016 0.0
H341 H 0.17494 0.23403 0.2108 0.0
H342 H 0.19623 0.2538 0.24228 0.0
C343 C 0.26874 0.35768 0.33812 0.0
C344 C 0.21448 0.33515 0.29504 0.0
H345 H 0.16203 0.28238 0.27206 0.0
C346 C 0.22898 0.34887 0.27816 0.0
C347 C 0.19039 0.31052 0.29282 0.0
C348 C 0.17502 0.2938 0.31039 0.0
C349 C 0.21978 0.33892 0.25912 0.0
C350 C 0.19504 0.31495 0.25689 0.0
C351 C 0.18082 0.30094 0.27378 0.0
C352 C 0.18379 0.30366 0.23721 0.0
C353 C 0.23704 0.35374 0.24158 0.0
C354 C 0.16989 0.32518 0.22379 0.0
C355 C 0.15782 0.31397 0.20568 0.0
C356 C 0.15915 0.28096 0.20074 0.0
C357 C 0.17353 0.2596 0.2141 0.0
C358 C 0.18565 0.27083 0.23215 0.0
H359 H 0.26067 0.36503 0.2458 0.0
H360 H 0.24117 0.33531 0.23 0.0
H361 H 0.22197 0.37291 0.23516 0.0
H362 H 0.16765 0.3505 0.22752 0.0
H363 H 0.14666 0.33103 0.19582 0.0
H364 H 0.693 0.69009 0.61843 0.0
H365 H 0.71487 0.6763 0.58604 0.0
H366 H 0.66119 0.75303 0.55947 0.0
H367 H 0.63958 0.76727 0.59172 0.0
H368 H 0.68091 0.6566 0.55289 0.0
H369 H 0.75176 0.76953 0.53743 0.0
H370 H 0.73684 0.75935 0.56173 0.0
H371 H 0.71034 0.77622 0.54363 0.0
C372 C 0.68608 0.70425 0.60573 0.0
C373 C 0.66461 0.72987 0.60771 0.0
C374 C 0.69857 0.69629 0.58723 0.0
C375 C 0.69002 0.71391 0.57038 0.0
C376 C 0.66868 0.73954 0.57231 0.0
H377 H 0.70443 0.64843 0.44877 0.0
H378 H 0.68574 0.66701 0.48096 0.0
C379 C 0.6562 0.74752 0.59078 0.0
C380 C 0.7022 0.70456 0.55065 0.0
H381 H 0.74418 0.73299 0.51057 0.0
C382 C 0.69486 0.67324 0.54367 0.0
C383 C 0.72066 0.72621 0.53871 0.0
C384 C 0.73067 0.75961 0.54579 0.0
C385 C 0.70503 0.66315 0.52495 0.0
C386 C 0.72255 0.68516 0.51274 0.0
C387 C 0.73039 0.71629 0.51985 0.0
C388 C 0.73369 0.67596 0.49275 0.0
C389 C 0.6974 0.6288 0.51857 0.0
C390 C 0.7668 0.67608 0.4884 0.0
C391 C 0.77757 0.66574 0.46996 0.0
C392 C 0.7554 0.65518 0.45547 0.0
C393 C 0.72217 0.6562 0.45963 0.0
C394 C 0.71143 0.66661 0.47807 0.0
H395 H 0.69132 0.61289 0.53134 0.0
H396 H 0.67626 0.62862 0.50852 0.0
H397 H 0.71806 0.61844 0.51053 0.0
H398 H 0.78438 0.6834 0.49947 0.0
H399 H 0.80331 0.66536 0.46725 0.0
H400 H 0.34134 0.18949 0.68678 0.0
H401 H 0.32278 0.17741 0.72033 0.0
H402 H 0.38169 0.25689 0.74256 0.0
H403 H 0.39982 0.26954 0.70912 0.0
H404 H 0.3597 0.15977 0.75157 0.0
H405 H 0.29666 0.27267 0.76977 0.0
H406 H 0.30798 0.26245 0.74488 0.0
H407 H 0.33744 0.27965 0.7616 0.0
C408 C 0.35002 0.20469 0.69877 0.0
C409 C 0.37201 0.23055 0.69522 0.0
C410 C 0.33942 0.19772 0.71795 0.0
C411 C 0.35047 0.21651 0.73396 0.0
C412 C 0.37219 0.24251 0.73043 0.0
H413 H 0.33516 0.19437 0.86173 0.0
H414 H 0.34916 0.21242 0.82822 0.0
C415 C 0.3827 0.24958 0.71127 0.0
C416 C 0.3409 0.20766 0.75445 0.0
H417 H 0.30647 0.23668 0.7965 0.0
C418 C 0.34786 0.17653 0.76133 0.0
C419 C 0.32561 0.2296 0.76724 0.0
C420 C 0.31619 0.26285 0.76047 0.0
C421 C 0.34033 0.16688 0.78069 0.0
C422 C 0.32513 0.18882 0.79347 0.0
C423 C 0.31825 0.21998 0.78667 0.0
C424 C 0.31549 0.17933 0.81377 0.0
C425 C 0.34913 0.13342 0.78744 0.0
C426 C 0.29144 0.15531 0.81671 0.0
C427 C 0.28333 0.14505 0.83575 0.0
C428 C 0.29911 0.15861 0.8523 0.0
C429 C 0.32261 0.18335 0.84933 0.0
C430 C 0.33063 0.19371 0.83021 0.0
H431 H 0.36698 0.1223 0.77746 0.0
H432 H 0.35924 0.13417 0.80261 0.0
H433 H 0.32708 0.11759 0.78767 0.0
H434 H 0.27916 0.14423 0.80422 0.0
H435 H 0.26501 0.12606 0.83744 0.0
H436 H 0.88141 0.82285 0.10551 0.0
H437 H 0.8573 0.84157 0.07476 0.0
H438 H 0.83108 0.74306 0.05944 0.0
H439 H 0.85553 0.72403 0.09002 0.0
H440 H 0.86095 0.77647 0.02888 0.0
H441 H 0.762 0.84797 0.06046 0.0
H442 H 0.80119 0.859 0.06999 0.0
H443 H 0.78423 0.81926 0.07484 0.0
C444 C 0.87024 0.80516 0.0957 0.0
C445 C 0.87033 0.77192 0.10027 0.0
C446 C 0.85634 0.81594 0.07816 0.0
C447 C 0.84202 0.79376 0.06492 0.0
C448 C 0.84189 0.76061 0.06948 0.0
H449 H 0.72279 0.84681 0.9647 0.0
H450 H 0.74379 0.82277 0.99492 0.0
C451 C 0.85582 0.74979 0.08701 0.0
C452 C 0.82833 0.80499 0.04594 0.0
H453 H 0.77238 0.85488 1.02615 0.0
C454 C 0.84146 0.79348 0.02827 0.0
C455 C 0.80265 0.82687 0.04517 0.0
C456 C 0.78644 0.83879 0.06362 0.0
C457 C 0.83007 0.80379 1.00985 0.0
C458 C 0.80522 0.82662 1.00909 0.0
C459 C 0.79162 0.83758 1.02675 0.0
C460 C 0.79305 0.83964 0.99015 0.0
C461 C 0.8445 0.78987 0.99137 0.0
C462 C 0.81378 0.85706 0.97739 0.0
C463 C 0.80188 0.87074 0.96005 0.0
C464 C 0.76892 0.8675 0.95522 0.0
C465 C 0.7483 0.84972 0.96793 0.0
C466 C 0.76024 0.83602 0.98524 0.0
H467 H 0.85638 0.76656 0.99436 0.0
H468 H 0.8258 0.78585 0.97984 0.0
H469 H 0.86308 0.80714 0.98549 0.0
H470 H 0.83905 0.86074 0.98106 0.0
H471 H 0.8184 0.88446 0.95067 0.0
H472 H 0.04529 0.14281 0.19336 0.0
H473 H 0.03012 0.08568 0.18987 0.0
H474 H 0.03445 0.09492 0.12655 0.0
H475 H 0.04984 0.15239 0.12997 0.0
H476 H 0.9764 0.05938 0.17126 0.0
H477 H 0.08911 0.01574 0.13681 0.0
H478 H 0.08696 0.05491 0.14845 0.0
H479 H 0.07021 0.04859 0.12428 0.0
C480 C 0.04292 0.13279 0.17867 0.0
C481 C 0.04867 0.1522 0.16193 0.0
C482 C 0.03438 0.10007 0.17671 0.0
C483 C 0.03143 0.08596 0.15797 0.0
C484 C 0.0372 0.10516 0.14117 0.0
H485 H 0.97544 0.88363 0.13163 0.0
H486 H 0.98771 0.9418 0.12791 0.0
C487 C 0.04595 0.13799 0.14314 0.0
C488 C 0.02135 0.05136 0.1563 0.0
H489 H 0.04693 0.97708 0.1418 0.0
C490 C 0.99175 0.04142 0.16472 0.0
C491 C 0.04135 0.028 0.14766 0.0
C492 C 0.07381 0.03717 0.13891 0.0
C493 C 0.98192 1.00869 0.16511 0.0
C494 C 1.00234 0.98527 0.15704 0.0
C495 C 0.03139 0.99521 0.14798 0.0
C496 C 0.99487 0.95021 0.15909 0.0
C497 C 0.94988 0.99931 0.17435 0.0
C498 C 0.99519 0.93579 0.17782 0.0
C499 C 0.98829 0.90272 0.17997 0.0
C500 C 0.98088 0.88341 0.16344 0.0
C501 C 0.98069 0.89794 0.14466 0.0
C502 C 0.98785 0.93107 0.14249 0.0
H503 H 0.93375 0.02031 0.17545 0.0
H504 H 0.93743 0.97986 0.16573 0.0
H505 H 0.95405 0.98999 0.18947 0.0
H506 H 1.00087 0.95015 0.19078 0.0
H507 H 0.98832 0.89238 0.19464 0.0
H508 H 0.14532 0.52759 0.43285 0.0
H509 H 0.08743 0.53728 0.43257 0.0
H510 H 0.07524 0.47163 0.38356 0.0
H511 H 0.13326 0.46173 0.38379 0.0
H512 H 0.05006 0.56214 0.40303 0.0
H513 H 1.00784 0.43753 0.4227 0.0
H514 H 0.04945 0.45094 0.42517 0.0
H515 H 0.03352 0.43986 0.40139 0.0
C516 C 0.13039 0.51531 0.42194 0.0
C517 C 0.14391 0.49383 0.40836 0.0
C518 C 0.09728 0.52078 0.42186 0.0
C519 C 0.07698 0.50487 0.40822 0.0
C520 C 0.09037 0.48362 0.3945 0.0
H521 H 0.87965 0.56288 0.38319 0.0
H522 H 0.9371 0.55118 0.3807 0.0
C523 C 0.12352 0.478 0.39464 0.0
C524 C 0.04192 0.51114 0.40822 0.0
H525 H 0.9676 0.4749 0.41443 0.0
C526 C 0.032 0.54308 0.40549 0.0
C527 C 0.01847 0.48626 0.41164 0.0
C528 C 0.02776 0.45176 0.41558 0.0
C529 C 0.99924 0.55085 0.40613 0.0
C530 C 0.97576 0.52588 0.4092 0.0
C531 C 0.98567 0.49394 0.41191 0.0
C532 C 0.94086 0.53258 0.41044 0.0
C533 C 0.99015 0.58585 0.40406 0.0
C534 C 0.92375 0.52529 0.4278 0.0
C535 C 0.89094 0.53184 0.42923 0.0
C536 C 0.87453 0.54576 0.4133 0.0
C537 C 0.89168 0.5527 0.39583 0.0
C538 C 0.92451 0.54602 0.39439 0.0
H539 H 1.01112 0.60262 0.40668 0.0
H540 H 0.98124 0.5901 0.38887 0.0
H541 H 0.97062 0.59189 0.41454 0.0
H542 H 0.93593 0.5149 0.44036 0.0
H543 H 0.87858 0.52651 0.44296 0.0
H544 H 0.4576 0.39105 0.62936 0.0
H545 H 0.46902 0.44944 0.62767 0.0
H546 H 0.53898 0.44114 0.67436 0.0
H547 H 0.52758 0.383 0.67628 0.0
H548 H 0.46295 0.49579 0.65732 0.0
H549 H 0.58955 0.49043 0.63138 0.0
H550 H 0.5618 0.45602 0.63028 0.0
H551 H 0.58176 0.46647 0.65305 0.0
C552 C 0.47531 0.40165 0.63933 0.0
C553 C 0.49182 0.38225 0.65288 0.0
C554 C 0.48193 0.43498 0.63826 0.0
C555 C 0.50528 0.44946 0.65063 0.0
C556 C 0.52149 0.43029 0.66432 0.0
H557 H 0.53424 0.64374 0.69115 0.0
H558 H 0.51988 0.58679 0.68595 0.0
C559 C 0.51492 0.39702 0.6654 0.0
C560 C 0.51198 0.48482 0.64983 0.0
H561 H 0.57288 0.54133 0.64417 0.0
C562 C 0.48689 0.5058 0.65423 0.0
C563 C 0.54312 0.49781 0.64551 0.0
C564 C 0.57054 0.47654 0.63959 0.0
C565 C 0.49245 0.53941 0.65527 0.0
C566 C 0.52402 0.55223 0.65207 0.0
C567 C 0.54878 0.53138 0.64682 0.0
C568 C 0.53212 0.58702 0.65494 0.0
C569 C 0.46455 0.56091 0.65987 0.0
C570 C 0.54448 0.60586 0.63932 0.0
C571 C 0.5527 0.63856 0.64223 0.0
C572 C 0.5489 0.65293 0.66087 0.0
C573 C 0.53684 0.63375 0.67651 0.0
C574 C 0.52861 0.60114 0.67358 0.0
H575 H 0.44099 0.54878 0.65637 0.0
H576 H 0.46473 0.5667 0.67585 0.0
H577 H 0.4665 0.58401 0.65151 0.0
H578 H 0.54754 0.5953 0.62484 0.0
H579 H 0.56163 0.65262 0.62982 0.0
H580 H 0.64505 0.98011 0.88576 0.0
H581 H 0.5897 0.99734 0.88042 0.0
H582 H 0.57942 0.01489 0.94273 0.0
H583 H 0.63438 0.99728 0.94829 0.0
H584 H 0.5333 0.96982 0.89704 0.0
H585 H 0.5484 0.09927 0.91742 0.0
H586 H 0.58213 0.0741 0.91162 0.0
H587 H 0.56373 0.07206 0.93563 0.0
C588 C 0.63104 0.9875 0.89836 0.0
C589 C 0.64432 0.98735 0.91747 0.0
C590 C 0.59948 0.99757 0.89524 0.0
C591 C 0.58073 1.00793 0.91113 0.0
C592 C 0.5938 1.00776 0.9302 0.0
H593 H 0.37856 1.01063 0.93111 0.0
H594 H 0.4364 1.00163 0.92965 0.0
C595 C 0.62527 0.99764 0.93334 0.0
C596 C 0.54681 0.01714 0.90806 0.0
H597 H 0.49407 0.07791 0.91611 0.0
C598 C 0.52478 0.99357 0.90096 0.0
C599 C 0.53586 0.04828 0.91295 0.0
C600 C 0.5588 0.07501 0.91965 0.0
C601 C 0.49176 0.99985 0.89952 0.0
C602 C 0.48056 0.03034 0.90553 0.0
C603 C 0.50276 0.05445 0.91171 0.0
C604 C 0.44568 0.03683 0.90658 0.0
C605 C 0.46903 0.97364 0.89185 0.0
C606 C 0.43193 0.06034 0.89448 0.0
C607 C 0.39867 0.06547 0.8952 0.0
C608 C 0.37875 0.04727 0.90813 0.0
C609 C 0.39298 0.02451 0.92065 0.0
C610 C 0.42607 0.01936 0.91988 0.0
H611 H 0.48201 0.95532 0.88312 0.0
H612 H 0.45722 0.96106 0.90451 0.0
H613 H 0.44987 0.98405 0.88251 0.0
H614 H 0.44681 0.0742 0.88421 0.0
H615 H 0.38852 0.08306 0.88529 0.0
H616 H 0.96785 0.647 0.16937 0.0
H617 H 0.98117 0.58979 0.17195 0.0
H618 H 0.02021 0.59272 0.11303 0.0
H619 H 1.0068 0.64973 0.11025 0.0
H620 H 0.95998 0.53821 0.14859 0.0
H621 H 0.0932 0.5534 0.1451 0.0
H622 H 0.06696 0.58673 0.14986 0.0
H623 H 0.07274 0.57258 0.12506 0.0
C624 C 0.97914 0.63548 0.15692 0.0
C625 C 0.98639 0.65309 0.13963 0.0
C626 C 0.98689 0.60282 0.15847 0.0
C627 C 1.00219 0.58719 0.14282 0.0
C628 C 1.00915 0.60454 0.12548 0.0
H629 H 1.01117 0.38454 0.11526 0.0
H630 H 0.99954 0.442 0.11754 0.0
C631 C 1.00145 0.63717 0.12392 0.0
C632 C 1.00986 0.55242 0.14429 0.0
H633 H 0.0717 0.49965 0.14083 0.0
C634 C 0.98443 0.52977 0.14705 0.0
C635 C 0.04183 0.54151 0.14257 0.0
C636 C 0.07031 0.56482 0.14068 0.0
C637 C 0.98998 0.4964 0.14748 0.0
C638 C 0.02174 0.48543 0.14476 0.0
C639 C 0.04732 0.50811 0.14269 0.0
C640 C 0.02879 0.4505 0.14355 0.0
C641 C 0.96181 0.47318 0.15088 0.0
C642 C 0.04978 0.43636 0.15711 0.0
C643 C 0.05651 0.40341 0.15585 0.0
C644 C 0.04249 0.38403 0.14091 0.0
C645 C 0.02185 0.3985 0.12719 0.0
C646 C 0.01516 0.43139 0.12846 0.0
H647 H 0.9413 0.4853 0.15809 0.0
H648 H 0.95321 0.46359 0.13647 0.0
H649 H 0.96896 0.45239 0.16016 0.0
H650 H 0.06068 0.45076 0.16881 0.0
H651 H 0.07228 0.39305 0.16676 0.0
H652 H 0.37565 0.48167 0.42048 0.0
H653 H 0.43289 0.49713 0.42447 0.0
H654 H 0.44333 0.50299 0.36129 0.0
H655 H 0.38655 0.48757 0.3572 0.0
H656 H 0.48875 0.46797 0.41011 0.0
H657 H 0.47733 0.59164 0.37974 0.0
H658 H 0.4428 0.56706 0.38725 0.0
H659 H 0.46114 0.56099 0.36352 0.0
C660 C 0.39022 0.48607 0.40746 0.0
C661 C 0.37643 0.48382 0.38852 0.0
C662 C 0.42284 0.49502 0.40976 0.0
C663 C 0.44211 0.50193 0.39319 0.0
C664 C 0.42865 0.49868 0.3743 0.0
H665 H 0.63599 0.54121 0.35868 0.0
H666 H 0.57844 0.52823 0.36243 0.0
C667 C 0.39616 0.48986 0.37199 0.0
C668 C 0.47645 0.51217 0.39537 0.0
H669 H 0.53095 0.57128 0.38147 0.0
C670 C 0.49797 0.49077 0.40415 0.0
C671 C 0.48832 0.54205 0.3877 0.0
C672 C 0.46614 0.56691 0.37921 0.0
C673 C 0.53135 0.49774 0.40449 0.0
C674 C 0.54327 0.52689 0.39595 0.0
C675 C 0.52165 0.54883 0.38787 0.0
C676 C 0.57825 0.53422 0.39411 0.0
C677 C 0.55382 0.47337 0.41319 0.0
C678 C 0.59707 0.54207 0.4107 0.0
C679 C 0.63004 0.54953 0.4086 0.0
C680 C 0.64468 0.54912 0.38988 0.0
C681 C 0.6256 0.54126 0.37332 0.0
C682 C 0.59269 0.53404 0.37542 0.0
H683 H 0.54108 0.45022 0.41703 0.0
H684 H 0.57356 0.46827 0.40265 0.0
H685 H 0.56503 0.48353 0.42678 0.0
H686 H 0.58622 0.54261 0.42523 0.0
H687 H 0.64414 0.55526 0.42164 0.0
H688 H 0.52312 0.1484 0.62488 0.0
H689 H 0.53522 0.09188 0.63079 0.0
H690 H 0.45741 0.08458 0.67293 0.0
H691 H 0.44408 0.14099 0.66638 0.0
H692 H 0.55211 0.05802 0.66357 0.0
H693 H 0.43395 1.01279 0.63419 0.0
H694 H 0.44761 0.05435 0.63146 0.0
H695 H 0.43165 0.0402 0.65466 0.0
C696 C 0.50835 0.13482 0.6353 0.0
C697 C 0.48219 0.14914 0.64485 0.0
C698 C 0.51555 0.10254 0.63883 0.0
C699 C 0.49686 0.08385 0.65203 0.0
C700 C 0.47173 0.09841 0.66237 0.0
H701 H 0.55638 0.88407 0.6765 0.0
H702 H 0.54204 0.94071 0.68146 0.0
C703 C 0.46436 0.13077 0.65876 0.0
C704 C 0.50314 0.04884 0.65408 0.0
H705 H 0.47062 0.97375 0.64441 0.0
C706 C 0.53423 0.03952 0.65959 0.0
C707 C 0.47982 0.02484 0.64866 0.0
C708 C 0.44646 0.03341 0.64175 0.0
C709 C 0.54296 1.00691 0.65924 0.0
C710 C 0.51971 0.98295 0.65365 0.0
C711 C 0.48833 0.99219 0.64877 0.0
C712 C 0.52805 0.94853 0.6511 0.0
C713 C 0.57741 0.9986 0.66389 0.0
C714 C 0.52423 0.93395 0.63254 0.0
C715 C 0.53209 0.90165 0.62974 0.0
C716 C 0.54402 0.88323 0.64544 0.0
C717 C 0.5477 0.89781 0.66407 0.0
C718 C 0.53956 0.93014 0.66691 0.0
H719 H 0.59379 0.02033 0.66357 0.0
H720 H 0.57848 0.98791 0.67888 0.0
H721 H 0.58651 0.98057 0.65325 0.0
H722 H 0.51545 0.94772 0.62012 0.0
H723 H 0.52935 0.89127 0.61517 0.0
H724 H 0.86647 0.04227 0.89358 0.0
H725 H 0.92465 0.05423 0.89456 0.0
H726 H 0.94292 0.95216 0.89864 0.0
H727 H 0.88488 0.93994 0.89731 0.0
H728 H 0.97154 0.03453 0.92483 0.0
H729 H 0.99607 0.98616 0.84994 0.0
H730 H 0.95614 0.99691 0.85788 0.0
H731 H 0.9732 0.95972 0.86609 0.0
C732 C 0.88287 0.02236 0.89454 0.0
C733 C 0.87106 0.99013 0.89524 0.0
C734 C 0.91604 0.02925 0.89525 0.0
C735 C 0.93795 1.00405 0.89649 0.0
C736 C 0.92631 0.97191 0.8975 0.0
H737 H 0.14518 0.99099 0.89146 0.0
H738 H 0.08703 0.98081 0.89436 0.0
C739 C 0.89315 0.965 0.89689 0.0
C740 C 0.97305 1.01129 0.89646 0.0
H741 H 0.04129 1.00194 0.86918 0.0
C742 C 0.98688 0.02754 0.91267 0.0
C743 C 0.9928 1.00208 0.88055 0.0
C744 C 0.97889 0.98547 0.86253 0.0
C745 C 0.02026 0.03419 0.9136 0.0
C746 C 0.04006 0.02494 0.89767 0.0
C747 C 0.02607 1.00891 0.88141 0.0
C748 C 0.0754 0.03133 0.89747 0.0
C749 C 0.0341 0.05027 0.93181 0.0
C750 C 0.0882 0.06311 0.89837 0.0
C751 C 0.1215 0.06896 0.89678 0.0
C752 C 0.14247 0.04316 0.89396 0.0
C753 C 0.12958 1.01137 0.89335 0.0
C754 C 0.0964 1.00552 0.89509 0.0
H755 H 0.01751 0.04761 0.94462 0.0
H756 H 0.05772 0.03998 0.93581 0.0
H757 H 0.03792 0.07653 0.9289 0.0
H758 H 0.07238 0.08346 0.89973 0.0
H759 H 0.13071 0.09372 0.89704 0.0
loop_
_geom_bond_atom_site_label_1
_geom_bond_atom_site_label_2
_geom_bond_distance
_geom_bond_site_symmetry_2
_ccdc_geom_bond_type
Cu0 N1 1.999 . S
Cu0 O6 1.974 . S
Cu0 N11 1.985 . S
Cu0 O20 1.959 . S
N1 Cu0 1.999 . S
N1 C3 1.263 . S
N1 C5 1.389 . S
N2 C3 1.358 . S
N2 C4 1.400 . S
C3 N1 1.263 . S
C3 N2 1.358 . S
C3 H9 0.930 . S
C4 N2 1.400 . S
C4 C5 1.351 . S
C4 H21 0.930 . S
C5 N1 1.389 . S
C5 C4 1.351 . S
C5 H10 0.930 . S
O6 Cu0 1.974 . S
O6 C16 1.282 . S
C7 O8 1.261 . S
C7 O20 1.251 . S
O8 C7 1.261 . S
H9 C3 0.930 . S
H10 C5 0.930 . S
N11 Cu0 1.985 . S
N11 C13 1.335 . S
N11 C14 1.390 . S
N12 C13 1.345 . S
N12 C15 1.336 . S
C13 N11 1.335 . S
C13 N12 1.345 . S
C13 H18 0.930 . S
C14 N11 1.390 . S
C14 C15 1.346 . S
C14 H19 0.930 . S
C15 N12 1.336 . S
C15 C14 1.346 . S
C15 H22 0.929 . S
C16 O6 1.282 . S
C16 O17 1.216 . S
O17 C16 1.216 . S
H18 C13 0.930 . S
H19 C14 0.930 . S
O20 Cu0 1.959 . S
O20 C7 1.251 . S
H21 C4 0.930 . S
H22 C15 0.929 . S
Cu23 N24 1.999 . S
Cu23 O29 1.974 . S
Cu23 N34 1.985 . S
Cu23 O43 1.959 . S
N24 Cu23 1.999 . S
N24 C26 1.263 . S
N24 C28 1.389 . S
N25 C26 1.358 . S
N25 C27 1.400 . S
C26 N24 1.263 . S
C26 N25 1.358 . S
C26 H32 0.930 . S
C27 N25 1.400 . S
C27 C28 1.351 . S
C27 H44 0.930 . S
C28 N24 1.389 . S
C28 C27 1.351 . S
C28 H33 0.930 . S
O29 Cu23 1.974 . S
O29 C39 1.282 . S
C30 O31 1.261 . S
C30 O43 1.251 . S
O31 C30 1.261 . S
H32 C26 0.930 . S
H33 C28 0.930 . S
N34 Cu23 1.985 . S
N34 C36 1.335 . S
N34 C37 1.390 . S
N35 C36 1.345 . S
N35 C38 1.336 . S
C36 N34 1.335 . S
C36 N35 1.345 . S
C36 H41 0.930 . S
C37 N34 1.390 . S
C37 C38 1.346 . S
C37 H42 0.930 . S
C38 N35 1.336 . S
C38 C37 1.346 . S
C38 H45 0.929 . S
C39 O29 1.282 . S
C39 O40 1.216 . S
O40 C39 1.216 . S
H41 C36 0.930 . S
H42 C37 0.930 . S
O43 Cu23 1.959 . S
O43 C30 1.251 . S
H44 C27 0.930 . S
H45 C38 0.929 . S
Cu46 N47 1.999 . S
Cu46 O52 1.974 . S
Cu46 N57 1.985 . S
Cu46 O66 1.959 . S
N47 Cu46 1.999 . S
N47 C49 1.263 . S
N47 C51 1.389 . S
N48 C49 1.358 . S
N48 C50 1.400 . S
C49 N47 1.263 . S
C49 N48 1.358 . S
C49 H55 0.930 . S
C50 N48 1.400 . S
C50 C51 1.351 . S
C50 H67 0.930 . S
C51 N47 1.389 . S
C51 C50 1.351 . S
C51 H56 0.930 . S
O52 Cu46 1.974 . S
O52 C62 1.282 . S
C53 O54 1.261 . S
C53 O66 1.251 . S
O54 C53 1.261 . S
H55 C49 0.930 . S
H56 C51 0.930 . S
N57 Cu46 1.985 . S
N57 C59 1.335 . S
N57 C60 1.390 . S
N58 C59 1.345 . S
N58 C61 1.336 . S
C59 N57 1.335 . S
C59 N58 1.345 . S
C59 H64 0.930 . S
C60 N57 1.390 . S
C60 C61 1.346 . S
C60 H65 0.930 . S
C61 N58 1.336 . S
C61 C60 1.346 . S
C61 H68 0.929 . S
C62 O52 1.282 . S
C62 O63 1.216 . S
O63 C62 1.216 . S
H64 C59 0.930 . S
H65 C60 0.930 . S
O66 Cu46 1.959 . S
O66 C53 1.251 . S
H67 C50 0.930 . S
H68 C61 0.929 . S
Cu69 N70 1.999 . S
Cu69 O75 1.974 . S
Cu69 N80 1.985 . S
Cu69 O89 1.959 . S
N70 Cu69 1.999 . S
N70 C72 1.263 . S
N70 C74 1.389 . S
N71 C72 1.358 . S
N71 C73 1.400 . S
C72 N70 1.263 . S
C72 N71 1.358 . S
C72 H78 0.930 . S
C73 N71 1.400 . S
C73 C74 1.351 . S
C73 H90 0.930 . S
C74 N70 1.389 . S
C74 C73 1.351 . S
C74 H79 0.930 . S
O75 Cu69 1.974 . S
O75 C85 1.282 . S
C76 O77 1.261 . S
C76 O89 1.251 . S
O77 C76 1.261 . S
H78 C72 0.930 . S
H79 C74 0.930 . S
N80 Cu69 1.985 . S
N80 C82 1.335 . S
N80 C83 1.390 . S
N81 C82 1.345 . S
N81 C84 1.336 . S
C82 N80 1.335 . S
C82 N81 1.345 . S
C82 H87 0.930 . S
C83 N80 1.390 . S
C83 C84 1.346 . S
C83 H88 0.930 . S
C84 N81 1.336 . S
C84 C83 1.346 . S
C84 H91 0.929 . S
C85 O75 1.282 . S
C85 O86 1.216 . S
O86 C85 1.216 . S
H87 C82 0.930 . S
H88 C83 0.930 . S
O89 Cu69 1.959 . S
O89 C76 1.251 . S
H90 C73 0.930 . S
H91 C84 0.929 . S
Cu92 N93 1.999 . S
Cu92 O98 1.974 . S
Cu92 N103 1.985 . S
Cu92 O112 1.959 . S
N93 Cu92 1.999 . S
N93 C95 1.263 . S
N93 C97 1.389 . S
N94 C95 1.358 . S
N94 C96 1.400 . S
C95 N93 1.263 . S
C95 N94 1.358 . S
C95 H101 0.930 . S
C96 N94 1.400 . S
C96 C97 1.351 . S
C96 H113 0.930 . S
C97 N93 1.389 . S
C97 C96 1.351 . S
C97 H102 0.930 . S
O98 Cu92 1.974 . S
O98 C108 1.282 . S
C99 O100 1.261 . S
C99 O112 1.251 . S
O100 C99 1.261 . S
H101 C95 0.930 . S
H102 C97 0.930 . S
N103 Cu92 1.985 . S
N103 C105 1.335 . S
N103 C106 1.390 . S
N104 C105 1.345 . S
N104 C107 1.336 . S
C105 N103 1.335 . S
C105 N104 1.345 . S
C105 H110 0.930 . S
C106 N103 1.390 . S
C106 C107 1.346 . S
C106 H111 0.930 . S
C107 N104 1.336 . S
C107 C106 1.346 . S
C107 H114 0.929 . S
C108 O98 1.282 . S
C108 O109 1.216 . S
O109 C108 1.216 . S
H110 C105 0.930 . S
H111 C106 0.930 . S
O112 Cu92 1.959 . S
O112 C99 1.251 . S
H113 C96 0.930 . S
H114 C107 0.929 . S
Cu115 N116 1.999 . S
Cu115 O121 1.974 . S
Cu115 N126 1.985 . S
Cu115 O135 1.959 . S
N116 Cu115 1.999 . S
N116 C118 1.263 . S
N116 C120 1.389 . S
N117 C118 1.358 . S
N117 C119 1.400 . S
C118 N116 1.263 . S
C118 N117 1.358 . S
C118 H124 0.930 . S
C119 N117 1.400 . S
C119 C120 1.351 . S
C119 H136 0.930 . S
C120 N116 1.389 . S
C120 C119 1.351 . S
C120 H125 0.930 . S
O121 Cu115 1.974 . S
O121 C131 1.282 . S
C122 O123 1.261 . S
C122 O135 1.251 . S
O123 C122 1.261 . S
H124 C118 0.930 . S
H125 C120 0.930 . S
N126 Cu115 1.985 . S
N126 C128 1.335 . S
N126 C129 1.390 . S
N127 C128 1.345 . S
N127 C130 1.336 . S
C128 N126 1.335 . S
C128 N127 1.345 . S
C128 H133 0.930 . S
C129 N126 1.390 . S
C129 C130 1.346 . S
C129 H134 0.930 . S
C130 N127 1.336 . S
C130 C129 1.346 . S
C130 H137 0.929 . S
C131 O121 1.282 . S
C131 O132 1.216 . S
O132 C131 1.216 . S
H133 C128 0.930 . S
H134 C129 0.930 . S
O135 Cu115 1.959 . S
O135 C122 1.251 . S
H136 C119 0.930 . S
H137 C130 0.929 . S
Cu138 N139 1.999 . S
Cu138 O144 1.974 . S
Cu138 N149 1.985 . S
Cu138 O158 1.959 . S
N139 Cu138 1.999 . S
N139 C141 1.263 . S
N139 C143 1.389 . S
N140 C141 1.358 . S
N140 C142 1.400 . S
C141 N139 1.263 . S
C141 N140 1.358 . S
C141 H147 0.930 . S
C142 N140 1.400 . S
C142 C143 1.351 . S
C142 H159 0.930 . S
C143 N139 1.389 . S
C143 C142 1.351 . S
C143 H148 0.930 . S
O144 Cu138 1.974 . S
O144 C154 1.282 . S
C145 O146 1.261 . S
C145 O158 1.251 . S
O146 C145 1.261 . S
H147 C141 0.930 . S
H148 C143 0.930 . S
N149 Cu138 1.985 . S
N149 C151 1.335 . S
N149 C152 1.390 . S
N150 C151 1.345 . S
N150 C153 1.336 . S
C151 N149 1.335 . S
C151 N150 1.345 . S
C151 H156 0.930 . S
C152 N149 1.390 . S
C152 C153 1.346 . S
C152 H157 0.930 . S
C153 N150 1.336 . S
C153 C152 1.346 . S
C153 H160 0.929 . S
C154 O144 1.282 . S
C154 O155 1.216 . S
O155 C154 1.216 . S
H156 C151 0.930 . S
H157 C152 0.930 . S
O158 Cu138 1.959 . S
O158 C145 1.251 . S
H159 C142 0.930 . S
H160 C153 0.929 . S
Cu161 N162 1.999 . S
Cu161 O167 1.974 . S
Cu161 N172 1.985 . S
Cu161 O181 1.959 . S
N162 Cu161 1.999 . S
N162 C164 1.263 . S
N162 C166 1.389 . S
N163 C164 1.358 . S
N163 C165 1.400 . S
C164 N162 1.263 . S
C164 N163 1.358 . S
C164 H170 0.930 . S
C165 N163 1.400 . S
C165 C166 1.351 . S
C165 H182 0.930 . S
C166 N162 1.389 . S
C166 C165 1.351 . S
C166 H171 0.930 . S
O167 Cu161 1.974 . S
O167 C177 1.282 . S
C168 O169 1.261 . S
C168 O181 1.251 . S
O169 C168 1.261 . S
H170 C164 0.930 . S
H171 C166 0.930 . S
N172 Cu161 1.985 . S
N172 C174 1.335 . S
N172 C175 1.390 . S
N173 C174 1.345 . S
N173 C176 1.336 . S
C174 N172 1.335 . S
C174 N173 1.345 . S
C174 H179 0.930 . S
C175 N172 1.390 . S
C175 C176 1.346 . S
C175 H180 0.930 . S
C176 N173 1.336 . S
C176 C175 1.346 . S
C176 H183 0.929 . S
C177 O167 1.282 . S
C177 O178 1.216 . S
O178 C177 1.216 . S
H179 C174 0.930 . S
H180 C175 0.930 . S
O181 Cu161 1.959 . S
O181 C168 1.251 . S
H182 C165 0.930 . S
H183 C176 0.929 . S
H184 C192 0.929 . S
H185 C194 0.930 . S
H186 C196 0.930 . S
H187 C199 0.929 . S
H188 C202 0.927 1_554 S
H189 C204 0.960 . S
H190 C204 0.960 . S
H191 C204 0.960 . S
C192 H184 0.929 . S
C192 C193 1.377 . S
C192 C194 1.384 . S
C193 C192 1.377 . S
C193 C199 1.390 . S
C194 H185 0.930 . S
C194 C192 1.384 . S
C194 C195 1.372 . S
C195 C194 1.372 . S
C195 C196 1.400 . S
C195 C200 1.490 . S
C196 H186 0.930 . S
C196 C195 1.400 . S
C196 C199 1.386 . S
H197 C213 0.930 . S
H198 C214 0.931 . S
C199 H187 0.929 . S
C199 C193 1.390 . S
C199 C196 1.386 . S
C200 C195 1.490 . S
C200 C202 1.393 1_554 S
C200 C203 1.403 . S
H201 C207 0.930 . S
C202 H188 0.927 1_556 S
C202 C200 1.393 1_556 S
C202 C205 1.406 . S
C203 C200 1.403 . S
C203 C204 1.524 . S
C203 C207 1.400 1_554 S
C204 H189 0.960 . S
C204 H190 0.960 . S
C204 H191 0.960 . S
C204 C203 1.524 . S
C205 C202 1.406 . S
C205 C206 1.392 . S
C205 C209 1.495 . S
C206 C205 1.392 . S
C206 C207 1.385 . S
C206 C208 1.478 . S
C207 H201 0.930 . S
C207 C203 1.400 1_556 S
C207 C206 1.385 . S
C208 C206 1.478 . S
C208 C210 1.381 . S
C208 C214 1.383 . S
C209 C205 1.495 . S
C209 H215 0.959 . S
C209 H216 0.961 . S
C209 H217 0.960 . S
C210 C208 1.381 . S
C210 C211 1.394 . S
C210 H218 0.930 . S
C211 C210 1.394 . S
C211 C212 1.383 . S
C211 H219 0.929 . S
C212 C211 1.383 . S
C212 C213 1.377 . S
C213 H197 0.930 . S
C213 C212 1.377 . S
C213 C214 1.379 . S
C214 H198 0.931 . S
C214 C208 1.383 . S
C214 C213 1.379 . S
H215 C209 0.959 . S
H216 C209 0.961 . S
H217 C209 0.960 . S
H218 C210 0.930 . S
H219 C211 0.929 . S
H220 C228 0.929 . S
H221 C230 0.930 . S
H222 C232 0.930 . S
H223 C235 0.929 . S
H224 C238 0.930 . S
H225 C240 0.960 . S
H226 C240 0.960 . S
H227 C240 0.960 . S
C228 H220 0.929 . S
C228 C229 1.377 . S
C228 C230 1.384 . S
C229 C228 1.377 . S
C229 C235 1.390 . S
C230 H221 0.930 . S
C230 C228 1.384 . S
C230 C231 1.372 . S
C231 C230 1.372 . S
C231 C232 1.400 . S
C231 C236 1.490 . S
C232 H222 0.930 . S
C232 C231 1.400 . S
C232 C235 1.386 . S
H233 C249 0.930 . S
H234 C250 0.931 . S
C235 H223 0.929 . S
C235 C229 1.390 . S
C235 C232 1.386 . S
C236 C231 1.490 . S
C236 C238 1.395 . S
C236 C239 1.403 . S
H237 C243 0.930 . S
C238 H224 0.930 . S
C238 C236 1.395 . S
C238 C241 1.403 . S
C239 C236 1.403 . S
C239 C240 1.524 . S
C239 C243 1.400 . S
C240 H225 0.960 . S
C240 H226 0.960 . S
C240 H227 0.960 . S
C240 C239 1.524 . S
C241 C238 1.403 . S
C241 C242 1.392 . S
C241 C245 1.495 . S
C242 C241 1.392 . S
C242 C243 1.385 . S
C242 C244 1.478 . S
C243 H237 0.930 . S
C243 C239 1.400 . S
C243 C242 1.385 . S
C244 C242 1.478 . S
C244 C246 1.381 . S
C244 C250 1.383 . S
C245 C241 1.495 . S
C245 H251 0.959 . S
C245 H252 0.961 . S
C245 H253 0.960 . S
C246 C244 1.381 . S
C246 C247 1.394 . S
C246 H254 0.930 . S
C247 C246 1.394 . S
C247 C248 1.383 . S
C247 H255 0.929 . S
C248 C247 1.383 . S
C248 C249 1.377 . S
C249 H233 0.930 . S
C249 C248 1.377 . S
C249 C250 1.379 . S
C250 H234 0.931 . S
C250 C244 1.383 . S
C250 C249 1.379 . S
H251 C245 0.959 . S
H252 C245 0.961 . S
H253 C245 0.960 . S
H254 C246 0.930 . S
H255 C247 0.929 . S
H256 C264 0.929 . S
H257 C266 0.930 . S
H258 C268 0.930 . S
H259 C271 0.929 . S
H260 C274 0.930 . S
H261 C276 0.960 . S
H262 C276 0.960 . S
H263 C276 0.960 . S
C264 H256 0.929 . S
C264 C265 1.377 . S
C264 C266 1.384 . S
C265 C264 1.377 . S
C265 C271 1.390 . S
C266 H257 0.930 . S
C266 C264 1.384 . S
C266 C267 1.372 . S
C267 C266 1.372 . S
C267 C268 1.400 . S
C267 C272 1.490 . S
C268 H258 0.930 . S
C268 C267 1.400 . S
C268 C271 1.386 . S
H269 C285 0.930 . S
H270 C286 0.931 . S
C271 H259 0.929 . S
C271 C265 1.390 . S
C271 C268 1.386 . S
C272 C267 1.490 . S
C272 C274 1.395 . S
C272 C275 1.403 . S
H273 C279 0.930 . S
C274 H260 0.930 . S
C274 C272 1.395 . S
C274 C277 1.403 . S
C275 C272 1.403 . S
C275 C276 1.524 . S
C275 C279 1.400 . S
C276 H261 0.960 . S
C276 H262 0.960 . S
C276 H263 0.960 . S
C276 C275 1.524 . S
C277 C274 1.403 . S
C277 C278 1.392 . S
C277 C281 1.495 . S
C278 C277 1.392 . S
C278 C279 1.385 . S
C278 C280 1.478 . S
C279 H273 0.930 . S
C279 C275 1.400 . S
C279 C278 1.385 . S
C280 C278 1.478 . S
C280 C282 1.381 . S
C280 C286 1.383 . S
C281 C277 1.495 . S
C281 H287 0.959 . S
C281 H288 0.961 . S
C281 H289 0.960 . S
C282 C280 1.381 . S
C282 C283 1.394 . S
C282 H290 0.930 . S
C283 C282 1.394 . S
C283 C284 1.383 . S
C283 H291 0.929 . S
C284 C283 1.383 . S
C284 C285 1.377 . S
C285 H269 0.930 . S
C285 C284 1.377 . S
C285 C286 1.379 . S
C286 H270 0.931 . S
C286 C280 1.383 . S
C286 C285 1.379 . S
H287 C281 0.959 . S
H288 C281 0.961 . S
H289 C281 0.960 . S
H290 C282 0.930 . S
H291 C283 0.929 . S
H292 C300 0.929 . S
H293 C302 0.930 . S
H294 C304 0.930 . S
H295 C307 0.929 . S
H296 C310 0.930 . S
H297 C312 0.960 . S
H298 C312 0.960 . S
H299 C312 0.960 . S
C300 H292 0.929 . S
C300 C301 1.377 . S
C300 C302 1.384 . S
C301 C300 1.377 . S
C301 C307 1.390 . S
C302 H293 0.930 . S
C302 C300 1.384 . S
C302 C303 1.372 . S
C303 C302 1.372 . S
C303 C304 1.400 . S
C303 C308 1.490 . S
C304 H294 0.930 . S
C304 C303 1.400 . S
C304 C307 1.386 . S
H305 C321 0.930 . S
H306 C322 0.931 . S
C307 H295 0.929 . S
C307 C301 1.390 . S
C307 C304 1.386 . S
C308 C303 1.490 . S
C308 C310 1.395 . S
C308 C311 1.403 . S
H309 C315 0.930 . S
C310 H296 0.930 . S
C310 C308 1.395 . S
C310 C313 1.403 . S
C311 C308 1.403 . S
C311 C312 1.524 . S
C311 C315 1.400 . S
C312 H297 0.960 . S
C312 H298 0.960 . S
C312 H299 0.960 . S
C312 C311 1.524 . S
C313 C310 1.403 . S
C313 C314 1.392 . S
C313 C317 1.495 . S
C314 C313 1.392 . S
C314 C315 1.385 . S
C314 C316 1.478 . S
C315 H309 0.930 . S
C315 C311 1.400 . S
C315 C314 1.385 . S
C316 C314 1.478 . S
C316 C318 1.381 . S
C316 C322 1.383 . S
C317 C313 1.495 . S
C317 H323 0.959 . S
C317 H324 0.961 . S
C317 H325 0.960 . S
C318 C316 1.381 . S
C318 C319 1.394 . S
C318 H326 0.930 . S
C319 C318 1.394 . S
C319 C320 1.383 . S
C319 H327 0.929 . S
C320 C319 1.383 . S
C320 C321 1.377 . S
C321 H305 0.930 . S
C321 C320 1.377 . S
C321 C322 1.379 . S
C322 H306 0.931 . S
C322 C316 1.383 . S
C322 C321 1.379 . S
H323 C317 0.959 . S
H324 C317 0.961 . S
H325 C317 0.960 . S
H326 C318 0.930 . S
H327 C319 0.929 . S
H328 C336 0.929 . S
H329 C338 0.930 . S
H330 C340 0.930 . S
H331 C343 0.929 . S
H332 C346 0.930 . S
H333 C348 0.960 . S
H334 C348 0.960 . S
H335 C348 0.960 . S
C336 H328 0.929 . S
C336 C337 1.377 . S
C336 C338 1.384 . S
C337 C336 1.377 . S
C337 C343 1.390 . S
C338 H329 0.930 . S
C338 C336 1.384 . S
C338 C339 1.372 . S
C339 C338 1.372 . S
C339 C340 1.400 . S
C339 C344 1.490 . S
C340 H330 0.930 . S
C340 C339 1.400 . S
C340 C343 1.386 . S
H341 C357 0.930 . S
H342 C358 0.931 . S
C343 H331 0.929 . S
C343 C337 1.390 . S
C343 C340 1.386 . S
C344 C339 1.490 . S
C344 C346 1.395 . S
C344 C347 1.403 . S
H345 C351 0.930 . S
C346 H332 0.930 . S
C346 C344 1.395 . S
C346 C349 1.403 . S
C347 C344 1.403 . S
C347 C348 1.524 . S
C347 C351 1.400 . S
C348 H333 0.960 . S
C348 H334 0.960 . S
C348 H335 0.960 . S
C348 C347 1.524 . S
C349 C346 1.403 . S
C349 C350 1.392 . S
C349 C353 1.495 . S
C350 C349 1.392 . S
C350 C351 1.385 . S
C350 C352 1.478 . S
C351 H345 0.930 . S
C351 C347 1.400 . S
C351 C350 1.385 . S
C352 C350 1.478 . S
C352 C354 1.381 . S
C352 C358 1.383 . S
C353 C349 1.495 . S
C353 H359 0.959 . S
C353 H360 0.961 . S
C353 H361 0.960 . S
C354 C352 1.381 . S
C354 C355 1.394 . S
C354 H362 0.930 . S
C355 C354 1.394 . S
C355 C356 1.383 . S
C355 H363 0.929 . S
C356 C355 1.383 . S
C356 C357 1.377 . S
C357 H341 0.930 . S
C357 C356 1.377 . S
C357 C358 1.379 . S
C358 H342 0.931 . S
C358 C352 1.383 . S
C358 C357 1.379 . S
H359 C353 0.959 . S
H360 C353 0.961 . S
H361 C353 0.960 . S
H362 C354 0.930 . S
H363 C355 0.929 . S
H364 C372 0.929 . S
H365 C374 0.930 . S
H366 C376 0.930 . S
H367 C379 0.929 . S
H368 C382 0.930 . S
H369 C384 0.960 . S
H370 C384 0.960 . S
H371 C384 0.960 . S
C372 H364 0.929 . S
C372 C373 1.377 . S
C372 C374 1.384 . S
C373 C372 1.377 . S
C373 C379 1.390 . S
C374 H365 0.930 . S
C374 C372 1.384 . S
C374 C375 1.372 . S
C375 C374 1.372 . S
C375 C376 1.400 . S
C375 C380 1.490 . S
C376 H366 0.930 . S
C376 C375 1.400 . S
C376 C379 1.386 . S
H377 C393 0.930 . S
H378 C394 0.931 . S
C379 H367 0.929 . S
C379 C373 1.390 . S
C379 C376 1.386 . S
C380 C375 1.490 . S
C380 C382 1.395 . S
C380 C383 1.403 . S
H381 C387 0.930 . S
C382 H368 0.930 . S
C382 C380 1.395 . S
C382 C385 1.403 . S
C383 C380 1.403 . S
C383 C384 1.524 . S
C383 C387 1.400 . S
C384 H369 0.960 . S
C384 H370 0.960 . S
C384 H371 0.960 . S
C384 C383 1.524 . S
C385 C382 1.403 . S
C385 C386 1.392 . S
C385 C389 1.495 . S
C386 C385 1.392 . S
C386 C387 1.385 . S
C386 C388 1.478 . S
C387 H381 0.930 . S
C387 C383 1.400 . S
C387 C386 1.385 . S
C388 C386 1.478 . S
C388 C390 1.381 . S
C388 C394 1.383 . S
C389 C385 1.495 . S
C389 H395 0.959 . S
C389 H396 0.961 . S
C389 H397 0.960 . S
C390 C388 1.381 . S
C390 C391 1.394 . S
C390 H398 0.930 . S
C391 C390 1.394 . S
C391 C392 1.383 . S
C391 H399 0.929 . S
C392 C391 1.383 . S
C392 C393 1.377 . S
C393 H377 0.930 . S
C393 C392 1.377 . S
C393 C394 1.379 . S
C394 H378 0.931 . S
C394 C388 1.383 . S
C394 C393 1.379 . S
H395 C389 0.959 . S
H396 C389 0.961 . S
H397 C389 0.960 . S
H398 C390 0.930 . S
H399 C391 0.929 . S
H400 C408 0.929 . S
H401 C410 0.930 . S
H402 C412 0.930 . S
H403 C415 0.929 . S
H404 C418 0.930 . S
H405 C420 0.960 . S
H406 C420 0.960 . S
H407 C420 0.960 . S
C408 H400 0.929 . S
C408 C409 1.377 . S
C408 C410 1.384 . S
C409 C408 1.377 . S
C409 C415 1.390 . S
C410 H401 0.930 . S
C410 C408 1.384 . S
C410 C411 1.372 . S
C411 C410 1.372 . S
C411 C412 1.400 . S
C411 C416 1.490 . S
C412 H402 0.930 . S
C412 C411 1.400 . S
C412 C415 1.386 . S
H413 C429 0.930 . S
H414 C430 0.931 . S
C415 H403 0.929 . S
C415 C409 1.390 . S
C415 C412 1.386 . S
C416 C411 1.490 . S
C416 C418 1.395 . S
C416 C419 1.403 . S
H417 C423 0.930 . S
C418 H404 0.930 . S
C418 C416 1.395 . S
C418 C421 1.403 . S
C419 C416 1.403 . S
C419 C420 1.524 . S
C419 C423 1.400 . S
C420 H405 0.960 . S
C420 H406 0.960 . S
C420 H407 0.960 . S
C420 C419 1.524 . S
C421 C418 1.403 . S
C421 C422 1.392 . S
C421 C425 1.495 . S
C422 C421 1.392 . S
C422 C423 1.385 . S
C422 C424 1.478 . S
C423 H417 0.930 . S
C423 C419 1.400 . S
C423 C422 1.385 . S
C424 C422 1.478 . S
C424 C426 1.381 . S
C424 C430 1.383 . S
C425 C421 1.495 . S
C425 H431 0.959 . S
C425 H432 0.961 . S
C425 H433 0.960 . S
C426 C424 1.381 . S
C426 C427 1.394 . S
C426 H434 0.930 . S
C427 C426 1.394 . S
C427 C428 1.383 . S
C427 H435 0.929 . S
C428 C427 1.383 . S
C428 C429 1.377 . S
C429 H413 0.930 . S
C429 C428 1.377 . S
C429 C430 1.379 . S
C430 H414 0.931 . S
C430 C424 1.383 . S
C430 C429 1.379 . S
H431 C425 0.959 . S
H432 C425 0.961 . S
H433 C425 0.960 . S
H434 C426 0.930 . S
H435 C427 0.929 . S
H436 C444 0.929 . S
H437 C446 0.930 . S
H438 C448 0.930 . S
H439 C451 0.929 . S
H440 C454 0.928 . S
H441 C456 0.960 . S
H442 C456 0.960 . S
H443 C456 0.960 . S
C444 H436 0.929 . S
C444 C445 1.377 . S
C444 C446 1.384 . S
C445 C444 1.377 . S
C445 C451 1.390 . S
C446 H437 0.930 . S
C446 C444 1.384 . S
C446 C447 1.372 . S
C447 C446 1.372 . S
C447 C448 1.400 . S
C447 C452 1.490 . S
C448 H438 0.930 . S
C448 C447 1.400 . S
C448 C451 1.386 . S
H449 C465 0.930 . S
H450 C466 0.931 . S
C451 H439 0.929 . S
C451 C445 1.390 . S
C451 C448 1.386 . S
C452 C447 1.490 . S
C452 C454 1.389 . S
C452 C455 1.403 . S
H453 C459 0.930 . S
C454 H440 0.928 . S
C454 C452 1.389 . S
C454 C457 1.409 1_554 S
C455 C452 1.403 . S
C455 C456 1.524 . S
C455 C459 1.400 1_554 S
C456 H441 0.960 . S
C456 H442 0.960 . S
C456 H443 0.960 . S
C456 C455 1.524 . S
C457 C454 1.409 1_556 S
C457 C458 1.392 . S
C457 C461 1.495 . S
C458 C457 1.392 . S
C458 C459 1.385 . S
C458 C460 1.478 . S
C459 H453 0.930 . S
C459 C455 1.400 1_556 S
C459 C458 1.385 . S
C460 C458 1.478 . S
C460 C462 1.381 . S
C460 C466 1.383 . S
C461 C457 1.495 . S
C461 H467 0.959 . S
C461 H468 0.961 . S
C461 H469 0.960 . S
C462 C460 1.381 . S
C462 C463 1.394 . S
C462 H470 0.930 . S
C463 C462 1.394 . S
C463 C464 1.383 . S
C463 H471 0.929 . S
C464 C463 1.383 . S
C464 C465 1.377 . S
C465 H449 0.930 . S
C465 C464 1.377 . S
C465 C466 1.379 . S
C466 H450 0.931 . S
C466 C460 1.383 . S
C466 C465 1.379 . S
H467 C461 0.959 . S
H468 C461 0.961 . S
H469 C461 0.960 . S
H470 C462 0.930 . S
H471 C463 0.929 . S
H472 C480 0.929 . S
H473 C482 0.930 . S
H474 C484 0.930 . S
H475 C487 0.929 . S
H476 C490 0.930 . S
H477 C492 0.960 . S
H478 C492 0.960 1_545 S
H479 C492 0.960 1_545 S
C480 H472 0.929 . S
C480 C481 1.377 . S
C480 C482 1.384 . S
C481 C480 1.377 . S
C481 C487 1.390 . S
C482 H473 0.930 . S
C482 C480 1.384 . S
C482 C483 1.372 . S
C483 C482 1.372 . S
C483 C484 1.400 . S
C483 C488 1.490 . S
C484 H474 0.930 . S
C484 C483 1.400 . S
C484 C487 1.386 . S
H485 C501 0.930 . S
H486 C502 0.931 . S
C487 H475 0.929 . S
C487 C481 1.390 . S
C487 C484 1.386 . S
C488 C483 1.490 . S
C488 C490 1.395 1_455 S
C488 C491 1.406 . S
H489 C495 0.930 . S
C490 H476 0.930 . S
C490 C488 1.395 1_655 S
C490 C493 1.403 . S
C491 C488 1.406 . S
C491 C492 1.523 1_545 S
C491 C495 1.397 1_545 S
C492 H477 0.960 . S
C492 H478 0.960 1_565 S
C492 H479 0.960 1_565 S
C492 C491 1.523 1_565 S
C493 C490 1.403 . S
C493 C494 1.392 1_545 S
C493 C497 1.495 . S
C494 C493 1.392 1_565 S
C494 C495 1.385 1_655 S
C494 C496 1.478 . S
C495 H489 0.930 . S
C495 C491 1.397 1_565 S
C495 C494 1.385 1_455 S
C496 C494 1.478 . S
C496 C498 1.381 . S
C496 C502 1.383 . S
C497 C493 1.495 . S
C497 H503 0.959 . S
C497 H504 0.961 1_545 S
C497 H505 0.960 1_545 S
C498 C496 1.381 . S
C498 C499 1.394 . S
C498 H506 0.930 . S
C499 C498 1.394 . S
C499 C500 1.383 . S
C499 H507 0.929 . S
C500 C499 1.383 . S
C500 C501 1.377 . S
C501 H485 0.930 . S
C501 C500 1.377 . S
C501 C502 1.379 . S
C502 H486 0.931 . S
C502 C496 1.383 . S
C502 C501 1.379 . S
H503 C497 0.959 . S
H504 C497 0.961 1_565 S
H505 C497 0.960 1_565 S
H506 C498 0.930 . S
H507 C499 0.929 . S
H508 C516 0.929 . S
H509 C518 0.930 . S
H510 C520 0.930 . S
H511 C523 0.929 . S
H512 C526 0.930 . S
H513 C528 0.955 1_655 S
H514 C528 0.961 . S
H515 C528 0.964 . S
C516 H508 0.929 . S
C516 C517 1.377 . S
C516 C518 1.384 . S
C517 C516 1.377 . S
C517 C523 1.390 . S
C518 H509 0.930 . S
C518 C516 1.384 . S
C518 C519 1.372 . S
C519 C518 1.372 . S
C519 C520 1.400 . S
C519 C524 1.490 . S
C520 H510 0.930 . S
C520 C519 1.400 . S
C520 C523 1.386 . S
H521 C537 0.930 . S
H522 C538 0.931 . S
C523 H511 0.929 . S
C523 C517 1.390 . S
C523 C520 1.386 . S
C524 C519 1.490 . S
C524 C526 1.395 . S
C524 C527 1.403 . S
H525 C531 0.930 . S
C526 H512 0.930 . S
C526 C524 1.395 . S
C526 C529 1.399 1_455 S
C527 C524 1.403 . S
C527 C528 1.524 . S
C527 C531 1.400 1_455 S
C528 H513 0.955 1_455 S
C528 H514 0.961 . S
C528 H515 0.964 . S
C528 C527 1.524 . S
C529 C526 1.399 1_655 S
C529 C530 1.397 . S
C529 C533 1.495 1_655 S
C530 C529 1.397 . S
C530 C531 1.385 . S
C530 C532 1.478 . S
C531 H525 0.930 . S
C531 C527 1.400 1_655 S
C531 C530 1.385 . S
C532 C530 1.478 . S
C532 C534 1.381 . S
C532 C538 1.383 . S
C533 C529 1.495 1_455 S
C533 H539 0.958 . S
C533 H540 0.961 1_455 S
C533 H541 0.961 1_455 S
C534 C532 1.381 . S
C534 C535 1.394 . S
C534 H542 0.930 . S
C535 C534 1.394 . S
C535 C536 1.383 . S
C535 H543 0.929 . S
C536 C535 1.383 . S
C536 C537 1.377 . S
C537 H521 0.930 . S
C537 C536 1.377 . S
C537 C538 1.379 . S
C538 H522 0.931 . S
C538 C532 1.383 . S
C538 C537 1.379 . S
H539 C533 0.958 . S
H540 C533 0.961 1_655 S
H541 C533 0.961 1_655 S
H542 C534 0.930 . S
H543 C535 0.929 . S
H544 C552 0.929 . S
H545 C554 0.930 . S
H546 C556 0.930 . S
H547 C559 0.929 . S
H548 C562 0.930 . S
H549 C564 0.960 . S
H550 C564 0.960 . S
H551 C564 0.960 . S
C552 H544 0.929 . S
C552 C553 1.377 . S
C552 C554 1.384 . S
C553 C552 1.377 . S
C553 C559 1.390 . S
C554 H545 0.930 . S
C554 C552 1.384 . S
C554 C555 1.372 . S
C555 C554 1.372 . S
C555 C556 1.400 . S
C555 C560 1.490 . S
C556 H546 0.930 . S
C556 C555 1.400 . S
C556 C559 1.386 . S
H557 C573 0.930 . S
H558 C574 0.931 . S
C559 H547 0.929 . S
C559 C553 1.390 . S
C559 C556 1.386 . S
C560 C555 1.490 . S
C560 C562 1.395 . S
C560 C563 1.403 . S
H561 C567 0.930 . S
C562 H548 0.930 . S
C562 C560 1.395 . S
C562 C565 1.403 . S
C563 C560 1.403 . S
C563 C564 1.524 . S
C563 C567 1.400 . S
C564 H549 0.960 . S
C564 H550 0.960 . S
C564 H551 0.960 . S
C564 C563 1.524 . S
C565 C562 1.403 . S
C565 C566 1.392 . S
C565 C569 1.495 . S
C566 C565 1.392 . S
C566 C567 1.385 . S
C566 C568 1.478 . S
C567 H561 0.930 . S
C567 C563 1.400 . S
C567 C566 1.385 . S
C568 C566 1.478 . S
C568 C570 1.381 . S
C568 C574 1.383 . S
C569 C565 1.495 . S
C569 H575 0.959 . S
C569 H576 0.961 . S
C569 H577 0.960 . S
C570 C568 1.381 . S
C570 C571 1.394 . S
C570 H578 0.930 . S
C571 C570 1.394 . S
C571 C572 1.383 . S
C571 H579 0.929 . S
C572 C571 1.383 . S
C572 C573 1.377 . S
C573 H557 0.930 . S
C573 C572 1.377 . S
C573 C574 1.379 . S
C574 H558 0.931 . S
C574 C568 1.383 . S
C574 C573 1.379 . S
H575 C569 0.959 . S
H576 C569 0.961 . S
H577 C569 0.960 . S
H578 C570 0.930 . S
H579 C571 0.929 . S
H580 C588 0.929 . S
H581 C590 0.934 . S
H582 C592 0.930 . S
H583 C595 0.929 . S
H584 C598 0.930 . S
H585 C600 0.960 . S
H586 C600 0.960 . S
H587 C600 0.960 . S
C588 H580 0.929 . S
C588 C589 1.377 . S
C588 C590 1.384 . S
C589 C588 1.377 . S
C589 C595 1.390 . S
C590 H581 0.934 . S
C590 C588 1.384 . S
C590 C591 1.372 . S
C591 C590 1.372 . S
C591 C592 1.400 . S
C591 C596 1.490 . S
C592 H582 0.930 . S
C592 C591 1.400 . S
C592 C595 1.386 . S
H593 C609 0.930 . S
H594 C610 0.931 1_565 S
C595 H583 0.929 . S
C595 C589 1.390 . S
C595 C592 1.386 . S
C596 C591 1.490 . S
C596 C598 1.395 . S
C596 C599 1.403 . S
H597 C603 0.930 . S
C598 H584 0.930 . S
C598 C596 1.395 . S
C598 C601 1.403 1_565 S
C599 C596 1.403 . S
C599 C600 1.524 . S
C599 C603 1.400 1_565 S
C600 H585 0.960 . S
C600 H586 0.960 . S
C600 H587 0.960 . S
C600 C599 1.524 . S
C601 C598 1.403 1_545 S
C601 C602 1.392 . S
C601 C605 1.495 . S
C602 C601 1.392 . S
C602 C603 1.385 . S
C602 C604 1.478 . S
C603 H597 0.930 . S
C603 C599 1.400 1_545 S
C603 C602 1.385 . S
C604 C602 1.478 . S
C604 C606 1.381 . S
C604 C610 1.383 . S
C605 C601 1.495 . S
C605 H611 0.959 . S
C605 H612 0.961 . S
C605 H613 0.960 . S
C606 C604 1.381 . S
C606 C607 1.394 . S
C606 H614 0.930 . S
C607 C606 1.394 . S
C607 C608 1.383 . S
C607 H615 0.929 . S
C608 C607 1.383 . S
C608 C609 1.377 . S
C609 H593 0.930 . S
C609 C608 1.377 . S
C609 C610 1.379 . S
C610 H594 0.931 1_545 S
C610 C604 1.383 . S
C610 C609 1.379 . S
H611 C605 0.959 . S
H612 C605 0.961 . S
H613 C605 0.960 . S
H614 C606 0.930 . S
H615 C607 0.929 . S
H616 C624 0.929 . S
H617 C626 0.930 . S
H618 C628 0.930 . S
H619 C631 0.929 . S
H620 C634 0.930 . S
H621 C636 0.960 . S
H622 C636 0.960 . S
H623 C636 0.960 . S
C624 H616 0.929 . S
C624 C625 1.377 . S
C624 C626 1.384 . S
C625 C624 1.377 . S
C625 C631 1.390 . S
C626 H617 0.930 . S
C626 C624 1.384 . S
C626 C627 1.372 . S
C627 C626 1.372 . S
C627 C628 1.400 . S
C627 C632 1.490 . S
C628 H618 0.930 . S
C628 C627 1.400 . S
C628 C631 1.386 . S
H629 C645 0.930 . S
H630 C646 0.931 . S
C631 H619 0.929 . S
C631 C625 1.390 . S
C631 C628 1.386 . S
C632 C627 1.490 . S
C632 C634 1.395 . S
C632 C635 1.403 1_655 S
H633 C639 0.930 . S
C634 H620 0.930 . S
C634 C632 1.395 . S
C634 C637 1.403 . S
C635 C632 1.403 1_455 S
C635 C636 1.524 . S
C635 C639 1.400 . S
C636 H621 0.960 . S
C636 H622 0.960 . S
C636 H623 0.960 . S
C636 C635 1.524 . S
C637 C634 1.403 . S
C637 C638 1.392 1_655 S
C637 C641 1.495 . S
C638 C637 1.392 1_455 S
C638 C639 1.385 . S
C638 C640 1.478 . S
C639 H633 0.930 . S
C639 C635 1.400 . S
C639 C638 1.385 . S
C640 C638 1.478 . S
C640 C642 1.381 . S
C640 C646 1.383 . S
C641 C637 1.495 . S
C641 H647 0.959 . S
C641 H648 0.961 . S
C641 H649 0.960 . S
C642 C640 1.381 . S
C642 C643 1.394 . S
C642 H650 0.930 . S
C643 C642 1.394 . S
C643 C644 1.383 . S
C643 H651 0.929 . S
C644 C643 1.383 . S
C644 C645 1.377 . S
C645 H629 0.930 . S
C645 C644 1.377 . S
C645 C646 1.379 . S
C646 H630 0.931 . S
C646 C640 1.383 . S
C646 C645 1.379 . S
H647 C641 0.959 . S
H648 C641 0.961 . S
H649 C641 0.960 . S
H650 C642 0.930 . S
H651 C643 0.929 . S
H652 C660 0.929 . S
H653 C662 0.930 . S
H654 C664 0.930 . S
H655 C667 0.929 . S
H656 C670 0.930 . S
H657 C672 0.960 . S
H658 C672 0.960 . S
H659 C672 0.960 . S
C660 H652 0.929 . S
C660 C661 1.377 . S
C660 C662 1.384 . S
C661 C660 1.377 . S
C661 C667 1.390 . S
C662 H653 0.930 . S
C662 C660 1.384 . S
C662 C663 1.372 . S
C663 C662 1.372 . S
C663 C664 1.400 . S
C663 C668 1.490 . S
C664 H654 0.930 . S
C664 C663 1.400 . S
C664 C667 1.386 . S
H665 C681 0.930 . S
H666 C682 0.931 . S
C667 H655 0.929 . S
C667 C661 1.390 . S
C667 C664 1.386 . S
C668 C663 1.490 . S
C668 C670 1.395 . S
C668 C671 1.403 . S
H669 C675 0.930 . S
C670 H656 0.930 . S
C670 C668 1.395 . S
C670 C673 1.403 . S
C671 C668 1.403 . S
C671 C672 1.524 . S
C671 C675 1.400 . S
C672 H657 0.960 . S
C672 H658 0.960 . S
C672 H659 0.960 . S
C672 C671 1.524 . S
C673 C670 1.403 . S
C673 C674 1.392 . S
C673 C677 1.495 . S
C674 C673 1.392 . S
C674 C675 1.385 . S
C674 C676 1.478 . S
C675 H669 0.930 . S
C675 C671 1.400 . S
C675 C674 1.385 . S
C676 C674 1.478 . S
C676 C678 1.381 . S
C676 C682 1.383 . S
C677 C673 1.495 . S
C677 H683 0.959 . S
C677 H684 0.961 . S
C677 H685 0.960 . S
C678 C676 1.381 . S
C678 C679 1.394 . S
C678 H686 0.930 . S
C679 C678 1.394 . S
C679 C680 1.383 . S
C679 H687 0.929 . S
C680 C679 1.383 . S
C680 C681 1.377 . S
C681 H665 0.930 . S
C681 C680 1.377 . S
C681 C682 1.379 . S
C682 H666 0.931 . S
C682 C676 1.383 . S
C682 C681 1.379 . S
H683 C677 0.959 . S
H684 C677 0.961 . S
H685 C677 0.960 . S
H686 C678 0.930 . S
H687 C679 0.929 . S
H688 C696 0.929 . S
H689 C698 0.930 . S
H690 C700 0.930 . S
H691 C703 0.929 . S
H692 C706 0.930 . S
H693 C708 0.960 1_565 S
H694 C708 0.960 . S
H695 C708 0.960 . S
C696 H688 0.929 . S
C696 C697 1.377 . S
C696 C698 1.384 . S
C697 C696 1.377 . S
C697 C703 1.390 . S
C698 H689 0.930 . S
C698 C696 1.384 . S
C698 C699 1.372 . S
C699 C698 1.372 . S
C699 C700 1.400 . S
C699 C704 1.490 . S
C700 H690 0.930 . S
C700 C699 1.400 . S
C700 C703 1.386 . S
H701 C717 0.930 . S
H702 C718 0.931 . S
C703 H691 0.929 . S
C703 C697 1.390 . S
C703 C700 1.386 . S
C704 C699 1.490 . S
C704 C706 1.395 . S
C704 C707 1.403 . S
H705 C711 0.930 . S
C706 H692 0.930 . S
C706 C704 1.395 . S
C706 C709 1.403 . S
C707 C704 1.403 . S
C707 C708 1.524 . S
C707 C711 1.400 1_545 S
C708 H693 0.960 1_545 S
C708 H694 0.960 . S
C708 H695 0.960 . S
C708 C707 1.524 . S
C709 C706 1.403 . S
C709 C710 1.392 1_545 S
C709 C713 1.495 . S
C710 C709 1.392 1_565 S
C710 C711 1.385 . S
C710 C712 1.478 . S
C711 H705 0.930 . S
C711 C707 1.400 1_565 S
C711 C710 1.385 . S
C712 C710 1.478 . S
C712 C714 1.381 . S
C712 C718 1.383 . S
C713 C709 1.495 . S
C713 H719 0.959 . S
C713 H720 0.961 1_545 S
C713 H721 0.960 1_545 S
C714 C712 1.381 . S
C714 C715 1.394 . S
C714 H722 0.930 . S
C715 C714 1.394 . S
C715 C716 1.383 . S
C715 H723 0.929 . S
C716 C715 1.383 . S
C716 C717 1.377 . S
C717 H701 0.930 . S
C717 C716 1.377 . S
C717 C718 1.379 . S
C718 H702 0.931 . S
C718 C712 1.383 . S
C718 C717 1.379 . S
H719 C713 0.959 . S
H720 C713 0.961 1_565 S
H721 C713 0.960 1_565 S
H722 C714 0.930 . S
H723 C715 0.929 . S
H724 C732 0.929 . S
H725 C734 0.930 1_545 S
H726 C736 0.930 . S
H727 C739 0.929 . S
H728 C742 0.930 . S
H729 C744 0.960 1_455 S
H730 C744 0.960 . S
H731 C744 0.960 . S
C732 H724 0.929 . S
C732 C733 1.377 . S
C732 C734 1.384 . S
C733 C732 1.377 . S
C733 C739 1.390 . S
C734 H725 0.930 1_565 S
C734 C732 1.384 . S
C734 C735 1.372 . S
C735 C734 1.372 . S
C735 C736 1.400 . S
C735 C740 1.490 . S
C736 H726 0.930 . S
C736 C735 1.400 . S
C736 C739 1.386 . S
H737 C753 0.930 . S
H738 C754 0.931 . S
C739 H727 0.929 . S
C739 C733 1.390 . S
C739 C736 1.386 . S
C740 C735 1.490 . S
C740 C742 1.395 1_565 S
C740 C743 1.403 . S
H741 C747 0.930 . S
C742 H728 0.930 . S
C742 C740 1.395 1_545 S
C742 C745 1.403 1_655 S
C743 C740 1.403 . S
C743 C744 1.524 . S
C743 C747 1.400 1_655 S
C744 H729 0.960 1_655 S
C744 H730 0.960 . S
C744 H731 0.960 . S
C744 C743 1.524 . S
C745 C742 1.403 1_455 S
C745 C746 1.392 . S
C745 C749 1.495 . S
C746 C745 1.392 . S
C746 C747 1.385 1_545 S
C746 C748 1.478 . S
C747 H741 0.930 . S
C747 C743 1.400 1_455 S
C747 C746 1.385 1_565 S
C748 C746 1.478 . S
C748 C750 1.381 . S
C748 C754 1.383 . S
C749 C745 1.495 . S
C749 H755 0.959 1_455 S
C749 H756 0.961 . S
C749 H757 0.960 . S
C750 C748 1.381 . S
C750 C751 1.394 . S
C750 H758 0.930 . S
C751 C750 1.394 . S
C751 C752 1.383 . S
C751 H759 0.929 . S
C752 C751 1.383 . S
C752 C753 1.377 . S
C753 H737 0.930 . S
C753 C752 1.377 . S
C753 C754 1.379 . S
C754 H738 0.931 . S
C754 C748 1.383 . S
C754 C753 1.379 . S
H755 C749 0.959 1_655 S
H756 C749 0.961 . S
H757 C749 0.960 . S
H758 C750 0.930 . S
H759 C751 0.929 . S
C193 C16 1.908 . S
C212 C131 1.878 . S
C229 C30 1.949 . S
C248 C145 1.945 . S
C265 C62 1.900 . S
C284 C177 1.922 . S
C301 C76 1.949 . S
C320 C99 1.945 . S
C337 C168 1.949 . S
C356 C7 1.946 . S
C373 C108 1.900 . S
C392 C39 1.921 . S
C409 C53 1.947 . S
C428 C122 1.961 . S
C445 C154 1.903 . S
C464 C85 1.894 . S
C481 N2 1.664 . S
C500 N140 1.693 . S
C517 N173 1.791 . S
C536 N35 1.789 . S
C553 N48 1.659 . S
C572 N94 1.633 . S
C589 N81 1.785 . S
C608 N127 1.799 . S
C625 N150 1.789 . S
C644 N12 1.779 . S
C661 N163 1.658 . S
C680 N25 1.636 . S
C697 N58 1.786 . S
C716 N104 1.806 . S
C733 N71 1.658 . S
C752 N117 1.689 . S
