# Generated by pormake.
# Topology yff, (5)-cn, num edge types: 1
# Building blocks:
#     Node 0, Type 0, BuildingBlock: XOMCOT_clean_sbu_1, # of connection points: 5
#     Node 1, Type 0, BuildingBlock: XOMCOT_clean_sbu_1, # of connection points: 5
#     Node 2, Type 0, BuildingBlock: XOMCOT_clean_sbu_1, # of connection points: 5
#     Node 3, Type 0, BuildingBlock: XOMCOT_clean_sbu_1, # of connection points: 5
#     Node 4, Type 0, BuildingBlock: XOMCOT_clean_sbu_1, # of connection points: 5
#     Node 5, Type 0, BuildingBlock: XOMCOT_clean_sbu_1, # of connection points: 5
#     Node 6, Type 0, BuildingBlock: XOMCOT_clean_sbu_1, # of connection points: 5
#     Node 7, Type 0, BuildingBlock: XOMCOT_clean_sbu_1, # of connection points: 5
#     Node 8, Type 0, BuildingBlock: XOMCOT_clean_sbu_1, # of connection points: 5
#     Node 9, Type 0, BuildingBlock: XOMCOT_clean_sbu_1, # of connection points: 5
#     Node 10, Type 0, BuildingBlock: XOMCOT_clean_sbu_1, # of connection points: 5
#     Node 11, Type 0, BuildingBlock: XOMCOT_clean_sbu_1, # of connection points: 5
#     Node 12, Type 0, BuildingBlock: XOMCOT_clean_sbu_1, # of connection points: 5
#     Node 13, Type 0, BuildingBlock: XOMCOT_clean_sbu_1, # of connection points: 5
#     Node 14, Type 0, BuildingBlock: XOMCOT_clean_sbu_1, # of connection points: 5
#     Node 15, Type 0, BuildingBlock: XOMCOT_clean_sbu_1, # of connection points: 5
#     Edge 16, Type (0, 0), BuildingBlock: AJUNOK_clean_linker_0, # of connection points: 2
#     Edge 17, Type (0, 0), BuildingBlock: AJUNOK_clean_linker_0, # of connection points: 2
#     Edge 18, Type (0, 0), BuildingBlock: AJUNOK_clean_linker_0, # of connection points: 2
#     Edge 19, Type (0, 0), BuildingBlock: AJUNOK_clean_linker_0, # of connection points: 2
#     Edge 20, Type (0, 0), BuildingBlock: AJUNOK_clean_linker_0, # of connection points: 2
#     Edge 21, Type (0, 0), BuildingBlock: AJUNOK_clean_linker_0, # of connection points: 2
#     Edge 22, Type (0, 0), BuildingBlock: AJUNOK_clean_linker_0, # of connection points: 2
#     Edge 23, Type (0, 0), BuildingBlock: AJUNOK_clean_linker_0, # of connection points: 2
#     Edge 24, Type (0, 0), BuildingBlock: AJUNOK_clean_linker_0, # of connection points: 2
#     Edge 25, Type (0, 0), BuildingBlock: AJUNOK_clean_linker_0, # of connection points: 2
#     Edge 26, Type (0, 0), BuildingBlock: AJUNOK_clean_linker_0, # of connection points: 2
#     Edge 27, Type (0, 0), BuildingBlock: AJUNOK_clean_linker_0, # of connection points: 2
#     Edge 28, Type (0, 0), BuildingBlock: AJUNOK_clean_linker_0, # of connection points: 2
#     Edge 29, Type (0, 0), BuildingBlock: AJUNOK_clean_linker_0, # of connection points: 2
#     Edge 30, Type (0, 0), BuildingBlock: AJUNOK_clean_linker_0, # of connection points: 2
#     Edge 31, Type (0, 0), BuildingBlock: AJUNOK_clean_linker_0, # of connection points: 2
#     Edge 32, Type (0, 0), BuildingBlock: AJUNOK_clean_linker_0, # of connection points: 2
#     Edge 33, Type (0, 0), BuildingBlock: AJUNOK_clean_linker_0, # of connection points: 2
#     Edge 34, Type (0, 0), BuildingBlock: AJUNOK_clean_linker_0, # of connection points: 2
#     Edge 35, Type (0, 0), BuildingBlock: AJUNOK_clean_linker_0, # of connection points: 2
#     Edge 36, Type (0, 0), BuildingBlock: AJUNOK_clean_linker_0, # of connection points: 2
#     Edge 37, Type (0, 0), BuildingBlock: AJUNOK_clean_linker_0, # of connection points: 2
#     Edge 38, Type (0, 0), BuildingBlock: AJUNOK_clean_linker_0, # of connection points: 2
#     Edge 39, Type (0, 0), BuildingBlock: AJUNOK_clean_linker_0, # of connection points: 2
#     Edge 40, Type (0, 0), BuildingBlock: AJUNOK_clean_linker_0, # of connection points: 2
#     Edge 41, Type (0, 0), BuildingBlock: AJUNOK_clean_linker_0, # of connection points: 2
#     Edge 42, Type (0, 0), BuildingBlock: AJUNOK_clean_linker_0, # of connection points: 2
#     Edge 43, Type (0, 0), BuildingBlock: AJUNOK_clean_linker_0, # of connection points: 2
#     Edge 44, Type (0, 0), BuildingBlock: AJUNOK_clean_linker_0, # of connection points: 2
#     Edge 45, Type (0, 0), BuildingBlock: AJUNOK_clean_linker_0, # of connection points: 2
#     Edge 46, Type (0, 0), BuildingBlock: AJUNOK_clean_linker_0, # of connection points: 2
#     Edge 47, Type (0, 0), BuildingBlock: AJUNOK_clean_linker_0, # of connection points: 2
#     Edge 48, Type (0, 0), BuildingBlock: AJUNOK_clean_linker_0, # of connection points: 2
#     Edge 49, Type (0, 0), BuildingBlock: AJUNOK_clean_linker_0, # of connection points: 2
#     Edge 50, Type (0, 0), BuildingBlock: AJUNOK_clean_linker_0, # of connection points: 2
#     Edge 51, Type (0, 0), BuildingBlock: AJUNOK_clean_linker_0, # of connection points: 2
#     Edge 52, Type (0, 0), BuildingBlock: AJUNOK_clean_linker_0, # of connection points: 2
#     Edge 53, Type (0, 0), BuildingBlock: AJUNOK_clean_linker_0, # of connection points: 2
#     Edge 54, Type (0, 0), BuildingBlock: AJUNOK_clean_linker_0, # of connection points: 2
#     Edge 55, Type (0, 0), BuildingBlock: AJUNOK_clean_linker_0, # of connection points: 2
# Relax obj value: 0.475
# Max RMSD: 0.405
# Mean RMSD: 0.312
data_MOF--net-yff--node1-XOMCOT_clean_sbu_1--edge1-AJUNOK_clean_linker_0
_symmetry_space_group_name_H-M    P1
_symmetry_Int_Tables_number       1
_symmetry_cell_setting            triclinic
loop_
_symmetry_equiv_pos_as_xyz
'x, y, z'
_cell_length_a     48.011763
_cell_length_b     47.41634
_cell_length_c     21.692926
_cell_angle_alpha  91.74757
_cell_angle_beta   89.772785
_cell_angle_gamma 112.43509
loop_
_atom_site_label
_atom_site_type_symbol
_atom_site_fract_x
_atom_site_fract_y
_atom_site_fract_z
_atom_type_partial_charge
C0 C 0.09147 0.00448 0.45303 0.0
C1 C 0.0798 0.97973 0.41277 0.0
N2 N 0.05752 0.98297 0.38012 0.0
N3 N 0.07713 0.02365 0.4445 0.0
C4 C 0.05624 0.00967 0.40015 0.0
H5 H 0.10902 0.00811 0.48701 0.0
Co6 Co 0.08254 0.05924 0.49141 0.0
C7 C 0.09539 0.10396 0.39206 0.0
O8 O 0.11915 0.12306 0.4221 0.0
N9 N 0.08629 0.09343 0.5417 0.0
C10 C 0.07954 0.1328 0.58875 0.0
C11 C 0.0812 0.11917 0.53252 0.0
C12 C 0.08651 0.09154 0.60367 0.0
N13 N 0.0825 0.11505 0.63338 0.0
O14 O 0.04107 0.04502 0.5021 0.0
H15 H 0.07604 0.12633 0.48876 0.0
H16 H 0.08794 0.07221 0.62659 0.0
O17 O 0.07876 0.07907 0.41674 0.0
C18 C 0.03146 0.02498 0.54282 0.0
O19 O 0.05101 0.01837 0.57553 0.0
N20 N 0.12438 0.07208 0.48206 0.0
C21 C 0.18098 0.06974 0.47471 0.0
C22 C 0.16508 0.06942 0.42088 0.0
C23 C 0.13653 0.07023 0.42554 0.0
C24 C 0.14094 0.07506 0.5345 0.0
C25 C 0.16955 0.07432 0.53179 0.0
H26 H 0.12299 0.06571 0.38403 0.0
H27 H 0.1311 0.07475 0.57915 0.0
H28 H 0.04009 0.0186 0.38362 0.0
H29 H 0.08651 0.96039 0.40893 0.0
H30 H 0.07413 0.1528 0.59622 0.0
H31 H 0.1732 0.0653 0.37616 0.0
H32 H 0.18145 0.07445 0.57422 0.0
C33 C 0.54092 0.12625 0.95673 0.0
C34 C 0.5611 0.11939 0.91985 0.0
N35 N 0.54538 0.09699 0.87888 0.0
N36 N 0.51271 0.10831 0.93897 0.0
C37 C 0.51615 0.09079 0.89191 0.0
H38 H 0.54642 0.14178 0.99647 0.0
Co39 Co 0.47744 0.10187 0.98124 0.0
C40 C 0.43503 0.10013 0.876 0.0
O41 O 0.42265 0.11656 0.90685 0.0
N42 N 0.44225 0.09388 1.02845 0.0
C43 C 0.39666 0.07212 0.06975 0.0
C44 C 0.41274 0.07804 1.01557 0.0
C45 C 0.44346 0.09589 0.0909 0.0
N46 N 0.41615 0.08312 0.11721 0.0
O47 O 0.47066 0.06055 0.98487 0.0
H48 H 0.40354 0.06871 0.97076 0.0
H49 H 0.46434 0.10512 0.11677 0.0
O50 O 0.45526 0.09291 0.90166 0.0
C51 C 0.47865 0.04993 1.03141 0.0
O52 O 0.49335 0.06847 0.07692 0.0
N53 N 0.4844 0.14349 0.97756 0.0
C54 C 0.47702 0.19819 0.9716 0.0
C55 C 0.48321 0.18456 0.91798 0.0
C56 C 0.48767 0.15737 0.92225 0.0
C57 C 0.48437 0.15949 1.03077 0.0
C58 C 0.47996 0.18679 1.02891 0.0
H59 H 0.49104 0.14616 0.88043 0.0
H60 H 0.4857 0.15031 0.07486 0.0
H61 H 0.4974 0.07255 0.86999 0.0
H62 H 0.58529 0.1287 0.92609 0.0
H63 H 0.37279 0.05875 0.0741 0.0
H64 H 0.48229 0.19354 0.87304 0.0
H65 H 0.47623 0.19726 0.07156 0.0
C66 C 0.3541 0.48345 0.46214 0.0
C67 C 0.3695 0.50686 0.42415 0.0
N68 N 0.38378 0.49638 0.381 0.0
N69 N 0.35841 0.45814 0.44304 0.0
C70 C 0.37645 0.46661 0.39344 0.0
H71 H 0.34144 0.48499 0.50256 0.0
Co72 Co 0.34598 0.42221 0.4866 0.0
C73 C 0.3271 0.37529 0.38132 0.0
O74 O 0.30155 0.35917 0.40734 0.0
N75 N 0.33391 0.38666 0.53463 0.0
C76 C 0.30595 0.34798 0.59243 0.0
C77 C 0.30673 0.36346 0.53948 0.0
C78 C 0.34897 0.38461 0.58588 0.0
N79 N 0.33251 0.36154 0.62198 0.0
O80 O 0.38713 0.42892 0.4986 0.0
H81 H 0.28709 0.36027 0.51178 0.0
H82 H 0.37076 0.40124 0.59959 0.0
O83 O 0.34553 0.39923 0.40932 0.0
C84 C 0.39974 0.45092 0.53716 0.0
O85 O 0.38279 0.46233 0.56857 0.0
N86 N 0.30633 0.41858 0.4769 0.0
C87 C 0.25996 0.43963 0.47391 0.0
C88 C 0.27109 0.43195 0.4189 0.0
C89 C 0.29461 0.4216 0.42133 0.0
C90 C 0.29389 0.42342 0.53072 0.0
C91 C 0.27025 0.43349 0.53024 0.0
H92 H 0.30566 0.4198 0.37881 0.0
H93 H 0.30428 0.42236 0.57428 0.0
H94 H 0.38429 0.45126 0.36782 0.0
H95 H 0.37094 0.53015 0.42942 0.0
H96 H 0.28617 0.33044 0.61105 0.0
H97 H 0.26375 0.43667 0.37461 0.0
H98 H 0.26176 0.43876 0.5736 0.0
C99 C 0.93831 0.37091 0.96387 0.0
C100 C 0.91634 0.36897 0.92227 0.0
N101 N 0.92943 0.38187 0.86963 0.0
N102 N 0.96569 0.38504 0.93863 0.0
C103 C 0.95953 0.39118 0.88076 0.0
H104 H 0.93445 0.36392 1.01117 0.0
Co105 Co 0.00168 0.39757 0.98651 0.0
C106 C 0.03398 0.42313 0.89902 0.0
O107 O 0.03531 0.39672 0.91158 0.0
N108 N 0.03656 0.41068 0.03883 0.0
C109 C 0.07046 0.40398 0.10028 0.0
C110 C 0.05576 0.39621 0.04401 0.0
C111 C 0.041 0.42799 0.09178 0.0
N112 N 0.06061 0.42345 0.13122 0.0
O113 O -0.01814 0.41423 0.04566 0.0
H114 H 0.05644 0.37842 1.01235 0.0
H115 H 0.02865 0.44223 0.10305 0.0
O116 O 0.01903 0.4335 0.9365 0.0
C117 C -0.03049 0.43068 0.07219 0.0
O118 O 0.9577 0.42295 0.12689 0.0
N119 N -0.01236 0.36042 1.02537 0.0
C120 C -0.0127 0.30513 0.06279 0.0
C121 C -0.01611 0.30974 1.00061 0.0
C122 C -0.01518 0.33779 0.98278 0.0
C123 C -0.01202 0.35551 0.08706 0.0
C124 C -0.01159 0.32777 0.10697 0.0
H125 H -0.01408 0.34236 0.93412 0.0
H126 H -0.00899 0.37389 0.1204 0.0
H127 H -0.02312 0.40287 0.84838 0.0
H128 H 0.89248 0.36038 0.93198 0.0
H129 H 0.08515 0.39381 0.11916 0.0
H130 H -0.0165 0.2928 0.96553 0.0
H131 H -0.00848 0.32482 0.15541 0.0
C132 C 0.59863 0.01577 0.6076 0.0
C133 C 0.60194 0.03957 0.64861 0.0
N134 N 0.58412 0.02852 0.69775 0.0
N135 N 0.57864 -0.01016 0.63023 0.0
C136 C 0.57048 -0.00183 0.68519 0.0
H137 H 0.60797 0.01766 0.56174 0.0
Co138 Co 0.55916 0.95438 0.58357 0.0
C139 C 0.5461 0.90837 0.68465 0.0
O140 O 0.559 0.89209 0.6549 0.0
N141 N 0.53871 0.91972 0.53255 0.0
C142 C 0.50992 0.87518 0.48774 0.0
C143 C 0.52033 0.89056 0.54317 0.0
C144 C 0.53768 0.9217 0.47051 0.0
N145 N 0.52099 0.89491 0.44221 0.0
O146 O 0.52498 0.96355 0.58314 0.0
H147 H 0.51342 0.88103 0.58775 0.0
H148 H 0.54911 0.94257 0.4463 0.0
O149 O 0.54458 0.93184 0.65968 0.0
C150 C 0.52375 0.98198 0.54322 0.0
O151 O 0.54534 -0.00764 0.50255 0.0
N152 N 0.59429 0.9465 0.58283 0.0
C153 C 0.64711 0.93596 0.57731 0.0
C154 C 0.63604 0.94146 0.63422 0.0
C155 C 0.60983 0.94733 0.63589 0.0
C156 C 0.60617 0.94362 0.52694 0.0
C157 C 0.6324 0.93781 0.52308 0.0
H158 H 0.60191 0.95236 0.67994 0.0
H159 H 0.5958 0.94641 0.48493 0.0
H160 H 0.55311 0.9825 0.71315 0.0
H161 H 0.61429 0.06336 0.63937 0.0
H162 H 0.49454 0.85164 0.48148 0.0
H163 H 0.64742 0.94104 0.677 0.0
H164 H 0.64133 0.93528 0.47823 0.0
C165 C 0.47373 0.59969 0.11239 0.0
C166 C 0.4501 0.58511 0.15074 0.0
N167 N 0.45956 0.5706 0.1935 0.0
N168 N 0.49812 0.59471 0.13113 0.0
C169 C 0.48891 0.57707 0.18076 0.0
H170 H 0.47294 0.6121 0.07185 0.0
Co171 Co 0.53364 0.60457 0.08676 0.0
C172 C 0.57776 0.62711 0.19098 0.0
O173 O 0.59168 0.65354 0.16531 0.0
N174 N 0.5682 0.61291 0.03869 0.0
C175 C 0.61184 0.61871 0.99395 0.0
C176 C 0.59748 0.61799 0.04948 0.0
C177 C 0.56529 0.60958 0.97677 0.0
N178 N 0.59136 0.61338 0.94845 0.0
O179 O 0.5255 0.56271 0.07707 0.0
H180 H 0.60768 0.61912 0.09412 0.0
H181 H 0.54408 0.60387 0.95265 0.0
O182 O 0.55568 0.60625 0.1633 0.0
C183 C 0.50492 0.55042 0.03678 0.0
O184 O 0.49551 0.56815 1.00454 0.0
N185 N 0.53938 0.64596 0.09366 0.0
C186 C 0.52402 0.69674 0.09293 0.0
C187 C 0.5268 0.68405 0.14878 0.0
C188 C 0.53428 0.65843 0.14817 0.0
C189 C 0.53896 0.65963 0.03945 0.0
C190 C 0.53161 0.68525 0.0381 0.0
H191 H 0.53258 0.64674 0.19083 0.0
H192 H 0.54088 0.64896 0.99608 0.0
H193 H 0.50342 0.56874 0.20601 0.0
H194 H 0.42735 0.5842 0.14587 0.0
H195 H 0.63501 0.6211 0.98774 0.0
H196 H 0.52079 0.69227 0.19197 0.0
H197 H 0.52891 0.694 0.99391 0.0
C198 C 0.82763 0.41051 0.61287 0.0
C199 C 0.83627 0.39277 0.65178 0.0
N200 N 0.85874 0.41145 0.68843 0.0
N201 N 0.84431 0.44018 0.62578 0.0
C202 C 0.86256 0.44 0.6728 0.0
H203 H 0.8122 0.4023 0.57416 0.0
Co204 Co 0.85096 0.4726 0.5741 0.0
C205 C 0.84696 0.51785 0.67597 0.0
O206 O 0.82603 0.52465 0.64881 0.0
N207 N 0.8593 0.50414 0.51776 0.0
C208 C 0.86691 0.54469 0.46103 0.0
C209 C 0.86029 0.53298 0.51922 0.0
C210 C 0.86632 0.49933 0.45872 0.0
N211 N 0.8706 0.52339 0.423 0.0
O212 O 0.89189 0.48083 0.57559 0.0
H213 H 0.85656 0.54503 0.5592 0.0
H214 H 0.86709 0.47794 0.44171 0.0
O215 O 0.85763 0.49985 0.64878 0.0
C216 C 0.9038 0.46404 0.54959 0.0
O217 O 0.88682 0.43837 0.52119 0.0
N218 N 0.80951 0.46461 0.5714 0.0
C219 C 0.75609 0.47351 0.56508 0.0
C220 C 0.76611 0.46716 0.62164 0.0
C221 C 0.79289 0.46212 0.62361 0.0
C222 C 0.79683 0.4644 0.51515 0.0
C223 C 0.7702 0.46945 0.51088 0.0
H224 H 0.80193 0.45981 0.66789 0.0
H225 H 0.80863 0.46309 0.47339 0.0
H226 H 0.87998 0.46047 0.69185 0.0
H227 H 0.82837 0.3681 0.64987 0.0
H228 H 0.86883 0.56716 0.44765 0.0
H229 H 0.75515 0.46909 0.66441 0.0
H230 H 0.76204 0.47249 0.46607 0.0
C231 C -0.02789 0.86206 0.11947 0.0
C232 C -0.00572 0.87647 0.16282 0.0
N233 N -0.01518 0.89415 0.20047 0.0
N234 N 0.94858 0.87035 0.12999 0.0
C235 C 0.95698 0.88982 0.17953 0.0
H236 H -0.02638 0.84759 0.08115 0.0
Co237 Co 0.91431 0.86294 0.08094 0.0
C238 C 0.87065 0.83407 0.1861 0.0
O239 O 0.85901 0.80612 0.1627 0.0
N240 N 0.88017 0.85637 1.0316 0.0
C241 C 0.83811 0.83386 0.97664 0.0
C242 C 0.8527 0.83354 1.03079 0.0
C243 C 0.88134 0.8706 0.97809 0.0
N244 N 0.85642 0.85688 0.94283 0.0
O245 O 0.92118 0.90489 0.08834 0.0
H246 H 0.84464 0.81584 0.06375 0.0
H247 H 0.9009 0.88966 0.96394 0.0
O248 O 0.89051 0.85522 0.15644 0.0
C249 C 0.94295 0.91845 0.05239 0.0
O250 O 0.95379 0.90179 1.01793 0.0
N251 N 0.91019 0.82255 0.06646 0.0
C252 C 0.91567 0.76899 1.02493 0.0
C253 C 0.91332 0.77462 0.08824 0.0
C254 C 0.91123 0.80208 0.10835 0.0
C255 C 0.91289 0.81727 1.00491 0.0
C256 C 0.91534 0.7905 0.98309 0.0
H257 H 0.91225 0.80763 0.1572 0.0
H258 H 0.91479 0.8347 0.97241 0.0
H259 H 0.94374 0.90235 0.19672 0.0
H260 H 0.01612 0.87482 0.165 0.0
H261 H 0.81671 0.81683 0.96125 0.0
H262 H 0.91472 0.75872 0.12174 0.0
H263 H 0.91815 0.78718 0.93416 0.0
C264 C 0.85332 0.97453 0.60291 0.0
C265 C 0.8645 -0.0006 0.64267 0.0
N266 N 0.87737 -0.00816 0.69127 0.0
N267 N 0.85927 0.95131 0.6257 0.0
C268 C 0.87412 0.96253 0.67943 0.0
H269 H 0.84266 0.97373 0.5587 0.0
Co270 Co 0.85189 0.91492 0.58093 0.0
C271 C 0.83389 0.8717 0.6868 0.0
O272 O 0.80722 0.85507 0.66393 0.0
N273 N 0.84503 0.87905 0.53191 0.0
C274 C 0.82185 0.83732 0.47271 0.0
C275 C 0.82092 0.85227 0.52756 0.0
C276 C 0.86023 0.87941 0.47906 0.0
N277 N 0.84631 0.85479 0.44161 0.0
O278 O 0.8936 0.92553 0.57654 0.0
H279 H 0.80157 0.84566 0.55705 0.0
H280 H 0.88021 0.89832 0.46618 0.0
O281 O 0.85186 0.8943 0.65744 0.0
C282 C 0.90548 0.9467 0.53885 0.0
O283 O 0.8878 0.95433 0.50253 0.0
N284 N 0.81105 0.90676 0.58375 0.0
C285 C 0.75464 0.90952 0.57881 0.0
C286 C 0.76846 0.91015 0.63574 0.0
C287 C 0.797 0.9093 0.63722 0.0
C288 C 0.79772 0.90574 0.52794 0.0
C289 C 0.76919 0.90669 0.52438 0.0
H290 H 0.80859 0.91283 0.68108 0.0
H291 H 0.81002 0.90599 0.48594 0.0
H292 H 0.88308 0.94974 0.70838 0.0
H293 H 0.86452 0.02178 0.63437 0.0
H294 H 0.80426 0.81674 0.45445 0.0
H295 H 0.75796 0.91296 0.67855 0.0
H296 H 0.7595 0.90721 0.47962 0.0
C297 C 0.38965 0.84377 0.10979 0.0
C298 C 0.37003 0.84933 0.1505 0.0
N299 N 0.3865 0.87053 0.19247 0.0
N300 N 0.41816 0.8616 0.12635 0.0
C301 C 0.41545 0.87768 0.1768 0.0
H302 H 0.38354 0.82937 0.06841 0.0
Co303 Co 0.45258 0.86972 0.07992 0.0
C304 C 0.49552 0.869 0.18153 0.0
O305 O 0.50508 0.85036 0.15008 0.0
N306 N 0.48713 0.87949 1.02982 0.0
C307 C 0.53289 0.89624 0.98796 0.0
C308 C 0.51706 0.89087 0.04233 0.0
C309 C 0.48563 0.88003 0.96753 0.0
N310 N 0.51298 0.88939 0.94115 0.0
O311 O 0.45766 0.91047 0.07992 0.0
H312 H 0.52726 0.89681 0.08746 0.0
H313 H 0.46476 0.87383 0.94181 0.0
O314 O 0.47647 0.8783 0.15708 0.0
C315 C 0.44519 0.92002 0.03864 0.0
O316 O 0.42918 0.90118 0.99474 0.0
N317 N 0.44683 0.82833 0.07906 0.0
C318 C 0.45736 0.77525 0.07722 0.0
C319 C 0.44953 0.78619 0.13259 0.0
C320 C 0.44351 0.81269 0.1322 0.0
C321 C 0.44775 0.81429 1.0238 0.0
C322 C 0.4536 0.78773 1.02176 0.0
H323 H 0.43972 0.82246 0.17557 0.0
H324 H 0.44624 0.82471 0.98121 0.0
H325 H 0.43414 0.89606 0.19871 0.0
H326 H 0.34568 0.84009 0.14727 0.0
H327 H 0.55716 0.90569 0.98317 0.0
H328 H 0.45107 0.77635 0.17624 0.0
H329 H 0.4576 0.77856 0.97775 0.0
C330 C 0.57743 0.48627 0.59958 0.0
C331 C 0.56381 0.46202 0.6369 0.0
N332 N 0.55057 0.47129 0.68394 0.0
N333 N 0.57277 0.51079 0.6226 0.0
C334 C 0.55614 0.50095 0.67372 0.0
H335 H 0.5889 0.48579 0.55677 0.0
Co336 Co 0.58282 0.54729 0.58133 0.0
C337 C 0.60641 0.59107 0.68969 0.0
O338 O 0.63299 0.60403 0.66424 0.0
N339 N 0.59161 0.58301 0.5361 0.0
C340 C 0.60336 0.62891 0.49684 0.0
C341 C 0.6015 0.61321 0.54994 0.0
C342 C 0.58653 0.58112 0.47457 0.0
N343 N 0.59354 0.60864 0.44903 0.0
O344 O 0.54126 0.5396 0.5755 0.0
H345 H 0.60637 0.62381 0.59522 0.0
H346 H 0.57747 0.55958 0.44912 0.0
O347 O 0.58544 0.56943 0.66062 0.0
C348 C 0.52876 0.51819 0.53571 0.0
O349 O 0.54594 0.50874 0.50035 0.0
N350 N 0.62352 0.55229 0.58423 0.0
C351 C 0.67314 0.53577 0.5772 0.0
C352 C 0.6607 0.53847 0.63438 0.0
C353 C 0.63566 0.54637 0.63689 0.0
C354 C 0.6368 0.55195 0.52866 0.0
C355 C 0.66184 0.54391 0.52413 0.0
H356 H 0.62422 0.5445 0.68045 0.0
H357 H 0.62627 0.5547 0.4867 0.0
H358 H 0.54743 0.51495 0.70163 0.0
H359 H 0.56243 0.43897 0.62785 0.0
H360 H 0.61176 0.65346 0.49462 0.0
H361 H 0.66881 0.53219 0.67629 0.0
H362 H 0.67049 0.54144 0.47896 0.0
C363 C -0.00253 0.60735 0.10082 0.0
C364 C 0.02009 0.6092 0.14084 0.0
N365 N 0.00753 0.59334 0.19076 0.0
N366 N -0.02961 0.5905 0.12513 0.0
C367 C -0.02255 0.58231 0.18046 0.0
H368 H 0.0009 0.61603 0.05472 0.0
Co369 Co 0.93405 0.57606 0.07798 0.0
C370 C 0.90256 0.55086 0.17005 0.0
O371 O 0.90162 0.57779 0.1615 0.0
N372 N 0.89889 0.56118 1.02688 0.0
C373 C 0.85967 0.56285 0.97474 0.0
C374 C 0.87616 0.57127 1.02894 0.0
C375 C 0.8953 0.54628 0.97108 0.0
N376 N 0.8719 0.54728 0.93791 0.0
O377 O 0.95385 0.55693 1.02444 0.0
H378 H 0.87351 0.58644 0.06465 0.0
H379 H 0.91089 0.53691 0.95248 0.0
O380 O 0.91759 0.5414 0.13129 0.0
C381 C -0.03307 0.54401 0.98912 0.0
O382 O -0.01594 0.55949 0.94457 0.0
N383 N 0.94716 0.61186 0.03468 0.0
C384 C 0.94592 0.66584 0.9929 0.0
C385 C 0.94909 0.66224 0.05561 0.0
C386 C 0.94879 0.6348 0.07557 0.0
C387 C 0.94689 0.61574 0.97256 0.0
C388 C 0.94569 0.64282 0.9504 0.0
H389 H 0.94742 0.63094 0.12454 0.0
H390 H 0.94478 0.59711 0.94054 0.0
H391 H 0.9613 0.56665 0.21049 0.0
H392 H 0.04405 0.61989 0.1324 0.0
H393 H 0.84184 0.57017 0.96153 0.0
H394 H 0.94871 0.6794 0.08947 0.0
H395 H 0.94272 0.64496 0.90155 0.0
C396 C 0.33407 0.95661 0.45343 0.0
C397 C 0.33152 0.93206 0.41515 0.0
N398 N 0.35169 0.94208 0.36955 0.0
N399 N 0.3558 0.98188 0.43204 0.0
C400 C 0.36622 0.97234 0.38093 0.0
H401 H 0.32202 0.95588 0.49598 0.0
Co402 Co 0.37168 0.01856 0.47615 0.0
C403 C 0.38353 0.06323 0.37396 0.0
O404 O 0.36942 0.07871 0.40238 0.0
N405 N 0.38862 0.05462 0.52527 0.0
C406 C 0.42259 0.09704 0.56849 0.0
C407 C 0.41109 0.0816 0.51353 0.0
C408 C 0.38746 0.05415 0.58768 0.0
N409 N 0.40762 0.07959 0.61494 0.0
O410 O 0.40809 0.0138 0.48156 0.0
H411 H 0.42087 0.08848 0.46885 0.0
H412 H 0.3744 0.03416 0.61304 0.0
O413 O 0.38585 0.04021 0.39927 0.0
C414 C 0.41328 0.00115 0.52819 0.0
O415 O 0.39261 -0.00917 0.57072 0.0
N416 N 0.33454 0.02252 0.47097 0.0
C417 C 0.28053 0.03062 0.46716 0.0
C418 C 0.29365 0.02561 0.41251 0.0
C419 C 0.32036 0.02068 0.41557 0.0
C420 C 0.32039 0.02439 0.52457 0.0
C421 C 0.29354 0.02902 0.52377 0.0
H422 H 0.32998 0.01601 0.37325 0.0
H423 H 0.32971 0.02226 0.5683 0.0
H424 H 0.3855 -0.01322 0.35522 0.0
H425 H 0.31681 0.90849 0.42149 0.0
H426 H 0.44172 0.11848 0.57397 0.0
H427 H 0.28344 0.02568 0.36808 0.0
H428 H 0.28343 0.03203 0.56694 0.0
C429 C 0.46041 0.37124 0.95765 0.0
C430 C 0.48439 0.38405 0.91911 0.0
N431 N 0.47566 0.39733 0.87288 0.0
N432 N 0.43663 0.37655 0.93637 0.0
C433 C 0.44655 0.3926 0.88486 0.0
H434 H 0.46064 0.36004 1.00024 0.0
Co435 Co 0.40121 0.36819 0.98064 0.0
C436 C 0.35632 0.34738 0.87813 0.0
O437 O 0.34101 0.32222 0.90696 0.0
N438 N 0.3669 0.36133 1.0292 0.0
C439 C 0.32427 0.35912 0.07406 0.0
C440 C 0.33868 0.36002 1.01852 0.0
C441 C 0.36933 0.36259 0.09134 0.0
N442 N 0.34376 0.36074 0.11968 0.0
O443 O 0.41136 0.41034 0.9912 0.0
H444 H 0.32952 0.36175 0.97414 0.0
H445 H 0.38992 0.3656 0.11572 0.0
O446 O 0.37951 0.36767 0.90407 0.0
C447 C 0.43169 0.42114 0.03257 0.0
O448 O 0.43886 0.40202 0.06533 0.0
N449 N 0.39351 0.32633 0.97246 0.0
C450 C 0.40995 0.27636 0.96998 0.0
C451 C 0.40611 0.28892 0.91485 0.0
C452 C 0.39808 0.31417 0.91707 0.0
C453 C 0.39387 0.31197 1.02581 0.0
C454 C 0.40173 0.28663 1.0255 0.0
H455 H 0.39965 0.32621 0.87492 0.0
H456 H 0.39182 0.32198 0.06979 0.0
H457 H 0.43299 0.40148 0.8579 0.0
H458 H 0.50695 0.38498 0.92701 0.0
H459 H 0.30191 0.35916 0.08042 0.0
H460 H 0.41255 0.28157 0.87118 0.0
H461 H 0.40429 0.27711 0.0689 0.0
C462 C 0.10363 0.56514 0.45567 0.0
C463 C 0.0954 0.58231 0.4147 0.0
N464 N 0.07493 0.56297 0.37534 0.0
N465 N 0.08827 0.53527 0.44176 0.0
C466 C 0.07095 0.5347 0.39252 0.0
H467 H 0.11819 0.57375 0.49556 0.0
Co468 Co 0.08389 0.50339 0.49282 0.0
C469 C 0.08474 0.45685 0.39238 0.0
O470 O 0.10572 0.45024 0.41991 0.0
N471 N 0.07758 0.47221 0.54918 0.0
C472 C 0.06127 0.42926 0.6009 0.0
C473 C 0.06847 0.44161 0.54344 0.0
C474 C 0.07485 0.47766 0.61032 0.0
N475 N 0.06508 0.45196 0.6431 0.0
O476 O 0.04331 0.4954 0.49884 0.0
H477 H 0.06517 0.42866 0.50051 0.0
H478 H 0.07964 0.50027 0.63007 0.0
O479 O 0.07451 0.47541 0.41879 0.0
C480 C 0.03266 0.50974 0.53579 0.0
O481 O 0.05066 0.53394 0.56709 0.0
N482 N 0.1253 0.51126 0.48713 0.0
C483 C 0.18004 0.50491 0.47766 0.0
C484 C 0.16637 0.51053 0.42514 0.0
C485 C 0.13913 0.51441 0.43113 0.0
C486 C 0.14091 0.5112 0.53946 0.0
C487 C 0.16827 0.50746 0.53575 0.0
H488 H 0.12764 0.51654 0.38984 0.0
H489 H 0.13124 0.51164 0.58423 0.0
H490 H 0.05398 0.5141 0.37273 0.0
H491 H 0.10268 0.60693 0.41549 0.0
H492 H 0.05261 0.40517 0.61048 0.0
H493 H 0.17537 0.50949 0.37962 0.0
H494 H 0.17859 0.50388 0.57753 0.0
C495 C 0.95882 0.10211 0.97316 0.0
C496 C 0.93537 0.08749 0.93263 0.0
N497 N 0.94529 0.07362 0.88726 0.0
N498 N -0.01659 0.09744 0.95362 0.0
C499 C -0.0255 0.0801 0.90136 0.0
H500 H 0.95752 0.11367 1.01618 0.0
Co501 Co 0.01883 0.10541 0.99794 0.0
C502 C 0.06221 0.13159 0.89268 0.0
O503 O 0.07709 0.15807 0.92069 0.0
N504 N 0.05381 0.11205 0.04395 0.0
C505 C 0.099 0.12122 0.0852 0.0
C506 C 0.08347 0.12049 1.03142 0.0
C507 C 0.0519 0.10643 0.10464 0.0
N508 N 0.0789 0.11254 0.13112 0.0
O509 O 0.01154 0.06351 0.9935 0.0
H510 H 0.09352 0.12498 0.9865 0.0
H511 H 0.03088 0.09834 0.12951 0.0
O512 O 0.0406 0.11118 0.92011 0.0
C513 C -0.00822 0.0497 0.0331 0.0
O514 O -0.01954 0.06564 0.06838 0.0
N515 N 0.02387 0.14637 1.00823 0.0
C516 C 0.01813 0.20111 0.03947 0.0
C517 C 0.02068 0.19322 0.9775 0.0
C518 C 0.02296 0.16525 0.96262 0.0
C519 C 0.02106 0.15398 0.06847 0.0
C520 C 0.01865 0.18141 0.08519 0.0
H521 H 0.02201 0.15798 0.91472 0.0
H522 H 0.01818 0.13776 0.10386 0.0
H523 H -0.01124 0.07103 0.87595 0.0
H524 H 0.91236 0.08554 0.93888 0.0
H525 H 0.123 0.12697 0.08984 0.0
H526 H 0.01909 0.20765 0.94102 0.0
H527 H 0.01545 0.18639 0.13319 0.0
C528 C 0.95073 0.98462 0.49188 0.0
C529 C 0.93789 0.96525 0.54076 0.0
C530 C -0.01914 0.00443 0.49381 0.0
C531 C -0.00071 0.00556 0.54473 0.0
H532 H 0.93742 0.98451 0.45157 0.0
H533 H -0.01016 0.01853 0.45444 0.0
S534 S -0.02395 0.96101 0.68666 0.0
N535 N 0.94542 0.94928 0.64296 0.0
N536 N 0.00244 -0.01334 0.64642 0.0
C537 C -0.01327 -0.01343 0.59435 0.0
C538 C 0.95593 0.96631 0.59239 0.0
C539 C 0.46453 -0.00107 0.9798 0.0
C540 C 0.46972 0.01681 0.03476 0.0
C541 C 0.4554 0.96725 0.98122 0.0
C542 C 0.45127 0.9526 0.03764 0.0
H543 H 0.468 0.00953 0.93534 0.0
H544 H 0.45252 0.95431 0.93804 0.0
S545 S 0.45822 -0.01158 0.19401 0.0
N546 N 0.46767 0.01722 0.14682 0.0
N547 N 0.45043 0.95751 0.1494 0.0
C548 C 0.45538 0.96999 0.0928 0.0
C549 C 0.46472 0.00221 0.09139 0.0
C550 C 0.47642 0.51455 0.5563 0.0
C551 C 0.49602 0.50056 0.53654 0.0
C552 C 0.44528 0.49801 0.55757 0.0
C553 C 0.43273 0.46687 0.53942 0.0
H554 H 0.48514 0.53855 0.56994 0.0
H555 H 0.43093 0.50995 0.57161 0.0
S556 S 0.47475 0.41874 0.49142 0.0
N557 N 0.50101 0.45313 0.50354 0.0
N558 N 0.44237 0.42216 0.50567 0.0
C559 C 0.45214 0.45239 0.52131 0.0
C560 C 0.48384 0.46921 0.51998 0.0
C561 C -0.00845 0.50623 0.99387 0.0
C562 C 0.96595 0.51342 1.00324 0.0
C563 C -0.00778 0.47861 1.01379 0.0
C564 C -0.03279 0.45729 0.04299 0.0
H565 H 0.0117 0.52263 0.97376 0.0
H566 H 0.01296 0.47475 1.00945 0.0
S567 S 0.8933 0.46323 0.06978 0.0
N568 N 0.914 0.49554 0.0375 0.0
N569 N 0.91526 0.44376 0.07489 0.0
C570 C 0.941 0.46351 0.04958 0.0
C571 C 0.94035 0.49156 1.02958 0.0
C572 C 0.48405 -0.01008 0.48291 0.0
C573 C 0.49724 -0.01029 0.54029 0.0
C574 C 0.45681 -0.00605 0.47949 0.0
C575 C 0.44218 -0.00208 0.53339 0.0
H576 H 0.49425 -0.01414 0.44066 0.0
H577 H 0.44677 -0.00684 0.43448 0.0
S578 S 0.47058 0.00443 0.69385 0.0
N579 N 0.49589 -0.0028 0.65147 0.0
N580 N 0.44452 0.00507 0.64501 0.0
C581 C 0.45594 -0.00075 0.59085 0.0
C582 C 0.48363 -0.00492 0.5943 0.0
C583 C 0.45927 0.50558 1.00493 0.0
C584 C 0.48758 0.51724 0.03468 0.0
C585 C 0.44109 0.47455 1.00558 0.0
C586 C 0.45051 0.454 0.036 0.0
H587 H 0.45073 0.52054 0.98158 0.0
H588 H 0.41947 0.46667 0.98205 0.0
S589 S 0.52347 0.47273 0.11831 0.0
N590 N 0.52468 0.50577 0.09375 0.0
N591 N 0.49056 0.44727 0.09499 0.0
C592 C 0.47893 0.46528 0.06557 0.0
C593 C 0.49747 0.49694 0.06482 0.0
C594 C 0.95375 0.5065 0.55256 0.0
C595 C 0.93664 0.47485 0.54897 0.0
C596 C -0.01486 0.51784 0.55052 0.0
C597 C 0.00018 0.49781 0.5447 0.0
H598 H 0.9428 0.52269 0.55542 0.0
H599 H -0.00241 0.54232 0.55131 0.0
S600 S 0.9661 0.41317 0.54303 0.0
N601 N 0.93707 0.42375 0.54561 0.0
N602 N -0.00364 0.44509 0.54196 0.0
C603 C -0.01652 0.46614 0.54378 0.0
C604 C 0.95155 0.45461 0.54571 0.0
C605 C 0.93992 0.96937 0.06963 0.0
C606 C 0.95619 0.9519 0.04885 0.0
C607 C 0.95176 0.00107 0.06434 0.0
C608 C -0.01975 0.01636 0.03811 0.0
H609 H 0.9177 0.95848 0.08921 0.0
H610 H 0.93825 0.01362 0.0802 0.0
S611 S 0.03306 0.98134 0.98213 0.0
N612 N 0.00315 0.95235 1.00482 0.0
N613 N 0.02519 0.012 0.99459 0.0
C614 C -0.00298 -0.00074 1.0183 0.0
C615 C -0.01496 0.967 1.02384 0.0
C616 C 0.06701 0.08556 0.29314 0.0
C617 C 0.09109 0.10789 0.32571 0.0
C618 C 0.06363 0.08696 0.22951 0.0
C619 C 0.08416 0.11068 0.19573 0.0
H620 H 0.0507 0.06655 0.31669 0.0
H621 H 0.04486 0.06919 0.20638 0.0
S622 S 0.15022 0.17571 0.25842 0.0
N623 N 0.13543 0.15511 0.319 0.0
N624 N 0.12869 0.15763 0.19911 0.0
C625 C 0.10817 0.13333 0.22735 0.0
C626 C 0.11165 0.13203 0.29241 0.0
C627 C 0.39884 0.08688 0.78655 0.0
C628 C 0.42817 0.09339 0.80914 0.0
C629 C 0.39217 0.08193 0.72308 0.0
C630 C 0.41477 0.08425 0.67985 0.0
H631 H 0.38088 0.08549 0.8182 0.0
H632 H 0.36932 0.07683 0.70742 0.0
S633 S 0.49495 0.10017 0.71452 0.0
N634 N 0.47985 0.10136 0.78259 0.0
N635 N 0.46726 0.09238 0.66376 0.0
C636 C 0.44406 0.09048 0.70166 0.0
C637 C 0.45077 0.09497 0.7662 0.0
C638 C 0.35876 0.38728 0.28583 0.0
C639 C 0.33186 0.36925 0.31509 0.0
C640 C 0.36257 0.38421 0.22218 0.0
C641 C 0.33961 0.3631 0.18514 0.0
H642 H 0.37693 0.40424 0.31199 0.0
H643 H 0.3834 0.39897 0.20149 0.0
S644 S 0.26618 0.30818 0.23872 0.0
N645 N 0.28267 0.32775 0.30173 0.0
N646 N 0.29013 0.32238 0.18224 0.0
C647 C 0.31306 0.34428 0.21367 0.0
C648 C 0.30917 0.34716 0.27858 0.0
C649 C 0.06625 0.42571 0.73845 0.0
C650 C 0.05995 0.44852 0.70899 0.0
C651 C 0.0594 0.41954 0.80047 0.0
C652 C 0.04526 0.43542 0.83683 0.0
H653 H 0.07637 0.41212 0.71296 0.0
H654 H 0.06452 0.40115 0.81926 0.0
S655 S 0.02776 0.50064 0.7847 0.0
N656 N 0.04158 0.48964 0.7227 0.0
N657 N 0.02809 0.47746 0.83985 0.0
C658 C 0.04023 0.45956 0.80918 0.0
C659 C 0.04768 0.46622 0.7453 0.0
C660 C 0.51851 0.9161 0.77848 0.0
C661 C 0.53594 0.90143 0.74944 0.0
C662 C 0.51033 0.91147 0.84078 0.0
C663 C 0.51974 0.89248 0.87651 0.0
H664 H 0.51134 0.93151 0.75312 0.0
H665 H 0.49729 0.92343 0.86172 0.0
S666 S 0.5639 0.8474 0.82339 0.0
N667 N 0.56089 0.86574 0.76183 0.0
N668 N 0.54592 0.85789 0.87891 0.0
C669 C 0.53654 0.87728 0.84826 0.0
C670 C 0.5445 0.88149 0.78472 0.0
C671 C 0.58501 0.59616 0.27599 0.0
C672 C 0.58373 0.62353 0.25629 0.0
C673 C 0.58894 0.59187 0.33857 0.0
C674 C 0.59073 0.61438 0.38437 0.0
H675 H 0.58315 0.57801 0.24271 0.0
H676 H 0.59056 0.57062 0.35076 0.0
S677 S 0.58555 0.68926 0.35523 0.0
N678 N 0.58363 0.67316 0.28607 0.0
N679 N 0.58888 0.66463 0.40389 0.0
C680 C 0.58889 0.64177 0.36467 0.0
C681 C 0.58585 0.6464 0.30065 0.0
C682 C 0.88839 0.54041 0.83111 0.0
C683 C 0.86524 0.5389 0.87295 0.0
C684 C 0.88246 0.53354 0.76758 0.0
C685 C 0.85327 0.52549 0.743 0.0
H686 H 0.91143 0.54748 0.84722 0.0
H687 H 0.90095 0.53504 0.73734 0.0
S688 S 0.78413 0.51447 0.83285 0.0
N689 N 0.81145 0.5257 0.88503 0.0
N690 N 0.80059 0.51396 0.76611 0.0
C691 C 0.82987 0.52329 0.78429 0.0
C692 C 0.83578 0.52974 0.84897 0.0
C693 C 0.85148 0.81572 0.29095 0.0
C694 C 0.86371 0.84013 0.25074 0.0
C695 C 0.8462 0.82079 0.35313 0.0
C696 C 0.85279 0.85042 0.37773 0.0
H697 H 0.8464 0.79246 0.27467 0.0
H698 H 0.83714 0.80133 0.38246 0.0
S699 S 0.88217 0.92203 0.29032 0.0
N700 N 0.88071 0.895 0.23919 0.0
N701 N 0.86996 0.90446 0.3554 0.0
C702 C 0.86432 0.87505 0.33765 0.0
C703 C 0.86995 0.8699 0.27438 0.0
C704 C 0.8223 0.85384 0.85604 0.0
C705 C 0.8518 0.86198 0.87899 0.0
C706 C 0.81679 0.85657 0.79368 0.0
C707 C 0.84058 0.86801 0.75173 0.0
H708 H 0.80322 0.8453 0.88661 0.0
H709 H 0.79364 0.85012 0.77852 0.0
S710 S 0.92198 0.89162 0.78649 0.0
N711 N 0.90521 0.88071 0.85312 0.0
N712 N 0.89469 0.88728 0.7366 0.0
C713 C 0.87021 0.87655 0.7737 0.0
C714 C 0.87588 0.87322 0.83712 0.0
C715 C 0.50693 0.90815 0.34077 0.0
C716 C 0.51577 0.88884 0.37694 0.0
C717 C 0.50073 0.9018 0.27742 0.0
C718 C 0.50389 0.87634 0.24772 0.0
H719 H 0.50409 0.92784 0.36202 0.0
H720 H 0.49334 0.91692 0.2516 0.0
S721 S 0.52823 0.81987 0.32224 0.0
N722 N 0.52839 0.84403 0.37881 0.0
N723 N 0.51742 0.83223 0.25991 0.0
C724 C 0.51356 0.85738 0.28343 0.0
C725 C 0.51929 0.86358 0.34799 0.0
C726 C 0.57312 0.58502 0.85012 0.0
C727 C 0.59514 0.60902 0.88354 0.0
C728 C 0.57648 0.58001 0.78707 0.0
C729 C 0.60203 0.59882 0.75492 0.0
H730 H 0.55344 0.56955 0.87326 0.0
H731 H 0.55915 0.56083 0.76388 0.0
S732 S 0.66425 0.66722 0.82046 0.0
N733 N 0.64192 0.65332 0.87952 0.0
N734 N 0.6485 0.6442 0.76083 0.0
C735 C 0.62368 0.62368 0.78755 0.0
C736 C 0.62022 0.62865 0.85191 0.0
C737 C 0.90584 0.52313 0.26637 0.0
C738 C 0.89005 0.53603 0.22917 0.0
C739 C 0.89865 0.51775 0.32943 0.0
C740 C 0.87561 0.52524 0.35715 0.0
H741 H 0.92499 0.51903 0.24795 0.0
H742 H 0.91219 0.50924 0.35744 0.0
S743 S 0.82398 0.55373 0.27722 0.0
N744 N 0.84753 0.55178 0.22314 0.0
N745 N 0.83453 0.54196 0.34056 0.0
C746 C 0.85832 0.53579 0.31924 0.0
C747 C 0.86535 0.54099 0.25555 0.0
C748 C 0.38284 0.0819 0.20512 0.0
C749 C 0.40925 0.07931 0.18215 0.0
C750 C 0.37518 0.07763 0.26767 0.0
C751 C 0.39328 0.06989 0.30937 0.0
H752 H 0.36805 0.0874 0.1744 0.0
H753 H 0.35448 0.07958 0.28312 0.0
S754 S 0.46502 0.06094 0.27381 0.0
N755 N 0.4539 0.06921 0.20717 0.0
N756 N 0.43898 0.06046 0.32414 0.0
C757 C 0.41975 0.06731 0.28733 0.0
C758 C 0.42791 0.07226 0.22392 0.0
C759 C 0.36021 0.37938 0.78635 0.0
C760 C 0.34933 0.35047 0.81273 0.0
C761 C 0.35499 0.38279 0.72399 0.0
C762 C 0.33892 0.35738 0.68527 0.0
H763 H 0.37269 0.39963 0.8142 0.0
H764 H 0.36314 0.40561 0.70638 0.0
S765 S 0.30784 0.27645 0.73014 0.0
N766 N 0.32286 0.29574 0.79437 0.0
N767 N 0.31365 0.30224 0.677 0.0
C768 C 0.32837 0.32831 0.71075 0.0
C769 C 0.33343 0.32483 0.77442 0.0
C770 C 0.09372 0.4361 0.22407 0.0
C771 C 0.06605 0.43255 0.19623 0.0
C772 C 0.09921 0.4433 0.28743 0.0
C773 C 0.07739 0.44758 0.32608 0.0
H774 H 0.11145 0.43345 0.19649 0.0
H775 H 0.12106 0.44611 0.306 0.0
S776 S 0.00034 0.43879 0.27854 0.0
N777 N 0.01569 0.43199 0.21444 0.0
N778 N 0.0266 0.44666 0.33252 0.0
C779 C 0.04958 0.44403 0.29928 0.0
C780 C 0.04377 0.43626 0.23478 0.0
C781 C 0.09055 0.14729 0.72825 0.0
C782 C 0.07816 0.11839 0.69857 0.0
C783 C 0.08608 0.15118 0.79141 0.0
C784 C 0.06876 0.12633 0.82723 0.0
H785 H 0.10381 0.16702 0.7023 0.0
H786 H 0.09577 0.17401 0.81189 0.0
S787 S 0.03129 0.04573 0.77097 0.0
N788 N 0.04746 0.06451 0.70928 0.0
N789 N 0.03992 0.07149 0.82808 0.0
C790 C 0.05664 0.09716 0.79809 0.0
C791 C 0.0611 0.09326 0.73378 0.0
C792 C 0.03412 0.93019 0.24097 0.0
C793 C 0.00253 0.91643 0.2466 0.0
C794 C 0.05184 0.9521 0.28447 0.0
C795 C 0.03869 0.96157 0.33466 0.0
H796 H 0.04533 0.92428 0.20228 0.0
H797 H 0.07605 0.96195 0.27872 0.0
S798 S 0.95767 0.93172 0.37398 0.0
N799 N 0.95921 0.91293 0.30949 0.0
N800 N -0.0073 0.95507 0.38961 0.0
C801 C 0.00731 0.94825 0.34122 0.0
C802 C -0.01082 0.92548 0.29757 0.0
C803 C 0.54805 0.03294 0.7757 0.0
C804 C 0.57613 0.04574 0.74627 0.0
C805 C 0.53865 0.04959 0.81939 0.0
C806 C 0.55658 0.08011 0.83552 0.0
H807 H 0.53256 0.01 0.76436 0.0
H808 H 0.51697 0.03818 0.84057 0.0
S809 S 0.63305 0.12421 0.77593 0.0
N810 N 0.62303 0.09038 0.74086 0.0
N811 N 0.60432 0.12239 0.81988 0.0
C812 C 0.58503 0.0932 0.80774 0.0
C813 C 0.59498 0.07592 0.76388 0.0
C814 C 0.39835 0.53941 0.3105 0.0
C815 C 0.40314 0.51413 0.33324 0.0
C816 C 0.41703 0.55772 0.26565 0.0
C817 C 0.44124 0.5515 0.24081 0.0
H818 H 0.37982 0.54511 0.32719 0.0
H819 H 0.41251 0.57713 0.2506 0.0
S820 S 0.46342 0.48756 0.28309 0.0
N821 N 0.43449 0.48407 0.32787 0.0
N822 N 0.46841 0.51738 0.24066 0.0
C823 C 0.44621 0.52605 0.26237 0.0
C824 C 0.42739 0.50758 0.30903 0.0
C825 C 0.86472 0.37748 0.76661 0.0
C826 C 0.87753 0.40272 0.7292 0.0
C827 C 0.88226 0.36992 0.80958 0.0
C828 C 0.91338 0.38749 0.81773 0.0
H829 H 0.84076 0.36399 0.76388 0.0
H830 H 0.87098 0.35036 0.83753 0.0
S831 S 0.95862 0.45215 0.72048 0.0
N832 N 0.92381 0.44211 0.69477 0.0
N833 N 0.95672 0.4292 0.7774 0.0
C834 C 0.92682 0.41163 0.77719 0.0
C835 C 0.90889 0.419 0.73275 0.0
C836 C 0.9354 0.02875 0.81621 0.0
C837 C 0.92779 0.05317 0.83832 0.0
C838 C 0.91863 0.00857 0.76899 0.0
C839 C 0.89349 0.01187 0.74197 0.0
H840 H 0.95432 0.02495 0.83579 0.0
H841 H 0.92578 -0.00941 0.75286 0.0
S842 S 0.8636 0.07147 0.78388 0.0
N843 N 0.89352 0.07956 0.82864 0.0
N844 N 0.86104 0.04069 0.74288 0.0
C845 C 0.88533 0.03584 0.76434 0.0
C846 C 0.90266 0.05665 0.81176 0.0
C847 C 0.37079 0.87882 0.297 0.0
C848 C 0.37584 0.8875 0.23548 0.0
C849 C 0.36233 0.89651 0.34055 0.0
C850 C 0.35918 0.92361 0.32384 0.0
H851 H 0.37383 0.85851 0.31144 0.0
H852 H 0.35901 0.88942 0.3879 0.0
S853 S 0.36921 0.95535 0.16766 0.0
N854 N 0.37647 0.92406 0.15926 0.0
N855 N 0.36098 0.95768 0.24123 0.0
C856 C 0.36402 0.93231 0.26221 0.0
C857 C 0.37226 0.91412 0.21791 0.0
C858 C 0.50746 0.45844 0.75564 0.0
C859 C 0.5322 0.4527 0.73185 0.0
C860 C 0.48895 0.44014 0.80109 0.0
C861 C 0.49434 0.41529 0.82455 0.0
H862 H 0.50211 0.47699 0.73853 0.0
H863 H 0.47053 0.44582 0.81852 0.0
S864 S 0.55618 0.3905 0.77757 0.0
N865 N 0.56156 0.42086 0.73663 0.0
N866 N 0.5258 0.38544 0.81882 0.0
C867 C 0.51885 0.40916 0.80071 0.0
C868 C 0.53795 0.42806 0.75518 0.0
C869 C 0.04758 0.57615 0.22207 0.0
C870 C 0.02353 0.58497 0.2381 0.0
C871 C 0.06422 0.5688 0.26729 0.0
C872 C 0.05766 0.57055 0.32988 0.0
H873 H 0.05339 0.57471 0.17412 0.0
H874 H 0.08247 0.56194 0.25351 0.0
S875 S -0.00312 0.59166 0.39621 0.0
N876 N -0.00633 0.5943 0.32095 0.0
N877 N 0.02547 0.58092 0.40622 0.0
C878 C 0.03365 0.57904 0.34673 0.0
C879 C 0.01638 0.5861 0.30066 0.0
C880 C 0.23173 0.07497 0.43715 0.0
C881 C 0.20609 0.05941 0.47206 0.0
C882 C 0.25551 0.06485 0.4341 0.0
C883 C 0.25408 0.03886 0.4656 0.0
H884 H 0.23354 0.09527 0.41301 0.0
H885 H 0.27546 0.07785 0.40839 0.0
S886 S 0.18994 -0.01208 0.55575 0.0
N887 N 0.17922 0.01524 0.53345 0.0
N888 N 0.22413 -0.0037 0.52783 0.0
C889 C 0.22805 0.02246 0.4985 0.0
C890 C 0.20394 0.03273 0.50167 0.0
C891 C 0.43585 0.21213 0.93157 0.0
C892 C 0.46225 0.22013 0.96756 0.0
C893 C 0.41878 0.2303 0.93278 0.0
C894 C 0.42748 0.25685 0.97041 0.0
H895 H 0.4278 0.19114 0.90379 0.0
H896 H 0.39842 0.22332 0.90496 0.0
S897 S 0.49641 0.28942 0.06795 0.0
N898 N 0.49741 0.25733 0.03825 0.0
N899 N 0.46539 0.29178 0.04036 0.0
C900 C 0.45432 0.26562 1.0051 0.0
C901 C 0.4717 0.24715 1.00377 0.0
C902 C 0.21445 0.44746 0.43613 0.0
C903 C 0.24068 0.4575 0.47271 0.0
C904 C 0.19571 0.46394 0.43572 0.0
C905 C 0.20269 0.49103 0.47167 0.0
H906 H 0.20799 0.42633 0.40901 0.0
H907 H 0.17499 0.45477 0.40898 0.0
S908 S 0.27085 0.52903 0.56867 0.0
N909 N 0.27434 0.49776 0.54077 0.0
N910 N 0.2387 0.52845 0.5406 0.0
C911 C 0.22945 0.50195 0.5064 0.0
C912 C 0.24858 0.48526 0.50671 0.0
C913 C 0.02549 0.28249 0.06905 0.0
C914 C -0.00472 0.2791 0.07693 0.0
C915 C 0.03306 0.25701 0.05854 0.0
C916 C 0.01059 0.22755 0.0562 0.0
H917 H 0.04303 0.30507 0.06612 0.0
H918 H 0.05633 0.26038 0.04979 0.0
S919 S 0.92877 0.20645 0.07945 0.0
N920 N 0.94321 0.24414 0.08527 0.0
N921 N 0.95752 0.19601 0.06735 0.0
C922 C -0.01936 0.22374 0.06808 0.0
C923 C -0.02707 0.24965 0.07811 0.0
C924 C 0.70024 0.94818 0.60774 0.0
C925 C 0.67448 0.92918 0.57483 0.0
C926 C 0.72612 0.94158 0.60847 0.0
C927 C 0.72701 0.91573 0.57643 0.0
H928 H 0.70039 0.96832 0.63298 0.0
H929 H 0.74566 0.95689 0.63404 0.0
S930 S 0.66536 0.85868 0.48392 0.0
N931 N 0.65117 0.88349 0.50967 0.0
N932 N 0.70023 0.87109 0.511 0.0
C933 C 0.70158 0.89675 0.54268 0.0
C934 C 0.67516 0.90348 0.54191 0.0
C935 C 0.47978 0.70988 0.11826 0.0
C936 C 0.50819 0.71787 0.09039 0.0
C937 C 0.46297 0.72811 0.11265 0.0
C938 C 0.47394 0.75477 0.07855 0.0
H939 H 0.47023 0.68905 0.14366 0.0
H940 H 0.44125 0.72131 0.13491 0.0
S941 S 0.54783 0.78662 0.99999 0.0
N942 N 0.54704 0.75464 1.02959 0.0
N943 N 0.51554 0.78918 1.01912 0.0
C944 C 0.50243 0.76315 0.05089 0.0
C945 C 0.51954 0.74462 0.05675 0.0
C946 C 0.7071 0.47642 0.59633 0.0
C947 C 0.73421 0.4885 0.56379 0.0
C948 C 0.68754 0.49196 0.60028 0.0
C949 C 0.69454 0.52025 0.57229 0.0
H950 H 0.70107 0.45489 0.6191 0.0
H951 H 0.66667 0.48169 0.62527 0.0
S952 S 0.76352 0.56237 0.48451 0.0
N953 N 0.76761 0.53087 0.5047 0.0
N954 N 0.73064 0.56001 0.51221 0.0
C955 C 0.7215 0.53254 0.53946 0.0
C956 C 0.74141 0.5167 0.53527 0.0
C957 C 0.95934 0.7208 0.97671 0.0
C958 C 0.93711 0.69114 0.97688 0.0
C959 C 0.95184 0.74622 0.98899 0.0
C960 C 0.92206 0.74251 1.00292 0.0
H961 H -0.01713 0.72417 0.97231 0.0
H962 H -0.03032 0.76872 0.99159 0.0
S963 S 0.85545 0.66996 1.00347 0.0
N964 N 0.88391 0.6597 0.98655 0.0
N965 N 0.86997 0.7076 1.01091 0.0
C966 C 0.8994 0.71326 0.99906 0.0
C967 C 0.90691 0.68749 0.98542 0.0
loop_
_geom_bond_atom_site_label_1
_geom_bond_atom_site_label_2
_geom_bond_distance
_geom_bond_site_symmetry_2
_ccdc_geom_bond_type
C0 C1 1.351 . S
C0 N3 1.368 1_565 S
C0 H5 0.931 . S
C1 C0 1.351 . S
C1 N2 1.373 . S
C1 H29 0.930 . S
N2 C1 1.373 . S
N2 C4 1.340 1_565 S
N3 C0 1.368 1_545 S
N3 C4 1.321 . S
N3 Co6 2.135 . S
C4 N2 1.340 1_545 S
C4 N3 1.321 . S
C4 H28 0.930 . S
H5 C0 0.931 . S
Co6 N3 2.135 . S
Co6 N9 2.121 . S
Co6 O14 2.055 . S
Co6 O17 2.039 . S
Co6 N20 2.140 . S
C7 O8 1.227 . S
C7 O17 1.265 . S
O8 C7 1.227 . S
N9 Co6 2.121 . S
N9 C11 1.375 . S
N9 C12 1.313 . S
C10 C11 1.338 . S
C10 N13 1.377 . S
C10 H30 0.930 . S
C11 N9 1.375 . S
C11 C10 1.338 . S
C11 H15 0.931 . S
C12 N9 1.313 . S
C12 N13 1.344 . S
C12 H16 0.930 . S
N13 C10 1.377 . S
N13 C12 1.344 . S
O14 Co6 2.055 . S
O14 C18 1.253 . S
H15 C11 0.931 . S
H16 C12 0.930 . S
O17 Co6 2.039 . S
O17 C7 1.265 . S
C18 O14 1.253 . S
C18 O19 1.227 . S
O19 C18 1.227 . S
N20 Co6 2.140 . S
N20 C23 1.346 . S
N20 C24 1.345 . S
C21 C22 1.387 . S
C21 C25 1.391 . S
C22 C21 1.387 . S
C22 C23 1.369 . S
C22 H31 0.929 . S
C23 N20 1.346 . S
C23 C22 1.369 . S
C23 H26 0.928 . S
C24 N20 1.345 . S
C24 C25 1.371 . S
C24 H27 0.931 . S
C25 C21 1.391 . S
C25 C24 1.371 . S
C25 H32 0.930 . S
H26 C23 0.928 . S
H27 C24 0.931 . S
H28 C4 0.930 . S
H29 C1 0.930 . S
H30 C10 0.930 . S
H31 C22 0.929 . S
H32 C25 0.930 . S
C33 C34 1.351 . S
C33 N36 1.368 . S
C33 H38 0.931 . S
C34 C33 1.351 . S
C34 N35 1.373 . S
C34 H62 0.930 . S
N35 C34 1.373 . S
N35 C37 1.340 . S
N36 C33 1.368 . S
N36 C37 1.321 . S
N36 Co39 2.135 . S
C37 N35 1.340 . S
C37 N36 1.321 . S
C37 H61 0.930 . S
H38 C33 0.931 . S
Co39 N36 2.135 . S
Co39 N42 2.121 1_556 S
Co39 O47 2.055 . S
Co39 O50 2.039 . S
Co39 N53 2.140 . S
C40 O41 1.227 . S
C40 O50 1.265 . S
O41 C40 1.227 . S
N42 Co39 2.121 1_554 S
N42 C44 1.375 1_554 S
N42 C45 1.313 . S
C43 C44 1.338 1_554 S
C43 N46 1.377 . S
C43 H63 0.930 . S
C44 N42 1.375 1_556 S
C44 C43 1.338 1_556 S
C44 H48 0.931 . S
C45 N42 1.313 . S
C45 N46 1.344 . S
C45 H49 0.930 . S
N46 C43 1.377 . S
N46 C45 1.344 . S
O47 Co39 2.055 . S
O47 C51 1.253 1_556 S
H48 C44 0.931 . S
H49 C45 0.930 . S
O50 Co39 2.039 . S
O50 C40 1.265 . S
C51 O47 1.253 1_554 S
C51 O52 1.227 . S
O52 C51 1.227 . S
N53 Co39 2.140 . S
N53 C56 1.346 . S
N53 C57 1.345 1_556 S
C54 C55 1.387 . S
C54 C58 1.391 1_556 S
C55 C54 1.387 . S
C55 C56 1.369 . S
C55 H64 0.929 . S
C56 N53 1.346 . S
C56 C55 1.369 . S
C56 H59 0.928 . S
C57 N53 1.345 1_554 S
C57 C58 1.371 . S
C57 H60 0.931 . S
C58 C54 1.391 1_554 S
C58 C57 1.371 . S
C58 H65 0.930 . S
H59 C56 0.928 . S
H60 C57 0.931 . S
H61 C37 0.930 . S
H62 C34 0.930 . S
H63 C43 0.930 . S
H64 C55 0.929 . S
H65 C58 0.930 . S
C66 C67 1.351 . S
C66 N69 1.368 . S
C66 H71 0.931 . S
C67 C66 1.351 . S
C67 N68 1.373 . S
C67 H95 0.930 . S
N68 C67 1.373 . S
N68 C70 1.340 . S
N69 C66 1.368 . S
N69 C70 1.321 . S
N69 Co72 2.135 . S
C70 N68 1.340 . S
C70 N69 1.321 . S
C70 H94 0.930 . S
H71 C66 0.931 . S
Co72 N69 2.135 . S
Co72 N75 2.121 . S
Co72 O80 2.055 . S
Co72 O83 2.039 . S
Co72 N86 2.140 . S
C73 O74 1.227 . S
C73 O83 1.265 . S
O74 C73 1.227 . S
N75 Co72 2.121 . S
N75 C77 1.375 . S
N75 C78 1.313 . S
C76 C77 1.338 . S
C76 N79 1.377 . S
C76 H96 0.930 . S
C77 N75 1.375 . S
C77 C76 1.338 . S
C77 H81 0.931 . S
C78 N75 1.313 . S
C78 N79 1.344 . S
C78 H82 0.930 . S
N79 C76 1.377 . S
N79 C78 1.344 . S
O80 Co72 2.055 . S
O80 C84 1.253 . S
H81 C77 0.931 . S
H82 C78 0.930 . S
O83 Co72 2.039 . S
O83 C73 1.265 . S
C84 O80 1.253 . S
C84 O85 1.227 . S
O85 C84 1.227 . S
N86 Co72 2.140 . S
N86 C89 1.346 . S
N86 C90 1.345 . S
C87 C88 1.387 . S
C87 C91 1.391 . S
C88 C87 1.387 . S
C88 C89 1.369 . S
C88 H97 0.929 . S
C89 N86 1.346 . S
C89 C88 1.369 . S
C89 H92 0.928 . S
C90 N86 1.345 . S
C90 C91 1.371 . S
C90 H93 0.931 . S
C91 C87 1.391 . S
C91 C90 1.371 . S
C91 H98 0.930 . S
H92 C89 0.928 . S
H93 C90 0.931 . S
H94 C70 0.930 . S
H95 C67 0.930 . S
H96 C76 0.930 . S
H97 C88 0.929 . S
H98 C91 0.930 . S
C99 C100 1.351 . S
C99 N102 1.368 . S
C99 H104 0.931 . S
C100 C99 1.351 . S
C100 N101 1.373 . S
C100 H128 0.930 . S
N101 C100 1.373 . S
N101 C103 1.340 . S
N102 C99 1.368 . S
N102 C103 1.321 . S
N102 Co105 2.135 1_655 S
C103 N101 1.340 . S
C103 N102 1.321 . S
C103 H127 0.930 . S
H104 C99 0.931 . S
Co105 N102 2.135 1_455 S
Co105 N108 2.121 1_556 S
Co105 O113 2.055 1_455 S
Co105 O116 2.039 . S
Co105 N119 2.140 1_455 S
C106 O107 1.227 . S
C106 O116 1.265 . S
O107 C106 1.227 . S
N108 Co105 2.121 1_554 S
N108 C110 1.375 1_554 S
N108 C111 1.313 . S
C109 C110 1.338 1_554 S
C109 N112 1.377 . S
C109 H129 0.930 . S
C110 N108 1.375 1_556 S
C110 C109 1.338 1_556 S
C110 H114 0.931 . S
C111 N108 1.313 . S
C111 N112 1.344 . S
C111 H115 0.930 . S
N112 C109 1.377 . S
N112 C111 1.344 . S
O113 Co105 2.055 1_655 S
O113 C117 1.253 1_556 S
H114 C110 0.931 . S
H115 C111 0.930 . S
O116 Co105 2.039 . S
O116 C106 1.265 . S
C117 O113 1.253 1_554 S
C117 O118 1.227 . S
O118 C117 1.227 . S
N119 Co105 2.140 1_655 S
N119 C122 1.346 . S
N119 C123 1.345 1_556 S
C120 C121 1.387 . S
C120 C124 1.391 1_556 S
C121 C120 1.387 . S
C121 C122 1.369 . S
C121 H130 0.929 . S
C122 N119 1.346 . S
C122 C121 1.369 . S
C122 H125 0.928 . S
C123 N119 1.345 1_554 S
C123 C124 1.371 . S
C123 H126 0.931 1_655 S
C124 C120 1.391 1_554 S
C124 C123 1.371 . S
C124 H131 0.930 . S
H125 C122 0.928 . S
H126 C123 0.931 1_455 S
H127 C103 0.930 . S
H128 C100 0.930 . S
H129 C109 0.930 . S
H130 C121 0.929 . S
H131 C124 0.930 . S
C132 C133 1.351 . S
C132 N135 1.368 . S
C132 H137 0.931 . S
C133 C132 1.351 . S
C133 N134 1.373 . S
C133 H161 0.930 . S
N134 C133 1.373 . S
N134 C136 1.340 . S
N135 C132 1.368 . S
N135 C136 1.321 . S
N135 Co138 2.135 1_545 S
C136 N134 1.340 . S
C136 N135 1.321 . S
C136 H160 0.930 . S
H137 C132 0.931 . S
Co138 N135 2.135 1_565 S
Co138 N141 2.121 . S
Co138 O146 2.055 1_565 S
Co138 O149 2.039 . S
Co138 N152 2.140 1_565 S
C139 O140 1.227 . S
C139 O149 1.265 . S
O140 C139 1.227 . S
N141 Co138 2.121 . S
N141 C143 1.375 . S
N141 C144 1.313 . S
C142 C143 1.338 . S
C142 N145 1.377 . S
C142 H162 0.930 . S
C143 N141 1.375 . S
C143 C142 1.338 . S
C143 H147 0.931 . S
C144 N141 1.313 . S
C144 N145 1.344 . S
C144 H148 0.930 . S
N145 C142 1.377 . S
N145 C144 1.344 . S
O146 Co138 2.055 1_545 S
O146 C150 1.253 . S
H147 C143 0.931 . S
H148 C144 0.930 . S
O149 Co138 2.039 . S
O149 C139 1.265 . S
C150 O146 1.253 . S
C150 O151 1.227 . S
O151 C150 1.227 . S
N152 Co138 2.140 1_545 S
N152 C155 1.346 . S
N152 C156 1.345 . S
C153 C154 1.387 . S
C153 C157 1.391 . S
C154 C153 1.387 . S
C154 C155 1.369 . S
C154 H163 0.929 . S
C155 N152 1.346 . S
C155 C154 1.369 . S
C155 H158 0.928 . S
C156 N152 1.345 . S
C156 C157 1.371 . S
C156 H159 0.931 1_545 S
C157 C153 1.391 . S
C157 C156 1.371 . S
C157 H164 0.930 . S
H158 C155 0.928 . S
H159 C156 0.931 1_565 S
H160 C136 0.930 . S
H161 C133 0.930 . S
H162 C142 0.930 . S
H163 C154 0.929 . S
H164 C157 0.930 . S
C165 C166 1.351 . S
C165 N168 1.368 . S
C165 H170 0.931 . S
C166 C165 1.351 . S
C166 N167 1.373 . S
C166 H194 0.930 . S
N167 C166 1.373 . S
N167 C169 1.340 . S
N168 C165 1.368 . S
N168 C169 1.321 . S
N168 Co171 2.135 . S
C169 N167 1.340 . S
C169 N168 1.321 . S
C169 H193 0.930 . S
H170 C165 0.931 . S
Co171 N168 2.135 . S
Co171 N174 2.121 . S
Co171 O179 2.055 . S
Co171 O182 2.039 . S
Co171 N185 2.140 . S
C172 O173 1.227 . S
C172 O182 1.265 . S
O173 C172 1.227 . S
N174 Co171 2.121 . S
N174 C176 1.375 . S
N174 C177 1.313 1_554 S
C175 C176 1.338 1_556 S
C175 N178 1.377 . S
C175 H195 0.930 . S
C176 N174 1.375 . S
C176 C175 1.338 1_554 S
C176 H180 0.931 . S
C177 N174 1.313 1_556 S
C177 N178 1.344 . S
C177 H181 0.930 . S
N178 C175 1.377 . S
N178 C177 1.344 . S
O179 Co171 2.055 . S
O179 C183 1.253 1_554 S
H180 C176 0.931 . S
H181 C177 0.930 . S
O182 Co171 2.039 . S
O182 C172 1.265 . S
C183 O179 1.253 1_556 S
C183 O184 1.227 . S
O184 C183 1.227 . S
N185 Co171 2.140 . S
N185 C188 1.346 . S
N185 C189 1.345 . S
C186 C187 1.387 . S
C186 C190 1.391 . S
C187 C186 1.387 . S
C187 C188 1.369 . S
C187 H196 0.929 . S
C188 N185 1.346 . S
C188 C187 1.369 . S
C188 H191 0.928 . S
C189 N185 1.345 . S
C189 C190 1.371 . S
C189 H192 0.931 1_554 S
C190 C186 1.391 . S
C190 C189 1.371 . S
C190 H197 0.930 1_554 S
H191 C188 0.928 . S
H192 C189 0.931 1_556 S
H193 C169 0.930 . S
H194 C166 0.930 . S
H195 C175 0.930 . S
H196 C187 0.929 . S
H197 C190 0.930 1_556 S
C198 C199 1.351 . S
C198 N201 1.368 . S
C198 H203 0.931 . S
C199 C198 1.351 . S
C199 N200 1.373 . S
C199 H227 0.930 . S
N200 C199 1.373 . S
N200 C202 1.340 . S
N201 C198 1.368 . S
N201 C202 1.321 . S
N201 Co204 2.135 . S
C202 N200 1.340 . S
C202 N201 1.321 . S
C202 H226 0.930 . S
H203 C198 0.931 . S
Co204 N201 2.135 . S
Co204 N207 2.121 . S
Co204 O212 2.055 . S
Co204 O215 2.039 . S
Co204 N218 2.140 . S
C205 O206 1.227 . S
C205 O215 1.265 . S
O206 C205 1.227 . S
N207 Co204 2.121 . S
N207 C209 1.375 . S
N207 C210 1.313 . S
C208 C209 1.338 . S
C208 N211 1.377 . S
C208 H228 0.930 . S
C209 N207 1.375 . S
C209 C208 1.338 . S
C209 H213 0.931 . S
C210 N207 1.313 . S
C210 N211 1.344 . S
C210 H214 0.930 . S
N211 C208 1.377 . S
N211 C210 1.344 . S
O212 Co204 2.055 . S
O212 C216 1.253 . S
H213 C209 0.931 . S
H214 C210 0.930 . S
O215 Co204 2.039 . S
O215 C205 1.265 . S
C216 O212 1.253 . S
C216 O217 1.227 . S
O217 C216 1.227 . S
N218 Co204 2.140 . S
N218 C221 1.346 . S
N218 C222 1.345 . S
C219 C220 1.387 . S
C219 C223 1.391 . S
C220 C219 1.387 . S
C220 C221 1.369 . S
C220 H229 0.929 . S
C221 N218 1.346 . S
C221 C220 1.369 . S
C221 H224 0.928 . S
C222 N218 1.345 . S
C222 C223 1.371 . S
C222 H225 0.931 . S
C223 C219 1.391 . S
C223 C222 1.371 . S
C223 H230 0.930 . S
H224 C221 0.928 . S
H225 C222 0.931 . S
H226 C202 0.930 . S
H227 C199 0.930 . S
H228 C208 0.930 . S
H229 C220 0.929 . S
H230 C223 0.930 . S
C231 C232 1.351 . S
C231 N234 1.368 1_455 S
C231 H236 0.931 . S
C232 C231 1.351 . S
C232 N233 1.373 . S
C232 H260 0.930 . S
N233 C232 1.373 . S
N233 C235 1.340 1_455 S
N234 C231 1.368 1_655 S
N234 C235 1.321 . S
N234 Co237 2.135 . S
C235 N233 1.340 1_655 S
C235 N234 1.321 . S
C235 H259 0.930 . S
H236 C231 0.931 . S
Co237 N234 2.135 . S
Co237 N240 2.121 . S
Co237 O245 2.055 . S
Co237 O248 2.039 . S
Co237 N251 2.140 . S
C238 O239 1.227 . S
C238 O248 1.265 . S
O239 C238 1.227 . S
N240 Co237 2.121 . S
N240 C242 1.375 . S
N240 C243 1.313 1_554 S
C241 C242 1.338 1_556 S
C241 N244 1.377 . S
C241 H261 0.930 . S
C242 N240 1.375 . S
C242 C241 1.338 1_554 S
C242 H246 0.931 . S
C243 N240 1.313 1_556 S
C243 N244 1.344 . S
C243 H247 0.930 . S
N244 C241 1.377 . S
N244 C243 1.344 . S
O245 Co237 2.055 . S
O245 C249 1.253 1_554 S
H246 C242 0.931 . S
H247 C243 0.930 . S
O248 Co237 2.039 . S
O248 C238 1.265 . S
C249 O245 1.253 1_556 S
C249 O250 1.227 . S
O250 C249 1.227 . S
N251 Co237 2.140 . S
N251 C254 1.346 . S
N251 C255 1.345 . S
C252 C253 1.387 . S
C252 C256 1.391 1_554 S
C253 C252 1.387 . S
C253 C254 1.369 . S
C253 H262 0.929 . S
C254 N251 1.346 . S
C254 C253 1.369 . S
C254 H257 0.928 . S
C255 N251 1.345 . S
C255 C256 1.371 1_554 S
C255 H258 0.931 1_554 S
C256 C252 1.391 1_556 S
C256 C255 1.371 1_556 S
C256 H263 0.930 . S
H257 C254 0.928 . S
H258 C255 0.931 1_556 S
H259 C235 0.930 . S
H260 C232 0.930 . S
H261 C241 0.930 . S
H262 C253 0.929 . S
H263 C256 0.930 . S
C264 C265 1.351 . S
C264 N267 1.368 1_545 S
C264 H269 0.931 . S
C265 C264 1.351 . S
C265 N266 1.373 . S
C265 H293 0.930 . S
N266 C265 1.373 . S
N266 C268 1.340 1_545 S
N267 C264 1.368 1_565 S
N267 C268 1.321 . S
N267 Co270 2.135 . S
C268 N266 1.340 1_565 S
C268 N267 1.321 . S
C268 H292 0.930 . S
H269 C264 0.931 . S
Co270 N267 2.135 . S
Co270 N273 2.121 . S
Co270 O278 2.055 . S
Co270 O281 2.039 . S
Co270 N284 2.140 . S
C271 O272 1.227 . S
C271 O281 1.265 . S
O272 C271 1.227 . S
N273 Co270 2.121 . S
N273 C275 1.375 . S
N273 C276 1.313 . S
C274 C275 1.338 . S
C274 N277 1.377 . S
C274 H294 0.930 . S
C275 N273 1.375 . S
C275 C274 1.338 . S
C275 H279 0.931 . S
C276 N273 1.313 . S
C276 N277 1.344 . S
C276 H280 0.930 . S
N277 C274 1.377 . S
N277 C276 1.344 . S
O278 Co270 2.055 . S
O278 C282 1.253 . S
H279 C275 0.931 . S
H280 C276 0.930 . S
O281 Co270 2.039 . S
O281 C271 1.265 . S
C282 O278 1.253 . S
C282 O283 1.227 . S
O283 C282 1.227 . S
N284 Co270 2.140 . S
N284 C287 1.346 . S
N284 C288 1.345 . S
C285 C286 1.387 . S
C285 C289 1.391 . S
C286 C285 1.387 . S
C286 C287 1.369 . S
C286 H295 0.929 . S
C287 N284 1.346 . S
C287 C286 1.369 . S
C287 H290 0.928 . S
C288 N284 1.345 . S
C288 C289 1.371 . S
C288 H291 0.931 . S
C289 C285 1.391 . S
C289 C288 1.371 . S
C289 H296 0.930 . S
H290 C287 0.928 . S
H291 C288 0.931 . S
H292 C268 0.930 . S
H293 C265 0.930 . S
H294 C274 0.930 . S
H295 C286 0.929 . S
H296 C289 0.930 . S
C297 C298 1.351 . S
C297 N300 1.368 . S
C297 H302 0.931 . S
C298 C297 1.351 . S
C298 N299 1.373 . S
C298 H326 0.930 . S
N299 C298 1.373 . S
N299 C301 1.340 . S
N300 C297 1.368 . S
N300 C301 1.321 . S
N300 Co303 2.135 . S
C301 N299 1.340 . S
C301 N300 1.321 . S
C301 H325 0.930 . S
H302 C297 0.931 . S
Co303 N300 2.135 . S
Co303 N306 2.121 1_554 S
Co303 O311 2.055 . S
Co303 O314 2.039 . S
Co303 N317 2.140 . S
C304 O305 1.227 . S
C304 O314 1.265 . S
O305 C304 1.227 . S
N306 Co303 2.121 1_556 S
N306 C308 1.375 1_556 S
N306 C309 1.313 . S
C307 C308 1.338 1_556 S
C307 N310 1.377 . S
C307 H327 0.930 . S
C308 N306 1.375 1_554 S
C308 C307 1.338 1_554 S
C308 H312 0.931 . S
C309 N306 1.313 . S
C309 N310 1.344 . S
C309 H313 0.930 . S
N310 C307 1.377 . S
N310 C309 1.344 . S
O311 Co303 2.055 . S
O311 C315 1.253 1_554 S
H312 C308 0.931 . S
H313 C309 0.930 . S
O314 Co303 2.039 . S
O314 C304 1.265 . S
C315 O311 1.253 1_556 S
C315 O316 1.227 . S
O316 C315 1.227 . S
N317 Co303 2.140 . S
N317 C320 1.346 . S
N317 C321 1.345 1_554 S
C318 C319 1.387 . S
C318 C322 1.391 1_554 S
C319 C318 1.387 . S
C319 C320 1.369 . S
C319 H328 0.929 . S
C320 N317 1.346 . S
C320 C319 1.369 . S
C320 H323 0.928 . S
C321 N317 1.345 1_556 S
C321 C322 1.371 . S
C321 H324 0.931 . S
C322 C318 1.391 1_556 S
C322 C321 1.371 . S
C322 H329 0.930 . S
H323 C320 0.928 . S
H324 C321 0.931 . S
H325 C301 0.930 . S
H326 C298 0.930 . S
H327 C307 0.930 . S
H328 C319 0.929 . S
H329 C322 0.930 . S
C330 C331 1.351 . S
C330 N333 1.368 . S
C330 H335 0.931 . S
C331 C330 1.351 . S
C331 N332 1.373 . S
C331 H359 0.930 . S
N332 C331 1.373 . S
N332 C334 1.340 . S
N333 C330 1.368 . S
N333 C334 1.321 . S
N333 Co336 2.135 . S
C334 N332 1.340 . S
C334 N333 1.321 . S
C334 H358 0.930 . S
H335 C330 0.931 . S
Co336 N333 2.135 . S
Co336 N339 2.121 . S
Co336 O344 2.055 . S
Co336 O347 2.039 . S
Co336 N350 2.140 . S
C337 O338 1.227 . S
C337 O347 1.265 . S
O338 C337 1.227 . S
N339 Co336 2.121 . S
N339 C341 1.375 . S
N339 C342 1.313 . S
C340 C341 1.338 . S
C340 N343 1.377 . S
C340 H360 0.930 . S
C341 N339 1.375 . S
C341 C340 1.338 . S
C341 H345 0.931 . S
C342 N339 1.313 . S
C342 N343 1.344 . S
C342 H346 0.930 . S
N343 C340 1.377 . S
N343 C342 1.344 . S
O344 Co336 2.055 . S
O344 C348 1.253 . S
H345 C341 0.931 . S
H346 C342 0.930 . S
O347 Co336 2.039 . S
O347 C337 1.265 . S
C348 O344 1.253 . S
C348 O349 1.227 . S
O349 C348 1.227 . S
N350 Co336 2.140 . S
N350 C353 1.346 . S
N350 C354 1.345 . S
C351 C352 1.387 . S
C351 C355 1.391 . S
C352 C351 1.387 . S
C352 C353 1.369 . S
C352 H361 0.929 . S
C353 N350 1.346 . S
C353 C352 1.369 . S
C353 H356 0.928 . S
C354 N350 1.345 . S
C354 C355 1.371 . S
C354 H357 0.931 . S
C355 C351 1.391 . S
C355 C354 1.371 . S
C355 H362 0.930 . S
H356 C353 0.928 . S
H357 C354 0.931 . S
H358 C334 0.930 . S
H359 C331 0.930 . S
H360 C340 0.930 . S
H361 C352 0.929 . S
H362 C355 0.930 . S
C363 C364 1.351 . S
C363 N366 1.368 . S
C363 H368 0.931 . S
C364 C363 1.351 . S
C364 N365 1.373 . S
C364 H392 0.930 . S
N365 C364 1.373 . S
N365 C367 1.340 . S
N366 C363 1.368 . S
N366 C367 1.321 . S
N366 Co369 2.135 1_455 S
C367 N365 1.340 . S
C367 N366 1.321 . S
C367 H391 0.930 . S
H368 C363 0.931 . S
Co369 N366 2.135 1_655 S
Co369 N372 2.121 1_554 S
Co369 O377 2.055 1_655 S
Co369 O380 2.039 . S
Co369 N383 2.140 1_655 S
C370 O371 1.227 . S
C370 O380 1.265 . S
O371 C370 1.227 . S
N372 Co369 2.121 1_556 S
N372 C374 1.375 1_556 S
N372 C375 1.313 . S
C373 C374 1.338 1_556 S
C373 N376 1.377 . S
C373 H393 0.930 . S
C374 N372 1.375 1_554 S
C374 C373 1.338 1_554 S
C374 H378 0.931 . S
C375 N372 1.313 . S
C375 N376 1.344 . S
C375 H379 0.930 . S
N376 C373 1.377 . S
N376 C375 1.344 . S
O377 Co369 2.055 1_455 S
O377 C381 1.253 1_554 S
H378 C374 0.931 . S
H379 C375 0.930 . S
O380 Co369 2.039 . S
O380 C370 1.265 . S
C381 O377 1.253 1_556 S
C381 O382 1.227 . S
O382 C381 1.227 . S
N383 Co369 2.140 1_455 S
N383 C386 1.346 . S
N383 C387 1.345 1_554 S
C384 C385 1.387 . S
C384 C388 1.391 1_554 S
C385 C384 1.387 . S
C385 C386 1.369 . S
C385 H394 0.929 . S
C386 N383 1.346 . S
C386 C385 1.369 . S
C386 H389 0.928 . S
C387 N383 1.345 1_556 S
C387 C388 1.371 . S
C387 H390 0.931 1_455 S
C388 C384 1.391 1_556 S
C388 C387 1.371 . S
C388 H395 0.930 . S
H389 C386 0.928 . S
H390 C387 0.931 1_655 S
H391 C367 0.930 . S
H392 C364 0.930 . S
H393 C373 0.930 . S
H394 C385 0.929 . S
H395 C388 0.930 . S
C396 C397 1.351 . S
C396 N399 1.368 . S
C396 H401 0.931 . S
C397 C396 1.351 . S
C397 N398 1.373 . S
C397 H425 0.930 . S
N398 C397 1.373 . S
N398 C400 1.340 . S
N399 C396 1.368 . S
N399 C400 1.321 . S
N399 Co402 2.135 1_565 S
C400 N398 1.340 . S
C400 N399 1.321 . S
C400 H424 0.930 . S
H401 C396 0.931 . S
Co402 N399 2.135 1_545 S
Co402 N405 2.121 . S
Co402 O410 2.055 1_545 S
Co402 O413 2.039 . S
Co402 N416 2.140 1_545 S
C403 O404 1.227 . S
C403 O413 1.265 . S
O404 C403 1.227 . S
N405 Co402 2.121 . S
N405 C407 1.375 . S
N405 C408 1.313 . S
C406 C407 1.338 . S
C406 N409 1.377 . S
C406 H426 0.930 . S
C407 N405 1.375 . S
C407 C406 1.338 . S
C407 H411 0.931 . S
C408 N405 1.313 . S
C408 N409 1.344 . S
C408 H412 0.930 . S
N409 C406 1.377 . S
N409 C408 1.344 . S
O410 Co402 2.055 1_565 S
O410 C414 1.253 . S
H411 C407 0.931 . S
H412 C408 0.930 . S
O413 Co402 2.039 . S
O413 C403 1.265 . S
C414 O410 1.253 . S
C414 O415 1.227 . S
O415 C414 1.227 . S
N416 Co402 2.140 1_565 S
N416 C419 1.346 . S
N416 C420 1.345 . S
C417 C418 1.387 . S
C417 C421 1.391 . S
C418 C417 1.387 . S
C418 C419 1.369 . S
C418 H427 0.929 . S
C419 N416 1.346 . S
C419 C418 1.369 . S
C419 H422 0.928 . S
C420 N416 1.345 . S
C420 C421 1.371 . S
C420 H423 0.931 1_565 S
C421 C417 1.391 . S
C421 C420 1.371 . S
C421 H428 0.930 . S
H422 C419 0.928 . S
H423 C420 0.931 1_545 S
H424 C400 0.930 . S
H425 C397 0.930 . S
H426 C406 0.930 . S
H427 C418 0.929 . S
H428 C421 0.930 . S
C429 C430 1.351 . S
C429 N432 1.368 . S
C429 H434 0.931 . S
C430 C429 1.351 . S
C430 N431 1.373 . S
C430 H458 0.930 . S
N431 C430 1.373 . S
N431 C433 1.340 . S
N432 C429 1.368 . S
N432 C433 1.321 . S
N432 Co435 2.135 . S
C433 N431 1.340 . S
C433 N432 1.321 . S
C433 H457 0.930 . S
H434 C429 0.931 . S
Co435 N432 2.135 . S
Co435 N438 2.121 . S
Co435 O443 2.055 . S
Co435 O446 2.039 . S
Co435 N449 2.140 . S
C436 O437 1.227 . S
C436 O446 1.265 . S
O437 C436 1.227 . S
N438 Co435 2.121 . S
N438 C440 1.375 . S
N438 C441 1.313 1_556 S
C439 C440 1.338 1_554 S
C439 N442 1.377 . S
C439 H459 0.930 . S
C440 N438 1.375 . S
C440 C439 1.338 1_556 S
C440 H444 0.931 . S
C441 N438 1.313 1_554 S
C441 N442 1.344 . S
C441 H445 0.930 . S
N442 C439 1.377 . S
N442 C441 1.344 . S
O443 Co435 2.055 . S
O443 C447 1.253 1_556 S
H444 C440 0.931 . S
H445 C441 0.930 . S
O446 Co435 2.039 . S
O446 C436 1.265 . S
C447 O443 1.253 1_554 S
C447 O448 1.227 . S
O448 C447 1.227 . S
N449 Co435 2.140 . S
N449 C452 1.346 . S
N449 C453 1.345 . S
C450 C451 1.387 . S
C450 C454 1.391 . S
C451 C450 1.387 . S
C451 C452 1.369 . S
C451 H460 0.929 . S
C452 N449 1.346 . S
C452 C451 1.369 . S
C452 H455 0.928 . S
C453 N449 1.345 . S
C453 C454 1.371 . S
C453 H456 0.931 1_556 S
C454 C450 1.391 . S
C454 C453 1.371 . S
C454 H461 0.930 1_556 S
H455 C452 0.928 . S
H456 C453 0.931 1_554 S
H457 C433 0.930 . S
H458 C430 0.930 . S
H459 C439 0.930 . S
H460 C451 0.929 . S
H461 C454 0.930 1_554 S
C462 C463 1.351 . S
C462 N465 1.368 . S
C462 H467 0.931 . S
C463 C462 1.351 . S
C463 N464 1.373 . S
C463 H491 0.930 . S
N464 C463 1.373 . S
N464 C466 1.340 . S
N465 C462 1.368 . S
N465 C466 1.321 . S
N465 Co468 2.135 . S
C466 N464 1.340 . S
C466 N465 1.321 . S
C466 H490 0.930 . S
H467 C462 0.931 . S
Co468 N465 2.135 . S
Co468 N471 2.121 . S
Co468 O476 2.055 . S
Co468 O479 2.039 . S
Co468 N482 2.140 . S
C469 O470 1.227 . S
C469 O479 1.265 . S
O470 C469 1.227 . S
N471 Co468 2.121 . S
N471 C473 1.375 . S
N471 C474 1.313 . S
C472 C473 1.338 . S
C472 N475 1.377 . S
C472 H492 0.930 . S
C473 N471 1.375 . S
C473 C472 1.338 . S
C473 H477 0.931 . S
C474 N471 1.313 . S
C474 N475 1.344 . S
C474 H478 0.930 . S
N475 C472 1.377 . S
N475 C474 1.344 . S
O476 Co468 2.055 . S
O476 C480 1.253 . S
H477 C473 0.931 . S
H478 C474 0.930 . S
O479 Co468 2.039 . S
O479 C469 1.265 . S
C480 O476 1.253 . S
C480 O481 1.227 . S
O481 C480 1.227 . S
N482 Co468 2.140 . S
N482 C485 1.346 . S
N482 C486 1.345 . S
C483 C484 1.387 . S
C483 C487 1.391 . S
C484 C483 1.387 . S
C484 C485 1.369 . S
C484 H493 0.929 . S
C485 N482 1.346 . S
C485 C484 1.369 . S
C485 H488 0.928 . S
C486 N482 1.345 . S
C486 C487 1.371 . S
C486 H489 0.931 . S
C487 C483 1.391 . S
C487 C486 1.371 . S
C487 H494 0.930 . S
H488 C485 0.928 . S
H489 C486 0.931 . S
H490 C466 0.930 . S
H491 C463 0.930 . S
H492 C472 0.930 . S
H493 C484 0.929 . S
H494 C487 0.930 . S
C495 C496 1.351 . S
C495 N498 1.368 1_655 S
C495 H500 0.931 . S
C496 C495 1.351 . S
C496 N497 1.373 . S
C496 H524 0.930 . S
N497 C496 1.373 . S
N497 C499 1.340 1_655 S
N498 C495 1.368 1_455 S
N498 C499 1.321 . S
N498 Co501 2.135 . S
C499 N497 1.340 1_455 S
C499 N498 1.321 . S
C499 H523 0.930 . S
H500 C495 0.931 . S
Co501 N498 2.135 . S
Co501 N504 2.121 . S
Co501 O509 2.055 . S
Co501 O512 2.039 . S
Co501 N515 2.140 . S
C502 O503 1.227 . S
C502 O512 1.265 . S
O503 C502 1.227 . S
N504 Co501 2.121 . S
N504 C506 1.375 . S
N504 C507 1.313 1_556 S
C505 C506 1.338 1_554 S
C505 N508 1.377 . S
C505 H525 0.930 . S
C506 N504 1.375 . S
C506 C505 1.338 1_556 S
C506 H510 0.931 . S
C507 N504 1.313 1_554 S
C507 N508 1.344 . S
C507 H511 0.930 . S
N508 C505 1.377 . S
N508 C507 1.344 . S
O509 Co501 2.055 . S
O509 C513 1.253 1_556 S
H510 C506 0.931 . S
H511 C507 0.930 . S
O512 Co501 2.039 . S
O512 C502 1.265 . S
C513 O509 1.253 1_554 S
C513 O514 1.227 . S
O514 C513 1.227 . S
N515 Co501 2.140 . S
N515 C518 1.346 . S
N515 C519 1.345 . S
C516 C517 1.387 . S
C516 C520 1.391 1_556 S
C517 C516 1.387 . S
C517 C518 1.369 . S
C517 H526 0.929 . S
C518 N515 1.346 . S
C518 C517 1.369 . S
C518 H521 0.928 . S
C519 N515 1.345 . S
C519 C520 1.371 1_556 S
C519 H522 0.931 1_556 S
C520 C516 1.391 1_554 S
C520 C519 1.371 1_554 S
C520 H527 0.930 . S
H521 C518 0.928 . S
H522 C519 0.931 1_554 S
H523 C499 0.930 . S
H524 C496 0.930 . S
H525 C505 0.930 . S
H526 C517 0.929 . S
H527 C520 0.930 . S
C528 C529 1.369 1_545 S
C528 C530 1.419 1_655 S
C528 H532 0.930 . S
C529 C528 1.369 1_565 S
C529 C538 1.429 . S
C530 C528 1.419 1_455 S
C530 C531 1.363 . S
C530 H533 0.929 . S
C531 C530 1.363 . S
C531 C537 1.428 1_545 S
H532 C528 0.930 . S
H533 C530 0.929 . S
S534 N535 1.613 . S
S534 N536 1.610 1_655 S
N535 S534 1.613 . S
N535 C538 1.350 . S
N536 S534 1.610 1_455 S
N536 C537 1.351 . S
C537 C531 1.428 1_565 S
C537 N536 1.351 . S
C537 C538 1.434 1_455 S
C538 C529 1.429 . S
C538 N535 1.350 . S
C538 C537 1.434 1_655 S
C539 C540 1.369 1_556 S
C539 C541 1.419 1_545 S
C539 H543 0.930 . S
C540 C539 1.369 1_554 S
C540 C549 1.429 . S
C541 C539 1.419 1_565 S
C541 C542 1.363 . S
C541 H544 0.929 . S
C542 C541 1.363 . S
C542 C548 1.428 1_556 S
H543 C539 0.930 . S
H544 C541 0.929 . S
S545 N546 1.613 . S
S545 N547 1.610 1_545 S
N546 S545 1.613 . S
N546 C549 1.350 . S
N547 S545 1.610 1_565 S
N547 C548 1.351 . S
C548 C542 1.428 1_554 S
C548 N547 1.351 . S
C548 C549 1.434 1_565 S
C549 C540 1.429 . S
C549 N546 1.350 . S
C549 C548 1.434 1_545 S
C550 C551 1.369 . S
C550 C552 1.419 . S
C550 H554 0.930 . S
C551 C550 1.369 . S
C551 C560 1.429 . S
C552 C550 1.419 . S
C552 C553 1.363 . S
C552 H555 0.929 . S
C553 C552 1.363 . S
C553 C559 1.428 . S
H554 C550 0.930 . S
H555 C552 0.929 . S
S556 N557 1.613 . S
S556 N558 1.610 . S
N557 S556 1.613 . S
N557 C560 1.350 . S
N558 S556 1.610 . S
N558 C559 1.351 . S
C559 C553 1.428 . S
C559 N558 1.351 . S
C559 C560 1.434 . S
C560 C551 1.429 . S
C560 N557 1.350 . S
C560 C559 1.434 . S
C561 C562 1.369 . S
C561 C563 1.419 1_556 S
C561 H565 0.930 . S
C562 C561 1.369 . S
C562 C571 1.428 1_455 S
C563 C561 1.419 1_554 S
C563 C564 1.363 1_455 S
C563 H566 0.929 . S
C564 C563 1.363 1_655 S
C564 C570 1.428 . S
H565 C561 0.930 . S
H566 C563 0.929 . S
S567 N568 1.613 . S
S567 N569 1.610 . S
N568 S567 1.613 . S
N568 C571 1.350 1_554 S
N569 S567 1.610 . S
N569 C570 1.351 . S
C570 C564 1.428 . S
C570 N569 1.351 . S
C570 C571 1.435 1_554 S
C571 C562 1.428 1_655 S
C571 N568 1.350 1_556 S
C571 C570 1.435 1_556 S
C572 C573 1.369 1_565 S
C572 C574 1.419 . S
C572 H576 0.930 . S
C573 C572 1.369 1_545 S
C573 C582 1.429 . S
C574 C572 1.419 . S
C574 C575 1.363 . S
C574 H577 0.929 . S
C575 C574 1.363 . S
C575 C581 1.428 1_565 S
H576 C572 0.930 . S
H577 C574 0.929 . S
S578 N579 1.613 . S
S578 N580 1.610 . S
N579 S578 1.613 . S
N579 C582 1.350 . S
N580 S578 1.610 . S
N580 C581 1.351 . S
C581 C575 1.428 1_545 S
C581 N580 1.351 . S
C581 C582 1.434 . S
C582 C573 1.429 . S
C582 N579 1.350 . S
C582 C581 1.434 . S
C583 C584 1.369 . S
C583 C585 1.419 1_556 S
C583 H587 0.930 . S
C584 C583 1.369 . S
C584 C593 1.429 . S
C585 C583 1.419 1_554 S
C585 C586 1.363 . S
C585 H588 0.929 . S
C586 C585 1.363 . S
C586 C592 1.428 . S
H587 C583 0.930 . S
H588 C585 0.929 . S
S589 N590 1.613 . S
S589 N591 1.610 1_556 S
N590 S589 1.613 . S
N590 C593 1.350 . S
N591 S589 1.610 1_554 S
N591 C592 1.351 . S
C592 C586 1.428 . S
C592 N591 1.351 . S
C592 C593 1.434 1_554 S
C593 C584 1.429 . S
C593 N590 1.350 . S
C593 C592 1.434 1_556 S
C594 C595 1.369 . S
C594 C596 1.419 1_655 S
C594 H598 0.930 . S
C595 C594 1.369 . S
C595 C604 1.429 . S
C596 C594 1.419 1_455 S
C596 C597 1.363 . S
C596 H599 0.929 . S
C597 C596 1.363 . S
C597 C603 1.428 . S
H598 C594 0.930 . S
H599 C596 0.929 . S
S600 N601 1.611 . S
S600 N602 1.610 . S
N601 S600 1.611 . S
N601 C604 1.351 1_455 S
N602 S600 1.610 . S
N602 C603 1.351 . S
C603 C597 1.428 . S
C603 N602 1.351 . S
C603 C604 1.434 1_455 S
C604 C595 1.429 . S
C604 N601 1.351 1_655 S
C604 C603 1.434 1_655 S
C605 C606 1.369 . S
C605 C607 1.419 1_565 S
C605 H609 0.930 . S
C606 C605 1.369 . S
C606 C615 1.429 1_656 S
C607 C605 1.419 1_545 S
C607 C608 1.363 1_656 S
C607 H610 0.929 . S
C608 C607 1.363 1_454 S
C608 C614 1.428 . S
H609 C605 0.930 . S
H610 C607 0.929 . S
S611 N612 1.613 . S
S611 N613 1.610 1_565 S
N612 S611 1.613 . S
N612 C615 1.350 . S
N613 S611 1.610 1_545 S
N613 C614 1.351 . S
C614 C608 1.428 . S
C614 N613 1.351 . S
C614 C615 1.434 1_545 S
C615 C606 1.429 1_454 S
C615 N612 1.350 . S
C615 C614 1.434 1_565 S
C616 C617 1.369 . S
C616 C618 1.419 . S
C616 H620 0.930 . S
C617 C616 1.369 . S
C617 C626 1.429 . S
C618 C616 1.419 . S
C618 C619 1.363 . S
C618 H621 0.929 . S
C619 C618 1.363 . S
C619 C625 1.428 . S
H620 C616 0.930 . S
H621 C618 0.929 . S
S622 N623 1.613 . S
S622 N624 1.610 . S
N623 S622 1.613 . S
N623 C626 1.350 . S
N624 S622 1.610 . S
N624 C625 1.351 . S
C625 C619 1.428 . S
C625 N624 1.351 . S
C625 C626 1.434 . S
C626 C617 1.429 . S
C626 N623 1.350 . S
C626 C625 1.434 . S
C627 C628 1.369 . S
C627 C629 1.419 . S
C627 H631 0.930 . S
C628 C627 1.369 . S
C628 C637 1.429 . S
C629 C627 1.419 . S
C629 C630 1.363 . S
C629 H632 0.929 . S
C630 C629 1.363 . S
C630 C636 1.428 . S
H631 C627 0.930 . S
H632 C629 0.929 . S
S633 N634 1.613 . S
S633 N635 1.610 . S
N634 S633 1.613 . S
N634 C637 1.350 . S
N635 S633 1.610 . S
N635 C636 1.351 . S
C636 C630 1.428 . S
C636 N635 1.351 . S
C636 C637 1.434 . S
C637 C628 1.429 . S
C637 N634 1.350 . S
C637 C636 1.434 . S
C638 C639 1.369 . S
C638 C640 1.419 . S
C638 H642 0.930 . S
C639 C638 1.369 . S
C639 C648 1.429 . S
C640 C638 1.419 . S
C640 C641 1.363 . S
C640 H643 0.929 . S
C641 C640 1.363 . S
C641 C647 1.428 . S
H642 C638 0.930 . S
H643 C640 0.929 . S
S644 N645 1.613 . S
S644 N646 1.610 . S
N645 S644 1.613 . S
N645 C648 1.350 . S
N646 S644 1.610 . S
N646 C647 1.351 . S
C647 C641 1.428 . S
C647 N646 1.351 . S
C647 C648 1.434 . S
C648 C639 1.429 . S
C648 N645 1.350 . S
C648 C647 1.434 . S
C649 C650 1.369 . S
C649 C651 1.419 . S
C649 H653 0.930 . S
C650 C649 1.369 . S
C650 C659 1.429 . S
C651 C649 1.419 . S
C651 C652 1.363 . S
C651 H654 0.929 . S
C652 C651 1.363 . S
C652 C658 1.428 . S
H653 C649 0.930 . S
H654 C651 0.929 . S
S655 N656 1.613 . S
S655 N657 1.610 . S
N656 S655 1.613 . S
N656 C659 1.350 . S
N657 S655 1.610 . S
N657 C658 1.351 . S
C658 C652 1.428 . S
C658 N657 1.351 . S
C658 C659 1.434 . S
C659 C650 1.429 . S
C659 N656 1.350 . S
C659 C658 1.434 . S
C660 C661 1.369 . S
C660 C662 1.419 . S
C660 H664 0.930 . S
C661 C660 1.369 . S
C661 C670 1.429 . S
C662 C660 1.419 . S
C662 C663 1.363 . S
C662 H665 0.929 . S
C663 C662 1.363 . S
C663 C669 1.428 . S
H664 C660 0.930 . S
H665 C662 0.929 . S
S666 N667 1.613 . S
S666 N668 1.610 . S
N667 S666 1.613 . S
N667 C670 1.350 . S
N668 S666 1.610 . S
N668 C669 1.351 . S
C669 C663 1.428 . S
C669 N668 1.351 . S
C669 C670 1.434 . S
C670 C661 1.429 . S
C670 N667 1.350 . S
C670 C669 1.434 . S
C671 C672 1.369 . S
C671 C673 1.419 . S
C671 H675 0.930 . S
C672 C671 1.369 . S
C672 C681 1.429 . S
C673 C671 1.419 . S
C673 C674 1.363 . S
C673 H676 0.929 . S
C674 C673 1.363 . S
C674 C680 1.428 . S
H675 C671 0.930 . S
H676 C673 0.929 . S
S677 N678 1.613 . S
S677 N679 1.610 . S
N678 S677 1.613 . S
N678 C681 1.350 . S
N679 S677 1.610 . S
N679 C680 1.351 . S
C680 C674 1.428 . S
C680 N679 1.351 . S
C680 C681 1.434 . S
C681 C672 1.429 . S
C681 N678 1.350 . S
C681 C680 1.434 . S
C682 C683 1.369 . S
C682 C684 1.419 . S
C682 H686 0.930 . S
C683 C682 1.369 . S
C683 C692 1.429 . S
C684 C682 1.419 . S
C684 C685 1.363 . S
C684 H687 0.929 . S
C685 C684 1.363 . S
C685 C691 1.428 . S
H686 C682 0.930 . S
H687 C684 0.929 . S
S688 N689 1.613 . S
S688 N690 1.610 . S
N689 S688 1.613 . S
N689 C692 1.350 . S
N690 S688 1.610 . S
N690 C691 1.351 . S
C691 C685 1.428 . S
C691 N690 1.351 . S
C691 C692 1.434 . S
C692 C683 1.429 . S
C692 N689 1.350 . S
C692 C691 1.434 . S
C693 C694 1.369 . S
C693 C695 1.419 . S
C693 H697 0.930 . S
C694 C693 1.369 . S
C694 C703 1.429 . S
C695 C693 1.419 . S
C695 C696 1.363 . S
C695 H698 0.929 . S
C696 C695 1.363 . S
C696 C702 1.428 . S
H697 C693 0.930 . S
H698 C695 0.929 . S
S699 N700 1.613 . S
S699 N701 1.610 . S
N700 S699 1.613 . S
N700 C703 1.350 . S
N701 S699 1.610 . S
N701 C702 1.351 . S
C702 C696 1.428 . S
C702 N701 1.351 . S
C702 C703 1.434 . S
C703 C694 1.429 . S
C703 N700 1.350 . S
C703 C702 1.434 . S
C704 C705 1.369 . S
C704 C706 1.419 . S
C704 H708 0.930 . S
C705 C704 1.369 . S
C705 C714 1.429 . S
C706 C704 1.419 . S
C706 C707 1.363 . S
C706 H709 0.929 . S
C707 C706 1.363 . S
C707 C713 1.428 . S
H708 C704 0.930 . S
H709 C706 0.929 . S
S710 N711 1.613 . S
S710 N712 1.610 . S
N711 S710 1.613 . S
N711 C714 1.350 . S
N712 S710 1.610 . S
N712 C713 1.351 . S
C713 C707 1.428 . S
C713 N712 1.351 . S
C713 C714 1.434 . S
C714 C705 1.429 . S
C714 N711 1.350 . S
C714 C713 1.434 . S
C715 C716 1.369 . S
C715 C717 1.419 . S
C715 H719 0.930 . S
C716 C715 1.369 . S
C716 C725 1.429 . S
C717 C715 1.419 . S
C717 C718 1.363 . S
C717 H720 0.929 . S
C718 C717 1.363 . S
C718 C724 1.428 . S
H719 C715 0.930 . S
H720 C717 0.929 . S
S721 N722 1.613 . S
S721 N723 1.610 . S
N722 S721 1.613 . S
N722 C725 1.350 . S
N723 S721 1.610 . S
N723 C724 1.351 . S
C724 C718 1.428 . S
C724 N723 1.351 . S
C724 C725 1.434 . S
C725 C716 1.429 . S
C725 N722 1.350 . S
C725 C724 1.434 . S
C726 C727 1.369 . S
C726 C728 1.419 . S
C726 H730 0.930 . S
C727 C726 1.369 . S
C727 C736 1.429 . S
C728 C726 1.419 . S
C728 C729 1.363 . S
C728 H731 0.929 . S
C729 C728 1.363 . S
C729 C735 1.428 . S
H730 C726 0.930 . S
H731 C728 0.929 . S
S732 N733 1.613 . S
S732 N734 1.610 . S
N733 S732 1.613 . S
N733 C736 1.350 . S
N734 S732 1.610 . S
N734 C735 1.351 . S
C735 C729 1.428 . S
C735 N734 1.351 . S
C735 C736 1.434 . S
C736 C727 1.429 . S
C736 N733 1.350 . S
C736 C735 1.434 . S
C737 C738 1.369 . S
C737 C739 1.419 . S
C737 H741 0.930 . S
C738 C737 1.369 . S
C738 C747 1.429 . S
C739 C737 1.419 . S
C739 C740 1.363 . S
C739 H742 0.929 . S
C740 C739 1.363 . S
C740 C746 1.428 . S
H741 C737 0.930 . S
H742 C739 0.929 . S
S743 N744 1.613 . S
S743 N745 1.610 . S
N744 S743 1.613 . S
N744 C747 1.350 . S
N745 S743 1.610 . S
N745 C746 1.351 . S
C746 C740 1.428 . S
C746 N745 1.351 . S
C746 C747 1.434 . S
C747 C738 1.429 . S
C747 N744 1.350 . S
C747 C746 1.434 . S
C748 C749 1.369 . S
C748 C750 1.419 . S
C748 H752 0.930 . S
C749 C748 1.369 . S
C749 C758 1.429 . S
C750 C748 1.419 . S
C750 C751 1.363 . S
C750 H753 0.929 . S
C751 C750 1.363 . S
C751 C757 1.428 . S
H752 C748 0.930 . S
H753 C750 0.929 . S
S754 N755 1.613 . S
S754 N756 1.610 . S
N755 S754 1.613 . S
N755 C758 1.350 . S
N756 S754 1.610 . S
N756 C757 1.351 . S
C757 C751 1.428 . S
C757 N756 1.351 . S
C757 C758 1.434 . S
C758 C749 1.429 . S
C758 N755 1.350 . S
C758 C757 1.434 . S
C759 C760 1.369 . S
C759 C761 1.419 . S
C759 H763 0.930 . S
C760 C759 1.369 . S
C760 C769 1.429 . S
C761 C759 1.419 . S
C761 C762 1.363 . S
C761 H764 0.929 . S
C762 C761 1.363 . S
C762 C768 1.428 . S
H763 C759 0.930 . S
H764 C761 0.929 . S
S765 N766 1.613 . S
S765 N767 1.610 . S
N766 S765 1.613 . S
N766 C769 1.350 . S
N767 S765 1.610 . S
N767 C768 1.351 . S
C768 C762 1.428 . S
C768 N767 1.351 . S
C768 C769 1.434 . S
C769 C760 1.429 . S
C769 N766 1.350 . S
C769 C768 1.434 . S
C770 C771 1.369 . S
C770 C772 1.419 . S
C770 H774 0.930 . S
C771 C770 1.369 . S
C771 C780 1.429 . S
C772 C770 1.419 . S
C772 C773 1.363 . S
C772 H775 0.929 . S
C773 C772 1.363 . S
C773 C779 1.428 . S
H774 C770 0.930 . S
H775 C772 0.929 . S
S776 N777 1.613 . S
S776 N778 1.610 . S
N777 S776 1.613 . S
N777 C780 1.350 . S
N778 S776 1.610 . S
N778 C779 1.351 . S
C779 C773 1.428 . S
C779 N778 1.351 . S
C779 C780 1.434 . S
C780 C771 1.429 . S
C780 N777 1.350 . S
C780 C779 1.434 . S
C781 C782 1.369 . S
C781 C783 1.419 . S
C781 H785 0.930 . S
C782 C781 1.369 . S
C782 C791 1.429 . S
C783 C781 1.419 . S
C783 C784 1.363 . S
C783 H786 0.929 . S
C784 C783 1.363 . S
C784 C790 1.428 . S
H785 C781 0.930 . S
H786 C783 0.929 . S
S787 N788 1.613 . S
S787 N789 1.610 . S
N788 S787 1.613 . S
N788 C791 1.350 . S
N789 S787 1.610 . S
N789 C790 1.351 . S
C790 C784 1.428 . S
C790 N789 1.351 . S
C790 C791 1.434 . S
C791 C782 1.429 . S
C791 N788 1.350 . S
C791 C790 1.434 . S
C792 C793 1.369 . S
C792 C794 1.419 . S
C792 H796 0.930 . S
C793 C792 1.369 . S
C793 C802 1.429 . S
C794 C792 1.419 . S
C794 C795 1.363 . S
C794 H797 0.929 . S
C795 C794 1.363 . S
C795 C801 1.428 . S
H796 C792 0.930 . S
H797 C794 0.929 . S
S798 N799 1.613 . S
S798 N800 1.610 . S
N799 S798 1.613 . S
N799 C802 1.350 . S
N800 S798 1.610 . S
N800 C801 1.351 . S
C801 C795 1.428 . S
C801 N800 1.351 . S
C801 C802 1.434 . S
C802 C793 1.429 . S
C802 N799 1.350 . S
C802 C801 1.434 . S
C803 C804 1.369 . S
C803 C805 1.419 . S
C803 H807 0.930 . S
C804 C803 1.369 . S
C804 C813 1.429 . S
C805 C803 1.419 . S
C805 C806 1.363 . S
C805 H808 0.929 . S
C806 C805 1.363 . S
C806 C812 1.428 . S
H807 C803 0.930 . S
H808 C805 0.929 . S
S809 N810 1.613 . S
S809 N811 1.610 . S
N810 S809 1.613 . S
N810 C813 1.350 . S
N811 S809 1.610 . S
N811 C812 1.351 . S
C812 C806 1.428 . S
C812 N811 1.351 . S
C812 C813 1.434 . S
C813 C804 1.429 . S
C813 N810 1.350 . S
C813 C812 1.434 . S
C814 C815 1.369 . S
C814 C816 1.419 . S
C814 H818 0.930 . S
C815 C814 1.369 . S
C815 C824 1.429 . S
C816 C814 1.419 . S
C816 C817 1.363 . S
C816 H819 0.929 . S
C817 C816 1.363 . S
C817 C823 1.428 . S
H818 C814 0.930 . S
H819 C816 0.929 . S
S820 N821 1.613 . S
S820 N822 1.610 . S
N821 S820 1.613 . S
N821 C824 1.350 . S
N822 S820 1.610 . S
N822 C823 1.351 . S
C823 C817 1.428 . S
C823 N822 1.351 . S
C823 C824 1.434 . S
C824 C815 1.429 . S
C824 N821 1.350 . S
C824 C823 1.434 . S
C825 C826 1.369 . S
C825 C827 1.419 . S
C825 H829 0.930 . S
C826 C825 1.369 . S
C826 C835 1.429 . S
C827 C825 1.419 . S
C827 C828 1.363 . S
C827 H830 0.929 . S
C828 C827 1.363 . S
C828 C834 1.428 . S
H829 C825 0.930 . S
H830 C827 0.929 . S
S831 N832 1.613 . S
S831 N833 1.610 . S
N832 S831 1.613 . S
N832 C835 1.350 . S
N833 S831 1.610 . S
N833 C834 1.351 . S
C834 C828 1.428 . S
C834 N833 1.351 . S
C834 C835 1.434 . S
C835 C826 1.429 . S
C835 N832 1.350 . S
C835 C834 1.434 . S
C836 C837 1.369 . S
C836 C838 1.419 . S
C836 H840 0.930 . S
C837 C836 1.369 . S
C837 C846 1.429 . S
C838 C836 1.419 . S
C838 C839 1.363 . S
C838 H841 0.929 . S
C839 C838 1.363 . S
C839 C845 1.428 . S
H840 C836 0.930 . S
H841 C838 0.929 . S
S842 N843 1.613 . S
S842 N844 1.610 . S
N843 S842 1.613 . S
N843 C846 1.350 . S
N844 S842 1.610 . S
N844 C845 1.351 . S
C845 C839 1.428 . S
C845 N844 1.351 . S
C845 C846 1.434 . S
C846 C837 1.429 . S
C846 N843 1.350 . S
C846 C845 1.434 . S
C847 C848 1.369 . S
C847 C849 1.419 . S
C847 H851 0.930 . S
C848 C847 1.369 . S
C848 C857 1.429 . S
C849 C847 1.419 . S
C849 C850 1.363 . S
C849 H852 0.929 . S
C850 C849 1.363 . S
C850 C856 1.428 . S
H851 C847 0.930 . S
H852 C849 0.929 . S
S853 N854 1.613 . S
S853 N855 1.610 . S
N854 S853 1.613 . S
N854 C857 1.350 . S
N855 S853 1.610 . S
N855 C856 1.351 . S
C856 C850 1.428 . S
C856 N855 1.351 . S
C856 C857 1.434 . S
C857 C848 1.429 . S
C857 N854 1.350 . S
C857 C856 1.434 . S
C858 C859 1.369 . S
C858 C860 1.419 . S
C858 H862 0.930 . S
C859 C858 1.369 . S
C859 C868 1.429 . S
C860 C858 1.419 . S
C860 C861 1.363 . S
C860 H863 0.929 . S
C861 C860 1.363 . S
C861 C867 1.428 . S
H862 C858 0.930 . S
H863 C860 0.929 . S
S864 N865 1.613 . S
S864 N866 1.610 . S
N865 S864 1.613 . S
N865 C868 1.350 . S
N866 S864 1.610 . S
N866 C867 1.351 . S
C867 C861 1.428 . S
C867 N866 1.351 . S
C867 C868 1.434 . S
C868 C859 1.429 . S
C868 N865 1.350 . S
C868 C867 1.434 . S
C869 C870 1.369 . S
C869 C871 1.419 . S
C869 H873 0.930 . S
C870 C869 1.369 . S
C870 C879 1.429 . S
C871 C869 1.419 . S
C871 C872 1.363 . S
C871 H874 0.929 . S
C872 C871 1.363 . S
C872 C878 1.428 . S
H873 C869 0.930 . S
H874 C871 0.929 . S
S875 N876 1.613 . S
S875 N877 1.610 . S
N876 S875 1.613 . S
N876 C879 1.350 . S
N877 S875 1.610 . S
N877 C878 1.351 . S
C878 C872 1.428 . S
C878 N877 1.351 . S
C878 C879 1.434 . S
C879 C870 1.429 . S
C879 N876 1.350 . S
C879 C878 1.434 . S
C880 C881 1.369 . S
C880 C882 1.419 . S
C880 H884 0.930 . S
C881 C880 1.369 . S
C881 C890 1.429 1_545 S
C882 C880 1.419 . S
C882 C883 1.363 1_545 S
C882 H885 0.929 . S
C883 C882 1.363 1_565 S
C883 C889 1.428 . S
H884 C880 0.930 . S
H885 C882 0.929 . S
S886 N887 1.613 . S
S886 N888 1.610 . S
N887 S886 1.613 . S
N887 C890 1.350 . S
N888 S886 1.610 . S
N888 C889 1.351 . S
C889 C883 1.428 . S
C889 N888 1.351 . S
C889 C890 1.434 . S
C890 C881 1.429 1_565 S
C890 N887 1.350 . S
C890 C889 1.434 . S
C891 C892 1.369 . S
C891 C893 1.419 . S
C891 H895 0.930 . S
C892 C891 1.369 . S
C892 C901 1.429 1_556 S
C893 C891 1.419 . S
C893 C894 1.363 . S
C893 H896 0.929 . S
C894 C893 1.363 . S
C894 C900 1.420 1_556 S
H895 C891 0.930 . S
H896 C893 0.929 . S
S897 N898 1.613 . S
S897 N899 1.610 . S
N898 S897 1.613 . S
N898 C901 1.350 . S
N899 S897 1.610 . S
N899 C900 1.359 . S
C900 C894 1.420 1_554 S
C900 N899 1.359 . S
C900 C901 1.436 . S
C901 C892 1.429 1_554 S
C901 N898 1.350 . S
C901 C900 1.436 . S
C902 C903 1.369 . S
C902 C904 1.419 . S
C902 H906 0.930 . S
C903 C902 1.369 . S
C903 C912 1.429 . S
C904 C902 1.419 . S
C904 C905 1.363 . S
C904 H907 0.929 . S
C905 C904 1.363 . S
C905 C911 1.428 . S
H906 C902 0.930 . S
H907 C904 0.929 . S
S908 N909 1.613 . S
S908 N910 1.610 . S
N909 S908 1.613 . S
N909 C912 1.350 . S
N910 S908 1.610 . S
N910 C911 1.351 . S
C911 C905 1.428 . S
C911 N910 1.351 . S
C911 C912 1.434 . S
C912 C903 1.429 . S
C912 N909 1.350 . S
C912 C911 1.434 . S
C913 C914 1.369 1_455 S
C913 C915 1.419 . S
C913 H917 0.930 . S
C914 C913 1.369 1_655 S
C914 C923 1.429 1_556 S
C915 C913 1.419 . S
C915 C916 1.363 . S
C915 H918 0.929 . S
C916 C915 1.363 . S
C916 C922 1.428 1_556 S
H917 C913 0.930 . S
H918 C915 0.929 . S
S919 N920 1.613 . S
S919 N921 1.598 1_655 S
N920 S919 1.613 . S
N920 C923 1.350 . S
N921 S919 1.598 1_455 S
N921 C922 1.349 . S
C922 C916 1.428 1_554 S
C922 N921 1.349 . S
C922 C923 1.434 1_455 S
C923 C914 1.429 1_554 S
C923 N920 1.350 . S
C923 C922 1.434 1_655 S
C924 C925 1.369 . S
C924 C926 1.419 . S
C924 H928 0.930 . S
C925 C924 1.369 . S
C925 C934 1.429 1_545 S
C926 C924 1.419 . S
C926 C927 1.363 1_545 S
C926 H929 0.929 . S
C927 C926 1.363 1_565 S
C927 C933 1.428 . S
H928 C924 0.930 . S
H929 C926 0.929 . S
S930 N931 1.613 . S
S930 N932 1.610 . S
N931 S930 1.613 . S
N931 C934 1.350 . S
N932 S930 1.610 . S
N932 C933 1.351 . S
C933 C927 1.428 . S
C933 N932 1.351 . S
C933 C934 1.434 . S
C934 C925 1.429 1_565 S
C934 N931 1.350 . S
C934 C933 1.434 . S
C935 C936 1.369 . S
C935 C937 1.419 . S
C935 H939 0.930 . S
C936 C935 1.369 . S
C936 C945 1.429 1_554 S
C937 C935 1.419 . S
C937 C938 1.363 . S
C937 H940 0.929 . S
C938 C937 1.363 . S
C938 C944 1.428 1_554 S
H939 C935 0.930 . S
H940 C937 0.929 . S
S941 N942 1.613 . S
S941 N943 1.610 . S
N942 S941 1.613 . S
N942 C945 1.350 . S
N943 S941 1.610 . S
N943 C944 1.351 . S
C944 C938 1.428 1_556 S
C944 N943 1.351 . S
C944 C945 1.434 . S
C945 C936 1.429 1_556 S
C945 N942 1.350 . S
C945 C944 1.434 . S
C946 C947 1.369 . S
C946 C948 1.419 . S
C946 H950 0.930 . S
C947 C946 1.369 . S
C947 C956 1.429 . S
C948 C946 1.419 . S
C948 C949 1.363 . S
C948 H951 0.929 . S
C949 C948 1.363 . S
C949 C955 1.428 . S
H950 C946 0.930 . S
H951 C948 0.929 . S
S952 N953 1.613 . S
S952 N954 1.610 . S
N953 S952 1.613 . S
N953 C956 1.350 . S
N954 S952 1.610 . S
N954 C955 1.351 . S
C955 C949 1.428 . S
C955 N954 1.351 . S
C955 C956 1.434 . S
C956 C947 1.429 . S
C956 N953 1.350 . S
C956 C955 1.434 . S
C957 C958 1.369 1_556 S
C957 C959 1.420 . S
C957 H961 0.930 . S
C958 C957 1.369 1_554 S
C958 C967 1.429 1_455 S
C959 C957 1.420 . S
C959 C960 1.354 1_456 S
C959 H962 0.938 . S
C960 C959 1.354 1_654 S
C960 C966 1.428 . S
H961 C957 0.930 . S
H962 C959 0.938 . S
S963 N964 1.613 . S
S963 N965 1.610 . S
N964 S963 1.613 . S
N964 C967 1.350 . S
N965 S963 1.610 . S
N965 C966 1.351 . S
C966 C960 1.428 . S
C966 N965 1.351 . S
C966 C967 1.434 . S
C967 C958 1.429 1_655 S
C967 N964 1.350 . S
C967 C966 1.434 . S
C529 C282 1.286 . S
C531 C18 1.298 . S
C540 C51 2.065 . S
C542 C315 2.060 . S
C551 C348 1.291 . S
C553 C84 1.294 . S
C562 C381 1.384 . S
C564 C117 1.402 . S
C573 C150 1.393 . S
C575 C414 1.394 . S
C584 C183 1.294 . S
C586 C447 1.291 . S
C595 C216 2.063 . S
C597 C480 2.060 . S
C606 C249 1.288 . S
C608 C513 1.295 . S
C617 C7 1.758 . S
C619 N508 1.860 . S
C628 C40 1.778 . S
C630 N409 1.872 . S
C639 C73 1.774 . S
C641 N442 1.870 . S
C650 N475 1.928 . S
C652 C106 1.828 . S
C661 C139 1.832 . S
C663 N310 1.929 . S
C672 C172 1.770 . S
C674 N343 1.871 . S
C683 N376 1.872 . S
C685 C205 1.778 . S
C694 C238 1.751 . S
C696 N277 1.858 . S
C705 N244 1.857 . S
C707 C271 1.753 . S
C716 N145 1.873 . S
C718 C304 1.781 . S
C727 N178 1.870 . S
C729 C337 1.773 . S
C738 C370 1.825 . S
C740 N211 1.931 . S
C749 N46 1.929 . S
C751 C403 1.825 . S
C760 C436 1.769 . S
C762 N79 1.871 . S
C771 N112 1.869 . S
C773 C469 1.785 . S
C782 N13 1.858 . S
C784 C502 1.751 . S
C793 N233 0.819 . S
C795 N2 0.804 . S
C804 N134 0.737 . S
C806 N35 0.743 . S
C815 N68 0.822 . S
C817 N167 0.818 . S
C826 N200 0.723 . S
C828 N101 0.740 . S
C837 N497 0.810 . S
C839 N266 0.823 . S
C848 N299 0.722 . S
C850 N398 0.740 . S
C859 N332 0.834 . S
C861 N431 0.822 . S
C870 N365 0.744 . S
C872 N464 0.731 . S
C881 C21 1.517 . S
C883 C417 1.436 . S
C892 C54 1.716 . S
C894 C450 1.923 . S
C903 C87 1.922 . S
C905 C483 1.716 . S
C914 C120 1.437 . S
C916 C516 1.514 . S
C925 C153 1.430 . S
C927 C285 1.516 . S
C936 C186 1.927 . S
C938 C318 1.708 . S
C947 C219 1.708 . S
C949 C351 1.926 . S
C958 C384 1.429 . S
C960 C252 1.515 . S
