# Generated by pormake.
# Topology fni, (5)-cn, num edge types: 1
# Building blocks:
#     Node 0, Type 0, BuildingBlock: XOMCOT_clean_sbu_0, # of connection points: 5
#     Node 1, Type 0, BuildingBlock: XOMCOT_clean_sbu_0, # of connection points: 5
#     Node 2, Type 0, BuildingBlock: XOMCOT_clean_sbu_0, # of connection points: 5
#     Node 3, Type 0, BuildingBlock: XOMCOT_clean_sbu_0, # of connection points: 5
#     Node 4, Type 0, BuildingBlock: XOMCOT_clean_sbu_0, # of connection points: 5
#     Node 5, Type 0, BuildingBlock: XOMCOT_clean_sbu_0, # of connection points: 5
#     Node 6, Type 0, BuildingBlock: XOMCOT_clean_sbu_0, # of connection points: 5
#     Node 7, Type 0, BuildingBlock: XOMCOT_clean_sbu_0, # of connection points: 5
#     Edge 8, Type (0, 0), BuildingBlock: XUDNAN_clean_linker_2, # of connection points: 2
#     Edge 9, Type (0, 0), BuildingBlock: XUDNAN_clean_linker_2, # of connection points: 2
#     Edge 10, Type (0, 0), BuildingBlock: XUDNAN_clean_linker_2, # of connection points: 2
#     Edge 11, Type (0, 0), BuildingBlock: XUDNAN_clean_linker_2, # of connection points: 2
#     Edge 12, Type (0, 0), BuildingBlock: XUDNAN_clean_linker_2, # of connection points: 2
#     Edge 13, Type (0, 0), BuildingBlock: XUDNAN_clean_linker_2, # of connection points: 2
#     Edge 14, Type (0, 0), BuildingBlock: XUDNAN_clean_linker_2, # of connection points: 2
#     Edge 15, Type (0, 0), BuildingBlock: XUDNAN_clean_linker_2, # of connection points: 2
#     Edge 16, Type (0, 0), BuildingBlock: XUDNAN_clean_linker_2, # of connection points: 2
#     Edge 17, Type (0, 0), BuildingBlock: XUDNAN_clean_linker_2, # of connection points: 2
#     Edge 18, Type (0, 0), BuildingBlock: XUDNAN_clean_linker_2, # of connection points: 2
#     Edge 19, Type (0, 0), BuildingBlock: XUDNAN_clean_linker_2, # of connection points: 2
#     Edge 20, Type (0, 0), BuildingBlock: XUDNAN_clean_linker_2, # of connection points: 2
#     Edge 21, Type (0, 0), BuildingBlock: XUDNAN_clean_linker_2, # of connection points: 2
#     Edge 22, Type (0, 0), BuildingBlock: XUDNAN_clean_linker_2, # of connection points: 2
#     Edge 23, Type (0, 0), BuildingBlock: XUDNAN_clean_linker_2, # of connection points: 2
#     Edge 24, Type (0, 0), BuildingBlock: XUDNAN_clean_linker_2, # of connection points: 2
#     Edge 25, Type (0, 0), BuildingBlock: XUDNAN_clean_linker_2, # of connection points: 2
#     Edge 26, Type (0, 0), BuildingBlock: XUDNAN_clean_linker_2, # of connection points: 2
#     Edge 27, Type (0, 0), BuildingBlock: XUDNAN_clean_linker_2, # of connection points: 2
# Relax obj value: 0.071
# Max RMSD: 0.155
# Mean RMSD: 0.154
data_MOF--net-fni--node1-XOMCOT_clean_sbu_0--edge1-XUDNAN_clean_linker_2
_symmetry_space_group_name_H-M    P1
_symmetry_Int_Tables_number       1
_symmetry_cell_setting            triclinic
loop_
_symmetry_equiv_pos_as_xyz
'x, y, z'
_cell_length_a     53.998273
_cell_length_b     54.422467
_cell_length_c     17.582292
_cell_angle_alpha  89.672932
_cell_angle_beta   90.31452
_cell_angle_gamma 90.118559
loop_
_atom_site_label
_atom_site_type_symbol
_atom_site_fract_x
_atom_site_fract_y
_atom_site_fract_z
_atom_type_partial_charge
Co0 Co 0.39788 0.36816 0.02917 0.0
C1 C 0.40682 0.37695 0.19451 0.0
C2 C 0.37108 0.38969 0.15783 0.0
C3 C 0.37303 0.39303 0.23481 0.0
N4 N 0.39221 0.37956 0.13215 0.0
N5 N 0.39535 0.38484 0.25808 0.0
H6 H 0.42484 0.36831 0.19419 0.0
H7 H 0.35481 0.3937 0.12413 0.0
C8 C 0.35909 0.3942 0.93252 0.0
O9 O 0.37443 0.39649 0.8755 0.0
N10 N 0.40291 0.35599 0.92581 0.0
C11 C 0.39123 0.33603 0.89745 0.0
C12 C 0.39578 0.33436 0.82123 0.0
C13 C 0.4148 0.36604 0.86522 0.0
N14 N 0.41032 0.35331 0.80073 0.0
C15 C 0.44267 0.39519 1.0015 0.0
C16 C 0.42273 0.44101 0.0294 0.0
C17 C 0.44846 0.43882 0.02223 0.0
C18 C 0.45837 0.4157 1.00565 0.0
C19 C 0.40767 0.42019 0.02338 0.0
N20 N 0.41768 0.39754 1.01088 0.0
H21 H 0.45067 0.37721 0.9936 0.0
H22 H 0.38814 0.42216 0.03434 0.0
H23 H 0.37871 0.32417 0.92833 0.0
H24 H 0.42409 0.38363 0.86578 0.0
O25 O 0.42367 0.34594 0.06487 0.0
O26 O 0.38374 0.33687 0.05804 0.0
O27 O 0.36596 0.38454 0.99556 0.0
C28 C 0.40613 0.32973 0.07413 0.0
H29 H 0.35875 0.40028 0.27132 0.0
H30 H 0.38751 0.32124 0.78253 0.0
H31 H 0.41441 0.45854 0.04287 0.0
H32 H 0.47819 0.41323 1.00076 0.0
Co33 Co 0.64742 0.90186 0.23042 0.0
C34 C 0.63911 0.89919 0.39775 0.0
C35 C 0.65459 0.86584 0.35534 0.0
C36 C 0.65279 0.86398 0.43352 0.0
N37 N 0.64565 0.88785 0.33268 0.0
N38 N 0.643 0.88501 0.46012 0.0
H39 H 0.63283 0.9179 0.4005 0.0
H40 H 0.66232 0.85224 0.3177 0.0
C41 C 0.61459 0.85652 0.21391 0.0
O42 O 0.60638 0.85846 0.28377 0.0
N43 N 0.64963 0.91619 0.12946 0.0
C44 C 0.65078 0.94046 0.11442 0.0
C45 C 0.64879 0.94404 0.03717 0.0
C46 C 0.64743 0.90525 0.06077 0.0
N47 N 0.64663 0.92194 1.00352 0.0
C48 C 0.62035 0.94334 0.28392 0.0
C49 C 0.57401 0.9305 0.23011 0.0
C50 C 0.57663 0.95232 0.27174 0.0
C51 C 0.60032 0.95874 0.29747 0.0
C52 C 0.59472 0.9154 0.21791 0.0
N53 N 0.61747 0.92145 0.24716 0.0
H54 H 0.63827 0.94908 0.30447 0.0
H55 H 0.59225 0.89919 0.18389 0.0
H56 H 0.65202 0.95469 0.15692 0.0
H57 H 0.64535 0.8857 0.05284 0.0
O58 O 0.67228 0.92489 0.26645 0.0
O59 O 0.68028 0.88807 0.22009 0.0
O60 O 0.62886 0.87296 0.18574 0.0
C61 C 0.68861 0.90836 0.24934 0.0
H62 H 0.65848 0.84842 0.46793 0.0
H63 H 0.64829 0.96161 1.00799 0.0
H64 H 0.55612 0.92501 0.20778 0.0
H65 H 0.60353 0.97579 0.32748 0.0
Co66 Co 0.11135 0.14722 0.49717 0.0
C67 C 0.10618 0.13504 0.66138 0.0
C68 C 0.14405 0.13475 0.62431 0.0
C69 C 0.14372 0.13145 0.70179 0.0
N70 N 0.12057 0.13704 0.59897 0.0
N71 N 0.11997 0.13167 0.72494 0.0
H72 H 0.08631 0.13761 0.66098 0.0
H73 H 0.1604 0.13677 0.58961 0.0
C74 C 0.14651 0.1124 0.41424 0.0
O75 O 0.12849 0.0985 0.38852 0.0
N76 N 0.10305 0.15811 0.3937 0.0
C77 C 0.10489 0.18138 0.36667 0.0
C78 C 0.10169 0.18135 0.28931 0.0
C79 C 0.09844 0.14432 0.33116 0.0
N80 N 0.09777 0.15809 0.26698 0.0
C81 C 0.06614 0.12222 0.46732 0.0
C82 C 0.08033 0.07646 0.52111 0.0
C83 C 0.05546 0.08045 0.50161 0.0
C84 C 0.04849 0.10356 0.47366 0.0
C85 C 0.09737 0.09584 0.51531 0.0
N86 N 0.09024 0.11832 0.48782 0.0
H87 H 0.06022 0.14028 0.44902 0.0
H88 H 0.11613 0.09302 0.53522 0.0
H89 H 0.10951 0.19747 0.39936 0.0
H90 H 0.09662 0.12458 0.3316 0.0
O91 O 0.08682 0.16929 0.53839 0.0
O92 O 0.12623 0.17882 0.51869 0.0
O93 O 0.14214 0.13088 0.45652 0.0
C94 C 0.1045 0.1855 0.5429 0.0
H95 H 0.15974 0.13006 0.73885 0.0
H96 H 0.1031 0.19714 0.25181 0.0
H97 H 0.08624 0.05895 0.54441 0.0
H98 H 0.02936 0.10738 0.45895 0.0
Co99 Co 0.87902 0.62012 0.78823 0.0
C100 C 0.88702 0.61513 0.61976 0.0
C101 C 0.86186 0.58813 0.66413 0.0
C102 C 0.86483 0.58394 0.5878 0.0
N103 N 0.87589 0.60756 0.68488 0.0
N104 N 0.88054 0.60093 0.56 0.0
H105 H 0.89992 0.6303 0.61583 0.0
H106 H 0.85017 0.5775 0.70156 0.0
C107 C 0.83569 0.59828 0.87475 0.0
O108 O 0.84948 0.59523 0.93573 0.0
N109 N 0.88172 0.63273 0.89191 0.0
C110 C 0.86798 0.65114 0.92045 0.0
C111 C 0.87169 0.65232 0.99786 0.0
C112 C 0.89386 0.62318 0.95292 0.0
N113 N 0.88775 0.63453 0.01863 0.0
C114 C 0.92275 0.5922 0.81815 0.0
C115 C 0.90093 0.54653 0.83319 0.0
C116 C 0.9269 0.54813 0.83437 0.0
C117 C 0.93767 0.57149 0.82767 0.0
C118 C 0.8866 0.56778 0.82329 0.0
N119 N 0.8975 0.59036 0.81559 0.0
H120 H 0.93173 0.6098 0.81227 0.0
H121 H 0.86683 0.56564 0.81933 0.0
H122 H 0.85479 0.66198 0.88827 0.0
H123 H 0.90563 0.60725 0.9505 0.0
O124 O 0.90648 0.64106 0.75835 0.0
O125 O 0.86707 0.65182 0.75336 0.0
O126 O 0.84529 0.60583 0.81248 0.0
C127 C 0.89009 0.6578 0.7424 0.0
H128 H 0.85593 0.56964 0.55487 0.0
H129 H 0.86179 0.66418 0.03634 0.0
H130 H 0.89167 0.52895 0.83864 0.0
H131 H 0.95759 0.57381 0.82689 0.0
Co132 Co 0.36352 0.11707 0.25505 0.0
C133 C 0.37143 0.11544 0.42103 0.0
C134 C 0.37045 0.15259 0.37952 0.0
C135 C 0.37364 0.15301 0.45732 0.0
N136 N 0.36922 0.12901 0.35702 0.0
N137 N 0.37424 0.12962 0.48347 0.0
H138 H 0.37043 0.09559 0.42161 0.0
H139 H 0.36884 0.16839 0.34227 0.0
C140 C 0.40106 0.15231 0.18155 0.0
O141 O 0.41604 0.13456 0.16132 0.0
N142 N 0.35694 0.10506 0.15179 0.0
C143 C 0.34272 0.08536 0.13396 0.0
C144 C 0.34379 0.08123 0.05723 0.0
C145 C 0.36572 0.11311 0.08391 0.0
N146 N 0.35822 0.09864 0.02601 0.0
C147 C 0.39351 0.07373 0.23979 0.0
C148 C 0.43609 0.09243 0.30538 0.0
C149 C 0.43599 0.06791 0.28097 0.0
C150 C 0.41432 0.05867 0.24761 0.0
C151 C 0.41493 0.10699 0.29565 0.0
N152 N 0.39406 0.09779 0.26158 0.0
H153 H 0.37669 0.06562 0.21844 0.0
H154 H 0.41534 0.12573 0.31562 0.0
H155 H 0.33287 0.07387 0.17391 0.0
H156 H 0.37766 0.12875 0.07602 0.0
O157 O 0.34068 0.09295 0.29609 0.0
O158 O 0.33051 0.13059 0.25839 0.0
O159 O 0.38053 0.14755 0.21438 0.0
C160 C 0.32358 0.10961 0.28716 0.0
H161 H 0.37537 0.16935 0.4917 0.0
H162 H 0.33493 0.06636 0.02668 0.0
H163 H 0.45238 0.10033 0.33192 0.0
H164 H 0.41309 0.03964 0.2303 0.0
Co165 Co 0.89497 0.86488 0.50092 0.0
C166 C 0.89404 0.86581 0.66872 0.0
C167 C 0.85839 0.8751 0.62283 0.0
C168 C 0.85672 0.87404 0.70127 0.0
N169 N 0.88186 0.8699 0.60254 0.0
N170 N 0.87912 0.86792 0.72975 0.0
H171 H 0.91333 0.86056 0.67223 0.0
H172 H 0.84324 0.87838 0.58366 0.0
C173 C 0.86301 0.89895 0.406 0.0
O174 O 0.88277 0.9096 0.37753 0.0
N175 N 0.90833 0.85908 0.39911 0.0
C176 C 0.9316 0.85156 0.38385 0.0
C177 C 0.93372 0.847 0.30762 0.0
C178 C 0.89637 0.85799 0.33095 0.0
N179 N 0.91164 0.85106 0.27414 0.0
C180 C 0.93884 0.89512 0.50989 0.0
C181 C 0.91494 0.93907 0.53538 0.0
C182 C 0.94088 0.9392 0.52902 0.0
C183 C 0.95278 0.91665 0.51752 0.0
C184 C 0.90176 0.91702 0.52823 0.0
N185 N 0.91358 0.89557 0.51117 0.0
H186 H 0.94858 0.878 0.50549 0.0
H187 H 0.88195 0.91728 0.53617 0.0
H188 H 0.94597 0.84812 0.42531 0.0
H189 H 0.87673 0.86089 0.32317 0.0
O190 O 0.919 0.84209 0.5432 0.0
O191 O 0.88154 0.83197 0.50173 0.0
O192 O 0.86502 0.88172 0.45531 0.0
C193 C 0.90232 0.8251 0.53295 0.0
H194 H 0.84002 0.87614 0.73439 0.0
H195 H 0.95025 0.8407 0.27916 0.0
H196 H 0.90474 0.95583 0.54533 0.0
H197 H 0.97278 0.91545 0.5163 0.0
Co198 Co 0.14212 0.39145 0.79591 0.0
C199 C 0.14402 0.38723 0.96567 0.0
C200 C 0.1428 0.35218 0.91011 0.0
C201 C 0.14551 0.34829 0.9869 0.0
N202 N 0.14185 0.37653 0.89648 0.0
N203 N 0.14647 0.37026 0.02196 0.0
H204 H 0.14509 0.40688 0.9742 0.0
H205 H 0.1426 0.33808 0.86705 0.0
C206 C 0.1091 0.3579 0.70407 0.0
O207 O 0.09726 0.37696 0.6757 0.0
N208 N 0.14309 0.4055 0.6933 0.0
C209 C 0.13937 0.42876 0.66856 0.0
C210 C 0.14204 0.42954 0.59056 0.0
C211 C 0.14891 0.39281 0.6299 0.0
N212 N 0.14798 0.40688 0.56623 0.0
C213 C 0.10915 0.43168 0.82551 0.0
C214 C 0.06644 0.40427 0.84186 0.0
C215 C 0.06455 0.43001 0.8404 0.0
C216 C 0.08652 0.4437 0.83475 0.0
C217 C 0.08953 0.39304 0.83225 0.0
N218 N 0.11022 0.40677 0.8179 0.0
H219 H 0.12584 0.44256 0.82372 0.0
H220 H 0.09062 0.37326 0.83576 0.0
H221 H 0.13555 0.44444 0.70348 0.0
H222 H 0.15335 0.37344 0.63043 0.0
O223 O 0.16411 0.41688 0.8333 0.0
O224 O 0.17619 0.38147 0.78421 0.0
O225 O 0.12636 0.36078 0.75319 0.0
C226 C 0.18219 0.40224 0.81557 0.0
H227 H 0.14726 0.33058 1.01469 0.0
H228 H 0.14027 0.4457 0.55481 0.0
H229 H 0.05023 0.39285 0.85026 0.0
H230 H 0.08631 0.46358 0.8353 0.0
Co231 Co 0.6185 0.64686 0.02067 0.0
C232 C 0.62344 0.64221 0.1917 0.0
C233 C 0.656 0.65604 0.13644 0.0
C234 C 0.66065 0.65472 0.21314 0.0
N235 N 0.63286 0.64779 0.12239 0.0
N236 N 0.64022 0.64605 0.2478 0.0
H237 H 0.60504 0.63522 0.20169 0.0
H238 H 0.66878 0.66234 0.09335 0.0
C239 C 0.662 0.61203 0.01727 0.0
O240 O 0.65686 0.60433 0.08635 0.0
N241 N 0.60515 0.64656 0.91849 0.0
C242 C 0.58136 0.6449 0.89563 0.0
C243 C 0.58082 0.64328 0.81712 0.0
C244 C 0.61864 0.64617 0.85431 0.0
N245 N 0.60435 0.64388 0.79143 0.0
C246 C 0.57818 0.61982 0.0858 0.0
C247 C 0.58763 0.57536 0.0168 0.0
C248 C 0.56631 0.57747 0.06167 0.0
C249 C 0.56174 0.60023 0.09606 0.0
C250 C 0.60349 0.59556 1.00729 0.0
N251 N 0.5991 0.61733 0.04334 0.0
H252 H 0.57362 0.63731 0.11068 0.0
H253 H 0.61868 0.59377 0.96823 0.0
H254 H 0.56562 0.64422 0.93333 0.0
H255 H 0.63863 0.64735 0.85388 0.0
O256 O 0.59495 0.67201 0.05049 0.0
O257 O 0.63199 0.67919 1.00144 0.0
O258 O 0.64791 0.62749 0.98337 0.0
C259 C 0.61155 0.68791 0.02892 0.0
H260 H 0.67772 0.65989 0.24145 0.0
H261 H 0.56446 0.64092 0.78209 0.0
H262 H 0.59199 0.55834 0.98831 0.0
H263 H 0.54514 0.60331 0.12884 0.0
H264 H 0.55332 0.54143 0.95715 0.0
H265 H 0.5387 0.56566 0.18773 0.0
H266 H 0.5072 0.53326 0.20113 0.0
H267 H 0.49169 0.52564 0.90621 0.0
H268 H 0.4999 0.49851 0.85379 0.0
H269 H 0.52155 0.5236 0.86138 0.0
H270 H 0.55462 0.49411 0.91734 0.0
H271 H 0.53312 0.46887 0.90942 0.0
H272 H 0.54729 0.47576 0.99992 0.0
H273 H 0.47568 0.49986 0.18802 0.0
H274 H 0.44849 0.46514 0.15267 0.0
H275 H 0.48531 0.45993 0.93483 0.0
C276 C 0.54386 0.53976 1.01103 0.0
C277 C 0.54847 0.55655 0.071 0.0
C278 C 0.53524 0.55362 0.14003 0.0
C279 C 0.51737 0.53509 0.14854 0.0
C280 C 0.51307 0.51922 0.08804 0.0
C281 C 0.52615 0.52108 0.021 0.0
C282 C 0.51801 0.5014 0.96515 0.0
C283 C 0.50714 0.51299 0.89233 0.0
C284 C 0.53954 0.484 0.9469 0.0
C285 C 0.49813 0.48838 1.0111 0.0
C286 C 0.4955 0.49915 0.08163 0.0
C287 C 0.47772 0.49113 0.13326 0.0
C288 C 0.46229 0.47151 0.11257 0.0
C289 C 0.46484 0.45989 0.04119 0.0
C290 C 0.48312 0.46839 0.98998 0.0
H291 H 0.45667 0.0348 0.18156 0.0
H292 H 0.46448 0.06403 0.4096 0.0
H293 H 0.49993 0.03637 0.43306 0.0
H294 H 0.4722 0.97174 0.22802 0.0
H295 H 0.48927 0.96674 0.14169 0.0
H296 H 0.46417 0.98851 0.1427 0.0
H297 H 0.4936 0.02264 0.09341 0.0
H298 H 0.51873 1.00095 0.09178 0.0
H299 H 0.52186 0.02906 0.1447 0.0
H300 H 0.53413 0.00549 0.43263 0.0
H301 H 0.56685 0.97535 0.40582 0.0
H302 H 0.53799 0.96642 0.17665 0.0
C303 C 0.46578 0.03527 0.23656 0.0
C304 C 0.45779 0.05163 0.29379 0.0
C305 C 0.47042 0.0519 0.36463 0.0
C306 C 0.49045 0.03611 0.37869 0.0
C307 C 0.49777 0.02018 0.32126 0.0
C308 C 0.48597 0.01974 0.25138 0.0
C309 C 0.49811 1.00134 0.19873 0.0
C310 C 0.47984 0.98087 0.17649 0.0
C311 C 0.5087 0.01428 0.12798 0.0
C312 C 0.5186 0.99156 0.24993 0.0
C313 C 0.51789 1.00258 0.32051 0.0
C314 C 0.53495 0.99683 0.37744 0.0
C315 C 0.55355 0.97974 0.36147 0.0
C316 C 0.55521 0.96863 0.28887 0.0
C317 C 0.53716 0.9744 0.23285 0.0
H318 H 0.98385 0.95247 0.45412 0.0
H319 H 0.93133 0.97883 0.62122 0.0
H320 H 0.95484 0.01749 0.63138 0.0
H321 H 0.03836 0.97769 0.54617 0.0
H322 H 0.05342 0.98534 0.45788 0.0
H323 H 0.03213 0.95985 0.4621 0.0
H324 H 0.00641 0.97902 0.35212 0.0
H325 H 0.02759 1.0046 0.34763 0.0
H326 H 0.99498 0.00997 0.36106 0.0
H327 H 0.98327 0.05386 0.621 0.0
H328 H 0.01594 0.08468 0.59502 0.0
H329 H 0.0518 0.03389 0.44207 0.0
C330 C 0.97737 0.96619 0.4936 0.0
C331 C 0.95546 0.96248 0.53634 0.0
C332 C 0.94763 0.98125 0.58641 0.0
C333 C 0.96101 1.00327 0.59313 0.0
C334 C 0.98238 0.00628 0.55004 0.0
C335 C 0.99065 0.9882 0.50168 0.0
C336 C 0.01438 0.99601 0.46233 0.0
C337 C 0.03584 0.97869 0.48341 0.0
C338 C 0.0106 0.99749 0.37565 0.0
C339 C 0.01815 0.02132 0.49617 0.0
C340 C 0.99933 0.02694 0.54615 0.0
C341 C 0.99819 0.04959 0.58244 0.0
C342 C 0.01674 0.06698 0.56726 0.0
C343 C 0.03633 0.06153 0.51697 0.0
C344 C 0.03712 0.03835 0.48138 0.0
H345 H 0.05203 0.47362 0.91073 0.0
H346 H 0.02131 0.4152 0.77163 0.0
H347 H 0.98156 0.43732 0.76468 0.0
H348 H 0.995 0.4884 1.01388 0.0
H349 H 1.00134 0.52093 1.01289 0.0
H350 H 0.02655 0.49928 1.01372 0.0
H351 H 0.0443 0.51954 0.89188 0.0
H352 H 0.01915 0.54118 0.89057 0.0
H353 H 0.02489 0.52237 0.80853 0.0
H354 H 0.94627 0.46759 0.76294 0.0
H355 H 0.91843 0.5034 0.76678 0.0
H356 H 0.97193 0.54209 0.9076 0.0
C357 C 0.03694 0.46534 0.87913 0.0
C358 C 0.03993 0.4425 0.84202 0.0
C359 C 0.0195 0.43238 0.80184 0.0
C360 C 0.99682 0.4449 0.79716 0.0
C361 C 0.99471 0.46753 0.8332 0.0
C362 C 0.01419 0.47761 0.87375 0.0
C363 C 0.00754 0.50279 0.90385 0.0
C364 C 0.00761 0.50284 0.99128 0.0
C365 C 0.02501 0.52264 0.87177 0.0
C366 C 0.98151 0.50557 0.87228 0.0
C367 C 0.97436 0.48494 0.83229 0.0
C368 C 0.95154 0.48369 0.79508 0.0
C369 C 0.93574 0.50413 0.79804 0.0
C370 C 0.94279 0.52568 0.83781 0.0
C371 C 0.96592 0.52607 0.87626 0.0
H372 H 0.36622 0.3742 0.37792 0.0
H373 H 0.44233 0.3885 0.31459 0.0
H374 H 0.45508 0.38419 0.45021 0.0
H375 H 0.36665 0.40639 0.55634 0.0
H376 H 0.34705 0.38401 0.60227 0.0
H377 H 0.34438 0.3892 0.50131 0.0
H378 H 0.35182 0.34284 0.47698 0.0
H379 H 0.35442 0.33751 0.57778 0.0
H380 H 0.37914 0.32834 0.51569 0.0
H381 H 0.45869 0.37839 0.5965 0.0
H382 H 0.45317 0.36804 0.73377 0.0
H383 H 0.37479 0.35706 0.69437 0.0
C384 C 0.38553 0.37681 0.39251 0.0
C385 C 0.40326 0.38204 0.33604 0.0
C386 C 0.42848 0.38451 0.35723 0.0
C387 C 0.43581 0.38224 0.43402 0.0
C388 C 0.41768 0.37731 0.48847 0.0
C389 C 0.39308 0.37443 0.46809 0.0
C390 C 0.37713 0.36807 0.53566 0.0
C391 C 0.35766 0.38812 0.54971 0.0
C392 C 0.36493 0.34268 0.52592 0.0
C393 C 0.39653 0.3677 0.59769 0.0
C394 C 0.41982 0.37331 0.5702 0.0
C395 C 0.44052 0.37392 0.61833 0.0
C396 C 0.43728 0.36816 0.69595 0.0
C397 C 0.41365 0.36157 0.72373 0.0
C398 C 0.3931 0.36177 0.67404 0.0
H399 H 0.66644 0.88716 0.91069 0.0
H400 H 0.61465 0.9478 0.91703 0.0
H401 H 0.60639 0.94303 0.77971 0.0
H402 H 0.69279 0.90325 0.73186 0.0
H403 H 0.69666 0.87211 0.69965 0.0
H404 H 0.697 0.87868 0.79991 0.0
H405 H 0.66159 0.84724 0.82109 0.0
H406 H 0.66118 0.84055 0.72079 0.0
H407 H 0.63321 0.85023 0.76735 0.0
H408 H 0.60461 0.93292 0.64224 0.0
H409 H 0.61055 0.91924 0.51068 0.0
H410 H 0.6652 0.86619 0.58878 0.0
C411 C 0.6531 0.89909 0.88304 0.0
C412 C 0.6411 0.91783 0.92429 0.0
C413 C 0.6241 0.93346 0.88623 0.0
C414 C 0.6192 0.93079 0.80841 0.0
C415 C 0.63158 0.91247 0.76896 0.0
C416 C 0.64826 0.89691 0.80461 0.0
C417 C 0.66011 0.87978 0.74734 0.0
C418 C 0.68831 0.8837 0.74454 0.0
C419 C 0.65363 0.85285 0.76522 0.0
C420 C 0.64767 0.88839 0.67412 0.0
C421 C 0.6311 0.90707 0.68837 0.0
C422 C 0.61759 0.91834 0.63027 0.0
C423 C 0.62128 0.91053 0.55539 0.0
C424 C 0.63856 0.89178 0.53847 0.0
C425 C 0.65171 0.88041 0.59928 0.0
H426 H 0.14006 0.15864 0.83713 0.0
H427 H 0.08159 0.10658 0.78739 0.0
H428 H 0.06945 0.10647 0.92386 0.0
H429 H 0.15794 0.13514 0.01876 0.0
H430 H 0.16326 0.16505 0.05928 0.0
H431 H 0.1671 0.16051 0.95869 0.0
H432 H 0.13579 0.19551 0.93039 0.0
H433 H 0.13196 0.20026 0.03089 0.0
H434 H 0.10533 0.19416 0.97167 0.0
H435 H 0.06572 0.111 0.06961 0.0
H436 H 0.0676 0.12331 0.20573 0.0
H437 H 0.12711 0.17398 0.1537 0.0
C438 C 0.12475 0.14717 0.8552 0.0
C439 C 0.11187 0.13238 0.80259 0.0
C440 C 0.0916 0.11799 0.82742 0.0
C441 C 0.08473 0.11775 0.9046 0.0
C442 C 0.09811 0.13237 0.95546 0.0
C443 C 0.11745 0.1471 0.93118 0.0
C444 C 0.12841 0.16185 0.99564 0.0
C445 C 0.15579 0.15523 1.00885 0.0
C446 C 0.12517 0.18958 0.98128 0.0
C447 C 0.11244 0.15303 0.06053 0.0
C448 C 0.09521 0.13582 0.03693 0.0
C449 C 0.07898 0.12465 0.08834 0.0
C450 C 0.08022 0.1316 0.16535 0.0
C451 C 0.09725 0.14978 0.18949 0.0
C452 C 0.11361 0.16037 0.13631 0.0
H453 H 0.88455 0.6615 0.14916 0.0
H454 H 0.90232 0.58878 0.06484 0.0
H455 H 0.9072 0.57392 0.19603 0.0
H456 H 0.92584 0.65972 0.31877 0.0
H457 H 0.90378 0.6756 0.37722 0.0
H458 H 0.90485 0.68164 0.27636 0.0
H459 H 0.85823 0.6709 0.26486 0.0
H460 H 0.85705 0.66483 0.36546 0.0
H461 H 0.84735 0.64153 0.29912 0.0
H462 H 0.90489 0.56524 0.33487 0.0
H463 H 0.89655 0.56389 0.47298 0.0
H464 H 0.88075 0.64184 0.47051 0.0
C465 C 0.88978 0.64253 0.15803 0.0
C466 C 0.89317 0.62647 0.09567 0.0
C467 C 0.90005 0.60174 0.1106 0.0
C468 C 0.90277 0.59302 0.18537 0.0
C469 C 0.89874 0.60918 0.24515 0.0
C470 C 0.89258 0.63348 0.23251 0.0
C471 C 0.88761 0.64654 0.30707 0.0
C472 C 0.90666 0.66709 0.32064 0.0
C473 C 0.86098 0.65653 0.30922 0.0
C474 C 0.89118 0.62556 0.36331 0.0
C475 C 0.89778 0.60423 0.32619 0.0
C476 C 0.9002 0.58192 0.36473 0.0
C477 C 0.89539 0.58128 0.44295 0.0
C478 C 0.8884 0.60279 0.48212 0.0
C479 C 0.88672 0.62531 0.44201 0.0
H480 H 0.35725 0.13854 0.93283 0.0
H481 H 0.37482 0.06101 0.94257 0.0
H482 H 0.3842 0.06142 0.80505 0.0
H483 H 0.32545 0.13599 0.75779 0.0
H484 H 0.33595 0.16544 0.72316 0.0
H485 H 0.3337 0.1599 0.82389 0.0
H486 H 0.37985 0.17187 0.84105 0.0
H487 H 0.38222 0.17753 0.74023 0.0
H488 H 0.40313 0.15631 0.78632 0.0
H489 H 0.38933 0.06957 0.66644 0.0
H490 H 0.38836 0.08434 0.53404 0.0
H491 H 0.36485 0.15623 0.61178 0.0
C492 C 0.36364 0.12189 0.90591 0.0
C493 C 0.36559 0.09977 0.94775 0.0
C494 C 0.37331 0.07807 0.91094 0.0
C495 C 0.37875 0.07818 0.83318 0.0
C496 C 0.37618 0.10014 0.79291 0.0
C497 C 0.36874 0.1216 0.82776 0.0
C498 C 0.36544 0.14213 0.76992 0.0
C499 C 0.33854 0.1514 0.76863 0.0
C500 C 0.38376 0.16321 0.78531 0.0
C501 C 0.37179 0.12871 0.69722 0.0
C502 C 0.37826 0.10463 0.71202 0.0
C503 C 0.3843 0.08842 0.65405 0.0
C504 C 0.38347 0.09697 0.57875 0.0
C505 C 0.37633 0.12146 0.56164 0.0
C506 C 0.37068 0.13752 0.62227 0.0
H507 H 0.88065 0.87845 0.18398 0.0
H508 H 0.93061 0.81616 0.18322 0.0
H509 H 0.92606 0.81299 0.04426 0.0
H510 H 0.83944 0.85593 0.02863 0.0
H511 H 0.8351 0.88622 0.98883 0.0
H512 H 0.84052 0.88246 0.08948 0.0
H513 H 0.87777 0.91234 0.08104 0.0
H514 H 0.87265 0.916 0.98034 0.0
H515 H 0.90244 0.90602 0.01529 0.0
H516 H 0.91953 0.81852 0.90591 0.0
H517 H 0.90904 0.83085 0.77458 0.0
H518 H 0.86235 0.88912 0.86031 0.0
C519 C 0.89011 0.86383 0.15453 0.0
C520 C 0.90611 0.84761 0.19445 0.0
C521 C 0.91853 0.82896 0.15381 0.0
C522 C 0.91598 0.82694 0.07485 0.0
C523 C 0.90077 0.84362 0.03684 0.0
C524 C 0.88778 0.86155 0.07504 0.0
C525 C 0.87351 0.8777 0.01921 0.0
C526 C 0.84547 0.87544 0.03232 0.0
C527 C 0.88212 0.90461 0.02429 0.0
C528 C 0.88095 0.86628 0.94394 0.0
C529 C 0.89668 0.84663 0.95587 0.0
C530 C 0.90706 0.83374 0.89576 0.0
C531 C 0.90118 0.84102 0.82131 0.0
C532 C 0.88498 0.86099 0.80716 0.0
C533 C 0.8746 0.87365 0.86953 0.0
H534 H 0.12864 0.42716 0.43612 0.0
H535 H 0.17663 0.36894 0.51953 0.0
H536 H 0.18277 0.35479 0.38812 0.0
H537 H 0.09903 0.39224 0.291 0.0
H538 H 0.0974 0.41714 0.22313 0.0
H539 H 0.09754 0.42356 0.32349 0.0
H540 H 0.13558 0.45205 0.30606 0.0
H541 H 0.13557 0.4457 0.20556 0.0
H542 H 0.16308 0.44025 0.26162 0.0
H543 H 0.18288 0.34603 0.24927 0.0
H544 H 0.17625 0.34248 0.11116 0.0
H545 H 0.12831 0.4063 0.11426 0.0
C546 C 0.14074 0.41166 0.42672 0.0
C547 C 0.15216 0.39918 0.48867 0.0
C548 C 0.16745 0.37867 0.47359 0.0
C549 C 0.1712 0.37059 0.39892 0.0
C550 C 0.15958 0.38319 0.33948 0.0
C551 C 0.14465 0.40328 0.35229 0.0
C552 C 0.13367 0.41293 0.27807 0.0
C553 C 0.10522 0.41136 0.27901 0.0
C554 C 0.14251 0.4393 0.26189 0.0
C555 C 0.14459 0.39495 0.22168 0.0
C556 C 0.15957 0.37805 0.25864 0.0
C557 C 0.17122 0.35917 0.21974 0.0
C558 C 0.16722 0.35723 0.14124 0.0
C559 C 0.15164 0.374 0.10183 0.0
C560 C 0.14049 0.39337 0.14267 0.0
H561 H 0.57954 0.65521 0.65953 0.0
H562 H 0.6485 0.62518 0.74734 0.0
H563 H 0.66393 0.62084 0.61704 0.0
H564 H 0.57584 0.61569 0.49154 0.0
H565 H 0.56348 0.63958 0.43099 0.0
H566 H 0.55717 0.63975 0.53155 0.0
H567 H 0.57506 0.68383 0.54123 0.0
H568 H 0.58139 0.6838 0.44078 0.0
H569 H 0.60599 0.6899 0.5078 0.0
H570 H 0.67301 0.62138 0.4792 0.0
H571 H 0.67509 0.62673 0.33995 0.0
H572 H 0.60017 0.65515 0.33732 0.0
C573 C 0.59775 0.64747 0.65128 0.0
C574 C 0.61285 0.64077 0.71424 0.0
C575 C 0.63671 0.63094 0.70068 0.0
C576 C 0.6456 0.62817 0.62661 0.0
C577 C 0.63041 0.63514 0.56613 0.0
C578 C 0.60697 0.64452 0.57729 0.0
C579 C 0.59481 0.65119 0.50176 0.0
C580 C 0.57144 0.63562 0.48818 0.0
C581 C 0.58898 0.67882 0.49768 0.0
C582 C 0.61525 0.64435 0.44677 0.0
C583 C 0.63555 0.63507 0.48548 0.0
C584 C 0.65717 0.62844 0.44814 0.0
C585 C 0.65823 0.63163 0.36919 0.0
C586 C 0.63781 0.64127 0.32807 0.0
C587 C 0.61588 0.64738 0.36735 0.0
H588 H 0.22446 0.38505 0.74895 0.0
H589 H 0.19824 0.43109 0.93206 0.0
H590 H 0.24127 0.43618 0.97837 0.0
H591 H 0.2704 0.35373 0.85047 0.0
H592 H 0.29271 0.35327 0.7746 0.0
H593 H 0.26015 0.35463 0.75272 0.0
H594 H 0.26716 0.39414 0.67275 0.0
H595 H 0.29982 0.39281 0.69402 0.0
H596 H 0.28248 0.42015 0.71541 0.0
H597 H 0.2863 0.43144 1.0145 0.0
H598 H 0.33088 0.42143 0.0285 0.0
H599 H 0.32846 0.38195 0.81531 0.0
C600 C 0.22788 0.39655 0.79797 0.0
C601 C 0.2081 0.40772 0.83699 0.0
C602 C 0.2132 0.42259 0.90098 0.0
C603 C 0.23755 0.4255 0.92785 0.0
C604 C 0.25663 0.41388 0.88897 0.0
C605 C 0.25214 0.40014 0.82439 0.0
C606 C 0.27591 0.38932 0.79369 0.0
C607 C 0.27471 0.36107 0.79287 0.0
C608 C 0.28168 0.39973 0.71426 0.0
C609 C 0.29433 0.39848 0.85238 0.0
C610 C 0.28282 0.41247 0.90722 0.0
C611 C 0.29563 0.42104 0.97095 0.0
C612 C 0.32084 0.4152 0.97867 0.0
C613 C 0.333 0.40137 0.92229 0.0
C614 C 0.31964 0.39314 0.85808 0.0
H615 H 0.59665 0.81166 0.26402 0.0
H616 H 0.62163 0.85014 0.06153 0.0
H617 H 0.61974 0.81163 0.98951 0.0
H618 H 0.63071 0.75843 0.23769 0.0
H619 H 0.60737 0.73722 0.27057 0.0
H620 H 0.60773 0.76829 0.30492 0.0
H621 H 0.56237 0.77418 0.25991 0.0
H622 H 0.56182 0.743 0.22581 0.0
H623 H 0.55422 0.76801 0.16228 0.0
H624 H 0.62149 0.76845 0.94451 0.0
H625 H 0.62304 0.72344 0.92647 0.0
H626 H 0.59409 0.71234 0.15344 0.0
C627 C 0.60104 0.81212 0.20402 0.0
C628 C 0.60944 0.83404 0.16869 0.0
C629 C 0.6154 0.83368 0.09029 0.0
C630 C 0.61427 0.81184 0.04863 0.0
C631 C 0.60678 0.79043 0.08565 0.0
C632 C 0.59986 0.79039 0.16123 0.0
C633 C 0.59383 0.76448 0.18811 0.0
C634 C 0.61093 0.75665 0.25421 0.0
C635 C 0.56642 0.76229 0.21033 0.0
C636 C 0.59924 0.74997 0.11657 0.0
C637 C 0.60669 0.76537 0.05819 0.0
C638 C 0.61506 0.75624 0.98902 0.0
C639 C 0.61595 0.7307 0.9793 0.0
C640 C 0.60815 0.71461 0.03784 0.0
C641 C 0.59937 0.72436 0.10695 0.0
H642 H 0.28787 0.14329 0.32159 0.0
H643 H 0.30036 0.06504 0.29736 0.0
H644 H 0.25622 0.05705 0.32602 0.0
H645 H 0.24608 0.13786 0.48093 0.0
H646 H 0.22698 0.16323 0.45044 0.0
H647 H 0.25934 0.16268 0.42622 0.0
H648 H 0.24792 0.16726 0.28347 0.0
H649 H 0.21553 0.16775 0.30723 0.0
H650 H 0.22694 0.1455 0.24053 0.0
H651 H 0.20997 0.05799 0.35074 0.0
H652 H 0.16637 0.06741 0.38222 0.0
H653 H 0.18509 0.14471 0.39998 0.0
C654 C 0.28128 0.12448 0.32225 0.0
C655 C 0.29743 0.10477 0.30676 0.0
C656 C 0.28826 0.08039 0.30915 0.0
C657 C 0.26322 0.07569 0.32509 0.0
C658 C 0.24772 0.09556 0.33976 0.0
C659 C 0.25649 0.11945 0.33959 0.0
C660 C 0.23624 0.13746 0.35972 0.0
C661 C 0.24254 0.15111 0.43373 0.0
C662 C 0.23137 0.15556 0.2938 0.0
C663 C 0.21463 0.12003 0.3706 0.0
C664 C 0.22153 0.09596 0.35793 0.0
C665 C 0.20444 0.07674 0.36158 0.0
C666 C 0.17972 0.08225 0.3792 0.0
C667 C 0.17244 0.10672 0.39421 0.0
C668 C 0.19021 0.12577 0.38987 0.0
H669 H 0.85972 0.69256 0.67821 0.0
H670 H 0.93652 0.67786 0.73585 0.0
H671 H 0.94838 0.71865 0.68487 0.0
H672 H 0.87214 0.72447 0.50104 0.0
H673 H 0.84731 0.74617 0.51316 0.0
H674 H 0.84494 0.71582 0.55391 0.0
H675 H 0.83757 0.73466 0.68696 0.0
H676 H 0.83982 0.76506 0.64662 0.0
H677 H 0.8597 0.75629 0.72484 0.0
H678 H 0.95148 0.76194 0.63263 0.0
H679 H 0.94573 0.80374 0.57941 0.0
H680 H 0.86719 0.78924 0.55109 0.0
C681 C 0.87904 0.69792 0.68012 0.0
C682 C 0.8972 0.68211 0.71132 0.0
C683 C 0.9223 0.68971 0.71223 0.0
C684 C 0.92921 0.71283 0.68341 0.0
C685 C 0.91083 0.72801 0.65313 0.0
C686 C 0.88628 0.72079 0.65084 0.0
C687 C 0.87013 0.74049 0.61508 0.0
C688 C 0.85792 0.73118 0.54142 0.0
C689 C 0.85066 0.74967 0.67177 0.0
C690 C 0.88937 0.76007 0.59855 0.0
C691 C 0.91273 0.75255 0.62102 0.0
C692 C 0.93331 0.76792 0.61415 0.0
C693 C 0.92987 0.79162 0.58391 0.0
C694 C 0.90608 0.79964 0.56045 0.0
C695 C 0.88567 0.78351 0.56744 0.0
H696 H 0.8235 0.86839 0.38686 0.0
H697 H 0.84668 0.94421 0.35924 0.0
H698 H 0.80447 0.95512 0.3141 0.0
H699 H 0.78531 0.86689 0.21669 0.0
H700 H 0.7625 0.84678 0.25852 0.0
H701 H 0.79429 0.84528 0.28982 0.0
H702 H 0.7805 0.85257 0.42885 0.0
H703 H 0.74868 0.85408 0.39809 0.0
H704 H 0.76208 0.87917 0.45075 0.0
H705 H 0.75863 0.95789 0.28104 0.0
H706 H 0.71421 0.95168 0.25008 0.0
H707 H 0.72258 0.87336 0.28791 0.0
C708 C 0.81964 0.8873 0.37149 0.0
C709 C 0.83815 0.90557 0.37728 0.0
C710 C 0.83265 0.93001 0.35528 0.0
C711 C 0.80877 0.93634 0.3298 0.0
C712 C 0.79085 0.91788 0.32511 0.0
C713 C 0.79616 0.89378 0.34419 0.0
C714 C 0.77396 0.87722 0.33178 0.0
C715 C 0.77934 0.85791 0.27055 0.0
C716 C 0.76583 0.86505 0.40684 0.0
C717 C 0.7551 0.89581 0.30411 0.0
C718 C 0.76509 0.91921 0.30136 0.0
C719 C 0.75074 0.9396 0.28182 0.0
C720 C 0.72557 0.93593 0.26455 0.0
C721 C 0.71519 0.91203 0.26557 0.0
C722 C 0.73022 0.89176 0.28514 0.0
H723 H 0.13803 0.21846 0.59993 0.0
H724 H 0.0603 0.20976 0.54265 0.0
H725 H 0.05272 0.25307 0.57768 0.0
H726 H 0.1279 0.25716 0.76487 0.0
H727 H 0.15514 0.27554 0.74797 0.0
H728 H 0.1543 0.24394 0.71812 0.0
H729 H 0.16483 0.25749 0.58043 0.0
H730 H 0.1656 0.28913 0.60976 0.0
H731 H 0.14551 0.27983 0.53289 0.0
H732 H 0.05441 0.29837 0.61061 0.0
H733 H 0.0644 0.34073 0.65207 0.0
H734 H 0.14023 0.31862 0.69684 0.0
C735 C 0.11941 0.22567 0.59509 0.0
C736 C 0.09975 0.21087 0.56833 0.0
C737 C 0.07559 0.22082 0.56334 0.0
C738 C 0.07113 0.2454 0.58279 0.0
C739 C 0.09097 0.25962 0.60835 0.0
C740 C 0.11455 0.25 0.61574 0.0
C741 C 0.13254 0.26896 0.64626 0.0
C742 C 0.14309 0.26092 0.72392 0.0
C743 C 0.15334 0.27415 0.5889 0.0
C744 C 0.11549 0.29085 0.65393 0.0
C745 C 0.09164 0.28521 0.63101 0.0
C746 C 0.07295 0.30289 0.62964 0.0
C747 C 0.07879 0.32689 0.65293 0.0
C748 C 0.10297 0.33281 0.67838 0.0
C749 C 0.12147 0.31449 0.67884 0.0
H750 H 0.70554 0.59818 0.08609 0.0
H751 H 0.67161 0.61066 0.86519 0.0
H752 H 0.71192 0.60361 0.8034 0.0
H753 H 0.75953 0.63066 0.04824 0.0
H754 H 0.77999 0.6107 0.10118 0.0
H755 H 0.74792 0.6129 0.12732 0.0
H756 H 0.74305 0.56576 0.11372 0.0
H757 H 0.77521 0.5634 0.08772 0.0
H758 H 0.75153 0.55123 0.02575 0.0
H759 H 0.75647 0.59938 0.76662 0.0
H760 H 0.80203 0.5995 0.75758 0.0
H761 H 0.80749 0.59066 1.00269 0.0
C762 C 0.70647 0.59867 0.02459 0.0
C763 C 0.68539 0.60467 0.98027 0.0
C764 C 0.6875 0.60597 0.90011 0.0
C765 C 0.71031 0.6019 0.86452 0.0
C766 C 0.73089 0.59661 0.90989 0.0
C767 C 0.72921 0.59495 0.98821 0.0
C768 C 0.75456 0.59142 0.02423 0.0
C769 C 0.76086 0.61269 0.07841 0.0
C770 C 0.75618 0.56646 0.06527 0.0
C771 C 0.7708 0.59197 0.95415 0.0
C772 C 0.75674 0.59462 0.88872 0.0
C773 C 0.76765 0.59699 0.81738 0.0
C774 C 0.79359 0.59707 0.81285 0.0
C775 C 0.80843 0.59497 0.87932 0.0
C776 C 0.79675 0.59194 0.95065 0.0
H777 H 0.37275 0.29484 0.11919 0.0
H778 H 0.45097 0.30606 0.07586 0.0
H779 H 0.4586 0.2618 0.09964 0.0
H780 H 0.38072 0.24976 0.27186 0.0
H781 H 0.35387 0.23229 0.24334 0.0
H782 H 0.35503 0.2649 0.22556 0.0
H783 H 0.34671 0.25723 0.0823 0.0
H784 H 0.34573 0.2246 0.09951 0.0
H785 H 0.36692 0.23709 0.03044 0.0
H786 H 0.45685 0.21533 0.11944 0.0
H787 H 0.44653 0.17166 0.14448 0.0
H788 H 0.36973 0.19181 0.17942 0.0
C789 C 0.39154 0.28806 0.11551 0.0
C790 C 0.41128 0.30388 0.09566 0.0
C791 C 0.43559 0.29429 0.09143 0.0
C792 C 0.44007 0.26916 0.10452 0.0
C793 C 0.42008 0.25396 0.12264 0.0
C794 C 0.39636 0.26316 0.1292 0.0
C795 C 0.37803 0.24308 0.14915 0.0
C796 C 0.36622 0.24779 0.22712 0.0
C797 C 0.35818 0.24034 0.08661 0.0
C798 C 0.39505 0.22102 0.15183 0.0
C799 C 0.41922 0.22758 0.13601 0.0
C800 C 0.43802 0.21006 0.13265 0.0
C801 C 0.43197 0.18529 0.14658 0.0
C802 C 0.40736 0.1783 0.16428 0.0
C803 C 0.38877 0.19652 0.16677 0.0
loop_
_geom_bond_atom_site_label_1
_geom_bond_atom_site_label_2
_geom_bond_distance
_geom_bond_site_symmetry_2
_ccdc_geom_bond_type
Co0 N4 2.148 . S
Co0 N10 2.128 1_554 S
Co0 N20 2.194 . S
Co0 O25 2.351 . S
Co0 O26 2.155 . S
Co0 O27 2.096 1_554 S
C1 N4 1.301 . S
C1 N5 1.328 . S
C1 H6 0.930 . S
C2 C3 1.333 . S
C2 N4 1.317 . S
C2 H7 0.930 . S
C3 C2 1.333 . S
C3 N5 1.350 . S
C3 H29 0.931 . S
N4 Co0 2.148 . S
N4 C1 1.301 . S
N4 C2 1.317 . S
N5 C1 1.328 . S
N5 C3 1.350 . S
H6 C1 0.930 . S
H7 C2 0.930 . S
C8 O9 1.224 . S
C8 O27 1.247 . S
O9 C8 1.224 . S
N10 Co0 2.128 1_556 S
N10 C11 1.355 . S
N10 C13 1.311 . S
C11 N10 1.355 . S
C11 C12 1.363 . S
C11 H23 0.929 . S
C12 C11 1.363 . S
C12 N14 1.375 . S
C12 H30 0.931 . S
C13 N10 1.311 . S
C13 N14 1.347 . S
C13 H24 0.929 . S
N14 C12 1.375 . S
N14 C13 1.347 . S
C15 C18 1.365 . S
C15 N20 1.328 . S
C15 H21 0.929 . S
C16 C17 1.362 1_556 S
C16 C19 1.378 . S
C16 H31 0.929 . S
C17 C16 1.362 1_554 S
C17 C18 1.366 . S
C18 C15 1.365 . S
C18 C17 1.366 . S
C18 H32 0.930 . S
C19 C16 1.378 . S
C19 N20 1.315 1_556 S
C19 H22 0.930 . S
N20 Co0 2.194 . S
N20 C15 1.328 . S
N20 C19 1.315 1_554 S
H21 C15 0.929 . S
H22 C19 0.930 . S
H23 C11 0.929 . S
H24 C13 0.929 . S
O25 Co0 2.351 . S
O25 C28 1.244 . S
O26 Co0 2.155 . S
O26 C28 1.240 . S
O27 Co0 2.096 1_556 S
O27 C8 1.247 . S
C28 O25 1.244 . S
C28 O26 1.240 . S
H29 C3 0.931 . S
H30 C12 0.931 . S
H31 C16 0.929 . S
H32 C18 0.930 . S
Co33 N37 2.148 . S
Co33 N43 2.128 . S
Co33 N53 2.194 . S
Co33 O58 2.351 . S
Co33 O59 2.155 . S
Co33 O60 2.096 . S
C34 N37 1.301 . S
C34 N38 1.328 . S
C34 H39 0.930 . S
C35 C36 1.333 . S
C35 N37 1.317 . S
C35 H40 0.930 . S
C36 C35 1.333 . S
C36 N38 1.350 . S
C36 H62 0.931 . S
N37 Co33 2.148 . S
N37 C34 1.301 . S
N37 C35 1.317 . S
N38 C34 1.328 . S
N38 C36 1.350 . S
H39 C34 0.930 . S
H40 C35 0.930 . S
C41 O42 1.224 . S
C41 O60 1.247 . S
O42 C41 1.224 . S
N43 Co33 2.128 . S
N43 C44 1.355 . S
N43 C46 1.311 . S
C44 N43 1.355 . S
C44 C45 1.363 . S
C44 H56 0.929 . S
C45 C44 1.363 . S
C45 N47 1.375 . S
C45 H63 0.931 . S
C46 N43 1.311 . S
C46 N47 1.347 . S
C46 H57 0.929 . S
N47 C45 1.375 . S
N47 C46 1.347 . S
C48 C51 1.365 . S
C48 N53 1.328 . S
C48 H54 0.929 . S
C49 C50 1.362 . S
C49 C52 1.378 . S
C49 H64 0.929 . S
C50 C49 1.362 . S
C50 C51 1.366 . S
C51 C48 1.365 . S
C51 C50 1.366 . S
C51 H65 0.930 . S
C52 C49 1.378 . S
C52 N53 1.315 . S
C52 H55 0.930 . S
N53 Co33 2.194 . S
N53 C48 1.328 . S
N53 C52 1.315 . S
H54 C48 0.929 . S
H55 C52 0.930 . S
H56 C44 0.929 . S
H57 C46 0.929 . S
O58 Co33 2.351 . S
O58 C61 1.244 . S
O59 Co33 2.155 . S
O59 C61 1.240 . S
O60 Co33 2.096 . S
O60 C41 1.247 . S
C61 O58 1.244 . S
C61 O59 1.240 . S
H62 C36 0.931 . S
H63 C45 0.931 . S
H64 C49 0.929 . S
H65 C51 0.930 . S
Co66 N70 2.148 . S
Co66 N76 2.128 . S
Co66 N86 2.194 . S
Co66 O91 2.351 . S
Co66 O92 2.155 . S
Co66 O93 2.096 . S
C67 N70 1.301 . S
C67 N71 1.328 . S
C67 H72 0.930 . S
C68 C69 1.333 . S
C68 N70 1.317 . S
C68 H73 0.930 . S
C69 C68 1.333 . S
C69 N71 1.350 . S
C69 H95 0.931 . S
N70 Co66 2.148 . S
N70 C67 1.301 . S
N70 C68 1.317 . S
N71 C67 1.328 . S
N71 C69 1.350 . S
H72 C67 0.930 . S
H73 C68 0.930 . S
C74 O75 1.224 . S
C74 O93 1.247 . S
O75 C74 1.224 . S
N76 Co66 2.128 . S
N76 C77 1.355 . S
N76 C79 1.311 . S
C77 N76 1.355 . S
C77 C78 1.363 . S
C77 H89 0.929 . S
C78 C77 1.363 . S
C78 N80 1.375 . S
C78 H96 0.931 . S
C79 N76 1.311 . S
C79 N80 1.347 . S
C79 H90 0.929 . S
N80 C78 1.375 . S
N80 C79 1.347 . S
C81 C84 1.365 . S
C81 N86 1.328 . S
C81 H87 0.929 . S
C82 C83 1.362 . S
C82 C85 1.378 . S
C82 H97 0.929 . S
C83 C82 1.362 . S
C83 C84 1.366 . S
C84 C81 1.365 . S
C84 C83 1.366 . S
C84 H98 0.930 . S
C85 C82 1.378 . S
C85 N86 1.315 . S
C85 H88 0.930 . S
N86 Co66 2.194 . S
N86 C81 1.328 . S
N86 C85 1.315 . S
H87 C81 0.929 . S
H88 C85 0.930 . S
H89 C77 0.929 . S
H90 C79 0.929 . S
O91 Co66 2.351 . S
O91 C94 1.244 . S
O92 Co66 2.155 . S
O92 C94 1.240 . S
O93 Co66 2.096 . S
O93 C74 1.247 . S
C94 O91 1.244 . S
C94 O92 1.240 . S
H95 C69 0.931 . S
H96 C78 0.931 . S
H97 C82 0.929 . S
H98 C84 0.930 . S
Co99 N103 2.148 . S
Co99 N109 2.128 . S
Co99 N119 2.194 . S
Co99 O124 2.351 . S
Co99 O125 2.155 . S
Co99 O126 2.096 . S
C100 N103 1.301 . S
C100 N104 1.328 . S
C100 H105 0.930 . S
C101 C102 1.333 . S
C101 N103 1.317 . S
C101 H106 0.930 . S
C102 C101 1.333 . S
C102 N104 1.350 . S
C102 H128 0.931 . S
N103 Co99 2.148 . S
N103 C100 1.301 . S
N103 C101 1.317 . S
N104 C100 1.328 . S
N104 C102 1.350 . S
H105 C100 0.930 . S
H106 C101 0.930 . S
C107 O108 1.224 . S
C107 O126 1.247 . S
O108 C107 1.224 . S
N109 Co99 2.128 . S
N109 C110 1.355 . S
N109 C112 1.311 . S
C110 N109 1.355 . S
C110 C111 1.363 . S
C110 H122 0.929 . S
C111 C110 1.363 . S
C111 N113 1.375 . S
C111 H129 0.931 . S
C112 N109 1.311 . S
C112 N113 1.347 . S
C112 H123 0.929 . S
N113 C111 1.375 . S
N113 C112 1.347 . S
C114 C117 1.365 . S
C114 N119 1.328 . S
C114 H120 0.929 . S
C115 C116 1.362 . S
C115 C118 1.378 . S
C115 H130 0.929 . S
C116 C115 1.362 . S
C116 C117 1.366 . S
C117 C114 1.365 . S
C117 C116 1.366 . S
C117 H131 0.930 . S
C118 C115 1.378 . S
C118 N119 1.315 . S
C118 H121 0.930 . S
N119 Co99 2.194 . S
N119 C114 1.328 . S
N119 C118 1.315 . S
H120 C114 0.929 . S
H121 C118 0.930 . S
H122 C110 0.929 . S
H123 C112 0.929 . S
O124 Co99 2.351 . S
O124 C127 1.244 . S
O125 Co99 2.155 . S
O125 C127 1.240 . S
O126 Co99 2.096 . S
O126 C107 1.247 . S
C127 O124 1.244 . S
C127 O125 1.240 . S
H128 C102 0.931 . S
H129 C111 0.931 . S
H130 C115 0.929 . S
H131 C117 0.930 . S
Co132 N136 2.148 . S
Co132 N142 2.128 . S
Co132 N152 2.194 . S
Co132 O157 2.351 . S
Co132 O158 2.155 . S
Co132 O159 2.096 . S
C133 N136 1.301 . S
C133 N137 1.328 . S
C133 H138 0.930 . S
C134 C135 1.333 . S
C134 N136 1.317 . S
C134 H139 0.930 . S
C135 C134 1.333 . S
C135 N137 1.350 . S
C135 H161 0.931 . S
N136 Co132 2.148 . S
N136 C133 1.301 . S
N136 C134 1.317 . S
N137 C133 1.328 . S
N137 C135 1.350 . S
H138 C133 0.930 . S
H139 C134 0.930 . S
C140 O141 1.224 . S
C140 O159 1.247 . S
O141 C140 1.224 . S
N142 Co132 2.128 . S
N142 C143 1.355 . S
N142 C145 1.311 . S
C143 N142 1.355 . S
C143 C144 1.363 . S
C143 H155 0.929 . S
C144 C143 1.363 . S
C144 N146 1.375 . S
C144 H162 0.931 . S
C145 N142 1.311 . S
C145 N146 1.347 . S
C145 H156 0.929 . S
N146 C144 1.375 . S
N146 C145 1.347 . S
C147 C150 1.365 . S
C147 N152 1.328 . S
C147 H153 0.929 . S
C148 C149 1.362 . S
C148 C151 1.378 . S
C148 H163 0.929 . S
C149 C148 1.362 . S
C149 C150 1.366 . S
C150 C147 1.365 . S
C150 C149 1.366 . S
C150 H164 0.930 . S
C151 C148 1.378 . S
C151 N152 1.315 . S
C151 H154 0.930 . S
N152 Co132 2.194 . S
N152 C147 1.328 . S
N152 C151 1.315 . S
H153 C147 0.929 . S
H154 C151 0.930 . S
H155 C143 0.929 . S
H156 C145 0.929 . S
O157 Co132 2.351 . S
O157 C160 1.244 . S
O158 Co132 2.155 . S
O158 C160 1.240 . S
O159 Co132 2.096 . S
O159 C140 1.247 . S
C160 O157 1.244 . S
C160 O158 1.240 . S
H161 C135 0.931 . S
H162 C144 0.931 . S
H163 C148 0.929 . S
H164 C150 0.930 . S
Co165 N169 2.148 . S
Co165 N175 2.128 . S
Co165 N185 2.194 . S
Co165 O190 2.351 . S
Co165 O191 2.155 . S
Co165 O192 2.096 . S
C166 N169 1.301 . S
C166 N170 1.328 . S
C166 H171 0.930 . S
C167 C168 1.333 . S
C167 N169 1.317 . S
C167 H172 0.930 . S
C168 C167 1.333 . S
C168 N170 1.350 . S
C168 H194 0.931 . S
N169 Co165 2.148 . S
N169 C166 1.301 . S
N169 C167 1.317 . S
N170 C166 1.328 . S
N170 C168 1.350 . S
H171 C166 0.930 . S
H172 C167 0.930 . S
C173 O174 1.224 . S
C173 O192 1.247 . S
O174 C173 1.224 . S
N175 Co165 2.128 . S
N175 C176 1.355 . S
N175 C178 1.311 . S
C176 N175 1.355 . S
C176 C177 1.363 . S
C176 H188 0.929 . S
C177 C176 1.363 . S
C177 N179 1.375 . S
C177 H195 0.931 . S
C178 N175 1.311 . S
C178 N179 1.347 . S
C178 H189 0.929 . S
N179 C177 1.375 . S
N179 C178 1.347 . S
C180 C183 1.365 . S
C180 N185 1.328 . S
C180 H186 0.929 . S
C181 C182 1.362 . S
C181 C184 1.378 . S
C181 H196 0.929 . S
C182 C181 1.362 . S
C182 C183 1.366 . S
C183 C180 1.365 . S
C183 C182 1.366 . S
C183 H197 0.930 . S
C184 C181 1.378 . S
C184 N185 1.315 . S
C184 H187 0.930 . S
N185 Co165 2.194 . S
N185 C180 1.328 . S
N185 C184 1.315 . S
H186 C180 0.929 . S
H187 C184 0.930 . S
H188 C176 0.929 . S
H189 C178 0.929 . S
O190 Co165 2.351 . S
O190 C193 1.244 . S
O191 Co165 2.155 . S
O191 C193 1.240 . S
O192 Co165 2.096 . S
O192 C173 1.247 . S
C193 O190 1.244 . S
C193 O191 1.240 . S
H194 C168 0.931 . S
H195 C177 0.931 . S
H196 C181 0.929 . S
H197 C183 0.930 . S
Co198 N202 2.148 . S
Co198 N208 2.128 . S
Co198 N218 2.194 . S
Co198 O223 2.351 . S
Co198 O224 2.155 . S
Co198 O225 2.096 . S
C199 N202 1.301 . S
C199 N203 1.328 . S
C199 H204 0.930 . S
C200 C201 1.333 . S
C200 N202 1.317 . S
C200 H205 0.930 . S
C201 C200 1.333 . S
C201 N203 1.350 . S
C201 H227 0.931 . S
N202 Co198 2.148 . S
N202 C199 1.301 . S
N202 C200 1.317 . S
N203 C199 1.328 . S
N203 C201 1.350 . S
H204 C199 0.930 . S
H205 C200 0.930 . S
C206 O207 1.224 . S
C206 O225 1.247 . S
O207 C206 1.224 . S
N208 Co198 2.128 . S
N208 C209 1.355 . S
N208 C211 1.311 . S
C209 N208 1.355 . S
C209 C210 1.363 . S
C209 H221 0.929 . S
C210 C209 1.363 . S
C210 N212 1.375 . S
C210 H228 0.931 . S
C211 N208 1.311 . S
C211 N212 1.347 . S
C211 H222 0.929 . S
N212 C210 1.375 . S
N212 C211 1.347 . S
C213 C216 1.365 . S
C213 N218 1.328 . S
C213 H219 0.929 . S
C214 C215 1.362 . S
C214 C217 1.378 . S
C214 H229 0.929 . S
C215 C214 1.362 . S
C215 C216 1.366 . S
C216 C213 1.365 . S
C216 C215 1.366 . S
C216 H230 0.930 . S
C217 C214 1.378 . S
C217 N218 1.315 . S
C217 H220 0.930 . S
N218 Co198 2.194 . S
N218 C213 1.328 . S
N218 C217 1.315 . S
H219 C213 0.929 . S
H220 C217 0.930 . S
H221 C209 0.929 . S
H222 C211 0.929 . S
O223 Co198 2.351 . S
O223 C226 1.244 . S
O224 Co198 2.155 . S
O224 C226 1.240 . S
O225 Co198 2.096 . S
O225 C206 1.247 . S
C226 O223 1.244 . S
C226 O224 1.240 . S
H227 C201 0.931 . S
H228 C210 0.931 . S
H229 C214 0.929 . S
H230 C216 0.930 . S
Co231 N235 2.148 . S
Co231 N241 2.128 1_554 S
Co231 N251 2.194 . S
Co231 O256 2.351 . S
Co231 O257 2.155 . S
Co231 O258 2.096 1_554 S
C232 N235 1.301 . S
C232 N236 1.328 . S
C232 H237 0.930 . S
C233 C234 1.333 . S
C233 N235 1.317 . S
C233 H238 0.930 . S
C234 C233 1.333 . S
C234 N236 1.350 . S
C234 H260 0.931 . S
N235 Co231 2.148 . S
N235 C232 1.301 . S
N235 C233 1.317 . S
N236 C232 1.328 . S
N236 C234 1.350 . S
H237 C232 0.930 . S
H238 C233 0.930 . S
C239 O240 1.224 . S
C239 O258 1.247 . S
O240 C239 1.224 . S
N241 Co231 2.128 1_556 S
N241 C242 1.355 . S
N241 C244 1.311 . S
C242 N241 1.355 . S
C242 C243 1.363 . S
C242 H254 0.929 . S
C243 C242 1.363 . S
C243 N245 1.375 . S
C243 H261 0.931 . S
C244 N241 1.311 . S
C244 N245 1.347 . S
C244 H255 0.929 . S
N245 C243 1.375 . S
N245 C244 1.347 . S
C246 C249 1.365 . S
C246 N251 1.328 . S
C246 H252 0.929 . S
C247 C248 1.362 1_556 S
C247 C250 1.378 . S
C247 H262 0.929 . S
C248 C247 1.362 1_554 S
C248 C249 1.366 . S
C249 C246 1.365 . S
C249 C248 1.366 . S
C249 H263 0.930 . S
C250 C247 1.378 . S
C250 N251 1.311 1_556 S
C250 H253 0.934 . S
N251 Co231 2.194 . S
N251 C246 1.328 . S
N251 C250 1.311 1_554 S
H252 C246 0.929 . S
H253 C250 0.934 . S
H254 C242 0.929 . S
H255 C244 0.929 . S
O256 Co231 2.351 . S
O256 C259 1.244 . S
O257 Co231 2.155 . S
O257 C259 1.240 . S
O258 Co231 2.096 1_556 S
O258 C239 1.247 . S
C259 O256 1.244 . S
C259 O257 1.240 . S
H260 C234 0.931 . S
H261 C243 0.931 . S
H262 C247 0.929 . S
H263 C249 0.930 . S
H264 C276 0.930 . S
H265 C278 0.930 . S
H266 C279 0.930 . S
H267 C283 0.959 . S
H268 C283 0.959 . S
H269 C283 0.961 . S
H270 C284 0.960 . S
H271 C284 0.961 . S
H272 C284 0.959 . S
H273 C287 0.929 . S
H274 C288 0.931 . S
H275 C290 0.930 . S
C276 H264 0.930 . S
C276 C277 1.399 1_556 S
C276 C281 1.399 . S
C277 C276 1.399 1_554 S
C277 C278 1.376 . S
C278 H265 0.930 . S
C278 C277 1.376 . S
C278 C279 1.388 . S
C279 H266 0.930 . S
C279 C278 1.388 . S
C279 C280 1.390 . S
C280 C279 1.390 . S
C280 C281 1.394 1_554 S
C280 C286 1.465 . S
C281 C276 1.399 . S
C281 C280 1.394 1_556 S
C281 C282 1.516 . S
C282 C281 1.516 . S
C282 C283 1.502 . S
C282 C284 1.561 . S
C282 C285 1.526 . S
C283 H267 0.959 . S
C283 H268 0.959 . S
C283 H269 0.961 . S
C283 C282 1.502 . S
C284 H270 0.960 . S
C284 H271 0.961 . S
C284 H272 0.959 . S
C284 C282 1.561 . S
C285 C282 1.526 . S
C285 C286 1.396 1_556 S
C285 C290 1.390 . S
C286 C280 1.465 . S
C286 C285 1.396 1_554 S
C286 C287 1.399 . S
C287 H273 0.929 . S
C287 C286 1.399 . S
C287 C288 1.385 . S
C288 H274 0.931 . S
C288 C287 1.385 . S
C288 C289 1.389 . S
C289 C288 1.389 . S
C289 C290 1.387 1_554 S
C290 H275 0.930 . S
C290 C285 1.390 . S
C290 C289 1.387 1_556 S
H291 C303 0.930 . S
H292 C305 0.930 . S
H293 C306 0.930 . S
H294 C310 0.959 . S
H295 C310 0.959 . S
H296 C310 0.961 . S
H297 C311 0.960 . S
H298 C311 0.961 1_565 S
H299 C311 0.959 . S
H300 C314 0.929 . S
H301 C315 0.931 . S
H302 C317 0.930 . S
C303 H291 0.930 . S
C303 C304 1.399 . S
C303 C308 1.399 . S
C304 C303 1.399 . S
C304 C305 1.376 . S
C305 H292 0.930 . S
C305 C304 1.376 . S
C305 C306 1.388 . S
C306 H293 0.930 . S
C306 C305 1.388 . S
C306 C307 1.390 . S
C307 C306 1.390 . S
C307 C308 1.394 . S
C307 C313 1.465 1_545 S
C308 C303 1.399 . S
C308 C307 1.394 . S
C308 C309 1.516 1_545 S
C309 C308 1.516 1_565 S
C309 C310 1.502 . S
C309 C311 1.561 1_565 S
C309 C312 1.526 . S
C310 H294 0.959 . S
C310 H295 0.959 . S
C310 H296 0.961 . S
C310 C309 1.502 . S
C311 H297 0.960 . S
C311 H298 0.961 1_545 S
C311 H299 0.959 . S
C311 C309 1.561 1_545 S
C312 C309 1.526 . S
C312 C313 1.396 . S
C312 C317 1.390 . S
C313 C307 1.465 1_565 S
C313 C312 1.396 . S
C313 C314 1.399 . S
C314 H300 0.929 . S
C314 C313 1.399 . S
C314 C315 1.385 . S
C315 H301 0.931 . S
C315 C314 1.385 . S
C315 C316 1.389 . S
C316 C315 1.389 . S
C316 C317 1.387 . S
C317 H302 0.930 . S
C317 C312 1.390 . S
C317 C316 1.387 . S
H318 C330 0.930 . S
H319 C332 0.930 . S
H320 C333 0.944 . S
H321 C337 0.959 . S
H322 C337 0.959 . S
H323 C337 0.961 . S
H324 C338 0.960 1_565 S
H325 C338 0.961 1_455 S
H326 C338 0.959 . S
H327 C341 0.929 . S
H328 C342 0.931 . S
H329 C344 0.930 . S
C330 H318 0.930 . S
C330 C331 1.399 . S
C330 C335 1.399 . S
C331 C330 1.399 . S
C331 C332 1.376 . S
C332 H319 0.930 . S
C332 C331 1.376 . S
C332 C333 1.388 . S
C333 H320 0.944 . S
C333 C332 1.388 . S
C333 C334 1.390 . S
C334 C333 1.390 . S
C334 C335 1.394 . S
C334 C340 1.465 1_665 S
C335 C330 1.399 . S
C335 C334 1.394 . S
C335 C336 1.516 1_655 S
C336 C335 1.516 1_455 S
C336 C337 1.502 . S
C336 C338 1.561 1_465 S
C336 C339 1.526 1_565 S
C337 H321 0.959 . S
C337 H322 0.959 . S
C337 H323 0.961 . S
C337 C336 1.502 . S
C338 H324 0.960 1_545 S
C338 H325 0.961 1_655 S
C338 H326 0.959 . S
C338 C336 1.561 1_645 S
C339 C336 1.526 1_545 S
C339 C340 1.396 . S
C339 C344 1.390 . S
C340 C334 1.465 1_445 S
C340 C339 1.396 . S
C340 C341 1.399 . S
C341 H327 0.929 . S
C341 C340 1.399 . S
C341 C342 1.385 . S
C342 H328 0.931 . S
C342 C341 1.385 . S
C342 C343 1.389 . S
C343 C342 1.389 . S
C343 C344 1.387 . S
C344 H329 0.930 . S
C344 C339 1.390 . S
C344 C343 1.387 . S
H345 C357 0.930 . S
H346 C359 0.930 . S
H347 C360 0.930 . S
H348 C364 0.959 . S
H349 C364 0.959 . S
H350 C364 0.961 . S
H351 C365 0.960 . S
H352 C365 0.961 . S
H353 C365 0.959 . S
H354 C368 0.929 . S
H355 C369 0.931 . S
H356 C371 0.930 . S
C357 H345 0.930 . S
C357 C358 1.399 . S
C357 C362 1.399 . S
C358 C357 1.399 . S
C358 C359 1.376 . S
C359 H346 0.930 . S
C359 C358 1.376 . S
C359 C360 1.388 . S
C360 H347 0.930 . S
C360 C359 1.388 . S
C360 C361 1.390 . S
C361 C360 1.390 . S
C361 C362 1.394 . S
C361 C367 1.465 1_455 S
C362 C357 1.399 . S
C362 C361 1.394 . S
C362 C363 1.516 1_455 S
C363 C362 1.516 1_655 S
C363 C364 1.502 . S
C363 C365 1.561 1_655 S
C363 C366 1.526 . S
C364 H348 0.959 . S
C364 H349 0.959 . S
C364 H350 0.961 . S
C364 C363 1.502 . S
C365 H351 0.960 . S
C365 H352 0.961 . S
C365 H353 0.959 . S
C365 C363 1.561 1_455 S
C366 C363 1.526 . S
C366 C367 1.396 . S
C366 C371 1.390 . S
C367 C361 1.465 1_655 S
C367 C366 1.396 . S
C367 C368 1.399 . S
C368 H354 0.929 . S
C368 C367 1.399 . S
C368 C369 1.385 . S
C369 H355 0.931 . S
C369 C368 1.385 . S
C369 C370 1.389 . S
C370 C369 1.389 . S
C370 C371 1.387 . S
C371 H356 0.930 . S
C371 C366 1.390 . S
C371 C370 1.387 . S
H372 C384 0.930 . S
H373 C386 0.930 . S
H374 C387 0.930 . S
H375 C391 0.959 . S
H376 C391 0.959 . S
H377 C391 0.961 . S
H378 C392 0.960 . S
H379 C392 0.961 . S
H380 C392 0.959 . S
H381 C395 0.929 . S
H382 C396 0.931 . S
H383 C398 0.930 . S
C384 H372 0.930 . S
C384 C385 1.399 . S
C384 C389 1.399 . S
C385 C384 1.399 . S
C385 C386 1.376 . S
C386 H373 0.930 . S
C386 C385 1.376 . S
C386 C387 1.388 . S
C387 H374 0.930 . S
C387 C386 1.388 . S
C387 C388 1.390 . S
C388 C387 1.390 . S
C388 C389 1.394 . S
C388 C394 1.465 . S
C389 C384 1.399 . S
C389 C388 1.394 . S
C389 C390 1.516 . S
C390 C389 1.516 . S
C390 C391 1.502 . S
C390 C392 1.561 . S
C390 C393 1.526 . S
C391 H375 0.959 . S
C391 H376 0.959 . S
C391 H377 0.961 . S
C391 C390 1.502 . S
C392 H378 0.960 . S
C392 H379 0.961 . S
C392 H380 0.959 . S
C392 C390 1.561 . S
C393 C390 1.526 . S
C393 C394 1.396 . S
C393 C398 1.390 . S
C394 C388 1.465 . S
C394 C393 1.396 . S
C394 C395 1.399 . S
C395 H381 0.929 . S
C395 C394 1.399 . S
C395 C396 1.385 . S
C396 H382 0.931 . S
C396 C395 1.385 . S
C396 C397 1.389 . S
C397 C396 1.389 . S
C397 C398 1.387 . S
C398 H383 0.930 . S
C398 C393 1.390 . S
C398 C397 1.387 . S
H399 C411 0.930 . S
H400 C413 0.930 . S
H401 C414 0.930 . S
H402 C418 0.959 . S
H403 C418 0.959 . S
H404 C418 0.961 . S
H405 C419 0.960 . S
H406 C419 0.961 . S
H407 C419 0.959 . S
H408 C422 0.929 . S
H409 C423 0.931 . S
H410 C425 0.930 . S
C411 H399 0.930 . S
C411 C412 1.399 . S
C411 C416 1.399 . S
C412 C411 1.399 . S
C412 C413 1.376 . S
C413 H400 0.930 . S
C413 C412 1.376 . S
C413 C414 1.388 . S
C414 H401 0.930 . S
C414 C413 1.388 . S
C414 C415 1.390 . S
C415 C414 1.390 . S
C415 C416 1.394 . S
C415 C421 1.465 . S
C416 C411 1.399 . S
C416 C415 1.394 . S
C416 C417 1.516 . S
C417 C416 1.516 . S
C417 C418 1.502 . S
C417 C419 1.561 . S
C417 C420 1.526 . S
C418 H402 0.959 . S
C418 H403 0.959 . S
C418 H404 0.961 . S
C418 C417 1.502 . S
C419 H405 0.960 . S
C419 H406 0.961 . S
C419 H407 0.959 . S
C419 C417 1.561 . S
C420 C417 1.526 . S
C420 C421 1.396 . S
C420 C425 1.390 . S
C421 C415 1.465 . S
C421 C420 1.396 . S
C421 C422 1.399 . S
C422 H408 0.929 . S
C422 C421 1.399 . S
C422 C423 1.385 . S
C423 H409 0.931 . S
C423 C422 1.385 . S
C423 C424 1.389 . S
C424 C423 1.389 . S
C424 C425 1.387 . S
C425 H410 0.930 . S
C425 C420 1.390 . S
C425 C424 1.387 . S
H426 C438 0.930 . S
H427 C440 0.930 . S
H428 C441 0.930 . S
H429 C445 0.958 1_554 S
H430 C445 0.953 1_554 S
H431 C445 0.968 . S
H432 C446 0.960 . S
H433 C446 0.961 1_554 S
H434 C446 0.959 . S
H435 C449 0.929 . S
H436 C450 0.931 . S
H437 C452 0.930 . S
C438 H426 0.930 . S
C438 C439 1.399 . S
C438 C443 1.399 . S
C439 C438 1.399 . S
C439 C440 1.376 . S
C440 H427 0.930 . S
C440 C439 1.376 . S
C440 C441 1.388 . S
C441 H428 0.930 . S
C441 C440 1.388 . S
C441 C442 1.390 . S
C442 C441 1.390 . S
C442 C443 1.394 . S
C442 C448 1.465 1_556 S
C443 C438 1.399 . S
C443 C442 1.394 . S
C443 C444 1.516 . S
C444 C443 1.516 . S
C444 C445 1.502 . S
C444 C446 1.561 . S
C444 C447 1.526 1_556 S
C445 H429 0.958 1_556 S
C445 H430 0.953 1_556 S
C445 H431 0.968 . S
C445 C444 1.502 . S
C446 H432 0.960 . S
C446 H433 0.961 1_556 S
C446 H434 0.959 . S
C446 C444 1.561 . S
C447 C444 1.526 1_554 S
C447 C448 1.396 . S
C447 C452 1.390 . S
C448 C442 1.465 1_554 S
C448 C447 1.396 . S
C448 C449 1.399 . S
C449 H435 0.929 . S
C449 C448 1.399 . S
C449 C450 1.385 . S
C450 H436 0.931 . S
C450 C449 1.385 . S
C450 C451 1.389 . S
C451 C450 1.389 . S
C451 C452 1.387 . S
C452 H437 0.930 . S
C452 C447 1.390 . S
C452 C451 1.387 . S
H453 C465 0.930 . S
H454 C467 0.930 . S
H455 C468 0.930 . S
H456 C472 0.959 . S
H457 C472 0.959 . S
H458 C472 0.961 . S
H459 C473 0.960 . S
H460 C473 0.961 . S
H461 C473 0.959 . S
H462 C476 0.929 . S
H463 C477 0.931 . S
H464 C479 0.930 . S
C465 H453 0.930 . S
C465 C466 1.399 . S
C465 C470 1.399 . S
C466 C465 1.399 . S
C466 C467 1.376 . S
C467 H454 0.930 . S
C467 C466 1.376 . S
C467 C468 1.388 . S
C468 H455 0.930 . S
C468 C467 1.388 . S
C468 C469 1.390 . S
C469 C468 1.390 . S
C469 C470 1.394 . S
C469 C475 1.465 . S
C470 C465 1.399 . S
C470 C469 1.394 . S
C470 C471 1.516 . S
C471 C470 1.516 . S
C471 C472 1.502 . S
C471 C473 1.561 . S
C471 C474 1.526 . S
C472 H456 0.959 . S
C472 H457 0.959 . S
C472 H458 0.961 . S
C472 C471 1.502 . S
C473 H459 0.960 . S
C473 H460 0.961 . S
C473 H461 0.959 . S
C473 C471 1.561 . S
C474 C471 1.526 . S
C474 C475 1.396 . S
C474 C479 1.390 . S
C475 C469 1.465 . S
C475 C474 1.396 . S
C475 C476 1.399 . S
C476 H462 0.929 . S
C476 C475 1.399 . S
C476 C477 1.385 . S
C477 H463 0.931 . S
C477 C476 1.385 . S
C477 C478 1.389 . S
C478 C477 1.389 . S
C478 C479 1.387 . S
C479 H464 0.930 . S
C479 C474 1.390 . S
C479 C478 1.387 . S
H480 C492 0.930 . S
H481 C494 0.930 . S
H482 C495 0.930 . S
H483 C499 0.959 . S
H484 C499 0.959 . S
H485 C499 0.961 . S
H486 C500 0.960 . S
H487 C500 0.961 . S
H488 C500 0.959 . S
H489 C503 0.929 . S
H490 C504 0.931 . S
H491 C506 0.930 . S
C492 H480 0.930 . S
C492 C493 1.399 . S
C492 C497 1.399 . S
C493 C492 1.399 . S
C493 C494 1.376 . S
C494 H481 0.930 . S
C494 C493 1.376 . S
C494 C495 1.388 . S
C495 H482 0.930 . S
C495 C494 1.388 . S
C495 C496 1.390 . S
C496 C495 1.390 . S
C496 C497 1.394 . S
C496 C502 1.465 . S
C497 C492 1.399 . S
C497 C496 1.394 . S
C497 C498 1.516 . S
C498 C497 1.516 . S
C498 C499 1.502 . S
C498 C500 1.561 . S
C498 C501 1.526 . S
C499 H483 0.959 . S
C499 H484 0.959 . S
C499 H485 0.961 . S
C499 C498 1.502 . S
C500 H486 0.960 . S
C500 H487 0.961 . S
C500 H488 0.959 . S
C500 C498 1.561 . S
C501 C498 1.526 . S
C501 C502 1.396 . S
C501 C506 1.390 . S
C502 C496 1.465 . S
C502 C501 1.396 . S
C502 C503 1.399 . S
C503 H489 0.929 . S
C503 C502 1.399 . S
C503 C504 1.385 . S
C504 H490 0.931 . S
C504 C503 1.385 . S
C504 C505 1.389 . S
C505 C504 1.389 . S
C505 C506 1.387 . S
C506 H491 0.930 . S
C506 C501 1.390 . S
C506 C505 1.387 . S
H507 C519 0.930 . S
H508 C521 0.930 . S
H509 C522 0.930 . S
H510 C526 0.959 . S
H511 C526 0.959 1_556 S
H512 C526 0.961 . S
H513 C527 0.960 . S
H514 C527 0.961 1_556 S
H515 C527 0.959 . S
H516 C530 0.929 . S
H517 C531 0.931 . S
H518 C533 0.930 . S
C519 H507 0.930 . S
C519 C520 1.399 . S
C519 C524 1.399 . S
C520 C519 1.399 . S
C520 C521 1.376 . S
C521 H508 0.930 . S
C521 C520 1.376 . S
C521 C522 1.388 . S
C522 H509 0.930 . S
C522 C521 1.388 . S
C522 C523 1.390 . S
C523 C522 1.390 . S
C523 C524 1.394 . S
C523 C529 1.465 1_554 S
C524 C519 1.399 . S
C524 C523 1.394 . S
C524 C525 1.516 . S
C525 C524 1.516 . S
C525 C526 1.502 . S
C525 C527 1.561 . S
C525 C528 1.526 1_554 S
C526 H510 0.959 . S
C526 H511 0.959 1_554 S
C526 H512 0.961 . S
C526 C525 1.502 . S
C527 H513 0.960 . S
C527 H514 0.961 1_554 S
C527 H515 0.959 . S
C527 C525 1.561 . S
C528 C525 1.526 1_556 S
C528 C529 1.396 . S
C528 C533 1.390 . S
C529 C523 1.465 1_556 S
C529 C528 1.396 . S
C529 C530 1.399 . S
C530 H516 0.929 . S
C530 C529 1.399 . S
C530 C531 1.385 . S
C531 H517 0.931 . S
C531 C530 1.385 . S
C531 C532 1.389 . S
C532 C531 1.389 . S
C532 C533 1.387 . S
C533 H518 0.930 . S
C533 C528 1.390 . S
C533 C532 1.387 . S
H534 C546 0.930 . S
H535 C548 0.930 . S
H536 C549 0.930 . S
H537 C553 0.959 . S
H538 C553 0.959 . S
H539 C553 0.961 . S
H540 C554 0.960 . S
H541 C554 0.961 . S
H542 C554 0.959 . S
H543 C557 0.929 . S
H544 C558 0.931 . S
H545 C560 0.930 . S
C546 H534 0.930 . S
C546 C547 1.399 . S
C546 C551 1.399 . S
C547 C546 1.399 . S
C547 C548 1.376 . S
C548 H535 0.930 . S
C548 C547 1.376 . S
C548 C549 1.388 . S
C549 H536 0.930 . S
C549 C548 1.388 . S
C549 C550 1.390 . S
C550 C549 1.390 . S
C550 C551 1.394 . S
C550 C556 1.465 . S
C551 C546 1.399 . S
C551 C550 1.394 . S
C551 C552 1.516 . S
C552 C551 1.516 . S
C552 C553 1.502 . S
C552 C554 1.561 . S
C552 C555 1.526 . S
C553 H537 0.959 . S
C553 H538 0.959 . S
C553 H539 0.961 . S
C553 C552 1.502 . S
C554 H540 0.960 . S
C554 H541 0.961 . S
C554 H542 0.959 . S
C554 C552 1.561 . S
C555 C552 1.526 . S
C555 C556 1.396 . S
C555 C560 1.390 . S
C556 C550 1.465 . S
C556 C555 1.396 . S
C556 C557 1.399 . S
C557 H543 0.929 . S
C557 C556 1.399 . S
C557 C558 1.385 . S
C558 H544 0.931 . S
C558 C557 1.385 . S
C558 C559 1.389 . S
C559 C558 1.389 . S
C559 C560 1.387 . S
C560 H545 0.930 . S
C560 C555 1.390 . S
C560 C559 1.387 . S
H561 C573 0.930 . S
H562 C575 0.930 . S
H563 C576 0.930 . S
H564 C580 0.959 . S
H565 C580 0.959 . S
H566 C580 0.961 . S
H567 C581 0.960 . S
H568 C581 0.961 . S
H569 C581 0.959 . S
H570 C584 0.929 . S
H571 C585 0.931 . S
H572 C587 0.930 . S
C573 H561 0.930 . S
C573 C574 1.399 . S
C573 C578 1.399 . S
C574 C573 1.399 . S
C574 C575 1.376 . S
C575 H562 0.930 . S
C575 C574 1.376 . S
C575 C576 1.388 . S
C576 H563 0.930 . S
C576 C575 1.388 . S
C576 C577 1.390 . S
C577 C576 1.390 . S
C577 C578 1.394 . S
C577 C583 1.465 . S
C578 C573 1.399 . S
C578 C577 1.394 . S
C578 C579 1.516 . S
C579 C578 1.516 . S
C579 C580 1.502 . S
C579 C581 1.561 . S
C579 C582 1.526 . S
C580 H564 0.959 . S
C580 H565 0.959 . S
C580 H566 0.961 . S
C580 C579 1.502 . S
C581 H567 0.960 . S
C581 H568 0.961 . S
C581 H569 0.959 . S
C581 C579 1.561 . S
C582 C579 1.526 . S
C582 C583 1.396 . S
C582 C587 1.390 . S
C583 C577 1.465 . S
C583 C582 1.396 . S
C583 C584 1.399 . S
C584 H570 0.929 . S
C584 C583 1.399 . S
C584 C585 1.385 . S
C585 H571 0.931 . S
C585 C584 1.385 . S
C585 C586 1.389 . S
C586 C585 1.389 . S
C586 C587 1.387 . S
C587 H572 0.930 . S
C587 C582 1.390 . S
C587 C586 1.387 . S
H588 C600 0.930 . S
H589 C602 0.930 . S
H590 C603 0.930 . S
H591 C607 0.959 . S
H592 C607 0.959 . S
H593 C607 0.961 . S
H594 C608 0.960 . S
H595 C608 0.961 . S
H596 C608 0.959 . S
H597 C611 0.929 . S
H598 C612 0.931 . S
H599 C614 0.930 . S
C600 H588 0.930 . S
C600 C601 1.399 . S
C600 C605 1.399 . S
C601 C600 1.399 . S
C601 C602 1.376 . S
C602 H589 0.930 . S
C602 C601 1.376 . S
C602 C603 1.388 . S
C603 H590 0.930 . S
C603 C602 1.388 . S
C603 C604 1.390 . S
C604 C603 1.390 . S
C604 C605 1.394 . S
C604 C610 1.465 . S
C605 C600 1.399 . S
C605 C604 1.394 . S
C605 C606 1.516 . S
C606 C605 1.516 . S
C606 C607 1.502 . S
C606 C608 1.561 . S
C606 C609 1.526 . S
C607 H591 0.959 . S
C607 H592 0.959 . S
C607 H593 0.961 . S
C607 C606 1.502 . S
C608 H594 0.960 . S
C608 H595 0.961 . S
C608 H596 0.959 . S
C608 C606 1.561 . S
C609 C606 1.526 . S
C609 C610 1.396 . S
C609 C614 1.390 . S
C610 C604 1.465 . S
C610 C609 1.396 . S
C610 C611 1.399 . S
C611 H597 0.929 . S
C611 C610 1.399 . S
C611 C612 1.385 . S
C612 H598 0.931 . S
C612 C611 1.385 . S
C612 C613 1.389 . S
C613 C612 1.389 . S
C613 C614 1.387 . S
C614 H599 0.930 . S
C614 C609 1.390 . S
C614 C613 1.387 . S
H615 C627 0.930 . S
H616 C629 0.930 . S
H617 C630 0.930 . S
H618 C634 0.959 . S
H619 C634 0.959 . S
H620 C634 0.961 . S
H621 C635 0.960 . S
H622 C635 0.961 . S
H623 C635 0.959 . S
H624 C638 0.929 1_556 S
H625 C639 0.931 1_556 S
H626 C641 0.930 . S
C627 H615 0.930 . S
C627 C628 1.399 . S
C627 C632 1.399 . S
C628 C627 1.399 . S
C628 C629 1.376 . S
C629 H616 0.930 . S
C629 C628 1.376 . S
C629 C630 1.388 . S
C630 H617 0.930 . S
C630 C629 1.388 . S
C630 C631 1.390 . S
C631 C630 1.390 . S
C631 C632 1.394 . S
C631 C637 1.465 . S
C632 C627 1.399 . S
C632 C631 1.394 . S
C632 C633 1.516 . S
C633 C632 1.516 . S
C633 C634 1.502 . S
C633 C635 1.561 . S
C633 C636 1.526 . S
C634 H618 0.959 . S
C634 H619 0.959 . S
C634 H620 0.961 . S
C634 C633 1.502 . S
C635 H621 0.960 . S
C635 H622 0.961 . S
C635 H623 0.959 . S
C635 C633 1.561 . S
C636 C633 1.526 . S
C636 C637 1.396 . S
C636 C641 1.390 . S
C637 C631 1.465 . S
C637 C636 1.396 . S
C637 C638 1.399 . S
C638 H624 0.929 1_554 S
C638 C637 1.399 . S
C638 C639 1.385 . S
C639 H625 0.931 1_554 S
C639 C638 1.385 . S
C639 C640 1.389 . S
C640 C639 1.389 . S
C640 C641 1.387 . S
C641 H626 0.930 . S
C641 C636 1.390 . S
C641 C640 1.387 . S
H642 C654 0.930 . S
H643 C656 0.930 . S
H644 C657 0.930 . S
H645 C661 0.959 . S
H646 C661 0.959 . S
H647 C661 0.961 . S
H648 C662 0.960 . S
H649 C662 0.961 . S
H650 C662 0.959 . S
H651 C665 0.929 . S
H652 C666 0.931 . S
H653 C668 0.930 . S
C654 H642 0.930 . S
C654 C655 1.399 . S
C654 C659 1.399 . S
C655 C654 1.399 . S
C655 C656 1.376 . S
C656 H643 0.930 . S
C656 C655 1.376 . S
C656 C657 1.388 . S
C657 H644 0.930 . S
C657 C656 1.388 . S
C657 C658 1.390 . S
C658 C657 1.390 . S
C658 C659 1.394 . S
C658 C664 1.465 . S
C659 C654 1.399 . S
C659 C658 1.394 . S
C659 C660 1.516 . S
C660 C659 1.516 . S
C660 C661 1.502 . S
C660 C662 1.561 . S
C660 C663 1.526 . S
C661 H645 0.959 . S
C661 H646 0.959 . S
C661 H647 0.961 . S
C661 C660 1.502 . S
C662 H648 0.960 . S
C662 H649 0.961 . S
C662 H650 0.959 . S
C662 C660 1.561 . S
C663 C660 1.526 . S
C663 C664 1.396 . S
C663 C668 1.390 . S
C664 C658 1.465 . S
C664 C663 1.396 . S
C664 C665 1.399 . S
C665 H651 0.929 . S
C665 C664 1.399 . S
C665 C666 1.385 . S
C666 H652 0.931 . S
C666 C665 1.385 . S
C666 C667 1.389 . S
C667 C666 1.389 . S
C667 C668 1.387 . S
C668 H653 0.930 . S
C668 C663 1.390 . S
C668 C667 1.387 . S
H669 C681 0.930 . S
H670 C683 0.930 . S
H671 C684 0.930 . S
H672 C688 0.959 . S
H673 C688 0.959 . S
H674 C688 0.961 . S
H675 C689 0.960 . S
H676 C689 0.961 . S
H677 C689 0.959 . S
H678 C692 0.929 . S
H679 C693 0.931 . S
H680 C695 0.930 . S
C681 H669 0.930 . S
C681 C682 1.399 . S
C681 C686 1.399 . S
C682 C681 1.399 . S
C682 C683 1.376 . S
C683 H670 0.930 . S
C683 C682 1.376 . S
C683 C684 1.388 . S
C684 H671 0.930 . S
C684 C683 1.388 . S
C684 C685 1.390 . S
C685 C684 1.390 . S
C685 C686 1.394 . S
C685 C691 1.465 . S
C686 C681 1.399 . S
C686 C685 1.394 . S
C686 C687 1.516 . S
C687 C686 1.516 . S
C687 C688 1.502 . S
C687 C689 1.561 . S
C687 C690 1.526 . S
C688 H672 0.959 . S
C688 H673 0.959 . S
C688 H674 0.961 . S
C688 C687 1.502 . S
C689 H675 0.960 . S
C689 H676 0.961 . S
C689 H677 0.959 . S
C689 C687 1.561 . S
C690 C687 1.526 . S
C690 C691 1.396 . S
C690 C695 1.390 . S
C691 C685 1.465 . S
C691 C690 1.396 . S
C691 C692 1.399 . S
C692 H678 0.929 . S
C692 C691 1.399 . S
C692 C693 1.385 . S
C693 H679 0.931 . S
C693 C692 1.385 . S
C693 C694 1.389 . S
C694 C693 1.389 . S
C694 C695 1.387 . S
C695 H680 0.930 . S
C695 C690 1.390 . S
C695 C694 1.387 . S
H696 C708 0.930 . S
H697 C710 0.930 . S
H698 C711 0.930 . S
H699 C715 0.959 . S
H700 C715 0.959 . S
H701 C715 0.961 . S
H702 C716 0.960 . S
H703 C716 0.961 . S
H704 C716 0.959 . S
H705 C719 0.929 . S
H706 C720 0.931 . S
H707 C722 0.930 . S
C708 H696 0.930 . S
C708 C709 1.399 . S
C708 C713 1.399 . S
C709 C708 1.399 . S
C709 C710 1.376 . S
C710 H697 0.930 . S
C710 C709 1.376 . S
C710 C711 1.388 . S
C711 H698 0.930 . S
C711 C710 1.388 . S
C711 C712 1.390 . S
C712 C711 1.390 . S
C712 C713 1.394 . S
C712 C718 1.465 . S
C713 C708 1.399 . S
C713 C712 1.394 . S
C713 C714 1.516 . S
C714 C713 1.516 . S
C714 C715 1.502 . S
C714 C716 1.561 . S
C714 C717 1.526 . S
C715 H699 0.959 . S
C715 H700 0.959 . S
C715 H701 0.961 . S
C715 C714 1.502 . S
C716 H702 0.960 . S
C716 H703 0.961 . S
C716 H704 0.959 . S
C716 C714 1.561 . S
C717 C714 1.526 . S
C717 C718 1.396 . S
C717 C722 1.390 . S
C718 C712 1.465 . S
C718 C717 1.396 . S
C718 C719 1.399 . S
C719 H705 0.929 . S
C719 C718 1.399 . S
C719 C720 1.385 . S
C720 H706 0.931 . S
C720 C719 1.385 . S
C720 C721 1.389 . S
C721 C720 1.389 . S
C721 C722 1.387 . S
C722 H707 0.930 . S
C722 C717 1.390 . S
C722 C721 1.387 . S
H723 C735 0.930 . S
H724 C737 0.930 . S
H725 C738 0.930 . S
H726 C742 0.959 . S
H727 C742 0.959 . S
H728 C742 0.961 . S
H729 C743 0.960 . S
H730 C743 0.961 . S
H731 C743 0.959 . S
H732 C746 0.929 . S
H733 C747 0.931 . S
H734 C749 0.930 . S
C735 H723 0.930 . S
C735 C736 1.399 . S
C735 C740 1.399 . S
C736 C735 1.399 . S
C736 C737 1.376 . S
C737 H724 0.930 . S
C737 C736 1.376 . S
C737 C738 1.388 . S
C738 H725 0.930 . S
C738 C737 1.388 . S
C738 C739 1.390 . S
C739 C738 1.390 . S
C739 C740 1.394 . S
C739 C745 1.465 . S
C740 C735 1.399 . S
C740 C739 1.394 . S
C740 C741 1.516 . S
C741 C740 1.516 . S
C741 C742 1.502 . S
C741 C743 1.561 . S
C741 C744 1.526 . S
C742 H726 0.959 . S
C742 H727 0.959 . S
C742 H728 0.961 . S
C742 C741 1.502 . S
C743 H729 0.960 . S
C743 H730 0.961 . S
C743 H731 0.959 . S
C743 C741 1.561 . S
C744 C741 1.526 . S
C744 C745 1.396 . S
C744 C749 1.390 . S
C745 C739 1.465 . S
C745 C744 1.396 . S
C745 C746 1.399 . S
C746 H732 0.929 . S
C746 C745 1.399 . S
C746 C747 1.385 . S
C747 H733 0.931 . S
C747 C746 1.385 . S
C747 C748 1.389 . S
C748 C747 1.389 . S
C748 C749 1.387 . S
C749 H734 0.930 . S
C749 C744 1.390 . S
C749 C748 1.387 . S
H750 C762 0.930 . S
H751 C764 0.930 . S
H752 C765 0.930 . S
H753 C769 0.959 . S
H754 C769 0.959 . S
H755 C769 0.961 . S
H756 C770 0.960 . S
H757 C770 0.961 . S
H758 C770 0.959 . S
H759 C773 0.929 . S
H760 C774 0.931 . S
H761 C776 0.930 . S
C762 H750 0.930 . S
C762 C763 1.399 . S
C762 C767 1.399 . S
C763 C762 1.399 . S
C763 C764 1.376 . S
C764 H751 0.930 . S
C764 C763 1.376 . S
C764 C765 1.388 . S
C765 H752 0.930 . S
C765 C764 1.388 . S
C765 C766 1.390 . S
C766 C765 1.390 . S
C766 C767 1.394 . S
C766 C772 1.465 . S
C767 C762 1.399 . S
C767 C766 1.394 . S
C767 C768 1.516 . S
C768 C767 1.516 . S
C768 C769 1.502 . S
C768 C770 1.561 . S
C768 C771 1.526 . S
C769 H753 0.959 . S
C769 H754 0.959 . S
C769 H755 0.961 . S
C769 C768 1.502 . S
C770 H756 0.960 . S
C770 H757 0.961 . S
C770 H758 0.959 . S
C770 C768 1.561 . S
C771 C768 1.526 . S
C771 C772 1.396 . S
C771 C776 1.390 . S
C772 C766 1.465 . S
C772 C771 1.396 . S
C772 C773 1.399 . S
C773 H759 0.929 . S
C773 C772 1.399 . S
C773 C774 1.385 . S
C774 H760 0.931 . S
C774 C773 1.385 . S
C774 C775 1.389 . S
C775 C774 1.389 . S
C775 C776 1.387 . S
C776 H761 0.930 . S
C776 C771 1.390 . S
C776 C775 1.387 . S
H777 C789 0.930 1_556 S
H778 C791 0.930 . S
H779 C792 0.930 . S
H780 C796 0.959 . S
H781 C796 0.959 . S
H782 C796 0.961 1_556 S
H783 C797 0.960 . S
H784 C797 0.961 . S
H785 C797 0.959 . S
H786 C800 0.929 . S
H787 C801 0.931 . S
H788 C803 0.930 . S
C789 H777 0.930 1_554 S
C789 C790 1.399 . S
C789 C794 1.399 . S
C790 C789 1.399 . S
C790 C791 1.376 . S
C791 H778 0.930 . S
C791 C790 1.376 . S
C791 C792 1.388 . S
C792 H779 0.930 . S
C792 C791 1.388 . S
C792 C793 1.390 . S
C793 C792 1.390 . S
C793 C794 1.394 . S
C793 C799 1.465 . S
C794 C789 1.399 . S
C794 C793 1.394 . S
C794 C795 1.516 . S
C795 C794 1.516 . S
C795 C796 1.502 . S
C795 C797 1.561 1_554 S
C795 C798 1.526 . S
C796 H780 0.959 . S
C796 H781 0.959 . S
C796 H782 0.961 1_554 S
C796 C795 1.502 . S
C797 H783 0.960 . S
C797 H784 0.961 . S
C797 H785 0.959 . S
C797 C795 1.561 1_556 S
C798 C795 1.526 . S
C798 C799 1.396 . S
C798 C803 1.390 . S
C799 C793 1.465 . S
C799 C798 1.396 . S
C799 C800 1.399 . S
C800 H786 0.929 . S
C800 C799 1.399 . S
C800 C801 1.385 . S
C801 H787 0.931 . S
C801 C800 1.385 . S
C801 C802 1.389 . S
C802 C801 1.389 . S
C802 C803 1.387 . S
C803 H788 0.930 . S
C803 C798 1.390 . S
C803 C802 1.387 . S
C277 C248 1.241 . S
C289 C17 1.237 . S
C304 C149 1.228 . S
C316 C50 1.225 . S
C331 C182 1.216 . S
C343 C83 1.212 . S
C358 C215 1.243 . S
C370 C116 1.224 . S
C385 N5 1.431 . S
C397 N14 1.396 . S
C412 N47 1.391 1_556 S
C424 N38 1.434 . S
C439 N71 1.430 . S
C451 N80 1.398 . S
C466 N113 1.427 1_554 S
C478 N104 1.405 . S
C493 N146 1.391 1_556 S
C505 N137 1.434 . S
C520 N179 1.384 . S
C532 N170 1.425 . S
C547 N212 1.428 . S
C559 N203 1.398 1_554 S
C574 N245 1.430 . S
C586 N236 1.412 . S
C601 C226 1.327 . S
C613 C8 1.344 . S
C628 C41 1.385 . S
C640 C259 1.385 . S
C655 C160 1.357 . S
C667 C74 1.358 . S
C682 C127 1.332 . S
C694 C193 1.327 . S
C709 C173 1.329 . S
C721 C61 1.329 . S
C736 C94 1.342 . S
C748 C206 1.346 . S
C763 C239 1.350 . S
C775 C107 1.354 . S
C790 C28 1.358 . S
C802 C140 1.363 . S
