# Generated by pormake.
# Topology qtz-e, (6)-cn, num edge types: 1
# Building blocks:
#     Node 0, Type 0, BuildingBlock: LEVNOQ01_clean_sbu_1, # of connection points: 6
#     Node 1, Type 0, BuildingBlock: LEVNOQ01_clean_sbu_1, # of connection points: 6
#     Node 2, Type 0, BuildingBlock: LEVNOQ01_clean_sbu_1, # of connection points: 6
#     Node 3, Type 0, BuildingBlock: LEVNOQ01_clean_sbu_1, # of connection points: 6
#     Node 4, Type 0, BuildingBlock: LEVNOQ01_clean_sbu_1, # of connection points: 6
#     Node 5, Type 0, BuildingBlock: LEVNOQ01_clean_sbu_1, # of connection points: 6
#     Edge 6, Type (0, 0), BuildingBlock: TEMPAE_clean_linker_10, # of connection points: 2
#     Edge 7, Type (0, 0), BuildingBlock: TEMPAE_clean_linker_10, # of connection points: 2
#     Edge 8, Type (0, 0), BuildingBlock: TEMPAE_clean_linker_10, # of connection points: 2
#     Edge 9, Type (0, 0), BuildingBlock: TEMPAE_clean_linker_10, # of connection points: 2
#     Edge 10, Type (0, 0), BuildingBlock: TEMPAE_clean_linker_10, # of connection points: 2
#     Edge 11, Type (0, 0), BuildingBlock: TEMPAE_clean_linker_10, # of connection points: 2
#     Edge 12, Type (0, 0), BuildingBlock: TEMPAE_clean_linker_10, # of connection points: 2
#     Edge 13, Type (0, 0), BuildingBlock: TEMPAE_clean_linker_10, # of connection points: 2
#     Edge 14, Type (0, 0), BuildingBlock: TEMPAE_clean_linker_10, # of connection points: 2
#     Edge 15, Type (0, 0), BuildingBlock: TEMPAE_clean_linker_10, # of connection points: 2
#     Edge 16, Type (0, 0), BuildingBlock: TEMPAE_clean_linker_10, # of connection points: 2
#     Edge 17, Type (0, 0), BuildingBlock: TEMPAE_clean_linker_10, # of connection points: 2
#     Edge 18, Type (0, 0), BuildingBlock: TEMPAE_clean_linker_10, # of connection points: 2
#     Edge 19, Type (0, 0), BuildingBlock: TEMPAE_clean_linker_10, # of connection points: 2
#     Edge 20, Type (0, 0), BuildingBlock: TEMPAE_clean_linker_10, # of connection points: 2
#     Edge 21, Type (0, 0), BuildingBlock: TEMPAE_clean_linker_10, # of connection points: 2
#     Edge 22, Type (0, 0), BuildingBlock: TEMPAE_clean_linker_10, # of connection points: 2
#     Edge 23, Type (0, 0), BuildingBlock: TEMPAE_clean_linker_10, # of connection points: 2
# Relax obj value: 0.330
# Max RMSD: 0.227
# Mean RMSD: 0.227
data_MOF--net-qtz-e--node1-LEVNOQ01_clean_sbu_1--edge1-TEMPAE_clean_linker_10
_symmetry_space_group_name_H-M    P1
_symmetry_Int_Tables_number       1
_symmetry_cell_setting            triclinic
loop_
_symmetry_equiv_pos_as_xyz
'x, y, z'
_cell_length_a     28.533392
_cell_length_b     28.576535
_cell_length_c     31.406395
_cell_angle_alpha  89.836956
_cell_angle_beta   90.141235
_cell_angle_gamma 120.18989
loop_
_atom_site_label
_atom_site_type_symbol
_atom_site_fract_x
_atom_site_fract_y
_atom_site_fract_z
_atom_type_partial_charge
O0 O 0.27469 0.40023 0.07668 0.0
Mg1 Mg 0.28755 0.46643 0.03732 0.0
O2 O 0.26336 0.37486 0.01159 0.0
Mg3 Mg 0.1912 0.39034 -0.0002 0.0
O4 O 0.21919 0.47002 0.03823 0.0
O5 O 0.2968 0.53226 0.06904 0.0
O6 O 0.1202 0.40146 0.98144 0.0
O7 O 0.15136 0.34669 0.06209 0.0
Mg8 Mg 0.07375 0.2726 0.98485 0.0
O9 O 0.15216 0.31298 0.96518 0.0
O10 O 0.04322 0.32487 0.9676 0.0
O11 O 0.08192 0.26357 0.05112 0.0
O12 O 0.09558 0.23238 0.93963 0.0
C13 C 0.28881 0.46896 0.93874 0.0
C14 C 0.28867 0.38144 0.04633 0.0
C15 C 0.24653 0.51434 0.05978 0.0
C16 C 0.07068 0.37628 0.96975 0.0
C17 C 0.11501 0.30073 0.07593 0.0
C18 C 0.14383 0.27368 0.94111 0.0
O19 O 0.317 0.48034 0.97272 0.0
O20 O 0.23734 0.43774 0.93991 0.0
O21 O 0.75935 0.06251 0.35147 0.0
Mg22 Mg 0.74793 0.06338 0.28377 0.0
O23 O 0.77525 0.14512 0.36925 0.0
Mg24 Mg 0.77891 0.19327 0.31018 0.0
O25 O 0.79771 0.14173 0.27218 0.0
O26 O 0.81645 0.08443 0.24268 0.0
O27 O 0.78272 0.24256 0.25231 0.0
O28 O 0.87395 0.24939 0.31489 0.0
Mg29 Mg 0.82764 0.28996 0.34593 0.0
O30 O 0.7478 0.24006 0.35303 0.0
O31 O 0.84371 0.32049 0.28102 0.0
O32 O 0.86304 0.25071 0.38152 0.0
O33 O 0.7937 0.32371 0.38107 0.0
C34 C 0.65612 0.0898 0.28189 0.0
C35 C 0.76879 0.09899 0.379 0.0
C36 C 0.83061 0.13391 0.25054 0.0
C37 C 0.81596 0.29315 0.24914 0.0
C38 C 0.89572 0.266 0.35099 0.0
C39 C 0.74892 0.27864 0.37562 0.0
O40 O 0.67191 0.05795 0.26836 0.0
O41 O 0.6881 0.13526 0.29934 0.0
O42 O 0.57564 0.90914 0.72453 0.0
Mg43 Mg 0.50542 0.84888 0.69241 0.0
O44 O 0.61555 0.89768 0.6707 0.0
Mg45 Mg 0.58136 0.80614 0.66708 0.0
O46 O 0.50138 0.77727 0.70354 0.0
O47 O 0.4383 0.79432 0.72699 0.0
O48 O 0.55478 0.7176 0.65759 0.0
O49 O 0.6159 0.80443 0.73206 0.0
Mg50 Mg 0.69232 0.7892 0.66313 0.0
O51 O 0.65896 0.82928 0.63681 0.0
O52 O 0.62806 0.70801 0.65262 0.0
O53 O 0.69708 0.81119 0.72854 0.0
O54 O 0.73862 0.84716 0.61453 0.0
C55 C 0.5121 0.82944 0.59501 0.0
C56 C 0.61084 0.92987 0.69555 0.0
C57 C 0.45648 0.76128 0.72397 0.0
C58 C 0.57689 0.68879 0.65244 0.0
C59 C 0.65822 0.80936 0.74979 0.0
C60 C 0.6996 0.85732 0.6129 0.0
O61 O 0.49752 0.84978 0.62466 0.0
O62 O 0.54185 0.80851 0.60264 0.0
O63 O 0.90917 0.68678 0.01948 0.0
Mg64 Mg 0.91237 0.70912 0.95438 0.0
O65 O 0.83551 0.60352 0.02253 0.0
Mg66 Mg 0.79804 0.58201 0.95518 0.0
O67 O 0.83249 0.66738 0.94226 0.0
O68 O 0.87538 0.75432 0.9315 0.0
O69 O 0.76174 0.56798 0.88626 0.0
O70 O 0.71813 0.57213 0.97793 0.0
Mg71 Mg 0.72236 0.47364 0.92187 0.0
O72 O 0.76893 0.49402 0.97444 0.0
O73 O 0.77613 0.50342 0.86929 0.0
O74 O 0.66686 0.50253 0.93496 0.0
O75 O 0.71508 0.40821 0.95598 0.0
C76 C 0.92174 0.61742 0.91614 0.0
C77 C 0.87665 0.64377 0.03972 0.0
C78 C 0.83041 0.70903 0.93149 0.0
C79 C 0.76262 0.53717 0.85758 0.0
C80 C 0.67249 0.53935 0.96087 0.0
C81 C 0.74984 0.44319 0.98216 0.0
O82 O 0.9449 0.66884 0.91745 0.0
O83 O 0.87412 0.58713 0.93029 0.0
O84 O 0.11809 0.68587 0.40565 0.0
Mg85 Mg 0.16017 0.68578 0.349 0.0
O86 O 0.08038 0.68979 0.3483 0.0
Mg87 Mg 0.16224 0.77098 0.33141 0.0
O88 O 0.23356 0.75219 0.35021 0.0
O89 O 0.21897 0.66838 0.36204 0.0
O90 O 0.23519 0.84983 0.31252 0.0
O91 O 0.17346 0.80246 0.39857 0.0
Mg92 Mg 0.14422 0.87799 0.34341 0.0
O93 O 0.10906 0.80445 0.31458 0.0
O94 O 0.22601 0.92228 0.31776 0.0
O95 O 0.14161 0.85791 0.40928 0.0
O96 O 0.07422 0.85687 0.30595 0.0
C97 C 0.13347 0.69022 0.25625 0.0
C98 C 0.07698 0.66408 0.38214 0.0
C99 C 0.25164 0.72002 0.36098 0.0
C100 C 0.25436 0.90055 0.30875 0.0
C101 C 0.16434 0.83225 0.42302 0.0
C102 C 0.07248 0.81193 0.29762 0.0
O103 O 0.12472 0.65724 0.28653 0.0
O104 O 0.15483 0.74045 0.26396 0.0
O105 O 0.2382 0.13769 0.69187 0.0
Mg106 Mg 0.26636 0.1738 0.6299 0.0
O107 O 0.32177 0.16015 0.70918 0.0
Mg108 Mg 0.38433 0.18346 0.65965 0.0
O109 O 0.32209 0.1541 0.60846 0.0
O110 O 0.25007 0.13366 0.57031 0.0
O111 O 0.45227 0.20857 0.61266 0.0
O112 O 0.37674 0.09865 0.66008 0.0
Mg113 Mg 0.4778 0.16935 0.71119 0.0
O114 O 0.44459 0.21648 0.71354 0.0
O115 O 0.51257 0.19454 0.64795 0.0
O116 O 0.40877 0.09137 0.72101 0.0
O117 O 0.50663 0.22697 0.76018 0.0
C118 C 0.36307 0.28767 0.64406 0.0
C119 C 0.27337 0.14427 0.7198 0.0
C120 C 0.29474 0.13313 0.57439 0.0
C121 C 0.49729 0.20921 0.61459 0.0
C122 C 0.38849 0.07111 0.68528 0.0
C123 C 0.47635 0.24404 0.74417 0.0
O124 O 0.31338 0.25967 0.63347 0.0
O125 O 0.39188 0.26665 0.65404 0.0
C126 C 0.17403 0.70243 0.18503 0.0
C127 C 0.13054 0.67149 0.21238 0.0
C128 C 0.18415 0.67824 0.15032 0.0
C129 C 0.14826 0.62265 0.142 0.0
C130 C 0.09901 0.59439 0.16489 0.0
C131 C 0.09153 0.61862 0.20098 0.0
C132 C 0.23768 0.70983 0.12743 0.0
C133 C 0.05764 0.53641 0.15474 0.0
C134 C 0.18998 0.55812 0.05532 0.0
C135 C 0.21861 0.53964 0.07959 0.0
C136 C 0.16589 0.58491 0.07502 0.0
C137 C 0.16945 0.59143 0.11983 0.0
C138 C 0.19667 0.57059 0.14433 0.0
C139 C 0.22144 0.54551 0.12375 0.0
C140 C 0.13854 0.60773 0.04786 0.0
C141 C 0.20083 0.57572 0.19231 0.0
H142 H 0.20406 0.74349 0.19383 0.0
H143 H 0.05709 0.59515 0.2217 0.0
H144 H 0.26676 0.69866 0.14087 0.0
H145 H 0.23338 0.70025 0.09303 0.0
H146 H 0.25528 0.7542 0.13131 0.0
H147 H 0.01673 0.52595 0.16635 0.0
H148 H 0.05554 0.5289 0.11993 0.0
H149 H 0.06935 0.50906 0.17065 0.0
H150 H 0.18802 0.55322 0.02102 0.0
H151 H 0.24305 0.53019 0.14224 0.0
H152 H 0.16574 0.65198 0.04407 0.0
H153 H 0.10086 0.60134 0.0633 0.0
H154 H 0.12922 0.58961 0.01554 0.0
H155 H 0.22014 0.61892 0.20168 0.0
H156 H 0.22478 0.55853 0.20622 0.0
H157 H 0.15972 0.55423 0.20659 0.0
C158 C 0.50815 0.22325 0.53608 0.0
C159 C 0.53054 0.22304 0.57587 0.0
C160 C 0.53817 0.23259 0.49868 0.0
C161 C 0.59128 0.241 0.50133 0.0
C162 C 0.61431 0.24146 0.5414 0.0
C163 C 0.58391 0.23342 0.57829 0.0
C164 C 0.51298 0.23293 0.45643 0.0
C165 C 0.6707 0.24949 0.54531 0.0
C166 C 0.66135 0.21552 0.41041 0.0
C167 C 0.70105 0.26865 0.4001 0.0
C168 C 0.62279 0.20562 0.44188 0.0
C169 C 0.62363 0.25002 0.46246 0.0
C170 C 0.66046 0.30357 0.4493 0.0
C171 C 0.69908 0.31228 0.41833 0.0
C172 C 0.58413 0.14795 0.45541 0.0
C173 C 0.66194 0.35182 0.47025 0.0
H174 H 0.46681 0.21522 0.53401 0.0
H175 H 0.60162 0.23412 0.60903 0.0
H176 H 0.53962 0.27115 0.43908 0.0
H177 H 0.50886 0.19921 0.43632 0.0
H178 H 0.47232 0.2287 0.46016 0.0
H179 H 0.68193 0.24736 0.57886 0.0
H180 H 0.67352 0.21804 0.5267 0.0
H181 H 0.70084 0.28943 0.53195 0.0
H182 H 0.6628 0.18171 0.39623 0.0
H183 H 0.72945 0.3534 0.40994 0.0
H184 H 0.54169 0.13926 0.45334 0.0
H185 H 0.59187 0.14213 0.48913 0.0
H186 H 0.58825 0.11811 0.43557 0.0
H187 H 0.68744 0.38988 0.45226 0.0
H188 H 0.67883 0.35681 0.50287 0.0
H189 H 0.62043 0.34554 0.47322 0.0
C190 C 0.28951 0.48569 0.85976 0.0
C191 C 0.31603 0.49903 0.89933 0.0
C192 C 0.31239 0.52027 0.82438 0.0
C193 C 0.36175 0.56987 0.82926 0.0
C194 C 0.39027 0.58142 0.86828 0.0
C195 C 0.36748 0.54557 0.90251 0.0
C196 C 0.28252 0.50527 0.78246 0.0
C197 C 0.44223 0.63422 0.87573 0.0
C198 C 0.44465 0.67004 0.74202 0.0
C199 C 0.42818 0.70849 0.7464 0.0
C200 C 0.42046 0.62218 0.76639 0.0
C201 C 0.37985 0.61335 0.79652 0.0
C202 C 0.36149 0.65094 0.79953 0.0
C203 C 0.38553 0.69766 0.77425 0.0
C204 C 0.44096 0.58315 0.76109 0.0
C205 C 0.31865 0.64359 0.83137 0.0
H206 H 0.25022 0.44928 0.85679 0.0
H207 H 0.38866 0.55632 0.93278 0.0
H208 H 0.26504 0.53169 0.77647 0.0
H209 H 0.31098 0.51185 0.75602 0.0
H210 H 0.24913 0.46241 0.782 0.0
H211 H 0.46627 0.63074 0.90215 0.0
H212 H 0.46767 0.64825 0.84673 0.0
H213 H 0.43213 0.66571 0.88449 0.0
H214 H 0.47721 0.67773 0.72029 0.0
H215 H 0.37221 0.7269 0.77772 0.0
H216 H 0.41297 0.54253 0.77452 0.0
H217 H 0.48086 0.59976 0.77714 0.0
H218 H 0.4472 0.57868 0.72681 0.0
H219 H 0.30623 0.67451 0.82764 0.0
H220 H 0.33446 0.64651 0.86418 0.0
H221 H 0.28218 0.60289 0.82797 0.0
C222 C 0.7764 0.33947 0.21 0.0
C223 C 0.81407 0.3219 0.21125 0.0
C224 C 0.77033 0.36393 0.1734 0.0
C225 C 0.80287 0.37084 0.13734 0.0
C226 C 0.84267 0.35505 0.13917 0.0
C227 C 0.84767 0.33034 0.17632 0.0
C228 C 0.72784 0.38068 0.17287 0.0
C229 C 0.87864 0.3628 0.10151 0.0
C230 C 0.74032 0.36986 0.03074 0.0
C231 C 0.76557 0.42517 0.02103 0.0
C232 C 0.75282 0.3518 0.06823 0.0
C233 C 0.79165 0.38999 0.09671 0.0
C234 C 0.81761 0.44594 0.08706 0.0
C235 C 0.80447 0.46287 0.04912 0.0
C236 C 0.7236 0.29183 0.07776 0.0
C237 C 0.8592 0.48794 0.11665 0.0
H238 H 0.75081 0.3329 0.23748 0.0
H239 H 0.87698 0.31679 0.17782 0.0
H240 H 0.74618 0.42361 0.16284 0.0
H241 H 0.6958 0.35582 0.14937 0.0
H242 H 0.70851 0.37577 0.2045 0.0
H243 H 0.90961 0.35127 0.1089 0.0
H244 H 0.85359 0.33789 0.07439 0.0
H245 H 0.89956 0.4057 0.09098 0.0
H246 H 0.71009 0.34048 0.00929 0.0
H247 H 0.82442 0.50566 0.04168 0.0
H248 H 0.70022 0.2835 0.10776 0.0
H249 H 0.75338 0.27813 0.08246 0.0
H250 H 0.69521 0.2674 0.0519 0.0
H251 H 0.84574 0.47904 0.1503 0.0
H252 H 0.86743 0.52928 0.10881 0.0
H253 H 0.89773 0.48749 0.11399 0.0
C254 C 0.43777 0.82325 0.54991 0.0
C255 C 0.48756 0.82463 0.5524 0.0
C256 C 0.40936 0.81277 0.51155 0.0
C257 C 0.43184 0.80486 0.474 0.0
C258 C 0.48404 0.8102 0.47549 0.0
C259 C 0.51096 0.81898 0.51497 0.0
C260 C 0.35359 0.80685 0.51196 0.0
C261 C 0.51067 0.80494 0.43581 0.0
C262 C 0.31888 0.7072 0.40242 0.0
C263 C 0.30647 0.74218 0.38001 0.0
C264 C 0.36284 0.7273 0.43065 0.0
C265 C 0.39674 0.78395 0.43543 0.0
C266 C 0.3884 0.81944 0.40902 0.0
C267 C 0.34269 0.79818 0.38213 0.0
C268 C 0.36889 0.68775 0.45891 0.0
C269 C 0.4257 0.87995 0.41133 0.0
H270 H 0.41933 0.82767 0.57862 0.0
H271 H 0.5499 0.82101 0.51654 0.0
H272 H 0.35168 0.83539 0.48899 0.0
H273 H 0.32277 0.76524 0.50209 0.0
H274 H 0.34229 0.81466 0.54389 0.0
H275 H 0.55519 0.82359 0.44001 0.0
H276 H 0.49383 0.76152 0.42822 0.0
H277 H 0.50265 0.82422 0.40818 0.0
H278 H 0.29151 0.66383 0.40087 0.0
H279 H 0.33381 0.82553 0.36467 0.0
H280 H 0.35802 0.69167 0.49211 0.0
H281 H 0.41144 0.69674 0.45918 0.0
H282 H 0.34242 0.64511 0.44865 0.0
H283 H 0.42442 0.89497 0.44358 0.0
H284 H 0.41474 0.90187 0.38773 0.0
H285 H 0.4681 0.88994 0.40555 0.0
C286 C 0.68064 0.53269 0.8242 0.0
C287 C 0.72179 0.51937 0.823 0.0
C288 C 0.63001 0.49885 0.80509 0.0
C289 C 0.62081 0.45094 0.7843 0.0
C290 C 0.66473 0.44148 0.77851 0.0
C291 C 0.71511 0.47696 0.79672 0.0
C292 C 0.58596 0.51272 0.81108 0.0
C293 C 0.65735 0.39049 0.75764 0.0
C294 C 0.49818 0.31485 0.7974 0.0
C295 C 0.48817 0.29874 0.75482 0.0
C296 C 0.53606 0.36846 0.80804 0.0
C297 C 0.56503 0.4059 0.77496 0.0
C298 C 0.5479 0.39159 0.73219 0.0
C299 C 0.5087 0.33794 0.72264 0.0
C300 C 0.55075 0.38244 0.85435 0.0
C301 C 0.57589 0.42983 0.69563 0.0
H302 H 0.68577 0.56633 0.84356 0.0
H303 H 0.7474 0.46752 0.79473 0.0
H304 H 0.54667 0.48265 0.79679 0.0
H305 H 0.57979 0.51605 0.84558 0.0
H306 H 0.59915 0.5531 0.79686 0.0
H307 H 0.69432 0.38696 0.75979 0.0
H308 H 0.62343 0.35407 0.77278 0.0
H309 H 0.64739 0.39012 0.72351 0.0
H310 H 0.48137 0.28425 0.82219 0.0
H311 H 0.50058 0.3254 0.68958 0.0
H312 H 0.54874 0.41903 0.86277 0.0
H313 H 0.5929 0.39147 0.86011 0.0
H314 H 0.52318 0.34904 0.87598 0.0
H315 H 0.60311 0.47215 0.70604 0.0
H316 H 0.54503 0.42857 0.67354 0.0
H317 H 0.59978 0.41599 0.6772 0.0
C318 C 0.36687 0.37915 0.01287 0.0
C319 C 0.34734 0.40251 0.04171 0.0
C320 C 0.42197 0.40609 0.00161 0.0
C321 C 0.45724 0.45887 0.01768 0.0
C322 C 0.4375 0.48252 0.0467 0.0
C323 C 0.38351 0.45314 0.05965 0.0
C324 C 0.44192 0.37856 0.97173 0.0
C325 C 0.47192 0.5395 0.06347 0.0
C326 C 0.60812 0.51253 0.01952 0.0
C327 C 0.6228 0.53381 0.97848 0.0
C328 C 0.55427 0.48864 0.03295 0.0
C329 C 0.51505 0.48853 0.00519 0.0
C330 C 0.53113 0.51536 0.96528 0.0
C331 C 0.58484 0.53632 0.9518 0.0
C332 C 0.53893 0.4607 0.07576 0.0
C333 C 0.4917 0.52009 0.93592 0.0
H334 H 0.33889 0.34046 -0.00151 0.0
H335 H 0.36886 0.47219 0.08153 0.0
H336 H 0.48169 0.38457 0.98243 0.0
H337 H 0.41272 0.33442 0.96926 0.0
H338 H 0.44744 0.39642 0.93947 0.0
H339 H 0.44799 0.56043 0.06416 0.0
H340 H 0.48393 0.5377 0.0968 0.0
H341 H 0.509 0.56446 0.04438 0.0
H342 H 0.63782 0.51018 0.03966 0.0
H343 H 0.59669 0.55286 0.91996 0.0
H344 H 0.50401 0.41894 0.0724 0.0
H345 H 0.52648 0.48303 0.09744 0.0
H346 H 0.57303 0.45859 0.09094 0.0
H347 H 0.47318 0.48482 0.91413 0.0
H348 H 0.51278 0.55715 0.91593 0.0
H349 H 0.45874 0.52116 0.95378 0.0
C350 C -0.00029 0.57384 0.35907 0.0
C351 C 0.0509 0.60474 0.37775 0.0
C352 C 0.97894 0.51849 0.35059 0.0
C353 C 0.01166 0.495 0.35881 0.0
C354 C 0.06433 0.52695 0.37541 0.0
C355 C 0.08223 0.58044 0.38641 0.0
C356 C 0.92199 0.4851 0.33354 0.0
C357 C 0.10193 0.50458 0.38184 0.0
C358 C 0.94919 0.34938 0.39271 0.0
C359 C 0.94111 0.3226 0.35365 0.0
C360 C 0.96992 0.4051 0.39419 0.0
C361 C -0.01103 0.4358 0.35634 0.0
C362 C -0.01125 0.4102 0.3177 0.0
C363 C 0.96382 0.35346 0.31659 0.0
C364 C 0.96768 0.43041 0.43585 0.0
C365 C 0.01175 0.442 0.27711 0.0
H366 H 0.97595 0.59278 0.35163 0.0
H367 H 0.12232 0.60395 0.40018 0.0
H368 H 0.92306 0.46975 0.30139 0.0
H369 H 0.89802 0.44939 0.35436 0.0
H370 H 0.90087 0.50875 0.33127 0.0
H371 H 0.14446 0.5371 0.38759 0.0
H372 H 0.08842 0.47679 0.40959 0.0
H373 H 0.10109 0.48101 0.35351 0.0
H374 H 0.93324 0.32606 0.42174 0.0
H375 H 0.95873 0.33327 0.2863 0.0
H376 H 0.94671 0.45389 0.43118 0.0
H377 H 0.00925 0.45893 0.44731 0.0
H378 H 0.94608 0.39975 0.46115 0.0
H379 H 0.9811 0.44967 0.26195 0.0
H380 H 0.02205 0.41926 0.25401 0.0
H381 H 0.04858 0.48171 0.28341 0.0
C382 C 0.45196 0.07019 0.63304 0.0
C383 C 0.41343 0.04256 0.66499 0.0
C384 C 0.49486 0.06085 0.62611 0.0
C385 C 0.49634 0.01938 0.64925 0.0
C386 C 0.45199 0.98464 0.67581 0.0
C387 C 0.41206 -0.00187 0.6849 0.0
C388 C 0.54158 0.10069 0.59887 0.0
C389 C 0.44948 0.93641 0.69783 0.0
C390 C 0.59638 0.97244 0.63305 0.0
C391 C 0.61503 0.97834 0.67531 0.0
C392 C 0.55909 0.98863 0.62201 0.0
C393 C 0.5472 0.01771 0.65219 0.0
C394 C 0.57891 0.03728 0.6897 0.0
C395 C 0.612 0.01624 0.70145 0.0
C396 C 0.52659 0.96711 0.58147 0.0
C397 C 0.57189 0.07386 0.72036 0.0
H398 H 0.45163 0.10287 0.61611 0.0
H399 H 0.38208 0.97623 0.70936 0.0
H400 H 0.56791 0.08521 0.58752 0.0
H401 H 0.52658 0.11333 0.57096 0.0
H402 H 0.56732 0.13709 0.61835 0.0
H403 H 0.40766 0.90707 0.70855 0.0
H404 H 0.46369 0.91539 0.67626 0.0
H405 H 0.47631 0.95014 0.72621 0.0
H406 H 0.60176 0.9459 0.61153 0.0
H407 H 0.6286 0.02303 0.73342 0.0
H408 H 0.52411 -0.00067 0.56378 0.0
H409 H 0.48446 0.93569 0.58964 0.0
H410 H 0.54397 0.94887 0.56003 0.0
H411 H 0.60803 0.09599 0.74119 0.0
H412 H 0.53625 0.04919 0.74101 0.0
H413 H 0.56479 0.10364 0.70299 0.0
C414 C 0.54644 0.59795 0.68056 0.0
C415 C 0.54176 0.63059 0.64978 0.0
C416 C 0.51193 0.54201 0.67991 0.0
C417 C 0.47351 0.51856 0.64662 0.0
C418 C 0.46812 0.55175 0.6158 0.0
C419 C 0.50207 0.60793 0.61815 0.0
C420 C 0.51661 0.50946 0.71583 0.0
C421 C 0.42686 0.52791 0.58039 0.0
C422 C 0.43832 0.37612 0.62134 0.0
C423 C 0.3891 0.34639 0.64281 0.0
C424 C 0.46471 0.43256 0.6203 0.0
C425 C 0.44187 0.4593 0.64248 0.0
C426 C 0.3917 0.42925 0.66384 0.0
C427 C 0.36534 0.37268 0.66322 0.0
C428 C 0.51767 0.46357 0.59645 0.0
C429 C 0.36756 0.45654 0.68949 0.0
H430 H 0.57621 0.61633 0.70585 0.0
H431 H 0.49844 0.63406 0.59488 0.0
H432 H 0.50057 0.51762 0.74532 0.0
H433 H 0.49426 0.46518 0.71041 0.0
H434 H 0.55995 0.5231 0.72171 0.0
H435 H 0.42683 0.55956 0.55979 0.0
H436 H 0.43543 0.5012 0.56031 0.0
H437 H 0.38571 0.50252 0.59399 0.0
H438 H 0.456 0.35512 0.60528 0.0
H439 H 0.32731 0.34906 0.68005 0.0
H440 H 0.55021 0.49205 0.61822 0.0
H441 H 0.51358 0.48813 0.57087 0.0
H442 H 0.53054 0.43642 0.5819 0.0
H443 H 0.38883 0.46901 0.72059 0.0
H444 H 0.32371 0.4289 0.69574 0.0
H445 H 0.37289 0.49343 0.67325 0.0
C446 C 0.08071 0.45977 0.93769 0.0
C447 C 0.04678 0.40868 0.95556 0.0
C448 C 0.06039 0.49315 0.92558 0.0
C449 C 0.0049 0.47521 0.93201 0.0
C450 C 0.96992 0.42302 0.94907 0.0
C451 C -0.00867 0.38993 0.96032 0.0
C452 C 0.099 0.54886 0.90814 0.0
C453 C 0.91082 0.40333 0.95765 0.0
C454 C 0.97647 0.58811 0.95333 0.0
C455 C 0.95454 0.5918 0.91453 0.0
C456 C -0.00923 0.54867 0.95992 0.0
C457 C -0.01415 0.51416 0.92591 0.0
C458 C 0.96548 0.51899 0.88597 0.0
C459 C 0.94872 0.55722 0.88101 0.0
C460 C 0.00637 0.54135 0.00438 0.0
C461 C 0.95901 0.4821 0.84937 0.0
H462 H 0.12354 0.47401 0.93353 0.0
H463 H 0.96524 0.35043 0.97433 0.0
H464 H 0.08257 0.55607 0.87835 0.0
H465 H 0.10352 0.57988 0.93157 0.0
H466 H 0.13979 0.55462 0.90145 0.0
H467 H 0.88741 0.35902 0.9637 0.0
H468 H 0.90732 0.42422 0.98616 0.0
H469 H 0.8921 0.41297 0.93054 0.0
H470 H 0.97768 0.61289 0.97995 0.0
H471 H 0.92905 0.55856 0.85182 0.0
H472 H 0.03656 0.52783 0.0043 0.0
H473 H 0.96968 0.50983 0.02099 0.0
H474 H 0.02238 0.57923 0.02315 0.0
H475 H -0.00146 0.48535 0.84194 0.0
H476 H 0.94336 0.49173 0.82021 0.0
H477 H 0.93059 0.43942 0.85849 0.0
C478 C 0.33793 0.99018 0.29299 0.0
C479 C 0.31246 0.93384 0.29775 0.0
C480 C 0.39423 0.02124 0.28639 0.0
C481 C 0.42546 -0.00466 0.28579 0.0
C482 C 0.39982 0.93851 0.2901 0.0
C483 C 0.34369 0.90851 0.29503 0.0
C484 C 0.42048 0.08176 0.2812 0.0
C485 C 0.43179 0.90937 0.29139 0.0
C486 C 0.568 0.05235 0.24397 0.0
C487 C 0.59813 0.07127 0.28149 0.0
C488 C 0.51182 0.0316 0.24431 0.0
C489 C 0.48537 0.02713 0.2835 0.0
C490 C 0.51609 0.04693 0.32145 0.0
C491 C 0.57247 0.07022 0.31967 0.0
C492 C 0.48064 0.01309 0.20301 0.0
C493 C 0.48986 0.04217 0.36426 0.0
H494 H 0.31413 0.01003 0.29499 0.0
H495 H 0.32458 0.86496 0.29831 0.0
H496 H 0.44392 0.10202 0.31033 0.0
H497 H 0.44931 0.09591 0.25408 0.0
H498 H 0.3901 0.09462 0.27586 0.0
H499 H 0.40595 0.8656 0.29884 0.0
H500 H 0.45156 0.91324 0.26023 0.0
H501 H 0.46435 0.9279 0.31574 0.0
H502 H 0.5884 0.05387 0.21447 0.0
H503 H 0.59627 0.08507 0.34863 0.0
H504 H 0.45162 0.02808 0.20044 0.0
H505 H 0.45677 0.96824 0.20215 0.0
H506 H 0.50792 0.02737 0.17488 0.0
H507 H 0.4833 0.07698 0.36849 0.0
H508 H 0.51608 0.04295 0.39078 0.0
H509 H 0.45001 0.00442 0.36707 0.0
C510 C 0.31094 0.19583 0.78608 0.0
C511 C 0.26567 0.15494 0.76421 0.0
C512 C 0.30447 0.22266 0.82051 0.0
C513 C 0.25167 0.20506 0.83546 0.0
C514 C 0.20662 0.15837 0.81775 0.0
C515 C 0.21393 0.13478 0.78124 0.0
C516 C 0.35427 0.27211 0.83772 0.0
C517 C 0.15002 0.13623 0.8351 0.0
C518 C 0.21326 0.24784 0.93543 0.0
C519 C 0.18724 0.27358 0.91764 0.0
C520 C 0.24098 0.2304 0.90927 0.0
C521 C 0.24143 0.2388 0.86494 0.0
C522 C 0.22234 0.2722 0.84812 0.0
C523 C 0.19434 0.28862 0.87487 0.0
C524 C 0.265 0.19862 0.92832 0.0
C525 C 0.22664 0.2859 0.80131 0.0
H526 H 0.35156 0.21144 0.77363 0.0
H527 H 0.17911 0.10276 0.76483 0.0
H528 H 0.3451 0.29607 0.86041 0.0
H529 H 0.38041 0.25912 0.85404 0.0
H530 H 0.3784 0.299 0.81101 0.0
H531 H 0.12196 0.09462 0.82338 0.0
H532 H 0.1504 0.13554 0.87045 0.0
H533 H 0.13396 0.16274 0.825 0.0
H534 H 0.20802 0.23739 0.96899 0.0
H535 H 0.17449 0.30937 0.86175 0.0
H536 H 0.30704 0.21472 0.91665 0.0
H537 H 0.24086 0.15572 0.91812 0.0
H538 H 0.26573 0.20015 0.96367 0.0
H539 H 0.26703 0.29599 0.78881 0.0
H540 H 0.22013 0.32053 0.79513 0.0
H541 H 0.19547 0.25032 0.78342 0.0
C542 C 0.92694 0.19261 0.26956 0.0
C543 C 0.88458 0.17803 0.24052 0.0
C544 C 0.9805 0.22936 0.25785 0.0
C545 C -0.00885 0.24963 0.21577 0.0
C546 C 0.94739 0.23962 0.18826 0.0
C547 C 0.89432 0.20353 0.20113 0.0
C548 C 0.02522 0.24286 0.28959 0.0
C549 C 0.95649 0.26245 0.14362 0.0
C550 C 0.10828 0.33456 0.14697 0.0
C551 C 0.10525 0.29265 0.12182 0.0
C552 C 0.07803 0.32232 0.18462 0.0
C553 C 0.04452 0.26743 0.19612 0.0
C554 C 0.05155 0.2271 0.17594 0.0
C555 C 0.08151 0.2402 0.13833 0.0
C556 C 0.07577 0.36705 0.20809 0.0
C557 C 0.02006 0.1685 0.18958 0.0
H558 H 0.91846 0.17372 0.30077 0.0
H559 H 0.86072 0.19284 0.17951 0.0
H560 H 0.03171 0.20786 0.29292 0.0
H561 H 0.06401 0.27903 0.28012 0.0
H562 H 0.01323 0.25024 0.3214 0.0
H563 H 0.91804 0.25387 0.1279 0.0
H564 H 0.98396 0.30692 0.14417 0.0
H565 H 0.9758 0.24465 0.12389 0.0
H566 H 0.12851 0.37572 0.13489 0.0
H567 H 0.08143 0.20834 0.11958 0.0
H568 H 0.06276 0.35559 0.24163 0.0
H569 H 0.04643 0.37596 0.19206 0.0
H570 H 0.11599 0.40475 0.20755 0.0
H571 H 0.02248 0.16508 0.22458 0.0
H572 H 0.03543 0.14392 0.17412 0.0
H573 H 0.9767 0.1511 0.18088 0.0
C574 C 0.72527 0.95302 0.60355 0.0
C575 C 0.70316 0.90089 0.58674 0.0
C576 C 0.73546 -0.00331 0.57711 0.0
C577 C 0.72356 0.98719 0.53317 0.0
C578 C 0.6974 0.93359 0.51701 0.0
C579 C 0.68779 0.89094 0.54417 0.0
C580 C 0.76208 0.05279 0.59593 0.0
C581 C 0.68267 0.92156 0.47049 0.0
C582 C 0.72109 0.0773 0.44779 0.0
C583 C 0.7657 0.08486 0.42387 0.0
C584 C 0.70966 0.05068 0.48715 0.0
C585 C 0.74434 0.0324 0.50244 0.0
C586 C 0.79354 0.04719 0.48105 0.0
C587 C 0.80303 0.07222 0.44118 0.0
C588 C 0.65754 0.03676 0.50967 0.0
C589 C 0.8331 0.03121 0.49792 0.0
H590 H 0.73646 0.95991 0.63695 0.0
H591 H 0.67013 0.85008 0.53184 0.0
H592 H 0.80674 0.07053 0.59521 0.0
H593 H 0.75202 0.08003 0.57791 0.0
H594 H 0.74983 0.05137 0.62969 0.0
H595 H 0.65824 0.87741 0.46411 0.0
H596 H 0.65928 0.94082 0.45969 0.0
H597 H 0.72019 0.93859 0.45108 0.0
H598 H 0.69273 0.08796 0.43412 0.0
H599 H 0.83804 0.07933 0.42263 0.0
H600 H 0.66299 0.03908 0.54474 0.0
H601 H 0.62619 -0.00541 0.50167 0.0
H602 H 0.64224 0.06404 0.49978 0.0
H603 H 0.83882 0.03833 0.53275 0.0
H604 H 0.87322 0.05409 0.48205 0.0
H605 H 0.81676 0.98736 0.49229 0.0
C606 C 0.7029 0.82922 0.81973 0.0
C607 C 0.65655 0.79849 0.79531 0.0
C608 C 0.71223 0.80698 0.85616 0.0
C609 C 0.67523 0.75207 0.8665 0.0
C610 C 0.62423 0.72445 0.84612 0.0
C611 C 0.615 0.74867 0.81069 0.0
C612 C 0.76614 0.83894 0.87858 0.0
C613 C 0.58283 0.66699 0.85811 0.0
C614 C 0.76625 0.69507 0.87459 0.0
C615 C 0.78016 0.70502 0.91743 0.0
C616 C 0.72511 0.70261 0.85814 0.0
C617 C 0.6982 0.72081 0.88569 0.0
C618 C 0.70625 0.72195 0.93012 0.0
C619 C 0.7485 0.71514 0.94566 0.0
C620 C 0.71503 0.69704 0.81064 0.0
C621 C 0.67356 0.73473 0.9606 0.0
H622 H 0.73433 0.86818 0.8079 0.0
H623 H 0.57853 0.72551 0.79185 0.0
H624 H 0.76092 0.83406 0.91356 0.0
H625 H 0.79346 0.82379 0.86868 0.0
H626 H 0.78623 0.88279 0.87084 0.0
H627 H 0.54901 0.6483 0.83487 0.0
H628 H 0.60146 0.64107 0.86024 0.0
H629 H 0.56624 0.6669 0.89002 0.0
H630 H 0.79014 0.68528 0.85348 0.0
H631 H 0.75851 0.72049 0.97929 0.0
H632 H 0.72975 0.73759 0.79624 0.0
H633 H 0.67102 0.67204 0.8039 0.0
H634 H 0.73599 0.67798 0.79473 0.0
H635 H 0.69189 0.77924 0.96329 0.0
H636 H 0.67283 0.71832 -0.00714 0.0
H637 H 0.63129 0.71775 0.94904 0.0
C638 C 0.02777 0.79682 0.22784 0.0
C639 C 0.03537 0.77507 0.26532 0.0
C640 C -0.00427 0.76306 0.19492 0.0
C641 C 0.96917 0.70615 0.20044 0.0
C642 C 0.97568 0.68392 0.23878 0.0
C643 C 0.00942 0.7189 0.27078 0.0
C644 C -0.00822 0.78847 0.15376 0.0
C645 C 0.94749 0.6235 0.24572 0.0
C646 C 0.86079 0.64591 0.11689 0.0
C647 C 0.89038 0.64048 0.08388 0.0
C648 C 0.88361 0.66104 0.15766 0.0
C649 C 0.93694 0.67098 0.1647 0.0
C650 C 0.96371 0.65861 0.13257 0.0
C651 C 0.9401 0.64388 0.09226 0.0
C652 C 0.85347 0.67268 0.19153 0.0
C653 C 0.02025 0.66785 0.1384 0.0
H654 H 0.04857 0.8404 0.22366 0.0
H655 H 0.01494 0.70244 0.30018 0.0
H656 H 0.00643 0.7741 0.12689 0.0
H657 H 0.94891 0.77616 0.14711 0.0
H658 H 0.01597 0.8334 0.15453 0.0
H659 H 0.95919 0.61276 0.27638 0.0
H660 H 0.90294 0.60653 0.24548 0.0
H661 H 0.95714 0.60384 0.21945 0.0
H662 H 0.82229 0.64331 0.10995 0.0
H663 H 0.96254 0.63922 0.06635 0.0
H664 H 0.86971 0.717 0.19327 0.0
H665 H 0.85924 0.65906 0.22323 0.0
H666 H 0.80939 0.65266 0.18445 0.0
H667 H 0.02947 0.66471 0.17218 0.0
H668 H 0.04998 0.70907 0.12688 0.0
H669 H 0.02597 0.63832 0.11942 0.0
C670 C 0.28128 0.08703 0.50501 0.0
C671 C 0.30955 0.10405 0.54358 0.0
C672 C 0.27931 0.04385 0.48274 0.0
C673 C 0.30392 0.01617 0.50099 0.0
C674 C 0.34113 0.04002 0.53464 0.0
C675 C 0.34439 0.08496 0.55534 0.0
C676 C 0.24406 0.02281 0.44356 0.0
C677 C 0.37248 0.0148 0.55213 0.0
C678 C 0.18906 0.87563 0.49353 0.0
C679 C 0.20403 0.85911 0.45685 0.0
C680 C 0.22634 0.92389 0.51348 0.0
C681 C 0.27743 0.95732 0.49387 0.0
C682 C 0.29536 0.93643 0.46116 0.0
C683 C 0.25869 0.88588 0.44417 0.0
C684 C 0.20794 0.9428 0.55141 0.0
C685 C 0.34935 0.96993 0.4393 0.0
H686 H 0.25679 0.10399 0.49424 0.0
H687 H 0.36986 0.10118 0.58306 0.0
H688 H 0.26091 0.00565 0.42061 0.0
H689 H 0.20291 0.99018 0.45288 0.0
H690 H 0.24001 0.0553 0.4275 0.0
H691 H 0.36011 0.00224 0.58557 0.0
H692 H 0.36641 0.97891 0.53406 0.0
H693 H 0.41634 0.0453 0.55137 0.0
H694 H 0.14704 0.85431 0.50367 0.0
H695 H 0.27056 0.87246 0.41599 0.0
H696 H 0.19385 0.97067 0.54055 0.0
H697 H 0.2418 0.96498 0.57423 0.0
H698 H 0.17383 0.90827 0.56824 0.0
H699 H 0.34337 0.98824 0.41005 0.0
H700 H 0.366 0.94393 0.42931 0.0
H701 H 0.37954 0.00303 0.45971 0.0
loop_
_geom_bond_atom_site_label_1
_geom_bond_atom_site_label_2
_geom_bond_distance
_geom_bond_site_symmetry_2
_ccdc_geom_bond_type
O0 Mg1 1.990 . S
O0 C14 1.253 . S
Mg1 O0 1.990 . S
Mg1 O4 2.180 . S
Mg1 O5 2.117 . S
Mg1 O19 2.030 1_554 S
O2 Mg3 2.072 1_554 S
O2 C14 1.260 . S
Mg3 O2 2.072 1_556 S
Mg3 O4 2.099 1_556 S
Mg3 O6 2.079 . S
Mg3 O7 2.072 1_556 S
Mg3 O9 2.099 . S
Mg3 O20 2.079 . S
O4 Mg1 2.180 . S
O4 Mg3 2.099 1_554 S
O4 C15 1.279 . S
O5 Mg1 2.117 . S
O5 C15 1.250 . S
O6 Mg3 2.079 . S
O6 C16 1.264 . S
O7 Mg3 2.072 1_554 S
O7 C17 1.260 . S
Mg8 O9 2.180 . S
Mg8 O10 2.030 . S
Mg8 O11 1.990 1_556 S
Mg8 O12 2.117 . S
O9 Mg3 2.099 . S
O9 Mg8 2.180 . S
O9 C18 1.279 . S
O10 Mg8 2.030 . S
O10 C16 1.248 . S
O11 Mg8 1.990 1_554 S
O11 C17 1.253 . S
O12 Mg8 2.117 . S
O12 C18 1.250 . S
C13 O19 1.248 . S
C13 O20 1.264 . S
C14 O0 1.253 . S
C14 O2 1.260 . S
C15 O4 1.279 . S
C15 O5 1.250 . S
C16 O6 1.264 . S
C16 O10 1.248 . S
C17 O7 1.260 . S
C17 O11 1.253 . S
C18 O9 1.279 . S
C18 O12 1.250 . S
O19 Mg1 2.030 1_556 S
O19 C13 1.248 . S
O20 Mg3 2.079 . S
O20 C13 1.264 . S
O21 Mg22 1.990 . S
O21 C35 1.253 . S
Mg22 O21 1.990 . S
Mg22 O25 2.180 . S
Mg22 O26 2.117 . S
Mg22 O40 2.030 . S
O23 Mg24 2.072 . S
O23 C35 1.260 . S
Mg24 O23 2.072 . S
Mg24 O25 2.099 . S
Mg24 O27 2.079 . S
Mg24 O28 2.072 . S
Mg24 O30 2.099 . S
Mg24 O41 2.079 . S
O25 Mg22 2.180 . S
O25 Mg24 2.099 . S
O25 C36 1.279 . S
O26 Mg22 2.117 . S
O26 C36 1.250 . S
O27 Mg24 2.079 . S
O27 C37 1.264 . S
O28 Mg24 2.072 . S
O28 C38 1.260 . S
Mg29 O30 2.180 . S
Mg29 O31 2.030 . S
Mg29 O32 1.990 . S
Mg29 O33 2.117 . S
O30 Mg24 2.099 . S
O30 Mg29 2.180 . S
O30 C39 1.279 . S
O31 Mg29 2.030 . S
O31 C37 1.248 . S
O32 Mg29 1.990 . S
O32 C38 1.253 . S
O33 Mg29 2.117 . S
O33 C39 1.250 . S
C34 O40 1.248 . S
C34 O41 1.264 . S
C35 O21 1.253 . S
C35 O23 1.260 . S
C36 O25 1.279 . S
C36 O26 1.250 . S
C37 O27 1.264 . S
C37 O31 1.248 . S
C38 O28 1.260 . S
C38 O32 1.253 . S
C39 O30 1.279 . S
C39 O33 1.250 . S
O40 Mg22 2.030 . S
O40 C34 1.248 . S
O41 Mg24 2.079 . S
O41 C34 1.264 . S
O42 Mg43 1.990 . S
O42 C56 1.253 . S
Mg43 O42 1.990 . S
Mg43 O46 2.180 . S
Mg43 O47 2.117 . S
Mg43 O61 2.030 . S
O44 Mg45 2.072 . S
O44 C56 1.260 . S
Mg45 O44 2.072 . S
Mg45 O46 2.099 . S
Mg45 O48 2.079 . S
Mg45 O49 2.072 . S
Mg45 O51 2.099 . S
Mg45 O62 2.079 . S
O46 Mg43 2.180 . S
O46 Mg45 2.099 . S
O46 C57 1.279 . S
O47 Mg43 2.117 . S
O47 C57 1.250 . S
O48 Mg45 2.079 . S
O48 C58 1.264 . S
O49 Mg45 2.072 . S
O49 C59 1.260 . S
Mg50 O51 2.180 . S
Mg50 O52 2.030 . S
Mg50 O53 1.990 . S
Mg50 O54 2.117 . S
O51 Mg45 2.099 . S
O51 Mg50 2.180 . S
O51 C60 1.279 . S
O52 Mg50 2.030 . S
O52 C58 1.248 . S
O53 Mg50 1.990 . S
O53 C59 1.253 . S
O54 Mg50 2.117 . S
O54 C60 1.250 . S
C55 O61 1.248 . S
C55 O62 1.264 . S
C56 O42 1.253 . S
C56 O44 1.260 . S
C57 O46 1.279 . S
C57 O47 1.250 . S
C58 O48 1.264 . S
C58 O52 1.248 . S
C59 O49 1.260 . S
C59 O53 1.253 . S
C60 O51 1.279 . S
C60 O54 1.250 . S
O61 Mg43 2.030 . S
O61 C55 1.248 . S
O62 Mg45 2.079 . S
O62 C55 1.264 . S
O63 Mg64 1.990 1_554 S
O63 C77 1.253 . S
Mg64 O63 1.990 1_556 S
Mg64 O67 2.180 . S
Mg64 O68 2.117 . S
Mg64 O82 2.030 . S
O65 Mg66 2.072 1_554 S
O65 C77 1.260 . S
Mg66 O65 2.072 1_556 S
Mg66 O67 2.099 . S
Mg66 O69 2.079 . S
Mg66 O70 2.072 1_556 S
Mg66 O72 2.099 1_556 S
Mg66 O83 2.079 . S
O67 Mg64 2.180 . S
O67 Mg66 2.099 . S
O67 C78 1.279 . S
O68 Mg64 2.117 . S
O68 C78 1.250 . S
O69 Mg66 2.079 . S
O69 C79 1.264 . S
O70 Mg66 2.072 1_554 S
O70 C80 1.260 . S
Mg71 O72 2.180 . S
Mg71 O73 2.030 1_554 S
Mg71 O74 1.990 . S
Mg71 O75 2.117 . S
O72 Mg66 2.099 1_554 S
O72 Mg71 2.180 . S
O72 C81 1.279 . S
O73 Mg71 2.030 1_556 S
O73 C79 1.248 . S
O74 Mg71 1.990 . S
O74 C80 1.253 . S
O75 Mg71 2.117 . S
O75 C81 1.250 . S
C76 O82 1.248 . S
C76 O83 1.264 . S
C77 O63 1.253 . S
C77 O65 1.260 . S
C78 O67 1.279 . S
C78 O68 1.250 . S
C79 O69 1.264 . S
C79 O73 1.248 . S
C80 O70 1.260 . S
C80 O74 1.253 . S
C81 O72 1.279 . S
C81 O75 1.250 . S
O82 Mg64 2.030 . S
O82 C76 1.248 . S
O83 Mg66 2.079 . S
O83 C76 1.264 . S
O84 Mg85 1.990 . S
O84 C98 1.253 . S
Mg85 O84 1.990 . S
Mg85 O88 2.180 . S
Mg85 O89 2.117 . S
Mg85 O103 2.030 . S
O86 Mg87 2.072 . S
O86 C98 1.260 . S
Mg87 O86 2.072 . S
Mg87 O88 2.099 . S
Mg87 O90 2.079 . S
Mg87 O91 2.072 . S
Mg87 O93 2.099 . S
Mg87 O104 2.079 . S
O88 Mg85 2.180 . S
O88 Mg87 2.099 . S
O88 C99 1.279 . S
O89 Mg85 2.117 . S
O89 C99 1.250 . S
O90 Mg87 2.079 . S
O90 C100 1.264 . S
O91 Mg87 2.072 . S
O91 C101 1.260 . S
Mg92 O93 2.180 . S
Mg92 O94 2.030 . S
Mg92 O95 1.990 . S
Mg92 O96 2.117 . S
O93 Mg87 2.099 . S
O93 Mg92 2.180 . S
O93 C102 1.279 . S
O94 Mg92 2.030 . S
O94 C100 1.248 . S
O95 Mg92 1.990 . S
O95 C101 1.253 . S
O96 Mg92 2.117 . S
O96 C102 1.250 . S
C97 O103 1.248 . S
C97 O104 1.264 . S
C98 O84 1.253 . S
C98 O86 1.260 . S
C99 O88 1.279 . S
C99 O89 1.250 . S
C100 O90 1.264 . S
C100 O94 1.248 . S
C101 O91 1.260 . S
C101 O95 1.253 . S
C102 O93 1.279 . S
C102 O96 1.250 . S
O103 Mg85 2.030 . S
O103 C97 1.248 . S
O104 Mg87 2.079 . S
O104 C97 1.264 . S
O105 Mg106 1.990 . S
O105 C119 1.253 . S
Mg106 O105 1.990 . S
Mg106 O109 2.180 . S
Mg106 O110 2.117 . S
Mg106 O124 2.030 . S
O107 Mg108 2.072 . S
O107 C119 1.260 . S
Mg108 O107 2.072 . S
Mg108 O109 2.099 . S
Mg108 O111 2.079 . S
Mg108 O112 2.072 . S
Mg108 O114 2.099 . S
Mg108 O125 2.079 . S
O109 Mg106 2.180 . S
O109 Mg108 2.099 . S
O109 C120 1.279 . S
O110 Mg106 2.117 . S
O110 C120 1.250 . S
O111 Mg108 2.079 . S
O111 C121 1.264 . S
O112 Mg108 2.072 . S
O112 C122 1.260 . S
Mg113 O114 2.180 . S
Mg113 O115 2.030 . S
Mg113 O116 1.990 . S
Mg113 O117 2.117 . S
O114 Mg108 2.099 . S
O114 Mg113 2.180 . S
O114 C123 1.279 . S
O115 Mg113 2.030 . S
O115 C121 1.248 . S
O116 Mg113 1.990 . S
O116 C122 1.253 . S
O117 Mg113 2.117 . S
O117 C123 1.250 . S
C118 O124 1.248 . S
C118 O125 1.264 . S
C119 O105 1.253 . S
C119 O107 1.260 . S
C120 O109 1.279 . S
C120 O110 1.250 . S
C121 O111 1.264 . S
C121 O115 1.248 . S
C122 O112 1.260 . S
C122 O116 1.253 . S
C123 O114 1.279 . S
C123 O117 1.250 . S
O124 Mg106 2.030 . S
O124 C118 1.248 . S
O125 Mg108 2.079 . S
O125 C118 1.264 . S
C126 C127 1.391 . S
C126 C128 1.394 . S
C126 H142 0.931 . S
C127 C126 1.391 . S
C127 C131 1.376 . S
C128 C126 1.394 . S
C128 C129 1.369 . S
C128 C132 1.531 . S
C129 C128 1.369 . S
C129 C130 1.410 . S
C129 C137 1.503 . S
C130 C129 1.410 . S
C130 C131 1.392 . S
C130 C133 1.511 . S
C131 C127 1.376 . S
C131 C130 1.392 . S
C131 H143 0.929 . S
C132 C128 1.531 . S
C132 H144 0.960 . S
C132 H145 0.962 . S
C132 H146 0.960 . S
C133 C130 1.511 . S
C133 H147 0.961 . S
C133 H148 0.961 . S
C133 H149 0.961 . S
C134 C135 1.370 . S
C134 C136 1.363 . S
C134 H150 0.931 . S
C135 C134 1.370 . S
C135 C139 1.408 . S
C136 C134 1.363 . S
C136 C137 1.370 . S
C136 C140 1.524 . S
C137 C129 1.503 . S
C137 C136 1.370 . S
C137 C138 1.403 . S
C138 C137 1.403 . S
C138 C139 1.404 . S
C138 C141 1.539 . S
C139 C135 1.408 . S
C139 C138 1.404 . S
C139 H151 0.930 . S
C140 C136 1.524 . S
C140 H152 0.956 . S
C140 H153 0.961 . S
C140 H154 0.961 . S
C141 C138 1.539 . S
C141 H155 0.958 . S
C141 H156 0.961 . S
C141 H157 0.960 . S
H142 C126 0.931 . S
H143 C131 0.929 . S
H144 C132 0.960 . S
H145 C132 0.962 . S
H146 C132 0.960 . S
H147 C133 0.961 . S
H148 C133 0.961 . S
H149 C133 0.961 . S
H150 C134 0.931 . S
H151 C139 0.930 . S
H152 C140 0.956 . S
H153 C140 0.961 . S
H154 C140 0.961 . S
H155 C141 0.958 . S
H156 C141 0.961 . S
H157 C141 0.960 . S
C158 C159 1.391 . S
C158 C160 1.394 . S
C158 H174 0.931 . S
C159 C158 1.391 . S
C159 C163 1.376 . S
C160 C158 1.394 . S
C160 C161 1.369 . S
C160 C164 1.531 . S
C161 C160 1.369 . S
C161 C162 1.410 . S
C161 C169 1.503 . S
C162 C161 1.410 . S
C162 C163 1.392 . S
C162 C165 1.511 . S
C163 C159 1.376 . S
C163 C162 1.392 . S
C163 H175 0.929 . S
C164 C160 1.531 . S
C164 H176 0.960 . S
C164 H177 0.962 . S
C164 H178 0.960 . S
C165 C162 1.511 . S
C165 H179 0.961 . S
C165 H180 0.961 . S
C165 H181 0.961 . S
C166 C167 1.370 . S
C166 C168 1.363 . S
C166 H182 0.931 . S
C167 C166 1.370 . S
C167 C171 1.408 . S
C168 C166 1.363 . S
C168 C169 1.370 . S
C168 C172 1.524 . S
C169 C161 1.503 . S
C169 C168 1.370 . S
C169 C170 1.403 . S
C170 C169 1.403 . S
C170 C171 1.404 . S
C170 C173 1.539 . S
C171 C167 1.408 . S
C171 C170 1.404 . S
C171 H183 0.930 . S
C172 C168 1.524 . S
C172 H184 0.956 . S
C172 H185 0.961 . S
C172 H186 0.961 . S
C173 C170 1.539 . S
C173 H187 0.958 . S
C173 H188 0.961 . S
C173 H189 0.960 . S
H174 C158 0.931 . S
H175 C163 0.929 . S
H176 C164 0.960 . S
H177 C164 0.962 . S
H178 C164 0.960 . S
H179 C165 0.961 . S
H180 C165 0.961 . S
H181 C165 0.961 . S
H182 C166 0.931 . S
H183 C171 0.930 . S
H184 C172 0.956 . S
H185 C172 0.961 . S
H186 C172 0.961 . S
H187 C173 0.958 . S
H188 C173 0.961 . S
H189 C173 0.960 . S
C190 C191 1.391 . S
C190 C192 1.394 . S
C190 H206 0.931 . S
C191 C190 1.391 . S
C191 C195 1.376 . S
C192 C190 1.394 . S
C192 C193 1.369 . S
C192 C196 1.531 . S
C193 C192 1.369 . S
C193 C194 1.410 . S
C193 C201 1.503 . S
C194 C193 1.410 . S
C194 C195 1.392 . S
C194 C197 1.511 . S
C195 C191 1.376 . S
C195 C194 1.392 . S
C195 H207 0.929 . S
C196 C192 1.531 . S
C196 H208 0.960 . S
C196 H209 0.962 . S
C196 H210 0.960 . S
C197 C194 1.511 . S
C197 H211 0.961 . S
C197 H212 0.961 . S
C197 H213 0.961 . S
C198 C199 1.370 . S
C198 C200 1.363 . S
C198 H214 0.931 . S
C199 C198 1.370 . S
C199 C203 1.408 . S
C200 C198 1.363 . S
C200 C201 1.370 . S
C200 C204 1.524 . S
C201 C193 1.503 . S
C201 C200 1.370 . S
C201 C202 1.403 . S
C202 C201 1.403 . S
C202 C203 1.404 . S
C202 C205 1.539 . S
C203 C199 1.408 . S
C203 C202 1.404 . S
C203 H215 0.930 . S
C204 C200 1.524 . S
C204 H216 0.956 . S
C204 H217 0.961 . S
C204 H218 0.961 . S
C205 C202 1.539 . S
C205 H219 0.958 . S
C205 H220 0.961 . S
C205 H221 0.960 . S
H206 C190 0.931 . S
H207 C195 0.929 . S
H208 C196 0.960 . S
H209 C196 0.962 . S
H210 C196 0.960 . S
H211 C197 0.961 . S
H212 C197 0.961 . S
H213 C197 0.961 . S
H214 C198 0.931 . S
H215 C203 0.930 . S
H216 C204 0.956 . S
H217 C204 0.961 . S
H218 C204 0.961 . S
H219 C205 0.958 . S
H220 C205 0.961 . S
H221 C205 0.960 . S
C222 C223 1.391 . S
C222 C224 1.394 . S
C222 H238 0.931 . S
C223 C222 1.391 . S
C223 C227 1.376 . S
C224 C222 1.394 . S
C224 C225 1.369 . S
C224 C228 1.531 . S
C225 C224 1.369 . S
C225 C226 1.410 . S
C225 C233 1.503 . S
C226 C225 1.410 . S
C226 C227 1.392 . S
C226 C229 1.511 . S
C227 C223 1.376 . S
C227 C226 1.392 . S
C227 H239 0.929 . S
C228 C224 1.531 . S
C228 H240 0.960 . S
C228 H241 0.962 . S
C228 H242 0.960 . S
C229 C226 1.511 . S
C229 H243 0.961 . S
C229 H244 0.961 . S
C229 H245 0.961 . S
C230 C231 1.370 . S
C230 C232 1.363 . S
C230 H246 0.931 . S
C231 C230 1.370 . S
C231 C235 1.408 . S
C232 C230 1.363 . S
C232 C233 1.370 . S
C232 C236 1.524 . S
C233 C225 1.503 . S
C233 C232 1.370 . S
C233 C234 1.403 . S
C234 C233 1.403 . S
C234 C235 1.404 . S
C234 C237 1.539 . S
C235 C231 1.408 . S
C235 C234 1.404 . S
C235 H247 0.930 . S
C236 C232 1.524 . S
C236 H248 0.956 . S
C236 H249 0.961 . S
C236 H250 0.961 . S
C237 C234 1.539 . S
C237 H251 0.958 . S
C237 H252 0.961 . S
C237 H253 0.960 . S
H238 C222 0.931 . S
H239 C227 0.929 . S
H240 C228 0.960 . S
H241 C228 0.962 . S
H242 C228 0.960 . S
H243 C229 0.961 . S
H244 C229 0.961 . S
H245 C229 0.961 . S
H246 C230 0.931 . S
H247 C235 0.930 . S
H248 C236 0.956 . S
H249 C236 0.961 . S
H250 C236 0.961 . S
H251 C237 0.958 . S
H252 C237 0.961 . S
H253 C237 0.960 . S
C254 C255 1.391 . S
C254 C256 1.394 . S
C254 H270 0.931 . S
C255 C254 1.391 . S
C255 C259 1.376 . S
C256 C254 1.394 . S
C256 C257 1.369 . S
C256 C260 1.531 . S
C257 C256 1.369 . S
C257 C258 1.410 . S
C257 C265 1.503 . S
C258 C257 1.410 . S
C258 C259 1.392 . S
C258 C261 1.511 . S
C259 C255 1.376 . S
C259 C258 1.392 . S
C259 H271 0.929 . S
C260 C256 1.531 . S
C260 H272 0.960 . S
C260 H273 0.962 . S
C260 H274 0.960 . S
C261 C258 1.511 . S
C261 H275 0.961 . S
C261 H276 0.961 . S
C261 H277 0.961 . S
C262 C263 1.370 . S
C262 C264 1.363 . S
C262 H278 0.931 . S
C263 C262 1.370 . S
C263 C267 1.408 . S
C264 C262 1.363 . S
C264 C265 1.370 . S
C264 C268 1.524 . S
C265 C257 1.503 . S
C265 C264 1.370 . S
C265 C266 1.403 . S
C266 C265 1.403 . S
C266 C267 1.404 . S
C266 C269 1.539 . S
C267 C263 1.408 . S
C267 C266 1.404 . S
C267 H279 0.930 . S
C268 C264 1.524 . S
C268 H280 0.956 . S
C268 H281 0.961 . S
C268 H282 0.961 . S
C269 C266 1.539 . S
C269 H283 0.958 . S
C269 H284 0.961 . S
C269 H285 0.960 . S
H270 C254 0.931 . S
H271 C259 0.929 . S
H272 C260 0.960 . S
H273 C260 0.962 . S
H274 C260 0.960 . S
H275 C261 0.961 . S
H276 C261 0.961 . S
H277 C261 0.961 . S
H278 C262 0.931 . S
H279 C267 0.930 . S
H280 C268 0.956 . S
H281 C268 0.961 . S
H282 C268 0.961 . S
H283 C269 0.958 . S
H284 C269 0.961 . S
H285 C269 0.960 . S
C286 C287 1.391 . S
C286 C288 1.394 . S
C286 H302 0.931 . S
C287 C286 1.391 . S
C287 C291 1.376 . S
C288 C286 1.394 . S
C288 C289 1.369 . S
C288 C292 1.531 . S
C289 C288 1.369 . S
C289 C290 1.410 . S
C289 C297 1.503 . S
C290 C289 1.410 . S
C290 C291 1.392 . S
C290 C293 1.511 . S
C291 C287 1.376 . S
C291 C290 1.392 . S
C291 H303 0.929 . S
C292 C288 1.531 . S
C292 H304 0.960 . S
C292 H305 0.962 . S
C292 H306 0.960 . S
C293 C290 1.511 . S
C293 H307 0.961 . S
C293 H308 0.961 . S
C293 H309 0.961 . S
C294 C295 1.370 . S
C294 C296 1.363 . S
C294 H310 0.931 . S
C295 C294 1.370 . S
C295 C299 1.408 . S
C296 C294 1.363 . S
C296 C297 1.370 . S
C296 C300 1.524 . S
C297 C289 1.503 . S
C297 C296 1.370 . S
C297 C298 1.403 . S
C298 C297 1.403 . S
C298 C299 1.404 . S
C298 C301 1.539 . S
C299 C295 1.408 . S
C299 C298 1.404 . S
C299 H311 0.930 . S
C300 C296 1.524 . S
C300 H312 0.956 . S
C300 H313 0.961 . S
C300 H314 0.961 . S
C301 C298 1.539 . S
C301 H315 0.958 . S
C301 H316 0.961 . S
C301 H317 0.960 . S
H302 C286 0.931 . S
H303 C291 0.929 . S
H304 C292 0.960 . S
H305 C292 0.962 . S
H306 C292 0.960 . S
H307 C293 0.961 . S
H308 C293 0.961 . S
H309 C293 0.961 . S
H310 C294 0.931 . S
H311 C299 0.930 . S
H312 C300 0.956 . S
H313 C300 0.961 . S
H314 C300 0.961 . S
H315 C301 0.958 . S
H316 C301 0.961 . S
H317 C301 0.960 . S
C318 C319 1.391 1_556 S
C318 C320 1.394 . S
C318 H334 0.931 . S
C319 C318 1.391 1_554 S
C319 C323 1.376 . S
C320 C318 1.394 . S
C320 C321 1.369 1_556 S
C320 C324 1.531 . S
C321 C320 1.369 1_554 S
C321 C322 1.410 . S
C321 C329 1.503 . S
C322 C321 1.410 . S
C322 C323 1.392 . S
C322 C325 1.511 . S
C323 C319 1.376 . S
C323 C322 1.392 . S
C323 H335 0.929 . S
C324 C320 1.531 . S
C324 H336 0.960 . S
C324 H337 0.962 . S
C324 H338 0.960 . S
C325 C322 1.511 . S
C325 H339 0.961 . S
C325 H340 0.961 . S
C325 H341 0.961 . S
C326 C327 1.370 . S
C326 C328 1.363 . S
C326 H342 0.931 . S
C327 C326 1.370 . S
C327 C331 1.408 1_554 S
C328 C326 1.363 . S
C328 C329 1.370 . S
C328 C332 1.524 . S
C329 C321 1.503 . S
C329 C328 1.370 . S
C329 C330 1.403 1_554 S
C330 C329 1.403 1_556 S
C330 C331 1.404 . S
C330 C333 1.539 . S
C331 C327 1.408 1_556 S
C331 C330 1.404 . S
C331 H343 0.930 . S
C332 C328 1.524 . S
C332 H344 0.956 . S
C332 H345 0.961 . S
C332 H346 0.961 . S
C333 C330 1.539 . S
C333 H347 0.958 . S
C333 H348 0.961 . S
C333 H349 0.960 . S
H334 C318 0.931 . S
H335 C323 0.929 . S
H336 C324 0.960 . S
H337 C324 0.962 . S
H338 C324 0.960 . S
H339 C325 0.961 . S
H340 C325 0.961 . S
H341 C325 0.961 . S
H342 C326 0.931 . S
H343 C331 0.930 . S
H344 C332 0.956 . S
H345 C332 0.961 . S
H346 C332 0.961 . S
H347 C333 0.958 . S
H348 C333 0.961 . S
H349 C333 0.960 . S
C350 C351 1.391 . S
C350 C352 1.394 1_455 S
C350 H366 0.931 1_455 S
C351 C350 1.391 . S
C351 C355 1.376 . S
C352 C350 1.394 1_655 S
C352 C353 1.369 1_655 S
C352 C356 1.531 . S
C353 C352 1.369 1_455 S
C353 C354 1.410 . S
C353 C361 1.503 1_455 S
C354 C353 1.410 . S
C354 C355 1.392 . S
C354 C357 1.511 . S
C355 C351 1.376 . S
C355 C354 1.392 . S
C355 H367 0.929 . S
C356 C352 1.531 . S
C356 H368 0.960 . S
C356 H369 0.962 . S
C356 H370 0.960 . S
C357 C354 1.511 . S
C357 H371 0.961 . S
C357 H372 0.961 . S
C357 H373 0.961 . S
C358 C359 1.370 . S
C358 C360 1.363 . S
C358 H374 0.931 . S
C359 C358 1.370 . S
C359 C363 1.408 . S
C360 C358 1.363 . S
C360 C361 1.370 . S
C360 C364 1.524 . S
C361 C353 1.503 1_655 S
C361 C360 1.370 . S
C361 C362 1.403 . S
C362 C361 1.403 . S
C362 C363 1.404 . S
C362 C365 1.539 . S
C363 C359 1.408 . S
C363 C362 1.404 . S
C363 H375 0.930 . S
C364 C360 1.524 . S
C364 H376 0.956 . S
C364 H377 0.961 1_655 S
C364 H378 0.961 . S
C365 C362 1.539 . S
C365 H379 0.958 . S
C365 H380 0.961 . S
C365 H381 0.960 1_655 S
H366 C350 0.931 1_655 S
H367 C355 0.929 . S
H368 C356 0.960 . S
H369 C356 0.962 . S
H370 C356 0.960 . S
H371 C357 0.961 . S
H372 C357 0.961 . S
H373 C357 0.961 . S
H374 C358 0.931 . S
H375 C363 0.930 . S
H376 C364 0.956 . S
H377 C364 0.961 1_455 S
H378 C364 0.961 . S
H379 C365 0.958 . S
H380 C365 0.961 . S
H381 C365 0.960 1_455 S
C382 C383 1.391 . S
C382 C384 1.394 . S
C382 H398 0.931 . S
C383 C382 1.391 . S
C383 C387 1.376 . S
C384 C382 1.394 . S
C384 C385 1.369 . S
C384 C388 1.531 . S
C385 C384 1.369 . S
C385 C386 1.410 1_545 S
C385 C393 1.503 1_545 S
C386 C385 1.410 1_565 S
C386 C387 1.392 1_565 S
C386 C389 1.511 . S
C387 C383 1.376 . S
C387 C386 1.392 1_545 S
C387 H399 0.929 . S
C388 C384 1.531 . S
C388 H400 0.960 . S
C388 H401 0.962 . S
C388 H402 0.960 . S
C389 C386 1.511 . S
C389 H403 0.961 . S
C389 H404 0.961 . S
C389 H405 0.961 . S
C390 C391 1.370 . S
C390 C392 1.363 . S
C390 H406 0.931 . S
C391 C390 1.370 . S
C391 C395 1.408 . S
C392 C390 1.363 . S
C392 C393 1.370 . S
C392 C396 1.524 . S
C393 C385 1.503 1_565 S
C393 C392 1.370 . S
C393 C394 1.403 . S
C394 C393 1.403 . S
C394 C395 1.404 . S
C394 C397 1.539 1_565 S
C395 C391 1.408 . S
C395 C394 1.404 . S
C395 H407 0.930 . S
C396 C392 1.524 . S
C396 H408 0.956 . S
C396 H409 0.961 . S
C396 H410 0.961 . S
C397 C394 1.539 1_545 S
C397 H411 0.958 . S
C397 H412 0.961 . S
C397 H413 0.960 . S
H398 C382 0.931 . S
H399 C387 0.929 . S
H400 C388 0.960 . S
H401 C388 0.962 . S
H402 C388 0.960 . S
H403 C389 0.961 . S
H404 C389 0.961 . S
H405 C389 0.961 . S
H406 C390 0.931 . S
H407 C395 0.930 . S
H408 C396 0.956 . S
H409 C396 0.961 . S
H410 C396 0.961 . S
H411 C397 0.958 . S
H412 C397 0.961 . S
H413 C397 0.960 . S
C414 C415 1.391 . S
C414 C416 1.394 . S
C414 H430 0.931 . S
C415 C414 1.391 . S
C415 C419 1.376 . S
C416 C414 1.394 . S
C416 C417 1.369 . S
C416 C420 1.531 . S
C417 C416 1.369 . S
C417 C418 1.410 . S
C417 C425 1.503 . S
C418 C417 1.410 . S
C418 C419 1.392 . S
C418 C421 1.511 . S
C419 C415 1.376 . S
C419 C418 1.392 . S
C419 H431 0.929 . S
C420 C416 1.531 . S
C420 H432 0.960 . S
C420 H433 0.962 . S
C420 H434 0.960 . S
C421 C418 1.511 . S
C421 H435 0.961 . S
C421 H436 0.961 . S
C421 H437 0.961 . S
C422 C423 1.370 . S
C422 C424 1.363 . S
C422 H438 0.931 . S
C423 C422 1.370 . S
C423 C427 1.408 . S
C424 C422 1.363 . S
C424 C425 1.370 . S
C424 C428 1.524 . S
C425 C417 1.503 . S
C425 C424 1.370 . S
C425 C426 1.403 . S
C426 C425 1.403 . S
C426 C427 1.404 . S
C426 C429 1.539 . S
C427 C423 1.408 . S
C427 C426 1.404 . S
C427 H439 0.930 . S
C428 C424 1.524 . S
C428 H440 0.956 . S
C428 H441 0.961 . S
C428 H442 0.961 . S
C429 C426 1.539 . S
C429 H443 0.958 . S
C429 H444 0.961 . S
C429 H445 0.960 . S
H430 C414 0.931 . S
H431 C419 0.929 . S
H432 C420 0.960 . S
H433 C420 0.962 . S
H434 C420 0.960 . S
H435 C421 0.961 . S
H436 C421 0.961 . S
H437 C421 0.961 . S
H438 C422 0.931 . S
H439 C427 0.930 . S
H440 C428 0.956 . S
H441 C428 0.961 . S
H442 C428 0.961 . S
H443 C429 0.958 . S
H444 C429 0.961 . S
H445 C429 0.960 . S
C446 C447 1.391 . S
C446 C448 1.394 . S
C446 H462 0.931 . S
C447 C446 1.391 . S
C447 C451 1.376 . S
C448 C446 1.394 . S
C448 C449 1.369 . S
C448 C452 1.531 . S
C449 C448 1.369 . S
C449 C450 1.410 1_455 S
C449 C457 1.503 1_455 S
C450 C449 1.410 1_655 S
C450 C451 1.392 1_655 S
C450 C453 1.511 . S
C451 C447 1.376 . S
C451 C450 1.392 1_455 S
C451 H463 0.929 1_455 S
C452 C448 1.531 . S
C452 H464 0.960 . S
C452 H465 0.962 . S
C452 H466 0.960 . S
C453 C450 1.511 . S
C453 H467 0.961 1_556 S
C453 H468 0.961 1_556 S
C453 H469 0.961 . S
C454 C455 1.370 1_554 S
C454 C456 1.363 . S
C454 H470 0.931 . S
C455 C454 1.370 1_556 S
C455 C459 1.408 . S
C456 C454 1.363 . S
C456 C457 1.370 1_554 S
C456 C460 1.524 1_655 S
C457 C449 1.503 1_655 S
C457 C456 1.370 1_556 S
C457 C458 1.403 . S
C458 C457 1.403 . S
C458 C459 1.404 . S
C458 C461 1.539 . S
C459 C455 1.408 . S
C459 C458 1.404 . S
C459 H471 0.930 . S
C460 C456 1.524 1_455 S
C460 H472 0.956 . S
C460 H473 0.961 . S
C460 H474 0.961 . S
C461 C458 1.539 . S
C461 H475 0.958 . S
C461 H476 0.961 . S
C461 H477 0.960 . S
H462 C446 0.931 . S
H463 C451 0.929 1_655 S
H464 C452 0.960 . S
H465 C452 0.962 . S
H466 C452 0.960 . S
H467 C453 0.961 1_554 S
H468 C453 0.961 1_554 S
H469 C453 0.961 . S
H470 C454 0.931 . S
H471 C459 0.930 . S
H472 C460 0.956 . S
H473 C460 0.961 . S
H474 C460 0.961 . S
H475 C461 0.958 . S
H476 C461 0.961 . S
H477 C461 0.960 . S
C478 C479 1.391 . S
C478 C480 1.394 1_565 S
C478 H494 0.931 1_565 S
C479 C478 1.391 . S
C479 C483 1.376 . S
C480 C478 1.394 1_545 S
C480 C481 1.369 1_545 S
C480 C484 1.531 . S
C481 C480 1.369 1_565 S
C481 C482 1.410 . S
C481 C489 1.503 1_565 S
C482 C481 1.410 . S
C482 C483 1.392 . S
C482 C485 1.511 . S
C483 C479 1.376 . S
C483 C482 1.392 . S
C483 H495 0.929 . S
C484 C480 1.531 . S
C484 H496 0.960 . S
C484 H497 0.962 . S
C484 H498 0.960 . S
C485 C482 1.511 . S
C485 H499 0.961 . S
C485 H500 0.961 . S
C485 H501 0.961 . S
C486 C487 1.370 . S
C486 C488 1.363 . S
C486 H502 0.931 . S
C487 C486 1.370 . S
C487 C491 1.408 . S
C488 C486 1.363 . S
C488 C489 1.370 . S
C488 C492 1.524 1_545 S
C489 C481 1.503 1_545 S
C489 C488 1.370 . S
C489 C490 1.403 . S
C490 C489 1.403 . S
C490 C491 1.404 . S
C490 C493 1.539 . S
C491 C487 1.408 . S
C491 C490 1.404 . S
C491 H503 0.930 . S
C492 C488 1.524 1_565 S
C492 H504 0.956 . S
C492 H505 0.961 . S
C492 H506 0.961 . S
C493 C490 1.539 . S
C493 H507 0.958 . S
C493 H508 0.961 . S
C493 H509 0.960 . S
H494 C478 0.931 1_545 S
H495 C483 0.929 . S
H496 C484 0.960 . S
H497 C484 0.962 . S
H498 C484 0.960 . S
H499 C485 0.961 . S
H500 C485 0.961 . S
H501 C485 0.961 . S
H502 C486 0.931 . S
H503 C491 0.930 . S
H504 C492 0.956 . S
H505 C492 0.961 . S
H506 C492 0.961 . S
H507 C493 0.958 . S
H508 C493 0.961 . S
H509 C493 0.960 . S
C510 C511 1.391 . S
C510 C512 1.394 . S
C510 H526 0.931 . S
C511 C510 1.391 . S
C511 C515 1.376 . S
C512 C510 1.394 . S
C512 C513 1.369 . S
C512 C516 1.531 . S
C513 C512 1.369 . S
C513 C514 1.410 . S
C513 C521 1.503 . S
C514 C513 1.410 . S
C514 C515 1.392 . S
C514 C517 1.511 . S
C515 C511 1.376 . S
C515 C514 1.392 . S
C515 H527 0.929 . S
C516 C512 1.531 . S
C516 H528 0.960 . S
C516 H529 0.962 . S
C516 H530 0.960 . S
C517 C514 1.511 . S
C517 H531 0.961 . S
C517 H532 0.961 . S
C517 H533 0.961 . S
C518 C519 1.370 . S
C518 C520 1.363 . S
C518 H534 0.931 . S
C519 C518 1.370 . S
C519 C523 1.408 . S
C520 C518 1.363 . S
C520 C521 1.370 . S
C520 C524 1.524 . S
C521 C513 1.503 . S
C521 C520 1.370 . S
C521 C522 1.403 . S
C522 C521 1.403 . S
C522 C523 1.404 . S
C522 C525 1.539 . S
C523 C519 1.408 . S
C523 C522 1.404 . S
C523 H535 0.930 . S
C524 C520 1.524 . S
C524 H536 0.956 . S
C524 H537 0.961 . S
C524 H538 0.961 . S
C525 C522 1.539 . S
C525 H539 0.958 . S
C525 H540 0.961 . S
C525 H541 0.960 . S
H526 C510 0.931 . S
H527 C515 0.929 . S
H528 C516 0.960 . S
H529 C516 0.962 . S
H530 C516 0.960 . S
H531 C517 0.961 . S
H532 C517 0.961 . S
H533 C517 0.961 . S
H534 C518 0.931 . S
H535 C523 0.930 . S
H536 C524 0.956 . S
H537 C524 0.961 . S
H538 C524 0.961 . S
H539 C525 0.958 . S
H540 C525 0.961 . S
H541 C525 0.960 . S
C542 C543 1.391 . S
C542 C544 1.394 . S
C542 H558 0.931 . S
C543 C542 1.391 . S
C543 C547 1.376 . S
C544 C542 1.394 . S
C544 C545 1.369 . S
C544 C548 1.531 1_655 S
C545 C544 1.369 . S
C545 C546 1.410 . S
C545 C553 1.503 1_655 S
C546 C545 1.410 . S
C546 C547 1.392 . S
C546 C549 1.511 . S
C547 C543 1.376 . S
C547 C546 1.392 . S
C547 H559 0.929 . S
C548 C544 1.531 1_455 S
C548 H560 0.960 . S
C548 H561 0.962 . S
C548 H562 0.960 . S
C549 C546 1.511 . S
C549 H563 0.961 . S
C549 H564 0.961 . S
C549 H565 0.961 . S
C550 C551 1.370 . S
C550 C552 1.363 . S
C550 H566 0.931 . S
C551 C550 1.370 . S
C551 C555 1.408 . S
C552 C550 1.363 . S
C552 C553 1.370 . S
C552 C556 1.524 . S
C553 C545 1.503 1_455 S
C553 C552 1.370 . S
C553 C554 1.403 . S
C554 C553 1.403 . S
C554 C555 1.404 . S
C554 C557 1.539 . S
C555 C551 1.408 . S
C555 C554 1.404 . S
C555 H567 0.930 . S
C556 C552 1.524 . S
C556 H568 0.956 . S
C556 H569 0.961 1_455 S
C556 H570 0.961 . S
C557 C554 1.539 . S
C557 H571 0.958 . S
C557 H572 0.961 . S
C557 H573 0.960 . S
H558 C542 0.931 . S
H559 C547 0.929 . S
H560 C548 0.960 . S
H561 C548 0.962 . S
H562 C548 0.960 . S
H563 C549 0.961 . S
H564 C549 0.961 . S
H565 C549 0.961 . S
H566 C550 0.931 . S
H567 C555 0.930 . S
H568 C556 0.956 . S
H569 C556 0.961 1_655 S
H570 C556 0.961 . S
H571 C557 0.958 . S
H572 C557 0.961 . S
H573 C557 0.960 . S
C574 C575 1.391 . S
C574 C576 1.394 . S
C574 H590 0.931 . S
C575 C574 1.391 . S
C575 C579 1.376 . S
C576 C574 1.394 . S
C576 C577 1.369 . S
C576 C580 1.531 1_565 S
C577 C576 1.369 . S
C577 C578 1.410 . S
C577 C585 1.503 1_565 S
C578 C577 1.410 . S
C578 C579 1.392 . S
C578 C581 1.511 . S
C579 C575 1.376 . S
C579 C578 1.392 . S
C579 H591 0.929 . S
C580 C576 1.531 1_545 S
C580 H592 0.960 . S
C580 H593 0.962 . S
C580 H594 0.960 . S
C581 C578 1.511 . S
C581 H595 0.961 . S
C581 H596 0.961 . S
C581 H597 0.961 . S
C582 C583 1.370 . S
C582 C584 1.363 . S
C582 H598 0.931 . S
C583 C582 1.370 . S
C583 C587 1.408 . S
C584 C582 1.363 . S
C584 C585 1.370 . S
C584 C588 1.524 1_545 S
C585 C577 1.503 1_545 S
C585 C584 1.370 . S
C585 C586 1.403 . S
C586 C585 1.403 . S
C586 C587 1.404 . S
C586 C589 1.539 . S
C587 C583 1.408 . S
C587 C586 1.404 . S
C587 H599 0.930 . S
C588 C584 1.524 1_565 S
C588 H600 0.956 . S
C588 H601 0.961 . S
C588 H602 0.961 . S
C589 C586 1.539 . S
C589 H603 0.958 . S
C589 H604 0.961 . S
C589 H605 0.960 . S
H590 C574 0.931 . S
H591 C579 0.929 . S
H592 C580 0.960 . S
H593 C580 0.962 . S
H594 C580 0.960 . S
H595 C581 0.961 . S
H596 C581 0.961 . S
H597 C581 0.961 . S
H598 C582 0.931 . S
H599 C587 0.930 . S
H600 C588 0.956 . S
H601 C588 0.961 . S
H602 C588 0.961 . S
H603 C589 0.958 . S
H604 C589 0.961 . S
H605 C589 0.960 . S
C606 C607 1.391 . S
C606 C608 1.394 . S
C606 H622 0.931 . S
C607 C606 1.391 . S
C607 C611 1.376 . S
C608 C606 1.394 . S
C608 C609 1.369 . S
C608 C612 1.531 . S
C609 C608 1.369 . S
C609 C610 1.410 . S
C609 C617 1.503 . S
C610 C609 1.410 . S
C610 C611 1.392 . S
C610 C613 1.511 . S
C611 C607 1.376 . S
C611 C610 1.392 . S
C611 H623 0.929 . S
C612 C608 1.531 . S
C612 H624 0.960 . S
C612 H625 0.962 . S
C612 H626 0.960 . S
C613 C610 1.511 . S
C613 H627 0.961 . S
C613 H628 0.961 . S
C613 H629 0.961 . S
C614 C615 1.370 . S
C614 C616 1.363 . S
C614 H630 0.931 . S
C615 C614 1.370 . S
C615 C619 1.408 . S
C616 C614 1.363 . S
C616 C617 1.370 . S
C616 C620 1.524 . S
C617 C609 1.503 . S
C617 C616 1.370 . S
C617 C618 1.403 . S
C618 C617 1.403 . S
C618 C619 1.404 . S
C618 C621 1.539 . S
C619 C615 1.408 . S
C619 C618 1.404 . S
C619 H631 0.930 . S
C620 C616 1.524 . S
C620 H632 0.956 . S
C620 H633 0.961 . S
C620 H634 0.961 . S
C621 C618 1.539 . S
C621 H635 0.958 . S
C621 H636 0.961 . S
C621 H637 0.960 . S
H622 C606 0.931 . S
H623 C611 0.929 . S
H624 C612 0.960 . S
H625 C612 0.962 . S
H626 C612 0.960 . S
H627 C613 0.961 . S
H628 C613 0.961 . S
H629 C613 0.961 . S
H630 C614 0.931 . S
H631 C619 0.930 . S
H632 C620 0.956 . S
H633 C620 0.961 . S
H634 C620 0.961 . S
H635 C621 0.958 . S
H636 C621 0.961 . S
H637 C621 0.960 . S
C638 C639 1.391 . S
C638 C640 1.394 . S
C638 H654 0.931 . S
C639 C638 1.391 . S
C639 C643 1.376 . S
C640 C638 1.394 . S
C640 C641 1.369 . S
C640 C644 1.531 . S
C641 C640 1.369 . S
C641 C642 1.410 . S
C641 C649 1.503 1_455 S
C642 C641 1.410 . S
C642 C643 1.392 . S
C642 C645 1.511 . S
C643 C639 1.376 . S
C643 C642 1.392 . S
C643 H655 0.929 . S
C644 C640 1.531 . S
C644 H656 0.960 . S
C644 H657 0.962 . S
C644 H658 0.960 . S
C645 C642 1.511 . S
C645 H659 0.961 1_455 S
C645 H660 0.961 1_455 S
C645 H661 0.961 . S
C646 C647 1.370 . S
C646 C648 1.363 . S
C646 H662 0.931 . S
C647 C646 1.370 . S
C647 C651 1.408 . S
C648 C646 1.363 . S
C648 C649 1.370 . S
C648 C652 1.524 . S
C649 C641 1.503 1_655 S
C649 C648 1.370 . S
C649 C650 1.403 . S
C650 C649 1.403 . S
C650 C651 1.404 . S
C650 C653 1.539 1_655 S
C651 C647 1.408 . S
C651 C650 1.404 . S
C651 H663 0.930 . S
C652 C648 1.524 . S
C652 H664 0.956 . S
C652 H665 0.961 . S
C652 H666 0.961 . S
C653 C650 1.539 1_455 S
C653 H667 0.958 . S
C653 H668 0.961 . S
C653 H669 0.960 . S
H654 C638 0.931 . S
H655 C643 0.929 . S
H656 C644 0.960 . S
H657 C644 0.962 . S
H658 C644 0.960 . S
H659 C645 0.961 1_655 S
H660 C645 0.961 1_655 S
H661 C645 0.961 . S
H662 C646 0.931 . S
H663 C651 0.930 . S
H664 C652 0.956 . S
H665 C652 0.961 . S
H666 C652 0.961 . S
H667 C653 0.958 . S
H668 C653 0.961 . S
H669 C653 0.960 . S
C670 C671 1.391 . S
C670 C672 1.394 . S
C670 H686 0.931 . S
C671 C670 1.391 . S
C671 C675 1.376 . S
C672 C670 1.394 . S
C672 C673 1.369 . S
C672 C676 1.531 . S
C673 C672 1.369 . S
C673 C674 1.410 . S
C673 C681 1.503 1_545 S
C674 C673 1.410 . S
C674 C675 1.392 . S
C674 C677 1.511 . S
C675 C671 1.376 . S
C675 C674 1.392 . S
C675 H687 0.929 . S
C676 C672 1.531 . S
C676 H688 0.960 . S
C676 H689 0.962 . S
C676 H690 0.960 . S
C677 C674 1.511 . S
C677 H691 0.961 . S
C677 H692 0.961 1_545 S
C677 H693 0.961 . S
C678 C679 1.370 . S
C678 C680 1.363 . S
C678 H694 0.931 . S
C679 C678 1.370 . S
C679 C683 1.408 . S
C680 C678 1.363 . S
C680 C681 1.370 . S
C680 C684 1.524 . S
C681 C673 1.503 1_565 S
C681 C680 1.370 . S
C681 C682 1.403 . S
C682 C681 1.403 . S
C682 C683 1.404 . S
C682 C685 1.539 1_565 S
C683 C679 1.408 . S
C683 C682 1.404 . S
C683 H695 0.930 . S
C684 C680 1.524 . S
C684 H696 0.956 . S
C684 H697 0.961 . S
C684 H698 0.961 . S
C685 C682 1.539 1_545 S
C685 H699 0.958 . S
C685 H700 0.961 . S
C685 H701 0.960 . S
H686 C670 0.931 . S
H687 C675 0.929 . S
H688 C676 0.960 . S
H689 C676 0.962 . S
H690 C676 0.960 . S
H691 C677 0.961 . S
H692 C677 0.961 1_565 S
H693 C677 0.961 . S
H694 C678 0.931 . S
H695 C683 0.930 . S
H696 C684 0.956 . S
H697 C684 0.961 . S
H698 C684 0.961 . S
H699 C685 0.958 . S
H700 C685 0.961 . S
H701 C685 0.960 . S
C127 C97 0.857 . S
C135 C15 0.876 . S
C159 C121 0.887 . S
C167 C39 0.842 . S
C191 C13 0.882 . S
C199 C57 0.846 . S
C223 C37 0.872 . S
C231 C81 0.898 . S
C255 C55 0.917 . S
C263 C99 0.892 . S
C287 C79 0.955 . S
C295 C123 0.841 . S
C319 C14 1.036 . S
C327 C80 1.082 . S
C351 C98 1.064 . S
C359 C38 1.072 . S
C383 C122 1.027 . S
C391 C56 1.067 . S
C415 C58 1.140 . S
C423 C118 1.155 . S
C447 C16 1.163 . S
C455 C76 1.156 . S
C479 C100 1.147 . S
C487 C34 1.150 . S
C511 C119 1.073 . S
C519 C18 1.079 . S
C543 C36 1.045 . S
C551 C17 1.110 . S
C575 C60 1.052 . S
C583 C35 1.114 . S
C607 C59 1.139 . S
C615 C78 1.102 . S
C639 C102 1.097 . S
C647 C77 1.096 . S
C671 C120 1.092 . S
C679 C101 1.096 . S
