# Generated by pormake.
# Topology wld, (5)-cn, num edge types: 1
# Building blocks:
#     Node 0, Type 0, BuildingBlock: XOMCOT_clean_sbu_0, # of connection points: 5
#     Node 1, Type 0, BuildingBlock: XOMCOT_clean_sbu_0, # of connection points: 5
#     Node 2, Type 0, BuildingBlock: XOMCOT_clean_sbu_0, # of connection points: 5
#     Node 3, Type 0, BuildingBlock: XOMCOT_clean_sbu_0, # of connection points: 5
#     Node 4, Type 0, BuildingBlock: XOMCOT_clean_sbu_0, # of connection points: 5
#     Node 5, Type 0, BuildingBlock: XOMCOT_clean_sbu_0, # of connection points: 5
#     Node 6, Type 0, BuildingBlock: XOMCOT_clean_sbu_0, # of connection points: 5
#     Node 7, Type 0, BuildingBlock: XOMCOT_clean_sbu_0, # of connection points: 5
#     Node 8, Type 0, BuildingBlock: XOMCOT_clean_sbu_0, # of connection points: 5
#     Node 9, Type 0, BuildingBlock: XOMCOT_clean_sbu_0, # of connection points: 5
#     Node 10, Type 0, BuildingBlock: XOMCOT_clean_sbu_0, # of connection points: 5
#     Node 11, Type 0, BuildingBlock: XOMCOT_clean_sbu_0, # of connection points: 5
#     Edge 12, Type (0, 0), BuildingBlock: OJICUG_clean_linker_0, # of connection points: 2
#     Edge 13, Type (0, 0), BuildingBlock: OJICUG_clean_linker_0, # of connection points: 2
#     Edge 14, Type (0, 0), BuildingBlock: OJICUG_clean_linker_0, # of connection points: 2
#     Edge 15, Type (0, 0), BuildingBlock: OJICUG_clean_linker_0, # of connection points: 2
#     Edge 16, Type (0, 0), BuildingBlock: OJICUG_clean_linker_0, # of connection points: 2
#     Edge 17, Type (0, 0), BuildingBlock: OJICUG_clean_linker_0, # of connection points: 2
#     Edge 18, Type (0, 0), BuildingBlock: OJICUG_clean_linker_0, # of connection points: 2
#     Edge 19, Type (0, 0), BuildingBlock: OJICUG_clean_linker_0, # of connection points: 2
#     Edge 20, Type (0, 0), BuildingBlock: OJICUG_clean_linker_0, # of connection points: 2
#     Edge 21, Type (0, 0), BuildingBlock: OJICUG_clean_linker_0, # of connection points: 2
#     Edge 22, Type (0, 0), BuildingBlock: OJICUG_clean_linker_0, # of connection points: 2
#     Edge 23, Type (0, 0), BuildingBlock: OJICUG_clean_linker_0, # of connection points: 2
#     Edge 24, Type (0, 0), BuildingBlock: OJICUG_clean_linker_0, # of connection points: 2
#     Edge 25, Type (0, 0), BuildingBlock: OJICUG_clean_linker_0, # of connection points: 2
#     Edge 26, Type (0, 0), BuildingBlock: OJICUG_clean_linker_0, # of connection points: 2
#     Edge 27, Type (0, 0), BuildingBlock: OJICUG_clean_linker_0, # of connection points: 2
#     Edge 28, Type (0, 0), BuildingBlock: OJICUG_clean_linker_0, # of connection points: 2
#     Edge 29, Type (0, 0), BuildingBlock: OJICUG_clean_linker_0, # of connection points: 2
#     Edge 30, Type (0, 0), BuildingBlock: OJICUG_clean_linker_0, # of connection points: 2
#     Edge 31, Type (0, 0), BuildingBlock: OJICUG_clean_linker_0, # of connection points: 2
#     Edge 32, Type (0, 0), BuildingBlock: OJICUG_clean_linker_0, # of connection points: 2
#     Edge 33, Type (0, 0), BuildingBlock: OJICUG_clean_linker_0, # of connection points: 2
#     Edge 34, Type (0, 0), BuildingBlock: OJICUG_clean_linker_0, # of connection points: 2
#     Edge 35, Type (0, 0), BuildingBlock: OJICUG_clean_linker_0, # of connection points: 2
#     Edge 36, Type (0, 0), BuildingBlock: OJICUG_clean_linker_0, # of connection points: 2
#     Edge 37, Type (0, 0), BuildingBlock: OJICUG_clean_linker_0, # of connection points: 2
#     Edge 38, Type (0, 0), BuildingBlock: OJICUG_clean_linker_0, # of connection points: 2
#     Edge 39, Type (0, 0), BuildingBlock: OJICUG_clean_linker_0, # of connection points: 2
#     Edge 40, Type (0, 0), BuildingBlock: OJICUG_clean_linker_0, # of connection points: 2
#     Edge 41, Type (0, 0), BuildingBlock: OJICUG_clean_linker_0, # of connection points: 2
# Relax obj value: 0.215
# Max RMSD: 0.220
# Mean RMSD: 0.220
data_MOF--net-wld--node1-XOMCOT_clean_sbu_0--edge1-OJICUG_clean_linker_0
_symmetry_space_group_name_H-M    P1
_symmetry_Int_Tables_number       1
_symmetry_cell_setting            triclinic
loop_
_symmetry_equiv_pos_as_xyz
'x, y, z'
_cell_length_a     28.815767
_cell_length_b     28.81781
_cell_length_c     39.459088
_cell_angle_alpha  89.985942
_cell_angle_beta   90.120755
_cell_angle_gamma 119.99659
loop_
_atom_site_label
_atom_site_type_symbol
_atom_site_fract_x
_atom_site_fract_y
_atom_site_fract_z
_atom_type_partial_charge
Co0 Co 0.40218 0.25289 0.0848 0.0
C1 C 0.32965 0.28751 0.05195 0.0
C2 C 0.41289 0.34041 0.0417 0.0
C3 C 0.38404 0.36008 0.02572 0.0
N4 N 0.37931 0.29623 0.05957 0.0
N5 N 0.33186 0.32687 0.03221 0.0
H6 H 0.2926 0.25272 0.05941 0.0
H7 H 0.45566 0.35676 0.03958 0.0
C8 C 0.48401 0.36441 0.10562 0.0
O9 O 0.44455 0.37346 0.11229 0.0
N10 N 0.42673 0.21037 0.10816 0.0
C11 C 0.39923 0.16901 0.12941 0.0
C12 C 0.43128 0.14778 0.13788 0.0
C13 C 0.47454 0.21358 0.1037 0.0
N14 N 0.47863 0.1758 0.12158 0.0
C15 C 0.31976 0.24492 0.13055 0.0
C16 C 0.38589 0.28533 0.18658 0.0
C17 C 0.33244 0.27275 0.18939 0.0
C18 C 0.29894 0.25157 0.16101 0.0
C19 C 0.40511 0.27873 0.15562 0.0
N20 N 0.37295 0.26138 0.1275 0.0
H21 H 0.29268 0.22514 0.10985 0.0
H22 H 0.44618 0.28759 0.15433 0.0
H23 H 0.35853 0.15477 0.13766 0.0
H24 H 0.50471 0.24171 0.08651 0.0
O25 O 0.34102 0.18763 0.0681 0.0
O26 O 0.41983 0.23235 0.04253 0.0
O27 O 0.47397 0.31869 0.09434 0.0
C28 C 0.37193 0.19054 0.04314 0.0
H29 H 0.39991 0.39509 0.00958 0.0
H30 H 0.42015 0.11398 0.1545 0.0
H31 H 0.41301 0.30099 0.208 0.0
H32 H 0.2568 0.23926 0.16254 0.0
Co33 Co 0.75724 0.1522 0.08615 0.0
C34 C 0.71815 0.04415 0.05404 0.0
C35 C 0.66143 0.07124 0.05003 0.0
C36 C 0.64039 0.02254 0.03418 0.0
N37 N 0.70912 0.08395 0.06414 0.0
N38 N 0.67594 0.00547 0.03679 0.0
H39 H 0.75522 0.04404 0.05808 0.0
H40 H 0.6438 0.09663 0.04962 0.0
C41 C 0.65101 0.12989 0.11265 0.0
O42 O 0.64302 0.08285 0.12243 0.0
N43 N 0.80485 0.22148 0.10578 0.0
C44 C 0.85029 0.23685 0.12342 0.0
C45 C 0.8739 0.29101 0.12987 0.0
C46 C 0.80165 0.26611 0.10133 0.0
N47 N 0.84327 0.30937 0.11588 0.0
C48 C 0.75476 0.07372 0.13434 0.0
C49 C 0.74022 0.12169 0.1907 0.0
C50 C 0.73838 0.07237 0.19502 0.0
C51 C 0.74678 0.04894 0.16606 0.0
C52 C 0.7455 0.14343 0.15849 0.0
N53 N 0.75132 0.11895 0.13046 0.0
H54 H 0.7635 0.05611 0.11315 0.0
H55 H 0.74413 0.18008 0.15612 0.0
H56 H 0.86546 0.21068 0.13061 0.0
H57 H 0.77051 0.26703 0.0865 0.0
O58 O 0.81916 0.15113 0.06808 0.0
O59 O 0.77465 0.18539 0.04221 0.0
O60 O 0.69438 0.16252 0.09732 0.0
C61 C 0.81537 0.17748 0.04236 0.0
H62 H 0.6029 0.00231 0.02035 0.0
H63 H 0.91095 0.31492 0.1436 0.0
H64 H 0.73725 0.14389 0.21183 0.0
H65 H 0.74644 0.01131 0.16735 0.0
Co66 Co 0.85744 0.60844 0.08568 0.0
C67 C 0.96523 0.68115 0.05405 0.0
C68 C 0.93413 0.59816 0.04241 0.0
C69 C 0.9829 0.62713 0.02686 0.0
N70 N 0.92385 0.63147 0.06088 0.0
N71 N 1.0023 0.67913 0.03423 0.0
H72 H 0.96786 0.71814 0.06209 0.0
H73 H 0.90736 0.55554 0.03964 0.0
C74 C 0.88776 0.52706 0.10588 0.0
O75 O 0.93604 0.56692 0.11273 0.0
N76 N 0.79015 0.58394 0.10857 0.0
C77 C 0.776 0.61192 0.12924 0.0
C78 C 0.72216 0.58079 0.13644 0.0
C79 C 0.74519 0.5367 0.10326 0.0
N80 N 0.70284 0.53355 0.11996 0.0
C81 C 0.93103 0.69038 0.13225 0.0
C82 C 0.90519 0.62322 0.18764 0.0
C83 C 0.94594 0.67666 0.19095 0.0
C84 C 0.95827 0.7107 0.16291 0.0
C85 C 0.8796 0.60454 0.1565 0.0
N86 N 0.89458 0.63719 0.12869 0.0
H87 H 0.93826 0.71781 0.11182 0.0
H88 H 0.84747 0.56346 0.15482 0.0
H89 H 0.80257 0.65255 0.13765 0.0
H90 H 0.74316 0.50651 0.08605 0.0
O91 O 0.85366 0.66978 0.06912 0.0
O92 O 0.81982 0.5912 0.04312 0.0
O93 O 0.85152 0.5366 0.09493 0.0
C94 C 0.82602 0.63913 0.04389 0.0
H95 H 1.00193 0.61153 0.0104 0.0
H96 H 0.69898 0.59251 0.15212 0.0
H97 H 0.89368 0.59571 0.20879 0.0
H98 H 0.98794 0.75285 0.16486 0.0
Co99 Co 0.2517 0.39771 0.42081 0.0
C100 C 0.28628 0.32516 0.45338 0.0
C101 C 0.3401 0.40837 0.46332 0.0
C102 C 0.35956 0.37925 0.4792 0.0
N103 N 0.29546 0.37493 0.44567 0.0
N104 N 0.32575 0.32709 0.4729 0.0
H105 H 0.25104 0.28824 0.44615 0.0
H106 H 0.35685 0.45119 0.46547 0.0
C107 C 0.36299 0.48041 0.40016 0.0
O108 O 0.37213 0.44123 0.39274 0.0
N109 N 0.20839 0.42174 0.39783 0.0
C110 C 0.1664 0.3935 0.37703 0.0
C111 C 0.14313 0.42415 0.36978 0.0
C112 C 0.21 0.46864 0.4032 0.0
N113 N 0.17052 0.47135 0.38639 0.0
C114 C 0.24467 0.31611 0.37454 0.0
C115 C 0.28397 0.3828 0.31881 0.0
C116 C 0.27243 0.32969 0.31573 0.0
C117 C 0.25174 0.29588 0.34394 0.0
C118 C 0.27696 0.40144 0.3499 0.0
N119 N 0.2602 0.36906 0.37786 0.0
H120 H 0.22543 0.28879 0.39513 0.0
H121 H 0.28522 0.4423 0.35147 0.0
H122 H 0.1528 0.353 0.36855 0.0
H123 H 0.23791 0.49889 0.42051 0.0
O124 O 0.18672 0.33621 0.43739 0.0
O125 O 0.23141 0.4149 0.46328 0.0
O126 O 0.31722 0.4699 0.41159 0.0
C127 C 0.18969 0.36697 0.46252 0.0
H128 H 0.39482 0.39494 0.49518 0.0
H129 H 0.10823 0.41211 0.35396 0.0
H130 H 0.29925 0.41013 0.29754 0.0
H131 H 0.24025 0.25397 0.3422 0.0
Co132 Co 0.60538 0.85442 0.42457 0.0
C133 C 0.67654 0.96086 0.45539 0.0
C134 C 0.59315 0.93433 0.46337 0.0
C135 C 0.62308 0.98454 0.4772 0.0
N136 N 0.62657 0.91973 0.4494 0.0
N137 N 0.67531 1.00105 0.47221 0.0
H138 H 0.7128 0.96175 0.44721 0.0
H139 H 0.54995 0.9103 0.4636 0.0
C140 C 0.502 0.82708 0.39003 0.0
O141 O 0.51707 0.81007 0.36368 0.0
N142 N 0.58281 0.78748 0.40068 0.0
C143 C 0.60822 0.77417 0.37726 0.0
C144 C 0.5774 0.72014 0.37033 0.0
C145 C 0.5377 0.74119 0.40808 0.0
N146 N 0.53296 0.69958 0.38969 0.0
C147 C 0.68167 0.90454 0.36997 0.0
C148 C 0.63112 0.9548 0.34107 0.0
C149 C 0.67692 0.95997 0.32502 0.0
C150 C 0.70301 0.93519 0.3405 0.0
C151 C 0.61251 0.92558 0.37089 0.0
N152 N 0.63512 0.89746 0.3837 0.0
H153 H 0.70288 0.88683 0.38189 0.0
H154 H 0.57996 0.92642 0.38368 0.0
H155 H 0.6468 0.80069 0.36634 0.0
H156 H 0.5094 0.73805 0.4272 0.0
O157 O 0.66763 0.8521 0.44139 0.0
O158 O 0.58832 0.81517 0.46642 0.0
O159 O 0.53259 0.84663 0.41589 0.0
C160 C 0.63685 0.82305 0.46611 0.0
H161 H 0.60776 0.00692 0.49052 0.0
H162 H 0.58716 0.69782 0.35248 0.0
H163 H 0.60893 0.97277 0.33089 0.0
H164 H 0.73992 0.93979 0.33035 0.0
Co165 Co 0.14788 0.74978 0.42355 0.0
C166 C 0.04108 0.71641 0.45583 0.0
C167 C 0.06735 0.65953 0.46337 0.0
C168 C 0.01877 0.64052 0.47901 0.0
N169 N 0.08049 0.70591 0.44731 0.0
N170 N 1.00236 0.67622 0.4742 0.0
H171 H 0.04116 0.75304 0.45003 0.0
H172 H 0.09217 0.64129 0.4648 0.0
C173 C 0.11873 0.63912 0.40024 0.0
O174 O 0.07083 0.63058 0.39205 0.0
N175 N 0.21615 0.79279 0.40166 0.0
C176 C 0.23665 0.84239 0.38848 0.0
C177 C 0.28981 0.86121 0.38054 0.0
C178 C 0.25649 0.78198 0.4014 0.0
N179 N 0.30163 0.8228 0.3885 0.0
C180 C 0.07442 0.75869 0.37725 0.0
C181 C 0.10412 0.72312 0.32074 0.0
C182 C 0.06203 0.73397 0.31786 0.0
C183 C 0.04784 0.7529 0.34647 0.0
C184 C 0.1291 0.72889 0.35201 0.0
N185 N 0.11229 0.74372 0.38028 0.0
H186 H 0.06519 0.77628 0.39828 0.0
H187 H 0.16175 0.72069 0.35354 0.0
H188 H 0.21517 0.8641 0.38614 0.0
H189 H 0.25398 0.74632 0.41224 0.0
O190 O 0.15164 0.81441 0.44093 0.0
O191 O 0.18443 0.76838 0.46655 0.0
O192 O 0.15331 0.68385 0.41334 0.0
C193 C 0.17872 0.81045 0.46616 0.0
H194 H 0.99793 0.60425 0.49392 0.0
H195 H 0.31784 0.90028 0.3704 0.0
H196 H 0.11692 0.70908 0.2992 0.0
H197 H 0.01696 0.7638 0.34497 0.0
Co198 Co 0.60766 0.75409 0.92285 0.0
C199 C 0.67939 0.72096 0.95582 0.0
C200 C 0.59606 0.66685 0.96625 0.0
C201 C 0.62566 0.64705 0.98117 0.0
N202 N 0.62959 0.71274 0.95006 0.0
N203 N 0.67782 0.68101 0.97462 0.0
H204 H 0.71565 0.75456 0.94593 0.0
H205 H 0.55295 0.64873 0.96708 0.0
C206 C 0.50976 0.67209 0.88625 0.0
O207 O 0.52899 0.70017 0.85835 0.0
N208 N 0.58323 0.79511 0.89666 0.0
C209 C 0.60944 0.83651 0.87503 0.0
C210 C 0.57728 0.85795 0.86766 0.0
C211 C 0.53595 0.79285 0.90241 0.0
N212 N 0.53112 0.83059 0.88506 0.0
C213 C 0.68433 0.7831 0.86858 0.0
C214 C 0.64556 0.68047 0.84404 0.0
C215 C 0.68546 0.72364 0.8258 0.0
C216 C 0.70596 0.77544 0.83883 0.0
C217 C 0.62442 0.69016 0.87321 0.0
N218 N 0.64096 0.74134 0.88366 0.0
H219 H 0.70262 0.82266 0.87953 0.0
H220 H 0.59435 0.65629 0.88722 0.0
H221 H 0.64992 0.85281 0.86631 0.0
H222 H 0.50699 0.76593 0.92065 0.0
O223 O 0.66776 0.8203 0.93955 0.0
O224 O 0.58741 0.77678 0.96326 0.0
O225 O 0.53665 0.68731 0.91383 0.0
C226 C 0.63542 0.81834 0.96326 0.0
H227 H 0.61021 0.61075 0.99606 0.0
H228 H 0.58798 0.8922 0.85153 0.0
H229 H 0.62987 0.63963 0.8354 0.0
H230 H 0.7387 0.80954 0.82634 0.0
Co231 Co 0.25293 0.85483 0.92245 0.0
C232 C 0.29007 0.96362 0.95331 0.0
C233 C 0.34237 0.93267 0.96409 0.0
C234 C 0.36283 0.98174 0.97944 0.0
N235 N 0.29804 0.92205 0.94628 0.0
N236 N 0.33 1.00111 0.97262 0.0
H237 H 0.25528 0.96597 0.94582 0.0
H238 H 0.35814 0.90582 0.96676 0.0
C239 C 0.36317 0.88161 0.90119 0.0
O240 O 0.37242 0.92997 0.89373 0.0
N241 N 0.20827 0.78686 0.90053 0.0
C242 C 0.16561 0.77288 0.8803 0.0
C243 C 0.14179 0.71878 0.87355 0.0
C244 C 0.20976 0.74153 0.90605 0.0
N245 N 0.16955 0.69913 0.88987 0.0
C246 C 0.24656 0.92843 0.8747 0.0
C247 C 0.2858 0.89844 0.8202 0.0
C248 C 0.27627 0.94124 0.81625 0.0
C249 C 0.25469 0.95509 0.84368 0.0
C250 C 0.27708 0.87306 0.85145 0.0
N251 N 0.26106 0.89036 0.87892 0.0
H252 H 0.22794 0.93795 0.89501 0.0
H253 H 0.28389 0.83956 0.85362 0.0
H254 H 0.15204 0.79981 0.87182 0.0
H255 H 0.23824 0.73938 0.92295 0.0
O256 O 0.18892 0.85318 0.93913 0.0
O257 O 0.23315 0.81901 0.96546 0.0
O258 O 0.31761 0.84672 0.91312 0.0
C259 C 0.19189 0.82597 0.96463 0.0
H260 H 0.39797 1.00087 0.99555 0.0
H261 H 0.10637 0.69572 0.85818 0.0
H262 H 0.30008 0.88466 0.79927 0.0
H263 H 0.24513 0.98684 0.84144 0.0
Co264 Co 0.14987 0.39811 0.92138 0.0
C265 C 0.04174 0.32271 0.9522 0.0
C266 C 0.07211 0.40509 0.96534 0.0
C267 C 0.02311 0.37518 0.98045 0.0
N268 N 0.0831 0.37284 0.94628 0.0
N269 N 0.00413 0.32357 0.97214 0.0
H270 H 0.03938 0.28623 0.94332 0.0
H271 H 0.09852 0.44765 0.96874 0.0
C272 C 0.11838 0.47968 0.90279 0.0
O273 O 0.06991 0.44032 0.89578 0.0
N274 N 0.21756 0.42542 0.89839 0.0
C275 C 0.23232 0.40202 0.87445 0.0
C276 C 0.28504 0.43705 0.86583 0.0
C277 C 0.26117 0.47339 0.90447 0.0
N278 N 0.30292 0.4816 0.88497 0.0
C279 C 0.07823 0.31636 0.87428 0.0
C280 C 0.10034 0.38439 0.81971 0.0
C281 C 0.06141 0.33032 0.81604 0.0
C282 C 0.05096 0.2959 0.84365 0.0
C283 C 0.12598 0.4032 0.85085 0.0
N284 N 0.11281 0.36993 0.87828 0.0
H285 H 0.07262 0.2888 0.89433 0.0
H286 H 0.15692 0.44474 0.85275 0.0
H287 H 0.2067 0.36246 0.86406 0.0
H288 H 0.26216 0.50188 0.92275 0.0
O289 O 0.15555 0.33728 0.93685 0.0
O290 O 0.18756 0.41484 0.96389 0.0
O291 O 0.15434 0.46951 0.91335 0.0
C292 C 0.18276 0.36753 0.96234 0.0
H293 H 0.00358 0.38985 0.99721 0.0
H294 H 0.30868 0.42995 0.84748 0.0
H295 H 0.11043 0.41221 0.79884 0.0
H296 H 0.02279 0.25339 0.84138 0.0
Co297 Co 0.75344 0.60486 0.58777 0.0
C298 C 0.71817 0.67871 0.55794 0.0
C299 C 0.66793 0.5964 0.54384 0.0
C300 C 0.64855 0.6259 0.52843 0.0
N301 N 0.71027 0.62884 0.56357 0.0
N302 N 0.68012 0.67746 0.53728 0.0
H303 H 0.75155 0.71528 0.56749 0.0
H304 H 0.65289 0.5541 0.54001 0.0
C305 C 0.64132 0.52206 0.60624 0.0
O306 O 0.63198 0.56121 0.61337 0.0
N307 N 0.79613 0.57963 0.61017 0.0
C308 C 0.83754 0.60684 0.63156 0.0
C309 C 0.86014 0.57557 0.63864 0.0
C310 C 0.79417 0.53268 0.60431 0.0
N311 N 0.8329 0.529 0.62137 0.0
C312 C 0.76425 0.68527 0.63644 0.0
C313 C 0.71957 0.61483 0.69 0.0
C314 C 0.73645 0.66906 0.69542 0.0
C315 C 0.75977 0.70465 0.66813 0.0
C316 C 0.72542 0.59747 0.65822 0.0
N317 N 0.7448 0.63184 0.63132 0.0
H318 H 0.78516 0.71355 0.61649 0.0
H319 H 0.71481 0.55605 0.65548 0.0
H320 H 0.85111 0.64704 0.64065 0.0
H321 H 0.76649 0.50303 0.5866 0.0
O322 O 0.81877 0.66674 0.57192 0.0
O323 O 0.7738 0.58905 0.54492 0.0
O324 O 0.6876 0.5326 0.59583 0.0
C325 C 0.81562 0.63684 0.54622 0.0
H326 H 0.61506 0.61107 0.51098 0.0
H327 H 0.89443 0.58672 0.65489 0.0
H328 H 0.7016 0.58552 0.71005 0.0
H329 H 0.77557 0.74726 0.67137 0.0
Co330 Co 0.39861 0.14785 0.58432 0.0
C331 C 0.32592 0.03847 0.55431 0.0
C332 C 0.40843 0.07112 0.54078 0.0
C333 C 0.37953 0.02166 0.52594 0.0
N334 N 0.37548 0.08099 0.55989 0.0
N335 N 0.32782 1.00124 0.53448 0.0
H336 H 0.28904 0.03505 0.5633 0.0
H337 H 0.45072 0.09859 0.53717 0.0
C338 C 0.48156 0.11902 0.60368 0.0
O339 O 0.44231 0.07048 0.61058 0.0
N340 N 0.42299 0.21539 0.60695 0.0
C341 C 0.39502 0.2292 0.62785 0.0
C342 C 0.42584 0.28307 0.6351 0.0
C343 C 0.46992 0.26058 0.60154 0.0
N344 N 0.47286 0.30274 0.61842 0.0
C345 C 0.31838 0.07546 0.6322 0.0
C346 C 0.38881 0.10113 0.6859 0.0
C347 C 0.33576 0.05997 0.69006 0.0
C348 C 0.29978 0.04837 0.66308 0.0
C349 C 0.40549 0.12701 0.65481 0.0
N350 N 0.37144 0.11159 0.62764 0.0
H351 H 0.28991 0.06801 0.61232 0.0
H352 H 0.44626 0.15956 0.6526 0.0
H353 H 0.35463 0.20234 0.63646 0.0
H354 H 0.50008 0.26287 0.58423 0.0
O355 O 0.33656 0.15088 0.56812 0.0
O356 O 0.4146 0.18463 0.54162 0.0
O357 O 0.4711 0.15473 0.59295 0.0
C358 C 0.36669 0.1784 0.54273 0.0
H359 H 0.39491 0.00286 0.5091 0.0
H360 H 0.4141 0.30599 0.65103 0.0
H361 H 0.41737 0.11337 0.70656 0.0
H362 H 0.25794 0.01813 0.66557 0.0
Co363 Co 0.85588 0.25055 0.58432 0.0
C364 C 0.9632 0.28622 0.55195 0.0
C365 C 0.93448 0.34098 0.54368 0.0
C366 C 0.98318 0.36096 0.528 0.0
N367 N 0.92279 0.29536 0.56022 0.0
N368 N 1.00116 0.32659 0.53327 0.0
H369 H 0.96439 0.25036 0.55814 0.0
H370 H 0.90863 0.35805 0.54206 0.0
C371 C 0.88355 0.36058 0.60715 0.0
O372 O 0.93182 0.36958 0.6147 0.0
N373 N 0.78814 0.2064 0.60647 0.0
C374 C 0.77378 0.16343 0.6264 0.0
C375 C 0.71978 0.14026 0.63326 0.0
C376 C 0.74316 0.20869 0.60124 0.0
N377 N 0.70058 0.16871 0.6173 0.0
C378 C 0.93087 0.2436 0.63043 0.0
C379 C 0.90139 0.2796 0.68684 0.0
C380 C 0.94414 0.26974 0.68957 0.0
C381 C 0.95827 0.25062 0.66103 0.0
C382 C 0.87573 0.27279 0.65572 0.0
N383 N 0.89237 0.25774 0.62746 0.0
H384 H 0.93997 0.22574 0.60949 0.0
H385 H 0.8425 0.28015 0.65432 0.0
H386 H 0.80032 0.14919 0.63455 0.0
H387 H 0.74133 0.23753 0.58455 0.0
O388 O 0.853 0.18633 0.56684 0.0
O389 O 0.81911 0.23155 0.54147 0.0
O390 O 0.84873 0.31544 0.59462 0.0
C391 C 0.82548 0.18991 0.54172 0.0
H392 H 1.00302 0.39696 0.51276 0.0
H393 H 0.69646 0.10472 0.6484 0.0
H394 H 0.88859 0.29365 0.70838 0.0
H395 H 0.98969 0.24047 0.66248 0.0
C396 C 0.61613 0.19397 0.10852 0.0
C397 C 0.60762 0.14283 0.11663 0.0
H398 H 0.58234 0.24501 0.10451 0.0
C399 C 0.5566 0.10343 0.1277 0.0
H400 H 0.6551 0.22539 0.10019 0.0
C401 C 0.51465 0.11444 0.12981 0.0
C402 C 0.52269 0.16526 0.12108 0.0
H403 H 0.54858 0.06354 0.1341 0.0
H404 H 0.47563 0.08252 0.13747 0.0
C405 C 0.57422 0.20511 0.11083 0.0
C406 C 0.90655 0.40718 0.11903 0.0
C407 C 0.85411 0.36402 0.11472 0.0
H408 H 0.95827 0.49223 0.11964 0.0
C409 C 0.81259 0.37521 0.10844 0.0
H410 H 0.93968 0.40032 0.1235 0.0
C411 C 0.82338 0.42808 0.10585 0.0
C412 C 0.87592 0.47108 0.1097 0.0
H413 H 0.77158 0.34318 0.10559 0.0
H414 H 0.79049 0.43519 0.10078 0.0
C415 C 0.91729 0.46004 0.11663 0.0
C416 C 0.63582 0.43841 0.10922 0.0
C417 C 0.64789 0.49062 0.11791 0.0
H418 H 0.57491 0.35772 0.09862 0.0
C419 C 0.60537 0.50048 0.12345 0.0
H420 H 0.66744 0.4291 0.10531 0.0
C421 C 0.5522 0.4594 0.11983 0.0
C422 C 0.54026 0.40751 0.11052 0.0
H423 H 0.61304 0.54022 0.12979 0.0
H424 H 0.5205 0.4686 0.12385 0.0
C425 C 0.58267 0.39737 0.10552 0.0
C426 C 0.19745 0.56604 0.39768 0.0
C427 C 0.15793 0.51391 0.3883 0.0
H428 H 0.21624 0.64619 0.40875 0.0
C429 C 0.10562 0.50382 0.38188 0.0
H430 H 0.23834 0.57562 0.40223 0.0
C431 C 0.09301 0.54458 0.38533 0.0
C432 C 0.13234 0.59633 0.39539 0.0
H433 H 0.07397 0.46415 0.37498 0.0
H434 H 0.05218 0.53522 0.38064 0.0
C435 C 0.1848 0.60667 0.40126 0.0
C436 C 0.43842 0.63238 0.40167 0.0
C437 C 0.49002 0.64463 0.39132 0.0
H438 H 0.35794 0.57125 0.41239 0.0
C439 C 0.49904 0.60233 0.3831 0.0
H440 H 0.42979 0.66394 0.40761 0.0
C441 C 0.45771 0.54907 0.38566 0.0
C442 C 0.40636 0.53686 0.39646 0.0
H443 H 0.53834 0.61027 0.37535 0.0
H444 H 0.46626 0.51748 0.37951 0.0
C445 C 0.3971 0.57916 0.40421 0.0
C446 C 0.4058 0.78411 0.37349 0.0
C447 C 0.45089 0.82692 0.38879 0.0
H448 H 0.32202 0.74911 0.36206 0.0
C449 C 0.44672 0.86948 0.40284 0.0
H450 H 0.4081 0.7508 0.36261 0.0
C451 C 0.39808 0.86923 0.40153 0.0
C452 C 0.3527 0.8257 0.38706 0.0
H453 H 0.48113 0.90309 0.41457 0.0
H454 H 0.39535 0.90208 0.41273 0.0
C455 C 0.35683 0.78311 0.37315 0.0
C456 C 0.39593 0.81562 0.90212 0.0
C457 C 0.40582 0.86789 0.89615 0.0
H458 H 0.42769 0.76252 0.90262 0.0
C459 C 0.45716 0.90722 0.88553 0.0
H460 H 0.3567 0.78424 0.91009 0.0
C461 C 0.49791 0.89484 0.88145 0.0
C462 C 0.48836 0.84276 0.88782 0.0
H463 H 0.46621 0.94791 0.88075 0.0
H464 H 0.53723 0.92655 0.87406 0.0
C465 C 0.43672 0.8032 0.89797 0.0
C466 C 0.09176 0.54846 0.88986 0.0
C467 C 0.13163 0.53606 0.89858 0.0
H468 H 0.0723 0.60986 0.88063 0.0
C469 C 0.18441 0.57816 0.90346 0.0
H470 H 0.05069 0.51699 0.88595 0.0
C471 C 0.1969 0.63144 0.9001 0.0
C472 C 0.15693 0.644 0.89189 0.0
H473 H 0.21624 0.57006 0.90991 0.0
H474 H 0.23803 0.66277 0.90382 0.0
C475 C 0.10425 0.6018 0.88659 0.0
C476 C 0.42895 0.60105 0.91614 0.0
C477 C 0.45712 0.62222 0.88578 0.0
H478 H 0.35749 0.5396 0.93952 0.0
C479 C 0.43425 0.59554 0.85514 0.0
H480 H 0.44547 0.62068 0.94015 0.0
C481 C 0.38415 0.54862 0.85491 0.0
C482 C 0.35558 0.52823 0.8852 0.0
H483 H 0.45514 0.61078 0.83137 0.0
H484 H 0.36711 0.52897 0.831 0.0
C485 C 0.37852 0.55483 0.9158 0.0
C486 C 0.8054 0.43429 0.6095 0.0
C487 C 0.84507 0.48618 0.61922 0.0
H488 H 0.78626 0.354 0.59817 0.0
C489 C 0.89715 0.49585 0.62585 0.0
H490 H 0.76469 0.4251 0.60473 0.0
C491 C 0.90945 0.45493 0.62233 0.0
C492 C 0.87002 0.40338 0.61201 0.0
H493 H 0.92889 0.53535 0.63299 0.0
H494 H 0.95015 0.46402 0.62722 0.0
C495 C 0.81774 0.3934 0.60589 0.0
C496 C 0.54622 0.4533 0.61937 0.0
C497 C 0.5983 0.46565 0.61029 0.0
H498 H 0.46545 0.392 0.62871 0.0
C499 C 0.60874 0.42353 0.60487 0.0
H500 H 0.53678 0.48478 0.62369 0.0
C501 C 0.56786 0.37025 0.60803 0.0
C502 C 0.51552 0.35778 0.61661 0.0
H503 H 0.64853 0.43162 0.5981 0.0
H504 H 0.57739 0.33883 0.60386 0.0
C505 C 0.50531 0.4 0.62247 0.0
C506 C 0.60311 0.10414 0.62035 0.0
C507 C 0.6456 0.15665 0.61522 0.0
H508 H 0.51828 0.05108 0.62065 0.0
C509 C 0.63344 0.19694 0.60702 0.0
H510 H 0.61079 0.07194 0.62627 0.0
C511 C 0.58026 0.18485 0.60347 0.0
C512 C 0.5379 0.1322 0.60816 0.0
H513 H 0.66501 0.23796 0.60342 0.0
H514 H 0.5724 0.21682 0.597 0.0
C515 C 0.54993 0.09208 0.6169 0.0
C516 C 0.30573 0.09913 0.02057 0.0
C517 C 0.35721 0.14484 0.01995 0.0
H518 H 0.25633 0.0169 0.00508 0.0
C519 C 0.39712 0.14396 1.00002 0.0
H520 H 0.27419 0.0986 0.03574 0.0
C521 C 0.38707 0.09729 0.98317 0.0
C522 C 0.33666 0.05083 0.98524 0.0
H523 H 0.4372 0.17835 0.99897 0.0
H524 H 0.41929 0.09674 0.96944 0.0
C525 C 0.2954 0.05252 1.00304 0.0
C526 C 0.90639 0.20148 0.01996 0.0
C527 C 0.86023 0.20644 0.01831 0.0
H528 H 0.98915 0.23525 0.00562 0.0
C529 C 0.86057 0.24581 0.99711 0.0
H530 H 0.90739 0.17163 0.03614 0.0
C531 C 0.90731 0.28233 0.98033 0.0
C532 C 0.9543 0.27961 0.98374 0.0
H533 H 0.82584 0.25084 0.99522 0.0
H534 H 0.90762 0.31444 0.96588 0.0
C535 C 0.95306 0.23766 1.00253 0.0
C536 C 0.75483 0.61445 1.00027 0.0
C537 C 0.79533 0.6541 0.02061 0.0
H538 H 0.68532 0.59238 0.96969 0.0
C539 C 0.80084 0.70545 0.02169 0.0
H540 H 0.74941 0.57449 0.99884 0.0
C541 C 0.76437 0.71577 0.00438 0.0
C542 C 0.72151 0.67465 0.98634 0.0
H543 H 0.83165 0.7368 0.03716 0.0
H544 H 0.76744 0.75462 0.00692 0.0
C545 C 0.71803 0.6245 0.98362 0.0
C546 C 0.09753 0.38242 0.5231 0.0
C547 C 0.05042 0.33266 0.52029 0.0
H548 H 0.17893 0.43166 0.50795 0.0
C549 C 0.05122 0.29147 0.50178 0.0
H550 H 0.09771 0.41454 0.53746 0.0
C551 C 0.09765 0.30136 0.48429 0.0
C552 C 0.14405 0.35228 0.48566 0.0
H553 H 0.01511 0.25287 0.49921 0.0
H554 H 0.09648 0.26999 0.46856 0.0
C555 C 0.14399 0.392 0.50628 0.0
C556 C 0.61366 0.75396 0.51085 0.0
C557 C 0.65261 0.79323 0.48961 0.0
H558 H 0.59246 0.686 0.54269 0.0
C559 C 0.70379 0.79837 0.48819 0.0
H560 H 0.57385 0.74884 0.51263 0.0
C561 C 0.71454 0.76265 0.50608 0.0
C562 C 0.67403 0.72105 0.52515 0.0
H563 H 0.73459 0.82819 0.47201 0.0
H564 H 0.75313 0.76521 0.50326 0.0
C565 C 0.62413 0.71796 0.52812 0.0
C566 C 0.2399 0.94807 0.50643 0.0
C567 C 0.28448 0.95089 0.52287 0.0
H568 H 0.17084 0.90078 0.47523 0.0
C569 C 0.28956 0.90502 0.52437 0.0
H570 H 0.23556 0.98322 0.50485 0.0
C571 C 0.25239 0.85784 0.50815 0.0
C572 C 0.20996 0.85596 0.48942 0.0
H573 H 0.32363 0.90648 0.53705 0.0
H574 H 0.25897 0.82398 0.50855 0.0
C575 C 0.20311 0.90103 0.48951 0.0
C576 C 0.71064 0.95607 0.00399 0.0
C577 C 0.66933 0.95668 0.02245 0.0
H578 H 0.73232 0.9114 0.97037 0.0
C579 C 0.61917 0.9098 0.02423 0.0
H580 H 0.74957 0.99191 1.00218 0.0
C581 C 0.60942 0.8639 0.00659 0.0
C582 C 0.64947 0.86403 0.98629 0.0
H583 H 0.58693 0.90927 0.03861 0.0
H584 H 0.5696 0.82911 0.00765 0.0
C585 C 0.70067 0.91013 0.98579 0.0
C586 C 0.05354 0.7648 1.00362 0.0
C587 C 0.05205 0.72246 0.02209 0.0
H588 H 0.09965 0.83149 0.97055 0.0
C589 C 0.09879 0.71924 0.02523 0.0
H590 H 0.01764 0.76762 1.0008 0.0
C591 C 0.14562 0.75589 0.00866 0.0
C592 C 0.14632 0.79591 0.98794 0.0
H593 H 0.09829 0.68687 0.0395 0.0
H594 H 0.18025 0.75067 0.01047 0.0
C595 C 0.10032 0.80111 0.98637 0.0
C596 C 0.25483 0.39291 0.00539 0.0
C597 C 0.21432 0.35301 0.98518 0.0
H598 H 0.32435 0.41543 0.03605 0.0
C599 C 0.20934 0.30188 0.98402 0.0
H600 H 0.25993 0.43274 0.00684 0.0
C601 C 0.24601 0.29188 1.00138 0.0
C602 C 0.2886 0.33316 0.01952 0.0
H603 H 0.17857 0.27037 0.96861 0.0
H604 H 0.24311 0.25308 0.999 0.0
C605 C 0.29185 0.38321 0.02205 0.0
C606 C 0.95449 0.71173 0.50758 0.0
C607 C 0.95371 0.67135 0.48729 0.0
H608 H 0.91076 0.73251 0.54259 0.0
C609 C 0.90557 0.62295 0.48307 0.0
H610 H 0.99147 0.74924 0.51125 0.0
C611 C 0.85955 0.61361 0.50031 0.0
C612 C 0.86099 0.65217 0.52275 0.0
H613 H 0.90427 0.5915 0.46736 0.0
H614 H 0.82371 0.57482 0.49752 0.0
C615 C 0.90845 0.70205 0.52547 0.0
C616 C 0.30082 0.2051 0.52153 0.0
C617 C 0.35159 0.20933 0.51973 0.0
H618 H 0.2524 0.2396 0.50714 0.0
C619 C 0.39095 0.24894 0.49887 0.0
H620 H 0.26974 0.17508 0.53746 0.0
C621 C 0.38126 0.28598 0.48227 0.0
C622 C 0.33171 0.28361 0.4855 0.0
H623 H 0.43049 0.25344 0.49688 0.0
H624 H 0.41316 0.31786 0.4678 0.0
C625 C 0.2908 0.2418 0.50423 0.0
C626 C 0.79892 0.09813 0.5195 0.0
C627 C 0.79456 0.14461 0.51825 0.0
H628 H 0.76405 0.01535 0.50497 0.0
C629 C 0.75462 0.14463 0.49775 0.0
H630 H 0.82925 0.09689 0.5351 0.0
C631 C 0.71719 0.09803 0.48115 0.0
C632 C 0.71943 0.05071 0.48411 0.0
H633 H 0.7501 0.1797 0.49615 0.0
H634 H 0.68503 0.09824 0.46703 0.0
C635 C 0.76181 0.05157 0.50227 0.0
C636 C 0.26854 0.32328 0.25221 0.0
C637 C 0.28298 0.31036 0.28338 0.0
H638 H 0.27243 0.32098 0.19804 0.0
C639 C 0.31058 0.28167 0.28338 0.0
H640 H 0.24684 0.34498 0.25146 0.0
C641 C 0.32541 0.26817 0.25284 0.0
C642 C 0.31237 0.2825 0.22168 0.0
H643 H 0.32248 0.27143 0.30701 0.0
H644 H 0.34779 0.24715 0.2536 0.0
C645 C 0.2828 0.3092 0.22167 0.0
C646 C 0.69831 0.05758 0.25369 0.0
C647 C 0.72599 0.04537 0.22909 0.0
H648 H 0.6657 0.04476 0.30317 0.0
C649 C 0.74002 0.0063 0.23735 0.0
H650 H 0.68508 0.08605 0.24888 0.0
C651 C 0.72489 0.97906 0.26842 0.0
C652 C 0.69673 0.99117 0.2927 0.0
H653 H 0.76239 0.99607 0.21991 0.0
H654 H 0.7344 0.9477 0.2729 0.0
C655 C 0.68536 0.03216 0.28509 0.0
C656 C 0.03182 0.72594 0.22369 0.0
C657 C 0.97556 0.69613 0.22342 0.0
H658 H 0.10337 0.76145 0.25384 0.0
C659 C 0.94798 0.68217 0.25445 0.0
H660 H 0.0541 0.73701 0.20017 0.0
C661 C 0.97611 0.69627 0.28512 0.0
C662 C 0.03241 0.72413 0.2854 0.0
H663 H 0.9046 0.6596 0.25499 0.0
H664 H 0.9538 0.6836 0.30861 0.0
C665 C 0.05998 0.73953 0.25438 0.0
C666 C 0.733 0.6627 0.75914 0.0
C667 C 0.72934 0.6876 0.72931 0.0
H668 H 0.72182 0.6545 0.81296 0.0
C669 C 0.71568 0.72801 0.73214 0.0
H670 H 0.74498 0.63261 0.75824 0.0
C671 C 0.70377 0.74144 0.76377 0.0
C672 C 0.7046 0.71429 0.79312 0.0
H673 H 0.71197 0.74778 0.70981 0.0
H674 H 0.69152 0.77134 0.76508 0.0
C675 C 0.72018 0.67547 0.7906 0.0
C676 C 0.33903 0.98497 0.76788 0.0
C677 C 0.29047 0.9717 0.78394 0.0
H678 H 0.39072 0.02232 0.72569 0.0
C679 C 0.25632 0.98753 0.76881 0.0
H680 H 0.36654 0.97396 0.77905 0.0
C681 C 0.27043 0.01573 0.73808 0.0
C682 C 0.31921 0.0291 0.72221 0.0
H683 H 0.21849 0.97757 0.7805 0.0
H684 H 0.24361 0.02773 0.72703 0.0
C685 C 0.35316 0.01322 0.73745 0.0
C686 C 0.97559 0.27881 0.78356 0.0
C687 C 0.03173 0.31044 0.78363 0.0
H688 H 0.90378 0.24106 0.75367 0.0
C689 C 0.05899 0.32546 0.7525 0.0
H690 H 0.95355 0.2669 0.80717 0.0
C691 C 0.03058 0.3104 0.72193 0.0
C692 C 0.97431 0.28064 0.72187 0.0
H693 H 0.10229 0.34948 0.75182 0.0
H694 H 0.05254 0.32375 0.69834 0.0
C695 C 0.94713 0.26437 0.75298 0.0
loop_
_geom_bond_atom_site_label_1
_geom_bond_atom_site_label_2
_geom_bond_distance
_geom_bond_site_symmetry_2
_ccdc_geom_bond_type
Co0 N4 2.148 . S
Co0 N10 2.128 . S
Co0 N20 2.194 . S
Co0 O25 2.351 . S
Co0 O26 2.155 . S
Co0 O27 2.096 . S
C1 N4 1.301 . S
C1 N5 1.328 . S
C1 H6 0.930 . S
C2 C3 1.333 . S
C2 N4 1.317 . S
C2 H7 0.930 . S
C3 C2 1.333 . S
C3 N5 1.350 . S
C3 H29 0.931 . S
N4 Co0 2.148 . S
N4 C1 1.301 . S
N4 C2 1.317 . S
N5 C1 1.328 . S
N5 C3 1.350 . S
H6 C1 0.930 . S
H7 C2 0.930 . S
C8 O9 1.224 . S
C8 O27 1.247 . S
O9 C8 1.224 . S
N10 Co0 2.128 . S
N10 C11 1.355 . S
N10 C13 1.311 . S
C11 N10 1.355 . S
C11 C12 1.363 . S
C11 H23 0.929 . S
C12 C11 1.363 . S
C12 N14 1.375 . S
C12 H30 0.931 . S
C13 N10 1.311 . S
C13 N14 1.347 . S
C13 H24 0.929 . S
N14 C12 1.375 . S
N14 C13 1.347 . S
C15 C18 1.365 . S
C15 N20 1.328 . S
C15 H21 0.929 . S
C16 C17 1.362 . S
C16 C19 1.378 . S
C16 H31 0.929 . S
C17 C16 1.362 . S
C17 C18 1.366 . S
C18 C15 1.365 . S
C18 C17 1.366 . S
C18 H32 0.930 . S
C19 C16 1.378 . S
C19 N20 1.315 . S
C19 H22 0.930 . S
N20 Co0 2.194 . S
N20 C15 1.328 . S
N20 C19 1.315 . S
H21 C15 0.929 . S
H22 C19 0.930 . S
H23 C11 0.929 . S
H24 C13 0.929 . S
O25 Co0 2.351 . S
O25 C28 1.244 . S
O26 Co0 2.155 . S
O26 C28 1.240 . S
O27 Co0 2.096 . S
O27 C8 1.247 . S
C28 O25 1.244 . S
C28 O26 1.240 . S
H29 C3 0.931 . S
H30 C12 0.931 . S
H31 C16 0.929 . S
H32 C18 0.930 . S
Co33 N37 2.148 . S
Co33 N43 2.128 . S
Co33 N53 2.194 . S
Co33 O58 2.351 . S
Co33 O59 2.155 . S
Co33 O60 2.096 . S
C34 N37 1.301 . S
C34 N38 1.328 . S
C34 H39 0.930 . S
C35 C36 1.333 . S
C35 N37 1.317 . S
C35 H40 0.930 . S
C36 C35 1.333 . S
C36 N38 1.350 . S
C36 H62 0.931 1_545 S
N37 Co33 2.148 . S
N37 C34 1.301 . S
N37 C35 1.317 . S
N38 C34 1.328 . S
N38 C36 1.350 . S
H39 C34 0.930 . S
H40 C35 0.930 . S
C41 O42 1.224 . S
C41 O60 1.247 . S
O42 C41 1.224 . S
N43 Co33 2.128 . S
N43 C44 1.355 . S
N43 C46 1.311 . S
C44 N43 1.355 . S
C44 C45 1.363 . S
C44 H56 0.929 . S
C45 C44 1.363 . S
C45 N47 1.375 . S
C45 H63 0.931 . S
C46 N43 1.311 . S
C46 N47 1.347 . S
C46 H57 0.929 . S
N47 C45 1.375 . S
N47 C46 1.347 . S
C48 C51 1.365 . S
C48 N53 1.328 . S
C48 H54 0.929 . S
C49 C50 1.362 . S
C49 C52 1.378 . S
C49 H64 0.929 . S
C50 C49 1.362 . S
C50 C51 1.366 . S
C51 C48 1.365 . S
C51 C50 1.366 . S
C51 H65 0.930 . S
C52 C49 1.378 . S
C52 N53 1.315 . S
C52 H55 0.930 . S
N53 Co33 2.194 . S
N53 C48 1.328 . S
N53 C52 1.315 . S
H54 C48 0.929 . S
H55 C52 0.930 . S
H56 C44 0.929 . S
H57 C46 0.929 . S
O58 Co33 2.351 . S
O58 C61 1.244 . S
O59 Co33 2.155 . S
O59 C61 1.240 . S
O60 Co33 2.096 . S
O60 C41 1.247 . S
C61 O58 1.244 . S
C61 O59 1.240 . S
H62 C36 0.931 1_565 S
H63 C45 0.931 . S
H64 C49 0.929 . S
H65 C51 0.930 . S
Co66 N70 2.148 . S
Co66 N76 2.128 . S
Co66 N86 2.194 . S
Co66 O91 2.351 . S
Co66 O92 2.155 . S
Co66 O93 2.096 . S
C67 N70 1.301 . S
C67 N71 1.328 . S
C67 H72 0.930 . S
C68 C69 1.333 . S
C68 N70 1.317 . S
C68 H73 0.930 . S
C69 C68 1.333 . S
C69 N71 1.350 . S
C69 H95 0.931 1_655 S
N70 Co66 2.148 . S
N70 C67 1.301 . S
N70 C68 1.317 . S
N71 C67 1.328 . S
N71 C69 1.350 . S
H72 C67 0.930 . S
H73 C68 0.930 . S
C74 O75 1.224 . S
C74 O93 1.247 . S
O75 C74 1.224 . S
N76 Co66 2.128 . S
N76 C77 1.355 . S
N76 C79 1.311 . S
C77 N76 1.355 . S
C77 C78 1.363 . S
C77 H89 0.929 . S
C78 C77 1.363 . S
C78 N80 1.375 . S
C78 H96 0.931 . S
C79 N76 1.311 . S
C79 N80 1.347 . S
C79 H90 0.929 . S
N80 C78 1.375 . S
N80 C79 1.347 . S
C81 C84 1.365 . S
C81 N86 1.328 . S
C81 H87 0.929 . S
C82 C83 1.362 . S
C82 C85 1.378 . S
C82 H97 0.929 . S
C83 C82 1.362 . S
C83 C84 1.366 . S
C84 C81 1.365 . S
C84 C83 1.366 . S
C84 H98 0.930 . S
C85 C82 1.378 . S
C85 N86 1.315 . S
C85 H88 0.930 . S
N86 Co66 2.194 . S
N86 C81 1.328 . S
N86 C85 1.315 . S
H87 C81 0.929 . S
H88 C85 0.930 . S
H89 C77 0.929 . S
H90 C79 0.929 . S
O91 Co66 2.351 . S
O91 C94 1.244 . S
O92 Co66 2.155 . S
O92 C94 1.240 . S
O93 Co66 2.096 . S
O93 C74 1.247 . S
C94 O91 1.244 . S
C94 O92 1.240 . S
H95 C69 0.931 1_455 S
H96 C78 0.931 . S
H97 C82 0.929 . S
H98 C84 0.930 . S
Co99 N103 2.148 . S
Co99 N109 2.128 . S
Co99 N119 2.194 . S
Co99 O124 2.351 . S
Co99 O125 2.155 . S
Co99 O126 2.096 . S
C100 N103 1.301 . S
C100 N104 1.328 . S
C100 H105 0.930 . S
C101 C102 1.333 . S
C101 N103 1.317 . S
C101 H106 0.930 . S
C102 C101 1.333 . S
C102 N104 1.350 . S
C102 H128 0.931 . S
N103 Co99 2.148 . S
N103 C100 1.301 . S
N103 C101 1.317 . S
N104 C100 1.328 . S
N104 C102 1.350 . S
H105 C100 0.930 . S
H106 C101 0.930 . S
C107 O108 1.224 . S
C107 O126 1.247 . S
O108 C107 1.224 . S
N109 Co99 2.128 . S
N109 C110 1.355 . S
N109 C112 1.311 . S
C110 N109 1.355 . S
C110 C111 1.363 . S
C110 H122 0.929 . S
C111 C110 1.363 . S
C111 N113 1.375 . S
C111 H129 0.931 . S
C112 N109 1.311 . S
C112 N113 1.347 . S
C112 H123 0.929 . S
N113 C111 1.375 . S
N113 C112 1.347 . S
C114 C117 1.365 . S
C114 N119 1.328 . S
C114 H120 0.929 . S
C115 C116 1.362 . S
C115 C118 1.378 . S
C115 H130 0.929 . S
C116 C115 1.362 . S
C116 C117 1.366 . S
C117 C114 1.365 . S
C117 C116 1.366 . S
C117 H131 0.930 . S
C118 C115 1.378 . S
C118 N119 1.315 . S
C118 H121 0.930 . S
N119 Co99 2.194 . S
N119 C114 1.328 . S
N119 C118 1.315 . S
H120 C114 0.929 . S
H121 C118 0.930 . S
H122 C110 0.929 . S
H123 C112 0.929 . S
O124 Co99 2.351 . S
O124 C127 1.244 . S
O125 Co99 2.155 . S
O125 C127 1.240 . S
O126 Co99 2.096 . S
O126 C107 1.247 . S
C127 O124 1.244 . S
C127 O125 1.240 . S
H128 C102 0.931 . S
H129 C111 0.931 . S
H130 C115 0.929 . S
H131 C117 0.930 . S
Co132 N136 2.148 . S
Co132 N142 2.128 . S
Co132 N152 2.194 . S
Co132 O157 2.351 . S
Co132 O158 2.155 . S
Co132 O159 2.096 . S
C133 N136 1.301 . S
C133 N137 1.328 . S
C133 H138 0.930 . S
C134 C135 1.333 . S
C134 N136 1.317 . S
C134 H139 0.930 . S
C135 C134 1.333 . S
C135 N137 1.350 . S
C135 H161 0.931 1_565 S
N136 Co132 2.148 . S
N136 C133 1.301 . S
N136 C134 1.317 . S
N137 C133 1.328 . S
N137 C135 1.350 . S
H138 C133 0.930 . S
H139 C134 0.930 . S
C140 O141 1.224 . S
C140 O159 1.247 . S
O141 C140 1.224 . S
N142 Co132 2.128 . S
N142 C143 1.355 . S
N142 C145 1.311 . S
C143 N142 1.355 . S
C143 C144 1.363 . S
C143 H155 0.929 . S
C144 C143 1.363 . S
C144 N146 1.375 . S
C144 H162 0.931 . S
C145 N142 1.311 . S
C145 N146 1.347 . S
C145 H156 0.929 . S
N146 C144 1.375 . S
N146 C145 1.347 . S
C147 C150 1.365 . S
C147 N152 1.328 . S
C147 H153 0.929 . S
C148 C149 1.362 . S
C148 C151 1.378 . S
C148 H163 0.929 . S
C149 C148 1.362 . S
C149 C150 1.366 . S
C150 C147 1.365 . S
C150 C149 1.366 . S
C150 H164 0.930 . S
C151 C148 1.378 . S
C151 N152 1.315 . S
C151 H154 0.930 . S
N152 Co132 2.194 . S
N152 C147 1.328 . S
N152 C151 1.315 . S
H153 C147 0.929 . S
H154 C151 0.930 . S
H155 C143 0.929 . S
H156 C145 0.929 . S
O157 Co132 2.351 . S
O157 C160 1.244 . S
O158 Co132 2.155 . S
O158 C160 1.240 . S
O159 Co132 2.096 . S
O159 C140 1.247 . S
C160 O157 1.244 . S
C160 O158 1.240 . S
H161 C135 0.931 1_545 S
H162 C144 0.931 . S
H163 C148 0.929 . S
H164 C150 0.930 . S
Co165 N169 2.148 . S
Co165 N175 2.128 . S
Co165 N185 2.194 . S
Co165 O190 2.351 . S
Co165 O191 2.155 . S
Co165 O192 2.096 . S
C166 N169 1.301 . S
C166 N170 1.328 . S
C166 H171 0.930 . S
C167 C168 1.333 . S
C167 N169 1.317 . S
C167 H172 0.930 . S
C168 C167 1.333 . S
C168 N170 1.350 . S
C168 H194 0.931 1_455 S
N169 Co165 2.148 . S
N169 C166 1.301 . S
N169 C167 1.317 . S
N170 C166 1.328 . S
N170 C168 1.350 . S
H171 C166 0.930 . S
H172 C167 0.930 . S
C173 O174 1.224 . S
C173 O192 1.247 . S
O174 C173 1.224 . S
N175 Co165 2.128 . S
N175 C176 1.355 . S
N175 C178 1.311 . S
C176 N175 1.355 . S
C176 C177 1.363 . S
C176 H188 0.929 . S
C177 C176 1.363 . S
C177 N179 1.375 . S
C177 H195 0.931 . S
C178 N175 1.311 . S
C178 N179 1.347 . S
C178 H189 0.929 . S
N179 C177 1.375 . S
N179 C178 1.347 . S
C180 C183 1.365 . S
C180 N185 1.328 . S
C180 H186 0.929 . S
C181 C182 1.362 . S
C181 C184 1.378 . S
C181 H196 0.929 . S
C182 C181 1.362 . S
C182 C183 1.366 . S
C183 C180 1.365 . S
C183 C182 1.366 . S
C183 H197 0.930 . S
C184 C181 1.378 . S
C184 N185 1.315 . S
C184 H187 0.930 . S
N185 Co165 2.194 . S
N185 C180 1.328 . S
N185 C184 1.315 . S
H186 C180 0.929 . S
H187 C184 0.930 . S
H188 C176 0.929 . S
H189 C178 0.929 . S
O190 Co165 2.351 . S
O190 C193 1.244 . S
O191 Co165 2.155 . S
O191 C193 1.240 . S
O192 Co165 2.096 . S
O192 C173 1.247 . S
C193 O190 1.244 . S
C193 O191 1.240 . S
H194 C168 0.931 1_655 S
H195 C177 0.931 . S
H196 C181 0.929 . S
H197 C183 0.930 . S
Co198 N202 2.148 . S
Co198 N208 2.128 . S
Co198 N218 2.194 . S
Co198 O223 2.351 . S
Co198 O224 2.155 . S
Co198 O225 2.096 . S
C199 N202 1.301 . S
C199 N203 1.328 . S
C199 H204 0.930 . S
C200 C201 1.333 . S
C200 N202 1.317 . S
C200 H205 0.930 . S
C201 C200 1.333 . S
C201 N203 1.350 . S
C201 H227 0.931 . S
N202 Co198 2.148 . S
N202 C199 1.301 . S
N202 C200 1.317 . S
N203 C199 1.328 . S
N203 C201 1.350 . S
H204 C199 0.930 . S
H205 C200 0.930 . S
C206 O207 1.224 . S
C206 O225 1.247 . S
O207 C206 1.224 . S
N208 Co198 2.128 . S
N208 C209 1.355 . S
N208 C211 1.311 . S
C209 N208 1.355 . S
C209 C210 1.363 . S
C209 H221 0.929 . S
C210 C209 1.363 . S
C210 N212 1.375 . S
C210 H228 0.931 . S
C211 N208 1.311 . S
C211 N212 1.347 . S
C211 H222 0.929 . S
N212 C210 1.375 . S
N212 C211 1.347 . S
C213 C216 1.365 . S
C213 N218 1.328 . S
C213 H219 0.929 . S
C214 C215 1.362 . S
C214 C217 1.378 . S
C214 H229 0.929 . S
C215 C214 1.362 . S
C215 C216 1.366 . S
C216 C213 1.365 . S
C216 C215 1.366 . S
C216 H230 0.930 . S
C217 C214 1.378 . S
C217 N218 1.315 . S
C217 H220 0.930 . S
N218 Co198 2.194 . S
N218 C213 1.328 . S
N218 C217 1.315 . S
H219 C213 0.929 . S
H220 C217 0.930 . S
H221 C209 0.929 . S
H222 C211 0.929 . S
O223 Co198 2.351 . S
O223 C226 1.244 . S
O224 Co198 2.155 . S
O224 C226 1.240 . S
O225 Co198 2.096 . S
O225 C206 1.247 . S
C226 O223 1.244 . S
C226 O224 1.240 . S
H227 C201 0.931 . S
H228 C210 0.931 . S
H229 C214 0.929 . S
H230 C216 0.930 . S
Co231 N235 2.148 . S
Co231 N241 2.128 . S
Co231 N251 2.194 . S
Co231 O256 2.351 . S
Co231 O257 2.155 . S
Co231 O258 2.096 . S
C232 N235 1.301 . S
C232 N236 1.328 . S
C232 H237 0.930 . S
C233 C234 1.333 . S
C233 N235 1.317 . S
C233 H238 0.930 . S
C234 C233 1.333 . S
C234 N236 1.350 . S
C234 H260 0.931 1_565 S
N235 Co231 2.148 . S
N235 C232 1.301 . S
N235 C233 1.317 . S
N236 C232 1.328 . S
N236 C234 1.350 . S
H237 C232 0.930 . S
H238 C233 0.930 . S
C239 O240 1.224 . S
C239 O258 1.247 . S
O240 C239 1.224 . S
N241 Co231 2.128 . S
N241 C242 1.355 . S
N241 C244 1.311 . S
C242 N241 1.355 . S
C242 C243 1.363 . S
C242 H254 0.929 . S
C243 C242 1.363 . S
C243 N245 1.375 . S
C243 H261 0.931 . S
C244 N241 1.311 . S
C244 N245 1.347 . S
C244 H255 0.929 . S
N245 C243 1.375 . S
N245 C244 1.347 . S
C246 C249 1.365 . S
C246 N251 1.328 . S
C246 H252 0.929 . S
C247 C248 1.362 . S
C247 C250 1.378 . S
C247 H262 0.929 . S
C248 C247 1.362 . S
C248 C249 1.366 . S
C249 C246 1.365 . S
C249 C248 1.366 . S
C249 H263 0.930 . S
C250 C247 1.378 . S
C250 N251 1.315 . S
C250 H253 0.930 . S
N251 Co231 2.194 . S
N251 C246 1.328 . S
N251 C250 1.315 . S
H252 C246 0.929 . S
H253 C250 0.930 . S
H254 C242 0.929 . S
H255 C244 0.929 . S
O256 Co231 2.351 . S
O256 C259 1.244 . S
O257 Co231 2.155 . S
O257 C259 1.240 . S
O258 Co231 2.096 . S
O258 C239 1.247 . S
C259 O256 1.244 . S
C259 O257 1.240 . S
H260 C234 0.931 1_545 S
H261 C243 0.931 . S
H262 C247 0.929 . S
H263 C249 0.930 . S
Co264 N268 2.148 . S
Co264 N274 2.128 . S
Co264 N284 2.194 . S
Co264 O289 2.351 . S
Co264 O290 2.155 . S
Co264 O291 2.096 . S
C265 N268 1.301 . S
C265 N269 1.328 . S
C265 H270 0.930 . S
C266 C267 1.333 . S
C266 N268 1.317 . S
C266 H271 0.930 . S
C267 C266 1.333 . S
C267 N269 1.350 . S
C267 H293 0.931 1_455 S
N268 Co264 2.148 . S
N268 C265 1.301 . S
N268 C266 1.317 . S
N269 C265 1.328 . S
N269 C267 1.350 . S
H270 C265 0.930 . S
H271 C266 0.930 . S
C272 O273 1.224 . S
C272 O291 1.247 . S
O273 C272 1.224 . S
N274 Co264 2.128 . S
N274 C275 1.355 . S
N274 C277 1.311 . S
C275 N274 1.355 . S
C275 C276 1.363 . S
C275 H287 0.929 . S
C276 C275 1.363 . S
C276 N278 1.375 . S
C276 H294 0.931 . S
C277 N274 1.311 . S
C277 N278 1.347 . S
C277 H288 0.929 . S
N278 C276 1.375 . S
N278 C277 1.347 . S
C279 C282 1.365 . S
C279 N284 1.328 . S
C279 H285 0.929 . S
C280 C281 1.362 . S
C280 C283 1.378 . S
C280 H295 0.929 . S
C281 C280 1.362 . S
C281 C282 1.366 . S
C282 C279 1.365 . S
C282 C281 1.366 . S
C282 H296 0.930 . S
C283 C280 1.378 . S
C283 N284 1.315 . S
C283 H286 0.930 . S
N284 Co264 2.194 . S
N284 C279 1.328 . S
N284 C283 1.315 . S
H285 C279 0.929 . S
H286 C283 0.930 . S
H287 C275 0.929 . S
H288 C277 0.929 . S
O289 Co264 2.351 . S
O289 C292 1.244 . S
O290 Co264 2.155 . S
O290 C292 1.240 . S
O291 Co264 2.096 . S
O291 C272 1.247 . S
C292 O289 1.244 . S
C292 O290 1.240 . S
H293 C267 0.931 1_655 S
H294 C276 0.931 . S
H295 C280 0.929 . S
H296 C282 0.930 . S
Co297 N301 2.148 . S
Co297 N307 2.128 . S
Co297 N317 2.194 . S
Co297 O322 2.351 . S
Co297 O323 2.155 . S
Co297 O324 2.096 . S
C298 N301 1.301 . S
C298 N302 1.328 . S
C298 H303 0.930 . S
C299 C300 1.333 . S
C299 N301 1.317 . S
C299 H304 0.930 . S
C300 C299 1.333 . S
C300 N302 1.350 . S
C300 H326 0.931 . S
N301 Co297 2.148 . S
N301 C298 1.301 . S
N301 C299 1.317 . S
N302 C298 1.328 . S
N302 C300 1.350 . S
H303 C298 0.930 . S
H304 C299 0.930 . S
C305 O306 1.224 . S
C305 O324 1.247 . S
O306 C305 1.224 . S
N307 Co297 2.128 . S
N307 C308 1.355 . S
N307 C310 1.311 . S
C308 N307 1.355 . S
C308 C309 1.363 . S
C308 H320 0.929 . S
C309 C308 1.363 . S
C309 N311 1.375 . S
C309 H327 0.931 . S
C310 N307 1.311 . S
C310 N311 1.347 . S
C310 H321 0.929 . S
N311 C309 1.375 . S
N311 C310 1.347 . S
C312 C315 1.365 . S
C312 N317 1.328 . S
C312 H318 0.929 . S
C313 C314 1.362 . S
C313 C316 1.378 . S
C313 H328 0.929 . S
C314 C313 1.362 . S
C314 C315 1.366 . S
C315 C312 1.365 . S
C315 C314 1.366 . S
C315 H329 0.930 . S
C316 C313 1.378 . S
C316 N317 1.315 . S
C316 H319 0.930 . S
N317 Co297 2.194 . S
N317 C312 1.328 . S
N317 C316 1.315 . S
H318 C312 0.929 . S
H319 C316 0.930 . S
H320 C308 0.929 . S
H321 C310 0.929 . S
O322 Co297 2.351 . S
O322 C325 1.244 . S
O323 Co297 2.155 . S
O323 C325 1.240 . S
O324 Co297 2.096 . S
O324 C305 1.247 . S
C325 O322 1.244 . S
C325 O323 1.240 . S
H326 C300 0.931 . S
H327 C309 0.931 . S
H328 C313 0.929 . S
H329 C315 0.930 . S
Co330 N334 2.148 . S
Co330 N340 2.128 . S
Co330 N350 2.194 . S
Co330 O355 2.351 . S
Co330 O356 2.155 . S
Co330 O357 2.096 . S
C331 N334 1.301 . S
C331 N335 1.328 . S
C331 H336 0.930 . S
C332 C333 1.333 . S
C332 N334 1.317 . S
C332 H337 0.930 . S
C333 C332 1.333 . S
C333 N335 1.350 . S
C333 H359 0.931 1_545 S
N334 Co330 2.148 . S
N334 C331 1.301 . S
N334 C332 1.317 . S
N335 C331 1.328 . S
N335 C333 1.350 . S
H336 C331 0.930 . S
H337 C332 0.930 . S
C338 O339 1.224 . S
C338 O357 1.247 . S
O339 C338 1.224 . S
N340 Co330 2.128 . S
N340 C341 1.355 . S
N340 C343 1.311 . S
C341 N340 1.355 . S
C341 C342 1.363 . S
C341 H353 0.929 . S
C342 C341 1.363 . S
C342 N344 1.375 . S
C342 H360 0.931 . S
C343 N340 1.311 . S
C343 N344 1.347 . S
C343 H354 0.929 . S
N344 C342 1.375 . S
N344 C343 1.347 . S
C345 C348 1.365 . S
C345 N350 1.328 . S
C345 H351 0.929 . S
C346 C347 1.362 . S
C346 C349 1.378 . S
C346 H361 0.929 . S
C347 C346 1.362 . S
C347 C348 1.366 . S
C348 C345 1.365 . S
C348 C347 1.366 . S
C348 H362 0.930 . S
C349 C346 1.378 . S
C349 N350 1.315 . S
C349 H352 0.930 . S
N350 Co330 2.194 . S
N350 C345 1.328 . S
N350 C349 1.315 . S
H351 C345 0.929 . S
H352 C349 0.930 . S
H353 C341 0.929 . S
H354 C343 0.929 . S
O355 Co330 2.351 . S
O355 C358 1.244 . S
O356 Co330 2.155 . S
O356 C358 1.240 . S
O357 Co330 2.096 . S
O357 C338 1.247 . S
C358 O355 1.244 . S
C358 O356 1.240 . S
H359 C333 0.931 1_565 S
H360 C342 0.931 . S
H361 C346 0.929 . S
H362 C348 0.930 . S
Co363 N367 2.148 . S
Co363 N373 2.128 . S
Co363 N383 2.194 . S
Co363 O388 2.351 . S
Co363 O389 2.155 . S
Co363 O390 2.096 . S
C364 N367 1.301 . S
C364 N368 1.328 . S
C364 H369 0.930 . S
C365 C366 1.333 . S
C365 N367 1.317 . S
C365 H370 0.930 . S
C366 C365 1.333 . S
C366 N368 1.350 . S
C366 H392 0.931 1_655 S
N367 Co363 2.148 . S
N367 C364 1.301 . S
N367 C365 1.317 . S
N368 C364 1.328 . S
N368 C366 1.350 . S
H369 C364 0.930 . S
H370 C365 0.930 . S
C371 O372 1.224 . S
C371 O390 1.247 . S
O372 C371 1.224 . S
N373 Co363 2.128 . S
N373 C374 1.355 . S
N373 C376 1.311 . S
C374 N373 1.355 . S
C374 C375 1.363 . S
C374 H386 0.929 . S
C375 C374 1.363 . S
C375 N377 1.375 . S
C375 H393 0.931 . S
C376 N373 1.311 . S
C376 N377 1.347 . S
C376 H387 0.929 . S
N377 C375 1.375 . S
N377 C376 1.347 . S
C378 C381 1.365 . S
C378 N383 1.328 . S
C378 H384 0.929 . S
C379 C380 1.362 . S
C379 C382 1.378 . S
C379 H394 0.929 . S
C380 C379 1.362 . S
C380 C381 1.366 . S
C381 C378 1.365 . S
C381 C380 1.366 . S
C381 H395 0.930 . S
C382 C379 1.378 . S
C382 N383 1.315 . S
C382 H385 0.930 . S
N383 Co363 2.194 . S
N383 C378 1.328 . S
N383 C382 1.315 . S
H384 C378 0.929 . S
H385 C382 0.930 . S
H386 C374 0.929 . S
H387 C376 0.929 . S
O388 Co363 2.351 . S
O388 C391 1.244 . S
O389 Co363 2.155 . S
O389 C391 1.240 . S
O390 Co363 2.096 . S
O390 C371 1.247 . S
C391 O388 1.244 . S
C391 O389 1.240 . S
H392 C366 0.931 1_455 S
H393 C375 0.931 . S
H394 C379 0.929 . S
H395 C381 0.930 . S
C396 C397 1.387 . S
C396 H400 0.950 . S
C396 C405 1.390 . S
C397 C396 1.387 . S
C397 C399 1.387 . S
H398 C405 0.950 . S
C399 C397 1.387 . S
C399 C401 1.390 . S
C399 H403 0.950 . S
H400 C396 0.950 . S
C401 C399 1.390 . S
C401 C402 1.387 . S
C401 H404 0.950 . S
C402 C401 1.387 . S
C402 C405 1.387 . S
H403 C399 0.950 . S
H404 C401 0.950 . S
C405 C396 1.390 . S
C405 H398 0.950 . S
C405 C402 1.387 . S
C406 C407 1.387 . S
C406 H410 0.950 . S
C406 C415 1.390 . S
C407 C406 1.387 . S
C407 C409 1.387 . S
H408 C415 0.950 . S
C409 C407 1.387 . S
C409 C411 1.390 . S
C409 H413 0.950 . S
H410 C406 0.950 . S
C411 C409 1.390 . S
C411 C412 1.387 . S
C411 H414 0.950 . S
C412 C411 1.387 . S
C412 C415 1.387 . S
H413 C409 0.950 . S
H414 C411 0.950 . S
C415 C406 1.390 . S
C415 H408 0.950 . S
C415 C412 1.387 . S
C416 C417 1.387 . S
C416 H420 0.950 . S
C416 C425 1.390 . S
C417 C416 1.387 . S
C417 C419 1.387 . S
H418 C425 0.950 . S
C419 C417 1.387 . S
C419 C421 1.390 . S
C419 H423 0.950 . S
H420 C416 0.950 . S
C421 C419 1.390 . S
C421 C422 1.387 . S
C421 H424 0.950 . S
C422 C421 1.387 . S
C422 C425 1.387 . S
H423 C419 0.950 . S
H424 C421 0.950 . S
C425 C416 1.390 . S
C425 H418 0.950 . S
C425 C422 1.387 . S
C426 C427 1.387 . S
C426 H430 0.950 . S
C426 C435 1.390 . S
C427 C426 1.387 . S
C427 C429 1.387 . S
H428 C435 0.950 . S
C429 C427 1.387 . S
C429 C431 1.390 . S
C429 H433 0.950 . S
H430 C426 0.950 . S
C431 C429 1.390 . S
C431 C432 1.387 . S
C431 H434 0.950 . S
C432 C431 1.387 . S
C432 C435 1.387 . S
H433 C429 0.950 . S
H434 C431 0.950 . S
C435 C426 1.390 . S
C435 H428 0.950 . S
C435 C432 1.387 . S
C436 C437 1.387 . S
C436 H440 0.950 . S
C436 C445 1.390 . S
C437 C436 1.387 . S
C437 C439 1.387 . S
H438 C445 0.950 . S
C439 C437 1.387 . S
C439 C441 1.390 . S
C439 H443 0.950 . S
H440 C436 0.950 . S
C441 C439 1.390 . S
C441 C442 1.387 . S
C441 H444 0.950 . S
C442 C441 1.387 . S
C442 C445 1.387 . S
H443 C439 0.950 . S
H444 C441 0.950 . S
C445 C436 1.390 . S
C445 H438 0.950 . S
C445 C442 1.387 . S
C446 C447 1.387 . S
C446 H450 0.950 . S
C446 C455 1.390 . S
C447 C446 1.387 . S
C447 C449 1.387 . S
H448 C455 0.950 . S
C449 C447 1.387 . S
C449 C451 1.390 . S
C449 H453 0.950 . S
H450 C446 0.950 . S
C451 C449 1.390 . S
C451 C452 1.387 . S
C451 H454 0.950 . S
C452 C451 1.387 . S
C452 C455 1.387 . S
H453 C449 0.950 . S
H454 C451 0.950 . S
C455 C446 1.390 . S
C455 H448 0.950 . S
C455 C452 1.387 . S
C456 C457 1.387 . S
C456 H460 0.950 . S
C456 C465 1.390 . S
C457 C456 1.387 . S
C457 C459 1.387 . S
H458 C465 0.950 . S
C459 C457 1.387 . S
C459 C461 1.390 . S
C459 H463 0.950 . S
H460 C456 0.950 . S
C461 C459 1.390 . S
C461 C462 1.387 . S
C461 H464 0.950 . S
C462 C461 1.387 . S
C462 C465 1.387 . S
H463 C459 0.950 . S
H464 C461 0.950 . S
C465 C456 1.390 . S
C465 H458 0.950 . S
C465 C462 1.387 . S
C466 C467 1.387 . S
C466 H470 0.950 . S
C466 C475 1.390 . S
C467 C466 1.387 . S
C467 C469 1.387 . S
H468 C475 0.950 . S
C469 C467 1.387 . S
C469 C471 1.390 . S
C469 H473 0.950 . S
H470 C466 0.950 . S
C471 C469 1.390 . S
C471 C472 1.387 . S
C471 H474 0.950 . S
C472 C471 1.387 . S
C472 C475 1.387 . S
H473 C469 0.950 . S
H474 C471 0.950 . S
C475 C466 1.390 . S
C475 H468 0.950 . S
C475 C472 1.387 . S
C476 C477 1.387 . S
C476 H480 0.950 . S
C476 C485 1.390 . S
C477 C476 1.387 . S
C477 C479 1.387 . S
H478 C485 0.950 . S
C479 C477 1.387 . S
C479 C481 1.390 . S
C479 H483 0.950 . S
H480 C476 0.950 . S
C481 C479 1.390 . S
C481 C482 1.387 . S
C481 H484 0.950 . S
C482 C481 1.387 . S
C482 C485 1.387 . S
H483 C479 0.950 . S
H484 C481 0.950 . S
C485 C476 1.390 . S
C485 H478 0.950 . S
C485 C482 1.387 . S
C486 C487 1.387 . S
C486 H490 0.950 . S
C486 C495 1.390 . S
C487 C486 1.387 . S
C487 C489 1.387 . S
H488 C495 0.950 . S
C489 C487 1.387 . S
C489 C491 1.390 . S
C489 H493 0.950 . S
H490 C486 0.950 . S
C491 C489 1.390 . S
C491 C492 1.387 . S
C491 H494 0.950 . S
C492 C491 1.387 . S
C492 C495 1.387 . S
H493 C489 0.950 . S
H494 C491 0.950 . S
C495 C486 1.390 . S
C495 H488 0.950 . S
C495 C492 1.387 . S
C496 C497 1.387 . S
C496 H500 0.950 . S
C496 C505 1.390 . S
C497 C496 1.387 . S
C497 C499 1.387 . S
H498 C505 0.950 . S
C499 C497 1.387 . S
C499 C501 1.390 . S
C499 H503 0.950 . S
H500 C496 0.950 . S
C501 C499 1.390 . S
C501 C502 1.387 . S
C501 H504 0.950 . S
C502 C501 1.387 . S
C502 C505 1.387 . S
H503 C499 0.950 . S
H504 C501 0.950 . S
C505 C496 1.390 . S
C505 H498 0.950 . S
C505 C502 1.387 . S
C506 C507 1.387 . S
C506 H510 0.950 . S
C506 C515 1.390 . S
C507 C506 1.387 . S
C507 C509 1.387 . S
H508 C515 0.950 . S
C509 C507 1.387 . S
C509 C511 1.390 . S
C509 H513 0.950 . S
H510 C506 0.950 . S
C511 C509 1.390 . S
C511 C512 1.387 . S
C511 H514 0.950 . S
C512 C511 1.387 . S
C512 C515 1.387 . S
H513 C509 0.950 . S
H514 C511 0.950 . S
C515 C506 1.390 . S
C515 H508 0.950 . S
C515 C512 1.387 . S
C516 C517 1.387 . S
C516 H520 0.950 . S
C516 C525 1.390 . S
C517 C516 1.387 . S
C517 C519 1.387 1_554 S
H518 C525 0.950 1_565 S
C519 C517 1.387 1_556 S
C519 C521 1.390 . S
C519 H523 0.950 . S
H520 C516 0.950 . S
C521 C519 1.390 . S
C521 C522 1.387 . S
C521 H524 0.950 . S
C522 C521 1.387 . S
C522 C525 1.387 1_556 S
H523 C519 0.950 . S
H524 C521 0.950 . S
C525 C516 1.390 . S
C525 H518 0.950 1_545 S
C525 C522 1.387 1_554 S
C526 C527 1.387 . S
C526 H530 0.950 . S
C526 C535 1.390 . S
C527 C526 1.387 . S
C527 C529 1.358 1_554 S
H528 C535 0.946 1_455 S
C529 C527 1.358 1_556 S
C529 C531 1.415 . S
C529 H533 0.954 . S
H530 C526 0.950 . S
C531 C529 1.415 . S
C531 C532 1.387 . S
C531 H534 0.950 . S
C532 C531 1.387 . S
C532 C535 1.387 1_556 S
H533 C529 0.954 . S
H534 C531 0.950 . S
C535 C526 1.390 . S
C535 H528 0.946 1_655 S
C535 C532 1.387 1_554 S
C536 C537 1.387 . S
C536 H540 0.950 . S
C536 C545 1.390 1_554 S
C537 C536 1.387 . S
C537 C539 1.387 . S
H538 C545 0.950 . S
C539 C537 1.387 . S
C539 C541 1.390 1_554 S
C539 H543 0.950 . S
H540 C536 0.950 . S
C541 C539 1.390 1_556 S
C541 C542 1.387 . S
C541 H544 0.950 . S
C542 C541 1.387 . S
C542 C545 1.387 . S
H543 C539 0.950 . S
H544 C541 0.950 . S
C545 C536 1.390 1_556 S
C545 H538 0.950 . S
C545 C542 1.387 . S
C546 C547 1.387 . S
C546 H550 0.950 . S
C546 C555 1.390 . S
C547 C546 1.387 . S
C547 C549 1.387 . S
H548 C555 0.950 . S
C549 C547 1.387 . S
C549 C551 1.390 . S
C549 H553 0.950 . S
H550 C546 0.950 . S
C551 C549 1.390 . S
C551 C552 1.387 . S
C551 H554 0.950 . S
C552 C551 1.387 . S
C552 C555 1.387 . S
H553 C549 0.950 . S
H554 C551 0.950 . S
C555 C546 1.390 . S
C555 H548 0.950 . S
C555 C552 1.387 . S
C556 C557 1.387 . S
C556 H560 0.950 . S
C556 C565 1.390 . S
C557 C556 1.387 . S
C557 C559 1.387 . S
H558 C565 0.950 . S
C559 C557 1.387 . S
C559 C561 1.390 . S
C559 H563 0.950 . S
H560 C556 0.950 . S
C561 C559 1.390 . S
C561 C562 1.387 . S
C561 H564 0.950 . S
C562 C561 1.387 . S
C562 C565 1.387 . S
H563 C559 0.950 . S
H564 C561 0.950 . S
C565 C556 1.390 . S
C565 H558 0.950 . S
C565 C562 1.387 . S
C566 C567 1.387 . S
C566 H570 0.950 . S
C566 C575 1.390 . S
C567 C566 1.387 . S
C567 C569 1.387 . S
H568 C575 0.950 . S
C569 C567 1.387 . S
C569 C571 1.390 . S
C569 H573 0.950 . S
H570 C566 0.950 . S
C571 C569 1.390 . S
C571 C572 1.387 . S
C571 H574 0.950 . S
C572 C571 1.387 . S
C572 C575 1.387 . S
H573 C569 0.950 . S
H574 C571 0.950 . S
C575 C566 1.390 . S
C575 H568 0.950 . S
C575 C572 1.387 . S
C576 C577 1.387 . S
C576 H580 0.950 . S
C576 C585 1.390 1_554 S
C577 C576 1.387 . S
C577 C579 1.387 . S
H578 C585 0.950 . S
C579 C577 1.387 . S
C579 C581 1.390 1_554 S
C579 H583 0.950 . S
H580 C576 0.950 . S
C581 C579 1.390 1_556 S
C581 C582 1.387 . S
C581 H584 0.950 . S
C582 C581 1.387 . S
C582 C585 1.387 . S
H583 C579 0.950 . S
H584 C581 0.950 . S
C585 C576 1.390 1_556 S
C585 H578 0.950 . S
C585 C582 1.387 . S
C586 C587 1.387 . S
C586 H590 0.950 . S
C586 C595 1.390 1_554 S
C587 C586 1.387 . S
C587 C589 1.387 . S
H588 C595 0.950 . S
C589 C587 1.387 . S
C589 C591 1.390 1_554 S
C589 H593 0.950 . S
H590 C586 0.950 . S
C591 C589 1.390 1_556 S
C591 C592 1.387 . S
C591 H594 0.950 . S
C592 C591 1.387 . S
C592 C595 1.387 . S
H593 C589 0.950 . S
H594 C591 0.950 . S
C595 C586 1.390 1_556 S
C595 H588 0.950 . S
C595 C592 1.387 . S
C596 C597 1.387 . S
C596 H600 0.950 . S
C596 C605 1.390 1_556 S
C597 C596 1.387 . S
C597 C599 1.387 . S
H598 C605 0.950 . S
C599 C597 1.387 . S
C599 C601 1.390 1_556 S
C599 H603 0.950 . S
H600 C596 0.950 . S
C601 C599 1.390 1_554 S
C601 C602 1.387 . S
C601 H604 0.950 . S
C602 C601 1.387 . S
C602 C605 1.387 . S
H603 C599 0.950 . S
H604 C601 0.950 . S
C605 C596 1.390 1_554 S
C605 H598 0.950 . S
C605 C602 1.387 . S
C606 C607 1.387 . S
C606 H610 0.950 1_655 S
C606 C615 1.390 . S
C607 C606 1.387 . S
C607 C609 1.387 . S
H608 C615 0.950 . S
C609 C607 1.387 . S
C609 C611 1.390 . S
C609 H613 0.950 . S
H610 C606 0.950 1_455 S
C611 C609 1.390 . S
C611 C612 1.387 . S
C611 H614 0.950 . S
C612 C611 1.387 . S
C612 C615 1.387 . S
H613 C609 0.950 . S
H614 C611 0.950 . S
C615 C606 1.390 . S
C615 H608 0.950 . S
C615 C612 1.387 . S
C616 C617 1.387 . S
C616 H620 0.950 . S
C616 C625 1.390 . S
C617 C616 1.387 . S
C617 C619 1.387 . S
H618 C625 0.950 . S
C619 C617 1.387 . S
C619 C621 1.390 . S
C619 H623 0.950 . S
H620 C616 0.950 . S
C621 C619 1.390 . S
C621 C622 1.387 . S
C621 H624 0.950 . S
C622 C621 1.387 . S
C622 C625 1.387 . S
H623 C619 0.950 . S
H624 C621 0.950 . S
C625 C616 1.390 . S
C625 H618 0.950 . S
C625 C622 1.387 . S
C626 C627 1.387 . S
C626 H630 0.950 . S
C626 C635 1.390 . S
C627 C626 1.387 . S
C627 C629 1.387 . S
H628 C635 0.950 . S
C629 C627 1.387 . S
C629 C631 1.390 . S
C629 H633 0.950 . S
H630 C626 0.950 . S
C631 C629 1.390 . S
C631 C632 1.387 . S
C631 H634 0.950 . S
C632 C631 1.387 . S
C632 C635 1.387 . S
H633 C629 0.950 . S
H634 C631 0.950 . S
C635 C626 1.390 . S
C635 H628 0.950 . S
C635 C632 1.387 . S
C636 C637 1.387 . S
C636 H640 0.950 . S
C636 C645 1.390 . S
C637 C636 1.387 . S
C637 C639 1.387 . S
H638 C645 0.950 . S
C639 C637 1.387 . S
C639 C641 1.390 . S
C639 H643 0.950 . S
H640 C636 0.950 . S
C641 C639 1.390 . S
C641 C642 1.387 . S
C641 H644 0.950 . S
C642 C641 1.387 . S
C642 C645 1.387 . S
H643 C639 0.950 . S
H644 C641 0.950 . S
C645 C636 1.390 . S
C645 H638 0.950 . S
C645 C642 1.387 . S
C646 C647 1.387 . S
C646 H650 0.950 . S
C646 C655 1.390 1_545 S
C647 C646 1.387 . S
C647 C649 1.387 . S
H648 C655 0.950 . S
C649 C647 1.387 . S
C649 C651 1.390 1_545 S
C649 H653 0.950 . S
H650 C646 0.950 . S
C651 C649 1.390 1_565 S
C651 C652 1.387 . S
C651 H654 0.950 . S
C652 C651 1.387 . S
C652 C655 1.387 . S
H653 C649 0.950 . S
H654 C651 0.950 . S
C655 C646 1.390 1_565 S
C655 H648 0.950 . S
C655 C652 1.387 . S
C656 C657 1.387 . S
C656 H660 0.950 . S
C656 C665 1.390 1_655 S
C657 C656 1.387 . S
C657 C659 1.387 . S
H658 C665 0.950 . S
C659 C657 1.387 . S
C659 C661 1.390 1_655 S
C659 H663 0.950 . S
H660 C656 0.950 . S
C661 C659 1.390 1_455 S
C661 C662 1.387 . S
C661 H664 0.950 . S
C662 C661 1.387 . S
C662 C665 1.387 . S
H663 C659 0.950 . S
H664 C661 0.950 . S
C665 C656 1.390 1_455 S
C665 H658 0.950 . S
C665 C662 1.387 . S
C666 C667 1.387 . S
C666 H670 0.950 . S
C666 C675 1.390 . S
C667 C666 1.387 . S
C667 C669 1.387 . S
H668 C675 0.950 . S
C669 C667 1.387 . S
C669 C671 1.390 . S
C669 H673 0.950 . S
H670 C666 0.950 . S
C671 C669 1.390 . S
C671 C672 1.387 . S
C671 H674 0.950 . S
C672 C671 1.387 . S
C672 C675 1.387 . S
H673 C669 0.950 . S
H674 C671 0.950 . S
C675 C666 1.390 . S
C675 H668 0.950 . S
C675 C672 1.387 . S
C676 C677 1.387 . S
C676 H680 0.950 . S
C676 C685 1.390 1_565 S
C677 C676 1.387 . S
C677 C679 1.387 . S
H678 C685 0.950 . S
C679 C677 1.387 . S
C679 C681 1.390 1_565 S
C679 H683 0.950 . S
H680 C676 0.950 . S
C681 C679 1.390 1_545 S
C681 C682 1.387 . S
C681 H684 0.950 . S
C682 C681 1.387 . S
C682 C685 1.387 . S
H683 C679 0.950 . S
H684 C681 0.950 . S
C685 C676 1.390 1_545 S
C685 H678 0.950 . S
C685 C682 1.387 . S
C686 C687 1.387 . S
C686 H690 0.950 . S
C686 C695 1.390 1_455 S
C687 C686 1.387 . S
C687 C689 1.387 . S
H688 C695 0.950 . S
C689 C687 1.387 . S
C689 C691 1.390 1_455 S
C689 H693 0.950 . S
H690 C686 0.950 . S
C691 C689 1.390 1_655 S
C691 C692 1.387 . S
C691 H694 0.950 . S
C692 C691 1.387 . S
C692 C695 1.387 . S
H693 C689 0.950 . S
H694 C691 0.950 . S
C695 C686 1.390 1_655 S
C695 H688 0.950 . S
C695 C692 1.387 . S
C397 C41 1.753 . S
C402 N14 1.738 . S
C407 N47 1.741 . S
C412 C74 1.756 . S
C417 N80 1.738 . S
C422 C8 1.753 . S
C427 N113 1.739 . S
C432 C173 1.753 . S
C437 N146 1.739 . S
C442 C107 1.754 . S
C447 C140 1.754 . S
C452 N179 1.739 . S
C457 C239 1.757 . S
C462 N212 1.742 . S
C467 C272 1.755 . S
C472 N245 1.740 . S
C477 C206 1.756 . S
C482 N278 1.742 . S
C487 N311 1.740 . S
C492 C371 1.754 . S
C497 C305 1.756 . S
C502 N344 1.740 . S
C507 N377 1.738 . S
C512 C338 1.753 . S
C517 C28 1.379 . S
C522 N236 1.343 1_545 S
C527 C61 1.378 . S
C532 N269 1.343 1_655 S
C537 C94 1.379 . S
C542 N203 1.341 . S
C547 N368 1.341 1_455 S
C552 C127 1.380 . S
C557 C160 1.380 . S
C562 N302 1.343 . S
C567 N335 1.344 1_565 S
C572 C193 1.380 . S
C577 N38 1.341 1_565 S
C582 C226 1.379 . S
C587 N71 1.341 1_455 S
C592 C259 1.380 . S
C597 C292 1.380 . S
C602 N5 1.344 . S
C607 N170 1.341 1_655 S
C612 C325 1.380 . S
C617 C358 1.381 . S
C622 N104 1.341 . S
C627 C391 1.379 . S
C632 N137 1.341 1_545 S
C637 C116 1.420 . S
C642 C17 1.419 . S
C647 C50 1.420 . S
C652 C149 1.420 . S
C657 C83 1.417 . S
C662 C182 1.418 . S
C667 C314 1.417 . S
C672 C215 1.418 . S
C677 C248 1.417 . S
C682 C347 1.417 . S
C687 C281 1.420 . S
C692 C380 1.420 . S
