# Generated by pormake.
# Topology umw, (4)-cn, num edge types: 1
# Building blocks:
#     Node 0, Type 0, BuildingBlock: QUQFOY_clean_sbu_1, # of connection points: 4
#     Node 1, Type 0, BuildingBlock: QUQFOY_clean_sbu_1, # of connection points: 4
#     Node 2, Type 0, BuildingBlock: QUQFOY_clean_sbu_1, # of connection points: 4
#     Node 3, Type 0, BuildingBlock: QUQFOY_clean_sbu_1, # of connection points: 4
#     Node 4, Type 0, BuildingBlock: QUQFOY_clean_sbu_1, # of connection points: 4
#     Node 5, Type 0, BuildingBlock: QUQFOY_clean_sbu_1, # of connection points: 4
#     Node 6, Type 0, BuildingBlock: QUQFOY_clean_sbu_1, # of connection points: 4
#     Node 7, Type 0, BuildingBlock: QUQFOY_clean_sbu_1, # of connection points: 4
#     Edge 8, Type (0, 0), BuildingBlock: AJUNOK_clean_linker_0, # of connection points: 2
#     Edge 9, Type (0, 0), BuildingBlock: AJUNOK_clean_linker_0, # of connection points: 2
#     Edge 10, Type (0, 0), BuildingBlock: AJUNOK_clean_linker_0, # of connection points: 2
#     Edge 11, Type (0, 0), BuildingBlock: AJUNOK_clean_linker_0, # of connection points: 2
#     Edge 12, Type (0, 0), BuildingBlock: AJUNOK_clean_linker_0, # of connection points: 2
#     Edge 13, Type (0, 0), BuildingBlock: AJUNOK_clean_linker_0, # of connection points: 2
#     Edge 14, Type (0, 0), BuildingBlock: AJUNOK_clean_linker_0, # of connection points: 2
#     Edge 15, Type (0, 0), BuildingBlock: AJUNOK_clean_linker_0, # of connection points: 2
#     Edge 16, Type (0, 0), BuildingBlock: AJUNOK_clean_linker_0, # of connection points: 2
#     Edge 17, Type (0, 0), BuildingBlock: AJUNOK_clean_linker_0, # of connection points: 2
#     Edge 18, Type (0, 0), BuildingBlock: AJUNOK_clean_linker_0, # of connection points: 2
#     Edge 19, Type (0, 0), BuildingBlock: AJUNOK_clean_linker_0, # of connection points: 2
#     Edge 20, Type (0, 0), BuildingBlock: AJUNOK_clean_linker_0, # of connection points: 2
#     Edge 21, Type (0, 0), BuildingBlock: AJUNOK_clean_linker_0, # of connection points: 2
#     Edge 22, Type (0, 0), BuildingBlock: AJUNOK_clean_linker_0, # of connection points: 2
#     Edge 23, Type (0, 0), BuildingBlock: AJUNOK_clean_linker_0, # of connection points: 2
# Relax obj value: 0.045
# Max RMSD: 0.091
# Mean RMSD: 0.091
data_MOF--net-umw--node1-QUQFOY_clean_sbu_1--edge1-AJUNOK_clean_linker_0
_symmetry_space_group_name_H-M    P1
_symmetry_Int_Tables_number       1
_symmetry_cell_setting            triclinic
loop_
_symmetry_equiv_pos_as_xyz
'x, y, z'
_cell_length_a     32.553719
_cell_length_b     32.571686
_cell_length_c     20.527206
_cell_angle_alpha  89.620052
_cell_angle_beta   89.883686
_cell_angle_gamma 90.004853
loop_
_atom_site_label
_atom_site_type_symbol
_atom_site_fract_x
_atom_site_fract_y
_atom_site_fract_z
_atom_type_partial_charge
O0 O 0.41619 0.17052 0.45896 0.0
Cd1 Cd 0.37638 0.15971 0.38424 0.0
Cd2 Cd 0.44917 0.16568 0.31876 0.0
O3 O 0.46814 0.19523 0.40202 0.0
O4 O 0.32251 0.16574 0.42888 0.0
O5 O 0.34569 0.20957 0.35432 0.0
C6 C 0.31848 0.1999 0.3977 0.0
C7 C 0.46806 0.18823 0.2143 0.0
C8 C 0.45046 0.18898 0.45645 0.0
C9 C 0.40878 0.0827 0.33397 0.0
O10 O 0.44189 0.10288 0.32647 0.0
O11 O 0.37553 0.10122 0.34742 0.0
O12 O 0.49449 0.17241 0.25383 0.0
O13 O 0.43102 0.19334 0.23553 0.0
O14 O 0.82102 0.4093 0.72109 0.0
Cd15 Cd 0.82998 0.36975 0.64577 0.0
Cd16 Cd 0.82469 0.44272 0.57884 0.0
O17 O 0.79665 0.46138 0.66417 0.0
O18 O 0.82174 0.31568 0.68927 0.0
O19 O 0.77874 0.34182 0.61622 0.0
C20 C 0.7872 0.31379 0.65899 0.0
C21 C 0.80041 0.46444 0.47672 0.0
C22 C 0.80292 0.44373 0.71867 0.0
C23 C 0.90692 0.39984 0.58912 0.0
O24 O 0.88754 0.43347 0.58184 0.0
O25 O 0.8878 0.36749 0.60601 0.0
O26 O 0.81784 0.48952 0.51629 0.0
O27 O 0.79507 0.42702 0.49625 0.0
O28 O 0.57344 0.81576 0.97851 0.0
Cd29 Cd 0.61255 0.82602 0.90215 0.0
Cd30 Cd 0.53998 0.81813 0.83705 0.0
O31 O 0.52306 0.78826 0.92237 0.0
O32 O 0.66728 0.8192 0.9435 0.0
O33 O 0.64164 0.77564 0.87155 0.0
C34 C 0.67003 0.78495 0.91283 0.0
C35 C 0.51847 0.79542 0.73431 0.0
C36 C 0.53995 0.79588 0.97679 0.0
C37 C 0.57956 0.90188 0.84695 0.0
O38 O 0.54667 0.88118 0.84124 0.0
O39 O 0.61288 0.88393 0.86204 0.0
O40 O 0.49298 0.81078 0.77557 0.0
O41 O 0.55615 0.79083 0.7527 0.0
O42 O 0.17708 0.575 0.20633 0.0
Cd43 Cd 0.15909 0.61799 0.1393 0.0
Cd44 Cd 0.16462 0.54336 0.06442 0.0
O45 O 0.19469 0.52195 0.14647 0.0
O46 O 0.16069 0.66628 0.19808 0.0
O47 O 0.20077 0.66043 0.1118 0.0
C48 C 0.19088 0.68007 0.16398 0.0
C49 C 0.18519 0.52181 0.96002 0.0
C50 C 0.1925 0.53942 0.20155 0.0
C51 C 0.08119 0.58347 0.09036 0.0
O52 O 0.10201 0.55205 0.07433 0.0
O53 O 0.09886 0.61584 0.11016 0.0
O54 O 0.16856 0.49689 1.00124 0.0
O55 O 0.19158 0.55905 0.97873 0.0
O56 O 0.41856 0.80449 0.21588 0.0
Cd57 Cd 0.37528 0.82503 0.28009 0.0
Cd58 Cd 0.45003 0.8212 0.35819 0.0
O59 O 0.47334 0.79287 0.27631 0.0
O60 O 0.32717 0.82282 0.22045 0.0
O61 O 0.33158 0.78554 0.31039 0.0
C62 C 0.31204 0.7947 0.25757 0.0
C63 C 0.46959 0.79919 0.46303 0.0
C64 C 0.45509 0.79156 0.22167 0.0
C65 C 0.40866 0.90394 0.33042 0.0
O66 O 0.43957 0.8836 0.35044 0.0
O67 O 0.37786 0.88578 0.30589 0.0
O68 O 0.49506 0.81725 0.42423 0.0
O69 O 0.43311 0.79196 0.44127 0.0
O70 O 0.17513 0.41779 0.44378 0.0
Cd71 Cd 0.16464 0.3767 0.51751 0.0
Cd72 Cd 0.16536 0.45136 0.58484 0.0
O73 O 0.19454 0.4715 0.50073 0.0
O74 O 0.16976 0.32402 0.4696 0.0
O75 O 0.21434 0.34437 0.54408 0.0
C76 C 0.20388 0.31841 0.49982 0.0
C77 C 0.18629 0.47199 0.68908 0.0
C78 C 0.19109 0.45324 0.4464 0.0
C79 C 0.0855 0.40474 0.57107 0.0
O80 O 0.1031 0.43925 0.57855 0.0
O81 O 0.10632 0.37336 0.55538 0.0
O82 O 0.16897 0.49724 0.64906 0.0
O83 O 0.19387 0.43535 0.6685 0.0
O84 O 0.56932 0.16776 0.69768 0.0
Cd85 Cd 0.60996 0.1571 0.77154 0.0
Cd86 Cd 0.53774 0.16364 0.84032 0.0
O87 O 0.5185 0.19275 0.75615 0.0
O88 O 0.66352 0.16412 0.72616 0.0
O89 O 0.64027 0.20697 0.80119 0.0
C90 C 0.66729 0.1981 0.75726 0.0
C91 C 0.51628 0.18692 0.94282 0.0
C92 C 0.53506 0.18617 0.7011 0.0
C93 C 0.57852 0.08046 0.82692 0.0
O94 O 0.54562 0.10074 0.83569 0.0
O95 O 0.61134 0.09879 0.81008 0.0
O96 O 0.49108 0.17005 0.90281 0.0
O97 O 0.55375 0.19219 0.92358 0.0
O98 O 0.81551 0.56506 0.95807 0.0
Cd99 Cd 0.82507 0.60715 0.02978 0.0
Cd100 Cd 0.82059 0.53458 0.10161 0.0
O101 O 0.79343 0.51302 1.01765 0.0
O102 O 0.81958 0.65967 0.98044 0.0
O103 O 0.77515 0.63914 0.05578 0.0
C104 C 0.78545 0.66515 1.01086 0.0
C105 C 0.79802 0.51408 0.20558 0.0
C106 C 0.7993 0.52972 0.96225 0.0
C107 C 0.90247 0.5781 0.08641 0.0
O108 O 0.88312 0.5448 0.09684 0.0
O109 O 0.88324 0.61002 0.06791 0.0
O110 O 0.81574 0.48879 0.16658 0.0
O111 O 0.79097 0.55079 0.18411 0.0
C112 C 0.51475 0.19647 0.52066 0.0
C113 C 0.4717 0.19808 0.51806 0.0
C114 C 0.53518 0.19533 0.58051 0.0
C115 C 0.51332 0.19614 0.63983 0.0
H116 H 0.53267 0.19323 0.47647 0.0
H117 H 0.56827 0.19178 0.58015 0.0
S118 S 0.40061 0.20858 0.65855 0.0
N119 N 0.40814 0.20653 0.57908 0.0
N120 N 0.44659 0.20459 0.69179 0.0
C121 C 0.47053 0.20174 0.63768 0.0
C122 C 0.4497 0.20259 0.57667 0.0
C123 C 0.79261 0.50787 0.78207 0.0
C124 C 0.79327 0.46481 0.78028 0.0
C125 C 0.79184 0.52861 0.84149 0.0
C126 C 0.79138 0.50708 0.90129 0.0
H127 H 0.79525 0.52575 0.73756 0.0
H128 H 0.79354 0.56183 0.84043 0.0
S129 S 0.78485 0.39402 0.9222 0.0
N130 N 0.7875 0.40123 0.84262 0.0
N131 N 0.786 0.44029 0.9545 0.0
C132 C 0.78827 0.46405 0.89993 0.0
C133 C 0.78932 0.4429 0.83933 0.0
C134 C 0.52036 0.78914 0.15829 0.0
C135 C 0.47795 0.78156 0.16155 0.0
C136 C 0.54069 0.79104 0.09821 0.0
C137 C 0.51943 0.78521 0.03919 0.0
H138 H 0.53744 0.79669 0.20184 0.0
H139 H 0.57293 0.7993 0.09806 0.0
S140 S 0.40984 0.75563 0.02288 0.0
N141 N 0.41665 0.7616 0.10192 0.0
N142 N 0.45488 0.76514 0.98889 0.0
C143 C 0.47791 0.77344 0.04236 0.0
C144 C 0.45717 0.77165 0.10361 0.0
C145 C 0.20141 0.51767 0.38197 0.0
C146 C 0.20125 0.47461 0.3846 0.0
C147 C 0.20196 0.53848 0.32213 0.0
C148 C 0.20248 0.51703 0.26263 0.0
H149 H 0.19836 0.53549 0.4261 0.0
H150 H 0.1996 0.57166 0.32267 0.0
S151 S 0.21159 0.40416 0.2439 0.0
N152 N 0.20868 0.41125 0.32333 0.0
N153 N 0.20946 0.45043 0.21075 0.0
C154 C 0.2066 0.47409 0.26486 0.0
C155 C 0.20595 0.45287 0.3259 0.0
C156 C 0.30017 0.27008 0.43308 0.0
C157 C 0.28762 0.22979 0.41932 0.0
C158 C 0.27322 0.29798 0.46229 0.0
C159 C 0.23258 0.28678 0.47706 0.0
H160 H 0.33141 0.27975 0.423 0.0
H161 H 0.28396 0.32885 0.47186 0.0
S162 S 0.18454 0.18529 0.44946 0.0
N163 N 0.23227 0.17982 0.42332 0.0
N164 N 0.18072 0.2332 0.47482 0.0
C165 C 0.21941 0.24686 0.46252 0.0
C166 C 0.24724 0.21805 0.43461 0.0
C167 C 0.7666 0.24277 0.69161 0.0
C168 C 0.75601 0.28404 0.68057 0.0
C169 C 0.73788 0.21499 0.71766 0.0
C170 C 0.69844 0.22815 0.73621 0.0
H171 H 0.7971 0.23187 0.67951 0.0
H172 H 0.74664 0.1831 0.7237 0.0
S173 S 0.65656 0.33356 0.71974 0.0
N174 N 0.7038 0.33691 0.6907 0.0
N175 N 0.65041 0.28515 0.74216 0.0
C176 C 0.68788 0.26955 0.72666 0.0
C177 C 0.71656 0.29742 0.69816 0.0
C178 C 0.71543 0.68655 0.97771 0.0
C179 C 0.75672 0.69702 0.98834 0.0
C180 C 0.68812 0.71473 0.94964 0.0
C181 C 0.70098 0.75462 0.93295 0.0
H182 H 0.70436 0.65605 0.98978 0.0
H183 H 0.65639 0.70565 0.94283 0.0
S184 S 0.80574 0.79723 0.95167 0.0
N185 N 0.80947 0.74952 0.97893 0.0
N186 N 0.75734 0.80343 0.92957 0.0
C187 C 0.74203 0.76564 0.94398 0.0
C188 C 0.77017 0.73653 0.97072 0.0
C189 C 0.24091 0.73706 0.14517 0.0
C190 C 0.21662 0.71397 0.18851 0.0
C191 C 0.26998 0.76513 0.16825 0.0
C192 C 0.27651 0.77031 0.23553 0.0
H193 H 0.23828 0.73259 0.09309 0.0
H194 H 0.28898 0.78121 0.133 0.0
S195 S 0.21914 0.71913 0.36928 0.0
N196 N 0.19916 0.7001 0.30205 0.0
N197 N 0.25472 0.75201 0.34509 0.0
C198 C 0.2514 0.74862 0.27935 0.0
C199 C 0.22116 0.72068 0.25592 0.0
C200 C 0.37301 0.97199 0.32243 0.0
C201 C 0.40938 0.94946 0.33269 0.0
C202 C 0.37308 0.01503 0.32245 0.0
C203 C 0.40962 0.03726 0.33177 0.0
H204 H 0.34411 0.95632 0.31457 0.0
H205 H 0.34427 0.03097 0.31477 0.0
S206 S 0.51325 -0.00687 0.36111 0.0
N207 N 0.48301 0.95286 0.35287 0.0
N208 N 0.48315 0.03353 0.35241 0.0
C209 C 0.44626 0.01516 0.34191 0.0
C210 C 0.44612 0.97137 0.34261 0.0
C211 C 0.97373 0.43702 0.57903 0.0
C212 C 0.95234 0.39951 0.58263 0.0
C213 C 0.01663 0.43824 0.5764 0.0
C214 C 0.04014 0.40199 0.57662 0.0
H215 H 0.9573 0.46594 0.57905 0.0
H216 H 0.03139 0.46801 0.57353 0.0
S217 S -0.00067 0.29558 0.58491 0.0
N218 N 0.95804 0.32499 0.58606 0.0
N219 N 0.03881 0.32729 0.58061 0.0
C220 C 0.01925 0.36416 0.57981 0.0
C221 C 0.9754 0.36291 0.58294 0.0
C222 C 0.61522 0.97012 0.843 0.0
C223 C 0.57853 0.94729 0.83985 0.0
C224 C 0.61495 0.0131 0.8391 0.0
C225 C 0.57795 0.03506 0.83259 0.0
H226 H 0.64451 0.95475 0.84869 0.0
H227 H 0.644 0.02923 0.84169 0.0
S228 S 0.47339 0.9901 0.81996 0.0
N229 N 0.5041 0.95014 0.8282 0.0
N230 N 0.50365 0.0307 0.82135 0.0
C231 C 0.54103 0.01268 0.82902 0.0
C232 C 0.54131 0.9689 0.83242 0.0
C233 C 0.9693 0.61637 0.08609 0.0
C234 C 0.94797 0.57883 0.09072 0.0
C235 C 0.01234 0.61766 0.08602 0.0
C236 C 0.03576 0.58143 0.08959 0.0
H237 H 0.95267 0.64508 0.08218 0.0
H238 H 0.02736 0.64727 0.08231 0.0
S239 S -0.00482 0.47522 0.10505 0.0
N240 N 0.95388 0.50447 0.10105 0.0
N241 N 0.03455 0.50699 0.10031 0.0
C242 C 0.01491 0.5437 0.09491 0.0
C243 C 0.97112 0.54239 0.09575 0.0
C244 C 0.53298 0.19562 0.06084 0.0
C245 C 0.50349 0.19547 1.01088 0.0
C246 C 0.5212 0.19563 0.12665 0.0
C247 C 0.47949 0.19607 0.14516 0.0
H248 H 0.56537 0.1933 0.04927 0.0
H249 H 0.54505 0.19362 0.16326 0.0
S250 S 0.39044 0.202 0.03276 0.0
N251 N 0.43088 0.20017 0.98419 0.0
N252 N 0.40877 0.20075 0.10769 0.0
C253 C 0.4498 0.19908 0.09561 0.0
C254 C 0.46179 0.19858 0.02855 0.0
C255 C 0.79199 0.46026 0.29278 0.0
C256 C 0.79026 0.50201 0.27453 0.0
C257 C 0.79221 0.44812 0.35852 0.0
C258 C 0.79139 0.47731 0.40869 0.0
H259 H 0.79485 0.43672 0.25601 0.0
H260 H 0.79556 0.41578 0.36994 0.0
S261 S 0.78142 0.59013 0.38748 0.0
N262 N 0.78331 0.57229 0.31243 0.0
N263 N 0.78445 0.54953 0.43581 0.0
C264 C 0.78703 0.51895 0.39125 0.0
C265 C 0.78622 0.53129 0.32425 0.0
C266 C 0.53507 0.79066 0.61551 0.0
C267 C 0.50575 0.78825 0.66582 0.0
C268 C 0.52312 0.7921 0.54986 0.0
C269 C 0.48142 0.79056 0.53175 0.0
H270 H 0.56739 0.79384 0.62688 0.0
H271 H 0.54678 0.79595 0.51314 0.0
S272 S 0.39296 0.77837 0.64464 0.0
N273 N 0.43342 0.7803 0.6929 0.0
N274 N 0.41103 0.78233 0.56964 0.0
C275 C 0.45199 0.78514 0.5814 0.0
C276 C 0.46414 0.78421 0.64835 0.0
C277 C 0.1917 0.538 0.84094 0.0
C278 C 0.19278 0.50883 0.89175 0.0
C279 C 0.19165 0.52585 0.7754 0.0
C280 C 0.19337 0.4841 0.75797 0.0
H281 H 0.18864 0.57036 0.85175 0.0
H282 H 0.18882 0.5494 0.73816 0.0
S283 S 0.20204 0.39594 0.87272 0.0
N284 N 0.19936 0.43656 0.92023 0.0
N285 N 0.19999 0.4138 0.79733 0.0
C286 C 0.19728 0.4548 0.80831 0.0
C287 C 0.19674 0.46716 0.87508 0.0
loop_
_geom_bond_atom_site_label_1
_geom_bond_atom_site_label_2
_geom_bond_distance
_geom_bond_site_symmetry_2
_ccdc_geom_bond_type
O0 Cd1 2.223 . S
O0 C8 1.315 . S
Cd1 O0 2.223 . S
Cd1 O4 2.297 . S
Cd1 O5 2.439 . S
Cd1 O11 2.240 . S
Cd2 O3 2.240 . S
Cd2 O10 2.223 . S
Cd2 O12 2.297 . S
Cd2 O13 2.439 . S
O3 Cd2 2.240 . S
O3 C8 1.279 . S
O4 Cd1 2.297 . S
O4 C6 1.247 . S
O5 Cd1 2.439 . S
O5 C6 1.208 . S
C6 O4 1.247 . S
C6 O5 1.208 . S
C7 O12 1.247 . S
C7 O13 1.208 . S
C8 O0 1.315 . S
C8 O3 1.279 . S
C9 O10 1.315 . S
C9 O11 1.279 . S
O10 Cd2 2.223 . S
O10 C9 1.315 . S
O11 Cd1 2.240 . S
O11 C9 1.279 . S
O12 Cd2 2.297 . S
O12 C7 1.247 . S
O13 Cd2 2.439 . S
O13 C7 1.208 . S
O14 Cd15 2.223 . S
O14 C22 1.315 . S
Cd15 O14 2.223 . S
Cd15 O18 2.297 . S
Cd15 O19 2.439 . S
Cd15 O25 2.240 . S
Cd16 O17 2.240 . S
Cd16 O24 2.223 . S
Cd16 O26 2.297 . S
Cd16 O27 2.439 . S
O17 Cd16 2.240 . S
O17 C22 1.279 . S
O18 Cd15 2.297 . S
O18 C20 1.247 . S
O19 Cd15 2.439 . S
O19 C20 1.208 . S
C20 O18 1.247 . S
C20 O19 1.208 . S
C21 O26 1.247 . S
C21 O27 1.208 . S
C22 O14 1.315 . S
C22 O17 1.279 . S
C23 O24 1.315 . S
C23 O25 1.279 . S
O24 Cd16 2.223 . S
O24 C23 1.315 . S
O25 Cd15 2.240 . S
O25 C23 1.279 . S
O26 Cd16 2.297 . S
O26 C21 1.247 . S
O27 Cd16 2.439 . S
O27 C21 1.208 . S
O28 Cd29 2.223 . S
O28 C36 1.315 . S
Cd29 O28 2.223 . S
Cd29 O32 2.297 . S
Cd29 O33 2.439 . S
Cd29 O39 2.240 . S
Cd30 O31 2.240 . S
Cd30 O38 2.223 . S
Cd30 O40 2.297 . S
Cd30 O41 2.439 . S
O31 Cd30 2.240 . S
O31 C36 1.279 . S
O32 Cd29 2.297 . S
O32 C34 1.247 . S
O33 Cd29 2.439 . S
O33 C34 1.208 . S
C34 O32 1.247 . S
C34 O33 1.208 . S
C35 O40 1.247 . S
C35 O41 1.208 . S
C36 O28 1.315 . S
C36 O31 1.279 . S
C37 O38 1.315 . S
C37 O39 1.279 . S
O38 Cd30 2.223 . S
O38 C37 1.315 . S
O39 Cd29 2.240 . S
O39 C37 1.279 . S
O40 Cd30 2.297 . S
O40 C35 1.247 . S
O41 Cd30 2.439 . S
O41 C35 1.208 . S
O42 Cd43 2.223 . S
O42 C50 1.315 . S
Cd43 O42 2.223 . S
Cd43 O46 2.297 . S
Cd43 O47 2.439 . S
Cd43 O53 2.240 . S
Cd44 O45 2.240 . S
Cd44 O52 2.223 . S
Cd44 O54 2.297 1_554 S
Cd44 O55 2.439 1_554 S
O45 Cd44 2.240 . S
O45 C50 1.279 . S
O46 Cd43 2.297 . S
O46 C48 1.247 . S
O47 Cd43 2.439 . S
O47 C48 1.208 . S
C48 O46 1.247 . S
C48 O47 1.208 . S
C49 O54 1.247 . S
C49 O55 1.208 . S
C50 O42 1.315 . S
C50 O45 1.279 . S
C51 O52 1.315 . S
C51 O53 1.279 . S
O52 Cd44 2.223 . S
O52 C51 1.315 . S
O53 Cd43 2.240 . S
O53 C51 1.279 . S
O54 Cd44 2.297 1_556 S
O54 C49 1.247 . S
O55 Cd44 2.439 1_556 S
O55 C49 1.208 . S
O56 Cd57 2.223 . S
O56 C64 1.315 . S
Cd57 O56 2.223 . S
Cd57 O60 2.297 . S
Cd57 O61 2.439 . S
Cd57 O67 2.240 . S
Cd58 O59 2.240 . S
Cd58 O66 2.223 . S
Cd58 O68 2.297 . S
Cd58 O69 2.439 . S
O59 Cd58 2.240 . S
O59 C64 1.279 . S
O60 Cd57 2.297 . S
O60 C62 1.247 . S
O61 Cd57 2.439 . S
O61 C62 1.208 . S
C62 O60 1.247 . S
C62 O61 1.208 . S
C63 O68 1.247 . S
C63 O69 1.208 . S
C64 O56 1.315 . S
C64 O59 1.279 . S
C65 O66 1.315 . S
C65 O67 1.279 . S
O66 Cd58 2.223 . S
O66 C65 1.315 . S
O67 Cd57 2.240 . S
O67 C65 1.279 . S
O68 Cd58 2.297 . S
O68 C63 1.247 . S
O69 Cd58 2.439 . S
O69 C63 1.208 . S
O70 Cd71 2.223 . S
O70 C78 1.315 . S
Cd71 O70 2.223 . S
Cd71 O74 2.297 . S
Cd71 O75 2.439 . S
Cd71 O81 2.240 . S
Cd72 O73 2.240 . S
Cd72 O80 2.223 . S
Cd72 O82 2.297 . S
Cd72 O83 2.439 . S
O73 Cd72 2.240 . S
O73 C78 1.279 . S
O74 Cd71 2.297 . S
O74 C76 1.247 . S
O75 Cd71 2.439 . S
O75 C76 1.208 . S
C76 O74 1.247 . S
C76 O75 1.208 . S
C77 O82 1.247 . S
C77 O83 1.208 . S
C78 O70 1.315 . S
C78 O73 1.279 . S
C79 O80 1.315 . S
C79 O81 1.279 . S
O80 Cd72 2.223 . S
O80 C79 1.315 . S
O81 Cd71 2.240 . S
O81 C79 1.279 . S
O82 Cd72 2.297 . S
O82 C77 1.247 . S
O83 Cd72 2.439 . S
O83 C77 1.208 . S
O84 Cd85 2.223 . S
O84 C92 1.315 . S
Cd85 O84 2.223 . S
Cd85 O88 2.297 . S
Cd85 O89 2.439 . S
Cd85 O95 2.240 . S
Cd86 O87 2.240 . S
Cd86 O94 2.223 . S
Cd86 O96 2.297 . S
Cd86 O97 2.439 . S
O87 Cd86 2.240 . S
O87 C92 1.279 . S
O88 Cd85 2.297 . S
O88 C90 1.247 . S
O89 Cd85 2.439 . S
O89 C90 1.208 . S
C90 O88 1.247 . S
C90 O89 1.208 . S
C91 O96 1.247 . S
C91 O97 1.208 . S
C92 O84 1.315 . S
C92 O87 1.279 . S
C93 O94 1.315 . S
C93 O95 1.279 . S
O94 Cd86 2.223 . S
O94 C93 1.315 . S
O95 Cd85 2.240 . S
O95 C93 1.279 . S
O96 Cd86 2.297 . S
O96 C91 1.247 . S
O97 Cd86 2.439 . S
O97 C91 1.208 . S
O98 Cd99 2.223 . S
O98 C106 1.315 . S
Cd99 O98 2.223 . S
Cd99 O102 2.297 . S
Cd99 O103 2.439 1_556 S
Cd99 O109 2.240 1_556 S
Cd100 O101 2.240 1_554 S
Cd100 O108 2.223 . S
Cd100 O110 2.297 . S
Cd100 O111 2.439 . S
O101 Cd100 2.240 1_556 S
O101 C106 1.279 . S
O102 Cd99 2.297 . S
O102 C104 1.247 . S
O103 Cd99 2.439 1_554 S
O103 C104 1.208 1_554 S
C104 O102 1.247 . S
C104 O103 1.208 1_556 S
C105 O110 1.247 . S
C105 O111 1.208 . S
C106 O98 1.315 . S
C106 O101 1.279 . S
C107 O108 1.315 . S
C107 O109 1.279 . S
O108 Cd100 2.223 . S
O108 C107 1.315 . S
O109 Cd99 2.240 1_554 S
O109 C107 1.279 . S
O110 Cd100 2.297 . S
O110 C105 1.247 . S
O111 Cd100 2.439 . S
O111 C105 1.208 . S
C112 C113 1.369 . S
C112 C114 1.419 . S
C112 H116 0.930 . S
C113 C112 1.369 . S
C113 C122 1.429 . S
C114 C112 1.419 . S
C114 C115 1.363 . S
C114 H117 0.929 . S
C115 C114 1.363 . S
C115 C121 1.428 . S
H116 C112 0.930 . S
H117 C114 0.929 . S
S118 N119 1.613 . S
S118 N120 1.610 . S
N119 S118 1.613 . S
N119 C122 1.350 . S
N120 S118 1.610 . S
N120 C121 1.351 . S
C121 C115 1.428 . S
C121 N120 1.351 . S
C121 C122 1.434 . S
C122 C113 1.429 . S
C122 N119 1.350 . S
C122 C121 1.434 . S
C123 C124 1.369 . S
C123 C125 1.419 . S
C123 H127 0.930 . S
C124 C123 1.369 . S
C124 C133 1.429 . S
C125 C123 1.419 . S
C125 C126 1.363 . S
C125 H128 0.929 . S
C126 C125 1.363 . S
C126 C132 1.428 . S
H127 C123 0.930 . S
H128 C125 0.929 . S
S129 N130 1.613 . S
S129 N131 1.610 . S
N130 S129 1.613 . S
N130 C133 1.350 . S
N131 S129 1.610 . S
N131 C132 1.351 . S
C132 C126 1.428 . S
C132 N131 1.351 . S
C132 C133 1.434 . S
C133 C124 1.429 . S
C133 N130 1.350 . S
C133 C132 1.434 . S
C134 C135 1.369 . S
C134 C136 1.419 . S
C134 H138 0.930 . S
C135 C134 1.369 . S
C135 C144 1.429 . S
C136 C134 1.419 . S
C136 C137 1.354 1_554 S
C136 H139 0.929 . S
C137 C136 1.354 1_556 S
C137 C143 1.425 1_556 S
H138 C134 0.930 . S
H139 C136 0.929 . S
S140 N141 1.613 . S
S140 N142 1.610 1_554 S
N141 S140 1.613 . S
N141 C144 1.350 . S
N142 S140 1.610 1_556 S
N142 C143 1.351 1_556 S
C143 C137 1.425 1_554 S
C143 N142 1.351 1_554 S
C143 C144 1.434 . S
C144 C135 1.429 . S
C144 N141 1.350 . S
C144 C143 1.434 . S
C145 C146 1.369 . S
C145 C147 1.419 . S
C145 H149 0.930 . S
C146 C145 1.369 . S
C146 C155 1.429 . S
C147 C145 1.419 . S
C147 C148 1.363 . S
C147 H150 0.929 . S
C148 C147 1.363 . S
C148 C154 1.428 . S
H149 C145 0.930 . S
H150 C147 0.929 . S
S151 N152 1.613 . S
S151 N153 1.610 . S
N152 S151 1.613 . S
N152 C155 1.350 . S
N153 S151 1.610 . S
N153 C154 1.351 . S
C154 C148 1.428 . S
C154 N153 1.351 . S
C154 C155 1.434 . S
C155 C146 1.429 . S
C155 N152 1.350 . S
C155 C154 1.434 . S
C156 C157 1.369 . S
C156 C158 1.419 . S
C156 H160 0.930 . S
C157 C156 1.369 . S
C157 C166 1.429 . S
C158 C156 1.419 . S
C158 C159 1.363 . S
C158 H161 0.929 . S
C159 C158 1.363 . S
C159 C165 1.428 . S
H160 C156 0.930 . S
H161 C158 0.929 . S
S162 N163 1.613 . S
S162 N164 1.610 . S
N163 S162 1.613 . S
N163 C166 1.350 . S
N164 S162 1.610 . S
N164 C165 1.351 . S
C165 C159 1.428 . S
C165 N164 1.351 . S
C165 C166 1.434 . S
C166 C157 1.429 . S
C166 N163 1.350 . S
C166 C165 1.434 . S
C167 C168 1.369 . S
C167 C169 1.419 . S
C167 H171 0.930 . S
C168 C167 1.369 . S
C168 C177 1.429 . S
C169 C167 1.419 . S
C169 C170 1.363 . S
C169 H172 0.929 . S
C170 C169 1.363 . S
C170 C176 1.428 . S
H171 C167 0.930 . S
H172 C169 0.929 . S
S173 N174 1.613 . S
S173 N175 1.610 . S
N174 S173 1.613 . S
N174 C177 1.350 . S
N175 S173 1.610 . S
N175 C176 1.351 . S
C176 C170 1.428 . S
C176 N175 1.351 . S
C176 C177 1.434 . S
C177 C168 1.429 . S
C177 N174 1.350 . S
C177 C176 1.434 . S
C178 C179 1.369 . S
C178 C180 1.419 . S
C178 H182 0.930 1_556 S
C179 C178 1.369 . S
C179 C188 1.429 . S
C180 C178 1.419 . S
C180 C181 1.363 . S
C180 H183 0.929 . S
C181 C180 1.363 . S
C181 C187 1.428 . S
H182 C178 0.930 1_554 S
H183 C180 0.929 . S
S184 N185 1.613 . S
S184 N186 1.610 . S
N185 S184 1.613 . S
N185 C188 1.350 . S
N186 S184 1.610 . S
N186 C187 1.351 . S
C187 C181 1.428 . S
C187 N186 1.351 . S
C187 C188 1.434 . S
C188 C179 1.429 . S
C188 N185 1.350 . S
C188 C187 1.434 . S
C189 C190 1.369 . S
C189 C191 1.419 . S
C189 H193 0.930 . S
C190 C189 1.369 . S
C190 C199 1.429 . S
C191 C189 1.419 . S
C191 C192 1.363 . S
C191 H194 0.929 . S
C192 C191 1.363 . S
C192 C198 1.428 . S
H193 C189 0.930 . S
H194 C191 0.929 . S
S195 N196 1.613 . S
S195 N197 1.610 . S
N196 S195 1.613 . S
N196 C199 1.350 . S
N197 S195 1.610 . S
N197 C198 1.351 . S
C198 C192 1.428 . S
C198 N197 1.351 . S
C198 C199 1.434 . S
C199 C190 1.429 . S
C199 N196 1.350 . S
C199 C198 1.434 . S
C200 C201 1.369 . S
C200 C202 1.419 1_565 S
C200 H204 0.930 . S
C201 C200 1.369 . S
C201 C210 1.429 . S
C202 C200 1.419 1_545 S
C202 C203 1.363 . S
C202 H205 0.929 . S
C203 C202 1.363 . S
C203 C209 1.428 . S
H204 C200 0.930 . S
H205 C202 0.929 . S
S206 N207 1.613 . S
S206 N208 1.610 1_565 S
N207 S206 1.613 . S
N207 C210 1.350 . S
N208 S206 1.610 1_545 S
N208 C209 1.351 . S
C209 C203 1.428 . S
C209 N208 1.351 . S
C209 C210 1.434 1_545 S
C210 C201 1.429 . S
C210 N207 1.350 . S
C210 C209 1.434 1_565 S
C211 C212 1.369 . S
C211 C213 1.419 1_655 S
C211 H215 0.930 . S
C212 C211 1.369 . S
C212 C221 1.429 . S
C213 C211 1.419 1_455 S
C213 C214 1.363 . S
C213 H216 0.929 . S
C214 C213 1.363 . S
C214 C220 1.428 . S
H215 C211 0.930 . S
H216 C213 0.929 . S
S217 N218 1.613 1_455 S
S217 N219 1.610 . S
N218 S217 1.613 1_655 S
N218 C221 1.350 . S
N219 S217 1.610 . S
N219 C220 1.351 . S
C220 C214 1.428 . S
C220 N219 1.351 . S
C220 C221 1.434 1_455 S
C221 C212 1.429 . S
C221 N218 1.350 . S
C221 C220 1.434 1_655 S
C222 C223 1.369 . S
C222 C224 1.419 1_565 S
C222 H226 0.930 . S
C223 C222 1.369 . S
C223 C232 1.429 . S
C224 C222 1.419 1_545 S
C224 C225 1.363 . S
C224 H227 0.929 . S
C225 C224 1.363 . S
C225 C231 1.428 . S
H226 C222 0.930 . S
H227 C224 0.929 . S
S228 N229 1.613 . S
S228 N230 1.610 1_565 S
N229 S228 1.613 . S
N229 C232 1.350 . S
N230 S228 1.610 1_545 S
N230 C231 1.351 . S
C231 C225 1.428 . S
C231 N230 1.351 . S
C231 C232 1.434 1_545 S
C232 C223 1.429 . S
C232 N229 1.350 . S
C232 C231 1.434 1_565 S
C233 C234 1.369 . S
C233 C235 1.419 1_655 S
C233 H237 0.937 . S
C234 C233 1.369 . S
C234 C243 1.429 . S
C235 C233 1.419 1_455 S
C235 C236 1.363 . S
C235 H238 0.929 . S
C236 C235 1.363 . S
C236 C242 1.428 . S
H237 C233 0.937 . S
H238 C235 0.929 . S
S239 N240 1.613 . S
S239 N241 1.610 1_655 S
N240 S239 1.613 . S
N240 C243 1.350 . S
N241 S239 1.610 1_455 S
N241 C242 1.351 . S
C242 C236 1.428 . S
C242 N241 1.351 . S
C242 C243 1.434 1_455 S
C243 C234 1.429 . S
C243 N240 1.350 . S
C243 C242 1.434 1_655 S
C244 C245 1.366 1_554 S
C244 C246 1.419 . S
C244 H248 0.930 . S
C245 C244 1.366 1_556 S
C245 C254 1.428 1_556 S
C246 C244 1.419 . S
C246 C247 1.363 . S
C246 H249 0.929 . S
C247 C246 1.363 . S
C247 C253 1.428 . S
H248 C244 0.930 . S
H249 C246 0.929 . S
S250 N251 1.613 1_554 S
S250 N252 1.610 . S
N251 S250 1.613 1_556 S
N251 C254 1.350 1_556 S
N252 S250 1.610 . S
N252 C253 1.351 . S
C253 C247 1.428 . S
C253 N252 1.351 . S
C253 C254 1.434 . S
C254 C245 1.428 1_554 S
C254 N251 1.350 1_554 S
C254 C253 1.434 . S
C255 C256 1.369 . S
C255 C257 1.419 . S
C255 H259 0.930 . S
C256 C255 1.369 . S
C256 C265 1.429 . S
C257 C255 1.419 . S
C257 C258 1.363 . S
C257 H260 0.929 . S
C258 C257 1.363 . S
C258 C264 1.428 . S
H259 C255 0.930 . S
H260 C257 0.929 . S
S261 N262 1.613 . S
S261 N263 1.610 . S
N262 S261 1.613 . S
N262 C265 1.350 . S
N263 S261 1.610 . S
N263 C264 1.351 . S
C264 C258 1.428 . S
C264 N263 1.351 . S
C264 C265 1.434 . S
C265 C256 1.429 . S
C265 N262 1.350 . S
C265 C264 1.434 . S
C266 C267 1.369 . S
C266 C268 1.419 . S
C266 H270 0.930 . S
C267 C266 1.369 . S
C267 C276 1.429 . S
C268 C266 1.419 . S
C268 C269 1.363 . S
C268 H271 0.929 . S
C269 C268 1.363 . S
C269 C275 1.428 . S
H270 C266 0.930 . S
H271 C268 0.929 . S
S272 N273 1.613 . S
S272 N274 1.610 . S
N273 S272 1.613 . S
N273 C276 1.350 . S
N274 S272 1.610 . S
N274 C275 1.351 . S
C275 C269 1.428 . S
C275 N274 1.351 . S
C275 C276 1.434 . S
C276 C267 1.429 . S
C276 N273 1.350 . S
C276 C275 1.434 . S
C277 C278 1.369 . S
C277 C279 1.419 . S
C277 H281 0.930 . S
C278 C277 1.369 . S
C278 C287 1.429 . S
C279 C277 1.419 . S
C279 C280 1.363 . S
C279 H282 0.929 . S
C280 C279 1.363 . S
C280 C286 1.428 . S
H281 C277 0.930 . S
H282 C279 0.929 . S
S283 N284 1.613 . S
S283 N285 1.610 . S
N284 S283 1.613 . S
N284 C287 1.350 . S
N285 S283 1.610 . S
N285 C286 1.351 . S
C286 C280 1.428 . S
C286 N285 1.351 . S
C286 C287 1.434 . S
C287 C278 1.429 . S
C287 N284 1.350 . S
C287 C286 1.434 . S
C113 C8 1.322 . S
C115 C92 1.325 . S
C124 C22 1.320 . S
C126 C106 1.327 . S
C135 C64 1.322 . S
C137 C36 1.335 . S
C146 C78 1.324 . S
C148 C50 1.324 . S
C157 C6 1.481 . S
C159 C76 1.480 . S
C168 C20 1.482 . S
C170 C90 1.487 . S
C179 C104 1.479 . S
C181 C34 1.482 . S
C190 C48 1.479 . S
C192 C62 1.485 . S
C201 C65 1.522 . S
C203 C9 1.527 . S
C212 C23 1.527 . S
C214 C79 1.522 . S
C223 C37 1.521 . S
C225 C93 1.526 . S
C234 C107 1.520 . S
C236 C51 1.525 . S
C245 C91 1.333 . S
C247 C7 1.337 . S
C256 C105 1.338 . S
C258 C21 1.334 . S
C267 C35 1.331 . S
C269 C63 1.338 . S
C278 C49 1.331 . S
C280 C77 1.338 . S
