# Generated by pormake.
# Topology sml, (6)-cn, num edge types: 1
# Building blocks:
#     Node 0, Type 0, BuildingBlock: LEVNOQ01_clean_sbu_1, # of connection points: 6
#     Node 1, Type 0, BuildingBlock: LEVNOQ01_clean_sbu_1, # of connection points: 6
#     Node 2, Type 0, BuildingBlock: LEVNOQ01_clean_sbu_1, # of connection points: 6
#     Node 3, Type 0, BuildingBlock: LEVNOQ01_clean_sbu_1, # of connection points: 6
#     Node 4, Type 0, BuildingBlock: LEVNOQ01_clean_sbu_1, # of connection points: 6
#     Node 5, Type 0, BuildingBlock: LEVNOQ01_clean_sbu_1, # of connection points: 6
#     Edge 6, Type (0, 0), BuildingBlock: CIFDUS_clean_linker_0, # of connection points: 2
#     Edge 7, Type (0, 0), BuildingBlock: CIFDUS_clean_linker_0, # of connection points: 2
#     Edge 8, Type (0, 0), BuildingBlock: CIFDUS_clean_linker_0, # of connection points: 2
#     Edge 9, Type (0, 0), BuildingBlock: CIFDUS_clean_linker_0, # of connection points: 2
#     Edge 10, Type (0, 0), BuildingBlock: CIFDUS_clean_linker_0, # of connection points: 2
#     Edge 11, Type (0, 0), BuildingBlock: CIFDUS_clean_linker_0, # of connection points: 2
#     Edge 12, Type (0, 0), BuildingBlock: CIFDUS_clean_linker_0, # of connection points: 2
#     Edge 13, Type (0, 0), BuildingBlock: CIFDUS_clean_linker_0, # of connection points: 2
#     Edge 14, Type (0, 0), BuildingBlock: CIFDUS_clean_linker_0, # of connection points: 2
#     Edge 15, Type (0, 0), BuildingBlock: CIFDUS_clean_linker_0, # of connection points: 2
#     Edge 16, Type (0, 0), BuildingBlock: CIFDUS_clean_linker_0, # of connection points: 2
#     Edge 17, Type (0, 0), BuildingBlock: CIFDUS_clean_linker_0, # of connection points: 2
#     Edge 18, Type (0, 0), BuildingBlock: CIFDUS_clean_linker_0, # of connection points: 2
#     Edge 19, Type (0, 0), BuildingBlock: CIFDUS_clean_linker_0, # of connection points: 2
#     Edge 20, Type (0, 0), BuildingBlock: CIFDUS_clean_linker_0, # of connection points: 2
#     Edge 21, Type (0, 0), BuildingBlock: CIFDUS_clean_linker_0, # of connection points: 2
#     Edge 22, Type (0, 0), BuildingBlock: CIFDUS_clean_linker_0, # of connection points: 2
#     Edge 23, Type (0, 0), BuildingBlock: CIFDUS_clean_linker_0, # of connection points: 2
# Relax obj value: 0.144
# Max RMSD: 0.170
# Mean RMSD: 0.170
data_MOF--net-sml--node1-LEVNOQ01_clean_sbu_1--edge1-CIFDUS_clean_linker_0
_symmetry_space_group_name_H-M    P1
_symmetry_Int_Tables_number       1
_symmetry_cell_setting            triclinic
loop_
_symmetry_equiv_pos_as_xyz
'x, y, z'
_cell_length_a     35.325984
_cell_length_b     35.221585
_cell_length_c     13.903169
_cell_angle_alpha  90.129248
_cell_angle_beta   89.830412
_cell_angle_gamma 119.97349
loop_
_atom_site_label
_atom_site_type_symbol
_atom_site_fract_x
_atom_site_fract_y
_atom_site_fract_z
_atom_type_partial_charge
O0 O 0.15715 0.357 0.7728 0.0
Mg1 Mg 0.14874 0.32525 0.90908 0.0
O2 O 0.20037 0.42468 0.82668 0.0
Mg3 Mg 0.21371 0.42352 -0.01251 0.0
O4 O 0.14685 0.36462 0.01446 0.0
O5 O 0.09137 0.2978 -0.00993 0.0
O6 O 0.22925 0.42458 0.14865 0.0
O7 O 0.17684 0.46169 0.02288 0.0
Mg8 Mg 0.27228 0.52046 0.05073 0.0
O9 O 0.28086 0.48185 0.95449 0.0
O10 O 0.26737 0.49478 0.19142 0.0
O11 O 0.22215 0.53243 0.00614 0.0
O12 O 0.33149 0.5512 -0.01823 0.0
C13 C 0.23861 0.34286 0.95364 0.0
C14 C 0.18027 0.39807 0.75837 0.0
C15 C 0.10817 0.33397 0.03789 0.0
C16 C 0.24877 0.45428 0.21231 0.0
C17 C 0.18376 0.50076 0.01822 0.0
C18 C 0.31895 0.51497 0.93585 0.0
O19 O 0.19916 0.3125 0.94571 0.0
O20 O 0.24892 0.3831 0.9591 0.0
O21 O 0.80239 0.16725 0.09226 0.0
Mg22 Mg 0.80944 0.14717 0.22931 0.0
O23 O 0.78962 0.21797 0.15053 0.0
Mg24 Mg 0.7927 0.22397 0.31654 0.0
O25 O 0.78341 0.15689 0.35498 0.0
O26 O 0.7455 0.09851 0.27021 0.0
O27 O 0.79636 0.23785 0.48158 0.0
O28 O 0.71655 0.1872 0.32597 0.0
Mg29 Mg 0.75782 0.29051 0.37359 0.0
O30 O 0.80661 0.29342 0.28785 0.0
O31 O 0.78843 0.29625 0.50803 0.0
O32 O 0.69654 0.23433 0.37411 0.0
O33 O 0.7668 0.32113 0.24065 0.0
C34 C 0.8911 0.23445 0.29483 0.0
C35 C 0.7942 0.1978 0.07969 0.0
C36 C 0.75066 0.11779 0.35092 0.0
C37 C 0.79641 0.26679 0.5379 0.0
C38 C 0.68718 0.19597 0.35117 0.0
C39 C 0.7992 0.3152 0.22375 0.0
O40 O 0.87467 0.19382 0.27433 0.0
O41 O 0.86755 0.25232 0.30722 0.0
O42 O 0.6213 0.78081 0.43297 0.0
Mg43 Mg 0.66046 0.8123 0.55471 0.0
O44 O 0.5601 0.77438 0.49279 0.0
Mg45 Mg 0.56692 0.78992 0.65246 0.0
O46 O 0.62325 0.77768 0.667 0.0
O47 O 0.68627 0.78122 0.63609 0.0
O48 O 0.57408 0.805 0.81506 0.0
O49 O 0.52688 0.71518 0.68186 0.0
Mg50 Mg 0.48507 0.76965 0.75328 0.0
O51 O 0.50909 0.8027 0.62748 0.0
O52 O 0.51734 0.808 0.87134 0.0
O53 O 0.46693 0.7029 0.75803 0.0
O54 O 0.44396 0.78562 0.69121 0.0
C55 C 0.65077 0.89177 0.59945 0.0
C56 C 0.58158 0.77074 0.42337 0.0
C57 C 0.65084 0.76503 0.68619 0.0
C58 C 0.55482 0.81273 0.8836 0.0
C59 C 0.49107 0.68922 0.72327 0.0
C60 C 0.47378 0.80558 0.62656 0.0
O61 O 0.67669 0.87805 0.57622 0.0
O62 O 0.61116 0.86516 0.62354 0.0
O63 O 0.8306 0.62504 0.76244 0.0
Mg64 Mg 0.83897 0.66495 0.8833 0.0
O65 O 0.77723 0.56545 0.82991 0.0
Mg66 Mg 0.77376 0.57282 -0.01287 0.0
O67 O 0.84227 0.63196 -0.00052 0.0
O68 O 0.89801 0.69631 0.9557 0.0
O69 O 0.7706 0.58111 0.14928 0.0
O70 O 0.80834 0.53201 -0.00043 0.0
Mg71 Mg 0.72085 0.50113 0.09496 0.0
O72 O 0.70422 0.51338 0.96186 0.0
O73 O 0.70603 0.53247 0.20264 0.0
O74 O 0.77322 0.48931 0.12121 0.0
O75 O 0.668 0.44889 0.03914 0.0
C76 C 0.75058 0.65303 0.94222 0.0
C77 C 0.80024 0.58534 0.75761 0.0
C78 C 0.88166 0.66352 0.01402 0.0
C79 C 0.7424 0.56653 0.2165 0.0
C80 C 0.80494 0.50466 0.06302 0.0
C81 C 0.67063 0.47431 0.96966 0.0
O82 O 0.78842 0.67991 0.91025 0.0
O83 O 0.74023 0.61436 0.96822 0.0
O84 O 0.18618 0.82977 0.116 0.0
Mg85 Mg 0.17678 0.84389 0.2555 0.0
O86 O 0.20268 0.77957 0.16071 0.0
Mg87 Mg 0.19709 0.76797 0.3321 0.0
O88 O 0.20154 0.83292 0.38115 0.0
O89 O 0.24666 0.87478 0.27459 0.0
O90 O 0.19143 0.75003 0.49591 0.0
O91 O 0.27239 0.80774 0.35112 0.0
Mg92 Mg 0.24244 0.70794 0.37479 0.0
O93 O 0.18977 0.70192 0.30023 0.0
O94 O 0.21766 0.70458 0.51911 0.0
O95 O 0.30211 0.76571 0.35093 0.0
O96 O 0.22503 0.6701 0.24891 0.0
C97 C 0.09839 0.74611 0.28396 0.0
C98 C 0.19643 0.80121 0.09452 0.0
C99 C 0.2374 0.86819 0.36354 0.0
C100 C 0.20024 0.72633 0.55155 0.0
C101 C 0.30593 0.80332 0.35227 0.0
C102 C 0.19405 0.67853 0.23501 0.0
O103 O 0.1124 0.78625 0.26425 0.0
O104 O 0.12369 0.73257 0.3127 0.0
O105 O 0.35894 0.20893 0.42935 0.0
Mg106 Mg 0.32361 0.18222 0.55854 0.0
O107 O 0.41922 0.21029 0.48109 0.0
Mg108 Mg 0.41834 0.2027 0.64427 0.0
O109 O 0.36428 0.21875 0.66482 0.0
O110 O 0.30143 0.21665 0.64011 0.0
O111 O 0.41115 0.19272 0.81603 0.0
O112 O 0.46332 0.27835 0.64447 0.0
Mg113 Mg 0.47732 0.21584 0.73885 0.0
O114 O 0.4765 0.18769 0.61001 0.0
O115 O 0.45565 0.16777 0.8439 0.0
O116 O 0.48649 0.27753 0.78745 0.0
O117 O 0.53659 0.22832 0.69911 0.0
C118 C 0.3309 0.10145 0.60899 0.0
C119 C 0.39698 0.21476 0.41488 0.0
C120 C 0.33775 0.23261 0.68649 0.0
C121 C 0.42566 0.17432 0.87249 0.0
C122 C 0.48197 0.2988 0.72035 0.0
C123 C 0.5172 0.20088 0.63029 0.0
O124 O 0.30613 0.1165 0.58578 0.0
O125 O 0.37104 0.12684 0.6308 0.0
H126 H 0.31841 0.22635 0.87459 0.0
H127 H 0.37688 0.31823 0.64246 0.0
H128 H 0.35861 0.36904 0.72162 0.0
H129 H 0.30786 0.37638 0.83232 0.0
H130 H 0.24319 0.28 0.05467 0.0
H131 H 0.28296 0.24274 0.00719 0.0
C132 C 0.32932 0.25862 0.84461 0.0
C133 C 0.34869 0.26876 0.75332 0.0
C134 C 0.3165 0.28643 0.88814 0.0
C135 C 0.36226 0.31019 0.71352 0.0
C136 C 0.35109 0.33887 0.75799 0.0
C137 C 0.30406 0.34834 0.87272 0.0
C138 C 0.27251 0.33046 0.94602 0.0
C139 C 0.32542 0.32584 0.84172 0.0
C140 C 0.26718 0.29388 -0.00257 0.0
C141 C 0.2897 0.27248 0.96994 0.0
H142 H 0.08325 0.29165 0.20552 0.0
H143 H 0.07064 0.38498 0.02954 0.0
H144 H 0.00257 0.36784 0.11252 0.0
H145 H 0.93882 0.31305 0.2062 0.0
H146 H 0.95003 0.21529 0.36971 0.0
H147 H 0.0267 0.2479 0.32343 0.0
C148 C 0.06656 0.30965 0.18885 0.0
C149 C 0.08142 0.33923 0.11185 0.0
C150 C 0.02665 0.29806 0.23372 0.0
C151 C 0.05973 0.3623 0.08947 0.0
C152 C 0.02048 0.35196 0.13593 0.0
C153 C 0.95868 0.30013 0.23466 0.0
C154 C 0.93903 0.26177 0.29083 0.0
C155 C 0.00231 0.31791 0.20394 0.0
C156 C 0.96464 0.24471 0.32609 0.0
C157 C 0.00836 0.2632 0.29922 0.0
H158 H 0.68001 0.07572 0.47339 0.0
H159 H 0.8059 0.09159 0.40099 0.0
H160 H 0.78724 0.0233 0.48117 0.0
H161 H 0.7318 0.95451 0.54741 0.0
H162 H 0.60552 0.93625 0.62633 0.0
H163 H 0.62868 0.01127 0.5741 0.0
C164 C 0.7039 0.06509 0.47962 0.0
C165 C 0.74426 0.08844 0.4317 0.0
C166 C 0.6929 0.02537 0.52654 0.0
C167 C 0.77499 0.07439 0.43906 0.0
C168 C 0.76412 0.03503 0.48374 0.0
C169 C 0.70933 0.9669 0.55494 0.0
C170 C 0.66647 0.93922 0.58779 0.0
C171 C 0.72257 0.00945 0.52393 0.0
C172 C 0.63838 0.95649 0.59894 0.0
C173 C 0.65158 -0.00064 0.56883 0.0
H174 H 0.66571 0.76627 0.87654 0.0
H175 H 0.61717 0.68191 0.62905 0.0
H176 H 0.63698 0.63123 0.70139 0.0
H177 H 0.68618 0.62307 0.81304 0.0
H178 H 0.74135 0.71164 0.05243 0.0
H179 H 0.69953 0.74747 0.00887 0.0
C180 C 0.65725 0.73547 0.84154 0.0
C181 C 0.6404 0.72762 0.74802 0.0
C182 C 0.67086 0.70773 0.88171 0.0
C183 C 0.62985 0.6881 0.70182 0.0
C184 C 0.64187 0.65953 0.74246 0.0
C185 C 0.68754 0.6491 0.85752 0.0
C186 C 0.71671 0.66522 0.93502 0.0
C187 C 0.66521 0.67076 0.82907 0.0
C188 C 0.7191 0.6992 -0.00799 0.0
C189 C 0.69543 0.71972 0.96679 0.0
H190 H 0.01855 0.73185 0.33926 0.0
H191 H 0.08427 0.69204 0.13582 0.0
H192 H 0.01789 0.6543 0.03914 0.0
H193 H 0.94561 0.64411 -0.00068 0.0
H194 H 0.88105 0.68672 0.19866 0.0
H195 H 0.94101 0.70941 0.3134 0.0
C196 C 0.01753 0.71337 0.27585 0.0
C197 C 0.05566 0.71413 0.24483 0.0
C198 C 0.97927 0.69195 0.22043 0.0
C199 C 0.05474 0.69094 0.1617 0.0
C200 C 0.01697 0.66974 0.106 0.0
C201 C 0.94409 0.65671 0.06969 0.0
C202 C 0.90892 0.663 0.09226 0.0
C203 C 0.97959 0.67146 0.13285 0.0
C204 C 0.90734 0.68037 0.18189 0.0
C205 C 0.942 0.69412 0.24644 0.0
H206 H 0.27512 0.05515 0.47126 0.0
H207 H 0.35096 0.04307 0.69877 0.0
H208 H 0.32516 0.96647 0.65022 0.0
H209 H 0.28432 0.90461 0.53168 0.0
H210 H 0.21151 0.92321 0.30552 0.0
H211 H 0.23346 0.99581 0.36411 0.0
C212 C 0.28551 0.03568 0.51192 0.0
C213 C 0.31442 0.05449 0.58914 0.0
C214 C 0.27145 0.99285 0.48265 0.0
C215 C 0.32856 0.02914 0.63893 0.0
C216 C 0.31383 0.98545 0.61106 0.0
C217 C 0.27257 0.92435 0.4973 0.0
C218 C 0.246 0.90841 0.41473 0.0
C219 C 0.28565 0.96705 0.53162 0.0
C220 C 0.23149 0.93448 0.36969 0.0
C221 C 0.24419 0.97617 0.40278 0.0
H222 H 0.19556 0.35865 0.61011 0.0
H223 H 0.19309 0.47595 0.68795 0.0
H224 H 0.22003 0.50653 0.52749 0.0
H225 H 0.24176 0.49834 0.36398 0.0
H226 H 0.24425 0.38085 0.28734 0.0
H227 H 0.22191 0.35263 0.45077 0.0
C228 C 0.20024 0.3906 0.59125 0.0
C229 C 0.19132 0.41461 0.65928 0.0
C230 C 0.21683 0.40829 0.50043 0.0
C231 C 0.19903 0.45664 0.63566 0.0
C232 C 0.21479 0.47423 0.54454 0.0
C233 C 0.23807 0.46687 0.38365 0.0
C234 C 0.24394 0.44128 0.31393 0.0
C235 C 0.22375 0.45028 0.47639 0.0
C236 C 0.23922 0.40068 0.33989 0.0
C237 C 0.22619 0.38447 0.43285 0.0
H238 H 0.73362 0.19333 0.95366 0.0
H239 H 0.87167 0.24527 -0.0065 0.0
H240 H 0.88641 0.27526 0.83023 0.0
H241 H 0.85902 0.28178 0.67106 0.0
H242 H 0.72081 0.22958 0.63208 0.0
H243 H 0.7068 0.20438 0.79877 0.0
C244 C 0.76679 0.21157 0.92626 0.0
C245 C 0.80156 0.21716 -0.01614 0.0
C246 C 0.77488 0.22824 0.83219 0.0
C247 C 0.84454 0.24057 0.94885 0.0
C248 C 0.85296 0.25765 0.85587 0.0
C249 C 0.82608 0.26535 0.70008 0.0
C250 C 0.79088 0.25718 0.64074 0.0
C251 C 0.81831 0.25099 0.79611 0.0
C252 C 0.74823 0.23612 0.67783 0.0
C253 C 0.7402 0.22161 0.77272 0.0
H254 H 0.62186 0.77144 0.25819 0.0
H255 H 0.50167 0.75859 0.36872 0.0
H256 H 0.4861 0.77863 0.21172 0.0
H257 H 0.50986 0.80492 0.0476 0.0
H258 H 0.63111 0.81865 0.94002 0.0
H259 H 0.6445 0.79575 0.09501 0.0
C260 C 0.59193 0.77243 0.24786 0.0
C261 C 0.56403 0.76569 0.3257 0.0
C262 C 0.58433 0.78581 0.15952 0.0
C263 C 0.52445 0.7652 0.31028 0.0
C264 C 0.51579 0.77713 0.22105 0.0
C265 C 0.53968 0.80377 0.05846 0.0
C266 C 0.56931 0.81303 -0.01777 0.0
C267 C 0.54648 0.78921 0.14647 0.0
C268 C 0.60785 0.81166 -0.00231 0.0
C269 C 0.61515 0.79783 0.08558 0.0
H270 H 0.84685 0.60557 0.59553 0.0
H271 H 0.71748 0.52304 0.71046 0.0
H272 H 0.68612 0.51305 0.55021 0.0
H273 H 0.69544 0.53511 0.38081 0.0
H274 H 0.82513 0.6227 0.27151 0.0
H275 H 0.85624 0.62589 0.42798 0.0
C276 C 0.81193 0.58473 0.58478 0.0
C277 C 0.78439 0.56604 0.6635 0.0
C278 C 0.79403 0.58182 0.49464 0.0
C279 C 0.73929 0.53787 0.64989 0.0
C280 C 0.72123 0.53299 0.55889 0.0
C281 C 0.73038 0.55552 0.39185 0.0
C282 C 0.75804 0.57851 0.31483 0.0
C283 C 0.74821 0.55658 0.48168 0.0
C284 C 0.80317 0.60507 0.33001 0.0
C285 C 0.82114 0.6062 0.41887 0.0
H286 H 0.16818 0.77161 0.64682 0.0
H287 H 0.2227 0.68774 0.69645 0.0
H288 H 0.22695 0.70332 0.86906 0.0
H289 H 0.22117 0.74651 0.00503 0.0
H290 H 0.16739 0.83072 0.94819 0.0
H291 H 0.15869 0.8105 0.78026 0.0
C292 C 0.18068 0.75632 0.69509 0.0
C293 C 0.19566 0.72908 0.65774 0.0
C294 C 0.18428 0.76638 0.79362 0.0
C295 C 0.21116 0.70917 0.7225 0.0
C296 C 0.21398 0.71836 0.82144 0.0
C297 C 0.20719 0.76003 0.95599 0.0
C298 C 0.19486 0.78994 -0.00944 0.0
C299 C 0.20176 0.74795 0.85767 0.0
C300 C 0.17756 0.8078 0.9249 0.0
C301 C 0.17215 0.79604 0.82821 0.0
H302 H 0.39988 0.15144 0.31838 0.0
H303 H 0.42532 0.28407 0.29329 0.0
H304 H 0.43828 0.28319 0.11982 0.0
H305 H 0.43407 0.24162 0.9751 0.0
H306 H 0.40729 0.10847 -0.0011 0.0
H307 H 0.40172 0.11173 0.17454 0.0
C308 C 0.40889 0.18021 0.27454 0.0
C309 C 0.41153 0.21764 0.31624 0.0
C310 C 0.41439 0.17867 0.17553 0.0
C311 C 0.42299 0.25498 0.26085 0.0
C312 C 0.43005 0.25431 0.16235 0.0
C313 C 0.42622 0.21316 0.01904 0.0
C314 C 0.41893 0.17421 0.97561 0.0
C315 C 0.42407 0.21574 0.11872 0.0
C316 C 0.41136 0.13815 0.03205 0.0
C317 C 0.40868 0.14022 0.13182 0.0
H318 H 0.15347 0.54998 0.93764 0.0
H319 H 0.14727 0.47901 0.19446 0.0
H320 H 0.12895 0.52578 0.28963 0.0
H321 H 0.14048 0.59964 0.30428 0.0
H322 H 0.1637 0.67831 0.05188 0.0
H323 H 0.14423 0.61469 0.94936 0.0
C324 C 0.14542 0.54329 0.01335 0.0
C325 C 0.15195 0.5116 0.05927 0.0
C326 C 0.13765 0.57216 0.06841 0.0
C327 C 0.14187 0.50297 0.1575 0.0
C328 C 0.13198 0.53018 0.21225 0.0
C329 C 0.13877 0.60203 0.22669 0.0
C330 C 0.15579 0.64374 0.18502 0.0
C331 C 0.13334 0.56689 0.16943 0.0
C332 C 0.15259 0.64684 0.08524 0.0
C333 C 0.14222 0.61054 0.02679 0.0
H334 H 0.66043 0.15761 0.52098 0.0
H335 H 0.61474 0.1615 0.23729 0.0
H336 H 0.54714 0.15385 0.3044 0.0
H337 H 0.5154 0.17263 0.44434 0.0
H338 H 0.56932 0.17959 0.72624 0.0
H339 H 0.6194 0.15788 0.66099 0.0
C340 C 0.63438 0.15407 0.47379 0.0
C341 C 0.64276 0.16153 0.37498 0.0
C342 C 0.59827 0.15471 0.51364 0.0
C343 C 0.60902 0.15651 0.31399 0.0
C344 C 0.57093 0.15339 0.35269 0.0
C345 C 0.53738 0.1682 0.49123 0.0
C346 C 0.54008 0.17939 0.58896 0.0
C347 C 0.56738 0.15692 0.4525 0.0
C348 C 0.56798 0.17279 0.64985 0.0
C349 C 0.59638 0.15993 0.61287 0.0
H350 H 0.3998 0.53024 0.96598 0.0
H351 H 0.30503 0.50007 0.74257 0.0
H352 H 0.36294 0.54797 0.63124 0.0
H353 H 0.431 0.61921 0.62664 0.0
H354 H 0.52083 0.65812 0.86378 0.0
H355 H 0.47559 0.58714 0.94088 0.0
C356 C 0.39242 0.53233 0.89107 0.0
C357 C 0.34857 0.51383 0.86322 0.0
C358 C 0.42519 0.56353 0.83164 0.0
C359 C 0.33872 0.5151 0.76603 0.0
C360 C 0.37179 0.54333 0.70305 0.0
C361 C 0.44171 0.61086 0.6923 0.0
C362 C 0.47843 0.64343 0.74046 0.0
C363 C 0.41396 0.57121 0.73895 0.0
C364 C 0.49252 0.63315 0.82573 0.0
C365 C 0.46635 0.59276 0.87029 0.0
H366 H 0.81105 0.3386 0.03459 0.0
H367 H 0.86803 0.3797 0.31541 0.0
H368 H 0.8842 0.45411 0.28305 0.0
H369 H 0.85665 0.49713 0.19682 0.0
H370 H 0.80555 0.45849 0.91031 0.0
H371 H 0.81389 0.3939 0.92092 0.0
C372 C 0.83005 0.36458 0.08565 0.0
C373 C 0.83612 0.35353 0.17903 0.0
C374 C 0.83886 0.4074 0.06656 0.0
C375 C 0.86201 0.38742 0.24364 0.0
C376 C 0.87034 0.42993 0.22608 0.0
C377 C 0.84981 0.47588 0.13487 0.0
C378 C 0.82949 0.48147 0.05388 0.0
C379 C 0.85505 0.43899 0.14121 0.0
C380 C 0.82093 0.45426 0.97355 0.0
C381 C 0.82529 0.4171 0.97997 0.0
H382 H 0.38623 0.82967 0.27943 0.0
H383 H 0.31853 0.85329 0.50916 0.0
H384 H 0.37882 0.87074 0.61794 0.0
H385 H 0.43465 0.85228 0.65781 0.0
H386 H 0.49682 0.81795 0.43452 0.0
H387 H 0.45698 0.83406 0.31186 0.0
C388 C 0.38621 0.84145 0.35158 0.0
C389 C 0.34782 0.83903 0.38733 0.0
C390 C 0.41964 0.8482 0.41549 0.0
C391 C 0.34781 0.85486 0.48017 0.0
C392 C 0.38195 0.86391 0.54314 0.0
C393 C 0.44044 0.84969 0.58197 0.0
C394 C 0.46624 0.83149 0.55442 0.0
C395 C 0.41566 0.85647 0.51347 0.0
C396 C 0.47551 0.83016 0.45679 0.0
C397 C 0.45259 0.8392 0.38702 0.0
H398 H 0.65731 0.45741 0.77578 0.0
H399 H 0.59533 0.46111 0.04022 0.0
H400 H 0.52357 0.41312 0.97171 0.0
H401 H 0.48298 0.35325 0.85759 0.0
H402 H 0.54277 0.3505 0.58962 0.0
H403 H 0.61043 0.41663 0.63548 0.0
C404 C 0.62798 0.44955 0.8161 0.0
C405 C 0.63103 0.46125 0.91355 0.0
C406 C 0.58656 0.42162 0.77606 0.0
C407 C 0.59316 0.45121 0.96561 0.0
C408 C 0.5522 0.42376 0.92661 0.0
C409 C 0.51004 0.36867 0.80715 0.0
C410 C 0.50899 0.34665 0.72241 0.0
C411 C 0.54886 0.406 0.83492 0.0
C412 C 0.54354 0.36686 0.65631 0.0
C413 C 0.58245 0.40426 0.68321 0.0
loop_
_geom_bond_atom_site_label_1
_geom_bond_atom_site_label_2
_geom_bond_distance
_geom_bond_site_symmetry_2
_ccdc_geom_bond_type
O0 Mg1 1.990 . S
O0 C14 1.253 . S
Mg1 O0 1.990 . S
Mg1 O4 2.180 1_556 S
Mg1 O5 2.117 . S
Mg1 O19 2.030 . S
O2 Mg3 2.072 1_556 S
O2 C14 1.260 . S
Mg3 O2 2.072 1_554 S
Mg3 O4 2.099 . S
Mg3 O6 2.079 . S
Mg3 O7 2.072 . S
Mg3 O9 2.099 . S
Mg3 O20 2.079 1_554 S
O4 Mg1 2.180 1_554 S
O4 Mg3 2.099 . S
O4 C15 1.279 . S
O5 Mg1 2.117 . S
O5 C15 1.250 1_556 S
O6 Mg3 2.079 . S
O6 C16 1.264 . S
O7 Mg3 2.072 . S
O7 C17 1.260 . S
Mg8 O9 2.180 . S
Mg8 O10 2.030 . S
Mg8 O11 1.990 . S
Mg8 O12 2.117 . S
O9 Mg3 2.099 . S
O9 Mg8 2.180 . S
O9 C18 1.279 1_554 S
O10 Mg8 2.030 . S
O10 C16 1.248 . S
O11 Mg8 1.990 . S
O11 C17 1.253 . S
O12 Mg8 2.117 . S
O12 C18 1.250 1_554 S
C13 O19 1.248 . S
C13 O20 1.264 . S
C14 O0 1.253 . S
C14 O2 1.260 . S
C15 O4 1.279 . S
C15 O5 1.250 1_554 S
C16 O6 1.264 . S
C16 O10 1.248 . S
C17 O7 1.260 . S
C17 O11 1.253 . S
C18 O9 1.279 1_556 S
C18 O12 1.250 1_556 S
O19 Mg1 2.030 . S
O19 C13 1.248 . S
O20 Mg3 2.079 1_556 S
O20 C13 1.264 . S
O21 Mg22 1.990 . S
O21 C35 1.253 . S
Mg22 O21 1.990 . S
Mg22 O25 2.180 . S
Mg22 O26 2.117 . S
Mg22 O40 2.030 . S
O23 Mg24 2.072 . S
O23 C35 1.260 . S
Mg24 O23 2.072 . S
Mg24 O25 2.099 . S
Mg24 O27 2.079 . S
Mg24 O28 2.072 . S
Mg24 O30 2.099 . S
Mg24 O41 2.079 . S
O25 Mg22 2.180 . S
O25 Mg24 2.099 . S
O25 C36 1.279 . S
O26 Mg22 2.117 . S
O26 C36 1.250 . S
O27 Mg24 2.079 . S
O27 C37 1.264 . S
O28 Mg24 2.072 . S
O28 C38 1.260 . S
Mg29 O30 2.180 . S
Mg29 O31 2.030 . S
Mg29 O32 1.990 . S
Mg29 O33 2.117 . S
O30 Mg24 2.099 . S
O30 Mg29 2.180 . S
O30 C39 1.279 . S
O31 Mg29 2.030 . S
O31 C37 1.248 . S
O32 Mg29 1.990 . S
O32 C38 1.253 . S
O33 Mg29 2.117 . S
O33 C39 1.250 . S
C34 O40 1.248 . S
C34 O41 1.264 . S
C35 O21 1.253 . S
C35 O23 1.260 . S
C36 O25 1.279 . S
C36 O26 1.250 . S
C37 O27 1.264 . S
C37 O31 1.248 . S
C38 O28 1.260 . S
C38 O32 1.253 . S
C39 O30 1.279 . S
C39 O33 1.250 . S
O40 Mg22 2.030 . S
O40 C34 1.248 . S
O41 Mg24 2.079 . S
O41 C34 1.264 . S
O42 Mg43 1.990 . S
O42 C56 1.253 . S
Mg43 O42 1.990 . S
Mg43 O46 2.180 . S
Mg43 O47 2.117 . S
Mg43 O61 2.030 . S
O44 Mg45 2.072 . S
O44 C56 1.260 . S
Mg45 O44 2.072 . S
Mg45 O46 2.099 . S
Mg45 O48 2.079 . S
Mg45 O49 2.072 . S
Mg45 O51 2.099 . S
Mg45 O62 2.079 . S
O46 Mg43 2.180 . S
O46 Mg45 2.099 . S
O46 C57 1.279 . S
O47 Mg43 2.117 . S
O47 C57 1.250 . S
O48 Mg45 2.079 . S
O48 C58 1.264 . S
O49 Mg45 2.072 . S
O49 C59 1.260 . S
Mg50 O51 2.180 . S
Mg50 O52 2.030 . S
Mg50 O53 1.990 . S
Mg50 O54 2.117 . S
O51 Mg45 2.099 . S
O51 Mg50 2.180 . S
O51 C60 1.279 . S
O52 Mg50 2.030 . S
O52 C58 1.248 . S
O53 Mg50 1.990 . S
O53 C59 1.253 . S
O54 Mg50 2.117 . S
O54 C60 1.250 . S
C55 O61 1.248 . S
C55 O62 1.264 . S
C56 O42 1.253 . S
C56 O44 1.260 . S
C57 O46 1.279 . S
C57 O47 1.250 . S
C58 O48 1.264 . S
C58 O52 1.248 . S
C59 O49 1.260 . S
C59 O53 1.253 . S
C60 O51 1.279 . S
C60 O54 1.250 . S
O61 Mg43 2.030 . S
O61 C55 1.248 . S
O62 Mg45 2.079 . S
O62 C55 1.264 . S
O63 Mg64 1.990 . S
O63 C77 1.253 . S
Mg64 O63 1.990 . S
Mg64 O67 2.180 1_556 S
Mg64 O68 2.117 . S
Mg64 O82 2.030 . S
O65 Mg66 2.072 1_556 S
O65 C77 1.260 . S
Mg66 O65 2.072 1_554 S
Mg66 O67 2.099 . S
Mg66 O69 2.079 . S
Mg66 O70 2.072 . S
Mg66 O72 2.099 . S
Mg66 O83 2.079 1_554 S
O67 Mg64 2.180 1_554 S
O67 Mg66 2.099 . S
O67 C78 1.279 . S
O68 Mg64 2.117 . S
O68 C78 1.250 1_556 S
O69 Mg66 2.079 . S
O69 C79 1.264 . S
O70 Mg66 2.072 . S
O70 C80 1.260 . S
Mg71 O72 2.180 . S
Mg71 O73 2.030 . S
Mg71 O74 1.990 . S
Mg71 O75 2.117 . S
O72 Mg66 2.099 . S
O72 Mg71 2.180 . S
O72 C81 1.279 1_554 S
O73 Mg71 2.030 . S
O73 C79 1.248 . S
O74 Mg71 1.990 . S
O74 C80 1.253 . S
O75 Mg71 2.117 . S
O75 C81 1.250 1_554 S
C76 O82 1.248 . S
C76 O83 1.264 . S
C77 O63 1.253 . S
C77 O65 1.260 . S
C78 O67 1.279 . S
C78 O68 1.250 1_554 S
C79 O69 1.264 . S
C79 O73 1.248 . S
C80 O70 1.260 . S
C80 O74 1.253 . S
C81 O72 1.279 1_556 S
C81 O75 1.250 1_556 S
O82 Mg64 2.030 . S
O82 C76 1.248 . S
O83 Mg66 2.079 1_556 S
O83 C76 1.264 . S
O84 Mg85 1.990 . S
O84 C98 1.253 . S
Mg85 O84 1.990 . S
Mg85 O88 2.180 . S
Mg85 O89 2.117 . S
Mg85 O103 2.030 . S
O86 Mg87 2.072 . S
O86 C98 1.260 . S
Mg87 O86 2.072 . S
Mg87 O88 2.099 . S
Mg87 O90 2.079 . S
Mg87 O91 2.072 . S
Mg87 O93 2.099 . S
Mg87 O104 2.079 . S
O88 Mg85 2.180 . S
O88 Mg87 2.099 . S
O88 C99 1.279 . S
O89 Mg85 2.117 . S
O89 C99 1.250 . S
O90 Mg87 2.079 . S
O90 C100 1.264 . S
O91 Mg87 2.072 . S
O91 C101 1.260 . S
Mg92 O93 2.180 . S
Mg92 O94 2.030 . S
Mg92 O95 1.990 . S
Mg92 O96 2.117 . S
O93 Mg87 2.099 . S
O93 Mg92 2.180 . S
O93 C102 1.279 . S
O94 Mg92 2.030 . S
O94 C100 1.248 . S
O95 Mg92 1.990 . S
O95 C101 1.253 . S
O96 Mg92 2.117 . S
O96 C102 1.250 . S
C97 O103 1.248 . S
C97 O104 1.264 . S
C98 O84 1.253 . S
C98 O86 1.260 . S
C99 O88 1.279 . S
C99 O89 1.250 . S
C100 O90 1.264 . S
C100 O94 1.248 . S
C101 O91 1.260 . S
C101 O95 1.253 . S
C102 O93 1.279 . S
C102 O96 1.250 . S
O103 Mg85 2.030 . S
O103 C97 1.248 . S
O104 Mg87 2.079 . S
O104 C97 1.264 . S
O105 Mg106 1.990 . S
O105 C119 1.253 . S
Mg106 O105 1.990 . S
Mg106 O109 2.180 . S
Mg106 O110 2.117 . S
Mg106 O124 2.030 . S
O107 Mg108 2.072 . S
O107 C119 1.260 . S
Mg108 O107 2.072 . S
Mg108 O109 2.099 . S
Mg108 O111 2.079 . S
Mg108 O112 2.072 . S
Mg108 O114 2.099 . S
Mg108 O125 2.079 . S
O109 Mg106 2.180 . S
O109 Mg108 2.099 . S
O109 C120 1.279 . S
O110 Mg106 2.117 . S
O110 C120 1.250 . S
O111 Mg108 2.079 . S
O111 C121 1.264 . S
O112 Mg108 2.072 . S
O112 C122 1.260 . S
Mg113 O114 2.180 . S
Mg113 O115 2.030 . S
Mg113 O116 1.990 . S
Mg113 O117 2.117 . S
O114 Mg108 2.099 . S
O114 Mg113 2.180 . S
O114 C123 1.279 . S
O115 Mg113 2.030 . S
O115 C121 1.248 . S
O116 Mg113 1.990 . S
O116 C122 1.253 . S
O117 Mg113 2.117 . S
O117 C123 1.250 . S
C118 O124 1.248 . S
C118 O125 1.264 . S
C119 O105 1.253 . S
C119 O107 1.260 . S
C120 O109 1.279 . S
C120 O110 1.250 . S
C121 O111 1.264 . S
C121 O115 1.248 . S
C122 O112 1.260 . S
C122 O116 1.253 . S
C123 O114 1.279 . S
C123 O117 1.250 . S
O124 Mg106 2.030 . S
O124 C118 1.248 . S
O125 Mg108 2.079 . S
O125 C118 1.264 . S
H126 C132 0.930 . S
H127 C135 0.930 . S
H128 C136 0.930 . S
H129 C137 0.930 . S
H130 C140 0.930 1_554 S
H131 C141 0.930 . S
C132 H126 0.930 . S
C132 C133 1.355 . S
C132 C134 1.415 . S
C133 C132 1.355 . S
C133 C135 1.419 . S
C134 C132 1.415 . S
C134 C139 1.425 . S
C134 C141 1.409 . S
C135 H127 0.930 . S
C135 C133 1.419 . S
C135 C136 1.362 . S
C136 H128 0.930 . S
C136 C135 1.362 . S
C136 C139 1.409 . S
C137 H129 0.930 . S
C137 C138 1.355 . S
C137 C139 1.415 . S
C138 C137 1.355 . S
C138 C140 1.419 . S
C139 C134 1.425 . S
C139 C136 1.409 . S
C139 C137 1.415 . S
C140 H130 0.930 1_556 S
C140 C138 1.419 . S
C140 C141 1.362 . S
C141 H131 0.930 . S
C141 C134 1.409 . S
C141 C140 1.362 . S
H142 C148 0.930 . S
H143 C151 0.930 . S
H144 C152 0.930 . S
H145 C153 0.930 . S
H146 C156 0.930 . S
H147 C157 0.930 . S
C148 H142 0.930 . S
C148 C149 1.355 . S
C148 C150 1.415 . S
C149 C148 1.355 . S
C149 C151 1.419 . S
C150 C148 1.415 . S
C150 C155 1.435 . S
C150 C157 1.409 . S
C151 H143 0.930 . S
C151 C149 1.419 . S
C151 C152 1.362 . S
C152 H144 0.930 . S
C152 C151 1.362 . S
C152 C155 1.410 . S
C153 H145 0.930 . S
C153 C154 1.355 . S
C153 C155 1.404 1_655 S
C154 C153 1.355 . S
C154 C156 1.419 . S
C155 C150 1.435 . S
C155 C152 1.410 . S
C155 C153 1.404 1_455 S
C156 H146 0.930 . S
C156 C154 1.419 . S
C156 C157 1.362 1_655 S
C157 H147 0.930 . S
C157 C150 1.409 . S
C157 C156 1.362 1_455 S
H158 C164 0.930 . S
H159 C167 0.930 . S
H160 C168 0.930 . S
H161 C169 0.930 . S
H162 C172 0.930 . S
H163 C173 0.930 . S
C164 H158 0.930 . S
C164 C165 1.355 . S
C164 C166 1.415 . S
C165 C164 1.355 . S
C165 C167 1.419 . S
C166 C164 1.415 . S
C166 C171 1.412 1_545 S
C166 C173 1.409 . S
C167 H159 0.930 . S
C167 C165 1.419 . S
C167 C168 1.362 . S
C168 H160 0.930 . S
C168 C167 1.362 . S
C168 C171 1.408 1_545 S
C169 H161 0.930 . S
C169 C170 1.355 . S
C169 C171 1.429 . S
C170 C169 1.355 . S
C170 C172 1.419 . S
C171 C166 1.412 1_565 S
C171 C168 1.408 1_565 S
C171 C169 1.429 . S
C172 H162 0.930 . S
C172 C170 1.419 . S
C172 C173 1.362 1_565 S
C173 H163 0.930 . S
C173 C166 1.409 . S
C173 C172 1.362 1_545 S
H174 C180 0.930 . S
H175 C183 0.930 . S
H176 C184 0.930 . S
H177 C185 0.930 . S
H178 C188 0.930 1_554 S
H179 C189 0.930 1_554 S
C180 H174 0.930 . S
C180 C181 1.355 . S
C180 C182 1.415 . S
C181 C180 1.355 . S
C181 C183 1.419 . S
C182 C180 1.415 . S
C182 C187 1.425 . S
C182 C189 1.409 . S
C183 H175 0.930 . S
C183 C181 1.419 . S
C183 C184 1.362 . S
C184 H176 0.930 . S
C184 C183 1.362 . S
C184 C187 1.409 . S
C185 H177 0.930 . S
C185 C186 1.355 . S
C185 C187 1.415 . S
C186 C185 1.355 . S
C186 C188 1.419 . S
C187 C182 1.425 . S
C187 C184 1.409 . S
C187 C185 1.415 . S
C188 H178 0.930 1_556 S
C188 C186 1.419 . S
C188 C189 1.362 . S
C189 H179 0.930 1_556 S
C189 C182 1.409 . S
C189 C188 1.362 . S
H190 C196 0.930 . S
H191 C199 0.930 . S
H192 C200 0.930 . S
H193 C201 0.930 1_556 S
H194 C204 0.930 . S
H195 C205 0.930 . S
C196 H190 0.930 . S
C196 C197 1.355 . S
C196 C198 1.415 1_455 S
C197 C196 1.355 . S
C197 C199 1.419 . S
C198 C196 1.415 1_655 S
C198 C203 1.425 . S
C198 C205 1.409 . S
C199 H191 0.930 . S
C199 C197 1.419 . S
C199 C200 1.362 . S
C200 H192 0.930 . S
C200 C199 1.362 . S
C200 C203 1.409 1_455 S
C201 H193 0.930 1_554 S
C201 C202 1.355 . S
C201 C203 1.415 . S
C202 C201 1.355 . S
C202 C204 1.419 . S
C203 C198 1.425 . S
C203 C200 1.409 1_655 S
C203 C201 1.415 . S
C204 H194 0.930 . S
C204 C202 1.419 . S
C204 C205 1.362 . S
C205 H195 0.930 . S
C205 C198 1.409 . S
C205 C204 1.362 . S
H206 C212 0.930 . S
H207 C215 0.930 . S
H208 C216 0.930 . S
H209 C217 0.930 . S
H210 C220 0.930 . S
H211 C221 0.930 1_545 S
C212 H206 0.930 . S
C212 C213 1.355 . S
C212 C214 1.415 . S
C213 C212 1.355 . S
C213 C215 1.419 . S
C214 C212 1.415 . S
C214 C219 1.425 1_545 S
C214 C221 1.409 1_545 S
C215 H207 0.930 . S
C215 C213 1.419 . S
C215 C216 1.362 1_545 S
C216 H208 0.930 . S
C216 C215 1.362 1_565 S
C216 C219 1.409 . S
C217 H209 0.930 . S
C217 C218 1.355 . S
C217 C219 1.415 . S
C218 C217 1.355 . S
C218 C220 1.419 . S
C219 C214 1.425 1_565 S
C219 C216 1.409 . S
C219 C217 1.415 . S
C220 H210 0.930 . S
C220 C218 1.419 . S
C220 C221 1.362 . S
C221 H211 0.930 1_565 S
C221 C214 1.409 1_565 S
C221 C220 1.362 . S
H222 C228 0.930 . S
H223 C231 0.930 . S
H224 C232 0.930 . S
H225 C233 0.930 . S
H226 C236 0.930 . S
H227 C237 0.930 . S
C228 H222 0.930 . S
C228 C229 1.355 . S
C228 C230 1.415 . S
C229 C228 1.355 . S
C229 C231 1.419 . S
C230 C228 1.415 . S
C230 C235 1.425 . S
C230 C237 1.409 . S
C231 H223 0.930 . S
C231 C229 1.419 . S
C231 C232 1.362 . S
C232 H224 0.930 . S
C232 C231 1.362 . S
C232 C235 1.409 . S
C233 H225 0.930 . S
C233 C234 1.355 . S
C233 C235 1.415 . S
C234 C233 1.355 . S
C234 C236 1.419 . S
C235 C230 1.425 . S
C235 C232 1.409 . S
C235 C233 1.415 . S
C236 H226 0.930 . S
C236 C234 1.419 . S
C236 C237 1.362 . S
C237 H227 0.930 . S
C237 C230 1.409 . S
C237 C236 1.362 . S
H238 C244 0.930 . S
H239 C247 0.930 . S
H240 C248 0.930 . S
H241 C249 0.930 . S
H242 C252 0.930 . S
H243 C253 0.930 . S
C244 H238 0.930 . S
C244 C245 1.355 1_556 S
C244 C246 1.415 . S
C245 C244 1.355 1_554 S
C245 C247 1.419 . S
C246 C244 1.415 . S
C246 C251 1.425 . S
C246 C253 1.409 . S
C247 H239 0.930 . S
C247 C245 1.419 . S
C247 C248 1.362 1_554 S
C248 H240 0.930 . S
C248 C247 1.362 1_556 S
C248 C251 1.409 . S
C249 H241 0.930 . S
C249 C250 1.355 . S
C249 C251 1.415 . S
C250 C249 1.355 . S
C250 C252 1.419 . S
C251 C246 1.425 . S
C251 C248 1.409 . S
C251 C249 1.415 . S
C252 H242 0.930 . S
C252 C250 1.419 . S
C252 C253 1.362 . S
C253 H243 0.930 . S
C253 C246 1.409 . S
C253 C252 1.362 . S
H254 C260 0.930 . S
H255 C263 0.930 . S
H256 C264 0.930 . S
H257 C265 0.930 . S
H258 C268 0.930 1_556 S
H259 C269 0.930 . S
C260 H254 0.930 . S
C260 C261 1.355 . S
C260 C262 1.415 . S
C261 C260 1.355 . S
C261 C263 1.419 . S
C262 C260 1.415 . S
C262 C267 1.425 . S
C262 C269 1.409 . S
C263 H255 0.930 . S
C263 C261 1.419 . S
C263 C264 1.362 . S
C264 H256 0.930 . S
C264 C263 1.362 . S
C264 C267 1.409 . S
C265 H257 0.930 . S
C265 C266 1.355 1_554 S
C265 C267 1.415 . S
C266 C265 1.355 1_556 S
C266 C268 1.419 1_556 S
C267 C262 1.425 . S
C267 C264 1.409 . S
C267 C265 1.415 . S
C268 H258 0.930 1_554 S
C268 C266 1.419 1_554 S
C268 C269 1.362 . S
C269 H259 0.930 . S
C269 C262 1.409 . S
C269 C268 1.362 . S
H270 C276 0.930 . S
H271 C279 0.930 . S
H272 C280 0.930 . S
H273 C281 0.930 . S
H274 C284 0.930 . S
H275 C285 0.930 . S
C276 H270 0.930 . S
C276 C277 1.355 . S
C276 C278 1.415 . S
C277 C276 1.355 . S
C277 C279 1.419 . S
C278 C276 1.415 . S
C278 C283 1.425 . S
C278 C285 1.409 . S
C279 H271 0.930 . S
C279 C277 1.419 . S
C279 C280 1.362 . S
C280 H272 0.930 . S
C280 C279 1.362 . S
C280 C283 1.409 . S
C281 H273 0.930 . S
C281 C282 1.355 . S
C281 C283 1.415 . S
C282 C281 1.355 . S
C282 C284 1.419 . S
C283 C278 1.425 . S
C283 C280 1.409 . S
C283 C281 1.415 . S
C284 H274 0.930 . S
C284 C282 1.419 . S
C284 C285 1.362 . S
C285 H275 0.930 . S
C285 C278 1.409 . S
C285 C284 1.362 . S
H286 C292 0.930 . S
H287 C295 0.930 . S
H288 C296 0.930 . S
H289 C297 0.929 1_554 S
H290 C300 0.930 1_554 S
H291 C301 0.930 . S
C292 H286 0.930 . S
C292 C293 1.355 . S
C292 C294 1.415 . S
C293 C292 1.355 . S
C293 C295 1.419 . S
C294 C292 1.415 . S
C294 C299 1.425 . S
C294 C301 1.409 . S
C295 H287 0.930 . S
C295 C293 1.419 . S
C295 C296 1.362 . S
C296 H288 0.930 . S
C296 C295 1.362 . S
C296 C299 1.409 . S
C297 H289 0.929 1_556 S
C297 C298 1.355 1_556 S
C297 C299 1.415 . S
C298 C297 1.355 1_554 S
C298 C300 1.419 1_554 S
C299 C294 1.425 . S
C299 C296 1.409 . S
C299 C297 1.415 . S
C300 H290 0.930 1_556 S
C300 C298 1.419 1_556 S
C300 C301 1.362 . S
C301 H291 0.930 . S
C301 C294 1.409 . S
C301 C300 1.362 . S
H302 C308 0.930 . S
H303 C311 0.930 . S
H304 C312 0.930 . S
H305 C313 0.930 . S
H306 C316 0.930 . S
H307 C317 0.930 . S
C308 H302 0.930 . S
C308 C309 1.355 . S
C308 C310 1.415 . S
C309 C308 1.355 . S
C309 C311 1.419 . S
C310 C308 1.415 . S
C310 C315 1.425 . S
C310 C317 1.409 . S
C311 H303 0.930 . S
C311 C309 1.419 . S
C311 C312 1.362 . S
C312 H304 0.930 . S
C312 C311 1.362 . S
C312 C315 1.409 . S
C313 H305 0.930 . S
C313 C314 1.352 1_554 S
C313 C315 1.415 . S
C314 C313 1.352 1_556 S
C314 C316 1.417 1_556 S
C315 C310 1.425 . S
C315 C312 1.409 . S
C315 C313 1.415 . S
C316 H306 0.930 . S
C316 C314 1.417 1_554 S
C316 C317 1.362 . S
C317 H307 0.930 . S
C317 C310 1.409 . S
C317 C316 1.362 . S
H318 C324 0.930 . S
H319 C327 0.930 . S
H320 C328 0.930 . S
H321 C329 0.930 . S
H322 C332 0.930 . S
H323 C333 0.930 . S
C324 H318 0.930 . S
C324 C325 1.355 . S
C324 C326 1.415 . S
C325 C324 1.355 . S
C325 C327 1.419 . S
C326 C324 1.415 . S
C326 C331 1.425 . S
C326 C333 1.409 . S
C327 H319 0.930 . S
C327 C325 1.419 . S
C327 C328 1.362 . S
C328 H320 0.930 . S
C328 C327 1.362 . S
C328 C331 1.409 . S
C329 H321 0.930 . S
C329 C330 1.355 . S
C329 C331 1.415 . S
C330 C329 1.355 . S
C330 C332 1.419 . S
C331 C326 1.425 . S
C331 C328 1.409 . S
C331 C329 1.415 . S
C332 H322 0.930 . S
C332 C330 1.419 . S
C332 C333 1.362 . S
C333 H323 0.930 . S
C333 C326 1.409 . S
C333 C332 1.362 . S
H334 C340 0.930 . S
H335 C343 0.930 . S
H336 C344 0.930 . S
H337 C345 0.930 . S
H338 C348 0.930 . S
H339 C349 0.930 . S
C340 H334 0.930 . S
C340 C341 1.355 . S
C340 C342 1.415 . S
C341 C340 1.355 . S
C341 C343 1.419 . S
C342 C340 1.415 . S
C342 C347 1.425 . S
C342 C349 1.409 . S
C343 H335 0.930 . S
C343 C341 1.419 . S
C343 C344 1.362 . S
C344 H336 0.930 . S
C344 C343 1.362 . S
C344 C347 1.409 . S
C345 H337 0.930 . S
C345 C346 1.355 . S
C345 C347 1.415 . S
C346 C345 1.355 . S
C346 C348 1.419 . S
C347 C342 1.425 . S
C347 C344 1.409 . S
C347 C345 1.415 . S
C348 H338 0.930 . S
C348 C346 1.419 . S
C348 C349 1.362 . S
C349 H339 0.930 . S
C349 C342 1.409 . S
C349 C348 1.362 . S
H350 C356 0.930 1_554 S
H351 C359 0.930 . S
H352 C360 0.930 . S
H353 C361 0.930 . S
H354 C364 0.930 . S
H355 C365 0.930 1_554 S
C356 H350 0.930 1_556 S
C356 C357 1.355 . S
C356 C358 1.415 . S
C357 C356 1.355 . S
C357 C359 1.419 . S
C358 C356 1.415 . S
C358 C363 1.425 . S
C358 C365 1.409 . S
C359 H351 0.930 . S
C359 C357 1.419 . S
C359 C360 1.362 . S
C360 H352 0.930 . S
C360 C359 1.362 . S
C360 C363 1.409 . S
C361 H353 0.930 . S
C361 C362 1.355 . S
C361 C363 1.415 . S
C362 C361 1.355 . S
C362 C364 1.419 . S
C363 C358 1.425 . S
C363 C360 1.409 . S
C363 C361 1.415 . S
C364 H354 0.930 . S
C364 C362 1.419 . S
C364 C365 1.362 . S
C365 H355 0.930 1_556 S
C365 C358 1.409 . S
C365 C364 1.362 . S
H366 C372 0.930 . S
H367 C375 0.930 . S
H368 C376 0.930 . S
H369 C377 0.930 . S
H370 C380 0.930 1_556 S
H371 C381 0.930 1_556 S
C372 H366 0.930 . S
C372 C373 1.355 . S
C372 C374 1.415 . S
C373 C372 1.355 . S
C373 C375 1.419 . S
C374 C372 1.415 . S
C374 C379 1.425 . S
C374 C381 1.409 . S
C375 H367 0.930 . S
C375 C373 1.419 . S
C375 C376 1.362 . S
C376 H368 0.930 . S
C376 C375 1.362 . S
C376 C379 1.409 . S
C377 H369 0.930 . S
C377 C378 1.355 . S
C377 C379 1.415 . S
C378 C377 1.355 . S
C378 C380 1.419 . S
C379 C374 1.425 . S
C379 C376 1.409 . S
C379 C377 1.415 . S
C380 H370 0.930 1_554 S
C380 C378 1.419 . S
C380 C381 1.362 . S
C381 H371 0.930 1_554 S
C381 C374 1.409 . S
C381 C380 1.362 . S
H382 C388 0.930 . S
H383 C391 0.930 . S
H384 C392 0.930 . S
H385 C393 0.930 . S
H386 C396 0.930 . S
H387 C397 0.930 . S
C388 H382 0.930 . S
C388 C389 1.355 . S
C388 C390 1.415 . S
C389 C388 1.355 . S
C389 C391 1.419 . S
C390 C388 1.415 . S
C390 C395 1.425 . S
C390 C397 1.409 . S
C391 H383 0.930 . S
C391 C389 1.419 . S
C391 C392 1.362 . S
C392 H384 0.930 . S
C392 C391 1.362 . S
C392 C395 1.409 . S
C393 H385 0.930 . S
C393 C394 1.355 . S
C393 C395 1.415 . S
C394 C393 1.355 . S
C394 C396 1.419 . S
C395 C390 1.425 . S
C395 C392 1.409 . S
C395 C393 1.415 . S
C396 H386 0.930 . S
C396 C394 1.419 . S
C396 C397 1.362 . S
C397 H387 0.930 . S
C397 C390 1.409 . S
C397 C396 1.362 . S
H398 C404 0.930 . S
H399 C407 0.930 1_554 S
H400 C408 0.930 1_554 S
H401 C409 0.930 . S
H402 C412 0.930 . S
H403 C413 0.930 . S
C404 H398 0.930 . S
C404 C405 1.355 . S
C404 C406 1.415 . S
C405 C404 1.355 . S
C405 C407 1.419 . S
C406 C404 1.415 . S
C406 C411 1.425 . S
C406 C413 1.409 . S
C407 H399 0.930 1_556 S
C407 C405 1.419 . S
C407 C408 1.362 . S
C408 H400 0.930 1_556 S
C408 C407 1.362 . S
C408 C411 1.409 . S
C409 H401 0.930 . S
C409 C410 1.355 . S
C409 C411 1.415 . S
C410 C409 1.355 . S
C410 C412 1.419 . S
C411 C406 1.425 . S
C411 C408 1.409 . S
C411 C409 1.415 . S
C412 H402 0.930 . S
C412 C410 1.419 . S
C412 C413 1.362 . S
C413 H403 0.930 . S
C413 C406 1.409 . S
C413 C412 1.362 . S
C133 C120 1.340 . S
C138 C13 1.476 . S
C149 C15 1.365 . S
C154 C34 1.462 . S
C165 C36 1.333 . S
C170 C55 1.477 . S
C181 C57 1.331 . S
C186 C76 1.480 . S
C197 C97 1.449 . S
C202 C78 1.380 . S
C213 C118 1.482 . S
C218 C99 1.327 . S
C229 C14 1.261 . S
C234 C16 1.255 . S
C245 C35 1.197 . S
C250 C37 1.174 . S
C261 C56 1.242 . S
C266 C58 1.216 . S
C277 C77 1.234 . S
C282 C79 1.206 . S
C293 C100 1.174 . S
C298 C98 1.195 . S
C309 C119 1.249 . S
C314 C121 1.257 . S
C325 C17 1.311 . S
C330 C102 1.308 . S
C341 C38 1.391 . S
C346 C123 1.160 . S
C357 C18 1.264 . S
C362 C59 1.369 . S
C373 C39 1.214 . S
C378 C80 1.316 . S
C389 C101 1.320 . S
C394 C60 1.306 . S
C405 C81 1.208 . S
C410 C122 1.320 . S
