# Generated by pormake.
# Topology wli, (5)-cn, num edge types: 1
# Building blocks:
#     Node 0, Type 0, BuildingBlock: XOMCOT_clean_sbu_1, # of connection points: 5
#     Node 1, Type 0, BuildingBlock: XOMCOT_clean_sbu_1, # of connection points: 5
#     Node 2, Type 0, BuildingBlock: XOMCOT_clean_sbu_1, # of connection points: 5
#     Node 3, Type 0, BuildingBlock: XOMCOT_clean_sbu_1, # of connection points: 5
#     Node 4, Type 0, BuildingBlock: XOMCOT_clean_sbu_1, # of connection points: 5
#     Node 5, Type 0, BuildingBlock: XOMCOT_clean_sbu_1, # of connection points: 5
#     Edge 6, Type (0, 0), BuildingBlock: XIVTED_clean_linker_0, # of connection points: 2
#     Edge 7, Type (0, 0), BuildingBlock: XIVTED_clean_linker_0, # of connection points: 2
#     Edge 8, Type (0, 0), BuildingBlock: XIVTED_clean_linker_0, # of connection points: 2
#     Edge 9, Type (0, 0), BuildingBlock: XIVTED_clean_linker_0, # of connection points: 2
#     Edge 10, Type (0, 0), BuildingBlock: XIVTED_clean_linker_0, # of connection points: 2
#     Edge 11, Type (0, 0), BuildingBlock: XIVTED_clean_linker_0, # of connection points: 2
#     Edge 12, Type (0, 0), BuildingBlock: XIVTED_clean_linker_0, # of connection points: 2
#     Edge 13, Type (0, 0), BuildingBlock: XIVTED_clean_linker_0, # of connection points: 2
#     Edge 14, Type (0, 0), BuildingBlock: XIVTED_clean_linker_0, # of connection points: 2
#     Edge 15, Type (0, 0), BuildingBlock: XIVTED_clean_linker_0, # of connection points: 2
#     Edge 16, Type (0, 0), BuildingBlock: XIVTED_clean_linker_0, # of connection points: 2
#     Edge 17, Type (0, 0), BuildingBlock: XIVTED_clean_linker_0, # of connection points: 2
#     Edge 18, Type (0, 0), BuildingBlock: XIVTED_clean_linker_0, # of connection points: 2
#     Edge 19, Type (0, 0), BuildingBlock: XIVTED_clean_linker_0, # of connection points: 2
#     Edge 20, Type (0, 0), BuildingBlock: XIVTED_clean_linker_0, # of connection points: 2
# Relax obj value: 0.114
# Max RMSD: 0.138
# Mean RMSD: 0.138
data_MOF--net-wli--node1-XOMCOT_clean_sbu_1--edge1-XIVTED_clean_linker_0
_symmetry_space_group_name_H-M    P1
_symmetry_Int_Tables_number       1
_symmetry_cell_setting            triclinic
loop_
_symmetry_equiv_pos_as_xyz
'x, y, z'
_cell_length_a     36.077067
_cell_length_b     36.100045
_cell_length_c     27.264498
_cell_angle_alpha  89.840981
_cell_angle_beta   89.893063
_cell_angle_gamma 120.10637
loop_
_atom_site_label
_atom_site_type_symbol
_atom_site_fract_x
_atom_site_fract_y
_atom_site_fract_z
_atom_type_partial_charge
C0 C 0.21297 0.48797 0.03375 0.0
C1 C 0.24218 0.52205 0.00594 0.0
N2 N 0.2818 0.52956 0.01686 0.0
N3 N 0.23388 0.47354 0.06172 0.0
C4 C 0.27573 0.49956 0.05083 0.0
H5 H 0.17873 0.47528 0.03446 0.0
Co6 Co 0.20933 0.43194 0.11048 0.0
C7 C 0.24677 0.37597 0.09816 0.0
O8 O 0.20855 0.34387 0.10916 0.0
N9 N 0.18419 0.3912 0.16235 0.0
C10 C 0.17951 0.35968 0.23445 0.0
C11 C 0.20668 0.38466 0.19755 0.0
C12 C 0.14345 0.37085 0.17991 0.0
N13 N 0.1397 0.35127 0.22349 0.0
O14 O 0.24461 0.47394 0.15784 0.0
H15 H 0.24118 0.39909 0.19767 0.0
H16 H 0.11721 0.37212 0.1629 0.0
O17 O 0.25288 0.41423 0.09791 0.0
C18 C 0.22076 0.4869 0.17674 0.0
O19 O 0.18088 0.4695 0.16179 0.0
N20 N 0.17181 0.39328 0.06334 0.0
C21 C 0.11357 0.3525 0.98753 0.0
C22 C 0.15463 0.35756 0.98535 0.0
C23 C 0.18378 0.37924 0.02298 0.0
C24 C 0.13208 0.38895 0.06536 0.0
C25 C 0.10226 0.3681 0.02837 0.0
H26 H 0.21658 0.3873 0.01746 0.0
H27 H 0.12467 0.40509 0.09365 0.0
H28 H 0.30128 0.49759 0.06912 0.0
H29 H 0.23466 0.54 0.97996 0.0
H30 H 0.18886 0.35085 0.26824 0.0
H31 H 0.16514 0.34775 0.95317 0.0
H32 H 0.07134 0.36616 0.0305 0.0
C33 C 0.54625 0.73086 0.69447 0.0
C34 C 0.51214 0.72568 0.66676 0.0
N35 N 0.50348 0.75677 0.67885 0.0
N36 N 0.55935 0.7653 0.72354 0.0
C37 C 0.53264 0.78029 0.71345 0.0
H38 H 0.56016 0.7104 0.69411 0.0
Co39 Co 0.601 0.78302 0.77171 0.0
C40 C 0.65359 0.87702 0.75844 0.0
O41 O 0.68717 0.87271 0.76635 0.0
N42 N 0.6418 0.79917 0.82316 0.0
C43 C 0.67585 0.82778 0.89343 0.0
C44 C 0.65177 0.83071 0.85619 0.0
C45 C 0.65829 0.77608 0.84312 0.0
N46 N 0.67959 0.79313 0.88527 0.0
O47 O 0.55832 0.77297 0.8201 0.0
H48 H 0.64006 0.85301 0.8551 0.0
H49 H 0.65238 0.74564 0.82938 0.0
O50 O 0.61592 0.84384 0.76084 0.0
C51 C 0.54525 0.73505 0.83586 0.0
O52 O 0.56273 0.71374 0.81748 0.0
N53 N 0.6408 0.78782 0.72327 0.0
C54 C 0.68819 0.77982 0.64677 0.0
C55 C 0.6756 0.81078 0.64469 0.0
C56 C 0.65082 0.81333 0.68249 0.0
C57 C 0.65141 0.75656 0.72487 0.0
C58 C 0.67562 0.75244 0.68766 0.0
H59 H 0.63792 0.83432 0.67737 0.0
H60 H 0.63812 0.73231 0.75298 0.0
H61 H 0.5337 0.80705 0.73251 0.0
H62 H 0.49515 0.70091 0.63982 0.0
H63 H 0.68698 0.84765 0.92584 0.0
H64 H 0.6835 0.83198 0.61338 0.0
H65 H 0.68212 0.72627 0.68967 0.0
C66 C 0.30072 0.82155 0.35533 0.0
C67 C 0.3072 0.79317 0.32827 0.0
N68 N 0.27865 0.75307 0.3431 0.0
N69 N 0.2679 0.79953 0.38672 0.0
C70 C 0.2552 0.75798 0.37861 0.0
H71 H 0.31948 0.85609 0.35313 0.0
Co72 Co 0.25031 0.82279 0.43597 0.0
C73 C 0.15605 0.77966 0.42752 0.0
O74 O 0.1599 0.8173 0.43571 0.0
N75 N 0.23441 0.84675 0.48849 0.0
C76 C 0.20665 0.85075 0.56027 0.0
C77 C 0.20438 0.82409 0.52305 0.0
C78 C 0.25614 0.8868 0.50748 0.0
N79 N 0.23948 0.89014 0.55053 0.0
O80 O 0.26167 0.7906 0.48337 0.0
H81 H 0.18359 0.78971 0.5228 0.0
H82 H 0.28536 0.91256 0.49225 0.0
O83 O 0.18963 0.77594 0.427 0.0
C84 C 0.29946 0.81577 0.49894 0.0
O85 O 0.3203 0.85494 0.48115 0.0
N86 N 0.24392 0.85734 0.3883 0.0
C87 C 0.25049 0.91191 0.31136 0.0
C88 C 0.21922 0.86833 0.31067 0.0
C89 C 0.21732 0.84141 0.34866 0.0
C90 C 0.2752 0.89933 0.38879 0.0
C91 C 0.27864 0.92726 0.35131 0.0
H92 H 0.19609 0.80745 0.34437 0.0
H93 H 0.30003 0.91061 0.41605 0.0
H94 H 0.23043 0.73202 0.39995 0.0
H95 H 0.33132 0.80163 0.30009 0.0
H96 H 0.1877 0.84131 0.59362 0.0
H97 H 0.19734 0.85464 0.28017 0.0
H98 H 0.30493 0.95999 0.35226 0.0
C99 C 0.49274 0.2066 0.97616 0.0
C100 C 0.52745 0.23563 1.00293 0.0
N101 N 0.53677 0.27545 0.98979 0.0
N102 N 0.47977 0.22787 0.94665 0.0
C103 C 0.50723 0.2697 0.95555 0.0
H104 H 0.47843 0.17215 0.97729 0.0
Co105 Co 0.43793 0.20316 0.8987 0.0
C106 C 0.38285 0.24138 0.91213 0.0
O107 O 0.3505 0.20265 0.90424 0.0
N108 N 0.3971 0.17767 0.84734 0.0
C109 C 0.36252 0.17157 0.77723 0.0
C110 C 0.38638 0.19879 0.81435 0.0
C111 C 0.38142 0.13823 0.82736 0.0
N112 N 0.35975 0.13356 0.78536 0.0
O113 O 0.47999 0.2369 0.85013 0.0
H114 H 0.39736 0.23268 0.81543 0.0
H115 H 0.3882 0.11418 0.8409 0.0
O116 O 0.42126 0.24784 0.90968 0.0
C117 C 0.49371 0.21304 0.83327 0.0
O118 O 0.47727 0.17396 0.85085 0.0
N119 N 0.39865 0.16733 0.94755 0.0
C120 C 0.35207 0.11228 0.02507 0.0
C121 C 0.36492 0.15592 0.02671 0.0
C122 C 0.38931 0.18305 0.98847 0.0
C123 C 0.38768 0.12531 0.94622 0.0
C124 C 0.36386 0.09714 0.984 0.0
H125 H 0.40239 0.21701 0.99327 0.0
H126 H 0.40029 0.11406 0.91784 0.0
H127 H 0.50651 0.29534 0.93574 0.0
H128 H 0.54452 0.22783 0.02981 0.0
H129 H 0.35083 0.17994 0.74493 0.0
H130 H 0.3575 0.16949 0.05799 0.0
H131 H 0.35702 0.06435 0.98222 0.0
C132 C 0.82715 0.29815 0.64321 0.0
C133 C 0.79858 0.30534 0.66907 0.0
N134 N 0.75851 0.27551 0.65601 0.0
N135 N 0.80532 0.26366 0.61431 0.0
C136 C 0.76366 0.25079 0.62258 0.0
H137 H 0.86171 0.31705 0.64511 0.0
Co138 Co 0.82939 0.24261 0.56954 0.0
C139 C 0.74865 0.15353 0.57732 0.0
O140 O 0.72486 0.15884 0.54483 0.0
N141 N 0.85429 0.22245 0.52408 0.0
C142 C 0.87834 0.18444 0.48538 0.0
C143 C 0.85143 0.18375 0.52176 0.0
C144 C 0.88306 0.24598 0.48882 0.0
N145 N 0.89831 0.22372 0.46471 0.0
O146 O 0.79558 0.24753 0.51853 0.0
H147 H 0.83221 0.15707 0.54594 0.0
H148 H 0.89438 0.27956 0.4826 0.0
O149 O 0.78648 0.18396 0.58628 0.0
C150 C 0.81753 0.28631 0.50391 0.0
O151 O 0.85446 0.3114 0.52524 0.0
N152 N 0.8651 0.24201 0.61858 0.0
C153 C 0.92306 0.25615 0.6933 0.0
C154 C 0.87955 0.22574 0.6992 0.0
C155 C 0.85084 0.21957 0.66153 0.0
C156 C 0.90746 0.27081 0.61181 0.0
C157 C 0.93706 0.27831 0.64868 0.0
H158 H 0.81702 0.19875 0.66817 0.0
H159 H 0.91807 0.28959 0.57845 0.0
H160 H 0.73767 0.22451 0.60335 0.0
H161 H 0.80686 0.33041 0.69574 0.0
H162 H 0.88321 0.15818 0.47548 0.0
H163 H 0.86746 0.20887 0.73367 0.0
H164 H 0.9704 0.30229 0.64299 0.0
C165 C 0.73296 0.53159 0.30825 0.0
C166 C 0.72696 0.49633 0.3344 0.0
N167 N 0.75841 0.48814 0.32227 0.0
N168 N 0.76832 0.54598 0.28014 0.0
C169 C 0.783 0.51883 0.28918 0.0
H170 H 0.71254 0.54556 0.3091 0.0
Co171 Co 0.78763 0.58995 0.2341 0.0
C172 C 0.8799 0.64418 0.25541 0.0
O173 O 0.87393 0.67688 0.24858 0.0
N174 N 0.80544 0.633 0.18459 0.0
C175 C 0.83801 0.67201 0.11783 0.0
C176 C 0.83997 0.64698 0.15472 0.0
C177 C 0.7817 0.64792 0.16273 0.0
N178 N 0.80112 0.67229 0.12281 0.0
O179 O 0.78104 0.54999 0.1841 0.0
H180 H 0.86396 0.63753 0.15754 0.0
H181 H 0.74939 0.63872 0.17332 0.0
O182 O 0.84855 0.60602 0.24823 0.0
C183 C 0.74353 0.53673 0.16712 0.0
O184 O 0.72072 0.55255 0.18559 0.0
N185 N 0.78913 0.62713 0.28423 0.0
C186 C 0.78084 0.67369 0.36133 0.0
C187 C 0.80858 0.65716 0.36514 0.0
C188 C 0.81103 0.63275 0.32706 0.0
C189 C 0.7605 0.64118 0.28096 0.0
C190 C 0.75633 0.66502 0.31854 0.0
H191 H 0.82957 0.61719 0.33293 0.0
H192 H 0.73852 0.63151 0.25079 0.0
H193 H 0.81042 0.52084 0.27048 0.0
H194 H 0.70137 0.47831 0.36039 0.0
H195 H 0.86043 0.68632 0.08769 0.0
H196 H 0.82762 0.66205 0.39767 0.0
H197 H 0.73246 0.67464 0.31495 0.0
H198 H 0.33886 0.74215 0.29466 0.0
H199 H 0.17572 0.49333 0.25174 0.0
H200 H 0.20952 0.67287 0.35125 0.0
H201 H 0.29957 0.56073 0.18159 0.0
H202 H 0.19352 0.55696 0.29944 0.0
H203 H 0.3299 0.67521 0.26194 0.0
C204 C 0.30856 0.71303 0.30028 0.0
C205 C 0.27472 0.71351 0.32551 0.0
C206 C 0.21718 0.55792 0.27417 0.0
C207 C 0.26468 0.63647 0.28873 0.0
C208 C 0.2071 0.52148 0.24711 0.0
C209 C 0.23616 0.52199 0.21256 0.0
C210 C 0.25645 0.5956 0.26618 0.0
C211 C 0.27641 0.55911 0.20809 0.0
C212 C 0.30366 0.67471 0.28185 0.0
C213 C 0.23664 0.67435 0.33245 0.0
N214 N 0.28519 0.59482 0.23409 0.0
N215 N 0.23264 0.63763 0.31397 0.0
H216 H 0.47693 0.74748 0.85474 0.0
H217 H 0.35837 0.53198 0.01494 0.0
H218 H 0.53338 0.67172 0.89806 0.0
H219 H 0.29775 0.60451 0.97363 0.0
H220 H 0.42511 0.58758 0.979 0.0
H221 H 0.41356 0.70072 0.90523 0.0
C222 C 0.47632 0.72161 0.87561 0.0
C223 C 0.51014 0.71312 0.8719 0.0
C224 C 0.39727 0.5915 0.97794 0.0
C225 C 0.43809 0.6595 0.92895 0.0
C226 C 0.35904 0.5597 0.99874 0.0
C227 C 0.32201 0.56314 0.99715 0.0
C228 C 0.39872 0.62716 0.95502 0.0
C229 C 0.32509 0.59988 0.97498 0.0
C230 C 0.44011 0.69475 0.90408 0.0
C231 C 0.50772 0.67904 0.89936 0.0
N232 N 0.36265 0.6303 0.95457 0.0
N233 N 0.47229 0.6534 0.92632 0.0
H234 H 0.28671 0.73486 0.51733 0.0
H235 H 0.50057 0.83054 0.67839 0.0
H236 H 0.36337 0.86712 0.5602 0.0
H237 H 0.42953 0.69809 0.63406 0.0
H238 H 0.44536 0.8418 0.64255 0.0
H239 H 0.33303 0.71781 0.56744 0.0
C240 C 0.31273 0.76006 0.53797 0.0
C241 C 0.32157 0.80249 0.53429 0.0
C242 C 0.44165 0.81016 0.64079 0.0
C243 C 0.37458 0.78353 0.59098 0.0
C244 C 0.47322 0.80365 0.66157 0.0
C245 C 0.47006 0.76335 0.65912 0.0
C246 C 0.40652 0.77622 0.61703 0.0
C247 C 0.43386 0.72991 0.6361 0.0
C248 C 0.3393 0.75044 0.56624 0.0
C249 C 0.35577 0.83405 0.56147 0.0
N250 N 0.40363 0.73714 0.61573 0.0
N251 N 0.3811 0.82399 0.5883 0.0
H252 H 0.50151 0.165 0.76309 0.0
H253 H 0.74568 0.33547 0.70174 0.0
H254 H 0.56496 0.29322 0.82102 0.0
H255 H 0.67957 0.20396 0.6534 0.0
H256 H 0.67867 0.32447 0.73749 0.0
H257 H 0.56421 0.18327 0.71285 0.0
C258 C 0.52859 0.19733 0.76461 0.0
C259 C 0.52828 0.22758 0.79645 0.0
C260 C 0.67886 0.2982 0.71868 0.0
C261 C 0.6009 0.24861 0.73969 0.0
C262 C 0.71724 0.3043 0.69849 0.0
C263 C 0.71868 0.27048 0.67472 0.0
C264 C 0.64155 0.25799 0.71509 0.0
C265 C 0.68033 0.23114 0.67092 0.0
C266 C 0.5645 0.20773 0.73602 0.0
C267 C 0.564 0.26906 0.79676 0.0
N268 N 0.64359 0.22599 0.6911 0.0
N269 N 0.59928 0.27824 0.76931 0.0
H270 H 0.83149 0.48361 0.32016 0.0
H271 H 0.73608 0.27208 0.48626 0.0
H272 H 0.69918 0.41376 0.36698 0.0
H273 H 0.86705 0.34499 0.43644 0.0
H274 H 0.71841 0.31712 0.43436 0.0
H275 H 0.84194 0.42743 0.3546 0.0
C276 C 0.80442 0.45635 0.3372 0.0
C277 C 0.76444 0.45393 0.34082 0.0
C278 C 0.75083 0.32269 0.43419 0.0
C279 C 0.77646 0.38916 0.38139 0.0
C280 C 0.76074 0.29674 0.46338 0.0
C281 C 0.80308 0.30514 0.4657 0.0
C282 C 0.78357 0.35693 0.40732 0.0
C283 C 0.83407 0.33779 0.43598 0.0
C284 C 0.81048 0.42418 0.35716 0.0
C285 C 0.73083 0.41766 0.36405 0.0
N286 N 0.82381 0.36265 0.40845 0.0
N287 N 0.73767 0.38691 0.38374 0.0
H288 H 0.543 0.3537 0.98671 0.0
H289 H 0.75449 0.46727 0.15153 0.0
H290 H 0.61035 0.28937 0.03447 0.0
H291 H 0.68514 0.52817 0.09985 0.0
H292 H 0.7081 0.40441 0.1009 0.0
H293 H 0.6001 0.42018 0.02052 0.0
C294 C 0.56991 0.35348 1.00385 0.0
C295 C 0.5714 0.3155 0.00797 0.0
C296 C 0.70356 0.43186 0.10011 0.0
C297 C 0.63713 0.39196 0.04767 0.0
C298 C 0.73026 0.4678 0.12861 0.0
C299 C 0.72329 0.50264 0.13008 0.0
C300 C 0.66998 0.43116 0.07304 0.0
C301 C 0.69122 0.50167 0.10018 0.0
C302 C 0.60258 0.39159 0.02342 0.0
C303 C 0.60719 0.3175 0.03123 0.0
N304 N 0.66559 0.46644 0.07332 0.0
N305 N 0.63844 0.35496 0.05047 0.0
H306 H 0.93615 0.20375 0.75544 0.0
H307 H 0.07526 0.3912 0.94179 0.0
H308 H 0.97647 0.33631 0.72702 0.0
H309 H 0.08756 0.27847 0.9354 0.0
H310 H 0.02952 0.36658 0.86944 0.0
H311 H 0.98337 0.22591 0.82763 0.0
C312 C 0.9551 0.23744 0.76433 0.0
C313 C 0.95275 0.26833 0.73526 0.0
C314 C 0.04217 0.34717 0.88384 0.0
C315 C 1.00574 0.29358 0.81747 0.0
C316 C 0.06793 0.36101 0.92531 0.0
C317 C 0.08487 0.33662 0.94461 0.0
C318 C 0.03279 0.30839 0.86176 0.0
C319 C 0.07503 0.2981 0.92143 0.0
C320 C 0.98201 0.25001 0.80522 0.0
C321 C 0.9778 0.31156 0.74815 0.0
N322 N 0.04928 0.2849 0.88123 0.0
N323 N 1.00296 0.32286 0.78854 0.0
H324 H 0.76317 0.73958 0.35824 0.0
H325 H 0.74905 0.75529 0.649 0.0
H326 H 0.78401 0.66 0.46028 0.0
H327 H 0.67747 0.78789 0.54811 0.0
H328 H 0.77781 0.73514 0.57933 0.0
H329 H 0.74676 0.77194 0.42746 0.0
C330 C 0.76448 0.72893 0.39503 0.0
C331 C 0.7747 0.6966 0.40312 0.0
C332 C 0.75612 0.74713 0.57261 0.0
C333 C 0.75701 0.73444 0.48243 0.0
C334 C 0.73953 0.75848 0.61231 0.0
C335 C 0.71029 0.77286 0.60467 0.0
C336 C 0.74384 0.75061 0.52482 0.0
C337 C 0.70013 0.77738 0.55605 0.0
C338 C 0.75535 0.74765 0.43447 0.0
C339 C 0.77692 0.68508 0.4519 0.0
N340 N 0.7167 0.76606 0.51801 0.0
N341 N 0.76802 0.70389 0.48962 0.0
H342 H 0.36415 0.13202 0.12329 0.0
H343 H 0.24105 0.89137 0.21332 0.0
H344 H 0.29076 0.02669 0.02472 0.0
H345 H 0.27553 0.99752 0.31139 0.0
H346 H 0.25884 0.93994 0.14376 0.0
H347 H 0.33232 0.0834 0.19255 0.0
C348 C 0.34079 0.09888 0.11602 0.0
C349 C 0.33027 0.08358 0.06775 0.0
C350 C 0.26201 0.95249 0.18051 0.0
C351 C 0.29457 0.02735 0.14743 0.0
C352 C 0.25156 0.92469 0.2204 0.0
C353 C 0.25693 0.94028 0.26859 0.0
C354 C 0.27856 0.99636 0.18869 0.0
C355 C 0.27166 0.98411 0.27505 0.0
C356 C 0.32281 0.07103 0.15577 0.0
C357 C 0.30051 0.03989 0.06111 0.0
N358 N 0.28241 1.01067 0.2356 0.0
N359 N 0.28405 0.01325 0.10046 0.0
H360 H 0.43526 0.31545 0.96496 0.0
H361 H 0.24652 0.30105 0.10692 0.0
H362 H 0.3068 0.23931 0.90896 0.0
H363 H 0.31829 0.42603 0.03968 0.0
H364 H 0.28807 0.27736 0.05939 0.0
H365 H 0.41092 0.3576 0.01285 0.0
C366 C 0.4024 0.30828 0.96168 0.0
C367 C 0.37293 0.27344 0.9332 0.0
C368 C 0.2953 0.31025 0.05592 0.0
C369 C 0.34523 0.32077 0.98802 0.0
C370 C 0.27163 0.32389 0.08293 0.0
C371 C 0.27848 0.36553 0.07694 0.0
C372 C 0.32655 0.33834 0.02285 0.0
C373 C 0.3119 0.39366 0.04543 0.0
C374 C 0.38863 0.33224 0.98905 0.0
C375 C 0.3306 0.2654 0.93078 0.0
N376 N 0.33446 0.37937 0.01887 0.0
N377 N 0.31791 0.2882 0.95852 0.0
H378 H 0.79387 0.12843 0.63506 0.0
H379 H 0.60024 0.89439 0.7016 0.0
H380 H 0.66576 0.0843 0.58229 0.0
H381 H 0.72545 0.95446 0.76798 0.0
H382 H 0.62077 0.96217 0.65826 0.0
H383 H 0.76745 0.06328 0.6828 0.0
C384 C 0.75998 0.10522 0.63376 0.0
C385 C 0.73201 0.11247 0.60496 0.0
C386 C 0.64346 0.9605 0.6828 0.0
C387 C 0.70119 0.03634 0.65968 0.0
C388 C 0.63165 0.92196 0.70783 0.0
C389 C 0.66125 0.91864 0.73834 0.0
C390 C 0.68513 0.99573 0.68833 0.0
C391 C 0.70165 0.95527 0.74458 0.0
C392 C 0.74483 0.06769 0.66111 0.0
C393 C 0.68854 0.08023 0.60404 0.0
N394 N 0.71238 0.9919 0.71965 0.0
N395 N 0.67443 0.04353 0.63096 0.0
H396 H 0.07972 0.76037 0.46631 0.0
H397 H 0.93733 0.61457 0.24272 0.0
H398 H 0.13553 0.72147 0.35207 0.0
H399 H 0.90793 0.69257 0.33623 0.0
H400 H 1.00367 0.63724 0.29072 0.0
H401 H 1.00947 0.71684 0.42951 0.0
C402 C 0.07693 0.74177 0.43396 0.0
C403 C 0.11345 0.74468 0.4121 0.0
C404 C 0.98224 0.6488 0.30086 0.0
C405 C 0.03295 0.69568 0.36837 0.0
C406 C 0.94446 0.63578 0.27369 0.0
C407 C 0.91737 0.65201 0.28537 0.0
C408 C 0.99204 0.67731 0.34037 0.0
C409 C 0.92804 0.67955 0.32563 0.0
C410 C 0.03683 0.71714 0.41265 0.0
C411 C 0.10801 0.71987 0.37015 0.0
N412 N 0.96427 0.69121 0.35144 0.0
N413 N 0.0685 0.69693 0.34898 0.0
H414 H 0.95411 0.19582 0.44454 0.0
H415 H 0.07395 0.36772 0.22976 0.0
H416 H 0.91864 0.28853 0.39973 0.0
H417 H 0.12051 0.28816 0.29011 0.0
H418 H 1.01313 0.33473 0.28648 0.0
H419 H 1.01132 0.22487 0.38314 0.0
C420 C 0.95806 0.22204 0.42155 0.0
C421 C 0.93144 0.23975 0.42751 0.0
C422 C 0.03656 0.32436 0.28721 0.0
C423 C 0.99735 0.27352 0.35712 0.0
C424 C 0.07117 0.34296 0.25451 0.0
C425 C 0.10247 0.33068 0.25508 0.0
C426 C 0.03296 0.29301 0.32064 0.0
C427 C 0.09742 0.29891 0.28871 0.0
C428 C 0.99098 0.23884 0.38666 0.0
C429 C 0.93864 0.27418 0.39694 0.0
N430 N 0.0634 0.2812 0.32006 0.0
N431 N 0.97084 0.28989 0.36312 0.0
H432 H 0.64751 0.70919 0.90743 0.0
H433 H 0.84461 0.74793 0.07484 0.0
H434 H 0.75171 0.83578 0.9392 0.0
H435 H 0.7186 0.63779 0.09301 0.0
H436 H 0.81518 0.77796 0.01589 0.0
H437 H 0.67725 0.67936 0.96611 0.0
C438 C 0.67689 0.73062 0.92643 0.0
C439 C 0.69736 0.77498 0.91842 0.0
C440 C 0.79398 0.7473 0.03295 0.0
C441 C 0.73151 0.74119 0.98537 0.0
C442 C 0.81076 0.73014 0.06632 0.0
C443 C 0.78393 0.69051 0.08895 0.0
C444 C 0.75021 0.72421 0.02131 0.0
C445 C 0.74024 0.6687 0.07686 0.0
C446 C 0.69362 0.71366 0.96015 0.0
C447 C 0.73497 0.80143 0.94457 0.0
N448 N 0.72478 0.68567 0.04356 0.0
N449 N 0.75104 0.78414 0.97663 0.0
H450 H 0.39453 0.08486 0.76034 0.0
H451 H 0.19474 0.91724 0.60418 0.0
H452 H 0.28581 0.10121 0.73456 0.0
H453 H 0.32299 0.94464 0.57183 0.0
H454 H 0.22407 0.9773 0.66217 0.0
H455 H 0.3653 0.02543 0.7015 0.0
C456 C 0.3643 0.07558 0.74261 0.0
C457 C 0.34237 0.09772 0.7523 0.0
C458 C 0.24577 0.97026 0.64218 0.0
C459 C 0.30879 0.02997 0.68541 0.0
C460 C 0.22907 0.93604 0.60932 0.0
C461 C 0.25655 0.92632 0.58307 0.0
C462 C 0.2902 0.99422 0.64975 0.0
C463 C 0.30084 0.95155 0.59093 0.0
C464 C 0.34786 0.04202 0.70882 0.0
C465 C 0.30364 0.08494 0.72784 0.0
N466 N 0.31631 0.98411 0.62395 0.0
N467 N 0.28785 0.05166 0.69581 0.0
loop_
_geom_bond_atom_site_label_1
_geom_bond_atom_site_label_2
_geom_bond_distance
_geom_bond_site_symmetry_2
_ccdc_geom_bond_type
C0 C1 1.351 1_554 S
C0 N3 1.368 . S
C0 H5 0.931 . S
C1 C0 1.351 1_556 S
C1 N2 1.373 . S
C1 H29 0.930 . S
N2 C1 1.373 . S
N2 C4 1.340 . S
N3 C0 1.368 . S
N3 C4 1.321 1_554 S
N3 Co6 2.135 . S
C4 N2 1.340 . S
C4 N3 1.321 1_556 S
C4 H28 0.930 . S
H5 C0 0.931 . S
Co6 N3 2.135 . S
Co6 N9 2.121 . S
Co6 O14 2.055 . S
Co6 O17 2.039 . S
Co6 N20 2.140 . S
C7 O8 1.227 . S
C7 O17 1.265 . S
O8 C7 1.227 . S
N9 Co6 2.121 . S
N9 C11 1.375 . S
N9 C12 1.313 . S
C10 C11 1.338 . S
C10 N13 1.377 . S
C10 H30 0.930 . S
C11 N9 1.375 . S
C11 C10 1.338 . S
C11 H15 0.931 . S
C12 N9 1.313 . S
C12 N13 1.344 . S
C12 H16 0.930 . S
N13 C10 1.377 . S
N13 C12 1.344 . S
O14 Co6 2.055 . S
O14 C18 1.253 . S
H15 C11 0.931 . S
H16 C12 0.930 . S
O17 Co6 2.039 . S
O17 C7 1.265 . S
C18 O14 1.253 . S
C18 O19 1.227 . S
O19 C18 1.227 . S
N20 Co6 2.140 . S
N20 C23 1.346 1_554 S
N20 C24 1.345 . S
C21 C22 1.387 . S
C21 C25 1.391 . S
C22 C21 1.387 . S
C22 C23 1.369 . S
C22 H31 0.929 . S
C23 N20 1.346 1_556 S
C23 C22 1.369 . S
C23 H26 0.928 . S
C24 N20 1.345 . S
C24 C25 1.371 1_554 S
C24 H27 0.931 . S
C25 C21 1.391 . S
C25 C24 1.371 1_556 S
C25 H32 0.928 1_556 S
H26 C23 0.928 . S
H27 C24 0.931 . S
H28 C4 0.930 . S
H29 C1 0.930 . S
H30 C10 0.930 . S
H31 C22 0.929 . S
H32 C25 0.928 1_554 S
C33 C34 1.351 . S
C33 N36 1.368 . S
C33 H38 0.931 . S
C34 C33 1.351 . S
C34 N35 1.373 . S
C34 H62 0.930 . S
N35 C34 1.373 . S
N35 C37 1.340 . S
N36 C33 1.368 . S
N36 C37 1.321 . S
N36 Co39 2.135 . S
C37 N35 1.340 . S
C37 N36 1.321 . S
C37 H61 0.930 . S
H38 C33 0.931 . S
Co39 N36 2.135 . S
Co39 N42 2.121 . S
Co39 O47 2.055 . S
Co39 O50 2.039 . S
Co39 N53 2.140 . S
C40 O41 1.227 . S
C40 O50 1.265 . S
O41 C40 1.227 . S
N42 Co39 2.121 . S
N42 C44 1.375 . S
N42 C45 1.313 . S
C43 C44 1.338 . S
C43 N46 1.377 . S
C43 H63 0.930 . S
C44 N42 1.375 . S
C44 C43 1.338 . S
C44 H48 0.931 . S
C45 N42 1.313 . S
C45 N46 1.344 . S
C45 H49 0.930 . S
N46 C43 1.377 . S
N46 C45 1.344 . S
O47 Co39 2.055 . S
O47 C51 1.253 . S
H48 C44 0.931 . S
H49 C45 0.930 . S
O50 Co39 2.039 . S
O50 C40 1.265 . S
C51 O47 1.253 . S
C51 O52 1.227 . S
O52 C51 1.227 . S
N53 Co39 2.140 . S
N53 C56 1.346 . S
N53 C57 1.345 . S
C54 C55 1.387 . S
C54 C58 1.391 . S
C55 C54 1.387 . S
C55 C56 1.369 . S
C55 H64 0.929 . S
C56 N53 1.346 . S
C56 C55 1.369 . S
C56 H59 0.928 . S
C57 N53 1.345 . S
C57 C58 1.371 . S
C57 H60 0.931 . S
C58 C54 1.391 . S
C58 C57 1.371 . S
C58 H65 0.930 . S
H59 C56 0.928 . S
H60 C57 0.931 . S
H61 C37 0.930 . S
H62 C34 0.930 . S
H63 C43 0.930 . S
H64 C55 0.929 . S
H65 C58 0.930 . S
C66 C67 1.351 . S
C66 N69 1.368 . S
C66 H71 0.931 . S
C67 C66 1.351 . S
C67 N68 1.373 . S
C67 H95 0.930 . S
N68 C67 1.373 . S
N68 C70 1.340 . S
N69 C66 1.368 . S
N69 C70 1.321 . S
N69 Co72 2.135 . S
C70 N68 1.340 . S
C70 N69 1.321 . S
C70 H94 0.930 . S
H71 C66 0.931 . S
Co72 N69 2.135 . S
Co72 N75 2.121 . S
Co72 O80 2.055 . S
Co72 O83 2.039 . S
Co72 N86 2.140 . S
C73 O74 1.227 . S
C73 O83 1.265 . S
O74 C73 1.227 . S
N75 Co72 2.121 . S
N75 C77 1.375 . S
N75 C78 1.313 . S
C76 C77 1.338 . S
C76 N79 1.377 . S
C76 H96 0.930 . S
C77 N75 1.375 . S
C77 C76 1.338 . S
C77 H81 0.931 . S
C78 N75 1.313 . S
C78 N79 1.344 . S
C78 H82 0.930 . S
N79 C76 1.377 . S
N79 C78 1.344 . S
O80 Co72 2.055 . S
O80 C84 1.253 . S
H81 C77 0.931 . S
H82 C78 0.930 . S
O83 Co72 2.039 . S
O83 C73 1.265 . S
C84 O80 1.253 . S
C84 O85 1.227 . S
O85 C84 1.227 . S
N86 Co72 2.140 . S
N86 C89 1.346 . S
N86 C90 1.345 . S
C87 C88 1.387 . S
C87 C91 1.391 . S
C88 C87 1.387 . S
C88 C89 1.369 . S
C88 H97 0.929 . S
C89 N86 1.346 . S
C89 C88 1.369 . S
C89 H92 0.928 . S
C90 N86 1.345 . S
C90 C91 1.371 . S
C90 H93 0.931 . S
C91 C87 1.391 . S
C91 C90 1.371 . S
C91 H98 0.930 . S
H92 C89 0.928 . S
H93 C90 0.931 . S
H94 C70 0.930 . S
H95 C67 0.930 . S
H96 C76 0.930 . S
H97 C88 0.929 . S
H98 C91 0.930 . S
C99 C100 1.351 1_556 S
C99 N102 1.368 . S
C99 H104 0.931 . S
C100 C99 1.351 1_554 S
C100 N101 1.373 . S
C100 H128 0.930 . S
N101 C100 1.373 . S
N101 C103 1.340 . S
N102 C99 1.368 . S
N102 C103 1.321 1_556 S
N102 Co105 2.135 . S
C103 N101 1.340 . S
C103 N102 1.321 1_554 S
C103 H127 0.930 . S
H104 C99 0.931 . S
Co105 N102 2.135 . S
Co105 N108 2.121 . S
Co105 O113 2.055 . S
Co105 O116 2.039 . S
Co105 N119 2.140 . S
C106 O107 1.227 . S
C106 O116 1.265 . S
O107 C106 1.227 . S
N108 Co105 2.121 . S
N108 C110 1.375 . S
N108 C111 1.313 . S
C109 C110 1.338 . S
C109 N112 1.377 . S
C109 H129 0.930 . S
C110 N108 1.375 . S
C110 C109 1.338 . S
C110 H114 0.931 . S
C111 N108 1.313 . S
C111 N112 1.344 . S
C111 H115 0.930 . S
N112 C109 1.377 . S
N112 C111 1.344 . S
O113 Co105 2.055 . S
O113 C117 1.253 . S
H114 C110 0.931 . S
H115 C111 0.930 . S
O116 Co105 2.039 . S
O116 C106 1.265 . S
C117 O113 1.253 . S
C117 O118 1.227 . S
O118 C117 1.227 . S
N119 Co105 2.140 . S
N119 C122 1.346 1_556 S
N119 C123 1.345 . S
C120 C121 1.387 . S
C120 C124 1.391 . S
C121 C120 1.387 . S
C121 C122 1.369 . S
C121 H130 0.929 . S
C122 N119 1.346 1_554 S
C122 C121 1.369 . S
C122 H125 0.928 . S
C123 N119 1.345 . S
C123 C124 1.371 1_556 S
C123 H126 0.931 . S
C124 C120 1.391 . S
C124 C123 1.371 1_554 S
C124 H131 0.928 1_554 S
H125 C122 0.928 . S
H126 C123 0.931 . S
H127 C103 0.930 . S
H128 C100 0.930 . S
H129 C109 0.930 . S
H130 C121 0.929 . S
H131 C124 0.928 1_556 S
C132 C133 1.351 . S
C132 N135 1.368 . S
C132 H137 0.931 . S
C133 C132 1.351 . S
C133 N134 1.373 . S
C133 H161 0.930 . S
N134 C133 1.373 . S
N134 C136 1.340 . S
N135 C132 1.368 . S
N135 C136 1.321 . S
N135 Co138 2.135 . S
C136 N134 1.340 . S
C136 N135 1.321 . S
C136 H160 0.930 . S
H137 C132 0.931 . S
Co138 N135 2.135 . S
Co138 N141 2.121 . S
Co138 O146 2.055 . S
Co138 O149 2.039 . S
Co138 N152 2.140 . S
C139 O140 1.227 . S
C139 O149 1.265 . S
O140 C139 1.227 . S
N141 Co138 2.121 . S
N141 C143 1.375 . S
N141 C144 1.313 . S
C142 C143 1.338 . S
C142 N145 1.377 . S
C142 H162 0.930 . S
C143 N141 1.375 . S
C143 C142 1.338 . S
C143 H147 0.931 . S
C144 N141 1.313 . S
C144 N145 1.344 . S
C144 H148 0.930 . S
N145 C142 1.377 . S
N145 C144 1.344 . S
O146 Co138 2.055 . S
O146 C150 1.253 . S
H147 C143 0.931 . S
H148 C144 0.930 . S
O149 Co138 2.039 . S
O149 C139 1.265 . S
C150 O146 1.253 . S
C150 O151 1.227 . S
O151 C150 1.227 . S
N152 Co138 2.140 . S
N152 C155 1.346 . S
N152 C156 1.345 . S
C153 C154 1.387 . S
C153 C157 1.391 . S
C154 C153 1.387 . S
C154 C155 1.369 . S
C154 H163 0.929 . S
C155 N152 1.346 . S
C155 C154 1.369 . S
C155 H158 0.928 . S
C156 N152 1.345 . S
C156 C157 1.371 . S
C156 H159 0.931 . S
C157 C153 1.391 . S
C157 C156 1.371 . S
C157 H164 0.930 . S
H158 C155 0.928 . S
H159 C156 0.931 . S
H160 C136 0.930 . S
H161 C133 0.930 . S
H162 C142 0.930 . S
H163 C154 0.929 . S
H164 C157 0.930 . S
C165 C166 1.351 . S
C165 N168 1.368 . S
C165 H170 0.931 . S
C166 C165 1.351 . S
C166 N167 1.373 . S
C166 H194 0.930 . S
N167 C166 1.373 . S
N167 C169 1.340 . S
N168 C165 1.368 . S
N168 C169 1.321 . S
N168 Co171 2.135 . S
C169 N167 1.340 . S
C169 N168 1.321 . S
C169 H193 0.930 . S
H170 C165 0.931 . S
Co171 N168 2.135 . S
Co171 N174 2.121 . S
Co171 O179 2.055 . S
Co171 O182 2.039 . S
Co171 N185 2.140 . S
C172 O173 1.227 . S
C172 O182 1.265 . S
O173 C172 1.227 . S
N174 Co171 2.121 . S
N174 C176 1.375 . S
N174 C177 1.313 . S
C175 C176 1.338 . S
C175 N178 1.377 . S
C175 H195 0.930 . S
C176 N174 1.375 . S
C176 C175 1.338 . S
C176 H180 0.931 . S
C177 N174 1.313 . S
C177 N178 1.344 . S
C177 H181 0.930 . S
N178 C175 1.377 . S
N178 C177 1.344 . S
O179 Co171 2.055 . S
O179 C183 1.253 . S
H180 C176 0.931 . S
H181 C177 0.930 . S
O182 Co171 2.039 . S
O182 C172 1.265 . S
C183 O179 1.253 . S
C183 O184 1.227 . S
O184 C183 1.227 . S
N185 Co171 2.140 . S
N185 C188 1.346 . S
N185 C189 1.345 . S
C186 C187 1.387 . S
C186 C190 1.391 . S
C187 C186 1.387 . S
C187 C188 1.369 . S
C187 H196 0.929 . S
C188 N185 1.346 . S
C188 C187 1.369 . S
C188 H191 0.928 . S
C189 N185 1.345 . S
C189 C190 1.371 . S
C189 H192 0.931 . S
C190 C186 1.391 . S
C190 C189 1.371 . S
C190 H197 0.930 . S
H191 C188 0.928 . S
H192 C189 0.931 . S
H193 C169 0.930 . S
H194 C166 0.930 . S
H195 C175 0.930 . S
H196 C187 0.929 . S
H197 C190 0.930 . S
H198 C204 0.930 . S
H199 C208 0.930 . S
H200 C213 0.929 . S
H201 C211 0.929 . S
H202 C206 0.929 . S
H203 C212 0.929 . S
C204 H198 0.930 . S
C204 C205 1.367 . S
C204 C212 1.378 . S
C205 C204 1.367 . S
C205 C213 1.433 . S
C206 H202 0.929 . S
C206 C208 1.378 . S
C206 C210 1.350 . S
C207 C210 1.463 . S
C207 C212 1.350 . S
C207 N215 1.427 . S
C208 H199 0.930 . S
C208 C206 1.378 . S
C208 C209 1.367 . S
C209 C208 1.367 . S
C209 C211 1.433 . S
C210 C206 1.350 . S
C210 C207 1.463 . S
C210 N214 1.427 . S
C211 H201 0.929 . S
C211 C209 1.433 . S
C211 N214 1.384 . S
C212 H203 0.929 . S
C212 C204 1.378 . S
C212 C207 1.350 . S
C213 H200 0.929 . S
C213 C205 1.433 . S
C213 N215 1.384 . S
N214 C210 1.427 . S
N214 C211 1.384 . S
N215 C207 1.427 . S
N215 C213 1.384 . S
H216 C222 0.930 . S
H217 C226 0.930 . S
H218 C231 0.929 . S
H219 C229 0.929 . S
H220 C224 0.929 . S
H221 C230 0.929 . S
C222 H216 0.930 . S
C222 C223 1.367 . S
C222 C230 1.378 . S
C223 C222 1.367 . S
C223 C231 1.433 . S
C224 H220 0.929 . S
C224 C226 1.378 . S
C224 C228 1.350 . S
C225 C228 1.463 . S
C225 C230 1.350 . S
C225 N233 1.427 . S
C226 H217 0.930 . S
C226 C224 1.378 . S
C226 C227 1.367 . S
C227 C226 1.367 . S
C227 C229 1.433 . S
C228 C224 1.350 . S
C228 C225 1.463 . S
C228 N232 1.427 . S
C229 H219 0.929 . S
C229 C227 1.433 . S
C229 N232 1.384 . S
C230 H221 0.929 . S
C230 C222 1.378 . S
C230 C225 1.350 . S
C231 H218 0.929 . S
C231 C223 1.433 . S
C231 N233 1.384 . S
N232 C228 1.427 . S
N232 C229 1.384 . S
N233 C225 1.427 . S
N233 C231 1.384 . S
H234 C240 0.930 . S
H235 C244 0.930 . S
H236 C249 0.929 . S
H237 C247 0.929 . S
H238 C242 0.929 . S
H239 C248 0.929 . S
C240 H234 0.930 . S
C240 C241 1.367 . S
C240 C248 1.378 . S
C241 C240 1.367 . S
C241 C249 1.433 . S
C242 H238 0.929 . S
C242 C244 1.378 . S
C242 C246 1.350 . S
C243 C246 1.463 . S
C243 C248 1.350 . S
C243 N251 1.427 . S
C244 H235 0.930 . S
C244 C242 1.378 . S
C244 C245 1.367 . S
C245 C244 1.367 . S
C245 C247 1.433 . S
C246 C242 1.350 . S
C246 C243 1.463 . S
C246 N250 1.427 . S
C247 H237 0.929 . S
C247 C245 1.433 . S
C247 N250 1.384 . S
C248 H239 0.929 . S
C248 C240 1.378 . S
C248 C243 1.350 . S
C249 H236 0.929 . S
C249 C241 1.433 . S
C249 N251 1.384 . S
N250 C246 1.427 . S
N250 C247 1.384 . S
N251 C243 1.427 . S
N251 C249 1.384 . S
H252 C258 0.930 . S
H253 C262 0.930 . S
H254 C267 0.929 . S
H255 C265 0.929 . S
H256 C260 0.929 . S
H257 C266 0.929 . S
C258 H252 0.930 . S
C258 C259 1.367 . S
C258 C266 1.378 . S
C259 C258 1.367 . S
C259 C267 1.433 . S
C260 H256 0.929 . S
C260 C262 1.378 . S
C260 C264 1.350 . S
C261 C264 1.463 . S
C261 C266 1.350 . S
C261 N269 1.427 . S
C262 H253 0.930 . S
C262 C260 1.378 . S
C262 C263 1.367 . S
C263 C262 1.367 . S
C263 C265 1.433 . S
C264 C260 1.350 . S
C264 C261 1.463 . S
C264 N268 1.427 . S
C265 H255 0.929 . S
C265 C263 1.433 . S
C265 N268 1.384 . S
C266 H257 0.929 . S
C266 C258 1.378 . S
C266 C261 1.350 . S
C267 H254 0.929 . S
C267 C259 1.433 . S
C267 N269 1.384 . S
N268 C264 1.427 . S
N268 C265 1.384 . S
N269 C261 1.427 . S
N269 C267 1.384 . S
H270 C276 0.930 . S
H271 C280 0.930 . S
H272 C285 0.929 . S
H273 C283 0.929 . S
H274 C278 0.929 . S
H275 C284 0.929 . S
C276 H270 0.930 . S
C276 C277 1.367 . S
C276 C284 1.378 . S
C277 C276 1.367 . S
C277 C285 1.433 . S
C278 H274 0.929 . S
C278 C280 1.378 . S
C278 C282 1.350 . S
C279 C282 1.463 . S
C279 C284 1.350 . S
C279 N287 1.427 . S
C280 H271 0.930 . S
C280 C278 1.378 . S
C280 C281 1.367 . S
C281 C280 1.367 . S
C281 C283 1.433 . S
C282 C278 1.350 . S
C282 C279 1.463 . S
C282 N286 1.427 . S
C283 H273 0.929 . S
C283 C281 1.433 . S
C283 N286 1.384 . S
C284 H275 0.929 . S
C284 C276 1.378 . S
C284 C279 1.350 . S
C285 H272 0.929 . S
C285 C277 1.433 . S
C285 N287 1.384 . S
N286 C282 1.427 . S
N286 C283 1.384 . S
N287 C279 1.427 . S
N287 C285 1.384 . S
H288 C294 0.930 . S
H289 C298 0.930 . S
H290 C303 0.929 . S
H291 C301 0.929 . S
H292 C296 0.929 . S
H293 C302 0.929 . S
C294 H288 0.930 . S
C294 C295 1.367 . S
C294 C302 1.378 . S
C295 C294 1.367 . S
C295 C303 1.433 . S
C296 H292 0.929 . S
C296 C298 1.378 . S
C296 C300 1.350 . S
C297 C300 1.463 . S
C297 C302 1.350 . S
C297 N305 1.427 . S
C298 H289 0.930 . S
C298 C296 1.378 . S
C298 C299 1.367 . S
C299 C298 1.367 . S
C299 C301 1.433 . S
C300 C296 1.350 . S
C300 C297 1.463 . S
C300 N304 1.427 . S
C301 H291 0.929 . S
C301 C299 1.433 . S
C301 N304 1.384 . S
C302 H293 0.929 . S
C302 C294 1.378 . S
C302 C297 1.350 . S
C303 H290 0.929 . S
C303 C295 1.433 . S
C303 N305 1.384 . S
N304 C300 1.427 . S
N304 C301 1.384 . S
N305 C297 1.427 . S
N305 C303 1.384 . S
H306 C312 0.930 . S
H307 C316 0.930 . S
H308 C321 0.929 . S
H309 C319 0.929 . S
H310 C314 0.929 . S
H311 C320 0.929 . S
C312 H306 0.930 . S
C312 C313 1.367 . S
C312 C320 1.378 . S
C313 C312 1.367 . S
C313 C321 1.433 . S
C314 H310 0.929 . S
C314 C316 1.378 . S
C314 C318 1.350 . S
C315 C318 1.463 1_655 S
C315 C320 1.350 . S
C315 N323 1.427 . S
C316 H307 0.930 . S
C316 C314 1.378 . S
C316 C317 1.367 . S
C317 C316 1.367 . S
C317 C319 1.433 . S
C318 C314 1.350 . S
C318 C315 1.463 1_455 S
C318 N322 1.427 . S
C319 H309 0.929 . S
C319 C317 1.433 . S
C319 N322 1.384 . S
C320 H311 0.929 . S
C320 C312 1.378 . S
C320 C315 1.350 . S
C321 H308 0.929 . S
C321 C313 1.433 . S
C321 N323 1.384 . S
N322 C318 1.427 . S
N322 C319 1.384 . S
N323 C315 1.427 . S
N323 C321 1.384 . S
H324 C330 0.930 . S
H325 C334 0.930 . S
H326 C339 0.929 . S
H327 C337 0.929 . S
H328 C332 0.929 . S
H329 C338 0.929 . S
C330 H324 0.930 . S
C330 C331 1.367 . S
C330 C338 1.378 . S
C331 C330 1.367 . S
C331 C339 1.433 . S
C332 H328 0.929 . S
C332 C334 1.378 . S
C332 C336 1.350 . S
C333 C336 1.463 . S
C333 C338 1.350 . S
C333 N341 1.427 . S
C334 H325 0.930 . S
C334 C332 1.378 . S
C334 C335 1.367 . S
C335 C334 1.367 . S
C335 C337 1.433 . S
C336 C332 1.350 . S
C336 C333 1.463 . S
C336 N340 1.427 . S
C337 H327 0.929 . S
C337 C335 1.433 . S
C337 N340 1.384 . S
C338 H329 0.929 . S
C338 C330 1.378 . S
C338 C333 1.350 . S
C339 H326 0.929 . S
C339 C331 1.433 . S
C339 N341 1.384 . S
N340 C336 1.427 . S
N340 C337 1.384 . S
N341 C333 1.427 . S
N341 C339 1.384 . S
H342 C348 0.930 . S
H343 C352 0.930 . S
H344 C357 0.929 . S
H345 C355 0.929 . S
H346 C350 0.929 . S
H347 C356 0.929 . S
C348 H342 0.930 . S
C348 C349 1.367 . S
C348 C356 1.378 . S
C349 C348 1.367 . S
C349 C357 1.433 . S
C350 H346 0.929 . S
C350 C352 1.378 . S
C350 C354 1.350 . S
C351 C354 1.463 1_545 S
C351 C356 1.350 . S
C351 N359 1.429 . S
C352 H343 0.930 . S
C352 C350 1.378 . S
C352 C353 1.367 . S
C353 C352 1.367 . S
C353 C355 1.433 . S
C354 C350 1.350 . S
C354 C351 1.463 1_565 S
C354 N358 1.429 . S
C355 H345 0.929 . S
C355 C353 1.433 . S
C355 N358 1.388 . S
C356 H347 0.929 . S
C356 C348 1.378 . S
C356 C351 1.350 . S
C357 H344 0.929 . S
C357 C349 1.433 . S
C357 N359 1.388 . S
N358 C354 1.429 . S
N358 C355 1.388 . S
N359 C351 1.429 . S
N359 C357 1.388 . S
H360 C366 0.930 . S
H361 C370 0.930 . S
H362 C375 0.929 . S
H363 C373 0.929 . S
H364 C368 0.929 . S
H365 C374 0.929 . S
C366 H360 0.930 . S
C366 C367 1.367 . S
C366 C374 1.378 . S
C367 C366 1.367 . S
C367 C375 1.433 . S
C368 H364 0.929 . S
C368 C370 1.378 . S
C368 C372 1.350 . S
C369 C372 1.463 1_556 S
C369 C374 1.350 . S
C369 N377 1.427 . S
C370 H361 0.930 . S
C370 C368 1.378 . S
C370 C371 1.367 . S
C371 C370 1.367 . S
C371 C373 1.433 . S
C372 C368 1.350 . S
C372 C369 1.463 1_554 S
C372 N376 1.427 . S
C373 H363 0.929 . S
C373 C371 1.433 . S
C373 N376 1.384 . S
C374 H365 0.929 . S
C374 C366 1.378 . S
C374 C369 1.350 . S
C375 H362 0.929 . S
C375 C367 1.433 . S
C375 N377 1.384 . S
N376 C372 1.427 . S
N376 C373 1.384 . S
N377 C369 1.427 . S
N377 C375 1.384 . S
H378 C384 0.930 . S
H379 C388 0.930 . S
H380 C393 0.929 . S
H381 C391 0.929 . S
H382 C386 0.929 . S
H383 C392 0.929 . S
C384 H378 0.930 . S
C384 C385 1.367 . S
C384 C392 1.378 . S
C385 C384 1.367 . S
C385 C393 1.433 . S
C386 H382 0.929 . S
C386 C388 1.378 . S
C386 C390 1.350 . S
C387 C390 1.463 1_545 S
C387 C392 1.350 . S
C387 N395 1.427 . S
C388 H379 0.930 . S
C388 C386 1.378 . S
C388 C389 1.367 . S
C389 C388 1.367 . S
C389 C391 1.433 . S
C390 C386 1.350 . S
C390 C387 1.463 1_565 S
C390 N394 1.427 . S
C391 H381 0.929 . S
C391 C389 1.433 . S
C391 N394 1.384 . S
C392 H383 0.929 . S
C392 C384 1.378 . S
C392 C387 1.350 . S
C393 H380 0.929 . S
C393 C385 1.433 . S
C393 N395 1.384 . S
N394 C390 1.427 . S
N394 C391 1.384 . S
N395 C387 1.427 . S
N395 C393 1.384 . S
H396 C402 0.930 . S
H397 C406 0.930 . S
H398 C411 0.929 . S
H399 C409 0.929 . S
H400 C404 0.929 . S
H401 C410 0.929 . S
C402 H396 0.930 . S
C402 C403 1.367 . S
C402 C410 1.378 . S
C403 C402 1.367 . S
C403 C411 1.433 . S
C404 H400 0.929 . S
C404 C406 1.378 . S
C404 C408 1.350 . S
C405 C408 1.463 1_455 S
C405 C410 1.350 . S
C405 N413 1.427 . S
C406 H397 0.930 . S
C406 C404 1.378 . S
C406 C407 1.367 . S
C407 C406 1.367 . S
C407 C409 1.433 . S
C408 C404 1.350 . S
C408 C405 1.463 1_655 S
C408 N412 1.427 . S
C409 H399 0.929 . S
C409 C407 1.433 . S
C409 N412 1.384 . S
C410 H401 0.929 . S
C410 C402 1.378 . S
C410 C405 1.350 . S
C411 H398 0.929 . S
C411 C403 1.433 . S
C411 N413 1.384 . S
N412 C408 1.427 . S
N412 C409 1.384 . S
N413 C405 1.427 . S
N413 C411 1.384 . S
H414 C420 0.930 . S
H415 C424 0.930 . S
H416 C429 0.929 . S
H417 C427 0.929 . S
H418 C422 0.929 . S
H419 C428 0.929 . S
C420 H414 0.930 . S
C420 C421 1.367 . S
C420 C428 1.378 . S
C421 C420 1.367 . S
C421 C429 1.433 . S
C422 H418 0.929 . S
C422 C424 1.378 . S
C422 C426 1.350 . S
C423 C426 1.463 1_655 S
C423 C428 1.350 . S
C423 N431 1.427 1_655 S
C424 H415 0.930 . S
C424 C422 1.378 . S
C424 C425 1.367 . S
C425 C424 1.367 . S
C425 C427 1.433 . S
C426 C422 1.350 . S
C426 C423 1.463 1_455 S
C426 N430 1.427 1_455 S
C427 H417 0.929 . S
C427 C425 1.433 . S
C427 N430 1.384 1_455 S
C428 H419 0.929 . S
C428 C420 1.378 . S
C428 C423 1.350 . S
C429 H416 0.929 . S
C429 C421 1.433 . S
C429 N431 1.384 1_655 S
N430 C426 1.427 1_655 S
N430 C427 1.384 1_655 S
N431 C423 1.427 1_455 S
N431 C429 1.384 1_455 S
H432 C438 0.930 . S
H433 C442 0.930 . S
H434 C447 0.929 . S
H435 C445 0.929 . S
H436 C440 0.929 . S
H437 C446 0.929 . S
C438 H432 0.930 . S
C438 C439 1.367 . S
C438 C446 1.378 . S
C439 C438 1.367 . S
C439 C447 1.433 . S
C440 H436 0.929 . S
C440 C442 1.378 . S
C440 C444 1.350 . S
C441 C444 1.463 1_556 S
C441 C446 1.350 . S
C441 N449 1.427 . S
C442 H433 0.930 . S
C442 C440 1.378 . S
C442 C443 1.367 . S
C443 C442 1.367 . S
C443 C445 1.433 . S
C444 C440 1.350 . S
C444 C441 1.463 1_554 S
C444 N448 1.427 . S
C445 H435 0.929 . S
C445 C443 1.433 . S
C445 N448 1.384 . S
C446 H437 0.929 . S
C446 C438 1.378 . S
C446 C441 1.350 . S
C447 H434 0.929 . S
C447 C439 1.433 . S
C447 N449 1.384 . S
N448 C444 1.427 . S
N448 C445 1.384 . S
N449 C441 1.427 . S
N449 C447 1.384 . S
H450 C456 0.930 . S
H451 C460 0.930 . S
H452 C465 0.929 . S
H453 C463 0.929 . S
H454 C458 0.929 1_545 S
H455 C464 0.929 1_565 S
C456 H450 0.930 . S
C456 C457 1.367 . S
C456 C464 1.378 . S
C457 C456 1.367 . S
C457 C465 1.433 . S
C458 H454 0.929 1_565 S
C458 C460 1.378 . S
C458 C462 1.350 . S
C459 C462 1.463 1_545 S
C459 C464 1.350 . S
C459 N467 1.427 . S
C460 H451 0.930 . S
C460 C458 1.378 . S
C460 C461 1.367 . S
C461 C460 1.367 . S
C461 C463 1.433 . S
C462 C458 1.350 . S
C462 C459 1.463 1_565 S
C462 N466 1.427 . S
C463 H453 0.929 . S
C463 C461 1.433 . S
C463 N466 1.384 . S
C464 H455 0.929 1_545 S
C464 C456 1.378 . S
C464 C459 1.350 . S
C465 H452 0.929 . S
C465 C457 1.433 . S
C465 N467 1.384 . S
N466 C462 1.427 . S
N466 C463 1.384 . S
N467 C459 1.427 . S
N467 C465 1.384 . S
C205 N68 1.189 . S
C209 C18 1.261 . S
C223 C51 1.258 . S
C227 N2 1.177 . S
C241 C84 1.262 . S
C245 N35 1.189 . S
C259 C117 1.259 . S
C263 N134 1.183 . S
C277 N167 1.179 . S
C281 C150 1.258 . S
C295 N101 1.190 . S
C299 C183 1.262 . S
C313 C153 0.678 . S
C317 C21 0.680 . S
C331 C186 0.681 . S
C335 C54 0.682 . S
C349 C120 0.678 . S
C353 C87 0.678 . S
C367 C106 1.556 . S
C371 C7 1.557 . S
C385 C139 1.547 . S
C389 C40 1.548 . S
C403 C73 1.561 . S
C407 C172 1.561 . S
C421 N145 1.987 . S
C425 N13 1.988 . S
C439 N46 1.990 . S
C443 N178 1.986 . S
C457 N112 1.989 . S
C461 N79 1.987 . S
