# Generated by pormake.
# Topology upc, (4)-cn, num edge types: 1
# Building blocks:
#     Node 0, Type 0, BuildingBlock: CEKHIL_clean_sbu_0, # of connection points: 4
#     Node 1, Type 0, BuildingBlock: CEKHIL_clean_sbu_0, # of connection points: 4
#     Node 2, Type 0, BuildingBlock: CEKHIL_clean_sbu_0, # of connection points: 4
#     Node 3, Type 0, BuildingBlock: CEKHIL_clean_sbu_0, # of connection points: 4
#     Node 4, Type 0, BuildingBlock: CEKHIL_clean_sbu_0, # of connection points: 4
#     Node 5, Type 0, BuildingBlock: CEKHIL_clean_sbu_0, # of connection points: 4
#     Node 6, Type 0, BuildingBlock: CEKHIL_clean_sbu_0, # of connection points: 4
#     Node 7, Type 0, BuildingBlock: CEKHIL_clean_sbu_0, # of connection points: 4
#     Node 8, Type 0, BuildingBlock: CEKHIL_clean_sbu_0, # of connection points: 4
#     Node 9, Type 0, BuildingBlock: CEKHIL_clean_sbu_0, # of connection points: 4
#     Node 10, Type 0, BuildingBlock: CEKHIL_clean_sbu_0, # of connection points: 4
#     Node 11, Type 0, BuildingBlock: CEKHIL_clean_sbu_0, # of connection points: 4
#     Node 12, Type 0, BuildingBlock: CEKHIL_clean_sbu_0, # of connection points: 4
#     Node 13, Type 0, BuildingBlock: CEKHIL_clean_sbu_0, # of connection points: 4
#     Node 14, Type 0, BuildingBlock: CEKHIL_clean_sbu_0, # of connection points: 4
#     Node 15, Type 0, BuildingBlock: CEKHIL_clean_sbu_0, # of connection points: 4
#     Edge 16, Type (0, 0), BuildingBlock: TEMPAE_clean_linker_10, # of connection points: 2
#     Edge 17, Type (0, 0), BuildingBlock: TEMPAE_clean_linker_10, # of connection points: 2
#     Edge 18, Type (0, 0), BuildingBlock: TEMPAE_clean_linker_10, # of connection points: 2
#     Edge 19, Type (0, 0), BuildingBlock: TEMPAE_clean_linker_10, # of connection points: 2
#     Edge 20, Type (0, 0), BuildingBlock: TEMPAE_clean_linker_10, # of connection points: 2
#     Edge 21, Type (0, 0), BuildingBlock: TEMPAE_clean_linker_10, # of connection points: 2
#     Edge 22, Type (0, 0), BuildingBlock: TEMPAE_clean_linker_10, # of connection points: 2
#     Edge 23, Type (0, 0), BuildingBlock: TEMPAE_clean_linker_10, # of connection points: 2
#     Edge 24, Type (0, 0), BuildingBlock: TEMPAE_clean_linker_10, # of connection points: 2
#     Edge 25, Type (0, 0), BuildingBlock: TEMPAE_clean_linker_10, # of connection points: 2
#     Edge 26, Type (0, 0), BuildingBlock: TEMPAE_clean_linker_10, # of connection points: 2
#     Edge 27, Type (0, 0), BuildingBlock: TEMPAE_clean_linker_10, # of connection points: 2
#     Edge 28, Type (0, 0), BuildingBlock: TEMPAE_clean_linker_10, # of connection points: 2
#     Edge 29, Type (0, 0), BuildingBlock: TEMPAE_clean_linker_10, # of connection points: 2
#     Edge 30, Type (0, 0), BuildingBlock: TEMPAE_clean_linker_10, # of connection points: 2
#     Edge 31, Type (0, 0), BuildingBlock: TEMPAE_clean_linker_10, # of connection points: 2
#     Edge 32, Type (0, 0), BuildingBlock: TEMPAE_clean_linker_10, # of connection points: 2
#     Edge 33, Type (0, 0), BuildingBlock: TEMPAE_clean_linker_10, # of connection points: 2
#     Edge 34, Type (0, 0), BuildingBlock: TEMPAE_clean_linker_10, # of connection points: 2
#     Edge 35, Type (0, 0), BuildingBlock: TEMPAE_clean_linker_10, # of connection points: 2
#     Edge 36, Type (0, 0), BuildingBlock: TEMPAE_clean_linker_10, # of connection points: 2
#     Edge 37, Type (0, 0), BuildingBlock: TEMPAE_clean_linker_10, # of connection points: 2
#     Edge 38, Type (0, 0), BuildingBlock: TEMPAE_clean_linker_10, # of connection points: 2
#     Edge 39, Type (0, 0), BuildingBlock: TEMPAE_clean_linker_10, # of connection points: 2
#     Edge 40, Type (0, 0), BuildingBlock: TEMPAE_clean_linker_10, # of connection points: 2
#     Edge 41, Type (0, 0), BuildingBlock: TEMPAE_clean_linker_10, # of connection points: 2
#     Edge 42, Type (0, 0), BuildingBlock: TEMPAE_clean_linker_10, # of connection points: 2
#     Edge 43, Type (0, 0), BuildingBlock: TEMPAE_clean_linker_10, # of connection points: 2
#     Edge 44, Type (0, 0), BuildingBlock: TEMPAE_clean_linker_10, # of connection points: 2
#     Edge 45, Type (0, 0), BuildingBlock: TEMPAE_clean_linker_10, # of connection points: 2
#     Edge 46, Type (0, 0), BuildingBlock: TEMPAE_clean_linker_10, # of connection points: 2
#     Edge 47, Type (0, 0), BuildingBlock: TEMPAE_clean_linker_10, # of connection points: 2
# Relax obj value: 0.268
# Max RMSD: 0.292
# Mean RMSD: 0.292
data_MOF--net-upc--node1-CEKHIL_clean_sbu_0--edge1-TEMPAE_clean_linker_10
_symmetry_space_group_name_H-M    P1
_symmetry_Int_Tables_number       1
_symmetry_cell_setting            triclinic
loop_
_symmetry_equiv_pos_as_xyz
'x, y, z'
_cell_length_a     33.507164
_cell_length_b     33.502976
_cell_length_c     43.450826
_cell_angle_alpha  89.91861
_cell_angle_beta   89.985443
_cell_angle_gamma 89.943809
loop_
_atom_site_label
_atom_site_type_symbol
_atom_site_fract_x
_atom_site_fract_y
_atom_site_fract_z
_atom_type_partial_charge
Co0 Co 0.09314 0.59678 0.11969 0.0
O1 O 0.08467 0.57129 0.08095 0.0
O2 O 0.0366 0.59415 0.11161 0.0
C3 C 0.14167 0.63859 0.10417 0.0
O4 O 0.091 0.62666 0.16014 0.0
Co5 Co 0.1741 0.5862 0.15317 0.0
O6 O 0.15457 0.63364 0.17593 0.0
C7 C 0.11343 0.52337 0.15935 0.0
C8 C 0.04697 0.57753 0.0858 0.0
C9 C 0.11763 0.64246 0.1775 0.0
O10 O 0.09004 0.54433 0.1423 0.0
O11 O 0.14941 0.53372 0.16527 0.0
O12 O 0.10444 0.64661 0.09873 0.0
O13 O 0.14867 0.60326 0.1152 0.0
Co14 Co 0.90613 0.1128 0.12401 0.0
O15 O 0.94129 0.11805 0.08947 0.0
O16 O 0.92081 0.06049 0.10935 0.0
C17 C 0.86059 0.15776 0.10789 0.0
O18 O 0.86815 0.09615 0.15831 0.0
Co19 Co 0.89201 0.18413 0.16784 0.0
O20 O 0.84332 0.15321 0.17767 0.0
C21 C 0.96152 0.13177 0.17805 0.0
C22 C 0.9407 0.07938 0.08814 0.0
C23 C 0.84235 0.11549 0.17433 0.0
O24 O 0.95239 0.11194 0.15375 0.0
O25 O 0.94151 0.16181 0.18771 0.0
O26 O 0.86064 0.12164 0.09721 0.0
O27 O 0.89074 0.16695 0.12523 0.0
Co28 Co 0.37851 0.91322 0.12787 0.0
O29 O 0.37339 0.9541 0.09698 0.0
O30 O 0.43028 0.92555 0.111 0.0
C31 C 0.32854 0.87351 0.1116 0.0
O32 O 0.3949 0.86932 0.15777 0.0
Co33 Co 0.30948 0.89949 0.17448 0.0
O34 O 0.33849 0.8485 0.18091 0.0
C35 C 0.36598 0.9653 0.18526 0.0
C36 C 0.41164 0.95055 0.09312 0.0
C37 C 0.37536 0.84431 0.17444 0.0
O38 O 0.38575 0.95455 0.16122 0.0
O39 O 0.33322 0.94871 0.19344 0.0
O40 O 0.36313 0.8726 0.09819 0.0
O41 O 0.32374 0.90199 0.13139 0.0
Co42 Co 0.58055 0.38564 0.10964 0.0
O43 O 0.5437 0.38873 0.07583 0.0
O44 O 0.57565 0.44024 0.09653 0.0
C45 C 0.61803 0.33431 0.09254 0.0
O46 O 0.62122 0.39396 0.14357 0.0
Co47 Co 0.58205 0.31047 0.1515 0.0
O48 O 0.63367 0.33387 0.16475 0.0
C49 C 0.52008 0.37148 0.16168 0.0
C50 C 0.55145 0.42671 0.07565 0.0
C51 C 0.64168 0.37074 0.16103 0.0
O52 O 0.53581 0.39293 0.14027 0.0
O53 O 0.53249 0.33635 0.16839 0.0
O54 O 0.62338 0.37013 0.08195 0.0
O55 O 0.58663 0.32975 0.10962 0.0
Co56 Co 0.12797 0.91776 0.37108 0.0
O57 O 0.13359 0.96076 0.40004 0.0
O58 O 0.07653 0.93132 0.38716 0.0
C59 C 0.17745 0.87816 0.38854 0.0
O60 O 0.11027 0.87213 0.34366 0.0
Co61 Co 0.19441 0.8983 0.32396 0.0
O62 O 0.16583 0.84649 0.32253 0.0
C63 C 0.13867 0.96403 0.3107 0.0
C64 C 0.09523 0.95753 0.40376 0.0
C65 C 0.12903 0.84419 0.3296 0.0
O66 O 0.12068 0.95702 0.33626 0.0
O67 O 0.16932 0.94458 0.30151 0.0
O68 O 0.14311 0.87922 0.40232 0.0
O69 O 0.18264 0.90512 0.36742 0.0
Co70 Co 0.59187 0.10397 0.38861 0.0
O71 O 0.55583 0.09931 0.42282 0.0
O72 O 0.5886 0.04895 0.40112 0.0
C73 C 0.62839 0.15575 0.40586 0.0
O74 O 0.63213 0.09755 0.35402 0.0
Co75 Co 0.58997 0.18012 0.34782 0.0
O76 O 0.64158 0.15826 0.33302 0.0
C77 C 0.52901 0.11822 0.33829 0.0
C78 C 0.56444 0.06151 0.42241 0.0
C79 C 0.65117 0.12167 0.3363 0.0
O80 O 0.54653 0.09636 0.3586 0.0
O81 O 0.54002 0.15393 0.33208 0.0
O82 O 0.63488 0.11985 0.41592 0.0
O83 O 0.59646 0.15995 0.38932 0.0
Co84 Co 0.38474 0.58043 0.37525 0.0
O85 O 0.38025 0.54086 0.40722 0.0
O86 O 0.43709 0.56677 0.39039 0.0
C87 C 0.3375 0.62302 0.39234 0.0
O88 O 0.40061 0.62259 0.34374 0.0
Co89 Co 0.31321 0.59467 0.33107 0.0
O90 O 0.34336 0.64436 0.32232 0.0
C91 C 0.36725 0.52701 0.31933 0.0
C92 C 0.41881 0.54311 0.40951 0.0
C93 C 0.38072 0.64755 0.32726 0.0
O94 O 0.38852 0.53772 0.34258 0.0
O95 O 0.33454 0.54438 0.31195 0.0
O96 O 0.37286 0.6227 0.40449 0.0
O97 O 0.3302 0.59383 0.37363 0.0
Co98 Co 0.90475 0.38531 0.36676 0.0
O99 O 0.94485 0.38718 0.39834 0.0
O100 O 0.91451 0.43993 0.37784 0.0
C101 C 0.86598 0.33758 0.3877 0.0
O102 O 0.86146 0.39511 0.33501 0.0
Co103 Co 0.89383 0.30912 0.3273 0.0
O104 O 0.842 0.33502 0.31761 0.0
C105 C 0.95861 0.36499 0.31172 0.0
C106 C 0.93955 0.42559 0.39786 0.0
C107 C 0.83709 0.37256 0.32034 0.0
O108 O 0.94679 0.38797 0.33362 0.0
O109 O 0.94283 0.33088 0.30635 0.0
O110 O 0.86388 0.37418 0.39724 0.0
O111 O 0.89508 0.33 0.36888 0.0
Co112 Co 0.88735 0.40129 0.87824 0.0
O113 O 0.8726 0.44228 0.90702 0.0
O114 O 0.93439 0.42111 0.89787 0.0
C115 C 0.84143 0.35576 0.89211 0.0
O116 O 0.91413 0.35942 0.85178 0.0
Co117 Co 0.82881 0.37416 0.82717 0.0
O118 O 0.86545 0.3274 0.82636 0.0
C119 C 0.87443 0.44856 0.81862 0.0
C120 C 0.91044 0.444 0.91343 0.0
C121 C 0.90144 0.33003 0.83568 0.0
O122 O 0.89293 0.4418 0.84409 0.0
O123 O 0.84588 0.4266 0.80878 0.0
O124 O 0.87388 0.36002 0.90808 0.0
O125 O 0.83563 0.38231 0.8709 0.0
Co126 Co 0.07459 0.88686 0.8729 0.0
O127 O 0.03358 0.89067 0.9037 0.0
O128 O 0.07041 0.94119 0.88663 0.0
C129 C 0.10707 0.83342 0.89205 0.0
O130 O 0.12008 0.89428 0.84255 0.0
Co131 Co 0.07835 0.81297 0.82996 0.0
O132 O 0.1321 0.83463 0.82067 0.0
C133 C 0.02149 0.87747 0.81579 0.0
C134 C 0.04316 0.92816 0.90541 0.0
C135 C 0.1414 0.87086 0.82589 0.0
O136 O 0.03476 0.89713 0.83906 0.0
O137 O 0.03323 0.8421 0.80922 0.0
O138 O 0.11251 0.86867 0.90359 0.0
O139 O 0.07811 0.83071 0.87236 0.0
Co140 Co 0.60589 0.0843 0.87917 0.0
O141 O 0.59735 0.05442 0.91618 0.0
O142 O 0.54951 0.08435 0.88932 0.0
C143 C 0.65783 0.12037 0.89625 0.0
O144 O 0.60506 0.11993 0.84093 0.0
Co145 Co 0.68508 0.07053 0.84366 0.0
O146 O 0.66683 0.11808 0.82041 0.0
C147 C 0.6208 0.01201 0.83698 0.0
C148 C 0.56 0.06371 0.9134 0.0
C149 C 0.63148 0.13216 0.82147 0.0
O150 O 0.59828 0.03493 0.8532 0.0
O151 O 0.65785 0.01918 0.83241 0.0
O152 O 0.62152 0.13028 0.90329 0.0
O153 O 0.66176 0.08615 0.88269 0.0
Co154 Co 0.4007 0.623 0.86918 0.0
O155 O 0.43823 0.62774 0.90226 0.0
O156 O 0.41816 0.57059 0.88152 0.0
C157 C 0.35466 0.66548 0.88771 0.0
O158 O 0.36087 0.6067 0.83626 0.0
Co159 Co 0.38251 0.69612 0.82781 0.0
O160 O 0.33434 0.66391 0.81844 0.0
C161 C 0.45411 0.64821 0.81495 0.0
C162 C 0.43924 0.58902 0.90222 0.0
C163 C 0.33392 0.62605 0.8214 0.0
O164 O 0.44462 0.62527 0.83756 0.0
O165 O 0.43418 0.67956 0.80792 0.0
O166 O 0.35677 0.62913 0.89796 0.0
O167 O 0.38364 0.67638 0.8698 0.0
Co168 Co 0.91948 0.12348 0.61496 0.0
O169 O 0.915 0.09289 0.5779 0.0
O170 O 0.97204 0.11074 0.60013 0.0
C171 C 0.87418 0.17057 0.60255 0.0
O172 O 0.93588 0.1564 0.65186 0.0
Co173 Co 0.84684 0.13217 0.65898 0.0
O174 O 0.87928 0.1776 0.67433 0.0
C175 C 0.8958 0.05911 0.66177 0.0
C176 C 0.95375 0.09319 0.57751 0.0
C177 C 0.91701 0.17905 0.67065 0.0
O178 O 0.91942 0.07367 0.64122 0.0
O179 O 0.86374 0.07664 0.67045 0.0
O180 O 0.91028 0.17267 0.59176 0.0
O181 O 0.86568 0.13809 0.61722 0.0
Co182 Co 0.41636 0.86957 0.63185 0.0
O183 O 0.45461 0.86314 0.59935 0.0
O184 O 0.43424 0.92127 0.61824 0.0
C185 C 0.37041 0.82648 0.614 0.0
O186 O 0.37597 0.88761 0.66381 0.0
Co187 Co 0.397 0.79838 0.67495 0.0
O188 O 0.34893 0.8314 0.68304 0.0
C189 C 0.46802 0.84712 0.68778 0.0
C190 C 0.4557 0.90185 0.5983 0.0
C191 C 0.34881 0.86907 0.67899 0.0
O192 O 0.45952 0.86871 0.66415 0.0
O193 O 0.4478 0.81622 0.6954 0.0
O194 O 0.37299 0.86227 0.60272 0.0
O195 O 0.39901 0.81624 0.6325 0.0
Co196 Co 0.61329 0.41919 0.62715 0.0
O197 O 0.60524 0.44885 0.5899 0.0
O198 O 0.55778 0.4159 0.61496 0.0
C199 C 0.66854 0.38684 0.61165 0.0
O200 O 0.61166 0.38329 0.66517 0.0
Co201 Co 0.68892 0.43575 0.66622 0.0
O202 O 0.67109 0.38773 0.68911 0.0
C203 C 0.62165 0.49164 0.66995 0.0
C204 C 0.56838 0.43736 0.59137 0.0
C205 C 0.63656 0.37223 0.68615 0.0
O206 O 0.60122 0.46785 0.65289 0.0
O207 O 0.6586 0.48594 0.67604 0.0
O208 O 0.63343 0.37448 0.60344 0.0
O209 O 0.66937 0.42079 0.62585 0.0
Co210 Co 0.07867 0.61171 0.6151 0.0
O211 O 0.04308 0.61566 0.58065 0.0
O212 O 0.06961 0.55928 0.59833 0.0
C213 C 0.11949 0.66227 0.60177 0.0
O214 O 0.11814 0.59664 0.64867 0.0
Co215 Co 0.08334 0.68117 0.66205 0.0
O216 O 0.13419 0.65397 0.67259 0.0
C217 C 0.01879 0.62226 0.66813 0.0
C218 C 0.04759 0.57735 0.57798 0.0
C219 C 0.1403 0.61718 0.66682 0.0
O220 O 0.03299 0.60365 0.64467 0.0
O221 O 0.03314 0.65534 0.67786 0.0
O222 O 0.12298 0.62745 0.589 0.0
O223 O 0.08821 0.66685 0.619 0.0
C224 C 0.20827 0.66765 0.11808 0.0
C225 C 0.17207 0.67041 0.10209 0.0
C226 C 0.23469 0.70023 0.1191 0.0
C227 C 0.22488 0.73591 0.10323 0.0
C228 C 0.18919 0.7381 0.08595 0.0
C229 C 0.16312 0.70545 0.08578 0.0
C230 C 0.27241 0.69695 0.13795 0.0
C231 C 0.17799 0.77532 0.06827 0.0
C232 C 0.269 0.83463 0.12946 0.0
C233 C 0.30041 0.83973 0.10852 0.0
C234 C 0.2446 0.80059 0.12832 0.0
C235 C 0.25128 0.77147 0.10527 0.0
C236 C 0.28236 0.77694 0.08364 0.0
C237 C 0.30671 0.81087 0.08566 0.0
C238 C 0.21191 0.79558 0.15195 0.0
C239 C 0.28992 0.74693 0.05838 0.0
H240 H 0.2153 0.64064 0.13071 0.0
H241 H 0.13529 0.70762 0.07316 0.0
H242 H 0.29879 0.70389 0.12348 0.0
H243 H 0.27173 0.71915 0.15688 0.0
H244 H 0.27634 0.66675 0.1481 0.0
H245 H 0.15022 0.77139 0.05464 0.0
H246 H 0.17355 0.8005 0.08447 0.0
H247 H 0.20248 0.78386 0.05239 0.0
H248 H 0.264 0.85676 0.1472 0.0
H249 H 0.33089 0.81469 0.06934 0.0
H250 H 0.21582 0.76688 0.16437 0.0
H251 H 0.18244 0.79449 0.14035 0.0
H252 H 0.21152 0.8202 0.16904 0.0
H253 H 0.29634 0.71721 0.06852 0.0
H254 H 0.31533 0.75562 0.04337 0.0
H255 H 0.26286 0.74375 0.04388 0.0
C256 C 0.82059 0.21868 0.121 0.0
C257 C 0.82561 0.18409 0.10337 0.0
C258 C 0.78593 0.24204 0.11814 0.0
C259 C 0.75585 0.23072 0.09696 0.0
C260 C 0.76124 0.19631 0.0786 0.0
C261 C 0.79594 0.17332 0.08215 0.0
C262 C 0.78116 0.27842 0.13823 0.0
C263 C 0.73024 0.18364 0.05536 0.0
C264 C 0.65114 0.27117 0.11039 0.0
C265 C 0.65076 0.30464 0.091 0.0
C266 C 0.68499 0.24645 0.11228 0.0
C267 C 0.71886 0.25505 0.0939 0.0
C268 C 0.7178 0.28759 0.07314 0.0
C269 C 0.68386 0.31208 0.07205 0.0
C270 C 0.68504 0.21198 0.13471 0.0
C271 C 0.75302 0.29737 0.05278 0.0
H272 H 0.84334 0.22704 0.13749 0.0
H273 H 0.79973 0.14668 0.06831 0.0
H274 H 0.77486 0.30515 0.12394 0.0
H275 H 0.75533 0.27419 0.15389 0.0
H276 H 0.80817 0.28427 0.15233 0.0
H277 H 0.73924 0.15639 0.04257 0.0
H278 H 0.70145 0.1777 0.06713 0.0
H279 H 0.72494 0.20803 0.03856 0.0
H280 H 0.62563 0.26514 0.12499 0.0
H281 H 0.68368 0.33773 0.05682 0.0
H282 H 0.70832 0.21684 0.15248 0.0
H283 H 0.69253 0.1838 0.12264 0.0
H284 H 0.65579 0.20828 0.14641 0.0
H285 H 0.77897 0.30584 0.06722 0.0
H286 H 0.74654 0.32226 0.03661 0.0
H287 H 0.7619 0.27076 0.03922 0.0
C288 C 0.1936 0.81283 0.41321 0.0
C289 C 0.20356 0.84267 0.39183 0.0
C290 C 0.21484 0.77677 0.41451 0.0
C291 C 0.24689 0.77028 0.39393 0.0
C292 C 0.25781 0.80067 0.37283 0.0
C293 C 0.23612 0.83662 0.37212 0.0
C294 C 0.20242 0.74528 0.43751 0.0
C295 C 0.29188 0.79485 0.35056 0.0
C296 C 0.32379 0.69086 0.41347 0.0
C297 C 0.31198 0.65906 0.39455 0.0
C298 C 0.30269 0.72704 0.41368 0.0
C299 C 0.26892 0.73165 0.39448 0.0
C300 C 0.25625 0.69938 0.37584 0.0
C301 C 0.27785 0.66336 0.37619 0.0
C302 C 0.317 0.76059 0.43406 0.0
C303 C 0.22025 0.70314 0.35516 0.0
H304 H 0.16852 0.81725 0.42859 0.0
H305 H 0.24397 0.8595 0.35555 0.0
H306 H 0.19286 0.71791 0.42522 0.0
H307 H 0.22809 0.73697 0.45232 0.0
H308 H 0.17752 0.75542 0.45248 0.0
H309 H 0.29709 0.82165 0.33602 0.0
H310 H 0.31971 0.78788 0.36331 0.0
H311 H 0.28557 0.76909 0.3353 0.0
H312 H 0.3501 0.68778 0.42779 0.0
H313 H 0.26856 0.63896 0.36151 0.0
H314 H 0.29269 0.77023 0.44972 0.0
H315 H 0.32524 0.78676 0.41974 0.0
H316 H 0.34326 0.75188 0.44817 0.0
H317 H 0.19357 0.71105 0.36901 0.0
H318 H 0.21398 0.67516 0.34236 0.0
H319 H 0.22492 0.7276 0.33829 0.0
C320 C 0.82809 0.27493 0.37587 0.0
C321 C 0.83261 0.30965 0.39345 0.0
C322 C 0.79396 0.25092 0.37899 0.0
C323 C 0.76407 0.2616 0.40056 0.0
C324 C 0.76915 0.2959 0.41907 0.0
C325 C 0.80325 0.3196 0.41518 0.0
C326 C 0.7894 0.21465 0.35871 0.0
C327 C 0.73831 0.30789 0.44269 0.0
C328 C 0.65987 0.21967 0.38804 0.0
C329 C 0.66046 0.18604 0.40726 0.0
C330 C 0.69324 0.24493 0.3859 0.0
C331 C 0.72758 0.2367 0.40387 0.0
C332 C 0.72746 0.204 0.42449 0.0
C333 C 0.69399 0.179 0.42583 0.0
C334 C 0.69231 0.27956 0.36361 0.0
C335 C 0.76321 0.19463 0.44442 0.0
H336 H 0.85062 0.26712 0.35903 0.0
H337 H 0.80665 0.34633 0.42896 0.0
H338 H 0.78527 0.18753 0.37303 0.0
H339 H 0.76234 0.21792 0.3442 0.0
H340 H 0.81558 0.21006 0.34343 0.0
H341 H 0.7472 0.33496 0.45572 0.0
H342 H 0.70935 0.31385 0.43118 0.0
H343 H 0.73341 0.28315 0.45926 0.0
H344 H 0.63401 0.22539 0.37374 0.0
H345 H 0.69454 0.15323 0.44094 0.0
H346 H 0.71534 0.27519 0.34557 0.0
H347 H 0.69954 0.30777 0.37572 0.0
H348 H 0.66279 0.2829 0.35225 0.0
H349 H 0.78904 0.18667 0.42966 0.0
H350 H 0.75745 0.16951 0.46053 0.0
H351 H 0.77186 0.22126 0.458 0.0
C352 C 0.78492 0.31316 0.87426 0.0
C353 C 0.81698 0.31918 0.89439 0.0
C354 C 0.76238 0.27794 0.8754 0.0
C355 C 0.77205 0.24815 0.89733 0.0
C356 C 0.8046 0.25389 0.91757 0.0
C357 C 0.8267 0.28939 0.91586 0.0
C358 C 0.72784 0.27289 0.85341 0.0
C359 C 0.8157 0.22283 0.9413 0.0
C360 C 0.68461 0.18272 0.91882 0.0
C361 C 0.69049 0.14949 0.89978 0.0
C362 C 0.71209 0.21412 0.91941 0.0
C363 C 0.74621 0.21236 0.9003 0.0
C364 C 0.75354 0.17786 0.88231 0.0
C365 C 0.72555 0.1466 0.88236 0.0
C366 C 0.70344 0.25011 0.93926 0.0
C367 C 0.7898 0.17487 0.86183 0.0
H368 H 0.77741 0.33596 0.85751 0.0
H369 H 0.85163 0.29378 0.93138 0.0
H370 H 0.73131 0.24483 0.84014 0.0
H371 H 0.6995 0.27062 0.86651 0.0
H372 H 0.72533 0.29816 0.83695 0.0
H373 H 0.84348 0.23063 0.95387 0.0
H374 H 0.79115 0.21961 0.95826 0.0
H375 H 0.81983 0.19334 0.93016 0.0
H376 H 0.65774 0.18482 0.93264 0.0
H377 H 0.73024 0.12088 0.8677 0.0
H378 H 0.69715 0.27631 0.92438 0.0
H379 H 0.72979 0.25757 0.95358 0.0
H380 H 0.67743 0.24531 0.95469 0.0
H381 H 0.78693 0.19637 0.84251 0.0
H382 H 0.79356 0.14444 0.85211 0.0
H383 H 0.81717 0.18288 0.87477 0.0
C384 C 0.31308 0.72571 0.87623 0.0
C385 C 0.31782 0.68926 0.8916 0.0
C386 C 0.27691 0.74675 0.87781 0.0
C387 C 0.24483 0.73103 0.89527 0.0
C388 C 0.24973 0.69463 0.91133 0.0
C389 C 0.28617 0.67415 0.90928 0.0
C390 C 0.2727 0.78538 0.86021 0.0
C391 C 0.21638 0.67717 0.93046 0.0
C392 C 0.16733 0.80742 0.91873 0.0
C393 C 0.13821 0.80249 0.89586 0.0
C394 C 0.20129 0.78303 0.91969 0.0
C395 C 0.20646 0.75322 0.89703 0.0
C396 C 0.1761 0.74654 0.87493 0.0
C397 C 0.14202 0.77106 0.87482 0.0
C398 C 0.23263 0.79066 0.94397 0.0
C399 C 0.18059 0.71498 0.85039 0.0
H400 H 0.33736 0.73745 0.86245 0.0
H401 H 0.28964 0.64596 0.92125 0.0
H402 H 0.24937 0.78183 0.84234 0.0
H403 H 0.26293 0.80971 0.87579 0.0
H404 H 0.30098 0.79449 0.84886 0.0
H405 H 0.2252 0.64882 0.94189 0.0
H406 H 0.20701 0.69879 0.94838 0.0
H407 H 0.19001 0.67137 0.9157 0.0
H408 H 0.16431 0.83139 0.93531 0.0
H409 H 0.11947 0.76688 0.85727 0.0
H410 H 0.25994 0.80274 0.93293 0.0
H411 H 0.24105 0.76239 0.95561 0.0
H412 H 0.22233 0.81227 0.96165 0.0
H413 H 0.20511 0.72344 0.8345 0.0
H414 H 0.15286 0.71107 0.83672 0.0
H415 H 0.18878 0.68589 0.86087 0.0
C416 C 0.70298 0.33172 0.58439 0.0
C417 C 0.70402 0.36152 0.60696 0.0
C418 C 0.73396 0.30388 0.58167 0.0
C419 C 0.7664 0.30544 0.60245 0.0
C420 C 0.7686 0.33669 0.62435 0.0
C421 C 0.73741 0.36469 0.62618 0.0
C422 C 0.73085 0.27154 0.55759 0.0
C423 C 0.80265 0.33915 0.64701 0.0
C424 C 0.81205 0.20457 0.62013 0.0
C425 C 0.84689 0.20525 0.60231 0.0
C426 C 0.78639 0.23758 0.62113 0.0
C427 C 0.79535 0.27185 0.60334 0.0
C428 C 0.83049 0.2728 0.58526 0.0
C429 C 0.85604 0.23951 0.58512 0.0
C430 C 0.74939 0.23554 0.64098 0.0
C431 C 0.84068 0.30863 0.56567 0.0
H432 H 0.67738 0.32955 0.56923 0.0
H433 H 0.73825 0.38775 0.64363 0.0
H434 H 0.75922 0.26894 0.54457 0.0
H435 H 0.72538 0.24239 0.56897 0.0
H436 H 0.70623 0.27723 0.54102 0.0
H437 H 0.80237 0.3676 0.66012 0.0
H438 H 0.80053 0.31402 0.66359 0.0
H439 H 0.83171 0.33632 0.63497 0.0
H440 H 0.80483 0.17828 0.63355 0.0
H441 H 0.88299 0.24018 0.57132 0.0
H442 H 0.72238 0.23706 0.62625 0.0
H443 H 0.74836 0.26144 0.65685 0.0
H444 H 0.74804 0.2077 0.65485 0.0
H445 H 0.81747 0.31282 0.54774 0.0
H446 H 0.87013 0.30549 0.55418 0.0
H447 H 0.84098 0.33605 0.57994 0.0
C448 C 0.18455 0.6845 0.5802 0.0
C449 C 0.15307 0.6909 0.60091 0.0
C450 C 0.21912 0.70794 0.58112 0.0
C451 C 0.22253 0.73837 0.6035 0.0
C452 C 0.19029 0.74599 0.62379 0.0
C453 C 0.15572 0.7223 0.6221 0.0
C454 C 0.25256 0.69924 0.55877 0.0
C455 C 0.19289 0.77823 0.64796 0.0
C456 C 0.32782 0.76743 0.62697 0.0
C457 C 0.33344 0.80283 0.61036 0.0
C458 C 0.29163 0.74645 0.62523 0.0
C459 C 0.26049 0.76108 0.60626 0.0
C460 C 0.26616 0.79659 0.58919 0.0
C461 C 0.30255 0.81707 0.59148 0.0
C462 C 0.28662 0.70875 0.64386 0.0
C463 C 0.23381 0.81297 0.56851 0.0
H464 H 0.18255 0.66048 0.56358 0.0
H465 H 0.13146 0.72745 0.6381 0.0
H466 H 0.26115 0.72683 0.54628 0.0
H467 H 0.27926 0.68877 0.57155 0.0
H468 H 0.24425 0.67612 0.54163 0.0
H469 H 0.16446 0.78192 0.66081 0.0
H470 H 0.21688 0.77081 0.66463 0.0
H471 H 0.20086 0.80719 0.63719 0.0
H472 H 0.3515 0.75638 0.64169 0.0
H473 H 0.30664 0.84448 0.57859 0.0
H474 H 0.27986 0.68328 0.62843 0.0
H475 H 0.26101 0.71203 0.65986 0.0
H476 H 0.31372 0.70143 0.65747 0.0
H477 H 0.22612 0.7907 0.55059 0.0
H478 H 0.24285 0.84116 0.55697 0.0
H479 H 0.20635 0.81866 0.58207 0.0
C480 C 0.00177 0.35807 0.2645 0.0
C481 C 0.98914 0.38067 0.28995 0.0
C482 C 0.02621 0.3749 0.24156 0.0
C483 C 0.03792 0.41537 0.24395 0.0
C484 C 0.02689 0.43768 0.27027 0.0
C485 C 0.00293 0.42004 0.29297 0.0
C486 C 0.03794 0.34991 0.21413 0.0
C487 C 0.03861 0.48099 0.27373 0.0
C488 C 0.11881 0.46682 0.19734 0.0
C489 C 0.09589 0.48894 0.17627 0.0
C490 C 0.10067 0.44015 0.21808 0.0
C491 C 0.05863 0.43588 0.218 0.0
C492 C 0.03575 0.45568 0.19524 0.0
C493 C 0.05466 0.48167 0.17453 0.0
C494 C 0.12623 0.4187 0.24143 0.0
C495 C 0.99083 0.45202 0.19427 0.0
H496 H 0.99155 0.32758 0.26193 0.0
H497 H 0.99363 0.43784 0.31251 0.0
H498 H 0.07011 0.35373 0.20883 0.0
H499 H 0.03181 0.31769 0.21792 0.0
H500 H 0.0209 0.35989 0.19363 0.0
H501 H 0.02945 0.49354 0.29631 0.0
H502 H 0.07138 0.48438 0.2713 0.0
H503 H 0.02443 0.49894 0.25522 0.0
H504 H 0.15072 0.47174 0.19871 0.0
H505 H 0.03655 0.49817 0.15821 0.0
H506 H 0.1168 0.3871 0.2438 0.0
H507 H 0.12258 0.43305 0.26425 0.0
H508 H 0.15836 0.41953 0.23515 0.0
H509 H 0.98175 0.42021 0.19501 0.0
H510 H 0.97785 0.46597 0.17332 0.0
H511 H 0.9778 0.46684 0.21478 0.0
C512 C 0.03153 0.10883 0.1877 0.0
C513 C 0.99253 0.1149 0.19826 0.0
C514 C 0.05961 0.08831 0.20591 0.0
C515 C 0.04764 0.07183 0.23455 0.0
C516 C 0.00826 0.07839 0.24533 0.0
C517 C 0.98144 0.10052 0.22728 0.0
C518 C 0.10169 0.08331 0.19416 0.0
C519 C 0.99367 0.06011 0.27507 0.0
C520 C 0.0991 0.97808 0.26388 0.0
C521 C 0.11986 0.99258 0.28943 0.0
C522 C 0.07615 0.00373 0.24542 0.0
C523 C 0.07499 0.0451 0.2522 0.0
C524 C 0.09761 0.0601 0.27723 0.0
C525 C 0.11916 0.03345 0.296 0.0
C526 C 0.05151 0.9862 0.21967 0.0
C527 C 0.09819 0.10408 0.28464 0.0
H528 H 0.0399 0.11983 0.16512 0.0
H529 H 0.95097 0.10465 0.2351 0.0
H530 H 0.12348 0.09084 0.21248 0.0
H531 H 0.10685 0.05173 0.18764 0.0
H532 H 0.10766 0.10239 0.17374 0.0
H533 H 0.99544 0.02708 0.27357 0.0
H534 H 0.01294 0.06947 0.29449 0.0
H535 H 0.96236 0.06861 0.28041 0.0
H536 H 0.09931 0.94628 0.25922 0.0
H537 H 0.13515 0.04444 0.31595 0.0
H538 H 0.05629 0.95355 0.2171 0.0
H539 H 0.05888 0.00094 0.19754 0.0
H540 H 0.01935 0.99162 0.22419 0.0
H541 H 0.10418 0.12176 0.26352 0.0
H542 H 0.1211 0.11149 0.3022 0.0
H543 H 0.06859 0.11342 0.29351 0.0
C544 C 0.49169 0.05822 0.31955 0.0
C545 C 0.49739 0.09973 0.31899 0.0
C546 C 0.46648 0.03939 0.29826 0.0
C547 C 0.44599 0.06261 0.27604 0.0
C548 C 0.44967 0.10469 0.27651 0.0
C549 C 0.4755 0.12274 0.29784 0.0
C550 C 0.46348 0.9944 0.29854 0.0
C551 C 0.4277 0.13052 0.2536 0.0
C552 C 0.42355 0.00815 0.20149 0.0
C553 C 0.38416 0.99526 0.20626 0.0
C554 C 0.44345 0.03136 0.22353 0.0
C555 C 0.42344 0.0424 0.25095 0.0
C556 C 0.383 0.03151 0.25515 0.0
C557 C 0.36389 0.00795 0.23284 0.0
C558 C 0.48663 0.04229 0.21816 0.0
C559 C 0.36046 0.04318 0.28386 0.0
H560 H 0.50832 0.04005 0.33574 0.0
H561 H 0.47937 0.15485 0.29733 0.0
H562 H 0.43176 0.98502 0.29921 0.0
H563 H 0.47665 0.98221 0.27708 0.0
H564 H 0.47923 0.98088 0.31849 0.0
H565 H 0.43 0.16277 0.25925 0.0
H566 H 0.44026 0.12575 0.23027 0.0
H567 H 0.3957 0.12214 0.25272 0.0
H568 H 0.43959 0.99866 0.18111 0.0
H569 H 0.3334 0.99843 0.23676 0.0
H570 H 0.50567 0.02717 0.23554 0.0
H571 H 0.49093 0.0749 0.22098 0.0
H572 H 0.49714 0.03357 0.19487 0.0
H573 H 0.32806 0.03658 0.282 0.0
H574 H 0.3643 0.07547 0.28863 0.0
H575 H 0.37262 0.02659 0.30388 0.0
C576 C 0.4831 0.43149 0.18096 0.0
C577 C 0.4893 0.39004 0.18179 0.0
C578 C 0.45925 0.45058 0.20307 0.0
C579 C 0.44059 0.42768 0.22641 0.0
C580 C 0.44462 0.38561 0.22625 0.0
C581 C 0.46912 0.36731 0.20409 0.0
C582 C 0.45589 0.49554 0.20244 0.0
C583 C 0.42456 0.36008 0.25035 0.0
C584 C 0.42343 0.48346 0.30126 0.0
C585 C 0.38373 0.49632 0.29807 0.0
C586 C 0.44176 0.45984 0.27864 0.0
C587 C 0.4198 0.44825 0.25228 0.0
C588 C 0.37907 0.45902 0.24977 0.0
C589 C 0.36157 0.48307 0.2726 0.0
C590 C 0.48532 0.44913 0.28218 0.0
C591 C 0.35447 0.4467 0.22229 0.0
H592 H 0.49846 0.44945 0.16392 0.0
H593 H 0.47339 0.33525 0.20484 0.0
H594 H 0.4241 0.50476 0.2031 0.0
H595 H 0.47056 0.5082 0.22314 0.0
H596 H 0.47001 0.50877 0.18167 0.0
H597 H 0.42656 0.32776 0.24487 0.0
H598 H 0.43891 0.3652 0.27301 0.0
H599 H 0.39265 0.36843 0.25266 0.0
H600 H 0.44094 0.49339 0.32076 0.0
H601 H 0.33083 0.49256 0.26992 0.0
H602 H 0.50296 0.46403 0.26385 0.0
H603 H 0.48962 0.41649 0.27949 0.0
H604 H 0.4975 0.45827 0.30488 0.0
H605 H 0.36492 0.46302 0.20157 0.0
H606 H 0.32221 0.45314 0.22558 0.0
H607 H 0.35822 0.41436 0.21767 0.0
C608 C 0.9688 0.62139 0.71138 0.0
C609 C 0.98812 0.60163 0.68708 0.0
C610 C 0.94509 0.60027 0.73259 0.0
C611 C 0.94127 0.55834 0.72979 0.0
C612 C 0.95897 0.53858 0.70443 0.0
C613 C 0.98176 0.56049 0.68326 0.0
C614 C 0.92578 0.62255 0.75884 0.0
C615 C 0.95609 0.49384 0.70073 0.0
C616 C 0.92894 0.49423 0.80124 0.0
C617 C 0.88947 0.48084 0.79826 0.0
C618 C 0.94571 0.52045 0.77962 0.0
C619 C 0.92222 0.5344 0.75472 0.0
C620 C 0.8817 0.5228 0.75253 0.0
C621 C 0.86592 0.49578 0.77413 0.0
C622 C 0.98924 0.53152 0.78255 0.0
C623 C 0.85543 0.53775 0.72675 0.0
H624 H 0.97323 0.65317 0.71445 0.0
H625 H 0.99651 0.54479 0.66466 0.0
H626 H 0.89423 0.61318 0.76161 0.0
H627 H 0.94151 0.61535 0.78062 0.0
H628 H 0.92674 0.65539 0.75536 0.0
H629 H 0.96927 0.48338 0.67871 0.0
H630 H 0.97201 0.47894 0.71999 0.0
H631 H 0.9245 0.4841 0.7017 0.0
H632 H 0.94748 0.48267 0.81965 0.0
H633 H 0.83531 0.4858 0.77176 0.0
H634 H 0.99275 0.56442 0.78239 0.0
H635 H 0.00607 0.51965 0.76254 0.0
H636 H 0.00292 0.51955 0.80395 0.0
H637 H 0.85811 0.57063 0.72442 0.0
H638 H 0.82355 0.53004 0.73046 0.0
H639 H 0.86525 0.5244 0.70466 0.0
C640 C 0.98802 0.9397 0.79699 0.0
C641 C 0.99488 0.89857 0.79373 0.0
C642 C 0.96844 0.96163 0.774 0.0
C643 C 0.9548 0.94197 0.74718 0.0
C644 C 0.95956 0.90015 0.74443 0.0
C645 C 0.97974 0.87895 0.76766 0.0
C646 C 0.96406 0.00625 0.77782 0.0
C647 C 0.9448 0.87805 0.71641 0.0
C648 C 0.88284 0.00477 0.70025 0.0
C649 C 0.90879 0.0232 0.67919 0.0
C650 C 0.89685 0.97612 0.72126 0.0
C651 C 0.93784 0.96593 0.72142 0.0
C652 C 0.96359 0.98233 0.69887 0.0
C653 C 0.94871 0.01057 0.6779 0.0
C654 C 0.86828 0.95873 0.74456 0.0
C655 C 0.00754 0.97231 0.69827 0.0
H656 H -0.00052 0.95529 0.81696 0.0
H657 H 0.98466 0.84718 0.76491 0.0
H658 H 0.98138 0.02184 0.75965 0.0
H659 H 0.93237 0.01516 0.77509 0.0
H660 H 0.97472 0.01674 0.80062 0.0
H661 H 0.94667 0.84516 0.71934 0.0
H662 H 0.91341 0.88631 0.71134 0.0
H663 H 0.96296 0.88664 0.6961 0.0
H664 H 0.85184 0.01395 0.70127 0.0
H665 H 0.96905 0.02449 0.66174 0.0
H666 H 0.87443 0.97178 0.76753 0.0
H667 H 0.87246 0.92597 0.7465 0.0
H668 H 0.83666 0.96496 0.73854 0.0
H669 H 0.0222 0.98497 0.71897 0.0
H670 H 0.02267 0.98442 0.67751 0.0
H671 H 0.01202 0.93952 0.69893 0.0
C672 C 0.62516 0.95064 0.8038 0.0
C673 C 0.60189 0.97841 0.82007 0.0
C674 C 0.60741 0.92271 0.78393 0.0
C675 C 0.5655 0.92301 0.77983 0.0
C676 C 0.54172 0.94931 0.79758 0.0
C677 C 0.56015 0.97641 0.81762 0.0
C678 C 0.63369 0.89436 0.7661 0.0
C679 C 0.4969 0.95072 0.7939 0.0
C680 C 0.51902 0.89803 0.70278 0.0
C681 C 0.49929 0.862 0.7092 0.0
C682 C 0.54237 0.91708 0.72514 0.0
C683 C 0.54666 0.89952 0.75461 0.0
C684 C 0.52948 0.86168 0.76051 0.0
C685 C 0.50584 0.84342 0.73778 0.0
C686 C 0.56019 0.95741 0.71781 0.0
C687 C 0.53403 0.84156 0.79141 0.0
H688 H 0.65739 0.95152 0.80578 0.0
H689 H 0.54176 0.9975 0.83014 0.0
H690 H 0.6211 0.86374 0.76653 0.0
H691 H 0.63509 0.90398 0.74168 0.0
H692 H 0.66457 0.89342 0.77538 0.0
H693 H 0.48247 0.9706 0.81107 0.0
H694 H 0.48934 0.96175 0.77052 0.0
H695 H 0.48403 0.92039 0.79625 0.0
H696 H 0.51459 0.91259 0.68076 0.0
H697 H 0.49103 0.81548 0.74302 0.0
H698 H 0.59244 0.95775 0.7235 0.0
H699 H 0.5455 0.98062 0.73208 0.0
H700 H 0.55656 0.96562 0.69319 0.0
H701 H 0.5653 0.8436 0.79965 0.0
H702 H 0.52517 0.80963 0.79059 0.0
H703 H 0.51488 0.8569 0.80855 0.0
C704 C 0.55844 0.52521 0.68656 0.0
C705 C 0.60033 0.52454 0.68599 0.0
C706 C 0.53763 0.55149 0.70589 0.0
C707 C 0.55915 0.57824 0.72485 0.0
C708 C 0.60125 0.58002 0.72254 0.0
C709 C 0.62139 0.55293 0.70332 0.0
C710 C 0.4927 0.54857 0.70761 0.0
C711 C 0.62519 0.60892 0.7417 0.0
C712 C 0.49413 0.65443 0.7661 0.0
C713 C 0.48666 0.63476 0.79411 0.0
C714 C 0.51967 0.63766 0.74388 0.0
C715 C 0.53782 0.60022 0.7497 0.0
C716 C 0.53242 0.58157 0.77866 0.0
C717 C 0.50718 0.59914 0.80052 0.0
C718 C 0.52533 0.65893 0.71355 0.0
C719 C 0.55127 0.54165 0.7859 0.0
H720 H 0.54175 0.50366 0.67315 0.0
H721 H 0.65372 0.55312 0.70276 0.0
H722 H 0.48387 0.53651 0.73043 0.0
H723 H 0.47897 0.57855 0.7053 0.0
H724 H 0.48023 0.52884 0.68948 0.0
H725 H 0.65653 0.61131 0.73356 0.0
H726 H 0.61137 0.63902 0.74126 0.0
H727 H 0.62554 0.5987 0.76599 0.0
H728 H 0.4787 0.68207 0.7609 0.0
H729 H 0.50208 0.58379 0.82213 0.0
H730 H 0.5076 0.64367 0.69551 0.0
H731 H 0.55707 0.65801 0.70631 0.0
H732 H 0.51548 0.69057 0.7147 0.0
H733 H 0.53856 0.51846 0.77055 0.0
H734 H 0.54623 0.53237 0.81015 0.0
H735 H 0.58387 0.54269 0.7816 0.0
C736 C 0.12981 0.70527 0.20524 0.0
C737 C 0.10549 0.67206 0.20042 0.0
C738 C 0.12166 0.73204 0.22898 0.0
C739 C 0.0888 0.72479 0.24879 0.0
C740 C 0.06299 0.6922 0.24313 0.0
C741 C 0.07151 0.66622 0.21866 0.0
C742 C 0.14949 0.76703 0.23367 0.0
C743 C 0.0281 0.68315 0.26395 0.0
C744 C 0.12162 0.77184 0.32165 0.0
C745 C 0.10684 0.81041 0.31714 0.0
C746 C 0.11015 0.74083 0.30208 0.0
C747 C 0.08491 0.74951 0.27681 0.0
C748 C 0.06564 0.78705 0.27494 0.0
C749 C 0.07676 0.81729 0.29547 0.0
C750 C 0.1298 0.7006 0.30587 0.0
C751 C 0.03795 0.79716 0.2487 0.0
H752 H 0.15572 0.70993 0.19068 0.0
H753 H 0.05283 0.64029 0.2148 0.0
H754 H 0.13224 0.7952 0.23553 0.0
H755 H 0.16637 0.76304 0.25543 0.0
H756 H 0.1713 0.77023 0.21458 0.0
H757 H 0.00556 0.66422 0.2522 0.0
H758 H 0.03901 0.6667 0.28448 0.0
H759 H 0.01343 0.71087 0.27212 0.0
H760 H 0.14456 0.76666 0.33884 0.0
H761 H 0.06531 0.84731 0.29224 0.0
H762 H 0.15833 0.70031 0.29288 0.0
H763 H 0.11069 0.67619 0.297 0.0
H764 H 0.13662 0.69456 0.33045 0.0
H765 H 0.05595 0.80561 0.22826 0.0
H766 H 0.01818 0.82269 0.25458 0.0
H767 H 0.01925 0.77116 0.2423 0.0
C768 C 0.82573 0.07087 0.21781 0.0
C769 C 0.81294 0.09406 0.19288 0.0
C770 C 0.79976 0.06296 0.24243 0.0
C771 C 0.76047 0.07852 0.24159 0.0
C772 C 0.74617 0.09712 0.21444 0.0
C773 C 0.77287 0.10518 0.1905 0.0
C774 C 0.81592 0.04247 0.27074 0.0
C775 C 0.70418 0.11328 0.21223 0.0
C776 C 0.68116 0.06861 0.30326 0.0
C777 C 0.68375 0.10638 0.31695 0.0
C778 C 0.70793 0.05741 0.27992 0.0
C779 C 0.7379 0.08459 0.27057 0.0
C780 C 0.74272 0.12119 0.28645 0.0
C781 C 0.71536 0.13174 0.30931 0.0
C782 C 0.702 0.01805 0.26376 0.0
C783 C 0.77489 0.15072 0.27772 0.0
H784 H 0.85696 0.0626 0.21958 0.0
H785 H 0.76326 0.12317 0.17107 0.0
H786 H 0.79286 0.02347 0.28173 0.0
H787 H 0.84239 0.0238 0.26521 0.0
H788 H 0.82514 0.06537 0.28773 0.0
H789 H 0.69585 0.12057 0.18811 0.0
H790 H 0.68241 0.09146 0.22154 0.0
H791 H 0.70179 0.14094 0.22614 0.0
H792 H 0.65666 0.04896 0.30926 0.0
H793 H 0.71767 0.16067 0.32035 0.0
H794 H 0.73094 0.00454 0.25703 0.0
H795 H 0.68444 0.02306 0.24245 0.0
H796 H 0.68539 0.99655 0.27843 0.0
H797 H 0.80438 0.13572 0.27673 0.0
H798 H 0.77682 0.17596 0.2942 0.0
H799 H 0.76858 0.16311 0.25452 0.0
C800 C 0.38451 0.71755 0.3103 0.0
C801 C 0.40147 0.67944 0.31059 0.0
C802 C 0.39478 0.74515 0.28749 0.0
C803 C 0.42188 0.73375 0.26403 0.0
C804 C 0.44276 0.69712 0.26654 0.0
C805 C 0.43229 0.67019 0.29002 0.0
C806 C 0.37259 0.78438 0.28641 0.0
C807 C 0.47278 0.68437 0.24263 0.0
C808 C 0.37723 0.77426 0.19165 0.0
C809 C 0.39628 0.81126 0.18969 0.0
C810 C 0.38905 0.74606 0.21356 0.0
C811 C 0.42023 0.75563 0.23432 0.0
C812 C 0.44279 0.79088 0.22982 0.0
C813 C 0.4305 0.81851 0.20734 0.0
C814 C 0.36489 0.70823 0.2168 0.0
C815 C 0.47683 0.80169 0.2509 0.0
H816 H 0.3609 0.72466 0.32652 0.0
H817 H 0.44541 0.64058 0.29037 0.0
H818 H 0.39238 0.80903 0.2789 0.0
H819 H 0.34768 0.78212 0.26966 0.0
H820 H 0.35992 0.79222 0.30921 0.0
H821 H 0.49466 0.66289 0.25243 0.0
H822 H 0.45698 0.66931 0.22345 0.0
H823 H 0.48909 0.71033 0.23299 0.0
H824 H 0.35108 0.76861 0.17758 0.0
H825 H 0.44527 0.84722 0.2057 0.0
H826 H 0.34536 0.71052 0.23737 0.0
H827 H 0.38476 0.68209 0.2201 0.0
H828 H 0.34572 0.70277 0.19637 0.0
H829 H 0.46479 0.81683 0.27162 0.0
H830 H 0.49798 0.82246 0.23944 0.0
H831 H 0.49332 0.77475 0.25863 0.0
C832 C 0.70925 0.36635 0.18323 0.0
C833 C 0.67358 0.38752 0.18001 0.0
C834 C 0.73644 0.37631 0.20635 0.0
C835 C 0.7269 0.40734 0.22723 0.0
C836 C 0.69254 0.43109 0.22233 0.0
C837 C 0.66624 0.42102 0.19842 0.0
C838 C 0.77345 0.35102 0.21018 0.0
C839 C 0.68143 0.46452 0.24391 0.0
C840 C 0.76713 0.37229 0.3027 0.0
C841 C 0.80454 0.39065 0.3027 0.0
C842 C 0.73891 0.38176 0.28017 0.0
C843 C 0.74915 0.40922 0.25663 0.0
C844 C 0.78523 0.43101 0.25858 0.0
C845 C 0.81259 0.42161 0.28193 0.0
C846 C 0.70009 0.35891 0.27959 0.0
C847 C 0.7971 0.46066 0.23408 0.0
H848 H 0.71491 0.34071 0.16863 0.0
H849 H 0.63845 0.4373 0.19581 0.0
H850 H 0.79979 0.36984 0.21541 0.0
H851 H 0.76916 0.33003 0.22969 0.0
H852 H 0.77999 0.33334 0.18924 0.0
H853 H 0.66145 0.48652 0.23251 0.0
H854 H 0.66534 0.45192 0.26401 0.0
H855 H 0.70825 0.48025 0.25262 0.0
H856 H 0.76094 0.3487 0.31917 0.0
H857 H 0.84168 0.43577 0.2821 0.0
H858 H 0.70164 0.33545 0.26162 0.0
H859 H 0.67484 0.379 0.27379 0.0
H860 H 0.69379 0.34425 0.30203 0.0
H861 H 0.77091 0.47772 0.22562 0.0
H862 H 0.81005 0.44435 0.21422 0.0
H863 H 0.8199 0.48193 0.24273 0.0
C864 C 0.97316 0.19119 0.70704 0.0
C865 C 0.93951 0.20531 0.69124 0.0
C866 C 0.98695 0.21112 0.73338 0.0
C867 C 0.96629 0.24545 0.7437 0.0
C868 C 0.93655 0.263 0.72471 0.0
C869 C 0.92325 0.24234 0.69883 0.0
C870 C 0.02077 0.19297 0.75151 0.0
C871 C 0.91488 0.30085 0.73371 0.0
C872 C 0.9181 0.26213 0.81809 0.0
C873 C 0.93019 0.30152 0.82288 0.0
C874 C 0.93634 0.23897 0.79537 0.0
C875 C 0.96625 0.25655 0.7767 0.0
C876 C 0.98401 0.29283 0.78598 0.0
C877 C 0.96542 0.31538 0.80912 0.0
C878 C 0.91871 0.19868 0.78792 0.0
C879 C 0.01855 0.31063 0.76853 0.0
H880 H 0.98635 0.16282 0.70062 0.0
H881 H 0.898 0.25367 0.68583 0.0
H882 H 0.03359 0.21412 0.76845 0.0
H883 H 0.00988 0.16615 0.76392 0.0
H884 H 0.04478 0.18297 0.73565 0.0
H885 H 0.89554 0.31227 0.71488 0.0
H886 H 0.89578 0.29508 0.7541 0.0
H887 H 0.93647 0.32456 0.73985 0.0
H888 H 0.89171 0.25098 0.82975 0.0
H889 H 0.9756 0.34554 0.81358 0.0
H890 H 0.94268 0.17678 0.78301 0.0
H891 H 0.89965 0.20116 0.7671 0.0
H892 H 0.90009 0.18705 0.8071 0.0
H893 H 0.03784 0.32836 0.78416 0.0
H894 H 0.00706 0.33108 0.75048 0.0
H895 H 0.03681 0.28717 0.75724 0.0
C896 C 0.27792 0.88026 0.69054 0.0
C897 C 0.31762 0.89159 0.69482 0.0
C898 C 0.24876 0.89091 0.71202 0.0
C899 C 0.26021 0.91221 0.73875 0.0
C900 C 0.29926 0.92804 0.74101 0.0
C901 C 0.32776 0.91755 0.71875 0.0
C902 C 0.20711 0.87448 0.70817 0.0
C903 C 0.31236 0.95159 0.76877 0.0
C904 C 0.17454 0.92387 0.79475 0.0
C905 C 0.17634 0.88676 0.80961 0.0
C906 C 0.20374 0.93468 0.77308 0.0
C907 C 0.23528 0.9078 0.76671 0.0
C908 C 0.23921 0.87225 0.78417 0.0
C909 C 0.20941 0.86201 0.8052 0.0
C910 C 0.19863 0.97295 0.75519 0.0
C911 C 0.27299 0.84316 0.77866 0.0
H912 H 0.27032 0.86036 0.67174 0.0
H913 H 0.35867 0.92623 0.72187 0.0
H914 H 0.20349 0.84777 0.72305 0.0
H915 H 0.18445 0.89681 0.71525 0.0
H916 H 0.20114 0.86551 0.68399 0.0
H917 H 0.33877 0.97041 0.76345 0.0
H918 H 0.28793 0.97092 0.77743 0.0
H919 H 0.32071 0.93061 0.78749 0.0
H920 H 0.14881 0.94301 0.79822 0.0
H921 H 0.21082 0.83356 0.81706 0.0
H922 H 0.18196 0.96661 0.73369 0.0
H923 H 0.22782 0.98609 0.74871 0.0
H924 H 0.18131 0.99529 0.76857 0.0
H925 H 0.26977 0.8295 0.75554 0.0
H926 H 0.27356 0.81877 0.79594 0.0
H927 H 0.30209 0.85887 0.77927 0.0
C928 C 0.59249 0.19348 0.80672 0.0
C929 C 0.62183 0.16498 0.79981 0.0
C930 C 0.58772 0.22771 0.78824 0.0
C931 C 0.61268 0.23323 0.76224 0.0
C932 C 0.64062 0.20332 0.7542 0.0
C933 C 0.64489 0.1697 0.77308 0.0
C934 C 0.55763 0.25898 0.79754 0.0
C935 C 0.66774 0.20782 0.7266 0.0
C936 C 0.59674 0.31106 0.69964 0.0
C937 C 0.62578 0.33941 0.70751 0.0
C938 C 0.59032 0.2772 0.7182 0.0
C939 C 0.61328 0.27187 0.74528 0.0
C940 C 0.6408 0.30168 0.75425 0.0
C941 C 0.64679 0.33492 0.73524 0.0
C942 C 0.56073 0.24605 0.70789 0.0
C943 C 0.6657 0.29739 0.78307 0.0
H944 H 0.57464 0.19006 0.82737 0.0
H945 H 0.66728 0.14755 0.76733 0.0
H946 H 0.5735 0.28545 0.80674 0.0
H947 H 0.54006 0.26902 0.77732 0.0
H948 H 0.5368 0.24784 0.81549 0.0
H949 H 0.68515 0.18026 0.72188 0.0
H950 H 0.65012 0.21545 0.7058 0.0
H951 H 0.68902 0.23263 0.73064 0.0
H952 H 0.58034 0.31434 0.67828 0.0
H953 H 0.66886 0.35698 0.74176 0.0
H954 H 0.54153 0.23661 0.72738 0.0
H955 H 0.57704 0.21922 0.69975 0.0
H956 H 0.54144 0.25702 0.68888 0.0
H957 H 0.68249 0.32507 0.78851 0.0
H958 H 0.68746 0.2727 0.78006 0.0
H959 H 0.64657 0.28972 0.80305 0.0
C960 C 0.26443 0.62087 0.80335 0.0
C961 C 0.30269 0.60434 0.80473 0.0
C962 C 0.23708 0.6081 0.78123 0.0
C963 C 0.24878 0.57858 0.7597 0.0
C964 C 0.28547 0.55819 0.76363 0.0
C965 C 0.31224 0.5714 0.78632 0.0
C966 C 0.19766 0.62978 0.77863 0.0
C967 C 0.29847 0.52578 0.74177 0.0
C968 C 0.16495 0.56523 0.70304 0.0
C969 C 0.17276 0.59775 0.68369 0.0
C970 C 0.19215 0.55474 0.72631 0.0
C971 C 0.22752 0.57737 0.72979 0.0
C972 C 0.23768 0.60648 0.70744 0.0
C973 C 0.20981 0.61672 0.68486 0.0
C974 C 0.18084 0.52258 0.74898 0.0
C975 C 0.27563 0.63059 0.70958 0.0
H976 H 0.25689 0.6458 0.8182 0.0
H977 H 0.34184 0.55838 0.78767 0.0
H978 H 0.19867 0.65058 0.75872 0.0
H979 H 0.17298 0.6084 0.77462 0.0
H980 H 0.19079 0.64738 0.79963 0.0
H981 H 0.32047 0.50546 0.75279 0.0
H982 H 0.27265 0.50803 0.73358 0.0
H983 H 0.31293 0.53958 0.72139 0.0
H984 H 0.13618 0.5505 0.7019 0.0
H985 H 0.21581 0.64158 0.6695 0.0
H986 H 0.16398 0.53617 0.76829 0.0
H987 H 0.20757 0.50756 0.75865 0.0
H988 H 0.16134 0.49986 0.73803 0.0
H989 H 0.27174 0.65446 0.72703 0.0
H990 H 0.28309 0.6448 0.68726 0.0
H991 H 0.30122 0.61176 0.71669 0.0
C992 C 0.98438 0.54418 0.06922 0.0
C993 C 0.01783 0.56729 0.0621 0.0
C994 C 0.96075 0.52821 0.0456 0.0
C995 C 0.97059 0.53671 0.01454 0.0
C996 C 0.00205 0.56338 0.00765 0.0
C997 C 0.02584 0.57775 0.03158 0.0
C998 C 0.92779 0.49943 0.05379 0.0
C999 C 0.01269 0.57413 0.97489 0.0
C1000 C 0.95993 0.45638 0.95445 0.0
C1001 C 0.92531 0.46832 0.93901 0.0
C1002 C 0.97394 0.47769 0.97983 0.0
C1003 C 0.95341 0.51248 0.9894 0.0
C1004 C 0.91842 0.52484 0.97383 0.0
C1005 C 0.9044 0.50218 0.94893 0.0
C1006 C 0.01097 0.46308 0.99625 0.0
C1007 C 0.89649 0.56238 0.98294 0.0
H1008 H 0.97845 0.53627 0.093 0.0
H1009 H 0.05156 0.59621 0.02635 0.0
H1010 H 0.90084 0.50501 0.03962 0.0
H1011 H 0.93793 0.46852 0.04896 0.0
H1012 H 0.9195 0.50137 0.07851 0.0
H1013 H 0.03281 0.60044 0.97378 0.0
H1014 H 0.02805 0.54852 0.96386 0.0
H1015 H 0.98543 0.58064 0.96129 0.0
H1016 H 0.97572 0.4298 0.94704 0.0
H1017 H 0.87755 0.5113 0.9369 0.0
H1018 H 0.00506 0.46006 0.02128 0.0
H1019 H 0.0354 0.48511 0.99341 0.0
H1020 H 0.02148 0.43383 0.98736 0.0
H1021 H 0.88943 0.56189 0.00788 0.0
H1022 H 0.86832 0.56638 0.96981 0.0
H1023 H 0.91587 0.58868 0.97877 0.0
C1024 C 0.05241 0.98065 0.94488 0.0
C1025 C 0.02722 0.95347 0.93007 0.0
C1026 C 0.03949 0.00143 0.97102 0.0
C1027 C -0.0 0.99589 0.98174 0.0
C1028 C 0.97393 0.96962 0.96604 0.0
C1029 C 0.98818 0.94802 0.94069 0.0
C1030 C 0.06848 0.02825 0.98773 0.0
C1031 C 0.93116 0.96415 0.97613 0.0
C1032 C 0.97309 0.0197 0.06457 0.0
C1033 C 0.95796 0.05844 0.06162 0.0
C1034 C 0.98792 -0.00072 0.0388 0.0
C1035 C 0.98596 0.0176 0.00942 0.0
C1036 C 0.97031 0.05662 0.00639 0.0
C1037 C 0.95717 0.07686 0.03267 0.0
C1038 C 0.00564 0.95818 0.04299 0.0
C1039 C 0.96649 0.0766 0.97533 0.0
H1040 H 0.08285 0.98426 0.93688 0.0
H1041 H 0.96882 0.92692 0.92912 0.0
H1042 H 0.05677 0.0592 0.98855 0.0
H1043 H 0.07196 0.01796 0.01187 0.0
H1044 H 0.09835 0.02876 0.97664 0.0
H1045 H 0.91412 0.94465 0.9602 0.0
H1046 H 0.93027 0.95072 -0.00053 0.0
H1047 H 0.91597 0.99354 0.97751 0.0
H1048 H 0.97367 0.00561 0.08705 0.0
H1049 H 0.94486 0.10667 0.03038 0.0
H1050 H 0.03623 0.95728 0.0332 0.0
H1051 H 0.98755 0.93587 0.03036 0.0
H1052 H 0.00709 0.94919 0.06759 0.0
H1053 H 0.99626 0.07956 0.96443 0.0
H1054 H 0.95275 0.10672 0.97693 0.0
H1055 H 0.94794 0.05791 0.95986 0.0
C1056 C 0.46844 0.95689 0.0564 0.0
C1057 C 0.43217 0.97153 0.06776 0.0
C1058 C 0.48644 0.97411 0.03045 0.0
C1059 C 0.46816 0.00734 0.01596 0.0
C1060 C 0.43205 0.02291 0.02785 0.0
C1061 C 0.41422 0.0045 0.05344 0.0
C1062 C 0.52474 0.95632 0.01823 0.0
C1063 C 0.41228 0.05895 0.01355 0.0
C1064 C 0.54029 0.06788 0.96794 0.0
C1065 C 0.53214 0.05389 0.93828 0.0
C1066 C 0.51789 0.05485 0.99324 0.0
C1067 C 0.48757 0.02607 0.98878 0.0
C1068 C 0.47836 0.01286 0.9586 0.0
C1069 C 0.50059 0.02738 0.93351 0.0
C1070 C 0.52792 0.07055 0.02487 0.0
C1071 C 0.44672 0.98167 0.95302 0.0
H1072 H 0.48219 0.93116 0.06723 0.0
H1073 H 0.38617 0.01593 0.06223 0.0
H1074 H 0.52085 0.94762 0.99378 0.0
H1075 H 0.54895 0.97884 0.01908 0.0
H1076 H 0.53436 0.92965 0.03152 0.0
H1077 H 0.38478 0.06795 0.02604 0.0
H1078 H 0.43332 0.08451 0.01339 0.0
H1079 H 0.40438 0.05258 0.98926 0.0
H1080 H 0.56485 0.08846 0.9714 0.0
H1081 H 0.4948 0.01636 0.91049 0.0
H1082 H 0.542 0.04654 0.03873 0.0
H1083 H 0.50039 0.07993 0.03708 0.0
H1084 H 0.54876 0.09629 0.02389 0.0
H1085 H 0.45631 0.95292 0.96338 0.0
H1086 H 0.44105 0.97689 0.9281 0.0
H1087 H 0.41832 0.99036 0.96429 0.0
C1088 C 0.46101 0.58317 0.95645 0.0
C1089 C 0.45999 0.56711 0.92673 0.0
C1090 C 0.47677 0.56126 0.98106 0.0
C1091 C 0.49321 0.52304 0.97548 0.0
C1092 C 0.49391 0.50747 0.94517 0.0
C1093 C 0.47646 0.52944 0.92117 0.0
C1094 C 0.47431 0.5783 0.01318 0.0
C1095 C 0.51255 0.46744 0.93821 0.0
C1096 C 0.56083 0.481 0.0375 0.0
C1097 C 0.53586 0.45265 0.05124 0.0
C1098 C 0.54764 0.50361 0.01231 0.0
C1099 C 0.50806 0.49871 0.00159 0.0
C1100 C 0.48238 0.47085 0.01607 0.0
C1101 C 0.49694 0.44746 0.04037 0.0
C1102 C 0.57625 0.53199 0.99672 0.0
C1103 C 0.43954 0.46588 0.00599 0.0
H1104 H 0.44778 0.6122 0.96072 0.0
H1105 H 0.47577 0.51725 0.89807 0.0
H1106 H 0.45601 0.55838 0.02794 0.0
H1107 H 0.50445 0.57989 0.02362 0.0
H1108 H 0.4609 0.60863 0.0135 0.0
H1109 H 0.51409 0.46145 0.9131 0.0
H1110 H 0.54317 0.46598 0.94789 0.0
H1111 H 0.4949 0.44337 0.94925 0.0
H1112 H 0.59119 0.4844 0.04573 0.0
H1113 H 0.47777 0.42545 0.05116 0.0
H1114 H 0.56459 0.56293 0.99788 0.0
H1115 H 0.57908 0.52417 0.972 0.0
H1116 H 0.6064 0.53134 0.00734 0.0
H1117 H 0.42395 0.49512 0.00667 0.0
H1118 H 0.42299 0.44443 0.02074 0.0
H1119 H 0.43847 0.45514 0.98188 0.0
C1120 C 0.04286 0.962 0.44369 0.0
C1121 C 0.07424 0.9801 0.42767 0.0
C1122 C 0.02427 0.98152 0.46825 0.0
C1123 C 0.03647 0.02062 0.4761 0.0
C1124 C 0.06738 0.03954 0.45933 0.0
C1125 C 0.08653 0.01863 0.43559 0.0
C1126 C 0.99219 0.95998 0.48619 0.0
C1127 C 0.08007 0.08177 0.4664 0.0
C1128 C 0.96001 0.07842 0.52194 0.0
C1129 C 0.97579 0.07579 0.55169 0.0
C1130 C 0.98046 0.06213 0.49683 0.0
C1131 C 0.0167 0.04148 0.50195 0.0
C1132 C 0.03279 0.03881 0.53203 0.0
C1133 C 0.01239 0.05674 0.55657 0.0
C1134 C 0.96311 0.06667 0.46493 0.0
C1135 C 0.07073 0.0159 0.53843 0.0
H1136 H 0.0338 0.93193 0.43771 0.0
H1137 H 0.11077 0.03253 0.423 0.0
H1138 H 0.00049 0.95859 0.5109 0.0
H1139 H 0.96361 0.97656 0.4846 0.0
H1140 H 0.98726 0.92909 0.47774 0.0
H1141 H 0.10316 0.09281 0.45014 0.0
H1142 H 0.05387 0.10201 0.46534 0.0
H1143 H 0.09218 0.08345 0.49011 0.0
H1144 H 0.93188 0.09374 0.51825 0.0
H1145 H 0.02437 0.05475 0.5797 0.0
H1146 H 0.95396 0.03708 0.45599 0.0
H1147 H 0.98597 0.07875 0.44895 0.0
H1148 H 0.93671 0.08676 0.4646 0.0
H1149 H 0.06673 0.98418 0.5318 0.0
H1150 H 0.07946 0.01714 0.56308 0.0
H1151 H 0.09557 0.02795 0.52436 0.0
C1152 C 0.576 0.00817 0.46104 0.0
C1153 C 0.54975 0.03481 0.44664 0.0
C1154 C 0.56359 0.98549 0.48644 0.0
C1155 C 0.52359 0.98851 0.49669 0.0
C1156 C 0.49662 0.01437 0.48138 0.0
C1157 C 0.51033 0.03794 0.4569 0.0
C1158 C 0.59351 0.95935 0.5029 0.0
C1159 C 0.45337 0.01727 0.49092 0.0
C1160 C 0.4796 0.90471 0.54436 0.0
C1161 C 0.47692 0.92262 0.5734 0.0
C1162 C 0.49525 0.92566 0.51919 0.0
C1163 C 0.50979 0.96488 0.52353 0.0
C1164 C 0.50906 0.98229 0.55323 0.0
C1165 C 0.49184 0.96118 0.57777 0.0
C1166 C 0.49437 0.90656 0.48772 0.0
C1167 C 0.52562 0.02351 0.55892 0.0
H1168 H 0.6067 0.00639 0.45325 0.0
H1169 H 0.49018 0.05864 0.4456 0.0
H1170 H 0.59616 0.96894 0.52726 0.0
H1171 H 0.58321 0.92791 0.50307 0.0
H1172 H 0.62353 0.96056 0.49209 0.0
H1173 H 0.43575 0.03671 0.47525 0.0
H1174 H 0.43965 0.98713 0.49124 0.0
H1175 H 0.45122 0.02946 0.51458 0.0
H1176 H 0.46762 0.87499 0.54097 0.0
H1177 H 0.4899 0.97484 0.60033 0.0
H1178 H 0.52462 0.90654 0.47738 0.0
H1179 H 0.47475 0.92421 0.47225 0.0
H1180 H 0.48322 0.87536 0.48847 0.0
H1181 H 0.55616 0.026 0.54922 0.0
H1182 H 0.52675 0.03089 0.58383 0.0
H1183 H 0.50678 0.04607 0.54715 0.0
C1184 C 0.50887 0.47185 0.56964 0.0
C1185 C 0.5412 0.44597 0.56579 0.0
C1186 C 0.48678 0.48495 0.54404 0.0
C1187 C 0.49692 0.47091 0.51424 0.0
C1188 C 0.52813 0.44279 0.51072 0.0
C1189 C 0.55039 0.43123 0.53654 0.0
C1190 C 0.45421 0.51551 0.54864 0.0
C1191 C 0.53912 0.42619 0.47955 0.0
C1192 C 0.42309 0.48941 0.44932 0.0
C1193 C 0.44021 0.52252 0.43463 0.0
C1194 C 0.4416 0.47166 0.47492 0.0
C1195 C 0.47741 0.4882 0.48652 0.0
C1196 C 0.49492 0.52147 0.47158 0.0
C1197 C 0.47637 0.53789 0.44554 0.0
C1198 C 0.42275 0.43545 0.48964 0.0
C1199 C 0.53277 0.54037 0.48354 0.0
H1200 H 0.50226 0.48342 0.59238 0.0
H1201 H 0.57555 0.41113 0.53381 0.0
H1202 H 0.46299 0.54399 0.53747 0.0
H1203 H 0.42615 0.50547 0.53758 0.0
H1204 H 0.44824 0.52134 0.57339 0.0
H1205 H 0.56057 0.40098 0.48131 0.0
H1206 H 0.51204 0.41573 0.46729 0.0
H1207 H 0.55285 0.44999 0.4653 0.0
H1208 H 0.39515 0.47742 0.44084 0.0
H1209 H 0.48943 0.56375 0.43441 0.0
H1210 H 0.41384 0.44242 0.51362 0.0
H1211 H 0.44469 0.41065 0.49074 0.0
H1212 H 0.39599 0.42506 0.47687 0.0
H1213 H 0.52849 0.54991 0.50777 0.0
H1214 H 0.54198 0.56671 0.46971 0.0
H1215 H 0.55744 0.51828 0.48331 0.0
C1216 C 0.99593 0.44298 0.4325 0.0
C1217 C 0.95754 0.45106 0.4215 0.0
C1218 C 0.01179 0.46479 0.45715 0.0
C1219 C 0.98785 0.49397 0.47183 0.0
C1220 C 0.94905 0.50228 0.46062 0.0
C1221 C 0.93465 0.48119 0.43512 0.0
C1222 C 0.05388 0.45629 0.4677 0.0
C1223 C 0.92218 0.53223 0.4763 0.0
C1224 C 0.01402 0.51848 0.55463 0.0
C1225 C 0.03144 0.55613 0.55128 0.0
C1226 C -0.00112 0.49818 0.52894 0.0
C1227 C 0.00306 0.51533 0.49927 0.0
C1228 C 0.02149 0.55305 0.49584 0.0
C1229 C 0.03471 0.5734 0.52205 0.0
C1230 C 0.97806 0.45867 0.53357 0.0
C1231 C 0.02786 0.57156 0.46451 0.0
H1232 H 0.0135 0.41959 0.42181 0.0
H1233 H 0.90466 0.48688 0.42681 0.0
H1234 H 0.07122 0.48445 0.46888 0.0
H1235 H 0.05341 0.44329 0.49118 0.0
H1236 H 0.06962 0.4352 0.45215 0.0
H1237 H 0.8927 0.53494 0.46479 0.0
H1238 H 0.9173 0.52322 0.5006 0.0
H1239 H 0.9365 0.56204 0.47661 0.0
H1240 H 0.01151 0.50538 0.57738 0.0
H1241 H 0.04878 0.60238 0.5196 0.0
H1242 H 0.99454 0.43469 0.52142 0.0
H1243 H 0.94762 0.45992 0.52352 0.0
H1244 H 0.97558 0.45045 0.55827 0.0
H1245 H 0.04485 0.55069 0.44961 0.0
H1246 H 0.04435 0.60026 0.46578 0.0
H1247 H 0.99873 0.57705 0.45317 0.0
loop_
_geom_bond_atom_site_label_1
_geom_bond_atom_site_label_2
_geom_bond_distance
_geom_bond_site_symmetry_2
_ccdc_geom_bond_type
Co0 O1 2.216 . S
Co0 O2 2.091 . S
Co0 O4 2.004 . S
Co0 O10 2.021 . S
Co0 O12 2.137 . S
Co0 O13 2.244 . S
O1 Co0 2.216 . S
O1 C8 1.247 . S
O2 Co0 2.091 . S
O2 C8 1.261 . S
C3 O12 1.247 . S
C3 O13 1.272 . S
O4 Co0 2.004 . S
O4 C9 1.259 . S
Co5 O6 2.061 . S
Co5 O11 2.052 . S
Co5 O13 2.135 . S
O6 Co5 2.061 . S
O6 C9 1.235 . S
C7 O10 1.238 . S
C7 O11 1.241 . S
C8 O1 1.247 . S
C8 O2 1.261 . S
C9 O4 1.259 . S
C9 O6 1.235 . S
O10 Co0 2.021 . S
O10 C7 1.238 . S
O11 Co5 2.052 . S
O11 C7 1.241 . S
O12 Co0 2.137 . S
O12 C3 1.247 . S
O13 Co0 2.244 . S
O13 C3 1.272 . S
O13 Co5 2.135 . S
Co14 O15 2.216 . S
Co14 O16 2.091 . S
Co14 O18 2.004 . S
Co14 O24 2.021 . S
Co14 O26 2.137 . S
Co14 O27 2.244 . S
O15 Co14 2.216 . S
O15 C22 1.247 . S
O16 Co14 2.091 . S
O16 C22 1.261 . S
C17 O26 1.247 . S
C17 O27 1.272 . S
O18 Co14 2.004 . S
O18 C23 1.259 . S
Co19 O20 2.061 . S
Co19 O25 2.052 . S
Co19 O27 2.135 . S
O20 Co19 2.061 . S
O20 C23 1.235 . S
C21 O24 1.238 . S
C21 O25 1.241 . S
C22 O15 1.247 . S
C22 O16 1.261 . S
C23 O18 1.259 . S
C23 O20 1.235 . S
O24 Co14 2.021 . S
O24 C21 1.238 . S
O25 Co19 2.052 . S
O25 C21 1.241 . S
O26 Co14 2.137 . S
O26 C17 1.247 . S
O27 Co14 2.244 . S
O27 C17 1.272 . S
O27 Co19 2.135 . S
Co28 O29 2.216 . S
Co28 O30 2.091 . S
Co28 O32 2.004 . S
Co28 O38 2.021 . S
Co28 O40 2.137 . S
Co28 O41 2.244 . S
O29 Co28 2.216 . S
O29 C36 1.247 . S
O30 Co28 2.091 . S
O30 C36 1.261 . S
C31 O40 1.247 . S
C31 O41 1.272 . S
O32 Co28 2.004 . S
O32 C37 1.259 . S
Co33 O34 2.061 . S
Co33 O39 2.052 . S
Co33 O41 2.135 . S
O34 Co33 2.061 . S
O34 C37 1.235 . S
C35 O38 1.238 . S
C35 O39 1.241 . S
C36 O29 1.247 . S
C36 O30 1.261 . S
C37 O32 1.259 . S
C37 O34 1.235 . S
O38 Co28 2.021 . S
O38 C35 1.238 . S
O39 Co33 2.052 . S
O39 C35 1.241 . S
O40 Co28 2.137 . S
O40 C31 1.247 . S
O41 Co28 2.244 . S
O41 C31 1.272 . S
O41 Co33 2.135 . S
Co42 O43 2.216 . S
Co42 O44 2.091 . S
Co42 O46 2.004 . S
Co42 O52 2.021 . S
Co42 O54 2.137 . S
Co42 O55 2.244 . S
O43 Co42 2.216 . S
O43 C50 1.247 . S
O44 Co42 2.091 . S
O44 C50 1.261 . S
C45 O54 1.247 . S
C45 O55 1.272 . S
O46 Co42 2.004 . S
O46 C51 1.259 . S
Co47 O48 2.061 . S
Co47 O53 2.052 . S
Co47 O55 2.135 . S
O48 Co47 2.061 . S
O48 C51 1.235 . S
C49 O52 1.238 . S
C49 O53 1.241 . S
C50 O43 1.247 . S
C50 O44 1.261 . S
C51 O46 1.259 . S
C51 O48 1.235 . S
O52 Co42 2.021 . S
O52 C49 1.238 . S
O53 Co47 2.052 . S
O53 C49 1.241 . S
O54 Co42 2.137 . S
O54 C45 1.247 . S
O55 Co42 2.244 . S
O55 C45 1.272 . S
O55 Co47 2.135 . S
Co56 O57 2.216 . S
Co56 O58 2.091 . S
Co56 O60 2.004 . S
Co56 O66 2.021 . S
Co56 O68 2.137 . S
Co56 O69 2.244 . S
O57 Co56 2.216 . S
O57 C64 1.247 . S
O58 Co56 2.091 . S
O58 C64 1.261 . S
C59 O68 1.247 . S
C59 O69 1.272 . S
O60 Co56 2.004 . S
O60 C65 1.259 . S
Co61 O62 2.061 . S
Co61 O67 2.052 . S
Co61 O69 2.135 . S
O62 Co61 2.061 . S
O62 C65 1.235 . S
C63 O66 1.238 . S
C63 O67 1.241 . S
C64 O57 1.247 . S
C64 O58 1.261 . S
C65 O60 1.259 . S
C65 O62 1.235 . S
O66 Co56 2.021 . S
O66 C63 1.238 . S
O67 Co61 2.052 . S
O67 C63 1.241 . S
O68 Co56 2.137 . S
O68 C59 1.247 . S
O69 Co56 2.244 . S
O69 C59 1.272 . S
O69 Co61 2.135 . S
Co70 O71 2.216 . S
Co70 O72 2.091 . S
Co70 O74 2.004 . S
Co70 O80 2.021 . S
Co70 O82 2.137 . S
Co70 O83 2.244 . S
O71 Co70 2.216 . S
O71 C78 1.247 . S
O72 Co70 2.091 . S
O72 C78 1.261 . S
C73 O82 1.247 . S
C73 O83 1.272 . S
O74 Co70 2.004 . S
O74 C79 1.259 . S
Co75 O76 2.061 . S
Co75 O81 2.052 . S
Co75 O83 2.135 . S
O76 Co75 2.061 . S
O76 C79 1.235 . S
C77 O80 1.238 . S
C77 O81 1.241 . S
C78 O71 1.247 . S
C78 O72 1.261 . S
C79 O74 1.259 . S
C79 O76 1.235 . S
O80 Co70 2.021 . S
O80 C77 1.238 . S
O81 Co75 2.052 . S
O81 C77 1.241 . S
O82 Co70 2.137 . S
O82 C73 1.247 . S
O83 Co70 2.244 . S
O83 C73 1.272 . S
O83 Co75 2.135 . S
Co84 O85 2.216 . S
Co84 O86 2.091 . S
Co84 O88 2.004 . S
Co84 O94 2.021 . S
Co84 O96 2.137 . S
Co84 O97 2.244 . S
O85 Co84 2.216 . S
O85 C92 1.247 . S
O86 Co84 2.091 . S
O86 C92 1.261 . S
C87 O96 1.247 . S
C87 O97 1.272 . S
O88 Co84 2.004 . S
O88 C93 1.259 . S
Co89 O90 2.061 . S
Co89 O95 2.052 . S
Co89 O97 2.135 . S
O90 Co89 2.061 . S
O90 C93 1.235 . S
C91 O94 1.238 . S
C91 O95 1.241 . S
C92 O85 1.247 . S
C92 O86 1.261 . S
C93 O88 1.259 . S
C93 O90 1.235 . S
O94 Co84 2.021 . S
O94 C91 1.238 . S
O95 Co89 2.052 . S
O95 C91 1.241 . S
O96 Co84 2.137 . S
O96 C87 1.247 . S
O97 Co84 2.244 . S
O97 C87 1.272 . S
O97 Co89 2.135 . S
Co98 O99 2.216 . S
Co98 O100 2.091 . S
Co98 O102 2.004 . S
Co98 O108 2.021 . S
Co98 O110 2.137 . S
Co98 O111 2.244 . S
O99 Co98 2.216 . S
O99 C106 1.247 . S
O100 Co98 2.091 . S
O100 C106 1.261 . S
C101 O110 1.247 . S
C101 O111 1.272 . S
O102 Co98 2.004 . S
O102 C107 1.259 . S
Co103 O104 2.061 . S
Co103 O109 2.052 . S
Co103 O111 2.135 . S
O104 Co103 2.061 . S
O104 C107 1.235 . S
C105 O108 1.238 . S
C105 O109 1.241 . S
C106 O99 1.247 . S
C106 O100 1.261 . S
C107 O102 1.259 . S
C107 O104 1.235 . S
O108 Co98 2.021 . S
O108 C105 1.238 . S
O109 Co103 2.052 . S
O109 C105 1.241 . S
O110 Co98 2.137 . S
O110 C101 1.247 . S
O111 Co98 2.244 . S
O111 C101 1.272 . S
O111 Co103 2.135 . S
Co112 O113 2.216 . S
Co112 O114 2.091 . S
Co112 O116 2.004 . S
Co112 O122 2.021 . S
Co112 O124 2.137 . S
Co112 O125 2.244 . S
O113 Co112 2.216 . S
O113 C120 1.247 . S
O114 Co112 2.091 . S
O114 C120 1.261 . S
C115 O124 1.247 . S
C115 O125 1.272 . S
O116 Co112 2.004 . S
O116 C121 1.259 . S
Co117 O118 2.061 . S
Co117 O123 2.052 . S
Co117 O125 2.135 . S
O118 Co117 2.061 . S
O118 C121 1.235 . S
C119 O122 1.238 . S
C119 O123 1.241 . S
C120 O113 1.247 . S
C120 O114 1.261 . S
C121 O116 1.259 . S
C121 O118 1.235 . S
O122 Co112 2.021 . S
O122 C119 1.238 . S
O123 Co117 2.052 . S
O123 C119 1.241 . S
O124 Co112 2.137 . S
O124 C115 1.247 . S
O125 Co112 2.244 . S
O125 C115 1.272 . S
O125 Co117 2.135 . S
Co126 O127 2.216 . S
Co126 O128 2.091 . S
Co126 O130 2.004 . S
Co126 O136 2.021 . S
Co126 O138 2.137 . S
Co126 O139 2.244 . S
O127 Co126 2.216 . S
O127 C134 1.247 . S
O128 Co126 2.091 . S
O128 C134 1.261 . S
C129 O138 1.247 . S
C129 O139 1.272 . S
O130 Co126 2.004 . S
O130 C135 1.259 . S
Co131 O132 2.061 . S
Co131 O137 2.052 . S
Co131 O139 2.135 . S
O132 Co131 2.061 . S
O132 C135 1.235 . S
C133 O136 1.238 . S
C133 O137 1.241 . S
C134 O127 1.247 . S
C134 O128 1.261 . S
C135 O130 1.259 . S
C135 O132 1.235 . S
O136 Co126 2.021 . S
O136 C133 1.238 . S
O137 Co131 2.052 . S
O137 C133 1.241 . S
O138 Co126 2.137 . S
O138 C129 1.247 . S
O139 Co126 2.244 . S
O139 C129 1.272 . S
O139 Co131 2.135 . S
Co140 O141 2.216 . S
Co140 O142 2.091 . S
Co140 O144 2.004 . S
Co140 O150 2.021 . S
Co140 O152 2.137 . S
Co140 O153 2.244 . S
O141 Co140 2.216 . S
O141 C148 1.247 . S
O142 Co140 2.091 . S
O142 C148 1.261 . S
C143 O152 1.247 . S
C143 O153 1.272 . S
O144 Co140 2.004 . S
O144 C149 1.259 . S
Co145 O146 2.061 . S
Co145 O151 2.052 . S
Co145 O153 2.135 . S
O146 Co145 2.061 . S
O146 C149 1.235 . S
C147 O150 1.238 . S
C147 O151 1.241 . S
C148 O141 1.247 . S
C148 O142 1.261 . S
C149 O144 1.259 . S
C149 O146 1.235 . S
O150 Co140 2.021 . S
O150 C147 1.238 . S
O151 Co145 2.052 . S
O151 C147 1.241 . S
O152 Co140 2.137 . S
O152 C143 1.247 . S
O153 Co140 2.244 . S
O153 C143 1.272 . S
O153 Co145 2.135 . S
Co154 O155 2.216 . S
Co154 O156 2.091 . S
Co154 O158 2.004 . S
Co154 O164 2.021 . S
Co154 O166 2.137 . S
Co154 O167 2.244 . S
O155 Co154 2.216 . S
O155 C162 1.247 . S
O156 Co154 2.091 . S
O156 C162 1.261 . S
C157 O166 1.247 . S
C157 O167 1.272 . S
O158 Co154 2.004 . S
O158 C163 1.259 . S
Co159 O160 2.061 . S
Co159 O165 2.052 . S
Co159 O167 2.135 . S
O160 Co159 2.061 . S
O160 C163 1.235 . S
C161 O164 1.238 . S
C161 O165 1.241 . S
C162 O155 1.247 . S
C162 O156 1.261 . S
C163 O158 1.259 . S
C163 O160 1.235 . S
O164 Co154 2.021 . S
O164 C161 1.238 . S
O165 Co159 2.052 . S
O165 C161 1.241 . S
O166 Co154 2.137 . S
O166 C157 1.247 . S
O167 Co154 2.244 . S
O167 C157 1.272 . S
O167 Co159 2.135 . S
Co168 O169 2.216 . S
Co168 O170 2.091 . S
Co168 O172 2.004 . S
Co168 O178 2.021 . S
Co168 O180 2.137 . S
Co168 O181 2.244 . S
O169 Co168 2.216 . S
O169 C176 1.247 . S
O170 Co168 2.091 . S
O170 C176 1.261 . S
C171 O180 1.247 . S
C171 O181 1.272 . S
O172 Co168 2.004 . S
O172 C177 1.259 . S
Co173 O174 2.061 . S
Co173 O179 2.052 . S
Co173 O181 2.135 . S
O174 Co173 2.061 . S
O174 C177 1.235 . S
C175 O178 1.238 . S
C175 O179 1.241 . S
C176 O169 1.247 . S
C176 O170 1.261 . S
C177 O172 1.259 . S
C177 O174 1.235 . S
O178 Co168 2.021 . S
O178 C175 1.238 . S
O179 Co173 2.052 . S
O179 C175 1.241 . S
O180 Co168 2.137 . S
O180 C171 1.247 . S
O181 Co168 2.244 . S
O181 C171 1.272 . S
O181 Co173 2.135 . S
Co182 O183 2.216 . S
Co182 O184 2.091 . S
Co182 O186 2.004 . S
Co182 O192 2.021 . S
Co182 O194 2.137 . S
Co182 O195 2.244 . S
O183 Co182 2.216 . S
O183 C190 1.247 . S
O184 Co182 2.091 . S
O184 C190 1.261 . S
C185 O194 1.247 . S
C185 O195 1.272 . S
O186 Co182 2.004 . S
O186 C191 1.259 . S
Co187 O188 2.061 . S
Co187 O193 2.052 . S
Co187 O195 2.135 . S
O188 Co187 2.061 . S
O188 C191 1.235 . S
C189 O192 1.238 . S
C189 O193 1.241 . S
C190 O183 1.247 . S
C190 O184 1.261 . S
C191 O186 1.259 . S
C191 O188 1.235 . S
O192 Co182 2.021 . S
O192 C189 1.238 . S
O193 Co187 2.052 . S
O193 C189 1.241 . S
O194 Co182 2.137 . S
O194 C185 1.247 . S
O195 Co182 2.244 . S
O195 C185 1.272 . S
O195 Co187 2.135 . S
Co196 O197 2.216 . S
Co196 O198 2.091 . S
Co196 O200 2.004 . S
Co196 O206 2.021 . S
Co196 O208 2.137 . S
Co196 O209 2.244 . S
O197 Co196 2.216 . S
O197 C204 1.247 . S
O198 Co196 2.091 . S
O198 C204 1.261 . S
C199 O208 1.247 . S
C199 O209 1.272 . S
O200 Co196 2.004 . S
O200 C205 1.259 . S
Co201 O202 2.061 . S
Co201 O207 2.052 . S
Co201 O209 2.135 . S
O202 Co201 2.061 . S
O202 C205 1.235 . S
C203 O206 1.238 . S
C203 O207 1.241 . S
C204 O197 1.247 . S
C204 O198 1.261 . S
C205 O200 1.259 . S
C205 O202 1.235 . S
O206 Co196 2.021 . S
O206 C203 1.238 . S
O207 Co201 2.052 . S
O207 C203 1.241 . S
O208 Co196 2.137 . S
O208 C199 1.247 . S
O209 Co196 2.244 . S
O209 C199 1.272 . S
O209 Co201 2.135 . S
Co210 O211 2.216 . S
Co210 O212 2.091 . S
Co210 O214 2.004 . S
Co210 O220 2.021 . S
Co210 O222 2.137 . S
Co210 O223 2.244 . S
O211 Co210 2.216 . S
O211 C218 1.247 . S
O212 Co210 2.091 . S
O212 C218 1.261 . S
C213 O222 1.247 . S
C213 O223 1.272 . S
O214 Co210 2.004 . S
O214 C219 1.259 . S
Co215 O216 2.061 . S
Co215 O221 2.052 . S
Co215 O223 2.135 . S
O216 Co215 2.061 . S
O216 C219 1.235 . S
C217 O220 1.238 . S
C217 O221 1.241 . S
C218 O211 1.247 . S
C218 O212 1.261 . S
C219 O214 1.259 . S
C219 O216 1.235 . S
O220 Co210 2.021 . S
O220 C217 1.238 . S
O221 Co215 2.052 . S
O221 C217 1.241 . S
O222 Co210 2.137 . S
O222 C213 1.247 . S
O223 Co210 2.244 . S
O223 C213 1.272 . S
O223 Co215 2.135 . S
C224 C225 1.391 . S
C224 C226 1.394 . S
C224 H240 0.931 . S
C225 C224 1.391 . S
C225 C229 1.376 . S
C226 C224 1.394 . S
C226 C227 1.369 . S
C226 C230 1.531 . S
C227 C226 1.369 . S
C227 C228 1.410 . S
C227 C235 1.503 . S
C228 C227 1.410 . S
C228 C229 1.392 . S
C228 C231 1.511 . S
C229 C225 1.376 . S
C229 C228 1.392 . S
C229 H241 0.929 . S
C230 C226 1.531 . S
C230 H242 0.960 . S
C230 H243 0.962 . S
C230 H244 0.960 . S
C231 C228 1.511 . S
C231 H245 0.961 . S
C231 H246 0.961 . S
C231 H247 0.961 . S
C232 C233 1.370 . S
C232 C234 1.363 . S
C232 H248 0.931 . S
C233 C232 1.370 . S
C233 C237 1.408 . S
C234 C232 1.363 . S
C234 C235 1.370 . S
C234 C238 1.524 . S
C235 C227 1.503 . S
C235 C234 1.370 . S
C235 C236 1.403 . S
C236 C235 1.403 . S
C236 C237 1.404 . S
C236 C239 1.539 . S
C237 C233 1.408 . S
C237 C236 1.404 . S
C237 H249 0.930 . S
C238 C234 1.524 . S
C238 H250 0.956 . S
C238 H251 0.961 . S
C238 H252 0.961 . S
C239 C236 1.539 . S
C239 H253 0.958 . S
C239 H254 0.961 . S
C239 H255 0.960 . S
H240 C224 0.931 . S
H241 C229 0.929 . S
H242 C230 0.960 . S
H243 C230 0.962 . S
H244 C230 0.960 . S
H245 C231 0.961 . S
H246 C231 0.961 . S
H247 C231 0.961 . S
H248 C232 0.931 . S
H249 C237 0.930 . S
H250 C238 0.956 . S
H251 C238 0.961 . S
H252 C238 0.961 . S
H253 C239 0.958 . S
H254 C239 0.961 . S
H255 C239 0.960 . S
C256 C257 1.391 . S
C256 C258 1.394 . S
C256 H272 0.931 . S
C257 C256 1.391 . S
C257 C261 1.376 . S
C258 C256 1.394 . S
C258 C259 1.369 . S
C258 C262 1.531 . S
C259 C258 1.369 . S
C259 C260 1.410 . S
C259 C267 1.503 . S
C260 C259 1.410 . S
C260 C261 1.392 . S
C260 C263 1.511 . S
C261 C257 1.376 . S
C261 C260 1.392 . S
C261 H273 0.929 . S
C262 C258 1.531 . S
C262 H274 0.960 . S
C262 H275 0.962 . S
C262 H276 0.960 . S
C263 C260 1.511 . S
C263 H277 0.961 . S
C263 H278 0.961 . S
C263 H279 0.961 . S
C264 C265 1.370 . S
C264 C266 1.363 . S
C264 H280 0.931 . S
C265 C264 1.370 . S
C265 C269 1.408 . S
C266 C264 1.363 . S
C266 C267 1.370 . S
C266 C270 1.524 . S
C267 C259 1.503 . S
C267 C266 1.370 . S
C267 C268 1.403 . S
C268 C267 1.403 . S
C268 C269 1.404 . S
C268 C271 1.539 . S
C269 C265 1.408 . S
C269 C268 1.404 . S
C269 H281 0.930 . S
C270 C266 1.524 . S
C270 H282 0.956 . S
C270 H283 0.961 . S
C270 H284 0.961 . S
C271 C268 1.539 . S
C271 H285 0.958 . S
C271 H286 0.961 . S
C271 H287 0.960 . S
H272 C256 0.931 . S
H273 C261 0.929 . S
H274 C262 0.960 . S
H275 C262 0.962 . S
H276 C262 0.960 . S
H277 C263 0.961 . S
H278 C263 0.961 . S
H279 C263 0.961 . S
H280 C264 0.931 . S
H281 C269 0.930 . S
H282 C270 0.956 . S
H283 C270 0.961 . S
H284 C270 0.961 . S
H285 C271 0.958 . S
H286 C271 0.961 . S
H287 C271 0.960 . S
C288 C289 1.391 . S
C288 C290 1.394 . S
C288 H304 0.931 . S
C289 C288 1.391 . S
C289 C293 1.376 . S
C290 C288 1.394 . S
C290 C291 1.369 . S
C290 C294 1.531 . S
C291 C290 1.369 . S
C291 C292 1.410 . S
C291 C299 1.503 . S
C292 C291 1.410 . S
C292 C293 1.392 . S
C292 C295 1.511 . S
C293 C289 1.376 . S
C293 C292 1.392 . S
C293 H305 0.929 . S
C294 C290 1.531 . S
C294 H306 0.960 . S
C294 H307 0.962 . S
C294 H308 0.960 . S
C295 C292 1.511 . S
C295 H309 0.961 . S
C295 H310 0.961 . S
C295 H311 0.961 . S
C296 C297 1.370 . S
C296 C298 1.363 . S
C296 H312 0.931 . S
C297 C296 1.370 . S
C297 C301 1.408 . S
C298 C296 1.363 . S
C298 C299 1.370 . S
C298 C302 1.524 . S
C299 C291 1.503 . S
C299 C298 1.370 . S
C299 C300 1.403 . S
C300 C299 1.403 . S
C300 C301 1.404 . S
C300 C303 1.539 . S
C301 C297 1.408 . S
C301 C300 1.404 . S
C301 H313 0.930 . S
C302 C298 1.524 . S
C302 H314 0.956 . S
C302 H315 0.961 . S
C302 H316 0.961 . S
C303 C300 1.539 . S
C303 H317 0.958 . S
C303 H318 0.961 . S
C303 H319 0.960 . S
H304 C288 0.931 . S
H305 C293 0.929 . S
H306 C294 0.960 . S
H307 C294 0.962 . S
H308 C294 0.960 . S
H309 C295 0.961 . S
H310 C295 0.961 . S
H311 C295 0.961 . S
H312 C296 0.931 . S
H313 C301 0.930 . S
H314 C302 0.956 . S
H315 C302 0.961 . S
H316 C302 0.961 . S
H317 C303 0.958 . S
H318 C303 0.961 . S
H319 C303 0.960 . S
C320 C321 1.391 . S
C320 C322 1.394 . S
C320 H336 0.931 . S
C321 C320 1.391 . S
C321 C325 1.376 . S
C322 C320 1.394 . S
C322 C323 1.369 . S
C322 C326 1.531 . S
C323 C322 1.369 . S
C323 C324 1.410 . S
C323 C331 1.503 . S
C324 C323 1.410 . S
C324 C325 1.392 . S
C324 C327 1.511 . S
C325 C321 1.376 . S
C325 C324 1.392 . S
C325 H337 0.929 . S
C326 C322 1.531 . S
C326 H338 0.960 . S
C326 H339 0.962 . S
C326 H340 0.960 . S
C327 C324 1.511 . S
C327 H341 0.961 . S
C327 H342 0.961 . S
C327 H343 0.961 . S
C328 C329 1.370 . S
C328 C330 1.363 . S
C328 H344 0.931 . S
C329 C328 1.370 . S
C329 C333 1.408 . S
C330 C328 1.363 . S
C330 C331 1.370 . S
C330 C334 1.524 . S
C331 C323 1.503 . S
C331 C330 1.370 . S
C331 C332 1.403 . S
C332 C331 1.403 . S
C332 C333 1.404 . S
C332 C335 1.539 . S
C333 C329 1.408 . S
C333 C332 1.404 . S
C333 H345 0.930 . S
C334 C330 1.524 . S
C334 H346 0.956 . S
C334 H347 0.961 . S
C334 H348 0.961 . S
C335 C332 1.539 . S
C335 H349 0.958 . S
C335 H350 0.961 . S
C335 H351 0.960 . S
H336 C320 0.931 . S
H337 C325 0.929 . S
H338 C326 0.960 . S
H339 C326 0.962 . S
H340 C326 0.960 . S
H341 C327 0.961 . S
H342 C327 0.961 . S
H343 C327 0.961 . S
H344 C328 0.931 . S
H345 C333 0.930 . S
H346 C334 0.956 . S
H347 C334 0.961 . S
H348 C334 0.961 . S
H349 C335 0.958 . S
H350 C335 0.961 . S
H351 C335 0.960 . S
C352 C353 1.391 . S
C352 C354 1.394 . S
C352 H368 0.931 . S
C353 C352 1.391 . S
C353 C357 1.376 . S
C354 C352 1.394 . S
C354 C355 1.369 . S
C354 C358 1.531 . S
C355 C354 1.369 . S
C355 C356 1.410 . S
C355 C363 1.503 . S
C356 C355 1.410 . S
C356 C357 1.392 . S
C356 C359 1.511 . S
C357 C353 1.376 . S
C357 C356 1.392 . S
C357 H369 0.929 . S
C358 C354 1.531 . S
C358 H370 0.960 . S
C358 H371 0.962 . S
C358 H372 0.960 . S
C359 C356 1.511 . S
C359 H373 0.961 . S
C359 H374 0.961 . S
C359 H375 0.961 . S
C360 C361 1.370 . S
C360 C362 1.363 . S
C360 H376 0.931 . S
C361 C360 1.370 . S
C361 C365 1.408 . S
C362 C360 1.363 . S
C362 C363 1.370 . S
C362 C366 1.524 . S
C363 C355 1.503 . S
C363 C362 1.370 . S
C363 C364 1.403 . S
C364 C363 1.403 . S
C364 C365 1.404 . S
C364 C367 1.539 . S
C365 C361 1.408 . S
C365 C364 1.404 . S
C365 H377 0.930 . S
C366 C362 1.524 . S
C366 H378 0.956 . S
C366 H379 0.961 . S
C366 H380 0.961 . S
C367 C364 1.539 . S
C367 H381 0.958 . S
C367 H382 0.961 . S
C367 H383 0.960 . S
H368 C352 0.931 . S
H369 C357 0.929 . S
H370 C358 0.960 . S
H371 C358 0.962 . S
H372 C358 0.960 . S
H373 C359 0.961 . S
H374 C359 0.961 . S
H375 C359 0.961 . S
H376 C360 0.931 . S
H377 C365 0.930 . S
H378 C366 0.956 . S
H379 C366 0.961 . S
H380 C366 0.961 . S
H381 C367 0.958 . S
H382 C367 0.961 . S
H383 C367 0.960 . S
C384 C385 1.391 . S
C384 C386 1.394 . S
C384 H400 0.931 . S
C385 C384 1.391 . S
C385 C389 1.376 . S
C386 C384 1.394 . S
C386 C387 1.369 . S
C386 C390 1.531 . S
C387 C386 1.369 . S
C387 C388 1.410 . S
C387 C395 1.503 . S
C388 C387 1.410 . S
C388 C389 1.392 . S
C388 C391 1.511 . S
C389 C385 1.376 . S
C389 C388 1.392 . S
C389 H401 0.929 . S
C390 C386 1.531 . S
C390 H402 0.960 . S
C390 H403 0.962 . S
C390 H404 0.960 . S
C391 C388 1.511 . S
C391 H405 0.961 . S
C391 H406 0.961 . S
C391 H407 0.961 . S
C392 C393 1.370 . S
C392 C394 1.363 . S
C392 H408 0.931 . S
C393 C392 1.370 . S
C393 C397 1.408 . S
C394 C392 1.363 . S
C394 C395 1.370 . S
C394 C398 1.524 . S
C395 C387 1.503 . S
C395 C394 1.370 . S
C395 C396 1.403 . S
C396 C395 1.403 . S
C396 C397 1.404 . S
C396 C399 1.539 . S
C397 C393 1.408 . S
C397 C396 1.404 . S
C397 H409 0.930 . S
C398 C394 1.524 . S
C398 H410 0.956 . S
C398 H411 0.961 . S
C398 H412 0.961 . S
C399 C396 1.539 . S
C399 H413 0.958 . S
C399 H414 0.961 . S
C399 H415 0.960 . S
H400 C384 0.931 . S
H401 C389 0.929 . S
H402 C390 0.960 . S
H403 C390 0.962 . S
H404 C390 0.960 . S
H405 C391 0.961 . S
H406 C391 0.961 . S
H407 C391 0.961 . S
H408 C392 0.931 . S
H409 C397 0.930 . S
H410 C398 0.956 . S
H411 C398 0.961 . S
H412 C398 0.961 . S
H413 C399 0.958 . S
H414 C399 0.961 . S
H415 C399 0.960 . S
C416 C417 1.391 . S
C416 C418 1.394 . S
C416 H432 0.931 . S
C417 C416 1.391 . S
C417 C421 1.376 . S
C418 C416 1.394 . S
C418 C419 1.369 . S
C418 C422 1.531 . S
C419 C418 1.369 . S
C419 C420 1.410 . S
C419 C427 1.503 . S
C420 C419 1.410 . S
C420 C421 1.392 . S
C420 C423 1.511 . S
C421 C417 1.376 . S
C421 C420 1.392 . S
C421 H433 0.929 . S
C422 C418 1.531 . S
C422 H434 0.960 . S
C422 H435 0.962 . S
C422 H436 0.960 . S
C423 C420 1.511 . S
C423 H437 0.961 . S
C423 H438 0.961 . S
C423 H439 0.961 . S
C424 C425 1.370 . S
C424 C426 1.363 . S
C424 H440 0.931 . S
C425 C424 1.370 . S
C425 C429 1.408 . S
C426 C424 1.363 . S
C426 C427 1.370 . S
C426 C430 1.524 . S
C427 C419 1.503 . S
C427 C426 1.370 . S
C427 C428 1.403 . S
C428 C427 1.403 . S
C428 C429 1.404 . S
C428 C431 1.539 . S
C429 C425 1.408 . S
C429 C428 1.404 . S
C429 H441 0.930 . S
C430 C426 1.524 . S
C430 H442 0.956 . S
C430 H443 0.961 . S
C430 H444 0.961 . S
C431 C428 1.539 . S
C431 H445 0.958 . S
C431 H446 0.961 . S
C431 H447 0.960 . S
H432 C416 0.931 . S
H433 C421 0.929 . S
H434 C422 0.960 . S
H435 C422 0.962 . S
H436 C422 0.960 . S
H437 C423 0.961 . S
H438 C423 0.961 . S
H439 C423 0.961 . S
H440 C424 0.931 . S
H441 C429 0.930 . S
H442 C430 0.956 . S
H443 C430 0.961 . S
H444 C430 0.961 . S
H445 C431 0.958 . S
H446 C431 0.961 . S
H447 C431 0.960 . S
C448 C449 1.391 . S
C448 C450 1.394 . S
C448 H464 0.931 . S
C449 C448 1.391 . S
C449 C453 1.376 . S
C450 C448 1.394 . S
C450 C451 1.369 . S
C450 C454 1.531 . S
C451 C450 1.369 . S
C451 C452 1.410 . S
C451 C459 1.503 . S
C452 C451 1.410 . S
C452 C453 1.392 . S
C452 C455 1.511 . S
C453 C449 1.376 . S
C453 C452 1.392 . S
C453 H465 0.929 . S
C454 C450 1.531 . S
C454 H466 0.960 . S
C454 H467 0.962 . S
C454 H468 0.960 . S
C455 C452 1.511 . S
C455 H469 0.961 . S
C455 H470 0.961 . S
C455 H471 0.961 . S
C456 C457 1.370 . S
C456 C458 1.363 . S
C456 H472 0.931 . S
C457 C456 1.370 . S
C457 C461 1.408 . S
C458 C456 1.363 . S
C458 C459 1.370 . S
C458 C462 1.524 . S
C459 C451 1.503 . S
C459 C458 1.370 . S
C459 C460 1.403 . S
C460 C459 1.403 . S
C460 C461 1.404 . S
C460 C463 1.539 . S
C461 C457 1.408 . S
C461 C460 1.404 . S
C461 H473 0.930 . S
C462 C458 1.524 . S
C462 H474 0.956 . S
C462 H475 0.961 . S
C462 H476 0.961 . S
C463 C460 1.539 . S
C463 H477 0.958 . S
C463 H478 0.961 . S
C463 H479 0.960 . S
H464 C448 0.931 . S
H465 C453 0.929 . S
H466 C454 0.960 . S
H467 C454 0.962 . S
H468 C454 0.960 . S
H469 C455 0.961 . S
H470 C455 0.961 . S
H471 C455 0.961 . S
H472 C456 0.931 . S
H473 C461 0.930 . S
H474 C462 0.956 . S
H475 C462 0.961 . S
H476 C462 0.961 . S
H477 C463 0.958 . S
H478 C463 0.961 . S
H479 C463 0.960 . S
C480 C481 1.391 . S
C480 C482 1.394 . S
C480 H496 0.931 . S
C481 C480 1.391 . S
C481 C485 1.376 . S
C482 C480 1.394 . S
C482 C483 1.369 . S
C482 C486 1.531 . S
C483 C482 1.369 . S
C483 C484 1.410 . S
C483 C491 1.503 . S
C484 C483 1.410 . S
C484 C485 1.392 . S
C484 C487 1.511 . S
C485 C481 1.376 . S
C485 C484 1.392 . S
C485 H497 0.929 . S
C486 C482 1.531 . S
C486 H498 0.960 . S
C486 H499 0.962 . S
C486 H500 0.960 . S
C487 C484 1.511 . S
C487 H501 0.961 1_655 S
C487 H502 0.961 1_655 S
C487 H503 0.961 . S
C488 C489 1.370 . S
C488 C490 1.363 1_455 S
C488 H504 0.931 . S
C489 C488 1.370 . S
C489 C493 1.408 1_455 S
C490 C488 1.363 1_655 S
C490 C491 1.370 . S
C490 C494 1.524 1_655 S
C491 C483 1.503 . S
C491 C490 1.370 . S
C491 C492 1.403 . S
C492 C491 1.403 . S
C492 C493 1.404 . S
C492 C495 1.539 . S
C493 C489 1.408 1_655 S
C493 C492 1.404 . S
C493 H505 0.930 . S
C494 C490 1.524 1_455 S
C494 H506 0.956 1_455 S
C494 H507 0.961 . S
C494 H508 0.961 . S
C495 C492 1.539 . S
C495 H509 0.958 . S
C495 H510 0.961 . S
C495 H511 0.960 . S
H496 C480 0.931 . S
H497 C485 0.929 . S
H498 C486 0.960 . S
H499 C486 0.962 . S
H500 C486 0.960 . S
H501 C487 0.961 1_455 S
H502 C487 0.961 1_455 S
H503 C487 0.961 . S
H504 C488 0.931 . S
H505 C493 0.930 . S
H506 C494 0.956 1_655 S
H507 C494 0.961 . S
H508 C494 0.961 . S
H509 C495 0.958 . S
H510 C495 0.961 . S
H511 C495 0.960 . S
C512 C513 1.391 1_565 S
C512 C514 1.394 . S
C512 H528 0.931 . S
C513 C512 1.391 1_545 S
C513 C517 1.376 . S
C514 C512 1.394 . S
C514 C515 1.369 . S
C514 C518 1.531 1_655 S
C515 C514 1.369 . S
C515 C516 1.410 . S
C515 C523 1.503 . S
C516 C515 1.410 . S
C516 C517 1.392 1_565 S
C516 C519 1.511 . S
C517 C513 1.376 . S
C517 C516 1.392 1_545 S
C517 H529 0.929 . S
C518 C514 1.531 1_455 S
C518 H530 0.960 . S
C518 H531 0.962 . S
C518 H532 0.960 . S
C519 C516 1.511 . S
C519 H533 0.961 . S
C519 H534 0.961 . S
C519 H535 0.961 1_565 S
C520 C521 1.370 1_655 S
C520 C522 1.363 . S
C520 H536 0.931 . S
C521 C520 1.370 1_455 S
C521 C525 1.408 . S
C522 C520 1.363 . S
C522 C523 1.370 . S
C522 C526 1.524 . S
C523 C515 1.503 . S
C523 C522 1.370 . S
C523 C524 1.403 . S
C524 C523 1.403 . S
C524 C525 1.404 1_655 S
C524 C527 1.539 1_565 S
C525 C521 1.408 . S
C525 C524 1.404 1_455 S
C525 H537 0.930 . S
C526 C522 1.524 . S
C526 H538 0.956 . S
C526 H539 0.961 . S
C526 H540 0.961 . S
C527 C524 1.539 1_545 S
C527 H541 0.958 1_655 S
C527 H542 0.961 . S
C527 H543 0.960 . S
H528 C512 0.931 . S
H529 C517 0.929 . S
H530 C518 0.960 . S
H531 C518 0.962 . S
H532 C518 0.960 . S
H533 C519 0.961 . S
H534 C519 0.961 . S
H535 C519 0.961 1_545 S
H536 C520 0.931 . S
H537 C525 0.930 . S
H538 C526 0.956 . S
H539 C526 0.961 . S
H540 C526 0.961 . S
H541 C527 0.958 1_455 S
H542 C527 0.961 . S
H543 C527 0.960 . S
C544 C545 1.390 1_565 S
C544 C546 1.394 . S
C544 H560 0.931 . S
C545 C544 1.390 1_545 S
C545 C549 1.376 . S
C546 C544 1.394 . S
C546 C547 1.369 . S
C546 C550 1.531 . S
C547 C546 1.369 . S
C547 C548 1.410 . S
C547 C555 1.503 . S
C548 C547 1.410 . S
C548 C549 1.392 1_565 S
C548 C551 1.511 . S
C549 C545 1.376 . S
C549 C548 1.392 1_545 S
C549 H561 0.929 . S
C550 C546 1.531 . S
C550 H562 0.960 . S
C550 H563 0.962 . S
C550 H564 0.960 . S
C551 C548 1.511 . S
C551 H565 0.961 1_565 S
C551 H566 0.961 . S
C551 H567 0.961 . S
C552 C553 1.370 . S
C552 C554 1.363 . S
C552 H568 0.931 . S
C553 C552 1.370 . S
C553 C557 1.408 . S
C554 C552 1.363 . S
C554 C555 1.370 . S
C554 C558 1.524 1_565 S
C555 C547 1.503 . S
C555 C554 1.370 . S
C555 C556 1.403 . S
C556 C555 1.403 . S
C556 C557 1.404 . S
C556 C559 1.539 . S
C557 C553 1.408 . S
C557 C556 1.404 . S
C557 H569 0.930 . S
C558 C554 1.524 1_545 S
C558 H570 0.956 . S
C558 H571 0.961 . S
C558 H572 0.961 . S
C559 C556 1.539 . S
C559 H573 0.958 . S
C559 H574 0.961 . S
C559 H575 0.960 . S
H560 C544 0.931 . S
H561 C549 0.929 . S
H562 C550 0.960 . S
H563 C550 0.962 . S
H564 C550 0.960 . S
H565 C551 0.961 1_545 S
H566 C551 0.961 . S
H567 C551 0.961 . S
H568 C552 0.931 . S
H569 C557 0.930 . S
H570 C558 0.956 . S
H571 C558 0.961 . S
H572 C558 0.961 . S
H573 C559 0.958 . S
H574 C559 0.961 . S
H575 C559 0.960 . S
C576 C577 1.391 . S
C576 C578 1.394 . S
C576 H592 0.931 . S
C577 C576 1.391 . S
C577 C581 1.376 . S
C578 C576 1.394 . S
C578 C579 1.369 . S
C578 C582 1.531 . S
C579 C578 1.369 . S
C579 C580 1.410 . S
C579 C587 1.503 . S
C580 C579 1.410 . S
C580 C581 1.392 . S
C580 C583 1.511 . S
C581 C577 1.376 . S
C581 C580 1.392 . S
C581 H593 0.929 . S
C582 C578 1.531 . S
C582 H594 0.960 . S
C582 H595 0.962 . S
C582 H596 0.960 . S
C583 C580 1.511 . S
C583 H597 0.961 . S
C583 H598 0.961 . S
C583 H599 0.961 . S
C584 C585 1.370 . S
C584 C586 1.363 . S
C584 H600 0.931 . S
C585 C584 1.370 . S
C585 C589 1.408 . S
C586 C584 1.363 . S
C586 C587 1.370 . S
C586 C590 1.524 . S
C587 C579 1.503 . S
C587 C586 1.370 . S
C587 C588 1.403 . S
C588 C587 1.403 . S
C588 C589 1.404 . S
C588 C591 1.539 . S
C589 C585 1.408 . S
C589 C588 1.404 . S
C589 H601 0.930 . S
C590 C586 1.524 . S
C590 H602 0.956 . S
C590 H603 0.961 . S
C590 H604 0.961 . S
C591 C588 1.539 . S
C591 H605 0.958 . S
C591 H606 0.961 . S
C591 H607 0.960 . S
H592 C576 0.931 . S
H593 C581 0.929 . S
H594 C582 0.960 . S
H595 C582 0.962 . S
H596 C582 0.960 . S
H597 C583 0.961 . S
H598 C583 0.961 . S
H599 C583 0.961 . S
H600 C584 0.931 . S
H601 C589 0.930 . S
H602 C590 0.956 . S
H603 C590 0.961 . S
H604 C590 0.961 . S
H605 C591 0.958 . S
H606 C591 0.961 . S
H607 C591 0.960 . S
C608 C609 1.391 . S
C608 C610 1.394 . S
C608 H624 0.931 . S
C609 C608 1.391 . S
C609 C613 1.376 . S
C610 C608 1.394 . S
C610 C611 1.369 . S
C610 C614 1.531 . S
C611 C610 1.369 . S
C611 C612 1.410 . S
C611 C619 1.503 . S
C612 C611 1.410 . S
C612 C613 1.392 . S
C612 C615 1.511 . S
C613 C609 1.376 . S
C613 C612 1.392 . S
C613 H625 0.929 . S
C614 C610 1.531 . S
C614 H626 0.960 . S
C614 H627 0.962 . S
C614 H628 0.960 . S
C615 C612 1.511 . S
C615 H629 0.961 . S
C615 H630 0.961 . S
C615 H631 0.961 1_455 S
C616 C617 1.370 1_455 S
C616 C618 1.363 . S
C616 H632 0.931 . S
C617 C616 1.370 1_655 S
C617 C621 1.408 . S
C618 C616 1.363 . S
C618 C619 1.370 . S
C618 C622 1.524 . S
C619 C611 1.503 . S
C619 C618 1.370 . S
C619 C620 1.403 1_455 S
C620 C619 1.403 1_655 S
C620 C621 1.404 . S
C620 C623 1.539 . S
C621 C617 1.408 . S
C621 C620 1.404 . S
C621 H633 0.930 . S
C622 C618 1.524 . S
C622 H634 0.956 . S
C622 H635 0.961 . S
C622 H636 0.961 . S
C623 C620 1.539 . S
C623 H637 0.958 . S
C623 H638 0.961 . S
C623 H639 0.960 . S
H624 C608 0.931 . S
H625 C613 0.929 . S
H626 C614 0.960 . S
H627 C614 0.962 . S
H628 C614 0.960 . S
H629 C615 0.961 . S
H630 C615 0.961 . S
H631 C615 0.961 1_655 S
H632 C616 0.931 . S
H633 C621 0.930 . S
H634 C622 0.956 . S
H635 C622 0.961 . S
H636 C622 0.961 . S
H637 C623 0.958 . S
H638 C623 0.961 . S
H639 C623 0.960 . S
C640 C641 1.391 1_545 S
C640 C642 1.394 . S
C640 H656 0.931 . S
C641 C640 1.391 1_565 S
C641 C645 1.376 . S
C642 C640 1.394 . S
C642 C643 1.369 . S
C642 C646 1.531 . S
C643 C642 1.369 . S
C643 C644 1.410 . S
C643 C651 1.503 . S
C644 C643 1.410 . S
C644 C645 1.392 1_545 S
C644 C647 1.511 1_455 S
C645 C641 1.376 . S
C645 C644 1.392 1_565 S
C645 H657 0.929 . S
C646 C642 1.531 . S
C646 H658 0.960 . S
C646 H659 0.962 . S
C646 H660 0.960 . S
C647 C644 1.511 1_655 S
C647 H661 0.961 . S
C647 H662 0.961 . S
C647 H663 0.961 1_545 S
C648 C649 1.370 1_455 S
C648 C650 1.363 . S
C648 H664 0.930 1_455 S
C649 C648 1.370 1_655 S
C649 C653 1.408 1_655 S
C650 C648 1.363 . S
C650 C651 1.370 . S
C650 C654 1.524 . S
C651 C643 1.503 . S
C651 C650 1.370 . S
C651 C652 1.403 . S
C652 C651 1.403 . S
C652 C653 1.404 . S
C652 C655 1.539 1_545 S
C653 C649 1.408 1_455 S
C653 C652 1.404 . S
C653 H665 0.930 . S
C654 C650 1.524 . S
C654 H666 0.956 . S
C654 H667 0.961 . S
C654 H668 0.961 . S
C655 C652 1.539 1_565 S
C655 H669 0.958 . S
C655 H670 0.961 . S
C655 H671 0.960 . S
H656 C640 0.931 . S
H657 C645 0.929 . S
H658 C646 0.960 . S
H659 C646 0.962 . S
H660 C646 0.960 . S
H661 C647 0.961 . S
H662 C647 0.961 . S
H663 C647 0.961 1_565 S
H664 C648 0.930 1_655 S
H665 C653 0.930 . S
H666 C654 0.956 . S
H667 C654 0.961 . S
H668 C654 0.961 . S
H669 C655 0.958 . S
H670 C655 0.961 . S
H671 C655 0.960 . S
C672 C673 1.391 . S
C672 C674 1.394 . S
C672 H688 0.931 . S
C673 C672 1.391 . S
C673 C677 1.376 . S
C674 C672 1.394 . S
C674 C675 1.369 . S
C674 C678 1.531 1_545 S
C675 C674 1.369 . S
C675 C676 1.410 . S
C675 C683 1.503 . S
C676 C675 1.410 . S
C676 C677 1.392 . S
C676 C679 1.511 . S
C677 C673 1.376 . S
C677 C676 1.392 . S
C677 H689 0.929 . S
C678 C674 1.531 1_565 S
C678 H690 0.960 . S
C678 H691 0.962 . S
C678 H692 0.960 . S
C679 C676 1.511 . S
C679 H693 0.961 . S
C679 H694 0.961 . S
C679 H695 0.961 . S
C680 C681 1.370 1_545 S
C680 C682 1.363 . S
C680 H696 0.931 . S
C681 C680 1.370 1_565 S
C681 C685 1.408 . S
C682 C680 1.363 . S
C682 C683 1.370 . S
C682 C686 1.524 . S
C683 C675 1.503 . S
C683 C682 1.370 . S
C683 C684 1.403 1_545 S
C684 C683 1.403 1_565 S
C684 C685 1.404 . S
C684 C687 1.539 . S
C685 C681 1.408 . S
C685 C684 1.404 . S
C685 H697 0.930 . S
C686 C682 1.524 . S
C686 H698 0.956 . S
C686 H699 0.961 . S
C686 H700 0.961 . S
C687 C684 1.539 . S
C687 H701 0.958 . S
C687 H702 0.961 . S
C687 H703 0.960 1_565 S
H688 C672 0.931 . S
H689 C677 0.929 . S
H690 C678 0.960 . S
H691 C678 0.962 . S
H692 C678 0.960 . S
H693 C679 0.961 . S
H694 C679 0.961 . S
H695 C679 0.961 . S
H696 C680 0.931 . S
H697 C685 0.930 . S
H698 C686 0.956 . S
H699 C686 0.961 . S
H700 C686 0.961 . S
H701 C687 0.958 . S
H702 C687 0.961 . S
H703 C687 0.960 1_545 S
C704 C705 1.391 . S
C704 C706 1.394 . S
C704 H720 0.931 . S
C705 C704 1.391 . S
C705 C709 1.376 . S
C706 C704 1.394 . S
C706 C707 1.369 . S
C706 C710 1.531 . S
C707 C706 1.369 . S
C707 C708 1.410 . S
C707 C715 1.503 . S
C708 C707 1.410 . S
C708 C709 1.392 . S
C708 C711 1.511 . S
C709 C705 1.376 . S
C709 C708 1.392 . S
C709 H721 0.929 . S
C710 C706 1.531 . S
C710 H722 0.960 . S
C710 H723 0.962 . S
C710 H724 0.960 . S
C711 C708 1.511 . S
C711 H725 0.961 . S
C711 H726 0.961 . S
C711 H727 0.961 . S
C712 C713 1.370 . S
C712 C714 1.363 . S
C712 H728 0.931 . S
C713 C712 1.370 . S
C713 C717 1.408 . S
C714 C712 1.363 . S
C714 C715 1.370 . S
C714 C718 1.524 . S
C715 C707 1.503 . S
C715 C714 1.370 . S
C715 C716 1.403 . S
C716 C715 1.403 . S
C716 C717 1.404 . S
C716 C719 1.539 . S
C717 C713 1.408 . S
C717 C716 1.404 . S
C717 H729 0.930 . S
C718 C714 1.524 . S
C718 H730 0.956 . S
C718 H731 0.961 . S
C718 H732 0.961 . S
C719 C716 1.539 . S
C719 H733 0.958 . S
C719 H734 0.961 . S
C719 H735 0.960 . S
H720 C704 0.931 . S
H721 C709 0.929 . S
H722 C710 0.960 . S
H723 C710 0.962 . S
H724 C710 0.960 . S
H725 C711 0.961 . S
H726 C711 0.961 . S
H727 C711 0.961 . S
H728 C712 0.931 . S
H729 C717 0.930 . S
H730 C718 0.956 . S
H731 C718 0.961 . S
H732 C718 0.961 . S
H733 C719 0.958 . S
H734 C719 0.961 . S
H735 C719 0.960 . S
C736 C737 1.391 . S
C736 C738 1.394 . S
C736 H752 0.931 . S
C737 C736 1.391 . S
C737 C741 1.376 1_455 S
C738 C736 1.394 . S
C738 C739 1.369 . S
C738 C742 1.531 . S
C739 C738 1.369 . S
C739 C740 1.410 1_455 S
C739 C747 1.503 . S
C740 C739 1.410 1_655 S
C740 C741 1.392 . S
C740 C743 1.511 . S
C741 C737 1.376 1_655 S
C741 C740 1.392 . S
C741 H753 0.929 . S
C742 C738 1.531 . S
C742 H754 0.960 . S
C742 H755 0.962 . S
C742 H756 0.960 . S
C743 C740 1.511 . S
C743 H757 0.961 . S
C743 H758 0.961 . S
C743 H759 0.961 . S
C744 C745 1.370 . S
C744 C746 1.363 . S
C744 H760 0.931 . S
C745 C744 1.370 . S
C745 C749 1.408 1_455 S
C746 C744 1.363 . S
C746 C747 1.370 . S
C746 C750 1.524 . S
C747 C739 1.503 . S
C747 C746 1.370 . S
C747 C748 1.403 1_455 S
C748 C747 1.403 1_655 S
C748 C749 1.404 . S
C748 C751 1.539 . S
C749 C745 1.408 1_655 S
C749 C748 1.404 . S
C749 H761 0.930 . S
C750 C746 1.524 . S
C750 H762 0.956 . S
C750 H763 0.961 . S
C750 H764 0.961 . S
C751 C748 1.539 . S
C751 H765 0.958 . S
C751 H766 0.961 . S
C751 H767 0.960 . S
H752 C736 0.931 . S
H753 C741 0.929 . S
H754 C742 0.960 . S
H755 C742 0.962 . S
H756 C742 0.960 . S
H757 C743 0.961 . S
H758 C743 0.961 . S
H759 C743 0.961 . S
H760 C744 0.931 . S
H761 C749 0.930 . S
H762 C750 0.956 . S
H763 C750 0.961 . S
H764 C750 0.961 . S
H765 C751 0.958 . S
H766 C751 0.961 . S
H767 C751 0.960 . S
C768 C769 1.391 . S
C768 C770 1.394 . S
C768 H784 0.931 . S
C769 C768 1.391 . S
C769 C773 1.376 . S
C770 C768 1.394 . S
C770 C771 1.369 . S
C770 C774 1.531 . S
C771 C770 1.369 . S
C771 C772 1.410 . S
C771 C779 1.503 . S
C772 C771 1.410 . S
C772 C773 1.392 . S
C772 C775 1.511 . S
C773 C769 1.376 . S
C773 C772 1.392 . S
C773 H785 0.929 . S
C774 C770 1.531 . S
C774 H786 0.960 . S
C774 H787 0.962 . S
C774 H788 0.960 . S
C775 C772 1.511 . S
C775 H789 0.961 . S
C775 H790 0.961 . S
C775 H791 0.961 . S
C776 C777 1.370 1_565 S
C776 C778 1.363 . S
C776 H792 0.931 . S
C777 C776 1.370 1_545 S
C777 C781 1.408 . S
C778 C776 1.363 . S
C778 C779 1.370 1_565 S
C778 C782 1.524 . S
C779 C771 1.503 . S
C779 C778 1.370 1_545 S
C779 C780 1.403 . S
C780 C779 1.403 . S
C780 C781 1.404 . S
C780 C783 1.539 . S
C781 C777 1.408 . S
C781 C780 1.404 . S
C781 H793 0.930 . S
C782 C778 1.524 . S
C782 H794 0.956 . S
C782 H795 0.961 . S
C782 H796 0.961 . S
C783 C780 1.539 . S
C783 H797 0.958 . S
C783 H798 0.961 . S
C783 H799 0.960 . S
H784 C768 0.931 . S
H785 C773 0.929 . S
H786 C774 0.960 . S
H787 C774 0.962 . S
H788 C774 0.960 . S
H789 C775 0.961 . S
H790 C775 0.961 . S
H791 C775 0.961 . S
H792 C776 0.931 . S
H793 C781 0.930 . S
H794 C782 0.956 . S
H795 C782 0.961 . S
H796 C782 0.961 . S
H797 C783 0.958 . S
H798 C783 0.961 . S
H799 C783 0.960 . S
C800 C801 1.391 . S
C800 C802 1.394 . S
C800 H816 0.931 . S
C801 C800 1.391 . S
C801 C805 1.376 . S
C802 C800 1.394 . S
C802 C803 1.369 . S
C802 C806 1.531 . S
C803 C802 1.369 . S
C803 C804 1.410 . S
C803 C811 1.503 . S
C804 C803 1.410 . S
C804 C805 1.392 . S
C804 C807 1.511 . S
C805 C801 1.376 . S
C805 C804 1.392 . S
C805 H817 0.929 . S
C806 C802 1.531 . S
C806 H818 0.960 . S
C806 H819 0.962 . S
C806 H820 0.960 . S
C807 C804 1.511 . S
C807 H821 0.961 . S
C807 H822 0.961 . S
C807 H823 0.961 . S
C808 C809 1.370 . S
C808 C810 1.363 . S
C808 H824 0.931 . S
C809 C808 1.370 . S
C809 C813 1.408 . S
C810 C808 1.363 . S
C810 C811 1.370 . S
C810 C814 1.524 . S
C811 C803 1.503 . S
C811 C810 1.370 . S
C811 C812 1.403 . S
C812 C811 1.403 . S
C812 C813 1.404 . S
C812 C815 1.539 . S
C813 C809 1.408 . S
C813 C812 1.404 . S
C813 H825 0.930 . S
C814 C810 1.524 . S
C814 H826 0.956 . S
C814 H827 0.961 . S
C814 H828 0.961 . S
C815 C812 1.539 . S
C815 H829 0.958 . S
C815 H830 0.961 . S
C815 H831 0.960 . S
H816 C800 0.931 . S
H817 C805 0.929 . S
H818 C806 0.960 . S
H819 C806 0.962 . S
H820 C806 0.960 . S
H821 C807 0.961 . S
H822 C807 0.961 . S
H823 C807 0.961 . S
H824 C808 0.931 . S
H825 C813 0.930 . S
H826 C814 0.956 . S
H827 C814 0.961 . S
H828 C814 0.961 . S
H829 C815 0.958 . S
H830 C815 0.961 . S
H831 C815 0.960 . S
C832 C833 1.391 . S
C832 C834 1.394 . S
C832 H848 0.931 . S
C833 C832 1.391 . S
C833 C837 1.376 . S
C834 C832 1.394 . S
C834 C835 1.369 . S
C834 C838 1.531 . S
C835 C834 1.369 . S
C835 C836 1.410 . S
C835 C843 1.503 . S
C836 C835 1.410 . S
C836 C837 1.392 . S
C836 C839 1.511 . S
C837 C833 1.376 . S
C837 C836 1.392 . S
C837 H849 0.929 . S
C838 C834 1.531 . S
C838 H850 0.960 . S
C838 H851 0.962 . S
C838 H852 0.960 . S
C839 C836 1.511 . S
C839 H853 0.961 . S
C839 H854 0.961 . S
C839 H855 0.961 . S
C840 C841 1.370 . S
C840 C842 1.363 . S
C840 H856 0.931 . S
C841 C840 1.370 . S
C841 C845 1.408 . S
C842 C840 1.363 . S
C842 C843 1.370 . S
C842 C846 1.524 . S
C843 C835 1.503 . S
C843 C842 1.370 . S
C843 C844 1.403 . S
C844 C843 1.403 . S
C844 C845 1.404 . S
C844 C847 1.539 . S
C845 C841 1.408 . S
C845 C844 1.404 . S
C845 H857 0.930 . S
C846 C842 1.524 . S
C846 H858 0.956 . S
C846 H859 0.961 . S
C846 H860 0.961 . S
C847 C844 1.539 . S
C847 H861 0.958 . S
C847 H862 0.961 . S
C847 H863 0.960 . S
H848 C832 0.931 . S
H849 C837 0.929 . S
H850 C838 0.960 . S
H851 C838 0.962 . S
H852 C838 0.960 . S
H853 C839 0.961 . S
H854 C839 0.961 . S
H855 C839 0.961 . S
H856 C840 0.931 . S
H857 C845 0.930 . S
H858 C846 0.956 . S
H859 C846 0.961 . S
H860 C846 0.961 . S
H861 C847 0.958 . S
H862 C847 0.961 . S
H863 C847 0.960 . S
C864 C865 1.391 1_455 S
C864 C866 1.394 . S
C864 H880 0.931 . S
C865 C864 1.391 1_655 S
C865 C869 1.376 . S
C866 C864 1.394 . S
C866 C867 1.369 1_455 S
C866 C870 1.531 . S
C867 C866 1.369 1_655 S
C867 C868 1.410 . S
C867 C875 1.503 . S
C868 C867 1.410 . S
C868 C869 1.392 . S
C868 C871 1.511 . S
C869 C865 1.376 . S
C869 C868 1.392 . S
C869 H881 0.929 . S
C870 C866 1.531 . S
C870 H882 0.960 . S
C870 H883 0.962 . S
C870 H884 0.960 . S
C871 C868 1.511 . S
C871 H885 0.961 . S
C871 H886 0.961 . S
C871 H887 0.961 . S
C872 C873 1.370 . S
C872 C874 1.363 . S
C872 H888 0.931 1_655 S
C873 C872 1.370 . S
C873 C877 1.408 . S
C874 C872 1.363 . S
C874 C875 1.370 . S
C874 C878 1.524 1_655 S
C875 C867 1.503 . S
C875 C874 1.370 . S
C875 C876 1.403 . S
C876 C875 1.403 . S
C876 C877 1.404 . S
C876 C879 1.539 . S
C877 C873 1.408 . S
C877 C876 1.404 . S
C877 H889 0.930 . S
C878 C874 1.524 1_455 S
C878 H890 0.956 . S
C878 H891 0.961 1_455 S
C878 H892 0.961 . S
C879 C876 1.539 . S
C879 H893 0.958 . S
C879 H894 0.961 . S
C879 H895 0.960 . S
H880 C864 0.931 . S
H881 C869 0.929 . S
H882 C870 0.960 . S
H883 C870 0.962 . S
H884 C870 0.960 . S
H885 C871 0.961 . S
H886 C871 0.961 . S
H887 C871 0.961 . S
H888 C872 0.931 1_455 S
H889 C877 0.930 . S
H890 C878 0.956 . S
H891 C878 0.961 1_655 S
H892 C878 0.961 . S
H893 C879 0.958 . S
H894 C879 0.961 . S
H895 C879 0.960 . S
C896 C897 1.391 . S
C896 C898 1.394 . S
C896 H912 0.931 . S
C897 C896 1.391 . S
C897 C901 1.376 . S
C898 C896 1.394 . S
C898 C899 1.369 . S
C898 C902 1.531 . S
C899 C898 1.369 . S
C899 C900 1.410 . S
C899 C907 1.503 . S
C900 C899 1.410 . S
C900 C901 1.392 . S
C900 C903 1.511 1_565 S
C901 C897 1.376 . S
C901 C900 1.392 . S
C901 H913 0.929 1_565 S
C902 C898 1.531 . S
C902 H914 0.960 . S
C902 H915 0.962 . S
C902 H916 0.960 . S
C903 C900 1.511 1_545 S
C903 H917 0.961 . S
C903 H918 0.961 . S
C903 H919 0.961 1_545 S
C904 C905 1.370 1_545 S
C904 C906 1.363 . S
C904 H920 0.931 . S
C905 C904 1.370 1_565 S
C905 C909 1.408 . S
C906 C904 1.363 . S
C906 C907 1.370 1_545 S
C906 C910 1.524 . S
C907 C899 1.503 . S
C907 C906 1.370 1_565 S
C907 C908 1.403 . S
C908 C907 1.403 . S
C908 C909 1.404 . S
C908 C911 1.539 . S
C909 C905 1.408 . S
C909 C908 1.404 . S
C909 H921 0.930 . S
C910 C906 1.524 . S
C910 H922 0.956 . S
C910 H923 0.961 . S
C910 H924 0.961 . S
C911 C908 1.539 . S
C911 H925 0.958 . S
C911 H926 0.961 . S
C911 H927 0.960 . S
H912 C896 0.931 . S
H913 C901 0.929 1_545 S
H914 C902 0.960 . S
H915 C902 0.962 . S
H916 C902 0.960 . S
H917 C903 0.961 . S
H918 C903 0.961 . S
H919 C903 0.961 1_565 S
H920 C904 0.931 . S
H921 C909 0.930 . S
H922 C910 0.956 . S
H923 C910 0.961 . S
H924 C910 0.961 . S
H925 C911 0.958 . S
H926 C911 0.961 . S
H927 C911 0.960 . S
C928 C929 1.391 . S
C928 C930 1.394 . S
C928 H944 0.931 . S
C929 C928 1.391 . S
C929 C933 1.376 . S
C930 C928 1.394 . S
C930 C931 1.369 . S
C930 C934 1.531 . S
C931 C930 1.369 . S
C931 C932 1.410 . S
C931 C939 1.503 . S
C932 C931 1.410 . S
C932 C933 1.392 . S
C932 C935 1.511 . S
C933 C929 1.376 . S
C933 C932 1.392 . S
C933 H945 0.929 . S
C934 C930 1.531 . S
C934 H946 0.960 . S
C934 H947 0.962 . S
C934 H948 0.960 . S
C935 C932 1.511 . S
C935 H949 0.961 . S
C935 H950 0.961 . S
C935 H951 0.961 . S
C936 C937 1.370 . S
C936 C938 1.363 . S
C936 H952 0.931 . S
C937 C936 1.370 . S
C937 C941 1.408 . S
C938 C936 1.363 . S
C938 C939 1.370 . S
C938 C942 1.524 . S
C939 C931 1.503 . S
C939 C938 1.370 . S
C939 C940 1.403 . S
C940 C939 1.403 . S
C940 C941 1.404 . S
C940 C943 1.539 . S
C941 C937 1.408 . S
C941 C940 1.404 . S
C941 H953 0.930 . S
C942 C938 1.524 . S
C942 H954 0.956 . S
C942 H955 0.961 . S
C942 H956 0.961 . S
C943 C940 1.539 . S
C943 H957 0.958 . S
C943 H958 0.961 . S
C943 H959 0.960 . S
H944 C928 0.931 . S
H945 C933 0.929 . S
H946 C934 0.960 . S
H947 C934 0.962 . S
H948 C934 0.960 . S
H949 C935 0.961 . S
H950 C935 0.961 . S
H951 C935 0.961 . S
H952 C936 0.931 . S
H953 C941 0.930 . S
H954 C942 0.956 . S
H955 C942 0.961 . S
H956 C942 0.961 . S
H957 C943 0.958 . S
H958 C943 0.961 . S
H959 C943 0.960 . S
C960 C961 1.391 . S
C960 C962 1.394 . S
C960 H976 0.931 . S
C961 C960 1.391 . S
C961 C965 1.376 . S
C962 C960 1.394 . S
C962 C963 1.369 . S
C962 C966 1.531 . S
C963 C962 1.369 . S
C963 C964 1.410 . S
C963 C971 1.503 . S
C964 C963 1.410 . S
C964 C965 1.392 . S
C964 C967 1.511 . S
C965 C961 1.376 . S
C965 C964 1.392 . S
C965 H977 0.929 . S
C966 C962 1.531 . S
C966 H978 0.960 . S
C966 H979 0.962 . S
C966 H980 0.960 . S
C967 C964 1.511 . S
C967 H981 0.961 . S
C967 H982 0.961 . S
C967 H983 0.961 . S
C968 C969 1.370 . S
C968 C970 1.363 . S
C968 H984 0.931 . S
C969 C968 1.370 . S
C969 C973 1.408 . S
C970 C968 1.363 . S
C970 C971 1.370 . S
C970 C974 1.524 . S
C971 C963 1.503 . S
C971 C970 1.370 . S
C971 C972 1.403 . S
C972 C971 1.403 . S
C972 C973 1.404 . S
C972 C975 1.539 . S
C973 C969 1.408 . S
C973 C972 1.404 . S
C973 H985 0.930 . S
C974 C970 1.524 . S
C974 H986 0.956 . S
C974 H987 0.961 . S
C974 H988 0.961 . S
C975 C972 1.539 . S
C975 H989 0.958 . S
C975 H990 0.961 . S
C975 H991 0.960 . S
H976 C960 0.931 . S
H977 C965 0.929 . S
H978 C966 0.960 . S
H979 C966 0.962 . S
H980 C966 0.960 . S
H981 C967 0.961 . S
H982 C967 0.961 . S
H983 C967 0.961 . S
H984 C968 0.931 . S
H985 C973 0.930 . S
H986 C974 0.956 . S
H987 C974 0.961 . S
H988 C974 0.961 . S
H989 C975 0.958 . S
H990 C975 0.961 . S
H991 C975 0.960 . S
C992 C993 1.391 1_655 S
C992 C994 1.394 . S
C992 H1008 0.931 . S
C993 C992 1.391 1_455 S
C993 C997 1.376 . S
C994 C992 1.394 . S
C994 C995 1.369 . S
C994 C998 1.531 . S
C995 C994 1.369 . S
C995 C996 1.410 1_654 S
C995 C1003 1.503 1_554 S
C996 C995 1.410 1_456 S
C996 C997 1.392 1_556 S
C996 C999 1.511 . S
C997 C993 1.376 . S
C997 C996 1.392 1_554 S
C997 H1009 0.929 . S
C998 C994 1.531 . S
C998 H1010 0.960 . S
C998 H1011 0.962 . S
C998 H1012 0.960 . S
C999 C996 1.511 . S
C999 H1013 0.961 . S
C999 H1014 0.961 . S
C999 H1015 0.961 . S
C1000 C1001 1.370 1_455 S
C1000 C1002 1.363 . S
C1000 H1016 0.931 . S
C1001 C1000 1.370 1_655 S
C1001 C1005 1.408 . S
C1002 C1000 1.363 . S
C1002 C1003 1.370 1_455 S
C1002 C1006 1.524 1_556 S
C1003 C995 1.503 1_556 S
C1003 C1002 1.370 1_655 S
C1003 C1004 1.403 . S
C1004 C1003 1.403 . S
C1004 C1005 1.404 . S
C1004 C1007 1.539 . S
C1005 C1001 1.408 . S
C1005 C1004 1.404 . S
C1005 H1017 0.930 . S
C1006 C1002 1.524 1_554 S
C1006 H1018 0.956 . S
C1006 H1019 0.961 . S
C1006 H1020 0.961 . S
C1007 C1004 1.539 . S
C1007 H1021 0.958 . S
C1007 H1022 0.961 . S
C1007 H1023 0.960 . S
H1008 C992 0.931 . S
H1009 C997 0.929 . S
H1010 C998 0.960 . S
H1011 C998 0.962 . S
H1012 C998 0.960 . S
H1013 C999 0.961 . S
H1014 C999 0.961 . S
H1015 C999 0.961 . S
H1016 C1000 0.931 . S
H1017 C1005 0.930 . S
H1018 C1006 0.956 . S
H1019 C1006 0.961 . S
H1020 C1006 0.961 . S
H1021 C1007 0.958 . S
H1022 C1007 0.961 . S
H1023 C1007 0.960 . S
C1024 C1025 1.391 . S
C1024 C1026 1.394 1_566 S
C1024 H1040 0.931 . S
C1025 C1024 1.391 . S
C1025 C1029 1.376 . S
C1026 C1024 1.394 1_544 S
C1026 C1027 1.369 1_554 S
C1026 C1030 1.531 . S
C1027 C1026 1.369 1_556 S
C1027 C1028 1.410 . S
C1027 C1035 1.503 1_456 S
C1028 C1027 1.410 . S
C1028 C1029 1.392 1_545 S
C1028 C1031 1.511 1_455 S
C1029 C1025 1.376 . S
C1029 C1028 1.392 1_565 S
C1029 H1041 0.929 . S
C1030 C1026 1.531 . S
C1030 H1042 0.960 . S
C1030 H1043 0.962 1_545 S
C1030 H1044 0.960 . S
C1031 C1028 1.511 1_655 S
C1031 H1045 0.961 1_545 S
C1031 H1046 0.961 1_545 S
C1031 H1047 0.961 . S
C1032 C1033 1.370 1_565 S
C1032 C1034 1.363 . S
C1032 H1048 0.931 . S
C1033 C1032 1.370 1_545 S
C1033 C1037 1.408 . S
C1034 C1032 1.363 . S
C1034 C1035 1.370 1_565 S
C1034 C1038 1.524 . S
C1035 C1027 1.503 1_654 S
C1035 C1034 1.370 1_545 S
C1035 C1036 1.403 . S
C1036 C1035 1.403 . S
C1036 C1037 1.404 . S
C1036 C1039 1.539 . S
C1037 C1033 1.408 . S
C1037 C1036 1.404 . S
C1037 H1049 0.930 . S
C1038 C1034 1.524 . S
C1038 H1050 0.956 1_655 S
C1038 H1051 0.961 1_554 S
C1038 H1052 0.961 . S
C1039 C1036 1.539 . S
C1039 H1053 0.957 . S
C1039 H1054 0.961 1_554 S
C1039 H1055 0.960 1_554 S
H1040 C1024 0.931 . S
H1041 C1029 0.929 . S
H1042 C1030 0.960 . S
H1043 C1030 0.962 1_565 S
H1044 C1030 0.960 . S
H1045 C1031 0.961 1_565 S
H1046 C1031 0.961 1_565 S
H1047 C1031 0.961 . S
H1048 C1032 0.931 . S
H1049 C1037 0.930 . S
H1050 C1038 0.956 1_455 S
H1051 C1038 0.961 1_556 S
H1052 C1038 0.961 . S
H1053 C1039 0.957 . S
H1054 C1039 0.961 1_556 S
H1055 C1039 0.960 1_556 S
C1056 C1057 1.391 . S
C1056 C1058 1.394 1_554 S
C1056 H1072 0.931 . S
C1057 C1056 1.391 . S
C1057 C1061 1.376 . S
C1058 C1056 1.394 1_556 S
C1058 C1059 1.369 1_556 S
C1058 C1062 1.531 . S
C1059 C1058 1.369 1_554 S
C1059 C1060 1.410 . S
C1059 C1067 1.503 1_564 S
C1060 C1059 1.410 . S
C1060 C1061 1.392 . S
C1060 C1063 1.511 1_565 S
C1061 C1057 1.376 . S
C1061 C1060 1.392 . S
C1061 H1073 0.929 . S
C1062 C1058 1.531 . S
C1062 H1074 0.960 . S
C1062 H1075 0.962 . S
C1062 H1076 0.960 . S
C1063 C1060 1.511 1_545 S
C1063 H1077 0.961 . S
C1063 H1078 0.961 . S
C1063 H1079 0.961 . S
C1064 C1065 1.370 . S
C1064 C1066 1.363 . S
C1064 H1080 0.931 . S
C1065 C1064 1.370 . S
C1065 C1069 1.408 . S
C1066 C1064 1.363 . S
C1066 C1067 1.370 . S
C1066 C1070 1.524 . S
C1067 C1059 1.503 1_546 S
C1067 C1066 1.370 . S
C1067 C1068 1.403 . S
C1068 C1067 1.403 . S
C1068 C1069 1.404 . S
C1068 C1071 1.539 . S
C1069 C1065 1.408 . S
C1069 C1068 1.404 . S
C1069 H1081 0.930 . S
C1070 C1066 1.524 . S
C1070 H1082 0.956 1_545 S
C1070 H1083 0.961 1_556 S
C1070 H1084 0.961 . S
C1071 C1068 1.539 . S
C1071 H1085 0.958 . S
C1071 H1086 0.961 . S
C1071 H1087 0.960 1_556 S
H1072 C1056 0.931 . S
H1073 C1061 0.929 . S
H1074 C1062 0.960 . S
H1075 C1062 0.962 . S
H1076 C1062 0.960 . S
H1077 C1063 0.961 . S
H1078 C1063 0.961 . S
H1079 C1063 0.961 . S
H1080 C1064 0.931 . S
H1081 C1069 0.930 . S
H1082 C1070 0.956 1_565 S
H1083 C1070 0.961 1_554 S
H1084 C1070 0.961 . S
H1085 C1071 0.958 . S
H1086 C1071 0.961 . S
H1087 C1071 0.960 1_554 S
C1088 C1089 1.391 . S
C1088 C1090 1.394 1_556 S
C1088 H1104 0.931 . S
C1089 C1088 1.391 . S
C1089 C1093 1.376 . S
C1090 C1088 1.394 1_554 S
C1090 C1091 1.369 1_554 S
C1090 C1094 1.531 . S
C1091 C1090 1.369 1_556 S
C1091 C1092 1.410 . S
C1091 C1099 1.503 1_556 S
C1092 C1091 1.410 . S
C1092 C1093 1.392 . S
C1092 C1095 1.511 . S
C1093 C1089 1.376 . S
C1093 C1092 1.392 . S
C1093 H1105 0.929 . S
C1094 C1090 1.531 . S
C1094 H1106 0.960 . S
C1094 H1107 0.962 . S
C1094 H1108 0.960 . S
C1095 C1092 1.511 . S
C1095 H1109 0.961 . S
C1095 H1110 0.961 . S
C1095 H1111 0.961 . S
C1096 C1097 1.370 . S
C1096 C1098 1.363 . S
C1096 H1112 0.931 . S
C1097 C1096 1.370 . S
C1097 C1101 1.408 . S
C1098 C1096 1.363 . S
C1098 C1099 1.370 . S
C1098 C1102 1.524 1_554 S
C1099 C1091 1.503 1_554 S
C1099 C1098 1.370 . S
C1099 C1100 1.403 . S
C1100 C1099 1.403 . S
C1100 C1101 1.404 . S
C1100 C1103 1.539 . S
C1101 C1097 1.408 . S
C1101 C1100 1.404 . S
C1101 H1113 0.930 . S
C1102 C1098 1.524 1_556 S
C1102 H1114 0.956 1_556 S
C1102 H1115 0.961 . S
C1102 H1116 0.961 . S
C1103 C1100 1.539 . S
C1103 H1117 0.958 . S
C1103 H1118 0.961 . S
C1103 H1119 0.960 . S
H1104 C1088 0.931 . S
H1105 C1093 0.929 . S
H1106 C1094 0.960 . S
H1107 C1094 0.962 . S
H1108 C1094 0.960 . S
H1109 C1095 0.961 . S
H1110 C1095 0.961 . S
H1111 C1095 0.961 . S
H1112 C1096 0.931 . S
H1113 C1101 0.930 . S
H1114 C1102 0.956 1_554 S
H1115 C1102 0.961 . S
H1116 C1102 0.961 . S
H1117 C1103 0.958 . S
H1118 C1103 0.961 . S
H1119 C1103 0.960 . S
C1120 C1121 1.391 1_655 S
C1120 C1122 1.394 . S
C1120 H1136 0.931 . S
C1121 C1120 1.391 1_455 S
C1121 C1125 1.376 . S
C1122 C1120 1.394 . S
C1122 C1123 1.369 1_655 S
C1122 C1126 1.531 . S
C1123 C1122 1.369 1_455 S
C1123 C1124 1.410 . S
C1123 C1131 1.505 1_565 S
C1124 C1123 1.410 . S
C1124 C1125 1.392 . S
C1124 C1127 1.511 1_565 S
C1125 C1121 1.376 . S
C1125 C1124 1.392 . S
C1125 H1137 0.929 . S
C1126 C1122 1.531 . S
C1126 H1138 0.960 . S
C1126 H1139 0.962 . S
C1126 H1140 0.960 . S
C1127 C1124 1.511 1_545 S
C1127 H1141 0.961 . S
C1127 H1142 0.961 . S
C1127 H1143 0.961 1_545 S
C1128 C1129 1.370 . S
C1128 C1130 1.363 . S
C1128 H1144 0.931 . S
C1129 C1128 1.370 . S
C1129 C1133 1.408 1_655 S
C1130 C1128 1.363 . S
C1130 C1131 1.365 1_655 S
C1130 C1134 1.524 . S
C1131 C1123 1.505 1_545 S
C1131 C1130 1.365 1_455 S
C1131 C1132 1.406 . S
C1132 C1131 1.406 . S
C1132 C1133 1.404 . S
C1132 C1135 1.539 1_545 S
C1133 C1129 1.408 1_455 S
C1133 C1132 1.404 . S
C1133 H1145 0.930 . S
C1134 C1130 1.524 . S
C1134 H1146 0.956 . S
C1134 H1147 0.961 . S
C1134 H1148 0.961 . S
C1135 C1132 1.539 1_565 S
C1135 H1149 0.958 . S
C1135 H1150 0.961 . S
C1135 H1151 0.960 . S
H1136 C1120 0.931 . S
H1137 C1125 0.929 . S
H1138 C1126 0.960 . S
H1139 C1126 0.962 . S
H1140 C1126 0.960 . S
H1141 C1127 0.961 . S
H1142 C1127 0.961 . S
H1143 C1127 0.961 1_565 S
H1144 C1128 0.931 . S
H1145 C1133 0.930 . S
H1146 C1134 0.956 . S
H1147 C1134 0.961 . S
H1148 C1134 0.961 . S
H1149 C1135 0.958 . S
H1150 C1135 0.961 . S
H1151 C1135 0.960 . S
C1152 C1153 1.391 . S
C1152 C1154 1.394 . S
C1152 H1168 0.931 . S
C1153 C1152 1.391 . S
C1153 C1157 1.376 . S
C1154 C1152 1.394 . S
C1154 C1155 1.369 . S
C1154 C1158 1.531 . S
C1155 C1154 1.369 . S
C1155 C1156 1.410 . S
C1155 C1163 1.503 . S
C1156 C1155 1.410 . S
C1156 C1157 1.392 . S
C1156 C1159 1.511 . S
C1157 C1153 1.376 . S
C1157 C1156 1.392 . S
C1157 H1169 0.929 . S
C1158 C1154 1.531 . S
C1158 H1170 0.960 . S
C1158 H1171 0.962 1_545 S
C1158 H1172 0.960 . S
C1159 C1156 1.511 . S
C1159 H1173 0.961 1_545 S
C1159 H1174 0.961 1_545 S
C1159 H1175 0.961 . S
C1160 C1161 1.370 . S
C1160 C1162 1.363 . S
C1160 H1176 0.931 . S
C1161 C1160 1.370 . S
C1161 C1165 1.408 1_565 S
C1162 C1160 1.363 . S
C1162 C1163 1.370 1_565 S
C1162 C1166 1.524 . S
C1163 C1155 1.503 . S
C1163 C1162 1.370 1_545 S
C1163 C1164 1.403 . S
C1164 C1163 1.403 . S
C1164 C1165 1.404 . S
C1164 C1167 1.539 . S
C1165 C1161 1.408 1_545 S
C1165 C1164 1.404 . S
C1165 H1177 0.930 . S
C1166 C1162 1.524 . S
C1166 H1178 0.956 . S
C1166 H1179 0.961 . S
C1166 H1180 0.961 . S
C1167 C1164 1.539 . S
C1167 H1181 0.958 . S
C1167 H1182 0.961 . S
C1167 H1183 0.960 . S
H1168 C1152 0.931 . S
H1169 C1157 0.929 . S
H1170 C1158 0.960 . S
H1171 C1158 0.962 1_565 S
H1172 C1158 0.960 . S
H1173 C1159 0.961 1_565 S
H1174 C1159 0.961 1_565 S
H1175 C1159 0.961 . S
H1176 C1160 0.931 . S
H1177 C1165 0.930 . S
H1178 C1166 0.956 . S
H1179 C1166 0.961 . S
H1180 C1166 0.961 . S
H1181 C1167 0.958 . S
H1182 C1167 0.961 . S
H1183 C1167 0.960 . S
C1184 C1185 1.391 . S
C1184 C1186 1.394 . S
C1184 H1200 0.931 . S
C1185 C1184 1.391 . S
C1185 C1189 1.376 . S
C1186 C1184 1.394 . S
C1186 C1187 1.369 . S
C1186 C1190 1.531 . S
C1187 C1186 1.369 . S
C1187 C1188 1.410 . S
C1187 C1195 1.503 . S
C1188 C1187 1.410 . S
C1188 C1189 1.392 . S
C1188 C1191 1.511 . S
C1189 C1185 1.376 . S
C1189 C1188 1.392 . S
C1189 H1201 0.929 . S
C1190 C1186 1.531 . S
C1190 H1202 0.960 . S
C1190 H1203 0.962 . S
C1190 H1204 0.960 . S
C1191 C1188 1.511 . S
C1191 H1205 0.961 . S
C1191 H1206 0.961 . S
C1191 H1207 0.961 . S
C1192 C1193 1.370 . S
C1192 C1194 1.363 . S
C1192 H1208 0.931 . S
C1193 C1192 1.370 . S
C1193 C1197 1.408 . S
C1194 C1192 1.363 . S
C1194 C1195 1.370 . S
C1194 C1198 1.524 . S
C1195 C1187 1.503 . S
C1195 C1194 1.370 . S
C1195 C1196 1.403 . S
C1196 C1195 1.403 . S
C1196 C1197 1.404 . S
C1196 C1199 1.539 . S
C1197 C1193 1.408 . S
C1197 C1196 1.404 . S
C1197 H1209 0.930 . S
C1198 C1194 1.524 . S
C1198 H1210 0.956 . S
C1198 H1211 0.961 . S
C1198 H1212 0.961 . S
C1199 C1196 1.539 . S
C1199 H1213 0.958 . S
C1199 H1214 0.961 . S
C1199 H1215 0.960 . S
H1200 C1184 0.931 . S
H1201 C1189 0.929 . S
H1202 C1190 0.960 . S
H1203 C1190 0.962 . S
H1204 C1190 0.960 . S
H1205 C1191 0.961 . S
H1206 C1191 0.961 . S
H1207 C1191 0.961 . S
H1208 C1192 0.931 . S
H1209 C1197 0.930 . S
H1210 C1198 0.956 . S
H1211 C1198 0.961 . S
H1212 C1198 0.961 . S
H1213 C1199 0.958 . S
H1214 C1199 0.961 . S
H1215 C1199 0.960 . S
C1216 C1217 1.391 . S
C1216 C1218 1.394 . S
C1216 H1232 0.931 . S
C1217 C1216 1.391 . S
C1217 C1221 1.376 . S
C1218 C1216 1.394 . S
C1218 C1219 1.369 . S
C1218 C1222 1.531 1_655 S
C1219 C1218 1.369 . S
C1219 C1220 1.410 . S
C1219 C1227 1.503 1_655 S
C1220 C1219 1.410 . S
C1220 C1221 1.392 . S
C1220 C1223 1.511 . S
C1221 C1217 1.376 . S
C1221 C1220 1.392 . S
C1221 H1233 0.929 . S
C1222 C1218 1.531 1_455 S
C1222 H1234 0.960 . S
C1222 H1235 0.962 . S
C1222 H1236 0.960 . S
C1223 C1220 1.511 . S
C1223 H1237 0.961 . S
C1223 H1238 0.961 . S
C1223 H1239 0.961 . S
C1224 C1225 1.370 . S
C1224 C1226 1.363 . S
C1224 H1240 0.931 . S
C1225 C1224 1.370 . S
C1225 C1229 1.408 . S
C1226 C1224 1.363 . S
C1226 C1227 1.370 . S
C1226 C1230 1.524 1_455 S
C1227 C1219 1.503 1_455 S
C1227 C1226 1.370 . S
C1227 C1228 1.403 . S
C1228 C1227 1.403 . S
C1228 C1229 1.404 . S
C1228 C1231 1.539 . S
C1229 C1225 1.408 . S
C1229 C1228 1.404 . S
C1229 H1241 0.930 . S
C1230 C1226 1.524 1_655 S
C1230 H1242 0.956 . S
C1230 H1243 0.961 . S
C1230 H1244 0.961 . S
C1231 C1228 1.539 . S
C1231 H1245 0.958 . S
C1231 H1246 0.961 . S
C1231 H1247 0.960 . S
H1232 C1216 0.931 . S
H1233 C1221 0.929 . S
H1234 C1222 0.960 . S
H1235 C1222 0.962 . S
H1236 C1222 0.960 . S
H1237 C1223 0.961 . S
H1238 C1223 0.961 . S
H1239 C1223 0.961 . S
H1240 C1224 0.931 . S
H1241 C1229 0.930 . S
H1242 C1230 0.956 . S
H1243 C1230 0.961 . S
H1244 C1230 0.961 . S
H1245 C1231 0.958 . S
H1246 C1231 0.961 . S
H1247 C1231 0.960 . S
C225 C3 1.662 . S
C233 C31 1.652 . S
C257 C17 1.638 . S
C265 C45 1.661 . S
C289 C59 1.631 . S
C297 C87 1.662 . S
C321 C101 1.648 . S
C329 C73 1.658 . S
C353 C115 1.640 . S
C361 C143 1.655 . S
C385 C157 1.637 . S
C393 C129 1.657 . S
C417 C199 1.671 . S
C425 C171 1.645 . S
C449 C213 1.667 . S
C457 C185 1.647 . S
C481 C105 1.160 . S
C489 C7 1.156 . S
C513 C21 1.151 . S
C521 C63 1.182 . S
C545 C77 1.205 . S
C553 C35 1.147 . S
C577 C49 1.210 . S
C585 C91 1.149 . S
C609 C217 1.184 . S
C617 C119 1.164 . S
C641 C133 1.133 . S
C649 C175 1.183 . S
C673 C147 1.210 . S
C681 C189 1.147 . S
C705 C203 1.127 . S
C713 C161 1.185 . S
C737 C9 0.876 . S
C745 C65 0.758 . S
C769 C23 0.733 . S
C777 C79 0.740 . S
C801 C93 0.869 . S
C809 C37 0.771 . S
C833 C51 0.842 . S
C841 C107 0.727 . S
C865 C177 0.833 . S
C873 C121 0.725 . S
C897 C191 0.677 . S
C905 C135 0.780 . S
C929 C149 0.799 . S
C937 C205 0.731 . S
C961 C163 0.671 . S
C969 C219 0.785 . S
C993 C8 1.746 . S
C1001 C120 1.720 . S
C1025 C134 1.733 . S
C1033 C22 1.727 . S
C1057 C36 1.715 . S
C1065 C148 1.734 . S
C1089 C162 1.742 . S
C1097 C50 1.723 . S
C1121 C64 1.740 . S
C1129 C176 1.724 . S
C1153 C78 1.713 . S
C1161 C190 1.735 . S
C1185 C204 1.700 . S
C1193 C92 1.739 . S
C1217 C106 1.709 . S
C1225 C218 1.734 . S
