# Generated by pormake.
# Topology zfn, (5)-cn, num edge types: 1
# Building blocks:
#     Node 0, Type 0, BuildingBlock: XOMCOT_clean_sbu_1, # of connection points: 5
#     Node 1, Type 0, BuildingBlock: XOMCOT_clean_sbu_1, # of connection points: 5
#     Node 2, Type 0, BuildingBlock: XOMCOT_clean_sbu_1, # of connection points: 5
#     Node 3, Type 0, BuildingBlock: XOMCOT_clean_sbu_1, # of connection points: 5
#     Node 4, Type 0, BuildingBlock: XOMCOT_clean_sbu_1, # of connection points: 5
#     Node 5, Type 0, BuildingBlock: XOMCOT_clean_sbu_1, # of connection points: 5
#     Node 6, Type 0, BuildingBlock: XOMCOT_clean_sbu_1, # of connection points: 5
#     Node 7, Type 0, BuildingBlock: XOMCOT_clean_sbu_1, # of connection points: 5
#     Node 8, Type 0, BuildingBlock: XOMCOT_clean_sbu_1, # of connection points: 5
#     Node 9, Type 0, BuildingBlock: XOMCOT_clean_sbu_1, # of connection points: 5
#     Node 10, Type 0, BuildingBlock: XOMCOT_clean_sbu_1, # of connection points: 5
#     Node 11, Type 0, BuildingBlock: XOMCOT_clean_sbu_1, # of connection points: 5
#     Node 12, Type 0, BuildingBlock: XOMCOT_clean_sbu_1, # of connection points: 5
#     Node 13, Type 0, BuildingBlock: XOMCOT_clean_sbu_1, # of connection points: 5
#     Node 14, Type 0, BuildingBlock: XOMCOT_clean_sbu_1, # of connection points: 5
#     Node 15, Type 0, BuildingBlock: XOMCOT_clean_sbu_1, # of connection points: 5
#     Edge 16, Type (0, 0), BuildingBlock: CIFDUS_clean_linker_0, # of connection points: 2
#     Edge 17, Type (0, 0), BuildingBlock: CIFDUS_clean_linker_0, # of connection points: 2
#     Edge 18, Type (0, 0), BuildingBlock: CIFDUS_clean_linker_0, # of connection points: 2
#     Edge 19, Type (0, 0), BuildingBlock: CIFDUS_clean_linker_0, # of connection points: 2
#     Edge 20, Type (0, 0), BuildingBlock: CIFDUS_clean_linker_0, # of connection points: 2
#     Edge 21, Type (0, 0), BuildingBlock: CIFDUS_clean_linker_0, # of connection points: 2
#     Edge 22, Type (0, 0), BuildingBlock: CIFDUS_clean_linker_0, # of connection points: 2
#     Edge 23, Type (0, 0), BuildingBlock: CIFDUS_clean_linker_0, # of connection points: 2
#     Edge 24, Type (0, 0), BuildingBlock: CIFDUS_clean_linker_0, # of connection points: 2
#     Edge 25, Type (0, 0), BuildingBlock: CIFDUS_clean_linker_0, # of connection points: 2
#     Edge 26, Type (0, 0), BuildingBlock: CIFDUS_clean_linker_0, # of connection points: 2
#     Edge 27, Type (0, 0), BuildingBlock: CIFDUS_clean_linker_0, # of connection points: 2
#     Edge 28, Type (0, 0), BuildingBlock: CIFDUS_clean_linker_0, # of connection points: 2
#     Edge 29, Type (0, 0), BuildingBlock: CIFDUS_clean_linker_0, # of connection points: 2
#     Edge 30, Type (0, 0), BuildingBlock: CIFDUS_clean_linker_0, # of connection points: 2
#     Edge 31, Type (0, 0), BuildingBlock: CIFDUS_clean_linker_0, # of connection points: 2
#     Edge 32, Type (0, 0), BuildingBlock: CIFDUS_clean_linker_0, # of connection points: 2
#     Edge 33, Type (0, 0), BuildingBlock: CIFDUS_clean_linker_0, # of connection points: 2
#     Edge 34, Type (0, 0), BuildingBlock: CIFDUS_clean_linker_0, # of connection points: 2
#     Edge 35, Type (0, 0), BuildingBlock: CIFDUS_clean_linker_0, # of connection points: 2
#     Edge 36, Type (0, 0), BuildingBlock: CIFDUS_clean_linker_0, # of connection points: 2
#     Edge 37, Type (0, 0), BuildingBlock: CIFDUS_clean_linker_0, # of connection points: 2
#     Edge 38, Type (0, 0), BuildingBlock: CIFDUS_clean_linker_0, # of connection points: 2
#     Edge 39, Type (0, 0), BuildingBlock: CIFDUS_clean_linker_0, # of connection points: 2
#     Edge 40, Type (0, 0), BuildingBlock: CIFDUS_clean_linker_0, # of connection points: 2
#     Edge 41, Type (0, 0), BuildingBlock: CIFDUS_clean_linker_0, # of connection points: 2
#     Edge 42, Type (0, 0), BuildingBlock: CIFDUS_clean_linker_0, # of connection points: 2
#     Edge 43, Type (0, 0), BuildingBlock: CIFDUS_clean_linker_0, # of connection points: 2
#     Edge 44, Type (0, 0), BuildingBlock: CIFDUS_clean_linker_0, # of connection points: 2
#     Edge 45, Type (0, 0), BuildingBlock: CIFDUS_clean_linker_0, # of connection points: 2
#     Edge 46, Type (0, 0), BuildingBlock: CIFDUS_clean_linker_0, # of connection points: 2
#     Edge 47, Type (0, 0), BuildingBlock: CIFDUS_clean_linker_0, # of connection points: 2
#     Edge 48, Type (0, 0), BuildingBlock: CIFDUS_clean_linker_0, # of connection points: 2
#     Edge 49, Type (0, 0), BuildingBlock: CIFDUS_clean_linker_0, # of connection points: 2
#     Edge 50, Type (0, 0), BuildingBlock: CIFDUS_clean_linker_0, # of connection points: 2
#     Edge 51, Type (0, 0), BuildingBlock: CIFDUS_clean_linker_0, # of connection points: 2
#     Edge 52, Type (0, 0), BuildingBlock: CIFDUS_clean_linker_0, # of connection points: 2
#     Edge 53, Type (0, 0), BuildingBlock: CIFDUS_clean_linker_0, # of connection points: 2
#     Edge 54, Type (0, 0), BuildingBlock: CIFDUS_clean_linker_0, # of connection points: 2
#     Edge 55, Type (0, 0), BuildingBlock: CIFDUS_clean_linker_0, # of connection points: 2
# Relax obj value: 0.121
# Max RMSD: 0.125
# Mean RMSD: 0.125
data_MOF--net-zfn--node1-XOMCOT_clean_sbu_1--edge1-CIFDUS_clean_linker_0
_symmetry_space_group_name_H-M    P1
_symmetry_Int_Tables_number       1
_symmetry_cell_setting            triclinic
loop_
_symmetry_equiv_pos_as_xyz
'x, y, z'
_cell_length_a     66.782813
_cell_length_b     66.77322
_cell_length_c     15.859587
_cell_angle_alpha  89.955582
_cell_angle_beta   89.981942
_cell_angle_gamma 89.988031
loop_
_atom_site_label
_atom_site_type_symbol
_atom_site_fract_x
_atom_site_fract_y
_atom_site_fract_z
_atom_type_partial_charge
C0 C 0.0073 0.31053 0.98657 0.0
C1 C 0.00616 0.31066 0.8998 0.0
N2 N 0.01375 0.3281 0.87136 0.0
N3 N 0.01575 0.32775 0.01342 0.0
C4 C 0.01919 0.33819 0.94159 0.0
H5 H 0.0023 0.2985 0.0268 0.0
Co6 Co 0.02203 0.33566 0.1247 0.0
C7 C 0.06427 0.35002 0.09782 0.0
O8 O 0.07175 0.34138 0.16527 0.0
N9 N 0.02802 0.34381 0.23619 0.0
C10 C 0.03711 0.36146 0.34918 0.0
C11 C 0.03663 0.36103 0.26223 0.0
C12 C 0.02306 0.3343 0.3087 0.0
N13 N 0.02859 0.34454 0.37837 0.0
O14 O 0.03665 0.31121 0.14227 0.0
H15 H 0.042 0.37272 0.22078 0.0
H16 H 0.01487 0.32042 0.31113 0.0
O17 O 0.0457 0.3485 0.08094 0.0
C18 C 0.02547 0.29779 0.17449 0.0
O19 O 0.00632 0.30171 0.18448 0.0
N20 N 0.00672 0.35877 0.11085 0.0
C21 C 0.98037 0.39104 0.10984 0.0
C22 C -0.00043 0.39293 0.07495 0.0
C23 C 0.01267 0.37661 0.07676 0.0
C24 C 0.98798 0.35657 0.14324 0.0
C25 C 0.97458 0.37256 0.14391 0.0
H26 H 0.02756 0.37854 0.05155 0.0
H27 H 0.98361 0.34234 0.17017 0.0
H28 H 0.02581 0.35292 0.94072 0.0
H29 H 7e-05 0.29883 0.86094 0.0
H30 H 0.04332 0.3733 0.38767 0.0
H31 H 0.00459 0.40703 0.04861 0.0
H32 H 0.9598 0.3705 0.17081 0.0
C33 C 0.17293 0.00656 0.5443 0.0
C34 C 0.17281 0.00565 0.4575 0.0
N35 N 0.15685 0.01599 0.42899 0.0
N36 N 0.15725 0.01764 0.57087 0.0
C37 C 0.14762 0.02288 0.49907 0.0
H38 H 0.1838 -0.0005 0.58493 0.0
Co39 Co 0.15027 0.02444 0.68211 0.0
C40 C 0.14019 0.06759 0.65979 0.0
O41 O 0.15054 0.07322 0.72607 0.0
N42 N 0.14303 0.03098 0.79368 0.0
C43 C 0.12624 0.04142 0.90677 0.0
C44 C 0.12646 0.04075 0.81999 0.0
C45 C 0.15238 0.02554 0.86585 0.0
N46 N 0.14261 0.03182 0.93574 0.0
O47 O 0.17578 0.03725 0.6965 0.0
H48 H 0.11507 0.04682 0.77883 0.0
H49 H 0.16575 0.01652 0.8676 0.0
O50 O 0.13905 0.04914 0.63993 0.0
C51 C 0.18939 0.02583 0.72567 0.0
O52 O 0.18512 0.00704 0.74208 0.0
N53 N 0.12613 0.01077 0.66944 0.0
C54 C 0.09322 0.98524 0.65643 0.0
C55 C 0.09185 0.0053 0.63028 0.0
C56 C 0.10853 0.01789 0.63728 0.0
C57 C 0.12768 0.99146 0.69586 0.0
C58 C 0.11143 0.97845 0.69019 0.0
H59 H 0.10722 0.03321 0.61615 0.0
H60 H 0.14173 0.98616 0.72144 0.0
H61 H 0.13408 0.0317 0.49817 0.0
H62 H 0.18351 0.99773 0.41864 0.0
H63 H 0.11488 0.04848 0.94525 0.0
H64 H 0.07814 0.01114 0.60333 0.0
H65 H 0.11311 0.96323 0.71276 0.0
C66 C 0.49683 0.17017 0.98731 0.0
C67 C 0.49738 0.17129 0.90079 0.0
N68 N 0.47857 0.16922 0.87156 0.0
N69 N 0.47777 0.16726 0.01262 0.0
C70 C 0.46695 0.16696 0.9407 0.0
H71 H 0.50956 0.1712 0.0292 0.0
Co72 Co 0.46981 0.16316 0.12393 0.0
C73 C 0.43845 0.13176 0.11334 0.0
O74 O 0.44603 0.12288 0.18013 0.0
N75 N 0.46173 0.15969 0.23722 0.0
C76 C 0.44182 0.16076 0.34992 0.0
C77 C 0.44254 0.16124 0.26359 0.0
C78 C 0.47244 0.15901 0.30969 0.0
N79 N 0.46069 0.15948 0.37925 0.0
O80 O 0.45379 0.18702 0.1227 0.0
H81 H 0.42978 0.16333 0.22255 0.0
H82 H 0.48855 0.15945 0.3122 0.0
O83 O 0.44671 0.1476 0.0843 0.0
C84 C 0.46111 0.20436 0.11007 0.0
O85 O 0.47936 0.20601 0.08022 0.0
N86 N 0.4867 0.14048 0.12712 0.0
C87 C 0.51728 0.11188 0.12167 0.0
C88 C 0.49931 0.10882 0.07787 0.0
C89 C 0.4844 0.12354 0.07958 0.0
C90 C 0.50434 0.14388 0.16783 0.0
C91 C 0.51967 0.12971 0.16713 0.0
H92 H 0.47162 0.12168 0.03883 0.0
H93 H 0.50703 0.15824 0.19697 0.0
H94 H 0.45093 0.16467 0.93886 0.0
H95 H 0.51061 0.17351 0.86243 0.0
H96 H 0.42839 0.16172 0.38779 0.0
H97 H 0.49722 0.09564 0.03905 0.0
H98 H 0.53349 0.13291 0.20022 0.0
C99 C 0.33658 0.49356 0.57202 0.0
C100 C 0.33648 0.49416 0.48511 0.0
N101 N 0.34199 0.47601 0.4558 0.0
N102 N 0.3422 0.47515 0.59748 0.0
C103 C 0.34504 0.46474 0.52543 0.0
H104 H 0.33363 0.50597 0.61401 0.0
Co105 Co 0.3477 0.46736 0.70791 0.0
C106 C 0.38066 0.43764 0.68438 0.0
O107 O 0.39121 0.44582 0.74519 0.0
N108 N 0.35278 0.45923 0.82082 0.0
C109 C 0.35409 0.43962 0.9347 0.0
C110 C 0.35414 0.44008 0.84803 0.0
C111 C 0.35128 0.47003 0.89291 0.0
N112 N 0.35212 0.4585 0.96287 0.0
O113 O 0.32402 0.45127 0.70779 0.0
H114 H 0.35376 0.42704 0.80769 0.0
H115 H 0.34824 0.48585 0.89487 0.0
O116 O 0.36353 0.44479 0.66505 0.0
C117 C 0.31016 0.45871 0.75322 0.0
O118 O 0.31361 0.4754 0.79444 0.0
N119 N 0.36984 0.48488 0.70717 0.0
C120 C 0.39757 0.51613 0.69647 0.0
C121 C 0.39982 0.49889 0.64709 0.0
C122 C 0.38543 0.48372 0.65147 0.0
C123 C 0.36696 0.50202 0.7521 0.0
C124 C 0.38082 0.5176 0.74932 0.0
H125 H 0.38619 0.47175 0.60618 0.0
H126 H 0.35314 0.50429 0.78579 0.0
H127 H 0.34967 0.44925 0.52393 0.0
H128 H 0.33349 0.50725 0.44688 0.0
H129 H 0.35401 0.42631 0.97369 0.0
H130 H 0.41195 0.49764 0.60204 0.0
H131 H 0.37811 0.53095 0.78637 0.0
C132 C 0.00386 0.14958 0.48027 0.0
C133 C 0.00351 0.15018 0.56687 0.0
N134 N 0.02251 0.15171 0.59455 0.0
N135 N 0.02301 0.15048 0.45353 0.0
C136 C 0.03402 0.15201 0.52459 0.0
H137 H 0.99095 0.14863 0.43941 0.0
Co138 Co 0.03154 0.14985 0.3419 0.0
C139 C 0.06713 0.1235 0.34189 0.0
O140 O 0.06106 0.11595 0.26977 0.0
N141 N 0.04017 0.14996 0.22867 0.0
C142 C 0.05956 0.15608 0.11731 0.0
C143 C 0.05839 0.15648 0.20367 0.0
C144 C 0.03037 0.14625 0.15568 0.0
N145 N 0.04186 0.14967 0.08691 0.0
O146 O 0.04284 0.176 0.35404 0.0
H147 H 0.07013 0.16137 0.24586 0.0
H148 H 0.01488 0.14192 0.15218 0.0
O149 O 0.05675 0.13721 0.37756 0.0
C150 C 0.02885 0.18887 0.34851 0.0
O151 O 0.01032 0.18256 0.34028 0.0
N152 N 0.01844 0.125 0.32992 0.0
C153 C 0.99105 0.09339 0.33321 0.0
C154 C 0.0098 0.09147 0.37206 0.0
C155 C 0.0231 0.10766 0.37167 0.0
C156 C 0.00019 0.12704 0.29258 0.0
C157 C 0.98641 0.11139 0.29228 0.0
H158 H 0.03635 0.10658 0.4102 0.0
H159 H 0.9957 0.14146 0.26791 0.0
H160 H 0.05018 0.15315 0.52509 0.0
H161 H 0.99029 0.14987 0.60635 0.0
H162 H 0.07249 0.16026 0.08022 0.0
H163 H 0.01358 0.07807 0.4072 0.0
H164 H 0.97192 0.11364 0.26311 0.0
C165 C 0.31707 0.00226 0.04557 0.0
C166 C 0.3171 0.00109 0.13238 0.0
N167 N 0.3333 0.01092 0.16147 0.0
N168 N 0.33305 0.01298 0.01964 0.0
C169 C 0.34274 0.0178 0.09181 0.0
H170 H 0.30602 0.99566 1.00441 0.0
Co171 Co 0.34006 0.01987 0.90843 0.0
C172 C 0.35162 0.06278 0.93152 0.0
O173 O 0.34165 0.06912 0.86527 0.0
N174 N 0.34727 0.02644 0.79659 0.0
C175 C 0.36431 0.03631 0.68312 0.0
C176 C 0.36405 0.03581 0.76995 0.0
C177 C 0.33785 0.02106 0.72451 0.0
N178 N 0.34776 0.027 0.65445 0.0
O179 O 0.31479 0.03323 0.8948 0.0
H180 H 0.37561 0.0416 0.81094 0.0
H181 H 0.32437 0.01221 0.72285 0.0
O182 O 0.35176 0.04426 0.95064 0.0
C183 C 0.30082 0.02259 0.86378 0.0
O184 O 0.30432 0.00371 0.84584 0.0
N185 N 0.36418 0.00595 0.92009 0.0
C186 C 0.39819 0.98179 0.922 0.0
C187 C 0.39854 0.00086 0.95889 0.0
C188 C 0.38137 0.01281 0.95684 0.0
C189 C 0.36348 0.98735 0.88524 0.0
C190 C 0.38035 0.97504 0.88506 0.0
H191 H 0.38213 0.02755 0.98448 0.0
H192 H 0.34972 0.98218 0.85654 0.0
H193 H 0.35642 0.02635 0.09342 0.0
H194 H 0.30616 0.99338 0.17085 0.0
H195 H 0.37585 0.043 0.64437 0.0
H196 H 0.41207 0.00663 0.98761 0.0
H197 H 0.37939 0.9603 0.85683 0.0
C198 C 0.49902 0.33867 0.44889 0.0
C199 C 0.49943 0.33721 0.53537 0.0
N200 N 0.4809 0.34104 0.56492 0.0
N201 N 0.48034 0.34344 0.42381 0.0
C202 C 0.46958 0.34463 0.49584 0.0
H203 H 0.51162 0.33673 0.4068 0.0
Co204 Co 0.47289 0.34883 0.3127 0.0
C205 C 0.44565 0.38355 0.33078 0.0
O206 O 0.45423 0.39196 0.26505 0.0
N207 N 0.46519 0.35358 0.1996 0.0
C208 C 0.44545 0.35562 0.08651 0.0
C209 C 0.44605 0.35547 0.17298 0.0
C210 C 0.4758 0.35162 0.12721 0.0
N211 N 0.46422 0.35314 0.05748 0.0
O212 O 0.45523 0.32624 0.31094 0.0
H213 H 0.43309 0.35582 0.21381 0.0
H214 H 0.49141 0.34763 0.12489 0.0
O215 O 0.45121 0.36611 0.3545 0.0
C216 C 0.46263 0.30872 0.31611 0.0
O217 O 0.48145 0.30664 0.33818 0.0
N218 N 0.49141 0.37037 0.31257 0.0
C219 C 0.52106 0.39995 0.30972 0.0
C220 C 0.50476 0.40137 0.36522 0.0
C221 C 0.49047 0.38613 0.36749 0.0
C222 C 0.50807 0.36789 0.26407 0.0
C223 C 0.52283 0.38266 0.26014 0.0
H224 H 0.47888 0.38694 0.41477 0.0
H225 H 0.51042 0.35401 0.23092 0.0
H226 H 0.45391 0.34873 0.49784 0.0
H227 H 0.5124 0.33366 0.57344 0.0
H228 H 0.4321 0.35699 0.04831 0.0
H229 H 0.50301 0.41411 0.40679 0.0
H230 H 0.5358 0.38025 0.22038 0.0
C231 C 0.17609 0.49043 0.99968 0.0
C232 C 0.17581 0.49138 0.08657 0.0
N233 N 0.16101 0.4794 0.11494 0.0
N234 N 0.16156 0.47793 0.97348 0.0
C235 C 0.1525 0.47165 0.04495 0.0
H236 H 0.18664 0.49783 0.9583 0.0
Co237 Co 0.15708 0.47 0.86274 0.0
C238 C 0.12776 0.43632 0.87719 0.0
O239 O 0.11825 0.44218 0.80891 0.0
N240 N 0.15312 0.46191 0.74948 0.0
C241 C 0.15523 0.44316 0.63371 0.0
C242 C 0.15596 0.44312 0.72022 0.0
C243 C 0.15114 0.47316 0.67883 0.0
N244 N 0.15232 0.46212 0.60756 0.0
O245 O 0.18168 0.45521 0.86537 0.0
H246 H 0.15947 0.4303 0.75924 0.0
H247 H 0.14993 0.48926 0.67889 0.0
O248 O 0.14279 0.4463 0.90379 0.0
C249 C 0.19549 0.46167 0.81709 0.0
O250 O 0.19196 0.47726 0.76876 0.0
N251 N 0.13409 0.48616 0.86058 0.0
C252 C 0.10527 0.51655 0.85899 0.0
C253 C 0.10123 0.498 0.89732 0.0
C254 C 0.116 0.48308 0.89874 0.0
C255 C 0.13847 0.50433 0.82631 0.0
C256 C 0.12422 0.51954 0.8231 0.0
H257 H 0.11301 0.46957 0.93367 0.0
H258 H 0.15337 0.50714 0.80236 0.0
H259 H 0.13999 0.46141 0.04593 0.0
H260 H 0.18628 0.49952 0.12571 0.0
H261 H 0.15798 0.43042 0.5932 0.0
H262 H 0.08709 0.49529 0.9287 0.0
H263 H 0.12815 0.53357 0.79314 0.0
C264 C 0.99399 0.66645 0.94473 0.0
C265 C 0.99452 0.66696 0.03173 0.0
N266 N 0.9797 0.65517 0.06145 0.0
N267 N 0.97895 0.6544 0.91986 0.0
C268 C 0.97061 0.64774 0.99224 0.0
H269 H 0.00374 0.67455 0.90224 0.0
Co270 Co 0.97133 0.64915 0.80924 0.0
C271 C 0.93793 0.6198 0.82809 0.0
O272 O 0.94498 0.6091 0.76526 0.0
N273 N 0.96339 0.64445 0.69643 0.0
C274 C 0.9443 0.64649 0.58172 0.0
C275 C 0.94448 0.64694 0.66813 0.0
C276 C 0.97448 0.64288 0.62518 0.0
N277 N 0.96323 0.64406 0.55439 0.0
O278 O 0.95757 0.6744 0.80637 0.0
H279 H 0.93172 0.65033 0.70765 0.0
H280 H 0.99059 0.6422 0.62458 0.0
O281 O 0.94691 0.63586 0.85024 0.0
C282 C 0.96504 0.68758 0.75741 0.0
O283 O 0.98082 0.68299 0.71187 0.0
N284 N 0.98656 0.62529 0.81315 0.0
C285 C 0.01372 0.59348 0.82292 0.0
C286 C 0.99579 0.59304 0.86867 0.0
C287 C 0.98275 0.60937 0.86504 0.0
C288 C 0.0045 0.62644 0.77245 0.0
C289 C 0.01815 0.61059 0.77518 0.0
H290 H 0.97019 0.6095 0.90731 0.0
H291 H 0.00866 0.6401 0.74043 0.0
H292 H 0.95817 0.63744 0.9945 0.0
H293 H 0.00472 0.67571 0.06978 0.0
H294 H 0.93137 0.64927 0.54234 0.0
H295 H 0.99231 0.58059 0.90995 0.0
H296 H 0.03216 0.61184 0.74114 0.0
C297 C 0.81528 0.99597 0.50773 0.0
C298 C 0.81543 0.99724 0.59445 0.0
N299 N 0.83291 0.98976 0.62303 0.0
N300 N 0.83251 0.98753 0.48104 0.0
C301 C 0.84304 0.9843 0.55278 0.0
H302 H 0.8032 0.0008 0.46735 0.0
Co303 Co 0.84001 0.98072 0.36995 0.0
C304 C 0.85411 0.93861 0.39987 0.0
O305 O 0.84453 0.93106 0.33494 0.0
N306 N 0.84771 0.97424 0.25845 0.0
C307 C 0.86508 0.96484 0.14509 0.0
C308 C 0.86471 0.96525 0.23203 0.0
C309 C 0.83823 0.97944 0.18616 0.0
N310 N 0.84834 0.97377 0.11622 0.0
O311 O 0.81561 0.96576 0.35668 0.0
H312 H 0.87635 0.95967 0.27314 0.0
H313 H 0.82453 0.98796 0.1842 0.0
O314 O 0.85328 0.95733 0.41517 0.0
C315 C 0.8014 0.97601 0.32497 0.0
O316 O 0.80436 0.99503 0.30797 0.0
N317 N 0.86296 0.99637 0.38057 0.0
C318 C 0.89422 0.02404 0.38315 0.0
C319 C 0.89724 0.00429 0.41105 0.0
C320 C 0.88138 0.99061 0.40913 0.0
C321 C 0.85974 0.01541 0.35341 0.0
C322 C 0.87514 0.02948 0.35389 0.0
H323 H 0.88405 0.97549 0.43052 0.0
H324 H 0.84507 0.0196 0.33037 0.0
H325 H 0.85783 0.97782 0.55342 0.0
H326 H 0.80354 0.00329 0.63317 0.0
H327 H 0.87679 0.95845 0.10638 0.0
H328 H 0.91166 -0.00051 0.43485 0.0
H329 H 0.87216 0.0444 0.33022 0.0
C330 C 0.49435 0.84452 0.02142 0.0
C331 C 0.49409 0.84441 0.10809 0.0
N332 N 0.51305 0.84218 0.13593 0.0
N333 N 0.51339 0.84256 0.99448 0.0
C334 C 0.52439 0.84092 0.06553 0.0
H335 H 0.48148 0.84615 0.98068 0.0
Co336 Co 0.52214 0.84256 0.88299 0.0
C337 C 0.55879 0.86783 0.88635 0.0
O338 O 0.55383 0.87574 0.81335 0.0
N339 N 0.53101 0.84183 0.77008 0.0
C340 C 0.55005 0.83439 0.65886 0.0
C341 C 0.54935 0.83555 0.74534 0.0
C342 C 0.52068 0.84374 0.69711 0.0
N343 N 0.53193 0.83946 0.62873 0.0
O344 O 0.53276 0.81627 0.89682 0.0
H345 H 0.56132 0.83139 0.78781 0.0
H346 H 0.50505 0.84757 0.69321 0.0
O347 O 0.54751 0.85454 0.91965 0.0
C348 C 0.51857 0.80362 0.89211 0.0
O349 O 0.50009 0.81021 0.88546 0.0
N350 N 0.50977 0.86764 0.86835 0.0
C351 C 0.48412 0.90055 0.85554 0.0
C352 C 0.50226 0.90206 0.8998 0.0
C353 C 0.51476 0.88529 0.90674 0.0
C354 C 0.49175 0.86578 0.82904 0.0
C355 C 0.47894 0.88207 0.82017 0.0
H356 H 0.52776 0.88636 0.94672 0.0
H357 H 0.48676 0.85119 0.80843 0.0
H358 H 0.5404 0.83862 0.06541 0.0
H359 H 0.48096 0.8463 0.14725 0.0
H360 H 0.5626 0.82928 0.62141 0.0
H361 H 0.5065 0.9159 0.93051 0.0
H362 H 0.46461 0.8799 0.78949 0.0
C363 C 0.66364 0.49892 0.50022 0.0
C364 C 0.66482 0.49833 0.58695 0.0
N365 N 0.66599 0.51727 0.61593 0.0
N366 N 0.66378 0.51816 0.47432 0.0
C367 C 0.66568 0.52894 0.54613 0.0
H368 H 0.66217 0.48614 0.45889 0.0
Co369 Co 0.65982 0.5274 0.36388 0.0
C370 C 0.63189 0.56209 0.38611 0.0
O371 O 0.62255 0.55801 0.31524 0.0
N372 N 0.65638 0.53681 0.2509 0.0
C373 C 0.65939 0.55663 0.13817 0.0
C374 C 0.65982 0.55578 0.22483 0.0
C375 C 0.65441 0.52637 0.17793 0.0
N376 N 0.65609 0.53804 0.10836 0.0
O377 O 0.6852 0.5407 0.36836 0.0
H378 H 0.66333 0.56815 0.26622 0.0
H379 H 0.65334 0.5103 0.17495 0.0
O380 O 0.64663 0.55123 0.40964 0.0
C381 C 0.69858 0.5339 0.31886 0.0
O382 O 0.69423 0.51878 0.26919 0.0
N383 N 0.6356 0.51289 0.36008 0.0
C384 C 0.60372 0.48578 0.36228 0.0
C385 C 0.60293 0.50346 0.40984 0.0
C386 C 0.61918 0.51663 0.40918 0.0
C387 C 0.63694 0.49532 0.3168 0.0
C388 C 0.62104 0.48178 0.31541 0.0
H389 H 0.61881 0.52914 0.45197 0.0
H390 H 0.65089 0.49121 0.28707 0.0
H391 H 0.66627 0.5451 0.54733 0.0
H392 H 0.66467 0.48497 0.62561 0.0
H393 H 0.66187 0.56988 0.10034 0.0
H394 H 0.59006 0.50687 0.44885 0.0
H395 H 0.62272 0.46784 0.28121 0.0
C396 C 0.99147 0.82361 0.50016 0.0
C397 C 0.99239 0.82395 0.41329 0.0
N398 N 0.9795 0.83797 0.38495 0.0
N399 N 0.97806 0.83733 0.52635 0.0
C400 C 0.9712 0.84595 0.45491 0.0
H401 H -0.00041 0.81363 0.54158 0.0
Co402 Co 0.97018 0.84156 0.63722 0.0
C403 C 0.93588 0.87005 0.62521 0.0
O404 O 0.94197 0.87935 0.69359 0.0
N405 N 0.96218 0.84523 0.75062 0.0
C406 C 0.94361 0.8423 0.86658 0.0
C407 C 0.94357 0.84147 0.78014 0.0
C408 C 0.97335 0.84786 0.82104 0.0
N409 N 0.96239 0.84621 0.89245 0.0
O410 O 0.95646 0.81628 0.6357 0.0
H411 H 0.93093 0.83732 0.74131 0.0
H412 H 0.98937 0.84992 0.82066 0.0
O413 O 0.94585 0.85513 0.59716 0.0
C414 C 0.96424 0.8029 0.6828 0.0
O415 O 0.98001 0.80743 0.72837 0.0
N416 N 0.98548 0.86518 0.63819 0.0
C417 C 0.01512 0.89468 0.63215 0.0
C418 C 0.99621 0.89812 0.5965 0.0
C419 C 0.9817 0.88298 0.59842 0.0
C420 C 0.00394 0.86152 0.67118 0.0
C421 C 0.01885 0.8761 0.67008 0.0
H422 H 0.96801 0.88538 0.56407 0.0
H423 H 0.00731 0.84684 0.69633 0.0
H424 H 0.96022 0.85783 0.45395 0.0
H425 H 0.00125 0.81406 0.37415 0.0
H426 H 0.93103 0.83895 0.90725 0.0
H427 H 0.99299 0.91202 0.56391 0.0
H428 H 0.03331 0.8727 0.69754 0.0
C429 C 0.67636 0.99732 0.99274 0.0
C430 C 0.6763 0.99846 0.90593 0.0
N431 N 0.65951 0.98961 0.87711 0.0
N432 N 0.65979 0.9876 0.01908 0.0
C433 C 0.64972 0.98341 0.9471 0.0
H434 H 0.6879 0.00318 0.03351 0.0
Co435 Co 0.65258 0.98068 0.13027 0.0
C436 C 0.63996 0.93814 0.10343 0.0
O437 O 0.6497 0.9313 0.16938 0.0
N438 N 0.64518 0.97407 0.24185 0.0
C439 C 0.628 0.96439 0.35527 0.0
C440 C 0.62828 0.96492 0.26839 0.0
C441 C 0.65469 0.97926 0.314 0.0
N442 N 0.64469 0.97343 0.38403 0.0
O443 O 0.67741 0.96645 0.14337 0.0
H444 H 0.61663 0.95932 0.22733 0.0
H445 H 0.66832 0.98788 0.31572 0.0
O446 O 0.64009 0.95678 0.0862 0.0
C447 C 0.69163 0.9768 0.1743 0.0
O448 O 0.68855 0.99577 0.1919 0.0
N449 N 0.62905 0.99558 0.11951 0.0
C450 C 0.59654 0.02187 0.11645 0.0
C451 C 0.59487 0.00247 0.08287 0.0
C452 C 0.61131 0.98948 0.08526 0.0
C453 C 0.631 0.01431 0.15204 0.0
C454 C 0.61494 0.02766 0.15161 0.0
H455 H 0.60962 0.97463 0.05939 0.0
H456 H 0.64514 0.0188 0.17941 0.0
H457 H 0.63553 0.9757 0.94594 0.0
H458 H 0.6877 0.00542 0.86728 0.0
H459 H 0.61636 0.95787 0.394 0.0
H460 H 0.58107 0.99739 0.05421 0.0
H461 H 0.6169 0.04229 0.17985 0.0
C462 C 0.49424 0.65837 0.53797 0.0
C463 C 0.4939 0.65939 0.45126 0.0
N464 N 0.51284 0.6618 0.42316 0.0
N465 N 0.51331 0.65987 0.56483 0.0
C466 C 0.52419 0.66245 0.49382 0.0
H467 H 0.48148 0.65584 0.57855 0.0
Co468 Co 0.52248 0.65652 0.67513 0.0
C469 C 0.55926 0.63131 0.65464 0.0
O470 O 0.55583 0.62183 0.72583 0.0
N471 N 0.53173 0.65393 0.78765 0.0
C472 C 0.55077 0.65993 0.90031 0.0
C473 C 0.55032 0.65898 0.81382 0.0
C474 C 0.52106 0.65245 0.86009 0.0
N475 N 0.53227 0.65596 0.92956 0.0
O476 O 0.53346 0.68292 0.67393 0.0
H477 H 0.5625 0.66313 0.7724 0.0
H478 H 0.50513 0.6501 0.86231 0.0
O479 O 0.54742 0.64525 0.63059 0.0
C480 C 0.521 0.69412 0.71218 0.0
O481 O 0.50362 0.68643 0.73392 0.0
N482 N 0.51 0.63121 0.67798 0.0
C483 C 0.48536 0.59737 0.67887 0.0
C484 C 0.50316 0.59759 0.63191 0.0
C485 C 0.51508 0.61483 0.63083 0.0
C486 C 0.49231 0.63148 0.72065 0.0
C487 C 0.48003 0.61466 0.7237 0.0
H488 H 0.52769 0.61519 0.58848 0.0
H489 H 0.48716 0.64522 0.74915 0.0
H490 H 0.54022 0.6645 0.49428 0.0
H491 H 0.48075 0.65752 0.41227 0.0
H492 H 0.56341 0.66463 0.93811 0.0
H493 H 0.5074 0.5849 0.59333 0.0
H494 H 0.46627 0.61538 0.75969 0.0
C495 C 0.84007 0.50027 0.06703 0.0
C496 C 0.83995 0.49973 0.98016 0.0
N497 N 0.84513 0.518 0.9509 0.0
N498 N 0.8454 0.51874 0.09252 0.0
C499 C 0.84804 0.52926 0.02059 0.0
H500 H 0.83728 0.4878 0.10896 0.0
Co501 Co 0.85052 0.52659 0.20291 0.0
C502 C 0.88393 0.55554 0.18415 0.0
O503 O 0.89277 0.54766 0.25037 0.0
N504 N 0.85515 0.53477 0.31588 0.0
C505 C 0.85539 0.55451 0.42928 0.0
C506 C 0.85551 0.55399 0.34266 0.0
C507 C 0.85418 0.52396 0.38811 0.0
N508 N 0.85439 0.53558 0.4578 0.0
O509 O 0.82696 0.54283 0.20088 0.0
H510 H 0.85463 0.56694 0.30182 0.0
H511 H 0.85204 0.50799 0.39036 0.0
O512 O 0.86687 0.54892 0.16069 0.0
C513 C 0.81306 0.53528 0.24571 0.0
O514 O 0.81647 0.51849 0.28641 0.0
N515 N 0.87259 0.5089 0.20396 0.0
C516 C 0.90112 0.47821 0.19918 0.0
C517 C 0.90335 0.49543 0.14931 0.0
C518 C 0.8886 0.51024 0.15046 0.0
C519 C 0.86954 0.4917 0.24834 0.0
C520 C 0.88374 0.47637 0.24828 0.0
H521 H 0.88971 0.52223 0.10524 0.0
H522 H 0.85545 0.48926 0.27994 0.0
H523 H 0.85236 0.54485 0.01935 0.0
H524 H 0.83712 0.48662 0.94195 0.0
H525 H 0.85466 0.56783 0.46803 0.0
H526 H 0.91617 0.49735 0.1083 0.0
H527 H 0.88066 0.46283 0.28365 0.0
H528 H 0.95992 0.40478 0.24512 0.0
H529 H 0.9701 0.41607 0.9809 0.0
H530 H 0.94657 0.4442 0.98511 0.0
H531 H 0.92241 0.46476 0.06312 0.0
H532 H 0.91363 0.45445 0.32954 0.0
H533 H 0.93703 0.42645 0.32476 0.0
C534 C 0.9569 0.41339 0.18849 0.0
C535 C 0.96655 0.40835 0.1127 0.0
C536 C 0.94355 0.42959 0.19165 0.0
C537 C 0.96284 0.41977 0.03998 0.0
C538 C 0.94937 0.43578 0.04235 0.0
C539 C 0.92583 0.45666 0.12059 0.0
C540 C 0.91614 0.46174 0.19654 0.0
C541 C 0.93959 0.44078 0.11782 0.0
C542 C 0.92056 0.45071 0.26984 0.0
C543 C 0.93405 0.43475 0.26736 0.0
H544 H 0.09393 0.94632 0.60697 0.0
H545 H 0.05354 0.99289 0.68844 0.0
H546 H 0.02552 0.96933 0.68332 0.0
H547 H 0.01286 0.93484 0.66357 0.0
H548 H 0.05386 0.8884 0.58622 0.0
H549 H 0.08129 0.91247 0.58336 0.0
C550 C 0.07902 0.95132 0.6242 0.0
C551 C 0.07591 0.97131 0.64883 0.0
C552 C 0.06309 0.93765 0.62251 0.0
C553 C 0.05638 0.97763 0.66876 0.0
C554 C 0.04036 0.96412 0.6664 0.0
C555 C 0.02777 0.93008 0.64534 0.0
C556 C 0.03135 0.90982 0.62608 0.0
C557 C 0.04358 0.94402 0.64434 0.0
C558 C 0.05077 0.90383 0.60284 0.0
C559 C 0.06646 0.91759 0.60079 0.0
H560 H 0.59725 0.06216 0.08909 0.0
H561 H 0.55676 0.01335 0.1422 0.0
H562 H 0.5286 0.03668 0.14486 0.0
H563 H 0.51558 0.07125 0.13759 0.0
H564 H 0.55654 0.11995 0.09044 0.0
H565 H 0.58442 0.09641 0.08208 0.0
C566 C 0.58232 0.05659 0.10217 0.0
C567 C 0.57923 0.03598 0.11571 0.0
C568 C 0.56625 0.07012 0.10538 0.0
C569 C 0.55963 0.02907 0.13049 0.0
C570 C 0.5435 0.04243 0.1327 0.0
C571 C 0.53061 0.07665 0.12502 0.0
C572 C 0.53401 0.09732 0.1153 0.0
C573 C 0.54665 0.06302 0.12081 0.0
C574 C 0.55357 0.10414 0.09951 0.0
C575 C 0.56951 0.09069 0.09426 0.0
H576 H 0.43839 0.51505 0.69374 0.0
H577 H 0.38815 0.55555 0.67917 0.0
H578 H 0.41087 0.58403 0.66976 0.0
H579 H 0.4448 0.59751 0.66781 0.0
H580 H 0.49541 0.55757 0.68624 0.0
H581 H 0.47278 0.52874 0.68962 0.0
C582 C 0.43247 0.53011 0.68796 0.0
C583 C 0.41163 0.5332 0.68813 0.0
C584 C 0.44566 0.54649 0.6829 0.0
C585 C 0.40413 0.5528 0.68083 0.0
C586 C 0.4171 0.56909 0.67495 0.0
C587 C 0.45092 0.58253 0.67352 0.0
C588 C 0.47177 0.57974 0.67779 0.0
C589 C 0.43786 0.56612 0.67675 0.0
C590 C 0.47942 0.56014 0.68255 0.0
C591 C 0.46648 0.54366 0.68497 0.0
H592 H 0.9336 0.01818 0.34213 0.0
H593 H 0.89204 0.06357 0.42586 0.0
H594 H 0.91829 0.0888 0.41751 0.0
H595 H 0.95275 0.09825 0.3837 0.0
H596 H 0.99492 0.05316 0.30442 0.0
H597 H 0.96884 0.02741 0.31556 0.0
C598 C 0.93035 0.03353 0.3597 0.0
C599 C 0.91077 0.03897 0.3836 0.0
C600 C 0.94561 0.04801 0.35549 0.0
C601 C 0.90683 0.059 0.40546 0.0
C602 C 0.92187 0.07345 0.40119 0.0
C603 C 0.95619 0.08279 0.36839 0.0
C604 C 0.9756 0.0776 0.34209 0.0
C605 C 0.94122 0.06817 0.37535 0.0
C606 C 0.98003 0.05747 0.32454 0.0
C607 C 0.96513 0.0428 0.33073 0.0
H608 H 0.47286 0.92558 0.98278 0.0
H609 H 0.46269 0.91311 0.71933 0.0
H610 H 0.43564 0.93768 0.71605 0.0
H611 H 0.41354 0.96115 0.78996 0.0
H612 H 0.42348 0.97378 0.05323 0.0
H613 H 0.45219 0.95098 0.0544 0.0
C614 C 0.465 0.92855 0.92427 0.0
C615 C 0.46969 0.91744 0.85154 0.0
C616 C 0.44934 0.94262 0.92297 0.0
C617 C 0.45919 0.92129 0.77642 0.0
C618 C 0.44373 0.93534 0.77446 0.0
C619 C 0.42201 0.95889 0.84756 0.0
C620 C 0.4163 0.96894 0.92158 0.0
C621 C 0.43841 0.94576 0.84776 0.0
C622 C 0.42763 0.96622 0.99539 0.0
C623 C 0.44398 0.95314 0.99616 0.0
H624 H 0.58748 0.46491 0.23206 0.0
H625 H 0.58318 0.47303 0.50133 0.0
H626 H 0.55711 0.44745 0.50874 0.0
H627 H 0.53648 0.42193 0.43961 0.0
H628 H 0.54034 0.41416 0.16982 0.0
H629 H 0.56604 0.44006 0.16222 0.0
C630 C 0.58085 0.46104 0.29235 0.0
C631 C 0.58724 0.47088 0.36595 0.0
C632 C 0.56596 0.44623 0.29625 0.0
C633 C 0.57835 0.46588 0.44353 0.0
C634 C 0.56355 0.45114 0.44793 0.0
C635 C 0.5427 0.42606 0.37891 0.0
C636 C 0.53646 0.41602 0.30545 0.0
C637 C 0.55731 0.44115 0.37476 0.0
C638 C 0.54505 0.42139 0.22762 0.0
C639 C 0.55966 0.43631 0.22306 0.0
H640 H 0.05364 0.5959 0.85222 0.0
H641 H 0.00614 0.55344 0.80899 0.0
H642 H 0.0301 0.52575 0.81831 0.0
H643 H 0.0648 0.51375 0.8348 0.0
H644 H 0.11189 0.55652 0.88347 0.0
H645 H 0.0879 0.5839 0.87479 0.0
C646 C 0.04858 0.58059 0.84423 0.0
C647 C 0.02822 0.57671 0.8291 0.0
C648 C 0.06237 0.56479 0.85032 0.0
C649 C 0.02176 0.55677 0.82076 0.0
C650 C 0.03545 0.54096 0.8259 0.0
C651 C 0.06978 0.52903 0.84448 0.0
C652 C 0.09022 0.53301 0.85857 0.0
C653 C 0.05583 0.54479 0.84039 0.0
C654 C 0.09637 0.55298 0.87047 0.0
C655 C 0.08263 0.56869 0.86608 0.0
H656 H 0.09707 0.37229 0.14187 0.0
H657 H 0.05955 0.35674 0.93065 0.0
H658 H 0.0761 0.38169 0.84344 0.0
H659 H 0.09967 0.4094 0.82923 0.0
H660 H 0.13842 0.42465 0.03704 0.0
H661 H 0.12319 0.39833 0.12296 0.0
C662 C 0.09277 0.37419 0.07641 0.0
C663 C 0.07671 0.36304 0.04343 0.0
C664 C 0.10249 0.38863 0.02609 0.0
C665 C 0.07136 0.3656 0.95842 0.0
C666 C 0.08093 0.37978 0.9082 0.0
C667 C 0.10488 0.40694 0.89318 0.0
C668 C 0.11988 0.41927 0.92707 0.0
C669 C 0.09618 0.3917 0.94189 0.0
C670 C 0.12667 0.41559 0.00964 0.0
C671 C 0.11799 0.40049 0.05886 0.0
H672 H 0.13271 0.06633 0.49312 0.0
H673 H 0.12176 0.10182 0.71508 0.0
H674 H 0.09909 0.12354 0.6344 0.0
H675 H 0.08026 0.13045 0.50312 0.0
H676 H 0.09156 0.09414 0.28276 0.0
H677 H 0.11617 0.07467 0.36063 0.0
C678 C 0.12533 0.07878 0.52389 0.0
C679 C 0.12855 0.08226 0.6101 0.0
C680 C 0.11233 0.091 0.47743 0.0
C681 C 0.11945 0.09885 0.64865 0.0
C682 C 0.10643 0.11118 0.60266 0.0
C683 C 0.08828 0.11845 0.47184 0.0
C684 C 0.08384 0.11365 0.38736 0.0
C685 C 0.10243 0.10713 0.51732 0.0
C686 C 0.09449 0.09809 0.34782 0.0
C687 C 0.10859 0.0869 0.39231 0.0
H688 H 0.41326 0.10368 0.17503 0.0
H689 H 0.4246 0.1395 0.95366 0.0
H690 H 0.39736 0.12256 0.8793 0.0
H691 H 0.37181 0.09567 0.87428 0.0
H692 H 0.36087 0.06037 0.09736 0.0
H693 H 0.38632 0.07901 0.17391 0.0
C694 C 0.40975 0.10786 0.11059 0.0
C695 C 0.42111 0.12267 0.06972 0.0
C696 C 0.39413 0.09807 0.06837 0.0
C697 C 0.41614 0.1281 0.98661 0.0
C698 C 0.40057 0.11839 0.94395 0.0
C699 C 0.37479 0.09234 0.94004 0.0
C700 C 0.36474 0.0764 0.97971 0.0
C701 C 0.38964 0.10312 0.98381 0.0
C702 C 0.36876 0.0722 0.06483 0.0
C703 C 0.38327 0.08292 0.10881 0.0
H704 H 0.41037 0.4477 0.57936 0.0
H705 H 0.37305 0.39815 0.65342 0.0
H706 H 0.38994 0.37651 0.5498 0.0
H707 H 0.41574 0.37201 0.43813 0.0
H708 H 0.4498 0.42334 0.35562 0.0
H709 H 0.43344 0.44417 0.46104 0.0
C710 C 0.40584 0.4322 0.57237 0.0
C711 C 0.39071 0.42436 0.62391 0.0
C712 C 0.41491 0.42029 0.51057 0.0
C713 C 0.38486 0.40433 0.61441 0.0
C714 C 0.39444 0.39204 0.55516 0.0
C715 C 0.41936 0.3878 0.44292 0.0
C716 C 0.43391 0.39614 0.38913 0.0
C717 C 0.40952 0.39989 0.50275 0.0
C718 C 0.43848 0.41662 0.39557 0.0
C719 C 0.42926 0.42852 0.45631 0.0
H720 H 0.87432 0.58927 0.0948 0.0
H721 H 0.92101 0.54558 0.13362 0.0
H722 H 0.94075 0.56049 0.02066 0.0
H723 H 0.94467 0.58548 0.90994 0.0
H724 H 0.90147 0.63296 0.88437 0.0
H725 H 0.88012 0.61697 0.99179 0.0
C726 C 0.88891 0.58325 0.0788 0.0
C727 C 0.89625 0.5664 0.12217 0.0
C728 C 0.90061 0.59242 0.01562 0.0
C729 C 0.91518 0.55868 0.10152 0.0
C730 C 0.92641 0.56708 0.03657 0.0
C731 C 0.93061 0.59237 0.92812 0.0
C732 C 0.92443 0.61016 0.88911 0.0
C733 C 0.91924 0.58385 0.99302 0.0
C734 C 0.90631 0.61909 0.91341 0.0
C735 C 0.89423 0.61002 0.97491 0.0
H736 H 0.91116 0.9003 0.67067 0.0
H737 H 0.92302 0.85918 0.46695 0.0
H738 H 0.89785 0.87596 0.37996 0.0
H739 H 0.8739 0.90399 0.35878 0.0
H740 H 0.86233 0.94434 0.5653 0.0
H741 H 0.88585 0.92624 0.6538 0.0
C742 C 0.90819 0.89487 0.60744 0.0
C743 C 0.91922 0.87868 0.57511 0.0
C744 C 0.89378 0.9046 0.55785 0.0
C745 C 0.91493 0.87174 0.49331 0.0
C746 C 0.90051 0.88135 0.44342 0.0
C747 C 0.87639 0.90863 0.42344 0.0
C748 C 0.86672 0.92584 0.45469 0.0
C749 C 0.89006 0.89804 0.47453 0.0
C750 C 0.87003 0.93161 0.53871 0.0
C751 C 0.88339 0.92114 0.58975 0.0
H752 H 0.6196 0.90442 0.15049 0.0
H753 H 0.63345 0.94148 0.93553 0.0
H754 H 0.61053 0.92222 0.84825 0.0
H755 H 0.58486 0.89645 0.83492 0.0
H756 H 0.57027 0.85922 0.04879 0.0
H757 H 0.59529 0.87664 0.13388 0.0
C758 C 0.61776 0.90805 0.08428 0.0
C759 C 0.62788 0.92464 0.04993 0.0
C760 C 0.60436 0.89691 0.03423 0.0
C761 C 0.62539 0.92919 0.96408 0.0
C762 C 0.61238 0.91808 0.91389 0.0
C763 C 0.58724 0.89198 0.89992 0.0
C764 C 0.57551 0.87667 0.93546 0.0
C765 C 0.60146 0.9022 0.9487 0.0
C766 C 0.57897 0.87102 0.01972 0.0
C767 C 0.59327 0.88102 0.06861 0.0
H768 H 0.6055 0.59193 0.35133 0.0
H769 H 0.63736 0.56406 0.55684 0.0
H770 H 0.61898 0.58436 0.65802 0.0
H771 H 0.59148 0.60775 0.68917 0.0
H772 H 0.55931 0.63513 0.4838 0.0
H773 H 0.58023 0.61766 0.38202 0.0
C774 C 0.6086 0.59049 0.41819 0.0
C775 C 0.62276 0.57641 0.44623 0.0
C776 C 0.59782 0.60214 0.47634 0.0
C777 C 0.6267 0.57484 0.53313 0.0
C778 C 0.61606 0.58637 0.59133 0.0
C779 C 0.58926 0.6101 0.62214 0.0
C780 C 0.57387 0.62284 0.59416 0.0
C781 C 0.60125 0.59973 0.56378 0.0
C782 C 0.57123 0.62575 0.5071 0.0
C783 C 0.58308 0.61555 0.44873 0.0
H784 H 0.01435 0.28001 0.31761 0.0
H785 H 0.05418 0.27313 0.10601 0.0
H786 H 0.062 0.23874 0.15137 0.0
H787 H 0.05297 0.20913 0.23948 0.0
H788 H 0.01171 0.21676 0.446 0.0
H789 H 0.00936 0.25254 0.41624 0.0
C790 C 0.02501 0.27107 0.28222 0.0
C791 C 0.03343 0.2788 0.20795 0.0
C792 C 0.02917 0.25148 0.30816 0.0
C793 C 0.04748 0.26734 0.16328 0.0
C794 C 0.05185 0.2477 0.18904 0.0
C795 C 0.04411 0.21886 0.27959 0.0
C796 C 0.03258 0.21052 0.34507 0.0
C797 C 0.04221 0.23937 0.25981 0.0
C798 C 0.02076 0.22302 0.3957 0.0
C799 C 0.01927 0.2434 0.37821 0.0
H800 H 0.28215 0.02467 0.71452 0.0
H801 H 0.27454 0.03752 0.97852 0.0
H802 H 0.23853 0.04288 0.95658 0.0
H803 H 0.20874 0.03833 0.86536 0.0
H804 H 0.21676 0.0258 0.60123 0.0
H805 H 0.25318 0.02629 0.61898 0.0
C806 C 0.27263 0.02925 0.76652 0.0
C807 C 0.28074 0.03069 0.84788 0.0
C808 C 0.25208 0.03224 0.75321 0.0
C809 C 0.26848 0.03653 0.91529 0.0
C810 C 0.24793 0.03941 0.90279 0.0
C811 C 0.21857 0.03651 0.81141 0.0
C812 C 0.21032 0.03224 0.732 0.0
C813 C 0.23946 0.03658 0.82255 0.0
C814 C 0.22296 0.02943 0.66249 0.0
C815 C 0.24373 0.0295 0.67287 0.0
H816 H 0.45269 0.27196 0.37456 0.0
H817 H 0.45383 0.30839 0.15043 0.0
H818 H 0.4505 0.27854 0.0624 0.0
H819 H 0.45415 0.24178 0.05037 0.0
H820 H 0.45086 0.20546 0.27458 0.0
H821 H 0.44767 0.23543 0.36162 0.0
C822 C 0.45132 0.27334 0.30664 0.0
C823 C 0.45351 0.29219 0.26871 0.0
C824 C 0.44932 0.25611 0.25653 0.0
C825 C 0.45193 0.29397 0.18074 0.0
C826 C 0.45028 0.27689 0.13039 0.0
C827 C 0.45194 0.24049 0.11794 0.0
C828 C 0.45283 0.22157 0.15626 0.0
C829 C 0.44996 0.25782 0.16757 0.0
C830 C 0.45003 0.21992 0.24378 0.0
C831 C 0.44842 0.23707 0.29369 0.0
H832 H 0.28642 0.45202 0.88706 0.0
H833 H 0.28786 0.44931 0.61577 0.0
H834 H 0.25125 0.44703 0.61183 0.0
H835 H 0.21909 0.45229 0.68536 0.0
H836 H 0.21764 0.45401 0.95684 0.0
H837 H 0.25408 0.44981 0.96167 0.0
C838 C 0.27867 0.45021 0.8274 0.0
C839 C 0.2896 0.45096 0.75177 0.0
C840 C 0.25771 0.44901 0.82588 0.0
C841 C 0.27964 0.4486 0.67461 0.0
C842 C 0.25873 0.44753 0.67242 0.0
C843 C 0.22676 0.45111 0.74546 0.0
C844 C 0.21594 0.45365 0.82065 0.0
C845 C 0.24763 0.44868 0.7475 0.0
C846 C 0.2258 0.452 0.89837 0.0
C847 C 0.2466 0.44979 0.90103 0.0
H848 H 0.95673 0.77942 0.81708 0.0
H849 H 0.95756 0.77958 0.54549 0.0
H850 H 0.95532 0.74293 0.5442 0.0
H851 H 0.95871 0.71099 0.62161 0.0
H852 H 0.95642 0.71084 0.89311 0.0
H853 H 0.95326 0.74741 0.89379 0.0
C854 C 0.9558 0.77138 0.75776 0.0
C855 C 0.95743 0.78197 0.68147 0.0
C856 C 0.95446 0.7504 0.75776 0.0
C857 C 0.95618 0.77162 0.60478 0.0
C858 C 0.9551 0.7507 0.60416 0.0
C859 C 0.95694 0.719 0.68067 0.0
C860 C 0.95797 0.70844 0.75724 0.0
C861 C 0.95505 0.73994 0.68033 0.0
C862 C 0.95556 0.71876 0.83355 0.0
C863 C 0.95394 0.73964 0.83388 0.0
H864 H 0.7841 0.96885 0.17537 0.0
H865 H 0.77377 0.96634 0.44307 0.0
H866 H 0.73764 0.96302 0.41898 0.0
H867 H 0.70901 0.96721 0.32178 0.0
H868 H 0.71943 0.96985 0.05413 0.0
H869 H 0.75556 0.96634 0.07721 0.0
C870 C 0.77393 0.96676 0.22803 0.0
C871 C 0.78137 0.96767 0.31071 0.0
C872 C 0.75325 0.96514 0.21345 0.0
C873 C 0.76824 0.96533 0.37897 0.0
C874 C 0.74762 0.96368 0.36513 0.0
C875 C 0.71922 0.96621 0.26867 0.0
C876 C 0.7118 0.96861 0.18646 0.0
C877 C 0.73992 0.96444 0.28276 0.0
C878 C 0.72496 0.9677 0.11774 0.0
C879 C 0.74558 0.96591 0.13107 0.0
H880 H 0.54336 0.78449 0.78244 0.0
H881 H 0.50039 0.77474 0.98113 0.0
H882 H 0.49891 0.73917 0.94669 0.0
H883 H 0.50629 0.71212 0.84942 0.0
H884 H 0.54795 0.72106 0.64521 0.0
H885 H 0.55364 0.75571 0.69221 0.0
C886 C 0.53424 0.77436 0.81966 0.0
C887 C 0.5221 0.78201 0.88464 0.0
C888 C 0.53287 0.75399 0.79714 0.0
C889 C 0.50993 0.76901 0.93138 0.0
C890 C 0.50895 0.74875 0.91121 0.0
C891 C 0.51669 0.72161 0.8152 0.0
C892 C 0.52634 0.71429 0.74284 0.0
C893 C 0.51973 0.74129 0.84228 0.0
C894 C 0.5402 0.72652 0.70061 0.0
C895 C 0.54341 0.74628 0.72748 0.0
H896 H 0.79003 0.5424 0.38114 0.0
H897 H 0.79025 0.54471 0.10971 0.0
H898 H 0.75364 0.54732 0.10868 0.0
H899 H 0.72178 0.54255 0.18501 0.0
H900 H 0.72156 0.54126 0.45663 0.0
H901 H 0.75807 0.54501 0.45833 0.0
C902 C 0.78202 0.5442 0.32206 0.0
C903 C 0.79258 0.54324 0.24558 0.0
C904 C 0.76107 0.54557 0.32223 0.0
C905 C 0.7823 0.54557 0.16917 0.0
C906 C 0.7614 0.54683 0.16865 0.0
C907 C 0.72975 0.54367 0.24443 0.0
C908 C 0.71925 0.54137 0.32059 0.0
C909 C 0.75064 0.54588 0.24467 0.0
C910 C 0.72947 0.54302 0.39744 0.0
C911 C 0.75031 0.54501 0.3983 0.0
H912 H 0.01673 0.30431 0.73374 0.0
H913 H 0.01648 0.36621 0.81184 0.0
H914 H 0.02139 0.37681 0.66609 0.0
H915 H 0.02541 0.36858 0.5155 0.0
H916 H 0.02568 0.30662 0.43828 0.0
H917 H 0.02066 0.29609 0.58387 0.0
C918 C 0.01751 0.32013 0.71908 0.0
C919 C 0.01621 0.33437 0.78445 0.0
C920 C 0.02026 0.32617 0.63478 0.0
C921 C 0.01765 0.35483 0.76358 0.0
C922 C 0.02037 0.36094 0.67989 0.0
C923 C 0.02453 0.35277 0.53048 0.0
C924 C 0.02584 0.33847 0.46532 0.0
C925 C 0.02174 0.34675 0.6149 0.0
C926 C 0.0244 0.31803 0.48638 0.0
C927 C 0.02165 0.31196 0.56997 0.0
H928 H 0.11841 0.03197 0.07309 0.0
H929 H 0.17997 0.02451 0.99603 0.0
H930 H 0.18973 0.01857 0.14191 0.0
H931 H 0.18097 0.01586 0.29194 0.0
H932 H 0.11953 0.02381 0.3694 0.0
H933 H 0.10972 0.02972 0.22338 0.0
C934 C 0.13399 0.02924 0.08798 0.0
C935 C 0.14835 0.0286 0.02279 0.0
C936 C 0.13959 0.02602 0.1725 0.0
C937 C 0.16846 0.02476 0.04405 0.0
C938 C 0.17411 0.02149 0.12782 0.0
C939 C 0.1654 0.01867 0.27698 0.0
C940 C 0.15105 0.0193 0.34215 0.0
C941 C 0.15981 0.02202 0.19257 0.0
C942 C 0.13098 0.0234 0.32117 0.0
C943 C 0.12531 0.02669 0.23737 0.0
H944 H 0.49996 0.15574 0.73922 0.0
H945 H 0.44306 0.18153 0.80813 0.0
H946 H 0.43245 0.18085 0.66068 0.0
H947 H 0.43959 0.17349 0.51271 0.0
H948 H 0.49609 0.14657 0.44391 0.0
H949 H 0.50681 0.14767 0.59077 0.0
C950 C 0.48531 0.16138 0.72184 0.0
C951 C 0.47235 0.16876 0.78457 0.0
C952 C 0.4793 0.16086 0.63701 0.0
C953 C 0.45325 0.17563 0.76123 0.0
C954 C 0.44722 0.17533 0.67688 0.0
C955 C 0.45416 0.1676 0.52943 0.0
C956 C 0.46697 0.15997 0.4665 0.0
C957 C 0.46013 0.16798 0.61428 0.0
C958 C 0.48597 0.1528 0.49025 0.0
C959 C 0.49209 0.1533 0.57451 0.0
H960 H 0.36726 0.44136 0.10254 0.0
H961 H 0.32907 0.48936 0.0174 0.0
H962 H 0.32252 0.49907 0.16312 0.0
H963 H 0.32697 0.49342 0.31508 0.0
H964 H 0.36593 0.44584 0.39972 0.0
H965 H 0.37234 0.43621 0.25451 0.0
C966 C 0.35745 0.4539 0.11598 0.0
C967 C 0.34875 0.46462 0.049 0.0
C968 C 0.35368 0.45936 0.20008 0.0
C969 C 0.33625 0.48101 0.06746 0.0
C970 C 0.33235 0.48648 0.15094 0.0
C971 C 0.33698 0.48105 0.30202 0.0
C972 C 0.34572 0.47033 0.36915 0.0
C973 C 0.34094 0.47573 0.21782 0.0
C974 C 0.35855 0.45418 0.35021 0.0
C975 C 0.36241 0.44872 0.26677 0.0
H976 H 0.00535 0.13387 0.72802 0.0
H977 H 0.05445 0.17201 0.65499 0.0
H978 H 0.06501 0.17465 0.8022 0.0
H979 H 0.05957 0.16697 0.95139 0.0
H980 H 0.01114 0.1276 0.02355 0.0
H981 H 0.00076 0.12503 0.87701 0.0
C982 C 0.01828 0.14285 0.74451 0.0
C983 C 0.02902 0.15283 0.6809 0.0
C984 C 0.02428 0.14422 0.82906 0.0
C985 C 0.04602 0.16408 0.70281 0.0
C986 C 0.05199 0.16567 0.78696 0.0
C987 C 0.04689 0.1576 0.93549 0.0
C988 C 0.03611 0.14766 0.99944 0.0
C989 C 0.04117 0.15587 0.85065 0.0
C990 C 0.01955 0.1358 0.9766 0.0
C991 C 0.01365 0.13417 0.89244 0.0
H992 H 0.3091 0.01166 0.29826 0.0
H993 H 0.37086 0.01695 0.22156 0.0
H994 H 0.38081 0.02259 0.36762 0.0
H995 H 0.37208 0.0257 0.51763 0.0
H996 H 0.31024 0.02082 0.59405 0.0
H997 H 0.30035 0.01489 0.44829 0.0
C998 C 0.32476 0.01384 0.31345 0.0
C999 C 0.33917 0.01387 0.24846 0.0
C1000 C 0.33042 0.01706 0.39789 0.0
C1001 C 0.35937 0.01708 0.26969 0.0
C1002 C 0.36511 0.02021 0.35348 0.0
C1003 C 0.35642 0.02353 0.50258 0.0
C1004 C 0.34199 0.02367 0.56753 0.0
C1005 C 0.35076 0.02028 0.41813 0.0
C1006 C 0.32177 0.02051 0.54616 0.0
C1007 C 0.31606 0.01723 0.46246 0.0
H1008 H 0.50397 0.35073 0.69842 0.0
H1009 H 0.44389 0.33393 0.62814 0.0
H1010 H 0.43337 0.33607 0.77541 0.0
H1011 H 0.44133 0.34239 0.92391 0.0
H1012 H 0.50128 0.35998 0.99367 0.0
H1013 H 0.51188 0.35726 0.847 0.0
C1014 C 0.48863 0.34732 0.71531 0.0
C1015 C 0.47476 0.34212 0.6521 0.0
C1016 C 0.48268 0.34859 0.80013 0.0
C1017 C 0.45483 0.33815 0.67521 0.0
C1018 C 0.44883 0.33927 0.75953 0.0
C1019 C 0.45667 0.34584 0.90731 0.0
C1020 C 0.47045 0.35138 0.97046 0.0
C1021 C 0.46262 0.34452 0.8225 0.0
C1022 C 0.49037 0.35541 0.94709 0.0
C1023 C 0.49643 0.35399 0.86294 0.0
H1024 H 0.16762 0.5019 0.25397 0.0
H1025 H 0.14469 0.44474 0.17167 0.0
H1026 H 0.13877 0.43494 0.3172 0.0
H1027 H 0.14151 0.44181 0.46849 0.0
H1028 H 0.16545 0.49837 0.55235 0.0
H1029 H 0.16939 0.5092 0.40623 0.0
C1030 C 0.16137 0.4873 0.26787 0.0
C1031 C 0.15665 0.47413 0.20143 0.0
C1032 C 0.15816 0.48161 0.35229 0.0
C1033 C 0.14825 0.45535 0.22088 0.0
C1034 C 0.14497 0.44963 0.30442 0.0
C1035 C 0.14761 0.4565 0.45482 0.0
C1036 C 0.15324 0.46917 0.52153 0.0
C1037 C 0.15008 0.46254 0.37062 0.0
C1038 C 0.16078 0.48833 0.50257 0.0
C1039 C 0.1632 0.4945 0.41884 0.0
H1040 H 0.94161 0.6366 0.41453 0.0
H1041 H 0.0003 0.65498 0.49813 0.0
H1042 H 0.01083 0.65941 0.35223 0.0
H1043 H 0.00299 0.6593 0.20039 0.0
H1044 H 0.94339 0.64309 0.1195 0.0
H1045 H 0.9337 0.63678 0.26445 0.0
C1046 C 0.95667 0.64172 0.40122 0.0
C1047 C 0.97001 0.64551 0.46797 0.0
C1048 C 0.96251 0.64472 0.31719 0.0
C1049 C 0.98966 0.65169 0.4487 0.0
C1050 C 0.99569 0.65442 0.36496 0.0
C1051 C 0.98785 0.65453 0.21434 0.0
C1052 C 0.97407 0.65161 0.14823 0.0
C1053 C 0.98216 0.6512 0.29866 0.0
C1054 C 0.95454 0.64516 0.16811 0.0
C1055 C 0.94888 0.64165 0.25144 0.0
H1056 H 0.87263 0.97677 0.97962 0.0
H1057 H 0.8106 0.97776 0.0557 0.0
H1058 H 0.80038 0.98323 0.90997 0.0
H1059 H 0.80889 0.98713 0.76038 0.0
H1060 H 0.87088 0.98626 0.68345 0.0
H1061 H 0.88116 0.98092 0.82932 0.0
C1062 C 0.85687 0.97803 0.96438 0.0
C1063 C 0.84245 0.9769 0.02925 0.0
C1064 C 0.85104 0.98111 0.8799 0.0
C1065 C 0.82209 0.97885 1.00783 0.0
C1066 C 0.8162 0.98187 0.92416 0.0
C1067 C 0.82467 0.98603 0.77525 0.0
C1068 C 0.83903 0.98714 0.71011 0.0
C1069 C 0.83053 0.98305 0.85964 0.0
C1070 C 0.85941 0.98527 0.73142 0.0
C1071 C 0.86534 0.9823 0.81521 0.0
H1072 H 0.55438 0.84708 0.49149 0.0
H1073 H 0.49489 0.83046 0.57091 0.0
H1074 H 0.48384 0.82957 0.4244 0.0
H1075 H 0.4911 0.83323 0.27402 0.0
H1076 H 0.55035 0.85085 0.1941 0.0
H1077 H 0.56158 0.85104 0.34017 0.0
C1078 C 0.53905 0.84314 0.47656 0.0
C1079 C 0.52548 0.83893 0.54208 0.0
C1080 C 0.53278 0.84266 0.39204 0.0
C1081 C 0.50557 0.83408 0.52188 0.0
C1082 C 0.49926 0.83342 0.43802 0.0
C1083 C 0.50642 0.8373 0.28824 0.0
C1084 C 0.51979 0.84198 0.22248 0.0
C1085 C 0.51272 0.83774 0.37263 0.0
C1086 C 0.53973 0.84687 0.24277 0.0
C1087 C 0.54616 0.84714 0.32659 0.0
H1088 H 0.67279 0.55715 0.97418 0.0
H1089 H 0.6394 0.50428 0.04369 0.0
H1090 H 0.64004 0.49292 0.89771 0.0
H1091 H 0.64964 0.49808 0.74953 0.0
H1092 H 0.68227 0.55127 0.67928 0.0
H1093 H 0.68193 0.56258 0.8258 0.0
C1094 C 0.66544 0.54324 0.95771 0.0
C1095 C 0.65612 0.53161 0.02095 0.0
C1096 C 0.66566 0.53684 0.87305 0.0
C1097 C 0.64697 0.51347 0.99738 0.0
C1098 C 0.64722 0.50698 0.9135 0.0
C1099 C 0.65688 0.51205 0.76627 0.0
C1100 C 0.66606 0.52374 0.70306 0.0
C1101 C 0.65656 0.5185 0.85081 0.0
C1102 C 0.67497 0.54202 0.72613 0.0
C1103 C 0.67484 0.54846 0.81013 0.0
H1104 H 0.00255 0.83283 0.24632 0.0
H1105 H 0.94408 0.85245 0.32789 0.0
H1106 H 0.93422 0.85812 0.18229 0.0
H1107 H 0.94145 0.85598 0.03123 0.0
H1108 H -0.0007 0.83516 0.94794 0.0
H1109 H 0.01016 0.83169 0.09422 0.0
C1110 C 0.98765 0.83829 0.23225 0.0
C1111 C 0.97413 0.84216 0.29847 0.0
C1112 C 0.98192 0.84134 0.14781 0.0
C1113 C 0.95495 0.84957 0.27883 0.0
C1114 C 0.9492 0.85269 0.19527 0.0
C1115 C 0.95643 0.85066 0.04503 0.0
C1116 C 0.96945 0.84574 0.97847 0.0
C1117 C 0.96247 0.84841 0.12927 0.0
C1118 C 0.98898 0.83925 0.99761 0.0
C1119 C 0.99516 0.83709 0.08143 0.0
H1120 H 0.68369 0.98791 0.74018 0.0
H1121 H 0.62177 0.98464 0.81677 0.0
H1122 H 0.61171 0.97906 0.67083 0.0
H1123 H 0.62037 0.97547 0.52077 0.0
H1124 H 0.68234 0.97856 0.44456 0.0
H1125 H 0.69236 0.98429 0.59035 0.0
C1126 C 0.66797 0.98621 0.72509 0.0
C1127 C 0.65356 0.98673 0.79009 0.0
C1128 C 0.66224 0.98304 0.64067 0.0
C1129 C 0.63327 0.98409 0.76877 0.0
C1130 C 0.62746 0.98099 0.685 0.0
C1131 C 0.63609 0.97722 0.53591 0.0
C1132 C 0.65052 0.97663 0.471 0.0
C1133 C 0.64181 0.9804 0.62037 0.0
C1134 C 0.67082 0.97923 0.49243 0.0
C1135 C 0.6766 0.9824 0.57614 0.0
H1136 H 0.55458 0.65165 0.07023 0.0
H1137 H 0.49459 0.66452 0.98463 0.0
H1138 H 0.48338 0.66786 0.13007 0.0
H1139 H 0.49059 0.66744 0.28169 0.0
H1140 H 0.55082 0.655 0.36637 0.0
H1141 H 0.56192 0.65192 0.22157 0.0
C1142 C 0.53908 0.65534 0.08314 0.0
C1143 C 0.52551 0.65767 0.01592 0.0
C1144 C 0.53274 0.65753 0.16713 0.0
C1145 C 0.50539 0.66222 0.03449 0.0
C1146 C 0.49896 0.66433 0.11795 0.0
C1147 C 0.50613 0.66392 0.26902 0.0
C1148 C 0.51967 0.66127 0.33637 0.0
C1149 C 0.5125 0.662 0.18483 0.0
C1150 C 0.53988 0.65717 0.31722 0.0
C1151 C 0.54631 0.65529 0.2338 0.0
H1152 H 0.86877 0.55349 0.59695 0.0
H1153 H 0.83278 0.50377 0.51288 0.0
H1154 H 0.82663 0.49394 0.65884 0.0
H1155 H 0.83079 0.49993 0.81047 0.0
H1156 H 0.86767 0.54922 0.89417 0.0
H1157 H 0.87361 0.559 0.74879 0.0
C1158 C 0.85954 0.54055 0.6107 0.0
C1159 C 0.85133 0.52937 0.544 0.0
C1160 C 0.856 0.53501 0.69489 0.0
C1161 C 0.83957 0.51247 0.56279 0.0
C1162 C 0.8359 0.50693 0.64637 0.0
C1163 C 0.84027 0.51271 0.79725 0.0
C1164 C 0.84856 0.52383 0.86417 0.0
C1165 C 0.84399 0.51812 0.71298 0.0
C1166 C 0.86065 0.54052 0.84489 0.0
C1167 C 0.86425 0.54608 0.76134 0.0
loop_
_geom_bond_atom_site_label_1
_geom_bond_atom_site_label_2
_geom_bond_distance
_geom_bond_site_symmetry_2
_ccdc_geom_bond_type
C0 C1 1.351 . S
C0 N3 1.368 . S
C0 H5 0.931 1_455 S
C1 C0 1.351 . S
C1 N2 1.373 . S
C1 H29 0.930 1_455 S
N2 C1 1.373 . S
N2 C4 1.340 . S
N3 C0 1.368 . S
N3 C4 1.321 . S
N3 Co6 2.135 1_556 S
C4 N2 1.340 . S
C4 N3 1.321 . S
C4 H28 0.930 . S
H5 C0 0.931 1_655 S
Co6 N3 2.135 1_554 S
Co6 N9 2.121 . S
Co6 O14 2.055 . S
Co6 O17 2.039 . S
Co6 N20 2.140 1_455 S
C7 O8 1.227 . S
C7 O17 1.265 . S
O8 C7 1.227 . S
N9 Co6 2.121 . S
N9 C11 1.375 . S
N9 C12 1.313 . S
C10 C11 1.338 . S
C10 N13 1.377 . S
C10 H30 0.930 . S
C11 N9 1.375 . S
C11 C10 1.338 . S
C11 H15 0.931 . S
C12 N9 1.313 . S
C12 N13 1.344 . S
C12 H16 0.930 . S
N13 C10 1.377 . S
N13 C12 1.344 . S
O14 Co6 2.055 . S
O14 C18 1.253 . S
H15 C11 0.931 . S
H16 C12 0.930 . S
O17 Co6 2.039 . S
O17 C7 1.265 . S
C18 O14 1.253 . S
C18 O19 1.252 . S
O19 C18 1.252 . S
N20 Co6 2.140 1_655 S
N20 C23 1.346 . S
N20 C24 1.345 . S
C21 C22 1.387 . S
C21 C25 1.391 . S
C22 C21 1.387 . S
C22 C23 1.369 . S
C22 H31 0.927 1_554 S
C23 N20 1.346 . S
C23 C22 1.369 . S
C23 H26 0.928 1_655 S
C24 N20 1.345 . S
C24 C25 1.371 . S
C24 H27 0.931 . S
C25 C21 1.391 . S
C25 C24 1.371 . S
C25 H32 0.930 . S
H26 C23 0.928 1_455 S
H27 C24 0.931 . S
H28 C4 0.930 . S
H29 C1 0.930 1_655 S
H30 C10 0.930 . S
H31 C22 0.927 1_556 S
H32 C25 0.930 . S
C33 C34 1.351 . S
C33 N36 1.368 . S
C33 H38 0.931 1_545 S
C34 C33 1.351 . S
C34 N35 1.373 . S
C34 H62 0.930 1_545 S
N35 C34 1.373 . S
N35 C37 1.340 . S
N36 C33 1.368 . S
N36 C37 1.321 . S
N36 Co39 2.135 . S
C37 N35 1.340 . S
C37 N36 1.321 . S
C37 H61 0.930 . S
H38 C33 0.931 1_565 S
Co39 N36 2.135 . S
Co39 N42 2.121 . S
Co39 O47 2.055 . S
Co39 O50 2.039 . S
Co39 N53 2.140 1_545 S
C40 O41 1.227 . S
C40 O50 1.265 . S
O41 C40 1.227 . S
N42 Co39 2.121 . S
N42 C44 1.375 . S
N42 C45 1.313 . S
C43 C44 1.338 . S
C43 N46 1.377 . S
C43 H63 0.930 . S
C44 N42 1.375 . S
C44 C43 1.338 . S
C44 H48 0.931 . S
C45 N42 1.313 . S
C45 N46 1.344 . S
C45 H49 0.930 . S
N46 C43 1.377 . S
N46 C45 1.344 . S
O47 Co39 2.055 . S
O47 C51 1.253 . S
H48 C44 0.931 . S
H49 C45 0.930 . S
O50 Co39 2.039 . S
O50 C40 1.265 . S
C51 O47 1.253 . S
C51 O52 1.252 . S
O52 C51 1.252 . S
N53 Co39 2.140 1_565 S
N53 C56 1.346 . S
N53 C57 1.345 . S
C54 C55 1.387 . S
C54 C58 1.391 . S
C55 C54 1.387 . S
C55 C56 1.369 . S
C55 H64 0.929 . S
C56 N53 1.346 . S
C56 C55 1.369 . S
C56 H59 0.928 1_565 S
C57 N53 1.345 . S
C57 C58 1.371 . S
C57 H60 0.931 . S
C58 C54 1.391 . S
C58 C57 1.371 . S
C58 H65 0.930 . S
H59 C56 0.928 1_545 S
H60 C57 0.931 . S
H61 C37 0.930 . S
H62 C34 0.930 1_565 S
H63 C43 0.930 . S
H64 C55 0.929 . S
H65 C58 0.930 . S
C66 C67 1.351 . S
C66 N69 1.368 . S
C66 H71 0.931 . S
C67 C66 1.351 . S
C67 N68 1.373 . S
C67 H95 0.930 . S
N68 C67 1.373 . S
N68 C70 1.340 . S
N69 C66 1.368 . S
N69 C70 1.321 . S
N69 Co72 2.135 1_556 S
C70 N68 1.340 . S
C70 N69 1.321 . S
C70 H94 0.930 . S
H71 C66 0.931 . S
Co72 N69 2.135 1_554 S
Co72 N75 2.121 . S
Co72 O80 2.055 . S
Co72 O83 2.039 . S
Co72 N86 2.140 . S
C73 O74 1.227 . S
C73 O83 1.265 . S
O74 C73 1.227 . S
N75 Co72 2.121 . S
N75 C77 1.375 . S
N75 C78 1.313 . S
C76 C77 1.338 . S
C76 N79 1.377 . S
C76 H96 0.930 . S
C77 N75 1.375 . S
C77 C76 1.338 . S
C77 H81 0.931 . S
C78 N75 1.313 . S
C78 N79 1.344 . S
C78 H82 0.930 . S
N79 C76 1.377 . S
N79 C78 1.344 . S
O80 Co72 2.055 . S
O80 C84 1.253 . S
H81 C77 0.931 . S
H82 C78 0.930 . S
O83 Co72 2.039 . S
O83 C73 1.265 . S
C84 O80 1.253 . S
C84 O85 1.227 . S
O85 C84 1.227 . S
N86 Co72 2.140 . S
N86 C89 1.346 . S
N86 C90 1.345 . S
C87 C88 1.387 . S
C87 C91 1.391 . S
C88 C87 1.387 . S
C88 C89 1.369 . S
C88 H97 0.927 1_554 S
C89 N86 1.346 . S
C89 C88 1.369 . S
C89 H92 0.928 . S
C90 N86 1.345 . S
C90 C91 1.371 . S
C90 H93 0.931 . S
C91 C87 1.391 . S
C91 C90 1.371 . S
C91 H98 0.930 . S
H92 C89 0.928 . S
H93 C90 0.931 . S
H94 C70 0.930 . S
H95 C67 0.930 . S
H96 C76 0.930 . S
H97 C88 0.927 1_556 S
H98 C91 0.930 . S
C99 C100 1.351 . S
C99 N102 1.368 . S
C99 H104 0.931 . S
C100 C99 1.351 . S
C100 N101 1.373 . S
C100 H128 0.930 . S
N101 C100 1.373 . S
N101 C103 1.340 . S
N102 C99 1.368 . S
N102 C103 1.321 . S
N102 Co105 2.135 . S
C103 N101 1.340 . S
C103 N102 1.321 . S
C103 H127 0.930 . S
H104 C99 0.931 . S
Co105 N102 2.135 . S
Co105 N108 2.121 . S
Co105 O113 2.055 . S
Co105 O116 2.039 . S
Co105 N119 2.140 . S
C106 O107 1.227 . S
C106 O116 1.265 . S
O107 C106 1.227 . S
N108 Co105 2.121 . S
N108 C110 1.375 . S
N108 C111 1.313 . S
C109 C110 1.338 . S
C109 N112 1.377 . S
C109 H129 0.930 . S
C110 N108 1.375 . S
C110 C109 1.338 . S
C110 H114 0.931 . S
C111 N108 1.313 . S
C111 N112 1.344 . S
C111 H115 0.930 . S
N112 C109 1.377 . S
N112 C111 1.344 . S
O113 Co105 2.055 . S
O113 C117 1.253 . S
H114 C110 0.931 . S
H115 C111 0.930 . S
O116 Co105 2.039 . S
O116 C106 1.265 . S
C117 O113 1.253 . S
C117 O118 1.227 . S
O118 C117 1.227 . S
N119 Co105 2.140 . S
N119 C122 1.346 . S
N119 C123 1.345 . S
C120 C121 1.387 . S
C120 C124 1.391 . S
C121 C120 1.387 . S
C121 C122 1.369 . S
C121 H130 0.929 . S
C122 N119 1.346 . S
C122 C121 1.369 . S
C122 H125 0.928 . S
C123 N119 1.345 . S
C123 C124 1.371 . S
C123 H126 0.931 . S
C124 C120 1.391 . S
C124 C123 1.371 . S
C124 H131 0.930 . S
H125 C122 0.928 . S
H126 C123 0.931 . S
H127 C103 0.930 . S
H128 C100 0.930 . S
H129 C109 0.930 . S
H130 C121 0.929 . S
H131 C124 0.930 . S
C132 C133 1.351 . S
C132 N135 1.368 . S
C132 H137 0.931 1_455 S
C133 C132 1.351 . S
C133 N134 1.373 . S
C133 H161 0.930 1_455 S
N134 C133 1.373 . S
N134 C136 1.340 . S
N135 C132 1.368 . S
N135 C136 1.321 . S
N135 Co138 2.135 . S
C136 N134 1.340 . S
C136 N135 1.321 . S
C136 H160 0.930 . S
H137 C132 0.931 1_655 S
Co138 N135 2.135 . S
Co138 N141 2.121 . S
Co138 O146 2.055 . S
Co138 O149 2.039 . S
Co138 N152 2.140 1_455 S
C139 O140 1.227 . S
C139 O149 1.265 . S
O140 C139 1.227 . S
N141 Co138 2.121 . S
N141 C143 1.375 . S
N141 C144 1.313 . S
C142 C143 1.338 . S
C142 N145 1.377 . S
C142 H162 0.930 . S
C143 N141 1.375 . S
C143 C142 1.338 . S
C143 H147 0.931 . S
C144 N141 1.313 . S
C144 N145 1.344 . S
C144 H148 0.930 . S
N145 C142 1.377 . S
N145 C144 1.344 . S
O146 Co138 2.055 . S
O146 C150 1.253 . S
H147 C143 0.931 . S
H148 C144 0.930 . S
O149 Co138 2.039 . S
O149 C139 1.265 . S
C150 O146 1.253 . S
C150 O151 1.252 . S
O151 C150 1.252 . S
N152 Co138 2.140 1_655 S
N152 C155 1.346 . S
N152 C156 1.345 . S
C153 C154 1.387 . S
C153 C157 1.391 . S
C154 C153 1.387 . S
C154 C155 1.369 . S
C154 H163 0.929 . S
C155 N152 1.346 . S
C155 C154 1.369 . S
C155 H158 0.928 1_655 S
C156 N152 1.345 . S
C156 C157 1.371 . S
C156 H159 0.931 . S
C157 C153 1.391 . S
C157 C156 1.371 . S
C157 H164 0.930 . S
H158 C155 0.928 1_455 S
H159 C156 0.931 . S
H160 C136 0.930 . S
H161 C133 0.930 1_655 S
H162 C142 0.930 . S
H163 C154 0.929 . S
H164 C157 0.930 . S
C165 C166 1.351 . S
C165 N168 1.368 . S
C165 H170 0.931 1_545 S
C166 C165 1.351 . S
C166 N167 1.373 . S
C166 H194 0.930 1_545 S
N167 C166 1.373 . S
N167 C169 1.340 . S
N168 C165 1.368 . S
N168 C169 1.321 . S
N168 Co171 2.135 1_554 S
C169 N167 1.340 . S
C169 N168 1.321 . S
C169 H193 0.930 . S
H170 C165 0.931 1_565 S
Co171 N168 2.135 1_556 S
Co171 N174 2.121 . S
Co171 O179 2.055 . S
Co171 O182 2.039 . S
Co171 N185 2.140 1_545 S
C172 O173 1.227 . S
C172 O182 1.265 . S
O173 C172 1.227 . S
N174 Co171 2.121 . S
N174 C176 1.375 . S
N174 C177 1.313 . S
C175 C176 1.338 . S
C175 N178 1.377 . S
C175 H195 0.930 . S
C176 N174 1.375 . S
C176 C175 1.338 . S
C176 H180 0.931 . S
C177 N174 1.313 . S
C177 N178 1.344 . S
C177 H181 0.930 . S
N178 C175 1.377 . S
N178 C177 1.344 . S
O179 Co171 2.055 . S
O179 C183 1.253 . S
H180 C176 0.931 . S
H181 C177 0.930 . S
O182 Co171 2.039 . S
O182 C172 1.265 . S
C183 O179 1.253 . S
C183 O184 1.252 . S
O184 C183 1.252 . S
N185 Co171 2.140 1_565 S
N185 C188 1.346 . S
N185 C189 1.345 . S
C186 C187 1.387 . S
C186 C190 1.391 . S
C187 C186 1.387 . S
C187 C188 1.369 . S
C187 H196 0.927 1_556 S
C188 N185 1.346 . S
C188 C187 1.369 . S
C188 H191 0.928 1_565 S
C189 N185 1.345 . S
C189 C190 1.371 . S
C189 H192 0.931 . S
C190 C186 1.391 . S
C190 C189 1.371 . S
C190 H197 0.930 . S
H191 C188 0.928 1_545 S
H192 C189 0.931 . S
H193 C169 0.930 . S
H194 C166 0.930 1_565 S
H195 C175 0.930 . S
H196 C187 0.927 1_554 S
H197 C190 0.930 . S
C198 C199 1.351 . S
C198 N201 1.368 . S
C198 H203 0.931 . S
C199 C198 1.351 . S
C199 N200 1.373 . S
C199 H227 0.930 . S
N200 C199 1.373 . S
N200 C202 1.340 . S
N201 C198 1.368 . S
N201 C202 1.321 . S
N201 Co204 2.135 . S
C202 N200 1.340 . S
C202 N201 1.321 . S
C202 H226 0.930 . S
H203 C198 0.931 . S
Co204 N201 2.135 . S
Co204 N207 2.121 . S
Co204 O212 2.055 . S
Co204 O215 2.039 . S
Co204 N218 2.140 . S
C205 O206 1.227 . S
C205 O215 1.265 . S
O206 C205 1.227 . S
N207 Co204 2.121 . S
N207 C209 1.375 . S
N207 C210 1.313 . S
C208 C209 1.338 . S
C208 N211 1.377 . S
C208 H228 0.930 . S
C209 N207 1.375 . S
C209 C208 1.338 . S
C209 H213 0.931 . S
C210 N207 1.313 . S
C210 N211 1.344 . S
C210 H214 0.930 . S
N211 C208 1.377 . S
N211 C210 1.344 . S
O212 Co204 2.055 . S
O212 C216 1.253 . S
H213 C209 0.931 . S
H214 C210 0.930 . S
O215 Co204 2.039 . S
O215 C205 1.265 . S
C216 O212 1.253 . S
C216 O217 1.227 . S
O217 C216 1.227 . S
N218 Co204 2.140 . S
N218 C221 1.346 . S
N218 C222 1.345 . S
C219 C220 1.387 . S
C219 C223 1.391 . S
C220 C219 1.387 . S
C220 C221 1.369 . S
C220 H229 0.929 . S
C221 N218 1.346 . S
C221 C220 1.369 . S
C221 H224 0.928 . S
C222 N218 1.345 . S
C222 C223 1.371 . S
C222 H225 0.931 . S
C223 C219 1.391 . S
C223 C222 1.371 . S
C223 H230 0.930 . S
H224 C221 0.928 . S
H225 C222 0.931 . S
H226 C202 0.930 . S
H227 C199 0.930 . S
H228 C208 0.930 . S
H229 C220 0.929 . S
H230 C223 0.930 . S
C231 C232 1.351 . S
C231 N234 1.368 . S
C231 H236 0.931 . S
C232 C231 1.351 . S
C232 N233 1.373 . S
C232 H260 0.930 . S
N233 C232 1.373 . S
N233 C235 1.340 . S
N234 C231 1.368 . S
N234 C235 1.321 . S
N234 Co237 2.135 1_554 S
C235 N233 1.340 . S
C235 N234 1.321 . S
C235 H259 0.930 . S
H236 C231 0.931 . S
Co237 N234 2.135 1_556 S
Co237 N240 2.121 . S
Co237 O245 2.055 . S
Co237 O248 2.039 . S
Co237 N251 2.140 . S
C238 O239 1.227 . S
C238 O248 1.265 . S
O239 C238 1.227 . S
N240 Co237 2.121 . S
N240 C242 1.375 . S
N240 C243 1.313 . S
C241 C242 1.338 . S
C241 N244 1.377 . S
C241 H261 0.930 . S
C242 N240 1.375 . S
C242 C241 1.338 . S
C242 H246 0.931 . S
C243 N240 1.313 . S
C243 N244 1.344 . S
C243 H247 0.930 . S
N244 C241 1.377 . S
N244 C243 1.344 . S
O245 Co237 2.055 . S
O245 C249 1.253 . S
H246 C242 0.931 . S
H247 C243 0.930 . S
O248 Co237 2.039 . S
O248 C238 1.265 . S
C249 O245 1.253 . S
C249 O250 1.227 . S
O250 C249 1.227 . S
N251 Co237 2.140 . S
N251 C254 1.346 . S
N251 C255 1.345 . S
C252 C253 1.387 . S
C252 C256 1.391 . S
C253 C252 1.387 . S
C253 C254 1.369 . S
C253 H262 0.927 1_556 S
C254 N251 1.346 . S
C254 C253 1.369 . S
C254 H257 0.928 . S
C255 N251 1.345 . S
C255 C256 1.371 . S
C255 H258 0.931 . S
C256 C252 1.391 . S
C256 C255 1.371 . S
C256 H263 0.930 . S
H257 C254 0.928 . S
H258 C255 0.931 . S
H259 C235 0.930 . S
H260 C232 0.930 . S
H261 C241 0.930 . S
H262 C253 0.927 1_554 S
H263 C256 0.930 . S
C264 C265 1.351 . S
C264 N267 1.368 . S
C264 H269 0.931 1_655 S
C265 C264 1.351 . S
C265 N266 1.373 . S
C265 H293 0.930 1_655 S
N266 C265 1.373 . S
N266 C268 1.340 . S
N267 C264 1.368 . S
N267 C268 1.321 . S
N267 Co270 2.135 1_554 S
C268 N266 1.340 . S
C268 N267 1.321 . S
C268 H292 0.930 . S
H269 C264 0.931 1_455 S
Co270 N267 2.135 1_556 S
Co270 N273 2.121 . S
Co270 O278 2.055 . S
Co270 O281 2.039 . S
Co270 N284 2.140 1_655 S
C271 O272 1.227 . S
C271 O281 1.265 . S
O272 C271 1.227 . S
N273 Co270 2.121 . S
N273 C275 1.375 . S
N273 C276 1.313 . S
C274 C275 1.338 . S
C274 N277 1.377 . S
C274 H294 0.930 . S
C275 N273 1.375 . S
C275 C274 1.338 . S
C275 H279 0.931 . S
C276 N273 1.313 . S
C276 N277 1.344 . S
C276 H280 0.930 . S
N277 C274 1.377 . S
N277 C276 1.344 . S
O278 Co270 2.055 . S
O278 C282 1.253 . S
H279 C275 0.931 . S
H280 C276 0.930 . S
O281 Co270 2.039 . S
O281 C271 1.265 . S
C282 O278 1.253 . S
C282 O283 1.252 . S
O283 C282 1.252 . S
N284 Co270 2.140 1_455 S
N284 C287 1.346 . S
N284 C288 1.345 . S
C285 C286 1.387 . S
C285 C289 1.391 . S
C286 C285 1.387 . S
C286 C287 1.369 . S
C286 H295 0.927 1_556 S
C287 N284 1.346 . S
C287 C286 1.369 . S
C287 H290 0.928 1_455 S
C288 N284 1.345 . S
C288 C289 1.371 . S
C288 H291 0.931 . S
C289 C285 1.391 . S
C289 C288 1.371 . S
C289 H296 0.930 . S
H290 C287 0.928 1_655 S
H291 C288 0.931 . S
H292 C268 0.930 . S
H293 C265 0.930 1_455 S
H294 C274 0.930 . S
H295 C286 0.927 1_554 S
H296 C289 0.930 . S
C297 C298 1.351 . S
C297 N300 1.368 . S
C297 H302 0.931 1_565 S
C298 C297 1.351 . S
C298 N299 1.373 . S
C298 H326 0.930 1_565 S
N299 C298 1.373 . S
N299 C301 1.340 . S
N300 C297 1.368 . S
N300 C301 1.321 . S
N300 Co303 2.135 . S
C301 N299 1.340 . S
C301 N300 1.321 . S
C301 H325 0.930 . S
H302 C297 0.931 1_545 S
Co303 N300 2.135 . S
Co303 N306 2.121 . S
Co303 O311 2.055 . S
Co303 O314 2.039 . S
Co303 N317 2.140 1_565 S
C304 O305 1.227 . S
C304 O314 1.265 . S
O305 C304 1.227 . S
N306 Co303 2.121 . S
N306 C308 1.375 . S
N306 C309 1.313 . S
C307 C308 1.338 . S
C307 N310 1.377 . S
C307 H327 0.930 . S
C308 N306 1.375 . S
C308 C307 1.338 . S
C308 H312 0.931 . S
C309 N306 1.313 . S
C309 N310 1.344 . S
C309 H313 0.930 . S
N310 C307 1.377 . S
N310 C309 1.344 . S
O311 Co303 2.055 . S
O311 C315 1.253 . S
H312 C308 0.931 . S
H313 C309 0.930 . S
O314 Co303 2.039 . S
O314 C304 1.265 . S
C315 O311 1.253 . S
C315 O316 1.252 . S
O316 C315 1.252 . S
N317 Co303 2.140 1_545 S
N317 C320 1.346 . S
N317 C321 1.345 . S
C318 C319 1.387 . S
C318 C322 1.391 . S
C319 C318 1.387 . S
C319 C320 1.369 . S
C319 H328 0.929 . S
C320 N317 1.346 . S
C320 C319 1.369 . S
C320 H323 0.928 1_545 S
C321 N317 1.345 . S
C321 C322 1.371 . S
C321 H324 0.931 . S
C322 C318 1.391 . S
C322 C321 1.371 . S
C322 H329 0.930 . S
H323 C320 0.928 1_565 S
H324 C321 0.931 . S
H325 C301 0.930 . S
H326 C298 0.930 1_545 S
H327 C307 0.930 . S
H328 C319 0.929 . S
H329 C322 0.930 . S
C330 C331 1.351 . S
C330 N333 1.368 . S
C330 H335 0.931 . S
C331 C330 1.351 . S
C331 N332 1.373 . S
C331 H359 0.930 . S
N332 C331 1.373 . S
N332 C334 1.340 . S
N333 C330 1.368 . S
N333 C334 1.321 . S
N333 Co336 2.135 1_554 S
C334 N332 1.340 . S
C334 N333 1.321 . S
C334 H358 0.930 . S
H335 C330 0.931 . S
Co336 N333 2.135 1_556 S
Co336 N339 2.121 . S
Co336 O344 2.055 . S
Co336 O347 2.039 . S
Co336 N350 2.140 . S
C337 O338 1.227 . S
C337 O347 1.265 . S
O338 C337 1.227 . S
N339 Co336 2.121 . S
N339 C341 1.375 . S
N339 C342 1.313 . S
C340 C341 1.338 . S
C340 N343 1.377 . S
C340 H360 0.930 . S
C341 N339 1.375 . S
C341 C340 1.338 . S
C341 H345 0.931 . S
C342 N339 1.313 . S
C342 N343 1.344 . S
C342 H346 0.930 . S
N343 C340 1.377 . S
N343 C342 1.344 . S
O344 Co336 2.055 . S
O344 C348 1.253 . S
H345 C341 0.931 . S
H346 C342 0.930 . S
O347 Co336 2.039 . S
O347 C337 1.265 . S
C348 O344 1.253 . S
C348 O349 1.227 . S
O349 C348 1.227 . S
N350 Co336 2.140 . S
N350 C353 1.346 . S
N350 C354 1.345 . S
C351 C352 1.387 . S
C351 C355 1.391 . S
C352 C351 1.387 . S
C352 C353 1.369 . S
C352 H361 0.927 1_556 S
C353 N350 1.346 . S
C353 C352 1.369 . S
C353 H356 0.928 . S
C354 N350 1.345 . S
C354 C355 1.371 . S
C354 H357 0.931 . S
C355 C351 1.391 . S
C355 C354 1.371 . S
C355 H362 0.930 . S
H356 C353 0.928 . S
H357 C354 0.931 . S
H358 C334 0.930 . S
H359 C331 0.930 . S
H360 C340 0.930 . S
H361 C352 0.927 1_554 S
H362 C355 0.930 . S
C363 C364 1.351 . S
C363 N366 1.368 . S
C363 H368 0.931 . S
C364 C363 1.351 . S
C364 N365 1.373 . S
C364 H392 0.930 . S
N365 C364 1.373 . S
N365 C367 1.340 . S
N366 C363 1.368 . S
N366 C367 1.321 . S
N366 Co369 2.135 . S
C367 N365 1.340 . S
C367 N366 1.321 . S
C367 H391 0.930 . S
H368 C363 0.931 . S
Co369 N366 2.135 . S
Co369 N372 2.121 . S
Co369 O377 2.055 . S
Co369 O380 2.039 . S
Co369 N383 2.140 . S
C370 O371 1.227 . S
C370 O380 1.265 . S
O371 C370 1.227 . S
N372 Co369 2.121 . S
N372 C374 1.375 . S
N372 C375 1.313 . S
C373 C374 1.338 . S
C373 N376 1.377 . S
C373 H393 0.930 . S
C374 N372 1.375 . S
C374 C373 1.338 . S
C374 H378 0.931 . S
C375 N372 1.313 . S
C375 N376 1.344 . S
C375 H379 0.930 . S
N376 C373 1.377 . S
N376 C375 1.344 . S
O377 Co369 2.055 . S
O377 C381 1.253 . S
H378 C374 0.931 . S
H379 C375 0.930 . S
O380 Co369 2.039 . S
O380 C370 1.265 . S
C381 O377 1.253 . S
C381 O382 1.227 . S
O382 C381 1.227 . S
N383 Co369 2.140 . S
N383 C386 1.346 . S
N383 C387 1.345 . S
C384 C385 1.387 . S
C384 C388 1.391 . S
C385 C384 1.387 . S
C385 C386 1.369 . S
C385 H394 0.929 . S
C386 N383 1.346 . S
C386 C385 1.369 . S
C386 H389 0.928 . S
C387 N383 1.345 . S
C387 C388 1.371 . S
C387 H390 0.931 . S
C388 C384 1.391 . S
C388 C387 1.371 . S
C388 H395 0.930 . S
H389 C386 0.928 . S
H390 C387 0.931 . S
H391 C367 0.930 . S
H392 C364 0.930 . S
H393 C373 0.930 . S
H394 C385 0.929 . S
H395 C388 0.930 . S
C396 C397 1.351 . S
C396 N399 1.368 . S
C396 H401 0.931 1_655 S
C397 C396 1.351 . S
C397 N398 1.373 . S
C397 H425 0.930 1_655 S
N398 C397 1.373 . S
N398 C400 1.340 . S
N399 C396 1.368 . S
N399 C400 1.321 . S
N399 Co402 2.135 . S
C400 N398 1.340 . S
C400 N399 1.321 . S
C400 H424 0.930 . S
H401 C396 0.931 1_455 S
Co402 N399 2.135 . S
Co402 N405 2.121 . S
Co402 O410 2.055 . S
Co402 O413 2.039 . S
Co402 N416 2.140 1_655 S
C403 O404 1.227 . S
C403 O413 1.265 . S
O404 C403 1.227 . S
N405 Co402 2.121 . S
N405 C407 1.375 . S
N405 C408 1.313 . S
C406 C407 1.338 . S
C406 N409 1.377 . S
C406 H426 0.930 . S
C407 N405 1.375 . S
C407 C406 1.338 . S
C407 H411 0.931 . S
C408 N405 1.313 . S
C408 N409 1.344 . S
C408 H412 0.930 . S
N409 C406 1.377 . S
N409 C408 1.344 . S
O410 Co402 2.055 . S
O410 C414 1.253 . S
H411 C407 0.931 . S
H412 C408 0.930 . S
O413 Co402 2.039 . S
O413 C403 1.265 . S
C414 O410 1.253 . S
C414 O415 1.252 . S
O415 C414 1.252 . S
N416 Co402 2.140 1_455 S
N416 C419 1.346 . S
N416 C420 1.345 . S
C417 C418 1.387 . S
C417 C421 1.391 . S
C418 C417 1.387 . S
C418 C419 1.369 . S
C418 H427 0.929 . S
C419 N416 1.346 . S
C419 C418 1.369 . S
C419 H422 0.928 1_455 S
C420 N416 1.345 . S
C420 C421 1.371 . S
C420 H423 0.931 . S
C421 C417 1.391 . S
C421 C420 1.371 . S
C421 H428 0.930 . S
H422 C419 0.928 1_655 S
H423 C420 0.931 . S
H424 C400 0.930 . S
H425 C397 0.930 1_455 S
H426 C406 0.930 . S
H427 C418 0.929 . S
H428 C421 0.930 . S
C429 C430 1.351 . S
C429 N432 1.368 . S
C429 H434 0.931 1_565 S
C430 C429 1.351 . S
C430 N431 1.373 . S
C430 H458 0.930 1_565 S
N431 C430 1.373 . S
N431 C433 1.340 . S
N432 C429 1.368 . S
N432 C433 1.321 . S
N432 Co435 2.135 1_556 S
C433 N431 1.340 . S
C433 N432 1.321 . S
C433 H457 0.930 . S
H434 C429 0.931 1_545 S
Co435 N432 2.135 1_554 S
Co435 N438 2.121 . S
Co435 O443 2.055 . S
Co435 O446 2.039 . S
Co435 N449 2.140 1_565 S
C436 O437 1.227 . S
C436 O446 1.265 . S
O437 C436 1.227 . S
N438 Co435 2.121 . S
N438 C440 1.375 . S
N438 C441 1.313 . S
C439 C440 1.338 . S
C439 N442 1.377 . S
C439 H459 0.930 . S
C440 N438 1.375 . S
C440 C439 1.338 . S
C440 H444 0.931 . S
C441 N438 1.313 . S
C441 N442 1.344 . S
C441 H445 0.930 . S
N442 C439 1.377 . S
N442 C441 1.344 . S
O443 Co435 2.055 . S
O443 C447 1.253 . S
H444 C440 0.931 . S
H445 C441 0.930 . S
O446 Co435 2.039 . S
O446 C436 1.265 . S
C447 O443 1.253 . S
C447 O448 1.252 . S
O448 C447 1.252 . S
N449 Co435 2.140 1_545 S
N449 C452 1.346 . S
N449 C453 1.345 . S
C450 C451 1.387 . S
C450 C454 1.391 . S
C451 C450 1.387 . S
C451 C452 1.369 . S
C451 H460 0.927 1_554 S
C452 N449 1.346 . S
C452 C451 1.369 . S
C452 H455 0.928 1_545 S
C453 N449 1.345 . S
C453 C454 1.371 . S
C453 H456 0.931 . S
C454 C450 1.391 . S
C454 C453 1.371 . S
C454 H461 0.930 . S
H455 C452 0.928 1_565 S
H456 C453 0.931 . S
H457 C433 0.930 . S
H458 C430 0.930 1_545 S
H459 C439 0.930 . S
H460 C451 0.927 1_556 S
H461 C454 0.930 . S
C462 C463 1.351 . S
C462 N465 1.368 . S
C462 H467 0.931 . S
C463 C462 1.351 . S
C463 N464 1.373 . S
C463 H491 0.930 . S
N464 C463 1.373 . S
N464 C466 1.340 . S
N465 C462 1.368 . S
N465 C466 1.321 . S
N465 Co468 2.135 . S
C466 N464 1.340 . S
C466 N465 1.321 . S
C466 H490 0.930 . S
H467 C462 0.931 . S
Co468 N465 2.135 . S
Co468 N471 2.121 . S
Co468 O476 2.055 . S
Co468 O479 2.039 . S
Co468 N482 2.140 . S
C469 O470 1.227 . S
C469 O479 1.265 . S
O470 C469 1.227 . S
N471 Co468 2.121 . S
N471 C473 1.375 . S
N471 C474 1.313 . S
C472 C473 1.338 . S
C472 N475 1.377 . S
C472 H492 0.930 . S
C473 N471 1.375 . S
C473 C472 1.338 . S
C473 H477 0.931 . S
C474 N471 1.313 . S
C474 N475 1.344 . S
C474 H478 0.930 . S
N475 C472 1.377 . S
N475 C474 1.344 . S
O476 Co468 2.055 . S
O476 C480 1.253 . S
H477 C473 0.931 . S
H478 C474 0.930 . S
O479 Co468 2.039 . S
O479 C469 1.265 . S
C480 O476 1.253 . S
C480 O481 1.227 . S
O481 C480 1.227 . S
N482 Co468 2.140 . S
N482 C485 1.346 . S
N482 C486 1.345 . S
C483 C484 1.387 . S
C483 C487 1.391 . S
C484 C483 1.387 . S
C484 C485 1.369 . S
C484 H493 0.929 . S
C485 N482 1.346 . S
C485 C484 1.369 . S
C485 H488 0.928 . S
C486 N482 1.345 . S
C486 C487 1.371 . S
C486 H489 0.931 . S
C487 C483 1.391 . S
C487 C486 1.371 . S
C487 H494 0.930 . S
H488 C485 0.928 . S
H489 C486 0.931 . S
H490 C466 0.930 . S
H491 C463 0.930 . S
H492 C472 0.930 . S
H493 C484 0.929 . S
H494 C487 0.930 . S
C495 C496 1.351 . S
C495 N498 1.368 . S
C495 H500 0.931 . S
C496 C495 1.351 . S
C496 N497 1.373 . S
C496 H524 0.930 . S
N497 C496 1.373 . S
N497 C499 1.340 . S
N498 C495 1.368 . S
N498 C499 1.321 . S
N498 Co501 2.135 1_556 S
C499 N497 1.340 . S
C499 N498 1.321 . S
C499 H523 0.930 . S
H500 C495 0.931 . S
Co501 N498 2.135 1_554 S
Co501 N504 2.121 . S
Co501 O509 2.055 . S
Co501 O512 2.039 . S
Co501 N515 2.140 . S
C502 O503 1.227 . S
C502 O512 1.265 . S
O503 C502 1.227 . S
N504 Co501 2.121 . S
N504 C506 1.375 . S
N504 C507 1.313 . S
C505 C506 1.338 . S
C505 N508 1.377 . S
C505 H525 0.930 . S
C506 N504 1.375 . S
C506 C505 1.338 . S
C506 H510 0.931 . S
C507 N504 1.313 . S
C507 N508 1.344 . S
C507 H511 0.930 . S
N508 C505 1.377 . S
N508 C507 1.344 . S
O509 Co501 2.055 . S
O509 C513 1.253 . S
H510 C506 0.931 . S
H511 C507 0.930 . S
O512 Co501 2.039 . S
O512 C502 1.265 . S
C513 O509 1.253 . S
C513 O514 1.227 . S
O514 C513 1.227 . S
N515 Co501 2.140 . S
N515 C518 1.346 . S
N515 C519 1.345 . S
C516 C517 1.387 . S
C516 C520 1.391 . S
C517 C516 1.387 . S
C517 C518 1.369 . S
C517 H526 0.927 1_554 S
C518 N515 1.346 . S
C518 C517 1.369 . S
C518 H521 0.928 . S
C519 N515 1.345 . S
C519 C520 1.371 . S
C519 H522 0.931 . S
C520 C516 1.391 . S
C520 C519 1.371 . S
C520 H527 0.930 . S
H521 C518 0.928 . S
H522 C519 0.931 . S
H523 C499 0.930 . S
H524 C496 0.930 . S
H525 C505 0.930 . S
H526 C517 0.927 1_556 S
H527 C520 0.930 . S
H528 C534 0.930 . S
H529 C537 0.930 1_556 S
H530 C538 0.930 1_556 S
H531 C539 0.930 . S
H532 C542 0.930 . S
H533 C543 0.930 . S
C534 H528 0.930 . S
C534 C535 1.355 . S
C534 C536 1.415 . S
C535 C534 1.355 . S
C535 C537 1.419 . S
C536 C534 1.415 . S
C536 C541 1.425 . S
C536 C543 1.409 . S
C537 H529 0.930 1_554 S
C537 C535 1.419 . S
C537 C538 1.362 . S
C538 H530 0.930 1_554 S
C538 C537 1.362 . S
C538 C541 1.409 . S
C539 H531 0.930 . S
C539 C540 1.355 . S
C539 C541 1.415 . S
C540 C539 1.355 . S
C540 C542 1.419 . S
C541 C536 1.425 . S
C541 C538 1.409 . S
C541 C539 1.415 . S
C542 H532 0.930 . S
C542 C540 1.419 . S
C542 C543 1.362 . S
C543 H533 0.930 . S
C543 C536 1.409 . S
C543 C542 1.362 . S
H544 C550 0.930 . S
H545 C553 0.930 . S
H546 C554 0.930 . S
H547 C555 0.930 . S
H548 C558 0.930 . S
H549 C559 0.930 . S
C550 H544 0.930 . S
C550 C551 1.355 . S
C550 C552 1.415 . S
C551 C550 1.355 . S
C551 C553 1.419 . S
C552 C550 1.415 . S
C552 C557 1.425 . S
C552 C559 1.409 . S
C553 H545 0.930 . S
C553 C551 1.419 . S
C553 C554 1.362 . S
C554 H546 0.930 . S
C554 C553 1.362 . S
C554 C557 1.409 . S
C555 H547 0.930 . S
C555 C556 1.355 . S
C555 C557 1.415 . S
C556 C555 1.355 . S
C556 C558 1.419 . S
C557 C552 1.425 . S
C557 C554 1.409 . S
C557 C555 1.415 . S
C558 H548 0.930 . S
C558 C556 1.419 . S
C558 C559 1.362 . S
C559 H549 0.930 . S
C559 C552 1.409 . S
C559 C558 1.362 . S
H560 C566 0.930 . S
H561 C569 0.930 . S
H562 C570 0.930 . S
H563 C571 0.930 . S
H564 C574 0.930 . S
H565 C575 0.930 . S
C566 H560 0.930 . S
C566 C567 1.355 . S
C566 C568 1.415 . S
C567 C566 1.355 . S
C567 C569 1.419 . S
C568 C566 1.415 . S
C568 C573 1.425 . S
C568 C575 1.409 . S
C569 H561 0.930 . S
C569 C567 1.419 . S
C569 C570 1.362 . S
C570 H562 0.930 . S
C570 C569 1.362 . S
C570 C573 1.409 . S
C571 H563 0.930 . S
C571 C572 1.355 . S
C571 C573 1.415 . S
C572 C571 1.355 . S
C572 C574 1.419 . S
C573 C568 1.425 . S
C573 C570 1.409 . S
C573 C571 1.415 . S
C574 H564 0.930 . S
C574 C572 1.419 . S
C574 C575 1.362 . S
C575 H565 0.930 . S
C575 C568 1.409 . S
C575 C574 1.362 . S
H576 C582 0.930 . S
H577 C585 0.930 . S
H578 C586 0.930 . S
H579 C587 0.930 . S
H580 C590 0.930 . S
H581 C591 0.930 . S
C582 H576 0.930 . S
C582 C583 1.355 . S
C582 C584 1.415 . S
C583 C582 1.355 . S
C583 C585 1.419 . S
C584 C582 1.415 . S
C584 C589 1.425 . S
C584 C591 1.409 . S
C585 H577 0.930 . S
C585 C583 1.419 . S
C585 C586 1.362 . S
C586 H578 0.930 . S
C586 C585 1.362 . S
C586 C589 1.409 . S
C587 H579 0.930 . S
C587 C588 1.355 . S
C587 C589 1.415 . S
C588 C587 1.355 . S
C588 C590 1.419 . S
C589 C584 1.425 . S
C589 C586 1.409 . S
C589 C587 1.415 . S
C590 H580 0.930 . S
C590 C588 1.419 . S
C590 C591 1.362 . S
C591 H581 0.930 . S
C591 C584 1.409 . S
C591 C590 1.362 . S
H592 C598 0.930 . S
H593 C601 0.930 . S
H594 C602 0.930 . S
H595 C603 0.930 . S
H596 C606 0.930 . S
H597 C607 0.930 . S
C598 H592 0.930 . S
C598 C599 1.355 . S
C598 C600 1.415 . S
C599 C598 1.355 . S
C599 C601 1.419 . S
C600 C598 1.415 . S
C600 C605 1.425 . S
C600 C607 1.409 . S
C601 H593 0.930 . S
C601 C599 1.419 . S
C601 C602 1.362 . S
C602 H594 0.930 . S
C602 C601 1.362 . S
C602 C605 1.409 . S
C603 H595 0.930 . S
C603 C604 1.355 . S
C603 C605 1.415 . S
C604 C603 1.355 . S
C604 C606 1.419 . S
C605 C600 1.425 . S
C605 C602 1.409 . S
C605 C603 1.415 . S
C606 H596 0.930 . S
C606 C604 1.419 . S
C606 C607 1.362 . S
C607 H597 0.930 . S
C607 C600 1.409 . S
C607 C606 1.362 . S
H608 C614 0.930 1_554 S
H609 C617 0.930 . S
H610 C618 0.930 . S
H611 C619 0.930 . S
H612 C622 0.930 1_554 S
H613 C623 0.930 1_554 S
C614 H608 0.930 1_556 S
C614 C615 1.355 . S
C614 C616 1.415 . S
C615 C614 1.355 . S
C615 C617 1.419 . S
C616 C614 1.415 . S
C616 C621 1.425 . S
C616 C623 1.409 . S
C617 H609 0.930 . S
C617 C615 1.419 . S
C617 C618 1.362 . S
C618 H610 0.930 . S
C618 C617 1.362 . S
C618 C621 1.409 . S
C619 H611 0.930 . S
C619 C620 1.355 . S
C619 C621 1.415 . S
C620 C619 1.355 . S
C620 C622 1.419 . S
C621 C616 1.425 . S
C621 C618 1.409 . S
C621 C619 1.415 . S
C622 H612 0.930 1_556 S
C622 C620 1.419 . S
C622 C623 1.362 . S
C623 H613 0.930 1_556 S
C623 C616 1.409 . S
C623 C622 1.362 . S
H624 C630 0.930 . S
H625 C633 0.930 . S
H626 C634 0.930 . S
H627 C635 0.930 . S
H628 C638 0.930 . S
H629 C639 0.930 . S
C630 H624 0.930 . S
C630 C631 1.355 . S
C630 C632 1.415 . S
C631 C630 1.355 . S
C631 C633 1.419 . S
C632 C630 1.415 . S
C632 C637 1.425 . S
C632 C639 1.409 . S
C633 H625 0.930 . S
C633 C631 1.419 . S
C633 C634 1.362 . S
C634 H626 0.930 . S
C634 C633 1.362 . S
C634 C637 1.409 . S
C635 H627 0.930 . S
C635 C636 1.355 . S
C635 C637 1.415 . S
C636 C635 1.355 . S
C636 C638 1.419 . S
C637 C632 1.425 . S
C637 C634 1.409 . S
C637 C635 1.415 . S
C638 H628 0.930 . S
C638 C636 1.419 . S
C638 C639 1.362 . S
C639 H629 0.930 . S
C639 C632 1.409 . S
C639 C638 1.362 . S
H640 C646 0.930 . S
H641 C649 0.930 . S
H642 C650 0.930 . S
H643 C651 0.930 . S
H644 C654 0.930 . S
H645 C655 0.930 . S
C646 H640 0.930 . S
C646 C647 1.355 . S
C646 C648 1.415 . S
C647 C646 1.355 . S
C647 C649 1.419 . S
C648 C646 1.415 . S
C648 C653 1.425 . S
C648 C655 1.409 . S
C649 H641 0.930 . S
C649 C647 1.419 . S
C649 C650 1.362 . S
C650 H642 0.930 . S
C650 C649 1.362 . S
C650 C653 1.409 . S
C651 H643 0.930 . S
C651 C652 1.355 . S
C651 C653 1.415 . S
C652 C651 1.355 . S
C652 C654 1.419 . S
C653 C648 1.425 . S
C653 C650 1.409 . S
C653 C651 1.415 . S
C654 H644 0.930 . S
C654 C652 1.419 . S
C654 C655 1.362 . S
C655 H645 0.930 . S
C655 C648 1.409 . S
C655 C654 1.362 . S
H656 C662 0.930 . S
H657 C665 0.930 . S
H658 C666 0.930 . S
H659 C667 0.930 . S
H660 C670 0.930 . S
H661 C671 0.930 . S
C662 H656 0.930 . S
C662 C663 1.355 . S
C662 C664 1.415 . S
C663 C662 1.355 . S
C663 C665 1.419 1_554 S
C664 C662 1.415 . S
C664 C669 1.425 1_554 S
C664 C671 1.409 . S
C665 H657 0.930 . S
C665 C663 1.419 1_556 S
C665 C666 1.362 . S
C666 H658 0.930 . S
C666 C665 1.362 . S
C666 C669 1.409 . S
C667 H659 0.930 . S
C667 C668 1.355 . S
C667 C669 1.415 . S
C668 C667 1.355 . S
C668 C670 1.419 1_556 S
C669 C664 1.425 1_556 S
C669 C666 1.409 . S
C669 C667 1.415 . S
C670 H660 0.930 . S
C670 C668 1.419 1_554 S
C670 C671 1.362 . S
C671 H661 0.930 . S
C671 C664 1.409 . S
C671 C670 1.362 . S
H672 C678 0.930 . S
H673 C681 0.930 . S
H674 C682 0.930 . S
H675 C683 0.930 . S
H676 C686 0.930 . S
H677 C687 0.930 . S
C678 H672 0.930 . S
C678 C679 1.355 . S
C678 C680 1.415 . S
C679 C678 1.355 . S
C679 C681 1.419 . S
C680 C678 1.415 . S
C680 C685 1.425 . S
C680 C687 1.409 . S
C681 H673 0.930 . S
C681 C679 1.419 . S
C681 C682 1.362 . S
C682 H674 0.930 . S
C682 C681 1.362 . S
C682 C685 1.409 . S
C683 H675 0.930 . S
C683 C684 1.355 . S
C683 C685 1.415 . S
C684 C683 1.355 . S
C684 C686 1.419 . S
C685 C680 1.425 . S
C685 C682 1.409 . S
C685 C683 1.415 . S
C686 H676 0.930 . S
C686 C684 1.419 . S
C686 C687 1.362 . S
C687 H677 0.930 . S
C687 C680 1.409 . S
C687 C686 1.362 . S
H688 C694 0.930 . S
H689 C697 0.930 . S
H690 C698 0.930 . S
H691 C699 0.930 . S
H692 C702 0.930 . S
H693 C703 0.930 . S
C694 H688 0.930 . S
C694 C695 1.355 . S
C694 C696 1.415 . S
C695 C694 1.355 . S
C695 C697 1.419 1_554 S
C696 C694 1.415 . S
C696 C701 1.425 1_554 S
C696 C703 1.409 . S
C697 H689 0.930 . S
C697 C695 1.419 1_556 S
C697 C698 1.362 . S
C698 H690 0.930 . S
C698 C697 1.362 . S
C698 C701 1.409 . S
C699 H691 0.930 . S
C699 C700 1.355 . S
C699 C701 1.415 . S
C700 C699 1.355 . S
C700 C702 1.419 1_556 S
C701 C696 1.425 1_556 S
C701 C698 1.409 . S
C701 C699 1.415 . S
C702 H692 0.930 . S
C702 C700 1.419 1_554 S
C702 C703 1.362 . S
C703 H693 0.930 . S
C703 C696 1.409 . S
C703 C702 1.362 . S
H704 C710 0.930 . S
H705 C713 0.930 . S
H706 C714 0.930 . S
H707 C715 0.930 . S
H708 C718 0.930 . S
H709 C719 0.930 . S
C710 H704 0.930 . S
C710 C711 1.355 . S
C710 C712 1.415 . S
C711 C710 1.355 . S
C711 C713 1.419 . S
C712 C710 1.415 . S
C712 C717 1.425 . S
C712 C719 1.409 . S
C713 H705 0.930 . S
C713 C711 1.419 . S
C713 C714 1.362 . S
C714 H706 0.930 . S
C714 C713 1.362 . S
C714 C717 1.409 . S
C715 H707 0.930 . S
C715 C716 1.355 . S
C715 C717 1.415 . S
C716 C715 1.355 . S
C716 C718 1.419 . S
C717 C712 1.425 . S
C717 C714 1.409 . S
C717 C715 1.415 . S
C718 H708 0.930 . S
C718 C716 1.419 . S
C718 C719 1.362 . S
C719 H709 0.930 . S
C719 C712 1.409 . S
C719 C718 1.362 . S
H720 C726 0.930 . S
H721 C729 0.930 . S
H722 C730 0.930 1_556 S
H723 C731 0.930 . S
H724 C734 0.930 . S
H725 C735 0.930 1_554 S
C726 H720 0.930 . S
C726 C727 1.355 . S
C726 C728 1.415 . S
C727 C726 1.355 . S
C727 C729 1.419 . S
C728 C726 1.415 . S
C728 C733 1.425 1_554 S
C728 C735 1.409 1_554 S
C729 H721 0.930 . S
C729 C727 1.419 . S
C729 C730 1.362 . S
C730 H722 0.930 1_554 S
C730 C729 1.362 . S
C730 C733 1.409 1_554 S
C731 H723 0.930 . S
C731 C732 1.355 . S
C731 C733 1.415 . S
C732 C731 1.355 . S
C732 C734 1.419 . S
C733 C728 1.425 1_556 S
C733 C730 1.409 1_556 S
C733 C731 1.415 . S
C734 H724 0.930 . S
C734 C732 1.419 . S
C734 C735 1.362 . S
C735 H725 0.930 1_556 S
C735 C728 1.409 1_556 S
C735 C734 1.362 . S
H736 C742 0.930 . S
H737 C745 0.930 . S
H738 C746 0.930 . S
H739 C747 0.930 . S
H740 C750 0.930 . S
H741 C751 0.930 . S
C742 H736 0.930 . S
C742 C743 1.355 . S
C742 C744 1.415 . S
C743 C742 1.355 . S
C743 C745 1.419 . S
C744 C742 1.415 . S
C744 C749 1.425 . S
C744 C751 1.409 . S
C745 H737 0.930 . S
C745 C743 1.419 . S
C745 C746 1.362 . S
C746 H738 0.930 . S
C746 C745 1.362 . S
C746 C749 1.409 . S
C747 H739 0.930 . S
C747 C748 1.355 . S
C747 C749 1.415 . S
C748 C747 1.355 . S
C748 C750 1.419 . S
C749 C744 1.425 . S
C749 C746 1.409 . S
C749 C747 1.415 . S
C750 H740 0.930 . S
C750 C748 1.419 . S
C750 C751 1.362 . S
C751 H741 0.930 . S
C751 C744 1.409 . S
C751 C750 1.362 . S
H752 C758 0.930 . S
H753 C761 0.930 . S
H754 C762 0.930 . S
H755 C763 0.930 . S
H756 C766 0.930 . S
H757 C767 0.930 . S
C758 H752 0.930 . S
C758 C759 1.355 . S
C758 C760 1.415 . S
C759 C758 1.355 . S
C759 C761 1.419 1_554 S
C760 C758 1.415 . S
C760 C765 1.425 1_554 S
C760 C767 1.409 . S
C761 H753 0.930 . S
C761 C759 1.419 1_556 S
C761 C762 1.362 . S
C762 H754 0.930 . S
C762 C761 1.362 . S
C762 C765 1.409 . S
C763 H755 0.930 . S
C763 C764 1.355 . S
C763 C765 1.415 . S
C764 C763 1.355 . S
C764 C766 1.419 1_556 S
C765 C760 1.425 1_556 S
C765 C762 1.409 . S
C765 C763 1.415 . S
C766 H756 0.930 . S
C766 C764 1.419 1_554 S
C766 C767 1.362 . S
C767 H757 0.930 . S
C767 C760 1.409 . S
C767 C766 1.362 . S
H768 C774 0.930 . S
H769 C777 0.930 . S
H770 C778 0.930 . S
H771 C779 0.930 . S
H772 C782 0.930 . S
H773 C783 0.930 . S
C774 H768 0.930 . S
C774 C775 1.355 . S
C774 C776 1.415 . S
C775 C774 1.355 . S
C775 C777 1.419 . S
C776 C774 1.415 . S
C776 C781 1.425 . S
C776 C783 1.409 . S
C777 H769 0.930 . S
C777 C775 1.419 . S
C777 C778 1.362 . S
C778 H770 0.930 . S
C778 C777 1.362 . S
C778 C781 1.409 . S
C779 H771 0.930 . S
C779 C780 1.355 . S
C779 C781 1.415 . S
C780 C779 1.355 . S
C780 C782 1.419 . S
C781 C776 1.425 . S
C781 C778 1.409 . S
C781 C779 1.415 . S
C782 H772 0.930 . S
C782 C780 1.419 . S
C782 C783 1.362 . S
C783 H773 0.930 . S
C783 C776 1.409 . S
C783 C782 1.362 . S
H784 C790 0.930 . S
H785 C793 0.930 . S
H786 C794 0.930 . S
H787 C795 0.930 . S
H788 C798 0.930 . S
H789 C799 0.930 1_655 S
C790 H784 0.930 . S
C790 C791 1.355 . S
C790 C792 1.415 . S
C791 C790 1.355 . S
C791 C793 1.419 . S
C792 C790 1.415 . S
C792 C797 1.425 . S
C792 C799 1.409 . S
C793 H785 0.930 . S
C793 C791 1.419 . S
C793 C794 1.362 . S
C794 H786 0.930 . S
C794 C793 1.362 . S
C794 C797 1.409 . S
C795 H787 0.930 . S
C795 C796 1.355 . S
C795 C797 1.415 . S
C796 C795 1.355 . S
C796 C798 1.419 . S
C797 C792 1.425 . S
C797 C794 1.409 . S
C797 C795 1.415 . S
C798 H788 0.930 . S
C798 C796 1.419 . S
C798 C799 1.362 . S
C799 H789 0.930 1_455 S
C799 C792 1.409 . S
C799 C798 1.362 . S
H800 C806 0.900 1_565 S
H801 C809 0.930 . S
H802 C810 0.930 . S
H803 C811 0.930 . S
H804 C814 0.907 1_565 S
H805 C815 0.930 . S
C806 H800 0.900 1_545 S
C806 C807 1.355 . S
C806 C808 1.415 . S
C807 C806 1.355 . S
C807 C809 1.419 . S
C808 C806 1.415 . S
C808 C813 1.425 . S
C808 C815 1.409 1_545 S
C809 H801 0.930 . S
C809 C807 1.419 . S
C809 C810 1.362 . S
C810 H802 0.930 . S
C810 C809 1.362 . S
C810 C813 1.409 . S
C811 H803 0.930 . S
C811 C812 1.355 . S
C811 C813 1.415 . S
C812 C811 1.355 . S
C812 C814 1.450 . S
C813 C808 1.425 . S
C813 C810 1.409 . S
C813 C811 1.415 . S
C814 H804 0.907 1_545 S
C814 C812 1.450 . S
C814 C815 1.357 1_545 S
C815 H805 0.930 . S
C815 C808 1.409 1_565 S
C815 C814 1.357 1_565 S
H816 C822 0.930 . S
H817 C825 0.930 . S
H818 C826 0.930 . S
H819 C827 0.930 . S
H820 C830 0.930 . S
H821 C831 0.930 . S
C822 H816 0.930 . S
C822 C823 1.355 . S
C822 C824 1.415 . S
C823 C822 1.355 . S
C823 C825 1.419 . S
C824 C822 1.415 . S
C824 C829 1.425 . S
C824 C831 1.409 . S
C825 H817 0.930 . S
C825 C823 1.419 . S
C825 C826 1.362 . S
C826 H818 0.930 . S
C826 C825 1.362 . S
C826 C829 1.409 . S
C827 H819 0.930 . S
C827 C828 1.355 . S
C827 C829 1.415 . S
C828 C827 1.355 . S
C828 C830 1.419 . S
C829 C824 1.425 . S
C829 C826 1.409 . S
C829 C827 1.415 . S
C830 H820 0.930 . S
C830 C828 1.419 . S
C830 C831 1.362 . S
C831 H821 0.930 . S
C831 C824 1.409 . S
C831 C830 1.362 . S
H832 C838 0.930 . S
H833 C841 0.930 . S
H834 C842 0.930 . S
H835 C843 0.930 . S
H836 C846 0.930 . S
H837 C847 0.930 . S
C838 H832 0.930 . S
C838 C839 1.355 . S
C838 C840 1.415 . S
C839 C838 1.355 . S
C839 C841 1.419 . S
C840 C838 1.415 . S
C840 C845 1.425 . S
C840 C847 1.409 . S
C841 H833 0.930 . S
C841 C839 1.419 . S
C841 C842 1.362 . S
C842 H834 0.930 . S
C842 C841 1.362 . S
C842 C845 1.409 . S
C843 H835 0.930 . S
C843 C844 1.355 . S
C843 C845 1.415 . S
C844 C843 1.355 . S
C844 C846 1.419 . S
C845 C840 1.425 . S
C845 C842 1.409 . S
C845 C843 1.415 . S
C846 H836 0.930 . S
C846 C844 1.419 . S
C846 C847 1.362 . S
C847 H837 0.930 . S
C847 C840 1.409 . S
C847 C846 1.362 . S
H848 C854 0.930 . S
H849 C857 0.930 1_455 S
H850 C858 0.930 1_455 S
H851 C859 0.930 . S
H852 C862 0.930 . S
H853 C863 0.930 . S
C854 H848 0.930 . S
C854 C855 1.355 . S
C854 C856 1.415 . S
C855 C854 1.355 . S
C855 C857 1.419 . S
C856 C854 1.415 . S
C856 C861 1.425 . S
C856 C863 1.409 . S
C857 H849 0.930 1_655 S
C857 C855 1.419 . S
C857 C858 1.362 . S
C858 H850 0.930 1_655 S
C858 C857 1.362 . S
C858 C861 1.409 . S
C859 H851 0.930 . S
C859 C860 1.355 . S
C859 C861 1.415 . S
C860 C859 1.355 . S
C860 C862 1.419 . S
C861 C856 1.425 . S
C861 C858 1.409 . S
C861 C859 1.415 . S
C862 H852 0.930 . S
C862 C860 1.419 . S
C862 C863 1.362 . S
C863 H853 0.930 . S
C863 C856 1.409 . S
C863 C862 1.362 . S
H864 C870 0.930 1_545 S
H865 C873 0.930 . S
H866 C874 0.930 . S
H867 C875 0.930 . S
H868 C878 0.930 . S
H869 C879 0.930 . S
C870 H864 0.930 1_565 S
C870 C871 1.355 . S
C870 C872 1.415 . S
C871 C870 1.355 . S
C871 C873 1.419 . S
C872 C870 1.415 . S
C872 C877 1.425 . S
C872 C879 1.409 1_565 S
C873 H865 0.930 . S
C873 C871 1.419 . S
C873 C874 1.362 . S
C874 H866 0.930 . S
C874 C873 1.362 . S
C874 C877 1.409 . S
C875 H867 0.930 . S
C875 C876 1.355 . S
C875 C877 1.415 . S
C876 C875 1.355 . S
C876 C878 1.419 1_565 S
C877 C872 1.425 . S
C877 C874 1.409 . S
C877 C875 1.415 . S
C878 H868 0.930 . S
C878 C876 1.419 1_545 S
C878 C879 1.362 . S
C879 H869 0.930 . S
C879 C872 1.409 1_545 S
C879 C878 1.362 . S
H880 C886 0.930 . S
H881 C889 0.930 . S
H882 C890 0.930 . S
H883 C891 0.930 . S
H884 C894 0.930 . S
H885 C895 0.930 . S
C886 H880 0.930 . S
C886 C887 1.355 . S
C886 C888 1.415 . S
C887 C886 1.355 . S
C887 C889 1.419 . S
C888 C886 1.415 . S
C888 C893 1.425 . S
C888 C895 1.409 . S
C889 H881 0.930 . S
C889 C887 1.419 . S
C889 C890 1.362 . S
C890 H882 0.930 . S
C890 C889 1.362 . S
C890 C893 1.409 . S
C891 H883 0.930 . S
C891 C892 1.355 . S
C891 C893 1.415 . S
C892 C891 1.355 . S
C892 C894 1.419 . S
C893 C888 1.425 . S
C893 C890 1.409 . S
C893 C891 1.415 . S
C894 H884 0.930 . S
C894 C892 1.419 . S
C894 C895 1.362 . S
C895 H885 0.930 . S
C895 C888 1.409 . S
C895 C894 1.362 . S
H896 C902 0.930 . S
H897 C905 0.930 . S
H898 C906 0.930 . S
H899 C907 0.930 . S
H900 C910 0.930 . S
H901 C911 0.930 . S
C902 H896 0.930 . S
C902 C903 1.355 . S
C902 C904 1.415 . S
C903 C902 1.355 . S
C903 C905 1.419 . S
C904 C902 1.415 . S
C904 C909 1.425 . S
C904 C911 1.409 . S
C905 H897 0.930 . S
C905 C903 1.419 . S
C905 C906 1.362 . S
C906 H898 0.930 . S
C906 C905 1.362 . S
C906 C909 1.409 . S
C907 H899 0.930 . S
C907 C908 1.355 . S
C907 C909 1.415 . S
C908 C907 1.355 . S
C908 C910 1.419 . S
C909 C904 1.425 . S
C909 C906 1.409 . S
C909 C907 1.415 . S
C910 H900 0.930 . S
C910 C908 1.419 . S
C910 C911 1.362 . S
C911 H901 0.930 . S
C911 C904 1.409 . S
C911 C910 1.362 . S
H912 C918 0.930 . S
H913 C921 0.926 . S
H914 C922 0.930 . S
H915 C923 0.944 . S
H916 C926 0.930 . S
H917 C927 0.930 . S
C918 H912 0.930 . S
C918 C919 1.355 . S
C918 C920 1.415 . S
C919 C918 1.355 . S
C919 C921 1.423 1_455 S
C920 C918 1.415 . S
C920 C925 1.425 . S
C920 C927 1.409 . S
C921 H913 0.926 . S
C921 C919 1.423 1_655 S
C921 C922 1.362 . S
C922 H914 0.930 . S
C922 C921 1.362 . S
C922 C925 1.409 1_655 S
C923 H915 0.944 . S
C923 C924 1.355 . S
C923 C925 1.415 . S
C924 C923 1.355 . S
C924 C926 1.419 . S
C925 C920 1.425 . S
C925 C922 1.409 1_455 S
C925 C923 1.415 . S
C926 H916 0.930 . S
C926 C924 1.419 . S
C926 C927 1.362 . S
C927 H917 0.930 . S
C927 C920 1.409 . S
C927 C926 1.362 . S
H928 C934 0.930 1_556 S
H929 C937 0.930 . S
H930 C938 0.930 . S
H931 C939 0.930 . S
H932 C942 0.930 1_565 S
H933 C943 0.930 1_565 S
C934 H928 0.930 1_554 S
C934 C935 1.355 1_554 S
C934 C936 1.415 . S
C935 C934 1.355 1_556 S
C935 C937 1.419 . S
C936 C934 1.415 . S
C936 C941 1.425 . S
C936 C943 1.409 . S
C937 H929 0.930 . S
C937 C935 1.419 . S
C937 C938 1.362 1_556 S
C938 H930 0.930 . S
C938 C937 1.362 1_554 S
C938 C941 1.409 . S
C939 H931 0.930 . S
C939 C940 1.355 . S
C939 C941 1.415 . S
C940 C939 1.355 . S
C940 C942 1.419 . S
C941 C936 1.425 . S
C941 C938 1.409 . S
C941 C939 1.415 . S
C942 H932 0.930 1_545 S
C942 C940 1.419 . S
C942 C943 1.362 . S
C943 H933 0.930 1_545 S
C943 C936 1.409 . S
C943 C942 1.362 . S
H944 C950 0.930 . S
H945 C953 0.930 . S
H946 C954 0.930 . S
H947 C955 0.930 . S
H948 C958 0.930 . S
H949 C959 0.930 . S
C950 H944 0.930 . S
C950 C951 1.355 . S
C950 C952 1.415 . S
C951 C950 1.355 . S
C951 C953 1.419 . S
C952 C950 1.415 . S
C952 C957 1.425 . S
C952 C959 1.409 . S
C953 H945 0.930 . S
C953 C951 1.419 . S
C953 C954 1.362 . S
C954 H946 0.930 . S
C954 C953 1.362 . S
C954 C957 1.409 . S
C955 H947 0.930 . S
C955 C956 1.355 . S
C955 C957 1.415 . S
C956 C955 1.355 . S
C956 C958 1.419 . S
C957 C952 1.425 . S
C957 C954 1.409 . S
C957 C955 1.415 . S
C958 H948 0.930 . S
C958 C956 1.419 . S
C958 C959 1.362 . S
C959 H949 0.930 . S
C959 C952 1.409 . S
C959 C958 1.362 . S
H960 C966 0.930 . S
H961 C969 0.930 . S
H962 C970 0.930 . S
H963 C971 0.930 . S
H964 C974 0.930 . S
H965 C975 0.930 . S
C966 H960 0.930 . S
C966 C967 1.355 1_554 S
C966 C968 1.415 . S
C967 C966 1.355 1_556 S
C967 C969 1.419 . S
C968 C966 1.415 . S
C968 C973 1.425 . S
C968 C975 1.409 . S
C969 H961 0.930 . S
C969 C967 1.419 . S
C969 C970 1.362 1_556 S
C970 H962 0.930 . S
C970 C969 1.362 1_554 S
C970 C973 1.409 . S
C971 H963 0.930 . S
C971 C972 1.355 . S
C971 C973 1.415 . S
C972 C971 1.355 . S
C972 C974 1.419 . S
C973 C968 1.425 . S
C973 C970 1.409 . S
C973 C971 1.415 . S
C974 H964 0.930 . S
C974 C972 1.419 . S
C974 C975 1.362 . S
C975 H965 0.930 . S
C975 C968 1.409 . S
C975 C974 1.362 . S
H976 C982 0.930 . S
H977 C985 0.930 . S
H978 C986 0.930 . S
H979 C987 0.930 1_554 S
H980 C990 0.930 . S
H981 C991 0.930 . S
C982 H976 0.930 . S
C982 C983 1.355 . S
C982 C984 1.415 . S
C983 C982 1.355 . S
C983 C985 1.419 . S
C984 C982 1.415 . S
C984 C989 1.425 . S
C984 C991 1.409 . S
C985 H977 0.930 . S
C985 C983 1.419 . S
C985 C986 1.362 . S
C986 H978 0.930 . S
C986 C985 1.362 . S
C986 C989 1.409 . S
C987 H979 0.930 1_556 S
C987 C988 1.355 1_556 S
C987 C989 1.415 . S
C988 C987 1.355 1_554 S
C988 C990 1.419 . S
C989 C984 1.425 . S
C989 C986 1.409 . S
C989 C987 1.415 . S
C990 H980 0.930 . S
C990 C988 1.419 . S
C990 C991 1.362 1_554 S
C991 H981 0.930 . S
C991 C984 1.409 . S
C991 C990 1.362 1_556 S
H992 C998 0.930 . S
H993 C1001 0.937 . S
H994 C1002 0.930 . S
H995 C1003 0.939 . S
H996 C1006 0.930 . S
H997 C1007 0.930 . S
C998 H992 0.930 . S
C998 C999 1.355 . S
C998 C1000 1.415 . S
C999 C998 1.355 . S
C999 C1001 1.411 1_545 S
C1000 C998 1.415 . S
C1000 C1005 1.425 . S
C1000 C1007 1.409 . S
C1001 H993 0.937 . S
C1001 C999 1.411 1_565 S
C1001 C1002 1.363 . S
C1002 H994 0.930 . S
C1002 C1001 1.363 . S
C1002 C1005 1.409 1_565 S
C1003 H995 0.939 . S
C1003 C1004 1.355 . S
C1003 C1005 1.415 . S
C1004 C1003 1.355 . S
C1004 C1006 1.419 . S
C1005 C1000 1.425 . S
C1005 C1002 1.409 1_545 S
C1005 C1003 1.415 . S
C1006 H996 0.930 . S
C1006 C1004 1.419 . S
C1006 C1007 1.362 . S
C1007 H997 0.930 . S
C1007 C1000 1.409 . S
C1007 C1006 1.362 . S
H1008 C1014 0.930 . S
H1009 C1017 0.930 . S
H1010 C1018 0.930 . S
H1011 C1019 0.930 . S
H1012 C1022 0.930 . S
H1013 C1023 0.930 . S
C1014 H1008 0.930 . S
C1014 C1015 1.355 . S
C1014 C1016 1.415 . S
C1015 C1014 1.355 . S
C1015 C1017 1.419 . S
C1016 C1014 1.415 . S
C1016 C1021 1.425 . S
C1016 C1023 1.409 . S
C1017 H1009 0.930 . S
C1017 C1015 1.419 . S
C1017 C1018 1.362 . S
C1018 H1010 0.930 . S
C1018 C1017 1.362 . S
C1018 C1021 1.409 . S
C1019 H1011 0.930 . S
C1019 C1020 1.355 1_556 S
C1019 C1021 1.415 . S
C1020 C1019 1.355 1_554 S
C1020 C1022 1.419 . S
C1021 C1016 1.425 . S
C1021 C1018 1.409 . S
C1021 C1019 1.415 . S
C1022 H1012 0.930 . S
C1022 C1020 1.419 . S
C1022 C1023 1.362 1_554 S
C1023 H1013 0.930 . S
C1023 C1016 1.409 . S
C1023 C1022 1.362 1_556 S
H1024 C1030 0.930 . S
H1025 C1033 0.930 . S
H1026 C1034 0.930 . S
H1027 C1035 0.930 . S
H1028 C1038 0.930 . S
H1029 C1039 0.930 . S
C1030 H1024 0.930 . S
C1030 C1031 1.355 . S
C1030 C1032 1.415 . S
C1031 C1030 1.355 . S
C1031 C1033 1.419 . S
C1032 C1030 1.415 . S
C1032 C1037 1.425 . S
C1032 C1039 1.409 . S
C1033 H1025 0.930 . S
C1033 C1031 1.419 . S
C1033 C1034 1.362 . S
C1034 H1026 0.930 . S
C1034 C1033 1.362 . S
C1034 C1037 1.409 . S
C1035 H1027 0.930 . S
C1035 C1036 1.355 . S
C1035 C1037 1.415 . S
C1036 C1035 1.355 . S
C1036 C1038 1.419 . S
C1037 C1032 1.425 . S
C1037 C1034 1.409 . S
C1037 C1035 1.415 . S
C1038 H1028 0.930 . S
C1038 C1036 1.419 . S
C1038 C1039 1.362 . S
C1039 H1029 0.930 . S
C1039 C1032 1.409 . S
C1039 C1038 1.362 . S
H1040 C1046 0.930 . S
H1041 C1049 0.930 . S
H1042 C1050 0.930 . S
H1043 C1051 0.930 . S
H1044 C1054 0.930 . S
H1045 C1055 0.930 . S
C1046 H1040 0.930 . S
C1046 C1047 1.355 . S
C1046 C1048 1.415 . S
C1047 C1046 1.355 . S
C1047 C1049 1.419 . S
C1048 C1046 1.415 . S
C1048 C1053 1.425 . S
C1048 C1055 1.409 . S
C1049 H1041 0.930 . S
C1049 C1047 1.419 . S
C1049 C1050 1.362 . S
C1050 H1042 0.930 . S
C1050 C1049 1.362 . S
C1050 C1053 1.409 . S
C1051 H1043 0.930 . S
C1051 C1052 1.355 . S
C1051 C1053 1.415 . S
C1052 C1051 1.355 . S
C1052 C1054 1.419 . S
C1053 C1048 1.425 . S
C1053 C1050 1.409 . S
C1053 C1051 1.415 . S
C1054 H1044 0.930 . S
C1054 C1052 1.419 . S
C1054 C1055 1.362 . S
C1055 H1045 0.930 . S
C1055 C1048 1.409 . S
C1055 C1054 1.362 . S
H1056 C1062 0.930 1_554 S
H1057 C1065 0.930 . S
H1058 C1066 0.930 . S
H1059 C1067 0.930 . S
H1060 C1070 0.930 1_545 S
H1061 C1071 0.930 1_545 S
C1062 H1056 0.930 1_556 S
C1062 C1063 1.355 1_556 S
C1062 C1064 1.415 . S
C1063 C1062 1.355 1_554 S
C1063 C1065 1.419 . S
C1064 C1062 1.415 . S
C1064 C1069 1.425 . S
C1064 C1071 1.409 . S
C1065 H1057 0.930 . S
C1065 C1063 1.419 . S
C1065 C1066 1.362 1_554 S
C1066 H1058 0.930 . S
C1066 C1065 1.362 1_556 S
C1066 C1069 1.409 . S
C1067 H1059 0.930 . S
C1067 C1068 1.355 . S
C1067 C1069 1.415 . S
C1068 C1067 1.355 . S
C1068 C1070 1.419 . S
C1069 C1064 1.425 . S
C1069 C1066 1.409 . S
C1069 C1067 1.415 . S
C1070 H1060 0.930 1_565 S
C1070 C1068 1.419 . S
C1070 C1071 1.362 . S
C1071 H1061 0.930 1_565 S
C1071 C1064 1.409 . S
C1071 C1070 1.362 . S
H1072 C1078 0.930 . S
H1073 C1081 0.930 . S
H1074 C1082 0.930 . S
H1075 C1083 0.930 . S
H1076 C1086 0.930 . S
H1077 C1087 0.930 . S
C1078 H1072 0.930 . S
C1078 C1079 1.355 . S
C1078 C1080 1.415 . S
C1079 C1078 1.355 . S
C1079 C1081 1.419 . S
C1080 C1078 1.415 . S
C1080 C1085 1.425 . S
C1080 C1087 1.409 . S
C1081 H1073 0.930 . S
C1081 C1079 1.419 . S
C1081 C1082 1.362 . S
C1082 H1074 0.930 . S
C1082 C1081 1.362 . S
C1082 C1085 1.409 . S
C1083 H1075 0.930 . S
C1083 C1084 1.355 . S
C1083 C1085 1.415 . S
C1084 C1083 1.355 . S
C1084 C1086 1.419 . S
C1085 C1080 1.425 . S
C1085 C1082 1.409 . S
C1085 C1083 1.415 . S
C1086 H1076 0.930 . S
C1086 C1084 1.419 . S
C1086 C1087 1.362 . S
C1087 H1077 0.930 . S
C1087 C1080 1.409 . S
C1087 C1086 1.362 . S
H1088 C1094 0.930 1_554 S
H1089 C1097 0.930 . S
H1090 C1098 0.930 . S
H1091 C1099 0.930 . S
H1092 C1102 0.930 . S
H1093 C1103 0.930 . S
C1094 H1088 0.930 1_556 S
C1094 C1095 1.355 1_556 S
C1094 C1096 1.415 . S
C1095 C1094 1.355 1_554 S
C1095 C1097 1.419 . S
C1096 C1094 1.415 . S
C1096 C1101 1.425 . S
C1096 C1103 1.409 . S
C1097 H1089 0.930 . S
C1097 C1095 1.419 . S
C1097 C1098 1.362 1_554 S
C1098 H1090 0.930 . S
C1098 C1097 1.362 1_556 S
C1098 C1101 1.409 . S
C1099 H1091 0.930 . S
C1099 C1100 1.355 . S
C1099 C1101 1.415 . S
C1100 C1099 1.355 . S
C1100 C1102 1.419 . S
C1101 C1096 1.425 . S
C1101 C1098 1.409 . S
C1101 C1099 1.415 . S
C1102 H1092 0.930 . S
C1102 C1100 1.419 . S
C1102 C1103 1.362 . S
C1103 H1093 0.930 . S
C1103 C1096 1.409 . S
C1103 C1102 1.362 . S
H1104 C1110 0.930 . S
H1105 C1113 0.930 . S
H1106 C1114 0.930 . S
H1107 C1115 0.930 . S
H1108 C1118 0.930 . S
H1109 C1119 0.930 . S
C1110 H1104 0.930 . S
C1110 C1111 1.355 . S
C1110 C1112 1.415 . S
C1111 C1110 1.355 . S
C1111 C1113 1.419 . S
C1112 C1110 1.415 . S
C1112 C1117 1.425 . S
C1112 C1119 1.409 . S
C1113 H1105 0.930 . S
C1113 C1111 1.419 . S
C1113 C1114 1.362 . S
C1114 H1106 0.930 . S
C1114 C1113 1.362 . S
C1114 C1117 1.409 . S
C1115 H1107 0.930 . S
C1115 C1116 1.355 1_554 S
C1115 C1117 1.415 . S
C1116 C1115 1.355 1_556 S
C1116 C1118 1.419 . S
C1117 C1112 1.425 . S
C1117 C1114 1.409 . S
C1117 C1115 1.415 . S
C1118 H1108 0.930 . S
C1118 C1116 1.419 . S
C1118 C1119 1.362 1_556 S
C1119 H1109 0.930 . S
C1119 C1112 1.409 . S
C1119 C1118 1.362 1_554 S
H1120 C1126 0.930 . S
H1121 C1129 0.930 . S
H1122 C1130 0.930 . S
H1123 C1131 0.930 . S
H1124 C1134 0.930 . S
H1125 C1135 0.930 . S
C1126 H1120 0.930 . S
C1126 C1127 1.355 . S
C1126 C1128 1.415 . S
C1127 C1126 1.355 . S
C1127 C1129 1.419 . S
C1128 C1126 1.415 . S
C1128 C1133 1.425 . S
C1128 C1135 1.409 . S
C1129 H1121 0.930 . S
C1129 C1127 1.419 . S
C1129 C1130 1.362 . S
C1130 H1122 0.930 . S
C1130 C1129 1.362 . S
C1130 C1133 1.409 . S
C1131 H1123 0.930 . S
C1131 C1132 1.355 . S
C1131 C1133 1.415 . S
C1132 C1131 1.355 . S
C1132 C1134 1.419 . S
C1133 C1128 1.425 . S
C1133 C1130 1.409 . S
C1133 C1131 1.415 . S
C1134 H1124 0.930 . S
C1134 C1132 1.419 . S
C1134 C1135 1.362 . S
C1135 H1125 0.930 . S
C1135 C1128 1.409 . S
C1135 C1134 1.362 . S
H1136 C1142 0.930 1_556 S
H1137 C1145 0.930 . S
H1138 C1146 0.930 . S
H1139 C1147 0.930 . S
H1140 C1150 0.930 . S
H1141 C1151 0.930 . S
C1142 H1136 0.930 1_554 S
C1142 C1143 1.355 1_554 S
C1142 C1144 1.415 . S
C1143 C1142 1.355 1_556 S
C1143 C1145 1.419 . S
C1144 C1142 1.415 . S
C1144 C1149 1.425 . S
C1144 C1151 1.409 . S
C1145 H1137 0.930 . S
C1145 C1143 1.419 . S
C1145 C1146 1.362 1_556 S
C1146 H1138 0.930 . S
C1146 C1145 1.362 1_554 S
C1146 C1149 1.409 . S
C1147 H1139 0.930 . S
C1147 C1148 1.355 . S
C1147 C1149 1.415 . S
C1148 C1147 1.355 . S
C1148 C1150 1.419 . S
C1149 C1144 1.425 . S
C1149 C1146 1.409 . S
C1149 C1147 1.415 . S
C1150 H1140 0.930 . S
C1150 C1148 1.419 . S
C1150 C1151 1.362 . S
C1151 H1141 0.930 . S
C1151 C1144 1.409 . S
C1151 C1150 1.362 . S
H1152 C1158 0.930 . S
H1153 C1161 0.930 . S
H1154 C1162 0.930 . S
H1155 C1163 0.930 . S
H1156 C1166 0.930 . S
H1157 C1167 0.930 . S
C1158 H1152 0.930 . S
C1158 C1159 1.355 . S
C1158 C1160 1.415 . S
C1159 C1158 1.355 . S
C1159 C1161 1.419 . S
C1160 C1158 1.415 . S
C1160 C1165 1.425 . S
C1160 C1167 1.409 . S
C1161 H1153 0.930 . S
C1161 C1159 1.419 . S
C1161 C1162 1.362 . S
C1162 H1154 0.930 . S
C1162 C1161 1.362 . S
C1162 C1165 1.409 . S
C1163 H1155 0.930 . S
C1163 C1164 1.355 . S
C1163 C1165 1.415 . S
C1164 C1163 1.355 . S
C1164 C1166 1.419 . S
C1165 C1160 1.425 . S
C1165 C1162 1.409 . S
C1165 C1163 1.415 . S
C1166 H1156 0.930 . S
C1166 C1164 1.419 . S
C1166 C1167 1.362 . S
C1167 H1157 0.930 . S
C1167 C1160 1.409 . S
C1167 C1166 1.362 . S
C535 C21 1.495 . S
C540 C516 1.498 . S
C551 C54 1.483 . S
C556 C417 1.508 . S
C567 C450 1.482 . S
C572 C87 1.510 . S
C583 C120 1.507 . S
C588 C483 1.485 . S
C599 C318 1.507 . S
C604 C153 1.485 . S
C615 C351 1.500 . S
C620 C186 1.492 . S
C631 C384 1.499 . S
C636 C219 1.493 . S
C647 C285 1.482 . S
C652 C252 1.510 . S
C663 C7 1.389 . S
C668 C238 1.426 . S
C679 C40 1.428 . S
C684 C139 1.446 . S
C695 C73 1.408 . S
C700 C172 1.394 . S
C711 C106 1.432 . S
C716 C205 1.390 . S
C727 C502 1.390 . S
C732 C271 1.432 . S
C743 C403 1.389 . S
C748 C304 1.424 . S
C759 C436 1.425 . S
C764 C337 1.389 . S
C775 C370 1.444 . S
C780 C469 1.399 . S
C791 C18 1.193 . S
C796 C150 1.194 . S
C807 C183 1.187 . S
C812 C51 1.188 . S
C823 C216 1.161 . S
C828 C84 1.160 . S
C839 C117 1.197 . S
C844 C249 1.198 . S
C855 C414 1.192 . S
C860 C282 1.190 . S
C871 C315 1.189 . S
C876 C447 1.190 . S
C887 C348 1.164 . S
C892 C480 1.162 . S
C903 C513 1.185 . S
C908 C381 1.183 . S
C919 N2 1.365 . S
C924 N13 1.366 . S
C935 N46 1.366 . S
C940 N35 1.365 . S
C951 N68 1.353 . S
C956 N79 1.355 . S
C967 N112 1.376 . S
C972 N101 1.376 . S
C983 N134 1.338 . S
C988 N145 1.341 . S
C999 N167 1.363 . S
C1004 N178 1.364 . S
C1015 N200 1.357 . S
C1020 N211 1.359 . S
C1031 N233 1.345 . S
C1036 N244 1.347 . S
C1047 N277 1.378 . S
C1052 N266 1.377 . S
C1063 N310 1.374 . S
C1068 N299 1.373 . S
C1079 N343 1.355 . S
C1084 N332 1.353 . S
C1095 N376 1.347 . S
C1100 N365 1.344 . S
C1111 N398 1.378 . S
C1116 N409 1.378 . S
C1127 N431 1.376 . S
C1132 N442 1.377 . S
C1143 N475 1.378 . S
C1148 N464 1.377 . S
C1159 N508 1.378 . S
C1164 N497 1.378 . S
