# Generated by pormake.
# Topology ato, (4)-cn, num edge types: 1
# Building blocks:
#     Node 0, Type 0, BuildingBlock: CEKHIL_clean_sbu_0, # of connection points: 4
#     Node 1, Type 0, BuildingBlock: CEKHIL_clean_sbu_0, # of connection points: 4
#     Node 2, Type 0, BuildingBlock: CEKHIL_clean_sbu_0, # of connection points: 4
#     Node 3, Type 0, BuildingBlock: CEKHIL_clean_sbu_0, # of connection points: 4
#     Node 4, Type 0, BuildingBlock: CEKHIL_clean_sbu_0, # of connection points: 4
#     Node 5, Type 0, BuildingBlock: CEKHIL_clean_sbu_0, # of connection points: 4
#     Node 6, Type 0, BuildingBlock: CEKHIL_clean_sbu_0, # of connection points: 4
#     Node 7, Type 0, BuildingBlock: CEKHIL_clean_sbu_0, # of connection points: 4
#     Node 8, Type 0, BuildingBlock: CEKHIL_clean_sbu_0, # of connection points: 4
#     Node 9, Type 0, BuildingBlock: CEKHIL_clean_sbu_0, # of connection points: 4
#     Node 10, Type 0, BuildingBlock: CEKHIL_clean_sbu_0, # of connection points: 4
#     Node 11, Type 0, BuildingBlock: CEKHIL_clean_sbu_0, # of connection points: 4
#     Node 12, Type 0, BuildingBlock: CEKHIL_clean_sbu_0, # of connection points: 4
#     Node 13, Type 0, BuildingBlock: CEKHIL_clean_sbu_0, # of connection points: 4
#     Node 14, Type 0, BuildingBlock: CEKHIL_clean_sbu_0, # of connection points: 4
#     Node 15, Type 0, BuildingBlock: CEKHIL_clean_sbu_0, # of connection points: 4
#     Node 16, Type 0, BuildingBlock: CEKHIL_clean_sbu_0, # of connection points: 4
#     Node 17, Type 0, BuildingBlock: CEKHIL_clean_sbu_0, # of connection points: 4
#     Node 18, Type 0, BuildingBlock: CEKHIL_clean_sbu_0, # of connection points: 4
#     Node 19, Type 0, BuildingBlock: CEKHIL_clean_sbu_0, # of connection points: 4
#     Node 20, Type 0, BuildingBlock: CEKHIL_clean_sbu_0, # of connection points: 4
#     Node 21, Type 0, BuildingBlock: CEKHIL_clean_sbu_0, # of connection points: 4
#     Node 22, Type 0, BuildingBlock: CEKHIL_clean_sbu_0, # of connection points: 4
#     Node 23, Type 0, BuildingBlock: CEKHIL_clean_sbu_0, # of connection points: 4
#     Node 24, Type 0, BuildingBlock: CEKHIL_clean_sbu_0, # of connection points: 4
#     Node 25, Type 0, BuildingBlock: CEKHIL_clean_sbu_0, # of connection points: 4
#     Node 26, Type 0, BuildingBlock: CEKHIL_clean_sbu_0, # of connection points: 4
#     Node 27, Type 0, BuildingBlock: CEKHIL_clean_sbu_0, # of connection points: 4
#     Node 28, Type 0, BuildingBlock: CEKHIL_clean_sbu_0, # of connection points: 4
#     Node 29, Type 0, BuildingBlock: CEKHIL_clean_sbu_0, # of connection points: 4
#     Node 30, Type 0, BuildingBlock: CEKHIL_clean_sbu_0, # of connection points: 4
#     Node 31, Type 0, BuildingBlock: CEKHIL_clean_sbu_0, # of connection points: 4
#     Node 32, Type 0, BuildingBlock: CEKHIL_clean_sbu_0, # of connection points: 4
#     Node 33, Type 0, BuildingBlock: CEKHIL_clean_sbu_0, # of connection points: 4
#     Node 34, Type 0, BuildingBlock: CEKHIL_clean_sbu_0, # of connection points: 4
#     Node 35, Type 0, BuildingBlock: CEKHIL_clean_sbu_0, # of connection points: 4
#     Edge 36, Type (0, 0), BuildingBlock: ZUJKAS_clean_linker_0, # of connection points: 2
#     Edge 37, Type (0, 0), BuildingBlock: ZUJKAS_clean_linker_0, # of connection points: 2
#     Edge 38, Type (0, 0), BuildingBlock: ZUJKAS_clean_linker_0, # of connection points: 2
#     Edge 39, Type (0, 0), BuildingBlock: ZUJKAS_clean_linker_0, # of connection points: 2
#     Edge 40, Type (0, 0), BuildingBlock: ZUJKAS_clean_linker_0, # of connection points: 2
#     Edge 41, Type (0, 0), BuildingBlock: ZUJKAS_clean_linker_0, # of connection points: 2
#     Edge 42, Type (0, 0), BuildingBlock: ZUJKAS_clean_linker_0, # of connection points: 2
#     Edge 43, Type (0, 0), BuildingBlock: ZUJKAS_clean_linker_0, # of connection points: 2
#     Edge 44, Type (0, 0), BuildingBlock: ZUJKAS_clean_linker_0, # of connection points: 2
#     Edge 45, Type (0, 0), BuildingBlock: ZUJKAS_clean_linker_0, # of connection points: 2
#     Edge 46, Type (0, 0), BuildingBlock: ZUJKAS_clean_linker_0, # of connection points: 2
#     Edge 47, Type (0, 0), BuildingBlock: ZUJKAS_clean_linker_0, # of connection points: 2
#     Edge 48, Type (0, 0), BuildingBlock: ZUJKAS_clean_linker_0, # of connection points: 2
#     Edge 49, Type (0, 0), BuildingBlock: ZUJKAS_clean_linker_0, # of connection points: 2
#     Edge 50, Type (0, 0), BuildingBlock: ZUJKAS_clean_linker_0, # of connection points: 2
#     Edge 51, Type (0, 0), BuildingBlock: ZUJKAS_clean_linker_0, # of connection points: 2
#     Edge 52, Type (0, 0), BuildingBlock: ZUJKAS_clean_linker_0, # of connection points: 2
#     Edge 53, Type (0, 0), BuildingBlock: ZUJKAS_clean_linker_0, # of connection points: 2
#     Edge 54, Type (0, 0), BuildingBlock: ZUJKAS_clean_linker_0, # of connection points: 2
#     Edge 55, Type (0, 0), BuildingBlock: ZUJKAS_clean_linker_0, # of connection points: 2
#     Edge 56, Type (0, 0), BuildingBlock: ZUJKAS_clean_linker_0, # of connection points: 2
#     Edge 57, Type (0, 0), BuildingBlock: ZUJKAS_clean_linker_0, # of connection points: 2
#     Edge 58, Type (0, 0), BuildingBlock: ZUJKAS_clean_linker_0, # of connection points: 2
#     Edge 59, Type (0, 0), BuildingBlock: ZUJKAS_clean_linker_0, # of connection points: 2
#     Edge 60, Type (0, 0), BuildingBlock: ZUJKAS_clean_linker_0, # of connection points: 2
#     Edge 61, Type (0, 0), BuildingBlock: ZUJKAS_clean_linker_0, # of connection points: 2
#     Edge 62, Type (0, 0), BuildingBlock: ZUJKAS_clean_linker_0, # of connection points: 2
#     Edge 63, Type (0, 0), BuildingBlock: ZUJKAS_clean_linker_0, # of connection points: 2
#     Edge 64, Type (0, 0), BuildingBlock: ZUJKAS_clean_linker_0, # of connection points: 2
#     Edge 65, Type (0, 0), BuildingBlock: ZUJKAS_clean_linker_0, # of connection points: 2
#     Edge 66, Type (0, 0), BuildingBlock: ZUJKAS_clean_linker_0, # of connection points: 2
#     Edge 67, Type (0, 0), BuildingBlock: ZUJKAS_clean_linker_0, # of connection points: 2
#     Edge 68, Type (0, 0), BuildingBlock: ZUJKAS_clean_linker_0, # of connection points: 2
#     Edge 69, Type (0, 0), BuildingBlock: ZUJKAS_clean_linker_0, # of connection points: 2
#     Edge 70, Type (0, 0), BuildingBlock: ZUJKAS_clean_linker_0, # of connection points: 2
#     Edge 71, Type (0, 0), BuildingBlock: ZUJKAS_clean_linker_0, # of connection points: 2
#     Edge 72, Type (0, 0), BuildingBlock: ZUJKAS_clean_linker_0, # of connection points: 2
#     Edge 73, Type (0, 0), BuildingBlock: ZUJKAS_clean_linker_0, # of connection points: 2
#     Edge 74, Type (0, 0), BuildingBlock: ZUJKAS_clean_linker_0, # of connection points: 2
#     Edge 75, Type (0, 0), BuildingBlock: ZUJKAS_clean_linker_0, # of connection points: 2
#     Edge 76, Type (0, 0), BuildingBlock: ZUJKAS_clean_linker_0, # of connection points: 2
#     Edge 77, Type (0, 0), BuildingBlock: ZUJKAS_clean_linker_0, # of connection points: 2
#     Edge 78, Type (0, 0), BuildingBlock: ZUJKAS_clean_linker_0, # of connection points: 2
#     Edge 79, Type (0, 0), BuildingBlock: ZUJKAS_clean_linker_0, # of connection points: 2
#     Edge 80, Type (0, 0), BuildingBlock: ZUJKAS_clean_linker_0, # of connection points: 2
#     Edge 81, Type (0, 0), BuildingBlock: ZUJKAS_clean_linker_0, # of connection points: 2
#     Edge 82, Type (0, 0), BuildingBlock: ZUJKAS_clean_linker_0, # of connection points: 2
#     Edge 83, Type (0, 0), BuildingBlock: ZUJKAS_clean_linker_0, # of connection points: 2
#     Edge 84, Type (0, 0), BuildingBlock: ZUJKAS_clean_linker_0, # of connection points: 2
#     Edge 85, Type (0, 0), BuildingBlock: ZUJKAS_clean_linker_0, # of connection points: 2
#     Edge 86, Type (0, 0), BuildingBlock: ZUJKAS_clean_linker_0, # of connection points: 2
#     Edge 87, Type (0, 0), BuildingBlock: ZUJKAS_clean_linker_0, # of connection points: 2
#     Edge 88, Type (0, 0), BuildingBlock: ZUJKAS_clean_linker_0, # of connection points: 2
#     Edge 89, Type (0, 0), BuildingBlock: ZUJKAS_clean_linker_0, # of connection points: 2
#     Edge 90, Type (0, 0), BuildingBlock: ZUJKAS_clean_linker_0, # of connection points: 2
#     Edge 91, Type (0, 0), BuildingBlock: ZUJKAS_clean_linker_0, # of connection points: 2
#     Edge 92, Type (0, 0), BuildingBlock: ZUJKAS_clean_linker_0, # of connection points: 2
#     Edge 93, Type (0, 0), BuildingBlock: ZUJKAS_clean_linker_0, # of connection points: 2
#     Edge 94, Type (0, 0), BuildingBlock: ZUJKAS_clean_linker_0, # of connection points: 2
#     Edge 95, Type (0, 0), BuildingBlock: ZUJKAS_clean_linker_0, # of connection points: 2
#     Edge 96, Type (0, 0), BuildingBlock: ZUJKAS_clean_linker_0, # of connection points: 2
#     Edge 97, Type (0, 0), BuildingBlock: ZUJKAS_clean_linker_0, # of connection points: 2
#     Edge 98, Type (0, 0), BuildingBlock: ZUJKAS_clean_linker_0, # of connection points: 2
#     Edge 99, Type (0, 0), BuildingBlock: ZUJKAS_clean_linker_0, # of connection points: 2
#     Edge 100, Type (0, 0), BuildingBlock: ZUJKAS_clean_linker_0, # of connection points: 2
#     Edge 101, Type (0, 0), BuildingBlock: ZUJKAS_clean_linker_0, # of connection points: 2
#     Edge 102, Type (0, 0), BuildingBlock: ZUJKAS_clean_linker_0, # of connection points: 2
#     Edge 103, Type (0, 0), BuildingBlock: ZUJKAS_clean_linker_0, # of connection points: 2
#     Edge 104, Type (0, 0), BuildingBlock: ZUJKAS_clean_linker_0, # of connection points: 2
#     Edge 105, Type (0, 0), BuildingBlock: ZUJKAS_clean_linker_0, # of connection points: 2
#     Edge 106, Type (0, 0), BuildingBlock: ZUJKAS_clean_linker_0, # of connection points: 2
#     Edge 107, Type (0, 0), BuildingBlock: ZUJKAS_clean_linker_0, # of connection points: 2
# Relax obj value: 0.085
# Max RMSD: 0.095
# Mean RMSD: 0.095
data_MOF--net-ato--node1-CEKHIL_clean_sbu_0--edge1-ZUJKAS_clean_linker_0
_symmetry_space_group_name_H-M    P1
_symmetry_Int_Tables_number       1
_symmetry_cell_setting            triclinic
loop_
_symmetry_equiv_pos_as_xyz
'x, y, z'
_cell_length_a     132.12693
_cell_length_b     132.14148
_cell_length_c     30.139458
_cell_angle_alpha  90.021812
_cell_angle_beta   89.981915
_cell_angle_gamma 120.01534
loop_
_atom_site_label
_atom_site_type_symbol
_atom_site_fract_x
_atom_site_fract_y
_atom_site_fract_z
_atom_type_partial_charge
Co0 Co 0.25466 0.05701 0.26573 0.0
O1 O 0.2415 0.0461 0.30142 0.0
O2 O 0.25863 0.04699 0.29956 0.0
C3 C 0.25355 0.07314 0.28343 0.0
O4 O 0.27047 0.06726 0.23585 0.0
Co5 Co 0.25196 0.07096 0.18785 0.0
O6 O 0.26929 0.07945 0.18683 0.0
C7 C 0.24433 0.04592 0.17605 0.0
C8 C 0.24816 0.04224 0.31626 0.0
C9 C 0.27518 0.0758 0.20804 0.0
O10 O 0.24902 0.04572 0.21344 0.0
O11 O 0.24369 0.05478 0.16269 0.0
O12 O 0.25864 0.06934 0.31017 0.0
O13 O 0.24853 0.06659 0.24947 0.0
Co14 Co 0.9495 0.19888 0.26864 0.0
O15 O 0.96061 0.19647 0.30233 0.0
O16 O 0.9598 0.21276 0.30256 0.0
C17 C 0.93346 0.18165 0.28703 0.0
O18 O 0.93912 0.20464 0.24123 0.0
Co19 Co 0.9346 0.1825 0.19158 0.0
O20 O 0.92558 0.19073 0.19723 0.0
C21 C 0.95937 0.2005 0.17542 0.0
C22 C 0.96458 0.20694 0.31801 0.0
C23 C 0.92982 0.20052 0.21718 0.0
O24 O 0.96038 0.20463 0.2151 0.0
O25 O 0.95014 0.19139 0.16157 0.0
O26 O 0.93751 0.19047 0.31413 0.0
O27 O 0.9397 0.18321 0.25206 0.0
Co28 Co 0.80831 0.75305 0.26816 0.0
O29 O 0.81068 0.76656 0.30182 0.0
O30 O 0.79433 0.74951 0.30127 0.0
C31 C 0.82542 0.7541 0.2877 0.0
O32 O 0.80256 0.73693 0.24054 0.0
Co33 Co 0.82498 0.7545 0.19224 0.0
O34 O 0.81654 0.73724 0.19713 0.0
C35 C 0.80703 0.76126 0.1745 0.0
C36 C 0.80014 0.76008 0.31699 0.0
C37 C 0.80667 0.73173 0.21654 0.0
O38 O 0.8028 0.75826 0.21411 0.0
O39 O 0.81616 0.76108 0.1613 0.0
O40 O 0.81648 0.74935 0.31427 0.0
O41 O 0.82403 0.75884 0.25257 0.0
Co42 Co 0.05788 0.25262 0.74392 0.0
O43 O 0.04658 0.23909 0.71074 0.0
O44 O 0.04761 0.25629 0.71028 0.0
C45 C 0.07373 0.25114 0.72488 0.0
O46 O 0.06847 0.26878 0.77088 0.0
Co47 Co 0.07292 0.25109 0.82034 0.0
O48 O 0.08199 0.26833 0.81472 0.0
C49 C 0.04834 0.24487 0.83781 0.0
C50 C 0.04269 0.24566 0.69509 0.0
C51 C 0.07779 0.27392 0.79487 0.0
O52 O 0.04716 0.24773 0.7979 0.0
O53 O 0.05757 0.24498 0.85141 0.0
O54 O 0.06971 0.25598 0.69797 0.0
O55 O 0.06758 0.2466 0.76014 0.0
Co56 Co 0.75325 0.8064 0.74385 0.0
O57 O 0.76676 0.80886 0.70993 0.0
O58 O 0.74967 0.79255 0.70974 0.0
C59 C 0.75444 0.82364 0.72562 0.0
O60 O 0.73712 0.80058 0.77152 0.0
Co61 Co 0.7547 0.82271 0.82107 0.0
O62 O 0.73744 0.81436 0.81608 0.0
C63 C 0.76146 0.8047 0.837 0.0
C64 C 0.76025 0.79839 0.69418 0.0
C65 C 0.73191 0.80459 0.79601 0.0
O66 O 0.75843 0.80064 0.79719 0.0
O67 O 0.76127 0.81375 0.85106 0.0
O68 O 0.74962 0.81481 0.69857 0.0
O69 O 0.75912 0.82206 0.76055 0.0
Co70 Co 0.20053 0.94837 0.7413 0.0
O71 O 0.19808 0.95898 0.70466 0.0
O72 O 0.21443 0.95828 0.70669 0.0
C73 C 0.18335 0.93202 0.72493 0.0
O74 O 0.20622 0.93837 0.77239 0.0
Co75 Co 0.18399 0.93498 0.82035 0.0
O76 O 0.19298 0.92666 0.8229 0.0
C77 C 0.20134 0.96007 0.82959 0.0
C78 C 0.2086 0.96286 0.68957 0.0
C79 C 0.20246 0.9301 0.80141 0.0
O80 O 0.20624 0.95996 0.7926 0.0
O81 O 0.1918 0.95136 0.84354 0.0
O82 O 0.19218 0.93575 0.69792 0.0
O83 O 0.18487 0.93878 0.75813 0.0
Co84 Co 0.75339 0.94823 0.74637 0.0
O85 O 0.76666 0.9591 0.7111 0.0
O86 O 0.74966 0.95851 0.71312 0.0
C87 C 0.75423 0.93201 0.72772 0.0
O88 O 0.73753 0.9381 0.776 0.0
Co89 Co 0.75564 0.93379 0.82334 0.0
O90 O 0.73831 0.92505 0.82159 0.0
C91 C 0.76357 0.95887 0.83674 0.0
C92 C 0.76013 0.96315 0.69651 0.0
C93 C 0.73259 0.92912 0.80173 0.0
O94 O 0.75912 0.95933 0.79914 0.0
O95 O 0.76393 0.94984 0.84987 0.0
O96 O 0.74927 0.93602 0.70131 0.0
O97 O 0.75927 0.9384 0.76201 0.0
Co98 Co 0.05764 0.80699 0.74648 0.0
O99 O 0.04705 0.80953 0.71007 0.0
O100 O 0.04748 0.79306 0.7125 0.0
C101 C 0.0741 0.82398 0.72917 0.0
O102 O 0.06756 0.80115 0.77723 0.0
Co103 Co 0.07154 0.82361 0.82465 0.0
O104 O 0.07977 0.81453 0.8263 0.0
C105 C 0.04641 0.80644 0.8358 0.0
C106 C 0.043 0.79896 0.69531 0.0
C107 C 0.07604 0.80493 0.80534 0.0
O108 O 0.04621 0.80158 0.79833 0.0
O109 O 0.05533 0.81585 0.84952 0.0
O110 O 0.07015 0.81508 0.70248 0.0
O111 O 0.06748 0.82267 0.76268 0.0
Co112 Co 0.19931 0.25206 0.74457 0.0
O113 O 0.19713 0.23881 0.70964 0.0
O114 O 0.21335 0.25596 0.7111 0.0
C115 C 0.18209 0.25086 0.72588 0.0
O116 O 0.20482 0.26798 0.77359 0.0
Co117 Co 0.18253 0.24967 0.82151 0.0
O118 O 0.1912 0.26698 0.82093 0.0
C119 C 0.20043 0.24276 0.83633 0.0
C120 C 0.20766 0.24546 0.6947 0.0
C121 C 0.20085 0.2728 0.8003 0.0
O122 O 0.20494 0.24665 0.79764 0.0
O123 O 0.19105 0.24239 0.84972 0.0
O124 O 0.19102 0.25588 0.69936 0.0
O125 O 0.18355 0.24595 0.76034 0.0
Co126 Co 0.94924 0.7518 0.27098 0.0
O127 O 0.96061 0.76544 0.3035 0.0
O128 O 0.95967 0.74828 0.30421 0.0
C129 C 0.93339 0.75323 0.2906 0.0
O130 O 0.93863 0.73555 0.24477 0.0
Co131 Co 0.93379 0.75293 0.19531 0.0
O132 O 0.92474 0.73573 0.20232 0.0
C133 C 0.9584 0.75941 0.17663 0.0
C134 C 0.96459 0.75894 0.31909 0.0
C135 C 0.92913 0.73026 0.22182 0.0
O136 O 0.95978 0.75663 0.21641 0.0
O137 O 0.94906 0.75919 0.16366 0.0
O138 O 0.93754 0.74851 0.31748 0.0
O139 O 0.93942 0.75768 0.25502 0.0
Co140 Co 0.25499 0.19922 0.26886 0.0
O141 O 0.2414 0.19683 0.30197 0.0
O142 O 0.25865 0.21293 0.30399 0.0
C143 C 0.25342 0.18174 0.28586 0.0
O144 O 0.27123 0.20489 0.24241 0.0
Co145 Co 0.25352 0.1832 0.19032 0.0
O146 O 0.27077 0.19152 0.19504 0.0
C147 C 0.24774 0.20192 0.17517 0.0
C148 C 0.24797 0.20718 0.31865 0.0
C149 C 0.27636 0.20103 0.21673 0.0
O150 O 0.25031 0.20551 0.2157 0.0
O151 O 0.24792 0.19296 0.16006 0.0
O152 O 0.25817 0.19039 0.31373 0.0
O153 O 0.24896 0.1836 0.2509 0.0
Co154 Co 0.80781 0.05668 0.27119 0.0
O155 O 0.81018 0.04595 0.30738 0.0
O156 O 0.79384 0.04667 0.30522 0.0
C157 C 0.82494 0.07298 0.28834 0.0
O158 O 0.80217 0.06679 0.24066 0.0
Co159 Co 0.82443 0.07037 0.19279 0.0
O160 O 0.81562 0.07888 0.19154 0.0
C161 C 0.80712 0.04529 0.18225 0.0
C162 C 0.79963 0.04204 0.3222 0.0
C163 C 0.80606 0.07529 0.21266 0.0
O164 O 0.8022 0.04525 0.21937 0.0
O165 O 0.81664 0.05408 0.16858 0.0
O166 O 0.81607 0.06915 0.31518 0.0
O167 O 0.8235 0.06633 0.2548 0.0
Co168 Co 0.92129 0.39029 0.60026 0.0
O169 O 0.90778 0.37919 0.634 0.0
O170 O 0.92484 0.37991 0.63381 0.0
C171 C 0.9202 0.40636 0.61929 0.0
O172 O 0.93742 0.40068 0.5726 0.0
Co173 Co 0.91962 0.4053 0.52387 0.0
O174 O 0.93691 0.41376 0.52626 0.0
C175 C 0.91275 0.38054 0.50713 0.0
C176 C 0.91426 0.37516 0.64943 0.0
C177 C 0.94249 0.40965 0.54679 0.0
O178 O 0.91606 0.37947 0.5464 0.0
O179 O 0.91273 0.38975 0.49407 0.0
O180 O 0.92498 0.40226 0.64607 0.0
O181 O 0.91545 0.40015 0.58436 0.0
Co182 Co 0.61672 0.53215 0.60194 0.0
O183 O 0.62782 0.52977 0.63582 0.0
O184 O 0.62713 0.54612 0.6352 0.0
C185 C 0.60062 0.51503 0.62114 0.0
O186 O 0.60639 0.53791 0.5741 0.0
Co187 Co 0.60159 0.51551 0.52577 0.0
O188 O 0.59279 0.52397 0.53037 0.0
C189 C 0.62635 0.53341 0.50856 0.0
C190 C 0.63186 0.5403 0.651 0.0
C191 C 0.59712 0.53383 0.54988 0.0
O192 O 0.62751 0.53768 0.54808 0.0
O193 O 0.61707 0.52428 0.49529 0.0
O194 O 0.60476 0.52395 0.64781 0.0
O195 O 0.60681 0.51645 0.58616 0.0
Co196 Co 0.47462 0.08571 0.59735 0.0
O197 O 0.47689 0.09916 0.63118 0.0
O198 O 0.46072 0.08197 0.6315 0.0
C199 C 0.49198 0.08712 0.61554 0.0
O200 O 0.46905 0.06962 0.56965 0.0
Co201 Co 0.49125 0.08765 0.52017 0.0
O202 O 0.48256 0.07036 0.52225 0.0
C203 C 0.47286 0.09388 0.50417 0.0
C204 C 0.46645 0.09257 0.64697 0.0
C205 C 0.47295 0.06466 0.54324 0.0
O206 O 0.46872 0.09073 0.54384 0.0
O207 O 0.4821 0.09401 0.4905 0.0
O208 O 0.48317 0.08224 0.64268 0.0
O209 O 0.49032 0.09177 0.58077 0.0
Co210 Co 0.72512 0.58671 0.07732 0.0
O211 O 0.71399 0.57316 0.04379 0.0
O212 O 0.71482 0.59026 0.04332 0.0
C213 C 0.74112 0.58544 0.05889 0.0
O214 O 0.73551 0.60287 0.10459 0.0
Co215 Co 0.74007 0.58534 0.15435 0.0
O216 O 0.74903 0.60258 0.14886 0.0
C217 C 0.71535 0.57872 0.17079 0.0
C218 C 0.71002 0.57965 0.02802 0.0
C219 C 0.74477 0.6081 0.12881 0.0
O220 O 0.71426 0.58165 0.1309 0.0
O221 O 0.7246 0.57892 0.18477 0.0
O222 O 0.73709 0.59023 0.0318 0.0
O223 O 0.73491 0.58083 0.09398 0.0
Co224 Co 0.42045 0.14025 0.07297 0.0
O225 O 0.43376 0.14263 0.03783 0.0
O226 O 0.41669 0.1263 0.03912 0.0
C227 C 0.42146 0.15742 0.05499 0.0
O228 O 0.4045 0.13453 0.10199 0.0
Co229 Co 0.42261 0.15683 0.15045 0.0
O230 O 0.40529 0.14799 0.14973 0.0
C231 C 0.43044 0.13959 0.16355 0.0
C232 C 0.42719 0.1321 0.02271 0.0
C233 C 0.39957 0.13837 0.12875 0.0
O234 O 0.42603 0.1347 0.12581 0.0
O235 O 0.43081 0.14899 0.17665 0.0
O236 O 0.41651 0.14855 0.02814 0.0
O237 O 0.42639 0.15592 0.08927 0.0
Co238 Co 0.86623 0.2817 0.07563 0.0
O239 O 0.86386 0.29263 0.04054 0.0
O240 O 0.88025 0.29202 0.04242 0.0
C241 C 0.84915 0.2655 0.05675 0.0
O242 O 0.87198 0.27151 0.10479 0.0
Co243 Co 0.84947 0.2669 0.15208 0.0
O244 O 0.85803 0.25815 0.14919 0.0
C245 C 0.86672 0.29195 0.16695 0.0
C246 C 0.87443 0.29666 0.0258 0.0
C247 C 0.86788 0.26237 0.12971 0.0
O248 O 0.87157 0.2927 0.12887 0.0
O249 O 0.8574 0.28278 0.17977 0.0
O250 O 0.85811 0.26953 0.0303 0.0
O251 O 0.85052 0.27183 0.09122 0.0
Co252 Co 0.42101 0.28242 0.0791 0.0
O253 O 0.4341 0.29319 0.04295 0.0
O254 O 0.41706 0.29249 0.04543 0.0
C255 C 0.42184 0.26617 0.06113 0.0
O256 O 0.40528 0.2723 0.10975 0.0
Co257 Co 0.42398 0.26861 0.1568 0.0
O258 O 0.40666 0.26022 0.15884 0.0
C259 C 0.43163 0.29364 0.16841 0.0
C260 C 0.42747 0.29712 0.02831 0.0
C261 C 0.40069 0.26383 0.13794 0.0
O262 O 0.42684 0.29377 0.13118 0.0
O263 O 0.43234 0.28482 0.18181 0.0
O264 O 0.41676 0.27004 0.03475 0.0
O265 O 0.42706 0.27274 0.09485 0.0
Co266 Co 0.72503 0.13907 0.0752 0.0
O267 O 0.71363 0.1409 0.0409 0.0
O268 O 0.71537 0.1251 0.04089 0.0
C269 C 0.74083 0.15655 0.05749 0.0
O270 O 0.73576 0.13392 0.10365 0.0
Co271 Co 0.73893 0.1557 0.1532 0.0
O272 O 0.74789 0.14734 0.15268 0.0
C273 C 0.71405 0.13782 0.16554 0.0
C274 C 0.71019 0.13051 0.02539 0.0
C275 C 0.74442 0.13789 0.13095 0.0
O276 O 0.71392 0.13301 0.12802 0.0
O277 O 0.72279 0.14744 0.17881 0.0
O278 O 0.73709 0.14776 0.03034 0.0
O279 O 0.73434 0.15482 0.09185 0.0
Co280 Co 0.86649 0.58584 0.07754 0.0
O281 O 0.8642 0.57263 0.04213 0.0
O282 O 0.88051 0.58972 0.044 0.0
C283 C 0.84934 0.58482 0.05923 0.0
O284 O 0.87209 0.60167 0.10728 0.0
Co285 Co 0.84976 0.58332 0.15484 0.0
O286 O 0.85822 0.60065 0.15331 0.0
C287 C 0.86716 0.5757 0.16774 0.0
C288 C 0.87475 0.57925 0.02734 0.0
C289 C 0.86798 0.60649 0.13329 0.0
O290 O 0.87203 0.58021 0.13014 0.0
O291 O 0.8577 0.57518 0.18104 0.0
O292 O 0.85827 0.58985 0.03272 0.0
O293 O 0.85076 0.57979 0.0934 0.0
Co294 Co 0.61637 0.08511 0.59999 0.0
O295 O 0.62763 0.09823 0.6351 0.0
O296 O 0.62589 0.08069 0.6347 0.0
C297 C 0.60052 0.08675 0.61708 0.0
O298 O 0.60575 0.06933 0.57057 0.0
Co299 Co 0.60286 0.0882 0.52143 0.0
O300 O 0.59399 0.07087 0.52045 0.0
C301 C 0.62774 0.09512 0.51045 0.0
C302 C 0.63101 0.09124 0.65068 0.0
C303 C 0.5973 0.06479 0.54231 0.0
O304 O 0.62769 0.09029 0.54781 0.0
O305 O 0.61911 0.09613 0.49684 0.0
O306 O 0.60414 0.0816 0.64422 0.0
O307 O 0.60715 0.09162 0.58313 0.0
Co308 Co 0.92096 0.53195 0.60175 0.0
O309 O 0.90771 0.52947 0.63731 0.0
O310 O 0.92472 0.54587 0.63571 0.0
C311 C 0.92019 0.51487 0.61922 0.0
O312 O 0.93682 0.53772 0.57199 0.0
Co313 Co 0.91845 0.51544 0.52356 0.0
O314 O 0.93578 0.52435 0.52317 0.0
C315 C 0.91057 0.53264 0.51207 0.0
C316 C 0.91425 0.54002 0.65229 0.0
C317 C 0.94161 0.53392 0.54439 0.0
O318 O 0.91524 0.53752 0.54949 0.0
O319 O 0.91 0.52318 0.49851 0.0
O320 O 0.92509 0.52373 0.64613 0.0
O321 O 0.91507 0.51629 0.58534 0.0
Co322 Co 0.47457 0.39082 0.60352 0.0
O323 O 0.47696 0.37995 0.63882 0.0
O324 O 0.46057 0.38058 0.63696 0.0
C325 C 0.49164 0.40706 0.62186 0.0
O326 O 0.46884 0.40096 0.57401 0.0
Co327 Co 0.49121 0.40519 0.52626 0.0
O328 O 0.48266 0.41396 0.52822 0.0
C329 C 0.47402 0.38011 0.51317 0.0
C330 C 0.46639 0.37594 0.65357 0.0
C331 C 0.4729 0.40995 0.54826 0.0
O332 O 0.46912 0.37968 0.55079 0.0
O333 O 0.48343 0.38912 0.49994 0.0
O334 O 0.48271 0.40306 0.64845 0.0
O335 O 0.49027 0.40063 0.58764 0.0
Co336 Co 0.58687 0.72321 0.93462 0.0
O337 O 0.57334 0.71208 0.96829 0.0
O338 O 0.59038 0.71275 0.96769 0.0
C339 C 0.58583 0.73928 0.95416 0.0
O340 O 0.603 0.73356 0.90703 0.0
Co341 Co 0.5855 0.73848 0.85876 0.0
O342 O 0.60276 0.7473 0.86385 0.0
C343 C 0.57861 0.71373 0.84099 0.0
C344 C 0.57982 0.70801 0.98341 0.0
C345 C 0.60824 0.7429 0.8832 0.0
O346 O 0.58162 0.71249 0.88056 0.0
O347 O 0.57884 0.72306 0.82785 0.0
O348 O 0.59058 0.7351 0.98073 0.0
O349 O 0.5811 0.73316 0.91901 0.0
Co350 Co 0.28286 0.86518 0.93715 0.0
O351 O 0.29412 0.86295 0.97056 0.0
O352 O 0.29293 0.87903 0.97167 0.0
C353 C 0.26701 0.84772 0.95489 0.0
O354 O 0.27224 0.87073 0.91026 0.0
Co355 Co 0.26824 0.84888 0.85939 0.0
O356 O 0.25929 0.8572 0.86347 0.0
C357 C 0.29282 0.86739 0.84371 0.0
C358 C 0.29788 0.87335 0.98674 0.0
C359 C 0.26323 0.86678 0.8847 0.0
O360 O 0.29377 0.87131 0.88373 0.0
O361 O 0.28371 0.85824 0.82943 0.0
O362 O 0.27089 0.85646 0.98236 0.0
O363 O 0.27331 0.84951 0.9199 0.0
Co364 Co 0.14139 0.41912 0.93284 0.0
O365 O 0.14366 0.43271 0.96567 0.0
O366 O 0.12741 0.41558 0.96599 0.0
C367 C 0.15863 0.4205 0.95269 0.0
O368 O 0.13575 0.40291 0.90618 0.0
Co369 Co 0.1581 0.42037 0.8574 0.0
O370 O 0.14984 0.40315 0.86369 0.0
C371 C 0.14008 0.427 0.83876 0.0
C372 C 0.13316 0.42621 0.98115 0.0
C373 C 0.13995 0.39766 0.883 0.0
O374 O 0.13578 0.42406 0.87832 0.0
O375 O 0.14924 0.42684 0.82603 0.0
O376 O 0.14971 0.41572 0.97934 0.0
O377 O 0.15712 0.42501 0.91718 0.0
Co378 Co 0.39135 0.91906 0.4127 0.0
O379 O 0.38007 0.90557 0.37932 0.0
O380 O 0.38112 0.92278 0.37895 0.0
C381 C 0.40721 0.91758 0.39378 0.0
O382 O 0.40198 0.9352 0.43984 0.0
Co383 Co 0.40624 0.9173 0.48929 0.0
O384 O 0.415 0.93458 0.48612 0.0
C385 C 0.38166 0.91105 0.50627 0.0
C386 C 0.37621 0.91217 0.36362 0.0
C387 C 0.411 0.94023 0.4654 0.0
O388 O 0.38058 0.91413 0.46662 0.0
O389 O 0.39081 0.91097 0.5197 0.0
O390 O 0.40322 0.92244 0.36686 0.0
O391 O 0.40101 0.913 0.4289 0.0
Co392 Co 0.08746 0.47364 0.4087 0.0
O393 O 0.10067 0.47618 0.37261 0.0
O394 O 0.08376 0.45969 0.37493 0.0
C395 C 0.08803 0.49062 0.39097 0.0
O396 O 0.07163 0.46777 0.43898 0.0
Co397 Co 0.0899 0.49026 0.48645 0.0
O398 O 0.07259 0.48118 0.48739 0.0
C399 C 0.09795 0.47319 0.49853 0.0
C400 C 0.09416 0.46561 0.35784 0.0
C401 C 0.06681 0.47154 0.46657 0.0
O402 O 0.09343 0.46829 0.46093 0.0
O403 O 0.0983 0.48255 0.51198 0.0
O404 O 0.08311 0.4817 0.36434 0.0
O405 O 0.09325 0.48931 0.42475 0.0
Co406 Co 0.53322 0.61491 0.41009 0.0
O407 O 0.53069 0.62596 0.37653 0.0
O408 O 0.54705 0.62528 0.37609 0.0
C409 C 0.51602 0.5988 0.39171 0.0
O410 O 0.5391 0.60462 0.43741 0.0
Co411 Co 0.51693 0.59991 0.48718 0.0
O412 O 0.52531 0.59104 0.48162 0.0
C413 C 0.53496 0.62465 0.50363 0.0
C414 C 0.54117 0.63 0.36077 0.0
C415 C 0.5351 0.59536 0.46161 0.0
O416 O 0.53895 0.62578 0.46366 0.0
O417 O 0.52595 0.61537 0.51767 0.0
O418 O 0.52485 0.60291 0.36458 0.0
O419 O 0.51757 0.60501 0.42675 0.0
Co420 Co 0.08688 0.61519 0.40908 0.0
O421 O 0.10024 0.62612 0.37433 0.0
O422 O 0.0832 0.62543 0.37525 0.0
C423 C 0.08781 0.59899 0.39089 0.0
O424 O 0.07088 0.60494 0.43783 0.0
Co425 Co 0.08898 0.60072 0.48648 0.0
O426 O 0.07167 0.59227 0.48556 0.0
C427 C 0.09608 0.6256 0.50101 0.0
C428 C 0.09371 0.6301 0.35906 0.0
C429 C 0.06596 0.59618 0.46463 0.0
O430 O 0.09234 0.62627 0.4621 0.0
O431 O 0.09629 0.61653 0.51466 0.0
O432 O 0.08296 0.60301 0.36404 0.0
O433 O 0.09276 0.60538 0.42528 0.0
Co434 Co 0.3912 0.47338 0.41112 0.0
O435 O 0.38008 0.47573 0.37717 0.0
O436 O 0.38087 0.45943 0.37765 0.0
C437 C 0.40727 0.49056 0.3923 0.0
O438 O 0.40158 0.46768 0.43888 0.0
Co439 Co 0.4061 0.48993 0.48779 0.0
O440 O 0.41513 0.4817 0.48254 0.0
C441 C 0.38127 0.47214 0.50397 0.0
C442 C 0.3761 0.46521 0.36189 0.0
C443 C 0.4109 0.47187 0.46285 0.0
O444 O 0.38034 0.46777 0.46476 0.0
O445 O 0.39047 0.48134 0.51737 0.0
O446 O 0.40318 0.48168 0.36545 0.0
O447 O 0.40103 0.48908 0.42719 0.0
Co448 Co 0.53311 0.91911 0.41316 0.0
O449 O 0.5309 0.9056 0.37991 0.0
O450 O 0.547 0.92286 0.37902 0.0
C451 C 0.51571 0.91754 0.39483 0.0
O452 O 0.53862 0.93527 0.43998 0.0
Co453 Co 0.51669 0.91738 0.49051 0.0
O454 O 0.52503 0.93465 0.48661 0.0
C455 C 0.5351 0.91121 0.50664 0.0
C456 C 0.54132 0.91222 0.36392 0.0
C457 C 0.53462 0.94031 0.46546 0.0
O458 O 0.53912 0.91429 0.4668 0.0
O459 O 0.52591 0.91113 0.52066 0.0
O460 O 0.52451 0.92239 0.36762 0.0
O461 O 0.51741 0.91301 0.42994 0.0
Co462 Co 0.28264 0.41815 0.93585 0.0
O463 O 0.29381 0.43161 0.96963 0.0
O464 O 0.2927 0.41438 0.97046 0.0
C465 C 0.26673 0.41967 0.95354 0.0
O466 O 0.2721 0.40204 0.90833 0.0
Co467 Co 0.26821 0.42007 0.85791 0.0
O468 O 0.25943 0.4028 0.86054 0.0
C469 C 0.29271 0.42588 0.8425 0.0
C470 C 0.29759 0.425 0.98574 0.0
C471 C 0.26327 0.39708 0.88186 0.0
O472 O 0.29366 0.42307 0.88274 0.0
O473 O 0.28361 0.42585 0.82775 0.0
O474 O 0.2706 0.41477 0.98085 0.0
O475 O 0.27308 0.42428 0.91874 0.0
Co476 Co 0.58728 0.865 0.93769 0.0
O477 O 0.57368 0.86261 0.97077 0.0
O478 O 0.59078 0.87891 0.97116 0.0
C479 C 0.58606 0.84779 0.95685 0.0
O480 O 0.6035 0.87076 0.91095 0.0
Co481 Co 0.58611 0.84854 0.86145 0.0
O482 O 0.60335 0.85686 0.86756 0.0
C483 C 0.57949 0.86658 0.84367 0.0
C484 C 0.58016 0.8731 0.98634 0.0
C485 C 0.60879 0.86668 0.88734 0.0
O486 O 0.58229 0.87068 0.88354 0.0
O487 O 0.57975 0.85752 0.83025 0.0
O488 O 0.59076 0.85665 0.98379 0.0
O489 O 0.58148 0.84931 0.92151 0.0
Co490 Co 0.14051 0.72369 0.93374 0.0
O491 O 0.14273 0.71233 0.96652 0.0
O492 O 0.12667 0.71355 0.9681 0.0
C493 C 0.15798 0.73947 0.95185 0.0
O494 O 0.13498 0.73438 0.90757 0.0
Co495 Co 0.15679 0.73849 0.85626 0.0
O496 O 0.14849 0.74743 0.86099 0.0
C497 C 0.13811 0.71403 0.83965 0.0
C498 C 0.13234 0.70855 0.9828 0.0
C499 C 0.13892 0.74345 0.88233 0.0
O500 O 0.13436 0.7129 0.87997 0.0
O501 O 0.14718 0.7232 0.82528 0.0
O502 O 0.14924 0.73552 0.97931 0.0
O503 O 0.1562 0.73328 0.91655 0.0
H504 H 0.19793 0.97327 0.64693 0.0
H505 H 0.20511 0.98652 0.58333 0.0
H506 H 0.23706 0.98521 0.58438 0.0
H507 H 0.22996 0.972 0.64849 0.0
H508 H 0.24063 0.00791 0.57264 0.0
H509 H 0.20697 0.97677 0.45602 0.0
H510 H 0.20107 0.97932 0.50568 0.0
H511 H 0.20972 0.97231 0.50915 0.0
C512 C 0.20651 0.97583 0.63382 0.0
C513 C 0.21334 0.97151 0.65276 0.0
C514 C 0.21057 0.98335 0.59718 0.0
C515 C 0.22154 0.98669 0.57841 0.0
C516 C 0.22854 0.98268 0.59803 0.0
H517 H 0.26038 0.03289 0.35568 0.0
H518 H 0.25425 0.01925 0.41828 0.0
C519 C 0.22447 0.97514 0.63472 0.0
C520 C 0.22567 0.99438 0.53846 0.0
H521 H 0.2187 0.9963 0.43066 0.0
C522 C 0.23589 0.00535 0.54149 0.0
C523 C 0.21949 0.99104 0.49774 0.0
C524 C 0.20877 0.97918 0.49165 0.0
C525 C 0.23989 0.01318 0.50543 0.0
C526 C 0.23364 0.00988 0.46483 0.0
C527 C 0.22349 0.99886 0.4617 0.0
C528 C 0.23729 0.01783 0.4256 0.0
C529 C 0.25056 0.02507 0.51166 0.0
C530 C 0.22966 0.02127 0.40763 0.0
C531 C 0.2331 0.02898 0.37156 0.0
C532 C 0.24425 0.0334 0.35244 0.0
C533 C 0.25176 0.02971 0.3697 0.0
C534 C 0.2483 0.02198 0.40578 0.0
H535 H 0.25252 0.02734 0.54732 0.0
H536 H 0.25823 0.0251 0.49653 0.0
H537 H 0.24942 0.03196 0.49521 0.0
H538 H 0.22109 0.01815 0.42208 0.0
H539 H 0.22708 0.03162 0.35914 0.0
H540 H 0.03343 0.2577 0.6537 0.0
H541 H 0.01988 0.25128 0.59072 0.0
H542 H 0.01865 0.21806 0.59074 0.0
H543 H 0.032 0.22432 0.65403 0.0
H544 H 0.02296 0.24492 0.50738 0.0
H545 H 0.98424 0.20784 0.58581 0.0
H546 H 0.99647 0.21859 0.61771 0.0
H547 H 0.99724 0.20682 0.59085 0.0
C548 C 0.03014 0.24896 0.64072 0.0
C549 C 0.03376 0.2415 0.65918 0.0
C550 C 0.02242 0.24532 0.60456 0.0
C551 C 0.01809 0.23412 0.58619 0.0
C552 C 0.02163 0.22664 0.60482 0.0
H553 H 0.97491 0.19606 0.35993 0.0
H554 H 0.98822 0.20309 0.42351 0.0
C555 C 0.02933 0.23026 0.64098 0.0
C556 C 0.01031 0.23045 0.54641 0.0
H557 H 0.9838 0.20923 0.50712 0.0
C558 C 0.01436 0.23716 0.50745 0.0
C559 C 0.99908 0.22032 0.54631 0.0
C560 C 0.99393 0.21303 0.58752 0.0
C561 C 0.00764 0.23388 0.46829 0.0
C562 C 0.99647 0.22368 0.46811 0.0
C563 C 0.99238 0.21702 0.50712 0.0
C564 C 0.98886 0.21975 0.42788 0.0
C565 C 0.0127 0.24119 0.42709 0.0
C566 C 0.98478 0.22676 0.40892 0.0
C567 C 0.97717 0.22276 0.37244 0.0
C568 C 0.97342 0.21163 0.35421 0.0
C569 C 0.97764 0.20469 0.37292 0.0
C570 C 0.98523 0.20869 0.40943 0.0
H571 H 0.02234 0.24686 0.42942 0.0
H572 H 0.01061 0.23557 0.39718 0.0
H573 H 0.00886 0.24691 0.42265 0.0
H574 H 0.98727 0.23523 0.42298 0.0
H575 H 0.97403 0.22829 0.35912 0.0
H576 H 0.81089 0.78135 0.3586 0.0
H577 H 0.80385 0.78754 0.42239 0.0
H578 H 0.77182 0.75434 0.42209 0.0
H579 H 0.77876 0.74812 0.35792 0.0
H580 H 0.76837 0.77352 0.43479 0.0
H581 H 0.8023 0.7758 0.5494 0.0
H582 H 0.80801 0.7843 0.49971 0.0
H583 H 0.79938 0.76864 0.49611 0.0
C584 C 0.80231 0.77538 0.37185 0.0
C585 C 0.79542 0.76421 0.35318 0.0
C586 C 0.79833 0.77891 0.40861 0.0
C587 C 0.7874 0.77132 0.42771 0.0
C588 C 0.78032 0.76032 0.4082 0.0
H589 H 0.74836 0.77707 0.65281 0.0
H590 H 0.75474 0.77014 0.58911 0.0
C591 C 0.7843 0.75678 0.37143 0.0
C592 C 0.78338 0.77486 0.46812 0.0
H593 H 0.7904 0.7832 0.57642 0.0
C594 C 0.77315 0.77557 0.46583 0.0
C595 C 0.78961 0.77754 0.5087 0.0
C596 C 0.80038 0.77644 0.51395 0.0
C597 C 0.76914 0.77918 0.50257 0.0
C598 C 0.7754 0.78191 0.54312 0.0
C599 C 0.7856 0.78112 0.54544 0.0
C600 C 0.77165 0.78584 0.58324 0.0
C601 C 0.75842 0.78037 0.49715 0.0
C602 C 0.77917 0.79677 0.60247 0.0
C603 C 0.77559 0.8007 0.63921 0.0
C604 C 0.76441 0.79376 0.65774 0.0
C605 C 0.75701 0.78266 0.63929 0.0
C606 C 0.76061 0.77873 0.60257 0.0
H607 H 0.75651 0.78097 0.46166 0.0
H608 H 0.75076 0.77256 0.51147 0.0
H609 H 0.75948 0.78822 0.51478 0.0
H610 H 0.78776 0.80239 0.58844 0.0
H611 H 0.78152 0.80929 0.65252 0.0
H612 H 0.78129 0.97365 0.65424 0.0
H613 H 0.78751 0.98721 0.59166 0.0
H614 H 0.75447 0.98636 0.5942 0.0
H615 H 0.74809 0.97262 0.65658 0.0
H616 H 0.76076 0.9835 0.50972 0.0
H617 H 0.79788 0.02177 0.59024 0.0
H618 H 0.79878 0.00869 0.59435 0.0
H619 H 0.78703 0.00944 0.62144 0.0
C620 C 0.77537 0.97644 0.64187 0.0
C621 C 0.7642 0.97208 0.66065 0.0
C622 C 0.77898 0.98425 0.60613 0.0
C623 C 0.77154 0.98797 0.5885 0.0
C624 C 0.76039 0.98368 0.60733 0.0
H625 H 0.77821 0.03288 0.36264 0.0
H626 H 0.77095 0.01959 0.42634 0.0
C627 C 0.75677 0.97585 0.64311 0.0
C628 C 0.77522 0.99594 0.54934 0.0
H629 H 0.7966 0.02255 0.5116 0.0
C630 C 0.76854 0.99208 0.51025 0.0
C631 C 0.78538 0.00715 0.5499 0.0
C632 C 0.79263 0.01207 0.59135 0.0
C633 C 0.77192 0.99896 0.47149 0.0
C634 C 0.78217 0.01009 0.47192 0.0
C635 C 0.78877 0.014 0.51114 0.0
C636 C 0.78631 0.01779 0.432 0.0
C637 C 0.76468 0.99409 0.43002 0.0
C638 C 0.79741 0.02134 0.41413 0.0
C639 C 0.80159 0.02896 0.37781 0.0
C640 C 0.7948 0.03329 0.35866 0.0
C641 C 0.78363 0.02965 0.37634 0.0
C642 C 0.77945 0.02201 0.4127 0.0
H643 H 0.75891 0.98445 0.4319 0.0
H644 H 0.75906 0.99805 0.42566 0.0
H645 H 0.77035 0.99621 0.40026 0.0
H646 H 0.80288 0.01824 0.42849 0.0
H647 H 0.81024 0.0316 0.36521 0.0
H648 H 0.03297 0.80986 0.65155 0.0
H649 H 0.0197 0.80268 0.58808 0.0
H650 H 0.02003 0.77023 0.59195 0.0
H651 H 0.0335 0.77745 0.65522 0.0
H652 H 0.02325 0.77927 0.50735 0.0
H653 H 0.98507 0.77893 0.58497 0.0
H654 H 0.99826 0.79281 0.5892 0.0
H655 H 0.99721 0.78028 0.61704 0.0
C656 C 0.03013 0.80114 0.63928 0.0
C657 C 0.03427 0.79422 0.65872 0.0
C658 C 0.02248 0.79702 0.60301 0.0
C659 C 0.01869 0.78583 0.58549 0.0
C660 C 0.02277 0.77887 0.60495 0.0
H661 H 0.97392 0.74699 0.36059 0.0
H662 H 0.98733 0.75341 0.42393 0.0
C663 C 0.03044 0.783 0.64125 0.0
C664 C 0.01084 0.7816 0.5459 0.0
H665 H 0.98447 0.77665 0.50649 0.0
C666 C 0.01473 0.77861 0.50728 0.0
C667 C 0.99972 0.78075 0.54565 0.0
C668 C 0.99475 0.78325 0.58655 0.0
C669 C 0.00796 0.7751 0.46825 0.0
C670 C 0.99689 0.77436 0.46789 0.0
C671 C 0.99297 0.77726 0.5066 0.0
C672 C 0.98923 0.77063 0.42782 0.0
C673 C 0.01285 0.7725 0.42735 0.0
C674 C 0.98572 0.7781 0.40894 0.0
C675 C 0.97803 0.77445 0.37275 0.0
C676 C 0.97359 0.76318 0.35476 0.0
C677 C 0.97723 0.75575 0.37333 0.0
C678 C 0.98495 0.75943 0.40952 0.0
H679 H 0.02248 0.77634 0.42954 0.0
H680 H 0.00886 0.7629 0.42369 0.0
H681 H 0.0108 0.77592 0.3971 0.0
H682 H 0.98886 0.78677 0.42251 0.0
H683 H 0.97537 0.78038 0.35947 0.0
H684 H 0.25997 0.22823 0.36185 0.0
H685 H 0.2535 0.23495 0.42599 0.0
H686 H 0.22004 0.20325 0.42225 0.0
H687 H 0.22645 0.19643 0.35846 0.0
H688 H 0.23437 0.23866 0.43715 0.0
H689 H 0.23089 0.20394 0.5503 0.0
H690 H 0.23844 0.20709 0.49776 0.0
H691 H 0.22275 0.19858 0.49966 0.0
C692 C 0.25121 0.22271 0.37449 0.0
C693 C 0.24376 0.21176 0.35508 0.0
C694 C 0.24752 0.22657 0.41123 0.0
C695 C 0.23636 0.21952 0.42957 0.0
C696 C 0.22878 0.20874 0.40937 0.0
H697 H 0.19705 0.22445 0.65126 0.0
H698 H 0.20438 0.21855 0.58757 0.0
C699 C 0.23244 0.20489 0.37262 0.0
C700 C 0.23264 0.2234 0.46983 0.0
H701 H 0.2235 0.21586 0.57713 0.0
C702 C 0.23206 0.23372 0.46785 0.0
C703 C 0.22962 0.21696 0.50995 0.0
C704 C 0.23054 0.20608 0.51488 0.0
C705 C 0.22825 0.23759 0.50439 0.0
C706 C 0.22517 0.23111 0.54448 0.0
C707 C 0.22584 0.22084 0.54651 0.0
C708 C 0.22098 0.23468 0.58432 0.0
C709 C 0.22721 0.24839 0.49921 0.0
C710 C 0.22795 0.24561 0.60461 0.0
C711 C 0.22376 0.24902 0.64111 0.0
C712 C 0.21253 0.24153 0.65837 0.0
C713 C 0.20572 0.23045 0.63886 0.0
C714 C 0.20991 0.22706 0.60235 0.0
H715 H 0.22688 0.25049 0.46374 0.0
H716 H 0.21927 0.24732 0.51611 0.0
H717 H 0.23496 0.25594 0.51442 0.0
H718 H 0.23663 0.25154 0.59211 0.0
H719 H 0.22926 0.25759 0.65541 0.0
H720 H 0.89286 0.36451 0.69007 0.0
H721 H 0.88653 0.35127 0.7538 0.0
H722 H 0.91985 0.35272 0.75566 0.0
H723 H 0.92622 0.3659 0.69149 0.0
H724 H 0.90078 0.33003 0.76778 0.0
H725 H 0.89766 0.36141 0.88129 0.0
H726 H 0.88934 0.3586 0.83112 0.0
H727 H 0.90502 0.36574 0.82839 0.0
C728 C 0.89883 0.36196 0.70379 0.0
C729 C 0.91008 0.36633 0.68571 0.0
C730 C 0.89523 0.35445 0.74052 0.0
C731 C 0.90279 0.35117 0.76022 0.0
C732 C 0.91388 0.35519 0.74131 0.0
H733 H 0.89601 0.30623 0.98632 0.0
H734 H 0.90329 0.3196 0.92289 0.0
C735 C 0.91751 0.36272 0.70455 0.0
C736 C 0.89914 0.3436 0.80057 0.0
H737 H 0.89014 0.34207 0.90808 0.0
C738 C 0.89853 0.33269 0.79855 0.0
C739 C 0.89619 0.34706 0.8408 0.0
C740 C 0.89718 0.35888 0.84585 0.0
C741 C 0.89475 0.32503 0.83514 0.0
C742 C 0.89173 0.32845 0.87531 0.0
C743 C 0.89244 0.33941 0.87739 0.0
C744 C 0.88758 0.32071 0.91521 0.0
C745 C 0.8937 0.31318 0.82996 0.0
C746 C 0.87651 0.31721 0.93333 0.0
C747 C 0.87238 0.30966 0.96991 0.0
C748 C 0.87924 0.30546 0.98941 0.0
C749 C 0.89047 0.30924 0.97205 0.0
C750 C 0.8946 0.31682 0.93548 0.0
H751 H 0.89335 0.31072 0.7945 0.0
H752 H 0.90143 0.31336 0.84517 0.0
H753 H 0.88575 0.30631 0.8469 0.0
H754 H 0.87095 0.32015 0.91858 0.0
H755 H 0.8637 0.30694 0.98237 0.0
H756 H 0.64136 0.56174 0.69151 0.0
H757 H 0.65463 0.56878 0.75527 0.0
H758 H 0.65555 0.53662 0.75676 0.0
H759 H 0.64221 0.52948 0.69331 0.0
H760 H 0.65122 0.54286 0.84005 0.0
H761 H 0.68968 0.58046 0.76186 0.0
H762 H 0.6762 0.58051 0.75513 0.0
H763 H 0.67792 0.56915 0.72977 0.0
C764 C 0.64451 0.55622 0.70501 0.0
C765 C 0.64074 0.54505 0.6871 0.0
C766 C 0.65214 0.56028 0.74143 0.0
C767 C 0.65621 0.55329 0.76065 0.0
C768 C 0.65257 0.5422 0.74249 0.0
H769 H 0.69951 0.55831 0.987 0.0
H770 H 0.68617 0.55193 0.92364 0.0
C771 C 0.64496 0.53814 0.70605 0.0
C772 C 0.66384 0.55729 0.80084 0.0
H773 H 0.69031 0.57863 0.8399 0.0
C774 C 0.65979 0.55066 0.83995 0.0
C775 C 0.675 0.56751 0.80091 0.0
C776 C 0.68003 0.57478 0.75961 0.0
C777 C 0.66649 0.55402 0.87912 0.0
C778 C 0.6777 0.56419 0.8791 0.0
C779 C 0.68172 0.57086 0.84005 0.0
C780 C 0.68549 0.56792 0.91888 0.0
C781 C 0.66138 0.54677 0.92042 0.0
C782 C 0.68974 0.57912 0.93716 0.0
C783 C 0.69745 0.58283 0.97337 0.0
C784 C 0.70113 0.57543 0.99197 0.0
C785 C 0.69678 0.56419 0.97384 0.0
C786 C 0.6891 0.56051 0.93764 0.0
H787 H 0.65169 0.54152 0.91872 0.0
H788 H 0.66474 0.54062 0.92393 0.0
H789 H 0.66389 0.55236 0.95052 0.0
H790 H 0.68715 0.58504 0.92322 0.0
H791 H 0.70067 0.59156 0.98629 0.0
H792 H 0.47705 0.11396 0.68765 0.0
H793 H 0.47003 0.1202 0.75132 0.0
H794 H 0.43832 0.08674 0.75327 0.0
H795 H 0.44524 0.08044 0.68919 0.0
H796 H 0.43453 0.10576 0.76492 0.0
H797 H 0.46902 0.10913 0.87904 0.0
H798 H 0.47452 0.11741 0.82879 0.0
H799 H 0.46605 0.10172 0.82625 0.0
C800 C 0.46854 0.10793 0.70139 0.0
C801 C 0.46173 0.09667 0.68334 0.0
C802 C 0.46458 0.11149 0.73808 0.0
C803 C 0.45374 0.10387 0.75776 0.0
C804 C 0.44675 0.09275 0.73892 0.0
H805 H 0.41519 0.11056 0.98293 0.0
H806 H 0.42138 0.10331 0.91966 0.0
C807 C 0.45072 0.08917 0.70222 0.0
C808 C 0.44974 0.10749 0.79799 0.0
H809 H 0.45707 0.11654 0.90552 0.0
C810 C 0.43942 0.10805 0.79575 0.0
C811 C 0.45611 0.11048 0.83831 0.0
C812 C 0.46698 0.10957 0.84357 0.0
C813 C 0.43546 0.11181 0.83221 0.0
C814 C 0.44187 0.11487 0.87247 0.0
C815 C 0.45215 0.11421 0.87477 0.0
C816 C 0.43821 0.11901 0.91224 0.0
C817 C 0.42465 0.11282 0.82676 0.0
C818 C 0.44576 0.13007 0.93046 0.0
C819 C 0.44229 0.13419 0.96696 0.0
C820 C 0.43119 0.12732 0.98627 0.0
C821 C 0.42377 0.11611 0.96879 0.0
C822 C 0.42726 0.11198 0.9323 0.0
H823 H 0.42259 0.11316 0.79124 0.0
H824 H 0.41708 0.10506 0.84183 0.0
H825 H 0.42567 0.12075 0.84366 0.0
H826 H 0.45428 0.13564 0.91586 0.0
H827 H 0.44824 0.14286 0.97952 0.0
H828 H 0.44484 0.36643 0.69322 0.0
H829 H 0.43752 0.3529 0.75619 0.0
H830 H 0.46976 0.35215 0.75959 0.0
H831 H 0.47706 0.36552 0.6963 0.0
H832 H 0.45035 0.33021 0.769 0.0
H833 H 0.44765 0.36144 0.88487 0.0
H834 H 0.4396 0.35904 0.83424 0.0
H835 H 0.45527 0.36596 0.83252 0.0
C836 C 0.45035 0.36334 0.70721 0.0
C837 C 0.46156 0.36711 0.68976 0.0
C838 C 0.44619 0.35567 0.7435 0.0
C839 C 0.45317 0.35167 0.76332 0.0
C840 C 0.46423 0.35517 0.74513 0.0
H841 H 0.44857 0.30766 0.98568 0.0
H842 H 0.45453 0.32086 0.92194 0.0
C843 C 0.46839 0.36281 0.70886 0.0
C844 C 0.449 0.34382 0.80285 0.0
H845 H 0.44027 0.3421 0.91088 0.0
C846 C 0.44817 0.33282 0.80002 0.0
C847 C 0.44612 0.34721 0.84342 0.0
C848 C 0.44729 0.35909 0.84928 0.0
C849 C 0.44446 0.3251 0.83634 0.0
C850 C 0.44169 0.32853 0.87702 0.0
C851 C 0.44239 0.33947 0.87975 0.0
C852 C 0.43823 0.32093 0.9172 0.0
C853 C 0.44337 0.31325 0.83059 0.0
C854 C 0.42723 0.31691 0.93699 0.0
C855 C 0.42381 0.3094 0.97377 0.0
C856 C 0.43136 0.30582 0.9917 0.0
C857 C 0.44251 0.31018 0.97265 0.0
C858 C 0.4459 0.31766 0.93593 0.0
H859 H 0.4427 0.31076 0.79504 0.0
H860 H 0.45124 0.31346 0.84452 0.0
H861 H 0.43558 0.3064 0.84838 0.0
H862 H 0.42119 0.31937 0.92337 0.0
H863 H 0.41518 0.30622 0.98762 0.0
H864 H 0.69004 0.1313 0.0158 0.0
H865 H 0.67601 0.12349 0.95444 0.0
H866 H 0.69767 0.11205 0.88929 0.0
H867 H 0.711 0.11884 0.95257 0.0
H868 H 0.67645 0.12859 0.87621 0.0
H869 H 0.66839 0.0835 0.86973 0.0
H870 H 0.67657 0.09327 0.91425 0.0
H871 H 0.68368 0.09347 0.86275 0.0
C872 C 0.69162 0.12688 0.98871 0.0
C873 C 0.70147 0.12548 0.98922 0.0
C874 C 0.68364 0.12246 0.95343 0.0
C875 C 0.68552 0.11686 0.91715 0.0
C876 C 0.6956 0.11579 0.91738 0.0
H877 H 0.6508 0.11237 0.66306 0.0
H878 H 0.66432 0.11847 0.72597 0.0
C879 C 0.70332 0.11979 0.95346 0.0
C880 C 0.67728 0.11271 0.87835 0.0
H881 H 0.66334 0.09029 0.80421 0.0
C882 C 0.67347 0.12012 0.86098 0.0
C883 C 0.67311 0.10158 0.85841 0.0
C884 C 0.67555 0.09247 0.87765 0.0
C885 C 0.66579 0.11683 0.82457 0.0
C886 C 0.66235 0.10608 0.80255 0.0
C887 C 0.66607 0.09862 0.82017 0.0
C888 C 0.65462 0.1022 0.76229 0.0
C889 C 0.66116 0.12479 0.81154 0.0
C890 C 0.64506 0.09073 0.75956 0.0
C891 C 0.6377 0.08705 0.7224 0.0
C892 C 0.63952 0.09484 0.68758 0.0
C893 C 0.64913 0.10623 0.68973 0.0
C894 C 0.65677 0.10978 0.72612 0.0
H895 H 0.66113 0.13005 0.84026 0.0
H896 H 0.66692 0.131 0.78579 0.0
H897 H 0.65212 0.11979 0.79834 0.0
H898 H 0.64313 0.08463 0.78658 0.0
H899 H 0.6303 0.07823 0.72169 0.0
H900 H 0.89311 0.52926 0.69472 0.0
H901 H 0.88688 0.5365 0.75761 0.0
H902 H 0.91989 0.56875 0.75538 0.0
H903 H 0.92627 0.56147 0.6927 0.0
H904 H 0.91363 0.55955 0.8397 0.0
H905 H 0.87641 0.56058 0.75968 0.0
H906 H 0.87555 0.54663 0.75541 0.0
H907 H 0.88727 0.55915 0.72831 0.0
C908 C 0.89902 0.53795 0.70723 0.0
C909 C 0.91018 0.5448 0.68844 0.0
C910 C 0.89541 0.54211 0.74315 0.0
C911 C 0.90283 0.55325 0.76095 0.0
C912 C 0.91397 0.56015 0.74213 0.0
H913 H 0.89619 0.59148 0.98691 0.0
H914 H 0.90343 0.5854 0.92328 0.0
C915 C 0.9176 0.55599 0.70617 0.0
C916 C 0.89914 0.5575 0.80024 0.0
H917 H 0.87773 0.56264 0.83832 0.0
C918 C 0.90583 0.56032 0.83928 0.0
C919 C 0.88895 0.5585 0.79982 0.0
C920 C 0.88168 0.55617 0.75845 0.0
C921 C 0.90246 0.5638 0.87812 0.0
C922 C 0.8922 0.56465 0.87783 0.0
C923 C 0.88557 0.56194 0.83867 0.0
C924 C 0.88808 0.56823 0.9178 0.0
C925 C 0.90973 0.56619 0.91952 0.0
C926 C 0.877 0.56067 0.93578 0.0
C927 C 0.87282 0.56414 0.97208 0.0
C928 C 0.87961 0.57529 0.9911 0.0
C929 C 0.89077 0.58281 0.97334 0.0
C930 C 0.89494 0.57932 0.93701 0.0
H931 H 0.91551 0.56235 0.91755 0.0
H932 H 0.91534 0.57578 0.92385 0.0
H933 H 0.90408 0.56265 0.94933 0.0
H934 H 0.87152 0.55209 0.92151 0.0
H935 H 0.86418 0.55814 0.98474 0.0
H936 H 0.56246 0.63948 0.3191 0.0
H937 H 0.56939 0.65296 0.25592 0.0
H938 H 0.5371 0.65365 0.25611 0.0
H939 H 0.53021 0.64035 0.31958 0.0
H940 H 0.5598 0.64965 0.17257 0.0
H941 H 0.561 0.68819 0.25089 0.0
H942 H 0.55974 0.67606 0.28285 0.0
H943 H 0.5471 0.67507 0.25619 0.0
C944 C 0.5569 0.64263 0.3061 0.0
C945 C 0.5458 0.63887 0.32467 0.0
C946 C 0.56086 0.65031 0.26983 0.0
C947 C 0.55385 0.65447 0.25146 0.0
C948 C 0.5428 0.6508 0.27018 0.0
H949 H 0.55861 0.69761 0.0255 0.0
H950 H 0.55239 0.68427 0.08896 0.0
C951 C 0.53884 0.64313 0.30645 0.0
C952 C 0.55786 0.66223 0.2116 0.0
H953 H 0.56287 0.68863 0.17226 0.0
C954 C 0.56055 0.65821 0.17262 0.0
C955 C 0.55883 0.6734 0.21148 0.0
C956 C 0.55663 0.6785 0.2527 0.0
C957 C 0.56391 0.66492 0.13342 0.0
C958 C 0.56479 0.67604 0.13323 0.0
C959 C 0.56216 0.68009 0.17226 0.0
C960 C 0.56842 0.68365 0.09301 0.0
C961 C 0.5662 0.65989 0.09221 0.0
C962 C 0.5795 0.68775 0.07387 0.0
C963 C 0.58307 0.69538 0.03744 0.0
C964 C 0.57567 0.69912 0.01945 0.0
C965 C 0.56452 0.69488 0.03831 0.0
C966 C 0.56096 0.68727 0.07475 0.0
H967 H 0.56225 0.65025 0.0945 0.0
H968 H 0.56269 0.66198 0.06229 0.0
H969 H 0.57577 0.66374 0.08784 0.0
H970 H 0.58551 0.68528 0.08778 0.0
H971 H 0.59175 0.69854 0.02401 0.0
H972 H 0.36553 0.89084 0.32245 0.0
H973 H 0.35233 0.88466 0.25859 0.0
H974 H 0.35386 0.91801 0.25776 0.0
H975 H 0.36702 0.92425 0.32198 0.0
H976 H 0.33105 0.89875 0.24561 0.0
H977 H 0.36264 0.89627 0.13119 0.0
H978 H 0.35989 0.8879 0.18121 0.0
H979 H 0.36693 0.90357 0.18422 0.0
C980 C 0.36301 0.89685 0.30893 0.0
C981 C 0.36739 0.90807 0.32731 0.0
C982 C 0.35552 0.89332 0.27214 0.0
C983 C 0.35227 0.90094 0.25272 0.0
C984 C 0.3563 0.912 0.27191 0.0
H985 H 0.30717 0.89468 0.028 0.0
H986 H 0.32053 0.90176 0.09148 0.0
C987 C 0.36382 0.91555 0.3087 0.0
C988 C 0.34472 0.89738 0.21234 0.0
H989 H 0.34334 0.88886 0.10424 0.0
C990 C 0.33376 0.89665 0.21461 0.0
C991 C 0.34824 0.89464 0.17184 0.0
C992 C 0.36011 0.89572 0.16664 0.0
C993 C 0.32611 0.89297 0.17796 0.0
C994 C 0.32962 0.89018 0.13746 0.0
C995 C 0.34062 0.89099 0.13516 0.0
C996 C 0.32192 0.88617 0.09742 0.0
C997 C 0.3142 0.89175 0.18344 0.0
C998 C 0.3186 0.87525 0.07823 0.0
C999 C 0.31106 0.87124 0.04158 0.0
C1000 C 0.30669 0.87807 0.02309 0.0
C1001 C 0.31031 0.88916 0.04149 0.0
C1002 C 0.31788 0.89318 0.0781 0.0
H1003 H 0.3117 0.89115 0.21895 0.0
H1004 H 0.31432 0.89955 0.16913 0.0
H1005 H 0.30741 0.88389 0.16588 0.0
H1006 H 0.32165 0.8697 0.09223 0.0
H1007 H 0.30847 0.86266 0.02831 0.0
H1008 H 0.1151 0.47653 0.31392 0.0
H1009 H 0.12109 0.46939 0.24988 0.0
H1010 H 0.08836 0.43689 0.25444 0.0
H1011 H 0.08222 0.44405 0.31815 0.0
H1012 H 0.12401 0.45032 0.23932 0.0
H1013 H 0.08928 0.44679 0.12607 0.0
H1014 H 0.09243 0.45439 0.17847 0.0
H1015 H 0.0839 0.4387 0.17677 0.0
C1016 C 0.10917 0.46784 0.30144 0.0
C1017 C 0.09814 0.46089 0.32111 0.0
C1018 C 0.11262 0.46377 0.26474 0.0
C1019 C 0.1051 0.45269 0.24664 0.0
C1020 C 0.09422 0.44558 0.26702 0.0
H1021 H 0.11194 0.4142 0.02319 0.0
H1022 H 0.10506 0.42056 0.0872 0.0
C1023 C 0.09075 0.44965 0.30374 0.0
C1024 C 0.10874 0.44859 0.20668 0.0
H1025 H 0.10128 0.43952 0.09919 0.0
C1026 C 0.11905 0.448 0.20867 0.0
C1027 C 0.10227 0.44553 0.16656 0.0
C1028 C 0.09141 0.44647 0.16151 0.0
C1029 C 0.12299 0.4443 0.17202 0.0
C1030 C 0.11656 0.44131 0.13184 0.0
C1031 C 0.10621 0.44182 0.12991 0.0
C1032 C 0.12051 0.43768 0.09148 0.0
C1033 C 0.13389 0.44343 0.17697 0.0
C1034 C 0.13133 0.44529 0.07166 0.0
C1035 C 0.13527 0.44169 0.03501 0.0
C1036 C 0.12844 0.4304 0.01715 0.0
C1037 C 0.11742 0.42294 0.03608 0.0
C1038 C 0.11348 0.42656 0.07275 0.0
H1039 H 0.13597 0.44299 0.21238 0.0
H1040 H 0.13295 0.4356 0.15954 0.0
H1041 H 0.14139 0.45128 0.16212 0.0
H1042 H 0.1368 0.454 0.08481 0.0
H1043 H 0.14377 0.44769 0.02122 0.0
H1044 H 0.08174 0.63954 0.31835 0.0
H1045 H 0.08793 0.65268 0.25408 0.0
H1046 H 0.12099 0.65357 0.25267 0.0
H1047 H 0.11485 0.64039 0.31656 0.0
H1048 H 0.10735 0.6753 0.24152 0.0
H1049 H 0.10893 0.64348 0.12571 0.0
H1050 H 0.1018 0.63925 0.17907 0.0
H1051 H 0.11744 0.64609 0.17523 0.0
C1052 C 0.09036 0.64259 0.30454 0.0
C1053 C 0.09777 0.63885 0.32254 0.0
C1054 C 0.09388 0.65009 0.26773 0.0
C1055 C 0.10484 0.65395 0.24792 0.0
C1056 C 0.11239 0.65052 0.2667 0.0
H1057 H 0.14295 0.69776 0.02337 0.0
H1058 H 0.13593 0.68451 0.0871 0.0
C1059 C 0.1089 0.64304 0.30351 0.0
C1060 C 0.10838 0.66152 0.20763 0.0
H1061 H 0.11655 0.66284 0.09909 0.0
C1062 C 0.10929 0.67256 0.2103 0.0
C1063 C 0.11093 0.65795 0.16683 0.0
C1064 C 0.10964 0.64601 0.16122 0.0
C1065 C 0.11297 0.68022 0.17373 0.0
C1066 C 0.11556 0.67667 0.13295 0.0
C1067 C 0.11457 0.66559 0.13024 0.0
C1068 C 0.11955 0.68439 0.093 0.0
C1069 C 0.11438 0.6922 0.17958 0.0
C1070 C 0.11257 0.68853 0.07416 0.0
C1071 C 0.11658 0.69613 0.03766 0.0
C1072 C 0.12762 0.69969 0.01893 0.0
C1073 C 0.13441 0.69522 0.03692 0.0
C1074 C 0.13041 0.68764 0.07345 0.0
H1075 H 0.11508 0.69469 0.21514 0.0
H1076 H 0.12225 0.69894 0.1619 0.0
H1077 H 0.10662 0.69222 0.1656 0.0
H1078 H 0.10404 0.68593 0.08784 0.0
H1079 H 0.11109 0.69935 0.02455 0.0
H1080 H 0.36663 0.44377 0.32147 0.0
H1081 H 0.3534 0.43672 0.25746 0.0
H1082 H 0.35237 0.46881 0.25612 0.0
H1083 H 0.36564 0.47595 0.31977 0.0
H1084 H 0.33074 0.43339 0.24505 0.0
H1085 H 0.36245 0.46685 0.1291 0.0
H1086 H 0.36672 0.464 0.18246 0.0
H1087 H 0.35981 0.47273 0.17864 0.0
C1088 C 0.36353 0.4493 0.30775 0.0
C1089 C 0.36726 0.46046 0.32567 0.0
C1090 C 0.35598 0.44526 0.27109 0.0
C1091 C 0.35206 0.45232 0.25136 0.0
C1092 C 0.35547 0.4633 0.2701 0.0
H1093 H 0.30825 0.44635 0.02666 0.0
H1094 H 0.32143 0.45259 0.09055 0.0
C1095 C 0.363 0.46734 0.30676 0.0
C1096 C 0.34447 0.44824 0.21111 0.0
H1097 H 0.34311 0.45498 0.1025 0.0
C1098 C 0.33346 0.43807 0.2138 0.0
C1099 C 0.34802 0.45434 0.17027 0.0
C1100 C 0.35993 0.46503 0.16462 0.0
C1101 C 0.3258 0.43401 0.17723 0.0
C1102 C 0.32933 0.44014 0.13641 0.0
C1103 C 0.34038 0.45027 0.13368 0.0
C1104 C 0.3216 0.43636 0.09646 0.0
C1105 C 0.31385 0.42339 0.1831 0.0
C1106 C 0.3175 0.42525 0.0776 0.0
C1107 C 0.30993 0.42164 0.04097 0.0
C1108 C 0.30637 0.42911 0.02217 0.0
C1109 C 0.31079 0.44037 0.04026 0.0
C1110 C 0.31833 0.44395 0.07689 0.0
H1111 H 0.31137 0.42161 0.21866 0.0
H1112 H 0.30708 0.42448 0.16541 0.0
H1113 H 0.31388 0.41564 0.16913 0.0
H1114 H 0.3201 0.41932 0.09132 0.0
H1115 H 0.30674 0.41294 0.0278 0.0
H1116 H 0.53066 0.89089 0.32281 0.0
H1117 H 0.53771 0.88467 0.25913 0.0
H1118 H 0.56949 0.91809 0.25798 0.0
H1119 H 0.56253 0.92435 0.32196 0.0
H1120 H 0.54344 0.89505 0.17513 0.0
H1121 H 0.58169 0.8951 0.25149 0.0
H1122 H 0.57037 0.89538 0.28413 0.0
H1123 H 0.58147 0.9085 0.25808 0.0
C1124 C 0.53922 0.89687 0.30944 0.0
C1125 C 0.54605 0.90811 0.3277 0.0
C1126 C 0.54322 0.89331 0.27287 0.0
C1127 C 0.55418 0.90085 0.2539 0.0
C1128 C 0.5611 0.91202 0.27244 0.0
H1129 H 0.59199 0.89451 0.02709 0.0
H1130 H 0.58553 0.90158 0.09013 0.0
C1131 C 0.55709 0.91561 0.30899 0.0
C1132 C 0.55811 0.8972 0.2136 0.0
H1133 H 0.57952 0.8923 0.17367 0.0
C1134 C 0.55131 0.89441 0.17487 0.0
C1135 C 0.56842 0.89643 0.21307 0.0
C1136 C 0.57588 0.8989 0.25397 0.0
C1137 C 0.55459 0.89101 0.13562 0.0
C1138 C 0.56484 0.89012 0.13518 0.0
C1139 C 0.57168 0.89299 0.17386 0.0
C1140 C 0.56851 0.88603 0.09532 0.0
C1141 C 0.54715 0.88865 0.0947 0.0
C1142 C 0.56111 0.87493 0.07703 0.0
C1143 C 0.56476 0.8709 0.04081 0.0
C1144 C 0.57594 0.87782 0.02224 0.0
C1145 C 0.5833 0.88897 0.04036 0.0
C1146 C 0.57964 0.89301 0.07656 0.0
H1147 H 0.54183 0.89301 0.09653 0.0
H1148 H 0.55261 0.89168 0.06427 0.0
H1149 H 0.54106 0.87911 0.09173 0.0
H1150 H 0.55259 0.86926 0.09141 0.0
H1151 H 0.5589 0.86223 0.02804 0.0
H1152 H 0.19098 0.96685 0.89135 0.0
H1153 H 0.20032 0.9815 0.94928 0.0
H1154 H 0.23423 0.99065 0.89696 0.0
H1155 H 0.22484 0.97602 0.83785 0.0
H1156 H 0.21495 0.9815 0.01353 0.0
H1157 H 0.2371 0.02255 0.91492 0.0
H1158 H 0.22598 0.0089 0.89156 0.0
H1159 H 0.24053 0.01146 0.89971 0.0
C1160 C 0.20043 0.9721 0.89161 0.0
C1161 C 0.20717 0.97026 0.85992 0.0
C1162 C 0.20576 0.98045 0.92495 0.0
C1163 C 0.21797 0.98718 0.92766 0.0
C1164 C 0.22478 0.98567 0.89525 0.0
H1165 H 0.24977 0.02827 0.1731 0.0
H1166 H 0.24444 0.01349 0.11447 0.0
C1167 C 0.21941 0.97733 0.86142 0.0
C1168 C 0.22336 0.99537 0.96563 0.0
H1169 H 0.2395 0.02431 0.99244 0.0
C1170 C 0.22042 0.99086 0.00895 0.0
C1171 C 0.23047 0.00757 0.95963 0.0
C1172 C 0.23366 0.01297 0.91401 0.0
C1173 C 0.22404 0.99824 0.04629 0.0
C1174 C 0.23095 0.01045 0.04023 0.0
C1175 C 0.23424 0.01493 0.99702 0.0
C1176 C 0.23384 0.01883 0.07753 0.0
C1177 C 0.21996 0.99295 0.09172 0.0
C1178 C 0.22959 0.02665 0.0765 0.0
C1179 C 0.23262 0.03504 0.10964 0.0
C1180 C 0.24002 0.03589 0.1448 0.0
C1181 C 0.24399 0.0278 0.14673 0.0
C1182 C 0.24096 0.01937 0.1132 0.0
H1183 H 0.21301 0.98362 0.08997 0.0
H1184 H 0.22746 0.9935 0.11038 0.0
H1185 H 0.21658 0.99784 0.11068 0.0
H1186 H 0.22401 0.02635 0.04957 0.0
H1187 H 0.22931 0.04105 0.10711 0.0
H1188 H 0.95787 0.19795 0.08566 0.0
H1189 H 0.97334 0.20716 0.03077 0.0
H1190 H 0.99823 0.2261 0.13424 0.0
H1191 H 0.98262 0.21687 0.19026 0.0
H1192 H 0.98959 0.23266 0.01535 0.0
H1193 H 0.01097 0.20701 0.06205 0.0
H1194 H 0.99601 0.20233 0.07664 0.0
H1195 H 0.00774 0.21427 0.10572 0.0
C1196 C 0.96661 0.20406 0.09712 0.0
C1197 C 0.969 0.20657 0.14266 0.0
C1198 C 0.97544 0.20937 0.06546 0.0
C1199 C 0.98692 0.21725 0.07839 0.0
C1200 C 0.9894 0.21997 0.12365 0.0
H1201 H 0.05096 0.24706 0.9271 0.0
H1202 H 0.036 0.2412 0.98379 0.0
C1203 C 0.98049 0.21472 0.15558 0.0
C1204 C 0.99623 0.22223 0.04411 0.0
H1205 H 0.01903 0.22 1.00223 0.0
C1206 C 0.99611 0.22999 0.01255 0.0
C1207 C 0.00461 0.21862 0.0404 0.0
C1208 C 0.00489 0.21005 0.07273 0.0
C1209 C 0.00427 0.23437 0.97764 0.0
C1210 C 0.01257 0.23062 0.97348 0.0
C1211 C 0.01267 0.22287 1.00524 0.0
C1212 C 0.02156 0.2349 0.93766 0.0
C1213 C 0.00408 0.24315 0.9462 0.0
C1214 C 0.01851 0.23346 0.89236 0.0
C1215 C 0.02716 0.23698 0.85939 0.0
C1216 C 0.03897 0.24174 0.87128 0.0
C1217 C 0.04194 0.24327 0.91661 0.0
C1218 C 0.03338 0.23994 0.94924 0.0
H1219 H 0.99954 0.24751 0.96097 0.0
H1220 H 0.01307 0.24995 0.9367 0.0
H1221 H 0.99929 0.23858 0.91562 0.0
H1222 H 0.00943 0.22937 0.88248 0.0
H1223 H 0.02458 0.23563 0.82481 0.0
H1224 H 0.76122 0.8062 0.92689 0.0
H1225 H 0.76775 0.79723 0.98181 0.0
H1226 H 0.77629 0.7804 0.87769 0.0
H1227 H 0.76963 0.78938 0.82168 0.0
H1228 H 0.76001 0.7716 0.99356 0.0
H1229 H 0.80718 0.80104 0.9554 0.0
H1230 H 0.79618 0.80475 0.94075 0.0
H1231 H 0.79734 0.79379 0.90984 0.0
C1232 C 0.76447 0.80059 0.91534 0.0
C1233 C 0.76502 0.79862 0.86965 0.0
C1234 C 0.76813 0.79541 0.94698 0.0
C1235 C 0.77255 0.78822 0.93386 0.0
C1236 C 0.77294 0.78599 0.88842 0.0
H1237 H 0.80912 0.76101 0.08493 0.0
H1238 H 0.79998 0.76682 0.02837 0.0
C1239 C 0.76912 0.7911 0.8565 0.0
C1240 C 0.77715 0.78352 0.96817 0.0
H1241 H 0.80259 0.78761 0.01345 0.0
C1242 C 0.76931 0.77501 0.99783 0.0
C1243 C 0.78928 0.78808 0.97383 0.0
C1244 C 0.79805 0.79747 0.94355 0.0
C1245 C 0.77329 0.7708 0.0327 0.0
C1246 C 0.78546 0.77549 0.03881 0.0
C1247 C 0.79327 0.78402 0.00897 0.0
C1248 C 0.79038 0.7714 0.07449 0.0
C1249 C 0.76441 0.7612 0.06196 0.0
C1250 C 0.788 0.77195 0.11974 0.0
C1251 C 0.79319 0.76848 0.15267 0.0
C1252 C 0.80101 0.76463 0.14086 0.0
C1253 C 0.80327 0.76406 0.09551 0.0
C1254 C 0.79802 0.76737 0.0629 0.0
H1255 H 0.7557 0.75642 0.04573 0.0
H1256 H 0.76724 0.75483 0.07066 0.0
H1257 H 0.76341 0.76508 0.09313 0.0
H1258 H 0.78234 0.77527 0.12967 0.0
H1259 H 0.79129 0.76907 0.18723 0.0
H1260 H 0.75811 0.97647 0.84109 0.0
H1261 H 0.76365 0.9912 0.89993 0.0
H1262 H 0.78435 0.97834 0.96264 0.0
H1263 H 0.77876 0.96361 0.90498 0.0
H1264 H 0.76985 0.98056 0.02159 0.0
H1265 H 0.79453 0.02115 0.92195 0.0
H1266 H 0.77985 0.01132 0.90374 0.0
H1267 H 0.79068 0.00693 0.90044 0.0
C1268 C 0.764 0.97693 0.86703 0.0
C1269 C 0.76796 0.96883 0.86831 0.0
C1270 C 0.76715 0.98534 0.90068 0.0
C1271 C 0.77443 0.9859 0.93577 0.0
C1272 C 0.77866 0.97805 0.93618 0.0
H1273 H 0.81754 0.03924 0.11801 0.0
H1274 H 0.80825 0.02443 0.06064 0.0
C1275 C 0.77547 0.96964 0.90298 0.0
C1276 C 0.77752 0.99434 0.97304 0.0
H1277 H 0.79274 0.02342 0.9985 0.0
C1278 C 0.77478 0.98995 0.01656 0.0
C1279 C 0.78399 0.00657 0.96646 0.0
C1280 C 0.78754 0.01183 0.92071 0.0
C1281 C 0.77863 0.99741 0.05365 0.0
C1282 C 0.78524 0.00963 0.04708 0.0
C1283 C 0.78765 0.01404 1.00352 0.0
C1284 C 0.79064 0.018 0.08456 0.0
C1285 C 0.77606 0.99212 0.0995 0.0
C1286 C 0.78386 0.01917 0.118 0.0
C1287 C 0.7892 0.02762 0.1515 0.0
C1288 C 0.80139 0.03513 0.15165 0.0
C1289 C 0.80812 0.03366 0.11882 0.0
C1290 C 0.80282 0.02521 0.0858 0.0
H1291 H 0.77307 0.98262 0.09872 0.0
H1292 H 0.78392 0.99656 0.12099 0.0
H1293 H 0.76904 0.99323 0.11484 0.0
H1294 H 0.77443 0.01381 0.11745 0.0
H1295 H 0.78376 0.02861 0.176 0.0
H1296 H 0.02817 0.7836 0.83649 0.0
H1297 H 0.01274 0.7743 0.89302 0.0
H1298 H 0.02667 0.80719 0.96192 0.0
H1299 H 0.04187 0.8165 0.90607 0.0
H1300 H 0.01588 0.77326 0.98822 0.0
H1301 H 0.99174 0.79638 0.94773 0.0
H1302 H 1.00196 0.79571 0.90976 0.0
H1303 H 0.00717 0.80595 0.95503 0.0
C1304 C 0.02782 0.78888 0.8633 0.0
C1305 C 0.03626 0.80081 0.86657 0.0
C1306 C 0.01906 0.78354 0.89575 0.0
C1307 C 0.01853 0.79008 0.93156 0.0
C1308 C 0.02682 0.802 0.93438 0.0
H1309 H 0.98222 0.76846 0.18809 0.0
H1310 H 0.9972 0.77526 0.12941 0.0
C1311 C 0.03554 0.8073 0.90232 0.0
C1312 C 0.00949 0.78458 0.96673 0.0
H1313 H 0.98736 0.78649 0.01703 0.0
C1314 C 0.00956 0.77605 0.99437 0.0
C1315 C 1.00125 0.78823 0.97465 0.0
C1316 C 1.00042 0.79699 0.94501 0.0
C1317 C 1.00171 0.77122 0.03019 0.0
C1318 C 0.99371 0.77514 0.03887 0.0
C1319 C 0.99357 0.78356 0.01075 0.0
C1320 C 0.98487 0.77023 0.07509 0.0
C1321 C 1.00192 0.76184 0.05797 0.0
C1322 C 0.97301 0.76518 0.06423 0.0
C1323 C 0.96455 0.76148 0.09738 0.0
C1324 C 0.96767 0.7627 0.14256 0.0
C1325 C 0.97953 0.76739 0.15366 0.0
C1326 C 0.98808 0.77122 0.12013 0.0
H1327 H 0.00659 0.7579 0.04095 0.0
H1328 H 0.00652 0.76573 0.08963 0.0
H1329 H 0.99291 0.7548 0.066 0.0
H1330 H 0.97029 0.76426 0.02984 0.0
H1331 H 0.9555 0.75775 0.0874 0.0
H1332 H 0.25437 0.20592 0.0893 0.0
H1333 H 0.24826 0.21474 0.03209 0.0
H1334 H 0.22796 0.22104 0.12891 0.0
H1335 H 0.23454 0.21259 0.1871 0.0
H1336 H 0.22719 0.2068 1.00228 0.0
H1337 H 0.24291 0.25163 0.06507 0.0
H1338 H 0.24757 0.24211 0.08895 0.0
H1339 H 0.23369 0.2406 0.10412 0.0
C1340 C 0.24875 0.20936 0.09861 0.0
C1341 C 0.2449 0.20854 0.14267 0.0
C1342 C 0.24525 0.2144 0.0658 0.0
C1343 C 0.23768 0.21864 0.07595 0.0
C1344 C 0.23402 0.21809 0.12026 0.0
H1345 H 0.19423 0.23612 0.92236 0.0
H1346 H 0.20415 0.2308 0.97737 0.0
C1347 C 0.23772 0.21322 0.15352 0.0
C1348 C 0.23303 0.22274 0.03928 0.0
H1349 H 0.22933 0.24533 1.00472 0.0
C1350 C 0.22781 0.21529 1.00267 0.0
C1351 C 0.23383 0.23384 0.03951 0.0
C1352 C 0.23991 0.24255 0.0763 0.0
C1353 C 0.22315 0.2185 0.96704 0.0
C1354 C 0.22369 0.22944 0.96789 0.0
C1355 C 0.22898 0.23695 1.00412 0.0
C1356 C 0.21792 0.2328 0.9333 0.0
C1357 C 0.21733 0.21003 0.9293 0.0
C1358 C 0.22237 0.23567 0.88988 0.0
C1359 C 0.2167 0.2388 0.85784 0.0
C1360 C 0.20645 0.23903 0.86873 0.0
C1361 C 0.20205 0.23603 0.91234 0.0
C1362 C 0.20775 0.23302 0.94415 0.0
H1363 H 0.2165 0.20138 0.93593 0.0
H1364 H 0.20849 0.20878 0.92309 0.0
H1365 H 0.22255 0.21367 0.8986 0.0
H1366 H 0.23027 0.23559 0.88094 0.0
H1367 H 0.22036 0.24109 0.82476 0.0
H1368 H 0.91153 0.38249 0.41786 0.0
H1369 H 0.90473 0.3673 0.36189 0.0
H1370 H 0.89895 0.34177 0.46243 0.0
H1371 H 0.90597 0.35717 0.51973 0.0
H1372 H 0.90971 0.33988 0.37956 0.0
H1373 H 0.86976 0.34268 0.34988 0.0
H1374 H 0.88304 0.35652 0.34692 0.0
H1375 H 0.87872 0.34872 0.39869 0.0
C1376 C 0.90881 0.37366 0.42853 0.0
C1377 C 0.90911 0.37104 0.47368 0.0
C1378 C 0.90493 0.36498 0.39623 0.0
C1379 C 0.90112 0.35338 0.408 0.0
C1380 C 0.90179 0.35069 0.45271 0.0
H1381 H 0.85712 0.29428 0.2435 0.0
H1382 H 0.86614 0.30908 0.30058 0.0
C1383 C 0.90577 0.35947 0.48539 0.0
C1384 C 0.89607 0.34417 0.37326 0.0
H1385 H 0.87416 0.33223 0.29645 0.0
C1386 C 0.90189 0.33812 0.36155 0.0
C1387 C 0.88584 0.34187 0.34989 0.0
C1388 C 0.8789 0.3477 0.36217 0.0
C1389 C 0.89784 0.32994 0.32655 0.0
C1390 C 0.88781 0.32792 0.3023 0.0
C1391 C 0.88194 0.33388 0.31455 0.0
C1392 C 0.88264 0.31901 0.26641 0.0
C1393 C 0.90417 0.32337 0.31639 0.0
C1394 C 0.88884 0.31974 0.22741 0.0
C1395 C 0.88366 0.31117 0.19416 0.0
C1396 C 0.87219 0.30176 0.19941 0.0
C1397 C 0.86599 0.30131 0.23813 0.0
C1398 C 0.87114 0.3098 0.27104 0.0
H1399 H 0.91004 0.32401 0.34397 0.0
H1400 H 0.89787 0.314 0.3099 0.0
H1401 H 0.90958 0.32712 0.28618 0.0
H1402 H 0.89765 0.32692 0.22263 0.0
H1403 H 0.88868 0.3118 0.16484 0.0
H1404 H 0.71729 0.57951 0.26064 0.0
H1405 H 0.70186 0.57306 0.31594 0.0
H1406 H 0.67623 0.56363 0.21225 0.0
H1407 H 0.69179 0.57022 0.15588 0.0
H1408 H 0.68346 0.58039 0.32653 0.0
H1409 H 0.66688 0.53321 0.29253 0.0
H1410 H 0.6815 0.5444 0.27757 0.0
H1411 H 0.66926 0.54274 0.2461 0.0
C1412 C 0.70839 0.57609 0.24929 0.0
C1413 C 0.70577 0.57526 0.20363 0.0
C1414 C 0.69959 0.57247 0.28112 0.0
C1415 C 0.68792 0.56782 0.26823 0.0
C1416 C 0.68521 0.56717 0.2228 0.0
H1417 H 0.62424 0.53091 0.41902 0.0
H1418 H 0.63925 0.54002 0.36274 0.0
C1419 C 0.69409 0.57095 0.19068 0.0
C1420 C 0.67867 0.56321 0.30273 0.0
H1421 H 0.65778 0.53778 0.3497 0.0
C1422 C 0.67777 0.57108 0.33154 0.0
C1423 C 0.67138 0.55108 0.30936 0.0
C1424 C 0.67227 0.5423 0.28004 0.0
C1425 C 0.66958 0.56711 0.36644 0.0
C1426 C 0.66236 0.55494 0.37344 0.0
C1427 C 0.66333 0.54711 0.34452 0.0
C1428 C 0.6533 0.55002 0.40895 0.0
C1429 C 0.66858 0.57598 0.39474 0.0
C1430 C 0.65611 0.55262 0.45417 0.0
C1431 C 0.64741 0.54744 0.48696 0.0
C1432 C 0.6358 0.53941 0.47506 0.0
C1433 C 0.63308 0.53693 0.42972 0.0
C1434 C 0.64168 0.54216 0.39725 0.0
H1435 H 0.67239 0.58461 0.37797 0.0
H1436 H 0.65931 0.57299 0.40298 0.0
H1437 H 0.67342 0.57721 0.4262 0.0
H1438 H 0.66506 0.55847 0.4642 0.0
H1439 H 0.64981 0.54951 0.52151 0.0
H1440 H 0.42667 0.11699 0.16417 0.0
H1441 H 0.43271 0.10794 0.22197 0.0
H1442 H 0.44984 0.14063 0.2931 0.0
H1443 H 0.44413 0.1497 0.23591 0.0
H1444 H 0.46336 0.13062 0.28776 0.0
H1445 H 0.41885 0.09842 0.34739 0.0
H1446 H 0.42134 0.09772 0.28911 0.0
H1447 H 0.4216 0.11045 0.31138 0.0
C1448 C 0.43182 0.12225 0.19192 0.0
C1449 C 0.43484 0.13406 0.19537 0.0
C1450 C 0.43514 0.11704 0.22521 0.0
C1451 C 0.44153 0.12355 0.26239 0.0
C1452 C 0.44483 0.13539 0.26502 0.0
H1453 H 0.45765 0.10235 0.51751 0.0
H1454 H 0.4492 0.1092 0.45985 0.0
C1455 C 0.44154 0.14057 0.23209 0.0
C1456 C 0.44512 0.11832 0.29849 0.0
H1457 H 0.43475 0.09772 0.38086 0.0
C1458 C 0.45708 0.12342 0.30803 0.0
C1459 C 0.43693 0.10906 0.32554 0.0
C1460 C 0.42395 0.10363 0.31826 0.0
C1461 C 0.4611 0.11948 0.34343 0.0
C1462 C 0.45296 0.11 0.36968 0.0
C1463 C 0.44097 0.10496 0.36064 0.0
C1464 C 0.45693 0.1049 0.40486 0.0
C1465 C 0.47406 0.1256 0.35273 0.0
C1466 C 0.46372 0.09992 0.39299 0.0
C1467 C 0.46857 0.09614 0.42546 0.0
C1468 C 0.46668 0.09713 0.47088 0.0
C1469 C 0.45933 0.10155 0.48289 0.0
C1470 C 0.45451 0.10544 0.45002 0.0
H1471 H 0.47869 0.13451 0.33807 0.0
H1472 H 0.47581 0.12632 0.38896 0.0
H1473 H 0.47779 0.12049 0.33785 0.0
H1474 H 0.46549 0.09918 0.35839 0.0
H1475 H 0.47395 0.09255 0.41479 0.0
H1476 H 0.44745 0.29928 0.23501 0.0
H1477 H 0.45253 0.31386 0.29301 0.0
H1478 H 0.43034 0.3252 0.23229 0.0
H1479 H 0.42529 0.3106 0.17313 0.0
H1480 H 0.4511 0.34362 0.2623 0.0
H1481 H 0.43102 0.31055 0.39496 0.0
H1482 H 0.44146 0.30862 0.36359 0.0
H1483 H 0.42848 0.30683 0.33682 0.0
C1484 C 0.44368 0.3049 0.23366 0.0
C1485 C 0.43585 0.30367 0.19958 0.0
C1486 C 0.44652 0.31318 0.26717 0.0
C1487 C 0.44152 0.32036 0.26791 0.0
C1488 C 0.43417 0.31962 0.23275 0.0
H1489 H 0.45092 0.36254 0.50899 0.0
H1490 H 0.44163 0.34793 0.44968 0.0
C1491 C 0.43135 0.31133 0.19882 0.0
C1492 C 0.44414 0.32864 0.30542 0.0
H1493 H 0.44483 0.33011 0.41879 0.0
C1494 C 0.44958 0.34066 0.29648 0.0
C1495 C 0.44191 0.32479 0.35012 0.0
C1496 C 0.43528 0.31198 0.36196 0.0
C1497 C 0.45349 0.34892 0.33099 0.0
C1498 C 0.45214 0.34509 0.37566 0.0
C1499 C 0.44605 0.33307 0.38462 0.0
C1500 C 0.45765 0.35344 0.41309 0.0
C1501 C 0.45912 0.36171 0.31917 0.0
C1502 C 0.46978 0.36103 0.41326 0.0
C1503 C 0.47507 0.36932 0.44684 0.0
C1504 C 0.46839 0.37016 0.48155 0.0
C1505 C 0.45631 0.36213 0.48279 0.0
C1506 C 0.45099 0.35383 0.44878 0.0
H1507 H 0.45604 0.36295 0.28642 0.0
H1508 H 0.45727 0.36665 0.3446 0.0
H1509 H 0.46873 0.36547 0.317 0.0
H1510 H 0.47518 0.36065 0.38699 0.0
H1511 H 0.48442 0.37523 0.44509 0.0
H1512 H 0.69711 0.11446 0.17001 0.0
H1513 H 0.68236 0.10487 0.22863 0.0
H1514 H 0.69387 0.13832 0.29052 0.0
H1515 H 0.70857 0.14785 0.23308 0.0
H1516 H 0.69233 0.12177 0.34993 0.0
H1517 H 0.65168 0.10472 0.24966 0.0
H1518 H 0.66201 0.10049 0.23177 0.0
H1519 H 0.66578 0.11554 0.22851 0.0
C1520 C 0.69635 0.11977 0.19573 0.0
C1521 C 0.70406 0.13192 0.19686 0.0
C1522 C 0.68792 0.11428 0.22926 0.0
C1523 C 0.68701 0.12088 0.26407 0.0
C1524 C 0.69446 0.13302 0.26429 0.0
H1525 H 0.6339 0.11121 0.44472 0.0
H1526 H 0.64861 0.11625 0.38735 0.0
C1527 C 0.70286 0.13847 0.23121 0.0
C1528 C 0.67857 0.11534 0.30125 0.0
H1529 H 0.64947 0.1012 0.32646 0.0
C1530 C 0.68295 0.11715 0.34483 0.0
C1531 C 0.66634 0.10937 0.29455 0.0
C1532 C 0.66111 0.10745 0.24869 0.0
C1533 C 0.67546 0.11355 0.38185 0.0
C1534 C 0.66324 0.1078 0.37516 0.0
C1535 C 0.65885 0.10559 0.33156 0.0
C1536 C 0.65486 0.10503 0.41247 0.0
C1537 C 0.68072 0.11647 0.42775 0.0
C1538 C 0.65362 0.09721 0.44656 0.0
C1539 C 0.6452 0.09437 0.48005 0.0
C1540 C 0.63782 0.09919 0.47958 0.0
C1541 C 0.63937 0.10725 0.44604 0.0
C1542 C 0.64777 0.11013 0.413 0.0
H1543 H 0.69023 0.1229 0.42695 0.0
H1544 H 0.67631 0.12006 0.44855 0.0
H1545 H 0.67949 0.10838 0.44388 0.0
H1546 H 0.6589 0.09306 0.44658 0.0
H1547 H 0.64416 0.08804 0.50512 0.0
H1548 H 0.89485 0.52235 0.44526 0.0
H1549 H 0.88962 0.53174 0.38738 0.0
H1550 H 0.91141 0.56531 0.4486 0.0
H1551 H 0.91661 0.55587 0.50766 0.0
H1552 H 0.89048 0.56262 0.4185 0.0
H1553 H 0.9111 0.55027 0.28577 0.0
H1554 H 0.90079 0.53778 0.31697 0.0
H1555 H 0.91366 0.54911 0.3439 0.0
C1556 C 0.89851 0.53173 0.44675 0.0
C1557 C 0.90627 0.53837 0.48093 0.0
C1558 C 0.89557 0.53711 0.41331 0.0
C1559 C 0.90042 0.54927 0.41275 0.0
C1560 C 0.9077 0.55591 0.448 0.0
H1561 H 0.89035 0.5816 0.17192 0.0
H1562 H 0.89982 0.5765 0.23119 0.0
C1563 C 0.91061 0.55051 0.48187 0.0
C1564 C 0.8977 0.55487 0.37531 0.0
H1565 H 0.89703 0.55566 0.26196 0.0
C1566 C 0.89206 0.56124 0.38431 0.0
C1567 C 0.9 0.55332 0.3306 0.0
C1568 C 0.90684 0.54736 0.31872 0.0
C1569 C 0.88803 0.56548 0.34984 0.0
C1570 C 0.88946 0.56307 0.30515 0.0
C1571 C 0.89574 0.55733 0.29614 0.0
C1572 C 0.88384 0.56577 0.26773 0.0
C1573 C 0.88218 0.57242 0.36172 0.0
C1574 C 0.87168 0.56104 0.26753 0.0
C1575 C 0.8663 0.56392 0.23397 0.0
C1576 C 0.8729 0.5715 0.1993 0.0
C1577 C 0.88502 0.57573 0.19808 0.0
C1578 C 0.89044 0.57288 0.23207 0.0
H1579 H 0.8852 0.57677 0.39448 0.0
H1580 H 0.88391 0.57919 0.33632 0.0
H1581 H 0.87259 0.56643 0.36387 0.0
H1582 H 0.86634 0.55521 0.29378 0.0
H1583 H 0.85692 0.56034 0.23569 0.0
H1584 H 0.54958 0.64831 0.48893 0.0
H1585 H 0.55856 0.66381 0.54556 0.0
H1586 H 0.54318 0.63794 0.6489 0.0
H1587 H 0.53419 0.62258 0.59337 0.0
H1588 H 0.54425 0.66702 0.61816 0.0
H1589 H 0.57901 0.65886 0.68203 0.0
H1590 H 0.57294 0.65459 0.6269 0.0
H1591 H 0.56479 0.64622 0.67413 0.0
C1592 C 0.54822 0.64594 0.52371 0.0
C1593 C 0.5411 0.63421 0.53653 0.0
C1594 C 0.55334 0.65478 0.55598 0.0
C1595 C 0.55161 0.65198 0.6014 0.0
C1596 C 0.54474 0.64028 0.6141 0.0
H1597 H 0.57056 0.69013 0.85372 0.0
H1598 H 0.56397 0.6749 0.79606 0.0
C1599 C 0.53953 0.63151 0.58215 0.0
C1600 C 0.55627 0.66121 0.63601 0.0
H1601 H 0.57516 0.67179 0.72378 0.0
C1602 C 0.5511 0.66816 0.64097 0.0
C1603 C 0.565 0.66247 0.66632 0.0
C1604 C 0.57085 0.65521 0.66214 0.0
C1605 C 0.55431 0.67626 0.67582 0.0
C1606 C 0.5632 0.6777 0.70584 0.0
C1607 C 0.56836 0.6707 0.70088 0.0
C1608 C 0.56757 0.6868 0.74115 0.0
C1609 C 0.54789 0.68297 0.68081 0.0
C1610 C 0.57208 0.69854 0.72945 0.0
C1611 C 0.57569 0.70714 0.76203 0.0
C1612 C 0.57509 0.70431 0.80738 0.0
C1613 C 0.57106 0.6926 0.81919 0.0
C1614 C 0.5673 0.6839 0.78627 0.0
H1615 H 0.53912 0.67829 0.665 0.0
H1616 H 0.54678 0.68448 0.71628 0.0
H1617 H 0.55296 0.69158 0.66422 0.0
H1618 H 0.57276 0.70107 0.69492 0.0
H1619 H 0.579 0.71609 0.75144 0.0
H1620 H 0.31644 0.88221 0.85865 0.0
H1621 H 0.33192 0.89145 0.80208 0.0
H1622 H 0.30606 0.87619 0.69863 0.0
H1623 H 0.29072 0.86697 0.75409 0.0
H1624 H 0.33551 0.87765 0.73041 0.0
H1625 H 0.32657 0.91168 0.66456 0.0
H1626 H 0.32209 0.90549 0.71942 0.0
H1627 H 0.31403 0.89735 0.67159 0.0
C1628 C 0.31407 0.88095 0.82386 0.0
C1629 C 0.30235 0.87378 0.81097 0.0
C1630 C 0.3229 0.88621 0.79162 0.0
C1631 C 0.3201 0.88458 0.74617 0.0
C1632 C 0.3084 0.87768 0.73343 0.0
H1633 H 0.358 0.90269 0.49334 0.0
H1634 H 0.34281 0.89633 0.55117 0.0
C1635 C 0.29965 0.87234 0.76535 0.0
C1636 C 0.32933 0.88931 0.71155 0.0
H1637 H 0.3395 0.90783 0.62261 0.0
C1638 C 0.33649 0.88435 0.70714 0.0
C1639 C 0.33038 0.89784 0.68065 0.0
C1640 C 0.32293 0.90349 0.68426 0.0
C1641 C 0.34458 0.88756 0.67223 0.0
C1642 C 0.34577 0.89623 0.64156 0.0
C1643 C 0.33858 0.90119 0.646 0.0
C1644 C 0.35483 0.90059 0.60612 0.0
C1645 C 0.35152 0.88137 0.66789 0.0
C1646 C 0.36662 0.90542 0.61778 0.0
C1647 C 0.37519 0.9089 0.58515 0.0
C1648 C 0.37227 0.90784 0.53977 0.0
C1649 C 0.36052 0.90354 0.52793 0.0
C1650 C 0.35185 0.89991 0.56092 0.0
H1651 H 0.34705 0.87269 0.68444 0.0
H1652 H 0.35299 0.88011 0.63254 0.0
H1653 H 0.36015 0.88669 0.68409 0.0
H1654 H 0.3692 0.90641 0.65234 0.0
H1655 H 0.38417 0.91243 0.59569 0.0
H1656 H 0.12422 0.43476 0.85011 0.0
H1657 H 0.11589 0.44146 0.79169 0.0
H1658 H 0.13417 0.43328 0.6922 0.0
H1659 H 0.14257 0.42687 0.74944 0.0
H1660 H 0.13788 0.45515 0.68257 0.0
H1661 H 0.09035 0.42364 0.69892 0.0
H1662 H 0.09747 0.43119 0.74912 0.0
H1663 H 0.10134 0.42123 0.72432 0.0
C1664 C 0.12635 0.4343 0.81574 0.0
C1665 C 0.13418 0.4304 0.80466 0.0
C1666 C 0.12154 0.43807 0.78235 0.0
C1667 C 0.12436 0.43782 0.73743 0.0
C1668 C 0.13189 0.43361 0.72651 0.0
H1669 H 0.09455 0.45074 0.49747 0.0
H1670 H 0.10093 0.44166 0.55397 0.0
C1671 C 0.13672 0.42997 0.75952 0.0
C1672 C 0.12023 0.44261 0.70148 0.0
H1673 H 0.09591 0.43933 0.64822 0.0
C1674 C 0.12869 0.45166 0.67509 0.0
C1675 C 0.10826 0.43795 0.6912 0.0
C1676 C 0.0988 0.4279 0.71705 0.0
C1677 C 0.12554 0.45624 0.63914 0.0
C1678 C 0.11358 0.45185 0.62965 0.0
C1679 C 0.10508 0.4427 0.65556 0.0
C1680 C 0.1098 0.45719 0.59469 0.0
C1681 C 0.13509 0.46571 0.61133 0.0
C1682 C 0.11269 0.46889 0.59881 0.0
C1683 C 0.10915 0.47408 0.56676 0.0
C1684 C 0.10252 0.46768 0.52972 0.0
C1685 C 0.09971 0.45595 0.52529 0.0
C1686 C 0.10327 0.45073 0.55771 0.0
H1687 H 0.14345 0.46568 0.61458 0.0
H1688 H 0.13259 0.46468 0.57574 0.0
H1689 H 0.13662 0.47435 0.62267 0.0
H1690 H 0.11758 0.47401 0.62729 0.0
H1691 H 0.1115 0.48312 0.57151 0.0
H1692 H 0.13563 0.71692 0.75237 0.0
H1693 H 0.12673 0.70206 0.69498 0.0
H1694 H 0.11752 0.6751 0.7933 0.0
H1695 H 0.1261 0.69009 0.85164 0.0
H1696 H 0.13357 0.68769 0.66847 0.0
H1697 H 0.08762 0.66137 0.72467 0.0
H1698 H 0.09768 0.67536 0.74884 0.0
H1699 H 0.0979 0.66241 0.76582 0.0
C1700 C 0.13157 0.70781 0.76198 0.0
C1701 C 0.13161 0.70467 0.80655 0.0
C1702 C 0.12648 0.69931 0.72903 0.0
C1703 C 0.12137 0.68741 0.73957 0.0
C1704 C 0.12116 0.68419 0.7843 0.0
H1705 H 0.10132 0.62552 0.58847 0.0
H1706 H 0.10694 0.64092 0.64311 0.0
C1707 C 0.12612 0.69276 0.81765 0.0
C1708 C 0.11709 0.67861 0.70303 0.0
H1709 H 0.09359 0.65324 0.66627 0.0
C1710 C 0.12477 0.68024 0.66783 0.0
C1711 C 0.1056 0.66888 0.70192 0.0
C1712 C 0.09669 0.66694 0.7371 0.0
C1713 C 0.12139 0.67231 0.63232 0.0
C1714 C 0.11003 0.66247 0.63184 0.0
C1715 C 0.10229 0.66085 0.66667 0.0
C1716 C 0.1064 0.65323 0.59752 0.0
C1717 C 0.13008 0.67429 0.59616 0.0
C1718 C 0.10421 0.65505 0.55342 0.0
C1719 C 0.10091 0.64617 0.52157 0.0
C1720 C 0.09984 0.63536 0.53338 0.0
C1721 C 0.1021 0.6337 0.57774 0.0
C1722 C 0.10527 0.64249 0.60933 0.0
H1723 H 0.13894 0.68171 0.60372 0.0
H1724 H 0.1307 0.66628 0.59119 0.0
H1725 H 0.12706 0.67616 0.56449 0.0
H1726 H 0.105 0.66331 0.54373 0.0
H1727 H 0.09921 0.64775 0.48788 0.0
H1728 H 0.29008 0.42027 0.75551 0.0
H1729 H 0.30509 0.42633 0.69864 0.0
H1730 H 0.33176 0.44471 0.79744 0.0
H1731 H 0.31662 0.43818 0.85528 0.0
H1732 H 0.31919 0.44752 0.67163 0.0
H1733 H 0.34617 0.42892 0.73074 0.0
H1734 H 0.33207 0.42478 0.75439 0.0
H1735 H 0.34483 0.43816 0.77111 0.0
C1736 C 0.29916 0.42548 0.76532 0.0
C1737 C 0.30218 0.4288 0.80987 0.0
C1738 C 0.30775 0.42894 0.73269 0.0
C1739 C 0.3196 0.43594 0.74351 0.0
C1740 C 0.32271 0.4391 0.78824 0.0
H1741 H 0.3817 0.47744 0.59168 0.0
H1742 H 0.36641 0.46784 0.64684 0.0
C1743 C 0.31406 0.43542 0.82129 0.0
C1744 C 0.32847 0.44052 0.70719 0.0
H1745 H 0.3541 0.44277 0.67157 0.0
C1746 C 0.32674 0.44635 0.67149 0.0
C1747 C 0.33835 0.439 0.70675 0.0
C1748 C 0.34043 0.43227 0.74257 0.0
C1749 C 0.33469 0.45089 0.63604 0.0
C1750 C 0.34466 0.44957 0.63611 0.0
C1751 C 0.3464 0.4437 0.67153 0.0
C1752 C 0.35385 0.45507 0.60153 0.0
C1753 C 0.33258 0.45738 0.59933 0.0
C1754 C 0.35188 0.45106 0.55741 0.0
C1755 C 0.3607 0.45655 0.52528 0.0
C1756 C 0.3716 0.46619 0.53679 0.0
C1757 C 0.37344 0.47011 0.58118 0.0
C1758 C 0.36471 0.46459 0.61306 0.0
H1759 H 0.32527 0.45896 0.60709 0.0
H1760 H 0.3406 0.46591 0.5931 0.0
H1761 H 0.33043 0.45219 0.56827 0.0
H1762 H 0.34355 0.44365 0.54793 0.0
H1763 H 0.35898 0.45326 0.49158 0.0
H1764 H 0.5705 0.88135 0.8564 0.0
H1765 H 0.56398 0.88998 0.7985 0.0
H1766 H 0.57502 0.87447 0.69747 0.0
H1767 H 0.5812 0.86569 0.75425 0.0
H1768 H 0.57533 0.90508 0.72839 0.0
H1769 H 0.54139 0.8622 0.66308 0.0
H1770 H 0.54868 0.86366 0.71526 0.0
H1771 H 0.5556 0.8636 0.66387 0.0
C1772 C 0.57153 0.87981 0.82183 0.0
C1773 C 0.57615 0.87263 0.81006 0.0
C1774 C 0.5678 0.88473 0.78878 0.0
C1775 C 0.56871 0.8826 0.74357 0.0
C1776 C 0.57385 0.87592 0.732 0.0
H1777 H 0.55048 0.90309 0.49166 0.0
H1778 H 0.55976 0.89686 0.54804 0.0
C1779 C 0.57743 0.87093 0.7647 0.0
C1780 C 0.56427 0.88721 0.70808 0.0
H1781 H 0.546 0.87879 0.61824 0.0
C1782 C 0.56887 0.89933 0.70448 0.0
C1783 C 0.55584 0.87971 0.67671 0.0
C1784 C 0.55 0.86657 0.68012 0.0
C1785 C 0.56541 0.90413 0.67005 0.0
C1786 C 0.55711 0.89663 0.6385 0.0
C1787 C 0.55252 0.88453 0.64203 0.0
C1788 C 0.55226 0.90105 0.60406 0.0
C1789 C 0.57068 0.91721 0.6674 0.0
C1790 C 0.54498 0.90539 0.61692 0.0
C1791 C 0.53961 0.90879 0.58509 0.0
C1792 C 0.54141 0.90798 0.53943 0.0
C1793 C 0.54893 0.90385 0.52647 0.0
C1794 C 0.55422 0.90028 0.5586 0.0
H1795 H 0.57875 0.92189 0.68769 0.0
H1796 H 0.57277 0.92025 0.63249 0.0
H1797 H 0.56426 0.91961 0.67996 0.0
H1798 H 0.54323 0.90592 0.65172 0.0
H1799 H 0.53396 0.91202 0.59645 0.0
H1800 H 0.38319 0.1197 0.08023 0.0
H1801 H 0.36201 0.10859 0.09224 0.0
H1802 H 0.36586 0.12965 0.20725 0.0
H1803 H 0.38689 0.14096 0.19489 0.0
H1804 H 0.34874 0.0953 0.16074 0.0
H1805 H 0.34159 0.13283 0.13802 0.0
H1806 H 0.35523 0.13358 0.12408 0.0
H1807 H 0.35209 0.13544 0.18067 0.0
C1808 C 0.37952 0.12198 0.10801 0.0
C1809 C 0.38675 0.13133 0.13625 0.0
C1810 C 0.36741 0.11561 0.11486 0.0
C1811 C 0.3623 0.11844 0.15011 0.0
C1812 C 0.36954 0.12751 0.17908 0.0
H1813 H 0.29205 0.0747 0.25775 0.0
H1814 H 0.31311 0.08462 0.2434 0.0
C1815 C 0.3816 0.13395 0.17203 0.0
C1816 C 0.34942 0.1119 0.15685 0.0
H1817 H 0.32577 0.11558 0.16909 0.0
C1818 C 0.34369 0.09972 0.16229 0.0
C1819 C 0.34279 0.11763 0.1582 0.0
C1820 C 0.34822 0.13057 0.14946 0.0
C1821 C 0.33157 0.09314 0.16989 0.0
C1822 C 0.32505 0.09896 0.17327 0.0
C1823 C 0.33076 0.11112 0.16707 0.0
C1824 C 0.31223 0.09265 0.18197 0.0
C1825 C 0.32587 0.08003 0.17325 0.0
C1826 C 0.30473 0.0941 0.15301 0.0
C1827 C 0.29275 0.08864 0.16159 0.0
C1828 C 0.28794 0.08153 0.19928 0.0
C1829 C 0.29544 0.08003 0.22823 0.0
C1830 C 0.30749 0.08563 0.21987 0.0
H1831 H 0.33124 0.07676 0.15698 0.0
H1832 H 0.32492 0.07748 0.20874 0.0
H1833 H 0.31705 0.07563 0.15784 0.0
H1834 H 0.30816 0.09948 0.12361 0.0
H1835 H 0.28725 0.08996 0.13842 0.0
H1836 H 0.89034 0.26961 0.10196 0.0
H1837 H 0.90206 0.26035 0.11722 0.0
H1838 H 0.87328 0.233 0.19004 0.0
H1839 H 0.86159 0.24221 0.17567 0.0
H1840 H 0.89428 0.24177 0.23448 0.0
H1841 H 0.89853 0.23072 0.06011 0.0
H1842 H 0.90337 0.24588 0.06992 0.0
H1843 H 0.88819 0.23516 0.07652 0.0
C1844 C 0.88647 0.26159 0.12103 0.0
C1845 C 0.87499 0.25666 0.13745 0.0
C1846 C 0.89318 0.25629 0.12959 0.0
C1847 C 0.8885 0.24591 0.15438 0.0
C1848 C 0.87707 0.241 0.17082 0.0
H1849 H 0.90926 0.19405 0.17401 0.0
H1850 H 0.89999 0.20573 0.16055 0.0
C1851 C 0.87039 0.24629 0.16243 0.0
C1852 C 0.89547 0.24015 0.16385 0.0
H1853 H 0.90869 0.22648 0.11468 0.0
C1854 C 0.89748 0.23847 0.2083 0.0
C1855 C 0.89955 0.23576 0.12965 0.0
C1856 C 0.89724 0.23686 0.08136 0.0
C1857 C 0.90334 0.23241 0.21951 0.0
C1858 C 0.90748 0.22808 0.1853 0.0
C1859 C 0.90558 0.22987 0.14085 0.0
C1860 C 0.91319 0.22107 0.19477 0.0
C1861 C 0.90469 0.23035 0.26784 0.0
C1862 C 0.92373 0.22581 0.21858 0.0
C1863 C 0.92907 0.21911 0.22661 0.0
C1864 C 0.92401 0.20757 0.21061 0.0
C1865 C 0.91344 0.20289 0.18684 0.0
C1866 C 0.90812 0.20957 0.17899 0.0
H1867 H 0.89873 0.23184 0.28936 0.0
H1868 H 0.90293 0.2213 0.27325 0.0
H1869 H 0.9138 0.23648 0.27843 0.0
H1870 H 0.92791 0.23474 0.23042 0.0
H1871 H 0.93723 0.22303 0.24475 0.0
H1872 H 0.76499 0.62222 0.174 0.0
H1873 H 0.77389 0.64308 0.1887 0.0
H1874 H 0.74645 0.64411 0.11508 0.0
H1875 H 0.73748 0.62315 0.09958 0.0
H1876 H 0.76851 0.6625 0.09476 0.0
H1877 H 0.7621 0.65828 0.27681 0.0
H1878 H 0.76952 0.65099 0.25614 0.0
H1879 H 0.75467 0.646 0.23958 0.0
C1880 C 0.7608 0.62683 0.16085 0.0
C1881 C 0.75044 0.62093 0.13582 0.0
C1882 C 0.76588 0.63877 0.1696 0.0
C1883 C 0.7607 0.6451 0.15388 0.0
C1884 C 0.75053 0.63936 0.12792 0.0
H1885 H 0.78416 0.71672 0.24431 0.0
H1886 H 0.77216 0.69579 0.2283 0.0
C1887 C 0.74543 0.62737 0.11904 0.0
C1888 C 0.7661 0.65777 0.1639 0.0
H1889 H 0.77562 0.67738 0.24943 0.0
C1890 C 0.76996 0.66575 0.12856 0.0
C1891 C 0.76781 0.66202 0.208 0.0
C1892 C 0.7632 0.65387 0.24731 0.0
C1893 C 0.77593 0.67787 0.13617 0.0
C1894 C 0.77828 0.68211 0.1803 0.0
C1895 C 0.77397 0.67413 0.21562 0.0
C1896 C 0.78554 0.69477 0.19044 0.0
C1897 C 0.77968 0.68601 0.09682 0.0
C1898 C 0.79712 0.70108 0.1754 0.0
C1899 C 0.80399 0.71301 0.18445 0.0
C1900 C 0.79947 0.71891 0.20911 0.0
C1901 C 0.78793 0.71249 0.22516 0.0
C1902 C 0.78105 0.70052 0.21598 0.0
H1903 H 0.77429 0.68162 0.06706 0.0
H1904 H 0.77904 0.69391 0.10417 0.0
H1905 H 0.78891 0.68884 0.08862 0.0
H1906 H 0.80088 0.69677 0.15666 0.0
H1907 H 0.81286 0.71761 0.17186 0.0
H1908 H 0.07089 0.28923 0.76485 0.0
H1909 H 0.08022 0.31025 0.77963 0.0
H1910 H 0.10714 0.30873 0.85509 0.0
H1911 H 0.09789 0.28781 0.84108 0.0
H1912 H 0.09778 0.32084 0.89829 0.0
H1913 H 0.11053 0.33641 0.72492 0.0
H1914 H 0.09532 0.32597 0.73315 0.0
H1915 H 0.10608 0.32165 0.74162 0.0
C1916 C 0.07884 0.29337 0.78434 0.0
C1917 C 0.08363 0.28678 0.80167 0.0
C1918 C 0.08418 0.3054 0.79264 0.0
C1919 C 0.09443 0.31108 0.81818 0.0
C1920 C 0.09924 0.30454 0.83533 0.0
H1921 H 0.14664 0.38339 0.84261 0.0
H1922 H 0.13487 0.36247 0.82855 0.0
C1923 C 0.09393 0.29255 0.82712 0.0
C1924 C 0.10015 0.32378 0.82785 0.0
H1925 H 0.11456 0.35075 0.7795 0.0
C1926 C 0.1014 0.3274 0.87234 0.0
C1927 C 0.10494 0.3323 0.79394 0.0
C1928 C 0.10426 0.32894 0.74572 0.0
C1929 C 0.10744 0.3393 0.88388 0.0
C1930 C 0.11221 0.34782 0.84996 0.0
C1931 C 0.11083 0.3442 0.80545 0.0
C1932 C 0.11926 0.36052 0.8599 0.0
C1933 C 0.10901 0.34263 0.93233 0.0
C1934 C 0.11441 0.36641 0.88236 0.0
C1935 C 0.12116 0.37843 0.89075 0.0
C1936 C 0.13286 0.3848 0.87644 0.0
C1937 C 0.13767 0.37882 0.8541 0.0
C1938 C 0.13094 0.36683 0.8459 0.0
H1939 H 0.10717 0.33511 0.95407 0.0
H1940 H 0.11805 0.34982 0.93897 0.0
H1941 H 0.10288 0.34572 0.94152 0.0
H1942 H 0.10536 0.36175 0.89282 0.0
H1943 H 0.11714 0.38275 0.90774 0.0
H1944 H 0.71785 0.81053 0.84255 0.0
H1945 H 0.69699 0.79855 0.8572 0.0
H1946 H 0.69584 0.77035 0.78123 0.0
H1947 H 0.7168 0.78235 0.76578 0.0
H1948 H 0.67754 0.77421 0.76187 0.0
H1949 H 0.68163 0.77118 0.94356 0.0
H1950 H 0.68899 0.78598 0.92388 0.0
H1951 H 0.69392 0.77615 0.90633 0.0
C1952 C 0.71322 0.80178 0.82887 0.0
C1953 C 0.71908 0.7974 0.80318 0.0
C1954 C 0.70127 0.79491 0.8376 0.0
C1955 C 0.6949 0.78346 0.82118 0.0
C1956 C 0.70062 0.77913 0.79461 0.0
H1957 H 0.62315 0.73521 0.91014 0.0
H1958 H 0.64409 0.74412 0.89424 0.0
C1959 C 0.7126 0.78601 0.78578 0.0
C1960 C 0.68222 0.7762 0.83103 0.0
H1961 H 0.66256 0.76583 0.91637 0.0
C1962 C 0.67426 0.77227 0.79563 0.0
C1963 C 0.67795 0.77349 0.87506 0.0
C1964 C 0.68607 0.77681 0.91438 0.0
C1965 C 0.66214 0.76615 0.80313 0.0
C1966 C 0.65787 0.76408 0.84724 0.0
C1967 C 0.66583 0.76756 0.88259 0.0
C1968 C 0.64521 0.75869 0.85735 0.0
C1969 C 0.65402 0.76196 0.76369 0.0
C1970 C 0.63895 0.76407 0.84283 0.0
C1971 C 0.62702 0.75902 0.8518 0.0
C1972 C 0.62106 0.7485 0.87587 0.0
C1973 C 0.62743 0.74329 0.89144 0.0
C1974 C 0.6394 0.74836 0.88233 0.0
H1975 H 0.6584 0.76104 0.73374 0.0
H1976 H 0.64607 0.75342 0.77061 0.0
H1977 H 0.65126 0.76843 0.75605 0.0
H1978 H 0.64331 0.77221 0.82455 0.0
H1979 H 0.62247 0.76337 0.83961 0.0
H1980 H 0.20104 0.91727 0.87449 0.0
H1981 H 0.21228 0.90769 0.89094 0.0
H1982 H 0.23068 0.92 0.76676 0.0
H1983 H 0.21972 0.93001 0.75073 0.0
H1984 H 0.2127 0.89056 0.84958 0.0
H1985 H 0.25761 0.92866 0.84896 0.0
H1986 H 0.2448 0.93022 0.84864 0.0
H1987 H 0.25 0.92719 0.79795 0.0
C1988 C 0.20753 0.91802 0.85071 0.0
C1989 C 0.20948 0.92444 0.81126 0.0
C1990 C 0.21397 0.91254 0.86023 0.0
C1991 C 0.22247 0.91324 0.83047 0.0
C1992 C 0.22441 0.91958 0.79088 0.0
H1993 H 0.24674 0.8634 0.82266 0.0
H1994 H 0.23718 0.87485 0.81086 0.0
C1995 C 0.21807 0.92523 0.78157 0.0
C1996 C 0.22879 0.9068 0.84013 0.0
H1997 H 0.25596 0.90981 0.84903 0.0
C1998 C 0.22217 0.89481 0.8497 0.0
C1999 C 0.24115 0.91235 0.84105 0.0
C2000 C 0.24881 0.92533 0.83406 0.0
C2001 C 0.22751 0.88818 0.8594 0.0
C2002 C 0.23985 0.89359 0.85816 0.0
C2003 C 0.24651 0.90563 0.84948 0.0
C2004 C 0.24597 0.88684 0.86503 0.0
C2005 C 0.21985 0.87548 0.87165 0.0
C2006 C 0.25443 0.89 0.89848 0.0
C2007 C 0.26007 0.88352 0.90503 0.0
C2008 C 0.25734 0.87376 0.87824 0.0
C2009 C 0.24897 0.87075 0.8444 0.0
C2010 C 0.24343 0.87727 0.83767 0.0
H2011 H 0.21126 0.87371 0.88475 0.0
H2012 H 0.21818 0.87 0.84161 0.0
H2013 H 0.2241 0.87273 0.89696 0.0
H2014 H 0.25659 0.89741 0.91982 0.0
H2015 H 0.2665 0.88612 0.93127 0.0
H2016 H 0.71731 0.9362 0.77346 0.0
H2017 H 0.69639 0.92708 0.78971 0.0
H2018 H 0.69794 0.90003 0.86411 0.0
H2019 H 0.7188 0.90912 0.84877 0.0
H2020 H 0.67837 0.90525 0.76938 0.0
H2021 H 0.68214 0.91105 0.9517 0.0
H2022 H 0.69451 0.9186 0.91502 0.0
H2023 H 0.6895 0.90371 0.93104 0.0
C2024 C 0.71322 0.92832 0.79336 0.0
C2025 C 0.7198 0.92346 0.81005 0.0
C2026 C 0.70125 0.92313 0.80266 0.0
C2027 C 0.69565 0.91301 0.82893 0.0
C2028 C 0.70214 0.90801 0.8448 0.0
H2029 H 0.62307 0.86058 0.84328 0.0
H2030 H 0.64398 0.87256 0.82946 0.0
C2031 C 0.71407 0.91319 0.83568 0.0
C2032 C 0.68295 0.90743 0.83868 0.0
H2033 H 0.66312 0.89749 0.92351 0.0
C2034 C 0.67504 0.90365 0.80308 0.0
C2035 C 0.67859 0.90553 0.88266 0.0
C2036 C 0.68663 0.91004 0.92229 0.0
C2037 C 0.66291 0.89761 0.81025 0.0
C2038 C 0.65856 0.89509 0.85421 0.0
C2039 C 0.66646 0.89929 0.88983 0.0
C2040 C 0.64588 0.88779 0.8638 0.0
C2041 C 0.65486 0.894 0.77064 0.0
C2042 C 0.64004 0.89222 0.88919 0.0
C2043 C 0.62803 0.88534 0.89755 0.0
C2044 C 0.62165 0.87387 0.88082 0.0
C2045 C 0.62763 0.8694 0.85637 0.0
C2046 C 0.6396 0.87627 0.84814 0.0
H2047 H 0.65932 0.89948 0.74116 0.0
H2048 H 0.65204 0.88479 0.76204 0.0
H2049 H 0.64695 0.89462 0.77789 0.0
H2050 H 0.64474 0.90106 0.90196 0.0
H2051 H 0.62374 0.88906 0.91659 0.0
H2052 H 0.07523 0.78712 0.75545 0.0
H2053 H 0.08515 0.77601 0.77047 0.0
H2054 H 0.09911 0.79533 0.89196 0.0
H2055 H 0.0896 0.80669 0.87648 0.0
H2056 H 0.1156 0.7943 0.84789 0.0
H2057 H 0.07713 0.74969 0.85518 0.0
H2058 H 0.07807 0.75691 0.8037 0.0
H2059 H 0.07578 0.76261 0.85462 0.0
C2060 C 0.08035 0.78894 0.78551 0.0
C2061 C 0.08163 0.79782 0.8147 0.0
C2062 C 0.08595 0.78252 0.79425 0.0
C2063 C 0.09273 0.78468 0.83277 0.0
C2064 C 0.09391 0.79347 0.86207 0.0
H2065 H 0.12011 0.74068 0.93129 0.0
H2066 H 0.1089 0.75071 0.92088 0.0
C2067 C 0.08847 0.79998 0.8531 0.0
C2068 C 0.09913 0.77828 0.8417 0.0
H2069 H 0.09583 0.75103 0.85229 0.0
C2070 C 0.11124 0.78484 0.8491 0.0
C2071 C 0.09345 0.76593 0.84404 0.0
C2072 C 0.08038 0.75837 0.83943 0.0
C2073 C 0.11784 0.77943 0.85802 0.0
C2074 C 0.11227 0.76707 0.85818 0.0
C2075 C 0.10013 0.7605 0.85167 0.0
C2076 C 0.11895 0.76086 0.86434 0.0
C2077 C 0.13071 0.78705 0.86798 0.0
C2078 C 0.1282 0.76308 0.83564 0.0
C2079 C 0.13469 0.75749 0.8418 0.0
C2080 C 0.13195 0.74936 0.87637 0.0
C2081 C 0.12249 0.74691 0.90446 0.0
C2082 C 0.11605 0.75262 0.8985 0.0
H2083 H 0.13273 0.79577 0.88049 0.0
H2084 H 0.13368 0.78293 0.89298 0.0
H2085 H 0.13579 0.78842 0.83705 0.0
H2086 H 0.13039 0.76913 0.80826 0.0
H2087 H 0.14179 0.75948 0.81907 0.0
H2088 H 0.19799 0.28518 0.86691 0.0
H2089 H 0.20928 0.30612 0.88084 0.0
H2090 H 0.23079 0.31053 0.76667 0.0
H2091 H 0.21969 0.28941 0.75309 0.0
H2092 H 0.24381 0.32346 0.83651 0.0
H2093 H 0.20636 0.3307 0.81279 0.0
H2094 H 0.20359 0.32001 0.85479 0.0
H2095 H 0.20568 0.31714 0.7981 0.0
C2096 C 0.20509 0.29057 0.84454 0.0
C2097 C 0.20784 0.28559 0.80854 0.0
C2098 C 0.21151 0.30258 0.85251 0.0
C2099 C 0.22072 0.30996 0.82425 0.0
C2100 C 0.22367 0.30502 0.78876 0.0
H2101 H 0.24905 0.38475 0.81297 0.0
H2102 H 0.23956 0.36383 0.79911 0.0
C2103 C 0.2173 0.29294 0.78099 0.0
C2104 C 0.22723 0.3228 0.83192 0.0
H2105 H 0.2235 0.3464 0.84478 0.0
C2106 C 0.23939 0.3285 0.83807 0.0
C2107 C 0.22149 0.32942 0.83336 0.0
C2108 C 0.20858 0.32403 0.82395 0.0
C2109 C 0.24594 0.3406 0.84624 0.0
C2110 C 0.24011 0.34712 0.8495 0.0
C2111 C 0.22797 0.34141 0.84284 0.0
C2112 C 0.24641 0.35995 0.85787 0.0
C2113 C 0.25905 0.34629 0.85022 0.0
C2114 C 0.25345 0.36482 0.89568 0.0
C2115 C 0.25905 0.37689 0.90349 0.0
C2116 C 0.25751 0.38428 0.87409 0.0
C2117 C 0.25038 0.37934 0.83653 0.0
C2118 C 0.24494 0.36735 0.82848 0.0
H2119 H 0.26236 0.34091 0.83438 0.0
H2120 H 0.26349 0.35509 0.83474 0.0
H2121 H 0.26148 0.34726 0.88583 0.0
H2122 H 0.25448 0.35927 0.91953 0.0
H2123 H 0.26441 0.3804 0.93288 0.0
H2124 H 0.90813 0.71595 0.18184 0.0
H2125 H 0.89889 0.69499 0.16855 0.0
H2126 H 0.92765 0.69431 0.2332 0.0
H2127 H 0.93694 0.71535 0.24736 0.0
H2128 H 0.90739 0.6832 0.11996 0.0
H2129 H 0.89922 0.66773 0.29468 0.0
H2130 H 0.90309 0.68243 0.27938 0.0
H2131 H 0.91414 0.67832 0.28211 0.0
C2132 C 0.9125 0.71137 0.19359 0.0
C2133 C 0.9233 0.71738 0.21579 0.0
C2134 C 0.90719 0.69937 0.18584 0.0
C2135 C 0.91252 0.69305 0.20016 0.0
C2136 C 0.92327 0.69897 0.22252 0.0
H2137 H 0.89013 0.6221 0.10372 0.0
H2138 H 0.90162 0.64306 0.11947 0.0
C2139 C 0.92859 0.71101 0.23046 0.0
C2140 C 0.90687 0.68034 0.19044 0.0
H2141 H 0.89451 0.65342 0.23912 0.0
C2142 C 0.90461 0.67668 0.14599 0.0
C2143 C 0.90316 0.67185 0.22448 0.0
C2144 C 0.90491 0.67523 0.27288 0.0
C2145 C 0.89865 0.66477 0.13463 0.0
C2146 C 0.89502 0.65628 0.16864 0.0
C2147 C 0.89737 0.65994 0.21308 0.0
C2148 C 0.8882 0.64355 0.15904 0.0
C2149 C 0.89595 0.66139 0.08644 0.0
C2150 C 0.87693 0.63682 0.1767 0.0
C2151 C 0.87037 0.62484 0.16802 0.0
C2152 C 0.87494 0.61929 0.14153 0.0
C2153 C 0.88628 0.62607 0.12396 0.0
C2154 C 0.89285 0.63808 0.1328 0.0
H2155 H 0.89689 0.66878 0.0658 0.0
H2156 H 0.90211 0.65869 0.07354 0.0
H2157 H 0.88692 0.65391 0.08247 0.0
H2158 H 0.87316 0.64085 0.19705 0.0
H2159 H 0.86169 0.61994 0.18219 0.0
H2160 H 0.3836 0.26476 0.08909 0.0
H2161 H 0.3626 0.25484 0.10468 0.0
H2162 H 0.3681 0.24042 0.2246 0.0
H2163 H 0.38895 0.24994 0.20856 0.0
H2164 H 0.35041 0.22413 0.18029 0.0
H2165 H 0.34462 0.26275 0.19156 0.0
H2166 H 0.3508 0.26197 0.13957 0.0
H2167 H 0.35885 0.264 0.19014 0.0
C2168 C 0.38034 0.25953 0.11891 0.0
C2169 C 0.38797 0.25815 0.14751 0.0
C2170 C 0.36833 0.25393 0.12798 0.0
C2171 C 0.36376 0.24703 0.16627 0.0
C2172 C 0.37139 0.24571 0.19492 0.0
H2173 H 0.29246 0.21959 0.26658 0.0
H2174 H 0.31372 0.23078 0.2561 0.0
C2175 C 0.38334 0.25117 0.18563 0.0
C2176 C 0.35098 0.24067 0.17557 0.0
H2177 H 0.32716 0.24413 0.18803 0.0
C2178 C 0.34536 0.22854 0.18223 0.0
C2179 C 0.34438 0.24641 0.17889 0.0
C2180 C 0.34999 0.25952 0.17513 0.0
C2181 C 0.33335 0.22196 0.19131 0.0
C2182 C 0.32664 0.22761 0.19239 0.0
C2183 C 0.33228 0.23978 0.18668 0.0
C2184 C 0.31374 0.22097 0.19859 0.0
C2185 C 0.32803 0.20905 0.20038 0.0
C2186 C 0.30667 0.21189 0.16936 0.0
C2187 C 0.29459 0.20542 0.17555 0.0
C2188 C 0.28923 0.20801 0.21069 0.0
C2189 C 0.29629 0.21733 0.2393 0.0
C2190 C 0.30844 0.22374 0.23331 0.0
H2191 H 0.33469 0.20691 0.21233 0.0
H2192 H 0.32095 0.20601 0.22548 0.0
H2193 H 0.32428 0.20412 0.16918 0.0
H2194 H 0.3105 0.2098 0.14156 0.0
H2195 H 0.28944 0.19843 0.1524 0.0
H2196 H 0.75976 0.14078 0.19729 0.0
H2197 H 0.76962 0.12964 0.21026 0.0
H2198 H 0.75288 0.10859 0.09472 0.0
H2199 H 0.74267 0.11951 0.08212 0.0
H2200 H 0.75251 0.0953 0.16339 0.0
H2201 H 0.79736 0.13277 0.14343 0.0
H2202 H 0.78929 0.13533 0.18546 0.0
H2203 H 0.78458 0.13359 0.12853 0.0
C2204 C 0.75819 0.13383 0.17442 0.0
C2205 C 0.75048 0.13112 0.1384 0.0
C2206 C 0.7639 0.12749 0.1818 0.0
C2207 C 0.7622 0.11843 0.15294 0.0
C2208 C 0.75439 0.11559 0.11729 0.0
H2209 H 0.80841 0.08958 0.14319 0.0
H2210 H 0.79721 0.09929 0.12825 0.0
C2211 C 0.74857 0.12186 0.11009 0.0
C2212 C 0.76849 0.11187 0.16037 0.0
H2213 H 0.79573 0.11541 0.1742 0.0
C2214 C 0.76197 0.09968 0.1655 0.0
C2215 C 0.78084 0.11756 0.16249 0.0
C2216 C 0.78843 0.13051 0.15423 0.0
C2217 C 0.76743 0.09305 0.17341 0.0
C2218 C 0.77976 0.09882 0.17744 0.0
C2219 C 0.78628 0.11099 0.17166 0.0
C2220 C 0.78617 0.09243 0.18628 0.0
C2221 C 0.75995 0.07993 0.17635 0.0
C2222 C 0.78375 0.08534 0.22404 0.0
C2223 C 0.79009 0.07964 0.23247 0.0
C2224 C 0.79911 0.0811 0.20373 0.0
C2225 C 0.80156 0.08828 0.16618 0.0
C2226 C 0.79515 0.09385 0.15753 0.0
H2227 H 0.75137 0.07673 0.15979 0.0
H2228 H 0.76439 0.07554 0.16101 0.0
H2229 H 0.75826 0.07732 0.21176 0.0
H2230 H 0.77709 0.08435 0.24739 0.0
H2231 H 0.78804 0.07425 0.26189 0.0
H2232 H 0.05009 0.45331 0.41732 0.0
H2233 H 0.02897 0.44222 0.43098 0.0
H2234 H 0.03369 0.46222 0.55007 0.0
H2235 H 0.05465 0.47352 0.53606 0.0
H2236 H 0.01581 0.42836 0.4986 0.0
H2237 H 0.00953 0.46666 0.48613 0.0
H2238 H 0.02297 0.46728 0.47003 0.0
H2239 H 0.02009 0.46859 0.52753 0.0
C2240 C 0.04662 0.45535 0.44638 0.0
C2241 C 0.05406 0.46442 0.47524 0.0
C2242 C 0.03455 0.449 0.45418 0.0
C2243 C 0.0297 0.45155 0.49105 0.0
C2244 C 0.03717 0.46031 0.5207 0.0
H2245 H 0.95888 0.40745 0.59573 0.0
H2246 H 0.98001 0.4172 0.58272 0.0
C2247 C 0.04918 0.46674 0.5127 0.0
C2248 C 0.01685 0.44515 0.49854 0.0
H2249 H 0.99356 0.44922 0.51502 0.0
C2250 C 0.01092 0.43291 0.50197 0.0
C2251 C 0.01043 0.45106 0.5023 0.0
C2252 C 0.01605 0.46411 0.49585 0.0
C2253 C 0.9988 0.42644 0.50967 0.0
C2254 C 0.99248 0.43241 0.51522 0.0
C2255 C 0.9984 0.44464 0.5113 0.0
C2256 C 0.97964 0.4262 0.52325 0.0
C2257 C 0.99287 0.41328 0.51067 0.0
C2258 C 0.9724 0.42824 0.49499 0.0
C2259 C 0.96041 0.42289 0.50284 0.0
C2260 C 0.95529 0.41528 0.53909 0.0
C2261 C 0.96252 0.41318 0.56735 0.0
C2262 C 0.9746 0.41868 0.55973 0.0
H2263 H 0.99815 0.41006 0.49348 0.0
H2264 H 0.99174 0.41029 0.54566 0.0
H2265 H 0.98411 0.40923 0.49486 0.0
H2266 H 0.97606 0.434 0.46667 0.0
H2267 H 0.95513 0.42467 0.48019 0.0
H2268 H 0.57698 0.52774 0.50411 0.0
H2269 H 0.56813 0.53971 0.48888 0.0
H2270 H 0.59553 0.56823 0.5625 0.0
H2271 H 0.60446 0.55624 0.57853 0.0
H2272 H 0.57351 0.56457 0.58269 0.0
H2273 H 0.57986 0.56664 0.40064 0.0
H2274 H 0.57244 0.55194 0.42138 0.0
H2275 H 0.58729 0.56181 0.43789 0.0
C2276 C 0.58118 0.53656 0.51713 0.0
C2277 C 0.59151 0.54103 0.54235 0.0
C2278 C 0.57612 0.54343 0.50807 0.0
C2279 C 0.5813 0.55495 0.52367 0.0
C2280 C 0.59145 0.55939 0.54975 0.0
H2281 H 0.55758 0.60291 0.43327 0.0
H2282 H 0.56965 0.59405 0.44895 0.0
C2283 C 0.59653 0.55251 0.55892 0.0
C2284 C 0.57589 0.5622 0.51357 0.0
H2285 H 0.56629 0.57218 0.42797 0.0
C2286 C 0.57204 0.56634 0.54887 0.0
C2287 C 0.57416 0.56469 0.46944 0.0
C2288 C 0.57876 0.56115 0.43016 0.0
C2289 C 0.56604 0.57245 0.54123 0.0
C2290 C 0.56366 0.5743 0.49708 0.0
C2291 C 0.56797 0.57062 0.46179 0.0
C2292 C 0.55634 0.57963 0.48695 0.0
C2293 C 0.5623 0.57687 0.58055 0.0
C2294 C 0.54477 0.57432 0.50215 0.0
C2295 C 0.53786 0.57934 0.49329 0.0
C2296 C 0.54233 0.58976 0.46867 0.0
C2297 C 0.55385 0.59491 0.4524 0.0
C2298 C 0.56077 0.58986 0.46139 0.0
H2299 H 0.56772 0.57793 0.61026 0.0
H2300 H 0.56289 0.58538 0.57311 0.0
H2301 H 0.55308 0.57045 0.58888 0.0
H2302 H 0.54106 0.56626 0.52091 0.0
H2303 H 0.52901 0.57505 0.50604 0.0
H2304 H 0.47473 0.05243 0.47378 0.0
H2305 H 0.46326 0.03152 0.4596 0.0
H2306 H 0.44394 0.02683 0.5806 0.0
H2307 H 0.45516 0.04794 0.59425 0.0
H2308 H 0.462 0.0141 0.50443 0.0
H2309 H 0.41756 0.0084 0.49634 0.0
H2310 H 0.43057 0.02262 0.49662 0.0
H2311 H 0.42485 0.01473 0.5477 0.0
C2312 C 0.468 0.04698 0.49738 0.0
C2313 C 0.46587 0.05188 0.5352 0.0
C2314 C 0.46143 0.035 0.48915 0.0
C2315 C 0.45259 0.02756 0.51863 0.0
C2316 C 0.45048 0.03239 0.55668 0.0
H2317 H 0.4267 0.95303 0.5301 0.0
H2318 H 0.43636 0.97404 0.54243 0.0
C2319 C 0.45697 0.04446 0.56466 0.0
C2320 C 0.44608 0.01474 0.51018 0.0
H2321 H 0.41872 0.99097 0.4987 0.0
C2322 C 0.45254 0.00907 0.503 0.0
C2323 C 0.43372 0.00816 0.50755 0.0
C2324 C 0.42627 0.0138 0.512 0.0
C2325 C 0.44703 0.99707 0.49376 0.0
C2326 C 0.43467 0.99039 0.49313 0.0
C2327 C 0.42819 0.99606 0.49965 0.0
C2328 C 0.42836 0.97752 0.48628 0.0
C2329 C 0.45456 0.99173 0.48382 0.0
C2330 C 0.42025 0.97236 0.45159 0.0
C2331 C 0.41453 0.96024 0.44475 0.0
C2332 C 0.41685 0.95307 0.47245 0.0
C2333 C 0.42482 0.95828 0.50762 0.0
C2334 C 0.43041 0.97033 0.51467 0.0
H2335 H 0.46336 0.9984 0.47179 0.0
H2336 H 0.45578 0.98787 0.51465 0.0
H2337 H 0.45046 0.98473 0.45844 0.0
H2338 H 0.41846 0.97773 0.42943 0.0
H2339 H 0.40841 0.95653 0.41748 0.0
H2340 H 0.59787 0.04772 0.59254 0.0
H2341 H 0.5878 0.02668 0.57783 0.0
H2342 H 0.57354 0.03199 0.45713 0.0
H2343 H 0.5832 0.05289 0.47229 0.0
H2344 H 0.55719 0.0143 0.50136 0.0
H2345 H 0.59597 0.0087 0.49196 0.0
H2346 H 0.59507 0.01492 0.54369 0.0
H2347 H 0.59715 0.0229 0.49291 0.0
C2348 C 0.59263 0.04441 0.56277 0.0
C2349 C 0.59136 0.05202 0.53363 0.0
C2350 C 0.58695 0.03238 0.5542 0.0
C2351 C 0.58008 0.02774 0.51589 0.0
C2352 C 0.57881 0.03533 0.48682 0.0
H2353 H 0.5533 0.95652 0.41644 0.0
H2354 H 0.56431 0.97777 0.42702 0.0
C2355 C 0.58435 0.04731 0.49561 0.0
C2356 C 0.57377 0.01495 0.5068 0.0
H2357 H 0.57739 0.99122 0.49529 0.0
C2358 C 0.56164 0.00928 0.4998 0.0
C2359 C 0.57957 0.0084 0.50396 0.0
C2360 C 0.59267 0.01406 0.50806 0.0
C2361 C 0.55513 0.99725 0.49082 0.0
C2362 C 0.56083 0.99059 0.4902 0.0
C2363 C 0.573 0.99629 0.49628 0.0
C2364 C 0.55428 0.9777 0.48393 0.0
C2365 C 0.54224 0.99187 0.48131 0.0
C2366 C 0.54512 0.97057 0.51279 0.0
C2367 C 0.53874 0.95849 0.50654 0.0
C2368 C 0.54151 0.95319 0.47171 0.0
C2369 C 0.55091 0.96031 0.44348 0.0
C2370 C 0.55722 0.97245 0.44953 0.0
H2371 H 0.54008 0.9985 0.4691 0.0
H2372 H 0.53928 0.98479 0.45625 0.0
H2373 H 0.53724 0.98811 0.51238 0.0
H2374 H 0.5429 0.97436 0.54036 0.0
H2375 H 0.53169 0.95329 0.52938 0.0
H2376 H 0.95403 0.53136 0.47708 0.0
H2377 H 0.97501 0.54265 0.46371 0.0
H2378 H 0.97932 0.5636 0.57956 0.0
H2379 H 0.95818 0.55252 0.59261 0.0
H2380 H 0.9924 0.57694 0.51058 0.0
H2381 H 0.99938 0.53924 0.5314 0.0
H2382 H 0.98879 0.53674 0.48932 0.0
H2383 H 0.98583 0.53856 0.5462 0.0
C2384 C 0.95941 0.53835 0.49989 0.0
C2385 C 0.9544 0.54094 0.53623 0.0
C2386 C 0.97144 0.54477 0.49226 0.0
C2387 C 0.97879 0.55381 0.52117 0.0
C2388 C 0.97382 0.55661 0.55696 0.0
H2389 H 0.05363 0.58187 0.5334 0.0
H2390 H 0.03269 0.57242 0.54735 0.0
C2391 C 0.96174 0.55025 0.56441 0.0
C2392 C 0.99165 0.5603 0.51391 0.0
H2393 H 0.01522 0.55651 0.50084 0.0
C2394 C 0.99742 0.57249 0.50869 0.0
C2395 C 0.99823 0.55452 0.51209 0.0
C2396 C 0.99277 0.54157 0.52051 0.0
C2397 C 0.00954 0.57903 0.501 0.0
C2398 C 0.01602 0.57318 0.49732 0.0
C2399 C 0.01026 0.56101 0.50313 0.0
C2400 C 0.02885 0.57947 0.48908 0.0
C2401 C 0.01529 0.59216 0.49796 0.0
C2402 C 0.03374 0.5866 0.45154 0.0
C2403 C 0.04581 0.59217 0.44369 0.0
C2404 C 0.05318 0.59052 0.47278 0.0
C2405 C 0.04823 0.5833 0.51011 0.0
C2406 C 0.03623 0.57788 0.5182 0.0
H2407 H 0.00992 0.59543 0.51416 0.0
H2408 H 0.02407 0.59649 0.51362 0.0
H2409 H 0.01632 0.59477 0.46252 0.0
H2410 H 0.02821 0.58773 0.42791 0.0
H2411 H 0.04932 0.5976 0.41445 0.0
H2412 H 0.43176 0.47863 0.50417 0.0
H2413 H 0.44118 0.46708 0.51732 0.0
H2414 H 0.41278 0.43762 0.45117 0.0
H2415 H 0.40332 0.44921 0.43709 0.0
H2416 H 0.43304 0.44675 0.56473 0.0
H2417 H 0.44136 0.44005 0.38946 0.0
H2418 H 0.43721 0.45065 0.40537 0.0
H2419 H 0.42637 0.43541 0.40206 0.0
C2420 C 0.4275 0.46972 0.49211 0.0
C2421 C 0.41677 0.46488 0.46942 0.0
C2422 C 0.43291 0.46311 0.49977 0.0
C2423 C 0.42775 0.45152 0.48489 0.0
C2424 C 0.41703 0.44662 0.46224 0.0
H2425 H 0.45075 0.40323 0.5783 0.0
H2426 H 0.43916 0.41264 0.56345 0.0
C2427 C 0.41162 0.45325 0.45436 0.0
C2428 C 0.43355 0.44458 0.49411 0.0
H2429 H 0.44611 0.43033 0.44434 0.0
C2430 C 0.43587 0.44312 0.53842 0.0
C2431 C 0.43733 0.43995 0.45973 0.0
C2432 C 0.43555 0.44165 0.41145 0.0
C2433 C 0.44193 0.43725 0.5493 0.0
C2434 C 0.44561 0.43252 0.51494 0.0
C2435 C 0.44321 0.43389 0.47064 0.0
C2436 C 0.4525 0.42666 0.52402 0.0
C2437 C 0.44469 0.43651 0.59737 0.0
C2438 C 0.46375 0.43127 0.50612 0.0
C2439 C 0.47037 0.42589 0.51427 0.0
C2440 C 0.46586 0.41572 0.54046 0.0
C2441 C 0.45454 0.41109 0.55827 0.0
C2442 C 0.44791 0.41648 0.54995 0.0
H2443 H 0.44373 0.4429 0.61831 0.0
H2444 H 0.43857 0.42762 0.6101 0.0
H2445 H 0.45374 0.4381 0.6011 0.0
H2446 H 0.46747 0.43911 0.48598 0.0
H2447 H 0.47903 0.42973 0.49994 0.0
H2448 H 0.26439 0.08945 0.34951 0.0
H2449 H 0.26478 0.10814 0.35841 0.0
H2450 H 0.2443 0.10118 0.23921 0.0
H2451 H 0.24377 0.08258 0.23038 0.0
H2452 H 0.27322 0.12743 0.29946 0.0
H2453 H 0.22581 0.10845 0.33025 0.0
H2454 H 0.23304 0.09995 0.33408 0.0
H2455 H 0.22889 0.10288 0.28086 0.0
C2456 C 0.25994 0.0919 0.32534 0.0
C2457 C 0.25399 0.08449 0.28941 0.0
C2458 C 0.26018 0.10258 0.33043 0.0
C2459 C 0.25439 0.10596 0.29991 0.0
C2460 C 0.24861 0.09865 0.26372 0.0
H2461 H 0.24408 0.16275 0.23143 0.0
H2462 H 0.24489 0.14479 0.23936 0.0
C2463 C 0.24838 0.08803 0.2586 0.0
C2464 C 0.25449 0.11721 0.30492 0.0
H2465 H 0.23641 0.1287 0.31055 0.0
C2466 C 0.2652 0.12774 0.30258 0.0
C2467 C 0.24402 0.11759 0.30911 0.0
C2468 C 0.2323 0.10661 0.31417 0.0
C2469 C 0.26565 0.13861 0.30202 0.0
C2470 C 0.25512 0.13895 0.30451 0.0
C2471 C 0.24446 0.12843 0.30841 0.0
C2472 C 0.25486 0.15003 0.30033 0.0
C2473 C 0.27732 0.14962 0.29678 0.0
C2474 C 0.26012 0.15894 0.33221 0.0
C2475 C 0.25966 0.16928 0.32777 0.0
C2476 C 0.25391 0.17084 0.29142 0.0
C2477 C 0.2486 0.16185 0.25978 0.0
C2478 C 0.24905 0.15156 0.26428 0.0
H2479 H 0.28432 0.14774 0.28689 0.0
H2480 H 0.27679 0.15546 0.27156 0.0
H2481 H 0.27987 0.15439 0.32882 0.0
H2482 H 0.2645 0.15787 0.36069 0.0
H2483 H 0.2638 0.17602 0.35276 0.0
H2484 H 0.83025 0.08928 0.35424 0.0
H2485 H 0.84786 0.10867 0.36022 0.0
H2486 H 0.86126 0.10219 0.23964 0.0
H2487 H 0.8438 0.08296 0.23335 0.0
H2488 H 0.872 0.11471 0.36405 0.0
H2489 H 0.86277 0.13364 0.2161 0.0
H2490 H 0.85171 0.1205 0.24285 0.0
H2491 H 0.86198 0.1199 0.2053 0.0
C2492 C 0.83695 0.09201 0.32902 0.0
C2493 C 0.83559 0.08461 0.29317 0.0
C2494 C 0.847 0.10308 0.3325 0.0
C2495 C 0.85578 0.10695 0.29998 0.0
C2496 C 0.8545 0.09948 0.26464 0.0
H2497 H 0.92331 0.16267 0.23274 0.0
H2498 H 0.9042 0.14513 0.24039 0.0
C2499 C 0.84452 0.08846 0.26122 0.0
C2500 C 0.8664 0.1187 0.30276 0.0
H2501 H 0.88234 0.1439 0.24382 0.0
C2502 C 0.87421 0.12118 0.33818 0.0
C2503 C 0.86923 0.12715 0.26904 0.0
C2504 C 0.86093 0.12523 0.23138 0.0
C2505 C 0.88505 0.13164 0.33948 0.0
C2506 C 0.88807 0.13987 0.30476 0.0
C2507 C 0.88005 0.13756 0.2703 0.0
C2508 C 0.89979 0.15055 0.30167 0.0
C2509 C 0.89343 0.13356 0.37682 0.0
C2510 C 0.90369 0.15948 0.33358 0.0
C2511 C 0.91468 0.16959 0.32929 0.0
C2512 C 0.92193 0.17093 0.29291 0.0
C2513 C 0.91797 0.16194 0.26117 0.0
C2514 C 0.90703 0.1519 0.26545 0.0
H2515 H 0.8907 0.12546 0.39631 0.0
H2516 H 0.90238 0.13672 0.36374 0.0
H2517 H 0.8938 0.14033 0.3996 0.0
H2518 H 0.89817 0.15872 0.36144 0.0
H2519 H 0.91746 0.17638 0.35417 0.0
H2520 H 0.9231 0.76193 0.23659 0.0
H2521 H 0.90403 0.76038 0.24485 0.0
H2522 H 0.89838 0.74123 0.36682 0.0
H2523 H 0.91765 0.74281 0.35887 0.0
H2524 H 0.88215 0.73945 0.25003 0.0
H2525 H 0.89093 0.76731 0.39988 0.0
H2526 H 0.90255 0.76774 0.36684 0.0
H2527 H 0.89424 0.75568 0.40356 0.0
C2528 C 0.91786 0.75742 0.26535 0.0
C2529 C 0.92191 0.75249 0.29711 0.0
C2530 C 0.90693 0.75654 0.26999 0.0
C2531 C 0.89981 0.75078 0.30659 0.0
C2532 C 0.90381 0.74587 0.33862 0.0
H2533 H 0.83045 0.74352 0.3561 0.0
H2534 H 0.84791 0.74154 0.36417 0.0
C2535 C 0.9148 0.74674 0.33395 0.0
C2536 C 0.88808 0.7497 0.30982 0.0
H2537 H 0.87231 0.75947 0.36726 0.0
C2538 C 0.87996 0.74373 0.27591 0.0
C2539 C 0.88519 0.75523 0.34377 0.0
C2540 C 0.89368 0.76193 0.38053 0.0
C2541 C 0.86918 0.74341 0.27432 0.0
C2542 C 0.86651 0.74939 0.30708 0.0
C2543 C 0.87439 0.75493 0.34211 0.0
C2544 C 0.85602 0.75072 0.30334 0.0
C2545 C 0.86079 0.73678 0.2372 0.0
C2546 C 0.85491 0.75673 0.26702 0.0
C2547 C 0.84502 0.75789 0.26241 0.0
C2548 C 0.83601 0.7531 0.29412 0.0
C2549 C 0.83722 0.74727 0.33104 0.0
C2550 C 0.84718 0.74614 0.33571 0.0
H2551 H 0.86249 0.73 0.22304 0.0
H2552 H 0.85159 0.7325 0.24883 0.0
H2553 H 0.86189 0.74296 0.21021 0.0
H2554 H 0.86172 0.76053 0.2421 0.0
H2555 H 0.84443 0.76251 0.23375 0.0
H2556 H 0.08345 0.24151 0.7772 0.0
H2557 H 0.10217 0.24231 0.76769 0.0
H2558 H 0.1085 0.26248 0.64802 0.0
H2559 H 0.08969 0.2618 0.65755 0.0
H2560 H 0.10959 0.23413 0.69475 0.0
H2561 H 0.1386 0.2819 0.72192 0.0
H2562 H 0.12338 0.27432 0.73771 0.0
H2563 H 0.12741 0.27761 0.68044 0.0
C2564 C 0.08881 0.24615 0.74886 0.0
C2565 C 0.08509 0.25162 0.71818 0.0
C2566 C 0.09952 0.24658 0.74346 0.0
C2567 C 0.1068 0.25255 0.70743 0.0
C2568 C 0.1031 0.25798 0.67646 0.0
H2569 H 0.17698 0.26191 0.65961 0.0
H2570 H 0.15876 0.26242 0.64972 0.0
C2571 C 0.09233 0.25753 0.68181 0.0
C2572 C 0.11812 0.25281 0.70246 0.0
H2573 H 0.14774 0.27076 0.70908 0.0
C2574 C 0.11793 0.24215 0.69751 0.0
C2575 C 0.129 0.26329 0.70577 0.0
C2576 C 0.1297 0.27495 0.71205 0.0
C2577 C 0.1283 0.24165 0.69681 0.0
C2578 C 0.13917 0.25207 0.70203 0.0
C2579 C 0.1394 0.26279 0.70521 0.0
C2580 C 0.15024 0.25186 0.70754 0.0
C2581 C 0.12752 0.22995 0.69082 0.0
C2582 C 0.15157 0.24592 0.74366 0.0
C2583 C 0.1619 0.24562 0.74937 0.0
C2584 C 0.1712 0.25131 0.7192 0.0
C2585 C 0.16995 0.25739 0.68328 0.0
C2586 C 0.15956 0.25771 0.67763 0.0
H2587 H 0.11925 0.22358 0.67415 0.0
H2588 H 0.135 0.23077 0.67106 0.0
H2589 H 0.12772 0.22634 0.72387 0.0
H2590 H 0.1446 0.24155 0.76768 0.0
H2591 H 0.16259 0.24092 0.77755 0.0
H2592 H 0.74355 0.82889 0.65906 0.0
H2593 H 0.74295 0.84708 0.64975 0.0
H2594 H 0.76343 0.86094 0.76877 0.0
H2595 H 0.76413 0.84297 0.77811 0.0
H2596 H 0.73437 0.85788 0.7101 0.0
H2597 H 0.78157 0.88654 0.6758 0.0
H2598 H 0.77439 0.87081 0.67182 0.0
H2599 H 0.77875 0.87788 0.72501 0.0
C2600 C 0.74796 0.83585 0.68309 0.0
C2601 C 0.75395 0.83451 0.71918 0.0
C2602 C 0.7476 0.84621 0.67777 0.0
C2603 C 0.75331 0.85544 0.70818 0.0
C2604 C 0.75916 0.85404 0.74441 0.0
H2605 H 0.76383 0.92219 0.77965 0.0
H2606 H 0.76292 0.90343 0.76978 0.0
C2607 C 0.7595 0.84372 0.74981 0.0
C2608 C 0.75307 0.8665 0.70304 0.0
H2609 H 0.77096 0.89609 0.69676 0.0
C2610 C 0.74233 0.86623 0.70644 0.0
C2611 C 0.76347 0.87739 0.69814 0.0
C2612 C 0.77519 0.8782 0.69204 0.0
C2613 C 0.74181 0.87661 0.70753 0.0
C2614 C 0.75228 0.88752 0.70451 0.0
C2615 C 0.76295 0.88774 0.69932 0.0
C2616 C 0.75252 0.89882 0.70993 0.0
C2617 C 0.73013 0.87587 0.71408 0.0
C2618 C 0.74701 0.90253 0.67936 0.0
C2619 C 0.74751 0.91332 0.68495 0.0
C2620 C 0.75356 0.92057 0.72112 0.0
C2621 C 0.75908 0.91682 0.75147 0.0
C2622 C 0.75859 0.90609 0.74585 0.0
H2623 H 0.72322 0.86695 0.72397 0.0
H2624 H 0.73076 0.88217 0.73982 0.0
H2625 H 0.72741 0.87815 0.68256 0.0
H2626 H 0.74243 0.89715 0.65099 0.0
H2627 H 0.74321 0.91599 0.66093 0.0
H2628 H 0.17799 0.91538 0.66033 0.0
H2629 H 0.16022 0.89612 0.65475 0.0
H2630 H 0.14679 0.90331 0.77375 0.0
H2631 H 0.16445 0.92241 0.77972 0.0
H2632 H 0.14522 0.88123 0.77321 0.0
H2633 H 0.12714 0.88895 0.61834 0.0
H2634 H 0.14195 0.89183 0.6157 0.0
H2635 H 0.13847 0.90074 0.65024 0.0
C2636 C 0.17122 0.91286 0.68516 0.0
C2637 C 0.17262 0.92044 0.72042 0.0
C2638 C 0.16105 0.90188 0.68181 0.0
C2639 C 0.15212 0.89833 0.71359 0.0
C2640 C 0.15355 0.90587 0.7488 0.0
H2641 H 0.08419 0.84297 0.78348 0.0
H2642 H 0.10351 0.8603 0.77697 0.0
C2643 C 0.16366 0.91681 0.75213 0.0
C2644 C 0.14135 0.88667 0.71125 0.0
H2645 H 0.11622 0.87045 0.65194 0.0
C2646 C 0.13891 0.87884 0.74653 0.0
C2647 C 0.13316 0.88352 0.67627 0.0
C2648 C 0.13521 0.8917 0.63805 0.0
C2649 C 0.12844 0.86808 0.74826 0.0
C2650 C 0.12005 0.86513 0.7142 0.0
C2651 C 0.12265 0.87274 0.67806 0.0
C2652 C 0.10825 0.85457 0.71722 0.0
C2653 C 0.12642 0.85997 0.78673 0.0
C2654 C 0.10433 0.84569 0.68506 0.0
C2655 C 0.0932 0.83572 0.68864 0.0
C2656 C 0.08579 0.83454 0.72424 0.0
C2657 C 0.08969 0.84356 0.75583 0.0
C2658 C 0.10078 0.85346 0.75229 0.0
H2659 H 0.13479 0.8618 0.80229 0.0
H2660 H 0.12114 0.86126 0.81239 0.0
H2661 H 0.12159 0.85069 0.77605 0.0
H2662 H 0.10992 0.84642 0.65753 0.0
H2663 H 0.09043 0.82895 0.6637 0.0
H2664 H 0.93107 0.42235 0.68643 0.0
H2665 H 0.9328 0.44169 0.69388 0.0
H2666 H 0.91305 0.43572 0.57326 0.0
H2667 H 0.91135 0.41656 0.56547 0.0
H2668 H 0.93392 0.45756 0.57661 0.0
H2669 H 0.90704 0.44933 0.72892 0.0
H2670 H 0.91871 0.44606 0.73192 0.0
H2671 H 0.90646 0.4376 0.69614 0.0
C2672 C 0.92705 0.42515 0.66169 0.0
C2673 C 0.92107 0.41792 0.62538 0.0
C2674 C 0.928 0.43617 0.66608 0.0
C2675 C 0.92296 0.4401 0.63431 0.0
C2676 C 0.91699 0.43287 0.59819 0.0
H2677 H 0.91151 0.496 0.56432 0.0
H2678 H 0.91333 0.47859 0.5712 0.0
C2679 C 0.91602 0.4219 0.59383 0.0
C2680 C 0.92408 0.45185 0.6374 0.0
H2681 H 0.91491 0.46794 0.69614 0.0
C2682 C 0.92984 0.45986 0.60295 0.0
C2683 C 0.91883 0.45489 0.67194 0.0
C2684 C 0.91233 0.44653 0.70928 0.0
C2685 C 0.93026 0.47068 0.60151 0.0
C2686 C 0.92458 0.47351 0.63499 0.0
C2687 C 0.91922 0.46573 0.67044 0.0
C2688 C 0.92342 0.48411 0.63187 0.0
C2689 C 0.9367 0.47896 0.56387 0.0
C2690 C 0.92822 0.4929 0.66438 0.0
C2691 C 0.92717 0.50293 0.66057 0.0
C2692 C 0.92121 0.50425 0.62439 0.0
C2693 C 0.91623 0.49531 0.59244 0.0
C2694 C 0.91731 0.48536 0.5962 0.0
H2695 H 0.94333 0.47715 0.54896 0.0
H2696 H 0.93037 0.47786 0.53752 0.0
H2697 H 0.94114 0.48819 0.57523 0.0
H2698 H 0.9329 0.49207 0.69236 0.0
H2699 H 0.93106 0.50964 0.6858 0.0
H2700 H 0.51066 0.41726 0.56779 0.0
H2701 H 0.5282 0.43638 0.57577 0.0
H2702 H 0.51444 0.44235 0.69646 0.0
H2703 H 0.49677 0.42307 0.68882 0.0
H2704 H 0.52935 0.45837 0.57984 0.0
H2705 H 0.54774 0.44957 0.73156 0.0
H2706 H 0.53659 0.43797 0.69836 0.0
H2707 H 0.53283 0.44638 0.73448 0.0
C2708 C 0.51135 0.42259 0.59618 0.0
C2709 C 0.50232 0.41862 0.62773 0.0
C2710 C 0.52139 0.43354 0.60066 0.0
C2711 C 0.52269 0.44076 0.6369 0.0
C2712 C 0.5137 0.43685 0.66858 0.0
H2713 H 0.58473 0.51001 0.6886 0.0
H2714 H 0.56522 0.49257 0.69573 0.0
C2715 C 0.50359 0.42586 0.66407 0.0
C2716 C 0.53338 0.45245 0.64028 0.0
H2717 H 0.55868 0.46821 0.69921 0.0
C2718 C 0.53571 0.46055 0.60616 0.0
C2719 C 0.54164 0.45534 0.67482 0.0
C2720 C 0.53968 0.44687 0.71184 0.0
C2721 C 0.54618 0.47132 0.60499 0.0
C2722 C 0.55467 0.474 0.6384 0.0
C2723 C 0.55217 0.46612 0.67357 0.0
C2724 C 0.56653 0.48448 0.63523 0.0
C2725 C 0.54812 0.47971 0.56765 0.0
C2726 C 0.5738 0.48558 0.59944 0.0
C2727 C 0.58488 0.49545 0.59537 0.0
C2728 C 0.58899 0.50445 0.62711 0.0
C2729 C 0.5818 0.50325 0.66353 0.0
C2730 C 0.57067 0.4933 0.66765 0.0
H2731 H 0.53971 0.47803 0.55288 0.0
H2732 H 0.55302 0.48892 0.57927 0.0
H2733 H 0.5533 0.47859 0.54111 0.0
H2734 H 0.57089 0.47878 0.57452 0.0
H2735 H 0.59021 0.49604 0.56709 0.0
H2736 H 0.59088 0.09599 0.56204 0.0
H2737 H 0.57187 0.09476 0.56871 0.0
H2738 H 0.56508 0.07487 0.68938 0.0
H2739 H 0.58421 0.07613 0.68309 0.0
H2740 H 0.54976 0.07428 0.57126 0.0
H2741 H 0.55805 0.10096 0.72406 0.0
H2742 H 0.56973 0.10123 0.69192 0.0
H2743 H 0.56097 0.08907 0.72767 0.0
C2744 C 0.58539 0.0914 0.59017 0.0
C2745 C 0.58907 0.08618 0.6221 0.0
C2746 C 0.57451 0.0907 0.5939 0.0
C2747 C 0.56709 0.08483 0.62977 0.0
C2748 C 0.57074 0.07961 0.66182 0.0
H2749 H 0.4975 0.07643 0.68213 0.0
H2750 H 0.51524 0.07487 0.68826 0.0
C2751 C 0.58165 0.08029 0.65806 0.0
C2752 C 0.55544 0.08395 0.63241 0.0
H2753 H 0.53931 0.09294 0.69198 0.0
C2754 C 0.54746 0.07831 0.59779 0.0
C2755 C 0.5524 0.08912 0.66724 0.0
C2756 C 0.56073 0.09552 0.70476 0.0
C2757 C 0.53662 0.07786 0.5966 0.0
C2758 C 0.53375 0.08341 0.63051 0.0
C2759 C 0.54154 0.08871 0.66598 0.0
C2760 C 0.52308 0.08448 0.62788 0.0
C2761 C 0.52834 0.07149 0.55887 0.0
C2762 C 0.52173 0.09059 0.59249 0.0
C2763 C 0.51168 0.0915 0.58897 0.0
C2764 C 0.50275 0.08637 0.6209 0.0
C2765 C 0.5042 0.08045 0.65693 0.0
C2766 C 0.51432 0.07955 0.66048 0.0
H2767 H 0.53019 0.06493 0.54355 0.0
H2768 H 0.51911 0.06699 0.57026 0.0
H2769 H 0.5294 0.07788 0.53282 0.0
H2770 H 0.52848 0.09467 0.56747 0.0
H2771 H 0.51091 0.09621 0.56099 0.0
H2772 H 0.75087 0.57593 0.11167 0.0
H2773 H 0.76959 0.57671 0.10233 0.0
H2774 H 0.77591 0.59674 0.98226 0.0
H2775 H 0.7571 0.59607 0.99162 0.0
H2776 H 0.77692 0.5684 0.02945 0.0
H2777 H 0.80608 0.61617 0.0559 0.0
H2778 H 0.79087 0.60865 0.07187 0.0
H2779 H 0.79485 0.61188 0.01454 0.0
C2780 C 0.75623 0.58054 0.08329 0.0
C2781 C 0.7525 0.58597 0.05243 0.0
C2782 C 0.76694 0.58096 0.07799 0.0
C2783 C 0.77421 0.58688 0.04188 0.0
C2784 C 0.77052 0.59228 0.01077 0.0
H2785 H 0.84423 0.59595 0.99324 0.0
H2786 H 0.82606 0.59656 0.98374 0.0
C2787 C 0.75975 0.59183 0.01601 0.0
C2788 C 0.78551 0.58709 0.0369 0.0
H2789 H 0.81514 0.60497 0.04311 0.0
C2790 C 0.78528 0.57641 0.03208 0.0
C2791 C 0.79642 0.59755 0.04003 0.0
C2792 C 0.79716 0.60923 0.04617 0.0
C2793 C 0.79562 0.57587 0.03129 0.0
C2794 C 0.80651 0.58626 0.03631 0.0
C2795 C 0.80679 0.59701 0.03939 0.0
C2796 C 0.81757 0.58602 0.04165 0.0
C2797 C 0.79479 0.56413 0.02539 0.0
C2798 C 0.81891 0.58007 0.07769 0.0
C2799 C 0.82922 0.57971 0.08317 0.0
C2800 C 0.83849 0.58536 0.05285 0.0
C2801 C 0.83723 0.59146 0.01703 0.0
C2802 C 0.82687 0.59184 0.0116 0.0
H2803 H 0.7865 0.55778 0.00882 0.0
H2804 H 0.80224 0.56491 1.00557 0.0
H2805 H 0.79499 0.56054 0.05846 0.0
H2806 H 0.81196 0.57573 0.10182 0.0
H2807 H 0.82991 0.57499 0.11128 0.0
H2808 H 0.43124 0.17668 0.10778 0.0
H2809 H 0.43032 0.19456 0.0998 0.0
H2810 H 0.40955 0.18082 0.98133 0.0
H2811 H 0.41034 0.1627 0.98938 0.0
H2812 H 0.43818 0.21024 0.02768 0.0
H2813 H 0.39051 0.19147 0.05746 0.0
H2814 H 0.39811 0.18375 0.07185 0.0
H2815 H 0.39461 0.18464 0.01497 0.0
C2816 C 0.42643 0.1774 0.08004 0.0
C2817 C 0.42084 0.16824 0.04925 0.0
C2818 C 0.42593 0.18766 0.07552 0.0
C2819 C 0.41978 0.189 0.04026 0.0
C2820 C 0.4142 0.1799 0.00921 0.0
H2821 H 0.41048 0.24989 0.99556 0.0
H2822 H 0.40983 0.23111 0.98559 0.0
C2823 C 0.41472 0.16959 0.01369 0.0
C2824 C 0.41952 0.20008 0.03611 0.0
H2825 H 0.40162 0.21176 0.0449 0.0
C2826 C 0.43017 0.21056 0.0311 0.0
C2827 C 0.40906 0.20049 0.04031 0.0
C2828 C 0.3974 0.18952 0.04676 0.0
C2829 C 0.43069 0.22143 0.03113 0.0
C2830 C 0.4203 0.22188 0.03714 0.0
C2831 C 0.40958 0.21139 0.04045 0.0
C2832 C 0.42053 0.23317 0.04297 0.0
C2833 C 0.44239 0.23236 0.025 0.0
C2834 C 0.42659 0.24046 0.07891 0.0
C2835 C 0.42696 0.25113 0.08467 0.0
C2836 C 0.42124 0.25475 0.05472 0.0
C2837 C 0.41502 0.24737 0.01906 0.0
C2838 C 0.41463 0.23664 0.01336 0.0
H2839 H 0.44872 0.23047 0.00796 0.0
H2840 H 0.44152 0.23902 1.00552 0.0
H2841 H 0.44605 0.23614 0.05801 0.0
H2842 H 0.431 0.23786 0.1027 0.0
H2843 H 0.43177 0.25656 0.11264 0.0
H2844 H 0.75702 0.1621 0.99103 0.0
H2845 H 0.7763 0.17983 0.9848 0.0
H2846 H 0.76978 0.19308 0.10567 0.0
H2847 H 0.75065 0.17548 0.11228 0.0
H2848 H 0.78234 0.20376 0.98051 0.0
H2849 H 0.80127 0.19494 0.1294 0.0
H2850 H 0.78808 0.18382 0.10312 0.0
H2851 H 0.78757 0.19424 0.14016 0.0
C2852 C 0.75971 0.1688 0.01625 0.0
C2853 C 0.75233 0.16734 0.05232 0.0
C2854 C 0.77072 0.17892 0.01263 0.0
C2855 C 0.77456 0.18769 0.04518 0.0
C2856 C 0.7671 0.18633 0.08066 0.0
H2857 H 0.83002 0.25549 0.11015 0.0
H2858 H 0.81254 0.23634 0.10279 0.0
C2859 C 0.75613 0.17627 0.08426 0.0
C2860 C 0.7863 0.19835 0.04231 0.0
H2861 H 0.81151 0.21445 0.10108 0.0
C2862 C 0.7888 0.20604 0.00648 0.0
C2863 C 0.79475 0.20127 0.07611 0.0
C2864 C 0.79285 0.19308 0.11416 0.0
C2865 C 0.79927 0.21687 1.00483 0.0
C2866 C 0.8075 0.21999 0.03963 0.0
C2867 C 0.80517 0.21208 0.07453 0.0
C2868 C 0.81815 0.23173 0.04246 0.0
C2869 C 0.80123 0.22512 0.967 0.0
C2870 C 0.82718 0.23553 0.01097 0.0
C2871 C 0.83727 0.24656 0.01512 0.0
C2872 C 0.83848 0.25393 0.05091 0.0
C2873 C 0.82939 0.25006 0.08219 0.0
C2874 C 0.81938 0.23909 0.07807 0.0
H2875 H 0.79318 0.22228 0.94707 0.0
H2876 H 0.80428 0.23409 0.97967 0.0
H2877 H 0.8081 0.2255 0.94475 0.0
H2878 H 0.8265 0.22992 0.98357 0.0
H2879 H 0.84414 0.24927 0.9906 0.0
H2880 H 0.57739 0.74983 0.90016 0.0
H2881 H 0.5793 0.76905 0.90845 0.0
H2882 H 0.59829 0.77434 0.03059 0.0
H2883 H 0.59638 0.75493 0.02258 0.0
H2884 H 0.58024 0.78068 0.03347 0.0
H2885 H 0.60979 0.80044 0.88951 0.0
H2886 H 0.59688 0.78684 0.87661 0.0
H2887 H 0.60734 0.78708 0.91539 0.0
C2888 C 0.582 0.75505 0.92882 0.0
C2889 C 0.58681 0.75087 0.96057 0.0
C2890 C 0.58312 0.76608 0.9334 0.0
C2891 C 0.58911 0.77322 0.96972 0.0
C2892 C 0.59371 0.769 1.00212 0.0
H2893 H 0.59654 0.84255 0.02506 0.0
H2894 H 0.59824 0.82494 0.03294 0.0
C2895 C 0.59262 0.75792 0.99749 0.0
C2896 C 0.59038 0.78502 0.97342 0.0
H2897 H 0.60021 0.81056 0.91623 0.0
C2898 C 0.58477 0.78731 0.00833 0.0
C2899 C 0.59633 0.79367 0.94065 0.0
C2900 C 0.60303 0.79196 0.90365 0.0
C2901 C 0.58439 0.79777 0.00987 0.0
C2902 C 0.5899 0.80618 0.9759 0.0
C2903 C 0.59593 0.80408 0.94211 0.0
C2904 C 0.58876 0.8168 0.97261 0.0
C2905 C 0.57763 0.79951 0.0465 0.0
C2906 C 0.583 0.81813 0.93593 0.0
C2907 C 0.58204 0.82813 0.93133 0.0
C2908 C 0.5869 0.8371 0.96318 0.0
C2909 C 0.59266 0.83578 1.00006 0.0
C2910 C 0.5936 0.8257 1.0047 0.0
H2911 H 0.57225 0.79137 0.06579 0.0
H2912 H 0.58383 0.80633 0.06962 0.0
H2913 H 0.5718 0.80253 0.0327 0.0
H2914 H 0.57921 0.81138 0.91074 0.0
H2915 H 0.57754 0.82884 0.90253 0.0
H2916 H 0.16369 0.75525 0.01998 0.0
H2917 H 0.18195 0.77394 0.02938 0.0
H2918 H 0.19518 0.76785 0.90753 0.0
H2919 H 0.17711 0.74922 0.89815 0.0
H2920 H 0.2111 0.77494 0.97893 0.0
H2921 H 0.19257 0.80432 0.95818 0.0
H2922 H 0.18576 0.79304 0.99937 0.0
H2923 H 0.18471 0.78915 0.9418 0.0
C2924 C 0.17049 0.75792 0.99519 0.0
C2925 C 0.16894 0.75077 0.95827 0.0
C2926 C 0.18089 0.76863 1.00047 0.0
C2927 C 0.18988 0.77236 0.96887 0.0
C2928 C 0.18836 0.76517 0.93225 0.0
H2929 H 0.2575 0.82864 0.90103 0.0
H2930 H 0.23887 0.81056 0.90949 0.0
C2931 C 0.178 0.75452 0.92693 0.0
C2932 C 0.20103 0.78361 0.97388 0.0
H2933 H 0.21284 0.81328 0.97102 0.0
C2934 C 0.21147 0.78332 0.9775 0.0
C2935 C 0.2015 0.79454 0.97231 0.0
C2936 C 0.19057 0.79537 0.96739 0.0
C2937 C 0.22238 0.79365 0.97875 0.0
C2938 C 0.22289 0.80458 0.97547 0.0
C2939 C 0.21243 0.8049 0.97345 0.0
C2940 C 0.2342 0.81568 0.97092 0.0
C2941 C 0.23328 0.79276 0.98338 0.0
C2942 C 0.23768 0.82474 1.00208 0.0
C2943 C 0.24838 0.83517 0.99723 0.0
C2944 C 0.25571 0.83674 0.9609 0.0
C2945 C 0.2521 0.8277 0.92955 0.0
C2946 C 0.24147 0.81731 0.93445 0.0
H2947 H 0.23134 0.78433 0.99876 0.0
H2948 H 0.23702 0.79321 0.94998 0.0
H2949 H 0.23997 0.80004 1.00373 0.0
H2950 H 0.23216 0.8237 0.03029 0.0
H2951 H 0.25088 0.842 0.02182 0.0
H2952 H 0.17797 0.42985 0.90035 0.0
H2953 H 0.19579 0.4289 0.91017 0.0
H2954 H 0.18188 0.40915 0.03071 0.0
H2955 H 0.16383 0.40996 0.0208 0.0
H2956 H 0.21148 0.43723 0.98194 0.0
H2957 H 0.19225 0.38927 0.95885 0.0
H2958 H 0.18463 0.39685 0.94278 0.0
H2959 H 0.18556 0.39384 1.00023 0.0
C2960 C 0.17865 0.42526 0.92895 0.0
C2961 C 0.16945 0.41994 0.95974 0.0
C2962 C 0.18887 0.42475 0.93453 0.0
C2963 C 0.19014 0.41886 0.97089 0.0
C2964 C 0.18102 0.41359 1.002 0.0
H2965 H 0.25067 0.40921 0.02059 0.0
H2966 H 0.23205 0.40894 0.03002 0.0
C2967 C 0.17074 0.41411 0.99645 0.0
C2968 C 0.20116 0.41851 0.97598 0.0
H2969 H 0.21256 0.40032 0.97103 0.0
C2970 C 0.21171 0.42914 0.97992 0.0
C2971 C 0.20144 0.40796 0.97359 0.0
C2972 C 0.1904 0.39631 0.96832 0.0
C2973 C 0.22253 0.42954 0.98053 0.0
C2974 C 0.22285 0.41904 0.97631 0.0
C2975 C 0.21229 0.40836 0.97413 0.0
C2976 C 0.23406 0.4191 0.97099 0.0
C2977 C 0.23354 0.44124 0.98536 0.0
C2978 C 0.24127 0.42472 0.93437 0.0
C2979 C 0.25185 0.42488 0.92891 0.0
C2980 C 0.25545 0.41936 0.95986 0.0
C2981 C 0.24817 0.41359 0.99629 0.0
C2982 C 0.23753 0.41341 1.00169 0.0
H2983 H 0.23176 0.44778 1.00123 0.0
H2984 H 0.24019 0.44048 1.00535 0.0
H2985 H 0.23727 0.44456 0.95199 0.0
H2986 H 0.23867 0.42896 0.90977 0.0
H2987 H 0.2572 0.42935 0.90033 0.0
H2988 H 0.41694 0.90804 0.44653 0.0
H2989 H 0.43566 0.90882 0.4372 0.0
H2990 H 0.44192 0.92873 0.31686 0.0
H2991 H 0.42313 0.9281 0.32625 0.0
H2992 H 0.44304 0.90046 0.36537 0.0
H2993 H 0.47208 0.94833 0.38963 0.0
H2994 H 0.45685 0.94083 0.40534 0.0
H2995 H 0.4609 0.94393 0.34801 0.0
C2996 C 0.42229 0.91263 0.41809 0.0
C2997 C 0.41856 0.91805 0.38719 0.0
C2998 C 0.433 0.91305 0.41279 0.0
C2999 C 0.44026 0.91893 0.37662 0.0
C3000 C 0.43655 0.9243 0.34542 0.0
H3001 H 0.51027 0.92808 0.32764 0.0
H3002 H 0.492 0.92848 0.31795 0.0
C3003 C 0.42578 0.92387 0.35069 0.0
C3004 C 0.45157 0.91917 0.37176 0.0
H3005 H 0.4812 0.93717 0.37714 0.0
C3006 C 0.45139 0.9085 0.36759 0.0
C3007 C 0.46246 0.92967 0.37439 0.0
C3008 C 0.46317 0.94136 0.3799 0.0
C3009 C 0.46176 0.90801 0.36696 0.0
C3010 C 0.47263 0.91845 0.37141 0.0
C3011 C 0.47286 0.92918 0.37385 0.0
C3012 C 0.48373 0.91828 0.37679 0.0
C3013 C 0.46098 0.89628 0.36186 0.0
C3014 C 0.48521 0.91259 0.41337 0.0
C3015 C 0.49558 0.91236 0.41899 0.0
C3016 C 0.50476 0.91788 0.38822 0.0
C3017 C 0.50334 0.9237 0.35178 0.0
C3018 C 0.49292 0.92395 0.34624 0.0
H3019 H 0.45264 0.8898 0.34586 0.0
H3020 H 0.46838 0.897 0.34187 0.0
H3021 H 0.46132 0.89288 0.39516 0.0
H3022 H 0.47833 0.90836 0.43785 0.0
H3023 H 0.4964 0.90785 0.44756 0.0
H3024 H 0.0966 0.58879 0.4451 0.0
H3025 H 0.09488 0.56961 0.4375 0.0
H3026 H 0.07509 0.56358 0.31695 0.0
H3027 H 0.07685 0.58293 0.32419 0.0
H3028 H 0.07405 0.54773 0.43418 0.0
H3029 H 0.10087 0.55605 0.28164 0.0
H3030 H 0.1014 0.56774 0.31444 0.0
H3031 H 0.08916 0.55926 0.27866 0.0
C3032 C 0.09191 0.58344 0.41681 0.0
C3033 C 0.08688 0.58741 0.38518 0.0
C3034 C 0.09093 0.57245 0.41255 0.0
C3035 C 0.08495 0.5652 0.37647 0.0
C3036 C 0.0799 0.56911 0.3447 0.0
H3037 H 0.07693 0.49568 0.32467 0.0
H3038 H 0.07497 0.51318 0.31819 0.0
C3039 C 0.08087 0.58014 0.34898 0.0
C3040 C 0.08385 0.55346 0.37331 0.0
H3041 H 0.09298 0.5374 0.31415 0.0
C3042 C 0.07811 0.54544 0.40773 0.0
C3043 C 0.08908 0.55044 0.33862 0.0
C3044 C 0.09555 0.55882 0.3013 0.0
C3045 C 0.07769 0.53462 0.409 0.0
C3046 C 0.08334 0.5318 0.37536 0.0
C3047 C 0.08868 0.5396 0.33995 0.0
C3048 C 0.08455 0.52123 0.37841 0.0
C3049 C 0.07127 0.52632 0.44663 0.0
C3050 C 0.09076 0.52006 0.41389 0.0
C3051 C 0.09191 0.51015 0.41759 0.0
C3052 C 0.08691 0.50118 0.38578 0.0
C3053 C 0.08084 0.50242 0.34979 0.0
C3054 C 0.07972 0.5124 0.34603 0.0
H3055 H 0.06466 0.52812 0.46169 0.0
H3056 H 0.06684 0.51709 0.43521 0.0
H3057 H 0.07763 0.52741 0.47287 0.0
H3058 H 0.09476 0.52685 0.43878 0.0
H3059 H 0.09672 0.50953 0.44556 0.0
H3060 H 0.5107 0.58301 0.32373 0.0
H3061 H 0.49303 0.56373 0.31603 0.0
H3062 H 0.47963 0.56931 0.43844 0.0
H3063 H 0.49716 0.58842 0.44649 0.0
H3064 H 0.47852 0.54742 0.4329 0.0
H3065 H 0.45962 0.5564 0.28312 0.0
H3066 H 0.47452 0.5596 0.27914 0.0
H3067 H 0.47088 0.56795 0.31611 0.0
C3068 C 0.50395 0.58014 0.34884 0.0
C3069 C 0.50533 0.58726 0.38569 0.0
C3070 C 0.49384 0.56915 0.3443 0.0
C3071 C 0.48496 0.56512 0.37646 0.0
C3072 C 0.48636 0.57223 0.41318 0.0
H3073 H 0.41768 0.50943 0.447 0.0
H3074 H 0.43694 0.52677 0.43959 0.0
C3075 C 0.49639 0.58318 0.41769 0.0
C3076 C 0.47428 0.55341 0.3731 0.0
H3077 H 0.44886 0.53766 0.31491 0.0
C3078 C 0.47209 0.54525 0.40688 0.0
C3079 C 0.46593 0.55055 0.33895 0.0
C3080 C 0.46775 0.55908 0.30233 0.0
C3081 C 0.46165 0.53445 0.40811 0.0
C3082 C 0.45306 0.5318 0.37509 0.0
C3083 C 0.45544 0.53973 0.34024 0.0
C3084 C 0.44126 0.52126 0.37834 0.0
C3085 C 0.45984 0.52601 0.44507 0.0
C3086 C 0.43712 0.5125 0.34566 0.0
C3087 C 0.42603 0.50251 0.34978 0.0
C3088 C 0.41887 0.50118 0.38646 0.0
C3089 C 0.42298 0.51011 0.41851 0.0
C3090 C 0.43403 0.52003 0.41444 0.0
H3091 H 0.4683 0.52772 0.45947 0.0
H3092 H 0.45467 0.52702 0.47193 0.0
H3093 H 0.45498 0.51683 0.43318 0.0
H3094 H 0.44253 0.51332 0.31735 0.0
H3095 H 0.42309 0.4958 0.32448 0.0
loop_
_geom_bond_atom_site_label_1
_geom_bond_atom_site_label_2
_geom_bond_distance
_geom_bond_site_symmetry_2
_ccdc_geom_bond_type
Co0 O1 2.216 . S
Co0 O2 2.091 . S
Co0 O4 2.004 . S
Co0 O10 2.021 . S
Co0 O12 2.137 . S
Co0 O13 2.244 . S
O1 Co0 2.216 . S
O1 C8 1.247 . S
O2 Co0 2.091 . S
O2 C8 1.261 . S
C3 O12 1.247 . S
C3 O13 1.272 . S
O4 Co0 2.004 . S
O4 C9 1.259 . S
Co5 O6 2.061 . S
Co5 O11 2.052 . S
Co5 O13 2.135 . S
O6 Co5 2.061 . S
O6 C9 1.235 . S
C7 O10 1.238 . S
C7 O11 1.241 . S
C8 O1 1.247 . S
C8 O2 1.261 . S
C9 O4 1.259 . S
C9 O6 1.235 . S
O10 Co0 2.021 . S
O10 C7 1.238 . S
O11 Co5 2.052 . S
O11 C7 1.241 . S
O12 Co0 2.137 . S
O12 C3 1.247 . S
O13 Co0 2.244 . S
O13 C3 1.272 . S
O13 Co5 2.135 . S
Co14 O15 2.216 . S
Co14 O16 2.091 . S
Co14 O18 2.004 . S
Co14 O24 2.021 . S
Co14 O26 2.137 . S
Co14 O27 2.244 . S
O15 Co14 2.216 . S
O15 C22 1.247 . S
O16 Co14 2.091 . S
O16 C22 1.261 . S
C17 O26 1.247 . S
C17 O27 1.272 . S
O18 Co14 2.004 . S
O18 C23 1.259 . S
Co19 O20 2.061 . S
Co19 O25 2.052 . S
Co19 O27 2.135 . S
O20 Co19 2.061 . S
O20 C23 1.235 . S
C21 O24 1.238 . S
C21 O25 1.241 . S
C22 O15 1.247 . S
C22 O16 1.261 . S
C23 O18 1.259 . S
C23 O20 1.235 . S
O24 Co14 2.021 . S
O24 C21 1.238 . S
O25 Co19 2.052 . S
O25 C21 1.241 . S
O26 Co14 2.137 . S
O26 C17 1.247 . S
O27 Co14 2.244 . S
O27 C17 1.272 . S
O27 Co19 2.135 . S
Co28 O29 2.216 . S
Co28 O30 2.091 . S
Co28 O32 2.004 . S
Co28 O38 2.021 . S
Co28 O40 2.137 . S
Co28 O41 2.244 . S
O29 Co28 2.216 . S
O29 C36 1.247 . S
O30 Co28 2.091 . S
O30 C36 1.261 . S
C31 O40 1.247 . S
C31 O41 1.272 . S
O32 Co28 2.004 . S
O32 C37 1.259 . S
Co33 O34 2.061 . S
Co33 O39 2.052 . S
Co33 O41 2.135 . S
O34 Co33 2.061 . S
O34 C37 1.235 . S
C35 O38 1.238 . S
C35 O39 1.241 . S
C36 O29 1.247 . S
C36 O30 1.261 . S
C37 O32 1.259 . S
C37 O34 1.235 . S
O38 Co28 2.021 . S
O38 C35 1.238 . S
O39 Co33 2.052 . S
O39 C35 1.241 . S
O40 Co28 2.137 . S
O40 C31 1.247 . S
O41 Co28 2.244 . S
O41 C31 1.272 . S
O41 Co33 2.135 . S
Co42 O43 2.216 . S
Co42 O44 2.091 . S
Co42 O46 2.004 . S
Co42 O52 2.021 . S
Co42 O54 2.137 . S
Co42 O55 2.244 . S
O43 Co42 2.216 . S
O43 C50 1.247 . S
O44 Co42 2.091 . S
O44 C50 1.261 . S
C45 O54 1.247 . S
C45 O55 1.272 . S
O46 Co42 2.004 . S
O46 C51 1.259 . S
Co47 O48 2.061 . S
Co47 O53 2.052 . S
Co47 O55 2.135 . S
O48 Co47 2.061 . S
O48 C51 1.235 . S
C49 O52 1.238 . S
C49 O53 1.241 . S
C50 O43 1.247 . S
C50 O44 1.261 . S
C51 O46 1.259 . S
C51 O48 1.235 . S
O52 Co42 2.021 . S
O52 C49 1.238 . S
O53 Co47 2.052 . S
O53 C49 1.241 . S
O54 Co42 2.137 . S
O54 C45 1.247 . S
O55 Co42 2.244 . S
O55 C45 1.272 . S
O55 Co47 2.135 . S
Co56 O57 2.216 . S
Co56 O58 2.091 . S
Co56 O60 2.004 . S
Co56 O66 2.021 . S
Co56 O68 2.137 . S
Co56 O69 2.244 . S
O57 Co56 2.216 . S
O57 C64 1.247 . S
O58 Co56 2.091 . S
O58 C64 1.261 . S
C59 O68 1.247 . S
C59 O69 1.272 . S
O60 Co56 2.004 . S
O60 C65 1.259 . S
Co61 O62 2.061 . S
Co61 O67 2.052 . S
Co61 O69 2.135 . S
O62 Co61 2.061 . S
O62 C65 1.235 . S
C63 O66 1.238 . S
C63 O67 1.241 . S
C64 O57 1.247 . S
C64 O58 1.261 . S
C65 O60 1.259 . S
C65 O62 1.235 . S
O66 Co56 2.021 . S
O66 C63 1.238 . S
O67 Co61 2.052 . S
O67 C63 1.241 . S
O68 Co56 2.137 . S
O68 C59 1.247 . S
O69 Co56 2.244 . S
O69 C59 1.272 . S
O69 Co61 2.135 . S
Co70 O71 2.216 . S
Co70 O72 2.091 . S
Co70 O74 2.004 . S
Co70 O80 2.021 . S
Co70 O82 2.137 . S
Co70 O83 2.244 . S
O71 Co70 2.216 . S
O71 C78 1.247 . S
O72 Co70 2.091 . S
O72 C78 1.261 . S
C73 O82 1.247 . S
C73 O83 1.272 . S
O74 Co70 2.004 . S
O74 C79 1.259 . S
Co75 O76 2.061 . S
Co75 O81 2.052 . S
Co75 O83 2.135 . S
O76 Co75 2.061 . S
O76 C79 1.235 . S
C77 O80 1.238 . S
C77 O81 1.241 . S
C78 O71 1.247 . S
C78 O72 1.261 . S
C79 O74 1.259 . S
C79 O76 1.235 . S
O80 Co70 2.021 . S
O80 C77 1.238 . S
O81 Co75 2.052 . S
O81 C77 1.241 . S
O82 Co70 2.137 . S
O82 C73 1.247 . S
O83 Co70 2.244 . S
O83 C73 1.272 . S
O83 Co75 2.135 . S
Co84 O85 2.216 . S
Co84 O86 2.091 . S
Co84 O88 2.004 . S
Co84 O94 2.021 . S
Co84 O96 2.137 . S
Co84 O97 2.244 . S
O85 Co84 2.216 . S
O85 C92 1.247 . S
O86 Co84 2.091 . S
O86 C92 1.261 . S
C87 O96 1.247 . S
C87 O97 1.272 . S
O88 Co84 2.004 . S
O88 C93 1.259 . S
Co89 O90 2.061 . S
Co89 O95 2.052 . S
Co89 O97 2.135 . S
O90 Co89 2.061 . S
O90 C93 1.235 . S
C91 O94 1.238 . S
C91 O95 1.241 . S
C92 O85 1.247 . S
C92 O86 1.261 . S
C93 O88 1.259 . S
C93 O90 1.235 . S
O94 Co84 2.021 . S
O94 C91 1.238 . S
O95 Co89 2.052 . S
O95 C91 1.241 . S
O96 Co84 2.137 . S
O96 C87 1.247 . S
O97 Co84 2.244 . S
O97 C87 1.272 . S
O97 Co89 2.135 . S
Co98 O99 2.216 . S
Co98 O100 2.091 . S
Co98 O102 2.004 . S
Co98 O108 2.021 . S
Co98 O110 2.137 . S
Co98 O111 2.244 . S
O99 Co98 2.216 . S
O99 C106 1.247 . S
O100 Co98 2.091 . S
O100 C106 1.261 . S
C101 O110 1.247 . S
C101 O111 1.272 . S
O102 Co98 2.004 . S
O102 C107 1.259 . S
Co103 O104 2.061 . S
Co103 O109 2.052 . S
Co103 O111 2.135 . S
O104 Co103 2.061 . S
O104 C107 1.235 . S
C105 O108 1.238 . S
C105 O109 1.241 . S
C106 O99 1.247 . S
C106 O100 1.261 . S
C107 O102 1.259 . S
C107 O104 1.235 . S
O108 Co98 2.021 . S
O108 C105 1.238 . S
O109 Co103 2.052 . S
O109 C105 1.241 . S
O110 Co98 2.137 . S
O110 C101 1.247 . S
O111 Co98 2.244 . S
O111 C101 1.272 . S
O111 Co103 2.135 . S
Co112 O113 2.216 . S
Co112 O114 2.091 . S
Co112 O116 2.004 . S
Co112 O122 2.021 . S
Co112 O124 2.137 . S
Co112 O125 2.244 . S
O113 Co112 2.216 . S
O113 C120 1.247 . S
O114 Co112 2.091 . S
O114 C120 1.261 . S
C115 O124 1.247 . S
C115 O125 1.272 . S
O116 Co112 2.004 . S
O116 C121 1.259 . S
Co117 O118 2.061 . S
Co117 O123 2.052 . S
Co117 O125 2.135 . S
O118 Co117 2.061 . S
O118 C121 1.235 . S
C119 O122 1.238 . S
C119 O123 1.241 . S
C120 O113 1.247 . S
C120 O114 1.261 . S
C121 O116 1.259 . S
C121 O118 1.235 . S
O122 Co112 2.021 . S
O122 C119 1.238 . S
O123 Co117 2.052 . S
O123 C119 1.241 . S
O124 Co112 2.137 . S
O124 C115 1.247 . S
O125 Co112 2.244 . S
O125 C115 1.272 . S
O125 Co117 2.135 . S
Co126 O127 2.216 . S
Co126 O128 2.091 . S
Co126 O130 2.004 . S
Co126 O136 2.021 . S
Co126 O138 2.137 . S
Co126 O139 2.244 . S
O127 Co126 2.216 . S
O127 C134 1.247 . S
O128 Co126 2.091 . S
O128 C134 1.261 . S
C129 O138 1.247 . S
C129 O139 1.272 . S
O130 Co126 2.004 . S
O130 C135 1.259 . S
Co131 O132 2.061 . S
Co131 O137 2.052 . S
Co131 O139 2.135 . S
O132 Co131 2.061 . S
O132 C135 1.235 . S
C133 O136 1.238 . S
C133 O137 1.241 . S
C134 O127 1.247 . S
C134 O128 1.261 . S
C135 O130 1.259 . S
C135 O132 1.235 . S
O136 Co126 2.021 . S
O136 C133 1.238 . S
O137 Co131 2.052 . S
O137 C133 1.241 . S
O138 Co126 2.137 . S
O138 C129 1.247 . S
O139 Co126 2.244 . S
O139 C129 1.272 . S
O139 Co131 2.135 . S
Co140 O141 2.216 . S
Co140 O142 2.091 . S
Co140 O144 2.004 . S
Co140 O150 2.021 . S
Co140 O152 2.137 . S
Co140 O153 2.244 . S
O141 Co140 2.216 . S
O141 C148 1.247 . S
O142 Co140 2.091 . S
O142 C148 1.261 . S
C143 O152 1.247 . S
C143 O153 1.272 . S
O144 Co140 2.004 . S
O144 C149 1.259 . S
Co145 O146 2.061 . S
Co145 O151 2.052 . S
Co145 O153 2.135 . S
O146 Co145 2.061 . S
O146 C149 1.235 . S
C147 O150 1.238 . S
C147 O151 1.241 . S
C148 O141 1.247 . S
C148 O142 1.261 . S
C149 O144 1.259 . S
C149 O146 1.235 . S
O150 Co140 2.021 . S
O150 C147 1.238 . S
O151 Co145 2.052 . S
O151 C147 1.241 . S
O152 Co140 2.137 . S
O152 C143 1.247 . S
O153 Co140 2.244 . S
O153 C143 1.272 . S
O153 Co145 2.135 . S
Co154 O155 2.216 . S
Co154 O156 2.091 . S
Co154 O158 2.004 . S
Co154 O164 2.021 . S
Co154 O166 2.137 . S
Co154 O167 2.244 . S
O155 Co154 2.216 . S
O155 C162 1.247 . S
O156 Co154 2.091 . S
O156 C162 1.261 . S
C157 O166 1.247 . S
C157 O167 1.272 . S
O158 Co154 2.004 . S
O158 C163 1.259 . S
Co159 O160 2.061 . S
Co159 O165 2.052 . S
Co159 O167 2.135 . S
O160 Co159 2.061 . S
O160 C163 1.235 . S
C161 O164 1.238 . S
C161 O165 1.241 . S
C162 O155 1.247 . S
C162 O156 1.261 . S
C163 O158 1.259 . S
C163 O160 1.235 . S
O164 Co154 2.021 . S
O164 C161 1.238 . S
O165 Co159 2.052 . S
O165 C161 1.241 . S
O166 Co154 2.137 . S
O166 C157 1.247 . S
O167 Co154 2.244 . S
O167 C157 1.272 . S
O167 Co159 2.135 . S
Co168 O169 2.216 . S
Co168 O170 2.091 . S
Co168 O172 2.004 . S
Co168 O178 2.021 . S
Co168 O180 2.137 . S
Co168 O181 2.244 . S
O169 Co168 2.216 . S
O169 C176 1.247 . S
O170 Co168 2.091 . S
O170 C176 1.261 . S
C171 O180 1.247 . S
C171 O181 1.272 . S
O172 Co168 2.004 . S
O172 C177 1.259 . S
Co173 O174 2.061 . S
Co173 O179 2.052 . S
Co173 O181 2.135 . S
O174 Co173 2.061 . S
O174 C177 1.235 . S
C175 O178 1.238 . S
C175 O179 1.241 . S
C176 O169 1.247 . S
C176 O170 1.261 . S
C177 O172 1.259 . S
C177 O174 1.235 . S
O178 Co168 2.021 . S
O178 C175 1.238 . S
O179 Co173 2.052 . S
O179 C175 1.241 . S
O180 Co168 2.137 . S
O180 C171 1.247 . S
O181 Co168 2.244 . S
O181 C171 1.272 . S
O181 Co173 2.135 . S
Co182 O183 2.216 . S
Co182 O184 2.091 . S
Co182 O186 2.004 . S
Co182 O192 2.021 . S
Co182 O194 2.137 . S
Co182 O195 2.244 . S
O183 Co182 2.216 . S
O183 C190 1.247 . S
O184 Co182 2.091 . S
O184 C190 1.261 . S
C185 O194 1.247 . S
C185 O195 1.272 . S
O186 Co182 2.004 . S
O186 C191 1.259 . S
Co187 O188 2.061 . S
Co187 O193 2.052 . S
Co187 O195 2.135 . S
O188 Co187 2.061 . S
O188 C191 1.235 . S
C189 O192 1.238 . S
C189 O193 1.241 . S
C190 O183 1.247 . S
C190 O184 1.261 . S
C191 O186 1.259 . S
C191 O188 1.235 . S
O192 Co182 2.021 . S
O192 C189 1.238 . S
O193 Co187 2.052 . S
O193 C189 1.241 . S
O194 Co182 2.137 . S
O194 C185 1.247 . S
O195 Co182 2.244 . S
O195 C185 1.272 . S
O195 Co187 2.135 . S
Co196 O197 2.216 . S
Co196 O198 2.091 . S
Co196 O200 2.004 . S
Co196 O206 2.021 . S
Co196 O208 2.137 . S
Co196 O209 2.244 . S
O197 Co196 2.216 . S
O197 C204 1.247 . S
O198 Co196 2.091 . S
O198 C204 1.261 . S
C199 O208 1.247 . S
C199 O209 1.272 . S
O200 Co196 2.004 . S
O200 C205 1.259 . S
Co201 O202 2.061 . S
Co201 O207 2.052 . S
Co201 O209 2.135 . S
O202 Co201 2.061 . S
O202 C205 1.235 . S
C203 O206 1.238 . S
C203 O207 1.241 . S
C204 O197 1.247 . S
C204 O198 1.261 . S
C205 O200 1.259 . S
C205 O202 1.235 . S
O206 Co196 2.021 . S
O206 C203 1.238 . S
O207 Co201 2.052 . S
O207 C203 1.241 . S
O208 Co196 2.137 . S
O208 C199 1.247 . S
O209 Co196 2.244 . S
O209 C199 1.272 . S
O209 Co201 2.135 . S
Co210 O211 2.216 . S
Co210 O212 2.091 . S
Co210 O214 2.004 . S
Co210 O220 2.021 . S
Co210 O222 2.137 . S
Co210 O223 2.244 . S
O211 Co210 2.216 . S
O211 C218 1.247 . S
O212 Co210 2.091 . S
O212 C218 1.261 . S
C213 O222 1.247 . S
C213 O223 1.272 . S
O214 Co210 2.004 . S
O214 C219 1.259 . S
Co215 O216 2.061 . S
Co215 O221 2.052 . S
Co215 O223 2.135 . S
O216 Co215 2.061 . S
O216 C219 1.235 . S
C217 O220 1.238 . S
C217 O221 1.241 . S
C218 O211 1.247 . S
C218 O212 1.261 . S
C219 O214 1.259 . S
C219 O216 1.235 . S
O220 Co210 2.021 . S
O220 C217 1.238 . S
O221 Co215 2.052 . S
O221 C217 1.241 . S
O222 Co210 2.137 . S
O222 C213 1.247 . S
O223 Co210 2.244 . S
O223 C213 1.272 . S
O223 Co215 2.135 . S
Co224 O225 2.216 . S
Co224 O226 2.091 . S
Co224 O228 2.004 . S
Co224 O234 2.021 . S
Co224 O236 2.137 . S
Co224 O237 2.244 . S
O225 Co224 2.216 . S
O225 C232 1.247 . S
O226 Co224 2.091 . S
O226 C232 1.261 . S
C227 O236 1.247 . S
C227 O237 1.272 . S
O228 Co224 2.004 . S
O228 C233 1.259 . S
Co229 O230 2.061 . S
Co229 O235 2.052 . S
Co229 O237 2.135 . S
O230 Co229 2.061 . S
O230 C233 1.235 . S
C231 O234 1.238 . S
C231 O235 1.241 . S
C232 O225 1.247 . S
C232 O226 1.261 . S
C233 O228 1.259 . S
C233 O230 1.235 . S
O234 Co224 2.021 . S
O234 C231 1.238 . S
O235 Co229 2.052 . S
O235 C231 1.241 . S
O236 Co224 2.137 . S
O236 C227 1.247 . S
O237 Co224 2.244 . S
O237 C227 1.272 . S
O237 Co229 2.135 . S
Co238 O239 2.216 . S
Co238 O240 2.091 . S
Co238 O242 2.004 . S
Co238 O248 2.021 . S
Co238 O250 2.137 . S
Co238 O251 2.244 . S
O239 Co238 2.216 . S
O239 C246 1.247 . S
O240 Co238 2.091 . S
O240 C246 1.261 . S
C241 O250 1.247 . S
C241 O251 1.272 . S
O242 Co238 2.004 . S
O242 C247 1.259 . S
Co243 O244 2.061 . S
Co243 O249 2.052 . S
Co243 O251 2.135 . S
O244 Co243 2.061 . S
O244 C247 1.235 . S
C245 O248 1.238 . S
C245 O249 1.241 . S
C246 O239 1.247 . S
C246 O240 1.261 . S
C247 O242 1.259 . S
C247 O244 1.235 . S
O248 Co238 2.021 . S
O248 C245 1.238 . S
O249 Co243 2.052 . S
O249 C245 1.241 . S
O250 Co238 2.137 . S
O250 C241 1.247 . S
O251 Co238 2.244 . S
O251 C241 1.272 . S
O251 Co243 2.135 . S
Co252 O253 2.216 . S
Co252 O254 2.091 . S
Co252 O256 2.004 . S
Co252 O262 2.021 . S
Co252 O264 2.137 . S
Co252 O265 2.244 . S
O253 Co252 2.216 . S
O253 C260 1.247 . S
O254 Co252 2.091 . S
O254 C260 1.261 . S
C255 O264 1.247 . S
C255 O265 1.272 . S
O256 Co252 2.004 . S
O256 C261 1.259 . S
Co257 O258 2.061 . S
Co257 O263 2.052 . S
Co257 O265 2.135 . S
O258 Co257 2.061 . S
O258 C261 1.235 . S
C259 O262 1.238 . S
C259 O263 1.241 . S
C260 O253 1.247 . S
C260 O254 1.261 . S
C261 O256 1.259 . S
C261 O258 1.235 . S
O262 Co252 2.021 . S
O262 C259 1.238 . S
O263 Co257 2.052 . S
O263 C259 1.241 . S
O264 Co252 2.137 . S
O264 C255 1.247 . S
O265 Co252 2.244 . S
O265 C255 1.272 . S
O265 Co257 2.135 . S
Co266 O267 2.216 . S
Co266 O268 2.091 . S
Co266 O270 2.004 . S
Co266 O276 2.021 . S
Co266 O278 2.137 . S
Co266 O279 2.244 . S
O267 Co266 2.216 . S
O267 C274 1.247 . S
O268 Co266 2.091 . S
O268 C274 1.261 . S
C269 O278 1.247 . S
C269 O279 1.272 . S
O270 Co266 2.004 . S
O270 C275 1.259 . S
Co271 O272 2.061 . S
Co271 O277 2.052 . S
Co271 O279 2.135 . S
O272 Co271 2.061 . S
O272 C275 1.235 . S
C273 O276 1.238 . S
C273 O277 1.241 . S
C274 O267 1.247 . S
C274 O268 1.261 . S
C275 O270 1.259 . S
C275 O272 1.235 . S
O276 Co266 2.021 . S
O276 C273 1.238 . S
O277 Co271 2.052 . S
O277 C273 1.241 . S
O278 Co266 2.137 . S
O278 C269 1.247 . S
O279 Co266 2.244 . S
O279 C269 1.272 . S
O279 Co271 2.135 . S
Co280 O281 2.216 . S
Co280 O282 2.091 . S
Co280 O284 2.004 . S
Co280 O290 2.021 . S
Co280 O292 2.137 . S
Co280 O293 2.244 . S
O281 Co280 2.216 . S
O281 C288 1.247 . S
O282 Co280 2.091 . S
O282 C288 1.261 . S
C283 O292 1.247 . S
C283 O293 1.272 . S
O284 Co280 2.004 . S
O284 C289 1.259 . S
Co285 O286 2.061 . S
Co285 O291 2.052 . S
Co285 O293 2.135 . S
O286 Co285 2.061 . S
O286 C289 1.235 . S
C287 O290 1.238 . S
C287 O291 1.241 . S
C288 O281 1.247 . S
C288 O282 1.261 . S
C289 O284 1.259 . S
C289 O286 1.235 . S
O290 Co280 2.021 . S
O290 C287 1.238 . S
O291 Co285 2.052 . S
O291 C287 1.241 . S
O292 Co280 2.137 . S
O292 C283 1.247 . S
O293 Co280 2.244 . S
O293 C283 1.272 . S
O293 Co285 2.135 . S
Co294 O295 2.216 . S
Co294 O296 2.091 . S
Co294 O298 2.004 . S
Co294 O304 2.021 . S
Co294 O306 2.137 . S
Co294 O307 2.244 . S
O295 Co294 2.216 . S
O295 C302 1.247 . S
O296 Co294 2.091 . S
O296 C302 1.261 . S
C297 O306 1.247 . S
C297 O307 1.272 . S
O298 Co294 2.004 . S
O298 C303 1.259 . S
Co299 O300 2.061 . S
Co299 O305 2.052 . S
Co299 O307 2.135 . S
O300 Co299 2.061 . S
O300 C303 1.235 . S
C301 O304 1.238 . S
C301 O305 1.241 . S
C302 O295 1.247 . S
C302 O296 1.261 . S
C303 O298 1.259 . S
C303 O300 1.235 . S
O304 Co294 2.021 . S
O304 C301 1.238 . S
O305 Co299 2.052 . S
O305 C301 1.241 . S
O306 Co294 2.137 . S
O306 C297 1.247 . S
O307 Co294 2.244 . S
O307 C297 1.272 . S
O307 Co299 2.135 . S
Co308 O309 2.216 . S
Co308 O310 2.091 . S
Co308 O312 2.004 . S
Co308 O318 2.021 . S
Co308 O320 2.137 . S
Co308 O321 2.244 . S
O309 Co308 2.216 . S
O309 C316 1.247 . S
O310 Co308 2.091 . S
O310 C316 1.261 . S
C311 O320 1.247 . S
C311 O321 1.272 . S
O312 Co308 2.004 . S
O312 C317 1.259 . S
Co313 O314 2.061 . S
Co313 O319 2.052 . S
Co313 O321 2.135 . S
O314 Co313 2.061 . S
O314 C317 1.235 . S
C315 O318 1.238 . S
C315 O319 1.241 . S
C316 O309 1.247 . S
C316 O310 1.261 . S
C317 O312 1.259 . S
C317 O314 1.235 . S
O318 Co308 2.021 . S
O318 C315 1.238 . S
O319 Co313 2.052 . S
O319 C315 1.241 . S
O320 Co308 2.137 . S
O320 C311 1.247 . S
O321 Co308 2.244 . S
O321 C311 1.272 . S
O321 Co313 2.135 . S
Co322 O323 2.216 . S
Co322 O324 2.091 . S
Co322 O326 2.004 . S
Co322 O332 2.021 . S
Co322 O334 2.137 . S
Co322 O335 2.244 . S
O323 Co322 2.216 . S
O323 C330 1.247 . S
O324 Co322 2.091 . S
O324 C330 1.261 . S
C325 O334 1.247 . S
C325 O335 1.272 . S
O326 Co322 2.004 . S
O326 C331 1.259 . S
Co327 O328 2.061 . S
Co327 O333 2.052 . S
Co327 O335 2.135 . S
O328 Co327 2.061 . S
O328 C331 1.235 . S
C329 O332 1.238 . S
C329 O333 1.241 . S
C330 O323 1.247 . S
C330 O324 1.261 . S
C331 O326 1.259 . S
C331 O328 1.235 . S
O332 Co322 2.021 . S
O332 C329 1.238 . S
O333 Co327 2.052 . S
O333 C329 1.241 . S
O334 Co322 2.137 . S
O334 C325 1.247 . S
O335 Co322 2.244 . S
O335 C325 1.272 . S
O335 Co327 2.135 . S
Co336 O337 2.216 . S
Co336 O338 2.091 . S
Co336 O340 2.004 . S
Co336 O346 2.021 . S
Co336 O348 2.137 . S
Co336 O349 2.244 . S
O337 Co336 2.216 . S
O337 C344 1.247 . S
O338 Co336 2.091 . S
O338 C344 1.261 . S
C339 O348 1.247 . S
C339 O349 1.272 . S
O340 Co336 2.004 . S
O340 C345 1.259 . S
Co341 O342 2.061 . S
Co341 O347 2.052 . S
Co341 O349 2.135 . S
O342 Co341 2.061 . S
O342 C345 1.235 . S
C343 O346 1.238 . S
C343 O347 1.241 . S
C344 O337 1.247 . S
C344 O338 1.261 . S
C345 O340 1.259 . S
C345 O342 1.235 . S
O346 Co336 2.021 . S
O346 C343 1.238 . S
O347 Co341 2.052 . S
O347 C343 1.241 . S
O348 Co336 2.137 . S
O348 C339 1.247 . S
O349 Co336 2.244 . S
O349 C339 1.272 . S
O349 Co341 2.135 . S
Co350 O351 2.216 . S
Co350 O352 2.091 . S
Co350 O354 2.004 . S
Co350 O360 2.021 . S
Co350 O362 2.137 . S
Co350 O363 2.244 . S
O351 Co350 2.216 . S
O351 C358 1.247 . S
O352 Co350 2.091 . S
O352 C358 1.261 . S
C353 O362 1.247 . S
C353 O363 1.272 . S
O354 Co350 2.004 . S
O354 C359 1.259 . S
Co355 O356 2.061 . S
Co355 O361 2.052 . S
Co355 O363 2.135 . S
O356 Co355 2.061 . S
O356 C359 1.235 . S
C357 O360 1.238 . S
C357 O361 1.241 . S
C358 O351 1.247 . S
C358 O352 1.261 . S
C359 O354 1.259 . S
C359 O356 1.235 . S
O360 Co350 2.021 . S
O360 C357 1.238 . S
O361 Co355 2.052 . S
O361 C357 1.241 . S
O362 Co350 2.137 . S
O362 C353 1.247 . S
O363 Co350 2.244 . S
O363 C353 1.272 . S
O363 Co355 2.135 . S
Co364 O365 2.216 . S
Co364 O366 2.091 . S
Co364 O368 2.004 . S
Co364 O374 2.021 . S
Co364 O376 2.137 . S
Co364 O377 2.244 . S
O365 Co364 2.216 . S
O365 C372 1.247 . S
O366 Co364 2.091 . S
O366 C372 1.261 . S
C367 O376 1.247 . S
C367 O377 1.272 . S
O368 Co364 2.004 . S
O368 C373 1.259 . S
Co369 O370 2.061 . S
Co369 O375 2.052 . S
Co369 O377 2.135 . S
O370 Co369 2.061 . S
O370 C373 1.235 . S
C371 O374 1.238 . S
C371 O375 1.241 . S
C372 O365 1.247 . S
C372 O366 1.261 . S
C373 O368 1.259 . S
C373 O370 1.235 . S
O374 Co364 2.021 . S
O374 C371 1.238 . S
O375 Co369 2.052 . S
O375 C371 1.241 . S
O376 Co364 2.137 . S
O376 C367 1.247 . S
O377 Co364 2.244 . S
O377 C367 1.272 . S
O377 Co369 2.135 . S
Co378 O379 2.216 . S
Co378 O380 2.091 . S
Co378 O382 2.004 . S
Co378 O388 2.021 . S
Co378 O390 2.137 . S
Co378 O391 2.244 . S
O379 Co378 2.216 . S
O379 C386 1.247 . S
O380 Co378 2.091 . S
O380 C386 1.261 . S
C381 O390 1.247 . S
C381 O391 1.272 . S
O382 Co378 2.004 . S
O382 C387 1.259 . S
Co383 O384 2.061 . S
Co383 O389 2.052 . S
Co383 O391 2.135 . S
O384 Co383 2.061 . S
O384 C387 1.235 . S
C385 O388 1.238 . S
C385 O389 1.241 . S
C386 O379 1.247 . S
C386 O380 1.261 . S
C387 O382 1.259 . S
C387 O384 1.235 . S
O388 Co378 2.021 . S
O388 C385 1.238 . S
O389 Co383 2.052 . S
O389 C385 1.241 . S
O390 Co378 2.137 . S
O390 C381 1.247 . S
O391 Co378 2.244 . S
O391 C381 1.272 . S
O391 Co383 2.135 . S
Co392 O393 2.216 . S
Co392 O394 2.091 . S
Co392 O396 2.004 . S
Co392 O402 2.021 . S
Co392 O404 2.137 . S
Co392 O405 2.244 . S
O393 Co392 2.216 . S
O393 C400 1.247 . S
O394 Co392 2.091 . S
O394 C400 1.261 . S
C395 O404 1.247 . S
C395 O405 1.272 . S
O396 Co392 2.004 . S
O396 C401 1.259 . S
Co397 O398 2.061 . S
Co397 O403 2.052 . S
Co397 O405 2.135 . S
O398 Co397 2.061 . S
O398 C401 1.235 . S
C399 O402 1.238 . S
C399 O403 1.241 . S
C400 O393 1.247 . S
C400 O394 1.261 . S
C401 O396 1.259 . S
C401 O398 1.235 . S
O402 Co392 2.021 . S
O402 C399 1.238 . S
O403 Co397 2.052 . S
O403 C399 1.241 . S
O404 Co392 2.137 . S
O404 C395 1.247 . S
O405 Co392 2.244 . S
O405 C395 1.272 . S
O405 Co397 2.135 . S
Co406 O407 2.216 . S
Co406 O408 2.091 . S
Co406 O410 2.004 . S
Co406 O416 2.021 . S
Co406 O418 2.137 . S
Co406 O419 2.244 . S
O407 Co406 2.216 . S
O407 C414 1.247 . S
O408 Co406 2.091 . S
O408 C414 1.261 . S
C409 O418 1.247 . S
C409 O419 1.272 . S
O410 Co406 2.004 . S
O410 C415 1.259 . S
Co411 O412 2.061 . S
Co411 O417 2.052 . S
Co411 O419 2.135 . S
O412 Co411 2.061 . S
O412 C415 1.235 . S
C413 O416 1.238 . S
C413 O417 1.241 . S
C414 O407 1.247 . S
C414 O408 1.261 . S
C415 O410 1.259 . S
C415 O412 1.235 . S
O416 Co406 2.021 . S
O416 C413 1.238 . S
O417 Co411 2.052 . S
O417 C413 1.241 . S
O418 Co406 2.137 . S
O418 C409 1.247 . S
O419 Co406 2.244 . S
O419 C409 1.272 . S
O419 Co411 2.135 . S
Co420 O421 2.216 . S
Co420 O422 2.091 . S
Co420 O424 2.004 . S
Co420 O430 2.021 . S
Co420 O432 2.137 . S
Co420 O433 2.244 . S
O421 Co420 2.216 . S
O421 C428 1.247 . S
O422 Co420 2.091 . S
O422 C428 1.261 . S
C423 O432 1.247 . S
C423 O433 1.272 . S
O424 Co420 2.004 . S
O424 C429 1.259 . S
Co425 O426 2.061 . S
Co425 O431 2.052 . S
Co425 O433 2.135 . S
O426 Co425 2.061 . S
O426 C429 1.235 . S
C427 O430 1.238 . S
C427 O431 1.241 . S
C428 O421 1.247 . S
C428 O422 1.261 . S
C429 O424 1.259 . S
C429 O426 1.235 . S
O430 Co420 2.021 . S
O430 C427 1.238 . S
O431 Co425 2.052 . S
O431 C427 1.241 . S
O432 Co420 2.137 . S
O432 C423 1.247 . S
O433 Co420 2.244 . S
O433 C423 1.272 . S
O433 Co425 2.135 . S
Co434 O435 2.216 . S
Co434 O436 2.091 . S
Co434 O438 2.004 . S
Co434 O444 2.021 . S
Co434 O446 2.137 . S
Co434 O447 2.244 . S
O435 Co434 2.216 . S
O435 C442 1.247 . S
O436 Co434 2.091 . S
O436 C442 1.261 . S
C437 O446 1.247 . S
C437 O447 1.272 . S
O438 Co434 2.004 . S
O438 C443 1.259 . S
Co439 O440 2.061 . S
Co439 O445 2.052 . S
Co439 O447 2.135 . S
O440 Co439 2.061 . S
O440 C443 1.235 . S
C441 O444 1.238 . S
C441 O445 1.241 . S
C442 O435 1.247 . S
C442 O436 1.261 . S
C443 O438 1.259 . S
C443 O440 1.235 . S
O444 Co434 2.021 . S
O444 C441 1.238 . S
O445 Co439 2.052 . S
O445 C441 1.241 . S
O446 Co434 2.137 . S
O446 C437 1.247 . S
O447 Co434 2.244 . S
O447 C437 1.272 . S
O447 Co439 2.135 . S
Co448 O449 2.216 . S
Co448 O450 2.091 . S
Co448 O452 2.004 . S
Co448 O458 2.021 . S
Co448 O460 2.137 . S
Co448 O461 2.244 . S
O449 Co448 2.216 . S
O449 C456 1.247 . S
O450 Co448 2.091 . S
O450 C456 1.261 . S
C451 O460 1.247 . S
C451 O461 1.272 . S
O452 Co448 2.004 . S
O452 C457 1.259 . S
Co453 O454 2.061 . S
Co453 O459 2.052 . S
Co453 O461 2.135 . S
O454 Co453 2.061 . S
O454 C457 1.235 . S
C455 O458 1.238 . S
C455 O459 1.241 . S
C456 O449 1.247 . S
C456 O450 1.261 . S
C457 O452 1.259 . S
C457 O454 1.235 . S
O458 Co448 2.021 . S
O458 C455 1.238 . S
O459 Co453 2.052 . S
O459 C455 1.241 . S
O460 Co448 2.137 . S
O460 C451 1.247 . S
O461 Co448 2.244 . S
O461 C451 1.272 . S
O461 Co453 2.135 . S
Co462 O463 2.216 . S
Co462 O464 2.091 . S
Co462 O466 2.004 . S
Co462 O472 2.021 . S
Co462 O474 2.137 . S
Co462 O475 2.244 . S
O463 Co462 2.216 . S
O463 C470 1.247 . S
O464 Co462 2.091 . S
O464 C470 1.261 . S
C465 O474 1.247 . S
C465 O475 1.272 . S
O466 Co462 2.004 . S
O466 C471 1.259 . S
Co467 O468 2.061 . S
Co467 O473 2.052 . S
Co467 O475 2.135 . S
O468 Co467 2.061 . S
O468 C471 1.235 . S
C469 O472 1.238 . S
C469 O473 1.241 . S
C470 O463 1.247 . S
C470 O464 1.261 . S
C471 O466 1.259 . S
C471 O468 1.235 . S
O472 Co462 2.021 . S
O472 C469 1.238 . S
O473 Co467 2.052 . S
O473 C469 1.241 . S
O474 Co462 2.137 . S
O474 C465 1.247 . S
O475 Co462 2.244 . S
O475 C465 1.272 . S
O475 Co467 2.135 . S
Co476 O477 2.216 . S
Co476 O478 2.091 . S
Co476 O480 2.004 . S
Co476 O486 2.021 . S
Co476 O488 2.137 . S
Co476 O489 2.244 . S
O477 Co476 2.216 . S
O477 C484 1.247 . S
O478 Co476 2.091 . S
O478 C484 1.261 . S
C479 O488 1.247 . S
C479 O489 1.272 . S
O480 Co476 2.004 . S
O480 C485 1.259 . S
Co481 O482 2.061 . S
Co481 O487 2.052 . S
Co481 O489 2.135 . S
O482 Co481 2.061 . S
O482 C485 1.235 . S
C483 O486 1.238 . S
C483 O487 1.241 . S
C484 O477 1.247 . S
C484 O478 1.261 . S
C485 O480 1.259 . S
C485 O482 1.235 . S
O486 Co476 2.021 . S
O486 C483 1.238 . S
O487 Co481 2.052 . S
O487 C483 1.241 . S
O488 Co476 2.137 . S
O488 C479 1.247 . S
O489 Co476 2.244 . S
O489 C479 1.272 . S
O489 Co481 2.135 . S
Co490 O491 2.216 . S
Co490 O492 2.091 . S
Co490 O494 2.004 . S
Co490 O500 2.021 . S
Co490 O502 2.137 . S
Co490 O503 2.244 . S
O491 Co490 2.216 . S
O491 C498 1.247 . S
O492 Co490 2.091 . S
O492 C498 1.261 . S
C493 O502 1.247 . S
C493 O503 1.272 . S
O494 Co490 2.004 . S
O494 C499 1.259 . S
Co495 O496 2.061 . S
Co495 O501 2.052 . S
Co495 O503 2.135 . S
O496 Co495 2.061 . S
O496 C499 1.235 . S
C497 O500 1.238 . S
C497 O501 1.241 . S
C498 O491 1.247 . S
C498 O492 1.261 . S
C499 O494 1.259 . S
C499 O496 1.235 . S
O500 Co490 2.021 . S
O500 C497 1.238 . S
O501 Co495 2.052 . S
O501 C497 1.241 . S
O502 Co490 2.137 . S
O502 C493 1.247 . S
O503 Co490 2.244 . S
O503 C493 1.272 . S
O503 Co495 2.135 . S
H504 C512 0.929 . S
H505 C514 0.930 . S
H506 C516 0.930 . S
H507 C519 0.929 . S
H508 C522 0.930 . S
H509 C524 0.960 . S
H510 C524 0.960 . S
H511 C524 0.960 . S
C512 H504 0.929 . S
C512 C513 1.377 . S
C512 C514 1.384 . S
C513 C512 1.377 . S
C513 C519 1.390 . S
C514 H505 0.930 . S
C514 C512 1.384 . S
C514 C515 1.372 . S
C515 C514 1.372 . S
C515 C516 1.400 . S
C515 C520 1.490 . S
C516 H506 0.930 . S
C516 C515 1.400 . S
C516 C519 1.386 . S
H517 C533 0.930 . S
H518 C534 0.931 . S
C519 H507 0.929 . S
C519 C513 1.390 . S
C519 C516 1.386 . S
C520 C515 1.490 . S
C520 C522 1.395 1_565 S
C520 C523 1.403 . S
H521 C527 0.948 . S
C522 H508 0.930 . S
C522 C520 1.395 1_545 S
C522 C525 1.403 . S
C523 C520 1.403 . S
C523 C524 1.524 . S
C523 C527 1.375 1_565 S
C524 H509 0.960 . S
C524 H510 0.960 . S
C524 H511 0.960 . S
C524 C523 1.524 . S
C525 C522 1.403 . S
C525 C526 1.392 . S
C525 C529 1.495 . S
C526 C525 1.392 . S
C526 C527 1.399 . S
C526 C528 1.478 . S
C527 H521 0.948 . S
C527 C523 1.375 1_545 S
C527 C526 1.399 . S
C528 C526 1.478 . S
C528 C530 1.381 . S
C528 C534 1.383 . S
C529 C525 1.495 . S
C529 H535 0.959 . S
C529 H536 0.961 . S
C529 H537 0.960 . S
C530 C528 1.381 . S
C530 C531 1.394 . S
C530 H538 0.930 . S
C531 C530 1.394 . S
C531 C532 1.383 . S
C531 H539 0.929 . S
C532 C531 1.383 . S
C532 C533 1.377 . S
C533 H517 0.930 . S
C533 C532 1.377 . S
C533 C534 1.379 . S
C534 H518 0.931 . S
C534 C528 1.383 . S
C534 C533 1.379 . S
H535 C529 0.959 . S
H536 C529 0.961 . S
H537 C529 0.960 . S
H538 C530 0.930 . S
H539 C531 0.929 . S
H540 C548 0.929 . S
H541 C550 0.930 . S
H542 C552 0.930 . S
H543 C555 0.929 . S
H544 C558 0.930 . S
H545 C560 0.960 . S
H546 C560 0.960 . S
H547 C560 0.960 . S
C548 H540 0.929 . S
C548 C549 1.377 . S
C548 C550 1.384 . S
C549 C548 1.377 . S
C549 C555 1.390 . S
C550 H541 0.930 . S
C550 C548 1.384 . S
C550 C551 1.372 . S
C551 C550 1.372 . S
C551 C552 1.400 . S
C551 C556 1.490 . S
C552 H542 0.930 . S
C552 C551 1.400 . S
C552 C555 1.386 . S
H553 C569 0.930 . S
H554 C570 0.931 . S
C555 H543 0.929 . S
C555 C549 1.390 . S
C555 C552 1.386 . S
C556 C551 1.490 . S
C556 C558 1.395 . S
C556 C559 1.403 1_455 S
H557 C563 0.930 . S
C558 H544 0.930 . S
C558 C556 1.395 . S
C558 C561 1.403 . S
C559 C556 1.403 1_655 S
C559 C560 1.524 . S
C559 C563 1.400 . S
C560 H545 0.960 . S
C560 H546 0.960 . S
C560 H547 0.960 . S
C560 C559 1.524 . S
C561 C558 1.403 . S
C561 C562 1.392 1_455 S
C561 C565 1.495 . S
C562 C561 1.392 1_655 S
C562 C563 1.385 . S
C562 C564 1.478 . S
C563 H557 0.930 . S
C563 C559 1.400 . S
C563 C562 1.385 . S
C564 C562 1.478 . S
C564 C566 1.381 . S
C564 C570 1.383 . S
C565 C561 1.495 . S
C565 H571 0.959 . S
C565 H572 0.961 . S
C565 H573 0.960 . S
C566 C564 1.381 . S
C566 C567 1.394 . S
C566 H574 0.930 . S
C567 C566 1.394 . S
C567 C568 1.383 . S
C567 H575 0.929 . S
C568 C567 1.383 . S
C568 C569 1.377 . S
C569 H553 0.930 . S
C569 C568 1.377 . S
C569 C570 1.379 . S
C570 H554 0.931 . S
C570 C564 1.383 . S
C570 C569 1.379 . S
H571 C565 0.959 . S
H572 C565 0.961 . S
H573 C565 0.960 . S
H574 C566 0.930 . S
H575 C567 0.929 . S
H576 C584 0.929 . S
H577 C586 0.930 . S
H578 C588 0.930 . S
H579 C591 0.929 . S
H580 C594 0.930 . S
H581 C596 0.960 . S
H582 C596 0.960 . S
H583 C596 0.960 . S
C584 H576 0.929 . S
C584 C585 1.377 . S
C584 C586 1.384 . S
C585 C584 1.377 . S
C585 C591 1.390 . S
C586 H577 0.930 . S
C586 C584 1.384 . S
C586 C587 1.372 . S
C587 C586 1.372 . S
C587 C588 1.400 . S
C587 C592 1.490 . S
C588 H578 0.930 . S
C588 C587 1.400 . S
C588 C591 1.386 . S
H589 C605 0.930 . S
H590 C606 0.931 . S
C591 H579 0.929 . S
C591 C585 1.390 . S
C591 C588 1.386 . S
C592 C587 1.490 . S
C592 C594 1.395 . S
C592 C595 1.403 . S
H593 C599 0.930 . S
C594 H580 0.930 . S
C594 C592 1.395 . S
C594 C597 1.403 . S
C595 C592 1.403 . S
C595 C596 1.524 . S
C595 C599 1.400 . S
C596 H581 0.960 . S
C596 H582 0.960 . S
C596 H583 0.960 . S
C596 C595 1.524 . S
C597 C594 1.403 . S
C597 C598 1.392 . S
C597 C601 1.495 . S
C598 C597 1.392 . S
C598 C599 1.385 . S
C598 C600 1.478 . S
C599 H593 0.930 . S
C599 C595 1.400 . S
C599 C598 1.385 . S
C600 C598 1.478 . S
C600 C602 1.381 . S
C600 C606 1.383 . S
C601 C597 1.495 . S
C601 H607 0.959 . S
C601 H608 0.961 . S
C601 H609 0.960 . S
C602 C600 1.381 . S
C602 C603 1.394 . S
C602 H610 0.930 . S
C603 C602 1.394 . S
C603 C604 1.383 . S
C603 H611 0.929 . S
C604 C603 1.383 . S
C604 C605 1.377 . S
C605 H589 0.930 . S
C605 C604 1.377 . S
C605 C606 1.379 . S
C606 H590 0.931 . S
C606 C600 1.383 . S
C606 C605 1.379 . S
H607 C601 0.959 . S
H608 C601 0.961 . S
H609 C601 0.960 . S
H610 C602 0.930 . S
H611 C603 0.929 . S
H612 C620 0.929 . S
H613 C622 0.930 . S
H614 C624 0.930 . S
H615 C627 0.929 . S
H616 C630 0.930 . S
H617 C632 0.960 . S
H618 C632 0.960 . S
H619 C632 0.960 . S
C620 H612 0.929 . S
C620 C621 1.377 . S
C620 C622 1.384 . S
C621 C620 1.377 . S
C621 C627 1.390 . S
C622 H613 0.930 . S
C622 C620 1.384 . S
C622 C623 1.372 . S
C623 C622 1.372 . S
C623 C624 1.400 . S
C623 C628 1.490 . S
C624 H614 0.930 . S
C624 C623 1.400 . S
C624 C627 1.386 . S
H625 C641 0.930 . S
H626 C642 0.931 . S
C627 H615 0.929 . S
C627 C621 1.390 . S
C627 C624 1.386 . S
C628 C623 1.490 . S
C628 C630 1.395 . S
C628 C631 1.403 1_565 S
H629 C635 0.930 . S
C630 H616 0.930 . S
C630 C628 1.395 . S
C630 C633 1.403 . S
C631 C628 1.403 1_545 S
C631 C632 1.524 . S
C631 C635 1.400 . S
C632 H617 0.960 . S
C632 H618 0.960 . S
C632 H619 0.960 . S
C632 C631 1.524 . S
C633 C630 1.403 . S
C633 C634 1.392 1_565 S
C633 C637 1.495 . S
C634 C633 1.392 1_545 S
C634 C635 1.385 . S
C634 C636 1.478 . S
C635 H629 0.930 . S
C635 C631 1.400 . S
C635 C634 1.385 . S
C636 C634 1.478 . S
C636 C638 1.381 . S
C636 C642 1.383 . S
C637 C633 1.495 . S
C637 H643 0.959 . S
C637 H644 0.961 . S
C637 H645 0.960 . S
C638 C636 1.381 . S
C638 C639 1.394 . S
C638 H646 0.930 . S
C639 C638 1.394 . S
C639 C640 1.383 . S
C639 H647 0.929 . S
C640 C639 1.383 . S
C640 C641 1.377 . S
C641 H625 0.930 . S
C641 C640 1.377 . S
C641 C642 1.379 . S
C642 H626 0.931 . S
C642 C636 1.383 . S
C642 C641 1.379 . S
H643 C637 0.959 . S
H644 C637 0.961 . S
H645 C637 0.960 . S
H646 C638 0.930 . S
H647 C639 0.929 . S
H648 C656 0.929 . S
H649 C658 0.930 . S
H650 C660 0.930 . S
H651 C663 0.929 . S
H652 C666 0.930 . S
H653 C668 0.960 . S
H654 C668 0.960 . S
H655 C668 0.960 . S
C656 H648 0.929 . S
C656 C657 1.377 . S
C656 C658 1.384 . S
C657 C656 1.377 . S
C657 C663 1.390 . S
C658 H649 0.930 . S
C658 C656 1.384 . S
C658 C659 1.372 . S
C659 C658 1.372 . S
C659 C660 1.400 . S
C659 C664 1.490 . S
C660 H650 0.930 . S
C660 C659 1.400 . S
C660 C663 1.386 . S
H661 C677 0.930 . S
H662 C678 0.931 . S
C663 H651 0.929 . S
C663 C657 1.390 . S
C663 C660 1.386 . S
C664 C659 1.490 . S
C664 C666 1.395 . S
C664 C667 1.403 1_455 S
H665 C671 0.930 . S
C666 H652 0.930 . S
C666 C664 1.395 . S
C666 C669 1.403 . S
C667 C664 1.403 1_655 S
C667 C668 1.524 . S
C667 C671 1.400 . S
C668 H653 0.960 . S
C668 H654 0.960 . S
C668 H655 0.960 . S
C668 C667 1.524 . S
C669 C666 1.403 . S
C669 C670 1.392 1_455 S
C669 C673 1.495 . S
C670 C669 1.392 1_655 S
C670 C671 1.385 . S
C670 C672 1.478 . S
C671 H665 0.930 . S
C671 C667 1.400 . S
C671 C670 1.385 . S
C672 C670 1.478 . S
C672 C674 1.381 . S
C672 C678 1.383 . S
C673 C669 1.495 . S
C673 H679 0.959 . S
C673 H680 0.961 . S
C673 H681 0.960 . S
C674 C672 1.381 . S
C674 C675 1.394 . S
C674 H682 0.930 . S
C675 C674 1.394 . S
C675 C676 1.383 . S
C675 H683 0.929 . S
C676 C675 1.383 . S
C676 C677 1.377 . S
C677 H661 0.930 . S
C677 C676 1.377 . S
C677 C678 1.379 . S
C678 H662 0.931 . S
C678 C672 1.383 . S
C678 C677 1.379 . S
H679 C673 0.959 . S
H680 C673 0.961 . S
H681 C673 0.960 . S
H682 C674 0.930 . S
H683 C675 0.929 . S
H684 C692 0.929 . S
H685 C694 0.930 . S
H686 C696 0.930 . S
H687 C699 0.929 . S
H688 C702 0.930 . S
H689 C704 0.960 . S
H690 C704 0.960 . S
H691 C704 0.960 . S
C692 H684 0.929 . S
C692 C693 1.377 . S
C692 C694 1.384 . S
C693 C692 1.377 . S
C693 C699 1.390 . S
C694 H685 0.930 . S
C694 C692 1.384 . S
C694 C695 1.372 . S
C695 C694 1.372 . S
C695 C696 1.400 . S
C695 C700 1.490 . S
C696 H686 0.930 . S
C696 C695 1.400 . S
C696 C699 1.386 . S
H697 C713 0.930 . S
H698 C714 0.931 . S
C699 H687 0.929 . S
C699 C693 1.390 . S
C699 C696 1.386 . S
C700 C695 1.490 . S
C700 C702 1.395 . S
C700 C703 1.403 . S
H701 C707 0.930 . S
C702 H688 0.930 . S
C702 C700 1.395 . S
C702 C705 1.403 . S
C703 C700 1.403 . S
C703 C704 1.524 . S
C703 C707 1.400 . S
C704 H689 0.960 . S
C704 H690 0.960 . S
C704 H691 0.960 . S
C704 C703 1.524 . S
C705 C702 1.403 . S
C705 C706 1.392 . S
C705 C709 1.495 . S
C706 C705 1.392 . S
C706 C707 1.385 . S
C706 C708 1.478 . S
C707 H701 0.930 . S
C707 C703 1.400 . S
C707 C706 1.385 . S
C708 C706 1.478 . S
C708 C710 1.381 . S
C708 C714 1.383 . S
C709 C705 1.495 . S
C709 H715 0.959 . S
C709 H716 0.961 . S
C709 H717 0.960 . S
C710 C708 1.381 . S
C710 C711 1.394 . S
C710 H718 0.930 . S
C711 C710 1.394 . S
C711 C712 1.383 . S
C711 H719 0.929 . S
C712 C711 1.383 . S
C712 C713 1.377 . S
C713 H697 0.930 . S
C713 C712 1.377 . S
C713 C714 1.379 . S
C714 H698 0.931 . S
C714 C708 1.383 . S
C714 C713 1.379 . S
H715 C709 0.959 . S
H716 C709 0.961 . S
H717 C709 0.960 . S
H718 C710 0.930 . S
H719 C711 0.929 . S
H720 C728 0.929 . S
H721 C730 0.930 . S
H722 C732 0.930 . S
H723 C735 0.929 . S
H724 C738 0.930 . S
H725 C740 0.960 . S
H726 C740 0.960 . S
H727 C740 0.960 . S
C728 H720 0.929 . S
C728 C729 1.377 . S
C728 C730 1.384 . S
C729 C728 1.377 . S
C729 C735 1.390 . S
C730 H721 0.930 . S
C730 C728 1.384 . S
C730 C731 1.372 . S
C731 C730 1.372 . S
C731 C732 1.400 . S
C731 C736 1.490 . S
C732 H722 0.930 . S
C732 C731 1.400 . S
C732 C735 1.386 . S
H733 C749 0.930 . S
H734 C750 0.931 . S
C735 H723 0.929 . S
C735 C729 1.390 . S
C735 C732 1.386 . S
C736 C731 1.490 . S
C736 C738 1.395 . S
C736 C739 1.403 . S
H737 C743 0.930 . S
C738 H724 0.930 . S
C738 C736 1.395 . S
C738 C741 1.403 . S
C739 C736 1.403 . S
C739 C740 1.524 . S
C739 C743 1.400 . S
C740 H725 0.960 . S
C740 H726 0.960 . S
C740 H727 0.960 . S
C740 C739 1.524 . S
C741 C738 1.403 . S
C741 C742 1.392 . S
C741 C745 1.495 . S
C742 C741 1.392 . S
C742 C743 1.385 . S
C742 C744 1.478 . S
C743 H737 0.930 . S
C743 C739 1.400 . S
C743 C742 1.385 . S
C744 C742 1.478 . S
C744 C746 1.381 . S
C744 C750 1.383 . S
C745 C741 1.495 . S
C745 H751 0.959 . S
C745 H752 0.961 . S
C745 H753 0.960 . S
C746 C744 1.381 . S
C746 C747 1.394 . S
C746 H754 0.930 . S
C747 C746 1.394 . S
C747 C748 1.383 . S
C747 H755 0.929 . S
C748 C747 1.383 . S
C748 C749 1.377 . S
C749 H733 0.930 . S
C749 C748 1.377 . S
C749 C750 1.379 . S
C750 H734 0.931 . S
C750 C744 1.383 . S
C750 C749 1.379 . S
H751 C745 0.959 . S
H752 C745 0.961 . S
H753 C745 0.960 . S
H754 C746 0.930 . S
H755 C747 0.929 . S
H756 C764 0.929 . S
H757 C766 0.930 . S
H758 C768 0.930 . S
H759 C771 0.929 . S
H760 C774 0.930 . S
H761 C776 0.960 . S
H762 C776 0.960 . S
H763 C776 0.960 . S
C764 H756 0.929 . S
C764 C765 1.377 . S
C764 C766 1.384 . S
C765 C764 1.377 . S
C765 C771 1.390 . S
C766 H757 0.930 . S
C766 C764 1.384 . S
C766 C767 1.372 . S
C767 C766 1.372 . S
C767 C768 1.400 . S
C767 C772 1.490 . S
C768 H758 0.930 . S
C768 C767 1.400 . S
C768 C771 1.386 . S
H769 C785 0.930 . S
H770 C786 0.931 . S
C771 H759 0.929 . S
C771 C765 1.390 . S
C771 C768 1.386 . S
C772 C767 1.490 . S
C772 C774 1.395 . S
C772 C775 1.403 . S
H773 C779 0.930 . S
C774 H760 0.930 . S
C774 C772 1.395 . S
C774 C777 1.403 . S
C775 C772 1.403 . S
C775 C776 1.524 . S
C775 C779 1.400 . S
C776 H761 0.960 . S
C776 H762 0.960 . S
C776 H763 0.960 . S
C776 C775 1.524 . S
C777 C774 1.403 . S
C777 C778 1.392 . S
C777 C781 1.495 . S
C778 C777 1.392 . S
C778 C779 1.385 . S
C778 C780 1.478 . S
C779 H773 0.930 . S
C779 C775 1.400 . S
C779 C778 1.385 . S
C780 C778 1.478 . S
C780 C782 1.381 . S
C780 C786 1.383 . S
C781 C777 1.495 . S
C781 H787 0.959 . S
C781 H788 0.961 . S
C781 H789 0.960 . S
C782 C780 1.381 . S
C782 C783 1.394 . S
C782 H790 0.930 . S
C783 C782 1.394 . S
C783 C784 1.383 . S
C783 H791 0.929 1_556 S
C784 C783 1.383 . S
C784 C785 1.377 . S
C785 H769 0.930 . S
C785 C784 1.377 . S
C785 C786 1.379 . S
C786 H770 0.931 . S
C786 C780 1.383 . S
C786 C785 1.379 . S
H787 C781 0.959 . S
H788 C781 0.961 . S
H789 C781 0.960 . S
H790 C782 0.930 . S
H791 C783 0.929 1_554 S
H792 C800 0.929 . S
H793 C802 0.930 . S
H794 C804 0.930 . S
H795 C807 0.929 . S
H796 C810 0.930 . S
H797 C812 0.960 . S
H798 C812 0.960 . S
H799 C812 0.960 . S
C800 H792 0.929 . S
C800 C801 1.377 . S
C800 C802 1.384 . S
C801 C800 1.377 . S
C801 C807 1.390 . S
C802 H793 0.930 . S
C802 C800 1.384 . S
C802 C803 1.372 . S
C803 C802 1.372 . S
C803 C804 1.400 . S
C803 C808 1.490 . S
C804 H794 0.930 . S
C804 C803 1.400 . S
C804 C807 1.386 . S
H805 C821 0.930 . S
H806 C822 0.931 . S
C807 H795 0.929 . S
C807 C801 1.390 . S
C807 C804 1.386 . S
C808 C803 1.490 . S
C808 C810 1.395 . S
C808 C811 1.403 . S
H809 C815 0.930 . S
C810 H796 0.930 . S
C810 C808 1.395 . S
C810 C813 1.403 . S
C811 C808 1.403 . S
C811 C812 1.524 . S
C811 C815 1.400 . S
C812 H797 0.960 . S
C812 H798 0.960 . S
C812 H799 0.960 . S
C812 C811 1.524 . S
C813 C810 1.403 . S
C813 C814 1.392 . S
C813 C817 1.495 . S
C814 C813 1.392 . S
C814 C815 1.385 . S
C814 C816 1.478 . S
C815 H809 0.930 . S
C815 C811 1.400 . S
C815 C814 1.385 . S
C816 C814 1.478 . S
C816 C818 1.381 . S
C816 C822 1.383 . S
C817 C813 1.495 . S
C817 H823 0.959 . S
C817 H824 0.961 . S
C817 H825 0.960 . S
C818 C816 1.381 . S
C818 C819 1.394 . S
C818 H826 0.930 . S
C819 C818 1.394 . S
C819 C820 1.383 . S
C819 H827 0.929 . S
C820 C819 1.383 . S
C820 C821 1.377 . S
C821 H805 0.930 . S
C821 C820 1.377 . S
C821 C822 1.379 . S
C822 H806 0.931 . S
C822 C816 1.383 . S
C822 C821 1.379 . S
H823 C817 0.959 . S
H824 C817 0.961 . S
H825 C817 0.960 . S
H826 C818 0.930 . S
H827 C819 0.929 . S
H828 C836 0.929 . S
H829 C838 0.930 . S
H830 C840 0.930 . S
H831 C843 0.929 . S
H832 C846 0.930 . S
H833 C848 0.960 . S
H834 C848 0.960 . S
H835 C848 0.960 . S
C836 H828 0.929 . S
C836 C837 1.377 . S
C836 C838 1.384 . S
C837 C836 1.377 . S
C837 C843 1.390 . S
C838 H829 0.930 . S
C838 C836 1.384 . S
C838 C839 1.372 . S
C839 C838 1.372 . S
C839 C840 1.400 . S
C839 C844 1.490 . S
C840 H830 0.930 . S
C840 C839 1.400 . S
C840 C843 1.386 . S
H841 C857 0.930 1_554 S
H842 C858 0.931 . S
C843 H831 0.929 . S
C843 C837 1.390 . S
C843 C840 1.386 . S
C844 C839 1.490 . S
C844 C846 1.395 . S
C844 C847 1.403 . S
H845 C851 0.930 . S
C846 H832 0.930 . S
C846 C844 1.395 . S
C846 C849 1.403 . S
C847 C844 1.403 . S
C847 C848 1.524 . S
C847 C851 1.400 . S
C848 H833 0.960 . S
C848 H834 0.960 . S
C848 H835 0.960 . S
C848 C847 1.524 . S
C849 C846 1.403 . S
C849 C850 1.392 . S
C849 C853 1.495 . S
C850 C849 1.392 . S
C850 C851 1.385 . S
C850 C852 1.478 . S
C851 H845 0.930 . S
C851 C847 1.400 . S
C851 C850 1.385 . S
C852 C850 1.478 . S
C852 C854 1.381 . S
C852 C858 1.383 . S
C853 C849 1.495 . S
C853 H859 0.959 . S
C853 H860 0.961 . S
C853 H861 0.960 . S
C854 C852 1.381 . S
C854 C855 1.394 . S
C854 H862 0.930 . S
C855 C854 1.394 . S
C855 C856 1.383 . S
C855 H863 0.929 . S
C856 C855 1.383 . S
C856 C857 1.377 . S
C857 H841 0.930 1_556 S
C857 C856 1.377 . S
C857 C858 1.379 . S
C858 H842 0.931 . S
C858 C852 1.383 . S
C858 C857 1.379 . S
H859 C853 0.959 . S
H860 C853 0.961 . S
H861 C853 0.960 . S
H862 C854 0.930 . S
H863 C855 0.929 . S
H864 C872 0.929 1_554 S
H865 C874 0.930 . S
H866 C876 0.930 . S
H867 C879 0.929 . S
H868 C882 0.930 . S
H869 C884 0.960 . S
H870 C884 0.960 . S
H871 C884 0.960 . S
C872 H864 0.929 1_556 S
C872 C873 1.377 . S
C872 C874 1.384 . S
C873 C872 1.377 . S
C873 C879 1.390 . S
C874 H865 0.930 . S
C874 C872 1.384 . S
C874 C875 1.372 . S
C875 C874 1.372 . S
C875 C876 1.400 . S
C875 C880 1.490 . S
C876 H866 0.930 . S
C876 C875 1.400 . S
C876 C879 1.386 . S
H877 C893 0.930 . S
H878 C894 0.931 . S
C879 H867 0.929 . S
C879 C873 1.390 . S
C879 C876 1.386 . S
C880 C875 1.490 . S
C880 C882 1.395 . S
C880 C883 1.403 . S
H881 C887 0.930 . S
C882 H868 0.930 . S
C882 C880 1.395 . S
C882 C885 1.403 . S
C883 C880 1.403 . S
C883 C884 1.524 . S
C883 C887 1.400 . S
C884 H869 0.960 . S
C884 H870 0.960 . S
C884 H871 0.960 . S
C884 C883 1.524 . S
C885 C882 1.403 . S
C885 C886 1.392 . S
C885 C889 1.495 . S
C886 C885 1.392 . S
C886 C887 1.385 . S
C886 C888 1.478 . S
C887 H881 0.930 . S
C887 C883 1.400 . S
C887 C886 1.385 . S
C888 C886 1.478 . S
C888 C890 1.381 . S
C888 C894 1.383 . S
C889 C885 1.495 . S
C889 H895 0.959 . S
C889 H896 0.961 . S
C889 H897 0.960 . S
C890 C888 1.381 . S
C890 C891 1.394 . S
C890 H898 0.930 . S
C891 C890 1.394 . S
C891 C892 1.383 . S
C891 H899 0.929 . S
C892 C891 1.383 . S
C892 C893 1.377 . S
C893 H877 0.930 . S
C893 C892 1.377 . S
C893 C894 1.379 . S
C894 H878 0.931 . S
C894 C888 1.383 . S
C894 C893 1.379 . S
H895 C889 0.959 . S
H896 C889 0.961 . S
H897 C889 0.960 . S
H898 C890 0.930 . S
H899 C891 0.929 . S
H900 C908 0.929 . S
H901 C910 0.930 . S
H902 C912 0.930 . S
H903 C915 0.929 . S
H904 C918 0.930 . S
H905 C920 0.960 . S
H906 C920 0.960 . S
H907 C920 0.960 . S
C908 H900 0.929 . S
C908 C909 1.377 . S
C908 C910 1.384 . S
C909 C908 1.377 . S
C909 C915 1.390 . S
C910 H901 0.930 . S
C910 C908 1.384 . S
C910 C911 1.372 . S
C911 C910 1.372 . S
C911 C912 1.400 . S
C911 C916 1.490 . S
C912 H902 0.930 . S
C912 C911 1.400 . S
C912 C915 1.386 . S
H913 C929 0.930 . S
H914 C930 0.931 . S
C915 H903 0.929 . S
C915 C909 1.390 . S
C915 C912 1.386 . S
C916 C911 1.490 . S
C916 C918 1.395 . S
C916 C919 1.403 . S
H917 C923 0.930 . S
C918 H904 0.930 . S
C918 C916 1.395 . S
C918 C921 1.403 . S
C919 C916 1.403 . S
C919 C920 1.524 . S
C919 C923 1.400 . S
C920 H905 0.960 . S
C920 H906 0.960 . S
C920 H907 0.960 . S
C920 C919 1.524 . S
C921 C918 1.403 . S
C921 C922 1.392 . S
C921 C925 1.495 . S
C922 C921 1.392 . S
C922 C923 1.385 . S
C922 C924 1.478 . S
C923 H917 0.930 . S
C923 C919 1.400 . S
C923 C922 1.385 . S
C924 C922 1.478 . S
C924 C926 1.381 . S
C924 C930 1.383 . S
C925 C921 1.495 . S
C925 H931 0.959 . S
C925 H932 0.961 . S
C925 H933 0.960 . S
C926 C924 1.381 . S
C926 C927 1.394 . S
C926 H934 0.930 . S
C927 C926 1.394 . S
C927 C928 1.383 . S
C927 H935 0.929 1_556 S
C928 C927 1.383 . S
C928 C929 1.377 . S
C929 H913 0.930 . S
C929 C928 1.377 . S
C929 C930 1.379 . S
C930 H914 0.931 . S
C930 C924 1.383 . S
C930 C929 1.379 . S
H931 C925 0.959 . S
H932 C925 0.961 . S
H933 C925 0.960 . S
H934 C926 0.930 . S
H935 C927 0.929 1_554 S
H936 C944 0.929 . S
H937 C946 0.930 . S
H938 C948 0.930 . S
H939 C951 0.929 . S
H940 C954 0.930 . S
H941 C956 0.960 . S
H942 C956 0.960 . S
H943 C956 0.960 . S
C944 H936 0.929 . S
C944 C945 1.377 . S
C944 C946 1.384 . S
C945 C944 1.377 . S
C945 C951 1.390 . S
C946 H937 0.930 . S
C946 C944 1.384 . S
C946 C947 1.372 . S
C947 C946 1.372 . S
C947 C948 1.400 . S
C947 C952 1.490 . S
C948 H938 0.930 . S
C948 C947 1.400 . S
C948 C951 1.386 . S
H949 C965 0.930 1_556 S
H950 C966 0.931 . S
C951 H939 0.929 . S
C951 C945 1.390 . S
C951 C948 1.386 . S
C952 C947 1.490 . S
C952 C954 1.395 . S
C952 C955 1.403 . S
H953 C959 0.930 . S
C954 H940 0.930 . S
C954 C952 1.395 . S
C954 C957 1.403 . S
C955 C952 1.403 . S
C955 C956 1.524 . S
C955 C959 1.400 . S
C956 H941 0.960 . S
C956 H942 0.960 . S
C956 H943 0.960 . S
C956 C955 1.524 . S
C957 C954 1.403 . S
C957 C958 1.392 . S
C957 C961 1.495 . S
C958 C957 1.392 . S
C958 C959 1.385 . S
C958 C960 1.478 . S
C959 H953 0.930 . S
C959 C955 1.400 . S
C959 C958 1.385 . S
C960 C958 1.478 . S
C960 C962 1.381 . S
C960 C966 1.383 . S
C961 C957 1.495 . S
C961 H967 0.959 . S
C961 H968 0.961 . S
C961 H969 0.960 . S
C962 C960 1.381 . S
C962 C963 1.394 . S
C962 H970 0.930 . S
C963 C962 1.394 . S
C963 C964 1.383 . S
C963 H971 0.929 . S
C964 C963 1.383 . S
C964 C965 1.377 . S
C965 H949 0.930 1_554 S
C965 C964 1.377 . S
C965 C966 1.379 . S
C966 H950 0.931 . S
C966 C960 1.383 . S
C966 C965 1.379 . S
H967 C961 0.959 . S
H968 C961 0.961 . S
H969 C961 0.960 . S
H970 C962 0.930 . S
H971 C963 0.929 . S
H972 C980 0.929 . S
H973 C982 0.930 . S
H974 C984 0.930 . S
H975 C987 0.929 . S
H976 C990 0.930 . S
H977 C992 0.960 . S
H978 C992 0.960 . S
H979 C992 0.960 . S
C980 H972 0.929 . S
C980 C981 1.377 . S
C980 C982 1.384 . S
C981 C980 1.377 . S
C981 C987 1.390 . S
C982 H973 0.930 . S
C982 C980 1.384 . S
C982 C983 1.372 . S
C983 C982 1.372 . S
C983 C984 1.400 . S
C983 C988 1.490 . S
C984 H974 0.930 . S
C984 C983 1.400 . S
C984 C987 1.386 . S
H985 C1001 0.930 1_556 S
H986 C1002 0.931 . S
C987 H975 0.929 . S
C987 C981 1.390 . S
C987 C984 1.386 . S
C988 C983 1.490 . S
C988 C990 1.395 . S
C988 C991 1.403 . S
H989 C995 0.930 . S
C990 H976 0.930 . S
C990 C988 1.395 . S
C990 C993 1.403 . S
C991 C988 1.403 . S
C991 C992 1.524 . S
C991 C995 1.400 . S
C992 H977 0.960 . S
C992 H978 0.960 . S
C992 H979 0.960 . S
C992 C991 1.524 . S
C993 C990 1.403 . S
C993 C994 1.392 . S
C993 C997 1.495 . S
C994 C993 1.392 . S
C994 C995 1.385 . S
C994 C996 1.478 . S
C995 H989 0.930 . S
C995 C991 1.400 . S
C995 C994 1.385 . S
C996 C994 1.478 . S
C996 C998 1.381 . S
C996 C1002 1.383 . S
C997 C993 1.495 . S
C997 H1003 0.959 . S
C997 H1004 0.961 . S
C997 H1005 0.960 . S
C998 C996 1.381 . S
C998 C999 1.394 . S
C998 H1006 0.930 . S
C999 C998 1.394 . S
C999 C1000 1.383 . S
C999 H1007 0.929 . S
C1000 C999 1.383 . S
C1000 C1001 1.377 . S
C1001 H985 0.930 1_554 S
C1001 C1000 1.377 . S
C1001 C1002 1.379 . S
C1002 H986 0.931 . S
C1002 C996 1.383 . S
C1002 C1001 1.379 . S
H1003 C997 0.959 . S
H1004 C997 0.961 . S
H1005 C997 0.960 . S
H1006 C998 0.930 . S
H1007 C999 0.929 . S
H1008 C1016 0.929 . S
H1009 C1018 0.930 . S
H1010 C1020 0.930 . S
H1011 C1023 0.929 . S
H1012 C1026 0.930 . S
H1013 C1028 0.960 . S
H1014 C1028 0.960 . S
H1015 C1028 0.960 . S
C1016 H1008 0.929 . S
C1016 C1017 1.377 . S
C1016 C1018 1.384 . S
C1017 C1016 1.377 . S
C1017 C1023 1.390 . S
C1018 H1009 0.930 . S
C1018 C1016 1.384 . S
C1018 C1019 1.372 . S
C1019 C1018 1.372 . S
C1019 C1020 1.400 . S
C1019 C1024 1.490 . S
C1020 H1010 0.930 . S
C1020 C1019 1.400 . S
C1020 C1023 1.386 . S
H1021 C1037 0.930 . S
H1022 C1038 0.931 . S
C1023 H1011 0.929 . S
C1023 C1017 1.390 . S
C1023 C1020 1.386 . S
C1024 C1019 1.490 . S
C1024 C1026 1.395 . S
C1024 C1027 1.403 . S
H1025 C1031 0.930 . S
C1026 H1012 0.930 . S
C1026 C1024 1.395 . S
C1026 C1029 1.403 . S
C1027 C1024 1.403 . S
C1027 C1028 1.524 . S
C1027 C1031 1.400 . S
C1028 H1013 0.960 . S
C1028 H1014 0.960 . S
C1028 H1015 0.960 . S
C1028 C1027 1.524 . S
C1029 C1026 1.403 . S
C1029 C1030 1.392 . S
C1029 C1033 1.495 . S
C1030 C1029 1.392 . S
C1030 C1031 1.385 . S
C1030 C1032 1.478 . S
C1031 H1025 0.930 . S
C1031 C1027 1.400 . S
C1031 C1030 1.385 . S
C1032 C1030 1.478 . S
C1032 C1034 1.381 . S
C1032 C1038 1.383 . S
C1033 C1029 1.495 . S
C1033 H1039 0.959 . S
C1033 H1040 0.961 . S
C1033 H1041 0.960 . S
C1034 C1032 1.381 . S
C1034 C1035 1.394 . S
C1034 H1042 0.930 . S
C1035 C1034 1.394 . S
C1035 C1036 1.383 . S
C1035 H1043 0.929 . S
C1036 C1035 1.383 . S
C1036 C1037 1.377 . S
C1037 H1021 0.930 . S
C1037 C1036 1.377 . S
C1037 C1038 1.379 . S
C1038 H1022 0.931 . S
C1038 C1032 1.383 . S
C1038 C1037 1.379 . S
H1039 C1033 0.959 . S
H1040 C1033 0.961 . S
H1041 C1033 0.960 . S
H1042 C1034 0.930 . S
H1043 C1035 0.929 . S
H1044 C1052 0.929 . S
H1045 C1054 0.930 . S
H1046 C1056 0.930 . S
H1047 C1059 0.929 . S
H1048 C1062 0.930 . S
H1049 C1064 0.960 . S
H1050 C1064 0.960 . S
H1051 C1064 0.960 . S
C1052 H1044 0.929 . S
C1052 C1053 1.377 . S
C1052 C1054 1.384 . S
C1053 C1052 1.377 . S
C1053 C1059 1.390 . S
C1054 H1045 0.930 . S
C1054 C1052 1.384 . S
C1054 C1055 1.372 . S
C1055 C1054 1.372 . S
C1055 C1056 1.400 . S
C1055 C1060 1.490 . S
C1056 H1046 0.930 . S
C1056 C1055 1.400 . S
C1056 C1059 1.386 . S
H1057 C1073 0.930 . S
H1058 C1074 0.931 . S
C1059 H1047 0.929 . S
C1059 C1053 1.390 . S
C1059 C1056 1.386 . S
C1060 C1055 1.490 . S
C1060 C1062 1.395 . S
C1060 C1063 1.403 . S
H1061 C1067 0.930 . S
C1062 H1048 0.930 . S
C1062 C1060 1.395 . S
C1062 C1065 1.403 . S
C1063 C1060 1.403 . S
C1063 C1064 1.524 . S
C1063 C1067 1.400 . S
C1064 H1049 0.960 . S
C1064 H1050 0.960 . S
C1064 H1051 0.960 . S
C1064 C1063 1.524 . S
C1065 C1062 1.403 . S
C1065 C1066 1.392 . S
C1065 C1069 1.495 . S
C1066 C1065 1.392 . S
C1066 C1067 1.385 . S
C1066 C1068 1.478 . S
C1067 H1061 0.930 . S
C1067 C1063 1.400 . S
C1067 C1066 1.385 . S
C1068 C1066 1.478 . S
C1068 C1070 1.381 . S
C1068 C1074 1.383 . S
C1069 C1065 1.495 . S
C1069 H1075 0.959 . S
C1069 H1076 0.961 . S
C1069 H1077 0.960 . S
C1070 C1068 1.381 . S
C1070 C1071 1.394 . S
C1070 H1078 0.930 . S
C1071 C1070 1.394 . S
C1071 C1072 1.383 . S
C1071 H1079 0.929 . S
C1072 C1071 1.383 . S
C1072 C1073 1.377 . S
C1073 H1057 0.930 . S
C1073 C1072 1.377 . S
C1073 C1074 1.379 . S
C1074 H1058 0.931 . S
C1074 C1068 1.383 . S
C1074 C1073 1.379 . S
H1075 C1069 0.959 . S
H1076 C1069 0.961 . S
H1077 C1069 0.960 . S
H1078 C1070 0.930 . S
H1079 C1071 0.929 . S
H1080 C1088 0.929 . S
H1081 C1090 0.930 . S
H1082 C1092 0.930 . S
H1083 C1095 0.929 . S
H1084 C1098 0.930 . S
H1085 C1100 0.960 . S
H1086 C1100 0.960 . S
H1087 C1100 0.960 . S
C1088 H1080 0.929 . S
C1088 C1089 1.377 . S
C1088 C1090 1.384 . S
C1089 C1088 1.377 . S
C1089 C1095 1.390 . S
C1090 H1081 0.930 . S
C1090 C1088 1.384 . S
C1090 C1091 1.372 . S
C1091 C1090 1.372 . S
C1091 C1092 1.400 . S
C1091 C1096 1.490 . S
C1092 H1082 0.930 . S
C1092 C1091 1.400 . S
C1092 C1095 1.386 . S
H1093 C1109 0.930 . S
H1094 C1110 0.931 . S
C1095 H1083 0.929 . S
C1095 C1089 1.390 . S
C1095 C1092 1.386 . S
C1096 C1091 1.490 . S
C1096 C1098 1.395 . S
C1096 C1099 1.403 . S
H1097 C1103 0.930 . S
C1098 H1084 0.930 . S
C1098 C1096 1.395 . S
C1098 C1101 1.403 . S
C1099 C1096 1.403 . S
C1099 C1100 1.524 . S
C1099 C1103 1.400 . S
C1100 H1085 0.960 . S
C1100 H1086 0.960 . S
C1100 H1087 0.960 . S
C1100 C1099 1.524 . S
C1101 C1098 1.403 . S
C1101 C1102 1.392 . S
C1101 C1105 1.495 . S
C1102 C1101 1.392 . S
C1102 C1103 1.385 . S
C1102 C1104 1.478 . S
C1103 H1097 0.930 . S
C1103 C1099 1.400 . S
C1103 C1102 1.385 . S
C1104 C1102 1.478 . S
C1104 C1106 1.381 . S
C1104 C1110 1.383 . S
C1105 C1101 1.495 . S
C1105 H1111 0.959 . S
C1105 H1112 0.961 . S
C1105 H1113 0.960 . S
C1106 C1104 1.381 . S
C1106 C1107 1.394 . S
C1106 H1114 0.930 . S
C1107 C1106 1.394 . S
C1107 C1108 1.383 . S
C1107 H1115 0.929 . S
C1108 C1107 1.383 . S
C1108 C1109 1.377 . S
C1109 H1093 0.930 . S
C1109 C1108 1.377 . S
C1109 C1110 1.379 . S
C1110 H1094 0.931 . S
C1110 C1104 1.383 . S
C1110 C1109 1.379 . S
H1111 C1105 0.959 . S
H1112 C1105 0.961 . S
H1113 C1105 0.960 . S
H1114 C1106 0.930 . S
H1115 C1107 0.929 . S
H1116 C1124 0.929 . S
H1117 C1126 0.930 . S
H1118 C1128 0.930 . S
H1119 C1131 0.929 . S
H1120 C1134 0.930 . S
H1121 C1136 0.960 . S
H1122 C1136 0.960 . S
H1123 C1136 0.960 . S
C1124 H1116 0.929 . S
C1124 C1125 1.377 . S
C1124 C1126 1.384 . S
C1125 C1124 1.377 . S
C1125 C1131 1.390 . S
C1126 H1117 0.930 . S
C1126 C1124 1.384 . S
C1126 C1127 1.372 . S
C1127 C1126 1.372 . S
C1127 C1128 1.400 . S
C1127 C1132 1.490 . S
C1128 H1118 0.930 . S
C1128 C1127 1.400 . S
C1128 C1131 1.386 . S
H1129 C1145 0.930 1_556 S
H1130 C1146 0.931 . S
C1131 H1119 0.929 . S
C1131 C1125 1.390 . S
C1131 C1128 1.386 . S
C1132 C1127 1.490 . S
C1132 C1134 1.395 . S
C1132 C1135 1.403 . S
H1133 C1139 0.930 . S
C1134 H1120 0.930 . S
C1134 C1132 1.395 . S
C1134 C1137 1.403 . S
C1135 C1132 1.403 . S
C1135 C1136 1.524 . S
C1135 C1139 1.400 . S
C1136 H1121 0.960 . S
C1136 H1122 0.960 . S
C1136 H1123 0.960 . S
C1136 C1135 1.524 . S
C1137 C1134 1.403 . S
C1137 C1138 1.392 . S
C1137 C1141 1.495 . S
C1138 C1137 1.392 . S
C1138 C1139 1.385 . S
C1138 C1140 1.478 . S
C1139 H1133 0.930 . S
C1139 C1135 1.400 . S
C1139 C1138 1.385 . S
C1140 C1138 1.478 . S
C1140 C1142 1.381 . S
C1140 C1146 1.383 . S
C1141 C1137 1.495 . S
C1141 H1147 0.959 . S
C1141 H1148 0.961 . S
C1141 H1149 0.960 . S
C1142 C1140 1.381 . S
C1142 C1143 1.394 . S
C1142 H1150 0.930 . S
C1143 C1142 1.394 . S
C1143 C1144 1.383 . S
C1143 H1151 0.929 . S
C1144 C1143 1.383 . S
C1144 C1145 1.377 . S
C1145 H1129 0.930 1_554 S
C1145 C1144 1.377 . S
C1145 C1146 1.379 . S
C1146 H1130 0.931 . S
C1146 C1140 1.383 . S
C1146 C1145 1.379 . S
H1147 C1141 0.959 . S
H1148 C1141 0.961 . S
H1149 C1141 0.960 . S
H1150 C1142 0.930 . S
H1151 C1143 0.929 . S
H1152 C1160 0.929 . S
H1153 C1162 0.930 . S
H1154 C1164 0.930 . S
H1155 C1167 0.929 . S
H1156 C1170 0.930 . S
H1157 C1172 0.960 . S
H1158 C1172 0.960 . S
H1159 C1172 0.960 1_565 S
C1160 H1152 0.929 . S
C1160 C1161 1.377 . S
C1160 C1162 1.384 . S
C1161 C1160 1.377 . S
C1161 C1167 1.390 . S
C1162 H1153 0.930 . S
C1162 C1160 1.384 . S
C1162 C1163 1.372 . S
C1163 C1162 1.372 . S
C1163 C1164 1.400 . S
C1163 C1168 1.490 . S
C1164 H1154 0.930 . S
C1164 C1163 1.400 . S
C1164 C1167 1.386 . S
H1165 C1181 0.930 . S
H1166 C1182 0.931 . S
C1167 H1155 0.929 . S
C1167 C1161 1.390 . S
C1167 C1164 1.386 . S
C1168 C1163 1.490 . S
C1168 C1170 1.395 . S
C1168 C1171 1.396 1_565 S
H1169 C1175 0.930 . S
C1170 H1156 0.930 . S
C1170 C1168 1.395 . S
C1170 C1173 1.424 1_556 S
C1171 C1168 1.396 1_545 S
C1171 C1172 1.510 . S
C1171 C1175 1.424 1_556 S
C1172 H1157 0.960 . S
C1172 H1158 0.960 . S
C1172 H1159 0.960 1_545 S
C1172 C1171 1.510 . S
C1173 C1170 1.424 1_554 S
C1173 C1174 1.387 1_565 S
C1173 C1177 1.482 . S
C1174 C1173 1.387 1_545 S
C1174 C1175 1.385 . S
C1174 C1176 1.478 . S
C1175 H1169 0.930 . S
C1175 C1171 1.424 1_554 S
C1175 C1174 1.385 . S
C1176 C1174 1.478 . S
C1176 C1178 1.381 . S
C1176 C1182 1.383 . S
C1177 C1173 1.482 . S
C1177 H1183 0.959 . S
C1177 H1184 0.961 . S
C1177 H1185 0.960 1_565 S
C1178 C1176 1.381 . S
C1178 C1179 1.394 . S
C1178 H1186 0.930 . S
C1179 C1178 1.394 . S
C1179 C1180 1.383 . S
C1179 H1187 0.929 . S
C1180 C1179 1.383 . S
C1180 C1181 1.377 . S
C1181 H1165 0.930 . S
C1181 C1180 1.377 . S
C1181 C1182 1.379 . S
C1182 H1166 0.931 . S
C1182 C1176 1.383 . S
C1182 C1181 1.379 . S
H1183 C1177 0.959 . S
H1184 C1177 0.961 . S
H1185 C1177 0.960 1_545 S
H1186 C1178 0.930 . S
H1187 C1179 0.929 . S
H1188 C1196 0.929 . S
H1189 C1198 0.930 . S
H1190 C1200 0.930 . S
H1191 C1203 0.929 . S
H1192 C1206 0.930 . S
H1193 C1208 0.903 1_455 S
H1194 C1208 0.998 . S
H1195 C1208 0.955 1_455 S
C1196 H1188 0.929 . S
C1196 C1197 1.377 . S
C1196 C1198 1.384 . S
C1197 C1196 1.377 . S
C1197 C1203 1.390 . S
C1198 H1189 0.930 . S
C1198 C1196 1.384 . S
C1198 C1199 1.372 . S
C1199 C1198 1.372 . S
C1199 C1200 1.400 . S
C1199 C1204 1.490 . S
C1200 H1190 0.930 . S
C1200 C1199 1.400 . S
C1200 C1203 1.386 . S
H1201 C1217 0.930 . S
H1202 C1218 0.931 . S
C1203 H1191 0.929 . S
C1203 C1197 1.390 . S
C1203 C1200 1.386 . S
C1204 C1199 1.490 . S
C1204 C1206 1.395 . S
C1204 C1207 1.478 . S
H1205 C1211 0.930 . S
C1206 H1192 0.930 . S
C1206 C1204 1.395 . S
C1206 C1209 1.452 1_554 S
C1207 C1204 1.478 . S
C1207 C1208 1.516 . S
C1207 C1211 1.363 1_654 S
C1208 H1193 0.903 1_655 S
C1208 H1194 0.998 . S
C1208 H1195 0.955 1_655 S
C1208 C1207 1.516 . S
C1209 C1206 1.452 1_556 S
C1209 C1210 1.304 1_655 S
C1209 C1213 1.541 . S
C1210 C1209 1.304 1_455 S
C1210 C1211 1.385 . S
C1210 C1212 1.478 . S
C1211 H1205 0.930 . S
C1211 C1207 1.363 1_456 S
C1211 C1210 1.385 . S
C1212 C1210 1.478 . S
C1212 C1214 1.381 . S
C1212 C1218 1.383 . S
C1213 C1209 1.541 . S
C1213 H1219 0.959 . S
C1213 H1220 0.961 1_655 S
C1213 H1221 0.960 . S
C1214 C1212 1.381 . S
C1214 C1215 1.394 . S
C1214 H1222 0.930 . S
C1215 C1214 1.394 . S
C1215 C1216 1.383 . S
C1215 H1223 0.929 . S
C1216 C1215 1.383 . S
C1216 C1217 1.377 . S
C1217 H1201 0.930 . S
C1217 C1216 1.377 . S
C1217 C1218 1.379 . S
C1218 H1202 0.931 . S
C1218 C1212 1.383 . S
C1218 C1217 1.379 . S
H1219 C1213 0.959 . S
H1220 C1213 0.961 1_455 S
H1221 C1213 0.960 . S
H1222 C1214 0.930 . S
H1223 C1215 0.929 . S
H1224 C1232 0.929 . S
H1225 C1234 0.930 . S
H1226 C1236 0.930 . S
H1227 C1239 0.929 . S
H1228 C1242 0.930 . S
H1229 C1244 0.960 . S
H1230 C1244 0.960 . S
H1231 C1244 0.960 . S
C1232 H1224 0.929 . S
C1232 C1233 1.377 . S
C1232 C1234 1.384 . S
C1233 C1232 1.377 . S
C1233 C1239 1.390 . S
C1234 H1225 0.930 . S
C1234 C1232 1.384 . S
C1234 C1235 1.372 . S
C1235 C1234 1.372 . S
C1235 C1236 1.400 . S
C1235 C1240 1.490 . S
C1236 H1226 0.930 . S
C1236 C1235 1.400 . S
C1236 C1239 1.386 . S
H1237 C1253 0.930 . S
H1238 C1254 0.931 . S
C1239 H1227 0.929 . S
C1239 C1233 1.390 . S
C1239 C1236 1.386 . S
C1240 C1235 1.490 . S
C1240 C1242 1.395 . S
C1240 C1243 1.403 . S
H1241 C1247 0.930 . S
C1242 H1228 0.930 . S
C1242 C1240 1.395 . S
C1242 C1245 1.403 1_556 S
C1243 C1240 1.403 . S
C1243 C1244 1.524 . S
C1243 C1247 1.400 1_556 S
C1244 H1229 0.960 . S
C1244 H1230 0.960 . S
C1244 H1231 0.960 . S
C1244 C1243 1.524 . S
C1245 C1242 1.403 1_554 S
C1245 C1246 1.392 . S
C1245 C1249 1.495 . S
C1246 C1245 1.392 . S
C1246 C1247 1.385 . S
C1246 C1248 1.478 . S
C1247 H1241 0.930 . S
C1247 C1243 1.400 1_554 S
C1247 C1246 1.385 . S
C1248 C1246 1.478 . S
C1248 C1250 1.381 . S
C1248 C1254 1.383 . S
C1249 C1245 1.495 . S
C1249 H1255 0.959 . S
C1249 H1256 0.961 . S
C1249 H1257 0.960 . S
C1250 C1248 1.381 . S
C1250 C1251 1.394 . S
C1250 H1258 0.930 . S
C1251 C1250 1.394 . S
C1251 C1252 1.383 . S
C1251 H1259 0.929 . S
C1252 C1251 1.383 . S
C1252 C1253 1.377 . S
C1253 H1237 0.930 . S
C1253 C1252 1.377 . S
C1253 C1254 1.379 . S
C1254 H1238 0.931 . S
C1254 C1248 1.383 . S
C1254 C1253 1.379 . S
H1255 C1249 0.959 . S
H1256 C1249 0.961 . S
H1257 C1249 0.960 . S
H1258 C1250 0.930 . S
H1259 C1251 0.929 . S
H1260 C1268 0.929 . S
H1261 C1270 0.930 . S
H1262 C1272 0.930 . S
H1263 C1275 0.929 . S
H1264 C1278 0.930 . S
H1265 C1280 0.960 . S
H1266 C1280 0.960 . S
H1267 C1280 0.960 . S
C1268 H1260 0.929 . S
C1268 C1269 1.377 . S
C1268 C1270 1.384 . S
C1269 C1268 1.377 . S
C1269 C1275 1.390 . S
C1270 H1261 0.930 . S
C1270 C1268 1.384 . S
C1270 C1271 1.372 . S
C1271 C1270 1.372 . S
C1271 C1272 1.400 . S
C1271 C1276 1.490 . S
C1272 H1262 0.930 . S
C1272 C1271 1.400 . S
C1272 C1275 1.386 . S
H1273 C1289 0.930 . S
H1274 C1290 0.931 . S
C1275 H1263 0.929 . S
C1275 C1269 1.390 . S
C1275 C1272 1.386 . S
C1276 C1271 1.490 . S
C1276 C1278 1.395 1_556 S
C1276 C1279 1.403 1_565 S
H1277 C1283 0.930 . S
C1278 H1264 0.930 . S
C1278 C1276 1.395 1_554 S
C1278 C1281 1.403 . S
C1279 C1276 1.403 1_545 S
C1279 C1280 1.524 . S
C1279 C1283 1.400 1_556 S
C1280 H1265 0.960 . S
C1280 H1266 0.960 . S
C1280 H1267 0.960 . S
C1280 C1279 1.524 . S
C1281 C1278 1.403 . S
C1281 C1282 1.392 1_565 S
C1281 C1285 1.495 . S
C1282 C1281 1.392 1_545 S
C1282 C1283 1.385 . S
C1282 C1284 1.478 . S
C1283 H1277 0.930 . S
C1283 C1279 1.400 1_554 S
C1283 C1282 1.385 . S
C1284 C1282 1.478 . S
C1284 C1286 1.381 . S
C1284 C1290 1.383 . S
C1285 C1281 1.495 . S
C1285 H1291 0.959 . S
C1285 H1292 0.961 . S
C1285 H1293 0.960 . S
C1286 C1284 1.381 . S
C1286 C1287 1.394 . S
C1286 H1294 0.930 . S
C1287 C1286 1.394 . S
C1287 C1288 1.383 . S
C1287 H1295 0.929 . S
C1288 C1287 1.383 . S
C1288 C1289 1.377 . S
C1289 H1273 0.930 . S
C1289 C1288 1.377 . S
C1289 C1290 1.379 . S
C1290 H1274 0.931 . S
C1290 C1284 1.383 . S
C1290 C1289 1.379 . S
H1291 C1285 0.959 . S
H1292 C1285 0.961 . S
H1293 C1285 0.960 . S
H1294 C1286 0.930 . S
H1295 C1287 0.929 . S
H1296 C1304 0.929 . S
H1297 C1306 0.930 . S
H1298 C1308 0.930 . S
H1299 C1311 0.929 . S
H1300 C1314 0.930 . S
H1301 C1316 0.952 1_655 S
H1302 C1316 0.958 1_655 S
H1303 C1316 0.966 . S
C1304 H1296 0.929 . S
C1304 C1305 1.377 . S
C1304 C1306 1.384 . S
C1305 C1304 1.377 . S
C1305 C1311 1.390 . S
C1306 H1297 0.930 . S
C1306 C1304 1.384 . S
C1306 C1307 1.372 . S
C1307 C1306 1.372 . S
C1307 C1308 1.400 . S
C1307 C1312 1.490 . S
C1308 H1298 0.930 . S
C1308 C1307 1.400 . S
C1308 C1311 1.386 . S
H1309 C1325 0.930 . S
H1310 C1326 0.931 . S
C1311 H1299 0.929 . S
C1311 C1305 1.390 . S
C1311 C1308 1.386 . S
C1312 C1307 1.490 . S
C1312 C1314 1.395 . S
C1312 C1315 1.437 . S
H1313 C1319 0.930 . S
C1314 H1300 0.930 . S
C1314 C1312 1.395 . S
C1314 C1317 1.366 1_456 S
C1315 C1312 1.437 . S
C1315 C1316 1.511 . S
C1315 C1319 1.383 1_456 S
C1316 H1301 0.952 1_455 S
C1316 H1302 0.958 1_455 S
C1316 H1303 0.966 . S
C1316 C1315 1.511 . S
C1317 C1314 1.366 1_654 S
C1317 C1318 1.467 . S
C1317 C1321 1.509 . S
C1318 C1317 1.467 . S
C1318 C1319 1.385 . S
C1318 C1320 1.478 . S
C1319 H1313 0.930 . S
C1319 C1315 1.383 1_654 S
C1319 C1318 1.385 . S
C1320 C1318 1.478 . S
C1320 C1322 1.381 . S
C1320 C1326 1.383 . S
C1321 C1317 1.509 . S
C1321 H1327 0.861 1_655 S
C1321 H1328 0.945 1_655 S
C1321 H1329 1.038 . S
C1322 C1320 1.381 . S
C1322 C1323 1.394 . S
C1322 H1330 0.930 . S
C1323 C1322 1.394 . S
C1323 C1324 1.383 . S
C1323 H1331 0.929 . S
C1324 C1323 1.383 . S
C1324 C1325 1.377 . S
C1325 H1309 0.930 . S
C1325 C1324 1.377 . S
C1325 C1326 1.379 . S
C1326 H1310 0.931 . S
C1326 C1320 1.383 . S
C1326 C1325 1.379 . S
H1327 C1321 0.861 1_455 S
H1328 C1321 0.945 1_455 S
H1329 C1321 1.038 . S
H1330 C1322 0.930 . S
H1331 C1323 0.929 . S
H1332 C1340 0.929 . S
H1333 C1342 0.930 . S
H1334 C1344 0.930 . S
H1335 C1347 0.929 . S
H1336 C1350 0.930 . S
H1337 C1352 0.960 . S
H1338 C1352 0.960 . S
H1339 C1352 0.960 . S
C1340 H1332 0.929 . S
C1340 C1341 1.377 . S
C1340 C1342 1.384 . S
C1341 C1340 1.377 . S
C1341 C1347 1.390 . S
C1342 H1333 0.930 . S
C1342 C1340 1.384 . S
C1342 C1343 1.372 . S
C1343 C1342 1.372 . S
C1343 C1344 1.400 . S
C1343 C1348 1.490 . S
C1344 H1334 0.930 . S
C1344 C1343 1.400 . S
C1344 C1347 1.386 . S
H1345 C1361 0.930 . S
H1346 C1362 0.931 . S
C1347 H1335 0.929 . S
C1347 C1341 1.390 . S
C1347 C1344 1.386 . S
C1348 C1343 1.490 . S
C1348 C1350 1.395 1_554 S
C1348 C1351 1.403 . S
H1349 C1355 0.930 . S
C1350 H1336 0.930 . S
C1350 C1348 1.395 1_556 S
C1350 C1353 1.403 . S
C1351 C1348 1.403 . S
C1351 C1352 1.524 . S
C1351 C1355 1.400 1_554 S
C1352 H1337 0.960 . S
C1352 H1338 0.960 . S
C1352 H1339 0.960 . S
C1352 C1351 1.524 . S
C1353 C1350 1.403 . S
C1353 C1354 1.392 . S
C1353 C1357 1.495 . S
C1354 C1353 1.392 . S
C1354 C1355 1.385 . S
C1354 C1356 1.478 . S
C1355 H1349 0.930 . S
C1355 C1351 1.400 1_556 S
C1355 C1354 1.385 . S
C1356 C1354 1.478 . S
C1356 C1358 1.381 . S
C1356 C1362 1.383 . S
C1357 C1353 1.495 . S
C1357 H1363 0.959 . S
C1357 H1364 0.961 . S
C1357 H1365 0.960 . S
C1358 C1356 1.381 . S
C1358 C1359 1.394 . S
C1358 H1366 0.930 . S
C1359 C1358 1.394 . S
C1359 C1360 1.383 . S
C1359 H1367 0.929 . S
C1360 C1359 1.383 . S
C1360 C1361 1.377 . S
C1361 H1345 0.930 . S
C1361 C1360 1.377 . S
C1361 C1362 1.379 . S
C1362 H1346 0.931 . S
C1362 C1356 1.383 . S
C1362 C1361 1.379 . S
H1363 C1357 0.959 . S
H1364 C1357 0.961 . S
H1365 C1357 0.960 . S
H1366 C1358 0.930 . S
H1367 C1359 0.929 . S
H1368 C1376 0.929 . S
H1369 C1378 0.930 . S
H1370 C1380 0.930 . S
H1371 C1383 0.929 . S
H1372 C1386 0.930 . S
H1373 C1388 0.960 . S
H1374 C1388 0.960 . S
H1375 C1388 0.960 . S
C1376 H1368 0.929 . S
C1376 C1377 1.377 . S
C1376 C1378 1.384 . S
C1377 C1376 1.377 . S
C1377 C1383 1.390 . S
C1378 H1369 0.930 . S
C1378 C1376 1.384 . S
C1378 C1379 1.372 . S
C1379 C1378 1.372 . S
C1379 C1380 1.400 . S
C1379 C1384 1.490 . S
C1380 H1370 0.930 . S
C1380 C1379 1.400 . S
C1380 C1383 1.386 . S
H1381 C1397 0.930 . S
H1382 C1398 0.931 . S
C1383 H1371 0.929 . S
C1383 C1377 1.390 . S
C1383 C1380 1.386 . S
C1384 C1379 1.490 . S
C1384 C1386 1.395 . S
C1384 C1387 1.403 . S
H1385 C1391 0.930 . S
C1386 H1372 0.930 . S
C1386 C1384 1.395 . S
C1386 C1389 1.403 . S
C1387 C1384 1.403 . S
C1387 C1388 1.524 . S
C1387 C1391 1.400 . S
C1388 H1373 0.960 . S
C1388 H1374 0.960 . S
C1388 H1375 0.960 . S
C1388 C1387 1.524 . S
C1389 C1386 1.403 . S
C1389 C1390 1.392 . S
C1389 C1393 1.495 . S
C1390 C1389 1.392 . S
C1390 C1391 1.385 . S
C1390 C1392 1.478 . S
C1391 H1385 0.930 . S
C1391 C1387 1.400 . S
C1391 C1390 1.385 . S
C1392 C1390 1.478 . S
C1392 C1394 1.381 . S
C1392 C1398 1.383 . S
C1393 C1389 1.495 . S
C1393 H1399 0.959 . S
C1393 H1400 0.961 . S
C1393 H1401 0.960 . S
C1394 C1392 1.381 . S
C1394 C1395 1.394 . S
C1394 H1402 0.930 . S
C1395 C1394 1.394 . S
C1395 C1396 1.383 . S
C1395 H1403 0.929 . S
C1396 C1395 1.383 . S
C1396 C1397 1.377 . S
C1397 H1381 0.930 . S
C1397 C1396 1.377 . S
C1397 C1398 1.379 . S
C1398 H1382 0.931 . S
C1398 C1392 1.383 . S
C1398 C1397 1.379 . S
H1399 C1393 0.959 . S
H1400 C1393 0.961 . S
H1401 C1393 0.960 . S
H1402 C1394 0.930 . S
H1403 C1395 0.929 . S
H1404 C1412 0.929 . S
H1405 C1414 0.930 . S
H1406 C1416 0.930 . S
H1407 C1419 0.929 . S
H1408 C1422 0.930 . S
H1409 C1424 0.960 . S
H1410 C1424 0.960 . S
H1411 C1424 0.960 . S
C1412 H1404 0.929 . S
C1412 C1413 1.377 . S
C1412 C1414 1.384 . S
C1413 C1412 1.377 . S
C1413 C1419 1.390 . S
C1414 H1405 0.930 . S
C1414 C1412 1.384 . S
C1414 C1415 1.372 . S
C1415 C1414 1.372 . S
C1415 C1416 1.400 . S
C1415 C1420 1.490 . S
C1416 H1406 0.930 . S
C1416 C1415 1.400 . S
C1416 C1419 1.386 . S
H1417 C1433 0.930 . S
H1418 C1434 0.931 . S
C1419 H1407 0.929 . S
C1419 C1413 1.390 . S
C1419 C1416 1.386 . S
C1420 C1415 1.490 . S
C1420 C1422 1.395 . S
C1420 C1423 1.403 . S
H1421 C1427 0.930 . S
C1422 H1408 0.930 . S
C1422 C1420 1.395 . S
C1422 C1425 1.403 . S
C1423 C1420 1.403 . S
C1423 C1424 1.524 . S
C1423 C1427 1.400 . S
C1424 H1409 0.960 . S
C1424 H1410 0.960 . S
C1424 H1411 0.960 . S
C1424 C1423 1.524 . S
C1425 C1422 1.403 . S
C1425 C1426 1.392 . S
C1425 C1429 1.495 . S
C1426 C1425 1.392 . S
C1426 C1427 1.385 . S
C1426 C1428 1.478 . S
C1427 H1421 0.930 . S
C1427 C1423 1.400 . S
C1427 C1426 1.385 . S
C1428 C1426 1.478 . S
C1428 C1430 1.381 . S
C1428 C1434 1.383 . S
C1429 C1425 1.495 . S
C1429 H1435 0.959 . S
C1429 H1436 0.961 . S
C1429 H1437 0.960 . S
C1430 C1428 1.381 . S
C1430 C1431 1.394 . S
C1430 H1438 0.930 . S
C1431 C1430 1.394 . S
C1431 C1432 1.383 . S
C1431 H1439 0.929 . S
C1432 C1431 1.383 . S
C1432 C1433 1.377 . S
C1433 H1417 0.930 . S
C1433 C1432 1.377 . S
C1433 C1434 1.379 . S
C1434 H1418 0.931 . S
C1434 C1428 1.383 . S
C1434 C1433 1.379 . S
H1435 C1429 0.959 . S
H1436 C1429 0.961 . S
H1437 C1429 0.960 . S
H1438 C1430 0.930 . S
H1439 C1431 0.929 . S
H1440 C1448 0.929 . S
H1441 C1450 0.930 . S
H1442 C1452 0.930 . S
H1443 C1455 0.929 . S
H1444 C1458 0.930 . S
H1445 C1460 0.960 . S
H1446 C1460 0.960 . S
H1447 C1460 0.960 . S
C1448 H1440 0.929 . S
C1448 C1449 1.377 . S
C1448 C1450 1.384 . S
C1449 C1448 1.377 . S
C1449 C1455 1.390 . S
C1450 H1441 0.930 . S
C1450 C1448 1.384 . S
C1450 C1451 1.372 . S
C1451 C1450 1.372 . S
C1451 C1452 1.400 . S
C1451 C1456 1.490 . S
C1452 H1442 0.930 . S
C1452 C1451 1.400 . S
C1452 C1455 1.386 . S
H1453 C1469 0.930 . S
H1454 C1470 0.931 . S
C1455 H1443 0.929 . S
C1455 C1449 1.390 . S
C1455 C1452 1.386 . S
C1456 C1451 1.490 . S
C1456 C1458 1.395 . S
C1456 C1459 1.403 . S
H1457 C1463 0.930 . S
C1458 H1444 0.930 . S
C1458 C1456 1.395 . S
C1458 C1461 1.403 . S
C1459 C1456 1.403 . S
C1459 C1460 1.524 . S
C1459 C1463 1.400 . S
C1460 H1445 0.960 . S
C1460 H1446 0.960 . S
C1460 H1447 0.960 . S
C1460 C1459 1.524 . S
C1461 C1458 1.403 . S
C1461 C1462 1.392 . S
C1461 C1465 1.495 . S
C1462 C1461 1.392 . S
C1462 C1463 1.385 . S
C1462 C1464 1.478 . S
C1463 H1457 0.930 . S
C1463 C1459 1.400 . S
C1463 C1462 1.385 . S
C1464 C1462 1.478 . S
C1464 C1466 1.381 . S
C1464 C1470 1.383 . S
C1465 C1461 1.495 . S
C1465 H1471 0.959 . S
C1465 H1472 0.961 . S
C1465 H1473 0.960 . S
C1466 C1464 1.381 . S
C1466 C1467 1.394 . S
C1466 H1474 0.930 . S
C1467 C1466 1.394 . S
C1467 C1468 1.383 . S
C1467 H1475 0.929 . S
C1468 C1467 1.383 . S
C1468 C1469 1.377 . S
C1469 H1453 0.930 . S
C1469 C1468 1.377 . S
C1469 C1470 1.379 . S
C1470 H1454 0.931 . S
C1470 C1464 1.383 . S
C1470 C1469 1.379 . S
H1471 C1465 0.959 . S
H1472 C1465 0.961 . S
H1473 C1465 0.960 . S
H1474 C1466 0.930 . S
H1475 C1467 0.929 . S
H1476 C1484 0.929 . S
H1477 C1486 0.930 . S
H1478 C1488 0.930 . S
H1479 C1491 0.929 . S
H1480 C1494 0.930 . S
H1481 C1496 0.960 . S
H1482 C1496 0.960 . S
H1483 C1496 0.960 . S
C1484 H1476 0.929 . S
C1484 C1485 1.377 . S
C1484 C1486 1.384 . S
C1485 C1484 1.377 . S
C1485 C1491 1.390 . S
C1486 H1477 0.930 . S
C1486 C1484 1.384 . S
C1486 C1487 1.372 . S
C1487 C1486 1.372 . S
C1487 C1488 1.400 . S
C1487 C1492 1.490 . S
C1488 H1478 0.930 . S
C1488 C1487 1.400 . S
C1488 C1491 1.386 . S
H1489 C1505 0.930 . S
H1490 C1506 0.931 . S
C1491 H1479 0.929 . S
C1491 C1485 1.390 . S
C1491 C1488 1.386 . S
C1492 C1487 1.490 . S
C1492 C1494 1.395 . S
C1492 C1495 1.403 . S
H1493 C1499 0.930 . S
C1494 H1480 0.930 . S
C1494 C1492 1.395 . S
C1494 C1497 1.403 . S
C1495 C1492 1.403 . S
C1495 C1496 1.524 . S
C1495 C1499 1.400 . S
C1496 H1481 0.960 . S
C1496 H1482 0.960 . S
C1496 H1483 0.960 . S
C1496 C1495 1.524 . S
C1497 C1494 1.403 . S
C1497 C1498 1.392 . S
C1497 C1501 1.495 . S
C1498 C1497 1.392 . S
C1498 C1499 1.385 . S
C1498 C1500 1.478 . S
C1499 H1493 0.930 . S
C1499 C1495 1.400 . S
C1499 C1498 1.385 . S
C1500 C1498 1.478 . S
C1500 C1502 1.381 . S
C1500 C1506 1.383 . S
C1501 C1497 1.495 . S
C1501 H1507 0.959 . S
C1501 H1508 0.961 . S
C1501 H1509 0.960 . S
C1502 C1500 1.381 . S
C1502 C1503 1.394 . S
C1502 H1510 0.930 . S
C1503 C1502 1.394 . S
C1503 C1504 1.383 . S
C1503 H1511 0.929 . S
C1504 C1503 1.383 . S
C1504 C1505 1.377 . S
C1505 H1489 0.930 . S
C1505 C1504 1.377 . S
C1505 C1506 1.379 . S
C1506 H1490 0.931 . S
C1506 C1500 1.383 . S
C1506 C1505 1.379 . S
H1507 C1501 0.959 . S
H1508 C1501 0.961 . S
H1509 C1501 0.960 . S
H1510 C1502 0.930 . S
H1511 C1503 0.929 . S
H1512 C1520 0.929 . S
H1513 C1522 0.930 . S
H1514 C1524 0.930 . S
H1515 C1527 0.929 . S
H1516 C1530 0.930 . S
H1517 C1532 0.960 . S
H1518 C1532 0.960 . S
H1519 C1532 0.960 . S
C1520 H1512 0.929 . S
C1520 C1521 1.377 . S
C1520 C1522 1.384 . S
C1521 C1520 1.377 . S
C1521 C1527 1.390 . S
C1522 H1513 0.930 . S
C1522 C1520 1.384 . S
C1522 C1523 1.372 . S
C1523 C1522 1.372 . S
C1523 C1524 1.400 . S
C1523 C1528 1.490 . S
C1524 H1514 0.930 . S
C1524 C1523 1.400 . S
C1524 C1527 1.386 . S
H1525 C1541 0.930 . S
H1526 C1542 0.931 . S
C1527 H1515 0.929 . S
C1527 C1521 1.390 . S
C1527 C1524 1.386 . S
C1528 C1523 1.490 . S
C1528 C1530 1.395 . S
C1528 C1531 1.403 . S
H1529 C1535 0.930 . S
C1530 H1516 0.930 . S
C1530 C1528 1.395 . S
C1530 C1533 1.403 . S
C1531 C1528 1.403 . S
C1531 C1532 1.524 . S
C1531 C1535 1.400 . S
C1532 H1517 0.960 . S
C1532 H1518 0.960 . S
C1532 H1519 0.960 . S
C1532 C1531 1.524 . S
C1533 C1530 1.403 . S
C1533 C1534 1.392 . S
C1533 C1537 1.495 . S
C1534 C1533 1.392 . S
C1534 C1535 1.385 . S
C1534 C1536 1.478 . S
C1535 H1529 0.930 . S
C1535 C1531 1.400 . S
C1535 C1534 1.385 . S
C1536 C1534 1.478 . S
C1536 C1538 1.381 . S
C1536 C1542 1.383 . S
C1537 C1533 1.495 . S
C1537 H1543 0.959 . S
C1537 H1544 0.961 . S
C1537 H1545 0.960 . S
C1538 C1536 1.381 . S
C1538 C1539 1.394 . S
C1538 H1546 0.930 . S
C1539 C1538 1.394 . S
C1539 C1540 1.383 . S
C1539 H1547 0.929 . S
C1540 C1539 1.383 . S
C1540 C1541 1.377 . S
C1541 H1525 0.930 . S
C1541 C1540 1.377 . S
C1541 C1542 1.379 . S
C1542 H1526 0.931 . S
C1542 C1536 1.383 . S
C1542 C1541 1.379 . S
H1543 C1537 0.959 . S
H1544 C1537 0.961 . S
H1545 C1537 0.960 . S
H1546 C1538 0.930 . S
H1547 C1539 0.929 . S
H1548 C1556 0.929 . S
H1549 C1558 0.930 . S
H1550 C1560 0.930 . S
H1551 C1563 0.929 . S
H1552 C1566 0.930 . S
H1553 C1568 0.960 . S
H1554 C1568 0.960 . S
H1555 C1568 0.960 . S
C1556 H1548 0.929 . S
C1556 C1557 1.377 . S
C1556 C1558 1.384 . S
C1557 C1556 1.377 . S
C1557 C1563 1.390 . S
C1558 H1549 0.930 . S
C1558 C1556 1.384 . S
C1558 C1559 1.372 . S
C1559 C1558 1.372 . S
C1559 C1560 1.400 . S
C1559 C1564 1.490 . S
C1560 H1550 0.930 . S
C1560 C1559 1.400 . S
C1560 C1563 1.386 . S
H1561 C1577 0.930 . S
H1562 C1578 0.931 . S
C1563 H1551 0.929 . S
C1563 C1557 1.390 . S
C1563 C1560 1.386 . S
C1564 C1559 1.490 . S
C1564 C1566 1.395 . S
C1564 C1567 1.403 . S
H1565 C1571 0.930 . S
C1566 H1552 0.930 . S
C1566 C1564 1.395 . S
C1566 C1569 1.403 . S
C1567 C1564 1.403 . S
C1567 C1568 1.524 . S
C1567 C1571 1.400 . S
C1568 H1553 0.960 . S
C1568 H1554 0.960 . S
C1568 H1555 0.960 . S
C1568 C1567 1.524 . S
C1569 C1566 1.403 . S
C1569 C1570 1.392 . S
C1569 C1573 1.495 . S
C1570 C1569 1.392 . S
C1570 C1571 1.385 . S
C1570 C1572 1.478 . S
C1571 H1565 0.930 . S
C1571 C1567 1.400 . S
C1571 C1570 1.385 . S
C1572 C1570 1.478 . S
C1572 C1574 1.381 . S
C1572 C1578 1.383 . S
C1573 C1569 1.495 . S
C1573 H1579 0.959 . S
C1573 H1580 0.961 . S
C1573 H1581 0.960 . S
C1574 C1572 1.381 . S
C1574 C1575 1.394 . S
C1574 H1582 0.930 . S
C1575 C1574 1.394 . S
C1575 C1576 1.383 . S
C1575 H1583 0.929 . S
C1576 C1575 1.383 . S
C1576 C1577 1.377 . S
C1577 H1561 0.930 . S
C1577 C1576 1.377 . S
C1577 C1578 1.379 . S
C1578 H1562 0.931 . S
C1578 C1572 1.383 . S
C1578 C1577 1.379 . S
H1579 C1573 0.959 . S
H1580 C1573 0.961 . S
H1581 C1573 0.960 . S
H1582 C1574 0.930 . S
H1583 C1575 0.929 . S
H1584 C1592 0.929 . S
H1585 C1594 0.930 . S
H1586 C1596 0.930 . S
H1587 C1599 0.929 . S
H1588 C1602 0.930 . S
H1589 C1604 0.960 . S
H1590 C1604 0.960 . S
H1591 C1604 0.960 . S
C1592 H1584 0.929 . S
C1592 C1593 1.377 . S
C1592 C1594 1.384 . S
C1593 C1592 1.377 . S
C1593 C1599 1.390 . S
C1594 H1585 0.930 . S
C1594 C1592 1.384 . S
C1594 C1595 1.372 . S
C1595 C1594 1.372 . S
C1595 C1596 1.400 . S
C1595 C1600 1.490 . S
C1596 H1586 0.930 . S
C1596 C1595 1.400 . S
C1596 C1599 1.386 . S
H1597 C1613 0.930 . S
H1598 C1614 0.931 . S
C1599 H1587 0.929 . S
C1599 C1593 1.390 . S
C1599 C1596 1.386 . S
C1600 C1595 1.490 . S
C1600 C1602 1.395 . S
C1600 C1603 1.403 . S
H1601 C1607 0.930 . S
C1602 H1588 0.930 . S
C1602 C1600 1.395 . S
C1602 C1605 1.403 . S
C1603 C1600 1.403 . S
C1603 C1604 1.524 . S
C1603 C1607 1.400 . S
C1604 H1589 0.960 . S
C1604 H1590 0.960 . S
C1604 H1591 0.960 . S
C1604 C1603 1.524 . S
C1605 C1602 1.403 . S
C1605 C1606 1.392 . S
C1605 C1609 1.495 . S
C1606 C1605 1.392 . S
C1606 C1607 1.385 . S
C1606 C1608 1.478 . S
C1607 H1601 0.930 . S
C1607 C1603 1.400 . S
C1607 C1606 1.385 . S
C1608 C1606 1.478 . S
C1608 C1610 1.381 . S
C1608 C1614 1.383 . S
C1609 C1605 1.495 . S
C1609 H1615 0.959 . S
C1609 H1616 0.961 . S
C1609 H1617 0.960 . S
C1610 C1608 1.381 . S
C1610 C1611 1.394 . S
C1610 H1618 0.930 . S
C1611 C1610 1.394 . S
C1611 C1612 1.383 . S
C1611 H1619 0.929 . S
C1612 C1611 1.383 . S
C1612 C1613 1.377 . S
C1613 H1597 0.930 . S
C1613 C1612 1.377 . S
C1613 C1614 1.379 . S
C1614 H1598 0.931 . S
C1614 C1608 1.383 . S
C1614 C1613 1.379 . S
H1615 C1609 0.959 . S
H1616 C1609 0.961 . S
H1617 C1609 0.960 . S
H1618 C1610 0.930 . S
H1619 C1611 0.929 . S
H1620 C1628 0.929 . S
H1621 C1630 0.930 . S
H1622 C1632 0.930 . S
H1623 C1635 0.929 . S
H1624 C1638 0.930 . S
H1625 C1640 0.960 . S
H1626 C1640 0.960 . S
H1627 C1640 0.960 . S
C1628 H1620 0.929 . S
C1628 C1629 1.377 . S
C1628 C1630 1.384 . S
C1629 C1628 1.377 . S
C1629 C1635 1.390 . S
C1630 H1621 0.930 . S
C1630 C1628 1.384 . S
C1630 C1631 1.372 . S
C1631 C1630 1.372 . S
C1631 C1632 1.400 . S
C1631 C1636 1.490 . S
C1632 H1622 0.930 . S
C1632 C1631 1.400 . S
C1632 C1635 1.386 . S
H1633 C1649 0.930 . S
H1634 C1650 0.931 . S
C1635 H1623 0.929 . S
C1635 C1629 1.390 . S
C1635 C1632 1.386 . S
C1636 C1631 1.490 . S
C1636 C1638 1.395 . S
C1636 C1639 1.403 . S
H1637 C1643 0.930 . S
C1638 H1624 0.930 . S
C1638 C1636 1.395 . S
C1638 C1641 1.403 . S
C1639 C1636 1.403 . S
C1639 C1640 1.524 . S
C1639 C1643 1.400 . S
C1640 H1625 0.960 . S
C1640 H1626 0.960 . S
C1640 H1627 0.960 . S
C1640 C1639 1.524 . S
C1641 C1638 1.403 . S
C1641 C1642 1.392 . S
C1641 C1645 1.495 . S
C1642 C1641 1.392 . S
C1642 C1643 1.385 . S
C1642 C1644 1.478 . S
C1643 H1637 0.930 . S
C1643 C1639 1.400 . S
C1643 C1642 1.385 . S
C1644 C1642 1.478 . S
C1644 C1646 1.381 . S
C1644 C1650 1.383 . S
C1645 C1641 1.495 . S
C1645 H1651 0.959 . S
C1645 H1652 0.961 . S
C1645 H1653 0.960 . S
C1646 C1644 1.381 . S
C1646 C1647 1.394 . S
C1646 H1654 0.930 . S
C1647 C1646 1.394 . S
C1647 C1648 1.383 . S
C1647 H1655 0.929 . S
C1648 C1647 1.383 . S
C1648 C1649 1.377 . S
C1649 H1633 0.930 . S
C1649 C1648 1.377 . S
C1649 C1650 1.379 . S
C1650 H1634 0.931 . S
C1650 C1644 1.383 . S
C1650 C1649 1.379 . S
H1651 C1645 0.959 . S
H1652 C1645 0.961 . S
H1653 C1645 0.960 . S
H1654 C1646 0.930 . S
H1655 C1647 0.929 . S
H1656 C1664 0.929 . S
H1657 C1666 0.930 . S
H1658 C1668 0.930 . S
H1659 C1671 0.929 . S
H1660 C1674 0.930 . S
H1661 C1676 0.960 . S
H1662 C1676 0.960 . S
H1663 C1676 0.960 . S
C1664 H1656 0.929 . S
C1664 C1665 1.377 . S
C1664 C1666 1.384 . S
C1665 C1664 1.377 . S
C1665 C1671 1.390 . S
C1666 H1657 0.930 . S
C1666 C1664 1.384 . S
C1666 C1667 1.372 . S
C1667 C1666 1.372 . S
C1667 C1668 1.400 . S
C1667 C1672 1.490 . S
C1668 H1658 0.930 . S
C1668 C1667 1.400 . S
C1668 C1671 1.386 . S
H1669 C1685 0.930 . S
H1670 C1686 0.931 . S
C1671 H1659 0.929 . S
C1671 C1665 1.390 . S
C1671 C1668 1.386 . S
C1672 C1667 1.490 . S
C1672 C1674 1.395 . S
C1672 C1675 1.403 . S
H1673 C1679 0.930 . S
C1674 H1660 0.930 . S
C1674 C1672 1.395 . S
C1674 C1677 1.403 . S
C1675 C1672 1.403 . S
C1675 C1676 1.524 . S
C1675 C1679 1.400 . S
C1676 H1661 0.960 . S
C1676 H1662 0.960 . S
C1676 H1663 0.960 . S
C1676 C1675 1.524 . S
C1677 C1674 1.403 . S
C1677 C1678 1.392 . S
C1677 C1681 1.495 . S
C1678 C1677 1.392 . S
C1678 C1679 1.385 . S
C1678 C1680 1.478 . S
C1679 H1673 0.930 . S
C1679 C1675 1.400 . S
C1679 C1678 1.385 . S
C1680 C1678 1.478 . S
C1680 C1682 1.381 . S
C1680 C1686 1.383 . S
C1681 C1677 1.495 . S
C1681 H1687 0.959 . S
C1681 H1688 0.961 . S
C1681 H1689 0.960 . S
C1682 C1680 1.381 . S
C1682 C1683 1.394 . S
C1682 H1690 0.930 . S
C1683 C1682 1.394 . S
C1683 C1684 1.383 . S
C1683 H1691 0.929 . S
C1684 C1683 1.383 . S
C1684 C1685 1.377 . S
C1685 H1669 0.930 . S
C1685 C1684 1.377 . S
C1685 C1686 1.379 . S
C1686 H1670 0.931 . S
C1686 C1680 1.383 . S
C1686 C1685 1.379 . S
H1687 C1681 0.959 . S
H1688 C1681 0.961 . S
H1689 C1681 0.960 . S
H1690 C1682 0.930 . S
H1691 C1683 0.929 . S
H1692 C1700 0.929 . S
H1693 C1702 0.930 . S
H1694 C1704 0.930 . S
H1695 C1707 0.929 . S
H1696 C1710 0.930 . S
H1697 C1712 0.960 . S
H1698 C1712 0.960 . S
H1699 C1712 0.960 . S
C1700 H1692 0.929 . S
C1700 C1701 1.377 . S
C1700 C1702 1.384 . S
C1701 C1700 1.377 . S
C1701 C1707 1.390 . S
C1702 H1693 0.930 . S
C1702 C1700 1.384 . S
C1702 C1703 1.372 . S
C1703 C1702 1.372 . S
C1703 C1704 1.400 . S
C1703 C1708 1.490 . S
C1704 H1694 0.930 . S
C1704 C1703 1.400 . S
C1704 C1707 1.386 . S
H1705 C1721 0.930 . S
H1706 C1722 0.931 . S
C1707 H1695 0.929 . S
C1707 C1701 1.390 . S
C1707 C1704 1.386 . S
C1708 C1703 1.490 . S
C1708 C1710 1.395 . S
C1708 C1711 1.403 . S
H1709 C1715 0.930 . S
C1710 H1696 0.930 . S
C1710 C1708 1.395 . S
C1710 C1713 1.403 . S
C1711 C1708 1.403 . S
C1711 C1712 1.524 . S
C1711 C1715 1.400 . S
C1712 H1697 0.960 . S
C1712 H1698 0.960 . S
C1712 H1699 0.960 . S
C1712 C1711 1.524 . S
C1713 C1710 1.403 . S
C1713 C1714 1.392 . S
C1713 C1717 1.495 . S
C1714 C1713 1.392 . S
C1714 C1715 1.385 . S
C1714 C1716 1.478 . S
C1715 H1709 0.930 . S
C1715 C1711 1.400 . S
C1715 C1714 1.385 . S
C1716 C1714 1.478 . S
C1716 C1718 1.381 . S
C1716 C1722 1.383 . S
C1717 C1713 1.495 . S
C1717 H1723 0.959 . S
C1717 H1724 0.961 . S
C1717 H1725 0.960 . S
C1718 C1716 1.381 . S
C1718 C1719 1.394 . S
C1718 H1726 0.930 . S
C1719 C1718 1.394 . S
C1719 C1720 1.383 . S
C1719 H1727 0.929 . S
C1720 C1719 1.383 . S
C1720 C1721 1.377 . S
C1721 H1705 0.930 . S
C1721 C1720 1.377 . S
C1721 C1722 1.379 . S
C1722 H1706 0.931 . S
C1722 C1716 1.383 . S
C1722 C1721 1.379 . S
H1723 C1717 0.959 . S
H1724 C1717 0.961 . S
H1725 C1717 0.960 . S
H1726 C1718 0.930 . S
H1727 C1719 0.929 . S
H1728 C1736 0.929 . S
H1729 C1738 0.930 . S
H1730 C1740 0.930 . S
H1731 C1743 0.929 . S
H1732 C1746 0.930 . S
H1733 C1748 0.960 . S
H1734 C1748 0.960 . S
H1735 C1748 0.960 . S
C1736 H1728 0.929 . S
C1736 C1737 1.377 . S
C1736 C1738 1.384 . S
C1737 C1736 1.377 . S
C1737 C1743 1.390 . S
C1738 H1729 0.930 . S
C1738 C1736 1.384 . S
C1738 C1739 1.372 . S
C1739 C1738 1.372 . S
C1739 C1740 1.400 . S
C1739 C1744 1.490 . S
C1740 H1730 0.930 . S
C1740 C1739 1.400 . S
C1740 C1743 1.386 . S
H1741 C1757 0.930 . S
H1742 C1758 0.931 . S
C1743 H1731 0.929 . S
C1743 C1737 1.390 . S
C1743 C1740 1.386 . S
C1744 C1739 1.490 . S
C1744 C1746 1.395 . S
C1744 C1747 1.403 . S
H1745 C1751 0.930 . S
C1746 H1732 0.930 . S
C1746 C1744 1.395 . S
C1746 C1749 1.403 . S
C1747 C1744 1.403 . S
C1747 C1748 1.524 . S
C1747 C1751 1.400 . S
C1748 H1733 0.960 . S
C1748 H1734 0.960 . S
C1748 H1735 0.960 . S
C1748 C1747 1.524 . S
C1749 C1746 1.403 . S
C1749 C1750 1.392 . S
C1749 C1753 1.495 . S
C1750 C1749 1.392 . S
C1750 C1751 1.385 . S
C1750 C1752 1.478 . S
C1751 H1745 0.930 . S
C1751 C1747 1.400 . S
C1751 C1750 1.385 . S
C1752 C1750 1.478 . S
C1752 C1754 1.381 . S
C1752 C1758 1.383 . S
C1753 C1749 1.495 . S
C1753 H1759 0.959 . S
C1753 H1760 0.961 . S
C1753 H1761 0.960 . S
C1754 C1752 1.381 . S
C1754 C1755 1.394 . S
C1754 H1762 0.930 . S
C1755 C1754 1.394 . S
C1755 C1756 1.383 . S
C1755 H1763 0.929 . S
C1756 C1755 1.383 . S
C1756 C1757 1.377 . S
C1757 H1741 0.930 . S
C1757 C1756 1.377 . S
C1757 C1758 1.379 . S
C1758 H1742 0.931 . S
C1758 C1752 1.383 . S
C1758 C1757 1.379 . S
H1759 C1753 0.959 . S
H1760 C1753 0.961 . S
H1761 C1753 0.960 . S
H1762 C1754 0.930 . S
H1763 C1755 0.929 . S
H1764 C1772 0.929 . S
H1765 C1774 0.930 . S
H1766 C1776 0.930 . S
H1767 C1779 0.929 . S
H1768 C1782 0.930 . S
H1769 C1784 0.960 . S
H1770 C1784 0.960 . S
H1771 C1784 0.960 . S
C1772 H1764 0.929 . S
C1772 C1773 1.377 . S
C1772 C1774 1.384 . S
C1773 C1772 1.377 . S
C1773 C1779 1.390 . S
C1774 H1765 0.930 . S
C1774 C1772 1.384 . S
C1774 C1775 1.372 . S
C1775 C1774 1.372 . S
C1775 C1776 1.400 . S
C1775 C1780 1.490 . S
C1776 H1766 0.930 . S
C1776 C1775 1.400 . S
C1776 C1779 1.386 . S
H1777 C1793 0.930 . S
H1778 C1794 0.931 . S
C1779 H1767 0.929 . S
C1779 C1773 1.390 . S
C1779 C1776 1.386 . S
C1780 C1775 1.490 . S
C1780 C1782 1.395 . S
C1780 C1783 1.403 . S
H1781 C1787 0.930 . S
C1782 H1768 0.930 . S
C1782 C1780 1.395 . S
C1782 C1785 1.403 . S
C1783 C1780 1.403 . S
C1783 C1784 1.524 . S
C1783 C1787 1.400 . S
C1784 H1769 0.960 . S
C1784 H1770 0.960 . S
C1784 H1771 0.960 . S
C1784 C1783 1.524 . S
C1785 C1782 1.403 . S
C1785 C1786 1.392 . S
C1785 C1789 1.495 . S
C1786 C1785 1.392 . S
C1786 C1787 1.385 . S
C1786 C1788 1.478 . S
C1787 H1781 0.930 . S
C1787 C1783 1.400 . S
C1787 C1786 1.385 . S
C1788 C1786 1.478 . S
C1788 C1790 1.381 . S
C1788 C1794 1.383 . S
C1789 C1785 1.495 . S
C1789 H1795 0.959 . S
C1789 H1796 0.961 . S
C1789 H1797 0.960 . S
C1790 C1788 1.381 . S
C1790 C1791 1.394 . S
C1790 H1798 0.930 . S
C1791 C1790 1.394 . S
C1791 C1792 1.383 . S
C1791 H1799 0.929 . S
C1792 C1791 1.383 . S
C1792 C1793 1.377 . S
C1793 H1777 0.930 . S
C1793 C1792 1.377 . S
C1793 C1794 1.379 . S
C1794 H1778 0.931 . S
C1794 C1788 1.383 . S
C1794 C1793 1.379 . S
H1795 C1789 0.959 . S
H1796 C1789 0.961 . S
H1797 C1789 0.960 . S
H1798 C1790 0.930 . S
H1799 C1791 0.929 . S
H1800 C1808 0.929 . S
H1801 C1810 0.930 . S
H1802 C1812 0.930 . S
H1803 C1815 0.929 . S
H1804 C1818 0.930 . S
H1805 C1820 0.960 . S
H1806 C1820 0.960 . S
H1807 C1820 0.960 . S
C1808 H1800 0.929 . S
C1808 C1809 1.377 . S
C1808 C1810 1.384 . S
C1809 C1808 1.377 . S
C1809 C1815 1.390 . S
C1810 H1801 0.930 . S
C1810 C1808 1.384 . S
C1810 C1811 1.372 . S
C1811 C1810 1.372 . S
C1811 C1812 1.400 . S
C1811 C1816 1.490 . S
C1812 H1802 0.930 . S
C1812 C1811 1.400 . S
C1812 C1815 1.386 . S
H1813 C1829 0.930 . S
H1814 C1830 0.931 . S
C1815 H1803 0.929 . S
C1815 C1809 1.390 . S
C1815 C1812 1.386 . S
C1816 C1811 1.490 . S
C1816 C1818 1.395 . S
C1816 C1819 1.403 . S
H1817 C1823 0.930 . S
C1818 H1804 0.930 . S
C1818 C1816 1.395 . S
C1818 C1821 1.403 . S
C1819 C1816 1.403 . S
C1819 C1820 1.524 . S
C1819 C1823 1.400 . S
C1820 H1805 0.960 . S
C1820 H1806 0.960 . S
C1820 H1807 0.960 . S
C1820 C1819 1.524 . S
C1821 C1818 1.403 . S
C1821 C1822 1.392 . S
C1821 C1825 1.495 . S
C1822 C1821 1.392 . S
C1822 C1823 1.385 . S
C1822 C1824 1.478 . S
C1823 H1817 0.930 . S
C1823 C1819 1.400 . S
C1823 C1822 1.385 . S
C1824 C1822 1.478 . S
C1824 C1826 1.381 . S
C1824 C1830 1.383 . S
C1825 C1821 1.495 . S
C1825 H1831 0.959 . S
C1825 H1832 0.961 . S
C1825 H1833 0.960 . S
C1826 C1824 1.381 . S
C1826 C1827 1.394 . S
C1826 H1834 0.930 . S
C1827 C1826 1.394 . S
C1827 C1828 1.383 . S
C1827 H1835 0.929 . S
C1828 C1827 1.383 . S
C1828 C1829 1.377 . S
C1829 H1813 0.930 . S
C1829 C1828 1.377 . S
C1829 C1830 1.379 . S
C1830 H1814 0.931 . S
C1830 C1824 1.383 . S
C1830 C1829 1.379 . S
H1831 C1825 0.959 . S
H1832 C1825 0.961 . S
H1833 C1825 0.960 . S
H1834 C1826 0.930 . S
H1835 C1827 0.929 . S
H1836 C1844 0.929 . S
H1837 C1846 0.930 . S
H1838 C1848 0.930 . S
H1839 C1851 0.929 . S
H1840 C1854 0.930 . S
H1841 C1856 0.960 . S
H1842 C1856 0.960 . S
H1843 C1856 0.960 . S
C1844 H1836 0.929 . S
C1844 C1845 1.377 . S
C1844 C1846 1.384 . S
C1845 C1844 1.377 . S
C1845 C1851 1.390 . S
C1846 H1837 0.930 . S
C1846 C1844 1.384 . S
C1846 C1847 1.372 . S
C1847 C1846 1.372 . S
C1847 C1848 1.400 . S
C1847 C1852 1.490 . S
C1848 H1838 0.930 . S
C1848 C1847 1.400 . S
C1848 C1851 1.386 . S
H1849 C1865 0.930 . S
H1850 C1866 0.931 . S
C1851 H1839 0.929 . S
C1851 C1845 1.390 . S
C1851 C1848 1.386 . S
C1852 C1847 1.490 . S
C1852 C1854 1.395 . S
C1852 C1855 1.403 . S
H1853 C1859 0.930 . S
C1854 H1840 0.930 . S
C1854 C1852 1.395 . S
C1854 C1857 1.403 . S
C1855 C1852 1.403 . S
C1855 C1856 1.524 . S
C1855 C1859 1.400 . S
C1856 H1841 0.960 . S
C1856 H1842 0.960 . S
C1856 H1843 0.960 . S
C1856 C1855 1.524 . S
C1857 C1854 1.403 . S
C1857 C1858 1.392 . S
C1857 C1861 1.495 . S
C1858 C1857 1.392 . S
C1858 C1859 1.385 . S
C1858 C1860 1.478 . S
C1859 H1853 0.930 . S
C1859 C1855 1.400 . S
C1859 C1858 1.385 . S
C1860 C1858 1.478 . S
C1860 C1862 1.381 . S
C1860 C1866 1.383 . S
C1861 C1857 1.495 . S
C1861 H1867 0.959 . S
C1861 H1868 0.961 . S
C1861 H1869 0.960 . S
C1862 C1860 1.381 . S
C1862 C1863 1.394 . S
C1862 H1870 0.930 . S
C1863 C1862 1.394 . S
C1863 C1864 1.383 . S
C1863 H1871 0.929 . S
C1864 C1863 1.383 . S
C1864 C1865 1.377 . S
C1865 H1849 0.930 . S
C1865 C1864 1.377 . S
C1865 C1866 1.379 . S
C1866 H1850 0.931 . S
C1866 C1860 1.383 . S
C1866 C1865 1.379 . S
H1867 C1861 0.959 . S
H1868 C1861 0.961 . S
H1869 C1861 0.960 . S
H1870 C1862 0.930 . S
H1871 C1863 0.929 . S
H1872 C1880 0.929 . S
H1873 C1882 0.930 . S
H1874 C1884 0.930 . S
H1875 C1887 0.929 . S
H1876 C1890 0.930 . S
H1877 C1892 0.960 . S
H1878 C1892 0.960 . S
H1879 C1892 0.960 . S
C1880 H1872 0.929 . S
C1880 C1881 1.377 . S
C1880 C1882 1.384 . S
C1881 C1880 1.377 . S
C1881 C1887 1.390 . S
C1882 H1873 0.930 . S
C1882 C1880 1.384 . S
C1882 C1883 1.372 . S
C1883 C1882 1.372 . S
C1883 C1884 1.400 . S
C1883 C1888 1.490 . S
C1884 H1874 0.930 . S
C1884 C1883 1.400 . S
C1884 C1887 1.386 . S
H1885 C1901 0.930 . S
H1886 C1902 0.931 . S
C1887 H1875 0.929 . S
C1887 C1881 1.390 . S
C1887 C1884 1.386 . S
C1888 C1883 1.490 . S
C1888 C1890 1.395 . S
C1888 C1891 1.403 . S
H1889 C1895 0.930 . S
C1890 H1876 0.930 . S
C1890 C1888 1.395 . S
C1890 C1893 1.403 . S
C1891 C1888 1.403 . S
C1891 C1892 1.524 . S
C1891 C1895 1.400 . S
C1892 H1877 0.960 . S
C1892 H1878 0.960 . S
C1892 H1879 0.960 . S
C1892 C1891 1.524 . S
C1893 C1890 1.403 . S
C1893 C1894 1.392 . S
C1893 C1897 1.495 . S
C1894 C1893 1.392 . S
C1894 C1895 1.385 . S
C1894 C1896 1.478 . S
C1895 H1889 0.930 . S
C1895 C1891 1.400 . S
C1895 C1894 1.385 . S
C1896 C1894 1.478 . S
C1896 C1898 1.381 . S
C1896 C1902 1.383 . S
C1897 C1893 1.495 . S
C1897 H1903 0.959 . S
C1897 H1904 0.961 . S
C1897 H1905 0.960 . S
C1898 C1896 1.381 . S
C1898 C1899 1.394 . S
C1898 H1906 0.930 . S
C1899 C1898 1.394 . S
C1899 C1900 1.383 . S
C1899 H1907 0.929 . S
C1900 C1899 1.383 . S
C1900 C1901 1.377 . S
C1901 H1885 0.930 . S
C1901 C1900 1.377 . S
C1901 C1902 1.379 . S
C1902 H1886 0.931 . S
C1902 C1896 1.383 . S
C1902 C1901 1.379 . S
H1903 C1897 0.959 . S
H1904 C1897 0.961 . S
H1905 C1897 0.960 . S
H1906 C1898 0.930 . S
H1907 C1899 0.929 . S
H1908 C1916 0.929 . S
H1909 C1918 0.930 . S
H1910 C1920 0.930 . S
H1911 C1923 0.929 . S
H1912 C1926 0.930 . S
H1913 C1928 0.960 . S
H1914 C1928 0.960 . S
H1915 C1928 0.960 . S
C1916 H1908 0.929 . S
C1916 C1917 1.377 . S
C1916 C1918 1.384 . S
C1917 C1916 1.377 . S
C1917 C1923 1.390 . S
C1918 H1909 0.930 . S
C1918 C1916 1.384 . S
C1918 C1919 1.372 . S
C1919 C1918 1.372 . S
C1919 C1920 1.400 . S
C1919 C1924 1.490 . S
C1920 H1910 0.930 . S
C1920 C1919 1.400 . S
C1920 C1923 1.386 . S
H1921 C1937 0.930 . S
H1922 C1938 0.931 . S
C1923 H1911 0.929 . S
C1923 C1917 1.390 . S
C1923 C1920 1.386 . S
C1924 C1919 1.490 . S
C1924 C1926 1.395 . S
C1924 C1927 1.403 . S
H1925 C1931 0.930 . S
C1926 H1912 0.930 . S
C1926 C1924 1.395 . S
C1926 C1929 1.403 . S
C1927 C1924 1.403 . S
C1927 C1928 1.524 . S
C1927 C1931 1.400 . S
C1928 H1913 0.960 . S
C1928 H1914 0.960 . S
C1928 H1915 0.960 . S
C1928 C1927 1.524 . S
C1929 C1926 1.403 . S
C1929 C1930 1.392 . S
C1929 C1933 1.495 . S
C1930 C1929 1.392 . S
C1930 C1931 1.385 . S
C1930 C1932 1.478 . S
C1931 H1925 0.930 . S
C1931 C1927 1.400 . S
C1931 C1930 1.385 . S
C1932 C1930 1.478 . S
C1932 C1934 1.381 . S
C1932 C1938 1.383 . S
C1933 C1929 1.495 . S
C1933 H1939 0.959 . S
C1933 H1940 0.961 . S
C1933 H1941 0.960 . S
C1934 C1932 1.381 . S
C1934 C1935 1.394 . S
C1934 H1942 0.930 . S
C1935 C1934 1.394 . S
C1935 C1936 1.383 . S
C1935 H1943 0.929 . S
C1936 C1935 1.383 . S
C1936 C1937 1.377 . S
C1937 H1921 0.930 . S
C1937 C1936 1.377 . S
C1937 C1938 1.379 . S
C1938 H1922 0.931 . S
C1938 C1932 1.383 . S
C1938 C1937 1.379 . S
H1939 C1933 0.959 . S
H1940 C1933 0.961 . S
H1941 C1933 0.960 . S
H1942 C1934 0.930 . S
H1943 C1935 0.929 . S
H1944 C1952 0.929 . S
H1945 C1954 0.930 . S
H1946 C1956 0.930 . S
H1947 C1959 0.929 . S
H1948 C1962 0.930 . S
H1949 C1964 0.960 . S
H1950 C1964 0.960 . S
H1951 C1964 0.960 . S
C1952 H1944 0.929 . S
C1952 C1953 1.377 . S
C1952 C1954 1.384 . S
C1953 C1952 1.377 . S
C1953 C1959 1.390 . S
C1954 H1945 0.930 . S
C1954 C1952 1.384 . S
C1954 C1955 1.372 . S
C1955 C1954 1.372 . S
C1955 C1956 1.400 . S
C1955 C1960 1.490 . S
C1956 H1946 0.930 . S
C1956 C1955 1.400 . S
C1956 C1959 1.386 . S
H1957 C1973 0.930 . S
H1958 C1974 0.931 . S
C1959 H1947 0.929 . S
C1959 C1953 1.390 . S
C1959 C1956 1.386 . S
C1960 C1955 1.490 . S
C1960 C1962 1.395 . S
C1960 C1963 1.403 . S
H1961 C1967 0.930 . S
C1962 H1948 0.930 . S
C1962 C1960 1.395 . S
C1962 C1965 1.403 . S
C1963 C1960 1.403 . S
C1963 C1964 1.524 . S
C1963 C1967 1.400 . S
C1964 H1949 0.960 . S
C1964 H1950 0.960 . S
C1964 H1951 0.960 . S
C1964 C1963 1.524 . S
C1965 C1962 1.403 . S
C1965 C1966 1.392 . S
C1965 C1969 1.495 . S
C1966 C1965 1.392 . S
C1966 C1967 1.385 . S
C1966 C1968 1.478 . S
C1967 H1961 0.930 . S
C1967 C1963 1.400 . S
C1967 C1966 1.385 . S
C1968 C1966 1.478 . S
C1968 C1970 1.381 . S
C1968 C1974 1.383 . S
C1969 C1965 1.495 . S
C1969 H1975 0.959 . S
C1969 H1976 0.961 . S
C1969 H1977 0.960 . S
C1970 C1968 1.381 . S
C1970 C1971 1.394 . S
C1970 H1978 0.930 . S
C1971 C1970 1.394 . S
C1971 C1972 1.383 . S
C1971 H1979 0.929 . S
C1972 C1971 1.383 . S
C1972 C1973 1.377 . S
C1973 H1957 0.930 . S
C1973 C1972 1.377 . S
C1973 C1974 1.379 . S
C1974 H1958 0.931 . S
C1974 C1968 1.383 . S
C1974 C1973 1.379 . S
H1975 C1969 0.959 . S
H1976 C1969 0.961 . S
H1977 C1969 0.960 . S
H1978 C1970 0.930 . S
H1979 C1971 0.929 . S
H1980 C1988 0.929 . S
H1981 C1990 0.930 . S
H1982 C1992 0.930 . S
H1983 C1995 0.929 . S
H1984 C1998 0.930 . S
H1985 C2000 0.960 . S
H1986 C2000 0.960 . S
H1987 C2000 0.960 . S
C1988 H1980 0.929 . S
C1988 C1989 1.377 . S
C1988 C1990 1.384 . S
C1989 C1988 1.377 . S
C1989 C1995 1.390 . S
C1990 H1981 0.930 . S
C1990 C1988 1.384 . S
C1990 C1991 1.372 . S
C1991 C1990 1.372 . S
C1991 C1992 1.400 . S
C1991 C1996 1.490 . S
C1992 H1982 0.930 . S
C1992 C1991 1.400 . S
C1992 C1995 1.386 . S
H1993 C2009 0.930 . S
H1994 C2010 0.931 . S
C1995 H1983 0.929 . S
C1995 C1989 1.390 . S
C1995 C1992 1.386 . S
C1996 C1991 1.490 . S
C1996 C1998 1.395 . S
C1996 C1999 1.403 . S
H1997 C2003 0.930 . S
C1998 H1984 0.930 . S
C1998 C1996 1.395 . S
C1998 C2001 1.403 . S
C1999 C1996 1.403 . S
C1999 C2000 1.524 . S
C1999 C2003 1.400 . S
C2000 H1985 0.960 . S
C2000 H1986 0.960 . S
C2000 H1987 0.960 . S
C2000 C1999 1.524 . S
C2001 C1998 1.403 . S
C2001 C2002 1.392 . S
C2001 C2005 1.495 . S
C2002 C2001 1.392 . S
C2002 C2003 1.385 . S
C2002 C2004 1.478 . S
C2003 H1997 0.930 . S
C2003 C1999 1.400 . S
C2003 C2002 1.385 . S
C2004 C2002 1.478 . S
C2004 C2006 1.381 . S
C2004 C2010 1.383 . S
C2005 C2001 1.495 . S
C2005 H2011 0.959 . S
C2005 H2012 0.961 . S
C2005 H2013 0.960 . S
C2006 C2004 1.381 . S
C2006 C2007 1.394 . S
C2006 H2014 0.930 . S
C2007 C2006 1.394 . S
C2007 C2008 1.383 . S
C2007 H2015 0.929 . S
C2008 C2007 1.383 . S
C2008 C2009 1.377 . S
C2009 H1993 0.930 . S
C2009 C2008 1.377 . S
C2009 C2010 1.379 . S
C2010 H1994 0.931 . S
C2010 C2004 1.383 . S
C2010 C2009 1.379 . S
H2011 C2005 0.959 . S
H2012 C2005 0.961 . S
H2013 C2005 0.960 . S
H2014 C2006 0.930 . S
H2015 C2007 0.929 . S
H2016 C2024 0.929 . S
H2017 C2026 0.930 . S
H2018 C2028 0.930 . S
H2019 C2031 0.929 . S
H2020 C2034 0.930 . S
H2021 C2036 0.960 . S
H2022 C2036 0.960 . S
H2023 C2036 0.960 . S
C2024 H2016 0.929 . S
C2024 C2025 1.377 . S
C2024 C2026 1.384 . S
C2025 C2024 1.377 . S
C2025 C2031 1.390 . S
C2026 H2017 0.930 . S
C2026 C2024 1.384 . S
C2026 C2027 1.372 . S
C2027 C2026 1.372 . S
C2027 C2028 1.400 . S
C2027 C2032 1.490 . S
C2028 H2018 0.930 . S
C2028 C2027 1.400 . S
C2028 C2031 1.386 . S
H2029 C2045 0.930 . S
H2030 C2046 0.931 . S
C2031 H2019 0.929 . S
C2031 C2025 1.390 . S
C2031 C2028 1.386 . S
C2032 C2027 1.490 . S
C2032 C2034 1.395 . S
C2032 C2035 1.403 . S
H2033 C2039 0.930 . S
C2034 H2020 0.930 . S
C2034 C2032 1.395 . S
C2034 C2037 1.403 . S
C2035 C2032 1.403 . S
C2035 C2036 1.524 . S
C2035 C2039 1.400 . S
C2036 H2021 0.960 . S
C2036 H2022 0.960 . S
C2036 H2023 0.960 . S
C2036 C2035 1.524 . S
C2037 C2034 1.403 . S
C2037 C2038 1.392 . S
C2037 C2041 1.495 . S
C2038 C2037 1.392 . S
C2038 C2039 1.385 . S
C2038 C2040 1.478 . S
C2039 H2033 0.930 . S
C2039 C2035 1.400 . S
C2039 C2038 1.385 . S
C2040 C2038 1.478 . S
C2040 C2042 1.381 . S
C2040 C2046 1.383 . S
C2041 C2037 1.495 . S
C2041 H2047 0.959 . S
C2041 H2048 0.961 . S
C2041 H2049 0.960 . S
C2042 C2040 1.381 . S
C2042 C2043 1.394 . S
C2042 H2050 0.930 . S
C2043 C2042 1.394 . S
C2043 C2044 1.383 . S
C2043 H2051 0.929 . S
C2044 C2043 1.383 . S
C2044 C2045 1.377 . S
C2045 H2029 0.930 . S
C2045 C2044 1.377 . S
C2045 C2046 1.379 . S
C2046 H2030 0.931 . S
C2046 C2040 1.383 . S
C2046 C2045 1.379 . S
H2047 C2041 0.959 . S
H2048 C2041 0.961 . S
H2049 C2041 0.960 . S
H2050 C2042 0.930 . S
H2051 C2043 0.929 . S
H2052 C2060 0.929 . S
H2053 C2062 0.930 . S
H2054 C2064 0.930 . S
H2055 C2067 0.929 . S
H2056 C2070 0.930 . S
H2057 C2072 0.960 . S
H2058 C2072 0.960 . S
H2059 C2072 0.960 . S
C2060 H2052 0.929 . S
C2060 C2061 1.377 . S
C2060 C2062 1.384 . S
C2061 C2060 1.377 . S
C2061 C2067 1.390 . S
C2062 H2053 0.930 . S
C2062 C2060 1.384 . S
C2062 C2063 1.372 . S
C2063 C2062 1.372 . S
C2063 C2064 1.400 . S
C2063 C2068 1.490 . S
C2064 H2054 0.930 . S
C2064 C2063 1.400 . S
C2064 C2067 1.386 . S
H2065 C2081 0.930 . S
H2066 C2082 0.931 . S
C2067 H2055 0.929 . S
C2067 C2061 1.390 . S
C2067 C2064 1.386 . S
C2068 C2063 1.490 . S
C2068 C2070 1.395 . S
C2068 C2071 1.403 . S
H2069 C2075 0.930 . S
C2070 H2056 0.930 . S
C2070 C2068 1.395 . S
C2070 C2073 1.403 . S
C2071 C2068 1.403 . S
C2071 C2072 1.524 . S
C2071 C2075 1.400 . S
C2072 H2057 0.960 . S
C2072 H2058 0.960 . S
C2072 H2059 0.960 . S
C2072 C2071 1.524 . S
C2073 C2070 1.403 . S
C2073 C2074 1.392 . S
C2073 C2077 1.495 . S
C2074 C2073 1.392 . S
C2074 C2075 1.385 . S
C2074 C2076 1.478 . S
C2075 H2069 0.930 . S
C2075 C2071 1.400 . S
C2075 C2074 1.385 . S
C2076 C2074 1.478 . S
C2076 C2078 1.381 . S
C2076 C2082 1.383 . S
C2077 C2073 1.495 . S
C2077 H2083 0.959 . S
C2077 H2084 0.961 . S
C2077 H2085 0.960 . S
C2078 C2076 1.381 . S
C2078 C2079 1.394 . S
C2078 H2086 0.930 . S
C2079 C2078 1.394 . S
C2079 C2080 1.383 . S
C2079 H2087 0.929 . S
C2080 C2079 1.383 . S
C2080 C2081 1.377 . S
C2081 H2065 0.930 . S
C2081 C2080 1.377 . S
C2081 C2082 1.379 . S
C2082 H2066 0.931 . S
C2082 C2076 1.383 . S
C2082 C2081 1.379 . S
H2083 C2077 0.959 . S
H2084 C2077 0.961 . S
H2085 C2077 0.960 . S
H2086 C2078 0.930 . S
H2087 C2079 0.929 . S
H2088 C2096 0.929 . S
H2089 C2098 0.930 . S
H2090 C2100 0.930 . S
H2091 C2103 0.929 . S
H2092 C2106 0.930 . S
H2093 C2108 0.960 . S
H2094 C2108 0.960 . S
H2095 C2108 0.960 . S
C2096 H2088 0.929 . S
C2096 C2097 1.377 . S
C2096 C2098 1.384 . S
C2097 C2096 1.377 . S
C2097 C2103 1.390 . S
C2098 H2089 0.930 . S
C2098 C2096 1.384 . S
C2098 C2099 1.372 . S
C2099 C2098 1.372 . S
C2099 C2100 1.400 . S
C2099 C2104 1.490 . S
C2100 H2090 0.930 . S
C2100 C2099 1.400 . S
C2100 C2103 1.386 . S
H2101 C2117 0.930 . S
H2102 C2118 0.931 . S
C2103 H2091 0.929 . S
C2103 C2097 1.390 . S
C2103 C2100 1.386 . S
C2104 C2099 1.490 . S
C2104 C2106 1.395 . S
C2104 C2107 1.403 . S
H2105 C2111 0.930 . S
C2106 H2092 0.930 . S
C2106 C2104 1.395 . S
C2106 C2109 1.403 . S
C2107 C2104 1.403 . S
C2107 C2108 1.524 . S
C2107 C2111 1.400 . S
C2108 H2093 0.960 . S
C2108 H2094 0.960 . S
C2108 H2095 0.960 . S
C2108 C2107 1.524 . S
C2109 C2106 1.403 . S
C2109 C2110 1.392 . S
C2109 C2113 1.495 . S
C2110 C2109 1.392 . S
C2110 C2111 1.385 . S
C2110 C2112 1.478 . S
C2111 H2105 0.930 . S
C2111 C2107 1.400 . S
C2111 C2110 1.385 . S
C2112 C2110 1.478 . S
C2112 C2114 1.381 . S
C2112 C2118 1.383 . S
C2113 C2109 1.495 . S
C2113 H2119 0.959 . S
C2113 H2120 0.961 . S
C2113 H2121 0.960 . S
C2114 C2112 1.381 . S
C2114 C2115 1.394 . S
C2114 H2122 0.930 . S
C2115 C2114 1.394 . S
C2115 C2116 1.383 . S
C2115 H2123 0.929 . S
C2116 C2115 1.383 . S
C2116 C2117 1.377 . S
C2117 H2101 0.930 . S
C2117 C2116 1.377 . S
C2117 C2118 1.379 . S
C2118 H2102 0.931 . S
C2118 C2112 1.383 . S
C2118 C2117 1.379 . S
H2119 C2113 0.959 . S
H2120 C2113 0.961 . S
H2121 C2113 0.960 . S
H2122 C2114 0.930 . S
H2123 C2115 0.929 . S
H2124 C2132 0.929 . S
H2125 C2134 0.930 . S
H2126 C2136 0.930 . S
H2127 C2139 0.929 . S
H2128 C2142 0.930 . S
H2129 C2144 0.960 . S
H2130 C2144 0.960 . S
H2131 C2144 0.960 . S
C2132 H2124 0.929 . S
C2132 C2133 1.377 . S
C2132 C2134 1.384 . S
C2133 C2132 1.377 . S
C2133 C2139 1.390 . S
C2134 H2125 0.930 . S
C2134 C2132 1.384 . S
C2134 C2135 1.372 . S
C2135 C2134 1.372 . S
C2135 C2136 1.400 . S
C2135 C2140 1.490 . S
C2136 H2126 0.930 . S
C2136 C2135 1.400 . S
C2136 C2139 1.386 . S
H2137 C2153 0.930 . S
H2138 C2154 0.931 . S
C2139 H2127 0.929 . S
C2139 C2133 1.390 . S
C2139 C2136 1.386 . S
C2140 C2135 1.490 . S
C2140 C2142 1.395 . S
C2140 C2143 1.403 . S
H2141 C2147 0.930 . S
C2142 H2128 0.930 . S
C2142 C2140 1.395 . S
C2142 C2145 1.403 . S
C2143 C2140 1.403 . S
C2143 C2144 1.524 . S
C2143 C2147 1.400 . S
C2144 H2129 0.960 . S
C2144 H2130 0.960 . S
C2144 H2131 0.960 . S
C2144 C2143 1.524 . S
C2145 C2142 1.403 . S
C2145 C2146 1.392 . S
C2145 C2149 1.495 . S
C2146 C2145 1.392 . S
C2146 C2147 1.385 . S
C2146 C2148 1.478 . S
C2147 H2141 0.930 . S
C2147 C2143 1.400 . S
C2147 C2146 1.385 . S
C2148 C2146 1.478 . S
C2148 C2150 1.381 . S
C2148 C2154 1.383 . S
C2149 C2145 1.495 . S
C2149 H2155 0.959 . S
C2149 H2156 0.961 . S
C2149 H2157 0.960 . S
C2150 C2148 1.381 . S
C2150 C2151 1.394 . S
C2150 H2158 0.930 . S
C2151 C2150 1.394 . S
C2151 C2152 1.383 . S
C2151 H2159 0.929 . S
C2152 C2151 1.383 . S
C2152 C2153 1.377 . S
C2153 H2137 0.930 . S
C2153 C2152 1.377 . S
C2153 C2154 1.379 . S
C2154 H2138 0.931 . S
C2154 C2148 1.383 . S
C2154 C2153 1.379 . S
H2155 C2149 0.959 . S
H2156 C2149 0.961 . S
H2157 C2149 0.960 . S
H2158 C2150 0.930 . S
H2159 C2151 0.929 . S
H2160 C2168 0.929 . S
H2161 C2170 0.930 . S
H2162 C2172 0.930 . S
H2163 C2175 0.929 . S
H2164 C2178 0.930 . S
H2165 C2180 0.960 . S
H2166 C2180 0.960 . S
H2167 C2180 0.960 . S
C2168 H2160 0.929 . S
C2168 C2169 1.377 . S
C2168 C2170 1.384 . S
C2169 C2168 1.377 . S
C2169 C2175 1.390 . S
C2170 H2161 0.930 . S
C2170 C2168 1.384 . S
C2170 C2171 1.372 . S
C2171 C2170 1.372 . S
C2171 C2172 1.400 . S
C2171 C2176 1.490 . S
C2172 H2162 0.930 . S
C2172 C2171 1.400 . S
C2172 C2175 1.386 . S
H2173 C2189 0.930 . S
H2174 C2190 0.931 . S
C2175 H2163 0.929 . S
C2175 C2169 1.390 . S
C2175 C2172 1.386 . S
C2176 C2171 1.490 . S
C2176 C2178 1.395 . S
C2176 C2179 1.403 . S
H2177 C2183 0.930 . S
C2178 H2164 0.930 . S
C2178 C2176 1.395 . S
C2178 C2181 1.403 . S
C2179 C2176 1.403 . S
C2179 C2180 1.524 . S
C2179 C2183 1.400 . S
C2180 H2165 0.960 . S
C2180 H2166 0.960 . S
C2180 H2167 0.960 . S
C2180 C2179 1.524 . S
C2181 C2178 1.403 . S
C2181 C2182 1.392 . S
C2181 C2185 1.495 . S
C2182 C2181 1.392 . S
C2182 C2183 1.385 . S
C2182 C2184 1.478 . S
C2183 H2177 0.930 . S
C2183 C2179 1.400 . S
C2183 C2182 1.385 . S
C2184 C2182 1.478 . S
C2184 C2186 1.381 . S
C2184 C2190 1.383 . S
C2185 C2181 1.495 . S
C2185 H2191 0.959 . S
C2185 H2192 0.961 . S
C2185 H2193 0.960 . S
C2186 C2184 1.381 . S
C2186 C2187 1.394 . S
C2186 H2194 0.930 . S
C2187 C2186 1.394 . S
C2187 C2188 1.383 . S
C2187 H2195 0.929 . S
C2188 C2187 1.383 . S
C2188 C2189 1.377 . S
C2189 H2173 0.930 . S
C2189 C2188 1.377 . S
C2189 C2190 1.379 . S
C2190 H2174 0.931 . S
C2190 C2184 1.383 . S
C2190 C2189 1.379 . S
H2191 C2185 0.959 . S
H2192 C2185 0.961 . S
H2193 C2185 0.960 . S
H2194 C2186 0.930 . S
H2195 C2187 0.929 . S
H2196 C2204 0.929 . S
H2197 C2206 0.930 . S
H2198 C2208 0.930 . S
H2199 C2211 0.929 . S
H2200 C2214 0.930 . S
H2201 C2216 0.960 . S
H2202 C2216 0.960 . S
H2203 C2216 0.960 . S
C2204 H2196 0.929 . S
C2204 C2205 1.377 . S
C2204 C2206 1.384 . S
C2205 C2204 1.377 . S
C2205 C2211 1.390 . S
C2206 H2197 0.930 . S
C2206 C2204 1.384 . S
C2206 C2207 1.372 . S
C2207 C2206 1.372 . S
C2207 C2208 1.400 . S
C2207 C2212 1.490 . S
C2208 H2198 0.930 . S
C2208 C2207 1.400 . S
C2208 C2211 1.386 . S
H2209 C2225 0.930 . S
H2210 C2226 0.931 . S
C2211 H2199 0.929 . S
C2211 C2205 1.390 . S
C2211 C2208 1.386 . S
C2212 C2207 1.490 . S
C2212 C2214 1.395 . S
C2212 C2215 1.403 . S
H2213 C2219 0.930 . S
C2214 H2200 0.930 . S
C2214 C2212 1.395 . S
C2214 C2217 1.403 . S
C2215 C2212 1.403 . S
C2215 C2216 1.524 . S
C2215 C2219 1.400 . S
C2216 H2201 0.960 . S
C2216 H2202 0.960 . S
C2216 H2203 0.960 . S
C2216 C2215 1.524 . S
C2217 C2214 1.403 . S
C2217 C2218 1.392 . S
C2217 C2221 1.495 . S
C2218 C2217 1.392 . S
C2218 C2219 1.385 . S
C2218 C2220 1.478 . S
C2219 H2213 0.930 . S
C2219 C2215 1.400 . S
C2219 C2218 1.385 . S
C2220 C2218 1.478 . S
C2220 C2222 1.381 . S
C2220 C2226 1.383 . S
C2221 C2217 1.495 . S
C2221 H2227 0.959 . S
C2221 H2228 0.961 . S
C2221 H2229 0.960 . S
C2222 C2220 1.381 . S
C2222 C2223 1.394 . S
C2222 H2230 0.930 . S
C2223 C2222 1.394 . S
C2223 C2224 1.383 . S
C2223 H2231 0.929 . S
C2224 C2223 1.383 . S
C2224 C2225 1.377 . S
C2225 H2209 0.930 . S
C2225 C2224 1.377 . S
C2225 C2226 1.379 . S
C2226 H2210 0.931 . S
C2226 C2220 1.383 . S
C2226 C2225 1.379 . S
H2227 C2221 0.959 . S
H2228 C2221 0.961 . S
H2229 C2221 0.960 . S
H2230 C2222 0.930 . S
H2231 C2223 0.929 . S
H2232 C2240 0.929 . S
H2233 C2242 0.930 . S
H2234 C2244 0.930 . S
H2235 C2247 0.929 . S
H2236 C2250 0.930 . S
H2237 C2252 0.960 . S
H2238 C2252 0.960 . S
H2239 C2252 0.960 . S
C2240 H2232 0.929 . S
C2240 C2241 1.377 . S
C2240 C2242 1.384 . S
C2241 C2240 1.377 . S
C2241 C2247 1.390 . S
C2242 H2233 0.930 . S
C2242 C2240 1.384 . S
C2242 C2243 1.372 . S
C2243 C2242 1.372 . S
C2243 C2244 1.400 . S
C2243 C2248 1.490 . S
C2244 H2234 0.930 . S
C2244 C2243 1.400 . S
C2244 C2247 1.386 . S
H2245 C2261 0.930 . S
H2246 C2262 0.931 . S
C2247 H2235 0.929 . S
C2247 C2241 1.390 . S
C2247 C2244 1.386 . S
C2248 C2243 1.490 . S
C2248 C2250 1.395 . S
C2248 C2251 1.403 . S
H2249 C2255 0.930 . S
C2250 H2236 0.930 . S
C2250 C2248 1.395 . S
C2250 C2253 1.403 1_455 S
C2251 C2248 1.403 . S
C2251 C2252 1.524 . S
C2251 C2255 1.400 1_455 S
C2252 H2237 0.960 . S
C2252 H2238 0.960 . S
C2252 H2239 0.960 . S
C2252 C2251 1.524 . S
C2253 C2250 1.403 1_655 S
C2253 C2254 1.392 . S
C2253 C2257 1.495 . S
C2254 C2253 1.392 . S
C2254 C2255 1.385 . S
C2254 C2256 1.478 . S
C2255 H2249 0.930 . S
C2255 C2251 1.400 1_655 S
C2255 C2254 1.385 . S
C2256 C2254 1.478 . S
C2256 C2258 1.381 . S
C2256 C2262 1.383 . S
C2257 C2253 1.495 . S
C2257 H2263 0.959 . S
C2257 H2264 0.961 . S
C2257 H2265 0.960 . S
C2258 C2256 1.381 . S
C2258 C2259 1.394 . S
C2258 H2266 0.930 . S
C2259 C2258 1.394 . S
C2259 C2260 1.383 . S
C2259 H2267 0.929 . S
C2260 C2259 1.383 . S
C2260 C2261 1.377 . S
C2261 H2245 0.930 . S
C2261 C2260 1.377 . S
C2261 C2262 1.379 . S
C2262 H2246 0.931 . S
C2262 C2256 1.383 . S
C2262 C2261 1.379 . S
H2263 C2257 0.959 . S
H2264 C2257 0.961 . S
H2265 C2257 0.960 . S
H2266 C2258 0.930 . S
H2267 C2259 0.929 . S
H2268 C2276 0.929 . S
H2269 C2278 0.930 . S
H2270 C2280 0.930 . S
H2271 C2283 0.929 . S
H2272 C2286 0.930 . S
H2273 C2288 0.960 . S
H2274 C2288 0.960 . S
H2275 C2288 0.960 . S
C2276 H2268 0.929 . S
C2276 C2277 1.377 . S
C2276 C2278 1.384 . S
C2277 C2276 1.377 . S
C2277 C2283 1.390 . S
C2278 H2269 0.930 . S
C2278 C2276 1.384 . S
C2278 C2279 1.372 . S
C2279 C2278 1.372 . S
C2279 C2280 1.400 . S
C2279 C2284 1.490 . S
C2280 H2270 0.930 . S
C2280 C2279 1.400 . S
C2280 C2283 1.386 . S
H2281 C2297 0.930 . S
H2282 C2298 0.931 . S
C2283 H2271 0.929 . S
C2283 C2277 1.390 . S
C2283 C2280 1.386 . S
C2284 C2279 1.490 . S
C2284 C2286 1.395 . S
C2284 C2287 1.403 . S
H2285 C2291 0.930 . S
C2286 H2272 0.930 . S
C2286 C2284 1.395 . S
C2286 C2289 1.403 . S
C2287 C2284 1.403 . S
C2287 C2288 1.524 . S
C2287 C2291 1.400 . S
C2288 H2273 0.960 . S
C2288 H2274 0.960 . S
C2288 H2275 0.960 . S
C2288 C2287 1.524 . S
C2289 C2286 1.403 . S
C2289 C2290 1.392 . S
C2289 C2293 1.495 . S
C2290 C2289 1.392 . S
C2290 C2291 1.385 . S
C2290 C2292 1.478 . S
C2291 H2285 0.930 . S
C2291 C2287 1.400 . S
C2291 C2290 1.385 . S
C2292 C2290 1.478 . S
C2292 C2294 1.381 . S
C2292 C2298 1.383 . S
C2293 C2289 1.495 . S
C2293 H2299 0.959 . S
C2293 H2300 0.961 . S
C2293 H2301 0.960 . S
C2294 C2292 1.381 . S
C2294 C2295 1.394 . S
C2294 H2302 0.930 . S
C2295 C2294 1.394 . S
C2295 C2296 1.383 . S
C2295 H2303 0.929 . S
C2296 C2295 1.383 . S
C2296 C2297 1.377 . S
C2297 H2281 0.930 . S
C2297 C2296 1.377 . S
C2297 C2298 1.379 . S
C2298 H2282 0.931 . S
C2298 C2292 1.383 . S
C2298 C2297 1.379 . S
H2299 C2293 0.959 . S
H2300 C2293 0.961 . S
H2301 C2293 0.960 . S
H2302 C2294 0.930 . S
H2303 C2295 0.929 . S
H2304 C2312 0.929 . S
H2305 C2314 0.930 . S
H2306 C2316 0.930 . S
H2307 C2319 0.929 . S
H2308 C2322 0.930 . S
H2309 C2324 0.944 1_565 S
H2310 C2324 0.960 . S
H2311 C2324 0.960 . S
C2312 H2304 0.929 . S
C2312 C2313 1.377 . S
C2312 C2314 1.384 . S
C2313 C2312 1.377 . S
C2313 C2319 1.390 . S
C2314 H2305 0.930 . S
C2314 C2312 1.384 . S
C2314 C2315 1.372 . S
C2315 C2314 1.372 . S
C2315 C2316 1.400 . S
C2315 C2320 1.490 . S
C2316 H2306 0.930 . S
C2316 C2315 1.400 . S
C2316 C2319 1.386 . S
H2317 C2333 0.930 . S
H2318 C2334 0.931 . S
C2319 H2307 0.929 . S
C2319 C2313 1.390 . S
C2319 C2316 1.386 . S
C2320 C2315 1.490 . S
C2320 C2322 1.395 . S
C2320 C2323 1.403 . S
H2321 C2327 0.930 . S
C2322 H2308 0.930 . S
C2322 C2320 1.395 . S
C2322 C2325 1.403 1_545 S
C2323 C2320 1.403 . S
C2323 C2324 1.524 . S
C2323 C2327 1.400 1_545 S
C2324 H2309 0.944 1_545 S
C2324 H2310 0.960 . S
C2324 H2311 0.960 . S
C2324 C2323 1.524 . S
C2325 C2322 1.403 1_565 S
C2325 C2326 1.392 . S
C2325 C2329 1.495 . S
C2326 C2325 1.392 . S
C2326 C2327 1.385 . S
C2326 C2328 1.478 . S
C2327 H2321 0.930 . S
C2327 C2323 1.400 1_565 S
C2327 C2326 1.385 . S
C2328 C2326 1.478 . S
C2328 C2330 1.381 . S
C2328 C2334 1.383 . S
C2329 C2325 1.495 . S
C2329 H2335 0.934 1_565 S
C2329 H2336 0.961 . S
C2329 H2337 0.960 . S
C2330 C2328 1.381 . S
C2330 C2331 1.394 . S
C2330 H2338 0.930 . S
C2331 C2330 1.394 . S
C2331 C2332 1.383 . S
C2331 H2339 0.929 . S
C2332 C2331 1.383 . S
C2332 C2333 1.377 . S
C2333 H2317 0.930 . S
C2333 C2332 1.377 . S
C2333 C2334 1.379 . S
C2334 H2318 0.931 . S
C2334 C2328 1.383 . S
C2334 C2333 1.379 . S
H2335 C2329 0.934 1_545 S
H2336 C2329 0.961 . S
H2337 C2329 0.960 . S
H2338 C2330 0.930 . S
H2339 C2331 0.929 . S
H2340 C2348 0.929 . S
H2341 C2350 0.930 . S
H2342 C2352 0.930 . S
H2343 C2355 0.929 . S
H2344 C2358 0.930 . S
H2345 C2360 0.960 . S
H2346 C2360 0.960 . S
H2347 C2360 0.960 . S
C2348 H2340 0.929 . S
C2348 C2349 1.377 . S
C2348 C2350 1.384 . S
C2349 C2348 1.377 . S
C2349 C2355 1.390 . S
C2350 H2341 0.930 . S
C2350 C2348 1.384 . S
C2350 C2351 1.372 . S
C2351 C2350 1.372 . S
C2351 C2352 1.400 . S
C2351 C2356 1.490 . S
C2352 H2342 0.930 . S
C2352 C2351 1.400 . S
C2352 C2355 1.386 . S
H2353 C2369 0.930 . S
H2354 C2370 0.931 . S
C2355 H2343 0.929 . S
C2355 C2349 1.390 . S
C2355 C2352 1.386 . S
C2356 C2351 1.490 . S
C2356 C2358 1.395 . S
C2356 C2359 1.403 . S
H2357 C2363 0.930 . S
C2358 H2344 0.930 . S
C2358 C2356 1.395 . S
C2358 C2361 1.403 1_545 S
C2359 C2356 1.403 . S
C2359 C2360 1.524 . S
C2359 C2363 1.400 1_545 S
C2360 H2345 0.960 . S
C2360 H2346 0.960 . S
C2360 H2347 0.960 . S
C2360 C2359 1.524 . S
C2361 C2358 1.403 1_565 S
C2361 C2362 1.392 . S
C2361 C2365 1.495 . S
C2362 C2361 1.392 . S
C2362 C2363 1.385 . S
C2362 C2364 1.478 . S
C2363 H2357 0.930 . S
C2363 C2359 1.400 1_565 S
C2363 C2362 1.385 . S
C2364 C2362 1.478 . S
C2364 C2366 1.381 . S
C2364 C2370 1.383 . S
C2365 C2361 1.495 . S
C2365 H2371 0.959 . S
C2365 H2372 0.961 . S
C2365 H2373 0.960 . S
C2366 C2364 1.381 . S
C2366 C2367 1.394 . S
C2366 H2374 0.930 . S
C2367 C2366 1.394 . S
C2367 C2368 1.383 . S
C2367 H2375 0.929 . S
C2368 C2367 1.383 . S
C2368 C2369 1.377 . S
C2369 H2353 0.930 . S
C2369 C2368 1.377 . S
C2369 C2370 1.379 . S
C2370 H2354 0.931 . S
C2370 C2364 1.383 . S
C2370 C2369 1.379 . S
H2371 C2365 0.959 . S
H2372 C2365 0.961 . S
H2373 C2365 0.960 . S
H2374 C2366 0.930 . S
H2375 C2367 0.929 . S
H2376 C2384 0.929 . S
H2377 C2386 0.930 . S
H2378 C2388 0.930 . S
H2379 C2391 0.929 . S
H2380 C2394 0.930 . S
H2381 C2396 0.903 1_455 S
H2382 C2396 0.960 . S
H2383 C2396 0.960 . S
C2384 H2376 0.929 . S
C2384 C2385 1.377 . S
C2384 C2386 1.384 . S
C2385 C2384 1.377 . S
C2385 C2391 1.390 . S
C2386 H2377 0.930 . S
C2386 C2384 1.384 . S
C2386 C2387 1.372 . S
C2387 C2386 1.372 . S
C2387 C2388 1.400 . S
C2387 C2392 1.490 . S
C2388 H2378 0.930 . S
C2388 C2387 1.400 . S
C2388 C2391 1.386 . S
H2389 C2405 0.930 . S
H2390 C2406 0.931 . S
C2391 H2379 0.929 . S
C2391 C2385 1.390 . S
C2391 C2388 1.386 . S
C2392 C2387 1.490 . S
C2392 C2394 1.395 . S
C2392 C2395 1.403 . S
H2393 C2399 0.930 . S
C2394 H2380 0.930 . S
C2394 C2392 1.395 . S
C2394 C2397 1.403 1_655 S
C2395 C2392 1.403 . S
C2395 C2396 1.524 . S
C2395 C2399 1.400 1_655 S
C2396 H2381 0.903 1_655 S
C2396 H2382 0.960 . S
C2396 H2383 0.960 . S
C2396 C2395 1.524 . S
C2397 C2394 1.403 1_455 S
C2397 C2398 1.392 . S
C2397 C2401 1.495 . S
C2398 C2397 1.392 . S
C2398 C2399 1.385 . S
C2398 C2400 1.478 . S
C2399 H2393 0.930 . S
C2399 C2395 1.400 1_455 S
C2399 C2398 1.385 . S
C2400 C2398 1.478 . S
C2400 C2402 1.381 . S
C2400 C2406 1.383 . S
C2401 C2397 1.495 . S
C2401 H2407 0.887 1_455 S
C2401 H2408 0.961 . S
C2401 H2409 0.960 . S
C2402 C2400 1.381 . S
C2402 C2403 1.394 . S
C2402 H2410 0.930 . S
C2403 C2402 1.394 . S
C2403 C2404 1.383 . S
C2403 H2411 0.929 . S
C2404 C2403 1.383 . S
C2404 C2405 1.377 . S
C2405 H2389 0.930 . S
C2405 C2404 1.377 . S
C2405 C2406 1.379 . S
C2406 H2390 0.931 . S
C2406 C2400 1.383 . S
C2406 C2405 1.379 . S
H2407 C2401 0.887 1_655 S
H2408 C2401 0.961 . S
H2409 C2401 0.960 . S
H2410 C2402 0.930 . S
H2411 C2403 0.929 . S
H2412 C2420 0.929 . S
H2413 C2422 0.930 . S
H2414 C2424 0.930 . S
H2415 C2427 0.929 . S
H2416 C2430 0.930 . S
H2417 C2432 0.960 . S
H2418 C2432 0.960 . S
H2419 C2432 0.960 . S
C2420 H2412 0.929 . S
C2420 C2421 1.377 . S
C2420 C2422 1.384 . S
C2421 C2420 1.377 . S
C2421 C2427 1.390 . S
C2422 H2413 0.930 . S
C2422 C2420 1.384 . S
C2422 C2423 1.372 . S
C2423 C2422 1.372 . S
C2423 C2424 1.400 . S
C2423 C2428 1.490 . S
C2424 H2414 0.930 . S
C2424 C2423 1.400 . S
C2424 C2427 1.386 . S
H2425 C2441 0.930 . S
H2426 C2442 0.931 . S
C2427 H2415 0.929 . S
C2427 C2421 1.390 . S
C2427 C2424 1.386 . S
C2428 C2423 1.490 . S
C2428 C2430 1.395 . S
C2428 C2431 1.403 . S
H2429 C2435 0.930 . S
C2430 H2416 0.930 . S
C2430 C2428 1.395 . S
C2430 C2433 1.403 . S
C2431 C2428 1.403 . S
C2431 C2432 1.524 . S
C2431 C2435 1.400 . S
C2432 H2417 0.960 . S
C2432 H2418 0.960 . S
C2432 H2419 0.960 . S
C2432 C2431 1.524 . S
C2433 C2430 1.403 . S
C2433 C2434 1.392 . S
C2433 C2437 1.495 . S
C2434 C2433 1.392 . S
C2434 C2435 1.385 . S
C2434 C2436 1.478 . S
C2435 H2429 0.930 . S
C2435 C2431 1.400 . S
C2435 C2434 1.385 . S
C2436 C2434 1.478 . S
C2436 C2438 1.381 . S
C2436 C2442 1.383 . S
C2437 C2433 1.495 . S
C2437 H2443 0.959 . S
C2437 H2444 0.961 . S
C2437 H2445 0.960 . S
C2438 C2436 1.381 . S
C2438 C2439 1.394 . S
C2438 H2446 0.930 . S
C2439 C2438 1.394 . S
C2439 C2440 1.383 . S
C2439 H2447 0.929 . S
C2440 C2439 1.383 . S
C2440 C2441 1.377 . S
C2441 H2425 0.930 . S
C2441 C2440 1.377 . S
C2441 C2442 1.379 . S
C2442 H2426 0.931 . S
C2442 C2436 1.383 . S
C2442 C2441 1.379 . S
H2443 C2437 0.959 . S
H2444 C2437 0.961 . S
H2445 C2437 0.960 . S
H2446 C2438 0.930 . S
H2447 C2439 0.929 . S
H2448 C2456 0.929 . S
H2449 C2458 0.930 . S
H2450 C2460 0.930 . S
H2451 C2463 0.929 . S
H2452 C2466 0.930 . S
H2453 C2468 0.960 . S
H2454 C2468 0.960 . S
H2455 C2468 0.960 . S
C2456 H2448 0.929 . S
C2456 C2457 1.377 . S
C2456 C2458 1.384 . S
C2457 C2456 1.377 . S
C2457 C2463 1.390 . S
C2458 H2449 0.930 . S
C2458 C2456 1.384 . S
C2458 C2459 1.372 . S
C2459 C2458 1.372 . S
C2459 C2460 1.400 . S
C2459 C2464 1.490 . S
C2460 H2450 0.930 . S
C2460 C2459 1.400 . S
C2460 C2463 1.386 . S
H2461 C2477 0.930 . S
H2462 C2478 0.931 . S
C2463 H2451 0.929 . S
C2463 C2457 1.390 . S
C2463 C2460 1.386 . S
C2464 C2459 1.490 . S
C2464 C2466 1.395 . S
C2464 C2467 1.403 . S
H2465 C2471 0.930 . S
C2466 H2452 0.930 . S
C2466 C2464 1.395 . S
C2466 C2469 1.403 . S
C2467 C2464 1.403 . S
C2467 C2468 1.524 . S
C2467 C2471 1.400 . S
C2468 H2453 0.960 . S
C2468 H2454 0.960 . S
C2468 H2455 0.960 . S
C2468 C2467 1.524 . S
C2469 C2466 1.403 . S
C2469 C2470 1.392 . S
C2469 C2473 1.495 . S
C2470 C2469 1.392 . S
C2470 C2471 1.385 . S
C2470 C2472 1.478 . S
C2471 H2465 0.930 . S
C2471 C2467 1.400 . S
C2471 C2470 1.385 . S
C2472 C2470 1.478 . S
C2472 C2474 1.381 . S
C2472 C2478 1.383 . S
C2473 C2469 1.495 . S
C2473 H2479 0.959 . S
C2473 H2480 0.961 . S
C2473 H2481 0.960 . S
C2474 C2472 1.381 . S
C2474 C2475 1.394 . S
C2474 H2482 0.930 . S
C2475 C2474 1.394 . S
C2475 C2476 1.383 . S
C2475 H2483 0.929 . S
C2476 C2475 1.383 . S
C2476 C2477 1.377 . S
C2477 H2461 0.930 . S
C2477 C2476 1.377 . S
C2477 C2478 1.379 . S
C2478 H2462 0.931 . S
C2478 C2472 1.383 . S
C2478 C2477 1.379 . S
H2479 C2473 0.959 . S
H2480 C2473 0.961 . S
H2481 C2473 0.960 . S
H2482 C2474 0.930 . S
H2483 C2475 0.929 . S
H2484 C2492 0.929 . S
H2485 C2494 0.930 . S
H2486 C2496 0.930 . S
H2487 C2499 0.929 . S
H2488 C2502 0.930 . S
H2489 C2504 0.960 . S
H2490 C2504 0.960 . S
H2491 C2504 0.960 . S
C2492 H2484 0.929 . S
C2492 C2493 1.377 . S
C2492 C2494 1.384 . S
C2493 C2492 1.377 . S
C2493 C2499 1.390 . S
C2494 H2485 0.930 . S
C2494 C2492 1.384 . S
C2494 C2495 1.372 . S
C2495 C2494 1.372 . S
C2495 C2496 1.400 . S
C2495 C2500 1.490 . S
C2496 H2486 0.930 . S
C2496 C2495 1.400 . S
C2496 C2499 1.386 . S
H2497 C2513 0.930 . S
H2498 C2514 0.931 . S
C2499 H2487 0.929 . S
C2499 C2493 1.390 . S
C2499 C2496 1.386 . S
C2500 C2495 1.490 . S
C2500 C2502 1.395 . S
C2500 C2503 1.403 . S
H2501 C2507 0.930 . S
C2502 H2488 0.930 . S
C2502 C2500 1.395 . S
C2502 C2505 1.403 . S
C2503 C2500 1.403 . S
C2503 C2504 1.524 . S
C2503 C2507 1.400 . S
C2504 H2489 0.960 . S
C2504 H2490 0.960 . S
C2504 H2491 0.960 . S
C2504 C2503 1.524 . S
C2505 C2502 1.403 . S
C2505 C2506 1.392 . S
C2505 C2509 1.495 . S
C2506 C2505 1.392 . S
C2506 C2507 1.385 . S
C2506 C2508 1.478 . S
C2507 H2501 0.930 . S
C2507 C2503 1.400 . S
C2507 C2506 1.385 . S
C2508 C2506 1.478 . S
C2508 C2510 1.381 . S
C2508 C2514 1.383 . S
C2509 C2505 1.495 . S
C2509 H2515 0.959 . S
C2509 H2516 0.961 . S
C2509 H2517 0.960 . S
C2510 C2508 1.381 . S
C2510 C2511 1.394 . S
C2510 H2518 0.930 . S
C2511 C2510 1.394 . S
C2511 C2512 1.383 . S
C2511 H2519 0.929 . S
C2512 C2511 1.383 . S
C2512 C2513 1.377 . S
C2513 H2497 0.930 . S
C2513 C2512 1.377 . S
C2513 C2514 1.379 . S
C2514 H2498 0.931 . S
C2514 C2508 1.383 . S
C2514 C2513 1.379 . S
H2515 C2509 0.959 . S
H2516 C2509 0.961 . S
H2517 C2509 0.960 . S
H2518 C2510 0.930 . S
H2519 C2511 0.929 . S
H2520 C2528 0.929 . S
H2521 C2530 0.930 . S
H2522 C2532 0.930 . S
H2523 C2535 0.929 . S
H2524 C2538 0.930 . S
H2525 C2540 0.960 . S
H2526 C2540 0.960 . S
H2527 C2540 0.960 . S
C2528 H2520 0.929 . S
C2528 C2529 1.377 . S
C2528 C2530 1.384 . S
C2529 C2528 1.377 . S
C2529 C2535 1.390 . S
C2530 H2521 0.930 . S
C2530 C2528 1.384 . S
C2530 C2531 1.372 . S
C2531 C2530 1.372 . S
C2531 C2532 1.400 . S
C2531 C2536 1.490 . S
C2532 H2522 0.930 . S
C2532 C2531 1.400 . S
C2532 C2535 1.386 . S
H2533 C2549 0.930 . S
H2534 C2550 0.931 . S
C2535 H2523 0.929 . S
C2535 C2529 1.390 . S
C2535 C2532 1.386 . S
C2536 C2531 1.490 . S
C2536 C2538 1.395 . S
C2536 C2539 1.403 . S
H2537 C2543 0.930 . S
C2538 H2524 0.930 . S
C2538 C2536 1.395 . S
C2538 C2541 1.403 . S
C2539 C2536 1.403 . S
C2539 C2540 1.524 . S
C2539 C2543 1.400 . S
C2540 H2525 0.960 . S
C2540 H2526 0.960 . S
C2540 H2527 0.960 . S
C2540 C2539 1.524 . S
C2541 C2538 1.403 . S
C2541 C2542 1.392 . S
C2541 C2545 1.495 . S
C2542 C2541 1.392 . S
C2542 C2543 1.385 . S
C2542 C2544 1.478 . S
C2543 H2537 0.930 . S
C2543 C2539 1.400 . S
C2543 C2542 1.385 . S
C2544 C2542 1.478 . S
C2544 C2546 1.381 . S
C2544 C2550 1.383 . S
C2545 C2541 1.495 . S
C2545 H2551 0.959 . S
C2545 H2552 0.961 . S
C2545 H2553 0.960 . S
C2546 C2544 1.381 . S
C2546 C2547 1.394 . S
C2546 H2554 0.930 . S
C2547 C2546 1.394 . S
C2547 C2548 1.383 . S
C2547 H2555 0.929 . S
C2548 C2547 1.383 . S
C2548 C2549 1.377 . S
C2549 H2533 0.930 . S
C2549 C2548 1.377 . S
C2549 C2550 1.379 . S
C2550 H2534 0.931 . S
C2550 C2544 1.383 . S
C2550 C2549 1.379 . S
H2551 C2545 0.959 . S
H2552 C2545 0.961 . S
H2553 C2545 0.960 . S
H2554 C2546 0.930 . S
H2555 C2547 0.929 . S
H2556 C2564 0.929 . S
H2557 C2566 0.930 . S
H2558 C2568 0.930 . S
H2559 C2571 0.929 . S
H2560 C2574 0.930 . S
H2561 C2576 0.960 . S
H2562 C2576 0.960 . S
H2563 C2576 0.960 . S
C2564 H2556 0.929 . S
C2564 C2565 1.377 . S
C2564 C2566 1.384 . S
C2565 C2564 1.377 . S
C2565 C2571 1.390 . S
C2566 H2557 0.930 . S
C2566 C2564 1.384 . S
C2566 C2567 1.372 . S
C2567 C2566 1.372 . S
C2567 C2568 1.400 . S
C2567 C2572 1.490 . S
C2568 H2558 0.930 . S
C2568 C2567 1.400 . S
C2568 C2571 1.386 . S
H2569 C2585 0.930 . S
H2570 C2586 0.931 . S
C2571 H2559 0.929 . S
C2571 C2565 1.390 . S
C2571 C2568 1.386 . S
C2572 C2567 1.490 . S
C2572 C2574 1.395 . S
C2572 C2575 1.403 . S
H2573 C2579 0.930 . S
C2574 H2560 0.930 . S
C2574 C2572 1.395 . S
C2574 C2577 1.403 . S
C2575 C2572 1.403 . S
C2575 C2576 1.524 . S
C2575 C2579 1.400 . S
C2576 H2561 0.960 . S
C2576 H2562 0.960 . S
C2576 H2563 0.960 . S
C2576 C2575 1.524 . S
C2577 C2574 1.403 . S
C2577 C2578 1.392 . S
C2577 C2581 1.495 . S
C2578 C2577 1.392 . S
C2578 C2579 1.385 . S
C2578 C2580 1.478 . S
C2579 H2573 0.930 . S
C2579 C2575 1.400 . S
C2579 C2578 1.385 . S
C2580 C2578 1.478 . S
C2580 C2582 1.381 . S
C2580 C2586 1.383 . S
C2581 C2577 1.495 . S
C2581 H2587 0.959 . S
C2581 H2588 0.961 . S
C2581 H2589 0.960 . S
C2582 C2580 1.381 . S
C2582 C2583 1.394 . S
C2582 H2590 0.930 . S
C2583 C2582 1.394 . S
C2583 C2584 1.383 . S
C2583 H2591 0.929 . S
C2584 C2583 1.383 . S
C2584 C2585 1.377 . S
C2585 H2569 0.930 . S
C2585 C2584 1.377 . S
C2585 C2586 1.379 . S
C2586 H2570 0.931 . S
C2586 C2580 1.383 . S
C2586 C2585 1.379 . S
H2587 C2581 0.959 . S
H2588 C2581 0.961 . S
H2589 C2581 0.960 . S
H2590 C2582 0.930 . S
H2591 C2583 0.929 . S
H2592 C2600 0.929 . S
H2593 C2602 0.930 . S
H2594 C2604 0.930 . S
H2595 C2607 0.929 . S
H2596 C2610 0.930 . S
H2597 C2612 0.960 . S
H2598 C2612 0.960 . S
H2599 C2612 0.960 . S
C2600 H2592 0.929 . S
C2600 C2601 1.377 . S
C2600 C2602 1.384 . S
C2601 C2600 1.377 . S
C2601 C2607 1.390 . S
C2602 H2593 0.930 . S
C2602 C2600 1.384 . S
C2602 C2603 1.372 . S
C2603 C2602 1.372 . S
C2603 C2604 1.400 . S
C2603 C2608 1.490 . S
C2604 H2594 0.930 . S
C2604 C2603 1.400 . S
C2604 C2607 1.386 . S
H2605 C2621 0.930 . S
H2606 C2622 0.931 . S
C2607 H2595 0.929 . S
C2607 C2601 1.390 . S
C2607 C2604 1.386 . S
C2608 C2603 1.490 . S
C2608 C2610 1.395 . S
C2608 C2611 1.403 . S
H2609 C2615 0.930 . S
C2610 H2596 0.930 . S
C2610 C2608 1.395 . S
C2610 C2613 1.403 . S
C2611 C2608 1.403 . S
C2611 C2612 1.524 . S
C2611 C2615 1.400 . S
C2612 H2597 0.960 . S
C2612 H2598 0.960 . S
C2612 H2599 0.960 . S
C2612 C2611 1.524 . S
C2613 C2610 1.403 . S
C2613 C2614 1.392 . S
C2613 C2617 1.495 . S
C2614 C2613 1.392 . S
C2614 C2615 1.385 . S
C2614 C2616 1.478 . S
C2615 H2609 0.930 . S
C2615 C2611 1.400 . S
C2615 C2614 1.385 . S
C2616 C2614 1.478 . S
C2616 C2618 1.381 . S
C2616 C2622 1.383 . S
C2617 C2613 1.495 . S
C2617 H2623 0.959 . S
C2617 H2624 0.961 . S
C2617 H2625 0.960 . S
C2618 C2616 1.381 . S
C2618 C2619 1.394 . S
C2618 H2626 0.930 . S
C2619 C2618 1.394 . S
C2619 C2620 1.383 . S
C2619 H2627 0.929 . S
C2620 C2619 1.383 . S
C2620 C2621 1.377 . S
C2621 H2605 0.930 . S
C2621 C2620 1.377 . S
C2621 C2622 1.379 . S
C2622 H2606 0.931 . S
C2622 C2616 1.383 . S
C2622 C2621 1.379 . S
H2623 C2617 0.959 . S
H2624 C2617 0.961 . S
H2625 C2617 0.960 . S
H2626 C2618 0.930 . S
H2627 C2619 0.929 . S
H2628 C2636 0.929 . S
H2629 C2638 0.930 . S
H2630 C2640 0.930 . S
H2631 C2643 0.929 . S
H2632 C2646 0.930 . S
H2633 C2648 0.960 . S
H2634 C2648 0.960 . S
H2635 C2648 0.960 . S
C2636 H2628 0.929 . S
C2636 C2637 1.377 . S
C2636 C2638 1.384 . S
C2637 C2636 1.377 . S
C2637 C2643 1.390 . S
C2638 H2629 0.930 . S
C2638 C2636 1.384 . S
C2638 C2639 1.372 . S
C2639 C2638 1.372 . S
C2639 C2640 1.400 . S
C2639 C2644 1.490 . S
C2640 H2630 0.930 . S
C2640 C2639 1.400 . S
C2640 C2643 1.386 . S
H2641 C2657 0.930 . S
H2642 C2658 0.931 . S
C2643 H2631 0.929 . S
C2643 C2637 1.390 . S
C2643 C2640 1.386 . S
C2644 C2639 1.490 . S
C2644 C2646 1.395 . S
C2644 C2647 1.403 . S
H2645 C2651 0.930 . S
C2646 H2632 0.930 . S
C2646 C2644 1.395 . S
C2646 C2649 1.403 . S
C2647 C2644 1.403 . S
C2647 C2648 1.524 . S
C2647 C2651 1.400 . S
C2648 H2633 0.960 . S
C2648 H2634 0.960 . S
C2648 H2635 0.960 . S
C2648 C2647 1.524 . S
C2649 C2646 1.403 . S
C2649 C2650 1.392 . S
C2649 C2653 1.495 . S
C2650 C2649 1.392 . S
C2650 C2651 1.385 . S
C2650 C2652 1.478 . S
C2651 H2645 0.930 . S
C2651 C2647 1.400 . S
C2651 C2650 1.385 . S
C2652 C2650 1.478 . S
C2652 C2654 1.381 . S
C2652 C2658 1.383 . S
C2653 C2649 1.495 . S
C2653 H2659 0.959 . S
C2653 H2660 0.961 . S
C2653 H2661 0.960 . S
C2654 C2652 1.381 . S
C2654 C2655 1.394 . S
C2654 H2662 0.930 . S
C2655 C2654 1.394 . S
C2655 C2656 1.383 . S
C2655 H2663 0.929 . S
C2656 C2655 1.383 . S
C2656 C2657 1.377 . S
C2657 H2641 0.930 . S
C2657 C2656 1.377 . S
C2657 C2658 1.379 . S
C2658 H2642 0.931 . S
C2658 C2652 1.383 . S
C2658 C2657 1.379 . S
H2659 C2653 0.959 . S
H2660 C2653 0.961 . S
H2661 C2653 0.960 . S
H2662 C2654 0.930 . S
H2663 C2655 0.929 . S
H2664 C2672 0.929 . S
H2665 C2674 0.930 . S
H2666 C2676 0.930 . S
H2667 C2679 0.929 . S
H2668 C2682 0.930 . S
H2669 C2684 0.960 . S
H2670 C2684 0.960 . S
H2671 C2684 0.960 . S
C2672 H2664 0.929 . S
C2672 C2673 1.377 . S
C2672 C2674 1.384 . S
C2673 C2672 1.377 . S
C2673 C2679 1.390 . S
C2674 H2665 0.930 . S
C2674 C2672 1.384 . S
C2674 C2675 1.372 . S
C2675 C2674 1.372 . S
C2675 C2676 1.400 . S
C2675 C2680 1.490 . S
C2676 H2666 0.930 . S
C2676 C2675 1.400 . S
C2676 C2679 1.386 . S
H2677 C2693 0.930 . S
H2678 C2694 0.931 . S
C2679 H2667 0.929 . S
C2679 C2673 1.390 . S
C2679 C2676 1.386 . S
C2680 C2675 1.490 . S
C2680 C2682 1.395 . S
C2680 C2683 1.403 . S
H2681 C2687 0.930 . S
C2682 H2668 0.930 . S
C2682 C2680 1.395 . S
C2682 C2685 1.403 . S
C2683 C2680 1.403 . S
C2683 C2684 1.524 . S
C2683 C2687 1.400 . S
C2684 H2669 0.960 . S
C2684 H2670 0.960 . S
C2684 H2671 0.960 . S
C2684 C2683 1.524 . S
C2685 C2682 1.403 . S
C2685 C2686 1.392 . S
C2685 C2689 1.495 . S
C2686 C2685 1.392 . S
C2686 C2687 1.385 . S
C2686 C2688 1.478 . S
C2687 H2681 0.930 . S
C2687 C2683 1.400 . S
C2687 C2686 1.385 . S
C2688 C2686 1.478 . S
C2688 C2690 1.381 . S
C2688 C2694 1.383 . S
C2689 C2685 1.495 . S
C2689 H2695 0.959 . S
C2689 H2696 0.961 . S
C2689 H2697 0.960 . S
C2690 C2688 1.381 . S
C2690 C2691 1.394 . S
C2690 H2698 0.930 . S
C2691 C2690 1.394 . S
C2691 C2692 1.383 . S
C2691 H2699 0.929 . S
C2692 C2691 1.383 . S
C2692 C2693 1.377 . S
C2693 H2677 0.930 . S
C2693 C2692 1.377 . S
C2693 C2694 1.379 . S
C2694 H2678 0.931 . S
C2694 C2688 1.383 . S
C2694 C2693 1.379 . S
H2695 C2689 0.959 . S
H2696 C2689 0.961 . S
H2697 C2689 0.960 . S
H2698 C2690 0.930 . S
H2699 C2691 0.929 . S
H2700 C2708 0.929 . S
H2701 C2710 0.930 . S
H2702 C2712 0.930 . S
H2703 C2715 0.929 . S
H2704 C2718 0.930 . S
H2705 C2720 0.960 . S
H2706 C2720 0.960 . S
H2707 C2720 0.960 . S
C2708 H2700 0.929 . S
C2708 C2709 1.377 . S
C2708 C2710 1.384 . S
C2709 C2708 1.377 . S
C2709 C2715 1.390 . S
C2710 H2701 0.930 . S
C2710 C2708 1.384 . S
C2710 C2711 1.372 . S
C2711 C2710 1.372 . S
C2711 C2712 1.400 . S
C2711 C2716 1.490 . S
C2712 H2702 0.930 . S
C2712 C2711 1.400 . S
C2712 C2715 1.386 . S
H2713 C2729 0.930 . S
H2714 C2730 0.931 . S
C2715 H2703 0.929 . S
C2715 C2709 1.390 . S
C2715 C2712 1.386 . S
C2716 C2711 1.490 . S
C2716 C2718 1.395 . S
C2716 C2719 1.403 . S
H2717 C2723 0.930 . S
C2718 H2704 0.930 . S
C2718 C2716 1.395 . S
C2718 C2721 1.403 . S
C2719 C2716 1.403 . S
C2719 C2720 1.524 . S
C2719 C2723 1.400 . S
C2720 H2705 0.960 . S
C2720 H2706 0.960 . S
C2720 H2707 0.960 . S
C2720 C2719 1.524 . S
C2721 C2718 1.403 . S
C2721 C2722 1.392 . S
C2721 C2725 1.495 . S
C2722 C2721 1.392 . S
C2722 C2723 1.385 . S
C2722 C2724 1.478 . S
C2723 H2717 0.930 . S
C2723 C2719 1.400 . S
C2723 C2722 1.385 . S
C2724 C2722 1.478 . S
C2724 C2726 1.381 . S
C2724 C2730 1.383 . S
C2725 C2721 1.495 . S
C2725 H2731 0.959 . S
C2725 H2732 0.961 . S
C2725 H2733 0.960 . S
C2726 C2724 1.381 . S
C2726 C2727 1.394 . S
C2726 H2734 0.930 . S
C2727 C2726 1.394 . S
C2727 C2728 1.383 . S
C2727 H2735 0.929 . S
C2728 C2727 1.383 . S
C2728 C2729 1.377 . S
C2729 H2713 0.930 . S
C2729 C2728 1.377 . S
C2729 C2730 1.379 . S
C2730 H2714 0.931 . S
C2730 C2724 1.383 . S
C2730 C2729 1.379 . S
H2731 C2725 0.959 . S
H2732 C2725 0.961 . S
H2733 C2725 0.960 . S
H2734 C2726 0.930 . S
H2735 C2727 0.929 . S
H2736 C2744 0.929 . S
H2737 C2746 0.930 . S
H2738 C2748 0.930 . S
H2739 C2751 0.929 . S
H2740 C2754 0.930 . S
H2741 C2756 0.960 . S
H2742 C2756 0.960 . S
H2743 C2756 0.960 . S
C2744 H2736 0.929 . S
C2744 C2745 1.377 . S
C2744 C2746 1.384 . S
C2745 C2744 1.377 . S
C2745 C2751 1.390 . S
C2746 H2737 0.930 . S
C2746 C2744 1.384 . S
C2746 C2747 1.372 . S
C2747 C2746 1.372 . S
C2747 C2748 1.400 . S
C2747 C2752 1.490 . S
C2748 H2738 0.930 . S
C2748 C2747 1.400 . S
C2748 C2751 1.386 . S
H2749 C2765 0.930 . S
H2750 C2766 0.931 . S
C2751 H2739 0.929 . S
C2751 C2745 1.390 . S
C2751 C2748 1.386 . S
C2752 C2747 1.490 . S
C2752 C2754 1.395 . S
C2752 C2755 1.403 . S
H2753 C2759 0.930 . S
C2754 H2740 0.930 . S
C2754 C2752 1.395 . S
C2754 C2757 1.403 . S
C2755 C2752 1.403 . S
C2755 C2756 1.524 . S
C2755 C2759 1.400 . S
C2756 H2741 0.960 . S
C2756 H2742 0.960 . S
C2756 H2743 0.960 . S
C2756 C2755 1.524 . S
C2757 C2754 1.403 . S
C2757 C2758 1.392 . S
C2757 C2761 1.495 . S
C2758 C2757 1.392 . S
C2758 C2759 1.385 . S
C2758 C2760 1.478 . S
C2759 H2753 0.930 . S
C2759 C2755 1.400 . S
C2759 C2758 1.385 . S
C2760 C2758 1.478 . S
C2760 C2762 1.381 . S
C2760 C2766 1.383 . S
C2761 C2757 1.495 . S
C2761 H2767 0.959 . S
C2761 H2768 0.961 . S
C2761 H2769 0.960 . S
C2762 C2760 1.381 . S
C2762 C2763 1.394 . S
C2762 H2770 0.930 . S
C2763 C2762 1.394 . S
C2763 C2764 1.383 . S
C2763 H2771 0.929 . S
C2764 C2763 1.383 . S
C2764 C2765 1.377 . S
C2765 H2749 0.930 . S
C2765 C2764 1.377 . S
C2765 C2766 1.379 . S
C2766 H2750 0.931 . S
C2766 C2760 1.383 . S
C2766 C2765 1.379 . S
H2767 C2761 0.959 . S
H2768 C2761 0.961 . S
H2769 C2761 0.960 . S
H2770 C2762 0.930 . S
H2771 C2763 0.929 . S
H2772 C2780 0.929 . S
H2773 C2782 0.930 . S
H2774 C2784 0.930 . S
H2775 C2787 0.929 . S
H2776 C2790 0.930 . S
H2777 C2792 0.960 . S
H2778 C2792 0.960 . S
H2779 C2792 0.960 . S
C2780 H2772 0.929 . S
C2780 C2781 1.377 . S
C2780 C2782 1.384 . S
C2781 C2780 1.377 . S
C2781 C2787 1.390 . S
C2782 H2773 0.930 . S
C2782 C2780 1.384 . S
C2782 C2783 1.372 . S
C2783 C2782 1.372 . S
C2783 C2784 1.400 . S
C2783 C2788 1.490 . S
C2784 H2774 0.930 . S
C2784 C2783 1.400 . S
C2784 C2787 1.386 . S
H2785 C2801 0.930 . S
H2786 C2802 0.931 . S
C2787 H2775 0.929 . S
C2787 C2781 1.390 . S
C2787 C2784 1.386 . S
C2788 C2783 1.490 . S
C2788 C2790 1.395 . S
C2788 C2791 1.403 . S
H2789 C2795 0.930 . S
C2790 H2776 0.930 . S
C2790 C2788 1.395 . S
C2790 C2793 1.403 . S
C2791 C2788 1.403 . S
C2791 C2792 1.524 . S
C2791 C2795 1.400 . S
C2792 H2777 0.960 . S
C2792 H2778 0.960 . S
C2792 H2779 0.960 . S
C2792 C2791 1.524 . S
C2793 C2790 1.403 . S
C2793 C2794 1.392 . S
C2793 C2797 1.495 . S
C2794 C2793 1.392 . S
C2794 C2795 1.385 . S
C2794 C2796 1.478 . S
C2795 H2789 0.930 . S
C2795 C2791 1.400 . S
C2795 C2794 1.385 . S
C2796 C2794 1.478 . S
C2796 C2798 1.381 . S
C2796 C2802 1.383 . S
C2797 C2793 1.495 . S
C2797 H2803 0.959 . S
C2797 H2804 0.961 . S
C2797 H2805 0.960 . S
C2798 C2796 1.381 . S
C2798 C2799 1.394 . S
C2798 H2806 0.930 . S
C2799 C2798 1.394 . S
C2799 C2800 1.383 . S
C2799 H2807 0.929 . S
C2800 C2799 1.383 . S
C2800 C2801 1.377 . S
C2801 H2785 0.930 . S
C2801 C2800 1.377 . S
C2801 C2802 1.379 . S
C2802 H2786 0.931 . S
C2802 C2796 1.383 . S
C2802 C2801 1.379 . S
H2803 C2797 0.959 . S
H2804 C2797 0.961 . S
H2805 C2797 0.960 . S
H2806 C2798 0.930 . S
H2807 C2799 0.929 . S
H2808 C2816 0.929 . S
H2809 C2818 0.930 . S
H2810 C2820 0.930 . S
H2811 C2823 0.929 . S
H2812 C2826 0.930 . S
H2813 C2828 0.960 . S
H2814 C2828 0.960 . S
H2815 C2828 0.960 . S
C2816 H2808 0.929 . S
C2816 C2817 1.377 . S
C2816 C2818 1.384 . S
C2817 C2816 1.377 . S
C2817 C2823 1.390 . S
C2818 H2809 0.930 . S
C2818 C2816 1.384 . S
C2818 C2819 1.372 . S
C2819 C2818 1.372 . S
C2819 C2820 1.400 . S
C2819 C2824 1.490 . S
C2820 H2810 0.930 . S
C2820 C2819 1.400 . S
C2820 C2823 1.386 . S
H2821 C2837 0.930 . S
H2822 C2838 0.931 . S
C2823 H2811 0.929 . S
C2823 C2817 1.390 . S
C2823 C2820 1.386 . S
C2824 C2819 1.490 . S
C2824 C2826 1.395 . S
C2824 C2827 1.403 . S
H2825 C2831 0.930 . S
C2826 H2812 0.930 . S
C2826 C2824 1.395 . S
C2826 C2829 1.403 . S
C2827 C2824 1.403 . S
C2827 C2828 1.524 . S
C2827 C2831 1.400 . S
C2828 H2813 0.960 . S
C2828 H2814 0.960 . S
C2828 H2815 0.960 . S
C2828 C2827 1.524 . S
C2829 C2826 1.403 . S
C2829 C2830 1.392 . S
C2829 C2833 1.495 . S
C2830 C2829 1.392 . S
C2830 C2831 1.385 . S
C2830 C2832 1.478 . S
C2831 H2825 0.930 . S
C2831 C2827 1.400 . S
C2831 C2830 1.385 . S
C2832 C2830 1.478 . S
C2832 C2834 1.381 . S
C2832 C2838 1.383 . S
C2833 C2829 1.495 . S
C2833 H2839 0.959 . S
C2833 H2840 0.961 . S
C2833 H2841 0.960 . S
C2834 C2832 1.381 . S
C2834 C2835 1.394 . S
C2834 H2842 0.930 . S
C2835 C2834 1.394 . S
C2835 C2836 1.383 . S
C2835 H2843 0.929 . S
C2836 C2835 1.383 . S
C2836 C2837 1.377 . S
C2837 H2821 0.930 . S
C2837 C2836 1.377 . S
C2837 C2838 1.379 . S
C2838 H2822 0.931 . S
C2838 C2832 1.383 . S
C2838 C2837 1.379 . S
H2839 C2833 0.959 . S
H2840 C2833 0.961 . S
H2841 C2833 0.960 . S
H2842 C2834 0.930 . S
H2843 C2835 0.929 . S
H2844 C2852 0.929 . S
H2845 C2854 0.930 . S
H2846 C2856 0.930 . S
H2847 C2859 0.929 . S
H2848 C2862 0.930 . S
H2849 C2864 0.960 . S
H2850 C2864 0.960 . S
H2851 C2864 0.960 . S
C2852 H2844 0.929 . S
C2852 C2853 1.377 . S
C2852 C2854 1.384 . S
C2853 C2852 1.377 . S
C2853 C2859 1.390 . S
C2854 H2845 0.930 . S
C2854 C2852 1.384 . S
C2854 C2855 1.372 . S
C2855 C2854 1.372 . S
C2855 C2856 1.400 . S
C2855 C2860 1.490 . S
C2856 H2846 0.930 . S
C2856 C2855 1.400 . S
C2856 C2859 1.386 . S
H2857 C2873 0.930 . S
H2858 C2874 0.931 . S
C2859 H2847 0.929 . S
C2859 C2853 1.390 . S
C2859 C2856 1.386 . S
C2860 C2855 1.490 . S
C2860 C2862 1.395 . S
C2860 C2863 1.403 . S
H2861 C2867 0.930 . S
C2862 H2848 0.930 . S
C2862 C2860 1.395 . S
C2862 C2865 1.403 . S
C2863 C2860 1.403 . S
C2863 C2864 1.524 . S
C2863 C2867 1.400 . S
C2864 H2849 0.960 . S
C2864 H2850 0.960 . S
C2864 H2851 0.960 . S
C2864 C2863 1.524 . S
C2865 C2862 1.403 . S
C2865 C2866 1.392 . S
C2865 C2869 1.495 . S
C2866 C2865 1.392 . S
C2866 C2867 1.385 . S
C2866 C2868 1.478 . S
C2867 H2861 0.930 . S
C2867 C2863 1.400 . S
C2867 C2866 1.385 . S
C2868 C2866 1.478 . S
C2868 C2870 1.381 . S
C2868 C2874 1.383 . S
C2869 C2865 1.495 . S
C2869 H2875 0.965 . S
C2869 H2876 0.961 1_554 S
C2869 H2877 0.960 . S
C2870 C2868 1.381 . S
C2870 C2871 1.394 . S
C2870 H2878 0.930 . S
C2871 C2870 1.394 . S
C2871 C2872 1.383 . S
C2871 H2879 0.929 . S
C2872 C2871 1.383 . S
C2872 C2873 1.377 . S
C2873 H2857 0.930 . S
C2873 C2872 1.377 . S
C2873 C2874 1.379 . S
C2874 H2858 0.931 . S
C2874 C2868 1.383 . S
C2874 C2873 1.379 . S
H2875 C2869 0.965 . S
H2876 C2869 0.961 1_556 S
H2877 C2869 0.960 . S
H2878 C2870 0.930 . S
H2879 C2871 0.929 . S
H2880 C2888 0.929 . S
H2881 C2890 0.930 . S
H2882 C2892 0.930 . S
H2883 C2895 0.929 . S
H2884 C2898 0.930 . S
H2885 C2900 0.960 . S
H2886 C2900 0.960 . S
H2887 C2900 0.960 . S
C2888 H2880 0.929 . S
C2888 C2889 1.377 . S
C2888 C2890 1.384 . S
C2889 C2888 1.377 . S
C2889 C2895 1.390 . S
C2890 H2881 0.930 . S
C2890 C2888 1.384 . S
C2890 C2891 1.372 . S
C2891 C2890 1.372 . S
C2891 C2892 1.400 . S
C2891 C2896 1.490 . S
C2892 H2882 0.930 . S
C2892 C2891 1.400 . S
C2892 C2895 1.386 . S
H2893 C2909 0.930 . S
H2894 C2910 0.931 . S
C2895 H2883 0.929 . S
C2895 C2889 1.390 . S
C2895 C2892 1.386 . S
C2896 C2891 1.490 . S
C2896 C2898 1.395 . S
C2896 C2899 1.403 . S
H2897 C2903 0.930 . S
C2898 H2884 0.930 . S
C2898 C2896 1.395 . S
C2898 C2901 1.403 . S
C2899 C2896 1.403 . S
C2899 C2900 1.524 . S
C2899 C2903 1.400 . S
C2900 H2885 0.960 . S
C2900 H2886 0.960 . S
C2900 H2887 0.960 . S
C2900 C2899 1.524 . S
C2901 C2898 1.403 . S
C2901 C2902 1.392 . S
C2901 C2905 1.495 1_556 S
C2902 C2901 1.392 . S
C2902 C2903 1.385 . S
C2902 C2904 1.478 . S
C2903 H2897 0.930 . S
C2903 C2899 1.400 . S
C2903 C2902 1.385 . S
C2904 C2902 1.478 . S
C2904 C2906 1.381 . S
C2904 C2910 1.383 . S
C2905 C2901 1.495 1_554 S
C2905 H2911 0.959 . S
C2905 H2912 0.961 . S
C2905 H2913 0.960 1_554 S
C2906 C2904 1.381 . S
C2906 C2907 1.394 . S
C2906 H2914 0.930 . S
C2907 C2906 1.394 . S
C2907 C2908 1.383 . S
C2907 H2915 0.929 . S
C2908 C2907 1.383 . S
C2908 C2909 1.377 . S
C2909 H2893 0.930 . S
C2909 C2908 1.377 . S
C2909 C2910 1.379 . S
C2910 H2894 0.931 . S
C2910 C2904 1.383 . S
C2910 C2909 1.379 . S
H2911 C2905 0.959 . S
H2912 C2905 0.961 . S
H2913 C2905 0.960 1_556 S
H2914 C2906 0.930 . S
H2915 C2907 0.929 . S
H2916 C2924 0.929 . S
H2917 C2926 0.930 . S
H2918 C2928 0.930 . S
H2919 C2931 0.929 . S
H2920 C2934 0.930 . S
H2921 C2936 0.960 . S
H2922 C2936 0.960 . S
H2923 C2936 0.960 . S
C2924 H2916 0.929 . S
C2924 C2925 1.377 . S
C2924 C2926 1.384 . S
C2925 C2924 1.377 . S
C2925 C2931 1.390 . S
C2926 H2917 0.930 . S
C2926 C2924 1.384 . S
C2926 C2927 1.372 . S
C2927 C2926 1.372 . S
C2927 C2928 1.400 . S
C2927 C2932 1.490 . S
C2928 H2918 0.930 . S
C2928 C2927 1.400 . S
C2928 C2931 1.386 . S
H2929 C2945 0.930 . S
H2930 C2946 0.931 . S
C2931 H2919 0.929 . S
C2931 C2925 1.390 . S
C2931 C2928 1.386 . S
C2932 C2927 1.490 . S
C2932 C2934 1.395 . S
C2932 C2935 1.403 . S
H2933 C2939 0.930 . S
C2934 H2920 0.930 . S
C2934 C2932 1.395 . S
C2934 C2937 1.403 . S
C2935 C2932 1.403 . S
C2935 C2936 1.524 . S
C2935 C2939 1.400 . S
C2936 H2921 0.960 . S
C2936 H2922 0.960 . S
C2936 H2923 0.960 . S
C2936 C2935 1.524 . S
C2937 C2934 1.403 . S
C2937 C2938 1.392 . S
C2937 C2941 1.495 . S
C2938 C2937 1.392 . S
C2938 C2939 1.385 . S
C2938 C2940 1.478 . S
C2939 H2933 0.930 . S
C2939 C2935 1.400 . S
C2939 C2938 1.385 . S
C2940 C2938 1.478 . S
C2940 C2942 1.381 . S
C2940 C2946 1.383 . S
C2941 C2937 1.495 . S
C2941 H2947 0.959 . S
C2941 H2948 0.961 . S
C2941 H2949 0.960 . S
C2942 C2940 1.381 . S
C2942 C2943 1.394 . S
C2942 H2950 0.930 . S
C2943 C2942 1.394 . S
C2943 C2944 1.383 . S
C2943 H2951 0.929 . S
C2944 C2943 1.383 . S
C2944 C2945 1.377 . S
C2945 H2929 0.930 . S
C2945 C2944 1.377 . S
C2945 C2946 1.379 . S
C2946 H2930 0.931 . S
C2946 C2940 1.383 . S
C2946 C2945 1.379 . S
H2947 C2941 0.959 . S
H2948 C2941 0.961 . S
H2949 C2941 0.960 . S
H2950 C2942 0.930 . S
H2951 C2943 0.929 . S
H2952 C2960 0.929 . S
H2953 C2962 0.930 . S
H2954 C2964 0.930 . S
H2955 C2967 0.929 . S
H2956 C2970 0.930 . S
H2957 C2972 0.960 . S
H2958 C2972 0.959 1_556 S
H2959 C2972 0.960 . S
C2960 H2952 0.929 . S
C2960 C2961 1.377 . S
C2960 C2962 1.384 . S
C2961 C2960 1.377 . S
C2961 C2967 1.390 . S
C2962 H2953 0.930 . S
C2962 C2960 1.384 . S
C2962 C2963 1.372 . S
C2963 C2962 1.372 . S
C2963 C2964 1.400 . S
C2963 C2968 1.490 . S
C2964 H2954 0.930 . S
C2964 C2963 1.400 . S
C2964 C2967 1.386 . S
H2965 C2981 0.930 . S
H2966 C2982 0.931 . S
C2967 H2955 0.929 . S
C2967 C2961 1.390 . S
C2967 C2964 1.386 . S
C2968 C2963 1.490 . S
C2968 C2970 1.395 . S
C2968 C2971 1.403 . S
H2969 C2975 0.930 . S
C2970 H2956 0.930 . S
C2970 C2968 1.395 . S
C2970 C2973 1.403 . S
C2971 C2968 1.403 . S
C2971 C2972 1.524 1_556 S
C2971 C2975 1.400 . S
C2972 H2957 0.960 . S
C2972 H2958 0.959 1_554 S
C2972 H2959 0.960 . S
C2972 C2971 1.524 1_554 S
C2973 C2970 1.403 . S
C2973 C2974 1.392 . S
C2973 C2977 1.495 . S
C2974 C2973 1.392 . S
C2974 C2975 1.385 . S
C2974 C2976 1.478 . S
C2975 H2969 0.930 . S
C2975 C2971 1.400 . S
C2975 C2974 1.385 . S
C2976 C2974 1.478 . S
C2976 C2978 1.381 . S
C2976 C2982 1.383 . S
C2977 C2973 1.495 . S
C2977 H2983 0.959 . S
C2977 H2984 0.961 . S
C2977 H2985 0.960 . S
C2978 C2976 1.381 . S
C2978 C2979 1.394 . S
C2978 H2986 0.930 . S
C2979 C2978 1.394 . S
C2979 C2980 1.383 . S
C2979 H2987 0.929 . S
C2980 C2979 1.383 . S
C2980 C2981 1.377 . S
C2981 H2965 0.930 . S
C2981 C2980 1.377 . S
C2981 C2982 1.379 . S
C2982 H2966 0.931 . S
C2982 C2976 1.383 . S
C2982 C2981 1.379 . S
H2983 C2977 0.959 . S
H2984 C2977 0.961 . S
H2985 C2977 0.960 . S
H2986 C2978 0.930 . S
H2987 C2979 0.929 . S
H2988 C2996 0.929 . S
H2989 C2998 0.930 . S
H2990 C3000 0.930 . S
H2991 C3003 0.929 . S
H2992 C3006 0.930 . S
H2993 C3008 0.960 . S
H2994 C3008 0.960 . S
H2995 C3008 0.960 . S
C2996 H2988 0.929 . S
C2996 C2997 1.377 . S
C2996 C2998 1.384 . S
C2997 C2996 1.377 . S
C2997 C3003 1.390 . S
C2998 H2989 0.930 . S
C2998 C2996 1.384 . S
C2998 C2999 1.372 . S
C2999 C2998 1.372 . S
C2999 C3000 1.400 . S
C2999 C3004 1.490 . S
C3000 H2990 0.930 . S
C3000 C2999 1.400 . S
C3000 C3003 1.386 . S
H3001 C3017 0.930 . S
H3002 C3018 0.931 . S
C3003 H2991 0.929 . S
C3003 C2997 1.390 . S
C3003 C3000 1.386 . S
C3004 C2999 1.490 . S
C3004 C3006 1.395 . S
C3004 C3007 1.403 . S
H3005 C3011 0.930 . S
C3006 H2992 0.930 . S
C3006 C3004 1.395 . S
C3006 C3009 1.403 . S
C3007 C3004 1.403 . S
C3007 C3008 1.524 . S
C3007 C3011 1.400 . S
C3008 H2993 0.960 . S
C3008 H2994 0.960 . S
C3008 H2995 0.960 . S
C3008 C3007 1.524 . S
C3009 C3006 1.403 . S
C3009 C3010 1.392 . S
C3009 C3013 1.495 . S
C3010 C3009 1.392 . S
C3010 C3011 1.385 . S
C3010 C3012 1.478 . S
C3011 H3005 0.930 . S
C3011 C3007 1.400 . S
C3011 C3010 1.385 . S
C3012 C3010 1.478 . S
C3012 C3014 1.381 . S
C3012 C3018 1.383 . S
C3013 C3009 1.495 . S
C3013 H3019 0.959 . S
C3013 H3020 0.961 . S
C3013 H3021 0.960 . S
C3014 C3012 1.381 . S
C3014 C3015 1.394 . S
C3014 H3022 0.930 . S
C3015 C3014 1.394 . S
C3015 C3016 1.383 . S
C3015 H3023 0.929 . S
C3016 C3015 1.383 . S
C3016 C3017 1.377 . S
C3017 H3001 0.930 . S
C3017 C3016 1.377 . S
C3017 C3018 1.379 . S
C3018 H3002 0.931 . S
C3018 C3012 1.383 . S
C3018 C3017 1.379 . S
H3019 C3013 0.959 . S
H3020 C3013 0.961 . S
H3021 C3013 0.960 . S
H3022 C3014 0.930 . S
H3023 C3015 0.929 . S
H3024 C3032 0.929 . S
H3025 C3034 0.930 . S
H3026 C3036 0.930 . S
H3027 C3039 0.929 . S
H3028 C3042 0.930 . S
H3029 C3044 0.960 . S
H3030 C3044 0.960 . S
H3031 C3044 0.960 . S
C3032 H3024 0.929 . S
C3032 C3033 1.377 . S
C3032 C3034 1.384 . S
C3033 C3032 1.377 . S
C3033 C3039 1.390 . S
C3034 H3025 0.930 . S
C3034 C3032 1.384 . S
C3034 C3035 1.372 . S
C3035 C3034 1.372 . S
C3035 C3036 1.400 . S
C3035 C3040 1.490 . S
C3036 H3026 0.930 . S
C3036 C3035 1.400 . S
C3036 C3039 1.386 . S
H3037 C3053 0.930 . S
H3038 C3054 0.931 . S
C3039 H3027 0.929 . S
C3039 C3033 1.390 . S
C3039 C3036 1.386 . S
C3040 C3035 1.490 . S
C3040 C3042 1.395 . S
C3040 C3043 1.403 . S
H3041 C3047 0.930 . S
C3042 H3028 0.930 . S
C3042 C3040 1.395 . S
C3042 C3045 1.403 . S
C3043 C3040 1.403 . S
C3043 C3044 1.524 . S
C3043 C3047 1.400 . S
C3044 H3029 0.960 . S
C3044 H3030 0.960 . S
C3044 H3031 0.960 . S
C3044 C3043 1.524 . S
C3045 C3042 1.403 . S
C3045 C3046 1.392 . S
C3045 C3049 1.495 . S
C3046 C3045 1.392 . S
C3046 C3047 1.385 . S
C3046 C3048 1.478 . S
C3047 H3041 0.930 . S
C3047 C3043 1.400 . S
C3047 C3046 1.385 . S
C3048 C3046 1.478 . S
C3048 C3050 1.381 . S
C3048 C3054 1.383 . S
C3049 C3045 1.495 . S
C3049 H3055 0.959 . S
C3049 H3056 0.961 . S
C3049 H3057 0.960 . S
C3050 C3048 1.381 . S
C3050 C3051 1.394 . S
C3050 H3058 0.930 . S
C3051 C3050 1.394 . S
C3051 C3052 1.383 . S
C3051 H3059 0.929 . S
C3052 C3051 1.383 . S
C3052 C3053 1.377 . S
C3053 H3037 0.930 . S
C3053 C3052 1.377 . S
C3053 C3054 1.379 . S
C3054 H3038 0.931 . S
C3054 C3048 1.383 . S
C3054 C3053 1.379 . S
H3055 C3049 0.959 . S
H3056 C3049 0.961 . S
H3057 C3049 0.960 . S
H3058 C3050 0.930 . S
H3059 C3051 0.929 . S
H3060 C3068 0.929 . S
H3061 C3070 0.930 . S
H3062 C3072 0.930 . S
H3063 C3075 0.929 . S
H3064 C3078 0.930 . S
H3065 C3080 0.960 . S
H3066 C3080 0.960 . S
H3067 C3080 0.960 . S
C3068 H3060 0.929 . S
C3068 C3069 1.377 . S
C3068 C3070 1.384 . S
C3069 C3068 1.377 . S
C3069 C3075 1.390 . S
C3070 H3061 0.930 . S
C3070 C3068 1.384 . S
C3070 C3071 1.372 . S
C3071 C3070 1.372 . S
C3071 C3072 1.400 . S
C3071 C3076 1.490 . S
C3072 H3062 0.930 . S
C3072 C3071 1.400 . S
C3072 C3075 1.386 . S
H3073 C3089 0.930 . S
H3074 C3090 0.931 . S
C3075 H3063 0.929 . S
C3075 C3069 1.390 . S
C3075 C3072 1.386 . S
C3076 C3071 1.490 . S
C3076 C3078 1.395 . S
C3076 C3079 1.403 . S
H3077 C3083 0.930 . S
C3078 H3064 0.930 . S
C3078 C3076 1.395 . S
C3078 C3081 1.403 . S
C3079 C3076 1.403 . S
C3079 C3080 1.524 . S
C3079 C3083 1.400 . S
C3080 H3065 0.960 . S
C3080 H3066 0.960 . S
C3080 H3067 0.960 . S
C3080 C3079 1.524 . S
C3081 C3078 1.403 . S
C3081 C3082 1.392 . S
C3081 C3085 1.495 . S
C3082 C3081 1.392 . S
C3082 C3083 1.385 . S
C3082 C3084 1.478 . S
C3083 H3077 0.930 . S
C3083 C3079 1.400 . S
C3083 C3082 1.385 . S
C3084 C3082 1.478 . S
C3084 C3086 1.381 . S
C3084 C3090 1.383 . S
C3085 C3081 1.495 . S
C3085 H3091 0.959 . S
C3085 H3092 0.961 . S
C3085 H3093 0.960 . S
C3086 C3084 1.381 . S
C3086 C3087 1.394 . S
C3086 H3094 0.930 . S
C3087 C3086 1.394 . S
C3087 C3088 1.383 . S
C3087 H3095 0.929 . S
C3088 C3087 1.383 . S
C3088 C3089 1.377 . S
C3089 H3073 0.930 . S
C3089 C3088 1.377 . S
C3089 C3090 1.379 . S
C3090 H3074 0.931 . S
C3090 C3084 1.383 . S
C3090 C3089 1.379 . S
H3091 C3085 0.959 . S
H3092 C3085 0.961 . S
H3093 C3085 0.960 . S
H3094 C3086 0.930 . S
H3095 C3087 0.929 . S
C513 C78 1.506 . S
C532 C8 1.491 . S
C549 C50 1.502 . S
C568 C22 1.506 . S
C585 C36 1.506 . S
C604 C64 1.490 . S
C621 C92 1.507 . S
C640 C162 1.496 . S
C657 C106 1.506 . S
C676 C134 1.495 . S
C693 C148 1.505 . S
C712 C120 1.489 . S
C729 C176 1.506 . S
C748 C246 1.494 1_556 S
C765 C190 1.502 . S
C784 C218 1.507 1_556 S
C801 C204 1.506 . S
C820 C232 1.494 1_556 S
C837 C330 1.502 . S
C856 C260 1.509 1_556 S
C873 C274 1.502 1_556 S
C892 C302 1.511 . S
C909 C316 1.506 . S
C928 C288 1.494 1_556 S
C945 C414 1.505 . S
C964 C344 1.490 1_554 S
C981 C386 1.506 . S
C1000 C358 1.492 1_554 S
C1017 C400 1.505 . S
C1036 C372 1.505 1_554 S
C1053 C428 1.502 . S
C1072 C498 1.502 1_554 S
C1089 C442 1.502 . S
C1108 C470 1.500 1_554 S
C1125 C456 1.504 . S
C1144 C484 1.512 1_554 S
C1161 C77 1.531 . S
C1180 C7 1.536 . S
C1197 C21 1.523 . S
C1216 C49 1.530 . S
C1233 C63 1.523 . S
C1252 C35 1.526 . S
C1269 C91 1.530 . S
C1288 C161 1.544 . S
C1305 C105 1.532 . S
C1324 C133 1.532 . S
C1341 C147 1.527 . S
C1360 C119 1.544 . S
C1377 C175 1.522 . S
C1396 C245 1.514 . S
C1413 C217 1.522 . S
C1432 C189 1.523 . S
C1449 C231 1.528 . S
C1468 C203 1.509 . S
C1485 C259 1.524 . S
C1504 C329 1.500 . S
C1521 C273 1.531 . S
C1540 C301 1.542 . S
C1557 C315 1.523 . S
C1576 C287 1.502 . S
C1593 C413 1.530 . S
C1612 C343 1.517 . S
C1629 C357 1.529 . S
C1648 C385 1.515 . S
C1665 C371 1.531 . S
C1684 C399 1.524 . S
C1701 C497 1.525 . S
C1720 C427 1.540 . S
C1737 C469 1.527 . S
C1756 C441 1.546 . S
C1773 C483 1.529 . S
C1792 C455 1.510 . S
C1809 C233 1.686 . S
C1828 C9 1.690 . S
C1845 C247 1.687 . S
C1864 C23 1.687 . S
C1881 C219 1.684 . S
C1900 C37 1.675 . S
C1917 C51 1.687 . S
C1936 C373 1.691 . S
C1953 C65 1.684 . S
C1972 C345 1.673 . S
C1989 C79 1.687 . S
C2008 C359 1.685 . S
C2025 C93 1.684 . S
C2044 C485 1.685 . S
C2061 C107 1.687 . S
C2080 C499 1.675 . S
C2097 C121 1.684 . S
C2116 C471 1.691 . S
C2133 C135 1.686 . S
C2152 C289 1.685 . S
C2169 C261 1.688 . S
C2188 C149 1.673 . S
C2205 C275 1.684 . S
C2224 C163 1.689 . S
C2241 C401 1.685 . S
C2260 C177 1.683 . S
C2277 C191 1.684 . S
C2296 C415 1.673 . S
C2313 C205 1.687 . S
C2332 C387 1.683 . S
C2349 C303 1.688 . S
C2368 C457 1.674 . S
C2385 C317 1.684 . S
C2404 C429 1.691 . S
C2421 C443 1.687 . S
C2440 C331 1.679 . S
C2457 C3 1.244 . S
C2476 C143 1.237 . S
C2493 C157 1.239 . S
C2512 C17 1.244 . S
C2529 C129 1.244 . S
C2548 C31 1.236 . S
C2565 C45 1.240 . S
C2584 C115 1.249 . S
C2601 C59 1.243 . S
C2620 C87 1.230 . S
C2637 C73 1.240 . S
C2656 C101 1.233 . S
C2673 C171 1.240 . S
C2692 C311 1.236 . S
C2709 C325 1.243 . S
C2728 C185 1.228 . S
C2745 C297 1.243 . S
C2764 C199 1.233 . S
C2781 C213 1.241 . S
C2800 C283 1.249 . S
C2817 C227 1.239 . S
C2836 C255 1.247 . S
C2853 C269 1.240 . S
C2872 C241 1.233 . S
C2889 C339 1.242 . S
C2908 C479 1.247 . S
C2925 C493 1.241 . S
C2944 C353 1.247 . S
C2961 C367 1.239 . S
C2980 C465 1.240 . S
C2997 C381 1.240 . S
C3016 C451 1.249 . S
C3033 C423 1.242 . S
C3052 C395 1.228 . S
C3069 C409 1.241 . S
C3088 C437 1.230 . S
