# Generated by pormake.
# Topology wkf, (6)-cn, num edge types: 1
# Building blocks:
#     Node 0, Type 0, BuildingBlock: CUWYAW_clean_sbu_0, # of connection points: 6
#     Node 1, Type 0, BuildingBlock: CUWYAW_clean_sbu_0, # of connection points: 6
#     Node 2, Type 0, BuildingBlock: CUWYAW_clean_sbu_0, # of connection points: 6
#     Node 3, Type 0, BuildingBlock: CUWYAW_clean_sbu_0, # of connection points: 6
#     Node 4, Type 0, BuildingBlock: CUWYAW_clean_sbu_0, # of connection points: 6
#     Node 5, Type 0, BuildingBlock: CUWYAW_clean_sbu_0, # of connection points: 6
#     Node 6, Type 0, BuildingBlock: CUWYAW_clean_sbu_0, # of connection points: 6
#     Node 7, Type 0, BuildingBlock: CUWYAW_clean_sbu_0, # of connection points: 6
#     Node 8, Type 0, BuildingBlock: CUWYAW_clean_sbu_0, # of connection points: 6
#     Node 9, Type 0, BuildingBlock: CUWYAW_clean_sbu_0, # of connection points: 6
#     Node 10, Type 0, BuildingBlock: CUWYAW_clean_sbu_0, # of connection points: 6
#     Node 11, Type 0, BuildingBlock: CUWYAW_clean_sbu_0, # of connection points: 6
#     Edge 12, Type (0, 0), BuildingBlock: XIVTED_clean_linker_0, # of connection points: 2
#     Edge 13, Type (0, 0), BuildingBlock: XIVTED_clean_linker_0, # of connection points: 2
#     Edge 14, Type (0, 0), BuildingBlock: XIVTED_clean_linker_0, # of connection points: 2
#     Edge 15, Type (0, 0), BuildingBlock: XIVTED_clean_linker_0, # of connection points: 2
#     Edge 16, Type (0, 0), BuildingBlock: XIVTED_clean_linker_0, # of connection points: 2
#     Edge 17, Type (0, 0), BuildingBlock: XIVTED_clean_linker_0, # of connection points: 2
#     Edge 18, Type (0, 0), BuildingBlock: XIVTED_clean_linker_0, # of connection points: 2
#     Edge 19, Type (0, 0), BuildingBlock: XIVTED_clean_linker_0, # of connection points: 2
#     Edge 20, Type (0, 0), BuildingBlock: XIVTED_clean_linker_0, # of connection points: 2
#     Edge 21, Type (0, 0), BuildingBlock: XIVTED_clean_linker_0, # of connection points: 2
#     Edge 22, Type (0, 0), BuildingBlock: XIVTED_clean_linker_0, # of connection points: 2
#     Edge 23, Type (0, 0), BuildingBlock: XIVTED_clean_linker_0, # of connection points: 2
#     Edge 24, Type (0, 0), BuildingBlock: XIVTED_clean_linker_0, # of connection points: 2
#     Edge 25, Type (0, 0), BuildingBlock: XIVTED_clean_linker_0, # of connection points: 2
#     Edge 26, Type (0, 0), BuildingBlock: XIVTED_clean_linker_0, # of connection points: 2
#     Edge 27, Type (0, 0), BuildingBlock: XIVTED_clean_linker_0, # of connection points: 2
#     Edge 28, Type (0, 0), BuildingBlock: XIVTED_clean_linker_0, # of connection points: 2
#     Edge 29, Type (0, 0), BuildingBlock: XIVTED_clean_linker_0, # of connection points: 2
#     Edge 30, Type (0, 0), BuildingBlock: XIVTED_clean_linker_0, # of connection points: 2
#     Edge 31, Type (0, 0), BuildingBlock: XIVTED_clean_linker_0, # of connection points: 2
#     Edge 32, Type (0, 0), BuildingBlock: XIVTED_clean_linker_0, # of connection points: 2
#     Edge 33, Type (0, 0), BuildingBlock: XIVTED_clean_linker_0, # of connection points: 2
#     Edge 34, Type (0, 0), BuildingBlock: XIVTED_clean_linker_0, # of connection points: 2
#     Edge 35, Type (0, 0), BuildingBlock: XIVTED_clean_linker_0, # of connection points: 2
#     Edge 36, Type (0, 0), BuildingBlock: XIVTED_clean_linker_0, # of connection points: 2
#     Edge 37, Type (0, 0), BuildingBlock: XIVTED_clean_linker_0, # of connection points: 2
#     Edge 38, Type (0, 0), BuildingBlock: XIVTED_clean_linker_0, # of connection points: 2
#     Edge 39, Type (0, 0), BuildingBlock: XIVTED_clean_linker_0, # of connection points: 2
#     Edge 40, Type (0, 0), BuildingBlock: XIVTED_clean_linker_0, # of connection points: 2
#     Edge 41, Type (0, 0), BuildingBlock: XIVTED_clean_linker_0, # of connection points: 2
#     Edge 42, Type (0, 0), BuildingBlock: XIVTED_clean_linker_0, # of connection points: 2
#     Edge 43, Type (0, 0), BuildingBlock: XIVTED_clean_linker_0, # of connection points: 2
#     Edge 44, Type (0, 0), BuildingBlock: XIVTED_clean_linker_0, # of connection points: 2
#     Edge 45, Type (0, 0), BuildingBlock: XIVTED_clean_linker_0, # of connection points: 2
#     Edge 46, Type (0, 0), BuildingBlock: XIVTED_clean_linker_0, # of connection points: 2
#     Edge 47, Type (0, 0), BuildingBlock: XIVTED_clean_linker_0, # of connection points: 2
# Relax obj value: 0.307
# Max RMSD: 0.277
# Mean RMSD: 0.269
data_MOF--net-wkf--node1-CUWYAW_clean_sbu_0--edge1-XIVTED_clean_linker_0
_symmetry_space_group_name_H-M    P1
_symmetry_Int_Tables_number       1
_symmetry_cell_setting            triclinic
loop_
_symmetry_equiv_pos_as_xyz
'x, y, z'
_cell_length_a     29.026223
_cell_length_b     28.878063
_cell_length_c     99.55102
_cell_angle_alpha  89.859101
_cell_angle_beta   90.151196
_cell_angle_gamma 119.00303
loop_
_atom_site_label
_atom_site_type_symbol
_atom_site_fract_x
_atom_site_fract_y
_atom_site_fract_z
_atom_type_partial_charge
C0 C 0.34311 0.95218 0.35198 0.0
Eu1 Eu 0.42424 0.99789 0.36863 0.0
C2 C 0.31764 0.91744 0.34006 0.0
C3 C 0.31413 0.94068 0.32797 0.0
C4 C 0.28554 0.90962 0.31703 0.0
C5 C 0.25896 0.85425 0.31785 0.0
C6 C 0.26133 0.8303 0.32996 0.0
C7 C 0.29053 0.86162 0.34097 0.0
C8 C 0.49027 0.10603 0.36414 0.0
C9 C 0.50015 0.93918 0.36369 0.0
C10 C 0.5795 0.0792 0.39719 0.0
Eu11 Eu 0.49444 1.01781 0.38449 0.0
C12 C 0.59135 0.1109 0.40928 0.0
C13 C 0.58524 0.08773 0.422 0.0
C14 C 0.60016 0.11905 0.43337 0.0
C15 C 0.62027 0.1734 0.43213 0.0
C16 C 0.62578 0.1967 0.41933 0.0
C17 C 0.61094 0.16548 0.408 0.0
C18 C 0.40878 0.9408 0.39983 0.0
C19 C 0.43084 0.06276 0.39628 0.0
O20 O 0.34776 0.93123 0.36312 0.0
O21 O 0.38282 0.99933 0.35018 0.0
O22 O 0.43945 0.08183 0.3652 0.0
O23 O 0.50525 0.07028 0.36563 0.0
O24 O 0.45946 0.94494 0.3595 0.0
O25 O 0.52535 0.96815 0.37406 0.0
O26 O 0.56085 0.09521 0.38735 0.0
O27 O 0.55547 1.02765 0.3986 0.0
O28 O 0.45765 0.96678 0.40333 0.0
O29 O 0.40414 0.95535 0.388 0.0
O30 O 0.47881 0.07412 0.39481 0.0
O31 O 0.39602 1.02672 0.38785 0.0
H32 H 0.33298 0.98333 0.32699 0.0
H33 H 0.28396 0.92908 0.30786 0.0
H34 H 0.24111 0.78757 0.33087 0.0
H35 H 0.29118 0.84217 0.35023 0.0
H36 H 0.57043 0.04561 0.42316 0.0
H37 H 0.59796 0.10121 0.4431 0.0
H38 H 0.64379 0.23914 0.41794 0.0
H39 H 0.61647 0.18423 0.39825 0.0
C40 C 0.41233 0.27263 0.52375 0.0
Eu41 Eu 0.43722 0.35926 0.53773 0.0
C42 C 0.42702 0.25025 0.51187 0.0
C43 C 0.40068 0.24482 0.49965 0.0
C44 C 0.40721 0.21815 0.48875 0.0
C45 C 0.44086 0.19628 0.48952 0.0
C46 C 0.46802 0.20138 0.50167 0.0
C47 C 0.46083 0.22779 0.5128 0.0
C48 C 0.39575 0.42945 0.53228 0.0
C49 C 0.57091 0.43717 0.53303 0.0
C50 C 0.53035 0.52973 0.56859 0.0
Eu51 Eu 0.49859 0.44503 0.5551 0.0
C52 C 0.5075 0.54122 0.58009 0.0
C53 C 0.52233 0.53571 0.5932 0.0
C54 C 0.50306 0.55086 0.60405 0.0
C55 C 0.46838 0.57058 0.60181 0.0
C56 C 0.45429 0.57637 0.58857 0.0
C57 C 0.4725 0.56041 0.57788 0.0
C58 C 0.49655 0.35962 0.56755 0.0
C59 C 0.3903 0.37242 0.56745 0.0
O60 O 0.44125 0.28579 0.53458 0.0
O61 O 0.3936 0.30489 0.52147 0.0
O62 O 0.38095 0.38356 0.52695 0.0
O63 O 0.43305 0.43505 0.54055 0.0
O64 O 0.52429 0.39903 0.52843 0.0
O65 O 0.57069 0.46479 0.5433 0.0
O66 O 0.50442 0.5215 0.55725 0.0
O67 O 0.54761 0.49634 0.57084 0.0
O68 O 0.51949 0.40719 0.57212 0.0
O69 O 0.47387 0.35763 0.55657 0.0
O70 O 0.42783 0.42051 0.56638 0.0
O71 O 0.38459 0.33658 0.55789 0.0
H72 H 0.3735 0.2602 0.49853 0.0
H73 H 0.38568 0.21471 0.47957 0.0
H74 H 0.49405 0.18452 0.5026 0.0
H75 H 0.48096 0.22989 0.52214 0.0
H76 H 0.54969 0.52098 0.59505 0.0
H77 H 0.51574 0.548 0.61412 0.0
H78 H 0.43011 0.59445 0.58627 0.0
H79 H 0.46086 0.56548 0.56787 0.0
C80 C 0.12166 0.38582 0.68804 0.0
Eu81 Eu 0.06133 0.41452 0.70121 0.0
C82 C 0.15853 0.39785 0.67638 0.0
C83 C 0.13683 0.37441 0.66404 0.0
C84 C 0.16825 0.37653 0.65332 0.0
C85 C 0.22342 0.40003 0.65441 0.0
C86 C 0.24635 0.42633 0.66663 0.0
C87 C 0.21414 0.42523 0.67751 0.0
C88 C 0.95252 0.37436 0.69454 0.0
C89 C 0.11398 0.54815 0.69624 0.0
C90 C 0.96566 0.49563 0.73017 0.0
Eu91 Eu 1.02935 0.47617 0.71731 0.0
C92 C 0.93767 0.47063 0.74246 0.0
C93 C 0.96082 0.49163 0.75498 0.0
C94 C 0.93041 0.4751 0.76649 0.0
C95 C 0.8768 0.44064 0.76512 0.0
C96 C 0.8576 0.4092 0.75354 0.0
C97 C 0.88725 0.42628 0.74189 0.0
C98 C 0.11015 0.47596 0.73143 0.0
C99 C 0.99903 0.36603 0.72978 0.0
O100 O 0.13682 0.41474 0.69887 0.0
O101 O 0.07223 0.36996 0.68531 0.0
O102 O 0.9844 0.35945 0.68972 0.0
O103 O 0.98334 0.41199 0.70249 0.0
O104 O 0.11126 0.50215 0.69273 0.0
O105 O 0.07957 0.54713 0.70488 0.0
O106 O 0.95127 0.46573 0.71943 0.0
O107 O 1.01669 0.52492 0.73141 0.0
O108 O 0.0847 0.50015 0.73478 0.0
O109 O 0.0933 0.45267 0.72033 0.0
O110 O 0.98851 0.40426 0.72846 0.0
O111 O 1.03028 0.36024 0.72074 0.0
H112 H 0.09457 0.35301 0.66259 0.0
H113 H 0.14783 0.35922 0.64406 0.0
H114 H 0.28863 0.44597 0.66801 0.0
H115 H 0.23256 0.44383 0.68692 0.0
H116 H 1.00075 0.5239 0.75579 0.0
H117 H 0.94574 0.49804 0.7756 0.0
H118 H 0.81602 0.38083 0.75259 0.0
H119 H 0.86934 0.40763 0.73244 0.0
C120 C 0.74055 0.11062 0.85251 0.0
Eu121 Eu 0.65837 0.06116 0.86845 0.0
C122 C 0.76396 0.14318 0.84024 0.0
C123 C 0.76521 0.11818 0.82835 0.0
C124 C 0.79327 0.1475 0.81725 0.0
C125 C 0.82267 0.20307 0.81767 0.0
C126 C 0.82067 0.2288 0.82949 0.0
C127 C 0.79168 0.19905 0.84068 0.0
C128 C 0.59171 0.95321 0.86396 0.0
C129 C 0.58312 0.11989 0.86339 0.0
C130 C 0.50152 0.98611 0.89729 0.0
Eu131 Eu 0.58891 0.0412 0.8846 0.0
C132 C 0.48463 0.95045 0.90867 0.0
C133 C 0.48633 0.96976 0.92166 0.0
C134 C 0.47288 0.93595 0.93255 0.0
C135 C 0.45827 0.88286 0.93053 0.0
C136 C 0.45127 0.86264 0.91731 0.0
C137 C 0.46555 0.89645 0.90651 0.0
C138 C 0.67461 0.11901 0.89963 0.0
C139 C 0.65365 0.99695 0.89582 0.0
O140 O 0.73021 0.1323 0.86263 0.0
O141 O 0.70599 0.06063 0.85134 0.0
O142 O 0.64271 0.9768 0.86442 0.0
O143 O 0.57741 0.98934 0.86566 0.0
O144 O 0.62074 0.11075 0.85853 0.0
O145 O 0.56131 0.09453 0.87447 0.0
O146 O 0.51556 0.96923 0.88677 0.0
O147 O 0.5331 0.03603 0.89979 0.0
O148 O 0.62545 0.09478 0.90284 0.0
O149 O 0.67966 0.10267 0.88807 0.0
O150 O 0.60477 0.98112 0.89365 0.0
O151 O 0.68737 0.03623 0.888 0.0
H152 H 0.74507 0.07542 0.82764 0.0
H153 H 0.79151 0.12575 0.80826 0.0
H154 H 0.84268 0.27151 0.83028 0.0
H155 H 0.79241 0.21971 0.84981 0.0
H156 H 0.49913 1.01119 0.92345 0.0
H157 H 0.47577 0.95175 0.94255 0.0
H158 H 0.43579 0.82097 0.91516 0.0
H159 H 0.46177 0.88024 0.8965 0.0
C160 C 0.66927 0.78732 1.02483 0.0
Eu161 Eu 0.64476 0.69907 0.03842 0.0
C162 C 0.65711 0.81158 1.01276 0.0
C163 C 0.68673 0.81946 1.00107 0.0
C164 C 0.68141 0.84601 0.98998 0.0
C165 C 0.64519 0.86502 0.98977 0.0
C166 C 0.61615 0.85944 1.0016 0.0
C167 C 0.62226 0.8331 1.01303 0.0
C168 C 0.68831 0.63202 0.03221 0.0
C169 C 0.51224 0.62216 0.03355 0.0
C170 C 0.56752 0.53634 0.06906 0.0
Eu171 Eu 0.58795 0.61835 0.05508 0.0
C172 C 0.58994 0.53245 0.08173 0.0
C173 C 0.56718 0.53612 0.09386 0.0
C174 C 0.58348 0.52442 0.10583 0.0
C175 C 0.62023 0.50692 0.10533 0.0
C176 C 0.65368 0.51912 0.09412 0.0
C177 C 0.63555 0.52711 0.08193 0.0
C178 C 0.58636 0.70443 0.06602 0.0
C179 C 0.69565 0.69106 0.06808 0.0
O180 O 0.63713 0.77081 0.03502 0.0
O181 O 0.69063 0.75711 1.02286 0.0
O182 O 0.69891 0.67654 0.02652 0.0
O183 O 0.65141 0.62255 0.04085 0.0
O184 O 0.55811 0.66119 0.02909 0.0
O185 O 0.5141 0.59456 0.04364 0.0
O186 O 0.59956 0.55126 0.05883 0.0
O187 O 0.53849 0.55938 0.06955 0.0
O188 O 0.55246 0.65559 0.06843 0.0
O189 O 0.62388 0.70649 0.05919 0.0
O190 O 0.64976 0.65046 0.06905 0.0
O191 O 0.70538 0.7229 0.05723 0.0
H192 H 0.71522 0.80556 1.00047 0.0
H193 H 0.7055 0.85064 0.98125 0.0
H194 H 0.58797 0.87385 1.00189 0.0
H195 H 0.59977 0.82948 1.02201 0.0
H196 H 0.53403 0.54352 0.09404 0.0
H197 H 0.5595 0.51756 0.11471 0.0
H198 H 0.68433 0.50786 0.09394 0.0
H199 H 0.65574 0.52706 0.07279 0.0
C200 C 0.96336 0.67573 0.18762 0.0
Eu201 Eu 1.02286 0.6465 0.20116 0.0
C202 C 0.92559 0.66293 0.17615 0.0
C203 C 0.94639 0.68744 0.16384 0.0
C204 C 0.91406 0.6852 0.15332 0.0
C205 C 0.85906 0.65975 0.15464 0.0
C206 C 0.83695 0.63223 0.16673 0.0
C207 C 0.8701 0.63401 0.17746 0.0
C208 C 0.13115 0.68559 0.19486 0.0
C209 C 0.9694 0.51277 0.19681 0.0
C210 C 0.1159 0.56155 0.23067 0.0
Eu211 Eu 0.0541 0.58554 0.21835 0.0
C212 C 0.14758 0.5854 0.24249 0.0
C213 C 0.12659 0.56663 0.25529 0.0
C214 C 0.15969 0.5804 0.26628 0.0
C215 C 0.21337 0.61335 0.26446 0.0
C216 C 0.23331 0.63756 0.25193 0.0
C217 C 0.20033 0.62365 0.24097 0.0
C218 C 0.97155 0.58653 0.23117 0.0
C219 C 0.08481 0.69692 0.23006 0.0
O220 O 0.94856 0.64935 0.19887 0.0
O221 O 1.01191 0.68891 0.18461 0.0
O222 O 0.09978 0.70098 0.18976 0.0
O223 O 0.10223 0.64911 0.20333 0.0
O224 O 0.97137 0.55842 0.19327 0.0
O225 O 1.00436 0.51441 0.20547 0.0
O226 O 0.13031 0.59076 0.21978 0.0
O227 O 0.06503 0.53618 0.23264 0.0
O228 O 0.99636 0.56285 0.23562 0.0
O229 O 0.99093 0.6084 0.2201 0.0
O230 O 0.09436 0.65749 0.23025 0.0
O231 O 0.05407 0.70104 0.22046 0.0
H232 H 0.98853 0.71027 0.16233 0.0
H233 H 0.93314 0.70468 0.14406 0.0
H234 H 0.79465 0.61152 0.16812 0.0
H235 H 0.85251 0.61474 0.18687 0.0
H236 H 0.08554 0.53776 0.2567 0.0
H237 H 0.14446 0.5607 0.2758 0.0
H238 H 0.27518 0.6622 0.2502 0.0
H239 H 0.2171 0.63932 0.23119 0.0
C240 C 0.12344 0.72954 0.51354 0.0
Eu241 Eu 0.07282 0.64689 0.49769 0.0
C242 C 0.15489 0.75296 0.52594 0.0
C243 C 0.12878 0.75506 0.53741 0.0
C244 C 0.1563 0.78264 0.5487 0.0
C245 C 0.21201 0.81034 0.54924 0.0
C246 C 0.23876 0.8083 0.53755 0.0
C247 C 0.21049 0.78009 0.52604 0.0
C248 C 0.96518 0.58036 0.50254 0.0
C249 C 0.13046 0.5703 0.5028 0.0
C250 C 0.9908 0.49295 0.4688 0.0
Eu251 Eu 0.05201 0.57729 0.48182 0.0
C252 C 0.96 0.48364 0.45664 0.0
C253 C 0.98373 0.49124 0.444 0.0
C254 C 0.95303 0.47597 0.43254 0.0
C255 C 0.89873 0.4538 0.43363 0.0
C256 C 0.87508 0.44948 0.44629 0.0
C257 C 0.90572 0.46454 0.45773 0.0
C258 C 0.12946 0.66256 0.46645 0.0
C259 C 1.00886 0.64327 0.47048 0.0
O260 O 0.14497 0.71763 0.50369 0.0
O261 O 0.07323 0.69612 0.51451 0.0
O262 O 0.9889 0.6316 0.50186 0.0
O263 O 1.00104 0.56584 0.50084 0.0
O264 O 0.12277 0.60935 0.50743 0.0
O265 O 0.10355 0.54718 0.49196 0.0
O266 O 0.97504 0.51073 0.47881 0.0
O267 O 0.04208 0.51637 0.46758 0.0
O268 O 0.10346 0.61329 0.46314 0.0
O269 O 0.11446 0.66788 0.47815 0.0
O270 O 0.99376 0.59426 0.47242 0.0
O271 O 0.04769 0.67711 0.47836 0.0
H272 H 0.08618 0.73599 0.53765 0.0
H273 H 0.13133 0.78076 0.55682 0.0
H274 H 0.28125 0.82863 0.53705 0.0
H275 H 0.23213 0.78052 0.51716 0.0
H276 H 1.0257 0.50636 0.44297 0.0
H277 H 0.97116 0.47767 0.42292 0.0
H278 H 0.83275 0.43062 0.44753 0.0
H279 H 0.88666 0.45855 0.46742 0.0
C280 C 0.39623 0.10907 0.6794 0.0
Eu281 Eu 0.42659 0.05053 0.66558 0.0
C282 C 0.40814 0.14712 0.69087 0.0
C283 C 0.38041 0.12728 0.70293 0.0
C284 C 0.38269 0.16093 0.71326 0.0
C285 C 0.41331 0.21599 0.71211 0.0
C286 C 0.44291 0.23677 0.70026 0.0
C287 C 0.43995 0.20263 0.68966 0.0
C288 C 0.38495 0.94157 0.67197 0.0
C289 C 0.5592 0.10248 0.6702 0.0
C290 C 0.50784 0.95471 0.63573 0.0
Eu291 Eu 0.48611 1.01633 0.64913 0.0
C292 C 0.48208 0.92492 0.62374 0.0
C293 C 0.50216 0.94707 0.61109 0.0
C294 C 0.48918 0.91479 0.59997 0.0
C295 C 0.45695 0.86081 0.60165 0.0
C296 C 0.42791 0.84053 0.61357 0.0
C297 C 0.44137 0.87265 0.62478 0.0
C298 C 0.48672 0.09738 0.6351 0.0
C299 C 0.37662 0.98676 0.63735 0.0
O300 O 0.42191 0.12431 0.66809 0.0
O301 O 0.38435 0.06061 0.68238 0.0
O302 O 0.37163 0.97443 0.67707 0.0
O303 O 0.42195 0.96943 0.66367 0.0
O304 O 0.51432 0.10249 0.67318 0.0
O305 O 0.55678 0.06527 0.66219 0.0
O306 O 0.48085 0.9394 0.6469 0.0
O307 O 0.5335 1.00597 0.63414 0.0
O308 O 0.50878 0.06993 0.63158 0.0
O309 O 0.4637 0.08192 0.64628 0.0
O310 O 0.40993 0.96985 0.63943 0.0
O311 O 0.37538 1.02273 0.64569 0.0
H312 H 0.35486 0.08515 0.70424 0.0
H313 H 0.35957 0.14355 0.72223 0.0
H314 H 0.46675 0.27919 0.69901 0.0
H315 H 0.46129 0.21966 0.68044 0.0
H316 H 0.53233 0.98798 0.60999 0.0
H317 H 0.51164 0.93031 0.59082 0.0
H318 H 0.40277 0.79825 0.61495 0.0
H319 H 0.4241 0.85521 0.63438 0.0
C320 C 0.28564 0.40179 0.84262 0.0
Eu321 Eu 0.37194 0.4253 0.82862 0.0
C322 C 0.26231 0.41572 0.8545 0.0
C323 C 0.25677 0.38922 0.86675 0.0
C324 C 0.22995 0.39561 0.87763 0.0
C325 C 0.20772 0.42902 0.87682 0.0
C326 C 0.21249 0.45596 0.86464 0.0
C327 C 0.23922 0.44907 0.85354 0.0
C328 C 0.44049 0.38333 0.83422 0.0
C329 C 0.45038 0.55905 0.83288 0.0
C330 C 0.53435 0.50303 0.79679 0.0
Eu331 Eu 0.45461 0.4841 0.81089 0.0
C332 C 0.53462 0.47781 0.78418 0.0
C333 C 0.53204 0.50059 0.7719 0.0
C334 C 0.5465 0.48525 0.76018 0.0
C335 C 0.56528 0.44936 0.76115 0.0
C336 C 0.5504 0.41467 0.77217 0.0
C337 C 0.54084 0.43258 0.7842 0.0
C338 C 0.37053 0.48333 0.79865 0.0
C339 C 0.37792 0.37509 0.79868 0.0
O340 O 0.30002 0.43178 0.83195 0.0
O341 O 0.31689 0.38192 0.84485 0.0
O342 O 0.39572 0.37028 0.83992 0.0
O343 O 0.44775 0.42 0.82556 0.0
O344 O 0.41294 0.51263 0.83775 0.0
O345 O 0.47675 0.55821 0.82237 0.0
O346 O 0.52169 0.47277 0.80747 0.0
O347 O 0.51267 0.53351 0.79636 0.0
O348 O 0.41777 0.50672 0.79405 0.0
O349 O 0.36836 0.46073 0.8097 0.0
O350 O 0.42166 0.4185 0.79737 0.0
O351 O 0.34712 0.36727 0.80956 0.0
H352 H 0.27252 0.36231 0.86791 0.0
H353 H 0.22692 0.37438 0.88686 0.0
H354 H 0.19567 0.48209 0.8637 0.0
H355 H 0.2413 0.46932 0.8442 0.0
H356 H 0.52487 0.53401 0.77152 0.0
H357 H 0.55477 0.50995 0.75133 0.0
H358 H 0.56207 0.38424 0.77264 0.0
H359 H 0.54184 0.41331 0.79346 0.0
C360 C 0.96216 0.33214 1.0139 0.0
Eu361 Eu 1.01156 0.41384 0.99761 0.0
C362 C 0.92944 0.30884 1.02614 0.0
C363 C 0.95433 0.30771 0.03808 0.0
C364 C 0.92526 0.27971 0.0492 0.0
C365 C 0.86998 0.25021 0.04878 0.0
C366 C 0.84424 0.25215 0.03694 0.0
C367 C 0.8738 0.28107 1.02569 0.0
C368 C 0.11913 0.48053 1.0023 0.0
C369 C 0.95304 0.49013 1.00248 0.0
C370 C 0.09344 0.56362 0.96802 0.0
Eu371 Eu 1.03029 0.48184 0.98159 0.0
C372 C 0.12319 0.56899 0.95583 0.0
C373 C 0.09889 0.56152 0.94324 0.0
C374 C 0.12925 0.57857 0.93177 0.0
C375 C 0.18355 0.60357 0.93296 0.0
C376 C 0.2073 0.60091 0.94513 0.0
C377 C 0.17712 0.58511 0.95669 0.0
C378 C 0.95222 0.39583 0.96666 0.0
C379 C 0.07652 0.41835 0.97026 0.0
O380 O 0.94085 0.34131 1.00347 0.0
O381 O 1.01159 0.36759 1.01519 0.0
O382 O 0.09496 0.42923 1.00235 0.0
O383 O 0.0833 0.49506 1.00037 0.0
O384 O 0.96154 0.45175 1.00736 0.0
O385 O 0.9795 0.51244 0.99153 0.0
O386 O 0.10841 0.54676 0.97841 0.0
O387 O 0.04218 0.54237 0.96692 0.0
O388 O 0.97448 0.44547 0.96362 0.0
O389 O 0.97042 0.39048 0.97795 0.0
O390 O 0.08721 0.46636 0.97151 0.0
O391 O 1.04004 0.38383 0.97863 0.0
H392 H 0.99687 0.32782 0.0388 0.0
H393 H 0.94696 0.28143 0.0582 0.0
H394 H 0.80172 0.23005 0.03618 0.0
H395 H 0.85321 0.28025 1.01653 0.0
H396 H 0.05702 0.54731 0.94232 0.0
H397 H 0.11102 0.58046 0.92242 0.0
H398 H 0.24983 0.62031 0.94616 0.0
H399 H 0.19652 0.58972 0.9663 0.0
C400 C 0.68593 0.94945 0.17802 0.0
Eu401 Eu 0.65762 1.01035 0.16497 0.0
C402 C 0.67452 0.91339 0.18979 0.0
C403 C 0.70036 0.93642 0.20172 0.0
C404 C 0.69892 0.9062 0.21261 0.0
C405 C 0.67319 0.85036 0.21227 0.0
C406 C 0.64509 0.82616 0.2003 0.0
C407 C 0.64574 0.85749 0.18917 0.0
C408 C 0.69699 0.11917 0.17188 0.0
C409 C 0.52368 0.95771 0.17016 0.0
C410 C 0.57608 0.10694 0.13597 0.0
Eu411 Eu 0.59449 0.04306 0.14906 0.0
C412 C 0.60085 0.13368 0.12357 0.0
C413 C 0.57645 0.11146 0.11126 0.0
C414 C 0.59268 0.14196 0.09974 0.0
C415 C 0.63103 0.19454 0.10096 0.0
C416 C 0.66608 0.21042 0.11192 0.0
C417 C 0.64841 0.18175 0.12376 0.0
C418 C 0.59562 0.96161 0.1351 0.0
C419 C 0.7053 0.07292 0.13659 0.0
O420 O 0.65603 0.93386 0.16736 0.0
O421 O 0.70267 0.99941 0.18063 0.0
O422 O 0.71201 0.08696 0.17661 0.0
O423 O 0.65947 0.08956 0.16377 0.0
O424 O 0.5695 0.95889 0.17304 0.0
O425 O 0.52455 0.994 0.16208 0.0
O426 O 0.60626 0.1217 0.14665 0.0
O427 O 0.54607 0.05566 0.13494 0.0
O428 O 0.57037 0.98564 0.13155 0.0
O429 O 0.61764 0.98105 0.14614 0.0
O430 O 0.66716 0.08353 0.13803 0.0
O431 O 0.71135 0.0413 0.14553 0.0
H432 H 0.72318 0.97902 0.20276 0.0
H433 H 0.7182 0.92935 0.22132 0.0
H434 H 0.62367 0.78355 0.19933 0.0
H435 H 0.62544 0.83811 0.18 0.0
H436 H 0.54169 0.07291 0.11072 0.0
H437 H 0.56749 0.12861 0.09094 0.0
H438 H 0.69797 0.25087 0.11258 0.0
H439 H 0.66975 0.19863 0.133 0.0
C440 C 0.80086 0.6602 0.34237 0.0
Eu441 Eu 0.71417 0.63553 0.32836 0.0
C442 C 0.8236 0.64586 0.35428 0.0
C443 C 0.82852 0.67229 0.36644 0.0
C444 C 0.85466 0.66582 0.37744 0.0
C445 C 0.87685 0.63232 0.37689 0.0
C446 C 0.87324 0.60585 0.36472 0.0
C447 C 0.8468 0.6126 0.35348 0.0
C448 C 0.64509 0.67715 0.33455 0.0
C449 C 0.63545 0.50187 0.33346 0.0
C450 C 0.54371 0.54633 0.2977 0.0
Eu451 Eu 0.62616 0.57417 0.31158 0.0
C452 C 0.53576 0.57042 0.28584 0.0
C453 C 0.54054 0.55284 0.27305 0.0
C454 C 0.52429 0.56931 0.26184 0.0
C455 C 0.50416 0.60396 0.2634 0.0
C456 C 0.50316 0.62453 0.27618 0.0
C457 C 0.51965 0.6084 0.28729 0.0
C458 C 0.71083 0.57596 0.29855 0.0
C459 C 0.70029 0.68277 0.29921 0.0
O460 O 0.78759 0.63115 0.33157 0.0
O461 O 0.76866 0.6788 0.34466 0.0
O462 O 0.69185 0.69154 0.33939 0.0
O463 O 0.63562 0.63953 0.32602 0.0
O464 O 0.67812 0.54738 0.3368 0.0
O465 O 0.60313 0.50361 0.32462 0.0
O466 O 0.55254 0.57326 0.30886 0.0
O467 O 0.57419 0.52532 0.29604 0.0
O468 O 0.66324 0.55136 0.29443 0.0
O469 O 0.71096 0.59751 0.30955 0.0
O470 O 0.65143 0.64821 0.301 0.0
O471 O 0.73691 0.68596 0.30811 0.0
H472 H 0.81278 0.69925 0.36746 0.0
H473 H 0.85708 0.68708 0.3866 0.0
H474 H 0.88985 0.5795 0.36397 0.0
H475 H 0.84499 0.59237 0.34418 0.0
H476 H 0.55372 0.5239 0.27175 0.0
H477 H 0.52388 0.55227 0.25213 0.0
H478 H 0.48595 0.64996 0.27784 0.0
H479 H 0.51615 0.62291 0.29705 0.0
H480 H 0.18866 0.75757 0.23466 0.0
H481 H 0.15241 0.79045 0.3136 0.0
H482 H 1.03933 0.7058 0.25371 0.0
H483 H 0.30306 0.8498 0.29429 0.0
H484 H 0.10893 0.7534 0.29193 0.0
H485 H 0.23136 0.78891 0.25652 0.0
C486 C 0.16466 0.75543 0.24321 0.0
C487 C 0.10968 0.73278 0.24175 0.0
C488 C 0.15153 0.77403 0.29246 0.0
C489 C 0.15824 0.76509 0.26727 0.0
C490 C 0.17624 0.79469 0.30485 0.0
C491 C 0.23138 0.82321 0.30569 0.0
C492 C 0.18234 0.78207 0.28087 0.0
C493 C 0.26045 0.82815 0.29403 0.0
C494 C 0.18903 0.77207 0.25579 0.0
C495 C 0.08096 0.7264 0.25363 0.0
N496 N 0.2357 0.80808 0.28214 0.0
N497 N 0.10526 0.74249 0.26575 0.0
H498 H 0.52178 0.23429 0.47129 0.0
H499 H 0.34967 1.01692 0.41522 0.0
H500 H 0.37018 0.10001 0.47932 0.0
H501 H 0.49701 0.15737 0.40717 0.0
H502 H 0.35635 0.04575 0.4388 0.0
H503 H 0.51696 0.20232 0.44817 0.0
C504 C 0.48827 0.19715 0.46831 0.0
C505 C 0.44643 0.16963 0.47728 0.0
C506 C 0.38691 0.07051 0.43179 0.0
C507 C 0.4396 0.13368 0.45066 0.0
C508 C 0.38236 0.05451 0.41823 0.0
C509 C 0.42201 0.08495 0.409 0.0
C510 C 0.43192 0.11671 0.43622 0.0
C511 C 0.46477 0.13263 0.41379 0.0
C512 C 0.48514 0.17929 0.45505 0.0
C513 C 0.40346 0.12228 0.47277 0.0
N514 N 0.4689 0.14651 0.42697 0.0
N515 N 0.40097 0.1061 0.4598 0.0
H516 H 0.33041 0.46264 0.64664 0.0
H517 H 0.28358 0.30872 0.57571 0.0
H518 H 0.18767 0.32134 0.63532 0.0
H519 H 0.43678 0.42524 0.5902 0.0
H520 H 0.24626 0.31707 0.59733 0.0
H521 H 0.37147 0.45336 0.62584 0.0
C522 C 0.30722 0.43024 0.63988 0.0
C523 C 0.25376 0.39468 0.64267 0.0
C524 C 0.28823 0.34068 0.59567 0.0
C525 C 0.30026 0.38471 0.61861 0.0
C526 C 0.30948 0.33507 0.58337 0.0
C527 C 0.3636 0.36533 0.58092 0.0
C528 C 0.32107 0.37754 0.60549 0.0
C529 C 0.39465 0.4007 0.59134 0.0
C530 C 0.33066 0.4252 0.62791 0.0
C531 C 0.22712 0.35281 0.63346 0.0
N532 N 0.37316 0.40619 0.6029 0.0
N533 N 0.25003 0.34983 0.62191 0.0
H534 H 0.97656 0.26396 0.73959 0.0
H535 H 0.84843 0.30331 0.8077 0.0
H536 H 0.97036 0.40514 0.7507 0.0
H537 H 0.87348 0.16978 0.80036 0.0
H538 H 0.89224 0.34165 0.78628 0.0
H539 H 0.93456 0.22552 0.7615 0.0
C540 C 0.96637 0.28677 0.74637 0.0
C541 C 0.97673 0.33782 0.74287 0.0
C542 C 0.88751 0.30358 0.78936 0.0
C543 C 0.92768 0.29421 0.76765 0.0
C544 C 0.86295 0.28195 0.80167 0.0
C545 C 0.855 0.23191 0.80569 0.0
C546 C 0.90384 0.27469 0.78103 0.0
C547 C 0.87565 0.20686 0.79745 0.0
C548 C 0.94203 0.26489 0.75883 0.0
C549 C 0.96151 0.36495 0.75227 0.0
N550 N 0.89818 0.22798 0.7855 0.0
N551 N 0.93764 0.34299 0.76394 0.0
H552 H 0.66316 0.05191 0.91882 0.0
H553 H 0.62634 0.81371 0.96627 0.0
H554 H 0.65559 0.90806 0.90461 0.0
H555 H 0.64454 0.9597 0.98258 0.0
H556 H 0.63154 0.84756 0.9438 0.0
H557 H 0.65223 1.01944 0.94175 0.0
C558 C 0.66201 1.0146 0.92049 0.0
C559 C 0.66464 0.98476 0.90962 0.0
C560 C 0.63392 0.8724 0.95218 0.0
C561 C 0.64907 0.94552 0.93626 0.0
C562 C 0.63073 0.85295 0.96512 0.0
C563 C 0.63598 0.88395 0.97646 0.0
C564 C 0.64151 0.92352 0.95023 0.0
C565 C 0.64051 0.93421 0.9742 0.0
C566 C 0.65457 0.99554 0.9337 0.0
C567 C 0.6577 0.93429 0.91263 0.0
N568 N 0.64355 0.95263 0.96131 0.0
N569 N 0.65079 0.9166 0.9256 0.0
H570 H 0.75942 0.58776 0.14421 0.0
H571 H 0.79692 0.76967 0.07858 0.0
H572 H 0.88724 0.74726 0.1393 0.0
H573 H 0.65946 0.62258 0.08878 0.0
H574 H 0.83406 0.76244 0.10061 0.0
H575 H 0.72097 0.59867 0.12311 0.0
C576 C 0.77943 0.62488 0.13879 0.0
C577 C 0.82816 0.66575 0.14332 0.0
C578 C 0.79597 0.73103 0.09748 0.0
C579 C 0.78577 0.67816 0.11905 0.0
C580 C 0.77502 0.73539 0.0849 0.0
C581 C 0.72559 0.69512 0.08087 0.0
C582 C 0.76744 0.68591 0.10579 0.0
C583 C 0.69912 0.65234 0.09008 0.0
C584 C 0.75788 0.63103 0.12666 0.0
C585 C 0.85138 0.71334 0.13592 0.0
N586 N 0.72013 0.64841 0.10168 0.0
N587 N 0.83073 0.71775 0.12412 0.0
H588 H 0.42837 0.9942 0.61441 0.0
H589 H 0.16816 0.82347 0.57311 0.0
H590 H 0.27102 0.93599 0.62957 0.0
H591 H 0.3213 0.86826 0.55573 0.0
H592 H 0.20828 0.86494 0.59302 0.0
H593 H 0.39276 0.94943 0.59312 0.0
C594 C 0.38602 0.97351 0.6131 0.0
C595 C 0.35259 0.97138 0.62372 0.0
C596 C 0.2335 0.86583 0.58492 0.0
C597 C 0.31159 0.91897 0.59913 0.0
C598 C 0.21021 0.84104 0.57303 0.0
C599 C 0.23988 0.83985 0.56195 0.0
C600 C 0.28786 0.89159 0.58623 0.0
C601 C 0.29534 0.86679 0.56366 0.0
C602 C 0.36595 0.94739 0.60093 0.0
C603 C 0.29839 0.94152 0.62157 0.0
N604 N 0.31748 0.89161 0.57555 0.0
N605 N 0.27973 0.91686 0.60952 0.0
H606 H 0.49351 0.28757 0.72859 0.0
H607 H 0.29412 0.31665 0.7804 0.0
H608 H 0.3267 0.21793 0.72163 0.0
H609 H 0.45225 0.35392 0.79023 0.0
H610 H 0.30514 0.28414 0.75826 0.0
H611 H 0.48252 0.32493 0.74985 0.0
C612 C 0.45482 0.28118 0.73137 0.0
C613 C 0.41089 0.24935 0.72332 0.0
C614 C 0.33786 0.30043 0.76523 0.0
C615 C 0.39753 0.29086 0.7478 0.0
C616 C 0.33089 0.31753 0.77805 0.0
C617 C 0.37246 0.33837 0.78734 0.0
C618 C 0.38764 0.30717 0.76136 0.0
C619 C 0.41996 0.34026 0.78323 0.0
C620 C 0.44835 0.30194 0.7436 0.0
C621 C 0.3616 0.242 0.72754 0.0
N622 N 0.42686 0.32672 0.77062 0.0
N623 N 0.35623 0.2621 0.73944 0.0
H624 H 1.03304 0.33767 0.95101 0.0
H625 H 0.25472 0.50335 0.89633 0.0
H626 H 0.17428 0.4799 0.96013 0.0
H627 H 0.10646 0.36832 0.88608 0.0
H628 H 0.22325 0.49941 0.91937 0.0
H629 H 0.05517 0.3507 0.92699 0.0
C630 C 0.06728 0.37246 0.9479 0.0
C631 C 0.09876 0.40918 0.95757 0.0
C632 C 0.19709 0.47108 0.91207 0.0
C633 C 0.12978 0.422 0.93022 0.0
C634 C 0.21484 0.47386 0.89884 0.0
C635 C 0.1831 0.43644 0.88923 0.0
C636 C 0.14722 0.43006 0.91583 0.0
C637 C 0.13211 0.39829 0.89314 0.0
C638 C 0.08142 0.37928 0.93423 0.0
C639 C 0.148 0.45007 0.95313 0.0
N640 N 0.11594 0.39581 0.90613 0.0
N641 N 0.16194 0.45527 0.93992 0.0
H642 H 0.66625 0.1023 0.11576 0.0
H643 H 0.9031 0.19759 0.06563 0.0
H644 H 0.80599 0.09345 0.12609 0.0
H645 H 0.77126 0.22542 0.05935 0.0
H646 H 0.86739 0.15783 0.08711 0.0
H647 H 0.70567 0.14915 0.09591 0.0
C648 C 0.70644 0.11186 0.11426 0.0
C649 C 0.73323 0.09567 0.12348 0.0
C650 C 0.84618 0.1726 0.08109 0.0
C651 C 0.77734 0.14501 0.09878 0.0
C652 C 0.86671 0.19595 0.06877 0.0
C653 C 0.84174 0.21753 0.06078 0.0
C654 C 0.79905 0.16875 0.08547 0.0
C655 C 0.79272 0.21039 0.06517 0.0
C656 C 0.72841 0.13769 0.10242 0.0
C657 C 0.78327 0.10486 0.11959 0.0
N658 N 0.77308 0.18676 0.07727 0.0
N659 N 0.80352 0.12852 0.10742 0.0
H660 H 0.65615 0.63054 0.27627 0.0
H661 H 0.73926 0.89097 0.23468 0.0
H662 H 0.75397 0.78895 0.29099 0.0
H663 H 0.6215 0.73979 0.21866 0.0
H664 H 0.74202 0.85064 0.2545 0.0
H665 H 0.64281 0.66596 0.25527 0.0
C666 C 0.6766 0.6731 0.27493 0.0
C667 C 0.70819 0.70677 0.28546 0.0
C668 C 0.71504 0.82574 0.24679 0.0
C669 C 0.6924 0.74753 0.26104 0.0
C670 C 0.71184 0.84941 0.23508 0.0
C671 C 0.67717 0.82067 0.22452 0.0
C672 C 0.68585 0.77138 0.24831 0.0
C673 C 0.64824 0.76503 0.22633 0.0
C674 C 0.66814 0.69302 0.26291 0.0
C675 C 0.73152 0.7612 0.28315 0.0
N676 N 0.65344 0.74216 0.23798 0.0
N677 N 0.72335 0.77966 0.27121 0.0
H678 H 0.90972 0.6153 0.46248 0.0
H679 H 0.97967 0.6566 0.38356 0.0
H680 H 0.06849 0.68449 0.4478 0.0
H681 H 0.82301 0.59075 0.39973 0.0
H682 H 1.01377 0.66123 0.4066 0.0
H683 H 0.87778 0.60477 0.43933 0.0
C684 C 0.93817 0.63066 0.45439 0.0
C685 C 0.99234 0.65442 0.45725 0.0
C686 C 0.97184 0.64519 0.40506 0.0
C687 C 0.95571 0.63837 0.43038 0.0
C688 C 0.95234 0.64185 0.39189 0.0
C689 C 0.89828 0.62321 0.38972 0.0
C690 C 0.93706 0.63033 0.41608 0.0
C691 C 0.86489 0.60541 0.40093 0.0
C692 C 0.91982 0.62339 0.44111 0.0
C693 C 1.02683 0.66913 0.44621 0.0
N694 N 0.88472 0.60997 0.41353 0.0
N695 N 1.00806 0.66087 0.43333 0.0
H696 H 0.69105 0.78648 0.33639 0.0
H697 H 0.43963 0.83038 0.35673 0.0
H698 H 0.53467 0.6541 0.33807 0.0
H699 H 0.60047 0.95421 0.35627 0.0
H700 H 0.46886 0.76697 0.34903 0.0
H701 H 0.65588 0.84589 0.34213 0.0
C702 C 0.64895 0.76907 0.33777 0.0
C703 C 0.6174 0.7132 0.33644 0.0
C704 C 0.49813 0.808 0.35046 0.0
C705 C 0.57431 0.78518 0.34368 0.0
C706 C 0.48113 0.84502 0.35486 0.0
C707 C 0.5169 0.89939 0.35736 0.0
C708 C 0.55221 0.82404 0.34813 0.0
C709 C 0.57035 0.91357 0.35471 0.0
C710 C 0.62851 0.80401 0.3412 0.0
C711 C 0.56243 0.69598 0.33864 0.0
N712 N 0.58562 0.87725 0.35031 0.0
N713 N 0.5435 0.73091 0.34216 0.0
H714 H 0.65583 0.44514 0.54743 0.0
H715 H 0.8744 0.54995 0.48684 0.0
H716 H 0.61558 0.45918 0.50666 0.0
H717 H 0.91443 0.54039 0.52791 0.0
H718 H 0.78097 0.51233 0.49344 0.0
H719 H 0.74683 0.47288 0.54034 0.0
C720 C 0.66564 0.45359 0.5369 0.0
C721 C 0.62596 0.44872 0.52774 0.0
C722 C 0.8097 0.51753 0.50107 0.0
C723 C 0.73455 0.4834 0.51931 0.0
C724 C 0.86402 0.53891 0.49724 0.0
C725 C 0.90477 0.54742 0.50654 0.0
C726 C 0.7934 0.50456 0.5146 0.0
C727 C 0.88618 0.53354 0.52001 0.0
C728 C 0.71853 0.46992 0.53283 0.0
C729 C 0.64321 0.46111 0.51424 0.0
N730 N 0.83331 0.51332 0.52349 0.0
N731 N 0.6952 0.47789 0.51057 0.0
H732 H 0.30622 0.89296 0.68999 0.0
H733 H 0.19678 0.57817 0.67692 0.0
H734 H 0.38087 0.84637 0.65965 0.0
H735 H 0.13251 0.64701 0.70428 0.0
H736 H 0.26464 0.66912 0.67016 0.0
H737 H 0.24623 0.80092 0.69485 0.0
C738 C 0.31067 0.86363 0.68424 0.0
C739 C 0.35045 0.88026 0.67435 0.0
C740 C 0.23561 0.66437 0.67762 0.0
C741 C 0.27765 0.76868 0.68011 0.0
C742 C 0.19629 0.61187 0.6815 0.0
C743 C 0.15695 0.60314 0.69116 0.0
C744 C 0.23691 0.70976 0.68348 0.0
C745 C 0.16042 0.64985 0.6967 0.0
C746 C 0.27545 0.80982 0.68711 0.0
C747 C 0.35193 0.83753 0.66747 0.0
N748 N 0.19864 0.69955 0.69285 0.0
N749 N 0.31654 0.78454 0.67046 0.0
H750 H 0.52705 0.40028 0.85088 0.0
H751 H 0.51111 0.10818 0.84244 0.0
H752 H 0.41933 0.28325 0.82348 0.0
H753 H 0.61491 0.2256 0.87036 0.0
H754 H 0.48115 0.17081 0.8345 0.0
H755 H 0.56218 0.34007 0.85686 0.0
C756 C 0.51119 0.36263 0.84576 0.0
C757 C 0.47019 0.34948 0.83618 0.0
C758 C 0.51078 0.18353 0.84231 0.0
C759 C 0.51095 0.27597 0.84366 0.0
C760 C 0.52846 0.14722 0.84688 0.0
C761 C 0.56686 0.1603 0.85718 0.0
C762 C 0.53063 0.23499 0.84795 0.0
C763 C 0.5859 0.21234 0.86239 0.0
C764 C 0.53134 0.32728 0.84937 0.0
C765 C 0.45145 0.29764 0.83063 0.0
N766 N 0.56809 0.24659 0.85782 0.0
N767 N 0.47149 0.26406 0.83433 0.0
H768 H 0.1639 0.48365 0.02759 0.0
H769 H 0.47844 0.64185 1.0081 0.0
H770 H 0.21423 0.54754 0.98804 0.0
H771 H 0.41657 0.5711 0.04652 0.0
H772 H 0.38694 0.61395 1.00045 0.0
H773 H 0.25675 0.5211 0.03443 0.0
C774 C 0.19406 0.50661 1.0203 0.0
C775 C 0.17848 0.51323 1.0072 0.0
C776 C 0.39319 0.60454 1.01058 0.0
C777 C 0.28991 0.55574 1.0151 0.0
C778 C 0.44614 0.62074 1.01501 0.0
C779 C 0.45691 0.60863 0.02805 0.0
C780 C 0.34922 0.57625 1.01922 0.0
C781 C 0.41179 0.58116 0.03632 0.0
C782 C 0.24812 0.52787 1.02426 0.0
C783 C 0.22213 0.54218 0.99839 0.0
N784 N 0.36148 0.56645 0.03186 0.0
N785 N 0.27445 0.56173 1.00241 0.0
H786 H 0.97834 0.42285 0.19283 0.0
H787 H 0.6755 0.20821 0.17135 0.0
H788 H 0.86214 0.47351 0.18878 0.0
H789 H 0.80306 0.17443 0.17701 0.0
H790 H 0.73747 0.30306 0.1767 0.0
H791 H 0.91254 0.33353 0.18601 0.0
C792 C 0.93901 0.41569 0.19045 0.0
C793 C 0.92747 0.45779 0.19135 0.0
C794 C 0.75211 0.275 0.17665 0.0
C795 C 0.84811 0.35083 0.18362 0.0
C796 C 0.71631 0.2201 0.17347 0.0
C797 C 0.73275 0.18098 0.17349 0.0
C798 C 0.80594 0.29257 0.17984 0.0
C799 C 0.78693 0.20124 0.1767 0.0
C800 C 0.90072 0.36371 0.18654 0.0
C801 C 0.8744 0.44368 0.18811 0.0
N802 N 0.82029 0.25388 0.17959 0.0
N803 N 0.83731 0.39223 0.18454 0.0
H804 H 0.23905 0.61306 0.49789 0.0
H805 H 0.29441 0.40292 0.54251 0.0
H806 H 0.11854 0.48987 0.52159 0.0
H807 H 0.41083 0.51914 0.51654 0.0
H808 H 0.23343 0.4371 0.53658 0.0
H809 H 0.30236 0.58442 0.50571 0.0
C810 C 0.22538 0.58019 0.50485 0.0
C811 C 0.17171 0.55482 0.5089 0.0
C812 C 0.27252 0.45614 0.53225 0.0
C813 C 0.24724 0.51967 0.51822 0.0
C814 C 0.3085 0.43671 0.53584 0.0
C815 C 0.36101 0.45879 0.53074 0.0
C816 C 0.28658 0.49842 0.52298 0.0
C817 C 0.37292 0.50108 0.52147 0.0
C818 C 0.26227 0.56337 0.50935 0.0
C819 C 0.15862 0.51182 0.51797 0.0
N820 N 0.33722 0.51883 0.51807 0.0
N821 N 0.19511 0.49626 0.52218 0.0
H822 H 0.59554 0.20843 0.67901 0.0
H823 H 0.89952 0.26897 0.68862 0.0
H824 H 0.65174 0.09712 0.67295 0.0
H825 H 0.86182 0.39337 0.69597 0.0
H826 H 0.80746 0.20848 0.68367 0.0
H827 H 0.68627 0.2763 0.68557 0.0
C828 C 0.62636 0.19754 0.6792 0.0
C829 C 0.61407 0.14533 0.67543 0.0
C830 C 0.81839 0.24877 0.68638 0.0
C831 C 0.72102 0.22511 0.68306 0.0
C832 C 0.87209 0.2842 0.68932 0.0
C833 C 0.89097 0.33781 0.69304 0.0
C834 C 0.77994 0.26519 0.68675 0.0
C835 C 0.8509 0.35293 0.69346 0.0
C836 C 0.6789 0.23698 0.68292 0.0
C837 C 0.6575 0.13576 0.67574 0.0
N838 N 0.79829 0.31744 0.69036 0.0
N839 N 0.70743 0.17421 0.67944 0.0
H840 H 0.54832 0.90488 0.83869 0.0
H841 H 0.46918 0.59934 0.85948 0.0
H842 H 0.56478 0.86089 0.87891 0.0
H843 H 0.46177 0.64732 0.81902 0.0
H844 H 0.49763 0.69109 0.86708 0.0
H845 H 0.51101 0.81109 0.83183 0.0
C846 C 0.54297 0.87581 0.84628 0.0
C847 C 0.55885 0.89302 0.85971 0.0
C848 C 0.48942 0.68178 0.85653 0.0
C849 C 0.5164 0.78159 0.85149 0.0
C850 C 0.47268 0.62862 0.85215 0.0
C851 C 0.46275 0.61404 0.83847 0.0
C852 C 0.49605 0.72221 0.8473 0.0
C853 C 0.46901 0.65549 0.82966 0.0
C854 C 0.52188 0.82141 0.84224 0.0
C855 C 0.55229 0.85129 0.86857 0.0
N856 N 0.4847 0.70635 0.83415 0.0
N857 N 0.53195 0.79902 0.86441 0.0
H858 H 0.70761 0.55419 0.04728 0.0
H859 H 0.92115 0.55885 0.99161 0.0
H860 H 0.75376 0.64466 1.01074 0.0
H861 H 0.89054 0.46376 0.02713 0.0
H862 H 0.85888 0.5872 0.99939 0.0
H863 H 0.76862 0.51874 0.04158 0.0
C864 C 0.72957 0.56667 0.03798 0.0
C865 C 0.72304 0.60339 0.02949 0.0
C866 C 0.86524 0.5602 1.00568 0.0
C867 C 0.79651 0.56156 1.02272 0.0
C868 C 0.9018 0.54359 1.00114 0.0
C869 C 0.9132 0.50799 1.00843 0.0
C870 C 0.83741 0.54233 1.01797 0.0
C871 C 0.88457 0.49094 1.02082 0.0
C872 C 0.7654 0.54615 0.03471 0.0
C873 C 0.75529 0.61692 1.0178 0.0
N874 N 0.84906 0.50794 1.02506 0.0
N875 N 0.78888 0.59661 1.01492 0.0
H876 H 0.44764 0.97036 0.18409 0.0
H877 H 0.20996 0.66173 0.18488 0.0
H878 H 0.47158 0.84568 0.16815 0.0
H879 H 0.19576 0.79271 0.20045 0.0
H880 H 0.30385 0.72356 0.17951 0.0
H881 H 0.35814 0.90418 0.19098 0.0
C882 C 0.43461 0.92899 0.18211 0.0
C883 C 0.46942 0.91487 0.17571 0.0
C884 C 0.28067 0.73894 0.18431 0.0
C885 C 0.36219 0.83607 0.18329 0.0
C886 C 0.22632 0.70301 0.18758 0.0
C887 C 0.1929 0.72028 0.19363 0.0
C888 C 0.30381 0.79404 0.18698 0.0
C889 C 0.2184 0.77576 0.19613 0.0
C890 C 0.38257 0.89064 0.18603 0.0
C891 C 0.44787 0.8596 0.17332 0.0
N892 N 0.27074 0.80943 0.19292 0.0
N893 N 0.39657 0.82307 0.17697 0.0
H894 H 0.6978 0.45116 0.33638 0.0
H895 H 0.44975 0.17371 0.36224 0.0
H896 H 0.54032 0.42325 0.34308 0.0
H897 H 0.59958 0.18105 0.35574 0.0
H898 H 0.48727 0.26582 0.35564 0.0
H899 H 0.66945 0.35838 0.34344 0.0
C900 C 0.65753 0.42628 0.3396 0.0
C901 C 0.62203 0.447 0.33934 0.0
C902 C 0.51267 0.2481 0.35558 0.0
C903 C 0.58822 0.33783 0.34743 0.0
C904 C 0.49089 0.19413 0.35942 0.0
C905 C 0.52013 0.16644 0.35976 0.0
C906 C 0.56578 0.27831 0.35174 0.0
C907 C 0.57398 0.19849 0.35584 0.0
C908 C 0.64108 0.37252 0.34355 0.0
C909 C 0.56995 0.41075 0.34322 0.0
N910 N 0.59452 0.25166 0.35204 0.0
N911 N 0.55534 0.35955 0.34709 0.0
H912 H 0.19528 0.7742 0.47038 0.0
H913 H 0.33458 0.83331 0.39581 0.0
H914 H 0.15922 0.65417 0.44053 0.0
H915 H 0.37924 0.95463 0.42569 0.0
H916 H 0.26954 0.76896 0.41173 0.0
H917 H 0.25993 0.84077 0.45462 0.0
C918 C 0.20049 0.76132 0.46057 0.0
C919 C 0.17046 0.70696 0.45709 0.0
C920 C 0.29295 0.80977 0.41486 0.0
C921 C 0.24633 0.78524 0.43842 0.0
C922 C 0.33041 0.84709 0.4056 0.0
C923 C 0.36353 0.9008 0.40908 0.0
C924 C 0.28642 0.8252 0.42795 0.0
C925 C 0.35527 0.9144 0.42224 0.0
C926 C 0.23793 0.79988 0.45145 0.0
C927 C 0.18053 0.69469 0.44399 0.0
N928 N 0.31819 0.87775 0.43094 0.0
N929 N 0.21661 0.73254 0.43539 0.0
H930 H 0.44428 0.33518 0.59092 0.0
H931 H 0.53237 0.12316 0.61118 0.0
H932 H 0.52949 0.28508 0.56479 0.0
H933 H 0.43939 0.16285 0.63774 0.0
H934 H 0.53244 0.18395 0.59474 0.0
H935 H 0.44204 0.27385 0.60816 0.0
C936 C 0.46114 0.30994 0.58867 0.0
C937 C 0.48568 0.31411 0.57629 0.0
C938 C 0.51198 0.17984 0.60411 0.0
C939 C 0.48472 0.24472 0.59618 0.0
C940 C 0.51187 0.14488 0.61364 0.0
C941 C 0.48584 0.13737 0.62592 0.0
C942 C 0.48566 0.20837 0.60668 0.0
C943 C 0.46009 0.16715 0.62839 0.0
C944 C 0.46043 0.27543 0.5986 0.0
C945 C 0.50869 0.28195 0.57406 0.0
N946 N 0.46068 0.20155 0.61878 0.0
N947 N 0.50793 0.2488 0.58396 0.0
H948 H 0.3075 0.52882 0.80093 0.0
H949 H 0.16752 0.42114 0.72906 0.0
H950 H 0.33579 0.42266 0.77645 0.0
H951 H 0.14426 0.52886 0.75447 0.0
H952 H 0.23025 0.42071 0.74589 0.0
H953 H 0.24585 0.52786 0.78383 0.0
C954 C 0.29937 0.50405 0.79212 0.0
C955 C 0.32533 0.47457 0.7902 0.0
C956 C 0.21124 0.44441 0.74769 0.0
C957 C 0.25636 0.47413 0.77042 0.0
C958 C 0.17568 0.44472 0.73808 0.0
C959 C 0.15042 0.4749 0.7404 0.0
C960 C 0.22092 0.47414 0.75961 0.0
C961 C 0.16244 0.50473 0.75225 0.0
C962 C 0.26483 0.50398 0.78226 0.0
C963 C 0.31526 0.44475 0.7784 0.0
N964 N 0.19643 0.50345 0.76136 0.0
N965 N 0.28156 0.44521 0.76896 0.0
H966 H 0.66726 0.18679 0.91766 0.0
H967 H 0.95626 0.31361 0.95227 0.0
H968 H 0.78378 0.14742 0.9036 0.0
H969 H 0.8476 0.36899 0.96057 0.0
H970 H 0.89748 0.25399 0.93497 0.0
H971 H 0.73184 0.25049 0.93342 0.0
C972 C 0.7065 0.19128 0.91779 0.0
C973 C 0.71861 0.16063 0.90891 0.0
C974 C 0.88604 0.27911 0.94046 0.0
C975 C 0.79539 0.23536 0.9279 0.0
C976 C 0.9213 0.31508 0.95022 0.0
C977 C 0.91063 0.35063 0.95757 0.0
C978 C 0.83615 0.27486 0.93827 0.0
C979 C 0.85974 0.34425 0.95518 0.0
C980 C 0.74387 0.22821 0.92696 0.0
C981 C 0.77133 0.16969 0.90994 0.0
N982 N 0.82506 0.3076 0.94604 0.0
N983 N 0.8069 0.2053 0.91919 0.0
H984 H 0.66739 0.92243 0.13432 0.0
H985 H 0.52131 0.74482 0.06949 0.0
H986 H 0.52618 0.90763 0.11599 0.0
H987 H 0.66501 0.75651 0.08506 0.0
H988 H 0.52462 0.80593 0.08681 0.0
H989 H 0.66827 0.86055 0.11722 0.0
C990 C 0.63639 0.90567 0.12686 0.0
C991 C 0.59665 0.92002 0.12657 0.0
C992 C 0.5558 0.79559 0.08649 0.0
C993 C 0.59783 0.85078 0.107 0.0
C994 C 0.55393 0.76087 0.07652 0.0
C995 C 0.59301 0.74611 0.07573 0.0
C996 C 0.59679 0.81527 0.09602 0.0
C997 C 0.63435 0.76757 0.0852 0.0
C998 C 0.63706 0.87086 0.11705 0.0
C999 C 0.55775 0.89786 0.11659 0.0
N1000 N 0.635 0.80089 0.09502 0.0
N1001 N 0.55939 0.86473 0.10727 0.0
H1002 H 0.81679 0.65558 0.29663 0.0
H1003 H 0.87201 0.5074 0.23533 0.0
H1004 H 0.70396 0.50303 0.28107 0.0
H1005 H 0.97121 0.67139 0.24343 0.0
H1006 H 0.81047 0.50495 0.2525 0.0
H1007 H 0.88036 0.6601 0.27943 0.0
C1008 C 0.80582 0.62274 0.28982 0.0
C1009 C 0.75508 0.57875 0.29033 0.0
C1010 C 0.847 0.54134 0.25099 0.0
C1011 C 0.82656 0.584 0.27053 0.0
C1012 C 0.88164 0.54285 0.24103 0.0
C1013 C 0.9292 0.589 0.23883 0.0
C1014 C 0.8614 0.58568 0.25932 0.0
C1015 C 0.93928 0.63385 0.2463 0.0
C1016 C 0.84172 0.6255 0.2799 0.0
C1017 C 0.7426 0.53773 0.28106 0.0
N1018 N 0.90677 0.63101 0.25651 0.0
N1019 N 0.77774 0.54136 0.2716 0.0
H1020 H 0.90314 0.37072 0.4226 0.0
H1021 H 0.60843 0.25456 0.44294 0.0
H1022 H 0.8174 0.45647 0.41971 0.0
H1023 H 0.6971 0.17242 0.44767 0.0
H1024 H 0.68872 0.3354 0.43817 0.0
H1025 H 0.82409 0.29279 0.42975 0.0
C1026 C 0.86653 0.3722 0.42266 0.0
C1027 C 0.86667 0.42077 0.42271 0.0
C1028 C 0.69104 0.30001 0.44062 0.0
C1029 C 0.77802 0.33417 0.43026 0.0
C1030 C 0.64545 0.25438 0.44396 0.0
C1031 C 0.64682 0.20674 0.44359 0.0
C1032 C 0.73652 0.29591 0.43838 0.0
C1033 C 0.69495 0.20852 0.44624 0.0
C1034 C 0.82205 0.32836 0.42732 0.0
C1035 C 0.81858 0.4199 0.42113 0.0
N1036 N 0.73893 0.25221 0.44238 0.0
N1037 N 0.7755 0.37764 0.42605 0.0
H1038 H 0.40749 0.78259 0.58342 0.0
H1039 H 0.53005 0.63466 0.62221 0.0
H1040 H 0.54719 0.8634 0.60782 0.0
H1041 H 0.37155 0.5612 0.60726 0.0
H1042 H 0.53592 0.72051 0.61962 0.0
H1043 H 0.405 0.69896 0.58861 0.0
C1044 C 0.43914 0.7827 0.58923 0.0
C1045 C 0.47592 0.82821 0.59572 0.0
C1046 C 0.49945 0.68549 0.61698 0.0
C1047 C 0.4704 0.73553 0.60277 0.0
C1048 C 0.49525 0.63631 0.61896 0.0
C1049 C 0.45292 0.59276 0.61289 0.0
C1050 C 0.4599 0.68787 0.60945 0.0
C1051 C 0.40701 0.59588 0.6106 0.0
C1052 C 0.43659 0.73532 0.59267 0.0
C1053 C 0.51726 0.8279 0.60297 0.0
N1054 N 0.41304 0.64375 0.60733 0.0
N1055 N 0.51164 0.78124 0.60706 0.0
H1056 H 0.61601 0.43902 0.73947 0.0
H1057 H 0.80087 0.40751 0.7841 0.0
H1058 H 0.63964 0.5145 0.77829 0.0
H1059 H 0.87968 0.52333 0.75275 0.0
H1060 H 0.72399 0.4211 0.78125 0.0
H1061 H 0.70485 0.44835 0.74146 0.0
C1062 C 0.6404 0.4586 0.74811 0.0
C1063 C 0.6209 0.47395 0.75891 0.0
C1064 C 0.75894 0.44342 0.77518 0.0
C1065 C 0.71549 0.47988 0.76169 0.0
C1066 C 0.80243 0.43699 0.77709 0.0
C1067 C 0.84527 0.46424 0.76866 0.0
C1068 C 0.75965 0.47533 0.76452 0.0
C1069 C 0.84665 0.50193 0.75944 0.0
C1070 C 0.68958 0.46284 0.74937 0.0
C1071 C 0.6533 0.50038 0.76998 0.0
N1072 N 0.80283 0.50479 0.75716 0.0
N1073 N 0.69853 0.49973 0.77148 0.0
H1074 H 0.40735 0.88115 0.95426 0.0
H1075 H 0.25381 0.6273 0.91232 0.0
H1076 H 0.47804 0.79909 0.9349 0.0
H1077 H 0.179 0.69241 0.93738 0.0
H1078 H 0.33911 0.70122 0.9183 0.0
H1079 H 0.32273 0.80218 0.95323 0.0
C1080 C 0.40562 0.84557 0.95023 0.0
C1081 C 0.44595 0.84767 0.94212 0.0
C1082 C 0.30379 0.69917 0.92251 0.0
C1083 C 0.35271 0.76073 0.94074 0.0
C1084 C 0.25543 0.65871 0.91856 0.0
C1085 C 0.21124 0.65215 0.92551 0.0
C1086 C 0.30516 0.7304 0.93343 0.0
C1087 C 0.21384 0.69516 0.93265 0.0
C1088 C 0.35689 0.80095 0.94929 0.0
C1089 C 0.44434 0.79951 0.93941 0.0
N1090 N 0.26095 0.73083 0.93753 0.0
N1091 N 0.39634 0.75799 0.93708 0.0
H1092 H 0.56904 0.20911 0.1182 0.0
H1093 H 0.54537 0.42497 0.09189 0.0
H1094 H 0.64674 0.25954 0.0797 0.0
H1095 H 0.64954 0.46724 0.12622 0.0
H1096 H 0.56237 0.35279 0.08697 0.0
H1097 H 0.57871 0.29565 0.12167 0.0
C1098 C 0.58597 0.23797 0.1102 0.0
C1099 C 0.61012 0.22963 0.09893 0.0
C1100 C 0.58087 0.37792 0.09562 0.0
C1101 C 0.61697 0.32452 0.10243 0.0
C1102 C 0.56913 0.41675 0.0989 0.0
C1103 C 0.59869 0.4527 0.10912 0.0
C1104 C 0.61509 0.37086 0.10397 0.0
C1105 C 0.62773 0.44061 0.11811 0.0
C1106 C 0.59307 0.28721 0.11244 0.0
C1107 C 0.62951 0.26633 0.0886 0.0
N1108 N 0.63522 0.39932 0.11536 0.0
N1109 N 0.63185 0.31347 0.09049 0.0
H1110 H 0.4245 0.52266 0.25008 0.0
H1111 H 0.29868 0.68929 0.27755 0.0
H1112 H 0.5057 0.69234 0.253 0.0
H1113 H 0.21114 0.5215 0.27027 0.0
H1114 H 0.37909 0.68848 0.27148 0.0
H1115 H 0.34225 0.52111 0.25481 0.0
C1116 C 0.42463 0.56013 0.25095 0.0
C1117 C 0.47167 0.60755 0.25285 0.0
C1118 C 0.34231 0.65154 0.27147 0.0
C1119 C 0.38035 0.60615 0.25849 0.0
C1120 C 0.29705 0.65166 0.27557 0.0
C1121 C 0.24895 0.60644 0.27327 0.0
C1122 C 0.33771 0.60504 0.26587 0.0
C1123 C 0.24804 0.55801 0.27128 0.0
C1124 C 0.37796 0.55897 0.2542 0.0
C1125 C 0.46966 0.65478 0.25259 0.0
N1126 N 0.29195 0.55886 0.26674 0.0
N1127 N 0.42475 0.65316 0.25669 0.0
loop_
_geom_bond_atom_site_label_1
_geom_bond_atom_site_label_2
_geom_bond_distance
_geom_bond_site_symmetry_2
_ccdc_geom_bond_type
C0 Eu1 2.835 . S
C0 C2 1.500 . S
C0 O20 1.257 . S
C0 O21 1.260 . S
Eu1 C0 2.835 . S
Eu1 O20 2.473 . S
Eu1 O21 2.480 . S
Eu1 O22 2.430 1_565 S
Eu1 O23 2.670 1_565 S
Eu1 O24 2.394 . S
Eu1 O29 2.355 . S
Eu1 O31 2.374 1_565 S
C2 C0 1.500 . S
C2 C3 1.377 . S
C2 C7 1.377 . S
C3 C2 1.377 . S
C3 C4 1.395 . S
C3 H32 0.931 . S
C4 C3 1.395 . S
C4 C5 1.383 . S
C4 H33 0.931 . S
C5 C4 1.383 . S
C5 C6 1.394 . S
C6 C5 1.394 . S
C6 C7 1.378 . S
C6 H34 0.931 . S
C7 C2 1.377 . S
C7 C6 1.378 . S
C7 H35 0.931 . S
C8 O22 1.259 . S
C8 O23 1.270 . S
C9 O24 1.251 . S
C9 O25 1.251 . S
C10 Eu11 2.835 . S
C10 C12 1.500 . S
C10 O26 1.257 . S
C10 O27 1.260 . S
Eu11 C10 2.835 . S
Eu11 O23 2.355 . S
Eu11 O25 2.374 1_545 S
Eu11 O26 2.473 . S
Eu11 O27 2.480 . S
Eu11 O28 2.430 1_545 S
Eu11 O29 2.670 1_545 S
Eu11 O30 2.394 . S
C12 C10 1.500 . S
C12 C13 1.377 . S
C12 C17 1.377 . S
C13 C12 1.377 . S
C13 C14 1.395 . S
C13 H36 0.931 . S
C14 C13 1.395 . S
C14 C15 1.383 . S
C14 H37 0.931 . S
C15 C14 1.383 . S
C15 C16 1.394 . S
C16 C15 1.394 . S
C16 C17 1.378 . S
C16 H38 0.931 . S
C17 C12 1.377 . S
C17 C16 1.378 . S
C17 H39 0.931 . S
C18 O28 1.259 . S
C18 O29 1.270 . S
C19 O30 1.251 . S
C19 O31 1.251 . S
O20 C0 1.257 . S
O20 Eu1 2.473 . S
O21 C0 1.260 . S
O21 Eu1 2.480 . S
O22 Eu1 2.430 1_545 S
O22 C8 1.259 . S
O23 Eu1 2.670 1_545 S
O23 C8 1.270 . S
O23 Eu11 2.355 . S
O24 Eu1 2.394 . S
O24 C9 1.251 . S
O25 C9 1.251 . S
O25 Eu11 2.374 1_565 S
O26 C10 1.257 . S
O26 Eu11 2.473 . S
O27 C10 1.260 . S
O27 Eu11 2.480 . S
O28 Eu11 2.430 1_565 S
O28 C18 1.259 . S
O29 Eu1 2.355 . S
O29 Eu11 2.670 1_565 S
O29 C18 1.270 . S
O30 Eu11 2.394 . S
O30 C19 1.251 . S
O31 Eu1 2.374 1_545 S
O31 C19 1.251 . S
H32 C3 0.931 . S
H33 C4 0.931 . S
H34 C6 0.931 . S
H35 C7 0.931 . S
H36 C13 0.931 . S
H37 C14 0.931 . S
H38 C16 0.931 . S
H39 C17 0.931 . S
C40 Eu41 2.835 . S
C40 C42 1.500 . S
C40 O60 1.257 . S
C40 O61 1.260 . S
Eu41 C40 2.835 . S
Eu41 O60 2.473 . S
Eu41 O61 2.480 . S
Eu41 O62 2.430 . S
Eu41 O63 2.670 . S
Eu41 O64 2.394 . S
Eu41 O69 2.355 . S
Eu41 O71 2.374 . S
C42 C40 1.500 . S
C42 C43 1.377 . S
C42 C47 1.377 . S
C43 C42 1.377 . S
C43 C44 1.395 . S
C43 H72 0.931 . S
C44 C43 1.395 . S
C44 C45 1.383 . S
C44 H73 0.931 . S
C45 C44 1.383 . S
C45 C46 1.394 . S
C46 C45 1.394 . S
C46 C47 1.378 . S
C46 H74 0.931 . S
C47 C42 1.377 . S
C47 C46 1.378 . S
C47 H75 0.931 . S
C48 O62 1.259 . S
C48 O63 1.270 . S
C49 O64 1.251 . S
C49 O65 1.251 . S
C50 Eu51 2.835 . S
C50 C52 1.500 . S
C50 O66 1.257 . S
C50 O67 1.260 . S
Eu51 C50 2.835 . S
Eu51 O63 2.355 . S
Eu51 O65 2.374 . S
Eu51 O66 2.473 . S
Eu51 O67 2.480 . S
Eu51 O68 2.430 . S
Eu51 O69 2.670 . S
Eu51 O70 2.394 . S
C52 C50 1.500 . S
C52 C53 1.377 . S
C52 C57 1.377 . S
C53 C52 1.377 . S
C53 C54 1.395 . S
C53 H76 0.931 . S
C54 C53 1.395 . S
C54 C55 1.383 . S
C54 H77 0.931 . S
C55 C54 1.383 . S
C55 C56 1.394 . S
C56 C55 1.394 . S
C56 C57 1.378 . S
C56 H78 0.931 . S
C57 C52 1.377 . S
C57 C56 1.378 . S
C57 H79 0.931 . S
C58 O68 1.259 . S
C58 O69 1.270 . S
C59 O70 1.251 . S
C59 O71 1.251 . S
O60 C40 1.257 . S
O60 Eu41 2.473 . S
O61 C40 1.260 . S
O61 Eu41 2.480 . S
O62 Eu41 2.430 . S
O62 C48 1.259 . S
O63 Eu41 2.670 . S
O63 C48 1.270 . S
O63 Eu51 2.355 . S
O64 Eu41 2.394 . S
O64 C49 1.251 . S
O65 C49 1.251 . S
O65 Eu51 2.374 . S
O66 C50 1.257 . S
O66 Eu51 2.473 . S
O67 C50 1.260 . S
O67 Eu51 2.480 . S
O68 Eu51 2.430 . S
O68 C58 1.259 . S
O69 Eu41 2.355 . S
O69 Eu51 2.670 . S
O69 C58 1.270 . S
O70 Eu51 2.394 . S
O70 C59 1.251 . S
O71 Eu41 2.374 . S
O71 C59 1.251 . S
H72 C43 0.931 . S
H73 C44 0.931 . S
H74 C46 0.931 . S
H75 C47 0.931 . S
H76 C53 0.931 . S
H77 C54 0.931 . S
H78 C56 0.931 . S
H79 C57 0.931 . S
C80 Eu81 2.835 . S
C80 C82 1.500 . S
C80 O100 1.257 . S
C80 O101 1.260 . S
Eu81 C80 2.835 . S
Eu81 O100 2.473 . S
Eu81 O101 2.480 . S
Eu81 O102 2.430 1_455 S
Eu81 O103 2.670 1_455 S
Eu81 O104 2.394 . S
Eu81 O109 2.355 . S
Eu81 O111 2.374 1_455 S
C82 C80 1.500 . S
C82 C83 1.377 . S
C82 C87 1.377 . S
C83 C82 1.377 . S
C83 C84 1.395 . S
C83 H112 0.931 . S
C84 C83 1.395 . S
C84 C85 1.383 . S
C84 H113 0.931 . S
C85 C84 1.383 . S
C85 C86 1.394 . S
C86 C85 1.394 . S
C86 C87 1.378 . S
C86 H114 0.931 . S
C87 C82 1.377 . S
C87 C86 1.378 . S
C87 H115 0.931 . S
C88 O102 1.259 . S
C88 O103 1.270 . S
C89 O104 1.251 . S
C89 O105 1.251 . S
C90 Eu91 2.835 . S
C90 C92 1.500 . S
C90 O106 1.257 . S
C90 O107 1.260 . S
Eu91 C90 2.835 . S
Eu91 O103 2.355 . S
Eu91 O105 2.374 1_655 S
Eu91 O106 2.473 . S
Eu91 O107 2.480 . S
Eu91 O108 2.430 1_655 S
Eu91 O109 2.670 1_655 S
Eu91 O110 2.394 . S
C92 C90 1.500 . S
C92 C93 1.377 . S
C92 C97 1.377 . S
C93 C92 1.377 . S
C93 C94 1.395 . S
C93 H116 0.931 . S
C94 C93 1.395 . S
C94 C95 1.383 . S
C94 H117 0.931 . S
C95 C94 1.383 . S
C95 C96 1.394 . S
C96 C95 1.394 . S
C96 C97 1.378 . S
C96 H118 0.931 . S
C97 C92 1.377 . S
C97 C96 1.378 . S
C97 H119 0.931 . S
C98 O108 1.259 . S
C98 O109 1.270 . S
C99 O110 1.251 . S
C99 O111 1.251 . S
O100 C80 1.257 . S
O100 Eu81 2.473 . S
O101 C80 1.260 . S
O101 Eu81 2.480 . S
O102 Eu81 2.430 1_655 S
O102 C88 1.259 . S
O103 Eu81 2.670 1_655 S
O103 C88 1.270 . S
O103 Eu91 2.355 . S
O104 Eu81 2.394 . S
O104 C89 1.251 . S
O105 C89 1.251 . S
O105 Eu91 2.374 1_455 S
O106 C90 1.257 . S
O106 Eu91 2.473 . S
O107 C90 1.260 . S
O107 Eu91 2.480 . S
O108 Eu91 2.430 1_455 S
O108 C98 1.259 . S
O109 Eu81 2.355 . S
O109 Eu91 2.670 1_455 S
O109 C98 1.270 . S
O110 Eu91 2.394 . S
O110 C99 1.251 . S
O111 Eu81 2.374 1_655 S
O111 C99 1.251 . S
H112 C83 0.931 . S
H113 C84 0.931 . S
H114 C86 0.931 . S
H115 C87 0.931 . S
H116 C93 0.931 . S
H117 C94 0.931 . S
H118 C96 0.931 . S
H119 C97 0.931 . S
C120 Eu121 2.835 . S
C120 C122 1.500 . S
C120 O140 1.257 . S
C120 O141 1.260 . S
Eu121 C120 2.835 . S
Eu121 O140 2.473 . S
Eu121 O141 2.480 . S
Eu121 O142 2.430 1_545 S
Eu121 O143 2.670 1_545 S
Eu121 O144 2.394 . S
Eu121 O149 2.355 . S
Eu121 O151 2.374 1_545 S
C122 C120 1.500 . S
C122 C123 1.377 . S
C122 C127 1.377 . S
C123 C122 1.377 . S
C123 C124 1.395 . S
C123 H152 0.931 . S
C124 C123 1.395 . S
C124 C125 1.383 . S
C124 H153 0.931 . S
C125 C124 1.383 . S
C125 C126 1.394 . S
C126 C125 1.394 . S
C126 C127 1.378 . S
C126 H154 0.931 . S
C127 C122 1.377 . S
C127 C126 1.378 . S
C127 H155 0.931 . S
C128 O142 1.259 . S
C128 O143 1.270 . S
C129 O144 1.251 . S
C129 O145 1.251 . S
C130 Eu131 2.835 . S
C130 C132 1.500 . S
C130 O146 1.257 . S
C130 O147 1.260 . S
Eu131 C130 2.835 . S
Eu131 O143 2.355 . S
Eu131 O145 2.374 1_565 S
Eu131 O146 2.473 . S
Eu131 O147 2.480 . S
Eu131 O148 2.430 1_565 S
Eu131 O149 2.670 1_565 S
Eu131 O150 2.394 . S
C132 C130 1.500 . S
C132 C133 1.377 . S
C132 C137 1.377 . S
C133 C132 1.377 . S
C133 C134 1.395 . S
C133 H156 0.931 . S
C134 C133 1.395 . S
C134 C135 1.383 . S
C134 H157 0.931 . S
C135 C134 1.383 . S
C135 C136 1.394 . S
C136 C135 1.394 . S
C136 C137 1.378 . S
C136 H158 0.931 . S
C137 C132 1.377 . S
C137 C136 1.378 . S
C137 H159 0.931 . S
C138 O148 1.259 . S
C138 O149 1.270 . S
C139 O150 1.251 . S
C139 O151 1.251 . S
O140 C120 1.257 . S
O140 Eu121 2.473 . S
O141 C120 1.260 . S
O141 Eu121 2.480 . S
O142 Eu121 2.430 1_565 S
O142 C128 1.259 . S
O143 Eu121 2.670 1_565 S
O143 C128 1.270 . S
O143 Eu131 2.355 . S
O144 Eu121 2.394 . S
O144 C129 1.251 . S
O145 C129 1.251 . S
O145 Eu131 2.374 1_545 S
O146 C130 1.257 . S
O146 Eu131 2.473 . S
O147 C130 1.260 . S
O147 Eu131 2.480 . S
O148 Eu131 2.430 1_545 S
O148 C138 1.259 . S
O149 Eu121 2.355 . S
O149 Eu131 2.670 1_545 S
O149 C138 1.270 . S
O150 Eu131 2.394 . S
O150 C139 1.251 . S
O151 Eu121 2.374 1_565 S
O151 C139 1.251 . S
H152 C123 0.931 . S
H153 C124 0.931 . S
H154 C126 0.931 . S
H155 C127 0.931 . S
H156 C133 0.931 . S
H157 C134 0.931 . S
H158 C136 0.931 . S
H159 C137 0.931 . S
C160 Eu161 2.835 1_556 S
C160 C162 1.500 . S
C160 O180 1.257 1_556 S
C160 O181 1.260 . S
Eu161 C160 2.835 1_554 S
Eu161 O180 2.473 . S
Eu161 O181 2.480 1_554 S
Eu161 O182 2.461 . S
Eu161 O183 2.670 . S
Eu161 O184 2.394 . S
Eu161 O189 2.355 . S
Eu161 O191 2.374 . S
C162 C160 1.500 . S
C162 C163 1.377 . S
C162 C167 1.377 . S
C163 C162 1.377 . S
C163 C164 1.395 . S
C163 H192 0.931 . S
C164 C163 1.395 . S
C164 C165 1.383 . S
C164 H193 0.931 . S
C165 C164 1.383 . S
C165 C166 1.394 . S
C166 C165 1.394 . S
C166 C167 1.378 . S
C166 H194 0.931 . S
C167 C162 1.377 . S
C167 C166 1.378 . S
C167 H195 0.931 . S
C168 O182 1.292 . S
C168 O183 1.270 . S
C169 O184 1.251 . S
C169 O185 1.251 . S
C170 Eu171 2.835 . S
C170 C172 1.500 . S
C170 O186 1.257 . S
C170 O187 1.260 . S
Eu171 C170 2.835 . S
Eu171 O183 2.355 . S
Eu171 O185 2.374 . S
Eu171 O186 2.473 . S
Eu171 O187 2.480 . S
Eu171 O188 2.430 . S
Eu171 O189 2.670 . S
Eu171 O190 2.394 . S
C172 C170 1.500 . S
C172 C173 1.377 . S
C172 C177 1.377 . S
C173 C172 1.377 . S
C173 C174 1.395 . S
C173 H196 0.931 . S
C174 C173 1.395 . S
C174 C175 1.383 . S
C174 H197 0.931 . S
C175 C174 1.383 . S
C175 C176 1.394 . S
C176 C175 1.394 . S
C176 C177 1.378 . S
C176 H198 0.931 . S
C177 C172 1.377 . S
C177 C176 1.378 . S
C177 H199 0.931 . S
C178 O188 1.259 . S
C178 O189 1.270 . S
C179 O190 1.251 . S
C179 O191 1.251 . S
O180 C160 1.257 1_554 S
O180 Eu161 2.473 . S
O181 C160 1.260 . S
O181 Eu161 2.480 1_556 S
O182 Eu161 2.461 . S
O182 C168 1.292 . S
O183 Eu161 2.670 . S
O183 C168 1.270 . S
O183 Eu171 2.355 . S
O184 Eu161 2.394 . S
O184 C169 1.251 . S
O185 C169 1.251 . S
O185 Eu171 2.374 . S
O186 C170 1.257 . S
O186 Eu171 2.473 . S
O187 C170 1.260 . S
O187 Eu171 2.480 . S
O188 Eu171 2.430 . S
O188 C178 1.259 . S
O189 Eu161 2.355 . S
O189 Eu171 2.670 . S
O189 C178 1.270 . S
O190 Eu171 2.394 . S
O190 C179 1.251 . S
O191 Eu161 2.374 . S
O191 C179 1.251 . S
H192 C163 0.931 . S
H193 C164 0.931 . S
H194 C166 0.931 . S
H195 C167 0.931 . S
H196 C173 0.931 . S
H197 C174 0.931 . S
H198 C176 0.931 . S
H199 C177 0.931 . S
C200 Eu201 2.835 . S
C200 C202 1.500 . S
C200 O220 1.257 . S
C200 O221 1.260 . S
Eu201 C200 2.835 . S
Eu201 O220 2.473 . S
Eu201 O221 2.480 . S
Eu201 O222 2.430 1_655 S
Eu201 O223 2.670 1_655 S
Eu201 O224 2.394 . S
Eu201 O229 2.355 . S
Eu201 O231 2.374 1_655 S
C202 C200 1.500 . S
C202 C203 1.377 . S
C202 C207 1.377 . S
C203 C202 1.377 . S
C203 C204 1.395 . S
C203 H232 0.931 . S
C204 C203 1.395 . S
C204 C205 1.383 . S
C204 H233 0.931 . S
C205 C204 1.383 . S
C205 C206 1.394 . S
C206 C205 1.394 . S
C206 C207 1.378 . S
C206 H234 0.931 . S
C207 C202 1.377 . S
C207 C206 1.378 . S
C207 H235 0.931 . S
C208 O222 1.259 . S
C208 O223 1.270 . S
C209 O224 1.251 . S
C209 O225 1.251 . S
C210 Eu211 2.835 . S
C210 C212 1.500 . S
C210 O226 1.257 . S
C210 O227 1.260 . S
Eu211 C210 2.835 . S
Eu211 O223 2.355 . S
Eu211 O225 2.374 1_455 S
Eu211 O226 2.473 . S
Eu211 O227 2.480 . S
Eu211 O228 2.430 1_455 S
Eu211 O229 2.670 1_455 S
Eu211 O230 2.394 . S
C212 C210 1.500 . S
C212 C213 1.377 . S
C212 C217 1.377 . S
C213 C212 1.377 . S
C213 C214 1.395 . S
C213 H236 0.931 . S
C214 C213 1.395 . S
C214 C215 1.383 . S
C214 H237 0.931 . S
C215 C214 1.383 . S
C215 C216 1.394 . S
C216 C215 1.394 . S
C216 C217 1.378 . S
C216 H238 0.931 . S
C217 C212 1.377 . S
C217 C216 1.378 . S
C217 H239 0.931 . S
C218 O228 1.259 . S
C218 O229 1.270 . S
C219 O230 1.251 . S
C219 O231 1.251 . S
O220 C200 1.257 . S
O220 Eu201 2.473 . S
O221 C200 1.260 . S
O221 Eu201 2.480 . S
O222 Eu201 2.430 1_455 S
O222 C208 1.259 . S
O223 Eu201 2.670 1_455 S
O223 C208 1.270 . S
O223 Eu211 2.355 . S
O224 Eu201 2.394 . S
O224 C209 1.251 . S
O225 C209 1.251 . S
O225 Eu211 2.374 1_655 S
O226 C210 1.257 . S
O226 Eu211 2.473 . S
O227 C210 1.260 . S
O227 Eu211 2.480 . S
O228 Eu211 2.430 1_655 S
O228 C218 1.259 . S
O229 Eu201 2.355 . S
O229 Eu211 2.670 1_655 S
O229 C218 1.270 . S
O230 Eu211 2.394 . S
O230 C219 1.251 . S
O231 Eu201 2.374 1_455 S
O231 C219 1.251 . S
H232 C203 0.931 . S
H233 C204 0.931 . S
H234 C206 0.931 . S
H235 C207 0.931 . S
H236 C213 0.931 . S
H237 C214 0.931 . S
H238 C216 0.931 . S
H239 C217 0.931 . S
C240 Eu241 2.835 . S
C240 C242 1.500 . S
C240 O260 1.257 . S
C240 O261 1.260 . S
Eu241 C240 2.835 . S
Eu241 O260 2.473 . S
Eu241 O261 2.480 . S
Eu241 O262 2.430 1_455 S
Eu241 O263 2.670 1_455 S
Eu241 O264 2.394 . S
Eu241 O269 2.355 . S
Eu241 O271 2.374 1_455 S
C242 C240 1.500 . S
C242 C243 1.377 . S
C242 C247 1.377 . S
C243 C242 1.377 . S
C243 C244 1.395 . S
C243 H272 0.931 . S
C244 C243 1.395 . S
C244 C245 1.383 . S
C244 H273 0.931 . S
C245 C244 1.383 . S
C245 C246 1.394 . S
C246 C245 1.394 . S
C246 C247 1.378 . S
C246 H274 0.931 . S
C247 C242 1.377 . S
C247 C246 1.378 . S
C247 H275 0.931 . S
C248 O262 1.259 . S
C248 O263 1.270 . S
C249 O264 1.251 . S
C249 O265 1.251 . S
C250 Eu251 2.835 . S
C250 C252 1.500 . S
C250 O266 1.257 . S
C250 O267 1.260 . S
Eu251 C250 2.835 . S
Eu251 O263 2.355 . S
Eu251 O265 2.374 1_655 S
Eu251 O266 2.473 . S
Eu251 O267 2.480 . S
Eu251 O268 2.430 1_655 S
Eu251 O269 2.670 1_655 S
Eu251 O270 2.394 . S
C252 C250 1.500 . S
C252 C253 1.377 . S
C252 C257 1.377 . S
C253 C252 1.377 . S
C253 C254 1.395 . S
C253 H276 0.931 . S
C254 C253 1.395 . S
C254 C255 1.383 . S
C254 H277 0.931 . S
C255 C254 1.383 . S
C255 C256 1.394 . S
C256 C255 1.394 . S
C256 C257 1.378 . S
C256 H278 0.931 . S
C257 C252 1.377 . S
C257 C256 1.378 . S
C257 H279 0.931 . S
C258 O268 1.259 . S
C258 O269 1.270 . S
C259 O270 1.251 . S
C259 O271 1.251 . S
O260 C240 1.257 . S
O260 Eu241 2.473 . S
O261 C240 1.260 . S
O261 Eu241 2.480 . S
O262 Eu241 2.430 1_655 S
O262 C248 1.259 . S
O263 Eu241 2.670 1_655 S
O263 C248 1.270 . S
O263 Eu251 2.355 . S
O264 Eu241 2.394 . S
O264 C249 1.251 . S
O265 C249 1.251 . S
O265 Eu251 2.374 1_455 S
O266 C250 1.257 . S
O266 Eu251 2.473 . S
O267 C250 1.260 . S
O267 Eu251 2.480 . S
O268 Eu251 2.430 1_455 S
O268 C258 1.259 . S
O269 Eu241 2.355 . S
O269 Eu251 2.670 1_455 S
O269 C258 1.270 . S
O270 Eu251 2.394 . S
O270 C259 1.251 . S
O271 Eu241 2.374 1_655 S
O271 C259 1.251 . S
H272 C243 0.931 . S
H273 C244 0.931 . S
H274 C246 0.931 . S
H275 C247 0.931 . S
H276 C253 0.931 . S
H277 C254 0.931 . S
H278 C256 0.931 . S
H279 C257 0.931 . S
C280 Eu281 2.835 . S
C280 C282 1.500 . S
C280 O300 1.257 . S
C280 O301 1.260 . S
Eu281 C280 2.835 . S
Eu281 O300 2.473 . S
Eu281 O301 2.480 . S
Eu281 O302 2.430 1_545 S
Eu281 O303 2.670 1_545 S
Eu281 O304 2.394 . S
Eu281 O309 2.355 . S
Eu281 O311 2.374 1_545 S
C282 C280 1.500 . S
C282 C283 1.377 . S
C282 C287 1.377 . S
C283 C282 1.377 . S
C283 C284 1.395 . S
C283 H312 0.931 . S
C284 C283 1.395 . S
C284 C285 1.383 . S
C284 H313 0.931 . S
C285 C284 1.383 . S
C285 C286 1.394 . S
C286 C285 1.394 . S
C286 C287 1.378 . S
C286 H314 0.931 . S
C287 C282 1.377 . S
C287 C286 1.378 . S
C287 H315 0.931 . S
C288 O302 1.259 . S
C288 O303 1.270 . S
C289 O304 1.251 . S
C289 O305 1.251 . S
C290 Eu291 2.835 . S
C290 C292 1.500 . S
C290 O306 1.257 . S
C290 O307 1.260 . S
Eu291 C290 2.835 . S
Eu291 O303 2.355 . S
Eu291 O305 2.374 1_565 S
Eu291 O306 2.473 . S
Eu291 O307 2.480 . S
Eu291 O308 2.430 1_565 S
Eu291 O309 2.670 1_565 S
Eu291 O310 2.394 . S
C292 C290 1.500 . S
C292 C293 1.377 . S
C292 C297 1.377 . S
C293 C292 1.377 . S
C293 C294 1.395 . S
C293 H316 0.931 . S
C294 C293 1.395 . S
C294 C295 1.383 . S
C294 H317 0.931 . S
C295 C294 1.383 . S
C295 C296 1.394 . S
C296 C295 1.394 . S
C296 C297 1.378 . S
C296 H318 0.931 . S
C297 C292 1.377 . S
C297 C296 1.378 . S
C297 H319 0.931 . S
C298 O308 1.259 . S
C298 O309 1.270 . S
C299 O310 1.251 . S
C299 O311 1.251 . S
O300 C280 1.257 . S
O300 Eu281 2.473 . S
O301 C280 1.260 . S
O301 Eu281 2.480 . S
O302 Eu281 2.430 1_565 S
O302 C288 1.259 . S
O303 Eu281 2.670 1_565 S
O303 C288 1.270 . S
O303 Eu291 2.355 . S
O304 Eu281 2.394 . S
O304 C289 1.251 . S
O305 C289 1.251 . S
O305 Eu291 2.374 1_545 S
O306 C290 1.257 . S
O306 Eu291 2.473 . S
O307 C290 1.260 . S
O307 Eu291 2.480 . S
O308 Eu291 2.430 1_545 S
O308 C298 1.259 . S
O309 Eu281 2.355 . S
O309 Eu291 2.670 1_545 S
O309 C298 1.270 . S
O310 Eu291 2.394 . S
O310 C299 1.251 . S
O311 Eu281 2.374 1_565 S
O311 C299 1.251 . S
H312 C283 0.931 . S
H313 C284 0.931 . S
H314 C286 0.931 . S
H315 C287 0.931 . S
H316 C293 0.931 . S
H317 C294 0.931 . S
H318 C296 0.931 . S
H319 C297 0.931 . S
C320 Eu321 2.835 . S
C320 C322 1.500 . S
C320 O340 1.257 . S
C320 O341 1.260 . S
Eu321 C320 2.835 . S
Eu321 O340 2.473 . S
Eu321 O341 2.480 . S
Eu321 O342 2.430 . S
Eu321 O343 2.670 . S
Eu321 O344 2.394 . S
Eu321 O349 2.355 . S
Eu321 O351 2.374 . S
C322 C320 1.500 . S
C322 C323 1.377 . S
C322 C327 1.377 . S
C323 C322 1.377 . S
C323 C324 1.395 . S
C323 H352 0.931 . S
C324 C323 1.395 . S
C324 C325 1.383 . S
C324 H353 0.931 . S
C325 C324 1.383 . S
C325 C326 1.394 . S
C326 C325 1.394 . S
C326 C327 1.378 . S
C326 H354 0.931 . S
C327 C322 1.377 . S
C327 C326 1.378 . S
C327 H355 0.931 . S
C328 O342 1.259 . S
C328 O343 1.270 . S
C329 O344 1.251 . S
C329 O345 1.251 . S
C330 Eu331 2.835 . S
C330 C332 1.500 . S
C330 O346 1.257 . S
C330 O347 1.260 . S
Eu331 C330 2.835 . S
Eu331 O343 2.355 . S
Eu331 O345 2.374 . S
Eu331 O346 2.473 . S
Eu331 O347 2.480 . S
Eu331 O348 2.430 . S
Eu331 O349 2.670 . S
Eu331 O350 2.394 . S
C332 C330 1.500 . S
C332 C333 1.377 . S
C332 C337 1.377 . S
C333 C332 1.377 . S
C333 C334 1.395 . S
C333 H356 0.931 . S
C334 C333 1.395 . S
C334 C335 1.383 . S
C334 H357 0.931 . S
C335 C334 1.383 . S
C335 C336 1.394 . S
C336 C335 1.394 . S
C336 C337 1.378 . S
C336 H358 0.931 . S
C337 C332 1.377 . S
C337 C336 1.378 . S
C337 H359 0.931 . S
C338 O348 1.259 . S
C338 O349 1.270 . S
C339 O350 1.251 . S
C339 O351 1.251 . S
O340 C320 1.257 . S
O340 Eu321 2.473 . S
O341 C320 1.260 . S
O341 Eu321 2.480 . S
O342 Eu321 2.430 . S
O342 C328 1.259 . S
O343 Eu321 2.670 . S
O343 C328 1.270 . S
O343 Eu331 2.355 . S
O344 Eu321 2.394 . S
O344 C329 1.251 . S
O345 C329 1.251 . S
O345 Eu331 2.374 . S
O346 C330 1.257 . S
O346 Eu331 2.473 . S
O347 C330 1.260 . S
O347 Eu331 2.480 . S
O348 Eu331 2.430 . S
O348 C338 1.259 . S
O349 Eu321 2.355 . S
O349 Eu331 2.670 . S
O349 C338 1.270 . S
O350 Eu331 2.394 . S
O350 C339 1.251 . S
O351 Eu321 2.374 . S
O351 C339 1.251 . S
H352 C323 0.931 . S
H353 C324 0.931 . S
H354 C326 0.931 . S
H355 C327 0.931 . S
H356 C333 0.931 . S
H357 C334 0.931 . S
H358 C336 0.931 . S
H359 C337 0.931 . S
C360 Eu361 2.835 . S
C360 C362 1.500 1_556 S
C360 O380 1.257 . S
C360 O381 1.260 . S
Eu361 C360 2.835 . S
Eu361 O380 2.473 . S
Eu361 O381 2.480 . S
Eu361 O382 2.430 1_655 S
Eu361 O383 2.670 1_655 S
Eu361 O384 2.394 . S
Eu361 O389 2.355 . S
Eu361 O391 2.374 1_655 S
C362 C360 1.500 1_554 S
C362 C363 1.377 . S
C362 C367 1.372 1_554 S
C363 C362 1.377 . S
C363 C364 1.395 . S
C363 H392 0.931 . S
C364 C363 1.395 . S
C364 C365 1.383 . S
C364 H393 0.931 . S
C365 C364 1.383 . S
C365 C366 1.394 . S
C366 C365 1.394 . S
C366 C367 1.358 1_554 S
C366 H394 0.931 . S
C367 C362 1.372 1_556 S
C367 C366 1.358 1_556 S
C367 H395 0.957 . S
C368 O382 1.259 . S
C368 O383 1.270 . S
C369 O384 1.251 . S
C369 O385 1.251 . S
C370 Eu371 2.835 . S
C370 C372 1.500 . S
C370 O386 1.257 . S
C370 O387 1.260 . S
Eu371 C370 2.835 . S
Eu371 O383 2.355 . S
Eu371 O385 2.374 1_455 S
Eu371 O386 2.473 . S
Eu371 O387 2.480 . S
Eu371 O388 2.430 1_455 S
Eu371 O389 2.670 1_455 S
Eu371 O390 2.394 . S
C372 C370 1.500 . S
C372 C373 1.377 . S
C372 C377 1.377 . S
C373 C372 1.377 . S
C373 C374 1.395 . S
C373 H396 0.931 . S
C374 C373 1.395 . S
C374 C375 1.383 . S
C374 H397 0.931 . S
C375 C374 1.383 . S
C375 C376 1.394 . S
C376 C375 1.394 . S
C376 C377 1.378 . S
C376 H398 0.931 . S
C377 C372 1.377 . S
C377 C376 1.378 . S
C377 H399 0.931 . S
C378 O388 1.259 . S
C378 O389 1.270 . S
C379 O390 1.251 . S
C379 O391 1.251 . S
O380 C360 1.257 . S
O380 Eu361 2.473 . S
O381 C360 1.260 . S
O381 Eu361 2.480 . S
O382 Eu361 2.430 1_455 S
O382 C368 1.259 . S
O383 Eu361 2.670 1_455 S
O383 C368 1.270 . S
O383 Eu371 2.355 . S
O384 Eu361 2.394 . S
O384 C369 1.251 . S
O385 C369 1.251 . S
O385 Eu371 2.374 1_655 S
O386 C370 1.257 . S
O386 Eu371 2.473 . S
O387 C370 1.260 . S
O387 Eu371 2.480 . S
O388 Eu371 2.430 1_655 S
O388 C378 1.259 . S
O389 Eu361 2.355 . S
O389 Eu371 2.670 1_655 S
O389 C378 1.270 . S
O390 Eu371 2.394 . S
O390 C379 1.251 . S
O391 Eu361 2.374 1_455 S
O391 C379 1.251 . S
H392 C363 0.931 . S
H393 C364 0.931 . S
H394 C366 0.931 . S
H395 C367 0.957 . S
H396 C373 0.931 . S
H397 C374 0.931 . S
H398 C376 0.931 . S
H399 C377 0.931 . S
C400 Eu401 2.835 . S
C400 C402 1.500 . S
C400 O420 1.257 . S
C400 O421 1.260 . S
Eu401 C400 2.835 . S
Eu401 O420 2.473 . S
Eu401 O421 2.480 . S
Eu401 O422 2.430 1_565 S
Eu401 O423 2.670 1_565 S
Eu401 O424 2.394 . S
Eu401 O429 2.355 . S
Eu401 O431 2.374 1_565 S
C402 C400 1.500 . S
C402 C403 1.377 . S
C402 C407 1.377 . S
C403 C402 1.377 . S
C403 C404 1.395 . S
C403 H432 0.931 . S
C404 C403 1.395 . S
C404 C405 1.383 . S
C404 H433 0.931 . S
C405 C404 1.383 . S
C405 C406 1.394 . S
C406 C405 1.394 . S
C406 C407 1.378 . S
C406 H434 0.931 . S
C407 C402 1.377 . S
C407 C406 1.378 . S
C407 H435 0.931 . S
C408 O422 1.259 . S
C408 O423 1.270 . S
C409 O424 1.251 . S
C409 O425 1.251 . S
C410 Eu411 2.835 . S
C410 C412 1.500 . S
C410 O426 1.257 . S
C410 O427 1.260 . S
Eu411 C410 2.835 . S
Eu411 O423 2.355 . S
Eu411 O425 2.374 1_545 S
Eu411 O426 2.473 . S
Eu411 O427 2.480 . S
Eu411 O428 2.430 1_545 S
Eu411 O429 2.670 1_545 S
Eu411 O430 2.394 . S
C412 C410 1.500 . S
C412 C413 1.377 . S
C412 C417 1.377 . S
C413 C412 1.377 . S
C413 C414 1.395 . S
C413 H436 0.931 . S
C414 C413 1.395 . S
C414 C415 1.383 . S
C414 H437 0.931 . S
C415 C414 1.383 . S
C415 C416 1.394 . S
C416 C415 1.394 . S
C416 C417 1.378 . S
C416 H438 0.931 . S
C417 C412 1.377 . S
C417 C416 1.378 . S
C417 H439 0.931 . S
C418 O428 1.259 . S
C418 O429 1.270 . S
C419 O430 1.251 . S
C419 O431 1.251 . S
O420 C400 1.257 . S
O420 Eu401 2.473 . S
O421 C400 1.260 . S
O421 Eu401 2.480 . S
O422 Eu401 2.430 1_545 S
O422 C408 1.259 . S
O423 Eu401 2.670 1_545 S
O423 C408 1.270 . S
O423 Eu411 2.355 . S
O424 Eu401 2.394 . S
O424 C409 1.251 . S
O425 C409 1.251 . S
O425 Eu411 2.374 1_565 S
O426 C410 1.257 . S
O426 Eu411 2.473 . S
O427 C410 1.260 . S
O427 Eu411 2.480 . S
O428 Eu411 2.430 1_565 S
O428 C418 1.259 . S
O429 Eu401 2.355 . S
O429 Eu411 2.670 1_565 S
O429 C418 1.270 . S
O430 Eu411 2.394 . S
O430 C419 1.251 . S
O431 Eu401 2.374 1_545 S
O431 C419 1.251 . S
H432 C403 0.931 . S
H433 C404 0.931 . S
H434 C406 0.931 . S
H435 C407 0.931 . S
H436 C413 0.931 . S
H437 C414 0.931 . S
H438 C416 0.931 . S
H439 C417 0.931 . S
C440 Eu441 2.835 . S
C440 C442 1.500 . S
C440 O460 1.257 . S
C440 O461 1.260 . S
Eu441 C440 2.835 . S
Eu441 O460 2.473 . S
Eu441 O461 2.480 . S
Eu441 O462 2.430 . S
Eu441 O463 2.670 . S
Eu441 O464 2.394 . S
Eu441 O469 2.355 . S
Eu441 O471 2.374 . S
C442 C440 1.500 . S
C442 C443 1.377 . S
C442 C447 1.377 . S
C443 C442 1.377 . S
C443 C444 1.395 . S
C443 H472 0.931 . S
C444 C443 1.395 . S
C444 C445 1.383 . S
C444 H473 0.931 . S
C445 C444 1.383 . S
C445 C446 1.394 . S
C446 C445 1.394 . S
C446 C447 1.378 . S
C446 H474 0.931 . S
C447 C442 1.377 . S
C447 C446 1.378 . S
C447 H475 0.931 . S
C448 O462 1.259 . S
C448 O463 1.270 . S
C449 O464 1.251 . S
C449 O465 1.251 . S
C450 Eu451 2.835 . S
C450 C452 1.500 . S
C450 O466 1.257 . S
C450 O467 1.260 . S
Eu451 C450 2.835 . S
Eu451 O463 2.355 . S
Eu451 O465 2.374 . S
Eu451 O466 2.473 . S
Eu451 O467 2.480 . S
Eu451 O468 2.430 . S
Eu451 O469 2.670 . S
Eu451 O470 2.394 . S
C452 C450 1.500 . S
C452 C453 1.377 . S
C452 C457 1.377 . S
C453 C452 1.377 . S
C453 C454 1.395 . S
C453 H476 0.931 . S
C454 C453 1.395 . S
C454 C455 1.383 . S
C454 H477 0.931 . S
C455 C454 1.383 . S
C455 C456 1.394 . S
C456 C455 1.394 . S
C456 C457 1.378 . S
C456 H478 0.931 . S
C457 C452 1.377 . S
C457 C456 1.378 . S
C457 H479 0.931 . S
C458 O468 1.259 . S
C458 O469 1.270 . S
C459 O470 1.251 . S
C459 O471 1.251 . S
O460 C440 1.257 . S
O460 Eu441 2.473 . S
O461 C440 1.260 . S
O461 Eu441 2.480 . S
O462 Eu441 2.430 . S
O462 C448 1.259 . S
O463 Eu441 2.670 . S
O463 C448 1.270 . S
O463 Eu451 2.355 . S
O464 Eu441 2.394 . S
O464 C449 1.251 . S
O465 C449 1.251 . S
O465 Eu451 2.374 . S
O466 C450 1.257 . S
O466 Eu451 2.473 . S
O467 C450 1.260 . S
O467 Eu451 2.480 . S
O468 Eu451 2.430 . S
O468 C458 1.259 . S
O469 Eu441 2.355 . S
O469 Eu451 2.670 . S
O469 C458 1.270 . S
O470 Eu451 2.394 . S
O470 C459 1.251 . S
O471 Eu441 2.374 . S
O471 C459 1.251 . S
H472 C443 0.931 . S
H473 C444 0.931 . S
H474 C446 0.931 . S
H475 C447 0.931 . S
H476 C453 0.931 . S
H477 C454 0.931 . S
H478 C456 0.931 . S
H479 C457 0.931 . S
H480 C486 0.930 . S
H481 C490 0.930 . S
H482 C495 0.929 . S
H483 C493 0.929 . S
H484 C488 0.929 . S
H485 C494 0.929 . S
C486 H480 0.930 . S
C486 C487 1.367 . S
C486 C494 1.378 . S
C487 C486 1.367 . S
C487 C495 1.433 . S
C488 H484 0.929 . S
C488 C490 1.378 . S
C488 C492 1.350 . S
C489 C492 1.463 . S
C489 C494 1.350 . S
C489 N497 1.427 . S
C490 H481 0.930 . S
C490 C488 1.378 . S
C490 C491 1.367 . S
C491 C490 1.367 . S
C491 C493 1.433 . S
C492 C488 1.350 . S
C492 C489 1.463 . S
C492 N496 1.427 . S
C493 H483 0.929 . S
C493 C491 1.433 . S
C493 N496 1.384 . S
C494 H485 0.929 . S
C494 C486 1.378 . S
C494 C489 1.350 . S
C495 H482 0.929 . S
C495 C487 1.433 . S
C495 N497 1.384 . S
N496 C492 1.427 . S
N496 C493 1.384 . S
N497 C489 1.427 . S
N497 C495 1.384 . S
H498 C504 0.930 . S
H499 C508 0.930 . S
H500 C513 0.929 . S
H501 C511 0.929 . S
H502 C506 0.929 . S
H503 C512 0.929 . S
C504 H498 0.930 . S
C504 C505 1.367 . S
C504 C512 1.378 . S
C505 C504 1.367 . S
C505 C513 1.433 . S
C506 H502 0.929 . S
C506 C508 1.378 . S
C506 C510 1.350 . S
C507 C510 1.463 . S
C507 C512 1.350 . S
C507 N515 1.427 . S
C508 H499 0.930 . S
C508 C506 1.378 . S
C508 C509 1.367 . S
C509 C508 1.367 . S
C509 C511 1.433 . S
C510 C506 1.350 . S
C510 C507 1.463 . S
C510 N514 1.427 . S
C511 H501 0.929 . S
C511 C509 1.433 . S
C511 N514 1.384 . S
C512 H503 0.929 . S
C512 C504 1.378 . S
C512 C507 1.350 . S
C513 H500 0.929 . S
C513 C505 1.433 . S
C513 N515 1.384 . S
N514 C510 1.427 . S
N514 C511 1.384 . S
N515 C507 1.427 . S
N515 C513 1.384 . S
H516 C522 0.930 . S
H517 C526 0.930 . S
H518 C531 0.929 . S
H519 C529 0.929 . S
H520 C524 0.929 . S
H521 C530 0.929 . S
C522 H516 0.930 . S
C522 C523 1.367 . S
C522 C530 1.378 . S
C523 C522 1.367 . S
C523 C531 1.433 . S
C524 H520 0.929 . S
C524 C526 1.378 . S
C524 C528 1.350 . S
C525 C528 1.463 . S
C525 C530 1.350 . S
C525 N533 1.427 . S
C526 H517 0.930 . S
C526 C524 1.378 . S
C526 C527 1.367 . S
C527 C526 1.367 . S
C527 C529 1.433 . S
C528 C524 1.350 . S
C528 C525 1.463 . S
C528 N532 1.427 . S
C529 H519 0.929 . S
C529 C527 1.433 . S
C529 N532 1.384 . S
C530 H521 0.929 . S
C530 C522 1.378 . S
C530 C525 1.350 . S
C531 H518 0.929 . S
C531 C523 1.433 . S
C531 N533 1.384 . S
N532 C528 1.427 . S
N532 C529 1.384 . S
N533 C525 1.427 . S
N533 C531 1.384 . S
H534 C540 0.930 . S
H535 C544 0.930 . S
H536 C549 0.929 . S
H537 C547 0.929 . S
H538 C542 0.929 . S
H539 C548 0.929 . S
C540 H534 0.930 . S
C540 C541 1.367 . S
C540 C548 1.378 . S
C541 C540 1.367 . S
C541 C549 1.433 . S
C542 H538 0.929 . S
C542 C544 1.378 . S
C542 C546 1.350 . S
C543 C546 1.463 . S
C543 C548 1.350 . S
C543 N551 1.427 . S
C544 H535 0.930 . S
C544 C542 1.378 . S
C544 C545 1.367 . S
C545 C544 1.367 . S
C545 C547 1.433 . S
C546 C542 1.350 . S
C546 C543 1.463 . S
C546 N550 1.427 . S
C547 H537 0.929 . S
C547 C545 1.433 . S
C547 N550 1.384 . S
C548 H539 0.929 . S
C548 C540 1.378 . S
C548 C543 1.350 . S
C549 H536 0.929 . S
C549 C541 1.433 . S
C549 N551 1.384 . S
N550 C546 1.427 . S
N550 C547 1.384 . S
N551 C543 1.427 . S
N551 C549 1.384 . S
H552 C558 0.930 . S
H553 C562 0.930 . S
H554 C567 0.929 . S
H555 C565 0.929 . S
H556 C560 0.929 . S
H557 C566 0.929 . S
C558 H552 0.930 . S
C558 C559 1.367 . S
C558 C566 1.378 . S
C559 C558 1.367 . S
C559 C567 1.433 . S
C560 H556 0.929 . S
C560 C562 1.378 . S
C560 C564 1.350 . S
C561 C564 1.463 . S
C561 C566 1.350 . S
C561 N569 1.427 . S
C562 H553 0.930 . S
C562 C560 1.378 . S
C562 C563 1.367 . S
C563 C562 1.367 . S
C563 C565 1.433 . S
C564 C560 1.350 . S
C564 C561 1.463 . S
C564 N568 1.427 . S
C565 H555 0.929 . S
C565 C563 1.433 . S
C565 N568 1.384 . S
C566 H557 0.929 . S
C566 C558 1.378 . S
C566 C561 1.350 . S
C567 H554 0.929 . S
C567 C559 1.433 . S
C567 N569 1.384 . S
N568 C564 1.427 . S
N568 C565 1.384 . S
N569 C561 1.427 . S
N569 C567 1.384 . S
H570 C576 0.930 . S
H571 C580 0.930 . S
H572 C585 0.929 . S
H573 C583 0.929 . S
H574 C578 0.929 . S
H575 C584 0.929 . S
C576 H570 0.930 . S
C576 C577 1.367 . S
C576 C584 1.378 . S
C577 C576 1.367 . S
C577 C585 1.433 . S
C578 H574 0.929 . S
C578 C580 1.378 . S
C578 C582 1.350 . S
C579 C582 1.463 . S
C579 C584 1.350 . S
C579 N587 1.427 . S
C580 H571 0.930 . S
C580 C578 1.378 . S
C580 C581 1.367 . S
C581 C580 1.367 . S
C581 C583 1.433 . S
C582 C578 1.350 . S
C582 C579 1.463 . S
C582 N586 1.427 . S
C583 H573 0.929 . S
C583 C581 1.433 . S
C583 N586 1.384 . S
C584 H575 0.929 . S
C584 C576 1.378 . S
C584 C579 1.350 . S
C585 H572 0.929 . S
C585 C577 1.433 . S
C585 N587 1.384 . S
N586 C582 1.427 . S
N586 C583 1.384 . S
N587 C579 1.427 . S
N587 C585 1.384 . S
H588 C594 0.930 . S
H589 C598 0.930 . S
H590 C603 0.929 . S
H591 C601 0.929 . S
H592 C596 0.929 . S
H593 C602 0.929 . S
C594 H588 0.930 . S
C594 C595 1.367 . S
C594 C602 1.378 . S
C595 C594 1.367 . S
C595 C603 1.433 . S
C596 H592 0.929 . S
C596 C598 1.378 . S
C596 C600 1.350 . S
C597 C600 1.463 . S
C597 C602 1.350 . S
C597 N605 1.427 . S
C598 H589 0.930 . S
C598 C596 1.378 . S
C598 C599 1.367 . S
C599 C598 1.367 . S
C599 C601 1.433 . S
C600 C596 1.350 . S
C600 C597 1.463 . S
C600 N604 1.427 . S
C601 H591 0.929 . S
C601 C599 1.433 . S
C601 N604 1.384 . S
C602 H593 0.929 . S
C602 C594 1.378 . S
C602 C597 1.350 . S
C603 H590 0.929 . S
C603 C595 1.433 . S
C603 N605 1.384 . S
N604 C600 1.427 . S
N604 C601 1.384 . S
N605 C597 1.427 . S
N605 C603 1.384 . S
H606 C612 0.930 . S
H607 C616 0.930 . S
H608 C621 0.929 . S
H609 C619 0.929 . S
H610 C614 0.929 . S
H611 C620 0.929 . S
C612 H606 0.930 . S
C612 C613 1.367 . S
C612 C620 1.378 . S
C613 C612 1.367 . S
C613 C621 1.433 . S
C614 H610 0.929 . S
C614 C616 1.378 . S
C614 C618 1.350 . S
C615 C618 1.463 . S
C615 C620 1.350 . S
C615 N623 1.427 . S
C616 H607 0.930 . S
C616 C614 1.378 . S
C616 C617 1.367 . S
C617 C616 1.367 . S
C617 C619 1.433 . S
C618 C614 1.350 . S
C618 C615 1.463 . S
C618 N622 1.427 . S
C619 H609 0.929 . S
C619 C617 1.433 . S
C619 N622 1.384 . S
C620 H611 0.929 . S
C620 C612 1.378 . S
C620 C615 1.350 . S
C621 H608 0.929 . S
C621 C613 1.433 . S
C621 N623 1.384 . S
N622 C618 1.427 . S
N622 C619 1.384 . S
N623 C615 1.427 . S
N623 C621 1.384 . S
H624 C630 0.930 . S
H625 C634 0.930 . S
H626 C639 0.929 . S
H627 C637 0.929 . S
H628 C632 0.929 . S
H629 C638 0.929 . S
C630 H624 0.930 . S
C630 C631 1.367 . S
C630 C638 1.378 . S
C631 C630 1.367 . S
C631 C639 1.433 . S
C632 H628 0.929 . S
C632 C634 1.378 . S
C632 C636 1.350 . S
C633 C636 1.463 . S
C633 C638 1.350 . S
C633 N641 1.427 . S
C634 H625 0.930 . S
C634 C632 1.378 . S
C634 C635 1.367 . S
C635 C634 1.367 . S
C635 C637 1.433 . S
C636 C632 1.350 . S
C636 C633 1.463 . S
C636 N640 1.427 . S
C637 H627 0.929 . S
C637 C635 1.433 . S
C637 N640 1.384 . S
C638 H629 0.929 . S
C638 C630 1.378 . S
C638 C633 1.350 . S
C639 H626 0.929 . S
C639 C631 1.433 . S
C639 N641 1.384 . S
N640 C636 1.427 . S
N640 C637 1.384 . S
N641 C633 1.427 . S
N641 C639 1.384 . S
H642 C648 0.930 . S
H643 C652 0.930 . S
H644 C657 0.929 . S
H645 C655 0.929 . S
H646 C650 0.929 . S
H647 C656 0.929 . S
C648 H642 0.930 . S
C648 C649 1.367 . S
C648 C656 1.378 . S
C649 C648 1.367 . S
C649 C657 1.433 . S
C650 H646 0.929 . S
C650 C652 1.378 . S
C650 C654 1.350 . S
C651 C654 1.463 . S
C651 C656 1.350 . S
C651 N659 1.427 . S
C652 H643 0.930 . S
C652 C650 1.378 . S
C652 C653 1.367 . S
C653 C652 1.367 . S
C653 C655 1.433 . S
C654 C650 1.350 . S
C654 C651 1.463 . S
C654 N658 1.427 . S
C655 H645 0.929 . S
C655 C653 1.433 . S
C655 N658 1.384 . S
C656 H647 0.929 . S
C656 C648 1.378 . S
C656 C651 1.350 . S
C657 H644 0.929 . S
C657 C649 1.433 . S
C657 N659 1.384 . S
N658 C654 1.427 . S
N658 C655 1.384 . S
N659 C651 1.427 . S
N659 C657 1.384 . S
H660 C666 0.930 . S
H661 C670 0.930 . S
H662 C675 0.929 . S
H663 C673 0.929 . S
H664 C668 0.929 . S
H665 C674 0.929 . S
C666 H660 0.930 . S
C666 C667 1.367 . S
C666 C674 1.378 . S
C667 C666 1.367 . S
C667 C675 1.433 . S
C668 H664 0.929 . S
C668 C670 1.378 . S
C668 C672 1.350 . S
C669 C672 1.463 . S
C669 C674 1.350 . S
C669 N677 1.427 . S
C670 H661 0.930 . S
C670 C668 1.378 . S
C670 C671 1.367 . S
C671 C670 1.367 . S
C671 C673 1.433 . S
C672 C668 1.350 . S
C672 C669 1.463 . S
C672 N676 1.427 . S
C673 H663 0.929 . S
C673 C671 1.433 . S
C673 N676 1.384 . S
C674 H665 0.929 . S
C674 C666 1.378 . S
C674 C669 1.350 . S
C675 H662 0.929 . S
C675 C667 1.433 . S
C675 N677 1.384 . S
N676 C672 1.427 . S
N676 C673 1.384 . S
N677 C669 1.427 . S
N677 C675 1.384 . S
H678 C684 0.930 . S
H679 C688 0.930 . S
H680 C693 0.929 . S
H681 C691 0.929 . S
H682 C686 0.929 . S
H683 C692 0.929 . S
C684 H678 0.930 . S
C684 C685 1.367 . S
C684 C692 1.378 . S
C685 C684 1.367 . S
C685 C693 1.433 . S
C686 H682 0.929 . S
C686 C688 1.378 . S
C686 C690 1.350 . S
C687 C690 1.463 . S
C687 C692 1.350 . S
C687 N695 1.427 . S
C688 H679 0.930 . S
C688 C686 1.378 . S
C688 C689 1.367 . S
C689 C688 1.367 . S
C689 C691 1.433 . S
C690 C686 1.350 . S
C690 C687 1.463 . S
C690 N694 1.427 . S
C691 H681 0.929 . S
C691 C689 1.433 . S
C691 N694 1.384 . S
C692 H683 0.929 . S
C692 C684 1.378 . S
C692 C687 1.350 . S
C693 H680 0.929 . S
C693 C685 1.433 . S
C693 N695 1.384 . S
N694 C690 1.427 . S
N694 C691 1.384 . S
N695 C687 1.427 . S
N695 C693 1.384 . S
H696 C702 0.930 . S
H697 C706 0.930 . S
H698 C711 0.929 . S
H699 C709 0.929 . S
H700 C704 0.929 . S
H701 C710 0.929 . S
C702 H696 0.930 . S
C702 C703 1.367 . S
C702 C710 1.378 . S
C703 C702 1.367 . S
C703 C711 1.433 . S
C704 H700 0.929 . S
C704 C706 1.378 . S
C704 C708 1.350 . S
C705 C708 1.463 . S
C705 C710 1.350 . S
C705 N713 1.427 . S
C706 H697 0.930 . S
C706 C704 1.378 . S
C706 C707 1.367 . S
C707 C706 1.367 . S
C707 C709 1.433 . S
C708 C704 1.350 . S
C708 C705 1.463 . S
C708 N712 1.427 . S
C709 H699 0.929 . S
C709 C707 1.433 . S
C709 N712 1.384 . S
C710 H701 0.929 . S
C710 C702 1.378 . S
C710 C705 1.350 . S
C711 H698 0.929 . S
C711 C703 1.433 . S
C711 N713 1.384 . S
N712 C708 1.427 . S
N712 C709 1.384 . S
N713 C705 1.427 . S
N713 C711 1.384 . S
H714 C720 0.930 . S
H715 C724 0.930 . S
H716 C729 0.929 . S
H717 C727 0.929 . S
H718 C722 0.929 . S
H719 C728 0.929 . S
C720 H714 0.930 . S
C720 C721 1.367 . S
C720 C728 1.378 . S
C721 C720 1.367 . S
C721 C729 1.433 . S
C722 H718 0.929 . S
C722 C724 1.378 . S
C722 C726 1.350 . S
C723 C726 1.463 . S
C723 C728 1.350 . S
C723 N731 1.427 . S
C724 H715 0.930 . S
C724 C722 1.378 . S
C724 C725 1.367 . S
C725 C724 1.367 . S
C725 C727 1.433 . S
C726 C722 1.350 . S
C726 C723 1.463 . S
C726 N730 1.427 . S
C727 H717 0.929 . S
C727 C725 1.433 . S
C727 N730 1.384 . S
C728 H719 0.929 . S
C728 C720 1.378 . S
C728 C723 1.350 . S
C729 H716 0.929 . S
C729 C721 1.433 . S
C729 N731 1.384 . S
N730 C726 1.427 . S
N730 C727 1.384 . S
N731 C723 1.427 . S
N731 C729 1.384 . S
H732 C738 0.930 . S
H733 C742 0.930 . S
H734 C747 0.929 . S
H735 C745 0.929 . S
H736 C740 0.929 . S
H737 C746 0.929 . S
C738 H732 0.930 . S
C738 C739 1.367 . S
C738 C746 1.378 . S
C739 C738 1.367 . S
C739 C747 1.433 . S
C740 H736 0.929 . S
C740 C742 1.378 . S
C740 C744 1.350 . S
C741 C744 1.463 . S
C741 C746 1.350 . S
C741 N749 1.427 . S
C742 H733 0.930 . S
C742 C740 1.378 . S
C742 C743 1.367 . S
C743 C742 1.367 . S
C743 C745 1.433 . S
C744 C740 1.350 . S
C744 C741 1.463 . S
C744 N748 1.427 . S
C745 H735 0.929 . S
C745 C743 1.433 . S
C745 N748 1.384 . S
C746 H737 0.929 . S
C746 C738 1.378 . S
C746 C741 1.350 . S
C747 H734 0.929 . S
C747 C739 1.433 . S
C747 N749 1.384 . S
N748 C744 1.427 . S
N748 C745 1.384 . S
N749 C741 1.427 . S
N749 C747 1.384 . S
H750 C756 0.930 . S
H751 C760 0.930 . S
H752 C765 0.929 . S
H753 C763 0.929 . S
H754 C758 0.929 . S
H755 C764 0.929 . S
C756 H750 0.930 . S
C756 C757 1.367 . S
C756 C764 1.378 . S
C757 C756 1.367 . S
C757 C765 1.433 . S
C758 H754 0.929 . S
C758 C760 1.378 . S
C758 C762 1.350 . S
C759 C762 1.463 . S
C759 C764 1.350 . S
C759 N767 1.427 . S
C760 H751 0.930 . S
C760 C758 1.378 . S
C760 C761 1.367 . S
C761 C760 1.367 . S
C761 C763 1.433 . S
C762 C758 1.350 . S
C762 C759 1.463 . S
C762 N766 1.427 . S
C763 H753 0.929 . S
C763 C761 1.433 . S
C763 N766 1.384 . S
C764 H755 0.929 . S
C764 C756 1.378 . S
C764 C759 1.350 . S
C765 H752 0.929 . S
C765 C757 1.433 . S
C765 N767 1.384 . S
N766 C762 1.427 . S
N766 C763 1.384 . S
N767 C759 1.427 . S
N767 C765 1.384 . S
H768 C774 0.930 1_554 S
H769 C778 0.930 . S
H770 C783 0.929 . S
H771 C781 0.929 . S
H772 C776 0.929 . S
H773 C782 0.904 1_554 S
C774 H768 0.930 1_556 S
C774 C775 1.367 . S
C774 C782 1.383 . S
C775 C774 1.367 . S
C775 C783 1.433 . S
C776 H772 0.929 . S
C776 C778 1.378 . S
C776 C780 1.350 . S
C777 C780 1.463 . S
C777 C782 1.370 . S
C777 N785 1.427 . S
C778 H769 0.930 . S
C778 C776 1.378 . S
C778 C779 1.367 . S
C779 C778 1.367 . S
C779 C781 1.433 1_556 S
C780 C776 1.350 . S
C780 C777 1.463 . S
C780 N784 1.427 1_556 S
C781 H771 0.929 . S
C781 C779 1.433 1_554 S
C781 N784 1.384 . S
C782 H773 0.904 1_556 S
C782 C774 1.383 . S
C782 C777 1.370 . S
C783 H770 0.929 . S
C783 C775 1.433 . S
C783 N785 1.384 . S
N784 C780 1.427 1_554 S
N784 C781 1.384 . S
N785 C777 1.427 . S
N785 C783 1.384 . S
H786 C792 0.930 . S
H787 C796 0.930 . S
H788 C801 0.929 . S
H789 C799 0.929 . S
H790 C794 0.929 . S
H791 C800 0.929 . S
C792 H786 0.930 . S
C792 C793 1.367 . S
C792 C800 1.378 . S
C793 C792 1.367 . S
C793 C801 1.433 . S
C794 H790 0.929 . S
C794 C796 1.378 . S
C794 C798 1.350 . S
C795 C798 1.463 . S
C795 C800 1.350 . S
C795 N803 1.427 . S
C796 H787 0.930 . S
C796 C794 1.378 . S
C796 C797 1.367 . S
C797 C796 1.367 . S
C797 C799 1.433 . S
C798 C794 1.350 . S
C798 C795 1.463 . S
C798 N802 1.427 . S
C799 H789 0.929 . S
C799 C797 1.433 . S
C799 N802 1.384 . S
C800 H791 0.929 . S
C800 C792 1.378 . S
C800 C795 1.350 . S
C801 H788 0.929 . S
C801 C793 1.433 . S
C801 N803 1.384 . S
N802 C798 1.427 . S
N802 C799 1.384 . S
N803 C795 1.427 . S
N803 C801 1.384 . S
H804 C810 0.930 . S
H805 C814 0.930 . S
H806 C819 0.929 . S
H807 C817 0.929 . S
H808 C812 0.929 . S
H809 C818 0.929 . S
C810 H804 0.930 . S
C810 C811 1.367 . S
C810 C818 1.378 . S
C811 C810 1.367 . S
C811 C819 1.433 . S
C812 H808 0.929 . S
C812 C814 1.378 . S
C812 C816 1.350 . S
C813 C816 1.463 . S
C813 C818 1.350 . S
C813 N821 1.427 . S
C814 H805 0.930 . S
C814 C812 1.378 . S
C814 C815 1.367 . S
C815 C814 1.367 . S
C815 C817 1.433 . S
C816 C812 1.350 . S
C816 C813 1.463 . S
C816 N820 1.427 . S
C817 H807 0.929 . S
C817 C815 1.433 . S
C817 N820 1.384 . S
C818 H809 0.929 . S
C818 C810 1.378 . S
C818 C813 1.350 . S
C819 H806 0.929 . S
C819 C811 1.433 . S
C819 N821 1.384 . S
N820 C816 1.427 . S
N820 C817 1.384 . S
N821 C813 1.427 . S
N821 C819 1.384 . S
H822 C828 0.930 . S
H823 C832 0.930 . S
H824 C837 0.929 . S
H825 C835 0.929 . S
H826 C830 0.929 . S
H827 C836 0.929 . S
C828 H822 0.930 . S
C828 C829 1.367 . S
C828 C836 1.378 . S
C829 C828 1.367 . S
C829 C837 1.433 . S
C830 H826 0.929 . S
C830 C832 1.378 . S
C830 C834 1.350 . S
C831 C834 1.463 . S
C831 C836 1.350 . S
C831 N839 1.427 . S
C832 H823 0.930 . S
C832 C830 1.378 . S
C832 C833 1.367 . S
C833 C832 1.367 . S
C833 C835 1.433 . S
C834 C830 1.350 . S
C834 C831 1.463 . S
C834 N838 1.427 . S
C835 H825 0.929 . S
C835 C833 1.433 . S
C835 N838 1.384 . S
C836 H827 0.929 . S
C836 C828 1.378 . S
C836 C831 1.350 . S
C837 H824 0.929 . S
C837 C829 1.433 . S
C837 N839 1.384 . S
N838 C834 1.427 . S
N838 C835 1.384 . S
N839 C831 1.427 . S
N839 C837 1.384 . S
H840 C846 0.930 . S
H841 C850 0.930 . S
H842 C855 0.929 . S
H843 C853 0.929 . S
H844 C848 0.929 . S
H845 C854 0.929 . S
C846 H840 0.930 . S
C846 C847 1.367 . S
C846 C854 1.378 . S
C847 C846 1.367 . S
C847 C855 1.433 . S
C848 H844 0.929 . S
C848 C850 1.378 . S
C848 C852 1.350 . S
C849 C852 1.463 . S
C849 C854 1.350 . S
C849 N857 1.427 . S
C850 H841 0.930 . S
C850 C848 1.378 . S
C850 C851 1.367 . S
C851 C850 1.367 . S
C851 C853 1.433 . S
C852 C848 1.350 . S
C852 C849 1.463 . S
C852 N856 1.427 . S
C853 H843 0.929 . S
C853 C851 1.433 . S
C853 N856 1.384 . S
C854 H845 0.929 . S
C854 C846 1.378 . S
C854 C849 1.350 . S
C855 H842 0.929 . S
C855 C847 1.433 . S
C855 N857 1.384 . S
N856 C852 1.427 . S
N856 C853 1.384 . S
N857 C849 1.427 . S
N857 C855 1.384 . S
H858 C864 0.930 . S
H859 C868 0.930 . S
H860 C873 0.929 . S
H861 C871 0.971 . S
H862 C866 0.929 . S
H863 C872 0.929 . S
C864 H858 0.930 . S
C864 C865 1.401 . S
C864 C872 1.378 . S
C865 C864 1.401 . S
C865 C873 1.391 1_554 S
C866 H862 0.929 . S
C866 C868 1.378 . S
C866 C870 1.350 . S
C867 C870 1.463 . S
C867 C872 1.350 1_556 S
C867 N875 1.427 . S
C868 H859 0.930 . S
C868 C866 1.378 . S
C868 C869 1.367 . S
C869 C868 1.367 . S
C869 C871 1.382 1_556 S
C870 C866 1.350 . S
C870 C867 1.463 . S
C870 N874 1.427 1_556 S
C871 H861 0.971 . S
C871 C869 1.382 1_554 S
C871 N874 1.395 . S
C872 H863 0.929 . S
C872 C864 1.378 . S
C872 C867 1.350 1_554 S
C873 H860 0.929 . S
C873 C865 1.391 1_556 S
C873 N875 1.384 . S
N874 C870 1.427 1_554 S
N874 C871 1.395 . S
N875 C867 1.427 . S
N875 C873 1.384 . S
H876 C882 0.930 . S
H877 C886 0.930 . S
H878 C891 0.929 . S
H879 C889 0.929 . S
H880 C884 0.929 . S
H881 C890 0.929 . S
C882 H876 0.930 . S
C882 C883 1.367 . S
C882 C890 1.378 . S
C883 C882 1.367 . S
C883 C891 1.433 . S
C884 H880 0.929 . S
C884 C886 1.378 . S
C884 C888 1.350 . S
C885 C888 1.463 . S
C885 C890 1.350 . S
C885 N893 1.427 . S
C886 H877 0.930 . S
C886 C884 1.378 . S
C886 C887 1.367 . S
C887 C886 1.367 . S
C887 C889 1.433 . S
C888 C884 1.350 . S
C888 C885 1.463 . S
C888 N892 1.427 . S
C889 H879 0.929 . S
C889 C887 1.433 . S
C889 N892 1.384 . S
C890 H881 0.929 . S
C890 C882 1.378 . S
C890 C885 1.350 . S
C891 H878 0.929 . S
C891 C883 1.433 . S
C891 N893 1.384 . S
N892 C888 1.427 . S
N892 C889 1.384 . S
N893 C885 1.427 . S
N893 C891 1.384 . S
H894 C900 0.930 . S
H895 C904 0.930 . S
H896 C909 0.929 . S
H897 C907 0.929 . S
H898 C902 0.929 . S
H899 C908 0.929 . S
C900 H894 0.930 . S
C900 C901 1.367 . S
C900 C908 1.378 . S
C901 C900 1.367 . S
C901 C909 1.433 . S
C902 H898 0.929 . S
C902 C904 1.378 . S
C902 C906 1.350 . S
C903 C906 1.463 . S
C903 C908 1.350 . S
C903 N911 1.427 . S
C904 H895 0.930 . S
C904 C902 1.378 . S
C904 C905 1.367 . S
C905 C904 1.367 . S
C905 C907 1.433 . S
C906 C902 1.350 . S
C906 C903 1.463 . S
C906 N910 1.427 . S
C907 H897 0.929 . S
C907 C905 1.433 . S
C907 N910 1.384 . S
C908 H899 0.929 . S
C908 C900 1.378 . S
C908 C903 1.350 . S
C909 H896 0.929 . S
C909 C901 1.433 . S
C909 N911 1.384 . S
N910 C906 1.427 . S
N910 C907 1.384 . S
N911 C903 1.427 . S
N911 C909 1.384 . S
H912 C918 0.930 . S
H913 C922 0.930 . S
H914 C927 0.929 . S
H915 C925 0.929 . S
H916 C920 0.929 . S
H917 C926 0.929 . S
C918 H912 0.930 . S
C918 C919 1.367 . S
C918 C926 1.378 . S
C919 C918 1.367 . S
C919 C927 1.433 . S
C920 H916 0.929 . S
C920 C922 1.378 . S
C920 C924 1.350 . S
C921 C924 1.463 . S
C921 C926 1.350 . S
C921 N929 1.427 . S
C922 H913 0.930 . S
C922 C920 1.378 . S
C922 C923 1.367 . S
C923 C922 1.367 . S
C923 C925 1.433 . S
C924 C920 1.350 . S
C924 C921 1.463 . S
C924 N928 1.427 . S
C925 H915 0.929 . S
C925 C923 1.433 . S
C925 N928 1.384 . S
C926 H917 0.929 . S
C926 C918 1.378 . S
C926 C921 1.350 . S
C927 H914 0.929 . S
C927 C919 1.433 . S
C927 N929 1.384 . S
N928 C924 1.427 . S
N928 C925 1.384 . S
N929 C921 1.427 . S
N929 C927 1.384 . S
H930 C936 0.930 . S
H931 C940 0.930 . S
H932 C945 0.929 . S
H933 C943 0.929 . S
H934 C938 0.929 . S
H935 C944 0.929 . S
C936 H930 0.930 . S
C936 C937 1.367 . S
C936 C944 1.378 . S
C937 C936 1.367 . S
C937 C945 1.433 . S
C938 H934 0.929 . S
C938 C940 1.378 . S
C938 C942 1.350 . S
C939 C942 1.463 . S
C939 C944 1.350 . S
C939 N947 1.427 . S
C940 H931 0.930 . S
C940 C938 1.378 . S
C940 C941 1.367 . S
C941 C940 1.367 . S
C941 C943 1.433 . S
C942 C938 1.350 . S
C942 C939 1.463 . S
C942 N946 1.427 . S
C943 H933 0.929 . S
C943 C941 1.433 . S
C943 N946 1.384 . S
C944 H935 0.929 . S
C944 C936 1.378 . S
C944 C939 1.350 . S
C945 H932 0.929 . S
C945 C937 1.433 . S
C945 N947 1.384 . S
N946 C942 1.427 . S
N946 C943 1.384 . S
N947 C939 1.427 . S
N947 C945 1.384 . S
H948 C954 0.930 . S
H949 C958 0.930 . S
H950 C963 0.929 . S
H951 C961 0.929 . S
H952 C956 0.929 . S
H953 C962 0.929 . S
C954 H948 0.930 . S
C954 C955 1.367 . S
C954 C962 1.378 . S
C955 C954 1.367 . S
C955 C963 1.433 . S
C956 H952 0.929 . S
C956 C958 1.378 . S
C956 C960 1.350 . S
C957 C960 1.463 . S
C957 C962 1.350 . S
C957 N965 1.427 . S
C958 H949 0.930 . S
C958 C956 1.378 . S
C958 C959 1.367 . S
C959 C958 1.367 . S
C959 C961 1.433 . S
C960 C956 1.350 . S
C960 C957 1.463 . S
C960 N964 1.427 . S
C961 H951 0.929 . S
C961 C959 1.433 . S
C961 N964 1.384 . S
C962 H953 0.929 . S
C962 C954 1.378 . S
C962 C957 1.350 . S
C963 H950 0.929 . S
C963 C955 1.433 . S
C963 N965 1.384 . S
N964 C960 1.427 . S
N964 C961 1.384 . S
N965 C957 1.427 . S
N965 C963 1.384 . S
H966 C972 0.930 . S
H967 C976 0.930 . S
H968 C981 0.929 . S
H969 C979 0.929 . S
H970 C974 0.929 . S
H971 C980 0.929 . S
C972 H966 0.930 . S
C972 C973 1.367 . S
C972 C980 1.378 . S
C973 C972 1.367 . S
C973 C981 1.433 . S
C974 H970 0.929 . S
C974 C976 1.378 . S
C974 C978 1.350 . S
C975 C978 1.463 . S
C975 C980 1.350 . S
C975 N983 1.427 . S
C976 H967 0.930 . S
C976 C974 1.378 . S
C976 C977 1.367 . S
C977 C976 1.367 . S
C977 C979 1.433 . S
C978 C974 1.350 . S
C978 C975 1.463 . S
C978 N982 1.427 . S
C979 H969 0.929 . S
C979 C977 1.433 . S
C979 N982 1.384 . S
C980 H971 0.929 . S
C980 C972 1.378 . S
C980 C975 1.350 . S
C981 H968 0.929 . S
C981 C973 1.433 . S
C981 N983 1.384 . S
N982 C978 1.427 . S
N982 C979 1.384 . S
N983 C975 1.427 . S
N983 C981 1.384 . S
H984 C990 0.930 . S
H985 C994 0.930 . S
H986 C999 0.929 . S
H987 C997 0.929 . S
H988 C992 0.929 . S
H989 C998 0.929 . S
C990 H984 0.930 . S
C990 C991 1.367 . S
C990 C998 1.378 . S
C991 C990 1.367 . S
C991 C999 1.433 . S
C992 H988 0.929 . S
C992 C994 1.378 . S
C992 C996 1.350 . S
C993 C996 1.463 . S
C993 C998 1.350 . S
C993 N1001 1.427 . S
C994 H985 0.930 . S
C994 C992 1.378 . S
C994 C995 1.367 . S
C995 C994 1.367 . S
C995 C997 1.433 . S
C996 C992 1.350 . S
C996 C993 1.463 . S
C996 N1000 1.427 . S
C997 H987 0.929 . S
C997 C995 1.433 . S
C997 N1000 1.384 . S
C998 H989 0.929 . S
C998 C990 1.378 . S
C998 C993 1.350 . S
C999 H986 0.929 . S
C999 C991 1.433 . S
C999 N1001 1.384 . S
N1000 C996 1.427 . S
N1000 C997 1.384 . S
N1001 C993 1.427 . S
N1001 C999 1.384 . S
H1002 C1008 0.930 . S
H1003 C1012 0.930 . S
H1004 C1017 0.929 . S
H1005 C1015 0.929 . S
H1006 C1010 0.929 . S
H1007 C1016 0.929 . S
C1008 H1002 0.930 . S
C1008 C1009 1.367 . S
C1008 C1016 1.378 . S
C1009 C1008 1.367 . S
C1009 C1017 1.433 . S
C1010 H1006 0.929 . S
C1010 C1012 1.378 . S
C1010 C1014 1.350 . S
C1011 C1014 1.463 . S
C1011 C1016 1.350 . S
C1011 N1019 1.427 . S
C1012 H1003 0.930 . S
C1012 C1010 1.378 . S
C1012 C1013 1.367 . S
C1013 C1012 1.367 . S
C1013 C1015 1.433 . S
C1014 C1010 1.350 . S
C1014 C1011 1.463 . S
C1014 N1018 1.427 . S
C1015 H1005 0.929 . S
C1015 C1013 1.433 . S
C1015 N1018 1.384 . S
C1016 H1007 0.929 . S
C1016 C1008 1.378 . S
C1016 C1011 1.350 . S
C1017 H1004 0.929 . S
C1017 C1009 1.433 . S
C1017 N1019 1.384 . S
N1018 C1014 1.427 . S
N1018 C1015 1.384 . S
N1019 C1011 1.427 . S
N1019 C1017 1.384 . S
H1020 C1026 0.930 . S
H1021 C1030 0.930 . S
H1022 C1035 0.929 . S
H1023 C1033 0.929 . S
H1024 C1028 0.929 . S
H1025 C1034 0.929 . S
C1026 H1020 0.930 . S
C1026 C1027 1.367 . S
C1026 C1034 1.378 . S
C1027 C1026 1.367 . S
C1027 C1035 1.433 . S
C1028 H1024 0.929 . S
C1028 C1030 1.378 . S
C1028 C1032 1.350 . S
C1029 C1032 1.463 . S
C1029 C1034 1.350 . S
C1029 N1037 1.427 . S
C1030 H1021 0.930 . S
C1030 C1028 1.378 . S
C1030 C1031 1.367 . S
C1031 C1030 1.367 . S
C1031 C1033 1.433 . S
C1032 C1028 1.350 . S
C1032 C1029 1.463 . S
C1032 N1036 1.427 . S
C1033 H1023 0.929 . S
C1033 C1031 1.433 . S
C1033 N1036 1.384 . S
C1034 H1025 0.929 . S
C1034 C1026 1.378 . S
C1034 C1029 1.350 . S
C1035 H1022 0.929 . S
C1035 C1027 1.433 . S
C1035 N1037 1.384 . S
N1036 C1032 1.427 . S
N1036 C1033 1.384 . S
N1037 C1029 1.427 . S
N1037 C1035 1.384 . S
H1038 C1044 0.930 . S
H1039 C1048 0.930 . S
H1040 C1053 0.929 . S
H1041 C1051 0.929 . S
H1042 C1046 0.929 . S
H1043 C1052 0.929 . S
C1044 H1038 0.930 . S
C1044 C1045 1.367 . S
C1044 C1052 1.378 . S
C1045 C1044 1.367 . S
C1045 C1053 1.433 . S
C1046 H1042 0.929 . S
C1046 C1048 1.378 . S
C1046 C1050 1.350 . S
C1047 C1050 1.463 . S
C1047 C1052 1.350 . S
C1047 N1055 1.427 . S
C1048 H1039 0.930 . S
C1048 C1046 1.378 . S
C1048 C1049 1.367 . S
C1049 C1048 1.367 . S
C1049 C1051 1.433 . S
C1050 C1046 1.350 . S
C1050 C1047 1.463 . S
C1050 N1054 1.427 . S
C1051 H1041 0.929 . S
C1051 C1049 1.433 . S
C1051 N1054 1.384 . S
C1052 H1043 0.929 . S
C1052 C1044 1.378 . S
C1052 C1047 1.350 . S
C1053 H1040 0.929 . S
C1053 C1045 1.433 . S
C1053 N1055 1.384 . S
N1054 C1050 1.427 . S
N1054 C1051 1.384 . S
N1055 C1047 1.427 . S
N1055 C1053 1.384 . S
H1056 C1062 0.930 . S
H1057 C1066 0.930 . S
H1058 C1071 0.929 . S
H1059 C1069 0.929 . S
H1060 C1064 0.929 . S
H1061 C1070 0.929 . S
C1062 H1056 0.930 . S
C1062 C1063 1.367 . S
C1062 C1070 1.378 . S
C1063 C1062 1.367 . S
C1063 C1071 1.433 . S
C1064 H1060 0.929 . S
C1064 C1066 1.378 . S
C1064 C1068 1.350 . S
C1065 C1068 1.463 . S
C1065 C1070 1.350 . S
C1065 N1073 1.427 . S
C1066 H1057 0.930 . S
C1066 C1064 1.378 . S
C1066 C1067 1.367 . S
C1067 C1066 1.367 . S
C1067 C1069 1.433 . S
C1068 C1064 1.350 . S
C1068 C1065 1.463 . S
C1068 N1072 1.427 . S
C1069 H1059 0.929 . S
C1069 C1067 1.433 . S
C1069 N1072 1.384 . S
C1070 H1061 0.929 . S
C1070 C1062 1.378 . S
C1070 C1065 1.350 . S
C1071 H1058 0.929 . S
C1071 C1063 1.433 . S
C1071 N1073 1.384 . S
N1072 C1068 1.427 . S
N1072 C1069 1.384 . S
N1073 C1065 1.427 . S
N1073 C1071 1.384 . S
H1074 C1080 0.930 . S
H1075 C1084 0.930 . S
H1076 C1089 0.929 . S
H1077 C1087 0.929 . S
H1078 C1082 0.929 . S
H1079 C1088 0.929 . S
C1080 H1074 0.930 . S
C1080 C1081 1.367 . S
C1080 C1088 1.378 . S
C1081 C1080 1.367 . S
C1081 C1089 1.433 . S
C1082 H1078 0.929 . S
C1082 C1084 1.378 . S
C1082 C1086 1.350 . S
C1083 C1086 1.463 . S
C1083 C1088 1.350 . S
C1083 N1091 1.427 . S
C1084 H1075 0.930 . S
C1084 C1082 1.378 . S
C1084 C1085 1.367 . S
C1085 C1084 1.367 . S
C1085 C1087 1.433 . S
C1086 C1082 1.350 . S
C1086 C1083 1.463 . S
C1086 N1090 1.427 . S
C1087 H1077 0.929 . S
C1087 C1085 1.433 . S
C1087 N1090 1.384 . S
C1088 H1079 0.929 . S
C1088 C1080 1.378 . S
C1088 C1083 1.350 . S
C1089 H1076 0.929 . S
C1089 C1081 1.433 . S
C1089 N1091 1.384 . S
N1090 C1086 1.427 . S
N1090 C1087 1.384 . S
N1091 C1083 1.427 . S
N1091 C1089 1.384 . S
H1092 C1098 0.930 . S
H1093 C1102 0.930 . S
H1094 C1107 0.929 . S
H1095 C1105 0.929 . S
H1096 C1100 0.929 . S
H1097 C1106 0.929 . S
C1098 H1092 0.930 . S
C1098 C1099 1.367 . S
C1098 C1106 1.378 . S
C1099 C1098 1.367 . S
C1099 C1107 1.433 . S
C1100 H1096 0.929 . S
C1100 C1102 1.378 . S
C1100 C1104 1.350 . S
C1101 C1104 1.463 . S
C1101 C1106 1.350 . S
C1101 N1109 1.427 . S
C1102 H1093 0.930 . S
C1102 C1100 1.378 . S
C1102 C1103 1.367 . S
C1103 C1102 1.367 . S
C1103 C1105 1.433 . S
C1104 C1100 1.350 . S
C1104 C1101 1.463 . S
C1104 N1108 1.427 . S
C1105 H1095 0.929 . S
C1105 C1103 1.433 . S
C1105 N1108 1.384 . S
C1106 H1097 0.929 . S
C1106 C1098 1.378 . S
C1106 C1101 1.350 . S
C1107 H1094 0.929 . S
C1107 C1099 1.433 . S
C1107 N1109 1.384 . S
N1108 C1104 1.427 . S
N1108 C1105 1.384 . S
N1109 C1101 1.427 . S
N1109 C1107 1.384 . S
H1110 C1116 0.930 . S
H1111 C1120 0.930 . S
H1112 C1125 0.929 . S
H1113 C1123 0.929 . S
H1114 C1118 0.929 . S
H1115 C1124 0.929 . S
C1116 H1110 0.930 . S
C1116 C1117 1.367 . S
C1116 C1124 1.378 . S
C1117 C1116 1.367 . S
C1117 C1125 1.433 . S
C1118 H1114 0.929 . S
C1118 C1120 1.378 . S
C1118 C1122 1.350 . S
C1119 C1122 1.463 . S
C1119 C1124 1.350 . S
C1119 N1127 1.427 . S
C1120 H1111 0.930 . S
C1120 C1118 1.378 . S
C1120 C1121 1.367 . S
C1121 C1120 1.367 . S
C1121 C1123 1.433 . S
C1122 C1118 1.350 . S
C1122 C1119 1.463 . S
C1122 N1126 1.427 . S
C1123 H1113 0.929 . S
C1123 C1121 1.433 . S
C1123 N1126 1.384 . S
C1124 H1115 0.929 . S
C1124 C1116 1.378 . S
C1124 C1119 1.350 . S
C1125 H1112 0.929 . S
C1125 C1117 1.433 . S
C1125 N1127 1.384 . S
N1126 C1122 1.427 . S
N1126 C1123 1.384 . S
N1127 C1119 1.427 . S
N1127 C1125 1.384 . S
C487 C219 1.843 . S
C491 C5 1.876 . S
C505 C45 2.001 . S
C509 C19 1.954 . S
C523 C85 2.036 . S
C527 C59 2.012 . S
C541 C99 1.841 . S
C545 C125 1.875 . S
C559 C139 1.951 . S
C563 C165 1.996 . S
C577 C205 2.035 . S
C581 C179 2.011 . S
C595 C299 1.832 . S
C599 C245 1.867 . S
C613 C285 2.032 . S
C617 C339 2.008 . S
C631 C379 1.954 . S
C635 C325 1.999 . S
C649 C419 1.834 . S
C653 C365 1.869 . S
C667 C459 2.000 . S
C671 C405 2.029 . S
C685 C259 1.967 . S
C689 C445 2.009 . S
C703 C448 3.269 . S
C707 C9 3.403 . S
C721 C49 2.624 . S
C725 C248 2.529 . S
C739 C288 2.877 . S
C743 C89 3.009 . S
C757 C328 3.278 . S
C761 C129 3.402 . S
C775 C368 2.534 . S
C779 C169 2.627 1_556 S
C793 C209 3.006 . S
C797 C408 2.882 . S
C811 C249 3.398 . S
C815 C48 3.272 . S
C829 C289 3.009 . S
C833 C88 2.872 . S
C847 C128 2.537 . S
C851 C329 2.626 . S
C865 C168 3.286 . S
C869 C369 3.399 . S
C883 C409 3.007 . S
C887 C208 2.882 . S
C901 C449 2.628 . S
C905 C8 2.526 . S
C919 C258 3.007 . S
C923 C18 3.009 . S
C937 C58 1.958 . S
C941 C298 1.965 . S
C955 C338 1.966 . S
C959 C98 1.975 . S
C973 C138 3.003 . S
C977 C378 3.007 . S
C991 C418 1.971 . S
C995 C178 1.967 . S
C1009 C458 1.965 . S
C1013 C218 1.971 . S
C1027 C255 0.947 . S
C1031 C15 0.947 . S
C1045 C295 0.602 . S
C1049 C55 0.622 . S
C1063 C335 0.626 . S
C1067 C95 0.606 . S
C1081 C135 0.965 . S
C1085 C375 0.966 . S
C1099 C415 0.551 . S
C1103 C175 0.571 . S
C1117 C455 0.608 . S
C1121 C215 0.587 . S
