# Generated by pormake.
# Topology snz, (6)-cn, num edge types: 1
# Building blocks:
#     Node 0, Type 0, BuildingBlock: KUMBUR_clean_sbu_1, # of connection points: 6
#     Node 1, Type 0, BuildingBlock: KUMBUR_clean_sbu_1, # of connection points: 6
#     Node 2, Type 0, BuildingBlock: KUMBUR_clean_sbu_1, # of connection points: 6
#     Node 3, Type 0, BuildingBlock: KUMBUR_clean_sbu_1, # of connection points: 6
#     Node 4, Type 0, BuildingBlock: KUMBUR_clean_sbu_1, # of connection points: 6
#     Node 5, Type 0, BuildingBlock: KUMBUR_clean_sbu_1, # of connection points: 6
#     Node 6, Type 0, BuildingBlock: KUMBUR_clean_sbu_1, # of connection points: 6
#     Node 7, Type 0, BuildingBlock: KUMBUR_clean_sbu_1, # of connection points: 6
#     Node 8, Type 0, BuildingBlock: KUMBUR_clean_sbu_1, # of connection points: 6
#     Edge 9, Type (0, 0), BuildingBlock: OJICUG_clean_linker_0, # of connection points: 2
#     Edge 10, Type (0, 0), BuildingBlock: OJICUG_clean_linker_0, # of connection points: 2
#     Edge 11, Type (0, 0), BuildingBlock: OJICUG_clean_linker_0, # of connection points: 2
#     Edge 12, Type (0, 0), BuildingBlock: OJICUG_clean_linker_0, # of connection points: 2
#     Edge 13, Type (0, 0), BuildingBlock: OJICUG_clean_linker_0, # of connection points: 2
#     Edge 14, Type (0, 0), BuildingBlock: OJICUG_clean_linker_0, # of connection points: 2
#     Edge 15, Type (0, 0), BuildingBlock: OJICUG_clean_linker_0, # of connection points: 2
#     Edge 16, Type (0, 0), BuildingBlock: OJICUG_clean_linker_0, # of connection points: 2
#     Edge 17, Type (0, 0), BuildingBlock: OJICUG_clean_linker_0, # of connection points: 2
#     Edge 18, Type (0, 0), BuildingBlock: OJICUG_clean_linker_0, # of connection points: 2
#     Edge 19, Type (0, 0), BuildingBlock: OJICUG_clean_linker_0, # of connection points: 2
#     Edge 20, Type (0, 0), BuildingBlock: OJICUG_clean_linker_0, # of connection points: 2
#     Edge 21, Type (0, 0), BuildingBlock: OJICUG_clean_linker_0, # of connection points: 2
#     Edge 22, Type (0, 0), BuildingBlock: OJICUG_clean_linker_0, # of connection points: 2
#     Edge 23, Type (0, 0), BuildingBlock: OJICUG_clean_linker_0, # of connection points: 2
#     Edge 24, Type (0, 0), BuildingBlock: OJICUG_clean_linker_0, # of connection points: 2
#     Edge 25, Type (0, 0), BuildingBlock: OJICUG_clean_linker_0, # of connection points: 2
#     Edge 26, Type (0, 0), BuildingBlock: OJICUG_clean_linker_0, # of connection points: 2
#     Edge 27, Type (0, 0), BuildingBlock: OJICUG_clean_linker_0, # of connection points: 2
#     Edge 28, Type (0, 0), BuildingBlock: OJICUG_clean_linker_0, # of connection points: 2
#     Edge 29, Type (0, 0), BuildingBlock: OJICUG_clean_linker_0, # of connection points: 2
#     Edge 30, Type (0, 0), BuildingBlock: OJICUG_clean_linker_0, # of connection points: 2
#     Edge 31, Type (0, 0), BuildingBlock: OJICUG_clean_linker_0, # of connection points: 2
#     Edge 32, Type (0, 0), BuildingBlock: OJICUG_clean_linker_0, # of connection points: 2
#     Edge 33, Type (0, 0), BuildingBlock: OJICUG_clean_linker_0, # of connection points: 2
#     Edge 34, Type (0, 0), BuildingBlock: OJICUG_clean_linker_0, # of connection points: 2
#     Edge 35, Type (0, 0), BuildingBlock: OJICUG_clean_linker_0, # of connection points: 2
# Relax obj value: 0.382
# Max RMSD: 0.185
# Mean RMSD: 0.127
data_MOF--net-snz--node1-KUMBUR_clean_sbu_1--edge1-OJICUG_clean_linker_0
_symmetry_space_group_name_H-M    P1
_symmetry_Int_Tables_number       1
_symmetry_cell_setting            triclinic
loop_
_symmetry_equiv_pos_as_xyz
'x, y, z'
_cell_length_a     53.191314
_cell_length_b     39.42879
_cell_length_c     12.499986
_cell_angle_alpha  95.268527
_cell_angle_beta   95.86349
_cell_angle_gamma 122.25377
loop_
_atom_site_label
_atom_site_type_symbol
_atom_site_fract_x
_atom_site_fract_y
_atom_site_fract_z
_atom_type_partial_charge
Tb0 Tb 0.03823 0.51539 0.22343 0.0
C1 C 0.16599 0.54713 0.17206 0.0
N2 N 0.13759 0.51367 0.1389 0.0
C3 C 0.15261 0.49507 0.98056 0.0
C4 C 0.18868 0.55663 0.10875 0.0
C5 C 0.13122 0.48629 1.04806 0.0
C6 C 0.1813 0.5309 1.00981 0.0
C7 C 0.20364 0.59819 0.32298 0.0
C8 C 0.17325 0.56808 0.27683 0.0
C9 C 0.226 0.60982 0.25778 0.0
C10 C 0.21846 0.5894 0.15024 0.0
Tb11 Tb 0.10378 0.50192 0.25335 0.0
N12 N 0.15127 0.55447 0.33855 0.0
C13 C 0.21093 0.61306 0.43526 0.0
C14 C 0.15877 0.5672 0.44951 0.0
C15 C 0.18844 0.59731 0.49882 0.0
H16 H 0.10918 0.45819 1.02602 0.0
H17 H 0.19407 0.60763 0.58627 0.0
H18 H 0.02212 0.5348 0.46726 0.0
H19 H 0.96421 0.40146 0.86244 0.0
H20 H 0.1418 0.55451 0.50036 0.0
H21 H 0.23405 0.63459 0.47532 0.0
H22 H 1.01047 0.46253 0.95999 0.0
H23 H 0.14705 0.47398 0.90672 0.0
H24 H 0.24943 0.63307 0.29123 0.0
H25 H 0.23617 0.5974 0.10254 0.0
H26 H 0.9795 0.50365 0.56343 0.0
H27 H 0.19807 0.53717 0.9587 0.0
H28 H 0.92075 0.36416 0.95626 0.0
N29 N 0.99982 0.4891 0.32383 0.0
C30 C 0.97276 0.45644 0.27027 0.0
C31 C 0.97734 0.48956 0.48159 0.0
C32 C 0.94725 0.43816 0.32226 0.0
C33 C 1.00181 0.50673 0.42674 0.0
C34 C 0.95001 0.45477 0.42967 0.0
N35 N 0.99466 0.46164 0.11179 0.0
C36 C 0.99209 0.44813 1.00351 0.0
C37 C 0.94252 0.40749 0.10519 0.0
C38 C 0.97017 0.44207 0.16171 0.0
C39 C 0.9409 0.39218 0.99824 0.0
C40 C 0.96551 0.41293 0.94628 0.0
H41 H 0.93098 0.44166 0.47206 0.0
H42 H 0.8999 0.39007 0.30372 0.0
H43 H 0.89592 0.36253 0.11404 0.0
O44 O 1.01133 0.53374 0.1457 0.0
O45 O 0.02719 0.45178 0.22062 0.0
O46 O 0.06303 0.45449 0.13235 0.0
O47 O 0.0434 0.56975 0.29411 0.0
O48 O 0.05383 0.51914 1.05299 0.0
O49 O 0.09186 0.50663 1.06873 0.0
O50 O 0.08569 0.44556 0.31016 0.0
O51 O 0.11368 0.56368 0.32521 0.0
O52 O 0.0824 0.56708 0.19982 0.0
O53 O 0.1319 0.48043 0.29169 0.0
O54 O 0.08938 0.50119 0.42398 0.0
O55 O 0.05589 0.52097 0.41006 0.0
C56 C 0.03523 0.43331 0.15169 0.0
C57 C 1.00132 0.57644 0.25625 0.0
C58 C 0.96628 0.59748 0.21131 0.0
C59 C 0.96349 0.60103 0.32153 0.0
C60 C 0.99997 0.58354 0.36719 0.0
C61 C 0.98014 0.5938 0.39875 0.0
C62 C 0.98443 0.58375 0.17866 0.0
C63 C 0.07323 0.51334 1.00347 0.0
C64 C 0.02245 0.56593 0.22019 0.0
C65 C 0.9196 0.40449 0.26497 0.0
C66 C 0.9173 0.38897 0.1569 0.0
C67 C 0.10649 0.58653 0.27647 0.0
C68 C 0.10969 0.40935 0.27451 0.0
C69 C 0.1252 0.35992 0.29095 0.0
C70 C 0.10966 0.34166 0.18179 0.0
C71 C 0.09437 0.38924 0.16842 0.0
C72 C 0.12497 0.39459 0.336 0.0
C73 C 0.09449 0.35589 0.12273 0.0
C74 C 0.07256 0.51143 0.47492 0.0
C75 C 0.11095 0.44693 0.31811 0.0
H76 H 0.94917 0.61067 0.34843 0.0
H77 H 1.01474 0.58245 0.43038 0.0
H78 H 0.97872 0.59804 0.48422 0.0
H79 H 0.98677 0.58094 0.09369 0.0
H80 H 0.10878 0.31615 0.13818 0.0
H81 H 0.08256 0.39967 0.12006 0.0
H82 H 0.13663 0.41059 0.41794 0.0
H83 H 0.08282 0.34094 1.03981 0.0
Tb84 Tb 0.56056 0.53359 1.06039 0.0
C85 C 0.63125 0.4558 0.18898 0.0
N86 N 0.64033 0.4955 0.21506 0.0
C87 C 0.66999 0.50201 0.38392 0.0
C88 C 0.64047 0.4374 0.26135 0.0
C89 C 0.66043 0.51903 0.30956 0.0
C90 C 0.65961 0.46088 0.36054 0.0
C91 C 0.60734 0.39463 1.05191 0.0
C92 C 0.61505 0.43474 1.08506 0.0
C93 C 0.61474 0.37535 0.12631 0.0
C94 C 0.63137 0.39673 0.23063 0.0
Tb95 Tb 0.62145 0.51871 1.08719 0.0
N96 N 0.60865 0.45454 1.01423 0.0
C97 C 0.59344 0.37559 0.94375 0.0
C98 C 0.59708 0.43697 0.90636 0.0
C99 C 0.58875 0.3971 0.87037 0.0
H100 H 0.66809 0.55063 0.33024 0.0
H101 H 0.57867 0.38294 0.78584 0.0
H102 H 0.51609 0.50422 0.81968 0.0
H103 H 0.59785 0.65908 0.39111 0.0
H104 H 0.59289 0.45264 0.84811 0.0
H105 H 0.58715 0.3448 0.91526 0.0
H106 H 0.59614 0.60039 0.30043 0.0
H107 H 0.68528 0.52063 0.45954 0.0
H108 H 0.60864 0.34438 0.10261 0.0
H109 H 0.63794 0.38197 0.28561 0.0
H110 H 0.49033 0.52946 0.70925 0.0
H111 H 0.66722 0.44787 0.41812 0.0
H112 H 0.57189 0.68711 0.29513 0.0
N113 N 0.53641 0.55467 0.9503 0.0
C114 C 0.53882 0.58959 0.99173 0.0
C115 C 0.504 0.54674 0.78835 0.0
C116 C 0.52315 0.60385 0.93388 0.0
C117 C 0.51896 0.53284 0.85049 0.0
C118 C 0.50611 0.58241 0.83017 0.0
N119 N 0.56889 0.59335 0.15084 0.0
C120 C 0.584 0.61102 0.25628 0.0
C121 C 0.5553 0.64275 0.14695 0.0
C122 C 0.55487 0.60889 0.09661 0.0
C123 C 0.57095 0.66094 0.25393 0.0
C124 C 0.58547 0.64508 0.30853 0.0
H125 H 0.49384 0.59253 0.78305 0.0
H126 H 0.51144 0.64878 0.94108 0.0
H127 H 0.53828 0.68126 0.12889 0.0
O128 O 0.53487 0.48668 0.14671 0.0
O129 O 0.60407 0.59232 1.06797 0.0
O130 O 0.63634 0.58225 0.17136 0.0
O131 O 0.51698 0.51859 1.06696 0.0
O132 O 0.57326 0.53113 0.24479 0.0
O133 O 0.61423 0.52619 0.26622 0.0
O134 O 0.6555 0.56638 1.02032 0.0
O135 O 0.57408 0.46039 1.06463 0.0
O136 O 0.54635 0.4753 0.95499 0.0
O137 O 0.66113 0.52034 1.07432 0.0
O138 O 0.60956 0.52139 0.90249 0.0
O139 O 0.56956 0.52888 0.8823 0.0
C140 C 0.63022 0.60805 0.13248 0.0
C141 C 0.48184 0.45273 0.09289 0.0
C142 C 0.43644 0.40782 0.16388 0.0
C143 C 0.42036 0.39293 1.05462 0.0
C144 C 0.4657 0.43826 0.98596 0.0
C145 C 0.43502 0.40801 0.96708 0.0
C146 C 0.46765 0.43672 0.17948 0.0
C147 C 0.59335 0.52832 0.31315 0.0
C148 C 0.51169 0.4898 0.12223 0.0
C149 C 0.52378 0.63776 0.98331 0.0
C150 C 0.53939 0.65667 0.09007 0.0
C151 C 0.54912 0.44707 0.9926 0.0
C152 C 0.70544 0.58437 1.08621 0.0
C153 C 0.75908 0.61714 1.07929 0.0
C154 C 0.76594 0.63224 0.19156 0.0
C155 C 0.71299 0.60319 0.19563 0.0
C156 C 0.72864 0.592 1.02749 0.0
C157 C 0.74308 0.62623 0.24875 0.0
C158 C 0.59015 0.52574 0.83508 0.0
C159 C 0.67374 0.55396 1.03553 0.0
H160 H 0.39651 0.36991 1.03408 0.0
H161 H 0.47649 0.4512 0.91825 0.0
H162 H 0.42238 0.39719 0.8846 0.0
H163 H 0.48151 0.44985 0.25947 0.0
H164 H 0.78907 0.64896 0.23459 0.0
H165 H 0.69562 0.59944 0.24034 0.0
H166 H 0.72304 0.57858 0.94191 0.0
H167 H 0.7487 0.63933 0.33446 0.0
Tb168 Tb 0.62416 0.17163 0.96246 0.0
C169 C 0.53845 0.98706 0.75449 0.0
N170 N 0.53417 1.01794 0.74836 0.0
C171 C 0.50511 0.98572 0.56749 0.0
C172 C 0.52707 0.95494 0.66568 0.0
C173 C 0.51636 1.0165 0.65845 0.0
C174 C 0.51102 0.95526 0.57024 0.0
C175 C 0.55167 0.95064 0.86953 0.0
C176 C 0.55066 0.98499 0.85489 0.0
C177 C 0.54263 0.92016 0.77926 0.0
C178 C 0.53037 0.92234 0.67736 0.0
Tb179 Tb 0.55538 0.06814 0.90031 0.0
N180 N 0.55836 1.0145 0.94076 0.0
C181 C 0.55992 0.94674 0.97538 0.0
C182 C 0.56387 1.00893 1.04511 0.0
C183 C 0.56532 0.97551 1.06373 0.0
H184 H 0.51129 0.03964 0.65657 0.0
H185 H 0.5707 0.97207 0.14628 0.0
H186 H 0.66468 0.18939 0.20636 0.0
H187 H 0.60903 0.27341 0.74037 0.0
H188 H 0.56809 0.03065 0.11469 0.0
H189 H 0.56091 0.92078 0.99014 0.0
H190 H 0.60451 0.20959 0.76334 0.0
H191 H 0.4917 0.98535 0.49562 0.0
H192 H 0.54365 0.89384 0.78853 0.0
H193 H 0.52213 0.89764 0.60965 0.0
H194 H 0.69447 0.24547 0.36182 0.0
H195 H 0.50188 0.93112 0.50025 0.0
H196 H 0.63508 0.33192 0.89275 0.0
N197 N 0.65324 0.22285 0.11062 0.0
C198 C 0.65605 0.25887 0.10641 0.0
C199 C 0.6839 0.24979 0.29031 0.0
C200 C 0.67262 0.2918 0.19453 0.0
C201 C 0.66728 0.21814 0.20081 0.0
C202 C 0.68647 0.28678 0.28748 0.0
N203 N 0.62823 0.23078 0.92836 0.0
C204 C 0.61662 0.23468 0.83064 0.0
C205 C 0.64607 0.30033 1.00196 0.0
C206 C 0.64307 0.26301 1.01182 0.0
C207 C 0.63343 0.30387 0.90342 0.0
C208 C 0.61883 0.27097 0.81721 0.0
H209 H 0.69935 0.31127 0.35694 0.0
H210 H 0.68762 0.35432 0.25325 0.0
H211 H 0.66446 0.36189 1.08406 0.0
O212 O 0.64581 0.14832 0.87461 0.0
O213 O 0.58047 0.17266 0.93891 0.0
O214 O 0.54279 0.10992 0.84151 0.0
O215 O 0.6712 0.20972 0.95901 0.0
O216 O 0.60917 0.15409 0.77162 0.0
O217 O 0.56684 0.08895 0.73241 0.0
O218 O 0.5273 0.07151 0.99995 0.0
O219 O 0.59839 0.0707 0.92583 0.0
O220 O 0.62663 0.12746 1.05298 0.0
O221 O 0.51138 1.01675 0.88226 0.0
O222 O 0.56812 0.08949 0.09235 0.0
O223 O 0.60911 0.15568 0.13174 0.0
C224 C 0.55176 0.1475 0.88429 0.0
C225 C 0.69916 0.177 0.94765 0.0
C226 C 0.74642 0.17644 0.93916 0.0
C227 C 0.74543 0.16747 1.04526 0.0
C228 C 0.70063 0.1688 1.05378 0.0
C229 C 0.72311 0.16396 0.10151 0.0
C230 C 0.72285 0.18138 0.88964 0.0
C231 C 0.58797 0.12178 0.69461 0.0
C232 C 0.67308 0.18146 0.90392 0.0
C233 C 0.67516 0.32875 0.18633 0.0
C234 C 0.66193 0.33302 0.09009 0.0
C235 C 0.61998 0.09119 1.01161 0.0
C236 C 0.47511 0.02774 0.93685 0.0
C237 C 0.43162 1.01141 1.01749 0.0
C238 C 0.41927 1.01907 0.92508 0.0
C239 C 0.46305 0.03501 0.84333 0.0
C240 C 0.45911 1.01496 1.02089 0.0
C241 C 0.43505 0.0308 0.83796 0.0
C242 C 0.58772 0.12288 0.16985 0.0
C243 C 0.50482 0.03455 0.95633 0.0
H244 H 0.76247 0.16353 1.08608 0.0
H245 H 0.68413 0.16608 0.10086 0.0
H246 H 0.72328 0.15748 0.18379 0.0
H247 H 0.72286 0.18824 0.80778 0.0
H248 H 0.39795 1.01674 0.92123 0.0
H249 H 0.47556 0.04507 0.77726 0.0
H250 H 0.46853 1.00835 0.09111 0.0
H251 H 0.42587 0.03735 0.76739 0.0
Tb252 Tb 0.70679 0.8808 0.29291 0.0
C253 C 0.83719 0.92355 0.2464 0.0
N254 N 0.81009 0.88759 0.21213 0.0
C255 C 0.82878 0.87309 1.05869 0.0
C256 C 0.86091 0.93606 0.18643 0.0
C257 C 0.80615 0.8616 0.12184 0.0
C258 C 0.85612 0.91074 0.09018 0.0
C259 C 0.87088 0.98105 0.39129 0.0
C260 C 0.84217 0.94574 0.34773 0.0
C261 C 0.89414 0.99459 0.32973 0.0
C262 C 0.8891 0.9723 0.22717 0.0
Tb263 Tb 0.77444 0.87328 0.32141 0.0
N264 N 0.8196 0.93074 0.40737 0.0
C265 C 0.87569 1.001 0.49684 0.0
C266 C 0.82529 0.94788 0.51453 0.0
C267 C 0.853 0.98389 0.55955 0.0
H268 H 0.78504 0.83254 0.09564 0.0
H269 H 0.85671 0.99841 0.64252 0.0
H270 H 0.69252 0.91454 0.51667 0.0
H271 H 0.63099 0.76737 0.93678 0.0
H272 H 0.80816 0.93519 0.56457 0.0
H273 H 0.89715 0.02892 0.53129 0.0
H274 H 0.68014 0.82025 1.04393 0.0
H275 H 0.82512 0.85281 0.98577 0.0
H276 H 0.91626 1.02185 0.36162 0.0
H277 H 0.90747 0.98257 0.18178 0.0
H278 H 0.64894 0.89282 0.6103 0.0
H279 H 0.87374 0.9193 1.04177 0.0
H280 H 0.58492 0.74129 1.01793 0.0
N281 N 0.66811 0.86373 0.38663 0.0
C282 C 0.64062 0.83059 0.3377 0.0
C283 C 0.64635 0.8749 0.5341 0.0
C284 C 0.6148 0.81861 0.38524 0.0
C285 C 0.67105 0.88681 0.4815 0.0
C286 C 0.61813 0.84045 0.4862 0.0
N287 N 0.66315 0.82561 0.18828 0.0
C288 C 0.66069 0.81021 1.08199 0.0
C289 C 0.60906 0.781 0.1741 0.0
C290 C 0.63789 0.81162 0.2339 0.0
C291 C 0.60667 0.76481 1.06643 0.0
C292 C 0.63259 0.77963 1.02012 0.0
H293 H 0.59883 0.832 0.52552 0.0
H294 H 0.5661 0.77793 0.36188 0.0
H295 H 0.56102 0.74726 0.17525 0.0
O296 O 0.72233 0.93607 0.23043 0.0
O297 O 0.69439 0.81523 0.27895 0.0
O298 O 0.73441 0.81587 0.22372 0.0
O299 O 0.67706 0.89998 0.25611 0.0
O300 O 0.72301 0.88277 0.12401 0.0
O301 O 0.76011 0.86922 0.13418 0.0
O302 O 0.76205 0.82162 0.39557 0.0
O303 O 0.78331 0.936 0.33444 0.0
O304 O 0.74566 0.93144 0.41512 0.0
O305 O 0.80707 0.86007 0.36452 0.0
O306 O 0.76019 0.87434 0.49369 0.0
O307 O 0.71917 0.88033 0.47969 0.0
C308 C 0.7064 0.795 0.24271 0.0
C309 C 0.69631 0.97018 0.26508 0.0
C310 C 0.67958 1.01851 0.24403 0.0
C311 C 0.69074 0.03327 0.3575 0.0
C312 C 0.70801 0.9879 0.37503 0.0
C313 C 0.70509 1.01884 0.4205 0.0
C314 C 0.68229 0.98582 0.19891 0.0
C315 C 0.7416 0.87632 1.07157 0.0
C316 C 0.69649 0.93317 0.22433 0.0
C317 C 0.58626 0.78711 0.32751 0.0
C318 C 0.58337 0.76906 0.22149 0.0
C319 C 0.7739 0.95331 0.40029 0.0
C320 C 0.78976 0.79171 0.35798 0.0
C321 C 0.81026 0.74973 0.38508 0.0
C322 C 0.80162 0.73466 0.27223 0.0
C323 C 0.77982 0.7742 0.24715 0.0
C324 C 0.80443 0.77884 0.42724 0.0
C325 C 0.78582 0.74592 0.20448 0.0
C326 C 0.73953 0.8766 0.54418 0.0
C327 C 0.78857 0.82693 0.39882 0.0
H328 H 0.68815 0.05574 0.40131 0.0
H329 H 0.71868 0.97688 0.42705 0.0
H330 H 0.71353 0.03134 0.50668 0.0
H331 H 0.67345 0.9722 0.11364 0.0
H332 H 0.8072 0.71429 0.23595 0.0
H333 H 0.76773 0.78277 0.19343 0.0
H334 H 0.8125 0.7929 0.51264 0.0
H335 H 0.77871 0.73327 0.1182 0.0
Tb336 Tb 0.18695 0.85873 0.45203 0.0
C337 C 0.26795 0.7873 0.55501 0.0
N338 N 0.27139 0.82306 0.59501 0.0
C339 C 0.30233 0.82948 0.7595 0.0
C340 C 0.28233 0.77178 0.61504 0.0
C341 C 0.2887 0.84456 0.69531 0.0
C342 C 0.29911 0.79289 0.71929 0.0
C343 C 0.25079 0.73338 0.40108 0.0
C344 C 0.25217 0.76822 0.4496 0.0
C345 C 0.26567 0.71847 0.45967 0.0
C346 C 0.28084 0.73702 0.56709 0.0
Tb347 Tb 0.24884 0.84554 0.48213 0.0
N348 N 0.23966 0.78509 0.39274 0.0
C349 C 0.23542 0.71536 0.29378 0.0
C350 C 0.22505 0.76773 0.28671 0.0
C351 C 0.22233 0.73247 0.23674 0.0
H352 H 0.29239 0.87378 0.72521 0.0
H353 H 0.21026 0.71866 0.15374 0.0
H354 H 0.13864 0.82351 0.21423 0.0
H355 H 0.22768 0.99491 0.74827 0.0
H356 H 0.21422 0.77953 0.24019 0.0
H357 H 0.23373 0.68848 0.25391 0.0
H358 H 0.21454 0.92553 0.68911 0.0
H359 H 0.31584 0.84651 0.839 0.0
H360 H 0.26634 0.69334 0.42146 0.0
H361 H 0.29226 0.72511 0.61093 0.0
H362 H 0.12083 0.8518 1.07998 0.0
H363 H 0.31036 0.78181 0.76807 0.0
H364 H 0.21863 0.03182 0.61589 0.0
N365 N 0.16678 0.88 0.32364 0.0
C366 C 0.17542 0.91954 0.34705 0.0
C367 C 0.13634 0.87125 0.15444 0.0
C368 C 0.16569 0.93688 0.2729 0.0
C369 C 0.14641 0.8553 0.23078 0.0
C370 C 0.14644 0.91238 0.17465 0.0
N371 N 0.19852 0.92246 0.5224 0.0
C372 C 0.21001 0.94062 0.62985 0.0
C373 C 0.19886 0.98137 0.48113 0.0
C374 C 0.19163 0.9414 0.45017 0.0
C375 C 0.21269 1.0011 0.58894 0.0
C376 C 0.21776 0.98034 0.66396 0.0
H377 H 0.13843 0.92455 0.11564 0.0
H378 H 0.16749 0.99155 0.24468 0.0
H379 H 0.19687 0.03065 0.42667 0.0
O380 O 0.15453 0.81139 0.52369 0.0
O381 O 0.23368 0.91735 0.47415 0.0
O382 O 0.26193 0.9035 0.58518 0.0
O383 O 0.14559 0.85332 0.45887 0.0
O384 O 0.19902 0.8568 0.63776 0.0
O385 O 0.23974 0.85079 0.65957 0.0
O386 O 0.27677 0.89392 0.40286 0.0
O387 O 0.20494 0.78771 0.47721 0.0
O388 O 0.17463 0.79745 0.36292 0.0
O389 O 0.29215 0.85881 0.47863 0.0
O390 O 0.23652 0.84855 0.29732 0.0
O391 O 0.19476 0.85188 0.27391 0.0
C392 C 0.25866 0.9311 0.54613 0.0
C393 C 0.10372 0.7868 0.44913 0.0
C394 C 0.0494 0.74712 0.4499 0.0
C395 C 0.04487 0.72319 0.35027 0.0
C396 C 0.09864 0.76268 0.34959 0.0
C397 C 0.06936 0.7311 0.30043 0.0
C398 C 0.07901 0.77919 0.49853 0.0
C399 C 0.2188 0.85325 0.70598 0.0
C400 C 0.1345 0.82047 0.50123 0.0
C401 C 0.1744 0.9775 0.3011 0.0
C402 C 0.19105 0.99974 0.40488 0.0
C403 C 0.17991 0.77171 0.40593 0.0
C404 C 0.32952 0.92583 0.46654 0.0
C405 C 0.37599 0.96661 0.39802 0.0
C406 C 0.39247 0.97425 0.50329 0.0
C407 C 0.34591 0.93394 0.57107 0.0
C408 C 0.34441 0.94546 0.38493 0.0
C409 C 0.37736 0.95909 0.5898 0.0
C410 C 0.21617 0.85074 0.22816 0.0
C411 C 0.29924 0.88957 0.42946 0.0
H412 H 0.02238 0.69846 0.31066 0.0
H413 H 0.11727 0.76828 0.30985 0.0
H414 H 0.06562 0.71261 0.22358 0.0
H415 H 0.08292 0.79771 0.57576 0.0
H416 H 0.41681 0.99036 0.5194 0.0
H417 H 0.33467 0.91912 0.6359 0.0
H418 H 0.33073 0.94055 0.30777 0.0
H419 H 0.39007 0.96432 0.66955 0.0
Tb420 Tb 0.25092 0.31366 0.6354 0.0
C421 C 0.15115 0.12245 0.43507 0.0
N422 N 0.15295 0.15772 0.42833 0.0
C423 C 0.12192 0.12867 0.24953 0.0
C424 C 0.13479 0.08878 0.34891 0.0
C425 C 0.1384 0.16112 0.33716 0.0
C426 C 0.12016 0.09232 0.25522 0.0
C427 C 0.16387 0.08374 0.54121 0.0
C428 C 0.16538 0.12004 0.52961 0.0
C429 C 0.14793 0.05018 0.45544 0.0
C430 C 0.13345 0.05271 0.35934 0.0
Tb431 Tb 0.1821 0.21048 0.57232 0.0
N432 N 0.18042 0.15315 0.61057 0.0
C433 C 0.1783 0.08219 0.63871 0.0
C434 C 0.19409 0.1513 0.707 0.0
C435 C 0.19341 0.11609 0.722 0.0
H436 H 0.14035 0.1894 0.32974 0.0
H437 H 0.20478 0.11529 0.79772 0.0
H438 H 0.29508 0.34091 0.87729 0.0
H439 H 0.23567 0.40987 0.38969 0.0
H440 H 0.20674 0.17724 0.77183 0.0
H441 H 0.17786 0.055 0.65057 0.0
H442 H 0.23752 0.35071 0.42101 0.0
H443 H 0.11084 0.13189 0.17725 0.0
H444 H 0.14647 1.02205 0.46295 0.0
H445 H 0.12111 0.02656 0.294 0.0
H446 H 0.31651 0.39606 1.03726 0.0
H447 H 0.10743 0.06722 0.18714 0.0
H448 H 0.24765 0.46261 0.54556 0.0
N449 N 0.27374 0.36455 0.78549 0.0
C450 C 0.2704 0.39619 0.77958 0.0
C451 C 0.30337 0.3963 0.96562 0.0
C452 C 0.28271 0.42869 0.86794 0.0
C453 C 0.29116 0.3651 0.87509 0.0
C454 C 0.29867 0.42787 0.96282 0.0
N455 N 0.24898 0.36802 0.59469 0.0
C456 C 0.24272 0.37309 0.49048 0.0
C457 C 0.2573 0.43292 0.66557 0.0
C458 C 0.25779 0.3982 0.68005 0.0
C459 C 0.24829 0.4364 0.56022 0.0
C460 C 0.24166 0.4068 0.47201 0.0
H461 H 0.3085 0.45226 1.03252 0.0
H462 H 0.28914 0.48695 0.92389 0.0
H463 H 0.26693 0.49071 0.74626 0.0
O464 O 0.27794 0.30558 0.53949 0.0
O465 O 0.20816 0.31132 0.60894 0.0
O466 O 0.17988 0.25435 0.482 0.0
O467 O 0.29552 0.36299 0.64798 0.0
O468 O 0.23837 0.29241 0.443 0.0
O469 O 0.19644 0.22679 0.40244 0.0
O470 O 0.16072 0.23393 0.66103 0.0
O471 O 0.22626 0.21172 0.58529 0.0
O472 O 0.25942 0.27016 0.70558 0.0
O473 O 0.135 0.17269 0.57437 0.0
O474 O 0.19691 0.22808 0.76365 0.0
O475 O 0.23873 0.2938 0.80361 0.0
C476 C 0.18668 0.29061 0.52312 0.0
C477 C 0.33028 0.34711 0.60417 0.0
C478 C 0.37523 0.3616 0.53529 0.0
C479 C 0.38567 0.35403 0.63263 0.0
C480 C 0.34033 0.33928 0.70094 0.0
C481 C 0.36814 0.34285 0.71508 0.0
C482 C 0.34801 0.35938 0.52446 0.0
C483 C 0.21836 0.25932 0.36498 0.0
C484 C 0.30127 0.3424 0.57904 0.0
C485 C 0.28015 0.46191 0.85653 0.0
C486 C 0.26749 0.46404 0.75538 0.0
C487 C 0.25307 0.23525 0.65245 0.0
C488 C 0.10773 0.20634 0.58656 0.0
C489 C 0.06129 0.20867 0.59626 0.0
C490 C 0.0622 0.21735 0.48987 0.0
C491 C 0.10629 0.21436 0.48014 0.0
C492 C 0.08447 0.203 0.64529 0.0
C493 C 0.08415 0.21992 0.43288 0.0
C494 C 0.21771 0.26069 0.84101 0.0
C495 C 0.13336 0.20107 0.63022 0.0
H496 H 0.40691 0.35616 0.6446 0.0
H497 H 0.32683 0.3305 0.76445 0.0
H498 H 0.37588 0.33637 0.78921 0.0
H499 H 0.34017 0.36694 0.45244 0.0
H500 H 0.04539 0.22177 0.44943 0.0
H501 H 0.12255 0.21644 0.43246 0.0
H502 H 0.08449 0.19631 0.72734 0.0
H503 H 0.08395 0.22623 0.35041 0.0
Tb504 Tb 0.3919 0.17925 0.89499 0.0
C505 C 0.45925 0.19759 0.5406 0.0
N506 N 0.45353 0.22485 0.58547 0.0
C507 C 0.50517 0.27869 0.59162 0.0
C508 C 0.48876 0.20875 0.53226 0.0
C509 C 0.47584 0.26533 0.60842 0.0
C510 C 0.51183 0.25017 0.55542 0.0
C511 C 0.44042 0.12665 0.48836 0.0
C512 C 0.43546 0.15765 0.51572 0.0
C513 C 0.47021 0.13689 0.48971 0.0
C514 C 0.49423 0.17801 0.50748 0.0
Tb515 Tb 0.40644 0.19974 0.63009 0.0
N516 N 0.4074 0.1495 0.52098 0.0
C517 C 0.41522 0.08672 0.45895 0.0
C518 C 0.38287 0.11194 0.47242 0.0
C519 C 0.3863 0.07959 0.44474 0.0
H520 H 0.47125 0.28737 0.64131 0.0
H521 H 0.36669 0.04923 0.41336 0.0
H522 H 0.32295 0.09198 0.8123 0.0
H523 H 0.42419 0.32086 0.14527 0.0
H524 H 0.36047 0.10615 0.45724 0.0
H525 H 0.41782 0.06169 0.44079 0.0
H526 H 0.43371 0.27175 1.05967 0.0
H527 H 0.52283 0.3108 0.61045 0.0
H528 H 0.4747 0.11337 0.47223 0.0
H529 H 0.51693 0.18564 0.50435 0.0
H530 H 0.27028 0.06906 0.80624 0.0
H531 H 0.53484 0.26031 0.54811 0.0
H532 H 0.37189 0.29945 0.15982 0.0
N533 N 0.3411 0.15211 0.89501 0.0
C534 C 0.33443 0.17527 0.95783 0.0
C535 C 0.28803 0.09949 0.84697 0.0
C536 C 0.30417 0.1628 0.96004 0.0
C537 C 0.3183 0.11339 0.84657 0.0
C538 C 0.28087 0.12464 0.9021 0.0
N539 N 0.387 0.22424 1.00797 0.0
C540 C 0.4106 0.26239 1.057 0.0
C541 C 0.35196 0.23948 1.07064 0.0
C542 C 0.3581 0.21271 1.01504 0.0
C543 C 0.37602 0.27859 0.117 0.0
C544 C 0.4054 0.29051 0.10836 0.0
H545 H 0.25739 0.11395 0.9017 0.0
H546 H 0.27506 0.17999 1.02056 0.0
H547 H 0.317 0.24766 0.11596 0.0
O548 O 0.39745 0.17127 1.05676 0.0
O549 O 0.37091 0.21052 0.81287 0.0
O550 O 0.35905 0.18251 0.63658 0.0
O551 O 0.37356 0.11979 0.92454 0.0
O552 O 0.43873 0.23718 0.91446 0.0
O553 O 0.42831 0.25559 0.75907 0.0
O554 O 0.39924 0.20925 0.47221 0.0
O555 O 0.43995 0.1869 0.71948 0.0
O556 O 0.43711 0.18699 0.89772 0.0
O557 O 0.41366 0.25691 0.61288 0.0
O558 O 0.36132 0.14099 0.62012 0.0
O559 O 0.37787 0.12574 0.76654 0.0
C560 C 0.35287 0.19937 0.71705 0.0
C561 C 0.40343 0.11596 1.06444 0.0
C562 C 0.44979 0.14225 0.18492 0.0
C563 C 0.43772 0.10456 0.22052 0.0
C564 C 0.3895 0.07999 0.10774 0.0
C565 C 0.40717 0.07344 0.1824 0.0
C566 C 0.43509 0.1412 1.08493 0.0
C567 C 0.44622 0.2661 0.85372 0.0
C568 C 0.38555 0.1322 1.02707 0.0
C569 C 0.29811 0.1889 1.0187 0.0
C570 C 0.32197 0.22729 1.07348 0.0
C571 C 0.45016 0.18349 0.8167 0.0
C572 C 0.40861 0.27456 0.43404 0.0
C573 C 0.43652 0.27241 0.30274 0.0
C574 C 0.45991 0.31359 0.34148 0.0
C575 C 0.43026 0.31622 0.47282 0.0
C576 C 0.40795 0.26089 0.327 0.0
C577 C 0.4556 0.33649 0.42193 0.0
C578 C 0.35805 0.11251 0.67597 0.0
C579 C 0.40782 0.24678 0.50699 0.0
H580 H 0.4504 0.10122 0.28647 0.0
H581 H 0.36515 0.05909 0.09132 0.0
H582 H 0.39637 0.04656 0.21934 0.0
H583 H 0.44573 0.16948 1.05532 0.0
H584 H 0.48187 0.32698 0.31836 0.0
H585 H 0.4307 0.33059 0.55151 0.0
H586 H 0.38768 0.23253 0.28652 0.0
H587 H 0.47353 0.36775 0.45488 0.0
Tb588 Tb 0.90216 0.22267 0.65788 0.0
C589 C 0.95632 0.14413 0.89229 0.0
N590 N 0.92753 0.12812 0.84015 0.0
C591 C 0.92436 0.06722 0.76587 0.0
C592 C 0.97068 0.12294 0.87836 0.0
C593 C 0.9113 0.08981 0.77823 0.0
C594 C 0.95427 0.08405 0.8146 0.0
C595 C 1.00135 0.19922 1.01445 0.0
C596 C 0.97138 0.18187 0.95983 0.0
C597 C 0.01617 0.17914 0.99624 0.0
C598 C 1.0008 0.14095 0.92903 0.0
Tb599 Tb 0.90694 0.1651 0.8824 0.0
N600 N 0.95604 0.2 0.97855 0.0
C601 C 0.0151 0.23522 0.0902 0.0
C602 C 0.96837 0.23213 1.06333 0.0
C603 C 0.99824 0.25117 0.11663 0.0
H604 H 0.88811 0.07653 0.74011 0.0
H605 H 1.00787 0.27736 0.18085 0.0
H606 H 0.91951 0.31225 0.78768 0.0
H607 H 0.80298 0.10794 0.35597 0.0
H608 H 0.95519 0.24271 0.09394 0.0
H609 H 0.03805 0.24951 0.13345 0.0
H610 H 0.85575 0.14497 0.44453 0.0
H611 H 0.91139 0.03665 0.71972 0.0
H612 H 0.03919 0.19223 1.03689 0.0
H613 H 1.01227 0.12532 0.91805 0.0
H614 H 0.89534 0.35151 0.79309 0.0
H615 H 0.96436 0.06658 0.8035 0.0
H616 H 0.77103 0.1331 0.40169 0.0
N617 N 0.88033 0.25859 0.69321 0.0
C618 C 0.85132 0.24111 0.64114 0.0
C619 C 0.88255 0.3199 0.75485 0.0
C620 C 0.83627 0.26154 0.65055 0.0
C621 C 0.89612 0.29775 0.74973 0.0
C622 C 0.85234 0.3014 0.70781 0.0
N623 N 0.85322 0.18622 0.55907 0.0
C624 C 0.84181 0.15443 0.47397 0.0
C625 C 0.80689 0.18437 0.52061 0.0
C626 C 0.83695 0.20304 0.57618 0.0
C627 C 0.79402 0.14839 0.4456 0.0
C628 C 0.81188 0.13399 0.42 0.0
H629 H 0.84185 0.31853 0.7139 0.0
H630 H 0.79397 0.25711 0.60807 0.0
H631 H 0.76809 0.18925 0.49501 0.0
O632 O 0.90797 0.22655 0.49568 0.0
O633 O 0.87909 0.22265 0.79722 0.0
O634 O 0.86353 0.16249 0.85496 0.0
O635 O 0.92595 0.28077 0.61224 0.0
O636 O 0.88458 0.15528 0.60778 0.0
O637 O 0.86626 0.12716 0.75615 0.0
O638 O 0.90146 0.16084 1.0446 0.0
O639 O 0.93 0.16586 0.74236 0.0
O640 O 0.94589 0.22619 0.68623 0.0
O641 O 0.88359 0.10681 0.92728 0.0
O642 O 0.9245 0.23223 0.93552 0.0
O643 O 0.94223 0.26134 0.78716 0.0
C644 C 0.85842 0.19079 0.83399 0.0
C645 C 0.90669 0.28102 0.43434 0.0
C646 C 0.88493 0.24821 0.25339 0.0
C647 C 0.90131 0.28504 0.21405 0.0
C648 C 0.92645 0.318 0.40057 0.0
C649 C 0.92222 0.32072 0.28969 0.0
C650 C 0.8803 0.25217 0.36034 0.0
C651 C 0.86501 0.12312 0.65011 0.0
C652 C 0.91983 0.2657 0.51033 0.0
C653 C 0.80597 0.24208 0.60017 0.0
C654 C 0.79121 0.20339 0.53621 0.0
C655 C 0.95089 0.19781 0.70679 0.0
C656 C 0.90269 0.10623 0.10526 0.0
C657 C 0.92399 0.13931 0.28618 0.0
C658 C 0.90735 0.10261 0.32591 0.0
C659 C 0.88271 0.06938 0.13914 0.0
C660 C 0.92896 0.13506 0.17984 0.0
C661 C 0.8865 0.06688 0.25038 0.0
C662 C 0.94355 0.2648 0.89345 0.0
C663 C 0.88964 0.12169 1.02935 0.0
H664 H 0.90168 0.28483 0.12764 0.0
H665 H 0.94668 0.34231 0.45532 0.0
H666 H 0.93779 0.34832 0.26155 0.0
H667 H 0.86418 0.22466 0.38774 0.0
H668 H 0.90667 0.10305 0.41218 0.0
H669 H 0.86254 0.04508 1.08407 0.0
H670 H 0.94525 0.16246 0.15244 0.0
H671 H 0.87065 0.03945 0.27861 0.0
Tb672 Tb 0.93168 0.7486 0.87028 0.0
C673 C 0.83405 0.54555 0.67078 0.0
N674 N 0.86431 0.57046 0.67585 0.0
C675 C 0.87006 0.51505 0.69744 0.0
C676 C 0.82066 0.5046 0.68377 0.0
C677 C 0.88215 0.55535 0.68275 0.0
C678 C 0.83925 0.48974 0.69999 0.0
C679 C 0.78449 0.53454 0.62719 0.0
C680 C 0.81622 0.56016 0.64222 0.0
C681 C 0.77105 0.49439 0.64662 0.0
C682 C 0.78911 0.47941 0.67468 0.0
Tb683 Tb 0.88148 0.6352 0.65031 0.0
N684 N 0.83002 0.59873 0.62146 0.0
C685 C 0.76727 0.54951 0.58836 0.0
C686 C 0.81335 0.61223 0.57505 0.0
C687 C 0.78179 0.58832 0.5603 0.0
H688 H 0.90583 0.5746 0.67767 0.0
H689 H 0.76869 0.59954 0.5256 0.0
H690 H 0.92372 0.82161 0.78088 0.0
H691 H 0.0295 0.73976 0.96124 0.0
H692 H 0.82436 0.64113 0.54861 0.0
H693 H 0.74281 0.53078 0.57539 0.0
H694 H 0.97554 0.71356 0.93461 0.0
H695 H 0.88444 0.50344 0.70566 0.0
H696 H 0.7467 0.47426 0.63626 0.0
H697 H 0.77839 0.44793 0.68531 0.0
H698 H 0.95717 0.89018 0.74366 0.0
H699 H 0.82986 0.45841 0.70999 0.0
H700 H 0.06616 0.80942 0.93122 0.0
N701 N 0.95893 0.81098 0.81803 0.0
C702 C 0.9893 0.82789 0.8337 0.0
C703 C 0.96646 0.8728 0.76758 0.0
C704 C 1.00937 0.86792 0.81591 0.0
C705 C 0.94741 0.83319 0.78674 0.0
C706 C 0.99755 0.89025 0.78212 0.0
N707 N 0.98063 0.76669 0.88534 0.0
C708 C 0.99082 0.74348 0.91911 0.0
C709 C 0.03184 0.82174 0.88484 0.0
C710 C 1.00049 0.80518 0.86874 0.0
C711 C 0.04226 0.7978 0.91807 0.0
C712 C 0.02164 0.75846 0.93491 0.0
H713 H 1.01224 0.92115 0.76833 0.0
H714 H 0.05629 0.9154 0.82097 0.0
H715 H 0.07594 0.87489 0.88055 0.0
O716 O 0.94821 0.76059 1.0363 0.0
O717 O 0.94898 0.7395 0.72313 0.0
O718 O 0.93106 0.67053 0.68827 0.0
O719 O 0.93107 0.79472 0.96974 0.0
O720 O 0.92061 0.69083 0.92524 0.0
O721 O 0.91199 0.63845 0.78824 0.0
O722 O 0.88214 0.65499 0.50118 0.0
O723 O 0.85547 0.6404 0.76755 0.0
O724 O 0.88423 0.704 0.88916 0.0
O725 O 0.88274 0.60101 0.51391 0.0
O726 O 0.8931 0.69597 0.68804 0.0
O727 O 0.89853 0.7511 0.75919 0.0
C728 C 0.94925 0.70849 0.67358 0.0
C729 C 0.96452 0.82402 0.14605 0.0
C730 C 0.95724 0.8064 0.31977 0.0
C731 C 0.95197 0.83704 0.35024 0.0
C732 C 0.95856 0.85442 0.16993 0.0
C733 C 0.95416 0.86274 0.27581 0.0
C734 C 0.97383 0.81202 0.23575 0.0
C735 C 0.91908 0.65663 0.89151 0.0
C736 C 0.94373 0.78976 1.05606 0.0
C737 C 0.04059 0.88463 0.83352 0.0
C738 C 0.05178 0.86159 0.86762 0.0
C739 C 0.85945 0.66692 0.85156 0.0
C740 C 0.86022 0.60313 0.34262 0.0
C741 C 0.86351 0.63801 0.19589 0.0
C742 C 0.86631 0.61043 0.12682 0.0
C743 C 0.86318 0.57484 0.27722 0.0
C744 C 0.8515 0.6259 0.28968 0.0
C745 C 0.86432 0.57707 0.1663 0.0
C746 C 0.88479 0.72134 0.67786 0.0
C747 C 0.88071 0.62358 0.44889 0.0
H748 H 0.94125 0.83629 0.41995 0.0
H749 H 0.95302 0.86703 0.10508 0.0
H750 H 0.94792 0.88436 0.29398 0.0
H751 H 0.98063 0.79083 0.21872 0.0
H752 H 0.87384 0.61755 1.04998 0.0
H753 H 0.8686 0.55513 0.31383 0.0
H754 H 0.84798 0.64654 0.33941 0.0
H755 H 0.86817 0.5569 0.1164 0.0
C756 C 0.05527 0.52175 0.79421 0.0
C757 C 0.07343 0.5134 0.86815 0.0
H758 H 0.04036 0.52876 0.63248 0.0
C759 C 0.09128 0.50454 0.80464 0.0
H760 H 0.04048 0.52887 0.82909 0.0
C761 C 0.09097 0.50404 0.68508 0.0
C762 C 0.07285 0.51247 0.61101 0.0
H763 H 0.10607 0.49744 0.84786 0.0
H764 H 0.10564 0.49669 0.65015 0.0
C765 C 0.05511 0.52151 0.67487 0.0
C766 C 0.61227 0.52355 0.64308 0.0
C767 C 0.59095 0.5262 0.70101 0.0
H768 H 0.63039 0.52204 0.49362 0.0
C769 C 0.5705 0.52972 0.62377 0.0
H770 H 0.62913 0.52078 0.69015 0.0
C771 C 0.57125 0.53046 0.50539 0.0
C772 C 0.59261 0.52791 0.44742 0.0
H773 H 0.55314 0.53201 0.65509 0.0
H774 H 0.55434 0.53314 0.45828 0.0
C775 C 0.61304 0.52436 0.52475 0.0
C776 C 0.60875 0.15619 0.51094 0.0
C777 C 0.58772 0.1223 0.55981 0.0
H778 H 0.6259 0.18415 0.36841 0.0
C779 C 0.56665 0.08862 0.47244 0.0
H780 H 0.62609 0.18382 0.56602 0.0
C781 C 0.56656 0.08876 0.35346 0.0
C782 C 0.58753 0.12268 0.30457 0.0
H783 H 0.5495 0.06079 0.49582 0.0
H784 H 0.54933 0.06104 0.29845 0.0
C785 C 0.60864 0.15637 0.39192 0.0
C786 C 0.72016 0.88104 0.74245 0.0
C787 C 0.74008 0.87663 0.67966 0.0
H788 H 0.70428 0.88468 0.8965 0.0
C789 C 0.76056 0.87212 0.75388 0.0
H790 H 0.70341 0.88474 0.69853 0.0
C791 C 0.761 0.8719 0.87318 0.0
C792 C 0.74112 0.87638 0.93607 0.0
H793 H 0.777 0.8685 0.71928 0.0
H794 H 0.77771 0.86814 0.91691 0.0
C795 C 0.72069 0.88101 0.86186 0.0
C796 C 0.19677 0.85523 0.8985 0.0
C797 C 0.21814 0.85288 0.84016 0.0
H798 H 0.17879 0.85652 1.04843 0.0
C799 C 0.23883 0.84968 0.91712 0.0
H800 H 0.17973 0.85773 0.85171 0.0
C801 C 0.23827 0.84896 1.03559 0.0
C802 C 0.21688 0.85122 0.09393 0.0
H803 H 0.25624 0.84761 0.88548 0.0
H804 H 0.25534 0.84651 1.08239 0.0
C805 C 0.1962 0.85444 1.01692 0.0
C806 C 0.23925 0.29374 1.06273 0.0
C807 C 0.21803 0.2601 0.97557 0.0
H808 H 0.2568 0.32121 0.23669 0.0
C809 C 0.19706 0.22618 1.02436 0.0
H810 H 0.2564 0.32155 1.03917 0.0
C811 C 0.19727 0.22598 0.14332 0.0
C812 C 0.2185 0.25964 0.23048 0.0
H813 H 0.17968 0.19857 0.96929 0.0
H814 H 0.18002 0.19822 0.16697 0.0
C815 C 0.23949 0.29355 0.18168 0.0
C816 C 0.47194 0.24877 0.26608 0.0
C817 C 0.44311 0.24006 0.27951 0.0
H818 H 0.49805 0.2236 0.22882 0.0
C819 C 0.42103 0.19963 0.28663 0.0
H820 H 0.48993 0.2791 0.25935 0.0
C821 C 0.42754 0.17037 0.28883 0.0
C822 C 0.45445 0.17715 0.26075 0.0
H823 H 0.39771 0.18861 0.28733 0.0
H824 H 0.40883 0.13991 0.29093 0.0
C825 C 0.47728 0.21734 0.25363 0.0
C826 C 0.92557 0.23432 0.26455 0.0
C827 C 0.89445 0.21907 0.23845 0.0
H828 H 0.95939 0.22189 0.31136 0.0
C829 C 0.87351 0.17796 0.24151 0.0
H830 H 0.94256 0.26624 0.26824 0.0
C831 C 0.88332 0.15318 0.27251 0.0
C832 C 0.91444 0.16847 0.2991 0.0
H833 H 0.8495 0.16562 0.22581 0.0
H834 H 0.86632 0.12128 0.26941 0.0
C835 C 0.93538 0.20953 0.29549 0.0
C836 C 0.88147 0.71095 0.20802 0.0
C837 C 0.88803 0.68136 0.21593 0.0
H838 H 0.89797 0.77406 0.23994 0.0
C839 C 0.9163 0.69278 0.27415 0.0
H840 H 0.85928 0.70248 0.16981 0.0
C841 C 0.938 0.7333 0.32021 0.0
C842 C 0.93188 0.76337 0.30922 0.0
H843 H 0.92121 0.66995 0.28704 0.0
H844 H 0.96005 0.74145 0.35988 0.0
C845 C 0.90321 0.75158 0.25329 0.0
C846 C 0.15471 0.29144 0.36054 0.0
C847 C 0.17108 0.3088 0.4673 0.0
H848 H 0.12745 0.29077 0.22572 0.0
C849 C 0.17253 0.34357 0.51708 0.0
H850 H 0.15316 0.26502 0.3179 0.0
C851 C 0.15816 0.36029 0.46136 0.0
C852 C 0.14124 0.34257 0.3537 0.0
H853 H 0.18505 0.35819 0.59925 0.0
H854 H 0.16061 0.38722 0.50414 0.0
C855 C 0.1399 0.30733 0.30605 0.0
C856 C 0.68177 0.67907 0.2157 0.0
C857 C 0.6508 0.65595 0.16506 0.0
H858 H 0.72271 0.73842 0.279 0.0
C859 C 0.63904 0.68013 0.1424 0.0
H860 H 0.69264 0.66327 0.23594 0.0
C861 C 0.6562 0.72357 0.17132 0.0
C862 C 0.6873 0.74698 0.21762 0.0
H863 H 0.61592 0.66543 0.10182 0.0
H864 H 0.64479 0.73881 0.15535 0.0
C865 C 0.69946 0.72309 0.23963 0.0
C866 C 0.43465 1.01853 0.21855 0.0
C867 C 0.41709 1.00039 0.11337 0.0
H868 H 0.43618 1.02293 0.38902 0.0
C869 C 0.38666 0.96945 0.10135 0.0
H870 H 0.45843 0.04244 0.22991 0.0
C871 C 0.37377 0.9574 0.19335 0.0
C872 C 0.3907 0.97734 0.29996 0.0
H873 H 0.37309 0.95373 1.02097 0.0
H874 H 0.35058 0.9318 0.17888 0.0
C875 C 0.42169 1.00716 0.31055 0.0
C876 C 0.52991 0.19214 0.81925 0.0
C877 C 0.52736 0.15991 0.87183 0.0
H878 H 0.51016 0.22523 0.76274 0.0
C879 C 0.49894 0.13681 0.90655 0.0
H880 H 0.55049 0.21142 0.78889 0.0
C881 C 0.47503 0.14424 0.88869 0.0
C882 C 0.47726 0.17614 0.83593 0.0
H883 H 0.49504 0.11243 0.94978 0.0
H884 H 0.45402 0.12355 0.9143 0.0
C885 C 0.50591 0.19985 0.8021 0.0
C886 C 0.96595 0.31973 1.07168 0.0
C887 C 0.96737 0.30732 0.96373 0.0
H888 H 0.98499 0.36756 0.21375 0.0
C889 C 0.99223 0.33715 0.92093 0.0
H890 H 0.94803 0.29832 0.10971 0.0
C891 C 1.01419 0.37675 0.982 0.0
C892 C 1.01219 0.38949 1.08864 0.0
H893 H 0.99496 0.32986 0.83904 0.0
H894 H 0.03251 0.39793 0.94394 0.0
C895 C 0.98747 0.35984 0.13192 0.0
C896 C 0.81267 0.61241 0.90986 0.0
C897 C 0.83328 0.65394 0.90729 0.0
H898 H 0.77294 0.56813 0.96699 0.0
C899 C 0.82851 0.68279 0.95787 0.0
H900 H 0.81583 0.58945 0.87192 0.0
C901 C 0.80403 0.67049 1.01184 0.0
C902 C 0.78391 0.62919 1.01679 0.0
H903 H 0.84368 0.71488 0.95572 0.0
H904 H 0.80071 0.6933 1.04927 0.0
C905 C 0.78817 0.60014 0.96418 0.0
C906 C 0.94395 0.66297 1.08136 0.0
C907 C 0.92921 0.64 0.97603 0.0
H908 H 0.96716 0.6676 0.23786 0.0
C909 C 0.92566 0.60201 0.95145 0.0
H910 H 0.94767 0.69269 0.10345 0.0
C911 C 0.93699 0.58768 1.02827 0.0
C912 C 0.95217 0.61102 0.13225 0.0
H913 H 0.91459 0.58336 0.87256 0.0
H914 H 0.93407 0.55842 1.00596 0.0
C915 C 0.95522 0.64862 0.15857 0.0
C916 C 0.52154 0.36909 1.01304 0.0
C917 C 0.52311 0.40035 0.95876 0.0
H918 H 0.49759 0.30485 1.02769 0.0
C919 C 0.49865 0.38589 0.87108 0.0
H920 H 0.53928 0.37745 1.08091 0.0
C921 C 0.47467 0.34363 0.83922 0.0
C922 C 0.4728 0.3123 0.8935 0.0
H923 H 0.498 0.40751 0.82531 0.0
H924 H 0.45716 0.33553 0.77071 0.0
C925 C 0.49713 0.32663 0.98216 0.0
C926 C 0.80201 0.14896 0.85066 0.0
C927 C 0.82899 0.18713 0.85384 0.0
H928 H 0.75525 0.11559 0.8703 0.0
C929 C 0.82711 0.22161 0.87464 0.0
H930 H 0.80196 0.12144 0.8355 0.0
C931 C 0.79976 0.21815 0.89161 0.0
C932 C 0.77282 0.17996 0.8891 0.0
H933 H 0.84721 0.25174 0.88136 0.0
H934 H 0.80016 0.24572 0.91243 0.0
C935 C 0.77476 0.14552 0.86846 0.0
C936 C 0.65372 0.09075 0.17083 0.0
C937 C 0.63586 0.07269 1.06621 0.0
H938 H 0.68305 0.09212 0.30092 0.0
C939 C 0.63324 0.0368 1.01733 0.0
H940 H 0.65652 0.11812 0.21294 0.0
C941 C 0.64708 1.01917 1.07283 0.0
C942 C 0.66503 0.03734 0.17872 0.0
H943 H 0.61995 1.02174 0.9364 0.0
H944 H 0.64327 0.99098 1.0323 0.0
C945 C 0.66856 0.07445 0.22377 0.0
C946 C 0.13461 0.70249 0.28477 0.0
C947 C 0.16002 0.72419 0.37089 0.0
H948 H 0.09843 0.64436 0.18856 0.0
C949 C 0.16725 0.69924 0.42417 0.0
H950 H 0.12786 0.71921 0.23909 0.0
C951 C 0.15043 0.65586 0.39406 0.0
C952 C 0.12502 0.63405 0.30848 0.0
H953 H 0.18637 0.71337 0.49057 0.0
H954 H 0.15749 0.63934 0.43912 0.0
C955 C 0.11759 0.65881 0.25489 0.0
C956 C 0.4376 0.40851 0.36983 0.0
C957 C 0.42111 0.39544 0.2612 0.0
H958 H 0.43625 0.4094 0.54064 0.0
C959 C 0.38945 0.37099 0.24752 0.0
H960 H 0.46183 0.42771 0.39004 0.0
C961 C 0.37513 0.3573 0.3354 0.0
C962 C 0.39157 0.37133 0.44247 0.0
H963 H 0.37495 0.36119 0.16924 0.0
H964 H 0.3508 0.33634 0.31895 0.0
C965 C 0.42295 0.39728 0.45893 0.0
C966 C 0.86525 0.72114 0.4888 0.0
C967 C 0.86111 0.71785 0.59703 0.0
H968 H 0.85281 0.73471 0.33839 0.0
C969 C 0.83892 0.72267 0.63386 0.0
H970 H 0.88328 0.71977 0.46022 0.0
C971 C 0.82164 0.73156 0.56433 0.0
C972 C 0.82658 0.73658 0.4569 0.0
H973 H 0.83591 0.72136 0.71817 0.0
H974 H 0.80499 0.73559 0.59572 0.0
C975 C 0.84807 0.73023 0.4195 0.0
C976 C 0.33392 0.03526 0.68674 0.0
C977 C 0.33301 0.06585 0.63774 0.0
H978 H 0.31299 0.97145 0.69844 0.0
C979 C 0.30689 0.05084 0.55709 0.0
H980 H 0.35301 0.04421 0.74935 0.0
C981 C 0.28326 1.00824 0.52819 0.0
C982 C 0.2842 0.97769 0.57759 0.0
H983 H 0.30435 0.07227 0.51679 0.0
H984 H 0.26402 0.99925 0.46633 0.0
C985 C 0.31048 0.99274 0.6573 0.0
C986 C 1.00744 0.23852 0.69073 0.0
C987 C 0.97994 0.20071 0.685 0.0
H988 H 0.05428 0.27075 0.67182 0.0
C989 C 0.98084 0.16563 0.65984 0.0
H990 H 1.00821 0.26648 0.70907 0.0
C991 C 1.00778 0.16813 0.64175 0.0
C992 C 0.03526 0.20592 0.64712 0.0
H993 H 0.96029 0.1358 0.65049 0.0
H994 H 1.00665 0.14018 0.61783 0.0
C995 C 0.03429 0.24102 0.67154 0.0
C996 C 0.3253 0.23554 0.77511 0.0
C997 C 0.32666 0.20744 0.69992 0.0
H998 H 0.30264 0.26525 0.82225 0.0
C999 C 0.30225 0.18742 0.60892 0.0
H1000 H 0.34302 0.25243 0.84608 0.0
C1001 C 0.27841 0.19504 0.59456 0.0
C1002 C 0.27741 0.22369 0.6694 0.0
H1003 H 0.3014 0.16537 0.54775 0.0
H1004 H 0.26088 0.17871 0.52275 0.0
C1005 C 0.3017 0.2433 0.76048 0.0
C1006 C 0.79413 1.01121 0.56622 0.0
C1007 C 0.79607 0.99774 0.46043 0.0
H1008 H 0.81353 0.05907 0.70684 0.0
C1009 C 0.82075 0.02693 0.41583 0.0
H1010 H 0.77595 0.99033 0.60532 0.0
C1011 C 0.84236 0.06726 0.47409 0.0
C1012 C 0.84102 0.08044 0.58129 0.0
H1013 H 0.82334 1.01851 0.33483 0.0
H1014 H 0.86035 0.0881 0.4352 0.0
C1015 C 0.81613 0.05115 0.6253 0.0
C1016 C 0.99531 0.75883 0.60155 0.0
C1017 C 0.9742 0.7183 0.61245 0.0
H1018 H 0.03564 0.79981 0.54229 0.0
C1019 C 0.97764 0.68749 0.56629 0.0
H1020 H 0.99315 0.78338 0.63401 0.0
C1021 C 1.00197 0.69711 0.51335 0.0
C1022 C 0.02334 0.73754 0.5045 0.0
H1023 H 0.96183 0.65595 0.57233 0.0
H1024 H 1.00468 0.67309 0.4817 0.0
C1025 C 0.01972 0.76837 0.5489 0.0
loop_
_geom_bond_atom_site_label_1
_geom_bond_atom_site_label_2
_geom_bond_distance
_geom_bond_site_symmetry_2
_ccdc_geom_bond_type
Tb0 N29 2.617 . S
Tb0 N35 2.572 . S
Tb0 O44 2.465 . S
Tb0 O45 2.387 . S
Tb0 O47 2.428 . S
Tb0 O48 2.308 1_655 S
Tb0 O52 2.349 1_655 S
Tb0 O55 2.393 1_655 S
Tb0 C64 2.802 . S
C1 N2 1.379 . S
C1 C4 1.416 . S
C1 C8 1.424 . S
N2 C1 1.379 . S
N2 C5 1.334 . S
N2 Tb11 2.617 . S
C3 C5 1.390 1_556 S
C3 C6 1.339 1_556 S
C3 H23 0.930 . S
C4 C1 1.416 . S
C4 C6 1.416 . S
C4 C10 1.448 . S
C5 N2 1.334 . S
C5 C3 1.390 1_554 S
C5 H16 0.930 1_554 S
C6 C3 1.339 1_554 S
C6 C4 1.416 . S
C6 H27 0.930 . S
C7 C8 1.413 . S
C7 C9 1.427 . S
C7 C13 1.416 . S
C8 C1 1.424 . S
C8 C7 1.413 . S
C8 N12 1.361 . S
C9 C7 1.427 . S
C9 C10 1.328 . S
C9 H24 0.929 . S
C10 C4 1.448 . S
C10 C9 1.328 . S
C10 H25 0.930 . S
Tb11 N2 2.617 . S
Tb11 N12 2.572 . S
Tb11 O46 2.349 . S
Tb11 O49 2.393 1_554 S
Tb11 O50 2.465 . S
Tb11 O51 2.387 . S
Tb11 O53 2.428 . S
Tb11 O54 2.308 . S
Tb11 C75 2.802 . S
N12 C8 1.361 . S
N12 Tb11 2.572 . S
N12 C14 1.340 . S
C13 C7 1.416 . S
C13 C15 1.332 . S
C13 H21 0.931 . S
C14 N12 1.340 . S
C14 C15 1.407 . S
C14 H20 0.930 . S
C15 C13 1.332 . S
C15 C14 1.407 . S
C15 H17 0.929 . S
H16 C5 0.930 1_556 S
H17 C15 0.929 . S
H18 C33 0.930 . S
H19 C40 0.929 . S
H20 C14 0.930 . S
H21 C13 0.931 . S
H22 C36 0.930 . S
H23 C3 0.930 . S
H24 C9 0.929 . S
H25 C10 0.930 . S
H26 C31 0.930 . S
H27 C6 0.930 . S
H28 C39 0.931 . S
N29 Tb0 2.617 . S
N29 C30 1.379 . S
N29 C33 1.334 . S
C30 N29 1.379 . S
C30 C32 1.416 . S
C30 C38 1.424 . S
C31 H26 0.930 . S
C31 C33 1.390 . S
C31 C34 1.339 . S
C32 C30 1.416 . S
C32 C34 1.416 . S
C32 C65 1.448 . S
C33 H18 0.930 . S
C33 N29 1.334 . S
C33 C31 1.390 . S
C34 C31 1.339 . S
C34 C32 1.416 . S
C34 H41 0.930 . S
N35 Tb0 2.572 . S
N35 C36 1.340 1_554 S
N35 C38 1.361 . S
C36 H22 0.930 . S
C36 N35 1.340 1_556 S
C36 C40 1.407 . S
C37 C38 1.413 1_556 S
C37 C39 1.416 . S
C37 C66 1.427 . S
C38 C30 1.424 . S
C38 N35 1.361 . S
C38 C37 1.413 1_554 S
C39 H28 0.931 . S
C39 C37 1.416 . S
C39 C40 1.332 . S
C40 H19 0.929 . S
C40 C36 1.407 . S
C40 C39 1.332 . S
H41 C34 0.930 . S
H42 C65 0.930 . S
H43 C66 0.929 . S
O44 Tb0 2.465 . S
O44 C64 1.264 . S
O45 Tb0 2.387 . S
O45 C56 1.264 . S
O46 Tb11 2.349 . S
O46 C56 1.243 1_455 S
O47 Tb0 2.428 . S
O47 C64 1.256 . S
O48 Tb0 2.308 1_455 S
O48 C63 1.266 1_554 S
O49 Tb11 2.393 1_556 S
O49 C63 1.248 . S
O50 Tb11 2.465 . S
O50 C75 1.264 . S
O51 Tb11 2.387 . S
O51 C67 1.264 . S
O52 Tb0 2.349 1_455 S
O52 C67 1.243 . S
O53 Tb11 2.428 . S
O53 C75 1.256 . S
O54 Tb11 2.308 . S
O54 C74 1.266 . S
O55 Tb0 2.393 1_455 S
O55 C74 1.248 . S
C56 O45 1.264 . S
C56 O46 1.243 1_655 S
C57 C60 1.399 . S
C57 C62 1.383 . S
C57 C64 1.496 . S
C58 C59 1.399 1_556 S
C58 C62 1.389 1_556 S
C59 C58 1.399 1_554 S
C59 C61 1.380 . S
C59 H76 0.929 . S
C60 C57 1.399 . S
C60 C61 1.392 . S
C60 H77 0.929 . S
C61 C59 1.380 . S
C61 C60 1.392 . S
C61 H78 0.929 . S
C62 C57 1.383 . S
C62 C58 1.389 1_554 S
C62 H79 0.931 1_554 S
C63 O48 1.266 1_556 S
C63 O49 1.248 . S
C64 Tb0 2.802 . S
C64 O44 1.264 . S
C64 O47 1.256 . S
C64 C57 1.496 . S
C65 C32 1.448 . S
C65 H42 0.930 . S
C65 C66 1.328 1_554 S
C66 C37 1.427 . S
C66 H43 0.929 . S
C66 C65 1.328 1_556 S
C67 O51 1.264 . S
C67 O52 1.243 . S
C68 C71 1.399 . S
C68 C72 1.383 . S
C68 C75 1.496 . S
C69 C70 1.399 . S
C69 C72 1.389 . S
C70 C69 1.399 . S
C70 C73 1.380 . S
C70 H80 0.929 . S
C71 C68 1.399 . S
C71 C73 1.392 . S
C71 H81 0.929 . S
C72 C68 1.383 . S
C72 C69 1.389 . S
C72 H82 0.931 . S
C73 C70 1.380 . S
C73 C71 1.392 . S
C73 H83 0.929 . S
C74 O54 1.266 . S
C74 O55 1.248 . S
C75 Tb11 2.802 . S
C75 O50 1.264 . S
C75 O53 1.256 . S
C75 C68 1.496 . S
H76 C59 0.929 . S
H77 C60 0.929 . S
H78 C61 0.929 . S
H79 C62 0.931 1_556 S
H80 C70 0.929 . S
H81 C71 0.929 . S
H82 C72 0.931 . S
H83 C73 0.929 . S
Tb84 N113 2.617 1_554 S
Tb84 N119 2.572 . S
Tb84 O128 2.465 . S
Tb84 O129 2.387 . S
Tb84 O131 2.428 1_554 S
Tb84 O132 2.308 . S
Tb84 O136 2.349 . S
Tb84 O139 2.393 1_554 S
Tb84 C148 2.802 . S
C85 N86 1.379 . S
C85 C88 1.416 . S
C85 C92 1.424 . S
N86 C85 1.379 . S
N86 C89 1.334 . S
N86 Tb95 2.617 . S
C87 C89 1.390 . S
C87 C90 1.339 . S
C87 H107 0.930 . S
C88 C85 1.416 . S
C88 C90 1.416 . S
C88 C94 1.448 . S
C89 N86 1.334 . S
C89 C87 1.390 . S
C89 H100 0.930 . S
C90 C87 1.339 . S
C90 C88 1.416 . S
C90 H111 0.930 . S
C91 C92 1.413 1_556 S
C91 C93 1.427 . S
C91 C97 1.416 . S
C92 C85 1.424 . S
C92 C91 1.413 1_554 S
C92 N96 1.361 1_554 S
C93 C91 1.427 . S
C93 C94 1.328 1_556 S
C93 H108 0.929 . S
C94 C88 1.448 . S
C94 C93 1.328 1_554 S
C94 H109 0.930 . S
Tb95 N86 2.617 . S
Tb95 N96 2.572 1_554 S
Tb95 O130 2.349 . S
Tb95 O133 2.393 . S
Tb95 O134 2.465 1_554 S
Tb95 O135 2.387 . S
Tb95 O137 2.428 . S
Tb95 O138 2.308 1_554 S
Tb95 C159 2.802 . S
N96 C92 1.361 1_556 S
N96 Tb95 2.572 1_556 S
N96 C98 1.340 . S
C97 C91 1.416 . S
C97 C99 1.332 . S
C97 H105 0.931 . S
C98 N96 1.340 . S
C98 C99 1.407 . S
C98 H104 0.930 . S
C99 C97 1.332 . S
C99 C98 1.407 . S
C99 H101 0.929 . S
H100 C89 0.930 . S
H101 C99 0.929 . S
H102 C117 0.930 . S
H103 C124 0.929 . S
H104 C98 0.930 . S
H105 C97 0.931 . S
H106 C120 0.930 . S
H107 C87 0.930 . S
H108 C93 0.929 . S
H109 C94 0.930 . S
H110 C115 0.930 . S
H111 C90 0.930 . S
H112 C123 0.931 . S
N113 Tb84 2.617 1_556 S
N113 C114 1.379 1_556 S
N113 C117 1.334 . S
C114 N113 1.379 1_554 S
C114 C116 1.416 1_554 S
C114 C122 1.424 . S
C115 H110 0.930 . S
C115 C117 1.390 . S
C115 C118 1.339 . S
C116 C114 1.416 1_556 S
C116 C118 1.416 . S
C116 C149 1.448 1_556 S
C117 H102 0.930 . S
C117 N113 1.334 . S
C117 C115 1.390 . S
C118 C115 1.339 . S
C118 C116 1.416 . S
C118 H125 0.930 . S
N119 Tb84 2.572 . S
N119 C120 1.340 . S
N119 C122 1.361 . S
C120 H106 0.930 . S
C120 N119 1.340 . S
C120 C124 1.407 . S
C121 C122 1.413 . S
C121 C123 1.416 . S
C121 C150 1.427 . S
C122 C114 1.424 . S
C122 N119 1.361 . S
C122 C121 1.413 . S
C123 H112 0.931 . S
C123 C121 1.416 . S
C123 C124 1.332 . S
C124 H103 0.929 . S
C124 C120 1.407 . S
C124 C123 1.332 . S
H125 C118 0.930 . S
H126 C149 0.930 . S
H127 C150 0.929 . S
O128 Tb84 2.465 . S
O128 C148 1.264 . S
O129 Tb84 2.387 . S
O129 C140 1.264 . S
O130 Tb95 2.349 . S
O130 C140 1.243 . S
O131 Tb84 2.428 1_556 S
O131 C148 1.256 1_556 S
O132 Tb84 2.308 . S
O132 C147 1.266 . S
O133 Tb95 2.393 . S
O133 C147 1.248 . S
O134 Tb95 2.465 1_556 S
O134 C159 1.264 1_556 S
O135 Tb95 2.387 . S
O135 C151 1.264 . S
O136 Tb84 2.349 . S
O136 C151 1.243 . S
O137 Tb95 2.428 . S
O137 C159 1.256 . S
O138 Tb95 2.308 1_556 S
O138 C158 1.266 . S
O139 Tb84 2.393 1_556 S
O139 C158 1.248 . S
C140 O129 1.264 . S
C140 O130 1.243 . S
C141 C144 1.399 1_554 S
C141 C146 1.383 . S
C141 C148 1.496 . S
C142 C143 1.399 . S
C142 C146 1.389 . S
C143 C142 1.399 . S
C143 C145 1.380 . S
C143 H160 0.929 . S
C144 C141 1.399 1_556 S
C144 C145 1.392 1_556 S
C144 H161 0.929 . S
C145 C143 1.380 . S
C145 C144 1.392 1_554 S
C145 H162 0.929 1_554 S
C146 C141 1.383 . S
C146 C142 1.389 . S
C146 H163 0.931 . S
C147 O132 1.266 . S
C147 O133 1.248 . S
C148 Tb84 2.802 . S
C148 O128 1.264 . S
C148 O131 1.256 1_554 S
C148 C141 1.496 . S
C149 C116 1.448 1_554 S
C149 H126 0.930 . S
C149 C150 1.328 . S
C150 C121 1.427 . S
C150 H127 0.929 . S
C150 C149 1.328 . S
C151 O135 1.264 . S
C151 O136 1.243 . S
C152 C155 1.399 . S
C152 C156 1.383 1_554 S
C152 C159 1.496 . S
C153 C154 1.399 1_556 S
C153 C156 1.389 . S
C154 C153 1.399 1_554 S
C154 C157 1.380 . S
C154 H164 0.929 . S
C155 C152 1.399 . S
C155 C157 1.392 . S
C155 H165 0.929 . S
C156 C152 1.383 1_556 S
C156 C153 1.389 . S
C156 H166 0.931 . S
C157 C154 1.380 . S
C157 C155 1.392 . S
C157 H167 0.929 . S
C158 O138 1.266 . S
C158 O139 1.248 . S
C159 Tb95 2.802 . S
C159 O134 1.264 1_554 S
C159 O137 1.256 . S
C159 C152 1.496 . S
H160 C143 0.929 . S
H161 C144 0.929 . S
H162 C145 0.929 1_556 S
H163 C146 0.931 . S
H164 C154 0.929 . S
H165 C155 0.929 . S
H166 C156 0.931 . S
H167 C157 0.929 . S
Tb168 N197 2.617 . S
Tb168 N203 2.572 1_554 S
Tb168 O212 2.465 1_554 S
Tb168 O213 2.387 . S
Tb168 O215 2.428 . S
Tb168 O216 2.308 1_554 S
Tb168 O220 2.349 . S
Tb168 O223 2.393 . S
Tb168 C232 2.802 . S
C169 N170 1.379 . S
C169 C172 1.416 . S
C169 C176 1.424 . S
N170 C169 1.379 . S
N170 C173 1.334 . S
N170 Tb179 2.617 1_565 S
C171 C173 1.390 . S
C171 C174 1.339 . S
C171 H191 0.930 . S
C172 C169 1.416 . S
C172 C174 1.416 . S
C172 C178 1.448 . S
C173 N170 1.334 . S
C173 C171 1.390 . S
C173 H184 0.930 . S
C174 C171 1.339 . S
C174 C172 1.416 . S
C174 H195 0.930 . S
C175 C176 1.413 1_554 S
C175 C177 1.427 1_554 S
C175 C181 1.416 . S
C176 C169 1.424 . S
C176 C175 1.413 1_556 S
C176 N180 1.361 1_556 S
C177 C175 1.427 1_556 S
C177 C178 1.328 . S
C177 H192 0.929 1_556 S
C178 C172 1.448 . S
C178 C177 1.328 . S
C178 H193 0.930 . S
Tb179 N170 2.617 1_545 S
Tb179 N180 2.572 1_546 S
Tb179 O214 2.349 . S
Tb179 O217 2.393 . S
Tb179 O218 2.465 1_556 S
Tb179 O219 2.387 . S
Tb179 O221 2.428 . S
Tb179 O222 2.308 1_556 S
Tb179 C243 2.802 . S
N180 C176 1.361 1_554 S
N180 Tb179 2.572 1_564 S
N180 C182 1.340 . S
C181 C175 1.416 . S
C181 C183 1.332 . S
C181 H189 0.931 . S
C182 N180 1.340 . S
C182 C183 1.407 . S
C182 H188 0.930 1_565 S
C183 C181 1.332 . S
C183 C182 1.407 . S
C183 H185 0.929 . S
H184 C173 0.930 . S
H185 C183 0.929 . S
H186 C201 0.930 . S
H187 C208 0.929 . S
H188 C182 0.930 1_545 S
H189 C181 0.931 . S
H190 C204 0.930 . S
H191 C171 0.930 . S
H192 C177 0.929 1_554 S
H193 C178 0.930 . S
H194 C199 0.930 . S
H195 C174 0.930 . S
H196 C207 0.931 . S
N197 Tb168 2.617 . S
N197 C198 1.379 . S
N197 C201 1.334 . S
C198 N197 1.379 . S
C198 C200 1.416 . S
C198 C206 1.424 . S
C199 H194 0.930 . S
C199 C201 1.390 . S
C199 C202 1.339 . S
C200 C198 1.416 . S
C200 C202 1.416 . S
C200 C233 1.448 . S
C201 H186 0.930 . S
C201 N197 1.334 . S
C201 C199 1.390 . S
C202 C199 1.339 . S
C202 C200 1.416 . S
C202 H209 0.930 . S
N203 Tb168 2.572 1_556 S
N203 C204 1.340 . S
N203 C206 1.361 1_556 S
C204 H190 0.930 . S
C204 N203 1.340 . S
C204 C208 1.407 . S
C205 C206 1.413 1_556 S
C205 C207 1.416 . S
C205 C234 1.427 1_556 S
C206 C198 1.424 . S
C206 N203 1.361 1_554 S
C206 C205 1.413 1_554 S
C207 H196 0.931 . S
C207 C205 1.416 . S
C207 C208 1.332 . S
C208 H187 0.929 . S
C208 C204 1.407 . S
C208 C207 1.332 . S
H209 C202 0.930 . S
H210 C233 0.930 . S
H211 C234 0.929 . S
O212 Tb168 2.465 1_556 S
O212 C232 1.264 1_556 S
O213 Tb168 2.387 . S
O213 C224 1.263 . S
O214 Tb179 2.349 . S
O214 C224 1.243 1_556 S
O215 Tb168 2.428 . S
O215 C232 1.256 . S
O216 Tb168 2.308 1_556 S
O216 C231 1.266 . S
O217 Tb179 2.393 . S
O217 C231 1.248 . S
O218 Tb179 2.465 1_554 S
O218 C243 1.264 1_554 S
O219 Tb179 2.387 . S
O219 C235 1.264 1_556 S
O220 Tb168 2.349 . S
O220 C235 1.243 . S
O221 Tb179 2.428 . S
O221 C243 1.256 . S
O222 Tb179 2.308 1_554 S
O222 C242 1.266 . S
O223 Tb168 2.393 . S
O223 C242 1.248 . S
C224 O213 1.263 . S
C224 O214 1.243 1_554 S
C225 C228 1.399 . S
C225 C230 1.383 1_554 S
C225 C232 1.496 . S
C226 C227 1.399 1_556 S
C226 C230 1.389 . S
C227 C226 1.399 1_554 S
C227 C229 1.380 . S
C227 H244 0.929 . S
C228 C225 1.399 . S
C228 C229 1.392 . S
C228 H245 0.929 . S
C229 C227 1.380 . S
C229 C228 1.392 . S
C229 H246 0.929 . S
C230 C225 1.383 1_556 S
C230 C226 1.389 . S
C230 H247 0.931 . S
C231 O216 1.266 . S
C231 O217 1.248 . S
C232 Tb168 2.802 . S
C232 O212 1.264 1_554 S
C232 O215 1.256 . S
C232 C225 1.496 . S
C233 C200 1.448 . S
C233 H210 0.930 . S
C233 C234 1.328 . S
C234 C205 1.427 1_554 S
C234 H211 0.929 . S
C234 C233 1.328 . S
C235 O219 1.264 1_554 S
C235 O220 1.243 . S
C236 C239 1.400 . S
C236 C240 1.380 1_566 S
C236 C243 1.499 1_565 S
C237 C238 1.399 1_554 S
C237 C240 1.389 1_565 S
C238 C237 1.399 1_556 S
C238 C241 1.380 . S
C238 H248 0.929 . S
C239 C236 1.400 . S
C239 C241 1.392 . S
C239 H249 0.929 . S
C240 C236 1.380 1_544 S
C240 C237 1.389 1_545 S
C240 H250 0.931 . S
C241 C238 1.380 . S
C241 C239 1.392 . S
C241 H251 0.929 . S
C242 O222 1.266 . S
C242 O223 1.248 . S
C243 Tb179 2.802 . S
C243 O218 1.264 1_556 S
C243 O221 1.256 . S
C243 C236 1.499 1_545 S
H244 C227 0.929 . S
H245 C228 0.929 . S
H246 C229 0.929 . S
H247 C230 0.931 . S
H248 C238 0.929 . S
H249 C239 0.929 . S
H250 C240 0.931 . S
H251 C241 0.929 . S
Tb252 N281 2.617 . S
Tb252 N287 2.572 . S
Tb252 O296 2.465 . S
Tb252 O297 2.387 . S
Tb252 O299 2.428 . S
Tb252 O300 2.308 . S
Tb252 O304 2.349 . S
Tb252 O307 2.393 . S
Tb252 C316 2.802 . S
C253 N254 1.379 . S
C253 C256 1.416 . S
C253 C260 1.424 . S
N254 C253 1.379 . S
N254 C257 1.334 . S
N254 Tb263 2.617 . S
C255 C257 1.390 . S
C255 C258 1.339 . S
C255 H275 0.930 1_554 S
C256 C253 1.416 . S
C256 C258 1.416 . S
C256 C262 1.448 . S
C257 N254 1.334 . S
C257 C255 1.390 . S
C257 H268 0.930 . S
C258 C255 1.339 . S
C258 C256 1.416 . S
C258 H279 0.930 . S
C259 C260 1.413 . S
C259 C261 1.427 . S
C259 C265 1.416 . S
C260 C253 1.424 . S
C260 C259 1.413 . S
C260 N264 1.361 . S
C261 C259 1.427 . S
C261 C262 1.328 . S
C261 H276 0.929 1_565 S
C262 C256 1.448 . S
C262 C261 1.328 . S
C262 H277 0.930 1_565 S
Tb263 N254 2.617 . S
Tb263 N264 2.572 . S
Tb263 O298 2.349 . S
Tb263 O301 2.393 . S
Tb263 O302 2.465 . S
Tb263 O303 2.387 . S
Tb263 O305 2.428 . S
Tb263 O306 2.308 . S
Tb263 C327 2.802 . S
N264 C260 1.361 . S
N264 Tb263 2.572 . S
N264 C266 1.340 . S
C265 C259 1.416 . S
C265 C267 1.332 . S
C265 H273 0.931 . S
C266 N264 1.340 . S
C266 C267 1.407 . S
C266 H272 0.930 . S
C267 C265 1.332 . S
C267 C266 1.407 . S
C267 H269 0.929 . S
H268 C257 0.930 . S
H269 C267 0.929 . S
H270 C285 0.930 . S
H271 C292 0.929 . S
H272 C266 0.930 . S
H273 C265 0.931 . S
H274 C288 0.930 . S
H275 C255 0.930 1_556 S
H276 C261 0.929 1_545 S
H277 C262 0.930 1_545 S
H278 C283 0.930 . S
H279 C258 0.930 . S
H280 C291 0.931 . S
N281 Tb252 2.617 . S
N281 C282 1.379 . S
N281 C285 1.334 . S
C282 N281 1.379 . S
C282 C284 1.416 . S
C282 C290 1.424 . S
C283 H278 0.930 . S
C283 C285 1.390 . S
C283 C286 1.339 . S
C284 C282 1.416 . S
C284 C286 1.416 . S
C284 C317 1.448 . S
C285 H270 0.930 . S
C285 N281 1.334 . S
C285 C283 1.390 . S
C286 C283 1.339 . S
C286 C284 1.416 . S
C286 H293 0.930 . S
N287 Tb252 2.572 . S
N287 C288 1.340 1_554 S
N287 C290 1.361 . S
C288 H274 0.930 . S
C288 N287 1.340 1_556 S
C288 C292 1.407 . S
C289 C290 1.413 . S
C289 C291 1.416 1_554 S
C289 C318 1.427 . S
C290 C282 1.424 . S
C290 N287 1.361 . S
C290 C289 1.413 . S
C291 H280 0.931 . S
C291 C289 1.416 1_556 S
C291 C292 1.332 . S
C292 H271 0.929 . S
C292 C288 1.407 . S
C292 C291 1.332 . S
H293 C286 0.930 . S
H294 C317 0.930 . S
H295 C318 0.929 . S
O296 Tb252 2.465 . S
O296 C316 1.264 . S
O297 Tb252 2.387 . S
O297 C308 1.264 . S
O298 Tb263 2.349 . S
O298 C308 1.243 . S
O299 Tb252 2.428 . S
O299 C316 1.256 . S
O300 Tb252 2.308 . S
O300 C315 1.266 . S
O301 Tb263 2.393 . S
O301 C315 1.248 . S
O302 Tb263 2.465 . S
O302 C327 1.264 . S
O303 Tb263 2.387 . S
O303 C319 1.264 . S
O304 Tb252 2.349 . S
O304 C319 1.243 . S
O305 Tb263 2.428 . S
O305 C327 1.256 . S
O306 Tb263 2.308 . S
O306 C326 1.266 . S
O307 Tb252 2.393 . S
O307 C326 1.248 . S
C308 O297 1.264 . S
C308 O298 1.243 . S
C309 C312 1.399 . S
C309 C314 1.383 . S
C309 C316 1.496 . S
C310 C311 1.399 . S
C310 C314 1.389 . S
C311 C310 1.399 . S
C311 C313 1.380 . S
C311 H328 0.929 1_565 S
C312 C309 1.399 . S
C312 C313 1.392 . S
C312 H329 0.929 . S
C313 C311 1.380 . S
C313 C312 1.392 . S
C313 H330 0.929 . S
C314 C309 1.383 . S
C314 C310 1.389 . S
C314 H331 0.931 . S
C315 O300 1.266 . S
C315 O301 1.248 . S
C316 Tb252 2.802 . S
C316 O296 1.264 . S
C316 O299 1.256 . S
C316 C309 1.496 . S
C317 C284 1.448 . S
C317 H294 0.930 . S
C317 C318 1.328 . S
C318 C289 1.427 . S
C318 H295 0.929 . S
C318 C317 1.328 . S
C319 O303 1.264 . S
C319 O304 1.243 . S
C320 C323 1.399 . S
C320 C324 1.383 . S
C320 C327 1.496 . S
C321 C322 1.399 . S
C321 C324 1.389 . S
C322 C321 1.399 . S
C322 C325 1.380 . S
C322 H332 0.929 . S
C323 C320 1.399 . S
C323 C325 1.392 . S
C323 H333 0.929 . S
C324 C320 1.383 . S
C324 C321 1.389 . S
C324 H334 0.931 . S
C325 C322 1.380 . S
C325 C323 1.392 . S
C325 H335 0.929 . S
C326 O306 1.266 . S
C326 O307 1.248 . S
C327 Tb263 2.802 . S
C327 O302 1.264 . S
C327 O305 1.256 . S
C327 C320 1.496 . S
H328 C311 0.929 1_545 S
H329 C312 0.929 . S
H330 C313 0.929 . S
H331 C314 0.931 . S
H332 C322 0.929 . S
H333 C323 0.929 . S
H334 C324 0.931 . S
H335 C325 0.929 . S
Tb336 N365 2.617 . S
Tb336 N371 2.572 . S
Tb336 O380 2.465 . S
Tb336 O381 2.387 . S
Tb336 O383 2.428 . S
Tb336 O384 2.308 . S
Tb336 O388 2.349 . S
Tb336 O391 2.393 . S
Tb336 C400 2.802 . S
C337 N338 1.379 . S
C337 C340 1.416 . S
C337 C344 1.424 . S
N338 C337 1.379 . S
N338 C341 1.334 . S
N338 Tb347 2.617 . S
C339 C341 1.390 . S
C339 C342 1.339 . S
C339 H359 0.930 . S
C340 C337 1.416 . S
C340 C342 1.416 . S
C340 C346 1.448 . S
C341 N338 1.334 . S
C341 C339 1.390 . S
C341 H352 0.930 . S
C342 C339 1.339 . S
C342 C340 1.416 . S
C342 H363 0.930 . S
C343 C344 1.413 . S
C343 C345 1.427 . S
C343 C349 1.416 . S
C344 C337 1.424 . S
C344 C343 1.413 . S
C344 N348 1.361 . S
C345 C343 1.427 . S
C345 C346 1.328 . S
C345 H360 0.929 . S
C346 C340 1.448 . S
C346 C345 1.328 . S
C346 H361 0.930 . S
Tb347 N338 2.617 . S
Tb347 N348 2.572 . S
Tb347 O382 2.349 . S
Tb347 O385 2.393 . S
Tb347 O386 2.465 . S
Tb347 O387 2.387 . S
Tb347 O389 2.428 . S
Tb347 O390 2.308 . S
Tb347 C411 2.802 . S
N348 C344 1.361 . S
N348 Tb347 2.572 . S
N348 C350 1.340 . S
C349 C343 1.416 . S
C349 C351 1.332 . S
C349 H357 0.931 . S
C350 N348 1.340 . S
C350 C351 1.407 . S
C350 H356 0.930 . S
C351 C349 1.332 . S
C351 C350 1.407 . S
C351 H353 0.929 1_554 S
H352 C341 0.930 . S
H353 C351 0.929 1_556 S
H354 C369 0.930 . S
H355 C376 0.929 . S
H356 C350 0.930 . S
H357 C349 0.931 . S
H358 C372 0.930 . S
H359 C339 0.930 . S
H360 C345 0.929 . S
H361 C346 0.930 . S
H362 C367 0.934 . S
H363 C342 0.930 . S
H364 C375 0.931 . S
N365 Tb336 2.617 . S
N365 C366 1.379 . S
N365 C369 1.334 . S
C366 N365 1.379 . S
C366 C368 1.416 . S
C366 C374 1.424 . S
C367 H362 0.934 . S
C367 C369 1.390 . S
C367 C370 1.339 . S
C368 C366 1.416 . S
C368 C370 1.416 . S
C368 C401 1.448 . S
C369 H354 0.930 . S
C369 N365 1.334 . S
C369 C367 1.390 . S
C370 C367 1.339 . S
C370 C368 1.416 . S
C370 H377 0.930 . S
N371 Tb336 2.572 . S
N371 C372 1.340 . S
N371 C374 1.361 . S
C372 H358 0.930 . S
C372 N371 1.340 . S
C372 C376 1.407 . S
C373 C374 1.413 . S
C373 C375 1.416 . S
C373 C402 1.427 . S
C374 C366 1.424 . S
C374 N371 1.361 . S
C374 C373 1.413 . S
C375 H364 0.931 . S
C375 C373 1.416 . S
C375 C376 1.332 . S
C376 H355 0.929 . S
C376 C372 1.407 . S
C376 C375 1.332 . S
H377 C370 0.930 . S
H378 C401 0.930 1_545 S
H379 C402 0.929 1_545 S
O380 Tb336 2.465 . S
O380 C400 1.264 . S
O381 Tb336 2.387 . S
O381 C392 1.264 . S
O382 Tb347 2.349 . S
O382 C392 1.243 . S
O383 Tb336 2.428 . S
O383 C400 1.256 . S
O384 Tb336 2.308 . S
O384 C399 1.266 . S
O385 Tb347 2.393 . S
O385 C399 1.248 . S
O386 Tb347 2.465 . S
O386 C411 1.264 . S
O387 Tb347 2.387 . S
O387 C403 1.264 . S
O388 Tb336 2.349 . S
O388 C403 1.243 . S
O389 Tb347 2.428 . S
O389 C411 1.256 . S
O390 Tb347 2.308 . S
O390 C410 1.266 . S
O391 Tb336 2.393 . S
O391 C410 1.248 . S
C392 O381 1.264 . S
C392 O382 1.243 . S
C393 C396 1.399 . S
C393 C398 1.383 . S
C393 C400 1.496 . S
C394 C395 1.399 1_455 S
C394 C398 1.389 . S
C395 C394 1.399 1_655 S
C395 C397 1.380 . S
C395 H412 0.929 . S
C396 C393 1.399 . S
C396 C397 1.392 1_455 S
C396 H413 0.929 . S
C397 C395 1.380 . S
C397 C396 1.392 1_655 S
C397 H414 0.929 . S
C398 C393 1.383 . S
C398 C394 1.389 . S
C398 H415 0.931 . S
C399 O384 1.266 . S
C399 O385 1.248 . S
C400 Tb336 2.802 . S
C400 O380 1.264 . S
C400 O383 1.256 . S
C400 C393 1.496 . S
C401 C368 1.448 . S
C401 H378 0.930 1_565 S
C401 C402 1.328 . S
C402 C373 1.427 . S
C402 H379 0.929 1_565 S
C402 C401 1.328 . S
C403 O387 1.264 . S
C403 O388 1.243 . S
C404 C407 1.399 . S
C404 C408 1.383 . S
C404 C411 1.496 . S
C405 C406 1.399 . S
C405 C408 1.389 . S
C406 C405 1.399 . S
C406 C409 1.380 . S
C406 H416 0.929 . S
C407 C404 1.399 . S
C407 C409 1.392 . S
C407 H417 0.929 . S
C408 C404 1.383 . S
C408 C405 1.389 . S
C408 H418 0.931 . S
C409 C406 1.380 . S
C409 C407 1.392 . S
C409 H419 0.929 . S
C410 O390 1.266 . S
C410 O391 1.248 . S
C411 Tb347 2.802 . S
C411 O386 1.264 . S
C411 O389 1.256 . S
C411 C404 1.496 . S
H412 C395 0.929 . S
H413 C396 0.929 . S
H414 C397 0.929 . S
H415 C398 0.931 . S
H416 C406 0.929 . S
H417 C407 0.929 . S
H418 C408 0.931 . S
H419 C409 0.929 . S
Tb420 N449 2.617 . S
Tb420 N455 2.572 . S
Tb420 O464 2.465 . S
Tb420 O465 2.387 . S
Tb420 O467 2.428 . S
Tb420 O468 2.308 . S
Tb420 O472 2.349 . S
Tb420 O475 2.393 . S
Tb420 C484 2.802 . S
C421 N422 1.379 . S
C421 C424 1.416 . S
C421 C428 1.424 . S
N422 C421 1.379 . S
N422 C425 1.334 . S
N422 Tb431 2.617 . S
C423 C425 1.390 . S
C423 C426 1.339 . S
C423 H443 0.930 1_554 S
C424 C421 1.416 . S
C424 C426 1.416 . S
C424 C430 1.448 . S
C425 N422 1.334 . S
C425 C423 1.390 . S
C425 H436 0.930 . S
C426 C423 1.339 . S
C426 C424 1.416 . S
C426 H447 0.930 . S
C427 C428 1.413 . S
C427 C429 1.427 . S
C427 C433 1.416 . S
C428 C421 1.424 . S
C428 C427 1.413 . S
C428 N432 1.361 . S
C429 C427 1.427 . S
C429 C430 1.328 . S
C429 H444 0.929 1_545 S
C430 C424 1.448 . S
C430 C429 1.328 . S
C430 H445 0.930 1_545 S
Tb431 N422 2.617 . S
Tb431 N432 2.572 . S
Tb431 O466 2.349 . S
Tb431 O469 2.393 . S
Tb431 O470 2.465 . S
Tb431 O471 2.387 . S
Tb431 O473 2.428 . S
Tb431 O474 2.308 . S
Tb431 C495 2.802 . S
N432 C428 1.361 . S
N432 Tb431 2.572 . S
N432 C434 1.340 . S
C433 C427 1.416 . S
C433 C435 1.332 . S
C433 H441 0.931 . S
C434 N432 1.340 . S
C434 C435 1.407 . S
C434 H440 0.930 . S
C435 C433 1.332 . S
C435 C434 1.407 . S
C435 H437 0.929 . S
H436 C425 0.930 . S
H437 C435 0.929 . S
H438 C453 0.930 . S
H439 C460 0.929 . S
H440 C434 0.930 . S
H441 C433 0.931 . S
H442 C456 0.930 . S
H443 C423 0.930 1_556 S
H444 C429 0.929 1_565 S
H445 C430 0.930 1_565 S
H446 C451 0.930 . S
H447 C426 0.930 . S
H448 C459 0.931 . S
N449 Tb420 2.617 . S
N449 C450 1.379 . S
N449 C453 1.334 . S
C450 N449 1.379 . S
C450 C452 1.416 . S
C450 C458 1.424 . S
C451 H446 0.930 . S
C451 C453 1.390 . S
C451 C454 1.339 . S
C452 C450 1.416 . S
C452 C454 1.416 . S
C452 C485 1.448 . S
C453 H438 0.930 . S
C453 N449 1.334 . S
C453 C451 1.390 . S
C454 C451 1.339 . S
C454 C452 1.416 . S
C454 H461 0.930 . S
N455 Tb420 2.572 . S
N455 C456 1.340 . S
N455 C458 1.361 . S
C456 H442 0.930 . S
C456 N455 1.340 . S
C456 C460 1.407 . S
C457 C458 1.413 . S
C457 C459 1.416 . S
C457 C486 1.427 . S
C458 C450 1.424 . S
C458 N455 1.361 . S
C458 C457 1.413 . S
C459 H448 0.931 . S
C459 C457 1.416 . S
C459 C460 1.332 . S
C460 H439 0.929 . S
C460 C456 1.407 . S
C460 C459 1.332 . S
H461 C454 0.930 . S
H462 C485 0.930 . S
H463 C486 0.929 . S
O464 Tb420 2.465 . S
O464 C484 1.264 . S
O465 Tb420 2.387 . S
O465 C476 1.264 . S
O466 Tb431 2.349 . S
O466 C476 1.243 . S
O467 Tb420 2.428 . S
O467 C484 1.256 . S
O468 Tb420 2.308 . S
O468 C483 1.266 . S
O469 Tb431 2.393 . S
O469 C483 1.248 . S
O470 Tb431 2.465 . S
O470 C495 1.264 . S
O471 Tb431 2.387 . S
O471 C487 1.264 . S
O472 Tb420 2.349 . S
O472 C487 1.243 . S
O473 Tb431 2.428 . S
O473 C495 1.256 . S
O474 Tb431 2.308 . S
O474 C494 1.266 . S
O475 Tb420 2.393 . S
O475 C494 1.248 . S
C476 O465 1.264 . S
C476 O466 1.243 . S
C477 C480 1.399 . S
C477 C482 1.383 . S
C477 C484 1.496 . S
C478 C479 1.399 . S
C478 C482 1.389 . S
C479 C478 1.399 . S
C479 C481 1.380 . S
C479 H496 0.929 . S
C480 C477 1.399 . S
C480 C481 1.392 . S
C480 H497 0.929 . S
C481 C479 1.380 . S
C481 C480 1.392 . S
C481 H498 0.929 . S
C482 C477 1.383 . S
C482 C478 1.389 . S
C482 H499 0.931 . S
C483 O468 1.266 . S
C483 O469 1.248 . S
C484 Tb420 2.802 . S
C484 O464 1.264 . S
C484 O467 1.256 . S
C484 C477 1.496 . S
C485 C452 1.448 . S
C485 H462 0.930 . S
C485 C486 1.328 . S
C486 C457 1.427 . S
C486 H463 0.929 . S
C486 C485 1.328 . S
C487 O471 1.264 . S
C487 O472 1.243 . S
C488 C491 1.399 . S
C488 C492 1.383 . S
C488 C495 1.496 . S
C489 C490 1.399 1_455 S
C489 C492 1.389 . S
C490 C489 1.399 1_655 S
C490 C493 1.380 1_655 S
C490 H500 0.929 . S
C491 C488 1.399 . S
C491 C493 1.392 . S
C491 H501 0.929 . S
C492 C488 1.383 . S
C492 C489 1.389 . S
C492 H502 0.931 . S
C493 C490 1.380 1_455 S
C493 C491 1.392 . S
C493 H503 0.929 1_455 S
C494 O474 1.266 . S
C494 O475 1.248 . S
C495 Tb431 2.802 . S
C495 O470 1.264 . S
C495 O473 1.256 . S
C495 C488 1.496 . S
H496 C479 0.929 . S
H497 C480 0.929 . S
H498 C481 0.929 . S
H499 C482 0.931 . S
H500 C490 0.929 . S
H501 C491 0.929 . S
H502 C492 0.931 . S
H503 C493 0.929 1_655 S
Tb504 N533 2.617 . S
Tb504 N539 2.572 . S
Tb504 O548 2.465 . S
Tb504 O549 2.387 . S
Tb504 O551 2.428 . S
Tb504 O552 2.308 . S
Tb504 O556 2.349 . S
Tb504 O559 2.393 . S
Tb504 C568 2.802 . S
C505 N506 1.379 . S
C505 C508 1.416 . S
C505 C512 1.424 . S
N506 C505 1.379 . S
N506 C509 1.334 . S
N506 Tb515 2.617 . S
C507 C509 1.390 . S
C507 C510 1.339 . S
C507 H527 0.930 . S
C508 C505 1.416 . S
C508 C510 1.416 . S
C508 C514 1.448 . S
C509 N506 1.334 . S
C509 C507 1.390 . S
C509 H520 0.930 . S
C510 C507 1.339 . S
C510 C508 1.416 . S
C510 H531 0.930 . S
C511 C512 1.413 . S
C511 C513 1.427 . S
C511 C517 1.416 . S
C512 C505 1.424 . S
C512 C511 1.413 . S
C512 N516 1.361 . S
C513 C511 1.427 . S
C513 C514 1.328 . S
C513 H528 0.929 . S
C514 C508 1.448 . S
C514 C513 1.328 . S
C514 H529 0.930 . S
Tb515 N506 2.617 . S
Tb515 N516 2.572 . S
Tb515 O550 2.349 . S
Tb515 O553 2.393 . S
Tb515 O554 2.465 . S
Tb515 O555 2.387 . S
Tb515 O557 2.428 . S
Tb515 O558 2.308 . S
Tb515 C579 2.802 . S
N516 C512 1.361 . S
N516 Tb515 2.572 . S
N516 C518 1.340 . S
C517 C511 1.416 . S
C517 C519 1.332 . S
C517 H525 0.931 . S
C518 N516 1.340 . S
C518 C519 1.407 . S
C518 H524 0.930 . S
C519 C517 1.332 . S
C519 C518 1.407 . S
C519 H521 0.929 . S
H520 C509 0.930 . S
H521 C519 0.929 . S
H522 C537 0.930 . S
H523 C544 0.929 . S
H524 C518 0.930 . S
H525 C517 0.931 . S
H526 C540 0.930 . S
H527 C507 0.930 . S
H528 C513 0.929 . S
H529 C514 0.930 . S
H530 C535 0.930 . S
H531 C510 0.930 . S
H532 C543 0.931 . S
N533 Tb504 2.617 . S
N533 C534 1.379 . S
N533 C537 1.334 . S
C534 N533 1.379 . S
C534 C536 1.416 . S
C534 C542 1.424 . S
C535 H530 0.930 . S
C535 C537 1.390 . S
C535 C538 1.339 . S
C536 C534 1.416 . S
C536 C538 1.416 . S
C536 C569 1.448 . S
C537 H522 0.930 . S
C537 N533 1.334 . S
C537 C535 1.390 . S
C538 C535 1.339 . S
C538 C536 1.416 . S
C538 H545 0.930 . S
N539 Tb504 2.572 . S
N539 C540 1.340 . S
N539 C542 1.361 . S
C540 H526 0.930 . S
C540 N539 1.340 . S
C540 C544 1.407 . S
C541 C542 1.413 . S
C541 C543 1.416 . S
C541 C570 1.427 . S
C542 C534 1.424 . S
C542 N539 1.361 . S
C542 C541 1.413 . S
C543 H532 0.931 . S
C543 C541 1.416 . S
C543 C544 1.332 . S
C544 H523 0.929 . S
C544 C540 1.407 . S
C544 C543 1.332 . S
H545 C538 0.930 . S
H546 C569 0.930 . S
H547 C570 0.929 . S
O548 Tb504 2.465 . S
O548 C568 1.264 . S
O549 Tb504 2.387 . S
O549 C560 1.264 . S
O550 Tb515 2.349 . S
O550 C560 1.243 . S
O551 Tb504 2.428 . S
O551 C568 1.256 . S
O552 Tb504 2.308 . S
O552 C567 1.266 . S
O553 Tb515 2.393 . S
O553 C567 1.248 . S
O554 Tb515 2.465 . S
O554 C579 1.264 . S
O555 Tb515 2.387 . S
O555 C571 1.264 . S
O556 Tb504 2.349 . S
O556 C571 1.243 . S
O557 Tb515 2.428 . S
O557 C579 1.256 . S
O558 Tb515 2.308 . S
O558 C578 1.266 . S
O559 Tb504 2.393 . S
O559 C578 1.248 . S
C560 O549 1.264 . S
C560 O550 1.243 . S
C561 C564 1.399 . S
C561 C566 1.383 . S
C561 C568 1.496 1_554 S
C562 C563 1.399 . S
C562 C566 1.389 . S
C563 C562 1.399 . S
C563 C565 1.380 . S
C563 H580 0.929 . S
C564 C561 1.399 . S
C564 C565 1.392 . S
C564 H581 0.929 . S
C565 C563 1.380 . S
C565 C564 1.392 . S
C565 H582 0.929 . S
C566 C561 1.383 . S
C566 C562 1.389 . S
C566 H583 0.931 . S
C567 O552 1.266 . S
C567 O553 1.248 . S
C568 Tb504 2.802 . S
C568 O548 1.264 . S
C568 O551 1.256 . S
C568 C561 1.496 1_556 S
C569 C536 1.448 . S
C569 H546 0.930 . S
C569 C570 1.328 . S
C570 C541 1.427 . S
C570 H547 0.929 . S
C570 C569 1.328 . S
C571 O555 1.264 . S
C571 O556 1.243 . S
C572 C575 1.399 . S
C572 C576 1.383 . S
C572 C579 1.496 . S
C573 C574 1.399 . S
C573 C576 1.389 . S
C574 C573 1.399 . S
C574 C577 1.380 . S
C574 H584 0.929 . S
C575 C572 1.399 . S
C575 C577 1.392 . S
C575 H585 0.929 . S
C576 C572 1.383 . S
C576 C573 1.389 . S
C576 H586 0.931 . S
C577 C574 1.380 . S
C577 C575 1.392 . S
C577 H587 0.929 . S
C578 O558 1.266 . S
C578 O559 1.248 . S
C579 Tb515 2.802 . S
C579 O554 1.264 . S
C579 O557 1.256 . S
C579 C572 1.496 . S
H580 C563 0.929 . S
H581 C564 0.929 . S
H582 C565 0.929 . S
H583 C566 0.931 . S
H584 C574 0.929 . S
H585 C575 0.929 . S
H586 C576 0.931 . S
H587 C577 0.929 . S
Tb588 N617 2.617 . S
Tb588 N623 2.572 . S
Tb588 O632 2.465 . S
Tb588 O633 2.387 . S
Tb588 O635 2.428 . S
Tb588 O636 2.308 . S
Tb588 O640 2.349 . S
Tb588 O643 2.393 . S
Tb588 C652 2.802 . S
C589 N590 1.379 . S
C589 C592 1.416 . S
C589 C596 1.424 . S
N590 C589 1.379 . S
N590 C593 1.334 . S
N590 Tb599 2.617 . S
C591 C593 1.390 . S
C591 C594 1.339 . S
C591 H611 0.930 1_545 S
C592 C589 1.416 . S
C592 C594 1.416 . S
C592 C598 1.448 . S
C593 N590 1.334 . S
C593 C591 1.390 . S
C593 H604 0.930 . S
C594 C591 1.339 . S
C594 C592 1.416 . S
C594 H615 0.930 . S
C595 C596 1.413 . S
C595 C597 1.440 . S
C595 C601 1.416 1_655 S
C596 C589 1.424 . S
C596 C595 1.413 . S
C596 N600 1.361 . S
C597 C595 1.440 . S
C597 C598 1.331 . S
C597 H612 0.913 1_655 S
C598 C592 1.448 . S
C598 C597 1.331 . S
C598 H613 0.930 . S
Tb599 N590 2.617 . S
Tb599 N600 2.572 . S
Tb599 O634 2.349 . S
Tb599 O637 2.393 . S
Tb599 O638 2.465 . S
Tb599 O639 2.387 . S
Tb599 O641 2.428 . S
Tb599 O642 2.308 . S
Tb599 C663 2.802 . S
N600 C596 1.361 . S
N600 Tb599 2.572 . S
N600 C602 1.340 . S
C601 C595 1.416 1_455 S
C601 C603 1.332 . S
C601 H609 0.931 . S
C602 N600 1.340 . S
C602 C603 1.407 1_655 S
C602 H608 0.930 . S
C603 C601 1.332 . S
C603 C602 1.407 1_455 S
C603 H605 0.929 . S
H604 C593 0.930 . S
H605 C603 0.929 . S
H606 C621 0.930 . S
H607 C628 0.929 . S
H608 C602 0.930 . S
H609 C601 0.931 . S
H610 C624 0.930 . S
H611 C591 0.930 1_565 S
H612 C597 0.913 1_455 S
H613 C598 0.930 . S
H614 C619 0.930 . S
H615 C594 0.930 . S
H616 C627 0.931 . S
N617 Tb588 2.617 . S
N617 C618 1.379 . S
N617 C621 1.334 . S
C618 N617 1.379 . S
C618 C620 1.416 . S
C618 C626 1.424 . S
C619 H614 0.930 . S
C619 C621 1.390 . S
C619 C622 1.339 . S
C620 C618 1.416 . S
C620 C622 1.416 . S
C620 C653 1.448 . S
C621 H606 0.930 . S
C621 N617 1.334 . S
C621 C619 1.390 . S
C622 C619 1.339 . S
C622 C620 1.416 . S
C622 H629 0.930 . S
N623 Tb588 2.572 . S
N623 C624 1.340 . S
N623 C626 1.361 . S
C624 H610 0.930 . S
C624 N623 1.340 . S
C624 C628 1.407 . S
C625 C626 1.413 . S
C625 C627 1.416 . S
C625 C654 1.427 . S
C626 C618 1.424 . S
C626 N623 1.361 . S
C626 C625 1.413 . S
C627 H616 0.931 . S
C627 C625 1.416 . S
C627 C628 1.332 . S
C628 H607 0.929 . S
C628 C624 1.407 . S
C628 C627 1.332 . S
H629 C622 0.930 . S
H630 C653 0.930 . S
H631 C654 0.929 . S
O632 Tb588 2.465 . S
O632 C652 1.264 . S
O633 Tb588 2.387 . S
O633 C644 1.264 . S
O634 Tb599 2.349 . S
O634 C644 1.243 . S
O635 Tb588 2.428 . S
O635 C652 1.256 . S
O636 Tb588 2.308 . S
O636 C651 1.266 . S
O637 Tb599 2.393 . S
O637 C651 1.248 . S
O638 Tb599 2.465 . S
O638 C663 1.264 . S
O639 Tb599 2.387 . S
O639 C655 1.264 . S
O640 Tb588 2.349 . S
O640 C655 1.243 . S
O641 Tb599 2.428 . S
O641 C663 1.256 . S
O642 Tb599 2.308 . S
O642 C662 1.266 . S
O643 Tb588 2.393 . S
O643 C662 1.248 . S
C644 O633 1.264 . S
C644 O634 1.243 . S
C645 C648 1.399 . S
C645 C650 1.383 . S
C645 C652 1.496 . S
C646 C647 1.399 . S
C646 C650 1.389 . S
C647 C646 1.399 . S
C647 C649 1.380 . S
C647 H664 0.929 . S
C648 C645 1.399 . S
C648 C649 1.392 . S
C648 H665 0.929 . S
C649 C647 1.380 . S
C649 C648 1.392 . S
C649 H666 0.929 . S
C650 C645 1.383 . S
C650 C646 1.389 . S
C650 H667 0.931 . S
C651 O636 1.266 . S
C651 O637 1.248 . S
C652 Tb588 2.802 . S
C652 O632 1.264 . S
C652 O635 1.256 . S
C652 C645 1.496 . S
C653 C620 1.448 . S
C653 H630 0.930 . S
C653 C654 1.328 . S
C654 C625 1.427 . S
C654 H631 0.929 . S
C654 C653 1.328 . S
C655 O639 1.264 . S
C655 O640 1.243 . S
C656 C659 1.399 . S
C656 C660 1.383 . S
C656 C663 1.496 1_554 S
C657 C658 1.399 . S
C657 C660 1.389 . S
C658 C657 1.399 . S
C658 C661 1.380 . S
C658 H668 0.929 . S
C659 C656 1.399 . S
C659 C661 1.392 . S
C659 H669 0.929 . S
C660 C656 1.383 . S
C660 C657 1.389 . S
C660 H670 0.931 . S
C661 C658 1.380 . S
C661 C659 1.392 . S
C661 H671 0.929 . S
C662 O642 1.266 . S
C662 O643 1.248 . S
C663 Tb599 2.802 . S
C663 O638 1.264 . S
C663 O641 1.256 . S
C663 C656 1.496 1_556 S
H664 C647 0.929 . S
H665 C648 0.929 . S
H666 C649 0.929 . S
H667 C650 0.931 . S
H668 C658 0.929 . S
H669 C659 0.929 . S
H670 C660 0.931 . S
H671 C661 0.929 . S
Tb672 N701 2.617 . S
Tb672 N707 2.572 . S
Tb672 O716 2.465 . S
Tb672 O717 2.387 . S
Tb672 O719 2.428 . S
Tb672 O720 2.308 . S
Tb672 O724 2.349 . S
Tb672 O727 2.393 . S
Tb672 C736 2.802 . S
C673 N674 1.379 . S
C673 C676 1.416 . S
C673 C680 1.424 . S
N674 C673 1.379 . S
N674 C677 1.334 . S
N674 Tb683 2.617 . S
C675 C677 1.390 . S
C675 C678 1.339 . S
C675 H695 0.930 . S
C676 C673 1.416 . S
C676 C678 1.416 . S
C676 C682 1.448 . S
C677 N674 1.334 . S
C677 C675 1.390 . S
C677 H688 0.930 . S
C678 C675 1.339 . S
C678 C676 1.416 . S
C678 H699 0.930 . S
C679 C680 1.413 . S
C679 C681 1.427 . S
C679 C685 1.416 . S
C680 C673 1.424 . S
C680 C679 1.413 . S
C680 N684 1.361 . S
C681 C679 1.427 . S
C681 C682 1.328 . S
C681 H696 0.929 . S
C682 C676 1.448 . S
C682 C681 1.328 . S
C682 H697 0.930 . S
Tb683 N674 2.617 . S
Tb683 N684 2.572 . S
Tb683 O718 2.349 . S
Tb683 O721 2.393 . S
Tb683 O722 2.465 . S
Tb683 O723 2.387 . S
Tb683 O725 2.428 . S
Tb683 O726 2.308 . S
Tb683 C747 2.802 . S
N684 C680 1.361 . S
N684 Tb683 2.572 . S
N684 C686 1.340 . S
C685 C679 1.416 . S
C685 C687 1.332 . S
C685 H693 0.931 . S
C686 N684 1.340 . S
C686 C687 1.407 . S
C686 H692 0.930 . S
C687 C685 1.332 . S
C687 C686 1.407 . S
C687 H689 0.929 . S
H688 C677 0.930 . S
H689 C687 0.929 . S
H690 C705 0.930 . S
H691 C712 0.929 . S
H692 C686 0.930 . S
H693 C685 0.931 . S
H694 C708 0.930 . S
H695 C675 0.930 . S
H696 C681 0.929 . S
H697 C682 0.930 . S
H698 C703 0.930 . S
H699 C678 0.930 . S
H700 C711 0.931 . S
N701 Tb672 2.617 . S
N701 C702 1.379 . S
N701 C705 1.334 . S
C702 N701 1.379 . S
C702 C704 1.416 . S
C702 C710 1.424 . S
C703 H698 0.930 . S
C703 C705 1.390 . S
C703 C706 1.339 . S
C704 C702 1.416 . S
C704 C706 1.416 . S
C704 C737 1.448 1_655 S
C705 H690 0.930 . S
C705 N701 1.334 . S
C705 C703 1.390 . S
C706 C703 1.339 . S
C706 C704 1.416 . S
C706 H713 0.930 . S
N707 Tb672 2.572 . S
N707 C708 1.340 . S
N707 C710 1.361 . S
C708 H694 0.930 . S
C708 N707 1.340 . S
C708 C712 1.407 1_655 S
C709 C710 1.413 1_455 S
C709 C711 1.416 . S
C709 C738 1.427 . S
C710 C702 1.424 . S
C710 N707 1.361 . S
C710 C709 1.413 1_655 S
C711 H700 0.931 . S
C711 C709 1.416 . S
C711 C712 1.332 . S
C712 H691 0.929 . S
C712 C708 1.407 1_455 S
C712 C711 1.332 . S
H713 C706 0.930 . S
H714 C737 0.930 . S
H715 C738 0.929 . S
O716 Tb672 2.465 . S
O716 C736 1.264 . S
O717 Tb672 2.387 . S
O717 C728 1.264 . S
O718 Tb683 2.349 . S
O718 C728 1.243 . S
O719 Tb672 2.428 . S
O719 C736 1.256 . S
O720 Tb672 2.308 . S
O720 C735 1.266 . S
O721 Tb683 2.393 . S
O721 C735 1.248 . S
O722 Tb683 2.465 . S
O722 C747 1.264 . S
O723 Tb683 2.387 . S
O723 C739 1.264 . S
O724 Tb672 2.349 . S
O724 C739 1.243 . S
O725 Tb683 2.428 . S
O725 C747 1.256 . S
O726 Tb683 2.308 . S
O726 C746 1.266 . S
O727 Tb672 2.393 . S
O727 C746 1.248 . S
C728 O717 1.264 . S
C728 O718 1.243 . S
C729 C732 1.399 . S
C729 C734 1.383 . S
C729 C736 1.496 1_554 S
C730 C731 1.399 . S
C730 C734 1.389 . S
C731 C730 1.399 . S
C731 C733 1.380 . S
C731 H748 0.929 . S
C732 C729 1.399 . S
C732 C733 1.392 . S
C732 H749 0.929 . S
C733 C731 1.380 . S
C733 C732 1.392 . S
C733 H750 0.929 . S
C734 C729 1.383 . S
C734 C730 1.389 . S
C734 H751 0.931 . S
C735 O720 1.266 . S
C735 O721 1.248 . S
C736 Tb672 2.802 . S
C736 O716 1.264 . S
C736 O719 1.256 . S
C736 C729 1.496 1_556 S
C737 C704 1.448 1_455 S
C737 H714 0.930 . S
C737 C738 1.328 . S
C738 C709 1.427 . S
C738 H715 0.929 . S
C738 C737 1.328 . S
C739 O723 1.264 . S
C739 O724 1.243 . S
C740 C743 1.399 . S
C740 C744 1.383 . S
C740 C747 1.496 . S
C741 C742 1.399 . S
C741 C744 1.389 . S
C742 C741 1.399 . S
C742 C745 1.380 . S
C742 H752 0.929 . S
C743 C740 1.399 . S
C743 C745 1.392 . S
C743 H753 0.929 . S
C744 C740 1.383 . S
C744 C741 1.389 . S
C744 H754 0.931 . S
C745 C742 1.380 . S
C745 C743 1.392 . S
C745 H755 0.929 . S
C746 O726 1.266 . S
C746 O727 1.248 . S
C747 Tb683 2.802 . S
C747 O722 1.264 . S
C747 O725 1.256 . S
C747 C740 1.496 . S
H748 C731 0.929 . S
H749 C732 0.929 . S
H750 C733 0.929 . S
H751 C734 0.931 . S
H752 C742 0.929 . S
H753 C743 0.929 . S
H754 C744 0.931 . S
H755 C745 0.929 . S
C756 C757 1.387 . S
C756 H760 0.950 . S
C756 C765 1.390 . S
C757 C756 1.387 . S
C757 C759 1.387 . S
H758 C765 0.950 . S
C759 C757 1.387 . S
C759 C761 1.390 . S
C759 H763 0.950 . S
H760 C756 0.950 . S
C761 C759 1.390 . S
C761 C762 1.387 . S
C761 H764 0.950 . S
C762 C761 1.387 . S
C762 C765 1.387 . S
H763 C759 0.950 . S
H764 C761 0.950 . S
C765 C756 1.390 . S
C765 H758 0.950 . S
C765 C762 1.387 . S
C766 C767 1.387 . S
C766 H770 0.950 . S
C766 C775 1.390 . S
C767 C766 1.387 . S
C767 C769 1.387 . S
H768 C775 0.950 . S
C769 C767 1.387 . S
C769 C771 1.390 . S
C769 H773 0.950 . S
H770 C766 0.950 . S
C771 C769 1.390 . S
C771 C772 1.387 . S
C771 H774 0.950 . S
C772 C771 1.387 . S
C772 C775 1.387 . S
H773 C769 0.950 . S
H774 C771 0.950 . S
C775 C766 1.390 . S
C775 H768 0.950 . S
C775 C772 1.387 . S
C776 C777 1.387 . S
C776 H780 0.950 . S
C776 C785 1.390 . S
C777 C776 1.387 . S
C777 C779 1.387 . S
H778 C785 0.950 . S
C779 C777 1.387 . S
C779 C781 1.390 . S
C779 H783 0.950 . S
H780 C776 0.950 . S
C781 C779 1.390 . S
C781 C782 1.387 . S
C781 H784 0.950 . S
C782 C781 1.387 . S
C782 C785 1.387 . S
H783 C779 0.950 . S
H784 C781 0.950 . S
C785 C776 1.390 . S
C785 H778 0.950 . S
C785 C782 1.387 . S
C786 C787 1.387 . S
C786 H790 0.950 . S
C786 C795 1.390 . S
C787 C786 1.387 . S
C787 C789 1.387 . S
H788 C795 0.950 . S
C789 C787 1.387 . S
C789 C791 1.390 . S
C789 H793 0.950 . S
H790 C786 0.950 . S
C791 C789 1.390 . S
C791 C792 1.387 . S
C791 H794 0.950 . S
C792 C791 1.387 . S
C792 C795 1.387 . S
H793 C789 0.950 . S
H794 C791 0.950 . S
C795 C786 1.390 . S
C795 H788 0.950 . S
C795 C792 1.387 . S
C796 C797 1.387 . S
C796 H800 0.950 . S
C796 C805 1.390 . S
C797 C796 1.387 . S
C797 C799 1.387 . S
H798 C805 0.950 . S
C799 C797 1.387 . S
C799 C801 1.390 . S
C799 H803 0.950 . S
H800 C796 0.950 . S
C801 C799 1.390 . S
C801 C802 1.387 . S
C801 H804 0.950 . S
C802 C801 1.387 . S
C802 C805 1.387 . S
H803 C799 0.950 . S
H804 C801 0.950 . S
C805 C796 1.390 . S
C805 H798 0.950 . S
C805 C802 1.387 . S
C806 C807 1.387 . S
C806 H810 0.950 . S
C806 C815 1.390 . S
C807 C806 1.387 . S
C807 C809 1.387 . S
H808 C815 0.950 . S
C809 C807 1.387 . S
C809 C811 1.390 . S
C809 H813 0.950 . S
H810 C806 0.950 . S
C811 C809 1.390 . S
C811 C812 1.387 . S
C811 H814 0.950 . S
C812 C811 1.387 . S
C812 C815 1.387 . S
H813 C809 0.950 . S
H814 C811 0.950 . S
C815 C806 1.390 . S
C815 H808 0.950 . S
C815 C812 1.387 . S
C816 C817 1.387 . S
C816 H820 0.950 . S
C816 C825 1.390 . S
C817 C816 1.387 . S
C817 C819 1.387 . S
H818 C825 0.950 . S
C819 C817 1.387 . S
C819 C821 1.390 . S
C819 H823 0.950 . S
H820 C816 0.950 . S
C821 C819 1.390 . S
C821 C822 1.387 . S
C821 H824 0.950 . S
C822 C821 1.387 . S
C822 C825 1.387 . S
H823 C819 0.950 . S
H824 C821 0.950 . S
C825 C816 1.390 . S
C825 H818 0.950 . S
C825 C822 1.387 . S
C826 C827 1.387 . S
C826 H830 0.950 . S
C826 C835 1.390 . S
C827 C826 1.387 . S
C827 C829 1.387 . S
H828 C835 0.950 . S
C829 C827 1.387 . S
C829 C831 1.390 . S
C829 H833 0.950 . S
H830 C826 0.950 . S
C831 C829 1.390 . S
C831 C832 1.387 . S
C831 H834 0.950 . S
C832 C831 1.387 . S
C832 C835 1.387 . S
H833 C829 0.950 . S
H834 C831 0.950 . S
C835 C826 1.390 . S
C835 H828 0.950 . S
C835 C832 1.387 . S
C836 C837 1.387 . S
C836 H840 0.950 . S
C836 C845 1.390 . S
C837 C836 1.387 . S
C837 C839 1.387 . S
H838 C845 0.950 . S
C839 C837 1.387 . S
C839 C841 1.390 . S
C839 H843 0.950 . S
H840 C836 0.950 . S
C841 C839 1.390 . S
C841 C842 1.387 . S
C841 H844 0.950 . S
C842 C841 1.387 . S
C842 C845 1.387 . S
H843 C839 0.950 . S
H844 C841 0.950 . S
C845 C836 1.390 . S
C845 H838 0.950 . S
C845 C842 1.387 . S
C846 C847 1.387 . S
C846 H850 0.950 . S
C846 C855 1.390 . S
C847 C846 1.387 . S
C847 C849 1.387 . S
H848 C855 0.950 . S
C849 C847 1.387 . S
C849 C851 1.390 . S
C849 H853 0.950 . S
H850 C846 0.950 . S
C851 C849 1.390 . S
C851 C852 1.387 . S
C851 H854 0.950 . S
C852 C851 1.387 . S
C852 C855 1.387 . S
H853 C849 0.950 . S
H854 C851 0.950 . S
C855 C846 1.390 . S
C855 H848 0.950 . S
C855 C852 1.387 . S
C856 C857 1.387 . S
C856 H860 0.950 . S
C856 C865 1.390 . S
C857 C856 1.387 . S
C857 C859 1.387 . S
H858 C865 0.950 . S
C859 C857 1.387 . S
C859 C861 1.390 . S
C859 H863 0.950 . S
H860 C856 0.950 . S
C861 C859 1.390 . S
C861 C862 1.387 . S
C861 H864 0.950 . S
C862 C861 1.387 . S
C862 C865 1.387 . S
H863 C859 0.950 . S
H864 C861 0.950 . S
C865 C856 1.390 . S
C865 H858 0.950 . S
C865 C862 1.387 . S
C866 C867 1.387 . S
C866 H870 0.950 1_565 S
C866 C875 1.390 . S
C867 C866 1.387 . S
C867 C869 1.387 . S
H868 C875 0.950 . S
C869 C867 1.387 . S
C869 C871 1.390 . S
C869 H873 0.950 1_554 S
H870 C866 0.950 1_545 S
C871 C869 1.390 . S
C871 C872 1.387 . S
C871 H874 0.950 . S
C872 C871 1.387 . S
C872 C875 1.387 . S
H873 C869 0.950 1_556 S
H874 C871 0.950 . S
C875 C866 1.390 . S
C875 H868 0.950 . S
C875 C872 1.387 . S
C876 C877 1.387 . S
C876 H880 0.950 . S
C876 C885 1.390 . S
C877 C876 1.387 . S
C877 C879 1.387 . S
H878 C885 0.950 . S
C879 C877 1.387 . S
C879 C881 1.390 . S
C879 H883 0.950 . S
H880 C876 0.950 . S
C881 C879 1.390 . S
C881 C882 1.387 . S
C881 H884 0.950 . S
C882 C881 1.387 . S
C882 C885 1.387 . S
H883 C879 0.950 . S
H884 C881 0.950 . S
C885 C876 1.390 . S
C885 H878 0.950 . S
C885 C882 1.387 . S
C886 C887 1.387 . S
C886 H890 0.950 . S
C886 C895 1.390 . S
C887 C886 1.387 . S
C887 C889 1.387 . S
H888 C895 0.950 1_554 S
C889 C887 1.387 . S
C889 C891 1.390 . S
C889 H893 0.950 . S
H890 C886 0.950 . S
C891 C889 1.390 . S
C891 C892 1.387 1_556 S
C891 H894 0.950 1_656 S
C892 C891 1.387 1_554 S
C892 C895 1.387 1_554 S
H893 C889 0.950 . S
H894 C891 0.950 1_454 S
C895 C886 1.390 . S
C895 H888 0.950 1_556 S
C895 C892 1.387 1_556 S
C896 C897 1.387 . S
C896 H900 0.950 . S
C896 C905 1.390 . S
C897 C896 1.387 . S
C897 C899 1.387 . S
H898 C905 0.950 . S
C899 C897 1.387 . S
C899 C901 1.390 . S
C899 H903 0.950 . S
H900 C896 0.950 . S
C901 C899 1.390 . S
C901 C902 1.387 . S
C901 H904 0.950 . S
C902 C901 1.387 . S
C902 C905 1.387 . S
H903 C899 0.950 . S
H904 C901 0.950 . S
C905 C896 1.390 . S
C905 H898 0.950 . S
C905 C902 1.387 . S
C906 C907 1.387 . S
C906 H910 0.950 . S
C906 C915 1.390 . S
C907 C906 1.387 . S
C907 C909 1.387 . S
H908 C915 0.950 . S
C909 C907 1.387 . S
C909 C911 1.390 . S
C909 H913 0.950 . S
H910 C906 0.950 . S
C911 C909 1.390 . S
C911 C912 1.387 . S
C911 H914 0.950 . S
C912 C911 1.387 . S
C912 C915 1.387 . S
H913 C909 0.950 . S
H914 C911 0.950 . S
C915 C906 1.390 . S
C915 H908 0.950 . S
C915 C912 1.387 . S
C916 C917 1.387 . S
C916 H920 0.950 1_556 S
C916 C925 1.390 . S
C917 C916 1.387 . S
C917 C919 1.387 . S
H918 C925 0.950 . S
C919 C917 1.387 . S
C919 C921 1.390 . S
C919 H923 0.950 . S
H920 C916 0.950 1_554 S
C921 C919 1.390 . S
C921 C922 1.387 . S
C921 H924 0.950 . S
C922 C921 1.387 . S
C922 C925 1.387 . S
H923 C919 0.950 . S
H924 C921 0.950 . S
C925 C916 1.390 . S
C925 H918 0.950 . S
C925 C922 1.387 . S
C926 C927 1.387 . S
C926 H930 0.950 . S
C926 C935 1.390 . S
C927 C926 1.387 . S
C927 C929 1.387 . S
H928 C935 0.950 . S
C929 C927 1.387 . S
C929 C931 1.390 . S
C929 H933 0.950 . S
H930 C926 0.950 . S
C931 C929 1.390 . S
C931 C932 1.387 . S
C931 H934 0.950 . S
C932 C931 1.387 . S
C932 C935 1.387 . S
H933 C929 0.950 . S
H934 C931 0.950 . S
C935 C926 1.390 . S
C935 H928 0.950 . S
C935 C932 1.387 . S
C936 C937 1.387 . S
C936 H940 0.950 . S
C936 C945 1.390 . S
C937 C936 1.387 . S
C937 C939 1.387 1_554 S
H938 C945 0.950 . S
C939 C937 1.387 1_556 S
C939 C941 1.390 . S
C939 H943 0.950 . S
H940 C936 0.950 . S
C941 C939 1.390 . S
C941 C942 1.387 1_546 S
C941 H944 0.950 1_545 S
C942 C941 1.387 1_564 S
C942 C945 1.387 1_565 S
H943 C939 0.950 . S
H944 C941 0.950 1_565 S
C945 C936 1.390 . S
C945 H938 0.950 . S
C945 C942 1.387 1_545 S
C946 C947 1.387 . S
C946 H950 0.950 . S
C946 C955 1.390 . S
C947 C946 1.387 . S
C947 C949 1.387 . S
H948 C955 0.950 . S
C949 C947 1.387 . S
C949 C951 1.390 . S
C949 H953 0.950 . S
H950 C946 0.950 . S
C951 C949 1.390 . S
C951 C952 1.387 . S
C951 H954 0.950 . S
C952 C951 1.387 . S
C952 C955 1.387 . S
H953 C949 0.950 . S
H954 C951 0.950 . S
C955 C946 1.390 . S
C955 H948 0.950 . S
C955 C952 1.387 . S
C956 C957 1.387 . S
C956 H960 0.950 . S
C956 C965 1.390 . S
C957 C956 1.387 . S
C957 C959 1.387 . S
H958 C965 0.950 . S
C959 C957 1.387 . S
C959 C961 1.390 . S
C959 H963 0.950 . S
H960 C956 0.950 . S
C961 C959 1.390 . S
C961 C962 1.387 . S
C961 H964 0.950 . S
C962 C961 1.387 . S
C962 C965 1.387 . S
H963 C959 0.950 . S
H964 C961 0.950 . S
C965 C956 1.390 . S
C965 H958 0.950 . S
C965 C962 1.387 . S
C966 C967 1.387 . S
C966 H970 0.950 . S
C966 C975 1.390 . S
C967 C966 1.387 . S
C967 C969 1.387 . S
H968 C975 0.950 . S
C969 C967 1.387 . S
C969 C971 1.390 . S
C969 H973 0.950 . S
H970 C966 0.950 . S
C971 C969 1.390 . S
C971 C972 1.387 . S
C971 H974 0.950 . S
C972 C971 1.387 . S
C972 C975 1.387 . S
H973 C969 0.950 . S
H974 C971 0.950 . S
C975 C966 1.390 . S
C975 H968 0.950 . S
C975 C972 1.387 . S
C976 C977 1.387 . S
C976 H980 0.955 . S
C976 C985 1.390 1_545 S
C977 C976 1.387 . S
C977 C979 1.387 . S
H978 C985 0.950 . S
C979 C977 1.387 . S
C979 C981 1.390 . S
C979 H983 0.950 . S
H980 C976 0.955 . S
C981 C979 1.390 . S
C981 C982 1.387 1_545 S
C981 H984 0.950 . S
C982 C981 1.387 1_565 S
C982 C985 1.387 . S
H983 C979 0.950 . S
H984 C981 0.950 . S
C985 C976 1.390 1_565 S
C985 H978 0.950 . S
C985 C982 1.387 . S
C986 C987 1.387 . S
C986 H990 0.950 . S
C986 C995 1.390 . S
C987 C986 1.387 . S
C987 C989 1.387 . S
H988 C995 0.950 . S
C989 C987 1.387 . S
C989 C991 1.390 . S
C989 H993 0.950 . S
H990 C986 0.950 . S
C991 C989 1.390 . S
C991 C992 1.387 . S
C991 H994 0.950 . S
C992 C991 1.387 . S
C992 C995 1.387 . S
H993 C989 0.950 . S
H994 C991 0.950 . S
C995 C986 1.390 . S
C995 H988 0.950 . S
C995 C992 1.387 . S
C996 C997 1.387 . S
C996 H1000 0.950 . S
C996 C1005 1.390 . S
C997 C996 1.387 . S
C997 C999 1.387 . S
H998 C1005 0.950 . S
C999 C997 1.387 . S
C999 C1001 1.390 . S
C999 H1003 0.950 . S
H1000 C996 0.950 . S
C1001 C999 1.390 . S
C1001 C1002 1.387 . S
C1001 H1004 0.950 . S
C1002 C1001 1.387 . S
C1002 C1005 1.387 . S
H1003 C999 0.950 . S
H1004 C1001 0.950 . S
C1005 C996 1.390 . S
C1005 H998 0.950 . S
C1005 C1002 1.387 . S
C1006 C1007 1.387 1_545 S
C1006 H1010 0.950 1_545 S
C1006 C1015 1.390 . S
C1007 C1006 1.387 1_565 S
C1007 C1009 1.387 1_565 S
H1008 C1015 0.950 . S
C1009 C1007 1.387 1_545 S
C1009 C1011 1.390 . S
C1009 H1013 0.950 1_545 S
H1010 C1006 0.950 1_565 S
C1011 C1009 1.390 . S
C1011 C1012 1.387 . S
C1011 H1014 0.950 . S
C1012 C1011 1.387 . S
C1012 C1015 1.387 . S
H1013 C1009 0.950 1_565 S
H1014 C1011 0.950 . S
C1015 C1006 1.390 . S
C1015 H1008 0.950 . S
C1015 C1012 1.387 . S
C1016 C1017 1.387 . S
C1016 H1020 0.950 . S
C1016 C1025 1.390 . S
C1017 C1016 1.387 . S
C1017 C1019 1.387 . S
H1018 C1025 0.950 1_455 S
C1019 C1017 1.387 . S
C1019 C1021 1.390 . S
C1019 H1023 0.950 . S
H1020 C1016 0.950 . S
C1021 C1019 1.390 . S
C1021 C1022 1.387 . S
C1021 H1024 0.950 . S
C1022 C1021 1.387 . S
C1022 C1025 1.387 . S
H1023 C1019 0.950 . S
H1024 C1021 0.950 . S
C1025 C1016 1.390 . S
C1025 H1018 0.950 1_655 S
C1025 C1022 1.387 . S
C757 C63 3.552 . S
C762 C74 3.552 . S
C767 C158 3.578 . S
C772 C147 3.578 . S
C777 C231 3.607 . S
C782 C242 3.607 . S
C787 C326 3.551 . S
C792 C315 3.551 1_556 S
C797 C399 3.578 . S
C802 C410 3.578 1_556 S
C807 C494 3.607 . S
C812 C483 3.607 1_556 S
C817 C573 0.441 . S
C822 C562 0.441 . S
C827 C646 1.016 . S
C832 C657 1.016 . S
C837 C741 0.743 . S
C842 C730 0.743 . S
C847 C476 1.584 . S
C852 C69 1.276 . S
C857 C140 2.137 . S
C862 C308 2.137 . S
C867 C237 0.956 . S
C872 C405 0.974 . S
C877 C224 2.534 1_556 S
C882 C571 2.538 . S
C887 C662 1.673 . S
C892 C56 1.648 . S
C897 C739 1.343 . S
C902 C153 1.365 . S
C907 C735 1.089 . S
C912 C58 1.063 . S
C917 C151 2.093 1_556 S
C922 C567 2.108 . S
C927 C644 2.051 . S
C932 C226 2.028 . S
C937 C235 1.584 . S
C942 C310 1.274 . S
C947 C403 2.137 . S
C952 C67 2.136 . S
C957 C142 0.974 . S
C962 C478 0.957 . S
C967 C746 1.091 . S
C972 C321 1.067 . S
C977 C578 2.109 . S
C982 C392 2.093 . S
C987 C655 2.049 . S
C992 C489 2.029 1_655 S
C997 C560 2.537 . S
C1002 C487 2.533 . S
C1007 C319 1.648 . S
C1012 C651 1.673 . S
C1017 C728 1.340 . S
C1022 C394 1.367 1_655 S
