# Generated by pormake.
# Topology umf, (4)-cn, num edge types: 1
# Building blocks:
#     Node 0, Type 0, BuildingBlock: KOZSID_clean_sbu_0, # of connection points: 4
#     Node 1, Type 0, BuildingBlock: KOZSID_clean_sbu_0, # of connection points: 4
#     Node 2, Type 0, BuildingBlock: KOZSID_clean_sbu_0, # of connection points: 4
#     Node 3, Type 0, BuildingBlock: KOZSID_clean_sbu_0, # of connection points: 4
#     Node 4, Type 0, BuildingBlock: KOZSID_clean_sbu_0, # of connection points: 4
#     Node 5, Type 0, BuildingBlock: KOZSID_clean_sbu_0, # of connection points: 4
#     Node 6, Type 0, BuildingBlock: KOZSID_clean_sbu_0, # of connection points: 4
#     Node 7, Type 0, BuildingBlock: KOZSID_clean_sbu_0, # of connection points: 4
#     Edge 8, Type (0, 0), None
#     Edge 9, Type (0, 0), None
#     Edge 10, Type (0, 0), None
#     Edge 11, Type (0, 0), None
#     Edge 12, Type (0, 0), None
#     Edge 13, Type (0, 0), None
#     Edge 14, Type (0, 0), None
#     Edge 15, Type (0, 0), None
#     Edge 16, Type (0, 0), None
#     Edge 17, Type (0, 0), None
#     Edge 18, Type (0, 0), None
#     Edge 19, Type (0, 0), None
#     Edge 20, Type (0, 0), None
#     Edge 21, Type (0, 0), None
#     Edge 22, Type (0, 0), None
#     Edge 23, Type (0, 0), None
# Relax obj value: 0.091
# Max RMSD: 0.206
# Mean RMSD: 0.206
data_MOF--net-umf--node1-KOZSID_clean_sbu_0--edge1-none
_symmetry_space_group_name_H-M    P1
_symmetry_Int_Tables_number       1
_symmetry_cell_setting            triclinic
loop_
_symmetry_equiv_pos_as_xyz
'x, y, z'
_cell_length_a     21.097404
_cell_length_b     21.119914
_cell_length_c     28.510521
_cell_angle_alpha  90.000143
_cell_angle_beta   89.999746
_cell_angle_gamma 90.000418
loop_
_atom_site_label
_atom_site_type_symbol
_atom_site_fract_x
_atom_site_fract_y
_atom_site_fract_z
_atom_type_partial_charge
C0 C 0.21525 0.22707 0.19471 0.0
C1 C 0.28115 0.22418 0.19753 0.0
C2 C 0.30442 0.25776 0.16052 0.0
C3 C 0.25221 0.2793 0.13682 0.0
N4 N 0.19716 0.26308 0.1576 0.0
Co5 Co 0.1109 0.28278 0.13348 0.0
N6 N 0.14366 0.28715 0.0685 0.0
C7 C 0.20502 0.28606 0.05556 0.0
C8 C 0.21351 0.26478 0.01061 0.0
C9 C 0.15373 0.25429 0.99393 0.0
C10 C 0.11208 0.27496 0.02857 0.0
N11 N 1.02681 0.30436 0.10935 0.0
C12 C 1.00991 0.31619 0.06423 0.0
C13 C 0.95709 0.35595 0.06402 0.0
C14 C 0.93802 0.36354 0.11001 0.0
C15 C 0.98186 0.33122 0.13633 0.0
N16 N 0.08273 0.27195 0.19902 0.0
C17 C 1.02746 0.29312 0.2163 0.0
C18 C 1.01782 0.27252 0.26159 0.0
C19 C 0.06998 0.23555 0.27269 0.0
C20 C 0.10941 0.23536 0.23365 0.0
N21 N 0.1196 0.37909 0.14146 0.0
C22 C 0.05378 0.50134 0.14498 0.0
C23 C 0.07173 0.46734 0.18592 0.0
C24 C 0.10568 0.4084 0.18348 0.0
C25 C 0.0792 0.47558 0.10315 0.0
C26 C 0.11174 0.4165 0.10219 0.0
N27 N 0.0897 0.19144 0.12496 0.0
C28 C 1.00549 0.11306 0.13041 0.0
C29 C 0.04437 0.06554 0.11291 0.0
C30 C 0.10755 0.08264 0.10128 0.0
C31 C 0.1291 0.14598 0.10707 0.0
C32 C 1.02883 0.17415 0.13659 0.0
H33 H 0.17717 0.15807 0.09748 0.0
H34 H 0.99622 0.2073 0.15149 0.0
H35 H 0.11556 0.38433 0.21608 0.0
H36 H 0.1244 0.39912 0.068 0.0
C37 C 0.25318 0.28981 0.08873 0.0
C38 C 0.17177 0.19977 0.23012 0.0
C39 C 0.04539 0.29309 0.02155 0.0
C40 C 0.98352 0.32378 0.18599 0.0
H41 H 0.30989 0.19942 0.22303 0.0
H42 H 0.35343 0.25987 0.14935 0.0
H43 H 0.25778 0.25417 0.9931 0.0
H44 H 0.14265 0.23605 0.95945 0.0
H45 H 0.93445 0.37706 0.03377 0.0
H46 H 0.89788 0.39054 0.12258 0.0
H47 H 0.97645 0.28052 0.28323 0.0
H48 H 0.07752 0.21051 0.30534 0.0
H49 H 0.05788 0.48441 0.22014 0.0
H50 H 0.07283 0.49954 0.07003 0.0
H51 H 0.9574 0.10276 0.14137 0.0
H52 H 0.14011 0.04738 0.0879 0.0
C53 C 0.83733 0.21473 0.69455 0.0
C54 C 0.84028 0.28056 0.69733 0.0
C55 C 0.80669 0.3038 0.6603 0.0
C56 C 0.78507 0.25162 0.63664 0.0
N57 N 0.80125 0.19665 0.65746 0.0
Co58 Co 0.78142 0.11047 0.63341 0.0
N59 N 0.77702 0.14311 0.5684 0.0
C60 C 0.77816 0.20439 0.55541 0.0
C61 C 0.79939 0.21278 0.51044 0.0
C62 C 0.80982 0.15304 0.4938 0.0
C63 C 0.78914 0.11149 0.52849 0.0
N64 N 0.75971 1.02646 0.60935 0.0
C65 C 0.74784 1.00951 0.56425 0.0
C66 C 0.70802 0.95675 0.56409 0.0
C67 C 0.70045 0.93777 0.61009 0.0
C68 C 0.73283 0.9816 0.63637 0.0
N69 N 0.79229 0.0824 0.69897 0.0
C70 C 0.77107 1.02722 0.71629 0.0
C71 C 0.7917 1.01763 0.76159 0.0
C72 C 0.82875 0.06972 0.77264 0.0
C73 C 0.82895 0.10906 0.73358 0.0
N74 N 0.68505 0.11928 0.64142 0.0
C75 C 0.56287 0.05329 0.64498 0.0
C76 C 0.59685 0.07129 0.68591 0.0
C77 C 0.65576 0.10535 0.68346 0.0
C78 C 0.58853 0.07879 0.60314 0.0
C79 C 0.64758 0.11142 0.60217 0.0
N80 N 0.87279 0.08921 0.62485 0.0
C81 C 0.95116 1.00503 0.63027 0.0
C82 C 0.99871 0.04381 0.61267 0.0
C83 C 0.98165 0.10692 0.60101 0.0
C84 C 0.91828 0.1285 0.60687 0.0
C85 C 0.89005 1.02841 0.63651 0.0
H86 H 0.9062 0.17652 0.59726 0.0
H87 H 0.85688 0.99589 0.65148 0.0
H88 H 0.67985 0.11528 0.71605 0.0
H89 H 0.66492 0.12415 0.56798 0.0
C90 C 0.7745 0.25254 0.58856 0.0
C91 C 0.86461 0.17133 0.73001 0.0
C92 C 0.77098 0.04486 0.52154 0.0
C93 C 0.74032 0.98331 0.68602 0.0
H94 H 0.8651 0.30928 0.7228 0.0
H95 H 0.80461 0.35274 0.6491 0.0
H96 H 0.81004 0.25697 0.4929 0.0
H97 H 0.82803 0.14191 0.45932 0.0
H98 H 0.68689 0.93408 0.53386 0.0
H99 H 0.67343 0.89769 0.6227 0.0
H100 H 0.78367 0.97634 0.78325 0.0
H101 H 0.85382 0.07728 0.80529 0.0
H102 H 0.57982 0.0574 0.72014 0.0
H103 H 0.56452 0.07241 0.57003 0.0
H104 H 0.96146 0.957 0.64125 0.0
H105 H 1.01696 0.13939 0.58758 0.0
C106 C 0.84957 0.83662 0.19471 0.0
C107 C 0.78367 0.8395 0.19753 0.0
C108 C 0.7604 0.80593 0.16052 0.0
C109 C 0.81262 0.78439 0.13682 0.0
N110 N 0.86766 0.8006 0.1576 0.0
Co111 Co 0.95392 0.78091 0.13348 0.0
N112 N 0.92116 0.77653 0.0685 0.0
C113 C 0.8598 0.77763 0.05556 0.0
C114 C 0.85132 0.7989 0.01061 0.0
C115 C 0.91109 0.8094 0.99393 0.0
C116 C 0.95274 0.78873 0.02857 0.0
N117 N 0.03801 0.75933 0.10935 0.0
C118 C 0.05491 0.7475 0.06423 0.0
C119 C 0.10773 0.70774 0.06402 0.0
C120 C 0.12681 0.70015 0.11 0.0
C121 C 0.08296 0.73247 0.13633 0.0
N122 N 0.98209 0.79174 0.19902 0.0
C123 C 0.03736 0.77057 0.2163 0.0
C124 C 0.047 0.79117 0.26159 0.0
C125 C 0.99485 0.82814 0.27269 0.0
C126 C 0.95541 0.82833 0.23365 0.0
N127 N 0.94522 0.68459 0.14146 0.0
C128 C 1.01104 0.56234 0.14498 0.0
C129 C 0.9931 0.59634 0.18592 0.0
C130 C 0.95914 0.65528 0.18349 0.0
C131 C 0.98562 0.5881 0.10315 0.0
C132 C 0.95309 0.64718 0.10219 0.0
N133 N 0.97512 0.87225 0.12496 0.0
C134 C 0.05933 0.95063 0.13042 0.0
C135 C 1.02044 0.99815 0.11292 0.0
C136 C 0.95727 0.98105 0.10128 0.0
C137 C 0.93572 0.9177 0.10707 0.0
C138 C 0.03599 0.88953 0.13659 0.0
H139 H 0.88765 0.90561 0.09748 0.0
H140 H 0.06861 0.85639 0.15149 0.0
H141 H 0.94927 0.67935 0.21608 0.0
H142 H 0.94043 0.66456 0.068 0.0
C143 C 0.81164 0.77387 0.08873 0.0
C144 C 0.89305 0.86391 0.23012 0.0
C145 C 1.01943 0.7706 0.02155 0.0
C146 C 0.0813 0.7399 0.18599 0.0
H147 H 0.75494 0.86427 0.22303 0.0
H148 H 0.71139 0.80381 0.14936 0.0
H149 H 0.80704 0.80951 0.9931 0.0
H150 H 0.92217 0.82763 0.95945 0.0
H151 H 0.13038 0.68663 0.03377 0.0
H152 H 0.16695 0.67315 0.12258 0.0
H153 H 0.08837 0.78317 0.28322 0.0
H154 H 0.9873 0.85318 0.30534 0.0
H155 H 1.00694 0.57927 0.22014 0.0
H156 H 0.992 0.56415 0.07003 0.0
H157 H 0.10741 0.96093 0.14137 0.0
H158 H 0.92471 1.01631 0.0879 0.0
C159 C 0.22749 0.84896 0.69455 0.0
C160 C 0.22455 0.78313 0.69733 0.0
C161 C 0.25814 0.75989 0.6603 0.0
C162 C 0.27976 0.81207 0.63664 0.0
N163 N 0.26358 0.86704 0.65746 0.0
Co164 Co 0.2834 0.95322 0.63341 0.0
N165 N 0.28781 0.92058 0.5684 0.0
C166 C 0.28667 0.8593 0.55542 0.0
C167 C 0.26544 0.85091 0.51044 0.0
C168 C 0.25501 0.91065 0.4938 0.0
C169 C 0.27569 0.9522 0.52849 0.0
N170 N 0.30512 0.03723 0.60935 0.0
C171 C 0.31698 0.05418 0.56424 0.0
C172 C 0.3568 0.10694 0.56409 0.0
C173 C 0.36437 0.12592 0.61009 0.0
C174 C 0.332 0.08209 0.63637 0.0
N175 N 0.27253 0.98129 0.69897 0.0
C176 C 0.29375 0.03647 0.71629 0.0
C177 C 0.27312 0.04606 0.76158 0.0
C178 C 0.23607 0.99397 0.77264 0.0
C179 C 0.23588 0.95463 0.73358 0.0
N180 N 0.37977 0.94441 0.64142 0.0
C181 C 0.50196 1.0104 0.64498 0.0
C182 C 0.46797 0.9924 0.68591 0.0
C183 C 0.40907 0.95834 0.68346 0.0
C184 C 0.4763 0.9849 0.60314 0.0
C185 C 0.41724 0.95227 0.60217 0.0
N186 N 0.19203 0.97448 0.62485 0.0
C187 C 0.11366 0.05865 0.63027 0.0
C188 C 0.06612 1.01987 0.61268 0.0
C189 C 0.08318 0.95677 0.60101 0.0
C190 C 0.14655 0.93518 0.60687 0.0
C191 C 0.17477 0.03528 0.63651 0.0
H192 H 0.15863 0.88717 0.59725 0.0
H193 H 0.20795 0.0678 0.65148 0.0
H194 H 0.38498 0.94842 0.71605 0.0
H195 H 0.39991 0.93954 0.56798 0.0
C196 C 0.29033 0.81115 0.58856 0.0
C197 C 0.20022 0.89236 0.73001 0.0
C198 C 0.29384 1.01883 0.52154 0.0
C199 C 0.3245 0.08038 0.68602 0.0
H200 H 0.19973 0.75441 0.7228 0.0
H201 H 0.26022 0.71095 0.6491 0.0
H202 H 0.25479 0.80671 0.4929 0.0
H203 H 0.2368 0.92177 0.45932 0.0
H204 H 0.37793 0.12961 0.53385 0.0
H205 H 0.39139 0.166 0.6227 0.0
H206 H 0.28115 0.08736 0.78325 0.0
H207 H 0.211 0.98642 0.80528 0.0
H208 H 0.48501 1.00629 0.72014 0.0
H209 H 0.50031 0.99129 0.57003 0.0
H210 H 0.10337 0.10668 0.64125 0.0
H211 H 0.04787 0.9243 0.58757 0.0
C212 C 0.21525 0.83666 0.80409 0.0
C213 C 0.28115 0.83955 0.80126 0.0
C214 C 0.30443 0.80598 0.83827 0.0
C215 C 0.25221 0.78441 0.86197 0.0
N216 N 0.19716 0.80062 0.84119 0.0
Co217 Co 0.1109 0.78091 0.8653 0.0
N218 N 0.14367 0.77653 0.93028 0.0
C219 C 0.20503 0.77762 0.94322 0.0
C220 C 0.21352 0.79889 0.98818 0.0
C221 C 0.15375 0.80939 0.00485 0.0
C222 C 0.11209 0.78872 0.97021 0.0
N223 N 1.02681 0.75931 0.88944 0.0
C224 C 1.00992 0.74749 0.93457 0.0
C225 C 0.9571 0.70773 0.93478 0.0
C226 C 0.93801 0.70014 0.8888 0.0
C227 C 0.98186 0.73246 0.86247 0.0
N228 N 0.0827 0.79175 0.79976 0.0
C229 C 1.02743 0.77058 0.7825 0.0
C230 C 1.01777 0.7912 0.73721 0.0
C231 C 0.06992 0.82817 0.7261 0.0
C232 C 0.10936 0.82834 0.76513 0.0
N233 N 0.1196 0.6846 0.85732 0.0
C234 C 0.05379 0.56235 0.85379 0.0
C235 C 0.07172 0.59635 0.81285 0.0
C236 C 0.10567 0.65529 0.81529 0.0
C237 C 0.07921 0.5881 0.89562 0.0
C238 C 0.11174 0.64718 0.89658 0.0
N239 N 0.08969 0.87225 0.87383 0.0
C240 C 1.00549 0.95063 0.86839 0.0
C241 C 0.04437 0.99815 0.88588 0.0
C242 C 0.10755 0.98105 0.89751 0.0
C243 C 0.12909 0.9177 0.89172 0.0
C244 C 1.02882 0.88953 0.86222 0.0
H245 H 0.17717 0.90562 0.9013 0.0
H246 H 0.9962 0.85639 0.84732 0.0
H247 H 0.11553 0.67937 0.7827 0.0
H248 H 0.12442 0.66456 0.93078 0.0
C249 C 0.25319 0.77388 0.91005 0.0
C250 C 0.17175 0.86385 0.76866 0.0
C251 C 0.0454 0.77059 0.97724 0.0
C252 C 0.9835 0.73991 0.81281 0.0
H253 H 0.30988 0.86431 0.77576 0.0
H254 H 0.35344 0.80387 0.84943 0.0
H255 H 0.2578 0.8095 0.00568 0.0
H256 H 0.14267 0.82763 0.03933 0.0
H257 H 0.93446 0.68662 0.96504 0.0
H258 H 0.89787 0.67315 0.87623 0.0
H259 H 0.97639 0.78319 0.71558 0.0
H260 H 0.07746 0.8532 0.69344 0.0
H261 H 0.05786 0.57929 0.77863 0.0
H262 H 0.07284 0.56414 0.92874 0.0
H263 H 0.9574 0.96093 0.85744 0.0
H264 H 0.14012 1.01631 0.91088 0.0
C265 C 0.22746 0.21473 0.30424 0.0
C266 C 0.2245 0.28056 0.30147 0.0
C267 C 0.25809 0.3038 0.33849 0.0
C268 C 0.27974 0.25163 0.36215 0.0
N269 N 0.26356 0.19665 0.34132 0.0
Co270 Co 0.2834 0.11047 0.36537 0.0
N271 N 0.28782 0.14311 0.43038 0.0
C272 C 0.28668 0.2044 0.44337 0.0
C273 C 0.26545 0.21279 0.48834 0.0
C274 C 0.25502 0.15306 0.50498 0.0
C275 C 0.27569 0.1115 0.4703 0.0
N276 N 0.30513 1.02646 0.38944 0.0
C277 C 0.31699 1.00951 0.43455 0.0
C278 C 0.35681 0.95676 0.43471 0.0
C279 C 0.36438 0.93776 0.38871 0.0
C280 C 0.332 0.98159 0.36242 0.0
N281 N 0.27252 0.08237 0.29982 0.0
C282 C 0.29374 1.02718 0.2825 0.0
C283 C 0.27309 1.01757 0.23721 0.0
C284 C 0.23605 0.06966 0.22615 0.0
C285 C 0.23586 0.10901 0.26521 0.0
N286 N 0.37977 0.11928 0.35735 0.0
C287 C 0.50195 0.05329 0.3538 0.0
C288 C 0.46796 0.07127 0.31286 0.0
C289 C 0.40906 0.10534 0.31531 0.0
C290 C 0.4763 0.0788 0.39563 0.0
C291 C 0.41725 0.11143 0.3966 0.0
N292 N 0.19203 0.08921 0.37395 0.0
C293 C 0.11367 1.00502 0.36854 0.0
C294 C 0.06612 0.04381 0.38612 0.0
C295 C 0.08318 0.10692 0.39778 0.0
C296 C 0.14655 0.1285 0.39192 0.0
C297 C 0.17478 1.0284 0.3623 0.0
H298 H 0.15863 0.17652 0.40153 0.0
H299 H 0.20795 0.99587 0.34733 0.0
H300 H 0.38496 0.11525 0.28273 0.0
H301 H 0.39992 0.12417 0.4308 0.0
C302 C 0.29033 0.25255 0.41022 0.0
C303 C 0.20029 0.17131 0.26877 0.0
C304 C 0.29386 0.04487 0.47725 0.0
C305 C 0.3245 0.98328 0.31278 0.0
H306 H 0.19969 0.30928 0.27599 0.0
H307 H 0.26017 0.35275 0.34969 0.0
H308 H 0.2548 0.25699 0.50588 0.0
H309 H 0.23681 0.14193 0.53947 0.0
H310 H 0.37794 0.93409 0.46495 0.0
H311 H 0.39139 0.89768 0.3761 0.0
H312 H 0.28112 0.97627 0.21556 0.0
H313 H 0.21098 0.07721 0.1935 0.0
H314 H 0.48499 0.05737 0.27864 0.0
H315 H 0.50032 0.07242 0.42874 0.0
H316 H 0.10337 0.95699 0.35756 0.0
H317 H 0.04787 0.13939 0.41121 0.0
C318 C 0.84957 0.22704 0.80409 0.0
C319 C 0.78368 0.22414 0.80126 0.0
C320 C 0.7604 0.25772 0.83827 0.0
C321 C 0.81261 0.27928 0.86197 0.0
N322 N 0.86766 0.26307 0.84118 0.0
Co323 Co 0.95392 0.28278 0.8653 0.0
N324 N 0.92116 0.28716 0.93028 0.0
C325 C 0.85979 0.28607 0.94322 0.0
C326 C 0.8513 0.2648 0.98818 0.0
C327 C 0.91107 0.2543 0.00485 0.0
C328 C 0.95273 0.27497 0.97021 0.0
N329 N 0.03801 0.30437 0.88944 0.0
C330 C 0.05491 0.3162 0.93457 0.0
C331 C 0.10773 0.35596 0.93478 0.0
C332 C 0.12681 0.36354 0.8888 0.0
C333 C 0.08297 0.33122 0.86247 0.0
N334 N 0.98212 0.27194 0.79976 0.0
C335 C 0.0374 0.29311 0.7825 0.0
C336 C 0.04706 0.27249 0.73721 0.0
C337 C 0.99491 0.23552 0.7261 0.0
C338 C 0.95547 0.23535 0.76513 0.0
N339 N 0.94522 0.37909 0.85732 0.0
C340 C 1.01104 0.50134 0.85379 0.0
C341 C 0.99311 0.46734 0.81285 0.0
C342 C 0.95916 0.4084 0.81529 0.0
C343 C 0.98561 0.47559 0.89562 0.0
C344 C 0.95308 0.41651 0.89658 0.0
N345 N 0.97513 0.19144 0.87383 0.0
C346 C 0.05933 0.11306 0.86839 0.0
C347 C 1.02044 0.06554 0.88588 0.0
C348 C 0.95727 0.08264 0.89751 0.0
C349 C 0.93573 0.14599 0.89172 0.0
C350 C 0.036 0.17416 0.86222 0.0
H351 H 0.88765 0.15808 0.90131 0.0
H352 H 0.06862 0.2073 0.84732 0.0
H353 H 0.9493 0.38432 0.7827 0.0
H354 H 0.94041 0.39913 0.93078 0.0
C355 C 0.81164 0.28982 0.91005 0.0
C356 C 0.89307 0.19984 0.76866 0.0
C357 C 1.01942 0.2931 0.97724 0.0
C358 C 0.08133 0.32378 0.81281 0.0
H359 H 0.75494 0.19938 0.77576 0.0
H360 H 0.71139 0.25983 0.84943 0.0
H361 H 0.80702 0.25419 0.00568 0.0
H362 H 0.92215 0.23607 0.03933 0.0
H363 H 0.13037 0.37706 0.96504 0.0
H364 H 0.16696 0.39053 0.87623 0.0
H365 H 0.08844 0.28049 0.71558 0.0
H366 H 0.98737 0.21049 0.69345 0.0
H367 H 1.00697 0.4844 0.77863 0.0
H368 H 0.99198 0.49955 0.92874 0.0
H369 H 0.10743 0.10276 0.85744 0.0
H370 H 0.9247 0.04738 0.91089 0.0
C371 C 0.83736 0.84895 0.30424 0.0
C372 C 0.84032 0.78313 0.30147 0.0
C373 C 0.80673 0.75989 0.33849 0.0
C374 C 0.78508 0.81206 0.36215 0.0
N375 N 0.80126 0.86704 0.34132 0.0
Co376 Co 0.78142 0.95322 0.36537 0.0
N377 N 0.777 0.92057 0.43038 0.0
C378 C 0.77814 0.85929 0.44337 0.0
C379 C 0.79937 0.85089 0.48834 0.0
C380 C 0.8098 0.91063 0.50498 0.0
C381 C 0.78913 0.95218 0.4703 0.0
N382 N 0.7597 0.03723 0.38944 0.0
C383 C 0.74783 0.05417 0.43455 0.0
C384 C 0.70802 0.10693 0.43471 0.0
C385 C 0.70045 0.12593 0.38871 0.0
C386 C 0.73282 0.0821 0.36242 0.0
N387 N 0.7923 0.98132 0.29982 0.0
C388 C 0.77109 0.03651 0.28251 0.0
C389 C 0.79173 0.04612 0.23721 0.0
C390 C 0.82878 0.99403 0.22615 0.0
C391 C 0.82896 0.95468 0.26521 0.0
N392 N 0.68505 0.94441 0.35735 0.0
C393 C 0.56286 1.0104 0.3538 0.0
C394 C 0.59686 0.99241 0.31286 0.0
C395 C 0.65576 0.95835 0.31531 0.0
C396 C 0.58852 0.98489 0.39563 0.0
C397 C 0.64757 0.95226 0.3966 0.0
N398 N 0.87279 0.97448 0.37395 0.0
C399 C 0.95116 0.05866 0.36854 0.0
C400 C 0.9987 1.01987 0.38612 0.0
C401 C 0.98164 0.95676 0.39778 0.0
C402 C 0.91827 0.93518 0.39192 0.0
C403 C 0.89005 0.03529 0.3623 0.0
H404 H 0.90619 0.88716 0.40153 0.0
H405 H 0.85687 0.06781 0.34733 0.0
H406 H 0.67986 0.94844 0.28273 0.0
H407 H 0.6649 0.93953 0.4308 0.0
C408 C 0.77449 0.81114 0.41022 0.0
C409 C 0.86454 0.89238 0.26877 0.0
C410 C 0.77097 1.01882 0.47725 0.0
C411 C 0.74033 0.08041 0.31278 0.0
H412 H 0.86513 0.75441 0.27599 0.0
H413 H 0.80465 0.71094 0.34969 0.0
H414 H 0.81002 0.8067 0.50588 0.0
H415 H 0.82801 0.92175 0.53947 0.0
H416 H 0.68689 0.1296 0.46495 0.0
H417 H 0.67343 0.16601 0.3761 0.0
H418 H 0.7837 0.08742 0.21556 0.0
H419 H 0.85384 0.98647 0.1935 0.0
H420 H 0.57983 1.00631 0.27864 0.0
H421 H 0.5645 0.99127 0.42874 0.0
H422 H 0.96146 0.10669 0.35756 0.0
H423 H 1.01695 0.92429 0.41122 0.0
loop_
_geom_bond_atom_site_label_1
_geom_bond_atom_site_label_2
_geom_bond_distance
_geom_bond_site_symmetry_2
_ccdc_geom_bond_type
C0 C1 1.443 . S
C0 N4 1.376 . S
C0 C38 1.389 . S
C1 C0 1.443 . S
C1 C2 1.340 . S
C1 H41 0.951 . S
C2 C1 1.340 . S
C2 C3 1.439 . S
C2 H42 0.950 . S
C3 C2 1.439 . S
C3 N4 1.374 . S
C3 C37 1.395 . S
N4 C0 1.376 . S
N4 C3 1.374 . S
N4 Co5 2.008 . S
Co5 N4 2.008 . S
Co5 N6 1.995 . S
Co5 N11 2.008 1_455 S
Co5 N16 1.995 . S
Co5 N21 2.282 . S
Co5 N27 2.282 . S
N6 Co5 1.995 . S
N6 C7 1.376 . S
N6 C10 1.383 . S
C7 N6 1.376 . S
C7 C8 1.446 . S
C7 C37 1.391 . S
C8 C7 1.446 . S
C8 C9 1.339 1_554 S
C8 H43 0.949 1_554 S
C9 C8 1.339 1_556 S
C9 C10 1.439 1_556 S
C9 H44 0.950 . S
C10 N6 1.383 . S
C10 C9 1.439 1_554 S
C10 C39 1.398 . S
N11 Co5 2.008 1_655 S
N11 C12 1.376 . S
N11 C15 1.374 . S
C12 N11 1.376 . S
C12 C13 1.443 . S
C12 C39 1.385 1_655 S
C13 C12 1.443 . S
C13 C14 1.340 . S
C13 H45 0.951 . S
C14 C13 1.340 . S
C14 C15 1.439 . S
C14 H46 0.950 . S
C15 N11 1.374 . S
C15 C14 1.439 . S
C15 C40 1.395 . S
N16 Co5 1.995 . S
N16 C17 1.376 1_455 S
N16 C20 1.383 . S
C17 N16 1.376 1_655 S
C17 C18 1.446 . S
C17 C40 1.391 . S
C18 C17 1.446 . S
C18 C19 1.339 1_655 S
C18 H47 0.949 . S
C19 C18 1.339 1_455 S
C19 C20 1.439 . S
C19 H48 0.950 . S
C20 N16 1.383 . S
C20 C19 1.439 . S
C20 C38 1.392 . S
N21 Co5 2.282 . S
N21 C24 1.332 . S
N21 C26 1.332 . S
C22 C23 1.386 . S
C22 C25 1.388 . S
C23 C22 1.386 . S
C23 C24 1.382 . S
C23 H49 0.950 1_455 S
C24 N21 1.332 . S
C24 C23 1.382 . S
C24 H35 0.952 . S
C25 C22 1.388 . S
C25 C26 1.382 . S
C25 H50 0.950 . S
C26 N21 1.332 . S
C26 C25 1.382 . S
C26 H36 0.948 . S
N27 Co5 2.282 . S
N27 C31 1.332 . S
N27 C32 1.332 . S
C28 C29 1.388 . S
C28 C32 1.382 . S
C28 H51 0.950 1_455 S
C29 C28 1.388 . S
C29 C30 1.386 . S
C30 C29 1.386 . S
C30 C31 1.382 . S
C30 H52 0.950 . S
C31 N27 1.332 . S
C31 C30 1.382 . S
C31 H33 0.952 . S
C32 N27 1.332 . S
C32 C28 1.382 . S
C32 H34 0.948 1_455 S
H33 C31 0.952 . S
H34 C32 0.948 1_655 S
H35 C24 0.952 . S
H36 C26 0.948 . S
C37 C3 1.395 . S
C37 C7 1.391 . S
C38 C0 1.389 . S
C38 C20 1.392 . S
C39 C10 1.398 . S
C39 C12 1.385 1_455 S
C40 C15 1.395 . S
C40 C17 1.391 . S
H41 C1 0.951 . S
H42 C2 0.950 . S
H43 C8 0.949 1_556 S
H44 C9 0.950 . S
H45 C13 0.951 . S
H46 C14 0.950 . S
H47 C18 0.949 . S
H48 C19 0.950 . S
H49 C23 0.950 1_655 S
H50 C25 0.950 . S
H51 C28 0.950 1_655 S
H52 C30 0.950 . S
C53 C54 1.443 . S
C53 N57 1.376 . S
C53 C91 1.389 . S
C54 C53 1.443 . S
C54 C55 1.340 . S
C54 H94 0.951 . S
C55 C54 1.340 . S
C55 C56 1.439 . S
C55 H95 0.950 . S
C56 C55 1.439 . S
C56 N57 1.374 . S
C56 C90 1.395 . S
N57 C53 1.376 . S
N57 C56 1.374 . S
N57 Co58 2.008 . S
Co58 N57 2.008 . S
Co58 N59 1.995 . S
Co58 N64 2.008 1_545 S
Co58 N69 1.995 . S
Co58 N74 2.282 . S
Co58 N80 2.282 . S
N59 Co58 1.995 . S
N59 C60 1.376 . S
N59 C63 1.383 . S
C60 N59 1.376 . S
C60 C61 1.446 . S
C60 C90 1.391 . S
C61 C60 1.446 . S
C61 C62 1.339 . S
C61 H96 0.949 . S
C62 C61 1.339 . S
C62 C63 1.439 . S
C62 H97 0.950 . S
C63 N59 1.383 . S
C63 C62 1.439 . S
C63 C92 1.398 . S
N64 Co58 2.008 1_565 S
N64 C65 1.376 . S
N64 C68 1.374 . S
C65 N64 1.376 . S
C65 C66 1.443 . S
C65 C92 1.385 1_565 S
C66 C65 1.443 . S
C66 C67 1.340 . S
C66 H98 0.951 . S
C67 C66 1.340 . S
C67 C68 1.439 . S
C67 H99 0.950 . S
C68 N64 1.374 . S
C68 C67 1.439 . S
C68 C93 1.395 . S
N69 Co58 1.995 . S
N69 C70 1.376 1_545 S
N69 C73 1.383 . S
C70 N69 1.376 1_565 S
C70 C71 1.446 . S
C70 C93 1.391 . S
C71 C70 1.446 . S
C71 C72 1.339 1_565 S
C71 H100 0.949 . S
C72 C71 1.339 1_545 S
C72 C73 1.439 . S
C72 H101 0.950 . S
C73 N69 1.383 . S
C73 C72 1.439 . S
C73 C91 1.392 . S
N74 Co58 2.282 . S
N74 C77 1.332 . S
N74 C79 1.332 . S
C75 C76 1.386 . S
C75 C78 1.388 . S
C76 C75 1.386 . S
C76 C77 1.382 . S
C76 H102 0.950 1_545 S
C77 N74 1.332 . S
C77 C76 1.382 . S
C77 H88 0.952 . S
C78 C75 1.388 . S
C78 C79 1.382 . S
C78 H103 0.950 . S
C79 N74 1.332 . S
C79 C78 1.382 . S
C79 H89 0.948 . S
N80 Co58 2.282 . S
N80 C84 1.332 . S
N80 C85 1.332 . S
C81 C82 1.388 . S
C81 C85 1.382 . S
C81 H104 0.950 1_545 S
C82 C81 1.388 . S
C82 C83 1.386 . S
C83 C82 1.386 . S
C83 C84 1.382 . S
C83 H105 0.950 . S
C84 N80 1.332 . S
C84 C83 1.382 . S
C84 H86 0.952 . S
C85 N80 1.332 . S
C85 C81 1.382 . S
C85 H87 0.948 1_545 S
H86 C84 0.952 . S
H87 C85 0.948 1_565 S
H88 C77 0.952 . S
H89 C79 0.948 . S
C90 C56 1.395 . S
C90 C60 1.391 . S
C91 C53 1.389 . S
C91 C73 1.392 . S
C92 C63 1.398 . S
C92 C65 1.385 1_545 S
C93 C68 1.395 . S
C93 C70 1.391 . S
H94 C54 0.951 . S
H95 C55 0.950 . S
H96 C61 0.949 . S
H97 C62 0.950 . S
H98 C66 0.951 . S
H99 C67 0.950 . S
H100 C71 0.949 . S
H101 C72 0.950 . S
H102 C76 0.950 1_565 S
H103 C78 0.950 . S
H104 C81 0.950 1_565 S
H105 C83 0.950 . S
C106 C107 1.443 . S
C106 N110 1.376 . S
C106 C144 1.389 . S
C107 C106 1.443 . S
C107 C108 1.340 . S
C107 H147 0.951 . S
C108 C107 1.340 . S
C108 C109 1.439 . S
C108 H148 0.950 . S
C109 C108 1.439 . S
C109 N110 1.374 . S
C109 C143 1.395 . S
N110 C106 1.376 . S
N110 C109 1.374 . S
N110 Co111 2.008 . S
Co111 N110 2.008 . S
Co111 N112 1.995 . S
Co111 N117 2.008 1_655 S
Co111 N122 1.995 . S
Co111 N127 2.282 . S
Co111 N133 2.282 . S
N112 Co111 1.995 . S
N112 C113 1.376 . S
N112 C116 1.383 . S
C113 N112 1.376 . S
C113 C114 1.446 . S
C113 C143 1.391 . S
C114 C113 1.446 . S
C114 C115 1.339 1_554 S
C114 H149 0.949 1_554 S
C115 C114 1.339 1_556 S
C115 C116 1.439 1_556 S
C115 H150 0.950 . S
C116 N112 1.383 . S
C116 C115 1.439 1_554 S
C116 C145 1.398 . S
N117 Co111 2.008 1_455 S
N117 C118 1.376 . S
N117 C121 1.374 . S
C118 N117 1.376 . S
C118 C119 1.443 . S
C118 C145 1.385 1_455 S
C119 C118 1.443 . S
C119 C120 1.340 . S
C119 H151 0.951 . S
C120 C119 1.340 . S
C120 C121 1.439 . S
C120 H152 0.950 . S
C121 N117 1.374 . S
C121 C120 1.439 . S
C121 C146 1.395 . S
N122 Co111 1.995 . S
N122 C123 1.376 1_655 S
N122 C126 1.383 . S
C123 N122 1.376 1_455 S
C123 C124 1.446 . S
C123 C146 1.391 . S
C124 C123 1.446 . S
C124 C125 1.339 1_455 S
C124 H153 0.949 . S
C125 C124 1.339 1_655 S
C125 C126 1.439 . S
C125 H154 0.950 . S
C126 N122 1.383 . S
C126 C125 1.439 . S
C126 C144 1.392 . S
N127 Co111 2.282 . S
N127 C130 1.332 . S
N127 C132 1.332 . S
C128 C129 1.386 . S
C128 C131 1.388 . S
C129 C128 1.386 . S
C129 C130 1.382 . S
C129 H155 0.950 1_655 S
C130 N127 1.332 . S
C130 C129 1.382 . S
C130 H141 0.952 . S
C131 C128 1.388 . S
C131 C132 1.382 . S
C131 H156 0.950 . S
C132 N127 1.332 . S
C132 C131 1.382 . S
C132 H142 0.948 . S
N133 Co111 2.282 . S
N133 C137 1.332 . S
N133 C138 1.332 . S
C134 C135 1.388 . S
C134 C138 1.382 . S
C134 H157 0.950 1_655 S
C135 C134 1.388 . S
C135 C136 1.386 . S
C136 C135 1.386 . S
C136 C137 1.382 . S
C136 H158 0.950 . S
C137 N133 1.332 . S
C137 C136 1.382 . S
C137 H139 0.952 . S
C138 N133 1.332 . S
C138 C134 1.382 . S
C138 H140 0.948 1_655 S
H139 C137 0.952 . S
H140 C138 0.948 1_455 S
H141 C130 0.952 . S
H142 C132 0.948 . S
C143 C109 1.395 . S
C143 C113 1.391 . S
C144 C106 1.389 . S
C144 C126 1.392 . S
C145 C116 1.398 . S
C145 C118 1.385 1_655 S
C146 C121 1.395 . S
C146 C123 1.391 . S
H147 C107 0.951 . S
H148 C108 0.950 . S
H149 C114 0.949 1_556 S
H150 C115 0.950 . S
H151 C119 0.951 . S
H152 C120 0.950 . S
H153 C124 0.949 . S
H154 C125 0.950 . S
H155 C129 0.950 1_455 S
H156 C131 0.950 . S
H157 C134 0.950 1_455 S
H158 C136 0.950 . S
C159 C160 1.443 . S
C159 N163 1.376 . S
C159 C197 1.389 . S
C160 C159 1.443 . S
C160 C161 1.340 . S
C160 H200 0.951 . S
C161 C160 1.340 . S
C161 C162 1.439 . S
C161 H201 0.950 . S
C162 C161 1.439 . S
C162 N163 1.374 . S
C162 C196 1.395 . S
N163 C159 1.376 . S
N163 C162 1.374 . S
N163 Co164 2.008 . S
Co164 N163 2.008 . S
Co164 N165 1.995 . S
Co164 N170 2.008 1_565 S
Co164 N175 1.995 . S
Co164 N180 2.282 . S
Co164 N186 2.282 . S
N165 Co164 1.995 . S
N165 C166 1.376 . S
N165 C169 1.383 . S
C166 N165 1.376 . S
C166 C167 1.446 . S
C166 C196 1.391 . S
C167 C166 1.446 . S
C167 C168 1.339 . S
C167 H202 0.949 . S
C168 C167 1.339 . S
C168 C169 1.439 . S
C168 H203 0.950 . S
C169 N165 1.383 . S
C169 C168 1.439 . S
C169 C198 1.398 . S
N170 Co164 2.008 1_545 S
N170 C171 1.376 . S
N170 C174 1.374 . S
C171 N170 1.376 . S
C171 C172 1.443 . S
C171 C198 1.385 1_545 S
C172 C171 1.443 . S
C172 C173 1.340 . S
C172 H204 0.951 . S
C173 C172 1.340 . S
C173 C174 1.439 . S
C173 H205 0.950 . S
C174 N170 1.374 . S
C174 C173 1.439 . S
C174 C199 1.395 . S
N175 Co164 1.995 . S
N175 C176 1.376 1_565 S
N175 C179 1.383 . S
C176 N175 1.376 1_545 S
C176 C177 1.446 . S
C176 C199 1.391 . S
C177 C176 1.446 . S
C177 C178 1.339 1_545 S
C177 H206 0.949 . S
C178 C177 1.339 1_565 S
C178 C179 1.439 . S
C178 H207 0.950 . S
C179 N175 1.383 . S
C179 C178 1.439 . S
C179 C197 1.392 . S
N180 Co164 2.282 . S
N180 C183 1.332 . S
N180 C185 1.332 . S
C181 C182 1.386 . S
C181 C184 1.388 . S
C182 C181 1.386 . S
C182 C183 1.382 . S
C182 H208 0.950 1_565 S
C183 N180 1.332 . S
C183 C182 1.382 . S
C183 H194 0.952 . S
C184 C181 1.388 . S
C184 C185 1.382 . S
C184 H209 0.950 . S
C185 N180 1.332 . S
C185 C184 1.382 . S
C185 H195 0.948 . S
N186 Co164 2.282 . S
N186 C190 1.332 . S
N186 C191 1.332 . S
C187 C188 1.388 . S
C187 C191 1.382 . S
C187 H210 0.950 1_565 S
C188 C187 1.388 . S
C188 C189 1.386 . S
C189 C188 1.386 . S
C189 C190 1.382 . S
C189 H211 0.950 . S
C190 N186 1.332 . S
C190 C189 1.382 . S
C190 H192 0.952 . S
C191 N186 1.332 . S
C191 C187 1.382 . S
C191 H193 0.948 1_565 S
H192 C190 0.952 . S
H193 C191 0.948 1_545 S
H194 C183 0.952 . S
H195 C185 0.948 . S
C196 C162 1.395 . S
C196 C166 1.391 . S
C197 C159 1.389 . S
C197 C179 1.392 . S
C198 C169 1.398 . S
C198 C171 1.385 1_565 S
C199 C174 1.395 . S
C199 C176 1.391 . S
H200 C160 0.951 . S
H201 C161 0.950 . S
H202 C167 0.949 . S
H203 C168 0.950 . S
H204 C172 0.951 . S
H205 C173 0.950 . S
H206 C177 0.949 . S
H207 C178 0.950 . S
H208 C182 0.950 1_545 S
H209 C184 0.950 . S
H210 C187 0.950 1_545 S
H211 C189 0.950 . S
C212 C213 1.443 . S
C212 N216 1.376 . S
C212 C250 1.389 . S
C213 C212 1.443 . S
C213 C214 1.340 . S
C213 H253 0.951 . S
C214 C213 1.340 . S
C214 C215 1.439 . S
C214 H254 0.950 . S
C215 C214 1.439 . S
C215 N216 1.374 . S
C215 C249 1.395 . S
N216 C212 1.376 . S
N216 C215 1.374 . S
N216 Co217 2.008 . S
Co217 N216 2.008 . S
Co217 N218 1.995 . S
Co217 N223 2.008 1_455 S
Co217 N228 1.995 . S
Co217 N233 2.282 . S
Co217 N239 2.282 . S
N218 Co217 1.995 . S
N218 C219 1.376 . S
N218 C222 1.383 . S
C219 N218 1.376 . S
C219 C220 1.446 . S
C219 C249 1.391 . S
C220 C219 1.446 . S
C220 C221 1.339 1_556 S
C220 H255 0.949 1_556 S
C221 C220 1.339 1_554 S
C221 C222 1.439 1_554 S
C221 H256 0.950 . S
C222 N218 1.383 . S
C222 C221 1.439 1_556 S
C222 C251 1.398 . S
N223 Co217 2.008 1_655 S
N223 C224 1.376 . S
N223 C227 1.374 . S
C224 N223 1.376 . S
C224 C225 1.443 . S
C224 C251 1.385 1_655 S
C225 C224 1.443 . S
C225 C226 1.340 . S
C225 H257 0.951 . S
C226 C225 1.340 . S
C226 C227 1.439 . S
C226 H258 0.950 . S
C227 N223 1.374 . S
C227 C226 1.439 . S
C227 C252 1.395 . S
N228 Co217 1.995 . S
N228 C229 1.376 1_455 S
N228 C232 1.383 . S
C229 N228 1.376 1_655 S
C229 C230 1.446 . S
C229 C252 1.391 . S
C230 C229 1.446 . S
C230 C231 1.339 1_655 S
C230 H259 0.949 . S
C231 C230 1.339 1_455 S
C231 C232 1.439 . S
C231 H260 0.950 . S
C232 N228 1.383 . S
C232 C231 1.439 . S
C232 C250 1.392 . S
N233 Co217 2.282 . S
N233 C236 1.332 . S
N233 C238 1.332 . S
C234 C235 1.386 . S
C234 C237 1.388 . S
C235 C234 1.386 . S
C235 C236 1.382 . S
C235 H261 0.950 1_455 S
C236 N233 1.332 . S
C236 C235 1.382 . S
C236 H247 0.952 . S
C237 C234 1.388 . S
C237 C238 1.382 . S
C237 H262 0.950 . S
C238 N233 1.332 . S
C238 C237 1.382 . S
C238 H248 0.948 . S
N239 Co217 2.282 . S
N239 C243 1.332 . S
N239 C244 1.332 . S
C240 C241 1.388 . S
C240 C244 1.382 . S
C240 H263 0.950 1_455 S
C241 C240 1.388 . S
C241 C242 1.386 . S
C242 C241 1.386 . S
C242 C243 1.382 . S
C242 H264 0.950 . S
C243 N239 1.332 . S
C243 C242 1.382 . S
C243 H245 0.952 . S
C244 N239 1.332 . S
C244 C240 1.382 . S
C244 H246 0.948 1_455 S
H245 C243 0.952 . S
H246 C244 0.948 1_655 S
H247 C236 0.952 . S
H248 C238 0.948 . S
C249 C215 1.395 . S
C249 C219 1.391 . S
C250 C212 1.389 . S
C250 C232 1.392 . S
C251 C222 1.398 . S
C251 C224 1.385 1_455 S
C252 C227 1.395 . S
C252 C229 1.391 . S
H253 C213 0.951 . S
H254 C214 0.950 . S
H255 C220 0.949 1_554 S
H256 C221 0.950 . S
H257 C225 0.951 . S
H258 C226 0.950 . S
H259 C230 0.949 . S
H260 C231 0.950 . S
H261 C235 0.950 1_655 S
H262 C237 0.950 . S
H263 C240 0.950 1_655 S
H264 C242 0.950 . S
C265 C266 1.443 . S
C265 N269 1.376 . S
C265 C303 1.389 . S
C266 C265 1.443 . S
C266 C267 1.340 . S
C266 H306 0.951 . S
C267 C266 1.340 . S
C267 C268 1.439 . S
C267 H307 0.950 . S
C268 C267 1.439 . S
C268 N269 1.374 . S
C268 C302 1.395 . S
N269 C265 1.376 . S
N269 C268 1.374 . S
N269 Co270 2.008 . S
Co270 N269 2.008 . S
Co270 N271 1.995 . S
Co270 N276 2.008 1_545 S
Co270 N281 1.995 . S
Co270 N286 2.282 . S
Co270 N292 2.282 . S
N271 Co270 1.995 . S
N271 C272 1.376 . S
N271 C275 1.383 . S
C272 N271 1.376 . S
C272 C273 1.446 . S
C272 C302 1.391 . S
C273 C272 1.446 . S
C273 C274 1.339 . S
C273 H308 0.949 . S
C274 C273 1.339 . S
C274 C275 1.439 . S
C274 H309 0.950 . S
C275 N271 1.383 . S
C275 C274 1.439 . S
C275 C304 1.398 . S
N276 Co270 2.008 1_565 S
N276 C277 1.376 . S
N276 C280 1.374 . S
C277 N276 1.376 . S
C277 C278 1.443 . S
C277 C304 1.385 1_565 S
C278 C277 1.443 . S
C278 C279 1.340 . S
C278 H310 0.951 . S
C279 C278 1.340 . S
C279 C280 1.439 . S
C279 H311 0.950 . S
C280 N276 1.374 . S
C280 C279 1.439 . S
C280 C305 1.395 . S
N281 Co270 1.995 . S
N281 C282 1.376 1_545 S
N281 C285 1.383 . S
C282 N281 1.376 1_565 S
C282 C283 1.446 . S
C282 C305 1.391 . S
C283 C282 1.446 . S
C283 C284 1.339 1_565 S
C283 H312 0.949 . S
C284 C283 1.339 1_545 S
C284 C285 1.439 . S
C284 H313 0.950 . S
C285 N281 1.383 . S
C285 C284 1.439 . S
C285 C303 1.392 . S
N286 Co270 2.282 . S
N286 C289 1.332 . S
N286 C291 1.332 . S
C287 C288 1.386 . S
C287 C290 1.388 . S
C288 C287 1.386 . S
C288 C289 1.382 . S
C288 H314 0.950 1_545 S
C289 N286 1.332 . S
C289 C288 1.382 . S
C289 H300 0.952 . S
C290 C287 1.388 . S
C290 C291 1.382 . S
C290 H315 0.950 . S
C291 N286 1.332 . S
C291 C290 1.382 . S
C291 H301 0.948 . S
N292 Co270 2.282 . S
N292 C296 1.332 . S
N292 C297 1.332 . S
C293 C294 1.388 . S
C293 C297 1.382 . S
C293 H316 0.950 1_545 S
C294 C293 1.388 . S
C294 C295 1.386 . S
C295 C294 1.386 . S
C295 C296 1.382 . S
C295 H317 0.950 . S
C296 N292 1.332 . S
C296 C295 1.382 . S
C296 H298 0.952 . S
C297 N292 1.332 . S
C297 C293 1.382 . S
C297 H299 0.948 1_545 S
H298 C296 0.952 . S
H299 C297 0.948 1_565 S
H300 C289 0.952 . S
H301 C291 0.948 . S
C302 C268 1.395 . S
C302 C272 1.391 . S
C303 C265 1.389 . S
C303 C285 1.392 . S
C304 C275 1.398 . S
C304 C277 1.385 1_545 S
C305 C280 1.395 . S
C305 C282 1.391 . S
H306 C266 0.951 . S
H307 C267 0.950 . S
H308 C273 0.949 . S
H309 C274 0.950 . S
H310 C278 0.951 . S
H311 C279 0.950 . S
H312 C283 0.949 . S
H313 C284 0.950 . S
H314 C288 0.950 1_565 S
H315 C290 0.950 . S
H316 C293 0.950 1_565 S
H317 C295 0.950 . S
C318 C319 1.443 . S
C318 N322 1.376 . S
C318 C356 1.389 . S
C319 C318 1.443 . S
C319 C320 1.340 . S
C319 H359 0.951 . S
C320 C319 1.340 . S
C320 C321 1.439 . S
C320 H360 0.950 . S
C321 C320 1.439 . S
C321 N322 1.374 . S
C321 C355 1.395 . S
N322 C318 1.376 . S
N322 C321 1.374 . S
N322 Co323 2.008 . S
Co323 N322 2.008 . S
Co323 N324 1.995 . S
Co323 N329 2.008 1_655 S
Co323 N334 1.995 . S
Co323 N339 2.282 . S
Co323 N345 2.282 . S
N324 Co323 1.995 . S
N324 C325 1.376 . S
N324 C328 1.383 . S
C325 N324 1.376 . S
C325 C326 1.446 . S
C325 C355 1.391 . S
C326 C325 1.446 . S
C326 C327 1.339 1_556 S
C326 H361 0.949 1_556 S
C327 C326 1.339 1_554 S
C327 C328 1.439 1_554 S
C327 H362 0.950 . S
C328 N324 1.383 . S
C328 C327 1.439 1_556 S
C328 C357 1.398 . S
N329 Co323 2.008 1_455 S
N329 C330 1.376 . S
N329 C333 1.374 . S
C330 N329 1.376 . S
C330 C331 1.443 . S
C330 C357 1.385 1_455 S
C331 C330 1.443 . S
C331 C332 1.340 . S
C331 H363 0.951 . S
C332 C331 1.340 . S
C332 C333 1.439 . S
C332 H364 0.950 . S
C333 N329 1.374 . S
C333 C332 1.439 . S
C333 C358 1.395 . S
N334 Co323 1.995 . S
N334 C335 1.376 1_655 S
N334 C338 1.383 . S
C335 N334 1.376 1_455 S
C335 C336 1.446 . S
C335 C358 1.391 . S
C336 C335 1.446 . S
C336 C337 1.339 1_455 S
C336 H365 0.949 . S
C337 C336 1.339 1_655 S
C337 C338 1.439 . S
C337 H366 0.950 . S
C338 N334 1.383 . S
C338 C337 1.439 . S
C338 C356 1.392 . S
N339 Co323 2.282 . S
N339 C342 1.332 . S
N339 C344 1.332 . S
C340 C341 1.386 . S
C340 C343 1.388 . S
C341 C340 1.386 . S
C341 C342 1.382 . S
C341 H367 0.950 1_655 S
C342 N339 1.332 . S
C342 C341 1.382 . S
C342 H353 0.952 . S
C343 C340 1.388 . S
C343 C344 1.382 . S
C343 H368 0.950 . S
C344 N339 1.332 . S
C344 C343 1.382 . S
C344 H354 0.948 . S
N345 Co323 2.282 . S
N345 C349 1.332 . S
N345 C350 1.332 . S
C346 C347 1.388 . S
C346 C350 1.382 . S
C346 H369 0.950 1_655 S
C347 C346 1.388 . S
C347 C348 1.386 . S
C348 C347 1.386 . S
C348 C349 1.382 . S
C348 H370 0.950 . S
C349 N345 1.332 . S
C349 C348 1.382 . S
C349 H351 0.952 . S
C350 N345 1.332 . S
C350 C346 1.382 . S
C350 H352 0.948 1_655 S
H351 C349 0.952 . S
H352 C350 0.948 1_455 S
H353 C342 0.952 . S
H354 C344 0.948 . S
C355 C321 1.395 . S
C355 C325 1.391 . S
C356 C318 1.389 . S
C356 C338 1.392 . S
C357 C328 1.398 . S
C357 C330 1.385 1_655 S
C358 C333 1.395 . S
C358 C335 1.391 . S
H359 C319 0.951 . S
H360 C320 0.950 . S
H361 C326 0.949 1_554 S
H362 C327 0.950 . S
H363 C331 0.951 . S
H364 C332 0.950 . S
H365 C336 0.949 . S
H366 C337 0.950 . S
H367 C341 0.950 1_455 S
H368 C343 0.950 . S
H369 C346 0.950 1_455 S
H370 C348 0.950 . S
C371 C372 1.443 . S
C371 N375 1.376 . S
C371 C409 1.389 . S
C372 C371 1.443 . S
C372 C373 1.340 . S
C372 H412 0.951 . S
C373 C372 1.340 . S
C373 C374 1.439 . S
C373 H413 0.950 . S
C374 C373 1.439 . S
C374 N375 1.374 . S
C374 C408 1.395 . S
N375 C371 1.376 . S
N375 C374 1.374 . S
N375 Co376 2.008 . S
Co376 N375 2.008 . S
Co376 N377 1.995 . S
Co376 N382 2.008 1_565 S
Co376 N387 1.995 . S
Co376 N392 2.282 . S
Co376 N398 2.282 . S
N377 Co376 1.995 . S
N377 C378 1.376 . S
N377 C381 1.383 . S
C378 N377 1.376 . S
C378 C379 1.446 . S
C378 C408 1.391 . S
C379 C378 1.446 . S
C379 C380 1.339 . S
C379 H414 0.949 . S
C380 C379 1.339 . S
C380 C381 1.439 . S
C380 H415 0.950 . S
C381 N377 1.383 . S
C381 C380 1.439 . S
C381 C410 1.398 . S
N382 Co376 2.008 1_545 S
N382 C383 1.376 . S
N382 C386 1.374 . S
C383 N382 1.376 . S
C383 C384 1.443 . S
C383 C410 1.385 1_545 S
C384 C383 1.443 . S
C384 C385 1.340 . S
C384 H416 0.951 . S
C385 C384 1.340 . S
C385 C386 1.439 . S
C385 H417 0.950 . S
C386 N382 1.374 . S
C386 C385 1.439 . S
C386 C411 1.395 . S
N387 Co376 1.995 . S
N387 C388 1.376 1_565 S
N387 C391 1.383 . S
C388 N387 1.376 1_545 S
C388 C389 1.446 . S
C388 C411 1.391 . S
C389 C388 1.446 . S
C389 C390 1.339 1_545 S
C389 H418 0.949 . S
C390 C389 1.339 1_565 S
C390 C391 1.439 . S
C390 H419 0.950 . S
C391 N387 1.383 . S
C391 C390 1.439 . S
C391 C409 1.392 . S
N392 Co376 2.282 . S
N392 C395 1.332 . S
N392 C397 1.332 . S
C393 C394 1.386 . S
C393 C396 1.388 . S
C394 C393 1.386 . S
C394 C395 1.382 . S
C394 H420 0.950 1_565 S
C395 N392 1.332 . S
C395 C394 1.382 . S
C395 H406 0.952 . S
C396 C393 1.388 . S
C396 C397 1.382 . S
C396 H421 0.950 . S
C397 N392 1.332 . S
C397 C396 1.382 . S
C397 H407 0.948 . S
N398 Co376 2.282 . S
N398 C402 1.332 . S
N398 C403 1.332 . S
C399 C400 1.388 . S
C399 C403 1.382 . S
C399 H422 0.950 1_565 S
C400 C399 1.388 . S
C400 C401 1.386 . S
C401 C400 1.386 . S
C401 C402 1.382 . S
C401 H423 0.950 . S
C402 N398 1.332 . S
C402 C401 1.382 . S
C402 H404 0.952 . S
C403 N398 1.332 . S
C403 C399 1.382 . S
C403 H405 0.948 1_565 S
H404 C402 0.952 . S
H405 C403 0.948 1_545 S
H406 C395 0.952 . S
H407 C397 0.948 . S
C408 C374 1.395 . S
C408 C378 1.391 . S
C409 C371 1.389 . S
C409 C391 1.392 . S
C410 C381 1.398 . S
C410 C383 1.385 1_565 S
C411 C386 1.395 . S
C411 C388 1.391 . S
H412 C372 0.951 . S
H413 C373 0.950 . S
H414 C379 0.949 . S
H415 C380 0.950 . S
H416 C384 0.951 . S
H417 C385 0.950 . S
H418 C389 0.949 . S
H419 C390 0.950 . S
H420 C394 0.950 1_545 S
H421 C396 0.950 . S
H422 C399 0.950 1_545 S
H423 C401 0.950 . S
C22 C128 3.173 1_455 S
C181 C75 3.173 1_565 S
C340 C234 3.173 1_655 S
C287 C393 3.173 1_545 S
C357 C39 2.042 1_656 S
C92 C410 2.042 1_545 S
C145 C251 2.042 1_654 S
C304 C198 2.042 1_545 S
C38 C303 2.621 . S
C356 C91 2.621 . S
C409 C144 2.621 . S
C197 C250 2.621 . S
C29 C135 2.910 1_445 S
C188 C82 2.910 1_465 S
C347 C241 2.910 1_645 S
C400 C294 2.910 1_665 S
