# Generated by pormake.
# Topology wlg, (5)-cn, num edge types: 1
# Building blocks:
#     Node 0, Type 0, BuildingBlock: XOMCOT_clean_sbu_0, # of connection points: 5
#     Node 1, Type 0, BuildingBlock: XOMCOT_clean_sbu_0, # of connection points: 5
#     Node 2, Type 0, BuildingBlock: XOMCOT_clean_sbu_0, # of connection points: 5
#     Node 3, Type 0, BuildingBlock: XOMCOT_clean_sbu_0, # of connection points: 5
#     Node 4, Type 0, BuildingBlock: XOMCOT_clean_sbu_0, # of connection points: 5
#     Node 5, Type 0, BuildingBlock: XOMCOT_clean_sbu_0, # of connection points: 5
#     Node 6, Type 0, BuildingBlock: XOMCOT_clean_sbu_0, # of connection points: 5
#     Node 7, Type 0, BuildingBlock: XOMCOT_clean_sbu_0, # of connection points: 5
#     Node 8, Type 0, BuildingBlock: XOMCOT_clean_sbu_0, # of connection points: 5
#     Node 9, Type 0, BuildingBlock: XOMCOT_clean_sbu_0, # of connection points: 5
#     Node 10, Type 0, BuildingBlock: XOMCOT_clean_sbu_0, # of connection points: 5
#     Node 11, Type 0, BuildingBlock: XOMCOT_clean_sbu_0, # of connection points: 5
#     Node 12, Type 0, BuildingBlock: XOMCOT_clean_sbu_0, # of connection points: 5
#     Node 13, Type 0, BuildingBlock: XOMCOT_clean_sbu_0, # of connection points: 5
#     Node 14, Type 0, BuildingBlock: XOMCOT_clean_sbu_0, # of connection points: 5
#     Node 15, Type 0, BuildingBlock: XOMCOT_clean_sbu_0, # of connection points: 5
#     Node 16, Type 0, BuildingBlock: XOMCOT_clean_sbu_0, # of connection points: 5
#     Node 17, Type 0, BuildingBlock: XOMCOT_clean_sbu_0, # of connection points: 5
#     Node 18, Type 0, BuildingBlock: XOMCOT_clean_sbu_0, # of connection points: 5
#     Node 19, Type 0, BuildingBlock: XOMCOT_clean_sbu_0, # of connection points: 5
#     Node 20, Type 0, BuildingBlock: XOMCOT_clean_sbu_0, # of connection points: 5
#     Node 21, Type 0, BuildingBlock: XOMCOT_clean_sbu_0, # of connection points: 5
#     Node 22, Type 0, BuildingBlock: XOMCOT_clean_sbu_0, # of connection points: 5
#     Node 23, Type 0, BuildingBlock: XOMCOT_clean_sbu_0, # of connection points: 5
#     Node 24, Type 0, BuildingBlock: XOMCOT_clean_sbu_0, # of connection points: 5
#     Node 25, Type 0, BuildingBlock: XOMCOT_clean_sbu_0, # of connection points: 5
#     Node 26, Type 0, BuildingBlock: XOMCOT_clean_sbu_0, # of connection points: 5
#     Node 27, Type 0, BuildingBlock: XOMCOT_clean_sbu_0, # of connection points: 5
#     Node 28, Type 0, BuildingBlock: XOMCOT_clean_sbu_0, # of connection points: 5
#     Node 29, Type 0, BuildingBlock: XOMCOT_clean_sbu_0, # of connection points: 5
#     Node 30, Type 0, BuildingBlock: XOMCOT_clean_sbu_0, # of connection points: 5
#     Node 31, Type 0, BuildingBlock: XOMCOT_clean_sbu_0, # of connection points: 5
#     Node 32, Type 0, BuildingBlock: XOMCOT_clean_sbu_0, # of connection points: 5
#     Node 33, Type 0, BuildingBlock: XOMCOT_clean_sbu_0, # of connection points: 5
#     Node 34, Type 0, BuildingBlock: XOMCOT_clean_sbu_0, # of connection points: 5
#     Node 35, Type 0, BuildingBlock: XOMCOT_clean_sbu_0, # of connection points: 5
#     Edge 36, Type (0, 0), None
#     Edge 37, Type (0, 0), None
#     Edge 38, Type (0, 0), None
#     Edge 39, Type (0, 0), None
#     Edge 40, Type (0, 0), None
#     Edge 41, Type (0, 0), None
#     Edge 42, Type (0, 0), None
#     Edge 43, Type (0, 0), None
#     Edge 44, Type (0, 0), None
#     Edge 45, Type (0, 0), None
#     Edge 46, Type (0, 0), None
#     Edge 47, Type (0, 0), None
#     Edge 48, Type (0, 0), None
#     Edge 49, Type (0, 0), None
#     Edge 50, Type (0, 0), None
#     Edge 51, Type (0, 0), None
#     Edge 52, Type (0, 0), None
#     Edge 53, Type (0, 0), None
#     Edge 54, Type (0, 0), None
#     Edge 55, Type (0, 0), None
#     Edge 56, Type (0, 0), None
#     Edge 57, Type (0, 0), None
#     Edge 58, Type (0, 0), None
#     Edge 59, Type (0, 0), None
#     Edge 60, Type (0, 0), None
#     Edge 61, Type (0, 0), None
#     Edge 62, Type (0, 0), None
#     Edge 63, Type (0, 0), None
#     Edge 64, Type (0, 0), None
#     Edge 65, Type (0, 0), None
#     Edge 66, Type (0, 0), None
#     Edge 67, Type (0, 0), None
#     Edge 68, Type (0, 0), None
#     Edge 69, Type (0, 0), None
#     Edge 70, Type (0, 0), None
#     Edge 71, Type (0, 0), None
#     Edge 72, Type (0, 0), None
#     Edge 73, Type (0, 0), None
#     Edge 74, Type (0, 0), None
#     Edge 75, Type (0, 0), None
#     Edge 76, Type (0, 0), None
#     Edge 77, Type (0, 0), None
#     Edge 78, Type (0, 0), None
#     Edge 79, Type (0, 0), None
#     Edge 80, Type (0, 0), None
#     Edge 81, Type (0, 0), None
#     Edge 82, Type (0, 0), None
#     Edge 83, Type (0, 0), None
#     Edge 84, Type (0, 0), None
#     Edge 85, Type (0, 0), None
#     Edge 86, Type (0, 0), None
#     Edge 87, Type (0, 0), None
#     Edge 88, Type (0, 0), None
#     Edge 89, Type (0, 0), None
#     Edge 90, Type (0, 0), None
#     Edge 91, Type (0, 0), None
#     Edge 92, Type (0, 0), None
#     Edge 93, Type (0, 0), None
#     Edge 94, Type (0, 0), None
#     Edge 95, Type (0, 0), None
#     Edge 96, Type (0, 0), None
#     Edge 97, Type (0, 0), None
#     Edge 98, Type (0, 0), None
#     Edge 99, Type (0, 0), None
#     Edge 100, Type (0, 0), None
#     Edge 101, Type (0, 0), None
#     Edge 102, Type (0, 0), None
#     Edge 103, Type (0, 0), None
#     Edge 104, Type (0, 0), None
#     Edge 105, Type (0, 0), None
#     Edge 106, Type (0, 0), None
#     Edge 107, Type (0, 0), None
#     Edge 108, Type (0, 0), None
#     Edge 109, Type (0, 0), None
#     Edge 110, Type (0, 0), None
#     Edge 111, Type (0, 0), None
#     Edge 112, Type (0, 0), None
#     Edge 113, Type (0, 0), None
#     Edge 114, Type (0, 0), None
#     Edge 115, Type (0, 0), None
#     Edge 116, Type (0, 0), None
#     Edge 117, Type (0, 0), None
#     Edge 118, Type (0, 0), None
#     Edge 119, Type (0, 0), None
#     Edge 120, Type (0, 0), None
#     Edge 121, Type (0, 0), None
#     Edge 122, Type (0, 0), None
#     Edge 123, Type (0, 0), None
#     Edge 124, Type (0, 0), None
#     Edge 125, Type (0, 0), None
# Relax obj value: 0.148
# Max RMSD: 0.157
# Mean RMSD: 0.155
data_MOF--net-wlg--node1-XOMCOT_clean_sbu_0--edge1-none
_symmetry_space_group_name_H-M    P1
_symmetry_Int_Tables_number       1
_symmetry_cell_setting            triclinic
loop_
_symmetry_equiv_pos_as_xyz
'x, y, z'
_cell_length_a     27.677784
_cell_length_b     27.673067
_cell_length_c     36.011885
_cell_angle_alpha  89.437687
_cell_angle_beta   90.566408
_cell_angle_gamma 119.44363
loop_
_atom_site_label
_atom_site_type_symbol
_atom_site_fract_x
_atom_site_fract_y
_atom_site_fract_z
_atom_type_partial_charge
Co0 Co 1.02579 0.16966 0.20224 0.0
C1 C 0.93944 0.20436 0.21728 0.0
C2 C 0.91057 0.13539 0.18032 0.0
C3 C 0.86868 0.14735 0.18473 0.0
N4 N 0.955 0.16987 0.2013 0.0
N5 N 0.88658 0.19031 0.20795 0.0
H6 H 0.96626 0.23974 0.23418 0.0
H7 H 0.90826 0.1044 0.16151 0.0
C8 C 0.97821 0.06773 0.14818 0.0
O9 O 0.98381 0.0568 0.11354 0.0
N10 N 0.09344 0.16507 0.202 0.0
C11 C 0.14325 0.20217 0.18876 0.0
C12 C 0.16844 0.1735 0.17567 0.0
C13 C 0.09149 0.11546 0.19923 0.0
N14 N 0.13596 0.11824 0.18197 0.0
C15 C 0.06676 0.28349 0.18202 0.0
C16 C 0.09603 0.27819 0.10967 0.0
C17 C 0.10668 0.32967 0.12369 0.0
C18 C 0.09135 0.3317 0.16034 0.0
C19 C 0.07158 0.23077 0.13242 0.0
N20 N 0.05707 0.23365 0.16828 0.0
H21 H 0.05618 0.28676 0.21024 0.0
H22 H 0.06661 0.19257 0.12127 0.0
H23 H 0.15663 0.24542 0.18337 0.0
H24 H 0.05344 0.0767 0.20335 0.0
O25 O 0.04787 0.21048 0.24846 0.0
O26 O 1.00312 0.11935 0.24566 0.0
O27 O 1.00129 0.11883 0.15754 0.0
C28 C 1.02766 0.16382 0.26603 0.0
H29 H 0.82961 0.12897 0.16974 0.0
H30 H 0.20351 0.19159 0.15705 0.0
H31 H 0.10803 0.27483 0.0817 0.0
H32 H 0.09818 0.37034 0.17229 0.0
Co33 Co 0.89319 0.86374 0.20513 0.0
C34 C 0.85647 0.74298 0.19882 0.0
C35 C 0.90447 0.77783 0.24827 0.0
C36 C 0.89151 0.72329 0.24651 0.0
N37 N 0.88244 0.79048 0.21844 0.0
N38 N 0.86166 0.70185 0.2154 0.0
H39 H 0.83761 0.73955 0.17186 0.0
H40 H 0.93074 0.80646 0.26926 0.0
C41 C 0.98019 0.84973 0.17079 0.0
O42 O 0.959 0.79734 0.16157 0.0
N43 N 0.90505 0.93743 0.19326 0.0
C44 C 0.89325 0.96964 0.21516 0.0
C45 C 0.92122 0.02336 0.20251 0.0
C46 C 0.93852 0.97217 0.16676 0.0
N47 N 0.94951 0.02486 0.172 0.0
C48 C 0.78044 0.79633 0.18417 0.0
C49 C 0.79001 0.82442 0.10978 0.0
C50 C 0.73678 0.78927 0.12437 0.0
C51 C 0.73291 0.77478 0.16203 0.0
C52 C 0.83704 0.84491 0.13305 0.0
N53 N 0.83169 0.83102 0.16985 0.0
H54 H 0.77597 0.78452 0.21313 0.0
H55 H 0.87739 0.87274 0.12165 0.0
H56 H 0.86732 0.95603 0.23949 0.0
H57 H 0.95664 0.95995 0.14482 0.0
O58 O 0.85061 0.86002 0.24723 0.0
O59 O 0.94259 0.89556 0.24708 0.0
O60 O 0.95053 0.87322 0.16747 0.0
C61 C 0.89738 0.88327 0.26515 0.0
H62 H 0.90567 0.70219 0.26542 0.0
H63 H 0.91819 0.05725 0.21424 0.0
H64 H 0.79527 0.83713 0.08091 0.0
H65 H 0.69336 0.74664 0.17453 0.0
Co66 Co 0.17999 0.02275 0.1991 0.0
C67 C 0.29039 0.12206 0.21864 0.0
C68 C 0.25572 0.13161 0.16775 0.0
C69 C 0.3069 0.17697 0.17199 0.0
N70 N 0.24344 0.09785 0.19768 0.0
N71 N 0.32913 0.171 0.20373 0.0
H72 H 0.29846 0.1019 0.24187 0.0
H73 H 0.23263 0.12148 0.14205 0.0
C74 C 0.12774 0.08062 0.15515 0.0
O75 O 0.10522 0.0832 0.12341 0.0
N76 N 0.11721 0.94847 0.19834 0.0
C77 C 0.11945 0.90093 0.19908 0.0
C78 C 0.0681 0.85783 0.1893 0.0
C79 C 0.06438 0.93372 0.18887 0.0
N80 N 0.03381 0.87866 0.18262 0.0
C81 C 0.26509 1.00231 0.17353 0.0
C82 C 0.21747 0.95593 0.10593 0.0
C83 C 0.2655 0.95483 0.11761 0.0
C84 C 0.28977 0.97931 0.15157 0.0
C85 C 0.1935 0.9788 0.12909 0.0
N86 N 0.21704 1.00092 0.16268 0.0
H87 H 0.28372 1.01957 0.20007 0.0
H88 H 0.15477 0.97634 0.12074 0.0
H89 H 0.15665 0.89827 0.20421 0.0
H90 H 0.04949 0.96297 0.18464 0.0
O91 O 0.20768 1.0044 0.24347 0.0
O92 O 0.1496 0.0377 0.24379 0.0
O93 O 0.14247 0.0436 0.15876 0.0
C94 C 0.17673 1.01793 0.26255 0.0
H95 H 0.32962 0.20753 0.15069 0.0
H96 H 0.05724 0.81474 0.18638 0.0
H97 H 0.1973 0.93711 0.07993 0.0
H98 H 0.32721 0.97996 0.16139 0.0
Co99 Co 0.18278 1.01234 0.36733 0.0
C100 C 0.2178 0.92611 0.35266 0.0
C101 C 0.14791 0.89682 0.38881 0.0
C102 C 0.15996 0.85496 0.38456 0.0
N103 N 0.18292 0.9415 0.36823 0.0
N104 N 0.20351 0.87313 0.36185 0.0
H105 H 0.2536 0.95312 0.33616 0.0
H106 H 0.11653 0.89433 0.40732 0.0
C107 C 0.08087 0.96489 0.42144 0.0
O108 O 0.07009 0.9704 0.45613 0.0
N109 N 0.17823 0.08001 0.36761 0.0
C110 C 0.21527 0.12976 0.38098 0.0
C111 C 0.18657 0.15492 0.39406 0.0
C112 C 0.12862 0.07808 0.37032 0.0
N113 N 0.13134 0.12249 0.38764 0.0
C114 C 0.29669 0.0536 0.38751 0.0
C115 C 0.29127 0.08225 0.46 0.0
C116 C 0.34281 0.09321 0.44593 0.0
C117 C 0.34488 0.07818 0.4092 0.0
C118 C 0.24385 0.0578 0.43724 0.0
N119 N 0.24678 0.04358 0.40131 0.0
H120 H 0.30003 0.04331 0.35923 0.0
H121 H 0.20561 0.05261 0.44847 0.0
H122 H 0.25849 0.1431 0.38646 0.0
H123 H 0.08988 0.04004 0.3661 0.0
O124 O 0.22359 0.03442 0.32111 0.0
O125 O 0.1325 0.98973 0.32388 0.0
O126 O 0.13193 0.98778 0.41202 0.0
C127 C 0.17695 1.01424 0.30352 0.0
H128 H 0.14123 0.81573 0.39937 0.0
H129 H 0.20459 0.18989 0.41277 0.0
H130 H 0.28785 0.09402 0.48804 0.0
H131 H 0.38357 0.08525 0.39719 0.0
Co132 Co 0.03599 0.16671 0.37044 0.0
C133 C 0.13528 0.2773 0.35121 0.0
C134 C 0.1448 0.24224 0.40193 0.0
C135 C 0.19013 0.29349 0.39786 0.0
N136 N 0.11109 0.23016 0.37199 0.0
N137 N 0.18416 0.31597 0.36624 0.0
H138 H 0.11513 0.28554 0.32806 0.0
H139 H 0.13464 0.21899 0.42756 0.0
C140 C 0.09361 0.11418 0.41439 0.0
O141 O 0.09605 0.09154 0.44612 0.0
N142 N 0.96169 0.10394 0.37107 0.0
C143 C 0.91421 0.1063 0.37032 0.0
C144 C 0.87109 0.05507 0.3803 0.0
C145 C 0.94685 0.05113 0.38069 0.0
N146 N 0.89183 0.02072 0.38707 0.0
C147 C 1.01545 0.25175 0.39604 0.0
C148 C 0.96889 0.20396 0.46355 0.0
C149 C 0.9678 0.25201 0.4519 0.0
C150 C 0.99237 0.27636 0.41797 0.0
C151 C 0.99187 0.18007 0.44041 0.0
N152 N 1.01407 0.20369 0.40687 0.0
H153 H 1.03275 0.27043 0.36952 0.0
H154 H 0.98941 0.14132 0.44875 0.0
H155 H 0.91164 0.14355 0.36515 0.0
H156 H 0.97604 0.0362 0.38505 0.0
O157 O 1.01779 0.19453 0.32607 0.0
O158 O 0.05103 0.13639 0.32576 0.0
O159 O 0.05668 0.12903 0.41077 0.0
C160 C 1.03133 0.16359 0.307 0.0
H161 H 0.22061 0.31606 0.41923 0.0
H162 H 0.82807 0.04438 0.38335 0.0
H163 H 0.95001 0.18373 0.48953 0.0
H164 H 0.99302 0.31382 0.40817 0.0
Co165 Co 0.87666 0.88038 0.36489 0.0
C166 C 0.75606 0.84395 0.37154 0.0
C167 C 0.79063 0.89172 0.32197 0.0
C168 C 0.73614 0.87886 0.32387 0.0
N169 N 0.80342 0.86976 0.35178 0.0
N170 N 0.71488 0.84915 0.35505 0.0
H171 H 0.75276 0.82515 0.3985 0.0
H172 H 0.81913 0.91785 0.30087 0.0
C173 C 0.86293 0.96734 0.39938 0.0
O174 O 0.8108 0.9466 0.40912 0.0
N175 N 0.95037 0.89213 0.37656 0.0
C176 C 0.9824 0.88031 0.35452 0.0
C177 C 0.03617 0.90818 0.36704 0.0
C178 C 0.98526 0.92553 0.40302 0.0
N179 N 0.0379 0.93641 0.39764 0.0
C180 C 0.80919 0.76756 0.38577 0.0
C181 C 0.8377 0.77695 0.46007 0.0
C182 C 0.8024 0.72376 0.44548 0.0
C183 C 0.7877 0.71998 0.40785 0.0
C184 C 0.85814 0.82403 0.43686 0.0
N185 N 0.84404 0.81877 0.4001 0.0
H186 H 0.79722 0.76317 0.35683 0.0
H187 H 0.88609 0.86434 0.44827 0.0
H188 H 0.96864 0.85441 0.33017 0.0
H189 H 0.9732 0.94365 0.42506 0.0
O190 O 0.87271 0.83786 0.3227 0.0
O191 O 0.90835 0.92988 0.32296 0.0
O192 O 0.88622 0.93752 0.40273 0.0
C193 C 0.89592 0.88467 0.30483 0.0
H194 H 0.71496 0.89293 0.30498 0.0
H195 H 0.06993 0.90507 0.35518 0.0
H196 H 0.85057 0.78213 0.48892 0.0
H197 H 0.75945 0.68046 0.39535 0.0
Co198 Co 0.03987 0.86955 0.86779 0.0
C199 C 0.12623 0.83486 0.85275 0.0
C200 C 0.15509 0.90382 0.88971 0.0
C201 C 0.19699 0.89186 0.8853 0.0
N202 N 0.11066 0.86934 0.86873 0.0
N203 N 0.17909 0.8489 0.86208 0.0
H204 H 0.09941 0.79948 0.83584 0.0
H205 H 0.1574 0.9348 0.90853 0.0
C206 C 0.08745 0.97148 0.92185 0.0
O207 O 0.08185 0.98241 0.95649 0.0
N208 N 0.97223 0.87414 0.86802 0.0
C209 C 0.92242 0.83704 0.88126 0.0
C210 C 0.89722 0.86571 0.89435 0.0
C211 C 0.97417 0.92375 0.8708 0.0
N212 N 0.9297 0.92097 0.88806 0.0
C213 C 0.99891 0.75572 0.888 0.0
C214 C 0.96962 0.76102 0.96035 0.0
C215 C 0.95898 0.70954 0.94633 0.0
C216 C 0.97431 0.70751 0.90968 0.0
C217 C 0.99408 0.80844 0.9376 0.0
N218 N 1.00859 0.80556 0.90174 0.0
H219 H 1.00949 0.75245 0.85979 0.0
H220 H 0.99904 0.84664 0.94876 0.0
H221 H 0.90904 0.79379 0.88665 0.0
H222 H 1.01223 0.96251 0.86668 0.0
O223 O 1.0178 0.82873 0.82157 0.0
O224 O 0.06254 0.91986 0.82436 0.0
O225 O 0.06437 0.92038 0.91249 0.0
C226 C 0.03801 0.87539 0.80399 0.0
H227 H 0.23605 0.91023 0.9003 0.0
H228 H 0.86216 0.84762 0.91298 0.0
H229 H 0.95762 0.76438 0.98833 0.0
H230 H 0.96749 0.66887 0.89774 0.0
Co231 Co 0.17248 0.17547 0.86489 0.0
C232 C 0.20921 0.29623 0.8712 0.0
C233 C 0.16121 0.26138 0.82175 0.0
C234 C 0.17417 0.31592 0.82351 0.0
N235 N 0.18323 0.24873 0.85158 0.0
N236 N 0.20401 0.33736 0.85462 0.0
H237 H 0.22806 0.29966 0.89816 0.0
H238 H 0.13493 0.23275 0.80076 0.0
C239 C 0.08549 0.18948 0.89923 0.0
O240 O 0.10667 0.24187 0.90845 0.0
N241 N 0.16062 0.10177 0.87676 0.0
C242 C 0.17241 0.06956 0.85487 0.0
C243 C 0.14445 1.01584 0.86752 0.0
C244 C 0.12715 0.06704 0.90326 0.0
N245 N 0.11616 1.01434 0.89803 0.0
C246 C 0.28523 0.24287 0.88585 0.0
C247 C 0.27566 0.21479 0.96024 0.0
C248 C 0.32889 0.24994 0.94566 0.0
C249 C 0.33276 0.26442 0.90799 0.0
C250 C 0.22863 0.1943 0.93697 0.0
N251 N 0.23398 0.20818 0.90017 0.0
H252 H 0.28971 0.25468 0.85689 0.0
H253 H 0.18828 0.16647 0.94837 0.0
H254 H 0.19835 0.08317 0.83054 0.0
H255 H 0.10903 0.07926 0.9252 0.0
O256 O 0.21506 0.17918 0.8228 0.0
O257 O 0.12308 0.14365 0.82294 0.0
O258 O 0.11514 0.16599 0.90255 0.0
C259 C 0.1683 0.15594 0.80487 0.0
H260 H 0.16 0.33702 0.8046 0.0
H261 H 0.14748 0.98195 0.85579 0.0
H262 H 0.2704 0.20208 0.98912 0.0
H263 H 0.37231 0.29256 0.89549 0.0
Co264 Co 0.88568 1.01646 0.87092 0.0
C265 C 0.77528 0.91715 0.85138 0.0
C266 C 0.80994 0.9076 0.90227 0.0
C267 C 0.75876 0.86224 0.89804 0.0
N268 N 0.82223 0.94136 0.87235 0.0
N269 N 0.73654 0.86821 0.8663 0.0
H270 H 0.76721 0.93731 0.82816 0.0
H271 H 0.83304 0.91773 0.92797 0.0
C272 C 0.93792 0.95859 0.91488 0.0
O273 O 0.96044 0.95601 0.94662 0.0
N274 N 0.94846 0.09074 0.87169 0.0
C275 C 0.94622 0.13828 0.87094 0.0
C276 C 0.99757 0.18138 0.88073 0.0
C277 C 1.00129 0.10549 0.88116 0.0
N278 N 1.03186 0.16055 0.88741 0.0
C279 C 0.80057 0.0369 0.8965 0.0
C280 C 0.8482 0.08328 0.96409 0.0
C281 C 0.80017 0.08437 0.95242 0.0
C282 C 0.7759 0.0599 0.91845 0.0
C283 C 0.87216 0.06041 0.94093 0.0
N284 N 0.84863 0.03829 0.90735 0.0
H285 H 0.78195 0.01964 0.86996 0.0
H286 H 0.9109 0.06287 0.94928 0.0
H287 H 0.90902 0.14094 0.86581 0.0
H288 H 1.01618 0.07624 0.88539 0.0
O289 O 0.85799 0.03481 0.82655 0.0
O290 O 0.91607 1.00152 0.82624 0.0
O291 O 0.9232 0.99561 0.91127 0.0
C292 C 0.88894 0.02129 0.80748 0.0
H293 H 0.73605 0.83169 0.91934 0.0
H294 H 1.00843 0.22448 0.88364 0.0
H295 H 0.86837 0.1021 0.9901 0.0
H296 H 0.73846 0.05925 0.90864 0.0
Co297 Co 0.88289 0.02688 0.70269 0.0
C298 C 0.84787 0.1131 0.71736 0.0
C299 C 0.91777 0.1424 0.68122 0.0
C300 C 0.90571 0.18425 0.68547 0.0
N301 N 0.88275 0.09772 0.7018 0.0
N302 N 0.86216 0.16608 0.70818 0.0
H303 H 0.81206 0.08609 0.73386 0.0
H304 H 0.94915 0.14489 0.66272 0.0
C305 C 0.9848 0.07432 0.64859 0.0
O306 O 0.99558 0.06881 0.6139 0.0
N307 N 0.88744 0.9592 0.70241 0.0
C308 C 0.8504 0.90946 0.68904 0.0
C309 C 0.8791 0.8843 0.67596 0.0
C310 C 0.93705 0.96114 0.69971 0.0
N311 N 0.93433 0.91673 0.68239 0.0
C312 C 0.76898 0.98562 0.68252 0.0
C313 C 0.7744 0.95697 0.61002 0.0
C314 C 0.72286 0.94601 0.6241 0.0
C315 C 0.72079 0.96103 0.66083 0.0
C316 C 0.82182 0.98142 0.63278 0.0
N317 N 0.8189 0.99563 0.66872 0.0
H318 H 0.76564 0.9959 0.7108 0.0
H319 H 0.86006 0.98662 0.62155 0.0
H320 H 0.80718 0.89612 0.68357 0.0
H321 H 0.97579 0.99917 0.70393 0.0
O322 O 0.84208 1.00479 0.74892 0.0
O323 O 0.93318 0.04949 0.74614 0.0
O324 O 0.93374 0.05143 0.658 0.0
C325 C 0.88872 0.02498 0.76651 0.0
H326 H 0.92445 0.22349 0.67066 0.0
H327 H 0.86108 0.84932 0.65725 0.0
H328 H 0.77782 0.9452 0.58199 0.0
H329 H 0.6821 0.95396 0.67284 0.0
Co330 Co 1.02968 0.87251 0.69959 0.0
C331 C 0.93039 0.76191 0.71881 0.0
C332 C 0.92087 0.79697 0.6681 0.0
C333 C 0.87554 0.74573 0.67217 0.0
N334 N 0.95458 0.80906 0.69803 0.0
N335 N 0.88151 0.72324 0.70379 0.0
H336 H 0.95054 0.75367 0.74196 0.0
H337 H 0.93103 0.82022 0.64246 0.0
C338 C 0.97206 0.92503 0.65564 0.0
O339 O 0.96963 0.94767 0.62391 0.0
N340 N 0.10398 0.93527 0.69896 0.0
C341 C 0.15146 0.93291 0.69971 0.0
C342 C 0.19458 0.98414 0.68973 0.0
C343 C 0.11882 0.98808 0.68934 0.0
N344 N 0.17384 1.01849 0.68295 0.0
C345 C 0.05022 0.78746 0.67399 0.0
C346 C 0.09678 0.83525 0.60647 0.0
C347 C 0.09787 0.78721 0.61813 0.0
C348 C 0.07331 0.76285 0.65205 0.0
C349 C 0.0738 0.85914 0.62961 0.0
N350 N 0.0516 0.83553 0.66316 0.0
H351 H 0.03292 0.76878 0.70051 0.0
H352 H 0.07626 0.89789 0.62128 0.0
H353 H 0.15403 0.89566 0.70487 0.0
H354 H 0.08963 1.00301 0.68498 0.0
O355 O 0.04787 0.84468 0.74395 0.0
O356 O 1.01464 0.90282 0.74427 0.0
O357 O 1.00899 0.91018 0.65926 0.0
C358 C 0.03434 0.87562 0.76303 0.0
H359 H 0.84506 0.72316 0.65079 0.0
H360 H 0.2376 0.99483 0.68668 0.0
H361 H 0.11566 0.85549 0.5805 0.0
H362 H 0.07265 0.72539 0.66185 0.0
Co363 Co 0.18901 0.15883 0.70514 0.0
C364 C 0.30961 0.19525 0.69848 0.0
C365 C 0.27504 0.14748 0.74805 0.0
C366 C 0.32953 0.16035 0.74614 0.0
N367 N 0.26226 0.16945 0.71824 0.0
N368 N 0.35079 0.19006 0.71497 0.0
H369 H 0.31291 0.21405 0.67152 0.0
H370 H 0.24654 0.12135 0.76915 0.0
C371 C 0.20274 0.07187 0.67064 0.0
O372 O 0.25487 0.09261 0.66089 0.0
N373 N 0.11531 0.14708 0.69346 0.0
C374 C 0.08327 0.1589 0.71551 0.0
C375 C 1.0295 0.13103 0.70298 0.0
C376 C 0.08041 0.11368 0.667 0.0
N377 N 1.02778 0.1028 0.67238 0.0
C378 C 0.25649 0.27165 0.68426 0.0
C379 C 0.22797 0.26226 0.60995 0.0
C380 C 0.26328 0.31545 0.62455 0.0
C381 C 0.27797 0.31923 0.66217 0.0
C382 C 0.20754 0.21518 0.63317 0.0
N383 N 0.22164 0.22044 0.66992 0.0
H384 H 0.26845 0.27604 0.71319 0.0
H385 H 0.17958 0.17487 0.62176 0.0
H386 H 0.09704 0.1848 0.73985 0.0
H387 H 0.09247 0.09556 0.64496 0.0
O388 O 0.19296 0.20134 0.74732 0.0
O389 O 0.15733 0.10933 0.74706 0.0
O390 O 0.17945 0.10169 0.66729 0.0
C391 C 0.16976 0.15454 0.76519 0.0
H392 H 0.35071 0.14627 0.76504 0.0
H393 H 0.99574 0.13415 0.71485 0.0
H394 H 0.2151 0.25708 0.58111 0.0
H395 H 0.30623 0.35875 0.67467 0.0
Co396 Co 0.70086 0.50744 0.54209 0.0
C397 C 0.59362 0.5081 0.52783 0.0
C398 C 0.62673 0.54025 0.58168 0.0
C399 C 0.57818 0.54222 0.5769 0.0
N400 N 0.6367 0.51855 0.55106 0.0
N401 N 0.55742 0.52197 0.54311 0.0
H402 H 0.58906 0.49132 0.50025 0.0
H403 H 0.6533 0.55514 0.60581 0.0
C404 C 0.63339 0.41056 0.48689 0.0
O405 O 0.62921 0.3999 0.45115 0.0
N406 N 0.76395 0.49511 0.53331 0.0
C407 C 0.80576 0.50426 0.5572 0.0
C408 C 0.83387 0.47817 0.54447 0.0
C409 C 0.76909 0.46516 0.50576 0.0
N410 N 0.81005 0.45301 0.51242 0.0
C411 C 0.74272 0.62265 0.52661 0.0
C412 C 0.77251 0.62206 0.45377 0.0
C413 C 0.78049 0.67227 0.46882 0.0
C414 C 0.76563 0.67201 0.50596 0.0
C415 C 0.74911 0.5735 0.47532 0.0
N416 N 0.73395 0.57405 0.51118 0.0
H417 H 0.73136 0.6234 0.55511 0.0
H418 H 0.74324 0.5356 0.463 0.0
H419 H 0.81551 0.52775 0.58261 0.0
H420 H 0.74274 0.45099 0.48147 0.0
O421 O 0.73449 0.54282 0.58816 0.0
O422 O 0.67794 0.4527 0.58272 0.0
O423 O 0.66142 0.46151 0.4967 0.0
C424 C 0.71044 0.49445 0.60383 0.0
H425 H 0.56011 0.55795 0.5966 0.0
H426 H 0.87085 0.48058 0.55668 0.0
H427 H 0.7844 0.62013 0.4255 0.0
H428 H 0.77042 0.7093 0.51886 0.0
Co429 Co 0.56027 0.20454 0.54085 0.0
C430 C 0.53591 0.08804 0.52722 0.0
C431 C 0.56605 0.11351 0.58253 0.0
C432 C 0.55765 0.0608 0.57793 0.0
N433 N 0.5521 0.13099 0.55094 0.0
N434 N 0.53875 0.04496 0.54327 0.0
H435 H 0.52352 0.08888 0.49875 0.0
H436 H 0.58459 0.13778 0.60697 0.0
C437 C 0.65406 0.22971 0.48552 0.0
O438 O 0.66609 0.23812 0.44999 0.0
N439 N 0.57053 0.27914 0.53168 0.0
C440 C 0.55986 0.31031 0.55553 0.0
C441 C 0.58493 0.36455 0.54317 0.0
C442 C 0.6007 0.31525 0.50453 0.0
N443 N 0.61092 0.36747 0.51128 0.0
C444 C 0.44454 0.13176 0.52666 0.0
C445 C 0.44417 0.16258 0.45343 0.0
C446 C 0.39444 0.12108 0.46888 0.0
C447 C 0.39497 0.10618 0.50618 0.0
C448 C 0.49267 0.18739 0.47491 0.0
N449 N 0.4927 0.17131 0.51089 0.0
H450 H 0.4445 0.11918 0.55517 0.0
H451 H 0.53014 0.21951 0.4624 0.0
H452 H 0.53593 0.29543 0.58065 0.0
H453 H 0.61633 0.30431 0.48054 0.0
O454 O 0.52652 0.20168 0.58718 0.0
O455 O 0.6169 0.23684 0.58011 0.0
O456 O 0.60337 0.20968 0.49471 0.0
C457 C 0.57544 0.22571 0.60206 0.0
H458 H 0.56646 0.03689 0.59808 0.0
H459 H 0.5809 0.39798 0.55532 0.0
H460 H 0.44556 0.17623 0.42497 0.0
H461 H 0.35769 0.07418 0.51923 0.0
Co462 Co 0.85476 0.35812 0.54404 0.0
C463 C 0.96129 0.46025 0.52877 0.0
C464 C 0.95909 0.43315 0.58502 0.0
C465 C 1.00964 0.47997 0.57923 0.0
N466 N 0.92837 0.42094 0.55351 0.0
N467 N 1.01062 0.49674 0.54393 0.0
H468 H 0.94998 0.46163 0.50015 0.0
H469 H 0.94688 0.40924 0.61039 0.0
C470 C 0.82818 0.4284 0.48809 0.0
O471 O 0.8208 0.43263 0.45234 0.0
N472 N 0.78136 0.2957 0.53431 0.0
C473 C 0.75024 0.25227 0.55701 0.0
C474 C 0.69753 0.22273 0.54243 0.0
C475 C 0.74733 0.29051 0.50576 0.0
N476 N 0.69581 0.24766 0.51068 0.0
C477 C 0.9247 0.31081 0.53166 0.0
C478 C 0.90175 0.28918 0.45689 0.0
C479 C 0.93948 0.27581 0.47398 0.0
C480 C 0.95037 0.28629 0.51198 0.0
C481 C 0.87624 0.31272 0.47769 0.0
N482 N 0.88842 0.32402 0.51451 0.0
H483 H 0.93442 0.31967 0.56078 0.0
H484 H 0.84671 0.32169 0.46395 0.0
H485 H 0.76423 0.24222 0.58256 0.0
H486 H 0.75901 0.318 0.48203 0.0
O487 O 0.85614 0.32568 0.59112 0.0
O488 O 0.82227 0.38251 0.58297 0.0
O489 O 0.84862 0.39758 0.49802 0.0
C490 C 0.832 0.35099 0.60539 0.0
H491 H 0.04312 0.49938 0.5992 0.0
H492 H 0.66457 0.18419 0.5531 0.0
H493 H 0.8916 0.28099 0.42767 0.0
H494 H 0.9794 0.27679 0.52617 0.0
Co495 Co 0.83596 0.34573 0.70847 0.0
C496 C 0.8498 0.24521 0.72095 0.0
C497 C 0.78467 0.22948 0.6823 0.0
C498 C 0.78855 0.18198 0.68609 0.0
N499 N 0.82351 0.26979 0.70394 0.0
N500 N 0.82941 0.19185 0.71048 0.0
H501 H 0.88522 0.266 0.73918 0.0
H502 H 0.75612 0.23419 0.66396 0.0
C503 C 0.74607 0.27498 0.76239 0.0
O504 O 0.73499 0.26374 0.79785 0.0
N505 N 0.84537 0.41935 0.7129 0.0
C506 C 0.89333 0.46738 0.71587 0.0
C507 C 0.88152 0.50716 0.72848 0.0
C508 C 0.80505 0.43129 0.72157 0.0
N509 N 0.82594 0.48486 0.7316 0.0
C510 C 0.94696 0.37089 0.72461 0.0
C511 C 0.95257 0.40789 0.7963 0.0
C512 C 1.00083 0.41349 0.77982 0.0
C513 C 0.99731 0.39386 0.74373 0.0
C514 C 0.9028 0.38487 0.77607 0.0
N515 N 0.90042 0.3668 0.74055 0.0
H516 H 0.94552 0.35636 0.69669 0.0
H517 H 0.86726 0.38447 0.78846 0.0
H518 H 0.93417 0.47184 0.71293 0.0
H519 H 0.76224 0.39963 0.72574 0.0
O520 O 0.87602 0.36682 0.66319 0.0
O521 O 0.78543 0.33348 0.66608 0.0
O522 O 0.78687 0.32193 0.75349 0.0
C523 C 0.83035 0.35312 0.64588 0.0
H524 H 0.76693 0.14492 0.66942 0.0
H525 H 0.91184 0.54809 0.73807 0.0
H526 H 0.95379 0.42343 0.82398 0.0
H527 H 0.03338 0.39665 0.73017 0.0
Co528 Co 0.718 0.50901 0.70669 0.0
C529 C 0.80368 0.63041 0.71396 0.0
C530 C 0.83238 0.58361 0.68343 0.0
C531 C 0.87598 0.63626 0.68819 0.0
N532 N 0.78647 0.57942 0.6994 0.0
N533 N 0.85808 0.66552 0.70764 0.0
H534 H 0.77763 0.64282 0.72838 0.0
H535 H 0.83465 0.5507 0.6691 0.0
C536 C 0.80166 0.50089 0.75753 0.0
O537 O 0.82335 0.51273 0.79109 0.0
N538 N 0.65266 0.43703 0.71463 0.0
C539 C 0.6117 0.40659 0.69014 0.0
C540 C 0.5827 0.35262 0.7028 0.0
C541 C 0.64664 0.40115 0.74217 0.0
N542 N 0.6053 0.34936 0.73524 0.0
C543 C 0.67266 0.58 0.71896 0.0
C544 C 0.64398 0.55289 0.79241 0.0
C545 C 0.63124 0.59085 0.77468 0.0
C546 C 0.64612 0.60422 0.73746 0.0
C547 C 0.67127 0.52988 0.77288 0.0
N548 N 0.68591 0.5441 0.73668 0.0
H549 H 0.68434 0.59191 0.69042 0.0
H550 H 0.67957 0.5 0.78681 0.0
H551 H 0.60369 0.42167 0.66432 0.0
H552 H 0.67352 0.41167 0.76623 0.0
O553 O 0.68803 0.51757 0.66078 0.0
O554 O 0.73866 0.47628 0.66532 0.0
O555 O 0.75495 0.49861 0.75218 0.0
C556 C 0.71029 0.49252 0.64438 0.0
H557 H 0.9166 0.65325 0.67573 0.0
H558 H 0.54619 0.31978 0.69017 0.0
H559 H 0.63232 0.54036 0.82097 0.0
H560 H 0.63839 0.63406 0.72271 0.0
Co561 Co 0.55388 0.21019 0.70299 0.0
C562 C 0.44334 0.19788 0.71555 0.0
C563 C 0.47062 0.22759 0.66033 0.0
C564 C 0.41942 0.22306 0.66491 0.0
N565 N 0.48566 0.21146 0.69196 0.0
N566 N 0.4026 0.20427 0.69954 0.0
H567 H 0.44246 0.18367 0.74374 0.0
H568 H 0.49551 0.24401 0.63592 0.0
C569 C 0.58717 0.30596 0.75927 0.0
O570 O 0.59627 0.31601 0.795 0.0
N571 N 0.62224 0.21014 0.71401 0.0
C572 C 0.62892 0.16646 0.72296 0.0
C573 C 0.6807 0.18623 0.73862 0.0
C574 C 0.67113 0.25553 0.72181 0.0
N575 N 0.7078 0.24224 0.73713 0.0
C576 C 0.47249 0.09693 0.71414 0.0
C577 C 0.49503 0.08939 0.78823 0.0
C578 C 0.45532 0.04155 0.76983 0.0
C579 C 0.44389 0.04589 0.73239 0.0
C580 C 0.52308 0.13966 0.76888 0.0
N581 N 0.51197 0.14281 0.73217 0.0
H582 H 0.46314 0.09959 0.68524 0.0
H583 H 0.55529 0.17532 0.7831 0.0
H584 H 0.59674 0.12347 0.72174 0.0
H585 H 0.67687 0.29717 0.72122 0.0
O586 O 0.54918 0.17473 0.6572 0.0
O587 O 0.59291 0.2658 0.66403 0.0
O588 O 0.56445 0.25537 0.74904 0.0
C589 C 0.57818 0.22314 0.64236 0.0
H590 H 0.39656 0.23273 0.64442 0.0
H591 H 0.69572 0.16145 0.75281 0.0
H592 H 0.50565 0.08763 0.81706 0.0
H593 H 0.41301 1.01016 0.71731 0.0
Co594 Co 0.70703 0.21673 0.20906 0.0
C595 C 0.80739 0.2024 0.22111 0.0
C596 C 0.82333 0.26835 0.18313 0.0
C597 C 0.87079 0.26436 0.18671 0.0
N598 N 0.78293 0.2291 0.20449 0.0
N599 N 0.86079 0.22299 0.21068 0.0
H600 H 0.78651 0.16659 0.239 0.0
H601 H 0.81872 0.29728 0.16511 0.0
C602 C 0.77789 0.30672 0.26294 0.0
O603 O 0.78919 0.31764 0.29841 0.0
N604 N 0.63346 0.20742 0.2135 0.0
C605 C 0.5854 0.15951 0.2165 0.0
C606 C 0.54569 0.17144 0.22906 0.0
C607 C 0.62161 0.24782 0.22211 0.0
N608 N 0.56805 0.22705 0.23211 0.0
C609 C 0.68151 0.10562 0.2253 0.0
C610 C 0.64471 0.10032 0.29701 0.0
C611 C 0.63878 0.05191 0.28055 0.0
C612 C 0.65834 0.05528 0.24444 0.0
C613 C 0.66795 0.15008 0.27676 0.0
N614 N 0.68592 0.15231 0.24122 0.0
H615 H 0.69592 0.10691 0.19737 0.0
H616 H 0.66857 0.18574 0.28914 0.0
H617 H 0.58087 0.11862 0.21361 0.0
H618 H 0.65331 0.29062 0.22626 0.0
O619 O 0.68584 0.17653 0.16383 0.0
O620 O 0.71923 0.26714 0.16658 0.0
O621 O 0.73092 0.26596 0.25403 0.0
C622 C 0.69951 0.22214 0.14644 0.0
H623 H 0.90791 0.28631 0.17014 0.0
H624 H 0.50476 0.14118 0.23868 0.0
H625 H 0.62924 0.09922 0.3247 0.0
H626 H 0.65531 1.0191 0.2309 0.0
Co627 Co 0.84217 0.49895 0.20356 0.0
C628 C 0.85399 0.60934 0.21608 0.0
C629 C 0.82478 0.58212 0.16076 0.0
C630 C 0.82909 0.63325 0.16532 0.0
N631 N 0.84072 0.56709 0.19247 0.0
N632 N 0.84757 0.65003 0.20001 0.0
H633 H 0.86805 0.61022 0.24432 0.0
H634 H 0.80868 0.5573 0.13629 0.0
C635 C 0.74622 0.46562 0.25973 0.0
O636 O 0.73615 0.45655 0.29547 0.0
N637 N 0.84241 0.43069 0.21463 0.0
C638 C 0.88618 0.42418 0.22359 0.0
C639 C 0.86656 0.37241 0.23925 0.0
C640 C 0.79712 0.38172 0.22244 0.0
N641 N 0.81057 0.34516 0.23775 0.0
C642 C 0.95529 0.58054 0.21487 0.0
C643 C 0.96272 0.55783 0.28894 0.0
C644 C 1.01059 0.59751 0.27056 0.0
C645 C 1.0063 0.60907 0.23314 0.0
C646 C 0.91248 0.52983 0.26955 0.0
N647 N 0.9094 0.541 0.23284 0.0
H648 H 0.95268 0.58993 0.18597 0.0
H649 H 0.87681 0.4976 0.28373 0.0
H650 H 0.92912 0.45645 0.22236 0.0
H651 H 0.75543 0.37584 0.22183 0.0
O652 O 0.87783 0.50376 0.15783 0.0
O653 O 0.78677 0.45979 0.1645 0.0
O654 O 0.79681 0.48823 0.24953 0.0
C655 C 0.8295 0.4746 0.14291 0.0
H656 H 0.81955 0.65611 0.14475 0.0
H657 H 0.89144 0.35749 0.25342 0.0
H658 H 0.96445 0.54714 0.31775 0.0
H659 H 0.04207 0.63994 0.2181 0.0
Co660 Co 0.5433 0.33463 0.20709 0.0
C661 C 0.42183 0.24896 0.21408 0.0
C662 C 0.46895 0.22007 0.18412 0.0
C663 C 0.41627 0.17648 0.18874 0.0
N664 N 0.47297 0.26608 0.19983 0.0
N665 N 0.38681 0.1945 0.20784 0.0
H666 H 0.40924 0.2751 0.22819 0.0
H667 H 0.50199 0.21776 0.17001 0.0
C668 C 0.55218 0.25139 0.25809 0.0
O669 O 0.54093 0.23003 0.29175 0.0
N670 N 0.61523 0.40007 0.215 0.0
C671 C 0.64577 0.44084 0.19042 0.0
C672 C 0.6997 0.46988 0.20312 0.0
C673 C 0.65102 0.40626 0.24265 0.0
N674 N 0.70284 0.44753 0.2357 0.0
C675 C 0.47239 0.38009 0.21932 0.0
C676 C 0.49925 0.4085 0.29283 0.0
C677 C 0.46141 0.42139 0.27506 0.0
C678 C 0.44817 0.40664 0.23781 0.0
C679 C 0.52226 0.38122 0.2733 0.0
N680 N 0.50817 0.3667 0.23706 0.0
H681 H 0.46056 0.36852 0.19076 0.0
H682 H 0.55205 0.37282 0.28727 0.0
H683 H 0.63078 0.44866 0.16449 0.0
H684 H 0.64043 0.37952 0.26678 0.0
O685 O 0.53466 0.36448 0.16115 0.0
O686 O 0.57605 0.31396 0.16574 0.0
O687 O 0.5538 0.29779 0.25261 0.0
C688 C 0.55974 0.34225 0.14477 0.0
H689 H 0.39942 0.13579 0.1764 0.0
H690 H 0.7326 0.50623 0.1904 0.0
H691 H 0.51168 0.42007 0.32142 0.0
H692 H 0.41843 0.41449 0.22304 0.0
Co693 Co 0.54503 0.35163 0.04246 0.0
C694 C 0.54431 0.45877 1.02798 0.0
C695 C 0.51241 0.426 0.08193 0.0
C696 C 0.51041 0.47453 0.07703 0.0
N697 N 0.53396 0.41584 0.05133 0.0
N698 N 0.53051 0.49507 0.04317 0.0
H699 H 0.56094 0.46314 1.00037 0.0
H700 H 0.49763 0.39957 0.10614 0.0
C701 C 0.64205 0.41903 0.98735 0.0
O702 O 0.65277 0.42322 0.95162 0.0
N703 N 0.55733 0.2885 1.03376 0.0
C704 C 0.54826 0.24675 0.0577 0.0
C705 C 0.57435 0.21863 0.04499 0.0
C706 C 0.58724 0.28331 1.00621 0.0
N707 N 0.59943 0.24238 1.01291 0.0
C708 C 0.42989 0.30985 1.02684 0.0
C709 C 0.43056 0.27982 0.95407 0.0
C710 C 0.38034 0.2719 0.96905 0.0
C711 C 0.38056 0.28689 1.00616 0.0
C712 C 0.47908 0.30328 0.97566 0.0
N713 N 0.47848 0.31854 1.01149 0.0
H714 H 0.4291 0.3213 0.05532 0.0
H715 H 0.51698 0.30911 0.96339 0.0
H716 H 0.52483 0.23707 0.08313 0.0
H717 H 0.60137 0.30961 0.9819 0.0
O718 O 0.50953 0.31805 0.08851 0.0
O719 O 0.59968 0.37454 0.08314 0.0
O720 O 0.59107 0.39102 0.99711 0.0
C721 C 0.55787 0.3421 0.10423 0.0
H722 H 0.49477 0.49273 0.0967 0.0
H723 H 0.572 0.18169 0.05723 0.0
H724 H 0.43253 0.26782 0.92585 0.0
H725 H 0.34327 0.28217 1.019 0.0
Co726 Co 0.69426 0.19759 0.04458 0.0
C727 C 0.59256 0.09098 1.02891 0.0
C728 C 0.61808 0.09367 0.08562 0.0
C729 C 0.5713 0.04314 0.07964 0.0
N730 N 0.63125 0.12406 0.05393 0.0
N731 N 0.55553 0.04184 0.04404 0.0
H732 H 0.59202 0.10205 1.00013 0.0
H733 H 0.64122 0.10611 0.11127 0.0
C734 C 0.6241 0.22429 0.9886 0.0
O735 O 0.61994 0.23172 0.95284 0.0
N736 N 0.75682 0.27095 1.03491 0.0
C737 C 0.80019 0.30208 0.05766 0.0
C738 C 0.82974 0.35482 0.04311 0.0
C739 C 0.76206 0.30501 1.00637 0.0
N740 N 0.80485 0.35656 1.01133 0.0
C741 C 0.74115 0.12729 1.03215 0.0
C742 C 0.76319 0.15058 0.95744 0.0
C743 C 0.77634 0.11266 0.97451 0.0
C744 C 0.76563 0.10159 1.01247 0.0
C745 C 0.73969 0.17612 0.97824 0.0
N746 N 0.72821 0.16379 1.01504 0.0
H747 H 0.7321 0.11743 0.06124 0.0
H748 H 0.73089 0.20578 0.96453 0.0
H749 H 0.81015 0.28807 0.08323 0.0
H750 H 0.73463 0.29334 0.98261 0.0
O751 O 0.72657 0.19599 0.09166 0.0
O752 O 0.67003 0.23021 0.08354 0.0
O753 O 0.65495 0.20391 0.99855 0.0
C754 C 0.70145 0.22032 0.10594 0.0
H755 H 0.5512 1.0099 0.0997 0.0
H756 H 0.86823 0.38782 0.05383 0.0
H757 H 0.77154 0.16085 0.92825 0.0
H758 H 0.77496 0.0724 1.02663 0.0
Co759 Co 0.84803 0.49222 0.04136 0.0
C760 C 0.96432 0.51641 1.02742 0.0
C761 C 0.93946 0.48704 0.08295 0.0
C762 C 0.99212 0.49539 0.07816 0.0
N763 N 0.92165 0.50055 0.05133 0.0
N764 N 1.00758 0.51379 0.04337 0.0
H765 H 0.96316 0.52841 0.9989 0.0
H766 H 0.91549 0.46895 0.10756 0.0
C767 C 0.82286 0.39827 0.98614 0.0
O768 O 0.81453 0.38617 0.95062 0.0
N769 N 0.77337 0.4818 1.03224 0.0
C770 C 0.74218 0.49245 0.05609 0.0
C771 C 0.68798 0.46742 0.04368 0.0
C772 C 0.73731 0.45167 1.00507 0.0
N773 N 0.68509 0.44147 1.01178 0.0
C774 C 0.92056 0.60793 1.02709 0.0
C775 C 0.88978 0.60813 0.95383 0.0
C776 C 0.93117 0.65792 0.96929 0.0
C777 C 0.94606 0.65748 1.0066 0.0
C778 C 0.86503 0.55964 0.97534 0.0
N779 N 0.88109 0.55971 1.01133 0.0
H780 H 0.93315 0.60803 0.05561 0.0
H781 H 0.83299 0.52212 0.96283 0.0
H782 H 0.75704 0.51635 0.08122 0.0
H783 H 0.74827 0.43609 0.98106 0.0
O784 O 0.85098 0.5261 0.08765 0.0
O785 O 0.81593 0.43569 0.08071 0.0
O786 O 0.84285 0.44899 0.99528 0.0
C787 C 0.82705 0.47723 0.10259 0.0
H788 H 1.01628 0.4869 0.09831 0.0
H789 H 0.65454 0.47148 0.0558 0.0
H790 H 0.87618 0.60668 0.92536 0.0
H791 H 0.97798 0.69482 1.01965 0.0
Co792 Co 0.35864 0.82248 0.86097 0.0
C793 C 0.25827 0.83682 0.84892 0.0
C794 C 0.24233 0.77086 0.88689 0.0
C795 C 0.19488 0.77485 0.88331 0.0
N796 N 0.28273 0.81011 0.86553 0.0
N797 N 0.20488 0.81622 0.85935 0.0
H798 H 0.27915 0.87262 0.83103 0.0
H799 H 0.24694 0.74192 0.90491 0.0
C800 C 0.28778 0.73248 0.80708 0.0
O801 O 0.27649 0.72154 0.77161 0.0
N802 N 0.4322 0.83179 0.85652 0.0
C803 C 0.48027 0.8797 0.85353 0.0
C804 C 0.51997 0.86777 0.84096 0.0
C805 C 0.44405 0.79139 0.84791 0.0
N806 N 0.49761 0.81216 0.83791 0.0
C807 C 0.38416 0.93359 0.84472 0.0
C808 C 0.42096 0.93889 0.77301 0.0
C809 C 0.42689 0.98731 0.78948 0.0
C810 C 0.40733 0.98394 0.82558 0.0
C811 C 0.39772 0.88913 0.79326 0.0
N812 N 0.37975 0.8869 0.8288 0.0
H813 H 0.36975 0.9323 0.87265 0.0
H814 H 0.3971 0.85347 0.78088 0.0
H815 H 0.48479 0.92059 0.85641 0.0
H816 H 0.41235 0.74859 0.84376 0.0
O817 O 0.37982 0.86268 0.9062 0.0
O818 O 0.34643 0.77207 0.90344 0.0
O819 O 0.33474 0.77325 0.81599 0.0
C820 C 0.36616 0.81707 0.92358 0.0
H821 H 0.15775 0.7529 0.89987 0.0
H822 H 0.5609 0.89802 0.83134 0.0
H823 H 0.43643 0.93999 0.74533 0.0
H824 H 0.41036 0.02011 0.83913 0.0
Co825 Co 0.2235 0.54025 0.86646 0.0
C826 C 0.21168 0.42986 0.85394 0.0
C827 C 0.24089 0.45708 0.90926 0.0
C828 C 0.23658 0.40595 0.9047 0.0
N829 N 0.22495 0.47212 0.87755 0.0
N830 N 0.21811 0.38918 0.87001 0.0
H831 H 0.19763 0.42898 0.8257 0.0
H832 H 0.25698 0.4819 0.93373 0.0
C833 C 0.31945 0.57359 0.81029 0.0
O834 O 0.32952 0.58265 0.77455 0.0
N835 N 0.22326 0.60851 0.85539 0.0
C836 C 0.17949 0.61503 0.84644 0.0
C837 C 0.19911 0.66679 0.83078 0.0
C838 C 0.26855 0.65749 0.84759 0.0
N839 N 0.25511 0.69405 0.83228 0.0
C840 C 0.11038 0.45866 0.85516 0.0
C841 C 0.10295 0.48138 0.78108 0.0
C842 C 0.05508 0.4417 0.79946 0.0
C843 C 0.05937 0.43014 0.83688 0.0
C844 C 0.15319 0.50937 0.80047 0.0
N845 N 0.15627 0.49821 0.83718 0.0
H846 H 0.11299 0.44927 0.88405 0.0
H847 H 0.18886 0.54161 0.7863 0.0
H848 H 0.13655 0.58275 0.84766 0.0
H849 H 0.31024 0.66337 0.84819 0.0
O850 O 0.18784 0.53545 0.91219 0.0
O851 O 0.2789 0.57941 0.90552 0.0
O852 O 0.26886 0.55097 0.8205 0.0
C853 C 0.23616 0.5646 0.92712 0.0
H854 H 0.24612 0.38309 0.92527 0.0
H855 H 0.17424 0.68172 0.8166 0.0
H856 H 0.10122 0.49207 0.75227 0.0
H857 H 1.0236 0.39926 0.85192 0.0
Co858 Co 0.52237 0.70458 0.86293 0.0
C859 C 0.64384 0.79026 0.85594 0.0
C860 C 0.59672 0.81914 0.8859 0.0
C861 C 0.64939 0.86273 0.88128 0.0
N862 N 0.5927 0.77313 0.87019 0.0
N863 N 0.67886 0.84471 0.86218 0.0
H864 H 0.65643 0.76411 0.84184 0.0
H865 H 0.56367 0.82145 0.90001 0.0
C866 C 0.51348 0.78781 0.81193 0.0
O867 O 0.52473 0.80917 0.77827 0.0
N868 N 0.45044 0.63914 0.85502 0.0
C869 C 0.41991 0.59837 0.87961 0.0
C870 C 0.36597 0.56933 0.8669 0.0
C871 C 0.41465 0.63295 0.82738 0.0
N872 N 0.36283 0.59167 0.83432 0.0
C873 C 0.59328 0.65912 0.8507 0.0
C874 C 0.56642 0.63071 0.7772 0.0
C875 C 0.60426 0.61782 0.79496 0.0
C876 C 0.6175 0.63257 0.83221 0.0
C877 C 0.54341 0.65799 0.79672 0.0
N878 N 0.5575 0.67251 0.83296 0.0
H879 H 0.60511 0.67069 0.87927 0.0
H880 H 0.51362 0.66639 0.78276 0.0
H881 H 0.43489 0.59055 0.90554 0.0
H882 H 0.42524 0.65968 0.80324 0.0
O883 O 0.53101 0.67473 0.90887 0.0
O884 O 0.48962 0.72525 0.90428 0.0
O885 O 0.51186 0.74142 0.81742 0.0
C886 C 0.50593 0.69696 0.92525 0.0
H887 H 0.66624 0.90342 0.89362 0.0
H888 H 0.33307 0.53297 0.87963 0.0
H889 H 0.55399 0.61914 0.74861 0.0
H890 H 0.64724 0.62473 0.84698 0.0
Co891 Co 0.52064 0.68758 1.02757 0.0
C892 C 0.52137 0.58045 0.04205 0.0
C893 C 0.55325 0.6132 0.98809 0.0
C894 C 0.55526 0.56468 0.99299 0.0
N895 N 0.53171 0.62337 1.0187 0.0
N896 N 0.53517 0.54415 1.02686 0.0
H897 H 0.50475 0.57608 0.06966 0.0
H898 H 0.56803 0.63963 0.96388 0.0
C899 C 0.42362 0.62018 0.08267 0.0
O900 O 0.4129 0.61599 0.11841 0.0
N901 N 0.50834 0.75071 0.03626 0.0
C902 C 0.51741 0.79246 1.01232 0.0
C903 C 0.49131 0.82058 1.02503 0.0
C904 C 0.47843 0.7559 0.06381 0.0
N905 N 0.46624 0.79683 0.05711 0.0
C906 C 0.63578 0.72936 0.04318 0.0
C907 C 0.63511 0.75939 0.11595 0.0
C908 C 0.68533 0.76731 0.10097 0.0
C909 C 0.68511 0.75232 0.06387 0.0
C910 C 0.58659 0.73593 0.09436 0.0
N911 N 0.58718 0.72067 0.05853 0.0
H912 H 0.63657 0.71791 1.0147 0.0
H913 H 0.54869 0.7301 0.10663 0.0
H914 H 0.54083 0.80214 0.98689 0.0
H915 H 0.4643 0.7296 0.08812 0.0
O916 O 0.55614 0.72116 0.98151 0.0
O917 O 0.46599 0.66467 0.98688 0.0
O918 O 0.47459 0.64819 0.07291 0.0
C919 C 0.5078 0.69711 0.9658 0.0
H920 H 0.57089 0.54647 0.97333 0.0
H921 H 0.49367 0.85752 1.01279 0.0
H922 H 0.63314 0.77139 0.14418 0.0
H923 H 0.7224 0.75704 0.05102 0.0
Co924 Co 0.37141 0.84162 1.02544 0.0
C925 C 0.47309 0.94824 0.04112 0.0
C926 C 0.4476 0.94554 0.9844 0.0
C927 C 0.49437 0.99607 0.99039 0.0
N928 N 0.43441 0.91515 1.01609 0.0
N929 N 0.51012 0.99738 1.02599 0.0
H930 H 0.47362 0.93718 0.0699 0.0
H931 H 0.42447 0.93308 0.95874 0.0
C932 C 0.44157 0.81492 0.08142 0.0
O933 O 0.44573 0.80749 0.11718 0.0
N934 N 0.30885 0.76826 0.03511 0.0
C935 C 0.26548 0.73713 1.01236 0.0
C936 C 0.23593 0.68438 1.02692 0.0
C937 C 0.30361 0.7342 0.06366 0.0
N938 N 0.26082 0.68265 0.05869 0.0
C939 C 0.32451 0.91192 0.03788 0.0
C940 C 0.30248 0.88863 0.11258 0.0
C941 C 0.28932 0.92654 0.09552 0.0
C942 C 0.30003 0.93762 0.05756 0.0
C943 C 0.32598 0.86309 0.09178 0.0
N944 N 0.33746 0.87542 0.05498 0.0
H945 H 0.33356 0.92178 1.00879 0.0
H946 H 0.33477 0.83343 0.10549 0.0
H947 H 0.25552 0.75113 0.98679 0.0
H948 H 0.33104 0.74587 0.08741 0.0
O949 O 0.33909 0.84322 0.97836 0.0
O950 O 0.39564 0.809 0.98648 0.0
O951 O 0.41072 0.8353 0.07147 0.0
C952 C 0.36421 0.81889 0.96408 0.0
H953 H 0.51448 0.02931 0.97032 0.0
H954 H 0.19744 0.65139 1.01619 0.0
H955 H 0.29413 0.87836 0.14177 0.0
H956 H 0.29071 0.96681 0.04339 0.0
Co957 Co 0.21764 0.54699 1.02867 0.0
C958 C 0.10136 0.52285 0.04261 0.0
C959 C 0.1262 0.55215 0.98707 0.0
C960 C 0.07355 0.54383 0.99187 0.0
N961 N 0.14402 0.53866 1.0187 0.0
N962 N 0.05812 0.52548 1.02667 0.0
H963 H 0.10253 0.51087 0.07114 0.0
H964 H 0.15016 0.57021 0.96245 0.0
C965 C 0.24281 0.64094 0.08389 0.0
O966 O 0.25115 0.65304 0.11941 0.0
N967 N 0.2923 0.55741 0.03778 0.0
C968 C 0.32348 0.54676 1.01393 0.0
C969 C 0.37769 0.57179 1.02634 0.0
C970 C 0.32836 0.58753 0.06496 0.0
N971 N 0.38058 0.59774 0.05824 0.0
C972 C 0.1451 0.43128 0.04294 0.0
C973 C 0.17589 0.43108 0.11619 0.0
C974 C 0.13449 0.38129 0.10074 0.0
C975 C 0.1196 0.38173 0.06343 0.0
C976 C 0.20063 0.47957 0.09469 0.0
N977 N 0.18457 0.4795 0.0587 0.0
H978 H 0.1325 0.43119 1.01442 0.0
H979 H 0.23268 0.51709 0.10719 0.0
H980 H 0.30863 0.52286 0.9888 0.0
H981 H 0.31739 0.60311 0.08896 0.0
O982 O 0.21468 0.5131 0.98237 0.0
O983 O 0.24974 0.60351 0.98931 0.0
O984 O 0.22283 0.59022 0.07475 0.0
C985 C 0.23861 0.56197 0.96743 0.0
H986 H 0.04939 0.55231 0.97172 0.0
H987 H 0.41112 0.56773 1.01422 0.0
H988 H 0.18949 0.43253 0.14467 0.0
H989 H 0.08767 0.3444 0.05038 0.0
Co990 Co 0.36481 0.53177 0.52794 0.0
C991 C 0.47205 0.5311 0.5422 0.0
C992 C 0.43895 0.49897 0.48834 0.0
C993 C 0.48749 0.49699 0.49313 0.0
N994 N 0.42897 0.52066 0.51896 0.0
N995 N 0.50824 0.51723 0.52692 0.0
H996 H 0.4766 0.54787 0.56978 0.0
H997 H 0.41238 0.48409 0.4642 0.0
C998 C 0.43228 0.62865 0.58313 0.0
O999 O 0.43647 0.63931 0.61888 0.0
N1000 N 0.30172 0.5441 0.53671 0.0
C1001 C 0.25991 0.53496 0.51282 0.0
C1002 C 0.2318 0.56105 0.52555 0.0
C1003 C 0.29659 0.57406 0.56426 0.0
N1004 N 0.25562 0.58621 0.5576 0.0
C1005 C 0.32295 0.41656 0.54342 0.0
C1006 C 0.29316 0.41716 0.61626 0.0
C1007 C 0.28518 0.36695 0.60121 0.0
C1008 C 0.30004 0.3672 0.56406 0.0
C1009 C 0.31656 0.46571 0.5947 0.0
N1010 N 0.33172 0.46516 0.55884 0.0
H1011 H 0.33431 0.41581 0.51491 0.0
H1012 H 0.32243 0.50361 0.60702 0.0
H1013 H 0.25016 0.51147 0.48741 0.0
H1014 H 0.32293 0.58822 0.58855 0.0
O1015 O 0.33118 0.49639 0.48186 0.0
O1016 O 0.38773 0.58652 0.48731 0.0
O1017 O 0.40425 0.5777 0.57332 0.0
C1018 C 0.35523 0.54476 0.46619 0.0
H1019 H 0.50556 0.48127 0.47342 0.0
H1020 H 0.19482 0.55863 0.51334 0.0
H1021 H 0.28127 0.41908 0.64452 0.0
H1022 H 0.29525 0.32991 0.55117 0.0
Co1023 Co 0.50541 0.83467 0.52918 0.0
C1024 C 0.52971 0.95115 0.54282 0.0
C1025 C 0.49963 0.92571 0.48749 0.0
C1026 C 0.50801 0.9784 0.4921 0.0
N1027 N 0.51357 0.90822 0.51909 0.0
N1028 N 0.52685 0.99423 0.52677 0.0
H1029 H 0.54208 0.9503 0.57129 0.0
H1030 H 0.48113 0.90145 0.46304 0.0
C1031 C 0.4116 0.8095 0.58451 0.0
O1032 O 0.39957 0.80108 0.62003 0.0
N1033 N 0.49514 0.76007 0.53835 0.0
C1034 C 0.50582 0.72891 0.51449 0.0
C1035 C 0.48075 0.67467 0.52685 0.0
C1036 C 0.46497 0.72397 0.56549 0.0
N1037 N 0.45476 0.67174 0.55874 0.0
C1038 C 0.62113 0.90746 0.54337 0.0
C1039 C 0.6215 0.87664 0.6166 0.0
C1040 C 0.67123 0.91814 0.60114 0.0
C1041 C 0.6707 0.93305 0.56385 0.0
C1042 C 0.573 0.85183 0.59511 0.0
N1043 N 0.57297 0.86791 0.55914 0.0
H1044 H 0.62116 0.92005 0.51486 0.0
H1045 H 0.53554 0.8197 0.60762 0.0
H1046 H 0.52974 0.74378 0.48937 0.0
H1047 H 0.44935 0.7349 0.58949 0.0
O1048 O 0.53915 0.83754 0.48285 0.0
O1049 O 0.44877 0.80237 0.48991 0.0
O1050 O 0.4623 0.82953 0.57532 0.0
C1051 C 0.49024 0.8135 0.46797 0.0
H1052 H 0.49921 1.00233 0.47195 0.0
H1053 H 0.48477 0.64123 0.5147 0.0
H1054 H 0.62011 0.86298 0.64505 0.0
H1055 H 0.70798 0.96505 0.5508 0.0
Co1056 Co 0.21091 0.68109 0.52598 0.0
C1057 C 0.10437 0.57898 0.54126 0.0
C1058 C 0.10658 0.60606 0.485 0.0
C1059 C 0.05603 0.55924 0.4908 0.0
N1060 N 0.1373 0.61828 0.51651 0.0
N1061 N 0.05503 0.5425 0.5261 0.0
H1062 H 0.11567 0.57761 0.56988 0.0
H1063 H 0.11881 0.62995 0.45963 0.0
C1064 C 0.23749 0.61081 0.58193 0.0
O1065 O 0.24487 0.60658 0.61768 0.0
N1066 N 0.28431 0.74351 0.53571 0.0
C1067 C 0.31543 0.78695 0.51301 0.0
C1068 C 0.36814 0.81648 0.52759 0.0
C1069 C 0.31834 0.7487 0.56426 0.0
N1070 N 0.36986 0.79155 0.55935 0.0
C1071 C 0.14097 0.72841 0.53837 0.0
C1072 C 0.16392 0.75003 0.61314 0.0
C1073 C 0.12619 0.76341 0.59604 0.0
C1074 C 0.1153 0.75292 0.55805 0.0
C1075 C 0.18943 0.72649 0.59234 0.0
N1076 N 0.17725 0.7152 0.55551 0.0
H1077 H 0.13125 0.71955 0.50925 0.0
H1078 H 0.21895 0.71753 0.60608 0.0
H1079 H 0.30144 0.79699 0.48746 0.0
H1080 H 0.30666 0.72122 0.58799 0.0
O1081 O 0.20953 0.71353 0.4789 0.0
O1082 O 0.2434 0.6567 0.48705 0.0
O1083 O 0.21705 0.64164 0.572 0.0
C1084 C 0.23367 0.68822 0.46463 0.0
H1085 H 1.02255 0.53982 0.47082 0.0
H1086 H 0.4011 0.85502 0.51692 0.0
H1087 H 0.17407 0.75823 0.64236 0.0
H1088 H 0.08627 0.76243 0.54385 0.0
Co1089 Co 0.22971 0.69349 0.36155 0.0
C1090 C 0.21587 0.79401 0.34907 0.0
C1091 C 0.281 0.80974 0.38772 0.0
C1092 C 0.27712 0.85724 0.38393 0.0
N1093 N 0.24216 0.76943 0.36609 0.0
N1094 N 0.23626 0.84737 0.35954 0.0
H1095 H 0.18045 0.77322 0.33084 0.0
H1096 H 0.30956 0.80503 0.40606 0.0
C1097 C 0.31961 0.76423 0.30763 0.0
O1098 O 0.3307 0.77547 0.27218 0.0
N1099 N 0.2203 0.61987 0.35712 0.0
C1100 C 0.17235 0.57183 0.35416 0.0
C1101 C 0.18415 0.53206 0.34154 0.0
C1102 C 0.26062 0.60793 0.34845 0.0
N1103 N 0.23973 0.55436 0.33842 0.0
C1104 C 0.11872 0.66833 0.34541 0.0
C1105 C 0.11311 0.63132 0.27372 0.0
C1106 C 0.06484 0.62572 0.2902 0.0
C1107 C 0.06836 0.64535 0.3263 0.0
C1108 C 0.16287 0.65434 0.29395 0.0
N1109 N 0.16525 0.67242 0.32947 0.0
H1110 H 0.12015 0.68285 0.37333 0.0
H1111 H 0.19841 0.65475 0.28156 0.0
H1112 H 0.13151 0.56738 0.35709 0.0
H1113 H 0.30343 0.63958 0.34428 0.0
O1114 O 0.18965 0.67239 0.40683 0.0
O1115 O 0.28024 0.70574 0.40395 0.0
O1116 O 0.2788 0.71729 0.31653 0.0
C1117 C 0.23532 0.6861 0.42414 0.0
H1118 H 0.29875 0.8943 0.4006 0.0
H1119 H 0.15383 0.49113 0.33195 0.0
H1120 H 0.11188 0.61578 0.24604 0.0
H1121 H 1.03229 0.64256 0.33985 0.0
Co1122 Co 0.34767 0.5302 0.36333 0.0
C1123 C 0.26199 0.4088 0.35606 0.0
C1124 C 0.23329 0.4556 0.38659 0.0
C1125 C 0.18969 0.40295 0.38183 0.0
N1126 N 0.2792 0.45979 0.37062 0.0
N1127 N 0.20759 0.37369 0.36238 0.0
H1128 H 0.28804 0.39639 0.34164 0.0
H1129 H 0.23102 0.48851 0.40092 0.0
C1130 C 0.26401 0.53833 0.31249 0.0
O1131 O 0.24233 0.52649 0.27893 0.0
N1132 N 0.41301 0.60218 0.35539 0.0
C1133 C 0.45397 0.63262 0.37988 0.0
C1134 C 0.48297 0.68659 0.36722 0.0
C1135 C 0.41903 0.63806 0.32785 0.0
N1136 N 0.46037 0.68985 0.33478 0.0
C1137 C 0.39301 0.45921 0.35106 0.0
C1138 C 0.42169 0.48632 0.27761 0.0
C1139 C 0.43443 0.44836 0.29534 0.0
C1140 C 0.41955 0.43499 0.33257 0.0
C1141 C 0.3944 0.50934 0.29714 0.0
N1142 N 0.37976 0.49512 0.33335 0.0
H1143 H 0.38133 0.4473 0.3796 0.0
H1144 H 0.3861 0.53921 0.28322 0.0
H1145 H 0.46198 0.61754 0.40571 0.0
H1146 H 0.39215 0.62754 0.30379 0.0
O1147 O 0.37763 0.52164 0.40925 0.0
O1148 O 0.32701 0.56293 0.4047 0.0
O1149 O 0.31072 0.5406 0.31784 0.0
C1150 C 0.35538 0.54669 0.42565 0.0
H1151 H 0.14907 0.38596 0.3943 0.0
H1152 H 0.51948 0.71943 0.37986 0.0
H1153 H 0.43335 0.49885 0.24905 0.0
H1154 H 0.42728 0.40516 0.34731 0.0
Co1155 Co 0.5118 0.82902 0.36703 0.0
C1156 C 0.62234 0.84132 0.35447 0.0
C1157 C 0.59506 0.81162 0.4097 0.0
C1158 C 0.64626 0.81615 0.40511 0.0
N1159 N 0.58002 0.82775 0.37807 0.0
N1160 N 0.66307 0.83494 0.37048 0.0
H1161 H 0.62321 0.85554 0.32628 0.0
H1162 H 0.57017 0.79521 0.43411 0.0
C1163 C 0.4785 0.73325 0.31076 0.0
O1164 O 0.4694 0.7232 0.27502 0.0
N1165 N 0.44344 0.82907 0.35601 0.0
C1166 C 0.43676 0.87275 0.34706 0.0
C1167 C 0.38498 0.85298 0.3314 0.0
C1168 C 0.39455 0.78368 0.34821 0.0
N1169 N 0.35788 0.79697 0.33289 0.0
C1170 C 0.59319 0.94228 0.35588 0.0
C1171 C 0.57064 0.94982 0.28179 0.0
C1172 C 0.61035 0.99766 0.3002 0.0
C1173 C 0.62179 0.99332 0.33764 0.0
C1174 C 0.54259 0.89955 0.30114 0.0
N1175 N 0.5537 0.8964 0.33786 0.0
H1176 H 0.60254 0.93962 0.38478 0.0
H1177 H 0.51039 0.86389 0.28693 0.0
H1178 H 0.46893 0.91574 0.34829 0.0
H1179 H 0.38881 0.74204 0.34881 0.0
O1180 O 0.51649 0.86449 0.41282 0.0
O1181 O 0.47277 0.77342 0.406 0.0
O1182 O 0.50122 0.78384 0.32098 0.0
C1183 C 0.4875 0.81607 0.42767 0.0
H1184 H 0.66912 0.80648 0.4256 0.0
H1185 H 0.36995 0.87776 0.31721 0.0
H1186 H 0.56002 0.95158 0.25297 0.0
H1187 H 0.65267 0.02905 0.35271 0.0
loop_
_geom_bond_atom_site_label_1
_geom_bond_atom_site_label_2
_geom_bond_distance
_geom_bond_site_symmetry_2
_ccdc_geom_bond_type
Co0 N4 2.148 . S
Co0 N10 2.128 1_655 S
Co0 N20 2.194 1_655 S
Co0 O25 2.351 1_655 S
Co0 O26 2.155 . S
Co0 O27 2.096 . S
C1 N4 1.301 . S
C1 N5 1.328 . S
C1 H6 0.930 . S
C2 C3 1.333 . S
C2 N4 1.317 . S
C2 H7 0.930 . S
C3 C2 1.333 . S
C3 N5 1.350 . S
C3 H29 0.931 . S
N4 Co0 2.148 . S
N4 C1 1.301 . S
N4 C2 1.317 . S
N5 C1 1.328 . S
N5 C3 1.350 . S
H6 C1 0.930 . S
H7 C2 0.930 . S
C8 O9 1.224 . S
C8 O27 1.247 . S
O9 C8 1.224 . S
N10 Co0 2.128 1_455 S
N10 C11 1.355 . S
N10 C13 1.311 . S
C11 N10 1.355 . S
C11 C12 1.363 . S
C11 H23 0.929 . S
C12 C11 1.363 . S
C12 N14 1.375 . S
C12 H30 0.931 . S
C13 N10 1.311 . S
C13 N14 1.347 . S
C13 H24 0.929 . S
N14 C12 1.375 . S
N14 C13 1.347 . S
C15 C18 1.365 . S
C15 N20 1.328 . S
C15 H21 0.929 . S
C16 C17 1.362 . S
C16 C19 1.378 . S
C16 H31 0.929 . S
C17 C16 1.362 . S
C17 C18 1.366 . S
C18 C15 1.365 . S
C18 C17 1.366 . S
C18 H32 0.930 . S
C19 C16 1.378 . S
C19 N20 1.315 . S
C19 H22 0.930 . S
N20 Co0 2.194 1_455 S
N20 C15 1.328 . S
N20 C19 1.315 . S
H21 C15 0.929 . S
H22 C19 0.930 . S
H23 C11 0.929 . S
H24 C13 0.929 . S
O25 Co0 2.351 1_455 S
O25 C28 1.244 . S
O26 Co0 2.155 . S
O26 C28 1.240 1_655 S
O27 Co0 2.096 . S
O27 C8 1.247 . S
C28 O25 1.244 . S
C28 O26 1.240 1_455 S
H29 C3 0.931 . S
H30 C12 0.931 . S
H31 C16 0.929 . S
H32 C18 0.930 . S
Co33 N37 2.148 . S
Co33 N43 2.128 . S
Co33 N53 2.194 . S
Co33 O58 2.351 . S
Co33 O59 2.155 . S
Co33 O60 2.096 . S
C34 N37 1.301 . S
C34 N38 1.328 . S
C34 H39 0.930 . S
C35 C36 1.333 . S
C35 N37 1.317 . S
C35 H40 0.930 . S
C36 C35 1.333 . S
C36 N38 1.350 . S
C36 H62 0.931 . S
N37 Co33 2.148 . S
N37 C34 1.301 . S
N37 C35 1.317 . S
N38 C34 1.328 . S
N38 C36 1.350 . S
H39 C34 0.930 . S
H40 C35 0.930 . S
C41 O42 1.224 . S
C41 O60 1.247 . S
O42 C41 1.224 . S
N43 Co33 2.128 . S
N43 C44 1.355 . S
N43 C46 1.311 . S
C44 N43 1.355 . S
C44 C45 1.363 . S
C44 H56 0.929 . S
C45 C44 1.363 . S
C45 N47 1.375 . S
C45 H63 0.931 . S
C46 N43 1.311 . S
C46 N47 1.366 . S
C46 H57 0.929 . S
N47 C45 1.375 . S
N47 C46 1.366 . S
C48 C51 1.365 . S
C48 N53 1.328 . S
C48 H54 0.929 . S
C49 C50 1.362 . S
C49 C52 1.378 . S
C49 H64 0.929 . S
C50 C49 1.362 . S
C50 C51 1.366 . S
C51 C48 1.365 . S
C51 C50 1.366 . S
C51 H65 0.930 . S
C52 C49 1.378 . S
C52 N53 1.315 . S
C52 H55 0.930 . S
N53 Co33 2.194 . S
N53 C48 1.328 . S
N53 C52 1.315 . S
H54 C48 0.929 . S
H55 C52 0.930 . S
H56 C44 0.929 . S
H57 C46 0.929 . S
O58 Co33 2.351 . S
O58 C61 1.244 . S
O59 Co33 2.155 . S
O59 C61 1.240 . S
O60 Co33 2.096 . S
O60 C41 1.247 . S
C61 O58 1.244 . S
C61 O59 1.240 . S
H62 C36 0.931 . S
H63 C45 0.931 . S
H64 C49 0.929 . S
H65 C51 0.930 . S
Co66 N70 2.148 . S
Co66 N76 2.128 1_545 S
Co66 N86 2.194 1_545 S
Co66 O91 2.351 1_545 S
Co66 O92 2.155 . S
Co66 O93 2.096 . S
C67 N70 1.301 . S
C67 N71 1.328 . S
C67 H72 0.930 . S
C68 C69 1.333 . S
C68 N70 1.317 . S
C68 H73 0.930 . S
C69 C68 1.333 . S
C69 N71 1.350 . S
C69 H95 0.931 . S
N70 Co66 2.148 . S
N70 C67 1.301 . S
N70 C68 1.317 . S
N71 C67 1.328 . S
N71 C69 1.350 . S
H72 C67 0.930 . S
H73 C68 0.930 . S
C74 O75 1.224 . S
C74 O93 1.247 . S
O75 C74 1.224 . S
N76 Co66 2.128 1_565 S
N76 C77 1.355 . S
N76 C79 1.311 . S
C77 N76 1.355 . S
C77 C78 1.363 . S
C77 H89 0.929 . S
C78 C77 1.363 . S
C78 N80 1.373 1_455 S
C78 H96 0.931 . S
C79 N76 1.311 . S
C79 N80 1.347 1_455 S
C79 H90 0.929 . S
N80 C78 1.373 1_655 S
N80 C79 1.347 1_655 S
C81 C84 1.365 . S
C81 N86 1.328 . S
C81 H87 0.929 . S
C82 C83 1.362 . S
C82 C85 1.378 . S
C82 H97 0.929 . S
C83 C82 1.362 . S
C83 C84 1.366 . S
C84 C81 1.365 . S
C84 C83 1.366 . S
C84 H98 0.930 . S
C85 C82 1.378 . S
C85 N86 1.315 . S
C85 H88 0.930 . S
N86 Co66 2.194 1_565 S
N86 C81 1.328 . S
N86 C85 1.315 . S
H87 C81 0.929 . S
H88 C85 0.930 . S
H89 C77 0.929 . S
H90 C79 0.929 . S
O91 Co66 2.351 1_565 S
O91 C94 1.244 . S
O92 Co66 2.155 . S
O92 C94 1.240 1_545 S
O93 Co66 2.096 . S
O93 C74 1.247 . S
C94 O91 1.244 . S
C94 O92 1.240 1_565 S
H95 C69 0.931 . S
H96 C78 0.931 . S
H97 C82 0.929 . S
H98 C84 0.930 . S
Co99 N103 2.148 . S
Co99 N109 2.128 1_565 S
Co99 N119 2.194 1_565 S
Co99 O124 2.351 1_565 S
Co99 O125 2.155 . S
Co99 O126 2.096 . S
C100 N103 1.301 . S
C100 N104 1.328 . S
C100 H105 0.930 . S
C101 C102 1.333 . S
C101 N103 1.317 . S
C101 H106 0.930 . S
C102 C101 1.333 . S
C102 N104 1.350 . S
C102 H128 0.931 . S
N103 Co99 2.148 . S
N103 C100 1.301 . S
N103 C101 1.317 . S
N104 C100 1.328 . S
N104 C102 1.350 . S
H105 C100 0.930 . S
H106 C101 0.930 . S
C107 O108 1.224 . S
C107 O126 1.247 . S
O108 C107 1.224 . S
N109 Co99 2.128 1_545 S
N109 C110 1.355 . S
N109 C112 1.311 . S
C110 N109 1.355 . S
C110 C111 1.363 . S
C110 H122 0.929 . S
C111 C110 1.363 . S
C111 N113 1.375 . S
C111 H129 0.931 . S
C112 N109 1.311 . S
C112 N113 1.347 . S
C112 H123 0.929 . S
N113 C111 1.375 . S
N113 C112 1.347 . S
C114 C117 1.365 . S
C114 N119 1.328 . S
C114 H120 0.929 . S
C115 C116 1.362 . S
C115 C118 1.378 . S
C115 H130 0.929 . S
C116 C115 1.362 . S
C116 C117 1.366 . S
C117 C114 1.365 . S
C117 C116 1.366 . S
C117 H131 0.930 . S
C118 C115 1.378 . S
C118 N119 1.315 . S
C118 H121 0.930 . S
N119 Co99 2.194 1_545 S
N119 C114 1.328 . S
N119 C118 1.315 . S
H120 C114 0.929 . S
H121 C118 0.930 . S
H122 C110 0.929 . S
H123 C112 0.929 . S
O124 Co99 2.351 1_545 S
O124 C127 1.244 . S
O125 Co99 2.155 . S
O125 C127 1.240 1_565 S
O126 Co99 2.096 . S
O126 C107 1.247 . S
C127 O124 1.244 . S
C127 O125 1.240 1_545 S
H128 C102 0.931 . S
H129 C111 0.931 . S
H130 C115 0.929 . S
H131 C117 0.930 . S
Co132 N136 2.148 . S
Co132 N142 2.128 1_455 S
Co132 N152 2.194 1_455 S
Co132 O157 2.351 1_455 S
Co132 O158 2.155 . S
Co132 O159 2.096 . S
C133 N136 1.301 . S
C133 N137 1.328 . S
C133 H138 0.930 . S
C134 C135 1.333 . S
C134 N136 1.317 . S
C134 H139 0.930 . S
C135 C134 1.333 . S
C135 N137 1.350 . S
C135 H161 0.931 . S
N136 Co132 2.148 . S
N136 C133 1.301 . S
N136 C134 1.317 . S
N137 C133 1.328 . S
N137 C135 1.350 . S
H138 C133 0.930 . S
H139 C134 0.930 . S
C140 O141 1.224 . S
C140 O159 1.247 . S
O141 C140 1.224 . S
N142 Co132 2.128 1_655 S
N142 C143 1.355 . S
N142 C145 1.311 . S
C143 N142 1.355 . S
C143 C144 1.363 . S
C143 H155 0.929 . S
C144 C143 1.363 . S
C144 N146 1.373 1_545 S
C144 H162 0.931 . S
C145 N142 1.311 . S
C145 N146 1.347 1_545 S
C145 H156 0.929 . S
N146 C144 1.373 1_565 S
N146 C145 1.347 1_565 S
C147 C150 1.365 . S
C147 N152 1.328 . S
C147 H153 0.929 . S
C148 C149 1.362 . S
C148 C151 1.378 . S
C148 H163 0.929 . S
C149 C148 1.362 . S
C149 C150 1.366 . S
C150 C147 1.365 . S
C150 C149 1.366 . S
C150 H164 0.930 . S
C151 C148 1.378 . S
C151 N152 1.315 . S
C151 H154 0.930 . S
N152 Co132 2.194 1_655 S
N152 C147 1.328 . S
N152 C151 1.315 . S
H153 C147 0.929 . S
H154 C151 0.930 . S
H155 C143 0.929 . S
H156 C145 0.929 . S
O157 Co132 2.351 1_655 S
O157 C160 1.244 . S
O158 Co132 2.155 . S
O158 C160 1.240 1_455 S
O159 Co132 2.096 . S
O159 C140 1.247 . S
C160 O157 1.244 . S
C160 O158 1.240 1_655 S
H161 C135 0.931 . S
H162 C144 0.931 . S
H163 C148 0.929 . S
H164 C150 0.930 . S
Co165 N169 2.148 . S
Co165 N175 2.128 . S
Co165 N185 2.194 . S
Co165 O190 2.351 . S
Co165 O191 2.155 . S
Co165 O192 2.096 . S
C166 N169 1.301 . S
C166 N170 1.328 . S
C166 H171 0.930 . S
C167 C168 1.333 . S
C167 N169 1.317 . S
C167 H172 0.930 . S
C168 C167 1.333 . S
C168 N170 1.350 . S
C168 H194 0.931 . S
N169 Co165 2.148 . S
N169 C166 1.301 . S
N169 C167 1.317 . S
N170 C166 1.328 . S
N170 C168 1.350 . S
H171 C166 0.930 . S
H172 C167 0.930 . S
C173 O174 1.224 . S
C173 O192 1.247 . S
O174 C173 1.224 . S
N175 Co165 2.128 . S
N175 C176 1.355 . S
N175 C178 1.311 . S
C176 N175 1.355 . S
C176 C177 1.363 . S
C176 H188 0.929 . S
C177 C176 1.363 . S
C177 N179 1.375 . S
C177 H195 0.931 . S
C178 N175 1.311 . S
C178 N179 1.366 . S
C178 H189 0.929 . S
N179 C177 1.375 . S
N179 C178 1.366 . S
C180 C183 1.365 . S
C180 N185 1.328 . S
C180 H186 0.929 . S
C181 C182 1.362 . S
C181 C184 1.378 . S
C181 H196 0.929 . S
C182 C181 1.362 . S
C182 C183 1.366 . S
C183 C180 1.365 . S
C183 C182 1.366 . S
C183 H197 0.930 . S
C184 C181 1.378 . S
C184 N185 1.315 . S
C184 H187 0.930 . S
N185 Co165 2.194 . S
N185 C180 1.328 . S
N185 C184 1.315 . S
H186 C180 0.929 . S
H187 C184 0.930 . S
H188 C176 0.929 . S
H189 C178 0.929 . S
O190 Co165 2.351 . S
O190 C193 1.244 . S
O191 Co165 2.155 . S
O191 C193 1.240 . S
O192 Co165 2.096 . S
O192 C173 1.247 . S
C193 O190 1.244 . S
C193 O191 1.240 . S
H194 C168 0.931 . S
H195 C177 0.931 . S
H196 C181 0.929 . S
H197 C183 0.930 . S
Co198 N202 2.148 . S
Co198 N208 2.128 1_455 S
Co198 N218 2.194 1_455 S
Co198 O223 2.351 1_455 S
Co198 O224 2.155 . S
Co198 O225 2.096 . S
C199 N202 1.301 . S
C199 N203 1.328 . S
C199 H204 0.930 . S
C200 C201 1.333 . S
C200 N202 1.317 . S
C200 H205 0.930 . S
C201 C200 1.333 . S
C201 N203 1.350 . S
C201 H227 0.931 . S
N202 Co198 2.148 . S
N202 C199 1.301 . S
N202 C200 1.317 . S
N203 C199 1.328 . S
N203 C201 1.350 . S
H204 C199 0.930 . S
H205 C200 0.930 . S
C206 O207 1.224 . S
C206 O225 1.247 . S
O207 C206 1.224 . S
N208 Co198 2.128 1_655 S
N208 C209 1.355 . S
N208 C211 1.311 . S
C209 N208 1.355 . S
C209 C210 1.363 . S
C209 H221 0.929 . S
C210 C209 1.363 . S
C210 N212 1.375 . S
C210 H228 0.931 . S
C211 N208 1.311 . S
C211 N212 1.347 . S
C211 H222 0.929 . S
N212 C210 1.375 . S
N212 C211 1.347 . S
C213 C216 1.365 . S
C213 N218 1.328 . S
C213 H219 0.929 . S
C214 C215 1.362 . S
C214 C217 1.378 . S
C214 H229 0.929 . S
C215 C214 1.362 . S
C215 C216 1.366 . S
C216 C213 1.365 . S
C216 C215 1.366 . S
C216 H230 0.930 . S
C217 C214 1.378 . S
C217 N218 1.315 . S
C217 H220 0.930 . S
N218 Co198 2.194 1_655 S
N218 C213 1.328 . S
N218 C217 1.315 . S
H219 C213 0.929 . S
H220 C217 0.930 . S
H221 C209 0.929 . S
H222 C211 0.929 . S
O223 Co198 2.351 1_655 S
O223 C226 1.244 . S
O224 Co198 2.155 . S
O224 C226 1.240 1_455 S
O225 Co198 2.096 . S
O225 C206 1.247 . S
C226 O223 1.244 . S
C226 O224 1.240 1_655 S
H227 C201 0.931 . S
H228 C210 0.931 . S
H229 C214 0.929 . S
H230 C216 0.930 . S
Co231 N235 2.148 . S
Co231 N241 2.128 . S
Co231 N251 2.194 . S
Co231 O256 2.351 . S
Co231 O257 2.155 . S
Co231 O258 2.096 . S
C232 N235 1.301 . S
C232 N236 1.328 . S
C232 H237 0.930 . S
C233 C234 1.333 . S
C233 N235 1.317 . S
C233 H238 0.930 . S
C234 C233 1.333 . S
C234 N236 1.350 . S
C234 H260 0.931 . S
N235 Co231 2.148 . S
N235 C232 1.301 . S
N235 C233 1.317 . S
N236 C232 1.328 . S
N236 C234 1.350 . S
H237 C232 0.930 . S
H238 C233 0.930 . S
C239 O240 1.224 . S
C239 O258 1.247 . S
O240 C239 1.224 . S
N241 Co231 2.128 . S
N241 C242 1.355 . S
N241 C244 1.311 . S
C242 N241 1.355 . S
C242 C243 1.363 . S
C242 H254 0.929 . S
C243 C242 1.363 . S
C243 N245 1.375 . S
C243 H261 0.931 . S
C244 N241 1.311 . S
C244 N245 1.366 . S
C244 H255 0.929 . S
N245 C243 1.375 . S
N245 C244 1.366 . S
C246 C249 1.365 . S
C246 N251 1.328 . S
C246 H252 0.929 . S
C247 C248 1.362 . S
C247 C250 1.378 . S
C247 H262 0.929 . S
C248 C247 1.362 . S
C248 C249 1.366 . S
C249 C246 1.365 . S
C249 C248 1.366 . S
C249 H263 0.930 . S
C250 C247 1.378 . S
C250 N251 1.315 . S
C250 H253 0.930 . S
N251 Co231 2.194 . S
N251 C246 1.328 . S
N251 C250 1.315 . S
H252 C246 0.929 . S
H253 C250 0.930 . S
H254 C242 0.929 . S
H255 C244 0.929 . S
O256 Co231 2.351 . S
O256 C259 1.244 . S
O257 Co231 2.155 . S
O257 C259 1.240 . S
O258 Co231 2.096 . S
O258 C239 1.247 . S
C259 O256 1.244 . S
C259 O257 1.240 . S
H260 C234 0.931 . S
H261 C243 0.931 . S
H262 C247 0.929 . S
H263 C249 0.930 . S
Co264 N268 2.148 . S
Co264 N274 2.128 1_565 S
Co264 N284 2.194 1_565 S
Co264 O289 2.351 1_565 S
Co264 O290 2.155 . S
Co264 O291 2.096 . S
C265 N268 1.301 . S
C265 N269 1.328 . S
C265 H270 0.930 . S
C266 C267 1.333 . S
C266 N268 1.317 . S
C266 H271 0.930 . S
C267 C266 1.333 . S
C267 N269 1.350 . S
C267 H293 0.931 . S
N268 Co264 2.148 . S
N268 C265 1.301 . S
N268 C266 1.317 . S
N269 C265 1.328 . S
N269 C267 1.350 . S
H270 C265 0.930 . S
H271 C266 0.930 . S
C272 O273 1.224 . S
C272 O291 1.247 . S
O273 C272 1.224 . S
N274 Co264 2.128 1_545 S
N274 C275 1.355 . S
N274 C277 1.311 . S
C275 N274 1.355 . S
C275 C276 1.363 . S
C275 H287 0.929 . S
C276 C275 1.363 . S
C276 N278 1.373 1_655 S
C276 H294 0.931 . S
C277 N274 1.311 . S
C277 N278 1.347 1_655 S
C277 H288 0.929 . S
N278 C276 1.373 1_455 S
N278 C277 1.347 1_455 S
C279 C282 1.365 . S
C279 N284 1.328 . S
C279 H285 0.929 . S
C280 C281 1.362 . S
C280 C283 1.378 . S
C280 H295 0.929 . S
C281 C280 1.362 . S
C281 C282 1.366 . S
C282 C279 1.365 . S
C282 C281 1.366 . S
C282 H296 0.930 . S
C283 C280 1.378 . S
C283 N284 1.315 . S
C283 H286 0.930 . S
N284 Co264 2.194 1_545 S
N284 C279 1.328 . S
N284 C283 1.315 . S
H285 C279 0.929 . S
H286 C283 0.930 . S
H287 C275 0.929 . S
H288 C277 0.929 . S
O289 Co264 2.351 1_545 S
O289 C292 1.244 . S
O290 Co264 2.155 . S
O290 C292 1.240 1_565 S
O291 Co264 2.096 . S
O291 C272 1.247 . S
C292 O289 1.244 . S
C292 O290 1.240 1_545 S
H293 C267 0.931 . S
H294 C276 0.931 . S
H295 C280 0.929 . S
H296 C282 0.930 . S
Co297 N301 2.148 . S
Co297 N307 2.128 1_545 S
Co297 N317 2.194 1_545 S
Co297 O322 2.351 1_545 S
Co297 O323 2.155 . S
Co297 O324 2.096 . S
C298 N301 1.301 . S
C298 N302 1.328 . S
C298 H303 0.930 . S
C299 C300 1.333 . S
C299 N301 1.317 . S
C299 H304 0.930 . S
C300 C299 1.333 . S
C300 N302 1.350 . S
C300 H326 0.931 . S
N301 Co297 2.148 . S
N301 C298 1.301 . S
N301 C299 1.317 . S
N302 C298 1.328 . S
N302 C300 1.350 . S
H303 C298 0.930 . S
H304 C299 0.930 . S
C305 O306 1.224 . S
C305 O324 1.247 . S
O306 C305 1.224 . S
N307 Co297 2.128 1_565 S
N307 C308 1.355 . S
N307 C310 1.311 . S
C308 N307 1.355 . S
C308 C309 1.363 . S
C308 H320 0.929 . S
C309 C308 1.363 . S
C309 N311 1.375 . S
C309 H327 0.931 . S
C310 N307 1.311 . S
C310 N311 1.347 . S
C310 H321 0.929 . S
N311 C309 1.375 . S
N311 C310 1.347 . S
C312 C315 1.365 . S
C312 N317 1.328 . S
C312 H318 0.929 . S
C313 C314 1.362 . S
C313 C316 1.378 . S
C313 H328 0.929 . S
C314 C313 1.362 . S
C314 C315 1.366 . S
C315 C312 1.365 . S
C315 C314 1.366 . S
C315 H329 0.930 . S
C316 C313 1.378 . S
C316 N317 1.315 . S
C316 H319 0.930 . S
N317 Co297 2.194 1_565 S
N317 C312 1.328 . S
N317 C316 1.315 . S
H318 C312 0.929 . S
H319 C316 0.930 . S
H320 C308 0.929 . S
H321 C310 0.929 . S
O322 Co297 2.351 1_565 S
O322 C325 1.244 . S
O323 Co297 2.155 . S
O323 C325 1.240 1_545 S
O324 Co297 2.096 . S
O324 C305 1.247 . S
C325 O322 1.244 . S
C325 O323 1.240 1_565 S
H326 C300 0.931 . S
H327 C309 0.931 . S
H328 C313 0.929 . S
H329 C315 0.930 . S
Co330 N334 2.148 . S
Co330 N340 2.128 1_655 S
Co330 N350 2.194 1_655 S
Co330 O355 2.351 1_655 S
Co330 O356 2.155 . S
Co330 O357 2.096 . S
C331 N334 1.301 . S
C331 N335 1.328 . S
C331 H336 0.930 . S
C332 C333 1.333 . S
C332 N334 1.317 . S
C332 H337 0.930 . S
C333 C332 1.333 . S
C333 N335 1.350 . S
C333 H359 0.931 . S
N334 Co330 2.148 . S
N334 C331 1.301 . S
N334 C332 1.317 . S
N335 C331 1.328 . S
N335 C333 1.350 . S
H336 C331 0.930 . S
H337 C332 0.930 . S
C338 O339 1.224 . S
C338 O357 1.247 . S
O339 C338 1.224 . S
N340 Co330 2.128 1_455 S
N340 C341 1.355 . S
N340 C343 1.311 . S
C341 N340 1.355 . S
C341 C342 1.363 . S
C341 H353 0.929 . S
C342 C341 1.363 . S
C342 N344 1.373 1_565 S
C342 H360 0.931 . S
C343 N340 1.311 . S
C343 N344 1.347 1_565 S
C343 H354 0.929 . S
N344 C342 1.373 1_545 S
N344 C343 1.347 1_545 S
C345 C348 1.365 . S
C345 N350 1.328 . S
C345 H351 0.929 . S
C346 C347 1.362 . S
C346 C349 1.378 . S
C346 H361 0.929 . S
C347 C346 1.362 . S
C347 C348 1.366 . S
C348 C345 1.365 . S
C348 C347 1.366 . S
C348 H362 0.930 . S
C349 C346 1.378 . S
C349 N350 1.315 . S
C349 H352 0.930 . S
N350 Co330 2.194 1_455 S
N350 C345 1.328 . S
N350 C349 1.315 . S
H351 C345 0.929 . S
H352 C349 0.930 . S
H353 C341 0.929 . S
H354 C343 0.929 . S
O355 Co330 2.351 1_455 S
O355 C358 1.244 . S
O356 Co330 2.155 . S
O356 C358 1.240 1_655 S
O357 Co330 2.096 . S
O357 C338 1.247 . S
C358 O355 1.244 . S
C358 O356 1.240 1_455 S
H359 C333 0.931 . S
H360 C342 0.931 . S
H361 C346 0.929 . S
H362 C348 0.930 . S
Co363 N367 2.148 . S
Co363 N373 2.128 . S
Co363 N383 2.194 . S
Co363 O388 2.351 . S
Co363 O389 2.155 . S
Co363 O390 2.096 . S
C364 N367 1.301 . S
C364 N368 1.328 . S
C364 H369 0.930 . S
C365 C366 1.333 . S
C365 N367 1.317 . S
C365 H370 0.930 . S
C366 C365 1.333 . S
C366 N368 1.350 . S
C366 H392 0.931 . S
N367 Co363 2.148 . S
N367 C364 1.301 . S
N367 C365 1.317 . S
N368 C364 1.328 . S
N368 C366 1.350 . S
H369 C364 0.930 . S
H370 C365 0.930 . S
C371 O372 1.224 . S
C371 O390 1.247 . S
O372 C371 1.224 . S
N373 Co363 2.128 . S
N373 C374 1.355 . S
N373 C376 1.311 . S
C374 N373 1.355 . S
C374 C375 1.363 . S
C374 H386 0.929 . S
C375 C374 1.363 . S
C375 N377 1.375 . S
C375 H393 0.931 . S
C376 N373 1.311 . S
C376 N377 1.366 . S
C376 H387 0.929 . S
N377 C375 1.375 . S
N377 C376 1.366 . S
C378 C381 1.365 . S
C378 N383 1.328 . S
C378 H384 0.929 . S
C379 C380 1.362 . S
C379 C382 1.378 . S
C379 H394 0.929 . S
C380 C379 1.362 . S
C380 C381 1.366 . S
C381 C378 1.365 . S
C381 C380 1.366 . S
C381 H395 0.930 . S
C382 C379 1.378 . S
C382 N383 1.315 . S
C382 H385 0.930 . S
N383 Co363 2.194 . S
N383 C378 1.328 . S
N383 C382 1.315 . S
H384 C378 0.929 . S
H385 C382 0.930 . S
H386 C374 0.929 . S
H387 C376 0.929 . S
O388 Co363 2.351 . S
O388 C391 1.244 . S
O389 Co363 2.155 . S
O389 C391 1.240 . S
O390 Co363 2.096 . S
O390 C371 1.247 . S
C391 O388 1.244 . S
C391 O389 1.240 . S
H392 C366 0.931 . S
H393 C375 0.931 . S
H394 C379 0.929 . S
H395 C381 0.930 . S
Co396 N400 2.148 . S
Co396 N406 2.128 . S
Co396 N416 2.194 . S
Co396 O421 2.351 . S
Co396 O422 2.155 . S
Co396 O423 2.096 . S
C397 N400 1.301 . S
C397 N401 1.328 . S
C397 H402 0.930 . S
C398 C399 1.333 . S
C398 N400 1.317 . S
C398 H403 0.930 . S
C399 C398 1.333 . S
C399 N401 1.350 . S
C399 H425 0.931 . S
N400 Co396 2.148 . S
N400 C397 1.301 . S
N400 C398 1.317 . S
N401 C397 1.328 . S
N401 C399 1.350 . S
H402 C397 0.930 . S
H403 C398 0.930 . S
C404 O405 1.224 . S
C404 O423 1.247 . S
O405 C404 1.224 . S
N406 Co396 2.128 . S
N406 C407 1.355 . S
N406 C409 1.311 . S
C407 N406 1.355 . S
C407 C408 1.363 . S
C407 H419 0.929 . S
C408 C407 1.363 . S
C408 N410 1.375 . S
C408 H426 0.931 . S
C409 N406 1.311 . S
C409 N410 1.347 . S
C409 H420 0.929 . S
N410 C408 1.375 . S
N410 C409 1.347 . S
C411 C414 1.365 . S
C411 N416 1.328 . S
C411 H417 0.929 . S
C412 C413 1.362 . S
C412 C415 1.378 . S
C412 H427 0.929 . S
C413 C412 1.362 . S
C413 C414 1.366 . S
C414 C411 1.365 . S
C414 C413 1.366 . S
C414 H428 0.930 . S
C415 C412 1.378 . S
C415 N416 1.315 . S
C415 H418 0.930 . S
N416 Co396 2.194 . S
N416 C411 1.328 . S
N416 C415 1.315 . S
H417 C411 0.929 . S
H418 C415 0.930 . S
H419 C407 0.929 . S
H420 C409 0.929 . S
O421 Co396 2.351 . S
O421 C424 1.244 . S
O422 Co396 2.155 . S
O422 C424 1.240 . S
O423 Co396 2.096 . S
O423 C404 1.247 . S
C424 O421 1.244 . S
C424 O422 1.240 . S
H425 C399 0.931 . S
H426 C408 0.931 . S
H427 C412 0.929 . S
H428 C414 0.930 . S
Co429 N433 2.148 . S
Co429 N439 2.128 . S
Co429 N449 2.194 . S
Co429 O454 2.351 . S
Co429 O455 2.155 . S
Co429 O456 2.096 . S
C430 N433 1.301 . S
C430 N434 1.328 . S
C430 H435 0.930 . S
C431 C432 1.333 . S
C431 N433 1.317 . S
C431 H436 0.930 . S
C432 C431 1.333 . S
C432 N434 1.350 . S
C432 H458 0.931 . S
N433 Co429 2.148 . S
N433 C430 1.301 . S
N433 C431 1.317 . S
N434 C430 1.328 . S
N434 C432 1.350 . S
H435 C430 0.930 . S
H436 C431 0.930 . S
C437 O438 1.224 . S
C437 O456 1.247 . S
O438 C437 1.224 . S
N439 Co429 2.128 . S
N439 C440 1.355 . S
N439 C442 1.311 . S
C440 N439 1.355 . S
C440 C441 1.363 . S
C440 H452 0.929 . S
C441 C440 1.363 . S
C441 N443 1.375 . S
C441 H459 0.931 . S
C442 N439 1.311 . S
C442 N443 1.347 . S
C442 H453 0.929 . S
N443 C441 1.375 . S
N443 C442 1.347 . S
C444 C447 1.365 . S
C444 N449 1.328 . S
C444 H450 0.929 . S
C445 C446 1.362 . S
C445 C448 1.378 . S
C445 H460 0.929 . S
C446 C445 1.362 . S
C446 C447 1.366 . S
C447 C444 1.365 . S
C447 C446 1.366 . S
C447 H461 0.930 . S
C448 C445 1.378 . S
C448 N449 1.315 . S
C448 H451 0.930 . S
N449 Co429 2.194 . S
N449 C444 1.328 . S
N449 C448 1.315 . S
H450 C444 0.929 . S
H451 C448 0.930 . S
H452 C440 0.929 . S
H453 C442 0.929 . S
O454 Co429 2.351 . S
O454 C457 1.244 . S
O455 Co429 2.155 . S
O455 C457 1.240 . S
O456 Co429 2.096 . S
O456 C437 1.247 . S
C457 O454 1.244 . S
C457 O455 1.240 . S
H458 C432 0.931 . S
H459 C441 0.931 . S
H460 C445 0.929 . S
H461 C447 0.930 . S
Co462 N466 2.148 . S
Co462 N472 2.128 . S
Co462 N482 2.194 . S
Co462 O487 2.351 . S
Co462 O488 2.155 . S
Co462 O489 2.096 . S
C463 N466 1.301 . S
C463 N467 1.328 . S
C463 H468 0.930 . S
C464 C465 1.333 . S
C464 N466 1.317 . S
C464 H469 0.930 . S
C465 C464 1.333 . S
C465 N467 1.350 . S
C465 H491 0.931 . S
N466 Co462 2.148 . S
N466 C463 1.301 . S
N466 C464 1.317 . S
N467 C463 1.328 . S
N467 C465 1.350 . S
H468 C463 0.930 . S
H469 C464 0.930 . S
C470 O471 1.224 . S
C470 O489 1.247 . S
O471 C470 1.224 . S
N472 Co462 2.128 . S
N472 C473 1.355 . S
N472 C475 1.311 . S
C473 N472 1.355 . S
C473 C474 1.363 . S
C473 H485 0.929 . S
C474 C473 1.363 . S
C474 N476 1.375 . S
C474 H492 0.931 . S
C475 N472 1.311 . S
C475 N476 1.347 . S
C475 H486 0.929 . S
N476 C474 1.375 . S
N476 C475 1.347 . S
C477 C480 1.365 . S
C477 N482 1.328 . S
C477 H483 0.929 . S
C478 C479 1.362 . S
C478 C481 1.378 . S
C478 H493 0.929 . S
C479 C478 1.362 . S
C479 C480 1.366 . S
C480 C477 1.365 . S
C480 C479 1.366 . S
C480 H494 0.930 . S
C481 C478 1.378 . S
C481 N482 1.315 . S
C481 H484 0.930 . S
N482 Co462 2.194 . S
N482 C477 1.328 . S
N482 C481 1.315 . S
H483 C477 0.929 . S
H484 C481 0.930 . S
H485 C473 0.929 . S
H486 C475 0.929 . S
O487 Co462 2.351 . S
O487 C490 1.244 . S
O488 Co462 2.155 . S
O488 C490 1.240 . S
O489 Co462 2.096 . S
O489 C470 1.247 . S
C490 O487 1.244 . S
C490 O488 1.240 . S
H491 C465 0.931 . S
H492 C474 0.931 . S
H493 C478 0.929 . S
H494 C480 0.930 . S
Co495 N499 2.148 . S
Co495 N505 2.128 . S
Co495 N515 2.194 . S
Co495 O520 2.351 . S
Co495 O521 2.155 . S
Co495 O522 2.096 . S
C496 N499 1.301 . S
C496 N500 1.328 . S
C496 H501 0.930 . S
C497 C498 1.333 . S
C497 N499 1.317 . S
C497 H502 0.930 . S
C498 C497 1.333 . S
C498 N500 1.350 . S
C498 H524 0.931 . S
N499 Co495 2.148 . S
N499 C496 1.301 . S
N499 C497 1.317 . S
N500 C496 1.328 . S
N500 C498 1.350 . S
H501 C496 0.930 . S
H502 C497 0.930 . S
C503 O504 1.224 . S
C503 O522 1.247 . S
O504 C503 1.224 . S
N505 Co495 2.128 . S
N505 C506 1.355 . S
N505 C508 1.311 . S
C506 N505 1.355 . S
C506 C507 1.363 . S
C506 H518 0.929 . S
C507 C506 1.363 . S
C507 N509 1.375 . S
C507 H525 0.931 . S
C508 N505 1.311 . S
C508 N509 1.347 . S
C508 H519 0.929 . S
N509 C507 1.375 . S
N509 C508 1.347 . S
C510 C513 1.365 . S
C510 N515 1.328 . S
C510 H516 0.929 . S
C511 C512 1.362 . S
C511 C514 1.378 . S
C511 H526 0.929 . S
C512 C511 1.362 . S
C512 C513 1.366 . S
C513 C510 1.365 . S
C513 C512 1.366 . S
C513 H527 0.930 1_655 S
C514 C511 1.378 . S
C514 N515 1.315 . S
C514 H517 0.930 . S
N515 Co495 2.194 . S
N515 C510 1.328 . S
N515 C514 1.315 . S
H516 C510 0.929 . S
H517 C514 0.930 . S
H518 C506 0.929 . S
H519 C508 0.929 . S
O520 Co495 2.351 . S
O520 C523 1.244 . S
O521 Co495 2.155 . S
O521 C523 1.240 . S
O522 Co495 2.096 . S
O522 C503 1.247 . S
C523 O520 1.244 . S
C523 O521 1.240 . S
H524 C498 0.931 . S
H525 C507 0.931 . S
H526 C511 0.929 . S
H527 C513 0.930 1_455 S
Co528 N532 2.148 . S
Co528 N538 2.128 . S
Co528 N548 2.194 . S
Co528 O553 2.351 . S
Co528 O554 2.155 . S
Co528 O555 2.096 . S
C529 N532 1.301 . S
C529 N533 1.328 . S
C529 H534 0.930 . S
C530 C531 1.333 . S
C530 N532 1.317 . S
C530 H535 0.930 . S
C531 C530 1.333 . S
C531 N533 1.350 . S
C531 H557 0.931 . S
N532 Co528 2.148 . S
N532 C529 1.301 . S
N532 C530 1.317 . S
N533 C529 1.328 . S
N533 C531 1.350 . S
H534 C529 0.930 . S
H535 C530 0.930 . S
C536 O537 1.224 . S
C536 O555 1.247 . S
O537 C536 1.224 . S
N538 Co528 2.128 . S
N538 C539 1.355 . S
N538 C541 1.311 . S
C539 N538 1.355 . S
C539 C540 1.363 . S
C539 H551 0.929 . S
C540 C539 1.363 . S
C540 N542 1.375 . S
C540 H558 0.931 . S
C541 N538 1.311 . S
C541 N542 1.347 . S
C541 H552 0.929 . S
N542 C540 1.375 . S
N542 C541 1.347 . S
C543 C546 1.365 . S
C543 N548 1.328 . S
C543 H549 0.929 . S
C544 C545 1.362 . S
C544 C547 1.378 . S
C544 H559 0.929 . S
C545 C544 1.362 . S
C545 C546 1.366 . S
C546 C543 1.365 . S
C546 C545 1.366 . S
C546 H560 0.930 . S
C547 C544 1.378 . S
C547 N548 1.315 . S
C547 H550 0.930 . S
N548 Co528 2.194 . S
N548 C543 1.328 . S
N548 C547 1.315 . S
H549 C543 0.929 . S
H550 C547 0.930 . S
H551 C539 0.929 . S
H552 C541 0.929 . S
O553 Co528 2.351 . S
O553 C556 1.244 . S
O554 Co528 2.155 . S
O554 C556 1.240 . S
O555 Co528 2.096 . S
O555 C536 1.247 . S
C556 O553 1.244 . S
C556 O554 1.240 . S
H557 C531 0.931 . S
H558 C540 0.931 . S
H559 C544 0.929 . S
H560 C546 0.930 . S
Co561 N565 2.148 . S
Co561 N571 2.128 . S
Co561 N581 2.194 . S
Co561 O586 2.351 . S
Co561 O587 2.155 . S
Co561 O588 2.096 . S
C562 N565 1.301 . S
C562 N566 1.328 . S
C562 H567 0.930 . S
C563 C564 1.333 . S
C563 N565 1.317 . S
C563 H568 0.930 . S
C564 C563 1.333 . S
C564 N566 1.350 . S
C564 H590 0.931 . S
N565 Co561 2.148 . S
N565 C562 1.301 . S
N565 C563 1.317 . S
N566 C562 1.328 . S
N566 C564 1.350 . S
H567 C562 0.930 . S
H568 C563 0.930 . S
C569 O570 1.224 . S
C569 O588 1.247 . S
O570 C569 1.224 . S
N571 Co561 2.128 . S
N571 C572 1.355 . S
N571 C574 1.311 . S
C572 N571 1.355 . S
C572 C573 1.363 . S
C572 H584 0.929 . S
C573 C572 1.363 . S
C573 N575 1.375 . S
C573 H591 0.931 . S
C574 N571 1.311 . S
C574 N575 1.347 . S
C574 H585 0.929 . S
N575 C573 1.375 . S
N575 C574 1.347 . S
C576 C579 1.365 . S
C576 N581 1.328 . S
C576 H582 0.929 . S
C577 C578 1.362 . S
C577 C580 1.378 . S
C577 H592 0.929 . S
C578 C577 1.362 . S
C578 C579 1.366 . S
C579 C576 1.365 . S
C579 C578 1.366 . S
C579 H593 0.930 1_545 S
C580 C577 1.378 . S
C580 N581 1.315 . S
C580 H583 0.930 . S
N581 Co561 2.194 . S
N581 C576 1.328 . S
N581 C580 1.315 . S
H582 C576 0.929 . S
H583 C580 0.930 . S
H584 C572 0.929 . S
H585 C574 0.929 . S
O586 Co561 2.351 . S
O586 C589 1.244 . S
O587 Co561 2.155 . S
O587 C589 1.240 . S
O588 Co561 2.096 . S
O588 C569 1.247 . S
C589 O586 1.244 . S
C589 O587 1.240 . S
H590 C564 0.931 . S
H591 C573 0.931 . S
H592 C577 0.929 . S
H593 C579 0.930 1_565 S
Co594 N598 2.148 . S
Co594 N604 2.128 . S
Co594 N614 2.194 . S
Co594 O619 2.351 . S
Co594 O620 2.155 . S
Co594 O621 2.096 . S
C595 N598 1.301 . S
C595 N599 1.328 . S
C595 H600 0.930 . S
C596 C597 1.333 . S
C596 N598 1.317 . S
C596 H601 0.930 . S
C597 C596 1.333 . S
C597 N599 1.350 . S
C597 H623 0.931 . S
N598 Co594 2.148 . S
N598 C595 1.301 . S
N598 C596 1.317 . S
N599 C595 1.328 . S
N599 C597 1.350 . S
H600 C595 0.930 . S
H601 C596 0.930 . S
C602 O603 1.224 . S
C602 O621 1.247 . S
O603 C602 1.224 . S
N604 Co594 2.128 . S
N604 C605 1.355 . S
N604 C607 1.311 . S
C605 N604 1.355 . S
C605 C606 1.363 . S
C605 H617 0.929 . S
C606 C605 1.363 . S
C606 N608 1.375 . S
C606 H624 0.931 . S
C607 N604 1.311 . S
C607 N608 1.347 . S
C607 H618 0.929 . S
N608 C606 1.375 . S
N608 C607 1.347 . S
C609 C612 1.365 . S
C609 N614 1.328 . S
C609 H615 0.929 . S
C610 C611 1.362 . S
C610 C613 1.378 . S
C610 H625 0.929 . S
C611 C610 1.362 . S
C611 C612 1.366 . S
C612 C609 1.365 . S
C612 C611 1.366 . S
C612 H626 0.930 1_545 S
C613 C610 1.378 . S
C613 N614 1.315 . S
C613 H616 0.930 . S
N614 Co594 2.194 . S
N614 C609 1.328 . S
N614 C613 1.315 . S
H615 C609 0.929 . S
H616 C613 0.930 . S
H617 C605 0.929 . S
H618 C607 0.929 . S
O619 Co594 2.351 . S
O619 C622 1.244 . S
O620 Co594 2.155 . S
O620 C622 1.240 . S
O621 Co594 2.096 . S
O621 C602 1.247 . S
C622 O619 1.244 . S
C622 O620 1.240 . S
H623 C597 0.931 . S
H624 C606 0.931 . S
H625 C610 0.929 . S
H626 C612 0.930 1_565 S
Co627 N631 2.148 . S
Co627 N637 2.128 . S
Co627 N647 2.194 . S
Co627 O652 2.351 . S
Co627 O653 2.155 . S
Co627 O654 2.096 . S
C628 N631 1.301 . S
C628 N632 1.328 . S
C628 H633 0.930 . S
C629 C630 1.333 . S
C629 N631 1.317 . S
C629 H634 0.930 . S
C630 C629 1.333 . S
C630 N632 1.350 . S
C630 H656 0.931 . S
N631 Co627 2.148 . S
N631 C628 1.301 . S
N631 C629 1.317 . S
N632 C628 1.328 . S
N632 C630 1.350 . S
H633 C628 0.930 . S
H634 C629 0.930 . S
C635 O636 1.224 . S
C635 O654 1.247 . S
O636 C635 1.224 . S
N637 Co627 2.128 . S
N637 C638 1.355 . S
N637 C640 1.311 . S
C638 N637 1.355 . S
C638 C639 1.363 . S
C638 H650 0.929 . S
C639 C638 1.363 . S
C639 N641 1.375 . S
C639 H657 0.931 . S
C640 N637 1.311 . S
C640 N641 1.347 . S
C640 H651 0.929 . S
N641 C639 1.375 . S
N641 C640 1.347 . S
C642 C645 1.365 . S
C642 N647 1.328 . S
C642 H648 0.929 . S
C643 C644 1.362 . S
C643 C646 1.378 . S
C643 H658 0.929 . S
C644 C643 1.362 . S
C644 C645 1.366 . S
C645 C642 1.365 . S
C645 C644 1.366 . S
C645 H659 0.930 1_655 S
C646 C643 1.378 . S
C646 N647 1.315 . S
C646 H649 0.930 . S
N647 Co627 2.194 . S
N647 C642 1.328 . S
N647 C646 1.315 . S
H648 C642 0.929 . S
H649 C646 0.930 . S
H650 C638 0.929 . S
H651 C640 0.929 . S
O652 Co627 2.351 . S
O652 C655 1.244 . S
O653 Co627 2.155 . S
O653 C655 1.240 . S
O654 Co627 2.096 . S
O654 C635 1.247 . S
C655 O652 1.244 . S
C655 O653 1.240 . S
H656 C630 0.931 . S
H657 C639 0.931 . S
H658 C643 0.929 . S
H659 C645 0.930 1_455 S
Co660 N664 2.148 . S
Co660 N670 2.128 . S
Co660 N680 2.194 . S
Co660 O685 2.351 . S
Co660 O686 2.155 . S
Co660 O687 2.096 . S
C661 N664 1.301 . S
C661 N665 1.328 . S
C661 H666 0.930 . S
C662 C663 1.333 . S
C662 N664 1.317 . S
C662 H667 0.930 . S
C663 C662 1.333 . S
C663 N665 1.350 . S
C663 H689 0.931 . S
N664 Co660 2.148 . S
N664 C661 1.301 . S
N664 C662 1.317 . S
N665 C661 1.328 . S
N665 C663 1.350 . S
H666 C661 0.930 . S
H667 C662 0.930 . S
C668 O669 1.224 . S
C668 O687 1.247 . S
O669 C668 1.224 . S
N670 Co660 2.128 . S
N670 C671 1.355 . S
N670 C673 1.311 . S
C671 N670 1.355 . S
C671 C672 1.363 . S
C671 H683 0.929 . S
C672 C671 1.363 . S
C672 N674 1.375 . S
C672 H690 0.931 . S
C673 N670 1.311 . S
C673 N674 1.347 . S
C673 H684 0.929 . S
N674 C672 1.375 . S
N674 C673 1.347 . S
C675 C678 1.365 . S
C675 N680 1.328 . S
C675 H681 0.929 . S
C676 C677 1.362 . S
C676 C679 1.378 . S
C676 H691 0.929 . S
C677 C676 1.362 . S
C677 C678 1.366 . S
C678 C675 1.365 . S
C678 C677 1.366 . S
C678 H692 0.930 . S
C679 C676 1.378 . S
C679 N680 1.315 . S
C679 H682 0.930 . S
N680 Co660 2.194 . S
N680 C675 1.328 . S
N680 C679 1.315 . S
H681 C675 0.929 . S
H682 C679 0.930 . S
H683 C671 0.929 . S
H684 C673 0.929 . S
O685 Co660 2.351 . S
O685 C688 1.244 . S
O686 Co660 2.155 . S
O686 C688 1.240 . S
O687 Co660 2.096 . S
O687 C668 1.247 . S
C688 O685 1.244 . S
C688 O686 1.240 . S
H689 C663 0.931 . S
H690 C672 0.931 . S
H691 C676 0.929 . S
H692 C678 0.930 . S
Co693 N697 2.148 . S
Co693 N703 2.128 . S
Co693 N713 2.194 . S
Co693 O718 2.351 1_556 S
Co693 O719 2.155 1_556 S
Co693 O720 2.096 . S
C694 N697 1.301 1_554 S
C694 N698 1.328 . S
C694 H699 0.930 . S
C695 C696 1.333 . S
C695 N697 1.317 . S
C695 H700 0.930 . S
C696 C695 1.333 . S
C696 N698 1.350 1_556 S
C696 H722 0.931 . S
N697 Co693 2.148 . S
N697 C694 1.301 1_556 S
N697 C695 1.317 . S
N698 C694 1.328 . S
N698 C696 1.350 1_554 S
H699 C694 0.930 . S
H700 C695 0.930 . S
C701 O702 1.224 . S
C701 O720 1.247 . S
O702 C701 1.224 . S
N703 Co693 2.128 . S
N703 C704 1.355 . S
N703 C706 1.311 . S
C704 N703 1.355 . S
C704 C705 1.363 . S
C704 H716 0.929 . S
C705 C704 1.363 . S
C705 N707 1.375 . S
C705 H723 0.931 . S
C706 N703 1.311 . S
C706 N707 1.347 . S
C706 H717 0.929 . S
N707 C705 1.375 . S
N707 C706 1.347 . S
C708 C711 1.365 . S
C708 N713 1.328 . S
C708 H714 0.929 . S
C709 C710 1.362 . S
C709 C712 1.378 . S
C709 H724 0.929 . S
C710 C709 1.362 . S
C710 C711 1.366 . S
C711 C708 1.365 . S
C711 C710 1.366 . S
C711 H725 0.930 . S
C712 C709 1.378 . S
C712 N713 1.315 . S
C712 H715 0.930 . S
N713 Co693 2.194 . S
N713 C708 1.328 . S
N713 C712 1.315 . S
H714 C708 0.929 . S
H715 C712 0.930 . S
H716 C704 0.929 . S
H717 C706 0.929 . S
O718 Co693 2.351 1_554 S
O718 C721 1.244 . S
O719 Co693 2.155 1_554 S
O719 C721 1.240 . S
O720 Co693 2.096 . S
O720 C701 1.247 . S
C721 O718 1.244 . S
C721 O719 1.240 . S
H722 C696 0.931 . S
H723 C705 0.931 . S
H724 C709 0.929 . S
H725 C711 0.930 . S
Co726 N730 2.148 . S
Co726 N736 2.128 . S
Co726 N746 2.194 . S
Co726 O751 2.351 1_556 S
Co726 O752 2.155 1_556 S
Co726 O753 2.096 . S
C727 N730 1.301 1_554 S
C727 N731 1.328 . S
C727 H732 0.930 . S
C728 C729 1.333 . S
C728 N730 1.317 . S
C728 H733 0.930 . S
C729 C728 1.333 . S
C729 N731 1.350 1_556 S
C729 H755 0.931 . S
N730 Co726 2.148 . S
N730 C727 1.301 1_556 S
N730 C728 1.317 . S
N731 C727 1.328 . S
N731 C729 1.350 1_554 S
H732 C727 0.930 . S
H733 C728 0.930 . S
C734 O735 1.224 . S
C734 O753 1.247 . S
O735 C734 1.224 . S
N736 Co726 2.128 . S
N736 C737 1.355 . S
N736 C739 1.311 . S
C737 N736 1.355 . S
C737 C738 1.363 . S
C737 H749 0.929 . S
C738 C737 1.363 . S
C738 N740 1.375 . S
C738 H756 0.931 . S
C739 N736 1.311 . S
C739 N740 1.347 . S
C739 H750 0.929 . S
N740 C738 1.375 . S
N740 C739 1.347 . S
C741 C744 1.365 . S
C741 N746 1.328 . S
C741 H747 0.929 . S
C742 C743 1.362 . S
C742 C745 1.378 . S
C742 H757 0.929 . S
C743 C742 1.362 . S
C743 C744 1.366 . S
C744 C741 1.365 . S
C744 C743 1.366 . S
C744 H758 0.930 . S
C745 C742 1.378 . S
C745 N746 1.315 . S
C745 H748 0.930 . S
N746 Co726 2.194 . S
N746 C741 1.328 . S
N746 C745 1.315 . S
H747 C741 0.929 . S
H748 C745 0.930 . S
H749 C737 0.929 . S
H750 C739 0.929 . S
O751 Co726 2.351 1_554 S
O751 C754 1.244 . S
O752 Co726 2.155 1_554 S
O752 C754 1.240 . S
O753 Co726 2.096 . S
O753 C734 1.247 . S
C754 O751 1.244 . S
C754 O752 1.240 . S
H755 C729 0.931 . S
H756 C738 0.931 . S
H757 C742 0.929 . S
H758 C744 0.930 . S
Co759 N763 2.148 . S
Co759 N769 2.128 . S
Co759 N779 2.194 . S
Co759 O784 2.351 1_556 S
Co759 O785 2.155 1_556 S
Co759 O786 2.096 . S
C760 N763 1.301 1_554 S
C760 N764 1.328 . S
C760 H765 0.930 . S
C761 C762 1.333 . S
C761 N763 1.317 . S
C761 H766 0.930 . S
C762 C761 1.333 . S
C762 N764 1.350 1_556 S
C762 H788 0.931 . S
N763 Co759 2.148 . S
N763 C760 1.301 1_556 S
N763 C761 1.317 . S
N764 C760 1.328 . S
N764 C762 1.350 1_554 S
H765 C760 0.930 . S
H766 C761 0.930 . S
C767 O768 1.224 . S
C767 O786 1.247 . S
O768 C767 1.224 . S
N769 Co759 2.128 . S
N769 C770 1.355 . S
N769 C772 1.311 . S
C770 N769 1.355 . S
C770 C771 1.363 . S
C770 H782 0.929 . S
C771 C770 1.363 . S
C771 N773 1.375 . S
C771 H789 0.931 . S
C772 N769 1.311 . S
C772 N773 1.347 . S
C772 H783 0.929 . S
N773 C771 1.375 . S
N773 C772 1.347 . S
C774 C777 1.365 . S
C774 N779 1.328 . S
C774 H780 0.929 . S
C775 C776 1.362 . S
C775 C778 1.378 . S
C775 H790 0.929 . S
C776 C775 1.362 . S
C776 C777 1.366 . S
C777 C774 1.365 . S
C777 C776 1.366 . S
C777 H791 0.930 . S
C778 C775 1.378 . S
C778 N779 1.315 . S
C778 H781 0.930 . S
N779 Co759 2.194 . S
N779 C774 1.328 . S
N779 C778 1.315 . S
H780 C774 0.929 . S
H781 C778 0.930 . S
H782 C770 0.929 . S
H783 C772 0.929 . S
O784 Co759 2.351 1_554 S
O784 C787 1.244 . S
O785 Co759 2.155 1_554 S
O785 C787 1.240 . S
O786 Co759 2.096 . S
O786 C767 1.247 . S
C787 O784 1.244 . S
C787 O785 1.240 . S
H788 C762 0.931 . S
H789 C771 0.931 . S
H790 C775 0.929 . S
H791 C777 0.930 . S
Co792 N796 2.148 . S
Co792 N802 2.128 . S
Co792 N812 2.194 . S
Co792 O817 2.351 . S
Co792 O818 2.155 . S
Co792 O819 2.096 . S
C793 N796 1.301 . S
C793 N797 1.328 . S
C793 H798 0.930 . S
C794 C795 1.333 . S
C794 N796 1.317 . S
C794 H799 0.930 . S
C795 C794 1.333 . S
C795 N797 1.350 . S
C795 H821 0.931 . S
N796 Co792 2.148 . S
N796 C793 1.301 . S
N796 C794 1.317 . S
N797 C793 1.328 . S
N797 C795 1.350 . S
H798 C793 0.930 . S
H799 C794 0.930 . S
C800 O801 1.224 . S
C800 O819 1.247 . S
O801 C800 1.224 . S
N802 Co792 2.128 . S
N802 C803 1.355 . S
N802 C805 1.311 . S
C803 N802 1.355 . S
C803 C804 1.363 . S
C803 H815 0.929 . S
C804 C803 1.363 . S
C804 N806 1.375 . S
C804 H822 0.931 . S
C805 N802 1.311 . S
C805 N806 1.347 . S
C805 H816 0.929 . S
N806 C804 1.375 . S
N806 C805 1.347 . S
C807 C810 1.365 . S
C807 N812 1.328 . S
C807 H813 0.929 . S
C808 C809 1.362 . S
C808 C811 1.378 . S
C808 H823 0.929 . S
C809 C808 1.362 . S
C809 C810 1.366 . S
C810 C807 1.365 . S
C810 C809 1.366 . S
C810 H824 0.930 1_565 S
C811 C808 1.378 . S
C811 N812 1.315 . S
C811 H814 0.930 . S
N812 Co792 2.194 . S
N812 C807 1.328 . S
N812 C811 1.315 . S
H813 C807 0.929 . S
H814 C811 0.930 . S
H815 C803 0.929 . S
H816 C805 0.929 . S
O817 Co792 2.351 . S
O817 C820 1.244 . S
O818 Co792 2.155 . S
O818 C820 1.240 . S
O819 Co792 2.096 . S
O819 C800 1.247 . S
C820 O817 1.244 . S
C820 O818 1.240 . S
H821 C795 0.931 . S
H822 C804 0.931 . S
H823 C808 0.929 . S
H824 C810 0.930 1_545 S
Co825 N829 2.148 . S
Co825 N835 2.128 . S
Co825 N845 2.194 . S
Co825 O850 2.351 . S
Co825 O851 2.155 . S
Co825 O852 2.096 . S
C826 N829 1.301 . S
C826 N830 1.328 . S
C826 H831 0.930 . S
C827 C828 1.333 . S
C827 N829 1.317 . S
C827 H832 0.930 . S
C828 C827 1.333 . S
C828 N830 1.350 . S
C828 H854 0.931 . S
N829 Co825 2.148 . S
N829 C826 1.301 . S
N829 C827 1.317 . S
N830 C826 1.328 . S
N830 C828 1.350 . S
H831 C826 0.930 . S
H832 C827 0.930 . S
C833 O834 1.224 . S
C833 O852 1.247 . S
O834 C833 1.224 . S
N835 Co825 2.128 . S
N835 C836 1.355 . S
N835 C838 1.311 . S
C836 N835 1.355 . S
C836 C837 1.363 . S
C836 H848 0.929 . S
C837 C836 1.363 . S
C837 N839 1.375 . S
C837 H855 0.931 . S
C838 N835 1.311 . S
C838 N839 1.347 . S
C838 H849 0.929 . S
N839 C837 1.375 . S
N839 C838 1.347 . S
C840 C843 1.365 . S
C840 N845 1.328 . S
C840 H846 0.929 . S
C841 C842 1.362 . S
C841 C844 1.378 . S
C841 H856 0.929 . S
C842 C841 1.362 . S
C842 C843 1.366 . S
C843 C840 1.365 . S
C843 C842 1.366 . S
C843 H857 0.930 1_455 S
C844 C841 1.378 . S
C844 N845 1.315 . S
C844 H847 0.930 . S
N845 Co825 2.194 . S
N845 C840 1.328 . S
N845 C844 1.315 . S
H846 C840 0.929 . S
H847 C844 0.930 . S
H848 C836 0.929 . S
H849 C838 0.929 . S
O850 Co825 2.351 . S
O850 C853 1.244 . S
O851 Co825 2.155 . S
O851 C853 1.240 . S
O852 Co825 2.096 . S
O852 C833 1.247 . S
C853 O850 1.244 . S
C853 O851 1.240 . S
H854 C828 0.931 . S
H855 C837 0.931 . S
H856 C841 0.929 . S
H857 C843 0.930 1_655 S
Co858 N862 2.148 . S
Co858 N868 2.128 . S
Co858 N878 2.194 . S
Co858 O883 2.351 . S
Co858 O884 2.155 . S
Co858 O885 2.096 . S
C859 N862 1.301 . S
C859 N863 1.328 . S
C859 H864 0.930 . S
C860 C861 1.333 . S
C860 N862 1.317 . S
C860 H865 0.930 . S
C861 C860 1.333 . S
C861 N863 1.350 . S
C861 H887 0.931 . S
N862 Co858 2.148 . S
N862 C859 1.301 . S
N862 C860 1.317 . S
N863 C859 1.328 . S
N863 C861 1.350 . S
H864 C859 0.930 . S
H865 C860 0.930 . S
C866 O867 1.224 . S
C866 O885 1.247 . S
O867 C866 1.224 . S
N868 Co858 2.128 . S
N868 C869 1.355 . S
N868 C871 1.311 . S
C869 N868 1.355 . S
C869 C870 1.363 . S
C869 H881 0.929 . S
C870 C869 1.363 . S
C870 N872 1.375 . S
C870 H888 0.931 . S
C871 N868 1.311 . S
C871 N872 1.347 . S
C871 H882 0.929 . S
N872 C870 1.375 . S
N872 C871 1.347 . S
C873 C876 1.365 . S
C873 N878 1.328 . S
C873 H879 0.929 . S
C874 C875 1.362 . S
C874 C877 1.378 . S
C874 H889 0.929 . S
C875 C874 1.362 . S
C875 C876 1.366 . S
C876 C873 1.365 . S
C876 C875 1.366 . S
C876 H890 0.930 . S
C877 C874 1.378 . S
C877 N878 1.315 . S
C877 H880 0.930 . S
N878 Co858 2.194 . S
N878 C873 1.328 . S
N878 C877 1.315 . S
H879 C873 0.929 . S
H880 C877 0.930 . S
H881 C869 0.929 . S
H882 C871 0.929 . S
O883 Co858 2.351 . S
O883 C886 1.244 . S
O884 Co858 2.155 . S
O884 C886 1.240 . S
O885 Co858 2.096 . S
O885 C866 1.247 . S
C886 O883 1.244 . S
C886 O884 1.240 . S
H887 C861 0.931 . S
H888 C870 0.931 . S
H889 C874 0.929 . S
H890 C876 0.930 . S
Co891 N895 2.148 . S
Co891 N901 2.128 . S
Co891 N911 2.194 . S
Co891 O916 2.351 1_554 S
Co891 O917 2.155 1_554 S
Co891 O918 2.096 . S
C892 N895 1.301 1_556 S
C892 N896 1.328 . S
C892 H897 0.930 . S
C893 C894 1.333 . S
C893 N895 1.317 . S
C893 H898 0.930 . S
C894 C893 1.333 . S
C894 N896 1.350 1_554 S
C894 H920 0.931 . S
N895 Co891 2.148 . S
N895 C892 1.301 1_554 S
N895 C893 1.317 . S
N896 C892 1.328 . S
N896 C894 1.350 1_556 S
H897 C892 0.930 . S
H898 C893 0.930 . S
C899 O900 1.224 . S
C899 O918 1.247 . S
O900 C899 1.224 . S
N901 Co891 2.128 . S
N901 C902 1.355 . S
N901 C904 1.311 . S
C902 N901 1.355 . S
C902 C903 1.363 . S
C902 H914 0.929 . S
C903 C902 1.363 . S
C903 N905 1.375 . S
C903 H921 0.931 . S
C904 N901 1.311 . S
C904 N905 1.347 . S
C904 H915 0.929 . S
N905 C903 1.375 . S
N905 C904 1.347 . S
C906 C909 1.365 . S
C906 N911 1.328 . S
C906 H912 0.929 . S
C907 C908 1.362 . S
C907 C910 1.378 . S
C907 H922 0.929 . S
C908 C907 1.362 . S
C908 C909 1.366 . S
C909 C906 1.365 . S
C909 C908 1.366 . S
C909 H923 0.930 . S
C910 C907 1.378 . S
C910 N911 1.315 . S
C910 H913 0.930 . S
N911 Co891 2.194 . S
N911 C906 1.328 . S
N911 C910 1.315 . S
H912 C906 0.929 . S
H913 C910 0.930 . S
H914 C902 0.929 . S
H915 C904 0.929 . S
O916 Co891 2.351 1_556 S
O916 C919 1.244 . S
O917 Co891 2.155 1_556 S
O917 C919 1.240 . S
O918 Co891 2.096 . S
O918 C899 1.247 . S
C919 O916 1.244 . S
C919 O917 1.240 . S
H920 C894 0.931 . S
H921 C903 0.931 . S
H922 C907 0.929 . S
H923 C909 0.930 . S
Co924 N928 2.148 . S
Co924 N934 2.128 . S
Co924 N944 2.194 . S
Co924 O949 2.351 1_554 S
Co924 O950 2.155 1_554 S
Co924 O951 2.096 . S
C925 N928 1.301 1_556 S
C925 N929 1.328 . S
C925 H930 0.930 . S
C926 C927 1.333 . S
C926 N928 1.317 . S
C926 H931 0.930 . S
C927 C926 1.333 . S
C927 N929 1.350 1_554 S
C927 H953 0.931 . S
N928 Co924 2.148 . S
N928 C925 1.301 1_554 S
N928 C926 1.317 . S
N929 C925 1.328 . S
N929 C927 1.350 1_556 S
H930 C925 0.930 . S
H931 C926 0.930 . S
C932 O933 1.224 . S
C932 O951 1.247 . S
O933 C932 1.224 . S
N934 Co924 2.128 . S
N934 C935 1.355 . S
N934 C937 1.311 . S
C935 N934 1.355 . S
C935 C936 1.363 . S
C935 H947 0.929 . S
C936 C935 1.363 . S
C936 N938 1.375 . S
C936 H954 0.931 . S
C937 N934 1.311 . S
C937 N938 1.347 . S
C937 H948 0.929 . S
N938 C936 1.375 . S
N938 C937 1.347 . S
C939 C942 1.365 . S
C939 N944 1.328 . S
C939 H945 0.929 . S
C940 C941 1.362 . S
C940 C943 1.378 . S
C940 H955 0.929 . S
C941 C940 1.362 . S
C941 C942 1.366 . S
C942 C939 1.365 . S
C942 C941 1.366 . S
C942 H956 0.930 . S
C943 C940 1.378 . S
C943 N944 1.315 . S
C943 H946 0.930 . S
N944 Co924 2.194 . S
N944 C939 1.328 . S
N944 C943 1.315 . S
H945 C939 0.929 . S
H946 C943 0.930 . S
H947 C935 0.929 . S
H948 C937 0.929 . S
O949 Co924 2.351 1_556 S
O949 C952 1.244 . S
O950 Co924 2.155 1_556 S
O950 C952 1.240 . S
O951 Co924 2.096 . S
O951 C932 1.247 . S
C952 O949 1.244 . S
C952 O950 1.240 . S
H953 C927 0.931 . S
H954 C936 0.931 . S
H955 C940 0.929 . S
H956 C942 0.930 . S
Co957 N961 2.148 . S
Co957 N967 2.128 . S
Co957 N977 2.194 . S
Co957 O982 2.351 1_554 S
Co957 O983 2.155 1_554 S
Co957 O984 2.096 . S
C958 N961 1.301 1_556 S
C958 N962 1.328 . S
C958 H963 0.930 . S
C959 C960 1.333 . S
C959 N961 1.317 . S
C959 H964 0.930 . S
C960 C959 1.333 . S
C960 N962 1.350 1_554 S
C960 H986 0.931 . S
N961 Co957 2.148 . S
N961 C958 1.301 1_554 S
N961 C959 1.317 . S
N962 C958 1.328 . S
N962 C960 1.350 1_556 S
H963 C958 0.930 . S
H964 C959 0.930 . S
C965 O966 1.224 . S
C965 O984 1.247 . S
O966 C965 1.224 . S
N967 Co957 2.128 . S
N967 C968 1.355 . S
N967 C970 1.311 . S
C968 N967 1.355 . S
C968 C969 1.363 . S
C968 H980 0.929 . S
C969 C968 1.363 . S
C969 N971 1.375 . S
C969 H987 0.931 . S
C970 N967 1.311 . S
C970 N971 1.347 . S
C970 H981 0.929 . S
N971 C969 1.375 . S
N971 C970 1.347 . S
C972 C975 1.365 . S
C972 N977 1.328 . S
C972 H978 0.929 . S
C973 C974 1.362 . S
C973 C976 1.378 . S
C973 H988 0.929 . S
C974 C973 1.362 . S
C974 C975 1.366 . S
C975 C972 1.365 . S
C975 C974 1.366 . S
C975 H989 0.930 . S
C976 C973 1.378 . S
C976 N977 1.315 . S
C976 H979 0.930 . S
N977 Co957 2.194 . S
N977 C972 1.328 . S
N977 C976 1.315 . S
H978 C972 0.929 . S
H979 C976 0.930 . S
H980 C968 0.929 . S
H981 C970 0.929 . S
O982 Co957 2.351 1_556 S
O982 C985 1.244 . S
O983 Co957 2.155 1_556 S
O983 C985 1.240 . S
O984 Co957 2.096 . S
O984 C965 1.247 . S
C985 O982 1.244 . S
C985 O983 1.240 . S
H986 C960 0.931 . S
H987 C969 0.931 . S
H988 C973 0.929 . S
H989 C975 0.930 . S
Co990 N994 2.148 . S
Co990 N1000 2.128 . S
Co990 N1010 2.194 . S
Co990 O1015 2.351 . S
Co990 O1016 2.155 . S
Co990 O1017 2.096 . S
C991 N994 1.301 . S
C991 N995 1.328 . S
C991 H996 0.930 . S
C992 C993 1.333 . S
C992 N994 1.317 . S
C992 H997 0.930 . S
C993 C992 1.333 . S
C993 N995 1.350 . S
C993 H1019 0.931 . S
N994 Co990 2.148 . S
N994 C991 1.301 . S
N994 C992 1.317 . S
N995 C991 1.328 . S
N995 C993 1.350 . S
H996 C991 0.930 . S
H997 C992 0.930 . S
C998 O999 1.224 . S
C998 O1017 1.247 . S
O999 C998 1.224 . S
N1000 Co990 2.128 . S
N1000 C1001 1.355 . S
N1000 C1003 1.311 . S
C1001 N1000 1.355 . S
C1001 C1002 1.363 . S
C1001 H1013 0.929 . S
C1002 C1001 1.363 . S
C1002 N1004 1.375 . S
C1002 H1020 0.931 . S
C1003 N1000 1.311 . S
C1003 N1004 1.347 . S
C1003 H1014 0.929 . S
N1004 C1002 1.375 . S
N1004 C1003 1.347 . S
C1005 C1008 1.365 . S
C1005 N1010 1.328 . S
C1005 H1011 0.929 . S
C1006 C1007 1.362 . S
C1006 C1009 1.378 . S
C1006 H1021 0.929 . S
C1007 C1006 1.362 . S
C1007 C1008 1.366 . S
C1008 C1005 1.365 . S
C1008 C1007 1.366 . S
C1008 H1022 0.930 . S
C1009 C1006 1.378 . S
C1009 N1010 1.315 . S
C1009 H1012 0.930 . S
N1010 Co990 2.194 . S
N1010 C1005 1.328 . S
N1010 C1009 1.315 . S
H1011 C1005 0.929 . S
H1012 C1009 0.930 . S
H1013 C1001 0.929 . S
H1014 C1003 0.929 . S
O1015 Co990 2.351 . S
O1015 C1018 1.244 . S
O1016 Co990 2.155 . S
O1016 C1018 1.240 . S
O1017 Co990 2.096 . S
O1017 C998 1.247 . S
C1018 O1015 1.244 . S
C1018 O1016 1.240 . S
H1019 C993 0.931 . S
H1020 C1002 0.931 . S
H1021 C1006 0.929 . S
H1022 C1008 0.930 . S
Co1023 N1027 2.148 . S
Co1023 N1033 2.128 . S
Co1023 N1043 2.194 . S
Co1023 O1048 2.351 . S
Co1023 O1049 2.155 . S
Co1023 O1050 2.096 . S
C1024 N1027 1.301 . S
C1024 N1028 1.328 . S
C1024 H1029 0.930 . S
C1025 C1026 1.333 . S
C1025 N1027 1.317 . S
C1025 H1030 0.930 . S
C1026 C1025 1.333 . S
C1026 N1028 1.350 . S
C1026 H1052 0.931 . S
N1027 Co1023 2.148 . S
N1027 C1024 1.301 . S
N1027 C1025 1.317 . S
N1028 C1024 1.328 . S
N1028 C1026 1.350 . S
H1029 C1024 0.930 . S
H1030 C1025 0.930 . S
C1031 O1032 1.224 . S
C1031 O1050 1.247 . S
O1032 C1031 1.224 . S
N1033 Co1023 2.128 . S
N1033 C1034 1.355 . S
N1033 C1036 1.311 . S
C1034 N1033 1.355 . S
C1034 C1035 1.363 . S
C1034 H1046 0.929 . S
C1035 C1034 1.363 . S
C1035 N1037 1.375 . S
C1035 H1053 0.931 . S
C1036 N1033 1.311 . S
C1036 N1037 1.347 . S
C1036 H1047 0.929 . S
N1037 C1035 1.375 . S
N1037 C1036 1.347 . S
C1038 C1041 1.365 . S
C1038 N1043 1.328 . S
C1038 H1044 0.929 . S
C1039 C1040 1.362 . S
C1039 C1042 1.378 . S
C1039 H1054 0.929 . S
C1040 C1039 1.362 . S
C1040 C1041 1.366 . S
C1041 C1038 1.365 . S
C1041 C1040 1.366 . S
C1041 H1055 0.930 . S
C1042 C1039 1.378 . S
C1042 N1043 1.315 . S
C1042 H1045 0.930 . S
N1043 Co1023 2.194 . S
N1043 C1038 1.328 . S
N1043 C1042 1.315 . S
H1044 C1038 0.929 . S
H1045 C1042 0.930 . S
H1046 C1034 0.929 . S
H1047 C1036 0.929 . S
O1048 Co1023 2.351 . S
O1048 C1051 1.244 . S
O1049 Co1023 2.155 . S
O1049 C1051 1.240 . S
O1050 Co1023 2.096 . S
O1050 C1031 1.247 . S
C1051 O1048 1.244 . S
C1051 O1049 1.240 . S
H1052 C1026 0.931 . S
H1053 C1035 0.931 . S
H1054 C1039 0.929 . S
H1055 C1041 0.930 . S
Co1056 N1060 2.148 . S
Co1056 N1066 2.128 . S
Co1056 N1076 2.194 . S
Co1056 O1081 2.351 . S
Co1056 O1082 2.155 . S
Co1056 O1083 2.096 . S
C1057 N1060 1.301 . S
C1057 N1061 1.328 . S
C1057 H1062 0.930 . S
C1058 C1059 1.333 . S
C1058 N1060 1.317 . S
C1058 H1063 0.930 . S
C1059 C1058 1.333 . S
C1059 N1061 1.350 . S
C1059 H1085 0.931 . S
N1060 Co1056 2.148 . S
N1060 C1057 1.301 . S
N1060 C1058 1.317 . S
N1061 C1057 1.328 . S
N1061 C1059 1.350 . S
H1062 C1057 0.930 . S
H1063 C1058 0.930 . S
C1064 O1065 1.224 . S
C1064 O1083 1.247 . S
O1065 C1064 1.224 . S
N1066 Co1056 2.128 . S
N1066 C1067 1.355 . S
N1066 C1069 1.311 . S
C1067 N1066 1.355 . S
C1067 C1068 1.363 . S
C1067 H1079 0.929 . S
C1068 C1067 1.363 . S
C1068 N1070 1.375 . S
C1068 H1086 0.931 . S
C1069 N1066 1.311 . S
C1069 N1070 1.347 . S
C1069 H1080 0.929 . S
N1070 C1068 1.375 . S
N1070 C1069 1.347 . S
C1071 C1074 1.365 . S
C1071 N1076 1.328 . S
C1071 H1077 0.929 . S
C1072 C1073 1.362 . S
C1072 C1075 1.378 . S
C1072 H1087 0.929 . S
C1073 C1072 1.362 . S
C1073 C1074 1.366 . S
C1074 C1071 1.365 . S
C1074 C1073 1.366 . S
C1074 H1088 0.930 . S
C1075 C1072 1.378 . S
C1075 N1076 1.315 . S
C1075 H1078 0.930 . S
N1076 Co1056 2.194 . S
N1076 C1071 1.328 . S
N1076 C1075 1.315 . S
H1077 C1071 0.929 . S
H1078 C1075 0.930 . S
H1079 C1067 0.929 . S
H1080 C1069 0.929 . S
O1081 Co1056 2.351 . S
O1081 C1084 1.244 . S
O1082 Co1056 2.155 . S
O1082 C1084 1.240 . S
O1083 Co1056 2.096 . S
O1083 C1064 1.247 . S
C1084 O1081 1.244 . S
C1084 O1082 1.240 . S
H1085 C1059 0.931 . S
H1086 C1068 0.931 . S
H1087 C1072 0.929 . S
H1088 C1074 0.930 . S
Co1089 N1093 2.148 . S
Co1089 N1099 2.128 . S
Co1089 N1109 2.194 . S
Co1089 O1114 2.351 . S
Co1089 O1115 2.155 . S
Co1089 O1116 2.096 . S
C1090 N1093 1.301 . S
C1090 N1094 1.328 . S
C1090 H1095 0.930 . S
C1091 C1092 1.333 . S
C1091 N1093 1.317 . S
C1091 H1096 0.930 . S
C1092 C1091 1.333 . S
C1092 N1094 1.350 . S
C1092 H1118 0.931 . S
N1093 Co1089 2.148 . S
N1093 C1090 1.301 . S
N1093 C1091 1.317 . S
N1094 C1090 1.328 . S
N1094 C1092 1.350 . S
H1095 C1090 0.930 . S
H1096 C1091 0.930 . S
C1097 O1098 1.224 . S
C1097 O1116 1.247 . S
O1098 C1097 1.224 . S
N1099 Co1089 2.128 . S
N1099 C1100 1.355 . S
N1099 C1102 1.311 . S
C1100 N1099 1.355 . S
C1100 C1101 1.363 . S
C1100 H1112 0.929 . S
C1101 C1100 1.363 . S
C1101 N1103 1.375 . S
C1101 H1119 0.931 . S
C1102 N1099 1.311 . S
C1102 N1103 1.347 . S
C1102 H1113 0.929 . S
N1103 C1101 1.375 . S
N1103 C1102 1.347 . S
C1104 C1107 1.365 . S
C1104 N1109 1.328 . S
C1104 H1110 0.929 . S
C1105 C1106 1.362 . S
C1105 C1108 1.378 . S
C1105 H1120 0.929 . S
C1106 C1105 1.362 . S
C1106 C1107 1.366 . S
C1107 C1104 1.365 . S
C1107 C1106 1.366 . S
C1107 H1121 0.930 1_455 S
C1108 C1105 1.378 . S
C1108 N1109 1.315 . S
C1108 H1111 0.930 . S
N1109 Co1089 2.194 . S
N1109 C1104 1.328 . S
N1109 C1108 1.315 . S
H1110 C1104 0.929 . S
H1111 C1108 0.930 . S
H1112 C1100 0.929 . S
H1113 C1102 0.929 . S
O1114 Co1089 2.351 . S
O1114 C1117 1.244 . S
O1115 Co1089 2.155 . S
O1115 C1117 1.240 . S
O1116 Co1089 2.096 . S
O1116 C1097 1.247 . S
C1117 O1114 1.244 . S
C1117 O1115 1.240 . S
H1118 C1092 0.931 . S
H1119 C1101 0.931 . S
H1120 C1105 0.929 . S
H1121 C1107 0.930 1_655 S
Co1122 N1126 2.148 . S
Co1122 N1132 2.128 . S
Co1122 N1142 2.194 . S
Co1122 O1147 2.351 . S
Co1122 O1148 2.155 . S
Co1122 O1149 2.096 . S
C1123 N1126 1.301 . S
C1123 N1127 1.328 . S
C1123 H1128 0.930 . S
C1124 C1125 1.333 . S
C1124 N1126 1.317 . S
C1124 H1129 0.930 . S
C1125 C1124 1.333 . S
C1125 N1127 1.350 . S
C1125 H1151 0.931 . S
N1126 Co1122 2.148 . S
N1126 C1123 1.301 . S
N1126 C1124 1.317 . S
N1127 C1123 1.328 . S
N1127 C1125 1.350 . S
H1128 C1123 0.930 . S
H1129 C1124 0.930 . S
C1130 O1131 1.224 . S
C1130 O1149 1.247 . S
O1131 C1130 1.224 . S
N1132 Co1122 2.128 . S
N1132 C1133 1.355 . S
N1132 C1135 1.311 . S
C1133 N1132 1.355 . S
C1133 C1134 1.363 . S
C1133 H1145 0.929 . S
C1134 C1133 1.363 . S
C1134 N1136 1.375 . S
C1134 H1152 0.931 . S
C1135 N1132 1.311 . S
C1135 N1136 1.347 . S
C1135 H1146 0.929 . S
N1136 C1134 1.375 . S
N1136 C1135 1.347 . S
C1137 C1140 1.365 . S
C1137 N1142 1.328 . S
C1137 H1143 0.929 . S
C1138 C1139 1.362 . S
C1138 C1141 1.378 . S
C1138 H1153 0.929 . S
C1139 C1138 1.362 . S
C1139 C1140 1.366 . S
C1140 C1137 1.365 . S
C1140 C1139 1.366 . S
C1140 H1154 0.930 . S
C1141 C1138 1.378 . S
C1141 N1142 1.315 . S
C1141 H1144 0.930 . S
N1142 Co1122 2.194 . S
N1142 C1137 1.328 . S
N1142 C1141 1.315 . S
H1143 C1137 0.929 . S
H1144 C1141 0.930 . S
H1145 C1133 0.929 . S
H1146 C1135 0.929 . S
O1147 Co1122 2.351 . S
O1147 C1150 1.244 . S
O1148 Co1122 2.155 . S
O1148 C1150 1.240 . S
O1149 Co1122 2.096 . S
O1149 C1130 1.247 . S
C1150 O1147 1.244 . S
C1150 O1148 1.240 . S
H1151 C1125 0.931 . S
H1152 C1134 0.931 . S
H1153 C1138 0.929 . S
H1154 C1140 0.930 . S
Co1155 N1159 2.148 . S
Co1155 N1165 2.128 . S
Co1155 N1175 2.194 . S
Co1155 O1180 2.351 . S
Co1155 O1181 2.155 . S
Co1155 O1182 2.096 . S
C1156 N1159 1.301 . S
C1156 N1160 1.328 . S
C1156 H1161 0.930 . S
C1157 C1158 1.333 . S
C1157 N1159 1.317 . S
C1157 H1162 0.930 . S
C1158 C1157 1.333 . S
C1158 N1160 1.350 . S
C1158 H1184 0.931 . S
N1159 Co1155 2.148 . S
N1159 C1156 1.301 . S
N1159 C1157 1.317 . S
N1160 C1156 1.328 . S
N1160 C1158 1.350 . S
H1161 C1156 0.930 . S
H1162 C1157 0.930 . S
C1163 O1164 1.224 . S
C1163 O1182 1.247 . S
O1164 C1163 1.224 . S
N1165 Co1155 2.128 . S
N1165 C1166 1.355 . S
N1165 C1168 1.311 . S
C1166 N1165 1.355 . S
C1166 C1167 1.363 . S
C1166 H1178 0.929 . S
C1167 C1166 1.363 . S
C1167 N1169 1.375 . S
C1167 H1185 0.931 . S
C1168 N1165 1.311 . S
C1168 N1169 1.347 . S
C1168 H1179 0.929 . S
N1169 C1167 1.375 . S
N1169 C1168 1.347 . S
C1170 C1173 1.365 . S
C1170 N1175 1.328 . S
C1170 H1176 0.929 . S
C1171 C1172 1.362 . S
C1171 C1174 1.378 . S
C1171 H1186 0.929 . S
C1172 C1171 1.362 . S
C1172 C1173 1.366 . S
C1173 C1170 1.365 . S
C1173 C1172 1.366 . S
C1173 H1187 0.930 1_565 S
C1174 C1171 1.378 . S
C1174 N1175 1.315 . S
C1174 H1177 0.930 . S
N1175 Co1155 2.194 . S
N1175 C1170 1.328 . S
N1175 C1174 1.315 . S
H1176 C1170 0.929 . S
H1177 C1174 0.930 . S
H1178 C1166 0.929 . S
H1179 C1168 0.929 . S
O1180 Co1155 2.351 . S
O1180 C1183 1.244 . S
O1181 Co1155 2.155 . S
O1181 C1183 1.240 . S
O1182 Co1155 2.096 . S
O1182 C1163 1.247 . S
C1183 O1180 1.244 . S
C1183 O1181 1.240 . S
H1184 C1158 0.931 . S
H1185 C1167 0.931 . S
H1186 C1171 0.929 . S
H1187 C1173 0.930 1_545 S
N14 C74 1.902 . S
N47 C8 1.858 1_565 S
N80 C41 1.846 . S
N113 C140 1.902 . S
N146 C173 1.847 . S
N179 C107 1.858 1_655 S
C272 N212 1.902 . S
C206 N245 1.858 1_565 S
C239 N278 1.846 . S
C338 N311 1.902 . S
N344 C371 1.847 . S
C305 N377 1.858 1_655 S
N410 C470 1.808 . S
C404 N443 1.825 . S
N476 C437 1.791 . S
N509 C536 1.817 . S
N542 C569 1.825 . S
N575 C503 1.789 . S
C668 N608 1.817 . S
N641 C602 1.789 . S
C635 N674 1.825 . S
N707 C734 1.808 . S
N740 C767 1.791 . S
N773 C701 1.824 . S
N806 C866 1.817 . S
C800 N839 1.789 . S
C833 N872 1.825 . S
C932 N905 1.808 . S
C965 N938 1.791 . S
C899 N971 1.824 . S
C1064 N1004 1.808 . S
C998 N1037 1.825 . S
N1070 C1031 1.791 . S
C1130 N1103 1.817 . S
C1163 N1136 1.825 . S
C1097 N1169 1.789 . S
C160 C28 1.819 1_655 S
C193 C61 1.839 . S
C94 C127 1.819 1_565 S
C358 C226 1.819 1_455 S
C259 C391 1.839 . S
C292 C325 1.819 1_545 S
C424 C556 1.839 . S
C589 C457 1.840 . S
C523 C490 1.835 . S
C622 C754 1.835 . S
C655 C787 1.840 . S
C721 C688 1.839 . S
C820 C952 1.835 . S
C853 C985 1.840 . S
C919 C886 1.839 . S
C1018 C1150 1.839 . S
C1051 C1183 1.840 . S
C1117 C1084 1.835 . S
C974 C17 2.182 . S
C908 C50 2.220 . S
C83 C941 2.152 . S
C116 C446 2.182 . S
C479 C149 2.152 . S
C182 C413 2.221 . S
C215 C776 2.182 . S
C248 C710 2.220 . S
C743 C281 2.152 . S
C1040 C314 2.182 . S
C347 C1073 2.152 . S
C380 C1007 2.221 . S
C842 C512 2.227 1_455 S
C545 C875 2.261 . S
C809 C578 2.227 1_565 S
C611 C1172 2.227 1_545 S
C644 C1106 2.227 1_655 S
C677 C1139 2.261 . S
N5 N599 1.102 . S
N632 N38 1.029 . S
N665 N71 1.086 . S
N104 N1094 1.102 . S
N1127 N137 1.086 . S
N170 N1160 1.029 . S
N797 N203 1.102 . S
N236 N830 1.029 . S
N269 N863 1.086 . S
N302 N500 1.102 . S
N335 N533 1.086 . S
N566 N368 1.029 . S
N995 N401 1.061 . S
N434 N1028 1.082 1_545 S
N467 N1061 1.043 1_655 S
N698 N896 1.061 1_554 S
N731 N929 1.042 1_544 S
N962 N764 1.082 1_456 S
