# Generated by pormake.
# Topology snz, (6)-cn, num edge types: 1
# Building blocks:
#     Node 0, Type 0, BuildingBlock: CIFDUS_clean_sbu_1, # of connection points: 6
#     Node 1, Type 0, BuildingBlock: CIFDUS_clean_sbu_1, # of connection points: 6
#     Node 2, Type 0, BuildingBlock: CIFDUS_clean_sbu_1, # of connection points: 6
#     Node 3, Type 0, BuildingBlock: CIFDUS_clean_sbu_1, # of connection points: 6
#     Node 4, Type 0, BuildingBlock: CIFDUS_clean_sbu_1, # of connection points: 6
#     Node 5, Type 0, BuildingBlock: CIFDUS_clean_sbu_1, # of connection points: 6
#     Node 6, Type 0, BuildingBlock: CIFDUS_clean_sbu_1, # of connection points: 6
#     Node 7, Type 0, BuildingBlock: CIFDUS_clean_sbu_1, # of connection points: 6
#     Node 8, Type 0, BuildingBlock: CIFDUS_clean_sbu_1, # of connection points: 6
#     Edge 9, Type (0, 0), BuildingBlock: UVAHIK_clean_linker_0, # of connection points: 2
#     Edge 10, Type (0, 0), BuildingBlock: UVAHIK_clean_linker_0, # of connection points: 2
#     Edge 11, Type (0, 0), BuildingBlock: UVAHIK_clean_linker_0, # of connection points: 2
#     Edge 12, Type (0, 0), BuildingBlock: UVAHIK_clean_linker_0, # of connection points: 2
#     Edge 13, Type (0, 0), BuildingBlock: UVAHIK_clean_linker_0, # of connection points: 2
#     Edge 14, Type (0, 0), BuildingBlock: UVAHIK_clean_linker_0, # of connection points: 2
#     Edge 15, Type (0, 0), BuildingBlock: UVAHIK_clean_linker_0, # of connection points: 2
#     Edge 16, Type (0, 0), BuildingBlock: UVAHIK_clean_linker_0, # of connection points: 2
#     Edge 17, Type (0, 0), BuildingBlock: UVAHIK_clean_linker_0, # of connection points: 2
#     Edge 18, Type (0, 0), BuildingBlock: UVAHIK_clean_linker_0, # of connection points: 2
#     Edge 19, Type (0, 0), BuildingBlock: UVAHIK_clean_linker_0, # of connection points: 2
#     Edge 20, Type (0, 0), BuildingBlock: UVAHIK_clean_linker_0, # of connection points: 2
#     Edge 21, Type (0, 0), BuildingBlock: UVAHIK_clean_linker_0, # of connection points: 2
#     Edge 22, Type (0, 0), BuildingBlock: UVAHIK_clean_linker_0, # of connection points: 2
#     Edge 23, Type (0, 0), BuildingBlock: UVAHIK_clean_linker_0, # of connection points: 2
#     Edge 24, Type (0, 0), BuildingBlock: UVAHIK_clean_linker_0, # of connection points: 2
#     Edge 25, Type (0, 0), BuildingBlock: UVAHIK_clean_linker_0, # of connection points: 2
#     Edge 26, Type (0, 0), BuildingBlock: UVAHIK_clean_linker_0, # of connection points: 2
#     Edge 27, Type (0, 0), BuildingBlock: UVAHIK_clean_linker_0, # of connection points: 2
#     Edge 28, Type (0, 0), BuildingBlock: UVAHIK_clean_linker_0, # of connection points: 2
#     Edge 29, Type (0, 0), BuildingBlock: UVAHIK_clean_linker_0, # of connection points: 2
#     Edge 30, Type (0, 0), BuildingBlock: UVAHIK_clean_linker_0, # of connection points: 2
#     Edge 31, Type (0, 0), BuildingBlock: UVAHIK_clean_linker_0, # of connection points: 2
#     Edge 32, Type (0, 0), BuildingBlock: UVAHIK_clean_linker_0, # of connection points: 2
#     Edge 33, Type (0, 0), BuildingBlock: UVAHIK_clean_linker_0, # of connection points: 2
#     Edge 34, Type (0, 0), BuildingBlock: UVAHIK_clean_linker_0, # of connection points: 2
#     Edge 35, Type (0, 0), BuildingBlock: UVAHIK_clean_linker_0, # of connection points: 2
# Relax obj value: 0.262
# Max RMSD: 0.273
# Mean RMSD: 0.244
data_MOF--net-snz--node1-CIFDUS_clean_sbu_1--edge1-UVAHIK_clean_linker_0
_symmetry_space_group_name_H-M    P1
_symmetry_Int_Tables_number       1
_symmetry_cell_setting            triclinic
loop_
_symmetry_equiv_pos_as_xyz
'x, y, z'
_cell_length_a     62.867157
_cell_length_b     63.496434
_cell_length_c     18.762888
_cell_angle_alpha  92.013453
_cell_angle_beta   91.678378
_cell_angle_gamma 120.25143
loop_
_atom_site_label
_atom_site_type_symbol
_atom_site_fract_x
_atom_site_fract_y
_atom_site_fract_z
_atom_type_partial_charge
O0 O 0.04813 0.5295 0.0643 0.0
Mn1 Mn 0.03255 0.49278 0.03192 0.0
O2 O 0.01654 0.5324 0.10821 0.0
Mn3 Mn 0.99222 0.49925 0.10135 0.0
O4 O 0.01713 0.45608 0.00043 0.0
O5 O 0.05565 0.50095 0.95222 0.0
Mn6 Mn 0.07302 0.48655 0.96245 0.0
O7 O 0.05691 0.4894 0.10479 0.0
O8 O 0.04923 0.45316 0.96092 0.0
O9 O 0.00852 0.49643 0.95885 0.0
O10 O 0.97445 0.48748 0.01535 0.0
O11 O 0.08184 0.50211 0.87802 0.0
O12 O 0.09114 0.5002 0.04692 0.0
C13 C 0.99928 0.47739 0.17153 0.0
C14 C 0.03916 0.54196 0.09237 0.0
C15 C 0.02655 0.44351 0.97635 0.0
C16 C 0.06486 0.50734 0.89071 0.0
C17 C 0.07984 0.49566 0.10428 0.0
C18 C 0.98606 0.49174 0.95857 0.0
O19 O 0.00912 0.4843 0.11097 0.0
O20 O 0.98224 0.48261 0.18361 0.0
O21 O 0.53592 0.46311 0.01302 0.0
Mn22 Mn 0.55504 0.50114 0.01318 0.0
O23 O 0.49699 0.45131 0.97342 0.0
Mn24 Mn 0.5013 0.48194 0.9552 0.0
O25 O 0.57417 0.5392 0.0125 0.0
O26 O 0.57762 0.50299 0.09365 0.0
Mn27 Mn 0.60868 0.52102 0.07496 0.0
O28 O 0.57886 0.50076 0.93609 0.0
O29 O 0.61246 0.55159 0.05972 0.0
O30 O 0.53149 0.50165 0.09082 0.0
O31 O 0.4984 0.49875 0.0327 0.0
O32 O 0.60833 0.511 0.16667 0.0
O33 O 0.61256 0.50542 -0.00391 0.0
C34 C 0.52446 0.50056 0.87021 0.0
C35 C 0.5133 0.44653 -0.0025 0.0
C36 C 0.59637 0.55601 0.03181 0.0
C37 C 0.58467 0.50089 0.15675 0.0
C38 C 0.59962 0.50116 0.93824 0.0
C39 C 0.51141 0.50248 0.08992 0.0
O40 O 0.53221 0.4991 0.9331 0.0
O41 O 0.50079 0.49081 0.86255 0.0
O42 O 0.56921 0.98452 0.00468 0.0
Mn43 Mn 0.5452 0.99645 0.9745 0.0
O44 O 0.60363 0.01941 0.04563 0.0
Mn45 Mn 0.59155 0.04103 0.04544 0.0
O46 O 0.52147 0.00854 0.94513 0.0
O47 O 0.53055 0.97143 0.89165 0.0
Mn48 Mn 0.49876 0.95249 0.89966 0.0
O49 O 0.51844 0.97334 0.04388 0.0
O50 O 0.48701 0.97447 0.90037 0.0
O51 O 0.57146 0.01925 0.90416 0.0
O52 O 0.59427 0.05576 0.96049 0.0
O53 O 0.50591 0.94315 0.81338 0.0
O54 O 0.49627 0.93737 0.98354 0.0
C55 C 0.56335 0.03238 0.11957 0.0
C56 C 0.59186 0.99636 0.02906 0.0
C57 C 0.49903 0.99734 0.91944 0.0
C58 C 0.52773 0.96174 0.82777 0.0
C59 C 0.50183 0.95054 0.04118 0.0
C60 C 0.58795 0.04197 0.9039 0.0
O61 O 0.55993 0.02176 0.05672 0.0
O62 O 0.58515 0.05129 0.13131 0.0
O63 O 0.73183 0.86431 0.15474 0.0
Mn64 Mn 0.74689 0.84315 0.18214 0.0
O65 O 0.76383 0.89923 0.11884 0.0
Mn66 Mn 0.78807 0.89023 0.12186 0.0
O67 O 0.76158 0.82147 0.20964 0.0
O68 O 0.72284 0.82815 0.25899 0.0
Mn69 Mn 0.7047 0.7966 0.23972 0.0
O70 O 0.72345 0.81578 0.10339 0.0
O71 O 0.72794 0.7863 0.23782 0.0
O72 O 0.77004 0.87086 0.2602 0.0
O73 O 0.80491 0.89567 0.20867 0.0
O74 O 0.69509 0.80275 0.32628 0.0
O75 O 0.68795 0.79349 0.15455 0.0
C76 C 0.78115 0.86142 0.04501 0.0
C77 C 0.74105 0.88596 0.13244 0.0
C78 C 0.75106 0.79912 0.2273 0.0
C79 C 0.71289 0.82485 0.31994 0.0
C80 C 0.70031 0.79968 0.09915 0.0
C81 C 0.79243 0.88882 0.2638 0.0
O82 O 0.77116 0.85837 0.10586 0.0
O83 O 0.79841 0.88367 0.03723 0.0
O84 O 0.1963 0.81293 0.30157 0.0
Mn85 Mn 0.21611 0.85 0.33282 0.0
O86 O 0.15941 0.80752 0.26135 0.0
Mn87 Mn 0.1669 0.84007 0.26236 0.0
O88 O 0.23511 0.88698 0.36332 0.0
O89 O 0.23347 0.84434 0.41511 0.0
Mn90 Mn 0.26555 0.86258 0.41081 0.0
O91 O 0.24432 0.85583 0.26312 0.0
O92 O 0.27159 0.89474 0.41352 0.0
O93 O 0.18814 0.84351 0.40307 0.0
O94 O 0.16212 0.85218 0.34722 0.0
O95 O 0.26022 0.8467 0.49472 0.0
O96 O 0.27227 0.85146 0.32778 0.0
C97 C 0.19409 0.8617 0.18959 0.0
C98 C 0.17378 0.79926 0.27704 0.0
C99 C 0.25664 0.90173 0.39265 0.0
C100 C 0.23721 0.83873 0.47789 0.0
C101 C 0.26337 0.85324 0.2682 0.0
C102 C 0.16957 0.8468 0.40345 0.0
O103 O 0.19878 0.85609 0.25129 0.0
O104 O 0.17116 0.85519 0.1775 0.0
O105 O 0.27038 0.38516 0.40843 0.0
Mn106 Mn 0.23292 0.36678 0.42771 0.0
O107 O 0.27729 0.35517 0.3689 0.0
Mn108 Mn 0.24456 0.32913 0.36018 0.0
O109 O 0.19556 0.34832 0.44659 0.0
O110 O 0.2387 0.39005 0.51125 0.0
Mn111 Mn 0.22105 0.40404 0.49878 0.0
O112 O 0.22624 0.38782 0.35537 0.0
O113 O 0.18849 0.37765 0.49109 0.0
O114 O 0.23898 0.34574 0.50099 0.0
O115 O 0.2324 0.31197 0.44048 0.0
O116 O 0.23685 0.4151 0.58824 0.0
O117 O 0.23269 0.4212 0.41827 0.0
C118 C 0.22175 0.33297 0.28075 0.0
C119 C 0.28486 0.37761 0.38736 0.0
C120 C 0.18103 0.35542 0.47021 0.0
C121 C 0.24432 0.39979 0.57559 0.0
C122 C 0.2289 0.40931 0.35894 0.0
C123 C 0.2353 0.3239 0.49914 0.0
O124 O 0.22724 0.34339 0.34433 0.0
O125 O 0.22923 0.31755 0.2705 0.0
O126 O 0.38053 0.14813 0.79699 0.0
Mn127 Mn 0.36847 0.17027 0.75693 0.0
O128 O 0.34971 0.12132 0.86211 0.0
Mn129 Mn 0.32583 0.12987 0.83845 0.0
O130 O 0.3561 0.19247 0.71781 0.0
O131 O 0.40326 0.1984 0.75948 0.0
Mn132 Mn 0.41041 0.21143 0.67625 0.0
O133 O 0.37078 0.15903 0.65356 0.0
O134 O 0.38793 0.22235 0.66285 0.0
O135 O 0.3659 0.18142 0.86035 0.0
O136 O 0.32769 0.15561 0.89281 0.0
O137 O 0.43786 0.23005 0.73727 0.0
O138 O 0.4072 0.18671 0.61405 0.0
C139 C 0.31514 0.12277 0.72579 0.0
C140 C 0.37129 0.13016 0.83789 0.0
C141 C 0.36595 0.21227 0.68452 0.0
C142 C 0.42402 0.21631 0.78545 0.0
C143 C 0.3874 0.16605 0.60767 0.0
C144 C 0.3483 0.17542 0.90272 0.0
O145 O 0.334 0.14209 0.75464 0.0
O146 O 0.30044 0.10908 0.77252 0.0
O147 O 0.91329 0.18137 0.60413 0.0
Mn148 Mn 0.87839 0.16208 0.64406 0.0
O149 O 0.90937 0.20626 0.52781 0.0
Mn150 Mn 0.87811 0.20087 0.54992 0.0
O151 O 0.84318 0.14365 0.68153 0.0
O152 O 0.88088 0.13163 0.65053 0.0
Mn153 Mn 0.87357 0.1211 0.73714 0.0
O154 O 0.89325 0.17479 0.74804 0.0
O155 O 0.8408 0.11328 0.74553 0.0
O156 O 0.86338 0.14925 0.5402 0.0
O157 O 0.85145 0.17464 0.5015 0.0
O158 O 0.87979 0.09923 0.68941 0.0
O159 O 0.8971 0.14545 0.79879 0.0
C160 C 0.87709 0.21234 0.65846 0.0
C161 C 0.9219 0.19767 0.55725 0.0
C162 C 0.83115 0.12496 0.71852 0.0
C163 C 0.8821 0.11221 0.6354 0.0
C164 C 0.9011 0.16716 0.79913 0.0
C165 C 0.85145 0.15466 0.49488 0.0
O166 O 0.87583 0.19214 0.63798 0.0
O167 O 0.8762 0.22452 0.60583 0.0
O168 O 0.84022 0.63159 0.6176 0.0
Mn169 Mn 0.87597 0.65163 0.58275 0.0
O170 O 0.83758 0.65757 0.6976 0.0
Mn171 Mn 0.86829 0.6856 0.68734 0.0
O172 O 0.91174 0.67236 0.55023 0.0
O173 O 0.87766 0.62097 0.56625 0.0
Mn174 Mn 0.88734 0.61996 0.4798 0.0
O175 O 0.86183 0.6492 0.47917 0.0
O176 O 0.91901 0.64747 0.47973 0.0
O177 O 0.89037 0.65404 0.68593 0.0
O178 O 0.8948 0.68806 0.73973 0.0
O179 O 0.88355 0.59251 0.52125 0.0
O180 O 0.86325 0.61886 0.4189 0.0
C181 C 0.87271 0.70107 0.58509 0.0
C182 C 0.82831 0.63671 0.6633 0.0
C183 C 0.92605 0.66813 0.51256 0.0
C184 C 0.87887 0.60161 0.57728 0.0
C185 C 0.85637 0.63455 0.42407 0.0
C186 C 0.89916 0.67056 0.73711 0.0
O187 O 0.87443 0.68222 0.59863 0.0
O188 O 0.86982 0.71162 0.64111 0.0
C189 C 0.06797 0.52886 0.78182 0.0
C190 C 0.05281 0.51179 0.82968 0.0
C191 C 0.06074 0.52585 0.70933 0.0
C192 C 0.02434 0.47411 0.5812 0.0
H193 H 0.04331 0.52405 0.44439 0.0
C194 C 0.99531 0.45556 0.28041 0.0
C195 C 0.01086 0.47258 0.23299 0.0
C196 C 1.00221 0.45843 0.35314 0.0
C197 C 0.03833 0.50991 0.48191 0.0
H198 H 0.01731 0.47943 0.84071 0.0
H199 H 1.00408 0.47477 0.71482 0.0
H200 H 0.04779 0.53538 0.57172 0.0
H201 H 0.04667 0.50467 0.22314 0.0
H202 H 0.05926 0.50909 0.34946 0.0
H203 H 0.01485 0.44864 0.49132 0.0
C204 C 0.02178 0.49028 0.73292 0.0
C205 C 0.04065 0.5164 0.55492 0.0
C206 C 0.02905 0.49333 0.80554 0.0
C207 C 0.03463 0.49079 0.25791 0.0
C208 C 0.04155 0.49373 0.33078 0.0
C209 C 0.022 0.46762 0.50818 0.0
C210 C 0.03822 0.50558 0.68344 0.0
C211 C 0.03369 0.49859 0.60553 0.0
C212 C 0.02476 0.47851 0.37969 0.0
C213 C 0.02903 0.48545 0.45761 0.0
H214 H 0.08658 0.54294 0.79898 0.0
H215 H 0.07389 0.53801 0.67294 0.0
H216 H 0.01939 0.45997 0.61869 0.0
H217 H 0.9767 0.44167 0.26264 0.0
H218 H 0.98882 0.44635 0.38916 0.0
C219 C 0.53692 0.52244 0.75942 0.0
C220 C 0.53917 0.50711 0.80717 0.0
C221 C 0.54326 0.52245 0.68877 0.0
C222 C 0.56322 0.52308 0.54303 0.0
H223 H 0.53649 0.45733 0.45881 0.0
C224 C 0.55842 0.50687 0.24084 0.0
C225 C 0.56916 0.49325 0.21815 0.0
C226 C 0.5515 0.50619 0.31115 0.0
C227 C 0.5441 0.47579 0.48161 0.0
H228 H 0.55022 0.48018 0.81985 0.0
H229 H 0.56229 0.48083 0.69699 0.0
H230 H 0.53577 0.46371 0.5875 0.0
H231 H 0.58021 0.46753 0.24913 0.0
H232 H 0.56801 0.46612 0.37191 0.0
H233 H 0.57153 0.53516 0.43721 0.0
C234 C 0.55557 0.49282 0.71393 0.0
C235 C 0.54392 0.47949 0.55537 0.0
C236 C 0.54924 0.49287 0.78468 0.0
C237 C 0.57134 0.47768 0.26515 0.0
C238 C 0.56445 0.47699 0.33547 0.0
C239 C 0.56337 0.51937 0.46931 0.0
C240 C 0.55162 0.50682 0.66451 0.0
C241 C 0.55348 0.50319 0.58689 0.0
C242 C 0.5556 0.49216 0.36008 0.0
C243 C 0.55376 0.49568 0.43775 0.0
H244 H 0.52852 0.53305 0.77536 0.0
H245 H 0.53978 0.53329 0.65201 0.0
H246 H 0.57088 0.54155 0.56576 0.0
H247 H 0.55768 0.51991 0.20676 0.0
H248 H 0.54443 0.51785 0.32841 0.0
C249 C 0.54606 0.96023 0.7145 0.0
C250 C 0.54258 0.97428 0.76724 0.0
C251 C 0.54988 0.9674 0.64415 0.0
C252 C 0.56152 0.01729 0.52416 0.0
H253 H 0.51866 0.9633 0.3897 0.0
C254 C 0.54691 0.03559 0.23495 0.0
C255 C 0.54907 0.02072 0.18192 0.0
C256 C 0.5434 0.02881 0.3057 0.0
C257 C 0.53088 0.97858 0.42624 0.0
H258 H 0.5415 0.00744 0.78834 0.0
H259 H 0.54894 0.02043 0.6663 0.0
H260 H 0.52255 0.95567 0.51443 0.0
H261 H 0.54807 0.98651 0.16086 0.0
H262 H 0.54146 0.97434 0.28368 0.0
H263 H 0.56996 0.0402 0.436 0.0
C264 C 0.54899 0.00396 0.67916 0.0
C265 C 0.53324 0.9742 0.49789 0.0
C266 C 0.54514 0.99674 0.74965 0.0
C267 C 0.5455 0.99791 0.19983 0.0
C268 C 0.54212 0.99115 0.27083 0.0
C269 C 0.55922 0.02167 0.45244 0.0
C270 C 0.55006 0.98869 0.62479 0.0
C271 C 0.54862 0.99348 0.54786 0.0
C272 C 0.5423 0.00711 0.32532 0.0
C273 C 0.54381 1.00238 0.4024 0.0
H274 H 0.54364 0.94259 0.72629 0.0
H275 H 0.55121 0.95548 0.60405 0.0
H276 H 0.57365 0.03255 0.5609 0.0
H277 H 0.55003 0.05346 0.22282 0.0
H278 H 0.54295 0.04127 0.34571 0.0
C279 C 0.74812 0.84506 0.40911 0.0
C280 C 0.72464 0.84036 0.38558 0.0
C281 C 0.75499 0.84874 0.48223 0.0
C282 C 0.76664 0.85913 0.64356 0.0
H283 H 0.71235 0.81263 0.75068 0.0
C284 C 0.78478 0.84341 0.93094 0.0
C285 C 0.76944 0.84548 0.98009 0.0
C286 C 0.77798 0.83931 0.85796 0.0
C287 C 0.72768 0.82578 0.72172 0.0
H288 H 0.69099 0.83823 0.41865 0.0
H289 H 0.70332 0.84577 0.54568 0.0
H290 H 0.70509 0.81758 0.62571 0.0
H291 H 0.73423 0.84321 0.99212 0.0
H292 H 0.72197 0.83539 0.86533 0.0
H293 H 0.78922 0.86734 0.73961 0.0
C294 C 0.71621 0.84595 0.50829 0.0
C295 C 0.72351 0.8288 0.65012 0.0
C296 C 0.70934 0.84216 0.4354 0.0
C297 C 0.74602 0.84077 0.9559 0.0
C298 C 0.7392 0.83672 0.88277 0.0
C299 C 0.77081 0.85611 0.71517 0.0
C300 C 0.73844 0.84774 0.53288 0.0
C301 C 0.74292 0.84558 0.61011 0.0
C302 C 0.75578 0.83744 0.83266 0.0
C303 C 0.75139 0.83937 0.75522 0.0
H304 H 0.75993 0.84292 0.37223 0.0
H305 H 0.77225 0.85006 0.49913 0.0
H306 H 0.78196 0.87231 0.61463 0.0
H307 H 0.80311 0.84741 0.94814 0.0
H308 H 0.7909 0.83933 0.82099 0.0
C309 C 0.21305 0.84933 0.55754 0.0
C310 C 0.22032 0.83259 0.53615 0.0
C311 C 0.2079 0.85131 0.62869 0.0
C312 C 0.20138 0.82481 0.80694 0.0
H313 H 0.23772 0.89295 0.87513 0.0
C314 C 0.21724 0.85048 0.10708 0.0
C315 C 0.20969 0.86701 0.12829 0.0
C316 C 0.22167 0.84799 0.03544 0.0
C317 C 0.22743 0.87385 0.85698 0.0
H318 H 0.22593 0.8035 0.57029 0.0
H319 H 0.21669 0.80664 0.69396 0.0
H320 H 0.23317 0.88227 0.74741 0.0
H321 H 0.20288 0.89527 0.09331 0.0
H322 H 0.21114 0.89144 0.96902 0.0
H323 H 0.19573 0.81642 0.91669 0.0
C324 C 0.2147 0.81814 0.65627 0.0
C325 C 0.22457 0.8677 0.78364 0.0
C326 C 0.21979 0.81615 0.58513 0.0
C327 C 0.20918 0.88275 0.07849 0.0
C328 C 0.21372 0.88037 0.00707 0.0
C329 C 0.20427 0.83096 0.88033 0.0
C330 C 0.21021 0.83676 0.67977 0.0
C331 C 0.21146 0.8431 0.7576 0.0
C332 C 0.21861 0.862 0.98399 0.0
C333 C 0.21734 0.85557 0.90628 0.0
H334 H 0.21427 0.86288 0.52184 0.0
H335 H 0.204 0.86551 0.64477 0.0
H336 H 0.19108 0.8057 0.7888 0.0
H337 H 0.21692 0.83752 0.14369 0.0
H338 H 0.22582 0.83394 0.01952 0.0
C339 C 0.26678 0.4056 0.69105 0.0
C340 C 0.25008 0.38941 0.6369 0.0
C341 C 0.26484 0.39876 0.76162 0.0
C342 C 0.23274 0.34751 0.88107 0.0
H343 H 0.23307 0.39767 0.00634 0.0
C344 C 0.19971 0.32567 0.16359 0.0
C345 C 0.21575 0.3425 0.21773 0.0
C346 C 0.20162 0.33211 0.09262 0.0
C347 C 0.23305 0.38351 0.97234 0.0
H348 H 0.21918 0.35291 0.61329 0.0
H349 H 0.21624 0.34061 0.73576 0.0
H350 H 0.24481 0.40623 0.88349 0.0
H351 H 0.24532 0.3797 0.24091 0.0
H352 H 0.24843 0.3912 0.1176 0.0
H353 H 0.22109 0.32481 0.96994 0.0
C354 C 0.23102 0.35854 0.72396 0.0
C355 C 0.23996 0.38846 0.90194 0.0
C356 C 0.23298 0.36543 0.65327 0.0
C357 C 0.23208 0.36662 0.20077 0.0
C358 C 0.23412 0.37307 0.1296 0.0
C359 C 0.2259 0.34257 0.95157 0.0
C360 C 0.24598 0.37564 0.77946 0.0
C361 C 0.23994 0.37055 0.85543 0.0
C362 C 0.21987 0.35546 0.07426 0.0
C363 C 0.2259 0.36049 -0.00186 0.0
H364 H 0.2798 0.42434 0.67997 0.0
H365 H 0.27702 0.41218 0.80289 0.0
H366 H 0.23263 0.33335 0.84686 0.0
H367 H 0.18724 0.30685 0.17522 0.0
H368 H 0.18987 0.31829 0.05164 0.0
C369 C 0.39979 0.15769 0.49088 0.0
C370 C 0.38092 0.15344 0.53656 0.0
C371 C 0.39545 0.15663 0.41728 0.0
C372 C 0.34893 0.14615 0.27343 0.0
H373 H 0.39851 0.21156 0.22702 0.0
C374 C 0.33502 0.18259 0.0198 0.0
C375 C 0.35425 0.18709 0.97516 0.0
C376 C 0.33873 0.18295 0.09351 0.0
C377 C 0.38453 0.19332 0.23944 0.0
H378 H 0.34184 0.14056 0.54143 0.0
H379 H 0.33422 0.13836 0.41375 0.0
H380 H 0.4037 0.19506 0.33713 0.0
H381 H 0.39329 0.19943 0.97299 0.0
H382 H 0.39985 0.20075 0.10059 0.0
H383 H 0.32979 0.14442 0.17554 0.0
C384 C 0.35239 0.14278 0.43408 0.0
C385 C 0.38767 0.18367 0.30169 0.0
C386 C 0.35674 0.14384 0.50762 0.0
C387 C 0.37815 0.19612 0.0057 0.0
C388 C 0.38187 0.19661 0.07929 0.0
C389 C 0.3458 0.15579 0.21107 0.0
C390 C 0.37221 0.15131 0.38919 0.0
C391 C 0.36995 0.15996 0.31908 0.0
C392 C 0.36172 0.18802 0.12292 0.0
C393 C 0.3636 0.17946 0.19353 0.0
H394 H 0.41852 0.16471 0.5121 0.0
H395 H 0.41084 0.16255 0.38319 0.0
H396 H 0.33496 0.1279 0.28589 0.0
H397 H 0.31649 0.17598 -0.0025 0.0
H398 H 0.32307 0.17692 0.12662 0.0
C399 C 0.83163 0.14798 0.37365 0.0
C400 C 0.84564 0.14291 0.42235 0.0
C401 C 0.83601 0.14866 0.30116 0.0
C402 C 0.87101 0.17663 0.1891 0.0
H403 H 0.8901 0.13858 0.06983 0.0
C404 C 0.89399 0.19012 0.89477 0.0
C405 C 0.90845 0.18071 0.86888 0.0
C406 C 0.89052 0.1906 0.96777 0.0
C407 C 0.88534 0.14966 0.10338 0.0
H408 H 0.87132 0.12964 0.43214 0.0
H409 H 0.8788 0.13067 0.30613 0.0
H410 H 0.86869 0.12174 0.17788 0.0
H411 H 0.93467 0.16951 0.89845 0.0
H412 H 0.92929 0.17117 0.02622 0.0
H413 H 0.88757 0.2045 0.11429 0.0
C414 C 0.86489 0.13469 0.32358 0.0
C415 C 0.87276 0.13983 0.16465 0.0
C416 C 0.86044 0.13393 0.39608 0.0
C417 C 0.92311 0.17645 0.91736 0.0
C418 C 0.91978 0.17709 0.9903 0.0
C419 C 0.88357 0.18646 0.12775 0.0
C420 C 0.85427 0.14406 0.27677 0.0
C421 C 0.86541 0.15318 0.20803 0.0
C422 C 0.90174 0.18195 0.01512 0.0
C423 C 0.89091 0.17309 0.08437 0.0
H424 H 0.81965 0.15441 0.39243 0.0
H425 H 0.82689 0.15506 0.26549 0.0
H426 H 0.86618 0.18767 0.22262 0.0
H427 H 0.88248 0.19353 0.85852 0.0
H428 H 0.87673 0.19475 0.98548 0.0
C429 C 0.83494 0.62085 0.30507 0.0
C430 C 0.84819 0.63998 0.35698 0.0
C431 C 0.83831 0.62532 0.23297 0.0
C432 C 0.89253 0.66555 0.14296 0.0
H433 H 0.85305 0.63064 0.97081 0.0
C434 C 0.92084 0.6849 0.85609 0.0
C435 C 0.90772 0.66558 0.80458 0.0
C436 C 0.91789 0.68054 0.92833 0.0
C437 C 0.86435 0.64007 0.01891 0.0
H438 H 0.87163 0.67918 0.37499 0.0
H439 H 0.87647 0.68712 0.24928 0.0
H440 H 0.83271 0.62876 0.08094 0.0
H441 H 0.88576 0.62617 0.78736 0.0
H442 H 0.88124 0.61854 0.91342 0.0
H443 H 0.92416 0.67695 0.08077 0.0
C444 C 0.86419 0.66862 0.26402 0.0
C445 C 0.85265 0.63932 0.08146 0.0
C446 C 0.86096 0.66412 0.33613 0.0
C447 C 0.89591 0.64146 0.82591 0.0
C448 C 0.89299 0.63709 0.89818 0.0
C449 C 0.90422 0.66633 0.08037 0.0
C450 C 0.85484 0.64898 0.21271 0.0
C451 C 0.86662 0.65209 0.14403 0.0
C452 C 0.90197 0.6568 0.94911 0.0
C453 C 0.89024 0.65356 0.01785 0.0
H454 H 0.82484 0.60209 0.32024 0.0
H455 H 0.83059 0.60983 0.19445 0.0
H456 H 0.90385 0.67498 0.19102 0.0
H457 H 0.93047 0.70364 0.84068 0.0
H458 H 0.92539 0.69606 0.96666 0.0
C459 C 0.19465 0.40081 0.27274 0.0
C460 C 0.21873 0.41712 0.30056 0.0
C461 C 0.17962 0.40967 0.24745 0.0
C462 C 0.17506 0.46495 0.28246 0.0
H463 H 0.11812 0.43211 0.14919 0.0
C464 C 0.11711 0.50604 0.17941 0.0
C465 C 0.0918 0.49017 0.16347 0.0
C466 C 0.13178 0.49719 0.20721 0.0
C467 C 0.13375 0.44124 0.1875 0.0
H468 H 0.24723 0.45517 0.31351 0.0
H469 H 0.22171 0.47061 0.26467 0.0
H470 H 0.14697 0.41713 0.15818 0.0
H471 H 0.06148 0.45325 0.17092 0.0
H472 H 0.08711 0.43773 0.22 0.0
H473 H 0.16207 0.48941 0.31031 0.0
C474 C 0.21384 0.45105 0.26605 0.0
C475 C 0.15039 0.43275 0.19232 0.0
C476 C 0.2287 0.44221 0.29247 0.0
C477 C 0.08089 0.46596 0.18373 0.0
C478 C 0.09564 0.45697 0.21045 0.0
C479 C 0.15856 0.47357 0.27708 0.0
C480 C 0.18862 0.43498 0.2483 0.0
C481 C 0.17137 0.44456 0.23967 0.0
C482 C 0.1214 0.47223 0.21866 0.0
C483 C 0.13773 0.46183 0.22954 0.0
H484 H 0.18639 0.38137 0.27901 0.0
H485 H 0.16037 0.39666 0.23379 0.0
H486 H 0.19054 0.47414 0.32118 0.0
H487 H 0.12598 0.52469 0.16327 0.0
H488 H 0.15154 0.50943 0.21308 0.0
C489 C 0.62452 0.60063 0.0597 0.0
C490 C 0.60456 0.5818 0.01842 0.0
C491 C 0.63423 0.62495 0.04341 0.0
C492 C 0.62141 0.66705 0.94298 0.0
H493 H 0.69141 0.70982 0.987 0.0
C494 C 0.66339 0.76712 0.02985 0.0
C495 C 0.68917 0.78219 0.03624 0.0
C496 C 0.6526 0.74387 -0.00413 0.0
C497 C 0.67196 0.69831 0.97225 0.0
H498 H 0.57882 0.57376 0.9281 0.0
H499 H 0.59615 0.61642 0.89849 0.0
H500 H 0.67352 0.66631 0.99351 0.0
H501 H 0.72354 0.7867 -0.00019 0.0
H502 H 0.70464 0.74668 0.93654 0.0
H503 H 0.62 0.69912 0.92032 0.0
C504 C 0.60408 0.61237 0.94428 0.0
C505 C 0.66154 0.67317 0.97769 0.0
C506 C 0.59409 0.58792 0.96129 0.0
C507 C 0.70362 0.77538 -0.00319 0.0
C508 C 0.69276 0.75215 0.9617 0.0
C509 C 0.63195 0.69225 0.93629 0.0
C510 C 0.62457 0.63119 0.9845 0.0
C511 C 0.63595 0.65731 0.96661 0.0
C512 C 0.66736 0.73532 0.96623 0.0
C513 C 0.6572 0.7084 0.95419 0.0
H514 H 0.63283 0.59657 0.10458 0.0
H515 H 0.64941 0.63888 0.07731 0.0
H516 H 0.60168 0.65544 0.93325 0.0
H517 H 0.65171 0.77208 0.05867 0.0
H518 H 0.633 0.73185 0.00024 0.0
C519 C 0.47346 0.95698 0.11618 0.0
C520 C 0.48229 0.94162 0.0931 0.0
C521 C 0.44913 0.94702 0.13654 0.0
C522 C 0.38941 0.88949 0.09902 0.0
H523 H 0.3643 0.92071 0.22445 0.0
C524 C 0.29039 0.84414 0.19671 0.0
C525 C 0.28001 0.85891 0.20927 0.0
C526 C 0.31384 0.85397 0.16995 0.0
C527 C 0.37104 0.912 0.18825 0.0
H528 H 0.47389 0.90411 0.08317 0.0
H529 H 0.43211 0.88679 0.12322 0.0
H530 H 0.40871 0.93799 0.21925 0.0
H531 H 0.2848 0.89478 0.19713 0.0
H532 H 0.32583 0.91203 0.14988 0.0
H533 H 0.35162 0.86309 0.06983 0.0
C534 C 0.44338 0.90645 0.12183 0.0
C535 C 0.39655 0.92184 0.18556 0.0
C536 C 0.46753 0.91638 0.10038 0.0
C537 C 0.29221 0.88289 0.18678 0.0
C538 C 0.3159 0.89288 0.16112 0.0
C539 C 0.36393 0.87952 0.10235 0.0
C540 C 0.43332 0.92151 0.13551 0.0
C541 C 0.40613 0.91066 0.14116 0.0
C542 C 0.32747 0.87886 0.15628 0.0
C543 C 0.35444 0.89063 0.14705 0.0
H544 H 0.48427 0.97651 0.11059 0.0
H545 H 0.44221 0.9593 0.14704 0.0
H546 H 0.39596 0.88069 0.06253 0.0
H547 H 0.28152 0.82573 0.21481 0.0
H548 H 0.32221 0.84267 0.16676 0.0
C549 C 0.49559 0.03418 0.95056 0.0
C550 C 0.48624 0.01143 0.9129 0.0
C551 C 0.4832 0.04722 0.94572 0.0
C552 C 0.44086 0.0553 0.8285 0.0
H553 H 0.42836 0.08308 -0.00139 0.0
C554 C 0.40649 0.1235 0.81471 0.0
C555 C 0.38582 0.11825 0.85398 0.0
C556 C 0.41915 0.11097 0.82516 0.0
C557 C 0.43169 0.07535 0.95078 0.0
H558 H 0.45663 0.98465 0.84031 0.0
H559 H 0.43525 0.00767 0.83115 0.0
H560 H 0.44952 0.05971 0.00993 0.0
H561 H 0.36283 0.09628 0.93694 0.0
H562 H 0.38528 0.07456 0.9557 0.0
H563 H 0.42318 0.07097 0.76927 0.0
C564 C 0.45212 0.0153 0.86451 0.0
C565 C 0.44392 0.06217 0.95719 0.0
C566 C 0.46432 1.00211 0.87001 0.0
C567 C 0.37861 0.10071 0.90566 0.0
C568 C 0.3915 0.08835 0.91665 0.0
C569 C 0.42894 0.06872 0.82206 0.0
C570 C 0.46141 0.03794 0.90245 0.0
C571 C 0.44855 0.05198 0.89606 0.0
C572 C 0.41161 0.09309 0.87556 0.0
C573 C 0.42424 0.07886 0.88309 0.0
H574 H 0.51235 0.04182 0.98441 0.0
H575 H 0.49085 0.06474 0.97506 0.0
H576 H 0.44435 0.04778 0.78052 0.0
H577 H 0.4126 0.13687 0.77442 0.0
H578 H 0.43478 0.11517 0.79338 0.0
C579 C 0.91066 0.23024 0.75327 0.0
C580 C 0.88719 0.22525 0.72872 0.0
C581 C 0.92492 0.24986 0.80259 0.0
C582 C 0.92597 0.30008 0.91624 0.0
H583 H 0.98969 0.33902 0.83658 0.0
C584 C 0.98467 0.40544 0.96273 0.0
C585 C 0.01052 0.4166 0.96494 0.0
C586 C 0.96972 0.3802 0.94793 0.0
C587 C 0.97223 0.32834 0.86082 0.0
H588 H 0.85967 0.23588 0.73896 0.0
H589 H 0.88445 0.27012 0.82491 0.0
H590 H 0.96319 0.29698 0.79283 0.0
H591 H 0.04086 0.40968 0.95693 0.0
H592 H 0.01493 0.36585 0.93283 0.0
H593 H 0.93493 0.33189 0.98301 0.0
C594 C 0.89175 0.25868 0.80763 0.0
C595 C 0.95698 0.30408 0.83572 0.0
C596 C 0.87748 0.23899 0.75851 0.0
C597 C 0.02103 0.4018 0.95454 0.0
C598 C 0.00612 0.3766 0.94046 0.0
C599 C 0.94134 0.32442 0.94169 0.0
C600 C 0.91617 0.26516 0.82713 0.0
C601 C 0.93348 0.28971 0.86218 0.0
C602 C 0.98026 0.36549 0.93558 0.0
C603 C 0.96453 0.339 0.91341 0.0
H604 H 0.91908 0.2207 0.72895 0.0
H605 H 0.94354 0.25416 0.81723 0.0
H606 H 0.90803 0.28949 0.93805 0.0
H607 H 0.97594 0.41627 0.97045 0.0
H608 H 0.94991 0.37239 0.94381 0.0
C609 C 0.78907 0.5964 0.63259 0.0
C610 C 0.80224 0.61819 0.67577 0.0
C611 C 0.76402 0.58002 0.64244 0.0
C612 C 0.70963 0.57794 0.72296 0.0
H613 H 0.68321 0.50808 0.72291 0.0
C614 C 0.62978 0.49484 0.87181 0.0
C615 C 0.6125 0.50271 0.8721 0.0
C616 C 0.64907 0.50442 0.82539 0.0
C617 C 0.69023 0.52754 0.72284 0.0
H618 H 0.79935 0.63924 0.76488 0.0
H619 H 0.75631 0.61082 0.78237 0.0
H620 H 0.72572 0.53479 0.69105 0.0
H621 H 0.60053 0.52496 0.81893 0.0
H622 H 0.63333 0.54067 0.73514 0.0
H623 H 0.67497 0.57117 0.75877 0.0
C624 C 0.76501 0.60657 0.73968 0.0
C625 C 0.71459 0.54285 0.70398 0.0
C626 C 0.78988 0.62284 0.72993 0.0
C627 C 0.6132 0.51812 0.81919 0.0
C628 C 0.63244 0.5276 0.77224 0.0
C629 C 0.68542 0.56273 0.74199 0.0
C630 C 0.7516 0.58511 0.69552 0.0
C631 C 0.72484 0.56833 0.70606 0.0
C632 C 0.65151 0.52208 0.77789 0.0
C633 C 0.67553 0.53736 0.74425 0.0
H634 H 0.79794 0.59221 0.5903 0.0
H635 H 0.75426 0.56366 0.60745 0.0
H636 H 0.7167 0.59743 0.72361 0.0
H637 H 0.62978 0.48307 0.91226 0.0
H638 H 0.66327 0.49965 0.83179 0.0
C639 C 0.8692 0.56972 0.66217 0.0
C640 C 0.88313 0.59443 0.64726 0.0
C641 C 0.8794 0.5592 0.70552 0.0
C642 C 0.93914 0.56538 0.73208 0.0
H643 H 0.90945 0.51696 0.87284 0.0
C644 C 0.98974 0.52111 0.86889 0.0
C645 C 0.97547 0.49837 0.89816 0.0
C646 C 0.9783 0.53228 0.83422 0.0
C647 C 0.91783 0.53005 0.8324 0.0
H648 H 0.9178 0.62802 0.67009 0.0
H649 H 0.93565 0.60971 0.74614 0.0
H650 H 0.88922 0.5391 0.83414 0.0
H651 H 0.93837 0.46818 0.90676 0.0
H652 H 0.91847 0.4867 0.84171 0.0
H653 H 0.96717 0.55578 0.72751 0.0
C654 C 0.91683 0.59848 0.72465 0.0
C655 C 0.90634 0.54298 0.81113 0.0
C656 C 0.90644 0.60905 0.68227 0.0
C657 C 0.94979 0.48575 0.88472 0.0
C658 C 0.93838 0.49666 0.8488 0.0
C659 C 0.95043 0.55217 0.75237 0.0
C660 C 0.90389 0.57319 0.7333 0.0
C661 C 0.91691 0.56082 0.7609 0.0
C662 C 0.95236 0.5207 0.82696 0.0
C663 C 0.93994 0.53425 0.80279 0.0
H664 H 0.85148 0.55796 0.63418 0.0
H665 H 0.86902 0.53967 0.71117 0.0
H666 H 0.94743 0.57867 0.69198 0.0
H667 H 0.00956 0.5314 0.87932 0.0
H668 H 0.98981 0.55075 0.81825 0.0
C669 C 0.52256 0.41318 0.02422 0.0
C670 C 0.50537 0.42052 0.00757 0.0
C671 C 0.51478 0.3884 0.03012 0.0
C672 C 0.45877 0.32703 0.04537 0.0
H673 H 0.49443 0.30412 0.93224 0.0
C674 C 0.41385 0.23662 0.88091 0.0
C675 C 0.4284 0.22686 0.85886 0.0
C676 C 0.42355 0.25668 0.93026 0.0
C677 C 0.48451 0.31004 0.96595 0.0
H678 H 0.46637 0.40748 0.98714 0.0
H679 H 0.45304 0.36468 -0.00358 0.0
H680 H 0.51184 0.34756 0.95777 0.0
H681 H 0.46344 0.22866 0.87582 0.0
H682 H 0.48016 0.2631 0.96423 0.0
H683 H 0.4308 0.28942 0.05027 0.0
C684 C 0.47248 0.37796 0.00569 0.0
C685 C 0.49454 0.3351 0.9804 0.0
C686 C 0.48021 0.40259 -0.00053 0.0
C687 C 0.45169 0.23559 0.89309 0.0
C688 C 0.4614 0.25559 0.94277 0.0
C689 C 0.44873 0.30191 0.031 0.0
C690 C 0.48965 0.37047 0.02008 0.0
C691 C 0.48134 0.34395 0.01777 0.0
C692 C 0.44811 0.26746 0.95788 0.0
C693 C 0.46103 0.29315 0.98865 0.0
H694 H 0.54205 0.42648 0.03129 0.0
H695 H 0.52847 0.38325 0.04169 0.0
H696 H 0.44837 0.33325 0.07565 0.0
H697 H 0.39614 0.23075 0.85365 0.0
H698 H 0.41274 0.26531 0.94017 0.0
C699 C 0.79543 0.13206 0.72423 0.0
C700 C 0.80466 0.11603 0.7275 0.0
C701 C 0.77026 0.12347 0.73023 0.0
C702 C 0.71261 0.06959 0.78772 0.0
H703 H 0.68137 0.10138 0.69414 0.0
C704 C 0.60987 0.03304 0.80936 0.0
C705 C 0.60579 0.05019 0.84679 0.0
C706 C 0.63209 0.04057 0.77669 0.0
C707 C 0.68987 0.09226 0.72007 0.0
H708 H 0.79466 0.07832 0.73782 0.0
H709 H 0.75077 0.06309 0.74503 0.0
H710 H 0.7247 0.11512 0.67593 0.0
H711 H 0.62037 0.08885 0.87071 0.0
H712 H 0.65888 0.10198 0.81175 0.0
H713 H 0.67762 0.04654 0.83083 0.0
C714 C 0.76293 0.08249 0.74067 0.0
C715 C 0.71478 0.10027 0.71043 0.0
C716 C 0.78816 0.09119 0.73626 0.0
C717 C 0.623 0.07519 0.84262 0.0
C718 C 0.64509 0.08273 0.80896 0.0
C719 C 0.68766 0.06131 0.79605 0.0
C720 C 0.75356 0.0985 0.73811 0.0
C721 C 0.72664 0.08927 0.745 0.0
C722 C 0.65042 0.06537 0.77954 0.0
C723 C 0.6761 0.07271 0.76304 0.0
H724 H 0.80772 0.15135 0.71778 0.0
H725 H 0.76403 0.13655 0.72959 0.0
H726 H 0.72098 0.06094 0.81676 0.0
H727 H 0.59712 0.01364 0.81154 0.0
H728 H 0.63567 0.02685 0.75353 0.0
C729 C 0.59311 0.95747 0.03662 0.0
C730 C 0.6055 0.98312 0.03733 0.0
C731 C 0.60639 0.94533 0.04463 0.0
C732 C 0.66777 0.95329 0.02138 0.0
H733 H 0.64996 0.90396 0.15993 0.0
C734 C 0.73427 0.92082 0.10909 0.0
C735 C 0.72449 0.89597 0.12106 0.0
C736 C 0.71869 0.93022 0.0972 0.0
C737 C 0.65498 0.91743 0.12022 0.0
H738 H 0.64159 0.01606 0.04632 0.0
H739 H 0.66453 0.99492 0.05972 0.0
H740 H 0.62412 0.92208 0.14025 0.0
H741 H 0.69055 0.86148 0.12991 0.0
H742 H 0.66339 0.8778 0.10777 0.0
H743 H 0.69848 0.94871 0.00079 0.0
C744 C 0.6446 0.9842 0.05293 0.0
C745 C 0.64018 0.9278 0.10906 0.0
C746 C 0.6314 0.9963 0.04578 0.0
C747 C 0.69873 0.88075 0.12122 0.0
C748 C 0.68313 0.89013 0.10881 0.0
C749 C 0.68243 0.94283 0.03207 0.0
C750 C 0.63228 0.95862 0.0524 0.0
C751 C 0.64668 0.94611 0.06035 0.0
C752 C 0.69293 0.91497 0.09636 0.0
C753 C 0.67646 0.92505 0.08245 0.0
H754 H 0.57318 0.94679 0.03035 0.0
H755 H 0.59645 0.92557 0.04379 0.0
H756 H 0.67299 0.9671 0.98264 0.0
H757 H 0.75401 0.93313 0.10926 0.0
H758 H 0.72691 0.94954 0.08932 0.0
C759 C 0.17842 0.76237 0.25456 0.0
C760 C 0.16336 0.77253 0.26624 0.0
C761 C 0.16785 0.7371 0.24015 0.0
C762 C 0.11082 0.67844 0.26167 0.0
H763 H 0.12827 0.65434 0.09365 0.0
C764 C 0.04589 0.5828 0.13517 0.0
C765 C 0.05574 0.56853 0.11013 0.0
C766 C 0.06129 0.60738 0.15651 0.0
C767 C 0.12345 0.66073 0.14138 0.0
H768 H 0.12549 0.76404 0.27425 0.0
H769 H 0.1073 0.72038 0.25009 0.0
H770 H 0.1518 0.69794 0.13035 0.0
H771 H 0.08972 0.56931 0.08644 0.0
H772 H 0.1167 0.61245 0.1242 0.0
H773 H 0.08235 0.64155 0.2726 0.0
C774 C 0.1272 0.73179 0.25174 0.0
C775 C 0.13694 0.68568 0.1624 0.0
C776 C 0.13766 0.75688 0.26506 0.0
C777 C 0.08147 0.57974 0.10537 0.0
C778 C 0.09695 0.60447 0.1269 0.0
C779 C 0.09745 0.65361 0.24094 0.0
C780 C 0.1421 0.72158 0.23861 0.0
C781 C 0.13032 0.69486 0.22171 0.0
C782 C 0.08702 0.61848 0.15374 0.0
C783 C 0.10313 0.64452 0.17942 0.0
H784 H 0.19828 0.77397 0.2549 0.0
H785 H 0.17978 0.7297 0.23045 0.0
H786 H 0.10557 0.68491 0.30839 0.0
H787 H 0.02619 0.57496 0.13899 0.0
H788 H 0.05295 0.61775 0.17519 0.0
C789 C 0.48621 0.51388 0.16396 0.0
C790 C 0.49902 0.50119 0.15663 0.0
C791 C 0.46699 0.50623 0.21045 0.0
C792 C 0.43121 0.45909 0.34306 0.0
H793 H 0.37611 0.46043 0.24946 0.0
C794 C 0.32871 0.38764 0.37775 0.0
C795 C 0.31149 0.39558 0.38119 0.0
C796 C 0.35344 0.40402 0.3658 0.0
C797 C 0.39135 0.4602 0.27712 0.0
H798 H 0.50305 0.47171 0.19597 0.0
H799 H 0.46922 0.45784 0.27546 0.0
H800 H 0.41684 0.48372 0.20406 0.0
H801 H 0.30709 0.42726 0.37671 0.0
H802 H 0.35031 0.45584 0.35459 0.0
H803 H 0.40495 0.43419 0.41343 0.0
C804 C 0.47417 0.47408 0.24696 0.0
C805 C 0.41492 0.47374 0.25131 0.0
C806 C 0.49379 0.48212 0.20154 0.0
C807 C 0.31983 0.42052 0.37446 0.0
C808 C 0.34456 0.43687 0.36145 0.0
C809 C 0.4075 0.44525 0.36828 0.0
C810 C 0.45959 0.4852 0.24908 0.0
C811 C 0.43521 0.47314 0.28308 0.0
C812 C 0.36159 0.42873 0.35606 0.0
C813 C 0.38723 0.44537 0.33487 0.0
H814 H 0.48983 0.52858 0.12967 0.0
H815 H 0.45692 0.51591 0.21246 0.0
H816 H 0.4463 0.45839 0.36991 0.0
H817 H 0.32299 0.3686 0.38309 0.0
H818 H 0.366 0.3971 0.36129 0.0
C819 C 0.87967 0.73144 0.49609 0.0
C820 C 0.86756 0.70696 0.51397 0.0
C821 C 0.86949 0.73909 0.44276 0.0
C822 C 0.80763 0.72202 0.37546 0.0
H823 H 0.84177 0.77679 0.25605 0.0
C824 C 0.75485 0.76191 0.23531 0.0
C825 C 0.76619 0.7875 0.23839 0.0
C826 C 0.76836 0.75064 0.2524 0.0
C827 C 0.83198 0.76154 0.28938 0.0
H828 H 0.83578 0.67112 0.48911 0.0
H829 H 0.81847 0.68414 0.39392 0.0
H830 H 0.86416 0.75877 0.31142 0.0
H831 H 0.80091 0.82134 0.25898 0.0
H832 H 0.82444 0.80166 0.29102 0.0
H833 H 0.77582 0.72526 0.35662 0.0
C834 C 0.83581 0.69751 0.42102 0.0
C835 C 0.84479 0.75114 0.32081 0.0
C836 C 0.84599 0.68991 0.47452 0.0
C837 C 0.79164 0.80158 0.25605 0.0
C838 C 0.80515 0.79027 0.27407 0.0
C839 C 0.79491 0.73241 0.34442 0.0
C840 C 0.84678 0.7224 0.4071 0.0
C841 C 0.83283 0.73146 0.36509 0.0
C842 C 0.79353 0.76463 0.27406 0.0
C843 C 0.80694 0.75253 0.30175 0.0
H844 H 0.89596 0.74501 0.52729 0.0
H845 H 0.87832 0.75841 0.4341 0.0
H846 H 0.79792 0.70731 0.41062 0.0
H847 H 0.73536 0.7505 0.22068 0.0
H848 H 0.75891 0.73088 0.24995 0.0
C849 C 0.33237 0.10429 0.64513 0.0
C850 C 0.31478 0.11134 0.65599 0.0
C851 C 0.32774 0.08579 0.59369 0.0
C852 C 0.2734 0.0304 0.51558 0.0
H853 H 0.32219 0.02016 0.424 0.0
C854 C 0.24802 0.9363 0.38646 0.0
C855 C 0.26432 0.92796 0.40438 0.0
C856 C 0.25479 0.96072 0.40107 0.0
C857 C 0.30835 0.02275 0.44935 0.0
H858 H 0.27924 0.10563 0.61964 0.0
H859 H 0.27145 0.07398 0.52754 0.0
H860 H 0.33359 0.06094 0.47269 0.0
H861 H 0.30091 0.93921 0.44974 0.0
H862 H 0.31253 0.9816 0.47579 0.0
H863 H 0.24838 0.9922 0.49435 0.0
C864 C 0.28873 0.08248 0.55918 0.0
C865 C 0.31487 0.04613 0.47714 0.0
C866 C 0.29331 0.10087 0.61108 0.0
C867 C 0.28782 0.94488 0.43534 0.0
C868 C 0.29459 0.9693 0.44977 0.0
C869 C 0.26688 0.00712 0.48761 0.0
C870 C 0.30527 0.07378 0.55257 0.0
C871 C 0.29762 0.05015 0.51218 0.0
C872 C 0.27804 0.97746 0.43377 0.0
C873 C 0.2844 1.00285 0.45565 0.0
H874 H 0.34863 0.11137 0.68093 0.0
H875 H 0.34083 0.07949 0.59092 0.0
H876 H 0.2597 0.03255 0.54339 0.0
H877 H 0.22983 0.92389 0.36215 0.0
H878 H 0.2417 0.96645 0.38728 0.0
C879 C 0.96563 0.20805 0.58605 0.0
C880 C 0.94805 0.20849 0.53895 0.0
C881 C 0.9908 0.22139 0.57307 0.0
C882 C 0.03405 0.27527 0.47731 0.0
H883 H 0.08149 0.2556 0.52787 0.0
C884 C 0.13811 0.34434 0.50048 0.0
C885 C 0.15438 0.33713 0.47446 0.0
C886 C 0.11309 0.32734 0.50523 0.0
C887 C 0.06845 0.26127 0.51283 0.0
H888 H 0.94303 0.22182 0.4386 0.0
H889 H 0.98659 0.24443 0.41525 0.0
H890 H 0.03748 0.22716 0.53901 0.0
H891 H 0.15683 0.30609 0.43318 0.0
H892 H 0.113 0.27643 0.44089 0.0
H893 H 0.06477 0.30919 0.45041 0.0
C894 C 0.98112 0.23449 0.46341 0.0
C895 C 0.04324 0.24506 0.51994 0.0
C896 C 0.95608 0.22137 0.47662 0.0
C897 C 0.14489 0.31235 0.45347 0.0
C898 C 0.11977 0.29529 0.45829 0.0
C899 C 0.05914 0.2914 0.47022 0.0
C900 C 0.99891 0.23531 0.51247 0.0
C901 C 0.02571 0.25191 0.50256 0.0
C902 C 0.10354 0.30261 0.48399 0.0
C903 C 0.07672 0.28475 0.48854 0.0
H904 H 0.96008 0.19838 0.63467 0.0
H905 H 1.00396 0.22168 0.61222 0.0
H906 H 0.02121 0.28138 0.46436 0.0
H907 H 0.14465 0.36318 0.51756 0.0
H908 H 0.10126 0.33359 0.52646 0.0
C909 C 0.36427 0.2506 0.6757 0.0
C910 C 0.35187 0.22503 0.67653 0.0
C911 C 0.35111 0.26294 0.67573 0.0
C912 C 0.28844 0.25397 0.70664 0.0
H913 H 0.31247 0.31193 0.59887 0.0
C914 C 0.23091 0.28943 0.56818 0.0
C915 C 0.24169 0.31475 0.56257 0.0
C916 C 0.24306 0.28005 0.60785 0.0
C917 C 0.30578 0.29608 0.63063 0.0
H918 H 0.31594 0.19226 0.67633 0.0
H919 H 0.29285 0.21359 0.67203 0.0
H920 H 0.33668 0.29208 0.609 0.0
H921 H 0.2719 0.35018 0.60132 0.0
H922 H 0.29333 0.33374 0.66997 0.0
H923 H 0.25654 0.25724 0.72318 0.0
C924 C 0.31279 0.22431 0.67432 0.0
C925 C 0.31968 0.28462 0.63644 0.0
C926 C 0.326 0.21201 0.67579 0.0
C927 C 0.26314 0.33058 0.60485 0.0
C928 C 0.27553 0.32119 0.64359 0.0
C929 C 0.2743 0.26523 0.69962 0.0
C930 C 0.32515 0.24999 0.67509 0.0
C931 C 0.31105 0.26315 0.67351 0.0
C932 C 0.26632 0.29587 0.64166 0.0
C933 C 0.28271 0.28622 0.66073 0.0
H934 H 0.38423 0.26117 0.67761 0.0
H935 H 0.3614 0.2827 0.67768 0.0
H936 H 0.28142 0.23783 0.73713 0.0
H937 H 0.21436 0.27687 0.53611 0.0
H938 H 0.23552 0.26047 0.60549 0.0
C939 C 0.8268 0.92261 0.3387 0.0
C940 C 0.8013 0.90731 0.32426 0.0
C941 C 0.83615 0.94576 0.37278 0.0
C942 C 0.81848 0.98802 0.46303 0.0
H943 H 0.8774 0.03734 0.37826 0.0
C944 C 0.85459 0.08922 0.53098 0.0
C945 C 0.87843 0.1005 0.56376 0.0
C946 C 0.84548 0.06744 0.48887 0.0
C947 C 0.86089 0.02377 0.40214 0.0
H948 H 0.7655 0.9033 0.34047 0.0
H949 H 0.78168 0.94367 0.39875 0.0
H950 H 0.86083 0.99433 0.34334 0.0
H951 H 0.91236 0.09968 0.57164 0.0
H952 H 0.89704 0.06251 0.49521 0.0
H953 H 0.81847 0.0177 0.52095 0.0
C954 C 0.79461 0.93792 0.38453 0.0
C955 C 0.85152 0.99903 0.38299 0.0
C956 C 0.78524 0.91456 0.35153 0.0
C957 C 0.8941 0.09163 0.54566 0.0
C958 C 0.88517 0.07011 0.50265 0.0
C959 C 0.82768 0.01279 0.48139 0.0
C960 C 0.82025 0.95433 0.3921 0.0
C961 C 0.83033 0.98073 0.4138 0.0
C962 C 0.86027 0.05692 0.47799 0.0
C963 C 0.8491 0.03094 0.45161 0.0
H964 H 0.83961 0.91749 0.31835 0.0
H965 H 0.85596 0.95743 0.38024 0.0
H966 H 0.80233 0.9746 0.48858 0.0
H967 H 0.84195 0.09538 0.54535 0.0
H968 H 0.82631 0.05785 0.4696 0.0
C969 C 0.95937 0.71231 0.52332 0.0
C970 C 0.95228 0.68762 0.51096 0.0
C971 C 0.98429 0.73055 0.52544 0.0
C972 C 0.04618 0.74106 0.47702 0.0
H973 H 0.06979 0.80106 0.59381 0.0
C974 C 0.14791 0.81385 0.48755 0.0
C975 C 0.15108 0.83524 0.4579 0.0
C976 C 0.12518 0.79699 0.51337 0.0
C977 C 0.06344 0.7843 0.56145 0.0
H978 H 0.96584 0.66266 0.49285 0.0
H979 H 0.00913 0.6941 0.49956 0.0
H980 H 0.02669 0.76863 0.59646 0.0
H981 H 0.1342 0.85732 0.44179 0.0
H982 H 0.09485 0.82827 0.48928 0.0
H983 H 0.08304 0.75669 0.44292 0.0
C984 C 0.99558 0.69971 0.50487 0.0
C985 C 0.03866 0.76577 0.56215 0.0
C986 C 0.97066 0.68156 0.50121 0.0
C987 C 0.1323 0.84099 0.4641 0.0
C988 C 0.10971 0.82429 0.49105 0.0
C989 C 0.07097 0.75932 0.47751 0.0
C990 C 1.00284 0.72453 0.51679 0.0
C991 C 0.02954 0.74397 0.51909 0.0
C992 C 0.10545 0.80149 0.51159 0.0
C993 C 0.07982 0.78125 0.51902 0.0
H994 H 0.94562 0.71757 0.5309 0.0
H995 H 0.98891 0.74938 0.53317 0.0
H996 H 0.04 0.72496 0.44174 0.0
H997 H 0.16192 0.80877 0.48351 0.0
H998 H 0.12246 0.77966 0.52985 0.0
loop_
_geom_bond_atom_site_label_1
_geom_bond_atom_site_label_2
_geom_bond_distance
_geom_bond_site_symmetry_2
_ccdc_geom_bond_type
O0 Mn1 2.163 . S
O0 C14 1.244 . S
Mn1 O0 2.163 . S
Mn1 O4 2.160 1_455 S
Mn1 O5 2.221 1_554 S
Mn1 O7 2.163 . S
Mn1 O9 2.160 1_455 S
Mn1 O19 2.221 . S
O2 Mn3 2.087 . S
O2 C14 1.256 . S
Mn3 O2 2.087 . S
Mn3 O10 2.089 1_455 S
Mn3 O19 2.290 . S
Mn3 O20 2.251 . S
O4 Mn1 2.160 1_655 S
O4 C15 1.239 . S
O5 Mn1 2.221 1_556 S
O5 Mn6 2.290 . S
O5 C16 1.278 . S
Mn6 O5 2.290 . S
Mn6 O8 2.119 . S
Mn6 O11 2.251 . S
Mn6 O12 2.087 1_556 S
O7 Mn1 2.163 . S
O7 C17 1.244 . S
O8 Mn6 2.119 . S
O8 C15 1.209 1_456 S
O9 Mn1 2.160 1_655 S
O9 C18 1.239 . S
O10 Mn3 2.089 1_655 S
O10 C18 1.256 . S
O11 Mn6 2.251 . S
O11 C16 1.241 . S
O12 Mn6 2.087 1_554 S
O12 C17 1.256 . S
C13 O19 1.278 . S
C13 O20 1.241 . S
C14 O0 1.244 . S
C14 O2 1.256 . S
C15 O4 1.239 . S
C15 O8 1.209 1_654 S
C16 O5 1.278 . S
C16 O11 1.241 . S
C17 O7 1.244 . S
C17 O12 1.256 . S
C18 O9 1.239 . S
C18 O10 1.256 . S
O19 Mn1 2.221 . S
O19 Mn3 2.290 . S
O19 C13 1.278 . S
O20 Mn3 2.251 . S
O20 C13 1.241 . S
O21 Mn22 2.163 . S
O21 C35 1.244 . S
Mn22 O21 2.163 . S
Mn22 O25 2.160 . S
Mn22 O26 2.221 . S
Mn22 O28 2.163 . S
Mn22 O30 2.160 . S
Mn22 O40 2.221 1_554 S
O23 Mn24 2.087 . S
O23 C35 1.256 1_556 S
Mn24 O23 2.087 . S
Mn24 O31 2.089 1_556 S
Mn24 O40 2.290 . S
Mn24 O41 2.251 . S
O25 Mn22 2.160 . S
O25 C36 1.239 . S
O26 Mn22 2.221 . S
O26 Mn27 2.290 . S
O26 C37 1.278 . S
Mn27 O26 2.290 . S
Mn27 O29 2.089 . S
Mn27 O32 2.251 . S
Mn27 O33 2.087 . S
O28 Mn22 2.163 . S
O28 C38 1.244 . S
O29 Mn27 2.089 . S
O29 C36 1.256 . S
O30 Mn22 2.160 . S
O30 C39 1.239 . S
O31 Mn24 2.089 1_554 S
O31 C39 1.256 . S
O32 Mn27 2.251 . S
O32 C37 1.241 . S
O33 Mn27 2.087 . S
O33 C38 1.256 . S
C34 O40 1.278 . S
C34 O41 1.241 . S
C35 O21 1.244 . S
C35 O23 1.256 1_554 S
C36 O25 1.239 . S
C36 O29 1.256 . S
C37 O26 1.278 . S
C37 O32 1.241 . S
C38 O28 1.244 . S
C38 O33 1.256 . S
C39 O30 1.239 . S
C39 O31 1.256 . S
O40 Mn22 2.221 1_556 S
O40 Mn24 2.290 . S
O40 C34 1.278 . S
O41 Mn24 2.251 . S
O41 C34 1.241 . S
O42 Mn43 2.161 . S
O42 C56 1.246 1_545 S
Mn43 O42 2.161 . S
Mn43 O46 2.160 . S
Mn43 O47 2.221 1_554 S
Mn43 O49 2.163 . S
Mn43 O51 2.160 . S
Mn43 O61 2.221 . S
O44 Mn45 2.087 . S
O44 C56 1.256 1_545 S
Mn45 O44 2.087 . S
Mn45 O52 2.089 . S
Mn45 O61 2.290 . S
Mn45 O62 2.251 . S
O46 Mn43 2.160 . S
O46 C57 1.239 . S
O47 Mn43 2.221 1_556 S
O47 Mn48 2.290 . S
O47 C58 1.278 . S
Mn48 O47 2.290 . S
Mn48 O50 2.089 1_556 S
Mn48 O53 2.251 1_545 S
Mn48 O54 2.087 1_546 S
O49 Mn43 2.163 . S
O49 C59 1.244 1_545 S
O50 Mn48 2.089 1_554 S
O50 C57 1.256 . S
O51 Mn43 2.160 . S
O51 C60 1.239 . S
O52 Mn45 2.089 . S
O52 C60 1.256 . S
O53 Mn48 2.251 1_565 S
O53 C58 1.241 1_565 S
O54 Mn48 2.087 1_564 S
O54 C59 1.256 . S
C55 O61 1.278 . S
C55 O62 1.241 . S
C56 O42 1.246 1_565 S
C56 O44 1.256 1_565 S
C57 O46 1.239 . S
C57 O50 1.256 . S
C58 O47 1.278 . S
C58 O53 1.241 1_545 S
C59 O49 1.244 1_565 S
C59 O54 1.256 . S
C60 O51 1.239 . S
C60 O52 1.256 . S
O61 Mn43 2.221 . S
O61 Mn45 2.290 . S
O61 C55 1.278 . S
O62 Mn45 2.251 . S
O62 C55 1.241 . S
O63 Mn64 2.163 . S
O63 C77 1.244 . S
Mn64 O63 2.163 . S
Mn64 O67 2.160 . S
Mn64 O68 2.221 . S
Mn64 O70 2.163 . S
Mn64 O72 2.160 . S
Mn64 O82 2.221 . S
O65 Mn66 2.087 . S
O65 C77 1.256 . S
Mn66 O65 2.087 . S
Mn66 O73 2.089 . S
Mn66 O82 2.290 . S
Mn66 O83 2.251 . S
O67 Mn64 2.160 . S
O67 C78 1.239 . S
O68 Mn64 2.221 . S
O68 Mn69 2.290 . S
O68 C79 1.278 . S
Mn69 O68 2.290 . S
Mn69 O71 2.089 . S
Mn69 O74 2.251 . S
Mn69 O75 2.087 . S
O70 Mn64 2.163 . S
O70 C80 1.244 . S
O71 Mn69 2.089 . S
O71 C78 1.256 . S
O72 Mn64 2.160 . S
O72 C81 1.239 . S
O73 Mn66 2.089 . S
O73 C81 1.256 . S
O74 Mn69 2.251 . S
O74 C79 1.241 . S
O75 Mn69 2.087 . S
O75 C80 1.256 . S
C76 O82 1.278 . S
C76 O83 1.241 . S
C77 O63 1.244 . S
C77 O65 1.256 . S
C78 O67 1.239 . S
C78 O71 1.256 . S
C79 O68 1.278 . S
C79 O74 1.241 . S
C80 O70 1.244 . S
C80 O75 1.256 . S
C81 O72 1.239 . S
C81 O73 1.256 . S
O82 Mn64 2.221 . S
O82 Mn66 2.290 . S
O82 C76 1.278 . S
O83 Mn66 2.251 . S
O83 C76 1.241 . S
O84 Mn85 2.163 . S
O84 C98 1.244 . S
Mn85 O84 2.163 . S
Mn85 O88 2.160 . S
Mn85 O89 2.221 . S
Mn85 O91 2.163 . S
Mn85 O93 2.160 . S
Mn85 O103 2.221 . S
O86 Mn87 2.087 . S
O86 C98 1.256 . S
Mn87 O86 2.087 . S
Mn87 O94 2.089 . S
Mn87 O103 2.290 . S
Mn87 O104 2.251 . S
O88 Mn85 2.160 . S
O88 C99 1.239 . S
O89 Mn85 2.221 . S
O89 Mn90 2.290 . S
O89 C100 1.278 . S
Mn90 O89 2.290 . S
Mn90 O92 2.089 . S
Mn90 O95 2.251 . S
Mn90 O96 2.087 . S
O91 Mn85 2.163 . S
O91 C101 1.244 . S
O92 Mn90 2.089 . S
O92 C99 1.256 . S
O93 Mn85 2.160 . S
O93 C102 1.239 . S
O94 Mn87 2.089 . S
O94 C102 1.256 . S
O95 Mn90 2.251 . S
O95 C100 1.241 . S
O96 Mn90 2.087 . S
O96 C101 1.256 . S
C97 O103 1.278 . S
C97 O104 1.241 . S
C98 O84 1.244 . S
C98 O86 1.256 . S
C99 O88 1.239 . S
C99 O92 1.256 . S
C100 O89 1.278 . S
C100 O95 1.241 . S
C101 O91 1.244 . S
C101 O96 1.256 . S
C102 O93 1.239 . S
C102 O94 1.256 . S
O103 Mn85 2.221 . S
O103 Mn87 2.290 . S
O103 C97 1.278 . S
O104 Mn87 2.251 . S
O104 C97 1.241 . S
O105 Mn106 2.163 . S
O105 C119 1.244 . S
Mn106 O105 2.163 . S
Mn106 O109 2.160 . S
Mn106 O110 2.221 . S
Mn106 O112 2.163 . S
Mn106 O114 2.160 . S
Mn106 O124 2.221 . S
O107 Mn108 2.087 . S
O107 C119 1.256 . S
Mn108 O107 2.087 . S
Mn108 O115 2.089 . S
Mn108 O124 2.290 . S
Mn108 O125 2.251 . S
O109 Mn106 2.160 . S
O109 C120 1.239 . S
O110 Mn106 2.221 . S
O110 Mn111 2.290 . S
O110 C121 1.278 . S
Mn111 O110 2.290 . S
Mn111 O113 2.089 . S
Mn111 O116 2.251 . S
Mn111 O117 2.087 . S
O112 Mn106 2.163 . S
O112 C122 1.244 . S
O113 Mn111 2.089 . S
O113 C120 1.256 . S
O114 Mn106 2.160 . S
O114 C123 1.239 . S
O115 Mn108 2.089 . S
O115 C123 1.256 . S
O116 Mn111 2.251 . S
O116 C121 1.241 . S
O117 Mn111 2.087 . S
O117 C122 1.256 . S
C118 O124 1.278 . S
C118 O125 1.241 . S
C119 O105 1.244 . S
C119 O107 1.256 . S
C120 O109 1.239 . S
C120 O113 1.256 . S
C121 O110 1.278 . S
C121 O116 1.241 . S
C122 O112 1.244 . S
C122 O117 1.256 . S
C123 O114 1.239 . S
C123 O115 1.256 . S
O124 Mn106 2.221 . S
O124 Mn108 2.290 . S
O124 C118 1.278 . S
O125 Mn108 2.251 . S
O125 C118 1.241 . S
O126 Mn127 2.163 . S
O126 C140 1.244 . S
Mn127 O126 2.163 . S
Mn127 O130 2.160 . S
Mn127 O131 2.221 . S
Mn127 O133 2.163 . S
Mn127 O135 2.160 . S
Mn127 O145 2.221 . S
O128 Mn129 2.087 . S
O128 C140 1.256 . S
Mn129 O128 2.087 . S
Mn129 O136 2.089 . S
Mn129 O145 2.290 . S
Mn129 O146 2.251 . S
O130 Mn127 2.160 . S
O130 C141 1.239 . S
O131 Mn127 2.221 . S
O131 Mn132 2.290 . S
O131 C142 1.278 . S
Mn132 O131 2.290 . S
Mn132 O134 2.089 . S
Mn132 O137 2.251 . S
Mn132 O138 2.087 . S
O133 Mn127 2.163 . S
O133 C143 1.244 . S
O134 Mn132 2.089 . S
O134 C141 1.256 . S
O135 Mn127 2.160 . S
O135 C144 1.239 . S
O136 Mn129 2.089 . S
O136 C144 1.256 . S
O137 Mn132 2.251 . S
O137 C142 1.241 . S
O138 Mn132 2.087 . S
O138 C143 1.256 . S
C139 O145 1.278 . S
C139 O146 1.241 . S
C140 O126 1.244 . S
C140 O128 1.256 . S
C141 O130 1.239 . S
C141 O134 1.256 . S
C142 O131 1.278 . S
C142 O137 1.241 . S
C143 O133 1.244 . S
C143 O138 1.256 . S
C144 O135 1.239 . S
C144 O136 1.256 . S
O145 Mn127 2.221 . S
O145 Mn129 2.290 . S
O145 C139 1.278 . S
O146 Mn129 2.251 . S
O146 C139 1.241 . S
O147 Mn148 2.163 . S
O147 C161 1.244 . S
Mn148 O147 2.163 . S
Mn148 O151 2.160 . S
Mn148 O152 2.221 . S
Mn148 O154 2.163 . S
Mn148 O156 2.160 . S
Mn148 O166 2.221 . S
O149 Mn150 2.087 . S
O149 C161 1.256 . S
Mn150 O149 2.087 . S
Mn150 O157 2.089 . S
Mn150 O166 2.290 . S
Mn150 O167 2.251 . S
O151 Mn148 2.160 . S
O151 C162 1.239 . S
O152 Mn148 2.221 . S
O152 Mn153 2.290 . S
O152 C163 1.278 . S
Mn153 O152 2.290 . S
Mn153 O155 2.089 . S
Mn153 O158 2.251 . S
Mn153 O159 2.087 . S
O154 Mn148 2.163 . S
O154 C164 1.244 . S
O155 Mn153 2.089 . S
O155 C162 1.256 . S
O156 Mn148 2.160 . S
O156 C165 1.239 . S
O157 Mn150 2.089 . S
O157 C165 1.256 . S
O158 Mn153 2.251 . S
O158 C163 1.241 . S
O159 Mn153 2.087 . S
O159 C164 1.256 . S
C160 O166 1.278 . S
C160 O167 1.241 . S
C161 O147 1.244 . S
C161 O149 1.256 . S
C162 O151 1.239 . S
C162 O155 1.256 . S
C163 O152 1.278 . S
C163 O158 1.241 . S
C164 O154 1.244 . S
C164 O159 1.256 . S
C165 O156 1.239 . S
C165 O157 1.256 . S
O166 Mn148 2.221 . S
O166 Mn150 2.290 . S
O166 C160 1.278 . S
O167 Mn150 2.251 . S
O167 C160 1.241 . S
O168 Mn169 2.163 . S
O168 C182 1.244 . S
Mn169 O168 2.163 . S
Mn169 O172 2.160 . S
Mn169 O173 2.221 . S
Mn169 O175 2.163 . S
Mn169 O177 2.160 . S
Mn169 O187 2.221 . S
O170 Mn171 2.087 . S
O170 C182 1.256 . S
Mn171 O170 2.087 . S
Mn171 O178 2.089 . S
Mn171 O187 2.290 . S
Mn171 O188 2.251 . S
O172 Mn169 2.160 . S
O172 C183 1.239 . S
O173 Mn169 2.221 . S
O173 Mn174 2.290 . S
O173 C184 1.278 . S
Mn174 O173 2.290 . S
Mn174 O176 2.089 . S
Mn174 O179 2.251 . S
Mn174 O180 2.087 . S
O175 Mn169 2.163 . S
O175 C185 1.244 . S
O176 Mn174 2.089 . S
O176 C183 1.256 . S
O177 Mn169 2.160 . S
O177 C186 1.239 . S
O178 Mn171 2.089 . S
O178 C186 1.256 . S
O179 Mn174 2.251 . S
O179 C184 1.241 . S
O180 Mn174 2.087 . S
O180 C185 1.256 . S
C181 O187 1.278 . S
C181 O188 1.241 . S
C182 O168 1.244 . S
C182 O170 1.256 . S
C183 O172 1.239 . S
C183 O176 1.256 . S
C184 O173 1.278 . S
C184 O179 1.241 . S
C185 O175 1.244 . S
C185 O180 1.256 . S
C186 O177 1.239 . S
C186 O178 1.256 . S
O187 Mn169 2.221 . S
O187 Mn171 2.290 . S
O187 C181 1.278 . S
O188 Mn171 2.251 . S
O188 C181 1.241 . S
C189 C190 1.349 . S
C189 C191 1.327 . S
C189 H214 0.950 . S
C190 C189 1.349 . S
C190 C206 1.349 . S
C191 C189 1.327 . S
C191 C210 1.429 . S
C191 H215 0.950 . S
C192 C209 1.574 . S
C192 C211 1.368 . S
C192 H216 0.949 1_455 S
H193 C197 0.949 . S
C194 C195 1.349 1_655 S
C194 C196 1.327 . S
C194 H217 0.950 . S
C195 C194 1.349 1_455 S
C195 C207 1.349 . S
C196 C194 1.327 . S
C196 C212 1.429 1_655 S
C196 H218 0.950 . S
C197 H193 0.949 . S
C197 C205 1.574 . S
C197 C213 1.368 . S
H198 C206 0.950 . S
H199 C204 0.971 . S
H200 C205 0.949 . S
H201 C207 0.950 . S
H202 C208 0.950 . S
H203 C209 0.949 1_655 S
C204 H199 0.971 . S
C204 C206 1.327 . S
C204 C210 1.429 . S
C205 C197 1.574 . S
C205 H200 0.949 . S
C205 C211 1.368 . S
C206 C190 1.349 . S
C206 H198 0.950 . S
C206 C204 1.327 . S
C207 C195 1.349 . S
C207 H201 0.950 . S
C207 C208 1.327 . S
C208 H202 0.950 . S
C208 C207 1.327 . S
C208 C212 1.429 . S
C209 C192 1.574 . S
C209 H203 0.949 1_455 S
C209 C213 1.368 . S
C210 C191 1.429 . S
C210 C204 1.429 . S
C210 C211 1.523 . S
C211 C192 1.368 . S
C211 C205 1.368 . S
C211 C210 1.523 . S
C212 C196 1.429 1_455 S
C212 C208 1.429 . S
C212 C213 1.523 . S
C213 C197 1.368 . S
C213 C209 1.368 . S
C213 C212 1.523 . S
H214 C189 0.950 . S
H215 C191 0.950 . S
H216 C192 0.949 1_655 S
H217 C194 0.950 . S
H218 C196 0.950 . S
C219 C220 1.349 . S
C219 C221 1.327 . S
C219 H244 0.950 . S
C220 C219 1.349 . S
C220 C236 1.349 . S
C221 C219 1.327 . S
C221 C240 1.429 . S
C221 H245 0.950 . S
C222 C239 1.574 . S
C222 C241 1.368 . S
C222 H246 0.949 . S
H223 C227 0.949 . S
C224 C225 1.349 . S
C224 C226 1.327 . S
C224 H247 0.950 . S
C225 C224 1.349 . S
C225 C237 1.349 . S
C226 C224 1.327 . S
C226 C242 1.429 . S
C226 H248 0.950 . S
C227 H223 0.949 . S
C227 C235 1.574 . S
C227 C243 1.368 . S
H228 C236 0.950 . S
H229 C234 0.950 . S
H230 C235 0.949 . S
H231 C237 0.950 . S
H232 C238 0.950 . S
H233 C239 0.949 . S
C234 H229 0.950 . S
C234 C236 1.327 . S
C234 C240 1.429 . S
C235 C227 1.574 . S
C235 H230 0.949 . S
C235 C241 1.368 . S
C236 C220 1.349 . S
C236 H228 0.950 . S
C236 C234 1.327 . S
C237 C225 1.349 . S
C237 H231 0.950 . S
C237 C238 1.327 . S
C238 H232 0.950 . S
C238 C237 1.327 . S
C238 C242 1.429 . S
C239 C222 1.574 . S
C239 H233 0.949 . S
C239 C243 1.368 . S
C240 C221 1.429 . S
C240 C234 1.429 . S
C240 C241 1.523 . S
C241 C222 1.368 . S
C241 C235 1.368 . S
C241 C240 1.523 . S
C242 C226 1.429 . S
C242 C238 1.429 . S
C242 C243 1.523 . S
C243 C227 1.368 . S
C243 C239 1.368 . S
C243 C242 1.523 . S
H244 C219 0.950 . S
H245 C221 0.950 . S
H246 C222 0.949 . S
H247 C224 0.950 . S
H248 C226 0.950 . S
C249 C250 1.349 1_565 S
C249 C251 1.327 . S
C249 H274 0.950 . S
C250 C249 1.349 1_545 S
C250 C266 1.349 . S
C251 C249 1.327 . S
C251 C270 1.429 1_565 S
C251 H275 0.950 . S
C252 C269 1.574 . S
C252 C271 1.368 . S
C252 H276 0.949 . S
H253 C257 0.944 1_565 S
C254 C255 1.349 . S
C254 C256 1.327 . S
C254 H277 0.950 . S
C255 C254 1.349 . S
C255 C267 1.349 . S
C256 C254 1.327 . S
C256 C272 1.429 . S
C256 H278 0.950 . S
C257 H253 0.944 1_545 S
C257 C265 1.571 1_545 S
C257 C273 1.377 . S
H258 C266 0.950 . S
H259 C264 0.950 . S
H260 C265 0.949 . S
H261 C267 0.968 . S
H262 C268 0.950 1_565 S
H263 C269 0.949 . S
C264 H259 0.950 . S
C264 C266 1.327 . S
C264 C270 1.429 . S
C265 C257 1.571 1_565 S
C265 H260 0.949 . S
C265 C271 1.368 1_565 S
C266 C250 1.349 . S
C266 H258 0.950 . S
C266 C264 1.327 . S
C267 C255 1.349 . S
C267 H261 0.968 . S
C267 C268 1.327 . S
C268 H262 0.950 1_545 S
C268 C267 1.327 . S
C268 C272 1.429 . S
C269 C252 1.574 . S
C269 H263 0.949 . S
C269 C273 1.368 . S
C270 C251 1.429 1_545 S
C270 C264 1.429 . S
C270 C271 1.523 . S
C271 C252 1.368 . S
C271 C265 1.368 1_545 S
C271 C270 1.523 . S
C272 C256 1.429 . S
C272 C268 1.429 . S
C272 C273 1.523 . S
C273 C257 1.377 . S
C273 C269 1.368 . S
C273 C272 1.523 . S
H274 C249 0.950 . S
H275 C251 0.950 . S
H276 C252 0.949 . S
H277 C254 0.950 . S
H278 C256 0.950 . S
C279 C280 1.349 . S
C279 C281 1.327 . S
C279 H304 0.950 . S
C280 C279 1.349 . S
C280 C296 1.349 . S
C281 C279 1.327 . S
C281 C300 1.429 . S
C281 H305 0.950 . S
C282 C299 1.574 . S
C282 C301 1.368 . S
C282 H306 0.949 . S
H283 C287 0.949 . S
C284 C285 1.349 1_556 S
C284 C286 1.327 . S
C284 H307 0.950 1_556 S
C285 C284 1.349 1_554 S
C285 C297 1.349 1_554 S
C286 C284 1.327 . S
C286 C302 1.429 . S
C286 H308 0.950 . S
C287 H283 0.949 . S
C287 C295 1.574 . S
C287 C303 1.368 . S
H288 C296 0.950 . S
H289 C294 0.950 . S
H290 C295 0.949 . S
H291 C297 0.950 1_554 S
H292 C298 0.950 . S
H293 C299 0.949 . S
C294 H289 0.950 . S
C294 C296 1.327 . S
C294 C300 1.429 . S
C295 C287 1.574 . S
C295 H290 0.949 . S
C295 C301 1.368 . S
C296 C280 1.349 . S
C296 H288 0.950 . S
C296 C294 1.327 . S
C297 C285 1.349 1_556 S
C297 H291 0.950 1_556 S
C297 C298 1.327 . S
C298 H292 0.950 . S
C298 C297 1.327 . S
C298 C302 1.429 . S
C299 C282 1.574 . S
C299 H293 0.949 . S
C299 C303 1.368 . S
C300 C281 1.429 . S
C300 C294 1.429 . S
C300 C301 1.523 . S
C301 C282 1.368 . S
C301 C295 1.368 . S
C301 C300 1.523 . S
C302 C286 1.429 . S
C302 C298 1.429 . S
C302 C303 1.523 . S
C303 C287 1.368 . S
C303 C299 1.368 . S
C303 C302 1.523 . S
H304 C279 0.950 . S
H305 C281 0.950 . S
H306 C282 0.949 . S
H307 C284 0.950 1_554 S
H308 C286 0.950 . S
C309 C310 1.349 . S
C309 C311 1.327 . S
C309 H334 0.950 . S
C310 C309 1.349 . S
C310 C326 1.349 . S
C311 C309 1.327 . S
C311 C330 1.429 . S
C311 H335 0.950 . S
C312 C329 1.574 . S
C312 C331 1.368 . S
C312 H336 0.949 . S
H313 C317 0.949 . S
C314 C315 1.349 . S
C314 C316 1.327 1_554 S
C314 H337 0.950 . S
C315 C314 1.349 . S
C315 C327 1.349 . S
C316 C314 1.327 1_556 S
C316 C332 1.429 . S
C316 H338 0.950 . S
C317 H313 0.949 . S
C317 C325 1.574 . S
C317 C333 1.368 . S
H318 C326 0.950 . S
H319 C324 0.950 . S
H320 C325 0.949 . S
H321 C327 0.950 . S
H322 C328 0.950 . S
H323 C329 0.949 . S
C324 H319 0.950 . S
C324 C326 1.327 . S
C324 C330 1.429 . S
C325 C317 1.574 . S
C325 H320 0.949 . S
C325 C331 1.368 . S
C326 C310 1.349 . S
C326 H318 0.950 . S
C326 C324 1.327 . S
C327 C315 1.349 . S
C327 H321 0.950 . S
C327 C328 1.327 1_554 S
C328 H322 0.950 . S
C328 C327 1.327 1_556 S
C328 C332 1.429 . S
C329 C312 1.574 . S
C329 H323 0.949 . S
C329 C333 1.368 . S
C330 C311 1.429 . S
C330 C324 1.429 . S
C330 C331 1.523 . S
C331 C312 1.368 . S
C331 C325 1.368 . S
C331 C330 1.523 . S
C332 C316 1.429 . S
C332 C328 1.429 . S
C332 C333 1.523 . S
C333 C317 1.368 . S
C333 C329 1.368 . S
C333 C332 1.523 . S
H334 C309 0.950 . S
H335 C311 0.950 . S
H336 C312 0.949 . S
H337 C314 0.950 . S
H338 C316 0.950 . S
C339 C340 1.349 . S
C339 C341 1.327 . S
C339 H364 0.950 . S
C340 C339 1.349 . S
C340 C356 1.349 . S
C341 C339 1.327 . S
C341 C360 1.429 . S
C341 H365 0.950 . S
C342 C359 1.574 . S
C342 C361 1.368 . S
C342 H366 0.949 . S
H343 C347 0.949 . S
C344 C345 1.349 . S
C344 C346 1.327 1_554 S
C344 H367 0.950 . S
C345 C344 1.349 . S
C345 C357 1.349 . S
C346 C344 1.327 1_556 S
C346 C362 1.429 . S
C346 H368 0.950 . S
C347 H343 0.949 . S
C347 C355 1.574 . S
C347 C363 1.368 . S
H348 C356 0.950 . S
H349 C354 0.950 . S
H350 C355 0.949 . S
H351 C357 0.950 . S
H352 C358 0.950 1_556 S
H353 C359 0.949 . S
C354 H349 0.950 . S
C354 C356 1.327 . S
C354 C360 1.429 . S
C355 C347 1.574 . S
C355 H350 0.949 . S
C355 C361 1.368 . S
C356 C340 1.349 . S
C356 H348 0.950 . S
C356 C354 1.327 . S
C357 C345 1.349 . S
C357 H351 0.950 . S
C357 C358 1.327 . S
C358 H352 0.950 1_554 S
C358 C357 1.327 . S
C358 C362 1.429 1_554 S
C359 C342 1.574 . S
C359 H353 0.949 . S
C359 C363 1.368 . S
C360 C341 1.429 . S
C360 C354 1.429 . S
C360 C361 1.523 . S
C361 C342 1.368 . S
C361 C355 1.368 . S
C361 C360 1.523 . S
C362 C346 1.429 . S
C362 C358 1.429 1_556 S
C362 C363 1.523 . S
C363 C347 1.368 . S
C363 C359 1.368 . S
C363 C362 1.523 . S
H364 C339 0.950 . S
H365 C341 0.950 . S
H366 C342 0.949 . S
H367 C344 0.950 . S
H368 C346 0.950 . S
C369 C370 1.349 . S
C369 C371 1.327 . S
C369 H394 0.950 . S
C370 C369 1.349 . S
C370 C386 1.349 . S
C371 C369 1.327 . S
C371 C390 1.429 . S
C371 H395 0.950 . S
C372 C389 1.574 . S
C372 C391 1.368 . S
C372 H396 0.949 . S
H373 C377 0.949 . S
C374 C375 1.349 . S
C374 C376 1.327 1_556 S
C374 H397 0.950 . S
C375 C374 1.349 . S
C375 C387 1.349 . S
C376 C374 1.327 1_554 S
C376 C392 1.429 . S
C376 H398 0.950 . S
C377 H373 0.949 . S
C377 C385 1.574 . S
C377 C393 1.368 . S
H378 C386 0.950 . S
H379 C384 0.950 . S
H380 C385 0.949 . S
H381 C387 0.950 . S
H382 C388 0.950 . S
H383 C389 0.949 . S
C384 H379 0.950 . S
C384 C386 1.327 . S
C384 C390 1.429 . S
C385 C377 1.574 . S
C385 H380 0.949 . S
C385 C391 1.368 . S
C386 C370 1.349 . S
C386 H378 0.950 . S
C386 C384 1.327 . S
C387 C375 1.349 . S
C387 H381 0.950 . S
C387 C388 1.327 1_556 S
C388 H382 0.950 . S
C388 C387 1.327 1_554 S
C388 C392 1.429 . S
C389 C372 1.574 . S
C389 H383 0.949 . S
C389 C393 1.368 . S
C390 C371 1.429 . S
C390 C384 1.429 . S
C390 C391 1.523 . S
C391 C372 1.368 . S
C391 C385 1.368 . S
C391 C390 1.523 . S
C392 C376 1.429 . S
C392 C388 1.429 . S
C392 C393 1.523 . S
C393 C377 1.368 . S
C393 C389 1.368 . S
C393 C392 1.523 . S
H394 C369 0.950 . S
H395 C371 0.950 . S
H396 C372 0.949 . S
H397 C374 0.950 . S
H398 C376 0.950 . S
C399 C400 1.349 . S
C399 C401 1.327 . S
C399 H424 0.950 . S
C400 C399 1.349 . S
C400 C416 1.349 . S
C401 C399 1.327 . S
C401 C420 1.429 . S
C401 H425 0.950 . S
C402 C419 1.574 . S
C402 C421 1.368 . S
C402 H426 0.949 . S
H403 C407 0.949 . S
C404 C405 1.349 . S
C404 C406 1.327 . S
C404 H427 0.950 . S
C405 C404 1.349 . S
C405 C417 1.349 . S
C406 C404 1.327 . S
C406 C422 1.429 . S
C406 H428 0.950 . S
C407 H403 0.949 . S
C407 C415 1.574 . S
C407 C423 1.368 . S
H408 C416 0.950 . S
H409 C414 0.950 . S
H410 C415 0.949 . S
H411 C417 0.950 . S
H412 C418 0.950 . S
H413 C419 0.949 . S
C414 H409 0.950 . S
C414 C416 1.327 . S
C414 C420 1.429 . S
C415 C407 1.574 . S
C415 H410 0.949 . S
C415 C421 1.368 . S
C416 C400 1.349 . S
C416 H408 0.950 . S
C416 C414 1.327 . S
C417 C405 1.349 . S
C417 H411 0.950 . S
C417 C418 1.327 . S
C418 H412 0.950 . S
C418 C417 1.327 . S
C418 C422 1.429 . S
C419 C402 1.574 . S
C419 H413 0.949 . S
C419 C423 1.368 . S
C420 C401 1.429 . S
C420 C414 1.429 . S
C420 C421 1.523 . S
C421 C402 1.368 . S
C421 C415 1.368 . S
C421 C420 1.523 . S
C422 C406 1.429 . S
C422 C418 1.429 . S
C422 C423 1.523 1_556 S
C423 C407 1.368 . S
C423 C419 1.368 . S
C423 C422 1.523 1_554 S
H424 C399 0.950 . S
H425 C401 0.950 . S
H426 C402 0.949 . S
H427 C404 0.950 . S
H428 C406 0.950 . S
C429 C430 1.349 . S
C429 C431 1.327 . S
C429 H454 0.950 . S
C430 C429 1.349 . S
C430 C446 1.349 . S
C431 C429 1.327 . S
C431 C450 1.429 . S
C431 H455 0.950 . S
C432 C449 1.574 . S
C432 C451 1.368 . S
C432 H456 0.949 . S
H433 C437 0.949 . S
C434 C435 1.349 . S
C434 C436 1.327 . S
C434 H457 0.950 . S
C435 C434 1.349 . S
C435 C447 1.349 . S
C436 C434 1.327 . S
C436 C452 1.429 . S
C436 H458 0.950 . S
C437 H433 0.949 . S
C437 C445 1.574 . S
C437 C453 1.368 . S
H438 C446 0.950 . S
H439 C444 0.950 . S
H440 C445 0.949 . S
H441 C447 0.950 . S
H442 C448 0.950 . S
H443 C449 0.949 . S
C444 H439 0.950 . S
C444 C446 1.327 . S
C444 C450 1.429 . S
C445 C437 1.574 . S
C445 H440 0.949 . S
C445 C451 1.368 . S
C446 C430 1.349 . S
C446 H438 0.950 . S
C446 C444 1.327 . S
C447 C435 1.349 . S
C447 H441 0.950 . S
C447 C448 1.327 . S
C448 H442 0.950 . S
C448 C447 1.327 . S
C448 C452 1.429 . S
C449 C432 1.574 . S
C449 H443 0.949 . S
C449 C453 1.368 . S
C450 C431 1.429 . S
C450 C444 1.429 . S
C450 C451 1.523 . S
C451 C432 1.368 . S
C451 C445 1.368 . S
C451 C450 1.523 . S
C452 C436 1.429 . S
C452 C448 1.429 . S
C452 C453 1.523 1_556 S
C453 C437 1.368 . S
C453 C449 1.368 . S
C453 C452 1.523 1_554 S
H454 C429 0.950 . S
H455 C431 0.950 . S
H456 C432 0.949 . S
H457 C434 0.950 . S
H458 C436 0.950 . S
C459 C460 1.349 . S
C459 C461 1.327 . S
C459 H484 0.950 . S
C460 C459 1.349 . S
C460 C476 1.349 . S
C461 C459 1.327 . S
C461 C480 1.429 . S
C461 H485 0.950 . S
C462 C479 1.574 . S
C462 C481 1.368 . S
C462 H486 0.949 . S
H463 C467 0.949 . S
C464 C465 1.349 . S
C464 C466 1.327 . S
C464 H487 0.950 . S
C465 C464 1.349 . S
C465 C477 1.349 . S
C466 C464 1.327 . S
C466 C482 1.429 . S
C466 H488 0.950 . S
C467 H463 0.949 . S
C467 C475 1.574 . S
C467 C483 1.368 . S
H468 C476 0.950 . S
H469 C474 0.950 . S
H470 C475 0.949 . S
H471 C477 0.950 . S
H472 C478 0.950 . S
H473 C479 0.949 . S
C474 H469 0.950 . S
C474 C476 1.327 . S
C474 C480 1.429 . S
C475 C467 1.574 . S
C475 H470 0.949 . S
C475 C481 1.368 . S
C476 C460 1.349 . S
C476 H468 0.950 . S
C476 C474 1.327 . S
C477 C465 1.349 . S
C477 H471 0.950 . S
C477 C478 1.327 . S
C478 H472 0.950 . S
C478 C477 1.327 . S
C478 C482 1.429 . S
C479 C462 1.574 . S
C479 H473 0.949 . S
C479 C483 1.368 . S
C480 C461 1.429 . S
C480 C474 1.429 . S
C480 C481 1.523 . S
C481 C462 1.368 . S
C481 C475 1.368 . S
C481 C480 1.523 . S
C482 C466 1.429 . S
C482 C478 1.429 . S
C482 C483 1.523 . S
C483 C467 1.368 . S
C483 C479 1.368 . S
C483 C482 1.523 . S
H484 C459 0.950 . S
H485 C461 0.950 . S
H486 C462 0.949 . S
H487 C464 0.950 . S
H488 C466 0.950 . S
C489 C490 1.349 . S
C489 C491 1.327 . S
C489 H514 0.950 . S
C490 C489 1.349 . S
C490 C506 1.349 . S
C491 C489 1.327 . S
C491 C510 1.429 . S
C491 H515 0.950 . S
C492 C509 1.574 . S
C492 C511 1.368 . S
C492 H516 0.949 . S
H493 C497 0.949 . S
C494 C495 1.349 . S
C494 C496 1.327 . S
C494 H517 0.950 . S
C495 C494 1.349 . S
C495 C507 1.349 . S
C496 C494 1.327 . S
C496 C512 1.429 . S
C496 H518 0.950 . S
C497 H493 0.949 . S
C497 C505 1.574 . S
C497 C513 1.368 . S
H498 C506 0.940 1_556 S
H499 C504 0.950 . S
H500 C505 0.949 . S
H501 C507 0.950 . S
H502 C508 0.950 . S
H503 C509 0.949 . S
C504 H499 0.950 . S
C504 C506 1.327 . S
C504 C510 1.429 . S
C505 C497 1.574 . S
C505 H500 0.949 . S
C505 C511 1.368 . S
C506 C490 1.349 . S
C506 H498 0.940 1_554 S
C506 C504 1.327 . S
C507 C495 1.349 . S
C507 H501 0.950 . S
C507 C508 1.327 . S
C508 H502 0.950 . S
C508 C507 1.327 . S
C508 C512 1.429 . S
C509 C492 1.574 . S
C509 H503 0.949 . S
C509 C513 1.368 . S
C510 C491 1.429 . S
C510 C504 1.429 . S
C510 C511 1.523 . S
C511 C492 1.368 . S
C511 C505 1.368 . S
C511 C510 1.523 . S
C512 C496 1.429 . S
C512 C508 1.429 . S
C512 C513 1.523 . S
C513 C497 1.368 . S
C513 C509 1.368 . S
C513 C512 1.523 . S
H514 C489 0.950 . S
H515 C491 0.950 . S
H516 C492 0.949 . S
H517 C494 0.950 . S
H518 C496 0.950 . S
C519 C520 1.349 . S
C519 C521 1.327 . S
C519 H544 0.916 1_565 S
C520 C519 1.349 . S
C520 C536 1.349 . S
C521 C519 1.327 . S
C521 C540 1.429 . S
C521 H545 0.950 . S
C522 C539 1.574 . S
C522 C541 1.368 . S
C522 H546 0.949 . S
H523 C527 0.949 . S
C524 C525 1.349 . S
C524 C526 1.327 . S
C524 H547 0.950 . S
C525 C524 1.349 . S
C525 C537 1.349 . S
C526 C524 1.327 . S
C526 C542 1.429 . S
C526 H548 0.950 . S
C527 H523 0.949 . S
C527 C535 1.574 . S
C527 C543 1.368 . S
H528 C536 0.950 . S
H529 C534 0.950 . S
H530 C535 0.949 . S
H531 C537 0.950 . S
H532 C538 0.950 . S
H533 C539 0.949 . S
C534 H529 0.950 . S
C534 C536 1.327 . S
C534 C540 1.429 . S
C535 C527 1.574 . S
C535 H530 0.949 . S
C535 C541 1.368 . S
C536 C520 1.349 . S
C536 H528 0.950 . S
C536 C534 1.327 . S
C537 C525 1.349 . S
C537 H531 0.950 . S
C537 C538 1.327 . S
C538 H532 0.950 . S
C538 C537 1.327 . S
C538 C542 1.429 . S
C539 C522 1.574 . S
C539 H533 0.949 . S
C539 C543 1.368 . S
C540 C521 1.429 . S
C540 C534 1.429 . S
C540 C541 1.523 . S
C541 C522 1.368 . S
C541 C535 1.368 . S
C541 C540 1.523 . S
C542 C526 1.429 . S
C542 C538 1.429 . S
C542 C543 1.523 . S
C543 C527 1.368 . S
C543 C539 1.368 . S
C543 C542 1.523 . S
H544 C519 0.916 1_545 S
H545 C521 0.950 . S
H546 C522 0.949 . S
H547 C524 0.950 . S
H548 C526 0.950 . S
C549 C550 1.349 . S
C549 C551 1.327 1_554 S
C549 H574 0.950 . S
C550 C549 1.349 . S
C550 C566 1.349 . S
C551 C549 1.327 1_556 S
C551 C570 1.429 . S
C551 H575 0.950 . S
C552 C569 1.574 . S
C552 C571 1.368 . S
C552 H576 0.949 . S
H553 C557 0.949 . S
C554 C555 1.349 . S
C554 C556 1.327 . S
C554 H577 0.950 . S
C555 C554 1.349 . S
C555 C567 1.349 . S
C556 C554 1.327 . S
C556 C572 1.429 . S
C556 H578 0.950 . S
C557 H553 0.949 . S
C557 C565 1.574 . S
C557 C573 1.368 . S
H558 C566 0.950 . S
H559 C564 0.950 . S
H560 C565 0.949 . S
H561 C567 0.950 . S
H562 C568 0.950 . S
H563 C569 0.949 . S
C564 H559 0.950 . S
C564 C566 1.327 . S
C564 C570 1.429 1_554 S
C565 C557 1.574 . S
C565 H560 0.949 . S
C565 C571 1.368 . S
C566 C550 1.349 . S
C566 H558 0.950 . S
C566 C564 1.327 . S
C567 C555 1.349 . S
C567 H561 0.950 . S
C567 C568 1.327 . S
C568 H562 0.950 . S
C568 C567 1.327 . S
C568 C572 1.429 . S
C569 C552 1.574 . S
C569 H563 0.949 . S
C569 C573 1.368 . S
C570 C551 1.429 . S
C570 C564 1.429 1_556 S
C570 C571 1.523 . S
C571 C552 1.368 . S
C571 C565 1.368 . S
C571 C570 1.523 . S
C572 C556 1.429 . S
C572 C568 1.429 . S
C572 C573 1.523 . S
C573 C557 1.368 . S
C573 C569 1.368 . S
C573 C572 1.523 . S
H574 C549 0.950 . S
H575 C551 0.950 . S
H576 C552 0.949 . S
H577 C554 0.950 . S
H578 C556 0.950 . S
C579 C580 1.349 . S
C579 C581 1.327 . S
C579 H604 0.950 . S
C580 C579 1.349 . S
C580 C596 1.349 . S
C581 C579 1.327 . S
C581 C600 1.429 . S
C581 H605 0.950 . S
C582 C599 1.574 . S
C582 C601 1.368 . S
C582 H606 0.949 . S
H583 C587 0.949 . S
C584 C585 1.349 1_556 S
C584 C586 1.327 . S
C584 H607 0.950 1_556 S
C585 C584 1.349 1_554 S
C585 C597 1.349 . S
C586 C584 1.327 . S
C586 C602 1.429 . S
C586 H608 0.950 . S
C587 H583 0.949 . S
C587 C595 1.574 . S
C587 C603 1.368 . S
H588 C596 0.950 . S
H589 C594 0.950 . S
H590 C595 0.949 . S
H591 C597 0.950 1_455 S
H592 C598 0.950 . S
H593 C599 0.949 . S
C594 H589 0.950 . S
C594 C596 1.327 . S
C594 C600 1.429 . S
C595 C587 1.574 . S
C595 H590 0.949 . S
C595 C601 1.368 . S
C596 C580 1.349 . S
C596 H588 0.950 . S
C596 C594 1.327 . S
C597 C585 1.349 . S
C597 H591 0.950 1_655 S
C597 C598 1.327 1_554 S
C598 H592 0.950 . S
C598 C597 1.327 1_556 S
C598 C602 1.429 . S
C599 C582 1.574 . S
C599 H593 0.949 . S
C599 C603 1.368 . S
C600 C581 1.429 . S
C600 C594 1.429 . S
C600 C601 1.523 . S
C601 C582 1.368 . S
C601 C595 1.368 . S
C601 C600 1.523 . S
C602 C586 1.429 . S
C602 C598 1.429 . S
C602 C603 1.523 . S
C603 C587 1.368 . S
C603 C599 1.368 . S
C603 C602 1.523 . S
H604 C579 0.950 . S
H605 C581 0.950 . S
H606 C582 0.949 . S
H607 C584 0.950 1_554 S
H608 C586 0.950 . S
C609 C610 1.349 . S
C609 C611 1.327 . S
C609 H634 0.950 . S
C610 C609 1.349 . S
C610 C626 1.349 . S
C611 C609 1.327 . S
C611 C630 1.429 . S
C611 H635 0.950 . S
C612 C629 1.574 . S
C612 C631 1.368 . S
C612 H636 0.949 . S
H613 C617 0.949 . S
C614 C615 1.351 . S
C614 C616 1.327 1_554 S
C614 H637 0.950 . S
C615 C614 1.351 . S
C615 C627 1.343 1_554 S
C616 C614 1.327 1_556 S
C616 C632 1.429 . S
C616 H638 0.950 1_556 S
C617 H613 0.949 . S
C617 C625 1.574 . S
C617 C633 1.368 . S
H618 C626 0.950 . S
H619 C624 0.950 . S
H620 C625 0.949 . S
H621 C627 0.950 . S
H622 C628 0.950 . S
H623 C629 0.949 . S
C624 H619 0.950 . S
C624 C626 1.327 . S
C624 C630 1.429 . S
C625 C617 1.574 . S
C625 H620 0.949 . S
C625 C631 1.368 . S
C626 C610 1.349 . S
C626 H618 0.950 . S
C626 C624 1.327 . S
C627 C615 1.343 1_556 S
C627 H621 0.950 . S
C627 C628 1.327 . S
C628 H622 0.950 . S
C628 C627 1.327 . S
C628 C632 1.429 . S
C629 C612 1.574 . S
C629 H623 0.949 . S
C629 C633 1.368 . S
C630 C611 1.429 . S
C630 C624 1.429 . S
C630 C631 1.523 . S
C631 C612 1.368 . S
C631 C625 1.368 . S
C631 C630 1.523 . S
C632 C616 1.429 . S
C632 C628 1.429 . S
C632 C633 1.523 . S
C633 C617 1.368 . S
C633 C629 1.368 . S
C633 C632 1.523 . S
H634 C609 0.950 . S
H635 C611 0.950 . S
H636 C612 0.949 . S
H637 C614 0.950 . S
H638 C616 0.950 1_554 S
C639 C640 1.349 . S
C639 C641 1.327 . S
C639 H664 0.950 . S
C640 C639 1.349 . S
C640 C656 1.349 . S
C641 C639 1.327 . S
C641 C660 1.429 . S
C641 H665 0.950 . S
C642 C659 1.574 . S
C642 C661 1.368 . S
C642 H666 0.949 . S
H643 C647 0.949 . S
C644 C645 1.349 . S
C644 C646 1.327 . S
C644 H667 0.950 1_655 S
C645 C644 1.349 . S
C645 C657 1.349 . S
C646 C644 1.327 . S
C646 C662 1.429 . S
C646 H668 0.950 . S
C647 H643 0.949 . S
C647 C655 1.574 . S
C647 C663 1.368 . S
H648 C656 0.950 . S
H649 C654 0.950 . S
H650 C655 0.949 . S
H651 C657 0.950 1_554 S
H652 C658 0.950 . S
H653 C659 0.949 . S
C654 H649 0.950 . S
C654 C656 1.327 . S
C654 C660 1.429 . S
C655 C647 1.574 . S
C655 H650 0.949 . S
C655 C661 1.368 . S
C656 C640 1.349 . S
C656 H648 0.950 . S
C656 C654 1.327 . S
C657 C645 1.349 . S
C657 H651 0.950 1_556 S
C657 C658 1.327 . S
C658 H652 0.950 . S
C658 C657 1.327 . S
C658 C662 1.429 . S
C659 C642 1.574 . S
C659 H653 0.949 . S
C659 C663 1.368 . S
C660 C641 1.429 . S
C660 C654 1.429 . S
C660 C661 1.523 . S
C661 C642 1.368 . S
C661 C655 1.368 . S
C661 C660 1.523 . S
C662 C646 1.429 . S
C662 C658 1.429 . S
C662 C663 1.523 . S
C663 C647 1.368 . S
C663 C659 1.368 . S
C663 C662 1.523 . S
H664 C639 0.950 . S
H665 C641 0.950 . S
H666 C642 0.949 . S
H667 C644 0.950 1_455 S
H668 C646 0.950 . S
C669 C670 1.349 1_556 S
C669 C671 1.327 . S
C669 H694 0.950 . S
C670 C669 1.349 1_554 S
C670 C686 1.349 . S
C671 C669 1.327 . S
C671 C690 1.429 . S
C671 H695 0.950 . S
C672 C689 1.574 . S
C672 C691 1.368 . S
C672 H696 0.949 1_556 S
H673 C677 0.949 . S
C674 C675 1.349 . S
C674 C676 1.327 . S
C674 H697 0.950 . S
C675 C674 1.349 . S
C675 C687 1.349 . S
C676 C674 1.327 . S
C676 C692 1.429 . S
C676 H698 0.950 . S
C677 H673 0.949 . S
C677 C685 1.574 . S
C677 C693 1.368 . S
H678 C686 0.950 . S
H679 C684 0.950 . S
H680 C685 0.949 . S
H681 C687 0.950 . S
H682 C688 0.950 . S
H683 C689 0.949 . S
C684 H679 0.950 . S
C684 C686 1.327 . S
C684 C690 1.429 1_554 S
C685 C677 1.574 . S
C685 H680 0.949 . S
C685 C691 1.368 . S
C686 C670 1.349 . S
C686 H678 0.950 . S
C686 C684 1.327 . S
C687 C675 1.349 . S
C687 H681 0.950 . S
C687 C688 1.327 . S
C688 H682 0.950 . S
C688 C687 1.327 . S
C688 C692 1.429 . S
C689 C672 1.574 . S
C689 H683 0.949 . S
C689 C693 1.368 . S
C690 C671 1.429 . S
C690 C684 1.429 1_556 S
C690 C691 1.523 . S
C691 C672 1.368 . S
C691 C685 1.368 . S
C691 C690 1.523 . S
C692 C676 1.429 . S
C692 C688 1.429 . S
C692 C693 1.523 . S
C693 C677 1.368 . S
C693 C689 1.368 . S
C693 C692 1.523 . S
H694 C669 0.950 . S
H695 C671 0.950 . S
H696 C672 0.949 1_554 S
H697 C674 0.950 . S
H698 C676 0.950 . S
C699 C700 1.349 . S
C699 C701 1.327 . S
C699 H724 0.950 . S
C700 C699 1.349 . S
C700 C716 1.349 . S
C701 C699 1.327 . S
C701 C720 1.429 . S
C701 H725 0.950 . S
C702 C719 1.574 . S
C702 C721 1.368 . S
C702 H726 0.949 . S
H703 C707 0.949 . S
C704 C705 1.349 . S
C704 C706 1.327 1_554 S
C704 H727 0.950 . S
C705 C704 1.349 . S
C705 C717 1.349 . S
C706 C704 1.327 1_556 S
C706 C722 1.429 . S
C706 H728 0.950 . S
C707 H703 0.949 . S
C707 C715 1.574 . S
C707 C723 1.368 . S
H708 C716 0.950 . S
H709 C714 0.950 . S
H710 C715 0.949 . S
H711 C717 0.950 . S
H712 C718 0.950 . S
H713 C719 0.949 . S
C714 H709 0.950 . S
C714 C716 1.327 . S
C714 C720 1.429 . S
C715 C707 1.574 . S
C715 H710 0.949 . S
C715 C721 1.368 . S
C716 C700 1.349 . S
C716 H708 0.950 . S
C716 C714 1.327 . S
C717 C705 1.349 . S
C717 H711 0.950 . S
C717 C718 1.327 1_554 S
C718 H712 0.950 . S
C718 C717 1.327 1_556 S
C718 C722 1.429 . S
C719 C702 1.574 . S
C719 H713 0.949 . S
C719 C723 1.368 . S
C720 C701 1.429 . S
C720 C714 1.429 . S
C720 C721 1.523 . S
C721 C702 1.368 . S
C721 C715 1.368 . S
C721 C720 1.523 . S
C722 C706 1.429 . S
C722 C718 1.429 . S
C722 C723 1.523 . S
C723 C707 1.368 . S
C723 C719 1.368 . S
C723 C722 1.523 . S
H724 C699 0.950 . S
H725 C701 0.950 . S
H726 C702 0.949 . S
H727 C704 0.950 . S
H728 C706 0.950 . S
C729 C730 1.349 . S
C729 C731 1.327 . S
C729 H754 0.950 . S
C730 C729 1.349 . S
C730 C746 1.349 . S
C731 C729 1.327 . S
C731 C750 1.429 . S
C731 H755 0.950 . S
C732 C749 1.574 . S
C732 C751 1.368 . S
C732 H756 0.949 . S
H733 C737 0.949 . S
C734 C735 1.349 . S
C734 C736 1.327 . S
C734 H757 0.950 . S
C735 C734 1.349 . S
C735 C747 1.349 . S
C736 C734 1.327 . S
C736 C752 1.429 . S
C736 H758 0.950 . S
C737 H733 0.949 . S
C737 C745 1.574 . S
C737 C753 1.368 . S
H738 C746 0.950 . S
H739 C744 0.950 . S
H740 C745 0.949 . S
H741 C747 0.950 . S
H742 C748 0.950 . S
H743 C749 0.949 . S
C744 H739 0.950 . S
C744 C746 1.327 . S
C744 C750 1.429 . S
C745 C737 1.574 . S
C745 H740 0.949 . S
C745 C751 1.368 . S
C746 C730 1.349 . S
C746 H738 0.950 . S
C746 C744 1.327 . S
C747 C735 1.349 . S
C747 H741 0.950 . S
C747 C748 1.327 . S
C748 H742 0.950 . S
C748 C747 1.327 . S
C748 C752 1.429 . S
C749 C732 1.574 . S
C749 H743 0.949 . S
C749 C753 1.368 . S
C750 C731 1.429 . S
C750 C744 1.429 . S
C750 C751 1.523 . S
C751 C732 1.368 . S
C751 C745 1.368 . S
C751 C750 1.523 . S
C752 C736 1.429 . S
C752 C748 1.429 . S
C752 C753 1.523 . S
C753 C737 1.368 . S
C753 C749 1.368 . S
C753 C752 1.523 . S
H754 C729 0.950 . S
H755 C731 0.950 . S
H756 C732 0.949 . S
H757 C734 0.950 . S
H758 C736 0.950 . S
C759 C760 1.349 . S
C759 C761 1.327 . S
C759 H784 0.950 . S
C760 C759 1.349 . S
C760 C776 1.349 . S
C761 C759 1.327 . S
C761 C780 1.429 . S
C761 H785 0.950 . S
C762 C779 1.574 . S
C762 C781 1.368 . S
C762 H786 0.949 . S
H763 C767 0.949 . S
C764 C765 1.349 . S
C764 C766 1.327 . S
C764 H787 0.950 . S
C765 C764 1.349 . S
C765 C777 1.349 . S
C766 C764 1.327 . S
C766 C782 1.429 . S
C766 H788 0.950 . S
C767 H763 0.949 . S
C767 C775 1.574 . S
C767 C783 1.368 . S
H768 C776 0.950 . S
H769 C774 0.950 . S
H770 C775 0.949 . S
H771 C777 0.950 1_556 S
H772 C778 0.950 . S
H773 C779 0.949 . S
C774 H769 0.950 . S
C774 C776 1.327 . S
C774 C780 1.429 . S
C775 C767 1.574 . S
C775 H770 0.949 . S
C775 C781 1.368 . S
C776 C760 1.349 . S
C776 H768 0.950 . S
C776 C774 1.327 . S
C777 C765 1.349 . S
C777 H771 0.950 1_554 S
C777 C778 1.327 . S
C778 H772 0.950 . S
C778 C777 1.327 . S
C778 C782 1.429 . S
C779 C762 1.574 . S
C779 H773 0.949 . S
C779 C783 1.368 . S
C780 C761 1.429 . S
C780 C774 1.429 . S
C780 C781 1.523 . S
C781 C762 1.368 . S
C781 C775 1.368 . S
C781 C780 1.523 . S
C782 C766 1.429 . S
C782 C778 1.429 . S
C782 C783 1.523 . S
C783 C767 1.368 . S
C783 C779 1.368 . S
C783 C782 1.523 . S
H784 C759 0.950 . S
H785 C761 0.950 . S
H786 C762 0.949 . S
H787 C764 0.950 . S
H788 C766 0.950 . S
C789 C790 1.349 . S
C789 C791 1.327 . S
C789 H814 0.950 . S
C790 C789 1.349 . S
C790 C806 1.349 . S
C791 C789 1.327 . S
C791 C810 1.429 . S
C791 H815 0.950 . S
C792 C809 1.574 . S
C792 C811 1.368 . S
C792 H816 0.949 . S
H793 C797 0.949 . S
C794 C795 1.349 . S
C794 C796 1.327 . S
C794 H817 0.950 . S
C795 C794 1.349 . S
C795 C807 1.349 . S
C796 C794 1.327 . S
C796 C812 1.429 . S
C796 H818 0.950 . S
C797 H793 0.949 . S
C797 C805 1.574 . S
C797 C813 1.368 . S
H798 C806 0.950 . S
H799 C804 0.950 . S
H800 C805 0.949 . S
H801 C807 0.950 . S
H802 C808 0.950 . S
H803 C809 0.949 . S
C804 H799 0.950 . S
C804 C806 1.327 . S
C804 C810 1.429 . S
C805 C797 1.574 . S
C805 H800 0.949 . S
C805 C811 1.368 . S
C806 C790 1.349 . S
C806 H798 0.950 . S
C806 C804 1.327 . S
C807 C795 1.349 . S
C807 H801 0.950 . S
C807 C808 1.327 . S
C808 H802 0.950 . S
C808 C807 1.327 . S
C808 C812 1.429 . S
C809 C792 1.574 . S
C809 H803 0.949 . S
C809 C813 1.368 . S
C810 C791 1.429 . S
C810 C804 1.429 . S
C810 C811 1.523 . S
C811 C792 1.368 . S
C811 C805 1.368 . S
C811 C810 1.523 . S
C812 C796 1.429 . S
C812 C808 1.429 . S
C812 C813 1.523 . S
C813 C797 1.368 . S
C813 C809 1.368 . S
C813 C812 1.523 . S
H814 C789 0.950 . S
H815 C791 0.950 . S
H816 C792 0.949 . S
H817 C794 0.950 . S
H818 C796 0.950 . S
C819 C820 1.349 . S
C819 C821 1.327 . S
C819 H844 0.950 . S
C820 C819 1.349 . S
C820 C836 1.349 . S
C821 C819 1.327 . S
C821 C840 1.429 . S
C821 H845 0.950 . S
C822 C839 1.574 . S
C822 C841 1.368 . S
C822 H846 0.949 . S
H823 C827 0.949 . S
C824 C825 1.349 . S
C824 C826 1.327 . S
C824 H847 0.950 . S
C825 C824 1.349 . S
C825 C837 1.349 . S
C826 C824 1.327 . S
C826 C842 1.429 . S
C826 H848 0.950 . S
C827 H823 0.949 . S
C827 C835 1.574 . S
C827 C843 1.368 . S
H828 C836 0.950 . S
H829 C834 0.950 . S
H830 C835 0.949 . S
H831 C837 0.950 . S
H832 C838 0.950 . S
H833 C839 0.949 . S
C834 H829 0.950 . S
C834 C836 1.327 . S
C834 C840 1.429 . S
C835 C827 1.574 . S
C835 H830 0.949 . S
C835 C841 1.368 . S
C836 C820 1.349 . S
C836 H828 0.950 . S
C836 C834 1.327 . S
C837 C825 1.349 . S
C837 H831 0.950 . S
C837 C838 1.327 . S
C838 H832 0.950 . S
C838 C837 1.327 . S
C838 C842 1.429 . S
C839 C822 1.574 . S
C839 H833 0.949 . S
C839 C843 1.368 . S
C840 C821 1.429 . S
C840 C834 1.429 . S
C840 C841 1.523 . S
C841 C822 1.368 . S
C841 C835 1.368 . S
C841 C840 1.523 . S
C842 C826 1.429 . S
C842 C838 1.429 . S
C842 C843 1.523 . S
C843 C827 1.368 . S
C843 C839 1.368 . S
C843 C842 1.523 . S
H844 C819 0.950 . S
H845 C821 0.950 . S
H846 C822 0.949 . S
H847 C824 0.950 . S
H848 C826 0.950 . S
C849 C850 1.349 . S
C849 C851 1.327 . S
C849 H874 0.950 . S
C850 C849 1.349 . S
C850 C866 1.349 . S
C851 C849 1.327 . S
C851 C870 1.429 . S
C851 H875 0.950 . S
C852 C869 1.574 1_545 S
C852 C871 1.368 . S
C852 H876 0.949 . S
H853 C857 0.949 . S
C854 C855 1.349 . S
C854 C856 1.327 . S
C854 H877 0.950 . S
C855 C854 1.349 . S
C855 C867 1.349 . S
C856 C854 1.327 . S
C856 C872 1.429 . S
C856 H878 0.950 . S
C857 H853 0.949 . S
C857 C865 1.574 . S
C857 C873 1.368 1_545 S
H858 C866 0.950 . S
H859 C864 0.950 . S
H860 C865 0.949 . S
H861 C867 0.950 . S
H862 C868 0.950 . S
H863 C869 0.949 . S
C864 H859 0.950 . S
C864 C866 1.327 . S
C864 C870 1.429 . S
C865 C857 1.574 . S
C865 H860 0.949 . S
C865 C871 1.368 . S
C866 C850 1.349 . S
C866 H858 0.950 . S
C866 C864 1.327 . S
C867 C855 1.349 . S
C867 H861 0.950 . S
C867 C868 1.327 . S
C868 H862 0.950 . S
C868 C867 1.327 . S
C868 C872 1.429 . S
C869 C852 1.574 1_565 S
C869 H863 0.949 . S
C869 C873 1.368 . S
C870 C851 1.429 . S
C870 C864 1.429 . S
C870 C871 1.523 . S
C871 C852 1.368 . S
C871 C865 1.368 . S
C871 C870 1.523 . S
C872 C856 1.429 . S
C872 C868 1.429 . S
C872 C873 1.523 . S
C873 C857 1.368 1_565 S
C873 C869 1.368 . S
C873 C872 1.523 . S
H874 C849 0.950 . S
H875 C851 0.950 . S
H876 C852 0.949 . S
H877 C854 0.950 . S
H878 C856 0.950 . S
C879 C880 1.349 . S
C879 C881 1.327 . S
C879 H904 0.950 . S
C880 C879 1.349 . S
C880 C896 1.349 . S
C881 C879 1.327 . S
C881 C900 1.429 . S
C881 H905 0.950 . S
C882 C899 1.574 . S
C882 C901 1.368 . S
C882 H906 0.949 1_455 S
H883 C887 0.949 . S
C884 C885 1.349 . S
C884 C886 1.327 . S
C884 H907 0.950 . S
C885 C884 1.349 . S
C885 C897 1.349 . S
C886 C884 1.327 . S
C886 C902 1.429 . S
C886 H908 0.950 . S
C887 H883 0.949 . S
C887 C895 1.574 . S
C887 C903 1.368 . S
H888 C896 0.950 . S
H889 C894 0.950 . S
H890 C895 0.949 . S
H891 C897 0.950 . S
H892 C898 0.950 . S
H893 C899 0.949 . S
C894 H889 0.950 . S
C894 C896 1.327 . S
C894 C900 1.429 . S
C895 C887 1.574 . S
C895 H890 0.949 . S
C895 C901 1.368 . S
C896 C880 1.349 . S
C896 H888 0.950 . S
C896 C894 1.327 . S
C897 C885 1.349 . S
C897 H891 0.950 . S
C897 C898 1.327 . S
C898 H892 0.950 . S
C898 C897 1.327 . S
C898 C902 1.429 . S
C899 C882 1.574 . S
C899 H893 0.949 . S
C899 C903 1.368 . S
C900 C881 1.429 . S
C900 C894 1.429 . S
C900 C901 1.523 1_655 S
C901 C882 1.368 . S
C901 C895 1.368 . S
C901 C900 1.523 1_455 S
C902 C886 1.429 . S
C902 C898 1.429 . S
C902 C903 1.523 . S
C903 C887 1.368 . S
C903 C899 1.368 . S
C903 C902 1.523 . S
H904 C879 0.950 . S
H905 C881 0.950 . S
H906 C882 0.949 1_655 S
H907 C884 0.950 . S
H908 C886 0.950 . S
C909 C910 1.349 . S
C909 C911 1.327 . S
C909 H934 0.950 . S
C910 C909 1.349 . S
C910 C926 1.349 . S
C911 C909 1.327 . S
C911 C930 1.429 . S
C911 H935 0.950 . S
C912 C929 1.574 . S
C912 C931 1.368 . S
C912 H936 0.949 . S
H913 C917 0.949 . S
C914 C915 1.349 . S
C914 C916 1.327 . S
C914 H937 0.950 . S
C915 C914 1.349 . S
C915 C927 1.349 . S
C916 C914 1.327 . S
C916 C932 1.429 . S
C916 H938 0.950 . S
C917 H913 0.949 . S
C917 C925 1.574 . S
C917 C933 1.368 . S
H918 C926 0.950 . S
H919 C924 0.950 . S
H920 C925 0.949 . S
H921 C927 0.950 . S
H922 C928 0.950 . S
H923 C929 0.949 . S
C924 H919 0.950 . S
C924 C926 1.327 . S
C924 C930 1.429 . S
C925 C917 1.574 . S
C925 H920 0.949 . S
C925 C931 1.368 . S
C926 C910 1.349 . S
C926 H918 0.950 . S
C926 C924 1.327 . S
C927 C915 1.349 . S
C927 H921 0.950 . S
C927 C928 1.327 . S
C928 H922 0.950 . S
C928 C927 1.327 . S
C928 C932 1.429 . S
C929 C912 1.574 . S
C929 H923 0.949 . S
C929 C933 1.368 . S
C930 C911 1.429 . S
C930 C924 1.429 . S
C930 C931 1.523 . S
C931 C912 1.368 . S
C931 C925 1.368 . S
C931 C930 1.523 . S
C932 C916 1.429 . S
C932 C928 1.429 . S
C932 C933 1.523 . S
C933 C917 1.368 . S
C933 C929 1.368 . S
C933 C932 1.523 . S
H934 C909 0.950 . S
H935 C911 0.950 . S
H936 C912 0.949 . S
H937 C914 0.950 . S
H938 C916 0.950 . S
C939 C940 1.349 . S
C939 C941 1.327 . S
C939 H964 0.950 . S
C940 C939 1.349 . S
C940 C956 1.349 . S
C941 C939 1.327 . S
C941 C960 1.429 . S
C941 H965 0.950 . S
C942 C959 1.574 . S
C942 C961 1.368 1_545 S
C942 H966 0.948 . S
H943 C947 0.949 . S
C944 C945 1.349 . S
C944 C946 1.327 . S
C944 H967 0.950 . S
C945 C944 1.349 . S
C945 C957 1.349 . S
C946 C944 1.327 . S
C946 C962 1.429 . S
C946 H968 0.950 . S
C947 H943 0.949 . S
C947 C955 1.574 1_545 S
C947 C963 1.368 . S
H948 C956 0.950 . S
H949 C954 0.950 . S
H950 C955 0.949 . S
H951 C957 0.950 . S
H952 C958 0.950 . S
H953 C959 0.949 . S
C954 H949 0.950 . S
C954 C956 1.327 . S
C954 C960 1.429 . S
C955 C947 1.574 1_565 S
C955 H950 0.949 . S
C955 C961 1.368 . S
C956 C940 1.349 . S
C956 H948 0.950 . S
C956 C954 1.327 . S
C957 C945 1.349 . S
C957 H951 0.950 . S
C957 C958 1.327 . S
C958 H952 0.950 . S
C958 C957 1.327 . S
C958 C962 1.429 . S
C959 C942 1.574 . S
C959 H953 0.949 . S
C959 C963 1.368 . S
C960 C941 1.429 . S
C960 C954 1.429 . S
C960 C961 1.523 . S
C961 C942 1.368 1_565 S
C961 C955 1.368 . S
C961 C960 1.523 . S
C962 C946 1.429 . S
C962 C958 1.429 . S
C962 C963 1.523 . S
C963 C947 1.368 . S
C963 C959 1.368 . S
C963 C962 1.523 . S
H964 C939 0.950 . S
H965 C941 0.950 . S
H966 C942 0.948 . S
H967 C944 0.950 . S
H968 C946 0.950 . S
C969 C970 1.349 . S
C969 C971 1.327 . S
C969 H994 0.950 . S
C970 C969 1.349 . S
C970 C986 1.349 . S
C971 C969 1.327 . S
C971 C990 1.429 . S
C971 H995 0.950 . S
C972 C989 1.574 . S
C972 C991 1.368 . S
C972 H996 0.949 . S
H973 C977 0.949 . S
C974 C975 1.349 . S
C974 C976 1.327 . S
C974 H997 0.950 . S
C975 C974 1.349 . S
C975 C987 1.349 . S
C976 C974 1.327 . S
C976 C992 1.429 . S
C976 H998 0.950 . S
C977 H973 0.949 . S
C977 C985 1.574 . S
C977 C993 1.368 . S
H978 C986 0.950 . S
H979 C984 0.950 . S
H980 C985 0.949 . S
H981 C987 0.950 . S
H982 C988 0.950 . S
H983 C989 0.949 . S
C984 H979 0.950 . S
C984 C986 1.327 . S
C984 C990 1.429 . S
C985 C977 1.574 . S
C985 H980 0.949 . S
C985 C991 1.368 . S
C986 C970 1.349 . S
C986 H978 0.950 . S
C986 C984 1.327 . S
C987 C975 1.349 . S
C987 H981 0.950 . S
C987 C988 1.327 . S
C988 H982 0.950 . S
C988 C987 1.327 . S
C988 C992 1.429 . S
C989 C972 1.574 . S
C989 H983 0.949 . S
C989 C993 1.368 . S
C990 C971 1.429 . S
C990 C984 1.429 . S
C990 C991 1.523 1_655 S
C991 C972 1.368 . S
C991 C985 1.368 . S
C991 C990 1.523 1_455 S
C992 C976 1.429 . S
C992 C988 1.429 . S
C992 C993 1.523 . S
C993 C977 1.368 . S
C993 C989 1.368 . S
C993 C992 1.523 . S
H994 C969 0.950 . S
H995 C971 0.950 . S
H996 C972 0.949 . S
H997 C974 0.950 . S
H998 C976 0.950 . S
C190 C16 0.861 . S
C195 C13 0.862 . S
C220 C34 0.859 . S
C225 C37 0.857 . S
C250 C58 0.864 . S
C255 C55 0.866 . S
C280 C79 0.847 . S
C285 C76 0.848 . S
C310 C100 0.866 . S
C315 C97 0.867 . S
C340 C121 0.886 . S
C345 C118 0.888 . S
C370 C143 0.697 . S
C375 C144 0.700 . S
C400 C165 0.729 . S
C405 C164 0.728 . S
C430 C185 0.754 . S
C435 C186 0.754 . S
C460 C122 1.484 . S
C465 C17 1.483 . S
C490 C36 1.352 . S
C495 C80 1.348 . S
C520 C59 1.441 . S
C525 C101 1.447 . S
C550 C57 0.996 . S
C555 C140 1.040 . S
C580 C160 0.898 . S
C585 C15 0.914 . S
C610 C182 1.244 . S
C615 C38 1.309 . S
C640 C184 1.071 . S
C645 C18 1.177 1_556 S
C670 C35 0.888 . S
C675 C142 0.868 . S
C700 C162 1.034 . S
C705 C60 1.086 . S
C730 C56 1.414 . S
C735 C77 1.414 . S
C760 C98 1.336 . S
C765 C14 1.337 . S
C790 C39 1.749 . S
C795 C119 1.667 . S
C820 C181 1.040 . S
C825 C78 1.024 . S
C850 C139 0.990 . S
C855 C99 0.993 . S
C880 C161 1.133 . S
C885 C120 1.096 . S
C910 C141 0.935 . S
C915 C123 0.981 . S
C940 C81 1.110 . S
C945 C163 1.012 . S
C970 C183 0.930 . S
C975 C102 0.958 . S
