# Generated by pormake.
# Topology wkt, (7)-cn, num edge types: 1
# Building blocks:
#     Node 0, Type 0, BuildingBlock: HICVOG_clean_sbu_0, # of connection points: 7
#     Node 1, Type 0, BuildingBlock: HICVOG_clean_sbu_0, # of connection points: 7
#     Node 2, Type 0, BuildingBlock: HICVOG_clean_sbu_0, # of connection points: 7
#     Node 3, Type 0, BuildingBlock: HICVOG_clean_sbu_0, # of connection points: 7
#     Node 4, Type 0, BuildingBlock: HICVOG_clean_sbu_0, # of connection points: 7
#     Node 5, Type 0, BuildingBlock: HICVOG_clean_sbu_0, # of connection points: 7
#     Node 6, Type 0, BuildingBlock: HICVOG_clean_sbu_0, # of connection points: 7
#     Node 7, Type 0, BuildingBlock: HICVOG_clean_sbu_0, # of connection points: 7
#     Node 8, Type 0, BuildingBlock: HICVOG_clean_sbu_0, # of connection points: 7
#     Node 9, Type 0, BuildingBlock: HICVOG_clean_sbu_0, # of connection points: 7
#     Node 10, Type 0, BuildingBlock: HICVOG_clean_sbu_0, # of connection points: 7
#     Node 11, Type 0, BuildingBlock: HICVOG_clean_sbu_0, # of connection points: 7
#     Edge 12, Type (0, 0), BuildingBlock: UVAHIK_clean_linker_0, # of connection points: 2
#     Edge 13, Type (0, 0), BuildingBlock: UVAHIK_clean_linker_0, # of connection points: 2
#     Edge 14, Type (0, 0), BuildingBlock: UVAHIK_clean_linker_0, # of connection points: 2
#     Edge 15, Type (0, 0), BuildingBlock: UVAHIK_clean_linker_0, # of connection points: 2
#     Edge 16, Type (0, 0), BuildingBlock: UVAHIK_clean_linker_0, # of connection points: 2
#     Edge 17, Type (0, 0), BuildingBlock: UVAHIK_clean_linker_0, # of connection points: 2
#     Edge 18, Type (0, 0), BuildingBlock: UVAHIK_clean_linker_0, # of connection points: 2
#     Edge 19, Type (0, 0), BuildingBlock: UVAHIK_clean_linker_0, # of connection points: 2
#     Edge 20, Type (0, 0), BuildingBlock: UVAHIK_clean_linker_0, # of connection points: 2
#     Edge 21, Type (0, 0), BuildingBlock: UVAHIK_clean_linker_0, # of connection points: 2
#     Edge 22, Type (0, 0), BuildingBlock: UVAHIK_clean_linker_0, # of connection points: 2
#     Edge 23, Type (0, 0), BuildingBlock: UVAHIK_clean_linker_0, # of connection points: 2
#     Edge 24, Type (0, 0), BuildingBlock: UVAHIK_clean_linker_0, # of connection points: 2
#     Edge 25, Type (0, 0), BuildingBlock: UVAHIK_clean_linker_0, # of connection points: 2
#     Edge 26, Type (0, 0), BuildingBlock: UVAHIK_clean_linker_0, # of connection points: 2
#     Edge 27, Type (0, 0), BuildingBlock: UVAHIK_clean_linker_0, # of connection points: 2
#     Edge 28, Type (0, 0), BuildingBlock: UVAHIK_clean_linker_0, # of connection points: 2
#     Edge 29, Type (0, 0), BuildingBlock: UVAHIK_clean_linker_0, # of connection points: 2
#     Edge 30, Type (0, 0), BuildingBlock: UVAHIK_clean_linker_0, # of connection points: 2
#     Edge 31, Type (0, 0), BuildingBlock: UVAHIK_clean_linker_0, # of connection points: 2
#     Edge 32, Type (0, 0), BuildingBlock: UVAHIK_clean_linker_0, # of connection points: 2
#     Edge 33, Type (0, 0), BuildingBlock: UVAHIK_clean_linker_0, # of connection points: 2
#     Edge 34, Type (0, 0), BuildingBlock: UVAHIK_clean_linker_0, # of connection points: 2
#     Edge 35, Type (0, 0), BuildingBlock: UVAHIK_clean_linker_0, # of connection points: 2
#     Edge 36, Type (0, 0), BuildingBlock: UVAHIK_clean_linker_0, # of connection points: 2
#     Edge 37, Type (0, 0), BuildingBlock: UVAHIK_clean_linker_0, # of connection points: 2
#     Edge 38, Type (0, 0), BuildingBlock: UVAHIK_clean_linker_0, # of connection points: 2
#     Edge 39, Type (0, 0), BuildingBlock: UVAHIK_clean_linker_0, # of connection points: 2
#     Edge 40, Type (0, 0), BuildingBlock: UVAHIK_clean_linker_0, # of connection points: 2
#     Edge 41, Type (0, 0), BuildingBlock: UVAHIK_clean_linker_0, # of connection points: 2
#     Edge 42, Type (0, 0), BuildingBlock: UVAHIK_clean_linker_0, # of connection points: 2
#     Edge 43, Type (0, 0), BuildingBlock: UVAHIK_clean_linker_0, # of connection points: 2
#     Edge 44, Type (0, 0), BuildingBlock: UVAHIK_clean_linker_0, # of connection points: 2
#     Edge 45, Type (0, 0), BuildingBlock: UVAHIK_clean_linker_0, # of connection points: 2
#     Edge 46, Type (0, 0), BuildingBlock: UVAHIK_clean_linker_0, # of connection points: 2
#     Edge 47, Type (0, 0), BuildingBlock: UVAHIK_clean_linker_0, # of connection points: 2
#     Edge 48, Type (0, 0), BuildingBlock: UVAHIK_clean_linker_0, # of connection points: 2
#     Edge 49, Type (0, 0), BuildingBlock: UVAHIK_clean_linker_0, # of connection points: 2
#     Edge 50, Type (0, 0), BuildingBlock: UVAHIK_clean_linker_0, # of connection points: 2
#     Edge 51, Type (0, 0), BuildingBlock: UVAHIK_clean_linker_0, # of connection points: 2
#     Edge 52, Type (0, 0), BuildingBlock: UVAHIK_clean_linker_0, # of connection points: 2
#     Edge 53, Type (0, 0), BuildingBlock: UVAHIK_clean_linker_0, # of connection points: 2
# Relax obj value: 0.166
# Max RMSD: 0.204
# Mean RMSD: 0.204
data_MOF--net-wkt--node1-HICVOG_clean_sbu_0--edge1-UVAHIK_clean_linker_0
_symmetry_space_group_name_H-M    P1
_symmetry_Int_Tables_number       1
_symmetry_cell_setting            triclinic
loop_
_symmetry_equiv_pos_as_xyz
'x, y, z'
_cell_length_a     40.450969
_cell_length_b     40.497496
_cell_length_c     73.973547
_cell_angle_alpha  89.971876
_cell_angle_beta   90.076895
_cell_angle_gamma 119.90613
loop_
_atom_site_label
_atom_site_type_symbol
_atom_site_fract_x
_atom_site_fract_y
_atom_site_fract_z
_atom_type_partial_charge
Zn0 Zn 0.39152 0.46249 0.06671 0.0
C1 C 0.40236 0.37595 0.0886 0.0
N2 N 0.37723 0.37592 0.10043 0.0
C3 C 0.37535 0.40696 0.09564 0.0
N4 N 0.39768 0.42505 0.08125 0.0
N5 N 0.41444 0.40516 0.07675 0.0
C6 C 0.43423 0.35282 0.03594 0.0
O7 O 0.41011 0.36231 0.02913 0.0
O8 O 0.40405 0.51266 0.08023 0.0
Zn9 Zn 0.45037 0.41708 0.05762 0.0
N10 N 0.33745 0.43571 0.06261 0.0
C11 C 0.2819 0.3795 0.05292 0.0
C12 C 0.32149 0.40184 0.05377 0.0
C13 C 0.31564 0.44829 0.07063 0.0
N14 N 0.26002 0.39187 0.06111 0.0
C15 C 0.27574 0.42566 0.07016 0.0
O16 O 0.44064 0.43873 0.03496 0.0
C17 C 0.43077 0.4627 0.03016 0.0
O18 O 0.41579 0.47552 0.04128 0.0
H19 H 0.33944 0.39193 0.04786 0.0
H20 H 0.32955 0.47539 0.07747 0.0
C21 C 0.5233 0.47919 0.0534 0.0
C22 C 0.55667 0.51268 0.05841 0.0
C23 C 0.5389 0.49784 0.0893 0.0
C24 C 0.50538 0.46527 0.08412 0.0
N25 N 0.49839 0.4568 0.06628 0.0
N26 N 0.56352 0.52076 0.07639 0.0
H27 H 0.51632 0.47057 0.03949 0.0
C28 C 0.40279 0.53865 0.07092 0.0
O29 O 0.3962 0.53296 0.05348 0.0
O30 O 0.45449 0.37128 0.04947 0.0
H31 H 0.48479 0.44741 0.09417 0.0
H32 H 0.26863 0.35237 0.04599 0.0
H33 H 0.54506 0.50521 0.10343 0.0
Zn34 Zn 0.03664 0.42947 0.22191 0.0
C35 C 0.97509 0.38139 0.26646 0.0
N36 N 1.00734 0.38446 0.27332 0.0
C37 C 0.03262 0.40045 0.25976 0.0
N38 N 0.01624 0.40678 0.24514 0.0
N39 N 0.98014 0.39482 0.24937 0.0
C40 C 0.88901 0.41592 0.24593 0.0
O41 O 0.9174 0.44966 0.24154 0.0
O42 O 0.08199 0.42525 0.21382 0.0
Zn43 Zn 0.94153 0.39044 0.23189 0.0
N44 N 0.05237 0.48235 0.22319 0.0
C45 C 0.06008 0.53783 0.23785 0.0
C46 C 0.05334 0.50057 0.23875 0.0
C47 C 0.05829 0.49964 0.20689 0.0
N48 N 0.06489 0.55479 0.22145 0.0
C49 C 0.06404 0.53662 0.20578 0.0
O50 O 0.96065 0.43059 0.21164 0.0
C51 C 0.97793 0.42577 0.19835 0.0
O52 O 0.9983 0.41033 0.20111 0.0
H53 H 0.04801 0.48603 0.25159 0.0
H54 H 0.05643 0.48352 0.19493 0.0
C55 C 0.90063 0.33747 0.20499 0.0
C56 C 0.89181 0.30787 0.19272 0.0
C57 C 0.93494 0.29382 0.20804 0.0
C58 C 0.94376 0.32351 0.22014 0.0
N59 N 0.92633 0.34463 0.21833 0.0
N60 N 0.90938 0.28682 0.19457 0.0
H61 H 0.88865 0.356 0.20358 0.0
C62 C 0.07723 0.39874 0.20309 0.0
O63 O 0.04233 0.37203 0.19909 0.0
O64 O 0.89313 0.38693 0.24365 0.0
H65 H 0.96493 0.3302 0.23057 0.0
H66 H 0.06076 0.5529 0.25004 0.0
H67 H 0.94867 0.27683 0.20917 0.0
Zn68 Zn 0.56788 0.93145 0.39909 0.0
C69 C 0.65661 0.01991 0.42458 0.0
N70 N 0.65246 0.99293 0.43644 0.0
C71 C 0.62044 0.96188 0.43065 0.0
N72 N 0.60592 0.96914 0.41573 0.0
N73 N 0.62897 1.00558 0.41185 0.0
C74 C 0.68895 0.07332 0.36835 0.0
O75 O 0.67674 0.03939 0.36134 0.0
O76 O 0.52278 0.88478 0.41185 0.0
Zn77 Zn 0.62354 0.0298 0.39074 0.0
N78 N 0.59485 0.91343 0.38445 0.0
C79 C 0.65214 0.91742 0.37375 0.0
C80 C 0.63296 0.92731 0.38636 0.0
C81 C 0.57515 0.89022 0.37048 0.0
N82 N 0.63247 0.89439 0.35968 0.0
C83 C 0.59429 0.88037 0.35769 0.0
O84 O 0.60271 0.99461 0.36917 0.0
C85 C 0.56727 0.97217 0.36672 0.0
O86 O 0.54636 0.95245 0.37986 0.0
H87 H 0.64861 0.94676 0.39719 0.0
H88 H 0.54517 0.88095 0.36898 0.0
C89 C 0.57083 0.05147 0.38099 0.0
C90 C 0.54082 0.059 0.3831 0.0
C91 C 0.54513 0.05426 0.41497 0.0
C92 C 0.57461 0.04622 0.4127 0.0
N93 N 0.58664 0.04491 0.39573 0.0
N94 N 0.5288 0.06018 0.40018 0.0
H95 H 0.58094 0.04934 0.36779 0.0
C96 C 0.49064 0.86754 0.40369 0.0
O97 O 0.48742 0.88092 0.38802 0.0
O98 O 0.67247 0.0765 0.38234 0.0
H99 H 0.58733 0.04048 0.42427 0.0
H100 H 0.68251 0.92839 0.37497 0.0
H101 H 0.53494 0.0553 0.42836 0.0
Zn102 Zn 0.58882 0.60379 0.56234 0.0
C103 C 0.6643 0.60562 0.59779 0.0
N104 N 0.66487 0.63691 0.60431 0.0
C105 C 0.64292 0.64272 0.59255 0.0
N106 N 0.6294 0.61583 0.57934 0.0
N107 N 0.64309 0.59262 0.58256 0.0
C108 C 0.61669 0.47712 0.58141 0.0
O109 O 0.5827 0.47117 0.57694 0.0
O110 O 0.58766 0.65012 0.55296 0.0
Zn111 Zn 0.64063 0.55322 0.56593 0.0
N112 N 0.54334 0.56993 0.57537 0.0
C113 C 0.51219 0.5148 0.59389 0.0
C114 C 0.54278 0.53917 0.58304 0.0
C115 C 0.5144 0.57729 0.57794 0.0
N116 N 0.48325 0.52206 0.59651 0.0
C117 C 0.48324 0.55264 0.58881 0.0
O118 O 0.59739 0.52847 0.54709 0.0
C119 C 0.58758 0.54542 0.53555 0.0
O120 O 0.58887 0.5766 0.53946 0.0
H121 H 0.56628 0.53404 0.58095 0.0
H122 H 0.51634 0.6025 0.57189 0.0
C123 C 0.68762 0.55817 0.53723 0.0
C124 C 0.7152 0.57593 0.52372 0.0
C125 C 0.73338 0.63604 0.53691 0.0
C126 C 0.70582 0.61819 0.55029 0.0
N127 N 0.68358 0.57962 0.55015 0.0
N128 N 0.73735 0.61459 0.52392 0.0
H129 H 0.66844 0.52768 0.53721 0.0
C130 C 0.61418 0.67123 0.54209 0.0
O131 O 0.64157 0.66345 0.53901 0.0
O132 O 0.64545 0.51012 0.57872 0.0
H133 H 0.70167 0.63502 0.56041 0.0
H134 H 0.51142 0.49032 0.6002 0.0
H135 H 0.7512 0.66672 0.53673 0.0
Zn136 Zn 0.09655 0.62943 0.72841 0.0
C137 C 1.00947 0.63633 0.75276 0.0
N138 N 0.03866 0.66548 0.76142 0.0
C139 C 0.06908 0.66352 0.75555 0.0
N140 N 0.0595 0.63494 0.74366 0.0
N141 N 0.02189 0.61799 0.74178 0.0
C142 C 0.94529 0.59332 0.70796 0.0
O143 O 0.97921 0.62288 0.70496 0.0
O144 O 0.14308 0.63287 0.74222 0.0
Zn145 Zn 0.99288 0.57348 0.72735 0.0
N146 N 0.11625 0.67167 0.712 0.0
C147 C 0.11226 0.7208 0.69628 0.0
C148 C 0.10042 0.69428 0.71029 0.0
C149 C 0.1432 0.67428 0.70029 0.0
N150 N 0.13896 0.72315 0.68443 0.0
C151 C 0.15487 0.70054 0.68605 0.0
O152 O 0.01837 0.57306 0.70408 0.0
C153 C 0.04907 0.57418 0.6993 0.0
O154 O 0.07709 0.5854 0.71019 0.0
H155 H 0.078 0.69102 0.7193 0.0
H156 H 0.15404 0.65478 0.70165 0.0
C157 C 0.95193 0.50172 0.74599 0.0
C158 C 0.94931 0.47271 0.75745 0.0
C159 C 0.0168 0.50678 0.76075 0.0
C160 C 0.01914 0.53493 0.74919 0.0
N161 N 0.98675 0.53179 0.74205 0.0
N162 N 0.98213 0.47639 0.76452 0.0
H163 H 0.92697 0.5011 0.74038 0.0
C164 C 0.14677 0.60371 0.74491 0.0
O165 O 0.11875 0.57012 0.74005 0.0
O166 O 0.94255 0.5675 0.71868 0.0
H167 H 0.04649 0.55942 0.74605 0.0
H168 H 0.09985 0.73889 0.69463 0.0
H169 H 0.0423 0.50889 0.76662 0.0
Zn170 Zn 0.4144 0.99258 0.88884 0.0
C171 C 0.427 0.05361 0.93324 0.0
N172 N 0.39836 0.02078 0.93998 0.0
C173 C 0.38823 0.99693 0.92576 0.0
N174 N 0.40989 0.01446 0.91108 0.0
N175 N 0.43457 0.04998 0.9158 0.0
C176 C 0.54916 0.14412 0.91083 0.0
O177 O 0.55631 0.11917 0.90308 0.0
O178 O 0.36562 0.94846 0.87929 0.0
Zn179 Zn 0.47061 0.08899 0.89887 0.0
N180 N 0.44824 0.97344 0.89322 0.0
C181 C 0.48298 0.95401 0.91213 0.0
C182 C 0.45874 0.96902 0.91011 0.0
C183 C 0.46106 0.9639 0.87832 0.0
N184 N 0.49556 0.94411 0.89719 0.0
C185 C 0.48544 0.94903 0.88026 0.0
O186 O 0.49348 0.07042 0.87897 0.0
C187 C 0.4728 0.05081 0.86569 0.0
O188 O 0.43712 0.02923 0.86787 0.0
H189 H 0.44822 0.97675 0.92185 0.0
H190 H 0.45134 0.96694 0.86512 0.0
C191 C 0.45973 0.12825 0.87069 0.0
C192 C 0.43933 0.13706 0.85813 0.0
C193 C 0.38247 0.09838 0.87458 0.0
C194 C 0.40295 0.08962 0.88699 0.0
N195 N 0.44116 0.1048 0.88474 0.0
N196 N 0.40103 0.1217 0.86042 0.0
H197 H 0.48989 0.13851 0.86901 0.0
C198 C 0.34718 0.95477 0.86715 0.0
O199 O 0.35767 0.99018 0.86295 0.0
O200 O 0.51466 0.137 0.91137 0.0
H201 H 0.38839 0.07023 0.89802 0.0
H202 H 0.49149 0.95 0.92545 0.0
H203 H 0.352 0.0864 0.87606 0.0
Zn204 Zn 0.57358 0.63837 0.81452 0.0
C205 C 0.6617 0.62952 0.79382 0.0
N206 N 0.66407 0.65719 0.78295 0.0
C207 C 0.6321 0.65807 0.78694 0.0
N208 N 0.61124 0.63273 0.79994 0.0
N209 N 0.63014 0.6149 0.80433 0.0
C210 C 0.67819 0.59189 0.84105 0.0
O211 O 0.67259 0.62066 0.84422 0.0
O212 O 0.52603 0.63248 0.80072 0.0
Zn213 Zn 0.61249 0.57275 0.82064 0.0
N214 N 0.60327 0.69101 0.82103 0.0
C215 C 0.66158 0.7406 0.83285 0.0
C216 C 0.63597 0.70197 0.83044 0.0
C217 C 0.59483 0.71687 0.81399 0.0
N218 N 0.65354 0.76657 0.82557 0.0
C219 C 0.6209 0.75598 0.81602 0.0
O220 O 0.58584 0.57599 0.84309 0.0
C221 C 0.56472 0.58883 0.84872 0.0
O222 O 0.55709 0.60996 0.83881 0.0
H223 H 0.64252 0.68081 0.8355 0.0
H224 H 0.56841 0.70661 0.80668 0.0
C225 C 0.58219 0.50055 0.80261 0.0
C226 C 0.55528 0.47054 0.79179 0.0
C227 C 0.51911 0.50208 0.78971 0.0
C228 C 0.54546 0.53123 0.80069 0.0
N229 N 0.57632 0.5298 0.8069 0.0
N230 N 0.52452 0.47246 0.78561 0.0
H231 H 0.60775 0.50125 0.80745 0.0
C232 C 0.49181 0.60655 0.80403 0.0
O233 O 0.48603 0.57971 0.81569 0.0
O234 O 0.65608 0.56626 0.82999 0.0
H235 H 0.54175 0.55516 0.80409 0.0
H236 H 0.68789 0.74994 0.84021 0.0
H237 H 0.49445 0.50281 0.78455 0.0
Zn238 Zn 0.04435 0.6223 0.99054 0.0
C239 C 0.97686 0.60018 0.9468 0.0
N240 N 1.00835 0.62814 0.93892 0.0
C241 C 0.03514 0.63914 0.95193 0.0
N242 N 0.02009 0.61857 0.96734 0.0
N243 N 0.98345 0.59418 0.96402 0.0
C244 C 0.88968 0.49377 0.96559 0.0
O245 O 0.92018 0.49051 0.96772 0.0
O246 O 0.07409 0.67532 1.00111 0.0
Zn247 Zn 0.94101 0.56935 0.98141 0.0
N248 N 0.08005 0.60469 0.98809 0.0
C249 C 0.11596 0.58132 0.97296 0.0
C250 C 0.08957 0.59397 0.97243 0.0
C251 C 0.09513 0.60287 1.00415 0.0
N252 N 0.13064 0.57891 0.98914 0.0
C253 C 0.12052 0.58899 1.00488 0.0
O254 O 0.94953 0.54913 1.00559 0.0
C255 C 0.97867 0.56218 1.01587 0.0
O256 O 1.01083 0.5883 1.01035 0.0
H257 H 0.07705 0.59547 0.95975 0.0
H258 H 0.08704 0.61215 1.01622 0.0
C259 C 0.89896 0.60939 0.98511 0.0
C260 C 0.8962 0.64194 0.98891 0.0
C261 C 0.96122 0.6747 0.99787 0.0
C262 C 0.96384 0.64249 0.99396 0.0
N263 N 0.93271 0.61052 0.98779 0.0
N264 N 0.9275 0.67364 0.99534 0.0
H265 H 0.87475 0.5834 0.9802 0.0
C266 C 0.06632 0.68409 1.0164 0.0
O267 O 0.03417 0.66037 0.02444 0.0
O268 O 0.89176 0.52529 0.96987 0.0
H269 H 0.99059 0.64297 0.99557 0.0
H270 H 0.12433 0.573 0.96067 0.0
H271 H 0.98575 0.70034 1.00284 0.0
Zn272 Zn 0.38557 0.93258 0.15182 0.0
C273 C 0.39031 0.02834 0.13102 0.0
N274 N 0.36004 1.00211 0.12174 0.0
C275 C 0.35905 0.96951 0.12622 0.0
N276 N 0.38694 0.97495 0.13794 0.0
N277 N 0.40667 0.01222 0.14101 0.0
C278 C 0.4282 0.08045 0.17642 0.0
O279 O 0.39992 0.04527 0.17805 0.0
O280 O 0.39668 0.89487 0.13743 0.0
Zn281 Zn 0.45178 0.03844 0.15561 0.0
N282 N 0.33337 0.90435 0.15941 0.0
C283 C 0.28297 0.90276 0.17642 0.0
C284 C 0.32153 0.92014 0.1722 0.0
C285 C 0.30849 0.87177 0.15071 0.0
N286 N 0.25792 0.87068 0.16745 0.0
C287 C 0.26927 0.85445 0.15451 0.0
O288 O 0.4535 0.0096 0.17749 0.0
C289 C 0.43994 0.97637 0.18413 0.0
O290 O 0.41559 0.94699 0.17552 0.0
H291 H 0.34186 0.94648 0.1787 0.0
H292 H 0.31958 0.86101 0.14051 0.0
C293 C 0.52339 0.08297 0.13725 0.0
C294 C 0.55248 0.08788 0.12523 0.0
C295 C 0.51853 0.02131 0.11918 0.0
C296 C 0.49029 0.01667 0.13131 0.0
N297 N 0.49332 0.04753 0.14005 0.0
N298 N 0.54888 0.05659 0.11651 0.0
H299 H 0.52385 0.10664 0.14419 0.0
C300 C 0.39432 0.86697 0.1466 0.0
O301 O 0.38691 0.86565 0.16396 0.0
O302 O 0.45597 0.08672 0.16615 0.0
H303 H 0.46588 0.98875 0.13366 0.0
H304 H 0.27287 0.91493 0.18652 0.0
H305 H 0.51652 0.99708 0.11203 0.0
Zn306 Zn 0.42724 0.44726 0.31969 0.0
C307 C 0.40521 0.35928 0.28742 0.0
N308 N 0.37458 0.3621 0.28258 0.0
C309 C 0.3779 0.39067 0.29307 0.0
N310 N 0.4086 0.40395 0.30412 0.0
N311 N 0.42605 0.38432 0.30055 0.0
C312 C 0.54088 0.40685 0.30461 0.0
O313 O 0.54611 0.43782 0.31286 0.0
O314 O 0.38411 0.45396 0.32911 0.0
Zn315 Zn 0.46012 0.3758 0.31654 0.0
N316 N 0.46174 0.48957 0.30518 0.0
C317 C 0.51694 0.51769 0.28664 0.0
C318 C 0.49215 0.48856 0.29809 0.0
C319 C 0.45469 0.51822 0.30125 0.0
N320 N 0.5105 0.54685 0.28299 0.0
C321 C 0.48009 0.54827 0.29003 0.0
O322 O 0.47657 0.40509 0.34074 0.0
C323 C 0.47239 0.43014 0.34928 0.0
O324 O 0.45469 0.4455 0.34219 0.0
H325 H 0.4967 0.46501 0.30116 0.0
H326 H 0.42937 0.517 0.30673 0.0
C327 C 0.43109 0.29515 0.31715 0.0
C328 C 0.40231 0.25724 0.32017 0.0
C329 C 0.36638 0.27985 0.33601 0.0
C330 C 0.39478 0.31723 0.33279 0.0
N331 N 0.42644 0.32404 0.32345 0.0
N332 N 0.3708 0.25087 0.32966 0.0
H333 H 0.4568 0.30203 0.30981 0.0
C334 C 0.36074 0.42749 0.33943 0.0
O335 O 0.36445 0.39731 0.3417 0.0
O336 O 0.50724 0.37811 0.30396 0.0
H337 H 0.39131 0.34076 0.33725 0.0
H338 H 0.54125 0.51732 0.28079 0.0
H339 H 0.34088 0.27385 0.34336 0.0
Zn340 Zn 0.09375 0.4583 0.48272 0.0
C341 C 1.00874 0.36889 0.45559 0.0
N342 N 0.03635 0.37506 0.44372 0.0
C343 C 0.06677 0.4067 0.45026 0.0
N344 N 0.05843 0.41927 0.46556 0.0
N345 N 0.02179 0.39549 0.46878 0.0
C346 C 0.9475 0.33593 0.50422 0.0
O347 O 0.98186 0.34154 0.50753 0.0
O348 O 0.14273 0.50251 0.47143 0.0
Zn349 Zn 0.99297 0.4058 0.48594 0.0
N350 N 0.10948 0.43185 0.49895 0.0
C351 C 0.10243 0.37561 0.51267 0.0
C352 C 0.09319 0.39328 0.49896 0.0
C353 C 0.1345 0.45346 0.51199 0.0
N354 N 0.12745 0.39724 0.52577 0.0
C355 C 0.14394 0.43591 0.52579 0.0
O356 O 0.0206 0.42848 0.50929 0.0
C357 C 0.04869 0.46105 0.5131 0.0
O358 O 0.07228 0.4814 0.50085 0.0
H359 H 0.07258 0.37634 0.48872 0.0
H360 H 0.14577 0.48395 0.51186 0.0
C361 C 0.94664 0.43489 0.47134 0.0
C362 C 0.94056 0.46064 0.46107 0.0
C363 C 1.00744 0.49873 0.45665 0.0
C364 C 1.01324 0.47324 0.46688 0.0
N365 N 0.98281 0.44193 0.47401 0.0
N366 N 0.97139 0.49188 0.454 0.0
H367 H 0.92313 0.40905 0.47676 0.0
C368 C 0.14519 0.52389 0.45824 0.0
O369 O 0.11386 0.51726 0.44981 0.0
O370 O 0.94406 0.35899 0.49377 0.0
H371 H 0.04172 0.47791 0.46881 0.0
H372 H 0.08959 0.34493 0.51299 0.0
H373 H 0.03134 0.52367 0.45079 0.0
Zn374 Zn 0.592 0.98178 0.65543 0.0
C375 C 0.66575 0.04965 0.6183 0.0
N376 N 0.66121 0.01609 0.61238 0.0
C377 C 0.64115 0.99199 0.62573 0.0
N378 N 0.63359 0.00977 0.63916 0.0
N379 N 0.64911 0.04625 0.63466 0.0
C380 C 0.62527 0.13707 0.6376 0.0
O381 O 0.59309 0.10976 0.64426 0.0
O382 O 0.59299 0.93624 0.66584 0.0
Zn383 Zn 0.65381 0.08701 0.65101 0.0
N384 N 0.54808 0.96579 0.64045 0.0
C385 C 0.51547 0.98374 0.61942 0.0
C386 C 0.54501 0.99364 0.63171 0.0
C387 C 0.523 0.92837 0.63744 0.0
N388 N 0.48993 0.94639 0.61661 0.0
C389 C 0.49257 0.91814 0.62534 0.0
O390 O 0.61765 0.07233 0.67281 0.0
C391 C 0.59591 0.04298 0.68218 0.0
O392 O 0.58701 0.00975 0.67683 0.0
H393 H 0.56581 0.02325 0.63409 0.0
H394 H 0.52724 0.90715 0.64426 0.0
C395 C 0.70735 0.12871 0.67755 0.0
C396 C 0.73816 0.13878 0.68927 0.0
C397 C 0.75567 0.10032 0.67216 0.0
C398 C 0.72469 0.09009 0.66066 0.0
N399 N 0.70126 0.10463 0.66361 0.0
N400 N 0.76156 0.12417 0.68625 0.0
H401 H 0.6872 0.13846 0.67984 0.0
C402 C 0.61979 0.94267 0.67679 0.0
O403 O 0.64672 0.97808 0.67957 0.0
O404 O 0.65464 0.13311 0.63816 0.0
H405 H 0.71891 0.07011 0.64978 0.0
H406 H 0.51269 1.00551 0.61224 0.0
H407 H 0.77454 0.08893 0.67009 0.0
C408 C 0.40783 0.6029 0.06813 0.0
C409 C 0.40559 0.57366 0.0793 0.0
C410 C 0.40818 0.635 0.07545 0.0
C411 C 0.38225 0.66966 0.11679 0.0
H412 H 0.44304 0.76877 0.09449 0.0
C413 C 0.39687 0.80642 0.14941 0.0
C414 C 0.39785 0.83512 0.13826 0.0
C415 C 0.39857 0.77539 0.14211 0.0
C416 C 0.42547 0.74129 0.10078 0.0
H417 H 0.40209 0.55577 0.10717 0.0
H418 H 0.40304 0.61208 0.12004 0.0
H419 H 0.44562 0.71389 0.08266 0.0
H420 H 0.40163 0.85328 0.11043 0.0
H421 H 0.40446 0.79885 0.09757 0.0
H422 H 0.36199 0.69697 0.13486 0.0
C423 C 0.40425 0.60996 0.10549 0.0
C424 C 0.427 0.70963 0.09399 0.0
C425 C 0.40407 0.57774 0.09813 0.0
C426 C 0.401 0.83193 0.11947 0.0
C427 C 0.40273 0.80067 0.11211 0.0
C428 C 0.38072 0.70129 0.12357 0.0
C429 C 0.40618 0.63909 0.09425 0.0
C430 C 0.40539 0.67323 0.10187 0.0
C431 C 0.40124 0.7717 0.12333 0.0
C432 C 0.40236 0.73771 0.11572 0.0
H433 H 0.40891 0.60089 0.05357 0.0
H434 H 0.40908 0.65623 0.06625 0.0
H435 H 0.36459 0.64217 0.12306 0.0
H436 H 0.39466 0.80776 0.16395 0.0
H437 H 0.39814 0.75437 0.1513 0.0
C438 C 0.81909 0.37631 0.25464 0.0
C439 C 0.85218 0.4121 0.25246 0.0
C440 C 0.78422 0.37352 0.25977 0.0
C441 C 0.73556 0.43202 0.26177 0.0
H442 H 0.66327 0.35104 0.29279 0.0
C443 C 0.61028 0.43861 0.296 0.0
C444 C 0.57443 0.40523 0.29709 0.0
C445 C 0.64246 0.43751 0.28978 0.0
C446 C 0.68293 0.37364 0.28395 0.0
H447 H 0.87433 0.47297 0.25457 0.0
H448 H 0.81458 0.46821 0.26384 0.0
H449 H 0.72237 0.35271 0.284 0.0
H450 H 0.54465 0.34432 0.29228 0.0
H451 H 0.60104 0.34236 0.28153 0.0
H452 H 0.69654 0.45333 0.26197 0.0
C453 C 0.81492 0.44211 0.26113 0.0
C454 C 0.71695 0.3746 0.27886 0.0
C455 C 0.84954 0.44487 0.25594 0.0
C456 C 0.57172 0.37063 0.29162 0.0
C457 C 0.60415 0.36947 0.28557 0.0
C458 C 0.70179 0.4312 0.26695 0.0
C459 C 0.78144 0.40645 0.26291 0.0
C460 C 0.74412 0.4041 0.26784 0.0
C461 C 0.64006 0.40295 0.28456 0.0
C462 C 0.67508 0.40226 0.27827 0.0
H463 H 0.81991 0.3504 0.25207 0.0
H464 H 0.75925 0.3455 0.26084 0.0
H465 H 0.75492 0.45466 0.25288 0.0
H466 H 0.61366 0.46581 0.30009 0.0
H467 H 0.66955 0.46384 0.28943 0.0
C468 C 0.18551 0.57965 0.43788 0.0
C469 C 0.1828 0.55715 0.45292 0.0
C470 C 0.22031 0.61176 0.43319 0.0
C471 C 0.31551 0.68256 0.45161 0.0
H472 H 0.34084 0.70537 0.40096 0.0
C473 C 0.45948 0.81317 0.42643 0.0
C474 C 0.45712 0.83221 0.41097 0.0
C475 C 0.4276 0.77889 0.43229 0.0
C476 C 0.33416 0.69981 0.41519 0.0
H477 H 0.21522 0.55101 0.47473 0.0
H478 H 0.27596 0.60699 0.46651 0.0
H479 H 0.283 0.6474 0.40948 0.0
H480 H 0.41868 0.83027 0.38995 0.0
H481 H 0.36391 0.77185 0.40018 0.0
H482 H 0.3667 0.7354 0.45726 0.0
C483 C 0.25097 0.59993 0.45841 0.0
C484 C 0.30081 0.66636 0.42009 0.0
C485 C 0.21611 0.5676 0.46306 0.0
C486 C 0.42196 0.81645 0.40181 0.0
C487 C 0.39037 0.78252 0.40762 0.0
C488 C 0.34896 0.71622 0.44669 0.0
C489 C 0.25361 0.62256 0.4434 0.0
C490 C 0.29059 0.65739 0.43836 0.0
C491 C 0.39264 0.76281 0.4228 0.0
C492 C 0.3585 0.72569 0.42837 0.0
H493 H 0.16059 0.57269 0.42975 0.0
H494 H 0.22089 0.6286 0.42169 0.0
H495 H 0.30858 0.67687 0.46582 0.0
H496 H 0.48605 0.82438 0.43383 0.0
H497 H 0.43063 0.76459 0.44401 0.0
C498 C 0.5885 0.40966 0.59248 0.0
C499 C 0.62105 0.44482 0.58845 0.0
C500 C 0.59173 0.3784 0.59824 0.0
C501 C 0.65621 0.33772 0.59782 0.0
H502 H 0.58741 0.27137 0.63483 0.0
C503 C 0.66227 0.20532 0.62623 0.0
C504 C 0.62735 0.17292 0.63082 0.0
C505 C 0.66376 0.23958 0.62112 0.0
C506 C 0.60657 0.28918 0.62429 0.0
H507 H 0.68283 0.4744 0.5875 0.0
H508 H 0.68848 0.41963 0.59755 0.0
H509 H 0.58622 0.32877 0.62635 0.0
H510 H 0.56648 0.15123 0.63298 0.0
H511 H 0.56893 0.20996 0.62382 0.0
H512 H 0.6762 0.29769 0.59563 0.0
C513 C 0.66033 0.41631 0.59615 0.0
C514 C 0.60595 0.32235 0.61945 0.0
C515 C 0.6571 0.44783 0.5905 0.0
C516 C 0.59398 0.17552 0.62971 0.0
C517 C 0.59544 0.20954 0.62458 0.0
C518 C 0.65673 0.30432 0.60262 0.0
C519 C 0.62762 0.38107 0.6001 0.0
C520 C 0.63037 0.34694 0.60598 0.0
C521 C 0.63037 0.24239 0.62046 0.0
C522 C 0.63151 0.27918 0.61578 0.0
H523 H 0.56023 0.40604 0.59105 0.0
H524 H 0.56583 0.35176 0.60089 0.0
H525 H 0.67528 0.35572 0.5873 0.0
H526 H 0.68859 0.20448 0.62694 0.0
H527 H 0.69126 0.26414 0.61816 0.0
C528 C 0.21739 0.64227 0.75253 0.0
C529 C 0.18307 0.60713 0.752 0.0
C530 C 0.25189 0.64417 0.75767 0.0
C531 C 0.29547 0.58135 0.76303 0.0
H532 H 0.37544 0.668 0.78856 0.0
C533 C 0.42151 0.57605 0.79748 0.0
C534 C 0.4584 0.60791 0.79611 0.0
C535 C 0.38951 0.5775 0.79122 0.0
C536 C 0.35357 0.64373 0.78126 0.0
H537 H 0.15825 0.54672 0.7573 0.0
H538 H 0.21731 0.5501 0.76677 0.0
H539 H 0.31686 0.66783 0.78014 0.0
H540 H 0.49023 0.66647 0.78692 0.0
H541 H 0.43415 0.66912 0.77614 0.0
H542 H 0.33177 0.55692 0.76451 0.0
C543 C 0.21827 0.5762 0.76262 0.0
C544 C 0.31982 0.64362 0.77638 0.0
C545 C 0.18405 0.57428 0.75733 0.0
C546 C 0.46234 0.64129 0.78813 0.0
C547 C 0.43011 0.64291 0.78208 0.0
C548 C 0.32892 0.58132 0.76806 0.0
C549 C 0.25302 0.61102 0.76257 0.0
C550 C 0.28994 0.6122 0.76734 0.0
C551 C 0.39317 0.61101 0.78356 0.0
C552 C 0.35839 0.61232 0.77739 0.0
H553 H 0.21784 0.66818 0.74845 0.0
H554 H 0.27782 0.67156 0.7573 0.0
H555 H 0.27396 0.55703 0.75563 0.0
H556 H 0.41722 0.54987 0.80356 0.0
H557 H 0.36163 0.55247 0.79279 0.0
C558 C 0.5765 0.21084 0.92396 0.0
C559 C 0.58159 0.18067 0.91791 0.0
C560 C 0.60792 0.24559 0.92971 0.0
C561 C 0.70852 0.28746 0.94592 0.0
H562 H 0.71965 0.38432 0.93113 0.0
C563 C 0.85254 0.42635 0.95419 0.0
C564 C 0.85314 0.46012 0.95931 0.0
C565 C 0.81838 0.39362 0.9494 0.0
C566 C 0.71688 0.35759 0.9356 0.0
H567 H 0.62409 0.16379 0.91342 0.0
H568 H 0.67807 0.22352 0.92337 0.0
H569 H 0.66186 0.32493 0.92302 0.0
H570 H 0.8177 0.48582 0.96285 0.0
H571 H 0.75782 0.42846 0.95466 0.0
H572 H 0.76313 0.31963 0.95854 0.0
C573 C 0.64995 0.22054 0.92384 0.0
C574 C 0.6836 0.32342 0.93093 0.0
C575 C 0.6188 0.18613 0.91801 0.0
C576 C 0.81844 0.46038 0.95902 0.0
C577 C 0.78403 0.42741 0.95425 0.0
C578 C 0.74156 0.32145 0.95063 0.0
C579 C 0.64517 0.25093 0.92975 0.0
C580 C 0.67919 0.28776 0.93578 0.0
C581 C 0.78337 0.39326 0.94962 0.0
C582 C 0.7467 0.35715 0.94531 0.0
H583 H 0.54834 0.20779 0.92408 0.0
H584 H 0.60296 0.26814 0.93429 0.0
H585 H 0.70597 0.26076 0.9503 0.0
H586 H 0.87858 0.42495 0.95403 0.0
H587 H 0.81954 0.36847 0.94548 0.0
C588 C 0.44972 0.08944 0.9621 0.0
C589 C 0.44332 0.08965 0.94347 0.0
C590 C 0.45783 0.12107 0.97277 0.0
C591 C 0.47831 0.22233 0.97079 0.0
H592 H 0.42741 0.19645 1.01734 0.0
C593 C 0.43092 0.31637 1.00821 0.0
C594 C 0.44024 0.3239 0.02663 0.0
C595 C 0.43741 0.29015 0.99893 0.0
C596 C 0.44223 0.20419 1.0045 0.0
H597 H 0.44115 0.12327 0.92128 0.0
H598 H 0.45408 0.17808 0.93982 0.0
H599 H 0.42891 0.14707 0.99924 0.0
H600 H 0.46319 0.30944 0.04986 0.0
H601 H 0.47335 0.26221 0.03365 0.0
H602 H 0.48938 0.27914 0.97578 0.0
C603 C 0.45415 0.15412 0.94626 0.0
C604 C 0.44333 0.17592 0.99409 0.0
C605 C 0.44672 0.12265 0.93554 0.0
C606 C 0.45584 0.30426 0.03566 0.0
C607 C 0.4616 0.27728 0.02641 0.0
C608 C 0.47659 0.25043 0.98108 0.0
C609 C 0.45868 0.15335 0.96515 0.0
C610 C 0.46092 0.18442 0.97694 0.0
C611 C 0.45273 0.27027 1.00791 0.0
C612 C 0.45807 0.2415 0.99791 0.0
H613 H 0.44722 0.06424 0.96852 0.0
H614 H 0.46222 0.11964 0.98713 0.0
H615 H 0.49283 0.23031 0.95789 0.0
H616 H 0.41906 0.33119 1.00084 0.0
H617 H 0.42987 0.28496 0.98474 0.0
C618 C 0.10446 0.37211 0.18092 0.0
C619 C 0.11013 0.40075 0.19331 0.0
C620 C 0.13463 0.37547 0.1704 0.0
C621 C 0.22818 0.44585 0.15184 0.0
H622 H 0.23799 0.35658 0.14381 0.0
C623 C 0.35482 0.4466 0.11315 0.0
C624 C 0.34563 0.41376 0.10311 0.0
C625 C 0.3267 0.44832 0.12355 0.0
C626 C 0.2354 0.38172 0.14567 0.0
H627 H 0.15228 0.45514 0.20462 0.0
H628 H 0.20512 0.46084 0.18625 0.0
H629 H 0.18873 0.35247 0.16392 0.0
H630 H 0.30013 0.35829 0.0949 0.0
H631 H 0.25089 0.36194 0.11214 0.0
H632 H 0.27516 0.47508 0.13353 0.0
C633 C 0.17714 0.43599 0.18457 0.0
C634 C 0.20718 0.37935 0.15728 0.0
C635 C 0.14694 0.43253 0.1952 0.0
C636 C 0.3078 0.38384 0.10264 0.0
C637 C 0.27975 0.38579 0.11269 0.0
C638 C 0.25658 0.44824 0.14016 0.0
C639 C 0.17124 0.40759 0.17196 0.0
C640 C 0.20286 0.41119 0.16035 0.0
C641 C 0.2891 0.41727 0.1239 0.0
C642 C 0.26008 0.41598 0.13671 0.0
H643 H 0.0765 0.34733 0.17906 0.0
H644 H 0.12901 0.35326 0.16069 0.0
H645 H 0.22542 0.47086 0.15384 0.0
H646 H 0.38402 0.46977 0.11385 0.0
H647 H 0.33484 0.47304 0.132 0.0
C648 C 0.73832 0.14306 0.36682 0.0
C649 C 0.71732 0.10743 0.35835 0.0
C650 C 0.76388 0.1752 0.3568 0.0
C651 C 0.81477 0.20206 0.31227 0.0
H652 H 0.83251 0.30276 0.32439 0.0
C653 C 0.90644 0.33008 0.26674 0.0
C654 C 0.9382 0.35889 0.27582 0.0
C655 C 0.87532 0.3023 0.27649 0.0
C656 C 0.82761 0.27472 0.32084 0.0
H657 H 0.7058 0.07775 0.3327 0.0
H658 H 0.74855 0.13337 0.31527 0.0
H659 H 0.78754 0.24781 0.34233 0.0
H660 H 0.96134 0.38286 0.3021 0.0
H661 H 0.90655 0.33498 0.31913 0.0
H662 H 0.8543 0.22895 0.29061 0.0
C663 C 0.74688 0.13671 0.32969 0.0
C664 C 0.80217 0.24323 0.33122 0.0
C665 C 0.72208 0.10465 0.33972 0.0
C666 C 0.93704 0.3611 0.29475 0.0
C667 C 0.9057 0.33373 0.3045 0.0
C668 C 0.83952 0.23332 0.30175 0.0
C669 C 0.76843 0.17248 0.33805 0.0
C670 C 0.79548 0.2064 0.32712 0.0
C671 C 0.87528 0.30315 0.2955 0.0
C672 C 0.84636 0.26999 0.30594 0.0
H673 H 0.7352 0.14603 0.38117 0.0
H674 H 0.7803 0.20203 0.36383 0.0
H675 H 0.81142 0.17455 0.30889 0.0
H676 H 0.90674 0.32722 0.25226 0.0
H677 H 0.8521 0.2791 0.26922 0.0
C678 C 0.5771 0.90315 0.44818 0.0
C679 C 0.60976 0.92378 0.43751 0.0
C680 C 0.57297 0.87246 0.45872 0.0
C681 C 0.6358 0.8439 0.48118 0.0
H682 H 0.54413 0.74795 0.49104 0.0
C683 C 0.64118 0.72318 0.51902 0.0
C684 C 0.61237 0.70144 0.53156 0.0
C685 C 0.6385 0.74973 0.50801 0.0
C686 C 0.56984 0.77486 0.48859 0.0
H687 H 0.66229 0.92753 0.42839 0.0
H688 H 0.65463 0.87351 0.44613 0.0
H689 H 0.54183 0.79294 0.46955 0.0
H690 H 0.55834 0.69108 0.54258 0.0
H691 H 0.55386 0.73796 0.52336 0.0
H692 H 0.66391 0.82632 0.5001 0.0
C693 C 0.63257 0.8812 0.4468 0.0
C694 C 0.56852 0.80052 0.47624 0.0
C695 C 0.63675 0.91181 0.43646 0.0
C696 C 0.58104 0.70738 0.53305 0.0
C697 C 0.57831 0.734 0.52195 0.0
C698 C 0.63709 0.81845 0.49346 0.0
C699 C 0.60161 0.86232 0.45871 0.0
C700 C 0.60171 0.83504 0.47217 0.0
C701 C 0.60696 0.75536 0.50923 0.0
C702 C 0.60434 0.78335 0.49712 0.0
H703 H 0.55625 0.91238 0.44936 0.0
H704 H 0.54877 0.85842 0.46773 0.0
H705 H 0.66165 0.87074 0.47878 0.0
H706 H 0.66563 0.71927 0.51745 0.0
H707 H 0.66085 0.76529 0.4982 0.0
C708 C 0.68308 0.58733 0.62621 0.0
C709 C 0.68434 0.58854 0.60725 0.0
C710 C 0.70697 0.57839 0.63607 0.0
C711 C 0.75355 0.54937 0.65506 0.0
H712 H 0.8586 0.60285 0.6389 0.0
C713 C 0.87746 0.55359 0.69715 0.0
C714 C 0.91207 0.58838 0.69724 0.0
C715 C 0.84768 0.54811 0.68555 0.0
C716 C 0.82941 0.58786 0.64367 0.0
H717 H 0.71099 0.58037 0.58368 0.0
H718 H 0.75261 0.56389 0.60089 0.0
H719 H 0.80887 0.6002 0.61939 0.0
H720 H 0.94189 0.64515 0.6857 0.0
H721 H 0.88997 0.63601 0.66594 0.0
H722 H 0.77442 0.53878 0.67974 0.0
C723 C 0.73308 0.57003 0.60815 0.0
C724 C 0.80074 0.58578 0.63232 0.0
C725 C 0.7089 0.57896 0.59825 0.0
C726 C 0.91576 0.61788 0.6859 0.0
C727 C 0.88605 0.61248 0.67439 0.0
C728 C 0.78227 0.55158 0.66645 0.0
C729 C 0.7331 0.57065 0.62723 0.0
C730 C 0.76252 0.56734 0.63803 0.0
C731 C 0.85181 0.57735 0.67382 0.0
C732 C 0.82072 0.57171 0.66109 0.0
H733 H 0.66458 0.5949 0.6335 0.0
H734 H 0.70642 0.57978 0.65068 0.0
H735 H 0.72436 0.53443 0.65981 0.0
H736 H 0.87372 0.53022 0.70567 0.0
H737 H 0.8218 0.52064 0.68545 0.0
C738 C 0.12817 0.68196 0.77317 0.0
C739 C 0.10792 0.69188 0.76102 0.0
C740 C 0.15854 0.71031 0.78317 0.0
C741 C 0.18524 0.80484 0.80105 0.0
H742 H 0.27736 0.8074 0.81771 0.0
C743 C 0.29967 0.93071 0.84194 0.0
C744 C 0.31782 0.92305 0.8562 0.0
C745 C 0.27494 0.90167 0.83032 0.0
C746 C 0.25149 0.80675 0.81332 0.0
H747 H 0.1048 0.73856 0.74858 0.0
H748 H 0.15864 0.7881 0.76534 0.0
H749 H 0.23606 0.75906 0.79572 0.0
H750 H 0.32337 0.87851 0.86975 0.0
H751 H 0.27967 0.82757 0.84951 0.0
H752 H 0.20016 0.85204 0.81865 0.0
C753 C 0.15076 0.75864 0.7676 0.0
C754 C 0.22797 0.77919 0.80067 0.0
C755 C 0.12033 0.73039 0.75781 0.0
C756 C 0.30986 0.88538 0.85887 0.0
C757 C 0.28512 0.85626 0.84719 0.0
C758 C 0.20862 0.83223 0.81364 0.0
C759 C 0.16884 0.74885 0.78111 0.0
C760 C 0.19475 0.77819 0.79427 0.0
C761 C 0.26767 0.86417 0.83267 0.0
C762 C 0.24217 0.83376 0.81984 0.0
H763 H 0.11847 0.65229 0.77608 0.0
H764 H 0.17185 0.7018 0.79347 0.0
H765 H 0.15927 0.80421 0.79686 0.0
H766 H 0.30523 0.9594 0.83944 0.0
H767 H 0.26231 0.90886 0.81917 0.0
C768 C 0.72828 0.61477 0.86509 0.0
C769 C 0.70731 0.58798 0.85158 0.0
C770 C 0.75364 0.61007 0.87614 0.0
C771 C 0.8111 0.56283 0.87939 0.0
H772 H 0.8137 0.58689 0.93031 0.0
C773 C 0.91947 0.55649 0.92851 0.0
C774 C 0.93882 0.58877 0.93953 0.0
C775 C 0.88646 0.54971 0.91917 0.0
C776 C 0.81342 0.58012 0.91613 0.0
H777 H 0.69753 0.53575 0.83873 0.0
H778 H 0.74223 0.52762 0.85807 0.0
H779 H 0.76634 0.58875 0.9106 0.0
H780 H 0.93953 0.63922 0.94957 0.0
H781 H 0.88207 0.62756 0.93348 0.0
H782 H 0.8589 0.5552 0.88485 0.0
C783 C 0.73883 0.55224 0.86009 0.0
C784 C 0.78631 0.58126 0.90481 0.0
C785 C 0.71318 0.55686 0.84905 0.0
C786 C 0.9244 0.61363 0.94147 0.0
C787 C 0.89148 0.60688 0.93224 0.0
C788 C 0.83833 0.56174 0.89072 0.0
C789 C 0.7589 0.57852 0.87397 0.0
C790 C 0.78538 0.57353 0.88622 0.0
C791 C 0.87252 0.57531 0.92065 0.0
C792 C 0.84039 0.57125 0.90916 0.0
H793 H 0.7247 0.63922 0.86739 0.0
H794 H 0.76925 0.63132 0.8864 0.0
H795 H 0.8113 0.5569 0.86512 0.0
H796 H 0.93056 0.53728 0.92667 0.0
H797 H 0.87236 0.52497 0.91048 0.0
C798 C 0.33852 0.90942 0.10906 0.0
C799 C 0.32915 0.93273 0.11927 0.0
C800 C 0.31017 0.87873 0.09928 0.0
C801 C 0.20628 0.81666 0.0937 0.0
H802 H 0.2293 0.82169 0.0426 0.0
C803 C 0.08764 0.73056 0.04198 0.0
C804 C 0.09669 0.7158 0.02683 0.0
C805 C 0.11644 0.75657 0.05339 0.0
C806 C 0.22245 0.81913 0.05685 0.0
H807 H 0.28337 0.94193 0.12806 0.0
H808 H 0.23369 0.88781 0.11141 0.0
H809 H 0.27883 0.86332 0.06366 0.0
H810 H 0.14303 0.71703 1.01156 0.0
H811 H 0.19297 0.7609 0.03173 0.0
H812 H 0.15031 0.77185 0.08717 0.0
C813 C 0.26267 0.89304 0.11087 0.0
C814 C 0.25095 0.84311 0.06892 0.0
C815 C 0.29102 0.92399 0.12035 0.0
C816 C 0.13516 0.72831 0.02302 0.0
C817 C 0.16389 0.75361 0.03463 0.0
C818 C 0.17801 0.79194 0.08172 0.0
C819 C 0.27214 0.8709 0.09976 0.0
C820 C 0.24303 0.84241 0.08743 0.0
C821 C 0.15494 0.76772 0.05015 0.0
C822 C 0.18548 0.79324 0.06305 0.0
H823 H 0.36792 0.9162 0.10784 0.0
H824 H 0.31811 0.86189 0.09089 0.0
H825 H 0.19933 0.81578 0.10788 0.0
H826 H 0.0582 0.72148 0.0452 0.0
H827 H 0.10836 0.76755 0.06487 0.0
C828 C 0.44792 0.33927 0.27241 0.0
C829 C 0.41233 0.32976 0.27979 0.0
C830 C 0.45238 0.31231 0.26241 0.0
C831 C 0.39376 0.22663 0.23486 0.0
H832 H 0.48319 0.2149 0.23458 0.0
C833 C 0.39554 0.10348 0.19731 0.0
C834 C 0.42824 0.11113 0.18741 0.0
C835 C 0.39554 0.13108 0.20861 0.0
C836 C 0.45822 0.2182 0.23438 0.0
H837 H 0.35403 0.28457 0.28335 0.0
H838 H 0.36181 0.23729 0.26635 0.0
H839 H 0.47995 0.26006 0.25558 0.0
H840 H 0.48664 0.15411 0.18155 0.0
H841 H 0.48659 0.20266 0.20137 0.0
H842 H 0.37187 0.18492 0.21382 0.0
C843 C 0.38617 0.26563 0.26787 0.0
C844 C 0.45634 0.244 0.24642 0.0
C845 C 0.38174 0.29256 0.27771 0.0
C846 C 0.46095 0.14735 0.18896 0.0
C847 C 0.46103 0.17502 0.20042 0.0
C848 C 0.3956 0.20092 0.22293 0.0
C849 C 0.42116 0.2755 0.25954 0.0
C850 C 0.42389 0.24827 0.2469 0.0
C851 C 0.42827 0.16714 0.21039 0.0
C852 C 0.42767 0.19611 0.2226 0.0
H853 H 0.47158 0.36814 0.27339 0.0
H854 H 0.47965 0.32095 0.25611 0.0
H855 H 0.36874 0.22985 0.23449 0.0
H856 H 0.36985 0.07591 0.1965 0.0
H857 H 0.36997 0.12385 0.21623 0.0
C858 C 0.13805 0.43512 0.45 0.0
C859 C 0.1038 0.42462 0.44088 0.0
C860 C 0.17155 0.44563 0.44019 0.0
C861 C 0.22453 0.43212 0.41585 0.0
H862 H 0.24468 0.48092 0.36886 0.0
C863 C 0.3066 0.40203 0.36134 0.0
C864 C 0.33263 0.43209 0.35036 0.0
C865 C 0.28243 0.40705 0.37305 0.0
C866 C 0.23988 0.46766 0.38204 0.0
H867 H 0.0777 0.41832 0.4146 0.0
H868 H 0.13543 0.43618 0.39757 0.0
H869 H 0.1986 0.4839 0.38902 0.0
H870 H 0.35293 0.49082 0.34271 0.0
H871 H 0.31073 0.4997 0.36329 0.0
H872 H 0.26567 0.41577 0.40888 0.0
C873 C 0.13711 0.43705 0.41219 0.0
C874 C 0.21322 0.46911 0.39356 0.0
C875 C 0.10388 0.42649 0.42195 0.0
C876 C 0.33314 0.46705 0.35098 0.0
C877 C 0.30894 0.47213 0.36277 0.0
C878 C 0.25125 0.43078 0.40437 0.0
C879 C 0.17117 0.44571 0.42112 0.0
C880 C 0.20437 0.45037 0.41038 0.0
C881 C 0.28369 0.44233 0.37416 0.0
C882 C 0.25843 0.44753 0.38709 0.0
H883 H 0.13855 0.43328 0.46458 0.0
H884 H 0.19739 0.45243 0.4475 0.0
H885 H 0.21832 0.41714 0.42863 0.0
H886 H 0.3052 0.37461 0.3611 0.0
H887 H 0.26265 0.38315 0.38124 0.0
C888 C 0.71111 0.12057 0.61523 0.0
C889 C 0.6871 0.08485 0.60741 0.0
C890 C 0.7355 0.15176 0.60437 0.0
C891 C 0.80345 0.20048 0.57988 0.0
H892 H 0.77717 0.2138 0.53101 0.0
C893 C 0.91914 0.28238 0.52654 0.0
C894 C 0.91439 0.30672 0.5146 0.0
C895 C 0.88943 0.25764 0.53788 0.0
C896 C 0.78497 0.21082 0.54468 0.0
H897 H 0.66854 0.05425 0.58201 0.0
H898 H 0.71086 0.10793 0.56324 0.0
H899 H 0.72744 0.1693 0.55135 0.0
H900 H 0.87411 0.32321 0.50484 0.0
H901 H 0.8222 0.28005 0.52473 0.0
H902 H 0.86091 0.24204 0.57326 0.0
C903 C 0.71085 0.11239 0.57768 0.0
C904 C 0.75647 0.18504 0.55631 0.0
C905 C 0.68672 0.08142 0.58849 0.0
C906 C 0.87872 0.30479 0.51386 0.0
C907 C 0.84893 0.28001 0.52526 0.0
C908 C 0.83191 0.22628 0.56826 0.0
C909 C 0.73627 0.14777 0.58547 0.0
C910 C 0.76546 0.17892 0.57394 0.0
C911 C 0.85415 0.25658 0.53765 0.0
C912 C 0.82321 0.23119 0.55038 0.0
H913 H 0.71257 0.12413 0.62969 0.0
H914 H 0.75444 0.17872 0.61083 0.0
H915 H 0.81157 0.19636 0.59328 0.0
H916 H 0.94612 0.28289 0.52741 0.0
H917 H 0.89422 0.23935 0.5469 0.0
C918 C 0.58651 0.87478 0.68754 0.0
C919 C 0.61884 0.91143 0.68762 0.0
C920 C 0.58439 0.8464 0.69911 0.0
C921 C 0.62764 0.83473 0.74131 0.0
H922 H 0.58243 0.72959 0.7258 0.0
C923 C 0.65417 0.72476 0.77786 0.0
C924 C 0.62436 0.68695 0.7791 0.0
C925 C 0.64934 0.75172 0.76827 0.0
C926 C 0.59458 0.75871 0.73045 0.0
H927 H 0.67493 0.94649 0.69936 0.0
H928 H 0.67171 0.89695 0.71911 0.0
H929 H 0.58313 0.777 0.70523 0.0
H930 H 0.56628 0.6473 0.77124 0.0
H931 H 0.55733 0.69472 0.75456 0.0
H932 H 0.64041 0.81673 0.76626 0.0
C933 C 0.64745 0.89031 0.71053 0.0
C934 C 0.59503 0.78595 0.71864 0.0
C935 C 0.64947 0.91868 0.69907 0.0
C936 C 0.58926 0.67658 0.77088 0.0
C937 C 0.58445 0.70356 0.7611 0.0
C938 C 0.62752 0.80761 0.75303 0.0
C939 C 0.61464 0.85399 0.71096 0.0
C940 C 0.61211 0.82444 0.72381 0.0
C941 C 0.61472 0.7413 0.75943 0.0
C942 C 0.6114 0.76935 0.74767 0.0
H943 H 0.56237 0.86827 0.6789 0.0
H944 H 0.55859 0.81886 0.69912 0.0
H945 H 0.64017 0.86389 0.74596 0.0
H946 H 0.68161 0.73329 0.78401 0.0
H947 H 0.67335 0.78037 0.76714 0.0
C948 C 0.4393 0.45353 0.9973 0.0
C949 C 0.43907 0.47709 1.01123 0.0
C950 C 0.44991 0.46745 0.97967 0.0
C951 C 0.51171 0.5526 0.95444 0.0
H952 H 0.44907 0.50024 0.91273 0.0
C953 C 0.56894 0.57099 0.88083 0.0
C954 C 0.5492 0.57905 0.86745 0.0
C955 C 0.5545 0.56125 0.89844 0.0
C956 C 0.46677 0.51528 0.92425 0.0
H957 H 0.45 0.53392 1.01748 0.0
H958 H 0.46995 0.55872 0.98666 0.0
H959 H 0.42478 0.47765 0.94333 0.0
H960 H 0.49853 0.5829 0.86215 0.0
H961 H 0.47253 0.56438 0.89285 0.0
H962 H 0.55439 0.58913 0.93535 0.0
C963 C 0.46115 0.5292 0.98944 0.0
C964 C 0.45294 0.50228 0.94174 0.0
C965 C 0.44952 0.51495 1.00703 0.0
C966 C 0.51451 0.577 0.87214 0.0
C967 C 0.49956 0.56627 0.88968 0.0
C968 C 0.5259 0.56502 0.93694 0.0
C969 C 0.46153 0.50559 0.97557 0.0
C970 C 0.47529 0.52073 0.95703 0.0
C971 C 0.51948 0.55841 0.90304 0.0
C972 C 0.50365 0.54644 0.92164 0.0
H973 H 0.43149 0.42425 1.00008 0.0
H974 H 0.45014 0.44866 0.96931 0.0
H975 H 0.52968 0.56719 0.96595 0.0
H976 H 0.59581 0.57245 0.87772 0.0
H977 H 0.57039 0.55514 0.90839 0.0
C978 C 0.95561 0.45829 0.17608 0.0
C979 C 0.9762 0.43946 0.17975 0.0
C980 C 0.95488 0.47147 0.15855 0.0
C981 C 1.00737 0.49571 0.11454 0.0
H982 H 0.91506 0.489 0.09526 0.0
C983 C 1.00802 0.56568 0.04631 0.0
C984 C 0.97631 0.54728 0.03466 0.0
C985 C 1.00702 0.55244 0.06389 0.0
C986 C 0.94103 0.4908 0.10032 0.0
H987 H 1.01217 0.41985 0.16762 0.0
H988 H 1.01051 0.44218 0.13733 0.0
H989 H 0.91526 0.4664 0.12587 0.0
H990 H 0.91827 0.50037 0.0328 0.0
H991 H 0.91657 0.47682 0.06353 0.0
H992 H 0.03296 0.51909 0.08896 0.0
C993 C 0.99528 0.44736 0.14796 0.0
C994 C 0.9413 0.47828 0.11804 0.0
C995 C 0.99597 0.43421 0.16541 0.0
C996 C 0.94326 0.51529 0.04131 0.0
C997 C 0.94226 0.50192 0.05902 0.0
C998 C 1.00709 0.50812 0.09686 0.0
C999 C 0.9748 0.46628 0.14421 0.0
C1000 C 0.97447 0.48043 0.12543 0.0
C1001 C 0.97426 0.5202 0.07057 0.0
C1002 C 0.97396 0.50599 0.08943 0.0
H1003 H 0.94021 0.46307 0.18677 0.0
H1004 H 0.93914 0.48628 0.15631 0.0
H1005 H 0.03367 0.49842 0.11971 0.0
H1006 H 0.0339 0.59073 0.04189 0.0
H1007 H 0.032 0.56797 0.07234 0.0
C1008 C 0.4314 0.93839 0.21262 0.0
C1009 C 0.45209 0.97229 0.20265 0.0
C1010 C 0.44214 0.93559 0.23037 0.0
C1011 C 0.52467 0.97785 0.26142 0.0
H1012 H 0.44981 0.93836 0.29994 0.0
C1013 C 0.57195 0.99903 0.33575 0.0
C1014 C 0.55106 0.97004 0.34839 0.0
C1015 C 0.55819 0.9972 0.31824 0.0
C1016 C 0.47107 0.94894 0.28934 0.0
H1017 H 0.50066 0.02964 0.20362 0.0
H1018 H 0.51957 0.02451 0.23429 0.0
H1019 H 0.42926 0.93813 0.26878 0.0
H1020 H 0.49891 0.9164 0.35245 0.0
H1021 H 0.47515 0.91257 0.32157 0.0
H1022 H 0.56646 0.98827 0.28168 0.0
C1023 C 0.49501 1.00008 0.22842 0.0
C1024 C 0.45924 0.94886 0.27146 0.0
C1025 C 0.48403 1.00306 0.21082 0.0
C1026 C 0.51565 0.93928 0.34308 0.0
C1027 C 0.502 0.93719 0.32537 0.0
C1028 C 0.53642 0.97759 0.27919 0.0
C1029 C 0.47415 0.96642 0.23848 0.0
C1030 C 0.48601 0.9639 0.25733 0.0
C1031 C 0.52332 0.96599 0.31262 0.0
C1032 C 0.50995 0.96379 0.29351 0.0
H1033 H 0.40654 0.91418 0.20681 0.0
H1034 H 0.4256 0.90918 0.23771 0.0
H1035 H 0.54596 0.98897 0.25083 0.0
H1036 H 0.59913 0.02344 0.33939 0.0
H1037 H 0.57502 0.02052 0.3091 0.0
C1038 C 0.48202 0.46852 0.37759 0.0
C1039 C 0.48663 0.44071 0.36832 0.0
C1040 C 0.4931 0.47735 0.39571 0.0
C1041 C 0.55267 0.46964 0.43224 0.0
H1042 H 0.48767 0.49035 0.46304 0.0
C1043 C 0.57983 0.49982 0.51012 0.0
C1044 C 0.57448 0.52926 0.51701 0.0
C1045 C 0.56894 0.48651 0.49228 0.0
C1046 C 0.50643 0.48502 0.45465 0.0
H1047 H 0.50746 0.40092 0.37108 0.0
H1048 H 0.5267 0.41626 0.40279 0.0
H1049 H 0.46993 0.47249 0.43166 0.0
H1050 H 0.55329 0.56755 0.51027 0.0
H1051 H 0.53452 0.54458 0.4796 0.0
H1052 H 0.58924 0.48238 0.45541 0.0
C1053 C 0.51464 0.43144 0.39592 0.0
C1054 C 0.49624 0.47478 0.43655 0.0
C1055 C 0.50346 0.42252 0.3777 0.0
C1056 C 0.55775 0.54473 0.50559 0.0
C1057 C 0.54671 0.53134 0.48792 0.0
C1058 C 0.5629 0.4799 0.45045 0.0
C1059 C 0.50916 0.45868 0.40527 0.0
C1060 C 0.51945 0.4675 0.42493 0.0
C1061 C 0.55209 0.50204 0.48093 0.0
C1062 C 0.5402 0.48834 0.46186 0.0
H1063 H 0.46943 0.48342 0.37092 0.0
H1064 H 0.48913 0.49908 0.4022 0.0
H1065 H 0.57145 0.4645 0.42377 0.0
H1066 H 0.59291 0.48741 0.51842 0.0
H1067 H 0.5734 0.4638 0.48745 0.0
C1068 C 0.02185 0.55344 0.66815 0.0
C1069 C 0.05194 0.56287 0.6804 0.0
C1070 C 0.02423 0.54397 0.65022 0.0
C1071 C 0.09191 0.54924 0.61451 0.0
H1072 H 0.99844 0.47135 0.59241 0.0
C1073 C 0.07796 0.51259 0.53714 0.0
C1074 C 0.05338 0.47438 0.53222 0.0
C1075 C 0.08043 0.52433 0.55525 0.0
C1076 C 0.02503 0.49287 0.59832 0.0
H1077 H 0.10858 0.57014 0.68305 0.0
H1078 H 0.11234 0.55252 0.65174 0.0
H1079 H 0.99807 0.48852 0.62368 0.0
H1080 H 1.01385 0.41826 0.54281 0.0
H1081 H 0.01887 0.43825 0.57398 0.0
H1082 H 0.11899 0.5525 0.58908 0.0
C1083 C 0.087 0.55298 0.65604 0.0
C1084 C 0.02467 0.50322 0.61632 0.0
C1085 C 0.08471 0.56274 0.67408 0.0
C1086 C 0.03251 0.4481 0.54593 0.0
C1087 C 0.03525 0.45966 0.56392 0.0
C1088 C 0.09232 0.53866 0.59643 0.0
C1089 C 0.05663 0.54323 0.64387 0.0
C1090 C 0.05798 0.53172 0.62471 0.0
C1091 C 0.0586 0.49805 0.56888 0.0
C1092 C 0.05883 0.51021 0.58807 0.0
H1093 H 0.99634 0.55371 0.67233 0.0
H1094 H 1.00061 0.53765 0.64126 0.0
H1095 H 0.11809 0.57154 0.62039 0.0
H1096 H 0.09463 0.53356 0.52695 0.0
H1097 H 0.09866 0.55417 0.55847 0.0
C1098 C 0.52522 0.08268 0.84219 0.0
C1099 C 0.48928 0.05257 0.84741 0.0
C1100 C 0.53926 0.084 0.82461 0.0
C1101 C 0.52934 0.02223 0.7857 0.0
H1102 H 0.56744 0.11323 0.75632 0.0
C1103 C 0.55267 0.01598 0.70914 0.0
C1104 C 0.58311 0.04736 0.70053 0.0
C1105 C 0.54272 0.01855 0.72702 0.0
C1106 C 0.55747 0.08766 0.76435 0.0
H1107 H 0.44029 1.00008 0.83813 0.0
H1108 H 0.46506 1.00193 0.80802 0.0
H1109 H 0.54952 0.11438 0.78779 0.0
H1110 H 0.62674 0.10644 0.70414 0.0
H1111 H 0.61005 0.11076 0.73545 0.0
H1112 H 0.53773 0.99548 0.76266 0.0
C1113 C 0.48238 0.02466 0.81737 0.0
C1114 C 0.54713 0.08838 0.78245 0.0
C1115 C 0.46809 0.02373 0.83469 0.0
C1116 C 0.60286 0.08175 0.71024 0.0
C1117 C 0.5932 0.08421 0.72827 0.0
C1118 C 0.54008 0.02161 0.76775 0.0
C1119 C 0.51803 0.05483 0.81201 0.0
C1120 C 0.53232 0.05545 0.79327 0.0
C1121 C 0.56326 0.05244 0.73706 0.0
C1122 C 0.55367 0.05408 0.75661 0.0
H1123 H 0.5422 0.10547 0.85157 0.0
H1124 H 0.5669 0.1076 0.82093 0.0
H1125 H 0.51862 0.9965 0.79371 0.0
H1126 H 0.5366 0.98909 0.70209 0.0
H1127 H 0.51881 0.99369 0.73295 0.0
C1128 C 0.37219 0.07832 0.12971 0.0
C1129 C 0.40146 0.06922 0.13007 0.0
C1130 C 0.37952 0.1145 0.12455 0.0
C1131 C 0.44851 0.21487 0.11856 0.0
H1132 H 0.38025 0.2078 0.07996 0.0
C1133 C 0.44676 0.34883 0.0896 0.0
C1134 C 0.4099 0.34372 0.08781 0.0
C1135 C 0.45186 0.31726 0.09259 0.0
C1136 C 0.3995 0.21046 0.09078 0.0
H1137 H 0.46175 0.09154 0.12581 0.0
H1138 H 0.47512 0.15596 0.11727 0.0
H1139 H 0.378 0.15028 0.09129 0.0
H1140 H 0.34978 0.30191 0.08738 0.0
H1141 H 0.35834 0.24747 0.09237 0.0
H1142 H 0.46871 0.27507 0.11861 0.0
C1143 C 0.4464 0.13471 0.12107 0.0
C1144 C 0.39827 0.17741 0.09723 0.0
C1145 C 0.43889 0.09802 0.12614 0.0
C1146 C 0.37855 0.30663 0.08843 0.0
C1147 C 0.38355 0.27533 0.09126 0.0
C1148 C 0.44947 0.24814 0.11221 0.0
C1149 C 0.41641 0.14279 0.11958 0.0
C1150 C 0.42197 0.17901 0.11152 0.0
C1151 C 0.42017 0.28007 0.09375 0.0
C1152 C 0.42412 0.2462 0.09857 0.0
H1153 H 0.34302 0.05672 0.13261 0.0
H1154 H 0.35593 0.11998 0.12379 0.0
H1155 H 0.46715 0.21696 0.12957 0.0
H1156 H 0.47139 0.37722 0.08951 0.0
H1157 H 0.48049 0.32201 0.09434 0.0
C1158 C 0.31126 0.37522 0.29907 0.0
C1159 C 0.34813 0.40189 0.2933 0.0
C1160 C 0.28054 0.38144 0.29622 0.0
C1161 C 0.24704 0.43099 0.2656 0.0
H1162 H 0.16593 0.39789 0.30088 0.0
C1163 C 0.10448 0.43584 0.25405 0.0
C1164 C 0.07128 0.40435 0.2609 0.0
C1165 C 0.14076 0.43999 0.25756 0.0
C1166 C 0.1881 0.40701 0.29075 0.0
H1167 H 0.3819 0.45614 0.27997 0.0
H1168 H 0.32799 0.46725 0.27488 0.0
H1169 H 0.22452 0.39838 0.30882 0.0
H1170 H 0.0502 0.35204 0.2762 0.0
H1171 H 0.11223 0.35885 0.28201 0.0
H1172 H 0.20991 0.43885 0.24741 0.0
C1173 C 0.32288 0.44153 0.28177 0.0
C1174 C 0.22189 0.40737 0.29536 0.0
C1175 C 0.35386 0.43547 0.28489 0.0
C1176 C 0.07513 0.37684 0.27082 0.0
C1177 C 0.11092 0.38091 0.2743 0.0
C1178 C 0.21299 0.43054 0.26095 0.0
C1179 C 0.28561 0.41425 0.28716 0.0
C1180 C 0.2516 0.4185 0.28276 0.0
C1181 C 0.14447 0.41292 0.26814 0.0
C1182 C 0.18259 0.41759 0.27333 0.0
H1183 H 0.30593 0.34876 0.30527 0.0
H1184 H 0.25239 0.35951 0.30039 0.0
H1185 H 0.26915 0.43957 0.25548 0.0
H1186 H 0.10258 0.45791 0.24666 0.0
H1187 H 0.16591 0.46505 0.25257 0.0
C1188 C 0.96625 0.29946 0.45114 0.0
C1189 C 0.96989 0.3353 0.45418 0.0
C1190 C 0.93072 0.26769 0.44742 0.0
C1191 C 0.82551 0.22955 0.44838 0.0
H1192 H 0.82685 0.15788 0.41402 0.0
C1193 C 0.68819 0.09173 0.42265 0.0
C1194 C 0.69077 0.05856 0.42465 0.0
C1195 C 0.72074 0.12793 0.42488 0.0
C1196 C 0.82593 0.17761 0.42362 0.0
H1197 H 0.93915 0.36615 0.4556 0.0
H1198 H 0.87651 0.31048 0.44895 0.0
H1199 H 0.88577 0.2161 0.42118 0.0
H1200 H 0.72929 0.03723 0.43027 0.0
H1201 H 0.78582 0.09983 0.43362 0.0
H1202 H 0.76518 0.19051 0.45059 0.0
C1203 C 0.90115 0.30672 0.44983 0.0
C1204 C 0.85984 0.21096 0.42788 0.0
C1205 C 0.93697 0.33865 0.45373 0.0
C1206 C 0.72647 0.06228 0.42852 0.0
C1207 C 0.7589 0.09818 0.4304 0.0
C1208 C 0.79134 0.19615 0.44395 0.0
C1209 C 0.89768 0.27089 0.44622 0.0
C1210 C 0.86044 0.23701 0.44069 0.0
C1211 C 0.75648 0.1315 0.42884 0.0
C1212 C 0.79136 0.16936 0.43184 0.0
H1213 H 0.99119 0.29607 0.45139 0.0
H1214 H 0.92932 0.24058 0.44527 0.0
H1215 H 0.82471 0.24876 0.45831 0.0
H1216 H 0.66092 0.08966 0.41991 0.0
H1217 H 0.71801 0.1531 0.42354 0.0
C1218 C 0.6017 0.67403 0.59125 0.0
C1219 C 0.63687 0.67604 0.59456 0.0
C1220 C 0.5968 0.70558 0.59472 0.0
C1221 C 0.63166 0.78865 0.62445 0.0
H1222 H 0.60063 0.83628 0.58792 0.0
C1223 C 0.65395 0.94012 0.63477 0.0
C1224 C 0.63088 0.95138 0.62557 0.0
C1225 C 0.64952 0.90386 0.632 0.0
C1226 C 0.60854 0.82306 0.5985 0.0
H1227 H 0.69417 0.71262 0.60468 0.0
H1228 H 0.68533 0.76666 0.61128 0.0
H1229 H 0.60175 0.77795 0.58074 0.0
H1230 H 0.58461 0.9335 0.60647 0.0
H1231 H 0.57531 0.86944 0.60221 0.0
H1232 H 0.63773 0.83268 0.6424 0.0
C1233 C 0.66169 0.7411 0.60561 0.0
C1234 C 0.60934 0.78958 0.59428 0.0
C1235 C 0.66673 0.71007 0.60177 0.0
C1236 C 0.60245 0.92527 0.61392 0.0
C1237 C 0.59759 0.8887 0.61129 0.0
C1238 C 0.63015 0.82159 0.62879 0.0
C1239 C 0.62667 0.73931 0.60223 0.0
C1240 C 0.62172 0.77246 0.60709 0.0
C1241 C 0.62171 0.87762 0.61995 0.0
C1242 C 0.61946 0.84003 0.61579 0.0
H1243 H 0.57764 0.64775 0.58665 0.0
H1244 H 0.5693 0.70314 0.59218 0.0
H1245 H 0.64087 0.77586 0.6347 0.0
H1246 H 0.67671 0.96009 0.6435 0.0
H1247 H 0.66929 0.89727 0.63874 0.0
C1248 C 0.73047 0.65098 0.79668 0.0
C1249 C 0.69305 0.62062 0.79475 0.0
C1250 C 0.7617 0.64565 0.79411 0.0
C1251 C 0.79063 0.58409 0.76993 0.0
H1252 H 0.88479 0.64618 0.79615 0.0
C1253 C 0.93847 0.59033 0.75676 0.0
C1254 C 0.96946 0.6277 0.75549 0.0
C1255 C 0.90205 0.58371 0.76183 0.0
C1256 C 0.85873 0.6286 0.78868 0.0
H1257 H 0.65885 0.56059 0.78867 0.0
H1258 H 0.71377 0.55078 0.78438 0.0
H1259 H 0.82627 0.64354 0.80622 0.0
H1260 H 0.9863 0.6873 0.75833 0.0
H1261 H 0.92366 0.6759 0.76733 0.0
H1262 H 0.82381 0.56946 0.75233 0.0
C1263 C 0.71891 0.57889 0.78794 0.0
C1264 C 0.82508 0.62715 0.79443 0.0
C1265 C 0.68742 0.58429 0.79065 0.0
C1266 C 0.96308 0.65814 0.75913 0.0
C1267 C 0.92716 0.65162 0.76438 0.0
C1268 C 0.82444 0.58526 0.76426 0.0
C1269 C 0.75658 0.60975 0.78933 0.0
C1270 C 0.79073 0.60592 0.78482 0.0
C1271 C 0.89629 0.61439 0.76615 0.0
C1272 C 0.85913 0.60851 0.77326 0.0
H1273 H 0.73565 0.67943 0.79952 0.0
H1274 H 0.78999 0.67034 0.79501 0.0
H1275 H 0.76488 0.56756 0.7621 0.0
H1276 H 0.94272 0.56631 0.75463 0.0
H1277 H 0.87887 0.55467 0.76316 0.0
C1278 C 0.08045 0.69729 0.9342 0.0
C1279 C 0.0739 0.67386 0.94945 0.0
C1280 C 0.11566 0.73039 0.93138 0.0
C1281 C 0.2045 0.80101 0.95517 0.0
H1282 H 0.24273 0.83102 0.90637 0.0
C1283 C 0.35276 0.93374 0.94134 0.0
C1284 C 0.35594 0.95706 0.92661 0.0
C1285 C 0.32003 0.89792 0.94368 0.0
C1286 C 0.2324 0.82336 0.92009 0.0
H1287 H 0.10124 0.66761 0.97323 0.0
H1288 H 0.16235 0.72503 0.96855 0.0
H1289 H 0.18345 0.77149 0.91146 0.0
H1290 H 0.32625 0.96202 0.90342 0.0
H1291 H 0.26949 0.89918 0.90706 0.0
H1292 H 0.25336 0.85301 0.96379 0.0
C1293 C 0.1397 0.718 0.95886 0.0
C1294 C 0.19821 0.78905 0.92304 0.0
C1295 C 0.10429 0.68473 0.96164 0.0
C1296 C 0.32551 0.94381 0.9143 0.0
C1297 C 0.29274 0.90789 0.91658 0.0
C1298 C 0.23872 0.83531 0.95223 0.0
C1299 C 0.14596 0.74145 0.94366 0.0
C1300 C 0.18348 0.7774 0.94062 0.0
C1301 C 0.28922 0.88454 0.93147 0.0
C1302 C 0.25317 0.8472 0.93462 0.0
H1303 H 0.05806 0.69043 0.92438 0.0
H1304 H 0.11878 0.74773 0.91965 0.0
H1305 H 0.19403 0.79354 0.96888 0.0
H1306 H 0.37549 0.94352 0.95124 0.0
H1307 H 0.31882 0.88082 0.95519 0.0
C1308 C 0.83284 0.62055 0.9739 0.0
C1309 C 0.8597 0.64172 0.98735 0.0
C1310 C 0.79681 0.61739 0.97402 0.0
C1311 C 0.71729 0.58643 0.98847 0.0
H1312 H 0.69696 0.65675 1.0152 0.0
C1313 C 0.62171 0.56606 0.0506 0.0
C1314 C 0.58498 0.53852 0.04484 0.0
C1315 C 0.65005 0.58771 0.03806 0.0
C1316 C 0.70205 0.63712 1.00737 0.0
H1317 H 0.87108 0.67837 1.01061 0.0
H1318 H 0.80832 0.67157 1.0114 0.0
H1319 H 0.75893 0.67995 1.00077 0.0
H1320 H 0.54859 0.51626 0.02091 0.0
H1321 H 0.5989 0.55211 0.99928 0.0
H1322 H 0.66076 0.54346 0.9956 0.0
C1323 C 0.81483 0.6581 1.00042 0.0
C1324 C 0.73756 0.65021 0.99924 0.0
C1325 C 0.85088 0.66171 1.00012 0.0
C1326 C 0.57673 0.53543 0.02614 0.0
C1327 C 0.60537 0.55657 1.0136 0.0
C1328 C 0.68155 0.57358 0.99624 0.0
C1329 C 0.78685 0.63489 0.98775 0.0
C1330 C 0.74647 0.62444 0.99081 0.0
C1331 C 0.64243 0.58213 0.01948 0.0
C1332 C 0.67455 0.59834 1.00667 0.0
H1333 H 0.83929 0.60576 0.96353 0.0
H1334 H 0.77632 0.60002 0.96378 0.0
H1335 H 0.7229 0.5656 0.98216 0.0
H1336 H 0.62925 0.56987 0.0648 0.0
H1337 H 0.67862 0.60707 0.04291 0.0
C1338 C 0.24946 0.79878 0.13277 0.0
C1339 C 0.23994 0.81914 0.14522 0.0
C1340 C 0.22162 0.76317 0.12636 0.0
C1341 C 0.11734 0.69053 0.13062 0.0
H1342 H 0.15896 0.62614 0.14404 0.0
C1343 C 0.06058 0.58576 0.18676 0.0
C1344 C 0.06867 0.55594 0.18813 0.0
C1345 C 0.06957 0.60767 0.17108 0.0
C1346 C 0.14645 0.64302 0.13966 0.0
H1347 H 0.19226 0.81915 0.15878 0.0
H1348 H 0.14485 0.7571 0.14843 0.0
H1349 H 0.20119 0.68987 0.13368 0.0
H1350 H 0.0899 0.52392 0.17318 0.0
H1351 H 0.10498 0.56185 0.14593 0.0
H1352 H 0.06291 0.64435 0.13861 0.0
C1353 C 0.17362 0.76863 0.14336 0.0
C1354 C 0.17089 0.67995 0.13365 0.0
C1355 C 0.20126 0.80427 0.14964 0.0
C1356 C 0.08303 0.54651 0.17282 0.0
C1357 C 0.09185 0.56836 0.15708 0.0
C1358 C 0.09285 0.65357 0.13681 0.0
C1359 C 0.18373 0.7468 0.13234 0.0
C1360 C 0.15704 0.70517 0.13063 0.0
C1361 C 0.087 0.60032 0.15639 0.0
C1362 C 0.10778 0.63074 0.14284 0.0
H1363 H 0.27834 0.80896 0.12835 0.0
H1364 H 0.23023 0.74753 0.1175 0.0
H1365 H 0.10559 0.70883 0.12767 0.0
H1366 H 0.04885 0.59336 0.19813 0.0
H1367 H 0.06574 0.63229 0.17112 0.0
C1368 C 0.38653 0.18983 0.32399 0.0
C1369 C 0.40642 0.22432 0.31449 0.0
C1370 C 0.39467 0.16064 0.32118 0.0
C1371 C 0.47915 0.15618 0.31142 0.0
H1372 H 0.41311 0.05134 0.32607 0.0
C1373 C 0.54092 0.07903 0.35074 0.0
C1374 C 0.52174 0.06496 0.3673 0.0
C1375 C 0.52343 0.0872 0.33652 0.0
C1376 C 0.43194 0.08038 0.32174 0.0
H1377 H 0.44628 0.25258 0.29242 0.0
H1378 H 0.46098 0.20182 0.28781 0.0
H1379 H 0.3854 0.08728 0.31276 0.0
H1380 H 0.46837 0.04659 0.38139 0.0
H1381 H 0.43855 0.06218 0.35689 0.0
H1382 H 0.52534 0.1505 0.32163 0.0
C1383 C 0.43978 0.19791 0.29781 0.0
C1384 C 0.41611 0.10091 0.31408 0.0
C1385 C 0.43163 0.22724 0.30064 0.0
C1386 C 0.48414 0.05776 0.36894 0.0
C1387 C 0.46675 0.06608 0.35474 0.0
C1388 C 0.49494 0.13568 0.31903 0.0
C1389 C 0.4228 0.16514 0.30871 0.0
C1390 C 0.43937 0.1398 0.31004 0.0
C1391 C 0.48659 0.08187 0.33855 0.0
C1392 C 0.47125 0.09842 0.32537 0.0
H1393 H 0.36649 0.18621 0.33456 0.0
H1394 H 0.38117 0.13595 0.32993 0.0
H1395 H 0.49796 0.18607 0.3085 0.0
H1396 H 0.57007 0.08554 0.3489 0.0
H1397 H 0.53939 0.09923 0.32419 0.0
C1398 C 0.16767 0.4442 0.5576 0.0
C1399 C 0.17182 0.45858 0.53997 0.0
C1400 C 0.19603 0.4638 0.57054 0.0
C1401 C 0.28954 0.5535 0.57803 0.0
H1402 H 0.31751 0.48321 0.59908 0.0
C1403 C 0.43855 0.575 0.5782 0.0
C1404 C 0.44971 0.55768 0.5915 0.0
C1405 C 0.40323 0.57311 0.57931 0.0
C1406 C 0.30985 0.50348 0.59384 0.0
H1407 H 0.2084 0.50531 0.52219 0.0
H1408 H 0.25803 0.53868 0.54438 0.0
H1409 H 0.25404 0.45909 0.58709 0.0
H1410 H 0.43407 0.5281 0.61726 0.0
H1411 H 0.37208 0.52433 0.61897 0.0
H1412 H 0.34697 0.59738 0.5834 0.0
C1413 C 0.23247 0.51306 0.54857 0.0
C1414 C 0.27323 0.48959 0.58693 0.0
C1415 C 0.20401 0.49372 0.53574 0.0
C1416 C 0.42606 0.54117 0.60663 0.0
C1417 C 0.39067 0.53918 0.60769 0.0
C1418 C 0.32639 0.56735 0.5848 0.0
C1419 C 0.22939 0.49782 0.56599 0.0
C1420 C 0.26336 0.51411 0.57799 0.0
C1421 C 0.37824 0.55366 0.59364 0.0
C1422 C 0.33743 0.54209 0.59185 0.0
H1423 H 0.14287 0.41738 0.56127 0.0
H1424 H 0.19251 0.45154 0.5839 0.0
H1425 H 0.28246 0.57329 0.57169 0.0
H1426 H 0.45553 0.58754 0.56621 0.0
H1427 H 0.39425 0.58407 0.56812 0.0
C1428 C 0.76024 0.15954 0.72097 0.0
C1429 C 0.74529 0.16457 0.70473 0.0
C1430 C 0.76935 0.18542 0.73518 0.0
C1431 C 0.76409 0.27158 0.74952 0.0
H1432 H 0.86789 0.3069 0.76512 0.0
C1433 C 0.88141 0.42447 0.7493 0.0
C1434 C 0.91268 0.43729 0.76115 0.0
C1435 C 0.85027 0.38779 0.75094 0.0
C1436 C 0.83848 0.29699 0.76145 0.0
H1437 H 0.72763 0.20034 0.69072 0.0
H1438 H 0.7444 0.24574 0.71506 0.0
H1439 H 0.83163 0.24462 0.75149 0.0
H1440 H 0.93358 0.4226 0.78518 0.0
H1441 H 0.87955 0.35811 0.7876 0.0
H1442 H 0.77276 0.32596 0.75795 0.0
C1443 C 0.74789 0.22121 0.71725 0.0
C1444 C 0.81755 0.26108 0.75359 0.0
C1445 C 0.73849 0.19523 0.70316 0.0
C1446 C 0.91039 0.41353 0.77559 0.0
C1447 C 0.87935 0.37666 0.7771 0.0
C1448 C 0.78523 0.30774 0.75721 0.0
C1449 C 0.76423 0.21715 0.73329 0.0
C1450 C 0.78101 0.24898 0.7465 0.0
C1451 C 0.84983 0.36292 0.7643 0.0
C1452 C 0.82338 0.32156 0.76224 0.0
H1453 H 0.76535 0.13587 0.7226 0.0
H1454 H 0.78151 0.18122 0.74742 0.0
H1455 H 0.73554 0.26256 0.74469 0.0
H1456 H 0.88179 0.44126 0.73786 0.0
H1457 H 0.82818 0.37784 0.7407 0.0
C1458 C 0.63225 0.82244 0.81657 0.0
C1459 C 0.61301 0.78577 0.80898 0.0
C1460 C 0.62084 0.84889 0.81262 0.0
C1461 C 0.5902 0.90105 0.80505 0.0
H1462 H 0.48265 0.84255 0.81673 0.0
C1463 C 0.51045 0.95881 0.84854 0.0
C1464 C 0.49808 0.93653 0.86435 0.0
C1465 C 0.52175 0.94608 0.83345 0.0
C1466 C 0.51243 0.85949 0.813 0.0
H1467 H 0.57072 0.75082 0.78874 0.0
H1468 H 0.55064 0.79677 0.78214 0.0
H1469 H 0.51326 0.8113 0.8022 0.0
H1470 H 0.4874 0.88379 0.87685 0.0
H1471 H 0.5067 0.86137 0.85055 0.0
H1472 H 0.5897 0.94824 0.81787 0.0
C1473 C 0.57377 0.80451 0.79164 0.0
C1474 C 0.53007 0.84169 0.80452 0.0
C1475 C 0.58504 0.77787 0.79568 0.0
C1476 C 0.49691 0.90144 0.86484 0.0
C1477 C 0.50744 0.88845 0.84973 0.0
C1478 C 0.57247 0.91887 0.8136 0.0
C1479 C 0.59 0.83943 0.80088 0.0
C1480 C 0.5698 0.86151 0.8019 0.0
C1481 C 0.51995 0.9106 0.83393 0.0
C1482 C 0.53418 0.8973 0.8189 0.0
H1483 H 0.65441 0.82999 0.8266 0.0
H1484 H 0.63401 0.87539 0.82012 0.0
H1485 H 0.62067 0.9173 0.80271 0.0
H1486 H 0.51202 0.98628 0.84797 0.0
H1487 H 0.53192 0.96383 0.8215 0.0
C1488 C 0.53666 0.4119 0.77349 0.0
C1489 C 0.55782 0.4359 0.78789 0.0
C1490 C 0.53218 0.37554 0.77184 0.0
C1491 C 0.56062 0.30865 0.79156 0.0
H1492 H 0.45144 0.242 0.79613 0.0
C1493 C 0.49562 0.19403 0.84469 0.0
C1494 C 0.45865 0.16275 0.84271 0.0
C1495 C 0.51234 0.22038 0.83075 0.0
C1496 C 0.48197 0.2595 0.79435 0.0
H1497 H 0.59343 0.44105 0.81103 0.0
H1498 H 0.58581 0.37839 0.80803 0.0
H1499 H 0.47575 0.30452 0.78304 0.0
H1500 H 0.41118 0.13322 0.82422 0.0
H1501 H 0.44063 0.17922 0.79969 0.0
H1502 H 0.56672 0.26419 0.80391 0.0
C1503 C 0.57296 0.38775 0.79787 0.0
C1504 C 0.49597 0.29556 0.7868 0.0
C1505 C 0.57725 0.42396 0.79961 0.0
C1506 C 0.43953 0.15736 0.82618 0.0
C1507 C 0.45644 0.18362 0.81213 0.0
C1508 C 0.54659 0.27235 0.79897 0.0
C1509 C 0.5489 0.36252 0.78452 0.0
C1510 C 0.53539 0.32134 0.78641 0.0
C1511 C 0.49258 0.2161 0.81448 0.0
C1512 C 0.50714 0.24841 0.80155 0.0
H1513 H 0.5218 0.42036 0.76402 0.0
H1514 H 0.51374 0.35676 0.76132 0.0
H1515 H 0.59117 0.32778 0.79111 0.0
H1516 H 0.51094 0.19945 0.85735 0.0
H1517 H 0.5398 0.24541 0.83327 0.0
C1518 C 0.17123 0.58752 0.02341 0.0
C1519 C 0.13488 0.58363 0.02238 0.0
C1520 C 0.18351 0.5787 0.03937 0.0
C1521 C 0.14257 0.51094 0.07545 0.0
H1522 H 0.25004 0.5526 0.0857 0.0
C1523 C 0.26384 0.46702 0.09174 0.0
C1524 C 0.25076 0.43898 0.07811 0.0
C1525 C 0.24305 0.48487 0.09624 0.0
C1526 C 0.21969 0.54081 0.08367 0.0
H1527 H 0.08309 0.56825 0.03749 0.0
H1528 H 0.10469 0.55302 0.06534 0.0
H1529 H 0.22847 0.59243 0.07147 0.0
H1530 H 0.2029 0.40395 0.06054 0.0
H1531 H 0.16733 0.43541 0.06797 0.0
H1532 H 0.13417 0.45852 0.08655 0.0
C1533 C 0.12383 0.56328 0.05386 0.0
C1534 C 0.20743 0.56366 0.0753 0.0
C1535 C 0.1116 0.57225 0.03789 0.0
C1536 C 0.21427 0.42593 0.07082 0.0
C1537 C 0.19355 0.4438 0.07529 0.0
C1538 C 0.15481 0.48813 0.08395 0.0
C1539 C 0.15952 0.56546 0.05461 0.0
C1540 C 0.16936 0.54786 0.06968 0.0
C1541 C 0.20882 0.47503 0.08721 0.0
C1542 C 0.19394 0.50187 0.08659 0.0
H1543 H 0.18979 0.59632 1.01171 0.0
H1544 H 0.21089 0.57998 0.03935 0.0
H1545 H 0.11287 0.49804 0.07155 0.0
H1546 H 0.29095 0.47668 0.09837 0.0
H1547 H 0.25508 0.50819 0.10583 0.0
C1548 C 0.8319 0.30344 0.18071 0.0
C1549 C 0.86408 0.29948 0.17795 0.0
C1550 C 0.80441 0.29307 0.16724 0.0
C1551 C 0.76485 0.22543 0.13016 0.0
H1552 H 0.69565 0.26563 0.1285 0.0
C1553 C 0.6121 0.12992 0.1079 0.0
C1554 C 0.58783 0.12518 0.12252 0.0
C1555 C 0.64868 0.16166 0.10697 0.0
C1556 C 0.71504 0.25446 0.1285 0.0
H1557 H 0.89364 0.28321 0.15865 0.0
H1558 H 0.84553 0.26522 0.13491 0.0
H1559 H 0.75936 0.30428 0.14133 0.0
H1560 H 0.5828 0.15253 0.14693 0.0
H1561 H 0.64563 0.20737 0.14507 0.0
H1562 H 0.71993 0.1749 0.11827 0.0
C1563 C 0.84142 0.27602 0.1476 0.0
C1564 C 0.75139 0.27642 0.13594 0.0
C1565 C 0.86888 0.28617 0.16119 0.0
C1566 C 0.59992 0.15474 0.13531 0.0
C1567 C 0.63628 0.18661 0.13424 0.0
C1568 C 0.72872 0.2037 0.12256 0.0
C1569 C 0.80842 0.27853 0.15064 0.0
C1570 C 0.77569 0.2611 0.13791 0.0
C1571 C 0.66158 0.18953 0.12054 0.0
C1572 C 0.70269 0.2171 0.12269 0.0
H1573 H 0.8269 0.31288 0.19359 0.0
H1574 H 0.77896 0.29447 0.17029 0.0
H1575 H 0.78267 0.21261 0.13146 0.0
H1576 H 0.60366 0.10815 0.0976 0.0
H1577 H 0.6676 0.16339 0.0962 0.0
C1578 C 0.59196 0.86038 0.32556 0.0
C1579 C 0.57383 0.85497 0.34235 0.0
C1580 C 0.57431 0.83405 0.31161 0.0
C1581 C 0.48417 0.74411 0.29943 0.0
H1582 H 0.55571 0.71434 0.28184 0.0
C1583 C 0.45729 0.5937 0.29889 0.0
C1584 C 0.47647 0.5825 0.28663 0.0
C1585 C 0.46055 0.62953 0.29751 0.0
C1586 C 0.53524 0.72261 0.28608 0.0
H1587 H 0.5224 0.81849 0.35752 0.0
H1588 H 0.49234 0.77212 0.33362 0.0
H1589 H 0.57951 0.77659 0.29508 0.0
H1590 H 0.51091 0.59901 0.26226 0.0
H1591 H 0.51722 0.66199 0.2602 0.0
H1592 H 0.44001 0.68822 0.29186 0.0
C1593 C 0.51956 0.79721 0.33083 0.0
C1594 C 0.54895 0.75854 0.29372 0.0
C1595 C 0.53697 0.82375 0.34466 0.0
C1596 C 0.49629 0.60688 0.27212 0.0
C1597 C 0.49976 0.64288 0.27084 0.0
C1598 C 0.47046 0.70792 0.29193 0.0
C1599 C 0.53848 0.80137 0.31432 0.0
C1600 C 0.52366 0.76884 0.30148 0.0
C1601 C 0.48332 0.65517 0.28401 0.0
C1602 C 0.496 0.69612 0.28615 0.0
H1603 H 0.62018 0.88455 0.32335 0.0
H1604 H 0.58942 0.8385 0.29897 0.0
H1605 H 0.46389 0.75161 0.3048 0.0
H1606 H 0.44214 0.57637 0.31042 0.0
H1607 H 0.44797 0.63833 0.30804 0.0
C1608 C 0.87339 0.43789 0.47141 0.0
C1609 C 0.90214 0.45589 0.45833 0.0
C1610 C 0.84006 0.43999 0.47035 0.0
C1611 C 0.81657 0.51049 0.45646 0.0
H1612 H 0.71893 0.43983 0.4778 0.0
C1613 C 0.73187 0.56835 0.49208 0.0
C1614 C 0.72097 0.55355 0.5096 0.0
C1615 C 0.74126 0.54912 0.47923 0.0
C1616 C 0.74594 0.45986 0.47169 0.0
H1617 H 0.91671 0.48695 0.43297 0.0
H1618 H 0.8586 0.49096 0.4313 0.0
H1619 H 0.7598 0.41622 0.46615 0.0
H1620 H 0.7102 0.50641 0.52726 0.0
H1621 H 0.72764 0.47368 0.50522 0.0
H1622 H 0.80474 0.55456 0.46334 0.0
C1623 C 0.86207 0.47548 0.4424 0.0
C1624 C 0.7692 0.44629 0.46496 0.0
C1625 C 0.8954 0.47333 0.44343 0.0
C1626 C 0.71796 0.51833 0.51379 0.0
C1627 C 0.72776 0.49937 0.50105 0.0
C1628 C 0.79355 0.52407 0.46332 0.0
C1629 C 0.83488 0.4603 0.45628 0.0
C1630 C 0.8056 0.47181 0.45817 0.0
C1631 C 0.74062 0.51507 0.48378 0.0
C1632 C 0.75895 0.49921 0.47194 0.0
H1633 H 0.87758 0.42462 0.48322 0.0
H1634 H 0.8199 0.42846 0.48141 0.0
H1635 H 0.84457 0.53097 0.45144 0.0
H1636 H 0.73393 0.59523 0.48843 0.0
H1637 H 0.75049 0.56171 0.46596 0.0
C1638 C 0.18059 0.71129 0.65464 0.0
C1639 C 0.18382 0.70398 0.6729 0.0
C1640 C 0.20971 0.71818 0.64247 0.0
C1641 C 0.30436 0.72234 0.63869 0.0
H1642 H 0.33115 0.81537 0.61264 0.0
C1643 C 0.45131 0.85145 0.63692 0.0
C1644 C 0.46182 0.87813 0.62282 0.0
C1645 C 0.41711 0.81692 0.63605 0.0
C1646 C 0.32388 0.78877 0.6193 0.0
H1647 H 0.21934 0.69682 0.6927 0.0
H1648 H 0.27064 0.71032 0.67181 0.0
H1649 H 0.26759 0.77772 0.62456 0.0
H1650 H 0.44684 0.88743 0.59586 0.0
H1651 H 0.38686 0.82719 0.59449 0.0
H1652 H 0.36225 0.73581 0.6347 0.0
C1653 C 0.24521 0.70945 0.66657 0.0
C1654 C 0.28717 0.76701 0.6262 0.0
C1655 C 0.21587 0.702 0.67865 0.0
C1656 C 0.43922 0.86781 0.6071 0.0
C1657 C 0.40496 0.83326 0.60626 0.0
C1658 C 0.34131 0.74439 0.6319 0.0
C1659 C 0.24302 0.71873 0.64844 0.0
C1660 C 0.27762 0.73474 0.63687 0.0
C1661 C 0.39262 0.80843 0.62113 0.0
C1662 C 0.35194 0.77894 0.62303 0.0
H1663 H 0.15585 0.7124 0.64983 0.0
H1664 H 0.20676 0.72455 0.62854 0.0
H1665 H 0.29756 0.69699 0.64639 0.0
H1666 H 0.46756 0.85827 0.64934 0.0
H1667 H 0.40828 0.79862 0.64784 0.0
loop_
_geom_bond_atom_site_label_1
_geom_bond_atom_site_label_2
_geom_bond_distance
_geom_bond_site_symmetry_2
_ccdc_geom_bond_type
Zn0 N4 2.020 . S
Zn0 O8 2.019 . S
Zn0 N10 2.119 . S
Zn0 O18 1.975 . S
C1 N2 1.334 . S
C1 N5 1.336 . S
N2 C1 1.334 . S
N2 C3 1.334 . S
C3 N2 1.334 . S
C3 N4 1.336 . S
N4 Zn0 2.020 . S
N4 C3 1.336 . S
N4 N5 1.354 . S
N5 C1 1.336 . S
N5 N4 1.354 . S
N5 Zn9 2.020 . S
C6 O7 1.244 . S
C6 O30 1.257 . S
O7 C6 1.244 . S
O8 Zn0 2.019 . S
O8 C28 1.257 . S
Zn9 N5 2.020 . S
Zn9 O16 1.975 1_554 S
Zn9 N25 2.119 . S
Zn9 O30 2.019 1_554 S
N10 Zn0 2.119 . S
N10 C12 1.334 1_554 S
N10 C13 1.328 . S
C11 C12 1.391 . S
C11 N14 1.329 . S
C11 H32 0.930 . S
C12 N10 1.334 1_556 S
C12 C11 1.391 . S
C12 H19 0.930 . S
C13 N10 1.328 . S
C13 C15 1.392 1_554 S
C13 H20 0.930 . S
N14 C11 1.329 . S
N14 C15 1.331 . S
C15 C13 1.392 1_556 S
C15 N14 1.331 . S
O16 Zn9 1.975 1_556 S
O16 C17 1.252 . S
C17 O16 1.252 . S
C17 O18 1.252 1_556 S
O18 Zn0 1.975 . S
O18 C17 1.252 1_554 S
H19 C12 0.930 . S
H20 C13 0.930 . S
C21 C22 1.392 . S
C21 N25 1.328 . S
C21 H27 0.930 . S
C22 C21 1.392 . S
C22 N26 1.331 . S
C23 C24 1.391 . S
C23 N26 1.329 . S
C23 H33 0.930 . S
C24 C23 1.391 . S
C24 N25 1.334 . S
C24 H31 0.930 . S
N25 Zn9 2.119 . S
N25 C21 1.328 . S
N25 C24 1.334 . S
N26 C22 1.331 . S
N26 C23 1.329 . S
H27 C21 0.930 . S
C28 O8 1.257 . S
C28 O29 1.244 . S
O29 C28 1.244 . S
O30 C6 1.257 . S
O30 Zn9 2.019 1_556 S
H31 C24 0.930 . S
H32 C11 0.930 . S
H33 C23 0.930 . S
Zn34 N38 2.020 . S
Zn34 O42 2.019 1_655 S
Zn34 N44 2.119 . S
Zn34 O52 1.975 . S
C35 N36 1.334 . S
C35 N39 1.336 . S
N36 C35 1.334 . S
N36 C37 1.334 . S
C37 N36 1.334 . S
C37 N38 1.336 . S
N38 Zn34 2.020 . S
N38 C37 1.336 . S
N38 N39 1.354 . S
N39 C35 1.336 . S
N39 N38 1.354 . S
N39 Zn43 2.020 . S
C40 O41 1.244 . S
C40 O64 1.257 . S
O41 C40 1.244 . S
O42 Zn34 2.019 1_455 S
O42 C62 1.257 . S
Zn43 N39 2.020 . S
Zn43 O50 1.975 . S
Zn43 N59 2.119 . S
Zn43 O64 2.019 . S
N44 Zn34 2.119 . S
N44 C46 1.334 . S
N44 C47 1.328 1_655 S
C45 C46 1.391 . S
C45 N48 1.329 1_655 S
C45 H66 0.930 . S
C46 N44 1.334 . S
C46 C45 1.391 . S
C46 H53 0.930 . S
C47 N44 1.328 1_455 S
C47 C49 1.392 . S
C47 H54 0.930 . S
N48 C45 1.329 1_455 S
N48 C49 1.331 . S
C49 C47 1.392 . S
C49 N48 1.331 . S
O50 Zn43 1.975 . S
O50 C51 1.252 . S
C51 O50 1.252 . S
C51 O52 1.252 . S
O52 Zn34 1.975 . S
O52 C51 1.252 . S
H53 C46 0.930 . S
H54 C47 0.930 . S
C55 C56 1.392 . S
C55 N59 1.328 . S
C55 H61 0.930 . S
C56 C55 1.392 . S
C56 N60 1.331 . S
C57 C58 1.391 . S
C57 N60 1.329 . S
C57 H67 0.930 . S
C58 C57 1.391 . S
C58 N59 1.334 . S
C58 H65 0.930 . S
N59 Zn43 2.119 . S
N59 C55 1.328 . S
N59 C58 1.334 . S
N60 C56 1.331 . S
N60 C57 1.329 . S
H61 C55 0.930 . S
C62 O42 1.257 . S
C62 O63 1.244 1_455 S
O63 C62 1.244 1_655 S
O64 C40 1.257 . S
O64 Zn43 2.019 . S
H65 C58 0.930 . S
H66 C45 0.930 . S
H67 C57 0.930 . S
Zn68 N72 2.020 . S
Zn68 O76 2.019 . S
Zn68 N78 2.119 . S
Zn68 O86 1.975 . S
C69 N70 1.334 . S
C69 N73 1.336 . S
N70 C69 1.334 . S
N70 C71 1.334 . S
C71 N70 1.334 . S
C71 N72 1.336 . S
N72 Zn68 2.020 . S
N72 C71 1.336 . S
N72 N73 1.354 . S
N73 C69 1.336 . S
N73 N72 1.354 . S
N73 Zn77 2.020 . S
C74 O75 1.244 1_545 S
C74 O98 1.257 . S
O75 C74 1.244 1_565 S
O76 Zn68 2.019 . S
O76 C96 1.257 . S
Zn77 N73 2.020 . S
Zn77 O84 1.975 . S
Zn77 N93 2.119 . S
Zn77 O98 2.019 1_565 S
N78 Zn68 2.119 . S
N78 C80 1.334 . S
N78 C81 1.328 . S
C79 C80 1.391 . S
C79 N82 1.329 . S
C79 H100 0.930 . S
C80 N78 1.334 . S
C80 C79 1.391 . S
C80 H87 0.930 . S
C81 N78 1.328 . S
C81 C83 1.392 . S
C81 H88 0.930 . S
N82 C79 1.329 . S
N82 C83 1.331 . S
C83 C81 1.392 . S
C83 N82 1.331 . S
O84 Zn77 1.975 . S
O84 C85 1.252 . S
C85 O84 1.252 . S
C85 O86 1.252 . S
O86 Zn68 1.975 . S
O86 C85 1.252 . S
H87 C80 0.930 . S
H88 C81 0.930 . S
C89 C90 1.392 . S
C89 N93 1.328 1_545 S
C89 H95 0.930 . S
C90 C89 1.392 . S
C90 N94 1.331 . S
C91 C92 1.391 . S
C91 N94 1.329 1_565 S
C91 H101 0.930 . S
C92 C91 1.391 . S
C92 N93 1.334 . S
C92 H99 0.930 . S
N93 Zn77 2.119 . S
N93 C89 1.328 1_565 S
N93 C92 1.334 . S
N94 C90 1.331 . S
N94 C91 1.329 1_545 S
H95 C89 0.930 . S
C96 O76 1.257 . S
C96 O97 1.244 . S
O97 C96 1.244 . S
O98 C74 1.257 . S
O98 Zn77 2.019 1_545 S
H99 C92 0.930 . S
H100 C79 0.930 . S
H101 C91 0.930 . S
Zn102 N106 2.020 . S
Zn102 O110 2.019 . S
Zn102 N112 2.119 . S
Zn102 O120 1.975 . S
C103 N104 1.334 . S
C103 N107 1.336 . S
N104 C103 1.334 . S
N104 C105 1.334 . S
C105 N104 1.334 . S
C105 N106 1.336 . S
N106 Zn102 2.020 . S
N106 C105 1.336 . S
N106 N107 1.354 . S
N107 C103 1.336 . S
N107 N106 1.354 . S
N107 Zn111 2.020 . S
C108 O109 1.244 . S
C108 O132 1.257 . S
O109 C108 1.244 . S
O110 Zn102 2.019 . S
O110 C130 1.257 . S
Zn111 N107 2.020 . S
Zn111 O118 1.975 . S
Zn111 N127 2.119 . S
Zn111 O132 2.019 . S
N112 Zn102 2.119 . S
N112 C114 1.334 . S
N112 C115 1.328 . S
C113 C114 1.391 . S
C113 N116 1.329 . S
C113 H134 0.930 . S
C114 N112 1.334 . S
C114 C113 1.391 . S
C114 H121 0.930 . S
C115 N112 1.328 . S
C115 C117 1.392 . S
C115 H122 0.930 . S
N116 C113 1.329 . S
N116 C117 1.331 . S
C117 C115 1.392 . S
C117 N116 1.331 . S
O118 Zn111 1.975 . S
O118 C119 1.252 . S
C119 O118 1.252 . S
C119 O120 1.252 . S
O120 Zn102 1.975 . S
O120 C119 1.252 . S
H121 C114 0.930 . S
H122 C115 0.930 . S
C123 C124 1.392 . S
C123 N127 1.328 . S
C123 H129 0.930 . S
C124 C123 1.392 . S
C124 N128 1.331 . S
C125 C126 1.391 . S
C125 N128 1.329 . S
C125 H135 0.930 . S
C126 C125 1.391 . S
C126 N127 1.334 . S
C126 H133 0.930 . S
N127 Zn111 2.119 . S
N127 C123 1.328 . S
N127 C126 1.334 . S
N128 C124 1.331 . S
N128 C125 1.329 . S
H129 C123 0.930 . S
C130 O110 1.257 . S
C130 O131 1.244 . S
O131 C130 1.244 . S
O132 C108 1.257 . S
O132 Zn111 2.019 . S
H133 C126 0.930 . S
H134 C113 0.930 . S
H135 C125 0.930 . S
Zn136 N140 2.020 . S
Zn136 O144 2.019 . S
Zn136 N146 2.119 . S
Zn136 O154 1.975 . S
C137 N138 1.334 . S
C137 N141 1.336 . S
N138 C137 1.334 . S
N138 C139 1.334 . S
C139 N138 1.334 . S
C139 N140 1.336 . S
N140 Zn136 2.020 . S
N140 C139 1.336 . S
N140 N141 1.354 . S
N141 C137 1.336 . S
N141 N140 1.354 . S
N141 Zn145 2.020 . S
C142 O143 1.244 1_655 S
C142 O166 1.257 . S
O143 C142 1.244 1_455 S
O144 Zn136 2.019 . S
O144 C164 1.257 . S
Zn145 N141 2.020 . S
Zn145 O152 1.975 . S
Zn145 N161 2.119 . S
Zn145 O166 2.019 1_455 S
N146 Zn136 2.119 . S
N146 C148 1.334 . S
N146 C149 1.328 . S
C147 C148 1.391 . S
C147 N150 1.329 . S
C147 H168 0.930 . S
C148 N146 1.334 . S
C148 C147 1.391 . S
C148 H155 0.930 . S
C149 N146 1.328 . S
C149 C151 1.392 . S
C149 H156 0.930 . S
N150 C147 1.329 . S
N150 C151 1.331 . S
C151 C149 1.392 . S
C151 N150 1.331 . S
O152 Zn145 1.975 . S
O152 C153 1.252 . S
C153 O152 1.252 . S
C153 O154 1.252 . S
O154 Zn136 1.975 . S
O154 C153 1.252 . S
H155 C148 0.930 . S
H156 C149 0.930 . S
C157 C158 1.392 . S
C157 N161 1.328 1_655 S
C157 H163 0.930 . S
C158 C157 1.392 . S
C158 N162 1.331 . S
C159 C160 1.391 . S
C159 N162 1.329 1_455 S
C159 H169 0.930 . S
C160 C159 1.391 . S
C160 N161 1.334 . S
C160 H167 0.930 . S
N161 Zn145 2.119 . S
N161 C157 1.328 1_455 S
N161 C160 1.334 . S
N162 C158 1.331 . S
N162 C159 1.329 1_655 S
H163 C157 0.930 . S
C164 O144 1.257 . S
C164 O165 1.244 . S
O165 C164 1.244 . S
O166 C142 1.257 . S
O166 Zn145 2.019 1_655 S
H167 C160 0.930 . S
H168 C147 0.930 . S
H169 C159 0.930 . S
Zn170 N174 2.020 . S
Zn170 O178 2.019 1_545 S
Zn170 N180 2.119 . S
Zn170 O188 1.975 . S
C171 N172 1.334 . S
C171 N175 1.336 . S
N172 C171 1.334 . S
N172 C173 1.334 . S
C173 N172 1.334 . S
C173 N174 1.336 . S
N174 Zn170 2.020 . S
N174 C173 1.336 . S
N174 N175 1.354 . S
N175 C171 1.336 . S
N175 N174 1.354 . S
N175 Zn179 2.020 . S
C176 O177 1.244 . S
C176 O200 1.257 . S
O177 C176 1.244 . S
O178 Zn170 2.019 1_565 S
O178 C198 1.257 . S
Zn179 N175 2.020 . S
Zn179 O186 1.975 . S
Zn179 N195 2.119 . S
Zn179 O200 2.019 . S
N180 Zn170 2.119 . S
N180 C182 1.334 . S
N180 C183 1.328 1_545 S
C181 C182 1.391 . S
C181 N184 1.329 1_545 S
C181 H202 0.930 . S
C182 N180 1.334 . S
C182 C181 1.391 . S
C182 H189 0.930 . S
C183 N180 1.328 1_565 S
C183 C185 1.392 . S
C183 H190 0.930 . S
N184 C181 1.329 1_565 S
N184 C185 1.331 . S
C185 C183 1.392 . S
C185 N184 1.331 . S
O186 Zn179 1.975 . S
O186 C187 1.252 . S
C187 O186 1.252 . S
C187 O188 1.252 . S
O188 Zn170 1.975 . S
O188 C187 1.252 . S
H189 C182 0.930 . S
H190 C183 0.930 . S
C191 C192 1.392 . S
C191 N195 1.328 . S
C191 H197 0.930 . S
C192 C191 1.392 . S
C192 N196 1.331 . S
C193 C194 1.391 . S
C193 N196 1.329 . S
C193 H203 0.930 . S
C194 C193 1.391 . S
C194 N195 1.334 . S
C194 H201 0.930 . S
N195 Zn179 2.119 . S
N195 C191 1.328 . S
N195 C194 1.334 . S
N196 C192 1.331 . S
N196 C193 1.329 . S
H197 C191 0.930 . S
C198 O178 1.257 . S
C198 O199 1.244 1_565 S
O199 C198 1.244 1_545 S
O200 C176 1.257 . S
O200 Zn179 2.019 . S
H201 C194 0.930 . S
H202 C181 0.930 . S
H203 C193 0.930 . S
Zn204 N208 2.020 . S
Zn204 O212 2.019 . S
Zn204 N214 2.119 . S
Zn204 O222 1.975 . S
C205 N206 1.334 . S
C205 N209 1.336 . S
N206 C205 1.334 . S
N206 C207 1.334 . S
C207 N206 1.334 . S
C207 N208 1.336 . S
N208 Zn204 2.020 . S
N208 C207 1.336 . S
N208 N209 1.354 . S
N209 C205 1.336 . S
N209 N208 1.354 . S
N209 Zn213 2.020 . S
C210 O211 1.244 . S
C210 O234 1.257 . S
O211 C210 1.244 . S
O212 Zn204 2.019 . S
O212 C232 1.257 . S
Zn213 N209 2.020 . S
Zn213 O220 1.975 . S
Zn213 N229 2.119 . S
Zn213 O234 2.019 . S
N214 Zn204 2.119 . S
N214 C216 1.334 . S
N214 C217 1.328 . S
C215 C216 1.391 . S
C215 N218 1.329 . S
C215 H236 0.930 . S
C216 N214 1.334 . S
C216 C215 1.391 . S
C216 H223 0.930 . S
C217 N214 1.328 . S
C217 C219 1.392 . S
C217 H224 0.930 . S
N218 C215 1.329 . S
N218 C219 1.331 . S
C219 C217 1.392 . S
C219 N218 1.331 . S
O220 Zn213 1.975 . S
O220 C221 1.252 . S
C221 O220 1.252 . S
C221 O222 1.252 . S
O222 Zn204 1.975 . S
O222 C221 1.252 . S
H223 C216 0.930 . S
H224 C217 0.930 . S
C225 C226 1.392 . S
C225 N229 1.328 . S
C225 H231 0.930 . S
C226 C225 1.392 . S
C226 N230 1.331 . S
C227 C228 1.391 . S
C227 N230 1.329 . S
C227 H237 0.930 . S
C228 C227 1.391 . S
C228 N229 1.334 . S
C228 H235 0.930 . S
N229 Zn213 2.119 . S
N229 C225 1.328 . S
N229 C228 1.334 . S
N230 C226 1.331 . S
N230 C227 1.329 . S
H231 C225 0.930 . S
C232 O212 1.257 . S
C232 O233 1.244 . S
O233 C232 1.244 . S
O234 C210 1.257 . S
O234 Zn213 2.019 . S
H235 C228 0.930 . S
H236 C215 0.930 . S
H237 C227 0.930 . S
Zn238 N242 2.020 . S
Zn238 O246 2.019 1_656 S
Zn238 N248 2.119 . S
Zn238 O256 1.975 1_556 S
C239 N240 1.334 . S
C239 N243 1.336 . S
N240 C239 1.334 . S
N240 C241 1.334 . S
C241 N240 1.334 . S
C241 N242 1.336 . S
N242 Zn238 2.020 . S
N242 C241 1.336 . S
N242 N243 1.354 . S
N243 C239 1.336 . S
N243 N242 1.354 . S
N243 Zn247 2.020 . S
C244 O245 1.244 . S
C244 O268 1.257 . S
O245 C244 1.244 . S
O246 Zn238 2.019 1_454 S
O246 C266 1.257 . S
Zn247 N243 2.020 . S
Zn247 O254 1.975 . S
Zn247 N263 2.119 . S
Zn247 O268 2.019 . S
N248 Zn238 2.119 . S
N248 C250 1.334 . S
N248 C251 1.328 1_655 S
C249 C250 1.391 . S
C249 N252 1.329 1_655 S
C249 H270 0.930 . S
C250 N248 1.334 . S
C250 C249 1.391 . S
C250 H257 0.930 . S
C251 N248 1.328 1_455 S
C251 C253 1.392 . S
C251 H258 0.930 . S
N252 C249 1.329 1_455 S
N252 C253 1.331 . S
C253 C251 1.392 . S
C253 N252 1.331 . S
O254 Zn247 1.975 . S
O254 C255 1.252 1_556 S
C255 O254 1.252 1_554 S
C255 O256 1.252 . S
O256 Zn238 1.975 1_554 S
O256 C255 1.252 . S
H257 C250 0.930 . S
H258 C251 0.930 . S
C259 C260 1.392 1_556 S
C259 N263 1.328 . S
C259 H265 0.930 . S
C260 C259 1.392 1_554 S
C260 N264 1.331 . S
C261 C262 1.391 . S
C261 N264 1.329 . S
C261 H271 0.930 . S
C262 C261 1.391 . S
C262 N263 1.334 1_554 S
C262 H269 0.930 . S
N263 Zn247 2.119 . S
N263 C259 1.328 . S
N263 C262 1.334 1_556 S
N264 C260 1.331 . S
N264 C261 1.329 . S
H265 C259 0.930 . S
C266 O246 1.257 . S
C266 O267 1.244 1_455 S
O267 C266 1.244 1_655 S
O268 C244 1.257 . S
O268 Zn247 2.019 . S
H269 C262 0.930 . S
H270 C249 0.930 . S
H271 C261 0.930 . S
Zn272 N276 2.020 . S
Zn272 O280 2.019 . S
Zn272 N282 2.119 . S
Zn272 O290 1.975 . S
C273 N274 1.334 . S
C273 N277 1.336 . S
N274 C273 1.334 . S
N274 C275 1.334 . S
C275 N274 1.334 . S
C275 N276 1.336 . S
N276 Zn272 2.020 . S
N276 C275 1.336 . S
N276 N277 1.354 . S
N277 C273 1.336 . S
N277 N276 1.354 . S
N277 Zn281 2.020 . S
C278 O279 1.244 1_545 S
C278 O302 1.257 . S
O279 C278 1.244 1_565 S
O280 Zn272 2.019 . S
O280 C300 1.257 . S
Zn281 N277 2.020 . S
Zn281 O288 1.975 . S
Zn281 N297 2.119 . S
Zn281 O302 2.019 1_565 S
N282 Zn272 2.119 . S
N282 C284 1.334 . S
N282 C285 1.328 . S
C283 C284 1.391 . S
C283 N286 1.329 . S
C283 H304 0.930 . S
C284 N282 1.334 . S
C284 C283 1.391 . S
C284 H291 0.930 . S
C285 N282 1.328 . S
C285 C287 1.392 . S
C285 H292 0.930 . S
N286 C283 1.329 . S
N286 C287 1.331 . S
C287 C285 1.392 . S
C287 N286 1.331 . S
O288 Zn281 1.975 . S
O288 C289 1.252 . S
C289 O288 1.252 . S
C289 O290 1.252 . S
O290 Zn272 1.975 . S
O290 C289 1.252 . S
H291 C284 0.930 . S
H292 C285 0.930 . S
C293 C294 1.392 . S
C293 N297 1.328 1_545 S
C293 H299 0.930 . S
C294 C293 1.392 . S
C294 N298 1.331 . S
C295 C296 1.391 . S
C295 N298 1.329 1_565 S
C295 H305 0.930 . S
C296 C295 1.391 . S
C296 N297 1.334 . S
C296 H303 0.930 . S
N297 Zn281 2.119 . S
N297 C293 1.328 1_565 S
N297 C296 1.334 . S
N298 C294 1.331 . S
N298 C295 1.329 1_545 S
H299 C293 0.930 . S
C300 O280 1.257 . S
C300 O301 1.244 . S
O301 C300 1.244 . S
O302 C278 1.257 . S
O302 Zn281 2.019 1_545 S
H303 C296 0.930 . S
H304 C283 0.930 . S
H305 C295 0.930 . S
Zn306 N310 2.020 . S
Zn306 O314 2.019 . S
Zn306 N316 2.119 . S
Zn306 O324 1.975 . S
C307 N308 1.334 . S
C307 N311 1.336 . S
N308 C307 1.334 . S
N308 C309 1.334 . S
C309 N308 1.334 . S
C309 N310 1.336 . S
N310 Zn306 2.020 . S
N310 C309 1.336 . S
N310 N311 1.354 . S
N311 C307 1.336 . S
N311 N310 1.354 . S
N311 Zn315 2.020 . S
C312 O313 1.244 . S
C312 O336 1.257 . S
O313 C312 1.244 . S
O314 Zn306 2.019 . S
O314 C334 1.257 . S
Zn315 N311 2.020 . S
Zn315 O322 1.975 . S
Zn315 N331 2.119 . S
Zn315 O336 2.019 . S
N316 Zn306 2.119 . S
N316 C318 1.334 . S
N316 C319 1.328 . S
C317 C318 1.391 . S
C317 N320 1.329 . S
C317 H338 0.930 . S
C318 N316 1.334 . S
C318 C317 1.391 . S
C318 H325 0.930 . S
C319 N316 1.328 . S
C319 C321 1.392 . S
C319 H326 0.930 . S
N320 C317 1.329 . S
N320 C321 1.331 . S
C321 C319 1.392 . S
C321 N320 1.331 . S
O322 Zn315 1.975 . S
O322 C323 1.252 . S
C323 O322 1.252 . S
C323 O324 1.252 . S
O324 Zn306 1.975 . S
O324 C323 1.252 . S
H325 C318 0.930 . S
H326 C319 0.930 . S
C327 C328 1.392 . S
C327 N331 1.328 . S
C327 H333 0.930 . S
C328 C327 1.392 . S
C328 N332 1.331 . S
C329 C330 1.391 . S
C329 N332 1.329 . S
C329 H339 0.930 . S
C330 C329 1.391 . S
C330 N331 1.334 . S
C330 H337 0.930 . S
N331 Zn315 2.119 . S
N331 C327 1.328 . S
N331 C330 1.334 . S
N332 C328 1.331 . S
N332 C329 1.329 . S
H333 C327 0.930 . S
C334 O314 1.257 . S
C334 O335 1.244 . S
O335 C334 1.244 . S
O336 C312 1.257 . S
O336 Zn315 2.019 . S
H337 C330 0.930 . S
H338 C317 0.930 . S
H339 C329 0.930 . S
Zn340 N344 2.020 . S
Zn340 O348 2.019 . S
Zn340 N350 2.119 . S
Zn340 O358 1.975 . S
C341 N342 1.334 . S
C341 N345 1.336 . S
N342 C341 1.334 . S
N342 C343 1.334 . S
C343 N342 1.334 . S
C343 N344 1.336 . S
N344 Zn340 2.020 . S
N344 C343 1.336 . S
N344 N345 1.354 . S
N345 C341 1.336 . S
N345 N344 1.354 . S
N345 Zn349 2.020 . S
C346 O347 1.244 1_655 S
C346 O370 1.257 . S
O347 C346 1.244 1_455 S
O348 Zn340 2.019 . S
O348 C368 1.257 . S
Zn349 N345 2.020 . S
Zn349 O356 1.975 . S
Zn349 N365 2.119 . S
Zn349 O370 2.019 1_455 S
N350 Zn340 2.119 . S
N350 C352 1.334 . S
N350 C353 1.328 . S
C351 C352 1.391 . S
C351 N354 1.329 . S
C351 H372 0.930 . S
C352 N350 1.334 . S
C352 C351 1.391 . S
C352 H359 0.930 . S
C353 N350 1.328 . S
C353 C355 1.392 . S
C353 H360 0.930 . S
N354 C351 1.329 . S
N354 C355 1.331 . S
C355 C353 1.392 . S
C355 N354 1.331 . S
O356 Zn349 1.975 . S
O356 C357 1.252 . S
C357 O356 1.252 . S
C357 O358 1.252 . S
O358 Zn340 1.975 . S
O358 C357 1.252 . S
H359 C352 0.930 . S
H360 C353 0.930 . S
C361 C362 1.392 . S
C361 N365 1.328 1_655 S
C361 H367 0.930 . S
C362 C361 1.392 . S
C362 N366 1.331 . S
C363 C364 1.391 . S
C363 N366 1.329 1_455 S
C363 H373 0.930 . S
C364 C363 1.391 . S
C364 N365 1.334 . S
C364 H371 0.930 . S
N365 Zn349 2.119 . S
N365 C361 1.328 1_455 S
N365 C364 1.334 . S
N366 C362 1.331 . S
N366 C363 1.329 1_655 S
H367 C361 0.930 . S
C368 O348 1.257 . S
C368 O369 1.244 . S
O369 C368 1.244 . S
O370 C346 1.257 . S
O370 Zn349 2.019 1_655 S
H371 C364 0.930 . S
H372 C351 0.930 . S
H373 C363 0.930 . S
Zn374 N378 2.020 . S
Zn374 O382 2.019 1_545 S
Zn374 N384 2.119 . S
Zn374 O392 1.975 . S
C375 N376 1.334 . S
C375 N379 1.336 . S
N376 C375 1.334 . S
N376 C377 1.334 . S
C377 N376 1.334 . S
C377 N378 1.336 . S
N378 Zn374 2.020 . S
N378 C377 1.336 . S
N378 N379 1.354 . S
N379 C375 1.336 . S
N379 N378 1.354 . S
N379 Zn383 2.020 . S
C380 O381 1.244 . S
C380 O404 1.257 . S
O381 C380 1.244 . S
O382 Zn374 2.019 1_565 S
O382 C402 1.257 . S
Zn383 N379 2.020 . S
Zn383 O390 1.975 . S
Zn383 N399 2.119 . S
Zn383 O404 2.019 . S
N384 Zn374 2.119 . S
N384 C386 1.334 . S
N384 C387 1.328 1_545 S
C385 C386 1.391 . S
C385 N388 1.329 1_545 S
C385 H406 0.930 . S
C386 N384 1.334 . S
C386 C385 1.391 . S
C386 H393 0.930 . S
C387 N384 1.328 1_565 S
C387 C389 1.392 . S
C387 H394 0.930 . S
N388 C385 1.329 1_565 S
N388 C389 1.331 . S
C389 C387 1.392 . S
C389 N388 1.331 . S
O390 Zn383 1.975 . S
O390 C391 1.252 . S
C391 O390 1.252 . S
C391 O392 1.252 . S
O392 Zn374 1.975 . S
O392 C391 1.252 . S
H393 C386 0.930 . S
H394 C387 0.930 . S
C395 C396 1.392 . S
C395 N399 1.328 . S
C395 H401 0.930 . S
C396 C395 1.392 . S
C396 N400 1.331 . S
C397 C398 1.391 . S
C397 N400 1.329 . S
C397 H407 0.930 . S
C398 C397 1.391 . S
C398 N399 1.334 . S
C398 H405 0.930 . S
N399 Zn383 2.119 . S
N399 C395 1.328 . S
N399 C398 1.334 . S
N400 C396 1.331 . S
N400 C397 1.329 . S
H401 C395 0.930 . S
C402 O382 1.257 . S
C402 O403 1.244 1_565 S
O403 C402 1.244 1_545 S
O404 C380 1.257 . S
O404 Zn383 2.019 . S
H405 C398 0.930 . S
H406 C385 0.930 . S
H407 C397 0.930 . S
C408 C409 1.349 . S
C408 C410 1.327 . S
C408 H433 0.950 . S
C409 C408 1.349 . S
C409 C425 1.349 . S
C410 C408 1.327 . S
C410 C429 1.429 . S
C410 H434 0.950 . S
C411 C428 1.574 . S
C411 C430 1.368 . S
C411 H435 0.949 . S
H412 C416 0.949 . S
C413 C414 1.349 . S
C413 C415 1.327 . S
C413 H436 0.950 . S
C414 C413 1.349 . S
C414 C426 1.349 . S
C415 C413 1.327 . S
C415 C431 1.429 . S
C415 H437 0.950 . S
C416 H412 0.949 . S
C416 C424 1.574 . S
C416 C432 1.368 . S
H417 C425 0.950 . S
H418 C423 0.950 . S
H419 C424 0.949 . S
H420 C426 0.950 . S
H421 C427 0.950 . S
H422 C428 0.949 . S
C423 H418 0.950 . S
C423 C425 1.327 . S
C423 C429 1.429 . S
C424 C416 1.574 . S
C424 H419 0.949 . S
C424 C430 1.368 . S
C425 C409 1.349 . S
C425 H417 0.950 . S
C425 C423 1.327 . S
C426 C414 1.349 . S
C426 H420 0.950 . S
C426 C427 1.327 . S
C427 H421 0.950 . S
C427 C426 1.327 . S
C427 C431 1.429 . S
C428 C411 1.574 . S
C428 H422 0.949 . S
C428 C432 1.368 . S
C429 C410 1.429 . S
C429 C423 1.429 . S
C429 C430 1.523 . S
C430 C411 1.368 . S
C430 C424 1.368 . S
C430 C429 1.523 . S
C431 C415 1.429 . S
C431 C427 1.429 . S
C431 C432 1.523 . S
C432 C416 1.368 . S
C432 C428 1.368 . S
C432 C431 1.523 . S
H433 C408 0.950 . S
H434 C410 0.950 . S
H435 C411 0.949 . S
H436 C413 0.950 . S
H437 C415 0.950 . S
C438 C439 1.349 . S
C438 C440 1.327 . S
C438 H463 0.950 . S
C439 C438 1.349 . S
C439 C455 1.349 . S
C440 C438 1.327 . S
C440 C459 1.429 . S
C440 H464 0.950 . S
C441 C458 1.574 . S
C441 C460 1.368 . S
C441 H465 0.949 . S
H442 C446 0.949 . S
C443 C444 1.349 . S
C443 C445 1.327 . S
C443 H466 0.950 . S
C444 C443 1.349 . S
C444 C456 1.349 . S
C445 C443 1.327 . S
C445 C461 1.429 . S
C445 H467 0.950 . S
C446 H442 0.949 . S
C446 C454 1.574 . S
C446 C462 1.368 . S
H447 C455 0.950 . S
H448 C453 0.950 . S
H449 C454 0.949 . S
H450 C456 0.950 . S
H451 C457 0.950 . S
H452 C458 0.949 . S
C453 H448 0.950 . S
C453 C455 1.327 . S
C453 C459 1.429 . S
C454 C446 1.574 . S
C454 H449 0.949 . S
C454 C460 1.368 . S
C455 C439 1.349 . S
C455 H447 0.950 . S
C455 C453 1.327 . S
C456 C444 1.349 . S
C456 H450 0.950 . S
C456 C457 1.327 . S
C457 H451 0.950 . S
C457 C456 1.327 . S
C457 C461 1.429 . S
C458 C441 1.574 . S
C458 H452 0.949 . S
C458 C462 1.368 . S
C459 C440 1.429 . S
C459 C453 1.429 . S
C459 C460 1.523 . S
C460 C441 1.368 . S
C460 C454 1.368 . S
C460 C459 1.523 . S
C461 C445 1.429 . S
C461 C457 1.429 . S
C461 C462 1.523 . S
C462 C446 1.368 . S
C462 C458 1.368 . S
C462 C461 1.523 . S
H463 C438 0.950 . S
H464 C440 0.950 . S
H465 C441 0.949 . S
H466 C443 0.950 . S
H467 C445 0.950 . S
C468 C469 1.349 . S
C468 C470 1.327 . S
C468 H493 0.950 . S
C469 C468 1.349 . S
C469 C485 1.349 . S
C470 C468 1.327 . S
C470 C489 1.429 . S
C470 H494 0.950 . S
C471 C488 1.574 . S
C471 C490 1.368 . S
C471 H495 0.949 . S
H472 C476 0.949 . S
C473 C474 1.349 . S
C473 C475 1.327 . S
C473 H496 0.950 . S
C474 C473 1.349 . S
C474 C486 1.349 . S
C475 C473 1.327 . S
C475 C491 1.429 . S
C475 H497 0.950 . S
C476 H472 0.949 . S
C476 C484 1.574 . S
C476 C492 1.368 . S
H477 C485 0.950 . S
H478 C483 0.950 . S
H479 C484 0.949 . S
H480 C486 0.950 . S
H481 C487 0.950 . S
H482 C488 0.949 . S
C483 H478 0.950 . S
C483 C485 1.327 . S
C483 C489 1.429 . S
C484 C476 1.574 . S
C484 H479 0.949 . S
C484 C490 1.368 . S
C485 C469 1.349 . S
C485 H477 0.950 . S
C485 C483 1.327 . S
C486 C474 1.349 . S
C486 H480 0.950 . S
C486 C487 1.327 . S
C487 H481 0.950 . S
C487 C486 1.327 . S
C487 C491 1.429 . S
C488 C471 1.574 . S
C488 H482 0.949 . S
C488 C492 1.368 . S
C489 C470 1.429 . S
C489 C483 1.429 . S
C489 C490 1.523 . S
C490 C471 1.368 . S
C490 C484 1.368 . S
C490 C489 1.523 . S
C491 C475 1.429 . S
C491 C487 1.429 . S
C491 C492 1.523 . S
C492 C476 1.368 . S
C492 C488 1.368 . S
C492 C491 1.523 . S
H493 C468 0.950 . S
H494 C470 0.950 . S
H495 C471 0.949 . S
H496 C473 0.950 . S
H497 C475 0.950 . S
C498 C499 1.349 . S
C498 C500 1.327 . S
C498 H523 0.950 . S
C499 C498 1.349 . S
C499 C515 1.349 . S
C500 C498 1.327 . S
C500 C519 1.429 . S
C500 H524 0.950 . S
C501 C518 1.574 . S
C501 C520 1.368 . S
C501 H525 0.949 . S
H502 C506 0.949 . S
C503 C504 1.349 . S
C503 C505 1.327 . S
C503 H526 0.950 . S
C504 C503 1.349 . S
C504 C516 1.349 . S
C505 C503 1.327 . S
C505 C521 1.429 . S
C505 H527 0.950 . S
C506 H502 0.949 . S
C506 C514 1.574 . S
C506 C522 1.368 . S
H507 C515 0.950 . S
H508 C513 0.950 . S
H509 C514 0.949 . S
H510 C516 0.950 . S
H511 C517 0.950 . S
H512 C518 0.949 . S
C513 H508 0.950 . S
C513 C515 1.327 . S
C513 C519 1.429 . S
C514 C506 1.574 . S
C514 H509 0.949 . S
C514 C520 1.368 . S
C515 C499 1.349 . S
C515 H507 0.950 . S
C515 C513 1.327 . S
C516 C504 1.349 . S
C516 H510 0.950 . S
C516 C517 1.327 . S
C517 H511 0.950 . S
C517 C516 1.327 . S
C517 C521 1.429 . S
C518 C501 1.574 . S
C518 H512 0.949 . S
C518 C522 1.368 . S
C519 C500 1.429 . S
C519 C513 1.429 . S
C519 C520 1.523 . S
C520 C501 1.368 . S
C520 C514 1.368 . S
C520 C519 1.523 . S
C521 C505 1.429 . S
C521 C517 1.429 . S
C521 C522 1.523 . S
C522 C506 1.368 . S
C522 C518 1.368 . S
C522 C521 1.523 . S
H523 C498 0.950 . S
H524 C500 0.950 . S
H525 C501 0.949 . S
H526 C503 0.950 . S
H527 C505 0.950 . S
C528 C529 1.349 . S
C528 C530 1.327 . S
C528 H553 0.950 . S
C529 C528 1.349 . S
C529 C545 1.349 . S
C530 C528 1.327 . S
C530 C549 1.429 . S
C530 H554 0.950 . S
C531 C548 1.574 . S
C531 C550 1.368 . S
C531 H555 0.949 . S
H532 C536 0.949 . S
C533 C534 1.349 . S
C533 C535 1.327 . S
C533 H556 0.950 . S
C534 C533 1.349 . S
C534 C546 1.349 . S
C535 C533 1.327 . S
C535 C551 1.429 . S
C535 H557 0.950 . S
C536 H532 0.949 . S
C536 C544 1.574 . S
C536 C552 1.368 . S
H537 C545 0.950 . S
H538 C543 0.950 . S
H539 C544 0.949 . S
H540 C546 0.950 . S
H541 C547 0.950 . S
H542 C548 0.949 . S
C543 H538 0.950 . S
C543 C545 1.327 . S
C543 C549 1.429 . S
C544 C536 1.574 . S
C544 H539 0.949 . S
C544 C550 1.368 . S
C545 C529 1.349 . S
C545 H537 0.950 . S
C545 C543 1.327 . S
C546 C534 1.349 . S
C546 H540 0.950 . S
C546 C547 1.327 . S
C547 H541 0.950 . S
C547 C546 1.327 . S
C547 C551 1.429 . S
C548 C531 1.574 . S
C548 H542 0.949 . S
C548 C552 1.368 . S
C549 C530 1.429 . S
C549 C543 1.429 . S
C549 C550 1.523 . S
C550 C531 1.368 . S
C550 C544 1.368 . S
C550 C549 1.523 . S
C551 C535 1.429 . S
C551 C547 1.429 . S
C551 C552 1.523 . S
C552 C536 1.368 . S
C552 C548 1.368 . S
C552 C551 1.523 . S
H553 C528 0.950 . S
H554 C530 0.950 . S
H555 C531 0.949 . S
H556 C533 0.950 . S
H557 C535 0.950 . S
C558 C559 1.349 . S
C558 C560 1.327 . S
C558 H583 0.950 . S
C559 C558 1.349 . S
C559 C575 1.349 . S
C560 C558 1.327 . S
C560 C579 1.429 . S
C560 H584 0.950 . S
C561 C578 1.574 . S
C561 C580 1.368 . S
C561 H585 0.949 . S
H562 C566 0.949 . S
C563 C564 1.349 . S
C563 C565 1.327 . S
C563 H586 0.950 . S
C564 C563 1.349 . S
C564 C576 1.349 . S
C565 C563 1.327 . S
C565 C581 1.429 . S
C565 H587 0.950 . S
C566 H562 0.949 . S
C566 C574 1.574 . S
C566 C582 1.368 . S
H567 C575 0.950 . S
H568 C573 0.950 . S
H569 C574 0.949 . S
H570 C576 0.950 . S
H571 C577 0.950 . S
H572 C578 0.949 . S
C573 H568 0.950 . S
C573 C575 1.327 . S
C573 C579 1.429 . S
C574 C566 1.574 . S
C574 H569 0.949 . S
C574 C580 1.368 . S
C575 C559 1.349 . S
C575 H567 0.950 . S
C575 C573 1.327 . S
C576 C564 1.349 . S
C576 H570 0.950 . S
C576 C577 1.327 . S
C577 H571 0.950 . S
C577 C576 1.327 . S
C577 C581 1.429 . S
C578 C561 1.574 . S
C578 H572 0.949 . S
C578 C582 1.368 . S
C579 C560 1.429 . S
C579 C573 1.429 . S
C579 C580 1.523 . S
C580 C561 1.368 . S
C580 C574 1.368 . S
C580 C579 1.523 . S
C581 C565 1.429 . S
C581 C577 1.429 . S
C581 C582 1.523 . S
C582 C566 1.368 . S
C582 C578 1.368 . S
C582 C581 1.523 . S
H583 C558 0.950 . S
H584 C560 0.950 . S
H585 C561 0.949 . S
H586 C563 0.950 . S
H587 C565 0.950 . S
C588 C589 1.349 . S
C588 C590 1.327 . S
C588 H613 0.950 . S
C589 C588 1.349 . S
C589 C605 1.349 . S
C590 C588 1.327 . S
C590 C609 1.429 . S
C590 H614 0.950 . S
C591 C608 1.574 . S
C591 C610 1.368 . S
C591 H615 0.949 . S
H592 C596 0.949 . S
C593 C594 1.349 . S
C593 C595 1.327 . S
C593 H616 0.950 . S
C594 C593 1.349 . S
C594 C606 1.349 . S
C595 C593 1.327 . S
C595 C611 1.429 . S
C595 H617 0.950 . S
C596 H592 0.949 . S
C596 C604 1.574 . S
C596 C612 1.368 . S
H597 C605 0.950 . S
H598 C603 0.950 . S
H599 C604 0.949 . S
H600 C606 0.950 . S
H601 C607 0.950 . S
H602 C608 0.949 . S
C603 H598 0.950 . S
C603 C605 1.327 . S
C603 C609 1.429 . S
C604 C596 1.574 . S
C604 H599 0.949 . S
C604 C610 1.368 . S
C605 C589 1.349 . S
C605 H597 0.950 . S
C605 C603 1.327 . S
C606 C594 1.349 . S
C606 H600 0.950 . S
C606 C607 1.327 . S
C607 H601 0.950 . S
C607 C606 1.327 . S
C607 C611 1.429 . S
C608 C591 1.574 . S
C608 H602 0.949 . S
C608 C612 1.368 . S
C609 C590 1.429 . S
C609 C603 1.429 . S
C609 C610 1.523 . S
C610 C591 1.368 . S
C610 C604 1.368 . S
C610 C609 1.523 . S
C611 C595 1.429 . S
C611 C607 1.429 . S
C611 C612 1.523 . S
C612 C596 1.368 . S
C612 C608 1.368 . S
C612 C611 1.523 . S
H613 C588 0.950 . S
H614 C590 0.950 . S
H615 C591 0.949 . S
H616 C593 0.950 . S
H617 C595 0.950 . S
C618 C619 1.349 . S
C618 C620 1.327 . S
C618 H643 0.950 . S
C619 C618 1.349 . S
C619 C635 1.349 . S
C620 C618 1.327 . S
C620 C639 1.429 . S
C620 H644 0.950 . S
C621 C638 1.574 . S
C621 C640 1.368 . S
C621 H645 0.949 . S
H622 C626 0.949 . S
C623 C624 1.349 . S
C623 C625 1.327 . S
C623 H646 0.950 . S
C624 C623 1.349 . S
C624 C636 1.349 . S
C625 C623 1.327 . S
C625 C641 1.429 . S
C625 H647 0.950 . S
C626 H622 0.949 . S
C626 C634 1.574 . S
C626 C642 1.368 . S
H627 C635 0.950 . S
H628 C633 0.950 . S
H629 C634 0.949 . S
H630 C636 0.950 . S
H631 C637 0.950 . S
H632 C638 0.949 . S
C633 H628 0.950 . S
C633 C635 1.327 . S
C633 C639 1.429 . S
C634 C626 1.574 . S
C634 H629 0.949 . S
C634 C640 1.368 . S
C635 C619 1.349 . S
C635 H627 0.950 . S
C635 C633 1.327 . S
C636 C624 1.349 . S
C636 H630 0.950 . S
C636 C637 1.327 . S
C637 H631 0.950 . S
C637 C636 1.327 . S
C637 C641 1.429 . S
C638 C621 1.574 . S
C638 H632 0.949 . S
C638 C642 1.368 . S
C639 C620 1.429 . S
C639 C633 1.429 . S
C639 C640 1.523 . S
C640 C621 1.368 . S
C640 C634 1.368 . S
C640 C639 1.523 . S
C641 C625 1.429 . S
C641 C637 1.429 . S
C641 C642 1.523 . S
C642 C626 1.368 . S
C642 C638 1.368 . S
C642 C641 1.523 . S
H643 C618 0.950 . S
H644 C620 0.950 . S
H645 C621 0.949 . S
H646 C623 0.950 . S
H647 C625 0.950 . S
C648 C649 1.349 . S
C648 C650 1.327 . S
C648 H673 0.950 . S
C649 C648 1.349 . S
C649 C665 1.349 . S
C650 C648 1.327 . S
C650 C669 1.429 . S
C650 H674 0.950 . S
C651 C668 1.574 . S
C651 C670 1.368 . S
C651 H675 0.949 . S
H652 C656 0.949 . S
C653 C654 1.349 . S
C653 C655 1.327 . S
C653 H676 0.950 . S
C654 C653 1.349 . S
C654 C666 1.349 . S
C655 C653 1.327 . S
C655 C671 1.429 . S
C655 H677 0.950 . S
C656 H652 0.949 . S
C656 C664 1.574 . S
C656 C672 1.368 . S
H657 C665 0.950 . S
H658 C663 0.950 . S
H659 C664 0.949 . S
H660 C666 0.950 . S
H661 C667 0.950 . S
H662 C668 0.949 . S
C663 H658 0.950 . S
C663 C665 1.327 . S
C663 C669 1.429 . S
C664 C656 1.574 . S
C664 H659 0.949 . S
C664 C670 1.368 . S
C665 C649 1.349 . S
C665 H657 0.950 . S
C665 C663 1.327 . S
C666 C654 1.349 . S
C666 H660 0.950 . S
C666 C667 1.327 . S
C667 H661 0.950 . S
C667 C666 1.327 . S
C667 C671 1.429 . S
C668 C651 1.574 . S
C668 H662 0.949 . S
C668 C672 1.368 . S
C669 C650 1.429 . S
C669 C663 1.429 . S
C669 C670 1.523 . S
C670 C651 1.368 . S
C670 C664 1.368 . S
C670 C669 1.523 . S
C671 C655 1.429 . S
C671 C667 1.429 . S
C671 C672 1.523 . S
C672 C656 1.368 . S
C672 C668 1.368 . S
C672 C671 1.523 . S
H673 C648 0.950 . S
H674 C650 0.950 . S
H675 C651 0.949 . S
H676 C653 0.950 . S
H677 C655 0.950 . S
C678 C679 1.349 . S
C678 C680 1.327 . S
C678 H703 0.950 . S
C679 C678 1.349 . S
C679 C695 1.349 . S
C680 C678 1.327 . S
C680 C699 1.429 . S
C680 H704 0.950 . S
C681 C698 1.574 . S
C681 C700 1.368 . S
C681 H705 0.949 . S
H682 C686 0.949 . S
C683 C684 1.349 . S
C683 C685 1.327 . S
C683 H706 0.950 . S
C684 C683 1.349 . S
C684 C696 1.349 . S
C685 C683 1.327 . S
C685 C701 1.429 . S
C685 H707 0.950 . S
C686 H682 0.949 . S
C686 C694 1.574 . S
C686 C702 1.368 . S
H687 C695 0.950 . S
H688 C693 0.950 . S
H689 C694 0.949 . S
H690 C696 0.950 . S
H691 C697 0.950 . S
H692 C698 0.949 . S
C693 H688 0.950 . S
C693 C695 1.327 . S
C693 C699 1.429 . S
C694 C686 1.574 . S
C694 H689 0.949 . S
C694 C700 1.368 . S
C695 C679 1.349 . S
C695 H687 0.950 . S
C695 C693 1.327 . S
C696 C684 1.349 . S
C696 H690 0.950 . S
C696 C697 1.327 . S
C697 H691 0.950 . S
C697 C696 1.327 . S
C697 C701 1.429 . S
C698 C681 1.574 . S
C698 H692 0.949 . S
C698 C702 1.368 . S
C699 C680 1.429 . S
C699 C693 1.429 . S
C699 C700 1.523 . S
C700 C681 1.368 . S
C700 C694 1.368 . S
C700 C699 1.523 . S
C701 C685 1.429 . S
C701 C697 1.429 . S
C701 C702 1.523 . S
C702 C686 1.368 . S
C702 C698 1.368 . S
C702 C701 1.523 . S
H703 C678 0.950 . S
H704 C680 0.950 . S
H705 C681 0.949 . S
H706 C683 0.950 . S
H707 C685 0.950 . S
C708 C709 1.349 . S
C708 C710 1.327 . S
C708 H733 0.950 . S
C709 C708 1.349 . S
C709 C725 1.349 . S
C710 C708 1.327 . S
C710 C729 1.429 . S
C710 H734 0.950 . S
C711 C728 1.574 . S
C711 C730 1.368 . S
C711 H735 0.949 . S
H712 C716 0.949 . S
C713 C714 1.349 . S
C713 C715 1.327 . S
C713 H736 0.950 . S
C714 C713 1.349 . S
C714 C726 1.349 . S
C715 C713 1.327 . S
C715 C731 1.429 . S
C715 H737 0.950 . S
C716 H712 0.949 . S
C716 C724 1.574 . S
C716 C732 1.368 . S
H717 C725 0.950 . S
H718 C723 0.950 . S
H719 C724 0.949 . S
H720 C726 0.950 . S
H721 C727 0.950 . S
H722 C728 0.949 . S
C723 H718 0.950 . S
C723 C725 1.327 . S
C723 C729 1.429 . S
C724 C716 1.574 . S
C724 H719 0.949 . S
C724 C730 1.368 . S
C725 C709 1.349 . S
C725 H717 0.950 . S
C725 C723 1.327 . S
C726 C714 1.349 . S
C726 H720 0.950 . S
C726 C727 1.327 . S
C727 H721 0.950 . S
C727 C726 1.327 . S
C727 C731 1.429 . S
C728 C711 1.574 . S
C728 H722 0.949 . S
C728 C732 1.368 . S
C729 C710 1.429 . S
C729 C723 1.429 . S
C729 C730 1.523 . S
C730 C711 1.368 . S
C730 C724 1.368 . S
C730 C729 1.523 . S
C731 C715 1.429 . S
C731 C727 1.429 . S
C731 C732 1.523 . S
C732 C716 1.368 . S
C732 C728 1.368 . S
C732 C731 1.523 . S
H733 C708 0.950 . S
H734 C710 0.950 . S
H735 C711 0.949 . S
H736 C713 0.950 . S
H737 C715 0.950 . S
C738 C739 1.349 . S
C738 C740 1.327 . S
C738 H763 0.950 . S
C739 C738 1.349 . S
C739 C755 1.349 . S
C740 C738 1.327 . S
C740 C759 1.429 . S
C740 H764 0.950 . S
C741 C758 1.574 . S
C741 C760 1.368 . S
C741 H765 0.949 . S
H742 C746 0.949 . S
C743 C744 1.349 . S
C743 C745 1.327 . S
C743 H766 0.950 . S
C744 C743 1.349 . S
C744 C756 1.349 . S
C745 C743 1.327 . S
C745 C761 1.429 . S
C745 H767 0.950 . S
C746 H742 0.949 . S
C746 C754 1.574 . S
C746 C762 1.368 . S
H747 C755 0.950 . S
H748 C753 0.950 . S
H749 C754 0.949 . S
H750 C756 0.950 . S
H751 C757 0.950 . S
H752 C758 0.949 . S
C753 H748 0.950 . S
C753 C755 1.327 . S
C753 C759 1.429 . S
C754 C746 1.574 . S
C754 H749 0.949 . S
C754 C760 1.368 . S
C755 C739 1.349 . S
C755 H747 0.950 . S
C755 C753 1.327 . S
C756 C744 1.349 . S
C756 H750 0.950 . S
C756 C757 1.327 . S
C757 H751 0.950 . S
C757 C756 1.327 . S
C757 C761 1.429 . S
C758 C741 1.574 . S
C758 H752 0.949 . S
C758 C762 1.368 . S
C759 C740 1.429 . S
C759 C753 1.429 . S
C759 C760 1.523 . S
C760 C741 1.368 . S
C760 C754 1.368 . S
C760 C759 1.523 . S
C761 C745 1.429 . S
C761 C757 1.429 . S
C761 C762 1.523 . S
C762 C746 1.368 . S
C762 C758 1.368 . S
C762 C761 1.523 . S
H763 C738 0.950 . S
H764 C740 0.950 . S
H765 C741 0.949 . S
H766 C743 0.950 . S
H767 C745 0.950 . S
C768 C769 1.349 . S
C768 C770 1.327 . S
C768 H793 0.950 . S
C769 C768 1.349 . S
C769 C785 1.349 . S
C770 C768 1.327 . S
C770 C789 1.429 . S
C770 H794 0.950 . S
C771 C788 1.574 . S
C771 C790 1.368 . S
C771 H795 0.949 . S
H772 C776 0.949 . S
C773 C774 1.349 . S
C773 C775 1.327 . S
C773 H796 0.950 . S
C774 C773 1.349 . S
C774 C786 1.349 . S
C775 C773 1.327 . S
C775 C791 1.429 . S
C775 H797 0.950 . S
C776 H772 0.949 . S
C776 C784 1.574 . S
C776 C792 1.368 . S
H777 C785 0.950 . S
H778 C783 0.950 . S
H779 C784 0.949 . S
H780 C786 0.950 . S
H781 C787 0.950 . S
H782 C788 0.949 . S
C783 H778 0.950 . S
C783 C785 1.327 . S
C783 C789 1.429 . S
C784 C776 1.574 . S
C784 H779 0.949 . S
C784 C790 1.368 . S
C785 C769 1.349 . S
C785 H777 0.950 . S
C785 C783 1.327 . S
C786 C774 1.349 . S
C786 H780 0.950 . S
C786 C787 1.327 . S
C787 H781 0.950 . S
C787 C786 1.327 . S
C787 C791 1.429 . S
C788 C771 1.574 . S
C788 H782 0.949 . S
C788 C792 1.368 . S
C789 C770 1.429 . S
C789 C783 1.429 . S
C789 C790 1.523 . S
C790 C771 1.368 . S
C790 C784 1.368 . S
C790 C789 1.523 . S
C791 C775 1.429 . S
C791 C787 1.429 . S
C791 C792 1.523 . S
C792 C776 1.368 . S
C792 C788 1.368 . S
C792 C791 1.523 . S
H793 C768 0.950 . S
H794 C770 0.950 . S
H795 C771 0.949 . S
H796 C773 0.950 . S
H797 C775 0.950 . S
C798 C799 1.349 . S
C798 C800 1.327 . S
C798 H823 0.950 . S
C799 C798 1.349 . S
C799 C815 1.349 . S
C800 C798 1.327 . S
C800 C819 1.429 . S
C800 H824 0.950 . S
C801 C818 1.574 . S
C801 C820 1.368 . S
C801 H825 0.949 . S
H802 C806 0.949 . S
C803 C804 1.349 . S
C803 C805 1.327 . S
C803 H826 0.950 . S
C804 C803 1.349 . S
C804 C816 1.349 . S
C805 C803 1.327 . S
C805 C821 1.429 . S
C805 H827 0.950 . S
C806 H802 0.949 . S
C806 C814 1.574 . S
C806 C822 1.368 . S
H807 C815 0.950 . S
H808 C813 0.950 . S
H809 C814 0.949 . S
H810 C816 0.950 . S
H811 C817 0.950 . S
H812 C818 0.949 . S
C813 H808 0.950 . S
C813 C815 1.327 . S
C813 C819 1.429 . S
C814 C806 1.574 . S
C814 H809 0.949 . S
C814 C820 1.368 . S
C815 C799 1.349 . S
C815 H807 0.950 . S
C815 C813 1.327 . S
C816 C804 1.349 . S
C816 H810 0.950 . S
C816 C817 1.327 . S
C817 H811 0.950 . S
C817 C816 1.327 . S
C817 C821 1.429 . S
C818 C801 1.574 . S
C818 H812 0.949 . S
C818 C822 1.368 . S
C819 C800 1.429 . S
C819 C813 1.429 . S
C819 C820 1.523 . S
C820 C801 1.368 . S
C820 C814 1.368 . S
C820 C819 1.523 . S
C821 C805 1.429 . S
C821 C817 1.429 . S
C821 C822 1.523 . S
C822 C806 1.368 . S
C822 C818 1.368 . S
C822 C821 1.523 . S
H823 C798 0.950 . S
H824 C800 0.950 . S
H825 C801 0.949 . S
H826 C803 0.950 . S
H827 C805 0.950 . S
C828 C829 1.349 . S
C828 C830 1.327 . S
C828 H853 0.950 . S
C829 C828 1.349 . S
C829 C845 1.349 . S
C830 C828 1.327 . S
C830 C849 1.429 . S
C830 H854 0.950 . S
C831 C848 1.574 . S
C831 C850 1.368 . S
C831 H855 0.949 . S
H832 C836 0.949 . S
C833 C834 1.349 . S
C833 C835 1.327 . S
C833 H856 0.950 . S
C834 C833 1.349 . S
C834 C846 1.349 . S
C835 C833 1.327 . S
C835 C851 1.429 . S
C835 H857 0.950 . S
C836 H832 0.949 . S
C836 C844 1.574 . S
C836 C852 1.368 . S
H837 C845 0.950 . S
H838 C843 0.950 . S
H839 C844 0.949 . S
H840 C846 0.950 . S
H841 C847 0.950 . S
H842 C848 0.949 . S
C843 H838 0.950 . S
C843 C845 1.327 . S
C843 C849 1.429 . S
C844 C836 1.574 . S
C844 H839 0.949 . S
C844 C850 1.368 . S
C845 C829 1.349 . S
C845 H837 0.950 . S
C845 C843 1.327 . S
C846 C834 1.349 . S
C846 H840 0.950 . S
C846 C847 1.327 . S
C847 H841 0.950 . S
C847 C846 1.327 . S
C847 C851 1.429 . S
C848 C831 1.574 . S
C848 H842 0.949 . S
C848 C852 1.368 . S
C849 C830 1.429 . S
C849 C843 1.429 . S
C849 C850 1.523 . S
C850 C831 1.368 . S
C850 C844 1.368 . S
C850 C849 1.523 . S
C851 C835 1.429 . S
C851 C847 1.429 . S
C851 C852 1.523 . S
C852 C836 1.368 . S
C852 C848 1.368 . S
C852 C851 1.523 . S
H853 C828 0.950 . S
H854 C830 0.950 . S
H855 C831 0.949 . S
H856 C833 0.950 . S
H857 C835 0.950 . S
C858 C859 1.349 . S
C858 C860 1.327 . S
C858 H883 0.950 . S
C859 C858 1.349 . S
C859 C875 1.349 . S
C860 C858 1.327 . S
C860 C879 1.429 . S
C860 H884 0.950 . S
C861 C878 1.574 . S
C861 C880 1.368 . S
C861 H885 0.949 . S
H862 C866 0.949 . S
C863 C864 1.349 . S
C863 C865 1.327 . S
C863 H886 0.950 . S
C864 C863 1.349 . S
C864 C876 1.349 . S
C865 C863 1.327 . S
C865 C881 1.429 . S
C865 H887 0.950 . S
C866 H862 0.949 . S
C866 C874 1.574 . S
C866 C882 1.368 . S
H867 C875 0.950 . S
H868 C873 0.950 . S
H869 C874 0.949 . S
H870 C876 0.950 . S
H871 C877 0.950 . S
H872 C878 0.949 . S
C873 H868 0.950 . S
C873 C875 1.327 . S
C873 C879 1.429 . S
C874 C866 1.574 . S
C874 H869 0.949 . S
C874 C880 1.368 . S
C875 C859 1.349 . S
C875 H867 0.950 . S
C875 C873 1.327 . S
C876 C864 1.349 . S
C876 H870 0.950 . S
C876 C877 1.327 . S
C877 H871 0.950 . S
C877 C876 1.327 . S
C877 C881 1.429 . S
C878 C861 1.574 . S
C878 H872 0.949 . S
C878 C882 1.368 . S
C879 C860 1.429 . S
C879 C873 1.429 . S
C879 C880 1.523 . S
C880 C861 1.368 . S
C880 C874 1.368 . S
C880 C879 1.523 . S
C881 C865 1.429 . S
C881 C877 1.429 . S
C881 C882 1.523 . S
C882 C866 1.368 . S
C882 C878 1.368 . S
C882 C881 1.523 . S
H883 C858 0.950 . S
H884 C860 0.950 . S
H885 C861 0.949 . S
H886 C863 0.950 . S
H887 C865 0.950 . S
C888 C889 1.349 . S
C888 C890 1.327 . S
C888 H913 0.950 . S
C889 C888 1.349 . S
C889 C905 1.349 . S
C890 C888 1.327 . S
C890 C909 1.429 . S
C890 H914 0.950 . S
C891 C908 1.574 . S
C891 C910 1.368 . S
C891 H915 0.949 . S
H892 C896 0.949 . S
C893 C894 1.349 . S
C893 C895 1.327 . S
C893 H916 0.950 . S
C894 C893 1.349 . S
C894 C906 1.349 . S
C895 C893 1.327 . S
C895 C911 1.429 . S
C895 H917 0.950 . S
C896 H892 0.949 . S
C896 C904 1.574 . S
C896 C912 1.368 . S
H897 C905 0.950 . S
H898 C903 0.950 . S
H899 C904 0.949 . S
H900 C906 0.950 . S
H901 C907 0.950 . S
H902 C908 0.949 . S
C903 H898 0.950 . S
C903 C905 1.327 . S
C903 C909 1.429 . S
C904 C896 1.574 . S
C904 H899 0.949 . S
C904 C910 1.368 . S
C905 C889 1.349 . S
C905 H897 0.950 . S
C905 C903 1.327 . S
C906 C894 1.349 . S
C906 H900 0.950 . S
C906 C907 1.327 . S
C907 H901 0.950 . S
C907 C906 1.327 . S
C907 C911 1.429 . S
C908 C891 1.574 . S
C908 H902 0.949 . S
C908 C912 1.368 . S
C909 C890 1.429 . S
C909 C903 1.429 . S
C909 C910 1.523 . S
C910 C891 1.368 . S
C910 C904 1.368 . S
C910 C909 1.523 . S
C911 C895 1.429 . S
C911 C907 1.429 . S
C911 C912 1.523 . S
C912 C896 1.368 . S
C912 C908 1.368 . S
C912 C911 1.523 . S
H913 C888 0.950 . S
H914 C890 0.950 . S
H915 C891 0.949 . S
H916 C893 0.950 . S
H917 C895 0.950 . S
C918 C919 1.349 . S
C918 C920 1.327 . S
C918 H943 0.950 . S
C919 C918 1.349 . S
C919 C935 1.349 . S
C920 C918 1.327 . S
C920 C939 1.429 . S
C920 H944 0.950 . S
C921 C938 1.574 . S
C921 C940 1.368 . S
C921 H945 0.949 . S
H922 C926 0.949 . S
C923 C924 1.349 . S
C923 C925 1.327 . S
C923 H946 0.950 . S
C924 C923 1.349 . S
C924 C936 1.349 . S
C925 C923 1.327 . S
C925 C941 1.429 . S
C925 H947 0.950 . S
C926 H922 0.949 . S
C926 C934 1.574 . S
C926 C942 1.368 . S
H927 C935 0.950 . S
H928 C933 0.950 . S
H929 C934 0.949 . S
H930 C936 0.950 . S
H931 C937 0.950 . S
H932 C938 0.949 . S
C933 H928 0.950 . S
C933 C935 1.327 . S
C933 C939 1.429 . S
C934 C926 1.574 . S
C934 H929 0.949 . S
C934 C940 1.368 . S
C935 C919 1.349 . S
C935 H927 0.950 . S
C935 C933 1.327 . S
C936 C924 1.349 . S
C936 H930 0.950 . S
C936 C937 1.327 . S
C937 H931 0.950 . S
C937 C936 1.327 . S
C937 C941 1.429 . S
C938 C921 1.574 . S
C938 H932 0.949 . S
C938 C942 1.368 . S
C939 C920 1.429 . S
C939 C933 1.429 . S
C939 C940 1.523 . S
C940 C921 1.368 . S
C940 C934 1.368 . S
C940 C939 1.523 . S
C941 C925 1.429 . S
C941 C937 1.429 . S
C941 C942 1.523 . S
C942 C926 1.368 . S
C942 C938 1.368 . S
C942 C941 1.523 . S
H943 C918 0.950 . S
H944 C920 0.950 . S
H945 C921 0.949 . S
H946 C923 0.950 . S
H947 C925 0.950 . S
C948 C949 1.349 . S
C948 C950 1.327 . S
C948 H973 0.950 . S
C949 C948 1.349 . S
C949 C965 1.349 . S
C950 C948 1.327 . S
C950 C969 1.429 . S
C950 H974 0.950 . S
C951 C968 1.574 . S
C951 C970 1.368 . S
C951 H975 0.949 . S
H952 C956 0.949 . S
C953 C954 1.349 . S
C953 C955 1.327 . S
C953 H976 0.950 . S
C954 C953 1.349 . S
C954 C966 1.349 . S
C955 C953 1.327 . S
C955 C971 1.429 . S
C955 H977 0.950 . S
C956 H952 0.949 . S
C956 C964 1.574 . S
C956 C972 1.368 . S
H957 C965 0.950 . S
H958 C963 0.950 . S
H959 C964 0.949 . S
H960 C966 0.950 . S
H961 C967 0.950 . S
H962 C968 0.949 . S
C963 H958 0.950 . S
C963 C965 1.327 . S
C963 C969 1.429 . S
C964 C956 1.574 . S
C964 H959 0.949 . S
C964 C970 1.368 . S
C965 C949 1.349 . S
C965 H957 0.950 . S
C965 C963 1.327 . S
C966 C954 1.349 . S
C966 H960 0.950 . S
C966 C967 1.327 . S
C967 H961 0.950 . S
C967 C966 1.327 . S
C967 C971 1.429 . S
C968 C951 1.574 . S
C968 H962 0.949 . S
C968 C972 1.368 . S
C969 C950 1.429 . S
C969 C963 1.429 . S
C969 C970 1.523 . S
C970 C951 1.368 . S
C970 C964 1.368 . S
C970 C969 1.523 . S
C971 C955 1.429 . S
C971 C967 1.429 . S
C971 C972 1.523 . S
C972 C956 1.368 . S
C972 C968 1.368 . S
C972 C971 1.523 . S
H973 C948 0.950 . S
H974 C950 0.950 . S
H975 C951 0.949 . S
H976 C953 0.950 . S
H977 C955 0.950 . S
C978 C979 1.349 . S
C978 C980 1.327 . S
C978 H1003 0.950 . S
C979 C978 1.349 . S
C979 C995 1.349 . S
C980 C978 1.327 . S
C980 C999 1.429 . S
C980 H1004 0.950 . S
C981 C998 1.574 . S
C981 C1000 1.368 . S
C981 H1005 0.949 . S
H982 C986 0.949 . S
C983 C984 1.349 . S
C983 C985 1.327 . S
C983 H1006 0.950 . S
C984 C983 1.349 . S
C984 C996 1.349 . S
C985 C983 1.327 . S
C985 C1001 1.429 . S
C985 H1007 0.950 . S
C986 H982 0.949 . S
C986 C994 1.574 . S
C986 C1002 1.368 . S
H987 C995 0.950 . S
H988 C993 0.950 . S
H989 C994 0.949 . S
H990 C996 0.950 . S
H991 C997 0.950 . S
H992 C998 0.949 . S
C993 H988 0.950 . S
C993 C995 1.327 . S
C993 C999 1.429 . S
C994 C986 1.574 . S
C994 H989 0.949 . S
C994 C1000 1.368 . S
C995 C979 1.349 . S
C995 H987 0.950 . S
C995 C993 1.327 . S
C996 C984 1.349 . S
C996 H990 0.950 . S
C996 C997 1.327 . S
C997 H991 0.950 . S
C997 C996 1.327 . S
C997 C1001 1.429 . S
C998 C981 1.574 . S
C998 H992 0.949 . S
C998 C1002 1.368 . S
C999 C980 1.429 . S
C999 C993 1.429 . S
C999 C1000 1.523 . S
C1000 C981 1.368 . S
C1000 C994 1.368 . S
C1000 C999 1.523 . S
C1001 C985 1.429 . S
C1001 C997 1.429 . S
C1001 C1002 1.523 . S
C1002 C986 1.368 . S
C1002 C998 1.368 . S
C1002 C1001 1.523 . S
H1003 C978 0.950 . S
H1004 C980 0.950 . S
H1005 C981 0.949 . S
H1006 C983 0.950 . S
H1007 C985 0.950 . S
C1008 C1009 1.349 . S
C1008 C1010 1.327 . S
C1008 H1033 0.950 . S
C1009 C1008 1.349 . S
C1009 C1025 1.349 . S
C1010 C1008 1.327 . S
C1010 C1029 1.429 . S
C1010 H1034 0.950 . S
C1011 C1028 1.574 . S
C1011 C1030 1.368 . S
C1011 H1035 0.949 . S
H1012 C1016 0.949 . S
C1013 C1014 1.349 . S
C1013 C1015 1.327 . S
C1013 H1036 0.950 . S
C1014 C1013 1.349 . S
C1014 C1026 1.349 . S
C1015 C1013 1.327 . S
C1015 C1031 1.429 . S
C1015 H1037 0.950 . S
C1016 H1012 0.949 . S
C1016 C1024 1.574 . S
C1016 C1032 1.368 . S
H1017 C1025 0.950 . S
H1018 C1023 0.950 . S
H1019 C1024 0.949 . S
H1020 C1026 0.950 . S
H1021 C1027 0.950 . S
H1022 C1028 0.949 . S
C1023 H1018 0.950 . S
C1023 C1025 1.327 . S
C1023 C1029 1.429 . S
C1024 C1016 1.574 . S
C1024 H1019 0.949 . S
C1024 C1030 1.368 . S
C1025 C1009 1.349 . S
C1025 H1017 0.950 . S
C1025 C1023 1.327 . S
C1026 C1014 1.349 . S
C1026 H1020 0.950 . S
C1026 C1027 1.327 . S
C1027 H1021 0.950 . S
C1027 C1026 1.327 . S
C1027 C1031 1.429 . S
C1028 C1011 1.574 . S
C1028 H1022 0.949 . S
C1028 C1032 1.368 . S
C1029 C1010 1.429 . S
C1029 C1023 1.429 . S
C1029 C1030 1.523 . S
C1030 C1011 1.368 . S
C1030 C1024 1.368 . S
C1030 C1029 1.523 . S
C1031 C1015 1.429 . S
C1031 C1027 1.429 . S
C1031 C1032 1.523 . S
C1032 C1016 1.368 . S
C1032 C1028 1.368 . S
C1032 C1031 1.523 . S
H1033 C1008 0.950 . S
H1034 C1010 0.950 . S
H1035 C1011 0.949 . S
H1036 C1013 0.950 . S
H1037 C1015 0.950 . S
C1038 C1039 1.349 . S
C1038 C1040 1.327 . S
C1038 H1063 0.950 . S
C1039 C1038 1.349 . S
C1039 C1055 1.349 . S
C1040 C1038 1.327 . S
C1040 C1059 1.429 . S
C1040 H1064 0.950 . S
C1041 C1058 1.574 . S
C1041 C1060 1.368 . S
C1041 H1065 0.949 . S
H1042 C1046 0.949 . S
C1043 C1044 1.349 . S
C1043 C1045 1.327 . S
C1043 H1066 0.950 . S
C1044 C1043 1.349 . S
C1044 C1056 1.349 . S
C1045 C1043 1.327 . S
C1045 C1061 1.429 . S
C1045 H1067 0.950 . S
C1046 H1042 0.949 . S
C1046 C1054 1.574 . S
C1046 C1062 1.368 . S
H1047 C1055 0.950 . S
H1048 C1053 0.950 . S
H1049 C1054 0.949 . S
H1050 C1056 0.950 . S
H1051 C1057 0.950 . S
H1052 C1058 0.949 . S
C1053 H1048 0.950 . S
C1053 C1055 1.327 . S
C1053 C1059 1.429 . S
C1054 C1046 1.574 . S
C1054 H1049 0.949 . S
C1054 C1060 1.368 . S
C1055 C1039 1.349 . S
C1055 H1047 0.950 . S
C1055 C1053 1.327 . S
C1056 C1044 1.349 . S
C1056 H1050 0.950 . S
C1056 C1057 1.327 . S
C1057 H1051 0.950 . S
C1057 C1056 1.327 . S
C1057 C1061 1.429 . S
C1058 C1041 1.574 . S
C1058 H1052 0.949 . S
C1058 C1062 1.368 . S
C1059 C1040 1.429 . S
C1059 C1053 1.429 . S
C1059 C1060 1.523 . S
C1060 C1041 1.368 . S
C1060 C1054 1.368 . S
C1060 C1059 1.523 . S
C1061 C1045 1.429 . S
C1061 C1057 1.429 . S
C1061 C1062 1.523 . S
C1062 C1046 1.368 . S
C1062 C1058 1.368 . S
C1062 C1061 1.523 . S
H1063 C1038 0.950 . S
H1064 C1040 0.950 . S
H1065 C1041 0.949 . S
H1066 C1043 0.950 . S
H1067 C1045 0.950 . S
C1068 C1069 1.349 . S
C1068 C1070 1.327 . S
C1068 H1093 0.950 . S
C1069 C1068 1.349 . S
C1069 C1085 1.349 . S
C1070 C1068 1.327 . S
C1070 C1089 1.429 . S
C1070 H1094 0.950 . S
C1071 C1088 1.574 . S
C1071 C1090 1.368 . S
C1071 H1095 0.949 . S
H1072 C1076 0.949 . S
C1073 C1074 1.349 . S
C1073 C1075 1.327 . S
C1073 H1096 0.950 . S
C1074 C1073 1.349 . S
C1074 C1086 1.349 . S
C1075 C1073 1.327 . S
C1075 C1091 1.429 . S
C1075 H1097 0.950 . S
C1076 H1072 0.949 . S
C1076 C1084 1.574 . S
C1076 C1092 1.368 . S
H1077 C1085 0.950 . S
H1078 C1083 0.950 . S
H1079 C1084 0.949 . S
H1080 C1086 0.950 . S
H1081 C1087 0.950 . S
H1082 C1088 0.949 . S
C1083 H1078 0.950 . S
C1083 C1085 1.327 . S
C1083 C1089 1.429 . S
C1084 C1076 1.574 . S
C1084 H1079 0.949 . S
C1084 C1090 1.368 . S
C1085 C1069 1.349 . S
C1085 H1077 0.950 . S
C1085 C1083 1.327 . S
C1086 C1074 1.349 . S
C1086 H1080 0.950 . S
C1086 C1087 1.327 . S
C1087 H1081 0.950 . S
C1087 C1086 1.327 . S
C1087 C1091 1.429 . S
C1088 C1071 1.574 . S
C1088 H1082 0.949 . S
C1088 C1092 1.368 . S
C1089 C1070 1.429 . S
C1089 C1083 1.429 . S
C1089 C1090 1.523 . S
C1090 C1071 1.368 . S
C1090 C1084 1.368 . S
C1090 C1089 1.523 . S
C1091 C1075 1.429 . S
C1091 C1087 1.429 . S
C1091 C1092 1.523 . S
C1092 C1076 1.368 . S
C1092 C1088 1.368 . S
C1092 C1091 1.523 . S
H1093 C1068 0.950 . S
H1094 C1070 0.950 . S
H1095 C1071 0.949 . S
H1096 C1073 0.950 . S
H1097 C1075 0.950 . S
C1098 C1099 1.349 . S
C1098 C1100 1.327 . S
C1098 H1123 0.950 . S
C1099 C1098 1.349 . S
C1099 C1115 1.349 . S
C1100 C1098 1.327 . S
C1100 C1119 1.429 . S
C1100 H1124 0.950 . S
C1101 C1118 1.574 . S
C1101 C1120 1.368 . S
C1101 H1125 0.949 . S
H1102 C1106 0.949 . S
C1103 C1104 1.349 . S
C1103 C1105 1.327 . S
C1103 H1126 0.950 . S
C1104 C1103 1.349 . S
C1104 C1116 1.349 . S
C1105 C1103 1.327 . S
C1105 C1121 1.429 . S
C1105 H1127 0.950 . S
C1106 H1102 0.949 . S
C1106 C1114 1.574 . S
C1106 C1122 1.368 . S
H1107 C1115 0.950 . S
H1108 C1113 0.950 . S
H1109 C1114 0.949 . S
H1110 C1116 0.950 . S
H1111 C1117 0.950 . S
H1112 C1118 0.949 . S
C1113 H1108 0.950 . S
C1113 C1115 1.327 . S
C1113 C1119 1.429 . S
C1114 C1106 1.574 . S
C1114 H1109 0.949 . S
C1114 C1120 1.368 . S
C1115 C1099 1.349 . S
C1115 H1107 0.950 . S
C1115 C1113 1.327 . S
C1116 C1104 1.349 . S
C1116 H1110 0.950 . S
C1116 C1117 1.327 . S
C1117 H1111 0.950 . S
C1117 C1116 1.327 . S
C1117 C1121 1.429 . S
C1118 C1101 1.574 . S
C1118 H1112 0.949 . S
C1118 C1122 1.368 . S
C1119 C1100 1.429 . S
C1119 C1113 1.429 . S
C1119 C1120 1.523 . S
C1120 C1101 1.368 . S
C1120 C1114 1.368 . S
C1120 C1119 1.523 . S
C1121 C1105 1.429 . S
C1121 C1117 1.429 . S
C1121 C1122 1.523 . S
C1122 C1106 1.368 . S
C1122 C1118 1.368 . S
C1122 C1121 1.523 . S
H1123 C1098 0.950 . S
H1124 C1100 0.950 . S
H1125 C1101 0.949 . S
H1126 C1103 0.950 . S
H1127 C1105 0.950 . S
C1128 C1129 1.349 . S
C1128 C1130 1.327 . S
C1128 H1153 0.950 . S
C1129 C1128 1.349 . S
C1129 C1145 1.349 . S
C1130 C1128 1.327 . S
C1130 C1149 1.429 . S
C1130 H1154 0.950 . S
C1131 C1148 1.574 . S
C1131 C1150 1.368 . S
C1131 H1155 0.949 . S
H1132 C1136 0.949 . S
C1133 C1134 1.349 . S
C1133 C1135 1.327 . S
C1133 H1156 0.950 . S
C1134 C1133 1.349 . S
C1134 C1146 1.349 . S
C1135 C1133 1.327 . S
C1135 C1151 1.429 . S
C1135 H1157 0.950 . S
C1136 H1132 0.949 . S
C1136 C1144 1.574 . S
C1136 C1152 1.368 . S
H1137 C1145 0.950 . S
H1138 C1143 0.950 . S
H1139 C1144 0.949 . S
H1140 C1146 0.950 . S
H1141 C1147 0.950 . S
H1142 C1148 0.949 . S
C1143 H1138 0.950 . S
C1143 C1145 1.327 . S
C1143 C1149 1.429 . S
C1144 C1136 1.574 . S
C1144 H1139 0.949 . S
C1144 C1150 1.368 . S
C1145 C1129 1.349 . S
C1145 H1137 0.950 . S
C1145 C1143 1.327 . S
C1146 C1134 1.349 . S
C1146 H1140 0.950 . S
C1146 C1147 1.327 . S
C1147 H1141 0.950 . S
C1147 C1146 1.327 . S
C1147 C1151 1.429 . S
C1148 C1131 1.574 . S
C1148 H1142 0.949 . S
C1148 C1152 1.368 . S
C1149 C1130 1.429 . S
C1149 C1143 1.429 . S
C1149 C1150 1.523 . S
C1150 C1131 1.368 . S
C1150 C1144 1.368 . S
C1150 C1149 1.523 . S
C1151 C1135 1.429 . S
C1151 C1147 1.429 . S
C1151 C1152 1.523 . S
C1152 C1136 1.368 . S
C1152 C1148 1.368 . S
C1152 C1151 1.523 . S
H1153 C1128 0.950 . S
H1154 C1130 0.950 . S
H1155 C1131 0.949 . S
H1156 C1133 0.950 . S
H1157 C1135 0.950 . S
C1158 C1159 1.349 . S
C1158 C1160 1.327 . S
C1158 H1183 0.950 . S
C1159 C1158 1.349 . S
C1159 C1175 1.349 . S
C1160 C1158 1.327 . S
C1160 C1179 1.429 . S
C1160 H1184 0.950 . S
C1161 C1178 1.574 . S
C1161 C1180 1.368 . S
C1161 H1185 0.949 . S
H1162 C1166 0.949 . S
C1163 C1164 1.349 . S
C1163 C1165 1.327 . S
C1163 H1186 0.950 . S
C1164 C1163 1.349 . S
C1164 C1176 1.349 . S
C1165 C1163 1.327 . S
C1165 C1181 1.429 . S
C1165 H1187 0.950 . S
C1166 H1162 0.949 . S
C1166 C1174 1.574 . S
C1166 C1182 1.368 . S
H1167 C1175 0.950 . S
H1168 C1173 0.950 . S
H1169 C1174 0.949 . S
H1170 C1176 0.950 . S
H1171 C1177 0.950 . S
H1172 C1178 0.949 . S
C1173 H1168 0.950 . S
C1173 C1175 1.327 . S
C1173 C1179 1.429 . S
C1174 C1166 1.574 . S
C1174 H1169 0.949 . S
C1174 C1180 1.368 . S
C1175 C1159 1.349 . S
C1175 H1167 0.950 . S
C1175 C1173 1.327 . S
C1176 C1164 1.349 . S
C1176 H1170 0.950 . S
C1176 C1177 1.327 . S
C1177 H1171 0.950 . S
C1177 C1176 1.327 . S
C1177 C1181 1.429 . S
C1178 C1161 1.574 . S
C1178 H1172 0.949 . S
C1178 C1182 1.368 . S
C1179 C1160 1.429 . S
C1179 C1173 1.429 . S
C1179 C1180 1.523 . S
C1180 C1161 1.368 . S
C1180 C1174 1.368 . S
C1180 C1179 1.523 . S
C1181 C1165 1.429 . S
C1181 C1177 1.429 . S
C1181 C1182 1.523 . S
C1182 C1166 1.368 . S
C1182 C1178 1.368 . S
C1182 C1181 1.523 . S
H1183 C1158 0.950 . S
H1184 C1160 0.950 . S
H1185 C1161 0.949 . S
H1186 C1163 0.950 . S
H1187 C1165 0.950 . S
C1188 C1189 1.349 . S
C1188 C1190 1.327 . S
C1188 H1213 0.950 . S
C1189 C1188 1.349 . S
C1189 C1205 1.349 . S
C1190 C1188 1.327 . S
C1190 C1209 1.429 . S
C1190 H1214 0.950 . S
C1191 C1208 1.574 . S
C1191 C1210 1.368 . S
C1191 H1215 0.949 . S
H1192 C1196 0.949 . S
C1193 C1194 1.349 . S
C1193 C1195 1.327 . S
C1193 H1216 0.950 . S
C1194 C1193 1.349 . S
C1194 C1206 1.349 . S
C1195 C1193 1.327 . S
C1195 C1211 1.429 . S
C1195 H1217 0.950 . S
C1196 H1192 0.949 . S
C1196 C1204 1.574 . S
C1196 C1212 1.368 . S
H1197 C1205 0.950 . S
H1198 C1203 0.950 . S
H1199 C1204 0.949 . S
H1200 C1206 0.950 . S
H1201 C1207 0.950 . S
H1202 C1208 0.949 . S
C1203 H1198 0.950 . S
C1203 C1205 1.327 . S
C1203 C1209 1.429 . S
C1204 C1196 1.574 . S
C1204 H1199 0.949 . S
C1204 C1210 1.368 . S
C1205 C1189 1.349 . S
C1205 H1197 0.950 . S
C1205 C1203 1.327 . S
C1206 C1194 1.349 . S
C1206 H1200 0.950 . S
C1206 C1207 1.327 . S
C1207 H1201 0.950 . S
C1207 C1206 1.327 . S
C1207 C1211 1.429 . S
C1208 C1191 1.574 . S
C1208 H1202 0.949 . S
C1208 C1212 1.368 . S
C1209 C1190 1.429 . S
C1209 C1203 1.429 . S
C1209 C1210 1.523 . S
C1210 C1191 1.368 . S
C1210 C1204 1.368 . S
C1210 C1209 1.523 . S
C1211 C1195 1.429 . S
C1211 C1207 1.429 . S
C1211 C1212 1.523 . S
C1212 C1196 1.368 . S
C1212 C1208 1.368 . S
C1212 C1211 1.523 . S
H1213 C1188 0.950 . S
H1214 C1190 0.950 . S
H1215 C1191 0.949 . S
H1216 C1193 0.950 . S
H1217 C1195 0.950 . S
C1218 C1219 1.349 . S
C1218 C1220 1.327 . S
C1218 H1243 0.950 . S
C1219 C1218 1.349 . S
C1219 C1235 1.349 . S
C1220 C1218 1.327 . S
C1220 C1239 1.429 . S
C1220 H1244 0.950 . S
C1221 C1238 1.574 . S
C1221 C1240 1.368 . S
C1221 H1245 0.949 . S
H1222 C1226 0.949 . S
C1223 C1224 1.349 . S
C1223 C1225 1.327 . S
C1223 H1246 0.950 . S
C1224 C1223 1.349 . S
C1224 C1236 1.349 . S
C1225 C1223 1.327 . S
C1225 C1241 1.429 . S
C1225 H1247 0.950 . S
C1226 H1222 0.949 . S
C1226 C1234 1.574 . S
C1226 C1242 1.368 . S
H1227 C1235 0.950 . S
H1228 C1233 0.950 . S
H1229 C1234 0.949 . S
H1230 C1236 0.950 . S
H1231 C1237 0.950 . S
H1232 C1238 0.949 . S
C1233 H1228 0.950 . S
C1233 C1235 1.327 . S
C1233 C1239 1.429 . S
C1234 C1226 1.574 . S
C1234 H1229 0.949 . S
C1234 C1240 1.368 . S
C1235 C1219 1.349 . S
C1235 H1227 0.950 . S
C1235 C1233 1.327 . S
C1236 C1224 1.349 . S
C1236 H1230 0.950 . S
C1236 C1237 1.327 . S
C1237 H1231 0.950 . S
C1237 C1236 1.327 . S
C1237 C1241 1.429 . S
C1238 C1221 1.574 . S
C1238 H1232 0.949 . S
C1238 C1242 1.368 . S
C1239 C1220 1.429 . S
C1239 C1233 1.429 . S
C1239 C1240 1.523 . S
C1240 C1221 1.368 . S
C1240 C1234 1.368 . S
C1240 C1239 1.523 . S
C1241 C1225 1.429 . S
C1241 C1237 1.429 . S
C1241 C1242 1.523 . S
C1242 C1226 1.368 . S
C1242 C1238 1.368 . S
C1242 C1241 1.523 . S
H1243 C1218 0.950 . S
H1244 C1220 0.950 . S
H1245 C1221 0.949 . S
H1246 C1223 0.950 . S
H1247 C1225 0.950 . S
C1248 C1249 1.349 . S
C1248 C1250 1.327 . S
C1248 H1273 0.950 . S
C1249 C1248 1.349 . S
C1249 C1265 1.349 . S
C1250 C1248 1.327 . S
C1250 C1269 1.429 . S
C1250 H1274 0.950 . S
C1251 C1268 1.574 . S
C1251 C1270 1.368 . S
C1251 H1275 0.949 . S
H1252 C1256 0.949 . S
C1253 C1254 1.349 . S
C1253 C1255 1.327 . S
C1253 H1276 0.950 . S
C1254 C1253 1.349 . S
C1254 C1266 1.349 . S
C1255 C1253 1.327 . S
C1255 C1271 1.429 . S
C1255 H1277 0.950 . S
C1256 H1252 0.949 . S
C1256 C1264 1.574 . S
C1256 C1272 1.368 . S
H1257 C1265 0.950 . S
H1258 C1263 0.950 . S
H1259 C1264 0.949 . S
H1260 C1266 0.950 . S
H1261 C1267 0.950 . S
H1262 C1268 0.949 . S
C1263 H1258 0.950 . S
C1263 C1265 1.327 . S
C1263 C1269 1.429 . S
C1264 C1256 1.574 . S
C1264 H1259 0.949 . S
C1264 C1270 1.368 . S
C1265 C1249 1.349 . S
C1265 H1257 0.950 . S
C1265 C1263 1.327 . S
C1266 C1254 1.349 . S
C1266 H1260 0.950 . S
C1266 C1267 1.327 . S
C1267 H1261 0.950 . S
C1267 C1266 1.327 . S
C1267 C1271 1.429 . S
C1268 C1251 1.574 . S
C1268 H1262 0.949 . S
C1268 C1272 1.368 . S
C1269 C1250 1.429 . S
C1269 C1263 1.429 . S
C1269 C1270 1.523 . S
C1270 C1251 1.368 . S
C1270 C1264 1.368 . S
C1270 C1269 1.523 . S
C1271 C1255 1.429 . S
C1271 C1267 1.429 . S
C1271 C1272 1.523 . S
C1272 C1256 1.368 . S
C1272 C1268 1.368 . S
C1272 C1271 1.523 . S
H1273 C1248 0.950 . S
H1274 C1250 0.950 . S
H1275 C1251 0.949 . S
H1276 C1253 0.950 . S
H1277 C1255 0.950 . S
C1278 C1279 1.349 . S
C1278 C1280 1.327 . S
C1278 H1303 0.950 . S
C1279 C1278 1.349 . S
C1279 C1295 1.349 . S
C1280 C1278 1.327 . S
C1280 C1299 1.429 . S
C1280 H1304 0.950 . S
C1281 C1298 1.574 . S
C1281 C1300 1.368 . S
C1281 H1305 0.949 . S
H1282 C1286 0.949 . S
C1283 C1284 1.349 . S
C1283 C1285 1.327 . S
C1283 H1306 0.950 . S
C1284 C1283 1.349 . S
C1284 C1296 1.349 . S
C1285 C1283 1.327 . S
C1285 C1301 1.429 . S
C1285 H1307 0.950 . S
C1286 H1282 0.949 . S
C1286 C1294 1.574 . S
C1286 C1302 1.368 . S
H1287 C1295 0.950 . S
H1288 C1293 0.950 . S
H1289 C1294 0.949 . S
H1290 C1296 0.950 . S
H1291 C1297 0.950 . S
H1292 C1298 0.949 . S
C1293 H1288 0.950 . S
C1293 C1295 1.327 . S
C1293 C1299 1.429 . S
C1294 C1286 1.574 . S
C1294 H1289 0.949 . S
C1294 C1300 1.368 . S
C1295 C1279 1.349 . S
C1295 H1287 0.950 . S
C1295 C1293 1.327 . S
C1296 C1284 1.349 . S
C1296 H1290 0.950 . S
C1296 C1297 1.327 . S
C1297 H1291 0.950 . S
C1297 C1296 1.327 . S
C1297 C1301 1.429 . S
C1298 C1281 1.574 . S
C1298 H1292 0.949 . S
C1298 C1302 1.368 . S
C1299 C1280 1.429 . S
C1299 C1293 1.429 . S
C1299 C1300 1.523 . S
C1300 C1281 1.368 . S
C1300 C1294 1.368 . S
C1300 C1299 1.523 . S
C1301 C1285 1.429 . S
C1301 C1297 1.429 . S
C1301 C1302 1.523 . S
C1302 C1286 1.368 . S
C1302 C1298 1.368 . S
C1302 C1301 1.523 . S
H1303 C1278 0.950 . S
H1304 C1280 0.950 . S
H1305 C1281 0.949 . S
H1306 C1283 0.950 . S
H1307 C1285 0.950 . S
C1308 C1309 1.375 . S
C1308 C1310 1.327 . S
C1308 H1333 0.950 . S
C1309 C1308 1.375 . S
C1309 C1325 1.334 1_554 S
C1310 C1308 1.327 . S
C1310 C1329 1.429 . S
C1310 H1334 0.950 . S
C1311 C1328 1.574 . S
C1311 C1330 1.368 . S
C1311 H1335 0.949 1_554 S
H1312 C1316 0.949 . S
C1313 C1314 1.349 . S
C1313 C1315 1.327 . S
C1313 H1336 0.950 . S
C1314 C1313 1.349 . S
C1314 C1326 1.349 . S
C1315 C1313 1.327 . S
C1315 C1331 1.429 . S
C1315 H1337 0.950 . S
C1316 H1312 0.949 . S
C1316 C1324 1.574 . S
C1316 C1332 1.368 . S
H1317 C1325 0.950 . S
H1318 C1323 0.950 . S
H1319 C1324 0.949 . S
H1320 C1326 0.950 . S
H1321 C1327 0.950 . S
H1322 C1328 0.949 . S
C1323 H1318 0.950 . S
C1323 C1325 1.327 . S
C1323 C1329 1.429 1_556 S
C1324 C1316 1.574 . S
C1324 H1319 0.949 . S
C1324 C1330 1.368 . S
C1325 C1309 1.334 1_556 S
C1325 H1317 0.950 . S
C1325 C1323 1.327 . S
C1326 C1314 1.349 . S
C1326 H1320 0.950 . S
C1326 C1327 1.327 . S
C1327 H1321 0.950 . S
C1327 C1326 1.327 . S
C1327 C1331 1.429 . S
C1328 C1311 1.574 . S
C1328 H1322 0.949 . S
C1328 C1332 1.368 . S
C1329 C1310 1.429 . S
C1329 C1323 1.429 1_554 S
C1329 C1330 1.523 . S
C1330 C1311 1.368 . S
C1330 C1324 1.368 . S
C1330 C1329 1.523 . S
C1331 C1315 1.429 . S
C1331 C1327 1.429 . S
C1331 C1332 1.523 . S
C1332 C1316 1.368 . S
C1332 C1328 1.368 . S
C1332 C1331 1.523 . S
H1333 C1308 0.950 . S
H1334 C1310 0.950 . S
H1335 C1311 0.949 1_556 S
H1336 C1313 0.950 . S
H1337 C1315 0.950 . S
C1338 C1339 1.349 . S
C1338 C1340 1.327 . S
C1338 H1363 0.950 . S
C1339 C1338 1.349 . S
C1339 C1355 1.349 . S
C1340 C1338 1.327 . S
C1340 C1359 1.429 . S
C1340 H1364 0.950 . S
C1341 C1358 1.574 . S
C1341 C1360 1.368 . S
C1341 H1365 0.949 . S
H1342 C1346 0.949 . S
C1343 C1344 1.349 . S
C1343 C1345 1.327 . S
C1343 H1366 0.950 . S
C1344 C1343 1.349 . S
C1344 C1356 1.349 . S
C1345 C1343 1.327 . S
C1345 C1361 1.429 . S
C1345 H1367 0.950 . S
C1346 H1342 0.949 . S
C1346 C1354 1.574 . S
C1346 C1362 1.368 . S
H1347 C1355 0.950 . S
H1348 C1353 0.950 . S
H1349 C1354 0.949 . S
H1350 C1356 0.950 . S
H1351 C1357 0.950 . S
H1352 C1358 0.949 . S
C1353 H1348 0.950 . S
C1353 C1355 1.327 . S
C1353 C1359 1.429 . S
C1354 C1346 1.574 . S
C1354 H1349 0.949 . S
C1354 C1360 1.368 . S
C1355 C1339 1.349 . S
C1355 H1347 0.950 . S
C1355 C1353 1.327 . S
C1356 C1344 1.349 . S
C1356 H1350 0.950 . S
C1356 C1357 1.327 . S
C1357 H1351 0.950 . S
C1357 C1356 1.327 . S
C1357 C1361 1.429 . S
C1358 C1341 1.574 . S
C1358 H1352 0.949 . S
C1358 C1362 1.368 . S
C1359 C1340 1.429 . S
C1359 C1353 1.429 . S
C1359 C1360 1.523 . S
C1360 C1341 1.368 . S
C1360 C1354 1.368 . S
C1360 C1359 1.523 . S
C1361 C1345 1.429 . S
C1361 C1357 1.429 . S
C1361 C1362 1.523 . S
C1362 C1346 1.368 . S
C1362 C1358 1.368 . S
C1362 C1361 1.523 . S
H1363 C1338 0.950 . S
H1364 C1340 0.950 . S
H1365 C1341 0.949 . S
H1366 C1343 0.950 . S
H1367 C1345 0.950 . S
C1368 C1369 1.349 . S
C1368 C1370 1.327 . S
C1368 H1393 0.950 . S
C1369 C1368 1.349 . S
C1369 C1385 1.349 . S
C1370 C1368 1.327 . S
C1370 C1389 1.429 . S
C1370 H1394 0.950 . S
C1371 C1388 1.574 . S
C1371 C1390 1.368 . S
C1371 H1395 0.949 . S
H1372 C1376 0.949 . S
C1373 C1374 1.349 . S
C1373 C1375 1.327 . S
C1373 H1396 0.950 . S
C1374 C1373 1.349 . S
C1374 C1386 1.349 . S
C1375 C1373 1.327 . S
C1375 C1391 1.429 . S
C1375 H1397 0.950 . S
C1376 H1372 0.949 . S
C1376 C1384 1.574 . S
C1376 C1392 1.368 . S
H1377 C1385 0.950 . S
H1378 C1383 0.950 . S
H1379 C1384 0.949 . S
H1380 C1386 0.950 . S
H1381 C1387 0.950 . S
H1382 C1388 0.949 . S
C1383 H1378 0.950 . S
C1383 C1385 1.327 . S
C1383 C1389 1.429 . S
C1384 C1376 1.574 . S
C1384 H1379 0.949 . S
C1384 C1390 1.368 . S
C1385 C1369 1.349 . S
C1385 H1377 0.950 . S
C1385 C1383 1.327 . S
C1386 C1374 1.349 . S
C1386 H1380 0.950 . S
C1386 C1387 1.327 . S
C1387 H1381 0.950 . S
C1387 C1386 1.327 . S
C1387 C1391 1.429 . S
C1388 C1371 1.574 . S
C1388 H1382 0.949 . S
C1388 C1392 1.368 . S
C1389 C1370 1.429 . S
C1389 C1383 1.429 . S
C1389 C1390 1.523 . S
C1390 C1371 1.368 . S
C1390 C1384 1.368 . S
C1390 C1389 1.523 . S
C1391 C1375 1.429 . S
C1391 C1387 1.429 . S
C1391 C1392 1.523 . S
C1392 C1376 1.368 . S
C1392 C1388 1.368 . S
C1392 C1391 1.523 . S
H1393 C1368 0.950 . S
H1394 C1370 0.950 . S
H1395 C1371 0.949 . S
H1396 C1373 0.950 . S
H1397 C1375 0.950 . S
C1398 C1399 1.349 . S
C1398 C1400 1.327 . S
C1398 H1423 0.950 . S
C1399 C1398 1.349 . S
C1399 C1415 1.349 . S
C1400 C1398 1.327 . S
C1400 C1419 1.429 . S
C1400 H1424 0.950 . S
C1401 C1418 1.574 . S
C1401 C1420 1.368 . S
C1401 H1425 0.949 . S
H1402 C1406 0.949 . S
C1403 C1404 1.349 . S
C1403 C1405 1.327 . S
C1403 H1426 0.950 . S
C1404 C1403 1.349 . S
C1404 C1416 1.349 . S
C1405 C1403 1.327 . S
C1405 C1421 1.429 . S
C1405 H1427 0.950 . S
C1406 H1402 0.949 . S
C1406 C1414 1.574 . S
C1406 C1422 1.368 . S
H1407 C1415 0.950 . S
H1408 C1413 0.950 . S
H1409 C1414 0.949 . S
H1410 C1416 0.950 . S
H1411 C1417 0.950 . S
H1412 C1418 0.949 . S
C1413 H1408 0.950 . S
C1413 C1415 1.327 . S
C1413 C1419 1.429 . S
C1414 C1406 1.574 . S
C1414 H1409 0.949 . S
C1414 C1420 1.368 . S
C1415 C1399 1.349 . S
C1415 H1407 0.950 . S
C1415 C1413 1.327 . S
C1416 C1404 1.349 . S
C1416 H1410 0.950 . S
C1416 C1417 1.327 . S
C1417 H1411 0.950 . S
C1417 C1416 1.327 . S
C1417 C1421 1.429 . S
C1418 C1401 1.574 . S
C1418 H1412 0.949 . S
C1418 C1422 1.368 . S
C1419 C1400 1.429 . S
C1419 C1413 1.429 . S
C1419 C1420 1.523 . S
C1420 C1401 1.368 . S
C1420 C1414 1.368 . S
C1420 C1419 1.523 . S
C1421 C1405 1.429 . S
C1421 C1417 1.429 . S
C1421 C1422 1.523 . S
C1422 C1406 1.368 . S
C1422 C1418 1.368 . S
C1422 C1421 1.523 . S
H1423 C1398 0.950 . S
H1424 C1400 0.950 . S
H1425 C1401 0.949 . S
H1426 C1403 0.950 . S
H1427 C1405 0.950 . S
C1428 C1429 1.349 . S
C1428 C1430 1.327 . S
C1428 H1453 0.950 . S
C1429 C1428 1.349 . S
C1429 C1445 1.349 . S
C1430 C1428 1.327 . S
C1430 C1449 1.429 . S
C1430 H1454 0.950 . S
C1431 C1448 1.574 . S
C1431 C1450 1.368 . S
C1431 H1455 0.949 . S
H1432 C1436 0.949 . S
C1433 C1434 1.349 . S
C1433 C1435 1.327 . S
C1433 H1456 0.950 . S
C1434 C1433 1.349 . S
C1434 C1446 1.349 . S
C1435 C1433 1.327 . S
C1435 C1451 1.429 . S
C1435 H1457 0.950 . S
C1436 H1432 0.949 . S
C1436 C1444 1.574 . S
C1436 C1452 1.368 . S
H1437 C1445 0.950 . S
H1438 C1443 0.950 . S
H1439 C1444 0.949 . S
H1440 C1446 0.950 . S
H1441 C1447 0.950 . S
H1442 C1448 0.949 . S
C1443 H1438 0.950 . S
C1443 C1445 1.327 . S
C1443 C1449 1.429 . S
C1444 C1436 1.574 . S
C1444 H1439 0.949 . S
C1444 C1450 1.368 . S
C1445 C1429 1.349 . S
C1445 H1437 0.950 . S
C1445 C1443 1.327 . S
C1446 C1434 1.349 . S
C1446 H1440 0.950 . S
C1446 C1447 1.327 . S
C1447 H1441 0.950 . S
C1447 C1446 1.327 . S
C1447 C1451 1.429 . S
C1448 C1431 1.574 . S
C1448 H1442 0.949 . S
C1448 C1452 1.368 . S
C1449 C1430 1.429 . S
C1449 C1443 1.429 . S
C1449 C1450 1.523 . S
C1450 C1431 1.368 . S
C1450 C1444 1.368 . S
C1450 C1449 1.523 . S
C1451 C1435 1.429 . S
C1451 C1447 1.429 . S
C1451 C1452 1.523 . S
C1452 C1436 1.368 . S
C1452 C1448 1.368 . S
C1452 C1451 1.523 . S
H1453 C1428 0.950 . S
H1454 C1430 0.950 . S
H1455 C1431 0.949 . S
H1456 C1433 0.950 . S
H1457 C1435 0.950 . S
C1458 C1459 1.349 . S
C1458 C1460 1.327 . S
C1458 H1483 0.950 . S
C1459 C1458 1.349 . S
C1459 C1475 1.349 . S
C1460 C1458 1.327 . S
C1460 C1479 1.429 . S
C1460 H1484 0.950 . S
C1461 C1478 1.574 . S
C1461 C1480 1.368 . S
C1461 H1485 0.949 . S
H1462 C1466 0.949 . S
C1463 C1464 1.349 . S
C1463 C1465 1.327 . S
C1463 H1486 0.950 . S
C1464 C1463 1.349 . S
C1464 C1476 1.349 . S
C1465 C1463 1.327 . S
C1465 C1481 1.429 . S
C1465 H1487 0.950 . S
C1466 H1462 0.949 . S
C1466 C1474 1.574 . S
C1466 C1482 1.368 . S
H1467 C1475 0.950 . S
H1468 C1473 0.950 . S
H1469 C1474 0.949 . S
H1470 C1476 0.950 . S
H1471 C1477 0.950 . S
H1472 C1478 0.949 . S
C1473 H1468 0.950 . S
C1473 C1475 1.327 . S
C1473 C1479 1.429 . S
C1474 C1466 1.574 . S
C1474 H1469 0.949 . S
C1474 C1480 1.368 . S
C1475 C1459 1.349 . S
C1475 H1467 0.950 . S
C1475 C1473 1.327 . S
C1476 C1464 1.349 . S
C1476 H1470 0.950 . S
C1476 C1477 1.327 . S
C1477 H1471 0.950 . S
C1477 C1476 1.327 . S
C1477 C1481 1.429 . S
C1478 C1461 1.574 . S
C1478 H1472 0.949 . S
C1478 C1482 1.368 . S
C1479 C1460 1.429 . S
C1479 C1473 1.429 . S
C1479 C1480 1.523 . S
C1480 C1461 1.368 . S
C1480 C1474 1.368 . S
C1480 C1479 1.523 . S
C1481 C1465 1.429 . S
C1481 C1477 1.429 . S
C1481 C1482 1.523 . S
C1482 C1466 1.368 . S
C1482 C1478 1.368 . S
C1482 C1481 1.523 . S
H1483 C1458 0.950 . S
H1484 C1460 0.950 . S
H1485 C1461 0.949 . S
H1486 C1463 0.950 . S
H1487 C1465 0.950 . S
C1488 C1489 1.349 . S
C1488 C1490 1.327 . S
C1488 H1513 0.950 . S
C1489 C1488 1.349 . S
C1489 C1505 1.349 . S
C1490 C1488 1.327 . S
C1490 C1509 1.429 . S
C1490 H1514 0.950 . S
C1491 C1508 1.574 . S
C1491 C1510 1.368 . S
C1491 H1515 0.949 . S
H1492 C1496 0.949 . S
C1493 C1494 1.349 . S
C1493 C1495 1.327 . S
C1493 H1516 0.950 . S
C1494 C1493 1.349 . S
C1494 C1506 1.349 . S
C1495 C1493 1.327 . S
C1495 C1511 1.429 . S
C1495 H1517 0.950 . S
C1496 H1492 0.949 . S
C1496 C1504 1.574 . S
C1496 C1512 1.368 . S
H1497 C1505 0.950 . S
H1498 C1503 0.950 . S
H1499 C1504 0.949 . S
H1500 C1506 0.950 . S
H1501 C1507 0.950 . S
H1502 C1508 0.949 . S
C1503 H1498 0.950 . S
C1503 C1505 1.327 . S
C1503 C1509 1.429 . S
C1504 C1496 1.574 . S
C1504 H1499 0.949 . S
C1504 C1510 1.368 . S
C1505 C1489 1.349 . S
C1505 H1497 0.950 . S
C1505 C1503 1.327 . S
C1506 C1494 1.349 . S
C1506 H1500 0.950 . S
C1506 C1507 1.327 . S
C1507 H1501 0.950 . S
C1507 C1506 1.327 . S
C1507 C1511 1.429 . S
C1508 C1491 1.574 . S
C1508 H1502 0.949 . S
C1508 C1512 1.368 . S
C1509 C1490 1.429 . S
C1509 C1503 1.429 . S
C1509 C1510 1.523 . S
C1510 C1491 1.368 . S
C1510 C1504 1.368 . S
C1510 C1509 1.523 . S
C1511 C1495 1.429 . S
C1511 C1507 1.429 . S
C1511 C1512 1.523 . S
C1512 C1496 1.368 . S
C1512 C1508 1.368 . S
C1512 C1511 1.523 . S
H1513 C1488 0.950 . S
H1514 C1490 0.950 . S
H1515 C1491 0.949 . S
H1516 C1493 0.950 . S
H1517 C1495 0.950 . S
C1518 C1519 1.349 . S
C1518 C1520 1.327 . S
C1518 H1543 0.950 . S
C1519 C1518 1.349 . S
C1519 C1535 1.349 . S
C1520 C1518 1.327 . S
C1520 C1539 1.429 . S
C1520 H1544 0.950 . S
C1521 C1538 1.580 . S
C1521 C1540 1.368 . S
C1521 H1545 0.949 1_556 S
H1522 C1526 0.949 . S
C1523 C1524 1.324 1_554 S
C1523 C1525 1.327 . S
C1523 H1546 0.950 . S
C1524 C1523 1.324 1_556 S
C1524 C1536 1.385 . S
C1525 C1523 1.327 . S
C1525 C1541 1.429 1_554 S
C1525 H1547 0.950 . S
C1526 H1522 0.949 . S
C1526 C1534 1.574 . S
C1526 C1542 1.368 . S
H1527 C1535 0.950 . S
H1528 C1533 0.950 . S
H1529 C1534 0.949 . S
H1530 C1536 0.950 . S
H1531 C1537 0.950 . S
H1532 C1538 0.928 1_554 S
C1533 H1528 0.950 . S
C1533 C1535 1.327 . S
C1533 C1539 1.429 . S
C1534 C1526 1.574 . S
C1534 H1529 0.949 . S
C1534 C1540 1.368 . S
C1535 C1519 1.349 . S
C1535 H1527 0.950 . S
C1535 C1533 1.327 . S
C1536 C1524 1.385 . S
C1536 H1530 0.950 . S
C1536 C1537 1.327 . S
C1537 H1531 0.950 . S
C1537 C1536 1.327 . S
C1537 C1541 1.429 . S
C1538 C1521 1.580 . S
C1538 H1532 0.928 1_556 S
C1538 C1542 1.387 . S
C1539 C1520 1.429 . S
C1539 C1533 1.429 . S
C1539 C1540 1.523 . S
C1540 C1521 1.368 . S
C1540 C1534 1.368 . S
C1540 C1539 1.523 . S
C1541 C1525 1.429 1_556 S
C1541 C1537 1.429 . S
C1541 C1542 1.523 . S
C1542 C1526 1.368 . S
C1542 C1538 1.387 . S
C1542 C1541 1.523 . S
H1543 C1518 0.950 . S
H1544 C1520 0.950 . S
H1545 C1521 0.949 1_554 S
H1546 C1523 0.950 . S
H1547 C1525 0.950 . S
C1548 C1549 1.349 . S
C1548 C1550 1.327 . S
C1548 H1573 0.950 . S
C1549 C1548 1.349 . S
C1549 C1565 1.349 . S
C1550 C1548 1.327 . S
C1550 C1569 1.429 . S
C1550 H1574 0.950 . S
C1551 C1568 1.574 . S
C1551 C1570 1.368 . S
C1551 H1575 0.949 . S
H1552 C1556 0.949 . S
C1553 C1554 1.349 . S
C1553 C1555 1.327 . S
C1553 H1576 0.950 . S
C1554 C1553 1.349 . S
C1554 C1566 1.349 . S
C1555 C1553 1.327 . S
C1555 C1571 1.429 . S
C1555 H1577 0.950 . S
C1556 H1552 0.949 . S
C1556 C1564 1.574 . S
C1556 C1572 1.368 . S
H1557 C1565 0.950 . S
H1558 C1563 0.950 . S
H1559 C1564 0.949 . S
H1560 C1566 0.950 . S
H1561 C1567 0.950 . S
H1562 C1568 0.949 . S
C1563 H1558 0.950 . S
C1563 C1565 1.327 . S
C1563 C1569 1.429 . S
C1564 C1556 1.574 . S
C1564 H1559 0.949 . S
C1564 C1570 1.368 . S
C1565 C1549 1.349 . S
C1565 H1557 0.950 . S
C1565 C1563 1.327 . S
C1566 C1554 1.349 . S
C1566 H1560 0.950 . S
C1566 C1567 1.327 . S
C1567 H1561 0.950 . S
C1567 C1566 1.327 . S
C1567 C1571 1.429 . S
C1568 C1551 1.574 . S
C1568 H1562 0.949 . S
C1568 C1572 1.368 . S
C1569 C1550 1.429 . S
C1569 C1563 1.429 . S
C1569 C1570 1.523 . S
C1570 C1551 1.368 . S
C1570 C1564 1.368 . S
C1570 C1569 1.523 . S
C1571 C1555 1.429 . S
C1571 C1567 1.429 . S
C1571 C1572 1.523 . S
C1572 C1556 1.368 . S
C1572 C1568 1.368 . S
C1572 C1571 1.523 . S
H1573 C1548 0.950 . S
H1574 C1550 0.950 . S
H1575 C1551 0.949 . S
H1576 C1553 0.950 . S
H1577 C1555 0.950 . S
C1578 C1579 1.349 . S
C1578 C1580 1.327 . S
C1578 H1603 0.950 . S
C1579 C1578 1.349 . S
C1579 C1595 1.349 . S
C1580 C1578 1.327 . S
C1580 C1599 1.429 . S
C1580 H1604 0.950 . S
C1581 C1598 1.574 . S
C1581 C1600 1.368 . S
C1581 H1605 0.949 . S
H1582 C1586 0.949 . S
C1583 C1584 1.349 . S
C1583 C1585 1.327 . S
C1583 H1606 0.950 . S
C1584 C1583 1.349 . S
C1584 C1596 1.349 . S
C1585 C1583 1.327 . S
C1585 C1601 1.429 . S
C1585 H1607 0.950 . S
C1586 H1582 0.949 . S
C1586 C1594 1.574 . S
C1586 C1602 1.368 . S
H1587 C1595 0.950 . S
H1588 C1593 0.950 . S
H1589 C1594 0.949 . S
H1590 C1596 0.950 . S
H1591 C1597 0.950 . S
H1592 C1598 0.949 . S
C1593 H1588 0.950 . S
C1593 C1595 1.327 . S
C1593 C1599 1.429 . S
C1594 C1586 1.574 . S
C1594 H1589 0.949 . S
C1594 C1600 1.368 . S
C1595 C1579 1.349 . S
C1595 H1587 0.950 . S
C1595 C1593 1.327 . S
C1596 C1584 1.349 . S
C1596 H1590 0.950 . S
C1596 C1597 1.327 . S
C1597 H1591 0.950 . S
C1597 C1596 1.327 . S
C1597 C1601 1.429 . S
C1598 C1581 1.574 . S
C1598 H1592 0.949 . S
C1598 C1602 1.368 . S
C1599 C1580 1.429 . S
C1599 C1593 1.429 . S
C1599 C1600 1.523 . S
C1600 C1581 1.368 . S
C1600 C1594 1.368 . S
C1600 C1599 1.523 . S
C1601 C1585 1.429 . S
C1601 C1597 1.429 . S
C1601 C1602 1.523 . S
C1602 C1586 1.368 . S
C1602 C1598 1.368 . S
C1602 C1601 1.523 . S
H1603 C1578 0.950 . S
H1604 C1580 0.950 . S
H1605 C1581 0.949 . S
H1606 C1583 0.950 . S
H1607 C1585 0.950 . S
C1608 C1609 1.349 . S
C1608 C1610 1.327 . S
C1608 H1633 0.950 . S
C1609 C1608 1.349 . S
C1609 C1625 1.349 . S
C1610 C1608 1.327 . S
C1610 C1629 1.429 . S
C1610 H1634 0.950 . S
C1611 C1628 1.574 . S
C1611 C1630 1.368 . S
C1611 H1635 0.949 . S
H1612 C1616 0.949 . S
C1613 C1614 1.349 . S
C1613 C1615 1.327 . S
C1613 H1636 0.950 . S
C1614 C1613 1.349 . S
C1614 C1626 1.349 . S
C1615 C1613 1.327 . S
C1615 C1631 1.429 . S
C1615 H1637 0.950 . S
C1616 H1612 0.949 . S
C1616 C1624 1.574 . S
C1616 C1632 1.368 . S
H1617 C1625 0.950 . S
H1618 C1623 0.950 . S
H1619 C1624 0.949 . S
H1620 C1626 0.950 . S
H1621 C1627 0.950 . S
H1622 C1628 0.949 . S
C1623 H1618 0.950 . S
C1623 C1625 1.327 . S
C1623 C1629 1.429 . S
C1624 C1616 1.574 . S
C1624 H1619 0.949 . S
C1624 C1630 1.368 . S
C1625 C1609 1.349 . S
C1625 H1617 0.950 . S
C1625 C1623 1.327 . S
C1626 C1614 1.349 . S
C1626 H1620 0.950 . S
C1626 C1627 1.327 . S
C1627 H1621 0.950 . S
C1627 C1626 1.327 . S
C1627 C1631 1.429 . S
C1628 C1611 1.574 . S
C1628 H1622 0.949 . S
C1628 C1632 1.368 . S
C1629 C1610 1.429 . S
C1629 C1623 1.429 . S
C1629 C1630 1.523 . S
C1630 C1611 1.368 . S
C1630 C1624 1.368 . S
C1630 C1629 1.523 . S
C1631 C1615 1.429 . S
C1631 C1627 1.429 . S
C1631 C1632 1.523 . S
C1632 C1616 1.368 . S
C1632 C1628 1.368 . S
C1632 C1631 1.523 . S
H1633 C1608 0.950 . S
H1634 C1610 0.950 . S
H1635 C1611 0.949 . S
H1636 C1613 0.950 . S
H1637 C1615 0.950 . S
C1638 C1639 1.349 . S
C1638 C1640 1.327 . S
C1638 H1663 0.950 . S
C1639 C1638 1.349 . S
C1639 C1655 1.349 . S
C1640 C1638 1.327 . S
C1640 C1659 1.429 . S
C1640 H1664 0.950 . S
C1641 C1658 1.574 . S
C1641 C1660 1.368 . S
C1641 H1665 0.949 . S
H1642 C1646 0.949 . S
C1643 C1644 1.349 . S
C1643 C1645 1.327 . S
C1643 H1666 0.950 . S
C1644 C1643 1.349 . S
C1644 C1656 1.349 . S
C1645 C1643 1.327 . S
C1645 C1661 1.429 . S
C1645 H1667 0.950 . S
C1646 H1642 0.949 . S
C1646 C1654 1.574 . S
C1646 C1662 1.368 . S
H1647 C1655 0.950 . S
H1648 C1653 0.950 . S
H1649 C1654 0.949 . S
H1650 C1656 0.950 . S
H1651 C1657 0.950 . S
H1652 C1658 0.949 . S
C1653 H1648 0.950 . S
C1653 C1655 1.327 . S
C1653 C1659 1.429 . S
C1654 C1646 1.574 . S
C1654 H1649 0.949 . S
C1654 C1660 1.368 . S
C1655 C1639 1.349 . S
C1655 H1647 0.950 . S
C1655 C1653 1.327 . S
C1656 C1644 1.349 . S
C1656 H1650 0.950 . S
C1656 C1657 1.327 . S
C1657 H1651 0.950 . S
C1657 C1656 1.327 . S
C1657 C1661 1.429 . S
C1658 C1641 1.574 . S
C1658 H1652 0.949 . S
C1658 C1662 1.368 . S
C1659 C1640 1.429 . S
C1659 C1653 1.429 . S
C1659 C1660 1.523 . S
C1660 C1641 1.368 . S
C1660 C1654 1.368 . S
C1660 C1659 1.523 . S
C1661 C1645 1.429 . S
C1661 C1657 1.429 . S
C1661 C1662 1.523 . S
C1662 C1646 1.368 . S
C1662 C1658 1.368 . S
C1662 C1661 1.523 . S
H1663 C1638 0.950 . S
H1664 C1640 0.950 . S
H1665 C1641 0.949 . S
H1666 C1643 0.950 . S
H1667 C1645 0.950 . S
C409 C28 1.828 . S
C414 C300 1.828 . S
C439 C40 1.828 . S
C444 C312 1.828 . S
C469 C368 1.828 . S
C474 C96 1.828 . S
C499 C108 1.828 . S
C504 C380 1.828 . S
C529 C164 1.829 . S
C534 C232 1.829 . S
C559 C176 1.828 . S
C564 C244 1.828 . S
C589 C171 1.152 . S
C594 C6 1.183 . S
C619 C62 1.183 . S
C624 C3 1.153 . S
C649 C74 1.183 . S
C654 C35 1.153 . S
C679 C71 1.153 . S
C684 C130 1.183 . S
C709 C103 1.153 . S
C714 C142 1.184 . S
C739 C139 1.153 . S
C744 C198 1.183 . S
C769 C210 1.183 . S
C774 C239 1.153 . S
C799 C275 1.153 . S
C804 C266 1.183 . S
C829 C307 1.152 . S
C834 C278 1.183 . S
C859 C343 1.152 . S
C864 C334 1.183 . S
C889 C375 1.153 . S
C894 C346 1.183 . S
C919 C402 1.184 . S
C924 C207 1.153 . S
C949 C17 1.392 . S
C954 C221 1.392 . S
C979 C51 1.392 . S
C984 C255 1.392 . S
C1009 C289 1.392 . S
C1014 C85 1.392 . S
C1039 C323 1.392 . S
C1044 C119 1.392 . S
C1069 C153 1.391 . S
C1074 C357 1.391 . S
C1099 C187 1.391 . S
C1104 C391 1.391 . S
C1129 C273 3.048 1_545 S
C1134 C1 3.048 . S
C1159 C309 3.048 . S
C1164 C37 3.048 1_455 S
C1189 C341 3.048 1_655 S
C1194 C69 3.048 1_545 S
C1219 C105 3.048 . S
C1224 C377 3.048 1_565 S
C1249 C205 3.048 . S
C1254 C137 3.048 1_655 S
C1279 C241 3.048 1_455 S
C1284 C173 3.048 1_565 S
C1309 C260 0.334 . S
C1314 C22 0.581 . S
C1339 C287 0.302 . S
C1344 C49 0.581 . S
C1369 C328 0.302 . S
C1374 C90 0.581 . S
C1399 C355 0.302 . S
C1404 C117 0.581 . S
C1429 C396 0.302 . S
C1434 C158 0.581 . S
C1459 C219 0.302 . S
C1464 C185 0.581 . S
C1489 C226 0.581 . S
C1494 C192 0.302 . S
C1519 C253 0.581 . S
C1524 C15 0.334 . S
C1549 C56 0.302 . S
C1554 C294 0.581 . S
C1579 C83 0.302 . S
C1584 C321 0.581 . S
C1609 C362 0.581 . S
C1614 C124 0.302 . S
C1639 C151 0.302 . S
C1644 C389 0.581 . S
