# Generated by pormake.
# Topology uou, (4)-cn, num edge types: 1
# Building blocks:
#     Node 0, Type 0, BuildingBlock: KUFVIS_clean_sbu_0, # of connection points: 4
#     Node 1, Type 0, BuildingBlock: KUFVIS_clean_sbu_0, # of connection points: 4
#     Node 2, Type 0, BuildingBlock: KUFVIS_clean_sbu_0, # of connection points: 4
#     Node 3, Type 0, BuildingBlock: KUFVIS_clean_sbu_0, # of connection points: 4
#     Node 4, Type 0, BuildingBlock: KUFVIS_clean_sbu_0, # of connection points: 4
#     Node 5, Type 0, BuildingBlock: KUFVIS_clean_sbu_0, # of connection points: 4
#     Node 6, Type 0, BuildingBlock: KUFVIS_clean_sbu_0, # of connection points: 4
#     Node 7, Type 0, BuildingBlock: KUFVIS_clean_sbu_0, # of connection points: 4
#     Node 8, Type 0, BuildingBlock: KUFVIS_clean_sbu_0, # of connection points: 4
#     Node 9, Type 0, BuildingBlock: KUFVIS_clean_sbu_0, # of connection points: 4
#     Node 10, Type 0, BuildingBlock: KUFVIS_clean_sbu_0, # of connection points: 4
#     Node 11, Type 0, BuildingBlock: KUFVIS_clean_sbu_0, # of connection points: 4
#     Node 12, Type 0, BuildingBlock: KUFVIS_clean_sbu_0, # of connection points: 4
#     Node 13, Type 0, BuildingBlock: KUFVIS_clean_sbu_0, # of connection points: 4
#     Node 14, Type 0, BuildingBlock: KUFVIS_clean_sbu_0, # of connection points: 4
#     Node 15, Type 0, BuildingBlock: KUFVIS_clean_sbu_0, # of connection points: 4
#     Edge 16, Type (0, 0), BuildingBlock: OJICUG_clean_linker_0, # of connection points: 2
#     Edge 17, Type (0, 0), BuildingBlock: OJICUG_clean_linker_0, # of connection points: 2
#     Edge 18, Type (0, 0), BuildingBlock: OJICUG_clean_linker_0, # of connection points: 2
#     Edge 19, Type (0, 0), BuildingBlock: OJICUG_clean_linker_0, # of connection points: 2
#     Edge 20, Type (0, 0), BuildingBlock: OJICUG_clean_linker_0, # of connection points: 2
#     Edge 21, Type (0, 0), BuildingBlock: OJICUG_clean_linker_0, # of connection points: 2
#     Edge 22, Type (0, 0), BuildingBlock: OJICUG_clean_linker_0, # of connection points: 2
#     Edge 23, Type (0, 0), BuildingBlock: OJICUG_clean_linker_0, # of connection points: 2
#     Edge 24, Type (0, 0), BuildingBlock: OJICUG_clean_linker_0, # of connection points: 2
#     Edge 25, Type (0, 0), BuildingBlock: OJICUG_clean_linker_0, # of connection points: 2
#     Edge 26, Type (0, 0), BuildingBlock: OJICUG_clean_linker_0, # of connection points: 2
#     Edge 27, Type (0, 0), BuildingBlock: OJICUG_clean_linker_0, # of connection points: 2
#     Edge 28, Type (0, 0), BuildingBlock: OJICUG_clean_linker_0, # of connection points: 2
#     Edge 29, Type (0, 0), BuildingBlock: OJICUG_clean_linker_0, # of connection points: 2
#     Edge 30, Type (0, 0), BuildingBlock: OJICUG_clean_linker_0, # of connection points: 2
#     Edge 31, Type (0, 0), BuildingBlock: OJICUG_clean_linker_0, # of connection points: 2
#     Edge 32, Type (0, 0), BuildingBlock: OJICUG_clean_linker_0, # of connection points: 2
#     Edge 33, Type (0, 0), BuildingBlock: OJICUG_clean_linker_0, # of connection points: 2
#     Edge 34, Type (0, 0), BuildingBlock: OJICUG_clean_linker_0, # of connection points: 2
#     Edge 35, Type (0, 0), BuildingBlock: OJICUG_clean_linker_0, # of connection points: 2
#     Edge 36, Type (0, 0), BuildingBlock: OJICUG_clean_linker_0, # of connection points: 2
#     Edge 37, Type (0, 0), BuildingBlock: OJICUG_clean_linker_0, # of connection points: 2
#     Edge 38, Type (0, 0), BuildingBlock: OJICUG_clean_linker_0, # of connection points: 2
#     Edge 39, Type (0, 0), BuildingBlock: OJICUG_clean_linker_0, # of connection points: 2
#     Edge 40, Type (0, 0), BuildingBlock: OJICUG_clean_linker_0, # of connection points: 2
#     Edge 41, Type (0, 0), BuildingBlock: OJICUG_clean_linker_0, # of connection points: 2
#     Edge 42, Type (0, 0), BuildingBlock: OJICUG_clean_linker_0, # of connection points: 2
#     Edge 43, Type (0, 0), BuildingBlock: OJICUG_clean_linker_0, # of connection points: 2
#     Edge 44, Type (0, 0), BuildingBlock: OJICUG_clean_linker_0, # of connection points: 2
#     Edge 45, Type (0, 0), BuildingBlock: OJICUG_clean_linker_0, # of connection points: 2
#     Edge 46, Type (0, 0), BuildingBlock: OJICUG_clean_linker_0, # of connection points: 2
#     Edge 47, Type (0, 0), BuildingBlock: OJICUG_clean_linker_0, # of connection points: 2
# Relax obj value: 0.047
# Max RMSD: 0.082
# Mean RMSD: 0.082
data_MOF--net-uou--node1-KUFVIS_clean_sbu_0--edge1-OJICUG_clean_linker_0
_symmetry_space_group_name_H-M    P1
_symmetry_Int_Tables_number       1
_symmetry_cell_setting            triclinic
loop_
_symmetry_equiv_pos_as_xyz
'x, y, z'
_cell_length_a     27.88753
_cell_length_b     29.6634
_cell_length_c     37.752585
_cell_angle_alpha  89.998254
_cell_angle_beta   89.999967
_cell_angle_gamma 89.996891
loop_
_atom_site_label
_atom_site_type_symbol
_atom_site_fract_x
_atom_site_fract_y
_atom_site_fract_z
_atom_type_partial_charge
Mn0 Mn 0.07115 0.10079 0.12378 0.0
Mn1 Mn 0.06113 0.99019 0.14394 0.0
C2 C 0.05256 0.07997 0.18095 0.0
C3 C 0.04082 0.17104 0.10587 0.0
C4 C 0.15578 0.03599 0.12748 0.0
O5 O 0.05907 0.07086 0.07635 0.0
O6 O 0.04533 0.99816 0.09248 0.0
C7 C 0.96648 0.94974 0.12822 0.0
N8 N 0.9989 0.96272 0.15325 0.0
C9 C 0.95856 0.90172 0.19488 0.0
C10 C 0.92826 0.89209 0.16665 0.0
C11 C 0.93182 0.91598 0.13461 0.0
C12 C 0.99913 0.94284 0.18533 0.0
H13 H 0.96767 0.96441 0.10208 0.0
C14 C 0.04627 0.03032 0.06941 0.0
O15 O 0.08572 0.1607 0.10228 0.0
O16 O 0.01289 0.1397 0.11817 0.0
N17 N 0.07583 0.98478 0.1936 0.0
C18 C 0.11646 0.99819 0.21055 0.0
C19 C 0.12172 0.99418 0.24733 0.0
C20 C 0.08705 0.97444 0.26919 0.0
C21 C 0.04546 0.95263 0.25435 0.0
C22 C 0.03993 0.96526 0.21112 0.0
H23 H 0.14501 0.01437 0.19616 0.0
O24 O 0.07429 0.11776 0.17429 0.0
O25 O 0.04269 0.05394 0.15378 0.0
O26 O 0.1406 0.07628 0.12531 0.0
O27 O 0.1279 1.00348 0.13353 0.0
C28 C 0.98241 0.88959 0.27158 0.0
C29 C 0.94891 0.87598 0.23484 0.0
H30 H 0.90058 0.8668 0.16964 0.0
H31 H 0.90724 0.90746 0.11345 0.0
H32 H 0.15385 1.00769 0.25945 0.0
H33 H 0.09597 0.97478 0.29703 0.0
H34 H 0.97533 0.87143 0.29625 0.0
H35 H 0.92102 0.85083 0.2372 0.0
Mn36 Mn 0.44349 0.92559 0.12391 0.0
Mn37 Mn 0.45327 0.03618 0.14419 0.0
C38 C 0.46187 0.94636 0.18113 0.0
C39 C 0.47389 0.85533 0.10605 0.0
C40 C 0.35873 0.99029 0.12757 0.0
O41 O 0.45569 0.9556 0.07651 0.0
O42 O 0.46909 0.02832 0.09275 0.0
C43 C 0.54791 0.07667 0.12853 0.0
N44 N 0.51546 0.06369 0.15354 0.0
C45 C 0.55566 0.12475 0.19518 0.0
C46 C 0.586 0.13439 0.16698 0.0
C47 C 0.58253 0.11046 0.13495 0.0
C48 C 0.51515 0.08358 0.18561 0.0
H49 H 0.54678 0.06199 0.10241 0.0
C50 C 0.4683 0.99622 0.06964 0.0
O51 O 0.42902 0.86568 0.10236 0.0
O52 O 0.50179 0.88668 0.11839 0.0
N53 N 0.4385 0.04153 0.19383 0.0
C54 C 0.39785 0.02809 0.21074 0.0
C55 C 0.3925 0.03213 0.24751 0.0
C56 C 0.42709 0.05197 0.26939 0.0
C57 C 0.46867 0.07383 0.25458 0.0
C58 C 0.47432 0.06114 0.21137 0.0
H59 H 0.36936 1.01185 0.19632 0.0
O60 O 0.4402 0.90857 0.17441 0.0
O61 O 0.47178 0.97244 0.154 0.0
O62 O 0.37399 0.95003 0.12533 0.0
O63 O 0.38654 0.02281 0.13374 0.0
C64 C 0.5316 0.13696 0.27184 0.0
C65 C 0.56517 0.15055 0.23513 0.0
H66 H 0.61365 0.15971 0.16999 0.0
H67 H 0.60715 0.11899 0.11381 0.0
H68 H 0.36037 0.01859 0.25961 0.0
H69 H 0.4181 0.05166 0.29722 0.0
H70 H 0.5386 0.15516 0.29651 0.0
H71 H 0.59302 0.17574 0.2375 0.0
Mn72 Mn 0.57071 0.92567 0.37571 0.0
Mn73 Mn 0.56086 0.03626 0.35544 0.0
C74 C 0.55226 0.94642 0.31849 0.0
C75 C 0.54034 0.85545 0.39364 0.0
C76 C 0.65542 0.99039 0.37201 0.0
O77 O 0.55857 0.9557 0.42311 0.0
O78 O 0.54498 0.02839 0.40687 0.0
C79 C 0.46619 0.07675 0.37105 0.0
N80 N 0.49866 0.06376 0.34606 0.0
C81 C 0.45846 0.12479 0.30438 0.0
C82 C 0.4281 0.13443 0.33258 0.0
C83 C 0.43157 0.11052 0.36462 0.0
C84 C 0.49899 0.08364 0.31398 0.0
H85 H 0.46731 0.06207 0.39718 0.0
C86 C 0.54584 0.99629 0.42998 0.0
O87 O 0.58522 0.86579 0.39728 0.0
O88 O 0.51243 0.88678 0.3813 0.0
N89 N 0.57565 0.0416 0.3058 0.0
C90 C 0.61631 0.02815 0.28889 0.0
C91 C 0.62166 0.03218 0.25212 0.0
C92 C 0.58707 0.05198 0.23022 0.0
C93 C 0.54548 0.07384 0.24502 0.0
C94 C 0.53983 0.06119 0.28824 0.0
H95 H 0.6448 1.01193 0.30332 0.0
O96 O 0.57393 0.90862 0.32521 0.0
O97 O 0.54237 0.97251 0.34562 0.0
O98 O 0.64019 0.95012 0.37419 0.0
O99 O 0.62759 0.02292 0.36591 0.0
C100 C 0.48252 0.13693 0.22772 0.0
C101 C 0.44893 0.15054 0.26442 0.0
H102 H 0.40044 0.15974 0.32955 0.0
H103 H 0.40693 0.11906 0.38574 0.0
H104 H 0.6538 0.01863 0.24004 0.0
H105 H 0.59606 0.05165 0.20239 0.0
H106 H 0.4755 0.1551 0.20304 0.0
H107 H 0.42107 0.17572 0.26203 0.0
Mn108 Mn 0.943 0.10095 0.37526 0.0
Mn109 Mn 0.95299 0.99035 0.35507 0.0
C110 C 0.96161 0.08014 0.31809 0.0
C111 C 0.97331 0.17123 0.39316 0.0
C112 C 0.85835 0.03616 0.37154 0.0
O113 O 0.95508 0.071 0.42269 0.0
O114 O 0.96872 0.99829 0.40654 0.0
C115 C 0.04759 0.94983 0.37085 0.0
N116 N 0.01522 0.96284 0.34579 0.0
C117 C 0.05548 0.90173 0.30422 0.0
C118 C 0.08574 0.89208 0.33247 0.0
C119 C 0.08219 0.91601 0.36449 0.0
C120 C 0.01498 0.94294 0.31372 0.0
H121 H 0.04639 0.96452 0.39697 0.0
C122 C 0.96779 0.03043 0.42962 0.0
O123 O 0.92843 0.16088 0.39676 0.0
O124 O 1.00126 0.13989 0.38086 0.0
N125 N 0.93834 0.98497 0.30541 0.0
C126 C 0.89773 0.99842 0.28844 0.0
C127 C 0.89249 0.99439 0.25165 0.0
C128 C 0.92713 0.97456 0.22982 0.0
C129 C 0.96868 0.95269 0.24469 0.0
C130 C 0.97422 0.96539 0.28791 0.0
H131 H 0.86921 0.01464 0.30282 0.0
O132 O 0.93987 0.11792 0.32474 0.0
O133 O 0.97146 0.05409 0.34526 0.0
O134 O 0.87354 0.07645 0.37376 0.0
O135 O 0.88623 1.00367 0.36544 0.0
C136 C 0.0316 0.88951 0.22753 0.0
C137 C 0.06508 0.87591 0.26429 0.0
H138 H 0.11337 0.86673 0.3295 0.0
H139 H 0.10675 0.90747 0.38566 0.0
H140 H 0.86039 1.00794 0.23952 0.0
H141 H 0.91822 0.97488 0.20198 0.0
H142 H 0.03865 0.87129 0.20288 0.0
H143 H 0.09291 0.85069 0.26196 0.0
Mn144 Mn 0.94263 0.92637 0.87541 0.0
Mn145 Mn 0.95279 0.03696 0.85523 0.0
C146 C 0.96114 0.94715 0.81822 0.0
C147 C 0.97282 0.85604 0.89327 0.0
C148 C 0.85809 0.9913 0.87179 0.0
O149 O 0.95487 0.95628 0.92283 0.0
O150 O 0.96868 0.02896 0.90667 0.0
C151 C 0.04752 0.0773 0.87084 0.0
N152 N 0.01504 0.06435 0.84584 0.0
C153 C 0.05537 0.12528 0.80415 0.0
C154 C 0.08574 0.13489 0.83235 0.0
C155 C 0.08221 0.11101 0.8644 0.0
C156 C 0.01476 0.08422 0.81376 0.0
H157 H 0.04636 0.06264 0.89697 0.0
C158 C 0.96775 0.99681 0.92974 0.0
O159 O 0.92797 0.86648 0.89693 0.0
O160 O 1.00082 0.88732 0.88095 0.0
N161 N 0.93799 0.04237 0.80559 0.0
C162 C 0.8973 0.02901 0.78869 0.0
C163 C 0.89197 0.033 0.75191 0.0
C164 C 0.92662 0.05269 0.73 0.0
C165 C 0.96828 0.07446 0.74479 0.0
C166 C 0.97388 0.06184 0.78802 0.0
H167 H 0.86876 1.01287 0.80312 0.0
O168 O 0.93935 0.9094 0.8249 0.0
O169 O 0.97111 0.97318 0.84538 0.0
O170 O 0.87323 0.95099 0.87395 0.0
O171 O 0.88601 0.02377 0.86571 0.0
C172 C 0.03137 0.13742 0.72748 0.0
C173 C 0.06497 0.15099 0.76417 0.0
H174 H 0.11345 0.16015 0.82931 0.0
H175 H 0.10685 0.11951 0.88552 0.0
H176 H 0.85979 0.01953 0.73983 0.0
H177 H 0.91764 0.05235 0.70218 0.0
H178 H 0.03842 0.15556 0.70279 0.0
H179 H 0.09288 0.17612 0.76178 0.0
Mn180 Mn 0.57033 0.10164 0.87557 0.0
Mn181 Mn 0.56064 0.99105 0.85528 0.0
C182 C 0.55176 0.08087 0.81836 0.0
C183 C 0.53984 0.1718 0.89356 0.0
C184 C 0.65516 0.03706 0.87175 0.0
O185 O 0.55837 0.07157 0.92298 0.0
O186 O 0.54494 0.99886 0.90673 0.0
C187 C 0.46611 0.95042 0.87107 0.0
N188 N 0.49847 0.96345 0.84601 0.0
C189 C 0.45833 0.90225 0.80446 0.0
C190 C 0.42808 0.89257 0.83271 0.0
C191 C 0.43156 0.91655 0.86472 0.0
C192 C 0.49875 0.94353 0.81395 0.0
H193 H 0.46726 0.96513 0.89718 0.0
C194 C 0.5458 0.03094 0.92986 0.0
O195 O 0.58476 0.16155 0.89713 0.0
O196 O 0.51197 0.14043 0.88124 0.0
N197 N 0.57528 0.98573 0.80561 0.0
C198 C 0.61586 0.99926 0.78864 0.0
C199 C 0.62112 0.99519 0.75186 0.0
C200 C 0.58654 0.97525 0.73004 0.0
C201 C 0.54506 0.9533 0.74492 0.0
C202 C 0.53947 0.96603 0.78813 0.0
H203 H 0.64433 0.01557 0.80301 0.0
O204 O 0.57338 0.1187 0.82505 0.0
O205 O 0.542 0.05476 0.84551 0.0
O206 O 0.63987 0.07731 0.87399 0.0
O207 O 0.62737 1.00451 0.86563 0.0
C208 C 0.48226 0.89 0.72779 0.0
C209 C 0.4488 0.87638 0.76454 0.0
H210 H 0.40049 0.86719 0.82975 0.0
H211 H 0.40701 0.90798 0.88589 0.0
H212 H 0.65319 1.00881 0.73972 0.0
H213 H 0.59546 0.97555 0.7022 0.0
H214 H 0.47525 0.87176 0.70314 0.0
H215 H 0.42101 0.85112 0.76222 0.0
Mn216 Mn 0.44266 0.10119 0.62388 0.0
Mn217 Mn 0.4526 0.99061 0.64415 0.0
C218 C 0.46107 0.08043 0.68111 0.0
C219 C 0.47302 0.17147 0.60606 0.0
C220 C 0.35799 0.0364 0.62757 0.0
O221 O 0.45493 0.07122 0.57648 0.0
O222 O 0.46839 0.99851 0.59271 0.0
C223 C 0.54731 0.95025 0.62846 0.0
N224 N 0.51485 0.96319 0.65348 0.0
C225 C 0.5553 0.9023 0.69514 0.0
C226 C 0.58563 0.89269 0.66693 0.0
C227 C 0.58203 0.91656 0.63487 0.0
C228 C 0.51464 0.94334 0.68556 0.0
H229 H 0.54611 0.9649 0.60232 0.0
C230 C 0.46759 0.03062 0.5696 0.0
O231 O 0.42816 0.1611 0.60234 0.0
O232 O 0.50093 0.14012 0.6184 0.0
N233 N 0.43789 0.98523 0.69381 0.0
C234 C 0.39723 0.99861 0.71074 0.0
C235 C 0.39196 0.99461 0.74752 0.0
C236 C 0.42665 0.9749 0.7694 0.0
C237 C 0.46827 0.95312 0.75457 0.0
C238 C 0.47379 0.96573 0.71133 0.0
H239 H 0.36868 0.01477 0.69634 0.0
O240 O 0.43933 0.1182 0.67439 0.0
O241 O 0.47102 0.05437 0.65397 0.0
O242 O 0.3732 0.07667 0.62528 0.0
O243 O 0.38584 1.0039 0.63375 0.0
C244 C 0.53144 0.8902 0.77184 0.0
C245 C 0.56498 0.87662 0.73512 0.0
H246 H 0.61336 0.86745 0.66994 0.0
H247 H 0.60664 0.90806 0.61373 0.0
H248 H 0.35981 1.00809 0.75963 0.0
H249 H 0.41771 0.97524 0.79723 0.0
H250 H 0.53855 0.87208 0.79653 0.0
H251 H 0.59291 0.85151 0.7375 0.0
Mn252 Mn 0.07034 0.92599 0.6238 0.0
Mn253 Mn 0.06047 0.0366 0.64397 0.0
C254 C 0.05177 0.94682 0.68098 0.0
C255 C 0.03996 0.85576 0.60587 0.0
C256 C 0.15505 0.99068 0.62748 0.0
O257 O 0.05831 0.95596 0.57637 0.0
O258 O 0.04463 0.02866 0.59253 0.0
C259 C 0.96589 0.07721 0.6283 0.0
N260 N 0.99831 0.06418 0.65332 0.0
C261 C 0.95822 0.12535 0.69492 0.0
C262 C 0.9279 0.13503 0.66671 0.0
C263 C 0.93134 0.11107 0.63469 0.0
C264 C 0.99864 0.08409 0.68538 0.0
H265 H 0.96701 0.06251 0.60218 0.0
C266 C 0.04556 0.99652 0.56945 0.0
O267 O 0.08485 0.86607 0.60229 0.0
O268 O 0.01204 0.88712 0.61817 0.0
N269 N 0.07524 0.04198 0.69362 0.0
C270 C 0.11586 0.02849 0.71054 0.0
C271 C 0.1212 0.03252 0.74732 0.0
C272 C 0.08662 0.0524 0.76919 0.0
C273 C 0.04508 0.07431 0.75437 0.0
C274 C 0.03942 0.06161 0.71115 0.0
H275 H 0.14434 1.01222 0.69614 0.0
O276 O 0.07343 0.909 0.67432 0.0
O277 O 0.04195 0.97288 0.65381 0.0
O278 O 0.13983 0.9504 0.62535 0.0
O279 O 0.12721 0.02322 0.63352 0.0
C280 C 0.98228 0.13757 0.77158 0.0
C281 C 0.94874 0.1512 0.73486 0.0
H282 H 0.90031 0.1604 0.6697 0.0
H283 H 0.90675 0.11963 0.61355 0.0
H284 H 0.1533 0.01894 0.75942 0.0
H285 H 0.0956 0.05208 0.79702 0.0
H286 H 0.9753 0.1558 0.79624 0.0
H287 H 0.92094 0.17645 0.73722 0.0
Mn288 Mn 0.57106 0.60075 0.12421 0.0
Mn289 Mn 0.5611 0.49014 0.1444 0.0
C290 C 0.5526 0.57994 0.18141 0.0
C291 C 0.54077 0.67104 0.10633 0.0
C292 C 0.6557 0.53593 0.1278 0.0
O293 O 0.55882 0.5708 0.0768 0.0
O294 O 0.54516 0.4981 0.09297 0.0
C295 C 0.46646 0.4496 0.12881 0.0
N296 N 0.49891 0.46263 0.1538 0.0
C297 C 0.45875 0.40158 0.19548 0.0
C298 C 0.42841 0.3919 0.16729 0.0
C299 C 0.43187 0.4158 0.13524 0.0
C300 C 0.49925 0.44274 0.18588 0.0
H301 H 0.46757 0.46427 0.10268 0.0
C302 C 0.54599 0.53026 0.0699 0.0
O303 O 0.58564 0.66065 0.10268 0.0
O304 O 0.51282 0.63973 0.11868 0.0
N305 N 0.57591 0.48477 0.19405 0.0
C306 C 0.61656 0.49823 0.21096 0.0
C307 C 0.62189 0.49426 0.24774 0.0
C308 C 0.58727 0.4745 0.26964 0.0
C309 C 0.54568 0.45263 0.25486 0.0
C310 C 0.54007 0.46523 0.21162 0.0
H311 H 0.64506 0.51442 0.19653 0.0
O312 O 0.57434 0.61771 0.17472 0.0
O313 O 0.54266 0.5539 0.15425 0.0
O314 O 0.64051 0.57622 0.12564 0.0
O315 O 0.62784 0.50343 0.13391 0.0
C316 C 0.48275 0.38953 0.27217 0.0
C317 C 0.44921 0.37586 0.23546 0.0
H318 H 0.40077 0.36658 0.17032 0.0
H319 H 0.40725 0.40724 0.11412 0.0
H320 H 0.65402 0.50781 0.25982 0.0
H321 H 0.59624 0.47487 0.29748 0.0
H322 H 0.47573 0.37138 0.29685 0.0
H323 H 0.42136 0.35067 0.23786 0.0
Mn324 Mn 0.94335 0.42544 0.12374 0.0
Mn325 Mn 0.95326 0.53602 0.14399 0.0
C326 C 0.96194 0.4462 0.18093 0.0
C327 C 0.97373 0.35523 0.10578 0.0
C328 C 0.85864 0.49016 0.12757 0.0
O329 O 0.95534 0.45546 0.07631 0.0
O330 O 0.96891 0.52815 0.09253 0.0
C331 C 0.04793 0.57638 0.12819 0.0
N332 N 0.01552 0.56346 0.15324 0.0
C333 C 0.05589 0.62452 0.19479 0.0
C334 C 0.08618 0.63409 0.16654 0.0
C335 C 0.08261 0.61012 0.13453 0.0
C336 C 0.01532 0.58337 0.18531 0.0
H337 H 0.04672 0.56166 0.10207 0.0
C338 C 0.96797 0.49606 0.06941 0.0
O339 O 0.92883 0.36554 0.1022 0.0
O340 O 1.00165 0.38658 0.11808 0.0
N341 N 0.93864 0.5414 0.19365 0.0
C342 C 0.89801 0.52801 0.21062 0.0
C343 C 0.89274 0.53212 0.24739 0.0
C344 C 0.92738 0.55198 0.26921 0.0
C345 C 0.96895 0.57379 0.25433 0.0
C346 C 0.97451 0.56101 0.21113 0.0
H347 H 0.86948 0.51177 0.19625 0.0
O348 O 0.94027 0.4084 0.17425 0.0
O349 O 0.97176 0.47228 0.15378 0.0
O350 O 0.87386 0.44989 0.12532 0.0
O351 O 0.88649 0.52268 0.13365 0.0
C352 C 0.03196 0.6369 0.27145 0.0
C353 C 0.06549 0.65039 0.2347 0.0
H354 H 0.11387 0.65938 0.1695 0.0
H355 H 0.1072 0.6186 0.11337 0.0
H356 H 0.86063 0.51861 0.25953 0.0
H357 H 0.91844 0.55173 0.29705 0.0
H358 H 0.03902 0.65514 0.2961 0.0
H359 H 0.09337 0.67556 0.23702 0.0
Mn360 Mn 0.07088 0.42567 0.37547 0.0
Mn361 Mn 0.06118 0.53626 0.35515 0.0
C362 C 0.05255 0.44642 0.31822 0.0
C363 C 0.0404 0.35544 0.39333 0.0
C364 C 0.15567 0.49033 0.37182 0.0
O365 O 0.0586 0.45571 0.42285 0.0
O366 O 0.04528 0.52843 0.40658 0.0
C367 C 0.96658 0.57688 0.37077 0.0
N368 N 0.99902 0.56383 0.34577 0.0
C369 C 0.95886 0.62486 0.30407 0.0
C370 C 0.92853 0.63457 0.33227 0.0
C371 C 0.932 0.6107 0.36433 0.0
C372 C 0.99935 0.58369 0.31369 0.0
H373 H 0.96769 0.56223 0.39691 0.0
C374 C 0.04597 0.49633 0.4297 0.0
O375 O 0.08528 0.36576 0.39705 0.0
O376 O 0.01255 0.38681 0.38095 0.0
N377 N 0.07596 0.54156 0.3055 0.0
C378 C 0.11659 0.52804 0.28859 0.0
C379 C 0.1219 0.53201 0.2518 0.0
C380 C 0.0873 0.5518 0.2299 0.0
C381 C 0.04574 0.57372 0.2447 0.0
C382 C 0.04014 0.56116 0.28795 0.0
H383 H 0.14507 0.51182 0.30301 0.0
O384 O 0.07423 0.40864 0.32497 0.0
O385 O 0.04262 0.47253 0.34535 0.0
O386 O 0.1404 0.45008 0.3741 0.0
O387 O 0.12788 0.52285 0.36561 0.0
C388 C 0.98281 0.63682 0.22738 0.0
C389 C 0.9493 0.65054 0.26409 0.0
H390 H 0.9009 0.6599 0.32924 0.0
H391 H 0.90739 0.61928 0.38546 0.0
H392 H 0.15401 0.51841 0.23971 0.0
H393 H 0.09625 0.55141 0.20207 0.0
H394 H 0.97578 0.65495 0.20268 0.0
H395 H 0.92145 0.67574 0.26169 0.0
Mn396 Mn 0.44322 0.6009 0.37578 0.0
Mn397 Mn 0.45329 0.49029 0.35564 0.0
C398 C 0.46186 0.58008 0.31862 0.0
C399 C 0.47346 0.67118 0.39369 0.0
C400 C 0.35861 0.53606 0.37206 0.0
O401 O 0.45524 0.57096 0.42323 0.0
O402 O 0.46905 0.49827 0.40709 0.0
C403 C 0.54796 0.44989 0.37137 0.0
N404 N 0.51554 0.46285 0.34633 0.0
C405 C 0.55585 0.40179 0.30474 0.0
C406 C 0.58616 0.39218 0.33297 0.0
C407 C 0.58262 0.41613 0.36499 0.0
C408 C 0.51531 0.44295 0.31426 0.0
H409 H 0.54677 0.46458 0.39749 0.0
C410 C 0.46802 0.53041 0.43017 0.0
O411 O 0.42858 0.66081 0.39727 0.0
O412 O 0.50144 0.63985 0.38142 0.0
N413 N 0.4386 0.48488 0.30599 0.0
C414 C 0.39795 0.49827 0.28904 0.0
C415 C 0.39266 0.49421 0.25227 0.0
C416 C 0.42729 0.47441 0.23041 0.0
C417 C 0.46889 0.4526 0.24526 0.0
C418 C 0.47449 0.46533 0.28847 0.0
H419 H 0.36942 0.51448 0.30343 0.0
O420 O 0.44012 0.61786 0.32526 0.0
O421 O 0.47171 0.55405 0.3458 0.0
O422 O 0.37377 0.57636 0.37421 0.0
O423 O 0.38651 0.50356 0.36604 0.0
C424 C 0.53187 0.38948 0.22807 0.0
C425 C 0.56542 0.37594 0.26481 0.0
H426 H 0.61383 0.36688 0.32999 0.0
H427 H 0.60721 0.40762 0.38615 0.0
H428 H 0.36052 0.50772 0.24015 0.0
H429 H 0.41834 0.4747 0.20258 0.0
H430 H 0.5389 0.37126 0.20342 0.0
H431 H 0.59329 0.35076 0.26247 0.0
Mn432 Mn 0.44207 0.42617 0.87604 0.0
Mn433 Mn 0.45187 0.53679 0.85591 0.0
C434 C 0.46058 0.44702 0.81887 0.0
C435 C 0.47251 0.35594 0.89389 0.0
C436 C 0.35733 0.49084 0.8724 0.0
O437 O 0.45414 0.45611 0.92348 0.0
O438 O 0.46779 0.52883 0.90734 0.0
C439 C 0.54643 0.57746 0.87154 0.0
N440 N 0.51402 0.56439 0.84654 0.0
C441 C 0.55419 0.62541 0.80484 0.0
C442 C 0.58449 0.63514 0.83305 0.0
C443 C 0.58101 0.61128 0.86511 0.0
C444 C 0.5137 0.58425 0.81445 0.0
H445 H 0.5453 0.56282 0.89769 0.0
C446 C 0.46693 0.49667 0.93041 0.0
O447 O 0.42761 0.36621 0.89752 0.0
O448 O 0.5004 0.38733 0.88161 0.0
N449 N 0.43707 0.54217 0.80626 0.0
C450 C 0.39645 0.52867 0.78934 0.0
C451 C 0.39115 0.53262 0.75255 0.0
C452 C 0.42577 0.55237 0.73065 0.0
C453 C 0.46734 0.57427 0.74545 0.0
C454 C 0.47292 0.56172 0.7887 0.0
H455 H 0.36794 0.51247 0.80376 0.0
O456 O 0.43892 0.40921 0.82553 0.0
O457 O 0.47043 0.47308 0.84603 0.0
O458 O 0.37257 0.45056 0.87449 0.0
O459 O 0.38514 0.5234 0.86638 0.0
C460 C 0.53027 0.63737 0.72814 0.0
C461 C 0.56377 0.6511 0.76485 0.0
H462 H 0.61212 0.66048 0.83002 0.0
H463 H 0.60559 0.61988 0.88625 0.0
H464 H 0.35903 0.51905 0.74046 0.0
H465 H 0.41683 0.55198 0.70282 0.0
H466 H 0.53731 0.6555 0.70344 0.0
H467 H 0.59161 0.67629 0.76246 0.0
Mn468 Mn 0.06974 0.60142 0.87522 0.0
Mn469 Mn 0.05979 0.49086 0.85487 0.0
C470 C 0.05124 0.58072 0.81799 0.0
C471 C 0.03946 0.67168 0.89317 0.0
C472 C 0.1544 0.53661 0.87147 0.0
O473 O 0.05756 0.57137 0.9226 0.0
O474 O 0.04406 0.49868 0.90633 0.0
C475 C 0.96513 0.45042 0.87058 0.0
N476 N 0.99756 0.46341 0.84555 0.0
C477 C 0.95734 0.40231 0.80395 0.0
C478 C 0.92703 0.39268 0.83217 0.0
C479 C 0.93052 0.41662 0.8642 0.0
C480 C 0.99783 0.44351 0.81348 0.0
H481 H 0.96629 0.46512 0.8967 0.0
C482 C 0.04493 0.53075 0.92947 0.0
O483 O 0.08432 0.66128 0.89681 0.0
O484 O 0.0115 0.64039 0.8808 0.0
N485 N 0.07447 0.48555 0.80521 0.0
C486 C 0.1151 0.49901 0.78828 0.0
C487 C 0.12041 0.49497 0.7515 0.0
C488 C 0.08581 0.4751 0.72965 0.0
C489 C 0.04426 0.45322 0.74449 0.0
C490 C 0.03863 0.46594 0.7877 0.0
H491 H 0.14359 0.51526 0.80268 0.0
O492 O 0.07298 0.61848 0.82472 0.0
O493 O 0.04134 0.55463 0.84512 0.0
O494 O 0.13921 0.57689 0.87378 0.0
O495 O 0.12654 0.50415 0.86526 0.0
C496 C 0.98136 0.39004 0.72729 0.0
C497 C 0.94781 0.37647 0.76402 0.0
H498 H 0.89939 0.36734 0.82919 0.0
H499 H 0.90593 0.40809 0.88534 0.0
H500 H 0.15251 0.50853 0.73939 0.0
H501 H 0.09477 0.4754 0.70181 0.0
H502 H 0.97435 0.37182 0.70263 0.0
H503 H 0.91998 0.35126 0.76167 0.0
Mn504 Mn 0.94234 0.60136 0.62344 0.0
Mn505 Mn 0.95206 0.49076 0.64366 0.0
C506 C 0.96075 0.58056 0.68066 0.0
C507 C 0.9728 0.67158 0.60556 0.0
C508 C 0.85755 0.53674 0.62712 0.0
O509 O 0.95447 0.57135 0.57601 0.0
O510 O 0.96797 0.49866 0.59225 0.0
C511 C 0.04672 0.45024 0.62804 0.0
N512 N 0.01424 0.46322 0.65303 0.0
C513 C 0.05447 0.40222 0.69471 0.0
C514 C 0.08484 0.39258 0.66652 0.0
C515 C 0.08135 0.41648 0.63448 0.0
C516 C 0.01392 0.44334 0.68511 0.0
H517 H 0.0456 0.46491 0.60191 0.0
C518 C 0.96718 0.53076 0.56914 0.0
O519 O 0.9279 0.66129 0.6019 0.0
O520 O 1.00067 0.6402 0.61788 0.0
N521 N 0.93725 0.48538 0.6933 0.0
C522 C 0.8966 0.49884 0.7102 0.0
C523 C 0.89125 0.49481 0.74698 0.0
C524 C 0.92585 0.47503 0.76888 0.0
C525 C 0.96746 0.45318 0.75408 0.0
C526 C 0.97307 0.46579 0.71085 0.0
H527 H 0.8681 0.51505 0.69578 0.0
O528 O 0.93913 0.61839 0.67394 0.0
O529 O 0.97062 0.55448 0.65351 0.0
O530 O 0.87282 0.57699 0.62497 0.0
O531 O 0.88534 0.50416 0.63318 0.0
C532 C 0.03047 0.39014 0.77139 0.0
C533 C 0.06404 0.37651 0.73469 0.0
H534 H 0.11252 0.36729 0.66956 0.0
H535 H 0.106 0.40795 0.61336 0.0
H536 H 0.85911 0.50835 0.75906 0.0
H537 H 0.91687 0.47536 0.7967 0.0
H538 H 0.03751 0.37199 0.79608 0.0
H539 H 0.09192 0.35135 0.73709 0.0
Mn540 Mn 0.57008 0.42602 0.62452 0.0
Mn541 Mn 0.5599 0.53661 0.64474 0.0
C542 C 0.55144 0.4468 0.6817 0.0
C543 C 0.53987 0.35574 0.60657 0.0
C544 C 0.65463 0.49094 0.62827 0.0
O545 O 0.55798 0.45597 0.5771 0.0
O546 O 0.54423 0.52866 0.59326 0.0
C547 C 0.4652 0.5769 0.62894 0.0
N548 N 0.4976 0.56398 0.654 0.0
C549 C 0.45721 0.62506 0.69553 0.0
C550 C 0.42693 0.63462 0.66728 0.0
C551 C 0.43051 0.61065 0.63527 0.0
C552 C 0.49778 0.5839 0.68606 0.0
H553 H 0.46643 0.56218 0.60282 0.0
C554 C 0.54524 0.49653 0.57017 0.0
O555 O 0.58475 0.36614 0.60299 0.0
O556 O 0.51188 0.38703 0.6189 0.0
N557 N 0.5745 0.54201 0.69441 0.0
C558 C 0.61514 0.52865 0.71138 0.0
C559 C 0.62038 0.53274 0.74816 0.0
C560 C 0.58571 0.55255 0.76998 0.0
C561 C 0.54413 0.57434 0.7551 0.0
C562 C 0.53858 0.56156 0.71189 0.0
H563 H 0.64369 0.51245 0.69702 0.0
O564 O 0.57324 0.40905 0.67504 0.0
O565 O 0.54156 0.47283 0.65453 0.0
O566 O 0.6395 0.45064 0.62601 0.0
O567 O 0.6267 0.52339 0.6344 0.0
C568 C 0.48111 0.63746 0.7722 0.0
C569 C 0.44758 0.65094 0.73544 0.0
H570 H 0.39924 0.65992 0.67022 0.0
H571 H 0.40594 0.61912 0.6141 0.0
H572 H 0.6525 0.51925 0.76031 0.0
H573 H 0.59463 0.55229 0.79782 0.0
H574 H 0.47403 0.6557 0.79684 0.0
H575 H 0.41971 0.67612 0.73775 0.0
C576 C 0.29172 0.04696 0.12432 0.0
C577 C 0.30669 1.00137 0.12495 0.0
H578 H 0.23302 0.09381 0.12444 0.0
C579 C 0.27151 0.96769 0.12455 0.0
H580 H 0.31773 0.07407 0.12437 0.0
C581 C 0.2228 0.97926 0.1246 0.0
C582 C 0.20783 0.02486 0.12494 0.0
H583 H 0.28151 0.93241 0.12498 0.0
H584 H 0.19679 0.95215 0.12488 0.0
C585 C 0.24301 0.05853 0.12426 0.0
C586 C 0.72242 0.04705 0.37544 0.0
C587 C 0.70748 1.00147 0.37452 0.0
H588 H 0.7811 0.09393 0.37539 0.0
C589 C 0.74267 0.9678 0.37445 0.0
H590 H 0.69639 0.07415 0.37576 0.0
C591 C 0.79137 0.97939 0.37422 0.0
C592 C 0.80632 0.025 0.37417 0.0
H593 H 0.73269 0.93252 0.37378 0.0
H594 H 0.81738 0.95229 0.37358 0.0
C595 C 0.77113 0.05865 0.37532 0.0
C596 C 0.79111 0.04807 0.87467 0.0
C597 C 0.80606 1.00247 0.87435 0.0
H598 H 0.73241 0.09494 0.87428 0.0
C599 C 0.77087 0.96881 0.87504 0.0
H600 H 0.81714 0.07517 0.87437 0.0
C601 C 0.72217 0.98039 0.87498 0.0
C602 C 0.70721 0.02599 0.87433 0.0
H603 H 0.78085 0.93352 0.87487 0.0
H604 H 0.69616 0.95329 0.87495 0.0
C605 C 0.7424 0.05966 0.87472 0.0
C606 C 0.24229 0.9681 0.62454 0.0
C607 C 0.2071 1.00177 0.62491 0.0
H608 H 0.31701 0.95256 0.62493 0.0
C609 C 0.22206 0.04737 0.62427 0.0
H610 H 0.2323 0.93282 0.62496 0.0
C611 C 0.27076 0.05894 0.62425 0.0
C612 C 0.30595 0.02527 0.62497 0.0
H613 H 0.19604 0.07447 0.6243 0.0
H614 H 0.28075 0.09423 0.62443 0.0
C615 C 0.29099 0.97967 0.62463 0.0
C616 C 0.79163 0.54688 0.12463 0.0
C617 C 0.80659 0.50128 0.12505 0.0
H618 H 0.73295 0.59375 0.12499 0.0
C619 C 0.77139 0.46761 0.12451 0.0
H620 H 0.81765 0.57398 0.12481 0.0
C621 C 0.72268 0.4792 0.12462 0.0
C622 C 0.70774 0.5248 0.12517 0.0
H623 H 0.78138 0.43233 0.12476 0.0
H624 H 0.69666 0.4521 0.12478 0.0
C625 C 0.74293 0.55847 0.12464 0.0
C626 C 0.27137 0.55859 0.37517 0.0
C627 C 0.30657 0.52492 0.37458 0.0
H628 H 0.19666 0.57411 0.37494 0.0
C629 C 0.29162 0.47932 0.37497 0.0
H630 H 0.28136 0.59387 0.37495 0.0
C631 C 0.24291 0.46774 0.37498 0.0
C632 C 0.20772 0.50141 0.37448 0.0
H633 H 0.31764 0.45221 0.37476 0.0
H634 H 0.23292 0.43245 0.3746 0.0
C635 C 0.22267 0.547 0.37506 0.0
C636 C 0.2416 0.55905 0.87587 0.0
C637 C 0.20642 0.52542 0.87419 0.0
H638 H 0.31633 0.57453 0.87688 0.0
C639 C 0.22138 0.47981 0.87386 0.0
H640 H 0.23161 0.59433 0.87626 0.0
C641 C 0.27008 0.46822 0.87425 0.0
C642 C 0.30526 0.50188 0.87484 0.0
H643 H 0.19539 0.45272 0.8728 0.0
H644 H 0.28007 0.43296 0.87325 0.0
C645 C 0.2903 0.54745 0.87614 0.0
C646 C 0.7216 0.54778 0.62616 0.0
C647 C 0.70664 0.50218 0.62555 0.0
H648 H 0.78029 0.59463 0.6269 0.0
C649 C 0.74182 0.46858 0.62352 0.0
H650 H 0.69561 0.57486 0.62751 0.0
C651 C 0.79052 0.48018 0.62315 0.0
C652 C 0.80548 0.52573 0.62471 0.0
H653 H 0.73184 0.4333 0.62289 0.0
H654 H 0.81655 0.45312 0.62213 0.0
C655 C 0.77029 0.55938 0.62568 0.0
C656 C 0.03478 0.07531 0.2804 0.0
C657 C 0.98466 0.07495 0.28309 0.0
H658 H 0.0953 0.08231 0.24569 0.0
C659 C 0.95736 0.07819 0.25193 0.0
H660 H 0.05679 0.07634 0.30404 0.0
C661 C 0.97938 0.07539 0.21863 0.0
C662 C 0.02949 0.07483 0.21595 0.0
H663 H 0.91888 0.08261 0.25335 0.0
H664 H 0.95737 0.07649 0.195 0.0
C665 C 0.0568 0.07801 0.24711 0.0
C666 C 0.45736 0.9483 0.24729 0.0
C667 C 0.48479 0.95153 0.21619 0.0
H668 H 0.45712 0.95 0.30422 0.0
C669 C 0.53489 0.9511 0.21899 0.0
H670 H 0.41887 0.94392 0.24578 0.0
C671 C 0.55677 0.94836 0.25234 0.0
C672 C 0.52933 0.95158 0.28344 0.0
H673 H 0.557 0.95003 0.19541 0.0
H674 H 0.59526 0.94401 0.25385 0.0
C675 C 0.47923 0.95108 0.28063 0.0
C676 C 0.05617 0.94881 0.74712 0.0
C677 C 0.0288 0.95207 0.716 0.0
H678 H 0.0563 0.95055 0.80405 0.0
C679 C 0.97869 0.95176 0.71875 0.0
H680 H 0.09464 0.94435 0.74566 0.0
C681 C 0.95674 0.94909 0.75207 0.0
C682 C 0.98413 0.95226 0.78319 0.0
H683 H 0.95662 0.95073 0.69514 0.0
H684 H 0.91824 0.94483 0.75354 0.0
C685 C 0.03424 0.95166 0.78045 0.0
C686 C 0.4567 0.07853 0.74727 0.0
C687 C 0.48408 0.07537 0.71614 0.0
H688 H 0.4566 0.07692 0.8042 0.0
C689 C 0.53419 0.07604 0.71888 0.0
H690 H 0.4182 0.08277 0.74581 0.0
C691 C 0.55613 0.07892 0.7522 0.0
C692 C 0.52878 0.07563 0.78334 0.0
H693 H 0.55624 0.07716 0.69527 0.0
H694 H 0.5946 0.08341 0.75366 0.0
C695 C 0.47866 0.0759 0.78059 0.0
C696 C 0.47949 0.57526 0.21916 0.0
C697 C 0.5296 0.5748 0.21643 0.0
H698 H 0.41903 0.58241 0.25392 0.0
C699 C 0.55695 0.57805 0.24757 0.0
H700 H 0.45744 0.57631 0.19554 0.0
C701 C 0.53499 0.57533 0.28088 0.0
C702 C 0.48488 0.57487 0.28361 0.0
H703 H 0.59544 0.58241 0.24611 0.0
H704 H 0.55703 0.57642 0.3045 0.0
C705 C 0.45752 0.57805 0.25247 0.0
C706 C 0.05697 0.44823 0.25206 0.0
C707 C 0.02958 0.45152 0.28318 0.0
H708 H 0.05711 0.44981 0.19513 0.0
C709 C 0.97947 0.45106 0.28042 0.0
H710 H 0.09545 0.44386 0.25354 0.0
C711 C 0.95754 0.44824 0.24709 0.0
C712 C 0.98493 0.4514 0.21596 0.0
H713 H 0.9574 0.45003 0.30402 0.0
H714 H 0.91906 0.44388 0.24562 0.0
C715 C 0.03504 0.45093 0.21873 0.0
C716 C 0.55574 0.44879 0.74786 0.0
C717 C 0.52841 0.45198 0.71671 0.0
H718 H 0.55577 0.45056 0.80479 0.0
C719 C 0.47829 0.45161 0.71941 0.0
H720 H 0.59422 0.4444 0.74643 0.0
C721 C 0.4563 0.44895 0.75272 0.0
C722 C 0.48363 0.45218 0.78387 0.0
H723 H 0.45627 0.45054 0.69579 0.0
H724 H 0.41781 0.44461 0.75416 0.0
C725 C 0.53375 0.45163 0.78116 0.0
C726 C 0.97819 0.57588 0.78015 0.0
C727 C 0.0283 0.57557 0.78294 0.0
H728 H 0.91779 0.58285 0.74532 0.0
C729 C 0.0557 0.57886 0.75183 0.0
H730 H 0.9561 0.57688 0.80375 0.0
C731 C 0.03381 0.57603 0.71849 0.0
C732 C 0.9837 0.57541 0.7157 0.0
H733 H 0.09418 0.58331 0.75332 0.0
H734 H 0.05589 0.57717 0.69489 0.0
C735 C 0.95629 0.57856 0.74681 0.0
C736 C 0.97429 0.2276 0.09955 0.0
C737 C 0.02358 0.21788 0.10031 0.0
H738 H 0.91993 0.27864 0.0998 0.0
C739 C 0.0564 0.25391 0.09922 0.0
H740 H 0.94811 0.20064 0.1003 0.0
C741 C 0.04028 0.29867 0.09954 0.0
C742 C 0.99099 0.30838 0.10026 0.0
H743 H 0.09465 0.24762 0.09988 0.0
H744 H 0.06646 0.32563 0.10029 0.0
C745 C 0.95818 0.27235 0.09918 0.0
C746 C 0.54039 0.79868 0.09996 0.0
C747 C 0.49111 0.80845 0.10061 0.0
H748 H 0.59469 0.74756 0.10039 0.0
C749 C 0.45825 0.77245 0.09954 0.0
H750 H 0.5666 0.82561 0.10072 0.0
C751 C 0.47431 0.72768 0.09996 0.0
C752 C 0.52359 0.71791 0.10077 0.0
H753 H 0.42001 0.77879 0.10012 0.0
H754 H 0.4481 0.70075 0.10071 0.0
C755 C 0.55645 0.7539 0.09969 0.0
C756 C 0.45778 0.75405 0.40021 0.0
C757 C 0.49064 0.71805 0.39921 0.0
H758 H 0.44763 0.82576 0.39903 0.0
C759 C 0.53992 0.72782 0.40002 0.0
H760 H 0.41954 0.74772 0.39951 0.0
C761 C 0.55598 0.77259 0.40035 0.0
C762 C 0.52312 0.80859 0.39918 0.0
H763 H 0.56613 0.70088 0.39933 0.0
H764 H 0.59422 0.77892 0.39977 0.0
C765 C 0.47384 0.79882 0.39985 0.0
C766 C 0.05594 0.27256 0.39995 0.0
C767 C 0.02312 0.30859 0.3988 0.0
H768 H 0.06601 0.20084 0.39886 0.0
C769 C 0.97383 0.29887 0.39941 0.0
H770 H 0.09419 0.27885 0.3994 0.0
C771 C 0.95772 0.25411 0.39972 0.0
C772 C 0.99054 0.21808 0.39871 0.0
H773 H 0.94765 0.32583 0.39861 0.0
H774 H 0.91947 0.24782 0.39899 0.0
C775 C 0.03983 0.2278 0.39956 0.0
C776 C 0.97303 0.72839 0.89941 0.0
C777 C 0.0223 0.71856 0.89871 0.0
H778 H 0.9188 0.77957 0.89912 0.0
C779 C 0.05521 0.75452 0.89986 0.0
H780 H 0.94679 0.70149 0.89861 0.0
C781 C 0.03921 0.79931 0.89954 0.0
C782 C 0.98994 0.80914 0.89877 0.0
H783 H 0.09344 0.74814 0.89926 0.0
H784 H 0.06546 0.82621 0.89884 0.0
C785 C 0.95703 0.77318 0.89979 0.0
C786 C 0.53911 0.29942 0.90008 0.0
C787 C 0.48981 0.30909 0.89935 0.0
H788 H 0.59354 0.24844 0.8997 0.0
C789 C 0.45704 0.27302 0.90034 0.0
H790 H 0.56526 0.32641 0.8994 0.0
C791 C 0.47321 0.22828 0.89991 0.0
C792 C 0.52252 0.21862 0.89917 0.0
H793 H 0.41878 0.27927 0.8997 0.0
H794 H 0.44707 0.20129 0.89909 0.0
C795 C 0.55529 0.25468 0.90034 0.0
C796 C 0.45737 0.25435 0.59959 0.0
C797 C 0.49023 0.21835 0.60065 0.0
H798 H 0.44721 0.32605 0.60083 0.0
C799 C 0.53951 0.22813 0.60004 0.0
H800 H 0.41913 0.24801 0.60013 0.0
C801 C 0.55557 0.2729 0.59984 0.0
C802 C 0.5227 0.30889 0.60094 0.0
H803 H 0.56572 0.20119 0.60079 0.0
H804 H 0.59381 0.27923 0.60057 0.0
C805 C 0.47342 0.29912 0.60007 0.0
C806 C 0.9734 0.79923 0.59947 0.0
C807 C 0.02269 0.80893 0.60028 0.0
H808 H 0.91902 0.7482 0.59963 0.0
C809 C 0.0555 0.77288 0.59919 0.0
H810 H 0.94723 0.8262 0.60023 0.0
C811 C 0.03937 0.72813 0.59945 0.0
C812 C 0.99008 0.71843 0.60011 0.0
H813 H 0.09375 0.77916 0.59988 0.0
H814 H 0.06554 0.70116 0.60019 0.0
C815 C 0.95727 0.75448 0.59904 0.0
C816 C 1.00329 0.04888 0.97516 0.0
C817 C 0.9863 1.0059 0.96588 0.0
H818 H 0.03611 0.09014 0.01461 0.0
C819 C 0.9903 0.97068 0.99075 0.0
H820 H 1.00106 0.07677 0.95671 0.0
C821 C 0.01081 0.97823 0.02398 0.0
C822 C 0.02779 0.02121 0.03326 0.0
H823 H 0.97799 0.93697 0.98453 0.0
H824 H 0.01303 0.95034 0.04242 0.0
C825 C 0.0238 0.05643 0.00838 0.0
C826 C 0.52337 0.05664 0.991 0.0
C827 C 0.52755 0.02156 0.96603 0.0
H828 H 0.50075 0.07655 0.04279 0.0
C829 C 0.51106 0.97839 0.97525 0.0
H830 H 0.53531 0.09048 0.98482 0.0
C831 C 0.49083 0.97051 0.00852 0.0
C832 C 0.48663 1.00559 0.03349 0.0
H833 H 0.51345 0.9506 0.95673 0.0
H834 H 0.47888 0.93667 0.0147 0.0
C835 C 0.50314 0.04876 0.02427 0.0
C836 C 0.50272 0.97821 0.52426 0.0
C837 C 0.48604 0.02133 0.53347 0.0
H838 H 0.53523 0.93664 0.48486 0.0
C839 C 0.49025 0.05645 0.50854 0.0
H840 H 0.50032 0.95039 0.54275 0.0
C841 C 0.51068 0.04868 0.47532 0.0
C842 C 0.52737 1.00557 0.46611 0.0
H843 H 0.47818 0.09025 0.51471 0.0
H844 H 0.51308 0.07651 0.45683 0.0
C845 C 0.52316 0.97044 0.49103 0.0
C846 C 0.01041 0.04875 0.52399 0.0
C847 C 0.0272 1.0057 0.53328 0.0
H848 H 0.97794 0.09017 0.48448 0.0
C849 C 0.02321 0.97053 0.50837 0.0
H850 H 0.01264 0.07661 0.54246 0.0
C851 C 1.0029 0.97819 0.47509 0.0
C852 C 0.98612 0.02124 0.4658 0.0
H853 H 0.03537 0.93677 0.5146 0.0
H854 H 1.00067 0.95033 0.45662 0.0
C855 C 0.9901 0.05641 0.49071 0.0
C856 C 0.51045 0.47812 0.02453 0.0
C857 C 0.52733 0.52114 0.0338 0.0
H858 H 0.47758 0.4368 0.98514 0.0
C859 C 0.52307 0.55638 0.00897 0.0
H860 H 0.51287 0.45021 0.04295 0.0
C861 C 0.5024 0.54881 0.97579 0.0
C862 C 0.48554 0.50578 0.96652 0.0
H863 H 0.53528 0.59012 0.01518 0.0
H864 H 0.49998 0.57671 0.95738 0.0
C865 C 0.48979 0.47054 0.99136 0.0
C866 C 1.0027 0.54856 0.02398 0.0
C867 C 0.98611 0.50543 0.03321 0.0
H868 H 0.03482 0.59025 0.98449 0.0
C869 C 0.99005 0.47037 0.0082 0.0
H870 H 1.0005 0.57634 0.04253 0.0
C871 C 0.01013 0.47824 0.97487 0.0
C872 C 0.02674 0.52138 0.96565 0.0
H873 H 0.97802 0.43656 0.01438 0.0
H874 H 0.01234 0.45047 0.95632 0.0
C875 C 0.02279 0.55643 0.99066 0.0
C876 C 1.00235 0.47832 0.52385 0.0
C877 C 0.98575 0.52147 0.53304 0.0
H878 H 0.03493 0.43669 0.48453 0.0
C879 C 0.99021 0.5566 0.50815 0.0
H880 H 0.99977 0.45048 0.54231 0.0
C881 C 0.01079 0.54881 0.47498 0.0
C882 C 0.02739 0.50565 0.46579 0.0
H883 H 0.97821 0.59043 0.51432 0.0
H884 H 0.01337 0.57664 0.45651 0.0
C885 C 0.02294 0.47052 0.49068 0.0
C886 C 0.52326 0.47057 0.50901 0.0
C887 C 0.52702 0.50572 0.53396 0.0
H888 H 0.50106 0.45038 0.45719 0.0
C889 C 0.51016 0.54874 0.52466 0.0
H890 H 0.5355 0.43684 0.51525 0.0
C891 C 0.49 0.55639 0.49133 0.0
C892 C 0.48625 0.52124 0.46638 0.0
H893 H 0.51221 0.57658 0.54316 0.0
H894 H 0.47777 0.59012 0.48509 0.0
C895 C 0.50311 0.47822 0.47568 0.0
loop_
_geom_bond_atom_site_label_1
_geom_bond_atom_site_label_2
_geom_bond_distance
_geom_bond_site_symmetry_2
_ccdc_geom_bond_type
Mn0 O5 2.095 . S
Mn0 O15 2.162 . S
Mn0 O16 2.297 . S
Mn0 O24 2.385 . S
Mn0 O25 2.209 . S
Mn0 O26 2.094 . S
Mn1 O6 2.121 . S
Mn1 N8 2.257 1_455 S
Mn1 N17 2.282 . S
Mn1 O25 2.215 1_565 S
Mn1 O27 2.117 . S
C2 O24 1.234 . S
C2 O25 1.283 . S
C3 O15 1.281 . S
C3 O16 1.236 . S
C4 O26 1.240 . S
C4 O27 1.264 1_545 S
O5 Mn0 2.095 . S
O5 C14 1.250 . S
O6 Mn1 2.121 . S
O6 C14 1.258 1_565 S
C7 N8 1.326 . S
C7 C11 1.460 . S
C7 H13 0.929 . S
N8 Mn1 2.257 1_655 S
N8 C7 1.326 . S
N8 C12 1.362 . S
C9 C10 1.258 . S
C9 C12 1.431 . S
C9 C29 1.449 . S
C10 C9 1.258 . S
C10 C11 1.477 . S
C10 H30 0.931 . S
C11 C7 1.460 . S
C11 C10 1.477 . S
C11 H31 0.930 . S
C12 N8 1.362 . S
C12 C9 1.431 . S
C12 C22 1.476 1_655 S
H13 C7 0.929 . S
C14 O5 1.250 . S
C14 O6 1.258 1_545 S
O15 Mn0 2.162 . S
O15 C3 1.281 . S
O16 Mn0 2.297 . S
O16 C3 1.236 . S
N17 Mn1 2.282 . S
N17 C18 1.328 . S
N17 C22 1.318 . S
C18 N17 1.328 . S
C18 C19 1.457 . S
C18 H23 0.929 . S
C19 C18 1.457 . S
C19 C20 1.291 . S
C19 H32 0.931 . S
C20 C19 1.291 . S
C20 C21 1.373 . S
C20 H33 0.929 . S
C21 C20 1.373 . S
C21 C22 1.396 . S
C21 C28 1.403 . S
C22 C12 1.476 1_455 S
C22 N17 1.318 . S
C22 C21 1.396 . S
H23 C18 0.929 . S
O24 Mn0 2.385 . S
O24 C2 1.234 . S
O25 Mn0 2.209 . S
O25 Mn1 2.215 1_545 S
O25 C2 1.283 . S
O26 Mn0 2.094 . S
O26 C4 1.240 . S
O27 Mn1 2.117 . S
O27 C4 1.264 1_565 S
C28 C21 1.403 . S
C28 C29 1.399 1_455 S
C28 H34 0.929 . S
C29 C9 1.449 . S
C29 C28 1.399 1_655 S
C29 H35 0.930 . S
H30 C10 0.931 . S
H31 C11 0.930 . S
H32 C19 0.931 . S
H33 C20 0.929 . S
H34 C28 0.929 . S
H35 C29 0.930 . S
Mn36 O41 2.095 . S
Mn36 O51 2.162 . S
Mn36 O52 2.297 . S
Mn36 O60 2.385 . S
Mn36 O61 2.209 . S
Mn36 O62 2.094 . S
Mn37 O42 2.121 . S
Mn37 N44 2.257 . S
Mn37 N53 2.282 . S
Mn37 O61 2.215 1_545 S
Mn37 O63 2.117 . S
C38 O60 1.234 . S
C38 O61 1.283 . S
C39 O51 1.281 . S
C39 O52 1.236 . S
C40 O62 1.240 . S
C40 O63 1.264 1_565 S
O41 Mn36 2.095 . S
O41 C50 1.250 . S
O42 Mn37 2.121 . S
O42 C50 1.258 1_545 S
C43 N44 1.326 . S
C43 C47 1.460 . S
C43 H49 0.929 . S
N44 Mn37 2.257 . S
N44 C43 1.326 . S
N44 C48 1.362 . S
C45 C46 1.258 . S
C45 C48 1.431 . S
C45 C65 1.449 . S
C46 C45 1.258 . S
C46 C47 1.477 . S
C46 H66 0.931 . S
C47 C43 1.460 . S
C47 C46 1.477 . S
C47 H67 0.930 . S
C48 N44 1.362 . S
C48 C45 1.431 . S
C48 C58 1.476 . S
H49 C43 0.929 . S
C50 O41 1.250 . S
C50 O42 1.258 1_565 S
O51 Mn36 2.162 . S
O51 C39 1.281 . S
O52 Mn36 2.297 . S
O52 C39 1.236 . S
N53 Mn37 2.282 . S
N53 C54 1.328 . S
N53 C58 1.318 . S
C54 N53 1.328 . S
C54 C55 1.457 . S
C54 H59 0.929 . S
C55 C54 1.457 . S
C55 C56 1.291 . S
C55 H68 0.931 . S
C56 C55 1.291 . S
C56 C57 1.373 . S
C56 H69 0.929 . S
C57 C56 1.373 . S
C57 C58 1.396 . S
C57 C64 1.403 . S
C58 C48 1.476 . S
C58 N53 1.318 . S
C58 C57 1.396 . S
H59 C54 0.929 . S
O60 Mn36 2.385 . S
O60 C38 1.234 . S
O61 Mn36 2.209 . S
O61 Mn37 2.215 1_565 S
O61 C38 1.283 . S
O62 Mn36 2.094 . S
O62 C40 1.240 . S
O63 Mn37 2.117 . S
O63 C40 1.264 1_545 S
C64 C57 1.403 . S
C64 C65 1.399 . S
C64 H70 0.929 . S
C65 C45 1.449 . S
C65 C64 1.399 . S
C65 H71 0.930 . S
H66 C46 0.931 . S
H67 C47 0.930 . S
H68 C55 0.931 . S
H69 C56 0.929 . S
H70 C64 0.929 . S
H71 C65 0.930 . S
Mn72 O77 2.095 . S
Mn72 O87 2.162 . S
Mn72 O88 2.297 . S
Mn72 O96 2.385 . S
Mn72 O97 2.209 . S
Mn72 O98 2.094 . S
Mn73 O78 2.121 . S
Mn73 N80 2.257 . S
Mn73 N89 2.282 . S
Mn73 O97 2.215 1_545 S
Mn73 O99 2.117 . S
C74 O96 1.234 . S
C74 O97 1.283 . S
C75 O87 1.281 . S
C75 O88 1.236 . S
C76 O98 1.240 . S
C76 O99 1.264 1_565 S
O77 Mn72 2.095 . S
O77 C86 1.250 . S
O78 Mn73 2.121 . S
O78 C86 1.258 1_545 S
C79 N80 1.326 . S
C79 C83 1.460 . S
C79 H85 0.929 . S
N80 Mn73 2.257 . S
N80 C79 1.326 . S
N80 C84 1.362 . S
C81 C82 1.258 . S
C81 C84 1.431 . S
C81 C101 1.449 . S
C82 C81 1.258 . S
C82 C83 1.477 . S
C82 H102 0.931 . S
C83 C79 1.460 . S
C83 C82 1.477 . S
C83 H103 0.930 . S
C84 N80 1.362 . S
C84 C81 1.431 . S
C84 C94 1.476 . S
H85 C79 0.929 . S
C86 O77 1.250 . S
C86 O78 1.258 1_565 S
O87 Mn72 2.162 . S
O87 C75 1.281 . S
O88 Mn72 2.297 . S
O88 C75 1.236 . S
N89 Mn73 2.282 . S
N89 C90 1.328 . S
N89 C94 1.318 . S
C90 N89 1.328 . S
C90 C91 1.457 . S
C90 H95 0.929 . S
C91 C90 1.457 . S
C91 C92 1.291 . S
C91 H104 0.931 . S
C92 C91 1.291 . S
C92 C93 1.373 . S
C92 H105 0.929 . S
C93 C92 1.373 . S
C93 C94 1.396 . S
C93 C100 1.403 . S
C94 C84 1.476 . S
C94 N89 1.318 . S
C94 C93 1.396 . S
H95 C90 0.929 . S
O96 Mn72 2.385 . S
O96 C74 1.234 . S
O97 Mn72 2.209 . S
O97 Mn73 2.215 1_565 S
O97 C74 1.283 . S
O98 Mn72 2.094 . S
O98 C76 1.240 . S
O99 Mn73 2.117 . S
O99 C76 1.264 1_545 S
C100 C93 1.403 . S
C100 C101 1.399 . S
C100 H106 0.929 . S
C101 C81 1.449 . S
C101 C100 1.399 . S
C101 H107 0.930 . S
H102 C82 0.931 . S
H103 C83 0.930 . S
H104 C91 0.931 . S
H105 C92 0.929 . S
H106 C100 0.929 . S
H107 C101 0.930 . S
Mn108 O113 2.095 . S
Mn108 O123 2.162 . S
Mn108 O124 2.297 . S
Mn108 O132 2.385 . S
Mn108 O133 2.209 . S
Mn108 O134 2.094 . S
Mn109 O114 2.121 . S
Mn109 N116 2.257 1_655 S
Mn109 N125 2.282 . S
Mn109 O133 2.215 1_565 S
Mn109 O135 2.117 . S
C110 O132 1.234 . S
C110 O133 1.283 . S
C111 O123 1.281 . S
C111 O124 1.236 . S
C112 O134 1.240 . S
C112 O135 1.264 1_545 S
O113 Mn108 2.095 . S
O113 C122 1.250 . S
O114 Mn109 2.121 . S
O114 C122 1.258 1_565 S
C115 N116 1.326 . S
C115 C119 1.460 . S
C115 H121 0.929 . S
N116 Mn109 2.257 1_455 S
N116 C115 1.326 . S
N116 C120 1.362 . S
C117 C118 1.258 . S
C117 C120 1.431 . S
C117 C137 1.449 . S
C118 C117 1.258 . S
C118 C119 1.477 . S
C118 H138 0.931 . S
C119 C115 1.460 . S
C119 C118 1.477 . S
C119 H139 0.930 . S
C120 N116 1.362 . S
C120 C117 1.431 . S
C120 C130 1.476 1_455 S
H121 C115 0.929 . S
C122 O113 1.250 . S
C122 O114 1.258 1_545 S
O123 Mn108 2.162 . S
O123 C111 1.281 . S
O124 Mn108 2.297 . S
O124 C111 1.236 . S
N125 Mn109 2.282 . S
N125 C126 1.328 . S
N125 C130 1.318 . S
C126 N125 1.328 . S
C126 C127 1.457 . S
C126 H131 0.929 . S
C127 C126 1.457 . S
C127 C128 1.291 . S
C127 H140 0.931 . S
C128 C127 1.291 . S
C128 C129 1.373 . S
C128 H141 0.929 . S
C129 C128 1.373 . S
C129 C130 1.396 . S
C129 C136 1.403 . S
C130 C120 1.476 1_655 S
C130 N125 1.318 . S
C130 C129 1.396 . S
H131 C126 0.929 . S
O132 Mn108 2.385 . S
O132 C110 1.234 . S
O133 Mn108 2.209 . S
O133 Mn109 2.215 1_545 S
O133 C110 1.283 . S
O134 Mn108 2.094 . S
O134 C112 1.240 . S
O135 Mn109 2.117 . S
O135 C112 1.264 1_565 S
C136 C129 1.403 . S
C136 C137 1.399 1_655 S
C136 H142 0.929 . S
C137 C117 1.449 . S
C137 C136 1.399 1_455 S
C137 H143 0.930 . S
H138 C118 0.931 . S
H139 C119 0.930 . S
H140 C127 0.931 . S
H141 C128 0.929 . S
H142 C136 0.929 . S
H143 C137 0.930 . S
Mn144 O149 2.095 . S
Mn144 O159 2.162 . S
Mn144 O160 2.297 . S
Mn144 O168 2.385 . S
Mn144 O169 2.209 . S
Mn144 O170 2.094 . S
Mn145 O150 2.121 . S
Mn145 N152 2.257 1_655 S
Mn145 N161 2.282 . S
Mn145 O169 2.215 1_545 S
Mn145 O171 2.117 . S
C146 O168 1.234 . S
C146 O169 1.283 . S
C147 O159 1.281 . S
C147 O160 1.236 . S
C148 O170 1.240 . S
C148 O171 1.264 1_565 S
O149 Mn144 2.095 . S
O149 C158 1.250 . S
O150 Mn145 2.121 . S
O150 C158 1.258 1_545 S
C151 N152 1.326 . S
C151 C155 1.460 . S
C151 H157 0.929 . S
N152 Mn145 2.257 1_455 S
N152 C151 1.326 . S
N152 C156 1.362 . S
C153 C154 1.258 . S
C153 C156 1.431 . S
C153 C173 1.449 . S
C154 C153 1.258 . S
C154 C155 1.477 . S
C154 H174 0.931 . S
C155 C151 1.460 . S
C155 C154 1.477 . S
C155 H175 0.930 . S
C156 N152 1.362 . S
C156 C153 1.431 . S
C156 C166 1.476 1_455 S
H157 C151 0.929 . S
C158 O149 1.250 . S
C158 O150 1.258 1_565 S
O159 Mn144 2.162 . S
O159 C147 1.281 . S
O160 Mn144 2.297 . S
O160 C147 1.236 . S
N161 Mn145 2.282 . S
N161 C162 1.328 . S
N161 C166 1.318 . S
C162 N161 1.328 . S
C162 C163 1.457 . S
C162 H167 0.929 . S
C163 C162 1.457 . S
C163 C164 1.291 . S
C163 H176 0.931 . S
C164 C163 1.291 . S
C164 C165 1.373 . S
C164 H177 0.929 . S
C165 C164 1.373 . S
C165 C166 1.396 . S
C165 C172 1.403 . S
C166 C156 1.476 1_655 S
C166 N161 1.318 . S
C166 C165 1.396 . S
H167 C162 0.929 . S
O168 Mn144 2.385 . S
O168 C146 1.234 . S
O169 Mn144 2.209 . S
O169 Mn145 2.215 1_565 S
O169 C146 1.283 . S
O170 Mn144 2.094 . S
O170 C148 1.240 . S
O171 Mn145 2.117 . S
O171 C148 1.264 1_545 S
C172 C165 1.403 . S
C172 C173 1.399 1_655 S
C172 H178 0.929 . S
C173 C153 1.449 . S
C173 C172 1.399 1_455 S
C173 H179 0.930 . S
H174 C154 0.931 . S
H175 C155 0.930 . S
H176 C163 0.931 . S
H177 C164 0.929 . S
H178 C172 0.929 . S
H179 C173 0.930 . S
Mn180 O185 2.095 . S
Mn180 O195 2.162 . S
Mn180 O196 2.297 . S
Mn180 O204 2.385 . S
Mn180 O205 2.209 . S
Mn180 O206 2.094 . S
Mn181 O186 2.121 . S
Mn181 N188 2.257 . S
Mn181 N197 2.282 . S
Mn181 O205 2.215 1_565 S
Mn181 O207 2.117 . S
C182 O204 1.234 . S
C182 O205 1.283 . S
C183 O195 1.281 . S
C183 O196 1.236 . S
C184 O206 1.240 . S
C184 O207 1.264 1_545 S
O185 Mn180 2.095 . S
O185 C194 1.250 . S
O186 Mn181 2.121 . S
O186 C194 1.258 1_565 S
C187 N188 1.326 . S
C187 C191 1.460 . S
C187 H193 0.929 . S
N188 Mn181 2.257 . S
N188 C187 1.326 . S
N188 C192 1.362 . S
C189 C190 1.258 . S
C189 C192 1.431 . S
C189 C209 1.449 . S
C190 C189 1.258 . S
C190 C191 1.477 . S
C190 H210 0.931 . S
C191 C187 1.460 . S
C191 C190 1.477 . S
C191 H211 0.930 . S
C192 N188 1.362 . S
C192 C189 1.431 . S
C192 C202 1.476 . S
H193 C187 0.929 . S
C194 O185 1.250 . S
C194 O186 1.258 1_545 S
O195 Mn180 2.162 . S
O195 C183 1.281 . S
O196 Mn180 2.297 . S
O196 C183 1.236 . S
N197 Mn181 2.282 . S
N197 C198 1.328 . S
N197 C202 1.318 . S
C198 N197 1.328 . S
C198 C199 1.457 . S
C198 H203 0.929 . S
C199 C198 1.457 . S
C199 C200 1.291 . S
C199 H212 0.931 . S
C200 C199 1.291 . S
C200 C201 1.373 . S
C200 H213 0.929 . S
C201 C200 1.373 . S
C201 C202 1.396 . S
C201 C208 1.403 . S
C202 C192 1.476 . S
C202 N197 1.318 . S
C202 C201 1.396 . S
H203 C198 0.929 . S
O204 Mn180 2.385 . S
O204 C182 1.234 . S
O205 Mn180 2.209 . S
O205 Mn181 2.215 1_545 S
O205 C182 1.283 . S
O206 Mn180 2.094 . S
O206 C184 1.240 . S
O207 Mn181 2.117 . S
O207 C184 1.264 1_565 S
C208 C201 1.403 . S
C208 C209 1.399 . S
C208 H214 0.929 . S
C209 C189 1.449 . S
C209 C208 1.399 . S
C209 H215 0.930 . S
H210 C190 0.931 . S
H211 C191 0.930 . S
H212 C199 0.931 . S
H213 C200 0.929 . S
H214 C208 0.929 . S
H215 C209 0.930 . S
Mn216 O221 2.095 . S
Mn216 O231 2.162 . S
Mn216 O232 2.297 . S
Mn216 O240 2.385 . S
Mn216 O241 2.209 . S
Mn216 O242 2.094 . S
Mn217 O222 2.121 . S
Mn217 N224 2.257 . S
Mn217 N233 2.282 . S
Mn217 O241 2.215 1_565 S
Mn217 O243 2.117 . S
C218 O240 1.234 . S
C218 O241 1.283 . S
C219 O231 1.281 . S
C219 O232 1.236 . S
C220 O242 1.240 . S
C220 O243 1.264 1_545 S
O221 Mn216 2.095 . S
O221 C230 1.250 . S
O222 Mn217 2.121 . S
O222 C230 1.258 1_565 S
C223 N224 1.326 . S
C223 C227 1.460 . S
C223 H229 0.929 . S
N224 Mn217 2.257 . S
N224 C223 1.326 . S
N224 C228 1.362 . S
C225 C226 1.258 . S
C225 C228 1.431 . S
C225 C245 1.449 . S
C226 C225 1.258 . S
C226 C227 1.477 . S
C226 H246 0.931 . S
C227 C223 1.460 . S
C227 C226 1.477 . S
C227 H247 0.930 . S
C228 N224 1.362 . S
C228 C225 1.431 . S
C228 C238 1.476 . S
H229 C223 0.929 . S
C230 O221 1.250 . S
C230 O222 1.258 1_545 S
O231 Mn216 2.162 . S
O231 C219 1.281 . S
O232 Mn216 2.297 . S
O232 C219 1.236 . S
N233 Mn217 2.282 . S
N233 C234 1.328 . S
N233 C238 1.318 . S
C234 N233 1.328 . S
C234 C235 1.457 . S
C234 H239 0.929 . S
C235 C234 1.457 . S
C235 C236 1.291 . S
C235 H248 0.931 . S
C236 C235 1.291 . S
C236 C237 1.373 . S
C236 H249 0.929 . S
C237 C236 1.373 . S
C237 C238 1.396 . S
C237 C244 1.403 . S
C238 C228 1.476 . S
C238 N233 1.318 . S
C238 C237 1.396 . S
H239 C234 0.929 . S
O240 Mn216 2.385 . S
O240 C218 1.234 . S
O241 Mn216 2.209 . S
O241 Mn217 2.215 1_545 S
O241 C218 1.283 . S
O242 Mn216 2.094 . S
O242 C220 1.240 . S
O243 Mn217 2.117 . S
O243 C220 1.264 1_565 S
C244 C237 1.403 . S
C244 C245 1.399 . S
C244 H250 0.929 . S
C245 C225 1.449 . S
C245 C244 1.399 . S
C245 H251 0.930 . S
H246 C226 0.931 . S
H247 C227 0.930 . S
H248 C235 0.931 . S
H249 C236 0.929 . S
H250 C244 0.929 . S
H251 C245 0.930 . S
Mn252 O257 2.095 . S
Mn252 O267 2.162 . S
Mn252 O268 2.297 . S
Mn252 O276 2.385 . S
Mn252 O277 2.209 . S
Mn252 O278 2.094 . S
Mn253 O258 2.121 . S
Mn253 N260 2.257 1_455 S
Mn253 N269 2.282 . S
Mn253 O277 2.215 1_545 S
Mn253 O279 2.117 . S
C254 O276 1.234 . S
C254 O277 1.283 . S
C255 O267 1.281 . S
C255 O268 1.236 . S
C256 O278 1.240 . S
C256 O279 1.264 1_565 S
O257 Mn252 2.095 . S
O257 C266 1.250 . S
O258 Mn253 2.121 . S
O258 C266 1.258 1_545 S
C259 N260 1.326 . S
C259 C263 1.460 . S
C259 H265 0.929 . S
N260 Mn253 2.257 1_655 S
N260 C259 1.326 . S
N260 C264 1.362 . S
C261 C262 1.258 . S
C261 C264 1.431 . S
C261 C281 1.449 . S
C262 C261 1.258 . S
C262 C263 1.477 . S
C262 H282 0.931 . S
C263 C259 1.460 . S
C263 C262 1.477 . S
C263 H283 0.930 . S
C264 N260 1.362 . S
C264 C261 1.431 . S
C264 C274 1.476 1_655 S
H265 C259 0.929 . S
C266 O257 1.250 . S
C266 O258 1.258 1_565 S
O267 Mn252 2.162 . S
O267 C255 1.281 . S
O268 Mn252 2.297 . S
O268 C255 1.236 . S
N269 Mn253 2.282 . S
N269 C270 1.328 . S
N269 C274 1.318 . S
C270 N269 1.328 . S
C270 C271 1.457 . S
C270 H275 0.929 . S
C271 C270 1.457 . S
C271 C272 1.291 . S
C271 H284 0.931 . S
C272 C271 1.291 . S
C272 C273 1.373 . S
C272 H285 0.929 . S
C273 C272 1.373 . S
C273 C274 1.396 . S
C273 C280 1.403 . S
C274 C264 1.476 1_455 S
C274 N269 1.318 . S
C274 C273 1.396 . S
H275 C270 0.929 . S
O276 Mn252 2.385 . S
O276 C254 1.234 . S
O277 Mn252 2.209 . S
O277 Mn253 2.215 1_565 S
O277 C254 1.283 . S
O278 Mn252 2.094 . S
O278 C256 1.240 . S
O279 Mn253 2.117 . S
O279 C256 1.264 1_545 S
C280 C273 1.403 . S
C280 C281 1.399 1_455 S
C280 H286 0.929 . S
C281 C261 1.449 . S
C281 C280 1.399 1_655 S
C281 H287 0.930 . S
H282 C262 0.931 . S
H283 C263 0.930 . S
H284 C271 0.931 . S
H285 C272 0.929 . S
H286 C280 0.929 . S
H287 C281 0.930 . S
Mn288 O293 2.095 . S
Mn288 O303 2.162 . S
Mn288 O304 2.297 . S
Mn288 O312 2.385 . S
Mn288 O313 2.209 . S
Mn288 O314 2.094 . S
Mn289 O294 2.121 . S
Mn289 N296 2.257 . S
Mn289 N305 2.282 . S
Mn289 O313 2.215 . S
Mn289 O315 2.117 . S
C290 O312 1.234 . S
C290 O313 1.283 . S
C291 O303 1.281 . S
C291 O304 1.236 . S
C292 O314 1.240 . S
C292 O315 1.264 . S
O293 Mn288 2.095 . S
O293 C302 1.250 . S
O294 Mn289 2.121 . S
O294 C302 1.258 . S
C295 N296 1.326 . S
C295 C299 1.460 . S
C295 H301 0.929 . S
N296 Mn289 2.257 . S
N296 C295 1.326 . S
N296 C300 1.362 . S
C297 C298 1.258 . S
C297 C300 1.431 . S
C297 C317 1.449 . S
C298 C297 1.258 . S
C298 C299 1.477 . S
C298 H318 0.931 . S
C299 C295 1.460 . S
C299 C298 1.477 . S
C299 H319 0.930 . S
C300 N296 1.362 . S
C300 C297 1.431 . S
C300 C310 1.476 . S
H301 C295 0.929 . S
C302 O293 1.250 . S
C302 O294 1.258 . S
O303 Mn288 2.162 . S
O303 C291 1.281 . S
O304 Mn288 2.297 . S
O304 C291 1.236 . S
N305 Mn289 2.282 . S
N305 C306 1.328 . S
N305 C310 1.318 . S
C306 N305 1.328 . S
C306 C307 1.457 . S
C306 H311 0.929 . S
C307 C306 1.457 . S
C307 C308 1.291 . S
C307 H320 0.931 . S
C308 C307 1.291 . S
C308 C309 1.373 . S
C308 H321 0.929 . S
C309 C308 1.373 . S
C309 C310 1.396 . S
C309 C316 1.403 . S
C310 C300 1.476 . S
C310 N305 1.318 . S
C310 C309 1.396 . S
H311 C306 0.929 . S
O312 Mn288 2.385 . S
O312 C290 1.234 . S
O313 Mn288 2.209 . S
O313 Mn289 2.215 . S
O313 C290 1.283 . S
O314 Mn288 2.094 . S
O314 C292 1.240 . S
O315 Mn289 2.117 . S
O315 C292 1.264 . S
C316 C309 1.403 . S
C316 C317 1.399 . S
C316 H322 0.929 . S
C317 C297 1.449 . S
C317 C316 1.399 . S
C317 H323 0.930 . S
H318 C298 0.931 . S
H319 C299 0.930 . S
H320 C307 0.931 . S
H321 C308 0.929 . S
H322 C316 0.929 . S
H323 C317 0.930 . S
Mn324 O329 2.095 . S
Mn324 O339 2.162 . S
Mn324 O340 2.297 . S
Mn324 O348 2.385 . S
Mn324 O349 2.209 . S
Mn324 O350 2.094 . S
Mn325 O330 2.121 . S
Mn325 N332 2.257 1_655 S
Mn325 N341 2.282 . S
Mn325 O349 2.215 . S
Mn325 O351 2.117 . S
C326 O348 1.234 . S
C326 O349 1.283 . S
C327 O339 1.281 . S
C327 O340 1.236 . S
C328 O350 1.240 . S
C328 O351 1.264 . S
O329 Mn324 2.095 . S
O329 C338 1.250 . S
O330 Mn325 2.121 . S
O330 C338 1.258 . S
C331 N332 1.326 . S
C331 C335 1.460 . S
C331 H337 0.929 . S
N332 Mn325 2.257 1_455 S
N332 C331 1.326 . S
N332 C336 1.362 . S
C333 C334 1.258 . S
C333 C336 1.431 . S
C333 C353 1.449 . S
C334 C333 1.258 . S
C334 C335 1.477 . S
C334 H354 0.931 . S
C335 C331 1.460 . S
C335 C334 1.477 . S
C335 H355 0.930 . S
C336 N332 1.362 . S
C336 C333 1.431 . S
C336 C346 1.476 1_455 S
H337 C331 0.929 . S
C338 O329 1.250 . S
C338 O330 1.258 . S
O339 Mn324 2.162 . S
O339 C327 1.281 . S
O340 Mn324 2.297 . S
O340 C327 1.236 . S
N341 Mn325 2.282 . S
N341 C342 1.328 . S
N341 C346 1.318 . S
C342 N341 1.328 . S
C342 C343 1.457 . S
C342 H347 0.929 . S
C343 C342 1.457 . S
C343 C344 1.291 . S
C343 H356 0.931 . S
C344 C343 1.291 . S
C344 C345 1.373 . S
C344 H357 0.929 . S
C345 C344 1.373 . S
C345 C346 1.396 . S
C345 C352 1.403 . S
C346 C336 1.476 1_655 S
C346 N341 1.318 . S
C346 C345 1.396 . S
H347 C342 0.929 . S
O348 Mn324 2.385 . S
O348 C326 1.234 . S
O349 Mn324 2.209 . S
O349 Mn325 2.215 . S
O349 C326 1.283 . S
O350 Mn324 2.094 . S
O350 C328 1.240 . S
O351 Mn325 2.117 . S
O351 C328 1.264 . S
C352 C345 1.403 . S
C352 C353 1.399 1_655 S
C352 H358 0.929 . S
C353 C333 1.449 . S
C353 C352 1.399 1_455 S
C353 H359 0.930 . S
H354 C334 0.931 . S
H355 C335 0.930 . S
H356 C343 0.931 . S
H357 C344 0.929 . S
H358 C352 0.929 . S
H359 C353 0.930 . S
Mn360 O365 2.095 . S
Mn360 O375 2.162 . S
Mn360 O376 2.297 . S
Mn360 O384 2.385 . S
Mn360 O385 2.209 . S
Mn360 O386 2.094 . S
Mn361 O366 2.121 . S
Mn361 N368 2.257 1_455 S
Mn361 N377 2.282 . S
Mn361 O385 2.215 . S
Mn361 O387 2.117 . S
C362 O384 1.234 . S
C362 O385 1.283 . S
C363 O375 1.281 . S
C363 O376 1.236 . S
C364 O386 1.240 . S
C364 O387 1.264 . S
O365 Mn360 2.095 . S
O365 C374 1.250 . S
O366 Mn361 2.121 . S
O366 C374 1.258 . S
C367 N368 1.326 . S
C367 C371 1.460 . S
C367 H373 0.929 . S
N368 Mn361 2.257 1_655 S
N368 C367 1.326 . S
N368 C372 1.362 . S
C369 C370 1.258 . S
C369 C372 1.431 . S
C369 C389 1.449 . S
C370 C369 1.258 . S
C370 C371 1.477 . S
C370 H390 0.931 . S
C371 C367 1.460 . S
C371 C370 1.477 . S
C371 H391 0.930 . S
C372 N368 1.362 . S
C372 C369 1.431 . S
C372 C382 1.476 1_655 S
H373 C367 0.929 . S
C374 O365 1.250 . S
C374 O366 1.258 . S
O375 Mn360 2.162 . S
O375 C363 1.281 . S
O376 Mn360 2.297 . S
O376 C363 1.236 . S
N377 Mn361 2.282 . S
N377 C378 1.328 . S
N377 C382 1.318 . S
C378 N377 1.328 . S
C378 C379 1.457 . S
C378 H383 0.929 . S
C379 C378 1.457 . S
C379 C380 1.291 . S
C379 H392 0.931 . S
C380 C379 1.291 . S
C380 C381 1.373 . S
C380 H393 0.929 . S
C381 C380 1.373 . S
C381 C382 1.396 . S
C381 C388 1.403 . S
C382 C372 1.476 1_455 S
C382 N377 1.318 . S
C382 C381 1.396 . S
H383 C378 0.929 . S
O384 Mn360 2.385 . S
O384 C362 1.234 . S
O385 Mn360 2.209 . S
O385 Mn361 2.215 . S
O385 C362 1.283 . S
O386 Mn360 2.094 . S
O386 C364 1.240 . S
O387 Mn361 2.117 . S
O387 C364 1.264 . S
C388 C381 1.403 . S
C388 C389 1.399 1_455 S
C388 H394 0.929 . S
C389 C369 1.449 . S
C389 C388 1.399 1_655 S
C389 H395 0.930 . S
H390 C370 0.931 . S
H391 C371 0.930 . S
H392 C379 0.931 . S
H393 C380 0.929 . S
H394 C388 0.929 . S
H395 C389 0.930 . S
Mn396 O401 2.095 . S
Mn396 O411 2.162 . S
Mn396 O412 2.297 . S
Mn396 O420 2.385 . S
Mn396 O421 2.209 . S
Mn396 O422 2.094 . S
Mn397 O402 2.121 . S
Mn397 N404 2.257 . S
Mn397 N413 2.282 . S
Mn397 O421 2.215 . S
Mn397 O423 2.117 . S
C398 O420 1.234 . S
C398 O421 1.283 . S
C399 O411 1.281 . S
C399 O412 1.236 . S
C400 O422 1.240 . S
C400 O423 1.264 . S
O401 Mn396 2.095 . S
O401 C410 1.250 . S
O402 Mn397 2.121 . S
O402 C410 1.258 . S
C403 N404 1.326 . S
C403 C407 1.460 . S
C403 H409 0.929 . S
N404 Mn397 2.257 . S
N404 C403 1.326 . S
N404 C408 1.362 . S
C405 C406 1.258 . S
C405 C408 1.431 . S
C405 C425 1.449 . S
C406 C405 1.258 . S
C406 C407 1.477 . S
C406 H426 0.931 . S
C407 C403 1.460 . S
C407 C406 1.477 . S
C407 H427 0.930 . S
C408 N404 1.362 . S
C408 C405 1.431 . S
C408 C418 1.476 . S
H409 C403 0.929 . S
C410 O401 1.250 . S
C410 O402 1.258 . S
O411 Mn396 2.162 . S
O411 C399 1.281 . S
O412 Mn396 2.297 . S
O412 C399 1.236 . S
N413 Mn397 2.282 . S
N413 C414 1.328 . S
N413 C418 1.318 . S
C414 N413 1.328 . S
C414 C415 1.457 . S
C414 H419 0.929 . S
C415 C414 1.457 . S
C415 C416 1.291 . S
C415 H428 0.931 . S
C416 C415 1.291 . S
C416 C417 1.373 . S
C416 H429 0.929 . S
C417 C416 1.373 . S
C417 C418 1.396 . S
C417 C424 1.403 . S
C418 C408 1.476 . S
C418 N413 1.318 . S
C418 C417 1.396 . S
H419 C414 0.929 . S
O420 Mn396 2.385 . S
O420 C398 1.234 . S
O421 Mn396 2.209 . S
O421 Mn397 2.215 . S
O421 C398 1.283 . S
O422 Mn396 2.094 . S
O422 C400 1.240 . S
O423 Mn397 2.117 . S
O423 C400 1.264 . S
C424 C417 1.403 . S
C424 C425 1.399 . S
C424 H430 0.929 . S
C425 C405 1.449 . S
C425 C424 1.399 . S
C425 H431 0.930 . S
H426 C406 0.931 . S
H427 C407 0.930 . S
H428 C415 0.931 . S
H429 C416 0.929 . S
H430 C424 0.929 . S
H431 C425 0.930 . S
Mn432 O437 2.095 . S
Mn432 O447 2.162 . S
Mn432 O448 2.297 . S
Mn432 O456 2.385 . S
Mn432 O457 2.209 . S
Mn432 O458 2.094 . S
Mn433 O438 2.121 . S
Mn433 N440 2.257 . S
Mn433 N449 2.282 . S
Mn433 O457 2.215 . S
Mn433 O459 2.117 . S
C434 O456 1.234 . S
C434 O457 1.283 . S
C435 O447 1.281 . S
C435 O448 1.236 . S
C436 O458 1.240 . S
C436 O459 1.264 . S
O437 Mn432 2.095 . S
O437 C446 1.250 . S
O438 Mn433 2.121 . S
O438 C446 1.258 . S
C439 N440 1.326 . S
C439 C443 1.460 . S
C439 H445 0.929 . S
N440 Mn433 2.257 . S
N440 C439 1.326 . S
N440 C444 1.362 . S
C441 C442 1.258 . S
C441 C444 1.431 . S
C441 C461 1.449 . S
C442 C441 1.258 . S
C442 C443 1.477 . S
C442 H462 0.931 . S
C443 C439 1.460 . S
C443 C442 1.477 . S
C443 H463 0.930 . S
C444 N440 1.362 . S
C444 C441 1.431 . S
C444 C454 1.476 . S
H445 C439 0.929 . S
C446 O437 1.250 . S
C446 O438 1.258 . S
O447 Mn432 2.162 . S
O447 C435 1.281 . S
O448 Mn432 2.297 . S
O448 C435 1.236 . S
N449 Mn433 2.282 . S
N449 C450 1.328 . S
N449 C454 1.318 . S
C450 N449 1.328 . S
C450 C451 1.457 . S
C450 H455 0.929 . S
C451 C450 1.457 . S
C451 C452 1.291 . S
C451 H464 0.931 . S
C452 C451 1.291 . S
C452 C453 1.373 . S
C452 H465 0.929 . S
C453 C452 1.373 . S
C453 C454 1.396 . S
C453 C460 1.403 . S
C454 C444 1.476 . S
C454 N449 1.318 . S
C454 C453 1.396 . S
H455 C450 0.929 . S
O456 Mn432 2.385 . S
O456 C434 1.234 . S
O457 Mn432 2.209 . S
O457 Mn433 2.215 . S
O457 C434 1.283 . S
O458 Mn432 2.094 . S
O458 C436 1.240 . S
O459 Mn433 2.117 . S
O459 C436 1.264 . S
C460 C453 1.403 . S
C460 C461 1.399 . S
C460 H466 0.929 . S
C461 C441 1.449 . S
C461 C460 1.399 . S
C461 H467 0.930 . S
H462 C442 0.931 . S
H463 C443 0.930 . S
H464 C451 0.931 . S
H465 C452 0.929 . S
H466 C460 0.929 . S
H467 C461 0.930 . S
Mn468 O473 2.095 . S
Mn468 O483 2.162 . S
Mn468 O484 2.297 . S
Mn468 O492 2.385 . S
Mn468 O493 2.209 . S
Mn468 O494 2.094 . S
Mn469 O474 2.121 . S
Mn469 N476 2.257 1_455 S
Mn469 N485 2.282 . S
Mn469 O493 2.215 . S
Mn469 O495 2.117 . S
C470 O492 1.234 . S
C470 O493 1.283 . S
C471 O483 1.281 . S
C471 O484 1.236 . S
C472 O494 1.240 . S
C472 O495 1.264 . S
O473 Mn468 2.095 . S
O473 C482 1.250 . S
O474 Mn469 2.121 . S
O474 C482 1.258 . S
C475 N476 1.326 . S
C475 C479 1.460 . S
C475 H481 0.929 . S
N476 Mn469 2.257 1_655 S
N476 C475 1.326 . S
N476 C480 1.362 . S
C477 C478 1.258 . S
C477 C480 1.431 . S
C477 C497 1.449 . S
C478 C477 1.258 . S
C478 C479 1.477 . S
C478 H498 0.931 . S
C479 C475 1.460 . S
C479 C478 1.477 . S
C479 H499 0.930 . S
C480 N476 1.362 . S
C480 C477 1.431 . S
C480 C490 1.476 1_655 S
H481 C475 0.929 . S
C482 O473 1.250 . S
C482 O474 1.258 . S
O483 Mn468 2.162 . S
O483 C471 1.281 . S
O484 Mn468 2.297 . S
O484 C471 1.236 . S
N485 Mn469 2.282 . S
N485 C486 1.328 . S
N485 C490 1.318 . S
C486 N485 1.328 . S
C486 C487 1.457 . S
C486 H491 0.929 . S
C487 C486 1.457 . S
C487 C488 1.291 . S
C487 H500 0.931 . S
C488 C487 1.291 . S
C488 C489 1.373 . S
C488 H501 0.929 . S
C489 C488 1.373 . S
C489 C490 1.396 . S
C489 C496 1.403 . S
C490 C480 1.476 1_455 S
C490 N485 1.318 . S
C490 C489 1.396 . S
H491 C486 0.929 . S
O492 Mn468 2.385 . S
O492 C470 1.234 . S
O493 Mn468 2.209 . S
O493 Mn469 2.215 . S
O493 C470 1.283 . S
O494 Mn468 2.094 . S
O494 C472 1.240 . S
O495 Mn469 2.117 . S
O495 C472 1.264 . S
C496 C489 1.403 . S
C496 C497 1.399 1_455 S
C496 H502 0.929 . S
C497 C477 1.449 . S
C497 C496 1.399 1_655 S
C497 H503 0.930 . S
H498 C478 0.931 . S
H499 C479 0.930 . S
H500 C487 0.931 . S
H501 C488 0.929 . S
H502 C496 0.929 . S
H503 C497 0.930 . S
Mn504 O509 2.095 . S
Mn504 O519 2.162 . S
Mn504 O520 2.297 . S
Mn504 O528 2.385 . S
Mn504 O529 2.209 . S
Mn504 O530 2.094 . S
Mn505 O510 2.121 . S
Mn505 N512 2.257 1_655 S
Mn505 N521 2.282 . S
Mn505 O529 2.215 . S
Mn505 O531 2.117 . S
C506 O528 1.234 . S
C506 O529 1.283 . S
C507 O519 1.281 . S
C507 O520 1.236 . S
C508 O530 1.240 . S
C508 O531 1.264 . S
O509 Mn504 2.095 . S
O509 C518 1.250 . S
O510 Mn505 2.121 . S
O510 C518 1.258 . S
C511 N512 1.326 . S
C511 C515 1.460 . S
C511 H517 0.929 . S
N512 Mn505 2.257 1_455 S
N512 C511 1.326 . S
N512 C516 1.362 . S
C513 C514 1.258 . S
C513 C516 1.431 . S
C513 C533 1.449 . S
C514 C513 1.258 . S
C514 C515 1.477 . S
C514 H534 0.931 . S
C515 C511 1.460 . S
C515 C514 1.477 . S
C515 H535 0.930 . S
C516 N512 1.362 . S
C516 C513 1.431 . S
C516 C526 1.476 1_455 S
H517 C511 0.929 . S
C518 O509 1.250 . S
C518 O510 1.258 . S
O519 Mn504 2.162 . S
O519 C507 1.281 . S
O520 Mn504 2.297 . S
O520 C507 1.236 . S
N521 Mn505 2.282 . S
N521 C522 1.328 . S
N521 C526 1.318 . S
C522 N521 1.328 . S
C522 C523 1.457 . S
C522 H527 0.929 . S
C523 C522 1.457 . S
C523 C524 1.291 . S
C523 H536 0.931 . S
C524 C523 1.291 . S
C524 C525 1.373 . S
C524 H537 0.929 . S
C525 C524 1.373 . S
C525 C526 1.396 . S
C525 C532 1.403 . S
C526 C516 1.476 1_655 S
C526 N521 1.318 . S
C526 C525 1.396 . S
H527 C522 0.929 . S
O528 Mn504 2.385 . S
O528 C506 1.234 . S
O529 Mn504 2.209 . S
O529 Mn505 2.215 . S
O529 C506 1.283 . S
O530 Mn504 2.094 . S
O530 C508 1.240 . S
O531 Mn505 2.117 . S
O531 C508 1.264 . S
C532 C525 1.403 . S
C532 C533 1.399 1_655 S
C532 H538 0.929 . S
C533 C513 1.449 . S
C533 C532 1.399 1_455 S
C533 H539 0.930 . S
H534 C514 0.931 . S
H535 C515 0.930 . S
H536 C523 0.931 . S
H537 C524 0.929 . S
H538 C532 0.929 . S
H539 C533 0.930 . S
Mn540 O545 2.095 . S
Mn540 O555 2.162 . S
Mn540 O556 2.297 . S
Mn540 O564 2.385 . S
Mn540 O565 2.209 . S
Mn540 O566 2.094 . S
Mn541 O546 2.121 . S
Mn541 N548 2.257 . S
Mn541 N557 2.282 . S
Mn541 O565 2.215 . S
Mn541 O567 2.117 . S
C542 O564 1.234 . S
C542 O565 1.283 . S
C543 O555 1.281 . S
C543 O556 1.236 . S
C544 O566 1.240 . S
C544 O567 1.264 . S
O545 Mn540 2.095 . S
O545 C554 1.250 . S
O546 Mn541 2.121 . S
O546 C554 1.258 . S
C547 N548 1.326 . S
C547 C551 1.460 . S
C547 H553 0.929 . S
N548 Mn541 2.257 . S
N548 C547 1.326 . S
N548 C552 1.362 . S
C549 C550 1.258 . S
C549 C552 1.431 . S
C549 C569 1.449 . S
C550 C549 1.258 . S
C550 C551 1.477 . S
C550 H570 0.931 . S
C551 C547 1.460 . S
C551 C550 1.477 . S
C551 H571 0.930 . S
C552 N548 1.362 . S
C552 C549 1.431 . S
C552 C562 1.476 . S
H553 C547 0.929 . S
C554 O545 1.250 . S
C554 O546 1.258 . S
O555 Mn540 2.162 . S
O555 C543 1.281 . S
O556 Mn540 2.297 . S
O556 C543 1.236 . S
N557 Mn541 2.282 . S
N557 C558 1.328 . S
N557 C562 1.318 . S
C558 N557 1.328 . S
C558 C559 1.457 . S
C558 H563 0.929 . S
C559 C558 1.457 . S
C559 C560 1.291 . S
C559 H572 0.931 . S
C560 C559 1.291 . S
C560 C561 1.373 . S
C560 H573 0.929 . S
C561 C560 1.373 . S
C561 C562 1.396 . S
C561 C568 1.403 . S
C562 C552 1.476 . S
C562 N557 1.318 . S
C562 C561 1.396 . S
H563 C558 0.929 . S
O564 Mn540 2.385 . S
O564 C542 1.234 . S
O565 Mn540 2.209 . S
O565 Mn541 2.215 . S
O565 C542 1.283 . S
O566 Mn540 2.094 . S
O566 C544 1.240 . S
O567 Mn541 2.117 . S
O567 C544 1.264 . S
C568 C561 1.403 . S
C568 C569 1.399 . S
C568 H574 0.929 . S
C569 C549 1.449 . S
C569 C568 1.399 . S
C569 H575 0.930 . S
H570 C550 0.931 . S
H571 C551 0.930 . S
H572 C559 0.931 . S
H573 C560 0.929 . S
H574 C568 0.929 . S
H575 C569 0.930 . S
C576 C577 1.387 . S
C576 H580 0.950 . S
C576 C585 1.390 1_565 S
C577 C576 1.387 . S
C577 C579 1.387 . S
H578 C585 0.950 . S
C579 C577 1.387 . S
C579 C581 1.390 1_565 S
C579 H583 0.950 . S
H580 C576 0.950 . S
C581 C579 1.390 1_545 S
C581 C582 1.387 . S
C581 H584 0.950 . S
C582 C581 1.387 . S
C582 C585 1.387 . S
H583 C579 0.950 . S
H584 C581 0.950 . S
C585 C576 1.390 1_545 S
C585 H578 0.950 . S
C585 C582 1.387 . S
C586 C587 1.387 . S
C586 H590 0.950 . S
C586 C595 1.390 1_565 S
C587 C586 1.387 . S
C587 C589 1.387 . S
H588 C595 0.950 . S
C589 C587 1.387 . S
C589 C591 1.390 1_565 S
C589 H593 0.950 . S
H590 C586 0.950 . S
C591 C589 1.390 1_545 S
C591 C592 1.387 . S
C591 H594 0.950 . S
C592 C591 1.387 . S
C592 C595 1.387 . S
H593 C589 0.950 . S
H594 C591 0.950 . S
C595 C586 1.390 1_545 S
C595 H588 0.950 . S
C595 C592 1.387 . S
C596 C597 1.387 . S
C596 H600 0.950 . S
C596 C605 1.390 1_565 S
C597 C596 1.387 . S
C597 C599 1.387 . S
H598 C605 0.950 . S
C599 C597 1.387 . S
C599 C601 1.390 1_565 S
C599 H603 0.950 . S
H600 C596 0.950 . S
C601 C599 1.390 1_545 S
C601 C602 1.387 . S
C601 H604 0.950 . S
C602 C601 1.387 . S
C602 C605 1.387 . S
H603 C599 0.950 . S
H604 C601 0.950 . S
C605 C596 1.390 1_545 S
C605 H598 0.950 . S
C605 C602 1.387 . S
C606 C607 1.387 . S
C606 H610 0.950 . S
C606 C615 1.390 . S
C607 C606 1.387 . S
C607 C609 1.387 1_565 S
H608 C615 0.950 . S
C609 C607 1.387 1_545 S
C609 C611 1.390 . S
C609 H613 0.950 . S
H610 C606 0.950 . S
C611 C609 1.390 . S
C611 C612 1.387 . S
C611 H614 0.950 . S
C612 C611 1.387 . S
C612 C615 1.387 1_545 S
H613 C609 0.950 . S
H614 C611 0.950 . S
C615 C606 1.390 . S
C615 H608 0.950 . S
C615 C612 1.387 1_565 S
C616 C617 1.387 . S
C616 H620 0.950 . S
C616 C625 1.390 . S
C617 C616 1.387 . S
C617 C619 1.387 . S
H618 C625 0.950 . S
C619 C617 1.387 . S
C619 C621 1.390 . S
C619 H623 0.950 . S
H620 C616 0.950 . S
C621 C619 1.390 . S
C621 C622 1.387 . S
C621 H624 0.950 . S
C622 C621 1.387 . S
C622 C625 1.387 . S
H623 C619 0.950 . S
H624 C621 0.950 . S
C625 C616 1.390 . S
C625 H618 0.950 . S
C625 C622 1.387 . S
C626 C627 1.387 . S
C626 H630 0.950 . S
C626 C635 1.390 . S
C627 C626 1.387 . S
C627 C629 1.387 . S
H628 C635 0.950 . S
C629 C627 1.387 . S
C629 C631 1.390 . S
C629 H633 0.950 . S
H630 C626 0.950 . S
C631 C629 1.390 . S
C631 C632 1.387 . S
C631 H634 0.950 . S
C632 C631 1.387 . S
C632 C635 1.387 . S
H633 C629 0.950 . S
H634 C631 0.950 . S
C635 C626 1.390 . S
C635 H628 0.950 . S
C635 C632 1.387 . S
C636 C637 1.387 . S
C636 H640 0.950 . S
C636 C645 1.390 . S
C637 C636 1.387 . S
C637 C639 1.387 . S
H638 C645 0.950 . S
C639 C637 1.387 . S
C639 C641 1.390 . S
C639 H643 0.950 . S
H640 C636 0.950 . S
C641 C639 1.390 . S
C641 C642 1.387 . S
C641 H644 0.950 . S
C642 C641 1.387 . S
C642 C645 1.387 . S
H643 C639 0.950 . S
H644 C641 0.950 . S
C645 C636 1.390 . S
C645 H638 0.950 . S
C645 C642 1.387 . S
C646 C647 1.387 . S
C646 H650 0.950 . S
C646 C655 1.390 . S
C647 C646 1.387 . S
C647 C649 1.387 . S
H648 C655 0.950 . S
C649 C647 1.387 . S
C649 C651 1.390 . S
C649 H653 0.950 . S
H650 C646 0.950 . S
C651 C649 1.390 . S
C651 C652 1.387 . S
C651 H654 0.950 . S
C652 C651 1.387 . S
C652 C655 1.387 . S
H653 C649 0.950 . S
H654 C651 0.950 . S
C655 C646 1.390 . S
C655 H648 0.950 . S
C655 C652 1.387 . S
C656 C657 1.387 . S
C656 H660 0.950 1_545 S
C656 C665 1.390 1_655 S
C657 C656 1.387 . S
C657 C659 1.387 . S
H658 C665 0.950 1_565 S
C659 C657 1.387 . S
C659 C661 1.390 1_655 S
C659 H663 0.950 . S
H660 C656 0.950 1_565 S
C661 C659 1.390 1_455 S
C661 C662 1.387 . S
C661 H664 0.950 . S
C662 C661 1.387 . S
C662 C665 1.387 . S
H663 C659 0.950 . S
H664 C661 0.950 . S
C665 C656 1.390 1_455 S
C665 H658 0.950 1_545 S
C665 C662 1.387 . S
C666 C667 1.387 . S
C666 H670 0.950 1_565 S
C666 C675 1.390 . S
C667 C666 1.387 . S
C667 C669 1.387 . S
H668 C675 0.950 1_545 S
C669 C667 1.387 . S
C669 C671 1.390 . S
C669 H673 0.950 . S
H670 C666 0.950 1_545 S
C671 C669 1.390 . S
C671 C672 1.387 . S
C671 H674 0.950 . S
C672 C671 1.387 . S
C672 C675 1.387 . S
H673 C669 0.950 . S
H674 C671 0.950 . S
C675 C666 1.390 . S
C675 H668 0.950 1_565 S
C675 C672 1.387 . S
C676 C677 1.387 . S
C676 H680 0.950 1_565 S
C676 C685 1.390 1_455 S
C677 C676 1.387 . S
C677 C679 1.387 . S
H678 C685 0.950 1_545 S
C679 C677 1.387 . S
C679 C681 1.390 1_455 S
C679 H683 0.950 . S
H680 C676 0.950 1_545 S
C681 C679 1.390 1_655 S
C681 C682 1.387 . S
C681 H684 0.950 . S
C682 C681 1.387 . S
C682 C685 1.387 . S
H683 C679 0.950 . S
H684 C681 0.950 . S
C685 C676 1.390 1_655 S
C685 H678 0.950 1_565 S
C685 C682 1.387 . S
C686 C687 1.387 . S
C686 H690 0.950 . S
C686 C695 1.390 . S
C687 C686 1.387 . S
C687 C689 1.387 . S
H688 C695 0.950 . S
C689 C687 1.387 . S
C689 C691 1.390 . S
C689 H693 0.950 1_545 S
H690 C686 0.950 . S
C691 C689 1.390 . S
C691 C692 1.387 . S
C691 H694 0.950 1_545 S
C692 C691 1.387 . S
C692 C695 1.387 . S
H693 C689 0.950 1_565 S
H694 C691 0.950 1_565 S
C695 C686 1.390 . S
C695 H688 0.950 . S
C695 C692 1.387 . S
C696 C697 1.387 . S
C696 H700 0.950 . S
C696 C705 1.390 . S
C697 C696 1.387 . S
C697 C699 1.387 . S
H698 C705 0.950 . S
C699 C697 1.387 . S
C699 C701 1.390 . S
C699 H703 0.950 . S
H700 C696 0.950 . S
C701 C699 1.390 . S
C701 C702 1.387 . S
C701 H704 0.950 . S
C702 C701 1.387 . S
C702 C705 1.387 . S
H703 C699 0.950 . S
H704 C701 0.950 . S
C705 C696 1.390 . S
C705 H698 0.950 . S
C705 C702 1.387 . S
C706 C707 1.387 . S
C706 H710 0.950 . S
C706 C715 1.390 1_455 S
C707 C706 1.387 . S
C707 C709 1.387 . S
H708 C715 0.950 . S
C709 C707 1.387 . S
C709 C711 1.390 1_455 S
C709 H713 0.950 . S
H710 C706 0.950 . S
C711 C709 1.390 1_655 S
C711 C712 1.387 . S
C711 H714 0.950 . S
C712 C711 1.387 . S
C712 C715 1.387 . S
H713 C709 0.950 . S
H714 C711 0.950 . S
C715 C706 1.390 1_655 S
C715 H708 0.950 . S
C715 C712 1.387 . S
C716 C717 1.387 . S
C716 H720 0.950 . S
C716 C725 1.390 . S
C717 C716 1.387 . S
C717 C719 1.387 . S
H718 C725 0.950 . S
C719 C717 1.387 . S
C719 C721 1.390 . S
C719 H723 0.950 . S
H720 C716 0.950 . S
C721 C719 1.390 . S
C721 C722 1.387 . S
C721 H724 0.950 . S
C722 C721 1.387 . S
C722 C725 1.387 . S
H723 C719 0.950 . S
H724 C721 0.950 . S
C725 C716 1.390 . S
C725 H718 0.950 . S
C725 C722 1.387 . S
C726 C727 1.387 . S
C726 H730 0.950 . S
C726 C735 1.390 1_455 S
C727 C726 1.387 . S
C727 C729 1.387 . S
H728 C735 0.950 . S
C729 C727 1.387 . S
C729 C731 1.390 1_455 S
C729 H733 0.950 . S
H730 C726 0.950 . S
C731 C729 1.390 1_655 S
C731 C732 1.387 . S
C731 H734 0.950 . S
C732 C731 1.387 . S
C732 C735 1.387 . S
H733 C729 0.950 . S
H734 C731 0.950 . S
C735 C726 1.390 1_655 S
C735 H728 0.950 . S
C735 C732 1.387 . S
C736 C737 1.387 . S
C736 H740 0.950 . S
C736 C745 1.390 1_455 S
C737 C736 1.387 . S
C737 C739 1.387 . S
H738 C745 0.950 . S
C739 C737 1.387 . S
C739 C741 1.390 1_455 S
C739 H743 0.950 . S
H740 C736 0.950 . S
C741 C739 1.390 1_655 S
C741 C742 1.387 . S
C741 H744 0.950 . S
C742 C741 1.387 . S
C742 C745 1.387 . S
H743 C739 0.950 . S
H744 C741 0.950 . S
C745 C736 1.390 1_655 S
C745 H738 0.950 . S
C745 C742 1.387 . S
C746 C747 1.387 . S
C746 H750 0.950 . S
C746 C755 1.390 . S
C747 C746 1.387 . S
C747 C749 1.387 . S
H748 C755 0.950 . S
C749 C747 1.387 . S
C749 C751 1.390 . S
C749 H753 0.950 . S
H750 C746 0.950 . S
C751 C749 1.390 . S
C751 C752 1.387 . S
C751 H754 0.950 . S
C752 C751 1.387 . S
C752 C755 1.387 . S
H753 C749 0.950 . S
H754 C751 0.950 . S
C755 C746 1.390 . S
C755 H748 0.950 . S
C755 C752 1.387 . S
C756 C757 1.387 . S
C756 H760 0.950 . S
C756 C765 1.390 . S
C757 C756 1.387 . S
C757 C759 1.387 . S
H758 C765 0.950 . S
C759 C757 1.387 . S
C759 C761 1.390 . S
C759 H763 0.950 . S
H760 C756 0.950 . S
C761 C759 1.390 . S
C761 C762 1.387 . S
C761 H764 0.950 . S
C762 C761 1.387 . S
C762 C765 1.387 . S
H763 C759 0.950 . S
H764 C761 0.950 . S
C765 C756 1.390 . S
C765 H758 0.950 . S
C765 C762 1.387 . S
C766 C767 1.387 . S
C766 H770 0.950 . S
C766 C775 1.390 1_455 S
C767 C766 1.387 . S
C767 C769 1.387 . S
H768 C775 0.950 . S
C769 C767 1.387 . S
C769 C771 1.390 1_455 S
C769 H773 0.950 . S
H770 C766 0.950 . S
C771 C769 1.390 1_655 S
C771 C772 1.387 . S
C771 H774 0.950 . S
C772 C771 1.387 . S
C772 C775 1.387 . S
H773 C769 0.950 . S
H774 C771 0.950 . S
C775 C766 1.390 1_655 S
C775 H768 0.950 . S
C775 C772 1.387 . S
C776 C777 1.387 . S
C776 H780 0.950 . S
C776 C785 1.390 1_455 S
C777 C776 1.387 . S
C777 C779 1.387 . S
H778 C785 0.950 . S
C779 C777 1.387 . S
C779 C781 1.390 1_455 S
C779 H783 0.950 . S
H780 C776 0.950 . S
C781 C779 1.390 1_655 S
C781 C782 1.387 . S
C781 H784 0.950 . S
C782 C781 1.387 . S
C782 C785 1.387 . S
H783 C779 0.950 . S
H784 C781 0.950 . S
C785 C776 1.390 1_655 S
C785 H778 0.950 . S
C785 C782 1.387 . S
C786 C787 1.387 . S
C786 H790 0.950 . S
C786 C795 1.390 . S
C787 C786 1.387 . S
C787 C789 1.387 . S
H788 C795 0.950 . S
C789 C787 1.387 . S
C789 C791 1.390 . S
C789 H793 0.950 . S
H790 C786 0.950 . S
C791 C789 1.390 . S
C791 C792 1.387 . S
C791 H794 0.950 . S
C792 C791 1.387 . S
C792 C795 1.387 . S
H793 C789 0.950 . S
H794 C791 0.950 . S
C795 C786 1.390 . S
C795 H788 0.950 . S
C795 C792 1.387 . S
C796 C797 1.387 . S
C796 H800 0.950 . S
C796 C805 1.390 . S
C797 C796 1.387 . S
C797 C799 1.387 . S
H798 C805 0.950 . S
C799 C797 1.387 . S
C799 C801 1.390 . S
C799 H803 0.950 . S
H800 C796 0.950 . S
C801 C799 1.390 . S
C801 C802 1.387 . S
C801 H804 0.950 . S
C802 C801 1.387 . S
C802 C805 1.387 . S
H803 C799 0.950 . S
H804 C801 0.950 . S
C805 C796 1.390 . S
C805 H798 0.950 . S
C805 C802 1.387 . S
C806 C807 1.387 . S
C806 H810 0.950 . S
C806 C815 1.390 1_455 S
C807 C806 1.387 . S
C807 C809 1.387 . S
H808 C815 0.950 . S
C809 C807 1.387 . S
C809 C811 1.390 1_455 S
C809 H813 0.950 . S
H810 C806 0.950 . S
C811 C809 1.390 1_655 S
C811 C812 1.387 . S
C811 H814 0.950 . S
C812 C811 1.387 . S
C812 C815 1.387 . S
H813 C809 0.950 . S
H814 C811 0.950 . S
C815 C806 1.390 1_655 S
C815 H808 0.950 . S
C815 C812 1.387 . S
C816 C817 1.387 1_445 S
C816 H820 0.950 . S
C816 C825 1.390 1_556 S
C817 C816 1.387 1_665 S
C817 C819 1.387 . S
H818 C825 0.950 . S
C819 C817 1.387 . S
C819 C821 1.390 1_556 S
C819 H823 0.950 . S
H820 C816 0.950 . S
C821 C819 1.390 1_554 S
C821 C822 1.387 1_665 S
C821 H824 0.950 . S
C822 C821 1.387 1_445 S
C822 C825 1.387 . S
H823 C819 0.950 . S
H824 C821 0.950 . S
C825 C816 1.390 1_554 S
C825 H818 0.950 . S
C825 C822 1.387 . S
C826 C827 1.387 . S
C826 H830 0.950 . S
C826 C835 1.390 1_556 S
C827 C826 1.387 . S
C827 C829 1.387 1_545 S
H828 C835 0.950 . S
C829 C827 1.387 1_565 S
C829 C831 1.390 1_556 S
C829 H833 0.950 . S
H830 C826 0.950 . S
C831 C829 1.390 1_554 S
C831 C832 1.387 . S
C831 H834 0.950 . S
C832 C831 1.387 . S
C832 C835 1.387 1_565 S
H833 C829 0.950 . S
H834 C831 0.950 . S
C835 C826 1.390 1_554 S
C835 H828 0.950 . S
C835 C832 1.387 1_545 S
C836 C837 1.387 1_565 S
C836 H840 0.950 . S
C836 C845 1.390 . S
C837 C836 1.387 1_545 S
C837 C839 1.387 . S
H838 C845 0.950 . S
C839 C837 1.387 . S
C839 C841 1.390 . S
C839 H843 0.950 . S
H840 C836 0.950 . S
C841 C839 1.390 . S
C841 C842 1.387 1_545 S
C841 H844 0.950 . S
C842 C841 1.387 1_565 S
C842 C845 1.387 . S
H843 C839 0.950 . S
H844 C841 0.950 . S
C845 C836 1.390 . S
C845 H838 0.950 . S
C845 C842 1.387 . S
C846 C847 1.387 1_545 S
C846 H850 0.950 . S
C846 C855 1.390 . S
C847 C846 1.387 1_565 S
C847 C849 1.387 1_455 S
H848 C855 0.950 . S
C849 C847 1.387 1_655 S
C849 C851 1.390 . S
C849 H853 0.950 . S
H850 C846 0.950 . S
C851 C849 1.390 . S
C851 C852 1.387 1_565 S
C851 H854 0.950 . S
C852 C851 1.387 1_545 S
C852 C855 1.387 1_655 S
H853 C849 0.950 . S
H854 C851 0.950 . S
C855 C846 1.390 . S
C855 H848 0.950 . S
C855 C852 1.387 1_455 S
C856 C857 1.387 . S
C856 H860 0.950 . S
C856 C865 1.390 1_554 S
C857 C856 1.387 . S
C857 C859 1.387 . S
H858 C865 0.950 . S
C859 C857 1.387 . S
C859 C861 1.390 1_554 S
C859 H863 0.950 . S
H860 C856 0.950 . S
C861 C859 1.390 1_556 S
C861 C862 1.387 . S
C861 H864 0.950 . S
C862 C861 1.387 . S
C862 C865 1.387 . S
H863 C859 0.950 . S
H864 C861 0.950 . S
C865 C856 1.390 1_556 S
C865 H858 0.950 . S
C865 C862 1.387 . S
C866 C867 1.387 1_455 S
C866 H870 0.950 . S
C866 C875 1.390 1_554 S
C867 C866 1.387 1_655 S
C867 C869 1.387 . S
H868 C875 0.950 . S
C869 C867 1.387 . S
C869 C871 1.390 1_554 S
C869 H873 0.950 . S
H870 C866 0.950 . S
C871 C869 1.390 1_556 S
C871 C872 1.387 1_655 S
C871 H874 0.950 . S
C872 C871 1.387 1_455 S
C872 C875 1.387 . S
H873 C869 0.950 . S
H874 C871 0.950 . S
C875 C866 1.390 1_556 S
C875 H868 0.950 . S
C875 C872 1.387 . S
C876 C877 1.387 1_455 S
C876 H880 0.950 . S
C876 C885 1.390 . S
C877 C876 1.387 1_655 S
C877 C879 1.387 . S
H878 C885 0.950 . S
C879 C877 1.387 . S
C879 C881 1.390 . S
C879 H883 0.950 . S
H880 C876 0.950 . S
C881 C879 1.390 . S
C881 C882 1.387 1_655 S
C881 H884 0.950 . S
C882 C881 1.387 1_455 S
C882 C885 1.387 . S
H883 C879 0.950 . S
H884 C881 0.950 . S
C885 C876 1.390 . S
C885 H878 0.950 . S
C885 C882 1.387 . S
C886 C887 1.387 . S
C886 H890 0.950 . S
C886 C895 1.390 . S
C887 C886 1.387 . S
C887 C889 1.387 . S
H888 C895 0.950 . S
C889 C887 1.387 . S
C889 C891 1.390 . S
C889 H893 0.950 . S
H890 C886 0.950 . S
C891 C889 1.390 . S
C891 C892 1.387 . S
C891 H894 0.950 . S
C892 C891 1.387 . S
C892 C895 1.387 . S
H893 C889 0.950 . S
H894 C891 0.950 . S
C895 C886 1.390 . S
C895 H888 0.950 . S
C895 C892 1.387 . S
C577 C40 1.502 . S
C582 C4 1.502 . S
C587 C76 1.502 . S
C592 C112 1.502 . S
C597 C148 1.502 . S
C602 C184 1.502 . S
C607 C256 1.502 . S
C612 C220 1.502 . S
C617 C328 1.503 . S
C622 C292 1.503 . S
C627 C400 1.502 . S
C632 C364 1.502 . S
C637 C472 1.503 . S
C642 C436 1.503 . S
C647 C544 1.502 . S
C652 C508 1.502 . S
C657 C110 1.370 . S
C662 C2 1.370 . S
C667 C38 1.370 . S
C672 C74 1.370 . S
C677 C254 1.368 . S
C682 C146 1.368 . S
C687 C218 1.370 . S
C692 C182 1.370 . S
C697 C290 1.368 . S
C702 C398 1.368 . S
C707 C362 1.370 . S
C712 C326 1.370 . S
C717 C542 1.370 . S
C722 C434 1.370 . S
C727 C470 1.368 . S
C732 C506 1.368 . S
C737 C3 1.510 . S
C742 C327 1.510 . S
C747 C39 1.510 . S
C752 C291 1.510 . S
C757 C399 1.510 . S
C762 C75 1.510 . S
C767 C363 1.510 . S
C772 C111 1.510 . S
C777 C471 1.510 . S
C782 C147 1.510 . S
C787 C435 1.510 . S
C792 C183 1.510 . S
C797 C219 1.510 . S
C802 C543 1.510 . S
C807 C255 1.510 . S
C812 C507 1.510 . S
C817 C158 1.328 . S
C822 C14 1.328 . S
C827 C194 1.327 . S
C832 C50 1.327 . S
C837 C230 1.328 . S
C842 C86 1.328 . S
C847 C266 1.327 . S
C852 C122 1.327 . S
C857 C302 1.325 . S
C862 C446 1.325 . S
C867 C338 1.326 . S
C872 C482 1.326 . S
C877 C518 1.328 . S
C882 C374 1.328 . S
C887 C554 1.325 . S
C892 C410 1.325 . S
