# Generated by pormake.
# Topology rob, (6)-cn, num edge types: 1
# Building blocks:
#     Node 0, Type 0, BuildingBlock: CUWYAW_clean_sbu_0, # of connection points: 6
#     Node 1, Type 0, BuildingBlock: CUWYAW_clean_sbu_0, # of connection points: 6
#     Node 2, Type 0, BuildingBlock: CUWYAW_clean_sbu_0, # of connection points: 6
#     Node 3, Type 0, BuildingBlock: CUWYAW_clean_sbu_0, # of connection points: 6
#     Edge 4, Type (0, 0), BuildingBlock: FUNLAD_clean_linker_1, # of connection points: 2
#     Edge 5, Type (0, 0), BuildingBlock: FUNLAD_clean_linker_1, # of connection points: 2
#     Edge 6, Type (0, 0), BuildingBlock: FUNLAD_clean_linker_1, # of connection points: 2
#     Edge 7, Type (0, 0), BuildingBlock: FUNLAD_clean_linker_1, # of connection points: 2
#     Edge 8, Type (0, 0), BuildingBlock: FUNLAD_clean_linker_1, # of connection points: 2
#     Edge 9, Type (0, 0), BuildingBlock: FUNLAD_clean_linker_1, # of connection points: 2
#     Edge 10, Type (0, 0), BuildingBlock: FUNLAD_clean_linker_1, # of connection points: 2
#     Edge 11, Type (0, 0), BuildingBlock: FUNLAD_clean_linker_1, # of connection points: 2
#     Edge 12, Type (0, 0), BuildingBlock: FUNLAD_clean_linker_1, # of connection points: 2
#     Edge 13, Type (0, 0), BuildingBlock: FUNLAD_clean_linker_1, # of connection points: 2
#     Edge 14, Type (0, 0), BuildingBlock: FUNLAD_clean_linker_1, # of connection points: 2
#     Edge 15, Type (0, 0), BuildingBlock: FUNLAD_clean_linker_1, # of connection points: 2
# Relax obj value: 0.037
# Max RMSD: 0.141
# Mean RMSD: 0.141
data_MOF--net-rob--node1-CUWYAW_clean_sbu_0--edge1-FUNLAD_clean_linker_1
_symmetry_space_group_name_H-M    P1
_symmetry_Int_Tables_number       1
_symmetry_cell_setting            triclinic
loop_
_symmetry_equiv_pos_as_xyz
'x, y, z'
_cell_length_a     16.524044
_cell_length_b     25.185505
_cell_length_c     37.789659
_cell_angle_alpha  94.967536
_cell_angle_beta   89.875287
_cell_angle_gamma 88.599794
loop_
_atom_site_label
_atom_site_type_symbol
_atom_site_fract_x
_atom_site_fract_y
_atom_site_fract_z
_atom_type_partial_charge
C0 C 0.46532 0.21813 0.96525 0.0
Eu1 Eu 0.33868 0.24154 1.00548 0.0
C2 C 0.48771 0.21823 0.92756 0.0
C3 C 0.42867 0.21977 0.901 0.0
C4 C 0.45144 0.22256 0.86547 0.0
C5 C 0.53402 0.22365 0.85596 0.0
C6 C 0.59249 0.22161 0.88282 0.0
C7 C 0.56961 0.21896 0.91821 0.0
C8 C 0.21532 0.17719 0.0187 0.0
C9 C 0.19493 0.29872 0.96061 0.0
C10 C 0.074 0.32228 0.08742 0.0
Eu11 Eu 0.19493 0.29758 0.04438 0.0
C12 C 0.05472 0.31235 0.12441 0.0
C13 C 0.02678 0.35471 0.14818 0.0
C14 C 0.00865 0.34636 0.18341 0.0
C15 C 0.01822 0.29527 0.19554 0.0
C16 C 0.04618 0.25292 0.17168 0.0
C17 C 0.06497 0.26139 0.13653 0.0
C18 C 0.31859 0.3616 0.03079 0.0
C19 C 0.33448 0.23828 0.08882 0.0
O20 O 0.45178 0.26498 0.98225 0.0
O21 O 0.41291 0.18293 0.97331 0.0
O22 O 0.29104 0.16222 0.0198 0.0
O23 O 0.20841 0.22365 1.00898 0.0
O24 O 0.27104 0.28094 0.96166 0.0
O25 O 0.14829 0.30409 0.98916 0.0
O26 O 0.07478 0.28102 0.0638 0.0
O27 O 0.13391 0.35415 0.08326 0.0
O28 O 0.24286 0.3763 0.02921 0.0
O29 O 0.32526 0.31539 0.04098 0.0
O30 O 0.25692 0.2516 0.08643 0.0
O31 O 0.38391 0.23841 0.06138 0.0
H32 H 0.36503 0.21937 0.90782 0.0
H33 H 0.40397 0.22469 0.84599 0.0
H34 H 0.65641 0.22253 0.87647 0.0
H35 H 0.61601 0.21804 0.93838 0.0
H36 H 0.01845 0.3943 0.1394 0.0
H37 H 0.98519 0.37971 0.2007 0.0
H38 H 0.0538 0.21318 0.18029 0.0
H39 H 0.08727 0.22803 0.11888 0.0
C40 C 0.95434 0.72373 0.96111 0.0
Eu41 Eu 0.83575 0.74505 1.0061 0.0
C42 C 0.95959 0.72334 0.9221 0.0
C43 C 0.88952 0.71899 0.90117 0.0
C44 C 0.8945 0.71982 0.86425 0.0
C45 C 0.96941 0.72552 0.84748 0.0
C46 C 0.03969 0.72945 0.86861 0.0
C47 C 0.03459 0.72857 0.90557 0.0
C48 C 0.71002 0.68065 1.01571 0.0
C49 C 0.69552 0.80574 0.9624 0.0
C50 C 0.56538 0.81809 0.08721 0.0
Eu51 Eu 0.69094 0.79929 0.0456 0.0
C52 C 0.54595 0.82088 0.12556 0.0
C53 C 0.48931 0.8592 0.13993 0.0
C54 C 0.46697 0.86101 0.17577 0.0
C55 C 0.50006 0.82417 0.19797 0.0
C56 C 0.55846 0.78651 0.18369 0.0
C57 C 0.58115 0.7849 0.14785 0.0
C58 C 0.81575 0.86405 0.0354 0.0
C59 C 0.83723 0.74176 0.08971 0.0
O60 O 0.9423 0.77054 0.97839 0.0
O61 O 0.90962 0.68714 0.97326 0.0
O62 O 0.78528 0.66493 0.0168 0.0
O63 O 0.70463 0.72809 1.0077 0.0
O64 O 0.7726 0.79185 0.96494 0.0
O65 O 0.64526 0.80507 0.98961 0.0
O66 O 0.585 0.77097 0.07177 0.0
O67 O 0.60985 0.85589 0.07639 0.0
O68 O 0.74023 0.87972 0.03452 0.0
O69 O 0.82156 0.81673 0.04365 0.0
O70 O 0.76126 0.76004 0.08894 0.0
O71 O 0.88359 0.73674 0.06103 0.0
H72 H 0.83084 0.71498 0.91337 0.0
H73 H 0.83945 0.71634 0.84878 0.0
H74 H 0.09894 0.73233 0.85683 0.0
H75 H 0.08934 0.73187 0.92126 0.0
H76 H 0.46159 0.88745 0.12329 0.0
H77 H 0.42251 0.89079 0.18604 0.0
H78 H 0.58726 0.75851 0.20008 0.0
H79 H 0.62571 0.75526 0.13753 0.0
C80 C 0.46677 0.78656 0.58854 0.0
Eu81 Eu 0.34317 0.77871 0.54553 0.0
C82 C 0.47559 0.79265 0.62753 0.0
C83 C 0.41016 0.81063 0.64948 0.0
C84 C 0.41826 0.81471 0.68647 0.0
C85 C 0.49182 0.80095 0.70244 0.0
C86 C 0.55731 0.78271 0.68016 0.0
C87 C 0.54905 0.77866 0.64312 0.0
C88 C 0.2446 0.86226 0.53121 0.0
C89 C 0.18715 0.74857 0.59284 0.0
C90 C 0.06591 0.73741 0.46731 0.0
Eu91 Eu 0.19092 0.74641 0.50943 0.0
C92 C 0.04858 0.7413 0.42922 0.0
C93 C 1.00134 0.70246 0.41092 0.0
C94 C 0.98261 0.70561 0.37505 0.0
C95 C 0.01093 0.74785 0.35667 0.0
C96 C 0.05839 0.78666 0.37507 0.0
C97 C 0.07758 0.78329 0.41091 0.0
C98 C 0.28927 0.66309 0.52449 0.0
C99 C 0.34733 0.77567 0.46246 0.0
O100 O 0.4386 0.7411 0.57528 0.0
O101 O 0.43412 0.82706 0.57393 0.0
O102 O 0.32275 0.86179 0.52816 0.0
O103 O 0.22155 0.81954 0.54285 0.0
O104 O 0.26638 0.75177 0.59017 0.0
O105 O 0.13966 0.75189 0.56505 0.0
O106 O 0.08351 0.78142 0.48637 0.0
O107 O 0.11126 0.69688 0.47508 0.0
O108 O 0.2112 0.66414 0.52816 0.0
O109 O 0.31236 0.70537 0.51223 0.0
O110 O 0.26755 0.77633 0.46531 0.0
O111 O 0.39379 0.76861 0.49004 0.0
H112 H 0.35259 0.82127 0.63802 0.0
H113 H 0.36654 0.82858 0.7027 0.0
H114 H 0.61487 0.7708 0.69081 0.0
H115 H 0.59998 0.76413 0.62661 0.0
H116 H 0.97803 0.66989 0.42454 0.0
H117 H 0.94398 0.67573 0.36222 0.0
H118 H 0.08071 0.81975 0.36167 0.0
H119 H 0.11452 0.81373 0.42431 0.0
C120 C 0.96461 0.28592 0.58415 0.0
Eu121 Eu 0.83731 0.27664 0.54334 0.0
C122 C 0.98716 0.29377 0.6219 0.0
C123 C 0.05957 0.31908 0.6311 0.0
C124 C 0.08405 0.32569 0.66654 0.0
C125 C 0.03682 0.30698 0.69361 0.0
C126 C 0.96297 0.28249 0.68432 0.0
C127 C 0.93863 0.27584 0.64874 0.0
C128 C 0.73846 0.35909 0.52718 0.0
C129 C 0.67758 0.2485 0.58859 0.0
C130 C 0.56209 0.23357 0.4636 0.0
Eu131 Eu 0.68876 0.24238 0.50478 0.0
C132 C 0.53949 0.22472 0.42579 0.0
C133 C 0.47784 0.1891 0.41613 0.0
C134 C 0.45189 0.18175 0.38091 0.0
C135 C 0.48632 0.21031 0.35459 0.0
C136 C 0.54967 0.2452 0.36413 0.0
C137 C 0.57593 0.25235 0.39944 0.0
C138 C 0.78807 0.16006 0.52101 0.0
C139 C 0.84829 0.27083 0.45946 0.0
O140 O 0.93332 0.24024 0.57317 0.0
O141 O 0.92882 0.32618 0.57052 0.0
O142 O 0.8167 0.35923 0.52534 0.0
O143 O 0.71521 0.31623 0.53857 0.0
O144 O 0.75726 0.25216 0.58805 0.0
O145 O 0.6343 0.25104 0.55955 0.0
O146 O 0.59451 0.27908 0.47417 0.0
O147 O 0.5957 0.19337 0.47818 0.0
O148 O 0.70978 0.15968 0.52276 0.0
O149 O 0.81088 0.20291 0.50949 0.0
O150 O 0.76883 0.26598 0.45993 0.0
O151 O 0.89169 0.2695 0.48855 0.0
H152 H 0.09775 0.33335 0.61077 0.0
H153 H 0.14083 0.34495 0.67274 0.0
H154 H 0.92348 0.26846 0.70415 0.0
H155 H 0.88226 0.25642 0.64216 0.0
H156 H 0.44894 0.16734 0.436 0.0
H157 H 0.40359 0.15431 0.37434 0.0
H158 H 0.5796 0.26674 0.3445 0.0
H159 H 0.62427 0.2797 0.40611 0.0
H160 H 0.57973 0.66281 1.01427 0.0
C161 C 0.64004 0.64546 0.01697 0.0
H162 H 0.70917 0.57561 0.02387 0.0
H163 H 0.42278 0.45352 0.08975 0.0
H164 H 0.50406 0.47534 0.14199 0.0
H165 H 0.62032 0.53453 0.13969 0.0
H166 H 0.65562 0.57258 0.08511 0.0
C167 C 0.64916 0.59291 0.02027 0.0
C168 C 0.57843 0.55717 0.02123 0.0
C169 C 0.55954 0.53413 0.05309 0.0
C170 C 0.49322 0.49917 0.05424 0.0
C171 C 0.47386 0.47884 0.08694 0.0
C172 C 0.51969 0.4914 0.11728 0.0
C173 C 0.58509 0.52477 0.11599 0.0
C174 C 0.60484 0.54619 0.08442 0.0
H175 H 0.44821 0.38111 0.03192 0.0
C176 C 0.38752 0.39745 0.02852 0.0
H177 H 0.31666 0.46591 0.01987 0.0
H178 H 0.60077 0.59144 0.95504 0.0
H179 H 0.51879 0.57016 0.90291 0.0
H180 H 0.4033 0.51036 0.90507 0.0
H181 H 0.36915 0.47126 0.95942 0.0
C182 C 0.37703 0.44959 0.02405 0.0
C183 C 0.44676 0.48624 0.02323 0.0
C184 C 0.4653 0.5096 0.99143 0.0
C185 C 0.53148 0.54471 0.99031 0.0
C186 C 0.55011 0.56572 0.95776 0.0
C187 C 0.50385 0.55354 0.9275 0.0
C188 C 0.43884 0.51983 0.92871 0.0
C189 C 0.41975 0.4978 0.96014 0.0
H190 H 0.30927 0.57928 0.5357 0.0
C191 C 0.33957 0.61399 0.5274 0.0
H192 H 0.45093 0.64466 0.51225 0.0
H193 H 0.66149 0.46969 0.58551 0.0
H194 H 0.68196 0.54762 0.62648 0.0
H195 H 0.60508 0.63149 0.6203 0.0
H196 H 0.50673 0.63777 0.57324 0.0
C197 C 0.41918 0.60992 0.51957 0.0
C198 C 0.46705 0.55894 0.52252 0.0
C199 C 0.5259 0.55592 0.54963 0.0
C200 C 0.57141 0.5076 0.55282 0.0
C201 C 0.62704 0.50556 0.58115 0.0
C202 C 0.639 0.54995 0.60505 0.0
C203 C 0.59564 0.59715 0.6016 0.0
C204 C 0.53949 0.60026 0.57439 0.0
H205 H 0.71791 0.44301 0.51644 0.0
C206 C 0.68762 0.4079 0.52409 0.0
H207 H 0.57596 0.3763 0.53793 0.0
H208 H 0.36434 0.55143 0.46569 0.0
H209 H 0.34419 0.4736 0.42457 0.0
H210 H 0.42174 0.38992 0.43047 0.0
H211 H 0.52026 0.38361 0.47746 0.0
C212 C 0.60766 0.41139 0.53122 0.0
C213 C 0.55951 0.46231 0.52838 0.0
C214 C 0.50068 0.46534 0.50126 0.0
C215 C 0.45502 0.51362 0.49814 0.0
C216 C 0.39913 0.51563 0.46991 0.0
C217 C 0.38731 0.47129 0.44594 0.0
C218 C 0.43102 0.42418 0.44924 0.0
C219 C 0.48728 0.42107 0.47642 0.0
H220 H 0.08542 0.15903 0.01892 0.0
C221 C 0.14588 0.14217 0.02211 0.0
H222 H 0.2155 0.07281 0.02969 0.0
H223 H 0.84816 1.01094 0.08495 0.0
H224 H 0.86589 0.08073 0.13246 0.0
H225 H 0.98451 0.13839 0.13341 0.0
H226 H 0.08595 0.1268 0.08684 0.0
C227 C 0.15513 0.09043 0.02785 0.0
C228 C 0.08432 0.05462 0.02825 0.0
C229 C 0.02585 0.06152 0.05596 0.0
C230 C 0.95789 0.02769 0.05565 0.0
C231 C 0.90069 0.03554 0.08371 0.0
C232 C 0.91024 0.07536 0.11124 0.0
C233 C 0.97698 0.10786 0.11177 0.0
C234 C 0.0345 0.10102 0.08466 0.0
H235 H 0.94603 0.88136 0.03608 0.0
C236 C 0.8859 0.89884 0.0331 0.0
H237 H 0.81754 0.96906 0.02647 0.0
H238 H 0.18545 0.02989 0.97144 0.0
H239 H 0.16763 0.9603 0.92385 0.0
H240 H 0.04875 0.90283 0.92273 0.0
H241 H 0.94724 0.91442 0.96923 0.0
C242 C 0.87762 0.95094 0.02817 0.0
C243 C 0.94901 0.98633 0.02802 0.0
C244 C 0.00752 0.97944 1.00032 0.0
C245 C 0.07554 1.01322 1.00066 0.0
C246 C 0.13282 1.00538 0.97263 0.0
C247 C 0.12323 0.96566 0.94504 0.0
C248 C 0.05636 0.93327 0.94443 0.0
C249 C 0.99879 0.94009 0.97152 0.0
H250 H 0.8094 0.07599 0.53133 0.0
C251 C 0.83954 0.11161 0.5245 0.0
H252 H 0.95173 0.14493 0.51331 0.0
H253 H 0.15468 0.97014 0.59051 0.0
H254 H 0.16314 0.04626 0.63413 0.0
H255 H 0.08371 0.12892 0.62723 0.0
H256 H 0.99483 0.13584 0.57677 0.0
C257 C 0.9202 0.10929 0.51908 0.0
C258 C 0.96924 0.05898 0.52273 0.0
C259 C 0.02238 0.05562 0.55196 0.0
C260 C 0.06915 1.00798 0.55571 0.0
C261 C 0.11927 1.00554 0.58589 0.0
C262 C 0.12438 0.04888 0.61126 0.0
C263 C 0.07961 0.09541 0.60739 0.0
C264 C 0.02895 0.0989 0.57823 0.0
H265 H 0.22366 0.94631 0.52075 0.0
C266 C 0.19347 0.91087 0.52788 0.0
H267 H 0.08134 0.87793 0.53964 0.0
H268 H 0.87844 0.05243 0.46211 0.0
H269 H 0.87025 0.97633 0.41844 0.0
H270 H 0.9502 0.89383 0.42523 0.0
H271 H 0.03905 0.88699 0.4757 0.0
C272 C 0.11292 0.9134 0.53358 0.0
C273 C 0.06402 0.96371 0.52988 0.0
C274 C 0.01101 0.96709 0.50061 0.0
C275 C 0.96412 1.01469 0.49689 0.0
C276 C 0.91397 0.01708 0.46671 0.0
C277 C 0.90903 0.97375 0.44131 0.0
C278 C 0.95407 0.9273 0.44511 0.0
C279 C 1.0047 0.92385 0.47428 0.0
H280 H 0.42088 0.16629 0.31052 0.0
C281 C 0.45476 0.20212 0.31765 0.0
H282 H 0.48888 0.27612 0.3004 0.0
H283 H 0.41813 0.13569 0.14677 0.0
H284 H 0.53299 0.07973 0.16095 0.0
H285 H 0.60081 0.09333 0.219 0.0
H286 H 0.55282 0.16201 0.26355 0.0
C287 C 0.46139 0.23796 0.29344 0.0
C288 C 0.42223 0.22988 0.25788 0.0
C289 C 0.45356 0.19122 0.23153 0.0
C290 C 0.41738 0.18541 0.19726 0.0
C291 C 0.44617 0.14388 0.17242 0.0
C292 C 0.51155 0.11108 0.18036 0.0
C293 C 0.54951 0.11859 0.2131 0.0
C294 C 0.52111 0.15808 0.23849 0.0
H295 H 0.43326 0.23135 0.12742 0.0
C296 C 0.36823 0.22835 0.12386 0.0
H297 H 0.25577 0.21671 0.14795 0.0
H298 H 0.34113 0.30294 0.30354 0.0
H299 H 0.22586 0.35872 0.28955 0.0
H300 H 0.16944 0.35354 0.22905 0.0
H301 H 0.22626 0.29194 0.18244 0.0
C302 C 0.32077 0.21952 0.15167 0.0
C303 C 0.35307 0.22047 0.18867 0.0
C304 C 0.31995 0.25786 0.21548 0.0
C305 C 0.35405 0.2621 0.25016 0.0
C306 C 0.31859 0.29881 0.27661 0.0
C307 C 0.25231 0.33102 0.26897 0.0
C308 C 0.22035 0.32796 0.23494 0.0
C309 C 0.25361 0.29213 0.2084 0.0
H310 H 0.44325 0.86368 0.2469 0.0
C311 C 0.47273 0.82687 0.23575 0.0
H312 H 0.50136 0.74692 0.24528 0.0
H313 H 0.45781 0.86622 0.40892 0.0
H314 H 0.58032 0.91229 0.39657 0.0
H315 H 0.64362 0.90112 0.33713 0.0
H316 H 0.58353 0.84479 0.28945 0.0
C317 C 0.4781 0.7856 0.25614 0.0
C318 C 0.44356 0.78956 0.29288 0.0
C319 C 0.48146 0.82064 0.32095 0.0
C320 C 0.44737 0.82471 0.3558 0.0
C321 C 0.48339 0.85921 0.38254 0.0
C322 C 0.55337 0.88639 0.37571 0.0
C323 C 0.58882 0.88029 0.3422 0.0
C324 C 0.55349 0.84796 0.31503 0.0
H325 H 0.44862 0.76842 0.42389 0.0
C326 C 0.38517 0.78011 0.42735 0.0
H327 H 0.27943 0.8082 0.40328 0.0
H328 H 0.35388 0.72851 0.24497 0.0
H329 H 0.23257 0.68102 0.25735 0.0
H330 H 0.17679 0.68451 0.31812 0.0
H331 H 0.24197 0.73519 0.36687 0.0
C332 C 0.34301 0.79685 0.39974 0.0
C333 C 0.37775 0.7953 0.36303 0.0
C334 C 0.3396 0.76448 0.33482 0.0
C335 C 0.37236 0.7618 0.29979 0.0
C336 C 0.33225 0.73139 0.27213 0.0
C337 C 0.26247 0.70395 0.27885 0.0
C338 C 0.23103 0.70596 0.31305 0.0
C339 C 0.269 0.73554 0.34081 0.0
H340 H 0.71274 0.82812 0.90811 0.0
C341 C 0.66706 0.81759 0.92689 0.0
H342 H 0.54731 0.79199 0.9323 0.0
H343 H 0.54252 0.89969 0.77672 0.0
H344 H 0.53038 0.9839 0.81292 0.0
H345 H 0.5376 0.98704 0.87828 0.0
H346 H 0.55759 0.9058 0.90787 0.0
C347 C 0.59225 0.80703 0.91492 0.0
C348 C 0.57599 0.80485 0.87598 0.0
C349 C 0.56219 0.85232 0.85908 0.0
C350 C 0.55644 0.85032 0.82136 0.0
C351 C 0.54565 0.89867 0.80524 0.0
C352 C 0.53889 0.94734 0.82571 0.0
C353 C 0.54311 0.94912 0.86252 0.0
C354 C 0.55476 0.90229 0.87915 0.0
H355 H 0.44047 0.81513 0.75688 0.0
C356 C 0.49627 0.80532 0.74215 0.0
H357 H 0.62164 0.78771 0.74796 0.0
H358 H 0.59914 0.70618 0.89999 0.0
H359 H 0.6103 0.6218 0.86396 0.0
H360 H 0.59851 0.61808 0.79874 0.0
H361 H 0.57635 0.69884 0.76906 0.0
C362 C 0.56431 0.7982 0.76096 0.0
C363 C 0.56348 0.80064 0.8006 0.0
C364 C 0.57502 0.75303 0.81765 0.0
C365 C 0.58103 0.75511 0.85532 0.0
C366 C 0.59389 0.70693 0.8715 0.0
C367 C 0.60025 0.65818 0.85115 0.0
C368 C 0.59375 0.65611 0.81442 0.0
C369 C 0.58121 0.70279 0.79772 0.0
H370 H 0.56942 0.23981 0.62188 0.0
C371 C 0.63495 0.2427 0.6224 0.0
H372 H 0.73923 0.24587 0.65466 0.0
H373 H 0.54565 0.32684 0.79451 0.0
H374 H 0.60527 0.40927 0.77993 0.0
H375 H 0.67724 0.41418 0.72309 0.0
H376 H 0.68935 0.33679 0.68033 0.0
C377 C 0.67414 0.24125 0.65344 0.0
C378 C 0.62979 0.23784 0.68751 0.0
C379 C 0.62468 0.2831 0.71254 0.0
C380 C 0.58458 0.27997 0.74564 0.0
C381 C 0.57763 0.32646 0.76949 0.0
C382 C 0.61105 0.37419 0.76133 0.0
C383 C 0.65147 0.37697 0.72931 0.0
C384 C 0.65815 0.33218 0.70505 0.0
H385 H 0.62723 0.23423 0.81525 0.0
C386 C 0.5628 0.22847 0.81896 0.0
H387 H 0.45166 0.21799 0.79136 0.0
H388 H 0.63077 0.14308 0.646 0.0
H389 H 0.5705 0.06081 0.66046 0.0
H390 H 0.50061 0.05548 0.71774 0.0
H391 H 0.49073 0.1324 0.76098 0.0
C392 C 0.51558 0.22622 0.78989 0.0
C393 C 0.55149 0.23111 0.75407 0.0
C394 C 0.55504 0.18616 0.72872 0.0
C395 C 0.59469 0.1894 0.6955 0.0
C396 C 0.59998 0.14326 0.67129 0.0
C397 C 0.566 0.09565 0.67933 0.0
C398 C 0.5267 0.09263 0.7116 0.0
C399 C 0.52136 0.13714 0.73616 0.0
H400 H 0.92842 0.70549 0.12371 0.0
C401 C 0.87308 0.72974 0.12405 0.0
H402 H 0.78642 0.77492 0.15559 0.0
H403 H 0.826 0.67878 0.30094 0.0
H404 H 0.69036 0.65288 0.28392 0.0
H405 H 0.63928 0.66453 0.22375 0.0
H406 H 0.72316 0.70276 0.18037 0.0
C407 C 0.84173 0.7506 0.1553 0.0
C408 C 0.87689 0.73945 0.19044 0.0
C409 C 0.82807 0.7154 0.21525 0.0
C410 C 0.85836 0.7073 0.24968 0.0
C411 C 0.80691 0.68492 0.2742 0.0
C412 C 0.72871 0.66994 0.26483 0.0
C413 C 0.69991 0.67659 0.23098 0.0
C414 C 0.7487 0.69889 0.20638 0.0
H415 H 0.98732 0.79441 0.31047 0.0
C416 C 0.98801 0.75433 0.31914 0.0
H417 H 0.97015 0.67288 0.3032 0.0
H418 H 0.98385 0.7935 0.15178 0.0
H419 H 0.12191 0.81467 0.16763 0.0
H420 H 0.17918 0.79129 0.22466 0.0
H421 H 0.09755 0.74818 0.26657 0.0
C422 C 0.96878 0.71341 0.29551 0.0
C423 C 0.93827 0.72211 0.25917 0.0
C424 C 0.98807 0.7447 0.23404 0.0
C425 C 0.95657 0.75503 0.20013 0.0
C426 C 0.00573 0.78178 0.17694 0.0
C427 C 0.08505 0.79469 0.18587 0.0
C428 C 0.11718 0.78178 0.21803 0.0
C429 C 0.06949 0.75724 0.24195 0.0
H430 H 0.95299 0.29013 0.42691 0.0
C431 C 0.89012 0.2784 0.42575 0.0
H432 H 0.78947 0.26105 0.39293 0.0
H433 H 0.88127 0.39045 0.26556 0.0
H434 H 0.76354 0.44005 0.28987 0.0
H435 H 0.70393 0.42005 0.34697 0.0
H436 H 0.76137 0.35012 0.37997 0.0
C437 C 0.85274 0.27189 0.39416 0.0
C438 C 0.89237 0.28501 0.36057 0.0
C439 C 0.8587 0.32664 0.3418 0.0
C440 C 0.89397 0.33884 0.30918 0.0
C441 C 0.85784 0.37989 0.29069 0.0
C442 C 0.79004 0.40868 0.30431 0.0
C443 C 0.75643 0.39738 0.33642 0.0
C444 C 0.79 0.35694 0.35505 0.0
H445 H 0.97564 0.24425 0.23623 0.0
C446 C 0.99496 0.28425 0.23215 0.0
H447 H 0.01702 0.36096 0.25711 0.0
H448 H 0.96823 0.19918 0.38758 0.0
H449 H 0.09155 0.15388 0.36535 0.0
H450 H 0.16025 0.18125 0.31205 0.0
H451 H 0.10451 0.25306 0.28008 0.0
C452 C 0.99665 0.32097 0.26021 0.0
C453 C 0.96345 0.3098 0.29547 0.0
C454 C 0.99919 0.26967 0.31494 0.0
C455 C 0.96224 0.25611 0.34694 0.0
C456 C 0.99586 0.21307 0.36424 0.0
C457 C 0.06638 0.18639 0.35159 0.0
C458 C 0.10485 0.20161 0.32149 0.0
C459 C 0.07188 0.24268 0.30325 0.0
H460 H 0.12122 0.33769 0.73556 0.0
C461 C 0.06789 0.31364 0.73075 0.0
H462 H 0.98752 0.26278 0.75462 0.0
H463 H 0.22662 0.20336 0.87501 0.0
H464 H 0.22539 0.12062 0.8373 0.0
H465 H 0.15761 0.11584 0.77906 0.0
H466 H 0.09046 0.19382 0.75825 0.0
C467 C 0.03752 0.28974 0.75823 0.0
C468 C 0.07861 0.29348 0.79347 0.0
C469 C 0.11803 0.24756 0.80521 0.0
C470 C 0.15815 0.25052 0.83858 0.0
C471 C 0.1962 0.20377 0.84972 0.0
C472 C 0.19581 0.15586 0.82836 0.0
C473 C 0.15758 0.15316 0.7956 0.0
C474 C 0.11908 0.19828 0.78402 0.0
H475 H 0.09347 0.31684 0.92532 0.0
C476 C 0.15814 0.30798 0.92599 0.0
H477 H 0.26442 0.291 0.89563 0.0
H478 H 1.00382 0.38804 0.7804 0.0
H479 H 0.01029 0.47192 0.81689 0.0
H480 H 0.08695 0.47831 0.87298 0.0
H481 H 0.15657 0.40065 0.8932 0.0
C482 C 0.20026 0.3014 0.89536 0.0
C483 C 0.15901 0.29945 0.86022 0.0
C484 C 0.1207 0.34561 0.84825 0.0
C485 C 0.07922 0.34241 0.81515 0.0
C486 C 0.03852 0.38859 0.80465 0.0
C487 C 0.04135 0.43695 0.82546 0.0
C488 C 0.0843 0.44051 0.85709 0.0
C489 C 0.12362 0.39553 0.86849 0.0
H490 H 0.19808 0.73338 0.64888 0.0
C491 C 0.15439 0.74173 0.62846 0.0
H492 H 0.03125 0.75963 0.61845 0.0
H493 H 0.04847 0.64314 0.77169 0.0
H494 H 0.0675 0.56132 0.73362 0.0
H495 H 0.07744 0.56293 0.66858 0.0
H496 H 0.06925 0.64674 0.64125 0.0
C497 C 0.07603 0.74836 0.63761 0.0
C498 C 0.05197 0.74625 0.67557 0.0
C499 C 0.05364 0.69698 0.69111 0.0
C500 C 0.04535 0.696 0.72858 0.0
C501 C 0.05184 0.64631 0.7434 0.0
C502 C 0.06322 0.59896 0.72183 0.0
C503 C 0.06903 0.59986 0.68521 0.0
C504 C 0.06456 0.64819 0.66989 0.0
H505 H 0.92029 0.70964 0.79304 0.0
C506 C 0.97189 0.72542 0.80799 0.0
H507 H 0.083 0.76454 0.80391 0.0
H508 H 0.03772 0.84678 0.65388 0.0
H509 H 0.01253 0.92869 0.69149 0.0
H510 H 0.99516 0.92707 0.75625 0.0
H511 H 1.00328 0.8436 0.78388 0.0
C512 C 0.03338 0.74474 0.78992 0.0
C513 C 0.0332 0.74439 0.75038 0.0
C514 C 0.02674 0.79335 0.73452 0.0
C515 C 0.03598 0.79426 0.6971 0.0
C516 C 0.03093 0.84386 0.68213 0.0
C517 C 0.01639 0.89113 0.7034 0.0
C518 C 0.00667 0.89023 0.73987 0.0
C519 C 0.01171 0.84206 0.75539 0.0
loop_
_geom_bond_atom_site_label_1
_geom_bond_atom_site_label_2
_geom_bond_distance
_geom_bond_site_symmetry_2
_ccdc_geom_bond_type
C0 Eu1 2.835 . S
C0 C2 1.500 . S
C0 O20 1.257 . S
C0 O21 1.260 . S
Eu1 C0 2.835 . S
Eu1 O20 2.473 . S
Eu1 O21 2.480 . S
Eu1 O22 2.430 . S
Eu1 O23 2.670 1_556 S
Eu1 O24 2.394 . S
Eu1 O29 2.360 . S
Eu1 O31 2.374 1_556 S
C2 C0 1.500 . S
C2 C3 1.377 . S
C2 C7 1.377 . S
C3 C2 1.377 . S
C3 C4 1.395 . S
C3 H32 0.931 . S
C4 C3 1.395 . S
C4 C5 1.383 . S
C4 H33 0.931 . S
C5 C4 1.383 . S
C5 C6 1.394 . S
C6 C5 1.394 . S
C6 C7 1.378 . S
C6 H34 0.931 . S
C7 C2 1.377 . S
C7 C6 1.378 . S
C7 H35 0.931 . S
C8 O22 1.259 1_554 S
C8 O23 1.270 . S
C9 O24 1.251 . S
C9 O25 1.251 . S
C10 Eu11 2.835 . S
C10 C12 1.500 . S
C10 O26 1.257 . S
C10 O27 1.260 . S
Eu11 C10 2.835 . S
Eu11 O23 2.355 . S
Eu11 O25 2.374 1_554 S
Eu11 O26 2.473 . S
Eu11 O27 2.480 . S
Eu11 O28 2.430 . S
Eu11 O29 2.656 1_554 S
Eu11 O30 2.394 . S
C12 C10 1.500 . S
C12 C13 1.377 . S
C12 C17 1.377 . S
C13 C12 1.377 . S
C13 C14 1.395 . S
C13 H36 0.931 . S
C14 C13 1.395 . S
C14 C15 1.383 . S
C14 H37 0.931 . S
C15 C14 1.383 . S
C15 C16 1.394 . S
C16 C15 1.394 . S
C16 C17 1.378 . S
C16 H38 0.931 . S
C17 C12 1.377 . S
C17 C16 1.378 . S
C17 H39 0.931 . S
C18 O28 1.259 . S
C18 O29 1.260 1_554 S
C19 O30 1.251 . S
C19 O31 1.251 . S
O20 C0 1.257 . S
O20 Eu1 2.473 . S
O21 C0 1.260 . S
O21 Eu1 2.480 . S
O22 Eu1 2.430 . S
O22 C8 1.259 1_556 S
O23 Eu1 2.670 1_554 S
O23 C8 1.270 . S
O23 Eu11 2.355 . S
O24 Eu1 2.394 . S
O24 C9 1.251 . S
O25 C9 1.251 . S
O25 Eu11 2.374 1_556 S
O26 C10 1.257 . S
O26 Eu11 2.473 . S
O27 C10 1.260 . S
O27 Eu11 2.480 . S
O28 Eu11 2.430 . S
O28 C18 1.259 . S
O29 Eu1 2.360 . S
O29 Eu11 2.656 1_556 S
O29 C18 1.260 1_556 S
O30 Eu11 2.394 . S
O30 C19 1.251 . S
O31 Eu1 2.374 1_554 S
O31 C19 1.251 . S
H32 C3 0.931 . S
H33 C4 0.931 . S
H34 C6 0.931 . S
H35 C7 0.931 . S
H36 C13 0.931 . S
H37 C14 0.931 . S
H38 C16 0.931 . S
H39 C17 0.931 . S
C40 Eu41 2.835 . S
C40 C42 1.500 . S
C40 O60 1.257 . S
C40 O61 1.260 . S
Eu41 C40 2.835 . S
Eu41 O60 2.473 . S
Eu41 O61 2.480 . S
Eu41 O62 2.430 . S
Eu41 O63 2.670 1_556 S
Eu41 O64 2.394 . S
Eu41 O69 2.360 . S
Eu41 O71 2.374 1_556 S
C42 C40 1.500 . S
C42 C43 1.377 . S
C42 C47 1.377 . S
C43 C42 1.377 . S
C43 C44 1.395 . S
C43 H72 0.931 . S
C44 C43 1.395 . S
C44 C45 1.383 . S
C44 H73 0.931 . S
C45 C44 1.383 . S
C45 C46 1.394 . S
C46 C45 1.394 . S
C46 C47 1.378 . S
C46 H74 0.931 . S
C47 C42 1.377 . S
C47 C46 1.378 . S
C47 H75 0.931 . S
C48 O62 1.259 1_554 S
C48 O63 1.270 . S
C49 O64 1.251 . S
C49 O65 1.251 . S
C50 Eu51 2.835 . S
C50 C52 1.500 . S
C50 O66 1.257 . S
C50 O67 1.260 . S
Eu51 C50 2.835 . S
Eu51 O63 2.355 . S
Eu51 O65 2.374 1_554 S
Eu51 O66 2.473 . S
Eu51 O67 2.480 . S
Eu51 O68 2.430 . S
Eu51 O69 2.656 1_554 S
Eu51 O70 2.394 . S
C52 C50 1.500 . S
C52 C53 1.377 . S
C52 C57 1.377 . S
C53 C52 1.377 . S
C53 C54 1.395 . S
C53 H76 0.931 . S
C54 C53 1.395 . S
C54 C55 1.383 . S
C54 H77 0.931 . S
C55 C54 1.383 . S
C55 C56 1.394 . S
C56 C55 1.394 . S
C56 C57 1.378 . S
C56 H78 0.931 . S
C57 C52 1.377 . S
C57 C56 1.378 . S
C57 H79 0.931 . S
C58 O68 1.259 . S
C58 O69 1.260 1_554 S
C59 O70 1.251 . S
C59 O71 1.251 . S
O60 C40 1.257 . S
O60 Eu41 2.473 . S
O61 C40 1.260 . S
O61 Eu41 2.480 . S
O62 Eu41 2.430 . S
O62 C48 1.259 1_556 S
O63 Eu41 2.670 1_554 S
O63 C48 1.270 . S
O63 Eu51 2.355 . S
O64 Eu41 2.394 . S
O64 C49 1.251 . S
O65 C49 1.251 . S
O65 Eu51 2.374 1_556 S
O66 C50 1.257 . S
O66 Eu51 2.473 . S
O67 C50 1.260 . S
O67 Eu51 2.480 . S
O68 Eu51 2.430 . S
O68 C58 1.259 . S
O69 Eu41 2.360 . S
O69 Eu51 2.656 1_556 S
O69 C58 1.260 1_556 S
O70 Eu51 2.394 . S
O70 C59 1.251 . S
O71 Eu41 2.374 1_554 S
O71 C59 1.251 . S
H72 C43 0.931 . S
H73 C44 0.931 . S
H74 C46 0.931 . S
H75 C47 0.931 . S
H76 C53 0.931 . S
H77 C54 0.931 . S
H78 C56 0.931 . S
H79 C57 0.931 . S
C80 Eu81 2.835 . S
C80 C82 1.500 . S
C80 O100 1.257 . S
C80 O101 1.260 . S
Eu81 C80 2.835 . S
Eu81 O100 2.473 . S
Eu81 O101 2.480 . S
Eu81 O102 2.430 . S
Eu81 O103 2.670 . S
Eu81 O104 2.394 . S
Eu81 O109 2.355 . S
Eu81 O111 2.374 . S
C82 C80 1.500 . S
C82 C83 1.377 . S
C82 C87 1.377 . S
C83 C82 1.377 . S
C83 C84 1.395 . S
C83 H112 0.931 . S
C84 C83 1.395 . S
C84 C85 1.383 . S
C84 H113 0.931 . S
C85 C84 1.383 . S
C85 C86 1.394 . S
C86 C85 1.394 . S
C86 C87 1.378 . S
C86 H114 0.931 . S
C87 C82 1.377 . S
C87 C86 1.378 . S
C87 H115 0.931 . S
C88 O102 1.259 . S
C88 O103 1.270 . S
C89 O104 1.251 . S
C89 O105 1.251 . S
C90 Eu91 2.835 . S
C90 C92 1.500 . S
C90 O106 1.257 . S
C90 O107 1.260 . S
Eu91 C90 2.835 . S
Eu91 O103 2.355 . S
Eu91 O105 2.374 . S
Eu91 O106 2.473 . S
Eu91 O107 2.480 . S
Eu91 O108 2.430 . S
Eu91 O109 2.670 . S
Eu91 O110 2.394 . S
C92 C90 1.500 . S
C92 C93 1.377 . S
C92 C97 1.377 . S
C93 C92 1.377 . S
C93 C94 1.395 . S
C93 H116 0.931 . S
C94 C93 1.395 . S
C94 C95 1.383 . S
C94 H117 0.931 . S
C95 C94 1.383 . S
C95 C96 1.394 . S
C96 C95 1.394 . S
C96 C97 1.378 . S
C96 H118 0.931 . S
C97 C92 1.377 . S
C97 C96 1.378 . S
C97 H119 0.931 . S
C98 O108 1.259 . S
C98 O109 1.270 . S
C99 O110 1.251 . S
C99 O111 1.251 . S
O100 C80 1.257 . S
O100 Eu81 2.473 . S
O101 C80 1.260 . S
O101 Eu81 2.480 . S
O102 Eu81 2.430 . S
O102 C88 1.259 . S
O103 Eu81 2.670 . S
O103 C88 1.270 . S
O103 Eu91 2.355 . S
O104 Eu81 2.394 . S
O104 C89 1.251 . S
O105 C89 1.251 . S
O105 Eu91 2.374 . S
O106 C90 1.257 . S
O106 Eu91 2.473 . S
O107 C90 1.260 . S
O107 Eu91 2.480 . S
O108 Eu91 2.430 . S
O108 C98 1.259 . S
O109 Eu81 2.355 . S
O109 Eu91 2.670 . S
O109 C98 1.270 . S
O110 Eu91 2.394 . S
O110 C99 1.251 . S
O111 Eu81 2.374 . S
O111 C99 1.251 . S
H112 C83 0.931 . S
H113 C84 0.931 . S
H114 C86 0.931 . S
H115 C87 0.931 . S
H116 C93 0.931 . S
H117 C94 0.931 . S
H118 C96 0.931 . S
H119 C97 0.931 . S
C120 Eu121 2.835 . S
C120 C122 1.500 . S
C120 O140 1.257 . S
C120 O141 1.260 . S
Eu121 C120 2.835 . S
Eu121 O140 2.473 . S
Eu121 O141 2.480 . S
Eu121 O142 2.430 . S
Eu121 O143 2.670 . S
Eu121 O144 2.394 . S
Eu121 O149 2.355 . S
Eu121 O151 2.374 . S
C122 C120 1.500 . S
C122 C123 1.377 . S
C122 C127 1.377 . S
C123 C122 1.377 . S
C123 C124 1.395 . S
C123 H152 0.931 . S
C124 C123 1.395 . S
C124 C125 1.383 . S
C124 H153 0.931 . S
C125 C124 1.383 . S
C125 C126 1.394 . S
C126 C125 1.394 . S
C126 C127 1.378 . S
C126 H154 0.931 . S
C127 C122 1.377 . S
C127 C126 1.378 . S
C127 H155 0.931 . S
C128 O142 1.259 . S
C128 O143 1.270 . S
C129 O144 1.251 . S
C129 O145 1.251 . S
C130 Eu131 2.835 . S
C130 C132 1.500 . S
C130 O146 1.257 . S
C130 O147 1.260 . S
Eu131 C130 2.835 . S
Eu131 O143 2.355 . S
Eu131 O145 2.374 . S
Eu131 O146 2.473 . S
Eu131 O147 2.480 . S
Eu131 O148 2.430 . S
Eu131 O149 2.670 . S
Eu131 O150 2.394 . S
C132 C130 1.500 . S
C132 C133 1.377 . S
C132 C137 1.377 . S
C133 C132 1.377 . S
C133 C134 1.395 . S
C133 H156 0.931 . S
C134 C133 1.395 . S
C134 C135 1.383 . S
C134 H157 0.931 . S
C135 C134 1.383 . S
C135 C136 1.394 . S
C136 C135 1.394 . S
C136 C137 1.378 . S
C136 H158 0.931 . S
C137 C132 1.377 . S
C137 C136 1.378 . S
C137 H159 0.931 . S
C138 O148 1.259 . S
C138 O149 1.270 . S
C139 O150 1.251 . S
C139 O151 1.251 . S
O140 C120 1.257 . S
O140 Eu121 2.473 . S
O141 C120 1.260 . S
O141 Eu121 2.480 . S
O142 Eu121 2.430 . S
O142 C128 1.259 . S
O143 Eu121 2.670 . S
O143 C128 1.270 . S
O143 Eu131 2.355 . S
O144 Eu121 2.394 . S
O144 C129 1.251 . S
O145 C129 1.251 . S
O145 Eu131 2.374 . S
O146 C130 1.257 . S
O146 Eu131 2.473 . S
O147 C130 1.260 . S
O147 Eu131 2.480 . S
O148 Eu131 2.430 . S
O148 C138 1.259 . S
O149 Eu121 2.355 . S
O149 Eu131 2.670 . S
O149 C138 1.270 . S
O150 Eu131 2.394 . S
O150 C139 1.251 . S
O151 Eu121 2.374 . S
O151 C139 1.251 . S
H152 C123 0.931 . S
H153 C124 0.931 . S
H154 C126 0.931 . S
H155 C127 0.931 . S
H156 C133 0.931 . S
H157 C134 0.931 . S
H158 C136 0.931 . S
H159 C137 0.931 . S
H160 C161 0.951 . S
C161 H160 0.951 . S
C161 C167 1.265 . S
H162 C167 0.950 . S
H163 C171 0.949 . S
H164 C172 0.950 . S
H165 C173 0.951 . S
H166 C174 0.951 . S
C167 C161 1.265 . S
C167 H162 0.950 . S
C167 C168 1.478 . S
C168 C167 1.478 . S
C168 C169 1.397 . S
C168 C185 1.394 1_554 S
C169 C168 1.397 . S
C169 C170 1.438 . S
C169 C174 1.429 . S
C170 C169 1.438 . S
C170 C171 1.428 . S
C170 C183 1.394 . S
C171 H163 0.949 . S
C171 C170 1.428 . S
C171 C172 1.345 . S
C172 H164 0.950 . S
C172 C171 1.345 . S
C172 C173 1.424 . S
C173 H165 0.951 . S
C173 C172 1.424 . S
C173 C174 1.347 . S
C174 H166 0.951 . S
C174 C169 1.429 . S
C174 C173 1.347 . S
H175 C176 0.951 . S
C176 H175 0.951 . S
C176 C182 1.265 . S
H177 C182 0.950 . S
H178 C186 0.949 . S
H179 C187 0.950 . S
H180 C188 0.951 . S
H181 C189 0.951 . S
C182 C176 1.265 . S
C182 H177 0.950 . S
C182 C183 1.478 . S
C183 C170 1.394 . S
C183 C182 1.478 . S
C183 C184 1.397 1_554 S
C184 C183 1.397 1_556 S
C184 C185 1.438 . S
C184 C189 1.429 . S
C185 C168 1.394 1_556 S
C185 C184 1.438 . S
C185 C186 1.428 . S
C186 H178 0.949 . S
C186 C185 1.428 . S
C186 C187 1.345 . S
C187 H179 0.950 . S
C187 C186 1.345 . S
C187 C188 1.424 . S
C188 H180 0.951 . S
C188 C187 1.424 . S
C188 C189 1.347 . S
C189 H181 0.951 . S
C189 C184 1.429 . S
C189 C188 1.347 . S
H190 C191 0.951 . S
C191 H190 0.951 . S
C191 C197 1.265 . S
H192 C197 0.950 . S
H193 C201 0.949 . S
H194 C202 0.950 . S
H195 C203 0.951 . S
H196 C204 0.951 . S
C197 C191 1.265 . S
C197 H192 0.950 . S
C197 C198 1.478 . S
C198 C197 1.478 . S
C198 C199 1.397 . S
C198 C215 1.394 . S
C199 C198 1.397 . S
C199 C200 1.438 . S
C199 C204 1.429 . S
C200 C199 1.438 . S
C200 C201 1.428 . S
C200 C213 1.394 . S
C201 H193 0.949 . S
C201 C200 1.428 . S
C201 C202 1.345 . S
C202 H194 0.950 . S
C202 C201 1.345 . S
C202 C203 1.424 . S
C203 H195 0.951 . S
C203 C202 1.424 . S
C203 C204 1.347 . S
C204 H196 0.951 . S
C204 C199 1.429 . S
C204 C203 1.347 . S
H205 C206 0.951 . S
C206 H205 0.951 . S
C206 C212 1.265 . S
H207 C212 0.950 . S
H208 C216 0.949 . S
H209 C217 0.950 . S
H210 C218 0.951 . S
H211 C219 0.951 . S
C212 C206 1.265 . S
C212 H207 0.950 . S
C212 C213 1.478 . S
C213 C200 1.394 . S
C213 C212 1.478 . S
C213 C214 1.397 . S
C214 C213 1.397 . S
C214 C215 1.438 . S
C214 C219 1.429 . S
C215 C198 1.394 . S
C215 C214 1.438 . S
C215 C216 1.428 . S
C216 H208 0.949 . S
C216 C215 1.428 . S
C216 C217 1.345 . S
C217 H209 0.950 . S
C217 C216 1.345 . S
C217 C218 1.424 . S
C218 H210 0.951 . S
C218 C217 1.424 . S
C218 C219 1.347 . S
C219 H211 0.951 . S
C219 C214 1.429 . S
C219 C218 1.347 . S
H220 C221 0.951 1_556 S
C221 H220 0.951 1_554 S
C221 C227 1.265 . S
H222 C227 0.950 . S
H223 C231 0.949 . S
H224 C232 0.950 1_565 S
H225 C233 0.951 . S
H226 C234 0.951 . S
C227 C221 1.265 . S
C227 H222 0.950 . S
C227 C228 1.478 . S
C228 C227 1.478 . S
C228 C229 1.397 . S
C228 C245 1.394 1_554 S
C229 C228 1.397 . S
C229 C230 1.438 1_445 S
C229 C234 1.429 . S
C230 C229 1.438 1_665 S
C230 C231 1.428 . S
C230 C243 1.394 . S
C231 H223 0.949 . S
C231 C230 1.428 . S
C231 C232 1.345 1_565 S
C232 H224 0.950 1_545 S
C232 C231 1.345 1_545 S
C232 C233 1.424 . S
C233 H225 0.951 . S
C233 C232 1.424 . S
C233 C234 1.347 1_655 S
C234 H226 0.951 . S
C234 C229 1.429 . S
C234 C233 1.347 1_455 S
H235 C236 0.951 . S
C236 H235 0.951 . S
C236 C242 1.265 1_554 S
H237 C242 0.950 . S
H238 C246 0.949 . S
H239 C247 0.950 1_545 S
H240 C248 0.951 . S
H241 C249 0.951 . S
C242 C236 1.265 1_556 S
C242 H237 0.950 . S
C242 C243 1.478 1_556 S
C243 C230 1.394 . S
C243 C242 1.478 1_554 S
C243 C244 1.397 1_554 S
C244 C243 1.397 1_556 S
C244 C245 1.438 1_665 S
C244 C249 1.429 . S
C245 C228 1.394 1_556 S
C245 C244 1.438 1_445 S
C245 C246 1.428 . S
C246 H238 0.949 . S
C246 C245 1.428 . S
C246 C247 1.345 1_545 S
C247 H239 0.950 1_565 S
C247 C246 1.345 1_565 S
C247 C248 1.424 . S
C248 H240 0.951 . S
C248 C247 1.424 . S
C248 C249 1.347 1_455 S
C249 H241 0.951 . S
C249 C244 1.429 . S
C249 C248 1.347 1_655 S
H250 C251 0.951 . S
C251 H250 0.951 . S
C251 C257 1.265 . S
H252 C257 0.950 . S
H253 C261 0.949 . S
H254 C262 0.950 1_565 S
H255 C263 0.951 . S
H256 C264 0.951 1_655 S
C257 C251 1.265 . S
C257 H252 0.950 . S
C257 C258 1.478 . S
C258 C257 1.478 . S
C258 C259 1.397 1_655 S
C258 C275 1.394 . S
C259 C258 1.397 1_455 S
C259 C260 1.438 1_545 S
C259 C264 1.429 . S
C260 C259 1.438 1_565 S
C260 C261 1.428 . S
C260 C273 1.394 . S
C261 H253 0.949 . S
C261 C260 1.428 . S
C261 C262 1.345 1_565 S
C262 H254 0.950 1_545 S
C262 C261 1.345 1_545 S
C262 C263 1.424 . S
C263 H255 0.951 . S
C263 C262 1.424 . S
C263 C264 1.347 . S
C264 H256 0.951 1_455 S
C264 C259 1.429 . S
C264 C263 1.347 . S
H265 C266 0.951 . S
C266 H265 0.951 . S
C266 C272 1.265 . S
H267 C272 0.950 . S
H268 C276 0.949 . S
H269 C277 0.950 1_545 S
H270 C278 0.951 . S
H271 C279 0.951 1_455 S
C272 C266 1.265 . S
C272 H267 0.950 . S
C272 C273 1.478 . S
C273 C260 1.394 . S
C273 C272 1.478 . S
C273 C274 1.397 1_455 S
C274 C273 1.397 1_655 S
C274 C275 1.438 1_565 S
C274 C279 1.429 . S
C275 C258 1.394 . S
C275 C274 1.438 1_545 S
C275 C276 1.428 . S
C276 H268 0.949 . S
C276 C275 1.428 . S
C276 C277 1.345 1_545 S
C277 H269 0.950 1_565 S
C277 C276 1.345 1_565 S
C277 C278 1.424 . S
C278 H270 0.951 . S
C278 C277 1.424 . S
C278 C279 1.347 . S
C279 H271 0.951 1_655 S
C279 C274 1.429 . S
C279 C278 1.347 . S
H280 C281 0.951 . S
C281 H280 0.951 . S
C281 C287 1.265 . S
H282 C287 0.950 . S
H283 C291 0.949 . S
H284 C292 0.950 . S
H285 C293 0.951 . S
H286 C294 0.951 . S
C287 C281 1.265 . S
C287 H282 0.950 . S
C287 C288 1.478 . S
C288 C287 1.478 . S
C288 C289 1.397 . S
C288 C305 1.394 . S
C289 C288 1.397 . S
C289 C290 1.438 . S
C289 C294 1.429 . S
C290 C289 1.438 . S
C290 C291 1.428 . S
C290 C303 1.394 . S
C291 H283 0.949 . S
C291 C290 1.428 . S
C291 C292 1.345 . S
C292 H284 0.950 . S
C292 C291 1.345 . S
C292 C293 1.424 . S
C293 H285 0.951 . S
C293 C292 1.424 . S
C293 C294 1.347 . S
C294 H286 0.951 . S
C294 C289 1.429 . S
C294 C293 1.347 . S
H295 C296 0.951 . S
C296 H295 0.951 . S
C296 C302 1.265 . S
H297 C302 0.950 . S
H298 C306 0.949 . S
H299 C307 0.950 . S
H300 C308 0.951 . S
H301 C309 0.951 . S
C302 C296 1.265 . S
C302 H297 0.950 . S
C302 C303 1.478 . S
C303 C290 1.394 . S
C303 C302 1.478 . S
C303 C304 1.397 . S
C304 C303 1.397 . S
C304 C305 1.438 . S
C304 C309 1.429 . S
C305 C288 1.394 . S
C305 C304 1.438 . S
C305 C306 1.428 . S
C306 H298 0.949 . S
C306 C305 1.428 . S
C306 C307 1.345 . S
C307 H299 0.950 . S
C307 C306 1.345 . S
C307 C308 1.424 . S
C308 H300 0.951 . S
C308 C307 1.424 . S
C308 C309 1.347 . S
C309 H301 0.951 . S
C309 C304 1.429 . S
C309 C308 1.347 . S
H310 C311 0.951 . S
C311 H310 0.951 . S
C311 C317 1.265 . S
H312 C317 0.950 . S
H313 C321 0.949 . S
H314 C322 0.950 . S
H315 C323 0.951 . S
H316 C324 0.951 . S
C317 C311 1.265 . S
C317 H312 0.950 . S
C317 C318 1.478 . S
C318 C317 1.478 . S
C318 C319 1.397 . S
C318 C335 1.394 . S
C319 C318 1.397 . S
C319 C320 1.438 . S
C319 C324 1.429 . S
C320 C319 1.438 . S
C320 C321 1.428 . S
C320 C333 1.394 . S
C321 H313 0.949 . S
C321 C320 1.428 . S
C321 C322 1.345 . S
C322 H314 0.950 . S
C322 C321 1.345 . S
C322 C323 1.424 . S
C323 H315 0.951 . S
C323 C322 1.424 . S
C323 C324 1.347 . S
C324 H316 0.951 . S
C324 C319 1.429 . S
C324 C323 1.347 . S
H325 C326 0.951 . S
C326 H325 0.951 . S
C326 C332 1.265 . S
H327 C332 0.950 . S
H328 C336 0.949 . S
H329 C337 0.950 . S
H330 C338 0.951 . S
H331 C339 0.951 . S
C332 C326 1.265 . S
C332 H327 0.950 . S
C332 C333 1.478 . S
C333 C320 1.394 . S
C333 C332 1.478 . S
C333 C334 1.397 . S
C334 C333 1.397 . S
C334 C335 1.438 . S
C334 C339 1.429 . S
C335 C318 1.394 . S
C335 C334 1.438 . S
C335 C336 1.428 . S
C336 H328 0.949 . S
C336 C335 1.428 . S
C336 C337 1.345 . S
C337 H329 0.950 . S
C337 C336 1.345 . S
C337 C338 1.424 . S
C338 H330 0.951 . S
C338 C337 1.424 . S
C338 C339 1.347 . S
C339 H331 0.951 . S
C339 C334 1.429 . S
C339 C338 1.347 . S
H340 C341 0.951 . S
C341 H340 0.951 . S
C341 C347 1.265 . S
H342 C347 0.950 . S
H343 C351 0.949 . S
H344 C352 0.950 . S
H345 C353 0.951 . S
H346 C354 0.951 . S
C347 C341 1.265 . S
C347 H342 0.950 . S
C347 C348 1.478 . S
C348 C347 1.478 . S
C348 C349 1.397 . S
C348 C365 1.394 . S
C349 C348 1.397 . S
C349 C350 1.438 . S
C349 C354 1.429 . S
C350 C349 1.438 . S
C350 C351 1.428 . S
C350 C363 1.394 . S
C351 H343 0.949 . S
C351 C350 1.428 . S
C351 C352 1.345 . S
C352 H344 0.950 . S
C352 C351 1.345 . S
C352 C353 1.424 . S
C353 H345 0.951 . S
C353 C352 1.424 . S
C353 C354 1.347 . S
C354 H346 0.951 . S
C354 C349 1.429 . S
C354 C353 1.347 . S
H355 C356 0.951 . S
C356 H355 0.951 . S
C356 C362 1.265 . S
H357 C362 0.950 . S
H358 C366 0.949 . S
H359 C367 0.950 . S
H360 C368 0.951 . S
H361 C369 0.951 . S
C362 C356 1.265 . S
C362 H357 0.950 . S
C362 C363 1.478 . S
C363 C350 1.394 . S
C363 C362 1.478 . S
C363 C364 1.397 . S
C364 C363 1.397 . S
C364 C365 1.438 . S
C364 C369 1.429 . S
C365 C348 1.394 . S
C365 C364 1.438 . S
C365 C366 1.428 . S
C366 H358 0.949 . S
C366 C365 1.428 . S
C366 C367 1.345 . S
C367 H359 0.950 . S
C367 C366 1.345 . S
C367 C368 1.424 . S
C368 H360 0.951 . S
C368 C367 1.424 . S
C368 C369 1.347 . S
C369 H361 0.951 . S
C369 C364 1.429 . S
C369 C368 1.347 . S
H370 C371 0.951 . S
C371 H370 0.951 . S
C371 C377 1.265 . S
H372 C377 0.950 . S
H373 C381 0.949 . S
H374 C382 0.950 . S
H375 C383 0.951 . S
H376 C384 0.951 . S
C377 C371 1.265 . S
C377 H372 0.950 . S
C377 C378 1.478 . S
C378 C377 1.478 . S
C378 C379 1.397 . S
C378 C395 1.394 . S
C379 C378 1.397 . S
C379 C380 1.438 . S
C379 C384 1.429 . S
C380 C379 1.438 . S
C380 C381 1.428 . S
C380 C393 1.394 . S
C381 H373 0.949 . S
C381 C380 1.428 . S
C381 C382 1.345 . S
C382 H374 0.950 . S
C382 C381 1.345 . S
C382 C383 1.424 . S
C383 H375 0.951 . S
C383 C382 1.424 . S
C383 C384 1.347 . S
C384 H376 0.951 . S
C384 C379 1.429 . S
C384 C383 1.347 . S
H385 C386 0.951 . S
C386 H385 0.951 . S
C386 C392 1.265 . S
H387 C392 0.950 . S
H388 C396 0.949 . S
H389 C397 0.950 . S
H390 C398 0.951 . S
H391 C399 0.951 . S
C392 C386 1.265 . S
C392 H387 0.950 . S
C392 C393 1.478 . S
C393 C380 1.394 . S
C393 C392 1.478 . S
C393 C394 1.397 . S
C394 C393 1.397 . S
C394 C395 1.438 . S
C394 C399 1.429 . S
C395 C378 1.394 . S
C395 C394 1.438 . S
C395 C396 1.428 . S
C396 H388 0.949 . S
C396 C395 1.428 . S
C396 C397 1.345 . S
C397 H389 0.950 . S
C397 C396 1.345 . S
C397 C398 1.424 . S
C398 H390 0.951 . S
C398 C397 1.424 . S
C398 C399 1.347 . S
C399 H391 0.951 . S
C399 C394 1.429 . S
C399 C398 1.347 . S
H400 C401 0.951 . S
C401 H400 0.951 . S
C401 C407 1.265 . S
H402 C407 0.950 . S
H403 C411 0.949 . S
H404 C412 0.950 . S
H405 C413 0.951 . S
H406 C414 0.951 . S
C407 C401 1.265 . S
C407 H402 0.950 . S
C407 C408 1.478 . S
C408 C407 1.478 . S
C408 C409 1.397 . S
C408 C425 1.394 . S
C409 C408 1.397 . S
C409 C410 1.438 . S
C409 C414 1.429 . S
C410 C409 1.438 . S
C410 C411 1.428 . S
C410 C423 1.394 . S
C411 H403 0.949 . S
C411 C410 1.428 . S
C411 C412 1.345 . S
C412 H404 0.950 . S
C412 C411 1.345 . S
C412 C413 1.424 . S
C413 H405 0.951 . S
C413 C412 1.424 . S
C413 C414 1.347 . S
C414 H406 0.951 . S
C414 C409 1.429 . S
C414 C413 1.347 . S
H415 C416 0.951 . S
C416 H415 0.951 . S
C416 C422 1.265 . S
H417 C422 0.950 1_455 S
H418 C426 0.949 1_655 S
H419 C427 0.950 . S
H420 C428 0.951 . S
H421 C429 0.951 . S
C422 C416 1.265 . S
C422 H417 0.950 1_655 S
C422 C423 1.478 . S
C423 C410 1.394 . S
C423 C422 1.478 . S
C423 C424 1.397 1_655 S
C424 C423 1.397 1_455 S
C424 C425 1.438 1_455 S
C424 C429 1.429 . S
C425 C408 1.394 . S
C425 C424 1.438 1_655 S
C425 C426 1.428 1_655 S
C426 H418 0.949 1_455 S
C426 C425 1.428 1_455 S
C426 C427 1.345 . S
C427 H419 0.950 . S
C427 C426 1.345 . S
C427 C428 1.424 . S
C428 H420 0.951 . S
C428 C427 1.424 . S
C428 C429 1.347 . S
C429 H421 0.951 . S
C429 C424 1.429 . S
C429 C428 1.347 . S
H430 C431 0.951 . S
C431 H430 0.951 . S
C431 C437 1.265 . S
H432 C437 0.950 . S
H433 C441 0.949 . S
H434 C442 0.950 . S
H435 C443 0.951 . S
H436 C444 0.951 . S
C437 C431 1.265 . S
C437 H432 0.950 . S
C437 C438 1.478 . S
C438 C437 1.478 . S
C438 C439 1.397 . S
C438 C455 1.394 . S
C439 C438 1.397 . S
C439 C440 1.438 . S
C439 C444 1.429 . S
C440 C439 1.438 . S
C440 C441 1.428 . S
C440 C453 1.394 . S
C441 H433 0.949 . S
C441 C440 1.428 . S
C441 C442 1.345 . S
C442 H434 0.950 . S
C442 C441 1.345 . S
C442 C443 1.424 . S
C443 H435 0.951 . S
C443 C442 1.424 . S
C443 C444 1.347 . S
C444 H436 0.951 . S
C444 C439 1.429 . S
C444 C443 1.347 . S
H445 C446 0.951 . S
C446 H445 0.951 . S
C446 C452 1.265 1_655 S
H447 C452 0.950 . S
H448 C456 0.949 . S
H449 C457 0.950 . S
H450 C458 0.951 . S
H451 C459 0.951 . S
C452 C446 1.265 1_455 S
C452 H447 0.950 . S
C452 C453 1.478 1_455 S
C453 C440 1.394 . S
C453 C452 1.478 1_655 S
C453 C454 1.397 . S
C454 C453 1.397 . S
C454 C455 1.438 . S
C454 C459 1.429 1_655 S
C455 C438 1.394 . S
C455 C454 1.438 . S
C455 C456 1.428 . S
C456 H448 0.949 . S
C456 C455 1.428 . S
C456 C457 1.345 . S
C457 H449 0.950 . S
C457 C456 1.345 . S
C457 C458 1.424 1_655 S
C458 H450 0.951 . S
C458 C457 1.424 1_455 S
C458 C459 1.347 . S
C459 H451 0.951 . S
C459 C454 1.429 1_455 S
C459 C458 1.347 . S
H460 C461 0.951 . S
C461 H460 0.951 . S
C461 C467 1.265 1_455 S
H462 C467 0.950 . S
H463 C471 0.949 . S
H464 C472 0.950 . S
H465 C473 0.951 . S
H466 C474 0.951 . S
C467 C461 1.265 1_655 S
C467 H462 0.950 . S
C467 C468 1.478 1_655 S
C468 C467 1.478 1_455 S
C468 C469 1.397 . S
C468 C485 1.394 . S
C469 C468 1.397 . S
C469 C470 1.438 . S
C469 C474 1.429 . S
C470 C469 1.438 . S
C470 C471 1.428 . S
C470 C483 1.394 . S
C471 H463 0.949 . S
C471 C470 1.428 . S
C471 C472 1.345 . S
C472 H464 0.950 . S
C472 C471 1.345 . S
C472 C473 1.424 . S
C473 H465 0.951 . S
C473 C472 1.424 . S
C473 C474 1.347 . S
C474 H466 0.951 . S
C474 C469 1.429 . S
C474 C473 1.347 . S
H475 C476 0.951 . S
C476 H475 0.951 . S
C476 C482 1.265 . S
H477 C482 0.950 . S
H478 C486 0.949 . S
H479 C487 0.950 . S
H480 C488 0.951 . S
H481 C489 0.951 . S
C482 C476 1.265 . S
C482 H477 0.950 . S
C482 C483 1.478 . S
C483 C470 1.394 . S
C483 C482 1.478 . S
C483 C484 1.397 . S
C484 C483 1.397 . S
C484 C485 1.438 . S
C484 C489 1.429 . S
C485 C468 1.394 . S
C485 C484 1.438 . S
C485 C486 1.428 . S
C486 H478 0.949 . S
C486 C485 1.428 . S
C486 C487 1.345 . S
C487 H479 0.950 . S
C487 C486 1.345 . S
C487 C488 1.424 . S
C488 H480 0.951 . S
C488 C487 1.424 . S
C488 C489 1.347 . S
C489 H481 0.951 . S
C489 C484 1.429 . S
C489 C488 1.347 . S
H490 C491 0.951 . S
C491 H490 0.951 . S
C491 C497 1.265 . S
H492 C497 0.950 . S
H493 C501 0.949 . S
H494 C502 0.950 . S
H495 C503 0.951 . S
H496 C504 0.951 . S
C497 C491 1.265 . S
C497 H492 0.950 . S
C497 C498 1.478 . S
C498 C497 1.478 . S
C498 C499 1.397 . S
C498 C515 1.394 . S
C499 C498 1.397 . S
C499 C500 1.438 . S
C499 C504 1.429 . S
C500 C499 1.438 . S
C500 C501 1.428 . S
C500 C513 1.394 . S
C501 H493 0.949 . S
C501 C500 1.428 . S
C501 C502 1.345 . S
C502 H494 0.950 . S
C502 C501 1.345 . S
C502 C503 1.424 . S
C503 H495 0.951 . S
C503 C502 1.424 . S
C503 C504 1.347 . S
C504 H496 0.951 . S
C504 C499 1.429 . S
C504 C503 1.347 . S
H505 C506 0.951 1_655 S
C506 H505 0.951 1_455 S
C506 C512 1.265 . S
H507 C512 0.950 . S
H508 C516 0.949 . S
H509 C517 0.950 . S
H510 C518 0.951 . S
H511 C519 0.951 . S
C512 C506 1.265 . S
C512 H507 0.950 . S
C512 C513 1.478 . S
C513 C500 1.394 . S
C513 C512 1.478 . S
C513 C514 1.397 . S
C514 C513 1.397 . S
C514 C515 1.438 . S
C514 C519 1.429 . S
C515 C498 1.394 . S
C515 C514 1.438 . S
C515 C516 1.428 . S
C516 H508 0.949 . S
C516 C515 1.428 . S
C516 C517 1.345 . S
C517 H509 0.950 . S
C517 C516 1.345 . S
C517 C518 1.424 . S
C518 H510 0.951 . S
C518 C517 1.424 . S
C518 C519 1.347 . S
C519 H511 0.951 . S
C519 C514 1.429 . S
C519 C518 1.347 . S
C161 C48 1.529 . S
C176 C18 1.529 . S
C191 C98 1.481 . S
C206 C128 1.481 . S
C221 C8 1.512 . S
C236 C58 1.512 . S
C251 C138 1.475 . S
C266 C88 1.475 . S
C281 C135 1.282 . S
C296 C19 1.265 . S
C311 C55 1.284 . S
C326 C99 1.262 . S
C341 C49 1.265 . S
C356 C85 1.247 . S
C371 C129 1.269 . S
C386 C5 1.278 . S
C401 C59 1.283 . S
C416 C95 1.261 1_655 S
C431 C139 1.266 . S
C446 C15 1.281 1_655 S
C461 C125 1.287 1_455 S
C476 C9 1.258 . S
C491 C89 1.265 . S
C506 C45 1.248 1_455 S
