# Generated by pormake.
# Topology zfy, (5)-cn, num edge types: 1
# Building blocks:
#     Node 0, Type 0, BuildingBlock: XOMCOT_clean_sbu_1, # of connection points: 5
#     Node 1, Type 0, BuildingBlock: XOMCOT_clean_sbu_1, # of connection points: 5
#     Node 2, Type 0, BuildingBlock: XOMCOT_clean_sbu_1, # of connection points: 5
#     Node 3, Type 0, BuildingBlock: XOMCOT_clean_sbu_1, # of connection points: 5
#     Node 4, Type 0, BuildingBlock: XOMCOT_clean_sbu_1, # of connection points: 5
#     Node 5, Type 0, BuildingBlock: XOMCOT_clean_sbu_1, # of connection points: 5
#     Node 6, Type 0, BuildingBlock: XOMCOT_clean_sbu_1, # of connection points: 5
#     Node 7, Type 0, BuildingBlock: XOMCOT_clean_sbu_1, # of connection points: 5
#     Node 8, Type 0, BuildingBlock: XOMCOT_clean_sbu_1, # of connection points: 5
#     Node 9, Type 0, BuildingBlock: XOMCOT_clean_sbu_1, # of connection points: 5
#     Node 10, Type 0, BuildingBlock: XOMCOT_clean_sbu_1, # of connection points: 5
#     Node 11, Type 0, BuildingBlock: XOMCOT_clean_sbu_1, # of connection points: 5
#     Node 12, Type 0, BuildingBlock: XOMCOT_clean_sbu_1, # of connection points: 5
#     Node 13, Type 0, BuildingBlock: XOMCOT_clean_sbu_1, # of connection points: 5
#     Node 14, Type 0, BuildingBlock: XOMCOT_clean_sbu_1, # of connection points: 5
#     Node 15, Type 0, BuildingBlock: XOMCOT_clean_sbu_1, # of connection points: 5
#     Edge 16, Type (0, 0), BuildingBlock: EZIPEK_clean_linker_0, # of connection points: 2
#     Edge 17, Type (0, 0), BuildingBlock: EZIPEK_clean_linker_0, # of connection points: 2
#     Edge 18, Type (0, 0), BuildingBlock: EZIPEK_clean_linker_0, # of connection points: 2
#     Edge 19, Type (0, 0), BuildingBlock: EZIPEK_clean_linker_0, # of connection points: 2
#     Edge 20, Type (0, 0), BuildingBlock: EZIPEK_clean_linker_0, # of connection points: 2
#     Edge 21, Type (0, 0), BuildingBlock: EZIPEK_clean_linker_0, # of connection points: 2
#     Edge 22, Type (0, 0), BuildingBlock: EZIPEK_clean_linker_0, # of connection points: 2
#     Edge 23, Type (0, 0), BuildingBlock: EZIPEK_clean_linker_0, # of connection points: 2
#     Edge 24, Type (0, 0), BuildingBlock: EZIPEK_clean_linker_0, # of connection points: 2
#     Edge 25, Type (0, 0), BuildingBlock: EZIPEK_clean_linker_0, # of connection points: 2
#     Edge 26, Type (0, 0), BuildingBlock: EZIPEK_clean_linker_0, # of connection points: 2
#     Edge 27, Type (0, 0), BuildingBlock: EZIPEK_clean_linker_0, # of connection points: 2
#     Edge 28, Type (0, 0), BuildingBlock: EZIPEK_clean_linker_0, # of connection points: 2
#     Edge 29, Type (0, 0), BuildingBlock: EZIPEK_clean_linker_0, # of connection points: 2
#     Edge 30, Type (0, 0), BuildingBlock: EZIPEK_clean_linker_0, # of connection points: 2
#     Edge 31, Type (0, 0), BuildingBlock: EZIPEK_clean_linker_0, # of connection points: 2
#     Edge 32, Type (0, 0), BuildingBlock: EZIPEK_clean_linker_0, # of connection points: 2
#     Edge 33, Type (0, 0), BuildingBlock: EZIPEK_clean_linker_0, # of connection points: 2
#     Edge 34, Type (0, 0), BuildingBlock: EZIPEK_clean_linker_0, # of connection points: 2
#     Edge 35, Type (0, 0), BuildingBlock: EZIPEK_clean_linker_0, # of connection points: 2
#     Edge 36, Type (0, 0), BuildingBlock: EZIPEK_clean_linker_0, # of connection points: 2
#     Edge 37, Type (0, 0), BuildingBlock: EZIPEK_clean_linker_0, # of connection points: 2
#     Edge 38, Type (0, 0), BuildingBlock: EZIPEK_clean_linker_0, # of connection points: 2
#     Edge 39, Type (0, 0), BuildingBlock: EZIPEK_clean_linker_0, # of connection points: 2
#     Edge 40, Type (0, 0), BuildingBlock: EZIPEK_clean_linker_0, # of connection points: 2
#     Edge 41, Type (0, 0), BuildingBlock: EZIPEK_clean_linker_0, # of connection points: 2
#     Edge 42, Type (0, 0), BuildingBlock: EZIPEK_clean_linker_0, # of connection points: 2
#     Edge 43, Type (0, 0), BuildingBlock: EZIPEK_clean_linker_0, # of connection points: 2
#     Edge 44, Type (0, 0), BuildingBlock: EZIPEK_clean_linker_0, # of connection points: 2
#     Edge 45, Type (0, 0), BuildingBlock: EZIPEK_clean_linker_0, # of connection points: 2
#     Edge 46, Type (0, 0), BuildingBlock: EZIPEK_clean_linker_0, # of connection points: 2
#     Edge 47, Type (0, 0), BuildingBlock: EZIPEK_clean_linker_0, # of connection points: 2
#     Edge 48, Type (0, 0), BuildingBlock: EZIPEK_clean_linker_0, # of connection points: 2
#     Edge 49, Type (0, 0), BuildingBlock: EZIPEK_clean_linker_0, # of connection points: 2
#     Edge 50, Type (0, 0), BuildingBlock: EZIPEK_clean_linker_0, # of connection points: 2
#     Edge 51, Type (0, 0), BuildingBlock: EZIPEK_clean_linker_0, # of connection points: 2
#     Edge 52, Type (0, 0), BuildingBlock: EZIPEK_clean_linker_0, # of connection points: 2
#     Edge 53, Type (0, 0), BuildingBlock: EZIPEK_clean_linker_0, # of connection points: 2
#     Edge 54, Type (0, 0), BuildingBlock: EZIPEK_clean_linker_0, # of connection points: 2
#     Edge 55, Type (0, 0), BuildingBlock: EZIPEK_clean_linker_0, # of connection points: 2
# Relax obj value: 0.137
# Max RMSD: 0.190
# Mean RMSD: 0.190
data_MOF--net-zfy--node1-XOMCOT_clean_sbu_1--edge1-EZIPEK_clean_linker_0
_symmetry_space_group_name_H-M    P1
_symmetry_Int_Tables_number       1
_symmetry_cell_setting            triclinic
loop_
_symmetry_equiv_pos_as_xyz
'x, y, z'
_cell_length_a     39.155874
_cell_length_b     39.196236
_cell_length_c     24.554357
_cell_angle_alpha  89.794104
_cell_angle_beta   89.755357
_cell_angle_gamma 90.06355
loop_
_atom_site_label
_atom_site_type_symbol
_atom_site_fract_x
_atom_site_fract_y
_atom_site_fract_z
_atom_type_partial_charge
C0 C 0.27266 0.25676 0.06818 0.0
C1 C 0.25931 0.2661 0.11804 0.0
N2 N 0.27416 0.24709 0.15698 0.0
N3 N 0.29622 0.232 0.07495 0.0
C4 C 0.2965 0.2266 0.12994 0.0
H5 H 0.2648 0.26675 0.0291 0.0
Co6 Co 0.31811 0.20887 1.01547 0.0
C7 C 0.33818 0.1415 0.0646 0.0
O8 O 0.32475 0.12646 0.02212 0.0
N9 N 0.34106 0.18502 0.95548 0.0
C10 C 0.35419 0.1494 0.88713 0.0
C11 C 0.32864 0.16137 0.92038 0.0
C12 C 0.37492 0.18639 0.94185 0.0
N13 N 0.3834 0.16503 0.9005 0.0
O14 O 0.35755 0.23963 0.01959 0.0
H15 H 0.30317 0.15098 0.92051 0.0
H16 H 0.39356 0.20168 0.96313 0.0
O17 O 0.33735 0.17429 0.06788 0.0
C18 C 0.35017 0.26396 0.98627 0.0
O19 O 0.31921 0.26429 0.96583 0.0
N20 N 0.27698 0.18469 1.00417 0.0
C21 C 0.21525 0.1558 0.97013 0.0
C22 C 0.2278 0.14962 0.02303 0.0
C23 C 0.25877 0.16474 0.03952 0.0
C24 C 0.26239 0.19483 0.95642 0.0
C25 C 0.23246 0.17973 0.93764 0.0
H26 H 0.26784 0.16099 0.08051 0.0
H27 H 0.27541 0.21331 0.93091 0.0
H28 H 0.31211 0.20756 0.14982 0.0
H29 H 0.23969 0.28503 0.12516 0.0
H30 H 0.35183 0.12945 0.85698 0.0
H31 H 0.21421 0.13277 0.05066 0.0
H32 H 0.22317 0.18629 0.89745 0.0
C33 C 0.51138 0.51714 0.30603 0.0
C34 C 0.50053 0.50292 0.35476 0.0
N35 N 0.51673 0.5186 0.39597 0.0
N36 N 0.53449 0.54192 0.31568 0.0
C37 C 0.5372 0.54219 0.37121 0.0
H38 H 0.50339 0.5094 0.26582 0.0
Co39 Co 0.55817 0.56723 0.25954 0.0
C40 C 0.60545 0.61141 0.32483 0.0
O41 O 0.59433 0.63857 0.299 0.0
N42 N 0.58313 0.59325 0.20393 0.0
C43 C 0.62866 0.61263 0.15782 0.0
C44 C 0.61664 0.58819 0.19313 0.0
C45 C 0.57534 0.62096 0.17221 0.0
N46 N 0.60285 0.63352 0.1443 0.0
O47 O 0.52611 0.60524 0.26934 0.0
H48 H 0.63195 0.56799 0.20996 0.0
H49 H 0.55028 0.63236 0.17033 0.0
O50 O 0.59219 0.58228 0.31452 0.0
C51 C 0.50358 0.5994 0.23234 0.0
O52 O 0.50903 0.57333 0.19993 0.0
N53 N 0.58395 0.52793 0.24281 0.0
C54 C 0.61555 0.46966 0.20058 0.0
C55 C 0.62321 0.48114 0.25345 0.0
C56 C 0.6067 0.51034 0.27425 0.0
C57 C 0.57538 0.5161 0.19252 0.0
C58 C 0.59093 0.48726 0.17057 0.0
H59 H 0.61233 0.51888 0.31505 0.0
H60 H 0.55663 0.52967 0.16863 0.0
H61 H 0.55426 0.55886 0.39323 0.0
H62 H 0.48252 0.48214 0.35956 0.0
H63 H 0.6547 0.615 0.14325 0.0
H64 H 0.64203 0.46798 0.2779 0.0
H65 H 0.58433 0.47916 0.1298 0.0
C66 C 0.22559 0.75043 0.57434 0.0
C67 C 0.23936 0.74013 0.62322 0.0
N68 N 0.23342 0.76448 0.66042 0.0
N69 N 0.21081 0.78134 0.57982 0.0
C70 C 0.21607 0.78932 0.63324 0.0
H71 H 0.22651 0.73618 0.53676 0.0
Co72 Co 0.18935 0.80394 0.51946 0.0
C73 C 0.15588 0.86726 0.5696 0.0
O74 O 0.15335 0.88342 0.52293 0.0
N75 N 0.16804 0.82499 0.45717 0.0
C76 C 0.16195 0.84257 0.37097 0.0
C77 C 0.18427 0.82966 0.40899 0.0
C78 C 0.1352 0.83441 0.44637 0.0
N79 N 0.13104 0.84562 0.39436 0.0
O80 O 0.14982 0.77371 0.52662 0.0
H81 H 0.21078 0.82373 0.40135 0.0
H82 H 0.11486 0.83377 0.47632 0.0
O83 O 0.1692 0.8374 0.5718 0.0
C84 C 0.15246 0.74927 0.49234 0.0
O85 O 0.17946 0.74848 0.46045 0.0
N86 N 0.23008 0.8302 0.50751 0.0
C87 C 0.29039 0.86039 0.46711 0.0
C88 C 0.26503 0.88015 0.49242 0.0
C89 C 0.23502 0.86462 0.5122 0.0
C90 C 0.25515 0.8106 0.48463 0.0
C91 C 0.28537 0.82509 0.46419 0.0
H92 H 0.2157 0.88078 0.52912 0.0
H93 H 0.25088 0.78359 0.47928 0.0
H94 H 0.2076 0.81281 0.65189 0.0
H95 H 0.25288 0.71653 0.63092 0.0
H96 H 0.16804 0.84971 0.32942 0.0
H97 H 0.26793 0.90757 0.49522 0.0
H98 H 0.30415 0.80898 0.44454 0.0
C99 C 0.01377 0.48362 0.82584 0.0
C100 C 0.02211 0.4967 0.87605 0.0
N101 N 0.99736 0.48831 0.91182 0.0
N102 N 0.98366 0.4669 0.82884 0.0
C103 C 0.97427 0.47015 0.88228 0.0
H104 H 0.02904 0.48603 0.78926 0.0
Co105 Co 0.96364 0.44478 0.76663 0.0
C106 C 0.90045 0.4086 0.81523 0.0
O107 O 0.88495 0.40395 0.7686 0.0
N108 N 0.94502 0.42289 0.70325 0.0
C109 C 0.9295 0.41663 0.6163 0.0
C110 C 0.94162 0.43899 0.65479 0.0
C111 C 0.93579 0.39008 0.69215 0.0
N112 N 0.92596 0.38578 0.63961 0.0
O113 O 0.99501 0.40632 0.77527 0.0
H114 H 0.94765 0.46552 0.6475 0.0
H115 H 0.93551 0.36985 0.72227 0.0
O116 O 0.92952 0.42363 0.81706 0.0
C117 C 0.02075 0.41047 0.74346 0.0
O118 O 0.02209 0.43826 0.71351 0.0
N119 N 0.93628 0.48442 0.75282 0.0
C120 C 0.90486 0.54229 0.70703 0.0
C121 C 0.88527 0.5153 0.72818 0.0
C122 C 0.90144 0.48647 0.75049 0.0
C123 C 0.95554 0.51105 0.73369 0.0
C124 C 0.94043 0.54018 0.71092 0.0
H125 H 0.8857 0.4655 0.76294 0.0
H126 H 0.98302 0.50888 0.73278 0.0
H127 H 0.95127 0.45916 0.89952 0.0
H128 H 0.04504 0.51082 0.8859 0.0
H129 H 0.92322 0.42266 0.57446 0.0
H130 H 0.85767 0.51594 0.72559 0.0
H131 H 0.95645 0.56037 0.69469 0.0
C132 C 0.74843 0.76967 0.97986 0.0
C133 C 0.76369 0.75771 0.93278 0.0
N134 N 0.7421 0.76233 0.89092 0.0
N135 N 0.71728 0.78257 0.9685 0.0
C136 C 0.71376 0.77655 0.91392 0.0
H137 H 0.76019 0.77055 0.01962 0.0
Co138 Co 0.68966 0.80769 0.02095 0.0
C139 C 0.68223 0.85462 0.91816 0.0
O140 O 0.71056 0.84633 0.89298 0.0
N141 N 0.66164 0.83364 0.07168 0.0
C142 C 0.63762 0.88075 0.10592 0.0
C143 C 0.66033 0.86808 0.06847 0.0
C144 C 0.63952 0.82619 0.11329 0.0
N145 N 0.62421 0.85458 0.1342 0.0
O146 O 0.65131 0.77601 1.0091 0.0
H147 H 0.67507 0.8834 0.04033 0.0
H148 H 0.63487 0.80067 0.12828 0.0
O149 O 0.67395 0.84065 0.96373 0.0
C150 C 0.65532 0.75072 0.04205 0.0
O151 O 0.68271 0.75045 0.07271 0.0
N152 N 0.7287 0.8347 0.04115 0.0
C153 C 0.78801 0.86293 0.088 0.0
C154 C 0.78241 0.86476 0.03149 0.0
C155 C 0.75259 0.85046 1.00885 0.0
C156 C 0.73446 0.83214 0.09591 0.0
C157 C 0.76333 0.84653 0.12009 0.0
H158 H 0.74991 0.85067 0.96541 0.0
H159 H 0.71691 0.81785 0.12132 0.0
H160 H 0.69152 0.78399 0.89077 0.0
H161 H 0.78941 0.74786 0.92913 0.0
H162 H 0.63121 0.90736 0.11184 0.0
H163 H 0.8013 0.87643 1.00499 0.0
H164 H 0.76689 0.84387 0.16363 0.0
C165 C 0.51671 0.47246 0.7088 0.0
C166 C 0.52729 0.48433 0.65854 0.0
N167 N 0.50184 0.47986 0.6228 0.0
N168 N 0.48436 0.46039 0.70622 0.0
C169 C 0.4762 0.46513 0.65241 0.0
H170 H 0.53193 0.47289 0.74536 0.0
Co171 Co 0.46199 0.44104 0.77115 0.0
C172 C 0.40317 0.42664 0.69419 0.0
O173 O 0.39861 0.45936 0.68543 0.0
N174 N 0.44101 0.42084 0.83457 0.0
C175 C 0.41752 0.41168 0.91636 0.0
C176 C 0.43168 0.43577 0.88181 0.0
C177 C 0.43348 0.38726 0.84271 0.0
N178 N 0.41889 0.38089 0.89211 0.0
O179 O 0.49377 0.40256 0.77054 0.0
H180 H 0.43493 0.46256 0.89076 0.0
H181 H 0.43855 0.36771 0.81272 0.0
O182 O 0.42739 0.41646 0.72545 0.0
C183 C 0.51603 0.40938 0.80732 0.0
O184 O 0.51414 0.4393 0.83117 0.0
N185 N 0.43481 0.4816 0.78025 0.0
C186 C 0.40584 0.54063 0.82656 0.0
C187 C 0.38579 0.51174 0.81611 0.0
C188 C 0.40087 0.48237 0.79379 0.0
C189 C 0.45427 0.51008 0.78879 0.0
C190 C 0.44035 0.53976 0.81157 0.0
H191 H 0.38589 0.45956 0.79186 0.0
H192 H 0.48149 0.50916 0.78223 0.0
H193 H 0.45236 0.45767 0.63437 0.0
H194 H 0.55196 0.49533 0.64886 0.0
H195 H 0.40719 0.4164 0.9566 0.0
H196 H 0.35917 0.51115 0.82824 0.0
H197 H 0.45682 0.56133 0.81988 0.0
C198 C 0.77594 0.26277 0.47107 0.0
C199 C 0.76302 0.27228 0.42104 0.0
N200 N 0.77663 0.25197 0.38263 0.0
N201 N 0.79787 0.23655 0.4649 0.0
C202 C 0.7977 0.23044 0.41018 0.0
H203 H 0.76927 0.27393 0.50989 0.0
Co204 Co 0.81993 0.21487 0.52518 0.0
C205 C 0.84421 0.14739 0.48289 0.0
O206 O 0.83712 0.13445 0.53103 0.0
N207 N 0.84303 0.1932 0.58667 0.0
C208 C 0.85577 0.16676 0.66507 0.0
C209 C 0.83 0.17942 0.6331 0.0
C210 C 0.87737 0.1886 0.59262 0.0
N211 N 0.8857 0.17249 0.63987 0.0
O212 O 0.8587 0.24653 0.51803 0.0
H213 H 0.80349 0.17757 0.64408 0.0
H214 H 0.89592 0.19579 0.56195 0.0
O215 O 0.83932 0.17948 0.47457 0.0
C216 C 0.85449 0.26837 0.55657 0.0
O217 O 0.82834 0.26381 0.58955 0.0
N218 N 0.77936 0.18968 0.53781 0.0
C219 C 0.71755 0.16084 0.57332 0.0
C220 C 0.73306 0.15012 0.5243 0.0
C221 C 0.76409 0.16507 0.50704 0.0
C222 C 0.76194 0.20353 0.58049 0.0
C223 C 0.73205 0.18865 0.60039 0.0
H224 H 0.7754 0.15732 0.46889 0.0
H225 H 0.77258 0.22523 0.60156 0.0
H226 H 0.81233 0.21043 0.39084 0.0
H227 H 0.74466 0.29236 0.41345 0.0
H228 H 0.85274 0.15377 0.70378 0.0
H229 H 0.72168 0.12996 0.50036 0.0
H230 H 0.72051 0.19868 0.63717 0.0
C231 C 0.01837 0.51547 0.22726 0.0
C232 C 1.00597 0.50133 0.17991 0.0
N233 N 0.01051 0.5238 0.13894 0.0
N234 N 0.03143 0.54672 0.21683 0.0
C235 C 0.025 0.55155 0.16274 0.0
H236 H 0.01934 0.50294 0.26654 0.0
Co237 Co 0.05576 0.5728 0.27071 0.0
C238 C 0.10383 0.58524 0.16851 0.0
O239 O 0.09392 0.55915 0.1393 0.0
N240 N 0.08043 0.5993 0.32391 0.0
C241 C 0.12642 0.62173 0.36378 0.0
C242 C 0.11488 0.59837 0.32682 0.0
C243 C 0.07167 0.62357 0.36116 0.0
N244 N 0.09938 0.63786 0.38542 0.0
O245 O 0.02258 0.61014 0.26261 0.0
H246 H 0.13093 0.58179 0.30314 0.0
H247 H 0.04573 0.63131 0.36975 0.0
O248 O 0.08991 0.59138 0.21519 0.0
C249 C 0.99998 0.6036 0.2996 0.0
O250 O 1.0048 0.5763 0.32987 0.0
N251 N 0.08337 0.53398 0.2873 0.0
C252 C 0.11429 0.47448 0.32738 0.0
C253 C 0.11749 0.48365 0.27229 0.0
C254 C 0.10148 0.51339 0.25287 0.0
C255 C 0.07934 0.52459 0.34062 0.0
C256 C 0.09489 0.49532 0.3616 0.0
H257 H 0.10301 0.51901 0.2102 0.0
H258 H 0.06355 0.53986 0.36727 0.0
H259 H 0.03218 0.57435 0.1405 0.0
H260 H 0.99612 0.47569 0.17528 0.0
H261 H 0.15285 0.62684 0.37371 0.0
H262 H 0.13201 0.46783 0.24453 0.0
H263 H 0.0916 0.48889 0.40425 0.0
C264 C 0.77385 0.75562 0.57446 0.0
C265 C 0.76145 0.76464 0.62504 0.0
N266 N 0.7779 0.74637 0.66306 0.0
N267 N 0.79763 0.73075 0.57901 0.0
C268 C 0.8005 0.72693 0.63431 0.0
H269 H 0.76633 0.76756 0.53672 0.0
Co270 Co 0.82056 0.71025 0.51566 0.0
C271 C 0.83121 0.65337 0.59824 0.0
O272 O 0.79816 0.6528 0.60767 0.0
N273 N 0.8433 0.69142 0.4529 0.0
C274 C 0.85244 0.67803 0.36564 0.0
C275 C 0.82928 0.69076 0.40274 0.0
C276 C 0.87556 0.67923 0.44476 0.0
N277 N 0.88165 0.67086 0.39183 0.0
O278 O 0.85786 0.74344 0.52221 0.0
H279 H 0.80379 0.69947 0.39336 0.0
H280 H 0.89427 0.67669 0.47684 0.0
O281 O 0.84345 0.67512 0.56372 0.0
C282 C 0.85176 0.76622 0.48562 0.0
O283 O 0.82382 0.76278 0.45667 0.0
N284 N 0.7815 0.68193 0.5007 0.0
C285 C 0.72326 0.65098 0.4546 0.0
C286 C 0.75027 0.63113 0.47527 0.0
C287 C 0.77967 0.64712 0.49645 0.0
C288 C 0.7556 0.7012 0.47976 0.0
C289 C 0.72639 0.68645 0.45734 0.0
H290 H 0.80131 0.63147 0.50692 0.0
H291 H 0.75868 0.72835 0.47593 0.0
H292 H 0.81967 0.71141 0.65341 0.0
H293 H 0.74212 0.78367 0.63337 0.0
H294 H 0.84818 0.67426 0.32254 0.0
H295 H 0.74939 0.60358 0.4724 0.0
H296 H 0.70692 0.70278 0.44001 0.0
C297 C 0.00931 0.02194 0.81163 0.0
C298 C 0.99801 0.00841 0.86054 0.0
N299 N 0.01149 0.02663 0.90151 0.0
N300 N 0.03001 0.04888 0.82085 0.0
C301 C 0.03083 0.05103 0.87645 0.0
H302 H 1.00385 0.01179 0.7717 0.0
Co303 Co 0.0557 0.07261 0.76464 0.0
C304 C 0.11835 0.08808 0.83244 0.0
O305 O 0.13726 0.06827 0.80187 0.0
N306 N 0.08254 0.0974 0.70929 0.0
C307 C 0.12693 0.11418 0.65785 0.0
C308 C 0.11486 0.08996 0.69345 0.0
C309 C 0.07562 0.12657 0.68055 0.0
N310 N 0.10232 0.13735 0.64903 0.0
O311 O 0.02459 0.11134 0.76776 0.0
H312 H 0.12925 0.06785 0.70579 0.0
H313 H 0.05163 0.14007 0.6829 0.0
O314 O 0.08636 0.09142 0.82233 0.0
C315 C 0.99997 0.10327 0.73569 0.0
O316 O 0.99871 0.07165 0.71825 0.0
N317 N 0.08106 0.03205 0.75234 0.0
C318 C 0.10737 0.96994 0.71434 0.0
C319 C 0.10986 0.97874 0.76979 0.0
C320 C 0.09596 0.0099 0.78823 0.0
C321 C 0.07632 0.02232 0.69956 0.0
C322 C 0.08997 0.99208 0.6795 0.0
H323 H 0.09656 0.01589 0.83109 0.0
H324 H 0.0617 0.03839 0.6724 0.0
H325 H 0.04623 0.06929 0.89838 0.0
H326 H 0.98189 0.98616 0.8657 0.0
H327 H 0.15202 0.11451 0.63912 0.0
H328 H 0.12197 0.96157 0.79842 0.0
H329 H 0.08647 0.98576 0.63697 0.0
C330 C 0.74428 0.25354 0.06622 0.0
C331 C 0.75692 0.24387 0.11634 0.0
N332 N 0.74132 0.26244 0.1551 0.0
N333 N 0.72061 0.27823 0.07261 0.0
C334 C 0.71939 0.28313 0.12762 0.0
H335 H 0.75267 0.24383 0.02725 0.0
Co336 Co 0.69938 0.30145 1.01266 0.0
C337 C 0.67777 0.36886 0.05855 0.0
O338 O 0.68814 0.38335 1.01313 0.0
N339 N 0.6771 0.32511 0.95226 0.0
C340 C 0.66482 0.3579 0.8799 0.0
C341 C 0.69039 0.34522 0.9123 0.0
C342 C 0.64282 0.32646 0.94236 0.0
N343 N 0.6348 0.34608 0.89854 0.0
O344 O 0.65963 0.27137 1.01734 0.0
H345 H 0.71678 0.35237 0.90759 0.0
H346 H 0.62378 0.31399 0.96754 0.0
O347 O 0.68048 0.33631 0.06423 0.0
C348 C 0.66665 0.24731 0.98357 0.0
O349 O 0.69754 0.24664 0.96252 0.0
N350 N 0.74065 0.32532 1.00102 0.0
C351 C 0.80192 0.35413 0.96419 0.0
C352 C 0.78799 0.36343 1.01506 0.0
C353 C 0.75736 0.34811 0.03328 0.0
C354 C 0.75653 0.31273 0.95584 0.0
C355 C 0.78644 0.32745 0.93576 0.0
H356 H 0.7473 0.35413 0.07305 0.0
H357 H 0.74451 0.29253 0.93296 0.0
H358 H 0.70351 0.30206 0.14722 0.0
H359 H 0.77662 0.22508 0.12376 0.0
H360 H 0.66793 0.37541 0.84602 0.0
H361 H 0.80031 0.38264 0.03977 0.0
H362 H 0.79696 0.31858 0.89748 0.0
C363 C 0.49526 0.99779 0.31506 0.0
C364 C 0.5073 0.01171 0.36278 0.0
N365 N 0.50154 0.98947 0.40366 0.0
N366 N 0.4813 0.96688 0.32514 0.0
C367 C 0.48662 0.96207 0.37953 0.0
H368 H 0.49531 0.01021 0.27566 0.0
Co369 Co 0.45735 0.94115 0.27051 0.0
C370 C 0.40757 0.93083 0.37025 0.0
O371 O 0.41636 0.95788 0.39816 0.0
N372 N 0.43294 0.91537 0.21683 0.0
C373 C 0.38718 0.89313 0.17609 0.0
C374 C 0.39849 0.91631 0.21362 0.0
C375 C 0.44197 0.89149 0.17927 0.0
N376 N 0.41439 0.87722 0.1546 0.0
O377 O 0.48833 0.9022 0.28202 0.0
H378 H 0.38229 0.93242 0.23807 0.0
H379 H 0.468 0.88423 0.17074 0.0
O380 O 0.42226 0.92393 0.32461 0.0
C381 C 0.51542 0.908 0.25356 0.0
O382 O 0.51756 0.93733 0.22771 0.0
N383 N 0.4315 0.98078 0.25102 0.0
C384 C 0.40161 0.03889 0.20359 0.0
C385 C 0.39482 0.03006 0.25814 0.0
C386 C 0.41035 1.00104 0.28134 0.0
C387 C 0.4392 0.98999 0.19865 0.0
C388 C 0.42443 0.01862 0.17412 0.0
H389 H 0.40548 0.99539 0.3234 0.0
H390 H 0.45704 0.97476 0.17541 0.0
H391 H 0.47833 0.93962 0.40167 0.0
H392 H 0.51786 0.03705 0.36764 0.0
H393 H 0.36081 0.88766 0.16626 0.0
H394 H 0.37754 0.04535 0.28241 0.0
H395 H 0.4305 0.02466 0.13209 0.0
C396 C 0.24589 0.26432 0.47305 0.0
C397 C 0.25945 0.25223 0.4249 0.0
N398 N 0.23804 0.26019 0.38412 0.0
N399 N 0.21609 0.2805 0.46333 0.0
C400 C 0.2115 0.27655 0.40863 0.0
H401 H 0.25797 0.26285 0.51249 0.0
Co402 Co 0.19225 0.30627 0.51836 0.0
C403 C 0.18397 0.35629 0.41902 0.0
O404 O 0.21151 0.34776 0.39176 0.0
N405 N 0.1686 0.33294 0.57226 0.0
C406 C 0.14892 0.38082 0.61025 0.0
C407 C 0.17081 0.36739 0.57228 0.0
C408 C 0.14546 0.32615 0.61247 0.0
N409 N 0.13263 0.35503 0.63543 0.0
O410 O 0.15146 0.27742 0.50922 0.0
H411 H 0.18674 0.38217 0.54503 0.0
H412 H 0.13779 0.30076 0.62427 0.0
O413 O 0.17625 0.34127 0.46403 0.0
C414 C 0.15546 0.25114 0.54012 0.0
O415 O 0.18423 0.24843 0.56707 0.0
N416 N 0.23339 0.32982 0.53578 0.0
C417 C 0.29274 0.35654 0.58349 0.0
C418 C 0.28316 0.36601 0.53044 0.0
C419 C 0.25378 0.35168 0.50679 0.0
C420 C 0.24322 0.31952 0.58652 0.0
C421 C 0.27274 0.33226 0.61086 0.0
H422 H 0.24797 0.35822 0.46558 0.0
H423 H 0.22774 0.30119 0.60855 0.0
H424 H 0.18996 0.28681 0.38659 0.0
H425 H 0.28404 0.24004 0.41979 0.0
H426 H 0.14444 0.40766 0.61773 0.0
H427 H 0.29826 0.3843 0.50755 0.0
H428 H 0.27941 0.32389 0.65154 0.0
C429 C 1.00591 0.99137 0.21747 0.0
C430 C 0.0155 1.00409 0.16722 0.0
N431 N 0.99459 0.99117 0.12917 0.0
N432 N 0.97884 0.97031 0.21224 0.0
C433 C 0.97256 0.97064 0.15743 0.0
H434 H 0.01807 0.99724 0.25573 0.0
Co435 Co 0.95822 0.94769 0.27432 0.0
C436 C 0.89414 0.91398 0.22855 0.0
O437 O 0.87821 0.91646 0.2755 0.0
N438 N 0.93865 0.92493 0.33735 0.0
C439 C 0.92262 0.91571 0.42372 0.0
C440 C 0.93447 0.93946 0.38682 0.0
C441 C 0.92986 0.89163 0.34624 0.0
N442 N 0.91946 0.88558 0.3983 0.0
O443 O 0.99193 0.91073 0.26911 0.0
H444 H 0.94021 0.96565 0.39646 0.0
H445 H 0.9308 0.87224 0.31513 0.0
O446 O 0.92499 0.9249 0.2236 0.0
C447 C 0.01365 0.91623 0.30735 0.0
O448 O 0.00869 0.94304 0.33837 0.0
N449 N 0.93011 0.98692 0.28661 0.0
C450 C 0.89928 0.0448 0.33337 0.0
C451 C 0.88093 0.02338 0.29799 0.0
C452 C 0.89677 0.99441 0.27514 0.0
C453 C 0.94882 0.0093 0.31688 0.0
C454 C 0.93395 0.03792 0.34111 0.0
H455 H 0.88166 0.97797 0.25006 0.0
H456 H 0.97515 1.00348 0.32592 0.0
H457 H 0.95244 0.95606 0.1384 0.0
H458 H 0.03643 0.02148 0.15911 0.0
H459 H 0.91622 0.92031 0.466 0.0
H460 H 0.85412 0.02807 0.29031 0.0
H461 H 0.94917 0.05372 0.36781 0.0
C462 C 0.29462 0.7639 0.96501 0.0
C463 C 0.28077 0.77544 0.91693 0.0
N464 N 0.28195 0.75 0.88061 0.0
N465 N 0.30499 0.73113 0.96012 0.0
C466 C 0.29657 0.7234 0.90755 0.0
H467 H 0.29663 0.77868 1.00187 0.0
Co468 Co 0.32615 0.70903 0.02261 0.0
C469 C 0.33808 0.65007 0.94379 0.0
O470 O 0.30519 0.64563 0.93659 0.0
N471 N 0.34714 0.68925 0.08569 0.0
C472 C 0.35496 0.67628 0.17346 0.0
C473 C 0.33256 0.68946 0.13564 0.0
C474 C 0.37887 0.67613 0.09456 0.0
N475 N 0.38424 0.66818 0.14783 0.0
O476 O 0.36548 0.73974 1.01534 0.0
H477 H 0.30722 0.69906 0.14419 0.0
H478 H 0.3978 0.67279 0.06278 0.0
O479 O 0.34884 0.6738 0.97543 0.0
C480 C 0.36314 0.76412 0.04983 0.0
O481 O 0.33661 0.76471 0.0827 0.0
N482 N 0.28581 0.68216 0.03563 0.0
C483 C 0.22561 0.65153 0.07654 0.0
C484 C 0.25526 0.63213 0.06697 0.0
C485 C 0.28529 0.64805 0.04782 0.0
C486 C 0.25715 0.70123 0.04483 0.0
C487 C 0.22698 0.68653 0.06501 0.0
H488 H 0.3084 0.6332 0.04487 0.0
H489 H 0.25801 0.72855 0.03954 0.0
H490 H 0.30067 0.69908 0.88875 0.0
H491 H 0.2705 0.80062 0.90918 0.0
H492 H 0.35019 0.67299 0.21662 0.0
H493 H 0.25559 0.60512 0.07638 0.0
H494 H 0.20507 0.70263 0.073 0.0
C495 C 0.50103 0.03257 0.71678 0.0
C496 C 0.49114 0.01911 0.66745 0.0
N497 N 0.5153 0.02637 0.63001 0.0
N498 N 0.53145 0.04848 0.71125 0.0
C499 C 0.53951 0.0442 0.65752 0.0
H500 H 0.48684 0.03065 0.75451 0.0
Co501 Co 0.55547 0.06992 0.77005 0.0
C502 C 0.61678 0.10359 0.716 0.0
O503 O 0.63453 0.1022 0.76112 0.0
N504 N 0.57916 0.09182 0.82914 0.0
C505 C 0.60958 0.10147 0.90434 0.0
C506 C 0.59614 0.07685 0.87066 0.0
C507 C 0.58198 0.12583 0.83991 0.0
N508 N 0.60066 0.13241 0.88524 0.0
O509 O 0.52336 0.1081 0.76965 0.0
H510 H 0.59883 0.04969 0.87658 0.0
H511 H 0.571 0.14555 0.81448 0.0
O512 O 0.58619 0.09189 0.7149 0.0
C513 C 0.50168 0.10194 0.80791 0.0
O514 O 0.50413 0.07259 0.83365 0.0
N515 N 0.58269 0.02992 0.77778 0.0
C516 C 0.61309 0.96997 0.81722 0.0
C517 C 0.63204 0.99361 0.78641 0.0
C518 C 0.61638 0.02352 0.76708 0.0
C519 C 0.56374 1.00625 0.80559 0.0
C520 C 0.57836 0.97624 0.8257 0.0
H521 H 0.63206 0.04167 0.74616 0.0
H522 H 0.53731 0.0116 0.81497 0.0
H523 H 0.56259 0.05391 0.63869 0.0
H524 H 0.46777 1.00526 0.65947 0.0
H525 H 0.62486 0.09697 0.9403 0.0
H526 H 0.65905 0.98961 0.77923 0.0
H527 H 0.56293 0.95869 0.84953 0.0
C528 C 0.47337 0.13054 0.88725 0.0
C529 C 0.47617 0.12722 0.82965 0.0
C530 C 0.42267 0.15981 0.82113 0.0
C531 C 0.41676 0.1566 0.87809 0.0
N532 N 0.43507 0.13398 0.96453 0.0
N533 N 0.45208 0.1381 0.74105 0.0
C534 C 0.44197 0.14114 0.91114 0.0
C535 C 0.45073 0.14226 0.79619 0.0
N536 N 0.50085 0.12343 0.91936 0.0
N537 N 0.40129 0.17979 0.79107 0.0
H538 H 0.4722 0.1258 0.72139 0.0
H539 H 0.43225 0.14502 0.71515 0.0
H540 H 0.38105 0.19313 0.8088 0.0
H541 H 0.40556 0.1857 0.75022 0.0
H542 H 0.5013 0.12839 0.96102 0.0
H543 H 0.52437 0.11611 0.90328 0.0
H544 H 0.45118 0.11944 0.98901 0.0
H545 H 0.41174 0.13947 0.98297 0.0
C546 C 0.59675 0.69653 0.12478 0.0
C547 C 0.60645 0.66313 0.10819 0.0
C548 C 0.63945 0.68866 0.03222 0.0
C549 C 0.63043 0.72181 0.04996 0.0
N550 N 0.58885 0.75544 0.0966 0.0
N551 N 0.62667 0.62796 0.03478 0.0
C552 C 0.60503 0.72502 0.09071 0.0
C553 C 0.62436 0.65945 0.05792 0.0
N554 N 0.58227 0.70175 0.17467 0.0
N555 N 0.66341 0.68513 0.99211 0.0
H556 H 0.61458 0.60666 0.05177 0.0
H557 H 0.63725 0.62377 0.99639 0.0
H558 H 0.67341 0.70612 0.97107 0.0
H559 H 0.67415 0.66177 0.98148 0.0
H560 H 0.57769 0.72603 0.19025 0.0
H561 H 0.57802 0.68226 0.2027 0.0
H562 H 0.56835 0.75906 0.12318 0.0
H563 H 0.59357 0.77534 0.06929 0.0
C564 C 0.10178 0.89797 0.36259 0.0
C565 C 0.10164 0.86218 0.36977 0.0
C566 C 0.04468 0.85956 0.32694 0.0
C567 C 0.04538 0.8955 0.31826 0.0
N568 N 0.08024 0.94609 0.3112 0.0
N569 N 0.07793 0.80822 0.34409 0.0
C570 C 0.07576 0.91378 0.33101 0.0
C571 C 0.07452 0.84273 0.3475 0.0
N572 N 0.12653 0.91705 0.38698 0.0
N573 N 0.01541 0.84159 0.31785 0.0
H574 H 0.09991 0.79573 0.35739 0.0
H575 H 0.06063 0.79271 0.32363 0.0
H576 H 0.99342 0.85266 0.30201 0.0
H577 H 0.01237 0.81614 0.32933 0.0
H578 H 0.12607 0.94362 0.38793 0.0
H579 H 0.14585 0.90621 0.41046 0.0
H580 H 0.10296 0.9597 0.31517 0.0
H581 H 0.06268 0.95758 0.28513 0.0
C582 C 0.92873 0.32932 0.59237 0.0
C583 C 0.90947 0.35652 0.61472 0.0
C584 C 0.85738 0.33072 0.578 0.0
C585 C 0.87547 0.30023 0.56515 0.0
N586 N 0.92946 0.2706 0.56106 0.0
N587 N 0.85649 0.38298 0.63217 0.0
C588 C 0.91159 0.29962 0.57202 0.0
C589 C 0.87388 0.35703 0.60805 0.0
N590 N 0.96329 0.33261 0.58861 0.0
N591 N 0.82483 0.33495 0.55933 0.0
H592 H 0.82994 0.38484 0.63357 0.0
H593 H 0.82994 0.38484 0.63357 0.0
H594 H 0.81302 0.31698 0.53446 0.0
H595 H 0.81125 0.35766 0.56272 0.0
H596 H 0.97882 0.31524 0.56821 0.0
H597 H 0.97585 0.35457 0.60175 0.0
H598 H 0.95498 0.26728 0.5717 0.0
H599 H 0.91835 0.24931 0.54323 0.0
C600 C 0.60556 0.87907 0.22265 0.0
C601 C 0.59831 0.85848 0.17662 0.0
C602 C 0.53851 0.8556 0.20751 0.0
C603 C 0.54397 0.88296 0.2438 0.0
N604 N 0.58386 0.91882 0.29058 0.0
N605 N 0.55566 0.83118 0.12142 0.0
C606 C 0.57808 0.89366 0.25344 0.0
C607 C 0.56427 0.84711 0.16861 0.0
N608 N 0.63881 0.88495 0.23609 0.0
N609 N 0.50866 0.83793 0.21001 0.0
H610 H 0.57314 0.82769 0.08988 0.0
H611 H 0.53054 0.82495 0.1116 0.0
H612 H 0.49058 0.84307 0.24019 0.0
H613 H 0.5042 0.81613 0.1869 0.0
H614 H 0.64625 0.89775 0.27118 0.0
H615 H 0.65897 0.87413 0.21418 0.0
H616 H 0.60737 0.93081 0.29553 0.0
H617 H 0.56436 0.92832 0.3154 0.0
C618 C 0.3739 0.2951 0.90514 0.0
C619 C 0.37544 0.28901 0.96226 0.0
C620 C 0.41422 0.33846 0.96895 0.0
C621 C 0.40624 0.34854 0.91451 0.0
N622 N 0.37186 0.33809 0.8348 0.0
N623 N 0.39619 0.30709 0.04979 0.0
C624 C 0.3846 0.32709 0.88341 0.0
C625 C 0.39569 0.31109 0.99458 0.0
N626 N 0.36216 0.27018 0.87127 0.0
N627 N 0.44026 0.35426 0.99563 0.0
H628 H 0.38343 0.28729 0.06973 0.0
H629 H 0.40737 0.32477 0.07584 0.0
H630 H 0.45538 0.37291 0.97716 0.0
H631 H 0.44919 0.34619 0.03346 0.0
H632 H 0.36329 0.27223 0.82895 0.0
H633 H 0.35507 0.24605 0.88538 0.0
H634 H 0.35345 0.32457 0.81315 0.0
H635 H 0.3763 0.36242 0.81943 0.0
C636 C 0.95589 0.15172 0.73986 0.0
C637 C 0.97605 0.12846 0.7093 0.0
C638 C 0.93861 0.13753 0.62994 0.0
C639 C 0.91877 0.16117 0.65989 0.0
N640 N 0.91441 0.19791 0.73766 0.0
N641 N 0.99314 0.10953 0.6195 0.0
C642 C 0.92947 0.1706 0.71308 0.0
C643 C 0.96956 0.12489 0.65244 0.0
N644 N 0.96045 0.15446 0.79474 0.0
N645 N 0.92685 0.12497 0.58172 0.0
H646 H 0.01642 0.10037 0.63376 0.0
H647 H 0.99118 0.10931 0.57718 0.0
H648 H 0.90367 0.13218 0.56472 0.0
H649 H 0.93852 0.10481 0.5613 0.0
H650 H 0.94396 0.16806 0.81999 0.0
H651 H 0.9794 0.14127 0.8157 0.0
H652 H 0.92279 0.20806 0.77441 0.0
H653 H 0.89577 0.2125 0.7182 0.0
C654 C 0.12101 0.6595 0.4733 0.0
C655 C 0.10198 0.66523 0.42503 0.0
C656 C 0.10031 0.7262 0.44772 0.0
C657 C 0.12675 0.72141 0.48582 0.0
N658 N 0.15969 0.68311 0.54079 0.0
N659 N 0.07507 0.70561 0.36446 0.0
C660 C 0.13582 0.68777 0.50116 0.0
C661 C 0.09113 0.69892 0.41244 0.0
N662 N 0.12513 0.62688 0.49165 0.0
N663 N 0.08436 0.75697 0.44498 0.0
H664 H 0.07028 0.68687 0.33562 0.0
H665 H 0.06944 0.73027 0.35131 0.0
H666 H 0.09085 0.77684 0.47115 0.0
H667 H 0.06236 0.76089 0.42206 0.0
H668 H 0.1368 0.62075 0.52842 0.0
H669 H 0.11384 0.60617 0.47202 0.0
H670 H 0.17067 0.6596 0.5499 0.0
H671 H 0.16897 0.70346 0.56371 0.0
C672 C 0.91092 0.62002 0.35426 0.0
C673 C 0.91163 0.65516 0.36707 0.0
C674 C 0.96904 0.65954 0.3247 0.0
C675 C 0.96807 0.62417 0.31139 0.0
N676 N 0.93328 0.57419 0.29842 0.0
N677 N 0.9376 0.71001 0.35423 0.0
C678 C 0.93742 0.60556 0.32162 0.0
C679 C 0.93965 0.67542 0.34917 0.0
N680 N 0.88513 0.6002 0.37462 0.0
N681 N 0.99818 0.67777 0.31552 0.0
H682 H 0.91642 0.72188 0.37174 0.0
H683 H 0.95538 0.72691 0.33766 0.0
H684 H 0.01897 0.66782 0.29439 0.0
H685 H 1.00217 0.70229 0.33035 0.0
H686 H 0.88482 0.5737 0.37175 0.0
H687 H 0.86551 0.61013 0.3987 0.0
H688 H 0.91052 0.56045 0.30017 0.0
H689 H 0.95146 0.56366 0.27218 0.0
C690 C 0.1209 0.16177 0.55981 0.0
C691 C 0.10569 0.16655 0.61207 0.0
C692 C 0.10548 0.22815 0.59268 0.0
C693 C 0.12927 0.22368 0.54987 0.0
N694 N 0.15833 0.18522 0.48973 0.0
N695 N 0.08616 0.20686 0.67997 0.0
C696 C 0.13619 0.19008 0.53204 0.0
C697 C 0.09796 0.20044 0.6287 0.0
N698 N 0.12032 0.1302 0.53666 0.0
N699 N 0.08993 0.25888 0.59844 0.0
H700 H 0.0829 0.18796 0.70936 0.0
H701 H 0.08305 0.23155 0.69486 0.0
H702 H 0.09382 0.27802 0.56947 0.0
H703 H 0.0706 0.26336 0.62686 0.0
H704 H 0.1289 0.12548 0.49719 0.0
H705 H 0.10766 0.10967 0.55497 0.0
H706 H 0.16757 0.1613 0.47863 0.0
H707 H 0.16838 0.20562 0.4673 0.0
C708 C 0.54559 0.38278 0.88722 0.0
C709 C 0.54168 0.38442 0.82961 0.0
C710 C 0.59429 0.35043 0.82085 0.0
C711 C 0.6015 0.3554 0.87703 0.0
N712 N 0.58543 0.38153 0.96213 0.0
N713 N 0.56404 0.37058 0.74073 0.0
C714 C 0.57731 0.37255 0.91006 0.0
C715 C 0.56623 0.36795 0.79604 0.0
N716 N 0.51877 0.391 0.92033 0.0
N717 N 0.61419 0.32862 0.79144 0.0
H718 H 0.54392 0.38285 0.72116 0.0
H719 H 0.58331 0.36249 0.71443 0.0
H720 H 0.63421 0.315 0.80907 0.0
H721 H 0.60873 0.32151 0.75158 0.0
H722 H 0.51919 0.3875 0.96242 0.0
H723 H 0.4949 0.39755 0.90498 0.0
H724 H 0.56998 0.39717 0.98602 0.0
H725 H 0.60908 0.37651 0.97958 0.0
C726 C 0.3953 0.85381 0.06619 0.0
C727 C 0.41212 0.8489 0.11673 0.0
C728 C 0.41343 0.78743 0.09828 0.0
C729 C 0.38918 0.79164 0.05659 0.0
N730 N 0.36002 0.82899 0.995 0.0
N731 N 0.43332 0.80943 0.18408 0.0
C732 C 0.38154 0.82503 0.03808 0.0
C733 C 0.42109 0.81533 0.13305 0.0
N734 N 0.39217 0.88611 0.04598 0.0
N735 N 0.42856 0.75651 0.1052 0.0
H736 H 0.43594 0.82874 0.21274 0.0
H737 H 0.43745 0.78495 0.1994 0.0
H738 H 0.42276 0.73587 0.08012 0.0
H739 H 0.44949 0.75317 0.13077 0.0
H740 H 0.38213 0.89167 1.00779 0.0
H741 H 0.40246 0.90716 0.06609 0.0
H742 H 0.34996 0.85236 0.98282 0.0
H743 H 0.35194 0.80816 0.97202 0.0
C744 C 0.11075 0.37873 0.72237 0.0
C745 C 0.10488 0.35964 0.67426 0.0
C746 C 0.04376 0.35894 0.69692 0.0
C747 C 0.0487 0.38492 0.73571 0.0
N748 N 0.08742 0.418 0.78956 0.0
N749 N 0.0639 0.33676 0.61115 0.0
C750 C 0.08252 0.3939 0.75038 0.0
C751 C 0.07092 0.3503 0.66087 0.0
N752 N 0.14341 0.38263 0.74042 0.0
N753 N 0.01293 0.34308 0.6938 0.0
H754 H 0.08247 0.33412 0.58102 0.0
H755 H 0.03909 0.33196 0.59799 0.0
H756 H 0.99314 0.34888 0.72076 0.0
H757 H 0.00909 0.32152 0.66983 0.0
H758 H 0.14957 0.39425 0.77716 0.0
H759 H 0.16411 0.37135 0.72049 0.0
H760 H 0.1111 0.42878 0.7982 0.0
H761 H 0.06713 0.42784 0.81231 0.0
C762 C 0.9237 0.82573 0.43395 0.0
C763 C 0.90387 0.85513 0.42183 0.0
C764 C 0.85519 0.82912 0.47007 0.0
C765 C 0.87298 0.79768 0.4748 0.0
N766 N 0.92458 0.7656 0.45944 0.0
N767 N 0.84903 0.8825 0.42104 0.0
C768 C 0.90755 0.7959 0.45671 0.0
C769 C 0.86916 0.85616 0.43814 0.0
N770 N 0.95809 0.82677 0.4249 0.0
N771 N 0.82497 0.83333 0.49727 0.0
H772 H 0.85816 0.90204 0.39593 0.0
H773 H 0.82268 0.8831 0.42698 0.0
H774 H 0.8148 0.81449 0.52277 0.0
H775 H 0.81217 0.85658 0.49946 0.0
H776 H 0.97482 0.80763 0.43716 0.0
H777 H 0.97019 0.84826 0.40862 0.0
H778 H 0.94848 0.76159 0.44189 0.0
H779 H 0.914 0.74381 0.47714 0.0
C780 C 0.47006 0.65546 0.21777 0.0
C781 C 0.471 0.61928 0.22295 0.0
C782 C 0.41482 0.616 0.17752 0.0
C783 C 0.41369 0.65191 0.17291 0.0
N784 N 0.43457 0.70574 0.20498 0.0
N785 N 0.43806 0.56724 0.22549 0.0
C786 C 0.43963 0.67165 0.19809 0.0
C787 C 0.44138 0.60025 0.20817 0.0
N788 N 0.49832 0.67444 0.22933 0.0
N789 N 0.39046 0.59686 0.15232 0.0
H790 H 0.45587 0.55573 0.25113 0.0
H791 H 0.41598 0.55284 0.21999 0.0
H792 H 0.37019 0.60776 0.13101 0.0
H793 H 0.39184 0.5704 0.1491 0.0
H794 H 0.5003 0.70031 0.21989 0.0
H795 H 0.5205 0.664 0.24553 0.0
H796 H 0.45088 0.72111 0.22766 0.0
H797 H 0.41227 0.71782 0.19215 0.0
C798 C 0.60501 0.17173 0.96488 0.0
C799 C 0.61077 0.16511 0.90853 0.0
C800 C 0.64035 0.22031 0.90153 0.0
C801 C 0.64087 0.22335 0.95928 0.0
N802 N 0.62407 0.20085 0.04671 0.0
N803 N 0.6385 0.18218 0.82472 0.0
C804 C 0.62281 0.19903 0.99125 0.0
C805 C 0.62915 0.18944 0.87701 0.0
N806 N 0.58204 0.15215 0.9929 0.0
N807 N 0.65092 0.24702 0.86979 0.0
H808 H 0.63247 0.15942 0.80564 0.0
H809 H 0.65527 0.19729 0.80204 0.0
H810 H 0.6596 0.26989 0.88608 0.0
H811 H 0.64773 0.24772 0.82768 0.0
H812 H 0.57435 0.15732 0.03268 0.0
H813 H 0.56812 0.13277 0.97427 0.0
H814 H 0.61486 0.18166 0.0723 0.0
H815 H 0.63617 0.22075 0.06708 0.0
C816 C 0.28058 0.27558 0.2467 0.0
C817 C 0.26647 0.24887 0.21507 0.0
C818 C 0.23329 0.22952 0.29548 0.0
C819 C 0.24597 0.25737 0.32619 0.0
N820 N 0.27904 0.30888 0.33034 0.0
N821 N 0.22698 0.20239 0.20675 0.0
C822 C 0.26896 0.28093 0.30145 0.0
C823 C 0.24218 0.22629 0.23892 0.0
N824 N 0.30574 0.29535 0.22426 0.0
N825 N 0.21336 0.20574 0.32112 0.0
H826 H 0.23361 0.1992 0.16588 0.0
H827 H 0.20671 0.18706 0.21936 0.0
H828 H 0.20606 0.20812 0.36186 0.0
H829 H 0.20566 0.18295 0.30336 0.0
H830 H 0.31962 0.31349 0.2457 0.0
H831 H 0.31445 0.29185 0.18444 0.0
H832 H 0.29318 0.32894 0.31396 0.0
H833 H 0.27122 0.31313 0.37039 0.0
C834 C 0.48917 0.51975 0.54554 0.0
C835 C 0.50339 0.48864 0.56483 0.0
C836 C 0.5295 0.47957 0.47393 0.0
C837 C 0.51373 0.50968 0.45376 0.0
N838 N 0.47525 0.55635 0.46811 0.0
N839 N 0.53365 0.43686 0.54619 0.0
C840 C 0.49267 0.52922 0.48912 0.0
C841 C 0.52262 0.468 0.52848 0.0
N842 N 0.47323 0.54075 0.58184 0.0
N843 N 0.5519 0.46259 0.441 0.0
H844 H 0.52877 0.42799 0.5856 0.0
H845 H 0.54522 0.41884 0.52119 0.0
H846 H 0.55743 0.4707 0.40141 0.0
H847 H 0.56686 0.4422 0.45383 0.0
H848 H 0.4652 0.56538 0.57253 0.0
H849 H 0.46986 0.53409 0.6227 0.0
H850 H 0.45678 0.56992 0.48955 0.0
H851 H 0.47788 0.56397 0.42754 0.0
C852 C 0.27766 0.77472 0.731 0.0
C853 C 0.2445 0.76309 0.71698 0.0
C854 C 0.23634 0.74206 0.81123 0.0
C855 C 0.27011 0.75216 0.8245 0.0
N856 N 0.3241 0.77549 0.79706 0.0
N857 N 0.19331 0.73296 0.74119 0.0
C858 C 0.29106 0.76786 0.78423 0.0
C859 C 0.22412 0.74603 0.75658 0.0
N860 N 0.29606 0.7926 0.6931 0.0
N861 N 0.21574 0.7295 0.8516 0.0
H862 H 0.18345 0.73666 0.7022 0.0
H863 H 0.17833 0.7172 0.76572 0.0
H864 H 0.22442 0.72564 0.89127 0.0
H865 H 0.1898 0.7246 0.84687 0.0
H866 H 0.31937 0.80432 0.70079 0.0
H867 H 0.28682 0.79743 0.65402 0.0
H868 H 0.34208 0.78463 0.76932 0.0
H869 H 0.33422 0.77064 0.83556 0.0
C870 C 0.97687 0.52097 0.99325 0.0
C871 C 0.99829 0.49553 0.97012 0.0
C872 C 0.03018 0.4924 0.05659 0.0
C873 C 1.00731 0.51598 0.08107 0.0
N874 N 0.95646 0.54975 0.07515 0.0
N875 N 0.04148 0.45289 0.98249 0.0
C876 C 0.97994 0.52946 0.04994 0.0
C877 C 0.02384 0.4801 1.00277 0.0
N878 N 0.95447 0.53786 0.96039 0.0
N879 N 0.05872 0.48268 0.08436 0.0
H880 H 0.03681 0.44304 0.9438 0.0
H881 H 0.05826 0.43821 1.00549 0.0
H882 H 0.06435 0.49175 0.12318 0.0
H883 H 0.07829 0.46824 0.06726 0.0
H884 H 0.9404 0.55899 0.97276 0.0
H885 H 0.95163 0.53193 0.91927 0.0
H886 H 0.93396 0.55792 0.05685 0.0
H887 H 0.9586 0.55661 0.11603 0.0
C888 C 0.78268 0.77762 0.75116 0.0
C889 C 0.7716 0.74849 0.72184 0.0
C890 C 0.74165 0.72795 0.80505 0.0
C891 C 0.75077 0.75822 0.83317 0.0
N892 N 0.77839 0.81289 0.83262 0.0
N893 N 0.7382 0.69721 0.71892 0.0
C894 C 0.77097 0.78329 0.80597 0.0
C895 C 0.75059 0.72388 0.74851 0.0
N896 N 0.80517 0.79945 0.72648 0.0
N897 N 0.72501 0.70278 0.83314 0.0
H898 H 0.74483 0.69342 0.67819 0.0
H899 H 0.7201 0.67995 0.73344 0.0
H900 H 0.71763 0.70563 0.87377 0.0
H901 H 0.72029 0.67857 0.81761 0.0
H902 H 0.81683 0.8199 0.74587 0.0
H903 H 0.81414 0.79552 0.68691 0.0
H904 H 0.79011 0.83389 0.81448 0.0
H905 H 0.77096 0.81722 0.87282 0.0
C906 C 0.77352 0.2833 0.23588 0.0
C907 C 0.74884 0.26094 0.21322 0.0
C908 C 0.74314 0.23199 0.30257 0.0
C909 C 0.76886 0.25339 0.32459 0.0
N910 N 0.81057 0.29753 0.31238 0.0
N911 N 0.71215 0.21226 0.2226 0.0
C912 C 0.78454 0.27862 0.29113 0.0
C913 C 0.73423 0.23477 0.24608 0.0
N914 N 0.78622 0.30912 0.2042 0.0
N915 N 0.72654 0.20973 0.33646 0.0
H916 H 0.70419 0.21476 0.18228 0.0
H917 H 0.70293 0.1904 0.24181 0.0
H918 H 0.73309 0.20685 0.37737 0.0
H919 H 0.7053 0.19548 0.32527 0.0
H920 H 0.80229 0.32826 0.21826 0.0
H921 H 0.77917 0.31238 0.16359 0.0
H922 H 0.82522 0.31484 0.29018 0.0
H923 H 0.81889 0.29435 0.35239 0.0
C924 C 0.97475 0.02216 0.04572 0.0
C925 C 0.99705 0.99824 0.0707 0.0
C926 C 0.03096 0.99604 0.98524 0.0
C927 C 0.00778 0.01877 0.95953 0.0
N928 N 0.95564 0.05068 0.96272 0.0
N929 N 0.04395 0.95932 0.06296 0.0
C930 C 0.97906 0.03098 0.98921 0.0
C931 C 0.02455 0.9844 0.03992 0.0
N932 N 0.9502 0.03739 0.07688 0.0
N933 N 0.05936 0.98594 0.95718 0.0
H934 H 0.03938 0.95024 0.10233 0.0
H935 H 0.06276 0.94577 0.0423 0.0
H936 H 0.06406 0.99346 0.91705 0.0
H937 H 0.07922 0.97196 0.9742 0.0
H938 H 0.93506 0.05752 0.06353 0.0
H939 H 0.94631 0.03104 0.11774 0.0
H940 H 0.93227 0.05782 0.97943 0.0
H941 H 0.95899 0.05844 0.92234 0.0
C942 C 0.53139 0.98329 0.49306 0.0
C943 C 0.50445 0.99724 0.46153 0.0
C944 C 0.48825 0.03371 0.53926 0.0
C945 C 0.5135 0.01803 0.5722 0.0
N946 N 0.55641 0.97485 0.58291 0.0
N947 N 0.45377 0.03156 0.4572 0.0
C948 C 0.53445 0.99201 0.54963 0.0
C949 C 0.48192 0.02132 0.48551 0.0
N950 N 0.55453 0.96239 0.46831 0.0
N951 N 0.47105 0.06133 0.55906 0.0
H952 H 0.44826 0.02256 0.41828 0.0
H953 H 0.43439 0.04643 0.47387 0.0
H954 H 0.47572 0.07128 0.59768 0.0
H955 H 0.45459 0.0762 0.53576 0.0
H956 H 0.57679 0.95385 0.4869 0.0
H957 H 0.55238 0.95535 0.42752 0.0
H958 H 0.57013 0.95341 0.57092 0.0
H959 H 0.55915 0.98084 0.62402 0.0
C960 C 0.15781 0.08542 0.91213 0.0
C961 C 0.13548 0.10525 0.87946 0.0
C962 C 0.15734 0.15662 0.92474 0.0
C963 C 0.18488 0.13744 0.94685 0.0
N964 N 0.21308 0.08268 0.95503 0.0
N965 N 0.11542 0.16112 0.85273 0.0
C966 C 0.18535 0.10147 0.93963 0.0
C967 C 0.13511 0.14126 0.88588 0.0
N968 N 0.15265 0.05109 0.91684 0.0
N969 N 0.15249 0.18955 0.94096 0.0
H970 H 0.09893 0.15118 0.82364 0.0
H971 H 0.11734 0.18763 0.85143 0.0
H972 H 0.16789 0.20111 0.9702 0.0
H973 H 0.13125 0.20393 0.92984 0.0
H974 H 0.16638 0.03573 0.94369 0.0
H975 H 0.13194 0.0389 0.89874 0.0
H976 H 0.21597 0.05701 0.94509 0.0
H977 H 0.23471 0.09315 0.97295 0.0
C978 C 0.61812 0.40907 0.16594 0.0
C979 C 0.63447 0.44102 0.17372 0.0
C980 C 0.68265 0.4215 0.11749 0.0
C981 C 0.66413 0.39148 0.10301 0.0
N982 N 0.6117 0.35906 0.10892 0.0
N983 N 0.68085 0.47927 0.15232 0.0
C984 C 0.63136 0.38559 0.12668 0.0
C985 C 0.66651 0.44751 0.14872 0.0
N986 N 0.5898 0.40124 0.19619 0.0
N987 N 0.71606 0.42508 0.10229 0.0
H988 H 0.67052 0.49882 0.17588 0.0
H989 H 0.70166 0.4871 0.12883 0.0
H990 H 0.72896 0.40734 0.07864 0.0
H991 H 0.73198 0.44415 0.11721 0.0
H992 H 0.57852 0.37716 0.19663 0.0
H993 H 0.57953 0.418 0.22482 0.0
H994 H 0.58619 0.35583 0.11993 0.0
H995 H 0.61976 0.3418 0.0794 0.0
C996 C 0.31677 0.89615 0.39192 0.0
C997 C 0.32096 0.87679 0.44047 0.0
C998 C 0.38307 0.88735 0.4358 0.0
C999 C 0.37821 0.90988 0.39105 0.0
N1000 N 0.33926 0.94035 0.33268 0.0
N1001 N 0.35765 0.857 0.51247 0.0
C1002 C 0.34475 0.91541 0.37061 0.0
C1003 C 0.35407 0.87305 0.46331 0.0
N1004 N 0.2862 0.89545 0.36522 0.0
N1005 N 0.41552 0.87928 0.45154 0.0
H1006 H 0.33711 0.84634 0.53374 0.0
H1007 H 0.38038 0.85657 0.53429 0.0
H1008 H 0.43714 0.88943 0.43245 0.0
H1009 H 0.42109 0.86046 0.48016 0.0
H1010 H 0.28269 0.90598 0.32664 0.0
H1011 H 0.26516 0.88158 0.37923 0.0
H1012 H 0.31503 0.94828 0.32079 0.0
H1013 H 0.35886 0.95528 0.31659 0.0
C1014 C 0.85224 0.6234 0.68416 0.0
C1015 C 0.8532 0.62694 0.62613 0.0
C1016 C 0.88757 0.57403 0.62125 0.0
C1017 C 0.88821 0.57206 0.67904 0.0
N1018 N 0.87728 0.59854 0.76548 0.0
N1019 N 0.87507 0.60676 0.53973 0.0
C1020 C 0.87236 0.59787 0.71038 0.0
C1021 C 0.87221 0.60281 0.59488 0.0
N1022 N 0.83136 0.64373 0.71474 0.0
N1023 N 0.90014 0.5474 0.5914 0.0
H1024 H 0.86166 0.62499 0.51772 0.0
H1025 H 0.89222 0.59307 0.5158 0.0
H1026 H 0.9117 0.52612 0.60902 0.0
H1027 H 0.89686 0.54496 0.54956 0.0
H1028 H 0.82607 0.6392 0.75574 0.0
H1029 H 0.81711 0.66368 0.69887 0.0
H1030 H 0.87004 0.61891 0.79003 0.0
H1031 H 0.89146 0.58011 0.78617 0.0
C1032 C 0.82746 0.91145 0.11704 0.0
C1033 C 0.82025 0.87591 0.11427 0.0
C1034 C 0.86746 0.86469 0.17809 0.0
C1035 C 0.87438 0.90018 0.18121 0.0
N1036 N 0.86832 0.9557 0.14051 0.0
N1037 N 0.83982 0.81842 0.12951 0.0
C1038 C 0.85682 0.923 0.14617 0.0
C1039 C 0.84238 0.85244 0.14084 0.0
N1040 N 0.80525 0.93438 0.09474 0.0
N1041 N 0.88435 0.8427 0.21177 0.0
H1042 H 0.82237 0.80878 0.10147 0.0
H1043 H 0.85706 0.80025 0.14361 0.0
H1044 H 0.90451 0.8505 0.23638 0.0
H1045 H 0.87751 0.81721 0.21691 0.0
H1046 H 0.80705 0.9606 0.10081 0.0
H1047 H 0.78337 0.92713 0.07368 0.0
H1048 H 0.85847 0.97288 0.11221 0.0
H1049 H 0.89036 0.96431 0.15977 0.0
C1050 C 0.3824 0.60092 0.82921 0.0
C1051 C 0.39163 0.57056 0.85739 0.0
C1052 C 0.37466 0.59709 0.94453 0.0
C1053 C 0.36203 0.62587 0.91578 0.0
N1054 N 0.35715 0.65772 0.83252 0.0
N1055 N 0.3969 0.53919 0.94156 0.0
C1056 C 0.36711 0.62853 0.85854 0.0
C1057 C 0.38809 0.56864 0.91508 0.0
N1058 N 0.38842 0.60321 0.77437 0.0
N1059 N 0.37436 0.59737 1.0002 0.0
H1060 H 0.40855 0.51864 0.92209 0.0
H1061 H 0.39135 0.53418 0.98227 0.0
H1062 H 0.36513 0.61793 0.02256 0.0
H1063 H 0.38576 0.57885 0.02449 0.0
H1064 H 0.38476 0.62509 0.75113 0.0
H1065 H 0.39831 0.5831 0.75156 0.0
H1066 H 0.35625 0.66087 0.79052 0.0
H1067 H 0.35006 0.67953 0.85383 0.0
C1068 C 0.65773 0.164 0.61273 0.0
C1069 C 0.6865 0.1438 0.59768 0.0
C1070 C 0.65804 0.09431 0.63952 0.0
C1071 C 0.63445 0.11611 0.66577 0.0
N1072 N 0.61137 0.17242 0.6774 0.0
N1073 N 0.7153 0.08915 0.60388 0.0
C1074 C 0.63386 0.15117 0.65187 0.0
C1075 C 0.68683 0.10859 0.61217 0.0
N1076 N 0.65309 0.19524 0.58912 0.0
N1077 N 0.65267 0.05995 0.64025 0.0
H1078 H 0.73787 0.09862 0.58711 0.0
H1079 H 0.71759 0.06435 0.61885 0.0
H1080 H 0.63019 0.0495 0.65601 0.0
H1081 H 0.66788 0.04281 0.61871 0.0
H1082 H 0.63131 0.20998 0.5953 0.0
H1083 H 0.66943 0.20466 0.55891 0.0
H1084 H 0.61239 0.1989 0.67379 0.0
H1085 H 0.59276 0.16344 0.70446 0.0
C1086 C 0.11641 0.41096 0.34701 0.0
C1087 C 0.13185 0.44374 0.35031 0.0
C1088 C 0.17751 0.41979 0.40706 0.0
C1089 C 0.16403 0.38645 0.39951 0.0
N1090 N 0.12242 0.34953 0.35831 0.0
N1091 N 0.1795 0.47877 0.37682 0.0
C1092 C 0.13385 0.38184 0.36851 0.0
C1093 C 0.16309 0.44795 0.37851 0.0
N1094 N 0.08473 0.40783 0.3244 0.0
N1095 N 0.20346 0.42477 0.44316 0.0
H1096 H 0.16959 0.50011 0.35693 0.0
H1097 H 0.20422 0.48251 0.39109 0.0
H1098 H 0.21412 0.40498 0.46558 0.0
H1099 H 0.21205 0.44875 0.45507 0.0
H1100 H 0.07034 0.3855 0.32591 0.0
H1101 H 0.07171 0.42837 0.30712 0.0
H1102 H 0.10297 0.344 0.33096 0.0
H1103 H 0.13384 0.32786 0.37497 0.0
C1104 C 0.66778 0.60341 0.35027 0.0
C1105 C 0.63457 0.6152 0.36435 0.0
C1106 C 0.65921 0.64214 0.44601 0.0
C1107 C 0.69281 0.63566 0.42617 0.0
N1108 N 0.7285 0.61469 0.3531 0.0
N1109 N 0.59859 0.64659 0.42609 0.0
C1110 C 0.69697 0.61724 0.37684 0.0
C1111 C 0.6303 0.63477 0.41251 0.0
N1112 N 0.67164 0.57869 0.31187 0.0
N1113 N 0.65495 0.65457 0.49751 0.0
H1114 H 0.57662 0.6397 0.40484 0.0
H1115 H 0.59429 0.66442 0.4567 0.0
H1116 H 0.67545 0.65941 0.52337 0.0
H1117 H 0.63122 0.65695 0.51643 0.0
H1118 H 0.69494 0.56703 0.3033 0.0
H1119 H 0.65091 0.5668 0.2939 0.0
H1120 H 0.73229 0.60489 0.31415 0.0
H1121 H 0.75048 0.62544 0.3696 0.0
C1122 C 0.15665 0.9331 0.68171 0.0
C1123 C 0.12106 0.93727 0.69124 0.0
C1124 C 0.10903 0.88874 0.63087 0.0
C1125 C 0.14444 0.88549 0.61975 0.0
N1126 N 0.20217 0.89683 0.64732 0.0
N1127 N 0.06458 0.9132 0.68807 0.0
C1128 C 0.16833 0.90505 0.6497 0.0
C1129 C 0.09767 0.91296 0.6702 0.0
N1130 N 0.17911 0.95707 0.70016 0.0
N1131 N 0.08622 0.8695 0.60229 0.0
H1132 H 0.05586 0.93041 0.71734 0.0
H1133 H 0.04673 0.89459 0.67796 0.0
H1134 H 0.09388 0.85028 0.57558 0.0
H1135 H 0.05994 0.87345 0.60326 0.0
H1136 H 0.20478 0.95774 0.68892 0.0
H1137 H 0.17169 0.97769 0.7241 0.0
H1138 H 0.22068 0.90821 0.67158 0.0
H1139 H 0.2111 0.87597 0.62527 0.0
C1140 C 0.82976 0.40583 0.91967 0.0
C1141 C 0.83224 0.37162 0.93889 0.0
C1142 C 0.88521 0.36419 0.88576 0.0
C1143 C 0.88217 0.39805 0.86597 0.0
N1144 N 0.85916 0.45421 0.87891 0.0
N1145 N 0.86741 0.32206 0.95303 0.0
C1146 C 0.85696 0.41991 0.88806 0.0
C1147 C 0.86181 0.3521 0.92618 0.0
N1148 N 0.80056 0.42416 0.92809 0.0
N1149 N 0.90963 0.34323 0.86437 0.0
H1150 H 0.85096 0.31306 0.98344 0.0
H1151 H 0.88974 0.30788 0.94903 0.0
H1152 H 0.92801 0.35187 0.83662 0.0
H1153 H 0.91069 0.31712 0.87211 0.0
H1154 H 0.79593 0.44762 0.9095 0.0
H1155 H 0.7797 0.4149 0.95009 0.0
H1156 H 0.84311 0.47192 0.89746 0.0
H1157 H 0.87973 0.46506 0.85802 0.0
C1158 C 0.34979 0.06385 0.15729 0.0
C1159 C 0.38381 0.06802 0.17565 0.0
C1160 C 0.38758 0.12271 0.12552 0.0
C1161 C 0.35301 0.11911 0.10862 0.0
N1162 N 0.29903 0.08998 0.12032 0.0
N1163 N 0.43274 0.10443 0.18689 0.0
C1164 C 0.33351 0.09083 0.12828 0.0
C1165 C 0.40189 0.09851 0.16288 0.0
N1166 N 0.33343 0.03336 0.16512 0.0
N1167 N 0.40752 0.14786 0.10341 0.0
H1168 H 0.44387 0.08718 0.21398 0.0
H1169 H 0.44575 0.12754 0.18387 0.0
H1170 H 0.39834 0.16602 0.0761 0.0
H1171 H 0.43385 0.14922 0.1088 0.0
H1172 H 0.31042 0.02712 0.1465 0.0
H1173 H 0.34404 0.01308 0.18679 0.0
H1174 H 0.28289 0.07228 0.13898 0.0
H1175 H 0.28597 0.10894 0.09942 0.0
C1176 C 0.31644 0.39083 0.66141 0.0
C1177 C 0.32238 0.3729 0.61211 0.0
C1178 C 0.38377 0.38656 0.6194 0.0
C1179 C 0.3777 0.40246 0.67039 0.0
N1180 N 0.34018 0.40855 0.74737 0.0
N1181 N 0.36304 0.34754 0.5502 0.0
C1182 C 0.34459 0.40114 0.69363 0.0
C1183 C 0.3565 0.36897 0.59272 0.0
N1184 N 0.28394 0.39939 0.67659 0.0
N1185 N 0.41541 0.38871 0.59608 0.0
H1186 H 0.34393 0.33382 0.5305 0.0
H1187 H 0.38761 0.3411 0.53756 0.0
H1188 H 0.43626 0.39931 0.61623 0.0
H1189 H 0.42053 0.38141 0.55613 0.0
H1190 H 0.27863 0.41523 0.70955 0.0
H1191 H 0.26257 0.39386 0.65297 0.0
H1192 H 0.31698 0.40554 0.76778 0.0
H1193 H 0.36091 0.41262 0.77286 0.0
C1194 C 0.84038 0.09023 0.43539 0.0
C1195 C 0.85557 0.12329 0.43846 0.0
C1196 C 0.89353 0.1069 0.36233 0.0
C1197 C 0.88225 0.07244 0.36632 0.0
N1198 N 0.8495 0.03048 0.41661 0.0
N1199 N 0.90131 0.16071 0.40908 0.0
C1200 C 0.85682 0.0639 0.4054 0.0
C1201 C 0.88325 0.13117 0.40267 0.0
N1202 N 0.80959 0.0839 0.45982 0.0
N1203 N 0.9138 0.11659 0.31961 0.0
H1204 H 0.89594 0.17851 0.43927 0.0
H1205 H 0.92383 0.16592 0.38785 0.0
H1206 H 0.92131 0.09967 0.28911 0.0
H1207 H 0.92017 0.14194 0.3116 0.0
H1208 H 0.79606 0.06128 0.45414 0.0
H1209 H 0.79565 0.10243 0.48035 0.0
H1210 H 0.83387 0.023 0.449 0.0
H1211 H 0.86175 0.0101 0.39767 0.0
C1212 C 0.1667 0.60107 0.17311 0.0
C1213 C 0.13423 0.60511 0.14824 0.0
C1214 C 0.16219 0.63657 0.07302 0.0
C1215 C 0.19387 0.63586 0.10135 0.0
N1216 N 0.22332 0.62446 0.1857 0.0
N1217 N 0.10036 0.6313 0.07804 0.0
C1218 C 0.1952 0.62029 0.15368 0.0
C1219 C 0.1318 0.62438 0.09929 0.0
N1220 N 0.17114 0.57707 0.2128 0.0
N1221 N 0.16133 0.64727 0.02002 0.0
H1222 H 0.07775 0.62271 0.09612 0.0
H1223 H 0.09658 0.64803 0.04557 0.0
H1224 H 0.18304 0.65524 0.99878 0.0
H1225 H 0.13979 0.64511 0.99552 0.0
H1226 H 0.19498 0.57084 0.22869 0.0
H1227 H 0.15167 0.56064 0.22507 0.0
H1228 H 0.22417 0.6163 0.22613 0.0
H1229 H 0.24431 0.63919 0.17394 0.0
C1230 C 0.62372 0.90638 0.82539 0.0
C1231 C 0.62993 0.94008 0.8442 0.0
C1232 C 0.67004 0.91757 0.91222 0.0
C1233 C 0.66213 0.88375 0.89592 0.0
N1234 N 0.62792 0.84537 0.84276 0.0
N1235 N 0.65335 0.97711 0.9129 0.0
C1236 C 0.6378 0.878 0.85426 0.0
C1237 C 0.65146 0.94547 0.88979 0.0
N1238 N 0.60545 0.9016 0.77872 0.0
N1239 N 0.69623 0.92323 0.94769 0.0
H1240 H 0.64014 0.99821 0.89793 0.0
H1241 H 0.66553 0.98179 0.94976 0.0
H1242 H 0.71016 0.90357 0.96562 0.0
H1243 H 0.70591 0.94739 0.95611 0.0
H1244 H 0.60297 0.8781 0.75953 0.0
H1245 H 0.5949 0.92172 0.75656 0.0
H1246 H 0.60785 0.83941 0.81679 0.0
H1247 H 0.63804 0.82416 0.86278 0.0
loop_
_geom_bond_atom_site_label_1
_geom_bond_atom_site_label_2
_geom_bond_distance
_geom_bond_site_symmetry_2
_ccdc_geom_bond_type
C0 C1 1.351 . S
C0 N3 1.368 . S
C0 H5 0.931 . S
C1 C0 1.351 . S
C1 N2 1.373 . S
C1 H29 0.930 . S
N2 C1 1.373 . S
N2 C4 1.340 . S
N3 C0 1.368 . S
N3 C4 1.321 . S
N3 Co6 2.135 . S
C4 N2 1.340 . S
C4 N3 1.321 . S
C4 H28 0.930 . S
H5 C0 0.931 . S
Co6 N3 2.135 . S
Co6 N9 2.121 1_554 S
Co6 O14 2.055 . S
Co6 O17 2.039 . S
Co6 N20 2.140 1_554 S
C7 O8 1.227 . S
C7 O17 1.265 . S
O8 C7 1.227 . S
N9 Co6 2.121 1_556 S
N9 C11 1.375 . S
N9 C12 1.313 . S
C10 C11 1.338 . S
C10 N13 1.377 . S
C10 H30 0.930 . S
C11 N9 1.375 . S
C11 C10 1.338 . S
C11 H15 0.931 . S
C12 N9 1.313 . S
C12 N13 1.344 . S
C12 H16 0.930 . S
N13 C10 1.377 . S
N13 C12 1.344 . S
O14 Co6 2.055 . S
O14 C18 1.253 1_554 S
H15 C11 0.931 . S
H16 C12 0.930 . S
O17 Co6 2.039 . S
O17 C7 1.265 . S
C18 O14 1.253 1_556 S
C18 O19 1.227 . S
O19 C18 1.227 . S
N20 Co6 2.140 1_556 S
N20 C23 1.346 1_556 S
N20 C24 1.345 . S
C21 C22 1.387 . S
C21 C25 1.391 . S
C22 C21 1.387 . S
C22 C23 1.369 1_556 S
C22 H31 0.929 1_556 S
C23 N20 1.346 1_554 S
C23 C22 1.369 1_554 S
C23 H26 0.928 . S
C24 N20 1.345 . S
C24 C25 1.371 . S
C24 H27 0.931 . S
C25 C21 1.391 . S
C25 C24 1.371 . S
C25 H32 0.930 . S
H26 C23 0.928 . S
H27 C24 0.931 . S
H28 C4 0.930 . S
H29 C1 0.930 . S
H30 C10 0.930 . S
H31 C22 0.929 1_554 S
H32 C25 0.930 . S
C33 C34 1.351 . S
C33 N36 1.368 . S
C33 H38 0.931 . S
C34 C33 1.351 . S
C34 N35 1.373 . S
C34 H62 0.930 . S
N35 C34 1.373 . S
N35 C37 1.340 . S
N36 C33 1.368 . S
N36 C37 1.321 . S
N36 Co39 2.135 . S
C37 N35 1.340 . S
C37 N36 1.321 . S
C37 H61 0.930 . S
H38 C33 0.931 . S
Co39 N36 2.135 . S
Co39 N42 2.121 . S
Co39 O47 2.055 . S
Co39 O50 2.039 . S
Co39 N53 2.140 . S
C40 O41 1.227 . S
C40 O50 1.265 . S
O41 C40 1.227 . S
N42 Co39 2.121 . S
N42 C44 1.375 . S
N42 C45 1.313 . S
C43 C44 1.338 . S
C43 N46 1.377 . S
C43 H63 0.930 . S
C44 N42 1.375 . S
C44 C43 1.338 . S
C44 H48 0.931 . S
C45 N42 1.313 . S
C45 N46 1.344 . S
C45 H49 0.930 . S
N46 C43 1.377 . S
N46 C45 1.344 . S
O47 Co39 2.055 . S
O47 C51 1.253 . S
H48 C44 0.931 . S
H49 C45 0.930 . S
O50 Co39 2.039 . S
O50 C40 1.265 . S
C51 O47 1.253 . S
C51 O52 1.227 . S
O52 C51 1.227 . S
N53 Co39 2.140 . S
N53 C56 1.346 . S
N53 C57 1.345 . S
C54 C55 1.387 . S
C54 C58 1.391 . S
C55 C54 1.387 . S
C55 C56 1.369 . S
C55 H64 0.929 . S
C56 N53 1.346 . S
C56 C55 1.369 . S
C56 H59 0.928 . S
C57 N53 1.345 . S
C57 C58 1.371 . S
C57 H60 0.931 . S
C58 C54 1.391 . S
C58 C57 1.371 . S
C58 H65 0.930 . S
H59 C56 0.928 . S
H60 C57 0.931 . S
H61 C37 0.930 . S
H62 C34 0.930 . S
H63 C43 0.930 . S
H64 C55 0.929 . S
H65 C58 0.930 . S
C66 C67 1.351 . S
C66 N69 1.368 . S
C66 H71 0.931 . S
C67 C66 1.351 . S
C67 N68 1.373 . S
C67 H95 0.930 . S
N68 C67 1.373 . S
N68 C70 1.340 . S
N69 C66 1.368 . S
N69 C70 1.321 . S
N69 Co72 2.135 . S
C70 N68 1.340 . S
C70 N69 1.321 . S
C70 H94 0.930 . S
H71 C66 0.931 . S
Co72 N69 2.135 . S
Co72 N75 2.121 . S
Co72 O80 2.055 . S
Co72 O83 2.039 . S
Co72 N86 2.140 . S
C73 O74 1.227 . S
C73 O83 1.265 . S
O74 C73 1.227 . S
N75 Co72 2.121 . S
N75 C77 1.375 . S
N75 C78 1.313 . S
C76 C77 1.338 . S
C76 N79 1.377 . S
C76 H96 0.930 . S
C77 N75 1.375 . S
C77 C76 1.338 . S
C77 H81 0.931 . S
C78 N75 1.313 . S
C78 N79 1.344 . S
C78 H82 0.930 . S
N79 C76 1.377 . S
N79 C78 1.344 . S
O80 Co72 2.055 . S
O80 C84 1.253 . S
H81 C77 0.931 . S
H82 C78 0.930 . S
O83 Co72 2.039 . S
O83 C73 1.265 . S
C84 O80 1.253 . S
C84 O85 1.227 . S
O85 C84 1.227 . S
N86 Co72 2.140 . S
N86 C89 1.346 . S
N86 C90 1.345 . S
C87 C88 1.387 . S
C87 C91 1.391 . S
C88 C87 1.387 . S
C88 C89 1.369 . S
C88 H97 0.929 . S
C89 N86 1.346 . S
C89 C88 1.369 . S
C89 H92 0.928 . S
C90 N86 1.345 . S
C90 C91 1.371 . S
C90 H93 0.931 . S
C91 C87 1.391 . S
C91 C90 1.371 . S
C91 H98 0.930 . S
H92 C89 0.928 . S
H93 C90 0.931 . S
H94 C70 0.930 . S
H95 C67 0.930 . S
H96 C76 0.930 . S
H97 C88 0.929 . S
H98 C91 0.930 . S
C99 C100 1.351 1_655 S
C99 N102 1.368 . S
C99 H104 0.931 1_655 S
C100 C99 1.351 1_455 S
C100 N101 1.373 1_455 S
C100 H128 0.930 . S
N101 C100 1.373 1_655 S
N101 C103 1.340 . S
N102 C99 1.368 . S
N102 C103 1.321 . S
N102 Co105 2.135 . S
C103 N101 1.340 . S
C103 N102 1.321 . S
C103 H127 0.930 . S
H104 C99 0.931 1_455 S
Co105 N102 2.135 . S
Co105 N108 2.121 . S
Co105 O113 2.055 . S
Co105 O116 2.039 . S
Co105 N119 2.140 . S
C106 O107 1.227 . S
C106 O116 1.265 . S
O107 C106 1.227 . S
N108 Co105 2.121 . S
N108 C110 1.375 . S
N108 C111 1.313 . S
C109 C110 1.338 . S
C109 N112 1.377 . S
C109 H129 0.930 . S
C110 N108 1.375 . S
C110 C109 1.338 . S
C110 H114 0.931 . S
C111 N108 1.313 . S
C111 N112 1.344 . S
C111 H115 0.930 . S
N112 C109 1.377 . S
N112 C111 1.344 . S
O113 Co105 2.055 . S
O113 C117 1.253 . S
H114 C110 0.931 . S
H115 C111 0.930 . S
O116 Co105 2.039 . S
O116 C106 1.265 . S
C117 O113 1.253 . S
C117 O118 1.227 . S
O118 C117 1.227 . S
N119 Co105 2.140 . S
N119 C122 1.346 . S
N119 C123 1.345 . S
C120 C121 1.387 . S
C120 C124 1.391 . S
C121 C120 1.387 . S
C121 C122 1.369 . S
C121 H130 0.929 . S
C122 N119 1.346 . S
C122 C121 1.369 . S
C122 H125 0.928 . S
C123 N119 1.345 . S
C123 C124 1.371 . S
C123 H126 0.931 . S
C124 C120 1.391 . S
C124 C123 1.371 . S
C124 H131 0.930 . S
H125 C122 0.928 . S
H126 C123 0.931 . S
H127 C103 0.930 . S
H128 C100 0.930 . S
H129 C109 0.930 . S
H130 C121 0.929 . S
H131 C124 0.930 . S
C132 C133 1.351 . S
C132 N135 1.368 . S
C132 H137 0.931 . S
C133 C132 1.351 . S
C133 N134 1.373 . S
C133 H161 0.930 . S
N134 C133 1.373 . S
N134 C136 1.340 . S
N135 C132 1.368 . S
N135 C136 1.321 . S
N135 Co138 2.135 . S
C136 N134 1.340 . S
C136 N135 1.321 . S
C136 H160 0.930 . S
H137 C132 0.931 . S
Co138 N135 2.135 . S
Co138 N141 2.121 1_556 S
Co138 O146 2.055 . S
Co138 O149 2.039 . S
Co138 N152 2.140 1_556 S
C139 O140 1.227 . S
C139 O149 1.265 . S
O140 C139 1.227 . S
N141 Co138 2.121 1_554 S
N141 C143 1.375 . S
N141 C144 1.313 . S
C142 C143 1.338 . S
C142 N145 1.377 . S
C142 H162 0.930 . S
C143 N141 1.375 . S
C143 C142 1.338 . S
C143 H147 0.931 . S
C144 N141 1.313 . S
C144 N145 1.344 . S
C144 H148 0.930 . S
N145 C142 1.377 . S
N145 C144 1.344 . S
O146 Co138 2.055 . S
O146 C150 1.253 1_556 S
H147 C143 0.931 . S
H148 C144 0.930 . S
O149 Co138 2.039 . S
O149 C139 1.265 . S
C150 O146 1.253 1_554 S
C150 O151 1.227 . S
O151 C150 1.227 . S
N152 Co138 2.140 1_554 S
N152 C155 1.346 1_554 S
N152 C156 1.345 . S
C153 C154 1.387 . S
C153 C157 1.391 . S
C154 C153 1.387 . S
C154 C155 1.369 1_554 S
C154 H163 0.929 1_554 S
C155 N152 1.346 1_556 S
C155 C154 1.369 1_556 S
C155 H158 0.928 . S
C156 N152 1.345 . S
C156 C157 1.371 . S
C156 H159 0.931 . S
C157 C153 1.391 . S
C157 C156 1.371 . S
C157 H164 0.930 . S
H158 C155 0.928 . S
H159 C156 0.931 . S
H160 C136 0.930 . S
H161 C133 0.930 . S
H162 C142 0.930 . S
H163 C154 0.929 1_556 S
H164 C157 0.930 . S
C165 C166 1.351 . S
C165 N168 1.368 . S
C165 H170 0.931 . S
C166 C165 1.351 . S
C166 N167 1.373 . S
C166 H194 0.930 . S
N167 C166 1.373 . S
N167 C169 1.340 . S
N168 C165 1.368 . S
N168 C169 1.321 . S
N168 Co171 2.135 . S
C169 N167 1.340 . S
C169 N168 1.321 . S
C169 H193 0.930 . S
H170 C165 0.931 . S
Co171 N168 2.135 . S
Co171 N174 2.121 . S
Co171 O179 2.055 . S
Co171 O182 2.039 . S
Co171 N185 2.140 . S
C172 O173 1.227 . S
C172 O182 1.265 . S
O173 C172 1.227 . S
N174 Co171 2.121 . S
N174 C176 1.375 . S
N174 C177 1.313 . S
C175 C176 1.338 . S
C175 N178 1.377 . S
C175 H195 0.930 . S
C176 N174 1.375 . S
C176 C175 1.338 . S
C176 H180 0.931 . S
C177 N174 1.313 . S
C177 N178 1.344 . S
C177 H181 0.930 . S
N178 C175 1.377 . S
N178 C177 1.344 . S
O179 Co171 2.055 . S
O179 C183 1.253 . S
H180 C176 0.931 . S
H181 C177 0.930 . S
O182 Co171 2.039 . S
O182 C172 1.265 . S
C183 O179 1.253 . S
C183 O184 1.227 . S
O184 C183 1.227 . S
N185 Co171 2.140 . S
N185 C188 1.346 . S
N185 C189 1.345 . S
C186 C187 1.387 . S
C186 C190 1.391 . S
C187 C186 1.387 . S
C187 C188 1.369 . S
C187 H196 0.929 . S
C188 N185 1.346 . S
C188 C187 1.369 . S
C188 H191 0.928 . S
C189 N185 1.345 . S
C189 C190 1.371 . S
C189 H192 0.931 . S
C190 C186 1.391 . S
C190 C189 1.371 . S
C190 H197 0.930 . S
H191 C188 0.928 . S
H192 C189 0.931 . S
H193 C169 0.930 . S
H194 C166 0.930 . S
H195 C175 0.930 . S
H196 C187 0.929 . S
H197 C190 0.930 . S
C198 C199 1.351 . S
C198 N201 1.368 . S
C198 H203 0.931 . S
C199 C198 1.351 . S
C199 N200 1.373 . S
C199 H227 0.930 . S
N200 C199 1.373 . S
N200 C202 1.340 . S
N201 C198 1.368 . S
N201 C202 1.321 . S
N201 Co204 2.135 . S
C202 N200 1.340 . S
C202 N201 1.321 . S
C202 H226 0.930 . S
H203 C198 0.931 . S
Co204 N201 2.135 . S
Co204 N207 2.121 . S
Co204 O212 2.055 . S
Co204 O215 2.039 . S
Co204 N218 2.140 . S
C205 O206 1.227 . S
C205 O215 1.265 . S
O206 C205 1.227 . S
N207 Co204 2.121 . S
N207 C209 1.375 . S
N207 C210 1.313 . S
C208 C209 1.338 . S
C208 N211 1.377 . S
C208 H228 0.930 . S
C209 N207 1.375 . S
C209 C208 1.338 . S
C209 H213 0.931 . S
C210 N207 1.313 . S
C210 N211 1.344 . S
C210 H214 0.930 . S
N211 C208 1.377 . S
N211 C210 1.344 . S
O212 Co204 2.055 . S
O212 C216 1.253 . S
H213 C209 0.931 . S
H214 C210 0.930 . S
O215 Co204 2.039 . S
O215 C205 1.265 . S
C216 O212 1.253 . S
C216 O217 1.227 . S
O217 C216 1.227 . S
N218 Co204 2.140 . S
N218 C221 1.346 . S
N218 C222 1.345 . S
C219 C220 1.387 . S
C219 C223 1.391 . S
C220 C219 1.387 . S
C220 C221 1.369 . S
C220 H229 0.929 . S
C221 N218 1.346 . S
C221 C220 1.369 . S
C221 H224 0.928 . S
C222 N218 1.345 . S
C222 C223 1.371 . S
C222 H225 0.931 . S
C223 C219 1.391 . S
C223 C222 1.371 . S
C223 H230 0.930 . S
H224 C221 0.928 . S
H225 C222 0.931 . S
H226 C202 0.930 . S
H227 C199 0.930 . S
H228 C208 0.930 . S
H229 C220 0.929 . S
H230 C223 0.930 . S
C231 C232 1.351 1_455 S
C231 N234 1.368 . S
C231 H236 0.931 1_455 S
C232 C231 1.351 1_655 S
C232 N233 1.373 1_655 S
C232 H260 0.930 . S
N233 C232 1.373 1_455 S
N233 C235 1.340 . S
N234 C231 1.368 . S
N234 C235 1.321 . S
N234 Co237 2.135 . S
C235 N233 1.340 . S
C235 N234 1.321 . S
C235 H259 0.930 . S
H236 C231 0.931 1_655 S
Co237 N234 2.135 . S
Co237 N240 2.121 . S
Co237 O245 2.055 . S
Co237 O248 2.039 . S
Co237 N251 2.140 . S
C238 O239 1.227 . S
C238 O248 1.265 . S
O239 C238 1.227 . S
N240 Co237 2.121 . S
N240 C242 1.375 . S
N240 C243 1.313 . S
C241 C242 1.338 . S
C241 N244 1.377 . S
C241 H261 0.930 . S
C242 N240 1.375 . S
C242 C241 1.338 . S
C242 H246 0.931 . S
C243 N240 1.313 . S
C243 N244 1.344 . S
C243 H247 0.930 . S
N244 C241 1.377 . S
N244 C243 1.344 . S
O245 Co237 2.055 . S
O245 C249 1.253 . S
H246 C242 0.931 . S
H247 C243 0.930 . S
O248 Co237 2.039 . S
O248 C238 1.265 . S
C249 O245 1.253 . S
C249 O250 1.227 . S
O250 C249 1.227 . S
N251 Co237 2.140 . S
N251 C254 1.346 . S
N251 C255 1.345 . S
C252 C253 1.387 . S
C252 C256 1.391 . S
C253 C252 1.387 . S
C253 C254 1.369 . S
C253 H262 0.929 . S
C254 N251 1.346 . S
C254 C253 1.369 . S
C254 H257 0.928 . S
C255 N251 1.345 . S
C255 C256 1.371 . S
C255 H258 0.931 . S
C256 C252 1.391 . S
C256 C255 1.371 . S
C256 H263 0.930 . S
H257 C254 0.928 . S
H258 C255 0.931 . S
H259 C235 0.930 . S
H260 C232 0.930 . S
H261 C241 0.930 . S
H262 C253 0.929 . S
H263 C256 0.930 . S
C264 C265 1.351 . S
C264 N267 1.368 . S
C264 H269 0.931 . S
C265 C264 1.351 . S
C265 N266 1.373 . S
C265 H293 0.930 . S
N266 C265 1.373 . S
N266 C268 1.340 . S
N267 C264 1.368 . S
N267 C268 1.321 . S
N267 Co270 2.135 . S
C268 N266 1.340 . S
C268 N267 1.321 . S
C268 H292 0.930 . S
H269 C264 0.931 . S
Co270 N267 2.135 . S
Co270 N273 2.121 . S
Co270 O278 2.055 . S
Co270 O281 2.039 . S
Co270 N284 2.140 . S
C271 O272 1.227 . S
C271 O281 1.265 . S
O272 C271 1.227 . S
N273 Co270 2.121 . S
N273 C275 1.375 . S
N273 C276 1.313 . S
C274 C275 1.338 . S
C274 N277 1.377 . S
C274 H294 0.930 . S
C275 N273 1.375 . S
C275 C274 1.338 . S
C275 H279 0.931 . S
C276 N273 1.313 . S
C276 N277 1.344 . S
C276 H280 0.930 . S
N277 C274 1.377 . S
N277 C276 1.344 . S
O278 Co270 2.055 . S
O278 C282 1.253 . S
H279 C275 0.931 . S
H280 C276 0.930 . S
O281 Co270 2.039 . S
O281 C271 1.265 . S
C282 O278 1.253 . S
C282 O283 1.227 . S
O283 C282 1.227 . S
N284 Co270 2.140 . S
N284 C287 1.346 . S
N284 C288 1.345 . S
C285 C286 1.387 . S
C285 C289 1.391 . S
C286 C285 1.387 . S
C286 C287 1.369 . S
C286 H295 0.929 . S
C287 N284 1.346 . S
C287 C286 1.369 . S
C287 H290 0.928 . S
C288 N284 1.345 . S
C288 C289 1.371 . S
C288 H291 0.931 . S
C289 C285 1.391 . S
C289 C288 1.371 . S
C289 H296 0.930 . S
H290 C287 0.928 . S
H291 C288 0.931 . S
H292 C268 0.930 . S
H293 C265 0.930 . S
H294 C274 0.930 . S
H295 C286 0.929 . S
H296 C289 0.930 . S
C297 C298 1.351 1_455 S
C297 N300 1.368 . S
C297 H302 0.931 1_455 S
C298 C297 1.351 1_655 S
C298 N299 1.373 1_655 S
C298 H326 0.930 . S
N299 C298 1.373 1_455 S
N299 C301 1.340 . S
N300 C297 1.368 . S
N300 C301 1.321 . S
N300 Co303 2.135 . S
C301 N299 1.340 . S
C301 N300 1.321 . S
C301 H325 0.930 . S
H302 C297 0.931 1_655 S
Co303 N300 2.135 . S
Co303 N306 2.121 . S
Co303 O311 2.055 . S
Co303 O314 2.039 . S
Co303 N317 2.140 . S
C304 O305 1.227 . S
C304 O314 1.265 . S
O305 C304 1.227 . S
N306 Co303 2.121 . S
N306 C308 1.375 . S
N306 C309 1.313 . S
C307 C308 1.338 . S
C307 N310 1.377 . S
C307 H327 0.930 . S
C308 N306 1.375 . S
C308 C307 1.338 . S
C308 H312 0.931 . S
C309 N306 1.313 . S
C309 N310 1.344 . S
C309 H313 0.930 . S
N310 C307 1.377 . S
N310 C309 1.344 . S
O311 Co303 2.055 . S
O311 C315 1.253 . S
H312 C308 0.931 . S
H313 C309 0.930 . S
O314 Co303 2.039 . S
O314 C304 1.265 . S
C315 O311 1.253 . S
C315 O316 1.227 . S
O316 C315 1.227 . S
N317 Co303 2.140 . S
N317 C320 1.346 . S
N317 C321 1.345 . S
C318 C319 1.387 . S
C318 C322 1.391 1_565 S
C319 C318 1.387 . S
C319 C320 1.369 1_565 S
C319 H328 0.929 . S
C320 N317 1.346 . S
C320 C319 1.369 1_545 S
C320 H323 0.928 . S
C321 N317 1.345 . S
C321 C322 1.371 . S
C321 H324 0.931 . S
C322 C318 1.391 1_545 S
C322 C321 1.371 . S
C322 H329 0.930 . S
H323 C320 0.928 . S
H324 C321 0.931 . S
H325 C301 0.930 . S
H326 C298 0.930 . S
H327 C307 0.930 . S
H328 C319 0.929 . S
H329 C322 0.930 . S
C330 C331 1.351 . S
C330 N333 1.368 . S
C330 H335 0.931 . S
C331 C330 1.351 . S
C331 N332 1.373 . S
C331 H359 0.930 . S
N332 C331 1.373 . S
N332 C334 1.340 . S
N333 C330 1.368 . S
N333 C334 1.321 . S
N333 Co336 2.135 . S
C334 N332 1.340 . S
C334 N333 1.321 . S
C334 H358 0.930 . S
H335 C330 0.931 . S
Co336 N333 2.135 . S
Co336 N339 2.121 1_554 S
Co336 O344 2.055 . S
Co336 O347 2.039 . S
Co336 N350 2.140 1_554 S
C337 O338 1.227 . S
C337 O347 1.265 . S
O338 C337 1.227 . S
N339 Co336 2.121 1_556 S
N339 C341 1.375 . S
N339 C342 1.313 . S
C340 C341 1.338 . S
C340 N343 1.377 . S
C340 H360 0.930 . S
C341 N339 1.375 . S
C341 C340 1.338 . S
C341 H345 0.931 . S
C342 N339 1.313 . S
C342 N343 1.344 . S
C342 H346 0.930 . S
N343 C340 1.377 . S
N343 C342 1.344 . S
O344 Co336 2.055 . S
O344 C348 1.253 1_554 S
H345 C341 0.931 . S
H346 C342 0.930 . S
O347 Co336 2.039 . S
O347 C337 1.265 . S
C348 O344 1.253 1_556 S
C348 O349 1.227 . S
O349 C348 1.227 . S
N350 Co336 2.140 1_556 S
N350 C353 1.346 1_556 S
N350 C354 1.345 . S
C351 C352 1.387 . S
C351 C355 1.391 . S
C352 C351 1.387 . S
C352 C353 1.369 1_556 S
C352 H361 0.929 1_556 S
C353 N350 1.346 1_554 S
C353 C352 1.369 1_554 S
C353 H356 0.928 . S
C354 N350 1.345 . S
C354 C355 1.371 . S
C354 H357 0.931 . S
C355 C351 1.391 . S
C355 C354 1.371 . S
C355 H362 0.930 . S
H356 C353 0.928 . S
H357 C354 0.931 . S
H358 C334 0.930 . S
H359 C331 0.930 . S
H360 C340 0.930 . S
H361 C352 0.929 1_554 S
H362 C355 0.930 . S
C363 C364 1.351 . S
C363 N366 1.368 . S
C363 H368 0.931 . S
C364 C363 1.351 . S
C364 N365 1.373 . S
C364 H392 0.930 . S
N365 C364 1.373 . S
N365 C367 1.340 . S
N366 C363 1.368 . S
N366 C367 1.321 . S
N366 Co369 2.135 . S
C367 N365 1.340 . S
C367 N366 1.321 . S
C367 H391 0.930 . S
H368 C363 0.931 . S
Co369 N366 2.135 . S
Co369 N372 2.121 . S
Co369 O377 2.055 . S
Co369 O380 2.039 . S
Co369 N383 2.140 . S
C370 O371 1.227 . S
C370 O380 1.265 . S
O371 C370 1.227 . S
N372 Co369 2.121 . S
N372 C374 1.375 . S
N372 C375 1.313 . S
C373 C374 1.338 . S
C373 N376 1.377 . S
C373 H393 0.930 . S
C374 N372 1.375 . S
C374 C373 1.338 . S
C374 H378 0.931 . S
C375 N372 1.313 . S
C375 N376 1.344 . S
C375 H379 0.930 . S
N376 C373 1.377 . S
N376 C375 1.344 . S
O377 Co369 2.055 . S
O377 C381 1.253 . S
H378 C374 0.931 . S
H379 C375 0.930 . S
O380 Co369 2.039 . S
O380 C370 1.265 . S
C381 O377 1.253 . S
C381 O382 1.227 . S
O382 C381 1.227 . S
N383 Co369 2.140 . S
N383 C386 1.346 . S
N383 C387 1.345 . S
C384 C385 1.387 . S
C384 C388 1.391 1_545 S
C385 C384 1.387 . S
C385 C386 1.369 1_545 S
C385 H394 0.929 . S
C386 N383 1.346 . S
C386 C385 1.369 1_565 S
C386 H389 0.928 . S
C387 N383 1.345 . S
C387 C388 1.371 . S
C387 H390 0.931 . S
C388 C384 1.391 1_565 S
C388 C387 1.371 . S
C388 H395 0.930 . S
H389 C386 0.928 . S
H390 C387 0.931 . S
H391 C367 0.930 . S
H392 C364 0.930 . S
H393 C373 0.930 . S
H394 C385 0.929 . S
H395 C388 0.930 . S
C396 C397 1.351 . S
C396 N399 1.368 . S
C396 H401 0.931 . S
C397 C396 1.351 . S
C397 N398 1.373 . S
C397 H425 0.930 . S
N398 C397 1.373 . S
N398 C400 1.340 . S
N399 C396 1.368 . S
N399 C400 1.321 . S
N399 Co402 2.135 . S
C400 N398 1.340 . S
C400 N399 1.321 . S
C400 H424 0.930 . S
H401 C396 0.931 . S
Co402 N399 2.135 . S
Co402 N405 2.121 . S
Co402 O410 2.055 . S
Co402 O413 2.039 . S
Co402 N416 2.140 . S
C403 O404 1.227 . S
C403 O413 1.265 . S
O404 C403 1.227 . S
N405 Co402 2.121 . S
N405 C407 1.375 . S
N405 C408 1.313 . S
C406 C407 1.338 . S
C406 N409 1.377 . S
C406 H426 0.930 . S
C407 N405 1.375 . S
C407 C406 1.338 . S
C407 H411 0.931 . S
C408 N405 1.313 . S
C408 N409 1.344 . S
C408 H412 0.930 . S
N409 C406 1.377 . S
N409 C408 1.344 . S
O410 Co402 2.055 . S
O410 C414 1.253 . S
H411 C407 0.931 . S
H412 C408 0.930 . S
O413 Co402 2.039 . S
O413 C403 1.265 . S
C414 O410 1.253 . S
C414 O415 1.227 . S
O415 C414 1.227 . S
N416 Co402 2.140 . S
N416 C419 1.346 . S
N416 C420 1.345 . S
C417 C418 1.387 . S
C417 C421 1.391 . S
C418 C417 1.387 . S
C418 C419 1.369 . S
C418 H427 0.929 . S
C419 N416 1.346 . S
C419 C418 1.369 . S
C419 H422 0.928 . S
C420 N416 1.345 . S
C420 C421 1.371 . S
C420 H423 0.931 . S
C421 C417 1.391 . S
C421 C420 1.371 . S
C421 H428 0.930 . S
H422 C419 0.928 . S
H423 C420 0.931 . S
H424 C400 0.930 . S
H425 C397 0.930 . S
H426 C406 0.930 . S
H427 C418 0.929 . S
H428 C421 0.930 . S
C429 C430 1.351 1_655 S
C429 N432 1.368 . S
C429 H434 0.931 1_655 S
C430 C429 1.351 1_455 S
C430 N431 1.373 1_455 S
C430 H458 0.930 . S
N431 C430 1.373 1_655 S
N431 C433 1.340 . S
N432 C429 1.368 . S
N432 C433 1.321 . S
N432 Co435 2.135 . S
C433 N431 1.340 . S
C433 N432 1.321 . S
C433 H457 0.930 . S
H434 C429 0.931 1_455 S
Co435 N432 2.135 . S
Co435 N438 2.121 . S
Co435 O443 2.055 . S
Co435 O446 2.039 . S
Co435 N449 2.140 . S
C436 O437 1.227 . S
C436 O446 1.265 . S
O437 C436 1.227 . S
N438 Co435 2.121 . S
N438 C440 1.375 . S
N438 C441 1.313 . S
C439 C440 1.338 . S
C439 N442 1.377 . S
C439 H459 0.930 . S
C440 N438 1.375 . S
C440 C439 1.338 . S
C440 H444 0.931 . S
C441 N438 1.313 . S
C441 N442 1.344 . S
C441 H445 0.930 . S
N442 C439 1.377 . S
N442 C441 1.344 . S
O443 Co435 2.055 . S
O443 C447 1.253 . S
H444 C440 0.931 . S
H445 C441 0.930 . S
O446 Co435 2.039 . S
O446 C436 1.265 . S
C447 O443 1.253 . S
C447 O448 1.227 . S
O448 C447 1.227 . S
N449 Co435 2.140 . S
N449 C452 1.346 . S
N449 C453 1.345 . S
C450 C451 1.387 . S
C450 C454 1.391 1_545 S
C451 C450 1.387 . S
C451 C452 1.369 1_545 S
C451 H460 0.929 . S
C452 N449 1.346 . S
C452 C451 1.369 1_565 S
C452 H455 0.928 . S
C453 N449 1.345 . S
C453 C454 1.371 . S
C453 H456 0.931 . S
C454 C450 1.391 1_565 S
C454 C453 1.371 . S
C454 H461 0.930 . S
H455 C452 0.928 . S
H456 C453 0.931 . S
H457 C433 0.930 . S
H458 C430 0.930 . S
H459 C439 0.930 . S
H460 C451 0.929 . S
H461 C454 0.930 . S
C462 C463 1.351 . S
C462 N465 1.368 . S
C462 H467 0.931 . S
C463 C462 1.351 . S
C463 N464 1.373 . S
C463 H491 0.930 . S
N464 C463 1.373 . S
N464 C466 1.340 . S
N465 C462 1.368 . S
N465 C466 1.321 . S
N465 Co468 2.135 . S
C466 N464 1.340 . S
C466 N465 1.321 . S
C466 H490 0.930 . S
H467 C462 0.931 . S
Co468 N465 2.135 . S
Co468 N471 2.121 1_556 S
Co468 O476 2.055 . S
Co468 O479 2.039 . S
Co468 N482 2.140 1_556 S
C469 O470 1.227 . S
C469 O479 1.265 . S
O470 C469 1.227 . S
N471 Co468 2.121 1_554 S
N471 C473 1.375 . S
N471 C474 1.313 . S
C472 C473 1.338 . S
C472 N475 1.377 . S
C472 H492 0.930 . S
C473 N471 1.375 . S
C473 C472 1.338 . S
C473 H477 0.931 . S
C474 N471 1.313 . S
C474 N475 1.344 . S
C474 H478 0.930 . S
N475 C472 1.377 . S
N475 C474 1.344 . S
O476 Co468 2.055 . S
O476 C480 1.253 1_556 S
H477 C473 0.931 . S
H478 C474 0.930 . S
O479 Co468 2.039 . S
O479 C469 1.265 . S
C480 O476 1.253 1_554 S
C480 O481 1.227 . S
O481 C480 1.227 . S
N482 Co468 2.140 1_554 S
N482 C485 1.346 1_554 S
N482 C486 1.345 . S
C483 C484 1.387 . S
C483 C487 1.391 . S
C484 C483 1.387 . S
C484 C485 1.369 1_554 S
C484 H493 0.929 1_554 S
C485 N482 1.346 1_556 S
C485 C484 1.369 1_556 S
C485 H488 0.928 . S
C486 N482 1.345 . S
C486 C487 1.371 . S
C486 H489 0.931 . S
C487 C483 1.391 . S
C487 C486 1.371 . S
C487 H494 0.930 . S
H488 C485 0.928 . S
H489 C486 0.931 . S
H490 C466 0.930 . S
H491 C463 0.930 . S
H492 C472 0.930 . S
H493 C484 0.929 1_556 S
H494 C487 0.930 . S
C495 C496 1.351 . S
C495 N498 1.368 . S
C495 H500 0.931 . S
C496 C495 1.351 . S
C496 N497 1.373 . S
C496 H524 0.930 . S
N497 C496 1.373 . S
N497 C499 1.340 . S
N498 C495 1.368 . S
N498 C499 1.321 . S
N498 Co501 2.135 . S
C499 N497 1.340 . S
C499 N498 1.321 . S
C499 H523 0.930 . S
H500 C495 0.931 . S
Co501 N498 2.135 . S
Co501 N504 2.121 . S
Co501 O509 2.055 . S
Co501 O512 2.039 . S
Co501 N515 2.140 . S
C502 O503 1.227 . S
C502 O512 1.265 . S
O503 C502 1.227 . S
N504 Co501 2.121 . S
N504 C506 1.375 . S
N504 C507 1.313 . S
C505 C506 1.338 . S
C505 N508 1.377 . S
C505 H525 0.930 . S
C506 N504 1.375 . S
C506 C505 1.338 . S
C506 H510 0.931 . S
C507 N504 1.313 . S
C507 N508 1.344 . S
C507 H511 0.930 . S
N508 C505 1.377 . S
N508 C507 1.344 . S
O509 Co501 2.055 . S
O509 C513 1.253 . S
H510 C506 0.931 . S
H511 C507 0.930 . S
O512 Co501 2.039 . S
O512 C502 1.265 . S
C513 O509 1.253 . S
C513 O514 1.227 . S
O514 C513 1.227 . S
N515 Co501 2.140 . S
N515 C518 1.346 . S
N515 C519 1.345 . S
C516 C517 1.387 . S
C516 C520 1.391 1_565 S
C517 C516 1.387 . S
C517 C518 1.369 1_565 S
C517 H526 0.929 . S
C518 N515 1.346 . S
C518 C517 1.369 1_545 S
C518 H521 0.928 . S
C519 N515 1.345 . S
C519 C520 1.371 . S
C519 H522 0.931 . S
C520 C516 1.391 1_545 S
C520 C519 1.371 . S
C520 H527 0.930 . S
H521 C518 0.928 . S
H522 C519 0.931 . S
H523 C499 0.930 . S
H524 C496 0.930 . S
H525 C505 0.930 . S
H526 C517 0.929 . S
H527 C520 0.930 . S
C528 C529 1.363 . S
C528 C534 1.379 . S
C528 N536 1.356 . S
C529 C528 1.363 . S
C529 C535 1.363 . S
C530 C531 1.363 . S
C530 C535 1.379 . S
C530 N537 1.356 . S
C531 C530 1.363 . S
C531 C534 1.363 . S
N532 C534 1.356 . S
N532 H544 0.984 . S
N532 H545 0.985 . S
N533 C535 1.356 . S
N533 H538 0.984 . S
N533 H539 0.985 . S
C534 C528 1.379 . S
C534 C531 1.363 . S
C534 N532 1.356 . S
C535 C529 1.363 . S
C535 C530 1.379 . S
C535 N533 1.356 . S
N536 C528 1.356 . S
N536 H542 0.984 . S
N536 H543 0.984 . S
N537 C530 1.356 . S
N537 H540 0.984 . S
N537 H541 0.985 . S
H538 N533 0.984 . S
H539 N533 0.985 . S
H540 N537 0.984 . S
H541 N537 0.985 . S
H542 N536 0.984 . S
H543 N536 0.984 . S
H544 N532 0.984 . S
H545 N532 0.985 . S
C546 C547 1.363 . S
C546 C552 1.379 . S
C546 N554 1.356 . S
C547 C546 1.363 . S
C547 C553 1.363 . S
C548 C549 1.363 . S
C548 C553 1.379 . S
C548 N555 1.356 . S
C549 C548 1.363 . S
C549 C552 1.363 . S
N550 C552 1.356 . S
N550 H562 0.984 . S
N550 H563 0.985 . S
N551 C553 1.356 . S
N551 H556 0.984 . S
N551 H557 0.985 . S
C552 C546 1.379 . S
C552 C549 1.363 . S
C552 N550 1.356 . S
C553 C547 1.363 . S
C553 C548 1.379 . S
C553 N551 1.356 . S
N554 C546 1.356 . S
N554 H560 0.984 . S
N554 H561 0.984 . S
N555 C548 1.356 . S
N555 H558 0.984 1_554 S
N555 H559 0.985 . S
H556 N551 0.984 . S
H557 N551 0.985 . S
H558 N555 0.984 1_556 S
H559 N555 0.985 . S
H560 N554 0.984 . S
H561 N554 0.984 . S
H562 N550 0.984 . S
H563 N550 0.985 . S
C564 C565 1.363 . S
C564 C570 1.379 . S
C564 N572 1.356 . S
C565 C564 1.363 . S
C565 C571 1.363 . S
C566 C567 1.363 . S
C566 C571 1.379 . S
C566 N573 1.356 . S
C567 C566 1.363 . S
C567 C570 1.363 . S
N568 C570 1.356 . S
N568 H580 0.984 . S
N568 H581 0.985 1_455 S
N569 C571 1.356 . S
N569 H574 0.984 . S
N569 H575 0.985 . S
C570 C564 1.379 . S
C570 C567 1.363 . S
C570 N568 1.356 . S
C571 C565 1.363 . S
C571 C566 1.379 . S
C571 N569 1.356 . S
N572 C564 1.356 . S
N572 H578 0.984 . S
N572 H579 0.984 . S
N573 C566 1.356 . S
N573 H576 0.984 . S
N573 H577 0.985 . S
H574 N569 0.984 . S
H575 N569 0.985 . S
H576 N573 0.984 . S
H577 N573 0.985 . S
H578 N572 0.984 . S
H579 N572 0.984 . S
H580 N568 0.984 . S
H581 N568 0.985 1_655 S
C582 C583 1.363 . S
C582 C588 1.379 . S
C582 N590 1.356 . S
C583 C582 1.363 . S
C583 C589 1.363 . S
C584 C585 1.363 . S
C584 C589 1.379 . S
C584 N591 1.356 . S
C585 C584 1.363 . S
C585 C588 1.363 . S
N586 C588 1.356 . S
N586 H598 0.984 . S
N586 H599 0.985 . S
N587 C589 1.356 . S
N587 H592 0.984 . S
N587 H593 0.985 . S
C588 C582 1.379 . S
C588 C585 1.363 . S
C588 N586 1.356 . S
C589 C583 1.363 . S
C589 C584 1.379 . S
C589 N587 1.356 . S
N590 C582 1.356 . S
N590 H596 0.984 . S
N590 H597 0.984 . S
N591 C584 1.356 . S
N591 H594 0.984 . S
N591 H595 0.985 . S
H592 N587 0.984 . S
H593 N587 0.985 . S
H594 N591 0.984 . S
H595 N591 0.985 . S
H596 N590 0.984 . S
H597 N590 0.984 . S
H598 N586 0.984 . S
H599 N586 0.985 . S
C600 C601 1.363 . S
C600 C606 1.379 . S
C600 N608 1.356 . S
C601 C600 1.363 . S
C601 C607 1.363 . S
C602 C603 1.363 . S
C602 C607 1.379 . S
C602 N609 1.356 . S
C603 C602 1.363 . S
C603 C606 1.363 . S
N604 C606 1.356 . S
N604 H616 0.984 . S
N604 H617 0.985 . S
N605 C607 1.356 . S
N605 H610 0.984 . S
N605 H611 0.985 . S
C606 C600 1.379 . S
C606 C603 1.363 . S
C606 N604 1.356 . S
C607 C601 1.363 . S
C607 C602 1.379 . S
C607 N605 1.356 . S
N608 C600 1.356 . S
N608 H614 0.984 . S
N608 H615 0.984 . S
N609 C602 1.356 . S
N609 H612 0.984 . S
N609 H613 0.985 . S
H610 N605 0.984 . S
H611 N605 0.985 . S
H612 N609 0.984 . S
H613 N609 0.985 . S
H614 N608 0.984 . S
H615 N608 0.984 . S
H616 N604 0.984 . S
H617 N604 0.985 . S
C618 C619 1.363 . S
C618 C624 1.379 . S
C618 N626 1.356 . S
C619 C618 1.363 . S
C619 C625 1.363 . S
C620 C621 1.363 . S
C620 C625 1.379 . S
C620 N627 1.356 . S
C621 C620 1.363 . S
C621 C624 1.363 . S
N622 C624 1.356 . S
N622 H634 0.984 . S
N622 H635 0.985 . S
N623 C625 1.356 1_554 S
N623 H628 0.984 . S
N623 H629 0.985 . S
C624 C618 1.379 . S
C624 C621 1.363 . S
C624 N622 1.356 . S
C625 C619 1.363 . S
C625 C620 1.379 . S
C625 N623 1.356 1_556 S
N626 C618 1.356 . S
N626 H632 0.984 . S
N626 H633 0.984 . S
N627 C620 1.356 . S
N627 H630 0.984 . S
N627 H631 0.985 . S
H628 N623 0.984 . S
H629 N623 0.985 . S
H630 N627 0.984 . S
H631 N627 0.985 . S
H632 N626 0.984 . S
H633 N626 0.984 . S
H634 N622 0.984 . S
H635 N622 0.985 . S
C636 C637 1.363 . S
C636 C642 1.379 . S
C636 N644 1.356 . S
C637 C636 1.363 . S
C637 C643 1.363 . S
C638 C639 1.363 . S
C638 C643 1.379 . S
C638 N645 1.356 . S
C639 C638 1.363 . S
C639 C642 1.363 . S
N640 C642 1.356 . S
N640 H652 0.984 . S
N640 H653 0.985 . S
N641 C643 1.356 . S
N641 H646 0.984 1_655 S
N641 H647 0.986 . S
C642 C636 1.379 . S
C642 C639 1.363 . S
C642 N640 1.356 . S
C643 C637 1.363 . S
C643 C638 1.379 . S
C643 N641 1.356 . S
N644 C636 1.356 . S
N644 H650 0.984 . S
N644 H651 0.984 . S
N645 C638 1.356 . S
N645 H648 0.984 . S
N645 H649 0.985 . S
H646 N641 0.984 1_455 S
H647 N641 0.986 . S
H648 N645 0.984 . S
H649 N645 0.985 . S
H650 N644 0.984 . S
H651 N644 0.984 . S
H652 N640 0.984 . S
H653 N640 0.985 . S
C654 C655 1.363 . S
C654 C660 1.379 . S
C654 N662 1.356 . S
C655 C654 1.363 . S
C655 C661 1.363 . S
C656 C657 1.363 . S
C656 C661 1.379 . S
C656 N663 1.356 . S
C657 C656 1.363 . S
C657 C660 1.363 . S
N658 C660 1.356 . S
N658 H670 0.984 . S
N658 H671 0.985 . S
N659 C661 1.356 . S
N659 H664 0.984 . S
N659 H665 0.985 . S
C660 C654 1.379 . S
C660 C657 1.363 . S
C660 N658 1.356 . S
C661 C655 1.363 . S
C661 C656 1.379 . S
C661 N659 1.356 . S
N662 C654 1.356 . S
N662 H668 0.984 . S
N662 H669 0.984 . S
N663 C656 1.356 . S
N663 H666 0.984 . S
N663 H667 0.985 . S
H664 N659 0.984 . S
H665 N659 0.985 . S
H666 N663 0.984 . S
H667 N663 0.985 . S
H668 N662 0.984 . S
H669 N662 0.984 . S
H670 N658 0.984 . S
H671 N658 0.985 . S
C672 C673 1.363 . S
C672 C678 1.379 . S
C672 N680 1.356 . S
C673 C672 1.363 . S
C673 C679 1.363 . S
C674 C675 1.363 . S
C674 C679 1.379 . S
C674 N681 1.356 . S
C675 C674 1.363 . S
C675 C678 1.363 . S
N676 C678 1.356 . S
N676 H688 0.984 . S
N676 H689 0.985 1_655 S
N677 C679 1.356 . S
N677 H682 0.984 . S
N677 H683 0.985 . S
C678 C672 1.379 . S
C678 C675 1.363 . S
C678 N676 1.356 . S
C679 C673 1.363 . S
C679 C674 1.379 . S
C679 N677 1.356 . S
N680 C672 1.356 . S
N680 H686 0.984 . S
N680 H687 0.984 . S
N681 C674 1.356 . S
N681 H684 0.984 . S
N681 H685 0.985 . S
H682 N677 0.984 . S
H683 N677 0.985 . S
H684 N681 0.984 . S
H685 N681 0.985 . S
H686 N680 0.984 . S
H687 N680 0.984 . S
H688 N676 0.984 . S
H689 N676 0.985 1_455 S
C690 C691 1.363 . S
C690 C696 1.379 . S
C690 N698 1.356 . S
C691 C690 1.363 . S
C691 C697 1.363 . S
C692 C693 1.363 . S
C692 C697 1.379 . S
C692 N699 1.356 . S
C693 C692 1.363 . S
C693 C696 1.363 . S
N694 C696 1.356 . S
N694 H706 0.984 . S
N694 H707 0.985 . S
N695 C697 1.356 . S
N695 H700 0.984 . S
N695 H701 0.985 . S
C696 C690 1.379 . S
C696 C693 1.363 . S
C696 N694 1.356 . S
C697 C691 1.363 . S
C697 C692 1.379 . S
C697 N695 1.356 . S
N698 C690 1.356 . S
N698 H704 0.984 . S
N698 H705 0.984 . S
N699 C692 1.356 . S
N699 H702 0.984 . S
N699 H703 0.985 . S
H700 N695 0.984 . S
H701 N695 0.985 . S
H702 N699 0.984 . S
H703 N699 0.985 . S
H704 N698 0.984 . S
H705 N698 0.984 . S
H706 N694 0.984 . S
H707 N694 0.985 . S
C708 C709 1.363 . S
C708 C714 1.379 . S
C708 N716 1.356 . S
C709 C708 1.363 . S
C709 C715 1.363 . S
C710 C711 1.363 . S
C710 C715 1.379 . S
C710 N717 1.356 . S
C711 C710 1.363 . S
C711 C714 1.363 . S
N712 C714 1.356 . S
N712 H724 0.984 . S
N712 H725 0.985 . S
N713 C715 1.356 . S
N713 H718 0.984 . S
N713 H719 0.985 . S
C714 C708 1.379 . S
C714 C711 1.363 . S
C714 N712 1.356 . S
C715 C709 1.363 . S
C715 C710 1.379 . S
C715 N713 1.356 . S
N716 C708 1.356 . S
N716 H722 0.984 . S
N716 H723 0.984 . S
N717 C710 1.356 . S
N717 H720 0.984 . S
N717 H721 0.985 . S
H718 N713 0.984 . S
H719 N713 0.985 . S
H720 N717 0.984 . S
H721 N717 0.985 . S
H722 N716 0.984 . S
H723 N716 0.984 . S
H724 N712 0.984 . S
H725 N712 0.985 . S
C726 C727 1.363 . S
C726 C732 1.379 . S
C726 N734 1.356 . S
C727 C726 1.363 . S
C727 C733 1.363 . S
C728 C729 1.363 . S
C728 C733 1.379 . S
C728 N735 1.356 . S
C729 C728 1.363 . S
C729 C732 1.363 . S
N730 C732 1.356 . S
N730 H742 0.984 . S
N730 H743 0.985 . S
N731 C733 1.356 . S
N731 H736 0.984 . S
N731 H737 0.985 . S
C732 C726 1.379 . S
C732 C729 1.363 . S
C732 N730 1.356 . S
C733 C727 1.363 . S
C733 C728 1.379 . S
C733 N731 1.356 . S
N734 C726 1.356 . S
N734 H740 0.984 . S
N734 H741 0.984 . S
N735 C728 1.356 . S
N735 H738 0.984 . S
N735 H739 0.985 . S
H736 N731 0.984 . S
H737 N731 0.985 . S
H738 N735 0.984 . S
H739 N735 0.985 . S
H740 N734 0.984 . S
H741 N734 0.984 . S
H742 N730 0.984 . S
H743 N730 0.985 . S
C744 C745 1.363 . S
C744 C750 1.379 . S
C744 N752 1.356 . S
C745 C744 1.363 . S
C745 C751 1.363 . S
C746 C747 1.363 . S
C746 C751 1.379 . S
C746 N753 1.356 1_455 S
C747 C746 1.363 . S
C747 C750 1.363 . S
N748 C750 1.356 . S
N748 H760 0.984 . S
N748 H761 0.985 . S
N749 C751 1.356 . S
N749 H754 0.984 . S
N749 H755 0.985 . S
C750 C744 1.379 . S
C750 C747 1.363 . S
C750 N748 1.356 . S
C751 C745 1.363 . S
C751 C746 1.379 . S
C751 N749 1.356 . S
N752 C744 1.356 . S
N752 H758 0.984 . S
N752 H759 0.984 . S
N753 C746 1.356 1_655 S
N753 H756 0.984 . S
N753 H757 0.985 . S
H754 N749 0.984 . S
H755 N749 0.985 . S
H756 N753 0.984 . S
H757 N753 0.985 . S
H758 N752 0.984 . S
H759 N752 0.984 . S
H760 N748 0.984 . S
H761 N748 0.985 . S
C762 C763 1.363 . S
C762 C768 1.379 . S
C762 N770 1.356 . S
C763 C762 1.363 . S
C763 C769 1.363 . S
C764 C765 1.363 . S
C764 C769 1.379 . S
C764 N771 1.356 . S
C765 C764 1.363 . S
C765 C768 1.363 . S
N766 C768 1.356 . S
N766 H778 0.984 . S
N766 H779 0.985 . S
N767 C769 1.356 . S
N767 H772 0.984 . S
N767 H773 0.985 . S
C768 C762 1.379 . S
C768 C765 1.363 . S
C768 N766 1.356 . S
C769 C763 1.363 . S
C769 C764 1.379 . S
C769 N767 1.356 . S
N770 C762 1.356 . S
N770 H776 0.984 . S
N770 H777 0.984 . S
N771 C764 1.356 . S
N771 H774 0.984 . S
N771 H775 0.985 . S
H772 N767 0.984 . S
H773 N767 0.985 . S
H774 N771 0.984 . S
H775 N771 0.985 . S
H776 N770 0.984 . S
H777 N770 0.984 . S
H778 N766 0.984 . S
H779 N766 0.985 . S
C780 C781 1.363 . S
C780 C786 1.379 . S
C780 N788 1.356 . S
C781 C780 1.363 . S
C781 C787 1.363 . S
C782 C783 1.363 . S
C782 C787 1.379 . S
C782 N789 1.356 . S
C783 C782 1.363 . S
C783 C786 1.363 . S
N784 C786 1.356 . S
N784 H796 0.984 . S
N784 H797 0.985 . S
N785 C787 1.356 . S
N785 H790 0.984 . S
N785 H791 0.985 . S
C786 C780 1.379 . S
C786 C783 1.363 . S
C786 N784 1.356 . S
C787 C781 1.363 . S
C787 C782 1.379 . S
C787 N785 1.356 . S
N788 C780 1.356 . S
N788 H794 0.984 . S
N788 H795 0.984 . S
N789 C782 1.356 . S
N789 H792 0.984 . S
N789 H793 0.985 . S
H790 N785 0.984 . S
H791 N785 0.985 . S
H792 N789 0.984 . S
H793 N789 0.985 . S
H794 N788 0.984 . S
H795 N788 0.984 . S
H796 N784 0.984 . S
H797 N784 0.985 . S
C798 C799 1.363 . S
C798 C804 1.379 . S
C798 N806 1.356 . S
C799 C798 1.363 . S
C799 C805 1.363 . S
C800 C801 1.363 . S
C800 C805 1.379 . S
C800 N807 1.356 . S
C801 C800 1.363 . S
C801 C804 1.363 . S
N802 C804 1.356 1_554 S
N802 H814 0.984 . S
N802 H815 0.985 . S
N803 C805 1.356 . S
N803 H808 0.984 . S
N803 H809 0.985 . S
C804 C798 1.379 . S
C804 C801 1.363 . S
C804 N802 1.356 1_556 S
C805 C799 1.363 . S
C805 C800 1.379 . S
C805 N803 1.356 . S
N806 C798 1.356 . S
N806 H812 0.984 . S
N806 H813 0.984 . S
N807 C800 1.356 . S
N807 H810 0.984 . S
N807 H811 0.985 . S
H808 N803 0.984 . S
H809 N803 0.985 . S
H810 N807 0.984 . S
H811 N807 0.985 . S
H812 N806 0.984 . S
H813 N806 0.984 . S
H814 N802 0.984 . S
H815 N802 0.985 . S
C816 C817 1.363 . S
C816 C822 1.379 . S
C816 N824 1.356 . S
C817 C816 1.363 . S
C817 C823 1.363 . S
C818 C819 1.363 . S
C818 C823 1.379 . S
C818 N825 1.356 . S
C819 C818 1.363 . S
C819 C822 1.363 . S
N820 C822 1.356 . S
N820 H832 0.984 . S
N820 H833 0.985 . S
N821 C823 1.356 . S
N821 H826 0.984 . S
N821 H827 0.985 . S
C822 C816 1.379 . S
C822 C819 1.363 . S
C822 N820 1.356 . S
C823 C817 1.363 . S
C823 C818 1.379 . S
C823 N821 1.356 . S
N824 C816 1.356 . S
N824 H830 0.984 . S
N824 H831 0.984 . S
N825 C818 1.356 . S
N825 H828 0.984 . S
N825 H829 0.985 . S
H826 N821 0.984 . S
H827 N821 0.985 . S
H828 N825 0.984 . S
H829 N825 0.985 . S
H830 N824 0.984 . S
H831 N824 0.984 . S
H832 N820 0.984 . S
H833 N820 0.985 . S
C834 C835 1.363 . S
C834 C840 1.379 . S
C834 N842 1.356 . S
C835 C834 1.363 . S
C835 C841 1.363 . S
C836 C837 1.363 . S
C836 C841 1.379 . S
C836 N843 1.356 . S
C837 C836 1.363 . S
C837 C840 1.363 . S
N838 C840 1.356 . S
N838 H850 0.984 . S
N838 H851 0.985 . S
N839 C841 1.356 . S
N839 H844 0.984 . S
N839 H845 0.985 . S
C840 C834 1.379 . S
C840 C837 1.363 . S
C840 N838 1.356 . S
C841 C835 1.363 . S
C841 C836 1.379 . S
C841 N839 1.356 . S
N842 C834 1.356 . S
N842 H848 0.984 . S
N842 H849 0.984 . S
N843 C836 1.356 . S
N843 H846 0.984 . S
N843 H847 0.985 . S
H844 N839 0.984 . S
H845 N839 0.985 . S
H846 N843 0.984 . S
H847 N843 0.985 . S
H848 N842 0.984 . S
H849 N842 0.984 . S
H850 N838 0.984 . S
H851 N838 0.985 . S
C852 C853 1.363 . S
C852 C858 1.379 . S
C852 N860 1.356 . S
C853 C852 1.363 . S
C853 C859 1.363 . S
C854 C855 1.363 . S
C854 C859 1.379 . S
C854 N861 1.356 . S
C855 C854 1.363 . S
C855 C858 1.363 . S
N856 C858 1.356 . S
N856 H868 0.984 . S
N856 H869 0.985 . S
N857 C859 1.356 . S
N857 H862 0.984 . S
N857 H863 0.985 . S
C858 C852 1.379 . S
C858 C855 1.363 . S
C858 N856 1.356 . S
C859 C853 1.363 . S
C859 C854 1.379 . S
C859 N857 1.356 . S
N860 C852 1.356 . S
N860 H866 0.984 . S
N860 H867 0.984 . S
N861 C854 1.356 . S
N861 H864 0.984 . S
N861 H865 0.985 . S
H862 N857 0.984 . S
H863 N857 0.985 . S
H864 N861 0.984 . S
H865 N861 0.985 . S
H866 N860 0.984 . S
H867 N860 0.984 . S
H868 N856 0.984 . S
H869 N856 0.985 . S
C870 C871 1.359 1_455 S
C870 C876 1.382 1_556 S
C870 N878 1.355 1_455 S
C871 C870 1.359 1_655 S
C871 C877 1.363 . S
C872 C873 1.359 1_655 S
C872 C877 1.382 1_554 S
C872 N879 1.355 1_655 S
C873 C872 1.359 1_455 S
C873 C876 1.363 . S
N874 C876 1.356 . S
N874 H886 0.984 . S
N874 H887 0.985 . S
N875 C877 1.356 . S
N875 H880 0.984 . S
N875 H881 0.985 . S
C876 C870 1.382 1_554 S
C876 C873 1.363 . S
C876 N874 1.356 . S
C877 C871 1.363 . S
C877 C872 1.382 1_556 S
C877 N875 1.356 . S
N878 C870 1.355 1_655 S
N878 H884 0.984 1_655 S
N878 H885 0.984 . S
N879 C872 1.355 1_455 S
N879 H882 0.984 . S
N879 H883 0.985 1_455 S
H880 N875 0.984 . S
H881 N875 0.985 . S
H882 N879 0.984 . S
H883 N879 0.985 1_655 S
H884 N878 0.984 1_455 S
H885 N878 0.984 . S
H886 N874 0.984 . S
H887 N874 0.985 . S
C888 C889 1.363 . S
C888 C894 1.379 . S
C888 N896 1.356 . S
C889 C888 1.363 . S
C889 C895 1.363 . S
C890 C891 1.363 . S
C890 C895 1.379 . S
C890 N897 1.356 . S
C891 C890 1.363 . S
C891 C894 1.363 . S
N892 C894 1.356 . S
N892 H904 0.984 . S
N892 H905 0.985 . S
N893 C895 1.356 . S
N893 H898 0.984 . S
N893 H899 0.985 . S
C894 C888 1.379 . S
C894 C891 1.363 . S
C894 N892 1.356 . S
C895 C889 1.363 . S
C895 C890 1.379 . S
C895 N893 1.356 . S
N896 C888 1.356 . S
N896 H902 0.984 . S
N896 H903 0.984 . S
N897 C890 1.356 . S
N897 H900 0.984 . S
N897 H901 0.985 . S
H898 N893 0.984 . S
H899 N893 0.985 . S
H900 N897 0.984 . S
H901 N897 0.985 . S
H902 N896 0.984 . S
H903 N896 0.984 . S
H904 N892 0.984 . S
H905 N892 0.985 . S
C906 C907 1.363 . S
C906 C912 1.379 . S
C906 N914 1.356 . S
C907 C906 1.363 . S
C907 C913 1.363 . S
C908 C909 1.363 . S
C908 C913 1.379 . S
C908 N915 1.356 . S
C909 C908 1.363 . S
C909 C912 1.363 . S
N910 C912 1.356 . S
N910 H922 0.984 . S
N910 H923 0.985 . S
N911 C913 1.356 . S
N911 H916 0.984 . S
N911 H917 0.985 . S
C912 C906 1.379 . S
C912 C909 1.363 . S
C912 N910 1.356 . S
C913 C907 1.363 . S
C913 C908 1.379 . S
C913 N911 1.356 . S
N914 C906 1.356 . S
N914 H920 0.984 . S
N914 H921 0.984 . S
N915 C908 1.356 . S
N915 H918 0.984 . S
N915 H919 0.985 . S
H916 N911 0.984 . S
H917 N911 0.985 . S
H918 N915 0.984 . S
H919 N915 0.985 . S
H920 N914 0.984 . S
H921 N914 0.984 . S
H922 N910 0.984 . S
H923 N910 0.985 . S
C924 C925 1.363 1_545 S
C924 C930 1.379 1_554 S
C924 N932 1.356 . S
C925 C924 1.363 1_565 S
C925 C931 1.363 1_655 S
C926 C927 1.363 1_565 S
C926 C931 1.379 1_556 S
C926 N933 1.356 . S
C927 C926 1.363 1_545 S
C927 C930 1.363 1_455 S
N928 C930 1.356 . S
N928 H940 0.984 . S
N928 H941 0.985 . S
N929 C931 1.356 . S
N929 H934 0.984 . S
N929 H935 0.985 . S
C930 C924 1.379 1_556 S
C930 C927 1.363 1_655 S
C930 N928 1.356 . S
C931 C925 1.363 1_455 S
C931 C926 1.379 1_554 S
C931 N929 1.356 . S
N932 C924 1.356 . S
N932 H938 0.984 . S
N932 H939 0.984 . S
N933 C926 1.356 . S
N933 H936 0.984 . S
N933 H937 0.985 . S
H934 N929 0.984 . S
H935 N929 0.985 . S
H936 N933 0.984 . S
H937 N933 0.985 . S
H938 N932 0.984 . S
H939 N932 0.984 . S
H940 N928 0.984 . S
H941 N928 0.985 . S
C942 C943 1.363 . S
C942 C948 1.379 . S
C942 N950 1.356 . S
C943 C942 1.363 . S
C943 C949 1.363 1_565 S
C944 C945 1.363 . S
C944 C949 1.379 . S
C944 N951 1.356 . S
C945 C944 1.363 . S
C945 C948 1.363 1_545 S
N946 C948 1.356 . S
N946 H958 0.984 . S
N946 H959 0.985 . S
N947 C949 1.356 . S
N947 H952 0.984 . S
N947 H953 0.985 . S
C948 C942 1.379 . S
C948 C945 1.363 1_565 S
C948 N946 1.356 . S
C949 C943 1.363 1_545 S
C949 C944 1.379 . S
C949 N947 1.356 . S
N950 C942 1.356 . S
N950 H956 0.984 . S
N950 H957 0.984 . S
N951 C944 1.356 . S
N951 H954 0.984 . S
N951 H955 0.985 . S
H952 N947 0.984 . S
H953 N947 0.985 . S
H954 N951 0.984 . S
H955 N951 0.985 . S
H956 N950 0.984 . S
H957 N950 0.984 . S
H958 N946 0.984 . S
H959 N946 0.985 . S
C960 C961 1.363 . S
C960 C966 1.379 . S
C960 N968 1.356 . S
C961 C960 1.363 . S
C961 C967 1.363 . S
C962 C963 1.363 . S
C962 C967 1.379 . S
C962 N969 1.356 . S
C963 C962 1.363 . S
C963 C966 1.363 . S
N964 C966 1.356 . S
N964 H976 0.984 1_556 S
N964 H977 0.985 . S
N965 C967 1.356 . S
N965 H970 0.984 . S
N965 H971 0.985 . S
C966 C960 1.379 . S
C966 C963 1.363 . S
C966 N964 1.356 . S
C967 C961 1.363 . S
C967 C962 1.379 . S
C967 N965 1.356 . S
N968 C960 1.356 . S
N968 H974 0.984 . S
N968 H975 0.984 . S
N969 C962 1.356 . S
N969 H972 0.984 . S
N969 H973 0.985 . S
H970 N965 0.984 . S
H971 N965 0.985 . S
H972 N969 0.984 . S
H973 N969 0.985 . S
H974 N968 0.984 . S
H975 N968 0.984 . S
H976 N964 0.984 1_554 S
H977 N964 0.985 . S
C978 C979 1.363 . S
C978 C984 1.379 . S
C978 N986 1.356 . S
C979 C978 1.363 . S
C979 C985 1.363 . S
C980 C981 1.363 . S
C980 C985 1.379 . S
C980 N987 1.356 . S
C981 C980 1.363 . S
C981 C984 1.363 . S
N982 C984 1.356 . S
N982 H994 0.984 . S
N982 H995 0.985 . S
N983 C985 1.356 . S
N983 H988 0.984 . S
N983 H989 0.985 . S
C984 C978 1.379 . S
C984 C981 1.363 . S
C984 N982 1.356 . S
C985 C979 1.363 . S
C985 C980 1.379 . S
C985 N983 1.356 . S
N986 C978 1.356 . S
N986 H992 0.984 . S
N986 H993 0.984 . S
N987 C980 1.356 . S
N987 H990 0.984 . S
N987 H991 0.985 . S
H988 N983 0.984 . S
H989 N983 0.985 . S
H990 N987 0.984 . S
H991 N987 0.985 . S
H992 N986 0.984 . S
H993 N986 0.984 . S
H994 N982 0.984 . S
H995 N982 0.985 . S
C996 C997 1.363 . S
C996 C1002 1.379 . S
C996 N1004 1.356 . S
C997 C996 1.363 . S
C997 C1003 1.363 . S
C998 C999 1.363 . S
C998 C1003 1.379 . S
C998 N1005 1.356 . S
C999 C998 1.363 . S
C999 C1002 1.363 . S
N1000 C1002 1.356 . S
N1000 H1012 0.984 . S
N1000 H1013 0.985 . S
N1001 C1003 1.356 . S
N1001 H1006 0.984 . S
N1001 H1007 0.985 . S
C1002 C996 1.379 . S
C1002 C999 1.363 . S
C1002 N1000 1.356 . S
C1003 C997 1.363 . S
C1003 C998 1.379 . S
C1003 N1001 1.356 . S
N1004 C996 1.356 . S
N1004 H1010 0.984 . S
N1004 H1011 0.984 . S
N1005 C998 1.356 . S
N1005 H1008 0.984 . S
N1005 H1009 0.985 . S
H1006 N1001 0.984 . S
H1007 N1001 0.985 . S
H1008 N1005 0.984 . S
H1009 N1005 0.985 . S
H1010 N1004 0.984 . S
H1011 N1004 0.984 . S
H1012 N1000 0.984 . S
H1013 N1000 0.985 . S
C1014 C1015 1.363 . S
C1014 C1020 1.379 . S
C1014 N1022 1.356 . S
C1015 C1014 1.363 . S
C1015 C1021 1.363 . S
C1016 C1017 1.363 . S
C1016 C1021 1.379 . S
C1016 N1023 1.356 . S
C1017 C1016 1.363 . S
C1017 C1020 1.363 . S
N1018 C1020 1.356 . S
N1018 H1030 0.984 . S
N1018 H1031 0.985 . S
N1019 C1021 1.356 . S
N1019 H1024 0.984 . S
N1019 H1025 0.985 . S
C1020 C1014 1.379 . S
C1020 C1017 1.363 . S
C1020 N1018 1.356 . S
C1021 C1015 1.363 . S
C1021 C1016 1.379 . S
C1021 N1019 1.356 . S
N1022 C1014 1.356 . S
N1022 H1028 0.984 . S
N1022 H1029 0.984 . S
N1023 C1016 1.356 . S
N1023 H1026 0.984 . S
N1023 H1027 0.985 . S
H1024 N1019 0.984 . S
H1025 N1019 0.985 . S
H1026 N1023 0.984 . S
H1027 N1023 0.985 . S
H1028 N1022 0.984 . S
H1029 N1022 0.984 . S
H1030 N1018 0.984 . S
H1031 N1018 0.985 . S
C1032 C1033 1.363 . S
C1032 C1038 1.379 . S
C1032 N1040 1.356 . S
C1033 C1032 1.363 . S
C1033 C1039 1.363 . S
C1034 C1035 1.363 . S
C1034 C1039 1.379 . S
C1034 N1041 1.356 . S
C1035 C1034 1.363 . S
C1035 C1038 1.363 . S
N1036 C1038 1.356 . S
N1036 H1048 0.984 . S
N1036 H1049 0.985 . S
N1037 C1039 1.356 . S
N1037 H1042 0.984 . S
N1037 H1043 0.985 . S
C1038 C1032 1.379 . S
C1038 C1035 1.363 . S
C1038 N1036 1.356 . S
C1039 C1033 1.363 . S
C1039 C1034 1.379 . S
C1039 N1037 1.356 . S
N1040 C1032 1.356 . S
N1040 H1046 0.984 1_554 S
N1040 H1047 0.984 . S
N1041 C1034 1.356 . S
N1041 H1044 0.984 . S
N1041 H1045 0.985 . S
H1042 N1037 0.984 . S
H1043 N1037 0.985 . S
H1044 N1041 0.984 . S
H1045 N1041 0.985 . S
H1046 N1040 0.984 1_556 S
H1047 N1040 0.984 . S
H1048 N1036 0.984 . S
H1049 N1036 0.985 . S
C1050 C1051 1.363 . S
C1050 C1056 1.379 . S
C1050 N1058 1.356 . S
C1051 C1050 1.363 . S
C1051 C1057 1.363 . S
C1052 C1053 1.363 . S
C1052 C1057 1.379 . S
C1052 N1059 1.356 . S
C1053 C1052 1.363 . S
C1053 C1056 1.363 . S
N1054 C1056 1.356 . S
N1054 H1066 0.984 . S
N1054 H1067 0.985 . S
N1055 C1057 1.356 . S
N1055 H1060 0.984 . S
N1055 H1061 0.985 . S
C1056 C1050 1.379 . S
C1056 C1053 1.363 . S
C1056 N1054 1.356 . S
C1057 C1051 1.363 . S
C1057 C1052 1.379 . S
C1057 N1055 1.356 . S
N1058 C1050 1.356 . S
N1058 H1064 0.984 . S
N1058 H1065 0.984 . S
N1059 C1052 1.356 . S
N1059 H1062 0.984 . S
N1059 H1063 0.985 . S
H1060 N1055 0.984 . S
H1061 N1055 0.985 . S
H1062 N1059 0.984 . S
H1063 N1059 0.985 . S
H1064 N1058 0.984 . S
H1065 N1058 0.984 . S
H1066 N1054 0.984 . S
H1067 N1054 0.985 . S
C1068 C1069 1.363 . S
C1068 C1074 1.379 . S
C1068 N1076 1.356 . S
C1069 C1068 1.363 . S
C1069 C1075 1.363 . S
C1070 C1071 1.363 . S
C1070 C1075 1.379 . S
C1070 N1077 1.356 . S
C1071 C1070 1.363 . S
C1071 C1074 1.363 . S
N1072 C1074 1.356 . S
N1072 H1084 0.984 . S
N1072 H1085 0.985 . S
N1073 C1075 1.356 . S
N1073 H1078 0.984 . S
N1073 H1079 0.985 . S
C1074 C1068 1.379 . S
C1074 C1071 1.363 . S
C1074 N1072 1.356 . S
C1075 C1069 1.363 . S
C1075 C1070 1.379 . S
C1075 N1073 1.356 . S
N1076 C1068 1.356 . S
N1076 H1082 0.984 . S
N1076 H1083 0.984 . S
N1077 C1070 1.356 . S
N1077 H1080 0.984 . S
N1077 H1081 0.985 . S
H1078 N1073 0.984 . S
H1079 N1073 0.985 . S
H1080 N1077 0.984 . S
H1081 N1077 0.985 . S
H1082 N1076 0.984 . S
H1083 N1076 0.984 . S
H1084 N1072 0.984 . S
H1085 N1072 0.985 . S
C1086 C1087 1.363 . S
C1086 C1092 1.379 . S
C1086 N1094 1.356 . S
C1087 C1086 1.363 . S
C1087 C1093 1.363 . S
C1088 C1089 1.363 . S
C1088 C1093 1.379 . S
C1088 N1095 1.356 . S
C1089 C1088 1.363 . S
C1089 C1092 1.363 . S
N1090 C1092 1.356 . S
N1090 H1102 0.984 . S
N1090 H1103 0.985 . S
N1091 C1093 1.356 . S
N1091 H1096 0.984 . S
N1091 H1097 0.985 . S
C1092 C1086 1.379 . S
C1092 C1089 1.363 . S
C1092 N1090 1.356 . S
C1093 C1087 1.363 . S
C1093 C1088 1.379 . S
C1093 N1091 1.356 . S
N1094 C1086 1.356 . S
N1094 H1100 0.984 . S
N1094 H1101 0.984 . S
N1095 C1088 1.356 . S
N1095 H1098 0.984 . S
N1095 H1099 0.985 . S
H1096 N1091 0.984 . S
H1097 N1091 0.985 . S
H1098 N1095 0.984 . S
H1099 N1095 0.985 . S
H1100 N1094 0.984 . S
H1101 N1094 0.984 . S
H1102 N1090 0.984 . S
H1103 N1090 0.985 . S
C1104 C1105 1.363 . S
C1104 C1110 1.379 . S
C1104 N1112 1.356 . S
C1105 C1104 1.363 . S
C1105 C1111 1.363 . S
C1106 C1107 1.363 . S
C1106 C1111 1.379 . S
C1106 N1113 1.356 . S
C1107 C1106 1.363 . S
C1107 C1110 1.363 . S
N1108 C1110 1.356 . S
N1108 H1120 0.984 . S
N1108 H1121 0.985 . S
N1109 C1111 1.356 . S
N1109 H1114 0.984 . S
N1109 H1115 0.985 . S
C1110 C1104 1.379 . S
C1110 C1107 1.363 . S
C1110 N1108 1.356 . S
C1111 C1105 1.363 . S
C1111 C1106 1.379 . S
C1111 N1109 1.356 . S
N1112 C1104 1.356 . S
N1112 H1118 0.984 . S
N1112 H1119 0.984 . S
N1113 C1106 1.356 . S
N1113 H1116 0.984 . S
N1113 H1117 0.985 . S
H1114 N1109 0.984 . S
H1115 N1109 0.985 . S
H1116 N1113 0.984 . S
H1117 N1113 0.985 . S
H1118 N1112 0.984 . S
H1119 N1112 0.984 . S
H1120 N1108 0.984 . S
H1121 N1108 0.985 . S
C1122 C1123 1.363 . S
C1122 C1128 1.379 . S
C1122 N1130 1.356 . S
C1123 C1122 1.363 . S
C1123 C1129 1.363 . S
C1124 C1125 1.363 . S
C1124 C1129 1.379 . S
C1124 N1131 1.356 . S
C1125 C1124 1.363 . S
C1125 C1128 1.363 . S
N1126 C1128 1.356 . S
N1126 H1138 0.984 . S
N1126 H1139 0.985 . S
N1127 C1129 1.356 . S
N1127 H1132 0.984 . S
N1127 H1133 0.985 . S
C1128 C1122 1.379 . S
C1128 C1125 1.363 . S
C1128 N1126 1.356 . S
C1129 C1123 1.363 . S
C1129 C1124 1.379 . S
C1129 N1127 1.356 . S
N1130 C1122 1.356 . S
N1130 H1136 0.984 . S
N1130 H1137 0.984 . S
N1131 C1124 1.356 . S
N1131 H1134 0.984 . S
N1131 H1135 0.985 . S
H1132 N1127 0.984 . S
H1133 N1127 0.985 . S
H1134 N1131 0.984 . S
H1135 N1131 0.985 . S
H1136 N1130 0.984 . S
H1137 N1130 0.984 . S
H1138 N1126 0.984 . S
H1139 N1126 0.985 . S
C1140 C1141 1.363 . S
C1140 C1146 1.379 . S
C1140 N1148 1.356 . S
C1141 C1140 1.363 . S
C1141 C1147 1.363 . S
C1142 C1143 1.363 . S
C1142 C1147 1.379 . S
C1142 N1149 1.356 . S
C1143 C1142 1.363 . S
C1143 C1146 1.363 . S
N1144 C1146 1.356 . S
N1144 H1156 0.984 . S
N1144 H1157 0.985 . S
N1145 C1147 1.356 . S
N1145 H1150 0.984 . S
N1145 H1151 0.985 . S
C1146 C1140 1.379 . S
C1146 C1143 1.363 . S
C1146 N1144 1.356 . S
C1147 C1141 1.363 . S
C1147 C1142 1.379 . S
C1147 N1145 1.356 . S
N1148 C1140 1.356 . S
N1148 H1154 0.984 . S
N1148 H1155 0.984 . S
N1149 C1142 1.356 . S
N1149 H1152 0.984 . S
N1149 H1153 0.985 . S
H1150 N1145 0.984 . S
H1151 N1145 0.985 . S
H1152 N1149 0.984 . S
H1153 N1149 0.985 . S
H1154 N1148 0.984 . S
H1155 N1148 0.984 . S
H1156 N1144 0.984 . S
H1157 N1144 0.985 . S
C1158 C1159 1.363 . S
C1158 C1164 1.379 . S
C1158 N1166 1.356 . S
C1159 C1158 1.363 . S
C1159 C1165 1.363 . S
C1160 C1161 1.363 . S
C1160 C1165 1.379 . S
C1160 N1167 1.356 . S
C1161 C1160 1.363 . S
C1161 C1164 1.363 . S
N1162 C1164 1.356 . S
N1162 H1174 0.984 . S
N1162 H1175 0.985 . S
N1163 C1165 1.356 . S
N1163 H1168 0.984 . S
N1163 H1169 0.985 . S
C1164 C1158 1.379 . S
C1164 C1161 1.363 . S
C1164 N1162 1.356 . S
C1165 C1159 1.363 . S
C1165 C1160 1.379 . S
C1165 N1163 1.356 . S
N1166 C1158 1.356 . S
N1166 H1172 0.984 . S
N1166 H1173 0.984 . S
N1167 C1160 1.356 . S
N1167 H1170 0.984 . S
N1167 H1171 0.985 . S
H1168 N1163 0.984 . S
H1169 N1163 0.985 . S
H1170 N1167 0.984 . S
H1171 N1167 0.985 . S
H1172 N1166 0.984 . S
H1173 N1166 0.984 . S
H1174 N1162 0.984 . S
H1175 N1162 0.985 . S
C1176 C1177 1.363 . S
C1176 C1182 1.379 . S
C1176 N1184 1.356 . S
C1177 C1176 1.363 . S
C1177 C1183 1.363 . S
C1178 C1179 1.363 . S
C1178 C1183 1.379 . S
C1178 N1185 1.356 . S
C1179 C1178 1.363 . S
C1179 C1182 1.363 . S
N1180 C1182 1.356 . S
N1180 H1192 0.984 . S
N1180 H1193 0.985 . S
N1181 C1183 1.356 . S
N1181 H1186 0.984 . S
N1181 H1187 0.985 . S
C1182 C1176 1.379 . S
C1182 C1179 1.363 . S
C1182 N1180 1.356 . S
C1183 C1177 1.363 . S
C1183 C1178 1.379 . S
C1183 N1181 1.356 . S
N1184 C1176 1.356 . S
N1184 H1190 0.984 . S
N1184 H1191 0.984 . S
N1185 C1178 1.356 . S
N1185 H1188 0.984 . S
N1185 H1189 0.985 . S
H1186 N1181 0.984 . S
H1187 N1181 0.985 . S
H1188 N1185 0.984 . S
H1189 N1185 0.985 . S
H1190 N1184 0.984 . S
H1191 N1184 0.984 . S
H1192 N1180 0.984 . S
H1193 N1180 0.985 . S
C1194 C1195 1.363 . S
C1194 C1200 1.379 . S
C1194 N1202 1.356 . S
C1195 C1194 1.363 . S
C1195 C1201 1.363 . S
C1196 C1197 1.363 . S
C1196 C1201 1.379 . S
C1196 N1203 1.356 . S
C1197 C1196 1.363 . S
C1197 C1200 1.363 . S
N1198 C1200 1.356 . S
N1198 H1210 0.984 . S
N1198 H1211 0.985 . S
N1199 C1201 1.356 . S
N1199 H1204 0.984 . S
N1199 H1205 0.985 . S
C1200 C1194 1.379 . S
C1200 C1197 1.363 . S
C1200 N1198 1.356 . S
C1201 C1195 1.363 . S
C1201 C1196 1.379 . S
C1201 N1199 1.356 . S
N1202 C1194 1.356 . S
N1202 H1208 0.984 . S
N1202 H1209 0.984 . S
N1203 C1196 1.356 . S
N1203 H1206 0.984 . S
N1203 H1207 0.985 . S
H1204 N1199 0.984 . S
H1205 N1199 0.985 . S
H1206 N1203 0.984 . S
H1207 N1203 0.985 . S
H1208 N1202 0.984 . S
H1209 N1202 0.984 . S
H1210 N1198 0.984 . S
H1211 N1198 0.985 . S
C1212 C1213 1.363 . S
C1212 C1218 1.379 . S
C1212 N1220 1.356 . S
C1213 C1212 1.363 . S
C1213 C1219 1.363 . S
C1214 C1215 1.363 . S
C1214 C1219 1.379 . S
C1214 N1221 1.356 . S
C1215 C1214 1.363 . S
C1215 C1218 1.363 . S
N1216 C1218 1.356 . S
N1216 H1228 0.984 . S
N1216 H1229 0.985 . S
N1217 C1219 1.356 . S
N1217 H1222 0.984 . S
N1217 H1223 0.985 . S
C1218 C1212 1.379 . S
C1218 C1215 1.363 . S
C1218 N1216 1.356 . S
C1219 C1213 1.363 . S
C1219 C1214 1.379 . S
C1219 N1217 1.356 . S
N1220 C1212 1.356 . S
N1220 H1226 0.984 . S
N1220 H1227 0.984 . S
N1221 C1214 1.356 . S
N1221 H1224 0.984 . S
N1221 H1225 0.985 . S
H1222 N1217 0.984 . S
H1223 N1217 0.985 . S
H1224 N1221 0.984 . S
H1225 N1221 0.985 . S
H1226 N1220 0.984 . S
H1227 N1220 0.984 . S
H1228 N1216 0.984 . S
H1229 N1216 0.985 . S
C1230 C1231 1.363 . S
C1230 C1236 1.379 . S
C1230 N1238 1.356 . S
C1231 C1230 1.363 . S
C1231 C1237 1.363 . S
C1232 C1233 1.363 . S
C1232 C1237 1.379 . S
C1232 N1239 1.356 . S
C1233 C1232 1.363 . S
C1233 C1236 1.363 . S
N1234 C1236 1.356 . S
N1234 H1246 0.984 . S
N1234 H1247 0.985 . S
N1235 C1237 1.356 . S
N1235 H1240 0.984 . S
N1235 H1241 0.985 . S
C1236 C1230 1.379 . S
C1236 C1233 1.363 . S
C1236 N1234 1.356 . S
C1237 C1231 1.363 . S
C1237 C1232 1.379 . S
C1237 N1235 1.356 . S
N1238 C1230 1.356 . S
N1238 H1244 0.984 . S
N1238 H1245 0.984 . S
N1239 C1232 1.356 . S
N1239 H1242 0.984 . S
N1239 H1243 0.985 . S
H1240 N1235 0.984 . S
H1241 N1235 0.985 . S
H1242 N1239 0.984 . S
H1243 N1239 0.985 . S
H1244 N1238 0.984 . S
H1245 N1238 0.984 . S
H1246 N1234 0.984 . S
H1247 N1234 0.985 . S
C529 C513 1.485 . S
C531 N13 1.459 . S
C547 N46 1.459 . S
C549 C150 1.485 . S
C565 N79 1.459 . S
C567 C447 1.485 1_455 S
C583 N112 1.459 . S
C585 C216 1.485 . S
C601 N145 1.459 . S
C603 C381 1.485 . S
C619 C18 1.485 . S
C621 N178 1.459 . S
C637 C315 1.485 1_655 S
C639 N211 1.459 . S
C655 N244 1.459 . S
C657 C84 1.485 . S
C673 N277 1.459 . S
C675 C249 1.485 1_655 S
C691 N310 1.459 . S
C693 C414 1.485 . S
C709 C183 1.485 . S
C711 N343 1.459 . S
C727 N376 1.459 . S
C729 C480 1.485 . S
C745 N409 1.459 . S
C747 C117 1.485 1_455 S
C763 N442 1.459 . S
C765 C282 1.485 . S
C781 C51 1.485 . S
C783 N475 1.459 . S
C799 N508 1.459 . S
C801 C348 1.485 . S
C817 N2 1.586 . S
C819 N398 1.586 . S
C835 N167 1.586 . S
C837 N35 1.586 . S
C853 N68 1.586 . S
C855 N464 1.586 . S
C871 N101 1.586 . S
C873 N233 1.586 . S
C889 N266 1.586 . S
C891 N134 1.586 . S
C907 N332 1.586 . S
C909 N200 1.586 . S
C925 N431 1.586 . S
C927 N299 1.586 . S
C943 N365 1.586 . S
C945 N497 1.586 . S
C961 C304 1.390 . S
C963 C21 1.418 . S
C979 C54 1.418 . S
C981 C337 1.390 . S
C997 C87 1.418 . S
C999 C370 1.390 . S
C1015 C271 1.391 . S
C1017 C120 1.418 . S
C1033 C153 1.418 . S
C1035 C436 1.390 . S
C1051 C186 1.418 . S
C1053 C469 1.390 . S
C1069 C219 1.418 . S
C1071 C502 1.390 . S
C1087 C252 1.418 . S
C1089 C403 1.391 . S
C1105 C40 1.390 . S
C1107 C285 1.418 . S
C1123 C318 1.418 . S
C1125 C73 1.391 . S
C1141 C351 1.418 . S
C1143 C106 1.390 . S
C1159 C384 1.418 . S
C1161 C7 1.390 . S
C1177 C417 1.418 . S
C1179 C172 1.390 . S
C1195 C205 1.391 . S
C1197 C450 1.418 . S
C1213 C238 1.390 . S
C1215 C483 1.418 . S
C1231 C516 1.418 . S
C1233 C139 1.390 . S
