# Generated by pormake.
# Topology twf-e, (6)-cn, num edge types: 1
# Building blocks:
#     Node 0, Type 0, BuildingBlock: FUNLAD_clean_sbu_0, # of connection points: 6
#     Node 1, Type 0, BuildingBlock: FUNLAD_clean_sbu_0, # of connection points: 6
#     Node 2, Type 0, BuildingBlock: FUNLAD_clean_sbu_0, # of connection points: 6
#     Node 3, Type 0, BuildingBlock: FUNLAD_clean_sbu_0, # of connection points: 6
#     Node 4, Type 0, BuildingBlock: FUNLAD_clean_sbu_0, # of connection points: 6
#     Node 5, Type 0, BuildingBlock: FUNLAD_clean_sbu_0, # of connection points: 6
#     Node 6, Type 0, BuildingBlock: FUNLAD_clean_sbu_0, # of connection points: 6
#     Node 7, Type 0, BuildingBlock: FUNLAD_clean_sbu_0, # of connection points: 6
#     Node 8, Type 0, BuildingBlock: FUNLAD_clean_sbu_0, # of connection points: 6
#     Node 9, Type 0, BuildingBlock: FUNLAD_clean_sbu_0, # of connection points: 6
#     Node 10, Type 0, BuildingBlock: FUNLAD_clean_sbu_0, # of connection points: 6
#     Node 11, Type 0, BuildingBlock: FUNLAD_clean_sbu_0, # of connection points: 6
#     Node 12, Type 0, BuildingBlock: FUNLAD_clean_sbu_0, # of connection points: 6
#     Node 13, Type 0, BuildingBlock: FUNLAD_clean_sbu_0, # of connection points: 6
#     Node 14, Type 0, BuildingBlock: FUNLAD_clean_sbu_0, # of connection points: 6
#     Node 15, Type 0, BuildingBlock: FUNLAD_clean_sbu_0, # of connection points: 6
#     Node 16, Type 0, BuildingBlock: FUNLAD_clean_sbu_0, # of connection points: 6
#     Node 17, Type 0, BuildingBlock: FUNLAD_clean_sbu_0, # of connection points: 6
#     Node 18, Type 0, BuildingBlock: FUNLAD_clean_sbu_0, # of connection points: 6
#     Node 19, Type 0, BuildingBlock: FUNLAD_clean_sbu_0, # of connection points: 6
#     Node 20, Type 0, BuildingBlock: FUNLAD_clean_sbu_0, # of connection points: 6
#     Node 21, Type 0, BuildingBlock: FUNLAD_clean_sbu_0, # of connection points: 6
#     Node 22, Type 0, BuildingBlock: FUNLAD_clean_sbu_0, # of connection points: 6
#     Node 23, Type 0, BuildingBlock: FUNLAD_clean_sbu_0, # of connection points: 6
#     Node 24, Type 0, BuildingBlock: FUNLAD_clean_sbu_0, # of connection points: 6
#     Node 25, Type 0, BuildingBlock: FUNLAD_clean_sbu_0, # of connection points: 6
#     Node 26, Type 0, BuildingBlock: FUNLAD_clean_sbu_0, # of connection points: 6
#     Node 27, Type 0, BuildingBlock: FUNLAD_clean_sbu_0, # of connection points: 6
#     Node 28, Type 0, BuildingBlock: FUNLAD_clean_sbu_0, # of connection points: 6
#     Node 29, Type 0, BuildingBlock: FUNLAD_clean_sbu_0, # of connection points: 6
#     Node 30, Type 0, BuildingBlock: FUNLAD_clean_sbu_0, # of connection points: 6
#     Node 31, Type 0, BuildingBlock: FUNLAD_clean_sbu_0, # of connection points: 6
#     Node 32, Type 0, BuildingBlock: FUNLAD_clean_sbu_0, # of connection points: 6
#     Node 33, Type 0, BuildingBlock: FUNLAD_clean_sbu_0, # of connection points: 6
#     Node 34, Type 0, BuildingBlock: FUNLAD_clean_sbu_0, # of connection points: 6
#     Node 35, Type 0, BuildingBlock: FUNLAD_clean_sbu_0, # of connection points: 6
#     Node 36, Type 0, BuildingBlock: FUNLAD_clean_sbu_0, # of connection points: 6
#     Node 37, Type 0, BuildingBlock: FUNLAD_clean_sbu_0, # of connection points: 6
#     Node 38, Type 0, BuildingBlock: FUNLAD_clean_sbu_0, # of connection points: 6
#     Node 39, Type 0, BuildingBlock: FUNLAD_clean_sbu_0, # of connection points: 6
#     Node 40, Type 0, BuildingBlock: FUNLAD_clean_sbu_0, # of connection points: 6
#     Node 41, Type 0, BuildingBlock: FUNLAD_clean_sbu_0, # of connection points: 6
#     Node 42, Type 0, BuildingBlock: FUNLAD_clean_sbu_0, # of connection points: 6
#     Node 43, Type 0, BuildingBlock: FUNLAD_clean_sbu_0, # of connection points: 6
#     Node 44, Type 0, BuildingBlock: FUNLAD_clean_sbu_0, # of connection points: 6
#     Node 45, Type 0, BuildingBlock: FUNLAD_clean_sbu_0, # of connection points: 6
#     Node 46, Type 0, BuildingBlock: FUNLAD_clean_sbu_0, # of connection points: 6
#     Node 47, Type 0, BuildingBlock: FUNLAD_clean_sbu_0, # of connection points: 6
#     Edge 48, Type (0, 0), None
#     Edge 49, Type (0, 0), None
#     Edge 50, Type (0, 0), None
#     Edge 51, Type (0, 0), None
#     Edge 52, Type (0, 0), None
#     Edge 53, Type (0, 0), None
#     Edge 54, Type (0, 0), None
#     Edge 55, Type (0, 0), None
#     Edge 56, Type (0, 0), None
#     Edge 57, Type (0, 0), None
#     Edge 58, Type (0, 0), None
#     Edge 59, Type (0, 0), None
#     Edge 60, Type (0, 0), None
#     Edge 61, Type (0, 0), None
#     Edge 62, Type (0, 0), None
#     Edge 63, Type (0, 0), None
#     Edge 64, Type (0, 0), None
#     Edge 65, Type (0, 0), None
#     Edge 66, Type (0, 0), None
#     Edge 67, Type (0, 0), None
#     Edge 68, Type (0, 0), None
#     Edge 69, Type (0, 0), None
#     Edge 70, Type (0, 0), None
#     Edge 71, Type (0, 0), None
#     Edge 72, Type (0, 0), None
#     Edge 73, Type (0, 0), None
#     Edge 74, Type (0, 0), None
#     Edge 75, Type (0, 0), None
#     Edge 76, Type (0, 0), None
#     Edge 77, Type (0, 0), None
#     Edge 78, Type (0, 0), None
#     Edge 79, Type (0, 0), None
#     Edge 80, Type (0, 0), None
#     Edge 81, Type (0, 0), None
#     Edge 82, Type (0, 0), None
#     Edge 83, Type (0, 0), None
#     Edge 84, Type (0, 0), None
#     Edge 85, Type (0, 0), None
#     Edge 86, Type (0, 0), None
#     Edge 87, Type (0, 0), None
#     Edge 88, Type (0, 0), None
#     Edge 89, Type (0, 0), None
#     Edge 90, Type (0, 0), None
#     Edge 91, Type (0, 0), None
#     Edge 92, Type (0, 0), None
#     Edge 93, Type (0, 0), None
#     Edge 94, Type (0, 0), None
#     Edge 95, Type (0, 0), None
#     Edge 96, Type (0, 0), None
#     Edge 97, Type (0, 0), None
#     Edge 98, Type (0, 0), None
#     Edge 99, Type (0, 0), None
#     Edge 100, Type (0, 0), None
#     Edge 101, Type (0, 0), None
#     Edge 102, Type (0, 0), None
#     Edge 103, Type (0, 0), None
#     Edge 104, Type (0, 0), None
#     Edge 105, Type (0, 0), None
#     Edge 106, Type (0, 0), None
#     Edge 107, Type (0, 0), None
#     Edge 108, Type (0, 0), None
#     Edge 109, Type (0, 0), None
#     Edge 110, Type (0, 0), None
#     Edge 111, Type (0, 0), None
#     Edge 112, Type (0, 0), None
#     Edge 113, Type (0, 0), None
#     Edge 114, Type (0, 0), None
#     Edge 115, Type (0, 0), None
#     Edge 116, Type (0, 0), None
#     Edge 117, Type (0, 0), None
#     Edge 118, Type (0, 0), None
#     Edge 119, Type (0, 0), None
#     Edge 120, Type (0, 0), None
#     Edge 121, Type (0, 0), None
#     Edge 122, Type (0, 0), None
#     Edge 123, Type (0, 0), None
#     Edge 124, Type (0, 0), None
#     Edge 125, Type (0, 0), None
#     Edge 126, Type (0, 0), None
#     Edge 127, Type (0, 0), None
#     Edge 128, Type (0, 0), None
#     Edge 129, Type (0, 0), None
#     Edge 130, Type (0, 0), None
#     Edge 131, Type (0, 0), None
#     Edge 132, Type (0, 0), None
#     Edge 133, Type (0, 0), None
#     Edge 134, Type (0, 0), None
#     Edge 135, Type (0, 0), None
#     Edge 136, Type (0, 0), None
#     Edge 137, Type (0, 0), None
#     Edge 138, Type (0, 0), None
#     Edge 139, Type (0, 0), None
#     Edge 140, Type (0, 0), None
#     Edge 141, Type (0, 0), None
#     Edge 142, Type (0, 0), None
#     Edge 143, Type (0, 0), None
#     Edge 144, Type (0, 0), None
#     Edge 145, Type (0, 0), None
#     Edge 146, Type (0, 0), None
#     Edge 147, Type (0, 0), None
#     Edge 148, Type (0, 0), None
#     Edge 149, Type (0, 0), None
#     Edge 150, Type (0, 0), None
#     Edge 151, Type (0, 0), None
#     Edge 152, Type (0, 0), None
#     Edge 153, Type (0, 0), None
#     Edge 154, Type (0, 0), None
#     Edge 155, Type (0, 0), None
#     Edge 156, Type (0, 0), None
#     Edge 157, Type (0, 0), None
#     Edge 158, Type (0, 0), None
#     Edge 159, Type (0, 0), None
#     Edge 160, Type (0, 0), None
#     Edge 161, Type (0, 0), None
#     Edge 162, Type (0, 0), None
#     Edge 163, Type (0, 0), None
#     Edge 164, Type (0, 0), None
#     Edge 165, Type (0, 0), None
#     Edge 166, Type (0, 0), None
#     Edge 167, Type (0, 0), None
#     Edge 168, Type (0, 0), None
#     Edge 169, Type (0, 0), None
#     Edge 170, Type (0, 0), None
#     Edge 171, Type (0, 0), None
#     Edge 172, Type (0, 0), None
#     Edge 173, Type (0, 0), None
#     Edge 174, Type (0, 0), None
#     Edge 175, Type (0, 0), None
#     Edge 176, Type (0, 0), None
#     Edge 177, Type (0, 0), None
#     Edge 178, Type (0, 0), None
#     Edge 179, Type (0, 0), None
#     Edge 180, Type (0, 0), None
#     Edge 181, Type (0, 0), None
#     Edge 182, Type (0, 0), None
#     Edge 183, Type (0, 0), None
#     Edge 184, Type (0, 0), None
#     Edge 185, Type (0, 0), None
#     Edge 186, Type (0, 0), None
#     Edge 187, Type (0, 0), None
#     Edge 188, Type (0, 0), None
#     Edge 189, Type (0, 0), None
#     Edge 190, Type (0, 0), None
#     Edge 191, Type (0, 0), None
# Relax obj value: 2.009
# Max RMSD: 0.181
# Mean RMSD: 0.160
data_MOF--net-twf-e--node1-FUNLAD_clean_sbu_0--edge1-none
_symmetry_space_group_name_H-M    P1
_symmetry_Int_Tables_number       1
_symmetry_cell_setting            triclinic
loop_
_symmetry_equiv_pos_as_xyz
'x, y, z'
_cell_length_a     31.716114
_cell_length_b     32.989078
_cell_length_c     33.542211
_cell_angle_alpha  87.036681
_cell_angle_beta   84.424295
_cell_angle_gamma 91.351691
loop_
_atom_site_label
_atom_site_type_symbol
_atom_site_fract_x
_atom_site_fract_y
_atom_site_fract_z
_atom_type_partial_charge
C0 C 0.16281 0.19318 0.46761 0.0
N1 N 0.10582 0.28396 0.4119 0.0
C2 C 0.13504 0.30048 0.38291 0.0
C3 C 0.12219 0.31115 0.34497 0.0
C4 C 0.08012 0.30192 0.33752 0.0
C5 C 1.05309 0.28059 0.36638 0.0
C6 C 0.06541 0.27521 0.404 0.0
Zn7 Zn 0.10902 0.262 0.46814 0.0
C8 C 1.03239 0.18406 0.4752 0.0
N9 N 0.1286 0.20409 0.54254 0.0
C10 C 0.16868 0.22111 0.54567 0.0
C11 C 0.11769 0.16623 0.55946 0.0
C12 C 0.14648 0.14643 0.5805 0.0
C13 C 0.1782 0.17089 0.59457 0.0
C14 C 0.19776 0.19824 0.56475 0.0
Zn15 Zn 0.07871 0.23857 0.52684 0.0
O16 O 0.16989 0.2263 0.44719 0.0
C17 C 0.14203 0.32222 0.53364 0.0
O18 O 0.13008 0.19443 0.49249 0.0
H19 H 0.08912 0.15159 0.55202 0.0
H20 H 0.16714 0.3068 0.3896 0.0
H21 H 0.17846 0.24998 0.53076 0.0
O22 O 0.15033 0.31795 0.49511 0.0
O23 O 0.11651 0.29431 0.5508 0.0
H24 H 1.04109 0.2654 0.42718 0.0
O25 O 1.02382 0.27375 0.53592 0.0
O26 O 0.05557 0.30272 0.48204 0.0
O27 O 1.03618 0.19072 0.51151 0.0
O28 O 0.05991 0.20411 0.44997 0.0
C29 C 1.02428 0.30134 0.50851 0.0
H30 H 0.14359 0.32845 0.32294 0.0
H31 H 1.02035 0.27377 0.36166 0.0
H32 H 0.13531 0.11928 0.59625 0.0
H33 H 0.22875 0.21172 0.56748 0.0
C34 C 0.85843 0.1454 0.50555 0.0
N35 N 0.91721 0.09756 0.56877 0.0
C36 C 0.91143 0.13757 0.5749 0.0
C37 C 0.94505 0.16513 0.56646 0.0
C38 C 0.98618 0.14909 0.56743 0.0
C39 C 0.99113 0.10899 0.55609 0.0
C40 C 0.95524 0.08364 0.55858 0.0
Zn41 Zn 0.9238 0.08141 0.5088 0.0
C42 C 0.85517 1.02756 0.50033 0.0
N43 N 0.91726 0.10124 0.3947 0.0
C44 C 0.92647 0.13613 0.372 0.0
C45 C 0.9065 1.0662 0.3786 0.0
C46 C 0.89893 1.06643 0.33883 0.0
C47 C 0.90106 0.10364 0.31599 0.0
C48 C 0.91982 0.13766 0.33163 0.0
Zn49 Zn 0.92806 0.09536 0.45065 0.0
O50 O 0.86559 0.11101 0.52015 0.0
C51 C 0.99518 0.15385 0.46592 0.0
O52 O 0.88249 0.15507 0.47264 0.0
H53 H 0.90213 1.03837 0.39719 0.0
H54 H 0.88043 0.14806 0.58505 0.0
H55 H 0.93757 0.16296 0.38548 0.0
O56 O 0.96629 0.14233 0.49347 0.0
O57 O 0.99114 0.13648 0.43373 0.0
H58 H 0.95529 1.05266 0.5538 0.0
O59 O 0.97224 1.03712 0.43372 0.0
O60 O 0.98582 1.04078 0.49489 0.0
O61 O 0.86319 1.05241 0.46888 0.0
O62 O 0.88385 1.02681 0.5243 0.0
C63 C 0.99472 1.02405 0.46143 0.0
H64 H 0.9392 0.19693 0.57065 0.0
H65 H 1.02241 0.09792 0.54779 0.0
H66 H 0.88624 1.03863 0.32839 0.0
H67 H 0.92441 0.16638 0.31441 0.0
C68 C 1.03021 0.99023 0.4589 0.0
N69 N 0.1186 0.90336 0.41554 0.0
C70 C 0.11387 0.92541 0.38098 0.0
C71 C 0.12182 0.90773 0.34454 0.0
C72 C 0.13568 0.86789 0.34483 0.0
C73 C 0.14618 0.84842 0.38067 0.0
C74 C 0.13634 0.86657 0.41617 0.0
Zn75 Zn 0.09637 0.92356 0.46595 0.0
C76 C 0.1593 1.00161 0.47618 0.0
N77 N 1.0408 0.96924 0.54905 0.0
C78 C 0.99916 0.95622 0.54665 0.0
C79 C 1.04844 1.00697 0.5607 0.0
C80 C 1.01586 1.02526 0.58216 0.0
C81 C 0.98087 0.99983 0.59714 0.0
C82 C 0.96666 0.97754 0.56635 0.0
Zn83 Zn 0.08908 0.94215 0.52172 0.0
O84 O 1.04004 0.96331 0.43359 0.0
C85 C 1.0364 0.85508 0.51617 0.0
O86 O 1.0496 0.98476 0.48917 0.0
H87 H 0.07856 1.02207 0.55201 0.0
H88 H 0.10114 0.95546 0.38186 0.0
H89 H 0.99135 0.93152 0.52856 0.0
O90 O 1.05171 0.86264 0.47953 0.0
O91 O 1.04429 0.88384 0.53868 0.0
H92 H 0.1396 0.84993 0.44419 0.0
O93 O 0.12608 0.9112 0.5629 0.0
O94 O 0.14631 0.886 0.50525 0.0
O95 O 0.13811 0.99455 0.51046 0.0
O96 O 0.14795 0.97859 0.44922 0.0
C97 C 0.14968 0.88664 0.54374 0.0
H98 H 0.1135 0.92322 0.31725 0.0
H99 H 0.1564 0.8173 0.3821 0.0
H100 H 1.02467 1.05104 0.59661 0.0
H101 H 0.93415 0.96643 0.56733 0.0
C102 C 0.19839 1.0333 0.47103 0.0
N103 N 0.29448 0.10375 0.40962 0.0
C104 C 0.29465 1.06978 0.38845 0.0
C105 C 0.31467 0.07076 0.34992 0.0
C106 C 0.33504 0.10693 0.33417 0.0
C107 C 0.33007 0.14266 0.35498 0.0
C108 C 0.30978 0.14021 0.39346 0.0
Zn109 Zn 0.26814 0.09859 0.4641 0.0
C110 C 0.19605 0.15957 0.47425 0.0
N111 N 0.24543 1.06414 0.57858 0.0
C112 C 0.24905 1.02287 0.5799 0.0
C113 C 0.21018 0.08162 0.56953 0.0
C114 C 0.17512 1.05814 0.5625 0.0
C115 C 0.17562 1.0164 0.57309 0.0
C116 C 0.21568 0.99833 0.57063 0.0
Zn117 Zn 0.25178 0.09641 0.52235 0.0
O118 O 0.21034 1.05815 0.44148 0.0
C119 C 0.3185 1.03974 0.51204 0.0
O120 O 0.21927 1.03878 0.50046 0.0
H121 H 0.21135 0.1133 0.56856 0.0
H122 H 0.28117 1.04147 0.40227 0.0
H123 H 0.27747 1.0092 0.5889 0.0
O124 O 0.30805 1.03882 0.47634 0.0
O125 O 0.30401 1.06818 0.53158 0.0
H126 H 0.30789 0.16675 0.41112 0.0
O127 O 0.28441 0.14866 0.54863 0.0
O128 O 0.3252 0.14156 0.49407 0.0
O129 O 0.1931 0.13586 0.5063 0.0
O130 O 0.22935 0.15528 0.45038 0.0
C131 C 0.32027 0.15768 0.52927 0.0
H132 H 0.31807 1.04269 0.33466 0.0
H133 H 0.34534 0.17115 0.34329 0.0
H134 H 0.14645 0.07181 0.55402 0.0
H135 H 0.2185 0.96568 0.57379 0.0
C136 C 0.11547 0.99012 0.73498 0.0
N137 N 0.05547 0.8939 0.8052 0.0
C138 C 0.09671 0.88947 0.81223 0.0
C139 C 0.1098 0.89409 0.84955 0.0
C140 C 0.08025 0.90176 0.8818 0.0
C141 C 1.03806 0.90907 0.8736 0.0
C142 C 1.02624 0.90471 0.83484 0.0
Zn143 Zn 1.05269 0.91051 0.74723 0.0
C144 C 0.98352 0.96708 0.73334 0.0
N145 N 1.0518 0.91652 0.62896 0.0
C146 C 0.06117 0.95276 0.64153 0.0
C147 C 1.01125 0.90525 0.62311 0.0
C148 C 0.97859 0.93158 0.63164 0.0
C149 C 0.9911 0.97302 0.63172 0.0
C150 C 1.0307 0.98159 0.64598 0.0
Zn151 Zn 0.06504 0.92078 0.68924 0.0
O152 O 0.10648 0.96029 0.76068 0.0
C153 C 0.13227 0.87254 0.70149 0.0
O154 O 0.0959 0.98721 0.70327 0.0
H155 H 1.00468 0.87643 0.61072 0.0
H156 H 0.12141 0.88624 0.78856 0.0
H157 H 0.09299 0.95916 0.64394 0.0
O158 O 0.10266 0.86631 0.72985 0.0
O159 O 0.12817 0.90191 0.67663 0.0
H160 H 0.99444 0.91163 0.82817 0.0
O161 O 1.04772 0.85778 0.67311 0.0
O162 O 1.00095 0.85399 0.72281 0.0
O163 O 0.99461 0.94298 0.70602 0.0
O164 O 1.00306 0.9608 0.76414 0.0
C165 C 1.01505 0.83871 0.68853 0.0
H166 H 0.14296 0.88933 0.85282 0.0
H167 H 1.01413 0.91636 0.89719 0.0
H168 H 0.94698 0.9225 0.62529 0.0
H169 H 1.03959 1.01167 0.65379 0.0
C170 C 0.16016 0.15436 0.72883 0.0
N171 N 0.24738 0.07975 0.79265 0.0
C172 C 0.25423 0.11582 0.80873 0.0
C173 C 0.26164 0.11682 0.84868 0.0
C174 C 0.26152 0.08009 0.87229 0.0
C175 C 0.24627 1.04465 0.85633 0.0
C176 C 0.24226 1.04458 0.81562 0.0
Zn177 Zn 0.23306 0.08137 0.73696 0.0
C178 C 0.15055 1.02543 0.73849 0.0
N179 N 0.1723 1.05072 0.66165 0.0
C180 C 0.13555 1.06052 0.64505 0.0
C181 C 0.18723 1.0115 0.65905 0.0
C182 C 0.16592 0.98392 0.63811 0.0
C183 C 0.14486 1.00264 0.60754 0.0
C184 C 0.11755 1.03301 0.62193 0.0
Zn185 Zn 0.21509 0.09587 0.6779 0.0
O186 O 0.17954 0.1347 0.7559 0.0
C187 C 0.29701 0.14861 0.68206 0.0
O188 O 0.16937 0.14221 0.69386 0.0
H189 H 0.21315 1.00147 0.67528 0.0
H190 H 0.25526 0.14368 0.79015 0.0
H191 H 0.12013 0.08822 0.65228 0.0
O192 O 0.28933 0.1302 0.71703 0.0
O193 O 0.26848 0.14279 0.65836 0.0
H194 H 0.23586 1.0162 0.8025 0.0
O195 O 0.26743 1.05225 0.65678 0.0
O196 O 0.28765 1.03674 0.71516 0.0
O197 O 0.15609 1.05387 0.71155 0.0
O198 O 0.18233 1.02417 0.75866 0.0
C199 C 0.29427 1.03396 0.67677 0.0
H200 H 0.27115 0.14576 0.8591 0.0
H201 H 0.24189 1.01611 0.87377 0.0
H202 H 0.17847 0.95386 0.6353 0.0
H203 H 0.09339 1.04566 0.60573 0.0
C204 C 1.00011 0.17734 0.72475 0.0
N205 N 1.04037 0.26675 0.78995 0.0
C206 C 1.00483 0.28662 0.8015 0.0
C207 C 0.99866 0.29887 0.84048 0.0
C208 C 1.02998 0.29046 0.86675 0.0
C209 C 0.06006 0.26167 0.85652 0.0
C210 C 0.06676 0.25258 0.81678 0.0
Zn211 Zn 1.05372 0.25364 0.73407 0.0
C212 C 0.13012 0.1928 0.73353 0.0
N213 N 0.10925 0.25013 0.62413 0.0
C214 C 0.09319 0.21322 0.63547 0.0
C215 C 0.15136 0.25996 0.62482 0.0
C216 C 0.17894 0.23016 0.63534 0.0
C217 C 0.16347 0.19031 0.63215 0.0
C218 C 0.11991 0.18293 0.6448 0.0
Zn219 Zn 0.07346 0.24849 0.67777 0.0
O220 O 0.99569 0.20876 0.74506 0.0
C221 C 1.00591 0.30555 0.66238 0.0
O222 O 1.03141 0.18158 0.69617 0.0
H223 H 0.16353 0.29027 0.61585 0.0
H224 H 0.98325 0.29551 0.77978 0.0
H225 H 0.06069 0.20749 0.63389 0.0
O226 O 1.01269 0.30796 0.70018 0.0
O227 O 1.02187 0.27484 0.64607 0.0
H228 H 0.09505 0.237 0.80734 0.0
O229 O 0.10255 0.3088 0.666 0.0
O230 O 0.11302 0.30489 0.72773 0.0
O231 O 0.13352 0.22159 0.70663 0.0
O232 O 0.09488 0.19438 0.75526 0.0
C233 C 0.12196 0.32342 0.69287 0.0
H234 H 0.97341 0.31964 0.84737 0.0
H235 H 0.08337 0.25283 0.87667 0.0
H236 H 0.21264 0.2374 0.63227 0.0
H237 H 0.10644 0.15283 0.65158 0.0
C238 C 0.83699 1.02328 0.6624 0.0
N239 N 0.96865 0.11649 0.65283 0.0
C240 C 1.00902 0.10505 0.6413 0.0
C241 C 1.03516 0.13168 0.61656 0.0
C242 C 1.01372 0.16357 0.59799 0.0
C243 C 0.98864 0.18391 0.62661 0.0
C244 C 0.95963 0.1576 0.64921 0.0
Zn245 Zn 0.92068 0.07371 0.67537 0.0
C246 C 0.84743 0.13823 0.67802 0.0
N247 N 0.85637 0.07736 0.78716 0.0
C248 C 0.85346 1.04214 0.81004 0.0
C249 C 0.84594 0.11338 0.80326 0.0
C250 C 0.82772 0.11436 0.84275 0.0
C251 C 0.82095 0.07794 0.86589 0.0
C252 C 0.83659 1.04189 0.84993 0.0
Zn253 Zn 0.88471 0.07966 0.73032 0.0
O254 O 0.87262 1.03524 0.64314 0.0
C255 C 0.95661 1.00569 0.72394 0.0
O256 O 0.83337 1.0328 0.70014 0.0
H257 H 0.85066 0.14148 0.78518 0.0
H258 H 1.02006 0.07647 0.65257 0.0
H259 H 0.86321 1.01409 0.79713 0.0
O260 O 0.95961 1.02153 0.68831 0.0
O261 O 0.93114 1.02407 0.74919 0.0
H262 H 0.93165 0.17005 0.66422 0.0
O263 O 0.93041 0.13631 0.75037 0.0
O264 O 0.9717 0.10999 0.70781 0.0
O265 O 0.84013 0.126 0.7144 0.0
O266 O 0.87835 0.12255 0.65818 0.0
C267 C 0.9673 0.13867 0.73102 0.0
H268 H 0.0634 0.1185 0.60364 0.0
H269 H 0.98062 0.21529 0.62128 0.0
H270 H 0.81574 0.14264 0.85369 0.0
H271 H 0.8318 1.01301 0.8669 0.0
C272 C 0.47802 1.03402 0.32743 0.0
N273 N 0.48459 0.16283 0.31568 0.0
C274 C 0.46564 0.16108 0.35405 0.0
C275 C 0.48173 0.18349 0.38335 0.0
C276 C 0.51908 0.20667 0.37411 0.0
C277 C 0.53706 0.2101 0.33391 0.0
C278 C 0.51907 0.1878 0.30489 0.0
Zn279 Zn 0.46021 0.12047 0.27986 0.0
C280 C 0.51245 0.09026 0.21867 0.0
N281 N 0.41077 1.02457 0.21639 0.0
C282 C 0.42398 0.986 0.22234 0.0
C283 C 0.39656 1.03721 0.18079 0.0
C284 C 0.40247 1.01347 0.14758 0.0
C285 C 0.42034 0.97554 0.15224 0.0
C286 C 0.42847 0.96061 0.19051 0.0
Zn287 Zn 0.43434 1.06794 0.25044 0.0
O288 O 0.47856 0.07298 0.3269 0.0
C289 C 0.3711 0.10468 0.30451 0.0
O290 O 0.45815 1.01885 0.29963 0.0
H291 H 0.38379 1.06694 0.17683 0.0
H292 H 0.43945 0.14014 0.36322 0.0
H293 H 0.43495 0.97592 0.25047 0.0
O294 O 0.402 0.12877 0.30729 0.0
O295 O 0.37574 0.07423 0.28307 0.0
H296 H 0.53406 0.18864 0.27448 0.0
O297 O 0.42501 0.11865 0.20024 0.0
O298 O 0.45234 0.16719 0.23212 0.0
O299 O 0.48514 1.06261 0.21782 0.0
O300 O 0.51228 0.11265 0.24855 0.0
C301 C 0.44021 0.15531 0.19937 0.0
H302 H 0.46691 0.17983 0.41378 0.0
H303 H 0.56646 0.22718 0.32562 0.0
H304 H 0.39437 1.02501 0.11855 0.0
H305 H 0.44161 0.93088 0.19504 0.0
C306 C 0.9922 0.47467 0.18555 0.0
N307 N 1.03293 0.38342 0.25672 0.0
C308 C 1.01245 0.37862 0.29395 0.0
C309 C 1.02601 0.34971 0.32043 0.0
C310 C 0.0596 0.32503 0.30736 0.0
C311 C 0.07406 0.32524 0.26687 0.0
C312 C 0.05864 0.35439 0.24124 0.0
Zn313 Zn 1.04946 0.44095 0.24053 0.0
C314 C 0.13419 0.44186 0.17834 0.0
N315 N 0.10697 0.51152 0.18313 0.0
C316 C 0.0857 0.51216 0.14879 0.0
C317 C 0.10835 0.54463 0.20557 0.0
C318 C 0.08031 0.57363 0.20071 0.0
C319 C 1.05244 0.571 0.17014 0.0
C320 C 0.05775 0.54221 0.14222 0.0
Zn321 Zn 0.06893 0.50534 0.23736 0.0
O322 O 0.99997 0.43947 0.19889 0.0
C323 C 1.00212 0.50935 0.30931 0.0
O324 O 1.01232 0.5036 0.19949 0.0
H325 H 0.13428 0.54962 0.22364 0.0
H326 H 0.98993 0.40032 0.30482 0.0
H327 H 0.0898 0.4884 0.12786 0.0
O328 O 1.00052 0.47128 0.29949 0.0
O329 O 1.02778 0.53112 0.28565 0.0
H330 H 0.07085 0.35602 0.21015 0.0
O331 O 0.11584 0.50211 0.27608 0.0
O332 O 0.09794 0.43726 0.28254 0.0
O333 O 0.12689 0.47428 0.19603 0.0
O334 O 0.10245 0.4168 0.18546 0.0
C335 C 0.12072 0.467 0.29159 0.0
H336 H 1.01322 0.3494 0.35162 0.0
H337 H 0.09837 0.30495 0.25585 0.0
H338 H 0.08323 0.59646 0.22151 0.0
H339 H 1.03807 0.54139 0.11818 0.0
C340 C 0.70407 1.03808 0.20243 0.0
N341 N 0.78475 0.10453 0.2779 0.0
C342 C 0.80915 0.07255 0.26815 0.0
C343 C 0.8526 0.07539 0.27008 0.0
C344 C 0.8696 0.10965 0.28668 0.0
C345 C 0.84491 0.14446 0.28954 0.0
C346 C 0.80209 0.14097 0.2853 0.0
Zn347 Zn 0.72361 0.10386 0.27213 0.0
C348 C 0.70816 0.17783 0.20941 0.0
N349 N 0.60568 0.10393 0.24536 0.0
C350 C 0.59449 1.06461 0.23981 0.0
C351 C 0.59373 0.13503 0.22127 0.0
C352 C 0.57056 0.12621 0.18953 0.0
C353 C 0.55068 0.08818 0.19315 0.0
C354 C 0.57134 1.05589 0.20934 0.0
Zn355 Zn 0.66137 0.10729 0.2602 0.0
O356 O 0.73528 1.04876 0.22199 0.0
C357 C 0.66917 1.0336 0.32327 0.0
O358 O 0.67258 1.06065 0.2095 0.0
H359 H 0.60063 0.16593 0.22796 0.0
H360 H 0.79505 1.04431 0.26047 0.0
H361 H 0.60563 1.03868 0.25562 0.0
O362 O 0.70704 1.04904 0.32232 0.0
O363 O 0.64617 1.05338 0.30139 0.0
H364 H 0.78239 0.16695 0.28955 0.0
O365 O 0.64459 0.15701 0.31057 0.0
O366 O 0.70911 0.15595 0.32478 0.0
O367 O 0.67342 0.15916 0.21876 0.0
O368 O 0.73995 0.16111 0.22375 0.0
C369 C 0.67223 0.17214 0.33219 0.0
H370 H 0.87125 1.04878 0.26464 0.0
H371 H 0.85654 0.17262 0.30017 0.0
H372 H 0.55593 0.1506 0.17381 0.0
H373 H 0.55728 1.02591 0.21323 0.0
C374 C 0.15826 0.70179 0.20839 0.0
N375 N 0.09784 0.76761 0.29332 0.0
C376 C 0.13978 0.77372 0.29708 0.0
C377 C 0.15537 0.81153 0.3044 0.0
C378 C 0.12654 0.84173 0.31315 0.0
C379 C 0.0838 0.83605 0.30614 0.0
C380 C 0.07 0.79812 0.29556 0.0
Zn381 Zn 0.08662 0.71399 0.27428 0.0
C382 C 1.00951 0.71945 0.22034 0.0
N383 N 1.03504 0.64479 0.22518 0.0
C384 C 1.05154 0.65516 0.18593 0.0
C385 C 1.00296 0.61504 0.23353 0.0
C386 C 0.98975 0.59418 0.20225 0.0
C387 C 1.01761 0.59794 0.16762 0.0
C388 C 1.03441 0.63608 0.15609 0.0
Zn389 Zn 0.07744 0.65123 0.2671 0.0
O390 O 0.14475 0.7303 0.22933 0.0
C391 C 0.14256 0.64505 0.33146 0.0
O392 O 0.13584 0.66829 0.21506 0.0
H393 H 0.99054 0.60594 0.26381 0.0
H394 H 0.16146 0.74905 0.2945 0.0
H395 H 0.0749 0.67944 0.17902 0.0
O396 O 0.13211 0.68303 0.32728 0.0
O397 O 0.12707 0.62313 0.30588 0.0
H398 H 1.0372 0.79251 0.29069 0.0
O399 O 1.03054 0.63363 0.31291 0.0
O400 O 1.02739 0.69874 0.32112 0.0
O401 O 1.01517 0.68738 0.24182 0.0
O402 O 1.0409 0.74423 0.22237 0.0
C403 C 1.01157 0.66244 0.32969 0.0
H404 H 0.1884 0.81517 0.3097 0.0
H405 H 0.06067 0.85899 0.31293 0.0
H406 H 0.96867 0.56789 0.20868 0.0
H407 H 1.04408 0.64506 0.1257 0.0
C408 C 0.4828 1.03069 0.84931 0.0
N409 N 0.55769 0.0936 0.91209 0.0
C410 C 0.56649 1.05365 0.90995 0.0
C411 C 0.57057 1.03191 0.94539 0.0
C412 C 0.58472 1.05585 0.97494 0.0
C413 C 0.5663 0.09256 0.97959 0.0
C414 C 0.56403 0.11502 0.94421 0.0
Zn415 Zn 0.49569 0.09037 0.92416 0.0
C416 C 0.48302 0.15076 0.86715 0.0
N417 N 0.37426 0.07771 0.9179 0.0
C418 C 0.35473 1.04135 0.9145 0.0
C419 C 0.35226 0.11221 0.92237 0.0
C420 C 0.3093 0.11176 0.91748 0.0
C421 C 0.2907 0.07636 0.90426 0.0
C422 C 0.31226 1.03971 0.90867 0.0
Zn423 Zn 0.43499 0.07685 0.92265 0.0
O424 O 0.5039 1.06025 0.86149 0.0
C425 C 0.45529 1.00553 0.97583 0.0
O426 O 0.44722 1.02403 0.87123 0.0
H427 H 0.36834 0.14036 0.92768 0.0
H428 H 0.56875 1.03877 0.88191 0.0
H429 H 0.3727 1.01391 0.91408 0.0
O430 O 0.48889 1.02406 0.95836 0.0
O431 O 0.42128 1.02467 0.97208 0.0
H432 H 0.55762 0.14704 0.94428 0.0
O433 O 0.42585 0.13346 0.97402 0.0
O434 O 0.48996 0.12493 0.98503 0.0
O435 O 0.45217 0.12456 0.8679 0.0
O436 O 0.50219 0.14963 0.89773 0.0
C437 C 0.45658 0.14444 0.99465 0.0
H438 H 0.57782 1.00008 0.94413 0.0
H439 H 0.56326 0.1055 1.00792 0.0
H440 H 0.29279 0.14005 0.91878 0.0
H441 H 0.29923 1.01054 0.90218 0.0
C442 C 0.14507 0.5074 0.85853 0.0
N443 N 1.0507 0.57003 0.88214 0.0
C444 C 0.08336 0.5844 0.85417 0.0
C445 C 0.12014 0.59743 0.86968 0.0
C446 C 0.11679 0.60088 0.91064 0.0
C447 C 0.076 0.61117 0.9278 0.0
C448 C 1.04195 0.59852 0.90914 0.0
Zn449 Zn 0.07352 0.52144 0.92692 0.0
C450 C 1.00561 0.51101 0.85826 0.0
N451 N 0.06264 0.40273 0.90154 0.0
C452 C 0.09474 0.37733 0.8934 0.0
C453 C 1.02164 0.38929 0.90904 0.0
C454 C 1.01107 0.34882 0.90674 0.0
C455 C 1.04235 0.32307 0.89184 0.0
C456 C 0.08528 0.33685 0.8881 0.0
Zn457 Zn 0.06998 0.45987 0.91121 0.0
O458 O 0.13664 0.52519 0.89055 0.0
C459 C 0.1384 0.46736 0.97889 0.0
O460 O 0.11932 0.47737 0.85426 0.0
H461 H 0.99661 0.41023 0.91576 0.0
H462 H 0.08055 0.58241 0.8226 0.0
H463 H 0.12716 0.38891 0.88922 0.0
O464 O 0.11519 0.49879 0.97914 0.0
O465 O 0.12924 0.44302 0.95191 0.0
H466 H 1.011 0.61082 0.91381 0.0
O467 O 1.02177 0.44548 0.96954 0.0
O468 O 1.00942 0.50907 0.96507 0.0
O469 O 1.01168 0.47317 0.86607 0.0
O470 O 1.02841 0.5335 0.87739 0.0
C471 C 0.99898 0.47428 0.98251 0.0
H472 H 0.15061 0.59913 0.85311 0.0
H473 H 0.07071 0.62961 0.95256 0.0
H474 H 0.97799 0.33914 0.91125 0.0
H475 H 0.111 0.31818 0.87707 0.0
C476 C 0.72064 1.0142 1.0054 0.0
N477 N 0.72014 0.14724 0.98561 0.0
C478 C 0.71389 0.13798 1.02588 0.0
C479 C 0.71943 0.16712 0.05341 0.0
C480 C 0.7291 0.20726 1.04001 0.0
C481 C 0.73697 0.21651 0.99849 0.0
C482 C 0.73254 0.18564 0.97153 0.0
Zn483 Zn 0.70759 0.09904 0.9502 0.0
C484 C 0.78551 0.07411 0.8975 0.0
N485 N 0.68989 0.99491 0.88365 0.0
C486 C 0.65585 0.96897 0.89292 0.0
C487 C 0.7086 0.99983 0.84532 0.0
C488 C 0.68947 0.98366 0.81404 0.0
C489 C 0.65034 0.96314 0.8222 0.0
C490 C 0.63507 0.9527 0.86214 0.0
Zn491 Zn 0.70276 1.04186 0.91902 0.0
O492 O 0.72419 1.05326 1.00366 0.0
C493 C 0.63033 1.06159 0.96847 0.0
O494 O 0.71657 0.99849 0.9717 0.0
H495 H 0.73495 1.02097 0.8377 0.0
H496 H 0.70155 0.10865 1.03748 0.0
H497 H 0.64162 0.96499 0.92349 0.0
O498 O 0.64884 0.09323 0.97884 0.0
O499 O 0.64853 1.03986 0.94276 0.0
H500 H 0.73735 0.19271 0.93953 0.0
O501 O 0.67839 0.08605 0.86599 0.0
O502 O 0.67953 0.14156 0.89765 0.0
O503 O 0.76232 1.04292 0.89632 0.0
O504 O 0.77168 0.10372 0.91771 0.0
C505 C 0.66899 0.12414 0.86614 0.0
H506 H 0.71267 0.15889 0.08514 0.0
H507 H 0.74404 0.24747 0.98704 0.0
H508 H 0.70187 0.99235 0.78344 0.0
H509 H 0.60463 0.93709 0.86933 0.0
C510 C 1.04689 0.72783 1.02983 0.0
N511 N 0.11322 0.81021 0.93691 0.0
C512 C 0.07176 0.8203 0.94323 0.0
C513 C 0.0603 0.86038 0.9414 0.0
C514 C 0.09045 0.88829 0.92266 0.0
C515 C 0.13327 0.88026 0.92794 0.0
C516 C 0.1444 0.83954 0.93318 0.0
Zn517 Zn 0.1181 0.7499 0.94556 0.0
C518 C 0.17844 0.72978 1.00767 0.0
N519 N 0.15701 0.66066 0.97676 0.0
C520 C 0.13177 0.6277 0.98993 0.0
C521 C 0.19064 0.65488 0.94769 0.0
C522 C 0.18869 0.6213 0.92427 0.0
C523 C 0.15354 0.59531 0.93422 0.0
C524 C 0.14009 0.59075 0.97436 0.0
Zn525 Zn 0.10139 0.68916 0.96309 0.0
O526 O 0.05951 0.75571 1.00229 0.0
C527 C 1.04391 0.71819 0.90706 0.0
O528 O 0.06725 0.69519 1.02582 0.0
H529 H 0.2134 0.67936 0.93849 0.0
H530 H 1.04679 0.79736 0.94749 0.0
H531 H 0.10343 0.63139 1.00967 0.0
O532 O 0.07365 0.74429 0.90124 0.0
O533 O 1.04299 0.69493 0.93808 0.0
H534 H 0.17731 0.83138 0.93217 0.0
O535 O 0.12955 0.67855 0.89812 0.0
O536 O 0.16809 0.73205 0.88429 0.0
O537 O 0.15848 0.69821 0.99934 0.0
O538 O 0.16926 0.76222 0.98885 0.0
C539 C 0.15686 0.69634 0.87257 0.0
H540 H 1.02677 0.86639 0.94368 0.0
H541 H 0.15805 0.90298 0.91894 0.0
H542 H 0.20777 0.62063 0.89584 0.0
H543 H 0.11831 0.56691 0.98465 0.0
C544 C 0.16984 0.44679 0.14182 0.0
N545 N 0.26256 0.39311 0.07479 0.0
C546 C 0.26879 0.37663 0.11139 0.0
C547 C 0.27498 0.33567 0.11634 0.0
C548 C 0.27682 0.3119 0.08259 0.0
C549 C 0.26371 0.32868 1.04661 0.0
C550 C 0.25792 0.37021 1.04297 0.0
Zn551 Zn 0.24317 0.44778 0.0762 0.0
C552 C 0.17704 0.46374 1.00736 0.0
N553 N 0.19436 0.547 0.06957 0.0
C554 C 0.1533 0.53192 0.0713 0.0
C555 C 0.20459 0.58484 0.05537 0.0
C556 C 0.17186 0.61062 0.05409 0.0
C557 C 0.13098 0.5979 0.07082 0.0
C558 C 0.12089 0.5577 0.06718 0.0
Zn559 Zn 0.23339 0.50737 0.07358 0.0
O560 O 0.19041 0.41882 0.12533 0.0
C561 C 0.29868 0.50635 0.13809 0.0
O562 O 0.18272 0.48226 0.12762 0.0
H563 H 0.23692 0.59471 1.04702 0.0
H564 H 0.26864 0.39541 0.13686 0.0
H565 H 0.14541 0.49989 0.07476 0.0
O566 O 0.29409 0.46925 0.1264 0.0
O567 O 0.27342 0.53132 0.12269 0.0
H568 H 0.25025 0.38415 1.01483 0.0
O569 O 0.28238 0.53589 1.0289 0.0
O570 O 0.30139 0.47323 1.02864 0.0
O571 O 0.19499 0.49574 1.01744 0.0
O572 O 0.19075 0.43225 1.02593 0.0
C573 C 0.30993 0.51083 1.01664 0.0
H574 H 0.28332 0.3244 0.14533 0.0
H575 H 0.26298 0.31096 1.02037 0.0
H576 H 0.1772 0.6409 1.04488 0.0
H577 H 0.0891 0.54595 0.07018 0.0
C578 C 0.21045 0.72514 1.03853 0.0
N579 N 0.29086 0.77889 0.10107 0.0
C580 C 0.29688 0.79416 0.06249 0.0
C581 C 0.27876 0.83052 1.05192 0.0
C582 C 0.26687 0.85669 0.08262 0.0
C583 C 0.25285 0.83761 0.12028 0.0
C584 C 0.2704 0.80043 0.13023 0.0
Zn585 Zn 0.26749 0.72314 0.10015 0.0
C586 C 0.19932 0.7065 0.17746 0.0
N587 N 0.193 0.6491 0.12773 0.0
C588 C 0.16048 0.67278 0.11523 0.0
C589 C 0.18541 0.61019 0.1423 0.0
C590 C 0.14718 0.59286 0.13754 0.0
C591 C 0.12203 0.61291 0.11062 0.0
C592 C 0.1223 0.65498 0.10978 0.0
Zn593 Zn 0.25294 0.66083 0.10109 0.0
O594 O 0.2247 0.75349 0.05704 0.0
C595 C 0.32221 0.66723 1.03131 0.0
O596 O 0.21956 0.69014 1.05166 0.0
H597 H 0.21118 0.59179 0.15099 0.0
H598 H 0.30892 0.77544 1.03884 0.0
H599 H 0.16581 0.70443 0.1061 0.0
O600 O 0.3211 0.70424 1.04304 0.0
O601 O 0.29622 0.6429 1.05202 0.0
H602 H 0.26601 0.78807 0.16083 0.0
O603 O 0.28738 0.63168 0.14234 0.0
O604 O 0.31252 0.69431 0.14405 0.0
O605 O 0.21484 0.6747 0.16357 0.0
O606 O 0.21285 0.73802 0.15574 0.0
C607 C 0.31327 0.65633 0.15555 0.0
H608 H 0.28294 0.84128 1.02068 0.0
H609 H 0.23911 0.85527 0.14436 0.0
H610 H 0.14918 0.56069 0.13936 0.0
H611 H 0.10168 0.67227 0.0919 0.0
C612 C 0.45794 0.17844 1.02858 0.0
N613 N 0.39097 0.26825 0.0933 0.0
C614 C 0.38144 0.27841 0.05567 0.0
C615 C 0.33982 0.28356 1.04842 0.0
C616 C 0.30823 0.27991 0.08093 0.0
C617 C 0.31816 0.26121 0.11726 0.0
C618 C 0.36049 0.25789 0.12366 0.0
Zn619 Zn 0.44958 0.25324 0.09535 0.0
C620 C 0.45283 0.18097 0.15982 0.0
N621 N 0.53897 0.17962 0.05521 0.0
C622 C 0.56352 0.18883 1.01872 0.0
C623 C 0.54926 0.14515 0.07758 0.0
C624 C 0.58971 0.12953 0.0697 0.0
C625 C 0.61857 0.15791 1.049 0.0
C626 C 0.60394 0.17231 1.01295 0.0
Zn627 Zn 0.51365 0.22988 0.09216 0.0
O628 O 0.43285 0.2075 1.03776 0.0
C629 C 0.51428 0.31295 1.03457 0.0
O630 O 0.49009 0.18066 1.04813 0.0
H631 H 0.52937 0.13411 0.10406 0.0
H632 H 0.40631 0.28294 1.03133 0.0
H633 H 0.55519 0.21344 0.99863 0.0
O634 O 0.4763 0.31057 1.05247 0.0
O635 O 0.53557 0.28052 1.03968 0.0
H636 H 0.36878 0.24779 0.15294 0.0
O637 O 0.52459 0.28141 0.14056 0.0
O638 O 0.4599 0.29799 0.15156 0.0
O639 O 0.49181 0.18589 0.14571 0.0
O640 O 0.42633 0.2021 0.14205 0.0
C641 C 0.49792 0.3027 0.16176 0.0
H642 H 0.33384 0.29582 1.01901 0.0
H643 H 0.2942 0.25574 0.1424 0.0
H644 H 0.60033 0.10647 0.0902 0.0
H645 H 0.62594 0.184 0.98808 0.0
C646 C 0.85072 0.51692 1.03352 0.0
N647 N 0.95642 0.5498 1.04704 0.0
C648 C 0.94254 0.57367 1.01607 0.0
C649 C 0.97146 0.58604 0.98432 0.0
C650 C 1.01242 0.59216 0.99589 0.0
C651 C 1.02723 0.55867 1.01683 0.0
C652 C 0.99916 0.54213 1.04794 0.0
Zn653 Zn 0.91207 0.52603 0.0915 0.0
C654 C 0.83615 0.51811 0.15382 0.0
N655 N 0.88469 0.40511 0.1018 0.0
C656 C 0.90687 0.37872 0.07838 0.0
C657 C 0.87653 0.3966 0.14203 0.0
C658 C 0.88951 0.36021 0.15903 0.0
C659 C 0.89986 0.32916 0.13297 0.0
C660 C 0.92079 0.34251 0.0956 0.0
Zn661 Zn 0.89908 0.46397 0.09047 0.0
O662 O 0.86605 0.53877 0.05859 0.0
C663 C 0.96355 0.46995 1.01907 0.0
O664 O 0.85774 0.47845 1.03621 0.0
H665 H 0.8644 0.41956 0.16151 0.0
H666 H 0.90978 0.58075 1.0146 0.0
H667 H 0.9144 0.38568 1.04666 0.0
O668 O 0.94195 0.50007 1.02871 0.0
O669 O 0.95922 0.44243 1.04668 0.0
H670 H 1.00943 0.51907 0.06841 0.0
O671 O 0.9384 0.45433 0.14258 0.0
O672 O 0.96329 0.51562 0.13199 0.0
O673 O 0.83821 0.48482 0.13483 0.0
O674 O 0.8684 0.54217 0.14564 0.0
C675 C 0.96314 0.48202 0.15239 0.0
H676 H 0.95936 0.60492 0.96093 0.0
H677 H 0.0599 0.55205 1.01544 0.0
H678 H 0.88161 0.35371 0.1909 0.0
H679 H 0.93565 0.32085 0.07588 0.0
C680 C 0.65964 0.85835 0.05974 0.0
N681 N 0.59864 0.95761 0.12978 0.0
C682 C 0.6062 0.96387 0.08455 0.0
C683 C 0.55725 1.00998 1.05134 0.0
C684 C 0.54836 1.03048 0.09565 0.0
C685 C 0.52933 1.00688 0.14922 0.0
C686 C 0.56518 0.97378 0.16103 0.0
Zn687 Zn 0.65291 0.93695 0.12823 0.0
C688 C 0.64702 0.86436 0.18162 0.0
N689 N 0.76939 0.90232 0.11446 0.0
C690 C 0.79376 0.89576 0.08025 0.0
C691 C 0.78592 0.90819 0.1496 0.0
C692 C 0.8291 0.90482 0.15181 0.0
C693 C 0.8544 0.89254 0.11814 0.0
C694 C 0.83674 0.8918 0.08109 0.0
Zn695 Zn 0.71209 0.9183 0.10922 0.0
O696 O 0.63502 0.87935 0.08346 0.0
C697 C 0.71488 0.98753 1.0463 0.0
O698 O 0.69909 0.86695 0.06225 0.0
H699 H 0.76552 0.9151 0.17594 0.0
H700 H 0.62865 0.94413 0.07012 0.0
H701 H 0.77971 0.89342 1.05233 0.0
O702 O 0.68203 0.9886 0.07181 0.0
O703 O 0.73892 0.95879 0.05411 0.0
H704 H 0.56515 0.96277 0.19195 0.0
O705 O 0.727 0.97697 0.15659 0.0
O706 O 0.66137 0.98711 0.17039 0.0
O707 O 0.68356 0.8665 0.16041 0.0
O708 O 0.62533 0.89565 0.17747 0.0
C709 C 0.69861 0.99897 0.1755 0.0
H710 H 0.52938 1.00365 1.03283 0.0
H711 H 0.50449 1.01796 0.16918 0.0
H712 H 0.84161 0.9074 0.18052 0.0
H713 H 0.85443 0.88372 0.05358 0.0
C714 C 0.84255 0.66569 0.16507 0.0
N715 N 0.95227 0.64501 0.07446 0.0
C716 C 0.98399 0.62161 0.08369 0.0
C717 C 1.02139 0.62412 0.05848 0.0
C718 C 1.0158 0.63027 1.01744 0.0
C719 C 0.98669 0.65981 1.0085 0.0
C720 C 0.95341 0.66495 1.03719 0.0
Zn721 Zn 0.92745 0.67149 0.12291 0.0
C722 C 0.85686 0.67715 0.05302 0.0
N723 N 0.90055 0.78566 0.11124 0.0
C724 C 0.88795 0.79622 0.14896 0.0
C725 C 0.91564 0.81384 0.08201 0.0
C726 C 0.91452 0.85474 0.0895 0.0
C727 C 0.89007 0.86576 0.12411 0.0
C728 C 0.88334 0.83678 0.15655 0.0
Zn729 Zn 0.91463 0.7288 0.10686 0.0
O730 O 0.87196 0.64063 0.15738 0.0
C731 C 0.97789 0.7148 0.18506 0.0
O732 O 0.85183 0.70327 0.15235 0.0
H733 H 0.9276 0.80504 1.05264 0.0
H734 H 0.97974 0.60328 0.11072 0.0
H735 H 0.88078 0.7731 0.17284 0.0
O736 O 0.96553 0.67916 0.17685 0.0
O737 O 0.96338 0.74273 0.16178 0.0
H738 H 0.93324 0.68958 1.03106 0.0
O739 O 0.97328 0.75049 0.05748 0.0
O740 O 0.99633 0.70004 0.08871 0.0
O741 O 0.86543 0.71545 0.05594 0.0
O742 O 0.87762 0.65457 0.07595 0.0
C743 C 1.00544 0.72882 0.06178 0.0
H744 H 1.04762 0.60727 0.068 0.0
H745 H 0.98269 0.67038 0.97833 0.0
H746 H 0.92389 0.87686 0.06504 0.0
H747 H 0.86828 0.84401 0.18555 0.0
C748 C 0.43174 0.95107 0.11808 0.0
N749 N 0.37811 0.87015 0.07019 0.0
C750 C 0.35825 0.86829 0.10808 0.0
C751 C 0.32091 0.88897 0.11558 0.0
C752 C 0.29603 0.89291 0.08327 0.0
C753 C 0.31907 0.90458 1.04627 0.0
C754 C 0.3597 0.88889 1.03929 0.0
Zn755 Zn 0.43965 0.88241 0.07012 0.0
C756 C 0.45803 0.96392 1.00096 0.0
N757 N 0.54486 0.93896 0.05927 0.0
C758 C 0.5365 0.96145 0.09765 0.0
C759 C 0.57727 0.94584 1.02236 0.0
C760 C 0.61062 0.98418 1.01613 0.0
C761 C 0.59051 1.02463 0.05457 0.0
C762 C 0.58283 1.02284 0.10477 0.0
Zn763 Zn 0.49454 0.91144 0.05904 0.0
O764 O 0.42244 0.91432 0.12098 0.0
C765 C 0.48546 0.83844 0.13428 0.0
O766 O 0.45835 0.96314 0.08949 0.0
H767 H 0.57776 0.92462 0.99884 0.0
H768 H 0.37433 0.85649 0.13302 0.0
H769 H 0.51667 0.94387 0.12105 0.0
O770 O 0.45324 0.82984 0.11539 0.0
O771 O 0.50569 0.87158 0.12054 0.0
H772 H 0.3768 0.89276 1.00981 0.0
O773 O 0.52501 0.86655 1.03001 0.0
O774 O 0.46172 0.84135 1.02283 0.0
O775 O 0.49351 0.94817 1.00243 0.0
O776 O 0.42828 0.94464 1.02416 0.0
C777 C 0.50225 0.83908 1.01737 0.0
H778 H 0.30684 0.88914 0.14633 0.0
H779 H 0.30287 0.91513 1.02089 0.0
H780 H 0.63503 0.98723 0.99182 0.0
H781 H 0.61022 1.02831 0.12405 0.0
C782 C 0.70567 0.21907 0.18544 0.0
N783 N 0.77971 0.31707 0.12844 0.0
C784 C 0.79329 0.30432 0.16414 0.0
C785 C 0.8353 0.29342 0.16584 0.0
C786 C 0.86355 0.30004 0.1309 0.0
C787 C 0.84547 0.3021 0.09412 0.0
C788 C 0.80561 0.31788 0.09388 0.0
Zn789 Zn 0.72137 0.30082 0.12121 0.0
C790 C 0.72267 0.23898 0.06927 0.0
N791 N 0.60393 0.25022 0.12937 0.0
C792 C 0.60661 0.21162 0.14343 0.0
C793 C 0.6008 0.25849 0.09022 0.0
C794 C 0.61852 0.23258 0.06284 0.0
C795 C 0.62609 0.19189 0.07605 0.0
C796 C 0.62347 0.183 0.11795 0.0
Zn797 Zn 0.65988 0.2767 0.13623 0.0
O798 O 0.73499 0.23935 0.16323 0.0
C799 C 0.65456 0.33752 0.18596 0.0
O800 O 0.66919 0.23299 0.18428 0.0
H801 H 0.59015 0.28767 0.08047 0.0
H802 H 0.77112 0.30089 0.19079 0.0
H803 H 0.60179 0.20536 0.17513 0.0
O804 O 0.69375 0.33881 0.17173 0.0
O805 O 0.6303 0.31037 0.1755 0.0
H806 H 0.79379 0.32652 0.06558 0.0
O807 O 0.64834 0.32551 0.08744 0.0
O808 O 0.70951 0.3558 0.07799 0.0
O809 O 0.69105 0.23625 0.09505 0.0
O810 O 0.7461 0.26986 0.06879 0.0
C811 C 0.67138 0.35359 0.06852 0.0
H812 H 0.8469 0.2875 0.19485 0.0
H813 H 0.86449 0.30126 0.06557 0.0
H814 H 0.62181 0.24313 1.03155 0.0
H815 H 0.63004 0.1531 0.13021 0.0
C816 C 0.6628 0.69319 0.96761 0.0
N817 N 0.6058 0.78397 0.91189 0.0
C818 C 0.63501 0.80049 0.8829 0.0
C819 C 0.62216 0.81118 0.84497 0.0
C820 C 0.58009 0.80195 0.83752 0.0
C821 C 0.55306 0.78062 0.86638 0.0
C822 C 0.56538 0.77522 0.904 0.0
Zn823 Zn 0.60901 0.762 0.96813 0.0
C824 C 0.53239 0.68405 0.97519 0.0
N825 N 0.62861 0.70409 1.04254 0.0
C826 C 0.66869 0.72113 1.04568 0.0
C827 C 0.61771 0.66624 0.05947 0.0
C828 C 0.64649 0.64645 0.08051 0.0
C829 C 0.67821 0.67091 0.09458 0.0
C830 C 0.69777 0.69826 0.06476 0.0
Zn831 Zn 0.57871 0.73857 1.02684 0.0
O832 O 0.66987 0.72631 0.94717 0.0
C833 C 0.64202 0.82222 1.03363 0.0
O834 O 0.63009 0.69445 0.9925 0.0
H835 H 0.58914 0.65159 1.05202 0.0
H836 H 0.66712 0.8068 0.88959 0.0
H837 H 0.67847 0.74999 1.03076 0.0
O838 O 0.65032 0.81795 0.99511 0.0
O839 O 0.61651 0.79431 1.0508 0.0
H840 H 0.54106 0.76541 0.92718 0.0
O841 O 0.52382 0.77374 1.03594 0.0
O842 O 0.55556 0.80272 0.98203 0.0
O843 O 0.53619 0.69071 1.01151 0.0
O844 O 0.5599 0.70411 0.94996 0.0
C845 C 0.52428 0.80133 1.00853 0.0
H846 H 0.64356 0.82848 0.82293 0.0
H847 H 0.52032 0.7738 0.86166 0.0
H848 H 0.63533 0.61929 0.09626 0.0
H849 H 0.72876 0.71175 0.06749 0.0
C850 C 0.35844 0.6454 1.00554 0.0
N851 N 0.41721 0.59758 0.06877 0.0
C852 C 0.41144 0.63759 0.07489 0.0
C853 C 0.44506 0.66514 0.06645 0.0
C854 C 0.48619 0.64909 0.06743 0.0
C855 C 0.49113 0.60899 0.0561 0.0
C856 C 0.45523 0.58365 0.0586 0.0
Zn857 Zn 0.4238 0.5814 1.00881 0.0
C858 C 0.35517 0.52758 1.00035 0.0
N859 N 0.41727 0.60122 0.8947 0.0
C860 C 0.42648 0.63611 0.872 0.0
C861 C 0.40651 0.56618 0.8786 0.0
C862 C 0.39895 0.56641 0.83883 0.0
C863 C 0.40108 0.60361 0.81598 0.0
C864 C 0.41984 0.63764 0.83163 0.0
Zn865 Zn 0.42806 0.59535 0.95065 0.0
O866 O 0.3656 0.61102 1.02015 0.0
C867 C 0.49519 0.65385 0.96592 0.0
O868 O 0.38248 0.65505 0.97262 0.0
H869 H 0.40214 0.53835 0.89719 0.0
H870 H 0.38044 0.64809 0.08503 0.0
H871 H 0.43758 0.66294 0.88548 0.0
O872 O 0.4663 0.64232 0.99347 0.0
O873 O 0.49114 0.63648 0.93373 0.0
H874 H 0.45528 0.55266 0.05383 0.0
O875 O 0.47224 0.53711 0.93374 0.0
O876 O 0.48582 0.54077 0.99491 0.0
O877 O 0.36319 0.55239 0.96888 0.0
O878 O 0.38384 0.52681 1.02433 0.0
C879 C 0.49472 0.52405 0.96145 0.0
H880 H 0.43922 0.69695 0.07063 0.0
H881 H 0.5224 0.59792 1.04779 0.0
H882 H 0.38626 0.5386 0.82839 0.0
H883 H 0.42443 0.66635 0.81441 0.0
C884 C 0.53021 0.49023 0.95891 0.0
N885 N 0.61857 0.40337 0.91554 0.0
C886 C 0.61385 0.42542 0.88098 0.0
C887 C 0.62182 0.40775 0.84453 0.0
C888 C 0.63567 0.36791 0.84482 0.0
C889 C 0.64617 0.34843 0.88066 0.0
C890 C 0.63631 0.36658 0.91616 0.0
Zn891 Zn 0.59635 0.42356 0.96595 0.0
C892 C 0.6593 0.50161 0.97619 0.0
N893 N 0.54081 0.46922 1.04906 0.0
C894 C 0.49918 0.4562 1.04666 0.0
C895 C 0.54844 0.50696 0.0607 0.0
C896 C 0.51586 0.52525 0.08215 0.0
C897 C 0.48087 0.49981 0.09713 0.0
C898 C 0.46667 0.47752 0.06634 0.0
Zn899 Zn 0.58911 0.44213 1.02173 0.0
O900 O 0.54003 0.46332 0.93359 0.0
C901 C 0.53643 0.35507 1.01618 0.0
O902 O 0.54961 0.48474 0.98918 0.0
H903 H 0.57856 0.52206 1.05201 0.0
H904 H 0.60113 0.45547 0.88186 0.0
H905 H 0.49137 0.43149 1.02857 0.0
O906 O 0.55168 0.36266 0.97951 0.0
O907 O 0.54433 0.38382 1.03869 0.0
H908 H 0.63957 0.34993 0.94418 0.0
O909 O 0.62612 0.41119 0.0629 0.0
O910 O 0.64628 0.38598 1.00523 0.0
O911 O 0.63812 0.49455 1.01047 0.0
O912 O 0.64794 0.47859 0.94923 0.0
C913 C 0.64967 0.38661 1.04372 0.0
H914 H 0.6135 0.42324 0.81724 0.0
H915 H 0.65638 0.31731 0.88209 0.0
H916 H 0.52466 0.55103 0.0966 0.0
H917 H 0.43417 0.4664 0.06732 0.0
C918 C 0.69839 0.53331 0.97103 0.0
N919 N 0.79446 0.60374 0.9096 0.0
C920 C 0.79464 0.56978 0.88843 0.0
C921 C 0.81467 0.57075 0.8499 0.0
C922 C 0.83504 0.60693 0.83416 0.0
C923 C 0.83007 0.64265 0.85497 0.0
C924 C 0.80977 0.6402 0.89345 0.0
Zn925 Zn 0.76813 0.59859 0.96408 0.0
C926 C 0.69604 0.65958 0.97424 0.0
N927 N 0.74545 0.56417 0.07857 0.0
C928 C 0.74908 0.5229 0.07989 0.0
C929 C 0.7102 0.58165 0.06953 0.0
C930 C 0.67514 0.55817 0.06251 0.0
C931 C 0.67564 0.51643 0.07309 0.0
C932 C 0.7157 0.49836 0.07063 0.0
Zn933 Zn 0.75178 0.59644 1.02234 0.0
O934 O 0.71033 0.55815 0.94147 0.0
C935 C 0.81852 0.53976 1.01202 0.0
O936 O 0.71927 0.5388 1.00045 0.0
H937 H 0.71137 0.61333 0.06855 0.0
H938 H 0.78115 0.54146 0.90225 0.0
H939 H 0.7775 0.50924 0.08889 0.0
O940 O 0.80801 0.5388 0.97634 0.0
O941 O 0.80404 0.56821 1.03155 0.0
H942 H 0.80787 0.66673 0.91111 0.0
O943 O 0.78442 0.64869 1.0486 0.0
O944 O 0.82519 0.64157 0.99404 0.0
O945 O 0.69311 0.63588 1.0063 0.0
O946 O 0.72933 0.65528 0.95036 0.0
C947 C 0.82028 0.65767 1.02924 0.0
H948 H 0.81807 0.54268 0.83464 0.0
H949 H 0.84535 0.67114 0.84329 0.0
H950 H 0.64647 0.57184 0.05403 0.0
H951 H 0.71853 0.46571 0.07379 0.0
C952 C 0.61547 0.49012 0.23498 0.0
N953 N 0.55547 0.3939 0.30521 0.0
C954 C 0.59671 0.38948 0.31225 0.0
C955 C 0.60978 0.3941 0.34957 0.0
C956 C 0.58021 0.40175 0.38182 0.0
C957 C 0.53802 0.40904 0.37361 0.0
C958 C 0.52623 0.4047 0.33484 0.0
Zn959 Zn 0.5527 0.4105 0.24723 0.0
C960 C 0.48352 0.46707 0.23334 0.0
N961 N 0.5518 0.41653 0.12896 0.0
C962 C 0.56117 0.45276 0.14153 0.0
C963 C 0.51125 0.40525 0.12312 0.0
C964 C 0.47859 0.43157 0.13164 0.0
C965 C 0.4911 0.47301 0.13172 0.0
C966 C 0.53069 0.48159 0.14598 0.0
Zn967 Zn 0.56505 0.42079 0.18924 0.0
O968 O 0.60648 0.46029 0.26068 0.0
C969 C 0.63227 0.37257 0.2015 0.0
O970 O 0.5959 0.48722 0.20327 0.0
H971 H 0.50469 0.37642 0.11072 0.0
H972 H 0.62141 0.38627 0.28859 0.0
H973 H 0.59299 0.45917 0.14394 0.0
O974 O 0.60268 0.3663 0.22987 0.0
O975 O 0.62818 0.40193 0.17663 0.0
H976 H 0.49443 0.41161 0.32817 0.0
O977 O 0.54773 0.35778 0.17311 0.0
O978 O 0.50097 0.35398 0.22282 0.0
O979 O 0.49461 0.44297 0.20602 0.0
O980 O 0.50306 0.46079 0.26414 0.0
C981 C 0.51506 0.33871 0.18853 0.0
H982 H 0.64294 0.38935 0.35286 0.0
H983 H 0.51408 0.41633 0.39719 0.0
H984 H 0.44698 0.42248 0.12529 0.0
H985 H 0.53958 0.51167 0.15379 0.0
C986 C 0.66015 0.65436 0.22883 0.0
N987 N 0.74736 0.57975 0.29266 0.0
C988 C 0.75422 0.61583 0.30873 0.0
C989 C 0.76163 0.61683 0.34868 0.0
C990 C 0.76151 0.5801 0.37229 0.0
C991 C 0.74626 0.54466 0.35633 0.0
C992 C 0.74225 0.54459 0.31563 0.0
Zn993 Zn 0.73304 0.58137 0.23697 0.0
C994 C 0.65054 0.52543 0.23849 0.0
N995 N 0.67229 0.55072 0.16164 0.0
C996 C 0.63554 0.56052 0.14505 0.0
C997 C 0.68722 0.5115 0.15905 0.0
C998 C 0.66592 0.48392 0.1381 0.0
C999 C 0.64487 0.50264 0.10752 0.0
C1000 C 0.61755 0.53302 0.12192 0.0
Zn1001 Zn 0.71509 0.59587 0.1779 0.0
O1002 O 0.67954 0.6347 0.2559 0.0
C1003 C 0.79701 0.64858 0.18204 0.0
O1004 O 0.66936 0.64221 0.19386 0.0
H1005 H 0.71314 0.50147 0.17527 0.0
H1006 H 0.75525 0.64369 0.29015 0.0
H1007 H 0.62012 0.58821 0.15228 0.0
O1008 O 0.78932 0.6302 0.21702 0.0
O1009 O 0.76848 0.64279 0.15835 0.0
H1010 H 0.73584 0.51621 0.30251 0.0
O1011 O 0.76742 0.55225 0.15678 0.0
O1012 O 0.78763 0.53674 0.21518 0.0
O1013 O 0.6561 0.55386 0.21154 0.0
O1014 O 0.68232 0.52418 0.25868 0.0
C1015 C 0.79426 0.53397 0.17679 0.0
H1016 H 0.77114 0.64577 0.3591 0.0
H1017 H 0.74187 0.51612 0.37377 0.0
H1018 H 0.67847 0.45386 0.13527 0.0
H1019 H 0.59339 0.54567 0.10571 0.0
C1020 C 0.50011 0.67734 0.22475 0.0
N1021 N 0.54036 0.76673 0.28996 0.0
C1022 C 0.50482 0.78661 0.30151 0.0
C1023 C 0.49865 0.79886 0.34048 0.0
C1024 C 0.52996 0.79045 0.36676 0.0
C1025 C 0.56005 0.76165 0.35654 0.0
C1026 C 0.56674 0.75256 0.3168 0.0
Zn1027 Zn 0.55371 0.75363 0.23408 0.0
C1028 C 0.63011 0.6928 0.23353 0.0
N1029 N 0.60923 0.75014 0.12413 0.0
C1030 C 0.59318 0.71323 0.13548 0.0
C1031 C 0.65135 0.75998 0.12482 0.0
C1032 C 0.67893 0.73019 0.13535 0.0
C1033 C 0.66347 0.69033 0.13216 0.0
C1034 C 0.6199 0.68295 0.1448 0.0
Zn1035 Zn 0.57344 0.74849 0.17777 0.0
O1036 O 0.49568 0.70875 0.24507 0.0
C1037 C 0.50591 0.80556 0.16239 0.0
O1038 O 0.5314 0.68158 0.19617 0.0
H1039 H 0.66351 0.7903 0.11585 0.0
H1040 H 0.48324 0.79551 0.27979 0.0
H1041 H 0.56069 0.7075 0.13389 0.0
O1042 O 0.51268 0.80795 0.2002 0.0
O1043 O 0.52185 0.77484 0.14608 0.0
H1044 H 0.59502 0.73697 0.30736 0.0
O1045 O 0.60252 0.80882 0.16601 0.0
O1046 O 0.61301 0.80487 0.22774 0.0
O1047 O 0.6335 0.7216 0.20663 0.0
O1048 O 0.59487 0.69437 0.25526 0.0
C1049 C 0.62192 0.82344 0.1929 0.0
H1050 H 0.47341 0.81964 0.34737 0.0
H1051 H 0.58334 0.75282 0.37669 0.0
H1052 H 0.71262 0.73743 0.13228 0.0
H1053 H 0.60644 0.65284 0.15158 0.0
C1054 C 0.33698 0.52327 0.16241 0.0
N1055 N 0.46866 0.61648 0.15284 0.0
C1056 C 0.50903 0.60504 0.1413 0.0
C1057 C 0.53517 0.63168 0.11656 0.0
C1058 C 0.51373 0.66357 0.09799 0.0
C1059 C 0.48863 0.6839 0.12662 0.0
C1060 C 0.45963 0.65759 0.14921 0.0
Zn1061 Zn 0.42068 0.57369 0.17535 0.0
C1062 C 0.34742 0.6382 0.178 0.0
N1063 N 0.35637 0.57736 0.28716 0.0
C1064 C 0.35346 0.54213 0.31004 0.0
C1065 C 0.34594 0.61338 0.30326 0.0
C1066 C 0.32772 0.61436 0.34275 0.0
C1067 C 0.32095 0.57794 0.36589 0.0
C1068 C 0.33659 0.54189 0.34993 0.0
Zn1069 Zn 0.38471 0.57965 0.23032 0.0
O1070 O 0.37261 0.53521 0.14315 0.0
C1071 C 0.45661 0.50568 0.22394 0.0
O1072 O 0.33336 0.53279 0.20015 0.0
H1073 H 0.35066 0.64147 0.28517 0.0
H1074 H 0.52007 0.57646 0.15257 0.0
H1075 H 0.36321 0.51409 0.29714 0.0
O1076 O 0.45961 0.52152 0.18831 0.0
O1077 O 0.43114 0.52406 0.24919 0.0
H1078 H 0.43164 0.67003 0.16421 0.0
O1079 O 0.43041 0.63629 0.25038 0.0
O1080 O 0.47169 0.60998 0.2078 0.0
O1081 O 0.34014 0.62599 0.21439 0.0
O1082 O 0.37835 0.62252 0.15815 0.0
C1083 C 0.46729 0.63866 0.23102 0.0
H1084 H 0.56341 0.61851 0.10364 0.0
H1085 H 0.48062 0.71528 0.12128 0.0
H1086 H 0.31573 0.64264 0.35368 0.0
H1087 H 0.33181 0.51301 0.36691 0.0
C1088 C 0.97802 0.53403 0.82742 0.0
N1089 N 0.9846 0.66284 0.81567 0.0
C1090 C 0.96564 0.66111 0.85404 0.0
C1091 C 0.98173 0.68352 0.88334 0.0
C1092 C 1.01908 0.70669 0.87409 0.0
C1093 C 1.03707 0.71011 0.8339 0.0
C1094 C 1.01908 0.6878 0.80487 0.0
Zn1095 Zn 0.96021 0.62048 0.77985 0.0
C1096 C 1.01245 0.59027 0.71866 0.0
N1097 N 0.91078 0.52457 0.71639 0.0
C1098 C 0.92398 0.48601 0.72234 0.0
C1099 C 0.89657 0.53721 0.68079 0.0
C1100 C 0.90247 0.51347 0.64758 0.0
C1101 C 0.92035 0.47554 0.65223 0.0
C1102 C 0.92847 0.46062 0.6905 0.0
Zn1103 Zn 0.93434 0.56794 0.75044 0.0
O1104 O 0.97856 0.57299 0.82688 0.0
C1105 C 0.8711 0.60468 0.8045 0.0
O1106 O 0.95813 0.51886 0.79963 0.0
H1107 H 0.88379 0.56694 0.67682 0.0
H1108 H 0.93945 0.64017 0.86321 0.0
H1109 H 0.93496 0.47592 0.75046 0.0
O1110 O 0.902 0.62877 0.80729 0.0
O1111 O 0.87574 0.57423 0.78306 0.0
H1112 H 1.03408 0.68863 0.77447 0.0
O1113 O 0.92502 0.61866 0.70023 0.0
O1114 O 0.95234 0.66719 0.73211 0.0
O1115 O 0.98514 0.56261 0.71782 0.0
O1116 O 1.01229 0.61266 0.74854 0.0
C1117 C 0.94021 0.65531 0.69937 0.0
H1118 H 0.96691 0.67988 0.91376 0.0
H1119 H 0.06648 0.72719 0.8256 0.0
H1120 H 0.89437 0.52501 0.61855 0.0
H1121 H 0.94161 0.43088 0.69503 0.0
C1122 C 0.49222 0.97473 0.68554 0.0
N1123 N 0.53293 0.88344 0.7567 0.0
C1124 C 0.51242 0.87864 0.79392 0.0
C1125 C 0.52597 0.84973 0.82041 0.0
C1126 C 0.55958 0.82506 0.80735 0.0
C1127 C 0.57405 0.82526 0.76687 0.0
C1128 C 0.55864 0.85442 0.74122 0.0
Zn1129 Zn 0.54946 0.94098 0.74052 0.0
C1130 C 0.63419 0.9419 0.67833 0.0
N1131 N 0.60694 1.01154 0.68311 0.0
C1132 C 0.58566 1.01219 0.64877 0.0
C1133 C 0.6083 1.04464 0.70556 0.0
C1134 C 0.58028 0.07366 0.70068 0.0
C1135 C 0.55241 0.07104 0.6701 0.0
C1136 C 0.55772 1.04224 0.64219 0.0
Zn1137 Zn 0.56894 1.00537 0.73735 0.0
O1138 O 0.5 0.93952 0.69886 0.0
C1139 C 0.50214 1.00936 0.80932 0.0
O1140 O 0.51231 1.00365 0.69951 0.0
H1141 H 0.63423 1.04965 0.72363 0.0
H1142 H 0.48989 0.90033 0.80478 0.0
H1143 H 0.58978 0.98843 0.62783 0.0
O1144 O 0.50051 0.9713 0.79948 0.0
O1145 O 0.5278 1.03113 0.78567 0.0
H1146 H 0.57086 0.85605 0.71014 0.0
O1147 O 0.61586 1.00212 0.77605 0.0
O1148 O 0.59793 0.93727 0.78254 0.0
O1149 O 0.62689 0.97433 0.696 0.0
O1150 O 0.60247 0.91683 0.68547 0.0
C1151 C 0.62072 0.96701 0.79158 0.0
H1152 H 0.51318 0.84942 0.85159 0.0
H1153 H 0.59836 0.80498 0.75585 0.0
H1154 H 0.58321 0.0965 0.72147 0.0
H1155 H 0.53805 1.04142 0.61814 0.0
C1156 C 0.20407 0.53807 0.70244 0.0
N1157 N 0.28476 0.60452 0.77791 0.0
C1158 C 0.30916 0.57253 0.76815 0.0
C1159 C 0.35261 0.57537 0.77008 0.0
C1160 C 0.36962 0.60963 0.78668 0.0
C1161 C 0.34493 0.64445 0.78954 0.0
C1162 C 0.30211 0.64096 0.78531 0.0
Zn1163 Zn 0.22362 0.60386 0.77213 0.0
C1164 C 0.20819 0.67781 0.7094 0.0
N1165 N 0.10569 0.60394 0.74535 0.0
C1166 C 0.09449 0.56463 0.73981 0.0
C1167 C 0.09375 0.63504 0.72123 0.0
C1168 C 0.07056 0.6262 0.6895 0.0
C1169 C 1.05068 0.58817 0.69314 0.0
C1170 C 0.07135 0.55589 0.70934 0.0
Zn1171 Zn 0.16137 0.60729 0.76021 0.0
O1172 O 0.2353 0.54876 0.72199 0.0
C1173 C 0.16915 0.53364 0.8233 0.0
O1174 O 0.17258 0.56063 0.70952 0.0
H1175 H 0.10068 0.66595 0.72788 0.0
H1176 H 0.29505 0.5443 0.76048 0.0
H1177 H 0.10563 0.5387 0.75563 0.0
O1178 O 0.20704 0.54904 0.82231 0.0
O1179 O 0.14613 0.55341 0.80141 0.0
H1180 H 0.28241 0.66694 0.78956 0.0
O1181 O 0.14459 0.65701 0.81057 0.0
O1182 O 0.20913 0.65595 0.82479 0.0
O1183 O 0.17345 0.65913 0.71876 0.0
O1184 O 0.23998 0.6611 0.72375 0.0
C1185 C 0.17223 0.67211 0.8322 0.0
H1186 H 0.37126 0.54876 0.76465 0.0
H1187 H 0.35657 0.6726 0.80017 0.0
H1188 H 0.05594 0.65059 0.67377 0.0
H1189 H 0.05729 0.52591 0.71324 0.0
C1190 C 0.65825 0.20181 0.7084 0.0
N1191 N 0.59785 0.26762 0.79333 0.0
C1192 C 0.63978 0.27373 0.79708 0.0
C1193 C 0.65537 0.31155 0.80439 0.0
C1194 C 0.62654 0.34174 0.81314 0.0
C1195 C 0.5838 0.33606 0.80613 0.0
C1196 C 0.57001 0.29812 0.79556 0.0
Zn1197 Zn 0.58662 0.214 0.77429 0.0
C1198 C 0.5095 0.21947 0.72038 0.0
N1199 N 0.53502 0.14481 0.72516 0.0
C1200 C 0.5515 0.1552 0.6859 0.0
C1201 C 0.50294 0.11506 0.7335 0.0
C1202 C 0.48972 0.09422 0.70221 0.0
C1203 C 0.51758 0.09797 0.66758 0.0
C1204 C 0.53437 0.13612 0.65606 0.0
Zn1205 Zn 0.57743 0.15123 0.76709 0.0
O1206 O 0.64475 0.23031 0.72934 0.0
C1207 C 0.64256 0.14506 0.83147 0.0
O1208 O 0.63583 0.16831 0.71505 0.0
H1209 H 0.49052 0.10595 0.76378 0.0
H1210 H 0.66147 0.24906 0.79451 0.0
H1211 H 0.57487 0.17947 0.679 0.0
O1212 O 0.63212 0.18304 0.82728 0.0
O1213 O 0.62706 0.12314 0.80588 0.0
H1214 H 0.53721 0.29251 0.7907 0.0
O1215 O 0.53052 0.13362 0.8129 0.0
O1216 O 0.5274 0.19874 0.82114 0.0
O1217 O 0.51518 0.18739 0.74184 0.0
O1218 O 0.54089 0.24425 0.7224 0.0
C1219 C 0.51159 0.16244 0.8297 0.0
H1220 H 0.68841 0.31519 0.80969 0.0
H1221 H 0.56067 0.359 0.81291 0.0
H1222 H 0.46864 1.06793 0.70864 0.0
H1223 H 0.54404 0.14511 0.62567 0.0
C1224 C 0.98279 0.5307 0.3493 0.0
N1225 N 0.05769 0.59359 0.41209 0.0
C1226 C 0.06648 0.55364 0.40996 0.0
C1227 C 0.07057 0.5319 0.44539 0.0
C1228 C 0.08471 0.55583 0.47494 0.0
C1229 C 0.06629 0.59255 0.4796 0.0
C1230 C 0.06402 0.61501 0.44422 0.0
Zn1231 Zn 0.9957 0.59038 0.42415 0.0
C1232 C 0.98303 0.65075 0.36716 0.0
N1233 N 0.87426 0.57771 0.4179 0.0
C1234 C 0.85472 0.54136 0.41449 0.0
C1235 C 0.85226 0.61221 0.42236 0.0
C1236 C 0.8093 0.61177 0.41748 0.0
C1237 C 0.7907 0.57637 0.40426 0.0
C1238 C 0.81225 0.53972 0.40867 0.0
Zn1239 Zn 0.93499 0.57686 0.42264 0.0
O1240 O 1.0039 0.56025 0.36148 0.0
C1241 C 0.95529 0.50553 0.47583 0.0
O1242 O 0.94721 0.52404 0.37123 0.0
H1243 H 0.86834 0.64036 0.42767 0.0
H1244 H 0.06875 0.53876 0.38191 0.0
H1245 H 0.87269 0.51392 0.41408 0.0
O1246 O 0.98888 0.52407 0.45835 0.0
O1247 O 0.92128 0.52468 0.47208 0.0
H1248 H 0.05762 0.64703 0.44428 0.0
O1249 O 0.92584 0.63347 0.47401 0.0
O1250 O 0.98995 0.62494 0.48502 0.0
O1251 O 0.95216 0.62456 0.36789 0.0
O1252 O 1.00222 0.64964 0.39772 0.0
C1253 C 0.95658 0.64445 0.49464 0.0
H1254 H 0.07782 0.50007 0.44413 0.0
H1255 H 0.06326 0.60549 0.50793 0.0
H1256 H 0.79279 0.64006 0.41878 0.0
H1257 H 0.79922 0.51054 0.40219 0.0
C1258 C 0.64505 1.00739 0.35852 0.0
N1259 N 0.55077 1.07002 0.38211 0.0
C1260 C 0.58343 0.08439 0.35415 0.0
C1261 C 0.62022 0.0974 0.36966 0.0
C1262 C 0.61687 0.10085 0.41062 0.0
C1263 C 0.57608 0.11113 0.4278 0.0
C1264 C 0.54203 0.0985 0.40913 0.0
Zn1265 Zn 0.57356 1.02143 0.4269 0.0
C1266 C 0.50564 1.01101 0.35825 0.0
N1267 N 0.56264 0.90272 0.40154 0.0
C1268 C 0.59474 0.87732 0.3934 0.0
C1269 C 0.52163 0.88929 0.40905 0.0
C1270 C 0.51107 0.84881 0.40675 0.0
C1271 C 0.54234 0.82306 0.39185 0.0
C1272 C 0.58527 0.83684 0.3881 0.0
Zn1273 Zn 0.56999 0.95986 0.4112 0.0
O1274 O 0.63669 1.02517 0.39055 0.0
C1275 C 0.63841 0.96735 0.47888 0.0
O1276 O 0.61931 0.97735 0.35424 0.0
H1277 H 0.49661 0.91022 0.41577 0.0
H1278 H 0.58061 0.08243 0.32258 0.0
H1279 H 0.62715 0.8889 0.38921 0.0
O1280 O 0.61519 0.99876 0.47914 0.0
O1281 O 0.62926 0.94301 0.45189 0.0
H1282 H 0.51109 0.11083 0.41378 0.0
O1283 O 0.5218 0.94548 0.46954 0.0
O1284 O 0.50945 1.00907 0.46505 0.0
O1285 O 0.51167 0.97316 0.3661 0.0
O1286 O 0.52847 1.0335 0.37735 0.0
C1287 C 0.49901 0.97429 0.4825 0.0
H1288 H 0.65069 0.09912 0.35308 0.0
H1289 H 0.57079 0.12958 0.45254 0.0
H1290 H 0.47798 0.83914 0.41127 0.0
H1291 H 0.61099 0.81817 0.37706 0.0
C1292 C 0.22064 0.5142 0.5054 0.0
N1293 N 0.22013 0.64724 0.4856 0.0
C1294 C 0.21384 0.63799 0.52587 0.0
C1295 C 0.21938 0.66714 0.5534 0.0
C1296 C 0.22909 0.70726 0.53999 0.0
C1297 C 0.23699 0.71651 0.49847 0.0
C1298 C 0.23256 0.68563 0.47152 0.0
Zn1299 Zn 0.20759 0.59904 0.4502 0.0
C1300 C 0.2855 0.5741 0.3975 0.0
N1301 N 0.18989 0.49491 0.38365 0.0
C1302 C 0.15584 0.46897 0.39292 0.0
C1303 C 0.20859 0.49983 0.34531 0.0
C1304 C 0.18946 0.48365 0.31404 0.0
C1305 C 0.15035 0.46313 0.32221 0.0
C1306 C 0.13506 0.45269 0.36214 0.0
Zn1307 Zn 0.20276 0.54186 0.41902 0.0
O1308 O 0.22418 0.55326 0.50366 0.0
C1309 C 0.13033 0.56159 0.46847 0.0
O1310 O 0.21658 0.4985 0.4717 0.0
H1311 H 0.23494 0.52098 0.3377 0.0
H1312 H 0.20149 0.60866 0.53748 0.0
H1313 H 0.14161 0.46499 0.42349 0.0
O1314 O 0.14883 0.59322 0.47883 0.0
O1315 O 0.14853 0.53985 0.44276 0.0
H1316 H 0.23739 0.69269 0.43952 0.0
O1317 O 0.17838 0.58604 0.36599 0.0
O1318 O 0.17953 0.64156 0.39765 0.0
O1319 O 0.26232 0.54292 0.39631 0.0
O1320 O 0.27168 0.60371 0.41771 0.0
C1321 C 0.16897 0.62413 0.36614 0.0
H1322 H 0.2126 0.65892 0.58514 0.0
H1323 H 0.24409 0.74746 0.48702 0.0
H1324 H 0.20186 0.49234 0.28344 0.0
H1325 H 0.10462 0.43708 0.36933 0.0
C1326 C 0.54691 0.2278 0.52985 0.0
N1327 N 0.61319 0.3102 0.43693 0.0
C1328 C 0.57172 0.32028 0.44325 0.0
C1329 C 0.56026 0.36035 0.44141 0.0
C1330 C 0.59041 0.38827 0.42269 0.0
C1331 C 0.63323 0.38025 0.42797 0.0
C1332 C 0.64436 0.33953 0.43321 0.0
Zn1333 Zn 0.61809 0.24989 0.44557 0.0
C1334 C 0.67844 0.22977 0.50768 0.0
N1335 N 0.65704 0.16065 0.47674 0.0
C1336 C 0.63184 0.12767 0.48991 0.0
C1337 C 0.69068 0.15491 0.44766 0.0
C1338 C 0.68876 0.12133 0.42424 0.0
C1339 C 0.65364 0.0953 0.43419 0.0
C1340 C 0.64021 0.09073 0.47434 0.0
Zn1341 Zn 0.60141 0.18913 0.46309 0.0
O1342 O 0.55952 0.25568 0.50231 0.0
C1343 C 0.54391 0.21815 0.40708 0.0
O1344 O 0.56727 0.19516 0.52584 0.0
H1345 H 0.7134 0.17941 0.43846 0.0
H1346 H 0.54676 0.29733 0.44752 0.0
H1347 H 0.60348 0.13133 0.50963 0.0
O1348 O 0.57363 0.24428 0.40127 0.0
O1349 O 0.54301 0.19487 0.43808 0.0
H1350 H 0.67727 0.33138 0.43221 0.0
O1351 O 0.62956 0.17853 0.39811 0.0
O1352 O 0.66807 0.23206 0.3843 0.0
O1353 O 0.65849 0.1982 0.49934 0.0
O1354 O 0.66925 0.2622 0.48886 0.0
C1355 C 0.65686 0.19634 0.37257 0.0
H1356 H 0.52672 0.36635 0.44368 0.0
H1357 H 0.658 0.40298 0.41898 0.0
H1358 H 0.70785 0.12068 0.39581 0.0
H1359 H 0.61848 1.06686 0.48462 0.0
C1360 C 0.66984 0.94681 0.64181 0.0
N1361 N 0.76256 0.89312 0.57479 0.0
C1362 C 0.76879 0.87665 0.6114 0.0
C1363 C 0.77498 0.83568 0.61635 0.0
C1364 C 0.77681 0.8119 0.58259 0.0
C1365 C 0.7637 0.82869 0.54661 0.0
C1366 C 0.75792 0.87022 0.54297 0.0
Zn1367 Zn 0.74317 0.9478 0.5762 0.0
C1368 C 0.67705 0.96374 0.50735 0.0
N1369 N 0.69436 1.04702 0.56955 0.0
C1370 C 0.65331 1.03194 0.57129 0.0
C1371 C 0.70459 0.08487 0.55537 0.0
C1372 C 0.67184 0.11064 0.55411 0.0
C1373 C 0.63096 0.09792 0.57083 0.0
C1374 C 0.62089 1.05772 0.56718 0.0
Zn1375 Zn 0.7334 1.00739 0.57356 0.0
O1376 O 0.69041 0.91884 0.62533 0.0
C1377 C 0.7987 1.00637 0.63805 0.0
O1378 O 0.68273 0.98228 0.62761 0.0
H1379 H 0.73691 0.09475 0.54702 0.0
H1380 H 0.76864 0.89542 0.63686 0.0
H1381 H 0.64542 0.99991 0.57474 0.0
O1382 O 0.79409 0.96927 0.6264 0.0
O1383 O 0.77344 1.03134 0.62267 0.0
H1384 H 0.75025 0.88416 0.51483 0.0
O1385 O 0.78239 1.03591 0.52888 0.0
O1386 O 0.80139 0.97324 0.52864 0.0
O1387 O 0.69499 0.99574 0.51743 0.0
O1388 O 0.69076 0.93225 0.52593 0.0
C1389 C 0.80994 1.01084 0.51665 0.0
H1390 H 0.78331 0.82441 0.64533 0.0
H1391 H 0.76297 0.81097 0.52037 0.0
H1392 H 0.67717 0.14093 0.54491 0.0
H1393 H 0.5891 1.04595 0.57017 0.0
C1394 C 0.71045 0.22514 0.53854 0.0
N1395 N 0.79084 0.27891 0.60106 0.0
C1396 C 0.79686 0.29417 0.56248 0.0
C1397 C 0.77875 0.33054 0.55191 0.0
C1398 C 0.76686 0.35671 0.58261 0.0
C1399 C 0.75284 0.33763 0.62028 0.0
C1400 C 0.77038 0.30044 0.63022 0.0
Zn1401 Zn 0.76749 0.22315 0.60015 0.0
C1402 C 0.69931 0.20651 0.67747 0.0
N1403 N 0.693 0.1491 0.62775 0.0
C1404 C 0.66048 0.17279 0.61525 0.0
C1405 C 0.68541 0.11019 0.64231 0.0
C1406 C 0.64718 0.09285 0.63755 0.0
C1407 C 0.62203 0.11291 0.61064 0.0
C1408 C 0.62229 0.15499 0.60981 0.0
Zn1409 Zn 0.75294 0.16083 0.60112 0.0
O1410 O 0.72469 0.25349 0.55705 0.0
C1411 C 0.82223 0.16723 0.53136 0.0
O1412 O 0.71957 0.19014 0.55167 0.0
H1413 H 0.71118 0.09179 0.651 0.0
H1414 H 0.80889 0.27546 0.53883 0.0
H1415 H 0.6658 0.20443 0.60611 0.0
O1416 O 0.82109 0.20426 0.54303 0.0
O1417 O 0.79624 0.14289 0.55207 0.0
H1418 H 0.766 0.28808 0.66083 0.0
O1419 O 0.78737 0.13169 0.64238 0.0
O1420 O 0.81253 0.19433 0.64404 0.0
O1421 O 0.71483 0.17471 0.66358 0.0
O1422 O 0.71285 0.23803 0.65574 0.0
C1423 C 0.81327 0.15636 0.65556 0.0
H1424 H 0.78292 0.3413 0.52067 0.0
H1425 H 0.7391 0.35529 0.64436 0.0
H1426 H 0.64918 1.06069 0.63936 0.0
H1427 H 0.60167 0.17227 0.59193 0.0
C1428 C 0.95793 0.67844 0.52858 0.0
N1429 N 0.89095 0.76825 0.5933 0.0
C1430 C 0.88143 0.77841 0.55567 0.0
C1431 C 0.83981 0.78356 0.54842 0.0
C1432 C 0.80822 0.77991 0.58093 0.0
C1433 C 0.81815 0.76121 0.61726 0.0
C1434 C 0.86048 0.75789 0.62366 0.0
Zn1435 Zn 0.94956 0.75324 0.59536 0.0
C1436 C 0.95282 0.68098 0.65981 0.0
N1437 N 1.03894 0.67961 0.55519 0.0
C1438 C 0.06349 0.68882 0.5187 0.0
C1439 C 1.04924 0.64515 0.57757 0.0
C1440 C 0.0897 0.62955 0.5697 0.0
C1441 C 0.11855 0.65793 0.549 0.0
C1442 C 0.10392 0.67231 0.51293 0.0
Zn1443 Zn 1.01364 0.72989 0.59214 0.0
O1444 O 0.93284 0.70751 0.53775 0.0
C1445 C 1.01427 0.81296 0.53458 0.0
O1446 O 0.99008 0.68066 0.54813 0.0
H1447 H 1.02936 0.63411 0.60406 0.0
H1448 H 0.9063 0.78295 0.53134 0.0
H1449 H 0.05516 0.71342 0.4986 0.0
O1450 O 0.97629 0.81058 0.55248 0.0
O1451 O 1.03556 0.78052 0.53966 0.0
H1452 H 0.86876 0.74778 0.65294 0.0
O1453 O 1.02457 0.78143 0.64053 0.0
O1454 O 0.95987 0.79798 0.65158 0.0
O1455 O 0.9918 0.6859 0.6457 0.0
O1456 O 0.92632 0.7021 0.64204 0.0
C1457 C 0.99791 0.80273 0.66173 0.0
H1458 H 0.83383 0.79583 0.51902 0.0
H1459 H 0.79419 0.75574 0.6424 0.0
H1460 H 0.10033 0.6065 0.59021 0.0
H1461 H 0.12592 0.68399 0.48806 0.0
C1462 C 0.35073 1.01693 0.53353 0.0
N1463 N 0.45648 1.04977 0.5469 0.0
C1464 C 0.44259 0.07366 0.51596 0.0
C1465 C 0.4715 0.0861 0.48424 0.0
C1466 C 0.51244 0.09225 0.49585 0.0
C1467 C 0.5273 1.05876 0.51673 0.0
C1468 C 0.49923 1.04215 0.54781 0.0
Zn1469 Zn 0.41212 1.0261 0.59147 0.0
C1470 C 0.33616 1.01812 0.65379 0.0
N1471 N 0.38475 0.90514 0.60181 0.0
C1472 C 0.40693 0.87874 0.57838 0.0
C1473 C 0.37659 0.89662 0.64203 0.0
C1474 C 0.38958 0.86024 0.65903 0.0
C1475 C 0.39992 0.82919 0.63298 0.0
C1476 C 0.42085 0.84254 0.59561 0.0
Zn1477 Zn 0.39911 0.964 0.59047 0.0
O1478 O 0.36609 1.03882 0.55856 0.0
C1479 C 0.46357 0.96996 0.51906 0.0
O1480 O 0.35777 0.97846 0.53622 0.0
H1481 H 0.36446 0.91959 0.66151 0.0
H1482 H 0.40982 0.08072 0.51449 0.0
H1483 H 0.41446 0.8857 0.54667 0.0
O1484 O 0.44198 1.00009 0.52869 0.0
O1485 O 0.45926 0.94246 0.54669 0.0
H1486 H 0.50953 1.01912 0.5683 0.0
O1487 O 0.43841 0.9544 0.64258 0.0
O1488 O 0.46335 1.01567 0.63195 0.0
O1489 O 0.33822 0.98482 0.63481 0.0
O1490 O 0.36841 1.04217 0.64562 0.0
C1491 C 0.46316 0.98207 0.65237 0.0
H1492 H 0.45939 0.105 0.46086 0.0
H1493 H 0.55998 1.05225 0.5154 0.0
H1494 H 0.3817 0.85374 0.69091 0.0
H1495 H 0.43571 0.82088 0.57589 0.0
C1496 C 0.15965 0.35834 0.55975 0.0
N1497 N 0.09864 0.4576 0.62979 0.0
C1498 C 0.10621 0.46387 0.58455 0.0
C1499 C 0.05727 0.50999 0.55135 0.0
C1500 C 1.04837 0.53048 0.59566 0.0
C1501 C 1.02934 0.50688 0.64922 0.0
C1502 C 0.06519 0.47378 0.66104 0.0
Zn1503 Zn 0.15292 0.43694 0.62824 0.0
C1504 C 0.14704 0.36436 0.68159 0.0
N1505 N 0.2694 0.40233 0.61445 0.0
C1506 C 0.29377 0.39576 0.58024 0.0
C1507 C 0.28594 0.40821 0.64958 0.0
C1508 C 0.32912 0.40484 0.65179 0.0
C1509 C 0.35442 0.39254 0.61812 0.0
C1510 C 0.33675 0.3918 0.58107 0.0
Zn1511 Zn 0.2121 0.4183 0.60921 0.0
O1512 O 0.13503 0.37934 0.58347 0.0
C1513 C 0.21488 0.48754 0.5463 0.0
O1514 O 0.1991 0.36696 0.56224 0.0
H1515 H 0.26555 0.41512 0.67592 0.0
H1516 H 0.12865 0.44412 0.57012 0.0
H1517 H 0.27972 0.39341 0.55232 0.0
O1518 O 0.18204 0.4886 0.57181 0.0
O1519 O 0.23893 0.45879 0.55411 0.0
H1520 H 0.06515 0.46276 0.69196 0.0
O1521 O 0.22701 0.47697 0.65659 0.0
O1522 O 0.16138 0.4871 0.6704 0.0
O1523 O 0.18359 0.3665 0.6604 0.0
O1524 O 0.12532 0.39564 0.67747 0.0
C1525 C 0.19862 0.49896 0.6755 0.0
H1526 H 1.0294 0.50366 0.53283 0.0
H1527 H 1.0045 0.51796 0.66918 0.0
H1528 H 0.34164 0.40742 0.68049 0.0
H1529 H 0.35443 0.38371 0.55355 0.0
C1530 C 0.34256 0.1657 0.66507 0.0
N1531 N 0.45212 0.14498 0.57443 0.0
C1532 C 0.48385 0.12157 0.58368 0.0
C1533 C 0.52127 0.12412 0.55851 0.0
C1534 C 0.51574 0.13033 0.51746 0.0
C1535 C 0.48663 0.15986 0.50852 0.0
C1536 C 0.45333 0.16498 0.53718 0.0
Zn1537 Zn 0.42748 0.17148 0.62294 0.0
C1538 C 0.35684 0.17713 0.55308 0.0
N1539 N 0.40058 0.28565 0.61125 0.0
C1540 C 0.38798 0.29623 0.64896 0.0
C1541 C 0.41565 0.31382 0.58201 0.0
C1542 C 0.41453 0.35472 0.58948 0.0
C1543 C 0.39008 0.36576 0.62408 0.0
C1544 C 0.38337 0.33679 0.65654 0.0
Zn1545 Zn 0.41465 0.22879 0.6069 0.0
O1546 O 0.37196 0.14063 0.65738 0.0
C1547 C 0.47787 0.21482 0.68511 0.0
O1548 O 0.35185 0.20329 0.65239 0.0
H1549 H 0.42762 0.305 0.55264 0.0
H1550 H 0.47959 0.10328 0.61072 0.0
H1551 H 0.38081 0.27312 0.67286 0.0
O1552 O 0.46548 0.17919 0.67692 0.0
O1553 O 0.4634 0.24275 0.66179 0.0
H1554 H 0.43319 0.18964 0.53106 0.0
O1555 O 0.4733 0.25045 0.55751 0.0
O1556 O 0.49636 0.2 0.58874 0.0
O1557 O 0.36543 0.21543 0.556 0.0
O1558 O 0.37763 0.15454 0.57599 0.0
C1559 C 0.50546 0.22879 0.5618 0.0
H1560 H 0.54751 0.10729 0.56804 0.0
H1561 H 0.48267 0.17048 0.47835 0.0
H1562 H 0.42389 0.37684 0.56501 0.0
H1563 H 0.36831 0.34403 0.68554 0.0
C1564 C 0.93175 0.45108 0.61808 0.0
N1565 N 0.87812 0.37016 0.57018 0.0
C1566 C 0.85826 0.36829 0.60807 0.0
C1567 C 0.82092 0.38897 0.61558 0.0
C1568 C 0.79604 0.39292 0.58327 0.0
C1569 C 0.81908 0.40459 0.54627 0.0
C1570 C 0.8597 0.38889 0.53928 0.0
Zn1571 Zn 0.93966 0.38242 0.57011 0.0
C1572 C 0.95803 0.46393 0.50095 0.0
N1573 N 1.04486 0.43897 0.55927 0.0
C1574 C 1.0365 0.46146 0.59765 0.0
C1575 C 0.07728 0.44584 0.52236 0.0
C1576 C 0.11063 0.48418 0.51614 0.0
C1577 C 0.09053 0.52464 0.55457 0.0
C1578 C 0.08284 0.52284 0.60478 0.0
Zn1579 Zn 0.99455 0.41145 0.55904 0.0
O1580 O 0.92244 0.41432 0.62097 0.0
C1581 C 0.98549 0.33843 0.63424 0.0
O1582 O 0.95836 0.46314 0.58949 0.0
H1583 H 0.07777 0.42462 0.49884 0.0
H1584 H 0.87434 0.35648 0.633 0.0
H1585 H 1.01668 0.44387 0.62105 0.0
O1586 O 0.95324 0.32984 0.61537 0.0
O1587 O 1.0057 0.37158 0.62053 0.0
H1588 H 0.87681 0.39276 0.5098 0.0
O1589 O 1.02502 0.36656 0.53001 0.0
O1590 O 0.96172 0.34136 0.52282 0.0
O1591 O 0.99351 0.44819 0.50243 0.0
O1592 O 0.92828 0.44465 0.52416 0.0
C1593 C 1.00225 0.3391 0.51736 0.0
H1594 H 0.80686 0.38914 0.64633 0.0
H1595 H 0.80287 0.41514 0.52089 0.0
H1596 H 0.13504 0.48723 0.49182 0.0
H1597 H 0.11023 0.5283 0.62406 0.0
C1598 C 0.20568 0.71903 0.6854 0.0
N1599 N 0.27972 0.81711 0.62845 0.0
C1600 C 0.29331 0.80435 0.66414 0.0
C1601 C 0.33534 0.79348 0.66584 0.0
C1602 C 0.36357 0.80011 0.6309 0.0
C1603 C 0.34549 0.80221 0.59412 0.0
C1604 C 0.30562 0.81796 0.59389 0.0
Zn1605 Zn 0.22141 0.80078 0.62119 0.0
C1606 C 0.22268 0.739 0.56924 0.0
N1607 N 0.10389 0.7503 0.62931 0.0
C1608 C 0.10651 0.7117 0.64339 0.0
C1609 C 0.1008 0.75857 0.59015 0.0
C1610 C 0.11848 0.73262 0.56279 0.0
C1611 C 0.12605 0.69194 0.57603 0.0
C1612 C 0.1234 0.68307 0.61794 0.0
Zn1613 Zn 0.15985 0.77671 0.63624 0.0
O1614 O 0.23502 0.73937 0.66328 0.0
C1615 C 0.15457 0.83748 0.68598 0.0
O1616 O 0.16918 0.73288 0.68417 0.0
H1617 H 0.09019 0.78775 0.58037 0.0
H1618 H 0.27115 0.8009 0.6908 0.0
H1619 H 0.10165 0.70545 0.67509 0.0
O1620 O 0.19373 0.83883 0.67165 0.0
O1621 O 0.13031 0.81028 0.67563 0.0
H1622 H 0.29378 0.82659 0.5656 0.0
O1623 O 0.14828 0.82563 0.5876 0.0
O1624 O 0.20956 0.85571 0.57787 0.0
O1625 O 0.19099 0.73636 0.59494 0.0
O1626 O 0.24624 0.76977 0.56886 0.0
C1627 C 0.17136 0.85363 0.56857 0.0
H1628 H 0.34694 0.78756 0.69484 0.0
H1629 H 0.36451 0.80138 0.56556 0.0
H1630 H 0.12178 0.74314 0.5315 0.0
H1631 H 0.12997 0.65318 0.63021 0.0
loop_
_geom_bond_atom_site_label_1
_geom_bond_atom_site_label_2
_geom_bond_distance
_geom_bond_site_symmetry_2
_ccdc_geom_bond_type
C0 O16 1.251 . S
C0 O18 1.254 . S
N1 C2 1.333 . S
N1 C6 1.307 . S
N1 Zn7 2.020 . S
C2 N1 1.333 . S
C2 C3 1.379 . S
C2 H20 0.952 . S
C3 C2 1.379 . S
C3 C4 1.390 . S
C3 H30 0.949 . S
C4 C3 1.390 . S
C4 C5 1.357 . S
C5 C4 1.357 . S
C5 C6 1.370 . S
C5 H31 0.950 1_455 S
C6 N1 1.307 . S
C6 C5 1.370 . S
C6 H24 0.948 1_455 S
Zn7 N1 2.020 . S
Zn7 O16 2.039 . S
Zn7 O22 2.034 . S
Zn7 O26 2.025 1_455 S
Zn7 O28 2.024 1_455 S
C8 O27 1.246 . S
C8 O28 1.249 . S
N9 C10 1.307 . S
N9 C11 1.310 1_455 S
N9 Zn15 2.020 . S
C10 N9 1.307 . S
C10 C14 1.370 . S
C10 H21 0.948 . S
C11 N9 1.310 1_655 S
C11 C12 1.381 . S
C11 H19 0.975 . S
C12 C11 1.381 . S
C12 C13 1.390 1_655 S
C12 H32 0.949 . S
C13 C12 1.390 1_455 S
C13 C14 1.357 . S
C14 C10 1.370 . S
C14 C13 1.357 . S
C14 H33 0.950 . S
Zn15 N9 2.020 . S
Zn15 O18 2.025 . S
Zn15 O23 2.024 . S
Zn15 O25 2.039 1_455 S
Zn15 O27 2.034 1_455 S
O16 C0 1.251 . S
O16 Zn7 2.039 . S
C17 O22 1.246 . S
C17 O23 1.249 . S
O18 C0 1.254 . S
O18 Zn15 2.025 . S
H19 C11 0.975 . S
H20 C2 0.952 . S
H21 C10 0.948 . S
O22 Zn7 2.034 . S
O22 C17 1.246 . S
O23 Zn15 2.024 . S
O23 C17 1.249 . S
H24 C6 0.948 1_655 S
O25 Zn15 2.039 1_655 S
O25 C29 1.251 . S
O26 Zn7 2.025 1_655 S
O26 C29 1.254 . S
O27 C8 1.246 . S
O27 Zn15 2.034 1_655 S
O28 Zn7 2.024 1_655 S
O28 C8 1.249 . S
C29 O25 1.251 . S
C29 O26 1.254 . S
H30 C3 0.949 . S
H31 C5 0.950 1_655 S
H32 C12 0.949 . S
H33 C14 0.950 . S
C34 O50 1.251 . S
C34 O52 1.254 . S
N35 C36 1.333 . S
N35 C40 1.307 1_545 S
N35 Zn41 2.020 . S
C36 N35 1.333 . S
C36 C37 1.379 . S
C36 H54 0.952 . S
C37 C36 1.379 . S
C37 C38 1.390 . S
C37 H64 0.949 . S
C38 C37 1.390 . S
C38 C39 1.357 1_545 S
C39 C38 1.357 1_565 S
C39 C40 1.370 . S
C39 H65 0.950 . S
C40 N35 1.307 1_565 S
C40 C39 1.370 . S
C40 H58 0.948 . S
Zn41 N35 2.020 . S
Zn41 O50 2.039 . S
Zn41 O56 2.034 . S
Zn41 O60 2.025 1_545 S
Zn41 O62 2.024 1_545 S
C42 O61 1.246 . S
C42 O62 1.249 . S
N43 C44 1.307 . S
N43 C45 1.333 1_545 S
N43 Zn49 2.020 . S
C44 N43 1.307 . S
C44 C48 1.370 . S
C44 H55 0.948 . S
C45 N43 1.333 1_565 S
C45 C46 1.379 . S
C45 H53 0.952 . S
C46 C45 1.379 . S
C46 C47 1.390 1_565 S
C46 H66 0.949 . S
C47 C46 1.390 1_545 S
C47 C48 1.357 . S
C48 C44 1.370 . S
C48 C47 1.357 . S
C48 H67 0.950 . S
Zn49 N43 2.020 . S
Zn49 O52 2.025 . S
Zn49 O57 2.024 . S
Zn49 O59 2.039 1_545 S
Zn49 O61 2.034 1_545 S
O50 C34 1.251 . S
O50 Zn41 2.039 . S
C51 O56 1.246 . S
C51 O57 1.249 . S
O52 C34 1.254 . S
O52 Zn49 2.025 . S
H53 C45 0.952 . S
H54 C36 0.952 . S
H55 C44 0.948 . S
O56 Zn41 2.034 . S
O56 C51 1.246 . S
O57 Zn49 2.024 . S
O57 C51 1.249 . S
H58 C40 0.948 . S
O59 Zn49 2.039 1_565 S
O59 C63 1.251 . S
O60 Zn41 2.025 1_565 S
O60 C63 1.254 . S
O61 C42 1.246 . S
O61 Zn49 2.034 1_565 S
O62 Zn41 2.024 1_565 S
O62 C42 1.249 . S
C63 O59 1.251 . S
C63 O60 1.254 . S
H64 C37 0.949 . S
H65 C39 0.950 . S
H66 C46 0.949 . S
H67 C48 0.950 . S
C68 O84 1.251 . S
C68 O86 1.254 . S
N69 C70 1.333 . S
N69 C74 1.307 . S
N69 Zn75 2.020 . S
C70 N69 1.333 . S
C70 C71 1.383 . S
C70 H88 0.952 1_455 S
C71 C70 1.383 . S
C71 C72 1.411 . S
C71 H98 0.925 1_455 S
C72 C71 1.411 . S
C72 C73 1.357 . S
C73 C72 1.357 . S
C73 C74 1.370 . S
C73 H99 0.950 . S
C74 N69 1.307 . S
C74 C73 1.370 . S
C74 H92 0.948 . S
Zn75 N69 2.020 . S
Zn75 O84 2.039 1_455 S
Zn75 O90 2.034 1_455 S
Zn75 O94 2.025 . S
Zn75 O96 2.024 . S
C76 O95 1.246 . S
C76 O96 1.249 . S
N77 C78 1.307 1_455 S
N77 C79 1.333 . S
N77 Zn83 2.020 . S
C78 N77 1.307 1_655 S
C78 C82 1.370 . S
C78 H89 0.948 . S
C79 N77 1.333 . S
C79 C80 1.379 . S
C79 H87 0.952 . S
C80 C79 1.379 . S
C80 C81 1.390 . S
C80 H100 0.949 . S
C81 C80 1.390 . S
C81 C82 1.357 1_455 S
C82 C78 1.370 . S
C82 C81 1.357 1_655 S
C82 H101 0.950 . S
Zn83 N77 2.020 . S
Zn83 O86 2.025 1_455 S
Zn83 O91 2.024 1_455 S
Zn83 O93 2.039 . S
Zn83 O95 2.034 . S
O84 C68 1.251 . S
O84 Zn75 2.039 1_655 S
C85 O90 1.246 . S
C85 O91 1.249 . S
O86 C68 1.254 . S
O86 Zn83 2.025 1_655 S
H87 C79 0.952 . S
H88 C70 0.952 1_655 S
H89 C78 0.948 . S
O90 Zn75 2.034 1_655 S
O90 C85 1.246 . S
O91 Zn83 2.024 1_655 S
O91 C85 1.249 . S
H92 C74 0.948 . S
O93 Zn83 2.039 . S
O93 C97 1.251 . S
O94 Zn75 2.025 . S
O94 C97 1.254 . S
O95 C76 1.246 . S
O95 Zn83 2.034 . S
O96 Zn75 2.024 . S
O96 C76 1.249 . S
C97 O93 1.251 . S
C97 O94 1.254 . S
H98 C71 0.925 1_655 S
H99 C73 0.950 . S
H100 C80 0.949 . S
H101 C82 0.950 . S
C102 O118 1.251 . S
C102 O120 1.254 . S
N103 C104 1.333 1_545 S
N103 C108 1.307 . S
N103 Zn109 2.020 . S
C104 N103 1.333 1_565 S
C104 C105 1.379 . S
C104 H122 0.952 . S
C105 C104 1.379 . S
C105 C106 1.390 1_565 S
C105 H132 0.949 . S
C106 C105 1.390 1_545 S
C106 C107 1.357 . S
C107 C106 1.357 . S
C107 C108 1.370 . S
C107 H133 0.950 . S
C108 N103 1.307 . S
C108 C107 1.370 . S
C108 H126 0.948 . S
Zn109 N103 2.020 . S
Zn109 O118 2.039 1_545 S
Zn109 O124 2.034 1_545 S
Zn109 O128 2.025 . S
Zn109 O130 2.024 . S
C110 O129 1.246 . S
C110 O130 1.249 . S
N111 C112 1.307 1_545 S
N111 C113 1.333 . S
N111 Zn117 2.020 . S
C112 N111 1.307 1_565 S
C112 C116 1.370 . S
C112 H123 0.948 . S
C113 N111 1.333 . S
C113 C114 1.379 . S
C113 H121 0.952 . S
C114 C113 1.379 . S
C114 C115 1.390 . S
C114 H134 0.949 . S
C115 C114 1.390 . S
C115 C116 1.357 1_545 S
C116 C112 1.370 . S
C116 C115 1.357 1_565 S
C116 H135 0.950 . S
Zn117 N111 2.020 . S
Zn117 O120 2.025 1_545 S
Zn117 O125 2.024 1_545 S
Zn117 O127 2.039 . S
Zn117 O129 2.034 . S
O118 C102 1.251 . S
O118 Zn109 2.039 1_565 S
C119 O124 1.246 . S
C119 O125 1.249 . S
O120 C102 1.254 . S
O120 Zn117 2.025 1_565 S
H121 C113 0.952 . S
H122 C104 0.952 . S
H123 C112 0.948 . S
O124 Zn109 2.034 1_565 S
O124 C119 1.246 . S
O125 Zn117 2.024 1_565 S
O125 C119 1.249 . S
H126 C108 0.948 . S
O127 Zn117 2.039 . S
O127 C131 1.251 . S
O128 Zn109 2.025 . S
O128 C131 1.254 . S
O129 C110 1.246 . S
O129 Zn117 2.034 . S
O130 Zn109 2.024 . S
O130 C110 1.249 . S
C131 O127 1.251 . S
C131 O128 1.254 . S
H132 C105 0.949 . S
H133 C107 0.950 . S
H134 C114 0.949 . S
H135 C116 0.950 . S
C136 O152 1.251 . S
C136 O154 1.254 . S
N137 C138 1.333 . S
N137 C142 1.307 1_455 S
N137 Zn143 2.020 . S
C138 N137 1.333 . S
C138 C139 1.379 . S
C138 H156 0.952 . S
C139 C138 1.379 . S
C139 C140 1.390 . S
C139 H166 0.949 . S
C140 C139 1.390 . S
C140 C141 1.357 1_455 S
C141 C140 1.357 1_655 S
C141 C142 1.370 . S
C141 H167 0.950 . S
C142 N137 1.307 1_655 S
C142 C141 1.370 . S
C142 H160 0.948 . S
Zn143 N137 2.020 . S
Zn143 O152 2.039 . S
Zn143 O158 2.034 . S
Zn143 O162 2.025 1_455 S
Zn143 O164 2.024 1_455 S
C144 O163 1.246 . S
C144 O164 1.249 . S
N145 C146 1.307 . S
N145 C147 1.333 1_455 S
N145 Zn151 2.020 . S
C146 N145 1.307 . S
C146 C150 1.370 . S
C146 H157 0.948 . S
C147 N145 1.333 1_655 S
C147 C148 1.379 . S
C147 H155 0.952 . S
C148 C147 1.379 . S
C148 C149 1.390 1_655 S
C148 H168 0.949 . S
C149 C148 1.390 1_455 S
C149 C150 1.357 . S
C150 C146 1.370 . S
C150 C149 1.357 . S
C150 H169 0.950 . S
Zn151 N145 2.020 . S
Zn151 O154 2.025 . S
Zn151 O159 2.024 . S
Zn151 O161 2.039 1_455 S
Zn151 O163 2.034 1_455 S
O152 C136 1.251 . S
O152 Zn143 2.039 . S
C153 O158 1.246 . S
C153 O159 1.249 . S
O154 C136 1.254 . S
O154 Zn151 2.025 . S
H155 C147 0.952 . S
H156 C138 0.952 . S
H157 C146 0.948 . S
O158 Zn143 2.034 . S
O158 C153 1.246 . S
O159 Zn151 2.024 . S
O159 C153 1.249 . S
H160 C142 0.948 . S
O161 Zn151 2.039 1_655 S
O161 C165 1.251 . S
O162 Zn143 2.025 1_655 S
O162 C165 1.254 . S
O163 C144 1.246 . S
O163 Zn151 2.034 1_655 S
O164 Zn143 2.024 1_655 S
O164 C144 1.249 . S
C165 O161 1.251 . S
C165 O162 1.254 . S
H166 C139 0.949 . S
H167 C141 0.950 . S
H168 C148 0.949 . S
H169 C150 0.950 . S
C170 O186 1.251 . S
C170 O188 1.254 . S
N171 C172 1.333 . S
N171 C176 1.307 1_545 S
N171 Zn177 2.020 . S
C172 N171 1.333 . S
C172 C173 1.379 . S
C172 H190 0.952 . S
C173 C172 1.379 . S
C173 C174 1.390 . S
C173 H200 0.949 . S
C174 C173 1.390 . S
C174 C175 1.357 1_545 S
C175 C174 1.357 1_565 S
C175 C176 1.370 . S
C175 H201 0.950 . S
C176 N171 1.307 1_565 S
C176 C175 1.370 . S
C176 H194 0.948 . S
Zn177 N171 2.020 . S
Zn177 O186 2.039 . S
Zn177 O192 2.034 . S
Zn177 O196 2.025 1_545 S
Zn177 O198 2.024 1_545 S
C178 O197 1.246 . S
C178 O198 1.249 . S
N179 C180 1.307 . S
N179 C181 1.333 1_545 S
N179 Zn185 2.020 . S
C180 N179 1.307 . S
C180 C184 1.370 . S
C180 H191 0.948 . S
C181 N179 1.333 1_565 S
C181 C182 1.379 . S
C181 H189 0.952 . S
C182 C181 1.379 . S
C182 C183 1.390 1_565 S
C182 H202 0.949 . S
C183 C182 1.390 1_545 S
C183 C184 1.357 . S
C184 C180 1.370 . S
C184 C183 1.357 . S
C184 H203 0.950 . S
Zn185 N179 2.020 . S
Zn185 O188 2.025 . S
Zn185 O193 2.024 . S
Zn185 O195 2.039 1_545 S
Zn185 O197 2.034 1_545 S
O186 C170 1.251 . S
O186 Zn177 2.039 . S
C187 O192 1.246 . S
C187 O193 1.249 . S
O188 C170 1.254 . S
O188 Zn185 2.025 . S
H189 C181 0.952 . S
H190 C172 0.952 . S
H191 C180 0.948 . S
O192 Zn177 2.034 . S
O192 C187 1.246 . S
O193 Zn185 2.024 . S
O193 C187 1.249 . S
H194 C176 0.948 . S
O195 Zn185 2.039 1_565 S
O195 C199 1.251 . S
O196 Zn177 2.025 1_565 S
O196 C199 1.254 . S
O197 C178 1.246 . S
O197 Zn185 2.034 1_565 S
O198 Zn177 2.024 1_565 S
O198 C178 1.249 . S
C199 O195 1.251 . S
C199 O196 1.254 . S
H200 C173 0.949 . S
H201 C175 0.950 . S
H202 C182 0.949 . S
H203 C184 0.950 . S
C204 O220 1.251 . S
C204 O222 1.254 . S
N205 C206 1.333 1_455 S
N205 C210 1.307 . S
N205 Zn211 2.020 . S
C206 N205 1.333 1_655 S
C206 C207 1.379 . S
C206 H224 0.952 . S
C207 C206 1.379 . S
C207 C208 1.390 1_655 S
C207 H234 0.949 . S
C208 C207 1.390 1_455 S
C208 C209 1.357 . S
C209 C208 1.357 . S
C209 C210 1.370 . S
C209 H235 0.950 . S
C210 N205 1.307 . S
C210 C209 1.370 . S
C210 H228 0.948 . S
Zn211 N205 2.020 . S
Zn211 O220 2.039 1_455 S
Zn211 O226 2.034 1_455 S
Zn211 O230 2.025 . S
Zn211 O232 2.024 . S
C212 O231 1.246 . S
C212 O232 1.249 . S
N213 C214 1.307 1_455 S
N213 C215 1.333 . S
N213 Zn219 2.020 . S
C214 N213 1.307 1_655 S
C214 C218 1.370 . S
C214 H225 0.948 . S
C215 N213 1.333 . S
C215 C216 1.379 . S
C215 H223 0.952 . S
C216 C215 1.379 . S
C216 C217 1.390 . S
C216 H236 0.949 . S
C217 C216 1.390 . S
C217 C218 1.358 1_455 S
C218 C214 1.370 . S
C218 C217 1.358 1_655 S
C218 H237 0.949 . S
Zn219 N213 2.020 . S
Zn219 O222 2.025 1_455 S
Zn219 O227 2.024 1_455 S
Zn219 O229 2.039 . S
Zn219 O231 2.034 . S
O220 C204 1.251 . S
O220 Zn211 2.039 1_655 S
C221 O226 1.246 . S
C221 O227 1.249 . S
O222 C204 1.254 . S
O222 Zn219 2.025 1_655 S
H223 C215 0.952 . S
H224 C206 0.952 . S
H225 C214 0.948 . S
O226 Zn211 2.034 1_655 S
O226 C221 1.246 . S
O227 Zn219 2.024 1_655 S
O227 C221 1.249 . S
H228 C210 0.948 . S
O229 Zn219 2.039 . S
O229 C233 1.251 . S
O230 Zn211 2.025 . S
O230 C233 1.254 . S
O231 C212 1.246 . S
O231 Zn219 2.034 . S
O232 Zn211 2.024 . S
O232 C212 1.249 . S
C233 O229 1.251 . S
C233 O230 1.254 . S
H234 C207 0.949 . S
H235 C209 0.950 . S
H236 C216 0.949 . S
H237 C218 0.949 . S
C238 O254 1.251 . S
C238 O256 1.254 . S
N239 C240 1.333 1_545 S
N239 C244 1.307 . S
N239 Zn245 2.020 . S
C240 N239 1.333 1_565 S
C240 C241 1.379 . S
C240 H258 0.952 . S
C241 C240 1.379 . S
C241 C242 1.390 1_565 S
C241 H268 0.949 . S
C242 C241 1.390 1_545 S
C242 C243 1.357 . S
C243 C242 1.357 . S
C243 C244 1.370 . S
C243 H269 0.950 . S
C244 N239 1.307 . S
C244 C243 1.370 . S
C244 H262 0.948 . S
Zn245 N239 2.020 . S
Zn245 O254 2.039 1_545 S
Zn245 O260 2.034 1_545 S
Zn245 O264 2.025 . S
Zn245 O266 2.024 . S
C246 O265 1.246 . S
C246 O266 1.249 . S
N247 C248 1.307 1_545 S
N247 C249 1.333 . S
N247 Zn253 2.020 . S
C248 N247 1.307 1_565 S
C248 C252 1.370 . S
C248 H259 0.948 . S
C249 N247 1.333 . S
C249 C250 1.379 . S
C249 H257 0.952 . S
C250 C249 1.379 . S
C250 C251 1.390 . S
C250 H270 0.949 . S
C251 C250 1.390 . S
C251 C252 1.357 1_545 S
C252 C248 1.370 . S
C252 C251 1.357 1_565 S
C252 H271 0.950 . S
Zn253 N247 2.020 . S
Zn253 O256 2.025 1_545 S
Zn253 O261 2.024 1_545 S
Zn253 O263 2.039 . S
Zn253 O265 2.034 . S
O254 C238 1.251 . S
O254 Zn245 2.039 1_565 S
C255 O260 1.246 . S
C255 O261 1.249 . S
O256 C238 1.254 . S
O256 Zn253 2.025 1_565 S
H257 C249 0.952 . S
H258 C240 0.952 . S
H259 C248 0.948 . S
O260 Zn245 2.034 1_565 S
O260 C255 1.246 . S
O261 Zn253 2.024 1_565 S
O261 C255 1.249 . S
H262 C244 0.948 . S
O263 Zn253 2.039 . S
O263 C267 1.251 . S
O264 Zn245 2.025 . S
O264 C267 1.254 . S
O265 C246 1.246 . S
O265 Zn253 2.034 . S
O266 Zn245 2.024 . S
O266 C246 1.249 . S
C267 O263 1.251 . S
C267 O264 1.254 . S
H268 C241 0.949 . S
H269 C243 0.950 . S
H270 C250 0.949 . S
H271 C252 0.950 . S
C272 O288 1.251 1_565 S
C272 O290 1.254 . S
N273 C274 1.333 . S
N273 C278 1.307 . S
N273 Zn279 2.020 . S
C274 N273 1.333 . S
C274 C275 1.379 . S
C274 H292 0.952 . S
C275 C274 1.379 . S
C275 C276 1.390 . S
C275 H302 0.949 . S
C276 C275 1.390 . S
C276 C277 1.357 . S
C277 C276 1.357 . S
C277 C278 1.370 . S
C277 H303 0.950 . S
C278 N273 1.307 . S
C278 C277 1.370 . S
C278 H296 0.948 . S
Zn279 N273 2.020 . S
Zn279 O288 2.039 . S
Zn279 O294 2.034 . S
Zn279 O298 2.025 . S
Zn279 O300 2.024 . S
C280 O299 1.246 . S
C280 O300 1.249 . S
N281 C282 1.307 . S
N281 C283 1.333 . S
N281 Zn287 2.025 . S
C282 N281 1.307 . S
C282 C286 1.370 . S
C282 H293 0.948 . S
C283 N281 1.333 . S
C283 C284 1.379 . S
C283 H291 0.952 . S
C284 C283 1.379 . S
C284 C285 1.390 . S
C284 H304 0.949 . S
C285 C284 1.390 . S
C285 C286 1.357 . S
C286 C282 1.370 . S
C286 C285 1.357 . S
C286 H305 0.950 . S
Zn287 N281 2.025 . S
Zn287 O290 2.030 . S
Zn287 O295 2.024 1_565 S
Zn287 O297 2.033 1_565 S
Zn287 O299 2.033 1_565 S
O288 C272 1.251 1_545 S
O288 Zn279 2.039 . S
C289 O294 1.246 . S
C289 O295 1.249 . S
O290 C272 1.254 . S
O290 Zn287 2.030 . S
H291 C283 0.952 . S
H292 C274 0.952 . S
H293 C282 0.948 . S
O294 Zn279 2.034 . S
O294 C289 1.246 . S
O295 Zn287 2.024 1_545 S
O295 C289 1.249 . S
H296 C278 0.948 . S
O297 Zn287 2.033 1_545 S
O297 C301 1.251 . S
O298 Zn279 2.025 . S
O298 C301 1.254 . S
O299 C280 1.246 . S
O299 Zn287 2.033 1_545 S
O300 Zn279 2.024 . S
O300 C280 1.249 . S
C301 O297 1.251 . S
C301 O298 1.254 . S
H302 C275 0.949 . S
H303 C277 0.950 . S
H304 C284 0.949 . S
H305 C286 0.950 . S
C306 O322 1.251 . S
C306 O324 1.254 . S
N307 C308 1.333 1_455 S
N307 C312 1.307 . S
N307 Zn313 2.020 . S
C308 N307 1.333 1_655 S
C308 C309 1.379 . S
C308 H326 0.952 . S
C309 C308 1.379 . S
C309 C310 1.390 1_655 S
C309 H336 0.949 . S
C310 C309 1.390 1_455 S
C310 C311 1.357 . S
C311 C310 1.357 . S
C311 C312 1.370 . S
C311 H337 0.950 . S
C312 N307 1.307 . S
C312 C311 1.370 . S
C312 H330 0.948 . S
Zn313 N307 2.020 . S
Zn313 O322 2.039 1_455 S
Zn313 O328 2.034 1_455 S
Zn313 O332 2.025 . S
Zn313 O334 2.024 . S
C314 O333 1.246 . S
C314 O334 1.249 . S
N315 C316 1.307 1_455 S
N315 C317 1.333 . S
N315 Zn321 2.020 . S
C316 N315 1.307 1_655 S
C316 C320 1.370 . S
C316 H327 0.948 . S
C317 N315 1.333 . S
C317 C318 1.379 . S
C317 H325 0.952 . S
C318 C317 1.379 . S
C318 C319 1.390 . S
C318 H338 0.949 . S
C319 C318 1.390 . S
C319 C320 1.357 1_455 S
C320 C316 1.370 . S
C320 C319 1.357 1_655 S
C320 H339 0.950 . S
Zn321 N315 2.020 . S
Zn321 O324 2.025 1_455 S
Zn321 O329 2.024 1_455 S
Zn321 O331 2.039 . S
Zn321 O333 2.034 . S
O322 C306 1.251 . S
O322 Zn313 2.039 1_655 S
C323 O328 1.246 . S
C323 O329 1.249 . S
O324 C306 1.254 . S
O324 Zn321 2.025 1_655 S
H325 C317 0.952 . S
H326 C308 0.952 . S
H327 C316 0.948 . S
O328 Zn313 2.034 1_655 S
O328 C323 1.246 . S
O329 Zn321 2.024 1_655 S
O329 C323 1.249 . S
H330 C312 0.948 . S
O331 Zn321 2.039 . S
O331 C335 1.251 . S
O332 Zn313 2.025 . S
O332 C335 1.254 . S
O333 C314 1.246 . S
O333 Zn321 2.034 . S
O334 Zn313 2.024 . S
O334 C314 1.249 . S
C335 O331 1.251 . S
C335 O332 1.254 . S
H336 C309 0.949 . S
H337 C311 0.950 . S
H338 C318 0.949 . S
H339 C320 0.950 . S
C340 O356 1.251 . S
C340 O358 1.254 . S
N341 C342 1.333 1_545 S
N341 C346 1.307 . S
N341 Zn347 2.020 . S
C342 N341 1.333 1_565 S
C342 C343 1.379 . S
C342 H360 0.952 . S
C343 C342 1.379 . S
C343 C344 1.390 1_565 S
C343 H370 0.949 . S
C344 C343 1.390 1_545 S
C344 C345 1.357 . S
C345 C344 1.357 . S
C345 C346 1.370 . S
C345 H371 0.950 . S
C346 N341 1.307 . S
C346 C345 1.370 . S
C346 H364 0.948 . S
Zn347 N341 2.020 . S
Zn347 O356 2.039 1_545 S
Zn347 O362 2.034 1_545 S
Zn347 O366 2.025 . S
Zn347 O368 2.024 . S
C348 O367 1.246 . S
C348 O368 1.249 . S
N349 C350 1.307 . S
N349 C351 1.333 . S
N349 Zn355 2.020 . S
C350 N349 1.307 . S
C350 C354 1.370 . S
C350 H361 0.948 1_545 S
C351 N349 1.333 . S
C351 C352 1.379 . S
C351 H359 0.952 . S
C352 C351 1.379 . S
C352 C353 1.390 . S
C352 H372 0.949 . S
C353 C352 1.390 . S
C353 C354 1.357 . S
C354 C350 1.370 . S
C354 C353 1.357 . S
C354 H373 0.950 1_545 S
Zn355 N349 2.020 . S
Zn355 O358 2.025 1_545 S
Zn355 O363 2.024 1_545 S
Zn355 O365 2.039 . S
Zn355 O367 2.034 . S
O356 C340 1.251 . S
O356 Zn347 2.039 1_565 S
C357 O362 1.246 . S
C357 O363 1.249 . S
O358 C340 1.254 . S
O358 Zn355 2.025 1_565 S
H359 C351 0.952 . S
H360 C342 0.952 . S
H361 C350 0.948 1_565 S
O362 Zn347 2.034 1_565 S
O362 C357 1.246 . S
O363 Zn355 2.024 1_565 S
O363 C357 1.249 . S
H364 C346 0.948 . S
O365 Zn355 2.039 . S
O365 C369 1.251 . S
O366 Zn347 2.025 . S
O366 C369 1.254 . S
O367 C348 1.246 . S
O367 Zn355 2.034 . S
O368 Zn347 2.024 . S
O368 C348 1.249 . S
C369 O365 1.251 . S
C369 O366 1.254 . S
H370 C343 0.949 . S
H371 C345 0.950 . S
H372 C352 0.949 . S
H373 C354 0.950 1_565 S
C374 O390 1.251 . S
C374 O392 1.254 . S
N375 C376 1.333 . S
N375 C380 1.307 . S
N375 Zn381 2.020 . S
C376 N375 1.333 . S
C376 C377 1.379 . S
C376 H394 0.952 . S
C377 C376 1.379 . S
C377 C378 1.390 . S
C377 H404 0.949 . S
C378 C377 1.390 . S
C378 C379 1.357 . S
C379 C378 1.357 . S
C379 C380 1.370 . S
C379 H405 0.950 1_455 S
C380 N375 1.307 . S
C380 C379 1.370 . S
C380 H398 0.948 1_455 S
Zn381 N375 2.020 . S
Zn381 O390 2.039 . S
Zn381 O396 2.034 . S
Zn381 O400 2.025 1_455 S
Zn381 O402 2.024 1_455 S
C382 O401 1.246 . S
C382 O402 1.249 . S
N383 C384 1.307 . S
N383 C385 1.333 . S
N383 Zn389 2.020 . S
C384 N383 1.307 . S
C384 C388 1.370 . S
C384 H395 0.948 . S
C385 N383 1.333 . S
C385 C386 1.378 1_455 S
C385 H393 0.952 1_455 S
C386 C385 1.378 1_655 S
C386 C387 1.380 1_655 S
C386 H406 0.961 . S
C387 C386 1.380 1_455 S
C387 C388 1.357 . S
C388 C384 1.370 . S
C388 C387 1.357 . S
C388 H407 0.950 . S
Zn389 N383 2.020 . S
Zn389 O392 2.025 . S
Zn389 O397 2.024 . S
Zn389 O399 2.039 1_455 S
Zn389 O401 2.034 1_455 S
O390 C374 1.251 . S
O390 Zn381 2.039 . S
C391 O396 1.246 . S
C391 O397 1.249 . S
O392 C374 1.254 . S
O392 Zn389 2.025 . S
H393 C385 0.952 1_655 S
H394 C376 0.952 . S
H395 C384 0.948 . S
O396 Zn381 2.034 . S
O396 C391 1.246 . S
O397 Zn389 2.024 . S
O397 C391 1.249 . S
H398 C380 0.948 1_655 S
O399 Zn389 2.039 1_655 S
O399 C403 1.251 . S
O400 Zn381 2.025 1_655 S
O400 C403 1.254 . S
O401 C382 1.246 . S
O401 Zn389 2.034 1_655 S
O402 Zn381 2.024 1_655 S
O402 C382 1.249 . S
C403 O399 1.251 . S
C403 O400 1.254 . S
H404 C377 0.949 . S
H405 C379 0.950 1_655 S
H406 C386 0.961 . S
H407 C388 0.950 . S
C408 O424 1.251 . S
C408 O426 1.254 . S
N409 C410 1.333 1_545 S
N409 C414 1.307 . S
N409 Zn415 2.020 . S
C410 N409 1.333 1_565 S
C410 C411 1.379 . S
C410 H428 0.952 . S
C411 C410 1.379 . S
C411 C412 1.390 1_565 S
C411 H438 0.949 . S
C412 C411 1.390 1_545 S
C412 C413 1.357 . S
C413 C412 1.357 . S
C413 C414 1.370 . S
C413 H439 0.950 . S
C414 N409 1.307 . S
C414 C413 1.370 . S
C414 H432 0.948 . S
Zn415 N409 2.020 . S
Zn415 O424 2.039 1_545 S
Zn415 O430 2.034 1_545 S
Zn415 O434 2.025 . S
Zn415 O436 2.024 . S
C416 O435 1.246 . S
C416 O436 1.249 . S
N417 C418 1.307 1_545 S
N417 C419 1.333 . S
N417 Zn423 2.020 . S
C418 N417 1.307 1_565 S
C418 C422 1.370 . S
C418 H429 0.948 . S
C419 N417 1.333 . S
C419 C420 1.379 . S
C419 H427 0.952 . S
C420 C419 1.379 . S
C420 C421 1.390 . S
C420 H440 0.949 . S
C421 C420 1.390 . S
C421 C422 1.357 1_545 S
C422 C418 1.370 . S
C422 C421 1.357 1_565 S
C422 H441 0.950 . S
Zn423 N417 2.020 . S
Zn423 O426 2.025 1_545 S
Zn423 O431 2.024 1_545 S
Zn423 O433 2.039 . S
Zn423 O435 2.034 . S
O424 C408 1.251 . S
O424 Zn415 2.039 1_565 S
C425 O430 1.246 . S
C425 O431 1.249 . S
O426 C408 1.254 . S
O426 Zn423 2.025 1_565 S
H427 C419 0.952 . S
H428 C410 0.952 . S
H429 C418 0.948 . S
O430 Zn415 2.034 1_565 S
O430 C425 1.246 . S
O431 Zn423 2.024 1_565 S
O431 C425 1.249 . S
H432 C414 0.948 . S
O433 Zn423 2.039 . S
O433 C437 1.251 . S
O434 Zn415 2.025 . S
O434 C437 1.254 . S
O435 C416 1.246 . S
O435 Zn423 2.034 . S
O436 Zn415 2.024 . S
O436 C416 1.249 . S
C437 O433 1.251 . S
C437 O434 1.254 . S
H438 C411 0.949 . S
H439 C413 0.950 . S
H440 C420 0.949 . S
H441 C422 0.950 . S
C442 O458 1.251 . S
C442 O460 1.254 . S
N443 C444 1.333 . S
N443 C448 1.307 1_455 S
N443 Zn449 2.020 . S
C444 N443 1.333 . S
C444 C445 1.379 . S
C444 H462 0.952 . S
C445 C444 1.379 . S
C445 C446 1.390 . S
C445 H472 0.949 . S
C446 C445 1.390 . S
C446 C447 1.357 1_455 S
C447 C446 1.357 1_655 S
C447 C448 1.370 . S
C447 H473 0.950 . S
C448 N443 1.307 1_655 S
C448 C447 1.370 . S
C448 H466 0.948 . S
Zn449 N443 2.020 . S
Zn449 O458 2.039 . S
Zn449 O464 2.034 . S
Zn449 O468 2.025 1_455 S
Zn449 O470 2.024 1_455 S
C450 O469 1.246 . S
C450 O470 1.249 . S
N451 C452 1.307 . S
N451 C453 1.333 1_455 S
N451 Zn457 2.020 . S
C452 N451 1.307 . S
C452 C456 1.370 . S
C452 H463 0.948 . S
C453 N451 1.333 1_655 S
C453 C454 1.379 . S
C453 H461 0.952 . S
C454 C453 1.379 . S
C454 C455 1.390 1_655 S
C454 H474 0.949 . S
C455 C454 1.390 1_455 S
C455 C456 1.357 . S
C456 C452 1.370 . S
C456 C455 1.357 . S
C456 H475 0.950 . S
Zn457 N451 2.020 . S
Zn457 O460 2.025 . S
Zn457 O465 2.024 . S
Zn457 O467 2.039 1_455 S
Zn457 O469 2.034 1_455 S
O458 C442 1.251 . S
O458 Zn449 2.039 . S
C459 O464 1.246 . S
C459 O465 1.249 . S
O460 C442 1.254 . S
O460 Zn457 2.025 . S
H461 C453 0.952 . S
H462 C444 0.952 . S
H463 C452 0.948 . S
O464 Zn449 2.034 . S
O464 C459 1.246 . S
O465 Zn457 2.024 . S
O465 C459 1.249 . S
H466 C448 0.948 . S
O467 Zn457 2.039 1_655 S
O467 C471 1.251 . S
O468 Zn449 2.025 1_655 S
O468 C471 1.254 . S
O469 C450 1.246 . S
O469 Zn457 2.034 1_655 S
O470 Zn449 2.024 1_655 S
O470 C450 1.249 . S
C471 O467 1.251 . S
C471 O468 1.254 . S
H472 C445 0.949 . S
H473 C447 0.950 . S
H474 C454 0.949 . S
H475 C456 0.950 . S
C476 O492 1.251 . S
C476 O494 1.254 . S
N477 C478 1.333 . S
N477 C482 1.307 . S
N477 Zn483 2.020 . S
C478 N477 1.333 . S
C478 C479 1.379 . S
C478 H496 0.952 . S
C479 C478 1.379 . S
C479 C480 1.390 . S
C479 H506 0.949 1_556 S
C480 C479 1.390 . S
C480 C481 1.357 . S
C481 C480 1.357 . S
C481 C482 1.370 . S
C481 H507 0.950 . S
C482 N477 1.307 . S
C482 C481 1.370 . S
C482 H500 0.948 . S
Zn483 N477 2.020 . S
Zn483 O492 2.039 1_545 S
Zn483 O498 2.034 . S
Zn483 O502 2.025 . S
Zn483 O504 2.024 . S
C484 O503 1.246 1_545 S
C484 O504 1.249 . S
N485 C486 1.307 . S
N485 C487 1.333 . S
N485 Zn491 2.020 . S
C486 N485 1.307 . S
C486 C490 1.370 . S
C486 H497 0.948 . S
C487 N485 1.333 . S
C487 C488 1.379 . S
C487 H495 0.952 . S
C488 C487 1.379 . S
C488 C489 1.390 . S
C488 H508 0.949 . S
C489 C488 1.390 . S
C489 C490 1.357 . S
C490 C486 1.370 . S
C490 C489 1.357 . S
C490 H509 0.950 . S
Zn491 N485 2.020 . S
Zn491 O494 2.025 . S
Zn491 O499 2.024 . S
Zn491 O501 2.039 1_565 S
Zn491 O503 2.034 . S
O492 C476 1.251 . S
O492 Zn483 2.039 1_565 S
C493 O498 1.246 . S
C493 O499 1.249 1_545 S
O494 C476 1.254 . S
O494 Zn491 2.025 . S
H495 C487 0.952 . S
H496 C478 0.952 . S
H497 C486 0.948 . S
O498 Zn483 2.034 . S
O498 C493 1.246 . S
O499 Zn491 2.024 . S
O499 C493 1.249 1_565 S
H500 C482 0.948 . S
O501 Zn491 2.039 1_545 S
O501 C505 1.251 . S
O502 Zn483 2.025 . S
O502 C505 1.254 . S
O503 C484 1.246 1_565 S
O503 Zn491 2.034 . S
O504 Zn483 2.024 . S
O504 C484 1.249 . S
C505 O501 1.251 . S
C505 O502 1.254 . S
H506 C479 0.949 1_554 S
H507 C481 0.950 . S
H508 C488 0.949 . S
H509 C490 0.950 . S
C510 O526 1.251 . S
C510 O528 1.254 . S
N511 C512 1.333 . S
N511 C516 1.307 . S
N511 Zn517 2.020 . S
C512 N511 1.333 . S
C512 C513 1.381 . S
C512 H530 0.952 1_455 S
C513 C512 1.381 . S
C513 C514 1.398 . S
C513 H540 0.939 1_455 S
C514 C513 1.398 . S
C514 C515 1.357 . S
C515 C514 1.357 . S
C515 C516 1.370 . S
C515 H541 0.950 . S
C516 N511 1.307 . S
C516 C515 1.370 . S
C516 H534 0.948 . S
Zn517 N511 2.020 . S
Zn517 O526 2.039 1_455 S
Zn517 O532 2.034 1_455 S
Zn517 O536 2.025 . S
Zn517 O538 2.024 . S
C518 O537 1.246 . S
C518 O538 1.249 . S
N519 C520 1.287 1_455 S
N519 C521 1.333 . S
N519 Zn525 2.020 . S
C520 N519 1.287 1_655 S
C520 C524 1.369 . S
C520 H531 0.971 . S
C521 N519 1.333 . S
C521 C522 1.379 . S
C521 H529 0.952 . S
C522 C521 1.379 . S
C522 C523 1.390 . S
C522 H542 0.949 . S
C523 C522 1.390 . S
C523 C524 1.348 1_455 S
C524 C520 1.369 . S
C524 C523 1.348 1_655 S
C524 H543 0.959 . S
Zn525 N519 2.020 . S
Zn525 O528 2.025 1_455 S
Zn525 O533 2.024 1_455 S
Zn525 O535 2.039 . S
Zn525 O537 2.034 . S
O526 C510 1.251 . S
O526 Zn517 2.039 1_655 S
C527 O532 1.246 . S
C527 O533 1.249 . S
O528 C510 1.254 . S
O528 Zn525 2.025 1_655 S
H529 C521 0.952 . S
H530 C512 0.952 1_655 S
H531 C520 0.971 . S
O532 Zn517 2.034 1_655 S
O532 C527 1.246 . S
O533 Zn525 2.024 1_655 S
O533 C527 1.249 . S
H534 C516 0.948 . S
O535 Zn525 2.039 . S
O535 C539 1.251 . S
O536 Zn517 2.025 . S
O536 C539 1.254 . S
O537 C518 1.246 . S
O537 Zn525 2.034 . S
O538 Zn517 2.024 . S
O538 C518 1.249 . S
C539 O535 1.251 . S
C539 O536 1.254 . S
H540 C513 0.939 1_655 S
H541 C515 0.950 . S
H542 C522 0.949 . S
H543 C524 0.959 . S
C544 O560 1.251 . S
C544 O562 1.254 . S
N545 C546 1.333 . S
N545 C550 1.307 . S
N545 Zn551 2.020 . S
C546 N545 1.333 . S
C546 C547 1.379 . S
C546 H564 0.952 . S
C547 C546 1.379 . S
C547 C548 1.390 . S
C547 H574 0.949 . S
C548 C547 1.390 . S
C548 C549 1.357 . S
C549 C548 1.357 . S
C549 C550 1.370 . S
C549 H575 0.950 1_554 S
C550 N545 1.307 . S
C550 C549 1.370 . S
C550 H568 0.948 1_554 S
Zn551 N545 2.020 . S
Zn551 O560 2.039 . S
Zn551 O566 2.034 . S
Zn551 O570 2.025 . S
Zn551 O572 2.024 . S
C552 O571 1.246 1_556 S
C552 O572 1.249 1_556 S
N553 C554 1.307 . S
N553 C555 1.333 . S
N553 Zn559 2.020 . S
C554 N553 1.307 . S
C554 C558 1.370 . S
C554 H565 0.948 . S
C555 N553 1.333 . S
C555 C556 1.379 . S
C555 H563 0.952 1_554 S
C556 C555 1.379 . S
C556 C557 1.390 . S
C556 H576 0.949 1_554 S
C557 C556 1.390 . S
C557 C558 1.357 . S
C558 C554 1.370 . S
C558 C557 1.357 . S
C558 H577 0.950 . S
Zn559 N553 2.020 . S
Zn559 O562 2.025 . S
Zn559 O567 2.024 . S
Zn559 O569 2.039 . S
Zn559 O571 2.034 . S
O560 C544 1.251 . S
O560 Zn551 2.039 . S
C561 O566 1.246 . S
C561 O567 1.249 . S
O562 C544 1.254 . S
O562 Zn559 2.025 . S
H563 C555 0.952 1_556 S
H564 C546 0.952 . S
H565 C554 0.948 . S
O566 Zn551 2.034 . S
O566 C561 1.246 . S
O567 Zn559 2.024 . S
O567 C561 1.249 . S
H568 C550 0.948 1_556 S
O569 Zn559 2.039 . S
O569 C573 1.251 1_554 S
O570 Zn551 2.025 . S
O570 C573 1.254 1_554 S
O571 C552 1.246 1_554 S
O571 Zn559 2.034 . S
O572 Zn551 2.024 . S
O572 C552 1.249 1_554 S
C573 O569 1.251 1_556 S
C573 O570 1.254 1_556 S
H574 C547 0.949 . S
H575 C549 0.950 1_556 S
H576 C556 0.949 1_556 S
H577 C558 0.950 . S
C578 O594 1.251 . S
C578 O596 1.254 . S
N579 C580 1.333 . S
N579 C584 1.307 . S
N579 Zn585 2.020 . S
C580 N579 1.333 . S
C580 C581 1.379 . S
C580 H598 0.952 . S
C581 C580 1.379 . S
C581 C582 1.390 . S
C581 H608 0.949 1_554 S
C582 C581 1.390 . S
C582 C583 1.357 . S
C583 C582 1.357 . S
C583 C584 1.370 . S
C583 H609 0.950 . S
C584 N579 1.307 . S
C584 C583 1.370 . S
C584 H602 0.948 . S
Zn585 N579 2.020 . S
Zn585 O594 2.039 . S
Zn585 O600 2.034 . S
Zn585 O604 2.025 . S
Zn585 O606 2.024 . S
C586 O605 1.246 . S
C586 O606 1.249 . S
N587 C588 1.307 . S
N587 C589 1.333 . S
N587 Zn593 2.020 . S
C588 N587 1.307 . S
C588 C592 1.370 . S
C588 H599 0.948 . S
C589 N587 1.333 . S
C589 C590 1.379 . S
C589 H597 0.952 . S
C590 C589 1.379 . S
C590 C591 1.390 . S
C590 H610 0.949 . S
C591 C590 1.390 . S
C591 C592 1.357 . S
C592 C588 1.370 . S
C592 C591 1.357 . S
C592 H611 0.950 . S
Zn593 N587 2.020 . S
Zn593 O596 2.025 . S
Zn593 O601 2.024 . S
Zn593 O603 2.039 . S
Zn593 O605 2.034 . S
O594 C578 1.251 . S
O594 Zn585 2.039 . S
C595 O600 1.246 . S
C595 O601 1.249 . S
O596 C578 1.254 . S
O596 Zn593 2.025 . S
H597 C589 0.952 . S
H598 C580 0.952 . S
H599 C588 0.948 . S
O600 Zn585 2.034 . S
O600 C595 1.246 . S
O601 Zn593 2.024 . S
O601 C595 1.249 . S
H602 C584 0.948 . S
O603 Zn593 2.039 . S
O603 C607 1.251 . S
O604 Zn585 2.025 . S
O604 C607 1.254 . S
O605 C586 1.246 . S
O605 Zn593 2.034 . S
O606 Zn585 2.024 . S
O606 C586 1.249 . S
C607 O603 1.251 . S
C607 O604 1.254 . S
H608 C581 0.949 1_556 S
H609 C583 0.950 . S
H610 C590 0.949 . S
H611 C592 0.950 . S
C612 O628 1.251 . S
C612 O630 1.254 . S
N613 C614 1.333 . S
N613 C618 1.307 . S
N613 Zn619 2.020 . S
C614 N613 1.333 . S
C614 C615 1.379 . S
C614 H632 0.952 1_554 S
C615 C614 1.379 . S
C615 C616 1.390 . S
C615 H642 0.949 1_554 S
C616 C615 1.390 . S
C616 C617 1.357 . S
C617 C616 1.357 . S
C617 C618 1.370 . S
C617 H643 0.950 . S
C618 N613 1.307 . S
C618 C617 1.370 . S
C618 H636 0.948 . S
Zn619 N613 2.020 . S
Zn619 O628 2.039 . S
Zn619 O634 2.034 . S
Zn619 O638 2.025 . S
Zn619 O640 2.024 . S
C620 O639 1.246 . S
C620 O640 1.249 . S
N621 C622 1.307 . S
N621 C623 1.333 . S
N621 Zn627 2.020 . S
C622 N621 1.307 . S
C622 C626 1.370 . S
C622 H633 0.948 . S
C623 N621 1.333 . S
C623 C624 1.379 . S
C623 H631 0.952 . S
C624 C623 1.379 . S
C624 C625 1.390 . S
C624 H644 0.949 . S
C625 C624 1.390 . S
C625 C626 1.357 . S
C626 C622 1.370 . S
C626 C625 1.357 . S
C626 H645 0.950 . S
Zn627 N621 2.020 . S
Zn627 O630 2.025 . S
Zn627 O635 2.024 . S
Zn627 O637 2.039 . S
Zn627 O639 2.034 . S
O628 C612 1.251 . S
O628 Zn619 2.039 . S
C629 O634 1.246 1_556 S
C629 O635 1.249 1_556 S
O630 C612 1.254 . S
O630 Zn627 2.025 . S
H631 C623 0.952 . S
H632 C614 0.952 1_556 S
H633 C622 0.948 . S
O634 Zn619 2.034 . S
O634 C629 1.246 1_554 S
O635 Zn627 2.024 . S
O635 C629 1.249 1_554 S
H636 C618 0.948 . S
O637 Zn627 2.039 . S
O637 C641 1.251 . S
O638 Zn619 2.025 . S
O638 C641 1.254 . S
O639 C620 1.246 . S
O639 Zn627 2.034 . S
O640 Zn619 2.024 . S
O640 C620 1.249 . S
C641 O637 1.251 . S
C641 O638 1.254 . S
H642 C615 0.949 1_556 S
H643 C617 0.950 . S
H644 C624 0.949 . S
H645 C626 0.950 . S
C646 O662 1.251 . S
C646 O664 1.254 . S
N647 C648 1.323 1_554 S
N647 C652 1.307 . S
N647 Zn653 2.020 . S
C648 N647 1.323 1_556 S
C648 C649 1.380 . S
C648 H666 0.961 . S
C649 C648 1.380 . S
C649 C650 1.390 1_556 S
C649 H676 0.949 . S
C650 C649 1.390 1_554 S
C650 C651 1.357 . S
C651 C650 1.357 . S
C651 C652 1.370 . S
C651 H677 0.950 . S
C652 N647 1.307 . S
C652 C651 1.370 . S
C652 H670 0.948 . S
Zn653 N647 2.020 . S
Zn653 O662 2.039 1_554 S
Zn653 O668 2.034 1_554 S
Zn653 O672 2.025 . S
Zn653 O674 2.024 . S
C654 O673 1.246 . S
C654 O674 1.249 . S
N655 C656 1.307 . S
N655 C657 1.333 . S
N655 Zn661 2.020 . S
C656 N655 1.307 . S
C656 C660 1.370 . S
C656 H667 0.948 1_554 S
C657 N655 1.333 . S
C657 C658 1.379 . S
C657 H665 0.952 . S
C658 C657 1.379 . S
C658 C659 1.390 . S
C658 H678 0.949 . S
C659 C658 1.390 . S
C659 C660 1.357 . S
C660 C656 1.370 . S
C660 C659 1.357 . S
C660 H679 0.950 1_554 S
Zn661 N655 2.020 . S
Zn661 O664 2.025 1_554 S
Zn661 O669 2.024 1_554 S
Zn661 O671 2.039 . S
Zn661 O673 2.034 . S
O662 C646 1.251 . S
O662 Zn653 2.039 1_556 S
C663 O668 1.246 . S
C663 O669 1.249 . S
O664 C646 1.254 . S
O664 Zn661 2.025 1_556 S
H665 C657 0.952 . S
H666 C648 0.961 . S
H667 C656 0.948 1_556 S
O668 Zn653 2.034 1_556 S
O668 C663 1.246 . S
O669 Zn661 2.024 1_556 S
O669 C663 1.249 . S
H670 C652 0.948 . S
O671 Zn661 2.039 . S
O671 C675 1.251 . S
O672 Zn653 2.025 . S
O672 C675 1.254 . S
O673 C654 1.246 . S
O673 Zn661 2.034 . S
O674 Zn653 2.024 . S
O674 C654 1.249 . S
C675 O671 1.251 . S
C675 O672 1.254 . S
H676 C649 0.949 . S
H677 C651 0.950 . S
H678 C658 0.949 . S
H679 C660 0.950 1_556 S
C680 O696 1.251 . S
C680 O698 1.254 . S
N681 C682 1.333 1_554 S
N681 C686 1.307 . S
N681 Zn687 2.020 . S
C682 N681 1.333 1_556 S
C682 C683 1.379 . S
C682 H700 0.952 . S
C683 C682 1.379 . S
C683 C684 1.390 1_556 S
C683 H710 0.949 . S
C684 C683 1.390 1_554 S
C684 C685 1.357 . S
C685 C684 1.357 . S
C685 C686 1.370 . S
C685 H711 0.950 . S
C686 N681 1.307 . S
C686 C685 1.370 . S
C686 H704 0.948 . S
Zn687 N681 2.020 . S
Zn687 O696 2.039 1_554 S
Zn687 O702 2.034 1_554 S
Zn687 O706 2.025 . S
Zn687 O708 2.024 . S
C688 O707 1.246 . S
C688 O708 1.249 . S
N689 C690 1.307 . S
N689 C691 1.333 . S
N689 Zn695 2.020 . S
C690 N689 1.307 . S
C690 C694 1.370 . S
C690 H701 0.948 1_554 S
C691 N689 1.333 . S
C691 C692 1.379 . S
C691 H699 0.952 . S
C692 C691 1.379 . S
C692 C693 1.390 . S
C692 H712 0.949 . S
C693 C692 1.390 . S
C693 C694 1.357 . S
C694 C690 1.370 . S
C694 C693 1.357 . S
C694 H713 0.950 1_554 S
Zn695 N689 2.020 . S
Zn695 O698 2.025 1_554 S
Zn695 O703 2.024 1_554 S
Zn695 O705 2.039 . S
Zn695 O707 2.034 . S
O696 C680 1.251 . S
O696 Zn687 2.039 1_556 S
C697 O702 1.246 . S
C697 O703 1.249 . S
O698 C680 1.254 . S
O698 Zn695 2.025 1_556 S
H699 C691 0.952 . S
H700 C682 0.952 . S
H701 C690 0.948 1_556 S
O702 Zn687 2.034 1_556 S
O702 C697 1.246 . S
O703 Zn695 2.024 1_556 S
O703 C697 1.249 . S
H704 C686 0.948 . S
O705 Zn695 2.039 . S
O705 C709 1.251 . S
O706 Zn687 2.025 . S
O706 C709 1.254 . S
O707 C688 1.246 . S
O707 Zn695 2.034 . S
O708 Zn687 2.024 . S
O708 C688 1.249 . S
C709 O705 1.251 . S
C709 O706 1.254 . S
H710 C683 0.949 . S
H711 C685 0.950 . S
H712 C692 0.949 . S
H713 C694 0.950 1_556 S
C714 O730 1.251 . S
C714 O732 1.254 . S
N715 C716 1.333 . S
N715 C720 1.307 . S
N715 Zn721 2.020 . S
C716 N715 1.333 . S
C716 C717 1.379 . S
C716 H734 0.952 . S
C717 C716 1.379 . S
C717 C718 1.390 . S
C717 H744 0.949 . S
C718 C717 1.390 . S
C718 C719 1.357 . S
C719 C718 1.357 . S
C719 C720 1.370 . S
C719 H745 0.950 1_554 S
C720 N715 1.307 . S
C720 C719 1.370 . S
C720 H738 0.948 1_554 S
Zn721 N715 2.020 . S
Zn721 O730 2.039 . S
Zn721 O736 2.034 . S
Zn721 O740 2.018 1_554 S
Zn721 O742 2.024 1_554 S
C722 O741 1.243 1_556 S
C722 O742 1.249 . S
N723 C724 1.307 . S
N723 C725 1.333 . S
N723 Zn729 2.020 . S
C724 N723 1.307 . S
C724 C728 1.370 . S
C724 H735 0.948 . S
C725 N723 1.333 . S
C725 C726 1.379 . S
C725 H733 0.952 1_554 S
C726 C725 1.379 . S
C726 C727 1.390 . S
C726 H746 0.949 1_554 S
C727 C726 1.390 . S
C727 C728 1.357 . S
C728 C724 1.370 . S
C728 C727 1.357 . S
C728 H747 0.950 . S
Zn729 N723 2.020 . S
Zn729 O732 2.025 . S
Zn729 O737 2.024 . S
Zn729 O739 2.039 . S
Zn729 O741 2.039 . S
O730 C714 1.251 . S
O730 Zn721 2.039 . S
C731 O736 1.246 . S
C731 O737 1.249 . S
O732 C714 1.254 . S
O732 Zn729 2.025 . S
H733 C725 0.952 1_556 S
H734 C716 0.952 . S
H735 C724 0.948 . S
O736 Zn721 2.034 . S
O736 C731 1.246 . S
O737 Zn729 2.024 . S
O737 C731 1.249 . S
H738 C720 0.948 1_556 S
O739 Zn729 2.039 . S
O739 C743 1.251 1_554 S
O740 Zn721 2.018 1_556 S
O740 C743 1.257 . S
O741 C722 1.243 1_554 S
O741 Zn729 2.039 . S
O742 Zn721 2.024 1_556 S
O742 C722 1.249 . S
C743 O739 1.251 1_556 S
C743 O740 1.257 . S
H744 C717 0.949 . S
H745 C719 0.950 1_556 S
H746 C726 0.949 1_556 S
H747 C728 0.950 . S
C748 O764 1.251 . S
C748 O766 1.254 . S
N749 C750 1.333 . S
N749 C754 1.307 1_554 S
N749 Zn755 2.020 . S
C750 N749 1.333 . S
C750 C751 1.379 . S
C750 H768 0.952 . S
C751 C750 1.379 . S
C751 C752 1.390 . S
C751 H778 0.949 . S
C752 C751 1.390 . S
C752 C753 1.357 1_554 S
C753 C752 1.357 1_556 S
C753 C754 1.370 . S
C753 H779 0.950 . S
C754 N749 1.307 1_556 S
C754 C753 1.370 . S
C754 H772 0.948 . S
Zn755 N749 2.020 . S
Zn755 O764 2.039 . S
Zn755 O770 2.034 . S
Zn755 O774 2.025 1_554 S
Zn755 O776 2.024 1_554 S
C756 O775 1.246 . S
C756 O776 1.249 . S
N757 C758 1.307 . S
N757 C759 1.333 1_554 S
N757 Zn763 2.020 . S
C758 N757 1.307 . S
C758 C762 1.370 . S
C758 H769 0.948 . S
C759 N757 1.333 1_556 S
C759 C760 1.379 . S
C759 H767 0.952 . S
C760 C759 1.379 . S
C760 C761 1.390 1_556 S
C760 H780 0.949 . S
C761 C760 1.390 1_554 S
C761 C762 1.357 . S
C762 C758 1.370 . S
C762 C761 1.357 . S
C762 H781 0.950 . S
Zn763 N757 2.020 . S
Zn763 O766 2.025 . S
Zn763 O771 2.024 . S
Zn763 O773 2.039 1_554 S
Zn763 O775 2.034 1_554 S
O764 C748 1.251 . S
O764 Zn755 2.039 . S
C765 O770 1.246 . S
C765 O771 1.249 . S
O766 C748 1.254 . S
O766 Zn763 2.025 . S
H767 C759 0.952 . S
H768 C750 0.952 . S
H769 C758 0.948 . S
O770 Zn755 2.034 . S
O770 C765 1.246 . S
O771 Zn763 2.024 . S
O771 C765 1.249 . S
H772 C754 0.948 . S
O773 Zn763 2.039 1_556 S
O773 C777 1.251 . S
O774 Zn755 2.025 1_556 S
O774 C777 1.254 . S
O775 C756 1.246 . S
O775 Zn763 2.034 1_556 S
O776 Zn755 2.024 1_556 S
O776 C756 1.249 . S
C777 O773 1.251 . S
C777 O774 1.254 . S
H778 C751 0.949 . S
H779 C753 0.950 . S
H780 C760 0.949 . S
H781 C762 0.950 . S
C782 O798 1.251 . S
C782 O800 1.254 . S
N783 C784 1.333 . S
N783 C788 1.307 . S
N783 Zn789 2.020 . S
C784 N783 1.333 . S
C784 C785 1.379 . S
C784 H802 0.952 . S
C785 C784 1.379 . S
C785 C786 1.390 . S
C785 H812 0.949 . S
C786 C785 1.390 . S
C786 C787 1.357 . S
C787 C786 1.357 . S
C787 C788 1.370 . S
C787 H813 0.950 . S
C788 N783 1.307 . S
C788 C787 1.370 . S
C788 H806 0.948 . S
Zn789 N783 2.020 . S
Zn789 O798 2.039 . S
Zn789 O804 2.034 . S
Zn789 O808 2.025 . S
Zn789 O810 2.024 . S
C790 O809 1.246 . S
C790 O810 1.249 . S
N791 C792 1.307 . S
N791 C793 1.333 . S
N791 Zn797 2.020 . S
C792 N791 1.307 . S
C792 C796 1.370 . S
C792 H803 0.948 . S
C793 N791 1.333 . S
C793 C794 1.379 . S
C793 H801 0.952 . S
C794 C793 1.379 . S
C794 C795 1.390 . S
C794 H814 0.949 . S
C795 C794 1.390 . S
C795 C796 1.357 . S
C796 C792 1.370 . S
C796 C795 1.357 . S
C796 H815 0.950 . S
Zn797 N791 2.020 . S
Zn797 O800 2.025 . S
Zn797 O805 2.024 . S
Zn797 O807 2.039 . S
Zn797 O809 2.034 . S
O798 C782 1.251 . S
O798 Zn789 2.039 . S
C799 O804 1.246 . S
C799 O805 1.249 . S
O800 C782 1.254 . S
O800 Zn797 2.025 . S
H801 C793 0.952 . S
H802 C784 0.952 . S
H803 C792 0.948 . S
O804 Zn789 2.034 . S
O804 C799 1.246 . S
O805 Zn797 2.024 . S
O805 C799 1.249 . S
H806 C788 0.948 . S
O807 Zn797 2.039 . S
O807 C811 1.251 . S
O808 Zn789 2.025 . S
O808 C811 1.254 . S
O809 C790 1.246 . S
O809 Zn797 2.034 . S
O810 Zn789 2.024 . S
O810 C790 1.249 . S
C811 O807 1.251 . S
C811 O808 1.254 . S
H812 C785 0.949 . S
H813 C787 0.950 . S
H814 C794 0.949 . S
H815 C796 0.950 . S
C816 O832 1.251 . S
C816 O834 1.254 . S
N817 C818 1.333 . S
N817 C822 1.307 . S
N817 Zn823 2.020 . S
C818 N817 1.333 . S
C818 C819 1.379 . S
C818 H836 0.952 . S
C819 C818 1.379 . S
C819 C820 1.390 . S
C819 H846 0.949 . S
C820 C819 1.390 . S
C820 C821 1.357 . S
C821 C820 1.357 . S
C821 C822 1.370 . S
C821 H847 0.950 . S
C822 N817 1.307 . S
C822 C821 1.370 . S
C822 H840 0.948 . S
Zn823 N817 2.020 . S
Zn823 O832 2.039 . S
Zn823 O838 2.034 . S
Zn823 O842 2.025 . S
Zn823 O844 2.024 . S
C824 O843 1.246 . S
C824 O844 1.249 . S
N825 C826 1.307 1_556 S
N825 C827 1.333 1_556 S
N825 Zn831 2.020 . S
C826 N825 1.307 1_554 S
C826 C830 1.370 . S
C826 H837 0.948 1_554 S
C827 N825 1.333 1_554 S
C827 C828 1.379 . S
C827 H835 0.952 . S
C828 C827 1.379 . S
C828 C829 1.390 . S
C828 H848 0.949 . S
C829 C828 1.390 . S
C829 C830 1.357 . S
C830 C826 1.370 . S
C830 C829 1.357 . S
C830 H849 0.950 . S
Zn831 N825 2.020 . S
Zn831 O834 2.025 . S
Zn831 O839 2.024 . S
Zn831 O841 2.039 . S
Zn831 O843 2.034 . S
O832 C816 1.251 . S
O832 Zn823 2.039 . S
C833 O838 1.246 . S
C833 O839 1.249 . S
O834 C816 1.254 . S
O834 Zn831 2.025 . S
H835 C827 0.952 . S
H836 C818 0.952 . S
H837 C826 0.948 1_556 S
O838 Zn823 2.034 . S
O838 C833 1.246 . S
O839 Zn831 2.024 . S
O839 C833 1.249 . S
H840 C822 0.948 . S
O841 Zn831 2.039 . S
O841 C845 1.251 . S
O842 Zn823 2.025 . S
O842 C845 1.254 . S
O843 C824 1.246 . S
O843 Zn831 2.034 . S
O844 Zn823 2.024 . S
O844 C824 1.249 . S
C845 O841 1.251 . S
C845 O842 1.254 . S
H846 C819 0.949 . S
H847 C821 0.950 . S
H848 C828 0.949 . S
H849 C830 0.950 . S
C850 O866 1.251 . S
C850 O868 1.254 . S
N851 C852 1.333 . S
N851 C856 1.307 . S
N851 Zn857 2.020 1_554 S
C852 N851 1.333 . S
C852 C853 1.379 . S
C852 H870 0.952 . S
C853 C852 1.379 . S
C853 C854 1.390 . S
C853 H880 0.949 . S
C854 C853 1.390 . S
C854 C855 1.357 . S
C855 C854 1.357 . S
C855 C856 1.370 . S
C855 H881 0.950 . S
C856 N851 1.307 . S
C856 C855 1.370 . S
C856 H874 0.948 . S
Zn857 N851 2.020 1_556 S
Zn857 O866 2.039 . S
Zn857 O872 2.034 . S
Zn857 O876 2.025 . S
Zn857 O878 2.024 . S
C858 O877 1.246 . S
C858 O878 1.249 . S
N859 C860 1.307 . S
N859 C861 1.333 . S
N859 Zn865 2.020 . S
C860 N859 1.307 . S
C860 C864 1.370 . S
C860 H871 0.948 . S
C861 N859 1.333 . S
C861 C862 1.379 . S
C861 H869 0.952 . S
C862 C861 1.379 . S
C862 C863 1.390 . S
C862 H882 0.949 . S
C863 C862 1.390 . S
C863 C864 1.357 . S
C864 C860 1.370 . S
C864 C863 1.357 . S
C864 H883 0.950 . S
Zn865 N859 2.020 . S
Zn865 O868 2.025 . S
Zn865 O873 2.024 . S
Zn865 O875 2.039 . S
Zn865 O877 2.034 . S
O866 C850 1.251 . S
O866 Zn857 2.039 . S
C867 O872 1.246 . S
C867 O873 1.249 . S
O868 C850 1.254 . S
O868 Zn865 2.025 . S
H869 C861 0.952 . S
H870 C852 0.952 . S
H871 C860 0.948 . S
O872 Zn857 2.034 . S
O872 C867 1.246 . S
O873 Zn865 2.024 . S
O873 C867 1.249 . S
H874 C856 0.948 . S
O875 Zn865 2.039 . S
O875 C879 1.251 . S
O876 Zn857 2.025 . S
O876 C879 1.254 . S
O877 C858 1.246 . S
O877 Zn865 2.034 . S
O878 Zn857 2.024 . S
O878 C858 1.249 . S
C879 O875 1.251 . S
C879 O876 1.254 . S
H880 C853 0.949 . S
H881 C855 0.950 . S
H882 C862 0.949 . S
H883 C864 0.950 . S
C884 O900 1.251 . S
C884 O902 1.254 . S
N885 C886 1.333 . S
N885 C890 1.307 . S
N885 Zn891 2.020 . S
C886 N885 1.333 . S
C886 C887 1.379 . S
C886 H904 0.952 . S
C887 C886 1.379 . S
C887 C888 1.390 . S
C887 H914 0.949 . S
C888 C887 1.390 . S
C888 C889 1.357 . S
C889 C888 1.357 . S
C889 C890 1.370 . S
C889 H915 0.950 . S
C890 N885 1.307 . S
C890 C889 1.370 . S
C890 H908 0.948 . S
Zn891 N885 2.020 . S
Zn891 O900 2.039 . S
Zn891 O906 2.034 . S
Zn891 O910 2.025 . S
Zn891 O912 2.024 . S
C892 O911 1.246 . S
C892 O912 1.249 . S
N893 C894 1.307 . S
N893 C895 1.333 . S
N893 Zn899 2.020 1_554 S
C894 N893 1.307 . S
C894 C898 1.370 . S
C894 H905 0.948 . S
C895 N893 1.333 . S
C895 C896 1.379 . S
C895 H903 0.952 . S
C896 C895 1.379 . S
C896 C897 1.390 . S
C896 H916 0.949 . S
C897 C896 1.390 . S
C897 C898 1.357 . S
C898 C894 1.370 . S
C898 C897 1.357 . S
C898 H917 0.950 . S
Zn899 N893 2.020 1_556 S
Zn899 O902 2.025 . S
Zn899 O907 2.024 . S
Zn899 O909 2.039 . S
Zn899 O911 2.034 . S
O900 C884 1.251 . S
O900 Zn891 2.039 . S
C901 O906 1.246 . S
C901 O907 1.249 . S
O902 C884 1.254 . S
O902 Zn899 2.025 . S
H903 C895 0.952 . S
H904 C886 0.952 . S
H905 C894 0.948 . S
O906 Zn891 2.034 . S
O906 C901 1.246 . S
O907 Zn899 2.024 . S
O907 C901 1.249 . S
H908 C890 0.948 . S
O909 Zn899 2.039 . S
O909 C913 1.251 . S
O910 Zn891 2.025 . S
O910 C913 1.254 . S
O911 C892 1.246 . S
O911 Zn899 2.034 . S
O912 Zn891 2.024 . S
O912 C892 1.249 . S
C913 O909 1.251 . S
C913 O910 1.254 . S
H914 C887 0.949 . S
H915 C889 0.950 . S
H916 C896 0.949 . S
H917 C898 0.950 . S
C918 O934 1.251 . S
C918 O936 1.254 . S
N919 C920 1.333 . S
N919 C924 1.307 . S
N919 Zn925 2.020 . S
C920 N919 1.333 . S
C920 C921 1.379 . S
C920 H938 0.952 . S
C921 C920 1.379 . S
C921 C922 1.390 . S
C921 H948 0.949 . S
C922 C921 1.390 . S
C922 C923 1.357 . S
C923 C922 1.357 . S
C923 C924 1.370 . S
C923 H949 0.950 . S
C924 N919 1.307 . S
C924 C923 1.370 . S
C924 H942 0.948 . S
Zn925 N919 2.020 . S
Zn925 O934 2.039 . S
Zn925 O940 2.034 . S
Zn925 O944 2.025 . S
Zn925 O946 2.024 . S
C926 O945 1.246 . S
C926 O946 1.249 . S
N927 C928 1.308 . S
N927 C929 1.316 1_556 S
N927 Zn933 2.020 . S
C928 N927 1.308 . S
C928 C932 1.369 1_556 S
C928 H939 0.949 . S
C929 N927 1.316 1_554 S
C929 C930 1.407 . S
C929 H937 0.941 1_554 S
C930 C929 1.407 . S
C930 C931 1.390 . S
C930 H950 0.949 . S
C931 C930 1.390 . S
C931 C932 1.357 . S
C932 C928 1.369 1_554 S
C932 C931 1.357 . S
C932 H951 0.950 . S
Zn933 N927 2.020 . S
Zn933 O936 2.025 . S
Zn933 O941 2.024 . S
Zn933 O943 2.039 . S
Zn933 O945 2.034 . S
O934 C918 1.251 . S
O934 Zn925 2.039 . S
C935 O940 1.246 . S
C935 O941 1.249 . S
O936 C918 1.254 . S
O936 Zn933 2.025 . S
H937 C929 0.941 1_556 S
H938 C920 0.952 . S
H939 C928 0.949 . S
O940 Zn925 2.034 . S
O940 C935 1.246 . S
O941 Zn933 2.024 . S
O941 C935 1.249 . S
H942 C924 0.948 . S
O943 Zn933 2.039 . S
O943 C947 1.251 . S
O944 Zn925 2.025 . S
O944 C947 1.254 . S
O945 C926 1.246 . S
O945 Zn933 2.034 . S
O946 Zn925 2.024 . S
O946 C926 1.249 . S
C947 O943 1.251 . S
C947 O944 1.254 . S
H948 C921 0.949 . S
H949 C923 0.950 . S
H950 C930 0.949 . S
H951 C932 0.950 . S
C952 O968 1.251 . S
C952 O970 1.254 . S
N953 C954 1.333 . S
N953 C958 1.307 . S
N953 Zn959 2.020 . S
C954 N953 1.333 . S
C954 C955 1.379 . S
C954 H972 0.952 . S
C955 C954 1.379 . S
C955 C956 1.390 . S
C955 H982 0.949 . S
C956 C955 1.390 . S
C956 C957 1.357 . S
C957 C956 1.357 . S
C957 C958 1.370 . S
C957 H983 0.950 . S
C958 N953 1.307 . S
C958 C957 1.370 . S
C958 H976 0.948 . S
Zn959 N953 2.020 . S
Zn959 O968 2.039 . S
Zn959 O974 2.034 . S
Zn959 O978 2.025 . S
Zn959 O980 2.024 . S
C960 O979 1.246 . S
C960 O980 1.249 . S
N961 C962 1.307 . S
N961 C963 1.333 . S
N961 Zn967 2.020 . S
C962 N961 1.307 . S
C962 C966 1.370 . S
C962 H973 0.948 . S
C963 N961 1.333 . S
C963 C964 1.379 . S
C963 H971 0.952 . S
C964 C963 1.379 . S
C964 C965 1.390 . S
C964 H984 0.949 . S
C965 C964 1.390 . S
C965 C966 1.357 . S
C966 C962 1.370 . S
C966 C965 1.357 . S
C966 H985 0.950 . S
Zn967 N961 2.020 . S
Zn967 O970 2.025 . S
Zn967 O975 2.024 . S
Zn967 O977 2.039 . S
Zn967 O979 2.034 . S
O968 C952 1.251 . S
O968 Zn959 2.039 . S
C969 O974 1.246 . S
C969 O975 1.249 . S
O970 C952 1.254 . S
O970 Zn967 2.025 . S
H971 C963 0.952 . S
H972 C954 0.952 . S
H973 C962 0.948 . S
O974 Zn959 2.034 . S
O974 C969 1.246 . S
O975 Zn967 2.024 . S
O975 C969 1.249 . S
H976 C958 0.948 . S
O977 Zn967 2.039 . S
O977 C981 1.251 . S
O978 Zn959 2.025 . S
O978 C981 1.254 . S
O979 C960 1.246 . S
O979 Zn967 2.034 . S
O980 Zn959 2.024 . S
O980 C960 1.249 . S
C981 O977 1.251 . S
C981 O978 1.254 . S
H982 C955 0.949 . S
H983 C957 0.950 . S
H984 C964 0.949 . S
H985 C966 0.950 . S
C986 O1002 1.251 . S
C986 O1004 1.254 . S
N987 C988 1.333 . S
N987 C992 1.307 . S
N987 Zn993 2.020 . S
C988 N987 1.333 . S
C988 C989 1.379 . S
C988 H1006 0.952 . S
C989 C988 1.379 . S
C989 C990 1.390 . S
C989 H1016 0.949 . S
C990 C989 1.390 . S
C990 C991 1.357 . S
C991 C990 1.357 . S
C991 C992 1.370 . S
C991 H1017 0.950 . S
C992 N987 1.307 . S
C992 C991 1.370 . S
C992 H1010 0.948 . S
Zn993 N987 2.020 . S
Zn993 O1002 2.039 . S
Zn993 O1008 2.034 . S
Zn993 O1012 2.025 . S
Zn993 O1014 2.024 . S
C994 O1013 1.246 . S
C994 O1014 1.249 . S
N995 C996 1.307 . S
N995 C997 1.333 . S
N995 Zn1001 2.020 . S
C996 N995 1.307 . S
C996 C1000 1.370 . S
C996 H1007 0.948 . S
C997 N995 1.333 . S
C997 C998 1.379 . S
C997 H1005 0.952 . S
C998 C997 1.379 . S
C998 C999 1.390 . S
C998 H1018 0.949 . S
C999 C998 1.390 . S
C999 C1000 1.357 . S
C1000 C996 1.370 . S
C1000 C999 1.357 . S
C1000 H1019 0.950 . S
Zn1001 N995 2.020 . S
Zn1001 O1004 2.025 . S
Zn1001 O1009 2.024 . S
Zn1001 O1011 2.039 . S
Zn1001 O1013 2.034 . S
O1002 C986 1.251 . S
O1002 Zn993 2.039 . S
C1003 O1008 1.246 . S
C1003 O1009 1.249 . S
O1004 C986 1.254 . S
O1004 Zn1001 2.025 . S
H1005 C997 0.952 . S
H1006 C988 0.952 . S
H1007 C996 0.948 . S
O1008 Zn993 2.034 . S
O1008 C1003 1.246 . S
O1009 Zn1001 2.024 . S
O1009 C1003 1.249 . S
H1010 C992 0.948 . S
O1011 Zn1001 2.039 . S
O1011 C1015 1.251 . S
O1012 Zn993 2.025 . S
O1012 C1015 1.254 . S
O1013 C994 1.246 . S
O1013 Zn1001 2.034 . S
O1014 Zn993 2.024 . S
O1014 C994 1.249 . S
C1015 O1011 1.251 . S
C1015 O1012 1.254 . S
H1016 C989 0.949 . S
H1017 C991 0.950 . S
H1018 C998 0.949 . S
H1019 C1000 0.950 . S
C1020 O1036 1.251 . S
C1020 O1038 1.254 . S
N1021 C1022 1.333 . S
N1021 C1026 1.307 . S
N1021 Zn1027 2.020 . S
C1022 N1021 1.333 . S
C1022 C1023 1.379 . S
C1022 H1040 0.952 . S
C1023 C1022 1.379 . S
C1023 C1024 1.390 . S
C1023 H1050 0.949 . S
C1024 C1023 1.390 . S
C1024 C1025 1.357 . S
C1025 C1024 1.357 . S
C1025 C1026 1.370 . S
C1025 H1051 0.950 . S
C1026 N1021 1.307 . S
C1026 C1025 1.370 . S
C1026 H1044 0.948 . S
Zn1027 N1021 2.020 . S
Zn1027 O1036 2.039 . S
Zn1027 O1042 2.034 . S
Zn1027 O1046 2.025 . S
Zn1027 O1048 2.024 . S
C1028 O1047 1.246 . S
C1028 O1048 1.249 . S
N1029 C1030 1.307 . S
N1029 C1031 1.333 . S
N1029 Zn1035 2.020 . S
C1030 N1029 1.307 . S
C1030 C1034 1.370 . S
C1030 H1041 0.948 . S
C1031 N1029 1.333 . S
C1031 C1032 1.379 . S
C1031 H1039 0.952 . S
C1032 C1031 1.379 . S
C1032 C1033 1.390 . S
C1032 H1052 0.949 . S
C1033 C1032 1.390 . S
C1033 C1034 1.357 . S
C1034 C1030 1.370 . S
C1034 C1033 1.357 . S
C1034 H1053 0.950 . S
Zn1035 N1029 2.020 . S
Zn1035 O1038 2.025 . S
Zn1035 O1043 2.024 . S
Zn1035 O1045 2.039 . S
Zn1035 O1047 2.034 . S
O1036 C1020 1.251 . S
O1036 Zn1027 2.039 . S
C1037 O1042 1.246 . S
C1037 O1043 1.249 . S
O1038 C1020 1.254 . S
O1038 Zn1035 2.025 . S
H1039 C1031 0.952 . S
H1040 C1022 0.952 . S
H1041 C1030 0.948 . S
O1042 Zn1027 2.034 . S
O1042 C1037 1.246 . S
O1043 Zn1035 2.024 . S
O1043 C1037 1.249 . S
H1044 C1026 0.948 . S
O1045 Zn1035 2.039 . S
O1045 C1049 1.251 . S
O1046 Zn1027 2.025 . S
O1046 C1049 1.254 . S
O1047 C1028 1.246 . S
O1047 Zn1035 2.034 . S
O1048 Zn1027 2.024 . S
O1048 C1028 1.249 . S
C1049 O1045 1.251 . S
C1049 O1046 1.254 . S
H1050 C1023 0.949 . S
H1051 C1025 0.950 . S
H1052 C1032 0.949 . S
H1053 C1034 0.950 . S
C1054 O1070 1.251 . S
C1054 O1072 1.254 . S
N1055 C1056 1.333 . S
N1055 C1060 1.307 . S
N1055 Zn1061 2.020 . S
C1056 N1055 1.333 . S
C1056 C1057 1.379 . S
C1056 H1074 0.952 . S
C1057 C1056 1.379 . S
C1057 C1058 1.390 . S
C1057 H1084 0.949 . S
C1058 C1057 1.390 . S
C1058 C1059 1.357 . S
C1059 C1058 1.357 . S
C1059 C1060 1.370 . S
C1059 H1085 0.950 . S
C1060 N1055 1.307 . S
C1060 C1059 1.370 . S
C1060 H1078 0.948 . S
Zn1061 N1055 2.020 . S
Zn1061 O1070 2.039 . S
Zn1061 O1076 2.034 . S
Zn1061 O1080 2.025 . S
Zn1061 O1082 2.024 . S
C1062 O1081 1.246 . S
C1062 O1082 1.249 . S
N1063 C1064 1.307 . S
N1063 C1065 1.333 . S
N1063 Zn1069 2.020 . S
C1064 N1063 1.307 . S
C1064 C1068 1.370 . S
C1064 H1075 0.948 . S
C1065 N1063 1.333 . S
C1065 C1066 1.379 . S
C1065 H1073 0.952 . S
C1066 C1065 1.379 . S
C1066 C1067 1.390 . S
C1066 H1086 0.949 . S
C1067 C1066 1.390 . S
C1067 C1068 1.357 . S
C1068 C1064 1.370 . S
C1068 C1067 1.357 . S
C1068 H1087 0.950 . S
Zn1069 N1063 2.020 . S
Zn1069 O1072 2.025 . S
Zn1069 O1077 2.024 . S
Zn1069 O1079 2.039 . S
Zn1069 O1081 2.034 . S
O1070 C1054 1.251 . S
O1070 Zn1061 2.039 . S
C1071 O1076 1.246 . S
C1071 O1077 1.249 . S
O1072 C1054 1.254 . S
O1072 Zn1069 2.025 . S
H1073 C1065 0.952 . S
H1074 C1056 0.952 . S
H1075 C1064 0.948 . S
O1076 Zn1061 2.034 . S
O1076 C1071 1.246 . S
O1077 Zn1069 2.024 . S
O1077 C1071 1.249 . S
H1078 C1060 0.948 . S
O1079 Zn1069 2.039 . S
O1079 C1083 1.251 . S
O1080 Zn1061 2.025 . S
O1080 C1083 1.254 . S
O1081 C1062 1.246 . S
O1081 Zn1069 2.034 . S
O1082 Zn1061 2.024 . S
O1082 C1062 1.249 . S
C1083 O1079 1.251 . S
C1083 O1080 1.254 . S
H1084 C1057 0.949 . S
H1085 C1059 0.950 . S
H1086 C1066 0.949 . S
H1087 C1068 0.950 . S
C1088 O1104 1.251 . S
C1088 O1106 1.254 . S
N1089 C1090 1.333 . S
N1089 C1094 1.307 . S
N1089 Zn1095 2.020 . S
C1090 N1089 1.333 . S
C1090 C1091 1.379 . S
C1090 H1108 0.952 . S
C1091 C1090 1.379 . S
C1091 C1092 1.390 . S
C1091 H1118 0.949 . S
C1092 C1091 1.390 . S
C1092 C1093 1.357 . S
C1093 C1092 1.357 . S
C1093 C1094 1.370 . S
C1093 H1119 0.950 . S
C1094 N1089 1.307 . S
C1094 C1093 1.370 . S
C1094 H1112 0.948 . S
Zn1095 N1089 2.020 . S
Zn1095 O1104 2.039 . S
Zn1095 O1110 2.034 . S
Zn1095 O1114 2.025 . S
Zn1095 O1116 2.024 . S
C1096 O1115 1.246 . S
C1096 O1116 1.249 . S
N1097 C1098 1.307 . S
N1097 C1099 1.333 . S
N1097 Zn1103 2.020 . S
C1098 N1097 1.307 . S
C1098 C1102 1.370 . S
C1098 H1109 0.948 . S
C1099 N1097 1.333 . S
C1099 C1100 1.379 . S
C1099 H1107 0.952 . S
C1100 C1099 1.379 . S
C1100 C1101 1.390 . S
C1100 H1120 0.949 . S
C1101 C1100 1.390 . S
C1101 C1102 1.357 . S
C1102 C1098 1.370 . S
C1102 C1101 1.357 . S
C1102 H1121 0.950 . S
Zn1103 N1097 2.020 . S
Zn1103 O1106 2.025 . S
Zn1103 O1111 2.024 . S
Zn1103 O1113 2.039 . S
Zn1103 O1115 2.034 . S
O1104 C1088 1.251 . S
O1104 Zn1095 2.039 . S
C1105 O1110 1.246 . S
C1105 O1111 1.249 . S
O1106 C1088 1.254 . S
O1106 Zn1103 2.025 . S
H1107 C1099 0.952 . S
H1108 C1090 0.952 . S
H1109 C1098 0.948 . S
O1110 Zn1095 2.034 . S
O1110 C1105 1.246 . S
O1111 Zn1103 2.024 . S
O1111 C1105 1.249 . S
H1112 C1094 0.948 . S
O1113 Zn1103 2.039 . S
O1113 C1117 1.251 . S
O1114 Zn1095 2.025 . S
O1114 C1117 1.254 . S
O1115 C1096 1.246 . S
O1115 Zn1103 2.034 . S
O1116 Zn1095 2.024 . S
O1116 C1096 1.249 . S
C1117 O1113 1.251 . S
C1117 O1114 1.254 . S
H1118 C1091 0.949 . S
H1119 C1093 0.950 . S
H1120 C1100 0.949 . S
H1121 C1102 0.950 . S
C1122 O1138 1.251 . S
C1122 O1140 1.254 . S
N1123 C1124 1.333 . S
N1123 C1128 1.307 . S
N1123 Zn1129 2.020 . S
C1124 N1123 1.333 . S
C1124 C1125 1.379 . S
C1124 H1142 0.952 . S
C1125 C1124 1.379 . S
C1125 C1126 1.390 . S
C1125 H1152 0.949 . S
C1126 C1125 1.390 . S
C1126 C1127 1.357 . S
C1127 C1126 1.357 . S
C1127 C1128 1.370 . S
C1127 H1153 0.950 . S
C1128 N1123 1.307 . S
C1128 C1127 1.370 . S
C1128 H1146 0.948 . S
Zn1129 N1123 2.020 . S
Zn1129 O1138 2.039 . S
Zn1129 O1144 2.034 . S
Zn1129 O1148 2.025 . S
Zn1129 O1150 2.024 . S
C1130 O1149 1.246 . S
C1130 O1150 1.249 . S
N1131 C1132 1.307 . S
N1131 C1133 1.333 . S
N1131 Zn1137 2.020 . S
C1132 N1131 1.307 . S
C1132 C1136 1.370 1_565 S
C1132 H1143 0.948 . S
C1133 N1131 1.333 . S
C1133 C1134 1.379 1_565 S
C1133 H1141 0.952 . S
C1134 C1133 1.379 1_545 S
C1134 C1135 1.390 . S
C1134 H1154 0.949 . S
C1135 C1134 1.390 . S
C1135 C1136 1.357 . S
C1136 C1132 1.370 1_545 S
C1136 C1135 1.357 . S
C1136 H1155 0.950 . S
Zn1137 N1131 2.020 . S
Zn1137 O1140 2.025 . S
Zn1137 O1145 2.024 . S
Zn1137 O1147 2.039 . S
Zn1137 O1149 2.034 . S
O1138 C1122 1.251 . S
O1138 Zn1129 2.039 . S
C1139 O1144 1.246 . S
C1139 O1145 1.249 . S
O1140 C1122 1.254 . S
O1140 Zn1137 2.025 . S
H1141 C1133 0.952 . S
H1142 C1124 0.952 . S
H1143 C1132 0.948 . S
O1144 Zn1129 2.034 . S
O1144 C1139 1.246 . S
O1145 Zn1137 2.024 . S
O1145 C1139 1.249 . S
H1146 C1128 0.948 . S
O1147 Zn1137 2.039 . S
O1147 C1151 1.251 . S
O1148 Zn1129 2.025 . S
O1148 C1151 1.254 . S
O1149 C1130 1.246 . S
O1149 Zn1137 2.034 . S
O1150 Zn1129 2.024 . S
O1150 C1130 1.249 . S
C1151 O1147 1.251 . S
C1151 O1148 1.254 . S
H1152 C1125 0.949 . S
H1153 C1127 0.950 . S
H1154 C1134 0.949 . S
H1155 C1136 0.950 . S
C1156 O1172 1.251 . S
C1156 O1174 1.254 . S
N1157 C1158 1.333 . S
N1157 C1162 1.307 . S
N1157 Zn1163 2.020 . S
C1158 N1157 1.333 . S
C1158 C1159 1.379 . S
C1158 H1176 0.952 . S
C1159 C1158 1.379 . S
C1159 C1160 1.390 . S
C1159 H1186 0.949 . S
C1160 C1159 1.390 . S
C1160 C1161 1.357 . S
C1161 C1160 1.357 . S
C1161 C1162 1.370 . S
C1161 H1187 0.950 . S
C1162 N1157 1.307 . S
C1162 C1161 1.370 . S
C1162 H1180 0.948 . S
Zn1163 N1157 2.020 . S
Zn1163 O1172 2.039 . S
Zn1163 O1178 2.034 . S
Zn1163 O1182 2.025 . S
Zn1163 O1184 2.024 . S
C1164 O1183 1.246 . S
C1164 O1184 1.249 . S
N1165 C1166 1.307 . S
N1165 C1167 1.333 . S
N1165 Zn1171 2.020 . S
C1166 N1165 1.307 . S
C1166 C1170 1.370 1_455 S
C1166 H1177 0.948 . S
C1167 N1165 1.333 . S
C1167 C1168 1.379 1_455 S
C1167 H1175 0.952 . S
C1168 C1167 1.379 1_655 S
C1168 C1169 1.390 . S
C1168 H1188 0.949 . S
C1169 C1168 1.390 . S
C1169 C1170 1.357 . S
C1170 C1166 1.370 1_655 S
C1170 C1169 1.357 . S
C1170 H1189 0.950 . S
Zn1171 N1165 2.020 . S
Zn1171 O1174 2.025 . S
Zn1171 O1179 2.024 . S
Zn1171 O1181 2.039 . S
Zn1171 O1183 2.034 . S
O1172 C1156 1.251 . S
O1172 Zn1163 2.039 . S
C1173 O1178 1.246 . S
C1173 O1179 1.249 . S
O1174 C1156 1.254 . S
O1174 Zn1171 2.025 . S
H1175 C1167 0.952 . S
H1176 C1158 0.952 . S
H1177 C1166 0.948 . S
O1178 Zn1163 2.034 . S
O1178 C1173 1.246 . S
O1179 Zn1171 2.024 . S
O1179 C1173 1.249 . S
H1180 C1162 0.948 . S
O1181 Zn1171 2.039 . S
O1181 C1185 1.251 . S
O1182 Zn1163 2.025 . S
O1182 C1185 1.254 . S
O1183 C1164 1.246 . S
O1183 Zn1171 2.034 . S
O1184 Zn1163 2.024 . S
O1184 C1164 1.249 . S
C1185 O1181 1.251 . S
C1185 O1182 1.254 . S
H1186 C1159 0.949 . S
H1187 C1161 0.950 . S
H1188 C1168 0.949 . S
H1189 C1170 0.950 . S
C1190 O1206 1.251 . S
C1190 O1208 1.254 . S
N1191 C1192 1.333 . S
N1191 C1196 1.307 . S
N1191 Zn1197 2.020 . S
C1192 N1191 1.333 . S
C1192 C1193 1.379 . S
C1192 H1210 0.952 . S
C1193 C1192 1.379 . S
C1193 C1194 1.390 . S
C1193 H1220 0.949 . S
C1194 C1193 1.390 . S
C1194 C1195 1.357 . S
C1195 C1194 1.357 . S
C1195 C1196 1.370 . S
C1195 H1221 0.950 . S
C1196 N1191 1.307 . S
C1196 C1195 1.370 . S
C1196 H1214 0.948 . S
Zn1197 N1191 2.020 . S
Zn1197 O1206 2.039 . S
Zn1197 O1212 2.034 . S
Zn1197 O1216 2.025 . S
Zn1197 O1218 2.024 . S
C1198 O1217 1.246 . S
C1198 O1218 1.249 . S
N1199 C1200 1.307 . S
N1199 C1201 1.333 . S
N1199 Zn1205 2.020 . S
C1200 N1199 1.307 . S
C1200 C1204 1.370 . S
C1200 H1211 0.948 . S
C1201 N1199 1.333 . S
C1201 C1202 1.379 . S
C1201 H1209 0.952 . S
C1202 C1201 1.379 . S
C1202 C1203 1.390 1_545 S
C1202 H1222 0.949 1_545 S
C1203 C1202 1.390 1_565 S
C1203 C1204 1.357 1_565 S
C1204 C1200 1.370 . S
C1204 C1203 1.357 1_545 S
C1204 H1223 0.950 . S
Zn1205 N1199 2.020 . S
Zn1205 O1208 2.025 . S
Zn1205 O1213 2.024 . S
Zn1205 O1215 2.039 . S
Zn1205 O1217 2.034 . S
O1206 C1190 1.251 . S
O1206 Zn1197 2.039 . S
C1207 O1212 1.246 . S
C1207 O1213 1.249 . S
O1208 C1190 1.254 . S
O1208 Zn1205 2.025 . S
H1209 C1201 0.952 . S
H1210 C1192 0.952 . S
H1211 C1200 0.948 . S
O1212 Zn1197 2.034 . S
O1212 C1207 1.246 . S
O1213 Zn1205 2.024 . S
O1213 C1207 1.249 . S
H1214 C1196 0.948 . S
O1215 Zn1205 2.039 . S
O1215 C1219 1.251 . S
O1216 Zn1197 2.025 . S
O1216 C1219 1.254 . S
O1217 C1198 1.246 . S
O1217 Zn1205 2.034 . S
O1218 Zn1197 2.024 . S
O1218 C1198 1.249 . S
C1219 O1215 1.251 . S
C1219 O1216 1.254 . S
H1220 C1193 0.949 . S
H1221 C1195 0.950 . S
H1222 C1202 0.949 1_565 S
H1223 C1204 0.950 . S
C1224 O1240 1.251 . S
C1224 O1242 1.254 . S
N1225 C1226 1.333 . S
N1225 C1230 1.307 . S
N1225 Zn1231 2.020 1_455 S
C1226 N1225 1.333 . S
C1226 C1227 1.379 . S
C1226 H1244 0.952 . S
C1227 C1226 1.379 . S
C1227 C1228 1.390 . S
C1227 H1254 0.949 . S
C1228 C1227 1.390 . S
C1228 C1229 1.357 . S
C1229 C1228 1.357 . S
C1229 C1230 1.370 . S
C1229 H1255 0.950 . S
C1230 N1225 1.307 . S
C1230 C1229 1.370 . S
C1230 H1248 0.948 . S
Zn1231 N1225 2.020 1_655 S
Zn1231 O1240 2.039 . S
Zn1231 O1246 2.034 . S
Zn1231 O1250 2.025 . S
Zn1231 O1252 2.024 . S
C1232 O1251 1.246 . S
C1232 O1252 1.249 . S
N1233 C1234 1.307 . S
N1233 C1235 1.333 . S
N1233 Zn1239 2.020 . S
C1234 N1233 1.307 . S
C1234 C1238 1.370 . S
C1234 H1245 0.948 . S
C1235 N1233 1.333 . S
C1235 C1236 1.379 . S
C1235 H1243 0.952 . S
C1236 C1235 1.379 . S
C1236 C1237 1.390 . S
C1236 H1256 0.949 . S
C1237 C1236 1.390 . S
C1237 C1238 1.357 . S
C1238 C1234 1.370 . S
C1238 C1237 1.357 . S
C1238 H1257 0.950 . S
Zn1239 N1233 2.020 . S
Zn1239 O1242 2.025 . S
Zn1239 O1247 2.024 . S
Zn1239 O1249 2.039 . S
Zn1239 O1251 2.034 . S
O1240 C1224 1.251 . S
O1240 Zn1231 2.039 . S
C1241 O1246 1.246 . S
C1241 O1247 1.249 . S
O1242 C1224 1.254 . S
O1242 Zn1239 2.025 . S
H1243 C1235 0.952 . S
H1244 C1226 0.952 . S
H1245 C1234 0.948 . S
O1246 Zn1231 2.034 . S
O1246 C1241 1.246 . S
O1247 Zn1239 2.024 . S
O1247 C1241 1.249 . S
H1248 C1230 0.948 . S
O1249 Zn1239 2.039 . S
O1249 C1253 1.251 . S
O1250 Zn1231 2.025 . S
O1250 C1253 1.254 . S
O1251 C1232 1.246 . S
O1251 Zn1239 2.034 . S
O1252 Zn1231 2.024 . S
O1252 C1232 1.249 . S
C1253 O1249 1.251 . S
C1253 O1250 1.254 . S
H1254 C1227 0.949 . S
H1255 C1229 0.950 . S
H1256 C1236 0.949 . S
H1257 C1238 0.950 . S
C1258 O1274 1.251 . S
C1258 O1276 1.254 . S
N1259 C1260 1.333 . S
N1259 C1264 1.307 . S
N1259 Zn1265 2.020 . S
C1260 N1259 1.333 . S
C1260 C1261 1.379 1_565 S
C1260 H1278 0.952 . S
C1261 C1260 1.379 1_545 S
C1261 C1262 1.390 . S
C1261 H1288 0.949 . S
C1262 C1261 1.390 . S
C1262 C1263 1.357 . S
C1263 C1262 1.357 . S
C1263 C1264 1.370 1_545 S
C1263 H1289 0.950 . S
C1264 N1259 1.307 . S
C1264 C1263 1.370 1_565 S
C1264 H1282 0.948 . S
Zn1265 N1259 2.020 . S
Zn1265 O1274 2.039 . S
Zn1265 O1280 2.034 . S
Zn1265 O1284 2.025 . S
Zn1265 O1286 2.024 . S
C1266 O1285 1.246 . S
C1266 O1286 1.249 . S
N1267 C1268 1.307 . S
N1267 C1269 1.333 . S
N1267 Zn1273 2.020 . S
C1268 N1267 1.307 . S
C1268 C1272 1.370 . S
C1268 H1279 0.948 . S
C1269 N1267 1.333 . S
C1269 C1270 1.379 . S
C1269 H1277 0.952 . S
C1270 C1269 1.379 . S
C1270 C1271 1.390 . S
C1270 H1290 0.949 . S
C1271 C1270 1.390 . S
C1271 C1272 1.357 . S
C1272 C1268 1.370 . S
C1272 C1271 1.357 . S
C1272 H1291 0.950 . S
Zn1273 N1267 2.020 . S
Zn1273 O1276 2.025 . S
Zn1273 O1281 2.024 . S
Zn1273 O1283 2.039 . S
Zn1273 O1285 2.034 . S
O1274 C1258 1.251 . S
O1274 Zn1265 2.039 . S
C1275 O1280 1.246 . S
C1275 O1281 1.249 . S
O1276 C1258 1.254 . S
O1276 Zn1273 2.025 . S
H1277 C1269 0.952 . S
H1278 C1260 0.952 . S
H1279 C1268 0.948 . S
O1280 Zn1265 2.034 . S
O1280 C1275 1.246 . S
O1281 Zn1273 2.024 . S
O1281 C1275 1.249 . S
H1282 C1264 0.948 . S
O1283 Zn1273 2.039 . S
O1283 C1287 1.251 . S
O1284 Zn1265 2.025 . S
O1284 C1287 1.254 . S
O1285 C1266 1.246 . S
O1285 Zn1273 2.034 . S
O1286 Zn1265 2.024 . S
O1286 C1266 1.249 . S
C1287 O1283 1.251 . S
C1287 O1284 1.254 . S
H1288 C1261 0.949 . S
H1289 C1263 0.950 . S
H1290 C1270 0.949 . S
H1291 C1272 0.950 . S
C1292 O1308 1.251 . S
C1292 O1310 1.254 . S
N1293 C1294 1.333 . S
N1293 C1298 1.307 . S
N1293 Zn1299 2.020 . S
C1294 N1293 1.333 . S
C1294 C1295 1.379 . S
C1294 H1312 0.952 . S
C1295 C1294 1.379 . S
C1295 C1296 1.390 . S
C1295 H1322 0.949 . S
C1296 C1295 1.390 . S
C1296 C1297 1.357 . S
C1297 C1296 1.357 . S
C1297 C1298 1.370 . S
C1297 H1323 0.950 . S
C1298 N1293 1.307 . S
C1298 C1297 1.370 . S
C1298 H1316 0.948 . S
Zn1299 N1293 2.020 . S
Zn1299 O1308 2.039 . S
Zn1299 O1314 2.034 . S
Zn1299 O1318 2.025 . S
Zn1299 O1320 2.024 . S
C1300 O1319 1.246 . S
C1300 O1320 1.249 . S
N1301 C1302 1.307 . S
N1301 C1303 1.333 . S
N1301 Zn1307 2.020 . S
C1302 N1301 1.307 . S
C1302 C1306 1.370 . S
C1302 H1313 0.948 . S
C1303 N1301 1.333 . S
C1303 C1304 1.379 . S
C1303 H1311 0.952 . S
C1304 C1303 1.379 . S
C1304 C1305 1.390 . S
C1304 H1324 0.949 . S
C1305 C1304 1.390 . S
C1305 C1306 1.357 . S
C1306 C1302 1.370 . S
C1306 C1305 1.357 . S
C1306 H1325 0.950 . S
Zn1307 N1301 2.020 . S
Zn1307 O1310 2.025 . S
Zn1307 O1315 2.024 . S
Zn1307 O1317 2.039 . S
Zn1307 O1319 2.034 . S
O1308 C1292 1.251 . S
O1308 Zn1299 2.039 . S
C1309 O1314 1.246 . S
C1309 O1315 1.249 . S
O1310 C1292 1.254 . S
O1310 Zn1307 2.025 . S
H1311 C1303 0.952 . S
H1312 C1294 0.952 . S
H1313 C1302 0.948 . S
O1314 Zn1299 2.034 . S
O1314 C1309 1.246 . S
O1315 Zn1307 2.024 . S
O1315 C1309 1.249 . S
H1316 C1298 0.948 . S
O1317 Zn1307 2.039 . S
O1317 C1321 1.251 . S
O1318 Zn1299 2.025 . S
O1318 C1321 1.254 . S
O1319 C1300 1.246 . S
O1319 Zn1307 2.034 . S
O1320 Zn1299 2.024 . S
O1320 C1300 1.249 . S
C1321 O1317 1.251 . S
C1321 O1318 1.254 . S
H1322 C1295 0.949 . S
H1323 C1297 0.950 . S
H1324 C1304 0.949 . S
H1325 C1306 0.950 . S
C1326 O1342 1.251 . S
C1326 O1344 1.254 . S
N1327 C1328 1.333 . S
N1327 C1332 1.307 . S
N1327 Zn1333 2.020 . S
C1328 N1327 1.333 . S
C1328 C1329 1.379 . S
C1328 H1346 0.952 . S
C1329 C1328 1.379 . S
C1329 C1330 1.390 . S
C1329 H1356 0.949 . S
C1330 C1329 1.390 . S
C1330 C1331 1.357 . S
C1331 C1330 1.357 . S
C1331 C1332 1.370 . S
C1331 H1357 0.950 . S
C1332 N1327 1.307 . S
C1332 C1331 1.370 . S
C1332 H1350 0.948 . S
Zn1333 N1327 2.020 . S
Zn1333 O1342 2.039 . S
Zn1333 O1348 2.034 . S
Zn1333 O1352 2.025 . S
Zn1333 O1354 2.024 . S
C1334 O1353 1.246 . S
C1334 O1354 1.249 . S
N1335 C1336 1.307 . S
N1335 C1337 1.333 . S
N1335 Zn1341 2.020 . S
C1336 N1335 1.307 . S
C1336 C1340 1.370 . S
C1336 H1347 0.948 . S
C1337 N1335 1.333 . S
C1337 C1338 1.379 . S
C1337 H1345 0.952 . S
C1338 C1337 1.379 . S
C1338 C1339 1.390 . S
C1338 H1358 0.949 . S
C1339 C1338 1.390 . S
C1339 C1340 1.357 . S
C1340 C1336 1.370 . S
C1340 C1339 1.357 . S
C1340 H1359 0.950 . S
Zn1341 N1335 2.020 . S
Zn1341 O1344 2.025 . S
Zn1341 O1349 2.024 . S
Zn1341 O1351 2.039 . S
Zn1341 O1353 2.034 . S
O1342 C1326 1.251 . S
O1342 Zn1333 2.039 . S
C1343 O1348 1.246 . S
C1343 O1349 1.249 . S
O1344 C1326 1.254 . S
O1344 Zn1341 2.025 . S
H1345 C1337 0.952 . S
H1346 C1328 0.952 . S
H1347 C1336 0.948 . S
O1348 Zn1333 2.034 . S
O1348 C1343 1.246 . S
O1349 Zn1341 2.024 . S
O1349 C1343 1.249 . S
H1350 C1332 0.948 . S
O1351 Zn1341 2.039 . S
O1351 C1355 1.251 . S
O1352 Zn1333 2.025 . S
O1352 C1355 1.254 . S
O1353 C1334 1.246 . S
O1353 Zn1341 2.034 . S
O1354 Zn1333 2.024 . S
O1354 C1334 1.249 . S
C1355 O1351 1.251 . S
C1355 O1352 1.254 . S
H1356 C1329 0.949 . S
H1357 C1331 0.950 . S
H1358 C1338 0.949 . S
H1359 C1340 0.950 . S
C1360 O1376 1.251 . S
C1360 O1378 1.254 . S
N1361 C1362 1.333 . S
N1361 C1366 1.307 . S
N1361 Zn1367 2.020 . S
C1362 N1361 1.333 . S
C1362 C1363 1.379 . S
C1362 H1380 0.952 . S
C1363 C1362 1.379 . S
C1363 C1364 1.390 . S
C1363 H1390 0.949 . S
C1364 C1363 1.390 . S
C1364 C1365 1.357 . S
C1365 C1364 1.357 . S
C1365 C1366 1.370 . S
C1365 H1391 0.950 . S
C1366 N1361 1.307 . S
C1366 C1365 1.370 . S
C1366 H1384 0.948 . S
Zn1367 N1361 2.020 . S
Zn1367 O1376 2.039 . S
Zn1367 O1382 2.034 . S
Zn1367 O1386 2.025 . S
Zn1367 O1388 2.024 . S
C1368 O1387 1.246 . S
C1368 O1388 1.249 . S
N1369 C1370 1.307 . S
N1369 C1371 1.333 . S
N1369 Zn1375 2.020 . S
C1370 N1369 1.307 . S
C1370 C1374 1.370 1_565 S
C1370 H1381 0.948 . S
C1371 N1369 1.333 . S
C1371 C1372 1.379 1_565 S
C1371 H1379 0.952 . S
C1372 C1371 1.379 1_545 S
C1372 C1373 1.390 . S
C1372 H1392 0.949 . S
C1373 C1372 1.390 . S
C1373 C1374 1.357 . S
C1374 C1370 1.370 1_545 S
C1374 C1373 1.357 . S
C1374 H1393 0.950 . S
Zn1375 N1369 2.020 . S
Zn1375 O1378 2.025 . S
Zn1375 O1383 2.024 . S
Zn1375 O1385 2.039 . S
Zn1375 O1387 2.034 . S
O1376 C1360 1.251 . S
O1376 Zn1367 2.039 . S
C1377 O1382 1.246 . S
C1377 O1383 1.249 . S
O1378 C1360 1.254 . S
O1378 Zn1375 2.025 . S
H1379 C1371 0.952 . S
H1380 C1362 0.952 . S
H1381 C1370 0.948 . S
O1382 Zn1367 2.034 . S
O1382 C1377 1.246 . S
O1383 Zn1375 2.024 . S
O1383 C1377 1.249 . S
H1384 C1366 0.948 . S
O1385 Zn1375 2.039 . S
O1385 C1389 1.251 . S
O1386 Zn1367 2.025 . S
O1386 C1389 1.254 . S
O1387 C1368 1.246 . S
O1387 Zn1375 2.034 . S
O1388 Zn1367 2.024 . S
O1388 C1368 1.249 . S
C1389 O1385 1.251 . S
C1389 O1386 1.254 . S
H1390 C1363 0.949 . S
H1391 C1365 0.950 . S
H1392 C1372 0.949 . S
H1393 C1374 0.950 . S
C1394 O1410 1.251 . S
C1394 O1412 1.254 . S
N1395 C1396 1.333 . S
N1395 C1400 1.307 . S
N1395 Zn1401 2.020 . S
C1396 N1395 1.333 . S
C1396 C1397 1.379 . S
C1396 H1414 0.952 . S
C1397 C1396 1.379 . S
C1397 C1398 1.390 . S
C1397 H1424 0.949 . S
C1398 C1397 1.390 . S
C1398 C1399 1.357 . S
C1399 C1398 1.357 . S
C1399 C1400 1.370 . S
C1399 H1425 0.950 . S
C1400 N1395 1.307 . S
C1400 C1399 1.370 . S
C1400 H1418 0.948 . S
Zn1401 N1395 2.020 . S
Zn1401 O1410 2.039 . S
Zn1401 O1416 2.034 . S
Zn1401 O1420 2.025 . S
Zn1401 O1422 2.024 . S
C1402 O1421 1.246 . S
C1402 O1422 1.249 . S
N1403 C1404 1.307 . S
N1403 C1405 1.333 . S
N1403 Zn1409 2.020 . S
C1404 N1403 1.307 . S
C1404 C1408 1.370 . S
C1404 H1415 0.948 . S
C1405 N1403 1.333 . S
C1405 C1406 1.379 . S
C1405 H1413 0.952 . S
C1406 C1405 1.379 . S
C1406 C1407 1.390 1_545 S
C1406 H1426 0.949 1_545 S
C1407 C1406 1.390 1_565 S
C1407 C1408 1.357 1_565 S
C1408 C1404 1.370 . S
C1408 C1407 1.357 1_545 S
C1408 H1427 0.950 . S
Zn1409 N1403 2.020 . S
Zn1409 O1412 2.025 . S
Zn1409 O1417 2.024 . S
Zn1409 O1419 2.039 . S
Zn1409 O1421 2.034 . S
O1410 C1394 1.251 . S
O1410 Zn1401 2.039 . S
C1411 O1416 1.246 . S
C1411 O1417 1.249 . S
O1412 C1394 1.254 . S
O1412 Zn1409 2.025 . S
H1413 C1405 0.952 . S
H1414 C1396 0.952 . S
H1415 C1404 0.948 . S
O1416 Zn1401 2.034 . S
O1416 C1411 1.246 . S
O1417 Zn1409 2.024 . S
O1417 C1411 1.249 . S
H1418 C1400 0.948 . S
O1419 Zn1409 2.039 . S
O1419 C1423 1.251 . S
O1420 Zn1401 2.025 . S
O1420 C1423 1.254 . S
O1421 C1402 1.246 . S
O1421 Zn1409 2.034 . S
O1422 Zn1401 2.024 . S
O1422 C1402 1.249 . S
C1423 O1419 1.251 . S
C1423 O1420 1.254 . S
H1424 C1397 0.949 . S
H1425 C1399 0.950 . S
H1426 C1406 0.949 1_565 S
H1427 C1408 0.950 . S
C1428 O1444 1.251 . S
C1428 O1446 1.254 . S
N1429 C1430 1.333 . S
N1429 C1434 1.307 . S
N1429 Zn1435 2.020 . S
C1430 N1429 1.333 . S
C1430 C1431 1.379 . S
C1430 H1448 0.952 . S
C1431 C1430 1.379 . S
C1431 C1432 1.390 . S
C1431 H1458 0.949 . S
C1432 C1431 1.390 . S
C1432 C1433 1.357 . S
C1433 C1432 1.357 . S
C1433 C1434 1.370 . S
C1433 H1459 0.950 . S
C1434 N1429 1.307 . S
C1434 C1433 1.370 . S
C1434 H1452 0.948 . S
Zn1435 N1429 2.020 . S
Zn1435 O1444 2.039 . S
Zn1435 O1450 2.034 . S
Zn1435 O1454 2.025 . S
Zn1435 O1456 2.024 . S
C1436 O1455 1.246 . S
C1436 O1456 1.249 . S
N1437 C1438 1.307 1_655 S
N1437 C1439 1.333 1_655 S
N1437 Zn1443 2.020 . S
C1438 N1437 1.307 1_455 S
C1438 C1442 1.370 . S
C1438 H1449 0.948 1_455 S
C1439 N1437 1.333 1_455 S
C1439 C1440 1.379 . S
C1439 H1447 0.952 1_455 S
C1440 C1439 1.379 . S
C1440 C1441 1.390 . S
C1440 H1460 0.949 . S
C1441 C1440 1.390 . S
C1441 C1442 1.357 . S
C1442 C1438 1.370 . S
C1442 C1441 1.357 . S
C1442 H1461 0.950 . S
Zn1443 N1437 2.020 . S
Zn1443 O1446 2.025 . S
Zn1443 O1451 2.024 . S
Zn1443 O1453 2.039 . S
Zn1443 O1455 2.034 . S
O1444 C1428 1.251 . S
O1444 Zn1435 2.039 . S
C1445 O1450 1.246 . S
C1445 O1451 1.249 . S
O1446 C1428 1.254 . S
O1446 Zn1443 2.025 . S
H1447 C1439 0.952 1_655 S
H1448 C1430 0.952 . S
H1449 C1438 0.948 1_655 S
O1450 Zn1435 2.034 . S
O1450 C1445 1.246 . S
O1451 Zn1443 2.024 . S
O1451 C1445 1.249 . S
H1452 C1434 0.948 . S
O1453 Zn1443 2.039 . S
O1453 C1457 1.251 . S
O1454 Zn1435 2.025 . S
O1454 C1457 1.254 . S
O1455 C1436 1.246 . S
O1455 Zn1443 2.034 . S
O1456 Zn1435 2.024 . S
O1456 C1436 1.249 . S
C1457 O1453 1.251 . S
C1457 O1454 1.254 . S
H1458 C1431 0.949 . S
H1459 C1433 0.950 . S
H1460 C1440 0.949 . S
H1461 C1442 0.950 . S
C1462 O1478 1.251 . S
C1462 O1480 1.254 . S
N1463 C1464 1.333 . S
N1463 C1468 1.307 . S
N1463 Zn1469 2.020 . S
C1464 N1463 1.333 . S
C1464 C1465 1.379 1_565 S
C1464 H1482 0.952 . S
C1465 C1464 1.379 1_545 S
C1465 C1466 1.390 . S
C1465 H1492 0.949 . S
C1466 C1465 1.390 . S
C1466 C1467 1.357 . S
C1467 C1466 1.357 . S
C1467 C1468 1.370 1_545 S
C1467 H1493 0.950 . S
C1468 N1463 1.307 . S
C1468 C1467 1.370 1_565 S
C1468 H1486 0.948 . S
Zn1469 N1463 2.020 . S
Zn1469 O1478 2.039 . S
Zn1469 O1484 2.034 . S
Zn1469 O1488 2.025 . S
Zn1469 O1490 2.024 . S
C1470 O1489 1.246 . S
C1470 O1490 1.249 . S
N1471 C1472 1.307 . S
N1471 C1473 1.333 . S
N1471 Zn1477 2.020 . S
C1472 N1471 1.307 . S
C1472 C1476 1.370 . S
C1472 H1483 0.948 . S
C1473 N1471 1.333 . S
C1473 C1474 1.379 . S
C1473 H1481 0.952 . S
C1474 C1473 1.379 . S
C1474 C1475 1.390 . S
C1474 H1494 0.949 . S
C1475 C1474 1.390 . S
C1475 C1476 1.357 . S
C1476 C1472 1.370 . S
C1476 C1475 1.357 . S
C1476 H1495 0.950 . S
Zn1477 N1471 2.020 . S
Zn1477 O1480 2.025 . S
Zn1477 O1485 2.024 . S
Zn1477 O1487 2.039 . S
Zn1477 O1489 2.034 . S
O1478 C1462 1.251 . S
O1478 Zn1469 2.039 . S
C1479 O1484 1.246 . S
C1479 O1485 1.249 . S
O1480 C1462 1.254 . S
O1480 Zn1477 2.025 . S
H1481 C1473 0.952 . S
H1482 C1464 0.952 . S
H1483 C1472 0.948 . S
O1484 Zn1469 2.034 . S
O1484 C1479 1.246 . S
O1485 Zn1477 2.024 . S
O1485 C1479 1.249 . S
H1486 C1468 0.948 . S
O1487 Zn1477 2.039 . S
O1487 C1491 1.251 . S
O1488 Zn1469 2.025 . S
O1488 C1491 1.254 . S
O1489 C1470 1.246 . S
O1489 Zn1477 2.034 . S
O1490 Zn1469 2.024 . S
O1490 C1470 1.249 . S
C1491 O1487 1.251 . S
C1491 O1488 1.254 . S
H1492 C1465 0.949 . S
H1493 C1467 0.950 . S
H1494 C1474 0.949 . S
H1495 C1476 0.950 . S
C1496 O1512 1.251 . S
C1496 O1514 1.254 . S
N1497 C1498 1.333 . S
N1497 C1502 1.307 . S
N1497 Zn1503 2.020 . S
C1498 N1497 1.333 . S
C1498 C1499 1.379 . S
C1498 H1516 0.952 . S
C1499 C1498 1.379 . S
C1499 C1500 1.390 1_455 S
C1499 H1526 0.949 1_455 S
C1500 C1499 1.390 1_655 S
C1500 C1501 1.357 1_655 S
C1501 C1500 1.357 1_455 S
C1501 C1502 1.370 . S
C1501 H1527 0.950 1_455 S
C1502 N1497 1.307 . S
C1502 C1501 1.370 . S
C1502 H1520 0.948 . S
Zn1503 N1497 2.020 . S
Zn1503 O1512 2.039 . S
Zn1503 O1518 2.034 . S
Zn1503 O1522 2.025 . S
Zn1503 O1524 2.024 . S
C1504 O1523 1.246 . S
C1504 O1524 1.249 . S
N1505 C1506 1.307 . S
N1505 C1507 1.333 . S
N1505 Zn1511 2.020 . S
C1506 N1505 1.307 . S
C1506 C1510 1.370 . S
C1506 H1517 0.948 . S
C1507 N1505 1.333 . S
C1507 C1508 1.379 . S
C1507 H1515 0.952 . S
C1508 C1507 1.379 . S
C1508 C1509 1.390 . S
C1508 H1528 0.949 . S
C1509 C1508 1.390 . S
C1509 C1510 1.357 . S
C1510 C1506 1.370 . S
C1510 C1509 1.357 . S
C1510 H1529 0.950 . S
Zn1511 N1505 2.020 . S
Zn1511 O1514 2.025 . S
Zn1511 O1519 2.024 . S
Zn1511 O1521 2.039 . S
Zn1511 O1523 2.034 . S
O1512 C1496 1.251 . S
O1512 Zn1503 2.039 . S
C1513 O1518 1.246 . S
C1513 O1519 1.249 . S
O1514 C1496 1.254 . S
O1514 Zn1511 2.025 . S
H1515 C1507 0.952 . S
H1516 C1498 0.952 . S
H1517 C1506 0.948 . S
O1518 Zn1503 2.034 . S
O1518 C1513 1.246 . S
O1519 Zn1511 2.024 . S
O1519 C1513 1.249 . S
H1520 C1502 0.948 . S
O1521 Zn1511 2.039 . S
O1521 C1525 1.251 . S
O1522 Zn1503 2.025 . S
O1522 C1525 1.254 . S
O1523 C1504 1.246 . S
O1523 Zn1511 2.034 . S
O1524 Zn1503 2.024 . S
O1524 C1504 1.249 . S
C1525 O1521 1.251 . S
C1525 O1522 1.254 . S
H1526 C1499 0.949 1_655 S
H1527 C1501 0.950 1_655 S
H1528 C1508 0.949 . S
H1529 C1510 0.950 . S
C1530 O1546 1.251 . S
C1530 O1548 1.254 . S
N1531 C1532 1.333 . S
N1531 C1536 1.307 . S
N1531 Zn1537 2.020 . S
C1532 N1531 1.333 . S
C1532 C1533 1.379 . S
C1532 H1550 0.952 . S
C1533 C1532 1.379 . S
C1533 C1534 1.390 1_545 S
C1533 H1560 0.949 1_545 S
C1534 C1533 1.390 1_565 S
C1534 C1535 1.357 1_565 S
C1535 C1534 1.357 1_545 S
C1535 C1536 1.370 . S
C1535 H1561 0.950 . S
C1536 N1531 1.307 . S
C1536 C1535 1.370 . S
C1536 H1554 0.948 . S
Zn1537 N1531 2.020 . S
Zn1537 O1546 2.039 . S
Zn1537 O1552 2.034 . S
Zn1537 O1556 2.025 . S
Zn1537 O1558 2.024 . S
C1538 O1557 1.246 . S
C1538 O1558 1.249 . S
N1539 C1540 1.307 . S
N1539 C1541 1.333 . S
N1539 Zn1545 2.020 . S
C1540 N1539 1.307 . S
C1540 C1544 1.370 . S
C1540 H1551 0.948 . S
C1541 N1539 1.333 . S
C1541 C1542 1.379 . S
C1541 H1549 0.952 . S
C1542 C1541 1.379 . S
C1542 C1543 1.390 . S
C1542 H1562 0.949 . S
C1543 C1542 1.390 . S
C1543 C1544 1.357 . S
C1544 C1540 1.370 . S
C1544 C1543 1.357 . S
C1544 H1563 0.950 . S
Zn1545 N1539 2.020 . S
Zn1545 O1548 2.025 . S
Zn1545 O1553 2.024 . S
Zn1545 O1555 2.039 . S
Zn1545 O1557 2.034 . S
O1546 C1530 1.251 . S
O1546 Zn1537 2.039 . S
C1547 O1552 1.246 . S
C1547 O1553 1.249 . S
O1548 C1530 1.254 . S
O1548 Zn1545 2.025 . S
H1549 C1541 0.952 . S
H1550 C1532 0.952 . S
H1551 C1540 0.948 . S
O1552 Zn1537 2.034 . S
O1552 C1547 1.246 . S
O1553 Zn1545 2.024 . S
O1553 C1547 1.249 . S
H1554 C1536 0.948 . S
O1555 Zn1545 2.039 . S
O1555 C1559 1.251 . S
O1556 Zn1537 2.025 . S
O1556 C1559 1.254 . S
O1557 C1538 1.246 . S
O1557 Zn1545 2.034 . S
O1558 Zn1537 2.024 . S
O1558 C1538 1.249 . S
C1559 O1555 1.251 . S
C1559 O1556 1.254 . S
H1560 C1533 0.949 1_565 S
H1561 C1535 0.950 . S
H1562 C1542 0.949 . S
H1563 C1544 0.950 . S
C1564 O1580 1.251 . S
C1564 O1582 1.254 . S
N1565 C1566 1.333 . S
N1565 C1570 1.307 . S
N1565 Zn1571 2.020 . S
C1566 N1565 1.333 . S
C1566 C1567 1.379 . S
C1566 H1584 0.952 . S
C1567 C1566 1.379 . S
C1567 C1568 1.390 . S
C1567 H1594 0.949 . S
C1568 C1567 1.390 . S
C1568 C1569 1.357 . S
C1569 C1568 1.357 . S
C1569 C1570 1.370 . S
C1569 H1595 0.950 . S
C1570 N1565 1.307 . S
C1570 C1569 1.370 . S
C1570 H1588 0.948 . S
Zn1571 N1565 2.020 . S
Zn1571 O1580 2.039 . S
Zn1571 O1586 2.034 . S
Zn1571 O1590 2.025 . S
Zn1571 O1592 2.024 . S
C1572 O1591 1.246 . S
C1572 O1592 1.249 . S
N1573 C1574 1.307 1_655 S
N1573 C1575 1.333 1_655 S
N1573 Zn1579 2.020 . S
C1574 N1573 1.307 1_455 S
C1574 C1578 1.370 . S
C1574 H1585 0.948 1_455 S
C1575 N1573 1.333 1_455 S
C1575 C1576 1.379 . S
C1575 H1583 0.952 . S
C1576 C1575 1.379 . S
C1576 C1577 1.390 . S
C1576 H1596 0.949 . S
C1577 C1576 1.390 . S
C1577 C1578 1.357 . S
C1578 C1574 1.370 . S
C1578 C1577 1.357 . S
C1578 H1597 0.950 . S
Zn1579 N1573 2.020 . S
Zn1579 O1582 2.025 . S
Zn1579 O1587 2.024 . S
Zn1579 O1589 2.039 . S
Zn1579 O1591 2.034 . S
O1580 C1564 1.251 . S
O1580 Zn1571 2.039 . S
C1581 O1586 1.246 . S
C1581 O1587 1.249 . S
O1582 C1564 1.254 . S
O1582 Zn1579 2.025 . S
H1583 C1575 0.952 . S
H1584 C1566 0.952 . S
H1585 C1574 0.948 1_655 S
O1586 Zn1571 2.034 . S
O1586 C1581 1.246 . S
O1587 Zn1579 2.024 . S
O1587 C1581 1.249 . S
H1588 C1570 0.948 . S
O1589 Zn1579 2.039 . S
O1589 C1593 1.251 . S
O1590 Zn1571 2.025 . S
O1590 C1593 1.254 . S
O1591 C1572 1.246 . S
O1591 Zn1579 2.034 . S
O1592 Zn1571 2.024 . S
O1592 C1572 1.249 . S
C1593 O1589 1.251 . S
C1593 O1590 1.254 . S
H1594 C1567 0.949 . S
H1595 C1569 0.950 . S
H1596 C1576 0.949 . S
H1597 C1578 0.950 . S
C1598 O1614 1.251 . S
C1598 O1616 1.254 . S
N1599 C1600 1.333 . S
N1599 C1604 1.307 . S
N1599 Zn1605 2.020 . S
C1600 N1599 1.333 . S
C1600 C1601 1.379 . S
C1600 H1618 0.952 . S
C1601 C1600 1.379 . S
C1601 C1602 1.390 . S
C1601 H1628 0.949 . S
C1602 C1601 1.390 . S
C1602 C1603 1.357 . S
C1603 C1602 1.357 . S
C1603 C1604 1.370 . S
C1603 H1629 0.950 . S
C1604 N1599 1.307 . S
C1604 C1603 1.370 . S
C1604 H1622 0.948 . S
Zn1605 N1599 2.020 . S
Zn1605 O1614 2.039 . S
Zn1605 O1620 2.034 . S
Zn1605 O1624 2.025 . S
Zn1605 O1626 2.024 . S
C1606 O1625 1.246 . S
C1606 O1626 1.249 . S
N1607 C1608 1.307 . S
N1607 C1609 1.333 . S
N1607 Zn1613 2.020 . S
C1608 N1607 1.307 . S
C1608 C1612 1.366 1_455 S
C1608 H1619 0.948 . S
C1609 N1607 1.333 . S
C1609 C1610 1.380 . S
C1609 H1617 0.952 . S
C1610 C1609 1.380 . S
C1610 C1611 1.389 1_455 S
C1610 H1630 0.949 1_455 S
C1611 C1610 1.389 1_655 S
C1611 C1612 1.359 . S
C1612 C1608 1.366 1_655 S
C1612 C1611 1.359 . S
C1612 H1631 0.952 . S
Zn1613 N1607 2.020 . S
Zn1613 O1616 2.025 . S
Zn1613 O1621 2.024 . S
Zn1613 O1623 2.039 . S
Zn1613 O1625 2.034 . S
O1614 C1598 1.251 . S
O1614 Zn1605 2.039 . S
C1615 O1620 1.246 . S
C1615 O1621 1.249 . S
O1616 C1598 1.254 . S
O1616 Zn1613 2.025 . S
H1617 C1609 0.952 . S
H1618 C1600 0.952 . S
H1619 C1608 0.948 . S
O1620 Zn1605 2.034 . S
O1620 C1615 1.246 . S
O1621 Zn1613 2.024 . S
O1621 C1615 1.249 . S
H1622 C1604 0.948 . S
O1623 Zn1613 2.039 . S
O1623 C1627 1.251 . S
O1624 Zn1605 2.025 . S
O1624 C1627 1.254 . S
O1625 C1606 1.246 . S
O1625 Zn1613 2.034 . S
O1626 Zn1605 2.024 . S
O1626 C1606 1.249 . S
C1627 O1623 1.251 . S
C1627 O1624 1.254 . S
H1628 C1601 0.949 . S
H1629 C1603 0.950 . S
H1630 C1610 0.949 1_655 S
H1631 C1612 0.952 . S
C217 C13 1.957 . S
C242 C38 1.686 . S
C149 C81 1.962 . S
C183 C115 1.688 . S
C353 C280 1.499 . S
C387 C319 1.556 . S
C493 C412 1.550 . S
C523 C446 1.638 . S
C591 C557 1.898 . S
C795 C625 2.891 . S
C718 C650 1.819 . S
C684 C761 2.894 . S
C829 C1033 1.957 . S
C854 C1058 1.686 . S
C897 C965 1.962 . S
C931 C999 1.688 . S
C1096 C1169 1.499 . S
C1135 C1203 1.556 1_545 S
C1228 C1309 1.550 . S
C1339 C1262 1.638 . S
C1373 C1407 1.898 1_545 S
C1611 C1441 2.891 1_655 S
C1466 C1534 1.819 1_545 S
C1500 C1577 2.894 1_655 S
C4 C310 0.947 . S
C47 C344 0.518 . S
C72 C378 0.400 . S
C289 C106 1.619 . S
C514 C140 0.615 . S
C421 C174 0.577 . S
C455 C208 0.430 . S
C251 C484 1.669 . S
C616 C548 0.281 . S
C752 C582 0.751 . S
C659 C786 0.975 . S
C727 C693 0.191 . S
C820 C1126 0.946 . S
C1160 C863 0.518 . S
C1194 C888 0.400 . S
C922 C1105 1.619 . S
C1330 C956 0.616 . S
C990 C1237 0.577 . S
C1024 C1271 0.431 . S
C1067 C1300 1.669 . S
C1364 C1432 0.281 . S
C1568 C1398 0.752 . S
C1602 C1475 0.974 . S
C1509 C1543 0.191 . S
C0 C110 3.560 . S
C8 C51 3.511 . S
C68 C63 3.413 . S
C102 C76 4.020 . S
C178 C136 3.491 . S
C212 C170 3.486 . S
C204 C267 3.942 . S
C144 C255 3.591 . S
C301 C620 3.708 . S
C306 C675 2.738 . S
C340 C709 4.326 . S
C374 C586 1.783 . S
C425 C756 3.274 . S
C552 C459 3.111 . S
C790 C480 2.103 1_554 S
C510 C743 1.981 . S
C544 C314 1.863 . S
C578 C518 2.754 1_554 S
C612 C437 4.221 1_554 S
C471 C663 1.865 . S
C476 C697 3.617 . S
C382 C731 3.115 . S
C285 C748 2.072 . S
C782 C348 3.272 . S
C816 C926 3.560 . S
C867 C824 3.511 . S
C879 C884 3.413 . S
C892 C918 4.020 . S
C952 C994 3.491 . S
C1028 C986 3.486 . S
C1083 C1020 3.942 . S
C1071 C960 3.590 . S
C1117 C1436 3.708 . S
C1491 C1122 2.739 . S
C1525 C1156 4.326 . S
C1190 C1402 1.783 . S
C1572 C1241 3.273 . S
C1275 C1368 3.111 . S
C1296 C1606 2.103 . S
C1326 C1559 1.981 . S
C1130 C1360 1.863 . S
C1334 C1394 2.754 . S
C1253 C1428 4.221 . S
C1479 C1287 1.865 . S
C1292 C1513 3.616 . S
C1547 C1198 3.115 . S
C1564 C1101 2.072 . S
C1164 C1598 3.272 . S
C17 C1496 4.957 . S
C1411 C34 4.459 . S
C85 C1445 4.473 . S
C119 C1462 4.519 . S
C153 C1615 4.169 . S
C187 C1530 4.197 . S
C221 C1581 4.676 . S
C238 C1377 4.914 . S
C276 C1343 2.226 . S
C323 C1224 4.674 . S
C357 C1258 3.992 . S
C391 C1321 4.343 . S
C408 C1139 4.674 . S
C442 C1173 3.992 . S
C505 C1207 4.343 . S
C527 C1092 2.226 . S
C561 C1054 4.914 . S
C595 C850 4.459 1_554 S
C629 C901 4.473 . S
C646 C935 4.519 . S
C680 C833 4.957 . S
C714 C1003 4.197 . S
C765 C1037 4.676 . S
C799 C969 4.169 . S
C165 C1457 5.012 . S
C199 C1470 4.395 . S
C233 C1504 4.556 . S
C246 C1423 4.427 . S
C29 C1593 4.163 . S
C42 C1389 4.133 . S
C97 C1627 4.697 . S
C1538 C131 4.884 . S
C489 C1151 2.118 . S
C539 C1185 4.607 . S
C416 C1219 3.997 . S
C450 C1088 4.398 . S
C369 C1355 4.607 . S
C403 C1232 3.997 . S
C272 C1266 4.398 . S
C335 C1305 2.118 . S
C722 C947 4.884 . S
C654 C1015 4.395 . S
C688 C1049 4.556 . S
C607 C1062 4.427 . S
C641 C981 5.012 . S
C573 C858 4.133 . S
C811 C913 4.697 1_554 S
C777 C845 4.163 . S
