# Generated by pormake.
# Topology sxb, (6)-cn, num edge types: 1
# Building blocks:
#     Node 0, Type 0, BuildingBlock: FUNLAD_clean_sbu_0, # of connection points: 6
#     Node 1, Type 0, BuildingBlock: FUNLAD_clean_sbu_0, # of connection points: 6
#     Node 2, Type 0, BuildingBlock: FUNLAD_clean_sbu_0, # of connection points: 6
#     Node 3, Type 0, BuildingBlock: FUNLAD_clean_sbu_0, # of connection points: 6
#     Edge 4, Type (0, 0), BuildingBlock: FUNLAD_clean_linker_0, # of connection points: 2
#     Edge 5, Type (0, 0), BuildingBlock: FUNLAD_clean_linker_0, # of connection points: 2
#     Edge 6, Type (0, 0), BuildingBlock: FUNLAD_clean_linker_0, # of connection points: 2
#     Edge 7, Type (0, 0), BuildingBlock: FUNLAD_clean_linker_0, # of connection points: 2
#     Edge 8, Type (0, 0), BuildingBlock: FUNLAD_clean_linker_0, # of connection points: 2
#     Edge 9, Type (0, 0), BuildingBlock: FUNLAD_clean_linker_0, # of connection points: 2
#     Edge 10, Type (0, 0), BuildingBlock: FUNLAD_clean_linker_0, # of connection points: 2
#     Edge 11, Type (0, 0), BuildingBlock: FUNLAD_clean_linker_0, # of connection points: 2
#     Edge 12, Type (0, 0), BuildingBlock: FUNLAD_clean_linker_0, # of connection points: 2
#     Edge 13, Type (0, 0), BuildingBlock: FUNLAD_clean_linker_0, # of connection points: 2
#     Edge 14, Type (0, 0), BuildingBlock: FUNLAD_clean_linker_0, # of connection points: 2
#     Edge 15, Type (0, 0), BuildingBlock: FUNLAD_clean_linker_0, # of connection points: 2
# Relax obj value: 0.118
# Max RMSD: 0.152
# Mean RMSD: 0.152
data_MOF--net-sxb--node1-FUNLAD_clean_sbu_0--edge1-FUNLAD_clean_linker_0
_symmetry_space_group_name_H-M    P1
_symmetry_Int_Tables_number       1
_symmetry_cell_setting            triclinic
loop_
_symmetry_equiv_pos_as_xyz
'x, y, z'
_cell_length_a     17.128684
_cell_length_b     31.226993
_cell_length_c     48.514045
_cell_angle_alpha  89.722489
_cell_angle_beta   92.228507
_cell_angle_gamma 89.610998
loop_
_atom_site_label
_atom_site_type_symbol
_atom_site_fract_x
_atom_site_fract_y
_atom_site_fract_z
_atom_type_partial_charge
C0 C 0.13849 0.03564 0.01406 0.0
N1 N -0.02012 0.0012 0.95059 0.0
C2 C 0.00577 0.03461 0.93542 0.0
C3 C 0.00537 0.03219 0.90668 0.0
C4 C -0.02162 0.99494 0.89339 0.0
C5 C 0.95164 0.96104 0.90957 0.0
C6 C 0.95276 0.96489 0.93826 0.0
Zn7 Zn -0.01586 0.00517 0.9927 0.0
C8 C 0.04606 0.92489 0.01932 0.0
N9 N -0.00451 0.01318 0.08053 0.0
C10 C 0.02507 0.04845 0.09344 0.0
C11 C -0.03278 0.97978 0.09513 0.0
C12 C -0.03259 0.98116 0.12385 0.0
C13 C -0.00309 0.01728 0.13777 0.0
C14 C 0.02643 0.05116 0.1222 0.0
Zn15 Zn -0.00872 0.0097 0.0385 0.0
O16 O 0.09915 0.02777 0.99196 0.0
C17 C 0.92779 0.08969 0.0125 0.0
O18 O 0.10678 0.03153 0.03715 0.0
H19 H 0.94418 0.952 0.08447 0.0
H20 H 0.02746 0.0631 0.94564 0.0
H21 H 0.04709 0.07466 0.08141 0.0
O22 O 0.93865 0.06873 0.99054 0.0
O23 O 0.94722 0.07289 0.03569 0.0
H24 H 0.93225 0.93875 0.9507 0.0
O25 O 0.8759 0.98773 0.03915 0.0
O26 O 0.869 0.98283 0.99402 0.0
O27 O 0.03453 0.94651 0.04089 0.0
O28 O 0.02929 0.94142 0.9958 0.0
C29 C 0.83689 0.97936 0.01708 0.0
H30 H 0.02734 0.05889 0.89502 0.0
H31 H 0.92943 0.93196 0.90016 0.0
H32 H 0.94519 0.95404 0.13504 0.0
H33 H 0.04901 0.07978 0.13208 0.0
C34 C 0.8146 0.02525 0.51474 0.0
N35 N -0.02506 -0.00132 0.57965 0.0
C36 C 0.9494 0.03448 0.5925 0.0
C37 C 0.95201 0.0368 0.62124 0.0
C38 C -0.01914 0.00188 0.63698 0.0
C39 C 0.00655 0.96523 0.62319 0.0
C40 C 0.00327 0.96436 0.59436 0.0
Zn41 Zn -0.03021 0.99726 0.53747 0.0
C42 C 0.90888 0.9142 0.51547 0.0
N43 N -0.0423 0.99578 0.44949 0.0
C44 C 0.92737 0.03018 0.43538 0.0
C45 C -0.01346 0.96132 0.43606 0.0
C46 C -0.01387 0.96074 0.40729 0.0
C47 C -0.0441 0.996 0.39217 0.0
C48 C 0.92594 0.03098 0.40659 0.0
Zn49 Zn -0.03738 0.99657 0.49159 0.0
O50 O 0.85428 0.02017 0.53718 0.0
C51 C 0.02321 0.07969 0.51318 0.0
O52 O 0.84641 0.01837 0.49195 0.0
H53 H 0.01068 0.93438 0.4477 0.0
H54 H 0.92667 0.06131 0.58044 0.0
H55 H 0.90462 0.0572 0.44647 0.0
O56 O 0.01379 0.0609 0.53611 0.0
O57 O 0.0045 0.06035 0.49093 0.0
H58 H 0.02346 0.93627 0.58371 0.0
O59 O 0.07862 0.97462 0.49189 0.0
O60 O 0.08546 0.97444 0.53716 0.0
O61 O 0.92093 0.93297 0.49274 0.0
O62 O 0.92538 0.93346 0.53799 0.0
C63 C 0.11776 0.9685 0.51434 0.0
H64 H 0.93058 0.06543 0.63103 0.0
H65 H 0.02987 0.93775 0.63454 0.0
H66 H 0.01061 0.93332 0.39702 0.0
H67 H 0.90112 0.05857 0.39575 0.0
C68 C 0.57613 0.51204 0.02326 0.0
N69 N 0.41767 0.48128 0.95904 0.0
C70 C 0.44519 0.51578 0.94533 0.0
C71 C 0.44338 0.51665 0.91658 0.0
C72 C 0.41314 0.48163 0.9017 0.0
C73 C 0.3849 0.44643 0.91639 0.0
C74 C 0.38777 0.44693 0.94521 0.0
Zn75 Zn 0.42179 0.48244 1.00112 0.0
C76 C 0.48485 0.4016 0.02568 0.0
N77 N 0.43219 0.48732 0.08912 0.0
C78 C 0.46049 0.52259 0.10237 0.0
C79 C 0.40391 0.45358 0.10341 0.0
C80 C 0.40244 0.45473 0.13214 0.0
C81 C 0.43041 0.49093 0.14638 0.0
C82 C 0.46023 0.52506 0.13111 0.0
Zn83 Zn 0.42859 0.48549 0.04696 0.0
O84 O 0.5372 0.5045 1.00103 0.0
C85 C 0.36711 0.56664 0.02179 0.0
O86 O 0.54391 0.50772 0.04624 0.0
H87 H 0.3818 0.42582 0.09247 0.0
H88 H 0.46848 0.54283 0.9567 0.0
H89 H 0.48243 0.54912 0.0906 0.0
O90 O 0.37856 0.54561 0.99998 0.0
O91 O 0.38386 0.54946 0.04512 0.0
H92 H 0.36628 0.41983 0.95656 0.0
O93 O 0.31342 0.46301 0.04708 0.0
O94 O 0.30627 0.46049 1.00186 0.0
O95 O 0.47366 0.42179 0.04791 0.0
O96 O 0.46582 0.41919 1.00269 0.0
C97 C 0.27431 0.45573 0.02486 0.0
H98 H 0.46462 0.54474 0.90614 0.0
H99 H 0.36181 0.41858 0.90574 0.0
H100 H 0.37994 0.42745 0.1431 0.0
H101 H 0.48156 0.55379 0.14119 0.0
C102 C 0.30537 0.52847 0.52277 0.0
N103 N 0.45763 0.49897 0.58976 0.0
C104 C 0.4271 0.5324 0.60375 0.0
C105 C 0.42673 0.53153 0.63254 0.0
C106 C 0.45825 0.49596 0.64703 0.0
C107 C 0.48923 0.46193 0.63201 0.0
C108 C 0.4883 0.4641 0.60328 0.0
Zn109 Zn 0.45763 0.50018 0.5477 0.0
C110 C 0.40081 0.41745 0.52398 0.0
N111 N 0.45752 0.50104 0.45972 0.0
C112 C 0.42872 0.53554 0.44531 0.0
C113 C 0.48792 0.46669 0.44661 0.0
C114 C 0.49072 0.46629 0.4179 0.0
C115 C 0.46184 0.50154 0.40246 0.0
C116 C 0.4302 0.53643 0.41654 0.0
Zn117 Zn 0.45683 0.50057 0.50185 0.0
O118 O 0.34134 0.52186 0.54581 0.0
C119 C 0.51407 0.58322 0.52595 0.0
O120 O 0.34102 0.52314 0.50056 0.0
H121 H 0.51029 0.43954 0.45845 0.0
H122 H 0.40313 0.55983 0.59257 0.0
H123 H 0.40502 0.56255 0.45616 0.0
O124 O 0.49928 0.56398 0.54829 0.0
O125 O 0.50045 0.56438 0.50308 0.0
H126 H 0.51197 0.4378 0.59176 0.0
O127 O 0.57278 0.47813 0.50376 0.0
O128 O 0.57387 0.4785 0.54897 0.0
O129 O 0.41321 0.43665 0.5014 0.0
O130 O 0.4162 0.43646 0.54661 0.0
C131 C 0.60917 0.47239 0.52679 0.0
H132 H 0.40303 0.55866 0.64333 0.0
H133 H 0.51314 0.43365 0.64232 0.0
H134 H 0.51464 0.43848 0.40789 0.0
H135 H 0.40806 0.56446 0.40548 0.0
C136 C 0.3102 0.63208 0.04348 0.0
C137 C 0.33078 0.60973 0.01974 0.0
C138 C 0.27126 0.67156 0.0412 0.0
C139 C 0.2526 0.68963 0.01506 0.0
C140 C 0.27383 0.66732 0.99144 0.0
C141 C 0.31265 0.62797 0.99371 0.0
C142 C 0.20857 0.73062 0.01129 0.0
C143 C 0.20394 0.76081 0.03092 0.0
C144 C 0.16026 0.80189 0.02697 0.0
C145 C 0.1388 0.82452 0.05045 0.0
C146 C 0.10016 0.86393 0.04792 0.0
C147 C 0.08242 0.88185 0.02177 0.0
H148 H 0.15957 0.80421 0.98205 0.0
C149 C 0.10336 0.85921 0.99819 0.0
C150 C 0.14217 0.81975 1.00073 0.0
H151 H 0.09129 0.87236 0.97775 0.0
H152 H 0.32267 0.61868 0.06383 0.0
H153 H 0.25419 0.68695 0.05997 0.0
H154 H 0.26 0.68029 0.97105 0.0
H155 H 0.32744 0.61158 0.97496 0.0
H156 H 0.17958 0.7359 0.99128 0.0
H157 H 0.23279 0.75551 0.05096 0.0
H158 H 0.15227 0.81175 0.07091 0.0
H159 H 0.08511 0.88058 0.06654 0.0
C160 C 0.54781 0.34042 1.00159 0.0
C161 C 0.52748 0.36018 0.02632 0.0
C162 C 0.59659 0.30436 1.00201 0.0
C163 C 0.62637 0.28731 0.02722 0.0
C164 C 0.60275 0.30571 0.05192 0.0
C165 C 0.55418 0.3419 0.05152 0.0
C166 C 0.68168 0.25039 0.02861 0.0
C167 C 0.73035 0.24062 1.00831 0.0
C168 C 0.78584 0.2038 1.0099 0.0
C169 C 0.80856 0.18455 0.98534 0.0
C170 C 0.85728 0.14841 0.98605 0.0
C171 C 0.88505 0.13107 0.01139 0.0
H172 H 0.80333 0.20268 0.05453 0.0
C173 C 0.86567 0.15172 0.03592 0.0
C174 C 0.81674 0.18771 0.0352 0.0
H175 H 0.88668 0.13948 0.0558 0.0
H176 H 0.52765 0.35342 0.98181 0.0
H177 H 0.61073 0.29011 0.98253 0.0
H178 H 0.62384 0.29284 0.07164 0.0
H179 H 0.53938 0.3562 0.07095 0.0
H180 H 0.68334 0.23141 0.04743 0.0
H181 H 0.72872 0.25948 0.98945 0.0
H182 H 0.78661 0.19671 0.96554 0.0
H183 H 0.87135 0.1334 0.96676 0.0
C184 C 0.08853 0.14214 0.53663 0.0
C185 C 0.06041 0.12239 0.51227 0.0
C186 C 0.12883 0.18091 0.53559 0.0
C187 C 0.14222 0.20077 0.51008 0.0
C188 C 0.11174 0.18173 0.48585 0.0
C189 C 0.07169 0.14291 0.48688 0.0
C190 C 0.18615 0.2416 0.50789 0.0
C191 C 0.23982 0.25479 0.52705 0.0
C192 C 0.28327 0.29582 0.52522 0.0
C193 C 0.31419 0.31398 0.54967 0.0
C194 C 0.3537 0.35296 0.54918 0.0
C195 C 0.36413 0.37457 0.52411 0.0
H196 H 0.27519 0.30325 0.48058 0.0
C197 C 0.33558 0.35576 0.49948 0.0
C198 C 0.29561 0.3168 0.5 0.0
H199 H 0.34303 0.37144 0.4798 0.0
H200 H 0.08031 0.12739 0.55656 0.0
H201 H 0.14864 0.19522 0.55485 0.0
H202 H 0.12023 0.19652 0.46595 0.0
H203 H 0.05055 0.12871 0.4677 0.0
H204 H 0.17431 0.26089 0.48951 0.0
H205 H 0.25176 0.23534 0.54535 0.0
H206 H 0.30644 0.29836 0.56936 0.0
H207 H 0.37522 0.3664 0.56854 0.0
C208 C 0.84386 0.85382 0.54 0.0
C209 C 0.8705 0.87175 0.51547 0.0
C210 C 0.80141 0.81563 0.53948 0.0
C211 C 0.78466 0.79453 0.51435 0.0
C212 C 0.81389 0.81169 0.49005 0.0
C213 C 0.85584 0.84992 0.49054 0.0
C214 C 0.73813 0.75441 0.5125 0.0
C215 C 0.68572 0.74267 0.53113 0.0
C216 C 0.63882 0.70271 0.52891 0.0
C217 C 0.61034 0.68452 0.55303 0.0
C218 C 0.56811 0.64634 0.55201 0.0
C219 C 0.55254 0.62565 0.52673 0.0
H220 H 0.63905 0.69653 0.48425 0.0
C221 C 0.57837 0.64469 0.50242 0.0
C222 C 0.6209 0.6828 0.50346 0.0
H223 H 0.56689 0.62979 0.48257 0.0
H224 H 0.85452 0.86969 0.55958 0.0
H225 H 0.78242 0.80279 0.55883 0.0
H226 H 0.8028 0.79592 0.47045 0.0
H227 H 0.87578 0.86268 0.47126 0.0
H228 H 0.74658 0.73443 0.4946 0.0
H229 H 0.67734 0.76247 0.54911 0.0
H230 H 0.62227 0.69941 0.57286 0.0
H231 H 0.54883 0.63269 0.57114 0.0
C232 C 0.27067 0.0383 0.03721 0.0
C233 C 0.22335 0.04212 0.01301 0.0
C234 C 0.35137 0.03389 0.03565 0.0
C235 C 0.38592 0.0334 1.00984 0.0
C236 C 0.33961 0.04153 0.98593 0.0
C237 C 0.25876 0.04557 0.98745 0.0
C238 C 0.46921 0.02256 1.00716 0.0
C239 C 0.50626 0.99369 0.02378 0.0
C240 C 0.5895 0.98272 0.02111 0.0
C241 C 0.63557 0.97423 0.04503 0.0
C242 C 0.71635 0.96982 0.04356 0.0
C243 C 0.75194 0.97322 0.01803 0.0
H244 H 0.58951 0.98692 0.9764 0.0
C245 C 0.70484 0.97748 0.99381 0.0
C246 C 0.62419 0.98229 0.99533 0.0
H247 H 0.7305 0.97971 0.9738 0.0
H248 H 0.24517 0.03612 0.05726 0.0
H249 H 0.38623 0.02955 0.05456 0.0
H250 H 0.36542 0.04217 0.96589 0.0
H251 H 0.2238 0.04903 0.96846 0.0
H252 H 0.49939 0.03719 0.99026 0.0
H253 H 0.47603 0.97905 0.04067 0.0
H254 H 0.60964 0.97355 0.06505 0.0
H255 H 0.75117 0.96606 0.06256 0.0
C256 C 0.24978 0.96854 0.53771 0.0
C257 C 0.20286 0.96202 0.51373 0.0
C258 C 0.33037 0.97291 0.53601 0.0
C259 C 0.36518 0.97064 0.5103 0.0
C260 C 0.31939 0.95988 0.48682 0.0
C261 C 0.23866 0.9559 0.48846 0.0
C262 C 0.44819 0.98117 0.50714 0.0
C263 C 0.48434 0.01168 0.5223 0.0
C264 C 0.56727 0.02236 0.51906 0.0
C265 C 0.61312 0.03335 0.54247 0.0
C266 C 0.69379 0.0376 0.54075 0.0
C267 C 0.72945 0.03149 0.51544 0.0
H268 H 0.56733 0.01352 0.47468 0.0
C269 C 0.6824 0.02472 0.49152 0.0
C270 C 0.6019 0.0201 0.49332 0.0
H271 H 0.70805 0.02041 0.47165 0.0
H272 H 0.22398 0.97287 0.55756 0.0
H273 H 0.36487 0.97934 0.55469 0.0
H274 H 0.34543 0.9571 0.4669 0.0
H275 H 0.20401 0.95035 0.46967 0.0
H276 H 0.47888 0.96482 0.49102 0.0
H277 H 0.45365 0.02803 0.53841 0.0
H278 H 0.58722 0.03614 0.56242 0.0
H279 H 0.72852 0.04333 0.55949 0.0
C280 C 0.70824 0.51263 0.04653 0.0
C281 C 0.66108 0.51821 0.02243 0.0
C282 C 0.78887 0.50789 0.04487 0.0
C283 C 0.82347 0.50886 0.01908 0.0
C284 C 0.77737 0.51866 0.99538 0.0
C285 C 0.6966 0.523 0.99697 0.0
C286 C 0.90667 0.49804 0.01614 0.0
C287 C 0.94366 0.46826 0.03207 0.0
C288 C 0.02693 0.45759 0.02913 0.0
C289 C 0.07326 0.44822 0.05285 0.0
C290 C 0.1541 0.44432 0.05124 0.0
C291 C 0.18946 0.44914 0.02575 0.0
H292 H 0.02653 0.46384 0.98452 0.0
C293 C 0.14213 0.45422 1.00165 0.0
C294 C 0.06142 0.4585 1.00332 0.0
H295 H 0.16761 0.4575 0.98166 0.0
H296 H 0.68262 0.50931 0.06649 0.0
H297 H 0.82359 0.50221 0.06368 0.0
H298 H 0.80323 0.52043 0.97537 0.0
H299 H 0.66174 0.52779 0.97808 0.0
H300 H 0.9369 0.5136 0.99959 0.0
H301 H 0.91348 0.4527 0.04863 0.0
H302 H 0.04749 0.4465 0.07287 0.0
H303 H 0.18909 0.43987 0.07013 0.0
C304 C 0.17842 0.53131 0.54601 0.0
C305 C 0.22009 0.5349 0.52174 0.0
C306 C 0.09751 0.5269 0.54457 0.0
C307 C 0.05706 0.52613 0.51883 0.0
C308 C 0.09763 0.53404 0.49482 0.0
C309 C 0.17873 0.53813 0.49621 0.0
C310 C -0.02656 0.51524 0.51633 0.0
C311 C 0.94094 0.48665 0.5332 0.0
C312 C 0.85739 0.47565 0.53068 0.0
C313 C 0.81693 0.4675 0.55468 0.0
C314 C 0.7359 0.4631 0.5533 0.0
C315 C 0.69448 0.46625 0.52778 0.0
H316 H 0.8472 0.47916 0.48596 0.0
C317 C 0.73606 0.47012 0.50351 0.0
C318 C 0.81692 0.47486 0.50494 0.0
H319 H 0.7059 0.47204 0.48349 0.0
H320 H 0.20853 0.52939 0.56604 0.0
H321 H 0.06715 0.52279 0.56356 0.0
H322 H 0.06718 0.53448 0.47482 0.0
H323 H 0.20921 0.54139 0.47717 0.0
H324 H 0.93902 0.52962 0.49938 0.0
H325 H -0.02461 0.47227 0.55014 0.0
H326 H 0.8474 0.46708 0.57469 0.0
H327 H 0.70548 0.45964 0.57234 0.0
C328 C -0.02397 0.0338 0.34724 0.0
C329 C -0.04379 0.99644 0.36157 0.0
C330 C -0.02343 0.03421 0.31844 0.0
C331 C -0.04236 0.99708 0.30333 0.0
C332 C 0.93695 0.95994 0.31766 0.0
C333 C 0.9366 0.95951 0.34645 0.0
C334 C -0.04399 0.9962 0.27269 0.0
C335 C -0.0028 0.02318 0.25718 0.0
C336 C -0.00457 0.02168 0.22655 0.0
C337 C 0.0595 0.0374 0.21251 0.0
C338 C 0.06005 0.0362 0.18372 0.0
C339 C -0.00389 0.01953 0.16833 0.0
H340 H 0.87884 0.99509 0.22105 0.0
C341 C 0.9312 0.00474 0.18236 0.0
C342 C 0.93066 0.00592 0.21111 0.0
H343 H 0.88018 0.99271 0.17108 0.0
H344 H -0.00822 0.06273 0.3583 0.0
H345 H -0.0094 0.06387 0.30821 0.0
H346 H 0.92122 0.93104 0.30655 0.0
H347 H 0.91989 0.9304 0.35685 0.0
H348 H 0.92232 0.9709 0.26272 0.0
H349 H 0.03691 0.04579 0.26713 0.0
H350 H 0.10983 0.05009 0.22388 0.0
H351 H 0.11113 0.04765 0.17354 0.0
C352 C 0.9552 0.02619 0.84595 0.0
C353 C -0.02132 0.99139 0.86286 0.0
C354 C -0.04427 0.02295 0.81723 0.0
C355 C -0.0193 0.98487 0.80472 0.0
C356 C 0.00322 0.94997 0.82166 0.0
C357 C 0.00242 0.95318 0.85038 0.0
C358 C -0.01824 0.97976 0.77423 0.0
C359 C -0.01558 0.01296 0.75641 0.0
C360 C -0.01489 0.0083 0.72587 0.0
C361 C 0.00858 0.04339 0.71005 0.0
C362 C 0.00796 0.04116 0.68129 0.0
C363 C -0.01642 0.00374 0.6676 0.0
H364 H 0.93951 0.94341 0.72329 0.0
C365 C -0.0398 0.96852 0.68333 0.0
C366 C -0.03953 0.97079 0.71212 0.0
H367 H 0.93975 0.93951 0.67334 0.0
H368 H 0.93503 0.05577 0.85493 0.0
H369 H 0.93507 0.05013 0.80506 0.0
H370 H 0.02217 0.92015 0.81265 0.0
H371 H 0.02147 0.92588 0.86281 0.0
H372 H -0.0162 0.94725 0.7665 0.0
H373 H -0.01075 0.04527 0.7644 0.0
H374 H 0.02751 0.07275 0.71998 0.0
H375 H 0.02702 0.06873 0.66978 0.0
C376 C 0.40207 0.51762 0.35537 0.0
C377 C 0.46525 0.50192 0.3719 0.0
C378 C 0.40514 0.51752 0.32661 0.0
C379 C 0.47152 0.50151 0.31373 0.0
C380 C 0.5351 0.48658 0.33029 0.0
C381 C 0.53193 0.48657 0.35902 0.0
C382 C 0.47759 0.50083 0.28323 0.0
C383 C 0.41508 0.49969 0.2655 0.0
C384 C 0.4212 0.49768 0.23502 0.0
C385 C 0.35848 0.48088 0.21914 0.0
C386 C 0.36161 0.4785 0.19046 0.0
C387 C 0.42741 0.49329 0.17692 0.0
H388 H 0.53536 0.52739 0.23281 0.0
C389 C 0.4898 0.51071 0.19275 0.0
C390 C 0.48674 0.513 0.22147 0.0
H391 H 0.54141 0.52231 0.18297 0.0
H392 H 0.34979 0.5296 0.36466 0.0
H393 H 0.35582 0.53054 0.31466 0.0
H394 H 0.58733 0.47457 0.32097 0.0
H395 H 0.58217 0.47496 0.37116 0.0
H396 H 0.53591 0.4987 0.27533 0.0
H397 H 0.35689 0.49771 0.2735 0.0
H398 H 0.30689 0.46931 0.22898 0.0
H399 H 0.31192 0.46562 0.17885 0.0
C400 C 0.39432 0.50828 0.69208 0.0
C401 C 0.45921 0.49426 0.67763 0.0
C402 C 0.39516 0.50623 0.72088 0.0
C403 C 0.46098 0.4899 0.73585 0.0
C404 C 0.52613 0.47653 0.72139 0.0
C405 C 0.52522 0.47849 0.69262 0.0
C406 C 0.46531 0.48779 0.76647 0.0
C407 C 0.40206 0.48633 0.78212 0.0
C408 C 0.40722 0.48452 0.81277 0.0
C409 C 0.34409 0.46797 0.82695 0.0
C410 C 0.3462 0.46652 0.85578 0.0
C411 C 0.41135 0.48201 0.87107 0.0
H412 H 0.52116 0.51449 0.8181 0.0
C413 C 0.47439 0.49876 0.85688 0.0
C414 C 0.47226 0.50023 0.8281 0.0
H415 H 0.52568 0.51072 0.86803 0.0
H416 H 0.34249 0.52049 0.68111 0.0
H417 H 0.34463 0.5181 0.73123 0.0
H418 H 0.57798 0.46435 0.73238 0.0
H419 H 0.57668 0.46813 0.68214 0.0
H420 H 0.52323 0.4854 0.77628 0.0
H421 H 0.34419 0.48454 0.77227 0.0
H422 H 0.29288 0.45611 0.8157 0.0
H423 H 0.29616 0.45403 0.86609 0.0
loop_
_geom_bond_atom_site_label_1
_geom_bond_atom_site_label_2
_geom_bond_distance
_geom_bond_site_symmetry_2
_ccdc_geom_bond_type
C0 O16 1.251 1_554 S
C0 O18 1.254 . S
N1 C2 1.335 1_655 S
N1 C6 1.304 1_545 S
N1 Zn7 2.020 1_545 S
C2 N1 1.335 1_455 S
C2 C3 1.379 . S
C2 H20 0.952 . S
C3 C2 1.379 . S
C3 C4 1.390 1_455 S
C3 H30 0.949 . S
C4 C3 1.390 1_655 S
C4 C5 1.357 1_545 S
C5 C4 1.357 1_565 S
C5 C6 1.370 . S
C5 H31 0.950 . S
C6 N1 1.304 1_565 S
C6 C5 1.370 . S
C6 H24 0.948 . S
Zn7 N1 2.020 1_565 S
Zn7 O16 2.039 1_665 S
Zn7 O22 2.034 1_565 S
Zn7 O26 2.025 . S
Zn7 O28 2.024 1_655 S
C8 O27 1.246 . S
C8 O28 1.249 1_554 S
N9 C10 1.308 1_565 S
N9 C11 1.332 1_455 S
N9 Zn15 2.020 1_565 S
C10 N9 1.308 1_545 S
C10 C14 1.370 . S
C10 H21 0.948 . S
C11 N9 1.332 1_655 S
C11 C12 1.379 . S
C11 H19 0.952 . S
C12 C11 1.379 . S
C12 C13 1.390 1_655 S
C12 H32 0.949 . S
C13 C12 1.390 1_455 S
C13 C14 1.357 1_565 S
C14 C10 1.370 . S
C14 C13 1.357 1_545 S
C14 H33 0.950 . S
Zn15 N9 2.020 1_545 S
Zn15 O18 2.025 . S
Zn15 O23 2.024 1_455 S
Zn15 O25 2.039 1_445 S
Zn15 O27 2.034 1_545 S
O16 C0 1.251 1_556 S
O16 Zn7 2.039 1_445 S
C17 O22 1.246 1_554 S
C17 O23 1.249 . S
O18 C0 1.254 . S
O18 Zn15 2.025 . S
H19 C11 0.952 . S
H20 C2 0.952 . S
H21 C10 0.948 . S
O22 Zn7 2.034 1_545 S
O22 C17 1.246 1_556 S
O23 Zn15 2.024 1_655 S
O23 C17 1.249 . S
H24 C6 0.948 . S
O25 Zn15 2.039 1_665 S
O25 C29 1.251 . S
O26 Zn7 2.025 . S
O26 C29 1.254 1_556 S
O27 C8 1.246 . S
O27 Zn15 2.034 1_565 S
O28 Zn7 2.024 1_455 S
O28 C8 1.249 1_556 S
C29 O25 1.251 . S
C29 O26 1.254 1_554 S
H30 C3 0.949 . S
H31 C5 0.950 . S
H32 C12 0.949 . S
H33 C14 0.950 . S
C34 O50 1.251 . S
C34 O52 1.254 . S
N35 C36 1.335 1_455 S
N35 C40 1.304 1_545 S
N35 Zn41 2.020 1_545 S
C36 N35 1.335 1_655 S
C36 C37 1.379 . S
C36 H54 0.952 . S
C37 C36 1.379 . S
C37 C38 1.390 1_655 S
C37 H64 0.949 . S
C38 C37 1.390 1_455 S
C38 C39 1.357 1_545 S
C39 C38 1.357 1_565 S
C39 C40 1.370 . S
C39 H65 0.950 . S
C40 N35 1.304 1_565 S
C40 C39 1.370 . S
C40 H58 0.948 . S
Zn41 N35 2.020 1_565 S
Zn41 O50 2.039 1_465 S
Zn41 O56 2.034 1_565 S
Zn41 O60 2.025 . S
Zn41 O62 2.024 1_455 S
C42 O61 1.246 . S
C42 O62 1.249 . S
N43 C44 1.308 1_565 S
N43 C45 1.332 1_655 S
N43 Zn49 2.020 1_565 S
C44 N43 1.308 1_545 S
C44 C48 1.370 . S
C44 H55 0.948 . S
C45 N43 1.332 1_455 S
C45 C46 1.379 . S
C45 H53 0.952 . S
C46 C45 1.379 . S
C46 C47 1.390 1_455 S
C46 H66 0.949 . S
C47 C46 1.390 1_655 S
C47 C48 1.357 1_565 S
C48 C44 1.370 . S
C48 C47 1.357 1_545 S
C48 H67 0.950 . S
Zn49 N43 2.020 1_545 S
Zn49 O52 2.025 . S
Zn49 O57 2.024 1_655 S
Zn49 O59 2.039 1_645 S
Zn49 O61 2.034 1_545 S
O50 C34 1.251 . S
O50 Zn41 2.039 1_645 S
C51 O56 1.246 . S
C51 O57 1.249 . S
O52 C34 1.254 . S
O52 Zn49 2.025 . S
H53 C45 0.952 . S
H54 C36 0.952 . S
H55 C44 0.948 . S
O56 Zn41 2.034 1_545 S
O56 C51 1.246 . S
O57 Zn49 2.024 1_455 S
O57 C51 1.249 . S
H58 C40 0.948 . S
O59 Zn49 2.039 1_465 S
O59 C63 1.251 . S
O60 Zn41 2.025 . S
O60 C63 1.254 . S
O61 C42 1.246 . S
O61 Zn49 2.034 1_565 S
O62 Zn41 2.024 1_655 S
O62 C42 1.249 . S
C63 O59 1.251 . S
C63 O60 1.254 . S
H64 C37 0.949 . S
H65 C39 0.950 . S
H66 C46 0.949 . S
H67 C48 0.950 . S
C68 O84 1.251 1_554 S
C68 O86 1.254 . S
N69 C70 1.333 . S
N69 C74 1.307 . S
N69 Zn75 2.020 . S
C70 N69 1.333 . S
C70 C71 1.379 . S
C70 H88 0.952 . S
C71 C70 1.379 . S
C71 C72 1.390 . S
C71 H98 0.949 . S
C72 C71 1.390 . S
C72 C73 1.357 . S
C73 C72 1.357 . S
C73 C74 1.370 . S
C73 H99 0.950 . S
C74 N69 1.307 . S
C74 C73 1.370 . S
C74 H92 0.948 . S
Zn75 N69 2.020 . S
Zn75 O84 2.039 . S
Zn75 O90 2.034 . S
Zn75 O94 2.025 . S
Zn75 O96 2.024 . S
C76 O95 1.246 . S
C76 O96 1.249 1_554 S
N77 C78 1.307 . S
N77 C79 1.333 . S
N77 Zn83 2.020 . S
C78 N77 1.307 . S
C78 C82 1.370 . S
C78 H89 0.948 . S
C79 N77 1.333 . S
C79 C80 1.379 . S
C79 H87 0.952 . S
C80 C79 1.379 . S
C80 C81 1.390 . S
C80 H100 0.949 . S
C81 C80 1.390 . S
C81 C82 1.357 . S
C82 C78 1.370 . S
C82 C81 1.357 . S
C82 H101 0.950 . S
Zn83 N77 2.020 . S
Zn83 O86 2.025 . S
Zn83 O91 2.024 . S
Zn83 O93 2.039 . S
Zn83 O95 2.034 . S
O84 C68 1.251 1_556 S
O84 Zn75 2.039 . S
C85 O90 1.246 1_554 S
C85 O91 1.249 . S
O86 C68 1.254 . S
O86 Zn83 2.025 . S
H87 C79 0.952 . S
H88 C70 0.952 . S
H89 C78 0.948 . S
O90 Zn75 2.034 . S
O90 C85 1.246 1_556 S
O91 Zn83 2.024 . S
O91 C85 1.249 . S
H92 C74 0.948 . S
O93 Zn83 2.039 . S
O93 C97 1.251 . S
O94 Zn75 2.025 . S
O94 C97 1.254 1_556 S
O95 C76 1.246 . S
O95 Zn83 2.034 . S
O96 Zn75 2.024 . S
O96 C76 1.249 1_556 S
C97 O93 1.251 . S
C97 O94 1.254 1_554 S
H98 C71 0.949 . S
H99 C73 0.950 . S
H100 C80 0.949 . S
H101 C82 0.950 . S
C102 O118 1.251 . S
C102 O120 1.254 . S
N103 C104 1.333 . S
N103 C108 1.307 . S
N103 Zn109 2.020 . S
C104 N103 1.333 . S
C104 C105 1.379 . S
C104 H122 0.952 . S
C105 C104 1.379 . S
C105 C106 1.390 . S
C105 H132 0.949 . S
C106 C105 1.390 . S
C106 C107 1.357 . S
C107 C106 1.357 . S
C107 C108 1.370 . S
C107 H133 0.950 . S
C108 N103 1.307 . S
C108 C107 1.370 . S
C108 H126 0.948 . S
Zn109 N103 2.020 . S
Zn109 O118 2.039 . S
Zn109 O124 2.034 . S
Zn109 O128 2.025 . S
Zn109 O130 2.024 . S
C110 O129 1.246 . S
C110 O130 1.249 . S
N111 C112 1.307 . S
N111 C113 1.333 . S
N111 Zn117 2.020 . S
C112 N111 1.307 . S
C112 C116 1.370 . S
C112 H123 0.948 . S
C113 N111 1.333 . S
C113 C114 1.379 . S
C113 H121 0.952 . S
C114 C113 1.379 . S
C114 C115 1.390 . S
C114 H134 0.949 . S
C115 C114 1.390 . S
C115 C116 1.357 . S
C116 C112 1.370 . S
C116 C115 1.357 . S
C116 H135 0.950 . S
Zn117 N111 2.020 . S
Zn117 O120 2.025 . S
Zn117 O125 2.024 . S
Zn117 O127 2.039 . S
Zn117 O129 2.034 . S
O118 C102 1.251 . S
O118 Zn109 2.039 . S
C119 O124 1.246 . S
C119 O125 1.249 . S
O120 C102 1.254 . S
O120 Zn117 2.025 . S
H121 C113 0.952 . S
H122 C104 0.952 . S
H123 C112 0.948 . S
O124 Zn109 2.034 . S
O124 C119 1.246 . S
O125 Zn117 2.024 . S
O125 C119 1.249 . S
H126 C108 0.948 . S
O127 Zn117 2.039 . S
O127 C131 1.251 . S
O128 Zn109 2.025 . S
O128 C131 1.254 . S
O129 C110 1.246 . S
O129 Zn117 2.034 . S
O130 Zn109 2.024 . S
O130 C110 1.249 . S
C131 O127 1.251 . S
C131 O128 1.254 . S
H132 C105 0.949 . S
H133 C107 0.950 . S
H134 C114 0.949 . S
H135 C116 0.950 . S
C136 C137 1.386 . S
C136 C138 1.383 . S
C136 H152 0.951 . S
C137 C136 1.386 . S
C137 C141 1.383 1_554 S
C138 C136 1.383 . S
C138 C139 1.371 1_554 S
C138 H153 0.951 . S
C139 C138 1.371 1_556 S
C139 C140 1.402 . S
C139 C142 1.486 . S
C140 C139 1.402 . S
C140 C141 1.367 . S
C140 H154 0.951 . S
C141 C137 1.383 1_556 S
C141 C140 1.367 . S
C141 H155 0.950 . S
C142 C139 1.486 . S
C142 C143 1.297 1_556 S
C142 H156 0.950 . S
C143 C142 1.297 1_554 S
C143 C144 1.479 . S
C143 H157 0.950 . S
C144 C143 1.479 . S
C144 C145 1.375 . S
C144 C150 1.404 1_554 S
C145 C144 1.375 . S
C145 C146 1.369 . S
C145 H158 0.950 . S
C146 C145 1.369 . S
C146 C147 1.392 . S
C146 H159 0.951 . S
C147 C146 1.392 . S
C147 C149 1.384 1_554 S
H148 C150 0.949 . S
C149 C147 1.384 1_556 S
C149 C150 1.385 . S
C149 H151 0.950 . S
C150 C144 1.404 1_556 S
C150 H148 0.949 . S
C150 C149 1.385 . S
H151 C149 0.950 . S
H152 C136 0.951 . S
H153 C138 0.951 . S
H154 C140 0.951 . S
H155 C141 0.950 . S
H156 C142 0.950 . S
H157 C143 0.950 . S
H158 C145 0.950 . S
H159 C146 0.951 . S
C160 C161 1.386 1_556 S
C160 C162 1.383 . S
C160 H176 0.951 . S
C161 C160 1.386 1_554 S
C161 C165 1.383 . S
C162 C160 1.383 . S
C162 C163 1.402 1_556 S
C162 H177 0.951 . S
C163 C162 1.402 1_554 S
C163 C164 1.375 . S
C163 C166 1.481 . S
C164 C163 1.375 . S
C164 C165 1.367 . S
C164 H178 0.951 . S
C165 C161 1.383 . S
C165 C164 1.367 . S
C165 H179 0.950 . S
C166 C163 1.481 . S
C166 C167 1.297 1_554 S
C166 H180 0.950 . S
C167 C166 1.297 1_556 S
C167 C168 1.479 . S
C167 H181 0.950 . S
C168 C167 1.479 . S
C168 C169 1.375 . S
C168 C174 1.404 1_556 S
C169 C168 1.375 . S
C169 C170 1.369 . S
C169 H182 0.950 . S
C170 C169 1.369 . S
C170 C171 1.392 1_556 S
C170 H183 0.951 . S
C171 C170 1.392 1_554 S
C171 C173 1.384 . S
H172 C174 0.949 . S
C173 C171 1.384 . S
C173 C174 1.385 . S
C173 H175 0.950 1_655 S
C174 C168 1.404 1_554 S
C174 H172 0.949 . S
C174 C173 1.385 . S
H175 C173 0.950 1_455 S
H176 C160 0.951 . S
H177 C162 0.951 . S
H178 C164 0.951 . S
H179 C165 0.950 . S
H180 C166 0.950 . S
H181 C167 0.950 . S
H182 C169 0.950 . S
H183 C170 0.951 . S
C184 C185 1.386 . S
C184 C186 1.383 . S
C184 H200 0.951 . S
C185 C184 1.386 . S
C185 C189 1.383 . S
C186 C184 1.383 . S
C186 C187 1.402 . S
C186 H201 0.951 . S
C187 C186 1.402 . S
C187 C188 1.375 . S
C187 C190 1.481 . S
C188 C187 1.375 . S
C188 C189 1.367 . S
C188 H202 0.951 . S
C189 C185 1.383 . S
C189 C188 1.367 . S
C189 H203 0.950 . S
C190 C187 1.481 . S
C190 C191 1.297 . S
C190 H204 0.950 . S
C191 C190 1.297 . S
C191 C192 1.479 . S
C191 H205 0.950 . S
C192 C191 1.479 . S
C192 C193 1.375 . S
C192 C198 1.404 . S
C193 C192 1.375 . S
C193 C194 1.369 . S
C193 H206 0.950 . S
C194 C193 1.369 . S
C194 C195 1.392 . S
C194 H207 0.951 . S
C195 C194 1.392 . S
C195 C197 1.384 . S
H196 C198 0.949 . S
C197 C195 1.384 . S
C197 C198 1.385 . S
C197 H199 0.950 . S
C198 C192 1.404 . S
C198 H196 0.949 . S
C198 C197 1.385 . S
H199 C197 0.950 . S
H200 C184 0.951 . S
H201 C186 0.951 . S
H202 C188 0.951 . S
H203 C189 0.950 . S
H204 C190 0.950 . S
H205 C191 0.950 . S
H206 C193 0.950 . S
H207 C194 0.951 . S
C208 C209 1.386 . S
C208 C210 1.383 . S
C208 H224 0.951 . S
C209 C208 1.386 . S
C209 C213 1.383 . S
C210 C208 1.383 . S
C210 C211 1.402 . S
C210 H225 0.951 . S
C211 C210 1.402 . S
C211 C212 1.375 . S
C211 C214 1.481 . S
C212 C211 1.375 . S
C212 C213 1.367 . S
C212 H226 0.951 . S
C213 C209 1.383 . S
C213 C212 1.367 . S
C213 H227 0.950 1_655 S
C214 C211 1.481 . S
C214 C215 1.297 . S
C214 H228 0.950 . S
C215 C214 1.297 . S
C215 C216 1.479 . S
C215 H229 0.950 . S
C216 C215 1.479 . S
C216 C217 1.375 . S
C216 C222 1.404 . S
C217 C216 1.375 . S
C217 C218 1.369 . S
C217 H230 0.950 . S
C218 C217 1.369 . S
C218 C219 1.392 . S
C218 H231 0.951 . S
C219 C218 1.392 . S
C219 C221 1.384 . S
H220 C222 0.949 . S
C221 C219 1.384 . S
C221 C222 1.385 . S
C221 H223 0.950 . S
C222 C216 1.404 . S
C222 H220 0.949 . S
C222 C221 1.385 . S
H223 C221 0.950 . S
H224 C208 0.951 . S
H225 C210 0.951 . S
H226 C212 0.951 . S
H227 C213 0.950 1_455 S
H228 C214 0.950 . S
H229 C215 0.950 . S
H230 C217 0.950 . S
H231 C218 0.951 . S
C232 C233 1.386 . S
C232 C234 1.383 . S
C232 H248 0.951 . S
C233 C232 1.386 . S
C233 C237 1.373 1_544 S
C234 C232 1.383 . S
C234 C235 1.402 1_545 S
C234 H249 0.951 . S
C235 C234 1.402 1_565 S
C235 C236 1.376 . S
C235 C238 1.481 . S
C236 C235 1.376 . S
C236 C237 1.368 1_554 S
C236 H250 0.950 1_554 S
C237 C233 1.373 1_566 S
C237 C236 1.368 1_556 S
C237 H251 0.960 . S
C238 C235 1.481 . S
C238 C239 1.297 . S
C238 H252 0.950 . S
C239 C238 1.297 . S
C239 C240 1.479 . S
C239 H253 0.950 1_565 S
C240 C239 1.479 . S
C240 C241 1.375 1_565 S
C240 C246 1.404 . S
C241 C240 1.375 1_545 S
C241 C242 1.369 . S
C241 H254 0.950 . S
C242 C241 1.369 . S
C242 C243 1.392 1_545 S
C242 H255 0.951 . S
C243 C242 1.392 1_565 S
C243 C245 1.384 . S
H244 C246 0.949 . S
C245 C243 1.384 . S
C245 C246 1.385 . S
C245 H247 0.958 . S
C246 C240 1.404 . S
C246 H244 0.949 . S
C246 C245 1.385 . S
H247 C245 0.958 . S
H248 C232 0.951 . S
H249 C234 0.951 . S
H250 C236 0.950 1_556 S
H251 C237 0.960 . S
H252 C238 0.950 . S
H253 C239 0.950 1_545 S
H254 C241 0.950 . S
H255 C242 0.951 . S
C256 C257 1.386 . S
C256 C258 1.383 . S
C256 H272 0.951 . S
C257 C256 1.386 . S
C257 C261 1.383 . S
C258 C256 1.383 . S
C258 C259 1.402 . S
C258 H273 0.951 . S
C259 C258 1.402 . S
C259 C260 1.375 . S
C259 C262 1.481 . S
C260 C259 1.375 . S
C260 C261 1.367 . S
C260 H274 0.951 . S
C261 C257 1.383 . S
C261 C260 1.367 . S
C261 H275 0.950 . S
C262 C259 1.481 . S
C262 C263 1.297 . S
C262 H276 0.950 . S
C263 C262 1.297 . S
C263 C264 1.479 . S
C263 H277 0.950 . S
C264 C263 1.479 . S
C264 C265 1.377 . S
C264 C270 1.404 . S
C265 C264 1.377 . S
C265 C266 1.367 1_565 S
C265 H278 0.951 . S
C266 C265 1.367 1_545 S
C266 C267 1.392 . S
C266 H279 0.951 . S
C267 C266 1.392 . S
C267 C269 1.384 . S
H268 C270 0.949 . S
C269 C267 1.384 . S
C269 C270 1.385 1_545 S
C269 H271 0.950 . S
C270 C264 1.404 . S
C270 H268 0.949 . S
C270 C269 1.385 1_565 S
H271 C269 0.950 . S
H272 C256 0.951 . S
H273 C258 0.951 . S
H274 C260 0.951 . S
H275 C261 0.950 . S
H276 C262 0.950 . S
H277 C263 0.950 . S
H278 C265 0.951 . S
H279 C266 0.951 . S
C280 C281 1.386 . S
C280 C282 1.383 . S
C280 H296 0.951 . S
C281 C280 1.386 . S
C281 C285 1.381 1_554 S
C282 C280 1.383 . S
C282 C283 1.402 . S
C282 H297 0.951 . S
C283 C282 1.402 . S
C283 C284 1.386 . S
C283 C286 1.481 . S
C284 C283 1.386 . S
C284 C285 1.368 1_554 S
C284 H298 0.941 1_554 S
C285 C281 1.381 1_556 S
C285 C284 1.368 1_556 S
C285 H299 0.952 . S
C286 C283 1.481 . S
C286 C287 1.297 1_655 S
C286 H300 0.950 . S
C287 C286 1.297 1_455 S
C287 C288 1.479 . S
C287 H301 0.950 . S
C288 C287 1.479 . S
C288 C289 1.375 . S
C288 C294 1.404 . S
C289 C288 1.375 . S
C289 C290 1.369 . S
C289 H302 0.950 . S
C290 C289 1.369 . S
C290 C291 1.392 . S
C290 H303 0.951 . S
C291 C290 1.392 . S
C291 C293 1.384 . S
H292 C294 0.949 . S
C293 C291 1.384 . S
C293 C294 1.385 . S
C293 H295 0.950 . S
C294 C288 1.404 . S
C294 H292 0.949 . S
C294 C293 1.385 . S
H295 C293 0.950 . S
H296 C280 0.951 . S
H297 C282 0.951 . S
H298 C284 0.941 1_556 S
H299 C285 0.952 . S
H300 C286 0.950 . S
H301 C287 0.950 . S
H302 C289 0.950 . S
H303 C290 0.951 . S
C304 C305 1.386 . S
C304 C306 1.383 . S
C304 H320 0.951 . S
C305 C304 1.386 . S
C305 C309 1.383 . S
C306 C304 1.383 . S
C306 C307 1.402 . S
C306 H321 0.951 . S
C307 C306 1.402 . S
C307 C308 1.375 . S
C307 C310 1.481 . S
C308 C307 1.375 . S
C308 C309 1.367 . S
C308 H322 0.951 . S
C309 C305 1.383 . S
C309 C308 1.367 . S
C309 H323 0.950 . S
C310 C307 1.481 . S
C310 C311 1.297 1_455 S
C310 H324 0.950 . S
C311 C310 1.297 1_655 S
C311 C312 1.479 . S
C311 H325 0.950 . S
C312 C311 1.479 . S
C312 C313 1.375 . S
C312 C318 1.404 . S
C313 C312 1.375 . S
C313 C314 1.369 . S
C313 H326 0.950 . S
C314 C313 1.369 . S
C314 C315 1.392 . S
C314 H327 0.951 . S
C315 C314 1.392 . S
C315 C317 1.384 . S
H316 C318 0.949 . S
C317 C315 1.384 . S
C317 C318 1.385 . S
C317 H319 0.950 . S
C318 C312 1.404 . S
C318 H316 0.949 . S
C318 C317 1.385 . S
H319 C317 0.950 . S
H320 C304 0.951 . S
H321 C306 0.951 . S
H322 C308 0.951 . S
H323 C309 0.950 . S
H324 C310 0.950 . S
H325 C311 0.950 . S
H326 C313 0.950 . S
H327 C314 0.951 . S
C328 C329 1.382 1_445 S
C328 C330 1.383 . S
C328 H344 0.951 . S
C329 C328 1.382 1_665 S
C329 C333 1.386 . S
C330 C328 1.383 . S
C330 C331 1.402 1_445 S
C330 H345 0.951 . S
C331 C330 1.402 1_665 S
C331 C332 1.375 . S
C331 C334 1.481 . S
C332 C331 1.375 . S
C332 C333 1.367 . S
C332 H346 0.951 . S
C333 C329 1.386 . S
C333 C332 1.367 . S
C333 H347 0.950 . S
C334 C331 1.481 . S
C334 C335 1.297 1_655 S
C334 H348 0.950 . S
C335 C334 1.297 1_455 S
C335 C336 1.479 . S
C335 H349 0.949 . S
C336 C335 1.479 . S
C336 C337 1.375 1_565 S
C336 C342 1.404 1_455 S
C337 C336 1.375 1_545 S
C337 C338 1.369 . S
C337 H350 0.950 . S
C338 C337 1.369 . S
C338 C339 1.392 1_545 S
C338 H351 0.951 . S
C339 C338 1.392 1_565 S
C339 C341 1.384 1_455 S
H340 C342 0.949 . S
C341 C339 1.384 1_655 S
C341 C342 1.385 . S
C341 H343 0.950 . S
C342 C336 1.404 1_655 S
C342 H340 0.949 . S
C342 C341 1.385 . S
H343 C341 0.950 . S
H344 C328 0.951 . S
H345 C330 0.951 . S
H346 C332 0.951 . S
H347 C333 0.950 . S
H348 C334 0.950 . S
H349 C335 0.949 . S
H350 C337 0.950 . S
H351 C338 0.951 . S
C352 C353 1.386 1_655 S
C352 C354 1.383 1_655 S
C352 H368 0.951 . S
C353 C352 1.386 1_455 S
C353 C357 1.383 1_545 S
C354 C352 1.383 1_455 S
C354 C355 1.402 1_545 S
C354 H369 0.951 1_455 S
C355 C354 1.402 1_565 S
C355 C356 1.375 . S
C355 C358 1.481 . S
C356 C355 1.375 . S
C356 C357 1.367 . S
C356 H370 0.951 . S
C357 C353 1.383 1_565 S
C357 C356 1.367 . S
C357 H371 0.950 . S
C358 C355 1.481 . S
C358 C359 1.297 1_565 S
C358 H372 0.950 . S
C359 C358 1.297 1_545 S
C359 C360 1.479 . S
C359 H373 0.950 . S
C360 C359 1.479 . S
C360 C361 1.375 . S
C360 C366 1.404 1_545 S
C361 C360 1.375 . S
C361 C362 1.369 1_455 S
C361 H374 0.950 1_455 S
C362 C361 1.369 1_655 S
C362 C363 1.392 1_655 S
C362 H375 0.951 . S
C363 C362 1.392 1_455 S
C363 C365 1.384 1_545 S
H364 C366 0.949 . S
C365 C363 1.384 1_565 S
C365 C366 1.385 . S
C365 H367 0.950 . S
C366 C360 1.404 1_565 S
C366 H364 0.949 . S
C366 C365 1.385 . S
H367 C365 0.950 . S
H368 C352 0.951 . S
H369 C354 0.951 1_655 S
H370 C356 0.951 . S
H371 C357 0.950 . S
H372 C358 0.950 . S
H373 C359 0.950 . S
H374 C361 0.950 1_655 S
H375 C362 0.951 . S
C376 C377 1.386 . S
C376 C378 1.383 . S
C376 H392 0.951 . S
C377 C376 1.386 . S
C377 C381 1.383 . S
C378 C376 1.383 . S
C378 C379 1.402 . S
C378 H393 0.951 . S
C379 C378 1.402 . S
C379 C380 1.375 . S
C379 C382 1.481 . S
C380 C379 1.375 . S
C380 C381 1.367 . S
C380 H394 0.951 . S
C381 C377 1.383 . S
C381 C380 1.367 . S
C381 H395 0.950 . S
C382 C379 1.481 . S
C382 C383 1.297 . S
C382 H396 0.950 . S
C383 C382 1.297 . S
C383 C384 1.479 . S
C383 H397 0.950 . S
C384 C383 1.479 . S
C384 C385 1.375 . S
C384 C390 1.404 . S
C385 C384 1.375 . S
C385 C386 1.369 . S
C385 H398 0.950 . S
C386 C385 1.369 . S
C386 C387 1.392 . S
C386 H399 0.951 . S
C387 C386 1.392 . S
C387 C389 1.384 . S
H388 C390 0.949 . S
C389 C387 1.384 . S
C389 C390 1.385 . S
C389 H391 0.950 . S
C390 C384 1.404 . S
C390 H388 0.949 . S
C390 C389 1.385 . S
H391 C389 0.950 . S
H392 C376 0.951 . S
H393 C378 0.951 . S
H394 C380 0.951 . S
H395 C381 0.950 . S
H396 C382 0.950 . S
H397 C383 0.950 . S
H398 C385 0.950 . S
H399 C386 0.951 . S
C400 C401 1.386 . S
C400 C402 1.383 . S
C400 H416 0.951 . S
C401 C400 1.386 . S
C401 C405 1.383 . S
C402 C400 1.383 . S
C402 C403 1.402 . S
C402 H417 0.951 . S
C403 C402 1.402 . S
C403 C404 1.375 . S
C403 C406 1.481 . S
C404 C403 1.375 . S
C404 C405 1.367 . S
C404 H418 0.951 . S
C405 C401 1.383 . S
C405 C404 1.367 . S
C405 H419 0.950 . S
C406 C403 1.481 . S
C406 C407 1.297 . S
C406 H420 0.950 . S
C407 C406 1.297 . S
C407 C408 1.479 . S
C407 H421 0.950 . S
C408 C407 1.479 . S
C408 C409 1.375 . S
C408 C414 1.404 . S
C409 C408 1.375 . S
C409 C410 1.369 . S
C409 H422 0.950 . S
C410 C409 1.369 . S
C410 C411 1.392 . S
C410 H423 0.951 . S
C411 C410 1.392 . S
C411 C413 1.384 . S
H412 C414 0.949 . S
C413 C411 1.384 . S
C413 C414 1.385 . S
C413 H415 0.950 . S
C414 C408 1.404 . S
C414 H412 0.949 . S
C414 C413 1.385 . S
H415 C413 0.950 . S
H416 C400 0.951 . S
H417 C402 0.951 . S
H418 C404 0.951 . S
H419 C405 0.950 . S
H420 C406 0.950 . S
H421 C407 0.950 . S
H422 C409 0.950 . S
H423 C410 0.951 . S
C137 C85 1.587 . S
C147 C8 1.556 . S
C161 C76 1.570 . S
C171 C17 1.585 . S
C185 C51 1.573 . S
C195 C110 1.587 . S
C209 C42 1.589 . S
C219 C119 1.572 . S
C233 C0 0.627 . S
C243 C29 0.694 . S
C257 C63 0.691 . S
C267 C34 0.605 . S
C281 C68 0.627 . S
C291 C97 0.693 . S
C305 C102 0.679 . S
C315 C131 0.604 . S
C329 C47 1.495 . S
C339 C13 1.482 . S
C353 C4 1.498 1_455 S
C363 C38 1.478 . S
C377 C115 1.495 . S
C387 C81 1.492 . S
C401 C106 1.491 . S
C411 C72 1.479 . S
