# Generated by pormake.
# Topology wke, (5)-cn, num edge types: 1
# Building blocks:
#     Node 0, Type 0, BuildingBlock: XOMCOT_clean_sbu_1, # of connection points: 5
#     Node 1, Type 0, BuildingBlock: XOMCOT_clean_sbu_1, # of connection points: 5
#     Node 2, Type 0, BuildingBlock: XOMCOT_clean_sbu_1, # of connection points: 5
#     Node 3, Type 0, BuildingBlock: XOMCOT_clean_sbu_1, # of connection points: 5
#     Node 4, Type 0, BuildingBlock: XOMCOT_clean_sbu_1, # of connection points: 5
#     Node 5, Type 0, BuildingBlock: XOMCOT_clean_sbu_1, # of connection points: 5
#     Node 6, Type 0, BuildingBlock: XOMCOT_clean_sbu_1, # of connection points: 5
#     Node 7, Type 0, BuildingBlock: XOMCOT_clean_sbu_1, # of connection points: 5
#     Node 8, Type 0, BuildingBlock: XOMCOT_clean_sbu_1, # of connection points: 5
#     Node 9, Type 0, BuildingBlock: XOMCOT_clean_sbu_1, # of connection points: 5
#     Node 10, Type 0, BuildingBlock: XOMCOT_clean_sbu_1, # of connection points: 5
#     Node 11, Type 0, BuildingBlock: XOMCOT_clean_sbu_1, # of connection points: 5
#     Edge 12, Type (0, 0), BuildingBlock: ZUJKAS_clean_linker_0, # of connection points: 2
#     Edge 13, Type (0, 0), BuildingBlock: ZUJKAS_clean_linker_0, # of connection points: 2
#     Edge 14, Type (0, 0), BuildingBlock: ZUJKAS_clean_linker_0, # of connection points: 2
#     Edge 15, Type (0, 0), BuildingBlock: ZUJKAS_clean_linker_0, # of connection points: 2
#     Edge 16, Type (0, 0), BuildingBlock: ZUJKAS_clean_linker_0, # of connection points: 2
#     Edge 17, Type (0, 0), BuildingBlock: ZUJKAS_clean_linker_0, # of connection points: 2
#     Edge 18, Type (0, 0), BuildingBlock: ZUJKAS_clean_linker_0, # of connection points: 2
#     Edge 19, Type (0, 0), BuildingBlock: ZUJKAS_clean_linker_0, # of connection points: 2
#     Edge 20, Type (0, 0), BuildingBlock: ZUJKAS_clean_linker_0, # of connection points: 2
#     Edge 21, Type (0, 0), BuildingBlock: ZUJKAS_clean_linker_0, # of connection points: 2
#     Edge 22, Type (0, 0), BuildingBlock: ZUJKAS_clean_linker_0, # of connection points: 2
#     Edge 23, Type (0, 0), BuildingBlock: ZUJKAS_clean_linker_0, # of connection points: 2
#     Edge 24, Type (0, 0), BuildingBlock: ZUJKAS_clean_linker_0, # of connection points: 2
#     Edge 25, Type (0, 0), BuildingBlock: ZUJKAS_clean_linker_0, # of connection points: 2
#     Edge 26, Type (0, 0), BuildingBlock: ZUJKAS_clean_linker_0, # of connection points: 2
#     Edge 27, Type (0, 0), BuildingBlock: ZUJKAS_clean_linker_0, # of connection points: 2
#     Edge 28, Type (0, 0), BuildingBlock: ZUJKAS_clean_linker_0, # of connection points: 2
#     Edge 29, Type (0, 0), BuildingBlock: ZUJKAS_clean_linker_0, # of connection points: 2
#     Edge 30, Type (0, 0), BuildingBlock: ZUJKAS_clean_linker_0, # of connection points: 2
#     Edge 31, Type (0, 0), BuildingBlock: ZUJKAS_clean_linker_0, # of connection points: 2
#     Edge 32, Type (0, 0), BuildingBlock: ZUJKAS_clean_linker_0, # of connection points: 2
#     Edge 33, Type (0, 0), BuildingBlock: ZUJKAS_clean_linker_0, # of connection points: 2
#     Edge 34, Type (0, 0), BuildingBlock: ZUJKAS_clean_linker_0, # of connection points: 2
#     Edge 35, Type (0, 0), BuildingBlock: ZUJKAS_clean_linker_0, # of connection points: 2
#     Edge 36, Type (0, 0), BuildingBlock: ZUJKAS_clean_linker_0, # of connection points: 2
#     Edge 37, Type (0, 0), BuildingBlock: ZUJKAS_clean_linker_0, # of connection points: 2
#     Edge 38, Type (0, 0), BuildingBlock: ZUJKAS_clean_linker_0, # of connection points: 2
#     Edge 39, Type (0, 0), BuildingBlock: ZUJKAS_clean_linker_0, # of connection points: 2
#     Edge 40, Type (0, 0), BuildingBlock: ZUJKAS_clean_linker_0, # of connection points: 2
#     Edge 41, Type (0, 0), BuildingBlock: ZUJKAS_clean_linker_0, # of connection points: 2
# Relax obj value: 0.161
# Max RMSD: 0.151
# Mean RMSD: 0.151
data_MOF--net-wke--node1-XOMCOT_clean_sbu_1--edge1-ZUJKAS_clean_linker_0
_symmetry_space_group_name_H-M    P1
_symmetry_Int_Tables_number       1
_symmetry_cell_setting            triclinic
loop_
_symmetry_equiv_pos_as_xyz
'x, y, z'
_cell_length_a     91.261704
_cell_length_b     91.267766
_cell_length_c     21.951844
_cell_angle_alpha  89.975731
_cell_angle_beta   90.014296
_cell_angle_gamma 119.98094
loop_
_atom_site_label
_atom_site_type_symbol
_atom_site_fract_x
_atom_site_fract_y
_atom_site_fract_z
_atom_type_partial_charge
C0 C 0.13559 0.45494 0.37457 0.0
C1 C 0.13812 0.45742 0.43638 0.0
N2 N 0.12664 0.44319 0.46509 0.0
N3 N 0.12255 0.43927 0.36429 0.0
C4 C 0.11744 0.43237 0.42012 0.0
H5 H 0.14261 0.46406 0.33928 0.0
Co6 Co 0.11395 0.43034 0.28821 0.0
C7 C 0.07726 0.40795 0.30851 0.0
O8 O 0.07471 0.41434 0.2586 0.0
N9 N 0.10568 0.42104 0.21009 0.0
C10 C 0.09473 0.4016 0.13665 0.0
C11 C 0.0969 0.40425 0.19837 0.0
C12 C 0.10924 0.42826 0.15412 0.0
N13 N 0.10258 0.41674 0.10885 0.0
O14 O 0.12396 0.41613 0.29422 0.0
H15 H 0.0929 0.39444 0.23254 0.0
H16 H 0.11712 0.44161 0.14585 0.0
O17 O 0.09245 0.41287 0.3259 0.0
C18 C 0.13805 0.42378 0.26592 0.0
O19 O 0.14243 0.43854 0.24125 0.0
N20 N 0.10609 0.44596 0.28144 0.0
C21 C 0.1 0.47307 0.27257 0.0
C22 C 0.09135 0.46018 0.31556 0.0
C23 C 0.09484 0.44693 0.32018 0.0
C24 C 0.1155 0.45909 0.24302 0.0
C25 C 0.11235 0.47248 0.23649 0.0
H26 H 0.08896 0.43788 0.35656 0.0
H27 H 0.12619 0.45971 0.21966 0.0
H28 H 0.1072 0.4196 0.42763 0.0
H29 H 0.14743 0.46898 0.45831 0.0
H30 H 0.08866 0.38945 0.11391 0.0
H31 H 0.08216 0.46047 0.34602 0.0
H32 H 0.12008 0.48268 0.2054 0.0
C33 C 0.69394 0.13789 0.87472 0.0
C34 C 0.69332 0.14039 0.9363 0.0
N35 N 0.68757 0.12542 0.96483 0.0
N36 N 0.68871 0.12146 0.8644 0.0
C37 C 0.6848 0.11415 0.92011 0.0
H38 H 0.69818 0.14748 0.83962 0.0
Co39 Co 0.68854 0.11263 0.78798 0.0
C40 C 0.67531 0.07584 0.8076 0.0
O41 O 0.66697 0.07279 0.75601 0.0
N42 N 0.689 0.10418 0.70938 0.0
C43 C 0.69823 0.09452 0.63403 0.0
C44 C 0.69823 0.09676 0.69585 0.0
C45 C 0.68371 0.10652 0.65435 0.0
N46 N 0.68915 0.10075 0.60784 0.0
O47 O 0.71277 0.12222 0.79341 0.0
H48 H 0.70511 0.09372 0.72887 0.0
H49 H 0.67699 0.11331 0.64757 0.0
O50 O 0.68446 0.09117 0.82576 0.0
C51 C 0.72054 0.13511 0.75876 0.0
O52 O 0.7116 0.13963 0.72486 0.0
N53 N 0.66524 0.10521 0.78212 0.0
C54 C 0.63272 0.10102 0.77596 0.0
C55 C 0.63597 0.09029 0.8122 0.0
C56 C 0.65241 0.09283 0.8158 0.0
C57 C 0.66239 0.1161 0.74868 0.0
C58 C 0.64624 0.11407 0.74391 0.0
H59 H 0.6548 0.08537 0.84809 0.0
H60 H 0.67291 0.12686 0.72703 0.0
H61 H 0.6804 0.10091 0.92809 0.0
H62 H 0.69683 0.15231 0.9583 0.0
H63 H 0.70478 0.08911 0.61014 0.0
H64 H 0.62608 0.08051 0.83981 0.0
H65 H 0.64444 0.12284 0.71607 0.0
C66 C 0.55031 0.67591 0.38169 0.0
C67 C 0.54759 0.67517 0.44354 0.0
N68 N 0.56252 0.68056 0.47197 0.0
N69 N 0.56683 0.68157 0.37114 0.0
C70 C 0.57398 0.6845 0.42695 0.0
H71 H 0.54082 0.6724 0.34656 0.0
Co72 Co 0.57665 0.68409 0.29489 0.0
C73 C 0.60231 0.67343 0.31189 0.0
O74 O 0.59806 0.66599 0.2584 0.0
N75 N 0.5867 0.68732 0.21707 0.0
C76 C 0.60643 0.69892 0.14494 0.0
C77 C 0.60341 0.69747 0.20652 0.0
C78 C 0.5798 0.6832 0.16064 0.0
N79 N 0.59153 0.68997 0.11593 0.0
O80 O 0.58922 0.70823 0.30617 0.0
H81 H 0.61283 0.70385 0.24156 0.0
H82 H 0.56641 0.67628 0.15182 0.0
O83 O 0.59493 0.68131 0.33176 0.0
C84 C 0.58014 0.71427 0.28667 0.0
O85 O 0.56491 0.70358 0.2663 0.0
N86 N 0.56274 0.66051 0.28289 0.0
C87 C 0.5369 0.62677 0.27146 0.0
C88 C 0.55047 0.63123 0.31152 0.0
C89 C 0.56309 0.6482 0.31745 0.0
C90 C 0.5492 0.65642 0.24608 0.0
C91 C 0.5364 0.63966 0.23846 0.0
H92 H 0.57251 0.65139 0.35243 0.0
H93 H 0.54773 0.66635 0.22541 0.0
H94 H 0.5873 0.68917 0.43448 0.0
H95 H 0.53558 0.67108 0.46579 0.0
H96 H 0.61866 0.70626 0.12344 0.0
H97 H 0.55109 0.62175 0.33937 0.0
H98 H 0.52572 0.63695 0.20953 0.0
C99 C 0.8705 0.55763 0.87801 0.0
C100 C 0.86819 0.55443 0.93959 0.0
N101 N 0.88321 0.56375 0.96769 0.0
N102 N 0.88689 0.5689 0.86728 0.0
C103 C 0.89433 0.57233 0.92264 0.0
H104 H 0.86083 0.5523 0.84322 0.0
Co105 Co 0.89564 0.57744 0.79093 0.0
C106 C 0.93248 0.60124 0.80899 0.0
O107 O 0.93542 0.59599 0.7571 0.0
N108 N 0.90395 0.58614 0.71226 0.0
C109 C 0.91357 0.60447 0.63521 0.0
C110 C 0.91124 0.60268 0.69714 0.0
C111 C 0.90167 0.57814 0.65818 0.0
N112 N 0.90746 0.589 0.61059 0.0
O113 O 0.88614 0.59214 0.7962 0.0
H114 H 0.91412 0.61278 0.72909 0.0
H115 H 0.89533 0.5646 0.65306 0.0
O116 O 0.91722 0.59488 0.82816 0.0
C117 C 0.87321 0.58703 0.76175 0.0
O118 O 0.86861 0.57355 0.7279 0.0
N119 N 0.90296 0.56149 0.78529 0.0
C120 C 0.90705 0.5331 0.77823 0.0
C121 C 0.9182 0.54726 0.81296 0.0
C122 C 0.91571 0.56119 0.81704 0.0
C123 C 0.89163 0.54754 0.75372 0.0
C124 C 0.89361 0.53341 0.74844 0.0
H125 H 0.92359 0.57123 0.84801 0.0
H126 H 0.8807 0.54727 0.7334 0.0
H127 H 0.90766 0.58084 0.92988 0.0
H128 H 0.85626 0.54625 0.96194 0.0
H129 H 0.91853 0.61621 0.61008 0.0
H130 H 0.92831 0.54729 0.83885 0.0
H131 H 0.88455 0.52275 0.72165 0.0
C132 C 0.32081 0.87141 0.36606 0.0
C133 C 0.32107 0.86881 0.42774 0.0
N134 N 0.32331 0.88275 0.45726 0.0
N135 N 0.32287 0.88689 0.35656 0.0
C136 C 0.32433 0.89349 0.41283 0.0
H137 H 0.3191 0.86255 0.33028 0.0
Co138 Co 0.32303 0.89574 0.28028 0.0
C139 C 0.33719 0.93237 0.30076 0.0
O140 O 0.34625 0.93498 0.25117 0.0
N141 N 0.32248 0.90427 0.20183 0.0
C142 C 0.31349 0.91459 0.12774 0.0
C143 C 0.31395 0.91251 0.18952 0.0
C144 C 0.32677 0.9012 0.14609 0.0
N145 N 0.32153 0.90742 0.10041 0.0
O146 O 0.29878 0.88582 0.28503 0.0
H147 H 0.30774 0.91613 0.22335 0.0
H148 H 0.33244 0.89349 0.13807 0.0
O149 O 0.32691 0.91717 0.31784 0.0
C150 C 0.2918 0.87247 0.25233 0.0
O151 O 0.3016 0.86829 0.22212 0.0
N152 N 0.34649 0.90351 0.27518 0.0
C153 C 0.37967 0.90963 0.26779 0.0
C154 C 0.37531 0.91816 0.31073 0.0
C155 C 0.35857 0.91472 0.31438 0.0
C156 C 0.35034 0.89415 0.23698 0.0
C157 C 0.36691 0.89739 0.23095 0.0
H158 H 0.3553 0.92064 0.35032 0.0
H159 H 0.34035 0.88353 0.21303 0.0
H160 H 0.32632 0.90603 0.4211 0.0
H161 H 0.31943 0.85738 0.44896 0.0
H162 H 0.30728 0.92048 0.10471 0.0
H163 H 0.3847 0.92721 0.34178 0.0
H164 H 0.36958 0.88982 0.19973 0.0
C165 C 0.456 0.32466 0.87347 0.0
C166 C 0.45847 0.32467 0.93533 0.0
N167 N 0.44384 0.32069 0.96378 0.0
N168 N 0.43993 0.32081 0.86288 0.0
C169 C 0.43278 0.31826 0.91858 0.0
H170 H 0.46538 0.32757 0.83841 0.0
Co171 Co 0.43066 0.32001 0.78694 0.0
C172 C 0.40654 0.33251 0.80696 0.0
O173 O 0.41159 0.34078 0.75514 0.0
N174 N 0.42109 0.31858 0.70891 0.0
C175 C 0.40174 0.30906 0.63496 0.0
C176 C 0.40434 0.30946 0.69673 0.0
C177 C 0.42839 0.32314 0.6532 0.0
N178 N 0.41692 0.31761 0.6076 0.0
O179 O 0.41679 0.29577 0.79453 0.0
H180 H 0.3946 0.3029 0.73063 0.0
H181 H 0.44183 0.32977 0.64535 0.0
O182 O 0.41301 0.32361 0.82513 0.0
C183 C 0.4223 0.28821 0.76065 0.0
O184 O 0.43569 0.29734 0.72666 0.0
N185 N 0.44576 0.34354 0.77908 0.0
C186 C 0.47268 0.37687 0.77149 0.0
C187 C 0.45916 0.37259 0.81161 0.0
C188 C 0.44599 0.3558 0.81564 0.0
C189 C 0.45929 0.34737 0.74259 0.0
C190 C 0.47263 0.36395 0.73687 0.0
H191 H 0.43655 0.35266 0.85046 0.0
H192 H 0.4602 0.33732 0.72019 0.0
H193 H 0.41968 0.31458 0.92579 0.0
H194 H 0.47027 0.32781 0.95747 0.0
H195 H 0.38968 0.30223 0.61186 0.0
H196 H 0.45892 0.38205 0.84069 0.0
H197 H 0.48323 0.36647 0.70781 0.0
C198 C 0.5531 0.87353 0.12815 0.0
C199 C 0.55044 0.87132 0.06628 0.0
N200 N 0.56507 0.88185 0.03772 0.0
N201 N 0.56928 0.88551 0.13853 0.0
C202 C 0.57631 0.89019 0.08266 0.0
H203 H 0.5438 0.86697 0.16338 0.0
Co204 Co 0.57883 0.89363 0.21458 0.0
C205 C 0.60278 0.93026 0.19573 0.0
O206 O 0.59786 0.93325 0.24825 0.0
N207 N 0.58871 0.90138 0.2925 0.0
C208 C 0.6085 0.91099 0.36484 0.0
C209 C 0.60552 0.90897 0.30326 0.0
C210 C 0.58176 0.89846 0.3489 0.0
N211 N 0.59351 0.90429 0.39372 0.0
O212 O 0.59243 0.88304 0.20535 0.0
H213 H 0.61506 0.9124 0.2684 0.0
H214 H 0.56839 0.89126 0.35775 0.0
O215 O 0.59636 0.91499 0.17669 0.0
C216 C 0.5845 0.86882 0.23271 0.0
O217 O 0.56987 0.86471 0.25796 0.0
N218 N 0.56383 0.90208 0.22468 0.0
C219 C 0.53617 0.90739 0.23392 0.0
C220 C 0.54954 0.917 0.19346 0.0
C221 C 0.56311 0.91396 0.18877 0.0
C222 C 0.55061 0.8922 0.26205 0.0
C223 C 0.53703 0.89498 0.26898 0.0
H224 H 0.57238 0.92044 0.15352 0.0
H225 H 0.55007 0.88136 0.28404 0.0
H226 H 0.58934 0.89978 0.07497 0.0
H227 H 0.53865 0.86259 0.04413 0.0
H228 H 0.62079 0.91666 0.38645 0.0
H229 H 0.54914 0.92618 0.16327 0.0
H230 H 0.52704 0.88704 0.30038 0.0
C231 C 0.68123 0.55002 0.62973 0.0
C232 C 0.68102 0.54757 0.5678 0.0
N233 N 0.68519 0.56229 0.53967 0.0
N234 N 0.6854 0.56616 0.64064 0.0
C235 C 0.68793 0.57337 0.58508 0.0
H236 H 0.67829 0.54058 0.66463 0.0
Co237 Co 0.68678 0.57554 0.7167 0.0
C238 C 0.67458 0.59996 0.69904 0.0
O239 O 0.66678 0.59512 0.75178 0.0
N240 N 0.68882 0.58523 0.79477 0.0
C241 C 0.69892 0.60466 0.86838 0.0
C242 C 0.69836 0.60196 0.80665 0.0
C243 C 0.68419 0.57802 0.85059 0.0
N244 N 0.69006 0.58955 0.89597 0.0
O245 O 0.71096 0.58915 0.7074 0.0
H246 H 0.70498 0.6116 0.77251 0.0
H247 H 0.67717 0.56459 0.85869 0.0
O248 O 0.68315 0.59329 0.67941 0.0
C249 C 0.71823 0.58273 0.7383 0.0
O250 O 0.7087 0.56885 0.76951 0.0
N251 N 0.66327 0.56065 0.72632 0.0
C252 C 0.62988 0.53401 0.73682 0.0
C253 C 0.63399 0.54749 0.69666 0.0
C254 C 0.65081 0.56053 0.69119 0.0
C255 C 0.65958 0.54712 0.7626 0.0
C256 C 0.64298 0.53392 0.76982 0.0
H257 H 0.65378 0.56997 0.65648 0.0
H258 H 0.66972 0.54612 0.78386 0.0
H259 H 0.69187 0.58655 0.57812 0.0
H260 H 0.67765 0.53574 0.54541 0.0
H261 H 0.706 0.61672 0.89129 0.0
H262 H 0.62436 0.54779 0.66875 0.0
H263 H 0.64056 0.52334 0.79884 0.0
C264 C 0.13794 0.68758 0.13132 0.0
C265 C 0.14032 0.68689 0.06967 0.0
N266 N 0.12637 0.68472 0.04045 0.0
N267 N 0.12259 0.68584 0.14096 0.0
C268 C 0.11583 0.68408 0.08488 0.0
H269 H 0.14689 0.6894 0.16696 0.0
Co270 Co 0.1141 0.68645 0.21703 0.0
C271 C 0.07761 0.67496 0.19838 0.0
O272 O 0.07436 0.66679 0.25042 0.0
N273 N 0.10611 0.6877 0.29534 0.0
C274 C 0.09744 0.69778 0.37104 0.0
C275 C 0.09955 0.69769 0.30914 0.0
C276 C 0.10815 0.68214 0.35015 0.0
N277 N 0.10294 0.68804 0.39696 0.0
O278 O 0.12492 0.71077 0.21097 0.0
H279 H 0.09709 0.70504 0.27629 0.0
H280 H 0.11394 0.67447 0.35633 0.0
O281 O 0.09295 0.68344 0.17953 0.0
C282 C 0.13836 0.71745 0.24322 0.0
O283 O 0.14221 0.70736 0.27327 0.0
N284 N 0.10543 0.66292 0.22355 0.0
C285 C 0.0988 0.62955 0.23189 0.0
C286 C 0.08906 0.6337 0.19374 0.0
C287 C 0.09277 0.65053 0.18936 0.0
C288 C 0.11564 0.6592 0.2576 0.0
C289 C 0.11231 0.64261 0.26375 0.0
H290 H 0.08591 0.65353 0.15639 0.0
H291 H 0.12683 0.66933 0.27872 0.0
H292 H 0.10336 0.68219 0.07666 0.0
H293 H 0.15161 0.68826 0.04817 0.0
H294 H 0.09307 0.70522 0.39514 0.0
H295 H 0.07884 0.62408 0.16673 0.0
H296 H 0.1207 0.64015 0.29128 0.0
C297 C 0.45508 0.13464 0.6321 0.0
C298 C 0.45778 0.13705 0.57029 0.0
N299 N 0.44401 0.12494 0.54133 0.0
N300 N 0.43975 0.121 0.64203 0.0
C301 C 0.43323 0.11545 0.58594 0.0
H302 H 0.4638 0.14219 0.66766 0.0
Co303 Co 0.43082 0.11222 0.71807 0.0
C304 C 0.40924 0.07534 0.69737 0.0
O305 O 0.41563 0.07282 0.7473 0.0
N306 N 0.42151 0.10366 0.79612 0.0
C307 C 0.40206 0.09224 0.86925 0.0
C308 C 0.40474 0.09454 0.8076 0.0
C309 C 0.42869 0.10716 0.85218 0.0
N310 N 0.41716 0.10028 0.89749 0.0
O311 O 0.41586 0.12132 0.7107 0.0
H312 H 0.39495 0.09029 0.77327 0.0
H313 H 0.44197 0.11554 0.86039 0.0
O314 O 0.41397 0.0905 0.68025 0.0
C315 C 0.42117 0.13454 0.74367 0.0
O316 O 0.43484 0.13934 0.7767 0.0
N317 N 0.4471 0.10525 0.72574 0.0
C318 C 0.47551 0.1012 0.73448 0.0
C319 C 0.46241 0.09145 0.69343 0.0
C320 C 0.44854 0.094 0.68854 0.0
C321 C 0.46019 0.11545 0.76312 0.0
C322 C 0.47425 0.11338 0.76941 0.0
H323 H 0.43947 0.08748 0.65277 0.0
H324 H 0.46016 0.12591 0.78594 0.0
H325 H 0.42099 0.10441 0.57778 0.0
H326 H 0.46899 0.14698 0.54843 0.0
H327 H 0.38985 0.08549 0.89134 0.0
H328 H 0.46323 0.0825 0.66329 0.0
H329 H 0.48422 0.12154 0.80057 0.0
C330 C 0.32891 0.45659 0.11789 0.0
C331 C 0.32969 0.4593 0.05604 0.0
N332 N 0.32612 0.4448 0.02749 0.0
N333 N 0.32494 0.44049 0.12843 0.0
C334 C 0.32319 0.43359 0.07268 0.0
H335 H 0.33105 0.46575 0.15305 0.0
Co336 Co 0.32236 0.43081 0.20478 0.0
C337 C 0.3326 0.40476 0.19094 0.0
O338 O 0.33953 0.40887 0.24529 0.0
N339 N 0.31907 0.42093 0.28285 0.0
C340 C 0.30686 0.4016 0.35594 0.0
C341 C 0.30786 0.4045 0.29432 0.0
C342 C 0.3245 0.42779 0.33875 0.0
N343 N 0.31732 0.4163 0.38401 0.0
O344 O 0.2982 0.41827 0.19304 0.0
H345 H 0.30047 0.39523 0.25993 0.0
H346 H 0.3332 0.44099 0.34681 0.0
O347 O 0.32515 0.41238 0.1692 0.0
C348 C 0.29214 0.42729 0.2129 0.0
O349 O 0.3028 0.44242 0.23415 0.0
N350 N 0.34589 0.44473 0.21689 0.0
C351 C 0.37959 0.47048 0.22985 0.0
C352 C 0.37532 0.45671 0.19104 0.0
C353 C 0.35836 0.44409 0.18437 0.0
C354 C 0.3498 0.45853 0.25193 0.0
C355 C 0.36653 0.47129 0.26037 0.0
H356 H 0.35533 0.43441 0.15066 0.0
H357 H 0.33975 0.45998 0.27167 0.0
H358 H 0.31991 0.42061 0.06546 0.0
H359 H 0.33245 0.47102 0.03409 0.0
H360 H 0.29851 0.38972 0.37827 0.0
H361 H 0.38496 0.45586 0.16505 0.0
H362 H 0.36913 0.4821 0.28838 0.0
C363 C 0.87362 0.32234 0.63193 0.0
C364 C 0.87113 0.32254 0.57015 0.0
N365 N 0.88301 0.32052 0.5411 0.0
N366 N 0.8871 0.32035 0.64175 0.0
C367 C 0.89246 0.31912 0.58563 0.0
H368 H 0.86622 0.32373 0.66754 0.0
Co369 Co 0.89581 0.32008 0.71777 0.0
C370 C 0.93268 0.33529 0.69764 0.0
O371 O 0.93506 0.34409 0.74774 0.0
N372 N 0.90426 0.31917 0.79584 0.0
C373 C 0.91557 0.31093 0.86876 0.0
C374 C 0.91332 0.31144 0.80714 0.0
C375 C 0.90071 0.32274 0.85199 0.0
N376 N 0.90754 0.31798 0.89718 0.0
O377 O 0.88657 0.29599 0.71028 0.0
H378 H 0.91757 0.30593 0.77269 0.0
H379 H 0.89235 0.32766 0.8603 0.0
O380 O 0.91756 0.32489 0.68004 0.0
C381 C 0.87309 0.28832 0.74213 0.0
O382 O 0.8683 0.29745 0.77363 0.0
N383 N 0.90291 0.34336 0.7256 0.0
C384 C 0.90703 0.37586 0.73338 0.0
C385 C 0.91671 0.37239 0.6924 0.0
C386 C 0.91412 0.35595 0.68798 0.0
C387 C 0.89282 0.34637 0.76314 0.0
C388 C 0.89493 0.36253 0.76893 0.0
H389 H 0.92054 0.3533 0.65213 0.0
H390 H 0.88237 0.33596 0.78626 0.0
H391 H 0.90331 0.31759 0.57742 0.0
H392 H 0.86126 0.32395 0.54839 0.0
H393 H 0.92229 0.30541 0.89071 0.0
H394 H 0.92559 0.38207 0.6618 0.0
H395 H 0.88682 0.36444 0.80002 0.0
H396 H 0.07461 0.38559 0.39831 0.0
H397 H 0.04982 0.36799 0.4625 0.0
H398 H 0.02269 0.38967 0.37506 0.0
H399 H 0.04677 0.40631 0.30924 0.0
H400 H 0.03435 0.37454 0.54451 0.0
H401 H 0.98698 0.34214 0.36514 0.0
H402 H 0.00925 0.35442 0.34804 0.0
H403 H 0.99651 0.36444 0.35329 0.0
C404 C 0.06322 0.38635 0.39234 0.0
C405 C 0.06256 0.39711 0.34795 0.0
C406 C 0.04906 0.37631 0.42904 0.0
C407 C 0.03406 0.37702 0.42253 0.0
C408 C 0.03369 0.38819 0.37936 0.0
H409 H 0.96303 0.3643 0.69723 0.0
H410 H 0.98726 0.37194 0.63185 0.0
C411 C 0.04761 0.39787 0.34197 0.0
C412 C 0.01912 0.36706 0.46304 0.0
H413 H 0.97588 0.34506 0.46258 0.0
C414 C 0.02159 0.36782 0.52639 0.0
C415 C 1.00238 0.35774 0.44006 0.0
C416 C 0.99868 0.35448 0.37287 0.0
C417 C 0.00785 0.36057 0.56707 0.0
C418 C 0.9911 0.353 0.54406 0.0
C419 C 0.98864 0.35121 0.48073 0.0
C420 C 0.97612 0.34792 0.58447 0.0
C421 C 0.01156 0.36112 0.63429 0.0
C422 C 0.96122 0.33215 0.5779 0.0
C423 C 0.94698 0.32792 0.61431 0.0
C424 C 0.94747 0.3393 0.65848 0.0
C425 C 0.96233 0.35507 0.66461 0.0
C426 C 0.97633 0.35941 0.62749 0.0
H427 H 0.02333 0.36061 0.64218 0.0
H428 H 0.01361 0.37323 0.65361 0.0
H429 H 1.00105 0.35047 0.65922 0.0
H430 H 0.96058 0.3231 0.54459 0.0
H431 H 0.93567 0.31572 0.60828 0.0
H432 H 0.65798 0.04227 0.77915 0.0
H433 H 0.64926 0.0182 0.84741 0.0
H434 H 0.67577 0.05217 0.99575 0.0
H435 H 0.68465 0.07647 0.92753 0.0
H436 H 0.6684 0.00798 0.92447 0.0
H437 H 0.6258 0.02376 0.05459 0.0
H438 H 0.6343 0.03288 0.98099 0.0
H439 H 0.64746 0.04036 0.04752 0.0
C440 C 0.66212 0.04469 0.82615 0.0
C441 C 0.67185 0.06137 0.84796 0.0
C442 C 0.65714 0.03087 0.8651 0.0
C443 C 0.66164 0.03338 0.92684 0.0
C444 C 0.67195 0.04996 0.9484 0.0
H445 H 0.62377 0.96281 0.23078 0.0
H446 H 0.63972 0.98759 0.16611 0.0
C447 C 0.67705 0.06384 0.90927 0.0
C448 C 0.65481 0.01861 0.96877 0.0
H449 H 0.62701 0.99979 0.08603 0.0
C450 C 0.65942 0.00619 0.96006 0.0
C451 C 0.64305 0.01629 0.01498 0.0
C452 C 0.6372 0.02892 0.0251 0.0
C453 C 0.65268 0.99159 0.99672 0.0
C454 C 0.64068 0.98911 0.04234 0.0
C455 C 0.63621 1.00164 0.05123 0.0
C456 C 0.6324 0.97365 0.08129 0.0
C457 C 0.65874 0.97912 0.98682 0.0
C458 C 0.62311 0.95741 0.05546 0.0
C459 C 0.6141 0.94312 0.09259 0.0
C460 C 0.61397 0.94483 0.15623 0.0
C461 C 0.62356 0.96104 0.18193 0.0
C462 C 0.63269 0.97524 0.14496 0.0
H463 H 0.67137 0.9852 0.96464 0.0
H464 H 0.6595 0.97339 0.03048 0.0
H465 H 0.64972 0.96884 0.95641 0.0
H466 H 0.62229 0.95583 0.00648 0.0
H467 H 0.60667 0.93087 0.07128 0.0
H468 H 0.66234 0.6204 0.73401 0.0
H469 H 0.65313 0.63601 0.66918 0.0
H470 H 0.66909 0.62006 0.50989 0.0
H471 H 0.67868 0.6046 0.57486 0.0
H472 H 0.67658 0.65386 0.50347 0.0
H473 H 0.60968 0.61163 0.5705 0.0
H474 H 0.62355 0.62162 0.63394 0.0
H475 H 0.62614 0.6068 0.58768 0.0
C476 C 0.66406 0.62032 0.68521 0.0
C477 C 0.6711 0.6111 0.6596 0.0
C478 C 0.65869 0.62919 0.64816 0.0
C479 C 0.66001 0.62887 0.58456 0.0
C480 C 0.66782 0.62038 0.55886 0.0
H481 H 0.62236 0.66042 0.27948 0.0
H482 H 0.63778 0.65146 0.34637 0.0
C483 C 0.67334 0.61158 0.59607 0.0
C484 C 0.65263 0.63683 0.54517 0.0
H485 H 0.61549 0.63569 0.51163 0.0
C486 C 0.66322 0.64987 0.50512 0.0
C487 C 0.63518 0.63159 0.54722 0.0
C488 C 0.62293 0.61704 0.58668 0.0
C489 C 0.65686 0.65798 0.46784 0.0
C490 C 0.63943 0.65279 0.47021 0.0
C491 C 0.62888 0.63978 0.51033 0.0
C492 C 0.63161 0.65998 0.42933 0.0
C493 C 0.66888 0.67219 0.42682 0.0
C494 C 0.62296 0.66778 0.45359 0.0
C495 C 0.61408 0.67295 0.41532 0.0
C496 C 0.61348 0.67017 0.3521 0.0
C497 C 0.62255 0.66277 0.32791 0.0
C498 C 0.63149 0.65772 0.36609 0.0
H499 H 0.68221 0.67767 0.44207 0.0
H500 H 0.66792 0.66724 0.37994 0.0
H501 H 0.66565 0.68242 0.42509 0.0
H502 H 0.62278 0.66953 0.50233 0.0
H503 H 0.60717 0.6785 0.43556 0.0
H504 H 0.07809 0.68278 0.07662 0.0
H505 H 0.05366 0.67372 0.00911 0.0
H506 H 0.02002 0.65116 0.16173 0.0
H507 H 0.04424 0.65986 0.22921 0.0
H508 H 0.02724 0.6376 0.99855 0.0
H509 H 1.00138 0.67872 0.06874 0.0
H510 H 0.02318 0.68445 0.08154 0.0
H511 H 0.00678 0.669 0.12937 0.0
C512 C 0.06553 0.67607 0.09602 0.0
C513 C 0.06319 0.67188 0.15832 0.0
C514 C 0.05156 0.67092 0.05734 0.0
C515 C 0.03502 0.66185 0.08047 0.0
C516 C 0.03266 0.65832 0.143 0.0
H517 H 0.93292 0.60763 0.93211 0.0
H518 H 0.95792 0.62308 0.99713 0.0
C519 C 0.04657 0.66326 0.18148 0.0
C520 C 0.02019 0.65466 0.03886 0.0
H521 H 0.98418 0.65563 0.00374 0.0
C522 C 0.01791 0.64165 0.99916 0.0
C523 C 0.0079 0.65977 0.0406 0.0
C524 C 0.0099 0.67383 0.08199 0.0
C525 C 1.00349 0.63336 0.96198 0.0
C526 C 0.99124 0.63858 0.96299 0.0
C527 C 0.99357 0.65166 0.00269 0.0
C528 C 0.97596 0.63053 0.92319 0.0
C529 C 1.00128 0.61865 0.92366 0.0
C530 C 0.97769 0.63012 0.85979 0.0
C531 C 0.96348 0.62111 0.82279 0.0
C532 C 0.94713 0.61254 0.8481 0.0
C533 C 0.94531 0.61391 0.91115 0.0
C534 C 0.95961 0.62277 0.94839 0.0
H535 H 0.00884 0.61312 0.94161 0.0
H536 H 0.9878 0.60852 0.92165 0.0
H537 H 0.00568 0.62311 0.8766 0.0
H538 H 0.9901 0.63647 0.83894 0.0
H539 H 0.96535 0.62058 0.77429 0.0
H540 H 0.38656 0.07261 0.60905 0.0
H541 H 0.36906 0.04796 0.54427 0.0
H542 H 0.39151 0.02109 0.62821 0.0
H543 H 0.40806 0.04506 0.69478 0.0
H544 H 0.37574 0.03317 0.46072 0.0
H545 H 0.34425 0.98481 0.63784 0.0
H546 H 0.35633 0.007 0.65622 0.0
H547 H 0.36661 0.99455 0.6487 0.0
C548 C 0.38751 0.06131 0.61413 0.0
C549 C 0.39847 0.06068 0.65771 0.0
C550 C 0.37753 0.04722 0.5771 0.0
C551 C 0.3785 0.03234 0.58238 0.0
C552 C 0.38984 0.032 0.62484 0.0
H553 H 0.36591 0.96297 0.30147 0.0
H554 H 0.37343 0.98681 0.36864 0.0
C555 C 0.39947 0.04585 0.66263 0.0
C556 C 0.36862 0.01755 0.5412 0.0
H557 H 0.347 0.97431 0.53892 0.0
C558 C 0.36919 0.02032 0.47807 0.0
C559 C 0.35952 1.00069 0.5632 0.0
C560 C 0.35648 0.99664 0.63026 0.0
C561 C 0.36193 0.00679 0.43657 0.0
C562 C 0.35456 0.98994 0.45842 0.0
C563 C 0.35299 0.98716 0.52163 0.0
C564 C 0.34952 0.97521 0.41683 0.0
C565 C 0.36225 0.01082 0.36973 0.0
C566 C 0.33384 0.96017 0.42313 0.0
C567 C 0.32968 0.94615 0.38561 0.0
C568 C 0.34103 0.947 0.3406 0.0
C569 C 0.35668 0.96199 0.33469 0.0
C570 C 0.36097 0.97577 0.37287 0.0
H571 H 0.36158 0.02255 0.36319 0.0
H572 H 0.37436 0.0131 0.34954 0.0
H573 H 0.3516 1.00037 0.34461 0.0
H574 H 0.32483 0.95926 0.45715 0.0
H575 H 0.31758 0.93472 0.39156 0.0
H576 H 0.40031 0.32572 0.92947 0.0
H577 H 0.3844 0.33422 0.99672 0.0
H578 H 0.372 0.35545 0.84312 0.0
H579 H 0.38774 0.34698 0.77585 0.0
H580 H 0.39211 0.36807 0.01276 0.0
H581 H 0.32629 0.32834 0.9302 0.0
H582 H 0.34281 0.32349 0.91388 0.0
H583 H 0.34139 0.33952 0.87096 0.0
C584 C 0.39392 0.3319 0.90982 0.0
C585 C 0.39532 0.33567 0.84721 0.0
C586 C 0.38487 0.33679 0.94836 0.0
C587 C 0.37683 0.3453 0.92488 0.0
C588 C 0.3778 0.34862 0.86217 0.0
H589 H 0.33016 0.40102 0.06615 0.0
H590 H 0.33999 0.38548 0.00304 0.0
C591 C 0.38692 0.34385 0.82379 0.0
C592 C 0.36869 0.35206 0.9662 0.0
H593 H 0.33161 0.35163 0.99425 0.0
C594 C 0.37883 0.36432 0.00927 0.0
C595 C 0.35141 0.34731 0.96106 0.0
C596 C 0.33978 0.33384 0.91691 0.0
C597 C 0.37232 0.37231 0.04615 0.0
C598 C 0.35504 0.36762 0.04098 0.0
C599 C 0.34483 0.35522 0.99827 0.0
C600 C 0.34748 0.37562 0.0792 0.0
C601 C 0.3842 0.38617 0.08875 0.0
C602 C 0.34779 0.37473 0.14296 0.0
C603 C 0.34228 0.38365 0.17904 0.0
C604 C 0.3361 0.39351 0.15222 0.0
C605 C 0.33483 0.39358 0.08835 0.0
C606 C 0.34049 0.38472 0.05218 0.0
H607 H 0.39765 0.39135 0.0754 0.0
H608 H 0.38144 0.39671 0.08984 0.0
H609 H 0.38262 0.38097 0.1355 0.0
H610 H 0.35269 0.36743 0.16492 0.0
H611 H 0.34324 0.38314 0.22809 0.0
H612 H 0.09241 0.60721 0.13856 0.0
H613 H 0.08976 0.57916 0.14461 0.0
H614 H 0.09623 0.58436 0.33944 0.0
H615 H 0.0987 0.61231 0.33388 0.0
H616 H 0.11573 0.5733 0.19503 0.0
H617 H 0.05421 0.53645 0.31484 0.0
H618 H 0.06015 0.55601 0.2753 0.0
H619 H 0.0689 0.5564 0.34895 0.0
C620 C 0.09292 0.60224 0.18282 0.0
C621 C 0.09574 0.61197 0.23578 0.0
C622 C 0.0915 0.58626 0.18615 0.0
C623 C 0.09264 0.57963 0.24252 0.0
C624 C 0.09507 0.58914 0.29559 0.0
H625 H 0.09673 0.49139 0.36518 0.0
H626 H 0.09431 0.51687 0.35645 0.0
C627 C 0.09662 0.60515 0.29227 0.0
C628 C 0.09247 0.56331 0.24548 0.0
H629 H 0.0708 0.52325 0.30343 0.0
C630 C 0.10584 0.5623 0.21826 0.0
C631 C 0.07965 0.54907 0.27639 0.0
C632 C 0.06482 0.5494 0.30521 0.0
C633 C 0.10695 0.54752 0.2222 0.0
C634 C 0.09406 0.53319 0.2528 0.0
C635 C 0.08064 0.5342 0.27985 0.0
C636 C 0.09446 0.51715 0.25786 0.0
C637 C 0.12221 0.54762 0.19524 0.0
C638 C 0.09486 0.50857 0.20539 0.0
C639 C 0.09632 0.49407 0.21026 0.0
C640 C 0.09713 0.4877 0.26774 0.0
C641 C 0.09601 0.49591 0.32026 0.0
C642 C 0.09469 0.5105 0.31534 0.0
H643 H 0.13295 0.5607 0.18908 0.0
H644 H 0.12648 0.54053 0.22449 0.0
H645 H 0.11887 0.54149 0.1498 0.0
H646 H 0.09423 0.51318 0.16057 0.0
H647 H 0.09687 0.48787 0.16898 0.0
H648 H 0.50854 0.12645 0.74375 0.0
H649 H 0.5337 0.12368 0.75275 0.0
H650 H 0.50271 0.06941 0.74223 0.0
H651 H 0.47732 0.07204 0.73367 0.0
H652 H 0.54081 0.10632 0.84342 0.0
H653 H 0.53942 0.08047 0.61267 0.0
H654 H 0.5272 0.09043 0.63175 0.0
H655 H 0.52034 0.06923 0.65665 0.0
C656 C 0.50701 0.11389 0.74378 0.0
C657 C 0.49086 0.09945 0.73836 0.0
C658 C 0.52144 0.11235 0.74858 0.0
C659 C 0.52011 0.09636 0.74764 0.0
C660 C 0.50406 0.08189 0.74198 0.0
H661 H 0.60179 0.07195 0.76866 0.0
H662 H 0.57375 0.0695 0.76549 0.0
C663 C 0.48956 0.08342 0.73714 0.0
C664 C 0.53558 0.09501 0.75423 0.0
H665 H 0.56116 0.08362 0.67904 0.0
C666 C 0.54523 0.10129 0.80757 0.0
C667 C 0.54126 0.08834 0.70758 0.0
C668 C 0.53163 0.08184 0.64866 0.0
C669 C 0.5605 0.1013 0.81526 0.0
C670 C 0.56645 0.09512 0.76788 0.0
C671 C 0.55657 0.08837 0.71524 0.0
C672 C 0.58332 0.09645 0.77075 0.0
C673 C 0.57014 0.10792 0.87412 0.0
C674 C 0.59798 0.1124 0.77416 0.0
C675 C 0.61394 0.11384 0.77613 0.0
C676 C 0.61563 0.09934 0.77429 0.0
C677 C 0.60091 0.08335 0.77071 0.0
C678 C 0.58491 0.08193 0.76858 0.0
H679 H 0.56176 0.10748 0.91164 0.0
H680 H 0.57626 0.10055 0.88797 0.0
H681 H 0.58017 0.1213 0.86776 0.0
H682 H 0.59707 0.12379 0.77492 0.0
H683 H 0.62496 0.12634 0.77965 0.0
H684 H 0.52017 0.60903 0.16947 0.0
H685 H 0.49474 0.58098 0.16456 0.0
H686 H 0.4956 0.57657 0.35985 0.0
H687 H 0.52089 0.60465 0.36531 0.0
H688 H 0.48859 0.54774 0.21475 0.0
H689 H 0.44822 0.57132 0.315 0.0
H690 H 0.4686 0.58529 0.28134 0.0
H691 H 0.46733 0.57643 0.35546 0.0
C692 C 0.51499 0.60204 0.21134 0.0
C693 C 0.52252 0.6091 0.2678 0.0
C694 C 0.50052 0.58601 0.20841 0.0
C695 C 0.49323 0.57681 0.26188 0.0
C696 C 0.501 0.58354 0.31812 0.0
H697 H 0.39642 0.48671 0.33359 0.0
H698 H 0.42471 0.51154 0.34206 0.0
C699 C 0.51552 0.59953 0.32108 0.0
C700 C 0.47709 0.56051 0.25905 0.0
H701 H 0.43516 0.54217 0.29437 0.0
C702 C 0.47688 0.54646 0.23217 0.0
C703 C 0.46189 0.55893 0.2819 0.0
C704 C 0.46137 0.57378 0.30973 0.0
C705 C 0.46185 0.53076 0.22824 0.0
C706 C 0.44656 0.52922 0.25043 0.0
C707 C 0.44685 0.54331 0.2775 0.0
C708 C 0.43003 0.51326 0.24541 0.0
C709 C 0.46257 0.5159 0.2015 0.0
C710 C 0.4236 0.50588 0.18832 0.0
C711 C 0.40746 0.49161 0.18344 0.0
C712 C 0.39732 0.4846 0.23547 0.0
C713 C 0.40388 0.49188 0.29264 0.0
C714 C 0.42006 0.50605 0.29754 0.0
H715 H 0.47552 0.51771 0.20428 0.0
H716 H 0.45368 0.50395 0.22514 0.0
H717 H 0.45897 0.51461 0.15269 0.0
H718 H 0.43083 0.51146 0.14723 0.0
H719 H 0.40265 0.48648 0.13865 0.0
H720 H 0.88195 0.49993 0.78263 0.0
H721 H 0.88465 0.47475 0.77305 0.0
H722 H 0.9388 0.50609 0.75789 0.0
H723 H 0.93621 0.5315 0.76677 0.0
H724 H 0.89907 0.4665 0.67375 0.0
H725 H 0.93247 0.47143 0.89151 0.0
H726 H 0.92157 0.48306 0.87776 0.0
H727 H 0.94183 0.48987 0.84351 0.0
C728 C 0.89445 0.50153 0.7769 0.0
C729 C 0.90886 0.51778 0.77504 0.0
C730 C 0.89597 0.48709 0.77179 0.0
C731 C 0.91192 0.48853 0.7652 0.0
C732 C 0.92638 0.50469 0.76393 0.0
H733 H 0.93606 0.4069 0.73116 0.0
H734 H 0.93845 0.4349 0.73502 0.0
C735 C 0.92488 0.51919 0.76902 0.0
C736 C 0.91317 0.47303 0.75763 0.0
H737 H 0.92707 0.44865 0.82673 0.0
C738 C 0.90525 0.46263 0.70707 0.0
C739 C 0.92135 0.46808 0.80092 0.0
C740 C 0.92971 0.47859 0.85679 0.0
C741 C 0.9051 0.4473 0.69898 0.0
C742 C 0.91279 0.44206 0.74326 0.0
C743 C 0.92115 0.45268 0.79293 0.0
C744 C 0.91147 0.42519 0.74042 0.0
C745 C 0.89671 0.43686 0.64297 0.0
C746 C 0.89555 0.41047 0.74285 0.0
C747 C 0.89414 0.39453 0.74045 0.0
C748 C 0.90866 0.39292 0.73603 0.0
C749 C 0.92464 0.4077 0.73398 0.0
C750 C 0.92603 0.42369 0.73651 0.0
H751 H 0.89596 0.44471 0.60572 0.0
H752 H 0.90362 0.43054 0.62599 0.0
H753 H 0.88361 0.42694 0.65455 0.0
H754 H 0.88416 0.41131 0.74687 0.0
H755 H 0.88163 0.38345 0.74133 0.0
H756 H 0.53423 0.93648 0.22124 0.0
H757 H 0.50888 0.93916 0.22358 0.0
H758 H 0.47821 0.88562 0.25779 0.0
H759 H 0.50309 0.88259 0.25076 0.0
H760 H 0.46361 0.89456 0.17695 0.0
H761 H 0.48291 0.94017 0.36813 0.0
H762 H 0.49736 0.94794 0.30519 0.0
H763 H 0.49463 0.92983 0.34746 0.0
C764 C 0.52208 0.92524 0.22875 0.0
C765 C 0.52086 0.90935 0.23659 0.0
C766 C 0.5076 0.92685 0.23105 0.0
C767 C 0.49162 0.91267 0.24234 0.0
C768 C 0.49038 0.89681 0.24963 0.0
H769 H 0.39934 0.90908 0.36053 0.0
H770 H 0.42694 0.91079 0.35238 0.0
C771 C 0.50475 0.89514 0.24638 0.0
C772 C 0.47603 0.91401 0.24471 0.0
H773 H 0.45754 0.93386 0.31674 0.0
C774 C 0.4623 0.90316 0.20761 0.0
C775 C 0.47419 0.92507 0.28523 0.0
C776 C 0.48799 0.93629 0.32921 0.0
C777 C 0.4468 0.90288 0.21029 0.0
C778 C 0.44512 0.9143 0.2494 0.0
C779 C 0.45887 0.92525 0.28624 0.0
C780 C 0.42896 0.91452 0.25462 0.0
C781 C 0.43221 0.88984 0.17285 0.0
C782 C 0.42111 0.91654 0.20276 0.0
C783 C 0.40523 0.91526 0.20726 0.0
C784 C 0.39711 0.91244 0.26396 0.0
C785 C 0.40536 0.91134 0.31632 0.0
C786 C 0.42111 0.91229 0.31165 0.0
H787 H 0.43404 0.87906 0.16036 0.0
H788 H 0.42005 0.88478 0.19778 0.0
H789 H 0.43129 0.89575 0.12994 0.0
H790 H 0.42713 0.91883 0.15857 0.0
H791 H 0.39921 0.91637 0.16634 0.0
H792 H 0.48979 0.39486 0.67042 0.0
H793 H 0.51542 0.42275 0.66673 0.0
H794 H 0.51449 0.42637 0.86232 0.0
H795 H 0.48903 0.39839 0.86657 0.0
H796 H 0.52157 0.45544 0.71586 0.0
H797 H 0.56194 0.43241 0.82 0.0
H798 H 0.54153 0.41828 0.7869 0.0
H799 H 0.54288 0.42741 0.86055 0.0
C800 C 0.49504 0.4016 0.71265 0.0
C801 C 0.48741 0.39437 0.76881 0.0
C802 C 0.50961 0.41756 0.71042 0.0
C803 C 0.51693 0.42652 0.76429 0.0
C804 C 0.50911 0.41957 0.82028 0.0
H805 H 0.61264 0.51764 0.83987 0.0
H806 H 0.58459 0.49241 0.84702 0.0
C807 C 0.49448 0.40365 0.82255 0.0
C808 C 0.53303 0.44288 0.76198 0.0
H809 H 0.57482 0.46163 0.80015 0.0
C810 C 0.53323 0.45684 0.73427 0.0
C811 C 0.54819 0.44463 0.78611 0.0
C812 C 0.54877 0.42989 0.81471 0.0
C813 C 0.54819 0.47261 0.73077 0.0
C814 C 0.56342 0.47433 0.75433 0.0
C815 C 0.56315 0.46034 0.78223 0.0
C816 C 0.57987 0.49038 0.74991 0.0
C817 C 0.54745 0.48735 0.70299 0.0
C818 C 0.58657 0.4977 0.69296 0.0
C819 C 0.60258 0.51217 0.6888 0.0
C820 C 0.61232 0.51949 0.74146 0.0
C821 C 0.6055 0.51224 0.79845 0.0
C822 C 0.58946 0.49785 0.8026 0.0
H823 H 0.53442 0.48539 0.70432 0.0
H824 H 0.55607 0.49934 0.72693 0.0
H825 H 0.55139 0.48869 0.65456 0.0
H826 H 0.57965 0.49193 0.65151 0.0
H827 H 0.60759 0.51726 0.64415 0.0
H828 H 0.09803 0.42041 0.52441 0.0
H829 H 0.09409 0.4161 0.63431 0.0
H830 H 0.14565 0.45543 0.66394 0.0
H831 H 0.1499 0.45963 0.55407 0.0
H832 H 0.11393 0.40817 0.71909 0.0
H833 H 0.11631 0.46898 0.77072 0.0
H834 H 0.11228 0.46 0.69507 0.0
H835 H 0.13339 0.47044 0.72527 0.0
C836 C 0.10863 0.42805 0.55401 0.0
C837 C 0.1243 0.44042 0.53003 0.0
C838 C 0.10629 0.42562 0.61693 0.0
C839 C 0.11951 0.4356 0.65713 0.0
C840 C 0.1352 0.44781 0.6336 0.0
H841 H 0.12947 0.44229 0.05076 0.0
H842 H 0.13347 0.44667 0.9407 0.0
C843 C 0.13759 0.45021 0.57071 0.0
C844 C 0.11694 0.43307 0.72372 0.0
H845 H 0.11514 0.45223 0.85479 0.0
C846 C 0.11413 0.41775 0.74886 0.0
C847 C 0.11731 0.44566 0.76223 0.0
C848 C 0.11985 0.46217 0.73716 0.0
C849 C 0.11194 0.41477 0.81185 0.0
C850 C 0.11213 0.4273 0.85043 0.0
C851 C 0.11497 0.44264 0.82516 0.0
C852 C 0.10947 0.42476 0.91716 0.0
C853 C 0.10988 0.39841 0.83656 0.0
C854 C 0.09451 0.4112 0.94052 0.0
C855 C 0.09222 0.40866 0.00338 0.0
C856 C 0.10473 0.41977 0.04415 0.0
C857 C 0.11951 0.43361 0.02065 0.0
C858 C 0.12185 0.43607 0.95774 0.0
H859 H 0.11482 0.39253 0.8043 0.0
H860 H 0.11652 0.40044 0.88082 0.0
H861 H 0.09624 0.38933 0.84384 0.0
H862 H 0.08458 0.40258 0.91013 0.0
H863 H 0.08059 0.39806 0.02018 0.0
H864 H 0.66275 0.10075 0.55081 0.0
H865 H 0.65952 0.10329 0.4409 0.0
H866 H 0.70819 0.10765 0.40948 0.0
H867 H 0.71135 0.10491 0.51848 0.0
H868 H 0.67798 0.12829 0.36158 0.0
H869 H 0.67936 0.0709 0.2906 0.0
H870 H 0.67696 0.07512 0.36916 0.0
H871 H 0.69764 0.08475 0.33475 0.0
C872 C 0.67273 0.10223 0.52035 0.0
C873 C 0.6872 0.1024 0.54334 0.0
C874 C 0.67085 0.10363 0.45758 0.0
C875 C 0.68343 0.10525 0.41665 0.0
C876 C 0.69805 0.10583 0.43977 0.0
H877 H 0.70563 0.14738 0.05486 0.0
H878 H 0.70296 0.14195 0.16429 0.0
C879 C 0.69986 0.1043 0.50226 0.0
C880 C 0.68163 0.1069 0.34997 0.0
H881 H 0.68437 0.09115 0.21194 0.0
C882 C 0.67919 0.12005 0.32887 0.0
C883 C 0.68285 0.09595 0.30714 0.0
C884 C 0.68416 0.08078 0.32657 0.0
C885 C 0.67864 0.12298 0.26624 0.0
C886 C 0.68105 0.11275 0.22344 0.0
C887 C 0.68278 0.09917 0.24457 0.0
C888 C 0.68228 0.11617 0.15673 0.0
C889 C 0.67539 0.13695 0.24672 0.0
C890 C 0.67193 0.10334 0.11554 0.0
C891 C 0.67359 0.10637 0.05266 0.0
C892 C 0.68563 0.1223 0.02965 0.0
C893 C 0.69599 0.13509 0.07102 0.0
C894 C 0.69443 0.13201 0.13375 0.0
H895 H 0.66832 0.13958 0.28221 0.0
H896 H 0.68766 0.14874 0.23964 0.0
H897 H 0.66809 0.13376 0.20353 0.0
H898 H 0.66253 0.09098 0.13205 0.0
H899 H 0.66534 0.09629 0.02211 0.0
H900 H 0.59135 0.70214 0.53201 0.0
H901 H 0.5963 0.70335 0.6421 0.0
H902 H 0.54535 0.66236 0.66908 0.0
H903 H 0.54038 0.6609 0.55919 0.0
H904 H 0.57625 0.70818 0.7369 0.0
H905 H 0.5764 0.64755 0.75892 0.0
H906 H 0.57987 0.65847 0.68709 0.0
H907 H 0.55889 0.64662 0.71789 0.0
C908 C 0.58126 0.69328 0.56129 0.0
C909 C 0.56547 0.68141 0.53677 0.0
C910 C 0.58408 0.69405 0.62416 0.0
C911 C 0.57125 0.68283 0.66352 0.0
C912 C 0.55548 0.671 0.63933 0.0
H913 H 0.56443 0.66554 0.05444 0.0
H914 H 0.55924 0.6642 0.94481 0.0
C915 C 0.55261 0.6703 0.57658 0.0
C916 C 0.57421 0.68372 0.73009 0.0
H917 H 0.57742 0.66173 0.85029 0.0
C918 C 0.57658 0.69808 0.76178 0.0
C919 C 0.57449 0.67044 0.76225 0.0
C920 C 0.57241 0.65492 0.72996 0.0
C921 C 0.57899 0.69943 0.82516 0.0
C922 C 0.57947 0.68623 0.85738 0.0
C923 C 0.57706 0.67184 0.82556 0.0
C924 C 0.58261 0.68716 0.92401 0.0
C925 C 0.58059 0.7148 0.85714 0.0
C926 C 0.59757 0.70038 0.94872 0.0
C927 C 0.60049 0.7013 0.01146 0.0
C928 C 0.58859 0.68889 0.05094 0.0
C929 C 0.57374 0.67548 0.02578 0.0
C930 C 0.5708 0.67462 0.96298 0.0
H931 H 0.57507 0.72107 0.82964 0.0
H932 H 0.57424 0.71141 0.90224 0.0
H933 H 0.59418 0.72409 0.86436 0.0
H934 H 0.60704 0.70999 0.91942 0.0
H935 H 0.61201 0.71188 0.02887 0.0
H936 H 0.92712 0.60901 0.5187 0.0
H937 H 0.92308 0.60304 0.40954 0.0
H938 H 0.88047 0.55369 0.44722 0.0
H939 H 0.88402 0.55976 0.55627 0.0
H940 H 0.92296 0.57719 0.34037 0.0
H941 H 0.86072 0.57427 0.3303 0.0
H942 H 0.87466 0.58273 0.39508 0.0
H943 H 0.86193 0.56024 0.38484 0.0
C944 C 0.91682 0.59693 0.50384 0.0
C945 C 0.90581 0.58495 0.54645 0.0
C946 C 0.9146 0.59349 0.44142 0.0
C947 C 0.90131 0.57804 0.42024 0.0
C948 C 0.89063 0.56582 0.46256 0.0
H949 H 0.86524 0.54027 0.05423 0.0
H950 H 0.87007 0.54298 0.16424 0.0
C951 C 0.89282 0.56925 0.52503 0.0
C952 C 0.89852 0.57486 0.35383 0.0
H953 H 0.87014 0.56752 0.23998 0.0
C954 C 0.91142 0.57507 0.31835 0.0
C955 C 0.88344 0.57211 0.32527 0.0
C956 C 0.86944 0.57246 0.36061 0.0
C957 C 0.9096 0.57246 0.25508 0.0
C958 C 0.89458 0.56985 0.22649 0.0
C959 C 0.88162 0.56947 0.26206 0.0
C960 C 0.89219 0.56793 0.15953 0.0
C961 C 0.92366 0.57231 0.21952 0.0
C962 C 0.90298 0.5811 0.12037 0.0
C963 C 0.9002 0.57963 0.05747 0.0
C964 C 0.8865 0.56499 0.0324 0.0
C965 C 0.87578 0.55178 0.07188 0.0
C966 C 0.87857 0.55327 0.13479 0.0
H967 H 0.932 0.56981 0.24942 0.0
H968 H 0.91853 0.56259 0.18302 0.0
H969 H 0.93155 0.58485 0.19783 0.0
H970 H 0.91333 0.5927 0.13858 0.0
H971 H 0.90854 0.59018 0.02878 0.0
H972 H 0.31794 0.90554 0.51907 0.0
H973 H 0.31937 0.91001 0.62893 0.0
H974 H 0.33164 0.87055 0.65462 0.0
H975 H 0.33066 0.8662 0.54462 0.0
H976 H 0.30469 0.86824 0.73057 0.0
H977 H 0.36249 0.93173 0.73865 0.0
H978 H 0.34665 0.92957 0.68496 0.0
H979 H 0.3573 0.91772 0.67405 0.0
C980 C 0.32121 0.89795 0.54766 0.0
C981 C 0.32423 0.88552 0.5224 0.0
C982 C 0.32199 0.90053 0.61065 0.0
C983 C 0.32579 0.89073 0.64979 0.0
C984 C 0.32872 0.87827 0.62509 0.0
H985 H 0.34633 0.90512 0.0409 0.0
H986 H 0.34775 0.90063 0.93128 0.0
C987 C 0.32805 0.87574 0.56207 0.0
C988 C 0.32612 0.89312 0.71667 0.0
H989 H 0.3466 0.92181 0.83021 0.0
C990 C 0.31389 0.87991 0.75244 0.0
C991 C 0.33825 0.9083 0.74504 0.0
C992 C 0.35203 0.92262 0.70893 0.0
C993 C 0.3132 0.88167 0.81575 0.0
C994 C 0.325 0.89705 0.84385 0.0
C995 C 0.33751 0.91009 0.80837 0.0
C996 C 0.32427 0.89991 0.90991 0.0
C997 C 0.29987 0.86708 0.85227 0.0
C998 C 0.31071 0.90118 0.93385 0.0
C999 C 0.30989 0.90379 0.99618 0.0
C1000 C 0.32261 0.90513 0.03587 0.0
C1001 C 0.33626 0.90397 0.01159 0.0
C1002 C 0.33713 0.90149 0.94905 0.0
H1003 H 0.29412 0.85504 0.82621 0.0
H1004 H 0.30532 0.8654 0.89518 0.0
H1005 H 0.28967 0.8698 0.86459 0.0
H1006 H 0.30073 0.90015 0.90424 0.0
H1007 H 0.29912 0.90444 0.0134 0.0
H1008 H 0.44393 0.3191 0.5499 0.0
H1009 H 0.44874 0.32027 0.43985 0.0
H1010 H 0.40187 0.31978 0.40839 0.0
H1011 H 0.39708 0.31884 0.51849 0.0
H1012 H 0.42561 0.29546 0.35172 0.0
H1013 H 0.43803 0.36065 0.30653 0.0
H1014 H 0.43989 0.3536 0.38157 0.0
H1015 H 0.41939 0.34729 0.35044 0.0
C1016 C 0.43478 0.31952 0.51967 0.0
C1017 C 0.42015 0.31896 0.54295 0.0
C1018 C 0.4375 0.32007 0.45681 0.0
C1019 C 0.42574 0.32027 0.41612 0.0
C1020 C 0.4112 0.31984 0.43911 0.0
H1021 H 0.41941 0.32402 0.02263 0.0
H1022 H 0.41467 0.32306 0.13228 0.0
C1023 C 0.40841 0.31917 0.50194 0.0
C1024 C 0.42839 0.3203 0.34954 0.0
H1025 H 0.4356 0.34391 0.22074 0.0
C1026 C 0.42786 0.30606 0.323 0.0
C1027 C 0.43121 0.33411 0.31236 0.0
C1028 C 0.43231 0.34986 0.33898 0.0
C1029 C 0.42982 0.30515 0.25989 0.0
C1030 C 0.4328 0.31904 0.22262 0.0
C1031 C 0.43331 0.33328 0.24932 0.0
C1032 C 0.43546 0.3191 0.15585 0.0
C1033 C 0.42823 0.28913 0.23365 0.0
C1034 C 0.44878 0.31729 0.13251 0.0
C1035 C 0.4514 0.3176 0.06966 0.0
C1036 C 0.44086 0.31993 0.02869 0.0
C1037 C 0.4276 0.32188 0.05241 0.0
C1038 C 0.42495 0.32149 0.11527 0.0
H1039 H 0.42116 0.27818 0.26469 0.0
H1040 H 0.4217 0.28608 0.18886 0.0
H1041 H 0.44105 0.29086 0.227 0.0
H1042 H 0.45729 0.3158 0.16295 0.0
H1043 H 0.46167 0.31596 0.05331 0.0
H1044 H 0.61486 0.90497 0.48184 0.0
H1045 H 0.60966 0.90157 0.59131 0.0
H1046 H 0.56025 0.8957 0.56398 0.0
H1047 H 0.56544 0.89953 0.45431 0.0
H1048 H 0.60034 0.92151 0.67165 0.0
H1049 H 0.55227 0.85299 0.66369 0.0
H1050 H 0.56693 0.86364 0.60208 0.0
H1051 H 0.54906 0.86657 0.61267 0.0
C1052 C 0.60294 0.90316 0.4988 0.0
C1053 C 0.59055 0.90248 0.45874 0.0
C1054 C 0.59997 0.90111 0.56153 0.0
C1055 C 0.58451 0.8982 0.58556 0.0
C1056 C 0.57217 0.89768 0.54613 0.0
H1057 H 0.54205 0.8771 0.95055 0.0
H1058 H 0.54698 0.88154 0.84093 0.0
C1059 C 0.57515 0.89982 0.48336 0.0
C1060 C 0.58139 0.8958 0.65201 0.0
H1061 H 0.55755 0.86642 0.75948 0.0
C1062 C 0.59101 0.90948 0.69101 0.0
C1063 C 0.56916 0.8801 0.67687 0.0
C1064 C 0.5588 0.86491 0.63691 0.0
C1065 C 0.58857 0.90794 0.7544 0.0
C1066 C 0.57648 0.89216 0.77946 0.0
C1067 C 0.56682 0.8785 0.74027 0.0
C1068 C 0.57362 0.88953 0.84617 0.0
C1069 C 0.59868 0.92336 0.79369 0.0
C1070 C 0.58689 0.89229 0.88558 0.0
C1071 C 0.5841 0.88979 0.94834 0.0
C1072 C 0.56793 0.88423 0.9729 0.0
C1073 C 0.55461 0.8812 0.93315 0.0
C1074 C 0.55743 0.88382 0.87047 0.0
H1075 H 0.60354 0.93524 0.76702 0.0
H1076 H 0.59097 0.92374 0.83211 0.0
H1077 H 0.60973 0.92296 0.81284 0.0
H1078 H 0.59938 0.89625 0.86775 0.0
H1079 H 0.59456 0.89195 0.97751 0.0
H1080 H 0.68964 0.54445 0.44959 0.0
H1081 H 0.69006 0.54922 0.3399 0.0
H1082 H 0.68302 0.59187 0.37211 0.0
H1083 H 0.68218 0.58702 0.48173 0.0
H1084 H 0.6635 0.55041 0.26843 0.0
H1085 H 0.72549 0.61013 0.25881 0.0
H1086 H 0.71943 0.59556 0.32203 0.0
H1087 H 0.71073 0.6093 0.31491 0.0
C1088 C 0.68808 0.55479 0.43356 0.0
C1089 C 0.68593 0.56537 0.47487 0.0
C1090 C 0.6884 0.55754 0.37079 0.0
C1091 C 0.68675 0.57099 0.34807 0.0
C1092 C 0.6846 0.58158 0.38888 0.0
H1093 H 0.68926 0.60976 0.98439 0.0
H1094 H 0.68761 0.60483 0.09446 0.0
C1095 C 0.68419 0.57881 0.45164 0.0
C1096 C 0.6869 0.57373 0.28155 0.0
H1097 H 0.70957 0.60132 0.16783 0.0
C1098 C 0.67357 0.56151 0.24626 0.0
C1099 C 0.70002 0.58826 0.25309 0.0
C1100 C 0.71482 0.60155 0.28888 0.0
C1101 C 0.67289 0.56355 0.1831 0.0
C1102 C 0.68613 0.57801 0.15439 0.0
C1103 C 0.69943 0.59025 0.18987 0.0
C1104 C 0.68654 0.58066 0.08755 0.0
C1105 C 0.6578 0.5504 0.14806 0.0
C1106 C 0.6866 0.56878 0.04711 0.0
C1107 C 0.68746 0.57154 0.98425 0.0
C1108 C 0.68852 0.58637 0.96062 0.0
C1109 C 0.68856 0.59829 1.00125 0.0
C1110 C 0.68757 0.59546 0.06409 0.0
H1111 H 0.64672 0.54308 0.17832 0.0
H1112 H 0.6541 0.55629 0.11133 0.0
H1113 H 0.66105 0.54135 0.12687 0.0
H1114 H 0.6863 0.55749 0.06418 0.0
H1115 H 0.68777 0.56229 0.95429 0.0
H1116 H 0.08484 0.69124 0.48885 0.0
H1117 H 0.08891 0.68963 0.59809 0.0
H1118 H 0.12823 0.67776 0.56136 0.0
H1119 H 0.12481 0.68009 0.45229 0.0
H1120 H 0.08611 0.66352 0.66911 0.0
H1121 H 0.15181 0.7178 0.67609 0.0
H1122 H 0.1382 0.7134 0.61085 0.0
H1123 H 0.14881 0.70152 0.62327 0.0
C1124 C 0.09448 0.68845 0.50386 0.0
C1125 C 0.10459 0.68597 0.46142 0.0
C1126 C 0.0967 0.68741 0.5664 0.0
C1127 C 0.10909 0.68388 0.58789 0.0
C1128 C 0.11884 0.68086 0.54581 0.0
H1129 H 0.1415 0.67562 0.95337 0.0
H1130 H 0.13697 0.67466 0.84331 0.0
C1131 C 0.11669 0.68197 0.48325 0.0
C1132 C 0.11178 0.68342 0.65436 0.0
H1133 H 0.14129 0.70191 0.76699 0.0
C1134 C 0.09816 0.67193 0.69054 0.0
C1135 C 0.12752 0.69442 0.68224 0.0
C1136 C 0.14239 0.7076 0.64629 0.0
C1137 C 0.09991 0.67105 0.75379 0.0
C1138 C 0.11562 0.68206 0.78158 0.0
C1139 C 0.12928 0.69344 0.74542 0.0
C1140 C 0.11806 0.6823 0.84837 0.0
C1141 C 0.08498 0.6582 0.79031 0.0
C1142 C 0.10907 0.6871 0.88757 0.0
C1143 C 0.11172 0.6878 0.95045 0.0
C1144 C 0.12348 0.68376 0.97549 0.0
C1145 C 0.13249 0.67899 0.93585 0.0
C1146 C 0.12985 0.67833 0.87291 0.0
H1147 H 0.07534 0.64804 0.76094 0.0
H1148 H 0.08907 0.65234 0.82584 0.0
H1149 H 0.0789 0.6646 0.81341 0.0
H1150 H 0.10018 0.69057 0.86942 0.0
H1151 H 0.10478 0.69185 0.97917 0.0
H1152 H 0.39493 0.09693 0.98663 0.0
H1153 H 0.40029 0.10072 0.09588 0.0
H1154 H 0.45174 0.11257 0.06645 0.0
H1155 H 0.44644 0.10836 0.95688 0.0
H1156 H 0.41323 0.08327 0.17494 0.0
H1157 H 0.45453 0.15327 0.16723 0.0
H1158 H 0.44013 0.14147 0.10627 0.0
H1159 H 0.4595 0.14113 0.11525 0.0
C1160 C 0.40735 0.10014 0.00304 0.0
C1161 C 0.42026 0.10236 0.96241 0.0
C1162 C 0.4104 0.1024 0.06567 0.0
C1163 C 0.42644 0.10709 0.08906 0.0
C1164 C 0.43934 0.10919 0.04908 0.0
H1165 H 0.46817 0.13299 0.45532 0.0
H1166 H 0.46393 0.12812 0.34555 0.0
C1167 C 0.43628 0.10683 0.98638 0.0
C1168 C 0.42958 0.10969 0.15543 0.0
H1169 H 0.45056 0.14013 0.26302 0.0
C1170 C 0.42139 0.09568 0.19435 0.0
C1171 C 0.44029 0.12589 0.18033 0.0
C1172 C 0.44908 0.14137 0.14039 0.0
C1173 C 0.42375 0.09742 0.25774 0.0
C1174 C 0.43422 0.11369 0.2829 0.0
C1175 C 0.44252 0.12768 0.24375 0.0
C1176 C 0.43668 0.11653 0.34967 0.0
C1177 C 0.41527 0.08175 0.29693 0.0
C1178 C 0.42281 0.11187 0.38847 0.0
C1179 C 0.4252 0.1146 0.45128 0.0
C1180 C 0.44154 0.12228 0.47648 0.0
C1181 C 0.45544 0.1272 0.43736 0.0
C1182 C 0.45303 0.12435 0.37462 0.0
H1183 H 0.41207 0.07017 0.2703 0.0
H1184 H 0.42345 0.0826 0.33578 0.0
H1185 H 0.4033 0.08031 0.31542 0.0
H1186 H 0.41012 0.10627 0.37014 0.0
H1187 H 0.41426 0.11094 0.47999 0.0
H1188 H 0.31071 0.41451 0.96817 0.0
H1189 H 0.31061 0.40978 0.85896 0.0
H1190 H 0.33958 0.46361 0.8288 0.0
H1191 H 0.34053 0.46851 0.93811 0.0
H1192 H 0.29755 0.41962 0.76789 0.0
H1193 H 0.3666 0.44759 0.73274 0.0
H1194 H 0.35711 0.44298 0.80751 0.0
H1195 H 0.36111 0.46192 0.76809 0.0
C1196 C 0.31733 0.42539 0.93873 0.0
C1197 C 0.32574 0.44192 0.96259 0.0
C1198 C 0.31714 0.42263 0.87605 0.0
C1199 C 0.32534 0.43632 0.83577 0.0
C1200 C 0.33351 0.45283 0.85912 0.0
H1201 H 0.32808 0.44621 0.44328 0.0
H1202 H 0.33043 0.45086 0.5532 0.0
C1203 C 0.33382 0.45561 0.92182 0.0
C1204 C 0.3248 0.43331 0.7692 0.0
H1205 H 0.34966 0.44121 0.64322 0.0
C1206 C 0.30895 0.42424 0.74074 0.0
C1207 C 0.3397 0.43933 0.73382 0.0
C1208 C 0.35709 0.44835 0.76214 0.0
C1209 C 0.30759 0.42128 0.67773 0.0
C1210 C 0.32246 0.42751 0.64242 0.0
C1211 C 0.33831 0.43654 0.67065 0.0
C1212 C 0.32173 0.42474 0.57592 0.0
C1213 C 0.29028 0.41178 0.64899 0.0
C1214 C 0.31636 0.40855 0.55252 0.0
C1215 C 0.3152 0.40585 0.48963 0.0
C1216 C 0.31932 0.41929 0.4489 0.0
C1217 C 0.32499 0.43558 0.47285 0.0
C1218 C 0.32625 0.43827 0.53577 0.0
H1219 H 0.28013 0.41022 0.68083 0.0
H1220 H 0.28972 0.41845 0.60748 0.0
H1221 H 0.28771 0.39902 0.63503 0.0
H1222 H 0.31303 0.398 0.58298 0.0
H1223 H 0.31109 0.39323 0.47304 0.0
H1224 H 0.87515 0.33667 0.45459 0.0
H1225 H 0.87921 0.33638 0.34442 0.0
H1226 H 0.90063 0.30409 0.37 0.0
H1227 H 0.89643 0.30414 0.48018 0.0
H1228 H 0.91148 0.34639 0.28111 0.0
H1229 H 0.86176 0.27952 0.24099 0.0
H1230 H 0.86207 0.29112 0.30811 0.0
H1231 H 0.8764 0.2831 0.30178 0.0
C1232 C 0.88057 0.32937 0.43677 0.0
C1233 C 0.88539 0.32036 0.47619 0.0
C1234 C 0.88297 0.32931 0.37387 0.0
C1235 C 0.89007 0.3201 0.34915 0.0
C1236 C 0.89497 0.31115 0.38823 0.0
H1237 H 0.9108 0.29892 0.98581 0.0
H1238 H 0.90721 0.30043 0.09504 0.0
C1239 C 0.89269 0.31129 0.45118 0.0
C1240 C 0.89252 0.32 0.28249 0.0
H1241 H 0.87926 0.29435 0.1575 0.0
C1242 C 0.90441 0.33505 0.25389 0.0
C1243 C 0.8833 0.30517 0.2474 0.0
C1244 C 0.87006 0.28881 0.2758 0.0
C1245 C 0.90761 0.33558 0.19107 0.0
C1246 C 0.89833 0.32074 0.15578 0.0
C1247 C 0.88636 0.30572 0.18453 0.0
C1248 C 0.90101 0.32038 0.08916 0.0
C1249 C 0.92124 0.35189 0.16354 0.0
C1250 C 0.89865 0.33104 0.04921 0.0
C1251 C 0.90095 0.3304 0.98644 0.0
C1252 C 0.90545 0.31891 0.96214 0.0
C1253 C 0.90764 0.30815 0.00248 0.0
C1254 C 0.90545 0.30888 0.06516 0.0
H1255 H 0.93021 0.36043 0.19865 0.0
H1256 H 0.92849 0.34945 0.12831 0.0
H1257 H 0.9153 0.3586 0.14165 0.0
H1258 H 0.89487 0.33977 0.06648 0.0
H1259 H 0.89927 0.33897 0.95711 0.0
H1260 H 0.13858 0.39791 0.33061 0.0
H1261 H 0.16028 0.38938 0.32426 0.0
H1262 H 0.18554 0.42604 0.18161 0.0
H1263 H 0.16411 0.4343 0.1869 0.0
H1264 H 0.18488 0.39589 0.15885 0.0
H1265 H 0.20788 0.41945 0.39359 0.0
H1266 H 0.18611 0.40324 0.38498 0.0
H1267 H 0.19319 0.424 0.35483 0.0
C1268 C 0.14866 0.40395 0.29745 0.0
C1269 C 0.14973 0.41694 0.25986 0.0
C1270 C 0.1611 0.39914 0.29406 0.0
C1271 C 0.1747 0.40724 0.25295 0.0
C1272 C 0.17523 0.4196 0.2137 0.0
H1273 H 0.27749 0.44619 0.23587 0.0
H1274 H 0.24768 0.437 0.24723 0.0
C1275 C 0.16296 0.4244 0.21715 0.0
C1276 C 0.18922 0.40407 0.25234 0.0
H1277 H 0.22506 0.41348 0.33185 0.0
C1278 C 0.1935 0.39932 0.19713 0.0
C1279 C 0.2005 0.40864 0.30223 0.0
C1280 C 0.19684 0.41422 0.36227 0.0
C1281 C 0.20921 0.40015 0.18918 0.0
C1282 C 0.22087 0.40568 0.238 0.0
C1283 C 0.21609 0.40924 0.29448 0.0
C1284 C 0.23894 0.41061 0.22905 0.0
C1285 C 0.21372 0.39633 0.12739 0.0
C1286 C 0.24407 0.39885 0.21414 0.0
C1287 C 0.26136 0.40414 0.20715 0.0
C1288 C 0.27371 0.42124 0.21538 0.0
C1289 C 0.2684 0.4329 0.22948 0.0
C1290 C 0.2513 0.42766 0.23621 0.0
H1291 H 0.20397 0.394 0.0925 0.0
H1292 H 0.22605 0.40699 0.11193 0.0
H1293 H 0.21503 0.3849 0.13052 0.0
H1294 H 0.23477 0.38558 0.20893 0.0
H1295 H 0.26505 0.39484 0.1967 0.0
H1296 H 0.86751 0.26543 0.65065 0.0
H1297 H 0.845 0.23547 0.64831 0.0
H1298 H 0.83144 0.23954 0.83304 0.0
H1299 H 0.85357 0.26925 0.83542 0.0
H1300 H 0.83119 0.2067 0.79519 0.0
H1301 H 0.79412 0.22704 0.65166 0.0
H1302 H 0.81555 0.23358 0.62984 0.0
H1303 H 0.81162 0.24186 0.69805 0.0
C1304 C 0.86001 0.25976 0.69117 0.0
C1305 C 0.86219 0.26967 0.74305 0.0
C1306 C 0.84714 0.2427 0.68976 0.0
C1307 C 0.83651 0.23533 0.74048 0.0
C1308 C 0.8395 0.24494 0.79352 0.0
H1309 H 0.74301 0.14782 0.85358 0.0
H1310 H 0.77263 0.17059 0.84713 0.0
C1311 C 0.85212 0.26195 0.79467 0.0
C1312 C 0.82105 0.2184 0.73679 0.0
H1313 H 0.78031 0.19909 0.68583 0.0
C1314 C 0.8201 0.20488 0.77057 0.0
C1315 C 0.8066 0.21614 0.70502 0.0
C1316 C 0.80684 0.23038 0.66918 0.0
C1317 C 0.80501 0.18914 0.77356 0.0
C1318 C 0.79033 0.18705 0.74351 0.0
C1319 C 0.79149 0.20055 0.7088 0.0
C1320 C 0.77344 0.17134 0.74838 0.0
C1321 C 0.80503 0.17492 0.80848 0.0
C1322 C 0.76393 0.16399 0.69538 0.0
C1323 C 0.74697 0.15133 0.69921 0.0
C1324 C 0.73916 0.14546 0.75607 0.0
C1325 C 0.74886 0.15191 0.80921 0.0
C1326 C 0.76582 0.16491 0.80543 0.0
H1327 H 0.8179 0.17646 0.81 0.0
H1328 H 0.80104 0.17505 0.85612 0.0
H1329 H 0.79621 0.16243 0.78804 0.0
H1330 H 0.76942 0.16863 0.65084 0.0
H1331 H 0.73971 0.14661 0.65757 0.0
H1332 H 0.61042 0.86825 0.16861 0.0
H1333 H 0.61872 0.84636 0.17456 0.0
H1334 H 0.58126 0.82059 0.31433 0.0
H1335 H 0.57318 0.84215 0.30934 0.0
H1336 H 0.61165 0.8215 0.33902 0.0
H1337 H 0.58875 0.79873 0.10351 0.0
H1338 H 0.60477 0.82054 0.11303 0.0
H1339 H 0.58387 0.81321 0.14219 0.0
C1340 C 0.60414 0.85799 0.20097 0.0
C1341 C 0.591 0.85685 0.23791 0.0
C1342 C 0.60882 0.84546 0.20416 0.0
C1343 C 0.60047 0.8317 0.24449 0.0
C1344 C 0.5879 0.83104 0.2829 0.0
H1345 H 0.56134 0.72897 0.2626 0.0
H1346 H 0.57063 0.75879 0.25056 0.0
C1347 C 0.58321 0.84338 0.27961 0.0
C1348 C 0.60366 0.81721 0.24531 0.0
H1349 H 0.59435 0.78139 0.16595 0.0
C1350 C 0.6083 0.8129 0.30074 0.0
C1351 C 0.59919 0.80596 0.19541 0.0
C1352 C 0.59377 0.80969 0.13514 0.0
C1353 C 0.60744 0.79719 0.30885 0.0
C1354 C 0.60198 0.78554 0.26001 0.0
C1355 C 0.59854 0.79035 0.20334 0.0
C1356 C 0.59699 0.76747 0.26911 0.0
C1357 C 0.61113 0.79264 0.37083 0.0
C1358 C 0.60871 0.76231 0.2844 0.0
C1359 C 0.60336 0.74502 0.29176 0.0
C1360 C 0.58624 0.7327 0.28357 0.0
C1361 C 0.57463 0.73804 0.26901 0.0
C1362 C 0.57993 0.75515 0.26188 0.0
H1363 H 0.61344 0.8024 0.40564 0.0
H1364 H 0.6004 0.78034 0.38616 0.0
H1365 H 0.62253 0.79128 0.36807 0.0
H1366 H 0.62198 0.77158 0.28968 0.0
H1367 H 0.61263 0.74131 0.30257 0.0
H1368 H 0.86321 0.59652 0.66103 0.0
H1369 H 0.84085 0.60375 0.65349 0.0
H1370 H 0.83577 0.60104 0.84928 0.0
H1371 H 0.85887 0.59472 0.85674 0.0
H1372 H 0.81012 0.58307 0.68073 0.0
H1373 H 0.82889 0.64008 0.82026 0.0
H1374 H 0.84379 0.63349 0.79839 0.0
H1375 H 0.83018 0.62409 0.86339 0.0
C1376 C 0.85775 0.59815 0.70253 0.0
C1377 C 0.86285 0.59528 0.75948 0.0
C1378 C 0.84489 0.60218 0.69823 0.0
C1379 C 0.83655 0.60305 0.75074 0.0
C1380 C 0.84221 0.60093 0.80807 0.0
H1381 H 0.73654 0.57957 0.82891 0.0
H1382 H 0.76641 0.58779 0.82798 0.0
C1383 C 0.85541 0.59728 0.81242 0.0
C1384 C 0.82062 0.60379 0.7446 0.0
H1385 H 0.79888 0.62244 0.80055 0.0
C1386 C 0.80788 0.59197 0.70598 0.0
C1387 C 0.81751 0.61532 0.77755 0.0
C1388 C 0.83091 0.62907 0.81669 0.0
C1389 C 0.79204 0.59092 0.70127 0.0
C1390 C 0.78872 0.60193 0.73616 0.0
C1391 C 0.8015 0.61405 0.77364 0.0
C1392 C 0.77141 0.59955 0.73921 0.0
C1393 C 0.77862 0.57749 0.66112 0.0
C1394 C 0.76438 0.60387 0.69011 0.0
C1395 C 0.74721 0.59928 0.69067 0.0
C1396 C 0.73683 0.5901 0.73997 0.0
C1397 C 0.74416 0.58651 0.79001 0.0
C1398 C 0.76127 0.59127 0.78976 0.0
H1399 H 0.78283 0.56913 0.6402 0.0
H1400 H 0.76696 0.56958 0.68798 0.0
H1401 H 0.77532 0.58361 0.62409 0.0
H1402 H 0.77204 0.61025 0.65058 0.0
H1403 H 0.74189 0.60216 0.65145 0.0
H1404 H 0.26763 0.86623 0.33983 0.0
H1405 H 0.23814 0.84264 0.33968 0.0
H1406 H 0.24498 0.82915 0.15806 0.0
H1407 H 0.27419 0.85235 0.15808 0.0
H1408 H 0.20793 0.82962 0.24065 0.0
H1409 H 0.23673 0.78937 0.2844 0.0
H1410 H 0.24767 0.81174 0.301 0.0
H1411 H 0.24592 0.80459 0.22379 0.0
C1412 C 0.26265 0.85852 0.29933 0.0
C1413 C 0.27325 0.861 0.24924 0.0
C1414 C 0.24583 0.84506 0.29927 0.0
C1415 C 0.23945 0.8341 0.24894 0.0
C1416 C 0.24966 0.83742 0.19735 0.0
H1417 H 0.14471 0.74227 0.15822 0.0
H1418 H 0.1679 0.77188 0.1615 0.0
C1419 C 0.26638 0.85066 0.19758 0.0
C1420 C 0.22316 0.8179 0.25257 0.0
H1421 H 0.20756 0.77534 0.26307 0.0
C1422 C 0.20776 0.81773 0.24604 0.0
C1423 C 0.22302 0.80244 0.25963 0.0
C1424 C 0.23918 0.80192 0.26804 0.0
C1425 C 0.19219 0.80237 0.24567 0.0
C1426 C 0.19213 0.78687 0.25135 0.0
C1427 C 0.20757 0.78718 0.25854 0.0
C1428 C 0.17634 0.77006 0.252 0.0
C1429 C 0.17597 0.80283 0.23999 0.0
C1430 C 0.17319 0.75926 0.30184 0.0
C1431 C 0.16021 0.74244 0.29964 0.0
C1432 C 0.14995 0.73596 0.24766 0.0
C1433 C 0.15235 0.74697 0.19902 0.0
C1434 C 0.16557 0.76389 0.20098 0.0
H1435 H 0.17787 0.81557 0.25043 0.0
H1436 H 0.1712 0.79955 0.19259 0.0
H1437 H 0.16613 0.79344 0.27096 0.0
H1438 H 0.18126 0.76368 0.34171 0.0
H1439 H 0.15859 0.73432 0.33811 0.0
H1440 H 0.41332 0.2658 0.85555 0.0
H1441 H 0.40687 0.23623 0.84847 0.0
H1442 H 0.40688 0.23936 0.65237 0.0
H1443 H 0.41416 0.26898 0.65946 0.0
H1444 H 0.38315 0.20622 0.79862 0.0
H1445 H 0.44427 0.22914 0.67876 0.0
H1446 H 0.43839 0.24335 0.71334 0.0
H1447 H 0.43033 0.23442 0.63935 0.0
C1448 C 0.41154 0.25998 0.81111 0.0
C1449 C 0.41435 0.26962 0.75803 0.0
C1450 C 0.40793 0.24313 0.80701 0.0
C1451 C 0.40691 0.2357 0.7498 0.0
C1452 C 0.40816 0.24494 0.69698 0.0
H1453 H 0.40714 0.14263 0.64782 0.0
H1454 H 0.40011 0.16542 0.64623 0.0
C1455 C 0.41215 0.26181 0.70105 0.0
C1456 C 0.40593 0.21893 0.74505 0.0
H1457 H 0.42671 0.19956 0.68675 0.0
C1458 C 0.39265 0.20477 0.774 0.0
C1459 C 0.4184 0.21698 0.71329 0.0
C1460 C 0.43374 0.2318 0.68497 0.0
C1461 C 0.39151 0.1888 0.7719 0.0
C1462 C 0.40393 0.18693 0.73994 0.0
C1463 C 0.41702 0.20097 0.71025 0.0
C1464 C 0.40486 0.17114 0.74233 0.0
C1465 C 0.37714 0.17404 0.80417 0.0
C1466 C 0.40956 0.16664 0.79691 0.0
C1467 C 0.41378 0.15389 0.79764 0.0
C1468 C 0.41321 0.14523 0.74395 0.0
C1469 C 0.40746 0.14895 0.68996 0.0
C1470 C 0.40352 0.16199 0.68901 0.0
H1471 H 0.3666 0.17644 0.81443 0.0
H1472 H 0.3722 0.16236 0.77629 0.0
H1473 H 0.38182 0.17178 0.84784 0.0
H1474 H 0.41096 0.17368 0.83832 0.0
H1475 H 0.41823 0.1513 0.83986 0.0
loop_
_geom_bond_atom_site_label_1
_geom_bond_atom_site_label_2
_geom_bond_distance
_geom_bond_site_symmetry_2
_ccdc_geom_bond_type
C0 C1 1.351 . S
C0 N3 1.368 . S
C0 H5 0.931 . S
C1 C0 1.351 . S
C1 N2 1.373 . S
C1 H29 0.930 . S
N2 C1 1.373 . S
N2 C4 1.340 . S
N3 C0 1.368 . S
N3 C4 1.321 . S
N3 Co6 2.135 . S
C4 N2 1.340 . S
C4 N3 1.321 . S
C4 H28 0.930 . S
H5 C0 0.931 . S
Co6 N3 2.135 . S
Co6 N9 2.121 . S
Co6 O14 2.055 . S
Co6 O17 2.039 . S
Co6 N20 2.140 . S
C7 O8 1.227 . S
C7 O17 1.265 . S
O8 C7 1.227 . S
N9 Co6 2.121 . S
N9 C11 1.375 . S
N9 C12 1.313 . S
C10 C11 1.338 . S
C10 N13 1.377 . S
C10 H30 0.930 . S
C11 N9 1.375 . S
C11 C10 1.338 . S
C11 H15 0.931 . S
C12 N9 1.313 . S
C12 N13 1.344 . S
C12 H16 0.930 . S
N13 C10 1.377 . S
N13 C12 1.344 . S
O14 Co6 2.055 . S
O14 C18 1.253 . S
H15 C11 0.931 . S
H16 C12 0.930 . S
O17 Co6 2.039 . S
O17 C7 1.265 . S
C18 O14 1.253 . S
C18 O19 1.227 . S
O19 C18 1.227 . S
N20 Co6 2.140 . S
N20 C23 1.346 . S
N20 C24 1.345 . S
C21 C22 1.387 . S
C21 C25 1.391 . S
C22 C21 1.387 . S
C22 C23 1.369 . S
C22 H31 0.929 . S
C23 N20 1.346 . S
C23 C22 1.369 . S
C23 H26 0.928 . S
C24 N20 1.345 . S
C24 C25 1.371 . S
C24 H27 0.931 . S
C25 C21 1.391 . S
C25 C24 1.371 . S
C25 H32 0.930 . S
H26 C23 0.928 . S
H27 C24 0.931 . S
H28 C4 0.930 . S
H29 C1 0.930 . S
H30 C10 0.930 . S
H31 C22 0.929 . S
H32 C25 0.930 . S
C33 C34 1.351 1_556 S
C33 N36 1.368 . S
C33 H38 0.931 . S
C34 C33 1.351 1_554 S
C34 N35 1.373 . S
C34 H62 0.930 . S
N35 C34 1.373 . S
N35 C37 1.340 1_554 S
N36 C33 1.368 . S
N36 C37 1.321 . S
N36 Co39 2.135 . S
C37 N35 1.340 1_556 S
C37 N36 1.321 . S
C37 H61 0.930 . S
H38 C33 0.931 . S
Co39 N36 2.135 . S
Co39 N42 2.121 . S
Co39 O47 2.055 . S
Co39 O50 2.039 . S
Co39 N53 2.140 . S
C40 O41 1.227 . S
C40 O50 1.265 . S
O41 C40 1.227 . S
N42 Co39 2.121 . S
N42 C44 1.375 . S
N42 C45 1.313 . S
C43 C44 1.338 . S
C43 N46 1.377 . S
C43 H63 0.930 . S
C44 N42 1.375 . S
C44 C43 1.338 . S
C44 H48 0.931 . S
C45 N42 1.313 . S
C45 N46 1.344 . S
C45 H49 0.930 . S
N46 C43 1.377 . S
N46 C45 1.344 . S
O47 Co39 2.055 . S
O47 C51 1.253 . S
H48 C44 0.931 . S
H49 C45 0.930 . S
O50 Co39 2.039 . S
O50 C40 1.265 . S
C51 O47 1.253 . S
C51 O52 1.227 . S
O52 C51 1.227 . S
N53 Co39 2.140 . S
N53 C56 1.346 . S
N53 C57 1.345 . S
C54 C55 1.387 . S
C54 C58 1.391 . S
C55 C54 1.387 . S
C55 C56 1.369 . S
C55 H64 0.929 . S
C56 N53 1.346 . S
C56 C55 1.369 . S
C56 H59 0.928 . S
C57 N53 1.345 . S
C57 C58 1.371 . S
C57 H60 0.931 . S
C58 C54 1.391 . S
C58 C57 1.371 . S
C58 H65 0.930 . S
H59 C56 0.928 . S
H60 C57 0.931 . S
H61 C37 0.930 . S
H62 C34 0.930 . S
H63 C43 0.930 . S
H64 C55 0.929 . S
H65 C58 0.930 . S
C66 C67 1.351 . S
C66 N69 1.368 . S
C66 H71 0.931 . S
C67 C66 1.351 . S
C67 N68 1.373 . S
C67 H95 0.930 . S
N68 C67 1.373 . S
N68 C70 1.340 . S
N69 C66 1.368 . S
N69 C70 1.321 . S
N69 Co72 2.135 . S
C70 N68 1.340 . S
C70 N69 1.321 . S
C70 H94 0.930 . S
H71 C66 0.931 . S
Co72 N69 2.135 . S
Co72 N75 2.121 . S
Co72 O80 2.055 . S
Co72 O83 2.039 . S
Co72 N86 2.140 . S
C73 O74 1.227 . S
C73 O83 1.265 . S
O74 C73 1.227 . S
N75 Co72 2.121 . S
N75 C77 1.375 . S
N75 C78 1.313 . S
C76 C77 1.338 . S
C76 N79 1.377 . S
C76 H96 0.930 . S
C77 N75 1.375 . S
C77 C76 1.338 . S
C77 H81 0.931 . S
C78 N75 1.313 . S
C78 N79 1.344 . S
C78 H82 0.930 . S
N79 C76 1.377 . S
N79 C78 1.344 . S
O80 Co72 2.055 . S
O80 C84 1.253 . S
H81 C77 0.931 . S
H82 C78 0.930 . S
O83 Co72 2.039 . S
O83 C73 1.265 . S
C84 O80 1.253 . S
C84 O85 1.227 . S
O85 C84 1.227 . S
N86 Co72 2.140 . S
N86 C89 1.346 . S
N86 C90 1.345 . S
C87 C88 1.387 . S
C87 C91 1.391 . S
C88 C87 1.387 . S
C88 C89 1.369 . S
C88 H97 0.929 . S
C89 N86 1.346 . S
C89 C88 1.369 . S
C89 H92 0.928 . S
C90 N86 1.345 . S
C90 C91 1.371 . S
C90 H93 0.931 . S
C91 C87 1.391 . S
C91 C90 1.371 . S
C91 H98 0.930 . S
H92 C89 0.928 . S
H93 C90 0.931 . S
H94 C70 0.930 . S
H95 C67 0.930 . S
H96 C76 0.930 . S
H97 C88 0.929 . S
H98 C91 0.930 . S
C99 C100 1.351 1_556 S
C99 N102 1.368 . S
C99 H104 0.931 . S
C100 C99 1.351 1_554 S
C100 N101 1.373 . S
C100 H128 0.930 . S
N101 C100 1.373 . S
N101 C103 1.340 1_554 S
N102 C99 1.368 . S
N102 C103 1.321 . S
N102 Co105 2.135 . S
C103 N101 1.340 1_556 S
C103 N102 1.321 . S
C103 H127 0.930 . S
H104 C99 0.931 . S
Co105 N102 2.135 . S
Co105 N108 2.121 . S
Co105 O113 2.055 . S
Co105 O116 2.039 . S
Co105 N119 2.140 . S
C106 O107 1.227 . S
C106 O116 1.265 . S
O107 C106 1.227 . S
N108 Co105 2.121 . S
N108 C110 1.375 . S
N108 C111 1.313 . S
C109 C110 1.338 . S
C109 N112 1.377 . S
C109 H129 0.930 . S
C110 N108 1.375 . S
C110 C109 1.338 . S
C110 H114 0.931 . S
C111 N108 1.313 . S
C111 N112 1.344 . S
C111 H115 0.930 . S
N112 C109 1.377 . S
N112 C111 1.344 . S
O113 Co105 2.055 . S
O113 C117 1.253 . S
H114 C110 0.931 . S
H115 C111 0.930 . S
O116 Co105 2.039 . S
O116 C106 1.265 . S
C117 O113 1.253 . S
C117 O118 1.227 . S
O118 C117 1.227 . S
N119 Co105 2.140 . S
N119 C122 1.346 . S
N119 C123 1.345 . S
C120 C121 1.387 . S
C120 C124 1.391 . S
C121 C120 1.387 . S
C121 C122 1.369 . S
C121 H130 0.929 . S
C122 N119 1.346 . S
C122 C121 1.369 . S
C122 H125 0.928 . S
C123 N119 1.345 . S
C123 C124 1.371 . S
C123 H126 0.931 . S
C124 C120 1.391 . S
C124 C123 1.371 . S
C124 H131 0.930 . S
H125 C122 0.928 . S
H126 C123 0.931 . S
H127 C103 0.930 . S
H128 C100 0.930 . S
H129 C109 0.930 . S
H130 C121 0.929 . S
H131 C124 0.930 . S
C132 C133 1.351 . S
C132 N135 1.368 . S
C132 H137 0.931 . S
C133 C132 1.351 . S
C133 N134 1.373 . S
C133 H161 0.930 . S
N134 C133 1.373 . S
N134 C136 1.340 . S
N135 C132 1.368 . S
N135 C136 1.321 . S
N135 Co138 2.135 . S
C136 N134 1.340 . S
C136 N135 1.321 . S
C136 H160 0.930 . S
H137 C132 0.931 . S
Co138 N135 2.135 . S
Co138 N141 2.121 . S
Co138 O146 2.055 . S
Co138 O149 2.039 . S
Co138 N152 2.140 . S
C139 O140 1.227 . S
C139 O149 1.265 . S
O140 C139 1.227 . S
N141 Co138 2.121 . S
N141 C143 1.375 . S
N141 C144 1.313 . S
C142 C143 1.338 . S
C142 N145 1.377 . S
C142 H162 0.930 . S
C143 N141 1.375 . S
C143 C142 1.338 . S
C143 H147 0.931 . S
C144 N141 1.313 . S
C144 N145 1.344 . S
C144 H148 0.930 . S
N145 C142 1.377 . S
N145 C144 1.344 . S
O146 Co138 2.055 . S
O146 C150 1.253 . S
H147 C143 0.931 . S
H148 C144 0.930 . S
O149 Co138 2.039 . S
O149 C139 1.265 . S
C150 O146 1.253 . S
C150 O151 1.227 . S
O151 C150 1.227 . S
N152 Co138 2.140 . S
N152 C155 1.346 . S
N152 C156 1.345 . S
C153 C154 1.387 . S
C153 C157 1.391 . S
C154 C153 1.387 . S
C154 C155 1.369 . S
C154 H163 0.929 . S
C155 N152 1.346 . S
C155 C154 1.369 . S
C155 H158 0.928 . S
C156 N152 1.345 . S
C156 C157 1.371 . S
C156 H159 0.931 . S
C157 C153 1.391 . S
C157 C156 1.371 . S
C157 H164 0.930 . S
H158 C155 0.928 . S
H159 C156 0.931 . S
H160 C136 0.930 . S
H161 C133 0.930 . S
H162 C142 0.930 . S
H163 C154 0.929 . S
H164 C157 0.930 . S
C165 C166 1.351 1_556 S
C165 N168 1.368 . S
C165 H170 0.931 . S
C166 C165 1.351 1_554 S
C166 N167 1.373 . S
C166 H194 0.930 . S
N167 C166 1.373 . S
N167 C169 1.340 1_554 S
N168 C165 1.368 . S
N168 C169 1.321 . S
N168 Co171 2.135 . S
C169 N167 1.340 1_556 S
C169 N168 1.321 . S
C169 H193 0.930 . S
H170 C165 0.931 . S
Co171 N168 2.135 . S
Co171 N174 2.121 . S
Co171 O179 2.055 . S
Co171 O182 2.039 . S
Co171 N185 2.140 . S
C172 O173 1.227 . S
C172 O182 1.265 . S
O173 C172 1.227 . S
N174 Co171 2.121 . S
N174 C176 1.375 . S
N174 C177 1.313 . S
C175 C176 1.338 . S
C175 N178 1.377 . S
C175 H195 0.930 . S
C176 N174 1.375 . S
C176 C175 1.338 . S
C176 H180 0.931 . S
C177 N174 1.313 . S
C177 N178 1.344 . S
C177 H181 0.930 . S
N178 C175 1.377 . S
N178 C177 1.344 . S
O179 Co171 2.055 . S
O179 C183 1.253 . S
H180 C176 0.931 . S
H181 C177 0.930 . S
O182 Co171 2.039 . S
O182 C172 1.265 . S
C183 O179 1.253 . S
C183 O184 1.227 . S
O184 C183 1.227 . S
N185 Co171 2.140 . S
N185 C188 1.346 . S
N185 C189 1.345 . S
C186 C187 1.387 . S
C186 C190 1.391 . S
C187 C186 1.387 . S
C187 C188 1.369 . S
C187 H196 0.929 . S
C188 N185 1.346 . S
C188 C187 1.369 . S
C188 H191 0.928 . S
C189 N185 1.345 . S
C189 C190 1.371 . S
C189 H192 0.931 . S
C190 C186 1.391 . S
C190 C189 1.371 . S
C190 H197 0.930 . S
H191 C188 0.928 . S
H192 C189 0.931 . S
H193 C169 0.930 . S
H194 C166 0.930 . S
H195 C175 0.930 . S
H196 C187 0.929 . S
H197 C190 0.930 . S
C198 C199 1.351 1_554 S
C198 N201 1.368 . S
C198 H203 0.931 . S
C199 C198 1.351 1_556 S
C199 N200 1.373 . S
C199 H227 0.930 . S
N200 C199 1.373 . S
N200 C202 1.340 1_556 S
N201 C198 1.368 . S
N201 C202 1.321 . S
N201 Co204 2.135 . S
C202 N200 1.340 1_554 S
C202 N201 1.321 . S
C202 H226 0.930 . S
H203 C198 0.931 . S
Co204 N201 2.135 . S
Co204 N207 2.121 . S
Co204 O212 2.055 . S
Co204 O215 2.039 . S
Co204 N218 2.140 . S
C205 O206 1.227 . S
C205 O215 1.265 . S
O206 C205 1.227 . S
N207 Co204 2.121 . S
N207 C209 1.375 . S
N207 C210 1.313 . S
C208 C209 1.338 . S
C208 N211 1.377 . S
C208 H228 0.930 . S
C209 N207 1.375 . S
C209 C208 1.338 . S
C209 H213 0.931 . S
C210 N207 1.313 . S
C210 N211 1.344 . S
C210 H214 0.930 . S
N211 C208 1.377 . S
N211 C210 1.344 . S
O212 Co204 2.055 . S
O212 C216 1.253 . S
H213 C209 0.931 . S
H214 C210 0.930 . S
O215 Co204 2.039 . S
O215 C205 1.265 . S
C216 O212 1.253 . S
C216 O217 1.227 . S
O217 C216 1.227 . S
N218 Co204 2.140 . S
N218 C221 1.346 . S
N218 C222 1.345 . S
C219 C220 1.387 . S
C219 C223 1.391 . S
C220 C219 1.387 . S
C220 C221 1.369 . S
C220 H229 0.929 . S
C221 N218 1.346 . S
C221 C220 1.369 . S
C221 H224 0.928 . S
C222 N218 1.345 . S
C222 C223 1.371 . S
C222 H225 0.931 . S
C223 C219 1.391 . S
C223 C222 1.371 . S
C223 H230 0.930 . S
H224 C221 0.928 . S
H225 C222 0.931 . S
H226 C202 0.930 . S
H227 C199 0.930 . S
H228 C208 0.930 . S
H229 C220 0.929 . S
H230 C223 0.930 . S
C231 C232 1.351 . S
C231 N234 1.368 . S
C231 H236 0.931 . S
C232 C231 1.351 . S
C232 N233 1.373 . S
C232 H260 0.930 . S
N233 C232 1.373 . S
N233 C235 1.340 . S
N234 C231 1.368 . S
N234 C235 1.321 . S
N234 Co237 2.135 . S
C235 N233 1.340 . S
C235 N234 1.321 . S
C235 H259 0.930 . S
H236 C231 0.931 . S
Co237 N234 2.135 . S
Co237 N240 2.121 . S
Co237 O245 2.055 . S
Co237 O248 2.039 . S
Co237 N251 2.140 . S
C238 O239 1.227 . S
C238 O248 1.265 . S
O239 C238 1.227 . S
N240 Co237 2.121 . S
N240 C242 1.375 . S
N240 C243 1.313 . S
C241 C242 1.338 . S
C241 N244 1.377 . S
C241 H261 0.930 . S
C242 N240 1.375 . S
C242 C241 1.338 . S
C242 H246 0.931 . S
C243 N240 1.313 . S
C243 N244 1.344 . S
C243 H247 0.930 . S
N244 C241 1.377 . S
N244 C243 1.344 . S
O245 Co237 2.055 . S
O245 C249 1.253 . S
H246 C242 0.931 . S
H247 C243 0.930 . S
O248 Co237 2.039 . S
O248 C238 1.265 . S
C249 O245 1.253 . S
C249 O250 1.227 . S
O250 C249 1.227 . S
N251 Co237 2.140 . S
N251 C254 1.346 . S
N251 C255 1.345 . S
C252 C253 1.387 . S
C252 C256 1.391 . S
C253 C252 1.387 . S
C253 C254 1.369 . S
C253 H262 0.929 . S
C254 N251 1.346 . S
C254 C253 1.369 . S
C254 H257 0.928 . S
C255 N251 1.345 . S
C255 C256 1.371 . S
C255 H258 0.931 . S
C256 C252 1.391 . S
C256 C255 1.371 . S
C256 H263 0.930 . S
H257 C254 0.928 . S
H258 C255 0.931 . S
H259 C235 0.930 . S
H260 C232 0.930 . S
H261 C241 0.930 . S
H262 C253 0.929 . S
H263 C256 0.930 . S
C264 C265 1.351 1_554 S
C264 N267 1.368 . S
C264 H269 0.931 . S
C265 C264 1.351 1_556 S
C265 N266 1.373 . S
C265 H293 0.930 . S
N266 C265 1.373 . S
N266 C268 1.340 1_556 S
N267 C264 1.368 . S
N267 C268 1.321 . S
N267 Co270 2.135 . S
C268 N266 1.340 1_554 S
C268 N267 1.321 . S
C268 H292 0.930 . S
H269 C264 0.931 . S
Co270 N267 2.135 . S
Co270 N273 2.121 . S
Co270 O278 2.055 . S
Co270 O281 2.039 . S
Co270 N284 2.140 . S
C271 O272 1.227 . S
C271 O281 1.265 . S
O272 C271 1.227 . S
N273 Co270 2.121 . S
N273 C275 1.375 . S
N273 C276 1.313 . S
C274 C275 1.338 . S
C274 N277 1.377 . S
C274 H294 0.930 . S
C275 N273 1.375 . S
C275 C274 1.338 . S
C275 H279 0.931 . S
C276 N273 1.313 . S
C276 N277 1.344 . S
C276 H280 0.930 . S
N277 C274 1.377 . S
N277 C276 1.344 . S
O278 Co270 2.055 . S
O278 C282 1.253 . S
H279 C275 0.931 . S
H280 C276 0.930 . S
O281 Co270 2.039 . S
O281 C271 1.265 . S
C282 O278 1.253 . S
C282 O283 1.227 . S
O283 C282 1.227 . S
N284 Co270 2.140 . S
N284 C287 1.346 . S
N284 C288 1.345 . S
C285 C286 1.387 . S
C285 C289 1.391 . S
C286 C285 1.387 . S
C286 C287 1.369 . S
C286 H295 0.929 . S
C287 N284 1.346 . S
C287 C286 1.369 . S
C287 H290 0.928 . S
C288 N284 1.345 . S
C288 C289 1.371 . S
C288 H291 0.931 . S
C289 C285 1.391 . S
C289 C288 1.371 . S
C289 H296 0.930 . S
H290 C287 0.928 . S
H291 C288 0.931 . S
H292 C268 0.930 . S
H293 C265 0.930 . S
H294 C274 0.930 . S
H295 C286 0.929 . S
H296 C289 0.930 . S
C297 C298 1.351 . S
C297 N300 1.368 . S
C297 H302 0.931 . S
C298 C297 1.351 . S
C298 N299 1.373 . S
C298 H326 0.930 . S
N299 C298 1.373 . S
N299 C301 1.340 . S
N300 C297 1.368 . S
N300 C301 1.321 . S
N300 Co303 2.135 . S
C301 N299 1.340 . S
C301 N300 1.321 . S
C301 H325 0.930 . S
H302 C297 0.931 . S
Co303 N300 2.135 . S
Co303 N306 2.121 . S
Co303 O311 2.055 . S
Co303 O314 2.039 . S
Co303 N317 2.140 . S
C304 O305 1.227 . S
C304 O314 1.265 . S
O305 C304 1.227 . S
N306 Co303 2.121 . S
N306 C308 1.375 . S
N306 C309 1.313 . S
C307 C308 1.338 . S
C307 N310 1.377 . S
C307 H327 0.930 . S
C308 N306 1.375 . S
C308 C307 1.338 . S
C308 H312 0.931 . S
C309 N306 1.313 . S
C309 N310 1.344 . S
C309 H313 0.930 . S
N310 C307 1.377 . S
N310 C309 1.344 . S
O311 Co303 2.055 . S
O311 C315 1.253 . S
H312 C308 0.931 . S
H313 C309 0.930 . S
O314 Co303 2.039 . S
O314 C304 1.265 . S
C315 O311 1.253 . S
C315 O316 1.227 . S
O316 C315 1.227 . S
N317 Co303 2.140 . S
N317 C320 1.346 . S
N317 C321 1.345 . S
C318 C319 1.387 . S
C318 C322 1.391 . S
C319 C318 1.387 . S
C319 C320 1.369 . S
C319 H328 0.929 . S
C320 N317 1.346 . S
C320 C319 1.369 . S
C320 H323 0.928 . S
C321 N317 1.345 . S
C321 C322 1.371 . S
C321 H324 0.931 . S
C322 C318 1.391 . S
C322 C321 1.371 . S
C322 H329 0.930 . S
H323 C320 0.928 . S
H324 C321 0.931 . S
H325 C301 0.930 . S
H326 C298 0.930 . S
H327 C307 0.930 . S
H328 C319 0.929 . S
H329 C322 0.930 . S
C330 C331 1.351 1_554 S
C330 N333 1.368 . S
C330 H335 0.931 . S
C331 C330 1.351 1_556 S
C331 N332 1.373 . S
C331 H359 0.930 . S
N332 C331 1.373 . S
N332 C334 1.340 1_556 S
N333 C330 1.368 . S
N333 C334 1.321 . S
N333 Co336 2.135 . S
C334 N332 1.340 1_554 S
C334 N333 1.321 . S
C334 H358 0.930 . S
H335 C330 0.931 . S
Co336 N333 2.135 . S
Co336 N339 2.121 . S
Co336 O344 2.055 . S
Co336 O347 2.039 . S
Co336 N350 2.140 . S
C337 O338 1.227 . S
C337 O347 1.265 . S
O338 C337 1.227 . S
N339 Co336 2.121 . S
N339 C341 1.375 . S
N339 C342 1.313 . S
C340 C341 1.338 . S
C340 N343 1.377 . S
C340 H360 0.930 . S
C341 N339 1.375 . S
C341 C340 1.338 . S
C341 H345 0.931 . S
C342 N339 1.313 . S
C342 N343 1.344 . S
C342 H346 0.930 . S
N343 C340 1.377 . S
N343 C342 1.344 . S
O344 Co336 2.055 . S
O344 C348 1.253 . S
H345 C341 0.931 . S
H346 C342 0.930 . S
O347 Co336 2.039 . S
O347 C337 1.265 . S
C348 O344 1.253 . S
C348 O349 1.227 . S
O349 C348 1.227 . S
N350 Co336 2.140 . S
N350 C353 1.346 . S
N350 C354 1.345 . S
C351 C352 1.387 . S
C351 C355 1.391 . S
C352 C351 1.387 . S
C352 C353 1.369 . S
C352 H361 0.929 . S
C353 N350 1.346 . S
C353 C352 1.369 . S
C353 H356 0.928 . S
C354 N350 1.345 . S
C354 C355 1.371 . S
C354 H357 0.931 . S
C355 C351 1.391 . S
C355 C354 1.371 . S
C355 H362 0.930 . S
H356 C353 0.928 . S
H357 C354 0.931 . S
H358 C334 0.930 . S
H359 C331 0.930 . S
H360 C340 0.930 . S
H361 C352 0.929 . S
H362 C355 0.930 . S
C363 C364 1.351 . S
C363 N366 1.368 . S
C363 H368 0.931 . S
C364 C363 1.351 . S
C364 N365 1.373 . S
C364 H392 0.930 . S
N365 C364 1.373 . S
N365 C367 1.340 . S
N366 C363 1.368 . S
N366 C367 1.321 . S
N366 Co369 2.135 . S
C367 N365 1.340 . S
C367 N366 1.321 . S
C367 H391 0.930 . S
H368 C363 0.931 . S
Co369 N366 2.135 . S
Co369 N372 2.121 . S
Co369 O377 2.055 . S
Co369 O380 2.039 . S
Co369 N383 2.140 . S
C370 O371 1.227 . S
C370 O380 1.265 . S
O371 C370 1.227 . S
N372 Co369 2.121 . S
N372 C374 1.375 . S
N372 C375 1.313 . S
C373 C374 1.338 . S
C373 N376 1.377 . S
C373 H393 0.930 . S
C374 N372 1.375 . S
C374 C373 1.338 . S
C374 H378 0.931 . S
C375 N372 1.313 . S
C375 N376 1.344 . S
C375 H379 0.930 . S
N376 C373 1.377 . S
N376 C375 1.344 . S
O377 Co369 2.055 . S
O377 C381 1.253 . S
H378 C374 0.931 . S
H379 C375 0.930 . S
O380 Co369 2.039 . S
O380 C370 1.265 . S
C381 O377 1.253 . S
C381 O382 1.227 . S
O382 C381 1.227 . S
N383 Co369 2.140 . S
N383 C386 1.346 . S
N383 C387 1.345 . S
C384 C385 1.387 . S
C384 C388 1.391 . S
C385 C384 1.387 . S
C385 C386 1.369 . S
C385 H394 0.929 . S
C386 N383 1.346 . S
C386 C385 1.369 . S
C386 H389 0.928 . S
C387 N383 1.345 . S
C387 C388 1.371 . S
C387 H390 0.931 . S
C388 C384 1.391 . S
C388 C387 1.371 . S
C388 H395 0.930 . S
H389 C386 0.928 . S
H390 C387 0.931 . S
H391 C367 0.930 . S
H392 C364 0.930 . S
H393 C373 0.930 . S
H394 C385 0.929 . S
H395 C388 0.930 . S
H396 C404 0.929 . S
H397 C406 0.930 . S
H398 C408 0.930 . S
H399 C411 0.929 . S
H400 C414 0.930 . S
H401 C416 0.960 1_655 S
H402 C416 0.960 . S
H403 C416 0.960 . S
C404 H396 0.929 . S
C404 C405 1.377 . S
C404 C406 1.384 . S
C405 C404 1.377 . S
C405 C411 1.390 . S
C406 H397 0.930 . S
C406 C404 1.384 . S
C406 C407 1.372 . S
C407 C406 1.372 . S
C407 C408 1.400 . S
C407 C412 1.490 . S
C408 H398 0.930 . S
C408 C407 1.400 . S
C408 C411 1.386 . S
H409 C425 0.930 . S
H410 C426 0.931 . S
C411 H399 0.929 . S
C411 C405 1.390 . S
C411 C408 1.386 . S
C412 C407 1.490 . S
C412 C414 1.395 . S
C412 C415 1.403 . S
H413 C419 0.930 . S
C414 H400 0.930 . S
C414 C412 1.395 . S
C414 C417 1.403 1_455 S
C415 C412 1.403 . S
C415 C416 1.524 . S
C415 C419 1.400 1_455 S
C416 H401 0.960 1_455 S
C416 H402 0.960 . S
C416 H403 0.960 . S
C416 C415 1.524 . S
C417 C414 1.403 1_655 S
C417 C418 1.392 . S
C417 C421 1.495 . S
C418 C417 1.392 . S
C418 C419 1.385 . S
C418 C420 1.478 . S
C419 H413 0.930 . S
C419 C415 1.400 1_655 S
C419 C418 1.385 . S
C420 C418 1.478 . S
C420 C422 1.381 . S
C420 C426 1.383 . S
C421 C417 1.495 . S
C421 H427 0.959 1_655 S
C421 H428 0.961 . S
C421 H429 0.960 . S
C422 C420 1.381 . S
C422 C423 1.394 . S
C422 H430 0.930 . S
C423 C422 1.394 . S
C423 C424 1.383 . S
C423 H431 0.929 . S
C424 C423 1.383 . S
C424 C425 1.377 . S
C425 H409 0.930 . S
C425 C424 1.377 . S
C425 C426 1.379 . S
C426 H410 0.931 . S
C426 C420 1.383 . S
C426 C425 1.379 . S
H427 C421 0.959 1_455 S
H428 C421 0.961 . S
H429 C421 0.960 . S
H430 C422 0.930 . S
H431 C423 0.929 . S
H432 C440 0.929 . S
H433 C442 0.930 . S
H434 C444 0.930 . S
H435 C447 0.929 . S
H436 C450 0.930 . S
H437 C452 0.960 . S
H438 C452 0.960 . S
H439 C452 0.960 . S
C440 H432 0.929 . S
C440 C441 1.377 . S
C440 C442 1.384 . S
C441 C440 1.377 . S
C441 C447 1.390 . S
C442 H433 0.930 . S
C442 C440 1.384 . S
C442 C443 1.372 . S
C443 C442 1.372 . S
C443 C444 1.400 . S
C443 C448 1.490 . S
C444 H434 0.930 . S
C444 C443 1.400 . S
C444 C447 1.386 . S
H445 C461 0.930 . S
H446 C462 0.931 . S
C447 H435 0.929 . S
C447 C441 1.390 . S
C447 C444 1.386 . S
C448 C443 1.490 . S
C448 C450 1.395 . S
C448 C451 1.403 1_556 S
H449 C455 0.930 . S
C450 H436 0.930 . S
C450 C448 1.395 . S
C450 C453 1.403 1_545 S
C451 C448 1.403 1_554 S
C451 C452 1.524 . S
C451 C455 1.400 1_545 S
C452 H437 0.960 . S
C452 H438 0.960 . S
C452 H439 0.960 . S
C452 C451 1.524 . S
C453 C450 1.403 1_565 S
C453 C454 1.392 1_556 S
C453 C457 1.495 . S
C454 C453 1.392 1_554 S
C454 C455 1.385 . S
C454 C456 1.478 . S
C455 H449 0.930 . S
C455 C451 1.400 1_565 S
C455 C454 1.385 . S
C456 C454 1.478 . S
C456 C458 1.381 . S
C456 C462 1.383 . S
C457 C453 1.495 . S
C457 H463 0.959 . S
C457 H464 0.961 . S
C457 H465 0.960 . S
C458 C456 1.381 . S
C458 C459 1.394 . S
C458 H466 0.930 1_554 S
C459 C458 1.394 . S
C459 C460 1.383 . S
C459 H467 0.929 . S
C460 C459 1.383 . S
C460 C461 1.377 . S
C461 H445 0.930 . S
C461 C460 1.377 . S
C461 C462 1.379 . S
C462 H446 0.931 . S
C462 C456 1.383 . S
C462 C461 1.379 . S
H463 C457 0.959 . S
H464 C457 0.961 . S
H465 C457 0.960 . S
H466 C458 0.930 1_556 S
H467 C459 0.929 . S
H468 C476 0.929 . S
H469 C478 0.930 . S
H470 C480 0.930 . S
H471 C483 0.929 . S
H472 C486 0.930 . S
H473 C488 0.960 . S
H474 C488 0.960 . S
H475 C488 0.960 . S
C476 H468 0.929 . S
C476 C477 1.377 . S
C476 C478 1.384 . S
C477 C476 1.377 . S
C477 C483 1.390 . S
C478 H469 0.930 . S
C478 C476 1.384 . S
C478 C479 1.372 . S
C479 C478 1.372 . S
C479 C480 1.400 . S
C479 C484 1.490 . S
C480 H470 0.930 . S
C480 C479 1.400 . S
C480 C483 1.386 . S
H481 C497 0.930 . S
H482 C498 0.931 . S
C483 H471 0.929 . S
C483 C477 1.390 . S
C483 C480 1.386 . S
C484 C479 1.490 . S
C484 C486 1.395 . S
C484 C487 1.403 . S
H485 C491 0.930 . S
C486 H472 0.930 . S
C486 C484 1.395 . S
C486 C489 1.403 . S
C487 C484 1.403 . S
C487 C488 1.524 . S
C487 C491 1.400 . S
C488 H473 0.960 . S
C488 H474 0.960 . S
C488 H475 0.960 . S
C488 C487 1.524 . S
C489 C486 1.403 . S
C489 C490 1.392 . S
C489 C493 1.495 . S
C490 C489 1.392 . S
C490 C491 1.385 . S
C490 C492 1.478 . S
C491 H485 0.930 . S
C491 C487 1.400 . S
C491 C490 1.385 . S
C492 C490 1.478 . S
C492 C494 1.381 . S
C492 C498 1.383 . S
C493 C489 1.495 . S
C493 H499 0.959 . S
C493 H500 0.961 . S
C493 H501 0.960 . S
C494 C492 1.381 . S
C494 C495 1.394 . S
C494 H502 0.930 . S
C495 C494 1.394 . S
C495 C496 1.383 . S
C495 H503 0.929 . S
C496 C495 1.383 . S
C496 C497 1.377 . S
C497 H481 0.930 . S
C497 C496 1.377 . S
C497 C498 1.379 . S
C498 H482 0.931 . S
C498 C492 1.383 . S
C498 C497 1.379 . S
H499 C493 0.959 . S
H500 C493 0.961 . S
H501 C493 0.960 . S
H502 C494 0.930 . S
H503 C495 0.929 . S
H504 C512 0.929 . S
H505 C514 0.930 1_556 S
H506 C516 0.930 . S
H507 C519 0.929 . S
H508 C522 0.930 . S
H509 C524 0.960 1_655 S
H510 C524 0.960 . S
H511 C524 0.960 . S
C512 H504 0.929 . S
C512 C513 1.377 . S
C512 C514 1.384 . S
C513 C512 1.377 . S
C513 C519 1.390 . S
C514 H505 0.930 1_554 S
C514 C512 1.384 . S
C514 C515 1.372 . S
C515 C514 1.372 . S
C515 C516 1.400 . S
C515 C520 1.490 . S
C516 H506 0.930 . S
C516 C515 1.400 . S
C516 C519 1.386 . S
H517 C533 0.930 . S
H518 C534 0.931 1_554 S
C519 H507 0.929 . S
C519 C513 1.390 . S
C519 C516 1.386 . S
C520 C515 1.490 . S
C520 C522 1.395 1_554 S
C520 C523 1.403 . S
H521 C527 0.930 1_554 S
C522 H508 0.930 . S
C522 C520 1.395 1_556 S
C522 C525 1.403 1_455 S
C523 C520 1.403 . S
C523 C524 1.524 . S
C523 C527 1.400 1_454 S
C524 H509 0.960 1_455 S
C524 H510 0.960 . S
C524 H511 0.960 . S
C524 C523 1.524 . S
C525 C522 1.403 1_655 S
C525 C526 1.392 . S
C525 C529 1.495 . S
C526 C525 1.392 . S
C526 C527 1.385 . S
C526 C528 1.478 . S
C527 H521 0.930 1_556 S
C527 C523 1.400 1_656 S
C527 C526 1.385 . S
C528 C526 1.478 . S
C528 C530 1.381 . S
C528 C534 1.383 . S
C529 C525 1.495 . S
C529 H535 0.959 1_655 S
C529 H536 0.961 . S
C529 H537 0.960 . S
C530 C528 1.381 . S
C530 C531 1.394 . S
C530 H538 0.930 . S
C531 C530 1.394 . S
C531 C532 1.383 . S
C531 H539 0.929 . S
C532 C531 1.383 . S
C532 C533 1.377 . S
C533 H517 0.930 . S
C533 C532 1.377 . S
C533 C534 1.379 . S
C534 H518 0.931 1_556 S
C534 C528 1.383 . S
C534 C533 1.379 . S
H535 C529 0.959 1_455 S
H536 C529 0.961 . S
H537 C529 0.960 . S
H538 C530 0.930 . S
H539 C531 0.929 . S
H540 C548 0.929 . S
H541 C550 0.930 . S
H542 C552 0.930 . S
H543 C555 0.929 . S
H544 C558 0.930 . S
H545 C560 0.960 1_565 S
H546 C560 0.960 . S
H547 C560 0.960 . S
C548 H540 0.929 . S
C548 C549 1.377 . S
C548 C550 1.384 . S
C549 C548 1.377 . S
C549 C555 1.390 . S
C550 H541 0.930 . S
C550 C548 1.384 . S
C550 C551 1.372 . S
C551 C550 1.372 . S
C551 C552 1.400 . S
C551 C556 1.490 . S
C552 H542 0.930 . S
C552 C551 1.400 . S
C552 C555 1.386 . S
H553 C569 0.930 . S
H554 C570 0.931 . S
C555 H543 0.929 . S
C555 C549 1.390 . S
C555 C552 1.386 . S
C556 C551 1.490 . S
C556 C558 1.395 . S
C556 C559 1.403 . S
H557 C563 0.930 . S
C558 H544 0.930 . S
C558 C556 1.395 . S
C558 C561 1.373 1_545 S
C559 C556 1.403 . S
C559 C560 1.524 . S
C559 C563 1.400 1_545 S
C560 H545 0.960 1_545 S
C560 H546 0.960 . S
C560 H547 0.960 . S
C560 C559 1.524 . S
C561 C558 1.373 1_565 S
C561 C562 1.433 . S
C561 C565 1.503 . S
C562 C561 1.433 . S
C562 C563 1.385 . S
C562 C564 1.478 . S
C563 H557 0.930 . S
C563 C559 1.400 1_565 S
C563 C562 1.385 . S
C564 C562 1.478 . S
C564 C566 1.381 . S
C564 C570 1.383 . S
C565 C561 1.503 . S
C565 H571 0.889 1_565 S
C565 H572 0.997 . S
C565 H573 0.980 . S
C566 C564 1.381 . S
C566 C567 1.394 . S
C566 H574 0.930 . S
C567 C566 1.394 . S
C567 C568 1.383 . S
C567 H575 0.929 . S
C568 C567 1.383 . S
C568 C569 1.377 . S
C569 H553 0.930 . S
C569 C568 1.377 . S
C569 C570 1.379 . S
C570 H554 0.931 . S
C570 C564 1.383 . S
C570 C569 1.379 . S
H571 C565 0.889 1_545 S
H572 C565 0.997 . S
H573 C565 0.980 . S
H574 C566 0.930 . S
H575 C567 0.929 . S
H576 C584 0.929 . S
H577 C586 0.930 1_554 S
H578 C588 0.930 . S
H579 C591 0.929 . S
H580 C594 0.930 . S
H581 C596 0.960 . S
H582 C596 0.960 . S
H583 C596 0.960 . S
C584 H576 0.929 . S
C584 C585 1.377 . S
C584 C586 1.384 . S
C585 C584 1.377 . S
C585 C591 1.390 . S
C586 H577 0.930 1_556 S
C586 C584 1.384 . S
C586 C587 1.372 . S
C587 C586 1.372 . S
C587 C588 1.400 . S
C587 C592 1.490 . S
C588 H578 0.930 . S
C588 C587 1.400 . S
C588 C591 1.386 . S
H589 C605 0.930 . S
H590 C606 0.931 1_556 S
C591 H579 0.929 . S
C591 C585 1.390 . S
C591 C588 1.386 . S
C592 C587 1.490 . S
C592 C594 1.395 . S
C592 C595 1.403 . S
H593 C599 0.930 . S
C594 H580 0.930 . S
C594 C592 1.395 . S
C594 C597 1.403 1_556 S
C595 C592 1.403 . S
C595 C596 1.524 . S
C595 C599 1.400 1_556 S
C596 H581 0.960 . S
C596 H582 0.960 . S
C596 H583 0.960 . S
C596 C595 1.524 . S
C597 C594 1.403 1_554 S
C597 C598 1.392 . S
C597 C601 1.495 . S
C598 C597 1.392 . S
C598 C599 1.385 . S
C598 C600 1.478 . S
C599 H593 0.930 . S
C599 C595 1.400 1_554 S
C599 C598 1.385 . S
C600 C598 1.478 . S
C600 C602 1.381 . S
C600 C606 1.383 . S
C601 C597 1.495 . S
C601 H607 0.959 . S
C601 H608 0.961 . S
C601 H609 0.960 . S
C602 C600 1.381 . S
C602 C603 1.394 . S
C602 H610 0.930 . S
C603 C602 1.394 . S
C603 C604 1.383 . S
C603 H611 0.929 . S
C604 C603 1.383 . S
C604 C605 1.377 . S
C605 H589 0.930 . S
C605 C604 1.377 . S
C605 C606 1.379 . S
C606 H590 0.931 1_554 S
C606 C600 1.383 . S
C606 C605 1.379 . S
H607 C601 0.959 . S
H608 C601 0.961 . S
H609 C601 0.960 . S
H610 C602 0.930 . S
H611 C603 0.929 . S
H612 C620 0.929 . S
H613 C622 0.930 . S
H614 C624 0.930 . S
H615 C627 0.929 . S
H616 C630 0.930 . S
H617 C632 0.960 . S
H618 C632 0.960 . S
H619 C632 0.960 . S
C620 H612 0.929 . S
C620 C621 1.377 . S
C620 C622 1.384 . S
C621 C620 1.377 . S
C621 C627 1.390 . S
C622 H613 0.930 . S
C622 C620 1.384 . S
C622 C623 1.372 . S
C623 C622 1.372 . S
C623 C624 1.400 . S
C623 C628 1.490 . S
C624 H614 0.930 . S
C624 C623 1.400 . S
C624 C627 1.386 . S
H625 C641 0.930 . S
H626 C642 0.931 . S
C627 H615 0.929 . S
C627 C621 1.390 . S
C627 C624 1.386 . S
C628 C623 1.490 . S
C628 C630 1.395 . S
C628 C631 1.403 . S
H629 C635 0.930 . S
C630 H616 0.930 . S
C630 C628 1.395 . S
C630 C633 1.403 . S
C631 C628 1.403 . S
C631 C632 1.524 . S
C631 C635 1.400 . S
C632 H617 0.960 . S
C632 H618 0.960 . S
C632 H619 0.960 . S
C632 C631 1.524 . S
C633 C630 1.403 . S
C633 C634 1.392 . S
C633 C637 1.495 . S
C634 C633 1.392 . S
C634 C635 1.385 . S
C634 C636 1.478 . S
C635 H629 0.930 . S
C635 C631 1.400 . S
C635 C634 1.385 . S
C636 C634 1.478 . S
C636 C638 1.381 . S
C636 C642 1.383 . S
C637 C633 1.495 . S
C637 H643 0.959 . S
C637 H644 0.961 . S
C637 H645 0.960 . S
C638 C636 1.381 . S
C638 C639 1.394 . S
C638 H646 0.930 . S
C639 C638 1.394 . S
C639 C640 1.383 . S
C639 H647 0.929 . S
C640 C639 1.383 . S
C640 C641 1.377 . S
C641 H625 0.930 . S
C641 C640 1.377 . S
C641 C642 1.379 . S
C642 H626 0.931 . S
C642 C636 1.383 . S
C642 C641 1.379 . S
H643 C637 0.959 . S
H644 C637 0.961 . S
H645 C637 0.960 . S
H646 C638 0.930 . S
H647 C639 0.929 . S
H648 C656 0.929 . S
H649 C658 0.930 . S
H650 C660 0.930 . S
H651 C663 0.929 . S
H652 C666 0.930 . S
H653 C668 0.960 . S
H654 C668 0.960 . S
H655 C668 0.960 . S
C656 H648 0.929 . S
C656 C657 1.377 . S
C656 C658 1.384 . S
C657 C656 1.377 . S
C657 C663 1.390 . S
C658 H649 0.930 . S
C658 C656 1.384 . S
C658 C659 1.372 . S
C659 C658 1.372 . S
C659 C660 1.400 . S
C659 C664 1.490 . S
C660 H650 0.930 . S
C660 C659 1.400 . S
C660 C663 1.386 . S
H661 C677 0.930 . S
H662 C678 0.931 . S
C663 H651 0.929 . S
C663 C657 1.390 . S
C663 C660 1.386 . S
C664 C659 1.490 . S
C664 C666 1.395 . S
C664 C667 1.403 . S
H665 C671 0.930 . S
C666 H652 0.930 . S
C666 C664 1.395 . S
C666 C669 1.403 . S
C667 C664 1.403 . S
C667 C668 1.524 . S
C667 C671 1.400 . S
C668 H653 0.960 . S
C668 H654 0.960 . S
C668 H655 0.960 . S
C668 C667 1.524 . S
C669 C666 1.403 . S
C669 C670 1.392 . S
C669 C673 1.495 . S
C670 C669 1.392 . S
C670 C671 1.385 . S
C670 C672 1.478 . S
C671 H665 0.930 . S
C671 C667 1.400 . S
C671 C670 1.385 . S
C672 C670 1.478 . S
C672 C674 1.381 . S
C672 C678 1.383 . S
C673 C669 1.495 . S
C673 H679 0.959 . S
C673 H680 0.961 . S
C673 H681 0.960 . S
C674 C672 1.381 . S
C674 C675 1.394 . S
C674 H682 0.930 . S
C675 C674 1.394 . S
C675 C676 1.383 . S
C675 H683 0.929 . S
C676 C675 1.383 . S
C676 C677 1.377 . S
C677 H661 0.930 . S
C677 C676 1.377 . S
C677 C678 1.379 . S
C678 H662 0.931 . S
C678 C672 1.383 . S
C678 C677 1.379 . S
H679 C673 0.959 . S
H680 C673 0.961 . S
H681 C673 0.960 . S
H682 C674 0.930 . S
H683 C675 0.929 . S
H684 C692 0.929 . S
H685 C694 0.930 . S
H686 C696 0.930 . S
H687 C699 0.929 . S
H688 C702 0.930 . S
H689 C704 0.960 . S
H690 C704 0.960 . S
H691 C704 0.960 . S
C692 H684 0.929 . S
C692 C693 1.377 . S
C692 C694 1.384 . S
C693 C692 1.377 . S
C693 C699 1.390 . S
C694 H685 0.930 . S
C694 C692 1.384 . S
C694 C695 1.372 . S
C695 C694 1.372 . S
C695 C696 1.400 . S
C695 C700 1.490 . S
C696 H686 0.930 . S
C696 C695 1.400 . S
C696 C699 1.386 . S
H697 C713 0.930 . S
H698 C714 0.931 . S
C699 H687 0.929 . S
C699 C693 1.390 . S
C699 C696 1.386 . S
C700 C695 1.490 . S
C700 C702 1.395 . S
C700 C703 1.403 . S
H701 C707 0.930 . S
C702 H688 0.930 . S
C702 C700 1.395 . S
C702 C705 1.403 . S
C703 C700 1.403 . S
C703 C704 1.524 . S
C703 C707 1.400 . S
C704 H689 0.960 . S
C704 H690 0.960 . S
C704 H691 0.960 . S
C704 C703 1.524 . S
C705 C702 1.403 . S
C705 C706 1.392 . S
C705 C709 1.495 . S
C706 C705 1.392 . S
C706 C707 1.385 . S
C706 C708 1.478 . S
C707 H701 0.930 . S
C707 C703 1.400 . S
C707 C706 1.385 . S
C708 C706 1.478 . S
C708 C710 1.381 . S
C708 C714 1.383 . S
C709 C705 1.495 . S
C709 H715 0.959 . S
C709 H716 0.961 . S
C709 H717 0.960 . S
C710 C708 1.381 . S
C710 C711 1.394 . S
C710 H718 0.930 . S
C711 C710 1.394 . S
C711 C712 1.383 . S
C711 H719 0.929 . S
C712 C711 1.383 . S
C712 C713 1.377 . S
C713 H697 0.930 . S
C713 C712 1.377 . S
C713 C714 1.379 . S
C714 H698 0.931 . S
C714 C708 1.383 . S
C714 C713 1.379 . S
H715 C709 0.959 . S
H716 C709 0.961 . S
H717 C709 0.960 . S
H718 C710 0.930 . S
H719 C711 0.929 . S
H720 C728 0.929 . S
H721 C730 0.930 . S
H722 C732 0.930 . S
H723 C735 0.929 . S
H724 C738 0.930 . S
H725 C740 0.960 . S
H726 C740 0.960 . S
H727 C740 0.960 . S
C728 H720 0.929 . S
C728 C729 1.377 . S
C728 C730 1.384 . S
C729 C728 1.377 . S
C729 C735 1.390 . S
C730 H721 0.930 . S
C730 C728 1.384 . S
C730 C731 1.372 . S
C731 C730 1.372 . S
C731 C732 1.400 . S
C731 C736 1.490 . S
C732 H722 0.930 . S
C732 C731 1.400 . S
C732 C735 1.386 . S
H733 C749 0.930 . S
H734 C750 0.931 . S
C735 H723 0.929 . S
C735 C729 1.390 . S
C735 C732 1.386 . S
C736 C731 1.490 . S
C736 C738 1.395 . S
C736 C739 1.403 . S
H737 C743 0.930 . S
C738 H724 0.930 . S
C738 C736 1.395 . S
C738 C741 1.403 . S
C739 C736 1.403 . S
C739 C740 1.524 . S
C739 C743 1.400 . S
C740 H725 0.960 . S
C740 H726 0.960 . S
C740 H727 0.960 . S
C740 C739 1.524 . S
C741 C738 1.403 . S
C741 C742 1.392 . S
C741 C745 1.495 . S
C742 C741 1.392 . S
C742 C743 1.385 . S
C742 C744 1.478 . S
C743 H737 0.930 . S
C743 C739 1.400 . S
C743 C742 1.385 . S
C744 C742 1.478 . S
C744 C746 1.381 . S
C744 C750 1.383 . S
C745 C741 1.495 . S
C745 H751 0.959 . S
C745 H752 0.961 . S
C745 H753 0.960 . S
C746 C744 1.381 . S
C746 C747 1.394 . S
C746 H754 0.930 . S
C747 C746 1.394 . S
C747 C748 1.383 . S
C747 H755 0.929 . S
C748 C747 1.383 . S
C748 C749 1.377 . S
C749 H733 0.930 . S
C749 C748 1.377 . S
C749 C750 1.379 . S
C750 H734 0.931 . S
C750 C744 1.383 . S
C750 C749 1.379 . S
H751 C745 0.959 . S
H752 C745 0.961 . S
H753 C745 0.960 . S
H754 C746 0.930 . S
H755 C747 0.929 . S
H756 C764 0.929 . S
H757 C766 0.930 . S
H758 C768 0.930 . S
H759 C771 0.929 . S
H760 C774 0.930 . S
H761 C776 0.960 . S
H762 C776 0.960 . S
H763 C776 0.960 . S
C764 H756 0.929 . S
C764 C765 1.377 . S
C764 C766 1.384 . S
C765 C764 1.377 . S
C765 C771 1.390 . S
C766 H757 0.930 . S
C766 C764 1.384 . S
C766 C767 1.372 . S
C767 C766 1.372 . S
C767 C768 1.400 . S
C767 C772 1.490 . S
C768 H758 0.930 . S
C768 C767 1.400 . S
C768 C771 1.386 . S
H769 C785 0.930 . S
H770 C786 0.931 . S
C771 H759 0.929 . S
C771 C765 1.390 . S
C771 C768 1.386 . S
C772 C767 1.490 . S
C772 C774 1.395 . S
C772 C775 1.403 . S
H773 C779 0.930 . S
C774 H760 0.930 . S
C774 C772 1.395 . S
C774 C777 1.403 . S
C775 C772 1.403 . S
C775 C776 1.524 . S
C775 C779 1.400 . S
C776 H761 0.960 . S
C776 H762 0.960 . S
C776 H763 0.960 . S
C776 C775 1.524 . S
C777 C774 1.403 . S
C777 C778 1.392 . S
C777 C781 1.495 . S
C778 C777 1.392 . S
C778 C779 1.385 . S
C778 C780 1.478 . S
C779 H773 0.930 . S
C779 C775 1.400 . S
C779 C778 1.385 . S
C780 C778 1.478 . S
C780 C782 1.381 . S
C780 C786 1.383 . S
C781 C777 1.495 . S
C781 H787 0.959 . S
C781 H788 0.961 . S
C781 H789 0.960 . S
C782 C780 1.381 . S
C782 C783 1.394 . S
C782 H790 0.930 . S
C783 C782 1.394 . S
C783 C784 1.383 . S
C783 H791 0.929 . S
C784 C783 1.383 . S
C784 C785 1.377 . S
C785 H769 0.930 . S
C785 C784 1.377 . S
C785 C786 1.379 . S
C786 H770 0.931 . S
C786 C780 1.383 . S
C786 C785 1.379 . S
H787 C781 0.959 . S
H788 C781 0.961 . S
H789 C781 0.960 . S
H790 C782 0.930 . S
H791 C783 0.929 . S
H792 C800 0.929 . S
H793 C802 0.930 . S
H794 C804 0.930 . S
H795 C807 0.929 . S
H796 C810 0.930 . S
H797 C812 0.960 . S
H798 C812 0.960 . S
H799 C812 0.960 . S
C800 H792 0.929 . S
C800 C801 1.377 . S
C800 C802 1.384 . S
C801 C800 1.377 . S
C801 C807 1.390 . S
C802 H793 0.930 . S
C802 C800 1.384 . S
C802 C803 1.372 . S
C803 C802 1.372 . S
C803 C804 1.400 . S
C803 C808 1.490 . S
C804 H794 0.930 . S
C804 C803 1.400 . S
C804 C807 1.386 . S
H805 C821 0.930 . S
H806 C822 0.931 . S
C807 H795 0.929 . S
C807 C801 1.390 . S
C807 C804 1.386 . S
C808 C803 1.490 . S
C808 C810 1.395 . S
C808 C811 1.403 . S
H809 C815 0.930 . S
C810 H796 0.930 . S
C810 C808 1.395 . S
C810 C813 1.403 . S
C811 C808 1.403 . S
C811 C812 1.524 . S
C811 C815 1.400 . S
C812 H797 0.960 . S
C812 H798 0.960 . S
C812 H799 0.960 . S
C812 C811 1.524 . S
C813 C810 1.403 . S
C813 C814 1.392 . S
C813 C817 1.495 . S
C814 C813 1.392 . S
C814 C815 1.385 . S
C814 C816 1.478 . S
C815 H809 0.930 . S
C815 C811 1.400 . S
C815 C814 1.385 . S
C816 C814 1.478 . S
C816 C818 1.381 . S
C816 C822 1.383 . S
C817 C813 1.495 . S
C817 H823 0.959 . S
C817 H824 0.961 . S
C817 H825 0.960 . S
C818 C816 1.381 . S
C818 C819 1.394 . S
C818 H826 0.930 . S
C819 C818 1.394 . S
C819 C820 1.383 . S
C819 H827 0.929 . S
C820 C819 1.383 . S
C820 C821 1.377 . S
C821 H805 0.930 . S
C821 C820 1.377 . S
C821 C822 1.379 . S
C822 H806 0.931 . S
C822 C816 1.383 . S
C822 C821 1.379 . S
H823 C817 0.959 . S
H824 C817 0.961 . S
H825 C817 0.960 . S
H826 C818 0.930 . S
H827 C819 0.929 . S
H828 C836 0.929 . S
H829 C838 0.930 . S
H830 C840 0.930 . S
H831 C843 0.929 . S
H832 C846 0.930 . S
H833 C848 0.960 . S
H834 C848 0.960 . S
H835 C848 0.960 . S
C836 H828 0.929 . S
C836 C837 1.377 . S
C836 C838 1.384 . S
C837 C836 1.377 . S
C837 C843 1.390 . S
C838 H829 0.930 . S
C838 C836 1.384 . S
C838 C839 1.372 . S
C839 C838 1.372 . S
C839 C840 1.400 . S
C839 C844 1.490 . S
C840 H830 0.930 . S
C840 C839 1.400 . S
C840 C843 1.386 . S
H841 C857 0.930 . S
H842 C858 0.931 . S
C843 H831 0.929 . S
C843 C837 1.390 . S
C843 C840 1.386 . S
C844 C839 1.490 . S
C844 C846 1.395 . S
C844 C847 1.403 . S
H845 C851 0.930 . S
C846 H832 0.930 . S
C846 C844 1.395 . S
C846 C849 1.403 . S
C847 C844 1.403 . S
C847 C848 1.524 . S
C847 C851 1.400 . S
C848 H833 0.960 . S
C848 H834 0.960 . S
C848 H835 0.960 . S
C848 C847 1.524 . S
C849 C846 1.403 . S
C849 C850 1.392 . S
C849 C853 1.495 . S
C850 C849 1.392 . S
C850 C851 1.385 . S
C850 C852 1.478 . S
C851 H845 0.930 . S
C851 C847 1.400 . S
C851 C850 1.385 . S
C852 C850 1.478 . S
C852 C854 1.381 . S
C852 C858 1.383 . S
C853 C849 1.495 . S
C853 H859 0.959 . S
C853 H860 0.961 . S
C853 H861 0.960 . S
C854 C852 1.381 . S
C854 C855 1.394 1_556 S
C854 H862 0.930 . S
C855 C854 1.394 1_554 S
C855 C856 1.383 . S
C855 H863 0.929 . S
C856 C855 1.383 . S
C856 C857 1.377 . S
C857 H841 0.930 . S
C857 C856 1.377 . S
C857 C858 1.379 1_554 S
C858 H842 0.931 . S
C858 C852 1.383 . S
C858 C857 1.379 1_556 S
H859 C853 0.959 . S
H860 C853 0.961 . S
H861 C853 0.960 . S
H862 C854 0.930 . S
H863 C855 0.929 . S
H864 C872 0.929 . S
H865 C874 0.930 . S
H866 C876 0.930 . S
H867 C879 0.929 . S
H868 C882 0.930 . S
H869 C884 0.960 . S
H870 C884 0.960 . S
H871 C884 0.960 . S
C872 H864 0.929 . S
C872 C873 1.377 . S
C872 C874 1.384 . S
C873 C872 1.377 . S
C873 C879 1.390 . S
C874 H865 0.930 . S
C874 C872 1.384 . S
C874 C875 1.372 . S
C875 C874 1.372 . S
C875 C876 1.400 . S
C875 C880 1.490 . S
C876 H866 0.930 . S
C876 C875 1.400 . S
C876 C879 1.386 . S
H877 C893 0.930 . S
H878 C894 0.931 . S
C879 H867 0.929 . S
C879 C873 1.390 . S
C879 C876 1.386 . S
C880 C875 1.490 . S
C880 C882 1.395 . S
C880 C883 1.403 . S
H881 C887 0.930 . S
C882 H868 0.930 . S
C882 C880 1.395 . S
C882 C885 1.403 . S
C883 C880 1.403 . S
C883 C884 1.524 . S
C883 C887 1.400 . S
C884 H869 0.960 . S
C884 H870 0.960 . S
C884 H871 0.960 . S
C884 C883 1.524 . S
C885 C882 1.403 . S
C885 C886 1.392 . S
C885 C889 1.495 . S
C886 C885 1.392 . S
C886 C887 1.385 . S
C886 C888 1.478 . S
C887 H881 0.930 . S
C887 C883 1.400 . S
C887 C886 1.385 . S
C888 C886 1.478 . S
C888 C890 1.381 . S
C888 C894 1.383 . S
C889 C885 1.495 . S
C889 H895 0.959 . S
C889 H896 0.961 . S
C889 H897 0.960 . S
C890 C888 1.381 . S
C890 C891 1.394 . S
C890 H898 0.930 . S
C891 C890 1.394 . S
C891 C892 1.383 . S
C891 H899 0.929 . S
C892 C891 1.383 . S
C892 C893 1.377 . S
C893 H877 0.930 . S
C893 C892 1.377 . S
C893 C894 1.379 . S
C894 H878 0.931 . S
C894 C888 1.383 . S
C894 C893 1.379 . S
H895 C889 0.959 . S
H896 C889 0.961 . S
H897 C889 0.960 . S
H898 C890 0.930 . S
H899 C891 0.929 . S
H900 C908 0.929 . S
H901 C910 0.930 . S
H902 C912 0.930 . S
H903 C915 0.929 . S
H904 C918 0.930 . S
H905 C920 0.960 . S
H906 C920 0.960 . S
H907 C920 0.960 . S
C908 H900 0.929 . S
C908 C909 1.377 . S
C908 C910 1.384 . S
C909 C908 1.377 . S
C909 C915 1.390 . S
C910 H901 0.930 . S
C910 C908 1.384 . S
C910 C911 1.372 . S
C911 C910 1.372 . S
C911 C912 1.400 . S
C911 C916 1.490 . S
C912 H902 0.930 . S
C912 C911 1.400 . S
C912 C915 1.386 . S
H913 C929 0.930 . S
H914 C930 0.931 . S
C915 H903 0.929 . S
C915 C909 1.390 . S
C915 C912 1.386 . S
C916 C911 1.490 . S
C916 C918 1.395 . S
C916 C919 1.403 . S
H917 C923 0.930 . S
C918 H904 0.930 . S
C918 C916 1.395 . S
C918 C921 1.403 . S
C919 C916 1.403 . S
C919 C920 1.524 . S
C919 C923 1.400 . S
C920 H905 0.960 . S
C920 H906 0.960 . S
C920 H907 0.960 . S
C920 C919 1.524 . S
C921 C918 1.403 . S
C921 C922 1.392 . S
C921 C925 1.495 . S
C922 C921 1.392 . S
C922 C923 1.385 . S
C922 C924 1.478 . S
C923 H917 0.930 . S
C923 C919 1.400 . S
C923 C922 1.385 . S
C924 C922 1.478 . S
C924 C926 1.381 . S
C924 C930 1.383 . S
C925 C921 1.495 . S
C925 H931 0.959 . S
C925 H932 0.961 . S
C925 H933 0.960 . S
C926 C924 1.381 . S
C926 C927 1.394 1_556 S
C926 H934 0.930 . S
C927 C926 1.394 1_554 S
C927 C928 1.383 . S
C927 H935 0.929 . S
C928 C927 1.383 . S
C928 C929 1.377 . S
C929 H913 0.930 . S
C929 C928 1.377 . S
C929 C930 1.379 1_554 S
C930 H914 0.931 . S
C930 C924 1.383 . S
C930 C929 1.379 1_556 S
H931 C925 0.959 . S
H932 C925 0.961 . S
H933 C925 0.960 . S
H934 C926 0.930 . S
H935 C927 0.929 . S
H936 C944 0.929 . S
H937 C946 0.930 . S
H938 C948 0.930 . S
H939 C951 0.929 . S
H940 C954 0.930 . S
H941 C956 0.960 . S
H942 C956 0.960 . S
H943 C956 0.960 . S
C944 H936 0.929 . S
C944 C945 1.377 . S
C944 C946 1.384 . S
C945 C944 1.377 . S
C945 C951 1.390 . S
C946 H937 0.930 . S
C946 C944 1.384 . S
C946 C947 1.372 . S
C947 C946 1.372 . S
C947 C948 1.400 . S
C947 C952 1.490 . S
C948 H938 0.930 . S
C948 C947 1.400 . S
C948 C951 1.386 . S
H949 C965 0.930 . S
H950 C966 0.931 . S
C951 H939 0.929 . S
C951 C945 1.390 . S
C951 C948 1.386 . S
C952 C947 1.490 . S
C952 C954 1.395 . S
C952 C955 1.403 . S
H953 C959 0.930 . S
C954 H940 0.930 . S
C954 C952 1.395 . S
C954 C957 1.403 . S
C955 C952 1.403 . S
C955 C956 1.524 . S
C955 C959 1.400 . S
C956 H941 0.960 . S
C956 H942 0.960 . S
C956 H943 0.960 . S
C956 C955 1.524 . S
C957 C954 1.403 . S
C957 C958 1.392 . S
C957 C961 1.495 . S
C958 C957 1.392 . S
C958 C959 1.385 . S
C958 C960 1.478 . S
C959 H953 0.930 . S
C959 C955 1.400 . S
C959 C958 1.385 . S
C960 C958 1.478 . S
C960 C962 1.381 . S
C960 C966 1.383 . S
C961 C957 1.495 . S
C961 H967 0.959 . S
C961 H968 0.961 . S
C961 H969 0.960 . S
C962 C960 1.381 . S
C962 C963 1.394 . S
C962 H970 0.930 . S
C963 C962 1.394 . S
C963 C964 1.383 . S
C963 H971 0.929 . S
C964 C963 1.383 . S
C964 C965 1.377 . S
C965 H949 0.930 . S
C965 C964 1.377 . S
C965 C966 1.379 . S
C966 H950 0.931 . S
C966 C960 1.383 . S
C966 C965 1.379 . S
H967 C961 0.959 . S
H968 C961 0.961 . S
H969 C961 0.960 . S
H970 C962 0.930 . S
H971 C963 0.929 . S
H972 C980 0.929 . S
H973 C982 0.930 . S
H974 C984 0.930 . S
H975 C987 0.929 . S
H976 C990 0.930 . S
H977 C992 0.960 . S
H978 C992 0.960 . S
H979 C992 0.960 . S
C980 H972 0.929 . S
C980 C981 1.377 . S
C980 C982 1.384 . S
C981 C980 1.377 . S
C981 C987 1.390 . S
C982 H973 0.930 . S
C982 C980 1.384 . S
C982 C983 1.372 . S
C983 C982 1.372 . S
C983 C984 1.400 . S
C983 C988 1.490 . S
C984 H974 0.930 . S
C984 C983 1.400 . S
C984 C987 1.386 . S
H985 C1001 0.930 . S
H986 C1002 0.931 . S
C987 H975 0.929 . S
C987 C981 1.390 . S
C987 C984 1.386 . S
C988 C983 1.490 . S
C988 C990 1.395 . S
C988 C991 1.403 . S
H989 C995 0.930 . S
C990 H976 0.930 . S
C990 C988 1.395 . S
C990 C993 1.403 . S
C991 C988 1.403 . S
C991 C992 1.524 . S
C991 C995 1.400 . S
C992 H977 0.960 . S
C992 H978 0.960 . S
C992 H979 0.960 . S
C992 C991 1.524 . S
C993 C990 1.403 . S
C993 C994 1.392 . S
C993 C997 1.495 . S
C994 C993 1.392 . S
C994 C995 1.385 . S
C994 C996 1.478 . S
C995 H989 0.930 . S
C995 C991 1.400 . S
C995 C994 1.385 . S
C996 C994 1.478 . S
C996 C998 1.381 . S
C996 C1002 1.383 . S
C997 C993 1.495 . S
C997 H1003 0.959 . S
C997 H1004 0.961 . S
C997 H1005 0.960 . S
C998 C996 1.381 . S
C998 C999 1.394 1_556 S
C998 H1006 0.930 . S
C999 C998 1.394 1_554 S
C999 C1000 1.383 . S
C999 H1007 0.929 . S
C1000 C999 1.383 . S
C1000 C1001 1.377 . S
C1001 H985 0.930 . S
C1001 C1000 1.377 . S
C1001 C1002 1.379 1_554 S
C1002 H986 0.931 . S
C1002 C996 1.383 . S
C1002 C1001 1.379 1_556 S
H1003 C997 0.959 . S
H1004 C997 0.961 . S
H1005 C997 0.960 . S
H1006 C998 0.930 . S
H1007 C999 0.929 . S
H1008 C1016 0.929 . S
H1009 C1018 0.930 . S
H1010 C1020 0.930 . S
H1011 C1023 0.929 . S
H1012 C1026 0.930 . S
H1013 C1028 0.960 . S
H1014 C1028 0.960 . S
H1015 C1028 0.960 . S
C1016 H1008 0.929 . S
C1016 C1017 1.377 . S
C1016 C1018 1.384 . S
C1017 C1016 1.377 . S
C1017 C1023 1.390 . S
C1018 H1009 0.930 . S
C1018 C1016 1.384 . S
C1018 C1019 1.372 . S
C1019 C1018 1.372 . S
C1019 C1020 1.400 . S
C1019 C1024 1.490 . S
C1020 H1010 0.930 . S
C1020 C1019 1.400 . S
C1020 C1023 1.386 . S
H1021 C1037 0.930 . S
H1022 C1038 0.931 . S
C1023 H1011 0.929 . S
C1023 C1017 1.390 . S
C1023 C1020 1.386 . S
C1024 C1019 1.490 . S
C1024 C1026 1.395 . S
C1024 C1027 1.403 . S
H1025 C1031 0.930 . S
C1026 H1012 0.930 . S
C1026 C1024 1.395 . S
C1026 C1029 1.403 . S
C1027 C1024 1.403 . S
C1027 C1028 1.524 . S
C1027 C1031 1.400 . S
C1028 H1013 0.960 . S
C1028 H1014 0.960 . S
C1028 H1015 0.960 . S
C1028 C1027 1.524 . S
C1029 C1026 1.403 . S
C1029 C1030 1.392 . S
C1029 C1033 1.495 . S
C1030 C1029 1.392 . S
C1030 C1031 1.385 . S
C1030 C1032 1.478 . S
C1031 H1025 0.930 . S
C1031 C1027 1.400 . S
C1031 C1030 1.385 . S
C1032 C1030 1.478 . S
C1032 C1034 1.381 . S
C1032 C1038 1.383 . S
C1033 C1029 1.495 . S
C1033 H1039 0.959 . S
C1033 H1040 0.961 . S
C1033 H1041 0.960 . S
C1034 C1032 1.381 . S
C1034 C1035 1.394 . S
C1034 H1042 0.930 . S
C1035 C1034 1.394 . S
C1035 C1036 1.383 . S
C1035 H1043 0.929 . S
C1036 C1035 1.383 . S
C1036 C1037 1.377 . S
C1037 H1021 0.930 . S
C1037 C1036 1.377 . S
C1037 C1038 1.379 . S
C1038 H1022 0.931 . S
C1038 C1032 1.383 . S
C1038 C1037 1.379 . S
H1039 C1033 0.959 . S
H1040 C1033 0.961 . S
H1041 C1033 0.960 . S
H1042 C1034 0.930 . S
H1043 C1035 0.929 . S
H1044 C1052 0.929 . S
H1045 C1054 0.930 . S
H1046 C1056 0.930 . S
H1047 C1059 0.929 . S
H1048 C1062 0.930 . S
H1049 C1064 0.960 . S
H1050 C1064 0.960 . S
H1051 C1064 0.960 . S
C1052 H1044 0.929 . S
C1052 C1053 1.377 . S
C1052 C1054 1.384 . S
C1053 C1052 1.377 . S
C1053 C1059 1.390 . S
C1054 H1045 0.930 . S
C1054 C1052 1.384 . S
C1054 C1055 1.372 . S
C1055 C1054 1.372 . S
C1055 C1056 1.400 . S
C1055 C1060 1.490 . S
C1056 H1046 0.930 . S
C1056 C1055 1.400 . S
C1056 C1059 1.386 . S
H1057 C1073 0.930 . S
H1058 C1074 0.931 . S
C1059 H1047 0.929 . S
C1059 C1053 1.390 . S
C1059 C1056 1.386 . S
C1060 C1055 1.490 . S
C1060 C1062 1.395 . S
C1060 C1063 1.403 . S
H1061 C1067 0.930 . S
C1062 H1048 0.930 . S
C1062 C1060 1.395 . S
C1062 C1065 1.403 . S
C1063 C1060 1.403 . S
C1063 C1064 1.524 . S
C1063 C1067 1.400 . S
C1064 H1049 0.960 . S
C1064 H1050 0.960 . S
C1064 H1051 0.960 . S
C1064 C1063 1.524 . S
C1065 C1062 1.403 . S
C1065 C1066 1.392 . S
C1065 C1069 1.495 . S
C1066 C1065 1.392 . S
C1066 C1067 1.385 . S
C1066 C1068 1.478 . S
C1067 H1061 0.930 . S
C1067 C1063 1.400 . S
C1067 C1066 1.385 . S
C1068 C1066 1.478 . S
C1068 C1070 1.381 . S
C1068 C1074 1.383 . S
C1069 C1065 1.495 . S
C1069 H1075 0.959 . S
C1069 H1076 0.961 . S
C1069 H1077 0.960 . S
C1070 C1068 1.381 . S
C1070 C1071 1.394 . S
C1070 H1078 0.930 . S
C1071 C1070 1.394 . S
C1071 C1072 1.383 . S
C1071 H1079 0.929 . S
C1072 C1071 1.383 . S
C1072 C1073 1.377 . S
C1073 H1057 0.930 . S
C1073 C1072 1.377 . S
C1073 C1074 1.379 . S
C1074 H1058 0.931 . S
C1074 C1068 1.383 . S
C1074 C1073 1.379 . S
H1075 C1069 0.959 . S
H1076 C1069 0.961 . S
H1077 C1069 0.960 . S
H1078 C1070 0.930 . S
H1079 C1071 0.929 . S
H1080 C1088 0.929 . S
H1081 C1090 0.930 . S
H1082 C1092 0.930 . S
H1083 C1095 0.929 . S
H1084 C1098 0.930 . S
H1085 C1100 0.960 . S
H1086 C1100 0.960 . S
H1087 C1100 0.960 . S
C1088 H1080 0.929 . S
C1088 C1089 1.377 . S
C1088 C1090 1.384 . S
C1089 C1088 1.377 . S
C1089 C1095 1.390 . S
C1090 H1081 0.930 . S
C1090 C1088 1.384 . S
C1090 C1091 1.372 . S
C1091 C1090 1.372 . S
C1091 C1092 1.400 . S
C1091 C1096 1.490 . S
C1092 H1082 0.930 . S
C1092 C1091 1.400 . S
C1092 C1095 1.386 . S
H1093 C1109 0.930 . S
H1094 C1110 0.931 . S
C1095 H1083 0.929 . S
C1095 C1089 1.390 . S
C1095 C1092 1.386 . S
C1096 C1091 1.490 . S
C1096 C1098 1.395 . S
C1096 C1099 1.403 . S
H1097 C1103 0.930 . S
C1098 H1084 0.930 . S
C1098 C1096 1.395 . S
C1098 C1101 1.403 . S
C1099 C1096 1.403 . S
C1099 C1100 1.524 . S
C1099 C1103 1.400 . S
C1100 H1085 0.960 . S
C1100 H1086 0.960 . S
C1100 H1087 0.960 . S
C1100 C1099 1.524 . S
C1101 C1098 1.403 . S
C1101 C1102 1.392 . S
C1101 C1105 1.495 . S
C1102 C1101 1.392 . S
C1102 C1103 1.385 . S
C1102 C1104 1.478 . S
C1103 H1097 0.930 . S
C1103 C1099 1.400 . S
C1103 C1102 1.385 . S
C1104 C1102 1.478 . S
C1104 C1106 1.381 . S
C1104 C1110 1.383 . S
C1105 C1101 1.495 . S
C1105 H1111 0.959 . S
C1105 H1112 0.961 . S
C1105 H1113 0.960 . S
C1106 C1104 1.381 . S
C1106 C1107 1.394 1_554 S
C1106 H1114 0.930 . S
C1107 C1106 1.394 1_556 S
C1107 C1108 1.383 . S
C1107 H1115 0.929 . S
C1108 C1107 1.383 . S
C1108 C1109 1.377 . S
C1109 H1093 0.930 . S
C1109 C1108 1.377 . S
C1109 C1110 1.379 1_556 S
C1110 H1094 0.931 . S
C1110 C1104 1.383 . S
C1110 C1109 1.379 1_554 S
H1111 C1105 0.959 . S
H1112 C1105 0.961 . S
H1113 C1105 0.960 . S
H1114 C1106 0.930 . S
H1115 C1107 0.929 . S
H1116 C1124 0.929 . S
H1117 C1126 0.930 . S
H1118 C1128 0.930 . S
H1119 C1131 0.929 . S
H1120 C1134 0.930 . S
H1121 C1136 0.960 . S
H1122 C1136 0.960 . S
H1123 C1136 0.960 . S
C1124 H1116 0.929 . S
C1124 C1125 1.377 . S
C1124 C1126 1.384 . S
C1125 C1124 1.377 . S
C1125 C1131 1.390 . S
C1126 H1117 0.930 . S
C1126 C1124 1.384 . S
C1126 C1127 1.372 . S
C1127 C1126 1.372 . S
C1127 C1128 1.400 . S
C1127 C1132 1.490 . S
C1128 H1118 0.930 . S
C1128 C1127 1.400 . S
C1128 C1131 1.386 . S
H1129 C1145 0.930 . S
H1130 C1146 0.931 . S
C1131 H1119 0.929 . S
C1131 C1125 1.390 . S
C1131 C1128 1.386 . S
C1132 C1127 1.490 . S
C1132 C1134 1.395 . S
C1132 C1135 1.403 . S
H1133 C1139 0.930 . S
C1134 H1120 0.930 . S
C1134 C1132 1.395 . S
C1134 C1137 1.403 . S
C1135 C1132 1.403 . S
C1135 C1136 1.524 . S
C1135 C1139 1.400 . S
C1136 H1121 0.960 . S
C1136 H1122 0.960 . S
C1136 H1123 0.960 . S
C1136 C1135 1.524 . S
C1137 C1134 1.403 . S
C1137 C1138 1.392 . S
C1137 C1141 1.495 . S
C1138 C1137 1.392 . S
C1138 C1139 1.385 . S
C1138 C1140 1.478 . S
C1139 H1133 0.930 . S
C1139 C1135 1.400 . S
C1139 C1138 1.385 . S
C1140 C1138 1.478 . S
C1140 C1142 1.381 . S
C1140 C1146 1.383 . S
C1141 C1137 1.495 . S
C1141 H1147 0.959 . S
C1141 H1148 0.961 . S
C1141 H1149 0.960 . S
C1142 C1140 1.381 . S
C1142 C1143 1.394 . S
C1142 H1150 0.930 . S
C1143 C1142 1.394 . S
C1143 C1144 1.383 . S
C1143 H1151 0.929 . S
C1144 C1143 1.383 . S
C1144 C1145 1.377 . S
C1145 H1129 0.930 . S
C1145 C1144 1.377 . S
C1145 C1146 1.379 . S
C1146 H1130 0.931 . S
C1146 C1140 1.383 . S
C1146 C1145 1.379 . S
H1147 C1141 0.959 . S
H1148 C1141 0.961 . S
H1149 C1141 0.960 . S
H1150 C1142 0.930 . S
H1151 C1143 0.929 . S
H1152 C1160 0.929 . S
H1153 C1162 0.930 . S
H1154 C1164 0.930 . S
H1155 C1167 0.929 . S
H1156 C1170 0.930 . S
H1157 C1172 0.960 . S
H1158 C1172 0.960 . S
H1159 C1172 0.960 . S
C1160 H1152 0.929 . S
C1160 C1161 1.377 . S
C1160 C1162 1.384 1_556 S
C1161 C1160 1.377 . S
C1161 C1167 1.390 . S
C1162 H1153 0.930 . S
C1162 C1160 1.384 1_554 S
C1162 C1163 1.372 . S
C1163 C1162 1.372 . S
C1163 C1164 1.400 . S
C1163 C1168 1.490 . S
C1164 H1154 0.930 . S
C1164 C1163 1.400 . S
C1164 C1167 1.386 1_554 S
H1165 C1181 0.930 . S
H1166 C1182 0.931 . S
C1167 H1155 0.929 . S
C1167 C1161 1.390 . S
C1167 C1164 1.386 1_556 S
C1168 C1163 1.490 . S
C1168 C1170 1.395 . S
C1168 C1171 1.403 . S
H1169 C1175 0.930 . S
C1170 H1156 0.930 . S
C1170 C1168 1.395 . S
C1170 C1173 1.403 . S
C1171 C1168 1.403 . S
C1171 C1172 1.524 . S
C1171 C1175 1.400 . S
C1172 H1157 0.960 . S
C1172 H1158 0.960 . S
C1172 H1159 0.960 . S
C1172 C1171 1.524 . S
C1173 C1170 1.403 . S
C1173 C1174 1.392 . S
C1173 C1177 1.495 . S
C1174 C1173 1.392 . S
C1174 C1175 1.385 . S
C1174 C1176 1.478 . S
C1175 H1169 0.930 . S
C1175 C1171 1.400 . S
C1175 C1174 1.385 . S
C1176 C1174 1.478 . S
C1176 C1178 1.381 . S
C1176 C1182 1.383 . S
C1177 C1173 1.495 . S
C1177 H1183 0.959 . S
C1177 H1184 0.961 . S
C1177 H1185 0.960 . S
C1178 C1176 1.381 . S
C1178 C1179 1.394 . S
C1178 H1186 0.930 . S
C1179 C1178 1.394 . S
C1179 C1180 1.383 . S
C1179 H1187 0.929 . S
C1180 C1179 1.383 . S
C1180 C1181 1.377 . S
C1181 H1165 0.930 . S
C1181 C1180 1.377 . S
C1181 C1182 1.379 . S
C1182 H1166 0.931 . S
C1182 C1176 1.383 . S
C1182 C1181 1.379 . S
H1183 C1177 0.959 . S
H1184 C1177 0.961 . S
H1185 C1177 0.960 . S
H1186 C1178 0.930 . S
H1187 C1179 0.929 . S
H1188 C1196 0.929 . S
H1189 C1198 0.930 . S
H1190 C1200 0.930 . S
H1191 C1203 0.929 . S
H1192 C1206 0.930 . S
H1193 C1208 0.960 . S
H1194 C1208 0.960 . S
H1195 C1208 0.960 . S
C1196 H1188 0.929 . S
C1196 C1197 1.377 . S
C1196 C1198 1.384 . S
C1197 C1196 1.377 . S
C1197 C1203 1.390 . S
C1198 H1189 0.930 . S
C1198 C1196 1.384 . S
C1198 C1199 1.372 . S
C1199 C1198 1.372 . S
C1199 C1200 1.400 . S
C1199 C1204 1.490 . S
C1200 H1190 0.930 . S
C1200 C1199 1.400 . S
C1200 C1203 1.386 . S
H1201 C1217 0.930 . S
H1202 C1218 0.931 . S
C1203 H1191 0.929 . S
C1203 C1197 1.390 . S
C1203 C1200 1.386 . S
C1204 C1199 1.490 . S
C1204 C1206 1.395 . S
C1204 C1207 1.403 . S
H1205 C1211 0.930 . S
C1206 H1192 0.930 . S
C1206 C1204 1.395 . S
C1206 C1209 1.403 . S
C1207 C1204 1.403 . S
C1207 C1208 1.524 . S
C1207 C1211 1.400 . S
C1208 H1193 0.960 . S
C1208 H1194 0.960 . S
C1208 H1195 0.960 . S
C1208 C1207 1.524 . S
C1209 C1206 1.403 . S
C1209 C1210 1.392 . S
C1209 C1213 1.495 . S
C1210 C1209 1.392 . S
C1210 C1211 1.385 . S
C1210 C1212 1.478 . S
C1211 H1205 0.930 . S
C1211 C1207 1.400 . S
C1211 C1210 1.385 . S
C1212 C1210 1.478 . S
C1212 C1214 1.381 . S
C1212 C1218 1.383 . S
C1213 C1209 1.495 . S
C1213 H1219 0.959 . S
C1213 H1220 0.961 . S
C1213 H1221 0.960 . S
C1214 C1212 1.381 . S
C1214 C1215 1.394 . S
C1214 H1222 0.930 . S
C1215 C1214 1.394 . S
C1215 C1216 1.383 . S
C1215 H1223 0.929 . S
C1216 C1215 1.383 . S
C1216 C1217 1.377 . S
C1217 H1201 0.930 . S
C1217 C1216 1.377 . S
C1217 C1218 1.379 . S
C1218 H1202 0.931 . S
C1218 C1212 1.383 . S
C1218 C1217 1.379 . S
H1219 C1213 0.959 . S
H1220 C1213 0.961 . S
H1221 C1213 0.960 . S
H1222 C1214 0.930 . S
H1223 C1215 0.929 . S
H1224 C1232 0.929 . S
H1225 C1234 0.930 . S
H1226 C1236 0.930 . S
H1227 C1239 0.929 . S
H1228 C1242 0.930 . S
H1229 C1244 0.960 . S
H1230 C1244 0.960 . S
H1231 C1244 0.960 . S
C1232 H1224 0.929 . S
C1232 C1233 1.377 . S
C1232 C1234 1.384 . S
C1233 C1232 1.377 . S
C1233 C1239 1.390 . S
C1234 H1225 0.930 . S
C1234 C1232 1.384 . S
C1234 C1235 1.372 . S
C1235 C1234 1.372 . S
C1235 C1236 1.400 . S
C1235 C1240 1.490 . S
C1236 H1226 0.930 . S
C1236 C1235 1.400 . S
C1236 C1239 1.386 . S
H1237 C1253 0.930 . S
H1238 C1254 0.931 . S
C1239 H1227 0.929 . S
C1239 C1233 1.390 . S
C1239 C1236 1.386 . S
C1240 C1235 1.490 . S
C1240 C1242 1.395 . S
C1240 C1243 1.403 . S
H1241 C1247 0.930 . S
C1242 H1228 0.930 . S
C1242 C1240 1.395 . S
C1242 C1245 1.403 . S
C1243 C1240 1.403 . S
C1243 C1244 1.524 . S
C1243 C1247 1.400 . S
C1244 H1229 0.960 . S
C1244 H1230 0.960 . S
C1244 H1231 0.960 . S
C1244 C1243 1.524 . S
C1245 C1242 1.403 . S
C1245 C1246 1.392 . S
C1245 C1249 1.495 . S
C1246 C1245 1.392 . S
C1246 C1247 1.385 . S
C1246 C1248 1.478 . S
C1247 H1241 0.930 . S
C1247 C1243 1.400 . S
C1247 C1246 1.385 . S
C1248 C1246 1.478 . S
C1248 C1250 1.382 1_554 S
C1248 C1254 1.383 . S
C1249 C1245 1.495 . S
C1249 H1255 0.959 . S
C1249 H1256 0.961 . S
C1249 H1257 0.960 . S
C1250 C1248 1.382 1_556 S
C1250 C1251 1.394 . S
C1250 H1258 0.930 1_556 S
C1251 C1250 1.394 . S
C1251 C1252 1.383 . S
C1251 H1259 0.929 . S
C1252 C1251 1.383 . S
C1252 C1253 1.377 . S
C1253 H1237 0.930 . S
C1253 C1252 1.377 . S
C1253 C1254 1.379 1_556 S
C1254 H1238 0.931 . S
C1254 C1248 1.383 . S
C1254 C1253 1.379 1_554 S
H1255 C1249 0.959 . S
H1256 C1249 0.961 . S
H1257 C1249 0.960 . S
H1258 C1250 0.930 1_554 S
H1259 C1251 0.929 . S
H1260 C1268 0.929 . S
H1261 C1270 0.930 . S
H1262 C1272 0.930 . S
H1263 C1275 0.929 . S
H1264 C1278 0.930 . S
H1265 C1280 0.960 . S
H1266 C1280 0.960 . S
H1267 C1280 0.960 . S
C1268 H1260 0.929 . S
C1268 C1269 1.377 . S
C1268 C1270 1.384 . S
C1269 C1268 1.377 . S
C1269 C1275 1.390 . S
C1270 H1261 0.930 . S
C1270 C1268 1.384 . S
C1270 C1271 1.372 . S
C1271 C1270 1.372 . S
C1271 C1272 1.400 . S
C1271 C1276 1.490 . S
C1272 H1262 0.930 . S
C1272 C1271 1.400 . S
C1272 C1275 1.386 . S
H1273 C1289 0.930 . S
H1274 C1290 0.931 . S
C1275 H1263 0.929 . S
C1275 C1269 1.390 . S
C1275 C1272 1.386 . S
C1276 C1271 1.490 . S
C1276 C1278 1.395 . S
C1276 C1279 1.403 . S
H1277 C1283 0.930 . S
C1278 H1264 0.930 . S
C1278 C1276 1.395 . S
C1278 C1281 1.403 . S
C1279 C1276 1.403 . S
C1279 C1280 1.524 . S
C1279 C1283 1.400 . S
C1280 H1265 0.960 . S
C1280 H1266 0.960 . S
C1280 H1267 0.960 . S
C1280 C1279 1.524 . S
C1281 C1278 1.403 . S
C1281 C1282 1.392 . S
C1281 C1285 1.495 . S
C1282 C1281 1.392 . S
C1282 C1283 1.385 . S
C1282 C1284 1.478 . S
C1283 H1277 0.930 . S
C1283 C1279 1.400 . S
C1283 C1282 1.385 . S
C1284 C1282 1.478 . S
C1284 C1286 1.381 . S
C1284 C1290 1.383 . S
C1285 C1281 1.495 . S
C1285 H1291 0.959 . S
C1285 H1292 0.961 . S
C1285 H1293 0.960 . S
C1286 C1284 1.381 . S
C1286 C1287 1.394 . S
C1286 H1294 0.930 . S
C1287 C1286 1.394 . S
C1287 C1288 1.383 . S
C1287 H1295 0.929 . S
C1288 C1287 1.383 . S
C1288 C1289 1.377 . S
C1289 H1273 0.930 . S
C1289 C1288 1.377 . S
C1289 C1290 1.379 . S
C1290 H1274 0.931 . S
C1290 C1284 1.383 . S
C1290 C1289 1.379 . S
H1291 C1285 0.959 . S
H1292 C1285 0.961 . S
H1293 C1285 0.960 . S
H1294 C1286 0.930 . S
H1295 C1287 0.929 . S
H1296 C1304 0.929 . S
H1297 C1306 0.930 . S
H1298 C1308 0.930 . S
H1299 C1311 0.929 . S
H1300 C1314 0.930 . S
H1301 C1316 0.960 . S
H1302 C1316 0.960 . S
H1303 C1316 0.960 . S
C1304 H1296 0.929 . S
C1304 C1305 1.377 . S
C1304 C1306 1.384 . S
C1305 C1304 1.377 . S
C1305 C1311 1.390 . S
C1306 H1297 0.930 . S
C1306 C1304 1.384 . S
C1306 C1307 1.372 . S
C1307 C1306 1.372 . S
C1307 C1308 1.400 . S
C1307 C1312 1.490 . S
C1308 H1298 0.930 . S
C1308 C1307 1.400 . S
C1308 C1311 1.386 . S
H1309 C1325 0.930 . S
H1310 C1326 0.931 . S
C1311 H1299 0.929 . S
C1311 C1305 1.390 . S
C1311 C1308 1.386 . S
C1312 C1307 1.490 . S
C1312 C1314 1.395 . S
C1312 C1315 1.403 . S
H1313 C1319 0.930 . S
C1314 H1300 0.930 . S
C1314 C1312 1.395 . S
C1314 C1317 1.403 . S
C1315 C1312 1.403 . S
C1315 C1316 1.524 . S
C1315 C1319 1.400 . S
C1316 H1301 0.960 . S
C1316 H1302 0.960 . S
C1316 H1303 0.960 . S
C1316 C1315 1.524 . S
C1317 C1314 1.403 . S
C1317 C1318 1.392 . S
C1317 C1321 1.495 . S
C1318 C1317 1.392 . S
C1318 C1319 1.385 . S
C1318 C1320 1.478 . S
C1319 H1313 0.930 . S
C1319 C1315 1.400 . S
C1319 C1318 1.385 . S
C1320 C1318 1.478 . S
C1320 C1322 1.381 . S
C1320 C1326 1.383 . S
C1321 C1317 1.495 . S
C1321 H1327 0.959 . S
C1321 H1328 0.961 . S
C1321 H1329 0.960 . S
C1322 C1320 1.381 . S
C1322 C1323 1.394 . S
C1322 H1330 0.930 . S
C1323 C1322 1.394 . S
C1323 C1324 1.383 . S
C1323 H1331 0.929 . S
C1324 C1323 1.383 . S
C1324 C1325 1.377 . S
C1325 H1309 0.930 . S
C1325 C1324 1.377 . S
C1325 C1326 1.379 . S
C1326 H1310 0.931 . S
C1326 C1320 1.383 . S
C1326 C1325 1.379 . S
H1327 C1321 0.959 . S
H1328 C1321 0.961 . S
H1329 C1321 0.960 . S
H1330 C1322 0.930 . S
H1331 C1323 0.929 . S
H1332 C1340 0.929 . S
H1333 C1342 0.930 . S
H1334 C1344 0.930 . S
H1335 C1347 0.929 . S
H1336 C1350 0.930 . S
H1337 C1352 0.960 . S
H1338 C1352 0.960 . S
H1339 C1352 0.960 . S
C1340 H1332 0.929 . S
C1340 C1341 1.377 . S
C1340 C1342 1.384 . S
C1341 C1340 1.377 . S
C1341 C1347 1.390 . S
C1342 H1333 0.930 . S
C1342 C1340 1.384 . S
C1342 C1343 1.372 . S
C1343 C1342 1.372 . S
C1343 C1344 1.400 . S
C1343 C1348 1.490 . S
C1344 H1334 0.930 . S
C1344 C1343 1.400 . S
C1344 C1347 1.386 . S
H1345 C1361 0.930 . S
H1346 C1362 0.931 . S
C1347 H1335 0.929 . S
C1347 C1341 1.390 . S
C1347 C1344 1.386 . S
C1348 C1343 1.490 . S
C1348 C1350 1.395 . S
C1348 C1351 1.403 . S
H1349 C1355 0.930 . S
C1350 H1336 0.930 . S
C1350 C1348 1.395 . S
C1350 C1353 1.403 . S
C1351 C1348 1.403 . S
C1351 C1352 1.524 . S
C1351 C1355 1.400 . S
C1352 H1337 0.960 . S
C1352 H1338 0.960 . S
C1352 H1339 0.960 . S
C1352 C1351 1.524 . S
C1353 C1350 1.403 . S
C1353 C1354 1.392 . S
C1353 C1357 1.495 . S
C1354 C1353 1.392 . S
C1354 C1355 1.385 . S
C1354 C1356 1.478 . S
C1355 H1349 0.930 . S
C1355 C1351 1.400 . S
C1355 C1354 1.385 . S
C1356 C1354 1.478 . S
C1356 C1358 1.381 . S
C1356 C1362 1.383 . S
C1357 C1353 1.495 . S
C1357 H1363 0.959 . S
C1357 H1364 0.961 . S
C1357 H1365 0.960 . S
C1358 C1356 1.381 . S
C1358 C1359 1.394 . S
C1358 H1366 0.930 . S
C1359 C1358 1.394 . S
C1359 C1360 1.383 . S
C1359 H1367 0.929 . S
C1360 C1359 1.383 . S
C1360 C1361 1.377 . S
C1361 H1345 0.930 . S
C1361 C1360 1.377 . S
C1361 C1362 1.379 . S
C1362 H1346 0.931 . S
C1362 C1356 1.383 . S
C1362 C1361 1.379 . S
H1363 C1357 0.959 . S
H1364 C1357 0.961 . S
H1365 C1357 0.960 . S
H1366 C1358 0.930 . S
H1367 C1359 0.929 . S
H1368 C1376 0.929 . S
H1369 C1378 0.930 . S
H1370 C1380 0.930 . S
H1371 C1383 0.929 . S
H1372 C1386 0.930 . S
H1373 C1388 0.960 . S
H1374 C1388 0.960 . S
H1375 C1388 0.960 . S
C1376 H1368 0.929 . S
C1376 C1377 1.377 . S
C1376 C1378 1.384 . S
C1377 C1376 1.377 . S
C1377 C1383 1.390 . S
C1378 H1369 0.930 . S
C1378 C1376 1.384 . S
C1378 C1379 1.372 . S
C1379 C1378 1.372 . S
C1379 C1380 1.400 . S
C1379 C1384 1.490 . S
C1380 H1370 0.930 . S
C1380 C1379 1.400 . S
C1380 C1383 1.386 . S
H1381 C1397 0.930 . S
H1382 C1398 0.931 . S
C1383 H1371 0.929 . S
C1383 C1377 1.390 . S
C1383 C1380 1.386 . S
C1384 C1379 1.490 . S
C1384 C1386 1.395 . S
C1384 C1387 1.403 . S
H1385 C1391 0.930 . S
C1386 H1372 0.930 . S
C1386 C1384 1.395 . S
C1386 C1389 1.403 . S
C1387 C1384 1.403 . S
C1387 C1388 1.524 . S
C1387 C1391 1.400 . S
C1388 H1373 0.960 . S
C1388 H1374 0.960 . S
C1388 H1375 0.960 . S
C1388 C1387 1.524 . S
C1389 C1386 1.403 . S
C1389 C1390 1.392 . S
C1389 C1393 1.495 . S
C1390 C1389 1.392 . S
C1390 C1391 1.385 . S
C1390 C1392 1.478 . S
C1391 H1385 0.930 . S
C1391 C1387 1.400 . S
C1391 C1390 1.385 . S
C1392 C1390 1.478 . S
C1392 C1394 1.381 . S
C1392 C1398 1.383 . S
C1393 C1389 1.495 . S
C1393 H1399 0.959 . S
C1393 H1400 0.961 . S
C1393 H1401 0.960 . S
C1394 C1392 1.381 . S
C1394 C1395 1.394 . S
C1394 H1402 0.930 . S
C1395 C1394 1.394 . S
C1395 C1396 1.383 . S
C1395 H1403 0.929 . S
C1396 C1395 1.383 . S
C1396 C1397 1.377 . S
C1397 H1381 0.930 . S
C1397 C1396 1.377 . S
C1397 C1398 1.379 . S
C1398 H1382 0.931 . S
C1398 C1392 1.383 . S
C1398 C1397 1.379 . S
H1399 C1393 0.959 . S
H1400 C1393 0.961 . S
H1401 C1393 0.960 . S
H1402 C1394 0.930 . S
H1403 C1395 0.929 . S
H1404 C1412 0.929 . S
H1405 C1414 0.930 . S
H1406 C1416 0.930 . S
H1407 C1419 0.929 . S
H1408 C1422 0.930 . S
H1409 C1424 0.960 . S
H1410 C1424 0.960 . S
H1411 C1424 0.960 . S
C1412 H1404 0.929 . S
C1412 C1413 1.377 . S
C1412 C1414 1.384 . S
C1413 C1412 1.377 . S
C1413 C1419 1.390 . S
C1414 H1405 0.930 . S
C1414 C1412 1.384 . S
C1414 C1415 1.372 . S
C1415 C1414 1.372 . S
C1415 C1416 1.400 . S
C1415 C1420 1.490 . S
C1416 H1406 0.930 . S
C1416 C1415 1.400 . S
C1416 C1419 1.386 . S
H1417 C1433 0.930 . S
H1418 C1434 0.931 . S
C1419 H1407 0.929 . S
C1419 C1413 1.390 . S
C1419 C1416 1.386 . S
C1420 C1415 1.490 . S
C1420 C1422 1.395 . S
C1420 C1423 1.403 . S
H1421 C1427 0.930 . S
C1422 H1408 0.930 . S
C1422 C1420 1.395 . S
C1422 C1425 1.403 . S
C1423 C1420 1.403 . S
C1423 C1424 1.524 . S
C1423 C1427 1.400 . S
C1424 H1409 0.960 . S
C1424 H1410 0.960 . S
C1424 H1411 0.960 . S
C1424 C1423 1.524 . S
C1425 C1422 1.403 . S
C1425 C1426 1.392 . S
C1425 C1429 1.495 . S
C1426 C1425 1.392 . S
C1426 C1427 1.385 . S
C1426 C1428 1.478 . S
C1427 H1421 0.930 . S
C1427 C1423 1.400 . S
C1427 C1426 1.385 . S
C1428 C1426 1.478 . S
C1428 C1430 1.381 . S
C1428 C1434 1.383 . S
C1429 C1425 1.495 . S
C1429 H1435 0.959 . S
C1429 H1436 0.961 . S
C1429 H1437 0.960 . S
C1430 C1428 1.381 . S
C1430 C1431 1.394 . S
C1430 H1438 0.930 . S
C1431 C1430 1.394 . S
C1431 C1432 1.383 . S
C1431 H1439 0.929 . S
C1432 C1431 1.383 . S
C1432 C1433 1.377 . S
C1433 H1417 0.930 . S
C1433 C1432 1.377 . S
C1433 C1434 1.379 . S
C1434 H1418 0.931 . S
C1434 C1428 1.383 . S
C1434 C1433 1.379 . S
H1435 C1429 0.959 . S
H1436 C1429 0.961 . S
H1437 C1429 0.960 . S
H1438 C1430 0.930 . S
H1439 C1431 0.929 . S
H1440 C1448 0.929 . S
H1441 C1450 0.930 . S
H1442 C1452 0.930 . S
H1443 C1455 0.929 . S
H1444 C1458 0.930 . S
H1445 C1460 0.960 . S
H1446 C1460 0.960 . S
H1447 C1460 0.960 . S
C1448 H1440 0.929 . S
C1448 C1449 1.377 . S
C1448 C1450 1.384 . S
C1449 C1448 1.377 . S
C1449 C1455 1.390 . S
C1450 H1441 0.930 . S
C1450 C1448 1.384 . S
C1450 C1451 1.372 . S
C1451 C1450 1.372 . S
C1451 C1452 1.400 . S
C1451 C1456 1.490 . S
C1452 H1442 0.930 . S
C1452 C1451 1.400 . S
C1452 C1455 1.386 . S
H1453 C1469 0.930 . S
H1454 C1470 0.931 . S
C1455 H1443 0.929 . S
C1455 C1449 1.390 . S
C1455 C1452 1.386 . S
C1456 C1451 1.490 . S
C1456 C1458 1.395 . S
C1456 C1459 1.403 . S
H1457 C1463 0.930 . S
C1458 H1444 0.930 . S
C1458 C1456 1.395 . S
C1458 C1461 1.403 . S
C1459 C1456 1.403 . S
C1459 C1460 1.524 . S
C1459 C1463 1.400 . S
C1460 H1445 0.960 . S
C1460 H1446 0.960 . S
C1460 H1447 0.960 . S
C1460 C1459 1.524 . S
C1461 C1458 1.403 . S
C1461 C1462 1.392 . S
C1461 C1465 1.495 . S
C1462 C1461 1.392 . S
C1462 C1463 1.385 . S
C1462 C1464 1.478 . S
C1463 H1457 0.930 . S
C1463 C1459 1.400 . S
C1463 C1462 1.385 . S
C1464 C1462 1.478 . S
C1464 C1466 1.381 . S
C1464 C1470 1.383 . S
C1465 C1461 1.495 . S
C1465 H1471 0.959 . S
C1465 H1472 0.961 . S
C1465 H1473 0.960 . S
C1466 C1464 1.381 . S
C1466 C1467 1.394 . S
C1466 H1474 0.930 . S
C1467 C1466 1.394 . S
C1467 C1468 1.383 . S
C1467 H1475 0.929 . S
C1468 C1467 1.383 . S
C1468 C1469 1.377 . S
C1469 H1453 0.930 . S
C1469 C1468 1.377 . S
C1469 C1470 1.379 . S
C1470 H1454 0.931 . S
C1470 C1464 1.383 . S
C1470 C1469 1.379 . S
H1471 C1465 0.959 . S
H1472 C1465 0.961 . S
H1473 C1465 0.960 . S
H1474 C1466 0.930 . S
H1475 C1467 0.929 . S
C405 C7 1.120 . S
C424 C370 1.147 . S
C441 C40 1.107 . S
C460 C205 1.105 . S
C477 C238 1.117 . S
C496 C73 1.145 . S
C513 C271 1.114 . S
C532 C106 1.095 . S
C549 C304 1.120 . S
C568 C139 1.146 . S
C585 C172 1.112 . S
C604 C337 1.085 . S
C621 C285 1.639 . S
C640 C21 1.636 . S
C657 C318 1.642 . S
C676 C54 1.645 . S
C693 C87 1.639 . S
C712 C351 1.630 . S
C729 C120 1.642 . S
C748 C384 1.645 . S
C765 C219 1.639 . S
C784 C153 1.633 . S
C801 C186 1.639 . S
C820 C252 1.630 . S
C837 N2 1.187 . S
C856 N13 1.179 . S
C873 N46 1.180 . S
C892 N35 1.179 . S
C909 N68 1.182 . S
C928 N79 1.202 . S
C945 N112 1.188 . S
C964 N101 1.204 . S
C981 N134 1.182 . S
C1000 N145 1.202 . S
C1017 N178 1.183 . S
C1036 N167 1.156 . S
C1053 N211 1.189 . S
C1072 N200 1.195 . S
C1089 N233 1.179 . S
C1108 N244 1.190 . S
C1125 N277 1.189 . S
C1144 N266 1.202 . S
C1161 N310 1.189 . S
C1180 N299 1.198 . S
C1197 N332 1.187 . S
C1216 N343 1.204 . S
C1233 N365 1.181 . S
C1252 N376 1.158 . S
C1269 C18 1.204 . S
C1288 C348 1.212 . S
C1305 C381 1.204 . S
C1324 C51 1.212 . S
C1341 C216 1.204 . S
C1360 C84 1.212 . S
C1377 C117 1.205 . S
C1396 C249 1.193 . S
C1413 C150 1.204 . S
C1432 C282 1.212 . S
C1449 C183 1.204 . S
C1468 C315 1.212 . S
