# Generated by pormake.
# Topology umk, (4)-cn, num edge types: 1
# Building blocks:
#     Node 0, Type 0, BuildingBlock: QUQFOY_clean_sbu_3, # of connection points: 4
#     Node 1, Type 0, BuildingBlock: QUQFOY_clean_sbu_3, # of connection points: 4
#     Node 2, Type 0, BuildingBlock: QUQFOY_clean_sbu_3, # of connection points: 4
#     Node 3, Type 0, BuildingBlock: QUQFOY_clean_sbu_3, # of connection points: 4
#     Node 4, Type 0, BuildingBlock: QUQFOY_clean_sbu_3, # of connection points: 4
#     Node 5, Type 0, BuildingBlock: QUQFOY_clean_sbu_3, # of connection points: 4
#     Node 6, Type 0, BuildingBlock: QUQFOY_clean_sbu_3, # of connection points: 4
#     Node 7, Type 0, BuildingBlock: QUQFOY_clean_sbu_3, # of connection points: 4
#     Node 8, Type 0, BuildingBlock: QUQFOY_clean_sbu_3, # of connection points: 4
#     Node 9, Type 0, BuildingBlock: QUQFOY_clean_sbu_3, # of connection points: 4
#     Node 10, Type 0, BuildingBlock: QUQFOY_clean_sbu_3, # of connection points: 4
#     Node 11, Type 0, BuildingBlock: QUQFOY_clean_sbu_3, # of connection points: 4
#     Node 12, Type 0, BuildingBlock: QUQFOY_clean_sbu_3, # of connection points: 4
#     Node 13, Type 0, BuildingBlock: QUQFOY_clean_sbu_3, # of connection points: 4
#     Node 14, Type 0, BuildingBlock: QUQFOY_clean_sbu_3, # of connection points: 4
#     Node 15, Type 0, BuildingBlock: QUQFOY_clean_sbu_3, # of connection points: 4
#     Node 16, Type 0, BuildingBlock: QUQFOY_clean_sbu_3, # of connection points: 4
#     Node 17, Type 0, BuildingBlock: QUQFOY_clean_sbu_3, # of connection points: 4
#     Node 18, Type 0, BuildingBlock: QUQFOY_clean_sbu_3, # of connection points: 4
#     Node 19, Type 0, BuildingBlock: QUQFOY_clean_sbu_3, # of connection points: 4
#     Node 20, Type 0, BuildingBlock: QUQFOY_clean_sbu_3, # of connection points: 4
#     Node 21, Type 0, BuildingBlock: QUQFOY_clean_sbu_3, # of connection points: 4
#     Node 22, Type 0, BuildingBlock: QUQFOY_clean_sbu_3, # of connection points: 4
#     Node 23, Type 0, BuildingBlock: QUQFOY_clean_sbu_3, # of connection points: 4
#     Edge 24, Type (0, 0), BuildingBlock: UVAHIK_clean_linker_0, # of connection points: 2
#     Edge 25, Type (0, 0), BuildingBlock: UVAHIK_clean_linker_0, # of connection points: 2
#     Edge 26, Type (0, 0), BuildingBlock: UVAHIK_clean_linker_0, # of connection points: 2
#     Edge 27, Type (0, 0), BuildingBlock: UVAHIK_clean_linker_0, # of connection points: 2
#     Edge 28, Type (0, 0), BuildingBlock: UVAHIK_clean_linker_0, # of connection points: 2
#     Edge 29, Type (0, 0), BuildingBlock: UVAHIK_clean_linker_0, # of connection points: 2
#     Edge 30, Type (0, 0), BuildingBlock: UVAHIK_clean_linker_0, # of connection points: 2
#     Edge 31, Type (0, 0), BuildingBlock: UVAHIK_clean_linker_0, # of connection points: 2
#     Edge 32, Type (0, 0), BuildingBlock: UVAHIK_clean_linker_0, # of connection points: 2
#     Edge 33, Type (0, 0), BuildingBlock: UVAHIK_clean_linker_0, # of connection points: 2
#     Edge 34, Type (0, 0), BuildingBlock: UVAHIK_clean_linker_0, # of connection points: 2
#     Edge 35, Type (0, 0), BuildingBlock: UVAHIK_clean_linker_0, # of connection points: 2
#     Edge 36, Type (0, 0), BuildingBlock: UVAHIK_clean_linker_0, # of connection points: 2
#     Edge 37, Type (0, 0), BuildingBlock: UVAHIK_clean_linker_0, # of connection points: 2
#     Edge 38, Type (0, 0), BuildingBlock: UVAHIK_clean_linker_0, # of connection points: 2
#     Edge 39, Type (0, 0), BuildingBlock: UVAHIK_clean_linker_0, # of connection points: 2
#     Edge 40, Type (0, 0), BuildingBlock: UVAHIK_clean_linker_0, # of connection points: 2
#     Edge 41, Type (0, 0), BuildingBlock: UVAHIK_clean_linker_0, # of connection points: 2
#     Edge 42, Type (0, 0), BuildingBlock: UVAHIK_clean_linker_0, # of connection points: 2
#     Edge 43, Type (0, 0), BuildingBlock: UVAHIK_clean_linker_0, # of connection points: 2
#     Edge 44, Type (0, 0), BuildingBlock: UVAHIK_clean_linker_0, # of connection points: 2
#     Edge 45, Type (0, 0), BuildingBlock: UVAHIK_clean_linker_0, # of connection points: 2
#     Edge 46, Type (0, 0), BuildingBlock: UVAHIK_clean_linker_0, # of connection points: 2
#     Edge 47, Type (0, 0), BuildingBlock: UVAHIK_clean_linker_0, # of connection points: 2
#     Edge 48, Type (0, 0), BuildingBlock: UVAHIK_clean_linker_0, # of connection points: 2
#     Edge 49, Type (0, 0), BuildingBlock: UVAHIK_clean_linker_0, # of connection points: 2
#     Edge 50, Type (0, 0), BuildingBlock: UVAHIK_clean_linker_0, # of connection points: 2
#     Edge 51, Type (0, 0), BuildingBlock: UVAHIK_clean_linker_0, # of connection points: 2
#     Edge 52, Type (0, 0), BuildingBlock: UVAHIK_clean_linker_0, # of connection points: 2
#     Edge 53, Type (0, 0), BuildingBlock: UVAHIK_clean_linker_0, # of connection points: 2
#     Edge 54, Type (0, 0), BuildingBlock: UVAHIK_clean_linker_0, # of connection points: 2
#     Edge 55, Type (0, 0), BuildingBlock: UVAHIK_clean_linker_0, # of connection points: 2
#     Edge 56, Type (0, 0), BuildingBlock: UVAHIK_clean_linker_0, # of connection points: 2
#     Edge 57, Type (0, 0), BuildingBlock: UVAHIK_clean_linker_0, # of connection points: 2
#     Edge 58, Type (0, 0), BuildingBlock: UVAHIK_clean_linker_0, # of connection points: 2
#     Edge 59, Type (0, 0), BuildingBlock: UVAHIK_clean_linker_0, # of connection points: 2
#     Edge 60, Type (0, 0), BuildingBlock: UVAHIK_clean_linker_0, # of connection points: 2
#     Edge 61, Type (0, 0), BuildingBlock: UVAHIK_clean_linker_0, # of connection points: 2
#     Edge 62, Type (0, 0), BuildingBlock: UVAHIK_clean_linker_0, # of connection points: 2
#     Edge 63, Type (0, 0), BuildingBlock: UVAHIK_clean_linker_0, # of connection points: 2
#     Edge 64, Type (0, 0), BuildingBlock: UVAHIK_clean_linker_0, # of connection points: 2
#     Edge 65, Type (0, 0), BuildingBlock: UVAHIK_clean_linker_0, # of connection points: 2
#     Edge 66, Type (0, 0), BuildingBlock: UVAHIK_clean_linker_0, # of connection points: 2
#     Edge 67, Type (0, 0), BuildingBlock: UVAHIK_clean_linker_0, # of connection points: 2
#     Edge 68, Type (0, 0), BuildingBlock: UVAHIK_clean_linker_0, # of connection points: 2
#     Edge 69, Type (0, 0), BuildingBlock: UVAHIK_clean_linker_0, # of connection points: 2
#     Edge 70, Type (0, 0), BuildingBlock: UVAHIK_clean_linker_0, # of connection points: 2
#     Edge 71, Type (0, 0), BuildingBlock: UVAHIK_clean_linker_0, # of connection points: 2
# Relax obj value: 0.060
# Max RMSD: 0.040
# Mean RMSD: 0.040
data_MOF--net-umk--node1-QUQFOY_clean_sbu_3--edge1-UVAHIK_clean_linker_0
_symmetry_space_group_name_H-M    P1
_symmetry_Int_Tables_number       1
_symmetry_cell_setting            triclinic
loop_
_symmetry_equiv_pos_as_xyz
'x, y, z'
_cell_length_a     87.62732
_cell_length_b     87.479516
_cell_length_c     57.442773
_cell_angle_alpha  89.981965
_cell_angle_beta   90.015244
_cell_angle_gamma 120.11352
loop_
_atom_site_label
_atom_site_type_symbol
_atom_site_fract_x
_atom_site_fract_y
_atom_site_fract_z
_atom_type_partial_charge
C0 C 0.32904 0.46136 0.1222 0.0
O1 O 0.34521 0.47277 0.11921 0.0
Cd2 Cd 0.35892 0.48665 0.08319 0.0
O3 O 0.31836 0.4556 0.10507 0.0
Cd4 Cd 0.32016 0.45969 0.0622 0.0
C5 C 0.35251 0.44943 0.055 0.0
O6 O 0.33797 0.49168 0.06371 0.0
O7 O 0.33336 0.48055 0.02934 0.0
O8 O 0.2903 0.45472 0.06353 0.0
C9 C 0.34019 0.49426 0.04201 0.0
O10 O 0.36313 0.46485 0.06269 0.0
C11 C 0.28424 0.44304 0.04766 0.0
O12 O 0.33592 0.44347 0.05474 0.0
O13 O 0.29485 0.43873 0.03886 0.0
C14 C 0.85106 0.33084 0.61909 0.0
O15 O 0.85219 0.34577 0.61626 0.0
Cd16 Cd 0.85869 0.361 0.58003 0.0
O17 O 0.85206 0.32227 0.60177 0.0
Cd18 Cd 0.85391 0.32519 0.55845 0.0
C19 C 0.89566 0.35881 0.56368 0.0
O20 O 0.83725 0.34037 0.55389 0.0
O21 O 0.85222 0.34099 0.52386 0.0
O22 O 0.82994 0.29491 0.55721 0.0
C23 C 0.84121 0.34467 0.53278 0.0
O24 O 0.88872 0.3679 0.5701 0.0
C25 C 0.8368 0.2896 0.54214 0.0
O26 O 0.88608 0.34237 0.55935 0.0
O27 O 0.85211 0.30083 0.53487 0.0
C28 C 0.52207 0.8636 0.12767 0.0
O29 O 0.51116 0.86911 0.12645 0.0
Cd30 Cd 0.49665 0.87088 0.0922 0.0
O31 O 0.52675 0.85868 0.10946 0.0
Cd32 Cd 0.52082 0.85753 0.06682 0.0
C33 C 0.53348 0.90118 0.06276 0.0
O34 O 0.48904 0.84479 0.07057 0.0
O35 O 0.49912 0.85154 0.03568 0.0
O36 O 0.52434 0.83168 0.06456 0.0
C37 C 0.48587 0.84502 0.04913 0.0
O38 O 0.51898 0.8972 0.07272 0.0
C39 C 0.53559 0.83757 0.04818 0.0
O40 O 0.53798 0.88955 0.05961 0.0
O41 O 0.54024 0.85297 0.04072 0.0
C42 C 0.64723 0.52689 0.62385 0.0
O43 O 0.63159 0.5148 0.61916 0.0
Cd44 Cd 0.62015 0.50091 0.58236 0.0
O45 O 0.65898 0.53348 0.60799 0.0
Cd46 Cd 0.65998 0.52964 0.56517 0.0
C47 C 0.62675 0.53794 0.55325 0.0
O48 O 0.64306 0.49766 0.56579 0.0
O49 O 0.64906 0.50909 0.53161 0.0
O50 O 0.6902 0.53568 0.56863 0.0
C51 C 0.6419 0.49525 0.54402 0.0
O52 O 0.61614 0.5223 0.56026 0.0
C53 C 0.69649 0.54777 0.55329 0.0
O54 O 0.6434 0.54455 0.55493 0.0
O55 O 0.68584 0.55183 0.54398 0.0
C56 C 0.12734 0.65357 0.12235 0.0
O57 O 0.12554 0.63868 0.11687 0.0
Cd58 Cd 0.12068 0.62616 0.07899 0.0
O59 O 0.12753 0.6641 0.10681 0.0
Cd60 Cd 0.1269 0.66502 0.06323 0.0
C61 C 0.08487 0.63047 0.06288 0.0
O62 O 0.143 0.64972 0.05739 0.0
O63 O 0.1322 0.6537 0.02603 0.0
O64 O 0.1505 0.69556 0.06548 0.0
C65 C 0.14123 0.64779 0.0356 0.0
O66 O 0.09142 0.62076 0.06795 0.0
C67 C 0.14345 0.70165 0.05181 0.0
O68 O 0.09467 0.64718 0.06113 0.0
O69 O 0.12826 0.69071 0.04391 0.0
C70 C 0.45798 0.12558 0.62356 0.0
O71 O 0.46961 0.12112 0.62079 0.0
Cd72 Cd 0.48404 0.12149 0.58522 0.0
O73 O 0.45223 0.13043 0.60635 0.0
Cd74 Cd 0.45653 0.13311 0.5635 0.0
C75 C 0.44691 0.09046 0.55668 0.0
O76 O 0.48829 0.14712 0.56559 0.0
O77 O 0.47777 0.14135 0.53091 0.0
O78 O 0.45133 0.15789 0.56483 0.0
C79 C 0.49123 0.14771 0.54398 0.0
O80 O 0.46221 0.09537 0.56478 0.0
C81 C 0.43946 0.15202 0.54923 0.0
O82 O 0.44089 0.10104 0.55595 0.0
O83 O 0.43523 0.13707 0.54047 0.0
C84 C 0.52315 0.64566 0.87063 0.0
O85 O 0.5127 0.63012 0.87793 0.0
Cd86 Cd 0.50065 0.62166 0.91611 0.0
O87 O 0.52915 0.65883 0.88447 0.0
Cd88 Cd 0.52627 0.66185 0.92722 0.0
C89 C 0.53884 0.63261 0.94376 0.0
O90 O 0.49441 0.644 0.92762 0.0
O91 O 0.50612 0.65043 0.96155 0.0
O92 O 0.53027 0.69126 0.92121 0.0
C93 C 0.49217 0.64348 0.94937 0.0
O94 O 0.52298 0.62058 0.94 0.0
C95 C 0.54211 0.69874 0.93667 0.0
O96 O 0.54423 0.64861 0.93821 0.0
O97 O 0.54706 0.68916 0.94709 0.0
C98 C 0.85828 0.52616 0.36222 0.0
O99 O 0.86227 0.5142 0.36519 0.0
Cd100 Cd 0.86189 0.50036 0.40126 0.0
O101 O 0.85404 0.53247 0.37942 0.0
Cd102 Cd 0.85227 0.52842 0.4224 0.0
C103 C 0.89439 0.53722 0.42825 0.0
O104 O 0.83666 0.49622 0.42206 0.0
O105 O 0.84658 0.50834 0.4554 0.0
O106 O 0.82777 0.53401 0.42306 0.0
C107 C 0.83783 0.49428 0.4437 0.0
O108 O 0.88879 0.52153 0.42101 0.0
C109 C 0.83428 0.54596 0.43855 0.0
O110 O 0.88435 0.54385 0.42853 0.0
O111 O 0.84946 0.55009 0.44623 0.0
C112 C 0.32419 0.85427 0.86435 0.0
O113 O 0.33923 0.8558 0.8677 0.0
Cd114 Cd 0.35408 0.86191 0.90433 0.0
O115 O 0.3151 0.8548 0.88135 0.0
Cd116 Cd 0.31691 0.85653 0.92472 0.0
C117 C 0.35121 0.89846 0.92122 0.0
O118 O 0.33273 0.84065 0.92976 0.0
O119 O 0.33031 0.85299 0.96078 0.0
O120 O 0.28656 0.83261 0.92513 0.0
C121 C 0.33584 0.8436 0.95129 0.0
O122 O 0.3604 0.89161 0.91489 0.0
C123 C 0.28095 0.83988 0.93916 0.0
O124 O 0.33469 0.88884 0.92492 0.0
O125 O 0.29206 0.85533 0.94618 0.0
C126 C 0.46497 0.33447 0.36191 0.0
O127 O 0.4783 0.3498 0.36457 0.0
Cd128 Cd 0.48809 0.36505 0.40072 0.0
O129 O 0.45605 0.32536 0.37937 0.0
Cd130 Cd 0.45768 0.32778 0.42271 0.0
C131 C 0.44901 0.36137 0.42052 0.0
O132 O 0.48949 0.34385 0.42488 0.0
O133 O 0.47657 0.34195 0.45737 0.0
O134 O 0.45148 0.29751 0.42278 0.0
C135 C 0.49091 0.34725 0.4464 0.0
O136 O 0.46479 0.37087 0.41321 0.0
C137 C 0.43931 0.29191 0.43793 0.0
O138 O 0.44261 0.34492 0.42436 0.0
O139 O 0.43525 0.30299 0.44578 0.0
C140 C 0.11932 0.46424 0.85958 0.0
O141 O 0.11439 0.47554 0.8622 0.0
Cd142 Cd 0.11486 0.49018 0.89763 0.0
O143 O 0.12453 0.45892 0.87688 0.0
Cd144 Cd 0.12712 0.46378 0.91967 0.0
C145 C 0.0845 0.45354 0.92726 0.0
O146 O 0.14113 0.49559 0.91664 0.0
O147 O 0.13523 0.48562 0.9516 0.0
O148 O 0.15191 0.45859 0.91911 0.0
C149 C 0.14182 0.4989 0.93815 0.0
O150 O 0.0891 0.46877 0.91906 0.0
C151 C 0.14603 0.447 0.93511 0.0
O152 O 0.09522 0.4477 0.92763 0.0
O153 O 0.13111 0.44296 0.9437 0.0
C154 C 0.64269 0.12077 0.36831 0.0
O155 O 0.62718 0.11619 0.37511 0.0
Cd156 Cd 0.61754 0.11561 0.41395 0.0
O157 O 0.65525 0.12557 0.38294 0.0
Cd158 Cd 0.65804 0.12843 0.4263 0.0
C159 C 0.62751 0.08508 0.43471 0.0
O160 O 0.64057 0.14247 0.42939 0.0
O161 O 0.64654 0.13534 0.4624 0.0
O162 O 0.6877 0.15363 0.42148 0.0
C163 C 0.63964 0.14287 0.45127 0.0
O164 O 0.61572 0.08922 0.43102 0.0
C165 C 0.695 0.14816 0.43572 0.0
O166 O 0.64382 0.09645 0.43247 0.0
O167 O 0.68514 0.13324 0.44518 0.0
C168 C 0.64613 0.52357 0.86536 0.0
O169 O 0.6305 0.5112 0.86941 0.0
Cd170 Cd 0.61836 0.49765 0.90592 0.0
O171 O 0.65749 0.53019 0.88171 0.0
Cd172 Cd 0.65807 0.52582 0.92467 0.0
C173 C 0.62539 0.53542 0.93403 0.0
O174 O 0.64079 0.49397 0.9235 0.0
O175 O 0.646 0.50492 0.95794 0.0
O176 O 0.68807 0.53116 0.92155 0.0
C177 C 0.63905 0.49125 0.9452 0.0
O178 O 0.61478 0.5202 0.92573 0.0
C179 C 0.69457 0.54333 0.93675 0.0
O180 O 0.64193 0.54116 0.93473 0.0
O181 O 0.68412 0.54766 0.94603 0.0
C182 C 0.11549 0.65118 0.36839 0.0
O183 O 0.11158 0.63549 0.37339 0.0
Cd184 Cd 0.11365 0.62465 0.41058 0.0
O185 O 0.12053 0.66305 0.38408 0.0
Cd186 Cd 0.12355 0.66324 0.42734 0.0
C187 C 0.0816 0.63016 0.43606 0.0
O188 O 0.13984 0.64744 0.42795 0.0
O189 O 0.13071 0.65055 0.46123 0.0
O190 O 0.14614 0.69433 0.42319 0.0
C191 C 0.13941 0.64515 0.44971 0.0
O192 O 0.08721 0.61973 0.43064 0.0
C193 C 0.14129 0.69951 0.44088 0.0
O194 O 0.09157 0.64684 0.4343 0.0
O195 O 0.1279 0.6879 0.45188 0.0
C196 C 0.46492 0.13144 0.86172 0.0
O197 O 0.47805 0.12913 0.86395 0.0
Cd198 Cd 0.48809 0.12311 0.89956 0.0
O199 O 0.4562 0.1316 0.87941 0.0
Cd200 Cd 0.45772 0.13016 0.92259 0.0
C201 C 0.44877 0.0877 0.91929 0.0
O202 O 0.4895 0.14528 0.92446 0.0
O203 O 0.47657 0.13491 0.95719 0.0
O204 O 0.45167 0.15429 0.92344 0.0
C205 C 0.49091 0.14332 0.94599 0.0
O206 O 0.46447 0.09393 0.91175 0.0
C207 C 0.43935 0.14739 0.93837 0.0
O208 O 0.44259 0.09785 0.92361 0.0
O209 O 0.4352 0.13209 0.94576 0.0
C210 C 0.32636 0.46984 0.36144 0.0
O211 O 0.34153 0.48334 0.36442 0.0
Cd212 Cd 0.35647 0.49324 0.40085 0.0
O213 O 0.31714 0.46069 0.37869 0.0
Cd214 Cd 0.31867 0.46156 0.422 0.0
C215 C 0.35309 0.45405 0.42027 0.0
O216 O 0.33464 0.49334 0.42487 0.0
O217 O 0.33148 0.47995 0.45737 0.0
O218 O 0.2883 0.45486 0.42122 0.0
C219 C 0.33747 0.49447 0.44654 0.0
O220 O 0.3624 0.46994 0.41318 0.0
C221 C 0.28253 0.44216 0.43563 0.0
O222 O 0.33659 0.44728 0.42385 0.0
O223 O 0.2936 0.43811 0.44353 0.0
C224 C 0.86251 0.33444 0.85862 0.0
O225 O 0.86743 0.35064 0.86168 0.0
Cd226 Cd 0.86739 0.36434 0.89777 0.0
O227 O 0.85752 0.32373 0.87575 0.0
Cd228 Cd 0.8555 0.32595 0.91864 0.0
C229 C 0.89806 0.35817 0.92634 0.0
O230 O 0.84132 0.34384 0.91764 0.0
O231 O 0.84874 0.33954 0.95163 0.0
O232 O 0.83004 0.29634 0.91833 0.0
C233 C 0.84141 0.3461 0.9394 0.0
O234 O 0.89326 0.36875 0.91868 0.0
C235 C 0.83555 0.2903 0.93432 0.0
O236 O 0.88751 0.34152 0.92627 0.0
O237 O 0.85081 0.3007 0.94245 0.0
C238 C 0.51587 0.85404 0.36356 0.0
O239 O 0.50358 0.85768 0.36493 0.0
Cd240 Cd 0.49461 0.86582 0.39962 0.0
O241 O 0.52386 0.85336 0.38177 0.0
Cd242 Cd 0.52118 0.85541 0.42495 0.0
C243 C 0.53481 0.89901 0.42017 0.0
O244 O 0.48943 0.84252 0.42554 0.0
O245 O 0.50217 0.853 0.45836 0.0
O246 O 0.52457 0.8296 0.42829 0.0
C247 C 0.48792 0.84503 0.44688 0.0
O248 O 0.51988 0.89431 0.4109 0.0
C249 C 0.53671 0.83613 0.4435 0.0
O250 O 0.53892 0.88759 0.42648 0.0
O251 O 0.54193 0.85189 0.44991 0.0
C252 C 0.45774 0.33275 0.12179 0.0
O253 O 0.46941 0.34873 0.11799 0.0
Cd254 Cd 0.4825 0.36129 0.08115 0.0
O255 O 0.45133 0.32164 0.10516 0.0
Cd256 Cd 0.45445 0.32218 0.06213 0.0
C257 C 0.44491 0.35501 0.05426 0.0
O258 O 0.48645 0.3395 0.06198 0.0
O259 O 0.47436 0.33443 0.02819 0.0
O260 O 0.44908 0.29214 0.06447 0.0
C261 C 0.48841 0.34127 0.04015 0.0
O262 O 0.46055 0.36557 0.06124 0.0
C263 C 0.43686 0.28577 0.04937 0.0
O264 O 0.43864 0.33834 0.0546 0.0
O265 O 0.43247 0.29631 0.04048 0.0
C266 C 0.13019 0.47014 0.62014 0.0
O267 O 0.12929 0.48402 0.61682 0.0
Cd268 Cd 0.1226 0.49199 0.58014 0.0
O269 O 0.1289 0.46019 0.60316 0.0
Cd270 Cd 0.12681 0.46029 0.55989 0.0
C271 C 0.08526 0.45257 0.56499 0.0
O272 O 0.14345 0.49203 0.55367 0.0
O273 O 0.12808 0.47683 0.52438 0.0
O274 O 0.15082 0.45421 0.55911 0.0
C275 C 0.13906 0.49185 0.53265 0.0
O276 O 0.09244 0.46878 0.57088 0.0
C277 C 0.14361 0.44121 0.54521 0.0
O278 O 0.09463 0.44547 0.56102 0.0
O279 O 0.12814 0.43669 0.53823 0.0
C280 C 0.64379 0.11573 0.12077 0.0
O281 O 0.62815 0.11032 0.11371 0.0
Cd282 Cd 0.61908 0.11225 0.07524 0.0
O283 O 0.6567 0.12232 0.10652 0.0
Cd284 Cd 0.65951 0.12721 0.06354 0.0
C285 C 0.63064 0.0849 0.04856 0.0
O286 O 0.64124 0.14062 0.06283 0.0
O287 O 0.64784 0.13551 0.02895 0.0
O288 O 0.68872 0.1528 0.06968 0.0
C289 C 0.64053 0.14215 0.04108 0.0
O290 O 0.61851 0.0885 0.05256 0.0
C291 C 0.69627 0.1487 0.05403 0.0
O292 O 0.64667 0.09586 0.05346 0.0
O293 O 0.68682 0.13421 0.04342 0.0
C294 C 0.51859 0.64442 0.62276 0.0
O295 O 0.50683 0.62907 0.6163 0.0
Cd296 Cd 0.49391 0.61985 0.57876 0.0
O297 O 0.52547 0.65722 0.6083 0.0
Cd298 Cd 0.5224 0.66028 0.56548 0.0
C299 C 0.53165 0.62816 0.55053 0.0
O300 O 0.49059 0.64365 0.5657 0.0
O301 O 0.50185 0.64987 0.53152 0.0
O302 O 0.52824 0.69037 0.57116 0.0
C303 C 0.48806 0.64296 0.544 0.0
O304 O 0.51584 0.61706 0.55624 0.0
C305 C 0.54023 0.69725 0.55578 0.0
O306 O 0.53799 0.64466 0.55391 0.0
O307 O 0.54438 0.68699 0.54549 0.0
C308 C 0.85252 0.52022 0.123 0.0
O309 O 0.85447 0.50688 0.12042 0.0
Cd310 Cd 0.86023 0.49717 0.08441 0.0
O311 O 0.85256 0.52922 0.1055 0.0
Cd312 Cd 0.85379 0.52775 0.06219 0.0
C313 C 0.89598 0.53638 0.06506 0.0
O314 O 0.83804 0.49587 0.05961 0.0
O315 O 0.84957 0.50918 0.02745 0.0
O316 O 0.82967 0.53375 0.06179 0.0
C317 C 0.84038 0.49469 0.03813 0.0
O318 O 0.88952 0.52054 0.07226 0.0
C319 C 0.83625 0.54587 0.04654 0.0
O320 O 0.88607 0.54288 0.06112 0.0
O321 O 0.85145 0.55006 0.03885 0.0
C322 C 0.32689 0.86537 0.62386 0.0
O323 O 0.34295 0.86981 0.6207 0.0
Cd324 Cd 0.35673 0.87021 0.58456 0.0
O325 O 0.31625 0.86117 0.60675 0.0
Cd326 Cd 0.31848 0.8603 0.56357 0.0
C327 C 0.35206 0.90279 0.55856 0.0
O328 O 0.33529 0.84505 0.56396 0.0
O329 O 0.33128 0.85285 0.53014 0.0
O330 O 0.2875 0.83708 0.56401 0.0
C331 C 0.33765 0.84527 0.54222 0.0
O332 O 0.3622 0.89726 0.56564 0.0
C333 C 0.28303 0.84326 0.54699 0.0
O334 O 0.33538 0.89256 0.55804 0.0
O335 O 0.29495 0.85767 0.53821 0.0
C336 C 0.3343 0.45597 0.16322 0.0
C337 C 0.32259 0.4553 0.14604 0.0
C338 C 0.32884 0.45195 0.1863 0.0
C339 C 0.30098 0.45701 0.22695 0.0
H340 H 0.31478 0.43097 0.26833 0.0
C341 C 0.30788 0.44694 0.33178 0.0
C342 C 0.31957 0.46471 0.33753 0.0
C343 C 0.30288 0.44206 0.3086 0.0
C344 C 0.31049 0.43799 0.25697 0.0
H345 H 0.29579 0.44932 0.13931 0.0
H346 H 0.28638 0.44284 0.1801 0.0
H347 H 0.31594 0.42776 0.22614 0.0
H348 H 0.33439 0.49138 0.32392 0.0
H349 H 0.32535 0.48291 0.28365 0.0
H350 H 0.29681 0.46825 0.25775 0.0
C351 C 0.2997 0.44623 0.17549 0.0
C352 C 0.31125 0.43622 0.2329 0.0
C353 C 0.30508 0.44991 0.15223 0.0
C354 C 0.32546 0.47758 0.31995 0.0
C355 C 0.32017 0.47276 0.29695 0.0
C356 C 0.30049 0.45898 0.25101 0.0
C357 C 0.31163 0.44747 0.19274 0.0
C358 C 0.30708 0.44618 0.21771 0.0
C359 C 0.30913 0.45494 0.291 0.0
C360 C 0.30582 0.44995 0.26617 0.0
H361 H 0.34784 0.45998 0.1589 0.0
H362 H 0.33835 0.45322 0.19932 0.0
H363 H 0.29783 0.46493 0.21559 0.0
H364 H 0.30318 0.43676 0.34503 0.0
H365 H 0.2944 0.42823 0.30436 0.0
C366 C 0.85584 0.31273 0.64894 0.0
C367 C 0.84907 0.32376 0.6429 0.0
C368 C 0.85573 0.30784 0.67218 0.0
C369 C 0.86709 0.31586 0.72373 0.0
H370 H 0.82736 0.30239 0.76515 0.0
C371 C 0.87294 0.33979 0.81749 0.0
C372 C 0.86201 0.32799 0.83474 0.0
C373 C 0.87142 0.33433 0.79439 0.0
C374 C 0.83849 0.30579 0.75379 0.0
H375 H 0.83593 0.3374 0.65605 0.0
H376 H 0.83541 0.32857 0.6964 0.0
H377 H 0.82288 0.30089 0.72299 0.0
H378 H 0.84132 0.30107 0.84153 0.0
H379 H 0.83828 0.29164 0.80073 0.0
H380 H 0.88291 0.32194 0.75453 0.0
C381 C 0.8409 0.32381 0.68329 0.0
C382 C 0.83594 0.30503 0.72972 0.0
C383 C 0.84134 0.32899 0.66023 0.0
C384 C 0.84993 0.31042 0.82857 0.0
C385 C 0.84816 0.30504 0.80529 0.0
C386 C 0.86968 0.31686 0.7478 0.0
C387 C 0.84846 0.31355 0.68957 0.0
C388 C 0.85032 0.31062 0.71451 0.0
C389 C 0.85874 0.31704 0.78798 0.0
C390 C 0.8555 0.3124 0.76301 0.0
H391 H 0.86191 0.30855 0.6359 0.0
H392 H 0.86166 0.29995 0.67665 0.0
H393 H 0.87841 0.32036 0.71237 0.0
H394 H 0.88244 0.35338 0.82177 0.0
H395 H 0.87959 0.3439 0.78135 0.0
C396 C 0.5082 0.84379 0.32263 0.0
C397 C 0.52092 0.85082 0.34037 0.0
C398 C 0.51303 0.84237 0.29998 0.0
C399 C 0.52605 0.83526 0.25451 0.0
H400 H 0.55941 0.88141 0.22965 0.0
C401 C 0.53305 0.84932 0.15578 0.0
C402 C 0.5289 0.86254 0.15074 0.0
C403 C 0.53727 0.84707 0.17858 0.0
C404 C 0.55035 0.86836 0.23639 0.0
H405 H 0.54854 0.8613 0.34861 0.0
H406 H 0.55715 0.85939 0.30845 0.0
H407 H 0.55632 0.87699 0.2718 0.0
H408 H 0.52707 0.88449 0.16504 0.0
H409 H 0.53475 0.88081 0.20455 0.0
H410 H 0.51927 0.82692 0.21912 0.0
C411 C 0.54341 0.85473 0.31233 0.0
C412 C 0.54865 0.8658 0.26047 0.0
C413 C 0.53849 0.8558 0.33522 0.0
C414 C 0.53009 0.87412 0.16848 0.0
C415 C 0.53465 0.87211 0.19105 0.0
C416 C 0.5279 0.83776 0.23043 0.0
C417 C 0.53073 0.84823 0.29447 0.0
C418 C 0.53588 0.84946 0.26971 0.0
C419 C 0.53783 0.8583 0.19647 0.0
C420 C 0.53945 0.85455 0.22119 0.0
H421 H 0.49455 0.83976 0.32617 0.0
H422 H 0.50302 0.83754 0.28652 0.0
H423 H 0.51616 0.82252 0.26125 0.0
H424 H 0.53219 0.8402 0.14239 0.0
H425 H 0.53962 0.83629 0.18237 0.0
C426 C 0.6374 0.52722 0.82544 0.0
C427 C 0.65085 0.53035 0.84132 0.0
C428 C 0.64141 0.53283 0.80244 0.0
C429 C 0.67283 0.54051 0.75699 0.0
H430 H 0.64609 0.55823 0.72435 0.0
C431 C 0.66921 0.542 0.65607 0.0
C432 C 0.65165 0.53317 0.64814 0.0
C433 C 0.673 0.54677 0.67955 0.0
C434 C 0.65378 0.55344 0.73324 0.0
H435 H 0.67913 0.5421 0.84563 0.0
H436 H 0.68615 0.55164 0.80487 0.0
H437 H 0.64596 0.55761 0.76682 0.0
H438 H 0.62441 0.52308 0.65833 0.0
H439 H 0.63098 0.53146 0.69895 0.0
H440 H 0.67984 0.53544 0.7233 0.0
C441 C 0.67251 0.54494 0.8105 0.0
C442 C 0.65372 0.5531 0.7575 0.0
C443 C 0.6685 0.53952 0.83376 0.0
C444 C 0.63806 0.52977 0.6639 0.0
C445 C 0.64185 0.53474 0.68715 0.0
C446 C 0.67289 0.54086 0.73263 0.0
C447 C 0.65896 0.54158 0.79464 0.0
C448 C 0.66257 0.54588 0.76958 0.0
C449 C 0.65931 0.54308 0.69531 0.0
C450 C 0.6627 0.54658 0.72057 0.0
H451 H 0.62368 0.52029 0.83072 0.0
H452 H 0.63065 0.52979 0.79055 0.0
H453 H 0.67972 0.53483 0.76588 0.0
H454 H 0.67996 0.54477 0.64431 0.0
H455 H 0.68657 0.55318 0.68543 0.0
C456 C 0.12742 0.67152 0.33405 0.0
C457 C 0.11455 0.65545 0.34382 0.0
C458 C 0.12815 0.67398 0.30988 0.0
C459 C 0.11534 0.64621 0.25745 0.0
H460 H 0.13169 0.69017 0.22385 0.0
C461 C 0.12252 0.66909 0.15589 0.0
C462 C 0.12878 0.65823 0.14725 0.0
C463 C 0.1217 0.67124 0.17996 0.0
C464 C 0.127 0.67779 0.23302 0.0
H465 H 0.09133 0.63016 0.3366 0.0
H466 H 0.09208 0.63471 0.29478 0.0
H467 H 0.12651 0.68917 0.26596 0.0
H468 H 0.14056 0.64244 0.15671 0.0
H469 H 0.13969 0.64662 0.19836 0.0
H470 H 0.11539 0.63465 0.22488 0.0
C471 C 0.10209 0.64512 0.30544 0.0
C472 C 0.12417 0.67724 0.25712 0.0
C473 C 0.10159 0.64254 0.3294 0.0
C474 C 0.13533 0.6506 0.16291 0.0
C475 C 0.13476 0.65294 0.18678 0.0
C476 C 0.11808 0.64674 0.23357 0.0
C477 C 0.11586 0.6605 0.29526 0.0
C478 C 0.11831 0.66141 0.26959 0.0
C479 C 0.1273 0.66269 0.19565 0.0
C480 C 0.12414 0.66254 0.22107 0.0
H481 H 0.13755 0.68167 0.34489 0.0
H482 H 0.13893 0.68597 0.3026 0.0
H483 H 0.11118 0.63386 0.26647 0.0
H484 H 0.11742 0.67516 0.14415 0.0
H485 H 0.11588 0.67884 0.18627 0.0
C486 C 0.44204 0.12817 0.83281 0.0
C487 C 0.45974 0.13382 0.83818 0.0
C488 C 0.43709 0.12895 0.80986 0.0
C489 C 0.43275 0.11831 0.75772 0.0
H490 H 0.46014 0.15875 0.71763 0.0
C491 C 0.45189 0.11419 0.6642 0.0
C492 C 0.45153 0.12557 0.64726 0.0
C493 C 0.44746 0.11521 0.68722 0.0
C494 C 0.45208 0.14746 0.72863 0.0
H495 H 0.48626 0.14564 0.82424 0.0
H496 H 0.4777 0.14738 0.7844 0.0
H497 H 0.46326 0.16226 0.75991 0.0
H498 H 0.44567 0.14652 0.64083 0.0
H499 H 0.4385 0.14873 0.68156 0.0
H500 H 0.42263 0.10322 0.72639 0.0
C501 C 0.46764 0.14223 0.7978 0.0
C502 C 0.45393 0.14945 0.75276 0.0
C503 C 0.4725 0.14108 0.82054 0.0
C504 C 0.44603 0.13758 0.65358 0.0
C505 C 0.44194 0.13886 0.6768 0.0
C506 C 0.4311 0.11626 0.73358 0.0
C507 C 0.44986 0.13584 0.79216 0.0
C508 C 0.44478 0.13476 0.76744 0.0
C509 C 0.44287 0.12783 0.69384 0.0
C510 C 0.44125 0.13069 0.71885 0.0
H511 H 0.43194 0.12249 0.84613 0.0
H512 H 0.4233 0.12388 0.80584 0.0
H513 H 0.42565 0.10677 0.7687 0.0
H514 H 0.45597 0.10474 0.65976 0.0
H515 H 0.4485 0.10671 0.70008 0.0
C516 C 0.5317 0.66415 0.65774 0.0
C517 C 0.52364 0.64722 0.64762 0.0
C518 C 0.53433 0.66614 0.68189 0.0
C519 C 0.51485 0.64028 0.73486 0.0
H520 H 0.55668 0.67564 0.76704 0.0
C521 C 0.52301 0.63352 0.83137 0.0
C522 C 0.52741 0.64827 0.8455 0.0
C523 C 0.52483 0.63529 0.80731 0.0
C524 C 0.54488 0.66582 0.75821 0.0
H525 H 0.51331 0.61935 0.65458 0.0
H526 H 0.51811 0.62286 0.69627 0.0
H527 H 0.55582 0.67538 0.72423 0.0
H528 H 0.53824 0.67667 0.84552 0.0
H529 H 0.54131 0.67973 0.80305 0.0
H530 H 0.50388 0.6306 0.76845 0.0
C531 C 0.52194 0.63453 0.68578 0.0
C532 C 0.54438 0.66568 0.73379 0.0
C533 C 0.51924 0.63253 0.66186 0.0
C534 C 0.53466 0.66505 0.83507 0.0
C535 C 0.53646 0.66682 0.81081 0.0
C536 C 0.51536 0.64041 0.75905 0.0
C537 C 0.52897 0.65125 0.69618 0.0
C538 C 0.52947 0.65263 0.72192 0.0
C539 C 0.53103 0.65183 0.7967 0.0
C540 C 0.53049 0.6529 0.771 0.0
H541 H 0.53528 0.67572 0.64718 0.0
H542 H 0.53982 0.67919 0.68946 0.0
H543 H 0.50297 0.63038 0.72623 0.0
H544 H 0.51767 0.62045 0.83883 0.0
H545 H 0.52092 0.62358 0.79689 0.0
C546 C 0.84655 0.53822 0.3319 0.0
C547 C 0.85829 0.53242 0.33838 0.0
C548 C 0.84533 0.5422 0.30861 0.0
C549 C 0.86802 0.55271 0.25199 0.0
H550 H 0.82203 0.52133 0.22519 0.0
C551 C 0.84278 0.51226 0.1641 0.0
C552 C 0.85028 0.52525 0.14672 0.0
C553 C 0.84175 0.51693 0.18699 0.0
C554 C 0.83485 0.53043 0.23248 0.0
H555 H 0.87868 0.52731 0.32603 0.0
H556 H 0.87684 0.53466 0.28559 0.0
H557 H 0.82538 0.52411 0.26753 0.0
H558 H 0.86219 0.55325 0.13942 0.0
H559 H 0.86099 0.56154 0.17998 0.0
H560 H 0.87766 0.55831 0.21695 0.0
C561 C 0.8685 0.53598 0.29839 0.0
C562 C 0.83675 0.53209 0.25664 0.0
C563 C 0.86943 0.53163 0.32148 0.0
C564 C 0.85632 0.54299 0.15253 0.0
C565 C 0.85565 0.54773 0.17563 0.0
C566 C 0.86606 0.55126 0.22782 0.0
C567 C 0.85617 0.54091 0.29164 0.0
C568 C 0.85349 0.54265 0.26658 0.0
C569 C 0.84849 0.53472 0.19306 0.0
C570 C 0.84961 0.53952 0.21792 0.0
H571 H 0.83778 0.5389 0.34462 0.0
H572 H 0.83568 0.54592 0.30374 0.0
H573 H 0.88105 0.56096 0.2593 0.0
H574 H 0.83792 0.49848 0.16007 0.0
H575 H 0.83638 0.50669 0.20017 0.0
C576 C 0.33248 0.87572 0.66499 0.0
C577 C 0.32062 0.86468 0.64788 0.0
C578 C 0.32724 0.87408 0.6882 0.0
C579 C 0.29996 0.84102 0.72924 0.0
H580 H 0.31319 0.88092 0.77039 0.0
C581 C 0.30595 0.85836 0.83403 0.0
C582 C 0.31751 0.85229 0.8403 0.0
C583 C 0.30121 0.85813 0.81069 0.0
C584 C 0.30908 0.86959 0.75911 0.0
H585 H 0.29384 0.84363 0.64143 0.0
H586 H 0.28483 0.84033 0.68248 0.0
H587 H 0.31434 0.88518 0.72817 0.0
H588 H 0.33233 0.84031 0.82743 0.0
H589 H 0.32375 0.83954 0.7869 0.0
H590 H 0.29592 0.8257 0.76016 0.0
C591 C 0.29808 0.85042 0.6777 0.0
C592 C 0.30983 0.87205 0.73501 0.0
C593 C 0.30321 0.85233 0.6543 0.0
C594 C 0.3235 0.84517 0.82307 0.0
C595 C 0.31847 0.84459 0.79991 0.0
C596 C 0.29948 0.83862 0.75334 0.0
C597 C 0.31014 0.86115 0.69486 0.0
C598 C 0.3058 0.8579 0.7199 0.0
C599 C 0.3076 0.85141 0.79343 0.0
C600 C 0.30457 0.85301 0.76844 0.0
H601 H 0.34594 0.88541 0.66049 0.0
H602 H 0.33686 0.88238 0.70112 0.0
H603 H 0.29692 0.82993 0.71795 0.0
H604 H 0.30118 0.86396 0.84697 0.0
H605 H 0.29283 0.86348 0.80606 0.0
C606 C 0.44216 0.31576 0.33228 0.0
C607 C 0.4599 0.32733 0.33814 0.0
C608 C 0.43741 0.31048 0.30913 0.0
C609 C 0.43418 0.31771 0.2569 0.0
H610 H 0.4605 0.30311 0.21739 0.0
C611 C 0.45322 0.33942 0.16252 0.0
C612 C 0.45194 0.32704 0.14593 0.0
C613 C 0.44917 0.33456 0.1858 0.0
C614 C 0.45276 0.30682 0.22822 0.0
H615 H 0.48665 0.34162 0.32485 0.0
H616 H 0.47841 0.33205 0.28468 0.0
H617 H 0.46332 0.30271 0.25974 0.0
H618 H 0.44492 0.29975 0.14048 0.0
H619 H 0.4384 0.2914 0.18163 0.0
H620 H 0.42467 0.3231 0.22534 0.0
C621 C 0.46818 0.3272 0.29784 0.0
C622 C 0.45444 0.30667 0.25239 0.0
C623 C 0.47286 0.3328 0.32077 0.0
C624 C 0.44599 0.30954 0.15294 0.0
C625 C 0.44228 0.30477 0.1764 0.0
C626 C 0.43272 0.31814 0.23272 0.0
C627 C 0.4504 0.3163 0.29173 0.0
C628 C 0.44562 0.31267 0.26687 0.0
C629 C 0.44404 0.31731 0.19304 0.0
C630 C 0.44246 0.31325 0.21819 0.0
H631 H 0.43191 0.3114 0.34537 0.0
H632 H 0.4236 0.30212 0.30474 0.0
H633 H 0.42735 0.32252 0.26772 0.0
H634 H 0.45767 0.35297 0.15758 0.0
H635 H 0.45084 0.34454 0.19834 0.0
C636 C 0.13973 0.4785 0.66129 0.0
C637 C 0.13218 0.46535 0.64412 0.0
C638 C 0.14024 0.47398 0.68443 0.0
C639 C 0.14557 0.46073 0.73109 0.0
H640 H 0.0988 0.42985 0.75607 0.0
C641 C 0.1319 0.45262 0.8299 0.0
C642 C 0.11966 0.45789 0.83591 0.0
C643 C 0.13362 0.44879 0.80673 0.0
C644 C 0.11198 0.43823 0.74929 0.0
H645 H 0.11975 0.4372 0.6375 0.0
H646 H 0.12015 0.42924 0.67837 0.0
H647 H 0.10321 0.43264 0.71389 0.0
H648 H 0.09888 0.46215 0.82281 0.0
H649 H 0.10165 0.45512 0.78255 0.0
H650 H 0.15416 0.46701 0.76647 0.0
C651 C 0.12586 0.44304 0.67372 0.0
C652 C 0.11453 0.43976 0.72521 0.0
C653 C 0.12567 0.4476 0.65041 0.0
C654 C 0.1085 0.45824 0.81864 0.0
C655 C 0.10998 0.45408 0.79564 0.0
C656 C 0.14307 0.45901 0.75516 0.0
C657 C 0.13296 0.4562 0.69095 0.0
C658 C 0.1312 0.45157 0.71593 0.0
C659 C 0.12284 0.44975 0.78936 0.0
C660 C 0.12612 0.4483 0.76444 0.0
H661 H 0.14495 0.49229 0.65691 0.0
H662 H 0.14559 0.48437 0.69742 0.0
H663 H 0.15856 0.46987 0.7243 0.0
H664 H 0.14069 0.45228 0.84289 0.0
H665 H 0.14365 0.44551 0.80226 0.0
C666 C 0.63181 0.11515 0.32738 0.0
C667 C 0.64598 0.12083 0.34302 0.0
C668 C 0.63462 0.11587 0.30349 0.0
C669 C 0.66416 0.11722 0.25774 0.0
H670 H 0.63818 0.13395 0.22126 0.0
C671 C 0.66404 0.12329 0.15539 0.0
C672 C 0.64687 0.1155 0.14609 0.0
C673 C 0.66665 0.12477 0.17956 0.0
C674 C 0.64555 0.12929 0.23123 0.0
H675 H 0.67421 0.13127 0.3457 0.0
H676 H 0.67911 0.13252 0.30349 0.0
H677 H 0.63811 0.13573 0.26352 0.0
H678 H 0.61901 0.10224 0.15495 0.0
H679 H 0.62363 0.10496 0.19671 0.0
H680 H 0.67128 0.11052 0.22504 0.0
C681 C 0.66584 0.12753 0.31 0.0
C682 C 0.64549 0.13027 0.25538 0.0
C683 C 0.66303 0.12685 0.33411 0.0
C684 C 0.63242 0.1085 0.16142 0.0
C685 C 0.63504 0.11009 0.18538 0.0
C686 C 0.66428 0.11631 0.23337 0.0
C687 C 0.65166 0.12232 0.2945 0.0
C688 C 0.65425 0.12368 0.26893 0.0
C689 C 0.65215 0.11862 0.19467 0.0
C690 C 0.65446 0.12181 0.22002 0.0
H691 H 0.61847 0.11026 0.33354 0.0
H692 H 0.62337 0.11137 0.29198 0.0
H693 H 0.67104 0.11206 0.2678 0.0
H694 H 0.67544 0.12875 0.14405 0.0
H695 H 0.67997 0.13134 0.1864 0.0
C696 C 0.174 0.44603 0.93661 0.0
C697 C 0.1566 0.43948 0.94431 0.0
C698 C 0.18476 0.44048 0.94707 0.0
C699 C 0.20433 0.42337 0.96697 0.0
H700 H 0.20246 0.42232 0.0344 0.0
C701 C 0.25975 0.42346 0.02051 0.0
C702 C 0.26614 0.43594 0.03863 0.0
C703 C 0.24351 0.41853 0.01002 0.0
C704 C 0.20314 0.42253 0.01557 0.0
H705 H 0.13648 0.42116 0.96806 0.0
H706 H 0.1552 0.41118 0.98608 0.0
H707 H 0.17954 0.42383 0.01244 0.0
H708 H 0.26013 0.45229 0.0608 0.0
H709 H 0.23218 0.44409 0.04227 0.0
H710 H 0.22865 0.42345 0.97014 0.0
C711 C 0.16064 0.42092 0.97229 0.0
C712 C 0.18985 0.42315 0.00294 0.0
C713 C 0.14989 0.42657 0.96189 0.0
C714 C 0.25559 0.44267 0.04685 0.0
C715 C 0.23945 0.43783 0.03631 0.0
C716 C 0.21771 0.42292 0.97961 0.0
C717 C 0.17834 0.42813 0.96538 0.0
C718 C 0.19061 0.42421 0.97849 0.0
C719 C 0.2334 0.42603 0.01739 0.0
C720 C 0.2176 0.42312 0.00409 0.0
H721 H 0.17956 0.45599 0.92309 0.0
H722 H 0.19838 0.44655 0.94151 0.0
H723 H 0.20513 0.42379 0.94814 0.0
H724 H 0.26753 0.41793 0.01393 0.0
H725 H 0.23911 0.40919 -0.00426 0.0
C726 C 0.7234 0.1769 0.43477 0.0
C727 C 0.71373 0.1593 0.4424 0.0
C728 C 0.74024 0.18824 0.44357 0.0
C729 C 0.76615 0.19376 0.49633 0.0
H730 H 0.80113 0.23507 0.46291 0.0
C731 C 0.83306 0.26653 0.51305 0.0
C732 C 0.82674 0.27157 0.53235 0.0
C733 C 0.82235 0.25028 0.50206 0.0
C734 C 0.79174 0.22345 0.47247 0.0
H735 H 0.71461 0.13941 0.46396 0.0
H736 H 0.74422 0.15911 0.47896 0.0
H737 H 0.77717 0.21093 0.44157 0.0
H738 H 0.80467 0.26316 0.55605 0.0
H739 H 0.78603 0.23517 0.53684 0.0
H740 H 0.78064 0.20633 0.52724 0.0
C741 C 0.73861 0.16428 0.46661 0.0
C742 C 0.77784 0.2097 0.46025 0.0
C743 C 0.72168 0.15297 0.45793 0.0
C744 C 0.80992 0.2597 0.54117 0.0
C745 C 0.79927 0.24353 0.53024 0.0
C746 C 0.78012 0.20743 0.50851 0.0
C747 C 0.74788 0.1822 0.46008 0.0
C748 C 0.76447 0.19502 0.47216 0.0
C749 C 0.80516 0.23878 0.51022 0.0
C750 C 0.79265 0.22277 0.49686 0.0
H751 H 0.71765 0.18219 0.4228 0.0
H752 H 0.74683 0.20198 0.43834 0.0
H753 H 0.75611 0.18273 0.50616 0.0
H754 H 0.846 0.27539 0.50592 0.0
H755 H 0.82736 0.24693 0.48684 0.0
C756 C 0.55411 0.83306 0.01879 0.0
C757 C 0.54218 0.82661 0.0375 0.0
C758 C 0.55913 0.8221 0.00748 0.0
C759 C 0.55829 0.7793 0.01309 0.0
H760 H 0.55661 0.77929 0.94564 0.0
C761 C 0.56157 0.72516 0.96111 0.0
C762 C 0.54847 0.71718 0.94393 0.0
C763 C 0.56554 0.74144 0.97066 0.0
C764 C 0.55717 0.77914 0.96446 0.0
H765 H 0.52659 0.80384 0.05952 0.0
H766 H 0.53506 0.78471 0.03966 0.0
H767 H 0.55434 0.80197 0.96737 0.0
H768 H 0.53008 0.72049 0.92223 0.0
H769 H 0.53666 0.74858 0.9392 0.0
H770 H 0.55994 0.75585 0.01031 0.0
C771 C 0.5408 0.79827 0.03387 0.0
C772 C 0.55608 0.79228 0.97694 0.0
C773 C 0.53582 0.80921 0.04517 0.0
C774 C 0.54022 0.72629 0.93547 0.0
C775 C 0.54409 0.74249 0.94513 0.0
C776 C 0.55928 0.76613 0.00064 0.0
C777 C 0.55231 0.80449 0.01468 0.0
C778 C 0.55611 0.7922 0.00142 0.0
C779 C 0.55641 0.75001 0.96335 0.0
C780 C 0.55823 0.76559 0.97619 0.0
H781 H 0.5593 0.84645 0.01254 0.0
H782 H 0.56818 0.82736 0.99294 0.0
H783 H 0.55867 0.77905 0.03192 0.0
H784 H 0.56828 0.71854 0.96782 0.0
H785 H 0.57535 0.74703 0.98433 0.0
C786 C 0.72157 0.56869 0.52787 0.0
C787 C 0.71488 0.55551 0.54511 0.0
C788 C 0.73798 0.57407 0.51767 0.0
C789 C 0.76383 0.57051 0.48649 0.0
H790 H 0.80156 0.56795 0.51813 0.0
C791 C 0.80666 0.54752 0.44091 0.0
C792 C 0.82404 0.55366 0.44837 0.0
C793 C 0.79614 0.55308 0.45202 0.0
C794 C 0.79137 0.5691 0.50899 0.0
H795 H 0.7206 0.53842 0.56618 0.0
H796 H 0.74888 0.54738 0.54809 0.0
H797 H 0.77872 0.56906 0.54084 0.0
H798 H 0.84439 0.57125 0.47243 0.0
H799 H 0.82605 0.5812 0.49166 0.0
H800 H 0.77642 0.57044 0.45464 0.0
C801 C 0.74169 0.55385 0.54262 0.0
C802 C 0.77813 0.5695 0.52204 0.0
C803 C 0.72537 0.54858 0.55291 0.0
C804 C 0.83099 0.56619 0.4664 0.0
C805 C 0.82046 0.57182 0.47749 0.0
C806 C 0.77715 0.57026 0.47346 0.0
C807 C 0.74798 0.56628 0.5244 0.0
C808 C 0.76382 0.56949 0.51093 0.0
C809 C 0.80277 0.565 0.47079 0.0
C810 C 0.79069 0.56882 0.48452 0.0
H811 H 0.71385 0.5744 0.52165 0.0
H812 H 0.74258 0.58391 0.50399 0.0
H813 H 0.75301 0.57043 0.47728 0.0
H814 H 0.80091 0.53787 0.42706 0.0
H815 H 0.78252 0.54733 0.44659 0.0
C816 C 0.25121 0.81278 0.94073 0.0
C817 C 0.26271 0.83013 0.94827 0.0
C818 C 0.23488 0.80252 0.95144 0.0
C819 C 0.21393 0.79809 0.00806 0.0
H820 H 0.17457 0.75912 0.97642 0.0
C821 C 0.14606 0.72648 0.02701 0.0
C822 C 0.15325 0.72022 0.04383 0.0
C823 C 0.15644 0.74316 0.01695 0.0
C824 C 0.18519 0.77011 0.98562 0.0
H825 H 0.26564 0.85073 0.97194 0.0
H826 H 0.2369 0.83282 0.99053 0.0
H827 H 0.19771 0.78289 0.95375 0.0
H828 H 0.17657 0.72699 0.06438 0.0
H829 H 0.19468 0.7557 0.04661 0.0
H830 H 0.20149 0.78522 0.03993 0.0
C831 C 0.24068 0.82706 0.97657 0.0
C832 C 0.19862 0.78365 0.97256 0.0
C833 C 0.2571 0.83736 0.96585 0.0
C834 C 0.17064 0.73139 0.05141 0.0
C835 C 0.18101 0.74798 0.04131 0.0
C836 C 0.20042 0.78464 0.02113 0.0
C837 C 0.22958 0.80936 0.96991 0.0
C838 C 0.21355 0.79736 0.9836 0.0
C839 C 0.17422 0.75388 0.02346 0.0
C840 C 0.18631 0.77006 0.01004 0.0
H841 H 0.25511 0.80683 0.92717 0.0
H842 H 0.22686 0.78888 0.94602 0.0
H843 H 0.22521 0.80841 0.0172 0.0
H844 H 0.13265 0.71823 0.02094 0.0
H845 H 0.1507 0.74741 0.00352 0.0
C846 C 0.41861 0.15604 0.52349 0.0
C847 C 0.43185 0.16269 0.54062 0.0
C848 C 0.41291 0.16692 0.51354 0.0
C849 C 0.41647 0.21124 0.51908 0.0
H850 H 0.41431 0.20893 0.4517 0.0
C851 C 0.41903 0.268 0.46546 0.0
C852 C 0.43134 0.27373 0.44719 0.0
C853 C 0.41334 0.25161 0.47609 0.0
C854 C 0.41482 0.20974 0.47052 0.0
H855 H 0.44889 0.18567 0.56154 0.0
H856 H 0.43941 0.2047 0.54385 0.0
H857 H 0.4152 0.18562 0.47353 0.0
H858 H 0.44658 0.26637 0.42487 0.0
H859 H 0.43707 0.23818 0.44356 0.0
H860 H 0.41754 0.23609 0.51596 0.0
C861 C 0.43309 0.19103 0.53832 0.0
C862 C 0.41508 0.19622 0.4831 0.0
C863 C 0.43867 0.18014 0.54836 0.0
C864 C 0.43712 0.26238 0.43895 0.0
C865 C 0.43151 0.24608 0.44958 0.0
C866 C 0.41639 0.22486 0.50648 0.0
C867 C 0.42043 0.18469 0.5204 0.0
C868 C 0.4166 0.19714 0.5075 0.0
C869 C 0.41989 0.24066 0.46865 0.0
C870 C 0.41626 0.22461 0.482 0.0
H871 H 0.41298 0.14258 0.51732 0.0
H872 H 0.40294 0.16151 0.50006 0.0
H873 H 0.41723 0.21217 0.53789 0.0
H874 H 0.41424 0.27642 0.47209 0.0
H875 H 0.40419 0.24773 0.49052 0.0
C876 C 0.80892 0.54798 0.04551 0.0
C877 C 0.82594 0.55359 0.03697 0.0
C878 C 0.79808 0.55324 0.03463 0.0
C879 C 0.79105 0.56667 0.9771 0.0
H880 H 0.75388 0.56923 0.01027 0.0
C881 C 0.72021 0.56485 0.96097 0.0
C882 C 0.71307 0.5511 0.94454 0.0
C883 C 0.73695 0.57066 0.9704 0.0
C884 C 0.76434 0.56895 0.00061 0.0
H885 H 0.84537 0.57002 0.0112 0.0
H886 H 0.82646 0.57946 0.99231 0.0
H887 H 0.77835 0.57056 0.03184 0.0
H888 H 0.71821 0.53327 0.92424 0.0
H889 H 0.74704 0.54295 0.94106 0.0
H890 H 0.77699 0.56498 0.94586 0.0
C891 C 0.8214 0.57072 0.0072 0.0
C892 C 0.77829 0.56947 0.01306 0.0
C893 C 0.83227 0.5654 0.01809 0.0
C894 C 0.72333 0.54388 0.93688 0.0
C895 C 0.73998 0.54957 0.94643 0.0
C896 C 0.77719 0.56632 0.96462 0.0
C897 C 0.80401 0.56433 0.01499 0.0
C898 C 0.7914 0.56758 0.00155 0.0
C899 C 0.74684 0.56273 0.96373 0.0
C900 C 0.76328 0.5667 0.9763 0.0
H901 H 0.80365 0.5389 0.06005 0.0
H902 H 0.78471 0.54783 0.04095 0.0
H903 H 0.80089 0.56515 0.96762 0.0
H904 H 0.71267 0.57079 0.96705 0.0
H905 H 0.74195 0.58103 0.98337 0.0
C906 C 0.15108 0.72157 0.47306 0.0
C907 C 0.1517 0.71782 0.44944 0.0
C908 C 0.16285 0.73827 0.48202 0.0
C909 C 0.20671 0.77661 0.46825 0.0
H910 H 0.19829 0.79502 0.52522 0.0
C911 C 0.26233 0.83731 0.51383 0.0
C912 C 0.26529 0.83329 0.53649 0.0
C913 C 0.2465 0.82618 0.50237 0.0
C914 C 0.20074 0.79008 0.5092 0.0
H915 H 0.16403 0.7289 0.41625 0.0
H916 H 0.18395 0.75833 0.43155 0.0
H917 H 0.17361 0.77025 0.50534 0.0
H918 H 0.25356 0.81526 0.56554 0.0
H919 H 0.22575 0.79597 0.54559 0.0
H920 H 0.23383 0.79646 0.4722 0.0
C921 C 0.17496 0.74822 0.44346 0.0
C922 C 0.18666 0.77582 0.49787 0.0
C923 C 0.16345 0.73139 0.43462 0.0
C924 C 0.25167 0.81863 0.54804 0.0
C925 C 0.23573 0.80766 0.53669 0.0
C926 C 0.22067 0.79105 0.47932 0.0
C927 C 0.17528 0.75171 0.46746 0.0
C928 C 0.18955 0.76854 0.47761 0.0
C929 C 0.23324 0.81102 0.5135 0.0
C930 C 0.2179 0.7976 0.5002 0.0
H931 H 0.14218 0.71133 0.48491 0.0
H932 H 0.16277 0.74025 0.50061 0.0
H933 H 0.20966 0.77127 0.45302 0.0
H934 H 0.27258 0.84853 0.50449 0.0
H935 H 0.24484 0.82906 0.4845 0.0
C936 C 0.43692 0.17457 0.9399 0.0
C937 C 0.43121 0.15734 0.94779 0.0
C938 C 0.43098 0.18494 0.95058 0.0
C939 C 0.41335 0.20367 0.97126 0.0
H940 H 0.41515 0.20324 0.03866 0.0
C941 C 0.41586 0.26049 0.02418 0.0
C942 C 0.42915 0.26733 0.04122 0.0
C943 C 0.41029 0.24388 0.01436 0.0
C944 C 0.41454 0.20352 0.01984 0.0
H945 H 0.41395 0.13705 0.97216 0.0
H946 H 0.40335 0.15515 0.9907 0.0
H947 H 0.41618 0.18005 0.01662 0.0
H948 H 0.44632 0.26173 0.06229 0.0
H949 H 0.43704 0.23315 0.04485 0.0
H950 H 0.41316 0.22789 0.97437 0.0
C951 C 0.41268 0.16073 0.97649 0.0
C952 C 0.41489 0.19006 0.00718 0.0
C953 C 0.41869 0.15035 0.96581 0.0
C954 C 0.43607 0.25686 0.04915 0.0
C955 C 0.43061 0.24035 0.03925 0.0
C956 C 0.41318 0.21721 0.9839 0.0
C957 C 0.4191 0.17831 0.96935 0.0
C958 C 0.41501 0.19037 0.98271 0.0
C959 C 0.41798 0.23383 0.0213 0.0
C960 C 0.41448 0.21767 0.00832 0.0
H961 H 0.44654 0.18036 0.92603 0.0
H962 H 0.43645 0.19848 0.94482 0.0
H963 H 0.41303 0.2041 0.95243 0.0
H964 H 0.41016 0.2682 0.01787 0.0
H965 H 0.40032 0.23914 0.00085 0.0
C966 C 0.14632 0.41969 0.51901 0.0
C967 C 0.15341 0.43271 0.53643 0.0
C968 C 0.15665 0.41344 0.5088 0.0
C969 C 0.19999 0.41494 0.51417 0.0
H970 H 0.19905 0.41569 0.44674 0.0
C971 C 0.25281 0.43942 0.43607 0.0
C972 C 0.2641 0.4335 0.44401 0.0
C973 C 0.23619 0.43306 0.44602 0.0
C974 C 0.19946 0.41536 0.46557 0.0
H975 H 0.17651 0.4486 0.55776 0.0
H976 H 0.19452 0.43811 0.53978 0.0
H977 H 0.17555 0.4161 0.4687 0.0
H978 H 0.26639 0.41535 0.46752 0.0
H979 H 0.23715 0.40398 0.48473 0.0
H980 H 0.22467 0.41576 0.51108 0.0
C981 C 0.18096 0.43243 0.53411 0.0
C982 C 0.18583 0.41534 0.4782 0.0
C983 C 0.17066 0.43862 0.54431 0.0
C984 C 0.25802 0.42028 0.46118 0.0
C985 C 0.2413 0.41383 0.4711 0.0
C986 C 0.21372 0.41516 0.50155 0.0
C987 C 0.17426 0.42009 0.51583 0.0
C988 C 0.18635 0.41593 0.50266 0.0
C989 C 0.23039 0.42052 0.46408 0.0
C990 C 0.21402 0.41617 0.4771 0.0
H991 H 0.13301 0.4148 0.51269 0.0
H992 H 0.15101 0.40376 0.49497 0.0
H993 H 0.20058 0.41495 0.533 0.0
H994 H 0.25707 0.44956 0.42282 0.0
H995 H 0.22834 0.43876 0.44037 0.0
C996 C 0.80617 0.26293 0.93776 0.0
C997 C 0.82391 0.27274 0.9447 0.0
C998 C 0.79428 0.24792 0.95013 0.0
C999 C 0.77233 0.22956 0.99279 0.0
H1000 H 0.77663 0.18896 0.0098 0.0
C1001 C 0.72359 0.17831 0.05603 0.0
C1002 C 0.71454 0.16118 0.04664 0.0
C1003 C 0.73935 0.19122 0.04603 0.0
C1004 C 0.77538 0.20029 0.00524 0.0
H1005 H 0.84341 0.27375 0.96891 0.0
H1006 H 0.8225 0.24721 0.99042 0.0
H1007 H 0.7994 0.21241 0.98531 0.0
H1008 H 0.71568 0.14371 0.02076 0.0
H1009 H 0.74331 0.16635 0.00335 0.0
H1010 H 0.74845 0.21767 0.01247 0.0
C1011 C 0.81788 0.25131 0.9755 0.0
C1012 C 0.78835 0.21365 0.99132 0.0
C1013 C 0.82979 0.2665 0.96323 0.0
C1014 C 0.7223 0.15684 0.02828 0.0
C1015 C 0.73816 0.16975 0.01838 0.0
C1016 C 0.7596 0.21644 0.00692 0.0
C1017 C 0.79992 0.2423 0.96952 0.0
C1018 C 0.78674 0.22825 0.98472 0.0
C1019 C 0.74642 0.18722 0.02659 0.0
C1020 C 0.76089 0.20161 0.01314 0.0
H1021 H 0.80124 0.26732 0.92348 0.0
H1022 H 0.78051 0.24103 0.94506 0.0
H1023 H 0.77092 0.2408 0.98815 0.0
H1024 H 0.71803 0.18203 0.07028 0.0
H1025 H 0.7456 0.20456 0.05286 0.0
C1026 C 0.53714 0.80791 0.44692 0.0
C1027 C 0.5437 0.82547 0.45405 0.0
C1028 C 0.54244 0.79721 0.45816 0.0
C1029 C 0.56015 0.77843 0.47868 0.0
H1030 H 0.55934 0.77935 0.54613 0.0
C1031 C 0.56076 0.72315 0.53121 0.0
C1032 C 0.54765 0.71584 0.54846 0.0
C1033 C 0.56566 0.73966 0.52157 0.0
C1034 C 0.55968 0.77895 0.5273 0.0
H1035 H 0.56154 0.84582 0.47793 0.0
H1036 H 0.57096 0.82711 0.49749 0.0
H1037 H 0.55755 0.80217 0.52403 0.0
H1038 H 0.53024 0.7206 0.57024 0.0
H1039 H 0.5384 0.74907 0.55312 0.0
H1040 H 0.56099 0.75456 0.48182 0.0
C1041 C 0.56152 0.82158 0.48339 0.0
C1042 C 0.55887 0.79217 0.51462 0.0
C1043 C 0.55619 0.83231 0.47212 0.0
C1044 C 0.54037 0.72585 0.55693 0.0
C1045 C 0.54516 0.74228 0.54719 0.0
C1046 C 0.56085 0.76517 0.49133 0.0
C1047 C 0.55449 0.80382 0.47676 0.0
C1048 C 0.55848 0.7917 0.49015 0.0
C1049 C 0.55745 0.74914 0.52887 0.0
C1050 C 0.56003 0.76494 0.51579 0.0
H1051 H 0.52749 0.80223 0.43307 0.0
H1052 H 0.53651 0.78353 0.45283 0.0
H1053 H 0.56023 0.77788 0.45984 0.0
H1054 H 0.56675 0.71582 0.52449 0.0
H1055 H 0.57543 0.74471 0.50782 0.0
C1056 C 0.37774 0.4461 0.04188 0.0
C1057 C 0.3598 0.43818 0.04772 0.0
C1058 C 0.38553 0.43581 0.0382 0.0
C1059 C 0.37768 0.39059 0.02889 0.0
H1060 H 0.42218 0.40961 0.06184 0.0
C1061 C 0.41528 0.35242 0.04814 0.0
C1062 C 0.4338 0.3625 0.04715 0.0
C1063 C 0.4051 0.3605 0.04477 0.0
C1064 C 0.4099 0.40421 0.05225 0.0
H1065 H 0.33566 0.41319 0.05282 0.0
H1066 H 0.34946 0.39508 0.04681 0.0
H1067 H 0.40641 0.42576 0.06198 0.0
H1068 H 0.45607 0.38851 0.03983 0.0
H1069 H 0.4384 0.40242 0.03355 0.0
H1070 H 0.38128 0.36882 0.0195 0.0
C1071 C 0.35741 0.40929 0.0449 0.0
C1072 C 0.40085 0.41348 0.05232 0.0
C1073 C 0.34954 0.41964 0.04839 0.0
C1074 C 0.44185 0.38046 0.04115 0.0
C1075 C 0.43173 0.38844 0.03762 0.0
C1076 C 0.38681 0.38123 0.02882 0.0
C1077 C 0.37563 0.41735 0.04053 0.0
C1078 C 0.38477 0.40694 0.04042 0.0
C1079 C 0.41332 0.37873 0.04024 0.0
C1080 C 0.40314 0.38811 0.04028 0.0
H1081 H 0.38594 0.46035 0.0408 0.0
H1082 H 0.39949 0.44238 0.03424 0.0
H1083 H 0.36529 0.38522 0.0196 0.0
H1084 H 0.40872 0.33854 0.0527 0.0
H1085 H 0.39093 0.35269 0.0469 0.0
C1086 C 0.05551 0.44998 0.56653 0.0
C1087 C 0.0658 0.44199 0.56286 0.0
C1088 C 0.03718 0.44017 0.56464 0.0
C1089 C -0.00052 0.39484 0.5672 0.0
H1090 H 0.97475 0.41619 0.53806 0.0
C1091 C 0.92338 0.35778 0.55593 0.0
C1092 C 0.91511 0.36753 0.56156 0.0
C1093 C 0.94178 0.36612 0.55434 0.0
C1094 C 0.98145 0.41008 0.54638 0.0
H1095 H 0.06479 0.41734 0.55429 0.0
H1096 H 0.03266 0.40019 0.5509 0.0
H1097 H 0.00688 0.43205 0.5384 0.0
H1098 H 0.91976 0.39375 0.56983 0.0
H1099 H 0.95169 0.40818 0.5672 0.0
H1100 H 0.97397 0.37295 0.57544 0.0
C1101 C 0.03886 0.41406 0.55541 0.0
C1102 C -0.00014 0.41917 0.54658 0.0
C1103 C 0.05727 0.42391 0.55725 0.0
C1104 C 0.92565 0.38581 0.56541 0.0
C1105 C 0.94398 0.39413 0.56375 0.0
C1106 C 0.98102 0.38572 0.567 0.0
C1107 C 0.02863 0.42211 0.55903 0.0
C1108 C 0.00909 0.41179 0.55733 0.0
C1109 C 0.95227 0.3844 0.55822 0.0
C1110 C 0.97181 0.39338 0.55692 0.0
H1111 H 0.0616 0.46386 0.57096 0.0
H1112 H 0.02967 0.44671 0.56792 0.0
H1113 H 0.0062 0.38886 0.57579 0.0
H1114 H 0.91567 0.34368 0.55284 0.0
H1115 H 0.94779 0.3583 0.54987 0.0
C1116 C 0.56042 0.92456 0.04185 0.0
C1117 C 0.54523 0.91968 0.05528 0.0
C1118 C 0.57133 0.94218 0.03501 0.0
C1119 C 0.59717 0.98225 0.03603 0.0
H1120 H 0.57481 0.01008 0.02413 0.0
C1121 C 0.63226 0.05731 0.05075 0.0
C1122 C 0.62555 0.06712 0.04006 0.0
C1123 C 0.62466 0.03923 0.0462 0.0
C1124 C 0.58146 0.00261 0.02679 0.0
H1125 H 0.52977 0.92955 0.07234 0.0
H1126 H 0.54879 0.95999 0.06103 0.0
H1127 H 0.55687 0.97843 0.02771 0.0
H1128 H 0.6071 0.06648 0.01451 0.0
H1129 H 0.59466 0.03529 0.00524 0.0
H1130 H 0.62184 0.00653 0.03472 0.0
C1131 C 0.55212 0.95026 0.05513 0.0
C1132 C 0.57104 0.98437 0.02929 0.0
C1133 C 0.54124 0.93276 0.0618 0.0
C1134 C 0.61229 0.05905 0.0232 0.0
C1135 C 0.60507 0.04114 0.0181 0.0
C1136 C 0.60768 0.00057 0.03316 0.0
C1137 C 0.56722 0.95521 0.04152 0.0
C1138 C 0.57868 0.97405 0.0349 0.0
C1139 C 0.61048 0.03076 0.03046 0.0
C1140 C 0.5999 0.01108 0.02932 0.0
H1141 H 0.56385 0.91478 0.03653 0.0
H1142 H 0.58284 0.94556 0.02447 0.0
H1143 H 0.60349 0.97468 0.04027 0.0
H1144 H 0.64246 0.06329 0.0639 0.0
H1145 H 0.62916 0.03178 0.05624 0.0
C1146 C 0.60202 0.54027 0.53572 0.0
C1147 C 0.61931 0.54869 0.54443 0.0
C1148 C 0.59384 0.55 0.53043 0.0
C1149 C 0.60049 0.5952 0.52321 0.0
H1150 H 0.55304 0.57271 0.54835 0.0
C1151 C 0.56142 0.63118 0.5445 0.0
C1152 C 0.543 0.6214 0.54175 0.0
C1153 C 0.57168 0.62337 0.53991 0.0
C1154 C 0.56614 0.57909 0.54082 0.0
H1155 H 0.64204 0.57404 0.55309 0.0
H1156 H 0.62753 0.59108 0.54447 0.0
H1157 H 0.56933 0.55714 0.5492 0.0
H1158 H 0.5211 0.59646 0.52989 0.0
H1159 H 0.53898 0.58306 0.52139 0.0
H1160 H 0.59725 0.61744 0.51551 0.0
C1161 C 0.62038 0.57696 0.54141 0.0
C1162 C 0.57551 0.57013 0.54129 0.0
C1163 C 0.62867 0.5672 0.54643 0.0
C1164 C 0.53523 0.60422 0.53259 0.0
C1165 C 0.54547 0.59652 0.5278 0.0
C1166 C 0.59105 0.60425 0.52278 0.0
C1167 C 0.60266 0.56836 0.53409 0.0
C1168 C 0.59278 0.57802 0.53249 0.0
C1169 C 0.56368 0.60573 0.53233 0.0
C1170 C 0.57375 0.59624 0.53157 0.0
H1171 H 0.59458 0.52605 0.5336 0.0
H1172 H 0.58036 0.54302 0.52421 0.0
H1173 H 0.61376 0.60161 0.51624 0.0
H1174 H 0.56777 0.64446 0.5515 0.0
H1175 H 0.58569 0.63079 0.54361 0.0
C1176 C 0.92595 0.53954 0.06342 0.0
C1177 C 0.9153 0.54728 0.06151 0.0
C1178 C 0.94418 0.54969 0.06052 0.0
C1179 C 0.9813 0.59497 0.06469 0.0
H1180 H 0.0061 0.57546 0.03129 0.0
C1181 C 0.05755 0.63236 0.05544 0.0
C1182 C 0.06554 0.6221 0.05953 0.0
C1183 C 0.03922 0.6243 0.05304 0.0
C1184 C -0.00062 0.58107 0.04077 0.0
H1185 H 0.91551 0.57182 0.05494 0.0
H1186 H 0.94751 0.58961 0.04995 0.0
H1187 H 0.97396 0.55944 0.03185 0.0
H1188 H 0.06046 0.5953 0.06404 0.0
H1189 H 0.02868 0.58137 0.06008 0.0
H1190 H 0.00678 0.6164 0.07408 0.0
C1191 C 0.94165 0.57565 0.05376 0.0
C1192 C 0.98098 0.57189 0.04107 0.0
C1193 C 0.92333 0.56544 0.05652 0.0
C1194 C 0.05481 0.60363 0.06086 0.0
C1195 C 0.03655 0.59561 0.05842 0.0
C1196 C -0.00024 0.60416 0.06443 0.0
C1197 C 0.95226 0.56786 0.05572 0.0
C1198 C 0.97173 0.57855 0.05344 0.0
C1199 C 0.02852 0.60582 0.05456 0.0
C1200 C 0.009 0.5971 0.05287 0.0
H1201 H 0.92024 0.52561 0.06725 0.0
H1202 H 0.95201 0.54335 0.06249 0.0
H1203 H 0.97455 0.60037 0.07451 0.0
H1204 H 0.06543 0.64662 0.05429 0.0
H1205 H 0.03342 0.63252 0.04991 0.0
C1206 C 0.44373 0.06164 0.54492 0.0
C1207 C 0.43577 0.07179 0.54966 0.0
C1208 C 0.43348 0.04345 0.54173 0.0
C1209 C 0.38862 0.00585 0.53165 0.0
H1210 H 0.40659 0.98095 0.56811 0.0
C1211 C 0.34991 0.93006 0.55174 0.0
C1212 C 0.35998 0.92161 0.55206 0.0
C1213 C 0.35812 0.94837 0.5484 0.0
C1214 C 0.40149 0.98765 0.55756 0.0
H1215 H 0.41077 0.07103 0.55323 0.0
H1216 H 0.39273 0.03896 0.54799 0.0
H1217 H 0.42273 0.01295 0.56729 0.0
H1218 H 0.38625 0.92547 0.5473 0.0
H1219 H 0.4004 0.95713 0.5411 0.0
H1220 H 0.3672 0.98025 0.52216 0.0
C1221 C 0.40694 0.04519 0.54661 0.0
C1222 C 0.41075 0.00602 0.55709 0.0
C1223 C 0.41726 0.06352 0.54966 0.0
C1224 C 0.37816 0.93161 0.54759 0.0
C1225 C 0.38629 0.94978 0.54411 0.0
C1226 C 0.37928 0.98731 0.53211 0.0
C1227 C 0.41502 0.03493 0.54342 0.0
C1228 C 0.4046 0.01535 0.54391 0.0
C1229 C 0.37649 0.95846 0.54523 0.0
C1230 C 0.38579 0.97805 0.54485 0.0
H1231 H 0.45796 0.06766 0.54439 0.0
H1232 H 0.44007 0.03595 0.53869 0.0
H1233 H 0.38356 0.01271 0.52138 0.0
H1234 H 0.33585 0.92267 0.55508 0.0
H1235 H 0.35023 0.95471 0.54938 0.0
C1236 C 0.56777 0.63373 0.94173 0.0
C1237 C 0.55133 0.62737 0.95251 0.0
C1238 C 0.57805 0.62601 0.9466 0.0
C1239 C 0.57138 0.58315 0.96833 0.0
H1240 H 0.62116 0.60489 0.9538 0.0
C1241 C 0.62883 0.56265 0.95389 0.0
C1242 C 0.61827 0.54674 0.94187 0.0
C1243 C 0.62196 0.57343 0.96046 0.0
C1244 C 0.60732 0.59864 0.95837 0.0
H1245 H 0.53345 0.60938 0.97845 0.0
H1246 H 0.55189 0.5968 0.98834 0.0
H1247 H 0.6078 0.62333 0.95811 0.0
H1248 H 0.59225 0.52975 0.92725 0.0
H1249 H 0.58057 0.5486 0.93788 0.0
H1250 H 0.57096 0.55858 0.96925 0.0
C1251 C 0.55653 0.60699 0.97514 0.0
C1252 C 0.59957 0.60921 0.96049 0.0
C1253 C 0.54601 0.61431 0.96971 0.0
C1254 C 0.60073 0.54182 0.93669 0.0
C1255 C 0.59396 0.55261 0.943 0.0
C1256 C 0.57918 0.57269 0.96668 0.0
C1257 C 0.57226 0.61208 0.9628 0.0
C1258 C 0.58133 0.60153 0.96465 0.0
C1259 C 0.60443 0.56856 0.95499 0.0
C1260 C 0.59707 0.58017 0.96071 0.0
H1261 H 0.57207 0.64374 0.92828 0.0
H1262 H 0.58994 0.63026 0.93651 0.0
H1263 H 0.5573 0.57655 0.97131 0.0
H1264 H 0.6424 0.56679 0.9582 0.0
H1265 H 0.63036 0.58555 0.96983 0.0
C1266 C 0.92264 0.53944 0.44081 0.0
C1267 C 0.91306 0.5479 0.43539 0.0
C1268 C 0.94069 0.54928 0.44515 0.0
C1269 C 0.97826 0.59404 0.45744 0.0
H1270 H 0.00447 0.57524 0.42598 0.0
C1271 C 0.05432 0.63242 0.44114 0.0
C1272 C 0.06286 0.62247 0.44264 0.0
C1273 C 0.03599 0.62421 0.44392 0.0
C1274 C -0.00263 0.58056 0.43517 0.0
H1275 H 0.91471 0.57334 0.43145 0.0
H1276 H 0.94653 0.59062 0.43852 0.0
H1277 H 0.97255 0.55933 0.42397 0.0
H1278 H 0.05915 0.59651 0.45024 0.0
H1279 H 0.0274 0.58236 0.45537 0.0
H1280 H 0.00341 0.61556 0.46817 0.0
C1281 C 0.93997 0.57635 0.43966 0.0
C1282 C 0.97904 0.57142 0.43403 0.0
C1283 C 0.92177 0.56646 0.43553 0.0
C1284 C 0.05293 0.60449 0.44856 0.0
C1285 C 0.03473 0.59635 0.45144 0.0
C1286 C -0.00326 0.60328 0.45851 0.0
C1287 C 0.94968 0.56782 0.4439 0.0
C1288 C 0.96923 0.57793 0.44532 0.0
C1289 C 0.02598 0.60596 0.44832 0.0
C1290 C 0.00644 0.59651 0.44755 0.0
H1291 H 0.91625 0.52516 0.44127 0.0
H1292 H 0.9477 0.5423 0.44899 0.0
H1293 H 0.97105 0.59937 0.46634 0.0
H1294 H 0.06163 0.64632 0.43666 0.0
H1295 H 0.02959 0.63193 0.4414 0.0
C1296 C 0.41965 0.06068 0.92857 0.0
C1297 C 0.43762 0.06837 0.92275 0.0
C1298 C 0.40918 0.04235 0.93124 0.0
C1299 C 0.41216 0.00226 0.94195 0.0
H1300 H 0.36664 0.97745 0.91126 0.0
C1301 C 0.37835 0.92835 0.92127 0.0
C1302 C 0.35998 0.91789 0.9241 0.0
C1303 C 0.38677 0.94666 0.92366 0.0
C1304 C 0.37919 0.9842 0.92025 0.0
H1305 H 0.45866 0.06281 0.91541 0.0
H1306 H 0.44045 0.03102 0.91997 0.0
H1307 H 0.38331 0.00975 0.91103 0.0
H1308 H 0.33607 0.91856 0.93175 0.0
H1309 H 0.35089 0.9507 0.93595 0.0
H1310 H 0.40825 0.9768 0.95081 0.0
C1311 C 0.43447 0.03912 0.92269 0.0
C1312 C 0.38873 0.00269 0.92012 0.0
C1313 C 0.44489 0.05736 0.91991 0.0
C1314 C 0.35024 0.92623 0.92945 0.0
C1315 C 0.3587 0.94463 0.93176 0.0
C1316 C 0.40264 0.98383 0.9421 0.0
C1317 C 0.4165 0.03139 0.92833 0.0
C1318 C 0.4055 0.0119 0.93053 0.0
C1319 C 0.37707 0.95503 0.92891 0.0
C1320 C 0.38623 0.97458 0.93081 0.0
H1321 H 0.41363 0.06877 0.93088 0.0
H1322 H 0.39539 0.03676 0.93572 0.0
H1323 H 0.42488 0.00899 0.95053 0.0
H1324 H 0.38629 0.92242 0.9171 0.0
H1325 H 0.4009 0.95431 0.92096 0.0
C1326 C 0.35176 0.42527 0.4295 0.0
C1327 C 0.3617 0.44336 0.42397 0.0
C1328 C 0.36004 0.41524 0.43229 0.0
C1329 C 0.40366 0.41963 0.44347 0.0
H1330 H 0.38417 0.37436 0.4122 0.0
C1331 C 0.4455 0.38803 0.42169 0.0
C1332 C 0.43803 0.36965 0.42418 0.0
C1333 C 0.43522 0.39595 0.42453 0.0
C1334 C 0.38963 0.38684 0.42136 0.0
H1335 H 0.38818 0.46508 0.41733 0.0
H1336 H 0.40248 0.44764 0.42206 0.0
H1337 H 0.36778 0.39018 0.41216 0.0
H1338 H 0.41383 0.34521 0.43182 0.0
H1339 H 0.39583 0.35914 0.43678 0.0
H1340 H 0.42568 0.41652 0.45224 0.0
C1341 C 0.38833 0.44122 0.42449 0.0
C1342 C 0.38025 0.39589 0.42134 0.0
C1343 C 0.38009 0.4512 0.4216 0.0
C1344 C 0.42001 0.3594 0.42977 0.0
C1345 C 0.40967 0.36735 0.43251 0.0
C1346 C 0.41303 0.4106 0.44349 0.0
C1347 C 0.37842 0.42312 0.42979 0.0
C1348 C 0.38736 0.41257 0.43195 0.0
C1349 C 0.41719 0.38572 0.42988 0.0
C1350 C 0.40631 0.3943 0.43199 0.0
H1351 H 0.33757 0.41881 0.43146 0.0
H1352 H 0.35207 0.40134 0.43652 0.0
H1353 H 0.40932 0.43228 0.45222 0.0
H1354 H 0.45932 0.39635 0.41737 0.0
H1355 H 0.44135 0.41009 0.42202 0.0
C1356 C 0.05783 0.42374 0.93435 0.0
C1357 C 0.06606 0.44228 0.93497 0.0
C1358 C 0.03962 0.41333 0.93814 0.0
C1359 C 0.0003 0.41744 0.93131 0.0
H1360 H 0.97532 0.37222 0.96293 0.0
C1361 C 0.92611 0.38342 0.94093 0.0
C1362 C 0.9165 0.36562 0.93416 0.0
C1363 C 0.94416 0.39151 0.9451 0.0
C1364 C 0.98217 0.3848 0.95396 0.0
H1365 H 0.06211 0.46439 0.94215 0.0
H1366 H 0.03063 0.44632 0.9493 0.0
H1367 H 0.00774 0.38893 0.96319 0.0
H1368 H 0.91799 0.34195 0.92798 0.0
H1369 H 0.94988 0.35631 0.93483 0.0
H1370 H 0.97505 0.41342 0.92175 0.0
C1371 C 0.03802 0.43979 0.94513 0.0
C1372 C 0.00067 0.39433 0.95411 0.0
C1373 C 0.05607 0.45015 0.94111 0.0
C1374 C 0.92511 0.35573 0.93311 0.0
C1375 C 0.94333 0.36392 0.93709 0.0
C1376 C 0.98196 0.408 0.93119 0.0
C1377 C 0.02946 0.42133 0.94277 0.0
C1378 C 0.0099 0.41086 0.94296 0.0
C1379 C 0.9531 0.38206 0.94233 0.0
C1380 C 0.97266 0.39168 0.9427 0.0
H1381 H 0.06524 0.41733 0.92969 0.0
H1382 H 0.03339 0.39913 0.93619 0.0
H1383 H 0.00697 0.42984 0.92193 0.0
H1384 H 0.91978 0.3913 0.94233 0.0
H1385 H 0.95126 0.40539 0.94971 0.0
C1386 C 0.5604 0.92379 0.44107 0.0
C1387 C 0.54746 0.91801 0.42355 0.0
C1388 C 0.57189 0.94186 0.44468 0.0
C1389 C 0.58294 0.98094 0.45626 0.0
H1390 H 0.60871 0.01123 0.4042 0.0
C1391 C 0.60505 0.05492 0.44842 0.0
C1392 C 0.62197 0.06641 0.43952 0.0
C1393 C 0.59881 0.03681 0.45 0.0
C1394 C 0.6018 0.00292 0.41897 0.0
H1395 H 0.53673 0.92654 0.3957 0.0
H1396 H 0.55713 0.95804 0.40162 0.0
H1397 H 0.59223 0.97914 0.39901 0.0
H1398 H 0.6459 0.06804 0.4262 0.0
H1399 H 0.63474 0.03621 0.4284 0.0
H1400 H 0.59172 0.0048 0.47586 0.0
C1401 C 0.55822 0.9486 0.41268 0.0
C1402 C 0.59231 0.98462 0.41596 0.0
C1403 C 0.5465 0.9306 0.4094 0.0
C1404 C 0.63282 0.05952 0.43319 0.0
C1405 C 0.62644 0.04133 0.43435 0.0
C1406 C 0.59217 -0.00071 0.45916 0.0
C1407 C 0.5709 0.95438 0.43046 0.0
C1408 C 0.58257 0.97351 0.43445 0.0
C1409 C 0.60925 0.0298 0.44234 0.0
C1410 C 0.60145 0.01043 0.44043 0.0
H1411 H 0.56139 0.91436 0.45228 0.0
H1412 H 0.58159 0.94606 0.45851 0.0
H1413 H 0.57542 0.9726 0.47072 0.0
H1414 H 0.59642 0.05987 0.45353 0.0
H1415 H 0.58545 0.02817 0.45606 0.0
C1416 C 0.45994 0.62242 0.94482 0.0
C1417 C 0.47458 0.63172 0.95956 0.0
C1418 C 0.44377 0.6095 0.95378 0.0
C1419 C 0.4172 0.59157 0.00687 0.0
H1420 H 0.39845 0.54674 0.97466 0.0
C1421 C 0.36474 0.52534 0.04731 0.0
C1422 C 0.35289 0.51181 0.03247 0.0
C1423 C 0.37807 0.54129 0.03815 0.0
C1424 C 0.4032 0.55921 0.98363 0.0
H1425 H 0.48345 0.63555 -0.00457 0.0
H1426 H 0.45501 0.61289 0.01115 0.0
H1427 H 0.42439 0.5726 0.95945 0.0
H1428 H 0.34496 0.50471 -0.00345 0.0
H1429 H 0.36779 0.53276 0.98055 0.0
H1430 H 0.39596 0.57816 0.03108 0.0
C1431 C 0.45615 0.61564 0.99265 0.0
C1432 C 0.41815 0.57403 0.97493 0.0
C1433 C 0.47242 0.62855 0.98365 0.0
C1434 C 0.35405 0.51484 0.00838 0.0
C1435 C 0.36722 0.53088 -0.00077 0.0
C1436 C 0.40207 0.57675 0.01547 0.0
C1437 C 0.44183 0.60566 0.97768 0.0
C1438 C 0.42539 0.59032 0.98654 0.0
C1439 C 0.37969 0.54414 0.01395 0.0
C1440 C 0.39498 0.56032 0.00407 0.0
H1441 H 0.46112 0.62466 0.92619 0.0
H1442 H 0.43287 0.60217 0.9419 0.0
H1443 H 0.42246 0.60402 0.01605 0.0
H1444 H 0.36421 0.52337 0.06597 0.0
H1445 H 0.38751 0.55106 0.05004 0.0
C1446 C 0.84523 0.36608 0.50118 0.0
C1447 C 0.83612 0.35646 0.52102 0.0
C1448 C 0.8418 0.37879 0.49178 0.0
C1449 C 0.82393 0.4074 0.50925 0.0
H1450 H 0.82993 0.41939 0.44367 0.0
C1451 C 0.82332 0.46141 0.4402 0.0
C1452 C 0.83289 0.4768 0.45357 0.0
C1453 C 0.82039 0.44512 0.44846 0.0
C1454 C 0.82789 0.41608 0.46199 0.0
H1455 H 0.81551 0.35177 0.54574 0.0
H1456 H 0.80912 0.37351 0.5289 0.0
H1457 H 0.83018 0.3931 0.45681 0.0
H1458 H 0.84632 0.4871 0.48647 0.0
H1459 H 0.84163 0.45887 0.50062 0.0
H1460 H 0.82136 0.43021 0.5144 0.0
C1461 C 0.81931 0.37169 0.52101 0.0
C1462 C 0.82831 0.40111 0.46958 0.0
C1463 C 0.82289 0.35914 0.53056 0.0
C1464 C 0.83886 0.47547 0.47576 0.0
C1465 C 0.83607 0.45923 0.48393 0.0
C1466 C 0.82335 0.42226 0.50164 0.0
C1467 C 0.82902 0.382 0.50185 0.0
C1468 C 0.82671 0.39679 0.49338 0.0
C1469 C 0.82708 0.44389 0.4702 0.0
C1470 C 0.82571 0.42702 0.47798 0.0
H1471 H 0.85553 0.36433 0.49348 0.0
H1472 H 0.84972 0.3866 0.47721 0.0
H1473 H 0.82284 0.40464 0.52774 0.0
H1474 H 0.81843 0.462 0.42309 0.0
H1475 H 0.81312 0.43354 0.43762 0.0
C1476 C 0.35048 0.84146 0.98762 0.0
C1477 C 0.34814 0.83937 0.96342 0.0
C1478 C 0.36324 0.83892 -0.00128 0.0
C1479 C 0.39396 0.82143 0.98935 0.0
H1480 H 0.42118 0.85522 0.0376 0.0
C1481 C 0.46445 0.83907 0.0168 0.0
C1482 C 0.46819 0.84062 0.04074 0.0
C1483 C 0.44817 0.83624 0.0088 0.0
C1484 C 0.41355 0.84554 0.02437 0.0
H1485 H 0.35702 0.83256 0.93191 0.0
H1486 H 0.37961 0.82874 0.95101 0.0
H1487 H 0.39558 0.85518 0.02112 0.0
H1488 H 0.45767 0.84001 0.07514 0.0
H1489 H 0.42932 0.83537 0.0611 0.0
H1490 H 0.41261 0.81245 0.99198 0.0
C1491 C 0.37135 0.83189 0.96164 0.0
C1492 C 0.3988 0.84544 0.01496 0.0
C1493 C 0.35845 0.8342 0.95062 0.0
C1494 C 0.45517 0.83886 0.05658 0.0
C1495 C 0.43899 0.83628 0.04857 0.0
C1496 C 0.40886 0.82171 -0.00144 0.0
C1497 C 0.37411 0.83446 0.9858 0.0
C1498 C 0.38892 0.83352 -0.00287 0.0
C1499 C 0.43541 0.83515 0.0246 0.0
C1500 C 0.41889 0.83389 0.01598 0.0
H1501 H 0.34261 0.84531 -0.00205 0.0
H1502 H 0.36471 0.84067 0.01741 0.0
H1503 H 0.38648 0.81182 0.97599 0.0
H1504 H 0.47422 0.84034 0.0042 0.0
H1505 H 0.44579 0.83555 0.99022 0.0
C1506 C 0.50976 0.36343 0.48081 0.0
C1507 C 0.50821 0.35958 0.45689 0.0
C1508 C 0.5259 0.3763 0.49016 0.0
C1509 C 0.56531 0.41692 0.47325 0.0
H1510 H 0.58524 0.41183 0.53099 0.0
C1511 C 0.62905 0.47501 0.50982 0.0
C1512 C 0.62944 0.47783 0.53391 0.0
C1513 C 0.61598 0.45917 0.50005 0.0
C1514 C 0.57978 0.41353 0.51495 0.0
H1515 H 0.52248 0.36572 0.42416 0.0
H1516 H 0.55051 0.38829 0.44046 0.0
H1517 H 0.5587 0.38656 0.51508 0.0
H1518 H 0.61685 0.46607 0.5668 0.0
H1519 H 0.59375 0.4388 0.54979 0.0
H1520 H 0.58569 0.44396 0.47344 0.0
C1521 C 0.53926 0.38139 0.45194 0.0
C1522 C 0.56462 0.39903 0.50583 0.0
C1523 C 0.52322 0.36842 0.44266 0.0
C1524 C 0.61693 0.46427 0.54815 0.0
C1525 C 0.60372 0.44855 0.53837 0.0
C1526 C 0.58028 0.43145 0.48249 0.0
C1527 C 0.54068 0.38566 0.47569 0.0
C1528 C 0.5572 0.40064 0.48496 0.0
C1529 C 0.60285 0.44592 0.51414 0.0
C1530 C 0.58767 0.43001 0.50355 0.0
H1531 H 0.49843 0.35679 0.49221 0.0
H1532 H 0.52663 0.37942 0.50852 0.0
H1533 H 0.55971 0.41859 0.45729 0.0
H1534 H 0.63864 0.48517 0.49845 0.0
H1535 H 0.616 0.45746 0.48138 0.0
C1536 C 0.14851 0.52979 0.93059 0.0
C1537 C 0.14655 0.51671 0.94652 0.0
C1538 C 0.15115 0.54603 0.93846 0.0
C1539 C 0.16527 0.57632 0.98825 0.0
H1540 H 0.13164 0.58914 0.965 0.0
C1541 C 0.15134 0.62574 0.03594 0.0
C1542 C 0.14596 0.63594 0.02322 0.0
C1543 C 0.15412 0.61318 0.02482 0.0
C1544 C 0.14142 0.58606 0.97134 0.0
H1545 H 0.14663 0.51069 0.98312 0.0
H1546 H 0.15152 0.53928 -0.00312 0.0
H1547 H 0.13196 0.5636 0.94885 0.0
H1548 H 0.14019 0.64166 0.98869 0.0
H1549 H 0.14562 0.62008 0.96903 0.0
H1550 H 0.17483 0.59878 0.01067 0.0
C1551 C 0.15093 0.53687 0.97832 0.0
C1552 C 0.14153 0.57134 0.96213 0.0
C1553 C 0.14805 0.5205 0.97045 0.0
C1554 C 0.14418 0.63387 -0.00104 0.0
C1555 C 0.14718 0.62142 0.98775 0.0
C1556 C 0.16535 0.5912 -0.00276 0.0
C1557 C 0.15213 0.54963 0.9624 0.0
C1558 C 0.15322 0.56615 0.9708 0.0
C1559 C 0.15183 0.61065 0.00061 0.0
C1560 C 0.15317 0.59606 0.98925 0.0
H1561 H 0.14743 0.52727 0.91203 0.0
H1562 H 0.15217 0.55571 0.92585 0.0
H1563 H 0.17455 0.57268 -0.00497 0.0
H1564 H 0.15278 0.62697 0.05469 0.0
H1565 H 0.15738 0.60498 0.03541 0.0
C1566 C 0.52156 0.15251 0.55023 0.0
C1567 C 0.50868 0.15183 0.535 0.0
C1568 C 0.53731 0.15439 0.54157 0.0
C1569 C 0.55545 0.14704 0.4873 0.0
H1570 H 0.59975 0.1706 0.52111 0.0
C1571 C 0.61871 0.15422 0.44838 0.0
C1572 C 0.62767 0.14804 0.46234 0.0
C1573 C 0.60573 0.15708 0.45787 0.0
C1574 C 0.58743 0.16394 0.51157 0.0
H1575 H 0.5026 0.15365 0.49891 0.0
H1576 H 0.53035 0.15762 0.48378 0.0
H1577 H 0.57422 0.17186 0.53593 0.0
H1578 H 0.63075 0.14101 0.49753 0.0
H1579 H 0.60797 0.14618 0.51425 0.0
H1580 H 0.5687 0.13929 0.46287 0.0
C1581 C 0.52808 0.15608 0.50238 0.0
C1582 C 0.57279 0.1646 0.52005 0.0
C1583 C 0.51222 0.15394 0.51103 0.0
C1584 C 0.62402 0.14571 0.48633 0.0
C1585 C 0.61105 0.14872 0.4959 0.0
C1586 C 0.5701 0.14658 0.47873 0.0
C1587 C 0.54064 0.15586 0.51748 0.0
C1588 C 0.55658 0.15607 0.50806 0.0
C1589 C 0.60147 0.15396 0.48159 0.0
C1590 C 0.5862 0.15496 0.49079 0.0
H1591 H 0.51919 0.15087 0.56882 0.0
H1592 H 0.54652 0.15396 0.55373 0.0
H1593 H 0.54313 0.13992 0.47788 0.0
H1594 H 0.62131 0.15631 0.42987 0.0
H1595 H 0.59872 0.16138 0.44653 0.0
C1596 C 0.51995 0.36509 0.04389 0.0
C1597 C 0.50573 0.35358 0.02969 0.0
C1598 C 0.53576 0.37806 0.034 0.0
C1599 C 0.55265 0.40328 0.9793 0.0
H1600 H 0.59813 0.42052 0.00905 0.0
C1601 C 0.61613 0.45956 0.93943 0.0
C1602 C 0.62643 0.47361 0.95465 0.0
C1603 C 0.60276 0.44345 0.94805 0.0
C1604 C 0.5855 0.41583 0.0006 0.0
H1605 H 0.49722 0.34593 -0.00596 0.0
H1606 H 0.525 0.36818 0.97674 0.0
H1607 H 0.57218 0.39443 0.02465 0.0
H1608 H 0.63142 0.48147 0.99091 0.0
H1609 H 0.60806 0.45318 0.006 0.0
H1610 H 0.56597 0.42468 0.95531 0.0
C1611 C 0.52379 0.36758 -0.00448 0.0
C1612 C 0.57062 0.40093 0.00955 0.0
C1613 C 0.5079 0.35474 0.00542 0.0
C1614 C 0.62366 0.47091 0.97876 0.0
C1615 C 0.61035 0.4547 0.9874 0.0
C1616 C 0.56753 0.41803 0.97025 0.0
C1617 C 0.53778 0.37968 0.00968 0.0
C1618 C 0.55394 0.39461 -0.00082 0.0
C1619 C 0.5995 0.44096 0.97208 0.0
C1620 C 0.58406 0.42458 0.98095 0.0
H1621 H 0.51866 0.36456 0.06267 0.0
H1622 H 0.54611 0.38725 0.04548 0.0
H1623 H 0.54002 0.39908 0.97112 0.0
H1624 H 0.61798 0.46119 0.92076 0.0
H1625 H 0.59474 0.43301 0.93587 0.0
C1626 C 0.13723 0.62462 0.4815 0.0
C1627 C 0.14408 0.6325 0.45979 0.0
C1628 C 0.13918 0.61058 0.4893 0.0
C1629 C 0.16397 0.5874 0.48291 0.0
H1630 H 0.11948 0.54566 0.49861 0.0
C1631 C 0.15602 0.52479 0.52958 0.0
C1632 C 0.14301 0.50839 0.52071 0.0
C1633 C 0.15818 0.54053 0.52033 0.0
C1634 C 0.13198 0.55718 0.49414 0.0
H1635 H 0.15936 0.63267 0.42999 0.0
H1636 H 0.16306 0.60829 0.44394 0.0
H1637 H 0.11997 0.57289 0.48779 0.0
H1638 H 0.12262 0.49562 0.49449 0.0
H1639 H 0.1262 0.52316 0.47862 0.0
H1640 H 0.17597 0.57164 0.48967 0.0
C1641 C 0.15605 0.61291 0.45474 0.0
C1642 C 0.13229 0.57279 0.48821 0.0
C1643 C 0.15389 0.6268 0.44675 0.0
C1644 C 0.13274 0.50805 0.50172 0.0
C1645 C 0.13472 0.52378 0.49271 0.0
C1646 C 0.1637 0.57182 0.48926 0.0
C1647 C 0.14824 0.60433 0.47573 0.0
C1648 C 0.14826 0.58804 0.48255 0.0
C1649 C 0.14719 0.54013 0.50228 0.0
C1650 C 0.14767 0.55656 0.49482 0.0
H1651 H 0.12964 0.62873 0.49197 0.0
H1652 H 0.1332 0.60427 0.50568 0.0
H1653 H 0.17644 0.59901 0.47858 0.0
H1654 H 0.16417 0.52545 0.54417 0.0
H1655 H 0.16783 0.55297 0.52806 0.0
C1656 C 0.6256 0.14688 0.00673 0.0
C1657 C 0.6282 0.14722 0.03092 0.0
C1658 C 0.61234 0.14964 -0.00235 0.0
C1659 C 0.56932 0.14267 0.01377 0.0
H1660 H 0.57426 0.1726 0.9612 0.0
C1661 C 0.50987 0.14713 0.98058 0.0
C1662 C 0.50799 0.14749 0.95636 0.0
C1663 C 0.52564 0.14968 0.99018 0.0
C1664 C 0.5726 0.16403 0.97575 0.0
H1665 H 0.61962 0.15168 0.06442 0.0
H1666 H 0.59647 0.15626 0.04856 0.0
H1667 H 0.60018 0.17228 0.97634 0.0
H1668 H 0.52123 0.1512 0.92319 0.0
H1669 H 0.54841 0.15497 0.93979 0.0
H1670 H 0.54178 0.13375 0.01278 0.0
C1671 C 0.60457 0.15376 0.03667 0.0
C1672 C 0.58747 0.16392 0.98443 0.0
C1673 C 0.61787 0.15118 0.04571 0.0
C1674 C 0.52232 0.15092 0.94196 0.0
C1675 C 0.53797 0.1532 0.95151 0.0
C1676 C 0.55445 0.14258 0.00493 0.0
C1677 C 0.60142 0.15262 0.01263 0.0
C1678 C 0.58593 0.15323 0.00352 0.0
C1679 C 0.53976 0.15235 0.97574 0.0
C1680 C 0.55586 0.15322 0.98576 0.0
H1681 H 0.63339 0.14392 -0.00509 0.0
H1682 H 0.61012 0.14866 0.97902 0.0
H1683 H 0.56773 0.13409 0.0283 0.0
H1684 H 0.49909 0.14468 0.9921 0.0
H1685 H 0.52666 0.14935 0.00894 0.0
C1686 C 0.45625 0.6205 0.54913 0.0
C1687 C 0.47042 0.63091 0.53415 0.0
C1688 C 0.44016 0.60737 0.54022 0.0
C1689 C 0.41244 0.59089 0.48805 0.0
H1690 H 0.39667 0.54477 0.51529 0.0
C1691 C 0.361 0.52618 0.44362 0.0
C1692 C 0.35002 0.51149 0.45752 0.0
C1693 C 0.37413 0.54179 0.45374 0.0
C1694 C 0.40058 0.55756 0.50776 0.0
H1695 H 0.4785 0.63644 0.49801 0.0
H1696 H 0.45016 0.61349 0.48237 0.0
H1697 H 0.42228 0.57057 0.53133 0.0
H1698 H 0.34349 0.5019 0.49295 0.0
H1699 H 0.36595 0.52937 0.51077 0.0
H1700 H 0.39066 0.57793 0.46455 0.0
C1701 C 0.45162 0.61551 0.50103 0.0
C1702 C 0.41535 0.57235 0.51692 0.0
C1703 C 0.46784 0.62858 0.50997 0.0
C1704 C 0.35189 0.51297 0.48181 0.0
C1705 C 0.36486 0.52868 0.49197 0.0
C1706 C 0.39748 0.5761 0.47905 0.0
C1707 C 0.43782 0.60448 0.51613 0.0
C1708 C 0.42153 0.58912 0.50701 0.0
C1709 C 0.37643 0.54316 0.47804 0.0
C1710 C 0.39148 0.55919 0.48862 0.0
H1711 H 0.45777 0.62202 0.56785 0.0
H1712 H 0.42965 0.59918 0.55221 0.0
H1713 H 0.41688 0.60371 0.48023 0.0
H1714 H 0.35992 0.52543 0.42482 0.0
H1715 H 0.38289 0.55251 0.44239 0.0
C1716 C 0.83416 0.35892 0.97362 0.0
C1717 C 0.83641 0.35847 0.9495 0.0
C1718 C 0.83108 0.37174 0.9834 0.0
C1719 C 0.82025 0.40691 0.96864 0.0
H1720 H 0.84512 0.42742 0.02635 0.0
C1721 C 0.83821 0.47626 0.00351 0.0
C1722 C 0.83573 0.47754 0.02744 0.0
C1723 C 0.83537 0.46033 -0.00604 0.0
C1724 C 0.83792 0.42168 0.01038 0.0
H1725 H 0.83668 0.37073 0.91657 0.0
H1726 H 0.832 0.39349 0.93361 0.0
H1727 H 0.84551 0.40204 0.00994 0.0
H1728 H 0.82768 0.46296 0.05998 0.0
H1729 H 0.82298 0.43529 0.04334 0.0
H1730 H 0.81344 0.4273 0.96876 0.0
C1731 C 0.83214 0.38372 0.94504 0.0
C1732 C 0.83805 0.40705 0.00099 0.0
C1733 C 0.83493 0.37072 0.93524 0.0
C1734 C 0.82977 0.46243 0.04148 0.0
C1735 C 0.82713 0.4466 0.032 0.0
C1736 C 0.82034 0.42174 0.9779 0.0
C1737 C 0.83049 0.38461 0.9693 0.0
C1738 C 0.8293 0.39951 0.97992 0.0
C1739 C 0.8302 0.44549 0.00825 0.0
C1740 C 0.82924 0.42929 -0.00119 0.0
H1741 H 0.83505 0.34951 0.98499 0.0
H1742 H 0.82944 0.37172 0.00208 0.0
H1743 H 0.81313 0.40131 0.95259 0.0
H1744 H 0.84275 0.48767 0.99226 0.0
H1745 H 0.83792 0.45983 0.97561 0.0
C1746 C 0.46903 0.84308 0.48081 0.0
C1747 C 0.47083 0.84128 0.45682 0.0
C1748 C 0.45312 0.84062 0.48983 0.0
C1749 C 0.41534 0.84469 0.47295 0.0
H1750 H 0.39322 0.81756 0.52871 0.0
C1751 C 0.35144 0.83927 0.50794 0.0
C1752 C 0.35026 0.84058 0.53215 0.0
C1753 C 0.36461 0.83668 0.49831 0.0
C1754 C 0.39931 0.82534 0.51324 0.0
H1755 H 0.45727 0.83505 0.42355 0.0
H1756 H 0.42963 0.831 0.43929 0.0
H1757 H 0.41955 0.81836 0.51311 0.0
H1758 H 0.36158 0.83966 0.56533 0.0
H1759 H 0.38488 0.83576 0.54859 0.0
H1760 H 0.39575 0.85235 0.47342 0.0
C1761 C 0.44051 0.83432 0.45108 0.0
C1762 C 0.41435 0.82573 0.5043 0.0
C1763 C 0.45631 0.83657 0.44211 0.0
C1764 C 0.36211 0.83863 0.54659 0.0
C1765 C 0.37544 0.83629 0.53696 0.0
C1766 C 0.40048 0.8445 0.48202 0.0
C1767 C 0.43883 0.83651 0.47497 0.0
C1768 C 0.42253 0.83546 0.48412 0.0
C1769 C 0.37707 0.83561 0.51266 0.0
C1770 C 0.39229 0.83489 0.50236 0.0
H1771 H 0.47999 0.84666 0.49256 0.0
H1772 H 0.45219 0.8425 0.5083 0.0
H1773 H 0.42154 0.85251 0.45754 0.0
H1774 H 0.34236 0.84056 0.49641 0.0
H1775 H 0.36517 0.83579 0.47956 0.0
loop_
_geom_bond_atom_site_label_1
_geom_bond_atom_site_label_2
_geom_bond_distance
_geom_bond_site_symmetry_2
_ccdc_geom_bond_type
C0 O1 1.306 . S
C0 O3 1.160 . S
O1 C0 1.306 . S
O1 Cd2 2.228 . S
Cd2 O1 2.228 . S
Cd2 O6 2.273 . S
Cd2 O10 2.277 . S
O3 C0 1.160 . S
O3 Cd4 2.203 . S
Cd4 O3 2.203 . S
Cd4 O6 2.411 . S
Cd4 O7 2.333 . S
Cd4 O8 2.352 . S
Cd4 O12 2.277 . S
Cd4 O13 2.356 . S
C5 O10 1.209 . S
C5 O12 1.226 . S
O6 Cd2 2.273 . S
O6 Cd4 2.411 . S
O6 C9 1.320 . S
O7 Cd4 2.333 . S
O7 C9 1.214 . S
O8 Cd4 2.352 . S
O8 C11 1.258 . S
C9 O6 1.320 . S
C9 O7 1.214 . S
O10 Cd2 2.277 . S
O10 C5 1.209 . S
C11 O8 1.258 . S
C11 O13 1.282 . S
O12 Cd4 2.277 . S
O12 C5 1.226 . S
O13 Cd4 2.356 . S
O13 C11 1.282 . S
C14 O15 1.306 . S
C14 O17 1.160 . S
O15 C14 1.306 . S
O15 Cd16 2.228 . S
Cd16 O15 2.228 . S
Cd16 O20 2.273 . S
Cd16 O24 2.277 . S
O17 C14 1.160 . S
O17 Cd18 2.203 . S
Cd18 O17 2.203 . S
Cd18 O20 2.411 . S
Cd18 O21 2.333 . S
Cd18 O22 2.352 . S
Cd18 O26 2.277 . S
Cd18 O27 2.356 . S
C19 O24 1.209 . S
C19 O26 1.226 . S
O20 Cd16 2.273 . S
O20 Cd18 2.411 . S
O20 C23 1.320 . S
O21 Cd18 2.333 . S
O21 C23 1.214 . S
O22 Cd18 2.352 . S
O22 C25 1.258 . S
C23 O20 1.320 . S
C23 O21 1.214 . S
O24 Cd16 2.277 . S
O24 C19 1.209 . S
C25 O22 1.258 . S
C25 O27 1.282 . S
O26 Cd18 2.277 . S
O26 C19 1.226 . S
O27 Cd18 2.356 . S
O27 C25 1.282 . S
C28 O29 1.306 . S
C28 O31 1.160 . S
O29 C28 1.306 . S
O29 Cd30 2.228 . S
Cd30 O29 2.228 . S
Cd30 O34 2.273 . S
Cd30 O38 2.277 . S
O31 C28 1.160 . S
O31 Cd32 2.203 . S
Cd32 O31 2.203 . S
Cd32 O34 2.411 . S
Cd32 O35 2.333 . S
Cd32 O36 2.352 . S
Cd32 O40 2.277 . S
Cd32 O41 2.356 . S
C33 O38 1.209 . S
C33 O40 1.226 . S
O34 Cd30 2.273 . S
O34 Cd32 2.411 . S
O34 C37 1.320 . S
O35 Cd32 2.333 . S
O35 C37 1.214 . S
O36 Cd32 2.352 . S
O36 C39 1.258 . S
C37 O34 1.320 . S
C37 O35 1.214 . S
O38 Cd30 2.277 . S
O38 C33 1.209 . S
C39 O36 1.258 . S
C39 O41 1.282 . S
O40 Cd32 2.277 . S
O40 C33 1.226 . S
O41 Cd32 2.356 . S
O41 C39 1.282 . S
C42 O43 1.306 . S
C42 O45 1.160 . S
O43 C42 1.306 . S
O43 Cd44 2.228 . S
Cd44 O43 2.228 . S
Cd44 O48 2.273 . S
Cd44 O52 2.277 . S
O45 C42 1.160 . S
O45 Cd46 2.203 . S
Cd46 O45 2.203 . S
Cd46 O48 2.411 . S
Cd46 O49 2.333 . S
Cd46 O50 2.352 . S
Cd46 O54 2.277 . S
Cd46 O55 2.356 . S
C47 O52 1.209 . S
C47 O54 1.226 . S
O48 Cd44 2.273 . S
O48 Cd46 2.411 . S
O48 C51 1.320 . S
O49 Cd46 2.333 . S
O49 C51 1.214 . S
O50 Cd46 2.352 . S
O50 C53 1.258 . S
C51 O48 1.320 . S
C51 O49 1.214 . S
O52 Cd44 2.277 . S
O52 C47 1.209 . S
C53 O50 1.258 . S
C53 O55 1.282 . S
O54 Cd46 2.277 . S
O54 C47 1.226 . S
O55 Cd46 2.356 . S
O55 C53 1.282 . S
C56 O57 1.306 . S
C56 O59 1.160 . S
O57 C56 1.306 . S
O57 Cd58 2.228 . S
Cd58 O57 2.228 . S
Cd58 O62 2.273 . S
Cd58 O66 2.277 . S
O59 C56 1.160 . S
O59 Cd60 2.203 . S
Cd60 O59 2.203 . S
Cd60 O62 2.411 . S
Cd60 O63 2.333 . S
Cd60 O64 2.352 . S
Cd60 O68 2.277 . S
Cd60 O69 2.356 . S
C61 O66 1.209 . S
C61 O68 1.226 . S
O62 Cd58 2.273 . S
O62 Cd60 2.411 . S
O62 C65 1.320 . S
O63 Cd60 2.333 . S
O63 C65 1.214 . S
O64 Cd60 2.352 . S
O64 C67 1.258 . S
C65 O62 1.320 . S
C65 O63 1.214 . S
O66 Cd58 2.277 . S
O66 C61 1.209 . S
C67 O64 1.258 . S
C67 O69 1.282 . S
O68 Cd60 2.277 . S
O68 C61 1.226 . S
O69 Cd60 2.356 . S
O69 C67 1.282 . S
C70 O71 1.306 . S
C70 O73 1.160 . S
O71 C70 1.306 . S
O71 Cd72 2.228 . S
Cd72 O71 2.228 . S
Cd72 O76 2.273 . S
Cd72 O80 2.277 . S
O73 C70 1.160 . S
O73 Cd74 2.203 . S
Cd74 O73 2.203 . S
Cd74 O76 2.411 . S
Cd74 O77 2.333 . S
Cd74 O78 2.352 . S
Cd74 O82 2.277 . S
Cd74 O83 2.356 . S
C75 O80 1.209 . S
C75 O82 1.226 . S
O76 Cd72 2.273 . S
O76 Cd74 2.411 . S
O76 C79 1.320 . S
O77 Cd74 2.333 . S
O77 C79 1.214 . S
O78 Cd74 2.352 . S
O78 C81 1.258 . S
C79 O76 1.320 . S
C79 O77 1.214 . S
O80 Cd72 2.277 . S
O80 C75 1.209 . S
C81 O78 1.258 . S
C81 O83 1.282 . S
O82 Cd74 2.277 . S
O82 C75 1.226 . S
O83 Cd74 2.356 . S
O83 C81 1.282 . S
C84 O85 1.306 . S
C84 O87 1.160 . S
O85 C84 1.306 . S
O85 Cd86 2.228 . S
Cd86 O85 2.228 . S
Cd86 O90 2.273 . S
Cd86 O94 2.277 . S
O87 C84 1.160 . S
O87 Cd88 2.203 . S
Cd88 O87 2.203 . S
Cd88 O90 2.411 . S
Cd88 O91 2.333 . S
Cd88 O92 2.352 . S
Cd88 O96 2.277 . S
Cd88 O97 2.356 . S
C89 O94 1.209 . S
C89 O96 1.226 . S
O90 Cd86 2.273 . S
O90 Cd88 2.411 . S
O90 C93 1.320 . S
O91 Cd88 2.333 . S
O91 C93 1.214 . S
O92 Cd88 2.352 . S
O92 C95 1.258 . S
C93 O90 1.320 . S
C93 O91 1.214 . S
O94 Cd86 2.277 . S
O94 C89 1.209 . S
C95 O92 1.258 . S
C95 O97 1.282 . S
O96 Cd88 2.277 . S
O96 C89 1.226 . S
O97 Cd88 2.356 . S
O97 C95 1.282 . S
C98 O99 1.306 . S
C98 O101 1.160 . S
O99 C98 1.306 . S
O99 Cd100 2.228 . S
Cd100 O99 2.228 . S
Cd100 O104 2.273 . S
Cd100 O108 2.277 . S
O101 C98 1.160 . S
O101 Cd102 2.203 . S
Cd102 O101 2.203 . S
Cd102 O104 2.411 . S
Cd102 O105 2.333 . S
Cd102 O106 2.352 . S
Cd102 O110 2.277 . S
Cd102 O111 2.356 . S
C103 O108 1.209 . S
C103 O110 1.226 . S
O104 Cd100 2.273 . S
O104 Cd102 2.411 . S
O104 C107 1.320 . S
O105 Cd102 2.333 . S
O105 C107 1.214 . S
O106 Cd102 2.352 . S
O106 C109 1.258 . S
C107 O104 1.320 . S
C107 O105 1.214 . S
O108 Cd100 2.277 . S
O108 C103 1.209 . S
C109 O106 1.258 . S
C109 O111 1.282 . S
O110 Cd102 2.277 . S
O110 C103 1.226 . S
O111 Cd102 2.356 . S
O111 C109 1.282 . S
C112 O113 1.306 . S
C112 O115 1.160 . S
O113 C112 1.306 . S
O113 Cd114 2.228 . S
Cd114 O113 2.228 . S
Cd114 O118 2.273 . S
Cd114 O122 2.277 . S
O115 C112 1.160 . S
O115 Cd116 2.203 . S
Cd116 O115 2.203 . S
Cd116 O118 2.411 . S
Cd116 O119 2.333 . S
Cd116 O120 2.352 . S
Cd116 O124 2.277 . S
Cd116 O125 2.356 . S
C117 O122 1.209 . S
C117 O124 1.226 . S
O118 Cd114 2.273 . S
O118 Cd116 2.411 . S
O118 C121 1.320 . S
O119 Cd116 2.333 . S
O119 C121 1.214 . S
O120 Cd116 2.352 . S
O120 C123 1.258 . S
C121 O118 1.320 . S
C121 O119 1.214 . S
O122 Cd114 2.277 . S
O122 C117 1.209 . S
C123 O120 1.258 . S
C123 O125 1.282 . S
O124 Cd116 2.277 . S
O124 C117 1.226 . S
O125 Cd116 2.356 . S
O125 C123 1.282 . S
C126 O127 1.306 . S
C126 O129 1.160 . S
O127 C126 1.306 . S
O127 Cd128 2.228 . S
Cd128 O127 2.228 . S
Cd128 O132 2.273 . S
Cd128 O136 2.277 . S
O129 C126 1.160 . S
O129 Cd130 2.203 . S
Cd130 O129 2.203 . S
Cd130 O132 2.411 . S
Cd130 O133 2.333 . S
Cd130 O134 2.352 . S
Cd130 O138 2.277 . S
Cd130 O139 2.356 . S
C131 O136 1.209 . S
C131 O138 1.226 . S
O132 Cd128 2.273 . S
O132 Cd130 2.411 . S
O132 C135 1.320 . S
O133 Cd130 2.333 . S
O133 C135 1.214 . S
O134 Cd130 2.352 . S
O134 C137 1.258 . S
C135 O132 1.320 . S
C135 O133 1.214 . S
O136 Cd128 2.277 . S
O136 C131 1.209 . S
C137 O134 1.258 . S
C137 O139 1.282 . S
O138 Cd130 2.277 . S
O138 C131 1.226 . S
O139 Cd130 2.356 . S
O139 C137 1.282 . S
C140 O141 1.306 . S
C140 O143 1.160 . S
O141 C140 1.306 . S
O141 Cd142 2.228 . S
Cd142 O141 2.228 . S
Cd142 O146 2.273 . S
Cd142 O150 2.277 . S
O143 C140 1.160 . S
O143 Cd144 2.203 . S
Cd144 O143 2.203 . S
Cd144 O146 2.411 . S
Cd144 O147 2.333 . S
Cd144 O148 2.352 . S
Cd144 O152 2.277 . S
Cd144 O153 2.356 . S
C145 O150 1.209 . S
C145 O152 1.226 . S
O146 Cd142 2.273 . S
O146 Cd144 2.411 . S
O146 C149 1.320 . S
O147 Cd144 2.333 . S
O147 C149 1.214 . S
O148 Cd144 2.352 . S
O148 C151 1.258 . S
C149 O146 1.320 . S
C149 O147 1.214 . S
O150 Cd142 2.277 . S
O150 C145 1.209 . S
C151 O148 1.258 . S
C151 O153 1.282 . S
O152 Cd144 2.277 . S
O152 C145 1.226 . S
O153 Cd144 2.356 . S
O153 C151 1.282 . S
C154 O155 1.306 . S
C154 O157 1.160 . S
O155 C154 1.306 . S
O155 Cd156 2.228 . S
Cd156 O155 2.228 . S
Cd156 O160 2.273 . S
Cd156 O164 2.277 . S
O157 C154 1.160 . S
O157 Cd158 2.203 . S
Cd158 O157 2.203 . S
Cd158 O160 2.411 . S
Cd158 O161 2.333 . S
Cd158 O162 2.352 . S
Cd158 O166 2.277 . S
Cd158 O167 2.356 . S
C159 O164 1.209 . S
C159 O166 1.226 . S
O160 Cd156 2.273 . S
O160 Cd158 2.411 . S
O160 C163 1.320 . S
O161 Cd158 2.333 . S
O161 C163 1.214 . S
O162 Cd158 2.352 . S
O162 C165 1.258 . S
C163 O160 1.320 . S
C163 O161 1.214 . S
O164 Cd156 2.277 . S
O164 C159 1.209 . S
C165 O162 1.258 . S
C165 O167 1.282 . S
O166 Cd158 2.277 . S
O166 C159 1.226 . S
O167 Cd158 2.356 . S
O167 C165 1.282 . S
C168 O169 1.306 . S
C168 O171 1.160 . S
O169 C168 1.306 . S
O169 Cd170 2.228 . S
Cd170 O169 2.228 . S
Cd170 O174 2.273 . S
Cd170 O178 2.277 . S
O171 C168 1.160 . S
O171 Cd172 2.203 . S
Cd172 O171 2.203 . S
Cd172 O174 2.411 . S
Cd172 O175 2.333 . S
Cd172 O176 2.352 . S
Cd172 O180 2.277 . S
Cd172 O181 2.356 . S
C173 O178 1.209 . S
C173 O180 1.226 . S
O174 Cd170 2.273 . S
O174 Cd172 2.411 . S
O174 C177 1.320 . S
O175 Cd172 2.333 . S
O175 C177 1.214 . S
O176 Cd172 2.352 . S
O176 C179 1.258 . S
C177 O174 1.320 . S
C177 O175 1.214 . S
O178 Cd170 2.277 . S
O178 C173 1.209 . S
C179 O176 1.258 . S
C179 O181 1.282 . S
O180 Cd172 2.277 . S
O180 C173 1.226 . S
O181 Cd172 2.356 . S
O181 C179 1.282 . S
C182 O183 1.306 . S
C182 O185 1.160 . S
O183 C182 1.306 . S
O183 Cd184 2.228 . S
Cd184 O183 2.228 . S
Cd184 O188 2.273 . S
Cd184 O192 2.277 . S
O185 C182 1.160 . S
O185 Cd186 2.203 . S
Cd186 O185 2.203 . S
Cd186 O188 2.411 . S
Cd186 O189 2.333 . S
Cd186 O190 2.352 . S
Cd186 O194 2.277 . S
Cd186 O195 2.356 . S
C187 O192 1.209 . S
C187 O194 1.226 . S
O188 Cd184 2.273 . S
O188 Cd186 2.411 . S
O188 C191 1.320 . S
O189 Cd186 2.333 . S
O189 C191 1.214 . S
O190 Cd186 2.352 . S
O190 C193 1.258 . S
C191 O188 1.320 . S
C191 O189 1.214 . S
O192 Cd184 2.277 . S
O192 C187 1.209 . S
C193 O190 1.258 . S
C193 O195 1.282 . S
O194 Cd186 2.277 . S
O194 C187 1.226 . S
O195 Cd186 2.356 . S
O195 C193 1.282 . S
C196 O197 1.306 . S
C196 O199 1.160 . S
O197 C196 1.306 . S
O197 Cd198 2.228 . S
Cd198 O197 2.228 . S
Cd198 O202 2.273 . S
Cd198 O206 2.277 . S
O199 C196 1.160 . S
O199 Cd200 2.203 . S
Cd200 O199 2.203 . S
Cd200 O202 2.411 . S
Cd200 O203 2.333 . S
Cd200 O204 2.352 . S
Cd200 O208 2.277 . S
Cd200 O209 2.356 . S
C201 O206 1.209 . S
C201 O208 1.226 . S
O202 Cd198 2.273 . S
O202 Cd200 2.411 . S
O202 C205 1.320 . S
O203 Cd200 2.333 . S
O203 C205 1.214 . S
O204 Cd200 2.352 . S
O204 C207 1.258 . S
C205 O202 1.320 . S
C205 O203 1.214 . S
O206 Cd198 2.277 . S
O206 C201 1.209 . S
C207 O204 1.258 . S
C207 O209 1.282 . S
O208 Cd200 2.277 . S
O208 C201 1.226 . S
O209 Cd200 2.356 . S
O209 C207 1.282 . S
C210 O211 1.306 . S
C210 O213 1.160 . S
O211 C210 1.306 . S
O211 Cd212 2.228 . S
Cd212 O211 2.228 . S
Cd212 O216 2.273 . S
Cd212 O220 2.277 . S
O213 C210 1.160 . S
O213 Cd214 2.203 . S
Cd214 O213 2.203 . S
Cd214 O216 2.411 . S
Cd214 O217 2.333 . S
Cd214 O218 2.352 . S
Cd214 O222 2.277 . S
Cd214 O223 2.356 . S
C215 O220 1.209 . S
C215 O222 1.226 . S
O216 Cd212 2.273 . S
O216 Cd214 2.411 . S
O216 C219 1.320 . S
O217 Cd214 2.333 . S
O217 C219 1.214 . S
O218 Cd214 2.352 . S
O218 C221 1.258 . S
C219 O216 1.320 . S
C219 O217 1.214 . S
O220 Cd212 2.277 . S
O220 C215 1.209 . S
C221 O218 1.258 . S
C221 O223 1.282 . S
O222 Cd214 2.277 . S
O222 C215 1.226 . S
O223 Cd214 2.356 . S
O223 C221 1.282 . S
C224 O225 1.306 . S
C224 O227 1.160 . S
O225 C224 1.306 . S
O225 Cd226 2.228 . S
Cd226 O225 2.228 . S
Cd226 O230 2.273 . S
Cd226 O234 2.277 . S
O227 C224 1.160 . S
O227 Cd228 2.203 . S
Cd228 O227 2.203 . S
Cd228 O230 2.411 . S
Cd228 O231 2.333 . S
Cd228 O232 2.352 . S
Cd228 O236 2.277 . S
Cd228 O237 2.356 . S
C229 O234 1.209 . S
C229 O236 1.226 . S
O230 Cd226 2.273 . S
O230 Cd228 2.411 . S
O230 C233 1.320 . S
O231 Cd228 2.333 . S
O231 C233 1.214 . S
O232 Cd228 2.352 . S
O232 C235 1.258 . S
C233 O230 1.320 . S
C233 O231 1.214 . S
O234 Cd226 2.277 . S
O234 C229 1.209 . S
C235 O232 1.258 . S
C235 O237 1.282 . S
O236 Cd228 2.277 . S
O236 C229 1.226 . S
O237 Cd228 2.356 . S
O237 C235 1.282 . S
C238 O239 1.306 . S
C238 O241 1.160 . S
O239 C238 1.306 . S
O239 Cd240 2.228 . S
Cd240 O239 2.228 . S
Cd240 O244 2.273 . S
Cd240 O248 2.277 . S
O241 C238 1.160 . S
O241 Cd242 2.203 . S
Cd242 O241 2.203 . S
Cd242 O244 2.411 . S
Cd242 O245 2.333 . S
Cd242 O246 2.352 . S
Cd242 O250 2.277 . S
Cd242 O251 2.356 . S
C243 O248 1.209 . S
C243 O250 1.226 . S
O244 Cd240 2.273 . S
O244 Cd242 2.411 . S
O244 C247 1.320 . S
O245 Cd242 2.333 . S
O245 C247 1.214 . S
O246 Cd242 2.352 . S
O246 C249 1.258 . S
C247 O244 1.320 . S
C247 O245 1.214 . S
O248 Cd240 2.277 . S
O248 C243 1.209 . S
C249 O246 1.258 . S
C249 O251 1.282 . S
O250 Cd242 2.277 . S
O250 C243 1.226 . S
O251 Cd242 2.356 . S
O251 C249 1.282 . S
C252 O253 1.306 . S
C252 O255 1.160 . S
O253 C252 1.306 . S
O253 Cd254 2.228 . S
Cd254 O253 2.228 . S
Cd254 O258 2.273 . S
Cd254 O262 2.277 . S
O255 C252 1.160 . S
O255 Cd256 2.203 . S
Cd256 O255 2.203 . S
Cd256 O258 2.411 . S
Cd256 O259 2.333 . S
Cd256 O260 2.352 . S
Cd256 O264 2.277 . S
Cd256 O265 2.356 . S
C257 O262 1.209 . S
C257 O264 1.226 . S
O258 Cd254 2.273 . S
O258 Cd256 2.411 . S
O258 C261 1.320 . S
O259 Cd256 2.333 . S
O259 C261 1.214 . S
O260 Cd256 2.352 . S
O260 C263 1.258 . S
C261 O258 1.320 . S
C261 O259 1.214 . S
O262 Cd254 2.277 . S
O262 C257 1.209 . S
C263 O260 1.258 . S
C263 O265 1.282 . S
O264 Cd256 2.277 . S
O264 C257 1.226 . S
O265 Cd256 2.356 . S
O265 C263 1.282 . S
C266 O267 1.306 . S
C266 O269 1.160 . S
O267 C266 1.306 . S
O267 Cd268 2.228 . S
Cd268 O267 2.228 . S
Cd268 O272 2.273 . S
Cd268 O276 2.277 . S
O269 C266 1.160 . S
O269 Cd270 2.203 . S
Cd270 O269 2.203 . S
Cd270 O272 2.411 . S
Cd270 O273 2.333 . S
Cd270 O274 2.352 . S
Cd270 O278 2.277 . S
Cd270 O279 2.356 . S
C271 O276 1.209 . S
C271 O278 1.226 . S
O272 Cd268 2.273 . S
O272 Cd270 2.411 . S
O272 C275 1.320 . S
O273 Cd270 2.333 . S
O273 C275 1.214 . S
O274 Cd270 2.352 . S
O274 C277 1.258 . S
C275 O272 1.320 . S
C275 O273 1.214 . S
O276 Cd268 2.277 . S
O276 C271 1.209 . S
C277 O274 1.258 . S
C277 O279 1.282 . S
O278 Cd270 2.277 . S
O278 C271 1.226 . S
O279 Cd270 2.356 . S
O279 C277 1.282 . S
C280 O281 1.306 . S
C280 O283 1.160 . S
O281 C280 1.306 . S
O281 Cd282 2.228 . S
Cd282 O281 2.228 . S
Cd282 O286 2.273 . S
Cd282 O290 2.277 . S
O283 C280 1.160 . S
O283 Cd284 2.203 . S
Cd284 O283 2.203 . S
Cd284 O286 2.411 . S
Cd284 O287 2.333 . S
Cd284 O288 2.352 . S
Cd284 O292 2.277 . S
Cd284 O293 2.356 . S
C285 O290 1.209 . S
C285 O292 1.226 . S
O286 Cd282 2.273 . S
O286 Cd284 2.411 . S
O286 C289 1.320 . S
O287 Cd284 2.333 . S
O287 C289 1.214 . S
O288 Cd284 2.352 . S
O288 C291 1.258 . S
C289 O286 1.320 . S
C289 O287 1.214 . S
O290 Cd282 2.277 . S
O290 C285 1.209 . S
C291 O288 1.258 . S
C291 O293 1.282 . S
O292 Cd284 2.277 . S
O292 C285 1.226 . S
O293 Cd284 2.356 . S
O293 C291 1.282 . S
C294 O295 1.306 . S
C294 O297 1.160 . S
O295 C294 1.306 . S
O295 Cd296 2.228 . S
Cd296 O295 2.228 . S
Cd296 O300 2.273 . S
Cd296 O304 2.277 . S
O297 C294 1.160 . S
O297 Cd298 2.203 . S
Cd298 O297 2.203 . S
Cd298 O300 2.411 . S
Cd298 O301 2.333 . S
Cd298 O302 2.352 . S
Cd298 O306 2.277 . S
Cd298 O307 2.356 . S
C299 O304 1.209 . S
C299 O306 1.226 . S
O300 Cd296 2.273 . S
O300 Cd298 2.411 . S
O300 C303 1.320 . S
O301 Cd298 2.333 . S
O301 C303 1.214 . S
O302 Cd298 2.352 . S
O302 C305 1.258 . S
C303 O300 1.320 . S
C303 O301 1.214 . S
O304 Cd296 2.277 . S
O304 C299 1.209 . S
C305 O302 1.258 . S
C305 O307 1.282 . S
O306 Cd298 2.277 . S
O306 C299 1.226 . S
O307 Cd298 2.356 . S
O307 C305 1.282 . S
C308 O309 1.306 . S
C308 O311 1.160 . S
O309 C308 1.306 . S
O309 Cd310 2.228 . S
Cd310 O309 2.228 . S
Cd310 O314 2.273 . S
Cd310 O318 2.277 . S
O311 C308 1.160 . S
O311 Cd312 2.203 . S
Cd312 O311 2.203 . S
Cd312 O314 2.411 . S
Cd312 O315 2.333 . S
Cd312 O316 2.352 . S
Cd312 O320 2.277 . S
Cd312 O321 2.356 . S
C313 O318 1.209 . S
C313 O320 1.226 . S
O314 Cd310 2.273 . S
O314 Cd312 2.411 . S
O314 C317 1.320 . S
O315 Cd312 2.333 . S
O315 C317 1.214 . S
O316 Cd312 2.352 . S
O316 C319 1.258 . S
C317 O314 1.320 . S
C317 O315 1.214 . S
O318 Cd310 2.277 . S
O318 C313 1.209 . S
C319 O316 1.258 . S
C319 O321 1.282 . S
O320 Cd312 2.277 . S
O320 C313 1.226 . S
O321 Cd312 2.356 . S
O321 C319 1.282 . S
C322 O323 1.306 . S
C322 O325 1.160 . S
O323 C322 1.306 . S
O323 Cd324 2.228 . S
Cd324 O323 2.228 . S
Cd324 O328 2.273 . S
Cd324 O332 2.277 . S
O325 C322 1.160 . S
O325 Cd326 2.203 . S
Cd326 O325 2.203 . S
Cd326 O328 2.411 . S
Cd326 O329 2.333 . S
Cd326 O330 2.352 . S
Cd326 O334 2.277 . S
Cd326 O335 2.356 . S
C327 O332 1.209 . S
C327 O334 1.226 . S
O328 Cd324 2.273 . S
O328 Cd326 2.411 . S
O328 C331 1.320 . S
O329 Cd326 2.333 . S
O329 C331 1.214 . S
O330 Cd326 2.352 . S
O330 C333 1.258 . S
C331 O328 1.320 . S
C331 O329 1.214 . S
O332 Cd324 2.277 . S
O332 C327 1.209 . S
C333 O330 1.258 . S
C333 O335 1.282 . S
O334 Cd326 2.277 . S
O334 C327 1.226 . S
O335 Cd326 2.356 . S
O335 C333 1.282 . S
C336 C337 1.349 . S
C336 C338 1.327 . S
C336 H361 0.950 . S
C337 C336 1.349 . S
C337 C353 1.349 . S
C338 C336 1.327 . S
C338 C357 1.429 . S
C338 H362 0.950 . S
C339 C356 1.574 . S
C339 C358 1.368 . S
C339 H363 0.949 . S
H340 C344 0.949 . S
C341 C342 1.349 . S
C341 C343 1.327 . S
C341 H364 0.950 . S
C342 C341 1.349 . S
C342 C354 1.349 . S
C343 C341 1.327 . S
C343 C359 1.429 . S
C343 H365 0.950 . S
C344 H340 0.949 . S
C344 C352 1.574 . S
C344 C360 1.368 . S
H345 C353 0.950 . S
H346 C351 0.950 . S
H347 C352 0.949 . S
H348 C354 0.950 . S
H349 C355 0.950 . S
H350 C356 0.949 . S
C351 H346 0.950 . S
C351 C353 1.327 . S
C351 C357 1.429 . S
C352 C344 1.574 . S
C352 H347 0.949 . S
C352 C358 1.368 . S
C353 C337 1.349 . S
C353 H345 0.950 . S
C353 C351 1.327 . S
C354 C342 1.349 . S
C354 H348 0.950 . S
C354 C355 1.327 . S
C355 H349 0.950 . S
C355 C354 1.327 . S
C355 C359 1.429 . S
C356 C339 1.574 . S
C356 H350 0.949 . S
C356 C360 1.368 . S
C357 C338 1.429 . S
C357 C351 1.429 . S
C357 C358 1.523 . S
C358 C339 1.368 . S
C358 C352 1.368 . S
C358 C357 1.523 . S
C359 C343 1.429 . S
C359 C355 1.429 . S
C359 C360 1.523 . S
C360 C344 1.368 . S
C360 C356 1.368 . S
C360 C359 1.523 . S
H361 C336 0.950 . S
H362 C338 0.950 . S
H363 C339 0.949 . S
H364 C341 0.950 . S
H365 C343 0.950 . S
C366 C367 1.349 . S
C366 C368 1.327 . S
C366 H391 0.950 . S
C367 C366 1.349 . S
C367 C383 1.349 . S
C368 C366 1.327 . S
C368 C387 1.429 . S
C368 H392 0.950 . S
C369 C386 1.574 . S
C369 C388 1.368 . S
C369 H393 0.949 . S
H370 C374 0.949 . S
C371 C372 1.349 . S
C371 C373 1.327 . S
C371 H394 0.950 . S
C372 C371 1.349 . S
C372 C384 1.349 . S
C373 C371 1.327 . S
C373 C389 1.429 . S
C373 H395 0.950 . S
C374 H370 0.949 . S
C374 C382 1.574 . S
C374 C390 1.368 . S
H375 C383 0.950 . S
H376 C381 0.950 . S
H377 C382 0.949 . S
H378 C384 0.950 . S
H379 C385 0.950 . S
H380 C386 0.949 . S
C381 H376 0.950 . S
C381 C383 1.327 . S
C381 C387 1.429 . S
C382 C374 1.574 . S
C382 H377 0.949 . S
C382 C388 1.368 . S
C383 C367 1.349 . S
C383 H375 0.950 . S
C383 C381 1.327 . S
C384 C372 1.349 . S
C384 H378 0.950 . S
C384 C385 1.327 . S
C385 H379 0.950 . S
C385 C384 1.327 . S
C385 C389 1.429 . S
C386 C369 1.574 . S
C386 H380 0.949 . S
C386 C390 1.368 . S
C387 C368 1.429 . S
C387 C381 1.429 . S
C387 C388 1.523 . S
C388 C369 1.368 . S
C388 C382 1.368 . S
C388 C387 1.523 . S
C389 C373 1.429 . S
C389 C385 1.429 . S
C389 C390 1.523 . S
C390 C374 1.368 . S
C390 C386 1.368 . S
C390 C389 1.523 . S
H391 C366 0.950 . S
H392 C368 0.950 . S
H393 C369 0.949 . S
H394 C371 0.950 . S
H395 C373 0.950 . S
C396 C397 1.349 . S
C396 C398 1.327 . S
C396 H421 0.950 . S
C397 C396 1.349 . S
C397 C413 1.349 . S
C398 C396 1.327 . S
C398 C417 1.429 . S
C398 H422 0.950 . S
C399 C416 1.574 . S
C399 C418 1.368 . S
C399 H423 0.949 . S
H400 C404 0.949 . S
C401 C402 1.349 . S
C401 C403 1.327 . S
C401 H424 0.950 . S
C402 C401 1.349 . S
C402 C414 1.349 . S
C403 C401 1.327 . S
C403 C419 1.429 . S
C403 H425 0.950 . S
C404 H400 0.949 . S
C404 C412 1.574 . S
C404 C420 1.368 . S
H405 C413 0.950 . S
H406 C411 0.950 . S
H407 C412 0.949 . S
H408 C414 0.950 . S
H409 C415 0.950 . S
H410 C416 0.949 . S
C411 H406 0.950 . S
C411 C413 1.327 . S
C411 C417 1.429 . S
C412 C404 1.574 . S
C412 H407 0.949 . S
C412 C418 1.368 . S
C413 C397 1.349 . S
C413 H405 0.950 . S
C413 C411 1.327 . S
C414 C402 1.349 . S
C414 H408 0.950 . S
C414 C415 1.327 . S
C415 H409 0.950 . S
C415 C414 1.327 . S
C415 C419 1.429 . S
C416 C399 1.574 . S
C416 H410 0.949 . S
C416 C420 1.368 . S
C417 C398 1.429 . S
C417 C411 1.429 . S
C417 C418 1.523 . S
C418 C399 1.368 . S
C418 C412 1.368 . S
C418 C417 1.523 . S
C419 C403 1.429 . S
C419 C415 1.429 . S
C419 C420 1.523 . S
C420 C404 1.368 . S
C420 C416 1.368 . S
C420 C419 1.523 . S
H421 C396 0.950 . S
H422 C398 0.950 . S
H423 C399 0.949 . S
H424 C401 0.950 . S
H425 C403 0.950 . S
C426 C427 1.349 . S
C426 C428 1.327 . S
C426 H451 0.950 . S
C427 C426 1.349 . S
C427 C443 1.349 . S
C428 C426 1.327 . S
C428 C447 1.429 . S
C428 H452 0.950 . S
C429 C446 1.574 . S
C429 C448 1.368 . S
C429 H453 0.949 . S
H430 C434 0.949 . S
C431 C432 1.349 . S
C431 C433 1.327 . S
C431 H454 0.950 . S
C432 C431 1.349 . S
C432 C444 1.349 . S
C433 C431 1.327 . S
C433 C449 1.429 . S
C433 H455 0.950 . S
C434 H430 0.949 . S
C434 C442 1.574 . S
C434 C450 1.368 . S
H435 C443 0.950 . S
H436 C441 0.950 . S
H437 C442 0.949 . S
H438 C444 0.950 . S
H439 C445 0.950 . S
H440 C446 0.949 . S
C441 H436 0.950 . S
C441 C443 1.327 . S
C441 C447 1.429 . S
C442 C434 1.574 . S
C442 H437 0.949 . S
C442 C448 1.368 . S
C443 C427 1.349 . S
C443 H435 0.950 . S
C443 C441 1.327 . S
C444 C432 1.349 . S
C444 H438 0.950 . S
C444 C445 1.327 . S
C445 H439 0.950 . S
C445 C444 1.327 . S
C445 C449 1.429 . S
C446 C429 1.574 . S
C446 H440 0.949 . S
C446 C450 1.368 . S
C447 C428 1.429 . S
C447 C441 1.429 . S
C447 C448 1.523 . S
C448 C429 1.368 . S
C448 C442 1.368 . S
C448 C447 1.523 . S
C449 C433 1.429 . S
C449 C445 1.429 . S
C449 C450 1.523 . S
C450 C434 1.368 . S
C450 C446 1.368 . S
C450 C449 1.523 . S
H451 C426 0.950 . S
H452 C428 0.950 . S
H453 C429 0.949 . S
H454 C431 0.950 . S
H455 C433 0.950 . S
C456 C457 1.349 . S
C456 C458 1.327 . S
C456 H481 0.950 . S
C457 C456 1.349 . S
C457 C473 1.349 . S
C458 C456 1.327 . S
C458 C477 1.429 . S
C458 H482 0.950 . S
C459 C476 1.574 . S
C459 C478 1.368 . S
C459 H483 0.949 . S
H460 C464 0.949 . S
C461 C462 1.349 . S
C461 C463 1.327 . S
C461 H484 0.950 . S
C462 C461 1.349 . S
C462 C474 1.349 . S
C463 C461 1.327 . S
C463 C479 1.429 . S
C463 H485 0.950 . S
C464 H460 0.949 . S
C464 C472 1.574 . S
C464 C480 1.368 . S
H465 C473 0.950 . S
H466 C471 0.950 . S
H467 C472 0.949 . S
H468 C474 0.950 . S
H469 C475 0.950 . S
H470 C476 0.949 . S
C471 H466 0.950 . S
C471 C473 1.327 . S
C471 C477 1.429 . S
C472 C464 1.574 . S
C472 H467 0.949 . S
C472 C478 1.368 . S
C473 C457 1.349 . S
C473 H465 0.950 . S
C473 C471 1.327 . S
C474 C462 1.349 . S
C474 H468 0.950 . S
C474 C475 1.327 . S
C475 H469 0.950 . S
C475 C474 1.327 . S
C475 C479 1.429 . S
C476 C459 1.574 . S
C476 H470 0.949 . S
C476 C480 1.368 . S
C477 C458 1.429 . S
C477 C471 1.429 . S
C477 C478 1.523 . S
C478 C459 1.368 . S
C478 C472 1.368 . S
C478 C477 1.523 . S
C479 C463 1.429 . S
C479 C475 1.429 . S
C479 C480 1.523 . S
C480 C464 1.368 . S
C480 C476 1.368 . S
C480 C479 1.523 . S
H481 C456 0.950 . S
H482 C458 0.950 . S
H483 C459 0.949 . S
H484 C461 0.950 . S
H485 C463 0.950 . S
C486 C487 1.349 . S
C486 C488 1.327 . S
C486 H511 0.950 . S
C487 C486 1.349 . S
C487 C503 1.349 . S
C488 C486 1.327 . S
C488 C507 1.429 . S
C488 H512 0.950 . S
C489 C506 1.574 . S
C489 C508 1.368 . S
C489 H513 0.949 . S
H490 C494 0.949 . S
C491 C492 1.349 . S
C491 C493 1.327 . S
C491 H514 0.950 . S
C492 C491 1.349 . S
C492 C504 1.349 . S
C493 C491 1.327 . S
C493 C509 1.429 . S
C493 H515 0.950 . S
C494 H490 0.949 . S
C494 C502 1.574 . S
C494 C510 1.368 . S
H495 C503 0.950 . S
H496 C501 0.950 . S
H497 C502 0.949 . S
H498 C504 0.950 . S
H499 C505 0.950 . S
H500 C506 0.949 . S
C501 H496 0.950 . S
C501 C503 1.327 . S
C501 C507 1.429 . S
C502 C494 1.574 . S
C502 H497 0.949 . S
C502 C508 1.368 . S
C503 C487 1.349 . S
C503 H495 0.950 . S
C503 C501 1.327 . S
C504 C492 1.349 . S
C504 H498 0.950 . S
C504 C505 1.327 . S
C505 H499 0.950 . S
C505 C504 1.327 . S
C505 C509 1.429 . S
C506 C489 1.574 . S
C506 H500 0.949 . S
C506 C510 1.368 . S
C507 C488 1.429 . S
C507 C501 1.429 . S
C507 C508 1.523 . S
C508 C489 1.368 . S
C508 C502 1.368 . S
C508 C507 1.523 . S
C509 C493 1.429 . S
C509 C505 1.429 . S
C509 C510 1.523 . S
C510 C494 1.368 . S
C510 C506 1.368 . S
C510 C509 1.523 . S
H511 C486 0.950 . S
H512 C488 0.950 . S
H513 C489 0.949 . S
H514 C491 0.950 . S
H515 C493 0.950 . S
C516 C517 1.349 . S
C516 C518 1.327 . S
C516 H541 0.950 . S
C517 C516 1.349 . S
C517 C533 1.349 . S
C518 C516 1.327 . S
C518 C537 1.429 . S
C518 H542 0.950 . S
C519 C536 1.574 . S
C519 C538 1.368 . S
C519 H543 0.949 . S
H520 C524 0.949 . S
C521 C522 1.349 . S
C521 C523 1.327 . S
C521 H544 0.950 . S
C522 C521 1.349 . S
C522 C534 1.349 . S
C523 C521 1.327 . S
C523 C539 1.429 . S
C523 H545 0.950 . S
C524 H520 0.949 . S
C524 C532 1.574 . S
C524 C540 1.368 . S
H525 C533 0.950 . S
H526 C531 0.950 . S
H527 C532 0.949 . S
H528 C534 0.950 . S
H529 C535 0.950 . S
H530 C536 0.949 . S
C531 H526 0.950 . S
C531 C533 1.327 . S
C531 C537 1.429 . S
C532 C524 1.574 . S
C532 H527 0.949 . S
C532 C538 1.368 . S
C533 C517 1.349 . S
C533 H525 0.950 . S
C533 C531 1.327 . S
C534 C522 1.349 . S
C534 H528 0.950 . S
C534 C535 1.327 . S
C535 H529 0.950 . S
C535 C534 1.327 . S
C535 C539 1.429 . S
C536 C519 1.574 . S
C536 H530 0.949 . S
C536 C540 1.368 . S
C537 C518 1.429 . S
C537 C531 1.429 . S
C537 C538 1.523 . S
C538 C519 1.368 . S
C538 C532 1.368 . S
C538 C537 1.523 . S
C539 C523 1.429 . S
C539 C535 1.429 . S
C539 C540 1.523 . S
C540 C524 1.368 . S
C540 C536 1.368 . S
C540 C539 1.523 . S
H541 C516 0.950 . S
H542 C518 0.950 . S
H543 C519 0.949 . S
H544 C521 0.950 . S
H545 C523 0.950 . S
C546 C547 1.349 . S
C546 C548 1.327 . S
C546 H571 0.950 . S
C547 C546 1.349 . S
C547 C563 1.349 . S
C548 C546 1.327 . S
C548 C567 1.429 . S
C548 H572 0.950 . S
C549 C566 1.574 . S
C549 C568 1.368 . S
C549 H573 0.949 . S
H550 C554 0.949 . S
C551 C552 1.349 . S
C551 C553 1.327 . S
C551 H574 0.950 . S
C552 C551 1.349 . S
C552 C564 1.349 . S
C553 C551 1.327 . S
C553 C569 1.429 . S
C553 H575 0.950 . S
C554 H550 0.949 . S
C554 C562 1.574 . S
C554 C570 1.368 . S
H555 C563 0.950 . S
H556 C561 0.950 . S
H557 C562 0.949 . S
H558 C564 0.950 . S
H559 C565 0.950 . S
H560 C566 0.949 . S
C561 H556 0.950 . S
C561 C563 1.327 . S
C561 C567 1.429 . S
C562 C554 1.574 . S
C562 H557 0.949 . S
C562 C568 1.368 . S
C563 C547 1.349 . S
C563 H555 0.950 . S
C563 C561 1.327 . S
C564 C552 1.349 . S
C564 H558 0.950 . S
C564 C565 1.327 . S
C565 H559 0.950 . S
C565 C564 1.327 . S
C565 C569 1.429 . S
C566 C549 1.574 . S
C566 H560 0.949 . S
C566 C570 1.368 . S
C567 C548 1.429 . S
C567 C561 1.429 . S
C567 C568 1.523 . S
C568 C549 1.368 . S
C568 C562 1.368 . S
C568 C567 1.523 . S
C569 C553 1.429 . S
C569 C565 1.429 . S
C569 C570 1.523 . S
C570 C554 1.368 . S
C570 C566 1.368 . S
C570 C569 1.523 . S
H571 C546 0.950 . S
H572 C548 0.950 . S
H573 C549 0.949 . S
H574 C551 0.950 . S
H575 C553 0.950 . S
C576 C577 1.349 . S
C576 C578 1.327 . S
C576 H601 0.950 . S
C577 C576 1.349 . S
C577 C593 1.349 . S
C578 C576 1.327 . S
C578 C597 1.429 . S
C578 H602 0.950 . S
C579 C596 1.574 . S
C579 C598 1.368 . S
C579 H603 0.949 . S
H580 C584 0.949 . S
C581 C582 1.349 . S
C581 C583 1.327 . S
C581 H604 0.950 . S
C582 C581 1.349 . S
C582 C594 1.349 . S
C583 C581 1.327 . S
C583 C599 1.429 . S
C583 H605 0.950 . S
C584 H580 0.949 . S
C584 C592 1.574 . S
C584 C600 1.368 . S
H585 C593 0.950 . S
H586 C591 0.950 . S
H587 C592 0.949 . S
H588 C594 0.950 . S
H589 C595 0.950 . S
H590 C596 0.949 . S
C591 H586 0.950 . S
C591 C593 1.327 . S
C591 C597 1.429 . S
C592 C584 1.574 . S
C592 H587 0.949 . S
C592 C598 1.368 . S
C593 C577 1.349 . S
C593 H585 0.950 . S
C593 C591 1.327 . S
C594 C582 1.349 . S
C594 H588 0.950 . S
C594 C595 1.327 . S
C595 H589 0.950 . S
C595 C594 1.327 . S
C595 C599 1.429 . S
C596 C579 1.574 . S
C596 H590 0.949 . S
C596 C600 1.368 . S
C597 C578 1.429 . S
C597 C591 1.429 . S
C597 C598 1.523 . S
C598 C579 1.368 . S
C598 C592 1.368 . S
C598 C597 1.523 . S
C599 C583 1.429 . S
C599 C595 1.429 . S
C599 C600 1.523 . S
C600 C584 1.368 . S
C600 C596 1.368 . S
C600 C599 1.523 . S
H601 C576 0.950 . S
H602 C578 0.950 . S
H603 C579 0.949 . S
H604 C581 0.950 . S
H605 C583 0.950 . S
C606 C607 1.349 . S
C606 C608 1.327 . S
C606 H631 0.950 . S
C607 C606 1.349 . S
C607 C623 1.349 . S
C608 C606 1.327 . S
C608 C627 1.429 . S
C608 H632 0.950 . S
C609 C626 1.574 . S
C609 C628 1.368 . S
C609 H633 0.949 . S
H610 C614 0.949 . S
C611 C612 1.349 . S
C611 C613 1.327 . S
C611 H634 0.950 . S
C612 C611 1.349 . S
C612 C624 1.349 . S
C613 C611 1.327 . S
C613 C629 1.429 . S
C613 H635 0.950 . S
C614 H610 0.949 . S
C614 C622 1.574 . S
C614 C630 1.368 . S
H615 C623 0.950 . S
H616 C621 0.950 . S
H617 C622 0.949 . S
H618 C624 0.950 . S
H619 C625 0.950 . S
H620 C626 0.949 . S
C621 H616 0.950 . S
C621 C623 1.327 . S
C621 C627 1.429 . S
C622 C614 1.574 . S
C622 H617 0.949 . S
C622 C628 1.368 . S
C623 C607 1.349 . S
C623 H615 0.950 . S
C623 C621 1.327 . S
C624 C612 1.349 . S
C624 H618 0.950 . S
C624 C625 1.327 . S
C625 H619 0.950 . S
C625 C624 1.327 . S
C625 C629 1.429 . S
C626 C609 1.574 . S
C626 H620 0.949 . S
C626 C630 1.368 . S
C627 C608 1.429 . S
C627 C621 1.429 . S
C627 C628 1.523 . S
C628 C609 1.368 . S
C628 C622 1.368 . S
C628 C627 1.523 . S
C629 C613 1.429 . S
C629 C625 1.429 . S
C629 C630 1.523 . S
C630 C614 1.368 . S
C630 C626 1.368 . S
C630 C629 1.523 . S
H631 C606 0.950 . S
H632 C608 0.950 . S
H633 C609 0.949 . S
H634 C611 0.950 . S
H635 C613 0.950 . S
C636 C637 1.349 . S
C636 C638 1.327 . S
C636 H661 0.950 . S
C637 C636 1.349 . S
C637 C653 1.349 . S
C638 C636 1.327 . S
C638 C657 1.429 . S
C638 H662 0.950 . S
C639 C656 1.574 . S
C639 C658 1.368 . S
C639 H663 0.949 . S
H640 C644 0.949 . S
C641 C642 1.349 . S
C641 C643 1.327 . S
C641 H664 0.950 . S
C642 C641 1.349 . S
C642 C654 1.349 . S
C643 C641 1.327 . S
C643 C659 1.429 . S
C643 H665 0.950 . S
C644 H640 0.949 . S
C644 C652 1.574 . S
C644 C660 1.368 . S
H645 C653 0.950 . S
H646 C651 0.950 . S
H647 C652 0.949 . S
H648 C654 0.950 . S
H649 C655 0.950 . S
H650 C656 0.949 . S
C651 H646 0.950 . S
C651 C653 1.327 . S
C651 C657 1.429 . S
C652 C644 1.574 . S
C652 H647 0.949 . S
C652 C658 1.368 . S
C653 C637 1.349 . S
C653 H645 0.950 . S
C653 C651 1.327 . S
C654 C642 1.349 . S
C654 H648 0.950 . S
C654 C655 1.327 . S
C655 H649 0.950 . S
C655 C654 1.327 . S
C655 C659 1.429 . S
C656 C639 1.574 . S
C656 H650 0.949 . S
C656 C660 1.368 . S
C657 C638 1.429 . S
C657 C651 1.429 . S
C657 C658 1.523 . S
C658 C639 1.368 . S
C658 C652 1.368 . S
C658 C657 1.523 . S
C659 C643 1.429 . S
C659 C655 1.429 . S
C659 C660 1.523 . S
C660 C644 1.368 . S
C660 C656 1.368 . S
C660 C659 1.523 . S
H661 C636 0.950 . S
H662 C638 0.950 . S
H663 C639 0.949 . S
H664 C641 0.950 . S
H665 C643 0.950 . S
C666 C667 1.349 . S
C666 C668 1.327 . S
C666 H691 0.950 . S
C667 C666 1.349 . S
C667 C683 1.349 . S
C668 C666 1.327 . S
C668 C687 1.429 . S
C668 H692 0.950 . S
C669 C686 1.574 . S
C669 C688 1.368 . S
C669 H693 0.949 . S
H670 C674 0.949 . S
C671 C672 1.349 . S
C671 C673 1.327 . S
C671 H694 0.950 . S
C672 C671 1.349 . S
C672 C684 1.349 . S
C673 C671 1.327 . S
C673 C689 1.429 . S
C673 H695 0.950 . S
C674 H670 0.949 . S
C674 C682 1.574 . S
C674 C690 1.368 . S
H675 C683 0.950 . S
H676 C681 0.950 . S
H677 C682 0.949 . S
H678 C684 0.950 . S
H679 C685 0.950 . S
H680 C686 0.949 . S
C681 H676 0.950 . S
C681 C683 1.327 . S
C681 C687 1.429 . S
C682 C674 1.574 . S
C682 H677 0.949 . S
C682 C688 1.368 . S
C683 C667 1.349 . S
C683 H675 0.950 . S
C683 C681 1.327 . S
C684 C672 1.349 . S
C684 H678 0.950 . S
C684 C685 1.327 . S
C685 H679 0.950 . S
C685 C684 1.327 . S
C685 C689 1.429 . S
C686 C669 1.574 . S
C686 H680 0.949 . S
C686 C690 1.368 . S
C687 C668 1.429 . S
C687 C681 1.429 . S
C687 C688 1.523 . S
C688 C669 1.368 . S
C688 C682 1.368 . S
C688 C687 1.523 . S
C689 C673 1.429 . S
C689 C685 1.429 . S
C689 C690 1.523 . S
C690 C674 1.368 . S
C690 C686 1.368 . S
C690 C689 1.523 . S
H691 C666 0.950 . S
H692 C668 0.950 . S
H693 C669 0.949 . S
H694 C671 0.950 . S
H695 C673 0.950 . S
C696 C697 1.349 . S
C696 C698 1.327 . S
C696 H721 0.950 . S
C697 C696 1.349 . S
C697 C713 1.349 . S
C698 C696 1.327 . S
C698 C717 1.429 . S
C698 H722 0.950 . S
C699 C716 1.574 . S
C699 C718 1.368 . S
C699 H723 0.949 . S
H700 C704 0.949 . S
C701 C702 1.349 . S
C701 C703 1.327 . S
C701 H724 0.950 . S
C702 C701 1.349 . S
C702 C714 1.349 . S
C703 C701 1.327 . S
C703 C719 1.429 . S
C703 H725 0.950 . S
C704 H700 0.949 . S
C704 C712 1.574 . S
C704 C720 1.368 . S
H705 C713 0.950 . S
H706 C711 0.950 . S
H707 C712 0.949 . S
H708 C714 0.950 . S
H709 C715 0.950 . S
H710 C716 0.949 . S
C711 H706 0.950 . S
C711 C713 1.327 . S
C711 C717 1.429 . S
C712 C704 1.574 . S
C712 H707 0.949 . S
C712 C718 1.368 1_554 S
C713 C697 1.349 . S
C713 H705 0.950 . S
C713 C711 1.327 . S
C714 C702 1.349 . S
C714 H708 0.950 . S
C714 C715 1.327 . S
C715 H709 0.950 . S
C715 C714 1.327 . S
C715 C719 1.429 . S
C716 C699 1.574 . S
C716 H710 0.949 . S
C716 C720 1.368 1_556 S
C717 C698 1.429 . S
C717 C711 1.429 . S
C717 C718 1.523 . S
C718 C699 1.368 . S
C718 C712 1.368 1_556 S
C718 C717 1.523 . S
C719 C703 1.429 . S
C719 C715 1.429 . S
C719 C720 1.523 . S
C720 C704 1.368 . S
C720 C716 1.368 1_554 S
C720 C719 1.523 . S
H721 C696 0.950 . S
H722 C698 0.950 . S
H723 C699 0.949 . S
H724 C701 0.950 . S
H725 C703 0.950 . S
C726 C727 1.349 . S
C726 C728 1.327 . S
C726 H751 0.950 . S
C727 C726 1.349 . S
C727 C743 1.349 . S
C728 C726 1.327 . S
C728 C747 1.429 . S
C728 H752 0.950 . S
C729 C746 1.574 . S
C729 C748 1.368 . S
C729 H753 0.949 . S
H730 C734 0.949 . S
C731 C732 1.349 . S
C731 C733 1.327 . S
C731 H754 0.950 . S
C732 C731 1.349 . S
C732 C744 1.349 . S
C733 C731 1.327 . S
C733 C749 1.429 . S
C733 H755 0.950 . S
C734 H730 0.949 . S
C734 C742 1.574 . S
C734 C750 1.368 . S
H735 C743 0.950 . S
H736 C741 0.950 . S
H737 C742 0.949 . S
H738 C744 0.950 . S
H739 C745 0.950 . S
H740 C746 0.949 . S
C741 H736 0.950 . S
C741 C743 1.327 . S
C741 C747 1.429 . S
C742 C734 1.574 . S
C742 H737 0.949 . S
C742 C748 1.368 . S
C743 C727 1.349 . S
C743 H735 0.950 . S
C743 C741 1.327 . S
C744 C732 1.349 . S
C744 H738 0.950 . S
C744 C745 1.327 . S
C745 H739 0.950 . S
C745 C744 1.327 . S
C745 C749 1.429 . S
C746 C729 1.574 . S
C746 H740 0.949 . S
C746 C750 1.368 . S
C747 C728 1.429 . S
C747 C741 1.429 . S
C747 C748 1.523 . S
C748 C729 1.368 . S
C748 C742 1.368 . S
C748 C747 1.523 . S
C749 C733 1.429 . S
C749 C745 1.429 . S
C749 C750 1.523 . S
C750 C734 1.368 . S
C750 C746 1.368 . S
C750 C749 1.523 . S
H751 C726 0.950 . S
H752 C728 0.950 . S
H753 C729 0.949 . S
H754 C731 0.950 . S
H755 C733 0.950 . S
C756 C757 1.349 . S
C756 C758 1.327 . S
C756 H781 0.950 . S
C757 C756 1.349 . S
C757 C773 1.349 . S
C758 C756 1.327 . S
C758 C777 1.429 . S
C758 H782 0.912 1_554 S
C759 C776 1.574 . S
C759 C778 1.368 . S
C759 H783 0.949 . S
H760 C764 0.949 . S
C761 C762 1.349 . S
C761 C763 1.327 . S
C761 H784 0.950 . S
C762 C761 1.349 . S
C762 C774 1.349 . S
C763 C761 1.327 . S
C763 C779 1.429 . S
C763 H785 0.913 1_556 S
C764 H760 0.949 . S
C764 C772 1.574 . S
C764 C780 1.368 . S
H765 C773 0.950 . S
H766 C771 0.950 . S
H767 C772 0.949 . S
H768 C774 0.950 . S
H769 C775 0.950 . S
H770 C776 0.949 . S
C771 H766 0.950 . S
C771 C773 1.327 . S
C771 C777 1.429 . S
C772 C764 1.574 . S
C772 H767 0.949 . S
C772 C778 1.368 1_556 S
C773 C757 1.349 . S
C773 H765 0.950 . S
C773 C771 1.327 . S
C774 C762 1.349 . S
C774 H768 0.950 . S
C774 C775 1.327 . S
C775 H769 0.950 . S
C775 C774 1.327 . S
C775 C779 1.429 . S
C776 C759 1.574 . S
C776 H770 0.949 . S
C776 C780 1.368 1_554 S
C777 C758 1.429 . S
C777 C771 1.429 . S
C777 C778 1.523 . S
C778 C759 1.368 . S
C778 C772 1.368 1_554 S
C778 C777 1.523 . S
C779 C763 1.429 . S
C779 C775 1.429 . S
C779 C780 1.523 . S
C780 C764 1.368 . S
C780 C776 1.368 1_556 S
C780 C779 1.523 . S
H781 C756 0.950 . S
H782 C758 0.912 1_556 S
H783 C759 0.949 . S
H784 C761 0.950 . S
H785 C763 0.913 1_554 S
C786 C787 1.349 . S
C786 C788 1.327 . S
C786 H811 0.950 . S
C787 C786 1.349 . S
C787 C803 1.349 . S
C788 C786 1.327 . S
C788 C807 1.429 . S
C788 H812 0.950 . S
C789 C806 1.574 . S
C789 C808 1.368 . S
C789 H813 0.949 . S
H790 C794 0.949 . S
C791 C792 1.349 . S
C791 C793 1.327 . S
C791 H814 0.950 . S
C792 C791 1.349 . S
C792 C804 1.349 . S
C793 C791 1.327 . S
C793 C809 1.429 . S
C793 H815 0.950 . S
C794 H790 0.949 . S
C794 C802 1.574 . S
C794 C810 1.368 . S
H795 C803 0.950 . S
H796 C801 0.950 . S
H797 C802 0.949 . S
H798 C804 0.950 . S
H799 C805 0.950 . S
H800 C806 0.949 . S
C801 H796 0.950 . S
C801 C803 1.327 . S
C801 C807 1.429 . S
C802 C794 1.574 . S
C802 H797 0.949 . S
C802 C808 1.368 . S
C803 C787 1.349 . S
C803 H795 0.950 . S
C803 C801 1.327 . S
C804 C792 1.349 . S
C804 H798 0.950 . S
C804 C805 1.327 . S
C805 H799 0.950 . S
C805 C804 1.327 . S
C805 C809 1.429 . S
C806 C789 1.574 . S
C806 H800 0.949 . S
C806 C810 1.368 . S
C807 C788 1.429 . S
C807 C801 1.429 . S
C807 C808 1.523 . S
C808 C789 1.368 . S
C808 C802 1.368 . S
C808 C807 1.523 . S
C809 C793 1.429 . S
C809 C805 1.429 . S
C809 C810 1.523 . S
C810 C794 1.368 . S
C810 C806 1.368 . S
C810 C809 1.523 . S
H811 C786 0.950 . S
H812 C788 0.950 . S
H813 C789 0.949 . S
H814 C791 0.950 . S
H815 C793 0.950 . S
C816 C817 1.349 . S
C816 C818 1.327 . S
C816 H841 0.950 . S
C817 C816 1.349 . S
C817 C833 1.349 . S
C818 C816 1.327 . S
C818 C837 1.429 . S
C818 H842 0.950 . S
C819 C836 1.574 . S
C819 C838 1.368 1_554 S
C819 H843 0.949 . S
H820 C824 0.949 . S
C821 C822 1.349 . S
C821 C823 1.327 . S
C821 H844 0.950 . S
C822 C821 1.349 . S
C822 C834 1.349 . S
C823 C821 1.327 . S
C823 C839 1.429 . S
C823 H845 0.950 . S
C824 H820 0.949 . S
C824 C832 1.574 . S
C824 C840 1.368 1_556 S
H825 C833 0.950 . S
H826 C831 0.950 . S
H827 C832 0.949 . S
H828 C834 0.950 . S
H829 C835 0.950 . S
H830 C836 0.949 . S
C831 H826 0.950 . S
C831 C833 1.327 . S
C831 C837 1.429 . S
C832 C824 1.574 . S
C832 H827 0.949 . S
C832 C838 1.368 . S
C833 C817 1.349 . S
C833 H825 0.950 . S
C833 C831 1.327 . S
C834 C822 1.349 . S
C834 H828 0.950 . S
C834 C835 1.327 . S
C835 H829 0.950 . S
C835 C834 1.327 . S
C835 C839 1.429 . S
C836 C819 1.574 . S
C836 H830 0.949 . S
C836 C840 1.368 . S
C837 C818 1.429 . S
C837 C831 1.429 . S
C837 C838 1.523 . S
C838 C819 1.368 1_556 S
C838 C832 1.368 . S
C838 C837 1.523 . S
C839 C823 1.429 . S
C839 C835 1.429 . S
C839 C840 1.523 . S
C840 C824 1.368 1_554 S
C840 C836 1.368 . S
C840 C839 1.523 . S
H841 C816 0.950 . S
H842 C818 0.950 . S
H843 C819 0.949 . S
H844 C821 0.950 . S
H845 C823 0.950 . S
C846 C847 1.349 . S
C846 C848 1.327 . S
C846 H871 0.950 . S
C847 C846 1.349 . S
C847 C863 1.349 . S
C848 C846 1.327 . S
C848 C867 1.429 . S
C848 H872 0.950 . S
C849 C866 1.574 . S
C849 C868 1.368 . S
C849 H873 0.949 . S
H850 C854 0.949 . S
C851 C852 1.349 . S
C851 C853 1.327 . S
C851 H874 0.950 . S
C852 C851 1.349 . S
C852 C864 1.349 . S
C853 C851 1.327 . S
C853 C869 1.429 . S
C853 H875 0.950 . S
C854 H850 0.949 . S
C854 C862 1.574 . S
C854 C870 1.368 . S
H855 C863 0.950 . S
H856 C861 0.950 . S
H857 C862 0.949 . S
H858 C864 0.950 . S
H859 C865 0.950 . S
H860 C866 0.949 . S
C861 H856 0.950 . S
C861 C863 1.327 . S
C861 C867 1.429 . S
C862 C854 1.574 . S
C862 H857 0.949 . S
C862 C868 1.368 . S
C863 C847 1.349 . S
C863 H855 0.950 . S
C863 C861 1.327 . S
C864 C852 1.349 . S
C864 H858 0.950 . S
C864 C865 1.327 . S
C865 H859 0.950 . S
C865 C864 1.327 . S
C865 C869 1.429 . S
C866 C849 1.574 . S
C866 H860 0.949 . S
C866 C870 1.368 . S
C867 C848 1.429 . S
C867 C861 1.429 . S
C867 C868 1.523 . S
C868 C849 1.368 . S
C868 C862 1.368 . S
C868 C867 1.523 . S
C869 C853 1.429 . S
C869 C865 1.429 . S
C869 C870 1.523 . S
C870 C854 1.368 . S
C870 C866 1.368 . S
C870 C869 1.523 . S
H871 C846 0.950 . S
H872 C848 0.950 . S
H873 C849 0.949 . S
H874 C851 0.950 . S
H875 C853 0.950 . S
C876 C877 1.349 . S
C876 C878 1.327 . S
C876 H901 0.950 . S
C877 C876 1.349 . S
C877 C893 1.349 . S
C878 C876 1.327 . S
C878 C897 1.429 . S
C878 H902 0.950 . S
C879 C896 1.574 . S
C879 C898 1.368 1_556 S
C879 H903 0.949 . S
H880 C884 0.949 . S
C881 C882 1.349 . S
C881 C883 1.327 . S
C881 H904 0.950 . S
C882 C881 1.349 . S
C882 C894 1.349 . S
C883 C881 1.327 . S
C883 C899 1.429 . S
C883 H905 0.950 . S
C884 H880 0.949 . S
C884 C892 1.574 . S
C884 C900 1.368 1_554 S
H885 C893 0.950 . S
H886 C891 0.950 . S
H887 C892 0.949 . S
H888 C894 0.950 . S
H889 C895 0.950 . S
H890 C896 0.949 . S
C891 H886 0.950 . S
C891 C893 1.327 . S
C891 C897 1.429 . S
C892 C884 1.574 . S
C892 H887 0.949 . S
C892 C898 1.368 . S
C893 C877 1.349 . S
C893 H885 0.950 . S
C893 C891 1.327 . S
C894 C882 1.349 . S
C894 H888 0.950 . S
C894 C895 1.327 . S
C895 H889 0.950 . S
C895 C894 1.327 . S
C895 C899 1.429 . S
C896 C879 1.574 . S
C896 H890 0.949 . S
C896 C900 1.368 . S
C897 C878 1.429 . S
C897 C891 1.429 . S
C897 C898 1.523 . S
C898 C879 1.368 1_554 S
C898 C892 1.368 . S
C898 C897 1.523 . S
C899 C883 1.429 . S
C899 C895 1.429 . S
C899 C900 1.523 . S
C900 C884 1.368 1_556 S
C900 C896 1.368 . S
C900 C899 1.523 . S
H901 C876 0.950 . S
H902 C878 0.950 . S
H903 C879 0.949 . S
H904 C881 0.950 . S
H905 C883 0.950 . S
C906 C907 1.349 . S
C906 C908 1.327 . S
C906 H931 0.950 . S
C907 C906 1.349 . S
C907 C923 1.349 . S
C908 C906 1.327 . S
C908 C927 1.429 . S
C908 H932 0.950 . S
C909 C926 1.574 . S
C909 C928 1.368 . S
C909 H933 0.949 . S
H910 C914 0.949 . S
C911 C912 1.349 . S
C911 C913 1.327 . S
C911 H934 0.950 . S
C912 C911 1.349 . S
C912 C924 1.349 . S
C913 C911 1.327 . S
C913 C929 1.429 . S
C913 H935 0.950 . S
C914 H910 0.949 . S
C914 C922 1.574 . S
C914 C930 1.368 . S
H915 C923 0.950 . S
H916 C921 0.950 . S
H917 C922 0.949 . S
H918 C924 0.950 . S
H919 C925 0.950 . S
H920 C926 0.949 . S
C921 H916 0.950 . S
C921 C923 1.327 . S
C921 C927 1.429 . S
C922 C914 1.574 . S
C922 H917 0.949 . S
C922 C928 1.368 . S
C923 C907 1.349 . S
C923 H915 0.950 . S
C923 C921 1.327 . S
C924 C912 1.349 . S
C924 H918 0.950 . S
C924 C925 1.327 . S
C925 H919 0.950 . S
C925 C924 1.327 . S
C925 C929 1.429 . S
C926 C909 1.574 . S
C926 H920 0.949 . S
C926 C930 1.368 . S
C927 C908 1.429 . S
C927 C921 1.429 . S
C927 C928 1.523 . S
C928 C909 1.368 . S
C928 C922 1.368 . S
C928 C927 1.523 . S
C929 C913 1.429 . S
C929 C925 1.429 . S
C929 C930 1.523 . S
C930 C914 1.368 . S
C930 C926 1.368 . S
C930 C929 1.523 . S
H931 C906 0.950 . S
H932 C908 0.950 . S
H933 C909 0.949 . S
H934 C911 0.950 . S
H935 C913 0.950 . S
C936 C937 1.349 . S
C936 C938 1.327 . S
C936 H961 0.950 . S
C937 C936 1.349 . S
C937 C953 1.349 . S
C938 C936 1.327 . S
C938 C957 1.429 . S
C938 H962 0.950 . S
C939 C956 1.574 . S
C939 C958 1.368 . S
C939 H963 0.949 . S
H940 C944 0.949 . S
C941 C942 1.349 . S
C941 C943 1.327 . S
C941 H964 0.950 . S
C942 C941 1.349 . S
C942 C954 1.349 . S
C943 C941 1.327 . S
C943 C959 1.429 . S
C943 H965 0.950 . S
C944 H940 0.949 . S
C944 C952 1.574 . S
C944 C960 1.368 . S
H945 C953 0.950 . S
H946 C951 0.950 . S
H947 C952 0.949 . S
H948 C954 0.950 . S
H949 C955 0.950 . S
H950 C956 0.949 . S
C951 H946 0.950 . S
C951 C953 1.327 . S
C951 C957 1.429 . S
C952 C944 1.574 . S
C952 H947 0.949 . S
C952 C958 1.368 1_554 S
C953 C937 1.349 . S
C953 H945 0.950 . S
C953 C951 1.327 . S
C954 C942 1.349 . S
C954 H948 0.950 . S
C954 C955 1.327 . S
C955 H949 0.950 . S
C955 C954 1.327 . S
C955 C959 1.429 . S
C956 C939 1.574 . S
C956 H950 0.949 . S
C956 C960 1.368 1_556 S
C957 C938 1.429 . S
C957 C951 1.429 . S
C957 C958 1.523 . S
C958 C939 1.368 . S
C958 C952 1.368 1_556 S
C958 C957 1.523 . S
C959 C943 1.429 . S
C959 C955 1.429 . S
C959 C960 1.523 . S
C960 C944 1.368 . S
C960 C956 1.368 1_554 S
C960 C959 1.523 . S
H961 C936 0.950 . S
H962 C938 0.950 . S
H963 C939 0.949 . S
H964 C941 0.950 . S
H965 C943 0.950 . S
C966 C967 1.349 . S
C966 C968 1.327 . S
C966 H991 0.950 . S
C967 C966 1.349 . S
C967 C983 1.349 . S
C968 C966 1.327 . S
C968 C987 1.429 . S
C968 H992 0.950 . S
C969 C986 1.574 . S
C969 C988 1.368 . S
C969 H993 0.949 . S
H970 C974 0.949 . S
C971 C972 1.349 . S
C971 C973 1.327 . S
C971 H994 0.950 . S
C972 C971 1.349 . S
C972 C984 1.349 . S
C973 C971 1.327 . S
C973 C989 1.429 . S
C973 H995 0.950 . S
C974 H970 0.949 . S
C974 C982 1.574 . S
C974 C990 1.368 . S
H975 C983 0.950 . S
H976 C981 0.950 . S
H977 C982 0.949 . S
H978 C984 0.950 . S
H979 C985 0.950 . S
H980 C986 0.949 . S
C981 H976 0.950 . S
C981 C983 1.327 . S
C981 C987 1.429 . S
C982 C974 1.574 . S
C982 H977 0.949 . S
C982 C988 1.368 . S
C983 C967 1.349 . S
C983 H975 0.950 . S
C983 C981 1.327 . S
C984 C972 1.349 . S
C984 H978 0.950 . S
C984 C985 1.327 . S
C985 H979 0.950 . S
C985 C984 1.327 . S
C985 C989 1.429 . S
C986 C969 1.574 . S
C986 H980 0.949 . S
C986 C990 1.368 . S
C987 C968 1.429 . S
C987 C981 1.429 . S
C987 C988 1.523 . S
C988 C969 1.368 . S
C988 C982 1.368 . S
C988 C987 1.523 . S
C989 C973 1.429 . S
C989 C985 1.429 . S
C989 C990 1.523 . S
C990 C974 1.368 . S
C990 C986 1.368 . S
C990 C989 1.523 . S
H991 C966 0.950 . S
H992 C968 0.950 . S
H993 C969 0.949 . S
H994 C971 0.950 . S
H995 C973 0.950 . S
C996 C997 1.349 . S
C996 C998 1.327 . S
C996 H1021 0.950 . S
C997 C996 1.349 . S
C997 C1013 1.349 . S
C998 C996 1.327 . S
C998 C1017 1.429 . S
C998 H1022 0.950 . S
C999 C1016 1.574 . S
C999 C1018 1.368 1_554 S
C999 H1023 0.949 . S
H1000 C1004 0.949 . S
C1001 C1002 1.349 . S
C1001 C1003 1.327 . S
C1001 H1024 0.950 . S
C1002 C1001 1.349 . S
C1002 C1014 1.349 . S
C1003 C1001 1.327 . S
C1003 C1019 1.429 . S
C1003 H1025 0.950 . S
C1004 H1000 0.949 . S
C1004 C1012 1.574 . S
C1004 C1020 1.368 1_556 S
H1005 C1013 0.950 . S
H1006 C1011 0.950 1_554 S
H1007 C1012 0.949 . S
H1008 C1014 0.950 . S
H1009 C1015 0.950 1_556 S
H1010 C1016 0.949 . S
C1011 H1006 0.950 1_556 S
C1011 C1013 1.327 . S
C1011 C1017 1.429 . S
C1012 C1004 1.574 . S
C1012 H1007 0.949 . S
C1012 C1018 1.368 . S
C1013 C997 1.349 . S
C1013 H1005 0.950 . S
C1013 C1011 1.327 . S
C1014 C1002 1.349 . S
C1014 H1008 0.950 . S
C1014 C1015 1.327 . S
C1015 H1009 0.950 1_554 S
C1015 C1014 1.327 . S
C1015 C1019 1.429 . S
C1016 C999 1.574 . S
C1016 H1010 0.949 . S
C1016 C1020 1.368 . S
C1017 C998 1.429 . S
C1017 C1011 1.429 . S
C1017 C1018 1.523 . S
C1018 C999 1.368 1_556 S
C1018 C1012 1.368 . S
C1018 C1017 1.523 . S
C1019 C1003 1.429 . S
C1019 C1015 1.429 . S
C1019 C1020 1.523 . S
C1020 C1004 1.368 1_554 S
C1020 C1016 1.368 . S
C1020 C1019 1.523 . S
H1021 C996 0.950 . S
H1022 C998 0.950 . S
H1023 C999 0.949 . S
H1024 C1001 0.950 . S
H1025 C1003 0.950 . S
C1026 C1027 1.349 . S
C1026 C1028 1.327 . S
C1026 H1051 0.950 . S
C1027 C1026 1.349 . S
C1027 C1043 1.349 . S
C1028 C1026 1.327 . S
C1028 C1047 1.429 . S
C1028 H1052 0.950 . S
C1029 C1046 1.574 . S
C1029 C1048 1.368 . S
C1029 H1053 0.949 . S
H1030 C1034 0.949 . S
C1031 C1032 1.349 . S
C1031 C1033 1.327 . S
C1031 H1054 0.950 . S
C1032 C1031 1.349 . S
C1032 C1044 1.349 . S
C1033 C1031 1.327 . S
C1033 C1049 1.429 . S
C1033 H1055 0.950 . S
C1034 H1030 0.949 . S
C1034 C1042 1.574 . S
C1034 C1050 1.368 . S
H1035 C1043 0.950 . S
H1036 C1041 0.950 . S
H1037 C1042 0.949 . S
H1038 C1044 0.950 . S
H1039 C1045 0.950 . S
H1040 C1046 0.949 . S
C1041 H1036 0.950 . S
C1041 C1043 1.327 . S
C1041 C1047 1.429 . S
C1042 C1034 1.574 . S
C1042 H1037 0.949 . S
C1042 C1048 1.368 . S
C1043 C1027 1.349 . S
C1043 H1035 0.950 . S
C1043 C1041 1.327 . S
C1044 C1032 1.349 . S
C1044 H1038 0.950 . S
C1044 C1045 1.327 . S
C1045 H1039 0.950 . S
C1045 C1044 1.327 . S
C1045 C1049 1.429 . S
C1046 C1029 1.574 . S
C1046 H1040 0.949 . S
C1046 C1050 1.368 . S
C1047 C1028 1.429 . S
C1047 C1041 1.429 . S
C1047 C1048 1.523 . S
C1048 C1029 1.368 . S
C1048 C1042 1.368 . S
C1048 C1047 1.523 . S
C1049 C1033 1.429 . S
C1049 C1045 1.429 . S
C1049 C1050 1.523 . S
C1050 C1034 1.368 . S
C1050 C1046 1.368 . S
C1050 C1049 1.523 . S
H1051 C1026 0.950 . S
H1052 C1028 0.950 . S
H1053 C1029 0.949 . S
H1054 C1031 0.950 . S
H1055 C1033 0.950 . S
C1056 C1057 1.349 . S
C1056 C1058 1.327 . S
C1056 H1081 0.950 . S
C1057 C1056 1.349 . S
C1057 C1073 1.349 . S
C1058 C1056 1.327 . S
C1058 C1077 1.429 . S
C1058 H1082 0.950 . S
C1059 C1076 1.574 . S
C1059 C1078 1.368 . S
C1059 H1083 0.949 . S
H1060 C1064 0.949 . S
C1061 C1062 1.349 . S
C1061 C1063 1.327 . S
C1061 H1084 0.950 . S
C1062 C1061 1.349 . S
C1062 C1074 1.349 . S
C1063 C1061 1.327 . S
C1063 C1079 1.429 . S
C1063 H1085 0.950 . S
C1064 H1060 0.949 . S
C1064 C1072 1.574 . S
C1064 C1080 1.368 . S
H1065 C1073 0.950 . S
H1066 C1071 0.950 . S
H1067 C1072 0.949 . S
H1068 C1074 0.950 . S
H1069 C1075 0.950 . S
H1070 C1076 0.949 . S
C1071 H1066 0.950 . S
C1071 C1073 1.327 . S
C1071 C1077 1.429 . S
C1072 C1064 1.574 . S
C1072 H1067 0.949 . S
C1072 C1078 1.368 . S
C1073 C1057 1.349 . S
C1073 H1065 0.950 . S
C1073 C1071 1.327 . S
C1074 C1062 1.349 . S
C1074 H1068 0.950 . S
C1074 C1075 1.327 . S
C1075 H1069 0.950 . S
C1075 C1074 1.327 . S
C1075 C1079 1.429 . S
C1076 C1059 1.574 . S
C1076 H1070 0.949 . S
C1076 C1080 1.368 . S
C1077 C1058 1.429 . S
C1077 C1071 1.429 . S
C1077 C1078 1.523 . S
C1078 C1059 1.368 . S
C1078 C1072 1.368 . S
C1078 C1077 1.523 . S
C1079 C1063 1.429 . S
C1079 C1075 1.429 . S
C1079 C1080 1.523 . S
C1080 C1064 1.368 . S
C1080 C1076 1.368 . S
C1080 C1079 1.523 . S
H1081 C1056 0.950 . S
H1082 C1058 0.950 . S
H1083 C1059 0.949 . S
H1084 C1061 0.950 . S
H1085 C1063 0.950 . S
C1086 C1087 1.349 . S
C1086 C1088 1.327 . S
C1086 H1111 0.950 . S
C1087 C1086 1.349 . S
C1087 C1103 1.349 . S
C1088 C1086 1.327 . S
C1088 C1107 1.429 . S
C1088 H1112 0.950 . S
C1089 C1106 1.574 1_455 S
C1089 C1108 1.368 . S
C1089 H1113 0.949 . S
H1090 C1094 0.949 . S
C1091 C1092 1.349 . S
C1091 C1093 1.327 . S
C1091 H1114 0.950 . S
C1092 C1091 1.349 . S
C1092 C1104 1.349 . S
C1093 C1091 1.327 . S
C1093 C1109 1.429 . S
C1093 H1115 0.950 . S
C1094 H1090 0.949 . S
C1094 C1102 1.574 1_655 S
C1094 C1110 1.368 . S
H1095 C1103 0.950 . S
H1096 C1101 0.950 . S
H1097 C1102 0.949 . S
H1098 C1104 0.950 . S
H1099 C1105 0.950 . S
H1100 C1106 0.949 . S
C1101 H1096 0.950 . S
C1101 C1103 1.327 . S
C1101 C1107 1.429 . S
C1102 C1094 1.574 1_455 S
C1102 H1097 0.949 . S
C1102 C1108 1.368 . S
C1103 C1087 1.349 . S
C1103 H1095 0.950 . S
C1103 C1101 1.327 . S
C1104 C1092 1.349 . S
C1104 H1098 0.950 . S
C1104 C1105 1.327 . S
C1105 H1099 0.950 . S
C1105 C1104 1.327 . S
C1105 C1109 1.429 . S
C1106 C1089 1.574 1_655 S
C1106 H1100 0.949 . S
C1106 C1110 1.368 . S
C1107 C1088 1.429 . S
C1107 C1101 1.429 . S
C1107 C1108 1.523 . S
C1108 C1089 1.368 . S
C1108 C1102 1.368 . S
C1108 C1107 1.523 . S
C1109 C1093 1.429 . S
C1109 C1105 1.429 . S
C1109 C1110 1.523 . S
C1110 C1094 1.368 . S
C1110 C1106 1.368 . S
C1110 C1109 1.523 . S
H1111 C1086 0.950 . S
H1112 C1088 0.950 . S
H1113 C1089 0.949 . S
H1114 C1091 0.950 . S
H1115 C1093 0.950 . S
C1116 C1117 1.349 . S
C1116 C1118 1.327 . S
C1116 H1141 0.950 . S
C1117 C1116 1.349 . S
C1117 C1133 1.349 . S
C1118 C1116 1.327 . S
C1118 C1137 1.429 . S
C1118 H1142 0.950 . S
C1119 C1136 1.574 1_565 S
C1119 C1138 1.368 . S
C1119 H1143 0.949 . S
H1120 C1124 0.949 . S
C1121 C1122 1.349 . S
C1121 C1123 1.327 . S
C1121 H1144 0.950 . S
C1122 C1121 1.349 . S
C1122 C1134 1.349 . S
C1123 C1121 1.327 . S
C1123 C1139 1.429 . S
C1123 H1145 0.950 . S
C1124 H1120 0.949 . S
C1124 C1132 1.574 1_545 S
C1124 C1140 1.368 . S
H1125 C1133 0.950 . S
H1126 C1131 0.950 . S
H1127 C1132 0.949 . S
H1128 C1134 0.950 . S
H1129 C1135 0.950 . S
H1130 C1136 0.949 . S
C1131 H1126 0.950 . S
C1131 C1133 1.327 . S
C1131 C1137 1.429 . S
C1132 C1124 1.574 1_565 S
C1132 H1127 0.949 . S
C1132 C1138 1.368 . S
C1133 C1117 1.349 . S
C1133 H1125 0.950 . S
C1133 C1131 1.327 . S
C1134 C1122 1.349 . S
C1134 H1128 0.950 . S
C1134 C1135 1.327 . S
C1135 H1129 0.950 . S
C1135 C1134 1.327 . S
C1135 C1139 1.429 . S
C1136 C1119 1.574 1_545 S
C1136 H1130 0.949 . S
C1136 C1140 1.368 . S
C1137 C1118 1.429 . S
C1137 C1131 1.429 . S
C1137 C1138 1.523 . S
C1138 C1119 1.368 . S
C1138 C1132 1.368 . S
C1138 C1137 1.523 . S
C1139 C1123 1.429 . S
C1139 C1135 1.429 . S
C1139 C1140 1.523 . S
C1140 C1124 1.368 . S
C1140 C1136 1.368 . S
C1140 C1139 1.523 . S
H1141 C1116 0.950 . S
H1142 C1118 0.950 . S
H1143 C1119 0.949 . S
H1144 C1121 0.950 . S
H1145 C1123 0.950 . S
C1146 C1147 1.349 . S
C1146 C1148 1.327 . S
C1146 H1171 0.950 . S
C1147 C1146 1.349 . S
C1147 C1163 1.349 . S
C1148 C1146 1.327 . S
C1148 C1167 1.429 . S
C1148 H1172 0.950 . S
C1149 C1166 1.574 . S
C1149 C1168 1.368 . S
C1149 H1173 0.949 . S
H1150 C1154 0.949 . S
C1151 C1152 1.349 . S
C1151 C1153 1.327 . S
C1151 H1174 0.950 . S
C1152 C1151 1.349 . S
C1152 C1164 1.349 . S
C1153 C1151 1.327 . S
C1153 C1169 1.429 . S
C1153 H1175 0.950 . S
C1154 H1150 0.949 . S
C1154 C1162 1.574 . S
C1154 C1170 1.368 . S
H1155 C1163 0.950 . S
H1156 C1161 0.950 . S
H1157 C1162 0.949 . S
H1158 C1164 0.950 . S
H1159 C1165 0.950 . S
H1160 C1166 0.949 . S
C1161 H1156 0.950 . S
C1161 C1163 1.327 . S
C1161 C1167 1.429 . S
C1162 C1154 1.574 . S
C1162 H1157 0.949 . S
C1162 C1168 1.368 . S
C1163 C1147 1.349 . S
C1163 H1155 0.950 . S
C1163 C1161 1.327 . S
C1164 C1152 1.349 . S
C1164 H1158 0.950 . S
C1164 C1165 1.327 . S
C1165 H1159 0.950 . S
C1165 C1164 1.327 . S
C1165 C1169 1.429 . S
C1166 C1149 1.574 . S
C1166 H1160 0.949 . S
C1166 C1170 1.368 . S
C1167 C1148 1.429 . S
C1167 C1161 1.429 . S
C1167 C1168 1.523 . S
C1168 C1149 1.368 . S
C1168 C1162 1.368 . S
C1168 C1167 1.523 . S
C1169 C1153 1.429 . S
C1169 C1165 1.429 . S
C1169 C1170 1.523 . S
C1170 C1154 1.368 . S
C1170 C1166 1.368 . S
C1170 C1169 1.523 . S
H1171 C1146 0.950 . S
H1172 C1148 0.950 . S
H1173 C1149 0.949 . S
H1174 C1151 0.950 . S
H1175 C1153 0.950 . S
C1176 C1177 1.349 . S
C1176 C1178 1.327 . S
C1176 H1201 0.950 . S
C1177 C1176 1.349 . S
C1177 C1193 1.349 . S
C1178 C1176 1.327 . S
C1178 C1197 1.429 . S
C1178 H1202 0.950 . S
C1179 C1196 1.574 1_655 S
C1179 C1198 1.368 . S
C1179 H1203 0.949 . S
H1180 C1184 0.949 . S
C1181 C1182 1.349 . S
C1181 C1183 1.327 . S
C1181 H1204 0.950 . S
C1182 C1181 1.349 . S
C1182 C1194 1.349 . S
C1183 C1181 1.327 . S
C1183 C1199 1.429 . S
C1183 H1205 0.950 . S
C1184 H1180 0.949 . S
C1184 C1192 1.574 1_455 S
C1184 C1200 1.368 . S
H1185 C1193 0.950 . S
H1186 C1191 0.950 . S
H1187 C1192 0.949 . S
H1188 C1194 0.950 . S
H1189 C1195 0.950 . S
H1190 C1196 0.949 . S
C1191 H1186 0.950 . S
C1191 C1193 1.327 . S
C1191 C1197 1.429 . S
C1192 C1184 1.574 1_655 S
C1192 H1187 0.949 . S
C1192 C1198 1.368 . S
C1193 C1177 1.349 . S
C1193 H1185 0.950 . S
C1193 C1191 1.327 . S
C1194 C1182 1.349 . S
C1194 H1188 0.950 . S
C1194 C1195 1.327 . S
C1195 H1189 0.950 . S
C1195 C1194 1.327 . S
C1195 C1199 1.429 . S
C1196 C1179 1.574 1_455 S
C1196 H1190 0.949 . S
C1196 C1200 1.368 . S
C1197 C1178 1.429 . S
C1197 C1191 1.429 . S
C1197 C1198 1.523 . S
C1198 C1179 1.368 . S
C1198 C1192 1.368 . S
C1198 C1197 1.523 . S
C1199 C1183 1.429 . S
C1199 C1195 1.429 . S
C1199 C1200 1.523 . S
C1200 C1184 1.368 . S
C1200 C1196 1.368 . S
C1200 C1199 1.523 . S
H1201 C1176 0.950 . S
H1202 C1178 0.950 . S
H1203 C1179 0.949 . S
H1204 C1181 0.950 . S
H1205 C1183 0.950 . S
C1206 C1207 1.349 . S
C1206 C1208 1.327 . S
C1206 H1231 0.950 . S
C1207 C1206 1.349 . S
C1207 C1223 1.349 . S
C1208 C1206 1.327 . S
C1208 C1227 1.429 . S
C1208 H1232 0.950 . S
C1209 C1226 1.574 1_545 S
C1209 C1228 1.368 . S
C1209 H1233 0.949 . S
H1210 C1214 0.949 . S
C1211 C1212 1.349 . S
C1211 C1213 1.327 . S
C1211 H1234 0.950 . S
C1212 C1211 1.349 . S
C1212 C1224 1.349 . S
C1213 C1211 1.327 . S
C1213 C1229 1.429 . S
C1213 H1235 0.950 . S
C1214 H1210 0.949 . S
C1214 C1222 1.574 1_565 S
C1214 C1230 1.368 . S
H1215 C1223 0.950 . S
H1216 C1221 0.950 . S
H1217 C1222 0.949 . S
H1218 C1224 0.950 . S
H1219 C1225 0.950 . S
H1220 C1226 0.949 . S
C1221 H1216 0.950 . S
C1221 C1223 1.327 . S
C1221 C1227 1.429 . S
C1222 C1214 1.574 1_545 S
C1222 H1217 0.949 . S
C1222 C1228 1.368 . S
C1223 C1207 1.349 . S
C1223 H1215 0.950 . S
C1223 C1221 1.327 . S
C1224 C1212 1.349 . S
C1224 H1218 0.950 . S
C1224 C1225 1.327 . S
C1225 H1219 0.950 . S
C1225 C1224 1.327 . S
C1225 C1229 1.429 . S
C1226 C1209 1.574 1_565 S
C1226 H1220 0.949 . S
C1226 C1230 1.368 . S
C1227 C1208 1.429 . S
C1227 C1221 1.429 . S
C1227 C1228 1.523 . S
C1228 C1209 1.368 . S
C1228 C1222 1.368 . S
C1228 C1227 1.523 . S
C1229 C1213 1.429 . S
C1229 C1225 1.429 . S
C1229 C1230 1.523 . S
C1230 C1214 1.368 . S
C1230 C1226 1.368 . S
C1230 C1229 1.523 . S
H1231 C1206 0.950 . S
H1232 C1208 0.950 . S
H1233 C1209 0.949 . S
H1234 C1211 0.950 . S
H1235 C1213 0.950 . S
C1236 C1237 1.349 . S
C1236 C1238 1.327 . S
C1236 H1261 0.950 . S
C1237 C1236 1.349 . S
C1237 C1253 1.349 . S
C1238 C1236 1.327 . S
C1238 C1257 1.429 . S
C1238 H1262 0.950 . S
C1239 C1256 1.574 . S
C1239 C1258 1.368 . S
C1239 H1263 0.949 . S
H1240 C1244 0.949 . S
C1241 C1242 1.349 . S
C1241 C1243 1.327 . S
C1241 H1264 0.950 . S
C1242 C1241 1.349 . S
C1242 C1254 1.349 . S
C1243 C1241 1.327 . S
C1243 C1259 1.429 . S
C1243 H1265 0.950 . S
C1244 H1240 0.949 . S
C1244 C1252 1.574 . S
C1244 C1260 1.368 . S
H1245 C1253 0.950 . S
H1246 C1251 0.950 . S
H1247 C1252 0.949 . S
H1248 C1254 0.950 . S
H1249 C1255 0.950 . S
H1250 C1256 0.949 . S
C1251 H1246 0.950 . S
C1251 C1253 1.327 . S
C1251 C1257 1.429 . S
C1252 C1244 1.574 . S
C1252 H1247 0.949 . S
C1252 C1258 1.368 . S
C1253 C1237 1.349 . S
C1253 H1245 0.950 . S
C1253 C1251 1.327 . S
C1254 C1242 1.349 . S
C1254 H1248 0.950 . S
C1254 C1255 1.327 . S
C1255 H1249 0.950 . S
C1255 C1254 1.327 . S
C1255 C1259 1.429 . S
C1256 C1239 1.574 . S
C1256 H1250 0.949 . S
C1256 C1260 1.368 . S
C1257 C1238 1.429 . S
C1257 C1251 1.429 . S
C1257 C1258 1.523 . S
C1258 C1239 1.368 . S
C1258 C1252 1.368 . S
C1258 C1257 1.523 . S
C1259 C1243 1.429 . S
C1259 C1255 1.429 . S
C1259 C1260 1.523 . S
C1260 C1244 1.368 . S
C1260 C1256 1.368 . S
C1260 C1259 1.523 . S
H1261 C1236 0.950 . S
H1262 C1238 0.950 . S
H1263 C1239 0.949 . S
H1264 C1241 0.950 . S
H1265 C1243 0.950 . S
C1266 C1267 1.349 . S
C1266 C1268 1.327 . S
C1266 H1291 0.950 . S
C1267 C1266 1.349 . S
C1267 C1283 1.349 . S
C1268 C1266 1.327 . S
C1268 C1287 1.429 . S
C1268 H1292 0.950 . S
C1269 C1286 1.574 1_655 S
C1269 C1288 1.368 . S
C1269 H1293 0.949 . S
H1270 C1274 0.949 . S
C1271 C1272 1.349 . S
C1271 C1273 1.327 . S
C1271 H1294 0.950 . S
C1272 C1271 1.349 . S
C1272 C1284 1.349 . S
C1273 C1271 1.327 . S
C1273 C1289 1.429 . S
C1273 H1295 0.950 . S
C1274 H1270 0.949 . S
C1274 C1282 1.574 1_455 S
C1274 C1290 1.368 . S
H1275 C1283 0.950 . S
H1276 C1281 0.950 . S
H1277 C1282 0.949 . S
H1278 C1284 0.950 . S
H1279 C1285 0.950 . S
H1280 C1286 0.949 . S
C1281 H1276 0.950 . S
C1281 C1283 1.327 . S
C1281 C1287 1.429 . S
C1282 C1274 1.574 1_655 S
C1282 H1277 0.949 . S
C1282 C1288 1.368 . S
C1283 C1267 1.349 . S
C1283 H1275 0.950 . S
C1283 C1281 1.327 . S
C1284 C1272 1.349 . S
C1284 H1278 0.950 . S
C1284 C1285 1.327 . S
C1285 H1279 0.950 . S
C1285 C1284 1.327 . S
C1285 C1289 1.429 . S
C1286 C1269 1.574 1_455 S
C1286 H1280 0.949 . S
C1286 C1290 1.368 . S
C1287 C1268 1.429 . S
C1287 C1281 1.429 . S
C1287 C1288 1.523 . S
C1288 C1269 1.368 . S
C1288 C1282 1.368 . S
C1288 C1287 1.523 . S
C1289 C1273 1.429 . S
C1289 C1285 1.429 . S
C1289 C1290 1.523 . S
C1290 C1274 1.368 . S
C1290 C1286 1.368 . S
C1290 C1289 1.523 . S
H1291 C1266 0.950 . S
H1292 C1268 0.950 . S
H1293 C1269 0.949 . S
H1294 C1271 0.950 . S
H1295 C1273 0.950 . S
C1296 C1297 1.349 . S
C1296 C1298 1.327 . S
C1296 H1321 0.950 . S
C1297 C1296 1.349 . S
C1297 C1313 1.349 . S
C1298 C1296 1.327 . S
C1298 C1317 1.429 . S
C1298 H1322 0.950 . S
C1299 C1316 1.574 1_545 S
C1299 C1318 1.368 . S
C1299 H1323 0.949 . S
H1300 C1304 0.949 . S
C1301 C1302 1.349 . S
C1301 C1303 1.327 . S
C1301 H1324 0.950 . S
C1302 C1301 1.349 . S
C1302 C1314 1.349 . S
C1303 C1301 1.327 . S
C1303 C1319 1.429 . S
C1303 H1325 0.950 . S
C1304 H1300 0.949 . S
C1304 C1312 1.574 1_565 S
C1304 C1320 1.368 . S
H1305 C1313 0.950 . S
H1306 C1311 0.950 . S
H1307 C1312 0.949 . S
H1308 C1314 0.950 . S
H1309 C1315 0.950 . S
H1310 C1316 0.949 . S
C1311 H1306 0.950 . S
C1311 C1313 1.327 . S
C1311 C1317 1.429 . S
C1312 C1304 1.574 1_545 S
C1312 H1307 0.949 . S
C1312 C1318 1.368 . S
C1313 C1297 1.349 . S
C1313 H1305 0.950 . S
C1313 C1311 1.327 . S
C1314 C1302 1.349 . S
C1314 H1308 0.950 . S
C1314 C1315 1.327 . S
C1315 H1309 0.950 . S
C1315 C1314 1.327 . S
C1315 C1319 1.429 . S
C1316 C1299 1.574 1_565 S
C1316 H1310 0.949 . S
C1316 C1320 1.368 . S
C1317 C1298 1.429 . S
C1317 C1311 1.429 . S
C1317 C1318 1.523 . S
C1318 C1299 1.368 . S
C1318 C1312 1.368 . S
C1318 C1317 1.523 . S
C1319 C1303 1.429 . S
C1319 C1315 1.429 . S
C1319 C1320 1.523 . S
C1320 C1304 1.368 . S
C1320 C1316 1.368 . S
C1320 C1319 1.523 . S
H1321 C1296 0.950 . S
H1322 C1298 0.950 . S
H1323 C1299 0.949 . S
H1324 C1301 0.950 . S
H1325 C1303 0.950 . S
C1326 C1327 1.349 . S
C1326 C1328 1.327 . S
C1326 H1351 0.950 . S
C1327 C1326 1.349 . S
C1327 C1343 1.349 . S
C1328 C1326 1.327 . S
C1328 C1347 1.429 . S
C1328 H1352 0.950 . S
C1329 C1346 1.574 . S
C1329 C1348 1.368 . S
C1329 H1353 0.949 . S
H1330 C1334 0.949 . S
C1331 C1332 1.349 . S
C1331 C1333 1.327 . S
C1331 H1354 0.950 . S
C1332 C1331 1.349 . S
C1332 C1344 1.349 . S
C1333 C1331 1.327 . S
C1333 C1349 1.429 . S
C1333 H1355 0.950 . S
C1334 H1330 0.949 . S
C1334 C1342 1.574 . S
C1334 C1350 1.368 . S
H1335 C1343 0.950 . S
H1336 C1341 0.950 . S
H1337 C1342 0.949 . S
H1338 C1344 0.950 . S
H1339 C1345 0.950 . S
H1340 C1346 0.949 . S
C1341 H1336 0.950 . S
C1341 C1343 1.327 . S
C1341 C1347 1.429 . S
C1342 C1334 1.574 . S
C1342 H1337 0.949 . S
C1342 C1348 1.368 . S
C1343 C1327 1.349 . S
C1343 H1335 0.950 . S
C1343 C1341 1.327 . S
C1344 C1332 1.349 . S
C1344 H1338 0.950 . S
C1344 C1345 1.327 . S
C1345 H1339 0.950 . S
C1345 C1344 1.327 . S
C1345 C1349 1.429 . S
C1346 C1329 1.574 . S
C1346 H1340 0.949 . S
C1346 C1350 1.368 . S
C1347 C1328 1.429 . S
C1347 C1341 1.429 . S
C1347 C1348 1.523 . S
C1348 C1329 1.368 . S
C1348 C1342 1.368 . S
C1348 C1347 1.523 . S
C1349 C1333 1.429 . S
C1349 C1345 1.429 . S
C1349 C1350 1.523 . S
C1350 C1334 1.368 . S
C1350 C1346 1.368 . S
C1350 C1349 1.523 . S
H1351 C1326 0.950 . S
H1352 C1328 0.950 . S
H1353 C1329 0.949 . S
H1354 C1331 0.950 . S
H1355 C1333 0.950 . S
C1356 C1357 1.349 . S
C1356 C1358 1.327 . S
C1356 H1381 0.950 . S
C1357 C1356 1.349 . S
C1357 C1373 1.349 . S
C1358 C1356 1.327 . S
C1358 C1377 1.429 . S
C1358 H1382 0.950 . S
C1359 C1376 1.574 1_455 S
C1359 C1378 1.368 . S
C1359 H1383 0.949 . S
H1360 C1364 0.949 . S
C1361 C1362 1.349 . S
C1361 C1363 1.327 . S
C1361 H1384 0.950 . S
C1362 C1361 1.349 . S
C1362 C1374 1.349 . S
C1363 C1361 1.327 . S
C1363 C1379 1.429 . S
C1363 H1385 0.950 . S
C1364 H1360 0.949 . S
C1364 C1372 1.574 1_655 S
C1364 C1380 1.368 . S
H1365 C1373 0.950 . S
H1366 C1371 0.950 . S
H1367 C1372 0.949 . S
H1368 C1374 0.950 . S
H1369 C1375 0.950 . S
H1370 C1376 0.949 . S
C1371 H1366 0.950 . S
C1371 C1373 1.327 . S
C1371 C1377 1.429 . S
C1372 C1364 1.574 1_455 S
C1372 H1367 0.949 . S
C1372 C1378 1.368 . S
C1373 C1357 1.349 . S
C1373 H1365 0.950 . S
C1373 C1371 1.327 . S
C1374 C1362 1.349 . S
C1374 H1368 0.950 . S
C1374 C1375 1.327 . S
C1375 H1369 0.950 . S
C1375 C1374 1.327 . S
C1375 C1379 1.429 . S
C1376 C1359 1.574 1_655 S
C1376 H1370 0.949 . S
C1376 C1380 1.368 . S
C1377 C1358 1.429 . S
C1377 C1371 1.429 . S
C1377 C1378 1.523 . S
C1378 C1359 1.368 . S
C1378 C1372 1.368 . S
C1378 C1377 1.523 . S
C1379 C1363 1.429 . S
C1379 C1375 1.429 . S
C1379 C1380 1.523 . S
C1380 C1364 1.368 . S
C1380 C1376 1.368 . S
C1380 C1379 1.523 . S
H1381 C1356 0.950 . S
H1382 C1358 0.950 . S
H1383 C1359 0.949 . S
H1384 C1361 0.950 . S
H1385 C1363 0.950 . S
C1386 C1387 1.349 . S
C1386 C1388 1.327 . S
C1386 H1411 0.950 . S
C1387 C1386 1.349 . S
C1387 C1403 1.349 . S
C1388 C1386 1.327 . S
C1388 C1407 1.429 . S
C1388 H1412 0.950 . S
C1389 C1406 1.574 1_565 S
C1389 C1408 1.368 . S
C1389 H1413 0.949 . S
H1390 C1394 0.949 . S
C1391 C1392 1.349 . S
C1391 C1393 1.327 . S
C1391 H1414 0.950 . S
C1392 C1391 1.349 . S
C1392 C1404 1.349 . S
C1393 C1391 1.327 . S
C1393 C1409 1.429 . S
C1393 H1415 0.950 . S
C1394 H1390 0.949 . S
C1394 C1402 1.574 1_545 S
C1394 C1410 1.368 . S
H1395 C1403 0.950 . S
H1396 C1401 0.950 . S
H1397 C1402 0.949 . S
H1398 C1404 0.950 . S
H1399 C1405 0.950 . S
H1400 C1406 0.949 . S
C1401 H1396 0.950 . S
C1401 C1403 1.327 . S
C1401 C1407 1.429 . S
C1402 C1394 1.574 1_565 S
C1402 H1397 0.949 . S
C1402 C1408 1.368 . S
C1403 C1387 1.349 . S
C1403 H1395 0.950 . S
C1403 C1401 1.327 . S
C1404 C1392 1.349 . S
C1404 H1398 0.950 . S
C1404 C1405 1.327 . S
C1405 H1399 0.950 . S
C1405 C1404 1.327 . S
C1405 C1409 1.429 . S
C1406 C1389 1.574 1_545 S
C1406 H1400 0.949 . S
C1406 C1410 1.368 . S
C1407 C1388 1.429 . S
C1407 C1401 1.429 . S
C1407 C1408 1.523 . S
C1408 C1389 1.368 . S
C1408 C1402 1.368 . S
C1408 C1407 1.523 . S
C1409 C1393 1.429 . S
C1409 C1405 1.429 . S
C1409 C1410 1.523 . S
C1410 C1394 1.368 . S
C1410 C1406 1.368 . S
C1410 C1409 1.523 . S
H1411 C1386 0.950 . S
H1412 C1388 0.950 . S
H1413 C1389 0.949 . S
H1414 C1391 0.950 . S
H1415 C1393 0.950 . S
C1416 C1417 1.349 . S
C1416 C1418 1.327 . S
C1416 H1441 0.950 . S
C1417 C1416 1.349 . S
C1417 C1433 1.349 . S
C1418 C1416 1.327 . S
C1418 C1437 1.429 . S
C1418 H1442 0.950 . S
C1419 C1436 1.574 . S
C1419 C1438 1.368 1_554 S
C1419 H1443 0.949 . S
H1420 C1424 0.949 . S
C1421 C1422 1.349 . S
C1421 C1423 1.327 . S
C1421 H1444 0.950 . S
C1422 C1421 1.349 . S
C1422 C1434 1.349 . S
C1423 C1421 1.327 . S
C1423 C1439 1.429 . S
C1423 H1445 0.950 . S
C1424 H1420 0.949 . S
C1424 C1432 1.574 . S
C1424 C1440 1.368 1_556 S
H1425 C1433 0.950 . S
H1426 C1431 0.950 1_554 S
H1427 C1432 0.949 . S
H1428 C1434 0.950 . S
H1429 C1435 0.950 1_556 S
H1430 C1436 0.949 . S
C1431 H1426 0.950 1_556 S
C1431 C1433 1.327 . S
C1431 C1437 1.429 . S
C1432 C1424 1.574 . S
C1432 H1427 0.949 . S
C1432 C1438 1.368 . S
C1433 C1417 1.349 . S
C1433 H1425 0.950 . S
C1433 C1431 1.327 . S
C1434 C1422 1.349 . S
C1434 H1428 0.950 . S
C1434 C1435 1.327 . S
C1435 H1429 0.950 1_554 S
C1435 C1434 1.327 . S
C1435 C1439 1.429 . S
C1436 C1419 1.574 . S
C1436 H1430 0.949 . S
C1436 C1440 1.368 . S
C1437 C1418 1.429 . S
C1437 C1431 1.429 . S
C1437 C1438 1.523 . S
C1438 C1419 1.368 1_556 S
C1438 C1432 1.368 . S
C1438 C1437 1.523 . S
C1439 C1423 1.429 . S
C1439 C1435 1.429 . S
C1439 C1440 1.523 . S
C1440 C1424 1.368 1_554 S
C1440 C1436 1.368 . S
C1440 C1439 1.523 . S
H1441 C1416 0.950 . S
H1442 C1418 0.950 . S
H1443 C1419 0.949 . S
H1444 C1421 0.950 . S
H1445 C1423 0.950 . S
C1446 C1447 1.349 . S
C1446 C1448 1.327 . S
C1446 H1471 0.950 . S
C1447 C1446 1.349 . S
C1447 C1463 1.349 . S
C1448 C1446 1.327 . S
C1448 C1467 1.429 . S
C1448 H1472 0.950 . S
C1449 C1466 1.574 . S
C1449 C1468 1.368 . S
C1449 H1473 0.949 . S
H1450 C1454 0.949 . S
C1451 C1452 1.349 . S
C1451 C1453 1.327 . S
C1451 H1474 0.950 . S
C1452 C1451 1.349 . S
C1452 C1464 1.349 . S
C1453 C1451 1.327 . S
C1453 C1469 1.429 . S
C1453 H1475 0.950 . S
C1454 H1450 0.949 . S
C1454 C1462 1.574 . S
C1454 C1470 1.368 . S
H1455 C1463 0.950 . S
H1456 C1461 0.950 . S
H1457 C1462 0.949 . S
H1458 C1464 0.950 . S
H1459 C1465 0.950 . S
H1460 C1466 0.949 . S
C1461 H1456 0.950 . S
C1461 C1463 1.327 . S
C1461 C1467 1.429 . S
C1462 C1454 1.574 . S
C1462 H1457 0.949 . S
C1462 C1468 1.368 . S
C1463 C1447 1.349 . S
C1463 H1455 0.950 . S
C1463 C1461 1.327 . S
C1464 C1452 1.349 . S
C1464 H1458 0.950 . S
C1464 C1465 1.327 . S
C1465 H1459 0.950 . S
C1465 C1464 1.327 . S
C1465 C1469 1.429 . S
C1466 C1449 1.574 . S
C1466 H1460 0.949 . S
C1466 C1470 1.368 . S
C1467 C1448 1.429 . S
C1467 C1461 1.429 . S
C1467 C1468 1.523 . S
C1468 C1449 1.368 . S
C1468 C1462 1.368 . S
C1468 C1467 1.523 . S
C1469 C1453 1.429 . S
C1469 C1465 1.429 . S
C1469 C1470 1.523 . S
C1470 C1454 1.368 . S
C1470 C1466 1.368 . S
C1470 C1469 1.523 . S
H1471 C1446 0.950 . S
H1472 C1448 0.950 . S
H1473 C1449 0.949 . S
H1474 C1451 0.950 . S
H1475 C1453 0.950 . S
C1476 C1477 1.349 . S
C1476 C1478 1.327 . S
C1476 H1501 0.950 . S
C1477 C1476 1.349 . S
C1477 C1493 1.349 . S
C1478 C1476 1.327 . S
C1478 C1497 1.429 . S
C1478 H1502 0.950 . S
C1479 C1496 1.574 . S
C1479 C1498 1.368 . S
C1479 H1503 0.949 . S
H1480 C1484 0.949 . S
C1481 C1482 1.349 . S
C1481 C1483 1.327 . S
C1481 H1504 0.950 . S
C1482 C1481 1.349 . S
C1482 C1494 1.349 . S
C1483 C1481 1.327 . S
C1483 C1499 1.429 . S
C1483 H1505 0.950 . S
C1484 H1480 0.949 . S
C1484 C1492 1.574 . S
C1484 C1500 1.368 . S
H1485 C1493 0.950 . S
H1486 C1491 0.950 . S
H1487 C1492 0.949 . S
H1488 C1494 0.950 . S
H1489 C1495 0.950 . S
H1490 C1496 0.949 . S
C1491 H1486 0.950 . S
C1491 C1493 1.327 . S
C1491 C1497 1.429 . S
C1492 C1484 1.574 . S
C1492 H1487 0.949 . S
C1492 C1498 1.368 1_554 S
C1493 C1477 1.349 . S
C1493 H1485 0.950 . S
C1493 C1491 1.327 . S
C1494 C1482 1.349 . S
C1494 H1488 0.950 . S
C1494 C1495 1.327 . S
C1495 H1489 0.950 . S
C1495 C1494 1.327 . S
C1495 C1499 1.429 . S
C1496 C1479 1.574 . S
C1496 H1490 0.949 . S
C1496 C1500 1.368 1_556 S
C1497 C1478 1.429 . S
C1497 C1491 1.429 . S
C1497 C1498 1.523 . S
C1498 C1479 1.368 . S
C1498 C1492 1.368 1_556 S
C1498 C1497 1.523 . S
C1499 C1483 1.429 . S
C1499 C1495 1.429 . S
C1499 C1500 1.523 . S
C1500 C1484 1.368 . S
C1500 C1496 1.368 1_554 S
C1500 C1499 1.523 . S
H1501 C1476 0.950 . S
H1502 C1478 0.950 . S
H1503 C1479 0.949 . S
H1504 C1481 0.950 . S
H1505 C1483 0.950 . S
C1506 C1507 1.349 . S
C1506 C1508 1.327 . S
C1506 H1531 0.950 . S
C1507 C1506 1.349 . S
C1507 C1523 1.349 . S
C1508 C1506 1.327 . S
C1508 C1527 1.429 . S
C1508 H1532 0.950 . S
C1509 C1526 1.574 . S
C1509 C1528 1.368 . S
C1509 H1533 0.949 . S
H1510 C1514 0.949 . S
C1511 C1512 1.349 . S
C1511 C1513 1.327 . S
C1511 H1534 0.950 . S
C1512 C1511 1.349 . S
C1512 C1524 1.349 . S
C1513 C1511 1.327 . S
C1513 C1529 1.429 . S
C1513 H1535 0.950 . S
C1514 H1510 0.949 . S
C1514 C1522 1.574 . S
C1514 C1530 1.368 . S
H1515 C1523 0.950 . S
H1516 C1521 0.950 . S
H1517 C1522 0.949 . S
H1518 C1524 0.950 . S
H1519 C1525 0.950 . S
H1520 C1526 0.949 . S
C1521 H1516 0.950 . S
C1521 C1523 1.327 . S
C1521 C1527 1.429 . S
C1522 C1514 1.574 . S
C1522 H1517 0.949 . S
C1522 C1528 1.368 . S
C1523 C1507 1.349 . S
C1523 H1515 0.950 . S
C1523 C1521 1.327 . S
C1524 C1512 1.349 . S
C1524 H1518 0.950 . S
C1524 C1525 1.327 . S
C1525 H1519 0.950 . S
C1525 C1524 1.327 . S
C1525 C1529 1.429 . S
C1526 C1509 1.574 . S
C1526 H1520 0.949 . S
C1526 C1530 1.368 . S
C1527 C1508 1.429 . S
C1527 C1521 1.429 . S
C1527 C1528 1.523 . S
C1528 C1509 1.368 . S
C1528 C1522 1.368 . S
C1528 C1527 1.523 . S
C1529 C1513 1.429 . S
C1529 C1525 1.429 . S
C1529 C1530 1.523 . S
C1530 C1514 1.368 . S
C1530 C1526 1.368 . S
C1530 C1529 1.523 . S
H1531 C1506 0.950 . S
H1532 C1508 0.950 . S
H1533 C1509 0.949 . S
H1534 C1511 0.950 . S
H1535 C1513 0.950 . S
C1536 C1537 1.349 . S
C1536 C1538 1.327 . S
C1536 H1561 0.950 . S
C1537 C1536 1.349 . S
C1537 C1553 1.349 . S
C1538 C1536 1.327 . S
C1538 C1557 1.429 . S
C1538 H1562 0.950 . S
C1539 C1556 1.574 . S
C1539 C1558 1.368 1_554 S
C1539 H1563 0.949 . S
H1540 C1544 0.949 . S
C1541 C1542 1.349 . S
C1541 C1543 1.327 . S
C1541 H1564 0.950 . S
C1542 C1541 1.349 . S
C1542 C1554 1.349 . S
C1543 C1541 1.327 . S
C1543 C1559 1.429 . S
C1543 H1565 0.950 . S
C1544 H1540 0.949 . S
C1544 C1552 1.574 . S
C1544 C1560 1.368 1_556 S
H1545 C1553 0.950 . S
H1546 C1551 0.950 . S
H1547 C1552 0.949 . S
H1548 C1554 0.950 . S
H1549 C1555 0.950 . S
H1550 C1556 0.949 . S
C1551 H1546 0.950 . S
C1551 C1553 1.327 . S
C1551 C1557 1.429 . S
C1552 C1544 1.574 . S
C1552 H1547 0.949 . S
C1552 C1558 1.368 . S
C1553 C1537 1.349 . S
C1553 H1545 0.950 . S
C1553 C1551 1.327 . S
C1554 C1542 1.349 . S
C1554 H1548 0.950 . S
C1554 C1555 1.327 . S
C1555 H1549 0.950 . S
C1555 C1554 1.327 . S
C1555 C1559 1.429 . S
C1556 C1539 1.574 . S
C1556 H1550 0.949 . S
C1556 C1560 1.368 . S
C1557 C1538 1.429 . S
C1557 C1551 1.429 . S
C1557 C1558 1.523 . S
C1558 C1539 1.368 1_556 S
C1558 C1552 1.368 . S
C1558 C1557 1.523 . S
C1559 C1543 1.429 . S
C1559 C1555 1.429 . S
C1559 C1560 1.523 . S
C1560 C1544 1.368 1_554 S
C1560 C1556 1.368 . S
C1560 C1559 1.523 . S
H1561 C1536 0.950 . S
H1562 C1538 0.950 . S
H1563 C1539 0.949 . S
H1564 C1541 0.950 . S
H1565 C1543 0.950 . S
C1566 C1567 1.349 . S
C1566 C1568 1.327 . S
C1566 H1591 0.950 . S
C1567 C1566 1.349 . S
C1567 C1583 1.349 . S
C1568 C1566 1.327 . S
C1568 C1587 1.429 . S
C1568 H1592 0.950 . S
C1569 C1586 1.574 . S
C1569 C1588 1.368 . S
C1569 H1593 0.949 . S
H1570 C1574 0.949 . S
C1571 C1572 1.349 . S
C1571 C1573 1.327 . S
C1571 H1594 0.950 . S
C1572 C1571 1.349 . S
C1572 C1584 1.349 . S
C1573 C1571 1.327 . S
C1573 C1589 1.429 . S
C1573 H1595 0.950 . S
C1574 H1570 0.949 . S
C1574 C1582 1.574 . S
C1574 C1590 1.368 . S
H1575 C1583 0.950 . S
H1576 C1581 0.950 . S
H1577 C1582 0.949 . S
H1578 C1584 0.950 . S
H1579 C1585 0.950 . S
H1580 C1586 0.949 . S
C1581 H1576 0.950 . S
C1581 C1583 1.327 . S
C1581 C1587 1.429 . S
C1582 C1574 1.574 . S
C1582 H1577 0.949 . S
C1582 C1588 1.368 . S
C1583 C1567 1.349 . S
C1583 H1575 0.950 . S
C1583 C1581 1.327 . S
C1584 C1572 1.349 . S
C1584 H1578 0.950 . S
C1584 C1585 1.327 . S
C1585 H1579 0.950 . S
C1585 C1584 1.327 . S
C1585 C1589 1.429 . S
C1586 C1569 1.574 . S
C1586 H1580 0.949 . S
C1586 C1590 1.368 . S
C1587 C1568 1.429 . S
C1587 C1581 1.429 . S
C1587 C1588 1.523 . S
C1588 C1569 1.368 . S
C1588 C1582 1.368 . S
C1588 C1587 1.523 . S
C1589 C1573 1.429 . S
C1589 C1585 1.429 . S
C1589 C1590 1.523 . S
C1590 C1574 1.368 . S
C1590 C1586 1.368 . S
C1590 C1589 1.523 . S
H1591 C1566 0.950 . S
H1592 C1568 0.950 . S
H1593 C1569 0.949 . S
H1594 C1571 0.950 . S
H1595 C1573 0.950 . S
C1596 C1597 1.349 . S
C1596 C1598 1.327 . S
C1596 H1621 0.950 . S
C1597 C1596 1.349 . S
C1597 C1613 1.349 . S
C1598 C1596 1.327 . S
C1598 C1617 1.429 . S
C1598 H1622 0.950 . S
C1599 C1616 1.574 . S
C1599 C1618 1.368 1_556 S
C1599 H1623 0.949 . S
H1600 C1604 0.949 . S
C1601 C1602 1.349 . S
C1601 C1603 1.327 . S
C1601 H1624 0.950 . S
C1602 C1601 1.349 . S
C1602 C1614 1.349 . S
C1603 C1601 1.327 . S
C1603 C1619 1.429 . S
C1603 H1625 0.950 . S
C1604 H1600 0.949 . S
C1604 C1612 1.574 . S
C1604 C1620 1.368 1_554 S
H1605 C1613 0.950 . S
H1606 C1611 0.950 1_556 S
H1607 C1612 0.949 . S
H1608 C1614 0.950 . S
H1609 C1615 0.950 1_554 S
H1610 C1616 0.949 . S
C1611 H1606 0.950 1_554 S
C1611 C1613 1.327 . S
C1611 C1617 1.429 . S
C1612 C1604 1.574 . S
C1612 H1607 0.949 . S
C1612 C1618 1.368 . S
C1613 C1597 1.349 . S
C1613 H1605 0.950 . S
C1613 C1611 1.327 . S
C1614 C1602 1.349 . S
C1614 H1608 0.950 . S
C1614 C1615 1.327 . S
C1615 H1609 0.950 1_556 S
C1615 C1614 1.327 . S
C1615 C1619 1.429 . S
C1616 C1599 1.574 . S
C1616 H1610 0.949 . S
C1616 C1620 1.368 . S
C1617 C1598 1.429 . S
C1617 C1611 1.429 . S
C1617 C1618 1.523 . S
C1618 C1599 1.368 1_554 S
C1618 C1612 1.368 . S
C1618 C1617 1.523 . S
C1619 C1603 1.429 . S
C1619 C1615 1.429 . S
C1619 C1620 1.523 . S
C1620 C1604 1.368 1_556 S
C1620 C1616 1.368 . S
C1620 C1619 1.523 . S
H1621 C1596 0.950 . S
H1622 C1598 0.950 . S
H1623 C1599 0.949 . S
H1624 C1601 0.950 . S
H1625 C1603 0.950 . S
C1626 C1627 1.349 . S
C1626 C1628 1.327 . S
C1626 H1651 0.950 . S
C1627 C1626 1.349 . S
C1627 C1643 1.349 . S
C1628 C1626 1.327 . S
C1628 C1647 1.429 . S
C1628 H1652 0.950 . S
C1629 C1646 1.574 . S
C1629 C1648 1.368 . S
C1629 H1653 0.949 . S
H1630 C1634 0.949 . S
C1631 C1632 1.349 . S
C1631 C1633 1.327 . S
C1631 H1654 0.950 . S
C1632 C1631 1.349 . S
C1632 C1644 1.349 . S
C1633 C1631 1.327 . S
C1633 C1649 1.429 . S
C1633 H1655 0.950 . S
C1634 H1630 0.949 . S
C1634 C1642 1.574 . S
C1634 C1650 1.368 . S
H1635 C1643 0.950 . S
H1636 C1641 0.950 . S
H1637 C1642 0.949 . S
H1638 C1644 0.950 . S
H1639 C1645 0.950 . S
H1640 C1646 0.949 . S
C1641 H1636 0.950 . S
C1641 C1643 1.327 . S
C1641 C1647 1.429 . S
C1642 C1634 1.574 . S
C1642 H1637 0.949 . S
C1642 C1648 1.368 . S
C1643 C1627 1.349 . S
C1643 H1635 0.950 . S
C1643 C1641 1.327 . S
C1644 C1632 1.349 . S
C1644 H1638 0.950 . S
C1644 C1645 1.327 . S
C1645 H1639 0.950 . S
C1645 C1644 1.327 . S
C1645 C1649 1.429 . S
C1646 C1629 1.574 . S
C1646 H1640 0.949 . S
C1646 C1650 1.368 . S
C1647 C1628 1.429 . S
C1647 C1641 1.429 . S
C1647 C1648 1.523 . S
C1648 C1629 1.368 . S
C1648 C1642 1.368 . S
C1648 C1647 1.523 . S
C1649 C1633 1.429 . S
C1649 C1645 1.429 . S
C1649 C1650 1.523 . S
C1650 C1634 1.368 . S
C1650 C1646 1.368 . S
C1650 C1649 1.523 . S
H1651 C1626 0.950 . S
H1652 C1628 0.950 . S
H1653 C1629 0.949 . S
H1654 C1631 0.950 . S
H1655 C1633 0.950 . S
C1656 C1657 1.349 . S
C1656 C1658 1.327 . S
C1656 H1681 0.950 . S
C1657 C1656 1.349 . S
C1657 C1673 1.349 . S
C1658 C1656 1.327 . S
C1658 C1677 1.429 . S
C1658 H1682 0.950 . S
C1659 C1676 1.574 . S
C1659 C1678 1.368 . S
C1659 H1683 0.949 . S
H1660 C1664 0.949 . S
C1661 C1662 1.349 . S
C1661 C1663 1.327 . S
C1661 H1684 0.950 . S
C1662 C1661 1.349 . S
C1662 C1674 1.349 . S
C1663 C1661 1.327 . S
C1663 C1679 1.429 . S
C1663 H1685 0.950 . S
C1664 H1660 0.949 . S
C1664 C1672 1.574 . S
C1664 C1680 1.368 . S
H1665 C1673 0.950 . S
H1666 C1671 0.950 . S
H1667 C1672 0.949 . S
H1668 C1674 0.950 . S
H1669 C1675 0.950 . S
H1670 C1676 0.949 . S
C1671 H1666 0.950 . S
C1671 C1673 1.327 . S
C1671 C1677 1.429 . S
C1672 C1664 1.574 . S
C1672 H1667 0.949 . S
C1672 C1678 1.368 1_556 S
C1673 C1657 1.349 . S
C1673 H1665 0.950 . S
C1673 C1671 1.327 . S
C1674 C1662 1.349 . S
C1674 H1668 0.950 . S
C1674 C1675 1.327 . S
C1675 H1669 0.950 . S
C1675 C1674 1.327 . S
C1675 C1679 1.429 . S
C1676 C1659 1.574 . S
C1676 H1670 0.949 . S
C1676 C1680 1.368 1_554 S
C1677 C1658 1.429 . S
C1677 C1671 1.429 . S
C1677 C1678 1.523 . S
C1678 C1659 1.368 . S
C1678 C1672 1.368 1_554 S
C1678 C1677 1.523 . S
C1679 C1663 1.429 . S
C1679 C1675 1.429 . S
C1679 C1680 1.523 . S
C1680 C1664 1.368 . S
C1680 C1676 1.368 1_556 S
C1680 C1679 1.523 . S
H1681 C1656 0.950 . S
H1682 C1658 0.950 . S
H1683 C1659 0.949 . S
H1684 C1661 0.950 . S
H1685 C1663 0.950 . S
C1686 C1687 1.349 . S
C1686 C1688 1.327 . S
C1686 H1711 0.950 . S
C1687 C1686 1.349 . S
C1687 C1703 1.349 . S
C1688 C1686 1.327 . S
C1688 C1707 1.429 . S
C1688 H1712 0.950 . S
C1689 C1706 1.574 . S
C1689 C1708 1.368 . S
C1689 H1713 0.949 . S
H1690 C1694 0.949 . S
C1691 C1692 1.349 . S
C1691 C1693 1.327 . S
C1691 H1714 0.950 . S
C1692 C1691 1.349 . S
C1692 C1704 1.349 . S
C1693 C1691 1.327 . S
C1693 C1709 1.429 . S
C1693 H1715 0.950 . S
C1694 H1690 0.949 . S
C1694 C1702 1.574 . S
C1694 C1710 1.368 . S
H1695 C1703 0.950 . S
H1696 C1701 0.950 . S
H1697 C1702 0.949 . S
H1698 C1704 0.950 . S
H1699 C1705 0.950 . S
H1700 C1706 0.949 . S
C1701 H1696 0.950 . S
C1701 C1703 1.327 . S
C1701 C1707 1.429 . S
C1702 C1694 1.574 . S
C1702 H1697 0.949 . S
C1702 C1708 1.368 . S
C1703 C1687 1.349 . S
C1703 H1695 0.950 . S
C1703 C1701 1.327 . S
C1704 C1692 1.349 . S
C1704 H1698 0.950 . S
C1704 C1705 1.327 . S
C1705 H1699 0.950 . S
C1705 C1704 1.327 . S
C1705 C1709 1.429 . S
C1706 C1689 1.574 . S
C1706 H1700 0.949 . S
C1706 C1710 1.368 . S
C1707 C1688 1.429 . S
C1707 C1701 1.429 . S
C1707 C1708 1.523 . S
C1708 C1689 1.368 . S
C1708 C1702 1.368 . S
C1708 C1707 1.523 . S
C1709 C1693 1.429 . S
C1709 C1705 1.429 . S
C1709 C1710 1.523 . S
C1710 C1694 1.368 . S
C1710 C1706 1.368 . S
C1710 C1709 1.523 . S
H1711 C1686 0.950 . S
H1712 C1688 0.950 . S
H1713 C1689 0.949 . S
H1714 C1691 0.950 . S
H1715 C1693 0.950 . S
C1716 C1717 1.349 . S
C1716 C1718 1.327 . S
C1716 H1741 0.950 . S
C1717 C1716 1.349 . S
C1717 C1733 1.349 . S
C1718 C1716 1.327 . S
C1718 C1737 1.429 . S
C1718 H1742 0.950 . S
C1719 C1736 1.593 . S
C1719 C1738 1.368 . S
C1719 H1743 0.949 . S
H1720 C1724 0.949 . S
C1721 C1722 1.349 . S
C1721 C1723 1.327 . S
C1721 H1744 0.950 . S
C1722 C1721 1.349 . S
C1722 C1734 1.349 . S
C1723 C1721 1.327 . S
C1723 C1739 1.429 . S
C1723 H1745 0.950 . S
C1724 H1720 0.949 . S
C1724 C1732 1.593 . S
C1724 C1740 1.368 . S
H1725 C1733 0.950 . S
H1726 C1731 0.950 . S
H1727 C1732 0.951 . S
H1728 C1734 0.950 . S
H1729 C1735 0.950 . S
H1730 C1736 0.951 . S
C1731 H1726 0.950 . S
C1731 C1733 1.327 . S
C1731 C1737 1.429 . S
C1732 C1724 1.593 . S
C1732 H1727 0.951 . S
C1732 C1738 1.349 1_554 S
C1733 C1717 1.349 . S
C1733 H1725 0.950 . S
C1733 C1731 1.327 . S
C1734 C1722 1.349 . S
C1734 H1728 0.950 . S
C1734 C1735 1.327 . S
C1735 H1729 0.950 . S
C1735 C1734 1.327 . S
C1735 C1739 1.429 . S
C1736 C1719 1.593 . S
C1736 H1730 0.951 . S
C1736 C1740 1.349 1_556 S
C1737 C1718 1.429 . S
C1737 C1731 1.429 . S
C1737 C1738 1.523 . S
C1738 C1719 1.368 . S
C1738 C1732 1.349 1_556 S
C1738 C1737 1.523 . S
C1739 C1723 1.429 . S
C1739 C1735 1.429 . S
C1739 C1740 1.523 . S
C1740 C1724 1.368 . S
C1740 C1736 1.349 1_554 S
C1740 C1739 1.523 . S
H1741 C1716 0.950 . S
H1742 C1718 0.950 . S
H1743 C1719 0.949 . S
H1744 C1721 0.950 . S
H1745 C1723 0.950 . S
C1746 C1747 1.349 . S
C1746 C1748 1.327 . S
C1746 H1771 0.950 . S
C1747 C1746 1.349 . S
C1747 C1763 1.349 . S
C1748 C1746 1.327 . S
C1748 C1767 1.429 . S
C1748 H1772 0.950 . S
C1749 C1766 1.574 . S
C1749 C1768 1.368 . S
C1749 H1773 0.949 . S
H1750 C1754 0.949 . S
C1751 C1752 1.349 . S
C1751 C1753 1.327 . S
C1751 H1774 0.950 . S
C1752 C1751 1.349 . S
C1752 C1764 1.349 . S
C1753 C1751 1.327 . S
C1753 C1769 1.429 . S
C1753 H1775 0.950 . S
C1754 H1750 0.949 . S
C1754 C1762 1.574 . S
C1754 C1770 1.368 . S
H1755 C1763 0.950 . S
H1756 C1761 0.950 . S
H1757 C1762 0.949 . S
H1758 C1764 0.950 . S
H1759 C1765 0.950 . S
H1760 C1766 0.949 . S
C1761 H1756 0.950 . S
C1761 C1763 1.327 . S
C1761 C1767 1.429 . S
C1762 C1754 1.574 . S
C1762 H1757 0.949 . S
C1762 C1768 1.368 . S
C1763 C1747 1.349 . S
C1763 H1755 0.950 . S
C1763 C1761 1.327 . S
C1764 C1752 1.349 . S
C1764 H1758 0.950 . S
C1764 C1765 1.327 . S
C1765 H1759 0.950 . S
C1765 C1764 1.327 . S
C1765 C1769 1.429 . S
C1766 C1749 1.574 . S
C1766 H1760 0.949 . S
C1766 C1770 1.368 . S
C1767 C1748 1.429 . S
C1767 C1761 1.429 . S
C1767 C1768 1.523 . S
C1768 C1749 1.368 . S
C1768 C1762 1.368 . S
C1768 C1767 1.523 . S
C1769 C1753 1.429 . S
C1769 C1765 1.429 . S
C1769 C1770 1.523 . S
C1770 C1754 1.368 . S
C1770 C1766 1.368 . S
C1770 C1769 1.523 . S
H1771 C1746 0.950 . S
H1772 C1748 0.950 . S
H1773 C1749 0.949 . S
H1774 C1751 0.950 . S
H1775 C1753 0.950 . S
C337 C0 1.476 . S
C342 C210 1.476 . S
C367 C14 1.477 . S
C372 C224 1.477 . S
C397 C238 1.477 . S
C402 C28 1.477 . S
C427 C168 1.476 . S
C432 C42 1.476 . S
C457 C182 1.477 . S
C462 C56 1.477 . S
C487 C196 1.477 . S
C492 C70 1.477 . S
C517 C294 1.476 . S
C522 C84 1.476 . S
C547 C98 1.477 . S
C552 C308 1.477 . S
C577 C322 1.477 . S
C582 C112 1.477 . S
C607 C126 1.476 . S
C612 C252 1.476 . S
C637 C266 1.477 . S
C642 C140 1.477 . S
C667 C154 1.477 . S
C672 C280 1.477 . S
C697 C151 1.320 . S
C702 C11 1.320 . S
C727 C165 1.321 . S
C732 C25 1.321 . S
C757 C39 1.321 . S
C762 C95 1.321 . S
C787 C53 1.322 . S
C792 C109 1.322 . S
C817 C123 1.321 . S
C822 C67 1.321 . S
C847 C81 1.321 . S
C852 C137 1.321 . S
C877 C319 1.321 . S
C882 C179 1.321 . S
C907 C193 1.321 . S
C912 C333 1.321 . S
C937 C207 1.320 . S
C942 C263 1.320 . S
C967 C277 1.321 . S
C972 C221 1.321 . S
C997 C235 1.321 . S
C1002 C291 1.321 . S
C1027 C249 1.322 . S
C1032 C305 1.322 . S
C1057 C5 1.370 . S
C1062 C257 1.370 . S
C1087 C271 1.369 . S
C1092 C19 1.369 . S
C1117 C33 1.369 . S
C1122 C285 1.369 . S
C1147 C47 1.368 . S
C1152 C299 1.368 . S
C1177 C313 1.369 . S
C1182 C61 1.369 . S
C1207 C75 1.369 . S
C1212 C327 1.369 . S
C1237 C89 1.368 . S
C1242 C173 1.368 . S
C1267 C103 1.368 . S
C1272 C187 1.368 . S
C1297 C201 1.369 . S
C1302 C117 1.369 . S
C1327 C215 1.369 . S
C1332 C131 1.369 . S
C1357 C145 1.369 . S
C1362 C229 1.369 . S
C1387 C243 1.368 . S
C1392 C159 1.368 . S
C1417 C93 1.513 . S
C1422 C9 1.513 . S
C1447 C23 1.513 . S
C1452 C107 1.513 . S
C1477 C121 1.514 . S
C1482 C37 1.514 . S
C1507 C135 1.513 . S
C1512 C51 1.513 . S
C1537 C149 1.514 . S
C1542 C65 1.514 . S
C1567 C79 1.514 . S
C1572 C163 1.514 . S
C1597 C261 1.513 . S
C1602 C177 1.513 . S
C1627 C191 1.514 . S
C1632 C275 1.514 . S
C1657 C289 1.514 . S
C1662 C205 1.514 . S
C1687 C303 1.513 . S
C1692 C219 1.513 . S
C1717 C233 1.514 . S
C1722 C317 1.514 . S
C1747 C247 1.513 . S
C1752 C331 1.513 . S
