# Generated by pormake.
# Topology uox, (4)-cn, num edge types: 1
# Building blocks:
#     Node 0, Type 0, BuildingBlock: UXUYUI_clean_sbu_0, # of connection points: 4
#     Node 1, Type 0, BuildingBlock: UXUYUI_clean_sbu_0, # of connection points: 4
#     Node 2, Type 0, BuildingBlock: UXUYUI_clean_sbu_0, # of connection points: 4
#     Node 3, Type 0, BuildingBlock: UXUYUI_clean_sbu_0, # of connection points: 4
#     Node 4, Type 0, BuildingBlock: UXUYUI_clean_sbu_0, # of connection points: 4
#     Node 5, Type 0, BuildingBlock: UXUYUI_clean_sbu_0, # of connection points: 4
#     Node 6, Type 0, BuildingBlock: UXUYUI_clean_sbu_0, # of connection points: 4
#     Node 7, Type 0, BuildingBlock: UXUYUI_clean_sbu_0, # of connection points: 4
#     Node 8, Type 0, BuildingBlock: UXUYUI_clean_sbu_0, # of connection points: 4
#     Node 9, Type 0, BuildingBlock: UXUYUI_clean_sbu_0, # of connection points: 4
#     Node 10, Type 0, BuildingBlock: UXUYUI_clean_sbu_0, # of connection points: 4
#     Node 11, Type 0, BuildingBlock: UXUYUI_clean_sbu_0, # of connection points: 4
#     Node 12, Type 0, BuildingBlock: UXUYUI_clean_sbu_0, # of connection points: 4
#     Node 13, Type 0, BuildingBlock: UXUYUI_clean_sbu_0, # of connection points: 4
#     Node 14, Type 0, BuildingBlock: UXUYUI_clean_sbu_0, # of connection points: 4
#     Node 15, Type 0, BuildingBlock: UXUYUI_clean_sbu_0, # of connection points: 4
#     Node 16, Type 0, BuildingBlock: UXUYUI_clean_sbu_0, # of connection points: 4
#     Node 17, Type 0, BuildingBlock: UXUYUI_clean_sbu_0, # of connection points: 4
#     Node 18, Type 0, BuildingBlock: UXUYUI_clean_sbu_0, # of connection points: 4
#     Node 19, Type 0, BuildingBlock: UXUYUI_clean_sbu_0, # of connection points: 4
#     Node 20, Type 0, BuildingBlock: UXUYUI_clean_sbu_0, # of connection points: 4
#     Node 21, Type 0, BuildingBlock: UXUYUI_clean_sbu_0, # of connection points: 4
#     Node 22, Type 0, BuildingBlock: UXUYUI_clean_sbu_0, # of connection points: 4
#     Node 23, Type 0, BuildingBlock: UXUYUI_clean_sbu_0, # of connection points: 4
#     Node 24, Type 0, BuildingBlock: UXUYUI_clean_sbu_0, # of connection points: 4
#     Node 25, Type 0, BuildingBlock: UXUYUI_clean_sbu_0, # of connection points: 4
#     Node 26, Type 0, BuildingBlock: UXUYUI_clean_sbu_0, # of connection points: 4
#     Node 27, Type 0, BuildingBlock: UXUYUI_clean_sbu_0, # of connection points: 4
#     Node 28, Type 0, BuildingBlock: UXUYUI_clean_sbu_0, # of connection points: 4
#     Node 29, Type 0, BuildingBlock: UXUYUI_clean_sbu_0, # of connection points: 4
#     Node 30, Type 0, BuildingBlock: UXUYUI_clean_sbu_0, # of connection points: 4
#     Node 31, Type 0, BuildingBlock: UXUYUI_clean_sbu_0, # of connection points: 4
#     Edge 32, Type (0, 0), BuildingBlock: OJICUG_clean_linker_0, # of connection points: 2
#     Edge 33, Type (0, 0), BuildingBlock: OJICUG_clean_linker_0, # of connection points: 2
#     Edge 34, Type (0, 0), BuildingBlock: OJICUG_clean_linker_0, # of connection points: 2
#     Edge 35, Type (0, 0), BuildingBlock: OJICUG_clean_linker_0, # of connection points: 2
#     Edge 36, Type (0, 0), BuildingBlock: OJICUG_clean_linker_0, # of connection points: 2
#     Edge 37, Type (0, 0), BuildingBlock: OJICUG_clean_linker_0, # of connection points: 2
#     Edge 38, Type (0, 0), BuildingBlock: OJICUG_clean_linker_0, # of connection points: 2
#     Edge 39, Type (0, 0), BuildingBlock: OJICUG_clean_linker_0, # of connection points: 2
#     Edge 40, Type (0, 0), BuildingBlock: OJICUG_clean_linker_0, # of connection points: 2
#     Edge 41, Type (0, 0), BuildingBlock: OJICUG_clean_linker_0, # of connection points: 2
#     Edge 42, Type (0, 0), BuildingBlock: OJICUG_clean_linker_0, # of connection points: 2
#     Edge 43, Type (0, 0), BuildingBlock: OJICUG_clean_linker_0, # of connection points: 2
#     Edge 44, Type (0, 0), BuildingBlock: OJICUG_clean_linker_0, # of connection points: 2
#     Edge 45, Type (0, 0), BuildingBlock: OJICUG_clean_linker_0, # of connection points: 2
#     Edge 46, Type (0, 0), BuildingBlock: OJICUG_clean_linker_0, # of connection points: 2
#     Edge 47, Type (0, 0), BuildingBlock: OJICUG_clean_linker_0, # of connection points: 2
#     Edge 48, Type (0, 0), BuildingBlock: OJICUG_clean_linker_0, # of connection points: 2
#     Edge 49, Type (0, 0), BuildingBlock: OJICUG_clean_linker_0, # of connection points: 2
#     Edge 50, Type (0, 0), BuildingBlock: OJICUG_clean_linker_0, # of connection points: 2
#     Edge 51, Type (0, 0), BuildingBlock: OJICUG_clean_linker_0, # of connection points: 2
#     Edge 52, Type (0, 0), BuildingBlock: OJICUG_clean_linker_0, # of connection points: 2
#     Edge 53, Type (0, 0), BuildingBlock: OJICUG_clean_linker_0, # of connection points: 2
#     Edge 54, Type (0, 0), BuildingBlock: OJICUG_clean_linker_0, # of connection points: 2
#     Edge 55, Type (0, 0), BuildingBlock: OJICUG_clean_linker_0, # of connection points: 2
#     Edge 56, Type (0, 0), BuildingBlock: OJICUG_clean_linker_0, # of connection points: 2
#     Edge 57, Type (0, 0), BuildingBlock: OJICUG_clean_linker_0, # of connection points: 2
#     Edge 58, Type (0, 0), BuildingBlock: OJICUG_clean_linker_0, # of connection points: 2
#     Edge 59, Type (0, 0), BuildingBlock: OJICUG_clean_linker_0, # of connection points: 2
#     Edge 60, Type (0, 0), BuildingBlock: OJICUG_clean_linker_0, # of connection points: 2
#     Edge 61, Type (0, 0), BuildingBlock: OJICUG_clean_linker_0, # of connection points: 2
#     Edge 62, Type (0, 0), BuildingBlock: OJICUG_clean_linker_0, # of connection points: 2
#     Edge 63, Type (0, 0), BuildingBlock: OJICUG_clean_linker_0, # of connection points: 2
#     Edge 64, Type (0, 0), BuildingBlock: OJICUG_clean_linker_0, # of connection points: 2
#     Edge 65, Type (0, 0), BuildingBlock: OJICUG_clean_linker_0, # of connection points: 2
#     Edge 66, Type (0, 0), BuildingBlock: OJICUG_clean_linker_0, # of connection points: 2
#     Edge 67, Type (0, 0), BuildingBlock: OJICUG_clean_linker_0, # of connection points: 2
#     Edge 68, Type (0, 0), BuildingBlock: OJICUG_clean_linker_0, # of connection points: 2
#     Edge 69, Type (0, 0), BuildingBlock: OJICUG_clean_linker_0, # of connection points: 2
#     Edge 70, Type (0, 0), BuildingBlock: OJICUG_clean_linker_0, # of connection points: 2
#     Edge 71, Type (0, 0), BuildingBlock: OJICUG_clean_linker_0, # of connection points: 2
#     Edge 72, Type (0, 0), BuildingBlock: OJICUG_clean_linker_0, # of connection points: 2
#     Edge 73, Type (0, 0), BuildingBlock: OJICUG_clean_linker_0, # of connection points: 2
#     Edge 74, Type (0, 0), BuildingBlock: OJICUG_clean_linker_0, # of connection points: 2
#     Edge 75, Type (0, 0), BuildingBlock: OJICUG_clean_linker_0, # of connection points: 2
#     Edge 76, Type (0, 0), BuildingBlock: OJICUG_clean_linker_0, # of connection points: 2
#     Edge 77, Type (0, 0), BuildingBlock: OJICUG_clean_linker_0, # of connection points: 2
#     Edge 78, Type (0, 0), BuildingBlock: OJICUG_clean_linker_0, # of connection points: 2
#     Edge 79, Type (0, 0), BuildingBlock: OJICUG_clean_linker_0, # of connection points: 2
#     Edge 80, Type (0, 0), BuildingBlock: OJICUG_clean_linker_0, # of connection points: 2
#     Edge 81, Type (0, 0), BuildingBlock: OJICUG_clean_linker_0, # of connection points: 2
#     Edge 82, Type (0, 0), BuildingBlock: OJICUG_clean_linker_0, # of connection points: 2
#     Edge 83, Type (0, 0), BuildingBlock: OJICUG_clean_linker_0, # of connection points: 2
#     Edge 84, Type (0, 0), BuildingBlock: OJICUG_clean_linker_0, # of connection points: 2
#     Edge 85, Type (0, 0), BuildingBlock: OJICUG_clean_linker_0, # of connection points: 2
#     Edge 86, Type (0, 0), BuildingBlock: OJICUG_clean_linker_0, # of connection points: 2
#     Edge 87, Type (0, 0), BuildingBlock: OJICUG_clean_linker_0, # of connection points: 2
#     Edge 88, Type (0, 0), BuildingBlock: OJICUG_clean_linker_0, # of connection points: 2
#     Edge 89, Type (0, 0), BuildingBlock: OJICUG_clean_linker_0, # of connection points: 2
#     Edge 90, Type (0, 0), BuildingBlock: OJICUG_clean_linker_0, # of connection points: 2
#     Edge 91, Type (0, 0), BuildingBlock: OJICUG_clean_linker_0, # of connection points: 2
#     Edge 92, Type (0, 0), BuildingBlock: OJICUG_clean_linker_0, # of connection points: 2
#     Edge 93, Type (0, 0), BuildingBlock: OJICUG_clean_linker_0, # of connection points: 2
#     Edge 94, Type (0, 0), BuildingBlock: OJICUG_clean_linker_0, # of connection points: 2
#     Edge 95, Type (0, 0), BuildingBlock: OJICUG_clean_linker_0, # of connection points: 2
# Relax obj value: 0.188
# Max RMSD: 0.179
# Mean RMSD: 0.179
data_MOF--net-uox--node1-UXUYUI_clean_sbu_0--edge1-OJICUG_clean_linker_0
_symmetry_space_group_name_H-M    P1
_symmetry_Int_Tables_number       1
_symmetry_cell_setting            triclinic
loop_
_symmetry_equiv_pos_as_xyz
'x, y, z'
_cell_length_a     53.667941
_cell_length_b     53.668118
_cell_length_c     95.340147
_cell_angle_alpha  90.005166
_cell_angle_beta   89.998272
_cell_angle_gamma 89.998416
loop_
_atom_site_label
_atom_site_type_symbol
_atom_site_fract_x
_atom_site_fract_y
_atom_site_fract_z
_atom_type_partial_charge
Li0 Li 0.45222 0.04537 0.15291 0.0
Li1 Li 0.429 0.03672 0.17455 0.0
Li2 Li 0.41873 0.01567 0.15271 0.0
Li3 Li 0.40963 0.06006 0.15588 0.0
C4 C 0.45487 0.9889 0.16339 0.0
N5 N 0.46169 0.93788 0.16284 0.0
C6 C 0.4501 0.97466 0.17537 0.0
C7 C 0.46328 0.97723 0.15117 0.0
C8 C 0.45364 0.94888 0.17487 0.0
C9 C 0.46654 0.9514 0.15109 0.0
C10 C 0.44882 0.08039 0.17856 0.0
C11 C 0.44326 0.09984 0.20115 0.0
N12 N 0.4684 0.10031 0.2029 0.0
C13 C 0.4746 0.08106 0.18058 0.0
C14 C 0.43299 0.08988 0.18891 0.0
C15 C 0.48414 0.09123 0.19295 0.0
C16 C 0.48506 0.08033 0.14227 0.0
N17 N 0.48311 0.05553 0.14491 0.0
C18 C 0.5234 0.04826 0.135 0.0
C19 C 0.50174 0.03945 0.14152 0.0
C20 C 0.5257 0.07379 0.13193 0.0
C21 C 0.50622 0.08988 0.13574 0.0
H22 H 0.46997 0.09267 0.14514 0.0
H23 H 0.4997 0.01981 0.14374 0.0
C24 C 0.40927 0.02732 0.20134 0.0
N25 N 0.43088 0.03146 0.1943 0.0
C26 C 0.40963 0.02168 0.21562 0.0
C27 C 0.45456 0.02464 0.2152 0.0
C28 C 0.45332 0.03016 0.20088 0.0
C29 C 0.4325 0.02017 0.22276 0.0
H30 H 0.39173 0.02779 0.1958 0.0
H31 H 0.47026 0.03301 0.19496 0.0
C32 C 0.4353 0.05019 0.12727 0.0
N33 N 0.46019 0.06567 0.10345 0.0
C34 C 0.43376 0.07501 0.12291 0.0
C35 C 0.44936 0.03321 0.11947 0.0
C36 C 0.4465 0.08247 0.11084 0.0
C37 C 0.46186 0.04141 0.10747 0.0
C38 C 0.37125 0.03752 0.16613 0.0
C39 C 0.35544 0.02678 0.15617 0.0
C40 C 0.36192 0.05546 0.17537 0.0
C41 C 0.33052 0.03423 0.15561 0.0
C42 C 0.33689 0.06244 0.17446 0.0
N43 N 0.32184 0.05177 0.16468 0.0
C44 C 0.39612 0.96944 0.15559 0.0
C45 C 0.40174 0.98135 0.13186 0.0
C46 C 0.3826 0.94849 0.15154 0.0
N47 N 0.40513 0.98545 0.14579 0.0
C48 C 0.38816 0.96064 0.12732 0.0
C49 C 0.37788 0.94419 0.13725 0.0
H50 H 0.3986 0.97353 0.16661 0.0
H51 H 0.40855 0.99475 0.12431 0.0
C52 C 0.38813 0.10838 0.15749 0.0
N53 N 0.38737 0.08611 0.15073 0.0
C54 C 0.37333 0.12816 0.15289 0.0
C55 C 0.35707 0.10159 0.13456 0.0
C56 C 0.37211 0.08231 0.13956 0.0
C57 C 0.35781 0.12501 0.14114 0.0
H58 H 0.40073 0.11102 0.16619 0.0
H59 H 0.37211 0.06444 0.13431 0.0
O60 O 0.45115 0.0141 0.16359 0.0
O61 O 0.43908 0.07017 0.16662 0.0
O62 O 0.42355 0.04267 0.13928 0.0
O63 O 0.39587 0.03096 0.16663 0.0
H64 H 0.44351 0.98335 0.1849 0.0
H65 H 0.46694 0.98795 0.14179 0.0
H66 H 0.44991 0.93761 0.18404 0.0
H67 H 0.47288 0.9421 0.14167 0.0
H68 H 0.43123 0.10711 0.20929 0.0
H69 H 0.48713 0.07359 0.17275 0.0
H70 H 0.41298 0.08924 0.1876 0.0
H71 H 0.50406 0.09181 0.19468 0.0
H72 H 0.53795 0.03521 0.13218 0.0
H73 H 0.50738 0.10974 0.13382 0.0
H74 H 0.39219 0.01784 0.22091 0.0
H75 H 0.47259 0.02384 0.22027 0.0
H76 H 0.42318 0.08847 0.12889 0.0
H77 H 0.45086 0.01397 0.12273 0.0
H78 H 0.44561 0.10166 0.1074 0.0
H79 H 0.47295 0.02851 0.10139 0.0
H80 H 0.36236 0.01306 0.14884 0.0
H81 H 0.37395 0.06416 0.18305 0.0
H82 H 0.3181 0.02615 0.14792 0.0
H83 H 0.32946 0.0764 0.18149 0.0
H84 H 0.37527 0.93619 0.15955 0.0
H85 H 0.38465 0.95829 0.11621 0.0
H86 H 0.37477 0.146 0.15813 0.0
H87 H 0.34525 0.09832 0.12554 0.0
Li88 Li 0.2036 0.2066 0.39978 0.0
Li89 Li 0.21588 0.18304 0.42202 0.0
Li90 Li 0.23202 0.17132 0.39976 0.0
Li91 Li 0.18855 0.16277 0.40372 0.0
C92 C 0.25976 0.21201 0.40577 0.0
N93 N 0.30724 0.22691 0.39833 0.0
C94 C 0.27765 0.21653 0.41612 0.0
C95 C 0.26593 0.21537 0.39166 0.0
C96 C 0.30157 0.22398 0.41214 0.0
C97 C 0.29005 0.22281 0.3881 0.0
C98 C 0.16213 0.18897 0.42406 0.0
C99 C 0.14098 0.1624 0.44063 0.0
N100 N 0.12241 0.17955 0.44171 0.0
C101 C 0.14282 0.20629 0.4253 0.0
C102 C 0.16121 0.1668 0.43175 0.0
C103 C 0.12292 0.2012 0.43431 0.0
C104 C 0.16733 0.23864 0.39019 0.0
N105 N 0.19241 0.23692 0.39177 0.0
C106 C 0.19805 0.2768 0.38104 0.0
C107 C 0.20786 0.25544 0.3874 0.0
C108 C 0.1721 0.27915 0.37927 0.0
C109 C 0.15673 0.2597 0.38407 0.0
H110 H 0.15555 0.2235 0.39367 0.0
H111 H 0.22777 0.25352 0.3887 0.0
C112 C 0.2473 0.17884 0.44497 0.0
N113 N 0.22386 0.18602 0.44144 0.0
C114 C 0.25515 0.17958 0.45891 0.0
C115 C 0.21463 0.19541 0.46541 0.0
C116 C 0.20765 0.19462 0.45128 0.0
C117 C 0.23864 0.18763 0.46942 0.0
H118 H 0.25998 0.17257 0.43689 0.0
H119 H 0.18927 0.20073 0.44824 0.0
C120 C 0.20326 0.175 0.37297 0.0
N121 N 0.20174 0.16929 0.34418 0.0
C122 C 0.19439 0.15285 0.36708 0.0
C123 C 0.21103 0.19437 0.3642 0.0
C124 C 0.19386 0.15029 0.3525 0.0
C125 C 0.21021 0.19109 0.34968 0.0
C126 C 0.22935 0.12693 0.41207 0.0
C127 C 0.22382 0.11243 0.4003 0.0
C128 C 0.24805 0.11922 0.42131 0.0
C129 C 0.23739 0.09066 0.39783 0.0
C130 C 0.26121 0.09733 0.41847 0.0
N131 N 0.25568 0.08364 0.40687 0.0
C132 C 0.28206 0.15536 0.40021 0.0
C133 C 0.26113 0.14532 0.3791 0.0
C134 C 0.3028 0.14148 0.39609 0.0
N135 N 0.26164 0.15682 0.3918 0.0
C136 C 0.2813 0.13092 0.37466 0.0
C137 C 0.30236 0.12841 0.38332 0.0
H138 H 0.2818 0.16399 0.41045 0.0
H139 H 0.24459 0.14605 0.37273 0.0
C140 C 0.14386 0.15333 0.39063 0.0
N141 N 0.16049 0.1427 0.39953 0.0
C142 C 0.12345 0.13979 0.38579 0.0
C143 C 0.13713 0.10478 0.39979 0.0
C144 C 0.15742 0.11905 0.40434 0.0
C145 C 0.12005 0.11504 0.3902 0.0
H146 H 0.14681 0.17224 0.38706 0.0
H147 H 0.17094 0.11111 0.41146 0.0
O148 O 0.23631 0.20444 0.40947 0.0
O149 O 0.18157 0.19345 0.41515 0.0
O150 O 0.20364 0.17796 0.38722 0.0
O151 O 0.21682 0.14876 0.41437 0.0
H152 H 0.27312 0.21434 0.4271 0.0
H153 H 0.25234 0.21189 0.38354 0.0
H154 H 0.31563 0.22745 0.42003 0.0
H155 H 0.29513 0.22527 0.37721 0.0
H156 H 0.14003 0.14534 0.44665 0.0
H157 H 0.14324 0.22352 0.41941 0.0
H158 H 0.17596 0.15315 0.43088 0.0
H159 H 0.10786 0.21446 0.4354 0.0
H160 H 0.21069 0.2911 0.37737 0.0
H161 H 0.13664 0.26076 0.38325 0.0
H162 H 0.27403 0.174 0.46138 0.0
H163 H 0.20115 0.2016 0.47311 0.0
H164 H 0.18806 0.13773 0.37368 0.0
H165 H 0.21746 0.21183 0.36854 0.0
H166 H 0.18716 0.1332 0.34781 0.0
H167 H 0.21622 0.20591 0.34277 0.0
H168 H 0.20949 0.11816 0.39302 0.0
H169 H 0.25248 0.13008 0.43052 0.0
H170 H 0.23346 0.0794 0.38868 0.0
H171 H 0.27586 0.09125 0.42547 0.0
H172 H 0.31867 0.14044 0.40307 0.0
H173 H 0.27975 0.12083 0.36486 0.0
H174 H 0.1105 0.1486 0.37863 0.0
H175 H 0.13521 0.08576 0.40342 0.0
Li176 Li 0.04729 0.95588 0.65082 0.0
Li177 Li 0.07105 0.96628 0.67285 0.0
Li178 Li 0.08198 0.98455 0.65074 0.0
Li179 Li 0.09093 0.94108 0.65429 0.0
C180 C 0.04533 0.01306 0.65945 0.0
N181 N 0.03832 0.06371 0.656 0.0
C182 C 0.04786 0.02918 0.67087 0.0
C183 C 0.03886 0.02267 0.64632 0.0
C184 C 0.04433 0.05474 0.6689 0.0
C185 C 0.03552 0.04833 0.64477 0.0
C186 C 0.06646 0.9143 0.67513 0.0
C187 C 0.09413 0.89645 0.69235 0.0
N188 N 0.07787 0.87729 0.69422 0.0
C189 C 0.05004 0.89445 0.67721 0.0
C190 C 0.0887 0.91534 0.68275 0.0
C191 C 0.05614 0.87592 0.68692 0.0
C192 C 0.01422 0.91978 0.6422 0.0
N193 N 0.01645 0.9449 0.64335 0.0
C194 C 0.97557 0.95071 0.63392 0.0
C195 C 0.99774 0.96047 0.63938 0.0
C196 C 0.97265 0.92476 0.63282 0.0
C197 C 0.99234 0.90925 0.63702 0.0
H198 H 0.02953 0.90791 0.64533 0.0
H199 H 1.00003 0.9804 0.64043 0.0
C200 C 0.08383 0.9916 0.69709 0.0
N201 N 0.06942 0.97254 0.69242 0.0
C202 C 0.0836 0.99828 0.71122 0.0
C203 C 0.05419 0.96508 0.7156 0.0
C204 C 0.05468 0.9593 0.70129 0.0
C205 C 0.06874 0.98491 0.72076 0.0
H206 H 0.0952 0.00192 0.68974 0.0
H207 H 0.04333 0.94425 0.69728 0.0
C208 C 0.07611 0.96005 0.62362 0.0
N209 N 0.07718 0.96686 0.59489 0.0
C210 C 0.09684 0.95242 0.61584 0.0
C211 C 0.05575 0.97074 0.61674 0.0
C212 C 0.09707 0.95614 0.60134 0.0
C213 C 0.05669 0.97413 0.60222 0.0
C214 C 0.12931 0.97374 0.66234 0.0
C215 C 0.13856 0.97262 0.64867 0.0
C216 C 0.14541 0.97937 0.67342 0.0
C217 C 0.16382 0.97717 0.64627 0.0
C218 C 0.17058 0.98377 0.6706 0.0
N219 N 0.17918 0.9826 0.65719 0.0
C220 C 0.10547 0.02988 0.65399 0.0
C221 C 0.1011 0.01953 0.62996 0.0
C222 C 0.12005 0.05052 0.65063 0.0
N223 N 0.09671 0.01462 0.64373 0.0
C224 C 0.11577 0.03995 0.62612 0.0
C225 C 0.12599 0.05541 0.63656 0.0
H226 H 0.10194 0.02539 0.66487 0.0
H227 H 0.09422 0.00714 0.62195 0.0
C228 C 0.10276 0.899 0.63926 0.0
N229 N 0.11188 0.9138 0.64961 0.0
C230 C 0.11667 0.87893 0.63431 0.0
C231 C 0.14898 0.88925 0.65099 0.0
C232 C 0.1344 0.90925 0.65563 0.0
C233 C 0.14023 0.87393 0.64008 0.0
H234 H 0.08468 0.90299 0.63477 0.0
H235 H 0.14114 0.92121 0.66393 0.0
O236 O 0.04917 0.98802 0.66112 0.0
O237 O 0.06075 0.93253 0.66563 0.0
O238 O 0.07549 0.95639 0.63782 0.0
O239 O 0.10458 0.9697 0.66494 0.0
H240 H 0.05252 0.02208 0.68114 0.0
H241 H 0.03677 0.01051 0.63738 0.0
H242 H 0.04637 0.06744 0.67764 0.0
H243 H 0.03074 0.05603 0.63464 0.0
H244 H 0.11126 0.89702 0.69831 0.0
H245 H 0.03273 0.89338 0.67141 0.0
H246 H 0.10164 0.93056 0.6813 0.0
H247 H 0.0436 0.86044 0.68865 0.0
H248 H 0.96072 0.96324 0.63084 0.0
H249 H 0.99091 0.88917 0.63618 0.0
H250 H 0.09471 0.01405 0.71454 0.0
H251 H 0.04271 0.95396 0.72253 0.0
H252 H 0.11259 0.94364 0.62092 0.0
H253 H 0.03937 0.97629 0.62251 0.0
H254 H 0.11305 0.95043 0.59521 0.0
H255 H 0.04111 0.98249 0.59678 0.0
H256 H 0.12631 0.96849 0.64 0.0
H257 H 0.13852 0.98032 0.68407 0.0
H258 H 0.1712 0.97643 0.63572 0.0
H259 H 0.18326 0.98814 0.67907 0.0
H260 H 0.12717 0.06211 0.65902 0.0
H261 H 0.12006 0.04282 0.61514 0.0
H262 H 0.10892 0.86732 0.6261 0.0
H263 H 0.16706 0.88609 0.65571 0.0
Li264 Li 0.28379 0.81912 0.92362 0.0
Li265 Li 0.29546 0.7958 0.90173 0.0
Li266 Li 0.31014 0.83916 0.90579 0.0
Li267 Li 0.26655 0.83053 0.90125 0.0
C268 C 0.33531 0.81424 0.92708 0.0
N269 N 0.37065 0.82518 0.94723 0.0
C270 C 0.35471 0.79754 0.92975 0.0
C271 C 0.33388 0.83652 0.93464 0.0
C272 C 0.3724 0.80341 0.93998 0.0
C273 C 0.35193 0.8417 0.94479 0.0
C274 C 0.23804 0.79194 0.91049 0.0
C275 C 0.20191 0.78046 0.89689 0.0
N276 N 0.18788 0.78063 0.90877 0.0
C277 C 0.2233 0.79175 0.92259 0.0
C278 C 0.22732 0.78601 0.89755 0.0
C279 C 0.19797 0.78607 0.92149 0.0
C280 C 0.25868 0.83296 0.94781 0.0
N281 N 0.27649 0.8171 0.94305 0.0
C282 C 0.28186 0.80008 0.96602 0.0
C283 C 0.28804 0.80072 0.95177 0.0
C284 C 0.26357 0.81639 0.97127 0.0
C285 C 0.25187 0.8329 0.96192 0.0
H286 H 0.24955 0.84548 0.94056 0.0
H287 H 0.30208 0.78823 0.94767 0.0
C288 C 0.33172 0.76267 0.89328 0.0
N289 N 0.30658 0.76517 0.89408 0.0
C290 C 0.34223 0.74103 0.88778 0.0
C291 C 0.30073 0.72502 0.88371 0.0
C292 C 0.29098 0.74693 0.88949 0.0
C293 C 0.3267 0.72186 0.8829 0.0
H294 H 0.34362 0.77762 0.89691 0.0
H295 H 0.27104 0.74944 0.89026 0.0
C296 C 0.27671 0.87752 0.91245 0.0
N297 N 0.2679 0.92681 0.90568 0.0
C298 C 0.2812 0.88612 0.89885 0.0
C299 C 0.26777 0.894 0.92262 0.0
C300 C 0.27662 0.91109 0.89563 0.0
C301 C 0.26343 0.91885 0.919 0.0
C302 C 0.2936 0.8237 0.87464 0.0
C303 C 0.30442 0.84255 0.86655 0.0
C304 C 0.28111 0.80413 0.86802 0.0
C305 C 0.30227 0.84164 0.85196 0.0
C306 C 0.27937 0.80388 0.8534 0.0
N307 N 0.28988 0.82249 0.84574 0.0
C308 C 0.35396 0.84969 0.8922 0.0
C309 C 0.34204 0.88272 0.90728 0.0
C310 C 0.37446 0.86322 0.88748 0.0
N311 N 0.33807 0.8597 0.90174 0.0
C312 C 0.36241 0.89699 0.90283 0.0
C313 C 0.37874 0.88737 0.89264 0.0
H314 H 0.35043 0.83122 0.8881 0.0
H315 H 0.32925 0.89016 0.91498 0.0
C316 C 0.21752 0.84835 0.90224 0.0
N317 N 0.23712 0.8452 0.89339 0.0
C318 C 0.19661 0.86187 0.89803 0.0
C319 C 0.21676 0.86956 0.87581 0.0
C320 C 0.23698 0.85527 0.88031 0.0
C321 C 0.19621 0.87331 0.88476 0.0
H322 H 0.21845 0.84111 0.91279 0.0
H323 H 0.25304 0.85345 0.87361 0.0
O324 O 0.3179 0.80873 0.91707 0.0
O325 O 0.26286 0.79759 0.91139 0.0
O326 O 0.28066 0.85305 0.91582 0.0
O327 O 0.29558 0.82433 0.88895 0.0
H328 H 0.35607 0.78022 0.92398 0.0
H329 H 0.31901 0.84968 0.93273 0.0
H330 H 0.38751 0.79065 0.94217 0.0
H331 H 0.35105 0.85886 0.95072 0.0
H332 H 0.19335 0.77605 0.88692 0.0
H333 H 0.23132 0.79593 0.93272 0.0
H334 H 0.23838 0.78598 0.8881 0.0
H335 H 0.18634 0.78598 0.93075 0.0
H336 H 0.29153 0.78721 0.97286 0.0
H337 H 0.23735 0.84546 0.96541 0.0
H338 H 0.36233 0.73944 0.88718 0.0
H339 H 0.28817 0.71057 0.88011 0.0
H340 H 0.2881 0.87366 0.89086 0.0
H341 H 0.26422 0.88768 0.93321 0.0
H342 H 0.27998 0.91795 0.88513 0.0
H343 H 0.2565 0.93181 0.92676 0.0
H344 H 0.31428 0.8578 0.87148 0.0
H345 H 0.27293 0.78925 0.87406 0.0
H346 H 0.31046 0.85616 0.84558 0.0
H347 H 0.26971 0.78885 0.84814 0.0
H348 H 0.38685 0.85479 0.87987 0.0
H349 H 0.36499 0.91552 0.90708 0.0
H350 H 0.18124 0.86375 0.90529 0.0
H351 H 0.2179 0.87846 0.86565 0.0
Li352 Li 0.41597 0.98187 0.35112 0.0
Li353 Li 0.40862 0.93859 0.34682 0.0
Li354 Li 0.45156 0.95348 0.35066 0.0
Li355 Li 0.42737 0.96622 0.32839 0.0
C356 C 0.42019 0.95291 0.37767 0.0
N357 N 0.41404 0.95079 0.40643 0.0
C358 C 0.39753 0.94501 0.38339 0.0
C359 C 0.43984 0.95933 0.38659 0.0
C360 C 0.39475 0.94419 0.39795 0.0
C361 C 0.43632 0.95825 0.40109 0.0
C362 C 0.37182 0.97935 0.33902 0.0
C363 C 0.34415 0.01369 0.33414 0.0
N364 N 0.32909 0.00618 0.3448 0.0
C365 C 0.35596 0.97185 0.34985 0.0
C366 C 0.36579 0.00031 0.33101 0.0
C367 C 0.33447 0.98569 0.35263 0.0
C368 C 0.4034 0.03304 0.35201 0.0
N369 N 0.40187 0.01136 0.35935 0.0
C370 C 0.37402 0.03017 0.37581 0.0
C371 C 0.38782 0.00973 0.37117 0.0
C372 C 0.37475 0.05267 0.36826 0.0
C373 C 0.3902 0.05407 0.35638 0.0
H374 H 0.41394 0.03371 0.34236 0.0
H375 H 0.38606 0.99222 0.37657 0.0
C376 C 0.39808 0.8951 0.36124 0.0
N377 N 0.38881 0.91009 0.35102 0.0
C378 C 0.38466 0.87442 0.36578 0.0
C379 C 0.35276 0.8842 0.34873 0.0
C380 C 0.36673 0.90501 0.34463 0.0
C381 C 0.36158 0.86887 0.3596 0.0
H382 H 0.41584 0.89947 0.366 0.0
H383 H 0.35988 0.91721 0.33646 0.0
C384 C 0.45943 0.0083 0.34532 0.0
N385 N 0.48122 0.05253 0.35362 0.0
C386 C 0.4659 0.02624 0.33534 0.0
C387 C 0.46417 0.01277 0.3595 0.0
C388 C 0.47687 0.04851 0.33975 0.0
C389 C 0.47516 0.03527 0.3635 0.0
C390 C 0.43306 0.90903 0.33007 0.0
C391 C 0.44525 0.88811 0.33545 0.0
C392 C 0.41388 0.90597 0.32029 0.0
C393 C 0.43797 0.8644 0.33099 0.0
C394 C 0.40716 0.88196 0.3161 0.0
N395 N 0.41922 0.86184 0.3215 0.0
C396 C 0.48139 0.92101 0.36532 0.0
C397 C 0.5039 0.95627 0.3573 0.0
C398 C 0.50297 0.91063 0.37094 0.0
N399 N 0.48229 0.9432 0.35849 0.0
C400 C 0.526 0.94668 0.36295 0.0
C401 C 0.5257 0.92337 0.36967 0.0
H402 H 0.46383 0.91125 0.36623 0.0
H403 H 0.50406 0.9739 0.3518 0.0
C404 C 0.42486 0.99904 0.30587 0.0
N405 N 0.4301 0.97498 0.30915 0.0
C406 C 0.42602 0.00716 0.29199 0.0
C407 C 0.43829 0.9656 0.28507 0.0
C408 C 0.437 0.95831 0.29914 0.0
C409 C 0.4326 0.99032 0.28132 0.0
H410 H 0.41984 0.01198 0.3141 0.0
H411 H 0.44139 0.93935 0.30204 0.0
O412 O 0.42345 0.95334 0.36343 0.0
O413 O 0.39338 0.96651 0.33648 0.0
O414 O 0.44836 0.98654 0.3412 0.0
O415 O 0.43929 0.93237 0.33463 0.0
H416 H 0.38218 0.93974 0.37668 0.0
H417 H 0.45771 0.96486 0.38239 0.0
H418 H 0.37727 0.93827 0.40251 0.0
H419 H 0.45136 0.96323 0.40811 0.0
H420 H 0.33938 0.03008 0.32811 0.0
H421 H 0.36038 0.95575 0.35618 0.0
H422 H 0.37781 0.00635 0.32258 0.0
H423 H 0.32214 0.98022 0.36106 0.0
H424 H 0.36196 0.02786 0.38481 0.0
H425 H 0.3916 0.07101 0.35027 0.0
H426 H 0.3923 0.8628 0.37401 0.0
H427 H 0.33505 0.88047 0.34371 0.0
H428 H 0.46248 0.02302 0.3243 0.0
H429 H 0.45916 0.99915 0.36733 0.0
H430 H 0.48192 0.0626 0.33215 0.0
H431 H 0.47882 0.03903 0.37445 0.0
H432 H 0.46012 0.89013 0.34302 0.0
H433 H 0.40403 0.92198 0.31617 0.0
H434 H 0.44719 0.84803 0.3351 0.0
H435 H 0.39225 0.87931 0.30861 0.0
H436 H 0.50192 0.89278 0.3762 0.0
H437 H 0.54322 0.95698 0.36174 0.0
H438 H 0.42196 0.02649 0.28966 0.0
H439 H 0.44326 0.95191 0.27721 0.0
Li440 Li 0.2686 0.16786 0.59865 0.0
Li441 Li 0.3122 0.16086 0.59376 0.0
Li442 Li 0.29727 0.20331 0.59744 0.0
Li443 Li 0.28711 0.1799 0.5762 0.0
C444 C 0.28938 0.18312 0.62377 0.0
N445 N 0.27371 0.19964 0.64976 0.0
C446 C 0.30262 0.17653 0.63583 0.0
C447 C 0.26815 0.19808 0.62492 0.0
C448 C 0.2944 0.18508 0.64888 0.0
C449 C 0.26054 0.20625 0.63815 0.0
C450 C 0.29335 0.12327 0.58089 0.0
C451 C 0.32376 0.09852 0.5685 0.0
N452 N 0.31533 0.07779 0.57518 0.0
C453 C 0.28481 0.10167 0.58752 0.0
C454 C 0.31281 0.12164 0.5712 0.0
C455 C 0.29622 0.07887 0.58453 0.0
C456 C 0.21705 0.16252 0.60759 0.0
N457 N 0.24071 0.15346 0.60814 0.0
C458 C 0.22699 0.11788 0.62106 0.0
C459 C 0.24603 0.13209 0.61515 0.0
C460 C 0.20215 0.12592 0.6199 0.0
C461 C 0.19735 0.14888 0.61335 0.0
H462 H 0.21325 0.18007 0.6025 0.0
H463 H 0.26512 0.12572 0.61578 0.0
C464 C 0.36146 0.14227 0.59126 0.0
N465 N 0.33956 0.13979 0.59826 0.0
C466 C 0.38234 0.12867 0.59545 0.0
C467 C 0.35762 0.10996 0.61385 0.0
C468 C 0.33716 0.12383 0.60924 0.0
C469 C 0.38076 0.11263 0.60709 0.0
H470 H 0.36288 0.15525 0.58264 0.0
H471 H 0.31952 0.12248 0.61469 0.0
C472 C 0.24144 0.20253 0.58208 0.0
N473 N 0.19571 0.20715 0.56903 0.0
C474 C 0.23078 0.18208 0.57524 0.0
C475 C 0.22891 0.22534 0.58222 0.0
C476 C 0.20764 0.1848 0.56872 0.0
C477 C 0.20577 0.22729 0.57559 0.0
C478 C 0.32941 0.20408 0.57154 0.0
C479 C 0.32536 0.22978 0.57064 0.0
C480 C 0.34227 0.19192 0.56077 0.0
C481 C 0.3342 0.24284 0.55898 0.0
C482 C 0.35075 0.20564 0.54927 0.0
N483 N 0.34658 0.2306 0.54862 0.0
C484 C 0.33213 0.23625 0.60772 0.0
C485 C 0.29106 0.25183 0.61021 0.0
C486 C 0.34194 0.25743 0.61411 0.0
N487 N 0.30717 0.23387 0.60587 0.0
C488 C 0.30007 0.27331 0.61685 0.0
C489 C 0.3259 0.27631 0.61892 0.0
H490 H 0.34446 0.22161 0.60415 0.0
H491 H 0.27124 0.24935 0.60869 0.0
C492 C 0.27522 0.16115 0.54932 0.0
N493 N 0.27994 0.18247 0.55654 0.0
C494 C 0.26887 0.16204 0.53515 0.0
C495 C 0.27191 0.20691 0.53603 0.0
C496 C 0.27798 0.20514 0.55026 0.0
C497 C 0.26727 0.18512 0.52825 0.0
H498 H 0.2758 0.14341 0.55463 0.0
H499 H 0.28084 0.2219 0.55633 0.0
O500 O 0.29729 0.17489 0.61095 0.0
O501 O 0.28283 0.14592 0.58388 0.0
O502 O 0.26436 0.20057 0.58826 0.0
O503 O 0.32075 0.1909 0.58283 0.0
H504 H 0.31908 0.16494 0.6351 0.0
H505 H 0.25765 0.20337 0.61571 0.0
H506 H 0.30447 0.18013 0.65831 0.0
H507 H 0.24417 0.21786 0.6392 0.0
H508 H 0.33898 0.09707 0.5611 0.0
H509 H 0.26944 0.10238 0.59481 0.0
H510 H 0.31953 0.13812 0.56591 0.0
H511 H 0.28985 0.06203 0.58963 0.0
H512 H 0.23163 0.1003 0.62597 0.0
H513 H 0.17856 0.1561 0.61255 0.0
H514 H 0.39965 0.13104 0.58978 0.0
H515 H 0.35556 0.09809 0.62296 0.0
H516 H 0.24019 0.16427 0.57501 0.0
H517 H 0.23701 0.24138 0.58738 0.0
H518 H 0.19916 0.16913 0.56341 0.0
H519 H 0.19584 0.24483 0.57563 0.0
H520 H 0.31509 0.23953 0.57869 0.0
H521 H 0.34564 0.17209 0.56123 0.0
H522 H 0.33106 0.2627 0.55813 0.0
H523 H 0.36066 0.19643 0.54086 0.0
H524 H 0.36196 0.25903 0.61511 0.0
H525 H 0.28694 0.28719 0.62049 0.0
H526 H 0.26472 0.14478 0.52976 0.0
H527 H 0.27095 0.22513 0.5312 0.0
Li528 Li 0.09095 0.05998 0.8451 0.0
Li529 Li 0.0808 0.01611 0.85014 0.0
Li530 Li 0.07045 0.03495 0.82738 0.0
Li531 Li 0.04797 0.04713 0.84894 0.0
C532 C 0.12819 0.03552 0.83463 0.0
N533 N 0.1777 0.04942 0.8333 0.0
C534 C 0.14502 0.02708 0.84475 0.0
C535 C 0.13657 0.05088 0.82377 0.0
C536 C 0.16997 0.03434 0.84391 0.0
C537 C 0.16166 0.05775 0.8233 0.0
C538 C 0.0659 0.05397 0.87424 0.0
C539 C 0.04283 0.04718 0.89559 0.0
N540 N 0.04233 0.07221 0.89785 0.0
C541 C 0.0653 0.0796 0.8768 0.0
C542 C 0.05471 0.03759 0.88373 0.0
C543 C 0.05324 0.08846 0.88879 0.0
C544 C 0.11379 0.10766 0.84224 0.0
N545 N 0.114 0.08581 0.84943 0.0
C546 C 0.14407 0.10183 0.86557 0.0
C547 C 0.1289 0.08247 0.8608 0.0
C548 C 0.1438 0.12488 0.85859 0.0
C549 C 0.12873 0.12751 0.84661 0.0
H550 H 0.10135 0.11003 0.83344 0.0
H551 H 0.1284 0.06498 0.86643 0.0
C552 C 0.09515 0.96548 0.85061 0.0
N553 N 0.09404 0.98669 0.85836 0.0
C554 C 0.10835 0.94485 0.85549 0.0
C555 C 0.11966 0.96849 0.8761 0.0
C556 C 0.10553 0.9884 0.87101 0.0
C557 C 0.12165 0.94638 0.86819 0.0
H558 H 0.08663 0.96486 0.84036 0.0
H559 H 0.10497 0.00578 0.87676 0.0
C560 C 0.05292 0.07993 0.82191 0.0
N561 N 0.03548 0.10052 0.79722 0.0
C562 C 0.0273 0.08242 0.81964 0.0
C563 C 0.06965 0.08791 0.81161 0.0
C564 C 0.01886 0.09291 0.8071 0.0
C565 C 0.06047 0.09824 0.7992 0.0
C566 C 0.04055 0.99041 0.84069 0.0
C567 C 0.0392 0.97529 0.82878 0.0
C568 C 0.03408 0.98067 0.85379 0.0
C569 C 0.03152 0.95054 0.83019 0.0
C570 C 0.02652 0.95582 0.85477 0.0
N571 N 0.02541 0.9414 0.84305 0.0
C572 C 0.08921 0.01651 0.80212 0.0
C573 C 0.04734 0.03 0.80029 0.0
C574 C 0.08933 0.0093 0.78807 0.0
N575 N 0.06854 0.02689 0.8079 0.0
C576 C 0.04674 0.02345 0.7861 0.0
C577 C 0.06798 0.01294 0.77976 0.0
H578 H 0.10558 0.01344 0.80848 0.0
H579 H 0.03083 0.03743 0.80524 0.0
C580 C 0.01407 0.08405 0.85639 0.0
N581 N 0.01752 0.05898 0.8569 0.0
C582 C 0.99268 0.09474 0.86208 0.0
C583 C 0.97907 0.05375 0.86926 0.0
C584 C 0.00064 0.04375 0.86321 0.0
C585 C 0.97483 0.07954 0.86859 0.0
H586 H 0.02804 0.09577 0.85156 0.0
H587 H 0.00393 0.02392 0.86361 0.0
O588 O 0.10356 0.02917 0.83547 0.0
O589 O 0.0769 0.045 0.86235 0.0
O590 O 0.06158 0.06965 0.83411 0.0
O591 O 0.04812 0.01464 0.8395 0.0
H592 H 0.13886 0.01525 0.85324 0.0
H593 H 0.1238 0.05753 0.81584 0.0
H594 H 0.18318 0.02805 0.85171 0.0
H595 H 0.16837 0.06972 0.81499 0.0
H596 H 0.03396 0.03474 0.90299 0.0
H597 H 0.07375 0.09253 0.8695 0.0
H598 H 0.05504 0.01769 0.88188 0.0
H599 H 0.05247 0.10826 0.89086 0.0
H600 H 0.15552 0.09894 0.87478 0.0
H601 H 0.12762 0.14507 0.84106 0.0
H602 H 0.1087 0.9282 0.8491 0.0
H603 H 0.12989 0.97104 0.88577 0.0
H604 H 0.01402 0.07599 0.82736 0.0
H605 H 0.08951 0.08596 0.81313 0.0
H606 H 0.99909 0.09487 0.80518 0.0
H607 H 0.07322 0.1044 0.79112 0.0
H608 H 0.04413 0.98255 0.81856 0.0
H609 H 0.03528 0.99205 0.86312 0.0
H610 H 0.03044 0.9386 0.82108 0.0
H611 H 0.02162 0.94798 0.86485 0.0
H612 H 0.10592 0.0006 0.78386 0.0
H613 H 0.02987 0.02678 0.78018 0.0
H614 H 0.99023 0.11476 0.86153 0.0
H615 H 0.96568 0.04145 0.87419 0.0
Li616 Li 0.19147 0.83883 0.09612 0.0
Li617 Li 0.23516 0.83101 0.1002 0.0
Li618 Li 0.21783 0.81993 0.07808 0.0
Li619 Li 0.20724 0.7957 0.09978 0.0
C620 C 0.22238 0.8784 0.08956 0.0
N621 N 0.22687 0.92811 0.09667 0.0
C622 C 0.22133 0.88572 0.10362 0.0
C623 C 0.22573 0.89635 0.07912 0.0
C624 C 0.22364 0.91094 0.107 0.0
C625 C 0.22795 0.9214 0.08292 0.0
C626 C 0.20908 0.8231 0.12699 0.0
C627 C 0.22176 0.80183 0.14811 0.0
N628 N 0.21267 0.82103 0.15588 0.0
C629 C 0.19963 0.8425 0.1352 0.0
C630 C 0.22004 0.80248 0.13349 0.0
C631 C 0.20173 0.84116 0.14979 0.0
C632 C 0.14719 0.84787 0.10971 0.0
N633 N 0.1631 0.8586 0.10044 0.0
C634 C 0.13738 0.89492 0.09909 0.0
C635 C 0.15858 0.88159 0.09498 0.0
C636 C 0.12061 0.88422 0.10867 0.0
C637 C 0.12572 0.86036 0.11397 0.0
H638 H 0.15129 0.82955 0.11384 0.0
H639 H 0.1713 0.88959 0.08745 0.0
C640 C 0.27881 0.8588 0.09896 0.0
N641 N 0.26479 0.84526 0.10807 0.0
C642 C 0.29933 0.87232 0.10371 0.0
C643 C 0.29138 0.85687 0.12709 0.0
C644 C 0.27098 0.84362 0.12187 0.0
C645 C 0.30552 0.87191 0.11801 0.0
H646 H 0.27356 0.85972 0.08802 0.0
H647 H 0.25988 0.83257 0.12892 0.0
C648 C 0.16624 0.81364 0.07501 0.0
N649 N 0.12978 0.82411 0.05542 0.0
C650 C 0.14674 0.79685 0.07278 0.0
C651 C 0.16718 0.83579 0.0673 0.0
C652 C 0.12849 0.80247 0.06282 0.0
C653 C 0.14857 0.84073 0.05744 0.0
C654 C 0.26457 0.79532 0.09209 0.0
C655 C 0.28175 0.80427 0.08229 0.0
C656 C 0.27304 0.78344 0.10422 0.0
C657 C 0.30721 0.80153 0.08492 0.0
C658 C 0.29865 0.78107 0.10648 0.0
N659 N 0.31506 0.79012 0.09687 0.0
C660 C 0.24009 0.83582 0.05332 0.0
C661 C 0.2148 0.79998 0.05034 0.0
C662 C 0.24647 0.83563 0.03915 0.0
N663 N 0.22456 0.81818 0.0586 0.0
C664 C 0.22065 0.79913 0.03604 0.0
C665 C 0.23671 0.81714 0.03027 0.0
H666 H 0.24777 0.84987 0.06021 0.0
H667 H 0.20252 0.78616 0.05485 0.0
C668 C 0.17671 0.76576 0.1159 0.0
N669 N 0.19733 0.7649 0.10765 0.0
C670 C 0.16762 0.74413 0.12216 0.0
C671 C 0.20107 0.72099 0.11124 0.0
C672 C 0.20965 0.74319 0.10524 0.0
C673 C 0.17977 0.72132 0.11984 0.0
H674 H 0.16729 0.78333 0.11755 0.0
H675 H 0.22603 0.74312 0.09862 0.0
O676 O 0.22024 0.85381 0.08594 0.0
O677 O 0.20675 0.82393 0.11271 0.0
O678 O 0.18416 0.80839 0.08476 0.0
O679 O 0.23959 0.79842 0.08987 0.0
H680 H 0.21889 0.87212 0.11183 0.0
H681 H 0.22654 0.89099 0.06819 0.0
H682 H 0.2229 0.91685 0.11784 0.0
H683 H 0.23052 0.9355 0.07495 0.0
H684 H 0.23031 0.78604 0.15327 0.0
H685 H 0.19068 0.85841 0.13037 0.0
H686 H 0.22724 0.7872 0.12734 0.0
H687 H 0.19458 0.85609 0.15627 0.0
H688 H 0.13392 0.91318 0.09465 0.0
H689 H 0.11338 0.85156 0.12147 0.0
H690 H 0.30951 0.88383 0.09635 0.0
H691 H 0.29574 0.85573 0.13816 0.0
H692 H 0.14575 0.77966 0.07869 0.0
H693 H 0.18208 0.84904 0.06889 0.0
H694 H 0.11329 0.78964 0.06098 0.0
H695 H 0.14907 0.85778 0.0514 0.0
H696 H 0.27549 0.81349 0.07284 0.0
H697 H 0.25999 0.77622 0.11184 0.0
H698 H 0.32072 0.80855 0.07749 0.0
H699 H 0.30548 0.77205 0.11586 0.0
H700 H 0.25925 0.84962 0.03524 0.0
H701 H 0.21248 0.7847 0.02957 0.0
H702 H 0.15093 0.74518 0.12852 0.0
H703 H 0.21105 0.70381 0.10925 0.0
Li704 Li 0.56527 0.96745 0.82909 0.0
Li705 Li 0.58161 0.98219 0.8509 0.0
Li706 Li 0.58261 0.93859 0.84672 0.0
Li707 Li 0.54323 0.95915 0.85233 0.0
C708 C 0.61515 0.95601 0.8255 0.0
N709 N 0.64532 0.93805 0.8043 0.0
C710 C 0.63741 0.96818 0.82219 0.0
C711 C 0.60828 0.93469 0.81804 0.0
C712 C 0.6524 0.95882 0.81143 0.0
C713 C 0.62376 0.92589 0.80736 0.0
C714 C 0.5474 0.01531 0.84631 0.0
C715 C 0.53864 0.04624 0.86397 0.0
N716 N 0.54639 0.06437 0.855 0.0
C717 C 0.55513 0.03422 0.83723 0.0
C718 C 0.53897 0.0213 0.85976 0.0
C719 C 0.55453 0.05893 0.84184 0.0
C720 C 0.54342 0.96585 0.80164 0.0
N721 N 0.56175 0.97554 0.80983 0.0
C722 C 0.57808 0.99868 0.79053 0.0
C723 C 0.5787 0.99189 0.80463 0.0
C724 C 0.5597 0.98866 0.78168 0.0
C725 C 0.54204 0.97221 0.78743 0.0
H726 H 0.52998 0.95312 0.80613 0.0
H727 H 0.59279 0.99964 0.81147 0.0
C728 C 0.60105 0.01642 0.87157 0.0
N729 N 0.60019 0.00979 0.85781 0.0
C730 C 0.61682 0.03567 0.87592 0.0
C731 C 0.62948 0.04148 0.8518 0.0
C732 C 0.61365 0.0221 0.84795 0.0
C733 C 0.63166 0.04816 0.86599 0.0
H734 H 0.58999 0.00639 0.87918 0.0
H735 H 0.61226 0.01661 0.83706 0.0
C736 C 0.54094 0.913 0.83353 0.0
N737 N 0.52075 0.86676 0.82762 0.0
C738 C 0.52799 0.89983 0.84387 0.0
C739 C 0.54319 0.90279 0.82009 0.0
C740 C 0.51805 0.87645 0.84071 0.0
C741 C 0.53298 0.87935 0.81734 0.0
C742 C 0.59189 0.95249 0.87405 0.0
C743 C 0.61673 0.95544 0.86992 0.0
C744 C 0.58651 0.94621 0.88796 0.0
C745 C 0.63572 0.95202 0.87974 0.0
C746 C 0.60603 0.94297 0.89748 0.0
N747 N 0.63003 0.94591 0.89321 0.0
C748 C 0.62542 0.90603 0.84777 0.0
C749 C 0.58777 0.88986 0.85698 0.0
C750 C 0.63821 0.88443 0.8517 0.0
N751 N 0.60054 0.90824 0.85032 0.0
C752 C 0.59971 0.86786 0.86091 0.0
C753 C 0.62528 0.86498 0.85832 0.0
H754 H 0.63559 0.92126 0.84309 0.0
H755 H 0.56848 0.8926 0.85971 0.0
C756 C 0.49075 0.95673 0.85296 0.0
N757 N 0.51169 0.95407 0.86082 0.0
C758 C 0.46767 0.9493 0.85831 0.0
C759 C 0.48813 0.93737 0.87988 0.0
C760 C 0.51077 0.94512 0.87413 0.0
C761 C 0.46623 0.93886 0.87183 0.0
H762 H 0.49214 0.9637 0.84235 0.0
H763 H 0.52779 0.94283 0.88003 0.0
O764 O 0.60011 0.96525 0.83586 0.0
O765 O 0.54855 0.99097 0.84218 0.0
O766 O 0.55035 0.93622 0.83634 0.0
O767 O 0.57286 0.95553 0.86462 0.0
H768 H 0.64303 0.98471 0.82787 0.0
H769 H 0.59135 0.92491 0.8206 0.0
H770 H 0.66966 0.96808 0.80875 0.0
H771 H 0.61867 0.90936 0.80153 0.0
H772 H 0.53231 0.05117 0.87438 0.0
H773 H 0.56177 0.02982 0.8268 0.0
H774 H 0.53303 0.0068 0.86692 0.0
H775 H 0.5606 0.07377 0.83496 0.0
H776 H 0.59177 0.01177 0.78661 0.0
H777 H 0.52763 0.96398 0.78096 0.0
H778 H 0.61802 0.0401 0.88698 0.0
H779 H 0.64013 0.05093 0.84375 0.0
H780 H 0.52586 0.90741 0.8543 0.0
H781 H 0.55259 0.91286 0.81182 0.0
H782 H 0.50817 0.86601 0.84867 0.0
H783 H 0.53469 0.87121 0.807 0.0
H784 H 0.62142 0.96033 0.85926 0.0
H785 H 0.56745 0.94385 0.89139 0.0
H786 H 0.65499 0.95424 0.87666 0.0
H787 H 0.6021 0.9381 0.90826 0.0
H788 H 0.65801 0.883 0.84965 0.0
H789 H 0.58921 0.85361 0.86637 0.0
H790 H 0.45126 0.95111 0.85179 0.0
H791 H 0.48805 0.92911 0.89024 0.0
Li792 Li 0.81221 0.83392 0.5962 0.0
Li793 Li 0.7924 0.79364 0.60059 0.0
Li794 Li 0.78435 0.81741 0.57786 0.0
Li795 Li 0.76863 0.83165 0.59985 0.0
C796 C 0.83915 0.79346 0.58249 0.0
N797 N 0.88584 0.77389 0.577 0.0
C798 C 0.85202 0.78032 0.59287 0.0
C799 C 0.84992 0.79623 0.56921 0.0
C800 C 0.87563 0.77069 0.58993 0.0
C801 C 0.87357 0.78632 0.56667 0.0
C802 C 0.79709 0.84071 0.62355 0.0
C803 C 0.80501 0.85324 0.64745 0.0
N804 N 0.80177 0.87747 0.64371 0.0
C805 C 0.7938 0.86578 0.61997 0.0
C806 C 0.80271 0.8344 0.63742 0.0
C807 C 0.79626 0.88406 0.6303 0.0
C808 C 0.84425 0.87709 0.5987 0.0
N809 N 0.84205 0.85208 0.60075 0.0
C810 C 0.88129 0.85104 0.6126 0.0
C811 C 0.85991 0.83912 0.60771 0.0
C812 C 0.88412 0.87686 0.61072 0.0
C813 C 0.86525 0.88988 0.60357 0.0
H814 H 0.82935 0.8874 0.59379 0.0
H815 H 0.85721 0.81962 0.60992 0.0
C816 C 0.79575 0.74103 0.60032 0.0
N817 N 0.79776 0.76165 0.6085 0.0
C818 C 0.80322 0.71781 0.60547 0.0
C819 C 0.81393 0.73747 0.62747 0.0
C820 C 0.80615 0.76024 0.62192 0.0
C821 C 0.81303 0.7159 0.61912 0.0
H822 H 0.78919 0.74279 0.58964 0.0
H823 H 0.80794 0.77702 0.62808 0.0
C824 C 0.79547 0.86749 0.57557 0.0
N825 N 0.8149 0.89903 0.55543 0.0
C826 C 0.78397 0.89033 0.57277 0.0
C827 C 0.81687 0.86076 0.56816 0.0
C828 C 0.79407 0.906 0.56254 0.0
C829 C 0.82642 0.87693 0.55801 0.0
C830 C 0.7364 0.79715 0.5942 0.0
C831 C 0.71761 0.80687 0.58566 0.0
C832 C 0.73022 0.78584 0.60693 0.0
C833 C 0.69285 0.80532 0.59009 0.0
C834 C 0.70523 0.78464 0.61098 0.0
N835 N 0.68723 0.79435 0.60256 0.0
C836 C 0.78711 0.79758 0.54997 0.0
C837 C 0.75978 0.83168 0.55359 0.0
C838 C 0.78066 0.79667 0.53576 0.0
N839 N 0.77676 0.81505 0.55849 0.0
C840 C 0.75276 0.83141 0.53952 0.0
C841 C 0.76331 0.81384 0.53035 0.0
H842 H 0.80032 0.78436 0.55421 0.0
H843 H 0.75159 0.84511 0.56068 0.0
C844 C 0.73257 0.84567 0.62068 0.0
N845 N 0.74058 0.84881 0.60727 0.0
C846 C 0.71281 0.85998 0.62581 0.0
C847 C 0.7097 0.87994 0.60314 0.0
C848 C 0.72937 0.8652 0.59845 0.0
C849 C 0.70134 0.87771 0.61705 0.0
H850 H 0.74175 0.83232 0.62742 0.0
H851 H 0.736 0.86705 0.5878 0.0
O852 O 0.81571 0.80253 0.58506 0.0
O853 O 0.79489 0.82236 0.61362 0.0
O854 O 0.78555 0.85184 0.58544 0.0
O855 O 0.7608 0.79914 0.59027 0.0
H856 H 0.84403 0.77778 0.60317 0.0
H857 H 0.84012 0.8058 0.56089 0.0
H858 H 0.88583 0.76067 0.59793 0.0
H859 H 0.88212 0.78844 0.55647 0.0
H860 H 0.80937 0.84859 0.65821 0.0
H861 H 0.78939 0.87119 0.60935 0.0
H862 H 0.80529 0.81516 0.64044 0.0
H863 H 0.79378 0.9035 0.62764 0.0
H864 H 0.89532 0.84008 0.61793 0.0
H865 H 0.86625 0.90987 0.60217 0.0
H866 H 0.80186 0.70165 0.59871 0.0
H867 H 0.82172 0.73707 0.63794 0.0
H868 H 0.76743 0.89591 0.57844 0.0
H869 H 0.82615 0.8434 0.57032 0.0
H870 H 0.78534 0.92371 0.56026 0.0
H871 H 0.84301 0.87192 0.55222 0.0
H872 H 0.72214 0.81575 0.57579 0.0
H873 H 0.74461 0.77834 0.61368 0.0
H874 H 0.6781 0.81291 0.58364 0.0
H875 H 0.70016 0.77607 0.62085 0.0
H876 H 0.7894 0.78292 0.52906 0.0
H877 H 0.73896 0.84467 0.53592 0.0
H878 H 0.70676 0.85735 0.63654 0.0
H879 H 0.70172 0.89353 0.59604 0.0
Li880 Li 0.91585 0.06342 0.34411 0.0
Li881 Li 0.95672 0.04207 0.34918 0.0
Li882 Li 0.933 0.03475 0.32625 0.0
Li883 Li 0.91784 0.01904 0.34818 0.0
C884 C 0.95489 0.08965 0.3301 0.0
N885 N 0.96882 0.13762 0.32305 0.0
C886 C 0.9708 0.10318 0.33887 0.0
C887 C 0.94641 0.10039 0.31763 0.0
C888 C 0.97753 0.12744 0.33516 0.0
C889 C 0.95356 0.1247 0.31428 0.0
C890 C 0.91759 0.03665 0.37336 0.0
C891 C 0.92033 0.00861 0.39304 0.0
N892 N 0.89685 0.01518 0.39694 0.0
C893 C 0.89354 0.04323 0.37758 0.0
C894 C 0.93117 0.01928 0.38115 0.0
C895 C 0.88336 0.03213 0.38953 0.0
C896 C 0.87218 0.09314 0.34701 0.0
N897 N 0.89746 0.09305 0.34807 0.0
C898 C 0.89714 0.13449 0.35724 0.0
C899 C 0.90998 0.11305 0.35323 0.0
C900 C 0.87104 0.13521 0.35622 0.0
C901 C 0.85852 0.11417 0.351 0.0
H902 H 0.86254 0.07669 0.34336 0.0
H903 H 0.92989 0.1121 0.35468 0.0
C904 C 0.00932 0.04522 0.3497 0.0
N905 N 0.98827 0.04766 0.35748 0.0
C906 C 0.03226 0.05289 0.35513 0.0
C907 C 0.01142 0.06462 0.37663 0.0
C908 C 0.98892 0.05675 0.37078 0.0
C909 C 0.03342 0.06327 0.36867 0.0
H910 H 0.00813 0.03816 0.33909 0.0
H911 H 0.97179 0.05893 0.37662 0.0
C912 C 0.88266 0.04122 0.32289 0.0
N913 N 0.85099 0.0498 0.30055 0.0
C914 C 0.86605 0.02271 0.31854 0.0
C915 C 0.88307 0.06412 0.31593 0.0
C916 C 0.85022 0.02739 0.3072 0.0
C917 C 0.86693 0.0681 0.30466 0.0
C918 C 0.95649 0.98654 0.34152 0.0
C919 C 0.94642 0.96733 0.33341 0.0
C920 C 0.97349 0.98096 0.35218 0.0
C921 C 0.95332 0.94273 0.33623 0.0
C922 C 0.97994 0.95612 0.35464 0.0
N923 N 0.96978 0.93768 0.34669 0.0
C924 C 0.95165 0.03963 0.29816 0.0
C925 C 0.92173 0.00793 0.30213 0.0
C926 C 0.95305 0.03321 0.28395 0.0
N927 N 0.93595 0.02711 0.30686 0.0
C928 C 0.92247 0.00096 0.28806 0.0
C929 C 0.93816 0.01373 0.27873 0.0
H930 H 0.96305 0.05457 0.30224 0.0
H931 H 0.90978 0.99799 0.30933 0.0
C932 C 0.87313 0.99729 0.35546 0.0
N933 N 0.898 0.99271 0.35599 0.0
C934 C 0.85612 0.97948 0.36006 0.0
C935 C 0.89056 0.95248 0.36594 0.0
C936 C 0.90695 0.9711 0.36148 0.0
C937 C 0.86467 0.95639 0.3651 0.0
H938 H 0.86646 0.01491 0.35144 0.0
H939 H 0.92673 0.9681 0.36236 0.0
O940 O 0.94833 0.06576 0.33351 0.0
O941 O 0.92754 0.04668 0.36144 0.0
O942 O 0.89859 0.03676 0.33381 0.0
O943 O 0.95026 0.01076 0.33883 0.0
H944 H 0.97767 0.09516 0.34853 0.0
H945 H 0.93459 0.09004 0.31053 0.0
H946 H 0.98967 0.13818 0.3419 0.0
H947 H 0.94707 0.13326 0.30468 0.0
H948 H 0.93055 0.99502 0.39914 0.0
H949 H 0.88276 0.05655 0.37159 0.0
H950 H 0.94974 0.01387 0.37794 0.0
H951 H 0.86471 0.03692 0.39289 0.0
H952 H 0.90748 0.15002 0.36157 0.0
H953 H 0.83841 0.11391 0.3501 0.0
H954 H 0.04879 0.0513 0.34868 0.0
H955 H 0.01134 0.07285 0.387 0.0
H956 H 0.86555 0.00482 0.32378 0.0
H957 H 0.89559 0.0787 0.31927 0.0
H958 H 0.83735 0.01319 0.30368 0.0
H959 H 0.86707 0.08575 0.29918 0.0
H960 H 0.93331 0.97133 0.32511 0.0
H961 H 0.98153 0.99562 0.35851 0.0
H962 H 0.94557 0.92764 0.33009 0.0
H963 H 0.993 0.9515 0.36289 0.0
H964 H 0.96533 0.04361 0.2771 0.0
H965 H 0.91104 0.98553 0.28457 0.0
H966 H 0.83645 0.98389 0.35967 0.0
H967 H 0.89818 0.93507 0.36973 0.0
Li968 Li 0.68587 0.16353 0.09551 0.0
Li969 Li 0.70736 0.20489 0.09972 0.0
Li970 Li 0.71465 0.17983 0.07715 0.0
Li971 Li 0.72954 0.16596 0.09925 0.0
C972 C 0.66238 0.20672 0.07995 0.0
N973 N 0.61991 0.23095 0.07084 0.0
C974 C 0.6486 0.22145 0.08923 0.0
C975 C 0.65466 0.20451 0.066 0.0
C976 C 0.62715 0.23349 0.08443 0.0
C977 C 0.63311 0.21684 0.06161 0.0
C978 C 0.71287 0.16766 0.1246 0.0
C979 C 0.74031 0.17309 0.14439 0.0
N980 N 0.73521 0.1494 0.14858 0.0
C981 C 0.70779 0.14343 0.12913 0.0
C982 C 0.72918 0.18268 0.13229 0.0
C983 C 0.71932 0.13452 0.14128 0.0
C984 C 0.65694 0.12035 0.10088 0.0
N985 N 0.65601 0.14558 0.09962 0.0
C986 C 0.6132 0.14583 0.1065 0.0
C987 C 0.63473 0.15839 0.10236 0.0
C988 C 0.61359 0.11978 0.108 0.0
C989 C 0.63583 0.10699 0.10504 0.0
H990 H 0.67425 0.11061 0.09896 0.0
H991 H 0.63463 0.17844 0.10176 0.0
C992 C 0.70647 0.25797 0.10013 0.0
N993 N 0.70191 0.23688 0.10759 0.0
C994 C 0.69916 0.28116 0.10544 0.0
C995 C 0.68326 0.2604 0.12609 0.0
C996 C 0.69091 0.2377 0.12041 0.0
C997 C 0.68694 0.28254 0.11849 0.0
H998 H 0.71504 0.25669 0.08989 0.0
H999 H 0.68708 0.22057 0.12597 0.0
C1000 C 0.70158 0.12991 0.07532 0.0
N1001 N 0.68015 0.0988 0.05561 0.0
C1002 C 0.71265 0.10704 0.07209 0.0
C1003 C 0.67956 0.13689 0.06856 0.0
C1004 C 0.70155 0.0916 0.06208 0.0
C1005 C 0.66902 0.12093 0.05863 0.0
C1006 C 0.7638 0.19903 0.08828 0.0
C1007 C 0.77671 0.18127 0.0804 0.0
C1008 C 0.77686 0.21827 0.09488 0.0
C1009 C 0.80262 0.18294 0.07935 0.0
C1010 C 0.80277 0.21931 0.09356 0.0
N1011 N 0.815 0.20176 0.0859 0.0
C1012 C 0.71738 0.20411 0.05058 0.0
C1013 C 0.73329 0.16293 0.05126 0.0
C1014 C 0.72381 0.20626 0.0364 0.0
N1015 N 0.72205 0.18259 0.05765 0.0
C1016 C 0.73973 0.16415 0.03712 0.0
C1017 C 0.735 0.186 0.0295 0.0
H1018 H 0.70882 0.21963 0.05598 0.0
H1019 H 0.7377 0.14638 0.05719 0.0
C1020 C 0.75358 0.12248 0.10692 0.0
N1021 N 0.75632 0.14762 0.10753 0.0
C1022 C 0.77203 0.10684 0.1122 0.0
C1023 C 0.79597 0.14321 0.11872 0.0
C1024 C 0.77679 0.1582 0.1135 0.0
C1025 C 0.79365 0.11718 0.11806 0.0
H1026 H 0.73694 0.11456 0.10235 0.0
H1027 H 0.77826 0.17822 0.11423 0.0
O1028 O 0.68375 0.19519 0.08436 0.0
O1029 O 0.70237 0.17645 0.11252 0.0
O1030 O 0.71243 0.14523 0.08506 0.0
O1031 O 0.73849 0.19766 0.08954 0.0
H1032 H 0.6542 0.22335 0.10006 0.0
H1033 H 0.66522 0.19343 0.05861 0.0
H1034 H 0.61625 0.24484 0.09153 0.0
H1035 H 0.6269 0.21524 0.05085 0.0
H1036 H 0.75309 0.18443 0.1504 0.0
H1037 H 0.6953 0.13155 0.12324 0.0
H1038 H 0.73345 0.20141 0.12883 0.0
H1039 H 0.7157 0.11574 0.14487 0.0
H1040 H 0.59666 0.15652 0.10898 0.0
H1041 H 0.63696 0.08692 0.10601 0.0
H1042 H 0.70262 0.29775 0.09928 0.0
H1043 H 0.67352 0.2604 0.13603 0.0
H1044 H 0.72975 0.10136 0.07719 0.0
H1045 H 0.67056 0.15429 0.07103 0.0
H1046 H 0.70997 0.07389 0.05945 0.0
H1047 H 0.65196 0.12612 0.05334 0.0
H1048 H 0.76687 0.16615 0.07536 0.0
H1049 H 0.76707 0.23215 0.101 0.0
H1050 H 0.8129 0.16924 0.07337 0.0
H1051 H 0.81315 0.23404 0.09864 0.0
H1052 H 0.71986 0.22343 0.03086 0.0
H1053 H 0.74879 0.14831 0.03226 0.0
H1054 H 0.7696 0.08684 0.11149 0.0
H1055 H 0.81225 0.15181 0.12337 0.0
Li1056 Li 0.54338 0.04174 0.65164 0.0
Li1057 Li 0.58477 0.062 0.65724 0.0
Li1058 Li 0.5816 0.01778 0.65332 0.0
Li1059 Li 0.56603 0.03381 0.67492 0.0
C1060 C 0.58295 0.03499 0.62795 0.0
N1061 N 0.60279 0.01286 0.60431 0.0
C1062 C 0.60804 0.03851 0.62458 0.0
C1063 C 0.5679 0.02032 0.6193 0.0
C1064 C 0.61774 0.02712 0.61259 0.0
C1065 C 0.5783 0.00929 0.60738 0.0
C1066 C 0.54521 0.08867 0.67151 0.0
C1067 C 0.54692 0.12243 0.6882 0.0
N1068 N 0.53109 0.13585 0.68001 0.0
C1069 C 0.52871 0.10269 0.66335 0.0
C1070 C 0.55419 0.09851 0.68411 0.0
C1071 C 0.52189 0.12654 0.6678 0.0
C1072 C 0.49041 0.04444 0.64907 0.0
N1073 N 0.51264 0.04859 0.64265 0.0
C1074 C 0.49246 0.0689 0.62349 0.0
C1075 C 0.51401 0.06025 0.63002 0.0
C1076 C 0.46924 0.06569 0.63004 0.0
C1077 C 0.46829 0.05279 0.64287 0.0
H1078 H 0.48997 0.03543 0.65922 0.0
H1079 H 0.53197 0.06364 0.62527 0.0
C1080 C 0.62915 0.08987 0.65288 0.0
N1081 N 0.60384 0.09123 0.65328 0.0
C1082 C 0.64324 0.11058 0.64882 0.0
C1083 C 0.60498 0.13368 0.64576 0.0
C1084 C 0.59166 0.11249 0.64969 0.0
C1085 C 0.6311 0.13285 0.64519 0.0
H1086 H 0.63837 0.07253 0.65544 0.0
H1087 H 0.57159 0.11283 0.64945 0.0
C1088 C 0.54319 0.98599 0.65898 0.0
N1089 N 0.53212 0.93696 0.65276 0.0
C1090 C 0.55461 0.96671 0.66644 0.0
C1091 C 0.52596 0.98037 0.64845 0.0
C1092 C 0.54884 0.94203 0.6631 0.0
C1093 C 0.52064 0.95545 0.64545 0.0
C1094 C 0.6163 0.04048 0.679 0.0
C1095 C 0.63175 0.02205 0.68465 0.0
C1096 C 0.61648 0.06438 0.68481 0.0
C1097 C 0.64699 0.02783 0.69608 0.0
C1098 C 0.63201 0.06945 0.69621 0.0
N1099 N 0.6468 0.05122 0.70158 0.0
C1100 C 0.62516 0.99117 0.64868 0.0
C1101 C 0.59056 0.97175 0.63783 0.0
C1102 C 0.64088 0.97209 0.64424 0.0
N1103 N 0.60042 0.99048 0.6457 0.0
C1104 C 0.60562 0.95212 0.63323 0.0
C1105 C 0.63113 0.95199 0.63658 0.0
H1106 H 0.63279 0.0067 0.65446 0.0
H1107 H 0.57106 0.97195 0.6351 0.0
C1108 C 0.54658 0.03942 0.70288 0.0
N1109 N 0.56213 0.02645 0.69431 0.0
C1110 C 0.54508 0.03345 0.71715 0.0
C1111 C 0.57507 0.00054 0.71333 0.0
C1112 C 0.5759 0.00707 0.6992 0.0
C1113 C 0.55971 0.01395 0.72256 0.0
H1114 H 0.53545 0.05445 0.69867 0.0
H1115 H 0.58767 0.99671 0.6921 0.0
O1116 O 0.57331 0.04539 0.63986 0.0
O1117 O 0.55192 0.06519 0.66735 0.0
O1118 O 0.54839 0.01027 0.66215 0.0
O1119 O 0.60095 0.03497 0.66795 0.0
H1120 H 0.61994 0.04969 0.63124 0.0
H1121 H 0.5485 0.01722 0.62186 0.0
H1122 H 0.63716 0.02955 0.60988 0.0
H1123 H 0.56692 0.99777 0.60062 0.0
H1124 H 0.5538 0.13028 0.6979 0.0
H1125 H 0.52143 0.09538 0.65362 0.0
H1126 H 0.56646 0.08775 0.69075 0.0
H1127 H 0.50929 0.13766 0.66153 0.0
H1128 H 0.49401 0.07848 0.61353 0.0
H1129 H 0.45081 0.05015 0.64835 0.0
H1130 H 0.66336 0.10918 0.64848 0.0
H1131 H 0.59487 0.15029 0.64271 0.0
H1132 H 0.56796 0.97074 0.67462 0.0
H1133 H 0.5169 0.99509 0.6426 0.0
H1134 H 0.55766 0.9269 0.66872 0.0
H1135 H 0.50743 0.95081 0.63729 0.0
H1136 H 0.63176 0.00338 0.68037 0.0
H1137 H 0.60484 0.07891 0.68054 0.0
H1138 H 0.65892 0.01371 0.7006 0.0
H1139 H 0.63229 0.08788 0.7008 0.0
H1140 H 0.66056 0.97327 0.64667 0.0
H1141 H 0.59728 0.9371 0.62728 0.0
H1142 H 0.53301 0.04428 0.72391 0.0
H1143 H 0.58626 0.98505 0.71698 0.0
Li1144 Li 0.73064 0.83098 0.40159 0.0
Li1145 Li 0.71518 0.81686 0.42377 0.0
Li1146 Li 0.70861 0.79162 0.40114 0.0
Li1147 Li 0.68646 0.8326 0.40538 0.0
C1148 C 0.76438 0.79467 0.41007 0.0
N1149 N 0.81464 0.78482 0.40731 0.0
C1150 C 0.78172 0.80788 0.41808 0.0
C1151 C 0.77253 0.77628 0.40075 0.0
C1152 C 0.80707 0.80269 0.41649 0.0
C1153 C 0.79804 0.77161 0.39949 0.0
C1154 C 0.7047 0.86749 0.42558 0.0
C1155 C 0.67351 0.88181 0.4419 0.0
N1156 N 0.68888 0.90069 0.44586 0.0
C1157 C 0.72016 0.88708 0.42977 0.0
C1158 C 0.68117 0.86485 0.43166 0.0
C1159 C 0.71184 0.90365 0.44006 0.0
C1160 C 0.75218 0.8754 0.39343 0.0
N1161 N 0.75682 0.85049 0.3934 0.0
C1162 C 0.79672 0.85727 0.38287 0.0
C1163 C 0.77834 0.84117 0.38794 0.0
C1164 C 0.79243 0.88302 0.38302 0.0
C1165 C 0.76974 0.89208 0.38816 0.0
H1166 H 0.73473 0.88233 0.39754 0.0
H1167 H 0.78132 0.82134 0.38745 0.0
C1168 C 0.71229 0.7973 0.4517 0.0
N1169 N 0.72247 0.81498 0.44325 0.0
C1170 C 0.71848 0.79645 0.46595 0.0
C1171 C 0.74587 0.83164 0.46239 0.0
C1172 C 0.7391 0.83184 0.44828 0.0
C1173 C 0.73545 0.81386 0.47148 0.0
H1174 H 0.69944 0.78382 0.44737 0.0
H1175 H 0.74732 0.84535 0.44126 0.0
C1176 C 0.71463 0.82776 0.37619 0.0
N1177 N 0.73823 0.84387 0.3521 0.0
C1178 C 0.70922 0.85124 0.37065 0.0
C1179 C 0.73193 0.8124 0.36946 0.0
C1180 C 0.72139 0.85907 0.35847 0.0
C1181 C 0.74368 0.82089 0.35729 0.0
C1182 C 0.66223 0.79161 0.42106 0.0
C1183 C 0.64932 0.77406 0.41301 0.0
C1184 C 0.65241 0.79927 0.43394 0.0
C1185 C 0.62659 0.76479 0.41788 0.0
C1186 C 0.62963 0.78956 0.43844 0.0
N1187 N 0.61729 0.77268 0.43039 0.0
C1188 C 0.7094 0.7385 0.40024 0.0
C1189 C 0.69275 0.75899 0.3803 0.0
C1190 C 0.7031 0.71526 0.3946 0.0
N1191 N 0.70389 0.7597 0.39309 0.0
C1192 C 0.68615 0.73625 0.37429 0.0
C1193 C 0.69097 0.71396 0.38153 0.0
H1194 H 0.71808 0.73969 0.41045 0.0
H1195 H 0.68817 0.77618 0.37499 0.0
C1196 C 0.65821 0.87499 0.39783 0.0
N1197 N 0.65657 0.85033 0.401 0.0
C1198 C 0.63724 0.88802 0.39313 0.0
C1199 C 0.61316 0.85023 0.39547 0.0
C1200 C 0.6346 0.83791 0.39996 0.0
C1201 C 0.61434 0.87553 0.3917 0.0
H1202 H 0.67602 0.88435 0.39856 0.0
H1203 H 0.63374 0.81829 0.40223 0.0
O1204 O 0.73949 0.79926 0.41154 0.0
O1205 O 0.71279 0.85095 0.41565 0.0
O1206 O 0.70357 0.82009 0.38836 0.0
O1207 O 0.68463 0.80072 0.41648 0.0
H1208 H 0.77569 0.82214 0.42534 0.0
H1209 H 0.7593 0.76583 0.39453 0.0
H1210 H 0.82074 0.81287 0.42255 0.0
H1211 H 0.80465 0.75752 0.39228 0.0
H1212 H 0.65533 0.87998 0.44669 0.0
H1213 H 0.73847 0.88934 0.42518 0.0
H1214 H 0.66891 0.84996 0.42847 0.0
H1215 H 0.72365 0.91884 0.44344 0.0
H1216 H 0.81394 0.84972 0.37875 0.0
H1217 H 0.76584 0.91189 0.38835 0.0
H1218 H 0.70987 0.78251 0.47257 0.0
H1219 H 0.75943 0.84507 0.46608 0.0
H1220 H 0.69597 0.86339 0.37578 0.0
H1221 H 0.73649 0.79426 0.37371 0.0
H1222 H 0.71751 0.87726 0.3541 0.0
H1223 H 0.75723 0.80928 0.35201 0.0
H1224 H 0.65659 0.76787 0.40303 0.0
H1225 H 0.66232 0.81245 0.44046 0.0
H1226 H 0.61633 0.75133 0.41171 0.0
H1227 H 0.6218 0.79538 0.44837 0.0
H1228 H 0.70735 0.69855 0.40049 0.0
H1229 H 0.67641 0.73625 0.36435 0.0
H1230 H 0.63919 0.90741 0.39019 0.0
H1231 H 0.59589 0.83986 0.39481 0.0
Li1232 Li 0.9188 0.98153 0.15094 0.0
Li1233 Li 0.93423 0.96518 0.17241 0.0
Li1234 Li 0.95661 0.95746 0.14912 0.0
Li1235 Li 0.91652 0.93761 0.15415 0.0
C1236 C 0.95382 0.01335 0.15606 0.0
N1237 N 0.95611 0.06274 0.14807 0.0
C1238 C 0.94556 0.03199 0.16518 0.0
C1239 C 0.96342 0.01978 0.14293 0.0
C1240 C 0.94682 0.05686 0.16093 0.0
C1241 C 0.96439 0.04488 0.13908 0.0
C1242 C 0.88413 0.9537 0.17544 0.0
C1243 C 0.87425 0.92094 0.19184 0.0
N1244 N 0.85353 0.93367 0.19586 0.0
C1245 C 0.86264 0.96638 0.17966 0.0
C1246 C 0.8899 0.93076 0.18153 0.0
C1247 C 0.84746 0.95598 0.19003 0.0
C1248 C 0.90151 0.01829 0.13104 0.0
N1249 N 0.90101 0.00998 0.14452 0.0
C1250 C 0.87034 0.04022 0.15069 0.0
C1251 C 0.88633 0.02087 0.15436 0.0
C1252 C 0.86957 0.04854 0.13676 0.0
C1253 C 0.88585 0.03779 0.12691 0.0
H1254 H 0.9135 0.00932 0.12345 0.0
H1255 H 0.88673 0.01414 0.16504 0.0
C1256 C 0.95578 0.96333 0.20008 0.0
N1257 N 0.93741 0.97268 0.19178 0.0
C1258 C 0.95686 0.96983 0.21429 0.0
C1259 C 0.92055 0.99583 0.21095 0.0
C1260 C 0.92021 0.98889 0.19687 0.0
C1261 C 0.93892 0.98614 0.21991 0.0
H1262 H 0.96954 0.95086 0.19568 0.0
H1263 H 0.90623 0.99655 0.18994 0.0
C1264 C 0.90815 0.9539 0.12702 0.0
N1265 N 0.87047 0.95028 0.10733 0.0
C1266 C 0.88335 0.95793 0.13091 0.0
C1267 C 0.91375 0.94815 0.11307 0.0
C1268 C 0.86459 0.95598 0.12082 0.0
C1269 C 0.89445 0.94637 0.10328 0.0
C1270 C 0.95806 0.91135 0.16851 0.0
C1271 C 0.9725 0.89758 0.15908 0.0
C1272 C 0.95446 0.90232 0.18213 0.0
C1273 C 0.98262 0.87481 0.16331 0.0
C1274 C 0.9649 0.87947 0.18596 0.0
N1275 N 0.97863 0.86628 0.17655 0.0
C1276 C 0.00964 0.95579 0.14688 0.0
C1277 C 0.98678 0.93944 0.1277 0.0
C1278 C 0.03201 0.94738 0.14099 0.0
N1279 N 0.98765 0.95129 0.14028 0.0
C1280 C 0.00856 0.93063 0.12149 0.0
C1281 C 0.0315 0.93403 0.1283 0.0
H1282 H 0.0097 0.96495 0.15699 0.0
H1283 H 0.969 0.93572 0.12284 0.0
C1284 C 0.87278 0.90747 0.15033 0.0
N1285 N 0.89813 0.90788 0.14986 0.0
C1286 C 0.85965 0.88658 0.14562 0.0
C1287 C 0.8989 0.86665 0.1404 0.0
C1288 C 0.9112 0.88806 0.14494 0.0
C1289 C 0.8727 0.86579 0.14043 0.0
H1290 H 0.86267 0.92368 0.1539 0.0
H1291 H 0.93119 0.8891 0.14414 0.0
O1292 O 0.95207 0.98887 0.15985 0.0
O1293 O 0.89932 0.96387 0.16541 0.0
O1294 O 0.92696 0.95569 0.1367 0.0
O1295 O 0.94846 0.93402 0.16466 0.0
H1296 H 0.93801 0.02725 0.17537 0.0
H1297 H 0.96979 0.00551 0.13575 0.0
H1298 H 0.94035 0.0715 0.16783 0.0
H1299 H 0.97163 0.05015 0.12891 0.0
H1300 H 0.87853 0.90316 0.19661 0.0
H1301 H 0.85775 0.9841 0.17501 0.0
H1302 H 0.90606 0.92046 0.17817 0.0
H1303 H 0.83083 0.96564 0.19343 0.0
H1304 H 0.85836 0.04831 0.15863 0.0
H1305 H 0.8857 0.04366 0.11604 0.0
H1306 H 0.97131 0.96189 0.22084 0.0
H1307 H 0.90671 0.00887 0.21474 0.0
H1308 H 0.87852 0.9626 0.14158 0.0
H1309 H 0.93279 0.94515 0.10979 0.0
H1310 H 0.84534 0.95904 0.12372 0.0
H1311 H 0.89855 0.94191 0.09246 0.0
H1312 H 0.97563 0.9042 0.14853 0.0
H1313 H 0.94381 0.91285 0.18972 0.0
H1314 H 0.99366 0.86391 0.15606 0.0
H1315 H 0.96216 0.87225 0.19644 0.0
H1316 H 0.0493 0.95017 0.14663 0.0
H1317 H 0.0074 0.9206 0.11165 0.0
H1318 H 0.83949 0.88712 0.14563 0.0
H1319 H 0.90993 0.85106 0.13674 0.0
Li1320 Li 0.76993 0.16967 0.90186 0.0
Li1321 Li 0.78704 0.18554 0.92379 0.0
Li1322 Li 0.79257 0.20822 0.90173 0.0
Li1323 Li 0.81498 0.1694 0.90598 0.0
C1324 C 0.7507 0.22374 0.91135 0.0
N1325 N 0.73243 0.2718 0.91013 0.0
C1326 C 0.75445 0.24006 0.92258 0.0
C1327 C 0.73765 0.23182 0.89951 0.0
C1328 C 0.74505 0.26429 0.92176 0.0
C1329 C 0.72858 0.25621 0.89909 0.0
C1330 C 0.78311 0.13668 0.92743 0.0
C1331 C 0.79442 0.11656 0.94914 0.0
N1332 N 0.77035 0.1093 0.9509 0.0
C1333 C 0.75851 0.12888 0.92941 0.0
C1334 C 0.80126 0.13035 0.93732 0.0
C1335 C 0.75242 0.11509 0.94136 0.0
C1336 C 0.74933 0.12617 0.89117 0.0
N1337 N 0.74362 0.15017 0.89435 0.0
C1338 C 0.70112 0.1437 0.88784 0.0
C1339 C 0.72011 0.15918 0.89284 0.0
C1340 C 0.7065 0.11879 0.88441 0.0
C1341 C 0.73102 0.11012 0.88613 0.0
H1342 H 0.76812 0.11945 0.89274 0.0
H1343 H 0.71606 0.17827 0.89564 0.0
C1344 C 0.79595 0.19515 0.95315 0.0
N1345 N 0.77918 0.18815 0.94321 0.0
C1346 C 0.78893 0.19602 0.96728 0.0
C1347 C 0.74752 0.18287 0.96057 0.0
C1348 C 0.75524 0.18256 0.94662 0.0
C1349 C 0.7645 0.18949 0.97113 0.0
H1350 H 0.81475 0.19997 0.95014 0.0
H1351 H 0.74217 0.17761 0.93845 0.0
C1352 C 0.78968 0.16795 0.87696 0.0
N1353 N 0.77352 0.14222 0.85355 0.0
C1354 C 0.80206 0.14636 0.87264 0.0
C1355 C 0.76912 0.1765 0.86934 0.0
C1356 C 0.7936 0.13362 0.86077 0.0
C1357 C 0.76121 0.16321 0.85755 0.0
C1358 C 0.84259 0.20242 0.9191 0.0
C1359 C 0.8577 0.21819 0.91111 0.0
C1360 C 0.85339 0.18709 0.92927 0.0
C1361 C 0.88341 0.21826 0.91339 0.0
C1362 C 0.87918 0.18768 0.93123 0.0
N1363 N 0.89353 0.20312 0.92331 0.0
C1364 C 0.80607 0.25885 0.9017 0.0
C1365 C 0.79158 0.24411 0.87975 0.0
C1366 C 0.81261 0.28171 0.89575 0.0
N1367 N 0.79637 0.24044 0.89359 0.0
C1368 C 0.79743 0.26682 0.87341 0.0
C1369 C 0.80881 0.28581 0.88132 0.0
H1370 H 0.8098 0.25536 0.91267 0.0
H1371 H 0.78392 0.22916 0.87353 0.0
C1372 C 0.84965 0.12863 0.90583 0.0
N1373 N 0.8451 0.15236 0.90154 0.0
C1374 C 0.87081 0.11596 0.90103 0.0
C1375 C 0.88232 0.15262 0.88783 0.0
C1376 C 0.86086 0.16438 0.89269 0.0
C1377 C 0.88737 0.12787 0.89175 0.0
H1378 H 0.83646 0.11927 0.91259 0.0
H1379 H 0.85641 0.18299 0.88914 0.0
O1380 O 0.76041 0.2002 0.91177 0.0
O1381 O 0.78935 0.15068 0.91596 0.0
O1382 O 0.79734 0.18041 0.88872 0.0
O1383 O 0.8174 0.20175 0.91687 0.0
H1384 H 0.76473 0.23418 0.93176 0.0
H1385 H 0.73487 0.21952 0.89066 0.0
H1386 H 0.74787 0.27716 0.93034 0.0
H1387 H 0.71856 0.26277 0.88996 0.0
H1388 H 0.80826 0.11165 0.95691 0.0
H1389 H 0.74416 0.13374 0.92193 0.0
H1390 H 0.82041 0.1361 0.93592 0.0
H1391 H 0.73342 0.10909 0.94307 0.0
H1392 H 0.68251 0.15117 0.8866 0.0
H1393 H 0.73591 0.09095 0.88388 0.0
H1394 H 0.80256 0.2012 0.97513 0.0
H1395 H 0.72843 0.1781 0.96308 0.0
H1396 H 0.81789 0.13934 0.87842 0.0
H1397 H 0.75901 0.1929 0.87267 0.0
H1398 H 0.80296 0.11684 0.85734 0.0
H1399 H 0.7452 0.16949 0.85164 0.0
H1400 H 0.84975 0.22996 0.90307 0.0
H1401 H 0.84202 0.1747 0.9355 0.0
H1402 H 0.89534 0.23027 0.90723 0.0
H1403 H 0.88778 0.17582 0.93902 0.0
H1404 H 0.82162 0.29549 0.9023 0.0
H1405 H 0.7936 0.26921 0.86234 0.0
H1406 H 0.87366 0.0968 0.9042 0.0
H1407 H 0.89466 0.16281 0.88091 0.0
Li1408 Li 0.93147 0.53288 0.67146 0.0
Li1409 Li 0.9559 0.54482 0.64995 0.0
Li1410 Li 0.91225 0.55965 0.65348 0.0
Li1411 Li 0.92099 0.51642 0.6489 0.0
C1412 C 0.93637 0.58441 0.67523 0.0
N1413 N 0.92476 0.61947 0.69541 0.0
C1414 C 0.95316 0.60352 0.67833 0.0
C1415 C 0.91366 0.58312 0.68238 0.0
C1416 C 0.94695 0.62107 0.68858 0.0
C1417 C 0.90814 0.60102 0.69255 0.0
C1418 C 0.95668 0.48696 0.65699 0.0
C1419 C 0.96667 0.45297 0.64142 0.0
N1420 N 0.96195 0.43652 0.65194 0.0
C1421 C 0.95212 0.46974 0.66768 0.0
C1422 C 0.96421 0.47854 0.64378 0.0
C1423 C 0.95483 0.44431 0.66491 0.0
C1424 C 0.91736 0.50687 0.69534 0.0
N1425 N 0.93274 0.52533 0.69089 0.0
C1426 C 0.94866 0.53084 0.71409 0.0
C1427 C 0.94831 0.53731 0.69988 0.0
C1428 C 0.93308 0.51163 0.71903 0.0
C1429 C 0.91736 0.49955 0.70937 0.0
H1430 H 0.90532 0.49756 0.6879 0.0
H1431 H 0.96041 0.5519 0.69604 0.0
C1432 C 0.98961 0.58129 0.64263 0.0
N1433 N 0.9869 0.55613 0.64284 0.0
C1434 C 0.01141 0.59201 0.63747 0.0
C1435 C 0.02711 0.55071 0.63246 0.0
C1436 C 0.0051 0.54073 0.63799 0.0
C1437 C 0.03044 0.57667 0.63225 0.0
H1438 H 0.9747 0.59305 0.64644 0.0
H1439 H 0.00247 0.52078 0.6383 0.0
C1440 C 0.87325 0.52736 0.66031 0.0
N1441 N 0.8232 0.52129 0.65449 0.0
C1442 C 0.86476 0.52834 0.64647 0.0
C1443 C 0.85632 0.52325 0.6712 0.0
C1444 C 0.83938 0.52523 0.64374 0.0
C1445 C 0.83107 0.52026 0.66804 0.0
C1446 C 0.92733 0.5435 0.62251 0.0
C1447 C 0.90656 0.55203 0.61506 0.0
C1448 C 0.94769 0.53371 0.61521 0.0
C1449 C 0.90632 0.55013 0.60045 0.0
C1450 C 0.94673 0.53213 0.6006 0.0
N1451 N 0.92622 0.54027 0.59358 0.0
C1452 C 0.90189 0.60335 0.63966 0.0
C1453 C 0.86857 0.59141 0.65453 0.0
C1454 C 0.8884 0.6238 0.63483 0.0
N1455 N 0.89174 0.5875 0.64918 0.0
C1456 C 0.85434 0.6117 0.64995 0.0
C1457 C 0.86413 0.62805 0.63982 0.0
H1458 H 0.92045 0.59985 0.63569 0.0
H1459 H 0.861 0.57868 0.66221 0.0
C1460 C 0.89555 0.47165 0.65025 0.0
N1461 N 0.90677 0.48697 0.6408 0.0
C1462 C 0.88186 0.4511 0.64573 0.0
C1463 C 0.8923 0.46175 0.62182 0.0
C1464 C 0.90583 0.48215 0.62681 0.0
C1465 C 0.87964 0.44622 0.63132 0.0
H1466 H 0.89652 0.47598 0.66131 0.0
H1467 H 0.91494 0.49436 0.61947 0.0
O1468 O 0.94223 0.5671 0.66522 0.0
O1469 O 0.95355 0.5119 0.65941 0.0
O1470 O 0.89802 0.53024 0.66327 0.0
O1471 O 0.92801 0.54548 0.63681 0.0
H1472 H 0.97083 0.60475 0.67291 0.0
H1473 H 0.90043 0.56846 0.68015 0.0
H1474 H 0.95977 0.63596 0.6911 0.0
H1475 H 0.89064 0.60025 0.69817 0.0
H1476 H 0.97225 0.44619 0.6312 0.0
H1477 H 0.94648 0.4759 0.67799 0.0
H1478 H 0.96768 0.49156 0.63537 0.0
H1479 H 0.95124 0.43078 0.67307 0.0
H1480 H 0.96082 0.54098 0.72113 0.0
H1481 H 0.9054 0.48432 0.71254 0.0
H1482 H 0.01322 0.61211 0.63734 0.0
H1483 H 0.04148 0.53833 0.62858 0.0
H1484 H 0.87763 0.5313 0.63794 0.0
H1485 H 0.86263 0.52244 0.68197 0.0
H1486 H 0.83257 0.5259 0.63307 0.0
H1487 H 0.81774 0.5171 0.67636 0.0
H1488 H 0.89082 0.56014 0.62048 0.0
H1489 H 0.96401 0.52729 0.62075 0.0
H1490 H 0.89033 0.55656 0.59457 0.0
H1491 H 0.9623 0.52444 0.59483 0.0
H1492 H 0.89697 0.63619 0.62727 0.0
H1493 H 0.83571 0.61422 0.65407 0.0
H1494 H 0.87219 0.43985 0.65343 0.0
H1495 H 0.89135 0.45846 0.61063 0.0
Li1496 Li 0.70249 0.70325 0.9012 0.0
Li1497 Li 0.71392 0.68082 0.9236 0.0
Li1498 Li 0.73144 0.66783 0.90087 0.0
Li1499 Li 0.68716 0.65999 0.90594 0.0
C1500 C 0.75957 0.70807 0.90935 0.0
N1501 N 0.80892 0.72184 0.90653 0.0
C1502 C 0.77486 0.70985 0.92118 0.0
C1503 C 0.76932 0.7135 0.89611 0.0
C1504 C 0.79977 0.7168 0.91953 0.0
C1505 C 0.79434 0.72036 0.8949 0.0
C1506 C 0.66255 0.68853 0.92705 0.0
C1507 C 0.64203 0.66354 0.94459 0.0
N1508 N 0.62773 0.68348 0.94818 0.0
C1509 C 0.64763 0.70875 0.93086 0.0
C1510 C 0.65975 0.66572 0.93393 0.0
C1511 C 0.63015 0.70584 0.94159 0.0
C1512 C 0.66662 0.73626 0.8922 0.0
N1513 N 0.69173 0.73353 0.893 0.0
C1514 C 0.69795 0.77278 0.88168 0.0
C1515 C 0.70748 0.75124 0.88798 0.0
C1516 C 0.67199 0.7761 0.88064 0.0
C1517 C 0.65631 0.7575 0.88612 0.0
H1518 H 0.65458 0.72183 0.89631 0.0
H1519 H 0.7274 0.74854 0.88873 0.0
C1520 C 0.74062 0.66823 0.94736 0.0
N1521 N 0.72188 0.68331 0.94293 0.0
C1522 C 0.74806 0.66839 0.96136 0.0
C1523 C 0.71695 0.6999 0.96603 0.0
C1524 C 0.71012 0.69915 0.95188 0.0
C1525 C 0.7361 0.68427 0.97096 0.0
H1526 H 0.74988 0.6561 0.93994 0.0
H1527 H 0.69543 0.71113 0.94805 0.0
C1528 C 0.7027 0.67274 0.87462 0.0
N1529 N 0.70365 0.67017 0.84569 0.0
C1530 C 0.6915 0.6527 0.8677 0.0
C1531 C 0.71428 0.69152 0.86684 0.0
C1532 C 0.69221 0.65172 0.85306 0.0
C1533 C 0.7146 0.68986 0.85222 0.0
C1534 C 0.71742 0.62208 0.91837 0.0
C1535 C 0.7228 0.60544 0.90751 0.0
C1536 C 0.71255 0.61298 0.93183 0.0
C1537 C 0.72324 0.57989 0.91032 0.0
C1538 C 0.7131 0.5873 0.9342 0.0
N1539 N 0.71841 0.57143 0.92349 0.0
C1540 C 0.7815 0.65168 0.90074 0.0
C1541 C 0.75908 0.64095 0.88024 0.0
C1542 C 0.80231 0.6385 0.89603 0.0
N1543 N 0.76046 0.65277 0.89282 0.0
C1544 C 0.77918 0.62701 0.87529 0.0
C1545 C 0.80121 0.62539 0.88326 0.0
H1546 H 0.78193 0.66044 0.91093 0.0
H1547 H 0.74196 0.64118 0.87434 0.0
C1548 C 0.64194 0.65146 0.8936 0.0
N1549 N 0.65911 0.63954 0.90163 0.0
C1550 C 0.62156 0.63854 0.88818 0.0
C1551 C 0.63637 0.60134 0.89976 0.0
C1552 C 0.65652 0.61504 0.905 0.0
C1553 C 0.61878 0.613 0.89101 0.0
H1554 H 0.64449 0.67096 0.89111 0.0
H1555 H 0.67022 0.60592 0.91148 0.0
O1556 O 0.73517 0.70116 0.91078 0.0
O1557 O 0.67995 0.69121 0.91669 0.0
O1558 O 0.70208 0.674 0.88894 0.0
O1559 O 0.71708 0.64717 0.9159 0.0
H1560 H 0.76756 0.70591 0.93152 0.0
H1561 H 0.7578 0.71213 0.88685 0.0
H1562 H 0.81183 0.71818 0.92859 0.0
H1563 H 0.80218 0.72445 0.8847 0.0
H1564 H 0.63966 0.64601 0.95002 0.0
H1565 H 0.64965 0.72655 0.92563 0.0
H1566 H 0.67114 0.6499 0.93108 0.0
H1567 H 0.61851 0.72135 0.9447 0.0
H1568 H 0.71076 0.78648 0.8775 0.0
H1569 H 0.63623 0.75939 0.88586 0.0
H1570 H 0.76321 0.65637 0.96461 0.0
H1571 H 0.70709 0.71229 0.97308 0.0
H1572 H 0.68253 0.63795 0.87357 0.0
H1573 H 0.72288 0.70722 0.87202 0.0
H1574 H 0.68369 0.63629 0.84756 0.0
H1575 H 0.72351 0.70426 0.84607 0.0
H1576 H 0.72632 0.61213 0.897 0.0
H1577 H 0.70829 0.6256 0.94035 0.0
H1578 H 0.72734 0.56678 0.90201 0.0
H1579 H 0.70931 0.58 0.94456 0.0
H1580 H 0.81886 0.63822 0.90251 0.0
H1581 H 0.77693 0.61675 0.86561 0.0
H1582 H 0.6082 0.64846 0.88176 0.0
H1583 H 0.63502 0.58167 0.90219 0.0
Li1584 Li 0.56901 0.46341 0.17283 0.0
Li1585 Li 0.54486 0.45395 0.15071 0.0
Li1586 Li 0.58826 0.43835 0.15398 0.0
Li1587 Li 0.57997 0.48203 0.15088 0.0
C1588 C 0.56335 0.41112 0.17444 0.0
N1589 N 0.57418 0.37258 0.19264 0.0
C1590 C 0.54718 0.39082 0.17557 0.0
C1591 C 0.58506 0.41181 0.18253 0.0
C1592 C 0.55298 0.37152 0.18485 0.0
C1593 C 0.59019 0.39215 0.19168 0.0
C1594 C 0.54407 0.51081 0.15919 0.0
C1595 C 0.53326 0.54528 0.14414 0.0
N1596 N 0.53878 0.56141 0.15469 0.0
C1597 C 0.54942 0.52772 0.16993 0.0
C1598 C 0.53572 0.51964 0.14623 0.0
C1599 C 0.5467 0.55323 0.16743 0.0
C1600 C 0.58312 0.48836 0.1968 0.0
N1601 N 0.56805 0.4696 0.19243 0.0
C1602 C 0.55356 0.46301 0.21585 0.0
C1603 C 0.55337 0.45687 0.20157 0.0
C1604 C 0.56874 0.48264 0.22069 0.0
C1605 C 0.58358 0.49539 0.21087 0.0
H1606 H 0.59451 0.49821 0.18926 0.0
H1607 H 0.54156 0.44198 0.1978 0.0
C1608 C 0.51365 0.41904 0.13918 0.0
N1609 N 0.51423 0.44349 0.1428 0.0
C1610 C 0.49253 0.4089 0.13288 0.0
C1611 C 0.47287 0.44938 0.13408 0.0
C1612 C 0.49442 0.45873 0.14048 0.0
C1613 C 0.47177 0.42412 0.13013 0.0
H1614 H 0.52973 0.40741 0.14119 0.0
H1615 H 0.49543 0.47815 0.14345 0.0
C1616 C 0.62749 0.46889 0.16263 0.0
N1617 N 0.67808 0.47437 0.15831 0.0
C1618 C 0.63701 0.46993 0.14901 0.0
C1619 C 0.64366 0.47067 0.17406 0.0
C1620 C 0.66265 0.47272 0.14703 0.0
C1621 C 0.6692 0.4734 0.17166 0.0
C1622 C 0.57411 0.45917 0.12361 0.0
C1623 C 0.59548 0.45301 0.11597 0.0
C1624 C 0.55352 0.46927 0.11666 0.0
C1625 C 0.59614 0.45774 0.10156 0.0
C1626 C 0.5549 0.4737 0.10224 0.0
N1627 N 0.57602 0.46793 0.09506 0.0
C1628 C 0.60006 0.397 0.13817 0.0
C1629 C 0.63082 0.4054 0.15537 0.0
C1630 C 0.61378 0.37686 0.13311 0.0
N1631 N 0.60881 0.41089 0.149 0.0
C1632 C 0.64524 0.38537 0.15061 0.0
C1633 C 0.63682 0.37089 0.13925 0.0
H1634 H 0.58238 0.4017 0.13341 0.0
H1635 H 0.63728 0.4166 0.16405 0.0
C1636 C 0.60701 0.52506 0.15434 0.0
N1637 N 0.59482 0.51222 0.14415 0.0
C1638 C 0.62212 0.54524 0.15092 0.0
C1639 C 0.6104 0.54001 0.12662 0.0
C1640 C 0.59565 0.51965 0.13051 0.0
C1641 C 0.62447 0.55249 0.13686 0.0
H1642 H 0.60583 0.5189 0.16512 0.0
H1643 H 0.5857 0.50938 0.12257 0.0
O1644 O 0.558 0.43005 0.16532 0.0
O1645 O 0.54725 0.48579 0.16132 0.0
O1646 O 0.60244 0.46633 0.16485 0.0
O1647 O 0.57302 0.45442 0.13769 0.0
H1648 H 0.53034 0.39 0.16933 0.0
H1649 H 0.59784 0.42733 0.18177 0.0
H1650 H 0.54063 0.35569 0.18584 0.0
H1651 H 0.60692 0.39244 0.19801 0.0
H1652 H 0.52701 0.55236 0.13411 0.0
H1653 H 0.55568 0.52126 0.18006 0.0
H1654 H 0.53146 0.50686 0.13782 0.0
H1655 H 0.55092 0.56652 0.17563 0.0
H1656 H 0.54208 0.45234 0.223 0.0
H1657 H 0.59517 0.51097 0.21392 0.0
H1658 H 0.49243 0.38924 0.13033 0.0
H1659 H 0.45744 0.46186 0.13207 0.0
H1660 H 0.62472 0.46883 0.14008 0.0
H1661 H 0.63655 0.46989 0.18468 0.0
H1662 H 0.67026 0.47362 0.13654 0.0
H1663 H 0.68196 0.47477 0.18041 0.0
H1664 H 0.61136 0.44451 0.12107 0.0
H1665 H 0.53662 0.4736 0.1223 0.0
H1666 H 0.61261 0.45319 0.09554 0.0
H1667 H 0.53915 0.48166 0.09676 0.0
H1668 H 0.60623 0.36593 0.12456 0.0
H1669 H 0.66291 0.38153 0.15564 0.0
H1670 H 0.63249 0.55459 0.15912 0.0
H1671 H 0.61183 0.54507 0.11565 0.0
Li1672 Li 0.78239 0.31547 0.42369 0.0
Li1673 Li 0.79197 0.29422 0.40114 0.0
Li1674 Li 0.80839 0.33611 0.4054 0.0
Li1675 Li 0.76318 0.32803 0.40144 0.0
C1676 C 0.83249 0.30172 0.42633 0.0
N1677 N 0.86655 0.29405 0.44761 0.0
C1678 C 0.83999 0.27755 0.42978 0.0
C1679 C 0.84245 0.322 0.43361 0.0
C1680 C 0.85719 0.27405 0.4406 0.0
C1681 C 0.85961 0.31773 0.44436 0.0
C1682 C 0.73477 0.29184 0.41051 0.0
C1683 C 0.69808 0.28256 0.39686 0.0
N1684 N 0.68367 0.28673 0.40835 0.0
C1685 C 0.71961 0.29579 0.42222 0.0
C1686 C 0.72396 0.28494 0.39775 0.0
C1687 C 0.69381 0.2932 0.42091 0.0
C1688 C 0.75989 0.33082 0.44839 0.0
N1689 N 0.77593 0.31343 0.44331 0.0
C1690 C 0.77953 0.29484 0.46602 0.0
C1691 C 0.78562 0.29546 0.45175 0.0
C1692 C 0.7631 0.31273 0.47159 0.0
C1693 C 0.75317 0.3308 0.46251 0.0
H1694 H 0.75193 0.34451 0.44137 0.0
H1695 H 0.79791 0.28151 0.44742 0.0
C1696 C 0.82774 0.26151 0.39157 0.0
N1697 N 0.80264 0.2638 0.39283 0.0
C1698 C 0.83806 0.24073 0.38504 0.0
C1699 C 0.79648 0.22471 0.38131 0.0
C1700 C 0.78691 0.24593 0.38795 0.0
C1701 C 0.82241 0.22201 0.3797 0.0
H1702 H 0.83976 0.27608 0.39553 0.0
H1703 H 0.76701 0.24828 0.38904 0.0
C1704 C 0.78121 0.37308 0.42026 0.0
N1705 N 0.78528 0.42195 0.42906 0.0
C1706 C 0.77022 0.39221 0.41246 0.0
C1707 C 0.79406 0.37877 0.43259 0.0
C1708 C 0.77254 0.41681 0.41707 0.0
C1709 C 0.79597 0.40361 0.43685 0.0
C1710 C 0.79803 0.31247 0.376 0.0
C1711 C 0.82286 0.31322 0.3716 0.0
C1712 C 0.78049 0.29943 0.36802 0.0
C1713 C 0.82981 0.30058 0.3594 0.0
C1714 C 0.78817 0.28702 0.35589 0.0
N1715 N 0.81248 0.28782 0.35187 0.0
C1716 C 0.85878 0.34575 0.40063 0.0
C1717 C 0.83347 0.38175 0.39845 0.0
C1718 C 0.87959 0.35894 0.39597 0.0
N1719 N 0.83622 0.35717 0.40159 0.0
C1720 C 0.85394 0.3958 0.394 0.0
C1721 C 0.87719 0.3842 0.39243 0.0
H1722 H 0.86036 0.32607 0.4029 0.0
H1723 H 0.81528 0.39026 0.39885 0.0
C1724 C 0.71806 0.35266 0.40471 0.0
N1725 N 0.73366 0.34343 0.39476 0.0
C1726 C 0.69751 0.36699 0.40086 0.0
C1727 C 0.70903 0.36146 0.37654 0.0
C1728 C 0.72946 0.34727 0.38087 0.0
C1729 C 0.69306 0.37197 0.38662 0.0
H1730 H 0.72216 0.34963 0.41569 0.0
H1731 H 0.74247 0.34017 0.3732 0.0
O1732 O 0.81561 0.30542 0.41581 0.0
O1733 O 0.76003 0.29481 0.41152 0.0
O1734 O 0.77895 0.34887 0.41596 0.0
O1735 O 0.79102 0.32406 0.38817 0.0
H1736 H 0.83246 0.26166 0.42421 0.0
H1737 H 0.83711 0.34082 0.43092 0.0
H1738 H 0.86308 0.25545 0.44344 0.0
H1739 H 0.86745 0.33326 0.45009 0.0
H1740 H 0.68947 0.27743 0.38701 0.0
H1741 H 0.72763 0.3009 0.43221 0.0
H1742 H 0.73538 0.28168 0.38861 0.0
H1743 H 0.68185 0.29635 0.42987 0.0
H1744 H 0.78777 0.28064 0.47262 0.0
H1745 H 0.73999 0.34459 0.4662 0.0
H1746 H 0.85814 0.23927 0.38429 0.0
H1747 H 0.78373 0.21081 0.37727 0.0
H1748 H 0.76022 0.38814 0.40287 0.0
H1749 H 0.8023 0.36417 0.43888 0.0
H1750 H 0.76425 0.43181 0.41111 0.0
H1751 H 0.80588 0.40828 0.44637 0.0
H1752 H 0.83669 0.32323 0.37759 0.0
H1753 H 0.76121 0.29867 0.37123 0.0
H1754 H 0.849 0.30086 0.35593 0.0
H1755 H 0.77482 0.2767 0.34969 0.0
H1756 H 0.89727 0.3494 0.39489 0.0
H1757 H 0.85138 0.41519 0.3912 0.0
H1758 H 0.68558 0.37459 0.40896 0.0
H1759 H 0.70646 0.36517 0.36546 0.0
Li1760 Li 0.91739 0.4835 0.84815 0.0
Li1761 Li 0.90759 0.4391 0.8438 0.0
Li1762 Li 0.95036 0.45301 0.84799 0.0
Li1763 Li 0.92892 0.46352 0.82583 0.0
C1764 C 0.9313 0.44716 0.87319 0.0
N1765 N 0.95385 0.43057 0.89749 0.0
C1766 C 0.92963 0.42208 0.87702 0.0
C1767 C 0.94419 0.46386 0.88177 0.0
C1768 C 0.94121 0.41405 0.88934 0.0
C1769 C 0.95554 0.45509 0.894 0.0
C1770 C 0.87085 0.46448 0.83134 0.0
C1771 C 0.83819 0.44261 0.8191 0.0
N1772 N 0.82093 0.45434 0.8272 0.0
C1773 C 0.85281 0.47646 0.83949 0.0
C1774 C 0.86352 0.44755 0.821 0.0
C1775 C 0.82766 0.47104 0.83725 0.0
C1776 C 0.90092 0.53353 0.84759 0.0
N1777 N 0.90349 0.51303 0.85583 0.0
C1778 C 0.87911 0.5319 0.87389 0.0
C1779 C 0.89324 0.51198 0.86883 0.0
C1780 C 0.87572 0.5533 0.86554 0.0
C1781 C 0.88754 0.55413 0.85237 0.0
H1782 H 0.90847 0.53356 0.83709 0.0
H1783 H 0.89495 0.49514 0.87499 0.0
C1784 C 0.8919 0.38919 0.84443 0.0
N1785 N 0.88499 0.41277 0.84783 0.0
C1786 C 0.87754 0.36893 0.84877 0.0
C1787 C 0.84876 0.39762 0.85968 0.0
C1788 C 0.86391 0.41732 0.85531 0.0
C1789 C 0.85572 0.37292 0.85665 0.0
H1790 H 0.90915 0.38604 0.83886 0.0
H1791 H 0.85923 0.4362 0.85825 0.0
C1792 C 0.95658 0.50963 0.83839 0.0
N1793 N 0.96875 0.5596 0.83943 0.0
C1794 C 0.95621 0.52398 0.82616 0.0
C1795 C 0.96336 0.52061 0.85112 0.0
C1796 C 0.96238 0.54923 0.82691 0.0
C1797 C 0.96937 0.54593 0.85144 0.0
C1798 C 0.94708 0.41705 0.82221 0.0
C1799 C 0.97283 0.41454 0.82054 0.0
C1800 C 0.93097 0.40652 0.81234 0.0
C1801 C 0.98205 0.40164 0.80891 0.0
C1802 C 0.94092 0.39382 0.80085 0.0
N1803 N 0.96604 0.39166 0.79938 0.0
C1804 C 0.98249 0.41705 0.85856 0.0
C1805 C 0.99905 0.45788 0.86031 0.0
C1806 C 0.00353 0.4071 0.86503 0.0
N1807 N 0.98059 0.44199 0.85639 0.0
C1808 C 0.02055 0.44869 0.86681 0.0
C1809 C 0.02293 0.42296 0.86929 0.0
H1810 H 0.96751 0.40488 0.85528 0.0
H1811 H 0.99705 0.47764 0.85847 0.0
C1812 C 0.91143 0.48193 0.80039 0.0
N1813 N 0.93129 0.47011 0.8062 0.0
C1814 C 0.91163 0.48857 0.78626 0.0
C1815 C 0.95283 0.47081 0.78423 0.0
C1816 C 0.95196 0.46482 0.7985 0.0
C1817 C 0.93246 0.4829 0.7779 0.0
H1818 H 0.89554 0.48666 0.80681 0.0
H1819 H 0.96787 0.45619 0.80344 0.0
O1820 O 0.92072 0.45525 0.86097 0.0
O1821 O 0.89557 0.46935 0.83345 0.0
O1822 O 0.95051 0.48491 0.83787 0.0
O1823 O 0.93767 0.42959 0.83352 0.0
H1824 H 0.91977 0.4089 0.87046 0.0
H1825 H 0.94556 0.48334 0.87896 0.0
H1826 H 0.94024 0.39466 0.89239 0.0
H1827 H 0.96572 0.46777 0.90071 0.0
H1828 H 0.83224 0.42946 0.81118 0.0
H1829 H 0.85816 0.48967 0.84751 0.0
H1830 H 0.87726 0.43829 0.81455 0.0
H1831 H 0.81349 0.48007 0.84352 0.0
H1832 H 0.86999 0.52991 0.88395 0.0
H1833 H 0.88596 0.57023 0.8456 0.0
H1834 H 0.88411 0.35031 0.84644 0.0
H1835 H 0.83204 0.40174 0.86559 0.0
H1836 H 0.95111 0.51574 0.81621 0.0
H1837 H 0.96372 0.50977 0.86068 0.0
H1838 H 0.96208 0.5606 0.81754 0.0
H1839 H 0.97449 0.55473 0.86123 0.0
H1840 H 0.98557 0.42267 0.82804 0.0
H1841 H 0.91099 0.40816 0.81355 0.0
H1842 H 0.00194 0.39964 0.80744 0.0
H1843 H 0.92868 0.38565 0.79309 0.0
H1844 H 0.00473 0.38713 0.8665 0.0
H1845 H 0.03499 0.46159 0.87 0.0
H1846 H 0.89576 0.4985 0.78203 0.0
H1847 H 0.96927 0.46592 0.77825 0.0
Li1848 Li 0.81005 0.6606 0.09642 0.0
Li1849 Li 0.76669 0.66714 0.09967 0.0
Li1850 Li 0.78306 0.6801 0.07789 0.0
Li1851 Li 0.7919 0.70375 0.10025 0.0
C1852 C 0.79284 0.62967 0.07567 0.0
N1853 N 0.8133 0.59818 0.05581 0.0
C1854 C 0.7813 0.607 0.0725 0.0
C1855 C 0.81479 0.63632 0.0687 0.0
C1856 C 0.79193 0.59135 0.06244 0.0
C1857 C 0.82484 0.62014 0.05871 0.0
C1858 C 0.78246 0.66909 0.12534 0.0
C1859 C 0.75593 0.68 0.14478 0.0
N1860 N 0.75775 0.65625 0.14967 0.0
C1861 C 0.78425 0.64485 0.13059 0.0
C1862 C 0.76832 0.68687 0.13249 0.0
C1863 C 0.77154 0.63871 0.1429 0.0
C1864 C 0.85836 0.6539 0.10626 0.0
N1865 N 0.83845 0.64121 0.10113 0.0
C1866 C 0.85861 0.60226 0.10558 0.0
C1867 C 0.83814 0.61587 0.10072 0.0
C1868 C 0.87927 0.61489 0.11118 0.0
C1869 C 0.87907 0.64106 0.11136 0.0
H1870 H 0.85787 0.67403 0.10668 0.0
H1871 H 0.82178 0.6062 0.09695 0.0
C1872 C 0.71924 0.66119 0.11449 0.0
N1873 N 0.73889 0.65007 0.10795 0.0
C1874 C 0.69963 0.64676 0.11972 0.0
C1875 C 0.72163 0.60977 0.11226 0.0
C1876 C 0.74047 0.62486 0.10693 0.0
C1877 C 0.7008 0.62072 0.11861 0.0
H1878 H 0.71879 0.68116 0.11573 0.0
H1879 H 0.75656 0.61642 0.10206 0.0
C1880 C 0.83113 0.70901 0.07978 0.0
N1881 N 0.86257 0.74497 0.069 0.0
C1882 C 0.82205 0.73282 0.07676 0.0
C1883 C 0.8562 0.70349 0.07735 0.0
C1884 C 0.83824 0.75075 0.07132 0.0
C1885 C 0.8718 0.72191 0.07187 0.0
C1886 C 0.7347 0.70189 0.08978 0.0
C1887 C 0.72041 0.68538 0.08179 0.0
C1888 C 0.72285 0.72052 0.09756 0.0
C1889 C 0.69448 0.68774 0.08174 0.0
C1890 C 0.69688 0.72231 0.09722 0.0
N1891 N 0.68335 0.70601 0.08939 0.0
C1892 C 0.76159 0.66428 0.05267 0.0
C1893 C 0.78607 0.70062 0.04983 0.0
C1894 C 0.75522 0.66447 0.03849 0.0
N1895 N 0.77673 0.68217 0.05809 0.0
C1896 C 0.78018 0.70154 0.03554 0.0
C1897 C 0.76452 0.68328 0.0297 0.0
H1898 H 0.75418 0.64987 0.05939 0.0
H1899 H 0.79798 0.71471 0.05428 0.0
C1900 C 0.82577 0.73405 0.11328 0.0
N1901 N 0.80209 0.73457 0.10824 0.0
C1902 C 0.8367 0.7556 0.11861 0.0
C1903 C 0.79833 0.77777 0.11402 0.0
C1904 C 0.78826 0.7558 0.10848 0.0
C1905 C 0.82296 0.7778 0.11898 0.0
H1906 H 0.83634 0.71691 0.11285 0.0
H1907 H 0.76971 0.75588 0.10413 0.0
O1908 O 0.78236 0.64517 0.08546 0.0
O1909 O 0.79411 0.67528 0.11309 0.0
O1910 O 0.81579 0.69138 0.08551 0.0
O1911 O 0.76013 0.69991 0.08991 0.0
H1912 H 0.76421 0.60161 0.07771 0.0
H1913 H 0.82408 0.6537 0.07092 0.0
H1914 H 0.78316 0.57378 0.05988 0.0
H1915 H 0.84182 0.62506 0.05326 0.0
H1916 H 0.74477 0.6935 0.1504 0.0
H1917 H 0.79509 0.63089 0.12511 0.0
H1918 H 0.7667 0.70568 0.12849 0.0
H1919 H 0.77257 0.61997 0.14704 0.0
H1920 H 0.85793 0.58209 0.10542 0.0
H1921 H 0.89472 0.6515 0.11547 0.0
H1922 H 0.68396 0.65576 0.12479 0.0
H1923 H 0.72318 0.58971 0.11128 0.0
H1924 H 0.80267 0.73737 0.07859 0.0
H1925 H 0.86352 0.68515 0.07966 0.0
H1926 H 0.83147 0.76925 0.06894 0.0
H1927 H 0.89124 0.7179 0.06992 0.0
H1928 H 0.72918 0.67061 0.07591 0.0
H1929 H 0.7335 0.73325 0.10396 0.0
H1930 H 0.68321 0.67498 0.07567 0.0
H1931 H 0.68748 0.73658 0.10324 0.0
H1932 H 0.74277 0.65024 0.03454 0.0
H1933 H 0.78798 0.71625 0.02913 0.0
H1934 H 0.85573 0.75496 0.12239 0.0
H1935 H 0.78733 0.79469 0.11403 0.0
Li1936 Li 0.59279 0.55991 0.34512 0.0
Li1937 Li 0.58278 0.5161 0.34943 0.0
Li1938 Li 0.57307 0.53525 0.32689 0.0
Li1939 Li 0.54979 0.54614 0.34825 0.0
C1940 C 0.6306 0.53579 0.33477 0.0
N1941 N 0.68033 0.54901 0.33426 0.0
C1942 C 0.64679 0.52703 0.34514 0.0
C1943 C 0.6397 0.55117 0.32411 0.0
C1944 C 0.67188 0.53394 0.3447 0.0
C1945 C 0.6649 0.55768 0.32405 0.0
C1946 C 0.56651 0.55346 0.37378 0.0
C1947 C 0.53872 0.54791 0.39342 0.0
N1948 N 0.5419 0.57226 0.39694 0.0
C1949 C 0.56954 0.57842 0.37761 0.0
C1950 C 0.55104 0.53803 0.38177 0.0
C1951 C 0.55693 0.58757 0.38935 0.0
C1952 C 0.61517 0.60783 0.34268 0.0
N1953 N 0.6157 0.58576 0.34965 0.0
C1954 C 0.64616 0.60143 0.36567 0.0
C1955 C 0.63098 0.58213 0.36084 0.0
C1956 C 0.64551 0.62471 0.35895 0.0
C1957 C 0.63009 0.62764 0.34714 0.0
H1958 H 0.60252 0.61036 0.33399 0.0
H1959 H 0.63074 0.56446 0.36629 0.0
C1960 C 0.60761 0.47076 0.34819 0.0
N1961 N 0.59596 0.4864 0.35728 0.0
C1962 C 0.62065 0.45012 0.35318 0.0
C1963 C 0.60875 0.46158 0.37677 0.0
C1964 C 0.59601 0.48212 0.37132 0.0
C1965 C 0.62179 0.44555 0.36767 0.0
H1966 H 0.60759 0.47494 0.33709 0.0
H1967 H 0.58689 0.49506 0.37831 0.0
C1968 C 0.55471 0.58044 0.32206 0.0
N1969 N 0.53674 0.60236 0.29787 0.0
C1970 C 0.52907 0.58365 0.3202 0.0
C1971 C 0.57121 0.58846 0.31166 0.0
C1972 C 0.52036 0.59478 0.30789 0.0
C1973 C 0.56175 0.59945 0.29949 0.0
C1974 C 0.5473 0.48868 0.33936 0.0
C1975 C 0.55339 0.47335 0.32802 0.0
C1976 C 0.53825 0.47809 0.35174 0.0
C1977 C 0.55049 0.44758 0.3293 0.0
C1978 C 0.53566 0.45223 0.35262 0.0
N1979 N 0.54179 0.43764 0.34148 0.0
C1980 C 0.59209 0.51752 0.30145 0.0
C1981 C 0.55026 0.53122 0.29979 0.0
C1982 C 0.59188 0.51 0.28745 0.0
N1983 N 0.57153 0.528 0.30731 0.0
C1984 C 0.54935 0.5244 0.28565 0.0
C1985 C 0.57034 0.51347 0.27926 0.0
H1986 H 0.60851 0.51439 0.30777 0.0
H1987 H 0.53388 0.53883 0.3048 0.0
C1988 C 0.51699 0.58182 0.35859 0.0
N1989 N 0.51877 0.55708 0.35574 0.0
C1990 C 0.49556 0.59146 0.36481 0.0
C1991 C 0.47777 0.55007 0.36472 0.0
C1992 C 0.4997 0.54117 0.35856 0.0
C1993 C 0.47562 0.57552 0.36803 0.0
H1994 H 0.53241 0.59404 0.35613 0.0
H1995 H 0.5016 0.52159 0.35616 0.0
O1996 O 0.60587 0.52971 0.33518 0.0
O1997 O 0.5782 0.54428 0.36212 0.0
O1998 O 0.56361 0.56952 0.33401 0.0
O1999 O 0.55054 0.5139 0.33842 0.0
H2000 H 0.64002 0.51528 0.35353 0.0
H2001 H 0.62738 0.55814 0.31603 0.0
H2002 H 0.68461 0.5274 0.35269 0.0
H2003 H 0.67218 0.56966 0.3159 0.0
H2004 H 0.52656 0.53623 0.39964 0.0
H2005 H 0.58117 0.59073 0.37147 0.0
H2006 H 0.54827 0.51875 0.37888 0.0
H2007 H 0.559 0.60688 0.39239 0.0
H2008 H 0.6579 0.5983 0.37474 0.0
H2009 H 0.62872 0.64537 0.34178 0.0
H2010 H 0.63073 0.4386 0.34578 0.0
H2011 H 0.6089 0.45865 0.38801 0.0
H2012 H 0.51602 0.57744 0.3281 0.0
H2013 H 0.59108 0.586 0.3129 0.0
H2014 H 0.50057 0.59731 0.30628 0.0
H2015 H 0.5743 0.60562 0.29131 0.0
H2016 H 0.56045 0.48121 0.31836 0.0
H2017 H 0.53362 0.48967 0.36065 0.0
H2018 H 0.55523 0.43547 0.32063 0.0
H2019 H 0.52884 0.44377 0.36218 0.0
H2020 H 0.60831 0.50105 0.28322 0.0
H2021 H 0.53237 0.52769 0.27981 0.0
H2022 H 0.49453 0.61125 0.36695 0.0
H2023 H 0.46287 0.53714 0.36708 0.0
Li2024 Li 0.73596 0.32832 0.60032 0.0
Li2025 Li 0.69222 0.33584 0.59687 0.0
Li2026 Li 0.70831 0.29291 0.60078 0.0
Li2027 Li 0.71776 0.31624 0.57851 0.0
C2028 C 0.71257 0.32194 0.62759 0.0
N2029 N 0.72058 0.32244 0.65622 0.0
C2030 C 0.70495 0.34237 0.63562 0.0
C2031 C 0.72388 0.3016 0.63416 0.0
C2032 C 0.70929 0.34232 0.65007 0.0
C2033 C 0.72787 0.30225 0.64864 0.0
C2034 C 0.7225 0.37515 0.58878 0.0
C2035 C 0.72737 0.41744 0.58069 0.0
N2036 N 0.72718 0.4255 0.59422 0.0
C2037 C 0.72233 0.38385 0.60259 0.0
C2038 C 0.72504 0.39205 0.57772 0.0
C2039 C 0.72473 0.40936 0.60513 0.0
C2040 C 0.77979 0.35426 0.59681 0.0
N2041 N 0.76588 0.34363 0.60711 0.0
C2042 C 0.7928 0.36052 0.62468 0.0
C2043 C 0.77223 0.34605 0.62085 0.0
C2044 C 0.80688 0.37259 0.61425 0.0
C2045 C 0.80048 0.36877 0.60014 0.0
H2046 H 0.77429 0.3521 0.58597 0.0
H2047 H 0.76099 0.33755 0.6289 0.0
C2048 C 0.65047 0.34749 0.61233 0.0
N2049 N 0.66434 0.35607 0.60144 0.0
C2050 C 0.63005 0.36105 0.61715 0.0
C2051 C 0.63818 0.39194 0.59927 0.0
C2052 C 0.65853 0.37771 0.59478 0.0
C2053 C 0.62376 0.38373 0.6107 0.0
H2054 H 0.65543 0.33009 0.61733 0.0
H2055 H 0.66975 0.38403 0.58606 0.0
C2056 C 0.76544 0.29263 0.59179 0.0
N2057 N 0.81645 0.28827 0.5949 0.0
C2058 C 0.78129 0.29799 0.58055 0.0
C2059 C 0.77553 0.28472 0.60454 0.0
C2060 C 0.80703 0.29575 0.58235 0.0
C2061 C 0.80137 0.28273 0.60593 0.0
C2062 C 0.66578 0.30981 0.57656 0.0
C2063 C 0.64572 0.29335 0.57543 0.0
C2064 C 0.66647 0.33119 0.56819 0.0
C2065 C 0.62665 0.29852 0.56589 0.0
C2066 C 0.64705 0.3357 0.55878 0.0
N2067 N 0.6277 0.31941 0.55783 0.0
C2068 C 0.67386 0.26186 0.61284 0.0
C2069 C 0.71356 0.24269 0.61123 0.0
C2070 C 0.66395 0.24079 0.61929 0.0
N2071 N 0.6982 0.26244 0.60899 0.0
C2072 C 0.70442 0.22116 0.61775 0.0
C2073 C 0.67928 0.22007 0.62193 0.0
H2074 H 0.66214 0.27789 0.61087 0.0
H2075 H 0.73289 0.24374 0.60808 0.0
C2076 C 0.74017 0.33122 0.55377 0.0
N2077 N 0.72385 0.31422 0.55895 0.0
C2078 C 0.74655 0.33102 0.5396 0.0
C2079 C 0.71889 0.29597 0.53625 0.0
C2080 C 0.71316 0.29674 0.55056 0.0
C2081 C 0.73585 0.31327 0.53058 0.0
H2082 H 0.74859 0.3447 0.56074 0.0
H2083 H 0.70023 0.28344 0.55499 0.0
O2084 O 0.70824 0.32159 0.61345 0.0
O2085 O 0.72025 0.35024 0.586 0.0
O2086 O 0.74022 0.29528 0.59032 0.0
O2087 O 0.68448 0.30504 0.58592 0.0
H2088 H 0.69571 0.35809 0.63077 0.0
H2089 H 0.72951 0.28547 0.62819 0.0
H2090 H 0.70359 0.35805 0.6564 0.0
H2091 H 0.73671 0.28668 0.65384 0.0
H2092 H 0.72933 0.43074 0.57223 0.0
H2093 H 0.72051 0.37104 0.61124 0.0
H2094 H 0.72514 0.38562 0.56696 0.0
H2095 H 0.72468 0.41633 0.61578 0.0
H2096 H 0.79693 0.36313 0.6357 0.0
H2097 H 0.81101 0.37737 0.59175 0.0
H2098 H 0.61918 0.35369 0.62578 0.0
H2099 H 0.63405 0.40934 0.59402 0.0
H2100 H 0.77383 0.30395 0.57057 0.0
H2101 H 0.76358 0.28037 0.61332 0.0
H2102 H 0.81951 0.29999 0.57377 0.0
H2103 H 0.80942 0.27682 0.61579 0.0
H2104 H 0.6449 0.27676 0.58188 0.0
H2105 H 0.68181 0.34419 0.56894 0.0
H2106 H 0.611 0.28594 0.5649 0.0
H2107 H 0.64734 0.35217 0.55224 0.0
H2108 H 0.64437 0.24067 0.62202 0.0
H2109 H 0.71696 0.20573 0.61966 0.0
H2110 H 0.76006 0.34441 0.53582 0.0
H2111 H 0.70996 0.28214 0.52968 0.0
Li2112 Li 0.06301 0.46832 0.32778 0.0
Li2113 Li 0.07712 0.48389 0.34977 0.0
Li2114 Li 0.07971 0.43936 0.34513 0.0
Li2115 Li 0.03853 0.45974 0.35005 0.0
C2116 C 0.11204 0.46952 0.32403 0.0
N2117 N 0.14107 0.47598 0.30036 0.0
C2118 C 0.12201 0.49294 0.32089 0.0
C2119 C 0.11708 0.44935 0.31521 0.0
C2120 C 0.13658 0.49583 0.30886 0.0
C2121 C 0.13173 0.453 0.30327 0.0
C2122 C 0.03762 0.51519 0.34479 0.0
C2123 C 0.0132 0.54136 0.36011 0.0
N2124 N 0.0224 0.56189 0.35354 0.0
C2125 C 0.04674 0.53656 0.33815 0.0
C2126 C 0.02065 0.5176 0.35584 0.0
C2127 C 0.03886 0.55999 0.34275 0.0
C2128 C 0.05044 0.46005 0.2988 0.0
N2129 N 0.0603 0.47622 0.30828 0.0
C2130 C 0.06869 0.50586 0.29018 0.0
C2131 C 0.06893 0.49892 0.30426 0.0
C2132 C 0.05919 0.48938 0.28008 0.0
C2133 C 0.04966 0.4663 0.28455 0.0
H2134 H 0.04332 0.44225 0.30227 0.0
H2135 H 0.07642 0.51154 0.31198 0.0
C2136 C 0.12132 0.50633 0.35751 0.0
N2137 N 0.09631 0.50996 0.35845 0.0
C2138 C 0.13787 0.52371 0.36304 0.0
C2139 C 0.10277 0.54815 0.37092 0.0
C2140 C 0.08683 0.53014 0.36528 0.0
C2141 C 0.12867 0.54507 0.36976 0.0
H2142 H 0.12848 0.48982 0.35242 0.0
H2143 H 0.06699 0.5322 0.36656 0.0
C2144 C 0.04526 0.41179 0.33142 0.0
N2145 N 0.0408 0.3614 0.32597 0.0
C2146 C 0.02914 0.39708 0.33944 0.0
C2147 C 0.05893 0.40089 0.32056 0.0
C2148 C 0.02719 0.37164 0.33654 0.0
C2149 C 0.05647 0.37538 0.31799 0.0
C2150 C 0.07903 0.46351 0.37448 0.0
C2151 C 0.10305 0.45518 0.37767 0.0
C2152 C 0.06731 0.48071 0.38329 0.0
C2153 C 0.11498 0.46426 0.38964 0.0
C2154 C 0.07988 0.48935 0.39517 0.0
N2155 N 0.10326 0.48102 0.39807 0.0
C2156 C 0.12261 0.40774 0.34588 0.0
C2157 C 0.08582 0.3913 0.35605 0.0
C2158 C 0.13601 0.38648 0.3498 0.0
N2159 N 0.09793 0.40964 0.34897 0.0
C2160 C 0.09831 0.36959 0.35991 0.0
C2161 C 0.12376 0.36706 0.35686 0.0
H2162 H 0.13205 0.42296 0.34069 0.0
H2163 H 0.06655 0.3938 0.359 0.0
C2164 C 0.98738 0.44809 0.34907 0.0
N2165 N 0.00673 0.45277 0.35789 0.0
C2166 C 0.96484 0.43908 0.35436 0.0
C2167 C 0.98211 0.44133 0.37776 0.0
C2168 C 0.00447 0.44983 0.37199 0.0
C2169 C 0.96219 0.43527 0.36886 0.0
H2170 H 0.98989 0.45024 0.33788 0.0
H2171 H 0.02031 0.45312 0.37872 0.0
O2172 O 0.0974 0.46638 0.33566 0.0
O2173 O 0.04477 0.49204 0.3403 0.0
O2174 O 0.0476 0.43672 0.33418 0.0
O2175 O 0.06739 0.45545 0.36256 0.0
H2176 H 0.11817 0.50882 0.32753 0.0
H2177 H 0.10977 0.43106 0.31755 0.0
H2178 H 0.14423 0.51389 0.30624 0.0
H2179 H 0.13568 0.43756 0.29633 0.0
H2180 H 0.00014 0.54348 0.36867 0.0
H2181 H 0.05994 0.53515 0.32965 0.0
H2182 H 0.01338 0.50136 0.36112 0.0
H2183 H 0.04588 0.57667 0.33775 0.0
H2184 H 0.07585 0.52399 0.28724 0.0
H2185 H 0.04223 0.45303 0.27709 0.0
H2186 H 0.1577 0.5206 0.36187 0.0
H2187 H 0.09494 0.5641 0.3763 0.0
H2188 H 0.01855 0.40509 0.34796 0.0
H2189 H 0.07129 0.41199 0.31416 0.0
H2190 H 0.01492 0.36002 0.34272 0.0
H2191 H 0.06702 0.3667 0.30965 0.0
H2192 H 0.11247 0.44204 0.37089 0.0
H2193 H 0.04892 0.48772 0.38084 0.0
H2194 H 0.13361 0.45806 0.39221 0.0
H2195 H 0.07111 0.5028 0.40203 0.0
H2196 H 0.15569 0.38524 0.34738 0.0
H2197 H 0.08837 0.35526 0.36563 0.0
H2198 H 0.94984 0.43458 0.34719 0.0
H2199 H 0.98084 0.4383 0.38897 0.0
Li2200 Li 0.31266 0.33173 0.09432 0.0
Li2201 Li 0.29118 0.29069 0.09894 0.0
Li2202 Li 0.28357 0.31557 0.0765 0.0
Li2203 Li 0.26805 0.3297 0.09863 0.0
C2204 C 0.33857 0.29424 0.07943 0.0
N2205 N 0.38684 0.28301 0.07156 0.0
C2206 C 0.3522 0.27634 0.08683 0.0
C2207 C 0.34937 0.30614 0.0679 0.0
C2208 C 0.37661 0.27101 0.08272 0.0
C2209 C 0.37383 0.30029 0.06412 0.0
C2210 C 0.28626 0.3284 0.12377 0.0
C2211 C 0.25911 0.32387 0.14375 0.0
N2212 N 0.26527 0.34729 0.14797 0.0
C2213 C 0.29243 0.35236 0.12833 0.0
C2214 C 0.26956 0.31397 0.13154 0.0
C2215 C 0.28158 0.36159 0.14059 0.0
C2216 C 0.34163 0.37526 0.09853 0.0
N2217 N 0.34234 0.34991 0.09838 0.0
C2218 C 0.38451 0.35018 0.10643 0.0
C2219 C 0.36312 0.3373 0.10236 0.0
C2220 C 0.38432 0.37634 0.10675 0.0
C2221 C 0.36253 0.38893 0.10272 0.0
H2222 H 0.32462 0.38484 0.09572 0.0
H2223 H 0.3629 0.31722 0.10281 0.0
C2224 C 0.29192 0.23765 0.09989 0.0
N2225 N 0.29693 0.25899 0.10703 0.0
C2226 C 0.29882 0.21459 0.10551 0.0
C2227 C 0.31544 0.23601 0.12577 0.0
C2228 C 0.3082 0.25858 0.11978 0.0
C2229 C 0.31109 0.2136 0.11855 0.0
H2230 H 0.28311 0.23862 0.0897 0.0
H2231 H 0.31235 0.27589 0.12509 0.0
C2232 C 0.28762 0.36607 0.07371 0.0
N2233 N 0.29084 0.39909 0.05155 0.0
C2234 C 0.26682 0.38005 0.06972 0.0
C2235 C 0.31013 0.36911 0.06655 0.0
C2236 C 0.2688 0.39657 0.05845 0.0
C2237 C 0.31137 0.38584 0.05535 0.0
C2238 C 0.23563 0.29107 0.09211 0.0
C2239 C 0.21569 0.30088 0.08447 0.0
C2240 C 0.23105 0.27392 0.10284 0.0
C2241 C 0.19141 0.29356 0.0878 0.0
C2242 C 0.20651 0.26703 0.10584 0.0
N2243 N 0.18737 0.27693 0.09833 0.0
C2244 C 0.28979 0.29983 0.04794 0.0
C2245 C 0.25529 0.32605 0.05269 0.0
C2246 C 0.28342 0.29895 0.03371 0.0
N2247 N 0.27585 0.31347 0.05704 0.0
C2248 C 0.24831 0.32576 0.03861 0.0
C2249 C 0.26251 0.31222 0.02888 0.0
H2250 H 0.30583 0.28966 0.0517 0.0
H2251 H 0.24428 0.33637 0.06017 0.0
C2252 C 0.24667 0.37413 0.10681 0.0
N2253 N 0.24204 0.34922 0.10702 0.0
C2254 C 0.22924 0.3909 0.11211 0.0
C2255 C 0.20247 0.3562 0.1179 0.0
C2256 C 0.22071 0.34 0.11274 0.0
C2257 C 0.20669 0.38197 0.11754 0.0
H2258 H 0.26399 0.381 0.1025 0.0
H2259 H 0.21773 0.3202 0.11339 0.0
O2260 O 0.31463 0.29965 0.0833 0.0
O2261 O 0.29599 0.31937 0.11154 0.0
O2262 O 0.28593 0.34962 0.08463 0.0
O2263 O 0.25955 0.29769 0.08887 0.0
H2264 H 0.34411 0.26683 0.09573 0.0
H2265 H 0.33895 0.31961 0.06185 0.0
H2266 H 0.38742 0.25733 0.08841 0.0
H2267 H 0.38245 0.30942 0.05524 0.0
H2268 H 0.24604 0.31299 0.14983 0.0
H2269 H 0.30524 0.36379 0.12237 0.0
H2270 H 0.2645 0.29544 0.12808 0.0
H2271 H 0.28604 0.38017 0.14421 0.0
H2272 H 0.40074 0.33976 0.10977 0.0
H2273 H 0.36162 0.40909 0.10288 0.0
H2274 H 0.29491 0.19777 0.09964 0.0
H2275 H 0.32524 0.23626 0.13569 0.0
H2276 H 0.24926 0.37796 0.07518 0.0
H2277 H 0.32649 0.35878 0.06966 0.0
H2278 H 0.25281 0.40737 0.05518 0.0
H2279 H 0.32867 0.38833 0.04969 0.0
H2280 H 0.21886 0.31411 0.07612 0.0
H2281 H 0.24623 0.26609 0.10885 0.0
H2282 H 0.17579 0.3011 0.08203 0.0
H2283 H 0.20269 0.25385 0.11415 0.0
H2284 H 0.29495 0.28834 0.02654 0.0
H2285 H 0.23179 0.33588 0.03542 0.0
H2286 H 0.23313 0.4107 0.1117 0.0
H2287 H 0.18541 0.34869 0.12225 0.0
Li2288 Li 0.41584 0.56289 0.84363 0.0
Li2289 Li 0.45664 0.54107 0.8475 0.0
Li2290 Li 0.43136 0.53509 0.825 0.0
Li2291 Li 0.41753 0.51782 0.84696 0.0
C2292 C 0.45236 0.59004 0.82942 0.0
N2293 N 0.46227 0.6394 0.82338 0.0
C2294 C 0.46832 0.60382 0.83803 0.0
C2295 C 0.44181 0.60123 0.8176 0.0
C2296 C 0.47299 0.62879 0.83484 0.0
C2297 C 0.44695 0.62625 0.81476 0.0
C2298 C 0.41791 0.53558 0.87241 0.0
C2299 C 0.41842 0.50648 0.89167 0.0
N2300 N 0.39631 0.51586 0.89624 0.0
C2301 C 0.39526 0.54502 0.87732 0.0
C2302 C 0.42967 0.51624 0.87965 0.0
C2303 C 0.38463 0.53477 0.88938 0.0
C2304 C 0.37354 0.59499 0.84667 0.0
N2305 N 0.39853 0.5926 0.84863 0.0
C2306 C 0.40002 0.63145 0.86084 0.0
C2307 C 0.41176 0.61018 0.85566 0.0
C2308 C 0.37416 0.63442 0.85914 0.0
C2309 C 0.36093 0.6159 0.85181 0.0
H2310 H 0.36322 0.58029 0.84155 0.0
H2311 H 0.43137 0.60735 0.85763 0.0
C2312 C 0.5091 0.54755 0.84716 0.0
N2313 N 0.48857 0.54638 0.85548 0.0
C2314 C 0.53189 0.55542 0.85273 0.0
C2315 C 0.51206 0.55985 0.87536 0.0
C2316 C 0.4897 0.55197 0.86936 0.0
C2317 C 0.53345 0.56221 0.86696 0.0
H2318 H 0.50752 0.54332 0.8361 0.0
H2319 H 0.47296 0.55138 0.87565 0.0
C2320 C 0.38027 0.53886 0.82302 0.0
N2321 N 0.3458 0.5424 0.80159 0.0
C2322 C 0.36433 0.5189 0.82014 0.0
C2323 C 0.37853 0.56068 0.81509 0.0
C2324 C 0.34707 0.52103 0.80923 0.0
C2325 C 0.36102 0.56209 0.80428 0.0
C2326 C 0.45728 0.48645 0.83878 0.0
C2327 C 0.45023 0.46768 0.82943 0.0
C2328 C 0.47315 0.48084 0.84997 0.0
C2329 C 0.45895 0.44344 0.83154 0.0
C2330 C 0.48147 0.45637 0.85172 0.0
N2331 N 0.47424 0.43833 0.84255 0.0
C2332 C 0.44915 0.54072 0.79685 0.0
C2333 C 0.4183 0.50976 0.80046 0.0
C2334 C 0.45039 0.53475 0.78257 0.0
N2335 N 0.43314 0.5283 0.80542 0.0
C2336 C 0.41853 0.50358 0.78626 0.0
C2337 C 0.43475 0.51611 0.77715 0.0
H2338 H 0.46106 0.5551 0.80112 0.0
H2339 H 0.40644 0.49956 0.80758 0.0
C2340 C 0.37364 0.4978 0.85666 0.0
N2341 N 0.39784 0.4913 0.85464 0.0
C2342 C 0.35634 0.48029 0.86128 0.0
C2343 C 0.38914 0.44951 0.86186 0.0
C2344 C 0.40594 0.4678 0.85745 0.0
C2345 C 0.36383 0.45555 0.86365 0.0
H2346 H 0.36771 0.51669 0.85451 0.0
H2347 H 0.42525 0.46299 0.85612 0.0
O2348 O 0.44762 0.56555 0.83237 0.0
O2349 O 0.42825 0.54487 0.8604 0.0
O2350 O 0.39752 0.53696 0.83352 0.0
O2351 O 0.44924 0.51032 0.83678 0.0
H2352 H 0.47679 0.59541 0.84718 0.0
H2353 H 0.42993 0.59069 0.81063 0.0
H2354 H 0.48513 0.63973 0.84149 0.0
H2355 H 0.43882 0.63518 0.80568 0.0
H2356 H 0.42722 0.4914 0.89733 0.0
H2357 H 0.38588 0.55992 0.87179 0.0
H2358 H 0.44715 0.50866 0.87593 0.0
H2359 H 0.36704 0.5418 0.89327 0.0
H2360 H 0.41111 0.64526 0.86627 0.0
H2361 H 0.34093 0.61709 0.85048 0.0
H2362 H 0.54795 0.55673 0.8459 0.0
H2363 H 0.51224 0.56526 0.88631 0.0
H2364 H 0.36549 0.50184 0.82615 0.0
H2365 H 0.39048 0.57638 0.81732 0.0
H2366 H 0.33473 0.50568 0.80683 0.0
H2367 H 0.3595 0.57886 0.79804 0.0
H2368 H 0.43808 0.47177 0.82067 0.0
H2369 H 0.4789 0.49519 0.85725 0.0
H2370 H 0.45356 0.42868 0.82443 0.0
H2371 H 0.49367 0.45172 0.86036 0.0
H2372 H 0.46317 0.54474 0.77581 0.0
H2373 H 0.4065 0.48882 0.78248 0.0
H2374 H 0.33727 0.48616 0.86291 0.0
H2375 H 0.39588 0.43072 0.8635 0.0
Li2376 Li 0.20919 0.70857 0.59956 0.0
Li2377 Li 0.1887 0.66935 0.59475 0.0
Li2378 Li 0.23372 0.67043 0.599 0.0
Li2379 Li 0.21666 0.6862 0.57735 0.0
C2380 C 0.20364 0.66138 0.62231 0.0
N2381 N 0.19783 0.62471 0.64243 0.0
C2382 C 0.20522 0.63621 0.61859 0.0
C2383 C 0.19915 0.66784 0.63629 0.0
C2384 C 0.20221 0.61797 0.6289 0.0
C2385 C 0.19626 0.64905 0.6463 0.0
C2386 C 0.16054 0.70622 0.58238 0.0
C2387 C 0.12248 0.70246 0.56905 0.0
N2388 N 0.11036 0.71624 0.57888 0.0
C2389 C 0.14775 0.72067 0.59223 0.0
C2390 C 0.14785 0.69733 0.57058 0.0
C2391 C 0.12238 0.7254 0.59033 0.0
C2392 C 0.20938 0.76139 0.60068 0.0
N2393 N 0.20456 0.74025 0.60803 0.0
C2394 C 0.18694 0.7638 0.62684 0.0
C2395 C 0.19404 0.74106 0.62098 0.0
C2396 C 0.19069 0.78596 0.61928 0.0
C2397 C 0.20263 0.7846 0.60615 0.0
H2398 H 0.21765 0.76013 0.59035 0.0
H2399 H 0.18999 0.72392 0.62645 0.0
C2400 C 0.15561 0.62705 0.59565 0.0
N2401 N 0.1589 0.65141 0.59914 0.0
C2402 C 0.13489 0.61393 0.60063 0.0
C2403 C 0.12132 0.65123 0.61256 0.0
C2404 C 0.14241 0.66346 0.60754 0.0
C2405 C 0.11745 0.62597 0.60932 0.0
H2406 H 0.16955 0.61748 0.5895 0.0
H2407 H 0.14607 0.6824 0.61076 0.0
C2408 C 0.26029 0.71436 0.59693 0.0
N2409 N 0.29816 0.73818 0.61127 0.0
C2410 C 0.2797 0.72574 0.58957 0.0
C2411 C 0.26015 0.71504 0.6116 0.0
C2412 C 0.29868 0.73771 0.59701 0.0
C2413 C 0.27946 0.72719 0.61865 0.0
C2414 C 0.21245 0.63731 0.57266 0.0
C2415 C 0.23192 0.62221 0.5679 0.0
C2416 C 0.19027 0.63838 0.56503 0.0
C2417 C 0.22901 0.60881 0.55544 0.0
C2418 C 0.18804 0.6247 0.55263 0.0
N2419 N 0.20733 0.61036 0.54811 0.0
C2420 C 0.26635 0.64857 0.61979 0.0
C2421 C 0.2779 0.64473 0.5959 0.0
C2422 C 0.28615 0.63324 0.62383 0.0
N2423 N 0.26216 0.65325 0.60597 0.0
C2424 C 0.29776 0.62923 0.59943 0.0
C2425 C 0.3017 0.6228 0.61352 0.0
H2426 H 0.25403 0.65614 0.62767 0.0
H2427 H 0.27462 0.64959 0.58506 0.0
C2428 C 0.20997 0.69985 0.54838 0.0
N2429 N 0.22509 0.68908 0.55807 0.0
C2430 C 0.21712 0.70054 0.53427 0.0
C2431 C 0.25535 0.67946 0.54053 0.0
C2432 C 0.24754 0.67931 0.55447 0.0
C2433 C 0.24 0.69 0.53019 0.0
H2434 H 0.19234 0.70777 0.55157 0.0
H2435 H 0.25929 0.67116 0.56246 0.0
O2436 O 0.20622 0.67969 0.61239 0.0
O2437 O 0.18546 0.70147 0.58405 0.0
O2438 O 0.24169 0.70251 0.58974 0.0
O2439 O 0.21519 0.65131 0.58458 0.0
H2440 H 0.2088 0.63068 0.6079 0.0
H2441 H 0.19796 0.68717 0.63941 0.0
H2442 H 0.20338 0.59845 0.62615 0.0
H2443 H 0.19279 0.65382 0.65715 0.0
H2444 H 0.11244 0.69557 0.56 0.0
H2445 H 0.15716 0.7279 0.60137 0.0
H2446 H 0.15745 0.68673 0.56261 0.0
H2447 H 0.11224 0.73634 0.59796 0.0
H2448 H 0.17743 0.76383 0.63686 0.0
H2449 H 0.20615 0.80122 0.60003 0.0
H2450 H 0.13307 0.59435 0.59809 0.0
H2451 H 0.10837 0.66149 0.61908 0.0
H2452 H 0.28009 0.72531 0.57822 0.0
H2453 H 0.24536 0.7063 0.6175 0.0
H2454 H 0.31382 0.74661 0.59144 0.0
H2455 H 0.27959 0.72786 0.62999 0.0
H2456 H 0.24912 0.6208 0.57372 0.0
H2457 H 0.1749 0.64957 0.56871 0.0
H2458 H 0.24399 0.59718 0.5516 0.0
H2459 H 0.17098 0.62548 0.54661 0.0
H2460 H 0.28862 0.62878 0.63482 0.0
H2461 H 0.30969 0.62204 0.59121 0.0
H2462 H 0.20469 0.70875 0.52661 0.0
H2463 H 0.27329 0.67149 0.53788 0.0
Li2464 Li 0.08477 0.56318 0.15463 0.0
Li2465 Li 0.04387 0.54215 0.15111 0.0
Li2466 Li 0.06807 0.53556 0.17338 0.0
Li2467 Li 0.08225 0.51926 0.15156 0.0
C2468 C 0.0385 0.58744 0.16496 0.0
N2469 N 0.00669 0.62768 0.16259 0.0
C2470 C 0.03539 0.59931 0.15202 0.0
C2471 C 0.02546 0.59602 0.17668 0.0
C2472 C 0.01919 0.61961 0.15104 0.0
C2473 C 0.00949 0.61643 0.17528 0.0
C2474 C 0.07686 0.53244 0.12588 0.0
C2475 C 0.0671 0.49877 0.11005 0.0
N2476 N 0.08755 0.50455 0.10228 0.0
C2477 C 0.0977 0.53814 0.1177 0.0
C2478 C 0.06136 0.51267 0.12201 0.0
C2479 C 0.10282 0.52378 0.10582 0.0
C2480 C 0.12553 0.58837 0.14329 0.0
N2481 N 0.10424 0.59208 0.15072 0.0
C2482 C 0.11101 0.63608 0.1507 0.0
C2483 C 0.09718 0.61529 0.15481 0.0
C2484 C 0.13254 0.63295 0.14247 0.0
C2485 C 0.14 0.60861 0.13901 0.0
H2486 H 0.13111 0.56962 0.14056 0.0
H2487 H 0.08064 0.61778 0.16109 0.0
C2488 C 0.99181 0.54976 0.15254 0.0
N2489 N 0.01145 0.54765 0.14362 0.0
C2490 C 0.96877 0.55818 0.14761 0.0
C2491 C 0.98633 0.5609 0.12431 0.0
C2492 C 0.00909 0.55276 0.12972 0.0
C2493 C 0.96597 0.56425 0.13336 0.0
H2494 H 0.99438 0.54604 0.1636 0.0
H2495 H 0.02516 0.55172 0.12292 0.0
C2496 C 0.11802 0.54871 0.17488 0.0
N2497 N 0.14958 0.57177 0.19376 0.0
C2498 C 0.14245 0.5402 0.17656 0.0
C2499 C 0.10966 0.56901 0.1828 0.0
C2500 C 0.15811 0.55209 0.18616 0.0
C2501 C 0.12589 0.58039 0.19228 0.0
C2502 C 0.04755 0.48628 0.16348 0.0
C2503 C 0.06425 0.47321 0.17198 0.0
C2504 C 0.02779 0.4737 0.15709 0.0
C2505 C 0.06093 0.44762 0.17391 0.0
C2506 C 0.0251 0.4481 0.15929 0.0
N2507 N 0.04159 0.4357 0.16757 0.0
C2508 C 0.04437 0.53395 0.20015 0.0
C2509 C 0.08525 0.51735 0.19931 0.0
C2510 C 0.04242 0.52789 0.21439 0.0
N2511 N 0.06563 0.52874 0.19297 0.0
C2512 C 0.08418 0.51112 0.21348 0.0
C2513 C 0.06258 0.51639 0.22124 0.0
H2514 H 0.02886 0.5426 0.19479 0.0
H2515 H 0.10167 0.51268 0.1933 0.0
C2516 C 0.12592 0.49806 0.14239 0.0
N2517 N 0.1014 0.49241 0.14391 0.0
C2518 C 0.14276 0.48006 0.13785 0.0
C2519 C 0.1088 0.45065 0.13622 0.0
C2520 C 0.0925 0.46943 0.14059 0.0
C2521 C 0.13444 0.45574 0.135 0.0
H2522 H 0.1324 0.51665 0.14482 0.0
H2523 H 0.07286 0.46547 0.14145 0.0
O2524 O 0.05366 0.56705 0.16606 0.0
O2525 O 0.07185 0.54581 0.13777 0.0
O2526 O 0.10261 0.53719 0.16545 0.0
O2527 O 0.05048 0.51127 0.16135 0.0
H2528 H 0.0453 0.59281 0.14283 0.0
H2529 H 0.02764 0.58702 0.18676 0.0
H2530 H 0.01653 0.62891 0.14109 0.0
H2531 H 0.99929 0.6233 0.18427 0.0
H2532 H 0.05537 0.48331 0.10699 0.0
H2533 H 0.10981 0.55344 0.12049 0.0
H2534 H 0.04528 0.50787 0.12831 0.0
H2535 H 0.11894 0.52792 0.09942 0.0
H2536 H 0.10445 0.65445 0.15361 0.0
H2537 H 0.15677 0.60521 0.13299 0.0
H2538 H 0.95348 0.5605 0.15491 0.0
H2539 H 0.98508 0.56578 0.11331 0.0
H2540 H 0.14922 0.52453 0.17051 0.0
H2541 H 0.09086 0.57593 0.18169 0.0
H2542 H 0.17705 0.54567 0.18757 0.0
H2543 H 0.11966 0.59609 0.19848 0.0
H2544 H 0.07985 0.48262 0.17681 0.0
H2545 H 0.01474 0.48362 0.15046 0.0
H2546 H 0.07378 0.43721 0.18039 0.0
H2547 H 0.00993 0.43809 0.15438 0.0
H2548 H 0.02545 0.53233 0.22001 0.0
H2549 H 0.09996 0.50182 0.21826 0.0
H2550 H 0.16214 0.48522 0.13662 0.0
H2551 H 0.10142 0.43224 0.13416 0.0
Li2552 Li 0.22798 0.33209 0.90028 0.0
Li2553 Li 0.21368 0.31753 0.92252 0.0
Li2554 Li 0.20654 0.29268 0.8998 0.0
Li2555 Li 0.18436 0.33348 0.90444 0.0
C2556 C 0.26289 0.2978 0.90928 0.0
N2557 N 0.314 0.29231 0.90804 0.0
C2558 C 0.27832 0.3136 0.91704 0.0
C2559 C 0.27339 0.27906 0.90099 0.0
C2560 C 0.30414 0.31058 0.91624 0.0
C2561 C 0.29929 0.27661 0.90049 0.0
C2562 C 0.20077 0.36723 0.9248 0.0
C2563 C 0.16875 0.37663 0.94174 0.0
N2564 N 0.18098 0.39794 0.94523 0.0
C2565 C 0.213 0.38925 0.92853 0.0
C2566 C 0.17847 0.36088 0.93144 0.0
C2567 C 0.20272 0.40452 0.93889 0.0
C2568 C 0.25029 0.37651 0.89262 0.0
N2569 N 0.254 0.3515 0.89188 0.0
C2570 C 0.2932 0.35767 0.88045 0.0
C2571 C 0.27469 0.34185 0.88564 0.0
C2572 C 0.28992 0.38355 0.88132 0.0
C2573 C 0.26801 0.39296 0.88731 0.0
H2574 H 0.23346 0.38371 0.89735 0.0
H2575 H 0.27688 0.32195 0.88466 0.0
C2576 C 0.21386 0.29546 0.94984 0.0
N2577 N 0.22147 0.31511 0.94193 0.0
C2578 C 0.2203 0.29414 0.96405 0.0
C2579 C 0.24251 0.33307 0.96155 0.0
C2580 C 0.23572 0.33359 0.94745 0.0
C2581 C 0.23471 0.31322 0.97009 0.0
H2582 H 0.20285 0.28081 0.94512 0.0
H2583 H 0.24203 0.34869 0.94085 0.0
C2584 C 0.2106 0.33055 0.8751 0.0
N2585 N 0.23171 0.34991 0.85104 0.0
C2586 C 0.20449 0.35462 0.87069 0.0
C2587 C 0.22732 0.31626 0.86725 0.0
C2588 C 0.21541 0.36409 0.85851 0.0
C2589 C 0.23781 0.3264 0.85512 0.0
C2590 C 0.16079 0.2909 0.91937 0.0
C2591 C 0.14767 0.27572 0.91002 0.0
C2592 C 0.15164 0.29441 0.93297 0.0
C2593 C 0.12538 0.26468 0.91434 0.0
C2594 C 0.12929 0.28303 0.93688 0.0
N2595 N 0.11672 0.26854 0.92756 0.0
C2596 C 0.20707 0.23968 0.89925 0.0
C2597 C 0.19153 0.25961 0.87885 0.0
C2598 C 0.20083 0.21631 0.89378 0.0
N2599 N 0.20204 0.26067 0.8918 0.0
C2600 C 0.18498 0.2367 0.873 0.0
C2601 C 0.18924 0.21463 0.88057 0.0
H2602 H 0.21526 0.24116 0.90958 0.0
H2603 H 0.18731 0.27665 0.87329 0.0
C2604 C 0.15443 0.37642 0.89998 0.0
N2605 N 0.15416 0.35109 0.9005 0.0
C2606 C 0.13308 0.38957 0.896 0.0
C2607 C 0.11163 0.35034 0.89308 0.0
C2608 C 0.13338 0.33799 0.89707 0.0
C2609 C 0.11131 0.37649 0.89241 0.0
H2610 H 0.17139 0.38644 0.90236 0.0
H2611 H 0.13386 0.31792 0.89699 0.0
O2612 O 0.23761 0.30036 0.90993 0.0
O2613 O 0.21089 0.35197 0.9148 0.0
O2614 O 0.2007 0.32123 0.88721 0.0
O2615 O 0.18295 0.30146 0.91543 0.0
H2616 H 0.27046 0.32823 0.92347 0.0
H2617 H 0.26163 0.26663 0.89497 0.0
H2618 H 0.31634 0.32278 0.9221 0.0
H2619 H 0.30771 0.26227 0.89408 0.0
H2620 H 0.15146 0.37193 0.94694 0.0
H2621 H 0.23037 0.3944 0.92354 0.0
H2622 H 0.16863 0.34412 0.92859 0.0
H2623 H 0.21203 0.42157 0.94191 0.0
H2624 H 0.30975 0.34982 0.87567 0.0
H2625 H 0.26486 0.41285 0.88812 0.0
H2626 H 0.2138 0.27855 0.97027 0.0
H2627 H 0.25406 0.3479 0.96568 0.0
H2628 H 0.19168 0.36594 0.87671 0.0
H2629 H 0.2324 0.29767 0.87062 0.0
H2630 H 0.21099 0.38275 0.85501 0.0
H2631 H 0.2509 0.31562 0.84898 0.0
H2632 H 0.15441 0.27276 0.89947 0.0
H2633 H 0.16172 0.30571 0.94046 0.0
H2634 H 0.11496 0.25304 0.90716 0.0
H2635 H 0.12197 0.28566 0.94735 0.0
H2636 H 0.20466 0.19978 0.89993 0.0
H2637 H 0.17568 0.23643 0.86293 0.0
H2638 H 0.13368 0.40973 0.89564 0.0
H2639 H 0.0955 0.33946 0.89007 0.0
Li2640 Li 0.43254 0.4653 0.67134 0.0
Li2641 Li 0.41998 0.48197 0.64891 0.0
Li2642 Li 0.41638 0.437 0.6537 0.0
Li2643 Li 0.45781 0.45636 0.64953 0.0
C2644 C 0.38297 0.47042 0.67345 0.0
N2645 N 0.35185 0.48239 0.69554 0.0
C2646 C 0.37334 0.49453 0.67469 0.0
C2647 C 0.37654 0.45233 0.68335 0.0
C2648 C 0.35769 0.50022 0.68595 0.0
C2649 C 0.36086 0.45877 0.69447 0.0
C2650 C 0.4647 0.50949 0.65572 0.0
C2651 C 0.48976 0.53276 0.63932 0.0
N2652 N 0.49164 0.55159 0.64881 0.0
C2653 C 0.46701 0.52899 0.66535 0.0
C2654 C 0.47625 0.5113 0.64263 0.0
C2655 C 0.48065 0.55016 0.66164 0.0
C2656 C 0.44429 0.45774 0.70033 0.0
N2657 N 0.43436 0.47363 0.69073 0.0
C2658 C 0.42574 0.50371 0.70857 0.0
C2659 C 0.4256 0.49643 0.69453 0.0
C2660 C 0.43567 0.48766 0.71873 0.0
C2661 C 0.44531 0.46452 0.7145 0.0
H2662 H 0.45144 0.43987 0.697 0.0
H2663 H 0.41846 0.50896 0.68662 0.0
C2664 C 0.37871 0.50373 0.6365 0.0
N2665 N 0.40251 0.5091 0.64035 0.0
C2666 C 0.3632 0.5223 0.63119 0.0
C2667 C 0.39677 0.55186 0.63403 0.0
C2668 C 0.41177 0.53261 0.63913 0.0
C2669 C 0.37211 0.54679 0.63006 0.0
H2670 H 0.37154 0.48508 0.63796 0.0
H2671 H 0.4305 0.53675 0.6424 0.0
C2672 C 0.44912 0.40862 0.66795 0.0
N2673 N 0.45135 0.35806 0.67324 0.0
C2674 C 0.46615 0.39366 0.66072 0.0
C2675 C 0.43347 0.39793 0.678 0.0
C2676 C 0.46693 0.36812 0.66352 0.0
C2677 C 0.43481 0.37231 0.68048 0.0
C2678 C 0.41889 0.45898 0.62391 0.0
C2679 C 0.39536 0.4496 0.62048 0.0
C2680 C 0.43132 0.47447 0.61444 0.0
C2681 C 0.38451 0.45617 0.60769 0.0
C2682 C 0.41983 0.48063 0.60175 0.0
N2683 N 0.39686 0.47145 0.59867 0.0
C2684 C 0.37343 0.40527 0.65297 0.0
C2685 C 0.4102 0.38928 0.64253 0.0
C2686 C 0.36014 0.38396 0.64901 0.0
N2687 N 0.39801 0.40745 0.64971 0.0
C2688 C 0.39783 0.36753 0.63864 0.0
C2689 C 0.37245 0.36474 0.6418 0.0
H2690 H 0.36403 0.42027 0.65839 0.0
H2691 H 0.42948 0.39191 0.63962 0.0
C2692 C 0.51086 0.45478 0.64892 0.0
N2693 N 0.4896 0.44947 0.64179 0.0
C2694 C 0.53392 0.4471 0.64363 0.0
C2695 C 0.51267 0.42918 0.62367 0.0
C2696 C 0.49009 0.43725 0.62932 0.0
C2697 C 0.535 0.43372 0.63095 0.0
H2698 H 0.50983 0.46444 0.65887 0.0
H2699 H 0.47281 0.43301 0.62399 0.0
O2700 O 0.39855 0.46456 0.66259 0.0
O2701 O 0.45151 0.48861 0.65924 0.0
O2702 O 0.44785 0.4336 0.66523 0.0
O2703 O 0.42966 0.45307 0.63648 0.0
H2704 H 0.37817 0.50879 0.66715 0.0
H2705 H 0.38363 0.43355 0.68248 0.0
H2706 H 0.35026 0.51885 0.68709 0.0
H2707 H 0.35584 0.44499 0.70225 0.0
H2708 H 0.49874 0.53444 0.6292 0.0
H2709 H 0.45831 0.52782 0.67557 0.0
H2710 H 0.47478 0.49635 0.6351 0.0
H2711 H 0.48252 0.56544 0.66896 0.0
H2712 H 0.41842 0.52182 0.71144 0.0
H2713 H 0.4531 0.45169 0.72209 0.0
H2714 H 0.34415 0.51771 0.62846 0.0
H2715 H 0.40432 0.57053 0.63327 0.0
H2716 H 0.47848 0.40164 0.65296 0.0
H2717 H 0.42039 0.40928 0.68379 0.0
H2718 H 0.47989 0.35629 0.65794 0.0
H2719 H 0.4227 0.36377 0.68817 0.0
H2720 H 0.38542 0.43764 0.62769 0.0
H2721 H 0.44962 0.48171 0.61684 0.0
H2722 H 0.36624 0.44919 0.60495 0.0
H2723 H 0.4292 0.4927 0.59435 0.0
H2724 H 0.34053 0.38247 0.65155 0.0
H2725 H 0.40782 0.35331 0.63286 0.0
H2726 H 0.55067 0.45125 0.64952 0.0
H2727 H 0.51248 0.41859 0.61401 0.0
Li2728 Li 0.2694 0.66561 0.40287 0.0
Li2729 Li 0.28796 0.68075 0.42377 0.0
Li2730 Li 0.29296 0.70379 0.40068 0.0
Li2731 Li 0.31386 0.6617 0.40518 0.0
C2732 C 0.23791 0.70016 0.40974 0.0
N2733 N 0.18741 0.70196 0.40434 0.0
C2734 C 0.22107 0.68934 0.41911 0.0
C2735 C 0.22912 0.71205 0.39768 0.0
C2736 C 0.19559 0.69039 0.41617 0.0
C2737 C 0.20349 0.71274 0.39513 0.0
C2738 C 0.29823 0.62683 0.42424 0.0
C2739 C 0.32602 0.61181 0.44222 0.0
N2740 N 0.31967 0.58798 0.43893 0.0
C2741 C 0.2919 0.6022 0.42107 0.0
C2742 C 0.31538 0.6317 0.43492 0.0
C2743 C 0.30298 0.58282 0.4286 0.0
C2744 C 0.22802 0.65222 0.38463 0.0
N2745 N 0.24032 0.64788 0.39687 0.0
C2746 C 0.21294 0.6142 0.40237 0.0
C2747 C 0.23271 0.6298 0.40587 0.0
C2748 C 0.20075 0.61726 0.38946 0.0
C2749 C 0.20811 0.63696 0.38066 0.0
H2750 H 0.23388 0.66721 0.37784 0.0
H2751 H 0.24219 0.62731 0.41576 0.0
C2752 C 0.28799 0.70488 0.45088 0.0
N2753 N 0.28197 0.68409 0.44345 0.0
C2754 C 0.28186 0.70662 0.46511 0.0
C2755 C 0.26311 0.66577 0.46369 0.0
C2756 C 0.26943 0.6649 0.44952 0.0
C2757 C 0.26933 0.68681 0.4717 0.0
H2758 H 0.29714 0.72028 0.44575 0.0
H2759 H 0.26397 0.649 0.44328 0.0
C2760 C 0.2876 0.66247 0.37651 0.0
N2761 N 0.2719 0.63923 0.35223 0.0
C2762 C 0.28726 0.63648 0.37569 0.0
C2763 C 0.28007 0.67667 0.36498 0.0
C2764 C 0.2792 0.62507 0.36333 0.0
C2765 C 0.27218 0.66455 0.35279 0.0
C2766 C 0.33471 0.70565 0.42402 0.0
C2767 C 0.33273 0.73131 0.42627 0.0
C2768 C 0.35316 0.69208 0.431 0.0
C2769 C 0.34891 0.74289 0.43572 0.0
C2770 C 0.36898 0.70434 0.44038 0.0
N2771 N 0.36652 0.72927 0.44254 0.0
C2772 C 0.28944 0.75639 0.39718 0.0
C2773 C 0.314 0.73478 0.38046 0.0
C2774 C 0.29647 0.77929 0.39141 0.0
N2775 N 0.29865 0.73483 0.39179 0.0
C2776 C 0.32126 0.75719 0.37426 0.0
C2777 C 0.3129 0.77986 0.37992 0.0
H2778 H 0.27737 0.75581 0.40626 0.0
H2779 H 0.32125 0.71732 0.37652 0.0
C2780 C 0.34276 0.61862 0.3982 0.0
N2781 N 0.34328 0.64359 0.4006 0.0
C2782 C 0.36425 0.60617 0.3938 0.0
C2783 C 0.38641 0.64534 0.39443 0.0
C2784 C 0.36452 0.65701 0.39883 0.0
C2785 C 0.38644 0.61958 0.39174 0.0
H2786 H 0.32558 0.6084 0.39939 0.0
H2787 H 0.36428 0.67694 0.40052 0.0
O2788 O 0.26292 0.69877 0.41224 0.0
O2789 O 0.28773 0.64598 0.41682 0.0
O2790 O 0.29524 0.67399 0.38855 0.0
O2791 O 0.31916 0.69405 0.41472 0.0
H2792 H 0.22765 0.68 0.42847 0.0
H2793 H 0.24199 0.72041 0.39031 0.0
H2794 H 0.18233 0.68196 0.42327 0.0
H2795 H 0.1964 0.72176 0.3858 0.0
H2796 H 0.33931 0.61533 0.45052 0.0
H2797 H 0.27879 0.59808 0.41276 0.0
H2798 H 0.32027 0.65062 0.4376 0.0
H2799 H 0.29835 0.56366 0.42621 0.0
H2800 H 0.20744 0.5997 0.40964 0.0
H2801 H 0.19919 0.64001 0.37062 0.0
H2802 H 0.28693 0.72321 0.47091 0.0
H2803 H 0.25295 0.65033 0.46825 0.0
H2804 H 0.29275 0.62526 0.38459 0.0
H2805 H 0.28015 0.69682 0.36548 0.0
H2806 H 0.27867 0.60497 0.36258 0.0
H2807 H 0.26622 0.67528 0.34379 0.0
H2808 H 0.31867 0.74212 0.4209 0.0
H2809 H 0.35541 0.67233 0.42913 0.0
H2810 H 0.34744 0.7627 0.43765 0.0
H2811 H 0.38327 0.69404 0.44589 0.0
H2812 H 0.28954 0.79636 0.39603 0.0
H2813 H 0.33422 0.75681 0.36555 0.0
H2814 H 0.36343 0.58628 0.39195 0.0
H2815 H 0.40292 0.65655 0.39273 0.0
C2816 C 0.41486 0.01489 0.26122 0.0
C2817 C 0.43308 0.99844 0.26639 0.0
H2818 H 0.40067 0.035 0.24359 0.0
C2819 C 0.45154 0.9897 0.25714 0.0
H2820 H 0.40018 0.02179 0.26798 0.0
C2821 C 0.4516 0.997 0.24305 0.0
C2822 C 0.4332 0.01325 0.23787 0.0
H2823 H 0.46604 0.97725 0.26079 0.0
H2824 H 0.46578 0.9895 0.23617 0.0
C2825 C 0.41495 0.02224 0.24717 0.0
C2826 C 0.26882 0.16789 0.50374 0.0
C2827 C 0.26043 0.18631 0.51311 0.0
H2828 H 0.26813 0.15347 0.48288 0.0
C2829 C 0.24509 0.20548 0.50793 0.0
H2830 H 0.28095 0.15303 0.50726 0.0
C2831 C 0.23819 0.20608 0.49378 0.0
C2832 C 0.24632 0.18744 0.48446 0.0
H2833 H 0.23802 0.21984 0.51484 0.0
H2834 H 0.22656 0.22125 0.49015 0.0
C2835 C 0.26175 0.16836 0.48965 0.0
C2836 C 0.04638 0.99636 0.75815 0.0
C2837 C 0.068 0.00572 0.76464 0.0
H2838 H 0.02941 0.98301 0.7393 0.0
C2839 C 0.08982 0.00797 0.75656 0.0
H2840 H 0.02929 0.99399 0.76403 0.0
C2841 C 0.09011 0.00088 0.74248 0.0
C2842 C 0.06846 0.99177 0.73593 0.0
H2843 H 0.10677 0.01545 0.76106 0.0
H2844 H 0.10747 0.00244 0.73677 0.0
C2845 C 0.04657 0.98962 0.74397 0.0
C2846 C 0.25474 0.79399 0.99395 0.0
C2847 C 0.25675 0.81641 0.9864 0.0
H2848 H 0.24699 0.77659 0.01369 0.0
C2849 C 0.25198 0.83899 0.99339 0.0
H2850 H 0.25803 0.77625 0.98886 0.0
C2851 C 0.24531 0.83916 0.00755 0.0
C2852 C 0.24334 0.81677 0.01512 0.0
H2853 H 0.25363 0.85663 0.98796 0.0
H2854 H 0.24151 0.85689 0.01253 0.0
C2855 C 0.24808 0.79416 0.00814 0.0
C2856 C 0.58185 0.99617 0.75895 0.0
C2857 C 0.55941 0.9951 0.76653 0.0
H2858 H 0.59951 0.00324 0.73926 0.0
C2859 C 0.53694 0.0004 0.75955 0.0
H2860 H 0.59945 0.99195 0.76397 0.0
C2861 C 0.53697 0.00676 0.74531 0.0
C2862 C 0.55944 0.00773 0.73774 0.0
H2863 H 0.51938 0.99992 0.76514 0.0
H2864 H 0.51938 0.01059 0.74017 0.0
C2865 C 0.58186 0.0024 0.74474 0.0
C2866 C 0.74599 0.79108 0.49382 0.0
C2867 C 0.74233 0.81365 0.4866 0.0
H2868 H 0.75529 0.77338 0.51327 0.0
C2869 C 0.74566 0.83617 0.4939 0.0
H2870 H 0.74384 0.7734 0.48849 0.0
C2871 C 0.7526 0.83617 0.50801 0.0
C2872 C 0.75626 0.81364 0.51525 0.0
H2873 H 0.74272 0.85391 0.48874 0.0
H2874 H 0.75533 0.8539 0.51321 0.0
C2875 C 0.75288 0.79108 0.50798 0.0
C2876 C 0.91629 0.00121 0.2566 0.0
C2877 C 0.93862 0.00682 0.26363 0.0
H2878 H 0.89896 0.98995 0.23745 0.0
C2879 C 0.96119 0.00546 0.25618 0.0
H2880 H 0.89855 0.00233 0.26199 0.0
C2881 C 0.96141 0.99851 0.24203 0.0
C2882 C 0.93903 0.99297 0.23501 0.0
H2883 H 0.97873 0.00946 0.26134 0.0
H2884 H 0.97905 0.99782 0.23652 0.0
C2885 C 0.9165 0.99436 0.24249 0.0
C2886 C 0.76253 0.20879 0.99513 0.0
C2887 C 0.75676 0.18897 0.98606 0.0
H2888 H 0.75987 0.22354 0.016 0.0
C2889 C 0.74342 0.16847 0.99131 0.0
H2890 H 0.77265 0.22489 0.99132 0.0
C2891 C 0.73621 0.16767 0.00537 0.0
C2892 C 0.74196 0.18746 0.01446 0.0
H2893 H 0.73888 0.15285 0.98459 0.0
H2894 H 0.72603 0.15157 0.00914 0.0
C2895 C 0.75503 0.20813 0.00919 0.0
C2896 C 0.95517 0.50468 0.74208 0.0
C2897 C 0.93309 0.50421 0.73411 0.0
H2898 H 0.97229 0.49886 0.76207 0.0
C2899 C 0.91094 0.49641 0.74067 0.0
H2900 H 0.97268 0.51022 0.73738 0.0
C2901 C 0.91087 0.48916 0.75473 0.0
C2902 C 0.93286 0.48988 0.76275 0.0
H2903 H 0.89347 0.49612 0.735 0.0
H2904 H 0.89349 0.48286 0.75928 0.0
C2905 C 0.95503 0.49773 0.75622 0.0
C2906 C 0.75214 0.70634 0.00778 0.0
C2907 C 0.75771 0.68376 0.01458 0.0
H2908 H 0.74106 0.72427 0.98869 0.0
C2909 C 0.75623 0.66146 0.00689 0.0
H2910 H 0.75285 0.72383 0.01343 0.0
C2911 C 0.74916 0.66168 0.9928 0.0
C2912 C 0.74348 0.68422 0.98599 0.0
H2913 H 0.76066 0.64376 0.01174 0.0
H2914 H 0.74787 0.64409 0.98727 0.0
C2915 C 0.74506 0.70656 0.99365 0.0
C2916 C 0.59141 0.50687 0.25595 0.0
C2917 C 0.5698 0.50545 0.26427 0.0
H2918 H 0.60835 0.5 0.23609 0.0
C2919 C 0.54783 0.4961 0.25814 0.0
H2920 H 0.60862 0.51427 0.26016 0.0
C2921 C 0.54746 0.48864 0.24407 0.0
C2922 C 0.56912 0.49002 0.23579 0.0
H2923 H 0.53089 0.4943 0.26421 0.0
H2924 H 0.53005 0.48211 0.23967 0.0
C2925 C 0.59114 0.49904 0.24199 0.0
C2926 C 0.7456 0.29031 0.50817 0.0
C2927 C 0.7425 0.31294 0.51542 0.0
H2928 H 0.75427 0.27243 0.48869 0.0
C2929 C 0.74626 0.33539 0.50811 0.0
H2930 H 0.74313 0.27266 0.51349 0.0
C2931 C 0.75313 0.33525 0.49399 0.0
C2932 C 0.75622 0.31266 0.48672 0.0
H2933 H 0.74374 0.35318 0.51328 0.0
H2934 H 0.75624 0.35294 0.48881 0.0
C2935 C 0.75235 0.29018 0.49399 0.0
C2936 C 0.08111 0.50756 0.25927 0.0
C2937 C 0.0598 0.49622 0.26499 0.0
H2938 H 0.09854 0.52304 0.24109 0.0
C2939 C 0.03921 0.49173 0.25623 0.0
H2940 H 0.09737 0.51104 0.26571 0.0
C2941 C 0.03991 0.49857 0.24206 0.0
C2942 C 0.06131 0.5098 0.23635 0.0
H2943 H 0.02247 0.48318 0.26036 0.0
H2944 H 0.02387 0.49471 0.23552 0.0
C2945 C 0.08186 0.51424 0.24513 0.0
C2946 C 0.25639 0.29026 0.00579 0.0
C2947 C 0.25554 0.31226 0.01379 0.0
H2948 H 0.25045 0.27326 0.98572 0.0
C2949 C 0.24768 0.33443 0.00732 0.0
H2950 H 0.26216 0.27283 0.01051 0.0
C2951 C 0.24079 0.33463 0.9932 0.0
C2952 C 0.2416 0.31267 0.98518 0.0
H2953 H 0.24706 0.35176 0.01313 0.0
H2954 H 0.23463 0.35202 0.98859 0.0
C2955 C 0.2494 0.29044 0.99164 0.0
C2956 C 0.41312 0.50941 0.75426 0.0
C2957 C 0.43527 0.50947 0.7621 0.0
H2958 H 0.39602 0.50268 0.73429 0.0
C2959 C 0.45766 0.50238 0.75559 0.0
H2960 H 0.39564 0.51484 0.75907 0.0
C2961 C 0.45779 0.49495 0.74152 0.0
C2962 C 0.43563 0.49505 0.73367 0.0
H2963 H 0.47493 0.50213 0.76147 0.0
H2964 H 0.47522 0.48939 0.73671 0.0
C2965 C 0.41334 0.50252 0.74014 0.0
C2966 C 0.24453 0.71046 0.50658 0.0
C2967 C 0.24771 0.68948 0.51523 0.0
H2968 H 0.24899 0.72613 0.48604 0.0
C2969 C 0.2584 0.66784 0.5095 0.0
H2970 H 0.23654 0.72746 0.51072 0.0
C2971 C 0.26561 0.66711 0.49543 0.0
C2972 C 0.26239 0.68804 0.48676 0.0
H2973 H 0.26088 0.65129 0.51585 0.0
H2974 H 0.2738 0.65015 0.49135 0.0
C2975 C 0.25191 0.70978 0.4925 0.0
C2976 C 0.36493 0.91012 0.12061 0.0
C2977 C 0.36056 0.92405 0.13285 0.0
H2978 H 0.35124 0.88228 0.10645 0.0
C2979 C 0.33867 0.91956 0.14056 0.0
H2980 H 0.38175 0.91293 0.11453 0.0
C2981 C 0.32129 0.90204 0.13597 0.0
C2982 C 0.3253 0.88859 0.12353 0.0
H2983 H 0.33444 0.93028 0.14988 0.0
H2984 H 0.3042 0.89981 0.14188 0.0
C2985 C 0.34748 0.89257 0.11599 0.0
C2986 C 0.32944 0.10689 0.36544 0.0
C2987 C 0.32276 0.11079 0.37953 0.0
H2988 H 0.35048 0.08535 0.3508 0.0
C2989 C 0.33467 0.09653 0.38995 0.0
H2990 H 0.321 0.11775 0.35713 0.0
C2991 C 0.35225 0.07843 0.38634 0.0
C2992 C 0.35812 0.07378 0.37221 0.0
H2993 H 0.32984 0.09866 0.40091 0.0
H2994 H 0.3609 0.06778 0.39467 0.0
C2995 C 0.34674 0.08852 0.36181 0.0
C2996 C 0.14138 0.08969 0.62073 0.0
C2997 C 0.14429 0.07519 0.6329 0.0
H2998 H 0.15734 0.11702 0.60707 0.0
C2999 C 0.16563 0.07875 0.64123 0.0
H3000 H 0.12506 0.0876 0.61416 0.0
C3001 C 0.18394 0.09585 0.63728 0.0
C3002 C 0.18146 0.10974 0.62487 0.0
H3003 H 0.16868 0.06771 0.65058 0.0
H3004 H 0.20027 0.09788 0.64386 0.0
C3005 C 0.15975 0.10678 0.61676 0.0
C3006 C 0.14454 0.92189 0.88681 0.0
C3007 C 0.13898 0.92598 0.87257 0.0
H3008 H 0.16723 0.90312 0.90179 0.0
C3009 C 0.15129 0.9113 0.86247 0.0
H3010 H 0.13518 0.93231 0.89497 0.0
C3011 C 0.16894 0.89353 0.86645 0.0
C3012 C 0.17543 0.89035 0.88063 0.0
H3013 H 0.14802 0.91394 0.85137 0.0
H3014 H 0.17776 0.8826 0.85831 0.0
C3015 C 0.16271 0.90461 0.89076 0.0
C3016 C 0.69197 0.08463 0.86849 0.0
C3017 C 0.68676 0.10168 0.87928 0.0
H3018 H 0.67893 0.05427 0.85603 0.0
C3019 C 0.66293 0.10157 0.88543 0.0
H3020 H 0.71004 0.08442 0.86343 0.0
C3021 C 0.64489 0.08441 0.88105 0.0
C3022 C 0.65029 0.0671 0.8704 0.0
H3023 H 0.6584 0.11433 0.89385 0.0
H3024 H 0.62673 0.08471 0.886 0.0
C3025 C 0.674 0.06754 0.86413 0.0
C3026 C 0.66703 0.92292 0.64074 0.0
C3027 C 0.64773 0.93137 0.63197 0.0
H3028 H 0.69913 0.8997 0.64291 0.0
C3029 C 0.6451 0.92064 0.6186 0.0
H3030 H 0.66932 0.93043 0.65121 0.0
C3031 C 0.66192 0.90254 0.61395 0.0
C3032 C 0.68185 0.89486 0.62251 0.0
H3033 H 0.63054 0.92676 0.61154 0.0
H3034 H 0.65952 0.89486 0.60353 0.0
C3035 C 0.68392 0.90497 0.63606 0.0
C3036 C 0.83474 0.90211 0.38457 0.0
C3037 C 0.81149 0.90059 0.37792 0.0
H3038 H 0.86943 0.92145 0.38615 0.0
C3039 C 0.80603 0.91677 0.36682 0.0
H3040 H 0.83918 0.88988 0.39326 0.0
C3041 C 0.8235 0.9344 0.36247 0.0
C3042 C 0.84661 0.93667 0.36937 0.0
H3043 H 0.78821 0.91573 0.3615 0.0
H3044 H 0.8188 0.94623 0.35366 0.0
C3045 C 0.85207 0.92013 0.38043 0.0
C3046 C 0.80737 0.08056 0.13221 0.0
C3047 C 0.81352 0.10065 0.12345 0.0
H3048 H 0.82032 0.04841 0.14325 0.0
C3049 C 0.83846 0.10407 0.11939 0.0
H3050 H 0.7883 0.0776 0.13555 0.0
C3051 C 0.85683 0.08724 0.12374 0.0
C3052 C 0.85058 0.067 0.1324 0.0
H3053 H 0.84361 0.11935 0.11256 0.0
H3054 H 0.87589 0.09003 0.12034 0.0
C3055 C 0.82572 0.06398 0.13669 0.0
C3056 C 0.82904 0.4132 0.61082 0.0
C3057 C 0.8269 0.39047 0.61806 0.0
H3058 H 0.84716 0.44855 0.60938 0.0
C3059 C 0.84321 0.38563 0.62926 0.0
H3060 H 0.81646 0.41777 0.60232 0.0
C3061 C 0.8609 0.40337 0.63332 0.0
C3062 C 0.86262 0.42633 0.62627 0.0
H3063 H 0.84223 0.36817 0.63494 0.0
H3064 H 0.8731 0.39919 0.64206 0.0
C3065 C 0.84669 0.43089 0.61486 0.0
C3066 C 0.8549 0.57902 0.88437 0.0
C3067 C 0.85847 0.57362 0.87007 0.0
H3068 H 0.83385 0.59867 0.89977 0.0
C3069 C 0.84426 0.58685 0.86014 0.0
H3070 H 0.86578 0.56972 0.89237 0.0
C3071 C 0.82659 0.60441 0.86438 0.0
C3072 C 0.82208 0.60883 0.8787 0.0
H3073 H 0.84604 0.58316 0.84903 0.0
H3074 H 0.81616 0.61416 0.85637 0.0
C3075 C 0.83679 0.59613 0.88863 0.0
C3076 C 0.68641 0.58523 0.13335 0.0
C3077 C 0.68065 0.60473 0.1241 0.0
H3078 H 0.67299 0.55357 0.14467 0.0
C3079 C 0.65598 0.60776 0.11949 0.0
H3080 H 0.70532 0.58258 0.13704 0.0
C3081 C 0.63748 0.59095 0.12372 0.0
C3082 C 0.64336 0.57125 0.13284 0.0
H3083 H 0.65121 0.6226 0.11227 0.0
H3084 H 0.61866 0.59324 0.11982 0.0
C3085 C 0.66791 0.56876 0.13775 0.0
C3086 C 0.67001 0.41211 0.38979 0.0
C3087 C 0.67317 0.38967 0.38241 0.0
H3088 H 0.65168 0.44736 0.39086 0.0
C3089 C 0.65816 0.38501 0.37063 0.0
H3090 H 0.68159 0.41645 0.39877 0.0
C3091 C 0.64078 0.40271 0.36613 0.0
C3092 C 0.63818 0.42553 0.37326 0.0
H3093 H 0.66 0.36775 0.36483 0.0
H3094 H 0.62958 0.39863 0.35696 0.0
C3095 C 0.65278 0.42984 0.38526 0.0
C3096 C 0.16769 0.55611 0.38268 0.0
C3097 C 0.14621 0.56384 0.37549 0.0
H3098 H 0.20177 0.56682 0.39254 0.0
C3099 C 0.14223 0.58945 0.37333 0.0
H3100 H 0.17115 0.53653 0.38464 0.0
C3101 C 0.15976 0.60692 0.37797 0.0
C3102 C 0.18147 0.5991 0.38495 0.0
H3103 H 0.1259 0.59594 0.36774 0.0
H3104 H 0.15634 0.62653 0.37609 0.0
C3105 C 0.18511 0.57351 0.38734 0.0
C3106 C 0.19418 0.41806 0.13243 0.0
C3107 C 0.18769 0.39969 0.12264 0.0
H3108 H 0.18232 0.44946 0.1444 0.0
C3109 C 0.16336 0.39912 0.11726 0.0
H3110 H 0.21279 0.41867 0.13682 0.0
C3111 C 0.14598 0.41719 0.12129 0.0
C3112 C 0.15252 0.43593 0.13095 0.0
H3113 H 0.15804 0.3852 0.1096 0.0
H3114 H 0.12766 0.41679 0.11655 0.0
C3115 C 0.17674 0.43582 0.13665 0.0
C3116 C 0.35163 0.41675 0.87696 0.0
C3117 C 0.34522 0.43627 0.86776 0.0
H3118 H 0.33911 0.38458 0.88833 0.0
C3119 C 0.32067 0.43738 0.86258 0.0
H3120 H 0.37021 0.4154 0.88132 0.0
C3121 C 0.30284 0.42005 0.86685 0.0
C3122 C 0.30924 0.40088 0.87616 0.0
H3123 H 0.31513 0.45164 0.85518 0.0
H3124 H 0.284 0.42159 0.86285 0.0
C3125 C 0.33385 0.39912 0.88102 0.0
C3126 C 0.35372 0.58946 0.63286 0.0
C3127 C 0.35532 0.56702 0.62531 0.0
H3128 H 0.33542 0.62477 0.63507 0.0
C3129 C 0.33994 0.56354 0.61356 0.0
H3130 H 0.36523 0.59253 0.64204 0.0
C3131 C 0.323 0.58195 0.60957 0.0
C3132 C 0.32091 0.60414 0.61732 0.0
H3133 H 0.3409 0.54648 0.60751 0.0
H3134 H 0.31101 0.5785 0.60064 0.0
C3135 C 0.33655 0.60779 0.62896 0.0
C3136 C 0.33173 0.16352 0.14421 0.0
C3137 C 0.34375 0.14648 0.13529 0.0
H3138 H 0.31139 0.19769 0.14591 0.0
C3139 C 0.34342 0.15082 0.12075 0.0
H3140 H 0.33134 0.16049 0.15544 0.0
C3141 C 0.33211 0.17217 0.11529 0.0
C3142 C 0.32079 0.18966 0.12423 0.0
H3143 H 0.3528 0.13823 0.11361 0.0
H3144 H 0.33317 0.17545 0.1041 0.0
C3145 C 0.32033 0.18483 0.13874 0.0
C3146 C 0.08455 0.08494 0.39345 0.0
C3147 C 0.09894 0.10015 0.38459 0.0
H3148 H 0.0527 0.06108 0.39535 0.0
C3149 C 0.09255 0.10175 0.37032 0.0
H3150 H 0.08896 0.08339 0.4045 0.0
C3151 C 0.07178 0.08913 0.36511 0.0
C3152 C 0.05686 0.07457 0.37403 0.0
H3153 H 0.10348 0.113 0.36317 0.0
H3154 H 0.06694 0.09151 0.35416 0.0
C3155 C 0.06368 0.07234 0.38823 0.0
C3156 C 0.15588 0.84741 0.62027 0.0
C3157 C 0.15527 0.85268 0.63471 0.0
H3158 H 0.16731 0.82231 0.60412 0.0
C3159 C 0.16814 0.83686 0.64396 0.0
H3160 H 0.14651 0.85945 0.61283 0.0
C3161 C 0.18045 0.81568 0.63893 0.0
C3162 C 0.1802 0.80988 0.62453 0.0
H3163 H 0.16798 0.84034 0.65515 0.0
H3164 H 0.18981 0.80361 0.64635 0.0
C3165 C 0.16814 0.82628 0.61525 0.0
C3166 C 0.43589 0.9292 0.8913 0.0
C3167 C 0.44261 0.92766 0.87705 0.0
H3168 H 0.4106 0.91762 0.90743 0.0
C3169 C 0.42734 0.91389 0.86791 0.0
H3170 H 0.44708 0.93986 0.8986 0.0
C3171 C 0.40634 0.90142 0.87293 0.0
C3172 C 0.40008 0.90225 0.88725 0.0
H3173 H 0.43204 0.912 0.85692 0.0
H3174 H 0.39513 0.89086 0.86559 0.0
C3175 C 0.41485 0.91665 0.89634 0.0
C3176 C 0.3319 0.82181 0.38402 0.0
C3177 C 0.32298 0.80381 0.37457 0.0
H3178 H 0.35105 0.85649 0.38664 0.0
C3179 C 0.32545 0.80812 0.36008 0.0
H3180 H 0.3305 0.81892 0.39523 0.0
C3181 C 0.33719 0.82971 0.35516 0.0
C3182 C 0.34699 0.84718 0.36464 0.0
H3183 H 0.31862 0.79461 0.35257 0.0
H3184 H 0.33942 0.8323 0.34396 0.0
C3185 C 0.34388 0.8432 0.37911 0.0
C3186 C 0.40234 0.07569 0.6181 0.0
C3187 C 0.40343 0.10003 0.61263 0.0
H3188 H 0.42231 0.0456 0.62777 0.0
C3189 C 0.42633 0.11275 0.6129 0.0
H3190 H 0.38506 0.06527 0.61795 0.0
C3191 C 0.44757 0.10147 0.61844 0.0
C3192 C 0.44652 0.07718 0.62392 0.0
H3193 H 0.42778 0.13172 0.60912 0.0
H3194 H 0.46475 0.11205 0.61872 0.0
C3195 C 0.42366 0.0644 0.62371 0.0
C3196 C 0.15739 0.15158 0.87879 0.0
C3197 C 0.15766 0.1466 0.86431 0.0
H3198 H 0.16683 0.17696 0.89523 0.0
C3199 C 0.16997 0.16332 0.85533 0.0
H3200 H 0.14774 0.13928 0.88598 0.0
C3201 C 0.18106 0.18492 0.86065 0.0
C3202 C 0.17998 0.19037 0.87508 0.0
H3203 H 0.17081 0.15983 0.84415 0.0
H3204 H 0.1902 0.19753 0.85343 0.0
C3205 C 0.16838 0.17321 0.88411 0.0
C3206 C 0.07484 0.88494 0.11354 0.0
C3207 C 0.09774 0.89758 0.1131 0.0
H3208 H 0.03612 0.88654 0.11869 0.0
C3209 C 0.09867 0.92267 0.11733 0.0
H3210 H 0.07353 0.86567 0.11024 0.0
C3211 C 0.07717 0.93468 0.12222 0.0
C3212 C 0.05432 0.92191 0.12274 0.0
H3213 H 0.11612 0.9328 0.11718 0.0
H3214 H 0.0784 0.95392 0.12556 0.0
C3215 C 0.05338 0.89698 0.11826 0.0
C3216 C 0.67206 0.82237 0.87607 0.0
C3217 C 0.66112 0.79881 0.87406 0.0
H3218 H 0.66928 0.86178 0.87267 0.0
C3219 C 0.6391 0.79718 0.86609 0.0
H3220 H 0.68884 0.8244 0.88227 0.0
C3221 C 0.6278 0.81861 0.86075 0.0
C3222 C 0.63837 0.84217 0.86309 0.0
H3223 H 0.63046 0.77933 0.86401 0.0
H3224 H 0.61068 0.81676 0.85482 0.0
C3225 C 0.66085 0.84382 0.8706 0.0
C3226 C 0.93849 0.92195 0.61488 0.0
C3227 C 0.94923 0.91364 0.62747 0.0
H3228 H 0.90993 0.9165 0.59949 0.0
C3229 C 0.93796 0.89391 0.63475 0.0
H3230 H 0.94694 0.93703 0.60901 0.0
C3231 C 0.91663 0.88239 0.62945 0.0
C3232 C 0.90622 0.89007 0.61661 0.0
H3233 H 0.94563 0.8874 0.6446 0.0
H3234 H 0.90829 0.86748 0.63549 0.0
C3235 C 0.91727 0.9102 0.60945 0.0
C3236 C 0.82395 0.1758 0.37526 0.0
C3237 C 0.83336 0.19982 0.37268 0.0
H3238 H 0.82858 0.13652 0.37216 0.0
C3239 C 0.85417 0.20243 0.36383 0.0
H3240 H 0.8081 0.17311 0.38212 0.0
C3241 C 0.86593 0.18151 0.35818 0.0
C3242 C 0.85711 0.15745 0.36118 0.0
H3243 H 0.86155 0.2207 0.36136 0.0
H3244 H 0.88211 0.18416 0.35156 0.0
C3245 C 0.8357 0.15483 0.36956 0.0
C3246 C 0.56726 0.11341 0.10875 0.0
C3247 C 0.59119 0.10635 0.11323 0.0
H3248 H 0.52791 0.10834 0.11093 0.0
C3249 C 0.59345 0.08728 0.12327 0.0
H3250 H 0.56487 0.12768 0.10084 0.0
C3251 C 0.57223 0.07615 0.12906 0.0
C3252 C 0.5483 0.0839 0.12495 0.0
H3253 H 0.6116 0.08158 0.12707 0.0
H3254 H 0.57455 0.06215 0.13714 0.0
C3255 C 0.54609 0.10232 0.11454 0.0
C3256 C 0.67559 0.17343 0.62433 0.0
C3257 C 0.66874 0.19747 0.62879 0.0
H3258 H 0.66903 0.13413 0.62602 0.0
C3259 C 0.65077 0.19983 0.63946 0.0
H3260 H 0.68919 0.17091 0.61606 0.0
C3261 C 0.6391 0.17881 0.64504 0.0
C3262 C 0.64529 0.15488 0.64022 0.0
H3263 H 0.64547 0.21799 0.64341 0.0
H3264 H 0.625 0.18129 0.65306 0.0
C3265 C 0.66403 0.15235 0.63002 0.0
C3266 C 0.56566 0.92514 0.38341 0.0
C3267 C 0.54893 0.91176 0.37495 0.0
H3268 H 0.59909 0.92409 0.39568 0.0
C3269 C 0.55419 0.88679 0.37172 0.0
H3270 H 0.56194 0.94439 0.38611 0.0
C3271 C 0.57551 0.87528 0.377 0.0
C3272 C 0.59202 0.88833 0.3858 0.0
H3273 H 0.54183 0.87617 0.36501 0.0
H3274 H 0.57912 0.85613 0.37405 0.0
C3275 C 0.58694 0.9135 0.38885 0.0
C3276 C 0.82413 0.81477 0.13506 0.0
C3277 C 0.83481 0.80094 0.12411 0.0
H3278 H 0.82802 0.84553 0.14916 0.0
C3279 C 0.85746 0.80885 0.1183 0.0
H3280 H 0.80671 0.80888 0.13975 0.0
C3281 C 0.8694 0.83008 0.12341 0.0
C3282 C 0.85926 0.84366 0.13469 0.0
H3283 H 0.86588 0.79863 0.10971 0.0
H3284 H 0.88657 0.83586 0.11841 0.0
C3285 C 0.83633 0.8358 0.14039 0.0
C3286 C 0.93795 0.1076 0.86632 0.0
C3287 C 0.95183 0.09076 0.87442 0.0
H3288 H 0.90644 0.13172 0.86519 0.0
C3289 C 0.94398 0.0854 0.88814 0.0
H3290 H 0.94338 0.11175 0.85562 0.0
C3291 C 0.92301 0.09728 0.8938 0.0
C3292 C 0.90931 0.11453 0.88576 0.0
H3293 H 0.95448 0.07258 0.89463 0.0
H3294 H 0.91791 0.09336 0.90456 0.0
C3295 C 0.91687 0.11917 0.87187 0.0
C3296 C 0.82207 0.68504 0.63841 0.0
C3297 C 0.82412 0.69214 0.62424 0.0
H3298 H 0.83319 0.65944 0.65448 0.0
C3299 C 0.83829 0.67716 0.61515 0.0
H3300 H 0.81107 0.69596 0.64568 0.0
C3301 C 0.85067 0.65608 0.62015 0.0
C3302 C 0.84936 0.64946 0.6344 0.0
H3303 H 0.84057 0.68216 0.60422 0.0
H3304 H 0.86153 0.64509 0.61284 0.0
C3305 C 0.83455 0.66394 0.64343 0.0
C3306 C 0.58484 0.58064 0.89241 0.0
C3307 C 0.59786 0.59872 0.88465 0.0
H3308 H 0.55457 0.55463 0.89287 0.0
C3309 C 0.59042 0.60349 0.87076 0.0
H3310 H 0.59001 0.57656 0.90315 0.0
C3311 C 0.57002 0.59111 0.86492 0.0
C3312 C 0.55654 0.57356 0.8728 0.0
H3313 H 0.60029 0.61697 0.86438 0.0
H3314 H 0.56435 0.59592 0.85436 0.0
C3315 C 0.56439 0.56823 0.88656 0.0
C3316 C 0.65258 0.34434 0.11943 0.0
C3317 C 0.65162 0.34943 0.13389 0.0
H3318 H 0.66419 0.31932 0.10326 0.0
C3319 C 0.66403 0.33329 0.14317 0.0
H3320 H 0.64363 0.3566 0.11195 0.0
C3321 C 0.67628 0.31208 0.13814 0.0
C3322 C 0.67638 0.30646 0.12372 0.0
H3323 H 0.66359 0.33656 0.15438 0.0
H3324 H 0.68535 0.29986 0.1456 0.0
C3325 C 0.66474 0.32311 0.11441 0.0
C3326 C 0.90636 0.42074 0.39187 0.0
C3327 C 0.89852 0.39784 0.38628 0.0
H3328 H 0.93301 0.45054 0.39078 0.0
C3329 C 0.91117 0.38784 0.37468 0.0
H3330 H 0.89687 0.42878 0.40082 0.0
C3331 C 0.9314 0.40043 0.36881 0.0
C3332 C 0.93964 0.42305 0.37457 0.0
H3333 H 0.90532 0.3703 0.37011 0.0
H3334 H 0.94102 0.39215 0.35997 0.0
C3335 C 0.92697 0.43312 0.38617 0.0
C3336 C 0.83046 0.35262 0.87579 0.0
C3337 C 0.84137 0.3514 0.86238 0.0
H3338 H 0.81096 0.3334 0.89207 0.0
C3339 C 0.83969 0.32891 0.85486 0.0
H3340 H 0.83152 0.36947 0.882 0.0
C3341 C 0.82855 0.30792 0.86084 0.0
C3342 C 0.81839 0.30889 0.87444 0.0
H3343 H 0.8474 0.32732 0.8444 0.0
H3344 H 0.82879 0.2907 0.85494 0.0
C3345 C 0.81897 0.33172 0.88169 0.0
C3346 C 0.93172 0.59567 0.13552 0.0
C3347 C 0.94269 0.5759 0.1281 0.0
H3348 H 0.90311 0.62346 0.13597 0.0
C3349 C 0.93215 0.56845 0.11526 0.0
H3350 H 0.93959 0.60202 0.14535 0.0
C3351 C 0.91125 0.58075 0.10988 0.0
C3352 C 0.9007 0.60097 0.11713 0.0
H3353 H 0.94019 0.5532 0.10935 0.0
H3354 H 0.90372 0.57487 0.09987 0.0
C3355 C 0.91102 0.60814 0.13007 0.0
C3356 C 0.65958 0.65073 0.37933 0.0
C3357 C 0.65939 0.64632 0.36479 0.0
H3358 H 0.66941 0.67555 0.39598 0.0
C3359 C 0.67129 0.66346 0.35589 0.0
H3360 H 0.65026 0.63809 0.38646 0.0
C3361 C 0.6824 0.68493 0.36136 0.0
C3362 C 0.68176 0.68982 0.37585 0.0
H3363 H 0.67179 0.6604 0.34466 0.0
H3364 H 0.69121 0.69789 0.3542 0.0
C3365 C 0.6706 0.67223 0.38479 0.0
C3366 C 0.58557 0.4099 0.60643 0.0
C3367 C 0.60209 0.3984 0.61586 0.0
H3368 H 0.55169 0.43044 0.60376 0.0
C3369 C 0.59722 0.40017 0.63032 0.0
H3370 H 0.5887 0.40881 0.59522 0.0
C3371 C 0.57588 0.41228 0.63521 0.0
C3372 C 0.55889 0.42304 0.62577 0.0
H3373 H 0.60977 0.39189 0.6379 0.0
H3374 H 0.57231 0.41243 0.64639 0.0
C3375 C 0.56422 0.42207 0.61132 0.0
C3376 C 0.1276 0.32079 0.35896 0.0
C3377 C 0.13742 0.34457 0.36155 0.0
H3378 H 0.13127 0.28155 0.36199 0.0
C3379 C 0.15954 0.34673 0.36933 0.0
H3380 H 0.11073 0.31861 0.35283 0.0
C3381 C 0.17109 0.32552 0.37487 0.0
C3382 C 0.16091 0.30167 0.37261 0.0
H3383 H 0.16737 0.36491 0.37157 0.0
H3384 H 0.18751 0.32796 0.38132 0.0
C3385 C 0.13931 0.29959 0.3643 0.0
C3386 C 0.40401 0.40922 0.12186 0.0
C3387 C 0.40649 0.39015 0.11185 0.0
H3388 H 0.42259 0.43458 0.13569 0.0
C3389 C 0.43043 0.38342 0.10729 0.0
H3390 H 0.38577 0.41463 0.12566 0.0
C3391 C 0.4515 0.395 0.1129 0.0
C3392 C 0.44917 0.41341 0.12334 0.0
H3393 H 0.43288 0.36905 0.09943 0.0
H3394 H 0.46966 0.38936 0.1091 0.0
C3395 C 0.42513 0.42067 0.12758 0.0
C3396 C 0.35745 0.68693 0.88414 0.0
C3397 C 0.33778 0.69875 0.87708 0.0
H3398 H 0.38376 0.65712 0.88429 0.0
C3399 C 0.32945 0.68882 0.86427 0.0
H3400 H 0.36398 0.69394 0.89414 0.0
C3401 C 0.34109 0.66787 0.85846 0.0
C3402 C 0.36114 0.65629 0.8654 0.0
H3403 H 0.31443 0.69769 0.85856 0.0
H3404 H 0.33475 0.66113 0.84836 0.0
C3405 C 0.36888 0.6659 0.87843 0.0
C3406 C 0.06623 0.60612 0.63446 0.0
C3407 C 0.05355 0.58797 0.62664 0.0
H3408 H 0.0967 0.63157 0.63542 0.0
C3409 C 0.0625 0.58155 0.61328 0.0
H3410 H 0.0599 0.61114 0.64488 0.0
C3411 C 0.08332 0.59368 0.60766 0.0
C3412 C 0.0958 0.61227 0.61537 0.0
H3413 H 0.0529 0.56771 0.60701 0.0
H3414 H 0.08921 0.58894 0.59713 0.0
C3415 C 0.08721 0.61795 0.62896 0.0
C3416 C 0.14929 0.67645 0.14535 0.0
C3417 C 0.14646 0.65495 0.13708 0.0
H3418 H 0.16235 0.7141 0.14648 0.0
C3419 C 0.15607 0.65503 0.12334 0.0
H3420 H 0.14258 0.6769 0.15606 0.0
C3421 C 0.16757 0.67631 0.11789 0.0
C3422 C 0.16962 0.69804 0.12602 0.0
H3423 H 0.15392 0.63895 0.11658 0.0
H3424 H 0.17402 0.67603 0.10712 0.0
C3425 C 0.16068 0.69776 0.13988 0.0
C3426 C 0.09078 0.40982 0.87791 0.0
C3427 C 0.08873 0.3898 0.88736 0.0
H3428 H 0.07167 0.43581 0.86468 0.0
C3429 C 0.06486 0.3818 0.89143 0.0
H3430 H 0.10888 0.41625 0.87442 0.0
C3431 C 0.04356 0.393 0.88585 0.0
C3432 C 0.04559 0.41246 0.87604 0.0
H3433 H 0.06263 0.36673 0.89889 0.0
H3434 H 0.02546 0.3863 0.88916 0.0
C3435 C 0.06945 0.42103 0.87231 0.0
C3436 C 0.35773 0.29712 0.63435 0.0
C3437 C 0.33633 0.29893 0.62586 0.0
H3438 H 0.38583 0.31648 0.64602 0.0
C3439 C 0.32581 0.32264 0.6236 0.0
H3440 H 0.366 0.27919 0.63669 0.0
C3441 C 0.33695 0.344 0.62926 0.0
C3442 C 0.35898 0.3421 0.63714 0.0
H3443 H 0.3095 0.32485 0.61704 0.0
H3444 H 0.32894 0.36207 0.62698 0.0
C3445 C 0.36903 0.31845 0.63981 0.0
C3446 C 0.45441 0.60329 0.38551 0.0
C3447 C 0.45271 0.5856 0.37467 0.0
H3448 H 0.43491 0.62744 0.39959 0.0
C3449 C 0.42902 0.57829 0.36994 0.0
H3450 H 0.47239 0.60897 0.38956 0.0
C3451 C 0.40751 0.58896 0.37566 0.0
C3452 C 0.40922 0.6071 0.38627 0.0
H3453 H 0.42711 0.5649 0.36151 0.0
H3454 H 0.38958 0.58354 0.37143 0.0
C3455 C 0.43293 0.61388 0.39125 0.0
loop_
_geom_bond_atom_site_label_1
_geom_bond_atom_site_label_2
_geom_bond_distance
_geom_bond_site_symmetry_2
_ccdc_geom_bond_type
Li0 N17 1.990 . S
Li0 O60 1.956 . S
Li0 O61 1.970 . S
Li0 O62 1.961 . S
Li1 N25 1.990 . S
Li1 O60 1.970 . S
Li1 O61 1.956 . S
Li1 O63 1.961 . S
Li2 N47 1.990 1_545 S
Li2 O60 1.961 . S
Li2 O62 1.956 . S
Li2 O63 1.970 . S
Li3 N53 1.990 . S
Li3 O61 1.961 . S
Li3 O62 1.970 . S
Li3 O63 1.956 . S
C4 C6 1.348 . S
C4 C7 1.356 . S
C4 O60 1.325 1_565 S
N5 C8 1.314 . S
N5 C9 1.279 . S
C6 C4 1.348 . S
C6 C8 1.353 . S
C6 H64 0.929 . S
C7 C4 1.356 . S
C7 C9 1.358 . S
C7 H65 0.930 . S
C8 N5 1.314 . S
C8 C6 1.353 . S
C8 H66 0.930 . S
C9 N5 1.279 . S
C9 C7 1.358 . S
C9 H67 0.930 . S
C10 C13 1.348 . S
C10 C14 1.356 . S
C10 O61 1.325 . S
C11 N12 1.279 . S
C11 C14 1.358 . S
C11 H68 0.930 . S
N12 C11 1.279 . S
N12 C15 1.314 . S
C13 C10 1.348 . S
C13 C15 1.353 . S
C13 H69 0.929 . S
C14 C10 1.356 . S
C14 C11 1.358 . S
C14 H70 0.930 . S
C15 N12 1.314 . S
C15 C13 1.353 . S
C15 H71 0.930 . S
C16 N17 1.314 . S
C16 C21 1.353 . S
C16 H22 0.930 . S
N17 Li0 1.990 . S
N17 C16 1.314 . S
N17 C19 1.279 . S
C18 C19 1.358 . S
C18 C20 1.356 . S
C18 H72 0.930 . S
C19 N17 1.279 . S
C19 C18 1.358 . S
C19 H23 0.930 . S
C20 C18 1.356 . S
C20 C21 1.348 . S
C21 C16 1.353 . S
C21 C20 1.348 . S
C21 H73 0.929 . S
H22 C16 0.930 . S
H23 C19 0.930 . S
C24 N25 1.314 . S
C24 C26 1.353 . S
C24 H30 0.930 . S
N25 Li1 1.990 . S
N25 C24 1.314 . S
N25 C28 1.279 . S
C26 C24 1.353 . S
C26 C29 1.348 . S
C26 H74 0.929 1_545 S
C27 C28 1.358 . S
C27 C29 1.356 . S
C27 H75 0.930 . S
C28 N25 1.279 . S
C28 C27 1.358 . S
C28 H31 0.930 . S
C29 C26 1.348 . S
C29 C27 1.356 . S
H30 C24 0.930 . S
H31 C28 0.930 . S
C32 C34 1.348 . S
C32 C35 1.356 . S
C32 O62 1.325 . S
N33 C36 1.314 . S
N33 C37 1.279 . S
C34 C32 1.348 . S
C34 C36 1.353 . S
C34 H76 0.929 . S
C35 C32 1.356 . S
C35 C37 1.358 . S
C35 H77 0.930 . S
C36 N33 1.314 . S
C36 C34 1.353 . S
C36 H78 0.930 . S
C37 N33 1.279 . S
C37 C35 1.358 . S
C37 H79 0.930 . S
C38 C39 1.348 . S
C38 C40 1.356 . S
C38 O63 1.325 . S
C39 C38 1.348 . S
C39 C41 1.353 . S
C39 H80 0.929 . S
C40 C38 1.356 . S
C40 C42 1.358 . S
C40 H81 0.930 . S
C41 C39 1.353 . S
C41 N43 1.314 . S
C41 H82 0.930 . S
C42 C40 1.358 . S
C42 N43 1.279 . S
C42 H83 0.930 . S
N43 C41 1.314 . S
N43 C42 1.279 . S
C44 C46 1.353 . S
C44 N47 1.314 . S
C44 H50 0.930 . S
C45 N47 1.279 . S
C45 C48 1.358 . S
C45 H51 0.930 . S
C46 C44 1.353 . S
C46 C49 1.348 . S
C46 H84 0.929 . S
N47 Li2 1.990 1_565 S
N47 C44 1.314 . S
N47 C45 1.279 . S
C48 C45 1.358 . S
C48 C49 1.356 . S
C48 H85 0.930 . S
C49 C46 1.348 . S
C49 C48 1.356 . S
H50 C44 0.930 . S
H51 C45 0.930 . S
C52 N53 1.314 . S
C52 C54 1.353 . S
C52 H58 0.930 . S
N53 Li3 1.990 . S
N53 C52 1.314 . S
N53 C56 1.279 . S
C54 C52 1.353 . S
C54 C57 1.348 . S
C54 H86 0.929 . S
C55 C56 1.358 . S
C55 C57 1.356 . S
C55 H87 0.930 . S
C56 N53 1.279 . S
C56 C55 1.358 . S
C56 H59 0.930 . S
C57 C54 1.348 . S
C57 C55 1.356 . S
H58 C52 0.930 . S
H59 C56 0.930 . S
O60 Li0 1.956 . S
O60 Li1 1.970 . S
O60 Li2 1.961 . S
O60 C4 1.325 1_545 S
O61 Li0 1.970 . S
O61 Li1 1.956 . S
O61 Li3 1.961 . S
O61 C10 1.325 . S
O62 Li0 1.961 . S
O62 Li2 1.956 . S
O62 Li3 1.970 . S
O62 C32 1.325 . S
O63 Li1 1.961 . S
O63 Li2 1.970 . S
O63 Li3 1.956 . S
O63 C38 1.325 . S
H64 C6 0.929 . S
H65 C7 0.930 . S
H66 C8 0.930 . S
H67 C9 0.930 . S
H68 C11 0.930 . S
H69 C13 0.929 . S
H70 C14 0.930 . S
H71 C15 0.930 . S
H72 C18 0.930 . S
H73 C21 0.929 . S
H74 C26 0.929 1_565 S
H75 C27 0.930 . S
H76 C34 0.929 . S
H77 C35 0.930 . S
H78 C36 0.930 . S
H79 C37 0.930 . S
H80 C39 0.929 . S
H81 C40 0.930 . S
H82 C41 0.930 . S
H83 C42 0.930 . S
H84 C46 0.929 . S
H85 C48 0.930 . S
H86 C54 0.929 . S
H87 C55 0.930 . S
Li88 N105 1.990 . S
Li88 O148 1.956 . S
Li88 O149 1.970 . S
Li88 O150 1.961 . S
Li89 N113 1.990 . S
Li89 O148 1.970 . S
Li89 O149 1.956 . S
Li89 O151 1.961 . S
Li90 N135 1.990 . S
Li90 O148 1.961 . S
Li90 O150 1.956 . S
Li90 O151 1.970 . S
Li91 N141 1.990 . S
Li91 O149 1.961 . S
Li91 O150 1.970 . S
Li91 O151 1.956 . S
C92 C94 1.348 . S
C92 C95 1.356 . S
C92 O148 1.325 . S
N93 C96 1.314 . S
N93 C97 1.279 . S
C94 C92 1.348 . S
C94 C96 1.353 . S
C94 H152 0.929 . S
C95 C92 1.356 . S
C95 C97 1.358 . S
C95 H153 0.930 . S
C96 N93 1.314 . S
C96 C94 1.353 . S
C96 H154 0.930 . S
C97 N93 1.279 . S
C97 C95 1.358 . S
C97 H155 0.930 . S
C98 C101 1.348 . S
C98 C102 1.356 . S
C98 O149 1.325 . S
C99 N100 1.279 . S
C99 C102 1.358 . S
C99 H156 0.930 . S
N100 C99 1.279 . S
N100 C103 1.314 . S
C101 C98 1.348 . S
C101 C103 1.353 . S
C101 H157 0.929 . S
C102 C98 1.356 . S
C102 C99 1.358 . S
C102 H158 0.930 . S
C103 N100 1.314 . S
C103 C101 1.353 . S
C103 H159 0.930 . S
C104 N105 1.314 . S
C104 C109 1.353 . S
C104 H110 0.930 . S
N105 Li88 1.990 . S
N105 C104 1.314 . S
N105 C107 1.279 . S
C106 C107 1.358 . S
C106 C108 1.356 . S
C106 H160 0.930 . S
C107 N105 1.279 . S
C107 C106 1.358 . S
C107 H111 0.930 . S
C108 C106 1.356 . S
C108 C109 1.348 . S
C109 C104 1.353 . S
C109 C108 1.348 . S
C109 H161 0.929 . S
H110 C104 0.930 . S
H111 C107 0.930 . S
C112 N113 1.314 . S
C112 C114 1.353 . S
C112 H118 0.930 . S
N113 Li89 1.990 . S
N113 C112 1.314 . S
N113 C116 1.279 . S
C114 C112 1.353 . S
C114 C117 1.348 . S
C114 H162 0.929 . S
C115 C116 1.358 . S
C115 C117 1.356 . S
C115 H163 0.930 . S
C116 N113 1.279 . S
C116 C115 1.358 . S
C116 H119 0.930 . S
C117 C114 1.348 . S
C117 C115 1.356 . S
H118 C112 0.930 . S
H119 C116 0.930 . S
C120 C122 1.348 . S
C120 C123 1.356 . S
C120 O150 1.325 . S
N121 C124 1.314 . S
N121 C125 1.279 . S
C122 C120 1.348 . S
C122 C124 1.353 . S
C122 H164 0.929 . S
C123 C120 1.356 . S
C123 C125 1.358 . S
C123 H165 0.930 . S
C124 N121 1.314 . S
C124 C122 1.353 . S
C124 H166 0.930 . S
C125 N121 1.279 . S
C125 C123 1.358 . S
C125 H167 0.930 . S
C126 C127 1.348 . S
C126 C128 1.356 . S
C126 O151 1.325 . S
C127 C126 1.348 . S
C127 C129 1.353 . S
C127 H168 0.929 . S
C128 C126 1.356 . S
C128 C130 1.358 . S
C128 H169 0.930 . S
C129 C127 1.353 . S
C129 N131 1.314 . S
C129 H170 0.930 . S
C130 C128 1.358 . S
C130 N131 1.279 . S
C130 H171 0.930 . S
N131 C129 1.314 . S
N131 C130 1.279 . S
C132 C134 1.353 . S
C132 N135 1.314 . S
C132 H138 0.930 . S
C133 N135 1.279 . S
C133 C136 1.358 . S
C133 H139 0.930 . S
C134 C132 1.353 . S
C134 C137 1.348 . S
C134 H172 0.929 . S
N135 Li90 1.990 . S
N135 C132 1.314 . S
N135 C133 1.279 . S
C136 C133 1.358 . S
C136 C137 1.356 . S
C136 H173 0.930 . S
C137 C134 1.348 . S
C137 C136 1.356 . S
H138 C132 0.930 . S
H139 C133 0.930 . S
C140 N141 1.314 . S
C140 C142 1.353 . S
C140 H146 0.930 . S
N141 Li91 1.990 . S
N141 C140 1.314 . S
N141 C144 1.279 . S
C142 C140 1.353 . S
C142 C145 1.348 . S
C142 H174 0.929 . S
C143 C144 1.358 . S
C143 C145 1.356 . S
C143 H175 0.930 . S
C144 N141 1.279 . S
C144 C143 1.358 . S
C144 H147 0.930 . S
C145 C142 1.348 . S
C145 C143 1.356 . S
H146 C140 0.930 . S
H147 C144 0.930 . S
O148 Li88 1.956 . S
O148 Li89 1.970 . S
O148 Li90 1.961 . S
O148 C92 1.325 . S
O149 Li88 1.970 . S
O149 Li89 1.956 . S
O149 Li91 1.961 . S
O149 C98 1.325 . S
O150 Li88 1.961 . S
O150 Li90 1.956 . S
O150 Li91 1.970 . S
O150 C120 1.325 . S
O151 Li89 1.961 . S
O151 Li90 1.970 . S
O151 Li91 1.956 . S
O151 C126 1.325 . S
H152 C94 0.929 . S
H153 C95 0.930 . S
H154 C96 0.930 . S
H155 C97 0.930 . S
H156 C99 0.930 . S
H157 C101 0.929 . S
H158 C102 0.930 . S
H159 C103 0.930 . S
H160 C106 0.930 . S
H161 C109 0.929 . S
H162 C114 0.929 . S
H163 C115 0.930 . S
H164 C122 0.929 . S
H165 C123 0.930 . S
H166 C124 0.930 . S
H167 C125 0.930 . S
H168 C127 0.929 . S
H169 C128 0.930 . S
H170 C129 0.930 . S
H171 C130 0.930 . S
H172 C134 0.929 . S
H173 C136 0.930 . S
H174 C142 0.929 . S
H175 C143 0.930 . S
Li176 N193 1.990 . S
Li176 O236 1.956 . S
Li176 O237 1.970 . S
Li176 O238 1.961 . S
Li177 N201 1.990 . S
Li177 O236 1.970 . S
Li177 O237 1.956 . S
Li177 O239 1.961 . S
Li178 N223 1.990 1_565 S
Li178 O236 1.961 . S
Li178 O238 1.956 . S
Li178 O239 1.970 . S
Li179 N229 1.990 . S
Li179 O237 1.961 . S
Li179 O238 1.970 . S
Li179 O239 1.956 . S
C180 C182 1.348 . S
C180 C183 1.356 . S
C180 O236 1.325 1_545 S
N181 C184 1.314 . S
N181 C185 1.279 . S
C182 C180 1.348 . S
C182 C184 1.353 . S
C182 H240 0.929 . S
C183 C180 1.356 . S
C183 C185 1.358 . S
C183 H241 0.930 . S
C184 N181 1.314 . S
C184 C182 1.353 . S
C184 H242 0.930 . S
C185 N181 1.279 . S
C185 C183 1.358 . S
C185 H243 0.930 . S
C186 C189 1.348 . S
C186 C190 1.356 . S
C186 O237 1.325 . S
C187 N188 1.279 . S
C187 C190 1.358 . S
C187 H244 0.930 . S
N188 C187 1.279 . S
N188 C191 1.314 . S
C189 C186 1.348 . S
C189 C191 1.353 . S
C189 H245 0.929 . S
C190 C186 1.356 . S
C190 C187 1.358 . S
C190 H246 0.930 . S
C191 N188 1.314 . S
C191 C189 1.353 . S
C191 H247 0.930 . S
C192 N193 1.314 . S
C192 C197 1.353 1_455 S
C192 H198 0.930 . S
N193 Li176 1.990 . S
N193 C192 1.314 . S
N193 C195 1.279 . S
C194 C195 1.358 1_655 S
C194 C196 1.356 . S
C194 H248 0.930 . S
C195 N193 1.279 . S
C195 C194 1.358 1_455 S
C195 H199 0.930 . S
C196 C194 1.356 . S
C196 C197 1.348 . S
C197 C192 1.353 1_655 S
C197 C196 1.348 . S
C197 H249 0.929 . S
H198 C192 0.930 . S
H199 C195 0.930 . S
C200 N201 1.314 . S
C200 C202 1.353 . S
C200 H206 0.930 . S
N201 Li177 1.990 . S
N201 C200 1.314 . S
N201 C204 1.279 . S
C202 C200 1.353 . S
C202 C205 1.348 . S
C202 H250 0.929 1_565 S
C203 C204 1.358 . S
C203 C205 1.356 . S
C203 H251 0.930 . S
C204 N201 1.279 . S
C204 C203 1.358 . S
C204 H207 0.930 . S
C205 C202 1.348 . S
C205 C203 1.356 . S
H206 C200 0.930 . S
H207 C204 0.930 . S
C208 C210 1.348 . S
C208 C211 1.356 . S
C208 O238 1.325 . S
N209 C212 1.314 . S
N209 C213 1.279 . S
C210 C208 1.348 . S
C210 C212 1.353 . S
C210 H252 0.929 . S
C211 C208 1.356 . S
C211 C213 1.358 . S
C211 H253 0.930 . S
C212 N209 1.314 . S
C212 C210 1.353 . S
C212 H254 0.930 . S
C213 N209 1.279 . S
C213 C211 1.358 . S
C213 H255 0.930 . S
C214 C215 1.348 . S
C214 C216 1.356 . S
C214 O239 1.325 . S
C215 C214 1.348 . S
C215 C217 1.353 . S
C215 H256 0.929 . S
C216 C214 1.356 . S
C216 C218 1.358 . S
C216 H257 0.930 . S
C217 C215 1.353 . S
C217 N219 1.314 . S
C217 H258 0.930 . S
C218 C216 1.358 . S
C218 N219 1.279 . S
C218 H259 0.930 . S
N219 C217 1.314 . S
N219 C218 1.279 . S
C220 C222 1.353 . S
C220 N223 1.314 . S
C220 H226 0.930 . S
C221 N223 1.279 . S
C221 C224 1.358 . S
C221 H227 0.930 . S
C222 C220 1.353 . S
C222 C225 1.348 . S
C222 H260 0.929 . S
N223 Li178 1.990 1_545 S
N223 C220 1.314 . S
N223 C221 1.279 . S
C224 C221 1.358 . S
C224 C225 1.356 . S
C224 H261 0.930 . S
C225 C222 1.348 . S
C225 C224 1.356 . S
H226 C220 0.930 . S
H227 C221 0.930 . S
C228 N229 1.314 . S
C228 C230 1.353 . S
C228 H234 0.930 . S
N229 Li179 1.990 . S
N229 C228 1.314 . S
N229 C232 1.279 . S
C230 C228 1.353 . S
C230 C233 1.348 . S
C230 H262 0.929 . S
C231 C232 1.358 . S
C231 C233 1.356 . S
C231 H263 0.930 . S
C232 N229 1.279 . S
C232 C231 1.358 . S
C232 H235 0.930 . S
C233 C230 1.348 . S
C233 C231 1.356 . S
H234 C228 0.930 . S
H235 C232 0.930 . S
O236 Li176 1.956 . S
O236 Li177 1.970 . S
O236 Li178 1.961 . S
O236 C180 1.325 1_565 S
O237 Li176 1.970 . S
O237 Li177 1.956 . S
O237 Li179 1.961 . S
O237 C186 1.325 . S
O238 Li176 1.961 . S
O238 Li178 1.956 . S
O238 Li179 1.970 . S
O238 C208 1.325 . S
O239 Li177 1.961 . S
O239 Li178 1.970 . S
O239 Li179 1.956 . S
O239 C214 1.325 . S
H240 C182 0.929 . S
H241 C183 0.930 . S
H242 C184 0.930 . S
H243 C185 0.930 . S
H244 C187 0.930 . S
H245 C189 0.929 . S
H246 C190 0.930 . S
H247 C191 0.930 . S
H248 C194 0.930 . S
H249 C197 0.929 . S
H250 C202 0.929 1_545 S
H251 C203 0.930 . S
H252 C210 0.929 . S
H253 C211 0.930 . S
H254 C212 0.930 . S
H255 C213 0.930 . S
H256 C215 0.929 . S
H257 C216 0.930 . S
H258 C217 0.930 . S
H259 C218 0.930 . S
H260 C222 0.929 . S
H261 C224 0.930 . S
H262 C230 0.929 . S
H263 C231 0.930 . S
Li264 N281 1.990 . S
Li264 O324 1.956 . S
Li264 O325 1.970 . S
Li264 O326 1.961 . S
Li265 N289 1.990 . S
Li265 O324 1.970 . S
Li265 O325 1.956 . S
Li265 O327 1.961 . S
Li266 N311 1.990 . S
Li266 O324 1.961 . S
Li266 O326 1.956 . S
Li266 O327 1.970 . S
Li267 N317 1.990 . S
Li267 O325 1.961 . S
Li267 O326 1.970 . S
Li267 O327 1.956 . S
C268 C270 1.348 . S
C268 C271 1.356 . S
C268 O324 1.325 . S
N269 C272 1.314 . S
N269 C273 1.279 . S
C270 C268 1.348 . S
C270 C272 1.353 . S
C270 H328 0.929 . S
C271 C268 1.356 . S
C271 C273 1.358 . S
C271 H329 0.930 . S
C272 N269 1.314 . S
C272 C270 1.353 . S
C272 H330 0.930 . S
C273 N269 1.279 . S
C273 C271 1.358 . S
C273 H331 0.930 . S
C274 C277 1.348 . S
C274 C278 1.356 . S
C274 O325 1.325 . S
C275 N276 1.279 . S
C275 C278 1.358 . S
C275 H332 0.930 . S
N276 C275 1.279 . S
N276 C279 1.314 . S
C277 C274 1.348 . S
C277 C279 1.353 . S
C277 H333 0.929 . S
C278 C274 1.356 . S
C278 C275 1.358 . S
C278 H334 0.930 . S
C279 N276 1.314 . S
C279 C277 1.353 . S
C279 H335 0.930 . S
C280 N281 1.314 . S
C280 C285 1.353 . S
C280 H286 0.930 . S
N281 Li264 1.990 . S
N281 C280 1.314 . S
N281 C283 1.279 . S
C282 C283 1.358 . S
C282 C284 1.356 . S
C282 H336 0.930 . S
C283 N281 1.279 . S
C283 C282 1.358 . S
C283 H287 0.930 . S
C284 C282 1.356 . S
C284 C285 1.348 . S
C285 C280 1.353 . S
C285 C284 1.348 . S
C285 H337 0.929 . S
H286 C280 0.930 . S
H287 C283 0.930 . S
C288 N289 1.314 . S
C288 C290 1.353 . S
C288 H294 0.930 . S
N289 Li265 1.990 . S
N289 C288 1.314 . S
N289 C292 1.279 . S
C290 C288 1.353 . S
C290 C293 1.348 . S
C290 H338 0.929 . S
C291 C292 1.358 . S
C291 C293 1.356 . S
C291 H339 0.930 . S
C292 N289 1.279 . S
C292 C291 1.358 . S
C292 H295 0.930 . S
C293 C290 1.348 . S
C293 C291 1.356 . S
H294 C288 0.930 . S
H295 C292 0.930 . S
C296 C298 1.348 . S
C296 C299 1.356 . S
C296 O326 1.325 . S
N297 C300 1.314 . S
N297 C301 1.279 . S
C298 C296 1.348 . S
C298 C300 1.353 . S
C298 H340 0.929 . S
C299 C296 1.356 . S
C299 C301 1.358 . S
C299 H341 0.930 . S
C300 N297 1.314 . S
C300 C298 1.353 . S
C300 H342 0.930 . S
C301 N297 1.279 . S
C301 C299 1.358 . S
C301 H343 0.930 . S
C302 C303 1.348 . S
C302 C304 1.356 . S
C302 O327 1.325 . S
C303 C302 1.348 . S
C303 C305 1.353 . S
C303 H344 0.929 . S
C304 C302 1.356 . S
C304 C306 1.358 . S
C304 H345 0.930 . S
C305 C303 1.353 . S
C305 N307 1.314 . S
C305 H346 0.930 . S
C306 C304 1.358 . S
C306 N307 1.279 . S
C306 H347 0.930 . S
N307 C305 1.314 . S
N307 C306 1.279 . S
C308 C310 1.353 . S
C308 N311 1.314 . S
C308 H314 0.930 . S
C309 N311 1.279 . S
C309 C312 1.358 . S
C309 H315 0.930 . S
C310 C308 1.353 . S
C310 C313 1.348 . S
C310 H348 0.929 . S
N311 Li266 1.990 . S
N311 C308 1.314 . S
N311 C309 1.279 . S
C312 C309 1.358 . S
C312 C313 1.356 . S
C312 H349 0.930 . S
C313 C310 1.348 . S
C313 C312 1.356 . S
H314 C308 0.930 . S
H315 C309 0.930 . S
C316 N317 1.314 . S
C316 C318 1.353 . S
C316 H322 0.930 . S
N317 Li267 1.990 . S
N317 C316 1.314 . S
N317 C320 1.279 . S
C318 C316 1.353 . S
C318 C321 1.348 . S
C318 H350 0.929 . S
C319 C320 1.358 . S
C319 C321 1.356 . S
C319 H351 0.930 . S
C320 N317 1.279 . S
C320 C319 1.358 . S
C320 H323 0.930 . S
C321 C318 1.348 . S
C321 C319 1.356 . S
H322 C316 0.930 . S
H323 C320 0.930 . S
O324 Li264 1.956 . S
O324 Li265 1.970 . S
O324 Li266 1.961 . S
O324 C268 1.325 . S
O325 Li264 1.970 . S
O325 Li265 1.956 . S
O325 Li267 1.961 . S
O325 C274 1.325 . S
O326 Li264 1.961 . S
O326 Li266 1.956 . S
O326 Li267 1.970 . S
O326 C296 1.325 . S
O327 Li265 1.961 . S
O327 Li266 1.970 . S
O327 Li267 1.956 . S
O327 C302 1.325 . S
H328 C270 0.929 . S
H329 C271 0.930 . S
H330 C272 0.930 . S
H331 C273 0.930 . S
H332 C275 0.930 . S
H333 C277 0.929 . S
H334 C278 0.930 . S
H335 C279 0.930 . S
H336 C282 0.930 . S
H337 C285 0.929 . S
H338 C290 0.929 . S
H339 C291 0.930 . S
H340 C298 0.929 . S
H341 C299 0.930 . S
H342 C300 0.930 . S
H343 C301 0.930 . S
H344 C303 0.929 . S
H345 C304 0.930 . S
H346 C305 0.930 . S
H347 C306 0.930 . S
H348 C310 0.929 . S
H349 C312 0.930 . S
H350 C318 0.929 . S
H351 C319 0.930 . S
Li352 N369 1.990 1_565 S
Li352 O412 1.956 . S
Li352 O413 1.970 . S
Li352 O414 1.961 . S
Li353 N377 1.990 . S
Li353 O412 1.970 . S
Li353 O413 1.956 . S
Li353 O415 1.961 . S
Li354 N399 1.990 . S
Li354 O412 1.961 . S
Li354 O414 1.956 . S
Li354 O415 1.970 . S
Li355 N405 1.990 . S
Li355 O413 1.961 . S
Li355 O414 1.970 . S
Li355 O415 1.956 . S
C356 C358 1.348 . S
C356 C359 1.356 . S
C356 O412 1.325 . S
N357 C360 1.314 . S
N357 C361 1.279 . S
C358 C356 1.348 . S
C358 C360 1.353 . S
C358 H416 0.929 . S
C359 C356 1.356 . S
C359 C361 1.358 . S
C359 H417 0.930 . S
C360 N357 1.314 . S
C360 C358 1.353 . S
C360 H418 0.930 . S
C361 N357 1.279 . S
C361 C359 1.358 . S
C361 H419 0.930 . S
C362 C365 1.348 . S
C362 C366 1.356 . S
C362 O413 1.325 . S
C363 N364 1.279 . S
C363 C366 1.358 . S
C363 H420 0.930 . S
N364 C363 1.279 . S
N364 C367 1.314 . S
C365 C362 1.348 . S
C365 C367 1.353 . S
C365 H421 0.929 . S
C366 C362 1.356 . S
C366 C363 1.358 . S
C366 H422 0.930 . S
C367 N364 1.314 . S
C367 C365 1.353 . S
C367 H423 0.930 . S
C368 N369 1.314 . S
C368 C373 1.353 . S
C368 H374 0.930 . S
N369 Li352 1.990 1_545 S
N369 C368 1.314 . S
N369 C371 1.279 . S
C370 C371 1.358 . S
C370 C372 1.356 . S
C370 H424 0.930 . S
C371 N369 1.279 . S
C371 C370 1.358 . S
C371 H375 0.930 . S
C372 C370 1.356 . S
C372 C373 1.348 . S
C373 C368 1.353 . S
C373 C372 1.348 . S
C373 H425 0.929 . S
H374 C368 0.930 . S
H375 C371 0.930 . S
C376 N377 1.314 . S
C376 C378 1.353 . S
C376 H382 0.930 . S
N377 Li353 1.990 . S
N377 C376 1.314 . S
N377 C380 1.279 . S
C378 C376 1.353 . S
C378 C381 1.348 . S
C378 H426 0.929 . S
C379 C380 1.358 . S
C379 C381 1.356 . S
C379 H427 0.930 . S
C380 N377 1.279 . S
C380 C379 1.358 . S
C380 H383 0.930 . S
C381 C378 1.348 . S
C381 C379 1.356 . S
H382 C376 0.930 . S
H383 C380 0.930 . S
C384 C386 1.348 . S
C384 C387 1.356 . S
C384 O414 1.325 1_545 S
N385 C388 1.314 . S
N385 C389 1.279 . S
C386 C384 1.348 . S
C386 C388 1.353 . S
C386 H428 0.929 . S
C387 C384 1.356 . S
C387 C389 1.358 . S
C387 H429 0.930 . S
C388 N385 1.314 . S
C388 C386 1.353 . S
C388 H430 0.930 . S
C389 N385 1.279 . S
C389 C387 1.358 . S
C389 H431 0.930 . S
C390 C391 1.348 . S
C390 C392 1.356 . S
C390 O415 1.325 . S
C391 C390 1.348 . S
C391 C393 1.353 . S
C391 H432 0.929 . S
C392 C390 1.356 . S
C392 C394 1.358 . S
C392 H433 0.930 . S
C393 C391 1.353 . S
C393 N395 1.314 . S
C393 H434 0.930 . S
C394 C392 1.358 . S
C394 N395 1.279 . S
C394 H435 0.930 . S
N395 C393 1.314 . S
N395 C394 1.279 . S
C396 C398 1.353 . S
C396 N399 1.314 . S
C396 H402 0.930 . S
C397 N399 1.279 . S
C397 C400 1.358 . S
C397 H403 0.930 . S
C398 C396 1.353 . S
C398 C401 1.348 . S
C398 H436 0.929 . S
N399 Li354 1.990 . S
N399 C396 1.314 . S
N399 C397 1.279 . S
C400 C397 1.358 . S
C400 C401 1.356 . S
C400 H437 0.930 . S
C401 C398 1.348 . S
C401 C400 1.356 . S
H402 C396 0.930 . S
H403 C397 0.930 . S
C404 N405 1.314 . S
C404 C406 1.353 . S
C404 H410 0.930 . S
N405 Li355 1.990 . S
N405 C404 1.314 . S
N405 C408 1.279 . S
C406 C404 1.353 . S
C406 C409 1.348 . S
C406 H438 0.929 1_565 S
C407 C408 1.358 . S
C407 C409 1.356 . S
C407 H439 0.930 . S
C408 N405 1.279 . S
C408 C407 1.358 . S
C408 H411 0.930 . S
C409 C406 1.348 . S
C409 C407 1.356 . S
H410 C404 0.930 . S
H411 C408 0.930 . S
O412 Li352 1.956 . S
O412 Li353 1.970 . S
O412 Li354 1.961 . S
O412 C356 1.325 . S
O413 Li352 1.970 . S
O413 Li353 1.956 . S
O413 Li355 1.961 . S
O413 C362 1.325 . S
O414 Li352 1.961 . S
O414 Li354 1.956 . S
O414 Li355 1.970 . S
O414 C384 1.325 1_565 S
O415 Li353 1.961 . S
O415 Li354 1.970 . S
O415 Li355 1.956 . S
O415 C390 1.325 . S
H416 C358 0.929 . S
H417 C359 0.930 . S
H418 C360 0.930 . S
H419 C361 0.930 . S
H420 C363 0.930 . S
H421 C365 0.929 . S
H422 C366 0.930 . S
H423 C367 0.930 . S
H424 C370 0.930 . S
H425 C373 0.929 . S
H426 C378 0.929 . S
H427 C379 0.930 . S
H428 C386 0.929 . S
H429 C387 0.930 . S
H430 C388 0.930 . S
H431 C389 0.930 . S
H432 C391 0.929 . S
H433 C392 0.930 . S
H434 C393 0.930 . S
H435 C394 0.930 . S
H436 C398 0.929 . S
H437 C400 0.930 . S
H438 C406 0.929 1_545 S
H439 C407 0.930 . S
Li440 N457 1.990 . S
Li440 O500 1.956 . S
Li440 O501 1.970 . S
Li440 O502 1.961 . S
Li441 N465 1.990 . S
Li441 O500 1.970 . S
Li441 O501 1.956 . S
Li441 O503 1.961 . S
Li442 N487 1.990 . S
Li442 O500 1.961 . S
Li442 O502 1.956 . S
Li442 O503 1.970 . S
Li443 N493 1.990 . S
Li443 O501 1.961 . S
Li443 O502 1.970 . S
Li443 O503 1.956 . S
C444 C446 1.348 . S
C444 C447 1.356 . S
C444 O500 1.325 . S
N445 C448 1.314 . S
N445 C449 1.279 . S
C446 C444 1.348 . S
C446 C448 1.353 . S
C446 H504 0.929 . S
C447 C444 1.356 . S
C447 C449 1.358 . S
C447 H505 0.930 . S
C448 N445 1.314 . S
C448 C446 1.353 . S
C448 H506 0.930 . S
C449 N445 1.279 . S
C449 C447 1.358 . S
C449 H507 0.930 . S
C450 C453 1.348 . S
C450 C454 1.356 . S
C450 O501 1.325 . S
C451 N452 1.279 . S
C451 C454 1.358 . S
C451 H508 0.930 . S
N452 C451 1.279 . S
N452 C455 1.314 . S
C453 C450 1.348 . S
C453 C455 1.353 . S
C453 H509 0.929 . S
C454 C450 1.356 . S
C454 C451 1.358 . S
C454 H510 0.930 . S
C455 N452 1.314 . S
C455 C453 1.353 . S
C455 H511 0.930 . S
C456 N457 1.314 . S
C456 C461 1.353 . S
C456 H462 0.930 . S
N457 Li440 1.990 . S
N457 C456 1.314 . S
N457 C459 1.279 . S
C458 C459 1.358 . S
C458 C460 1.356 . S
C458 H512 0.930 . S
C459 N457 1.279 . S
C459 C458 1.358 . S
C459 H463 0.930 . S
C460 C458 1.356 . S
C460 C461 1.348 . S
C461 C456 1.353 . S
C461 C460 1.348 . S
C461 H513 0.929 . S
H462 C456 0.930 . S
H463 C459 0.930 . S
C464 N465 1.314 . S
C464 C466 1.353 . S
C464 H470 0.930 . S
N465 Li441 1.990 . S
N465 C464 1.314 . S
N465 C468 1.279 . S
C466 C464 1.353 . S
C466 C469 1.348 . S
C466 H514 0.929 . S
C467 C468 1.358 . S
C467 C469 1.356 . S
C467 H515 0.930 . S
C468 N465 1.279 . S
C468 C467 1.358 . S
C468 H471 0.930 . S
C469 C466 1.348 . S
C469 C467 1.356 . S
H470 C464 0.930 . S
H471 C468 0.930 . S
C472 C474 1.348 . S
C472 C475 1.356 . S
C472 O502 1.325 . S
N473 C476 1.314 . S
N473 C477 1.279 . S
C474 C472 1.348 . S
C474 C476 1.353 . S
C474 H516 0.929 . S
C475 C472 1.356 . S
C475 C477 1.358 . S
C475 H517 0.930 . S
C476 N473 1.314 . S
C476 C474 1.353 . S
C476 H518 0.930 . S
C477 N473 1.279 . S
C477 C475 1.358 . S
C477 H519 0.930 . S
C478 C479 1.348 . S
C478 C480 1.356 . S
C478 O503 1.325 . S
C479 C478 1.348 . S
C479 C481 1.353 . S
C479 H520 0.929 . S
C480 C478 1.356 . S
C480 C482 1.358 . S
C480 H521 0.930 . S
C481 C479 1.353 . S
C481 N483 1.314 . S
C481 H522 0.930 . S
C482 C480 1.358 . S
C482 N483 1.279 . S
C482 H523 0.930 . S
N483 C481 1.314 . S
N483 C482 1.279 . S
C484 C486 1.353 . S
C484 N487 1.314 . S
C484 H490 0.930 . S
C485 N487 1.279 . S
C485 C488 1.358 . S
C485 H491 0.930 . S
C486 C484 1.353 . S
C486 C489 1.348 . S
C486 H524 0.929 . S
N487 Li442 1.990 . S
N487 C484 1.314 . S
N487 C485 1.279 . S
C488 C485 1.358 . S
C488 C489 1.356 . S
C488 H525 0.930 . S
C489 C486 1.348 . S
C489 C488 1.356 . S
H490 C484 0.930 . S
H491 C485 0.930 . S
C492 N493 1.314 . S
C492 C494 1.353 . S
C492 H498 0.930 . S
N493 Li443 1.990 . S
N493 C492 1.314 . S
N493 C496 1.279 . S
C494 C492 1.353 . S
C494 C497 1.348 . S
C494 H526 0.929 . S
C495 C496 1.358 . S
C495 C497 1.356 . S
C495 H527 0.930 . S
C496 N493 1.279 . S
C496 C495 1.358 . S
C496 H499 0.930 . S
C497 C494 1.348 . S
C497 C495 1.356 . S
H498 C492 0.930 . S
H499 C496 0.930 . S
O500 Li440 1.956 . S
O500 Li441 1.970 . S
O500 Li442 1.961 . S
O500 C444 1.325 . S
O501 Li440 1.970 . S
O501 Li441 1.956 . S
O501 Li443 1.961 . S
O501 C450 1.325 . S
O502 Li440 1.961 . S
O502 Li442 1.956 . S
O502 Li443 1.970 . S
O502 C472 1.325 . S
O503 Li441 1.961 . S
O503 Li442 1.970 . S
O503 Li443 1.956 . S
O503 C478 1.325 . S
H504 C446 0.929 . S
H505 C447 0.930 . S
H506 C448 0.930 . S
H507 C449 0.930 . S
H508 C451 0.930 . S
H509 C453 0.929 . S
H510 C454 0.930 . S
H511 C455 0.930 . S
H512 C458 0.930 . S
H513 C461 0.929 . S
H514 C466 0.929 . S
H515 C467 0.930 . S
H516 C474 0.929 . S
H517 C475 0.930 . S
H518 C476 0.930 . S
H519 C477 0.930 . S
H520 C479 0.929 . S
H521 C480 0.930 . S
H522 C481 0.930 . S
H523 C482 0.930 . S
H524 C486 0.929 . S
H525 C488 0.930 . S
H526 C494 0.929 . S
H527 C495 0.930 . S
Li528 N545 1.990 . S
Li528 O588 1.956 . S
Li528 O589 1.970 . S
Li528 O590 1.961 . S
Li529 N553 1.990 1_545 S
Li529 O588 1.970 . S
Li529 O589 1.956 . S
Li529 O591 1.961 . S
Li530 N575 1.990 . S
Li530 O588 1.961 . S
Li530 O590 1.956 . S
Li530 O591 1.970 . S
Li531 N581 1.990 . S
Li531 O589 1.961 . S
Li531 O590 1.970 . S
Li531 O591 1.956 . S
C532 C534 1.348 . S
C532 C535 1.356 . S
C532 O588 1.325 . S
N533 C536 1.314 . S
N533 C537 1.279 . S
C534 C532 1.348 . S
C534 C536 1.353 . S
C534 H592 0.929 . S
C535 C532 1.356 . S
C535 C537 1.358 . S
C535 H593 0.930 . S
C536 N533 1.314 . S
C536 C534 1.353 . S
C536 H594 0.930 . S
C537 N533 1.279 . S
C537 C535 1.358 . S
C537 H595 0.930 . S
C538 C541 1.348 . S
C538 C542 1.356 . S
C538 O589 1.325 . S
C539 N540 1.279 . S
C539 C542 1.358 . S
C539 H596 0.930 . S
N540 C539 1.279 . S
N540 C543 1.314 . S
C541 C538 1.348 . S
C541 C543 1.353 . S
C541 H597 0.929 . S
C542 C538 1.356 . S
C542 C539 1.358 . S
C542 H598 0.930 . S
C543 N540 1.314 . S
C543 C541 1.353 . S
C543 H599 0.930 . S
C544 N545 1.314 . S
C544 C549 1.353 . S
C544 H550 0.930 . S
N545 Li528 1.990 . S
N545 C544 1.314 . S
N545 C547 1.279 . S
C546 C547 1.358 . S
C546 C548 1.356 . S
C546 H600 0.930 . S
C547 N545 1.279 . S
C547 C546 1.358 . S
C547 H551 0.930 . S
C548 C546 1.356 . S
C548 C549 1.348 . S
C549 C544 1.353 . S
C549 C548 1.348 . S
C549 H601 0.929 . S
H550 C544 0.930 . S
H551 C547 0.930 . S
C552 N553 1.314 . S
C552 C554 1.353 . S
C552 H558 0.930 . S
N553 Li529 1.990 1_565 S
N553 C552 1.314 . S
N553 C556 1.279 . S
C554 C552 1.353 . S
C554 C557 1.348 . S
C554 H602 0.929 . S
C555 C556 1.358 . S
C555 C557 1.356 . S
C555 H603 0.930 . S
C556 N553 1.279 . S
C556 C555 1.358 . S
C556 H559 0.930 . S
C557 C554 1.348 . S
C557 C555 1.356 . S
H558 C552 0.930 . S
H559 C556 0.930 . S
C560 C562 1.348 . S
C560 C563 1.356 . S
C560 O590 1.325 . S
N561 C564 1.314 . S
N561 C565 1.279 . S
C562 C560 1.348 . S
C562 C564 1.353 . S
C562 H604 0.929 . S
C563 C560 1.356 . S
C563 C565 1.358 . S
C563 H605 0.930 . S
C564 N561 1.314 . S
C564 C562 1.353 . S
C564 H606 0.930 . S
C565 N561 1.279 . S
C565 C563 1.358 . S
C565 H607 0.930 . S
C566 C567 1.348 . S
C566 C568 1.356 . S
C566 O591 1.325 1_565 S
C567 C566 1.348 . S
C567 C569 1.353 . S
C567 H608 0.929 . S
C568 C566 1.356 . S
C568 C570 1.358 . S
C568 H609 0.930 . S
C569 C567 1.353 . S
C569 N571 1.314 . S
C569 H610 0.930 . S
C570 C568 1.358 . S
C570 N571 1.279 . S
C570 H611 0.930 . S
N571 C569 1.314 . S
N571 C570 1.279 . S
C572 C574 1.353 . S
C572 N575 1.314 . S
C572 H578 0.930 . S
C573 N575 1.279 . S
C573 C576 1.358 . S
C573 H579 0.930 . S
C574 C572 1.353 . S
C574 C577 1.348 . S
C574 H612 0.929 1_545 S
N575 Li530 1.990 . S
N575 C572 1.314 . S
N575 C573 1.279 . S
C576 C573 1.358 . S
C576 C577 1.356 . S
C576 H613 0.930 . S
C577 C574 1.348 . S
C577 C576 1.356 . S
H578 C572 0.930 . S
H579 C573 0.930 . S
C580 N581 1.314 . S
C580 C582 1.353 1_455 S
C580 H586 0.930 . S
N581 Li531 1.990 . S
N581 C580 1.314 . S
N581 C584 1.279 . S
C582 C580 1.353 1_655 S
C582 C585 1.348 . S
C582 H614 0.929 . S
C583 C584 1.358 1_655 S
C583 C585 1.356 . S
C583 H615 0.930 . S
C584 N581 1.279 . S
C584 C583 1.358 1_455 S
C584 H587 0.930 . S
C585 C582 1.348 . S
C585 C583 1.356 . S
H586 C580 0.930 . S
H587 C584 0.930 . S
O588 Li528 1.956 . S
O588 Li529 1.970 . S
O588 Li530 1.961 . S
O588 C532 1.325 . S
O589 Li528 1.970 . S
O589 Li529 1.956 . S
O589 Li531 1.961 . S
O589 C538 1.325 . S
O590 Li528 1.961 . S
O590 Li530 1.956 . S
O590 Li531 1.970 . S
O590 C560 1.325 . S
O591 Li529 1.961 . S
O591 Li530 1.970 . S
O591 Li531 1.956 . S
O591 C566 1.325 1_545 S
H592 C534 0.929 . S
H593 C535 0.930 . S
H594 C536 0.930 . S
H595 C537 0.930 . S
H596 C539 0.930 . S
H597 C541 0.929 . S
H598 C542 0.930 . S
H599 C543 0.930 . S
H600 C546 0.930 . S
H601 C549 0.929 . S
H602 C554 0.929 . S
H603 C555 0.930 . S
H604 C562 0.929 . S
H605 C563 0.930 . S
H606 C564 0.930 . S
H607 C565 0.930 . S
H608 C567 0.929 . S
H609 C568 0.930 . S
H610 C569 0.930 . S
H611 C570 0.930 . S
H612 C574 0.929 1_565 S
H613 C576 0.930 . S
H614 C582 0.929 . S
H615 C583 0.930 . S
Li616 N633 1.990 . S
Li616 O676 1.956 . S
Li616 O677 1.970 . S
Li616 O678 1.961 . S
Li617 N641 1.990 . S
Li617 O676 1.970 . S
Li617 O677 1.956 . S
Li617 O679 1.961 . S
Li618 N663 1.990 . S
Li618 O676 1.961 . S
Li618 O678 1.956 . S
Li618 O679 1.970 . S
Li619 N669 1.990 . S
Li619 O677 1.961 . S
Li619 O678 1.970 . S
Li619 O679 1.956 . S
C620 C622 1.348 . S
C620 C623 1.356 . S
C620 O676 1.325 . S
N621 C624 1.314 . S
N621 C625 1.279 . S
C622 C620 1.348 . S
C622 C624 1.353 . S
C622 H680 0.929 . S
C623 C620 1.356 . S
C623 C625 1.358 . S
C623 H681 0.930 . S
C624 N621 1.314 . S
C624 C622 1.353 . S
C624 H682 0.930 . S
C625 N621 1.279 . S
C625 C623 1.358 . S
C625 H683 0.930 . S
C626 C629 1.348 . S
C626 C630 1.356 . S
C626 O677 1.325 . S
C627 N628 1.279 . S
C627 C630 1.358 . S
C627 H684 0.930 . S
N628 C627 1.279 . S
N628 C631 1.314 . S
C629 C626 1.348 . S
C629 C631 1.353 . S
C629 H685 0.929 . S
C630 C626 1.356 . S
C630 C627 1.358 . S
C630 H686 0.930 . S
C631 N628 1.314 . S
C631 C629 1.353 . S
C631 H687 0.930 . S
C632 N633 1.314 . S
C632 C637 1.353 . S
C632 H638 0.930 . S
N633 Li616 1.990 . S
N633 C632 1.314 . S
N633 C635 1.279 . S
C634 C635 1.358 . S
C634 C636 1.356 . S
C634 H688 0.930 . S
C635 N633 1.279 . S
C635 C634 1.358 . S
C635 H639 0.930 . S
C636 C634 1.356 . S
C636 C637 1.348 . S
C637 C632 1.353 . S
C637 C636 1.348 . S
C637 H689 0.929 . S
H638 C632 0.930 . S
H639 C635 0.930 . S
C640 N641 1.314 . S
C640 C642 1.353 . S
C640 H646 0.930 . S
N641 Li617 1.990 . S
N641 C640 1.314 . S
N641 C644 1.279 . S
C642 C640 1.353 . S
C642 C645 1.348 . S
C642 H690 0.929 . S
C643 C644 1.358 . S
C643 C645 1.356 . S
C643 H691 0.930 . S
C644 N641 1.279 . S
C644 C643 1.358 . S
C644 H647 0.930 . S
C645 C642 1.348 . S
C645 C643 1.356 . S
H646 C640 0.930 . S
H647 C644 0.930 . S
C648 C650 1.348 . S
C648 C651 1.356 . S
C648 O678 1.325 . S
N649 C652 1.314 . S
N649 C653 1.279 . S
C650 C648 1.348 . S
C650 C652 1.353 . S
C650 H692 0.929 . S
C651 C648 1.356 . S
C651 C653 1.358 . S
C651 H693 0.930 . S
C652 N649 1.314 . S
C652 C650 1.353 . S
C652 H694 0.930 . S
C653 N649 1.279 . S
C653 C651 1.358 . S
C653 H695 0.930 . S
C654 C655 1.348 . S
C654 C656 1.356 . S
C654 O679 1.325 . S
C655 C654 1.348 . S
C655 C657 1.353 . S
C655 H696 0.929 . S
C656 C654 1.356 . S
C656 C658 1.358 . S
C656 H697 0.930 . S
C657 C655 1.353 . S
C657 N659 1.314 . S
C657 H698 0.930 . S
C658 C656 1.358 . S
C658 N659 1.279 . S
C658 H699 0.930 . S
N659 C657 1.314 . S
N659 C658 1.279 . S
C660 C662 1.353 . S
C660 N663 1.314 . S
C660 H666 0.930 . S
C661 N663 1.279 . S
C661 C664 1.358 . S
C661 H667 0.930 . S
C662 C660 1.353 . S
C662 C665 1.348 . S
C662 H700 0.929 . S
N663 Li618 1.990 . S
N663 C660 1.314 . S
N663 C661 1.279 . S
C664 C661 1.358 . S
C664 C665 1.356 . S
C664 H701 0.930 . S
C665 C662 1.348 . S
C665 C664 1.356 . S
H666 C660 0.930 . S
H667 C661 0.930 . S
C668 N669 1.314 . S
C668 C670 1.353 . S
C668 H674 0.930 . S
N669 Li619 1.990 . S
N669 C668 1.314 . S
N669 C672 1.279 . S
C670 C668 1.353 . S
C670 C673 1.348 . S
C670 H702 0.929 . S
C671 C672 1.358 . S
C671 C673 1.356 . S
C671 H703 0.930 . S
C672 N669 1.279 . S
C672 C671 1.358 . S
C672 H675 0.930 . S
C673 C670 1.348 . S
C673 C671 1.356 . S
H674 C668 0.930 . S
H675 C672 0.930 . S
O676 Li616 1.956 . S
O676 Li617 1.970 . S
O676 Li618 1.961 . S
O676 C620 1.325 . S
O677 Li616 1.970 . S
O677 Li617 1.956 . S
O677 Li619 1.961 . S
O677 C626 1.325 . S
O678 Li616 1.961 . S
O678 Li618 1.956 . S
O678 Li619 1.970 . S
O678 C648 1.325 . S
O679 Li617 1.961 . S
O679 Li618 1.970 . S
O679 Li619 1.956 . S
O679 C654 1.325 . S
H680 C622 0.929 . S
H681 C623 0.930 . S
H682 C624 0.930 . S
H683 C625 0.930 . S
H684 C627 0.930 . S
H685 C629 0.929 . S
H686 C630 0.930 . S
H687 C631 0.930 . S
H688 C634 0.930 . S
H689 C637 0.929 . S
H690 C642 0.929 . S
H691 C643 0.930 . S
H692 C650 0.929 . S
H693 C651 0.930 . S
H694 C652 0.930 . S
H695 C653 0.930 . S
H696 C655 0.929 . S
H697 C656 0.930 . S
H698 C657 0.930 . S
H699 C658 0.930 . S
H700 C662 0.929 . S
H701 C664 0.930 . S
H702 C670 0.929 . S
H703 C671 0.930 . S
Li704 N721 1.990 . S
Li704 O764 1.956 . S
Li704 O765 1.970 . S
Li704 O766 1.961 . S
Li705 N729 1.990 1_565 S
Li705 O764 1.970 . S
Li705 O765 1.956 . S
Li705 O767 1.961 . S
Li706 N751 1.990 . S
Li706 O764 1.961 . S
Li706 O766 1.956 . S
Li706 O767 1.970 . S
Li707 N757 1.990 . S
Li707 O765 1.961 . S
Li707 O766 1.970 . S
Li707 O767 1.956 . S
C708 C710 1.348 . S
C708 C711 1.356 . S
C708 O764 1.325 . S
N709 C712 1.314 . S
N709 C713 1.279 . S
C710 C708 1.348 . S
C710 C712 1.353 . S
C710 H768 0.929 1_565 S
C711 C708 1.356 . S
C711 C713 1.358 . S
C711 H769 0.930 . S
C712 N709 1.314 . S
C712 C710 1.353 . S
C712 H770 0.930 1_565 S
C713 N709 1.279 . S
C713 C711 1.358 . S
C713 H771 0.930 . S
C714 C717 1.348 . S
C714 C718 1.356 . S
C714 O765 1.325 1_545 S
C715 N716 1.279 . S
C715 C718 1.358 . S
C715 H772 0.930 . S
N716 C715 1.279 . S
N716 C719 1.314 . S
C717 C714 1.348 . S
C717 C719 1.353 . S
C717 H773 0.929 . S
C718 C714 1.356 . S
C718 C715 1.358 . S
C718 H774 0.930 . S
C719 N716 1.314 . S
C719 C717 1.353 . S
C719 H775 0.930 . S
C720 N721 1.314 . S
C720 C725 1.353 . S
C720 H726 0.930 . S
N721 Li704 1.990 . S
N721 C720 1.314 . S
N721 C723 1.279 . S
C722 C723 1.358 . S
C722 C724 1.356 . S
C722 H776 0.930 . S
C723 N721 1.279 . S
C723 C722 1.358 . S
C723 H727 0.930 . S
C724 C722 1.356 . S
C724 C725 1.348 . S
C725 C720 1.353 . S
C725 C724 1.348 . S
C725 H777 0.929 . S
H726 C720 0.930 . S
H727 C723 0.930 . S
C728 N729 1.314 . S
C728 C730 1.353 . S
C728 H734 0.930 1_545 S
N729 Li705 1.990 1_545 S
N729 C728 1.314 . S
N729 C732 1.279 . S
C730 C728 1.353 . S
C730 C733 1.348 . S
C730 H778 0.929 . S
C731 C732 1.358 . S
C731 C733 1.356 . S
C731 H779 0.930 . S
C732 N729 1.279 . S
C732 C731 1.358 . S
C732 H735 0.930 . S
C733 C730 1.348 . S
C733 C731 1.356 . S
H734 C728 0.930 1_565 S
H735 C732 0.930 . S
C736 C738 1.348 . S
C736 C739 1.356 . S
C736 O766 1.325 . S
N737 C740 1.314 . S
N737 C741 1.279 . S
C738 C736 1.348 . S
C738 C740 1.353 . S
C738 H780 0.929 . S
C739 C736 1.356 . S
C739 C741 1.358 . S
C739 H781 0.930 . S
C740 N737 1.314 . S
C740 C738 1.353 . S
C740 H782 0.930 . S
C741 N737 1.279 . S
C741 C739 1.358 . S
C741 H783 0.930 . S
C742 C743 1.348 . S
C742 C744 1.356 . S
C742 O767 1.325 . S
C743 C742 1.348 . S
C743 C745 1.353 . S
C743 H784 0.929 . S
C744 C742 1.356 . S
C744 C746 1.358 . S
C744 H785 0.930 . S
C745 C743 1.353 . S
C745 N747 1.314 . S
C745 H786 0.930 . S
C746 C744 1.358 . S
C746 N747 1.279 . S
C746 H787 0.930 . S
N747 C745 1.314 . S
N747 C746 1.279 . S
C748 C750 1.353 . S
C748 N751 1.314 . S
C748 H754 0.930 . S
C749 N751 1.279 . S
C749 C752 1.358 . S
C749 H755 0.930 . S
C750 C748 1.353 . S
C750 C753 1.348 . S
C750 H788 0.929 . S
N751 Li706 1.990 . S
N751 C748 1.314 . S
N751 C749 1.279 . S
C752 C749 1.358 . S
C752 C753 1.356 . S
C752 H789 0.930 . S
C753 C750 1.348 . S
C753 C752 1.356 . S
H754 C748 0.930 . S
H755 C749 0.930 . S
C756 N757 1.314 . S
C756 C758 1.353 . S
C756 H762 0.930 . S
N757 Li707 1.990 . S
N757 C756 1.314 . S
N757 C760 1.279 . S
C758 C756 1.353 . S
C758 C761 1.348 . S
C758 H790 0.929 . S
C759 C760 1.358 . S
C759 C761 1.356 . S
C759 H791 0.930 . S
C760 N757 1.279 . S
C760 C759 1.358 . S
C760 H763 0.930 . S
C761 C758 1.348 . S
C761 C759 1.356 . S
H762 C756 0.930 . S
H763 C760 0.930 . S
O764 Li704 1.956 . S
O764 Li705 1.970 . S
O764 Li706 1.961 . S
O764 C708 1.325 . S
O765 Li704 1.970 . S
O765 Li705 1.956 . S
O765 Li707 1.961 . S
O765 C714 1.325 1_565 S
O766 Li704 1.961 . S
O766 Li706 1.956 . S
O766 Li707 1.970 . S
O766 C736 1.325 . S
O767 Li705 1.961 . S
O767 Li706 1.970 . S
O767 Li707 1.956 . S
O767 C742 1.325 . S
H768 C710 0.929 1_545 S
H769 C711 0.930 . S
H770 C712 0.930 1_545 S
H771 C713 0.930 . S
H772 C715 0.930 . S
H773 C717 0.929 . S
H774 C718 0.930 . S
H775 C719 0.930 . S
H776 C722 0.930 . S
H777 C725 0.929 . S
H778 C730 0.929 . S
H779 C731 0.930 . S
H780 C738 0.929 . S
H781 C739 0.930 . S
H782 C740 0.930 . S
H783 C741 0.930 . S
H784 C743 0.929 . S
H785 C744 0.930 . S
H786 C745 0.930 . S
H787 C746 0.930 . S
H788 C750 0.929 . S
H789 C752 0.930 . S
H790 C758 0.929 . S
H791 C759 0.930 . S
Li792 N809 1.990 . S
Li792 O852 1.956 . S
Li792 O853 1.970 . S
Li792 O854 1.961 . S
Li793 N817 1.990 . S
Li793 O852 1.970 . S
Li793 O853 1.956 . S
Li793 O855 1.961 . S
Li794 N839 1.990 . S
Li794 O852 1.961 . S
Li794 O854 1.956 . S
Li794 O855 1.970 . S
Li795 N845 1.990 . S
Li795 O853 1.961 . S
Li795 O854 1.970 . S
Li795 O855 1.956 . S
C796 C798 1.348 . S
C796 C799 1.356 . S
C796 O852 1.325 . S
N797 C800 1.314 . S
N797 C801 1.279 . S
C798 C796 1.348 . S
C798 C800 1.353 . S
C798 H856 0.929 . S
C799 C796 1.356 . S
C799 C801 1.358 . S
C799 H857 0.930 . S
C800 N797 1.314 . S
C800 C798 1.353 . S
C800 H858 0.930 . S
C801 N797 1.279 . S
C801 C799 1.358 . S
C801 H859 0.930 . S
C802 C805 1.348 . S
C802 C806 1.356 . S
C802 O853 1.325 . S
C803 N804 1.279 . S
C803 C806 1.358 . S
C803 H860 0.930 . S
N804 C803 1.279 . S
N804 C807 1.314 . S
C805 C802 1.348 . S
C805 C807 1.353 . S
C805 H861 0.929 . S
C806 C802 1.356 . S
C806 C803 1.358 . S
C806 H862 0.930 . S
C807 N804 1.314 . S
C807 C805 1.353 . S
C807 H863 0.930 . S
C808 N809 1.314 . S
C808 C813 1.353 . S
C808 H814 0.930 . S
N809 Li792 1.990 . S
N809 C808 1.314 . S
N809 C811 1.279 . S
C810 C811 1.358 . S
C810 C812 1.356 . S
C810 H864 0.930 . S
C811 N809 1.279 . S
C811 C810 1.358 . S
C811 H815 0.930 . S
C812 C810 1.356 . S
C812 C813 1.348 . S
C813 C808 1.353 . S
C813 C812 1.348 . S
C813 H865 0.929 . S
H814 C808 0.930 . S
H815 C811 0.930 . S
C816 N817 1.314 . S
C816 C818 1.353 . S
C816 H822 0.930 . S
N817 Li793 1.990 . S
N817 C816 1.314 . S
N817 C820 1.279 . S
C818 C816 1.353 . S
C818 C821 1.348 . S
C818 H866 0.929 . S
C819 C820 1.358 . S
C819 C821 1.356 . S
C819 H867 0.930 . S
C820 N817 1.279 . S
C820 C819 1.358 . S
C820 H823 0.930 . S
C821 C818 1.348 . S
C821 C819 1.356 . S
H822 C816 0.930 . S
H823 C820 0.930 . S
C824 C826 1.348 . S
C824 C827 1.356 . S
C824 O854 1.325 . S
N825 C828 1.314 . S
N825 C829 1.279 . S
C826 C824 1.348 . S
C826 C828 1.353 . S
C826 H868 0.929 . S
C827 C824 1.356 . S
C827 C829 1.358 . S
C827 H869 0.930 . S
C828 N825 1.314 . S
C828 C826 1.353 . S
C828 H870 0.930 . S
C829 N825 1.279 . S
C829 C827 1.358 . S
C829 H871 0.930 . S
C830 C831 1.348 . S
C830 C832 1.356 . S
C830 O855 1.325 . S
C831 C830 1.348 . S
C831 C833 1.353 . S
C831 H872 0.929 . S
C832 C830 1.356 . S
C832 C834 1.358 . S
C832 H873 0.930 . S
C833 C831 1.353 . S
C833 N835 1.314 . S
C833 H874 0.930 . S
C834 C832 1.358 . S
C834 N835 1.279 . S
C834 H875 0.930 . S
N835 C833 1.314 . S
N835 C834 1.279 . S
C836 C838 1.353 . S
C836 N839 1.314 . S
C836 H842 0.930 . S
C837 N839 1.279 . S
C837 C840 1.358 . S
C837 H843 0.930 . S
C838 C836 1.353 . S
C838 C841 1.348 . S
C838 H876 0.929 . S
N839 Li794 1.990 . S
N839 C836 1.314 . S
N839 C837 1.279 . S
C840 C837 1.358 . S
C840 C841 1.356 . S
C840 H877 0.930 . S
C841 C838 1.348 . S
C841 C840 1.356 . S
H842 C836 0.930 . S
H843 C837 0.930 . S
C844 N845 1.314 . S
C844 C846 1.353 . S
C844 H850 0.930 . S
N845 Li795 1.990 . S
N845 C844 1.314 . S
N845 C848 1.279 . S
C846 C844 1.353 . S
C846 C849 1.348 . S
C846 H878 0.929 . S
C847 C848 1.358 . S
C847 C849 1.356 . S
C847 H879 0.930 . S
C848 N845 1.279 . S
C848 C847 1.358 . S
C848 H851 0.930 . S
C849 C846 1.348 . S
C849 C847 1.356 . S
H850 C844 0.930 . S
H851 C848 0.930 . S
O852 Li792 1.956 . S
O852 Li793 1.970 . S
O852 Li794 1.961 . S
O852 C796 1.325 . S
O853 Li792 1.970 . S
O853 Li793 1.956 . S
O853 Li795 1.961 . S
O853 C802 1.325 . S
O854 Li792 1.961 . S
O854 Li794 1.956 . S
O854 Li795 1.970 . S
O854 C824 1.325 . S
O855 Li793 1.961 . S
O855 Li794 1.970 . S
O855 Li795 1.956 . S
O855 C830 1.325 . S
H856 C798 0.929 . S
H857 C799 0.930 . S
H858 C800 0.930 . S
H859 C801 0.930 . S
H860 C803 0.930 . S
H861 C805 0.929 . S
H862 C806 0.930 . S
H863 C807 0.930 . S
H864 C810 0.930 . S
H865 C813 0.929 . S
H866 C818 0.929 . S
H867 C819 0.930 . S
H868 C826 0.929 . S
H869 C827 0.930 . S
H870 C828 0.930 . S
H871 C829 0.930 . S
H872 C831 0.929 . S
H873 C832 0.930 . S
H874 C833 0.930 . S
H875 C834 0.930 . S
H876 C838 0.929 . S
H877 C840 0.930 . S
H878 C846 0.929 . S
H879 C847 0.930 . S
Li880 N897 1.990 . S
Li880 O940 1.956 . S
Li880 O941 1.970 . S
Li880 O942 1.961 . S
Li881 N905 1.990 . S
Li881 O940 1.970 . S
Li881 O941 1.956 . S
Li881 O943 1.961 . S
Li882 N927 1.990 . S
Li882 O940 1.961 . S
Li882 O942 1.956 . S
Li882 O943 1.970 . S
Li883 N933 1.990 1_545 S
Li883 O941 1.961 . S
Li883 O942 1.970 . S
Li883 O943 1.956 . S
C884 C886 1.348 . S
C884 C887 1.356 . S
C884 O940 1.325 . S
N885 C888 1.314 . S
N885 C889 1.279 . S
C886 C884 1.348 . S
C886 C888 1.353 . S
C886 H944 0.929 . S
C887 C884 1.356 . S
C887 C889 1.358 . S
C887 H945 0.930 . S
C888 N885 1.314 . S
C888 C886 1.353 . S
C888 H946 0.930 . S
C889 N885 1.279 . S
C889 C887 1.358 . S
C889 H947 0.930 . S
C890 C893 1.348 . S
C890 C894 1.356 . S
C890 O941 1.325 . S
C891 N892 1.279 . S
C891 C894 1.358 . S
C891 H948 0.930 . S
N892 C891 1.279 . S
N892 C895 1.314 . S
C893 C890 1.348 . S
C893 C895 1.353 . S
C893 H949 0.929 . S
C894 C890 1.356 . S
C894 C891 1.358 . S
C894 H950 0.930 . S
C895 N892 1.314 . S
C895 C893 1.353 . S
C895 H951 0.930 . S
C896 N897 1.314 . S
C896 C901 1.353 . S
C896 H902 0.930 . S
N897 Li880 1.990 . S
N897 C896 1.314 . S
N897 C899 1.279 . S
C898 C899 1.358 . S
C898 C900 1.356 . S
C898 H952 0.930 . S
C899 N897 1.279 . S
C899 C898 1.358 . S
C899 H903 0.930 . S
C900 C898 1.356 . S
C900 C901 1.348 . S
C901 C896 1.353 . S
C901 C900 1.348 . S
C901 H953 0.929 . S
H902 C896 0.930 . S
H903 C899 0.930 . S
C904 N905 1.329 . S
C904 C906 1.335 1_655 S
C904 H910 0.933 . S
N905 Li881 1.990 . S
N905 C904 1.329 . S
N905 C908 1.279 . S
C906 C904 1.335 1_455 S
C906 C909 1.348 . S
C906 H954 0.929 . S
C907 C908 1.358 1_455 S
C907 C909 1.356 . S
C907 H955 0.930 . S
C908 N905 1.279 . S
C908 C907 1.358 1_655 S
C908 H911 0.930 . S
C909 C906 1.348 . S
C909 C907 1.356 . S
H910 C904 0.933 . S
H911 C908 0.930 . S
C912 C914 1.348 . S
C912 C915 1.356 . S
C912 O942 1.325 . S
N913 C916 1.314 . S
N913 C917 1.279 . S
C914 C912 1.348 . S
C914 C916 1.353 . S
C914 H956 0.929 1_545 S
C915 C912 1.356 . S
C915 C917 1.358 . S
C915 H957 0.930 . S
C916 N913 1.314 . S
C916 C914 1.353 . S
C916 H958 0.930 1_545 S
C917 N913 1.279 . S
C917 C915 1.358 . S
C917 H959 0.930 . S
C918 C919 1.348 . S
C918 C920 1.356 . S
C918 O943 1.325 1_565 S
C919 C918 1.348 . S
C919 C921 1.353 . S
C919 H960 0.929 . S
C920 C918 1.356 . S
C920 C922 1.358 . S
C920 H961 0.930 . S
C921 C919 1.353 . S
C921 N923 1.314 . S
C921 H962 0.930 . S
C922 C920 1.358 . S
C922 N923 1.279 . S
C922 H963 0.930 . S
N923 C921 1.314 . S
N923 C922 1.279 . S
C924 C926 1.353 . S
C924 N927 1.314 . S
C924 H930 0.930 . S
C925 N927 1.279 . S
C925 C928 1.358 . S
C925 H931 0.930 . S
C926 C924 1.353 . S
C926 C929 1.348 . S
C926 H964 0.929 . S
N927 Li882 1.990 . S
N927 C924 1.314 . S
N927 C925 1.279 . S
C928 C925 1.358 . S
C928 C929 1.356 . S
C928 H965 0.930 . S
C929 C926 1.348 . S
C929 C928 1.356 . S
H930 C924 0.930 . S
H931 C925 0.930 . S
C932 N933 1.314 . S
C932 C934 1.353 . S
C932 H938 0.930 1_565 S
N933 Li883 1.990 1_565 S
N933 C932 1.314 . S
N933 C936 1.279 . S
C934 C932 1.353 . S
C934 C937 1.348 . S
C934 H966 0.929 . S
C935 C936 1.358 . S
C935 C937 1.356 . S
C935 H967 0.930 . S
C936 N933 1.279 . S
C936 C935 1.358 . S
C936 H939 0.930 . S
C937 C934 1.348 . S
C937 C935 1.356 . S
H938 C932 0.930 1_545 S
H939 C936 0.930 . S
O940 Li880 1.956 . S
O940 Li881 1.970 . S
O940 Li882 1.961 . S
O940 C884 1.325 . S
O941 Li880 1.970 . S
O941 Li881 1.956 . S
O941 Li883 1.961 . S
O941 C890 1.325 . S
O942 Li880 1.961 . S
O942 Li882 1.956 . S
O942 Li883 1.970 . S
O942 C912 1.325 . S
O943 Li881 1.961 . S
O943 Li882 1.970 . S
O943 Li883 1.956 . S
O943 C918 1.325 1_545 S
H944 C886 0.929 . S
H945 C887 0.930 . S
H946 C888 0.930 . S
H947 C889 0.930 . S
H948 C891 0.930 . S
H949 C893 0.929 . S
H950 C894 0.930 . S
H951 C895 0.930 . S
H952 C898 0.930 . S
H953 C901 0.929 . S
H954 C906 0.929 . S
H955 C907 0.930 . S
H956 C914 0.929 1_565 S
H957 C915 0.930 . S
H958 C916 0.930 1_565 S
H959 C917 0.930 . S
H960 C919 0.929 . S
H961 C920 0.930 . S
H962 C921 0.930 . S
H963 C922 0.930 . S
H964 C926 0.929 . S
H965 C928 0.930 . S
H966 C934 0.929 . S
H967 C935 0.930 . S
Li968 N985 1.990 . S
Li968 O1028 1.956 . S
Li968 O1029 1.970 . S
Li968 O1030 1.961 . S
Li969 N993 1.990 . S
Li969 O1028 1.970 . S
Li969 O1029 1.956 . S
Li969 O1031 1.961 . S
Li970 N1015 1.990 . S
Li970 O1028 1.961 . S
Li970 O1030 1.956 . S
Li970 O1031 1.970 . S
Li971 N1021 1.990 . S
Li971 O1029 1.961 . S
Li971 O1030 1.970 . S
Li971 O1031 1.956 . S
C972 C974 1.348 . S
C972 C975 1.356 . S
C972 O1028 1.325 . S
N973 C976 1.314 . S
N973 C977 1.279 . S
C974 C972 1.348 . S
C974 C976 1.353 . S
C974 H1032 0.929 . S
C975 C972 1.356 . S
C975 C977 1.358 . S
C975 H1033 0.930 . S
C976 N973 1.314 . S
C976 C974 1.353 . S
C976 H1034 0.930 . S
C977 N973 1.279 . S
C977 C975 1.358 . S
C977 H1035 0.930 . S
C978 C981 1.348 . S
C978 C982 1.356 . S
C978 O1029 1.325 . S
C979 N980 1.279 . S
C979 C982 1.358 . S
C979 H1036 0.930 . S
N980 C979 1.279 . S
N980 C983 1.314 . S
C981 C978 1.348 . S
C981 C983 1.353 . S
C981 H1037 0.929 . S
C982 C978 1.356 . S
C982 C979 1.358 . S
C982 H1038 0.930 . S
C983 N980 1.314 . S
C983 C981 1.353 . S
C983 H1039 0.930 . S
C984 N985 1.314 . S
C984 C989 1.353 . S
C984 H990 0.930 . S
N985 Li968 1.990 . S
N985 C984 1.314 . S
N985 C987 1.279 . S
C986 C987 1.358 . S
C986 C988 1.356 . S
C986 H1040 0.930 . S
C987 N985 1.279 . S
C987 C986 1.358 . S
C987 H991 0.930 . S
C988 C986 1.356 . S
C988 C989 1.348 . S
C989 C984 1.353 . S
C989 C988 1.348 . S
C989 H1041 0.929 . S
H990 C984 0.930 . S
H991 C987 0.930 . S
C992 N993 1.314 . S
C992 C994 1.353 . S
C992 H998 0.930 . S
N993 Li969 1.990 . S
N993 C992 1.314 . S
N993 C996 1.279 . S
C994 C992 1.353 . S
C994 C997 1.348 . S
C994 H1042 0.929 . S
C995 C996 1.358 . S
C995 C997 1.356 . S
C995 H1043 0.930 . S
C996 N993 1.279 . S
C996 C995 1.358 . S
C996 H999 0.930 . S
C997 C994 1.348 . S
C997 C995 1.356 . S
H998 C992 0.930 . S
H999 C996 0.930 . S
C1000 C1002 1.348 . S
C1000 C1003 1.356 . S
C1000 O1030 1.325 . S
N1001 C1004 1.314 . S
N1001 C1005 1.279 . S
C1002 C1000 1.348 . S
C1002 C1004 1.353 . S
C1002 H1044 0.929 . S
C1003 C1000 1.356 . S
C1003 C1005 1.358 . S
C1003 H1045 0.930 . S
C1004 N1001 1.314 . S
C1004 C1002 1.353 . S
C1004 H1046 0.930 . S
C1005 N1001 1.279 . S
C1005 C1003 1.358 . S
C1005 H1047 0.930 . S
C1006 C1007 1.348 . S
C1006 C1008 1.356 . S
C1006 O1031 1.325 . S
C1007 C1006 1.348 . S
C1007 C1009 1.353 . S
C1007 H1048 0.929 . S
C1008 C1006 1.356 . S
C1008 C1010 1.358 . S
C1008 H1049 0.930 . S
C1009 C1007 1.353 . S
C1009 N1011 1.314 . S
C1009 H1050 0.930 . S
C1010 C1008 1.358 . S
C1010 N1011 1.279 . S
C1010 H1051 0.930 . S
N1011 C1009 1.314 . S
N1011 C1010 1.279 . S
C1012 C1014 1.353 . S
C1012 N1015 1.314 . S
C1012 H1018 0.930 . S
C1013 N1015 1.279 . S
C1013 C1016 1.358 . S
C1013 H1019 0.930 . S
C1014 C1012 1.353 . S
C1014 C1017 1.348 . S
C1014 H1052 0.929 . S
N1015 Li970 1.990 . S
N1015 C1012 1.314 . S
N1015 C1013 1.279 . S
C1016 C1013 1.358 . S
C1016 C1017 1.356 . S
C1016 H1053 0.930 . S
C1017 C1014 1.348 . S
C1017 C1016 1.356 . S
H1018 C1012 0.930 . S
H1019 C1013 0.930 . S
C1020 N1021 1.314 . S
C1020 C1022 1.353 . S
C1020 H1026 0.930 . S
N1021 Li971 1.990 . S
N1021 C1020 1.314 . S
N1021 C1024 1.279 . S
C1022 C1020 1.353 . S
C1022 C1025 1.348 . S
C1022 H1054 0.929 . S
C1023 C1024 1.358 . S
C1023 C1025 1.356 . S
C1023 H1055 0.930 . S
C1024 N1021 1.279 . S
C1024 C1023 1.358 . S
C1024 H1027 0.930 . S
C1025 C1022 1.348 . S
C1025 C1023 1.356 . S
H1026 C1020 0.930 . S
H1027 C1024 0.930 . S
O1028 Li968 1.956 . S
O1028 Li969 1.970 . S
O1028 Li970 1.961 . S
O1028 C972 1.325 . S
O1029 Li968 1.970 . S
O1029 Li969 1.956 . S
O1029 Li971 1.961 . S
O1029 C978 1.325 . S
O1030 Li968 1.961 . S
O1030 Li970 1.956 . S
O1030 Li971 1.970 . S
O1030 C1000 1.325 . S
O1031 Li969 1.961 . S
O1031 Li970 1.970 . S
O1031 Li971 1.956 . S
O1031 C1006 1.325 . S
H1032 C974 0.929 . S
H1033 C975 0.930 . S
H1034 C976 0.930 . S
H1035 C977 0.930 . S
H1036 C979 0.930 . S
H1037 C981 0.929 . S
H1038 C982 0.930 . S
H1039 C983 0.930 . S
H1040 C986 0.930 . S
H1041 C989 0.929 . S
H1042 C994 0.929 . S
H1043 C995 0.930 . S
H1044 C1002 0.929 . S
H1045 C1003 0.930 . S
H1046 C1004 0.930 . S
H1047 C1005 0.930 . S
H1048 C1007 0.929 . S
H1049 C1008 0.930 . S
H1050 C1009 0.930 . S
H1051 C1010 0.930 . S
H1052 C1014 0.929 . S
H1053 C1016 0.930 . S
H1054 C1022 0.929 . S
H1055 C1023 0.930 . S
Li1056 N1073 1.990 . S
Li1056 O1116 1.956 . S
Li1056 O1117 1.970 . S
Li1056 O1118 1.961 . S
Li1057 N1081 1.990 . S
Li1057 O1116 1.970 . S
Li1057 O1117 1.956 . S
Li1057 O1119 1.961 . S
Li1058 N1103 1.990 1_545 S
Li1058 O1116 1.961 . S
Li1058 O1118 1.956 . S
Li1058 O1119 1.970 . S
Li1059 N1109 1.990 . S
Li1059 O1117 1.961 . S
Li1059 O1118 1.970 . S
Li1059 O1119 1.956 . S
C1060 C1062 1.348 . S
C1060 C1063 1.356 . S
C1060 O1116 1.325 . S
N1061 C1064 1.314 . S
N1061 C1065 1.279 . S
C1062 C1060 1.348 . S
C1062 C1064 1.353 . S
C1062 H1120 0.929 . S
C1063 C1060 1.356 . S
C1063 C1065 1.358 . S
C1063 H1121 0.930 . S
C1064 N1061 1.314 . S
C1064 C1062 1.353 . S
C1064 H1122 0.930 . S
C1065 N1061 1.279 . S
C1065 C1063 1.358 . S
C1065 H1123 0.930 . S
C1066 C1069 1.348 . S
C1066 C1070 1.356 . S
C1066 O1117 1.325 . S
C1067 N1068 1.279 . S
C1067 C1070 1.358 . S
C1067 H1124 0.930 . S
N1068 C1067 1.279 . S
N1068 C1071 1.314 . S
C1069 C1066 1.348 . S
C1069 C1071 1.353 . S
C1069 H1125 0.929 . S
C1070 C1066 1.356 . S
C1070 C1067 1.358 . S
C1070 H1126 0.930 . S
C1071 N1068 1.314 . S
C1071 C1069 1.353 . S
C1071 H1127 0.930 . S
C1072 N1073 1.314 . S
C1072 C1077 1.353 . S
C1072 H1078 0.930 . S
N1073 Li1056 1.990 . S
N1073 C1072 1.314 . S
N1073 C1075 1.279 . S
C1074 C1075 1.358 . S
C1074 C1076 1.356 . S
C1074 H1128 0.930 . S
C1075 N1073 1.279 . S
C1075 C1074 1.358 . S
C1075 H1079 0.930 . S
C1076 C1074 1.356 . S
C1076 C1077 1.348 . S
C1077 C1072 1.353 . S
C1077 C1076 1.348 . S
C1077 H1129 0.929 . S
H1078 C1072 0.930 . S
H1079 C1075 0.930 . S
C1080 N1081 1.314 . S
C1080 C1082 1.353 . S
C1080 H1086 0.930 . S
N1081 Li1057 1.990 . S
N1081 C1080 1.314 . S
N1081 C1084 1.279 . S
C1082 C1080 1.353 . S
C1082 C1085 1.348 . S
C1082 H1130 0.929 . S
C1083 C1084 1.358 . S
C1083 C1085 1.356 . S
C1083 H1131 0.930 . S
C1084 N1081 1.279 . S
C1084 C1083 1.358 . S
C1084 H1087 0.930 . S
C1085 C1082 1.348 . S
C1085 C1083 1.356 . S
H1086 C1080 0.930 . S
H1087 C1084 0.930 . S
C1088 C1090 1.348 . S
C1088 C1091 1.356 . S
C1088 O1118 1.325 1_565 S
N1089 C1092 1.314 . S
N1089 C1093 1.279 . S
C1090 C1088 1.348 . S
C1090 C1092 1.353 . S
C1090 H1132 0.929 . S
C1091 C1088 1.356 . S
C1091 C1093 1.358 . S
C1091 H1133 0.930 . S
C1092 N1089 1.314 . S
C1092 C1090 1.353 . S
C1092 H1134 0.930 . S
C1093 N1089 1.279 . S
C1093 C1091 1.358 . S
C1093 H1135 0.930 . S
C1094 C1095 1.348 . S
C1094 C1096 1.356 . S
C1094 O1119 1.325 . S
C1095 C1094 1.348 . S
C1095 C1097 1.353 . S
C1095 H1136 0.929 1_545 S
C1096 C1094 1.356 . S
C1096 C1098 1.358 . S
C1096 H1137 0.930 . S
C1097 C1095 1.353 . S
C1097 N1099 1.314 . S
C1097 H1138 0.930 1_545 S
C1098 C1096 1.358 . S
C1098 N1099 1.279 . S
C1098 H1139 0.930 . S
N1099 C1097 1.314 . S
N1099 C1098 1.279 . S
C1100 C1102 1.353 . S
C1100 N1103 1.314 . S
C1100 H1106 0.930 1_565 S
C1101 N1103 1.279 . S
C1101 C1104 1.358 . S
C1101 H1107 0.930 . S
C1102 C1100 1.353 . S
C1102 C1105 1.348 . S
C1102 H1140 0.929 . S
N1103 Li1058 1.990 1_565 S
N1103 C1100 1.314 . S
N1103 C1101 1.279 . S
C1104 C1101 1.358 . S
C1104 C1105 1.356 . S
C1104 H1141 0.930 . S
C1105 C1102 1.348 . S
C1105 C1104 1.356 . S
H1106 C1100 0.930 1_545 S
H1107 C1101 0.930 . S
C1108 N1109 1.314 . S
C1108 C1110 1.353 . S
C1108 H1114 0.930 . S
N1109 Li1059 1.990 . S
N1109 C1108 1.314 . S
N1109 C1112 1.279 . S
C1110 C1108 1.353 . S
C1110 C1113 1.348 . S
C1110 H1142 0.929 . S
C1111 C1112 1.358 . S
C1111 C1113 1.356 . S
C1111 H1143 0.930 . S
C1112 N1109 1.279 . S
C1112 C1111 1.358 . S
C1112 H1115 0.930 . S
C1113 C1110 1.348 . S
C1113 C1111 1.356 . S
H1114 C1108 0.930 . S
H1115 C1112 0.930 . S
O1116 Li1056 1.956 . S
O1116 Li1057 1.970 . S
O1116 Li1058 1.961 . S
O1116 C1060 1.325 . S
O1117 Li1056 1.970 . S
O1117 Li1057 1.956 . S
O1117 Li1059 1.961 . S
O1117 C1066 1.325 . S
O1118 Li1056 1.961 . S
O1118 Li1058 1.956 . S
O1118 Li1059 1.970 . S
O1118 C1088 1.325 1_545 S
O1119 Li1057 1.961 . S
O1119 Li1058 1.970 . S
O1119 Li1059 1.956 . S
O1119 C1094 1.325 . S
H1120 C1062 0.929 . S
H1121 C1063 0.930 . S
H1122 C1064 0.930 . S
H1123 C1065 0.930 . S
H1124 C1067 0.930 . S
H1125 C1069 0.929 . S
H1126 C1070 0.930 . S
H1127 C1071 0.930 . S
H1128 C1074 0.930 . S
H1129 C1077 0.929 . S
H1130 C1082 0.929 . S
H1131 C1083 0.930 . S
H1132 C1090 0.929 . S
H1133 C1091 0.930 . S
H1134 C1092 0.930 . S
H1135 C1093 0.930 . S
H1136 C1095 0.929 1_565 S
H1137 C1096 0.930 . S
H1138 C1097 0.930 1_565 S
H1139 C1098 0.930 . S
H1140 C1102 0.929 . S
H1141 C1104 0.930 . S
H1142 C1110 0.929 . S
H1143 C1111 0.930 . S
Li1144 N1161 1.990 . S
Li1144 O1204 1.956 . S
Li1144 O1205 1.970 . S
Li1144 O1206 1.961 . S
Li1145 N1169 1.990 . S
Li1145 O1204 1.970 . S
Li1145 O1205 1.956 . S
Li1145 O1207 1.961 . S
Li1146 N1191 1.990 . S
Li1146 O1204 1.961 . S
Li1146 O1206 1.956 . S
Li1146 O1207 1.970 . S
Li1147 N1197 1.990 . S
Li1147 O1205 1.961 . S
Li1147 O1206 1.970 . S
Li1147 O1207 1.956 . S
C1148 C1150 1.348 . S
C1148 C1151 1.356 . S
C1148 O1204 1.325 . S
N1149 C1152 1.314 . S
N1149 C1153 1.279 . S
C1150 C1148 1.348 . S
C1150 C1152 1.353 . S
C1150 H1208 0.929 . S
C1151 C1148 1.356 . S
C1151 C1153 1.358 . S
C1151 H1209 0.930 . S
C1152 N1149 1.314 . S
C1152 C1150 1.353 . S
C1152 H1210 0.930 . S
C1153 N1149 1.279 . S
C1153 C1151 1.358 . S
C1153 H1211 0.930 . S
C1154 C1157 1.348 . S
C1154 C1158 1.356 . S
C1154 O1205 1.325 . S
C1155 N1156 1.279 . S
C1155 C1158 1.358 . S
C1155 H1212 0.930 . S
N1156 C1155 1.279 . S
N1156 C1159 1.314 . S
C1157 C1154 1.348 . S
C1157 C1159 1.353 . S
C1157 H1213 0.929 . S
C1158 C1154 1.356 . S
C1158 C1155 1.358 . S
C1158 H1214 0.930 . S
C1159 N1156 1.314 . S
C1159 C1157 1.353 . S
C1159 H1215 0.930 . S
C1160 N1161 1.314 . S
C1160 C1165 1.353 . S
C1160 H1166 0.930 . S
N1161 Li1144 1.990 . S
N1161 C1160 1.314 . S
N1161 C1163 1.279 . S
C1162 C1163 1.358 . S
C1162 C1164 1.356 . S
C1162 H1216 0.930 . S
C1163 N1161 1.279 . S
C1163 C1162 1.358 . S
C1163 H1167 0.930 . S
C1164 C1162 1.356 . S
C1164 C1165 1.348 . S
C1165 C1160 1.353 . S
C1165 C1164 1.348 . S
C1165 H1217 0.929 . S
H1166 C1160 0.930 . S
H1167 C1163 0.930 . S
C1168 N1169 1.314 . S
C1168 C1170 1.353 . S
C1168 H1174 0.930 . S
N1169 Li1145 1.990 . S
N1169 C1168 1.314 . S
N1169 C1172 1.279 . S
C1170 C1168 1.353 . S
C1170 C1173 1.348 . S
C1170 H1218 0.929 . S
C1171 C1172 1.358 . S
C1171 C1173 1.356 . S
C1171 H1219 0.930 . S
C1172 N1169 1.279 . S
C1172 C1171 1.358 . S
C1172 H1175 0.930 . S
C1173 C1170 1.348 . S
C1173 C1171 1.356 . S
H1174 C1168 0.930 . S
H1175 C1172 0.930 . S
C1176 C1178 1.348 . S
C1176 C1179 1.356 . S
C1176 O1206 1.325 . S
N1177 C1180 1.314 . S
N1177 C1181 1.279 . S
C1178 C1176 1.348 . S
C1178 C1180 1.353 . S
C1178 H1220 0.929 . S
C1179 C1176 1.356 . S
C1179 C1181 1.358 . S
C1179 H1221 0.930 . S
C1180 N1177 1.314 . S
C1180 C1178 1.353 . S
C1180 H1222 0.930 . S
C1181 N1177 1.279 . S
C1181 C1179 1.358 . S
C1181 H1223 0.930 . S
C1182 C1183 1.348 . S
C1182 C1184 1.356 . S
C1182 O1207 1.325 . S
C1183 C1182 1.348 . S
C1183 C1185 1.353 . S
C1183 H1224 0.929 . S
C1184 C1182 1.356 . S
C1184 C1186 1.358 . S
C1184 H1225 0.930 . S
C1185 C1183 1.353 . S
C1185 N1187 1.314 . S
C1185 H1226 0.930 . S
C1186 C1184 1.358 . S
C1186 N1187 1.279 . S
C1186 H1227 0.930 . S
N1187 C1185 1.314 . S
N1187 C1186 1.279 . S
C1188 C1190 1.353 . S
C1188 N1191 1.314 . S
C1188 H1194 0.930 . S
C1189 N1191 1.279 . S
C1189 C1192 1.358 . S
C1189 H1195 0.930 . S
C1190 C1188 1.353 . S
C1190 C1193 1.348 . S
C1190 H1228 0.929 . S
N1191 Li1146 1.990 . S
N1191 C1188 1.314 . S
N1191 C1189 1.279 . S
C1192 C1189 1.358 . S
C1192 C1193 1.356 . S
C1192 H1229 0.930 . S
C1193 C1190 1.348 . S
C1193 C1192 1.356 . S
H1194 C1188 0.930 . S
H1195 C1189 0.930 . S
C1196 N1197 1.314 . S
C1196 C1198 1.353 . S
C1196 H1202 0.930 . S
N1197 Li1147 1.990 . S
N1197 C1196 1.314 . S
N1197 C1200 1.279 . S
C1198 C1196 1.353 . S
C1198 C1201 1.348 . S
C1198 H1230 0.929 . S
C1199 C1200 1.358 . S
C1199 C1201 1.356 . S
C1199 H1231 0.930 . S
C1200 N1197 1.279 . S
C1200 C1199 1.358 . S
C1200 H1203 0.930 . S
C1201 C1198 1.348 . S
C1201 C1199 1.356 . S
H1202 C1196 0.930 . S
H1203 C1200 0.930 . S
O1204 Li1144 1.956 . S
O1204 Li1145 1.970 . S
O1204 Li1146 1.961 . S
O1204 C1148 1.325 . S
O1205 Li1144 1.970 . S
O1205 Li1145 1.956 . S
O1205 Li1147 1.961 . S
O1205 C1154 1.325 . S
O1206 Li1144 1.961 . S
O1206 Li1146 1.956 . S
O1206 Li1147 1.970 . S
O1206 C1176 1.325 . S
O1207 Li1145 1.961 . S
O1207 Li1146 1.970 . S
O1207 Li1147 1.956 . S
O1207 C1182 1.325 . S
H1208 C1150 0.929 . S
H1209 C1151 0.930 . S
H1210 C1152 0.930 . S
H1211 C1153 0.930 . S
H1212 C1155 0.930 . S
H1213 C1157 0.929 . S
H1214 C1158 0.930 . S
H1215 C1159 0.930 . S
H1216 C1162 0.930 . S
H1217 C1165 0.929 . S
H1218 C1170 0.929 . S
H1219 C1171 0.930 . S
H1220 C1178 0.929 . S
H1221 C1179 0.930 . S
H1222 C1180 0.930 . S
H1223 C1181 0.930 . S
H1224 C1183 0.929 . S
H1225 C1184 0.930 . S
H1226 C1185 0.930 . S
H1227 C1186 0.930 . S
H1228 C1190 0.929 . S
H1229 C1192 0.930 . S
H1230 C1198 0.929 . S
H1231 C1199 0.930 . S
Li1232 N1249 1.990 1_565 S
Li1232 O1292 1.956 . S
Li1232 O1293 1.970 . S
Li1232 O1294 1.961 . S
Li1233 N1257 1.990 . S
Li1233 O1292 1.970 . S
Li1233 O1293 1.956 . S
Li1233 O1295 1.961 . S
Li1234 N1279 1.990 . S
Li1234 O1292 1.961 . S
Li1234 O1294 1.956 . S
Li1234 O1295 1.970 . S
Li1235 N1285 1.990 . S
Li1235 O1293 1.961 . S
Li1235 O1294 1.970 . S
Li1235 O1295 1.956 . S
C1236 C1238 1.348 . S
C1236 C1239 1.356 . S
C1236 O1292 1.325 1_545 S
N1237 C1240 1.314 . S
N1237 C1241 1.279 . S
C1238 C1236 1.348 . S
C1238 C1240 1.353 . S
C1238 H1296 0.929 . S
C1239 C1236 1.356 . S
C1239 C1241 1.358 . S
C1239 H1297 0.930 . S
C1240 N1237 1.314 . S
C1240 C1238 1.353 . S
C1240 H1298 0.930 . S
C1241 N1237 1.279 . S
C1241 C1239 1.358 . S
C1241 H1299 0.930 . S
C1242 C1245 1.348 . S
C1242 C1246 1.356 . S
C1242 O1293 1.325 . S
C1243 N1244 1.279 . S
C1243 C1246 1.358 . S
C1243 H1300 0.930 . S
N1244 C1243 1.279 . S
N1244 C1247 1.314 . S
C1245 C1242 1.348 . S
C1245 C1247 1.353 . S
C1245 H1301 0.929 1_565 S
C1246 C1242 1.356 . S
C1246 C1243 1.358 . S
C1246 H1302 0.930 . S
C1247 N1244 1.314 . S
C1247 C1245 1.353 . S
C1247 H1303 0.930 1_565 S
C1248 N1249 1.314 . S
C1248 C1253 1.353 . S
C1248 H1254 0.930 1_545 S
N1249 Li1232 1.990 1_545 S
N1249 C1248 1.314 . S
N1249 C1251 1.279 . S
C1250 C1251 1.358 . S
C1250 C1252 1.356 . S
C1250 H1304 0.930 . S
C1251 N1249 1.279 . S
C1251 C1250 1.358 . S
C1251 H1255 0.930 . S
C1252 C1250 1.356 . S
C1252 C1253 1.348 . S
C1253 C1248 1.353 . S
C1253 C1252 1.348 . S
C1253 H1305 0.929 . S
H1254 C1248 0.930 1_565 S
H1255 C1251 0.930 . S
C1256 N1257 1.314 . S
C1256 C1258 1.353 . S
C1256 H1262 0.930 . S
N1257 Li1233 1.990 . S
N1257 C1256 1.314 . S
N1257 C1260 1.279 . S
C1258 C1256 1.353 . S
C1258 C1261 1.348 . S
C1258 H1306 0.929 . S
C1259 C1260 1.358 . S
C1259 C1261 1.356 . S
C1259 H1307 0.930 . S
C1260 N1257 1.279 . S
C1260 C1259 1.358 . S
C1260 H1263 0.930 . S
C1261 C1258 1.348 . S
C1261 C1259 1.356 . S
H1262 C1256 0.930 . S
H1263 C1260 0.930 . S
C1264 C1266 1.348 . S
C1264 C1267 1.356 . S
C1264 O1294 1.325 . S
N1265 C1268 1.314 . S
N1265 C1269 1.279 . S
C1266 C1264 1.348 . S
C1266 C1268 1.353 . S
C1266 H1308 0.929 . S
C1267 C1264 1.356 . S
C1267 C1269 1.358 . S
C1267 H1309 0.930 . S
C1268 N1265 1.314 . S
C1268 C1266 1.353 . S
C1268 H1310 0.930 . S
C1269 N1265 1.279 . S
C1269 C1267 1.358 . S
C1269 H1311 0.930 . S
C1270 C1271 1.348 . S
C1270 C1272 1.356 . S
C1270 O1295 1.325 . S
C1271 C1270 1.348 . S
C1271 C1273 1.353 . S
C1271 H1312 0.929 . S
C1272 C1270 1.356 . S
C1272 C1274 1.358 . S
C1272 H1313 0.930 . S
C1273 C1271 1.353 . S
C1273 N1275 1.314 . S
C1273 H1314 0.930 . S
C1274 C1272 1.358 . S
C1274 N1275 1.279 . S
C1274 H1315 0.930 . S
N1275 C1273 1.314 . S
N1275 C1274 1.279 . S
C1276 C1278 1.335 1_655 S
C1276 N1279 1.329 . S
C1276 H1282 0.933 . S
C1277 N1279 1.279 . S
C1277 C1280 1.358 1_655 S
C1277 H1283 0.930 . S
C1278 C1276 1.335 1_455 S
C1278 C1281 1.348 . S
C1278 H1316 0.929 . S
N1279 Li1234 1.990 . S
N1279 C1276 1.329 . S
N1279 C1277 1.279 . S
C1280 C1277 1.358 1_455 S
C1280 C1281 1.356 . S
C1280 H1317 0.930 . S
C1281 C1278 1.348 . S
C1281 C1280 1.356 . S
H1282 C1276 0.933 . S
H1283 C1277 0.930 . S
C1284 N1285 1.314 . S
C1284 C1286 1.353 . S
C1284 H1290 0.930 . S
N1285 Li1235 1.990 . S
N1285 C1284 1.314 . S
N1285 C1288 1.279 . S
C1286 C1284 1.353 . S
C1286 C1289 1.348 . S
C1286 H1318 0.929 . S
C1287 C1288 1.358 . S
C1287 C1289 1.356 . S
C1287 H1319 0.930 . S
C1288 N1285 1.279 . S
C1288 C1287 1.358 . S
C1288 H1291 0.930 . S
C1289 C1286 1.348 . S
C1289 C1287 1.356 . S
H1290 C1284 0.930 . S
H1291 C1288 0.930 . S
O1292 Li1232 1.956 . S
O1292 Li1233 1.970 . S
O1292 Li1234 1.961 . S
O1292 C1236 1.325 1_565 S
O1293 Li1232 1.970 . S
O1293 Li1233 1.956 . S
O1293 Li1235 1.961 . S
O1293 C1242 1.325 . S
O1294 Li1232 1.961 . S
O1294 Li1234 1.956 . S
O1294 Li1235 1.970 . S
O1294 C1264 1.325 . S
O1295 Li1233 1.961 . S
O1295 Li1234 1.970 . S
O1295 Li1235 1.956 . S
O1295 C1270 1.325 . S
H1296 C1238 0.929 . S
H1297 C1239 0.930 . S
H1298 C1240 0.930 . S
H1299 C1241 0.930 . S
H1300 C1243 0.930 . S
H1301 C1245 0.929 1_545 S
H1302 C1246 0.930 . S
H1303 C1247 0.930 1_545 S
H1304 C1250 0.930 . S
H1305 C1253 0.929 . S
H1306 C1258 0.929 . S
H1307 C1259 0.930 . S
H1308 C1266 0.929 . S
H1309 C1267 0.930 . S
H1310 C1268 0.930 . S
H1311 C1269 0.930 . S
H1312 C1271 0.929 . S
H1313 C1272 0.930 . S
H1314 C1273 0.930 . S
H1315 C1274 0.930 . S
H1316 C1278 0.929 . S
H1317 C1280 0.930 . S
H1318 C1286 0.929 . S
H1319 C1287 0.930 . S
Li1320 N1337 1.990 . S
Li1320 O1380 1.956 . S
Li1320 O1381 1.970 . S
Li1320 O1382 1.961 . S
Li1321 N1345 1.990 . S
Li1321 O1380 1.970 . S
Li1321 O1381 1.956 . S
Li1321 O1383 1.961 . S
Li1322 N1367 1.990 . S
Li1322 O1380 1.961 . S
Li1322 O1382 1.956 . S
Li1322 O1383 1.970 . S
Li1323 N1373 1.990 . S
Li1323 O1381 1.961 . S
Li1323 O1382 1.970 . S
Li1323 O1383 1.956 . S
C1324 C1326 1.348 . S
C1324 C1327 1.356 . S
C1324 O1380 1.325 . S
N1325 C1328 1.314 . S
N1325 C1329 1.279 . S
C1326 C1324 1.348 . S
C1326 C1328 1.353 . S
C1326 H1384 0.929 . S
C1327 C1324 1.356 . S
C1327 C1329 1.358 . S
C1327 H1385 0.930 . S
C1328 N1325 1.314 . S
C1328 C1326 1.353 . S
C1328 H1386 0.930 . S
C1329 N1325 1.279 . S
C1329 C1327 1.358 . S
C1329 H1387 0.930 . S
C1330 C1333 1.348 . S
C1330 C1334 1.356 . S
C1330 O1381 1.325 . S
C1331 N1332 1.279 . S
C1331 C1334 1.358 . S
C1331 H1388 0.930 . S
N1332 C1331 1.279 . S
N1332 C1335 1.314 . S
C1333 C1330 1.348 . S
C1333 C1335 1.353 . S
C1333 H1389 0.929 . S
C1334 C1330 1.356 . S
C1334 C1331 1.358 . S
C1334 H1390 0.930 . S
C1335 N1332 1.314 . S
C1335 C1333 1.353 . S
C1335 H1391 0.930 . S
C1336 N1337 1.314 . S
C1336 C1341 1.353 . S
C1336 H1342 0.930 . S
N1337 Li1320 1.990 . S
N1337 C1336 1.314 . S
N1337 C1339 1.279 . S
C1338 C1339 1.358 . S
C1338 C1340 1.356 . S
C1338 H1392 0.930 . S
C1339 N1337 1.279 . S
C1339 C1338 1.358 . S
C1339 H1343 0.930 . S
C1340 C1338 1.356 . S
C1340 C1341 1.348 . S
C1341 C1336 1.353 . S
C1341 C1340 1.348 . S
C1341 H1393 0.929 . S
H1342 C1336 0.930 . S
H1343 C1339 0.930 . S
C1344 N1345 1.314 . S
C1344 C1346 1.353 . S
C1344 H1350 0.930 . S
N1345 Li1321 1.990 . S
N1345 C1344 1.314 . S
N1345 C1348 1.279 . S
C1346 C1344 1.353 . S
C1346 C1349 1.348 . S
C1346 H1394 0.929 . S
C1347 C1348 1.358 . S
C1347 C1349 1.356 . S
C1347 H1395 0.930 . S
C1348 N1345 1.279 . S
C1348 C1347 1.358 . S
C1348 H1351 0.930 . S
C1349 C1346 1.348 . S
C1349 C1347 1.356 . S
H1350 C1344 0.930 . S
H1351 C1348 0.930 . S
C1352 C1354 1.348 . S
C1352 C1355 1.356 . S
C1352 O1382 1.325 . S
N1353 C1356 1.314 . S
N1353 C1357 1.279 . S
C1354 C1352 1.348 . S
C1354 C1356 1.353 . S
C1354 H1396 0.929 . S
C1355 C1352 1.356 . S
C1355 C1357 1.358 . S
C1355 H1397 0.930 . S
C1356 N1353 1.314 . S
C1356 C1354 1.353 . S
C1356 H1398 0.930 . S
C1357 N1353 1.279 . S
C1357 C1355 1.358 . S
C1357 H1399 0.930 . S
C1358 C1359 1.348 . S
C1358 C1360 1.356 . S
C1358 O1383 1.325 . S
C1359 C1358 1.348 . S
C1359 C1361 1.353 . S
C1359 H1400 0.929 . S
C1360 C1358 1.356 . S
C1360 C1362 1.358 . S
C1360 H1401 0.930 . S
C1361 C1359 1.353 . S
C1361 N1363 1.314 . S
C1361 H1402 0.930 . S
C1362 C1360 1.358 . S
C1362 N1363 1.279 . S
C1362 H1403 0.930 . S
N1363 C1361 1.314 . S
N1363 C1362 1.279 . S
C1364 C1366 1.353 . S
C1364 N1367 1.314 . S
C1364 H1370 0.930 . S
C1365 N1367 1.279 . S
C1365 C1368 1.358 . S
C1365 H1371 0.930 . S
C1366 C1364 1.353 . S
C1366 C1369 1.348 . S
C1366 H1404 0.929 . S
N1367 Li1322 1.990 . S
N1367 C1364 1.314 . S
N1367 C1365 1.279 . S
C1368 C1365 1.358 . S
C1368 C1369 1.356 . S
C1368 H1405 0.930 . S
C1369 C1366 1.348 . S
C1369 C1368 1.356 . S
H1370 C1364 0.930 . S
H1371 C1365 0.930 . S
C1372 N1373 1.314 . S
C1372 C1374 1.353 . S
C1372 H1378 0.930 . S
N1373 Li1323 1.990 . S
N1373 C1372 1.314 . S
N1373 C1376 1.279 . S
C1374 C1372 1.353 . S
C1374 C1377 1.348 . S
C1374 H1406 0.929 . S
C1375 C1376 1.358 . S
C1375 C1377 1.356 . S
C1375 H1407 0.930 . S
C1376 N1373 1.279 . S
C1376 C1375 1.358 . S
C1376 H1379 0.930 . S
C1377 C1374 1.348 . S
C1377 C1375 1.356 . S
H1378 C1372 0.930 . S
H1379 C1376 0.930 . S
O1380 Li1320 1.956 . S
O1380 Li1321 1.970 . S
O1380 Li1322 1.961 . S
O1380 C1324 1.325 . S
O1381 Li1320 1.970 . S
O1381 Li1321 1.956 . S
O1381 Li1323 1.961 . S
O1381 C1330 1.325 . S
O1382 Li1320 1.961 . S
O1382 Li1322 1.956 . S
O1382 Li1323 1.970 . S
O1382 C1352 1.325 . S
O1383 Li1321 1.961 . S
O1383 Li1322 1.970 . S
O1383 Li1323 1.956 . S
O1383 C1358 1.325 . S
H1384 C1326 0.929 . S
H1385 C1327 0.930 . S
H1386 C1328 0.930 . S
H1387 C1329 0.930 . S
H1388 C1331 0.930 . S
H1389 C1333 0.929 . S
H1390 C1334 0.930 . S
H1391 C1335 0.930 . S
H1392 C1338 0.930 . S
H1393 C1341 0.929 . S
H1394 C1346 0.929 . S
H1395 C1347 0.930 . S
H1396 C1354 0.929 . S
H1397 C1355 0.930 . S
H1398 C1356 0.930 . S
H1399 C1357 0.930 . S
H1400 C1359 0.929 . S
H1401 C1360 0.930 . S
H1402 C1361 0.930 . S
H1403 C1362 0.930 . S
H1404 C1366 0.929 . S
H1405 C1368 0.930 . S
H1406 C1374 0.929 . S
H1407 C1375 0.930 . S
Li1408 N1425 1.990 . S
Li1408 O1468 1.956 . S
Li1408 O1469 1.970 . S
Li1408 O1470 1.961 . S
Li1409 N1433 1.990 . S
Li1409 O1468 1.970 . S
Li1409 O1469 1.956 . S
Li1409 O1471 1.961 . S
Li1410 N1455 1.990 . S
Li1410 O1468 1.961 . S
Li1410 O1470 1.956 . S
Li1410 O1471 1.970 . S
Li1411 N1461 1.990 . S
Li1411 O1469 1.961 . S
Li1411 O1470 1.970 . S
Li1411 O1471 1.956 . S
C1412 C1414 1.348 . S
C1412 C1415 1.356 . S
C1412 O1468 1.325 . S
N1413 C1416 1.314 . S
N1413 C1417 1.279 . S
C1414 C1412 1.348 . S
C1414 C1416 1.353 . S
C1414 H1472 0.929 . S
C1415 C1412 1.356 . S
C1415 C1417 1.358 . S
C1415 H1473 0.930 . S
C1416 N1413 1.314 . S
C1416 C1414 1.353 . S
C1416 H1474 0.930 . S
C1417 N1413 1.279 . S
C1417 C1415 1.358 . S
C1417 H1475 0.930 . S
C1418 C1421 1.348 . S
C1418 C1422 1.356 . S
C1418 O1469 1.325 . S
C1419 N1420 1.279 . S
C1419 C1422 1.358 . S
C1419 H1476 0.930 . S
N1420 C1419 1.279 . S
N1420 C1423 1.314 . S
C1421 C1418 1.348 . S
C1421 C1423 1.353 . S
C1421 H1477 0.929 . S
C1422 C1418 1.356 . S
C1422 C1419 1.358 . S
C1422 H1478 0.930 . S
C1423 N1420 1.314 . S
C1423 C1421 1.353 . S
C1423 H1479 0.930 . S
C1424 N1425 1.314 . S
C1424 C1429 1.353 . S
C1424 H1430 0.930 . S
N1425 Li1408 1.990 . S
N1425 C1424 1.314 . S
N1425 C1427 1.279 . S
C1426 C1427 1.358 . S
C1426 C1428 1.356 . S
C1426 H1480 0.930 . S
C1427 N1425 1.279 . S
C1427 C1426 1.358 . S
C1427 H1431 0.930 . S
C1428 C1426 1.356 . S
C1428 C1429 1.348 . S
C1429 C1424 1.353 . S
C1429 C1428 1.348 . S
C1429 H1481 0.929 . S
H1430 C1424 0.930 . S
H1431 C1427 0.930 . S
C1432 N1433 1.314 . S
C1432 C1434 1.353 1_655 S
C1432 H1438 0.930 . S
N1433 Li1409 1.990 . S
N1433 C1432 1.314 . S
N1433 C1436 1.279 . S
C1434 C1432 1.353 1_455 S
C1434 C1437 1.348 . S
C1434 H1482 0.929 . S
C1435 C1436 1.358 1_455 S
C1435 C1437 1.356 . S
C1435 H1483 0.930 . S
C1436 N1433 1.279 . S
C1436 C1435 1.358 1_655 S
C1436 H1439 0.930 . S
C1437 C1434 1.348 . S
C1437 C1435 1.356 . S
H1438 C1432 0.930 . S
H1439 C1436 0.930 . S
C1440 C1442 1.348 . S
C1440 C1443 1.356 . S
C1440 O1470 1.325 . S
N1441 C1444 1.314 . S
N1441 C1445 1.279 . S
C1442 C1440 1.348 . S
C1442 C1444 1.353 . S
C1442 H1484 0.929 . S
C1443 C1440 1.356 . S
C1443 C1445 1.358 . S
C1443 H1485 0.930 . S
C1444 N1441 1.314 . S
C1444 C1442 1.353 . S
C1444 H1486 0.930 . S
C1445 N1441 1.279 . S
C1445 C1443 1.358 . S
C1445 H1487 0.930 . S
C1446 C1447 1.348 . S
C1446 C1448 1.356 . S
C1446 O1471 1.325 . S
C1447 C1446 1.348 . S
C1447 C1449 1.353 . S
C1447 H1488 0.929 . S
C1448 C1446 1.356 . S
C1448 C1450 1.358 . S
C1448 H1489 0.930 . S
C1449 C1447 1.353 . S
C1449 N1451 1.314 . S
C1449 H1490 0.930 . S
C1450 C1448 1.358 . S
C1450 N1451 1.279 . S
C1450 H1491 0.930 . S
N1451 C1449 1.314 . S
N1451 C1450 1.279 . S
C1452 C1454 1.353 . S
C1452 N1455 1.314 . S
C1452 H1458 0.930 . S
C1453 N1455 1.279 . S
C1453 C1456 1.358 . S
C1453 H1459 0.930 . S
C1454 C1452 1.353 . S
C1454 C1457 1.348 . S
C1454 H1492 0.929 . S
N1455 Li1410 1.990 . S
N1455 C1452 1.314 . S
N1455 C1453 1.279 . S
C1456 C1453 1.358 . S
C1456 C1457 1.356 . S
C1456 H1493 0.930 . S
C1457 C1454 1.348 . S
C1457 C1456 1.356 . S
H1458 C1452 0.930 . S
H1459 C1453 0.930 . S
C1460 N1461 1.314 . S
C1460 C1462 1.353 . S
C1460 H1466 0.930 . S
N1461 Li1411 1.990 . S
N1461 C1460 1.314 . S
N1461 C1464 1.279 . S
C1462 C1460 1.353 . S
C1462 C1465 1.348 . S
C1462 H1494 0.929 . S
C1463 C1464 1.358 . S
C1463 C1465 1.356 . S
C1463 H1495 0.930 . S
C1464 N1461 1.279 . S
C1464 C1463 1.358 . S
C1464 H1467 0.930 . S
C1465 C1462 1.348 . S
C1465 C1463 1.356 . S
H1466 C1460 0.930 . S
H1467 C1464 0.930 . S
O1468 Li1408 1.956 . S
O1468 Li1409 1.970 . S
O1468 Li1410 1.961 . S
O1468 C1412 1.325 . S
O1469 Li1408 1.970 . S
O1469 Li1409 1.956 . S
O1469 Li1411 1.961 . S
O1469 C1418 1.325 . S
O1470 Li1408 1.961 . S
O1470 Li1410 1.956 . S
O1470 Li1411 1.970 . S
O1470 C1440 1.325 . S
O1471 Li1409 1.961 . S
O1471 Li1410 1.970 . S
O1471 Li1411 1.956 . S
O1471 C1446 1.325 . S
H1472 C1414 0.929 . S
H1473 C1415 0.930 . S
H1474 C1416 0.930 . S
H1475 C1417 0.930 . S
H1476 C1419 0.930 . S
H1477 C1421 0.929 . S
H1478 C1422 0.930 . S
H1479 C1423 0.930 . S
H1480 C1426 0.930 . S
H1481 C1429 0.929 . S
H1482 C1434 0.929 . S
H1483 C1435 0.930 . S
H1484 C1442 0.929 . S
H1485 C1443 0.930 . S
H1486 C1444 0.930 . S
H1487 C1445 0.930 . S
H1488 C1447 0.929 . S
H1489 C1448 0.930 . S
H1490 C1449 0.930 . S
H1491 C1450 0.930 . S
H1492 C1454 0.929 . S
H1493 C1456 0.930 . S
H1494 C1462 0.929 . S
H1495 C1463 0.930 . S
Li1496 N1513 1.990 . S
Li1496 O1556 1.956 . S
Li1496 O1557 1.970 . S
Li1496 O1558 1.961 . S
Li1497 N1521 1.990 . S
Li1497 O1556 1.970 . S
Li1497 O1557 1.956 . S
Li1497 O1559 1.961 . S
Li1498 N1543 1.990 . S
Li1498 O1556 1.961 . S
Li1498 O1558 1.956 . S
Li1498 O1559 1.970 . S
Li1499 N1549 1.990 . S
Li1499 O1557 1.961 . S
Li1499 O1558 1.970 . S
Li1499 O1559 1.956 . S
C1500 C1502 1.348 . S
C1500 C1503 1.356 . S
C1500 O1556 1.325 . S
N1501 C1504 1.314 . S
N1501 C1505 1.279 . S
C1502 C1500 1.348 . S
C1502 C1504 1.353 . S
C1502 H1560 0.929 . S
C1503 C1500 1.356 . S
C1503 C1505 1.358 . S
C1503 H1561 0.930 . S
C1504 N1501 1.314 . S
C1504 C1502 1.353 . S
C1504 H1562 0.930 . S
C1505 N1501 1.279 . S
C1505 C1503 1.358 . S
C1505 H1563 0.930 . S
C1506 C1509 1.348 . S
C1506 C1510 1.356 . S
C1506 O1557 1.325 . S
C1507 N1508 1.279 . S
C1507 C1510 1.358 . S
C1507 H1564 0.930 . S
N1508 C1507 1.279 . S
N1508 C1511 1.314 . S
C1509 C1506 1.348 . S
C1509 C1511 1.353 . S
C1509 H1565 0.929 . S
C1510 C1506 1.356 . S
C1510 C1507 1.358 . S
C1510 H1566 0.930 . S
C1511 N1508 1.314 . S
C1511 C1509 1.353 . S
C1511 H1567 0.930 . S
C1512 N1513 1.314 . S
C1512 C1517 1.353 . S
C1512 H1518 0.930 . S
N1513 Li1496 1.990 . S
N1513 C1512 1.314 . S
N1513 C1515 1.279 . S
C1514 C1515 1.358 . S
C1514 C1516 1.356 . S
C1514 H1568 0.930 . S
C1515 N1513 1.279 . S
C1515 C1514 1.358 . S
C1515 H1519 0.930 . S
C1516 C1514 1.356 . S
C1516 C1517 1.348 . S
C1517 C1512 1.353 . S
C1517 C1516 1.348 . S
C1517 H1569 0.929 . S
H1518 C1512 0.930 . S
H1519 C1515 0.930 . S
C1520 N1521 1.314 . S
C1520 C1522 1.353 . S
C1520 H1526 0.930 . S
N1521 Li1497 1.990 . S
N1521 C1520 1.314 . S
N1521 C1524 1.279 . S
C1522 C1520 1.353 . S
C1522 C1525 1.348 . S
C1522 H1570 0.929 . S
C1523 C1524 1.358 . S
C1523 C1525 1.356 . S
C1523 H1571 0.930 . S
C1524 N1521 1.279 . S
C1524 C1523 1.358 . S
C1524 H1527 0.930 . S
C1525 C1522 1.348 . S
C1525 C1523 1.356 . S
H1526 C1520 0.930 . S
H1527 C1524 0.930 . S
C1528 C1530 1.348 . S
C1528 C1531 1.356 . S
C1528 O1558 1.325 . S
N1529 C1532 1.314 . S
N1529 C1533 1.279 . S
C1530 C1528 1.348 . S
C1530 C1532 1.353 . S
C1530 H1572 0.929 . S
C1531 C1528 1.356 . S
C1531 C1533 1.358 . S
C1531 H1573 0.930 . S
C1532 N1529 1.314 . S
C1532 C1530 1.353 . S
C1532 H1574 0.930 . S
C1533 N1529 1.279 . S
C1533 C1531 1.358 . S
C1533 H1575 0.930 . S
C1534 C1535 1.348 . S
C1534 C1536 1.356 . S
C1534 O1559 1.325 . S
C1535 C1534 1.348 . S
C1535 C1537 1.353 . S
C1535 H1576 0.929 . S
C1536 C1534 1.356 . S
C1536 C1538 1.358 . S
C1536 H1577 0.930 . S
C1537 C1535 1.353 . S
C1537 N1539 1.314 . S
C1537 H1578 0.930 . S
C1538 C1536 1.358 . S
C1538 N1539 1.279 . S
C1538 H1579 0.930 . S
N1539 C1537 1.314 . S
N1539 C1538 1.279 . S
C1540 C1542 1.353 . S
C1540 N1543 1.314 . S
C1540 H1546 0.930 . S
C1541 N1543 1.279 . S
C1541 C1544 1.358 . S
C1541 H1547 0.930 . S
C1542 C1540 1.353 . S
C1542 C1545 1.348 . S
C1542 H1580 0.929 . S
N1543 Li1498 1.990 . S
N1543 C1540 1.314 . S
N1543 C1541 1.279 . S
C1544 C1541 1.358 . S
C1544 C1545 1.356 . S
C1544 H1581 0.930 . S
C1545 C1542 1.348 . S
C1545 C1544 1.356 . S
H1546 C1540 0.930 . S
H1547 C1541 0.930 . S
C1548 N1549 1.314 . S
C1548 C1550 1.353 . S
C1548 H1554 0.930 . S
N1549 Li1499 1.990 . S
N1549 C1548 1.314 . S
N1549 C1552 1.279 . S
C1550 C1548 1.353 . S
C1550 C1553 1.348 . S
C1550 H1582 0.929 . S
C1551 C1552 1.358 . S
C1551 C1553 1.356 . S
C1551 H1583 0.930 . S
C1552 N1549 1.279 . S
C1552 C1551 1.358 . S
C1552 H1555 0.930 . S
C1553 C1550 1.348 . S
C1553 C1551 1.356 . S
H1554 C1548 0.930 . S
H1555 C1552 0.930 . S
O1556 Li1496 1.956 . S
O1556 Li1497 1.970 . S
O1556 Li1498 1.961 . S
O1556 C1500 1.325 . S
O1557 Li1496 1.970 . S
O1557 Li1497 1.956 . S
O1557 Li1499 1.961 . S
O1557 C1506 1.325 . S
O1558 Li1496 1.961 . S
O1558 Li1498 1.956 . S
O1558 Li1499 1.970 . S
O1558 C1528 1.325 . S
O1559 Li1497 1.961 . S
O1559 Li1498 1.970 . S
O1559 Li1499 1.956 . S
O1559 C1534 1.325 . S
H1560 C1502 0.929 . S
H1561 C1503 0.930 . S
H1562 C1504 0.930 . S
H1563 C1505 0.930 . S
H1564 C1507 0.930 . S
H1565 C1509 0.929 . S
H1566 C1510 0.930 . S
H1567 C1511 0.930 . S
H1568 C1514 0.930 . S
H1569 C1517 0.929 . S
H1570 C1522 0.929 . S
H1571 C1523 0.930 . S
H1572 C1530 0.929 . S
H1573 C1531 0.930 . S
H1574 C1532 0.930 . S
H1575 C1533 0.930 . S
H1576 C1535 0.929 . S
H1577 C1536 0.930 . S
H1578 C1537 0.930 . S
H1579 C1538 0.930 . S
H1580 C1542 0.929 . S
H1581 C1544 0.930 . S
H1582 C1550 0.929 . S
H1583 C1551 0.930 . S
Li1584 N1601 1.990 . S
Li1584 O1644 1.956 . S
Li1584 O1645 1.970 . S
Li1584 O1646 1.961 . S
Li1585 N1609 1.990 . S
Li1585 O1644 1.970 . S
Li1585 O1645 1.956 . S
Li1585 O1647 1.961 . S
Li1586 N1631 1.990 . S
Li1586 O1644 1.961 . S
Li1586 O1646 1.956 . S
Li1586 O1647 1.970 . S
Li1587 N1637 1.990 . S
Li1587 O1645 1.961 . S
Li1587 O1646 1.970 . S
Li1587 O1647 1.956 . S
C1588 C1590 1.348 . S
C1588 C1591 1.356 . S
C1588 O1644 1.325 . S
N1589 C1592 1.314 . S
N1589 C1593 1.279 . S
C1590 C1588 1.348 . S
C1590 C1592 1.353 . S
C1590 H1648 0.929 . S
C1591 C1588 1.356 . S
C1591 C1593 1.358 . S
C1591 H1649 0.930 . S
C1592 N1589 1.314 . S
C1592 C1590 1.353 . S
C1592 H1650 0.930 . S
C1593 N1589 1.279 . S
C1593 C1591 1.358 . S
C1593 H1651 0.930 . S
C1594 C1597 1.348 . S
C1594 C1598 1.356 . S
C1594 O1645 1.325 . S
C1595 N1596 1.279 . S
C1595 C1598 1.358 . S
C1595 H1652 0.930 . S
N1596 C1595 1.279 . S
N1596 C1599 1.314 . S
C1597 C1594 1.348 . S
C1597 C1599 1.353 . S
C1597 H1653 0.929 . S
C1598 C1594 1.356 . S
C1598 C1595 1.358 . S
C1598 H1654 0.930 . S
C1599 N1596 1.314 . S
C1599 C1597 1.353 . S
C1599 H1655 0.930 . S
C1600 N1601 1.314 . S
C1600 C1605 1.353 . S
C1600 H1606 0.930 . S
N1601 Li1584 1.990 . S
N1601 C1600 1.314 . S
N1601 C1603 1.279 . S
C1602 C1603 1.358 . S
C1602 C1604 1.356 . S
C1602 H1656 0.930 . S
C1603 N1601 1.279 . S
C1603 C1602 1.358 . S
C1603 H1607 0.930 . S
C1604 C1602 1.356 . S
C1604 C1605 1.348 . S
C1605 C1600 1.353 . S
C1605 C1604 1.348 . S
C1605 H1657 0.929 . S
H1606 C1600 0.930 . S
H1607 C1603 0.930 . S
C1608 N1609 1.314 . S
C1608 C1610 1.353 . S
C1608 H1614 0.930 . S
N1609 Li1585 1.990 . S
N1609 C1608 1.314 . S
N1609 C1612 1.279 . S
C1610 C1608 1.353 . S
C1610 C1613 1.348 . S
C1610 H1658 0.929 . S
C1611 C1612 1.358 . S
C1611 C1613 1.356 . S
C1611 H1659 0.930 . S
C1612 N1609 1.279 . S
C1612 C1611 1.358 . S
C1612 H1615 0.930 . S
C1613 C1610 1.348 . S
C1613 C1611 1.356 . S
H1614 C1608 0.930 . S
H1615 C1612 0.930 . S
C1616 C1618 1.348 . S
C1616 C1619 1.356 . S
C1616 O1646 1.325 . S
N1617 C1620 1.314 . S
N1617 C1621 1.279 . S
C1618 C1616 1.348 . S
C1618 C1620 1.353 . S
C1618 H1660 0.929 . S
C1619 C1616 1.356 . S
C1619 C1621 1.358 . S
C1619 H1661 0.930 . S
C1620 N1617 1.314 . S
C1620 C1618 1.353 . S
C1620 H1662 0.930 . S
C1621 N1617 1.279 . S
C1621 C1619 1.358 . S
C1621 H1663 0.930 . S
C1622 C1623 1.348 . S
C1622 C1624 1.356 . S
C1622 O1647 1.325 . S
C1623 C1622 1.348 . S
C1623 C1625 1.353 . S
C1623 H1664 0.929 . S
C1624 C1622 1.356 . S
C1624 C1626 1.358 . S
C1624 H1665 0.930 . S
C1625 C1623 1.353 . S
C1625 N1627 1.314 . S
C1625 H1666 0.930 . S
C1626 C1624 1.358 . S
C1626 N1627 1.279 . S
C1626 H1667 0.930 . S
N1627 C1625 1.314 . S
N1627 C1626 1.279 . S
C1628 C1630 1.353 . S
C1628 N1631 1.314 . S
C1628 H1634 0.930 . S
C1629 N1631 1.279 . S
C1629 C1632 1.358 . S
C1629 H1635 0.930 . S
C1630 C1628 1.353 . S
C1630 C1633 1.348 . S
C1630 H1668 0.929 . S
N1631 Li1586 1.990 . S
N1631 C1628 1.314 . S
N1631 C1629 1.279 . S
C1632 C1629 1.358 . S
C1632 C1633 1.356 . S
C1632 H1669 0.930 . S
C1633 C1630 1.348 . S
C1633 C1632 1.356 . S
H1634 C1628 0.930 . S
H1635 C1629 0.930 . S
C1636 N1637 1.314 . S
C1636 C1638 1.353 . S
C1636 H1642 0.930 . S
N1637 Li1587 1.990 . S
N1637 C1636 1.314 . S
N1637 C1640 1.279 . S
C1638 C1636 1.353 . S
C1638 C1641 1.348 . S
C1638 H1670 0.929 . S
C1639 C1640 1.358 . S
C1639 C1641 1.356 . S
C1639 H1671 0.930 . S
C1640 N1637 1.279 . S
C1640 C1639 1.358 . S
C1640 H1643 0.930 . S
C1641 C1638 1.348 . S
C1641 C1639 1.356 . S
H1642 C1636 0.930 . S
H1643 C1640 0.930 . S
O1644 Li1584 1.956 . S
O1644 Li1585 1.970 . S
O1644 Li1586 1.961 . S
O1644 C1588 1.325 . S
O1645 Li1584 1.970 . S
O1645 Li1585 1.956 . S
O1645 Li1587 1.961 . S
O1645 C1594 1.325 . S
O1646 Li1584 1.961 . S
O1646 Li1586 1.956 . S
O1646 Li1587 1.970 . S
O1646 C1616 1.325 . S
O1647 Li1585 1.961 . S
O1647 Li1586 1.970 . S
O1647 Li1587 1.956 . S
O1647 C1622 1.325 . S
H1648 C1590 0.929 . S
H1649 C1591 0.930 . S
H1650 C1592 0.930 . S
H1651 C1593 0.930 . S
H1652 C1595 0.930 . S
H1653 C1597 0.929 . S
H1654 C1598 0.930 . S
H1655 C1599 0.930 . S
H1656 C1602 0.930 . S
H1657 C1605 0.929 . S
H1658 C1610 0.929 . S
H1659 C1611 0.930 . S
H1660 C1618 0.929 . S
H1661 C1619 0.930 . S
H1662 C1620 0.930 . S
H1663 C1621 0.930 . S
H1664 C1623 0.929 . S
H1665 C1624 0.930 . S
H1666 C1625 0.930 . S
H1667 C1626 0.930 . S
H1668 C1630 0.929 . S
H1669 C1632 0.930 . S
H1670 C1638 0.929 . S
H1671 C1639 0.930 . S
Li1672 N1689 1.990 . S
Li1672 O1732 1.956 . S
Li1672 O1733 1.970 . S
Li1672 O1734 1.961 . S
Li1673 N1697 1.990 . S
Li1673 O1732 1.970 . S
Li1673 O1733 1.956 . S
Li1673 O1735 1.961 . S
Li1674 N1719 1.990 . S
Li1674 O1732 1.961 . S
Li1674 O1734 1.956 . S
Li1674 O1735 1.970 . S
Li1675 N1725 1.990 . S
Li1675 O1733 1.961 . S
Li1675 O1734 1.970 . S
Li1675 O1735 1.956 . S
C1676 C1678 1.348 . S
C1676 C1679 1.356 . S
C1676 O1732 1.325 . S
N1677 C1680 1.314 . S
N1677 C1681 1.279 . S
C1678 C1676 1.348 . S
C1678 C1680 1.353 . S
C1678 H1736 0.929 . S
C1679 C1676 1.356 . S
C1679 C1681 1.358 . S
C1679 H1737 0.930 . S
C1680 N1677 1.314 . S
C1680 C1678 1.353 . S
C1680 H1738 0.930 . S
C1681 N1677 1.279 . S
C1681 C1679 1.358 . S
C1681 H1739 0.930 . S
C1682 C1685 1.348 . S
C1682 C1686 1.356 . S
C1682 O1733 1.325 . S
C1683 N1684 1.279 . S
C1683 C1686 1.358 . S
C1683 H1740 0.930 . S
N1684 C1683 1.279 . S
N1684 C1687 1.314 . S
C1685 C1682 1.348 . S
C1685 C1687 1.353 . S
C1685 H1741 0.929 . S
C1686 C1682 1.356 . S
C1686 C1683 1.358 . S
C1686 H1742 0.930 . S
C1687 N1684 1.314 . S
C1687 C1685 1.353 . S
C1687 H1743 0.930 . S
C1688 N1689 1.314 . S
C1688 C1693 1.353 . S
C1688 H1694 0.930 . S
N1689 Li1672 1.990 . S
N1689 C1688 1.314 . S
N1689 C1691 1.279 . S
C1690 C1691 1.358 . S
C1690 C1692 1.356 . S
C1690 H1744 0.930 . S
C1691 N1689 1.279 . S
C1691 C1690 1.358 . S
C1691 H1695 0.930 . S
C1692 C1690 1.356 . S
C1692 C1693 1.348 . S
C1693 C1688 1.353 . S
C1693 C1692 1.348 . S
C1693 H1745 0.929 . S
H1694 C1688 0.930 . S
H1695 C1691 0.930 . S
C1696 N1697 1.314 . S
C1696 C1698 1.353 . S
C1696 H1702 0.930 . S
N1697 Li1673 1.990 . S
N1697 C1696 1.314 . S
N1697 C1700 1.279 . S
C1698 C1696 1.353 . S
C1698 C1701 1.348 . S
C1698 H1746 0.929 . S
C1699 C1700 1.358 . S
C1699 C1701 1.356 . S
C1699 H1747 0.930 . S
C1700 N1697 1.279 . S
C1700 C1699 1.358 . S
C1700 H1703 0.930 . S
C1701 C1698 1.348 . S
C1701 C1699 1.356 . S
H1702 C1696 0.930 . S
H1703 C1700 0.930 . S
C1704 C1706 1.348 . S
C1704 C1707 1.356 . S
C1704 O1734 1.325 . S
N1705 C1708 1.314 . S
N1705 C1709 1.279 . S
C1706 C1704 1.348 . S
C1706 C1708 1.353 . S
C1706 H1748 0.929 . S
C1707 C1704 1.356 . S
C1707 C1709 1.358 . S
C1707 H1749 0.930 . S
C1708 N1705 1.314 . S
C1708 C1706 1.353 . S
C1708 H1750 0.930 . S
C1709 N1705 1.279 . S
C1709 C1707 1.358 . S
C1709 H1751 0.930 . S
C1710 C1711 1.348 . S
C1710 C1712 1.356 . S
C1710 O1735 1.325 . S
C1711 C1710 1.348 . S
C1711 C1713 1.353 . S
C1711 H1752 0.929 . S
C1712 C1710 1.356 . S
C1712 C1714 1.358 . S
C1712 H1753 0.930 . S
C1713 C1711 1.353 . S
C1713 N1715 1.314 . S
C1713 H1754 0.930 . S
C1714 C1712 1.358 . S
C1714 N1715 1.279 . S
C1714 H1755 0.930 . S
N1715 C1713 1.314 . S
N1715 C1714 1.279 . S
C1716 C1718 1.353 . S
C1716 N1719 1.314 . S
C1716 H1722 0.930 . S
C1717 N1719 1.279 . S
C1717 C1720 1.358 . S
C1717 H1723 0.930 . S
C1718 C1716 1.353 . S
C1718 C1721 1.348 . S
C1718 H1756 0.929 . S
N1719 Li1674 1.990 . S
N1719 C1716 1.314 . S
N1719 C1717 1.279 . S
C1720 C1717 1.358 . S
C1720 C1721 1.356 . S
C1720 H1757 0.930 . S
C1721 C1718 1.348 . S
C1721 C1720 1.356 . S
H1722 C1716 0.930 . S
H1723 C1717 0.930 . S
C1724 N1725 1.314 . S
C1724 C1726 1.353 . S
C1724 H1730 0.930 . S
N1725 Li1675 1.990 . S
N1725 C1724 1.314 . S
N1725 C1728 1.279 . S
C1726 C1724 1.353 . S
C1726 C1729 1.348 . S
C1726 H1758 0.929 . S
C1727 C1728 1.358 . S
C1727 C1729 1.356 . S
C1727 H1759 0.930 . S
C1728 N1725 1.279 . S
C1728 C1727 1.358 . S
C1728 H1731 0.930 . S
C1729 C1726 1.348 . S
C1729 C1727 1.356 . S
H1730 C1724 0.930 . S
H1731 C1728 0.930 . S
O1732 Li1672 1.956 . S
O1732 Li1673 1.970 . S
O1732 Li1674 1.961 . S
O1732 C1676 1.325 . S
O1733 Li1672 1.970 . S
O1733 Li1673 1.956 . S
O1733 Li1675 1.961 . S
O1733 C1682 1.325 . S
O1734 Li1672 1.961 . S
O1734 Li1674 1.956 . S
O1734 Li1675 1.970 . S
O1734 C1704 1.325 . S
O1735 Li1673 1.961 . S
O1735 Li1674 1.970 . S
O1735 Li1675 1.956 . S
O1735 C1710 1.325 . S
H1736 C1678 0.929 . S
H1737 C1679 0.930 . S
H1738 C1680 0.930 . S
H1739 C1681 0.930 . S
H1740 C1683 0.930 . S
H1741 C1685 0.929 . S
H1742 C1686 0.930 . S
H1743 C1687 0.930 . S
H1744 C1690 0.930 . S
H1745 C1693 0.929 . S
H1746 C1698 0.929 . S
H1747 C1699 0.930 . S
H1748 C1706 0.929 . S
H1749 C1707 0.930 . S
H1750 C1708 0.930 . S
H1751 C1709 0.930 . S
H1752 C1711 0.929 . S
H1753 C1712 0.930 . S
H1754 C1713 0.930 . S
H1755 C1714 0.930 . S
H1756 C1718 0.929 . S
H1757 C1720 0.930 . S
H1758 C1726 0.929 . S
H1759 C1727 0.930 . S
Li1760 N1777 1.990 . S
Li1760 O1820 1.956 . S
Li1760 O1821 1.970 . S
Li1760 O1822 1.961 . S
Li1761 N1785 1.990 . S
Li1761 O1820 1.970 . S
Li1761 O1821 1.956 . S
Li1761 O1823 1.961 . S
Li1762 N1807 1.990 . S
Li1762 O1820 1.961 . S
Li1762 O1822 1.956 . S
Li1762 O1823 1.970 . S
Li1763 N1813 1.990 . S
Li1763 O1821 1.961 . S
Li1763 O1822 1.970 . S
Li1763 O1823 1.956 . S
C1764 C1766 1.348 . S
C1764 C1767 1.356 . S
C1764 O1820 1.325 . S
N1765 C1768 1.314 . S
N1765 C1769 1.279 . S
C1766 C1764 1.348 . S
C1766 C1768 1.353 . S
C1766 H1824 0.929 . S
C1767 C1764 1.356 . S
C1767 C1769 1.358 . S
C1767 H1825 0.930 . S
C1768 N1765 1.314 . S
C1768 C1766 1.353 . S
C1768 H1826 0.930 . S
C1769 N1765 1.279 . S
C1769 C1767 1.358 . S
C1769 H1827 0.930 . S
C1770 C1773 1.348 . S
C1770 C1774 1.356 . S
C1770 O1821 1.325 . S
C1771 N1772 1.279 . S
C1771 C1774 1.358 . S
C1771 H1828 0.930 . S
N1772 C1771 1.279 . S
N1772 C1775 1.314 . S
C1773 C1770 1.348 . S
C1773 C1775 1.353 . S
C1773 H1829 0.929 . S
C1774 C1770 1.356 . S
C1774 C1771 1.358 . S
C1774 H1830 0.930 . S
C1775 N1772 1.314 . S
C1775 C1773 1.353 . S
C1775 H1831 0.930 . S
C1776 N1777 1.314 . S
C1776 C1781 1.353 . S
C1776 H1782 0.930 . S
N1777 Li1760 1.990 . S
N1777 C1776 1.314 . S
N1777 C1779 1.279 . S
C1778 C1779 1.358 . S
C1778 C1780 1.356 . S
C1778 H1832 0.930 . S
C1779 N1777 1.279 . S
C1779 C1778 1.358 . S
C1779 H1783 0.930 . S
C1780 C1778 1.356 . S
C1780 C1781 1.348 . S
C1781 C1776 1.353 . S
C1781 C1780 1.348 . S
C1781 H1833 0.929 . S
H1782 C1776 0.930 . S
H1783 C1779 0.930 . S
C1784 N1785 1.314 . S
C1784 C1786 1.353 . S
C1784 H1790 0.930 . S
N1785 Li1761 1.990 . S
N1785 C1784 1.314 . S
N1785 C1788 1.279 . S
C1786 C1784 1.353 . S
C1786 C1789 1.348 . S
C1786 H1834 0.929 . S
C1787 C1788 1.358 . S
C1787 C1789 1.356 . S
C1787 H1835 0.930 . S
C1788 N1785 1.279 . S
C1788 C1787 1.358 . S
C1788 H1791 0.930 . S
C1789 C1786 1.348 . S
C1789 C1787 1.356 . S
H1790 C1784 0.930 . S
H1791 C1788 0.930 . S
C1792 C1794 1.348 . S
C1792 C1795 1.356 . S
C1792 O1822 1.325 . S
N1793 C1796 1.314 . S
N1793 C1797 1.279 . S
C1794 C1792 1.348 . S
C1794 C1796 1.353 . S
C1794 H1836 0.929 . S
C1795 C1792 1.356 . S
C1795 C1797 1.358 . S
C1795 H1837 0.930 . S
C1796 N1793 1.314 . S
C1796 C1794 1.353 . S
C1796 H1838 0.930 . S
C1797 N1793 1.279 . S
C1797 C1795 1.358 . S
C1797 H1839 0.930 . S
C1798 C1799 1.348 . S
C1798 C1800 1.356 . S
C1798 O1823 1.325 . S
C1799 C1798 1.348 . S
C1799 C1801 1.353 . S
C1799 H1840 0.929 . S
C1800 C1798 1.356 . S
C1800 C1802 1.358 . S
C1800 H1841 0.930 . S
C1801 C1799 1.353 . S
C1801 N1803 1.314 . S
C1801 H1842 0.930 . S
C1802 C1800 1.358 . S
C1802 N1803 1.279 . S
C1802 H1843 0.930 . S
N1803 C1801 1.314 . S
N1803 C1802 1.279 . S
C1804 C1806 1.353 1_655 S
C1804 N1807 1.314 . S
C1804 H1810 0.930 . S
C1805 N1807 1.279 . S
C1805 C1808 1.358 1_655 S
C1805 H1811 0.930 . S
C1806 C1804 1.353 1_455 S
C1806 C1809 1.348 . S
C1806 H1844 0.929 . S
N1807 Li1762 1.990 . S
N1807 C1804 1.314 . S
N1807 C1805 1.279 . S
C1808 C1805 1.358 1_455 S
C1808 C1809 1.356 . S
C1808 H1845 0.930 . S
C1809 C1806 1.348 . S
C1809 C1808 1.356 . S
H1810 C1804 0.930 . S
H1811 C1805 0.930 . S
C1812 N1813 1.314 . S
C1812 C1814 1.353 . S
C1812 H1818 0.930 . S
N1813 Li1763 1.990 . S
N1813 C1812 1.314 . S
N1813 C1816 1.279 . S
C1814 C1812 1.353 . S
C1814 C1817 1.348 . S
C1814 H1846 0.929 . S
C1815 C1816 1.358 . S
C1815 C1817 1.356 . S
C1815 H1847 0.930 . S
C1816 N1813 1.279 . S
C1816 C1815 1.358 . S
C1816 H1819 0.930 . S
C1817 C1814 1.348 . S
C1817 C1815 1.356 . S
H1818 C1812 0.930 . S
H1819 C1816 0.930 . S
O1820 Li1760 1.956 . S
O1820 Li1761 1.970 . S
O1820 Li1762 1.961 . S
O1820 C1764 1.325 . S
O1821 Li1760 1.970 . S
O1821 Li1761 1.956 . S
O1821 Li1763 1.961 . S
O1821 C1770 1.325 . S
O1822 Li1760 1.961 . S
O1822 Li1762 1.956 . S
O1822 Li1763 1.970 . S
O1822 C1792 1.325 . S
O1823 Li1761 1.961 . S
O1823 Li1762 1.970 . S
O1823 Li1763 1.956 . S
O1823 C1798 1.325 . S
H1824 C1766 0.929 . S
H1825 C1767 0.930 . S
H1826 C1768 0.930 . S
H1827 C1769 0.930 . S
H1828 C1771 0.930 . S
H1829 C1773 0.929 . S
H1830 C1774 0.930 . S
H1831 C1775 0.930 . S
H1832 C1778 0.930 . S
H1833 C1781 0.929 . S
H1834 C1786 0.929 . S
H1835 C1787 0.930 . S
H1836 C1794 0.929 . S
H1837 C1795 0.930 . S
H1838 C1796 0.930 . S
H1839 C1797 0.930 . S
H1840 C1799 0.929 . S
H1841 C1800 0.930 . S
H1842 C1801 0.930 . S
H1843 C1802 0.930 . S
H1844 C1806 0.929 . S
H1845 C1808 0.930 . S
H1846 C1814 0.929 . S
H1847 C1815 0.930 . S
Li1848 N1865 1.990 . S
Li1848 O1908 1.956 . S
Li1848 O1909 1.970 . S
Li1848 O1910 1.961 . S
Li1849 N1873 1.990 . S
Li1849 O1908 1.970 . S
Li1849 O1909 1.956 . S
Li1849 O1911 1.961 . S
Li1850 N1895 1.990 . S
Li1850 O1908 1.961 . S
Li1850 O1910 1.956 . S
Li1850 O1911 1.970 . S
Li1851 N1901 1.990 . S
Li1851 O1909 1.961 . S
Li1851 O1910 1.970 . S
Li1851 O1911 1.956 . S
C1852 C1854 1.348 . S
C1852 C1855 1.356 . S
C1852 O1908 1.325 . S
N1853 C1856 1.314 . S
N1853 C1857 1.279 . S
C1854 C1852 1.348 . S
C1854 C1856 1.353 . S
C1854 H1912 0.929 . S
C1855 C1852 1.356 . S
C1855 C1857 1.358 . S
C1855 H1913 0.930 . S
C1856 N1853 1.314 . S
C1856 C1854 1.353 . S
C1856 H1914 0.930 . S
C1857 N1853 1.279 . S
C1857 C1855 1.358 . S
C1857 H1915 0.930 . S
C1858 C1861 1.348 . S
C1858 C1862 1.356 . S
C1858 O1909 1.325 . S
C1859 N1860 1.279 . S
C1859 C1862 1.358 . S
C1859 H1916 0.930 . S
N1860 C1859 1.279 . S
N1860 C1863 1.314 . S
C1861 C1858 1.348 . S
C1861 C1863 1.353 . S
C1861 H1917 0.929 . S
C1862 C1858 1.356 . S
C1862 C1859 1.358 . S
C1862 H1918 0.930 . S
C1863 N1860 1.314 . S
C1863 C1861 1.353 . S
C1863 H1919 0.930 . S
C1864 N1865 1.314 . S
C1864 C1869 1.353 . S
C1864 H1870 0.930 . S
N1865 Li1848 1.990 . S
N1865 C1864 1.314 . S
N1865 C1867 1.279 . S
C1866 C1867 1.358 . S
C1866 C1868 1.356 . S
C1866 H1920 0.930 . S
C1867 N1865 1.279 . S
C1867 C1866 1.358 . S
C1867 H1871 0.930 . S
C1868 C1866 1.356 . S
C1868 C1869 1.348 . S
C1869 C1864 1.353 . S
C1869 C1868 1.348 . S
C1869 H1921 0.929 . S
H1870 C1864 0.930 . S
H1871 C1867 0.930 . S
C1872 N1873 1.314 . S
C1872 C1874 1.353 . S
C1872 H1878 0.930 . S
N1873 Li1849 1.990 . S
N1873 C1872 1.314 . S
N1873 C1876 1.279 . S
C1874 C1872 1.353 . S
C1874 C1877 1.348 . S
C1874 H1922 0.929 . S
C1875 C1876 1.358 . S
C1875 C1877 1.356 . S
C1875 H1923 0.930 . S
C1876 N1873 1.279 . S
C1876 C1875 1.358 . S
C1876 H1879 0.930 . S
C1877 C1874 1.348 . S
C1877 C1875 1.356 . S
H1878 C1872 0.930 . S
H1879 C1876 0.930 . S
C1880 C1882 1.348 . S
C1880 C1883 1.356 . S
C1880 O1910 1.325 . S
N1881 C1884 1.314 . S
N1881 C1885 1.279 . S
C1882 C1880 1.348 . S
C1882 C1884 1.353 . S
C1882 H1924 0.929 . S
C1883 C1880 1.356 . S
C1883 C1885 1.358 . S
C1883 H1925 0.930 . S
C1884 N1881 1.314 . S
C1884 C1882 1.353 . S
C1884 H1926 0.930 . S
C1885 N1881 1.279 . S
C1885 C1883 1.358 . S
C1885 H1927 0.930 . S
C1886 C1887 1.348 . S
C1886 C1888 1.356 . S
C1886 O1911 1.325 . S
C1887 C1886 1.348 . S
C1887 C1889 1.353 . S
C1887 H1928 0.929 . S
C1888 C1886 1.356 . S
C1888 C1890 1.358 . S
C1888 H1929 0.930 . S
C1889 C1887 1.353 . S
C1889 N1891 1.314 . S
C1889 H1930 0.930 . S
C1890 C1888 1.358 . S
C1890 N1891 1.279 . S
C1890 H1931 0.930 . S
N1891 C1889 1.314 . S
N1891 C1890 1.279 . S
C1892 C1894 1.353 . S
C1892 N1895 1.314 . S
C1892 H1898 0.930 . S
C1893 N1895 1.279 . S
C1893 C1896 1.358 . S
C1893 H1899 0.930 . S
C1894 C1892 1.353 . S
C1894 C1897 1.348 . S
C1894 H1932 0.929 . S
N1895 Li1850 1.990 . S
N1895 C1892 1.314 . S
N1895 C1893 1.279 . S
C1896 C1893 1.358 . S
C1896 C1897 1.356 . S
C1896 H1933 0.930 . S
C1897 C1894 1.348 . S
C1897 C1896 1.356 . S
H1898 C1892 0.930 . S
H1899 C1893 0.930 . S
C1900 N1901 1.314 . S
C1900 C1902 1.353 . S
C1900 H1906 0.930 . S
N1901 Li1851 1.990 . S
N1901 C1900 1.314 . S
N1901 C1904 1.279 . S
C1902 C1900 1.353 . S
C1902 C1905 1.348 . S
C1902 H1934 0.929 . S
C1903 C1904 1.358 . S
C1903 C1905 1.356 . S
C1903 H1935 0.930 . S
C1904 N1901 1.279 . S
C1904 C1903 1.358 . S
C1904 H1907 0.930 . S
C1905 C1902 1.348 . S
C1905 C1903 1.356 . S
H1906 C1900 0.930 . S
H1907 C1904 0.930 . S
O1908 Li1848 1.956 . S
O1908 Li1849 1.970 . S
O1908 Li1850 1.961 . S
O1908 C1852 1.325 . S
O1909 Li1848 1.970 . S
O1909 Li1849 1.956 . S
O1909 Li1851 1.961 . S
O1909 C1858 1.325 . S
O1910 Li1848 1.961 . S
O1910 Li1850 1.956 . S
O1910 Li1851 1.970 . S
O1910 C1880 1.325 . S
O1911 Li1849 1.961 . S
O1911 Li1850 1.970 . S
O1911 Li1851 1.956 . S
O1911 C1886 1.325 . S
H1912 C1854 0.929 . S
H1913 C1855 0.930 . S
H1914 C1856 0.930 . S
H1915 C1857 0.930 . S
H1916 C1859 0.930 . S
H1917 C1861 0.929 . S
H1918 C1862 0.930 . S
H1919 C1863 0.930 . S
H1920 C1866 0.930 . S
H1921 C1869 0.929 . S
H1922 C1874 0.929 . S
H1923 C1875 0.930 . S
H1924 C1882 0.929 . S
H1925 C1883 0.930 . S
H1926 C1884 0.930 . S
H1927 C1885 0.930 . S
H1928 C1887 0.929 . S
H1929 C1888 0.930 . S
H1930 C1889 0.930 . S
H1931 C1890 0.930 . S
H1932 C1894 0.929 . S
H1933 C1896 0.930 . S
H1934 C1902 0.929 . S
H1935 C1903 0.930 . S
Li1936 N1953 1.990 . S
Li1936 O1996 1.956 . S
Li1936 O1997 1.970 . S
Li1936 O1998 1.961 . S
Li1937 N1961 1.990 . S
Li1937 O1996 1.970 . S
Li1937 O1997 1.956 . S
Li1937 O1999 1.961 . S
Li1938 N1983 1.990 . S
Li1938 O1996 1.961 . S
Li1938 O1998 1.956 . S
Li1938 O1999 1.970 . S
Li1939 N1989 1.990 . S
Li1939 O1997 1.961 . S
Li1939 O1998 1.970 . S
Li1939 O1999 1.956 . S
C1940 C1942 1.348 . S
C1940 C1943 1.356 . S
C1940 O1996 1.325 . S
N1941 C1944 1.314 . S
N1941 C1945 1.279 . S
C1942 C1940 1.348 . S
C1942 C1944 1.353 . S
C1942 H2000 0.929 . S
C1943 C1940 1.356 . S
C1943 C1945 1.358 . S
C1943 H2001 0.930 . S
C1944 N1941 1.314 . S
C1944 C1942 1.353 . S
C1944 H2002 0.930 . S
C1945 N1941 1.279 . S
C1945 C1943 1.358 . S
C1945 H2003 0.930 . S
C1946 C1949 1.348 . S
C1946 C1950 1.356 . S
C1946 O1997 1.325 . S
C1947 N1948 1.279 . S
C1947 C1950 1.358 . S
C1947 H2004 0.930 . S
N1948 C1947 1.279 . S
N1948 C1951 1.314 . S
C1949 C1946 1.348 . S
C1949 C1951 1.353 . S
C1949 H2005 0.929 . S
C1950 C1946 1.356 . S
C1950 C1947 1.358 . S
C1950 H2006 0.930 . S
C1951 N1948 1.314 . S
C1951 C1949 1.353 . S
C1951 H2007 0.930 . S
C1952 N1953 1.314 . S
C1952 C1957 1.353 . S
C1952 H1958 0.930 . S
N1953 Li1936 1.990 . S
N1953 C1952 1.314 . S
N1953 C1955 1.279 . S
C1954 C1955 1.358 . S
C1954 C1956 1.356 . S
C1954 H2008 0.930 . S
C1955 N1953 1.279 . S
C1955 C1954 1.358 . S
C1955 H1959 0.930 . S
C1956 C1954 1.356 . S
C1956 C1957 1.348 . S
C1957 C1952 1.353 . S
C1957 C1956 1.348 . S
C1957 H2009 0.929 . S
H1958 C1952 0.930 . S
H1959 C1955 0.930 . S
C1960 N1961 1.314 . S
C1960 C1962 1.353 . S
C1960 H1966 0.930 . S
N1961 Li1937 1.990 . S
N1961 C1960 1.314 . S
N1961 C1964 1.279 . S
C1962 C1960 1.353 . S
C1962 C1965 1.348 . S
C1962 H2010 0.929 . S
C1963 C1964 1.358 . S
C1963 C1965 1.356 . S
C1963 H2011 0.930 . S
C1964 N1961 1.279 . S
C1964 C1963 1.358 . S
C1964 H1967 0.930 . S
C1965 C1962 1.348 . S
C1965 C1963 1.356 . S
H1966 C1960 0.930 . S
H1967 C1964 0.930 . S
C1968 C1970 1.348 . S
C1968 C1971 1.356 . S
C1968 O1998 1.325 . S
N1969 C1972 1.314 . S
N1969 C1973 1.279 . S
C1970 C1968 1.348 . S
C1970 C1972 1.353 . S
C1970 H2012 0.929 . S
C1971 C1968 1.356 . S
C1971 C1973 1.358 . S
C1971 H2013 0.930 . S
C1972 N1969 1.314 . S
C1972 C1970 1.353 . S
C1972 H2014 0.930 . S
C1973 N1969 1.279 . S
C1973 C1971 1.358 . S
C1973 H2015 0.930 . S
C1974 C1975 1.348 . S
C1974 C1976 1.356 . S
C1974 O1999 1.325 . S
C1975 C1974 1.348 . S
C1975 C1977 1.353 . S
C1975 H2016 0.929 . S
C1976 C1974 1.356 . S
C1976 C1978 1.358 . S
C1976 H2017 0.930 . S
C1977 C1975 1.353 . S
C1977 N1979 1.314 . S
C1977 H2018 0.930 . S
C1978 C1976 1.358 . S
C1978 N1979 1.279 . S
C1978 H2019 0.930 . S
N1979 C1977 1.314 . S
N1979 C1978 1.279 . S
C1980 C1982 1.353 . S
C1980 N1983 1.314 . S
C1980 H1986 0.930 . S
C1981 N1983 1.279 . S
C1981 C1984 1.358 . S
C1981 H1987 0.930 . S
C1982 C1980 1.353 . S
C1982 C1985 1.348 . S
C1982 H2020 0.929 . S
N1983 Li1938 1.990 . S
N1983 C1980 1.314 . S
N1983 C1981 1.279 . S
C1984 C1981 1.358 . S
C1984 C1985 1.356 . S
C1984 H2021 0.930 . S
C1985 C1982 1.348 . S
C1985 C1984 1.356 . S
H1986 C1980 0.930 . S
H1987 C1981 0.930 . S
C1988 N1989 1.314 . S
C1988 C1990 1.353 . S
C1988 H1994 0.930 . S
N1989 Li1939 1.990 . S
N1989 C1988 1.314 . S
N1989 C1992 1.279 . S
C1990 C1988 1.353 . S
C1990 C1993 1.348 . S
C1990 H2022 0.929 . S
C1991 C1992 1.358 . S
C1991 C1993 1.356 . S
C1991 H2023 0.930 . S
C1992 N1989 1.279 . S
C1992 C1991 1.358 . S
C1992 H1995 0.930 . S
C1993 C1990 1.348 . S
C1993 C1991 1.356 . S
H1994 C1988 0.930 . S
H1995 C1992 0.930 . S
O1996 Li1936 1.956 . S
O1996 Li1937 1.970 . S
O1996 Li1938 1.961 . S
O1996 C1940 1.325 . S
O1997 Li1936 1.970 . S
O1997 Li1937 1.956 . S
O1997 Li1939 1.961 . S
O1997 C1946 1.325 . S
O1998 Li1936 1.961 . S
O1998 Li1938 1.956 . S
O1998 Li1939 1.970 . S
O1998 C1968 1.325 . S
O1999 Li1937 1.961 . S
O1999 Li1938 1.970 . S
O1999 Li1939 1.956 . S
O1999 C1974 1.325 . S
H2000 C1942 0.929 . S
H2001 C1943 0.930 . S
H2002 C1944 0.930 . S
H2003 C1945 0.930 . S
H2004 C1947 0.930 . S
H2005 C1949 0.929 . S
H2006 C1950 0.930 . S
H2007 C1951 0.930 . S
H2008 C1954 0.930 . S
H2009 C1957 0.929 . S
H2010 C1962 0.929 . S
H2011 C1963 0.930 . S
H2012 C1970 0.929 . S
H2013 C1971 0.930 . S
H2014 C1972 0.930 . S
H2015 C1973 0.930 . S
H2016 C1975 0.929 . S
H2017 C1976 0.930 . S
H2018 C1977 0.930 . S
H2019 C1978 0.930 . S
H2020 C1982 0.929 . S
H2021 C1984 0.930 . S
H2022 C1990 0.929 . S
H2023 C1991 0.930 . S
Li2024 N2041 1.990 . S
Li2024 O2084 1.956 . S
Li2024 O2085 1.970 . S
Li2024 O2086 1.961 . S
Li2025 N2049 1.990 . S
Li2025 O2084 1.970 . S
Li2025 O2085 1.956 . S
Li2025 O2087 1.961 . S
Li2026 N2071 1.990 . S
Li2026 O2084 1.961 . S
Li2026 O2086 1.956 . S
Li2026 O2087 1.970 . S
Li2027 N2077 1.990 . S
Li2027 O2085 1.961 . S
Li2027 O2086 1.970 . S
Li2027 O2087 1.956 . S
C2028 C2030 1.348 . S
C2028 C2031 1.356 . S
C2028 O2084 1.325 . S
N2029 C2032 1.314 . S
N2029 C2033 1.279 . S
C2030 C2028 1.348 . S
C2030 C2032 1.353 . S
C2030 H2088 0.929 . S
C2031 C2028 1.356 . S
C2031 C2033 1.358 . S
C2031 H2089 0.930 . S
C2032 N2029 1.314 . S
C2032 C2030 1.353 . S
C2032 H2090 0.930 . S
C2033 N2029 1.279 . S
C2033 C2031 1.358 . S
C2033 H2091 0.930 . S
C2034 C2037 1.348 . S
C2034 C2038 1.356 . S
C2034 O2085 1.325 . S
C2035 N2036 1.279 . S
C2035 C2038 1.358 . S
C2035 H2092 0.930 . S
N2036 C2035 1.279 . S
N2036 C2039 1.314 . S
C2037 C2034 1.348 . S
C2037 C2039 1.353 . S
C2037 H2093 0.929 . S
C2038 C2034 1.356 . S
C2038 C2035 1.358 . S
C2038 H2094 0.930 . S
C2039 N2036 1.314 . S
C2039 C2037 1.353 . S
C2039 H2095 0.930 . S
C2040 N2041 1.314 . S
C2040 C2045 1.353 . S
C2040 H2046 0.930 . S
N2041 Li2024 1.990 . S
N2041 C2040 1.314 . S
N2041 C2043 1.279 . S
C2042 C2043 1.358 . S
C2042 C2044 1.356 . S
C2042 H2096 0.930 . S
C2043 N2041 1.279 . S
C2043 C2042 1.358 . S
C2043 H2047 0.930 . S
C2044 C2042 1.356 . S
C2044 C2045 1.348 . S
C2045 C2040 1.353 . S
C2045 C2044 1.348 . S
C2045 H2097 0.929 . S
H2046 C2040 0.930 . S
H2047 C2043 0.930 . S
C2048 N2049 1.314 . S
C2048 C2050 1.353 . S
C2048 H2054 0.930 . S
N2049 Li2025 1.990 . S
N2049 C2048 1.314 . S
N2049 C2052 1.279 . S
C2050 C2048 1.353 . S
C2050 C2053 1.348 . S
C2050 H2098 0.929 . S
C2051 C2052 1.358 . S
C2051 C2053 1.356 . S
C2051 H2099 0.930 . S
C2052 N2049 1.279 . S
C2052 C2051 1.358 . S
C2052 H2055 0.930 . S
C2053 C2050 1.348 . S
C2053 C2051 1.356 . S
H2054 C2048 0.930 . S
H2055 C2052 0.930 . S
C2056 C2058 1.348 . S
C2056 C2059 1.356 . S
C2056 O2086 1.325 . S
N2057 C2060 1.314 . S
N2057 C2061 1.279 . S
C2058 C2056 1.348 . S
C2058 C2060 1.353 . S
C2058 H2100 0.929 . S
C2059 C2056 1.356 . S
C2059 C2061 1.358 . S
C2059 H2101 0.930 . S
C2060 N2057 1.314 . S
C2060 C2058 1.353 . S
C2060 H2102 0.930 . S
C2061 N2057 1.279 . S
C2061 C2059 1.358 . S
C2061 H2103 0.930 . S
C2062 C2063 1.348 . S
C2062 C2064 1.356 . S
C2062 O2087 1.325 . S
C2063 C2062 1.348 . S
C2063 C2065 1.353 . S
C2063 H2104 0.929 . S
C2064 C2062 1.356 . S
C2064 C2066 1.358 . S
C2064 H2105 0.930 . S
C2065 C2063 1.353 . S
C2065 N2067 1.314 . S
C2065 H2106 0.930 . S
C2066 C2064 1.358 . S
C2066 N2067 1.279 . S
C2066 H2107 0.930 . S
N2067 C2065 1.314 . S
N2067 C2066 1.279 . S
C2068 C2070 1.353 . S
C2068 N2071 1.314 . S
C2068 H2074 0.930 . S
C2069 N2071 1.279 . S
C2069 C2072 1.358 . S
C2069 H2075 0.930 . S
C2070 C2068 1.353 . S
C2070 C2073 1.348 . S
C2070 H2108 0.929 . S
N2071 Li2026 1.990 . S
N2071 C2068 1.314 . S
N2071 C2069 1.279 . S
C2072 C2069 1.358 . S
C2072 C2073 1.356 . S
C2072 H2109 0.930 . S
C2073 C2070 1.348 . S
C2073 C2072 1.356 . S
H2074 C2068 0.930 . S
H2075 C2069 0.930 . S
C2076 N2077 1.314 . S
C2076 C2078 1.353 . S
C2076 H2082 0.930 . S
N2077 Li2027 1.990 . S
N2077 C2076 1.314 . S
N2077 C2080 1.279 . S
C2078 C2076 1.353 . S
C2078 C2081 1.348 . S
C2078 H2110 0.929 . S
C2079 C2080 1.358 . S
C2079 C2081 1.356 . S
C2079 H2111 0.930 . S
C2080 N2077 1.279 . S
C2080 C2079 1.358 . S
C2080 H2083 0.930 . S
C2081 C2078 1.348 . S
C2081 C2079 1.356 . S
H2082 C2076 0.930 . S
H2083 C2080 0.930 . S
O2084 Li2024 1.956 . S
O2084 Li2025 1.970 . S
O2084 Li2026 1.961 . S
O2084 C2028 1.325 . S
O2085 Li2024 1.970 . S
O2085 Li2025 1.956 . S
O2085 Li2027 1.961 . S
O2085 C2034 1.325 . S
O2086 Li2024 1.961 . S
O2086 Li2026 1.956 . S
O2086 Li2027 1.970 . S
O2086 C2056 1.325 . S
O2087 Li2025 1.961 . S
O2087 Li2026 1.970 . S
O2087 Li2027 1.956 . S
O2087 C2062 1.325 . S
H2088 C2030 0.929 . S
H2089 C2031 0.930 . S
H2090 C2032 0.930 . S
H2091 C2033 0.930 . S
H2092 C2035 0.930 . S
H2093 C2037 0.929 . S
H2094 C2038 0.930 . S
H2095 C2039 0.930 . S
H2096 C2042 0.930 . S
H2097 C2045 0.929 . S
H2098 C2050 0.929 . S
H2099 C2051 0.930 . S
H2100 C2058 0.929 . S
H2101 C2059 0.930 . S
H2102 C2060 0.930 . S
H2103 C2061 0.930 . S
H2104 C2063 0.929 . S
H2105 C2064 0.930 . S
H2106 C2065 0.930 . S
H2107 C2066 0.930 . S
H2108 C2070 0.929 . S
H2109 C2072 0.930 . S
H2110 C2078 0.929 . S
H2111 C2079 0.930 . S
Li2112 N2129 1.990 . S
Li2112 O2172 1.956 . S
Li2112 O2173 1.970 . S
Li2112 O2174 1.961 . S
Li2113 N2137 1.990 . S
Li2113 O2172 1.970 . S
Li2113 O2173 1.956 . S
Li2113 O2175 1.961 . S
Li2114 N2159 1.990 . S
Li2114 O2172 1.961 . S
Li2114 O2174 1.956 . S
Li2114 O2175 1.970 . S
Li2115 N2165 1.990 . S
Li2115 O2173 1.961 . S
Li2115 O2174 1.970 . S
Li2115 O2175 1.956 . S
C2116 C2118 1.348 . S
C2116 C2119 1.356 . S
C2116 O2172 1.325 . S
N2117 C2120 1.314 . S
N2117 C2121 1.279 . S
C2118 C2116 1.348 . S
C2118 C2120 1.353 . S
C2118 H2176 0.929 . S
C2119 C2116 1.356 . S
C2119 C2121 1.358 . S
C2119 H2177 0.930 . S
C2120 N2117 1.314 . S
C2120 C2118 1.353 . S
C2120 H2178 0.930 . S
C2121 N2117 1.279 . S
C2121 C2119 1.358 . S
C2121 H2179 0.930 . S
C2122 C2125 1.348 . S
C2122 C2126 1.356 . S
C2122 O2173 1.325 . S
C2123 N2124 1.279 . S
C2123 C2126 1.358 . S
C2123 H2180 0.930 . S
N2124 C2123 1.279 . S
N2124 C2127 1.314 . S
C2125 C2122 1.348 . S
C2125 C2127 1.353 . S
C2125 H2181 0.929 . S
C2126 C2122 1.356 . S
C2126 C2123 1.358 . S
C2126 H2182 0.930 . S
C2127 N2124 1.314 . S
C2127 C2125 1.353 . S
C2127 H2183 0.930 . S
C2128 N2129 1.314 . S
C2128 C2133 1.353 . S
C2128 H2134 0.930 . S
N2129 Li2112 1.990 . S
N2129 C2128 1.314 . S
N2129 C2131 1.279 . S
C2130 C2131 1.358 . S
C2130 C2132 1.356 . S
C2130 H2184 0.930 . S
C2131 N2129 1.279 . S
C2131 C2130 1.358 . S
C2131 H2135 0.930 . S
C2132 C2130 1.356 . S
C2132 C2133 1.348 . S
C2133 C2128 1.353 . S
C2133 C2132 1.348 . S
C2133 H2185 0.929 . S
H2134 C2128 0.930 . S
H2135 C2131 0.930 . S
C2136 N2137 1.314 . S
C2136 C2138 1.353 . S
C2136 H2142 0.930 . S
N2137 Li2113 1.990 . S
N2137 C2136 1.314 . S
N2137 C2140 1.279 . S
C2138 C2136 1.353 . S
C2138 C2141 1.348 . S
C2138 H2186 0.929 . S
C2139 C2140 1.358 . S
C2139 C2141 1.356 . S
C2139 H2187 0.930 . S
C2140 N2137 1.279 . S
C2140 C2139 1.358 . S
C2140 H2143 0.930 . S
C2141 C2138 1.348 . S
C2141 C2139 1.356 . S
H2142 C2136 0.930 . S
H2143 C2140 0.930 . S
C2144 C2146 1.348 . S
C2144 C2147 1.356 . S
C2144 O2174 1.325 . S
N2145 C2148 1.314 . S
N2145 C2149 1.279 . S
C2146 C2144 1.348 . S
C2146 C2148 1.353 . S
C2146 H2188 0.929 . S
C2147 C2144 1.356 . S
C2147 C2149 1.358 . S
C2147 H2189 0.930 . S
C2148 N2145 1.314 . S
C2148 C2146 1.353 . S
C2148 H2190 0.930 . S
C2149 N2145 1.279 . S
C2149 C2147 1.358 . S
C2149 H2191 0.930 . S
C2150 C2151 1.348 . S
C2150 C2152 1.356 . S
C2150 O2175 1.325 . S
C2151 C2150 1.348 . S
C2151 C2153 1.353 . S
C2151 H2192 0.929 . S
C2152 C2150 1.356 . S
C2152 C2154 1.358 . S
C2152 H2193 0.930 . S
C2153 C2151 1.353 . S
C2153 N2155 1.314 . S
C2153 H2194 0.930 . S
C2154 C2152 1.358 . S
C2154 N2155 1.279 . S
C2154 H2195 0.930 . S
N2155 C2153 1.314 . S
N2155 C2154 1.279 . S
C2156 C2158 1.353 . S
C2156 N2159 1.314 . S
C2156 H2162 0.930 . S
C2157 N2159 1.279 . S
C2157 C2160 1.358 . S
C2157 H2163 0.930 . S
C2158 C2156 1.353 . S
C2158 C2161 1.348 . S
C2158 H2196 0.929 . S
N2159 Li2114 1.990 . S
N2159 C2156 1.314 . S
N2159 C2157 1.279 . S
C2160 C2157 1.358 . S
C2160 C2161 1.356 . S
C2160 H2197 0.930 . S
C2161 C2158 1.348 . S
C2161 C2160 1.356 . S
H2162 C2156 0.930 . S
H2163 C2157 0.930 . S
C2164 N2165 1.330 . S
C2164 C2166 1.334 1_455 S
C2164 H2170 0.933 . S
N2165 Li2115 1.990 . S
N2165 C2164 1.330 . S
N2165 C2168 1.279 . S
C2166 C2164 1.334 1_655 S
C2166 C2169 1.348 . S
C2166 H2198 0.929 . S
C2167 C2168 1.358 1_655 S
C2167 C2169 1.356 . S
C2167 H2199 0.930 . S
C2168 N2165 1.279 . S
C2168 C2167 1.358 1_455 S
C2168 H2171 0.930 . S
C2169 C2166 1.348 . S
C2169 C2167 1.356 . S
H2170 C2164 0.933 . S
H2171 C2168 0.930 . S
O2172 Li2112 1.956 . S
O2172 Li2113 1.970 . S
O2172 Li2114 1.961 . S
O2172 C2116 1.325 . S
O2173 Li2112 1.970 . S
O2173 Li2113 1.956 . S
O2173 Li2115 1.961 . S
O2173 C2122 1.325 . S
O2174 Li2112 1.961 . S
O2174 Li2114 1.956 . S
O2174 Li2115 1.970 . S
O2174 C2144 1.325 . S
O2175 Li2113 1.961 . S
O2175 Li2114 1.970 . S
O2175 Li2115 1.956 . S
O2175 C2150 1.325 . S
H2176 C2118 0.929 . S
H2177 C2119 0.930 . S
H2178 C2120 0.930 . S
H2179 C2121 0.930 . S
H2180 C2123 0.930 . S
H2181 C2125 0.929 . S
H2182 C2126 0.930 . S
H2183 C2127 0.930 . S
H2184 C2130 0.930 . S
H2185 C2133 0.929 . S
H2186 C2138 0.929 . S
H2187 C2139 0.930 . S
H2188 C2146 0.929 . S
H2189 C2147 0.930 . S
H2190 C2148 0.930 . S
H2191 C2149 0.930 . S
H2192 C2151 0.929 . S
H2193 C2152 0.930 . S
H2194 C2153 0.930 . S
H2195 C2154 0.930 . S
H2196 C2158 0.929 . S
H2197 C2160 0.930 . S
H2198 C2166 0.929 . S
H2199 C2167 0.930 . S
Li2200 N2217 1.990 . S
Li2200 O2260 1.956 . S
Li2200 O2261 1.970 . S
Li2200 O2262 1.961 . S
Li2201 N2225 1.990 . S
Li2201 O2260 1.970 . S
Li2201 O2261 1.956 . S
Li2201 O2263 1.961 . S
Li2202 N2247 1.990 . S
Li2202 O2260 1.961 . S
Li2202 O2262 1.956 . S
Li2202 O2263 1.970 . S
Li2203 N2253 1.990 . S
Li2203 O2261 1.961 . S
Li2203 O2262 1.970 . S
Li2203 O2263 1.956 . S
C2204 C2206 1.348 . S
C2204 C2207 1.356 . S
C2204 O2260 1.325 . S
N2205 C2208 1.314 . S
N2205 C2209 1.279 . S
C2206 C2204 1.348 . S
C2206 C2208 1.353 . S
C2206 H2264 0.929 . S
C2207 C2204 1.356 . S
C2207 C2209 1.358 . S
C2207 H2265 0.930 . S
C2208 N2205 1.314 . S
C2208 C2206 1.353 . S
C2208 H2266 0.930 . S
C2209 N2205 1.279 . S
C2209 C2207 1.358 . S
C2209 H2267 0.930 . S
C2210 C2213 1.348 . S
C2210 C2214 1.356 . S
C2210 O2261 1.325 . S
C2211 N2212 1.279 . S
C2211 C2214 1.358 . S
C2211 H2268 0.930 . S
N2212 C2211 1.279 . S
N2212 C2215 1.314 . S
C2213 C2210 1.348 . S
C2213 C2215 1.353 . S
C2213 H2269 0.929 . S
C2214 C2210 1.356 . S
C2214 C2211 1.358 . S
C2214 H2270 0.930 . S
C2215 N2212 1.314 . S
C2215 C2213 1.353 . S
C2215 H2271 0.930 . S
C2216 N2217 1.314 . S
C2216 C2221 1.353 . S
C2216 H2222 0.930 . S
N2217 Li2200 1.990 . S
N2217 C2216 1.314 . S
N2217 C2219 1.279 . S
C2218 C2219 1.358 . S
C2218 C2220 1.356 . S
C2218 H2272 0.930 . S
C2219 N2217 1.279 . S
C2219 C2218 1.358 . S
C2219 H2223 0.930 . S
C2220 C2218 1.356 . S
C2220 C2221 1.348 . S
C2221 C2216 1.353 . S
C2221 C2220 1.348 . S
C2221 H2273 0.929 . S
H2222 C2216 0.930 . S
H2223 C2219 0.930 . S
C2224 N2225 1.314 . S
C2224 C2226 1.353 . S
C2224 H2230 0.930 . S
N2225 Li2201 1.990 . S
N2225 C2224 1.314 . S
N2225 C2228 1.279 . S
C2226 C2224 1.353 . S
C2226 C2229 1.348 . S
C2226 H2274 0.929 . S
C2227 C2228 1.358 . S
C2227 C2229 1.356 . S
C2227 H2275 0.930 . S
C2228 N2225 1.279 . S
C2228 C2227 1.358 . S
C2228 H2231 0.930 . S
C2229 C2226 1.348 . S
C2229 C2227 1.356 . S
H2230 C2224 0.930 . S
H2231 C2228 0.930 . S
C2232 C2234 1.348 . S
C2232 C2235 1.356 . S
C2232 O2262 1.325 . S
N2233 C2236 1.314 . S
N2233 C2237 1.279 . S
C2234 C2232 1.348 . S
C2234 C2236 1.353 . S
C2234 H2276 0.929 . S
C2235 C2232 1.356 . S
C2235 C2237 1.358 . S
C2235 H2277 0.930 . S
C2236 N2233 1.314 . S
C2236 C2234 1.353 . S
C2236 H2278 0.930 . S
C2237 N2233 1.279 . S
C2237 C2235 1.358 . S
C2237 H2279 0.930 . S
C2238 C2239 1.348 . S
C2238 C2240 1.356 . S
C2238 O2263 1.325 . S
C2239 C2238 1.348 . S
C2239 C2241 1.353 . S
C2239 H2280 0.929 . S
C2240 C2238 1.356 . S
C2240 C2242 1.358 . S
C2240 H2281 0.930 . S
C2241 C2239 1.353 . S
C2241 N2243 1.314 . S
C2241 H2282 0.930 . S
C2242 C2240 1.358 . S
C2242 N2243 1.279 . S
C2242 H2283 0.930 . S
N2243 C2241 1.314 . S
N2243 C2242 1.279 . S
C2244 C2246 1.353 . S
C2244 N2247 1.314 . S
C2244 H2250 0.930 . S
C2245 N2247 1.279 . S
C2245 C2248 1.358 . S
C2245 H2251 0.930 . S
C2246 C2244 1.353 . S
C2246 C2249 1.348 . S
C2246 H2284 0.929 . S
N2247 Li2202 1.990 . S
N2247 C2244 1.314 . S
N2247 C2245 1.279 . S
C2248 C2245 1.358 . S
C2248 C2249 1.356 . S
C2248 H2285 0.930 . S
C2249 C2246 1.348 . S
C2249 C2248 1.356 . S
H2250 C2244 0.930 . S
H2251 C2245 0.930 . S
C2252 N2253 1.314 . S
C2252 C2254 1.353 . S
C2252 H2258 0.930 . S
N2253 Li2203 1.990 . S
N2253 C2252 1.314 . S
N2253 C2256 1.279 . S
C2254 C2252 1.353 . S
C2254 C2257 1.348 . S
C2254 H2286 0.929 . S
C2255 C2256 1.358 . S
C2255 C2257 1.356 . S
C2255 H2287 0.930 . S
C2256 N2253 1.279 . S
C2256 C2255 1.358 . S
C2256 H2259 0.930 . S
C2257 C2254 1.348 . S
C2257 C2255 1.356 . S
H2258 C2252 0.930 . S
H2259 C2256 0.930 . S
O2260 Li2200 1.956 . S
O2260 Li2201 1.970 . S
O2260 Li2202 1.961 . S
O2260 C2204 1.325 . S
O2261 Li2200 1.970 . S
O2261 Li2201 1.956 . S
O2261 Li2203 1.961 . S
O2261 C2210 1.325 . S
O2262 Li2200 1.961 . S
O2262 Li2202 1.956 . S
O2262 Li2203 1.970 . S
O2262 C2232 1.325 . S
O2263 Li2201 1.961 . S
O2263 Li2202 1.970 . S
O2263 Li2203 1.956 . S
O2263 C2238 1.325 . S
H2264 C2206 0.929 . S
H2265 C2207 0.930 . S
H2266 C2208 0.930 . S
H2267 C2209 0.930 . S
H2268 C2211 0.930 . S
H2269 C2213 0.929 . S
H2270 C2214 0.930 . S
H2271 C2215 0.930 . S
H2272 C2218 0.930 . S
H2273 C2221 0.929 . S
H2274 C2226 0.929 . S
H2275 C2227 0.930 . S
H2276 C2234 0.929 . S
H2277 C2235 0.930 . S
H2278 C2236 0.930 . S
H2279 C2237 0.930 . S
H2280 C2239 0.929 . S
H2281 C2240 0.930 . S
H2282 C2241 0.930 . S
H2283 C2242 0.930 . S
H2284 C2246 0.929 . S
H2285 C2248 0.930 . S
H2286 C2254 0.929 . S
H2287 C2255 0.930 . S
Li2288 N2305 1.990 . S
Li2288 O2348 1.956 . S
Li2288 O2349 1.970 . S
Li2288 O2350 1.961 . S
Li2289 N2313 1.990 . S
Li2289 O2348 1.970 . S
Li2289 O2349 1.956 . S
Li2289 O2351 1.961 . S
Li2290 N2335 1.990 . S
Li2290 O2348 1.961 . S
Li2290 O2350 1.956 . S
Li2290 O2351 1.970 . S
Li2291 N2341 1.990 . S
Li2291 O2349 1.961 . S
Li2291 O2350 1.970 . S
Li2291 O2351 1.956 . S
C2292 C2294 1.348 . S
C2292 C2295 1.356 . S
C2292 O2348 1.325 . S
N2293 C2296 1.314 . S
N2293 C2297 1.279 . S
C2294 C2292 1.348 . S
C2294 C2296 1.353 . S
C2294 H2352 0.929 . S
C2295 C2292 1.356 . S
C2295 C2297 1.358 . S
C2295 H2353 0.930 . S
C2296 N2293 1.314 . S
C2296 C2294 1.353 . S
C2296 H2354 0.930 . S
C2297 N2293 1.279 . S
C2297 C2295 1.358 . S
C2297 H2355 0.930 . S
C2298 C2301 1.348 . S
C2298 C2302 1.356 . S
C2298 O2349 1.325 . S
C2299 N2300 1.279 . S
C2299 C2302 1.358 . S
C2299 H2356 0.930 . S
N2300 C2299 1.279 . S
N2300 C2303 1.314 . S
C2301 C2298 1.348 . S
C2301 C2303 1.353 . S
C2301 H2357 0.929 . S
C2302 C2298 1.356 . S
C2302 C2299 1.358 . S
C2302 H2358 0.930 . S
C2303 N2300 1.314 . S
C2303 C2301 1.353 . S
C2303 H2359 0.930 . S
C2304 N2305 1.314 . S
C2304 C2309 1.353 . S
C2304 H2310 0.930 . S
N2305 Li2288 1.990 . S
N2305 C2304 1.314 . S
N2305 C2307 1.279 . S
C2306 C2307 1.358 . S
C2306 C2308 1.356 . S
C2306 H2360 0.930 . S
C2307 N2305 1.279 . S
C2307 C2306 1.358 . S
C2307 H2311 0.930 . S
C2308 C2306 1.356 . S
C2308 C2309 1.348 . S
C2309 C2304 1.353 . S
C2309 C2308 1.348 . S
C2309 H2361 0.929 . S
H2310 C2304 0.930 . S
H2311 C2307 0.930 . S
C2312 N2313 1.314 . S
C2312 C2314 1.353 . S
C2312 H2318 0.930 . S
N2313 Li2289 1.990 . S
N2313 C2312 1.314 . S
N2313 C2316 1.279 . S
C2314 C2312 1.353 . S
C2314 C2317 1.348 . S
C2314 H2362 0.929 . S
C2315 C2316 1.358 . S
C2315 C2317 1.356 . S
C2315 H2363 0.930 . S
C2316 N2313 1.279 . S
C2316 C2315 1.358 . S
C2316 H2319 0.930 . S
C2317 C2314 1.348 . S
C2317 C2315 1.356 . S
H2318 C2312 0.930 . S
H2319 C2316 0.930 . S
C2320 C2322 1.348 . S
C2320 C2323 1.356 . S
C2320 O2350 1.325 . S
N2321 C2324 1.314 . S
N2321 C2325 1.279 . S
C2322 C2320 1.348 . S
C2322 C2324 1.353 . S
C2322 H2364 0.929 . S
C2323 C2320 1.356 . S
C2323 C2325 1.358 . S
C2323 H2365 0.930 . S
C2324 N2321 1.314 . S
C2324 C2322 1.353 . S
C2324 H2366 0.930 . S
C2325 N2321 1.279 . S
C2325 C2323 1.358 . S
C2325 H2367 0.930 . S
C2326 C2327 1.348 . S
C2326 C2328 1.356 . S
C2326 O2351 1.325 . S
C2327 C2326 1.348 . S
C2327 C2329 1.353 . S
C2327 H2368 0.929 . S
C2328 C2326 1.356 . S
C2328 C2330 1.358 . S
C2328 H2369 0.930 . S
C2329 C2327 1.353 . S
C2329 N2331 1.314 . S
C2329 H2370 0.930 . S
C2330 C2328 1.358 . S
C2330 N2331 1.279 . S
C2330 H2371 0.930 . S
N2331 C2329 1.314 . S
N2331 C2330 1.279 . S
C2332 C2334 1.353 . S
C2332 N2335 1.314 . S
C2332 H2338 0.930 . S
C2333 N2335 1.279 . S
C2333 C2336 1.358 . S
C2333 H2339 0.930 . S
C2334 C2332 1.353 . S
C2334 C2337 1.348 . S
C2334 H2372 0.929 . S
N2335 Li2290 1.990 . S
N2335 C2332 1.314 . S
N2335 C2333 1.279 . S
C2336 C2333 1.358 . S
C2336 C2337 1.356 . S
C2336 H2373 0.930 . S
C2337 C2334 1.348 . S
C2337 C2336 1.356 . S
H2338 C2332 0.930 . S
H2339 C2333 0.930 . S
C2340 N2341 1.314 . S
C2340 C2342 1.353 . S
C2340 H2346 0.930 . S
N2341 Li2291 1.990 . S
N2341 C2340 1.314 . S
N2341 C2344 1.279 . S
C2342 C2340 1.353 . S
C2342 C2345 1.348 . S
C2342 H2374 0.929 . S
C2343 C2344 1.358 . S
C2343 C2345 1.356 . S
C2343 H2375 0.930 . S
C2344 N2341 1.279 . S
C2344 C2343 1.358 . S
C2344 H2347 0.930 . S
C2345 C2342 1.348 . S
C2345 C2343 1.356 . S
H2346 C2340 0.930 . S
H2347 C2344 0.930 . S
O2348 Li2288 1.956 . S
O2348 Li2289 1.970 . S
O2348 Li2290 1.961 . S
O2348 C2292 1.325 . S
O2349 Li2288 1.970 . S
O2349 Li2289 1.956 . S
O2349 Li2291 1.961 . S
O2349 C2298 1.325 . S
O2350 Li2288 1.961 . S
O2350 Li2290 1.956 . S
O2350 Li2291 1.970 . S
O2350 C2320 1.325 . S
O2351 Li2289 1.961 . S
O2351 Li2290 1.970 . S
O2351 Li2291 1.956 . S
O2351 C2326 1.325 . S
H2352 C2294 0.929 . S
H2353 C2295 0.930 . S
H2354 C2296 0.930 . S
H2355 C2297 0.930 . S
H2356 C2299 0.930 . S
H2357 C2301 0.929 . S
H2358 C2302 0.930 . S
H2359 C2303 0.930 . S
H2360 C2306 0.930 . S
H2361 C2309 0.929 . S
H2362 C2314 0.929 . S
H2363 C2315 0.930 . S
H2364 C2322 0.929 . S
H2365 C2323 0.930 . S
H2366 C2324 0.930 . S
H2367 C2325 0.930 . S
H2368 C2327 0.929 . S
H2369 C2328 0.930 . S
H2370 C2329 0.930 . S
H2371 C2330 0.930 . S
H2372 C2334 0.929 . S
H2373 C2336 0.930 . S
H2374 C2342 0.929 . S
H2375 C2343 0.930 . S
Li2376 N2393 1.990 . S
Li2376 O2436 1.956 . S
Li2376 O2437 1.970 . S
Li2376 O2438 1.961 . S
Li2377 N2401 1.990 . S
Li2377 O2436 1.970 . S
Li2377 O2437 1.956 . S
Li2377 O2439 1.961 . S
Li2378 N2423 1.990 . S
Li2378 O2436 1.961 . S
Li2378 O2438 1.956 . S
Li2378 O2439 1.970 . S
Li2379 N2429 1.990 . S
Li2379 O2437 1.961 . S
Li2379 O2438 1.970 . S
Li2379 O2439 1.956 . S
C2380 C2382 1.348 . S
C2380 C2383 1.356 . S
C2380 O2436 1.325 . S
N2381 C2384 1.314 . S
N2381 C2385 1.279 . S
C2382 C2380 1.348 . S
C2382 C2384 1.353 . S
C2382 H2440 0.929 . S
C2383 C2380 1.356 . S
C2383 C2385 1.358 . S
C2383 H2441 0.930 . S
C2384 N2381 1.314 . S
C2384 C2382 1.353 . S
C2384 H2442 0.930 . S
C2385 N2381 1.279 . S
C2385 C2383 1.358 . S
C2385 H2443 0.930 . S
C2386 C2389 1.348 . S
C2386 C2390 1.356 . S
C2386 O2437 1.325 . S
C2387 N2388 1.279 . S
C2387 C2390 1.358 . S
C2387 H2444 0.930 . S
N2388 C2387 1.279 . S
N2388 C2391 1.314 . S
C2389 C2386 1.348 . S
C2389 C2391 1.353 . S
C2389 H2445 0.929 . S
C2390 C2386 1.356 . S
C2390 C2387 1.358 . S
C2390 H2446 0.930 . S
C2391 N2388 1.314 . S
C2391 C2389 1.353 . S
C2391 H2447 0.930 . S
C2392 N2393 1.314 . S
C2392 C2397 1.353 . S
C2392 H2398 0.930 . S
N2393 Li2376 1.990 . S
N2393 C2392 1.314 . S
N2393 C2395 1.279 . S
C2394 C2395 1.358 . S
C2394 C2396 1.356 . S
C2394 H2448 0.930 . S
C2395 N2393 1.279 . S
C2395 C2394 1.358 . S
C2395 H2399 0.930 . S
C2396 C2394 1.356 . S
C2396 C2397 1.348 . S
C2397 C2392 1.353 . S
C2397 C2396 1.348 . S
C2397 H2449 0.929 . S
H2398 C2392 0.930 . S
H2399 C2395 0.930 . S
C2400 N2401 1.314 . S
C2400 C2402 1.353 . S
C2400 H2406 0.930 . S
N2401 Li2377 1.990 . S
N2401 C2400 1.314 . S
N2401 C2404 1.279 . S
C2402 C2400 1.353 . S
C2402 C2405 1.348 . S
C2402 H2450 0.929 . S
C2403 C2404 1.358 . S
C2403 C2405 1.356 . S
C2403 H2451 0.930 . S
C2404 N2401 1.279 . S
C2404 C2403 1.358 . S
C2404 H2407 0.930 . S
C2405 C2402 1.348 . S
C2405 C2403 1.356 . S
H2406 C2400 0.930 . S
H2407 C2404 0.930 . S
C2408 C2410 1.348 . S
C2408 C2411 1.356 . S
C2408 O2438 1.325 . S
N2409 C2412 1.314 . S
N2409 C2413 1.279 . S
C2410 C2408 1.348 . S
C2410 C2412 1.353 . S
C2410 H2452 0.929 . S
C2411 C2408 1.356 . S
C2411 C2413 1.358 . S
C2411 H2453 0.930 . S
C2412 N2409 1.314 . S
C2412 C2410 1.353 . S
C2412 H2454 0.930 . S
C2413 N2409 1.279 . S
C2413 C2411 1.358 . S
C2413 H2455 0.930 . S
C2414 C2415 1.348 . S
C2414 C2416 1.356 . S
C2414 O2439 1.325 . S
C2415 C2414 1.348 . S
C2415 C2417 1.353 . S
C2415 H2456 0.929 . S
C2416 C2414 1.356 . S
C2416 C2418 1.358 . S
C2416 H2457 0.930 . S
C2417 C2415 1.353 . S
C2417 N2419 1.314 . S
C2417 H2458 0.930 . S
C2418 C2416 1.358 . S
C2418 N2419 1.279 . S
C2418 H2459 0.930 . S
N2419 C2417 1.314 . S
N2419 C2418 1.279 . S
C2420 C2422 1.353 . S
C2420 N2423 1.314 . S
C2420 H2426 0.930 . S
C2421 N2423 1.279 . S
C2421 C2424 1.358 . S
C2421 H2427 0.930 . S
C2422 C2420 1.353 . S
C2422 C2425 1.348 . S
C2422 H2460 0.929 . S
N2423 Li2378 1.990 . S
N2423 C2420 1.314 . S
N2423 C2421 1.279 . S
C2424 C2421 1.358 . S
C2424 C2425 1.356 . S
C2424 H2461 0.930 . S
C2425 C2422 1.348 . S
C2425 C2424 1.356 . S
H2426 C2420 0.930 . S
H2427 C2421 0.930 . S
C2428 N2429 1.314 . S
C2428 C2430 1.353 . S
C2428 H2434 0.930 . S
N2429 Li2379 1.990 . S
N2429 C2428 1.314 . S
N2429 C2432 1.279 . S
C2430 C2428 1.353 . S
C2430 C2433 1.348 . S
C2430 H2462 0.929 . S
C2431 C2432 1.358 . S
C2431 C2433 1.356 . S
C2431 H2463 0.930 . S
C2432 N2429 1.279 . S
C2432 C2431 1.358 . S
C2432 H2435 0.930 . S
C2433 C2430 1.348 . S
C2433 C2431 1.356 . S
H2434 C2428 0.930 . S
H2435 C2432 0.930 . S
O2436 Li2376 1.956 . S
O2436 Li2377 1.970 . S
O2436 Li2378 1.961 . S
O2436 C2380 1.325 . S
O2437 Li2376 1.970 . S
O2437 Li2377 1.956 . S
O2437 Li2379 1.961 . S
O2437 C2386 1.325 . S
O2438 Li2376 1.961 . S
O2438 Li2378 1.956 . S
O2438 Li2379 1.970 . S
O2438 C2408 1.325 . S
O2439 Li2377 1.961 . S
O2439 Li2378 1.970 . S
O2439 Li2379 1.956 . S
O2439 C2414 1.325 . S
H2440 C2382 0.929 . S
H2441 C2383 0.930 . S
H2442 C2384 0.930 . S
H2443 C2385 0.930 . S
H2444 C2387 0.930 . S
H2445 C2389 0.929 . S
H2446 C2390 0.930 . S
H2447 C2391 0.930 . S
H2448 C2394 0.930 . S
H2449 C2397 0.929 . S
H2450 C2402 0.929 . S
H2451 C2403 0.930 . S
H2452 C2410 0.929 . S
H2453 C2411 0.930 . S
H2454 C2412 0.930 . S
H2455 C2413 0.930 . S
H2456 C2415 0.929 . S
H2457 C2416 0.930 . S
H2458 C2417 0.930 . S
H2459 C2418 0.930 . S
H2460 C2422 0.929 . S
H2461 C2424 0.930 . S
H2462 C2430 0.929 . S
H2463 C2431 0.930 . S
Li2464 N2481 1.990 . S
Li2464 O2524 1.956 . S
Li2464 O2525 1.970 . S
Li2464 O2526 1.961 . S
Li2465 N2489 1.990 . S
Li2465 O2524 1.970 . S
Li2465 O2525 1.956 . S
Li2465 O2527 1.961 . S
Li2466 N2511 1.990 . S
Li2466 O2524 1.961 . S
Li2466 O2526 1.956 . S
Li2466 O2527 1.970 . S
Li2467 N2517 1.990 . S
Li2467 O2525 1.961 . S
Li2467 O2526 1.970 . S
Li2467 O2527 1.956 . S
C2468 C2470 1.348 . S
C2468 C2471 1.356 . S
C2468 O2524 1.325 . S
N2469 C2472 1.314 . S
N2469 C2473 1.279 . S
C2470 C2468 1.348 . S
C2470 C2472 1.353 . S
C2470 H2528 0.929 . S
C2471 C2468 1.356 . S
C2471 C2473 1.358 . S
C2471 H2529 0.930 . S
C2472 N2469 1.314 . S
C2472 C2470 1.353 . S
C2472 H2530 0.930 . S
C2473 N2469 1.279 . S
C2473 C2471 1.358 . S
C2473 H2531 0.930 . S
C2474 C2477 1.348 . S
C2474 C2478 1.356 . S
C2474 O2525 1.325 . S
C2475 N2476 1.279 . S
C2475 C2478 1.358 . S
C2475 H2532 0.930 . S
N2476 C2475 1.279 . S
N2476 C2479 1.314 . S
C2477 C2474 1.348 . S
C2477 C2479 1.353 . S
C2477 H2533 0.929 . S
C2478 C2474 1.356 . S
C2478 C2475 1.358 . S
C2478 H2534 0.930 . S
C2479 N2476 1.314 . S
C2479 C2477 1.353 . S
C2479 H2535 0.930 . S
C2480 N2481 1.314 . S
C2480 C2485 1.353 . S
C2480 H2486 0.930 . S
N2481 Li2464 1.990 . S
N2481 C2480 1.314 . S
N2481 C2483 1.279 . S
C2482 C2483 1.358 . S
C2482 C2484 1.356 . S
C2482 H2536 0.930 . S
C2483 N2481 1.279 . S
C2483 C2482 1.358 . S
C2483 H2487 0.930 . S
C2484 C2482 1.356 . S
C2484 C2485 1.348 . S
C2485 C2480 1.353 . S
C2485 C2484 1.348 . S
C2485 H2537 0.929 . S
H2486 C2480 0.930 . S
H2487 C2483 0.930 . S
C2488 N2489 1.330 . S
C2488 C2490 1.334 1_455 S
C2488 H2494 0.933 . S
N2489 Li2465 1.990 . S
N2489 C2488 1.330 . S
N2489 C2492 1.279 . S
C2490 C2488 1.334 1_655 S
C2490 C2493 1.348 . S
C2490 H2538 0.929 . S
C2491 C2492 1.358 1_655 S
C2491 C2493 1.356 . S
C2491 H2539 0.930 . S
C2492 N2489 1.279 . S
C2492 C2491 1.358 1_455 S
C2492 H2495 0.930 . S
C2493 C2490 1.348 . S
C2493 C2491 1.356 . S
H2494 C2488 0.933 . S
H2495 C2492 0.930 . S
C2496 C2498 1.348 . S
C2496 C2499 1.356 . S
C2496 O2526 1.325 . S
N2497 C2500 1.314 . S
N2497 C2501 1.279 . S
C2498 C2496 1.348 . S
C2498 C2500 1.353 . S
C2498 H2540 0.929 . S
C2499 C2496 1.356 . S
C2499 C2501 1.358 . S
C2499 H2541 0.930 . S
C2500 N2497 1.314 . S
C2500 C2498 1.353 . S
C2500 H2542 0.930 . S
C2501 N2497 1.279 . S
C2501 C2499 1.358 . S
C2501 H2543 0.930 . S
C2502 C2503 1.348 . S
C2502 C2504 1.356 . S
C2502 O2527 1.325 . S
C2503 C2502 1.348 . S
C2503 C2505 1.353 . S
C2503 H2544 0.929 . S
C2504 C2502 1.356 . S
C2504 C2506 1.358 . S
C2504 H2545 0.930 . S
C2505 C2503 1.353 . S
C2505 N2507 1.314 . S
C2505 H2546 0.930 . S
C2506 C2504 1.358 . S
C2506 N2507 1.279 . S
C2506 H2547 0.930 . S
N2507 C2505 1.314 . S
N2507 C2506 1.279 . S
C2508 C2510 1.353 . S
C2508 N2511 1.314 . S
C2508 H2514 0.930 . S
C2509 N2511 1.279 . S
C2509 C2512 1.358 . S
C2509 H2515 0.930 . S
C2510 C2508 1.353 . S
C2510 C2513 1.348 . S
C2510 H2548 0.929 . S
N2511 Li2466 1.990 . S
N2511 C2508 1.314 . S
N2511 C2509 1.279 . S
C2512 C2509 1.358 . S
C2512 C2513 1.356 . S
C2512 H2549 0.930 . S
C2513 C2510 1.348 . S
C2513 C2512 1.356 . S
H2514 C2508 0.930 . S
H2515 C2509 0.930 . S
C2516 N2517 1.314 . S
C2516 C2518 1.353 . S
C2516 H2522 0.930 . S
N2517 Li2467 1.990 . S
N2517 C2516 1.314 . S
N2517 C2520 1.279 . S
C2518 C2516 1.353 . S
C2518 C2521 1.348 . S
C2518 H2550 0.929 . S
C2519 C2520 1.358 . S
C2519 C2521 1.356 . S
C2519 H2551 0.930 . S
C2520 N2517 1.279 . S
C2520 C2519 1.358 . S
C2520 H2523 0.930 . S
C2521 C2518 1.348 . S
C2521 C2519 1.356 . S
H2522 C2516 0.930 . S
H2523 C2520 0.930 . S
O2524 Li2464 1.956 . S
O2524 Li2465 1.970 . S
O2524 Li2466 1.961 . S
O2524 C2468 1.325 . S
O2525 Li2464 1.970 . S
O2525 Li2465 1.956 . S
O2525 Li2467 1.961 . S
O2525 C2474 1.325 . S
O2526 Li2464 1.961 . S
O2526 Li2466 1.956 . S
O2526 Li2467 1.970 . S
O2526 C2496 1.325 . S
O2527 Li2465 1.961 . S
O2527 Li2466 1.970 . S
O2527 Li2467 1.956 . S
O2527 C2502 1.325 . S
H2528 C2470 0.929 . S
H2529 C2471 0.930 . S
H2530 C2472 0.930 . S
H2531 C2473 0.930 . S
H2532 C2475 0.930 . S
H2533 C2477 0.929 . S
H2534 C2478 0.930 . S
H2535 C2479 0.930 . S
H2536 C2482 0.930 . S
H2537 C2485 0.929 . S
H2538 C2490 0.929 . S
H2539 C2491 0.930 . S
H2540 C2498 0.929 . S
H2541 C2499 0.930 . S
H2542 C2500 0.930 . S
H2543 C2501 0.930 . S
H2544 C2503 0.929 . S
H2545 C2504 0.930 . S
H2546 C2505 0.930 . S
H2547 C2506 0.930 . S
H2548 C2510 0.929 . S
H2549 C2512 0.930 . S
H2550 C2518 0.929 . S
H2551 C2519 0.930 . S
Li2552 N2569 1.990 . S
Li2552 O2612 1.956 . S
Li2552 O2613 1.970 . S
Li2552 O2614 1.961 . S
Li2553 N2577 1.990 . S
Li2553 O2612 1.970 . S
Li2553 O2613 1.956 . S
Li2553 O2615 1.961 . S
Li2554 N2599 1.990 . S
Li2554 O2612 1.961 . S
Li2554 O2614 1.956 . S
Li2554 O2615 1.970 . S
Li2555 N2605 1.990 . S
Li2555 O2613 1.961 . S
Li2555 O2614 1.970 . S
Li2555 O2615 1.956 . S
C2556 C2558 1.348 . S
C2556 C2559 1.356 . S
C2556 O2612 1.325 . S
N2557 C2560 1.314 . S
N2557 C2561 1.279 . S
C2558 C2556 1.348 . S
C2558 C2560 1.353 . S
C2558 H2616 0.929 . S
C2559 C2556 1.356 . S
C2559 C2561 1.358 . S
C2559 H2617 0.930 . S
C2560 N2557 1.314 . S
C2560 C2558 1.353 . S
C2560 H2618 0.930 . S
C2561 N2557 1.279 . S
C2561 C2559 1.358 . S
C2561 H2619 0.930 . S
C2562 C2565 1.348 . S
C2562 C2566 1.356 . S
C2562 O2613 1.325 . S
C2563 N2564 1.279 . S
C2563 C2566 1.358 . S
C2563 H2620 0.930 . S
N2564 C2563 1.279 . S
N2564 C2567 1.314 . S
C2565 C2562 1.348 . S
C2565 C2567 1.353 . S
C2565 H2621 0.929 . S
C2566 C2562 1.356 . S
C2566 C2563 1.358 . S
C2566 H2622 0.930 . S
C2567 N2564 1.314 . S
C2567 C2565 1.353 . S
C2567 H2623 0.930 . S
C2568 N2569 1.314 . S
C2568 C2573 1.353 . S
C2568 H2574 0.930 . S
N2569 Li2552 1.990 . S
N2569 C2568 1.314 . S
N2569 C2571 1.279 . S
C2570 C2571 1.358 . S
C2570 C2572 1.356 . S
C2570 H2624 0.930 . S
C2571 N2569 1.279 . S
C2571 C2570 1.358 . S
C2571 H2575 0.930 . S
C2572 C2570 1.356 . S
C2572 C2573 1.348 . S
C2573 C2568 1.353 . S
C2573 C2572 1.348 . S
C2573 H2625 0.929 . S
H2574 C2568 0.930 . S
H2575 C2571 0.930 . S
C2576 N2577 1.314 . S
C2576 C2578 1.353 . S
C2576 H2582 0.930 . S
N2577 Li2553 1.990 . S
N2577 C2576 1.314 . S
N2577 C2580 1.279 . S
C2578 C2576 1.353 . S
C2578 C2581 1.348 . S
C2578 H2626 0.929 . S
C2579 C2580 1.358 . S
C2579 C2581 1.356 . S
C2579 H2627 0.930 . S
C2580 N2577 1.279 . S
C2580 C2579 1.358 . S
C2580 H2583 0.930 . S
C2581 C2578 1.348 . S
C2581 C2579 1.356 . S
H2582 C2576 0.930 . S
H2583 C2580 0.930 . S
C2584 C2586 1.348 . S
C2584 C2587 1.356 . S
C2584 O2614 1.325 . S
N2585 C2588 1.314 . S
N2585 C2589 1.279 . S
C2586 C2584 1.348 . S
C2586 C2588 1.353 . S
C2586 H2628 0.929 . S
C2587 C2584 1.356 . S
C2587 C2589 1.358 . S
C2587 H2629 0.930 . S
C2588 N2585 1.314 . S
C2588 C2586 1.353 . S
C2588 H2630 0.930 . S
C2589 N2585 1.279 . S
C2589 C2587 1.358 . S
C2589 H2631 0.930 . S
C2590 C2591 1.348 . S
C2590 C2592 1.356 . S
C2590 O2615 1.325 . S
C2591 C2590 1.348 . S
C2591 C2593 1.353 . S
C2591 H2632 0.929 . S
C2592 C2590 1.356 . S
C2592 C2594 1.358 . S
C2592 H2633 0.930 . S
C2593 C2591 1.353 . S
C2593 N2595 1.314 . S
C2593 H2634 0.930 . S
C2594 C2592 1.358 . S
C2594 N2595 1.279 . S
C2594 H2635 0.930 . S
N2595 C2593 1.314 . S
N2595 C2594 1.279 . S
C2596 C2598 1.353 . S
C2596 N2599 1.314 . S
C2596 H2602 0.930 . S
C2597 N2599 1.279 . S
C2597 C2600 1.358 . S
C2597 H2603 0.930 . S
C2598 C2596 1.353 . S
C2598 C2601 1.348 . S
C2598 H2636 0.929 . S
N2599 Li2554 1.990 . S
N2599 C2596 1.314 . S
N2599 C2597 1.279 . S
C2600 C2597 1.358 . S
C2600 C2601 1.356 . S
C2600 H2637 0.930 . S
C2601 C2598 1.348 . S
C2601 C2600 1.356 . S
H2602 C2596 0.930 . S
H2603 C2597 0.930 . S
C2604 N2605 1.314 . S
C2604 C2606 1.353 . S
C2604 H2610 0.930 . S
N2605 Li2555 1.990 . S
N2605 C2604 1.314 . S
N2605 C2608 1.279 . S
C2606 C2604 1.353 . S
C2606 C2609 1.348 . S
C2606 H2638 0.929 . S
C2607 C2608 1.358 . S
C2607 C2609 1.356 . S
C2607 H2639 0.930 . S
C2608 N2605 1.279 . S
C2608 C2607 1.358 . S
C2608 H2611 0.930 . S
C2609 C2606 1.348 . S
C2609 C2607 1.356 . S
H2610 C2604 0.930 . S
H2611 C2608 0.930 . S
O2612 Li2552 1.956 . S
O2612 Li2553 1.970 . S
O2612 Li2554 1.961 . S
O2612 C2556 1.325 . S
O2613 Li2552 1.970 . S
O2613 Li2553 1.956 . S
O2613 Li2555 1.961 . S
O2613 C2562 1.325 . S
O2614 Li2552 1.961 . S
O2614 Li2554 1.956 . S
O2614 Li2555 1.970 . S
O2614 C2584 1.325 . S
O2615 Li2553 1.961 . S
O2615 Li2554 1.970 . S
O2615 Li2555 1.956 . S
O2615 C2590 1.325 . S
H2616 C2558 0.929 . S
H2617 C2559 0.930 . S
H2618 C2560 0.930 . S
H2619 C2561 0.930 . S
H2620 C2563 0.930 . S
H2621 C2565 0.929 . S
H2622 C2566 0.930 . S
H2623 C2567 0.930 . S
H2624 C2570 0.930 . S
H2625 C2573 0.929 . S
H2626 C2578 0.929 . S
H2627 C2579 0.930 . S
H2628 C2586 0.929 . S
H2629 C2587 0.930 . S
H2630 C2588 0.930 . S
H2631 C2589 0.930 . S
H2632 C2591 0.929 . S
H2633 C2592 0.930 . S
H2634 C2593 0.930 . S
H2635 C2594 0.930 . S
H2636 C2598 0.929 . S
H2637 C2600 0.930 . S
H2638 C2606 0.929 . S
H2639 C2607 0.930 . S
Li2640 N2657 1.990 . S
Li2640 O2700 1.956 . S
Li2640 O2701 1.970 . S
Li2640 O2702 1.961 . S
Li2641 N2665 1.990 . S
Li2641 O2700 1.970 . S
Li2641 O2701 1.956 . S
Li2641 O2703 1.961 . S
Li2642 N2687 1.990 . S
Li2642 O2700 1.961 . S
Li2642 O2702 1.956 . S
Li2642 O2703 1.970 . S
Li2643 N2693 1.990 . S
Li2643 O2701 1.961 . S
Li2643 O2702 1.970 . S
Li2643 O2703 1.956 . S
C2644 C2646 1.348 . S
C2644 C2647 1.356 . S
C2644 O2700 1.325 . S
N2645 C2648 1.314 . S
N2645 C2649 1.279 . S
C2646 C2644 1.348 . S
C2646 C2648 1.353 . S
C2646 H2704 0.929 . S
C2647 C2644 1.356 . S
C2647 C2649 1.358 . S
C2647 H2705 0.930 . S
C2648 N2645 1.314 . S
C2648 C2646 1.353 . S
C2648 H2706 0.930 . S
C2649 N2645 1.279 . S
C2649 C2647 1.358 . S
C2649 H2707 0.930 . S
C2650 C2653 1.348 . S
C2650 C2654 1.356 . S
C2650 O2701 1.325 . S
C2651 N2652 1.279 . S
C2651 C2654 1.358 . S
C2651 H2708 0.930 . S
N2652 C2651 1.279 . S
N2652 C2655 1.314 . S
C2653 C2650 1.348 . S
C2653 C2655 1.353 . S
C2653 H2709 0.929 . S
C2654 C2650 1.356 . S
C2654 C2651 1.358 . S
C2654 H2710 0.930 . S
C2655 N2652 1.314 . S
C2655 C2653 1.353 . S
C2655 H2711 0.930 . S
C2656 N2657 1.314 . S
C2656 C2661 1.353 . S
C2656 H2662 0.930 . S
N2657 Li2640 1.990 . S
N2657 C2656 1.314 . S
N2657 C2659 1.279 . S
C2658 C2659 1.358 . S
C2658 C2660 1.356 . S
C2658 H2712 0.930 . S
C2659 N2657 1.279 . S
C2659 C2658 1.358 . S
C2659 H2663 0.930 . S
C2660 C2658 1.356 . S
C2660 C2661 1.348 . S
C2661 C2656 1.353 . S
C2661 C2660 1.348 . S
C2661 H2713 0.929 . S
H2662 C2656 0.930 . S
H2663 C2659 0.930 . S
C2664 N2665 1.314 . S
C2664 C2666 1.353 . S
C2664 H2670 0.930 . S
N2665 Li2641 1.990 . S
N2665 C2664 1.314 . S
N2665 C2668 1.279 . S
C2666 C2664 1.353 . S
C2666 C2669 1.348 . S
C2666 H2714 0.929 . S
C2667 C2668 1.358 . S
C2667 C2669 1.356 . S
C2667 H2715 0.930 . S
C2668 N2665 1.279 . S
C2668 C2667 1.358 . S
C2668 H2671 0.930 . S
C2669 C2666 1.348 . S
C2669 C2667 1.356 . S
H2670 C2664 0.930 . S
H2671 C2668 0.930 . S
C2672 C2674 1.348 . S
C2672 C2675 1.356 . S
C2672 O2702 1.325 . S
N2673 C2676 1.314 . S
N2673 C2677 1.279 . S
C2674 C2672 1.348 . S
C2674 C2676 1.353 . S
C2674 H2716 0.929 . S
C2675 C2672 1.356 . S
C2675 C2677 1.358 . S
C2675 H2717 0.930 . S
C2676 N2673 1.314 . S
C2676 C2674 1.353 . S
C2676 H2718 0.930 . S
C2677 N2673 1.279 . S
C2677 C2675 1.358 . S
C2677 H2719 0.930 . S
C2678 C2679 1.348 . S
C2678 C2680 1.356 . S
C2678 O2703 1.325 . S
C2679 C2678 1.348 . S
C2679 C2681 1.353 . S
C2679 H2720 0.929 . S
C2680 C2678 1.356 . S
C2680 C2682 1.358 . S
C2680 H2721 0.930 . S
C2681 C2679 1.353 . S
C2681 N2683 1.314 . S
C2681 H2722 0.930 . S
C2682 C2680 1.358 . S
C2682 N2683 1.279 . S
C2682 H2723 0.930 . S
N2683 C2681 1.314 . S
N2683 C2682 1.279 . S
C2684 C2686 1.353 . S
C2684 N2687 1.314 . S
C2684 H2690 0.930 . S
C2685 N2687 1.279 . S
C2685 C2688 1.358 . S
C2685 H2691 0.930 . S
C2686 C2684 1.353 . S
C2686 C2689 1.348 . S
C2686 H2724 0.929 . S
N2687 Li2642 1.990 . S
N2687 C2684 1.314 . S
N2687 C2685 1.279 . S
C2688 C2685 1.358 . S
C2688 C2689 1.356 . S
C2688 H2725 0.930 . S
C2689 C2686 1.348 . S
C2689 C2688 1.356 . S
H2690 C2684 0.930 . S
H2691 C2685 0.930 . S
C2692 N2693 1.314 . S
C2692 C2694 1.353 . S
C2692 H2698 0.930 . S
N2693 Li2643 1.990 . S
N2693 C2692 1.314 . S
N2693 C2696 1.279 . S
C2694 C2692 1.353 . S
C2694 C2697 1.348 . S
C2694 H2726 0.929 . S
C2695 C2696 1.358 . S
C2695 C2697 1.356 . S
C2695 H2727 0.930 . S
C2696 N2693 1.279 . S
C2696 C2695 1.358 . S
C2696 H2699 0.930 . S
C2697 C2694 1.348 . S
C2697 C2695 1.356 . S
H2698 C2692 0.930 . S
H2699 C2696 0.930 . S
O2700 Li2640 1.956 . S
O2700 Li2641 1.970 . S
O2700 Li2642 1.961 . S
O2700 C2644 1.325 . S
O2701 Li2640 1.970 . S
O2701 Li2641 1.956 . S
O2701 Li2643 1.961 . S
O2701 C2650 1.325 . S
O2702 Li2640 1.961 . S
O2702 Li2642 1.956 . S
O2702 Li2643 1.970 . S
O2702 C2672 1.325 . S
O2703 Li2641 1.961 . S
O2703 Li2642 1.970 . S
O2703 Li2643 1.956 . S
O2703 C2678 1.325 . S
H2704 C2646 0.929 . S
H2705 C2647 0.930 . S
H2706 C2648 0.930 . S
H2707 C2649 0.930 . S
H2708 C2651 0.930 . S
H2709 C2653 0.929 . S
H2710 C2654 0.930 . S
H2711 C2655 0.930 . S
H2712 C2658 0.930 . S
H2713 C2661 0.929 . S
H2714 C2666 0.929 . S
H2715 C2667 0.930 . S
H2716 C2674 0.929 . S
H2717 C2675 0.930 . S
H2718 C2676 0.930 . S
H2719 C2677 0.930 . S
H2720 C2679 0.929 . S
H2721 C2680 0.930 . S
H2722 C2681 0.930 . S
H2723 C2682 0.930 . S
H2724 C2686 0.929 . S
H2725 C2688 0.930 . S
H2726 C2694 0.929 . S
H2727 C2695 0.930 . S
Li2728 N2745 1.990 . S
Li2728 O2788 1.956 . S
Li2728 O2789 1.970 . S
Li2728 O2790 1.961 . S
Li2729 N2753 1.990 . S
Li2729 O2788 1.970 . S
Li2729 O2789 1.956 . S
Li2729 O2791 1.961 . S
Li2730 N2775 1.990 . S
Li2730 O2788 1.961 . S
Li2730 O2790 1.956 . S
Li2730 O2791 1.970 . S
Li2731 N2781 1.990 . S
Li2731 O2789 1.961 . S
Li2731 O2790 1.970 . S
Li2731 O2791 1.956 . S
C2732 C2734 1.348 . S
C2732 C2735 1.356 . S
C2732 O2788 1.325 . S
N2733 C2736 1.314 . S
N2733 C2737 1.279 . S
C2734 C2732 1.348 . S
C2734 C2736 1.353 . S
C2734 H2792 0.929 . S
C2735 C2732 1.356 . S
C2735 C2737 1.358 . S
C2735 H2793 0.930 . S
C2736 N2733 1.314 . S
C2736 C2734 1.353 . S
C2736 H2794 0.930 . S
C2737 N2733 1.279 . S
C2737 C2735 1.358 . S
C2737 H2795 0.930 . S
C2738 C2741 1.348 . S
C2738 C2742 1.356 . S
C2738 O2789 1.325 . S
C2739 N2740 1.279 . S
C2739 C2742 1.358 . S
C2739 H2796 0.930 . S
N2740 C2739 1.279 . S
N2740 C2743 1.314 . S
C2741 C2738 1.348 . S
C2741 C2743 1.353 . S
C2741 H2797 0.929 . S
C2742 C2738 1.356 . S
C2742 C2739 1.358 . S
C2742 H2798 0.930 . S
C2743 N2740 1.314 . S
C2743 C2741 1.353 . S
C2743 H2799 0.930 . S
C2744 N2745 1.314 . S
C2744 C2749 1.353 . S
C2744 H2750 0.930 . S
N2745 Li2728 1.990 . S
N2745 C2744 1.314 . S
N2745 C2747 1.279 . S
C2746 C2747 1.358 . S
C2746 C2748 1.356 . S
C2746 H2800 0.930 . S
C2747 N2745 1.279 . S
C2747 C2746 1.358 . S
C2747 H2751 0.930 . S
C2748 C2746 1.356 . S
C2748 C2749 1.348 . S
C2749 C2744 1.353 . S
C2749 C2748 1.348 . S
C2749 H2801 0.929 . S
H2750 C2744 0.930 . S
H2751 C2747 0.930 . S
C2752 N2753 1.314 . S
C2752 C2754 1.353 . S
C2752 H2758 0.930 . S
N2753 Li2729 1.990 . S
N2753 C2752 1.314 . S
N2753 C2756 1.279 . S
C2754 C2752 1.353 . S
C2754 C2757 1.348 . S
C2754 H2802 0.929 . S
C2755 C2756 1.358 . S
C2755 C2757 1.356 . S
C2755 H2803 0.930 . S
C2756 N2753 1.279 . S
C2756 C2755 1.358 . S
C2756 H2759 0.930 . S
C2757 C2754 1.348 . S
C2757 C2755 1.356 . S
H2758 C2752 0.930 . S
H2759 C2756 0.930 . S
C2760 C2762 1.348 . S
C2760 C2763 1.356 . S
C2760 O2790 1.325 . S
N2761 C2764 1.314 . S
N2761 C2765 1.279 . S
C2762 C2760 1.348 . S
C2762 C2764 1.353 . S
C2762 H2804 0.929 . S
C2763 C2760 1.356 . S
C2763 C2765 1.358 . S
C2763 H2805 0.930 . S
C2764 N2761 1.314 . S
C2764 C2762 1.353 . S
C2764 H2806 0.930 . S
C2765 N2761 1.279 . S
C2765 C2763 1.358 . S
C2765 H2807 0.930 . S
C2766 C2767 1.348 . S
C2766 C2768 1.356 . S
C2766 O2791 1.325 . S
C2767 C2766 1.348 . S
C2767 C2769 1.353 . S
C2767 H2808 0.929 . S
C2768 C2766 1.356 . S
C2768 C2770 1.358 . S
C2768 H2809 0.930 . S
C2769 C2767 1.353 . S
C2769 N2771 1.314 . S
C2769 H2810 0.930 . S
C2770 C2768 1.358 . S
C2770 N2771 1.279 . S
C2770 H2811 0.930 . S
N2771 C2769 1.314 . S
N2771 C2770 1.279 . S
C2772 C2774 1.353 . S
C2772 N2775 1.314 . S
C2772 H2778 0.930 . S
C2773 N2775 1.279 . S
C2773 C2776 1.358 . S
C2773 H2779 0.930 . S
C2774 C2772 1.353 . S
C2774 C2777 1.348 . S
C2774 H2812 0.929 . S
N2775 Li2730 1.990 . S
N2775 C2772 1.314 . S
N2775 C2773 1.279 . S
C2776 C2773 1.358 . S
C2776 C2777 1.356 . S
C2776 H2813 0.930 . S
C2777 C2774 1.348 . S
C2777 C2776 1.356 . S
H2778 C2772 0.930 . S
H2779 C2773 0.930 . S
C2780 N2781 1.314 . S
C2780 C2782 1.353 . S
C2780 H2786 0.930 . S
N2781 Li2731 1.990 . S
N2781 C2780 1.314 . S
N2781 C2784 1.279 . S
C2782 C2780 1.353 . S
C2782 C2785 1.348 . S
C2782 H2814 0.929 . S
C2783 C2784 1.358 . S
C2783 C2785 1.356 . S
C2783 H2815 0.930 . S
C2784 N2781 1.279 . S
C2784 C2783 1.358 . S
C2784 H2787 0.930 . S
C2785 C2782 1.348 . S
C2785 C2783 1.356 . S
H2786 C2780 0.930 . S
H2787 C2784 0.930 . S
O2788 Li2728 1.956 . S
O2788 Li2729 1.970 . S
O2788 Li2730 1.961 . S
O2788 C2732 1.325 . S
O2789 Li2728 1.970 . S
O2789 Li2729 1.956 . S
O2789 Li2731 1.961 . S
O2789 C2738 1.325 . S
O2790 Li2728 1.961 . S
O2790 Li2730 1.956 . S
O2790 Li2731 1.970 . S
O2790 C2760 1.325 . S
O2791 Li2729 1.961 . S
O2791 Li2730 1.970 . S
O2791 Li2731 1.956 . S
O2791 C2766 1.325 . S
H2792 C2734 0.929 . S
H2793 C2735 0.930 . S
H2794 C2736 0.930 . S
H2795 C2737 0.930 . S
H2796 C2739 0.930 . S
H2797 C2741 0.929 . S
H2798 C2742 0.930 . S
H2799 C2743 0.930 . S
H2800 C2746 0.930 . S
H2801 C2749 0.929 . S
H2802 C2754 0.929 . S
H2803 C2755 0.930 . S
H2804 C2762 0.929 . S
H2805 C2763 0.930 . S
H2806 C2764 0.930 . S
H2807 C2765 0.930 . S
H2808 C2767 0.929 . S
H2809 C2768 0.930 . S
H2810 C2769 0.930 . S
H2811 C2770 0.930 . S
H2812 C2774 0.929 . S
H2813 C2776 0.930 . S
H2814 C2782 0.929 . S
H2815 C2783 0.930 . S
C2816 C2817 1.387 . S
C2816 H2820 0.950 . S
C2816 C2825 1.390 1_565 S
C2817 C2816 1.387 . S
C2817 C2819 1.387 . S
H2818 C2825 0.950 . S
C2819 C2817 1.387 . S
C2819 C2821 1.390 1_565 S
C2819 H2823 0.950 . S
H2820 C2816 0.950 . S
C2821 C2819 1.390 1_545 S
C2821 C2822 1.387 . S
C2821 H2824 0.950 . S
C2822 C2821 1.387 . S
C2822 C2825 1.387 . S
H2823 C2819 0.950 . S
H2824 C2821 0.950 . S
C2825 C2816 1.390 1_545 S
C2825 H2818 0.950 . S
C2825 C2822 1.387 . S
C2826 C2827 1.387 . S
C2826 H2830 0.950 . S
C2826 C2835 1.390 . S
C2827 C2826 1.387 . S
C2827 C2829 1.387 . S
H2828 C2835 0.950 . S
C2829 C2827 1.387 . S
C2829 C2831 1.390 . S
C2829 H2833 0.950 . S
H2830 C2826 0.950 . S
C2831 C2829 1.390 . S
C2831 C2832 1.387 . S
C2831 H2834 0.950 . S
C2832 C2831 1.387 . S
C2832 C2835 1.387 . S
H2833 C2829 0.950 . S
H2834 C2831 0.950 . S
C2835 C2826 1.390 . S
C2835 H2828 0.950 . S
C2835 C2832 1.387 . S
C2836 C2837 1.387 . S
C2836 H2840 0.950 . S
C2836 C2845 1.390 1_545 S
C2837 C2836 1.387 . S
C2837 C2839 1.387 . S
H2838 C2845 0.950 . S
C2839 C2837 1.387 . S
C2839 C2841 1.390 1_545 S
C2839 H2843 0.950 . S
H2840 C2836 0.950 . S
C2841 C2839 1.390 1_565 S
C2841 C2842 1.387 . S
C2841 H2844 0.950 . S
C2842 C2841 1.387 . S
C2842 C2845 1.387 . S
H2843 C2839 0.950 . S
H2844 C2841 0.950 . S
C2845 C2836 1.390 1_565 S
C2845 H2838 0.950 . S
C2845 C2842 1.387 . S
C2846 C2847 1.387 . S
C2846 H2850 0.950 . S
C2846 C2855 1.390 1_556 S
C2847 C2846 1.387 . S
C2847 C2849 1.387 . S
H2848 C2855 0.950 . S
C2849 C2847 1.387 . S
C2849 C2851 1.390 1_556 S
C2849 H2853 0.950 . S
H2850 C2846 0.950 . S
C2851 C2849 1.390 1_554 S
C2851 C2852 1.387 . S
C2851 H2854 0.950 . S
C2852 C2851 1.387 . S
C2852 C2855 1.387 . S
H2853 C2849 0.950 . S
H2854 C2851 0.950 . S
C2855 C2846 1.390 1_554 S
C2855 H2848 0.950 . S
C2855 C2852 1.387 . S
C2856 C2857 1.387 . S
C2856 H2860 0.950 . S
C2856 C2865 1.390 1_565 S
C2857 C2856 1.387 . S
C2857 C2859 1.387 . S
H2858 C2865 0.950 . S
C2859 C2857 1.387 . S
C2859 C2861 1.390 1_565 S
C2859 H2863 0.950 . S
H2860 C2856 0.950 . S
C2861 C2859 1.390 1_545 S
C2861 C2862 1.387 . S
C2861 H2864 0.950 . S
C2862 C2861 1.387 . S
C2862 C2865 1.387 . S
H2863 C2859 0.950 . S
H2864 C2861 0.950 . S
C2865 C2856 1.390 1_545 S
C2865 H2858 0.950 . S
C2865 C2862 1.387 . S
C2866 C2867 1.387 . S
C2866 H2870 0.950 . S
C2866 C2875 1.390 . S
C2867 C2866 1.387 . S
C2867 C2869 1.387 . S
H2868 C2875 0.950 . S
C2869 C2867 1.387 . S
C2869 C2871 1.390 . S
C2869 H2873 0.950 . S
H2870 C2866 0.950 . S
C2871 C2869 1.390 . S
C2871 C2872 1.387 . S
C2871 H2874 0.950 . S
C2872 C2871 1.387 . S
C2872 C2875 1.387 . S
H2873 C2869 0.950 . S
H2874 C2871 0.950 . S
C2875 C2866 1.390 . S
C2875 H2868 0.950 . S
C2875 C2872 1.387 . S
C2876 C2877 1.387 . S
C2876 H2880 0.950 . S
C2876 C2885 1.390 1_545 S
C2877 C2876 1.387 . S
C2877 C2879 1.387 . S
H2878 C2885 0.950 . S
C2879 C2877 1.387 . S
C2879 C2881 1.390 1_545 S
C2879 H2883 0.950 . S
H2880 C2876 0.950 . S
C2881 C2879 1.390 1_565 S
C2881 C2882 1.387 . S
C2881 H2884 0.950 . S
C2882 C2881 1.387 . S
C2882 C2885 1.387 . S
H2883 C2879 0.950 . S
H2884 C2881 0.950 . S
C2885 C2876 1.390 1_565 S
C2885 H2878 0.950 . S
C2885 C2882 1.387 . S
C2886 C2887 1.387 . S
C2886 H2890 0.950 . S
C2886 C2895 1.390 1_556 S
C2887 C2886 1.387 . S
C2887 C2889 1.387 . S
H2888 C2895 0.950 . S
C2889 C2887 1.387 . S
C2889 C2891 1.390 1_556 S
C2889 H2893 0.950 . S
H2890 C2886 0.950 . S
C2891 C2889 1.390 1_554 S
C2891 C2892 1.387 . S
C2891 H2894 0.950 . S
C2892 C2891 1.387 . S
C2892 C2895 1.387 . S
H2893 C2889 0.950 . S
H2894 C2891 0.950 . S
C2895 C2886 1.390 1_554 S
C2895 H2888 0.950 . S
C2895 C2892 1.387 . S
C2896 C2897 1.387 . S
C2896 H2900 0.950 . S
C2896 C2905 1.390 . S
C2897 C2896 1.387 . S
C2897 C2899 1.387 . S
H2898 C2905 0.950 . S
C2899 C2897 1.387 . S
C2899 C2901 1.390 . S
C2899 H2903 0.950 . S
H2900 C2896 0.950 . S
C2901 C2899 1.390 . S
C2901 C2902 1.387 . S
C2901 H2904 0.950 . S
C2902 C2901 1.387 . S
C2902 C2905 1.387 . S
H2903 C2899 0.950 . S
H2904 C2901 0.950 . S
C2905 C2896 1.390 . S
C2905 H2898 0.950 . S
C2905 C2902 1.387 . S
C2906 C2907 1.387 . S
C2906 H2910 0.950 . S
C2906 C2915 1.390 1_554 S
C2907 C2906 1.387 . S
C2907 C2909 1.387 . S
H2908 C2915 0.950 . S
C2909 C2907 1.387 . S
C2909 C2911 1.390 1_554 S
C2909 H2913 0.950 . S
H2910 C2906 0.950 . S
C2911 C2909 1.390 1_556 S
C2911 C2912 1.387 . S
C2911 H2914 0.950 . S
C2912 C2911 1.387 . S
C2912 C2915 1.387 . S
H2913 C2909 0.950 . S
H2914 C2911 0.950 . S
C2915 C2906 1.390 1_556 S
C2915 H2908 0.950 . S
C2915 C2912 1.387 . S
C2916 C2917 1.387 . S
C2916 H2920 0.950 . S
C2916 C2925 1.390 . S
C2917 C2916 1.387 . S
C2917 C2919 1.387 . S
H2918 C2925 0.950 . S
C2919 C2917 1.387 . S
C2919 C2921 1.390 . S
C2919 H2923 0.950 . S
H2920 C2916 0.950 . S
C2921 C2919 1.390 . S
C2921 C2922 1.387 . S
C2921 H2924 0.950 . S
C2922 C2921 1.387 . S
C2922 C2925 1.387 . S
H2923 C2919 0.950 . S
H2924 C2921 0.950 . S
C2925 C2916 1.390 . S
C2925 H2918 0.950 . S
C2925 C2922 1.387 . S
C2926 C2927 1.387 . S
C2926 H2930 0.950 . S
C2926 C2935 1.390 . S
C2927 C2926 1.387 . S
C2927 C2929 1.387 . S
H2928 C2935 0.950 . S
C2929 C2927 1.387 . S
C2929 C2931 1.390 . S
C2929 H2933 0.950 . S
H2930 C2926 0.950 . S
C2931 C2929 1.390 . S
C2931 C2932 1.387 . S
C2931 H2934 0.950 . S
C2932 C2931 1.387 . S
C2932 C2935 1.387 . S
H2933 C2929 0.950 . S
H2934 C2931 0.950 . S
C2935 C2926 1.390 . S
C2935 H2928 0.950 . S
C2935 C2932 1.387 . S
C2936 C2937 1.387 . S
C2936 H2940 0.950 . S
C2936 C2945 1.390 . S
C2937 C2936 1.387 . S
C2937 C2939 1.387 . S
H2938 C2945 0.950 . S
C2939 C2937 1.387 . S
C2939 C2941 1.390 . S
C2939 H2943 0.950 . S
H2940 C2936 0.950 . S
C2941 C2939 1.390 . S
C2941 C2942 1.387 . S
C2941 H2944 0.950 . S
C2942 C2941 1.387 . S
C2942 C2945 1.387 . S
H2943 C2939 0.950 . S
H2944 C2941 0.950 . S
C2945 C2936 1.390 . S
C2945 H2938 0.950 . S
C2945 C2942 1.387 . S
C2946 C2947 1.387 . S
C2946 H2950 0.950 . S
C2946 C2955 1.390 1_554 S
C2947 C2946 1.387 . S
C2947 C2949 1.387 . S
H2948 C2955 0.950 . S
C2949 C2947 1.387 . S
C2949 C2951 1.390 1_554 S
C2949 H2953 0.950 . S
H2950 C2946 0.950 . S
C2951 C2949 1.390 1_556 S
C2951 C2952 1.387 . S
C2951 H2954 0.950 . S
C2952 C2951 1.387 . S
C2952 C2955 1.387 . S
H2953 C2949 0.950 . S
H2954 C2951 0.950 . S
C2955 C2946 1.390 1_556 S
C2955 H2948 0.950 . S
C2955 C2952 1.387 . S
C2956 C2957 1.387 . S
C2956 H2960 0.950 . S
C2956 C2965 1.390 . S
C2957 C2956 1.387 . S
C2957 C2959 1.387 . S
H2958 C2965 0.950 . S
C2959 C2957 1.387 . S
C2959 C2961 1.390 . S
C2959 H2963 0.950 . S
H2960 C2956 0.950 . S
C2961 C2959 1.390 . S
C2961 C2962 1.387 . S
C2961 H2964 0.950 . S
C2962 C2961 1.387 . S
C2962 C2965 1.387 . S
H2963 C2959 0.950 . S
H2964 C2961 0.950 . S
C2965 C2956 1.390 . S
C2965 H2958 0.950 . S
C2965 C2962 1.387 . S
C2966 C2967 1.387 . S
C2966 H2970 0.950 . S
C2966 C2975 1.390 . S
C2967 C2966 1.387 . S
C2967 C2969 1.387 . S
H2968 C2975 0.950 . S
C2969 C2967 1.387 . S
C2969 C2971 1.390 . S
C2969 H2973 0.950 . S
H2970 C2966 0.950 . S
C2971 C2969 1.390 . S
C2971 C2972 1.387 . S
C2971 H2974 0.950 . S
C2972 C2971 1.387 . S
C2972 C2975 1.387 . S
H2973 C2969 0.950 . S
H2974 C2971 0.950 . S
C2975 C2966 1.390 . S
C2975 H2968 0.950 . S
C2975 C2972 1.387 . S
C2976 C2977 1.387 . S
C2976 H2980 0.950 . S
C2976 C2985 1.390 . S
C2977 C2976 1.387 . S
C2977 C2979 1.387 . S
H2978 C2985 0.950 . S
C2979 C2977 1.387 . S
C2979 C2981 1.390 . S
C2979 H2983 0.950 . S
H2980 C2976 0.950 . S
C2981 C2979 1.390 . S
C2981 C2982 1.387 . S
C2981 H2984 0.950 . S
C2982 C2981 1.387 . S
C2982 C2985 1.387 . S
H2983 C2979 0.950 . S
H2984 C2981 0.950 . S
C2985 C2976 1.390 . S
C2985 H2978 0.950 . S
C2985 C2982 1.387 . S
C2986 C2987 1.387 . S
C2986 H2990 0.950 . S
C2986 C2995 1.390 . S
C2987 C2986 1.387 . S
C2987 C2989 1.387 . S
H2988 C2995 0.950 . S
C2989 C2987 1.387 . S
C2989 C2991 1.390 . S
C2989 H2993 0.950 . S
H2990 C2986 0.950 . S
C2991 C2989 1.390 . S
C2991 C2992 1.387 . S
C2991 H2994 0.950 . S
C2992 C2991 1.387 . S
C2992 C2995 1.387 . S
H2993 C2989 0.950 . S
H2994 C2991 0.950 . S
C2995 C2986 1.390 . S
C2995 H2988 0.950 . S
C2995 C2992 1.387 . S
C2996 C2997 1.387 . S
C2996 H3000 0.950 . S
C2996 C3005 1.390 . S
C2997 C2996 1.387 . S
C2997 C2999 1.387 . S
H2998 C3005 0.950 . S
C2999 C2997 1.387 . S
C2999 C3001 1.390 . S
C2999 H3003 0.950 . S
H3000 C2996 0.950 . S
C3001 C2999 1.390 . S
C3001 C3002 1.387 . S
C3001 H3004 0.950 . S
C3002 C3001 1.387 . S
C3002 C3005 1.387 . S
H3003 C2999 0.950 . S
H3004 C3001 0.950 . S
C3005 C2996 1.390 . S
C3005 H2998 0.950 . S
C3005 C3002 1.387 . S
C3006 C3007 1.387 . S
C3006 H3010 0.950 . S
C3006 C3015 1.390 . S
C3007 C3006 1.387 . S
C3007 C3009 1.387 . S
H3008 C3015 0.950 . S
C3009 C3007 1.387 . S
C3009 C3011 1.390 . S
C3009 H3013 0.950 . S
H3010 C3006 0.950 . S
C3011 C3009 1.390 . S
C3011 C3012 1.387 . S
C3011 H3014 0.950 . S
C3012 C3011 1.387 . S
C3012 C3015 1.387 . S
H3013 C3009 0.950 . S
H3014 C3011 0.950 . S
C3015 C3006 1.390 . S
C3015 H3008 0.950 . S
C3015 C3012 1.387 . S
C3016 C3017 1.387 . S
C3016 H3020 0.950 . S
C3016 C3025 1.390 . S
C3017 C3016 1.387 . S
C3017 C3019 1.387 . S
H3018 C3025 0.950 . S
C3019 C3017 1.387 . S
C3019 C3021 1.390 . S
C3019 H3023 0.950 . S
H3020 C3016 0.950 . S
C3021 C3019 1.390 . S
C3021 C3022 1.387 . S
C3021 H3024 0.950 . S
C3022 C3021 1.387 . S
C3022 C3025 1.387 . S
H3023 C3019 0.950 . S
H3024 C3021 0.950 . S
C3025 C3016 1.390 . S
C3025 H3018 0.950 . S
C3025 C3022 1.387 . S
C3026 C3027 1.387 . S
C3026 H3030 0.950 . S
C3026 C3035 1.390 . S
C3027 C3026 1.387 . S
C3027 C3029 1.387 . S
H3028 C3035 0.950 . S
C3029 C3027 1.387 . S
C3029 C3031 1.390 . S
C3029 H3033 0.950 . S
H3030 C3026 0.950 . S
C3031 C3029 1.390 . S
C3031 C3032 1.387 . S
C3031 H3034 0.950 . S
C3032 C3031 1.387 . S
C3032 C3035 1.387 . S
H3033 C3029 0.950 . S
H3034 C3031 0.950 . S
C3035 C3026 1.390 . S
C3035 H3028 0.950 . S
C3035 C3032 1.387 . S
C3036 C3037 1.387 . S
C3036 H3040 0.950 . S
C3036 C3045 1.390 . S
C3037 C3036 1.387 . S
C3037 C3039 1.387 . S
H3038 C3045 0.950 . S
C3039 C3037 1.387 . S
C3039 C3041 1.390 . S
C3039 H3043 0.950 . S
H3040 C3036 0.950 . S
C3041 C3039 1.390 . S
C3041 C3042 1.387 . S
C3041 H3044 0.950 . S
C3042 C3041 1.387 . S
C3042 C3045 1.387 . S
H3043 C3039 0.950 . S
H3044 C3041 0.950 . S
C3045 C3036 1.390 . S
C3045 H3038 0.950 . S
C3045 C3042 1.387 . S
C3046 C3047 1.387 . S
C3046 H3050 0.950 . S
C3046 C3055 1.390 . S
C3047 C3046 1.387 . S
C3047 C3049 1.387 . S
H3048 C3055 0.950 . S
C3049 C3047 1.387 . S
C3049 C3051 1.390 . S
C3049 H3053 0.950 . S
H3050 C3046 0.950 . S
C3051 C3049 1.390 . S
C3051 C3052 1.387 . S
C3051 H3054 0.950 . S
C3052 C3051 1.387 . S
C3052 C3055 1.387 . S
H3053 C3049 0.950 . S
H3054 C3051 0.950 . S
C3055 C3046 1.390 . S
C3055 H3048 0.950 . S
C3055 C3052 1.387 . S
C3056 C3057 1.387 . S
C3056 H3060 0.950 . S
C3056 C3065 1.390 . S
C3057 C3056 1.387 . S
C3057 C3059 1.387 . S
H3058 C3065 0.950 . S
C3059 C3057 1.387 . S
C3059 C3061 1.390 . S
C3059 H3063 0.950 . S
H3060 C3056 0.950 . S
C3061 C3059 1.390 . S
C3061 C3062 1.387 . S
C3061 H3064 0.950 . S
C3062 C3061 1.387 . S
C3062 C3065 1.387 . S
H3063 C3059 0.950 . S
H3064 C3061 0.950 . S
C3065 C3056 1.390 . S
C3065 H3058 0.950 . S
C3065 C3062 1.387 . S
C3066 C3067 1.387 . S
C3066 H3070 0.950 . S
C3066 C3075 1.390 . S
C3067 C3066 1.387 . S
C3067 C3069 1.387 . S
H3068 C3075 0.950 . S
C3069 C3067 1.387 . S
C3069 C3071 1.390 . S
C3069 H3073 0.950 . S
H3070 C3066 0.950 . S
C3071 C3069 1.390 . S
C3071 C3072 1.387 . S
C3071 H3074 0.950 . S
C3072 C3071 1.387 . S
C3072 C3075 1.387 . S
H3073 C3069 0.950 . S
H3074 C3071 0.950 . S
C3075 C3066 1.390 . S
C3075 H3068 0.950 . S
C3075 C3072 1.387 . S
C3076 C3077 1.387 . S
C3076 H3080 0.950 . S
C3076 C3085 1.390 . S
C3077 C3076 1.387 . S
C3077 C3079 1.387 . S
H3078 C3085 0.950 . S
C3079 C3077 1.387 . S
C3079 C3081 1.390 . S
C3079 H3083 0.950 . S
H3080 C3076 0.950 . S
C3081 C3079 1.390 . S
C3081 C3082 1.387 . S
C3081 H3084 0.950 . S
C3082 C3081 1.387 . S
C3082 C3085 1.387 . S
H3083 C3079 0.950 . S
H3084 C3081 0.950 . S
C3085 C3076 1.390 . S
C3085 H3078 0.950 . S
C3085 C3082 1.387 . S
C3086 C3087 1.387 . S
C3086 H3090 0.950 . S
C3086 C3095 1.390 . S
C3087 C3086 1.387 . S
C3087 C3089 1.387 . S
H3088 C3095 0.950 . S
C3089 C3087 1.387 . S
C3089 C3091 1.390 . S
C3089 H3093 0.950 . S
H3090 C3086 0.950 . S
C3091 C3089 1.390 . S
C3091 C3092 1.387 . S
C3091 H3094 0.950 . S
C3092 C3091 1.387 . S
C3092 C3095 1.387 . S
H3093 C3089 0.950 . S
H3094 C3091 0.950 . S
C3095 C3086 1.390 . S
C3095 H3088 0.950 . S
C3095 C3092 1.387 . S
C3096 C3097 1.387 . S
C3096 H3100 0.950 . S
C3096 C3105 1.390 . S
C3097 C3096 1.387 . S
C3097 C3099 1.387 . S
H3098 C3105 0.950 . S
C3099 C3097 1.387 . S
C3099 C3101 1.390 . S
C3099 H3103 0.950 . S
H3100 C3096 0.950 . S
C3101 C3099 1.390 . S
C3101 C3102 1.387 . S
C3101 H3104 0.950 . S
C3102 C3101 1.387 . S
C3102 C3105 1.387 . S
H3103 C3099 0.950 . S
H3104 C3101 0.950 . S
C3105 C3096 1.390 . S
C3105 H3098 0.950 . S
C3105 C3102 1.387 . S
C3106 C3107 1.387 . S
C3106 H3110 0.950 . S
C3106 C3115 1.390 . S
C3107 C3106 1.387 . S
C3107 C3109 1.387 . S
H3108 C3115 0.950 . S
C3109 C3107 1.387 . S
C3109 C3111 1.390 . S
C3109 H3113 0.950 . S
H3110 C3106 0.950 . S
C3111 C3109 1.390 . S
C3111 C3112 1.387 . S
C3111 H3114 0.950 . S
C3112 C3111 1.387 . S
C3112 C3115 1.387 . S
H3113 C3109 0.950 . S
H3114 C3111 0.950 . S
C3115 C3106 1.390 . S
C3115 H3108 0.950 . S
C3115 C3112 1.387 . S
C3116 C3117 1.387 . S
C3116 H3120 0.950 . S
C3116 C3125 1.390 . S
C3117 C3116 1.387 . S
C3117 C3119 1.387 . S
H3118 C3125 0.950 . S
C3119 C3117 1.387 . S
C3119 C3121 1.390 . S
C3119 H3123 0.950 . S
H3120 C3116 0.950 . S
C3121 C3119 1.390 . S
C3121 C3122 1.387 . S
C3121 H3124 0.950 . S
C3122 C3121 1.387 . S
C3122 C3125 1.387 . S
H3123 C3119 0.950 . S
H3124 C3121 0.950 . S
C3125 C3116 1.390 . S
C3125 H3118 0.950 . S
C3125 C3122 1.387 . S
C3126 C3127 1.387 . S
C3126 H3130 0.950 . S
C3126 C3135 1.390 . S
C3127 C3126 1.387 . S
C3127 C3129 1.387 . S
H3128 C3135 0.950 . S
C3129 C3127 1.387 . S
C3129 C3131 1.390 . S
C3129 H3133 0.950 . S
H3130 C3126 0.950 . S
C3131 C3129 1.390 . S
C3131 C3132 1.387 . S
C3131 H3134 0.950 . S
C3132 C3131 1.387 . S
C3132 C3135 1.387 . S
H3133 C3129 0.950 . S
H3134 C3131 0.950 . S
C3135 C3126 1.390 . S
C3135 H3128 0.950 . S
C3135 C3132 1.387 . S
C3136 C3137 1.387 . S
C3136 H3140 0.950 . S
C3136 C3145 1.390 . S
C3137 C3136 1.387 . S
C3137 C3139 1.387 . S
H3138 C3145 0.950 . S
C3139 C3137 1.387 . S
C3139 C3141 1.390 . S
C3139 H3143 0.950 . S
H3140 C3136 0.950 . S
C3141 C3139 1.390 . S
C3141 C3142 1.387 . S
C3141 H3144 0.950 . S
C3142 C3141 1.387 . S
C3142 C3145 1.387 . S
H3143 C3139 0.950 . S
H3144 C3141 0.950 . S
C3145 C3136 1.390 . S
C3145 H3138 0.950 . S
C3145 C3142 1.387 . S
C3146 C3147 1.387 . S
C3146 H3150 0.950 . S
C3146 C3155 1.390 . S
C3147 C3146 1.387 . S
C3147 C3149 1.387 . S
H3148 C3155 0.950 . S
C3149 C3147 1.387 . S
C3149 C3151 1.390 . S
C3149 H3153 0.950 . S
H3150 C3146 0.950 . S
C3151 C3149 1.390 . S
C3151 C3152 1.387 . S
C3151 H3154 0.950 . S
C3152 C3151 1.387 . S
C3152 C3155 1.387 . S
H3153 C3149 0.950 . S
H3154 C3151 0.950 . S
C3155 C3146 1.390 . S
C3155 H3148 0.950 . S
C3155 C3152 1.387 . S
C3156 C3157 1.387 . S
C3156 H3160 0.950 . S
C3156 C3165 1.390 . S
C3157 C3156 1.387 . S
C3157 C3159 1.387 . S
H3158 C3165 0.950 . S
C3159 C3157 1.387 . S
C3159 C3161 1.390 . S
C3159 H3163 0.950 . S
H3160 C3156 0.950 . S
C3161 C3159 1.390 . S
C3161 C3162 1.387 . S
C3161 H3164 0.950 . S
C3162 C3161 1.387 . S
C3162 C3165 1.387 . S
H3163 C3159 0.950 . S
H3164 C3161 0.950 . S
C3165 C3156 1.390 . S
C3165 H3158 0.950 . S
C3165 C3162 1.387 . S
C3166 C3167 1.387 . S
C3166 H3170 0.950 . S
C3166 C3175 1.390 . S
C3167 C3166 1.387 . S
C3167 C3169 1.387 . S
H3168 C3175 0.950 . S
C3169 C3167 1.387 . S
C3169 C3171 1.390 . S
C3169 H3173 0.950 . S
H3170 C3166 0.950 . S
C3171 C3169 1.390 . S
C3171 C3172 1.387 . S
C3171 H3174 0.950 . S
C3172 C3171 1.387 . S
C3172 C3175 1.387 . S
H3173 C3169 0.950 . S
H3174 C3171 0.950 . S
C3175 C3166 1.390 . S
C3175 H3168 0.950 . S
C3175 C3172 1.387 . S
C3176 C3177 1.387 . S
C3176 H3180 0.950 . S
C3176 C3185 1.390 . S
C3177 C3176 1.387 . S
C3177 C3179 1.387 . S
H3178 C3185 0.950 . S
C3179 C3177 1.387 . S
C3179 C3181 1.390 . S
C3179 H3183 0.950 . S
H3180 C3176 0.950 . S
C3181 C3179 1.390 . S
C3181 C3182 1.387 . S
C3181 H3184 0.950 . S
C3182 C3181 1.387 . S
C3182 C3185 1.387 . S
H3183 C3179 0.950 . S
H3184 C3181 0.950 . S
C3185 C3176 1.390 . S
C3185 H3178 0.950 . S
C3185 C3182 1.387 . S
C3186 C3187 1.387 . S
C3186 H3190 0.950 . S
C3186 C3195 1.390 . S
C3187 C3186 1.387 . S
C3187 C3189 1.387 . S
H3188 C3195 0.950 . S
C3189 C3187 1.387 . S
C3189 C3191 1.390 . S
C3189 H3193 0.950 . S
H3190 C3186 0.950 . S
C3191 C3189 1.390 . S
C3191 C3192 1.387 . S
C3191 H3194 0.950 . S
C3192 C3191 1.387 . S
C3192 C3195 1.387 . S
H3193 C3189 0.950 . S
H3194 C3191 0.950 . S
C3195 C3186 1.390 . S
C3195 H3188 0.950 . S
C3195 C3192 1.387 . S
C3196 C3197 1.387 . S
C3196 H3200 0.950 . S
C3196 C3205 1.390 . S
C3197 C3196 1.387 . S
C3197 C3199 1.387 . S
H3198 C3205 0.950 . S
C3199 C3197 1.387 . S
C3199 C3201 1.390 . S
C3199 H3203 0.950 . S
H3200 C3196 0.950 . S
C3201 C3199 1.390 . S
C3201 C3202 1.387 . S
C3201 H3204 0.950 . S
C3202 C3201 1.387 . S
C3202 C3205 1.387 . S
H3203 C3199 0.950 . S
H3204 C3201 0.950 . S
C3205 C3196 1.390 . S
C3205 H3198 0.950 . S
C3205 C3202 1.387 . S
C3206 C3207 1.387 . S
C3206 H3210 0.950 . S
C3206 C3215 1.390 . S
C3207 C3206 1.387 . S
C3207 C3209 1.387 . S
H3208 C3215 0.950 . S
C3209 C3207 1.387 . S
C3209 C3211 1.390 . S
C3209 H3213 0.950 . S
H3210 C3206 0.950 . S
C3211 C3209 1.390 . S
C3211 C3212 1.387 . S
C3211 H3214 0.950 . S
C3212 C3211 1.387 . S
C3212 C3215 1.387 . S
H3213 C3209 0.950 . S
H3214 C3211 0.950 . S
C3215 C3206 1.390 . S
C3215 H3208 0.950 . S
C3215 C3212 1.387 . S
C3216 C3217 1.387 . S
C3216 H3220 0.950 . S
C3216 C3225 1.390 . S
C3217 C3216 1.387 . S
C3217 C3219 1.387 . S
H3218 C3225 0.950 . S
C3219 C3217 1.387 . S
C3219 C3221 1.390 . S
C3219 H3223 0.950 . S
H3220 C3216 0.950 . S
C3221 C3219 1.390 . S
C3221 C3222 1.387 . S
C3221 H3224 0.950 . S
C3222 C3221 1.387 . S
C3222 C3225 1.387 . S
H3223 C3219 0.950 . S
H3224 C3221 0.950 . S
C3225 C3216 1.390 . S
C3225 H3218 0.950 . S
C3225 C3222 1.387 . S
C3226 C3227 1.387 . S
C3226 H3230 0.950 . S
C3226 C3235 1.390 . S
C3227 C3226 1.387 . S
C3227 C3229 1.387 . S
H3228 C3235 0.950 . S
C3229 C3227 1.387 . S
C3229 C3231 1.390 . S
C3229 H3233 0.950 . S
H3230 C3226 0.950 . S
C3231 C3229 1.390 . S
C3231 C3232 1.387 . S
C3231 H3234 0.950 . S
C3232 C3231 1.387 . S
C3232 C3235 1.387 . S
H3233 C3229 0.950 . S
H3234 C3231 0.950 . S
C3235 C3226 1.390 . S
C3235 H3228 0.950 . S
C3235 C3232 1.387 . S
C3236 C3237 1.387 . S
C3236 H3240 0.950 . S
C3236 C3245 1.390 . S
C3237 C3236 1.387 . S
C3237 C3239 1.387 . S
H3238 C3245 0.950 . S
C3239 C3237 1.387 . S
C3239 C3241 1.390 . S
C3239 H3243 0.950 . S
H3240 C3236 0.950 . S
C3241 C3239 1.390 . S
C3241 C3242 1.387 . S
C3241 H3244 0.950 . S
C3242 C3241 1.387 . S
C3242 C3245 1.387 . S
H3243 C3239 0.950 . S
H3244 C3241 0.950 . S
C3245 C3236 1.390 . S
C3245 H3238 0.950 . S
C3245 C3242 1.387 . S
C3246 C3247 1.387 . S
C3246 H3250 0.950 . S
C3246 C3255 1.390 . S
C3247 C3246 1.387 . S
C3247 C3249 1.387 . S
H3248 C3255 0.950 . S
C3249 C3247 1.387 . S
C3249 C3251 1.390 . S
C3249 H3253 0.950 . S
H3250 C3246 0.950 . S
C3251 C3249 1.390 . S
C3251 C3252 1.387 . S
C3251 H3254 0.950 . S
C3252 C3251 1.387 . S
C3252 C3255 1.387 . S
H3253 C3249 0.950 . S
H3254 C3251 0.950 . S
C3255 C3246 1.390 . S
C3255 H3248 0.950 . S
C3255 C3252 1.387 . S
C3256 C3257 1.387 . S
C3256 H3260 0.950 . S
C3256 C3265 1.390 . S
C3257 C3256 1.387 . S
C3257 C3259 1.387 . S
H3258 C3265 0.950 . S
C3259 C3257 1.387 . S
C3259 C3261 1.390 . S
C3259 H3263 0.950 . S
H3260 C3256 0.950 . S
C3261 C3259 1.390 . S
C3261 C3262 1.387 . S
C3261 H3264 0.950 . S
C3262 C3261 1.387 . S
C3262 C3265 1.387 . S
H3263 C3259 0.950 . S
H3264 C3261 0.950 . S
C3265 C3256 1.390 . S
C3265 H3258 0.950 . S
C3265 C3262 1.387 . S
C3266 C3267 1.387 . S
C3266 H3270 0.950 . S
C3266 C3275 1.390 . S
C3267 C3266 1.387 . S
C3267 C3269 1.387 . S
H3268 C3275 0.950 . S
C3269 C3267 1.387 . S
C3269 C3271 1.390 . S
C3269 H3273 0.950 . S
H3270 C3266 0.950 . S
C3271 C3269 1.390 . S
C3271 C3272 1.387 . S
C3271 H3274 0.950 . S
C3272 C3271 1.387 . S
C3272 C3275 1.387 . S
H3273 C3269 0.950 . S
H3274 C3271 0.950 . S
C3275 C3266 1.390 . S
C3275 H3268 0.950 . S
C3275 C3272 1.387 . S
C3276 C3277 1.387 . S
C3276 H3280 0.950 . S
C3276 C3285 1.390 . S
C3277 C3276 1.387 . S
C3277 C3279 1.387 . S
H3278 C3285 0.950 . S
C3279 C3277 1.387 . S
C3279 C3281 1.390 . S
C3279 H3283 0.950 . S
H3280 C3276 0.950 . S
C3281 C3279 1.390 . S
C3281 C3282 1.387 . S
C3281 H3284 0.950 . S
C3282 C3281 1.387 . S
C3282 C3285 1.387 . S
H3283 C3279 0.950 . S
H3284 C3281 0.950 . S
C3285 C3276 1.390 . S
C3285 H3278 0.950 . S
C3285 C3282 1.387 . S
C3286 C3287 1.387 . S
C3286 H3290 0.950 . S
C3286 C3295 1.390 . S
C3287 C3286 1.387 . S
C3287 C3289 1.387 . S
H3288 C3295 0.950 . S
C3289 C3287 1.387 . S
C3289 C3291 1.390 . S
C3289 H3293 0.950 . S
H3290 C3286 0.950 . S
C3291 C3289 1.390 . S
C3291 C3292 1.387 . S
C3291 H3294 0.950 . S
C3292 C3291 1.387 . S
C3292 C3295 1.387 . S
H3293 C3289 0.950 . S
H3294 C3291 0.950 . S
C3295 C3286 1.390 . S
C3295 H3288 0.950 . S
C3295 C3292 1.387 . S
C3296 C3297 1.387 . S
C3296 H3300 0.950 . S
C3296 C3305 1.390 . S
C3297 C3296 1.387 . S
C3297 C3299 1.387 . S
H3298 C3305 0.950 . S
C3299 C3297 1.387 . S
C3299 C3301 1.390 . S
C3299 H3303 0.950 . S
H3300 C3296 0.950 . S
C3301 C3299 1.390 . S
C3301 C3302 1.387 . S
C3301 H3304 0.950 . S
C3302 C3301 1.387 . S
C3302 C3305 1.387 . S
H3303 C3299 0.950 . S
H3304 C3301 0.950 . S
C3305 C3296 1.390 . S
C3305 H3298 0.950 . S
C3305 C3302 1.387 . S
C3306 C3307 1.387 . S
C3306 H3310 0.950 . S
C3306 C3315 1.390 . S
C3307 C3306 1.387 . S
C3307 C3309 1.387 . S
H3308 C3315 0.950 . S
C3309 C3307 1.387 . S
C3309 C3311 1.390 . S
C3309 H3313 0.950 . S
H3310 C3306 0.950 . S
C3311 C3309 1.390 . S
C3311 C3312 1.387 . S
C3311 H3314 0.950 . S
C3312 C3311 1.387 . S
C3312 C3315 1.387 . S
H3313 C3309 0.950 . S
H3314 C3311 0.950 . S
C3315 C3306 1.390 . S
C3315 H3308 0.950 . S
C3315 C3312 1.387 . S
C3316 C3317 1.387 . S
C3316 H3320 0.950 . S
C3316 C3325 1.390 . S
C3317 C3316 1.387 . S
C3317 C3319 1.387 . S
H3318 C3325 0.950 . S
C3319 C3317 1.387 . S
C3319 C3321 1.390 . S
C3319 H3323 0.950 . S
H3320 C3316 0.950 . S
C3321 C3319 1.390 . S
C3321 C3322 1.387 . S
C3321 H3324 0.950 . S
C3322 C3321 1.387 . S
C3322 C3325 1.387 . S
H3323 C3319 0.950 . S
H3324 C3321 0.950 . S
C3325 C3316 1.390 . S
C3325 H3318 0.950 . S
C3325 C3322 1.387 . S
C3326 C3327 1.387 . S
C3326 H3330 0.950 . S
C3326 C3335 1.390 . S
C3327 C3326 1.387 . S
C3327 C3329 1.387 . S
H3328 C3335 0.950 . S
C3329 C3327 1.387 . S
C3329 C3331 1.390 . S
C3329 H3333 0.950 . S
H3330 C3326 0.950 . S
C3331 C3329 1.390 . S
C3331 C3332 1.387 . S
C3331 H3334 0.950 . S
C3332 C3331 1.387 . S
C3332 C3335 1.387 . S
H3333 C3329 0.950 . S
H3334 C3331 0.950 . S
C3335 C3326 1.390 . S
C3335 H3328 0.950 . S
C3335 C3332 1.387 . S
C3336 C3337 1.387 . S
C3336 H3340 0.950 . S
C3336 C3345 1.390 . S
C3337 C3336 1.387 . S
C3337 C3339 1.387 . S
H3338 C3345 0.950 . S
C3339 C3337 1.387 . S
C3339 C3341 1.390 . S
C3339 H3343 0.950 . S
H3340 C3336 0.950 . S
C3341 C3339 1.390 . S
C3341 C3342 1.387 . S
C3341 H3344 0.950 . S
C3342 C3341 1.387 . S
C3342 C3345 1.387 . S
H3343 C3339 0.950 . S
H3344 C3341 0.950 . S
C3345 C3336 1.390 . S
C3345 H3338 0.950 . S
C3345 C3342 1.387 . S
C3346 C3347 1.387 . S
C3346 H3350 0.950 . S
C3346 C3355 1.390 . S
C3347 C3346 1.387 . S
C3347 C3349 1.387 . S
H3348 C3355 0.950 . S
C3349 C3347 1.387 . S
C3349 C3351 1.390 . S
C3349 H3353 0.950 . S
H3350 C3346 0.950 . S
C3351 C3349 1.390 . S
C3351 C3352 1.387 . S
C3351 H3354 0.950 . S
C3352 C3351 1.387 . S
C3352 C3355 1.387 . S
H3353 C3349 0.950 . S
H3354 C3351 0.950 . S
C3355 C3346 1.390 . S
C3355 H3348 0.950 . S
C3355 C3352 1.387 . S
C3356 C3357 1.387 . S
C3356 H3360 0.950 . S
C3356 C3365 1.390 . S
C3357 C3356 1.387 . S
C3357 C3359 1.387 . S
H3358 C3365 0.950 . S
C3359 C3357 1.387 . S
C3359 C3361 1.390 . S
C3359 H3363 0.950 . S
H3360 C3356 0.950 . S
C3361 C3359 1.390 . S
C3361 C3362 1.387 . S
C3361 H3364 0.950 . S
C3362 C3361 1.387 . S
C3362 C3365 1.387 . S
H3363 C3359 0.950 . S
H3364 C3361 0.950 . S
C3365 C3356 1.390 . S
C3365 H3358 0.950 . S
C3365 C3362 1.387 . S
C3366 C3367 1.387 . S
C3366 H3370 0.950 . S
C3366 C3375 1.390 . S
C3367 C3366 1.387 . S
C3367 C3369 1.387 . S
H3368 C3375 0.950 . S
C3369 C3367 1.387 . S
C3369 C3371 1.390 . S
C3369 H3373 0.950 . S
H3370 C3366 0.950 . S
C3371 C3369 1.390 . S
C3371 C3372 1.387 . S
C3371 H3374 0.950 . S
C3372 C3371 1.387 . S
C3372 C3375 1.387 . S
H3373 C3369 0.950 . S
H3374 C3371 0.950 . S
C3375 C3366 1.390 . S
C3375 H3368 0.950 . S
C3375 C3372 1.387 . S
C3376 C3377 1.387 . S
C3376 H3380 0.950 . S
C3376 C3385 1.390 . S
C3377 C3376 1.387 . S
C3377 C3379 1.387 . S
H3378 C3385 0.950 . S
C3379 C3377 1.387 . S
C3379 C3381 1.390 . S
C3379 H3383 0.950 . S
H3380 C3376 0.950 . S
C3381 C3379 1.390 . S
C3381 C3382 1.387 . S
C3381 H3384 0.950 . S
C3382 C3381 1.387 . S
C3382 C3385 1.387 . S
H3383 C3379 0.950 . S
H3384 C3381 0.950 . S
C3385 C3376 1.390 . S
C3385 H3378 0.950 . S
C3385 C3382 1.387 . S
C3386 C3387 1.387 . S
C3386 H3390 0.950 . S
C3386 C3395 1.390 . S
C3387 C3386 1.387 . S
C3387 C3389 1.387 . S
H3388 C3395 0.950 . S
C3389 C3387 1.387 . S
C3389 C3391 1.390 . S
C3389 H3393 0.950 . S
H3390 C3386 0.950 . S
C3391 C3389 1.390 . S
C3391 C3392 1.387 . S
C3391 H3394 0.950 . S
C3392 C3391 1.387 . S
C3392 C3395 1.387 . S
H3393 C3389 0.950 . S
H3394 C3391 0.950 . S
C3395 C3386 1.390 . S
C3395 H3388 0.950 . S
C3395 C3392 1.387 . S
C3396 C3397 1.387 . S
C3396 H3400 0.950 . S
C3396 C3405 1.390 . S
C3397 C3396 1.387 . S
C3397 C3399 1.387 . S
H3398 C3405 0.950 . S
C3399 C3397 1.387 . S
C3399 C3401 1.390 . S
C3399 H3403 0.950 . S
H3400 C3396 0.950 . S
C3401 C3399 1.390 . S
C3401 C3402 1.387 . S
C3401 H3404 0.950 . S
C3402 C3401 1.387 . S
C3402 C3405 1.387 . S
H3403 C3399 0.950 . S
H3404 C3401 0.950 . S
C3405 C3396 1.390 . S
C3405 H3398 0.950 . S
C3405 C3402 1.387 . S
C3406 C3407 1.387 . S
C3406 H3410 0.950 . S
C3406 C3415 1.390 . S
C3407 C3406 1.387 . S
C3407 C3409 1.387 . S
H3408 C3415 0.950 . S
C3409 C3407 1.387 . S
C3409 C3411 1.390 . S
C3409 H3413 0.950 . S
H3410 C3406 0.950 . S
C3411 C3409 1.390 . S
C3411 C3412 1.387 . S
C3411 H3414 0.950 . S
C3412 C3411 1.387 . S
C3412 C3415 1.387 . S
H3413 C3409 0.950 . S
H3414 C3411 0.950 . S
C3415 C3406 1.390 . S
C3415 H3408 0.950 . S
C3415 C3412 1.387 . S
C3416 C3417 1.387 . S
C3416 H3420 0.950 . S
C3416 C3425 1.390 . S
C3417 C3416 1.387 . S
C3417 C3419 1.387 . S
H3418 C3425 0.950 . S
C3419 C3417 1.387 . S
C3419 C3421 1.390 . S
C3419 H3423 0.950 . S
H3420 C3416 0.950 . S
C3421 C3419 1.390 . S
C3421 C3422 1.387 . S
C3421 H3424 0.950 . S
C3422 C3421 1.387 . S
C3422 C3425 1.387 . S
H3423 C3419 0.950 . S
H3424 C3421 0.950 . S
C3425 C3416 1.390 . S
C3425 H3418 0.950 . S
C3425 C3422 1.387 . S
C3426 C3427 1.387 . S
C3426 H3430 0.950 . S
C3426 C3435 1.390 . S
C3427 C3426 1.387 . S
C3427 C3429 1.387 . S
H3428 C3435 0.950 . S
C3429 C3427 1.387 . S
C3429 C3431 1.390 . S
C3429 H3433 0.950 . S
H3430 C3426 0.950 . S
C3431 C3429 1.390 . S
C3431 C3432 1.387 . S
C3431 H3434 0.950 . S
C3432 C3431 1.387 . S
C3432 C3435 1.387 . S
H3433 C3429 0.950 . S
H3434 C3431 0.950 . S
C3435 C3426 1.390 . S
C3435 H3428 0.950 . S
C3435 C3432 1.387 . S
C3436 C3437 1.387 . S
C3436 H3440 0.950 . S
C3436 C3445 1.390 . S
C3437 C3436 1.387 . S
C3437 C3439 1.387 . S
H3438 C3445 0.950 . S
C3439 C3437 1.387 . S
C3439 C3441 1.390 . S
C3439 H3443 0.950 . S
H3440 C3436 0.950 . S
C3441 C3439 1.390 . S
C3441 C3442 1.387 . S
C3441 H3444 0.950 . S
C3442 C3441 1.387 . S
C3442 C3445 1.387 . S
H3443 C3439 0.950 . S
H3444 C3441 0.950 . S
C3445 C3436 1.390 . S
C3445 H3438 0.950 . S
C3445 C3442 1.387 . S
C3446 C3447 1.387 . S
C3446 H3450 0.950 . S
C3446 C3455 1.390 . S
C3447 C3446 1.387 . S
C3447 C3449 1.387 . S
H3448 C3455 0.950 . S
C3449 C3447 1.387 . S
C3449 C3451 1.390 . S
C3449 H3453 0.950 . S
H3450 C3446 0.950 . S
C3451 C3449 1.390 . S
C3451 C3452 1.387 . S
C3451 H3454 0.950 . S
C3452 C3451 1.387 . S
C3452 C3455 1.387 . S
H3453 C3449 0.950 . S
H3454 C3451 0.950 . S
C3455 C3446 1.390 . S
C3455 H3448 0.950 . S
C3455 C3452 1.387 . S
C2817 C409 1.515 . S
C2822 C29 1.515 . S
C2827 C497 1.515 . S
C2832 C117 1.515 . S
C2837 C577 1.514 . S
C2842 C205 1.514 . S
C2847 C284 1.514 . S
C2852 C665 1.514 . S
C2857 C724 1.506 . S
C2862 C1113 1.506 . S
C2867 C1173 1.507 . S
C2872 C841 1.507 . S
C2877 C929 1.506 . S
C2882 C1261 1.506 . S
C2887 C1349 1.507 . S
C2892 C1017 1.507 . S
C2897 C1428 1.514 . S
C2902 C1817 1.514 . S
C2907 C1897 1.514 . S
C2912 C1525 1.514 . S
C2917 C1985 1.515 . S
C2922 C1604 1.515 . S
C2927 C2081 1.514 . S
C2932 C1692 1.514 . S
C2937 C2132 1.506 . S
C2942 C2513 1.506 . S
C2947 C2249 1.507 . S
C2952 C2581 1.507 . S
C2957 C2337 1.506 . S
C2962 C2660 1.506 . S
C2967 C2433 1.507 . S
C2972 C2757 1.507 . S
C2977 C49 0.846 . S
C2982 C645 0.847 . S
C2987 C137 0.844 . S
C2992 C372 0.846 . S
C2997 C225 0.845 . S
C3002 C460 0.847 . S
C3007 C557 0.844 . S
C3012 C321 0.846 . S
C3017 C1340 0.851 . S
C3022 C733 0.850 . S
C3027 C1105 0.854 . S
C3032 C849 0.855 . S
C3037 C1164 0.849 . S
C3042 C937 0.850 . S
C3047 C1025 0.853 . S
C3052 C1252 0.851 . S
C3057 C2044 0.844 . S
C3062 C1465 0.842 . S
C3067 C1780 0.845 . S
C3072 C1545 0.847 . S
C3077 C1877 0.843 . S
C3082 C1641 0.845 . S
C3087 C1729 0.842 . S
C3092 C1965 0.842 . S
C3097 C2141 0.853 . S
C3102 C2748 0.851 . S
C3107 C2257 0.854 . S
C3112 C2521 0.852 . S
C3117 C2345 0.850 . S
C3122 C2572 0.848 . S
C3127 C2669 0.851 . S
C3132 C2425 0.853 . S
C3137 C57 1.682 . S
C3142 C2229 1.618 . S
C3147 C145 1.682 . S
C3152 C909 1.618 . S
C3157 C233 1.683 . S
C3162 C2396 1.621 . S
C3167 C761 1.618 . S
C3172 C313 1.682 . S
C3177 C2777 1.621 . S
C3182 C381 1.683 . S
C3187 C469 1.682 . S
C3192 C1076 1.619 . S
C3197 C548 1.683 . S
C3202 C2601 1.621 . S
C3207 C636 1.683 . S
C3212 C1281 1.620 . S
C3217 C1516 1.620 . S
C3222 C753 1.680 . S
C3227 C196 1.623 . S
C3232 C812 1.681 . S
C3237 C1701 1.620 . S
C3242 C900 1.681 . S
C3247 C988 1.681 . S
C3252 C20 1.623 . S
C3257 C2073 1.620 . S
C3262 C1085 1.680 . S
C3267 C401 1.622 . S
C3272 C1201 1.681 . S
C3277 C1905 1.623 . S
C3282 C1289 1.682 . S
C3287 C585 1.620 . S
C3292 C1377 1.680 . S
C3297 C821 1.618 . S
C3302 C1457 1.682 . S
C3307 C1553 1.682 . S
C3312 C2317 1.618 . S
C3317 C1633 1.683 . S
C3322 C997 1.621 . S
C3327 C1721 1.682 . S
C3332 C2169 1.618 . S
C3337 C1789 1.683 . S
C3342 C1369 1.621 . S
C3347 C2493 1.621 . S
C3352 C1868 1.683 . S
C3357 C1956 1.683 . S
C3362 C1193 1.621 . S
C3367 C2053 1.682 . S
C3372 C2697 1.618 . S
C3377 C2161 1.681 . S
C3382 C108 1.623 . S
C3387 C2220 1.681 . S
C3392 C1613 1.620 . S
C3397 C293 1.621 . S
C3402 C2308 1.680 . S
C3407 C1437 1.620 . S
C3412 C2405 1.680 . S
C3417 C2484 1.681 . S
C3422 C673 1.623 . S
C3427 C2609 1.680 . S
C3432 C1809 1.620 . S
C3437 C489 1.623 . S
C3442 C2689 1.681 . S
C3447 C1993 1.623 . S
C3452 C2785 1.681 . S
