# Generated by pormake.
# Topology wjo, (5)-cn, num edge types: 1
# Building blocks:
#     Node 0, Type 0, BuildingBlock: BEQFEK_clean_sbu_0, # of connection points: 5
#     Node 1, Type 0, BuildingBlock: BEQFEK_clean_sbu_0, # of connection points: 5
#     Node 2, Type 0, BuildingBlock: BEQFEK_clean_sbu_0, # of connection points: 5
#     Node 3, Type 0, BuildingBlock: BEQFEK_clean_sbu_0, # of connection points: 5
#     Node 4, Type 0, BuildingBlock: BEQFEK_clean_sbu_0, # of connection points: 5
#     Node 5, Type 0, BuildingBlock: BEQFEK_clean_sbu_0, # of connection points: 5
#     Node 6, Type 0, BuildingBlock: BEQFEK_clean_sbu_0, # of connection points: 5
#     Node 7, Type 0, BuildingBlock: BEQFEK_clean_sbu_0, # of connection points: 5
#     Node 8, Type 0, BuildingBlock: BEQFEK_clean_sbu_0, # of connection points: 5
#     Node 9, Type 0, BuildingBlock: BEQFEK_clean_sbu_0, # of connection points: 5
#     Node 10, Type 0, BuildingBlock: BEQFEK_clean_sbu_0, # of connection points: 5
#     Node 11, Type 0, BuildingBlock: BEQFEK_clean_sbu_0, # of connection points: 5
#     Edge 12, Type (0, 0), BuildingBlock: UVAHIK_clean_linker_0, # of connection points: 2
#     Edge 13, Type (0, 0), BuildingBlock: UVAHIK_clean_linker_0, # of connection points: 2
#     Edge 14, Type (0, 0), BuildingBlock: UVAHIK_clean_linker_0, # of connection points: 2
#     Edge 15, Type (0, 0), BuildingBlock: UVAHIK_clean_linker_0, # of connection points: 2
#     Edge 16, Type (0, 0), BuildingBlock: UVAHIK_clean_linker_0, # of connection points: 2
#     Edge 17, Type (0, 0), BuildingBlock: UVAHIK_clean_linker_0, # of connection points: 2
#     Edge 18, Type (0, 0), BuildingBlock: UVAHIK_clean_linker_0, # of connection points: 2
#     Edge 19, Type (0, 0), BuildingBlock: UVAHIK_clean_linker_0, # of connection points: 2
#     Edge 20, Type (0, 0), BuildingBlock: UVAHIK_clean_linker_0, # of connection points: 2
#     Edge 21, Type (0, 0), BuildingBlock: UVAHIK_clean_linker_0, # of connection points: 2
#     Edge 22, Type (0, 0), BuildingBlock: UVAHIK_clean_linker_0, # of connection points: 2
#     Edge 23, Type (0, 0), BuildingBlock: UVAHIK_clean_linker_0, # of connection points: 2
#     Edge 24, Type (0, 0), BuildingBlock: UVAHIK_clean_linker_0, # of connection points: 2
#     Edge 25, Type (0, 0), BuildingBlock: UVAHIK_clean_linker_0, # of connection points: 2
#     Edge 26, Type (0, 0), BuildingBlock: UVAHIK_clean_linker_0, # of connection points: 2
#     Edge 27, Type (0, 0), BuildingBlock: UVAHIK_clean_linker_0, # of connection points: 2
#     Edge 28, Type (0, 0), BuildingBlock: UVAHIK_clean_linker_0, # of connection points: 2
#     Edge 29, Type (0, 0), BuildingBlock: UVAHIK_clean_linker_0, # of connection points: 2
#     Edge 30, Type (0, 0), BuildingBlock: UVAHIK_clean_linker_0, # of connection points: 2
#     Edge 31, Type (0, 0), BuildingBlock: UVAHIK_clean_linker_0, # of connection points: 2
#     Edge 32, Type (0, 0), BuildingBlock: UVAHIK_clean_linker_0, # of connection points: 2
#     Edge 33, Type (0, 0), BuildingBlock: UVAHIK_clean_linker_0, # of connection points: 2
#     Edge 34, Type (0, 0), BuildingBlock: UVAHIK_clean_linker_0, # of connection points: 2
#     Edge 35, Type (0, 0), BuildingBlock: UVAHIK_clean_linker_0, # of connection points: 2
#     Edge 36, Type (0, 0), BuildingBlock: UVAHIK_clean_linker_0, # of connection points: 2
#     Edge 37, Type (0, 0), BuildingBlock: UVAHIK_clean_linker_0, # of connection points: 2
#     Edge 38, Type (0, 0), BuildingBlock: UVAHIK_clean_linker_0, # of connection points: 2
#     Edge 39, Type (0, 0), BuildingBlock: UVAHIK_clean_linker_0, # of connection points: 2
#     Edge 40, Type (0, 0), BuildingBlock: UVAHIK_clean_linker_0, # of connection points: 2
#     Edge 41, Type (0, 0), BuildingBlock: UVAHIK_clean_linker_0, # of connection points: 2
# Relax obj value: 0.761
# Max RMSD: 0.254
# Mean RMSD: 0.244
data_MOF--net-wjo--node1-BEQFEK_clean_sbu_0--edge1-UVAHIK_clean_linker_0
_symmetry_space_group_name_H-M    P1
_symmetry_Int_Tables_number       1
_symmetry_cell_setting            triclinic
loop_
_symmetry_equiv_pos_as_xyz
'x, y, z'
_cell_length_a     58.16955
_cell_length_b     57.885283
_cell_length_c     33.440829
_cell_angle_alpha  90.157074
_cell_angle_beta   90.000487
_cell_angle_gamma 120.16312
loop_
_atom_site_label
_atom_site_type_symbol
_atom_site_fract_x
_atom_site_fract_y
_atom_site_fract_z
_atom_type_partial_charge
Co0 Co 0.28983 0.37748 0.91312 0.0
Co1 Co 0.28085 0.41454 0.97272 0.0
C2 C 0.29181 0.37234 0.00245 0.0
O3 O 0.29371 0.36538 0.967 0.0
O4 O 0.28676 0.39103 0.00899 0.0
C5 C 0.27857 0.32684 0.88287 0.0
O6 O 0.26507 0.3188 0.9164 0.0
C7 C 0.26898 0.43755 0.04262 0.0
C8 C 0.267 0.47152 0.01649 0.0
C9 C 0.26556 0.45888 0.05222 0.0
N10 N 0.2726 0.43757 0.00297 0.0
N11 N 0.27144 0.45799 0.98751 0.0
C12 C 0.26778 0.41683 0.0705 0.0
H13 H 0.25547 0.39674 0.05698 0.0
H14 H 0.25916 0.41736 0.09984 0.0
H15 H 0.2882 0.42042 0.0752 0.0
C16 C 0.23348 0.36197 0.89211 0.0
N17 N 0.25692 0.37785 0.91074 0.0
N18 N 0.25363 0.39348 0.93597 0.0
C19 C 0.22828 0.38806 0.93429 0.0
C20 C 0.21467 0.36804 0.9063 0.0
C21 C 0.22838 0.33985 0.86385 0.0
H22 H 0.24589 0.34596 0.84429 0.0
H23 H 0.22476 0.32205 0.88123 0.0
H24 H 0.21054 0.33433 0.8452 0.0
O25 O 0.32208 0.41344 0.90337 0.0
O26 O 0.3141 0.43838 0.94522 0.0
H27 H 0.22382 0.42016 0.95673 0.0
H28 H 0.19434 0.3879 0.96187 0.0
C29 C 0.21637 0.39881 0.96341 0.0
H30 H 0.22254 0.39734 0.99424 0.0
H31 H 0.27394 0.46283 0.95717 0.0
O32 O 0.29041 0.35158 0.87424 0.0
C33 C 0.32867 0.436 0.91918 0.0
Co34 Co 0.91375 0.28108 0.07652 0.0
Co35 Co 0.86567 0.27431 0.12822 0.0
C36 C 0.91766 0.28554 0.16511 0.0
O37 O 0.92787 0.28506 0.13164 0.0
O38 O 0.89431 0.28213 0.16727 0.0
C39 C 0.95561 0.2722 0.04877 0.0
O40 O 0.952 0.2602 0.0834 0.0
C41 C 0.82743 0.25525 0.19389 0.0
C42 C 0.80115 0.27104 0.17734 0.0
C43 C 0.80624 0.25775 0.20731 0.0
N44 N 0.83451 0.26647 0.15755 0.0
N45 N 0.81846 0.2755 0.14753 0.0
C46 C 0.84296 0.24561 0.21715 0.0
H47 H 0.85718 0.26192 0.23709 0.0
H48 H 0.85424 0.23986 0.19664 0.0
H49 H 0.82972 0.22827 0.23605 0.0
C50 C 0.87296 0.22439 0.05567 0.0
N51 N 0.88025 0.24833 0.07257 0.0
N52 N 0.86011 0.24611 0.09364 0.0
C53 C 0.83933 0.22112 0.09003 0.0
C54 C 0.84676 0.2064 0.06603 0.0
C55 C 0.89134 0.21814 0.03304 0.0
H56 H 0.90302 0.2343 0.01132 0.0
H57 H 0.90538 0.21703 0.05431 0.0
H58 H 0.88017 0.19877 0.017 0.0
O59 O 0.91116 0.31376 0.06406 0.0
O60 O 0.87545 0.30668 0.0981 0.0
H61 H 0.8062 0.22441 0.11052 0.0
H62 H 0.79875 0.19042 0.10349 0.0
C63 C 0.81413 0.21063 0.11353 0.0
H64 H 0.81843 0.20959 0.14555 0.0
H65 H 0.82019 0.28591 0.12122 0.0
O66 O 0.94078 0.28165 0.03926 0.0
C67 C 0.8945 0.32083 0.07455 0.0
Co68 Co 0.62396 0.90699 0.23868 0.0
Co69 Co 0.58663 0.85983 0.29599 0.0
C70 C 0.62802 0.91322 0.32789 0.0
O71 O 0.63566 0.92268 0.29295 0.0
O72 O 0.60936 0.88927 0.33311 0.0
C73 C 0.67402 0.94819 0.20925 0.0
O74 O 0.68239 0.94393 0.24343 0.0
C75 C 0.56885 0.82172 0.36261 0.0
C76 C 0.52645 0.79524 0.34756 0.0
C77 C 0.54532 0.8005 0.37679 0.0
N78 N 0.56414 0.82869 0.32653 0.0
N79 N 0.53886 0.81246 0.31741 0.0
C80 C 0.59443 0.83722 0.38511 0.0
H81 H 0.61076 0.85064 0.36482 0.0
H82 H 0.59991 0.82354 0.39981 0.0
H83 H 0.59189 0.8492 0.40882 0.0
C84 C 0.63993 0.86646 0.21672 0.0
N85 N 0.62382 0.87364 0.23529 0.0
N86 N 0.60765 0.85397 0.25893 0.0
C87 C 0.61259 0.83368 0.25573 0.0
C88 C 0.63337 0.84091 0.22903 0.0
C89 C 0.66264 0.88446 0.19028 0.0
H90 H 0.65656 0.89556 0.16998 0.0
H91 H 0.6794 0.89911 0.20905 0.0
H92 H 0.6695 0.87289 0.17237 0.0
O93 O 0.58804 0.90315 0.22885 0.0
O94 O 0.56274 0.8691 0.26864 0.0
H95 H 0.5784 0.80022 0.28143 0.0
H96 H 0.60592 0.79468 0.27392 0.0
C97 C 0.60036 0.80971 0.28245 0.0
H98 H 0.60702 0.81617 0.3136 0.0
H99 H 0.52975 0.81405 0.29151 0.0
O100 O 0.64954 0.93391 0.20013 0.0
C101 C 0.56539 0.88667 0.24352 0.0
Co102 Co 0.71764 0.62455 0.39652 0.0
Co103 Co 0.72859 0.59022 0.45865 0.0
C104 C 0.71747 0.63288 0.48552 0.0
O105 O 0.71436 0.63821 0.44969 0.0
O106 O 0.72343 0.615 0.49321 0.0
C107 C 0.72811 0.6742 0.36425 0.0
O108 O 0.74294 0.68293 0.39657 0.0
C109 C 0.74138 0.56923 0.53002 0.0
C110 C 0.74656 0.53677 0.50498 0.0
C111 C 0.7473 0.54961 0.54035 0.0
N112 N 0.73794 0.56852 0.49023 0.0
N113 N 0.74087 0.54894 0.47546 0.0
C114 C 0.73635 0.58656 0.55772 0.0
H115 H 0.71699 0.58482 0.55018 0.0
H116 H 0.75228 0.60764 0.5537 0.0
H117 H 0.73558 0.58082 0.58947 0.0
C118 C 0.7739 0.64004 0.3741 0.0
N119 N 0.75088 0.62464 0.39392 0.0
N120 N 0.755 0.61028 0.42042 0.0
C121 C 0.78053 0.61628 0.41872 0.0
C122 C 0.79338 0.63516 0.38905 0.0
C123 C 0.77789 0.66052 0.34354 0.0
H124 H 0.75964 0.65341 0.32527 0.0
H125 H 0.78226 0.67929 0.35893 0.0
H126 H 0.79496 0.66488 0.32382 0.0
O127 O 0.6855 0.58803 0.38932 0.0
O128 O 0.69481 0.56516 0.43313 0.0
H129 H 0.78823 0.58686 0.44356 0.0
H130 H 0.81535 0.62052 0.44973 0.0
C131 C 0.7934 0.60776 0.44966 0.0
H132 H 0.78596 0.60871 0.47977 0.0
H133 H 0.73882 0.54376 0.44522 0.0
O134 O 0.71583 0.64926 0.35668 0.0
C135 C 0.67955 0.56622 0.40698 0.0
Co136 Co 0.09276 0.72062 0.56128 0.0
Co137 Co 0.14024 0.73131 0.61844 0.0
C138 C 0.08746 0.72041 0.65031 0.0
O139 O 0.07763 0.71793 0.61548 0.0
O140 O 0.11126 0.72554 0.65529 0.0
C141 C 0.05235 0.73 0.53023 0.0
O142 O 0.05799 0.74461 0.5628 0.0
C143 C 0.1785 0.75331 0.68488 0.0
C144 C 0.20404 0.736 0.67234 0.0
C145 C 0.19925 0.75076 0.70031 0.0
N146 N 0.17133 0.7406 0.64942 0.0
N147 N 0.18704 0.73076 0.64175 0.0
C148 C 0.16363 0.76469 0.70574 0.0
H149 H 0.15233 0.75156 0.73112 0.0
H150 H 0.14985 0.76657 0.68491 0.0
H151 H 0.17766 0.78472 0.71807 0.0
C152 C 0.13344 0.77699 0.5373 0.0
N153 N 0.12611 0.75384 0.55673 0.0
N154 N 0.14592 0.75747 0.58008 0.0
C155 C 0.16641 0.78251 0.57562 0.0
C156 C 0.15921 0.79586 0.5486 0.0
C157 C 0.11552 0.78187 0.51109 0.0
H158 H 0.10342 0.76415 0.49194 0.0
H159 H 0.10197 0.78543 0.53009 0.0
H160 H 0.12719 0.79971 0.49202 0.0
O161 O 0.09644 0.68807 0.55308 0.0
O162 O 0.13072 0.69742 0.59258 0.0
H163 H 0.19952 0.78123 0.60115 0.0
H164 H 0.20621 0.81454 0.59035 0.0
C165 C 0.19094 0.79453 0.60108 0.0
H166 H 0.18557 0.79652 0.63219 0.0
H167 H 0.18517 0.71917 0.61668 0.0
O168 O 0.0655 0.71837 0.52254 0.0
C169 C 0.1129 0.68201 0.56803 0.0
Co170 Co 0.37461 0.092 0.73762 0.0
Co171 Co 0.41195 0.13899 0.79578 0.0
C172 C 0.36991 0.08521 0.82617 0.0
O173 O 0.36212 0.07571 0.7912 0.0
O174 O 0.38881 0.10906 0.83147 0.0
C175 C 0.32528 0.05059 0.70508 0.0
O176 O 0.31598 0.05345 0.73941 0.0
C177 C 0.42755 0.17601 0.86401 0.0
C178 C 0.4708 0.2012 0.85423 0.0
C179 C 0.45074 0.19613 0.88118 0.0
N180 N 0.43363 0.16944 0.82854 0.0
N181 N 0.45945 0.18496 0.82254 0.0
C182 C 0.40074 0.16112 0.88321 0.0
H183 H 0.40184 0.1503 0.90981 0.0
H184 H 0.38564 0.1469 0.86191 0.0
H185 H 0.39446 0.17531 0.89355 0.0
C186 C 0.3586 0.13256 0.71687 0.0
N187 N 0.37485 0.1254 0.73496 0.0
N188 N 0.39127 0.14515 0.75851 0.0
C189 C 0.38647 0.16552 0.75544 0.0
C190 C 0.36539 0.1582 0.72924 0.0
C191 C 0.33542 0.11438 0.69116 0.0
H192 H 0.34134 0.10363 0.66978 0.0
H193 H 0.31926 0.09943 0.71034 0.0
H194 H 0.32783 0.12572 0.67442 0.0
O195 O 0.41072 0.09612 0.72859 0.0
O196 O 0.43629 0.13028 0.76842 0.0
H197 H 0.42089 0.19792 0.78301 0.0
H198 H 0.39529 0.20562 0.77131 0.0
C199 C 0.39912 0.18975 0.78186 0.0
H200 H 0.39101 0.18399 0.8125 0.0
H201 H 0.46957 0.18341 0.79787 0.0
O202 O 0.34985 0.06567 0.69733 0.0
C203 C 0.43346 0.11261 0.74319 0.0
Co204 Co 0.63359 0.72081 0.92083 0.0
Co205 Co 0.59363 0.72887 0.86749 0.0
C206 C 0.63501 0.71829 0.83175 0.0
O207 O 0.64425 0.71725 0.86581 0.0
O208 O 0.61558 0.72247 0.8286 0.0
C209 C 0.68401 0.72934 0.94942 0.0
O210 O 0.69271 0.74172 0.91511 0.0
C211 C 0.5741 0.74879 0.80282 0.0
C212 C 0.53172 0.73102 0.81897 0.0
C213 C 0.55005 0.74547 0.78949 0.0
N214 N 0.57018 0.73682 0.83857 0.0
N215 N 0.5449 0.72669 0.84839 0.0
C216 C 0.59954 0.76018 0.77979 0.0
H217 H 0.59697 0.74671 0.75438 0.0
H218 H 0.61608 0.76266 0.79919 0.0
H219 H 0.60475 0.77992 0.7673 0.0
C220 C 0.64936 0.7773 0.94311 0.0
N221 N 0.63292 0.75363 0.92529 0.0
N222 N 0.61545 0.75628 0.90369 0.0
C223 C 0.61973 0.78127 0.90787 0.0
C224 C 0.64145 0.79554 0.9328 0.0
C225 C 0.67359 0.78312 0.96649 0.0
H226 H 0.66872 0.76663 0.98776 0.0
H227 H 0.68906 0.78449 0.94564 0.0
H228 H 0.6816 0.80227 0.98312 0.0
O229 O 0.59819 0.68817 0.93225 0.0
O230 O 0.57074 0.69569 0.89587 0.0
H231 H 0.58386 0.77854 0.88587 0.0
H232 H 0.61037 0.81234 0.8945 0.0
C233 C 0.60564 0.79226 0.88395 0.0
H234 H 0.61167 0.79378 0.8522 0.0
H235 H 0.53632 0.71553 0.87418 0.0
O236 O 0.65965 0.71978 0.95847 0.0
C237 C 0.57484 0.68126 0.92001 0.0
Co238 Co 0.91258 0.62394 0.08423 0.0
Co239 Co 0.86641 0.58671 0.02501 0.0
C240 C 0.91913 0.62948 0.9948 0.0
O241 O 0.92811 0.63639 0.03021 0.0
O242 O 0.89549 0.61055 0.9884 0.0
C243 C 0.95206 0.67457 0.11464 0.0
O244 O 0.94652 0.68279 0.08134 0.0
C245 C 0.83104 0.56314 0.95574 0.0
C246 C 0.79603 0.52833 0.98228 0.0
C247 C 0.80665 0.54113 0.94642 0.0
N248 N 0.83501 0.56329 0.99531 0.0
N249 N 0.81398 0.54242 0.01103 0.0
C250 C 0.84988 0.58425 0.9277 0.0
H251 H 0.85797 0.6042 0.94188 0.0
H252 H 0.84 0.58402 0.8992 0.0
H253 H 0.86658 0.58073 0.92118 0.0
C254 C 0.87149 0.63892 0.10611 0.0
N255 N 0.87911 0.62314 0.08733 0.0
N256 N 0.86012 0.6074 0.06227 0.0
C257 C 0.84007 0.61261 0.06426 0.0
C258 C 0.84648 0.63266 0.09223 0.0
C259 C 0.88862 0.66123 0.13403 0.0
H260 H 0.90022 0.6553 0.15347 0.0
H261 H 0.90264 0.67896 0.11636 0.0
H262 H 0.87637 0.66677 0.15279 0.0
O263 O 0.90943 0.58814 0.09341 0.0
O264 O 0.87641 0.56314 0.05179 0.0
H265 H 0.80374 0.58024 0.04167 0.0
H266 H 0.80586 0.61226 0.03729 0.0
C267 C 0.81731 0.60171 0.0353 0.0
H268 H 0.82491 0.60352 0.00438 0.0
H269 H 0.81206 0.53756 0.04134 0.0
O270 O 0.93915 0.6498 0.12304 0.0
C271 C 0.89356 0.56559 0.07748 0.0
Co272 Co 0.28361 0.90948 0.26069 0.0
Co273 Co 0.27509 0.86324 0.20176 0.0
C274 C 0.28673 0.91693 0.17197 0.0
O275 O 0.28785 0.92589 0.20716 0.0
O276 O 0.28209 0.89325 0.16611 0.0
C277 C 0.27317 0.94932 0.29132 0.0
O278 O 0.2601 0.94438 0.25739 0.0
C279 C 0.2547 0.82665 0.13306 0.0
C280 C 0.27262 0.80138 0.14341 0.0
C281 C 0.25791 0.80657 0.1161 0.0
N282 N 0.26696 0.83305 0.16883 0.0
N283 N 0.2772 0.81752 0.17514 0.0
C284 C 0.24309 0.84171 0.11346 0.0
H285 H 0.25583 0.85329 0.08793 0.0
H286 H 0.24135 0.85533 0.13498 0.0
H287 H 0.22304 0.82763 0.10149 0.0
C288 C 0.22703 0.86813 0.2805 0.0
N289 N 0.2506 0.87585 0.2625 0.0
N290 N 0.24766 0.85653 0.23831 0.0
C291 C 0.22256 0.83593 0.24074 0.0
C292 C 0.20847 0.84262 0.26726 0.0
C293 C 0.22161 0.88553 0.30734 0.0
H294 H 0.23868 0.89696 0.3278 0.0
H295 H 0.21885 0.89985 0.2889 0.0
H296 H 0.20327 0.87342 0.32509 0.0
O297 O 0.3157 0.90569 0.27071 0.0
O298 O 0.30786 0.87208 0.23012 0.0
H299 H 0.22501 0.80386 0.21288 0.0
H300 H 0.19152 0.79605 0.22335 0.0
C301 C 0.2114 0.81204 0.21367 0.0
H302 H 0.20961 0.81819 0.18302 0.0
H303 H 0.2886 0.81896 0.20014 0.0
O304 O 0.28435 0.9359 0.30005 0.0
C305 C 0.32227 0.88948 0.25598 0.0
Co306 Co 0.37473 0.28241 0.43726 0.0
Co307 Co 0.4124 0.27227 0.3813 0.0
C308 C 0.37129 0.28428 0.3485 0.0
O309 O 0.36302 0.28596 0.38303 0.0
O310 O 0.39012 0.2793 0.34428 0.0
C311 C 0.32526 0.27501 0.46723 0.0
O312 O 0.31629 0.26223 0.43315 0.0
C313 C 0.42793 0.25011 0.31434 0.0
C314 C 0.47106 0.26807 0.32497 0.0
C315 C 0.45106 0.25291 0.29782 0.0
N316 N 0.43398 0.26305 0.34964 0.0
N317 N 0.45972 0.27329 0.35617 0.0
C318 C 0.40125 0.23818 0.29463 0.0
H319 H 0.40269 0.25005 0.26777 0.0
H320 H 0.38615 0.23753 0.31549 0.0
H321 H 0.39473 0.21753 0.28461 0.0
C322 C 0.35755 0.22547 0.45874 0.0
N323 N 0.37437 0.24896 0.44097 0.0
N324 N 0.39095 0.24546 0.41839 0.0
C325 C 0.38571 0.2201 0.42186 0.0
C326 C 0.36412 0.20637 0.4472 0.0
C327 C 0.33403 0.22061 0.48321 0.0
H328 H 0.33973 0.23751 0.50418 0.0
H329 H 0.31823 0.21921 0.46307 0.0
H330 H 0.32606 0.2017 0.5003 0.0
O331 O 0.41101 0.31461 0.44661 0.0
O332 O 0.43682 0.30555 0.40869 0.0
H333 H 0.42029 0.22203 0.3958 0.0
H334 H 0.39447 0.18866 0.40765 0.0
C335 C 0.39849 0.20832 0.39648 0.0
H336 H 0.39066 0.20565 0.36558 0.0
H337 H 0.46982 0.28517 0.38082 0.0
O338 O 0.34969 0.28458 0.47604 0.0
C339 C 0.43387 0.32072 0.43303 0.0
Co340 Co 0.09353 0.3782 0.59958 0.0
Co341 Co 0.14029 0.41615 0.5421 0.0
C342 C 0.08642 0.3751 0.51103 0.0
O343 O 0.07746 0.36613 0.54573 0.0
O344 O 0.10998 0.39444 0.50601 0.0
C345 C 0.05353 0.32785 0.62939 0.0
O346 O 0.05924 0.3196 0.59621 0.0
C347 C 0.17541 0.4337 0.47222 0.0
C348 C 0.209 0.47237 0.49263 0.0
C349 C 0.19942 0.45532 0.45998 0.0
N350 N 0.1712 0.43769 0.51049 0.0
N351 N 0.1914 0.46077 0.52258 0.0
C352 C 0.15507 0.4112 0.44715 0.0
H353 H 0.13828 0.41469 0.44159 0.0
H354 H 0.1473 0.3921 0.46363 0.0
H355 H 0.16276 0.40948 0.41776 0.0
C356 C 0.134 0.36196 0.62023 0.0
N357 N 0.12656 0.37801 0.60196 0.0
N358 N 0.14581 0.39411 0.57768 0.0
C359 C 0.16595 0.38903 0.57997 0.0
C360 C 0.15922 0.36853 0.607 0.0
C361 C 0.11673 0.3395 0.64762 0.0
H362 H 0.1051 0.34536 0.66717 0.0
H363 H 0.10273 0.32191 0.62953 0.0
H364 H 0.12887 0.33379 0.66626 0.0
O365 O 0.09784 0.41469 0.6092 0.0
O366 O 0.13261 0.44071 0.5711 0.0
H367 H 0.20092 0.42303 0.55732 0.0
H368 H 0.20295 0.39296 0.55795 0.0
C369 C 0.18955 0.40109 0.5527 0.0
H370 H 0.18265 0.39709 0.52122 0.0
H371 H 0.19283 0.46889 0.551 0.0
O372 O 0.06663 0.3526 0.63819 0.0
C373 C 0.11474 0.43771 0.5958 0.0
Co374 Co 0.71734 0.09411 0.75959 0.0
Co375 Co 0.7267 0.14045 0.70083 0.0
C376 C 0.71438 0.08668 0.67047 0.0
O377 O 0.71291 0.07781 0.70575 0.0
O378 O 0.71961 0.11054 0.66442 0.0
C379 C 0.72654 0.0533 0.78968 0.0
O380 O 0.73902 0.05737 0.75539 0.0
C381 C 0.74653 0.17784 0.63328 0.0
C382 C 0.73127 0.20488 0.64835 0.0
C383 C 0.74445 0.19917 0.61898 0.0
N384 N 0.73515 0.17126 0.66958 0.0
N385 N 0.72645 0.18779 0.67868 0.0
C386 C 0.75616 0.16193 0.61081 0.0
H387 H 0.74111 0.14945 0.58801 0.0
H388 H 0.75951 0.14892 0.63135 0.0
H389 H 0.77497 0.17531 0.59501 0.0
C390 C 0.77399 0.13488 0.78021 0.0
N391 N 0.75056 0.12744 0.76188 0.0
N392 N 0.75389 0.14677 0.73759 0.0
C393 C 0.77914 0.16709 0.74015 0.0
C394 C 0.79287 0.16025 0.76709 0.0
C395 C 0.7789 0.11727 0.80721 0.0
H396 H 0.76183 0.10637 0.82775 0.0
H397 H 0.78102 0.10245 0.78888 0.0
H398 H 0.7974 0.12912 0.82485 0.0
O399 O 0.6854 0.09814 0.76961 0.0
O400 O 0.69381 0.1316 0.72871 0.0
H401 H 0.77834 0.20032 0.7137 0.0
H402 H 0.81142 0.20576 0.72071 0.0
C403 C 0.79071 0.19071 0.71275 0.0
H404 H 0.79055 0.18384 0.68175 0.0
H405 H 0.71607 0.18656 0.70478 0.0
O406 O 0.71631 0.06757 0.79865 0.0
C407 C 0.67913 0.11444 0.75449 0.0
C408 C 0.21992 0.48588 0.40179 0.0
C409 C 0.21117 0.46088 0.4196 0.0
C410 C 0.22834 0.4902 0.36194 0.0
C411 C 0.21518 0.45411 0.26926 0.0
H412 H 0.28302 0.51093 0.23051 0.0
C413 C 0.23957 0.46889 0.10151 0.0
C414 C 0.26212 0.46707 0.0924 0.0
C415 C 0.23458 0.47301 0.14103 0.0
C416 C 0.26392 0.49516 0.241 0.0
H417 H 0.20732 0.42194 0.4117 0.0
H418 H 0.22092 0.42905 0.34149 0.0
H419 H 0.27264 0.50806 0.30222 0.0
H420 H 0.29816 0.47003 0.11602 0.0
H421 H 0.28973 0.47775 0.18509 0.0
H422 H 0.2064 0.44101 0.20842 0.0
C423 C 0.22074 0.44507 0.35807 0.0
C424 C 0.25801 0.49356 0.28182 0.0
C425 C 0.21278 0.44095 0.39798 0.0
C426 C 0.28052 0.47118 0.12265 0.0
C427 C 0.2758 0.47575 0.16197 0.0
C428 C 0.22085 0.45601 0.2285 0.0
C429 C 0.228 0.46951 0.33949 0.0
C430 C 0.23381 0.47267 0.29627 0.0
C431 C 0.25241 0.47593 0.17168 0.0
C432 C 0.24543 0.47625 0.21409 0.0
H433 H 0.2192 0.50169 0.41813 0.0
H434 H 0.23403 0.50925 0.34818 0.0
H435 H 0.19629 0.43796 0.27979 0.0
H436 H 0.22519 0.4658 0.07847 0.0
H437 H 0.21646 0.47317 0.14787 0.0
C438 C 0.78467 0.22735 0.26526 0.0
C439 C 0.79513 0.2527 0.24798 0.0
C440 C 0.77642 0.22333 0.30512 0.0
C441 C 0.79034 0.25936 0.3995 0.0
H442 H 0.72663 0.19602 0.43608 0.0
C443 C 0.7294 0.20925 0.55513 0.0
C444 C 0.74992 0.20994 0.57809 0.0
C445 C 0.73368 0.21695 0.51503 0.0
C446 C 0.74434 0.21395 0.42627 0.0
H447 H 0.80421 0.29343 0.25759 0.0
H448 H 0.78993 0.28648 0.32759 0.0
H449 H 0.73495 0.20398 0.36438 0.0
H450 H 0.79138 0.22091 0.57859 0.0
H451 H 0.799 0.23442 0.50833 0.0
H452 H 0.80004 0.26901 0.46139 0.0
C453 C 0.78827 0.26979 0.31048 0.0
C454 C 0.74919 0.21837 0.38531 0.0
C455 C 0.79625 0.27372 0.27049 0.0
C456 C 0.77515 0.21971 0.56109 0.0
C457 C 0.77954 0.22769 0.52112 0.0
C458 C 0.78563 0.25479 0.44046 0.0
C459 C 0.77865 0.24465 0.32833 0.0
C460 C 0.77238 0.24097 0.37155 0.0
C461 C 0.7587 0.22587 0.49749 0.0
C462 C 0.76274 0.23189 0.45422 0.0
H463 H 0.78321 0.21076 0.24811 0.0
H464 H 0.76917 0.20376 0.31817 0.0
H465 H 0.80849 0.27684 0.38971 0.0
H466 H 0.70979 0.20184 0.56779 0.0
H467 H 0.71737 0.21563 0.49758 0.0
C468 C 0.55523 0.77993 0.4349 0.0
C469 C 0.5399 0.78979 0.41772 0.0
C470 C 0.55176 0.77231 0.47503 0.0
C471 C 0.53102 0.78736 0.56955 0.0
H472 H 0.53222 0.72477 0.60773 0.0
C473 C 0.55846 0.77552 0.73108 0.0
C474 C 0.54372 0.7503 0.74884 0.0
C475 C 0.55407 0.77919 0.69113 0.0
C476 C 0.53157 0.74217 0.59749 0.0
H477 H 0.50819 0.79839 0.42787 0.0
H478 H 0.50215 0.78517 0.49832 0.0
H479 H 0.53121 0.73177 0.53586 0.0
H480 H 0.51209 0.70946 0.73989 0.0
H481 H 0.50444 0.71581 0.66983 0.0
H482 H 0.53197 0.79805 0.63117 0.0
C483 C 0.51697 0.78352 0.4809 0.0
C484 C 0.53121 0.74627 0.55642 0.0
C485 C 0.52028 0.79088 0.44066 0.0
C486 C 0.52374 0.72908 0.72668 0.0
C487 C 0.51951 0.73266 0.68663 0.0
C488 C 0.53165 0.78339 0.61062 0.0
C489 C 0.53298 0.77457 0.49863 0.0
C490 C 0.53123 0.76905 0.54206 0.0
C491 C 0.53495 0.75764 0.6683 0.0
C492 C 0.53222 0.76091 0.62496 0.0
H493 H 0.57012 0.77843 0.41744 0.0
H494 H 0.56443 0.76555 0.48796 0.0
H495 H 0.53127 0.80521 0.55928 0.0
H496 H 0.57356 0.7923 0.74794 0.0
H497 H 0.5663 0.79865 0.67773 0.0
C498 C 0.74051 0.51662 0.59388 0.0
C499 C 0.75271 0.5432 0.58067 0.0
C500 C 0.74345 0.511 0.63364 0.0
C501 C 0.75522 0.54156 0.73221 0.0
H502 H 0.77794 0.49203 0.76558 0.0
C503 C 0.76921 0.52721 0.89817 0.0
C504 C 0.79497 0.53228 0.90636 0.0
C505 C 0.75962 0.52231 0.85889 0.0
C506 C 0.77131 0.5057 0.75661 0.0
H507 H 0.7797 0.58447 0.59694 0.0
H508 H 0.7844 0.57476 0.66644 0.0
H509 H 0.77104 0.49657 0.69426 0.0
H510 H 0.83006 0.53387 0.88131 0.0
H511 H 0.81336 0.52524 0.81272 0.0
H512 H 0.75615 0.55135 0.79407 0.0
C513 C 0.77202 0.55834 0.64652 0.0
C514 C 0.7673 0.50822 0.71597 0.0
C515 C 0.76931 0.56389 0.60688 0.0
C516 C 0.81027 0.53044 0.87542 0.0
C517 C 0.8006 0.52523 0.83632 0.0
C518 C 0.75887 0.53881 0.77273 0.0
C519 C 0.75861 0.53193 0.66052 0.0
C520 C 0.75995 0.52674 0.70344 0.0
C521 C 0.77552 0.52193 0.82748 0.0
C522 C 0.76759 0.52136 0.78527 0.0
H523 H 0.72786 0.50033 0.57397 0.0
H524 H 0.73309 0.49046 0.64376 0.0
H525 H 0.74926 0.55577 0.72325 0.0
H526 H 0.75706 0.52837 0.92176 0.0
H527 H 0.74013 0.51964 0.85285 0.0
C528 C 0.21913 0.78182 0.75858 0.0
C529 C 0.20953 0.75642 0.74158 0.0
C530 C 0.22653 0.78625 0.79887 0.0
C531 C 0.21216 0.75067 0.89382 0.0
H532 H 0.2749 0.81466 0.93181 0.0
C533 C 0.27308 0.79908 0.05027 0.0
C534 C 0.25241 0.79707 0.07438 0.0
C535 C 0.26874 0.79254 0.00968 0.0
C536 C 0.25742 0.79658 0.9216 0.0
H537 H 0.20116 0.71605 0.75239 0.0
H538 H 0.21405 0.72374 0.82293 0.0
H539 H 0.26691 0.80696 0.85992 0.0
H540 H 0.21066 0.785 0.07606 0.0
H541 H 0.20297 0.77355 0.00495 0.0
H542 H 0.20249 0.74047 0.95548 0.0
C543 C 0.2156 0.74014 0.8053 0.0
C544 C 0.25275 0.79231 0.88053 0.0
C545 C 0.20844 0.7358 0.76496 0.0
C546 C 0.22703 0.78727 0.05779 0.0
C547 C 0.2226 0.78045 0.01728 0.0
C548 C 0.21669 0.75508 0.93488 0.0
C549 C 0.22433 0.7653 0.82281 0.0
C550 C 0.23001 0.76937 0.86625 0.0
C551 C 0.24353 0.78348 0.99268 0.0
C552 C 0.23929 0.77814 0.94917 0.0
H553 H 0.22072 0.79817 0.74083 0.0
H554 H 0.23318 0.80584 0.81159 0.0
H555 H 0.19434 0.73293 0.88365 0.0
H556 H 0.29283 0.80657 0.06253 0.0
H557 H 0.28514 0.79475 0.99151 0.0
C558 C 0.4734 0.20384 0.94704 0.0
C559 C 0.45457 0.20556 0.92295 0.0
C560 C 0.47552 0.21033 0.98764 0.0
C561 C 0.46054 0.24737 0.06254 0.0
H562 H 0.46014 0.19607 0.13744 0.0
C563 C 0.47406 0.26757 0.23223 0.0
C564 C 0.45498 0.24706 0.25627 0.0
C565 C 0.47616 0.26304 0.19171 0.0
C566 C 0.46027 0.21055 0.11685 0.0
H567 H 0.42445 0.21705 0.92138 0.0
H568 H 0.42807 0.2284 0.99254 0.0
H569 H 0.45985 0.18812 0.06554 0.0
H570 H 0.42441 0.20532 0.25787 0.0
H571 H 0.42799 0.1973 0.18685 0.0
H572 H 0.46065 0.26964 0.11384 0.0
C573 C 0.44099 0.22176 0.98016 0.0
C574 C 0.46033 0.20613 0.07577 0.0
C575 C 0.43869 0.215 0.93962 0.0
C576 C 0.43886 0.22159 0.23967 0.0
C577 C 0.44112 0.21696 0.1992 0.0
C578 C 0.46078 0.25193 0.10362 0.0
C579 C 0.4591 0.21903 0.00471 0.0
C580 C 0.46024 0.22439 0.04822 0.0
C581 C 0.45945 0.23779 0.17468 0.0
C582 C 0.46043 0.23346 0.13117 0.0
H583 H 0.48589 0.19664 0.93476 0.0
H584 H 0.48988 0.20837 0.00577 0.0
H585 H 0.46063 0.26183 0.04196 0.0
H586 H 0.48674 0.28739 0.24446 0.0
H587 H 0.49068 0.27935 0.1736 0.0
C588 C 0.30061 0.31626 0.82683 0.0
C589 C 0.28122 0.30748 0.85702 0.0
C590 C 0.30483 0.29792 0.80535 0.0
C591 C 0.29519 0.23015 0.81634 0.0
H592 H 0.31869 0.23992 0.706 0.0
C593 C 0.32366 0.15822 0.74558 0.0
C594 C 0.3488 0.17089 0.72752 0.0
C595 C 0.31067 0.17252 0.75353 0.0
C596 C 0.31212 0.23693 0.73683 0.0
H597 H 0.24996 0.27246 0.88661 0.0
H598 H 0.25683 0.24052 0.84862 0.0
H599 H 0.30483 0.26973 0.73546 0.0
H600 H 0.37917 0.20747 0.7005 0.0
H601 H 0.35663 0.23266 0.71451 0.0
H602 H 0.30297 0.19785 0.81819 0.0
C603 C 0.26934 0.2616 0.84224 0.0
C604 C 0.30427 0.25406 0.75376 0.0
C605 C 0.2653 0.27992 0.86392 0.0
C606 C 0.35974 0.19735 0.71444 0.0
C607 C 0.34679 0.21171 0.72243 0.0
C608 C 0.30291 0.21303 0.79942 0.0
C609 C 0.2896 0.27038 0.81338 0.0
C610 C 0.29602 0.25108 0.79393 0.0
C611 C 0.32264 0.19977 0.74363 0.0
C612 C 0.31178 0.21637 0.75963 0.0
H613 H 0.31322 0.33738 0.8208 0.0
H614 H 0.32077 0.30547 0.78364 0.0
H615 H 0.28955 0.22754 0.84757 0.0
H616 H 0.3149 0.13783 0.75607 0.0
H617 H 0.29185 0.1626 0.76922 0.0
C618 C 0.17148 0.36385 0.88671 0.0
C619 C 0.18548 0.35214 0.90257 0.0
C620 C 0.14397 0.35166 0.89193 0.0
C621 C 0.08399 0.29003 0.93087 0.0
H622 H 0.06227 0.34096 0.96108 0.0
C623 C 0.99362 0.26505 0.032 0.0
C624 C 0.97816 0.27677 0.0228 0.0
C625 C 0.01644 0.2714 0.00985 0.0
C626 C 0.06783 0.32644 0.95211 0.0
H627 H 0.18209 0.31825 0.9348 0.0
H628 H 0.13419 0.29716 0.94496 0.0
H629 H 0.10655 0.35698 0.93455 0.0
H630 H 0.974 0.30354 0.98199 0.0
H631 H 0.01397 0.31477 0.94362 0.0
H632 H 0.04543 0.25958 0.95062 0.0
C633 C 0.14404 0.31532 0.92753 0.0
C634 C 0.09327 0.33561 0.93667 0.0
C635 C 0.1715 0.32735 0.92175 0.0
C636 C 0.9855 0.29422 0.99 0.0
C637 C 0.00845 0.30075 0.9681 0.0
C638 C 0.05858 0.28087 0.94677 0.0
C639 C 0.13004 0.32781 0.91393 0.0
C640 C 0.10188 0.31758 0.92628 0.0
C641 C 0.02443 0.28978 0.97823 0.0
C642 C 0.05037 0.29902 0.95802 0.0
H643 H 0.18202 0.38311 0.87209 0.0
H644 H 0.13383 0.36156 0.88016 0.0
H645 H 0.0897 0.27551 0.92267 0.0
H646 H 0.98847 0.25146 0.05697 0.0
H647 H 0.02845 0.26278 0.01859 0.0
C648 C 0.80777 0.16319 0.04432 0.0
C649 C 0.83254 0.17696 0.06344 0.0
C650 C 0.79146 0.13563 0.04957 0.0
C651 C 0.78903 0.0748 0.09278 0.0
H652 H 0.71616 0.05497 0.11665 0.0
C653 C 0.71977 0.98542 0.19272 0.0
C654 C 0.69256 0.97054 0.18323 0.0
C655 C 0.73699 0.00797 0.17044 0.0
C656 C 0.73628 0.05996 0.1094 0.0
H657 H 0.8605 0.17298 0.10123 0.0
H658 H 0.83203 0.12495 0.11101 0.0
H659 H 0.74638 0.09906 0.09009 0.0
H660 H 0.66231 0.96712 0.14177 0.0
H661 H 0.69241 0.00658 0.10291 0.0
H662 H 0.77899 0.03589 0.11385 0.0
C663 C 0.82519 0.13509 0.09136 0.0
C664 C 0.75367 0.08529 0.09401 0.0
C665 C 0.84155 0.16262 0.08582 0.0
C666 C 0.68314 0.9782 0.15001 0.0
C667 C 0.70035 1.00087 0.12785 0.0
C668 C 0.77163 0.04947 0.1084 0.0
C669 C 0.79953 0.1214 0.07445 0.0
C670 C 0.78041 0.09326 0.08614 0.0
C671 C 0.7274 0.01628 0.13822 0.0
C672 C 0.74517 0.04194 0.11755 0.0
H673 H 0.80048 0.17399 0.02703 0.0
H674 H 0.77208 0.12568 0.0354 0.0
H675 H 0.80935 0.08007 0.08651 0.0
H676 H 0.72773 0.98004 0.21803 0.0
H677 H 0.75764 0.01952 0.17951 0.0
C678 C 0.70311 0.68365 0.31155 0.0
C679 C 0.72412 0.69302 0.33925 0.0
C680 C 0.69756 0.70157 0.29164 0.0
C681 C 0.70722 0.76926 0.30489 0.0
H682 H 0.67797 0.75819 0.19775 0.0
C683 C 0.67543 0.84058 0.24167 0.0
C684 C 0.64962 0.8279 0.22573 0.0
C685 C 0.68856 0.82621 0.24765 0.0
C686 C 0.68612 0.76153 0.22772 0.0
H687 H 0.75683 0.72862 0.36576 0.0
H688 H 0.7476 0.75977 0.33046 0.0
H689 H 0.69342 0.72879 0.22347 0.0
H690 H 0.61808 0.79113 0.20053 0.0
H691 H 0.64087 0.76582 0.21114 0.0
H692 H 0.69946 0.8015 0.30967 0.0
C693 C 0.73488 0.73858 0.3249 0.0
C694 C 0.6949 0.74465 0.24251 0.0
C695 C 0.74028 0.72071 0.34501 0.0
C696 C 0.63801 0.80126 0.21287 0.0
C697 C 0.65111 0.78684 0.2189 0.0
C698 C 0.69855 0.78612 0.29011 0.0
C699 C 0.71301 0.72924 0.29879 0.0
C700 C 0.70532 0.74814 0.28149 0.0
C701 C 0.6761 0.79886 0.23788 0.0
C702 C 0.68763 0.78234 0.25151 0.0
H703 H 0.69027 0.66243 0.30646 0.0
H704 H 0.68044 0.6936 0.272 0.0
H705 H 0.71454 0.77226 0.33534 0.0
H706 H 0.68473 0.8611 0.25195 0.0
H707 H 0.708 0.83622 0.26163 0.0
C708 C 0.01801 0.7043 0.47747 0.0
C709 C 0.02982 0.72583 0.5045 0.0
C710 C 0.99497 0.69881 0.45643 0.0
C711 C 0.93834 0.71104 0.46376 0.0
H712 H 0.92019 0.67718 0.35934 0.0
C713 C 0.83632 0.67813 0.39515 0.0
C714 C 0.82255 0.65112 0.38386 0.0
C715 C 0.86386 0.69137 0.40113 0.0
C716 C 0.92504 0.68671 0.38846 0.0
H717 H 0.0277 0.75948 0.52871 0.0
H718 H 0.9882 0.75051 0.49121 0.0
H719 H 0.96455 0.69284 0.38701 0.0
H720 H 0.82662 0.61726 0.36705 0.0
H721 H 0.87477 0.64038 0.37697 0.0
H722 H 0.89882 0.70461 0.46554 0.0
C723 C 0.99608 0.73724 0.48716 0.0
C724 C 0.95041 0.69556 0.40446 0.0
C725 C 0.01887 0.74251 0.50853 0.0
C726 C 0.83694 0.6382 0.37541 0.0
C727 C 0.86449 0.65145 0.38115 0.0
C728 C 0.91315 0.70243 0.44766 0.0
C729 C 0.98337 0.71491 0.46159 0.0
C730 C 0.95727 0.70748 0.44265 0.0
C731 C 0.87809 0.67783 0.39576 0.0
C732 C 0.90602 0.68979 0.4101 0.0
H733 H 0.02594 0.69103 0.47374 0.0
H734 H 0.98568 0.68128 0.43741 0.0
H735 H 0.94252 0.71955 0.49357 0.0
H736 H 0.82558 0.68841 0.40226 0.0
H737 H 0.87383 0.7118 0.41189 0.0
C738 C 0.2802 0.01354 0.68469 0.0
C739 C 0.30763 0.02895 0.67709 0.0
C740 C 0.26379 0.99165 0.6604 0.0
C741 C 0.2668 0.94186 0.59662 0.0
H742 H 0.19424 0.92175 0.56972 0.0
C743 C 0.19764 0.83934 0.52689 0.0
C744 C 0.17257 0.82521 0.54493 0.0
C745 C 0.21351 0.86694 0.53265 0.0
C746 C 0.21443 0.92702 0.57706 0.0
H747 H 0.33913 0.03403 0.63697 0.0
H748 H 0.31046 0.99569 0.59466 0.0
H749 H 0.22355 0.96529 0.60028 0.0
H750 H 0.1436 0.82859 0.58107 0.0
H751 H 0.17123 0.87663 0.59174 0.0
H752 H 0.25756 0.90333 0.57535 0.0
C753 C 0.30171 1.00049 0.61962 0.0
C754 C 0.23123 0.95199 0.59453 0.0
C755 C 0.31811 0.02252 0.64377 0.0
C756 C 0.16277 0.83924 0.56643 0.0
C757 C 0.17868 0.86679 0.57251 0.0
C758 C 0.24999 0.91687 0.57943 0.0
C759 C 0.27443 0.98454 0.62804 0.0
C760 C 0.25746 0.95948 0.60523 0.0
C761 C 0.2047 0.88084 0.55703 0.0
C762 C 0.2234 0.90886 0.57013 0.0
H763 H 0.27144 0.01798 0.71 0.0
H764 H 0.24293 0.97964 0.66798 0.0
H765 H 0.28676 0.94682 0.60497 0.0
H766 H 0.20559 0.82878 0.5104 0.0
H767 H 0.23318 0.87716 0.51953 0.0
C768 C 0.84399 0.67338 0.077 0.0
C769 C 0.83314 0.64852 0.09596 0.0
C770 C 0.82858 0.68543 0.07127 0.0
C771 C 0.75757 0.6652 0.06171 0.0
H772 H 0.78581 0.7413 0.04858 0.0
C773 C 0.69145 0.70685 0.00799 0.0
C774 C 0.7018 0.72456 0.97553 0.0
C775 C 0.70773 0.70017 0.03001 0.0
C776 C 0.77766 0.71999 0.05219 0.0
H777 H 0.79862 0.61743 0.12614 0.0
H778 H 0.77198 0.63899 0.11812 0.0
H779 H 0.81404 0.72523 0.07653 0.0
H780 H 0.73768 0.75017 0.94207 0.0
H781 H 0.76606 0.73858 0.98061 0.0
H782 H 0.72132 0.65997 0.03703 0.0
C783 C 0.79206 0.64894 0.10649 0.0
C784 C 0.79384 0.71075 0.0681 0.0
C785 C 0.80738 0.63674 0.11167 0.0
C786 C 0.72905 0.73638 0.96677 0.0
C787 C 0.74537 0.72987 0.98902 0.0
C788 C 0.74137 0.67445 0.04624 0.0
C789 C 0.80205 0.67289 0.0847 0.0
C790 C 0.78416 0.68317 0.07239 0.0
C791 C 0.73476 0.71125 0.02032 0.0
C792 C 0.75135 0.7019 0.04061 0.0
H793 H 0.86372 0.68253 0.06407 0.0
H794 H 0.83695 0.70367 0.05401 0.0
H795 H 0.74947 0.64383 0.06361 0.0
H796 H 0.67058 0.69746 0.01566 0.0
H797 H 0.69905 0.68597 0.05423 0.0
C798 C 0.98597 0.72136 0.13385 0.0
C799 C 0.97425 0.69375 0.14039 0.0
C800 C 0.00851 0.7395 0.15539 0.0
C801 C 0.05142 0.74633 0.24296 0.0
H802 H 0.10603 0.803 0.17877 0.0
C803 C 0.16382 0.80294 0.28114 0.0
C804 C 0.17917 0.8296 0.26883 0.0
C805 C 0.1365 0.78851 0.27322 0.0
C806 C 0.09086 0.78766 0.19747 0.0
H807 H 0.97641 0.66359 0.17584 0.0
H808 H 0.01615 0.69518 0.21272 0.0
H809 H 0.06275 0.77353 0.14964 0.0
H810 H 0.17798 0.86285 0.24161 0.0
H811 H 0.13016 0.83792 0.22851 0.0
H812 H 0.08024 0.76008 0.29035 0.0
C813 C 0.0077 0.7029 0.19142 0.0
C814 C 0.06594 0.77068 0.1807 0.0
C815 C 0.98497 0.68474 0.17009 0.0
C816 C 0.1665 0.84231 0.25152 0.0
C817 C 0.13921 0.82793 0.2436 0.0
C818 C 0.0765 0.7633 0.25972 0.0
C819 C 0.02009 0.7305 0.18374 0.0
C820 C 0.04593 0.74961 0.20303 0.0
C821 C 0.12411 0.80056 0.25282 0.0
C822 C 0.09659 0.78402 0.237 0.0
H823 H 0.97802 0.72899 0.11154 0.0
H824 H 0.01711 0.76062 0.14929 0.0
H825 H 0.03639 0.73054 0.26121 0.0
H826 H 0.17329 0.79279 0.2945 0.0
H827 H 0.12552 0.76746 0.28059 0.0
C828 C 0.26103 0.98368 0.31017 0.0
C829 C 0.27626 0.97147 0.31737 0.0
C830 C 0.2656 0.00626 0.3319 0.0
C831 C 0.30065 0.04845 0.42101 0.0
H832 H 0.30143 0.1043 0.35631 0.0
C833 C 0.35731 0.16106 0.4622 0.0
C834 C 0.34705 0.17695 0.44846 0.0
C835 C 0.34408 0.13365 0.45377 0.0
C836 C 0.30079 0.0888 0.37515 0.0
H837 H 0.30754 0.97275 0.35427 0.0
H838 H 0.31599 0.01257 0.39159 0.0
H839 H 0.28735 0.06094 0.32674 0.0
H840 H 0.31398 0.1766 0.41828 0.0
H841 H 0.29042 0.12864 0.40445 0.0
H842 H 0.31511 0.07697 0.46908 0.0
C843 C 0.30019 0.00448 0.36954 0.0
C844 C 0.2927 0.06382 0.35812 0.0
C845 C 0.29545 0.9817 0.34798 0.0
C846 C 0.32223 0.1647 0.4293 0.0
C847 C 0.30896 0.13732 0.42095 0.0
C848 C 0.30887 0.07357 0.43807 0.0
C849 C 0.28571 0.0174 0.36115 0.0
C850 C 0.29273 0.04335 0.38064 0.0
C851 C 0.32032 0.12169 0.43149 0.0
C852 C 0.30925 0.09413 0.41521 0.0
H853 H 0.24585 0.97611 0.28716 0.0
H854 H 0.25362 0.01527 0.32524 0.0
H855 H 0.30063 0.03306 0.43939 0.0
H856 H 0.37647 0.17017 0.47703 0.0
H857 H 0.35345 0.12228 0.46226 0.0
C858 C 0.31789 0.29818 0.52535 0.0
C859 C 0.30752 0.27991 0.49338 0.0
C860 C 0.30146 0.30475 0.54733 0.0
C861 C 0.23104 0.28357 0.56961 0.0
H862 H 0.25781 0.35953 0.58117 0.0
C863 C 0.16284 0.32838 0.59167 0.0
C864 C 0.17299 0.35309 0.61112 0.0
C865 C 0.17874 0.31679 0.5865 0.0
C866 C 0.25011 0.33821 0.57919 0.0
H867 H 0.27148 0.25327 0.46073 0.0
H868 H 0.24291 0.26468 0.49905 0.0
H869 H 0.28677 0.34412 0.55519 0.0
H870 H 0.20675 0.38433 0.64277 0.0
H871 H 0.23427 0.36365 0.63547 0.0
H872 H 0.19421 0.27767 0.59308 0.0
C873 C 0.26371 0.27391 0.50721 0.0
C874 C 0.26678 0.32938 0.5641 0.0
C875 C 0.28016 0.26751 0.48505 0.0
C876 C 0.19853 0.36514 0.62788 0.0
C877 C 0.21436 0.35345 0.62314 0.0
C878 C 0.21438 0.2924 0.58504 0.0
C879 C 0.27426 0.29301 0.53807 0.0
C880 C 0.25731 0.30199 0.55837 0.0
C881 C 0.20509 0.32967 0.60093 0.0
C882 C 0.22353 0.31988 0.58929 0.0
H883 H 0.33886 0.30804 0.53265 0.0
H884 H 0.31013 0.31934 0.5712 0.0
H885 H 0.22326 0.26231 0.56602 0.0
H886 H 0.1433 0.31898 0.578 0.0
H887 H 0.17092 0.29865 0.56892 0.0
C888 C 0.01939 0.31792 0.68277 0.0
C889 C 0.03075 0.30879 0.65421 0.0
C890 C 0.99603 0.29986 0.70276 0.0
C891 C 0.93779 0.2322 0.68916 0.0
H892 H 0.92038 0.2429 0.79702 0.0
C893 C 0.83523 0.16063 0.75402 0.0
C894 C 0.82215 0.17333 0.77004 0.0
C895 C 0.86269 0.17504 0.74764 0.0
C896 C 0.92498 0.23965 0.76687 0.0
H897 H 0.02749 0.27345 0.62616 0.0
H898 H 0.98732 0.242 0.66166 0.0
H899 H 0.96506 0.27233 0.77078 0.0
H900 H 0.82741 0.2102 0.79488 0.0
H901 H 0.87546 0.23555 0.78373 0.0
H902 H 0.89774 0.19996 0.68482 0.0
C903 C 0.99589 0.26313 0.66781 0.0
C904 C 0.95055 0.25657 0.75175 0.0
C905 C 0.01905 0.28117 0.64759 0.0
C906 C 0.83719 0.20005 0.78256 0.0
C907 C 0.86467 0.21449 0.7762 0.0
C908 C 0.91238 0.21528 0.70429 0.0
C909 C 0.98364 0.27225 0.69487 0.0
C910 C 0.95719 0.25324 0.71249 0.0
C911 C 0.87757 0.20242 0.75716 0.0
C912 C 0.90552 0.21895 0.74314 0.0
H913 H 0.02792 0.33909 0.68853 0.0
H914 H 0.9871 0.30768 0.72309 0.0
H915 H 0.94186 0.22932 0.65852 0.0
H916 H 0.82399 0.14006 0.74398 0.0
H917 H 0.8721 0.16504 0.73356 0.0
C918 C 0.70584 0.02351 0.8492 0.0
C919 C 0.72288 0.0311 0.81594 0.0
C920 C 0.70047 1.00092 0.87155 0.0
C921 C 0.72333 0.95249 0.89132 0.0
H922 H 0.64853 0.9028 0.90976 0.0
C923 C 0.68025 0.83936 0.91381 0.0
C924 C 0.65684 0.82495 0.93602 0.0
C925 C 0.69144 0.86691 0.90846 0.0
C926 C 0.66958 0.9166 0.90582 0.0
H927 H 0.74858 0.02159 0.78126 0.0
H928 H 0.73918 0.98227 0.82009 0.0
H929 H 0.66229 0.94683 0.88307 0.0
H930 H 0.62764 0.82781 0.97234 0.0
H931 H 0.64762 0.87616 0.96436 0.0
H932 H 0.73054 0.92196 0.91331 0.0
C933 C 0.73004 0.9938 0.82905 0.0
C934 C 0.67747 0.9419 0.89036 0.0
C935 C 0.73528 0.01626 0.80659 0.0
C936 C 0.64581 0.83867 0.95523 0.0
C937 C 0.65708 0.86625 0.95018 0.0
C938 C 0.71545 0.92719 0.90703 0.0
C939 C 0.71217 0.98555 0.86131 0.0
C940 C 0.70436 0.95995 0.88213 0.0
C941 C 0.67942 0.88055 0.92539 0.0
C942 C 0.6884 0.90869 0.91371 0.0
H943 H 0.69604 0.03455 0.85733 0.0
H944 H 0.68684 0.99526 0.89651 0.0
H945 H 0.74426 0.96609 0.88583 0.0
H946 H 0.68884 0.82904 0.8983 0.0
H947 H 0.70845 0.8771 0.88887 0.0
C948 C 0.28951 0.36253 0.07574 0.0
C949 C 0.29627 0.35896 0.03677 0.0
C950 C 0.29496 0.35109 0.10841 0.0
C951 C 0.34042 0.32849 0.14011 0.0
H952 H 0.29096 0.29584 0.22795 0.0
C953 C 0.36596 0.28376 0.27424 0.0
C954 C 0.35945 0.28892 0.31243 0.0
C955 C 0.35606 0.28943 0.23997 0.0
C956 C 0.30508 0.30512 0.20383 0.0
H957 H 0.31338 0.33982 0.00148 0.0
H958 H 0.323 0.31991 0.05868 0.0
H959 H 0.27745 0.31078 0.16884 0.0
H960 H 0.33692 0.3036 0.34456 0.0
H961 H 0.32015 0.31415 0.28465 0.0
H962 H 0.36834 0.32362 0.17525 0.0
C963 C 0.31364 0.33177 0.06385 0.0
C964 C 0.29731 0.31359 0.16996 0.0
C965 C 0.30801 0.34308 0.03111 0.0
C966 C 0.3423 0.29935 0.31558 0.0
C967 C 0.33255 0.30525 0.28121 0.0
C968 C 0.34826 0.3202 0.17402 0.0
C969 C 0.30741 0.3359 0.10286 0.0
C970 C 0.31497 0.3255 0.13787 0.0
C971 C 0.3396 0.30066 0.24299 0.0
C972 C 0.33074 0.30853 0.2064 0.0
H973 H 0.28018 0.37435 0.08118 0.0
H974 H 0.29011 0.35478 0.13814 0.0
H975 H 0.35462 0.33801 0.11613 0.0
H976 H 0.37892 0.27552 0.27069 0.0
H977 H 0.36145 0.28513 0.21105 0.0
C978 C 0.92564 0.29887 0.23718 0.0
C979 C 0.93351 0.29121 0.20218 0.0
C980 C 0.94131 0.30586 0.2716 0.0
C981 C 0.99238 0.2986 0.32397 0.0
H982 H 0.01159 0.36732 0.37117 0.0
C983 C 0.04676 0.33761 0.47684 0.0
C984 C 0.0689 0.36361 0.47583 0.0
C985 C 0.02995 0.3272 0.44361 0.0
C986 C 0.00636 0.34809 0.35829 0.0
H987 H 0.96354 0.28397 0.17632 0.0
H988 H 0.99078 0.29587 0.23696 0.0
H989 H 0.98212 0.35133 0.31304 0.0
H990 H 0.09059 0.39915 0.43948 0.0
H991 H 0.06107 0.38109 0.38185 0.0
H992 H 0.01661 0.29541 0.36958 0.0
C993 C 0.9725 0.29654 0.23745 0.0
C994 C 0.9894 0.33888 0.32526 0.0
C995 C 0.957 0.2899 0.20275 0.0
C996 C 0.07389 0.37895 0.44103 0.0
C997 C 0.0569 0.36872 0.40815 0.0
C998 C 0.00904 0.30764 0.35752 0.0
C999 C 0.96499 0.30499 0.27195 0.0
C1000 C 0.9824 0.31415 0.30764 0.0
C1001 C 0.03474 0.34282 0.40918 0.0
C1002 C 0.01635 0.33258 0.37468 0.0
H1003 H 0.90768 0.30012 0.23777 0.0
H1004 H 0.93501 0.31213 0.29794 0.0
H1005 H 0.98715 0.27942 0.31096 0.0
H1006 H 0.04246 0.32532 0.50326 0.0
H1007 H 0.01289 0.30721 0.44512 0.0
C1008 C 0.65645 0.95842 0.35894 0.0
C1009 C 0.64038 0.9306 0.36322 0.0
C1010 C 0.66667 0.9749 0.3926 0.0
C1011 C 0.65445 0.97529 0.50117 0.0
H1012 H 0.72374 0.03965 0.50051 0.0
C1013 C 0.69882 0.04115 0.64153 0.0
C1014 C 0.70904 0.06867 0.63583 0.0
C1015 C 0.69234 0.02397 0.60872 0.0
C1016 C 0.70431 0.02177 0.50102 0.0
H1017 H 0.62342 0.89823 0.40617 0.0
H1018 H 0.64176 0.9268 0.46464 0.0
H1019 H 0.70918 0.01004 0.44232 0.0
H1020 H 0.7212 0.09977 0.59112 0.0
H1021 H 0.71 0.06977 0.53398 0.0
H1022 H 0.64966 0.98701 0.55991 0.0
C1023 C 0.64587 0.93602 0.43539 0.0
C1024 C 0.69591 0.00485 0.46767 0.0
C1025 C 0.63546 0.91958 0.40181 0.0
C1026 C 0.71331 0.0787 0.59661 0.0
C1027 C 0.70705 0.06154 0.56384 0.0
C1028 C 0.66294 0.99207 0.53458 0.0
C1029 C 0.66125 0.96392 0.43128 0.0
C1030 C 0.67078 0.98148 0.46723 0.0
C1031 C 0.69618 0.03396 0.56955 0.0
C1032 C 0.68786 0.01558 0.53474 0.0
H1033 H 0.66057 0.96757 0.32963 0.0
H1034 H 0.67816 0.99632 0.38828 0.0
H1035 H 0.63476 0.95777 0.50165 0.0
H1036 H 0.69534 0.03276 0.67132 0.0
H1037 H 0.68423 0.00281 0.61398 0.0
C1038 C 0.72106 0.64519 0.55803 0.0
C1039 C 0.71298 0.64689 0.51906 0.0
C1040 C 0.71518 0.65673 0.59022 0.0
C1041 C 0.66669 0.67544 0.62182 0.0
H1042 H 0.71669 0.71218 0.70803 0.0
C1043 C 0.63854 0.71774 0.75714 0.0
C1044 C 0.64659 0.71396 0.79502 0.0
C1045 C 0.64854 0.7126 0.7224 0.0
C1046 C 0.70242 0.70176 0.68437 0.0
H1047 H 0.69312 0.66288 0.4832 0.0
H1048 H 0.68277 0.68299 0.53962 0.0
H1049 H 0.73109 0.69812 0.64882 0.0
H1050 H 0.67184 0.70218 0.82603 0.0
H1051 H 0.68882 0.69261 0.76544 0.0
H1052 H 0.63778 0.67827 0.65762 0.0
C1053 C 0.6935 0.67251 0.54516 0.0
C1054 C 0.71071 0.6938 0.65043 0.0
C1055 C 0.69957 0.66112 0.51285 0.0
C1056 C 0.66525 0.70536 0.79734 0.0
C1057 C 0.67513 0.70003 0.76255 0.0
C1058 C 0.65835 0.68323 0.65583 0.0
C1059 C 0.70098 0.67014 0.58423 0.0
C1060 C 0.69286 0.68035 0.61896 0.0
C1061 C 0.6667 0.70336 0.72465 0.0
C1062 C 0.67605 0.69629 0.68769 0.0
H1063 H 0.73166 0.63467 0.56386 0.0
H1064 H 0.72103 0.65439 0.62001 0.0
H1065 H 0.65237 0.66474 0.59834 0.0
H1066 H 0.62436 0.72453 0.75421 0.0
H1067 H 0.64198 0.71584 0.69373 0.0
C1068 C 0.04293 0.70401 0.68238 0.0
C1069 C 0.0707 0.71622 0.6859 0.0
C1070 C 0.02706 0.69814 0.71649 0.0
C1071 C 0.02881 0.68652 0.82469 0.0
H1072 H 0.96377 0.68962 0.82653 0.0
C1073 C 0.9641 0.66089 0.9662 0.0
C1074 C 0.93674 0.64328 0.96039 0.0
C1075 C 0.98093 0.67274 0.93351 0.0
C1076 C 0.98185 0.68858 0.82636 0.0
H1077 H 0.10365 0.7331 0.72784 0.0
H1078 H 0.07613 0.72349 0.78705 0.0
H1079 H 0.99244 0.7054 0.76769 0.0
H1080 H 0.90557 0.62527 0.91563 0.0
H1081 H 0.93489 0.64575 0.85877 0.0
H1082 H 0.01816 0.66957 0.88318 0.0
C1083 C 0.0665 0.71773 0.75809 0.0
C1084 C 0.99823 0.69755 0.79265 0.0
C1085 C 0.08231 0.72337 0.72409 0.0
C1086 C 0.92652 0.63848 0.92124 0.0
C1087 C 0.9433 0.65043 0.88861 0.0
C1088 C 0.01253 0.67772 0.85841 0.0
C1089 C 0.03866 0.70455 0.75481 0.0
C1090 C 0.0218 0.6964 0.79128 0.0
C1091 C 0.97073 0.6674 0.89435 0.0
C1092 C 0.98876 0.67841 0.85947 0.0
H1093 H 0.03336 0.69821 0.65338 0.0
H1094 H 0.00567 0.68774 0.71286 0.0
H1095 H 0.04653 0.68483 0.82441 0.0
H1096 H 0.97265 0.66516 0.99595 0.0
H1097 H 0.00196 0.68599 0.93886 0.0
C1098 C 0.30082 0.96188 0.14233 0.0
C1099 C 0.29149 0.93446 0.13711 0.0
C1100 C 0.30664 0.97858 0.10921 0.0
C1101 C 0.29426 0.97892 0.00122 0.0
H1102 H 0.36309 0.0438 0.00092 0.0
C1103 C 0.34163 0.04031 0.85781 0.0
C1104 C 0.35737 0.06821 0.86157 0.0
C1105 C 0.33139 0.02429 0.8918 0.0
C1106 C 0.34359 0.02604 0.00069 0.0
H1107 H 0.28022 0.90301 0.09293 0.0
H1108 H 0.29024 0.93213 0.03531 0.0
H1109 H 0.34874 0.01559 0.05999 0.0
H1110 H 0.3736 0.10121 0.90376 0.0
H1111 H 0.3552 0.07349 0.96265 0.0
H1112 H 0.28906 0.98936 0.9419 0.0
C1113 C 0.29299 0.94066 0.065 0.0
C1114 C 0.33541 0.00985 0.03457 0.0
C1115 C 0.28741 0.92402 0.09806 0.0
C1116 C 0.36185 0.07978 0.89983 0.0
C1117 C 0.35141 0.06384 0.93368 0.0
C1118 C 0.30234 0.99525 0.96738 0.0
C1119 C 0.30299 0.96815 0.07023 0.0
C1120 C 0.31078 0.98603 0.03507 0.0
C1121 C 0.33647 0.03587 0.9302 0.0
C1122 C 0.32721 0.01891 0.9666 0.0
H1123 H 0.30411 0.97056 0.17199 0.0
H1124 H 0.31411 0.99969 0.11406 0.0
H1125 H 0.27504 0.96076 0.00097 0.0
H1126 H 0.33785 0.03077 0.82874 0.0
H1127 H 0.32021 0.00281 0.888 0.0
C1128 C 0.55446 0.6322 0.93339 0.0
C1129 C 0.5519 0.65503 0.93057 0.0
C1130 C 0.53175 0.60672 0.93534 0.0
C1131 C 0.46002 0.57142 0.95775 0.0
H1132 H 0.45319 0.52084 0.87564 0.0
C1133 C 0.35792 0.48526 0.91608 0.0
C1134 C 0.35487 0.45977 0.91122 0.0
C1135 C 0.38315 0.50789 0.9176 0.0
C1136 C 0.4549 0.53457 0.89908 0.0
H1137 H 0.5239 0.66934 0.92986 0.0
H1138 H 0.48452 0.62519 0.93447 0.0
H1139 H 0.4958 0.56215 0.88526 0.0
H1140 H 0.3758 0.43808 0.9018 0.0
H1141 H 0.42026 0.47786 0.90488 0.0
H1142 H 0.41933 0.54425 0.97162 0.0
C1143 C 0.5039 0.6268 0.93482 0.0
C1144 C 0.47931 0.55816 0.90467 0.0
C1145 C 0.52644 0.65208 0.93214 0.0
C1146 C 0.37759 0.45753 0.90527 0.0
C1147 C 0.40302 0.4803 0.90721 0.0
C1148 C 0.43578 0.54788 0.95238 0.0
C1149 C 0.50624 0.6038 0.93538 0.0
C1150 C 0.48187 0.5771 0.93342 0.0
C1151 C 0.40605 0.50562 0.91488 0.0
C1152 C 0.43267 0.5295 0.92224 0.0
H1153 H 0.57386 0.63393 0.93178 0.0
H1154 H 0.53407 0.58929 0.93596 0.0
H1155 H 0.46154 0.58548 0.98051 0.0
H1156 H 0.34074 0.48762 0.92036 0.0
H1157 H 0.38471 0.52716 0.92218 0.0
C1158 C 0.876 0.35032 0.05978 0.0
C1159 C 0.8983 0.34712 0.0631 0.0
C1160 C 0.87905 0.37573 0.05692 0.0
C1161 C 0.92287 0.44388 0.08978 0.0
H1162 H 0.87814 0.45893 0.02157 0.0
C1163 C 0.92134 0.54439 0.09095 0.0
C1164 C 0.89629 0.54192 0.08487 0.0
C1165 C 0.92431 0.52181 0.08846 0.0
C1166 C 0.89061 0.45498 0.04111 0.0
H1167 H 0.94135 0.36791 0.06466 0.0
H1168 H 0.94673 0.41274 0.0601 0.0
H1169 H 0.87926 0.41783 0.0119 0.0
H1170 H 0.85445 0.51382 0.07496 0.0
H1171 H 0.85942 0.47462 0.07201 0.0
H1172 H 0.93357 0.48077 0.11982 0.0
C1173 C 0.92691 0.39543 0.05951 0.0
C1174 C 0.89138 0.43152 0.03533 0.0
C1175 C 0.92384 0.36983 0.06166 0.0
C1176 C 0.87406 0.51636 0.07933 0.0
C1177 C 0.87696 0.49393 0.07719 0.0
C1178 C 0.92201 0.46742 0.09573 0.0
C1179 C 0.90448 0.39859 0.05792 0.0
C1180 C 0.90701 0.42538 0.06018 0.0
C1181 C 0.90224 0.49648 0.08005 0.0
C1182 C 0.90529 0.47285 0.07212 0.0
H1183 H 0.85608 0.33315 0.06099 0.0
H1184 H 0.86138 0.3775 0.05607 0.0
H1185 H 0.93494 0.43955 0.10961 0.0
H1186 H 0.93885 0.56389 0.09496 0.0
H1187 H 0.94403 0.52441 0.09096 0.0
C1188 C 0.51642 0.86658 0.23865 0.0
C1189 C 0.54182 0.88931 0.23576 0.0
C1190 C 0.49386 0.86909 0.24106 0.0
C1191 C 0.46752 0.91526 0.22957 0.0
H1192 H 0.41649 0.8675 0.30763 0.0
C1193 C 0.37117 0.9171 0.27011 0.0
C1194 C 0.34819 0.89193 0.26553 0.0
C1195 C 0.39635 0.91939 0.27073 0.0
C1196 C 0.43057 0.881 0.28581 0.0
H1197 H 0.56344 0.93244 0.23066 0.0
H1198 H 0.52381 0.93694 0.23534 0.0
H1199 H 0.45727 0.86648 0.29623 0.0
H1200 H 0.3333 0.8494 0.26032 0.0
H1201 H 0.37693 0.85329 0.26261 0.0
H1202 H 0.44044 0.92962 0.21926 0.0
C1203 C 0.52137 0.91713 0.23541 0.0
C1204 C 0.45386 0.88029 0.27898 0.0
C1205 C 0.54406 0.91457 0.23253 0.0
C1206 C 0.35069 0.86905 0.26403 0.0
C1207 C 0.37568 0.87128 0.26537 0.0
C1208 C 0.44418 0.91608 0.23663 0.0
C1209 C 0.49612 0.89444 0.24127 0.0
C1210 C 0.47232 0.89689 0.25003 0.0
C1211 C 0.39882 0.89649 0.26763 0.0
C1212 C 0.42521 0.8985 0.26418 0.0
H1213 H 0.51408 0.84684 0.24088 0.0
H1214 H 0.47466 0.85112 0.24419 0.0
H1215 H 0.48131 0.92831 0.2071 0.0
H1216 H 0.36979 0.93508 0.27085 0.0
H1217 H 0.41389 0.93905 0.27273 0.0
C1218 C 0.45535 0.37019 0.44385 0.0
C1219 C 0.45743 0.34706 0.44158 0.0
C1220 C 0.47829 0.39555 0.44308 0.0
C1221 C 0.55101 0.43097 0.45781 0.0
H1222 H 0.55388 0.47888 0.37453 0.0
C1223 C 0.65097 0.5168 0.40705 0.0
C1224 C 0.65335 0.54192 0.40112 0.0
C1225 C 0.62602 0.49396 0.41081 0.0
C1226 C 0.55332 0.46592 0.39826 0.0
H1227 H 0.48495 0.33219 0.43913 0.0
H1228 H 0.5248 0.37619 0.43908 0.0
H1229 H 0.51186 0.43799 0.38882 0.0
H1230 H 0.63146 0.56265 0.39223 0.0
H1231 H 0.58755 0.52258 0.39936 0.0
H1232 H 0.59223 0.45856 0.46747 0.0
C1233 C 0.5056 0.3749 0.44106 0.0
C1234 C 0.52924 0.44255 0.40652 0.0
C1235 C 0.48278 0.34969 0.44108 0.0
C1236 C 0.63017 0.54349 0.39642 0.0
C1237 C 0.60504 0.52054 0.4007 0.0
C1238 C 0.57493 0.45431 0.44981 0.0
C1239 C 0.50362 0.39811 0.44089 0.0
C1240 C 0.52801 0.42457 0.4358 0.0
C1241 C 0.60276 0.49567 0.40942 0.0
C1242 C 0.57661 0.47178 0.41925 0.0
H1243 H 0.43604 0.36872 0.44375 0.0
H1244 H 0.47624 0.41314 0.44325 0.0
H1245 H 0.55057 0.41767 0.48092 0.0
H1246 H 0.66851 0.51497 0.41045 0.0
H1247 H 0.62502 0.47503 0.41612 0.0
C1248 C 0.08528 0.63244 0.557 0.0
C1249 C 0.11035 0.65565 0.5605 0.0
C1250 C 0.08298 0.60713 0.55844 0.0
C1251 C 0.12161 0.57254 0.54844 0.0
H1252 H 0.07291 0.52281 0.62696 0.0
C1253 C 0.13474 0.48686 0.60225 0.0
C1254 C 0.11201 0.46134 0.60383 0.0
C1255 C 0.13238 0.50958 0.59893 0.0
C1256 C 0.08639 0.53634 0.60462 0.0
H1257 H 0.15268 0.67069 0.56592 0.0
H1258 H 0.14877 0.62688 0.56742 0.0
H1259 H 0.0719 0.56368 0.61168 0.0
H1260 H 0.06897 0.43967 0.60593 0.0
H1261 H 0.06476 0.47958 0.59982 0.0
H1262 H 0.13631 0.54561 0.54137 0.0
C1263 C 0.13085 0.62802 0.56384 0.0
C1264 C 0.08574 0.55967 0.59573 0.0
C1265 C 0.1331 0.65314 0.56302 0.0
C1266 C 0.08683 0.45914 0.60515 0.0
C1267 C 0.08444 0.48199 0.60141 0.0
C1268 C 0.12222 0.5493 0.55718 0.0
C1269 C 0.10576 0.60471 0.56263 0.0
C1270 C 0.10376 0.57829 0.56816 0.0
C1271 C 0.10721 0.50735 0.59654 0.0
C1272 C 0.10509 0.53121 0.58607 0.0
H1273 H 0.0674 0.63381 0.5555 0.0
H1274 H 0.06341 0.58948 0.55715 0.0
H1275 H 0.13545 0.58627 0.52659 0.0
H1276 H 0.15441 0.48917 0.60146 0.0
H1277 H 0.15035 0.52887 0.59657 0.0
C1278 C 0.62998 0.08694 0.76628 0.0
C1279 C 0.65309 0.11208 0.76268 0.0
C1280 C 0.60481 0.0846 0.76379 0.0
C1281 C 0.57434 0.12183 0.72082 0.0
H1282 H 0.51167 0.07255 0.78074 0.0
C1283 C 0.4824 0.1331 0.73605 0.0
C1284 C 0.45703 0.11021 0.73421 0.0
C1285 C 0.50518 0.1309 0.73491 0.0
C1286 C 0.52894 0.08609 0.76334 0.0
H1287 H 0.66814 0.15459 0.75729 0.0
H1288 H 0.62457 0.1507 0.75474 0.0
H1289 H 0.55381 0.07371 0.79253 0.0
H1290 H 0.43555 0.06707 0.72859 0.0
H1291 H 0.47571 0.06316 0.72708 0.0
H1292 H 0.54977 0.13476 0.6925 0.0
C1293 C 0.62565 0.13265 0.75782 0.0
C1294 C 0.55308 0.08682 0.77017 0.0
C1295 C 0.65064 0.13493 0.75981 0.0
C1296 C 0.45489 0.08506 0.7296 0.0
C1297 C 0.4778 0.0828 0.72919 0.0
C1298 C 0.55036 0.12122 0.71423 0.0
C1299 C 0.60242 0.1074 0.75797 0.0
C1300 C 0.57621 0.10514 0.74959 0.0
C1301 C 0.50314 0.10571 0.73252 0.0
C1302 C 0.52753 0.10372 0.73591 0.0
H1303 H 0.63133 0.06897 0.76812 0.0
H1304 H 0.58733 0.06485 0.76411 0.0
H1305 H 0.59152 0.1356 0.70346 0.0
H1306 H 0.48462 0.15273 0.73976 0.0
H1307 H 0.5244 0.14889 0.73784 0.0
loop_
_geom_bond_atom_site_label_1
_geom_bond_atom_site_label_2
_geom_bond_distance
_geom_bond_site_symmetry_2
_ccdc_geom_bond_type
Co0 O3 1.970 1_556 S
Co0 N17 1.989 . S
Co0 O25 1.967 . S
Co0 O32 1.920 . S
Co1 O4 1.966 . S
Co1 N10 2.022 . S
Co1 N18 1.993 1_554 S
Co1 O26 1.941 1_554 S
C2 O3 1.258 . S
C2 O4 1.263 . S
O3 Co0 1.970 1_554 S
O3 C2 1.258 . S
O4 Co1 1.966 . S
O4 C2 1.263 . S
C5 O6 1.235 . S
C5 O32 1.289 . S
O6 C5 1.235 . S
C7 C9 1.400 . S
C7 N10 1.351 . S
C7 C12 1.501 . S
C8 C9 1.387 . S
C8 N11 1.341 . S
C9 C7 1.400 . S
C9 C8 1.387 . S
N10 Co1 2.022 . S
N10 C7 1.351 . S
N10 N11 1.365 . S
N11 C8 1.341 . S
N11 N10 1.365 . S
N11 H31 0.862 . S
C12 C7 1.501 . S
C12 H13 0.961 . S
C12 H14 0.961 . S
C12 H15 0.960 . S
H13 C12 0.961 . S
H14 C12 0.961 . S
H15 C12 0.960 . S
C16 N17 1.342 . S
C16 C20 1.401 . S
C16 C21 1.499 . S
N17 Co0 1.989 . S
N17 C16 1.342 . S
N17 N18 1.388 . S
N18 Co1 1.993 1_556 S
N18 N17 1.388 . S
N18 C19 1.346 . S
C19 N18 1.346 . S
C19 C20 1.396 . S
C19 C29 1.510 1_556 S
C20 C16 1.401 . S
C20 C19 1.396 . S
C21 C16 1.499 . S
C21 H22 0.959 . S
C21 H23 0.960 . S
C21 H24 0.961 . S
H22 C21 0.959 . S
H23 C21 0.960 . S
H24 C21 0.961 . S
O25 Co0 1.967 . S
O25 C33 1.258 . S
O26 Co1 1.941 1_556 S
O26 C33 1.266 . S
H27 C29 0.959 . S
H28 C29 0.961 . S
C29 C19 1.510 1_554 S
C29 H27 0.959 . S
C29 H28 0.961 . S
C29 H30 0.960 . S
H30 C29 0.960 . S
H31 N11 0.862 . S
O32 Co0 1.920 . S
O32 C5 1.289 . S
C33 O25 1.258 . S
C33 O26 1.266 . S
Co34 O37 1.970 . S
Co34 N51 1.989 . S
Co34 O59 1.967 . S
Co34 O66 1.920 . S
Co35 O38 1.966 . S
Co35 N44 2.022 . S
Co35 N52 1.993 . S
Co35 O60 1.941 . S
C36 O37 1.258 . S
C36 O38 1.263 . S
O37 Co34 1.970 . S
O37 C36 1.258 . S
O38 Co35 1.966 . S
O38 C36 1.263 . S
C39 O40 1.235 . S
C39 O66 1.289 . S
O40 C39 1.235 . S
C41 C43 1.400 . S
C41 N44 1.351 . S
C41 C46 1.501 . S
C42 C43 1.387 . S
C42 N45 1.341 . S
C43 C41 1.400 . S
C43 C42 1.387 . S
N44 Co35 2.022 . S
N44 C41 1.351 . S
N44 N45 1.365 . S
N45 C42 1.341 . S
N45 N44 1.365 . S
N45 H65 0.862 . S
C46 C41 1.501 . S
C46 H47 0.961 . S
C46 H48 0.961 . S
C46 H49 0.960 . S
H47 C46 0.961 . S
H48 C46 0.961 . S
H49 C46 0.960 . S
C50 N51 1.342 . S
C50 C54 1.401 . S
C50 C55 1.499 . S
N51 Co34 1.989 . S
N51 C50 1.342 . S
N51 N52 1.388 . S
N52 Co35 1.993 . S
N52 N51 1.388 . S
N52 C53 1.346 . S
C53 N52 1.346 . S
C53 C54 1.396 . S
C53 C63 1.510 . S
C54 C50 1.401 . S
C54 C53 1.396 . S
C55 C50 1.499 . S
C55 H56 0.959 . S
C55 H57 0.960 . S
C55 H58 0.961 . S
H56 C55 0.959 . S
H57 C55 0.960 . S
H58 C55 0.961 . S
O59 Co34 1.967 . S
O59 C67 1.258 . S
O60 Co35 1.941 . S
O60 C67 1.266 . S
H61 C63 0.959 . S
H62 C63 0.961 . S
C63 C53 1.510 . S
C63 H61 0.959 . S
C63 H62 0.961 . S
C63 H64 0.960 . S
H64 C63 0.960 . S
H65 N45 0.862 . S
O66 Co34 1.920 . S
O66 C39 1.289 . S
C67 O59 1.258 . S
C67 O60 1.266 . S
Co68 O71 1.970 . S
Co68 N85 1.989 . S
Co68 O93 1.967 . S
Co68 O100 1.920 . S
Co69 O72 1.966 . S
Co69 N78 2.022 . S
Co69 N86 1.993 . S
Co69 O94 1.941 . S
C70 O71 1.258 . S
C70 O72 1.263 . S
O71 Co68 1.970 . S
O71 C70 1.258 . S
O72 Co69 1.966 . S
O72 C70 1.263 . S
C73 O74 1.235 . S
C73 O100 1.289 . S
O74 C73 1.235 . S
C75 C77 1.400 . S
C75 N78 1.351 . S
C75 C80 1.501 . S
C76 C77 1.387 . S
C76 N79 1.341 . S
C77 C75 1.400 . S
C77 C76 1.387 . S
N78 Co69 2.022 . S
N78 C75 1.351 . S
N78 N79 1.365 . S
N79 C76 1.341 . S
N79 N78 1.365 . S
N79 H99 0.862 . S
C80 C75 1.501 . S
C80 H81 0.961 . S
C80 H82 0.961 . S
C80 H83 0.960 . S
H81 C80 0.961 . S
H82 C80 0.961 . S
H83 C80 0.960 . S
C84 N85 1.342 . S
C84 C88 1.401 . S
C84 C89 1.499 . S
N85 Co68 1.989 . S
N85 C84 1.342 . S
N85 N86 1.388 . S
N86 Co69 1.993 . S
N86 N85 1.388 . S
N86 C87 1.346 . S
C87 N86 1.346 . S
C87 C88 1.396 . S
C87 C97 1.510 . S
C88 C84 1.401 . S
C88 C87 1.396 . S
C89 C84 1.499 . S
C89 H90 0.959 . S
C89 H91 0.960 . S
C89 H92 0.961 . S
H90 C89 0.959 . S
H91 C89 0.960 . S
H92 C89 0.961 . S
O93 Co68 1.967 . S
O93 C101 1.258 . S
O94 Co69 1.941 . S
O94 C101 1.266 . S
H95 C97 0.959 . S
H96 C97 0.961 . S
C97 C87 1.510 . S
C97 H95 0.959 . S
C97 H96 0.961 . S
C97 H98 0.960 . S
H98 C97 0.960 . S
H99 N79 0.862 . S
O100 Co68 1.920 . S
O100 C73 1.289 . S
C101 O93 1.258 . S
C101 O94 1.266 . S
Co102 O105 1.970 . S
Co102 N119 1.989 . S
Co102 O127 1.967 . S
Co102 O134 1.920 . S
Co103 O106 1.966 . S
Co103 N112 2.022 . S
Co103 N120 1.993 . S
Co103 O128 1.941 . S
C104 O105 1.258 . S
C104 O106 1.263 . S
O105 Co102 1.970 . S
O105 C104 1.258 . S
O106 Co103 1.966 . S
O106 C104 1.263 . S
C107 O108 1.235 . S
C107 O134 1.289 . S
O108 C107 1.235 . S
C109 C111 1.400 . S
C109 N112 1.351 . S
C109 C114 1.501 . S
C110 C111 1.387 . S
C110 N113 1.341 . S
C111 C109 1.400 . S
C111 C110 1.387 . S
N112 Co103 2.022 . S
N112 C109 1.351 . S
N112 N113 1.365 . S
N113 C110 1.341 . S
N113 N112 1.365 . S
N113 H133 0.862 . S
C114 C109 1.501 . S
C114 H115 0.961 . S
C114 H116 0.961 . S
C114 H117 0.960 . S
H115 C114 0.961 . S
H116 C114 0.961 . S
H117 C114 0.960 . S
C118 N119 1.342 . S
C118 C122 1.401 . S
C118 C123 1.499 . S
N119 Co102 1.989 . S
N119 C118 1.342 . S
N119 N120 1.388 . S
N120 Co103 1.993 . S
N120 N119 1.388 . S
N120 C121 1.346 . S
C121 N120 1.346 . S
C121 C122 1.396 . S
C121 C131 1.510 . S
C122 C118 1.401 . S
C122 C121 1.396 . S
C123 C118 1.499 . S
C123 H124 0.959 . S
C123 H125 0.960 . S
C123 H126 0.961 . S
H124 C123 0.959 . S
H125 C123 0.960 . S
H126 C123 0.961 . S
O127 Co102 1.967 . S
O127 C135 1.258 . S
O128 Co103 1.941 . S
O128 C135 1.266 . S
H129 C131 0.959 . S
H130 C131 0.961 . S
C131 C121 1.510 . S
C131 H129 0.959 . S
C131 H130 0.961 . S
C131 H132 0.960 . S
H132 C131 0.960 . S
H133 N113 0.862 . S
O134 Co102 1.920 . S
O134 C107 1.289 . S
C135 O127 1.258 . S
C135 O128 1.266 . S
Co136 O139 1.970 . S
Co136 N153 1.989 . S
Co136 O161 1.967 . S
Co136 O168 1.920 . S
Co137 O140 1.966 . S
Co137 N146 2.022 . S
Co137 N154 1.993 . S
Co137 O162 1.941 . S
C138 O139 1.258 . S
C138 O140 1.263 . S
O139 Co136 1.970 . S
O139 C138 1.258 . S
O140 Co137 1.966 . S
O140 C138 1.263 . S
C141 O142 1.235 . S
C141 O168 1.289 . S
O142 C141 1.235 . S
C143 C145 1.400 . S
C143 N146 1.351 . S
C143 C148 1.501 . S
C144 C145 1.387 . S
C144 N147 1.341 . S
C145 C143 1.400 . S
C145 C144 1.387 . S
N146 Co137 2.022 . S
N146 C143 1.351 . S
N146 N147 1.365 . S
N147 C144 1.341 . S
N147 N146 1.365 . S
N147 H167 0.862 . S
C148 C143 1.501 . S
C148 H149 0.961 . S
C148 H150 0.961 . S
C148 H151 0.960 . S
H149 C148 0.961 . S
H150 C148 0.961 . S
H151 C148 0.960 . S
C152 N153 1.342 . S
C152 C156 1.401 . S
C152 C157 1.499 . S
N153 Co136 1.989 . S
N153 C152 1.342 . S
N153 N154 1.388 . S
N154 Co137 1.993 . S
N154 N153 1.388 . S
N154 C155 1.346 . S
C155 N154 1.346 . S
C155 C156 1.396 . S
C155 C165 1.510 . S
C156 C152 1.401 . S
C156 C155 1.396 . S
C157 C152 1.499 . S
C157 H158 0.959 . S
C157 H159 0.960 . S
C157 H160 0.961 . S
H158 C157 0.959 . S
H159 C157 0.960 . S
H160 C157 0.961 . S
O161 Co136 1.967 . S
O161 C169 1.258 . S
O162 Co137 1.941 . S
O162 C169 1.266 . S
H163 C165 0.959 . S
H164 C165 0.961 . S
C165 C155 1.510 . S
C165 H163 0.959 . S
C165 H164 0.961 . S
C165 H166 0.960 . S
H166 C165 0.960 . S
H167 N147 0.862 . S
O168 Co136 1.920 . S
O168 C141 1.289 . S
C169 O161 1.258 . S
C169 O162 1.266 . S
Co170 O173 1.970 . S
Co170 N187 1.989 . S
Co170 O195 1.967 . S
Co170 O202 1.920 . S
Co171 O174 1.966 . S
Co171 N180 2.022 . S
Co171 N188 1.993 . S
Co171 O196 1.941 . S
C172 O173 1.258 . S
C172 O174 1.263 . S
O173 Co170 1.970 . S
O173 C172 1.258 . S
O174 Co171 1.966 . S
O174 C172 1.263 . S
C175 O176 1.235 . S
C175 O202 1.289 . S
O176 C175 1.235 . S
C177 C179 1.400 . S
C177 N180 1.351 . S
C177 C182 1.501 . S
C178 C179 1.387 . S
C178 N181 1.341 . S
C179 C177 1.400 . S
C179 C178 1.387 . S
N180 Co171 2.022 . S
N180 C177 1.351 . S
N180 N181 1.365 . S
N181 C178 1.341 . S
N181 N180 1.365 . S
N181 H201 0.862 . S
C182 C177 1.501 . S
C182 H183 0.961 . S
C182 H184 0.961 . S
C182 H185 0.960 . S
H183 C182 0.961 . S
H184 C182 0.961 . S
H185 C182 0.960 . S
C186 N187 1.342 . S
C186 C190 1.401 . S
C186 C191 1.499 . S
N187 Co170 1.989 . S
N187 C186 1.342 . S
N187 N188 1.388 . S
N188 Co171 1.993 . S
N188 N187 1.388 . S
N188 C189 1.346 . S
C189 N188 1.346 . S
C189 C190 1.396 . S
C189 C199 1.510 . S
C190 C186 1.401 . S
C190 C189 1.396 . S
C191 C186 1.499 . S
C191 H192 0.959 . S
C191 H193 0.960 . S
C191 H194 0.961 . S
H192 C191 0.959 . S
H193 C191 0.960 . S
H194 C191 0.961 . S
O195 Co170 1.967 . S
O195 C203 1.258 . S
O196 Co171 1.941 . S
O196 C203 1.266 . S
H197 C199 0.959 . S
H198 C199 0.961 . S
C199 C189 1.510 . S
C199 H197 0.959 . S
C199 H198 0.961 . S
C199 H200 0.960 . S
H200 C199 0.960 . S
H201 N181 0.862 . S
O202 Co170 1.920 . S
O202 C175 1.289 . S
C203 O195 1.258 . S
C203 O196 1.266 . S
Co204 O207 1.970 . S
Co204 N221 1.989 . S
Co204 O229 1.967 . S
Co204 O236 1.920 . S
Co205 O208 1.966 . S
Co205 N214 2.022 . S
Co205 N222 1.993 . S
Co205 O230 1.941 . S
C206 O207 1.258 . S
C206 O208 1.263 . S
O207 Co204 1.970 . S
O207 C206 1.258 . S
O208 Co205 1.966 . S
O208 C206 1.263 . S
C209 O210 1.235 . S
C209 O236 1.289 . S
O210 C209 1.235 . S
C211 C213 1.400 . S
C211 N214 1.351 . S
C211 C216 1.501 . S
C212 C213 1.387 . S
C212 N215 1.341 . S
C213 C211 1.400 . S
C213 C212 1.387 . S
N214 Co205 2.022 . S
N214 C211 1.351 . S
N214 N215 1.365 . S
N215 C212 1.341 . S
N215 N214 1.365 . S
N215 H235 0.862 . S
C216 C211 1.501 . S
C216 H217 0.961 . S
C216 H218 0.961 . S
C216 H219 0.960 . S
H217 C216 0.961 . S
H218 C216 0.961 . S
H219 C216 0.960 . S
C220 N221 1.342 . S
C220 C224 1.401 . S
C220 C225 1.499 . S
N221 Co204 1.989 . S
N221 C220 1.342 . S
N221 N222 1.388 . S
N222 Co205 1.993 . S
N222 N221 1.388 . S
N222 C223 1.346 . S
C223 N222 1.346 . S
C223 C224 1.396 . S
C223 C233 1.510 . S
C224 C220 1.401 . S
C224 C223 1.396 . S
C225 C220 1.499 . S
C225 H226 0.959 . S
C225 H227 0.960 . S
C225 H228 0.961 . S
H226 C225 0.959 . S
H227 C225 0.960 . S
H228 C225 0.961 . S
O229 Co204 1.967 . S
O229 C237 1.258 . S
O230 Co205 1.941 . S
O230 C237 1.266 . S
H231 C233 0.959 . S
H232 C233 0.961 . S
C233 C223 1.510 . S
C233 H231 0.959 . S
C233 H232 0.961 . S
C233 H234 0.960 . S
H234 C233 0.960 . S
H235 N215 0.862 . S
O236 Co204 1.920 . S
O236 C209 1.289 . S
C237 O229 1.258 . S
C237 O230 1.266 . S
Co238 O241 1.970 1_554 S
Co238 N255 1.989 . S
Co238 O263 1.967 . S
Co238 O270 1.920 . S
Co239 O242 1.966 . S
Co239 N248 2.022 . S
Co239 N256 1.993 1_556 S
Co239 O264 1.941 1_556 S
C240 O241 1.258 . S
C240 O242 1.263 . S
O241 Co238 1.970 1_556 S
O241 C240 1.258 . S
O242 Co239 1.966 . S
O242 C240 1.263 . S
C243 O244 1.235 . S
C243 O270 1.289 . S
O244 C243 1.235 . S
C245 C247 1.400 . S
C245 N248 1.351 . S
C245 C250 1.501 . S
C246 C247 1.387 . S
C246 N249 1.341 . S
C247 C245 1.400 . S
C247 C246 1.387 . S
N248 Co239 2.022 . S
N248 C245 1.351 . S
N248 N249 1.365 . S
N249 C246 1.341 . S
N249 N248 1.365 . S
N249 H269 0.862 . S
C250 C245 1.501 . S
C250 H251 0.961 . S
C250 H252 0.961 . S
C250 H253 0.960 . S
H251 C250 0.961 . S
H252 C250 0.961 . S
H253 C250 0.960 . S
C254 N255 1.342 . S
C254 C258 1.401 . S
C254 C259 1.499 . S
N255 Co238 1.989 . S
N255 C254 1.342 . S
N255 N256 1.388 . S
N256 Co239 1.993 1_554 S
N256 N255 1.388 . S
N256 C257 1.346 . S
C257 N256 1.346 . S
C257 C258 1.396 . S
C257 C267 1.510 1_554 S
C258 C254 1.401 . S
C258 C257 1.396 . S
C259 C254 1.499 . S
C259 H260 0.959 . S
C259 H261 0.960 . S
C259 H262 0.961 . S
H260 C259 0.959 . S
H261 C259 0.960 . S
H262 C259 0.961 . S
O263 Co238 1.967 . S
O263 C271 1.258 . S
O264 Co239 1.941 1_554 S
O264 C271 1.266 . S
H265 C267 0.959 . S
H266 C267 0.961 . S
C267 C257 1.510 1_556 S
C267 H265 0.959 . S
C267 H266 0.961 . S
C267 H268 0.960 . S
H268 C267 0.960 . S
H269 N249 0.862 . S
O270 Co238 1.920 . S
O270 C243 1.289 . S
C271 O263 1.258 . S
C271 O264 1.266 . S
Co272 O275 1.970 . S
Co272 N289 1.989 . S
Co272 O297 1.967 . S
Co272 O304 1.920 . S
Co273 O276 1.966 . S
Co273 N282 2.022 . S
Co273 N290 1.993 . S
Co273 O298 1.941 . S
C274 O275 1.258 . S
C274 O276 1.263 . S
O275 Co272 1.970 . S
O275 C274 1.258 . S
O276 Co273 1.966 . S
O276 C274 1.263 . S
C277 O278 1.235 . S
C277 O304 1.289 . S
O278 C277 1.235 . S
C279 C281 1.400 . S
C279 N282 1.351 . S
C279 C284 1.501 . S
C280 C281 1.387 . S
C280 N283 1.341 . S
C281 C279 1.400 . S
C281 C280 1.387 . S
N282 Co273 2.022 . S
N282 C279 1.351 . S
N282 N283 1.365 . S
N283 C280 1.341 . S
N283 N282 1.365 . S
N283 H303 0.862 . S
C284 C279 1.501 . S
C284 H285 0.961 . S
C284 H286 0.961 . S
C284 H287 0.960 . S
H285 C284 0.961 . S
H286 C284 0.961 . S
H287 C284 0.960 . S
C288 N289 1.342 . S
C288 C292 1.401 . S
C288 C293 1.499 . S
N289 Co272 1.989 . S
N289 C288 1.342 . S
N289 N290 1.388 . S
N290 Co273 1.993 . S
N290 N289 1.388 . S
N290 C291 1.346 . S
C291 N290 1.346 . S
C291 C292 1.396 . S
C291 C301 1.510 . S
C292 C288 1.401 . S
C292 C291 1.396 . S
C293 C288 1.499 . S
C293 H294 0.959 . S
C293 H295 0.960 . S
C293 H296 0.961 . S
H294 C293 0.959 . S
H295 C293 0.960 . S
H296 C293 0.961 . S
O297 Co272 1.967 . S
O297 C305 1.258 . S
O298 Co273 1.941 . S
O298 C305 1.266 . S
H299 C301 0.959 . S
H300 C301 0.961 . S
C301 C291 1.510 . S
C301 H299 0.959 . S
C301 H300 0.961 . S
C301 H302 0.960 . S
H302 C301 0.960 . S
H303 N283 0.862 . S
O304 Co272 1.920 . S
O304 C277 1.289 . S
C305 O297 1.258 . S
C305 O298 1.266 . S
Co306 O309 1.970 . S
Co306 N323 1.989 . S
Co306 O331 1.967 . S
Co306 O338 1.920 . S
Co307 O310 1.966 . S
Co307 N316 2.022 . S
Co307 N324 1.993 . S
Co307 O332 1.941 . S
C308 O309 1.258 . S
C308 O310 1.263 . S
O309 Co306 1.970 . S
O309 C308 1.258 . S
O310 Co307 1.966 . S
O310 C308 1.263 . S
C311 O312 1.235 . S
C311 O338 1.289 . S
O312 C311 1.235 . S
C313 C315 1.400 . S
C313 N316 1.351 . S
C313 C318 1.501 . S
C314 C315 1.387 . S
C314 N317 1.341 . S
C315 C313 1.400 . S
C315 C314 1.387 . S
N316 Co307 2.022 . S
N316 C313 1.351 . S
N316 N317 1.365 . S
N317 C314 1.341 . S
N317 N316 1.365 . S
N317 H337 0.862 . S
C318 C313 1.501 . S
C318 H319 0.961 . S
C318 H320 0.961 . S
C318 H321 0.960 . S
H319 C318 0.961 . S
H320 C318 0.961 . S
H321 C318 0.960 . S
C322 N323 1.342 . S
C322 C326 1.401 . S
C322 C327 1.499 . S
N323 Co306 1.989 . S
N323 C322 1.342 . S
N323 N324 1.388 . S
N324 Co307 1.993 . S
N324 N323 1.388 . S
N324 C325 1.346 . S
C325 N324 1.346 . S
C325 C326 1.396 . S
C325 C335 1.510 . S
C326 C322 1.401 . S
C326 C325 1.396 . S
C327 C322 1.499 . S
C327 H328 0.959 . S
C327 H329 0.960 . S
C327 H330 0.961 . S
H328 C327 0.959 . S
H329 C327 0.960 . S
H330 C327 0.961 . S
O331 Co306 1.967 . S
O331 C339 1.258 . S
O332 Co307 1.941 . S
O332 C339 1.266 . S
H333 C335 0.959 . S
H334 C335 0.961 . S
C335 C325 1.510 . S
C335 H333 0.959 . S
C335 H334 0.961 . S
C335 H336 0.960 . S
H336 C335 0.960 . S
H337 N317 0.862 . S
O338 Co306 1.920 . S
O338 C311 1.289 . S
C339 O331 1.258 . S
C339 O332 1.266 . S
Co340 O343 1.970 . S
Co340 N357 1.989 . S
Co340 O365 1.967 . S
Co340 O372 1.920 . S
Co341 O344 1.966 . S
Co341 N350 2.022 . S
Co341 N358 1.993 . S
Co341 O366 1.941 . S
C342 O343 1.258 . S
C342 O344 1.263 . S
O343 Co340 1.970 . S
O343 C342 1.258 . S
O344 Co341 1.966 . S
O344 C342 1.263 . S
C345 O346 1.235 . S
C345 O372 1.289 . S
O346 C345 1.235 . S
C347 C349 1.400 . S
C347 N350 1.351 . S
C347 C352 1.501 . S
C348 C349 1.387 . S
C348 N351 1.341 . S
C349 C347 1.400 . S
C349 C348 1.387 . S
N350 Co341 2.022 . S
N350 C347 1.351 . S
N350 N351 1.365 . S
N351 C348 1.341 . S
N351 N350 1.365 . S
N351 H371 0.862 . S
C352 C347 1.501 . S
C352 H353 0.961 . S
C352 H354 0.961 . S
C352 H355 0.960 . S
H353 C352 0.961 . S
H354 C352 0.961 . S
H355 C352 0.960 . S
C356 N357 1.342 . S
C356 C360 1.401 . S
C356 C361 1.499 . S
N357 Co340 1.989 . S
N357 C356 1.342 . S
N357 N358 1.388 . S
N358 Co341 1.993 . S
N358 N357 1.388 . S
N358 C359 1.346 . S
C359 N358 1.346 . S
C359 C360 1.396 . S
C359 C369 1.510 . S
C360 C356 1.401 . S
C360 C359 1.396 . S
C361 C356 1.499 . S
C361 H362 0.959 . S
C361 H363 0.960 . S
C361 H364 0.961 . S
H362 C361 0.959 . S
H363 C361 0.960 . S
H364 C361 0.961 . S
O365 Co340 1.967 . S
O365 C373 1.258 . S
O366 Co341 1.941 . S
O366 C373 1.266 . S
H367 C369 0.959 . S
H368 C369 0.961 . S
C369 C359 1.510 . S
C369 H367 0.959 . S
C369 H368 0.961 . S
C369 H370 0.960 . S
H370 C369 0.960 . S
H371 N351 0.862 . S
O372 Co340 1.920 . S
O372 C345 1.289 . S
C373 O365 1.258 . S
C373 O366 1.266 . S
Co374 O377 1.970 . S
Co374 N391 1.989 . S
Co374 O399 1.967 . S
Co374 O406 1.920 . S
Co375 O378 1.966 . S
Co375 N384 2.022 . S
Co375 N392 1.993 . S
Co375 O400 1.941 . S
C376 O377 1.258 . S
C376 O378 1.263 . S
O377 Co374 1.970 . S
O377 C376 1.258 . S
O378 Co375 1.966 . S
O378 C376 1.263 . S
C379 O380 1.235 . S
C379 O406 1.289 . S
O380 C379 1.235 . S
C381 C383 1.400 . S
C381 N384 1.351 . S
C381 C386 1.501 . S
C382 C383 1.387 . S
C382 N385 1.341 . S
C383 C381 1.400 . S
C383 C382 1.387 . S
N384 Co375 2.022 . S
N384 C381 1.351 . S
N384 N385 1.365 . S
N385 C382 1.341 . S
N385 N384 1.365 . S
N385 H405 0.862 . S
C386 C381 1.501 . S
C386 H387 0.961 . S
C386 H388 0.961 . S
C386 H389 0.960 . S
H387 C386 0.961 . S
H388 C386 0.961 . S
H389 C386 0.960 . S
C390 N391 1.342 . S
C390 C394 1.401 . S
C390 C395 1.499 . S
N391 Co374 1.989 . S
N391 C390 1.342 . S
N391 N392 1.388 . S
N392 Co375 1.993 . S
N392 N391 1.388 . S
N392 C393 1.346 . S
C393 N392 1.346 . S
C393 C394 1.396 . S
C393 C403 1.510 . S
C394 C390 1.401 . S
C394 C393 1.396 . S
C395 C390 1.499 . S
C395 H396 0.959 . S
C395 H397 0.960 . S
C395 H398 0.961 . S
H396 C395 0.959 . S
H397 C395 0.960 . S
H398 C395 0.961 . S
O399 Co374 1.967 . S
O399 C407 1.258 . S
O400 Co375 1.941 . S
O400 C407 1.266 . S
H401 C403 0.959 . S
H402 C403 0.961 . S
C403 C393 1.510 . S
C403 H401 0.959 . S
C403 H402 0.961 . S
C403 H404 0.960 . S
H404 C403 0.960 . S
H405 N385 0.862 . S
O406 Co374 1.920 . S
O406 C379 1.289 . S
C407 O399 1.258 . S
C407 O400 1.266 . S
C408 C409 1.349 . S
C408 C410 1.327 . S
C408 H433 0.950 . S
C409 C408 1.349 . S
C409 C425 1.349 . S
C410 C408 1.327 . S
C410 C429 1.429 . S
C410 H434 0.950 . S
C411 C428 1.574 . S
C411 C430 1.368 . S
C411 H435 0.949 . S
H412 C416 0.949 . S
C413 C414 1.349 . S
C413 C415 1.327 . S
C413 H436 0.950 . S
C414 C413 1.349 . S
C414 C426 1.349 . S
C415 C413 1.327 . S
C415 C431 1.429 . S
C415 H437 0.950 . S
C416 H412 0.949 . S
C416 C424 1.574 . S
C416 C432 1.368 . S
H417 C425 0.950 . S
H418 C423 0.950 . S
H419 C424 0.949 . S
H420 C426 0.950 . S
H421 C427 0.950 . S
H422 C428 0.949 . S
C423 H418 0.950 . S
C423 C425 1.327 . S
C423 C429 1.429 . S
C424 C416 1.574 . S
C424 H419 0.949 . S
C424 C430 1.368 . S
C425 C409 1.349 . S
C425 H417 0.950 . S
C425 C423 1.327 . S
C426 C414 1.349 . S
C426 H420 0.950 . S
C426 C427 1.327 . S
C427 H421 0.950 . S
C427 C426 1.327 . S
C427 C431 1.429 . S
C428 C411 1.574 . S
C428 H422 0.949 . S
C428 C432 1.368 . S
C429 C410 1.429 . S
C429 C423 1.429 . S
C429 C430 1.523 . S
C430 C411 1.368 . S
C430 C424 1.368 . S
C430 C429 1.523 . S
C431 C415 1.429 . S
C431 C427 1.429 . S
C431 C432 1.523 . S
C432 C416 1.368 . S
C432 C428 1.368 . S
C432 C431 1.523 . S
H433 C408 0.950 . S
H434 C410 0.950 . S
H435 C411 0.949 . S
H436 C413 0.950 . S
H437 C415 0.950 . S
C438 C439 1.349 . S
C438 C440 1.327 . S
C438 H463 0.950 . S
C439 C438 1.349 . S
C439 C455 1.349 . S
C440 C438 1.327 . S
C440 C459 1.429 . S
C440 H464 0.950 . S
C441 C458 1.574 . S
C441 C460 1.368 . S
C441 H465 0.949 . S
H442 C446 0.949 . S
C443 C444 1.349 . S
C443 C445 1.327 . S
C443 H466 0.950 . S
C444 C443 1.349 . S
C444 C456 1.349 . S
C445 C443 1.327 . S
C445 C461 1.429 . S
C445 H467 0.950 . S
C446 H442 0.949 . S
C446 C454 1.574 . S
C446 C462 1.368 . S
H447 C455 0.950 . S
H448 C453 0.950 . S
H449 C454 0.949 . S
H450 C456 0.950 . S
H451 C457 0.950 . S
H452 C458 0.949 . S
C453 H448 0.950 . S
C453 C455 1.327 . S
C453 C459 1.429 . S
C454 C446 1.574 . S
C454 H449 0.949 . S
C454 C460 1.368 . S
C455 C439 1.349 . S
C455 H447 0.950 . S
C455 C453 1.327 . S
C456 C444 1.349 . S
C456 H450 0.950 . S
C456 C457 1.327 . S
C457 H451 0.950 . S
C457 C456 1.327 . S
C457 C461 1.429 . S
C458 C441 1.574 . S
C458 H452 0.949 . S
C458 C462 1.368 . S
C459 C440 1.429 . S
C459 C453 1.429 . S
C459 C460 1.523 . S
C460 C441 1.368 . S
C460 C454 1.368 . S
C460 C459 1.523 . S
C461 C445 1.429 . S
C461 C457 1.429 . S
C461 C462 1.523 . S
C462 C446 1.368 . S
C462 C458 1.368 . S
C462 C461 1.523 . S
H463 C438 0.950 . S
H464 C440 0.950 . S
H465 C441 0.949 . S
H466 C443 0.950 . S
H467 C445 0.950 . S
C468 C469 1.349 . S
C468 C470 1.327 . S
C468 H493 0.950 . S
C469 C468 1.349 . S
C469 C485 1.349 . S
C470 C468 1.327 . S
C470 C489 1.429 . S
C470 H494 0.950 . S
C471 C488 1.574 . S
C471 C490 1.368 . S
C471 H495 0.949 . S
H472 C476 0.949 . S
C473 C474 1.349 . S
C473 C475 1.327 . S
C473 H496 0.950 . S
C474 C473 1.349 . S
C474 C486 1.349 . S
C475 C473 1.327 . S
C475 C491 1.429 . S
C475 H497 0.950 . S
C476 H472 0.949 . S
C476 C484 1.574 . S
C476 C492 1.368 . S
H477 C485 0.950 . S
H478 C483 0.950 . S
H479 C484 0.949 . S
H480 C486 0.950 . S
H481 C487 0.950 . S
H482 C488 0.949 . S
C483 H478 0.950 . S
C483 C485 1.327 . S
C483 C489 1.429 . S
C484 C476 1.574 . S
C484 H479 0.949 . S
C484 C490 1.368 . S
C485 C469 1.349 . S
C485 H477 0.950 . S
C485 C483 1.327 . S
C486 C474 1.349 . S
C486 H480 0.950 . S
C486 C487 1.327 . S
C487 H481 0.950 . S
C487 C486 1.327 . S
C487 C491 1.429 . S
C488 C471 1.574 . S
C488 H482 0.949 . S
C488 C492 1.368 . S
C489 C470 1.429 . S
C489 C483 1.429 . S
C489 C490 1.523 . S
C490 C471 1.368 . S
C490 C484 1.368 . S
C490 C489 1.523 . S
C491 C475 1.429 . S
C491 C487 1.429 . S
C491 C492 1.523 . S
C492 C476 1.368 . S
C492 C488 1.368 . S
C492 C491 1.523 . S
H493 C468 0.950 . S
H494 C470 0.950 . S
H495 C471 0.949 . S
H496 C473 0.950 . S
H497 C475 0.950 . S
C498 C499 1.349 . S
C498 C500 1.327 . S
C498 H523 0.950 . S
C499 C498 1.349 . S
C499 C515 1.349 . S
C500 C498 1.327 . S
C500 C519 1.429 . S
C500 H524 0.950 . S
C501 C518 1.574 . S
C501 C520 1.368 . S
C501 H525 0.949 . S
H502 C506 0.949 . S
C503 C504 1.349 . S
C503 C505 1.327 . S
C503 H526 0.950 . S
C504 C503 1.349 . S
C504 C516 1.349 . S
C505 C503 1.327 . S
C505 C521 1.429 . S
C505 H527 0.950 . S
C506 H502 0.949 . S
C506 C514 1.574 . S
C506 C522 1.368 . S
H507 C515 0.950 . S
H508 C513 0.950 . S
H509 C514 0.949 . S
H510 C516 0.950 . S
H511 C517 0.950 . S
H512 C518 0.949 . S
C513 H508 0.950 . S
C513 C515 1.327 . S
C513 C519 1.429 . S
C514 C506 1.574 . S
C514 H509 0.949 . S
C514 C520 1.368 . S
C515 C499 1.349 . S
C515 H507 0.950 . S
C515 C513 1.327 . S
C516 C504 1.349 . S
C516 H510 0.950 . S
C516 C517 1.327 . S
C517 H511 0.950 . S
C517 C516 1.327 . S
C517 C521 1.429 . S
C518 C501 1.574 . S
C518 H512 0.949 . S
C518 C522 1.368 . S
C519 C500 1.429 . S
C519 C513 1.429 . S
C519 C520 1.523 . S
C520 C501 1.368 . S
C520 C514 1.368 . S
C520 C519 1.523 . S
C521 C505 1.429 . S
C521 C517 1.429 . S
C521 C522 1.523 . S
C522 C506 1.368 . S
C522 C518 1.368 . S
C522 C521 1.523 . S
H523 C498 0.950 . S
H524 C500 0.950 . S
H525 C501 0.949 . S
H526 C503 0.950 . S
H527 C505 0.950 . S
C528 C529 1.349 . S
C528 C530 1.327 . S
C528 H553 0.950 . S
C529 C528 1.349 . S
C529 C545 1.349 . S
C530 C528 1.327 . S
C530 C549 1.429 . S
C530 H554 0.950 . S
C531 C548 1.574 . S
C531 C550 1.368 . S
C531 H555 0.949 . S
H532 C536 0.949 . S
C533 C534 1.349 . S
C533 C535 1.327 . S
C533 H556 0.950 . S
C534 C533 1.349 . S
C534 C546 1.349 . S
C535 C533 1.327 . S
C535 C551 1.429 1_554 S
C535 H557 0.950 1_554 S
C536 H532 0.949 . S
C536 C544 1.574 . S
C536 C552 1.368 . S
H537 C545 0.950 . S
H538 C543 0.950 . S
H539 C544 0.949 . S
H540 C546 0.950 . S
H541 C547 0.950 1_556 S
H542 C548 0.949 . S
C543 H538 0.950 . S
C543 C545 1.327 . S
C543 C549 1.429 . S
C544 C536 1.574 . S
C544 H539 0.949 . S
C544 C550 1.368 . S
C545 C529 1.349 . S
C545 H537 0.950 . S
C545 C543 1.327 . S
C546 C534 1.349 . S
C546 H540 0.950 . S
C546 C547 1.327 . S
C547 H541 0.950 1_554 S
C547 C546 1.327 . S
C547 C551 1.429 1_554 S
C548 C531 1.574 . S
C548 H542 0.949 . S
C548 C552 1.368 . S
C549 C530 1.429 . S
C549 C543 1.429 . S
C549 C550 1.523 . S
C550 C531 1.368 . S
C550 C544 1.368 . S
C550 C549 1.523 . S
C551 C535 1.429 1_556 S
C551 C547 1.429 1_556 S
C551 C552 1.523 . S
C552 C536 1.368 . S
C552 C548 1.368 . S
C552 C551 1.523 . S
H553 C528 0.950 . S
H554 C530 0.950 . S
H555 C531 0.949 . S
H556 C533 0.950 . S
H557 C535 0.950 1_556 S
C558 C559 1.349 . S
C558 C560 1.327 1_556 S
C558 H583 0.950 . S
C559 C558 1.349 . S
C559 C575 1.349 . S
C560 C558 1.327 1_554 S
C560 C579 1.429 . S
C560 H584 0.950 . S
C561 C578 1.574 . S
C561 C580 1.368 . S
C561 H585 0.949 . S
H562 C566 0.949 . S
C563 C564 1.349 . S
C563 C565 1.327 . S
C563 H586 0.950 . S
C564 C563 1.349 . S
C564 C576 1.349 . S
C565 C563 1.327 . S
C565 C581 1.429 . S
C565 H587 0.950 . S
C566 H562 0.949 . S
C566 C574 1.574 . S
C566 C582 1.368 . S
H567 C575 0.950 . S
H568 C573 0.950 . S
H569 C574 0.949 . S
H570 C576 0.950 . S
H571 C577 0.950 . S
H572 C578 0.949 . S
C573 H568 0.950 . S
C573 C575 1.327 . S
C573 C579 1.429 1_556 S
C574 C566 1.574 . S
C574 H569 0.949 . S
C574 C580 1.368 . S
C575 C559 1.349 . S
C575 H567 0.950 . S
C575 C573 1.327 . S
C576 C564 1.349 . S
C576 H570 0.950 . S
C576 C577 1.327 . S
C577 H571 0.950 . S
C577 C576 1.327 . S
C577 C581 1.429 . S
C578 C561 1.574 . S
C578 H572 0.949 . S
C578 C582 1.368 . S
C579 C560 1.429 . S
C579 C573 1.429 1_554 S
C579 C580 1.523 . S
C580 C561 1.368 . S
C580 C574 1.368 . S
C580 C579 1.523 . S
C581 C565 1.429 . S
C581 C577 1.429 . S
C581 C582 1.523 . S
C582 C566 1.368 . S
C582 C578 1.368 . S
C582 C581 1.523 . S
H583 C558 0.950 . S
H584 C560 0.950 . S
H585 C561 0.949 . S
H586 C563 0.950 . S
H587 C565 0.950 . S
C588 C589 1.349 . S
C588 C590 1.327 . S
C588 H613 0.950 . S
C589 C588 1.349 . S
C589 C605 1.349 . S
C590 C588 1.327 . S
C590 C609 1.429 . S
C590 H614 0.950 . S
C591 C608 1.574 . S
C591 C610 1.368 . S
C591 H615 0.949 . S
H592 C596 0.949 . S
C593 C594 1.349 . S
C593 C595 1.327 . S
C593 H616 0.950 . S
C594 C593 1.349 . S
C594 C606 1.349 . S
C595 C593 1.327 . S
C595 C611 1.429 . S
C595 H617 0.950 . S
C596 H592 0.949 . S
C596 C604 1.574 . S
C596 C612 1.368 . S
H597 C605 0.950 . S
H598 C603 0.950 . S
H599 C604 0.949 . S
H600 C606 0.950 . S
H601 C607 0.950 . S
H602 C608 0.949 . S
C603 H598 0.950 . S
C603 C605 1.327 . S
C603 C609 1.429 . S
C604 C596 1.574 . S
C604 H599 0.949 . S
C604 C610 1.368 . S
C605 C589 1.349 . S
C605 H597 0.950 . S
C605 C603 1.327 . S
C606 C594 1.349 . S
C606 H600 0.950 . S
C606 C607 1.327 . S
C607 H601 0.950 . S
C607 C606 1.327 . S
C607 C611 1.429 . S
C608 C591 1.574 . S
C608 H602 0.949 . S
C608 C612 1.368 . S
C609 C590 1.429 . S
C609 C603 1.429 . S
C609 C610 1.523 . S
C610 C591 1.368 . S
C610 C604 1.368 . S
C610 C609 1.523 . S
C611 C595 1.429 . S
C611 C607 1.429 . S
C611 C612 1.523 . S
C612 C596 1.368 . S
C612 C608 1.368 . S
C612 C611 1.523 . S
H613 C588 0.950 . S
H614 C590 0.950 . S
H615 C591 0.949 . S
H616 C593 0.950 . S
H617 C595 0.950 . S
C618 C619 1.349 . S
C618 C620 1.327 . S
C618 H643 0.950 1_556 S
C619 C618 1.349 . S
C619 C635 1.349 . S
C620 C618 1.327 . S
C620 C639 1.429 . S
C620 H644 0.950 1_556 S
C621 C638 1.574 . S
C621 C640 1.368 . S
C621 H645 0.949 . S
H622 C626 0.949 . S
C623 C624 1.349 1_556 S
C623 C625 1.327 1_655 S
C623 H646 0.950 . S
C624 C623 1.349 1_554 S
C624 C636 1.349 . S
C625 C623 1.327 1_455 S
C625 C641 1.429 1_556 S
C625 H647 0.950 . S
C626 H622 0.949 . S
C626 C634 1.574 . S
C626 C642 1.368 1_554 S
H627 C635 0.950 . S
H628 C633 0.950 . S
H629 C634 0.949 . S
H630 C636 0.950 . S
H631 C637 0.950 . S
H632 C638 0.949 . S
C633 H628 0.950 . S
C633 C635 1.327 . S
C633 C639 1.429 . S
C634 C626 1.574 . S
C634 H629 0.949 . S
C634 C640 1.368 1_554 S
C635 C619 1.349 . S
C635 H627 0.950 . S
C635 C633 1.327 . S
C636 C624 1.349 . S
C636 H630 0.950 . S
C636 C637 1.327 1_655 S
C637 H631 0.950 . S
C637 C636 1.327 1_455 S
C637 C641 1.429 . S
C638 C621 1.574 . S
C638 H632 0.949 . S
C638 C642 1.368 . S
C639 C620 1.429 . S
C639 C633 1.429 . S
C639 C640 1.523 . S
C640 C621 1.368 . S
C640 C634 1.368 1_556 S
C640 C639 1.523 . S
C641 C625 1.429 1_554 S
C641 C637 1.429 . S
C641 C642 1.523 1_554 S
C642 C626 1.368 1_556 S
C642 C638 1.368 . S
C642 C641 1.523 1_556 S
H643 C618 0.950 1_554 S
H644 C620 0.950 1_554 S
H645 C621 0.949 . S
H646 C623 0.950 . S
H647 C625 0.950 . S
C648 C649 1.349 . S
C648 C650 1.327 . S
C648 H673 0.950 . S
C649 C648 1.349 . S
C649 C665 1.349 . S
C650 C648 1.327 . S
C650 C669 1.429 . S
C650 H674 0.950 . S
C651 C668 1.574 . S
C651 C670 1.368 . S
C651 H675 0.949 . S
H652 C656 0.949 . S
C653 C654 1.349 . S
C653 C655 1.319 1_565 S
C653 H676 0.950 . S
C654 C653 1.349 . S
C654 C666 1.349 . S
C655 C653 1.319 1_545 S
C655 C671 1.439 . S
C655 H677 0.948 . S
C656 H652 0.949 . S
C656 C664 1.574 . S
C656 C672 1.368 . S
H657 C665 0.950 . S
H658 C663 0.950 . S
H659 C664 0.949 . S
H660 C666 0.950 . S
H661 C667 0.950 . S
H662 C668 0.949 . S
C663 H658 0.950 . S
C663 C665 1.327 . S
C663 C669 1.429 . S
C664 C656 1.574 . S
C664 H659 0.949 . S
C664 C670 1.368 . S
C665 C649 1.349 . S
C665 H657 0.950 . S
C665 C663 1.327 . S
C666 C654 1.349 . S
C666 H660 0.950 . S
C666 C667 1.327 1_565 S
C667 H661 0.950 . S
C667 C666 1.327 1_545 S
C667 C671 1.429 . S
C668 C651 1.574 . S
C668 H662 0.949 . S
C668 C672 1.368 . S
C669 C650 1.429 . S
C669 C663 1.429 . S
C669 C670 1.523 . S
C670 C651 1.368 . S
C670 C664 1.368 . S
C670 C669 1.523 . S
C671 C655 1.439 . S
C671 C667 1.429 . S
C671 C672 1.523 . S
C672 C656 1.368 . S
C672 C668 1.368 . S
C672 C671 1.523 . S
H673 C648 0.950 . S
H674 C650 0.950 . S
H675 C651 0.949 . S
H676 C653 0.950 . S
H677 C655 0.948 . S
C678 C679 1.349 . S
C678 C680 1.327 . S
C678 H703 0.950 . S
C679 C678 1.349 . S
C679 C695 1.349 . S
C680 C678 1.327 . S
C680 C699 1.429 . S
C680 H704 0.950 . S
C681 C698 1.574 . S
C681 C700 1.368 . S
C681 H705 0.949 . S
H682 C686 0.949 . S
C683 C684 1.349 . S
C683 C685 1.327 . S
C683 H706 0.950 . S
C684 C683 1.349 . S
C684 C696 1.349 . S
C685 C683 1.327 . S
C685 C701 1.429 . S
C685 H707 0.950 . S
C686 H682 0.949 . S
C686 C694 1.574 . S
C686 C702 1.368 . S
H687 C695 0.950 . S
H688 C693 0.950 . S
H689 C694 0.949 . S
H690 C696 0.950 . S
H691 C697 0.950 . S
H692 C698 0.949 . S
C693 H688 0.950 . S
C693 C695 1.327 . S
C693 C699 1.429 . S
C694 C686 1.574 . S
C694 H689 0.949 . S
C694 C700 1.368 . S
C695 C679 1.349 . S
C695 H687 0.950 . S
C695 C693 1.327 . S
C696 C684 1.349 . S
C696 H690 0.950 . S
C696 C697 1.327 . S
C697 H691 0.950 . S
C697 C696 1.327 . S
C697 C701 1.429 . S
C698 C681 1.574 . S
C698 H692 0.949 . S
C698 C702 1.368 . S
C699 C680 1.429 . S
C699 C693 1.429 . S
C699 C700 1.523 . S
C700 C681 1.368 . S
C700 C694 1.368 . S
C700 C699 1.523 . S
C701 C685 1.429 . S
C701 C697 1.429 . S
C701 C702 1.523 . S
C702 C686 1.368 . S
C702 C698 1.368 . S
C702 C701 1.523 . S
H703 C678 0.950 . S
H704 C680 0.950 . S
H705 C681 0.949 . S
H706 C683 0.950 . S
H707 C685 0.950 . S
C708 C709 1.349 . S
C708 C710 1.299 1_455 S
C708 H733 0.950 . S
C709 C708 1.349 . S
C709 C725 1.349 . S
C710 C708 1.299 1_655 S
C710 C729 1.451 . S
C710 H734 0.955 . S
C711 C728 1.574 . S
C711 C730 1.368 . S
C711 H735 0.949 . S
H712 C716 0.949 . S
C713 C714 1.349 . S
C713 C715 1.327 . S
C713 H736 0.950 . S
C714 C713 1.349 . S
C714 C726 1.349 . S
C715 C713 1.327 . S
C715 C731 1.429 . S
C715 H737 0.950 . S
C716 H712 0.949 . S
C716 C724 1.574 . S
C716 C732 1.368 . S
H717 C725 0.950 . S
H718 C723 0.950 . S
H719 C724 0.949 . S
H720 C726 0.950 . S
H721 C727 0.950 . S
H722 C728 0.949 . S
C723 H718 0.950 . S
C723 C725 1.327 1_655 S
C723 C729 1.429 . S
C724 C716 1.574 . S
C724 H719 0.949 . S
C724 C730 1.368 . S
C725 C709 1.349 . S
C725 H717 0.950 . S
C725 C723 1.327 1_455 S
C726 C714 1.349 . S
C726 H720 0.950 . S
C726 C727 1.327 . S
C727 H721 0.950 . S
C727 C726 1.327 . S
C727 C731 1.429 . S
C728 C711 1.574 . S
C728 H722 0.949 . S
C728 C732 1.368 . S
C729 C710 1.451 . S
C729 C723 1.429 . S
C729 C730 1.523 . S
C730 C711 1.368 . S
C730 C724 1.368 . S
C730 C729 1.523 . S
C731 C715 1.429 . S
C731 C727 1.429 . S
C731 C732 1.523 . S
C732 C716 1.368 . S
C732 C728 1.368 . S
C732 C731 1.523 . S
H733 C708 0.950 . S
H734 C710 0.955 . S
H735 C711 0.949 . S
H736 C713 0.950 . S
H737 C715 0.950 . S
C738 C739 1.349 . S
C738 C740 1.327 . S
C738 H763 0.950 . S
C739 C738 1.349 . S
C739 C755 1.349 . S
C740 C738 1.327 . S
C740 C759 1.429 1_545 S
C740 H764 0.950 . S
C741 C758 1.574 . S
C741 C760 1.368 . S
C741 H765 0.949 . S
H742 C746 0.949 . S
C743 C744 1.349 . S
C743 C745 1.327 . S
C743 H766 0.950 . S
C744 C743 1.349 . S
C744 C756 1.349 . S
C745 C743 1.327 . S
C745 C761 1.429 . S
C745 H767 0.950 . S
C746 H742 0.949 . S
C746 C754 1.574 . S
C746 C762 1.368 . S
H747 C755 0.950 . S
H748 C753 0.950 . S
H749 C754 0.949 . S
H750 C756 0.950 . S
H751 C757 0.950 . S
H752 C758 0.949 . S
C753 H748 0.950 . S
C753 C755 1.327 1_565 S
C753 C759 1.429 . S
C754 C746 1.574 . S
C754 H749 0.949 . S
C754 C760 1.368 . S
C755 C739 1.349 . S
C755 H747 0.950 . S
C755 C753 1.327 1_545 S
C756 C744 1.349 . S
C756 H750 0.950 . S
C756 C757 1.327 . S
C757 H751 0.950 . S
C757 C756 1.327 . S
C757 C761 1.429 . S
C758 C741 1.574 . S
C758 H752 0.949 . S
C758 C762 1.368 . S
C759 C740 1.429 1_565 S
C759 C753 1.429 . S
C759 C760 1.523 . S
C760 C741 1.368 . S
C760 C754 1.368 . S
C760 C759 1.523 . S
C761 C745 1.429 . S
C761 C757 1.429 . S
C761 C762 1.523 . S
C762 C746 1.368 . S
C762 C758 1.368 . S
C762 C761 1.523 . S
H763 C738 0.950 . S
H764 C740 0.950 . S
H765 C741 0.949 . S
H766 C743 0.950 . S
H767 C745 0.950 . S
C768 C769 1.349 . S
C768 C770 1.327 . S
C768 H793 0.950 . S
C769 C768 1.349 . S
C769 C785 1.349 . S
C770 C768 1.327 . S
C770 C789 1.429 . S
C770 H794 0.950 . S
C771 C788 1.579 . S
C771 C790 1.353 1_556 S
C771 H795 0.959 . S
H772 C776 0.949 . S
C773 C774 1.349 . S
C773 C775 1.327 . S
C773 H796 0.950 . S
C774 C773 1.349 . S
C774 C786 1.349 1_556 S
C775 C773 1.327 . S
C775 C791 1.429 . S
C775 H797 0.950 . S
C776 H772 0.949 . S
C776 C784 1.574 . S
C776 C792 1.368 . S
H777 C785 0.950 . S
H778 C783 0.957 . S
H779 C784 0.949 . S
H780 C786 0.950 . S
H781 C787 0.950 . S
H782 C788 0.949 . S
C783 H778 0.957 . S
C783 C785 1.327 . S
C783 C789 1.429 . S
C784 C776 1.574 . S
C784 H779 0.949 . S
C784 C790 1.368 . S
C785 C769 1.349 . S
C785 H777 0.950 . S
C785 C783 1.327 . S
C786 C774 1.349 1_554 S
C786 H780 0.950 . S
C786 C787 1.327 . S
C787 H781 0.950 . S
C787 C786 1.327 . S
C787 C791 1.429 1_554 S
C788 C771 1.579 . S
C788 H782 0.949 . S
C788 C792 1.368 1_556 S
C789 C770 1.429 . S
C789 C783 1.429 . S
C789 C790 1.523 . S
C790 C771 1.353 1_554 S
C790 C784 1.368 . S
C790 C789 1.523 . S
C791 C775 1.429 . S
C791 C787 1.429 1_556 S
C791 C792 1.523 1_556 S
C792 C776 1.368 . S
C792 C788 1.368 1_554 S
C792 C791 1.523 1_554 S
H793 C768 0.950 . S
H794 C770 0.950 . S
H795 C771 0.959 . S
H796 C773 0.950 . S
H797 C775 0.950 . S
C798 C799 1.349 . S
C798 C800 1.327 1_655 S
C798 H823 0.950 . S
C799 C798 1.349 . S
C799 C815 1.349 . S
C800 C798 1.327 1_455 S
C800 C819 1.429 . S
C800 H824 0.950 . S
C801 C818 1.574 . S
C801 C820 1.368 . S
C801 H825 0.949 . S
H802 C806 0.949 . S
C803 C804 1.349 . S
C803 C805 1.327 . S
C803 H826 0.950 . S
C804 C803 1.349 . S
C804 C816 1.349 . S
C805 C803 1.327 . S
C805 C821 1.429 . S
C805 H827 0.950 . S
C806 H802 0.949 . S
C806 C814 1.574 . S
C806 C822 1.368 . S
H807 C815 0.950 . S
H808 C813 0.950 . S
H809 C814 0.949 . S
H810 C816 0.950 . S
H811 C817 0.950 . S
H812 C818 0.949 . S
C813 H808 0.950 . S
C813 C815 1.327 1_455 S
C813 C819 1.429 . S
C814 C806 1.574 . S
C814 H809 0.949 . S
C814 C820 1.368 . S
C815 C799 1.349 . S
C815 H807 0.950 . S
C815 C813 1.327 1_655 S
C816 C804 1.349 . S
C816 H810 0.950 . S
C816 C817 1.327 . S
C817 H811 0.950 . S
C817 C816 1.327 . S
C817 C821 1.429 . S
C818 C801 1.574 . S
C818 H812 0.949 . S
C818 C822 1.368 . S
C819 C800 1.429 . S
C819 C813 1.429 . S
C819 C820 1.523 . S
C820 C801 1.368 . S
C820 C814 1.368 . S
C820 C819 1.523 . S
C821 C805 1.429 . S
C821 C817 1.429 . S
C821 C822 1.523 . S
C822 C806 1.368 . S
C822 C818 1.368 . S
C822 C821 1.523 . S
H823 C798 0.950 . S
H824 C800 0.950 . S
H825 C801 0.949 . S
H826 C803 0.950 . S
H827 C805 0.950 . S
C828 C829 1.349 . S
C828 C830 1.327 1_565 S
C828 H853 0.950 . S
C829 C828 1.349 . S
C829 C845 1.349 . S
C830 C828 1.327 1_545 S
C830 C849 1.429 . S
C830 H854 0.950 . S
C831 C848 1.574 . S
C831 C850 1.368 . S
C831 H855 0.949 . S
H832 C836 0.949 . S
C833 C834 1.349 . S
C833 C835 1.327 . S
C833 H856 0.950 . S
C834 C833 1.349 . S
C834 C846 1.349 . S
C835 C833 1.327 . S
C835 C851 1.429 . S
C835 H857 0.950 . S
C836 H832 0.949 . S
C836 C844 1.574 . S
C836 C852 1.368 . S
H837 C845 0.950 . S
H838 C843 0.950 1_545 S
H839 C844 0.949 . S
H840 C846 0.950 . S
H841 C847 0.950 . S
H842 C848 0.949 . S
C843 H838 0.950 1_565 S
C843 C845 1.327 . S
C843 C849 1.429 1_565 S
C844 C836 1.574 . S
C844 H839 0.949 . S
C844 C850 1.368 . S
C845 C829 1.349 . S
C845 H837 0.950 . S
C845 C843 1.327 . S
C846 C834 1.349 . S
C846 H840 0.950 . S
C846 C847 1.327 . S
C847 H841 0.950 . S
C847 C846 1.327 . S
C847 C851 1.429 . S
C848 C831 1.574 . S
C848 H842 0.949 . S
C848 C852 1.368 . S
C849 C830 1.429 . S
C849 C843 1.429 1_545 S
C849 C850 1.523 . S
C850 C831 1.368 . S
C850 C844 1.368 . S
C850 C849 1.523 . S
C851 C835 1.429 . S
C851 C847 1.429 . S
C851 C852 1.523 . S
C852 C836 1.368 . S
C852 C848 1.368 . S
C852 C851 1.523 . S
H853 C828 0.950 . S
H854 C830 0.950 . S
H855 C831 0.949 . S
H856 C833 0.950 . S
H857 C835 0.950 . S
C858 C859 1.349 . S
C858 C860 1.327 . S
C858 H883 0.950 . S
C859 C858 1.349 . S
C859 C875 1.349 . S
C860 C858 1.327 . S
C860 C879 1.429 . S
C860 H884 0.950 . S
C861 C878 1.574 . S
C861 C880 1.368 . S
C861 H885 0.949 . S
H862 C866 0.949 . S
C863 C864 1.349 . S
C863 C865 1.327 . S
C863 H886 0.950 . S
C864 C863 1.349 . S
C864 C876 1.349 . S
C865 C863 1.327 . S
C865 C881 1.429 . S
C865 H887 0.950 . S
C866 H862 0.949 . S
C866 C874 1.574 . S
C866 C882 1.368 . S
H867 C875 0.950 . S
H868 C873 0.950 . S
H869 C874 0.949 . S
H870 C876 0.950 . S
H871 C877 0.950 . S
H872 C878 0.949 . S
C873 H868 0.950 . S
C873 C875 1.327 . S
C873 C879 1.429 . S
C874 C866 1.574 . S
C874 H869 0.949 . S
C874 C880 1.368 . S
C875 C859 1.349 . S
C875 H867 0.950 . S
C875 C873 1.327 . S
C876 C864 1.349 . S
C876 H870 0.950 . S
C876 C877 1.327 . S
C877 H871 0.950 . S
C877 C876 1.327 . S
C877 C881 1.429 . S
C878 C861 1.574 . S
C878 H872 0.949 . S
C878 C882 1.368 . S
C879 C860 1.429 . S
C879 C873 1.429 . S
C879 C880 1.523 . S
C880 C861 1.368 . S
C880 C874 1.368 . S
C880 C879 1.523 . S
C881 C865 1.429 . S
C881 C877 1.429 . S
C881 C882 1.523 . S
C882 C866 1.368 . S
C882 C878 1.368 . S
C882 C881 1.523 . S
H883 C858 0.950 . S
H884 C860 0.950 . S
H885 C861 0.949 . S
H886 C863 0.950 . S
H887 C865 0.950 . S
C888 C889 1.349 . S
C888 C890 1.327 1_455 S
C888 H913 0.950 . S
C889 C888 1.349 . S
C889 C905 1.349 . S
C890 C888 1.327 1_655 S
C890 C909 1.429 . S
C890 H914 0.950 . S
C891 C908 1.574 . S
C891 C910 1.368 . S
C891 H915 0.949 . S
H892 C896 0.949 . S
C893 C894 1.349 . S
C893 C895 1.327 . S
C893 H916 0.950 . S
C894 C893 1.349 . S
C894 C906 1.349 . S
C895 C893 1.327 . S
C895 C911 1.429 . S
C895 H917 0.950 . S
C896 H892 0.949 . S
C896 C904 1.574 . S
C896 C912 1.368 . S
H897 C905 0.950 . S
H898 C903 0.950 . S
H899 C904 0.949 . S
H900 C906 0.950 . S
H901 C907 0.950 . S
H902 C908 0.949 . S
C903 H898 0.950 . S
C903 C905 1.327 1_655 S
C903 C909 1.429 . S
C904 C896 1.574 . S
C904 H899 0.949 . S
C904 C910 1.368 . S
C905 C889 1.349 . S
C905 H897 0.950 . S
C905 C903 1.327 1_455 S
C906 C894 1.349 . S
C906 H900 0.950 . S
C906 C907 1.327 . S
C907 H901 0.950 . S
C907 C906 1.327 . S
C907 C911 1.429 . S
C908 C891 1.574 . S
C908 H902 0.949 . S
C908 C912 1.368 . S
C909 C890 1.429 . S
C909 C903 1.429 . S
C909 C910 1.523 . S
C910 C891 1.368 . S
C910 C904 1.368 . S
C910 C909 1.523 . S
C911 C895 1.429 . S
C911 C907 1.429 . S
C911 C912 1.523 . S
C912 C896 1.368 . S
C912 C908 1.368 . S
C912 C911 1.523 . S
H913 C888 0.950 . S
H914 C890 0.950 . S
H915 C891 0.949 . S
H916 C893 0.950 . S
H917 C895 0.950 . S
C918 C919 1.349 . S
C918 C920 1.327 1_545 S
C918 H943 0.950 . S
C919 C918 1.349 . S
C919 C935 1.349 . S
C920 C918 1.327 1_565 S
C920 C939 1.429 . S
C920 H944 0.950 . S
C921 C938 1.574 . S
C921 C940 1.368 . S
C921 H945 0.949 . S
H922 C926 0.949 . S
C923 C924 1.349 . S
C923 C925 1.327 . S
C923 H946 0.950 . S
C924 C923 1.349 . S
C924 C936 1.349 . S
C925 C923 1.327 . S
C925 C941 1.429 . S
C925 H947 0.950 . S
C926 H922 0.949 . S
C926 C934 1.574 . S
C926 C942 1.368 . S
H927 C935 0.950 . S
H928 C933 0.950 . S
H929 C934 0.949 . S
H930 C936 0.950 . S
H931 C937 0.950 . S
H932 C938 0.949 . S
C933 H928 0.950 . S
C933 C935 1.327 1_565 S
C933 C939 1.429 . S
C934 C926 1.574 . S
C934 H929 0.949 . S
C934 C940 1.368 . S
C935 C919 1.349 . S
C935 H927 0.950 . S
C935 C933 1.327 1_545 S
C936 C924 1.349 . S
C936 H930 0.950 . S
C936 C937 1.327 . S
C937 H931 0.950 . S
C937 C936 1.327 . S
C937 C941 1.429 . S
C938 C921 1.574 . S
C938 H932 0.949 . S
C938 C942 1.368 . S
C939 C920 1.429 . S
C939 C933 1.429 . S
C939 C940 1.523 . S
C940 C921 1.368 . S
C940 C934 1.368 . S
C940 C939 1.523 . S
C941 C925 1.429 . S
C941 C937 1.429 . S
C941 C942 1.523 . S
C942 C926 1.368 . S
C942 C938 1.368 . S
C942 C941 1.523 . S
H943 C918 0.950 . S
H944 C920 0.950 . S
H945 C921 0.949 . S
H946 C923 0.950 . S
H947 C925 0.950 . S
C948 C949 1.349 . S
C948 C950 1.327 . S
C948 H973 0.950 . S
C949 C948 1.349 . S
C949 C965 1.349 . S
C950 C948 1.327 . S
C950 C969 1.429 . S
C950 H974 0.950 . S
C951 C968 1.574 . S
C951 C970 1.368 . S
C951 H975 0.949 . S
H952 C956 0.949 . S
C953 C954 1.349 . S
C953 C955 1.327 . S
C953 H976 0.950 . S
C954 C953 1.349 . S
C954 C966 1.349 . S
C955 C953 1.327 . S
C955 C971 1.429 . S
C955 H977 0.950 . S
C956 H952 0.949 . S
C956 C964 1.574 . S
C956 C972 1.368 . S
H957 C965 0.950 . S
H958 C963 0.950 . S
H959 C964 0.949 . S
H960 C966 0.950 . S
H961 C967 0.950 . S
H962 C968 0.949 . S
C963 H958 0.950 . S
C963 C965 1.327 . S
C963 C969 1.429 . S
C964 C956 1.574 . S
C964 H959 0.949 . S
C964 C970 1.368 . S
C965 C949 1.349 . S
C965 H957 0.950 . S
C965 C963 1.327 . S
C966 C954 1.349 . S
C966 H960 0.950 . S
C966 C967 1.327 . S
C967 H961 0.950 . S
C967 C966 1.327 . S
C967 C971 1.429 . S
C968 C951 1.574 . S
C968 H962 0.949 . S
C968 C972 1.368 . S
C969 C950 1.429 . S
C969 C963 1.429 . S
C969 C970 1.523 . S
C970 C951 1.368 . S
C970 C964 1.368 . S
C970 C969 1.523 . S
C971 C955 1.429 . S
C971 C967 1.429 . S
C971 C972 1.523 . S
C972 C956 1.368 . S
C972 C968 1.368 . S
C972 C971 1.523 . S
H973 C948 0.950 . S
H974 C950 0.950 . S
H975 C951 0.949 . S
H976 C953 0.950 . S
H977 C955 0.950 . S
C978 C979 1.349 . S
C978 C980 1.327 . S
C978 H1003 0.950 . S
C979 C978 1.349 . S
C979 C995 1.349 . S
C980 C978 1.327 . S
C980 C999 1.429 . S
C980 H1004 0.950 . S
C981 C998 1.574 1_655 S
C981 C1000 1.368 . S
C981 H1005 0.949 . S
H982 C986 0.949 . S
C983 C984 1.349 . S
C983 C985 1.327 . S
C983 H1006 0.950 . S
C984 C983 1.349 . S
C984 C996 1.349 . S
C985 C983 1.327 . S
C985 C1001 1.429 . S
C985 H1007 0.950 . S
C986 H982 0.949 . S
C986 C994 1.574 1_455 S
C986 C1002 1.368 . S
H987 C995 0.950 . S
H988 C993 0.950 . S
H989 C994 0.949 . S
H990 C996 0.950 . S
H991 C997 0.950 . S
H992 C998 0.949 . S
C993 H988 0.950 . S
C993 C995 1.327 . S
C993 C999 1.429 . S
C994 C986 1.574 1_655 S
C994 H989 0.949 . S
C994 C1000 1.368 . S
C995 C979 1.349 . S
C995 H987 0.950 . S
C995 C993 1.327 . S
C996 C984 1.349 . S
C996 H990 0.950 . S
C996 C997 1.327 . S
C997 H991 0.950 . S
C997 C996 1.327 . S
C997 C1001 1.429 . S
C998 C981 1.574 1_455 S
C998 H992 0.949 . S
C998 C1002 1.368 . S
C999 C980 1.429 . S
C999 C993 1.429 . S
C999 C1000 1.523 . S
C1000 C981 1.368 . S
C1000 C994 1.368 . S
C1000 C999 1.523 . S
C1001 C985 1.429 . S
C1001 C997 1.429 . S
C1001 C1002 1.523 . S
C1002 C986 1.368 . S
C1002 C998 1.368 . S
C1002 C1001 1.523 . S
H1003 C978 0.950 . S
H1004 C980 0.950 . S
H1005 C981 0.949 . S
H1006 C983 0.950 . S
H1007 C985 0.950 . S
C1008 C1009 1.349 . S
C1008 C1010 1.327 . S
C1008 H1033 0.950 . S
C1009 C1008 1.349 . S
C1009 C1025 1.349 . S
C1010 C1008 1.327 . S
C1010 C1029 1.429 . S
C1010 H1034 0.950 . S
C1011 C1028 1.574 . S
C1011 C1030 1.368 . S
C1011 H1035 0.949 . S
H1012 C1016 0.949 . S
C1013 C1014 1.349 . S
C1013 C1015 1.327 . S
C1013 H1036 0.950 . S
C1014 C1013 1.349 . S
C1014 C1026 1.349 . S
C1015 C1013 1.327 . S
C1015 C1031 1.429 . S
C1015 H1037 0.950 . S
C1016 H1012 0.949 . S
C1016 C1024 1.574 . S
C1016 C1032 1.368 . S
H1017 C1025 0.950 . S
H1018 C1023 0.950 . S
H1019 C1024 0.949 . S
H1020 C1026 0.950 . S
H1021 C1027 0.950 . S
H1022 C1028 0.949 . S
C1023 H1018 0.950 . S
C1023 C1025 1.327 . S
C1023 C1029 1.429 . S
C1024 C1016 1.574 . S
C1024 H1019 0.949 . S
C1024 C1030 1.368 1_545 S
C1025 C1009 1.349 . S
C1025 H1017 0.950 . S
C1025 C1023 1.327 . S
C1026 C1014 1.349 . S
C1026 H1020 0.950 . S
C1026 C1027 1.327 . S
C1027 H1021 0.950 . S
C1027 C1026 1.327 . S
C1027 C1031 1.429 . S
C1028 C1011 1.574 . S
C1028 H1022 0.949 . S
C1028 C1032 1.368 1_565 S
C1029 C1010 1.429 . S
C1029 C1023 1.429 . S
C1029 C1030 1.523 . S
C1030 C1011 1.368 . S
C1030 C1024 1.368 1_565 S
C1030 C1029 1.523 . S
C1031 C1015 1.429 . S
C1031 C1027 1.429 . S
C1031 C1032 1.523 . S
C1032 C1016 1.368 . S
C1032 C1028 1.368 1_545 S
C1032 C1031 1.523 . S
H1033 C1008 0.950 . S
H1034 C1010 0.950 . S
H1035 C1011 0.949 . S
H1036 C1013 0.950 . S
H1037 C1015 0.950 . S
C1038 C1039 1.349 . S
C1038 C1040 1.327 . S
C1038 H1063 0.950 . S
C1039 C1038 1.349 . S
C1039 C1055 1.349 . S
C1040 C1038 1.327 . S
C1040 C1059 1.429 . S
C1040 H1064 0.950 . S
C1041 C1058 1.574 . S
C1041 C1060 1.368 . S
C1041 H1065 0.949 . S
H1042 C1046 0.949 . S
C1043 C1044 1.349 . S
C1043 C1045 1.327 . S
C1043 H1066 0.950 . S
C1044 C1043 1.349 . S
C1044 C1056 1.349 . S
C1045 C1043 1.327 . S
C1045 C1061 1.429 . S
C1045 H1067 0.950 . S
C1046 H1042 0.949 . S
C1046 C1054 1.574 . S
C1046 C1062 1.368 . S
H1047 C1055 0.950 . S
H1048 C1053 0.950 . S
H1049 C1054 0.949 . S
H1050 C1056 0.950 . S
H1051 C1057 0.950 . S
H1052 C1058 0.949 . S
C1053 H1048 0.950 . S
C1053 C1055 1.327 . S
C1053 C1059 1.429 . S
C1054 C1046 1.574 . S
C1054 H1049 0.949 . S
C1054 C1060 1.368 . S
C1055 C1039 1.349 . S
C1055 H1047 0.950 . S
C1055 C1053 1.327 . S
C1056 C1044 1.349 . S
C1056 H1050 0.950 . S
C1056 C1057 1.327 . S
C1057 H1051 0.950 . S
C1057 C1056 1.327 . S
C1057 C1061 1.429 . S
C1058 C1041 1.574 . S
C1058 H1052 0.949 . S
C1058 C1062 1.368 . S
C1059 C1040 1.429 . S
C1059 C1053 1.429 . S
C1059 C1060 1.523 . S
C1060 C1041 1.368 . S
C1060 C1054 1.368 . S
C1060 C1059 1.523 . S
C1061 C1045 1.429 . S
C1061 C1057 1.429 . S
C1061 C1062 1.523 . S
C1062 C1046 1.368 . S
C1062 C1058 1.368 . S
C1062 C1061 1.523 . S
H1063 C1038 0.950 . S
H1064 C1040 0.950 . S
H1065 C1041 0.949 . S
H1066 C1043 0.950 . S
H1067 C1045 0.950 . S
C1068 C1069 1.349 . S
C1068 C1070 1.327 . S
C1068 H1093 0.950 . S
C1069 C1068 1.349 . S
C1069 C1085 1.349 . S
C1070 C1068 1.327 . S
C1070 C1089 1.429 . S
C1070 H1094 0.950 . S
C1071 C1088 1.574 . S
C1071 C1090 1.368 . S
C1071 H1095 0.949 . S
H1072 C1076 0.949 . S
C1073 C1074 1.349 . S
C1073 C1075 1.327 . S
C1073 H1096 0.950 . S
C1074 C1073 1.349 . S
C1074 C1086 1.349 . S
C1075 C1073 1.327 . S
C1075 C1091 1.429 . S
C1075 H1097 0.950 . S
C1076 H1072 0.949 . S
C1076 C1084 1.574 1_655 S
C1076 C1092 1.368 . S
H1077 C1085 0.950 . S
H1078 C1083 0.950 . S
H1079 C1084 0.949 . S
H1080 C1086 0.950 . S
H1081 C1087 0.950 . S
H1082 C1088 0.949 . S
C1083 H1078 0.950 . S
C1083 C1085 1.327 . S
C1083 C1089 1.429 . S
C1084 C1076 1.574 1_455 S
C1084 H1079 0.949 . S
C1084 C1090 1.368 . S
C1085 C1069 1.349 . S
C1085 H1077 0.950 . S
C1085 C1083 1.327 . S
C1086 C1074 1.349 . S
C1086 H1080 0.950 . S
C1086 C1087 1.327 . S
C1087 H1081 0.950 . S
C1087 C1086 1.327 . S
C1087 C1091 1.429 . S
C1088 C1071 1.574 . S
C1088 H1082 0.949 . S
C1088 C1092 1.368 1_455 S
C1089 C1070 1.429 . S
C1089 C1083 1.429 . S
C1089 C1090 1.523 . S
C1090 C1071 1.368 . S
C1090 C1084 1.368 . S
C1090 C1089 1.523 . S
C1091 C1075 1.429 . S
C1091 C1087 1.429 . S
C1091 C1092 1.523 . S
C1092 C1076 1.368 . S
C1092 C1088 1.368 1_655 S
C1092 C1091 1.523 . S
H1093 C1068 0.950 . S
H1094 C1070 0.950 . S
H1095 C1071 0.949 . S
H1096 C1073 0.950 . S
H1097 C1075 0.950 . S
C1098 C1099 1.349 . S
C1098 C1100 1.327 . S
C1098 H1123 0.950 . S
C1099 C1098 1.349 . S
C1099 C1115 1.349 . S
C1100 C1098 1.327 . S
C1100 C1119 1.429 . S
C1100 H1124 0.950 . S
C1101 C1118 1.574 . S
C1101 C1120 1.368 1_556 S
C1101 H1125 0.949 . S
H1102 C1106 0.949 . S
C1103 C1104 1.349 . S
C1103 C1105 1.327 . S
C1103 H1126 0.950 . S
C1104 C1103 1.349 . S
C1104 C1116 1.349 . S
C1105 C1103 1.327 . S
C1105 C1121 1.429 . S
C1105 H1127 0.950 . S
C1106 H1102 0.949 . S
C1106 C1114 1.574 . S
C1106 C1122 1.368 1_554 S
H1107 C1115 0.950 . S
H1108 C1113 0.950 . S
H1109 C1114 0.949 . S
H1110 C1116 0.950 . S
H1111 C1117 0.950 . S
H1112 C1118 0.949 . S
C1113 H1108 0.950 . S
C1113 C1115 1.327 . S
C1113 C1119 1.429 . S
C1114 C1106 1.574 . S
C1114 H1109 0.949 . S
C1114 C1120 1.368 1_545 S
C1115 C1099 1.349 . S
C1115 H1107 0.950 . S
C1115 C1113 1.327 . S
C1116 C1104 1.349 . S
C1116 H1110 0.950 . S
C1116 C1117 1.327 . S
C1117 H1111 0.950 . S
C1117 C1116 1.327 . S
C1117 C1121 1.429 . S
C1118 C1101 1.574 . S
C1118 H1112 0.949 . S
C1118 C1122 1.368 1_565 S
C1119 C1100 1.429 . S
C1119 C1113 1.429 . S
C1119 C1120 1.523 . S
C1120 C1101 1.368 1_554 S
C1120 C1114 1.368 1_565 S
C1120 C1119 1.523 . S
C1121 C1105 1.429 . S
C1121 C1117 1.429 . S
C1121 C1122 1.523 . S
C1122 C1106 1.368 1_556 S
C1122 C1118 1.368 1_545 S
C1122 C1121 1.523 . S
H1123 C1098 0.950 . S
H1124 C1100 0.950 . S
H1125 C1101 0.949 . S
H1126 C1103 0.950 . S
H1127 C1105 0.950 . S
C1128 C1129 1.349 . S
C1128 C1130 1.327 . S
C1128 H1153 0.950 . S
C1129 C1128 1.349 . S
C1129 C1145 1.349 . S
C1130 C1128 1.327 . S
C1130 C1149 1.429 . S
C1130 H1154 0.950 . S
C1131 C1148 1.574 . S
C1131 C1150 1.368 . S
C1131 H1155 0.949 . S
H1132 C1136 0.949 . S
C1133 C1134 1.349 . S
C1133 C1135 1.327 . S
C1133 H1156 0.950 1_556 S
C1134 C1133 1.349 . S
C1134 C1146 1.349 . S
C1135 C1133 1.327 . S
C1135 C1151 1.429 . S
C1135 H1157 0.950 1_556 S
C1136 H1132 0.949 . S
C1136 C1144 1.574 . S
C1136 C1152 1.368 . S
H1137 C1145 0.950 . S
H1138 C1143 0.950 . S
H1139 C1144 0.949 . S
H1140 C1146 0.950 . S
H1141 C1147 0.950 . S
H1142 C1148 0.949 . S
C1143 H1138 0.950 . S
C1143 C1145 1.327 . S
C1143 C1149 1.429 . S
C1144 C1136 1.574 . S
C1144 H1139 0.949 . S
C1144 C1150 1.368 . S
C1145 C1129 1.349 . S
C1145 H1137 0.950 . S
C1145 C1143 1.327 . S
C1146 C1134 1.349 . S
C1146 H1140 0.950 . S
C1146 C1147 1.327 . S
C1147 H1141 0.950 . S
C1147 C1146 1.327 . S
C1147 C1151 1.429 . S
C1148 C1131 1.574 . S
C1148 H1142 0.949 . S
C1148 C1152 1.368 . S
C1149 C1130 1.429 . S
C1149 C1143 1.429 . S
C1149 C1150 1.523 . S
C1150 C1131 1.368 . S
C1150 C1144 1.368 . S
C1150 C1149 1.523 . S
C1151 C1135 1.429 . S
C1151 C1147 1.429 . S
C1151 C1152 1.523 . S
C1152 C1136 1.368 . S
C1152 C1148 1.368 . S
C1152 C1151 1.523 . S
H1153 C1128 0.950 . S
H1154 C1130 0.950 . S
H1155 C1131 0.949 . S
H1156 C1133 0.950 1_554 S
H1157 C1135 0.950 1_554 S
C1158 C1159 1.349 . S
C1158 C1160 1.327 . S
C1158 H1183 0.950 . S
C1159 C1158 1.349 . S
C1159 C1175 1.349 . S
C1160 C1158 1.327 . S
C1160 C1179 1.429 . S
C1160 H1184 0.950 . S
C1161 C1178 1.574 . S
C1161 C1180 1.368 . S
C1161 H1185 0.949 . S
H1162 C1166 0.949 . S
C1163 C1164 1.349 . S
C1163 C1165 1.327 . S
C1163 H1186 0.950 . S
C1164 C1163 1.349 . S
C1164 C1176 1.349 . S
C1165 C1163 1.327 . S
C1165 C1181 1.429 . S
C1165 H1187 0.950 . S
C1166 H1162 0.949 . S
C1166 C1174 1.574 . S
C1166 C1182 1.368 . S
H1167 C1175 0.950 . S
H1168 C1173 0.950 . S
H1169 C1174 0.949 . S
H1170 C1176 0.950 1_556 S
H1171 C1177 0.950 . S
H1172 C1178 0.949 . S
C1173 H1168 0.950 . S
C1173 C1175 1.327 . S
C1173 C1179 1.429 . S
C1174 C1166 1.574 . S
C1174 H1169 0.949 . S
C1174 C1180 1.368 . S
C1175 C1159 1.349 . S
C1175 H1167 0.950 . S
C1175 C1173 1.327 . S
C1176 C1164 1.349 . S
C1176 H1170 0.950 1_554 S
C1176 C1177 1.327 . S
C1177 H1171 0.950 . S
C1177 C1176 1.327 . S
C1177 C1181 1.429 . S
C1178 C1161 1.574 . S
C1178 H1172 0.949 . S
C1178 C1182 1.368 . S
C1179 C1160 1.429 . S
C1179 C1173 1.429 . S
C1179 C1180 1.523 . S
C1180 C1161 1.368 . S
C1180 C1174 1.368 . S
C1180 C1179 1.523 . S
C1181 C1165 1.429 . S
C1181 C1177 1.429 . S
C1181 C1182 1.523 . S
C1182 C1166 1.368 . S
C1182 C1178 1.368 . S
C1182 C1181 1.523 . S
H1183 C1158 0.950 . S
H1184 C1160 0.950 . S
H1185 C1161 0.949 . S
H1186 C1163 0.950 . S
H1187 C1165 0.950 . S
C1188 C1189 1.349 . S
C1188 C1190 1.327 . S
C1188 H1213 0.950 . S
C1189 C1188 1.349 . S
C1189 C1205 1.349 . S
C1190 C1188 1.327 . S
C1190 C1209 1.429 . S
C1190 H1214 0.950 . S
C1191 C1208 1.574 . S
C1191 C1210 1.368 . S
C1191 H1215 0.949 . S
H1192 C1196 0.949 . S
C1193 C1194 1.349 . S
C1193 C1195 1.327 . S
C1193 H1216 0.950 . S
C1194 C1193 1.349 . S
C1194 C1206 1.349 . S
C1195 C1193 1.327 . S
C1195 C1211 1.429 . S
C1195 H1217 0.950 . S
C1196 H1192 0.949 . S
C1196 C1204 1.574 . S
C1196 C1212 1.368 . S
H1197 C1205 0.950 . S
H1198 C1203 0.950 . S
H1199 C1204 0.949 . S
H1200 C1206 0.950 . S
H1201 C1207 0.950 . S
H1202 C1208 0.949 . S
C1203 H1198 0.950 . S
C1203 C1205 1.327 . S
C1203 C1209 1.429 . S
C1204 C1196 1.574 . S
C1204 H1199 0.949 . S
C1204 C1210 1.368 . S
C1205 C1189 1.349 . S
C1205 H1197 0.950 . S
C1205 C1203 1.327 . S
C1206 C1194 1.349 . S
C1206 H1200 0.950 . S
C1206 C1207 1.327 . S
C1207 H1201 0.950 . S
C1207 C1206 1.327 . S
C1207 C1211 1.429 . S
C1208 C1191 1.574 . S
C1208 H1202 0.949 . S
C1208 C1212 1.368 . S
C1209 C1190 1.429 . S
C1209 C1203 1.429 . S
C1209 C1210 1.523 . S
C1210 C1191 1.368 . S
C1210 C1204 1.368 . S
C1210 C1209 1.523 . S
C1211 C1195 1.429 . S
C1211 C1207 1.429 . S
C1211 C1212 1.523 . S
C1212 C1196 1.368 . S
C1212 C1208 1.368 . S
C1212 C1211 1.523 . S
H1213 C1188 0.950 . S
H1214 C1190 0.950 . S
H1215 C1191 0.949 . S
H1216 C1193 0.950 . S
H1217 C1195 0.950 . S
C1218 C1219 1.349 . S
C1218 C1220 1.327 . S
C1218 H1243 0.950 . S
C1219 C1218 1.349 . S
C1219 C1235 1.349 . S
C1220 C1218 1.327 . S
C1220 C1239 1.429 . S
C1220 H1244 0.950 . S
C1221 C1238 1.574 . S
C1221 C1240 1.368 . S
C1221 H1245 0.949 . S
H1222 C1226 0.949 . S
C1223 C1224 1.349 . S
C1223 C1225 1.327 . S
C1223 H1246 0.950 . S
C1224 C1223 1.349 . S
C1224 C1236 1.349 . S
C1225 C1223 1.327 . S
C1225 C1241 1.429 . S
C1225 H1247 0.950 . S
C1226 H1222 0.949 . S
C1226 C1234 1.574 . S
C1226 C1242 1.368 . S
H1227 C1235 0.950 . S
H1228 C1233 0.950 . S
H1229 C1234 0.949 . S
H1230 C1236 0.950 . S
H1231 C1237 0.950 . S
H1232 C1238 0.949 . S
C1233 H1228 0.950 . S
C1233 C1235 1.327 . S
C1233 C1239 1.429 . S
C1234 C1226 1.574 . S
C1234 H1229 0.949 . S
C1234 C1240 1.368 . S
C1235 C1219 1.349 . S
C1235 H1227 0.950 . S
C1235 C1233 1.327 . S
C1236 C1224 1.349 . S
C1236 H1230 0.950 . S
C1236 C1237 1.327 . S
C1237 H1231 0.950 . S
C1237 C1236 1.327 . S
C1237 C1241 1.429 . S
C1238 C1221 1.574 . S
C1238 H1232 0.949 . S
C1238 C1242 1.368 . S
C1239 C1220 1.429 . S
C1239 C1233 1.429 . S
C1239 C1240 1.523 . S
C1240 C1221 1.368 . S
C1240 C1234 1.368 . S
C1240 C1239 1.523 . S
C1241 C1225 1.429 . S
C1241 C1237 1.429 . S
C1241 C1242 1.523 . S
C1242 C1226 1.368 . S
C1242 C1238 1.368 . S
C1242 C1241 1.523 . S
H1243 C1218 0.950 . S
H1244 C1220 0.950 . S
H1245 C1221 0.949 . S
H1246 C1223 0.950 . S
H1247 C1225 0.950 . S
C1248 C1249 1.349 . S
C1248 C1250 1.327 . S
C1248 H1273 0.950 . S
C1249 C1248 1.349 . S
C1249 C1265 1.349 . S
C1250 C1248 1.327 . S
C1250 C1269 1.429 . S
C1250 H1274 0.950 . S
C1251 C1268 1.574 . S
C1251 C1270 1.368 . S
C1251 H1275 0.949 . S
H1252 C1256 0.949 . S
C1253 C1254 1.349 . S
C1253 C1255 1.327 . S
C1253 H1276 0.950 . S
C1254 C1253 1.349 . S
C1254 C1266 1.349 . S
C1255 C1253 1.327 . S
C1255 C1271 1.429 . S
C1255 H1277 0.950 . S
C1256 H1252 0.949 . S
C1256 C1264 1.574 . S
C1256 C1272 1.368 . S
H1257 C1265 0.950 . S
H1258 C1263 0.950 . S
H1259 C1264 0.949 . S
H1260 C1266 0.950 . S
H1261 C1267 0.950 . S
H1262 C1268 0.949 . S
C1263 H1258 0.950 . S
C1263 C1265 1.327 . S
C1263 C1269 1.429 . S
C1264 C1256 1.574 . S
C1264 H1259 0.949 . S
C1264 C1270 1.368 . S
C1265 C1249 1.349 . S
C1265 H1257 0.950 . S
C1265 C1263 1.327 . S
C1266 C1254 1.349 . S
C1266 H1260 0.950 . S
C1266 C1267 1.327 . S
C1267 H1261 0.950 . S
C1267 C1266 1.327 . S
C1267 C1271 1.429 . S
C1268 C1251 1.574 . S
C1268 H1262 0.949 . S
C1268 C1272 1.368 . S
C1269 C1250 1.429 . S
C1269 C1263 1.429 . S
C1269 C1270 1.523 . S
C1270 C1251 1.368 . S
C1270 C1264 1.368 . S
C1270 C1269 1.523 . S
C1271 C1255 1.429 . S
C1271 C1267 1.429 . S
C1271 C1272 1.523 . S
C1272 C1256 1.368 . S
C1272 C1268 1.368 . S
C1272 C1271 1.523 . S
H1273 C1248 0.950 . S
H1274 C1250 0.950 . S
H1275 C1251 0.949 . S
H1276 C1253 0.950 . S
H1277 C1255 0.950 . S
C1278 C1279 1.349 . S
C1278 C1280 1.327 . S
C1278 H1303 0.950 . S
C1279 C1278 1.349 . S
C1279 C1295 1.349 . S
C1280 C1278 1.327 . S
C1280 C1299 1.429 . S
C1280 H1304 0.950 . S
C1281 C1298 1.574 . S
C1281 C1300 1.368 . S
C1281 H1305 0.949 . S
H1282 C1286 0.949 . S
C1283 C1284 1.349 . S
C1283 C1285 1.327 . S
C1283 H1306 0.950 . S
C1284 C1283 1.349 . S
C1284 C1296 1.349 . S
C1285 C1283 1.327 . S
C1285 C1301 1.429 . S
C1285 H1307 0.950 . S
C1286 H1282 0.949 . S
C1286 C1294 1.574 . S
C1286 C1302 1.368 . S
H1287 C1295 0.950 . S
H1288 C1293 0.950 . S
H1289 C1294 0.949 . S
H1290 C1296 0.950 . S
H1291 C1297 0.950 . S
H1292 C1298 0.949 . S
C1293 H1288 0.950 . S
C1293 C1295 1.327 . S
C1293 C1299 1.429 . S
C1294 C1286 1.574 . S
C1294 H1289 0.949 . S
C1294 C1300 1.368 . S
C1295 C1279 1.349 . S
C1295 H1287 0.950 . S
C1295 C1293 1.327 . S
C1296 C1284 1.349 . S
C1296 H1290 0.950 . S
C1296 C1297 1.327 . S
C1297 H1291 0.950 . S
C1297 C1296 1.327 . S
C1297 C1301 1.429 . S
C1298 C1281 1.574 . S
C1298 H1292 0.949 . S
C1298 C1302 1.368 . S
C1299 C1280 1.429 . S
C1299 C1293 1.429 . S
C1299 C1300 1.523 . S
C1300 C1281 1.368 . S
C1300 C1294 1.368 . S
C1300 C1299 1.523 . S
C1301 C1285 1.429 . S
C1301 C1297 1.429 . S
C1301 C1302 1.523 . S
C1302 C1286 1.368 . S
C1302 C1298 1.368 . S
C1302 C1301 1.523 . S
H1303 C1278 0.950 . S
H1304 C1280 0.950 . S
H1305 C1281 0.949 . S
H1306 C1283 0.950 . S
H1307 C1285 0.950 . S
C409 C349 0.193 . S
C414 C9 0.159 . S
C439 C43 0.300 . S
C444 C383 0.304 . S
C469 C77 0.304 . S
C474 C213 0.300 . S
C499 C111 0.193 . S
C504 C247 0.159 . S
C529 C145 0.293 . S
C534 C281 0.284 . S
C559 C179 0.284 . S
C564 C315 0.293 . S
C589 C5 1.706 . S
C594 C190 1.703 . S
C619 C20 1.744 . S
C624 C39 1.678 . S
C649 C54 1.805 . S
C654 C73 1.766 . S
C679 C107 1.733 . S
C684 C88 1.780 . S
C709 C141 1.923 . S
C714 C122 1.964 . S
C739 C175 1.808 . S
C744 C156 1.823 . S
C769 C258 1.744 . S
C774 C209 1.678 . S
C799 C243 1.706 . S
C804 C292 1.703 . S
C829 C277 1.808 . S
C834 C326 1.823 . S
C859 C311 1.923 . S
C864 C360 1.964 . S
C889 C345 1.733 . S
C894 C394 1.779 . S
C919 C379 1.766 . S
C924 C224 1.805 . S
C949 C2 0.996 . S
C954 C308 0.994 . S
C979 C36 1.391 . S
C984 C342 1.393 . S
C1009 C70 1.283 . S
C1014 C376 1.283 . S
C1039 C104 1.393 . S
C1044 C206 1.391 . S
C1069 C138 0.996 . S
C1074 C240 0.993 . S
C1099 C274 1.158 . S
C1104 C172 1.158 . S
C1129 C237 1.013 . S
C1134 C33 1.016 . S
C1159 C67 1.013 . S
C1164 C271 1.017 . S
C1189 C101 1.066 . S
C1194 C305 1.065 . S
C1219 C339 1.152 . S
C1224 C135 1.156 . S
C1249 C169 1.152 . S
C1254 C373 1.156 . S
C1279 C407 1.066 . S
C1284 C203 1.065 . S
