# Generated by pormake.
# Topology umy, (4)-cn, num edge types: 1
# Building blocks:
#     Node 0, Type 0, BuildingBlock: KUFVIS_clean_sbu_0, # of connection points: 4
#     Node 1, Type 0, BuildingBlock: KUFVIS_clean_sbu_0, # of connection points: 4
#     Node 2, Type 0, BuildingBlock: KUFVIS_clean_sbu_0, # of connection points: 4
#     Node 3, Type 0, BuildingBlock: KUFVIS_clean_sbu_0, # of connection points: 4
#     Node 4, Type 0, BuildingBlock: KUFVIS_clean_sbu_0, # of connection points: 4
#     Node 5, Type 0, BuildingBlock: KUFVIS_clean_sbu_0, # of connection points: 4
#     Node 6, Type 0, BuildingBlock: KUFVIS_clean_sbu_0, # of connection points: 4
#     Node 7, Type 0, BuildingBlock: KUFVIS_clean_sbu_0, # of connection points: 4
#     Node 8, Type 0, BuildingBlock: KUFVIS_clean_sbu_0, # of connection points: 4
#     Node 9, Type 0, BuildingBlock: KUFVIS_clean_sbu_0, # of connection points: 4
#     Node 10, Type 0, BuildingBlock: KUFVIS_clean_sbu_0, # of connection points: 4
#     Node 11, Type 0, BuildingBlock: KUFVIS_clean_sbu_0, # of connection points: 4
#     Edge 12, Type (0, 0), BuildingBlock: MIFKUJ_clean_linker_0, # of connection points: 2
#     Edge 13, Type (0, 0), BuildingBlock: MIFKUJ_clean_linker_0, # of connection points: 2
#     Edge 14, Type (0, 0), BuildingBlock: MIFKUJ_clean_linker_0, # of connection points: 2
#     Edge 15, Type (0, 0), BuildingBlock: MIFKUJ_clean_linker_0, # of connection points: 2
#     Edge 16, Type (0, 0), BuildingBlock: MIFKUJ_clean_linker_0, # of connection points: 2
#     Edge 17, Type (0, 0), BuildingBlock: MIFKUJ_clean_linker_0, # of connection points: 2
#     Edge 18, Type (0, 0), BuildingBlock: MIFKUJ_clean_linker_0, # of connection points: 2
#     Edge 19, Type (0, 0), BuildingBlock: MIFKUJ_clean_linker_0, # of connection points: 2
#     Edge 20, Type (0, 0), BuildingBlock: MIFKUJ_clean_linker_0, # of connection points: 2
#     Edge 21, Type (0, 0), BuildingBlock: MIFKUJ_clean_linker_0, # of connection points: 2
#     Edge 22, Type (0, 0), BuildingBlock: MIFKUJ_clean_linker_0, # of connection points: 2
#     Edge 23, Type (0, 0), BuildingBlock: MIFKUJ_clean_linker_0, # of connection points: 2
#     Edge 24, Type (0, 0), BuildingBlock: MIFKUJ_clean_linker_0, # of connection points: 2
#     Edge 25, Type (0, 0), BuildingBlock: MIFKUJ_clean_linker_0, # of connection points: 2
#     Edge 26, Type (0, 0), BuildingBlock: MIFKUJ_clean_linker_0, # of connection points: 2
#     Edge 27, Type (0, 0), BuildingBlock: MIFKUJ_clean_linker_0, # of connection points: 2
#     Edge 28, Type (0, 0), BuildingBlock: MIFKUJ_clean_linker_0, # of connection points: 2
#     Edge 29, Type (0, 0), BuildingBlock: MIFKUJ_clean_linker_0, # of connection points: 2
#     Edge 30, Type (0, 0), BuildingBlock: MIFKUJ_clean_linker_0, # of connection points: 2
#     Edge 31, Type (0, 0), BuildingBlock: MIFKUJ_clean_linker_0, # of connection points: 2
#     Edge 32, Type (0, 0), BuildingBlock: MIFKUJ_clean_linker_0, # of connection points: 2
#     Edge 33, Type (0, 0), BuildingBlock: MIFKUJ_clean_linker_0, # of connection points: 2
#     Edge 34, Type (0, 0), BuildingBlock: MIFKUJ_clean_linker_0, # of connection points: 2
#     Edge 35, Type (0, 0), BuildingBlock: MIFKUJ_clean_linker_0, # of connection points: 2
# Relax obj value: 0.094
# Max RMSD: 0.078
# Mean RMSD: 0.078
data_MOF--net-umy--node1-KUFVIS_clean_sbu_0--edge1-MIFKUJ_clean_linker_0
_symmetry_space_group_name_H-M    P1
_symmetry_Int_Tables_number       1
_symmetry_cell_setting            triclinic
loop_
_symmetry_equiv_pos_as_xyz
'x, y, z'
_cell_length_a     49.909383
_cell_length_b     49.916594
_cell_length_c     66.10374
_cell_angle_alpha  90.056047
_cell_angle_beta   89.98353
_cell_angle_gamma 120.03906
loop_
_atom_site_label
_atom_site_type_symbol
_atom_site_fract_x
_atom_site_fract_y
_atom_site_fract_z
_atom_type_partial_charge
Mn0 Mn 0.08104 0.35766 0.13659 0.0
Mn1 Mn 0.14476 0.42837 0.1337 0.0
C2 C 0.12295 0.37078 0.15786 0.0
C3 C 0.03197 0.32362 0.15012 0.0
C4 C 0.13249 0.37674 0.10453 0.0
O5 O 0.06487 0.38234 0.12134 0.0
O6 O 0.10964 0.42763 0.1192 0.0
C7 C 0.12082 0.46146 0.15832 0.0
N8 N 0.14294 0.45367 0.15471 0.0
C9 C 0.17466 0.4864 0.18175 0.0
C10 C 0.15239 0.49503 0.18566 0.0
C11 C 0.12523 0.4823 0.17399 0.0
C12 C 0.16877 0.46519 0.16614 0.0
H13 H 0.10011 0.45207 0.14923 0.0
C14 C 0.08078 0.41041 0.11553 0.0
O15 O 0.04078 0.31803 0.13291 0.0
O16 O 0.05121 0.34931 0.15904 0.0
N17 N 0.1809 0.43344 0.14709 0.0
C18 C 0.19942 0.42171 0.1419 0.0
C19 C 0.22735 0.43172 0.15231 0.0
C20 C 0.23619 0.45409 0.16762 0.0
C21 C 0.2167 0.46577 0.17271 0.0
C22 C 0.18904 0.45473 0.16195 0.0
H23 H 0.19298 0.40495 0.12987 0.0
O24 O 0.10311 0.34207 0.15385 0.0
O25 O 0.11763 0.39122 0.14942 0.0
O26 O 0.10579 0.35709 0.11148 0.0
O27 O 0.14892 0.40382 0.11195 0.0
C28 C 0.22375 0.4882 0.18785 0.0
C29 C 0.20257 0.49816 0.19261 0.0
H30 H 0.15587 0.51133 0.1976 0.0
H31 H 0.1079 0.48879 0.17692 0.0
H32 H 0.24226 0.42257 0.14833 0.0
H33 H 0.25808 0.46223 0.17524 0.0
H34 H 0.24549 0.4982 0.19578 0.0
H35 H 0.20812 0.51506 0.20452 0.0
Mn36 Mn 0.72816 0.07371 0.29969 0.0
Mn37 Mn 0.72756 0.14076 0.29579 0.0
C38 C 0.75831 0.1148 0.32115 0.0
C39 C 0.70876 0.02412 0.31358 0.0
C40 C 0.7624 0.12232 0.26665 0.0
O41 O 0.6885 0.06113 0.2834 0.0
O42 O 0.68947 0.10686 0.28337 0.0
C43 C 0.67503 0.12543 0.32338 0.0
N44 N 0.70506 0.1445 0.31791 0.0
C45 C 0.71254 0.17997 0.34484 0.0
C46 C 0.68161 0.16095 0.35065 0.0
C47 C 0.66294 0.1333 0.34008 0.0
C48 C 0.72356 0.17051 0.32848 0.0
H49 H 0.66052 0.10434 0.31511 0.0
C50 C 0.67675 0.07806 0.27897 0.0
O51 O 0.72397 0.03183 0.29663 0.0
O52 O 0.70364 0.04468 0.32188 0.0
N53 N 0.76308 0.1755 0.30735 0.0
C54 C 0.7931 0.18974 0.30104 0.0
C55 C 0.81532 0.21661 0.311 0.0
C56 C 0.80631 0.22898 0.32695 0.0
C57 C 0.77523 0.21403 0.33301 0.0
C58 C 0.75424 0.18701 0.32282 0.0
H59 H 0.80008 0.18062 0.28857 0.0
O60 O 0.7651 0.09323 0.31797 0.0
O61 O 0.73405 0.11156 0.31174 0.0
O62 O 0.75603 0.09691 0.27529 0.0
O63 O 0.75193 0.13961 0.27268 0.0
C64 C 0.76422 0.22496 0.34873 0.0
C65 C 0.73291 0.20788 0.3547 0.0
H66 H 0.67211 0.16711 0.36339 0.0
H67 H 0.63929 0.11818 0.34481 0.0
H68 H 0.8393 0.22789 0.30631 0.0
H69 H 0.82346 0.24985 0.33449 0.0
H70 H 0.7797 0.24654 0.35621 0.0
H71 H 0.72461 0.21639 0.36681 0.0
Mn72 Mn 0.66181 0.72693 0.46765 0.0
Mn73 Mn 0.59782 0.73269 0.47384 0.0
C74 C 0.65974 0.75837 0.49283 0.0
C75 C 0.69111 0.7038 0.47637 0.0
C76 C 0.64389 0.76435 0.43969 0.0
O77 O 0.62855 0.68857 0.45248 0.0
O78 O 0.58703 0.69344 0.45983 0.0
C79 C 0.56269 0.68065 0.50215 0.0
N80 N 0.57615 0.71136 0.49775 0.0
C81 C 0.55812 0.72154 0.529 0.0
C82 C 0.54396 0.69 0.53383 0.0
C83 C 0.54639 0.6695 0.52039 0.0
C84 C 0.57423 0.73133 0.51068 0.0
H85 H 0.56434 0.66478 0.4918 0.0
C86 C 0.59934 0.67859 0.45209 0.0
O87 O 0.69629 0.71933 0.45965 0.0
O88 O 0.66792 0.70024 0.48719 0.0
N89 N 0.60541 0.76958 0.48764 0.0
C90 C 0.62203 0.79953 0.48132 0.0
C91 C 0.62312 0.82314 0.49349 0.0
C92 C 0.60683 0.81567 0.51187 0.0
C93 C 0.58972 0.78466 0.51798 0.0
C94 C 0.5897 0.76216 0.50532 0.0
H95 H 0.63442 0.8054 0.46714 0.0
O96 O 0.6862 0.76332 0.48604 0.0
O97 O 0.63555 0.73556 0.48451 0.0
O98 O 0.66326 0.75598 0.44495 0.0
O99 O 0.61858 0.756 0.44911 0.0
C100 C 0.57283 0.77521 0.53619 0.0
C101 C 0.55707 0.74367 0.54172 0.0
H102 H 0.53132 0.68131 0.54787 0.0
H103 H 0.53561 0.64514 0.52403 0.0
H104 H 0.6364 0.84702 0.48869 0.0
H105 H 0.60771 0.83394 0.52121 0.0
H106 H 0.57225 0.79207 0.54624 0.0
H107 H 0.54464 0.73679 0.55594 0.0
Mn108 Mn 0.93788 0.6573 0.63256 0.0
Mn109 Mn 0.86866 0.59211 0.63803 0.0
C110 C 0.9025 0.65523 0.65626 0.0
C111 C 0.98987 0.68829 0.64217 0.0
C112 C 0.88197 0.63853 0.60444 0.0
O113 O 0.94546 0.62504 0.6184 0.0
O114 O 0.898 0.58383 0.62288 0.0
C115 C 0.8896 0.55854 0.66475 0.0
N116 N 0.87017 0.56973 0.66103 0.0
C117 C 0.84216 0.54761 0.69187 0.0
C118 C 0.86176 0.53571 0.69599 0.0
C119 C 0.88566 0.54131 0.6824 0.0
C120 C 0.84729 0.56472 0.67408 0.0
H121 H 0.90794 0.56269 0.65433 0.0
C122 C 0.92577 0.59628 0.61625 0.0
O123 O 0.97985 0.69257 0.62502 0.0
O124 O 0.97025 0.66519 0.65303 0.0
N125 N 0.83762 0.59588 0.65262 0.0
C126 C 0.8217 0.61022 0.64692 0.0
C127 C 0.79676 0.60661 0.65877 0.0
C128 C 0.78841 0.58821 0.67625 0.0
C129 C 0.80554 0.57426 0.68206 0.0
C130 C 0.82979 0.57822 0.66948 0.0
H131 H 0.82778 0.62404 0.63335 0.0
O132 O 0.92414 0.68146 0.64931 0.0
O133 O 0.90221 0.63067 0.64931 0.0
O134 O 0.91048 0.65691 0.60881 0.0
O135 O 0.86469 0.61391 0.61445 0.0
C136 C 0.79948 0.55658 0.69984 0.0
C137 C 0.81793 0.54345 0.70482 0.0
H138 H 0.85878 0.52239 0.70958 0.0
H139 H 0.90095 0.53229 0.6855 0.0
H140 H 0.78373 0.61762 0.65428 0.0
H141 H 0.76861 0.5846 0.68502 0.0
H142 H 0.78091 0.55323 0.70989 0.0
H143 H 0.81333 0.53026 0.71866 0.0
Mn144 Mn 0.28132 0.93394 0.80019 0.0
Mn145 Mn 0.27747 0.8646 0.80316 0.0
C146 C 0.24831 0.89691 0.82313 0.0
C147 C 0.30227 0.98511 0.81174 0.0
C148 C 0.2466 0.88108 0.76965 0.0
O149 O 0.32144 0.94231 0.78609 0.0
O150 O 0.31672 0.89519 0.78994 0.0
C151 C 0.32912 0.88077 0.83172 0.0
N152 N 0.29862 0.86304 0.82684 0.0
C153 C 0.28845 0.83257 0.85706 0.0
C154 C 0.31976 0.85048 0.8624 0.0
C155 C 0.34015 0.87474 0.8497 0.0
C156 C 0.27877 0.83975 0.83901 0.0
H157 H 0.34492 0.89933 0.82195 0.0
C158 C 0.33153 0.92339 0.78394 0.0
O159 O 0.28855 0.97662 0.79427 0.0
O160 O 0.30525 0.96446 0.82172 0.0
N161 N 0.24072 0.83306 0.81591 0.0
C162 C 0.21094 0.81903 0.80912 0.0
C163 C 0.18748 0.79486 0.82043 0.0
C164 C 0.19492 0.78511 0.83843 0.0
C165 C 0.22577 0.7997 0.845 0.0
C166 C 0.24813 0.82379 0.83317 0.0
H167 H 0.20509 0.8263 0.79524 0.0
O168 O 0.24307 0.91859 0.81716 0.0
O169 O 0.27242 0.8974 0.81535 0.0
O170 O 0.25489 0.90855 0.77566 0.0
O171 O 0.25445 0.86351 0.77875 0.0
C172 C 0.23516 0.79144 0.86288 0.0
C173 C 0.26644 0.80801 0.869 0.0
H174 H 0.32836 0.84589 0.87624 0.0
H175 H 0.36431 0.8887 0.85376 0.0
H176 H 0.16374 0.78371 0.81525 0.0
H177 H 0.17677 0.76647 0.84711 0.0
H178 H 0.21843 0.77271 0.87225 0.0
H179 H 0.27324 0.80181 0.88301 0.0
Mn180 Mn 0.34517 0.27976 0.96599 0.0
Mn181 Mn 0.4096 0.2745 0.97189 0.0
C182 C 0.34666 0.24654 0.98986 0.0
C183 C 0.31528 0.30204 0.97535 0.0
C184 C 0.36433 0.24383 0.93723 0.0
O185 O 0.37836 0.31911 0.95181 0.0
O186 O 0.41982 0.31371 0.9581 0.0
C187 C 0.44263 0.32611 1.00089 0.0
N188 N 0.43031 0.29562 0.99613 0.0
C189 C 0.44624 0.2851 0.02809 0.0
C190 C 0.4592 0.31641 0.0333 0.0
C191 C 0.45732 0.33697 0.01966 0.0
C192 C 0.43186 0.2756 0.00918 0.0
H193 H 0.44121 0.342 0.99047 0.0
C194 C 0.40741 0.32871 0.9508 0.0
O195 O 0.31068 0.28746 0.95825 0.0
O196 O 0.3381 0.30502 0.98631 0.0
N197 N 0.40308 0.23771 0.98526 0.0
C198 C 0.3887 0.20811 0.97813 0.0
C199 C 0.38839 0.18463 0.98998 0.0
C200 C 0.40308 0.19186 0.00894 0.0
C201 C 0.41792 0.22252 0.0159 0.0
C202 C 0.41771 0.24499 0.00334 0.0
H203 H 0.37751 0.20243 0.96352 0.0
O204 O 0.32038 0.24212 0.98311 0.0
O205 O 0.37117 0.27023 0.98251 0.0
O206 O 0.34501 0.25236 0.94244 0.0
O207 O 0.38926 0.25149 0.94698 0.0
C208 C 0.43273 0.23165 0.03485 0.0
C209 C 0.44672 0.26288 0.04099 0.0
H210 H 0.47051 0.32488 0.04778 0.0
H211 H 0.46712 0.36113 0.02362 0.0
H212 H 0.37688 0.16102 0.98451 0.0
H213 H 0.40279 0.17366 0.01801 0.0
H214 H 0.43326 0.2148 0.04491 0.0
H215 H 0.4577 0.26953 0.0557 0.0
Mn216 Mn 0.65634 0.92997 0.70242 0.0
Mn217 Mn 0.58713 0.86462 0.70618 0.0
C218 C 0.64534 0.88727 0.68239 0.0
C219 C 0.68798 0.97861 0.68762 0.0
C220 C 0.63845 0.88403 0.7373 0.0
O221 O 0.6294 0.94432 0.71717 0.0
O222 O 0.58299 0.90037 0.71513 0.0
C223 C 0.55119 0.87642 0.6754 0.0
N224 N 0.56231 0.85842 0.68276 0.0
C225 C 0.53388 0.81898 0.65795 0.0
C226 C 0.52188 0.83695 0.65019 0.0
C227 C 0.53082 0.86595 0.65884 0.0
C228 C 0.5545 0.83087 0.67422 0.0
H229 H 0.55772 0.89848 0.68217 0.0
C230 C 0.60001 0.92906 0.71956 0.0
O231 O 0.69444 0.97176 0.70523 0.0
O232 O 0.6626 0.95781 0.67913 0.0
N233 N 0.58798 0.82843 0.69765 0.0
C234 C 0.60317 0.81486 0.70606 0.0
C235 C 0.59811 0.78645 0.69841 0.0
C236 C 0.57703 0.772 0.68251 0.0
C237 C 0.56161 0.78638 0.67418 0.0
C238 C 0.56809 0.81498 0.68211 0.0
H239 H 0.61897 0.82556 0.71853 0.0
O240 O 0.67374 0.90864 0.68581 0.0
O241 O 0.62428 0.89174 0.69062 0.0
O242 O 0.65906 0.90783 0.72795 0.0
O243 O 0.61064 0.86781 0.73102 0.0
C244 C 0.53974 0.77327 0.65849 0.0
C245 C 0.52595 0.78959 0.65033 0.0
H246 H 0.5059 0.82878 0.63756 0.0
H247 H 0.52179 0.88006 0.6529 0.0
H248 H 0.61014 0.77553 0.70493 0.0
H249 H 0.5729 0.7499 0.67679 0.0
H250 H 0.53317 0.75049 0.65282 0.0
H251 H 0.50905 0.77928 0.63834 0.0
Mn252 Mn 0.72522 0.65615 0.86777 0.0
Mn253 Mn 0.72863 0.5906 0.86296 0.0
C254 C 0.75868 0.65361 0.84448 0.0
C255 C 0.70423 0.68693 0.85759 0.0
C256 C 0.76202 0.63748 0.89628 0.0
O257 O 0.68532 0.62435 0.88192 0.0
O258 O 0.69125 0.58284 0.87827 0.0
C259 C 0.67376 0.55695 0.83647 0.0
N260 N 0.7044 0.568 0.84009 0.0
C261 C 0.70982 0.54551 0.80925 0.0
C262 C 0.67829 0.53375 0.80524 0.0
C263 C 0.66021 0.53961 0.81887 0.0
C264 C 0.72205 0.56274 0.82699 0.0
H265 H 0.65975 0.56131 0.84693 0.0
C266 C 0.67622 0.59573 0.88465 0.0
O267 O 0.71813 0.69136 0.87494 0.0
O268 O 0.70123 0.66385 0.84691 0.0
N269 N 0.76316 0.59375 0.84837 0.0
C270 C 0.79341 0.60767 0.85411 0.0
C271 C 0.81452 0.60371 0.84226 0.0
C272 C 0.80423 0.58536 0.82473 0.0
C273 C 0.77314 0.57172 0.81894 0.0
C274 C 0.75308 0.57603 0.83153 0.0
H275 H 0.8013 0.62138 0.86775 0.0
O276 O 0.76333 0.67999 0.8512 0.0
O277 O 0.7342 0.62918 0.85139 0.0
O278 O 0.75196 0.65586 0.89177 0.0
O279 O 0.75464 0.61273 0.88638 0.0
C280 C 0.76126 0.55395 0.8012 0.0
C281 C 0.72966 0.54104 0.79628 0.0
H282 H 0.66775 0.52034 0.79169 0.0
H283 H 0.63588 0.5307 0.81586 0.0
H284 H 0.83854 0.61441 0.84678 0.0
H285 H 0.82028 0.58155 0.81593 0.0
H286 H 0.77629 0.55033 0.79113 0.0
H287 H 0.72086 0.52775 0.78247 0.0
Mn288 Mn 0.07308 0.72571 0.03441 0.0
Mn289 Mn 0.13751 0.71986 0.0368 0.0
C290 C 0.11353 0.75285 0.01183 0.0
C291 C 0.02312 0.70902 0.02203 0.0
C292 C 0.12494 0.75936 0.06581 0.0
O293 O 0.05866 0.68632 0.05121 0.0
O294 O 0.103 0.68457 0.05109 0.0
C295 C 0.11626 0.66334 0.012 0.0
N296 N 0.137 0.69374 0.01552 0.0
C297 C 0.16954 0.695 0.98829 0.0
C298 C 0.14861 0.66368 0.98439 0.0
C299 C 0.12172 0.64785 0.99621 0.0
C300 C 0.16255 0.70936 0.00396 0.0
H301 H 0.09581 0.65098 0.02125 0.0
C302 C 0.07459 0.67364 0.05593 0.0
O303 O 0.03308 0.72517 0.03854 0.0
O304 O 0.04173 0.70169 0.01314 0.0
N305 N 0.17281 0.75231 0.02347 0.0
C306 C 0.19007 0.78272 0.02873 0.0
C307 C 0.21726 0.80207 0.01795 0.0
C308 C 0.22681 0.78976 0.00225 0.0
C309 C 0.20882 0.7583 0.99732 0.0
C310 C 0.1816 0.74033 0.00825 0.0
H311 H 0.18315 0.79215 0.04105 0.0
O312 O 0.09367 0.76177 0.01556 0.0
O313 O 0.10905 0.72814 0.0213 0.0
O314 O 0.09892 0.75337 0.05828 0.0
O315 O 0.14071 0.74762 0.05899 0.0
C316 C 0.21708 0.74394 0.9822 0.0
C317 C 0.19732 0.71243 0.97748 0.0
H318 H 0.15296 0.65156 0.97238 0.0
H319 H 0.10542 0.62368 0.99329 0.0
H320 H 0.23103 0.82631 0.02189 0.0
H321 H 0.24799 0.80465 0.99411 0.0
H322 H 0.23888 0.75689 0.97442 0.0
H323 H 0.20385 0.70172 0.9657 0.0
Mn324 Mn 0.35328 0.07287 0.20086 0.0
Mn325 Mn 0.42122 0.14016 0.19967 0.0
C326 C 0.36024 0.11185 0.17858 0.0
C327 C 0.32142 0.0224 0.18868 0.0
C328 C 0.37274 0.12499 0.2322 0.0
O329 O 0.38257 0.06152 0.21534 0.0
O330 O 0.42659 0.10754 0.21292 0.0
C331 C 0.45443 0.12065 0.17151 0.0
N332 N 0.44355 0.14007 0.17619 0.0
C333 C 0.46623 0.17021 0.14616 0.0
C334 C 0.47786 0.15068 0.14108 0.0
C335 C 0.47167 0.12562 0.15371 0.0
C336 C 0.44859 0.16369 0.16384 0.0
H337 H 0.45009 0.10159 0.1813 0.0
C338 C 0.41157 0.07914 0.21837 0.0
O339 O 0.31622 0.03101 0.20611 0.0
O340 O 0.3458 0.04253 0.17901 0.0
N341 N 0.41998 0.17408 0.18715 0.0
C342 C 0.40949 0.19238 0.19506 0.0
C343 C 0.41402 0.21857 0.18427 0.0
C344 C 0.42995 0.22615 0.16578 0.0
C345 C 0.44171 0.20779 0.15839 0.0
C346 C 0.43632 0.18183 0.1697 0.0
H347 H 0.39769 0.18702 0.20945 0.0
O348 O 0.33274 0.09053 0.18392 0.0
O349 O 0.38289 0.10963 0.18646 0.0
O350 O 0.35287 0.09821 0.22549 0.0
O351 O 0.39903 0.14217 0.22385 0.0
C352 C 0.45943 0.21482 0.14058 0.0
C353 C 0.47185 0.19617 0.13454 0.0
H354 H 0.49161 0.15471 0.12755 0.0
H355 H 0.48043 0.11036 0.14981 0.0
H356 H 0.40542 0.23303 0.19017 0.0
H357 H 0.43352 0.24647 0.15758 0.0
H358 H 0.46406 0.2348 0.13156 0.0
H359 H 0.48595 0.20223 0.12103 0.0
Mn360 Mn 0.28441 0.34896 0.3693 0.0
Mn361 Mn 0.28268 0.41565 0.36757 0.0
C362 C 0.25237 0.35485 0.34661 0.0
C363 C 0.30437 0.31829 0.35716 0.0
C364 C 0.25047 0.36734 0.40028 0.0
O365 O 0.32462 0.37952 0.38384 0.0
O366 O 0.32115 0.42282 0.38119 0.0
C367 C 0.33527 0.45027 0.33953 0.0
N368 N 0.3048 0.43845 0.34414 0.0
C369 C 0.29593 0.45836 0.31328 0.0
C370 C 0.32724 0.47087 0.30825 0.0
C371 C 0.34697 0.46672 0.32141 0.0
C372 C 0.28558 0.44216 0.33153 0.0
H373 H 0.35052 0.44711 0.34959 0.0
C374 C 0.33514 0.40844 0.3868 0.0
O375 O 0.29068 0.31274 0.37465 0.0
O376 O 0.30796 0.34245 0.34756 0.0
N377 N 0.24673 0.41189 0.3545 0.0
C378 C 0.21684 0.39703 0.36108 0.0
C379 C 0.19398 0.39819 0.34935 0.0
C380 C 0.20212 0.41479 0.33109 0.0
C381 C 0.23307 0.43013 0.32473 0.0
C382 C 0.25486 0.42823 0.33707 0.0
H383 H 0.21047 0.38425 0.37511 0.0
O384 O 0.24633 0.32744 0.35205 0.0
O385 O 0.27666 0.37776 0.35482 0.0
O386 O 0.25798 0.34782 0.39377 0.0
O387 O 0.25884 0.39333 0.39177 0.0
C388 C 0.2431 0.44695 0.30653 0.0
C389 C 0.27449 0.46096 0.30076 0.0
H390 H 0.33634 0.48351 0.29426 0.0
H391 H 0.37112 0.47614 0.31756 0.0
H392 H 0.17014 0.38627 0.35436 0.0
H393 H 0.18439 0.41548 0.32203 0.0
H394 H 0.22678 0.44885 0.29668 0.0
H395 H 0.2818 0.47338 0.28655 0.0
Mn396 Mn 0.93796 0.27933 0.53425 0.0
Mn397 Mn 0.86767 0.2733 0.53075 0.0
C398 C 0.90242 0.24704 0.51035 0.0
C399 C 0.98965 0.3022 0.52357 0.0
C400 C 0.88428 0.24166 0.56362 0.0
O401 O 0.94446 0.31814 0.54941 0.0
O402 O 0.89689 0.31203 0.54505 0.0
C403 C 0.88384 0.32632 0.50349 0.0
N404 N 0.86639 0.29553 0.50759 0.0
C405 C 0.83668 0.28664 0.47712 0.0
C406 C 0.85426 0.31827 0.47262 0.0
C407 C 0.87803 0.33817 0.48582 0.0
C408 C 0.84365 0.27614 0.4949 0.0
H409 H 0.90203 0.34172 0.51364 0.0
C410 C 0.92479 0.32728 0.55159 0.0
O411 O 0.98082 0.28754 0.54071 0.0
O412 O 0.96902 0.30512 0.51351 0.0
N413 N 0.83735 0.237 0.51689 0.0
C414 C 0.82412 0.2068 0.52264 0.0
C415 C 0.80094 0.18374 0.51049 0.0
C416 C 0.79112 0.19199 0.49286 0.0
C417 C 0.80487 0.22323 0.48736 0.0
C418 C 0.8282 0.24516 0.49986 0.0
H419 H 0.83139 0.20035 0.53628 0.0
O420 O 0.92448 0.24235 0.51631 0.0
O421 O 0.90171 0.27022 0.51868 0.0
O422 O 0.91204 0.2509 0.55784 0.0
O423 O 0.8663 0.24919 0.55472 0.0
C424 C 0.79661 0.23342 0.46983 0.0
C425 C 0.81269 0.26507 0.46461 0.0
H426 H 0.84981 0.32751 0.45902 0.0
H427 H 0.89175 0.3626 0.48241 0.0
H428 H 0.79066 0.15964 0.51466 0.0
H429 H 0.77322 0.17413 0.48355 0.0
H430 H 0.77837 0.21702 0.46 0.0
H431 H 0.80661 0.2725 0.45082 0.0
H432 H 0.03124 0.61818 0.04068 0.0
H433 H 0.02065 0.56742 0.0528 0.0
H434 H 0.07607 0.61057 0.10591 0.0
H435 H 0.08774 0.66131 0.09322 0.0
H436 H 0.09662 0.57933 0.08904 0.0
H437 H 0.99514 0.55606 0.10749 0.0
H438 H 0.94387 0.55128 0.10306 0.0
H439 H 0.92261 0.48489 0.05554 0.0
H440 H 0.97394 0.48959 0.05949 0.0
H441 H 0.0324 0.41525 0.13021 0.0
H442 H 0.01993 0.45536 0.12077 0.0
H443 H 0.08346 0.48181 0.07059 0.0
H444 H 0.09687 0.44283 0.08056 0.0
H445 H 1.00032 0.477 0.08952 0.0
H446 H 0.12921 0.55738 0.06975 0.0
H447 H 0.18016 0.56318 0.0777 0.0
H448 H 0.14559 0.51819 0.13482 0.0
H449 H 0.09442 0.51213 0.12727 0.0
C450 C 0.03998 0.61653 0.05535 0.0
C451 C 0.05989 0.64346 0.06621 0.0
C452 C 0.03403 0.58751 0.06227 0.0
C453 C 0.04758 0.58498 0.08031 0.0
C454 C 0.06545 0.6118 0.09191 0.0
C455 C 0.07185 0.64077 0.0848 0.0
C456 C 0.04698 0.5556 0.08561 0.0
C457 C 0.07542 0.55707 0.08925 0.0
C458 C 0.01945 0.52637 0.08608 0.0
C459 C 0.98851 0.52338 0.08368 0.0
C460 C 0.97963 0.54062 0.09599 0.0
C461 C 0.95054 0.53789 0.09358 0.0
C462 C 0.93002 0.51785 0.079 0.0
C463 C 0.93853 0.50043 0.06682 0.0
C464 C 0.96761 0.50309 0.06915 0.0
C465 C 0.04269 0.42883 0.11669 0.0
C466 C 0.06552 0.426 0.10605 0.0
C467 C 0.03569 0.45186 0.11137 0.0
C468 C 0.05133 0.47213 0.09526 0.0
C469 C 0.07158 0.4669 0.08333 0.0
C470 C 0.07902 0.44443 0.08889 0.0
C471 C 0.04992 0.50103 0.09255 0.0
C472 C 0.02131 0.49942 0.08939 0.0
C473 C 0.07721 0.53041 0.09304 0.0
C474 C 0.10794 0.53411 0.09785 0.0
C475 C 0.1325 0.54878 0.08403 0.0
C476 C 0.16138 0.55203 0.08845 0.0
C477 C 0.16603 0.54088 0.10672 0.0
C478 C 0.14184 0.52655 0.12063 0.0
C479 C 0.11289 0.52318 0.11628 0.0
H480 H 0.1884 0.54343 0.11012 0.0
H481 H 0.90751 0.51577 0.07715 0.0
H482 H 0.6596 0.10276 0.24873 0.0
H483 H 0.60699 0.08705 0.23786 0.0
H484 H 0.57116 0.00792 0.27746 0.0
H485 H 0.62423 0.02344 0.28818 0.0
H486 H 0.55561 0.03516 0.22111 0.0
H487 H 0.5136 0.00785 0.30236 0.0
H488 H 0.53375 0.02097 0.3373 0.0
H489 H 0.60449 0.1108 0.31739 0.0
H490 H 0.58508 0.09795 0.28248 0.0
H491 H 0.40527 0.02139 0.21399 0.0
H492 H 0.44262 0.00569 0.22489 0.0
H493 H 0.49713 0.09395 0.25441 0.0
H494 H 0.46035 0.1096 0.24358 0.0
H495 H 0.49611 0.04804 0.27669 0.0
H496 H 0.51399 0.08388 0.207 0.0
H497 H 0.49898 0.08189 0.17127 0.0
H498 H 0.48285 0.98917 0.16629 0.0
H499 H 0.4975 0.99055 0.20213 0.0
C500 C 0.64058 0.08146 0.25463 0.0
C501 C 0.64597 0.06426 0.26925 0.0
C502 C 0.61051 0.07246 0.24838 0.0
C503 C 0.58509 0.0464 0.25689 0.0
C504 C 0.59046 0.0281 0.27067 0.0
C505 C 0.62074 0.03685 0.27669 0.0
C506 C 0.55341 0.04121 0.25321 0.0
C507 C 0.54216 0.03713 0.23332 0.0
C508 C 0.5361 0.04443 0.26901 0.0
C509 C 0.54814 0.05184 0.28989 0.0
C510 C 0.53356 0.0303 0.30551 0.0
C511 C 0.54491 0.03766 0.32529 0.0
C512 C 0.57058 0.06661 0.32958 0.0
C513 C 0.58491 0.08824 0.3141 0.0
C514 C 0.57382 0.0809 0.29431 0.0
C515 C 0.42481 0.03702 0.22326 0.0
C516 C 0.42999 0.06675 0.22788 0.0
C517 C 0.44622 0.02813 0.22936 0.0
C518 C 0.47283 0.04874 0.24035 0.0
C519 C 0.4768 0.07761 0.24601 0.0
C520 C 0.45579 0.08658 0.23974 0.0
C521 C 0.49824 0.04211 0.24456 0.0
C522 C 0.50855 0.04431 0.26457 0.0
C523 C 0.51505 0.03797 0.22877 0.0
C524 C 0.50642 0.03716 0.20726 0.0
C525 C 0.50701 0.063 0.19831 0.0
C526 C 0.4986 0.06199 0.17805 0.0
C527 C 0.48982 0.03537 0.16653 0.0
C528 C 0.48956 0.00974 0.17525 0.0
C529 C 0.49792 0.01062 0.19553 0.0
H530 H 0.48332 0.03465 0.15083 0.0
H531 H 0.57924 0.07232 0.34491 0.0
H532 H 0.53636 0.64885 0.45276 0.0
H533 H 0.49979 0.59694 0.44157 0.0
H534 H 0.57462 0.58442 0.42078 0.0
H535 H 0.6123 0.63715 0.43234 0.0
H536 H 0.51704 0.56348 0.39309 0.0
H537 H 0.547 0.54842 0.45905 0.0
H538 H 0.55996 0.56114 0.49507 0.0
H539 H 0.46854 0.5455 0.50652 0.0
H540 H 0.45517 0.53317 0.47049 0.0
H541 H 0.38929 0.40853 0.37941 0.0
H542 H 0.44144 0.44788 0.39077 0.0
H543 H 0.40153 0.49113 0.42683 0.0
H544 H 0.34989 0.45254 0.41527 0.0
H545 H 0.4508 0.48996 0.44632 0.0
H546 H 0.42537 0.51815 0.38199 0.0
H547 H 0.40993 0.50934 0.3461 0.0
H548 H 0.49049 0.50294 0.33177 0.0
H549 H 0.50619 0.51136 0.3677 0.0
C550 C 0.54543 0.63544 0.4457 0.0
C551 C 0.57756 0.64743 0.44356 0.0
C552 C 0.52429 0.60558 0.43933 0.0
C553 C 0.53446 0.58675 0.4305 0.0
C554 C 0.56635 0.59866 0.42761 0.0
C555 C 0.58781 0.62874 0.43424 0.0
C556 C 0.51103 0.55445 0.42508 0.0
C557 C 0.5032 0.5469 0.40467 0.0
C558 C 0.49246 0.53322 0.44024 0.0
C559 C 0.50013 0.53996 0.46203 0.0
C560 C 0.52971 0.54785 0.46922 0.0
C561 C 0.53712 0.55498 0.48965 0.0
C562 C 0.5151 0.55416 0.50307 0.0
C563 C 0.48557 0.54611 0.49611 0.0
C564 C 0.47804 0.53899 0.47569 0.0
C565 C 0.39172 0.42598 0.39019 0.0
C566 C 0.36564 0.42753 0.39652 0.0
C567 C 0.42146 0.44852 0.39655 0.0
C568 C 0.42537 0.47253 0.40957 0.0
C569 C 0.3991 0.4728 0.41685 0.0
C570 C 0.36961 0.45077 0.41022 0.0
C571 C 0.45653 0.49913 0.41433 0.0
C572 C 0.46548 0.50583 0.43467 0.0
C573 C 0.4759 0.5197 0.39912 0.0
C574 C 0.46671 0.51492 0.37753 0.0
C575 C 0.43964 0.51459 0.37121 0.0
C576 C 0.43086 0.5097 0.35086 0.0
C577 C 0.44913 0.50542 0.33667 0.0
C578 C 0.4763 0.50616 0.34279 0.0
C579 C 0.48516 0.51099 0.36314 0.0
H580 H 0.44229 0.50164 0.32091 0.0
H581 H 0.52089 0.55972 0.51888 0.0
H582 H 0.9846 0.60469 0.61058 0.0
H583 H 0.99737 0.56465 0.60079 0.0
H584 H 0.90037 0.4993 0.59237 0.0
H585 H 0.88754 0.53857 0.60165 0.0
H586 H 0.93241 0.48032 0.62006 0.0
H587 H 0.9426 0.52573 0.55285 0.0
H588 H 0.96695 0.56853 0.52829 0.0
H589 H 0.05512 0.57542 0.53864 0.0
H590 H 0.03132 0.53289 0.56349 0.0
H591 H 0.8866 0.34641 0.56675 0.0
H592 H 0.89981 0.39705 0.57949 0.0
H593 H 0.99687 0.42852 0.57146 0.0
H594 H 0.98363 0.37718 0.55812 0.0
H595 H 0.98119 0.47105 0.55706 0.0
H596 H 0.96882 0.41835 0.61884 0.0
H597 H 0.94478 0.37539 0.64328 0.0
H598 H 0.86285 0.38303 0.64452 0.0
H599 H 0.88617 0.42572 0.61986 0.0
C600 C 0.96612 0.58198 0.60619 0.0
C601 C 0.93501 0.57482 0.60714 0.0
C602 C 0.97344 0.55912 0.6007 0.0
C603 C 0.94974 0.5289 0.59613 0.0
C604 C 0.91898 0.52234 0.59607 0.0
C605 C 0.91172 0.54496 0.60137 0.0
C606 C 0.95587 0.50303 0.5926 0.0
C607 C 0.94322 0.47832 0.60635 0.0
C608 C 0.9711 0.50097 0.57513 0.0
C609 C 0.98529 0.52647 0.56022 0.0
C610 C 0.96724 0.5366 0.55005 0.0
C611 C 0.98092 0.56075 0.53604 0.0
C612 C 0.01259 0.57477 0.53197 0.0
C613 C 0.03062 0.56459 0.54185 0.0
C614 C 0.01704 0.54047 0.55589 0.0
C615 C 0.91086 0.36386 0.56779 0.0
C616 C 0.93405 0.35756 0.56139 0.0
C617 C 0.9184 0.39291 0.57522 0.0
C618 C 0.94936 0.4166 0.5767 0.0
C619 C 0.97281 0.41054 0.57055 0.0
C620 C 0.96522 0.38114 0.56308 0.0
C621 C 0.95625 0.44764 0.58407 0.0
C622 C 0.97129 0.47333 0.57112 0.0
C623 C 0.9434 0.45077 0.60242 0.0
C624 C 0.92928 0.42525 0.61744 0.0
C625 C 0.94561 0.41078 0.62424 0.0
C626 C 0.93211 0.38647 0.63815 0.0
C627 C 0.9023 0.37648 0.64545 0.0
C628 C 0.88595 0.39082 0.63888 0.0
C629 C 0.89934 0.41512 0.62496 0.0
H630 H 0.89188 0.35765 0.6562 0.0
H631 H 0.02314 0.59345 0.52111 0.0
H632 H 0.56224 0.94225 0.69795 0.0
H633 H 0.52447 0.95508 0.71113 0.0
H634 H 0.56179 0.96336 0.7712 0.0
H635 H 0.59914 0.94924 0.75789 0.0
H636 H 0.50307 0.92754 0.77272 0.0
H637 H 0.56507 0.02709 0.74535 0.0
H638 H 0.59736 0.06681 0.7203 0.0
H639 H 0.51965 0.0336 0.68004 0.0
H640 H 0.48697 0.99336 0.70471 0.0
H641 H 0.38262 0.98222 0.78402 0.0
H642 H 0.43596 0.99647 0.77478 0.0
H643 H 0.40371 0.90285 0.75503 0.0
H644 H 0.35104 0.8885 0.76436 0.0
H645 H 0.46727 0.99372 0.74024 0.0
H646 H 0.44851 0.87792 0.77383 0.0
H647 H 0.41701 0.8412 0.80062 0.0
H648 H 0.41338 0.91419 0.83266 0.0
H649 H 0.44516 0.95138 0.80624 0.0
C650 C 0.56287 0.94753 0.71388 0.0
C651 C 0.58359 0.94485 0.7269 0.0
C652 C 0.54139 0.95515 0.72142 0.0
C653 C 0.54025 0.96049 0.7422 0.0
C654 C 0.56219 0.95946 0.75511 0.0
C655 C 0.58372 0.95171 0.74751 0.0
C656 C 0.51377 0.96307 0.75047 0.0
C657 C 0.49562 0.94239 0.76577 0.0
C658 C 0.50409 0.98285 0.7418 0.0
C659 C 0.52358 0.00709 0.72689 0.0
C660 C 0.55489 0.02811 0.73111 0.0
C661 C 0.57327 0.05075 0.71698 0.0
C662 C 0.56057 0.05271 0.69859 0.0
C663 C 0.52945 0.03206 0.6943 0.0
C664 C 0.51097 0.00937 0.70838 0.0
C665 C 0.3869 0.9649 0.77731 0.0
C666 C 0.36266 0.93413 0.77516 0.0
C667 C 0.41737 0.97305 0.77209 0.0
C668 C 0.42391 0.95054 0.76464 0.0
C669 C 0.39935 0.92045 0.76116 0.0
C670 C 0.36919 0.9123 0.76647 0.0
C671 C 0.45627 0.95725 0.76165 0.0
C672 C 0.47531 0.97949 0.74741 0.0
C673 C 0.46724 0.9395 0.77162 0.0
C674 C 0.44911 0.91741 0.78798 0.0
C675 C 0.44122 0.88619 0.78668 0.0
C676 C 0.42323 0.86526 0.80178 0.0
C677 C 0.4131 0.87532 0.81831 0.0
C678 C 0.42111 0.90637 0.81983 0.0
C679 C 0.43911 0.92738 0.80479 0.0
H680 H 0.39908 0.85907 0.82994 0.0
H681 H 0.57484 0.07024 0.68767 0.0
H682 H 0.46539 0.34816 0.9368 0.0
H683 H 0.50444 0.40007 0.92684 0.0
H684 H 0.43867 0.43136 0.93405 0.0
H685 H 0.39881 0.37875 0.94433 0.0
H686 H 0.48387 0.45556 0.89742 0.0
H687 H 0.48128 0.44859 0.97014 0.0
H688 H 0.47804 0.42209 0.00229 0.0
H689 H 0.56258 0.42326 0.98817 0.0
H690 H 0.566 0.44916 0.95573 0.0
H691 H 0.62506 0.60306 0.88849 0.0
H692 H 0.5738 0.56479 0.90169 0.0
H693 H 0.60869 0.50367 0.91639 0.0
H694 H 0.65936 0.54143 0.90362 0.0
H695 H 0.57189 0.50245 0.94563 0.0
H696 H 0.56936 0.49656 0.87227 0.0
H697 H 0.57354 0.51767 0.83795 0.0
H698 H 0.50068 0.53695 0.85147 0.0
H699 H 0.49641 0.51633 0.886 0.0
C700 C 0.45888 0.36584 0.93609 0.0
C701 C 0.42898 0.3593 0.94167 0.0
C702 C 0.48132 0.39555 0.93031 0.0
C703 C 0.47458 0.41962 0.92996 0.0
C704 C 0.4443 0.41303 0.93427 0.0
C705 C 0.42158 0.383 0.94012 0.0
C706 C 0.50037 0.45171 0.92673 0.0
C707 C 0.50276 0.46639 0.90818 0.0
C708 C 0.52526 0.46542 0.94062 0.0
C709 C 0.52384 0.45077 0.96046 0.0
C710 C 0.49911 0.44308 0.97384 0.0
C711 C 0.49723 0.42814 0.99212 0.0
C712 C 0.52009 0.42101 0.99727 0.0
C713 C 0.54491 0.42884 0.98417 0.0
C714 C 0.54685 0.44368 0.96585 0.0
C715 C 0.62186 0.58169 0.8949 0.0
C716 C 0.64627 0.57523 0.89487 0.0
C717 C 0.59252 0.55976 0.90231 0.0
C718 C 0.58726 0.53116 0.90988 0.0
C719 C 0.61206 0.52549 0.91068 0.0
C720 C 0.64108 0.54713 0.90324 0.0
C721 C 0.55592 0.50604 0.91604 0.0
C722 C 0.55257 0.49245 0.93515 0.0
C723 C 0.53043 0.49314 0.90252 0.0
C724 C 0.53285 0.50532 0.88177 0.0
C725 C 0.55441 0.50553 0.86797 0.0
C726 C 0.55677 0.51737 0.84848 0.0
C727 C 0.53746 0.52874 0.84256 0.0
C728 C 0.51568 0.52821 0.8561 0.0
C729 C 0.51328 0.51646 0.87563 0.0
H730 H 0.53931 0.53789 0.82746 0.0
H731 H 0.51861 0.40945 0.01141 0.0
H732 H 0.10544 0.3244 0.08024 0.0
H733 H 0.13054 0.31016 0.05374 0.0
H734 H 0.21687 0.39407 0.06533 0.0
H735 H 0.19198 0.40891 0.09085 0.0
H736 H 0.21235 0.38645 0.0275 0.0
H737 H 0.19774 0.31879 0.08366 0.0
H738 H 0.16786 0.27899 0.1093 0.0
H739 H 0.11576 0.21404 0.06237 0.0
H740 H 0.1451 0.25362 0.03644 0.0
H741 H 0.32784 0.34715 0.00308 0.0
H742 H 0.29103 0.35849 0.02004 0.0
H743 H 0.21679 0.28891 0.98399 0.0
H744 H 0.2538 0.27799 0.96649 0.0
H745 H 0.20853 0.28528 0.02933 0.0
H746 H 0.23225 0.35497 0.97333 0.0
H747 H 0.26707 0.39616 0.94987 0.0
H748 H 0.30759 0.45917 0.99967 0.0
H749 H 0.27332 0.41822 0.02348 0.0
C750 C 0.1297 0.33988 0.07701 0.0
C751 C 0.14656 0.3678 0.0878 0.0
C752 C 0.14413 0.33164 0.06192 0.0
C753 C 0.17584 0.35084 0.05758 0.0
C754 C 0.19242 0.37883 0.06818 0.0
C755 C 0.17803 0.38725 0.08294 0.0
C756 C 0.19238 0.34211 0.04237 0.0
C757 C 0.21149 0.36431 0.02802 0.0
C758 C 0.19102 0.31303 0.04259 0.0
C759 C 0.17331 0.28927 0.05814 0.0
C760 C 0.17973 0.29609 0.07882 0.0
C761 C 0.16293 0.27357 0.0934 0.0
C762 C 0.13985 0.24404 0.08747 0.0
C763 C 0.13359 0.23695 0.06694 0.0
C764 C 0.15029 0.25941 0.0523 0.0
C765 C 0.30379 0.33468 0.99847 0.0
C766 C 0.29374 0.31181 0.98336 0.0
C767 C 0.28277 0.34113 0.00821 0.0
C768 C 0.25117 0.32448 0.00332 0.0
C769 C 0.24108 0.30201 0.98798 0.0
C770 C 0.26227 0.296 0.97788 0.0
C771 C 0.22883 0.32989 0.015 0.0
C772 C 0.20879 0.30712 0.02866 0.0
C773 C 0.22987 0.35869 0.0145 0.0
C774 C 0.25035 0.38344 1.0002 0.0
C775 C 0.24875 0.37754 0.9793 0.0
C776 C 0.26836 0.40086 0.96593 0.0
C777 C 0.28957 0.43025 0.97328 0.0
C778 C 0.29116 0.43639 0.994 0.0
C779 C 0.27162 0.41315 0.00744 0.0
H780 H 0.30473 0.44827 0.9629 0.0
H781 H 0.12688 0.22662 0.09878 0.0
H782 H 0.8156 0.11962 0.26346 0.0
H783 H 0.85938 0.15051 0.24089 0.0
H784 H 0.80557 0.1839 0.2101 0.0
H785 H 0.76256 0.15446 0.23336 0.0
H786 H 0.87516 0.15773 0.20336 0.0
H787 H 0.84862 0.25757 0.19642 0.0
H788 H 0.82181 0.27993 0.21534 0.0
H789 H 0.83706 0.24523 0.27092 0.0
H790 H 0.86413 0.22282 0.2524 0.0
H791 H 0.98443 0.26956 0.13443 0.0
H792 H 0.93646 0.23203 0.15143 0.0
H793 H 0.96512 0.2889 0.20513 0.0
H794 H 0.01233 0.32672 0.18807 0.0
H795 H 0.90774 0.26921 0.19978 0.0
H796 H 0.96976 0.22071 0.19995 0.0
H797 H 1.00099 0.19999 0.18503 0.0
H798 H 0.92279 0.13514 0.14992 0.0
H799 H 0.8912 0.15576 0.16445 0.0
C800 C 0.81292 0.13302 0.25158 0.0
C801 C 0.78574 0.13478 0.25024 0.0
C802 C 0.83801 0.15079 0.23869 0.0
C803 C 0.83623 0.17032 0.22408 0.0
C804 C 0.80802 0.16987 0.22163 0.0
C805 C 0.78328 0.15277 0.2348 0.0
C806 C 0.86436 0.19271 0.21248 0.0
C807 C 0.88217 0.18208 0.20251 0.0
C808 C 0.87413 0.22472 0.21162 0.0
C809 C 0.85811 0.23826 0.22298 0.0
C810 C 0.8463 0.25477 0.21269 0.0
C811 C 0.83103 0.2674 0.22335 0.0
C812 C 0.82761 0.26385 0.24432 0.0
C813 C 0.83956 0.24776 0.25468 0.0
C814 C 0.85485 0.23507 0.24411 0.0
C815 C 0.98038 0.2741 0.14982 0.0
C816 C 1.00223 0.30117 0.15987 0.0
C817 C 0.95302 0.25251 0.1596 0.0
C818 C 0.94718 0.25731 0.17973 0.0
C819 C 0.96889 0.28456 0.18962 0.0
C820 C 0.99599 0.30622 0.17982 0.0
C821 C 0.91856 0.23429 0.19061 0.0
C822 C 0.90062 0.24483 0.20045 0.0
C823 C 0.90931 0.20245 0.19187 0.0
C824 C 0.92822 0.19 0.18312 0.0
C825 C 0.9593 0.20219 0.18893 0.0
C826 C 0.97705 0.19044 0.18057 0.0
C827 C 0.96391 0.16633 0.16649 0.0
C828 C 0.93296 0.15386 0.1608 0.0
C829 C 0.91511 0.16555 0.1691 0.0
H830 H 0.97769 0.15726 0.16004 0.0
H831 H 0.81577 0.27364 0.25254 0.0
H832 H 0.70119 0.80584 0.42429 0.0
H833 H 0.71328 0.84737 0.39983 0.0
H834 H 0.61592 0.81503 0.39268 0.0
H835 H 0.60369 0.77375 0.41702 0.0
H836 H 0.64717 0.83401 0.3563 0.0
H837 H 0.65594 0.87139 0.42457 0.0
H838 H 0.67591 0.88099 0.45952 0.0
H839 H 0.76856 0.9376 0.43733 0.0
H840 H 0.74916 0.92786 0.40219 0.0
H841 H 0.67893 1.00374 0.34975 0.0
H842 H 0.6684 0.95726 0.36841 0.0
H843 H 0.70902 0.93121 0.32016 0.0
H844 H 0.71941 0.97768 0.30126 0.0
H845 H 0.70752 0.9408 0.38346 0.0
H846 H 0.67314 0.85134 0.31894 0.0
H847 H 0.64869 0.84056 0.28521 0.0
H848 H 0.59977 0.88768 0.30181 0.0
H849 H 0.62361 0.89837 0.3357 0.0
C850 C 0.68235 0.8072 0.41719 0.0
C851 C 0.65148 0.78657 0.42274 0.0
C852 C 0.68929 0.83102 0.40328 0.0
C853 C 0.6655 0.83448 0.39454 0.0
C854 C 0.63466 0.81285 0.39919 0.0
C855 C 0.62773 0.78932 0.41321 0.0
C856 C 0.67252 0.86191 0.38189 0.0
C857 C 0.66064 0.85739 0.36214 0.0
C858 C 0.68948 0.89239 0.38965 0.0
C859 C 0.70115 0.89861 0.41076 0.0
C860 C 0.6806 0.88569 0.42714 0.0
C861 C 0.6918 0.89117 0.44698 0.0
C862 C 0.72349 0.90983 0.45064 0.0
C863 C 0.74402 0.92311 0.43446 0.0
C864 C 0.73294 0.91761 0.41458 0.0
C865 C 0.68534 0.98798 0.34297 0.0
C866 C 0.69996 0.99444 0.32396 0.0
C867 C 0.67947 0.96147 0.35373 0.0
C868 C 0.68788 0.94064 0.34574 0.0
C869 C 0.70203 0.94673 0.32659 0.0
C870 C 0.70796 0.97333 0.3158 0.0
C871 C 0.68238 0.91302 0.35772 0.0
C872 C 0.69448 0.9175 0.37742 0.0
C873 C 0.66514 0.88249 0.35002 0.0
C874 C 0.65045 0.87596 0.32976 0.0
C875 C 0.65711 0.85932 0.3154 0.0
C876 C 0.64336 0.85323 0.29625 0.0
C877 C 0.62278 0.86353 0.29135 0.0
C878 C 0.61582 0.87983 0.3056 0.0
C879 C 0.62948 0.88595 0.32476 0.0
H880 H 0.61218 0.85881 0.27652 0.0
H881 H 0.73213 0.91406 0.46601 0.0
H882 H 0.67982 0.66198 0.50617 0.0
H883 H 0.71746 0.65333 0.52418 0.0
H884 H 0.7895 0.7164 0.48392 0.0
H885 H 0.75152 0.72462 0.46541 0.0
H886 H 0.79901 0.6692 0.49471 0.0
H887 H 0.78077 0.74182 0.52871 0.0
H888 H 0.74996 0.76303 0.5435 0.0
H889 H 0.71174 0.68955 0.58716 0.0
H890 H 0.74176 0.6674 0.5723 0.0
H891 H 0.90877 0.68513 0.57568 0.0
H892 H 0.88184 0.69915 0.55022 0.0
H893 H 0.79412 0.62491 0.57106 0.0
H894 H 0.8203 0.61028 0.59585 0.0
H895 H 0.80064 0.68712 0.56868 0.0
H896 H 0.81717 0.61289 0.53019 0.0
H897 H 0.85025 0.59478 0.51472 0.0
H898 H 0.89678 0.67819 0.47964 0.0
H899 H 0.86423 0.69699 0.49515 0.0
C900 C 0.70354 0.67354 0.50085 0.0
C901 C 0.71273 0.69418 0.48446 0.0
C902 C 0.72511 0.66871 0.51125 0.0
C903 C 0.75652 0.68485 0.50577 0.0
C904 C 0.76546 0.70387 0.48854 0.0
C905 C 0.7437 0.70848 0.47794 0.0
C906 C 0.7799 0.68325 0.51899 0.0
C907 C 0.79972 0.67363 0.51082 0.0
C908 C 0.78121 0.68938 0.54003 0.0
C909 C 0.76338 0.70281 0.54928 0.0
C910 C 0.76564 0.73004 0.54138 0.0
C911 C 0.74832 0.74225 0.54979 0.0
C912 C 0.72891 0.72767 0.56627 0.0
C913 C 0.72679 0.70083 0.57439 0.0
C914 C 0.74396 0.68842 0.56597 0.0
C915 C 0.88378 0.67162 0.57469 0.0
C916 C 0.86684 0.64661 0.58795 0.0
C917 C 0.86845 0.67967 0.56015 0.0
C918 C 0.83596 0.66312 0.55885 0.0
C919 C 0.81917 0.63806 0.57186 0.0
C920 C 0.83434 0.62971 0.58604 0.0
C921 C 0.81879 0.67198 0.5445 0.0
C922 C 0.8002 0.68314 0.55251 0.0
C923 C 0.81913 0.66789 0.52335 0.0
C924 C 0.83857 0.65652 0.51402 0.0
C925 C 0.83468 0.62751 0.51934 0.0
C926 C 0.85327 0.61709 0.51053 0.0
C927 C 0.87569 0.63537 0.49626 0.0
C928 C 0.87947 0.66408 0.49073 0.0
C929 C 0.86095 0.67462 0.49952 0.0
H930 H 0.89005 0.62726 0.48945 0.0
H931 H 0.71554 0.73718 0.57277 0.0
H932 H 0.02594 0.75016 0.63388 0.0
H933 H 0.0721 0.78799 0.65235 0.0
H934 H 0.06985 0.71413 0.68761 0.0
H935 H 0.02295 0.67669 0.66992 0.0
H936 H 0.07727 0.75594 0.71193 0.0
H937 H 0.12683 0.75843 0.64903 0.0
H938 H 0.13574 0.76457 0.6122 0.0
H939 H 0.15355 0.85797 0.61596 0.0
H940 H 0.14436 0.85226 0.65279 0.0
H941 H 0.22563 0.82399 0.75294 0.0
H942 H 0.18516 0.79775 0.72789 0.0
H943 H 0.17698 0.8792 0.72127 0.0
H944 H 0.21769 0.90606 0.74691 0.0
H945 H 0.17468 0.83976 0.68232 0.0
H946 H 0.12692 0.83506 0.74726 0.0
H947 H 0.12266 0.82704 0.78419 0.0
H948 H 0.10491 0.73421 0.77595 0.0
H949 H 0.10961 0.74188 0.73896 0.0
C950 C 0.03573 0.742 0.64529 0.0
C951 C 0.02086 0.71045 0.65043 0.0
C952 C 0.06218 0.76367 0.65587 0.0
C953 C 0.07476 0.75411 0.67146 0.0
C954 C 0.06062 0.72233 0.67584 0.0
C955 C 0.03389 0.70084 0.6656 0.0
C956 C 0.10131 0.77697 0.68412 0.0
C957 C 0.09854 0.77407 0.7053 0.0
C958 C 0.12906 0.80132 0.67575 0.0
C959 C 0.13455 0.80479 0.65362 0.0
C960 C 0.13239 0.78019 0.64197 0.0
C961 C 0.13754 0.78361 0.6211 0.0
C962 C 0.14511 0.81161 0.61174 0.0
C963 C 0.14763 0.83628 0.62323 0.0
C964 C 0.14247 0.83297 0.6441 0.0
C965 C 0.21571 0.83676 0.74608 0.0
C966 C 0.2249 0.86723 0.75222 0.0
C967 C 0.19254 0.82159 0.73165 0.0
C968 C 0.178 0.83644 0.72279 0.0
C969 C 0.18805 0.86739 0.72792 0.0
C970 C 0.21126 0.88266 0.74261 0.0
C971 C 0.15042 0.81813 0.70979 0.0
C972 C 0.15307 0.82183 0.68872 0.0
C973 C 0.12269 0.79414 0.71816 0.0
C974 C 0.11882 0.78913 0.74035 0.0
C975 C 0.12229 0.813 0.75333 0.0
C976 C 0.11979 0.80851 0.77427 0.0
C977 C 0.11356 0.78015 0.78241 0.0
C978 C 0.10973 0.75617 0.76962 0.0
C979 C 0.11227 0.76057 0.74866 0.0
H980 H 0.11165 0.77673 0.79863 0.0
H981 H 0.14909 0.81422 0.59558 0.0
H982 H 0.2959 0.033 0.79635 0.0
H983 H 0.3054 0.08024 0.81416 0.0
H984 H 0.33711 0.05241 0.86644 0.0
H985 H 0.32789 0.00563 0.84889 0.0
H986 H 0.29513 0.06931 0.87689 0.0
H987 H 0.38785 0.10948 0.83674 0.0
H988 H 0.41788 0.12043 0.80517 0.0
H989 H 0.37745 0.17309 0.78304 0.0
H990 H 0.34684 0.16207 0.8144 0.0
H991 H 0.40432 0.23155 0.91656 0.0
H992 H 0.39202 0.19127 0.89145 0.0
H993 H 0.29595 0.16643 0.89325 0.0
H994 H 0.30807 0.20683 0.91866 0.0
H995 H 0.36665 0.17657 0.85384 0.0
H996 H 0.25333 0.08626 0.89161 0.0
H997 H 0.22758 0.07561 0.92491 0.0
H998 H 0.31609 0.12311 0.9544 0.0
H999 H 0.34231 0.13356 0.92132 0.0
C1000 C 0.30531 0.0372 0.81153 0.0
C1001 C 0.31112 0.01549 0.82116 0.0
C1002 C 0.31066 0.06417 0.82171 0.0
C1003 C 0.3218 0.06982 0.84171 0.0
C1004 C 0.32827 0.04849 0.85111 0.0
C1005 C 0.32315 0.02178 0.84095 0.0
C1006 C 0.3262 0.09742 0.85324 0.0
C1007 C 0.31053 0.09275 0.87171 0.0
C1008 C 0.34648 0.12806 0.84666 0.0
C1009 C 0.36477 0.13462 0.82779 0.0
C1010 C 0.38514 0.12314 0.82506 0.0
C1011 C 0.40231 0.12941 0.80722 0.0
C1012 C 0.39949 0.14735 0.79208 0.0
C1013 C 0.37955 0.15913 0.79476 0.0
C1014 C 0.3623 0.15289 0.81256 0.0
C1015 C 0.38058 0.21786 0.91146 0.0
C1016 C 0.35713 0.22232 0.91982 0.0
C1017 C 0.37363 0.1949 0.89697 0.0
C1018 C 0.34303 0.17558 0.89056 0.0
C1019 C 0.31972 0.1809 0.89808 0.0
C1020 C 0.3267 0.2041 0.91255 0.0
C1021 C 0.33555 0.1484 0.87745 0.0
C1022 C 0.35069 0.15312 0.85875 0.0
C1023 C 0.3152 0.11773 0.88398 0.0
C1024 C 0.29972 0.11101 0.90398 0.0
C1025 C 0.26726 0.09431 0.90522 0.0
C1026 C 0.2526 0.08831 0.92405 0.0
C1027 C 0.27019 0.09877 0.94175 0.0
C1028 C 0.30249 0.11511 0.94067 0.0
C1029 C 0.31725 0.12108 0.92189 0.0
H1030 H 0.25879 0.09416 0.95631 0.0
H1031 H 0.41283 0.1522 0.77828 0.0
H1032 H 0.7073 0.73842 0.87545 0.0
H1033 H 0.69467 0.77547 0.85988 0.0
H1034 H 0.66925 0.72221 0.80466 0.0
H1035 H 0.68067 0.68497 0.82019 0.0
H1036 H 0.7178 0.81332 0.8291 0.0
H1037 H 0.61439 0.72595 0.77935 0.0
H1038 H 0.57128 0.67208 0.78124 0.0
H1039 H 0.57455 0.67652 0.84613 0.0
H1040 H 0.61737 0.73055 0.84464 0.0
H1041 H 0.69382 0.88685 0.74437 0.0
H1042 H 0.70444 0.85748 0.76953 0.0
H1043 H 0.61375 0.82418 0.79537 0.0
H1044 H 0.60258 0.85223 0.76957 0.0
H1045 H 0.62026 0.77838 0.79098 0.0
H1046 H 0.6858 0.87694 0.8205 0.0
H1047 H 0.72662 0.93185 0.8218 0.0
H1048 H 0.79427 0.90758 0.80341 0.0
H1049 H 0.75379 0.85254 0.80174 0.0
C1050 C 0.69854 0.73442 0.86011 0.0
C1051 C 0.69471 0.70853 0.84917 0.0
C1052 C 0.69153 0.75572 0.85116 0.0
C1053 C 0.68057 0.75153 0.83113 0.0
C1054 C 0.6769 0.72571 0.82026 0.0
C1055 C 0.68357 0.70439 0.8292 0.0
C1056 C 0.67358 0.77424 0.8212 0.0
C1057 C 0.69639 0.80574 0.82087 0.0
C1058 C 0.64536 0.76463 0.81082 0.0
C1059 C 0.61926 0.73226 0.81186 0.0
C1060 C 0.6058 0.7155 0.79402 0.0
C1061 C 0.58144 0.68492 0.79503 0.0
C1062 C 0.57024 0.67087 0.81379 0.0
C1063 C 0.58331 0.6874 0.8316 0.0
C1064 C 0.60765 0.718 0.83068 0.0
C1065 C 0.67648 0.87391 0.75576 0.0
C1066 C 0.64739 0.87193 0.75501 0.0
C1067 C 0.68257 0.85708 0.77021 0.0
C1068 C 0.65999 0.83854 0.78457 0.0
C1069 C 0.63156 0.83802 0.78446 0.0
C1070 C 0.62524 0.85427 0.76977 0.0
C1071 C 0.66477 0.81755 0.79842 0.0
C1072 C 0.64156 0.78623 0.7994 0.0
C1073 C 0.69224 0.82755 0.80984 0.0
C1074 C 0.71669 0.86062 0.81086 0.0
C1075 C 0.70935 0.88333 0.8166 0.0
C1076 C 0.73243 0.91448 0.81742 0.0
C1077 C 0.76301 0.9232 0.81265 0.0
C1078 C 0.77057 0.90078 0.80709 0.0
C1079 C 0.74757 0.8696 0.80624 0.0
H1080 H 0.78084 0.94733 0.81329 0.0
H1081 H 0.5514 0.64718 0.81454 0.0
H1082 H 0.78505 0.68684 0.92312 0.0
H1083 H 0.82536 0.70043 0.94885 0.0
H1084 H 0.83222 0.62055 0.93197 0.0
H1085 H 0.79171 0.60632 0.90715 0.0
H1086 H 0.83615 0.62505 0.97029 0.0
H1087 H 0.88454 0.69751 0.91546 0.0
H1088 H 0.89129 0.7385 0.89169 0.0
H1089 H 0.90362 0.79885 0.94155 0.0
H1090 H 0.89655 0.75804 0.96563 0.0
H1091 H 0.99119 0.66566 0.993 0.0
H1092 H 0.94312 0.65488 0.97615 0.0
H1093 H 0.93906 0.72424 0.0128 0.0
H1094 H 0.98697 0.73478 0.03005 0.0
H1095 H 0.93108 0.72841 0.96931 0.0
H1096 H 0.88984 0.65485 0.02361 0.0
H1097 H 0.88614 0.61298 0.04532 0.0
H1098 H 0.86333 0.55335 0.99359 0.0
H1099 H 0.86735 0.59503 0.97152 0.0
C1100 C 0.79494 0.67203 0.92506 0.0
C1101 C 0.78501 0.64551 0.91292 0.0
C1102 C 0.81817 0.67993 0.9397 0.0
C1103 C 0.83225 0.66174 0.94227 0.0
C1104 C 0.82181 0.63498 0.93046 0.0
C1105 C 0.79853 0.62693 0.9161 0.0
C1106 C 0.85837 0.67043 0.95674 0.0
C1107 C 0.8569 0.64766 0.96996 0.0
C1108 C 0.88538 0.70009 0.95676 0.0
C1109 C 0.88962 0.72461 0.94233 0.0
C1110 C 0.88845 0.71944 0.92135 0.0
C1111 C 0.89237 0.74265 0.90783 0.0
C1112 C 0.89777 0.77123 0.91511 0.0
C1113 C 0.89935 0.77668 0.93594 0.0
C1114 C 0.8954 0.75353 0.94953 0.0
C1115 C 0.97992 0.67841 0.99763 0.0
C1116 C 0.99283 0.701 0.01291 0.0
C1117 C 0.95244 0.67222 0.98799 0.0
C1118 C 0.93749 0.68874 0.99323 0.0
C1119 C 0.95022 0.71124 0.00853 0.0
C1120 C 0.97748 0.71708 0.01844 0.0
C1121 C 0.90897 0.68278 0.98231 0.0
C1122 C 0.91005 0.70603 0.96981 0.0
C1123 C 0.88184 0.65337 0.98262 0.0
C1124 C 0.87911 0.62816 0.99589 0.0
C1125 C 0.88426 0.63289 0.01684 0.0
C1126 C 0.88206 0.60917 0.02921 0.0
C1127 C 0.87456 0.58054 0.02083 0.0
C1128 C 0.86916 0.57554 1.00006 0.0
C1129 C 0.87135 0.59919 0.98762 0.0
H1130 H 0.87289 0.56222 0.03044 0.0
H1131 H 0.90082 0.78917 0.90462 0.0
H1132 H 0.26619 0.97569 0.20374 0.0
H1133 H 0.22802 0.92862 0.186 0.0
H1134 H 0.28837 0.95472 0.13414 0.0
H1135 H 0.32632 1.00147 0.15162 0.0
H1136 H 0.23023 0.93786 0.12286 0.0
H1137 H 0.28051 0.89782 0.16532 0.0
H1138 H 0.29844 0.88759 0.19762 0.0
H1139 H 0.20468 0.83712 0.21901 0.0
H1140 H 0.18624 0.84743 0.1869 0.0
H1141 H 0.17588 0.77226 0.08834 0.0
H1142 H 0.20339 0.81416 0.11238 0.0
H1143 H 0.13431 0.84125 0.10543 0.0
H1144 H 0.10662 0.79935 0.08086 0.0
H1145 H 0.19222 0.83123 0.14801 0.0
H1146 H 0.17199 0.92104 0.10709 0.0
H1147 H 0.15844 0.93109 0.07312 0.0
H1148 H 0.19961 0.88205 0.04604 0.0
H1149 H 0.21377 0.87211 0.07982 0.0
C1150 C 0.27144 0.97118 0.18865 0.0
C1151 C 0.29934 0.99235 0.17913 0.0
C1152 C 0.24958 0.9443 0.17851 0.0
C1153 C 0.25525 0.93816 0.15868 0.0
C1154 C 0.28333 0.95903 0.14935 0.0
C1155 C 0.30514 0.9857 0.15946 0.0
C1156 C 0.23203 0.91033 0.14734 0.0
C1157 C 0.2217 0.91456 0.12848 0.0
C1158 C 0.221 0.87987 0.15452 0.0
C1159 C 0.23204 0.87373 0.17383 0.0
C1160 C 0.26375 0.88479 0.17699 0.0
C1161 C 0.274 0.87893 0.19524 0.0
C1162 C 0.25272 0.86181 0.21038 0.0
C1163 C 0.22114 0.85044 0.20728 0.0
C1164 C 0.21078 0.85628 0.18906 0.0
C1165 C 0.16619 0.78684 0.092 0.0
C1166 C 0.13908 0.7825 0.08242 0.0
C1167 C 0.18197 0.81077 0.10591 0.0
C1168 C 0.17119 0.83114 0.11061 0.0
C1169 C 0.14331 0.82606 0.10187 0.0
C1170 C 0.12741 0.80199 0.08788 0.0
C1171 C 0.19057 0.85876 0.12349 0.0
C1172 C 0.20021 0.85454 0.14261 0.0
C1173 C 0.20148 0.88927 0.11639 0.0
C1174 C 0.19357 0.89553 0.09598 0.0
C1175 C 0.17822 0.9125 0.09387 0.0
C1176 C 0.17044 0.91817 0.07466 0.0
C1177 C 0.17806 0.90712 0.05744 0.0
C1178 C 0.19362 0.8905 0.05939 0.0
C1179 C 0.20151 0.88483 0.07857 0.0
H1180 H 0.17197 0.91149 0.04258 0.0
H1181 H 0.2607 0.85727 0.2245 0.0
H1182 H 0.31499 0.11191 0.24502 0.0
H1183 H 0.30303 0.14089 0.26995 0.0
H1184 H 0.40016 0.19681 0.284 0.0
H1185 H 0.41226 0.1688 0.25875 0.0
H1186 H 0.30925 0.15548 0.30908 0.0
H1187 H 0.42122 0.26911 0.28762 0.0
H1188 H 0.45496 0.29207 0.25779 0.0
H1189 H 0.37853 0.23568 0.21851 0.0
H1190 H 0.34467 0.21233 0.24799 0.0
H1191 H 0.31345 0.27303 0.37444 0.0
H1192 H 0.32555 0.23695 0.3568 0.0
H1193 H 0.32289 0.27736 0.29963 0.0
H1194 H 0.31288 0.31416 0.31713 0.0
H1195 H 0.3669 0.26886 0.29739 0.0
H1196 H 0.2622 0.20335 0.31931 0.0
H1197 H 0.21927 0.17879 0.34379 0.0
H1198 H 0.26543 0.13724 0.37419 0.0
H1199 H 0.30883 0.16189 0.35001 0.0
C1200 C 0.33371 0.13 0.2537 0.0
C1201 C 0.36462 0.13832 0.24969 0.0
C1202 C 0.32685 0.14655 0.26799 0.0
C1203 C 0.35073 0.17152 0.27861 0.0
C1204 C 0.38134 0.17816 0.2757 0.0
C1205 C 0.38824 0.16204 0.26126 0.0
C1206 C 0.34427 0.19251 0.29121 0.0
C1207 C 0.3219 0.18029 0.30662 0.0
C1208 C 0.36004 0.22482 0.28771 0.0
C1209 C 0.38057 0.23878 0.26999 0.0
C1210 C 0.41173 0.26163 0.27259 0.0
C1211 C 0.4309 0.27463 0.25574 0.0
C1212 C 0.41902 0.26518 0.23624 0.0
C1213 C 0.38793 0.24277 0.23356 0.0
C1214 C 0.36876 0.22958 0.25033 0.0
C1215 C 0.31576 0.27426 0.35813 0.0
C1216 C 0.3125 0.29663 0.34722 0.0
C1217 C 0.32238 0.25345 0.34801 0.0
C1218 C 0.32491 0.25404 0.32674 0.0
C1219 C 0.32145 0.27639 0.31599 0.0
C1220 C 0.31566 0.29752 0.32607 0.0
C1221 C 0.33159 0.23206 0.31538 0.0
C1222 C 0.35428 0.24412 0.30016 0.0
C1223 C 0.3149 0.19954 0.31845 0.0
C1224 C 0.28891 0.18475 0.33301 0.0
C1225 C 0.26329 0.18917 0.33131 0.0
C1226 C 0.23886 0.1752 0.34511 0.0
C1227 C 0.23967 0.15655 0.36058 0.0
C1228 C 0.26487 0.15175 0.36223 0.0
C1229 C 0.28938 0.1657 0.34848 0.0
H1230 H 0.22073 0.14575 0.37124 0.0
H1231 H 0.43386 0.27531 0.22321 0.0
H1232 H 0.25264 0.4059 0.43004 0.0
H1233 H 0.21385 0.39549 0.45602 0.0
H1234 H 0.16011 0.30121 0.43488 0.0
H1235 H 0.19997 0.31128 0.40959 0.0
H1236 H 0.16038 0.38512 0.45186 0.0
H1237 H 0.10867 0.25403 0.46953 0.0
H1238 H 0.12656 0.21634 0.47343 0.0
H1239 H 0.21778 0.28991 0.48831 0.0
H1240 H 0.20035 0.32799 0.48476 0.0
H1241 H 0.00829 0.32267 0.48526 0.0
H1242 H 0.0564 0.33428 0.46876 0.0
H1243 H 0.08955 0.31613 0.52445 0.0
H1244 H 0.04032 0.30301 0.54097 0.0
H1245 H 0.10441 0.29189 0.49496 0.0
H1246 H 0.11784 0.39191 0.50555 0.0
H1247 H 0.10417 0.43303 0.50514 0.0
H1248 H 0.09822 0.42823 0.44032 0.0
H1249 H 0.11145 0.38678 0.44034 0.0
C1250 C 0.23291 0.38273 0.4313 0.0
C1251 C 0.2294 0.35936 0.41787 0.0
C1252 C 0.2106 0.37682 0.44609 0.0
C1253 C 0.18381 0.34753 0.44758 0.0
C1254 C 0.18073 0.32384 0.43449 0.0
C1255 C 0.20352 0.32959 0.41996 0.0
C1256 C 0.15816 0.3428 0.46153 0.0
C1257 C 0.14838 0.36478 0.46136 0.0
C1258 C 0.14262 0.31666 0.47436 0.0
C1259 C 0.15324 0.29389 0.4767 0.0
C1260 C 0.13251 0.26215 0.47372 0.0
C1261 C 0.14258 0.24072 0.47585 0.0
C1262 C 0.1733 0.25073 0.48106 0.0
C1263 C 0.19401 0.2822 0.4842 0.0
C1264 C 0.18406 0.30372 0.48211 0.0
C1265 C 0.02588 0.32145 0.49415 0.0
C1266 C 0.02051 0.31217 0.51453 0.0
C1267 C 0.05356 0.32823 0.48466 0.0
C1268 C 0.07705 0.32669 0.49538 0.0
C1269 C 0.07189 0.31761 0.51582 0.0
C1270 C 0.04384 0.31033 0.5253 0.0
C1271 C 0.10648 0.33392 0.4849 0.0
C1272 C 0.11679 0.31239 0.48564 0.0
C1273 C 0.12325 0.36101 0.47309 0.0
C1274 C 0.11545 0.38609 0.47297 0.0
C1275 C 0.11344 0.3995 0.49121 0.0
C1276 C 0.10579 0.42288 0.49105 0.0
C1277 C 0.10028 0.4332 0.47272 0.0
C1278 C 0.10249 0.4202 0.45451 0.0
C1279 C 0.11011 0.3968 0.45458 0.0
H1280 H 0.09435 0.45129 0.47263 0.0
H1281 H 0.18105 0.23411 0.48269 0.0
H1282 H 0.89663 0.19589 0.57484 0.0
H1283 H 0.86647 0.15316 0.59841 0.0
H1284 H 0.81131 0.19446 0.6143 0.0
H1285 H 0.84045 0.23629 0.59034 0.0
H1286 H 0.85147 0.14261 0.63711 0.0
H1287 H 0.73749 0.14205 0.61871 0.0
H1288 H 0.71435 0.15592 0.59049 0.0
H1289 H 0.77165 0.14211 0.54821 0.0
H1290 H 0.79502 0.12812 0.57609 0.0
H1291 H 0.7348 0.03302 0.70344 0.0
H1292 H 0.7709 0.07998 0.68489 0.0
H1293 H 0.72724 0.03532 0.62869 0.0
H1294 H 0.69025 0.98944 0.64722 0.0
H1295 H 0.73798 0.08897 0.62594 0.0
H1296 H 0.80155 0.04724 0.64712 0.0
H1297 H 0.82553 0.02795 0.67136 0.0
H1298 H 0.8699 0.11596 0.70158 0.0
H1299 H 0.84587 0.13565 0.67765 0.0
C1300 C 0.87847 0.19612 0.58367 0.0
C1301 C 0.8707 0.21928 0.58056 0.0
C1302 C 0.86119 0.17165 0.59714 0.0
C1303 C 0.83605 0.17009 0.60782 0.0
C1304 C 0.82999 0.19459 0.60587 0.0
C1305 C 0.84681 0.21864 0.59222 0.0
C1306 C 0.81466 0.14198 0.61977 0.0
C1307 C 0.82664 0.13089 0.63471 0.0
C1308 C 0.78227 0.12607 0.61638 0.0
C1309 C 0.76821 0.13437 0.59951 0.0
C1310 C 0.74511 0.14196 0.60337 0.0
C1311 C 0.732 0.14991 0.58743 0.0
C1312 C 0.74167 0.1501 0.56756 0.0
C1313 C 0.76437 0.14224 0.56359 0.0
C1314 C 0.77758 0.13434 0.57946 0.0
C1315 C 0.73286 0.03341 0.68714 0.0
C1316 C 0.70958 0.00758 0.67681 0.0
C1317 C 0.75371 0.06017 0.67649 0.0
C1318 C 0.75232 0.06129 0.65524 0.0
C1319 C 0.72893 0.03538 0.64503 0.0
C1320 C 0.70771 0.00903 0.65567 0.0
C1321 C 0.7746 0.08935 0.64347 0.0
C1322 C 0.76276 0.1006 0.62852 0.0
C1323 C 0.80715 0.10455 0.64636 0.0
C1324 C 0.82166 0.0928 0.66073 0.0
C1325 C 0.81625 0.0624 0.65902 0.0
C1326 C 0.82988 0.05141 0.67269 0.0
C1327 C 0.84916 0.07069 0.68803 0.0
C1328 C 0.85493 0.10104 0.68971 0.0
C1329 C 0.84133 0.11213 0.67609 0.0
H1330 H 0.85969 0.06214 0.6986 0.0
H1331 H 0.73149 0.15623 0.55524 0.0
H1332 H 0.19158 0.33183 0.33635 0.0
H1333 H 0.17152 0.33756 0.30361 0.0
H1334 H 0.26507 0.38925 0.28082 0.0
H1335 H 0.28481 0.38479 0.31361 0.0
H1336 H 0.23754 0.41631 0.26936 0.0
H1337 H 0.21139 0.31 0.26866 0.0
H1338 H 0.18712 0.25632 0.28117 0.0
H1339 H 0.0973 0.24768 0.27647 0.0
H1340 H 0.1211 0.30147 0.26417 0.0
H1341 H 0.15873 0.34506 0.16459 0.0
H1342 H 0.1868 0.34798 0.19565 0.0
H1343 H 0.16395 0.414 0.22045 0.0
H1344 H 0.13508 0.41036 0.18956 0.0
H1345 H 0.15594 0.32827 0.23074 0.0
H1346 H 0.2144 0.45554 0.25456 0.0
H1347 H 0.25586 0.50866 0.24671 0.0
H1348 H 0.29586 0.47285 0.20474 0.0
H1349 H 0.25412 0.41959 0.21199 0.0
C1350 C 0.20764 0.3446 0.3243 0.0
C1351 C 0.23965 0.35864 0.3275 0.0
C1352 C 0.19625 0.34764 0.30558 0.0
C1353 C 0.21674 0.36368 0.28961 0.0
C1354 C 0.24873 0.37701 0.29286 0.0
C1355 C 0.26003 0.37454 0.3116 0.0
C1356 C 0.20543 0.36737 0.26956 0.0
C1357 C 0.21934 0.39705 0.2611 0.0
C1358 C 0.1824 0.34217 0.25836 0.0
C1359 C 0.16805 0.30985 0.26571 0.0
C1360 C 0.18648 0.29672 0.27044 0.0
C1361 C 0.17281 0.26627 0.27747 0.0
C1362 C 0.14069 0.24864 0.27967 0.0
C1363 C 0.12218 0.26139 0.27479 0.0
C1364 C 0.13574 0.29185 0.26778 0.0
C1365 C 0.16048 0.36085 0.17645 0.0
C1366 C 0.14531 0.37797 0.17452 0.0
C1367 C 0.17654 0.36255 0.19418 0.0
C1368 C 0.17763 0.38131 0.21039 0.0
C1369 C 0.16392 0.39978 0.20805 0.0
C1370 C 0.14755 0.39782 0.19035 0.0
C1371 C 0.18823 0.37742 0.23062 0.0
C1372 C 0.17377 0.34761 0.23922 0.0
C1373 C 0.2114 0.40238 0.24181 0.0
C1374 C 0.23079 0.43373 0.23345 0.0
C1375 C 0.23145 0.45914 0.24313 0.0
C1376 C 0.25521 0.48921 0.23899 0.0
C1377 C 0.27866 0.4941 0.22539 0.0
C1378 C 0.27773 0.46901 0.21533 0.0
C1379 C 0.25375 0.43891 0.2192 0.0
H1380 H 0.29732 0.51736 0.22242 0.0
H1381 H 0.13015 0.22506 0.28511 0.0
H1382 H 0.87113 0.1861 0.49926 0.0
H1383 H 0.84634 0.16482 0.46639 0.0
H1384 H 0.87635 0.25738 0.44512 0.0
H1385 H 0.90028 0.27828 0.47787 0.0
H1386 H 0.81934 0.222 0.43605 0.0
H1387 H 0.91102 0.21478 0.42987 0.0
H1388 H 0.94843 0.19855 0.43971 0.0
H1389 H 0.87758 0.10313 0.43455 0.0
H1390 H 0.83962 0.11881 0.42495 0.0
H1391 H 0.81942 0.15345 0.32855 0.0
H1392 H 0.84274 0.18068 0.36022 0.0
H1393 H 0.75156 0.14651 0.38546 0.0
H1394 H 0.72851 0.12125 0.3534 0.0
H1395 H 0.83854 0.15215 0.39316 0.0
H1396 H 0.74638 0.16924 0.41646 0.0
H1397 H 0.71458 0.19433 0.41567 0.0
H1398 H 0.79182 0.27739 0.39238 0.0
H1399 H 0.82354 0.25213 0.39212 0.0
C1400 C 0.87215 0.20168 0.4875 0.0
C1401 C 0.88659 0.23361 0.49114 0.0
C1402 C 0.8583 0.18962 0.46873 0.0
C1403 C 0.85963 0.20953 0.45322 0.0
C1404 C 0.87484 0.24154 0.45685 0.0
C1405 C 0.8883 0.25345 0.47558 0.0
C1406 C 0.84411 0.19735 0.43346 0.0
C1407 C 0.82334 0.20649 0.42677 0.0
C1408 C 0.84963 0.17744 0.42118 0.0
C1409 C 0.87241 0.16797 0.4269 0.0
C1410 C 0.90336 0.19033 0.431 0.0
C1411 C 0.92467 0.18124 0.4365 0.0
C1412 C 0.91537 0.14983 0.43781 0.0
C1413 C 0.88474 0.12745 0.43356 0.0
C1414 C 0.86333 0.13643 0.42808 0.0
C1415 C 0.80451 0.15286 0.34067 0.0
C1416 C 0.77229 0.13585 0.33849 0.0
C1417 C 0.81776 0.16831 0.35879 0.0
C1418 C 0.79903 0.16613 0.37536 0.0
C1419 C 0.76672 0.14981 0.37289 0.0
C1420 C 0.75349 0.13503 0.35456 0.0
C1421 C 0.81339 0.17685 0.3957 0.0
C1422 C 0.83408 0.16731 0.40256 0.0
C1423 C 0.80773 0.19641 0.40832 0.0
C1424 C 0.78678 0.20825 0.40325 0.0
C1425 C 0.75606 0.19231 0.41022 0.0
C1426 C 0.7382 0.20671 0.41024 0.0
C1427 C 0.75115 0.23743 0.40394 0.0
C1428 C 0.78176 0.25354 0.39715 0.0
C1429 C 0.79949 0.23899 0.39668 0.0
H1430 H 0.73746 0.24873 0.40427 0.0
H1431 H 0.9319 0.14283 0.44207 0.0
H1432 H 0.60796 0.87625 0.64989 0.0
H1433 H 0.6064 0.84867 0.61898 0.0
H1434 H 0.66799 0.82181 0.64619 0.0
H1435 H 0.67012 0.8502 0.67699 0.0
H1436 H 0.69085 0.84971 0.61194 0.0
H1437 H 0.58406 0.74571 0.61835 0.0
H1438 H 0.52717 0.71359 0.62051 0.0
H1439 H 0.51765 0.78584 0.59231 0.0
H1440 H 0.57444 0.81776 0.58929 0.0
H1441 H 0.62934 0.72468 0.52538 0.0
H1442 H 0.62703 0.74309 0.55916 0.0
H1443 H 0.68469 0.83752 0.53927 0.0
H1444 H 0.68784 0.81872 0.5054 0.0
H1445 H 0.60266 0.7737 0.57078 0.0
H1446 H 0.72289 0.88388 0.57995 0.0
H1447 H 0.77702 0.90327 0.56958 0.0
H1448 H 0.75909 0.81001 0.56405 0.0
H1449 H 0.70494 0.79006 0.57451 0.0
C1450 C 0.6201 0.86335 0.64954 0.0
C1451 C 0.6387 0.8648 0.66592 0.0
C1452 C 0.61914 0.84745 0.63184 0.0
C1453 C 0.63676 0.83271 0.6302 0.0
C1454 C 0.65409 0.83287 0.64704 0.0
C1455 C 0.65527 0.84901 0.66465 0.0
C1456 C 0.64107 0.82144 0.61026 0.0
C1457 C 0.67144 0.8332 0.60288 0.0
C1458 C 0.61612 0.79982 0.59826 0.0
C1459 C 0.58342 0.78464 0.60449 0.0
C1460 C 0.5698 0.75506 0.61321 0.0
C1461 C 0.53759 0.7366 0.6141 0.0
C1462 C 0.51881 0.74772 0.60663 0.0
C1463 C 0.53222 0.77734 0.59823 0.0
C1464 C 0.5644 0.79563 0.59694 0.0
C1465 C 0.64141 0.74937 0.52824 0.0
C1466 C 0.65804 0.77041 0.51279 0.0
C1467 C 0.64026 0.7599 0.54756 0.0
C1468 C 0.65577 0.79173 0.55187 0.0
C1469 C 0.67293 0.81284 0.53645 0.0
C1470 C 0.67447 0.80219 0.5171 0.0
C1471 C 0.65206 0.80243 0.57214 0.0
C1472 C 0.622 0.79061 0.5796 0.0
C1473 C 0.67727 0.82379 0.58409 0.0
C1474 C 0.70979 0.83552 0.57781 0.0
C1475 C 0.73052 0.86753 0.57655 0.0
C1476 C 0.76119 0.8786 0.57063 0.0
C1477 C 0.77144 0.85787 0.56606 0.0
C1478 C 0.75106 0.82602 0.56746 0.0
C1479 C 0.72036 0.81482 0.57334 0.0
H1480 H 0.7952 0.86649 0.5615 0.0
H1481 H 0.49388 0.73341 0.60738 0.0
H1482 H 0.8907 0.6204 0.69008 0.0
H1483 H 0.86539 0.6228 0.72104 0.0
H1484 H 0.85762 0.69844 0.69592 0.0
H1485 H 0.87901 0.69291 0.66399 0.0
H1486 H 0.8857 0.66578 0.74665 0.0
H1487 H 0.82117 0.71425 0.71475 0.0
H1488 H 0.78789 0.71343 0.6868 0.0
H1489 H 0.73991 0.6141 0.68653 0.0
H1490 H 0.77335 0.61457 0.71438 0.0
H1491 H 0.82003 0.69084 0.83715 0.0
H1492 H 0.84721 0.69659 0.80531 0.0
H1493 H 0.76371 0.62138 0.77969 0.0
H1494 H 0.73584 0.61869 0.81062 0.0
H1495 H 0.78601 0.66385 0.75428 0.0
H1496 H 0.84542 0.6149 0.78828 0.0
H1497 H 0.87794 0.61437 0.81645 0.0
H1498 H 0.93433 0.71325 0.81295 0.0
H1499 H 0.90229 0.71409 0.78472 0.0
C1500 C 0.88173 0.63613 0.69077 0.0
C1501 C 0.88496 0.65506 0.67425 0.0
C1502 C 0.86792 0.63809 0.70865 0.0
C1503 C 0.85858 0.66027 0.71083 0.0
C1504 C 0.86281 0.67997 0.69446 0.0
C1505 C 0.87555 0.67714 0.67627 0.0
C1506 C 0.84704 0.66404 0.73084 0.0
C1507 C 0.86381 0.66528 0.74824 0.0
C1508 C 0.81922 0.66474 0.73322 0.0
C1509 C 0.80037 0.66442 0.71595 0.0
C1510 C 0.8038 0.69229 0.70847 0.0
C1511 C 0.78494 0.6919 0.69271 0.0
C1512 C 0.76209 0.66371 0.68469 0.0
C1513 C 0.75796 0.6359 0.69253 0.0
C1514 C 0.77701 0.63622 0.70816 0.0
C1515 C 0.80776 0.6752 0.82478 0.0
C1516 C 0.77619 0.6532 0.82664 0.0
C1517 C 0.82344 0.6782 0.80662 0.0
C1518 C 0.80799 0.65878 0.7901 0.0
C1519 C 0.77644 0.63653 0.79217 0.0
C1520 C 0.76057 0.63438 0.81003 0.0
C1521 C 0.82341 0.66298 0.77008 0.0
C1522 C 0.80778 0.6641 0.75269 0.0
C1523 C 0.85247 0.66484 0.7677 0.0
C1524 C 0.87098 0.66456 0.785 0.0
C1525 C 0.86445 0.63645 0.79386 0.0
C1526 C 0.8829 0.6361 0.80967 0.0
C1527 C 0.90791 0.66379 0.81666 0.0
C1528 C 0.91479 0.69184 0.80766 0.0
C1529 C 0.8966 0.69225 0.79172 0.0
H1530 H 0.92209 0.66347 0.82894 0.0
H1531 H 0.74739 0.66341 0.67256 0.0
H1532 H 0.1868 0.86309 0.8327 0.0
H1533 H 0.16438 0.83702 0.86505 0.0
H1534 H 0.25639 0.86997 0.88858 0.0
H1535 H 0.27845 0.89519 0.85636 0.0
H1536 H 0.22231 0.81264 0.89734 0.0
H1537 H 0.21053 0.90202 0.90217 0.0
H1538 H 0.1926 0.9377 0.89137 0.0
H1539 H 0.09817 0.864 0.89479 0.0
H1540 H 0.11558 0.82776 0.90536 0.0
H1541 H 0.15304 0.81347 0.00381 0.0
H1542 H 0.17983 0.83572 0.97186 0.0
H1543 H 0.14422 0.74384 0.9475 0.0
H1544 H 0.11883 0.72173 0.97975 0.0
H1545 H 0.14866 0.8288 0.93831 0.0
H1546 H 0.17056 0.73879 0.91895 0.0
H1547 H 0.19758 0.70894 0.92147 0.0
H1548 H 0.27977 0.79021 0.94188 0.0
H1549 H 0.25254 0.82 0.94055 0.0
C1550 C 0.20202 0.86447 0.84484 0.0
C1551 C 0.2342 0.88021 0.84199 0.0
C1552 C 0.1893 0.84986 0.86331 0.0
C1553 C 0.20871 0.85166 0.87932 0.0
C1554 C 0.24091 0.86805 0.87647 0.0
C1555 C 0.25351 0.88229 0.85803 0.0
C1556 C 0.19593 0.83577 0.89891 0.0
C1557 C 0.20595 0.81596 0.90617 0.0
C1558 C 0.17487 0.84036 0.91063 0.0
C1559 C 0.16437 0.86211 0.90434 0.0
C1560 C 0.18595 0.89337 0.90046 0.0
C1561 C 0.17589 0.9137 0.89441 0.0
C1562 C 0.14427 0.90311 0.89234 0.0
C1563 C 0.12266 0.87216 0.89637 0.0
C1564 C 0.13261 0.85172 0.9024 0.0
C1565 C 0.15198 0.79813 0.99183 0.0
C1566 C 0.13445 0.76597 0.99431 0.0
C1567 C 0.16722 0.81079 0.97356 0.0
C1568 C 0.16455 0.79155 0.95719 0.0
C1569 C 0.1478 0.75931 0.95995 0.0
C1570 C 0.13303 0.74664 0.97839 0.0
C1571 C 0.17513 0.80539 0.93673 0.0
C1572 C 0.1646 0.82496 0.92928 0.0
C1573 C 0.19583 0.80062 0.92471 0.0
C1574 C 0.20901 0.78116 0.93068 0.0
C1575 C 0.19386 0.74984 0.92498 0.0
C1576 C 0.20936 0.73305 0.92591 0.0
C1577 C 0.24034 0.74762 0.93193 0.0
C1578 C 0.25571 0.77888 0.93736 0.0
C1579 C 0.24005 0.79554 0.93695 0.0
H1580 H 0.25244 0.73471 0.93236 0.0
H1581 H 0.13652 0.91889 0.88766 0.0
H1582 H 0.36392 0.09058 0.1421 0.0
H1583 H 0.35878 0.10938 0.10935 0.0
H1584 H 0.3614 0.18839 0.13849 0.0
H1585 H 0.35865 0.16483 0.17124 0.0
H1586 H 0.32677 0.1781 0.11307 0.0
H1587 H 0.427 0.18158 0.10128 0.0
H1588 H 0.46185 0.15978 0.09816 0.0
H1589 H 0.39738 0.08938 0.05817 0.0
H1590 H 0.36249 0.1109 0.0607 0.0
H1591 H 0.37361 0.27367 0.02516 0.0
H1592 H 0.37419 0.2483 0.05677 0.0
H1593 H 0.32122 0.15905 0.02816 0.0
H1594 H 0.32011 0.18453 0.99651 0.0
H1595 H 0.37707 0.17048 0.05051 0.0
H1596 H 0.28381 0.17475 0.05836 0.0
H1597 H 0.25259 0.20047 0.05839 0.0
H1598 H 0.3098 0.262 0.10537 0.0
H1599 H 0.34168 0.23694 0.1054 0.0
C1600 C 0.36382 0.11222 0.14134 0.0
C1601 C 0.36353 0.12736 0.15912 0.0
C1602 C 0.36151 0.12345 0.12245 0.0
C1603 C 0.36116 0.15142 0.1208 0.0
C1604 C 0.36167 0.16684 0.13886 0.0
C1605 C 0.36121 0.15405 0.15775 0.0
C1606 C 0.35756 0.16336 0.1007 0.0
C1607 C 0.33883 0.17714 0.09971 0.0
C1608 C 0.37133 0.1608 0.08246 0.0
C1609 C 0.39202 0.14756 0.08145 0.0
C1610 C 0.42022 0.1613 0.092 0.0
C1611 C 0.43996 0.14906 0.0903 0.0
C1612 C 0.43167 0.12309 0.07822 0.0
C1613 C 0.40373 0.10941 0.06761 0.0
C1614 C 0.38405 0.12168 0.06909 0.0
C1615 C 0.36225 0.24864 0.02566 0.0
C1616 C 0.34754 0.23092 0.00842 0.0
C1617 C 0.36239 0.23422 0.04368 0.0
C1618 C 0.34776 0.20186 0.04472 0.0
C1619 C 0.3327 0.18407 0.02756 0.0
C1620 C 0.33208 0.19853 0.00959 0.0
C1621 C 0.34874 0.18687 0.06375 0.0
C1622 C 0.36621 0.17208 0.0643 0.0
C1623 C 0.33464 0.18925 0.08161 0.0
C1624 C 0.3153 0.20413 0.08175 0.0
C1625 C 0.2899 0.19393 0.06858 0.0
C1626 C 0.27205 0.20836 0.06861 0.0
C1627 C 0.27925 0.2329 0.08184 0.0
C1628 C 0.30427 0.243 0.09511 0.0
C1629 C 0.32221 0.22867 0.09513 0.0
H1630 H 0.26541 0.24404 0.08184 0.0
H1631 H 0.447 0.11369 0.07698 0.0
loop_
_geom_bond_atom_site_label_1
_geom_bond_atom_site_label_2
_geom_bond_distance
_geom_bond_site_symmetry_2
_ccdc_geom_bond_type
Mn0 O5 2.095 . S
Mn0 O15 2.162 . S
Mn0 O16 2.297 . S
Mn0 O24 2.385 . S
Mn0 O25 2.209 . S
Mn0 O26 2.094 . S
Mn1 O6 2.121 . S
Mn1 N8 2.257 . S
Mn1 N17 2.282 . S
Mn1 O25 2.215 . S
Mn1 O27 2.117 . S
C2 O24 1.234 . S
C2 O25 1.283 . S
C3 O15 1.281 . S
C3 O16 1.236 . S
C4 O26 1.240 . S
C4 O27 1.264 . S
O5 Mn0 2.095 . S
O5 C14 1.250 . S
O6 Mn1 2.121 . S
O6 C14 1.258 . S
C7 N8 1.326 . S
C7 C11 1.460 . S
C7 H13 0.929 . S
N8 Mn1 2.257 . S
N8 C7 1.326 . S
N8 C12 1.362 . S
C9 C10 1.258 . S
C9 C12 1.431 . S
C9 C29 1.449 . S
C10 C9 1.258 . S
C10 C11 1.477 . S
C10 H30 0.931 . S
C11 C7 1.460 . S
C11 C10 1.477 . S
C11 H31 0.930 . S
C12 N8 1.362 . S
C12 C9 1.431 . S
C12 C22 1.476 . S
H13 C7 0.929 . S
C14 O5 1.250 . S
C14 O6 1.258 . S
O15 Mn0 2.162 . S
O15 C3 1.281 . S
O16 Mn0 2.297 . S
O16 C3 1.236 . S
N17 Mn1 2.282 . S
N17 C18 1.328 . S
N17 C22 1.318 . S
C18 N17 1.328 . S
C18 C19 1.457 . S
C18 H23 0.929 . S
C19 C18 1.457 . S
C19 C20 1.291 . S
C19 H32 0.931 . S
C20 C19 1.291 . S
C20 C21 1.373 . S
C20 H33 0.929 . S
C21 C20 1.373 . S
C21 C22 1.396 . S
C21 C28 1.403 . S
C22 C12 1.476 . S
C22 N17 1.318 . S
C22 C21 1.396 . S
H23 C18 0.929 . S
O24 Mn0 2.385 . S
O24 C2 1.234 . S
O25 Mn0 2.209 . S
O25 Mn1 2.215 . S
O25 C2 1.283 . S
O26 Mn0 2.094 . S
O26 C4 1.240 . S
O27 Mn1 2.117 . S
O27 C4 1.264 . S
C28 C21 1.403 . S
C28 C29 1.399 . S
C28 H34 0.929 . S
C29 C9 1.449 . S
C29 C28 1.399 . S
C29 H35 0.930 . S
H30 C10 0.931 . S
H31 C11 0.930 . S
H32 C19 0.931 . S
H33 C20 0.929 . S
H34 C28 0.929 . S
H35 C29 0.930 . S
Mn36 O41 2.095 . S
Mn36 O51 2.162 . S
Mn36 O52 2.297 . S
Mn36 O60 2.385 . S
Mn36 O61 2.209 . S
Mn36 O62 2.094 . S
Mn37 O42 2.121 . S
Mn37 N44 2.257 . S
Mn37 N53 2.282 . S
Mn37 O61 2.215 . S
Mn37 O63 2.117 . S
C38 O60 1.234 . S
C38 O61 1.283 . S
C39 O51 1.281 . S
C39 O52 1.236 . S
C40 O62 1.240 . S
C40 O63 1.264 . S
O41 Mn36 2.095 . S
O41 C50 1.250 . S
O42 Mn37 2.121 . S
O42 C50 1.258 . S
C43 N44 1.326 . S
C43 C47 1.460 . S
C43 H49 0.929 . S
N44 Mn37 2.257 . S
N44 C43 1.326 . S
N44 C48 1.362 . S
C45 C46 1.258 . S
C45 C48 1.431 . S
C45 C65 1.449 . S
C46 C45 1.258 . S
C46 C47 1.477 . S
C46 H66 0.931 . S
C47 C43 1.460 . S
C47 C46 1.477 . S
C47 H67 0.930 . S
C48 N44 1.362 . S
C48 C45 1.431 . S
C48 C58 1.476 . S
H49 C43 0.929 . S
C50 O41 1.250 . S
C50 O42 1.258 . S
O51 Mn36 2.162 . S
O51 C39 1.281 . S
O52 Mn36 2.297 . S
O52 C39 1.236 . S
N53 Mn37 2.282 . S
N53 C54 1.328 . S
N53 C58 1.318 . S
C54 N53 1.328 . S
C54 C55 1.457 . S
C54 H59 0.929 . S
C55 C54 1.457 . S
C55 C56 1.291 . S
C55 H68 0.931 . S
C56 C55 1.291 . S
C56 C57 1.373 . S
C56 H69 0.929 . S
C57 C56 1.373 . S
C57 C58 1.396 . S
C57 C64 1.403 . S
C58 C48 1.476 . S
C58 N53 1.318 . S
C58 C57 1.396 . S
H59 C54 0.929 . S
O60 Mn36 2.385 . S
O60 C38 1.234 . S
O61 Mn36 2.209 . S
O61 Mn37 2.215 . S
O61 C38 1.283 . S
O62 Mn36 2.094 . S
O62 C40 1.240 . S
O63 Mn37 2.117 . S
O63 C40 1.264 . S
C64 C57 1.403 . S
C64 C65 1.399 . S
C64 H70 0.929 . S
C65 C45 1.449 . S
C65 C64 1.399 . S
C65 H71 0.930 . S
H66 C46 0.931 . S
H67 C47 0.930 . S
H68 C55 0.931 . S
H69 C56 0.929 . S
H70 C64 0.929 . S
H71 C65 0.930 . S
Mn72 O77 2.095 . S
Mn72 O87 2.162 . S
Mn72 O88 2.297 . S
Mn72 O96 2.385 . S
Mn72 O97 2.209 . S
Mn72 O98 2.094 . S
Mn73 O78 2.121 . S
Mn73 N80 2.257 . S
Mn73 N89 2.282 . S
Mn73 O97 2.215 . S
Mn73 O99 2.117 . S
C74 O96 1.234 . S
C74 O97 1.283 . S
C75 O87 1.281 . S
C75 O88 1.236 . S
C76 O98 1.240 . S
C76 O99 1.264 . S
O77 Mn72 2.095 . S
O77 C86 1.250 . S
O78 Mn73 2.121 . S
O78 C86 1.258 . S
C79 N80 1.326 . S
C79 C83 1.460 . S
C79 H85 0.929 . S
N80 Mn73 2.257 . S
N80 C79 1.326 . S
N80 C84 1.362 . S
C81 C82 1.258 . S
C81 C84 1.431 . S
C81 C101 1.449 . S
C82 C81 1.258 . S
C82 C83 1.477 . S
C82 H102 0.931 . S
C83 C79 1.460 . S
C83 C82 1.477 . S
C83 H103 0.930 . S
C84 N80 1.362 . S
C84 C81 1.431 . S
C84 C94 1.476 . S
H85 C79 0.929 . S
C86 O77 1.250 . S
C86 O78 1.258 . S
O87 Mn72 2.162 . S
O87 C75 1.281 . S
O88 Mn72 2.297 . S
O88 C75 1.236 . S
N89 Mn73 2.282 . S
N89 C90 1.328 . S
N89 C94 1.318 . S
C90 N89 1.328 . S
C90 C91 1.457 . S
C90 H95 0.929 . S
C91 C90 1.457 . S
C91 C92 1.291 . S
C91 H104 0.931 . S
C92 C91 1.291 . S
C92 C93 1.373 . S
C92 H105 0.929 . S
C93 C92 1.373 . S
C93 C94 1.396 . S
C93 C100 1.403 . S
C94 C84 1.476 . S
C94 N89 1.318 . S
C94 C93 1.396 . S
H95 C90 0.929 . S
O96 Mn72 2.385 . S
O96 C74 1.234 . S
O97 Mn72 2.209 . S
O97 Mn73 2.215 . S
O97 C74 1.283 . S
O98 Mn72 2.094 . S
O98 C76 1.240 . S
O99 Mn73 2.117 . S
O99 C76 1.264 . S
C100 C93 1.403 . S
C100 C101 1.399 . S
C100 H106 0.929 . S
C101 C81 1.449 . S
C101 C100 1.399 . S
C101 H107 0.930 . S
H102 C82 0.931 . S
H103 C83 0.930 . S
H104 C91 0.931 . S
H105 C92 0.929 . S
H106 C100 0.929 . S
H107 C101 0.930 . S
Mn108 O113 2.095 . S
Mn108 O123 2.162 . S
Mn108 O124 2.297 . S
Mn108 O132 2.385 . S
Mn108 O133 2.209 . S
Mn108 O134 2.094 . S
Mn109 O114 2.121 . S
Mn109 N116 2.257 . S
Mn109 N125 2.282 . S
Mn109 O133 2.215 . S
Mn109 O135 2.117 . S
C110 O132 1.234 . S
C110 O133 1.283 . S
C111 O123 1.281 . S
C111 O124 1.236 . S
C112 O134 1.240 . S
C112 O135 1.264 . S
O113 Mn108 2.095 . S
O113 C122 1.250 . S
O114 Mn109 2.121 . S
O114 C122 1.258 . S
C115 N116 1.326 . S
C115 C119 1.460 . S
C115 H121 0.929 . S
N116 Mn109 2.257 . S
N116 C115 1.326 . S
N116 C120 1.362 . S
C117 C118 1.258 . S
C117 C120 1.431 . S
C117 C137 1.449 . S
C118 C117 1.258 . S
C118 C119 1.477 . S
C118 H138 0.931 . S
C119 C115 1.460 . S
C119 C118 1.477 . S
C119 H139 0.930 . S
C120 N116 1.362 . S
C120 C117 1.431 . S
C120 C130 1.476 . S
H121 C115 0.929 . S
C122 O113 1.250 . S
C122 O114 1.258 . S
O123 Mn108 2.162 . S
O123 C111 1.281 . S
O124 Mn108 2.297 . S
O124 C111 1.236 . S
N125 Mn109 2.282 . S
N125 C126 1.328 . S
N125 C130 1.318 . S
C126 N125 1.328 . S
C126 C127 1.457 . S
C126 H131 0.929 . S
C127 C126 1.457 . S
C127 C128 1.291 . S
C127 H140 0.931 . S
C128 C127 1.291 . S
C128 C129 1.373 . S
C128 H141 0.929 . S
C129 C128 1.373 . S
C129 C130 1.396 . S
C129 C136 1.403 . S
C130 C120 1.476 . S
C130 N125 1.318 . S
C130 C129 1.396 . S
H131 C126 0.929 . S
O132 Mn108 2.385 . S
O132 C110 1.234 . S
O133 Mn108 2.209 . S
O133 Mn109 2.215 . S
O133 C110 1.283 . S
O134 Mn108 2.094 . S
O134 C112 1.240 . S
O135 Mn109 2.117 . S
O135 C112 1.264 . S
C136 C129 1.403 . S
C136 C137 1.399 . S
C136 H142 0.929 . S
C137 C117 1.449 . S
C137 C136 1.399 . S
C137 H143 0.930 . S
H138 C118 0.931 . S
H139 C119 0.930 . S
H140 C127 0.931 . S
H141 C128 0.929 . S
H142 C136 0.929 . S
H143 C137 0.930 . S
Mn144 O149 2.095 . S
Mn144 O159 2.162 . S
Mn144 O160 2.297 . S
Mn144 O168 2.385 . S
Mn144 O169 2.209 . S
Mn144 O170 2.094 . S
Mn145 O150 2.121 . S
Mn145 N152 2.257 . S
Mn145 N161 2.282 . S
Mn145 O169 2.215 . S
Mn145 O171 2.117 . S
C146 O168 1.234 . S
C146 O169 1.283 . S
C147 O159 1.281 . S
C147 O160 1.236 . S
C148 O170 1.240 . S
C148 O171 1.264 . S
O149 Mn144 2.095 . S
O149 C158 1.250 . S
O150 Mn145 2.121 . S
O150 C158 1.258 . S
C151 N152 1.326 . S
C151 C155 1.460 . S
C151 H157 0.929 . S
N152 Mn145 2.257 . S
N152 C151 1.326 . S
N152 C156 1.362 . S
C153 C154 1.258 . S
C153 C156 1.431 . S
C153 C173 1.449 . S
C154 C153 1.258 . S
C154 C155 1.477 . S
C154 H174 0.931 . S
C155 C151 1.460 . S
C155 C154 1.477 . S
C155 H175 0.930 . S
C156 N152 1.362 . S
C156 C153 1.431 . S
C156 C166 1.476 . S
H157 C151 0.929 . S
C158 O149 1.250 . S
C158 O150 1.258 . S
O159 Mn144 2.162 . S
O159 C147 1.281 . S
O160 Mn144 2.297 . S
O160 C147 1.236 . S
N161 Mn145 2.282 . S
N161 C162 1.328 . S
N161 C166 1.318 . S
C162 N161 1.328 . S
C162 C163 1.457 . S
C162 H167 0.929 . S
C163 C162 1.457 . S
C163 C164 1.291 . S
C163 H176 0.931 . S
C164 C163 1.291 . S
C164 C165 1.373 . S
C164 H177 0.929 . S
C165 C164 1.373 . S
C165 C166 1.396 . S
C165 C172 1.403 . S
C166 C156 1.476 . S
C166 N161 1.318 . S
C166 C165 1.396 . S
H167 C162 0.929 . S
O168 Mn144 2.385 . S
O168 C146 1.234 . S
O169 Mn144 2.209 . S
O169 Mn145 2.215 . S
O169 C146 1.283 . S
O170 Mn144 2.094 . S
O170 C148 1.240 . S
O171 Mn145 2.117 . S
O171 C148 1.264 . S
C172 C165 1.403 . S
C172 C173 1.399 . S
C172 H178 0.929 . S
C173 C153 1.449 . S
C173 C172 1.399 . S
C173 H179 0.930 . S
H174 C154 0.931 . S
H175 C155 0.930 . S
H176 C163 0.931 . S
H177 C164 0.929 . S
H178 C172 0.929 . S
H179 C173 0.930 . S
Mn180 O185 2.095 . S
Mn180 O195 2.162 . S
Mn180 O196 2.297 . S
Mn180 O204 2.385 . S
Mn180 O205 2.209 . S
Mn180 O206 2.094 . S
Mn181 O186 2.121 . S
Mn181 N188 2.257 . S
Mn181 N197 2.282 . S
Mn181 O205 2.215 . S
Mn181 O207 2.117 . S
C182 O204 1.234 . S
C182 O205 1.283 . S
C183 O195 1.281 . S
C183 O196 1.236 . S
C184 O206 1.240 . S
C184 O207 1.264 . S
O185 Mn180 2.095 . S
O185 C194 1.250 . S
O186 Mn181 2.121 . S
O186 C194 1.258 . S
C187 N188 1.326 . S
C187 C191 1.460 1_556 S
C187 H193 0.929 . S
N188 Mn181 2.257 . S
N188 C187 1.326 . S
N188 C192 1.362 . S
C189 C190 1.258 . S
C189 C192 1.431 1_554 S
C189 C209 1.449 . S
C190 C189 1.258 . S
C190 C191 1.477 . S
C190 H210 0.931 . S
C191 C187 1.460 1_554 S
C191 C190 1.477 . S
C191 H211 0.930 . S
C192 N188 1.362 . S
C192 C189 1.431 1_556 S
C192 C202 1.476 . S
H193 C187 0.929 . S
C194 O185 1.250 . S
C194 O186 1.258 . S
O195 Mn180 2.162 . S
O195 C183 1.281 . S
O196 Mn180 2.297 . S
O196 C183 1.236 . S
N197 Mn181 2.282 . S
N197 C198 1.328 . S
N197 C202 1.318 . S
C198 N197 1.328 . S
C198 C199 1.457 . S
C198 H203 0.929 . S
C199 C198 1.457 . S
C199 C200 1.291 1_556 S
C199 H212 0.931 . S
C200 C199 1.291 1_554 S
C200 C201 1.373 . S
C200 H213 0.930 . S
C201 C200 1.373 . S
C201 C202 1.396 1_554 S
C201 C208 1.403 . S
C202 C192 1.476 . S
C202 N197 1.318 . S
C202 C201 1.396 1_556 S
H203 C198 0.929 . S
O204 Mn180 2.385 . S
O204 C182 1.234 . S
O205 Mn180 2.209 . S
O205 Mn181 2.215 . S
O205 C182 1.283 . S
O206 Mn180 2.094 . S
O206 C184 1.240 . S
O207 Mn181 2.117 . S
O207 C184 1.264 . S
C208 C201 1.403 . S
C208 C209 1.399 . S
C208 H214 0.929 . S
C209 C189 1.449 . S
C209 C208 1.399 . S
C209 H215 0.930 . S
H210 C190 0.931 . S
H211 C191 0.930 . S
H212 C199 0.931 . S
H213 C200 0.930 . S
H214 C208 0.929 . S
H215 C209 0.930 . S
Mn216 O221 2.095 . S
Mn216 O231 2.162 . S
Mn216 O232 2.297 . S
Mn216 O240 2.385 . S
Mn216 O241 2.209 . S
Mn216 O242 2.094 . S
Mn217 O222 2.121 . S
Mn217 N224 2.257 . S
Mn217 N233 2.282 . S
Mn217 O241 2.215 . S
Mn217 O243 2.117 . S
C218 O240 1.234 . S
C218 O241 1.283 . S
C219 O231 1.281 . S
C219 O232 1.236 . S
C220 O242 1.240 . S
C220 O243 1.264 . S
O221 Mn216 2.095 . S
O221 C230 1.250 . S
O222 Mn217 2.121 . S
O222 C230 1.258 . S
C223 N224 1.326 . S
C223 C227 1.460 . S
C223 H229 0.929 . S
N224 Mn217 2.257 . S
N224 C223 1.326 . S
N224 C228 1.362 . S
C225 C226 1.258 . S
C225 C228 1.431 . S
C225 C245 1.449 . S
C226 C225 1.258 . S
C226 C227 1.477 . S
C226 H246 0.931 . S
C227 C223 1.460 . S
C227 C226 1.477 . S
C227 H247 0.930 . S
C228 N224 1.362 . S
C228 C225 1.431 . S
C228 C238 1.476 . S
H229 C223 0.929 . S
C230 O221 1.250 . S
C230 O222 1.258 . S
O231 Mn216 2.162 . S
O231 C219 1.281 . S
O232 Mn216 2.297 . S
O232 C219 1.236 . S
N233 Mn217 2.282 . S
N233 C234 1.328 . S
N233 C238 1.318 . S
C234 N233 1.328 . S
C234 C235 1.457 . S
C234 H239 0.929 . S
C235 C234 1.457 . S
C235 C236 1.291 . S
C235 H248 0.931 . S
C236 C235 1.291 . S
C236 C237 1.373 . S
C236 H249 0.929 . S
C237 C236 1.373 . S
C237 C238 1.396 . S
C237 C244 1.403 . S
C238 C228 1.476 . S
C238 N233 1.318 . S
C238 C237 1.396 . S
H239 C234 0.929 . S
O240 Mn216 2.385 . S
O240 C218 1.234 . S
O241 Mn216 2.209 . S
O241 Mn217 2.215 . S
O241 C218 1.283 . S
O242 Mn216 2.094 . S
O242 C220 1.240 . S
O243 Mn217 2.117 . S
O243 C220 1.264 . S
C244 C237 1.403 . S
C244 C245 1.399 . S
C244 H250 0.929 . S
C245 C225 1.449 . S
C245 C244 1.399 . S
C245 H251 0.930 . S
H246 C226 0.931 . S
H247 C227 0.930 . S
H248 C235 0.931 . S
H249 C236 0.929 . S
H250 C244 0.929 . S
H251 C245 0.930 . S
Mn252 O257 2.095 . S
Mn252 O267 2.162 . S
Mn252 O268 2.297 . S
Mn252 O276 2.385 . S
Mn252 O277 2.209 . S
Mn252 O278 2.094 . S
Mn253 O258 2.121 . S
Mn253 N260 2.257 . S
Mn253 N269 2.282 . S
Mn253 O277 2.215 . S
Mn253 O279 2.117 . S
C254 O276 1.234 . S
C254 O277 1.283 . S
C255 O267 1.281 . S
C255 O268 1.236 . S
C256 O278 1.240 . S
C256 O279 1.264 . S
O257 Mn252 2.095 . S
O257 C266 1.250 . S
O258 Mn253 2.121 . S
O258 C266 1.258 . S
C259 N260 1.326 . S
C259 C263 1.460 . S
C259 H265 0.929 . S
N260 Mn253 2.257 . S
N260 C259 1.326 . S
N260 C264 1.362 . S
C261 C262 1.258 . S
C261 C264 1.431 . S
C261 C281 1.449 . S
C262 C261 1.258 . S
C262 C263 1.477 . S
C262 H282 0.931 . S
C263 C259 1.460 . S
C263 C262 1.477 . S
C263 H283 0.930 . S
C264 N260 1.362 . S
C264 C261 1.431 . S
C264 C274 1.476 . S
H265 C259 0.929 . S
C266 O257 1.250 . S
C266 O258 1.258 . S
O267 Mn252 2.162 . S
O267 C255 1.281 . S
O268 Mn252 2.297 . S
O268 C255 1.236 . S
N269 Mn253 2.282 . S
N269 C270 1.328 . S
N269 C274 1.318 . S
C270 N269 1.328 . S
C270 C271 1.457 . S
C270 H275 0.929 . S
C271 C270 1.457 . S
C271 C272 1.291 . S
C271 H284 0.931 . S
C272 C271 1.291 . S
C272 C273 1.373 . S
C272 H285 0.929 . S
C273 C272 1.373 . S
C273 C274 1.396 . S
C273 C280 1.403 . S
C274 C264 1.476 . S
C274 N269 1.318 . S
C274 C273 1.396 . S
H275 C270 0.929 . S
O276 Mn252 2.385 . S
O276 C254 1.234 . S
O277 Mn252 2.209 . S
O277 Mn253 2.215 . S
O277 C254 1.283 . S
O278 Mn252 2.094 . S
O278 C256 1.240 . S
O279 Mn253 2.117 . S
O279 C256 1.264 . S
C280 C273 1.403 . S
C280 C281 1.399 . S
C280 H286 0.929 . S
C281 C261 1.449 . S
C281 C280 1.399 . S
C281 H287 0.930 . S
H282 C262 0.931 . S
H283 C263 0.930 . S
H284 C271 0.931 . S
H285 C272 0.929 . S
H286 C280 0.929 . S
H287 C281 0.930 . S
Mn288 O293 2.095 . S
Mn288 O303 2.162 . S
Mn288 O304 2.297 . S
Mn288 O312 2.385 . S
Mn288 O313 2.209 . S
Mn288 O314 2.094 . S
Mn289 O294 2.121 . S
Mn289 N296 2.257 . S
Mn289 N305 2.282 . S
Mn289 O313 2.215 . S
Mn289 O315 2.117 . S
C290 O312 1.234 . S
C290 O313 1.283 . S
C291 O303 1.281 . S
C291 O304 1.236 . S
C292 O314 1.240 . S
C292 O315 1.264 . S
O293 Mn288 2.095 . S
O293 C302 1.250 . S
O294 Mn289 2.121 . S
O294 C302 1.258 . S
C295 N296 1.326 . S
C295 C299 1.460 1_554 S
C295 H301 0.929 . S
N296 Mn289 2.257 . S
N296 C295 1.326 . S
N296 C300 1.362 . S
C297 C298 1.258 . S
C297 C300 1.431 1_556 S
C297 C317 1.449 . S
C298 C297 1.258 . S
C298 C299 1.477 . S
C298 H318 0.931 . S
C299 C295 1.460 1_556 S
C299 C298 1.477 . S
C299 H319 0.930 . S
C300 N296 1.362 . S
C300 C297 1.431 1_554 S
C300 C310 1.476 . S
H301 C295 0.929 . S
C302 O293 1.250 . S
C302 O294 1.258 . S
O303 Mn288 2.162 . S
O303 C291 1.281 . S
O304 Mn288 2.297 . S
O304 C291 1.236 . S
N305 Mn289 2.282 . S
N305 C306 1.328 . S
N305 C310 1.318 . S
C306 N305 1.328 . S
C306 C307 1.457 . S
C306 H311 0.929 . S
C307 C306 1.457 . S
C307 C308 1.290 1_554 S
C307 H320 0.931 . S
C308 C307 1.290 1_556 S
C308 C309 1.373 . S
C308 H321 0.930 . S
C309 C308 1.373 . S
C309 C310 1.396 1_556 S
C309 C316 1.403 . S
C310 C300 1.476 . S
C310 N305 1.318 . S
C310 C309 1.396 1_554 S
H311 C306 0.929 . S
O312 Mn288 2.385 . S
O312 C290 1.234 . S
O313 Mn288 2.209 . S
O313 Mn289 2.215 . S
O313 C290 1.283 . S
O314 Mn288 2.094 . S
O314 C292 1.240 . S
O315 Mn289 2.117 . S
O315 C292 1.264 . S
C316 C309 1.403 . S
C316 C317 1.399 . S
C316 H322 0.929 . S
C317 C297 1.449 . S
C317 C316 1.399 . S
C317 H323 0.930 . S
H318 C298 0.931 . S
H319 C299 0.930 . S
H320 C307 0.931 . S
H321 C308 0.930 . S
H322 C316 0.929 . S
H323 C317 0.930 . S
Mn324 O329 2.095 . S
Mn324 O339 2.162 . S
Mn324 O340 2.297 . S
Mn324 O348 2.385 . S
Mn324 O349 2.209 . S
Mn324 O350 2.094 . S
Mn325 O330 2.121 . S
Mn325 N332 2.257 . S
Mn325 N341 2.282 . S
Mn325 O349 2.215 . S
Mn325 O351 2.117 . S
C326 O348 1.234 . S
C326 O349 1.283 . S
C327 O339 1.281 . S
C327 O340 1.236 . S
C328 O350 1.240 . S
C328 O351 1.264 . S
O329 Mn324 2.095 . S
O329 C338 1.250 . S
O330 Mn325 2.121 . S
O330 C338 1.258 . S
C331 N332 1.326 . S
C331 C335 1.460 . S
C331 H337 0.929 . S
N332 Mn325 2.257 . S
N332 C331 1.326 . S
N332 C336 1.362 . S
C333 C334 1.258 . S
C333 C336 1.431 . S
C333 C353 1.449 . S
C334 C333 1.258 . S
C334 C335 1.477 . S
C334 H354 0.931 . S
C335 C331 1.460 . S
C335 C334 1.477 . S
C335 H355 0.930 . S
C336 N332 1.362 . S
C336 C333 1.431 . S
C336 C346 1.476 . S
H337 C331 0.929 . S
C338 O329 1.250 . S
C338 O330 1.258 . S
O339 Mn324 2.162 . S
O339 C327 1.281 . S
O340 Mn324 2.297 . S
O340 C327 1.236 . S
N341 Mn325 2.282 . S
N341 C342 1.328 . S
N341 C346 1.318 . S
C342 N341 1.328 . S
C342 C343 1.457 . S
C342 H347 0.929 . S
C343 C342 1.457 . S
C343 C344 1.291 . S
C343 H356 0.931 . S
C344 C343 1.291 . S
C344 C345 1.373 . S
C344 H357 0.929 . S
C345 C344 1.373 . S
C345 C346 1.396 . S
C345 C352 1.403 . S
C346 C336 1.476 . S
C346 N341 1.318 . S
C346 C345 1.396 . S
H347 C342 0.929 . S
O348 Mn324 2.385 . S
O348 C326 1.234 . S
O349 Mn324 2.209 . S
O349 Mn325 2.215 . S
O349 C326 1.283 . S
O350 Mn324 2.094 . S
O350 C328 1.240 . S
O351 Mn325 2.117 . S
O351 C328 1.264 . S
C352 C345 1.403 . S
C352 C353 1.399 . S
C352 H358 0.929 . S
C353 C333 1.449 . S
C353 C352 1.399 . S
C353 H359 0.930 . S
H354 C334 0.931 . S
H355 C335 0.930 . S
H356 C343 0.931 . S
H357 C344 0.929 . S
H358 C352 0.929 . S
H359 C353 0.930 . S
Mn360 O365 2.095 . S
Mn360 O375 2.162 . S
Mn360 O376 2.297 . S
Mn360 O384 2.385 . S
Mn360 O385 2.209 . S
Mn360 O386 2.094 . S
Mn361 O366 2.121 . S
Mn361 N368 2.257 . S
Mn361 N377 2.282 . S
Mn361 O385 2.215 . S
Mn361 O387 2.117 . S
C362 O384 1.234 . S
C362 O385 1.283 . S
C363 O375 1.281 . S
C363 O376 1.236 . S
C364 O386 1.240 . S
C364 O387 1.264 . S
O365 Mn360 2.095 . S
O365 C374 1.250 . S
O366 Mn361 2.121 . S
O366 C374 1.258 . S
C367 N368 1.326 . S
C367 C371 1.460 . S
C367 H373 0.929 . S
N368 Mn361 2.257 . S
N368 C367 1.326 . S
N368 C372 1.362 . S
C369 C370 1.258 . S
C369 C372 1.431 . S
C369 C389 1.449 . S
C370 C369 1.258 . S
C370 C371 1.477 . S
C370 H390 0.931 . S
C371 C367 1.460 . S
C371 C370 1.477 . S
C371 H391 0.930 . S
C372 N368 1.362 . S
C372 C369 1.431 . S
C372 C382 1.476 . S
H373 C367 0.929 . S
C374 O365 1.250 . S
C374 O366 1.258 . S
O375 Mn360 2.162 . S
O375 C363 1.281 . S
O376 Mn360 2.297 . S
O376 C363 1.236 . S
N377 Mn361 2.282 . S
N377 C378 1.328 . S
N377 C382 1.318 . S
C378 N377 1.328 . S
C378 C379 1.457 . S
C378 H383 0.929 . S
C379 C378 1.457 . S
C379 C380 1.291 . S
C379 H392 0.931 . S
C380 C379 1.291 . S
C380 C381 1.373 . S
C380 H393 0.929 . S
C381 C380 1.373 . S
C381 C382 1.396 . S
C381 C388 1.403 . S
C382 C372 1.476 . S
C382 N377 1.318 . S
C382 C381 1.396 . S
H383 C378 0.929 . S
O384 Mn360 2.385 . S
O384 C362 1.234 . S
O385 Mn360 2.209 . S
O385 Mn361 2.215 . S
O385 C362 1.283 . S
O386 Mn360 2.094 . S
O386 C364 1.240 . S
O387 Mn361 2.117 . S
O387 C364 1.264 . S
C388 C381 1.403 . S
C388 C389 1.399 . S
C388 H394 0.929 . S
C389 C369 1.449 . S
C389 C388 1.399 . S
C389 H395 0.930 . S
H390 C370 0.931 . S
H391 C371 0.930 . S
H392 C379 0.931 . S
H393 C380 0.929 . S
H394 C388 0.929 . S
H395 C389 0.930 . S
Mn396 O401 2.095 . S
Mn396 O411 2.162 . S
Mn396 O412 2.297 . S
Mn396 O420 2.385 . S
Mn396 O421 2.209 . S
Mn396 O422 2.094 . S
Mn397 O402 2.121 . S
Mn397 N404 2.257 . S
Mn397 N413 2.282 . S
Mn397 O421 2.215 . S
Mn397 O423 2.117 . S
C398 O420 1.234 . S
C398 O421 1.283 . S
C399 O411 1.281 . S
C399 O412 1.236 . S
C400 O422 1.240 . S
C400 O423 1.264 . S
O401 Mn396 2.095 . S
O401 C410 1.250 . S
O402 Mn397 2.121 . S
O402 C410 1.258 . S
C403 N404 1.326 . S
C403 C407 1.460 . S
C403 H409 0.929 . S
N404 Mn397 2.257 . S
N404 C403 1.326 . S
N404 C408 1.362 . S
C405 C406 1.258 . S
C405 C408 1.431 . S
C405 C425 1.449 . S
C406 C405 1.258 . S
C406 C407 1.477 . S
C406 H426 0.931 . S
C407 C403 1.460 . S
C407 C406 1.477 . S
C407 H427 0.930 . S
C408 N404 1.362 . S
C408 C405 1.431 . S
C408 C418 1.476 . S
H409 C403 0.929 . S
C410 O401 1.250 . S
C410 O402 1.258 . S
O411 Mn396 2.162 . S
O411 C399 1.281 . S
O412 Mn396 2.297 . S
O412 C399 1.236 . S
N413 Mn397 2.282 . S
N413 C414 1.328 . S
N413 C418 1.318 . S
C414 N413 1.328 . S
C414 C415 1.457 . S
C414 H419 0.929 . S
C415 C414 1.457 . S
C415 C416 1.291 . S
C415 H428 0.931 . S
C416 C415 1.291 . S
C416 C417 1.373 . S
C416 H429 0.929 . S
C417 C416 1.373 . S
C417 C418 1.396 . S
C417 C424 1.403 . S
C418 C408 1.476 . S
C418 N413 1.318 . S
C418 C417 1.396 . S
H419 C414 0.929 . S
O420 Mn396 2.385 . S
O420 C398 1.234 . S
O421 Mn396 2.209 . S
O421 Mn397 2.215 . S
O421 C398 1.283 . S
O422 Mn396 2.094 . S
O422 C400 1.240 . S
O423 Mn397 2.117 . S
O423 C400 1.264 . S
C424 C417 1.403 . S
C424 C425 1.399 . S
C424 H430 0.929 . S
C425 C405 1.449 . S
C425 C424 1.399 . S
C425 H431 0.930 . S
H426 C406 0.931 . S
H427 C407 0.930 . S
H428 C415 0.931 . S
H429 C416 0.929 . S
H430 C424 0.929 . S
H431 C425 0.930 . S
H432 C450 0.951 . S
H433 C452 0.951 . S
H434 C454 0.950 . S
H435 C455 0.950 . S
H436 C457 0.950 . S
H437 C460 0.950 . S
H438 C461 0.950 . S
H439 C463 0.950 . S
H440 C464 0.933 1_455 S
H441 C465 0.951 . S
H442 C467 0.951 . S
H443 C469 0.950 . S
H444 C470 0.950 . S
H445 C472 0.950 . S
H446 C475 0.950 . S
H447 C476 0.950 . S
H448 C478 0.950 . S
H449 C479 0.950 . S
C450 H432 0.951 . S
C450 C451 1.366 . S
C450 C452 1.388 . S
C451 C450 1.366 . S
C451 C455 1.385 . S
C452 H433 0.951 . S
C452 C450 1.388 . S
C452 C453 1.366 . S
C453 C452 1.366 . S
C453 C454 1.414 . S
C453 C456 1.499 . S
C454 H434 0.950 . S
C454 C453 1.414 . S
C454 C455 1.374 . S
C455 H435 0.950 . S
C455 C451 1.385 . S
C455 C454 1.374 . S
C456 C453 1.499 . S
C456 C457 1.373 . S
C456 C458 1.389 . S
C457 H436 0.950 . S
C457 C456 1.373 . S
C457 C473 1.377 . S
C458 C456 1.389 . S
C458 C459 1.524 . S
C458 C472 1.377 . S
C459 C458 1.524 . S
C459 C460 1.397 . S
C459 C464 1.356 1_455 S
C460 H437 0.950 . S
C460 C459 1.397 . S
C460 C461 1.334 1_455 S
C461 H438 0.950 . S
C461 C460 1.334 1_655 S
C461 C462 1.287 . S
C462 C461 1.287 . S
C462 C463 1.524 . S
C462 H481 0.913 . S
C463 H439 0.950 . S
C463 C462 1.524 . S
C463 C464 1.440 . S
C464 H440 0.933 1_655 S
C464 C459 1.356 1_655 S
C464 C463 1.440 . S
C465 H441 0.951 . S
C465 C466 1.366 . S
C465 C467 1.388 . S
C466 C465 1.366 . S
C466 C470 1.385 . S
C467 H442 0.951 . S
C467 C465 1.388 . S
C467 C468 1.366 . S
C468 C467 1.366 . S
C468 C469 1.414 . S
C468 C471 1.499 . S
C469 H443 0.950 . S
C469 C468 1.414 . S
C469 C470 1.374 . S
C470 H444 0.950 . S
C470 C466 1.385 . S
C470 C469 1.374 . S
C471 C468 1.499 . S
C471 C472 1.373 . S
C471 C473 1.389 . S
C472 H445 0.950 . S
C472 C458 1.377 . S
C472 C471 1.373 . S
C473 C457 1.377 . S
C473 C471 1.389 . S
C473 C474 1.524 . S
C474 C473 1.524 . S
C474 C475 1.397 . S
C474 C479 1.363 . S
C475 H446 0.950 . S
C475 C474 1.397 . S
C475 C476 1.334 . S
C476 H447 0.950 . S
C476 C475 1.334 . S
C476 C477 1.287 . S
C477 C476 1.287 . S
C477 C478 1.524 . S
C477 H480 0.999 . S
C478 H448 0.950 . S
C478 C477 1.524 . S
C478 C479 1.415 . S
C479 H449 0.950 . S
C479 C474 1.363 . S
C479 C478 1.415 . S
H480 C477 0.999 . S
H481 C462 0.913 . S
H482 C500 0.951 . S
H483 C502 0.951 . S
H484 C504 0.950 . S
H485 C505 0.950 . S
H486 C507 0.950 . S
H487 C510 0.950 . S
H488 C511 0.950 . S
H489 C513 0.950 . S
H490 C514 0.950 . S
H491 C515 0.951 . S
H492 C517 0.951 . S
H493 C519 0.950 . S
H494 C520 0.950 . S
H495 C522 0.950 . S
H496 C525 0.950 . S
H497 C526 0.950 . S
H498 C528 0.950 . S
H499 C529 0.950 . S
C500 H482 0.951 . S
C500 C501 1.366 . S
C500 C502 1.388 . S
C501 C500 1.366 . S
C501 C505 1.385 . S
C502 H483 0.951 . S
C502 C500 1.388 . S
C502 C503 1.366 . S
C503 C502 1.366 . S
C503 C504 1.414 . S
C503 C506 1.499 . S
C504 H484 0.950 . S
C504 C503 1.414 . S
C504 C505 1.374 . S
C505 H485 0.950 . S
C505 C501 1.385 . S
C505 C504 1.374 . S
C506 C503 1.499 . S
C506 C507 1.373 . S
C506 C508 1.389 . S
C507 H486 0.950 . S
C507 C506 1.373 . S
C507 C523 1.377 . S
C508 C506 1.389 . S
C508 C509 1.524 . S
C508 C522 1.377 . S
C509 C508 1.524 . S
C509 C510 1.397 . S
C509 C514 1.363 . S
C510 H487 0.950 . S
C510 C509 1.397 . S
C510 C511 1.334 . S
C511 H488 0.950 . S
C511 C510 1.334 . S
C511 C512 1.287 . S
C512 C511 1.287 . S
C512 C513 1.524 . S
C512 H531 0.913 . S
C513 H489 0.950 . S
C513 C512 1.524 . S
C513 C514 1.415 . S
C514 H490 0.950 . S
C514 C509 1.363 . S
C514 C513 1.415 . S
C515 H491 0.951 . S
C515 C516 1.366 . S
C515 C517 1.388 . S
C516 C515 1.366 . S
C516 C520 1.385 . S
C517 H492 0.951 . S
C517 C515 1.388 . S
C517 C518 1.366 . S
C518 C517 1.366 . S
C518 C519 1.414 . S
C518 C521 1.499 . S
C519 H493 0.950 . S
C519 C518 1.414 . S
C519 C520 1.374 . S
C520 H494 0.950 . S
C520 C516 1.385 . S
C520 C519 1.374 . S
C521 C518 1.499 . S
C521 C522 1.373 . S
C521 C523 1.389 . S
C522 H495 0.950 . S
C522 C508 1.377 . S
C522 C521 1.373 . S
C523 C507 1.377 . S
C523 C521 1.389 . S
C523 C524 1.524 . S
C524 C523 1.524 . S
C524 C525 1.397 . S
C524 C529 1.363 . S
C525 H496 0.950 . S
C525 C524 1.397 . S
C525 C526 1.334 . S
C526 H497 0.950 . S
C526 C525 1.334 . S
C526 C527 1.287 . S
C527 C526 1.287 . S
C527 C528 1.524 . S
C527 H530 0.999 . S
C528 H498 0.950 . S
C528 C527 1.524 . S
C528 C529 1.415 . S
C529 H499 0.950 . S
C529 C524 1.363 . S
C529 C528 1.415 . S
H530 C527 0.999 . S
H531 C512 0.913 . S
H532 C550 0.951 . S
H533 C552 0.951 . S
H534 C554 0.950 . S
H535 C555 0.950 . S
H536 C557 0.950 . S
H537 C560 0.950 . S
H538 C561 0.950 . S
H539 C563 0.950 . S
H540 C564 0.950 . S
H541 C565 0.951 . S
H542 C567 0.951 . S
H543 C569 0.950 . S
H544 C570 0.950 . S
H545 C572 0.950 . S
H546 C575 0.950 . S
H547 C576 0.950 . S
H548 C578 0.950 . S
H549 C579 0.950 . S
C550 H532 0.951 . S
C550 C551 1.366 . S
C550 C552 1.388 . S
C551 C550 1.366 . S
C551 C555 1.385 . S
C552 H533 0.951 . S
C552 C550 1.388 . S
C552 C553 1.366 . S
C553 C552 1.366 . S
C553 C554 1.414 . S
C553 C556 1.499 . S
C554 H534 0.950 . S
C554 C553 1.414 . S
C554 C555 1.374 . S
C555 H535 0.950 . S
C555 C551 1.385 . S
C555 C554 1.374 . S
C556 C553 1.499 . S
C556 C557 1.373 . S
C556 C558 1.389 . S
C557 H536 0.950 . S
C557 C556 1.373 . S
C557 C573 1.377 . S
C558 C556 1.389 . S
C558 C559 1.524 . S
C558 C572 1.377 . S
C559 C558 1.524 . S
C559 C560 1.397 . S
C559 C564 1.363 . S
C560 H537 0.950 . S
C560 C559 1.397 . S
C560 C561 1.334 . S
C561 H538 0.950 . S
C561 C560 1.334 . S
C561 C562 1.287 . S
C562 C561 1.287 . S
C562 C563 1.524 . S
C562 H581 0.913 . S
C563 H539 0.950 . S
C563 C562 1.524 . S
C563 C564 1.415 . S
C564 H540 0.950 . S
C564 C559 1.363 . S
C564 C563 1.415 . S
C565 H541 0.951 . S
C565 C566 1.366 . S
C565 C567 1.388 . S
C566 C565 1.366 . S
C566 C570 1.385 . S
C567 H542 0.951 . S
C567 C565 1.388 . S
C567 C568 1.366 . S
C568 C567 1.366 . S
C568 C569 1.414 . S
C568 C571 1.499 . S
C569 H543 0.950 . S
C569 C568 1.414 . S
C569 C570 1.374 . S
C570 H544 0.950 . S
C570 C566 1.385 . S
C570 C569 1.374 . S
C571 C568 1.499 . S
C571 C572 1.373 . S
C571 C573 1.389 . S
C572 H545 0.950 . S
C572 C558 1.377 . S
C572 C571 1.373 . S
C573 C557 1.377 . S
C573 C571 1.389 . S
C573 C574 1.524 . S
C574 C573 1.524 . S
C574 C575 1.397 . S
C574 C579 1.363 . S
C575 H546 0.950 . S
C575 C574 1.397 . S
C575 C576 1.334 . S
C576 H547 0.950 . S
C576 C575 1.334 . S
C576 C577 1.287 . S
C577 C576 1.287 . S
C577 C578 1.524 . S
C577 H580 0.999 . S
C578 H548 0.950 . S
C578 C577 1.524 . S
C578 C579 1.415 . S
C579 H549 0.950 . S
C579 C574 1.363 . S
C579 C578 1.415 . S
H580 C577 0.999 . S
H581 C562 0.913 . S
H582 C600 0.951 . S
H583 C602 0.951 . S
H584 C604 0.950 . S
H585 C605 0.950 . S
H586 C607 0.950 . S
H587 C610 0.950 . S
H588 C611 0.950 . S
H589 C613 0.950 . S
H590 C614 0.950 . S
H591 C615 0.951 . S
H592 C617 0.951 . S
H593 C619 0.950 . S
H594 C620 0.950 . S
H595 C622 0.950 . S
H596 C625 0.950 . S
H597 C626 0.950 . S
H598 C628 0.950 . S
H599 C629 0.950 . S
C600 H582 0.951 . S
C600 C601 1.366 . S
C600 C602 1.388 . S
C601 C600 1.366 . S
C601 C605 1.385 . S
C602 H583 0.951 . S
C602 C600 1.388 . S
C602 C603 1.366 . S
C603 C602 1.366 . S
C603 C604 1.414 . S
C603 C606 1.499 . S
C604 H584 0.950 . S
C604 C603 1.414 . S
C604 C605 1.374 . S
C605 H585 0.950 . S
C605 C601 1.385 . S
C605 C604 1.374 . S
C606 C603 1.499 . S
C606 C607 1.373 . S
C606 C608 1.389 . S
C607 H586 0.950 . S
C607 C606 1.373 . S
C607 C623 1.377 . S
C608 C606 1.389 . S
C608 C609 1.524 . S
C608 C622 1.377 . S
C609 C608 1.524 . S
C609 C610 1.397 . S
C609 C614 1.363 1_655 S
C610 H587 0.950 . S
C610 C609 1.397 . S
C610 C611 1.334 . S
C611 H588 0.950 . S
C611 C610 1.334 . S
C611 C612 1.287 1_655 S
C612 C611 1.287 1_455 S
C612 C613 1.524 . S
C612 H631 0.913 . S
C613 H589 0.950 . S
C613 C612 1.524 . S
C613 C614 1.415 . S
C614 H590 0.950 . S
C614 C609 1.363 1_455 S
C614 C613 1.415 . S
C615 H591 0.951 . S
C615 C616 1.366 . S
C615 C617 1.388 . S
C616 C615 1.366 . S
C616 C620 1.385 . S
C617 H592 0.951 . S
C617 C615 1.388 . S
C617 C618 1.366 . S
C618 C617 1.366 . S
C618 C619 1.414 . S
C618 C621 1.499 . S
C619 H593 0.950 . S
C619 C618 1.414 . S
C619 C620 1.374 . S
C620 H594 0.950 . S
C620 C616 1.385 . S
C620 C619 1.374 . S
C621 C618 1.499 . S
C621 C622 1.373 . S
C621 C623 1.389 . S
C622 H595 0.950 . S
C622 C608 1.377 . S
C622 C621 1.373 . S
C623 C607 1.377 . S
C623 C621 1.389 . S
C623 C624 1.524 . S
C624 C623 1.524 . S
C624 C625 1.397 . S
C624 C629 1.363 . S
C625 H596 0.950 . S
C625 C624 1.397 . S
C625 C626 1.334 . S
C626 H597 0.950 . S
C626 C625 1.334 . S
C626 C627 1.287 . S
C627 C626 1.287 . S
C627 C628 1.524 . S
C627 H630 0.999 . S
C628 H598 0.950 . S
C628 C627 1.524 . S
C628 C629 1.415 . S
C629 H599 0.950 . S
C629 C624 1.363 . S
C629 C628 1.415 . S
H630 C627 0.999 . S
H631 C612 0.913 . S
H632 C650 0.951 . S
H633 C652 0.951 . S
H634 C654 0.950 . S
H635 C655 0.950 . S
H636 C657 0.950 . S
H637 C660 0.950 . S
H638 C661 0.957 . S
H639 C663 0.950 . S
H640 C664 0.950 . S
H641 C665 0.951 . S
H642 C667 0.951 . S
H643 C669 0.950 . S
H644 C670 0.950 . S
H645 C672 0.950 . S
H646 C675 0.950 . S
H647 C676 0.950 . S
H648 C678 0.950 . S
H649 C679 0.950 . S
C650 H632 0.951 . S
C650 C651 1.366 . S
C650 C652 1.388 . S
C651 C650 1.366 . S
C651 C655 1.385 . S
C652 H633 0.951 . S
C652 C650 1.388 . S
C652 C653 1.366 . S
C653 C652 1.366 . S
C653 C654 1.414 . S
C653 C656 1.499 . S
C654 H634 0.950 . S
C654 C653 1.414 . S
C654 C655 1.374 . S
C655 H635 0.950 . S
C655 C651 1.385 . S
C655 C654 1.374 . S
C656 C653 1.499 . S
C656 C657 1.373 . S
C656 C658 1.389 . S
C657 H636 0.950 . S
C657 C656 1.373 . S
C657 C673 1.377 . S
C658 C656 1.389 . S
C658 C659 1.524 . S
C658 C672 1.377 . S
C659 C658 1.524 . S
C659 C660 1.397 . S
C659 C664 1.363 . S
C660 H637 0.950 . S
C660 C659 1.397 . S
C660 C661 1.324 1_565 S
C661 H638 0.957 . S
C661 C660 1.324 1_545 S
C661 C662 1.291 1_545 S
C662 C661 1.291 1_565 S
C662 C663 1.524 . S
C662 H681 0.913 1_565 S
C663 H639 0.950 . S
C663 C662 1.524 . S
C663 C664 1.415 . S
C664 H640 0.950 . S
C664 C659 1.363 . S
C664 C663 1.415 . S
C665 H641 0.951 . S
C665 C666 1.366 . S
C665 C667 1.388 . S
C666 C665 1.366 . S
C666 C670 1.385 . S
C667 H642 0.951 . S
C667 C665 1.388 . S
C667 C668 1.366 . S
C668 C667 1.366 . S
C668 C669 1.414 . S
C668 C671 1.499 . S
C669 H643 0.950 . S
C669 C668 1.414 . S
C669 C670 1.374 . S
C670 H644 0.950 . S
C670 C666 1.385 . S
C670 C669 1.374 . S
C671 C668 1.499 . S
C671 C672 1.373 . S
C671 C673 1.389 . S
C672 H645 0.950 . S
C672 C658 1.377 . S
C672 C671 1.373 . S
C673 C657 1.377 . S
C673 C671 1.389 . S
C673 C674 1.524 . S
C674 C673 1.524 . S
C674 C675 1.397 . S
C674 C679 1.363 . S
C675 H646 0.950 . S
C675 C674 1.397 . S
C675 C676 1.334 . S
C676 H647 0.950 . S
C676 C675 1.334 . S
C676 C677 1.287 . S
C677 C676 1.287 . S
C677 C678 1.524 . S
C677 H680 0.999 . S
C678 H648 0.950 . S
C678 C677 1.524 . S
C678 C679 1.415 . S
C679 H649 0.950 . S
C679 C674 1.363 . S
C679 C678 1.415 . S
H680 C677 0.999 . S
H681 C662 0.913 1_545 S
H682 C700 0.951 . S
H683 C702 0.951 . S
H684 C704 0.950 . S
H685 C705 0.950 . S
H686 C707 0.950 . S
H687 C710 0.950 . S
H688 C711 0.950 . S
H689 C713 0.950 . S
H690 C714 0.950 . S
H691 C715 0.951 . S
H692 C717 0.951 . S
H693 C719 0.950 . S
H694 C720 0.950 . S
H695 C722 0.950 . S
H696 C725 0.950 . S
H697 C726 0.950 . S
H698 C728 0.950 . S
H699 C729 0.950 . S
C700 H682 0.951 . S
C700 C701 1.366 . S
C700 C702 1.388 . S
C701 C700 1.366 . S
C701 C705 1.385 . S
C702 H683 0.951 . S
C702 C700 1.388 . S
C702 C703 1.366 . S
C703 C702 1.366 . S
C703 C704 1.414 . S
C703 C706 1.499 . S
C704 H684 0.950 . S
C704 C703 1.414 . S
C704 C705 1.374 . S
C705 H685 0.950 . S
C705 C701 1.385 . S
C705 C704 1.374 . S
C706 C703 1.499 . S
C706 C707 1.373 . S
C706 C708 1.389 . S
C707 H686 0.950 . S
C707 C706 1.373 . S
C707 C723 1.377 . S
C708 C706 1.389 . S
C708 C709 1.524 . S
C708 C722 1.377 . S
C709 C708 1.524 . S
C709 C710 1.397 . S
C709 C714 1.363 . S
C710 H687 0.950 . S
C710 C709 1.397 . S
C710 C711 1.334 . S
C711 H688 0.950 . S
C711 C710 1.334 . S
C711 C712 1.287 . S
C712 C711 1.287 . S
C712 C713 1.524 . S
C712 H731 0.913 . S
C713 H689 0.950 . S
C713 C712 1.524 . S
C713 C714 1.415 . S
C714 H690 0.950 . S
C714 C709 1.363 . S
C714 C713 1.415 . S
C715 H691 0.951 . S
C715 C716 1.366 . S
C715 C717 1.388 . S
C716 C715 1.366 . S
C716 C720 1.385 . S
C717 H692 0.951 . S
C717 C715 1.388 . S
C717 C718 1.366 . S
C718 C717 1.366 . S
C718 C719 1.414 . S
C718 C721 1.499 . S
C719 H693 0.950 . S
C719 C718 1.414 . S
C719 C720 1.374 . S
C720 H694 0.950 . S
C720 C716 1.385 . S
C720 C719 1.374 . S
C721 C718 1.499 . S
C721 C722 1.373 . S
C721 C723 1.389 . S
C722 H695 0.950 . S
C722 C708 1.377 . S
C722 C721 1.373 . S
C723 C707 1.377 . S
C723 C721 1.389 . S
C723 C724 1.524 . S
C724 C723 1.524 . S
C724 C725 1.397 . S
C724 C729 1.363 . S
C725 H696 0.950 . S
C725 C724 1.397 . S
C725 C726 1.334 . S
C726 H697 0.950 . S
C726 C725 1.334 . S
C726 C727 1.287 . S
C727 C726 1.287 . S
C727 C728 1.524 . S
C727 H730 0.999 . S
C728 H698 0.950 . S
C728 C727 1.524 . S
C728 C729 1.415 . S
C729 H699 0.950 . S
C729 C724 1.363 . S
C729 C728 1.415 . S
H730 C727 0.999 . S
H731 C712 0.913 . S
H732 C750 0.951 . S
H733 C752 0.951 . S
H734 C754 0.950 . S
H735 C755 0.950 . S
H736 C757 0.950 . S
H737 C760 0.950 . S
H738 C761 0.950 . S
H739 C763 0.950 . S
H740 C764 0.950 . S
H741 C765 0.951 . S
H742 C767 0.951 . S
H743 C769 0.950 . S
H744 C770 0.950 . S
H745 C772 0.950 . S
H746 C775 0.950 1_556 S
H747 C776 0.950 . S
H748 C778 0.950 . S
H749 C779 0.950 . S
C750 H732 0.951 . S
C750 C751 1.366 . S
C750 C752 1.388 . S
C751 C750 1.366 . S
C751 C755 1.385 . S
C752 H733 0.951 . S
C752 C750 1.388 . S
C752 C753 1.366 . S
C753 C752 1.366 . S
C753 C754 1.414 . S
C753 C756 1.499 . S
C754 H734 0.950 . S
C754 C753 1.414 . S
C754 C755 1.374 . S
C755 H735 0.950 . S
C755 C751 1.385 . S
C755 C754 1.374 . S
C756 C753 1.499 . S
C756 C757 1.373 . S
C756 C758 1.389 . S
C757 H736 0.950 . S
C757 C756 1.373 . S
C757 C773 1.377 . S
C758 C756 1.389 . S
C758 C759 1.524 . S
C758 C772 1.377 . S
C759 C758 1.524 . S
C759 C760 1.397 . S
C759 C764 1.363 . S
C760 H737 0.950 . S
C760 C759 1.397 . S
C760 C761 1.334 . S
C761 H738 0.950 . S
C761 C760 1.334 . S
C761 C762 1.287 . S
C762 C761 1.287 . S
C762 C763 1.524 . S
C762 H781 0.913 . S
C763 H739 0.950 . S
C763 C762 1.524 . S
C763 C764 1.415 . S
C764 H740 0.950 . S
C764 C759 1.363 . S
C764 C763 1.415 . S
C765 H741 0.951 . S
C765 C766 1.366 1_554 S
C765 C767 1.388 . S
C766 C765 1.366 1_556 S
C766 C770 1.385 . S
C767 H742 0.951 . S
C767 C765 1.388 . S
C767 C768 1.366 . S
C768 C767 1.366 . S
C768 C769 1.414 1_554 S
C768 C771 1.499 . S
C769 H743 0.950 . S
C769 C768 1.414 1_556 S
C769 C770 1.374 . S
C770 H744 0.950 . S
C770 C766 1.385 . S
C770 C769 1.374 . S
C771 C768 1.499 . S
C771 C772 1.373 . S
C771 C773 1.389 . S
C772 H745 0.950 . S
C772 C758 1.377 . S
C772 C771 1.373 . S
C773 C757 1.377 . S
C773 C771 1.389 . S
C773 C774 1.524 . S
C774 C773 1.524 . S
C774 C775 1.397 . S
C774 C779 1.363 . S
C775 H746 0.950 1_554 S
C775 C774 1.397 . S
C775 C776 1.334 1_554 S
C776 H747 0.950 . S
C776 C775 1.334 1_556 S
C776 C777 1.287 1_556 S
C777 C776 1.287 1_554 S
C777 C778 1.524 . S
C777 H780 0.998 . S
C778 H748 0.950 . S
C778 C777 1.524 . S
C778 C779 1.415 . S
C779 H749 0.950 . S
C779 C774 1.363 . S
C779 C778 1.415 . S
H780 C777 0.998 . S
H781 C762 0.913 . S
H782 C800 0.951 . S
H783 C802 0.951 . S
H784 C804 0.950 . S
H785 C805 0.950 . S
H786 C807 0.950 . S
H787 C810 0.950 . S
H788 C811 0.950 . S
H789 C813 0.950 . S
H790 C814 0.950 . S
H791 C815 0.951 . S
H792 C817 0.951 . S
H793 C819 0.950 . S
H794 C820 0.950 1_455 S
H795 C822 0.950 . S
H796 C825 0.950 . S
H797 C826 0.950 . S
H798 C828 0.950 . S
H799 C829 0.950 . S
C800 H782 0.951 . S
C800 C801 1.366 . S
C800 C802 1.388 . S
C801 C800 1.366 . S
C801 C805 1.385 . S
C802 H783 0.951 . S
C802 C800 1.388 . S
C802 C803 1.366 . S
C803 C802 1.366 . S
C803 C804 1.414 . S
C803 C806 1.499 . S
C804 H784 0.950 . S
C804 C803 1.414 . S
C804 C805 1.374 . S
C805 H785 0.950 . S
C805 C801 1.385 . S
C805 C804 1.374 . S
C806 C803 1.499 . S
C806 C807 1.373 . S
C806 C808 1.389 . S
C807 H786 0.950 . S
C807 C806 1.373 . S
C807 C823 1.377 . S
C808 C806 1.389 . S
C808 C809 1.524 . S
C808 C822 1.377 . S
C809 C808 1.524 . S
C809 C810 1.397 . S
C809 C814 1.363 . S
C810 H787 0.950 . S
C810 C809 1.397 . S
C810 C811 1.334 . S
C811 H788 0.950 . S
C811 C810 1.334 . S
C811 C812 1.287 . S
C812 C811 1.287 . S
C812 C813 1.524 . S
C812 H831 0.913 . S
C813 H789 0.950 . S
C813 C812 1.524 . S
C813 C814 1.415 . S
C814 H790 0.950 . S
C814 C809 1.363 . S
C814 C813 1.415 . S
C815 H791 0.951 . S
C815 C816 1.366 . S
C815 C817 1.388 . S
C816 C815 1.366 . S
C816 C820 1.385 . S
C817 H792 0.951 . S
C817 C815 1.388 . S
C817 C818 1.366 . S
C818 C817 1.366 . S
C818 C819 1.414 . S
C818 C821 1.499 . S
C819 H793 0.950 . S
C819 C818 1.414 . S
C819 C820 1.374 . S
C820 H794 0.950 1_655 S
C820 C816 1.385 . S
C820 C819 1.374 . S
C821 C818 1.499 . S
C821 C822 1.373 . S
C821 C823 1.389 . S
C822 H795 0.950 . S
C822 C808 1.377 . S
C822 C821 1.373 . S
C823 C807 1.377 . S
C823 C821 1.389 . S
C823 C824 1.524 . S
C824 C823 1.524 . S
C824 C825 1.397 . S
C824 C829 1.363 . S
C825 H796 0.950 . S
C825 C824 1.397 . S
C825 C826 1.334 . S
C826 H797 0.950 . S
C826 C825 1.334 . S
C826 C827 1.287 . S
C827 C826 1.287 . S
C827 C828 1.524 . S
C827 H830 0.999 . S
C828 H798 0.950 . S
C828 C827 1.524 . S
C828 C829 1.415 . S
C829 H799 0.950 . S
C829 C824 1.363 . S
C829 C828 1.415 . S
H830 C827 0.999 . S
H831 C812 0.913 . S
H832 C850 0.951 . S
H833 C852 0.951 . S
H834 C854 0.950 . S
H835 C855 0.950 . S
H836 C857 0.950 . S
H837 C860 0.950 . S
H838 C861 0.950 . S
H839 C863 0.950 . S
H840 C864 0.950 . S
H841 C865 0.951 . S
H842 C867 0.951 . S
H843 C869 0.950 . S
H844 C870 0.950 1_545 S
H845 C872 0.950 . S
H846 C875 0.950 . S
H847 C876 0.950 . S
H848 C878 0.950 . S
H849 C879 0.950 . S
C850 H832 0.951 . S
C850 C851 1.366 . S
C850 C852 1.388 . S
C851 C850 1.366 . S
C851 C855 1.385 . S
C852 H833 0.951 . S
C852 C850 1.388 . S
C852 C853 1.366 . S
C853 C852 1.366 . S
C853 C854 1.414 . S
C853 C856 1.499 . S
C854 H834 0.950 . S
C854 C853 1.414 . S
C854 C855 1.374 . S
C855 H835 0.950 . S
C855 C851 1.385 . S
C855 C854 1.374 . S
C856 C853 1.499 . S
C856 C857 1.373 . S
C856 C858 1.389 . S
C857 H836 0.950 . S
C857 C856 1.373 . S
C857 C873 1.377 . S
C858 C856 1.389 . S
C858 C859 1.524 . S
C858 C872 1.377 . S
C859 C858 1.524 . S
C859 C860 1.397 . S
C859 C864 1.363 . S
C860 H837 0.950 . S
C860 C859 1.397 . S
C860 C861 1.334 . S
C861 H838 0.950 . S
C861 C860 1.334 . S
C861 C862 1.287 . S
C862 C861 1.287 . S
C862 C863 1.524 . S
C862 H881 0.913 . S
C863 H839 0.950 . S
C863 C862 1.524 . S
C863 C864 1.415 . S
C864 H840 0.950 . S
C864 C859 1.363 . S
C864 C863 1.415 . S
C865 H841 0.951 . S
C865 C866 1.366 . S
C865 C867 1.388 . S
C866 C865 1.366 . S
C866 C870 1.385 . S
C867 H842 0.951 . S
C867 C865 1.388 . S
C867 C868 1.366 . S
C868 C867 1.366 . S
C868 C869 1.414 . S
C868 C871 1.499 . S
C869 H843 0.950 . S
C869 C868 1.414 . S
C869 C870 1.374 . S
C870 H844 0.950 1_565 S
C870 C866 1.385 . S
C870 C869 1.374 . S
C871 C868 1.499 . S
C871 C872 1.373 . S
C871 C873 1.389 . S
C872 H845 0.950 . S
C872 C858 1.377 . S
C872 C871 1.373 . S
C873 C857 1.377 . S
C873 C871 1.389 . S
C873 C874 1.524 . S
C874 C873 1.524 . S
C874 C875 1.397 . S
C874 C879 1.363 . S
C875 H846 0.950 . S
C875 C874 1.397 . S
C875 C876 1.334 . S
C876 H847 0.950 . S
C876 C875 1.334 . S
C876 C877 1.287 . S
C877 C876 1.287 . S
C877 C878 1.524 . S
C877 H880 0.999 . S
C878 H848 0.950 . S
C878 C877 1.524 . S
C878 C879 1.415 . S
C879 H849 0.950 . S
C879 C874 1.363 . S
C879 C878 1.415 . S
H880 C877 0.999 . S
H881 C862 0.913 . S
H882 C900 0.951 . S
H883 C902 0.951 . S
H884 C904 0.950 . S
H885 C905 0.950 . S
H886 C907 0.950 . S
H887 C910 0.950 . S
H888 C911 0.950 . S
H889 C913 0.950 . S
H890 C914 0.950 . S
H891 C915 0.951 . S
H892 C917 0.951 . S
H893 C919 0.950 . S
H894 C920 0.950 . S
H895 C922 0.950 . S
H896 C925 0.950 . S
H897 C926 0.950 . S
H898 C928 0.950 . S
H899 C929 0.950 . S
C900 H882 0.951 . S
C900 C901 1.366 . S
C900 C902 1.388 . S
C901 C900 1.366 . S
C901 C905 1.385 . S
C902 H883 0.951 . S
C902 C900 1.388 . S
C902 C903 1.366 . S
C903 C902 1.366 . S
C903 C904 1.414 . S
C903 C906 1.499 . S
C904 H884 0.950 . S
C904 C903 1.414 . S
C904 C905 1.374 . S
C905 H885 0.950 . S
C905 C901 1.385 . S
C905 C904 1.374 . S
C906 C903 1.499 . S
C906 C907 1.373 . S
C906 C908 1.389 . S
C907 H886 0.950 . S
C907 C906 1.373 . S
C907 C923 1.377 . S
C908 C906 1.389 . S
C908 C909 1.524 . S
C908 C922 1.377 . S
C909 C908 1.524 . S
C909 C910 1.397 . S
C909 C914 1.363 . S
C910 H887 0.950 . S
C910 C909 1.397 . S
C910 C911 1.334 . S
C911 H888 0.950 . S
C911 C910 1.334 . S
C911 C912 1.287 . S
C912 C911 1.287 . S
C912 C913 1.524 . S
C912 H931 0.913 . S
C913 H889 0.950 . S
C913 C912 1.524 . S
C913 C914 1.415 . S
C914 H890 0.950 . S
C914 C909 1.363 . S
C914 C913 1.415 . S
C915 H891 0.951 . S
C915 C916 1.366 . S
C915 C917 1.388 . S
C916 C915 1.366 . S
C916 C920 1.385 . S
C917 H892 0.951 . S
C917 C915 1.388 . S
C917 C918 1.366 . S
C918 C917 1.366 . S
C918 C919 1.414 . S
C918 C921 1.499 . S
C919 H893 0.950 . S
C919 C918 1.414 . S
C919 C920 1.374 . S
C920 H894 0.950 . S
C920 C916 1.385 . S
C920 C919 1.374 . S
C921 C918 1.499 . S
C921 C922 1.373 . S
C921 C923 1.389 . S
C922 H895 0.950 . S
C922 C908 1.377 . S
C922 C921 1.373 . S
C923 C907 1.377 . S
C923 C921 1.389 . S
C923 C924 1.524 . S
C924 C923 1.524 . S
C924 C925 1.397 . S
C924 C929 1.363 . S
C925 H896 0.950 . S
C925 C924 1.397 . S
C925 C926 1.334 . S
C926 H897 0.950 . S
C926 C925 1.334 . S
C926 C927 1.287 . S
C927 C926 1.287 . S
C927 C928 1.524 . S
C927 H930 0.999 . S
C928 H898 0.950 . S
C928 C927 1.524 . S
C928 C929 1.415 . S
C929 H899 0.950 . S
C929 C924 1.363 . S
C929 C928 1.415 . S
H930 C927 0.999 . S
H931 C912 0.913 . S
H932 C950 0.951 . S
H933 C952 0.951 . S
H934 C954 0.950 . S
H935 C955 0.950 . S
H936 C957 0.950 . S
H937 C960 0.950 . S
H938 C961 0.950 . S
H939 C963 0.950 . S
H940 C964 0.950 . S
H941 C965 0.951 . S
H942 C967 0.951 . S
H943 C969 0.950 . S
H944 C970 0.950 . S
H945 C972 0.950 . S
H946 C975 0.950 . S
H947 C976 0.950 . S
H948 C978 0.950 . S
H949 C979 0.950 . S
C950 H932 0.951 . S
C950 C951 1.366 . S
C950 C952 1.388 . S
C951 C950 1.366 . S
C951 C955 1.385 . S
C952 H933 0.951 . S
C952 C950 1.388 . S
C952 C953 1.366 . S
C953 C952 1.366 . S
C953 C954 1.414 . S
C953 C956 1.499 . S
C954 H934 0.950 . S
C954 C953 1.414 . S
C954 C955 1.374 . S
C955 H935 0.950 . S
C955 C951 1.385 . S
C955 C954 1.374 . S
C956 C953 1.499 . S
C956 C957 1.373 . S
C956 C958 1.389 . S
C957 H936 0.950 . S
C957 C956 1.373 . S
C957 C973 1.377 . S
C958 C956 1.389 . S
C958 C959 1.524 . S
C958 C972 1.377 . S
C959 C958 1.524 . S
C959 C960 1.397 . S
C959 C964 1.363 . S
C960 H937 0.950 . S
C960 C959 1.397 . S
C960 C961 1.334 . S
C961 H938 0.950 . S
C961 C960 1.334 . S
C961 C962 1.287 . S
C962 C961 1.287 . S
C962 C963 1.524 . S
C962 H981 0.913 . S
C963 H939 0.950 . S
C963 C962 1.524 . S
C963 C964 1.415 . S
C964 H940 0.950 . S
C964 C959 1.363 . S
C964 C963 1.415 . S
C965 H941 0.951 . S
C965 C966 1.366 . S
C965 C967 1.388 . S
C966 C965 1.366 . S
C966 C970 1.385 . S
C967 H942 0.951 . S
C967 C965 1.388 . S
C967 C968 1.366 . S
C968 C967 1.366 . S
C968 C969 1.414 . S
C968 C971 1.499 . S
C969 H943 0.950 . S
C969 C968 1.414 . S
C969 C970 1.374 . S
C970 H944 0.950 . S
C970 C966 1.385 . S
C970 C969 1.374 . S
C971 C968 1.499 . S
C971 C972 1.373 . S
C971 C973 1.389 . S
C972 H945 0.950 . S
C972 C958 1.377 . S
C972 C971 1.373 . S
C973 C957 1.377 . S
C973 C971 1.389 . S
C973 C974 1.524 . S
C974 C973 1.524 . S
C974 C975 1.397 . S
C974 C979 1.363 . S
C975 H946 0.950 . S
C975 C974 1.397 . S
C975 C976 1.334 . S
C976 H947 0.950 . S
C976 C975 1.334 . S
C976 C977 1.287 . S
C977 C976 1.287 . S
C977 C978 1.524 . S
C977 H980 0.999 . S
C978 H948 0.950 . S
C978 C977 1.524 . S
C978 C979 1.415 . S
C979 H949 0.950 . S
C979 C974 1.363 . S
C979 C978 1.415 . S
H980 C977 0.999 . S
H981 C962 0.913 . S
H982 C1000 0.951 . S
H983 C1002 0.951 . S
H984 C1004 0.950 . S
H985 C1005 0.950 1_565 S
H986 C1007 0.950 . S
H987 C1010 0.950 . S
H988 C1011 0.950 . S
H989 C1013 0.950 . S
H990 C1014 0.950 . S
H991 C1015 0.951 . S
H992 C1017 0.951 . S
H993 C1019 0.950 . S
H994 C1020 0.950 . S
H995 C1022 0.950 . S
H996 C1025 0.950 . S
H997 C1026 0.950 . S
H998 C1028 0.950 . S
H999 C1029 0.950 . S
C1000 H982 0.951 . S
C1000 C1001 1.366 . S
C1000 C1002 1.388 . S
C1001 C1000 1.366 . S
C1001 C1005 1.385 . S
C1002 H983 0.951 . S
C1002 C1000 1.388 . S
C1002 C1003 1.366 . S
C1003 C1002 1.366 . S
C1003 C1004 1.414 . S
C1003 C1006 1.499 . S
C1004 H984 0.950 . S
C1004 C1003 1.414 . S
C1004 C1005 1.374 . S
C1005 H985 0.950 1_545 S
C1005 C1001 1.385 . S
C1005 C1004 1.374 . S
C1006 C1003 1.499 . S
C1006 C1007 1.373 . S
C1006 C1008 1.389 . S
C1007 H986 0.950 . S
C1007 C1006 1.373 . S
C1007 C1023 1.377 . S
C1008 C1006 1.389 . S
C1008 C1009 1.524 . S
C1008 C1022 1.377 . S
C1009 C1008 1.524 . S
C1009 C1010 1.397 . S
C1009 C1014 1.363 . S
C1010 H987 0.950 . S
C1010 C1009 1.397 . S
C1010 C1011 1.334 . S
C1011 H988 0.950 . S
C1011 C1010 1.334 . S
C1011 C1012 1.287 . S
C1012 C1011 1.287 . S
C1012 C1013 1.524 . S
C1012 H1031 0.913 . S
C1013 H989 0.950 . S
C1013 C1012 1.524 . S
C1013 C1014 1.415 . S
C1014 H990 0.950 . S
C1014 C1009 1.363 . S
C1014 C1013 1.415 . S
C1015 H991 0.951 . S
C1015 C1016 1.366 . S
C1015 C1017 1.388 . S
C1016 C1015 1.366 . S
C1016 C1020 1.385 . S
C1017 H992 0.951 . S
C1017 C1015 1.388 . S
C1017 C1018 1.366 . S
C1018 C1017 1.366 . S
C1018 C1019 1.414 . S
C1018 C1021 1.499 . S
C1019 H993 0.950 . S
C1019 C1018 1.414 . S
C1019 C1020 1.374 . S
C1020 H994 0.950 . S
C1020 C1016 1.385 . S
C1020 C1019 1.374 . S
C1021 C1018 1.499 . S
C1021 C1022 1.373 . S
C1021 C1023 1.389 . S
C1022 H995 0.950 . S
C1022 C1008 1.377 . S
C1022 C1021 1.373 . S
C1023 C1007 1.377 . S
C1023 C1021 1.389 . S
C1023 C1024 1.524 . S
C1024 C1023 1.524 . S
C1024 C1025 1.397 . S
C1024 C1029 1.363 . S
C1025 H996 0.950 . S
C1025 C1024 1.397 . S
C1025 C1026 1.334 . S
C1026 H997 0.950 . S
C1026 C1025 1.334 . S
C1026 C1027 1.287 . S
C1027 C1026 1.287 . S
C1027 C1028 1.524 . S
C1027 H1030 0.999 . S
C1028 H998 0.950 . S
C1028 C1027 1.524 . S
C1028 C1029 1.415 . S
C1029 H999 0.950 . S
C1029 C1024 1.363 . S
C1029 C1028 1.415 . S
H1030 C1027 0.999 . S
H1031 C1012 0.913 . S
H1032 C1050 0.951 . S
H1033 C1052 0.951 . S
H1034 C1054 0.950 . S
H1035 C1055 0.950 . S
H1036 C1057 0.950 . S
H1037 C1060 0.950 . S
H1038 C1061 0.950 . S
H1039 C1063 0.950 . S
H1040 C1064 0.950 . S
H1041 C1065 0.951 . S
H1042 C1067 0.951 . S
H1043 C1069 0.950 . S
H1044 C1070 0.950 . S
H1045 C1072 0.950 . S
H1046 C1075 0.950 . S
H1047 C1076 0.950 . S
H1048 C1078 0.950 . S
H1049 C1079 0.950 . S
C1050 H1032 0.951 . S
C1050 C1051 1.366 . S
C1050 C1052 1.388 . S
C1051 C1050 1.366 . S
C1051 C1055 1.385 . S
C1052 H1033 0.951 . S
C1052 C1050 1.388 . S
C1052 C1053 1.366 . S
C1053 C1052 1.366 . S
C1053 C1054 1.414 . S
C1053 C1056 1.499 . S
C1054 H1034 0.950 . S
C1054 C1053 1.414 . S
C1054 C1055 1.374 . S
C1055 H1035 0.950 . S
C1055 C1051 1.385 . S
C1055 C1054 1.374 . S
C1056 C1053 1.499 . S
C1056 C1057 1.373 . S
C1056 C1058 1.389 . S
C1057 H1036 0.950 . S
C1057 C1056 1.373 . S
C1057 C1073 1.377 . S
C1058 C1056 1.389 . S
C1058 C1059 1.524 . S
C1058 C1072 1.377 . S
C1059 C1058 1.524 . S
C1059 C1060 1.397 . S
C1059 C1064 1.363 . S
C1060 H1037 0.950 . S
C1060 C1059 1.397 . S
C1060 C1061 1.334 . S
C1061 H1038 0.950 . S
C1061 C1060 1.334 . S
C1061 C1062 1.287 . S
C1062 C1061 1.287 . S
C1062 C1063 1.524 . S
C1062 H1081 0.913 . S
C1063 H1039 0.950 . S
C1063 C1062 1.524 . S
C1063 C1064 1.415 . S
C1064 H1040 0.950 . S
C1064 C1059 1.363 . S
C1064 C1063 1.415 . S
C1065 H1041 0.951 . S
C1065 C1066 1.366 . S
C1065 C1067 1.388 . S
C1066 C1065 1.366 . S
C1066 C1070 1.385 . S
C1067 H1042 0.951 . S
C1067 C1065 1.388 . S
C1067 C1068 1.366 . S
C1068 C1067 1.366 . S
C1068 C1069 1.414 . S
C1068 C1071 1.499 . S
C1069 H1043 0.950 . S
C1069 C1068 1.414 . S
C1069 C1070 1.374 . S
C1070 H1044 0.950 . S
C1070 C1066 1.385 . S
C1070 C1069 1.374 . S
C1071 C1068 1.499 . S
C1071 C1072 1.373 . S
C1071 C1073 1.389 . S
C1072 H1045 0.950 . S
C1072 C1058 1.377 . S
C1072 C1071 1.373 . S
C1073 C1057 1.377 . S
C1073 C1071 1.389 . S
C1073 C1074 1.524 . S
C1074 C1073 1.524 . S
C1074 C1075 1.397 . S
C1074 C1079 1.363 . S
C1075 H1046 0.950 . S
C1075 C1074 1.397 . S
C1075 C1076 1.334 . S
C1076 H1047 0.950 . S
C1076 C1075 1.334 . S
C1076 C1077 1.287 . S
C1077 C1076 1.287 . S
C1077 C1078 1.524 . S
C1077 H1080 0.999 . S
C1078 H1048 0.950 . S
C1078 C1077 1.524 . S
C1078 C1079 1.415 . S
C1079 H1049 0.950 . S
C1079 C1074 1.363 . S
C1079 C1078 1.415 . S
H1080 C1077 0.999 . S
H1081 C1062 0.913 . S
H1082 C1100 0.951 . S
H1083 C1102 0.951 . S
H1084 C1104 0.950 . S
H1085 C1105 0.950 . S
H1086 C1107 0.950 . S
H1087 C1110 0.950 . S
H1088 C1111 0.950 . S
H1089 C1113 0.950 . S
H1090 C1114 0.950 . S
H1091 C1115 0.951 1_455 S
H1092 C1117 0.951 . S
H1093 C1119 0.950 . S
H1094 C1120 0.950 . S
H1095 C1122 0.950 . S
H1096 C1125 0.950 . S
H1097 C1126 0.934 1_554 S
H1098 C1128 0.950 . S
H1099 C1129 0.950 . S
C1100 H1082 0.951 . S
C1100 C1101 1.366 . S
C1100 C1102 1.388 . S
C1101 C1100 1.366 . S
C1101 C1105 1.385 . S
C1102 H1083 0.951 . S
C1102 C1100 1.388 . S
C1102 C1103 1.366 . S
C1103 C1102 1.366 . S
C1103 C1104 1.414 . S
C1103 C1106 1.499 . S
C1104 H1084 0.950 . S
C1104 C1103 1.414 . S
C1104 C1105 1.374 . S
C1105 H1085 0.950 . S
C1105 C1101 1.385 . S
C1105 C1104 1.374 . S
C1106 C1103 1.499 . S
C1106 C1107 1.373 . S
C1106 C1108 1.389 . S
C1107 H1086 0.950 . S
C1107 C1106 1.373 . S
C1107 C1123 1.377 . S
C1108 C1106 1.389 . S
C1108 C1109 1.524 . S
C1108 C1122 1.377 . S
C1109 C1108 1.524 . S
C1109 C1110 1.397 . S
C1109 C1114 1.363 . S
C1110 H1087 0.950 . S
C1110 C1109 1.397 . S
C1110 C1111 1.334 . S
C1111 H1088 0.950 . S
C1111 C1110 1.334 . S
C1111 C1112 1.287 . S
C1112 C1111 1.287 . S
C1112 C1113 1.524 . S
C1112 H1131 0.913 . S
C1113 H1089 0.950 . S
C1113 C1112 1.524 . S
C1113 C1114 1.415 . S
C1114 H1090 0.950 . S
C1114 C1109 1.363 . S
C1114 C1113 1.415 . S
C1115 H1091 0.951 1_655 S
C1115 C1116 1.366 1_556 S
C1115 C1117 1.388 . S
C1116 C1115 1.366 1_554 S
C1116 C1120 1.385 . S
C1117 H1092 0.951 . S
C1117 C1115 1.388 . S
C1117 C1118 1.366 . S
C1118 C1117 1.366 . S
C1118 C1119 1.414 1_556 S
C1118 C1121 1.499 . S
C1119 H1093 0.950 . S
C1119 C1118 1.414 1_554 S
C1119 C1120 1.374 . S
C1120 H1094 0.950 . S
C1120 C1116 1.385 . S
C1120 C1119 1.374 . S
C1121 C1118 1.499 . S
C1121 C1122 1.373 . S
C1121 C1123 1.389 . S
C1122 H1095 0.950 . S
C1122 C1108 1.377 . S
C1122 C1121 1.373 . S
C1123 C1107 1.377 . S
C1123 C1121 1.389 . S
C1123 C1124 1.524 . S
C1124 C1123 1.524 . S
C1124 C1125 1.397 . S
C1124 C1129 1.363 . S
C1125 H1096 0.950 . S
C1125 C1124 1.397 . S
C1125 C1126 1.334 . S
C1126 H1097 0.934 1_556 S
C1126 C1125 1.334 . S
C1126 C1127 1.287 . S
C1127 C1126 1.287 . S
C1127 C1128 1.524 . S
C1127 H1130 0.999 . S
C1128 H1098 0.950 . S
C1128 C1127 1.524 . S
C1128 C1129 1.415 . S
C1129 H1099 0.950 . S
C1129 C1124 1.363 . S
C1129 C1128 1.415 . S
H1130 C1127 0.999 . S
H1131 C1112 0.913 . S
H1132 C1150 0.951 . S
H1133 C1152 0.951 . S
H1134 C1154 0.950 . S
H1135 C1155 0.950 1_545 S
H1136 C1157 0.950 . S
H1137 C1160 0.950 . S
H1138 C1161 0.950 . S
H1139 C1163 0.950 . S
H1140 C1164 0.950 . S
H1141 C1165 0.951 . S
H1142 C1167 0.951 . S
H1143 C1169 0.950 . S
H1144 C1170 0.950 . S
H1145 C1172 0.950 . S
H1146 C1175 0.950 . S
H1147 C1176 0.950 . S
H1148 C1178 0.950 . S
H1149 C1179 0.950 . S
C1150 H1132 0.951 . S
C1150 C1151 1.366 . S
C1150 C1152 1.388 . S
C1151 C1150 1.366 . S
C1151 C1155 1.385 . S
C1152 H1133 0.951 . S
C1152 C1150 1.388 . S
C1152 C1153 1.366 . S
C1153 C1152 1.366 . S
C1153 C1154 1.414 . S
C1153 C1156 1.499 . S
C1154 H1134 0.950 . S
C1154 C1153 1.414 . S
C1154 C1155 1.374 . S
C1155 H1135 0.950 1_565 S
C1155 C1151 1.385 . S
C1155 C1154 1.374 . S
C1156 C1153 1.499 . S
C1156 C1157 1.373 . S
C1156 C1158 1.389 . S
C1157 H1136 0.950 . S
C1157 C1156 1.373 . S
C1157 C1173 1.377 . S
C1158 C1156 1.389 . S
C1158 C1159 1.524 . S
C1158 C1172 1.377 . S
C1159 C1158 1.524 . S
C1159 C1160 1.397 . S
C1159 C1164 1.363 . S
C1160 H1137 0.950 . S
C1160 C1159 1.397 . S
C1160 C1161 1.334 . S
C1161 H1138 0.950 . S
C1161 C1160 1.334 . S
C1161 C1162 1.287 . S
C1162 C1161 1.287 . S
C1162 C1163 1.524 . S
C1162 H1181 0.913 . S
C1163 H1139 0.950 . S
C1163 C1162 1.524 . S
C1163 C1164 1.415 . S
C1164 H1140 0.950 . S
C1164 C1159 1.363 . S
C1164 C1163 1.415 . S
C1165 H1141 0.951 . S
C1165 C1166 1.366 . S
C1165 C1167 1.388 . S
C1166 C1165 1.366 . S
C1166 C1170 1.385 . S
C1167 H1142 0.951 . S
C1167 C1165 1.388 . S
C1167 C1168 1.366 . S
C1168 C1167 1.366 . S
C1168 C1169 1.414 . S
C1168 C1171 1.499 . S
C1169 H1143 0.950 . S
C1169 C1168 1.414 . S
C1169 C1170 1.374 . S
C1170 H1144 0.950 . S
C1170 C1166 1.385 . S
C1170 C1169 1.374 . S
C1171 C1168 1.499 . S
C1171 C1172 1.373 . S
C1171 C1173 1.389 . S
C1172 H1145 0.950 . S
C1172 C1158 1.377 . S
C1172 C1171 1.373 . S
C1173 C1157 1.377 . S
C1173 C1171 1.389 . S
C1173 C1174 1.524 . S
C1174 C1173 1.524 . S
C1174 C1175 1.397 . S
C1174 C1179 1.363 . S
C1175 H1146 0.950 . S
C1175 C1174 1.397 . S
C1175 C1176 1.334 . S
C1176 H1147 0.950 . S
C1176 C1175 1.334 . S
C1176 C1177 1.287 . S
C1177 C1176 1.287 . S
C1177 C1178 1.524 . S
C1177 H1180 0.999 . S
C1178 H1148 0.950 . S
C1178 C1177 1.524 . S
C1178 C1179 1.415 . S
C1179 H1149 0.950 . S
C1179 C1174 1.363 . S
C1179 C1178 1.415 . S
H1180 C1177 0.999 . S
H1181 C1162 0.913 . S
H1182 C1200 0.951 . S
H1183 C1202 0.951 . S
H1184 C1204 0.950 . S
H1185 C1205 0.950 . S
H1186 C1207 0.950 . S
H1187 C1210 0.950 . S
H1188 C1211 0.950 . S
H1189 C1213 0.950 . S
H1190 C1214 0.950 . S
H1191 C1215 0.951 . S
H1192 C1217 0.951 . S
H1193 C1219 0.950 . S
H1194 C1220 0.950 . S
H1195 C1222 0.950 . S
H1196 C1225 0.950 . S
H1197 C1226 0.950 . S
H1198 C1228 0.950 . S
H1199 C1229 0.950 . S
C1200 H1182 0.951 . S
C1200 C1201 1.366 . S
C1200 C1202 1.388 . S
C1201 C1200 1.366 . S
C1201 C1205 1.385 . S
C1202 H1183 0.951 . S
C1202 C1200 1.388 . S
C1202 C1203 1.366 . S
C1203 C1202 1.366 . S
C1203 C1204 1.414 . S
C1203 C1206 1.499 . S
C1204 H1184 0.950 . S
C1204 C1203 1.414 . S
C1204 C1205 1.374 . S
C1205 H1185 0.950 . S
C1205 C1201 1.385 . S
C1205 C1204 1.374 . S
C1206 C1203 1.499 . S
C1206 C1207 1.373 . S
C1206 C1208 1.389 . S
C1207 H1186 0.950 . S
C1207 C1206 1.373 . S
C1207 C1223 1.377 . S
C1208 C1206 1.389 . S
C1208 C1209 1.524 . S
C1208 C1222 1.377 . S
C1209 C1208 1.524 . S
C1209 C1210 1.397 . S
C1209 C1214 1.363 . S
C1210 H1187 0.950 . S
C1210 C1209 1.397 . S
C1210 C1211 1.334 . S
C1211 H1188 0.950 . S
C1211 C1210 1.334 . S
C1211 C1212 1.287 . S
C1212 C1211 1.287 . S
C1212 C1213 1.524 . S
C1212 H1231 0.913 . S
C1213 H1189 0.950 . S
C1213 C1212 1.524 . S
C1213 C1214 1.415 . S
C1214 H1190 0.950 . S
C1214 C1209 1.363 . S
C1214 C1213 1.415 . S
C1215 H1191 0.951 . S
C1215 C1216 1.366 . S
C1215 C1217 1.388 . S
C1216 C1215 1.366 . S
C1216 C1220 1.385 . S
C1217 H1192 0.951 . S
C1217 C1215 1.388 . S
C1217 C1218 1.366 . S
C1218 C1217 1.366 . S
C1218 C1219 1.414 . S
C1218 C1221 1.499 . S
C1219 H1193 0.950 . S
C1219 C1218 1.414 . S
C1219 C1220 1.374 . S
C1220 H1194 0.950 . S
C1220 C1216 1.385 . S
C1220 C1219 1.374 . S
C1221 C1218 1.499 . S
C1221 C1222 1.373 . S
C1221 C1223 1.389 . S
C1222 H1195 0.950 . S
C1222 C1208 1.377 . S
C1222 C1221 1.373 . S
C1223 C1207 1.377 . S
C1223 C1221 1.389 . S
C1223 C1224 1.524 . S
C1224 C1223 1.524 . S
C1224 C1225 1.397 . S
C1224 C1229 1.363 . S
C1225 H1196 0.950 . S
C1225 C1224 1.397 . S
C1225 C1226 1.334 . S
C1226 H1197 0.950 . S
C1226 C1225 1.334 . S
C1226 C1227 1.287 . S
C1227 C1226 1.287 . S
C1227 C1228 1.524 . S
C1227 H1230 0.999 . S
C1228 H1198 0.950 . S
C1228 C1227 1.524 . S
C1228 C1229 1.415 . S
C1229 H1199 0.950 . S
C1229 C1224 1.363 . S
C1229 C1228 1.415 . S
H1230 C1227 0.999 . S
H1231 C1212 0.913 . S
H1232 C1250 0.951 . S
H1233 C1252 0.951 . S
H1234 C1254 0.950 . S
H1235 C1255 0.950 . S
H1236 C1257 0.950 . S
H1237 C1260 0.950 . S
H1238 C1261 0.950 . S
H1239 C1263 0.950 . S
H1240 C1264 0.950 . S
H1241 C1265 0.951 1_655 S
H1242 C1267 0.951 . S
H1243 C1269 0.950 . S
H1244 C1270 0.950 . S
H1245 C1272 0.950 . S
H1246 C1275 0.950 . S
H1247 C1276 0.950 . S
H1248 C1278 0.950 . S
H1249 C1279 0.950 . S
C1250 H1232 0.951 . S
C1250 C1251 1.366 . S
C1250 C1252 1.388 . S
C1251 C1250 1.366 . S
C1251 C1255 1.385 . S
C1252 H1233 0.951 . S
C1252 C1250 1.388 . S
C1252 C1253 1.366 . S
C1253 C1252 1.366 . S
C1253 C1254 1.414 . S
C1253 C1256 1.499 . S
C1254 H1234 0.950 . S
C1254 C1253 1.414 . S
C1254 C1255 1.374 . S
C1255 H1235 0.950 . S
C1255 C1251 1.385 . S
C1255 C1254 1.374 . S
C1256 C1253 1.499 . S
C1256 C1257 1.373 . S
C1256 C1258 1.389 . S
C1257 H1236 0.950 . S
C1257 C1256 1.373 . S
C1257 C1273 1.377 . S
C1258 C1256 1.389 . S
C1258 C1259 1.524 . S
C1258 C1272 1.377 . S
C1259 C1258 1.524 . S
C1259 C1260 1.397 . S
C1259 C1264 1.363 . S
C1260 H1237 0.950 . S
C1260 C1259 1.397 . S
C1260 C1261 1.334 . S
C1261 H1238 0.950 . S
C1261 C1260 1.334 . S
C1261 C1262 1.287 . S
C1262 C1261 1.287 . S
C1262 C1263 1.524 . S
C1262 H1281 0.913 . S
C1263 H1239 0.950 . S
C1263 C1262 1.524 . S
C1263 C1264 1.415 . S
C1264 H1240 0.950 . S
C1264 C1259 1.363 . S
C1264 C1263 1.415 . S
C1265 H1241 0.951 1_455 S
C1265 C1266 1.366 . S
C1265 C1267 1.388 . S
C1266 C1265 1.366 . S
C1266 C1270 1.385 . S
C1267 H1242 0.951 . S
C1267 C1265 1.388 . S
C1267 C1268 1.366 . S
C1268 C1267 1.366 . S
C1268 C1269 1.414 . S
C1268 C1271 1.499 . S
C1269 H1243 0.950 . S
C1269 C1268 1.414 . S
C1269 C1270 1.374 . S
C1270 H1244 0.950 . S
C1270 C1266 1.385 . S
C1270 C1269 1.374 . S
C1271 C1268 1.499 . S
C1271 C1272 1.373 . S
C1271 C1273 1.389 . S
C1272 H1245 0.950 . S
C1272 C1258 1.377 . S
C1272 C1271 1.373 . S
C1273 C1257 1.377 . S
C1273 C1271 1.389 . S
C1273 C1274 1.524 . S
C1274 C1273 1.524 . S
C1274 C1275 1.397 . S
C1274 C1279 1.363 . S
C1275 H1246 0.950 . S
C1275 C1274 1.397 . S
C1275 C1276 1.334 . S
C1276 H1247 0.950 . S
C1276 C1275 1.334 . S
C1276 C1277 1.287 . S
C1277 C1276 1.287 . S
C1277 C1278 1.524 . S
C1277 H1280 0.999 . S
C1278 H1248 0.950 . S
C1278 C1277 1.524 . S
C1278 C1279 1.415 . S
C1279 H1249 0.950 . S
C1279 C1274 1.363 . S
C1279 C1278 1.415 . S
H1280 C1277 0.999 . S
H1281 C1262 0.913 . S
H1282 C1300 0.951 . S
H1283 C1302 0.951 . S
H1284 C1304 0.950 . S
H1285 C1305 0.950 . S
H1286 C1307 0.950 . S
H1287 C1310 0.950 . S
H1288 C1311 0.950 . S
H1289 C1313 0.950 . S
H1290 C1314 0.950 . S
H1291 C1315 0.951 . S
H1292 C1317 0.951 . S
H1293 C1319 0.950 . S
H1294 C1320 0.950 1_565 S
H1295 C1322 0.950 . S
H1296 C1325 0.950 . S
H1297 C1326 0.950 . S
H1298 C1328 0.950 . S
H1299 C1329 0.950 . S
C1300 H1282 0.951 . S
C1300 C1301 1.366 . S
C1300 C1302 1.388 . S
C1301 C1300 1.366 . S
C1301 C1305 1.385 . S
C1302 H1283 0.951 . S
C1302 C1300 1.388 . S
C1302 C1303 1.366 . S
C1303 C1302 1.366 . S
C1303 C1304 1.414 . S
C1303 C1306 1.499 . S
C1304 H1284 0.950 . S
C1304 C1303 1.414 . S
C1304 C1305 1.374 . S
C1305 H1285 0.950 . S
C1305 C1301 1.385 . S
C1305 C1304 1.374 . S
C1306 C1303 1.499 . S
C1306 C1307 1.373 . S
C1306 C1308 1.389 . S
C1307 H1286 0.950 . S
C1307 C1306 1.373 . S
C1307 C1323 1.377 . S
C1308 C1306 1.389 . S
C1308 C1309 1.524 . S
C1308 C1322 1.377 . S
C1309 C1308 1.524 . S
C1309 C1310 1.397 . S
C1309 C1314 1.363 . S
C1310 H1287 0.950 . S
C1310 C1309 1.397 . S
C1310 C1311 1.334 . S
C1311 H1288 0.950 . S
C1311 C1310 1.334 . S
C1311 C1312 1.287 . S
C1312 C1311 1.287 . S
C1312 C1313 1.524 . S
C1312 H1331 0.913 . S
C1313 H1289 0.950 . S
C1313 C1312 1.524 . S
C1313 C1314 1.415 . S
C1314 H1290 0.950 . S
C1314 C1309 1.363 . S
C1314 C1313 1.415 . S
C1315 H1291 0.951 . S
C1315 C1316 1.366 . S
C1315 C1317 1.388 . S
C1316 C1315 1.366 . S
C1316 C1320 1.385 . S
C1317 H1292 0.951 . S
C1317 C1315 1.388 . S
C1317 C1318 1.366 . S
C1318 C1317 1.366 . S
C1318 C1319 1.414 . S
C1318 C1321 1.499 . S
C1319 H1293 0.950 . S
C1319 C1318 1.414 . S
C1319 C1320 1.374 . S
C1320 H1294 0.950 1_545 S
C1320 C1316 1.385 . S
C1320 C1319 1.374 . S
C1321 C1318 1.499 . S
C1321 C1322 1.373 . S
C1321 C1323 1.389 . S
C1322 H1295 0.950 . S
C1322 C1308 1.377 . S
C1322 C1321 1.373 . S
C1323 C1307 1.377 . S
C1323 C1321 1.389 . S
C1323 C1324 1.524 . S
C1324 C1323 1.524 . S
C1324 C1325 1.397 . S
C1324 C1329 1.363 . S
C1325 H1296 0.950 . S
C1325 C1324 1.397 . S
C1325 C1326 1.334 . S
C1326 H1297 0.950 . S
C1326 C1325 1.334 . S
C1326 C1327 1.287 . S
C1327 C1326 1.287 . S
C1327 C1328 1.524 . S
C1327 H1330 0.999 . S
C1328 H1298 0.950 . S
C1328 C1327 1.524 . S
C1328 C1329 1.415 . S
C1329 H1299 0.950 . S
C1329 C1324 1.363 . S
C1329 C1328 1.415 . S
H1330 C1327 0.999 . S
H1331 C1312 0.913 . S
H1332 C1350 0.951 . S
H1333 C1352 0.951 . S
H1334 C1354 0.950 . S
H1335 C1355 0.950 . S
H1336 C1357 0.950 . S
H1337 C1360 0.950 . S
H1338 C1361 0.950 . S
H1339 C1363 0.950 . S
H1340 C1364 0.950 . S
H1341 C1365 0.951 . S
H1342 C1367 0.951 . S
H1343 C1369 0.950 . S
H1344 C1370 0.950 . S
H1345 C1372 0.950 . S
H1346 C1375 0.950 . S
H1347 C1376 0.950 . S
H1348 C1378 0.950 . S
H1349 C1379 0.950 . S
C1350 H1332 0.951 . S
C1350 C1351 1.366 . S
C1350 C1352 1.388 . S
C1351 C1350 1.366 . S
C1351 C1355 1.385 . S
C1352 H1333 0.951 . S
C1352 C1350 1.388 . S
C1352 C1353 1.366 . S
C1353 C1352 1.366 . S
C1353 C1354 1.414 . S
C1353 C1356 1.499 . S
C1354 H1334 0.950 . S
C1354 C1353 1.414 . S
C1354 C1355 1.374 . S
C1355 H1335 0.950 . S
C1355 C1351 1.385 . S
C1355 C1354 1.374 . S
C1356 C1353 1.499 . S
C1356 C1357 1.373 . S
C1356 C1358 1.389 . S
C1357 H1336 0.950 . S
C1357 C1356 1.373 . S
C1357 C1373 1.377 . S
C1358 C1356 1.389 . S
C1358 C1359 1.524 . S
C1358 C1372 1.377 . S
C1359 C1358 1.524 . S
C1359 C1360 1.397 . S
C1359 C1364 1.363 . S
C1360 H1337 0.950 . S
C1360 C1359 1.397 . S
C1360 C1361 1.334 . S
C1361 H1338 0.950 . S
C1361 C1360 1.334 . S
C1361 C1362 1.287 . S
C1362 C1361 1.287 . S
C1362 C1363 1.524 . S
C1362 H1381 0.913 . S
C1363 H1339 0.950 . S
C1363 C1362 1.524 . S
C1363 C1364 1.415 . S
C1364 H1340 0.950 . S
C1364 C1359 1.363 . S
C1364 C1363 1.415 . S
C1365 H1341 0.951 . S
C1365 C1366 1.366 . S
C1365 C1367 1.388 . S
C1366 C1365 1.366 . S
C1366 C1370 1.385 . S
C1367 H1342 0.951 . S
C1367 C1365 1.388 . S
C1367 C1368 1.366 . S
C1368 C1367 1.366 . S
C1368 C1369 1.414 . S
C1368 C1371 1.499 . S
C1369 H1343 0.950 . S
C1369 C1368 1.414 . S
C1369 C1370 1.374 . S
C1370 H1344 0.950 . S
C1370 C1366 1.385 . S
C1370 C1369 1.374 . S
C1371 C1368 1.499 . S
C1371 C1372 1.373 . S
C1371 C1373 1.389 . S
C1372 H1345 0.950 . S
C1372 C1358 1.377 . S
C1372 C1371 1.373 . S
C1373 C1357 1.377 . S
C1373 C1371 1.389 . S
C1373 C1374 1.524 . S
C1374 C1373 1.524 . S
C1374 C1375 1.397 . S
C1374 C1379 1.363 . S
C1375 H1346 0.950 . S
C1375 C1374 1.397 . S
C1375 C1376 1.334 . S
C1376 H1347 0.950 . S
C1376 C1375 1.334 . S
C1376 C1377 1.287 . S
C1377 C1376 1.287 . S
C1377 C1378 1.524 . S
C1377 H1380 0.999 . S
C1378 H1348 0.950 . S
C1378 C1377 1.524 . S
C1378 C1379 1.415 . S
C1379 H1349 0.950 . S
C1379 C1374 1.363 . S
C1379 C1378 1.415 . S
H1380 C1377 0.999 . S
H1381 C1362 0.913 . S
H1382 C1400 0.951 . S
H1383 C1402 0.951 . S
H1384 C1404 0.950 . S
H1385 C1405 0.950 . S
H1386 C1407 0.950 . S
H1387 C1410 0.950 . S
H1388 C1411 0.950 . S
H1389 C1413 0.950 . S
H1390 C1414 0.950 . S
H1391 C1415 0.951 . S
H1392 C1417 0.951 . S
H1393 C1419 0.950 . S
H1394 C1420 0.950 . S
H1395 C1422 0.950 . S
H1396 C1425 0.950 . S
H1397 C1426 0.950 . S
H1398 C1428 0.950 . S
H1399 C1429 0.950 . S
C1400 H1382 0.951 . S
C1400 C1401 1.366 . S
C1400 C1402 1.388 . S
C1401 C1400 1.366 . S
C1401 C1405 1.385 . S
C1402 H1383 0.951 . S
C1402 C1400 1.388 . S
C1402 C1403 1.366 . S
C1403 C1402 1.366 . S
C1403 C1404 1.414 . S
C1403 C1406 1.499 . S
C1404 H1384 0.950 . S
C1404 C1403 1.414 . S
C1404 C1405 1.374 . S
C1405 H1385 0.950 . S
C1405 C1401 1.385 . S
C1405 C1404 1.374 . S
C1406 C1403 1.499 . S
C1406 C1407 1.373 . S
C1406 C1408 1.389 . S
C1407 H1386 0.950 . S
C1407 C1406 1.373 . S
C1407 C1423 1.377 . S
C1408 C1406 1.389 . S
C1408 C1409 1.524 . S
C1408 C1422 1.377 . S
C1409 C1408 1.524 . S
C1409 C1410 1.397 . S
C1409 C1414 1.363 . S
C1410 H1387 0.950 . S
C1410 C1409 1.397 . S
C1410 C1411 1.334 . S
C1411 H1388 0.950 . S
C1411 C1410 1.334 . S
C1411 C1412 1.287 . S
C1412 C1411 1.287 . S
C1412 C1413 1.524 . S
C1412 H1431 0.913 . S
C1413 H1389 0.950 . S
C1413 C1412 1.524 . S
C1413 C1414 1.415 . S
C1414 H1390 0.950 . S
C1414 C1409 1.363 . S
C1414 C1413 1.415 . S
C1415 H1391 0.951 . S
C1415 C1416 1.366 . S
C1415 C1417 1.388 . S
C1416 C1415 1.366 . S
C1416 C1420 1.385 . S
C1417 H1392 0.951 . S
C1417 C1415 1.388 . S
C1417 C1418 1.366 . S
C1418 C1417 1.366 . S
C1418 C1419 1.414 . S
C1418 C1421 1.499 . S
C1419 H1393 0.950 . S
C1419 C1418 1.414 . S
C1419 C1420 1.374 . S
C1420 H1394 0.950 . S
C1420 C1416 1.385 . S
C1420 C1419 1.374 . S
C1421 C1418 1.499 . S
C1421 C1422 1.373 . S
C1421 C1423 1.389 . S
C1422 H1395 0.950 . S
C1422 C1408 1.377 . S
C1422 C1421 1.373 . S
C1423 C1407 1.377 . S
C1423 C1421 1.389 . S
C1423 C1424 1.524 . S
C1424 C1423 1.524 . S
C1424 C1425 1.397 . S
C1424 C1429 1.363 . S
C1425 H1396 0.950 . S
C1425 C1424 1.397 . S
C1425 C1426 1.334 . S
C1426 H1397 0.950 . S
C1426 C1425 1.334 . S
C1426 C1427 1.287 . S
C1427 C1426 1.287 . S
C1427 C1428 1.524 . S
C1427 H1430 0.999 . S
C1428 H1398 0.950 . S
C1428 C1427 1.524 . S
C1428 C1429 1.415 . S
C1429 H1399 0.950 . S
C1429 C1424 1.363 . S
C1429 C1428 1.415 . S
H1430 C1427 0.999 . S
H1431 C1412 0.913 . S
H1432 C1450 0.951 . S
H1433 C1452 0.951 . S
H1434 C1454 0.950 . S
H1435 C1455 0.950 . S
H1436 C1457 0.950 . S
H1437 C1460 0.950 . S
H1438 C1461 0.950 . S
H1439 C1463 0.950 . S
H1440 C1464 0.950 . S
H1441 C1465 0.951 . S
H1442 C1467 0.951 . S
H1443 C1469 0.950 . S
H1444 C1470 0.950 . S
H1445 C1472 0.950 . S
H1446 C1475 0.950 . S
H1447 C1476 0.950 . S
H1448 C1478 0.950 . S
H1449 C1479 0.950 . S
C1450 H1432 0.951 . S
C1450 C1451 1.366 . S
C1450 C1452 1.388 . S
C1451 C1450 1.366 . S
C1451 C1455 1.385 . S
C1452 H1433 0.951 . S
C1452 C1450 1.388 . S
C1452 C1453 1.366 . S
C1453 C1452 1.366 . S
C1453 C1454 1.414 . S
C1453 C1456 1.499 . S
C1454 H1434 0.950 . S
C1454 C1453 1.414 . S
C1454 C1455 1.374 . S
C1455 H1435 0.950 . S
C1455 C1451 1.385 . S
C1455 C1454 1.374 . S
C1456 C1453 1.499 . S
C1456 C1457 1.373 . S
C1456 C1458 1.389 . S
C1457 H1436 0.950 . S
C1457 C1456 1.373 . S
C1457 C1473 1.377 . S
C1458 C1456 1.389 . S
C1458 C1459 1.524 . S
C1458 C1472 1.377 . S
C1459 C1458 1.524 . S
C1459 C1460 1.397 . S
C1459 C1464 1.363 . S
C1460 H1437 0.950 . S
C1460 C1459 1.397 . S
C1460 C1461 1.334 . S
C1461 H1438 0.950 . S
C1461 C1460 1.334 . S
C1461 C1462 1.287 . S
C1462 C1461 1.287 . S
C1462 C1463 1.524 . S
C1462 H1481 0.913 . S
C1463 H1439 0.950 . S
C1463 C1462 1.524 . S
C1463 C1464 1.415 . S
C1464 H1440 0.950 . S
C1464 C1459 1.363 . S
C1464 C1463 1.415 . S
C1465 H1441 0.951 . S
C1465 C1466 1.366 . S
C1465 C1467 1.388 . S
C1466 C1465 1.366 . S
C1466 C1470 1.385 . S
C1467 H1442 0.951 . S
C1467 C1465 1.388 . S
C1467 C1468 1.366 . S
C1468 C1467 1.366 . S
C1468 C1469 1.414 . S
C1468 C1471 1.499 . S
C1469 H1443 0.950 . S
C1469 C1468 1.414 . S
C1469 C1470 1.374 . S
C1470 H1444 0.950 . S
C1470 C1466 1.385 . S
C1470 C1469 1.374 . S
C1471 C1468 1.499 . S
C1471 C1472 1.373 . S
C1471 C1473 1.389 . S
C1472 H1445 0.950 . S
C1472 C1458 1.377 . S
C1472 C1471 1.373 . S
C1473 C1457 1.377 . S
C1473 C1471 1.389 . S
C1473 C1474 1.524 . S
C1474 C1473 1.524 . S
C1474 C1475 1.397 . S
C1474 C1479 1.363 . S
C1475 H1446 0.950 . S
C1475 C1474 1.397 . S
C1475 C1476 1.334 . S
C1476 H1447 0.950 . S
C1476 C1475 1.334 . S
C1476 C1477 1.287 . S
C1477 C1476 1.287 . S
C1477 C1478 1.524 . S
C1477 H1480 0.999 . S
C1478 H1448 0.950 . S
C1478 C1477 1.524 . S
C1478 C1479 1.415 . S
C1479 H1449 0.950 . S
C1479 C1474 1.363 . S
C1479 C1478 1.415 . S
H1480 C1477 0.999 . S
H1481 C1462 0.913 . S
H1482 C1500 0.951 . S
H1483 C1502 0.951 . S
H1484 C1504 0.950 . S
H1485 C1505 0.950 . S
H1486 C1507 0.950 . S
H1487 C1510 0.950 . S
H1488 C1511 0.950 . S
H1489 C1513 0.950 . S
H1490 C1514 0.950 . S
H1491 C1515 0.951 . S
H1492 C1517 0.951 . S
H1493 C1519 0.950 . S
H1494 C1520 0.950 . S
H1495 C1522 0.950 . S
H1496 C1525 0.950 . S
H1497 C1526 0.950 . S
H1498 C1528 0.950 . S
H1499 C1529 0.950 . S
C1500 H1482 0.951 . S
C1500 C1501 1.366 . S
C1500 C1502 1.388 . S
C1501 C1500 1.366 . S
C1501 C1505 1.385 . S
C1502 H1483 0.951 . S
C1502 C1500 1.388 . S
C1502 C1503 1.366 . S
C1503 C1502 1.366 . S
C1503 C1504 1.414 . S
C1503 C1506 1.499 . S
C1504 H1484 0.950 . S
C1504 C1503 1.414 . S
C1504 C1505 1.374 . S
C1505 H1485 0.950 . S
C1505 C1501 1.385 . S
C1505 C1504 1.374 . S
C1506 C1503 1.499 . S
C1506 C1507 1.373 . S
C1506 C1508 1.389 . S
C1507 H1486 0.950 . S
C1507 C1506 1.373 . S
C1507 C1523 1.377 . S
C1508 C1506 1.389 . S
C1508 C1509 1.524 . S
C1508 C1522 1.377 . S
C1509 C1508 1.524 . S
C1509 C1510 1.397 . S
C1509 C1514 1.363 . S
C1510 H1487 0.950 . S
C1510 C1509 1.397 . S
C1510 C1511 1.334 . S
C1511 H1488 0.950 . S
C1511 C1510 1.334 . S
C1511 C1512 1.287 . S
C1512 C1511 1.287 . S
C1512 C1513 1.524 . S
C1512 H1531 0.913 . S
C1513 H1489 0.950 . S
C1513 C1512 1.524 . S
C1513 C1514 1.415 . S
C1514 H1490 0.950 . S
C1514 C1509 1.363 . S
C1514 C1513 1.415 . S
C1515 H1491 0.951 . S
C1515 C1516 1.366 . S
C1515 C1517 1.388 . S
C1516 C1515 1.366 . S
C1516 C1520 1.385 . S
C1517 H1492 0.951 . S
C1517 C1515 1.388 . S
C1517 C1518 1.366 . S
C1518 C1517 1.366 . S
C1518 C1519 1.414 . S
C1518 C1521 1.499 . S
C1519 H1493 0.950 . S
C1519 C1518 1.414 . S
C1519 C1520 1.374 . S
C1520 H1494 0.950 . S
C1520 C1516 1.385 . S
C1520 C1519 1.374 . S
C1521 C1518 1.499 . S
C1521 C1522 1.373 . S
C1521 C1523 1.389 . S
C1522 H1495 0.950 . S
C1522 C1508 1.377 . S
C1522 C1521 1.373 . S
C1523 C1507 1.377 . S
C1523 C1521 1.389 . S
C1523 C1524 1.524 . S
C1524 C1523 1.524 . S
C1524 C1525 1.397 . S
C1524 C1529 1.363 . S
C1525 H1496 0.950 . S
C1525 C1524 1.397 . S
C1525 C1526 1.334 . S
C1526 H1497 0.950 . S
C1526 C1525 1.334 . S
C1526 C1527 1.287 . S
C1527 C1526 1.287 . S
C1527 C1528 1.524 . S
C1527 H1530 0.999 . S
C1528 H1498 0.950 . S
C1528 C1527 1.524 . S
C1528 C1529 1.415 . S
C1529 H1499 0.950 . S
C1529 C1524 1.363 . S
C1529 C1528 1.415 . S
H1530 C1527 0.999 . S
H1531 C1512 0.913 . S
H1532 C1550 0.951 . S
H1533 C1552 0.951 . S
H1534 C1554 0.950 . S
H1535 C1555 0.950 . S
H1536 C1557 0.950 . S
H1537 C1560 0.950 . S
H1538 C1561 0.950 . S
H1539 C1563 0.950 . S
H1540 C1564 0.950 . S
H1541 C1565 0.951 . S
H1542 C1567 0.951 . S
H1543 C1569 0.950 . S
H1544 C1570 0.950 . S
H1545 C1572 0.950 . S
H1546 C1575 0.950 . S
H1547 C1576 0.950 . S
H1548 C1578 0.950 . S
H1549 C1579 0.950 . S
C1550 H1532 0.951 . S
C1550 C1551 1.366 . S
C1550 C1552 1.388 . S
C1551 C1550 1.366 . S
C1551 C1555 1.385 . S
C1552 H1533 0.951 . S
C1552 C1550 1.388 . S
C1552 C1553 1.366 . S
C1553 C1552 1.366 . S
C1553 C1554 1.414 . S
C1553 C1556 1.499 . S
C1554 H1534 0.950 . S
C1554 C1553 1.414 . S
C1554 C1555 1.374 . S
C1555 H1535 0.950 . S
C1555 C1551 1.385 . S
C1555 C1554 1.374 . S
C1556 C1553 1.499 . S
C1556 C1557 1.373 . S
C1556 C1558 1.389 . S
C1557 H1536 0.950 . S
C1557 C1556 1.373 . S
C1557 C1573 1.377 . S
C1558 C1556 1.389 . S
C1558 C1559 1.524 . S
C1558 C1572 1.377 . S
C1559 C1558 1.524 . S
C1559 C1560 1.397 . S
C1559 C1564 1.363 . S
C1560 H1537 0.950 . S
C1560 C1559 1.397 . S
C1560 C1561 1.334 . S
C1561 H1538 0.950 . S
C1561 C1560 1.334 . S
C1561 C1562 1.287 . S
C1562 C1561 1.287 . S
C1562 C1563 1.524 . S
C1562 H1581 0.913 . S
C1563 H1539 0.950 . S
C1563 C1562 1.524 . S
C1563 C1564 1.415 . S
C1564 H1540 0.950 . S
C1564 C1559 1.363 . S
C1564 C1563 1.415 . S
C1565 H1541 0.951 . S
C1565 C1566 1.366 . S
C1565 C1567 1.388 . S
C1566 C1565 1.366 . S
C1566 C1570 1.385 . S
C1567 H1542 0.951 . S
C1567 C1565 1.388 . S
C1567 C1568 1.366 . S
C1568 C1567 1.366 . S
C1568 C1569 1.414 . S
C1568 C1571 1.499 . S
C1569 H1543 0.950 . S
C1569 C1568 1.414 . S
C1569 C1570 1.374 . S
C1570 H1544 0.950 . S
C1570 C1566 1.385 . S
C1570 C1569 1.374 . S
C1571 C1568 1.499 . S
C1571 C1572 1.373 . S
C1571 C1573 1.389 . S
C1572 H1545 0.950 . S
C1572 C1558 1.377 . S
C1572 C1571 1.373 . S
C1573 C1557 1.377 . S
C1573 C1571 1.389 . S
C1573 C1574 1.524 . S
C1574 C1573 1.524 . S
C1574 C1575 1.397 . S
C1574 C1579 1.363 . S
C1575 H1546 0.950 . S
C1575 C1574 1.397 . S
C1575 C1576 1.334 . S
C1576 H1547 0.950 . S
C1576 C1575 1.334 . S
C1576 C1577 1.287 . S
C1577 C1576 1.287 . S
C1577 C1578 1.524 . S
C1577 H1580 0.999 . S
C1578 H1548 0.950 . S
C1578 C1577 1.524 . S
C1578 C1579 1.415 . S
C1579 H1549 0.950 . S
C1579 C1574 1.363 . S
C1579 C1578 1.415 . S
H1580 C1577 0.999 . S
H1581 C1562 0.913 . S
H1582 C1600 0.951 . S
H1583 C1602 0.951 . S
H1584 C1604 0.950 . S
H1585 C1605 0.950 . S
H1586 C1607 0.950 . S
H1587 C1610 0.950 . S
H1588 C1611 0.950 . S
H1589 C1613 0.950 . S
H1590 C1614 0.950 . S
H1591 C1615 0.951 . S
H1592 C1617 0.951 . S
H1593 C1619 0.950 . S
H1594 C1620 0.950 1_556 S
H1595 C1622 0.950 . S
H1596 C1625 0.950 . S
H1597 C1626 0.950 . S
H1598 C1628 0.950 . S
H1599 C1629 0.950 . S
C1600 H1582 0.951 . S
C1600 C1601 1.366 . S
C1600 C1602 1.388 . S
C1601 C1600 1.366 . S
C1601 C1605 1.385 . S
C1602 H1583 0.951 . S
C1602 C1600 1.388 . S
C1602 C1603 1.366 . S
C1603 C1602 1.366 . S
C1603 C1604 1.414 . S
C1603 C1606 1.499 . S
C1604 H1584 0.950 . S
C1604 C1603 1.414 . S
C1604 C1605 1.374 . S
C1605 H1585 0.950 . S
C1605 C1601 1.385 . S
C1605 C1604 1.374 . S
C1606 C1603 1.499 . S
C1606 C1607 1.373 . S
C1606 C1608 1.389 . S
C1607 H1586 0.950 . S
C1607 C1606 1.373 . S
C1607 C1623 1.377 . S
C1608 C1606 1.389 . S
C1608 C1609 1.524 . S
C1608 C1622 1.377 . S
C1609 C1608 1.524 . S
C1609 C1610 1.397 . S
C1609 C1614 1.363 . S
C1610 H1587 0.950 . S
C1610 C1609 1.397 . S
C1610 C1611 1.334 . S
C1611 H1588 0.950 . S
C1611 C1610 1.334 . S
C1611 C1612 1.287 . S
C1612 C1611 1.287 . S
C1612 C1613 1.524 . S
C1612 H1631 0.913 . S
C1613 H1589 0.950 . S
C1613 C1612 1.524 . S
C1613 C1614 1.415 . S
C1614 H1590 0.950 . S
C1614 C1609 1.363 . S
C1614 C1613 1.415 . S
C1615 H1591 0.951 . S
C1615 C1616 1.366 . S
C1615 C1617 1.388 . S
C1616 C1615 1.366 . S
C1616 C1620 1.385 . S
C1617 H1592 0.951 . S
C1617 C1615 1.388 . S
C1617 C1618 1.366 . S
C1618 C1617 1.366 . S
C1618 C1619 1.414 . S
C1618 C1621 1.499 . S
C1619 H1593 0.950 . S
C1619 C1618 1.414 . S
C1619 C1620 1.374 . S
C1620 H1594 0.950 1_554 S
C1620 C1616 1.385 . S
C1620 C1619 1.374 . S
C1621 C1618 1.499 . S
C1621 C1622 1.373 . S
C1621 C1623 1.389 . S
C1622 H1595 0.950 . S
C1622 C1608 1.377 . S
C1622 C1621 1.373 . S
C1623 C1607 1.377 . S
C1623 C1621 1.389 . S
C1623 C1624 1.524 . S
C1624 C1623 1.524 . S
C1624 C1625 1.397 . S
C1624 C1629 1.363 . S
C1625 H1596 0.950 . S
C1625 C1624 1.397 . S
C1625 C1626 1.334 . S
C1626 H1597 0.950 . S
C1626 C1625 1.334 . S
C1626 C1627 1.287 . S
C1627 C1626 1.287 . S
C1627 C1628 1.524 . S
C1627 H1630 0.999 . S
C1628 H1598 0.950 . S
C1628 C1627 1.524 . S
C1628 C1629 1.415 . S
C1629 H1599 0.950 . S
C1629 C1624 1.363 . S
C1629 C1628 1.415 . S
H1630 C1627 0.999 . S
H1631 C1612 0.913 . S
C451 C302 1.167 . S
C466 C14 1.168 . S
C501 C50 1.167 . S
C516 C338 1.167 . S
C551 C86 1.166 . S
C566 C374 1.168 . S
C601 C122 1.167 . S
C616 C410 1.168 . S
C651 C230 1.167 . S
C666 C158 1.168 . S
C701 C194 1.167 . S
C716 C266 1.167 . S
C751 C4 1.499 . S
C766 C183 1.514 . S
C801 C40 1.499 . S
C816 C3 1.515 1_655 S
C851 C76 1.499 . S
C866 C39 1.514 1_565 S
C901 C75 1.515 . S
C916 C112 1.499 . S
C951 C111 1.514 1_455 S
C966 C148 1.499 . S
C1001 C147 1.514 1_545 S
C1016 C184 1.499 . S
C1051 C255 1.514 . S
C1066 C220 1.499 . S
C1101 C256 1.499 . S
C1116 C291 1.514 1_655 S
C1151 C327 1.514 1_565 S
C1166 C292 1.499 . S
C1201 C328 1.499 . S
C1216 C363 1.515 . S
C1251 C364 1.498 . S
C1266 C399 1.514 1_455 S
C1301 C400 1.499 . S
C1316 C219 1.514 1_545 S
C1351 C362 1.170 . S
C1366 C2 1.169 . S
C1401 C398 1.170 . S
C1416 C38 1.170 . S
C1451 C218 1.170 . S
C1466 C74 1.171 . S
C1501 C110 1.170 . S
C1516 C254 1.170 . S
C1551 C146 1.170 . S
C1566 C290 1.170 1_556 S
C1601 C326 1.170 . S
C1616 C182 1.170 1_554 S
