# Generated by pormake.
# Topology yfx, (5)-cn, num edge types: 1
# Building blocks:
#     Node 0, Type 0, BuildingBlock: BEQFEK_clean_sbu_0, # of connection points: 5
#     Node 1, Type 0, BuildingBlock: BEQFEK_clean_sbu_0, # of connection points: 5
#     Node 2, Type 0, BuildingBlock: BEQFEK_clean_sbu_0, # of connection points: 5
#     Node 3, Type 0, BuildingBlock: BEQFEK_clean_sbu_0, # of connection points: 5
#     Node 4, Type 0, BuildingBlock: BEQFEK_clean_sbu_0, # of connection points: 5
#     Node 5, Type 0, BuildingBlock: BEQFEK_clean_sbu_0, # of connection points: 5
#     Node 6, Type 0, BuildingBlock: BEQFEK_clean_sbu_0, # of connection points: 5
#     Node 7, Type 0, BuildingBlock: BEQFEK_clean_sbu_0, # of connection points: 5
#     Edge 8, Type (0, 0), BuildingBlock: TEMPAE_clean_linker_10, # of connection points: 2
#     Edge 9, Type (0, 0), BuildingBlock: TEMPAE_clean_linker_10, # of connection points: 2
#     Edge 10, Type (0, 0), BuildingBlock: TEMPAE_clean_linker_10, # of connection points: 2
#     Edge 11, Type (0, 0), BuildingBlock: TEMPAE_clean_linker_10, # of connection points: 2
#     Edge 12, Type (0, 0), BuildingBlock: TEMPAE_clean_linker_10, # of connection points: 2
#     Edge 13, Type (0, 0), BuildingBlock: TEMPAE_clean_linker_10, # of connection points: 2
#     Edge 14, Type (0, 0), BuildingBlock: TEMPAE_clean_linker_10, # of connection points: 2
#     Edge 15, Type (0, 0), BuildingBlock: TEMPAE_clean_linker_10, # of connection points: 2
#     Edge 16, Type (0, 0), BuildingBlock: TEMPAE_clean_linker_10, # of connection points: 2
#     Edge 17, Type (0, 0), BuildingBlock: TEMPAE_clean_linker_10, # of connection points: 2
#     Edge 18, Type (0, 0), BuildingBlock: TEMPAE_clean_linker_10, # of connection points: 2
#     Edge 19, Type (0, 0), BuildingBlock: TEMPAE_clean_linker_10, # of connection points: 2
#     Edge 20, Type (0, 0), BuildingBlock: TEMPAE_clean_linker_10, # of connection points: 2
#     Edge 21, Type (0, 0), BuildingBlock: TEMPAE_clean_linker_10, # of connection points: 2
#     Edge 22, Type (0, 0), BuildingBlock: TEMPAE_clean_linker_10, # of connection points: 2
#     Edge 23, Type (0, 0), BuildingBlock: TEMPAE_clean_linker_10, # of connection points: 2
#     Edge 24, Type (0, 0), BuildingBlock: TEMPAE_clean_linker_10, # of connection points: 2
#     Edge 25, Type (0, 0), BuildingBlock: TEMPAE_clean_linker_10, # of connection points: 2
#     Edge 26, Type (0, 0), BuildingBlock: TEMPAE_clean_linker_10, # of connection points: 2
#     Edge 27, Type (0, 0), BuildingBlock: TEMPAE_clean_linker_10, # of connection points: 2
# Relax obj value: 0.163
# Max RMSD: 0.153
# Mean RMSD: 0.153
data_MOF--net-yfx--node1-BEQFEK_clean_sbu_0--edge1-TEMPAE_clean_linker_10
_symmetry_space_group_name_H-M    P1
_symmetry_Int_Tables_number       1
_symmetry_cell_setting            triclinic
loop_
_symmetry_equiv_pos_as_xyz
'x, y, z'
_cell_length_a     39.956242
_cell_length_b     40.00929
_cell_length_c     22.429713
_cell_angle_alpha  90.009024
_cell_angle_beta   90.008281
_cell_angle_gamma 89.979586
loop_
_atom_site_label
_atom_site_type_symbol
_atom_site_fract_x
_atom_site_fract_y
_atom_site_fract_z
_atom_type_partial_charge
Co0 Co 0.26254 0.35587 0.00698 0.0
Co1 Co 0.18778 0.36938 0.04562 0.0
C2 C 0.20712 0.3184 0.95139 0.0
O3 O 0.2378 0.32519 0.95845 0.0
O4 O 0.18407 0.33338 0.98075 0.0
C5 C 0.32177 0.33751 0.9416 0.0
O6 O 0.30179 0.33126 0.89647 0.0
C7 C 0.12086 0.40254 0.02972 0.0
C8 C 0.10441 0.40675 0.1233 0.0
C9 C 0.09559 0.41586 0.06576 0.0
N10 N 0.14369 0.38714 0.06478 0.0
N11 N 0.13329 0.38946 0.12054 0.0
C12 C 0.12257 0.40297 0.96304 0.0
H13 H 0.13819 0.38195 0.9467 0.0
H14 H 0.13406 0.42658 0.94745 0.0
H15 H 0.09703 0.40133 0.94377 0.0
C16 C 0.26155 0.4268 0.98079 0.0
N17 N 0.24603 0.39886 0.99872 0.0
N18 N 0.21599 0.40603 0.01931 0.0
C19 C 0.21219 0.43964 0.01742 0.0
C20 C 0.24062 0.45357 0.99171 0.0
C21 C 0.29701 0.42773 0.95928 0.0
H22 H 0.31372 0.41841 0.99512 0.0
H23 H 0.29974 0.41071 0.92051 0.0
H24 H 0.30497 0.45329 0.94653 0.0
O25 O 0.26004 0.34243 0.08932 0.0
O26 O 0.20781 0.34835 0.12085 0.0
H27 H 0.17297 0.44499 0.08238 0.0
H28 H 0.19061 0.48395 0.05725 0.0
C29 C 0.18321 0.45844 0.0433 0.0
H30 H 0.16344 0.4612 0.00914 0.0
H31 H 0.14655 0.38026 0.15712 0.0
O32 O 0.3102 0.35082 0.98864 0.0
C33 C 0.23827 0.3399 0.13007 0.0
Co34 Co 0.65414 0.25854 0.96538 0.0
Co35 Co 0.63722 0.18711 0.01651 0.0
C36 C 0.68638 0.19887 0.91501 0.0
O37 O 0.68088 0.22992 0.91726 0.0
O38 O 0.67184 0.17827 0.95018 0.0
C39 C 0.69262 0.31148 0.93489 0.0
O40 O 0.71451 0.28762 0.94494 0.0
C41 C 0.5985 0.12304 0.01043 0.0
C42 C 0.60165 0.10567 0.10357 0.0
C43 C 0.58752 0.0978 0.04884 0.0
N44 N 0.61761 0.14482 0.0415 0.0
N45 N 0.61948 0.13401 0.09706 0.0
C46 C 0.5925 0.12562 0.94474 0.0
H47 H 0.61181 0.14169 0.92368 0.0
H48 H 0.56768 0.13701 0.93633 0.0
H49 H 0.5927 0.10039 0.92414 0.0
C50 C 0.58282 0.26161 0.94654 0.0
N51 N 0.61012 0.2446 0.96304 0.0
N52 N 0.60159 0.2165 0.9895 0.0
C53 C 0.56779 0.21584 0.99362 0.0
C54 C 0.55487 0.24431 0.96601 0.0
C55 C 0.58411 0.29391 0.91288 0.0
H56 H 0.6053 0.29348 0.88092 0.0
H57 H 0.56049 0.29843 0.88812 0.0
H58 H 0.58838 0.31474 0.94466 0.0
O59 O 0.66993 0.25871 0.04725 0.0
O60 O 0.66081 0.20891 0.08745 0.0
H61 H 0.52684 0.2044 0.05268 0.0
H62 H 0.5387 0.17125 0.00337 0.0
C63 C 0.54854 0.19176 0.03152 0.0
H64 H 0.56473 0.18113 0.06685 0.0
H65 H 0.63244 0.14634 0.13094 0.0
O66 O 0.66161 0.3046 0.93823 0.0
C67 C 0.67176 0.2389 0.09125 0.0
Co68 Co 0.74626 0.64694 0.97541 0.0
Co69 Co 0.8195 0.6344 0.02395 0.0
C70 C 0.8043 0.67956 0.91865 0.0
O71 O 0.77353 0.67256 0.92231 0.0
O72 O 0.82585 0.66758 0.95508 0.0
C73 C 0.69193 0.68284 0.94287 0.0
O74 O 0.71548 0.70542 0.94987 0.0
C75 C 0.88617 0.60031 0.01604 0.0
C76 C 0.90096 0.59881 0.11074 0.0
C77 C 0.91068 0.58791 0.05464 0.0
N78 N 0.86288 0.61691 0.04828 0.0
N79 N 0.87228 0.61621 0.10475 0.0
C80 C 0.88557 0.5978 0.94944 0.0
H81 H 0.87085 0.61867 0.93013 0.0
H82 H 0.87364 0.57406 0.9356 0.0
H83 H 0.91145 0.59814 0.93144 0.0
C84 C 0.7463 0.57502 0.96216 0.0
N85 N 0.76167 0.60347 0.97759 0.0
N86 N 0.79124 0.59697 0.00096 0.0
C87 C 0.79479 0.56334 0.0034 0.0
C88 C 0.76678 0.54864 0.97763 0.0
C89 C 0.71167 0.57353 0.9368 0.0
H90 H 0.69401 0.58557 0.96838 0.0
H91 H 0.71087 0.58797 0.89458 0.0
H92 H 0.70339 0.54749 0.92849 0.0
O93 O 0.74716 0.66578 0.05495 0.0
O94 O 0.79772 0.65899 0.09387 0.0
H95 H 0.83314 0.56004 0.0704 0.0
H96 H 0.81555 0.52042 0.04883 0.0
C97 C 0.82333 0.54535 0.03241 0.0
H98 H 0.84351 0.5413 0.99943 0.0
H99 H 0.85849 0.62662 0.13962 0.0
O100 O 0.69946 0.65217 0.94943 0.0
C101 C 0.76751 0.66946 0.09782 0.0
Co102 Co 0.35637 0.74367 0.98814 0.0
Co103 Co 0.37244 0.81711 0.03228 0.0
C104 C 0.32207 0.80246 0.93542 0.0
O105 O 0.32829 0.77161 0.94001 0.0
O106 O 0.33682 0.82428 0.96778 0.0
C107 C 0.31812 0.69019 0.9581 0.0
O108 O 0.29602 0.71378 0.96863 0.0
C109 C 0.40611 0.88419 0.02222 0.0
C110 C 0.41309 0.89672 0.11718 0.0
C111 C 0.42043 0.90796 0.06018 0.0
N112 N 0.39179 0.8599 0.05556 0.0
N113 N 0.39583 0.86794 0.11225 0.0
C114 C 0.40463 0.88528 0.95555 0.0
H115 H 0.38352 0.86989 0.93894 0.0
H116 H 0.42808 0.87516 0.93641 0.0
H117 H 0.40184 0.91148 0.94 0.0
C118 C 0.42776 0.74175 0.96655 0.0
N119 N 0.40019 0.75826 0.98356 0.0
N120 N 0.40819 0.78802 0.00436 0.0
C121 C 0.44194 0.79078 0.00276 0.0
C122 C 0.45517 0.7618 0.97778 0.0
C123 C 0.42759 0.70627 0.94533 0.0
H124 H 0.41517 0.69034 0.97924 0.0
H125 H 0.41268 0.70455 0.90369 0.0
H126 H 0.45319 0.69658 0.93722 0.0
O127 O 0.34176 0.7445 0.07028 0.0
O128 O 0.35008 0.79574 0.10523 0.0
H129 H 0.45018 0.82842 0.06934 0.0
H130 H 0.48799 0.81343 0.03426 0.0
C131 C 0.46134 0.81982 0.0268 0.0
H132 H 0.46055 0.84055 0.99428 0.0
H133 H 0.38764 0.85324 0.14778 0.0
O134 O 0.34908 0.69731 0.96167 0.0
C135 C 0.34 0.76561 0.11231 0.0
Co136 Co 0.76321 0.85768 0.47496 0.0
Co137 Co 0.69022 0.87082 0.52365 0.0
C138 C 0.70488 0.82549 0.41836 0.0
O139 O 0.7357 0.83225 0.42197 0.0
O140 O 0.68346 0.83766 0.45481 0.0
C141 C 0.81714 0.82131 0.44284 0.0
O142 O 0.79345 0.79895 0.4505 0.0
C143 C 0.62371 0.90527 0.5166 0.0
C144 C 0.60901 0.90618 0.61137 0.0
C145 C 0.59923 0.91738 0.5555 0.0
N146 N 0.64705 0.88851 0.54846 0.0
N147 N 0.63772 0.8889 0.60497 0.0
C148 C 0.62418 0.90814 0.45005 0.0
H149 H 0.63958 0.88789 0.43034 0.0
H150 H 0.63522 0.93236 0.43657 0.0
H151 H 0.5983 0.90702 0.43215 0.0
C152 C 0.76407 0.92958 0.46246 0.0
N153 N 0.74825 0.90128 0.47727 0.0
N154 N 0.71875 0.90805 0.50062 0.0
C155 C 0.71565 0.94172 0.50356 0.0
C156 C 0.74393 0.95617 0.47825 0.0
C157 C 0.79888 0.9307 0.43784 0.0
H158 H 0.81615 0.91821 0.46953 0.0
H159 H 0.79972 0.91652 0.39534 0.0
H160 H 0.80763 0.95665 0.43023 0.0
O161 O 0.76237 0.8389 0.55451 0.0
O162 O 0.71189 0.8461 0.59349 0.0
H163 H 0.67733 0.94528 0.57055 0.0
H164 H 0.69517 0.98481 0.54897 0.0
C165 C 0.68724 0.95992 0.53259 0.0
H166 H 0.66708 0.96404 0.49961 0.0
H167 H 0.65154 0.87825 0.63958 0.0
O168 O 0.80984 0.85207 0.44873 0.0
C169 C 0.74202 0.83542 0.59742 0.0
Co170 Co 0.15247 0.7609 0.48862 0.0
Co171 Co 0.13676 0.68742 0.53271 0.0
C172 C 0.18695 0.70248 0.43545 0.0
O173 O 0.18066 0.73332 0.44013 0.0
O174 O 0.17229 0.68061 0.46784 0.0
C175 C 0.19025 0.81483 0.45968 0.0
O176 O 0.21253 0.79143 0.4704 0.0
C177 C 0.10215 0.62102 0.52149 0.0
C178 C 0.09679 0.60698 0.6161 0.0
C179 C 0.08812 0.59688 0.559 0.0
N180 N 0.11756 0.64446 0.55522 0.0
N181 N 0.11451 0.6355 0.61166 0.0
C182 C 0.10235 0.62104 0.45474 0.0
H183 H 0.12339 0.63638 0.43772 0.0
H184 H 0.07873 0.63183 0.43752 0.0
H185 H 0.10441 0.59507 0.43765 0.0
C186 C 0.08112 0.76246 0.46697 0.0
N187 N 0.10875 0.74608 0.484 0.0
N188 N 0.10084 0.71645 0.50545 0.0
C189 C 0.06708 0.71375 0.50462 0.0
C190 C 0.05377 0.74253 0.4791 0.0
C191 C 0.08117 0.79779 0.44493 0.0
H192 H 0.09272 0.81413 0.47922 0.0
H193 H 0.09682 0.79945 0.40417 0.0
H194 H 0.05559 0.80704 0.43514 0.0
O195 O 0.16716 0.75991 0.57077 0.0
O196 O 0.15912 0.70863 0.60574 0.0
H197 H 0.06015 0.67589 0.57139 0.0
H198 H 0.02169 0.69256 0.54164 0.0
C199 C 0.04769 0.68522 0.53056 0.0
H200 H 0.04621 0.66475 0.49755 0.0
H201 H 0.12362 0.64947 0.64745 0.0
O202 O 0.15936 0.8074 0.46272 0.0
C203 C 0.16907 0.73881 0.61279 0.0
Co204 Co 0.24759 0.15023 0.50029 0.0
Co205 Co 0.32154 0.13535 0.54308 0.0
C206 C 0.30551 0.18602 0.44774 0.0
O207 O 0.27477 0.17922 0.45269 0.0
O208 O 0.3278 0.17138 0.47925 0.0
C209 C 0.19364 0.18795 0.47332 0.0
O210 O 0.21685 0.20984 0.48738 0.0
C211 C 0.38823 0.10159 0.53075 0.0
C212 C 0.40279 0.09611 0.62511 0.0
C213 C 0.41269 0.08769 0.56778 0.0
N214 N 0.3648 0.11667 0.56495 0.0
N215 N 0.37405 0.11357 0.62124 0.0
C216 C 0.38785 0.10194 0.464 0.0
H217 H 0.37266 0.12321 0.44743 0.0
H218 H 0.37659 0.07857 0.44681 0.0
H219 H 0.41376 0.10369 0.44642 0.0
C220 C 0.24705 0.07907 0.4769 0.0
N221 N 0.26308 0.10683 0.49425 0.0
N222 N 0.2929 0.09925 0.51542 0.0
C223 C 0.29606 0.06557 0.51427 0.0
C224 C 0.26741 0.05198 0.48869 0.0
C225 C 0.21162 0.07871 0.45516 0.0
H226 H 0.19514 0.08951 0.49002 0.0
H227 H 0.20952 0.09481 0.41505 0.0
H228 H 0.20288 0.05311 0.44439 0.0
O229 O 0.24854 0.16437 0.58289 0.0
O230 O 0.30034 0.15714 0.61641 0.0
H231 H 0.33393 0.0591 0.58131 0.0
H232 H 0.3175 0.0205 0.5519 0.0
C233 C 0.32473 0.04646 0.54056 0.0
H234 H 0.34527 0.04497 0.50766 0.0
H235 H 0.36014 0.12245 0.6573 0.0
O236 O 0.20105 0.15703 0.47402 0.0
C237 C 0.27002 0.16656 0.62433 0.0
Co238 Co 0.85736 0.24698 0.46986 0.0
Co239 Co 0.87017 0.31988 0.5188 0.0
C240 C 0.82338 0.30498 0.41546 0.0
O241 O 0.83049 0.27427 0.41875 0.0
O242 O 0.83604 0.32651 0.45115 0.0
C243 C 0.82063 0.19316 0.44139 0.0
O244 O 0.79859 0.21685 0.45171 0.0
C245 C 0.90486 0.3862 0.51108 0.0
C246 C 0.90563 0.40135 0.60561 0.0
C247 C 0.91701 0.41081 0.54968 0.0
N248 N 0.88791 0.36312 0.54316 0.0
N249 N 0.88821 0.37273 0.59953 0.0
C250 C 0.90792 0.38531 0.44457 0.0
H251 H 0.8875 0.37006 0.42497 0.0
H252 H 0.93207 0.37387 0.43154 0.0
H253 H 0.90717 0.41106 0.42618 0.0
C254 C 0.92933 0.24671 0.45575 0.0
N255 N 0.90086 0.2625 0.46998 0.0
N256 N 0.90747 0.29181 0.49409 0.0
C257 C 0.94113 0.2948 0.49821 0.0
C258 C 0.95584 0.26665 0.47286 0.0
C259 C 0.93061 0.21167 0.43242 0.0
H260 H 0.91934 0.1946 0.46583 0.0
H261 H 0.91533 0.20995 0.39122 0.0
H262 H 0.95656 0.2034 0.42299 0.0
O263 O 0.84025 0.24719 0.55066 0.0
O264 O 0.84669 0.29769 0.58972 0.0
H265 H 0.94398 0.33151 0.56804 0.0
H266 H 0.9839 0.31457 0.54595 0.0
C267 C 0.95898 0.32259 0.5297 0.0
H268 H 0.96309 0.34353 0.49837 0.0
H269 H 0.87744 0.35914 0.63429 0.0
O270 O 0.8516 0.20041 0.44378 0.0
C271 C 0.83698 0.26728 0.59395 0.0
C272 C 0.49387 0.23431 0.94801 0.0
C273 C 0.51981 0.25605 0.96401 0.0
C274 C 0.46081 0.24596 0.94323 0.0
C275 C 0.45395 0.28023 0.95337 0.0
C276 C 0.48009 0.30214 0.96999 0.0
C277 C 0.51254 0.28959 0.9764 0.0
C278 C 0.43329 0.22169 0.92745 0.0
C279 C 0.47386 0.33892 0.98072 0.0
C280 C 0.37473 0.31962 0.89153 0.0
C281 C 0.3556 0.32302 0.94341 0.0
C282 C 0.40684 0.30536 0.89384 0.0
C283 C 0.41931 0.29327 0.94894 0.0
C284 C 0.3995 0.29564 0.00097 0.0
C285 C 0.36811 0.31098 0.99773 0.0
C286 C 0.42774 0.30403 0.83784 0.0
C287 C 0.41151 0.28219 0.06019 0.0
H288 H 0.49949 0.20836 0.93846 0.0
H289 H 0.53234 0.3062 0.99087 0.0
H290 H 0.41356 0.22221 0.96226 0.0
H291 H 0.42136 0.22918 0.88485 0.0
H292 H 0.44266 0.19566 0.92295 0.0
H293 H 0.49736 0.35291 0.98957 0.0
H294 H 0.46132 0.35017 0.94139 0.0
H295 H 0.45691 0.34222 0.01941 0.0
H296 H 0.3649 0.32878 0.84954 0.0
H297 H 0.35299 0.31293 0.03774 0.0
H298 H 0.43551 0.27794 0.8285 0.0
H299 H 0.4509 0.31893 0.84419 0.0
H300 H 0.41411 0.31389 0.7984 0.0
H301 H 0.41962 0.2558 0.0553 0.0
H302 H 0.39186 0.28347 0.09517 0.0
H303 H 0.43352 0.29669 0.07564 0.0
C304 C 0.7386 0.35311 0.92657 0.0
C305 C 0.7042 0.34631 0.92943 0.0
C306 C 0.75055 0.38592 0.93027 0.0
C307 C 0.7275 0.41247 0.93674 0.0
C308 C 0.69268 0.40596 0.9365 0.0
C309 C 0.6814 0.37286 0.93277 0.0
C310 C 0.78786 0.392 0.93001 0.0
C311 C 0.6674 0.43381 0.94283 0.0
C312 C 0.75498 0.49149 0.01564 0.0
C313 C 0.75986 0.51307 0.96747 0.0
C314 C 0.74513 0.45831 0.00613 0.0
C315 C 0.73981 0.44687 0.94709 0.0
C316 C 0.74536 0.46855 0.89828 0.0
C317 C 0.75536 0.50152 0.90916 0.0
C318 C 0.73956 0.43577 0.05923 0.0
C319 C 0.73989 0.45719 0.83482 0.0
H320 H 0.75635 0.33268 0.92342 0.0
H321 H 0.65478 0.36774 0.93483 0.0
H322 H 0.79442 0.41139 0.89666 0.0
H323 H 0.79583 0.40147 0.9743 0.0
H324 H 0.80229 0.36894 0.91989 0.0
H325 H 0.64127 0.4248 0.93743 0.0
H326 H 0.66985 0.44545 0.98752 0.0
H327 H 0.6722 0.45361 0.9093 0.0
H328 H 0.7579 0.50087 0.0607 0.0
H329 H 0.75901 0.51858 0.87216 0.0
H330 H 0.75475 0.41269 0.05469 0.0
H331 H 0.71291 0.42808 0.06116 0.0
H332 H 0.74619 0.44814 0.10198 0.0
H333 H 0.75485 0.4344 0.82558 0.0
H334 H 0.74679 0.47674 0.80188 0.0
H335 H 0.71319 0.45055 0.82821 0.0
C336 C 0.64971 0.72765 0.92706 0.0
C337 C 0.65684 0.6937 0.93619 0.0
C338 C 0.61679 0.73954 0.92914 0.0
C339 C 0.5904 0.71689 0.94045 0.0
C340 C 0.59722 0.68232 0.94656 0.0
C341 C 0.63046 0.67109 0.94431 0.0
C342 C 0.61044 0.77655 0.92205 0.0
C343 C 0.56958 0.65743 0.95817 0.0
C344 C 0.51238 0.74995 0.01612 0.0
C345 C 0.49042 0.7528 0.96789 0.0
C346 C 0.54523 0.73864 0.00762 0.0
C347 C 0.55598 0.72967 0.94959 0.0
C348 C 0.53385 0.7328 0.90066 0.0
C349 C 0.50124 0.74442 0.91047 0.0
C350 C 0.56823 0.73577 0.06082 0.0
C351 C 0.54444 0.72334 0.83828 0.0
H352 H 0.66999 0.74523 0.92014 0.0
H353 H 0.63584 0.64482 0.95126 0.0
H354 H 0.59076 0.781 0.88806 0.0
H355 H 0.60119 0.78701 0.9648 0.0
H356 H 0.63335 0.7904 0.9088 0.0
H357 H 0.57871 0.63121 0.9569 0.0
H358 H 0.55845 0.66222 0.00268 0.0
H359 H 0.54933 0.66034 0.92474 0.0
H360 H 0.50357 0.75582 0.06064 0.0
H361 H 0.48391 0.74645 0.87343 0.0
H362 H 0.59128 0.75064 0.05319 0.0
H363 H 0.57601 0.70936 0.06687 0.0
H364 H 0.55621 0.74456 0.10264 0.0
H365 H 0.56693 0.73782 0.82509 0.0
H366 H 0.52436 0.72789 0.80499 0.0
H367 H 0.55138 0.6965 0.83687 0.0
C368 C 0.25279 0.51051 0.0302 0.0
C369 C 0.24858 0.48898 0.98176 0.0
C370 C 0.26351 0.54348 0.02145 0.0
C371 C 0.27046 0.55478 0.96288 0.0
C372 C 0.26579 0.53312 0.91373 0.0
C373 C 0.25487 0.50033 0.92385 0.0
C374 C 0.26811 0.56596 0.07492 0.0
C375 C 0.27302 0.54432 0.85076 0.0
C376 C 0.27244 0.64866 0.94445 0.0
C377 C 0.30672 0.65538 0.95059 0.0
C378 C 0.26037 0.61583 0.94589 0.0
C379 C 0.28317 0.58916 0.95356 0.0
C380 C 0.31798 0.59563 0.95646 0.0
C381 C 0.32938 0.62876 0.95486 0.0
C382 C 0.2231 0.60985 0.9422 0.0
C383 C 0.34302 0.56768 0.96417 0.0
H384 H 0.24857 0.50126 0.07501 0.0
H385 H 0.25184 0.48328 0.88665 0.0
H386 H 0.29473 0.57356 0.07859 0.0
H387 H 0.2531 0.5891 0.06944 0.0
H388 H 0.26057 0.55361 0.1172 0.0
H389 H 0.26692 0.52474 0.81737 0.0
H390 H 0.25844 0.56716 0.84016 0.0
H391 H 0.2999 0.55084 0.8464 0.0
H392 H 0.25481 0.66915 0.94044 0.0
H393 H 0.35591 0.63383 0.95942 0.0
H394 H 0.21386 0.60035 0.98567 0.0
H395 H 0.21744 0.59053 0.90819 0.0
H396 H 0.20904 0.63297 0.93092 0.0
H397 H 0.33966 0.556 0.00863 0.0
H398 H 0.36926 0.57663 0.96048 0.0
H399 H 0.33882 0.54794 0.93026 0.0
C400 C 0.99686 0.75534 0.51768 0.0
C401 C 0.01851 0.75139 0.46928 0.0
C402 C 0.96398 0.76651 0.50899 0.0
C403 C 0.95293 0.77424 0.45057 0.0
C404 C 0.97476 0.77002 0.4015 0.0
C405 C 0.0074 0.75855 0.41153 0.0
C406 C 0.94128 0.77057 0.56234 0.0
C407 C 0.96383 0.77815 0.33871 0.0
C408 C 0.85912 0.77605 0.42936 0.0
C409 C 0.85214 0.81019 0.43638 0.0
C410 C 0.89201 0.76411 0.43177 0.0
C411 C 0.91851 0.78691 0.44116 0.0
C412 C 0.91183 0.8216 0.44509 0.0
C413 C 0.87862 0.83287 0.44262 0.0
C414 C 0.89823 0.72695 0.42711 0.0
C415 C 0.9396 0.84663 0.45458 0.0
H416 H 0.00592 0.75045 0.56241 0.0
H417 H 0.02453 0.75569 0.37436 0.0
H418 H 0.93363 0.79712 0.56678 0.0
H419 H 0.91815 0.75564 0.5561 0.0
H420 H 0.9535 0.76262 0.60451 0.0
H421 H 0.98372 0.77285 0.3054 0.0
H422 H 0.94124 0.76346 0.3269 0.0
H423 H 0.95695 0.80496 0.3356 0.0
H424 H 0.83877 0.7584 0.42392 0.0
H425 H 0.87336 0.85929 0.44791 0.0
H426 H 0.9077 0.7174 0.47039 0.0
H427 H 0.91769 0.72171 0.3931 0.0
H428 H 0.8752 0.71289 0.41524 0.0
H429 H 0.95097 0.84275 0.49919 0.0
H430 H 0.93054 0.87283 0.45172 0.0
H431 H 0.95966 0.84295 0.42103 0.0
C432 C 0.25224 0.00485 0.42224 0.0
C433 C 0.25877 0.01665 0.47978 0.0
C434 C 0.24118 0.97202 0.41307 0.0
C435 C 0.23657 0.95078 0.46282 0.0
C436 C 0.24357 0.96259 0.52106 0.0
C437 C 0.25447 0.99558 0.52885 0.0
C438 C 0.23391 0.96025 0.35043 0.0
C439 C 0.23901 0.94058 0.57515 0.0
C440 C 0.1784 0.87615 0.45602 0.0
C441 C 0.20134 0.84973 0.45221 0.0
C442 C 0.18947 0.9094 0.45723 0.0
C443 C 0.22421 0.9162 0.45439 0.0
C444 C 0.2473 0.88972 0.44737 0.0
C445 C 0.23557 0.85677 0.44633 0.0
C446 C 0.16414 0.93713 0.46434 0.0
C447 C 0.28451 0.89607 0.44378 0.0
H448 H 0.25535 0.02154 0.38455 0.0
H449 H 0.25891 0.00518 0.57336 0.0
H450 H 0.24889 0.93761 0.34021 0.0
H451 H 0.20715 0.95321 0.34648 0.0
H452 H 0.23957 0.97969 0.31654 0.0
H453 H 0.24627 0.95342 0.61713 0.0
H454 H 0.21246 0.93273 0.57874 0.0
H455 H 0.25429 0.91757 0.57053 0.0
H456 H 0.15191 0.87083 0.46042 0.0
H457 H 0.25341 0.83645 0.44272 0.0
H458 H 0.16811 0.95666 0.42996 0.0
H459 H 0.16741 0.9492 0.50851 0.0
H460 H 0.13799 0.92789 0.4609 0.0
H461 H 0.29003 0.91505 0.40911 0.0
H462 H 0.29886 0.87298 0.43344 0.0
H463 H 0.29354 0.90617 0.48695 0.0
C464 C 0.15238 0.23377 0.45877 0.0
C465 C 0.15903 0.19943 0.46315 0.0
C466 C 0.1195 0.24571 0.45613 0.0
C467 C 0.09267 0.22272 0.45783 0.0
C468 C 0.0992 0.18793 0.45945 0.0
C469 C 0.13241 0.17666 0.46203 0.0
C470 C 0.11347 0.28297 0.45404 0.0
C471 C 0.07109 0.16272 0.46086 0.0
C472 C 0.00994 0.25228 0.52113 0.0
C473 C 0.99147 0.25784 0.46918 0.0
C474 C 0.04315 0.24117 0.51799 0.0
C475 C 0.05782 0.23517 0.46149 0.0
C476 C 0.03919 0.24099 0.40885 0.0
C477 C 0.00611 0.25231 0.41339 0.0
C478 C 0.06234 0.23536 0.57507 0.0
C479 C 0.05402 0.23477 0.34794 0.0
H480 H 0.1729 0.2515 0.45893 0.0
H481 H 0.13744 0.15009 0.46524 0.0
H482 H 0.0964 0.28933 0.41673 0.0
H483 H 0.10113 0.29115 0.49589 0.0
H484 H 0.13706 0.29734 0.44858 0.0
H485 H 0.08038 0.13661 0.45753 0.0
H486 H 0.05687 0.16537 0.50307 0.0
H487 H 0.05335 0.16739 0.42373 0.0
H488 H 0.99814 0.2559 0.56418 0.0
H489 H 0.99141 0.25637 0.3734 0.0
H490 H 0.08564 0.25045 0.57507 0.0
H491 H 0.06981 0.20871 0.57827 0.0
H492 H 0.04749 0.24195 0.61526 0.0
H493 H 0.07717 0.24974 0.3422 0.0
H494 H 0.03634 0.24115 0.31144 0.0
H495 H 0.06115 0.20808 0.34358 0.0
C496 C 0.77478 0.15149 0.43243 0.0
C497 C 0.80917 0.15827 0.43599 0.0
C498 C 0.76276 0.11871 0.43567 0.0
C499 C 0.78574 0.09211 0.44236 0.0
C500 C 0.82057 0.0986 0.44307 0.0
C501 C 0.83193 0.13171 0.43984 0.0
C502 C 0.72545 0.11268 0.43448 0.0
C503 C 0.84576 0.07069 0.44965 0.0
C504 C 0.75655 0.01275 0.51828 0.0
C505 C 0.75163 0.99171 0.46935 0.0
C506 C 0.76715 0.04581 0.51002 0.0
C507 C 0.77323 0.05766 0.45148 0.0
C508 C 0.76777 0.0365 0.40191 0.0
C509 C 0.75696 0.00367 0.41153 0.0
C510 C 0.77255 0.06781 0.56389 0.0
C511 C 0.77405 0.0483 0.33895 0.0
H512 H 0.75706 0.17192 0.42891 0.0
H513 H 0.85852 0.13683 0.44253 0.0
H514 H 0.71908 0.09371 0.40023 0.0
H515 H 0.7172 0.10268 0.47821 0.0
H516 H 0.71109 0.13586 0.42497 0.0
H517 H 0.87194 0.0797 0.44525 0.0
H518 H 0.84286 0.05877 0.49401 0.0
H519 H 0.84125 0.05111 0.41556 0.0
H520 H 0.75302 1.00305 0.56297 0.0
H521 H 0.75331 0.98701 0.37394 0.0
H522 H 0.75754 0.09103 0.55973 0.0
H523 H 0.79924 0.07532 0.56658 0.0
H524 H 0.76558 0.0551 0.60613 0.0
H525 H 0.75917 0.07112 0.32963 0.0
H526 H 0.76759 0.02897 0.30529 0.0
H527 H 0.80082 0.05503 0.33357 0.0
C528 C 0.30612 0.24589 0.42505 0.0
C529 C 0.3131 0.21323 0.40614 0.0
C530 C 0.29613 0.2706 0.38423 0.0
C531 C 0.29308 0.26232 0.32311 0.0
C532 C 0.30315 0.23021 0.30323 0.0
C533 C 0.31291 0.20598 0.34513 0.0
C534 C 0.28598 0.30455 0.40734 0.0
C535 C 0.30087 0.22049 0.23831 0.0
C536 C 0.22912 0.30483 0.22206 0.0
C537 C 0.24988 0.32507 0.18709 0.0
C538 C 0.24263 0.28534 0.26863 0.0
C539 C 0.2776 0.2863 0.28026 0.0
C540 C 0.29811 0.30847 0.24769 0.0
C541 C 0.28402 0.32755 0.20175 0.0
C542 C 0.21983 0.26234 0.30319 0.0
C543 C 0.33533 0.3106 0.25886 0.0
H544 H 0.30515 0.25119 0.47246 0.0
H545 H 0.31724 0.18046 0.33071 0.0
H546 H 0.29622 0.32469 0.37868 0.0
H547 H 0.2583 0.3067 0.40636 0.0
H548 H 0.29458 0.30867 0.45387 0.0
H549 H 0.31249 0.19575 0.22942 0.0
H550 H 0.27418 0.21941 0.2247 0.0
H551 H 0.31331 0.2395 0.20995 0.0
H552 H 0.20281 0.30273 0.2109 0.0
H553 H 0.30022 0.3435 0.17538 0.0
H554 H 0.22347 0.2659 0.35182 0.0
H555 H 0.22618 0.23597 0.29282 0.0
H556 H 0.19302 0.26654 0.29239 0.0
H557 H 0.34049 0.31371 0.30714 0.0
H558 H 0.34711 0.33164 0.23429 0.0
H559 H 0.34747 0.28699 0.24446 0.0
C560 C 0.70444 0.23129 0.18675 0.0
C561 C 0.68788 0.25214 0.14616 0.0
C562 C 0.72389 0.24497 0.23326 0.0
C563 C 0.72654 0.28024 0.23944 0.0
C564 C 0.70829 0.30122 0.20063 0.0
C565 C 0.68933 0.28697 0.1546 0.0
C566 C 0.7429 0.22172 0.27405 0.0
C567 C 0.70999 0.33882 0.2059 0.0
C568 C 0.76444 0.31074 0.38547 0.0
C569 C 0.79831 0.31341 0.37002 0.0
C570 C 0.74027 0.30178 0.3427 0.0
C571 C 0.75039 0.29513 0.28333 0.0
C572 C 0.78411 0.3008 0.26657 0.0
C573 C 0.80765 0.30984 0.3102 0.0
C574 C 0.70453 0.29661 0.36231 0.0
C575 C 0.79601 0.2944 0.2037 0.0
H576 H 0.7035 0.20444 0.18053 0.0
H577 H 0.67624 0.30336 0.12395 0.0
H578 H 0.7702 0.22503 0.26706 0.0
H579 H 0.73757 0.22786 0.32134 0.0
H580 H 0.7365 0.19506 0.26613 0.0
H581 H 0.69169 0.35151 0.17625 0.0
H582 H 0.70521 0.34671 0.25255 0.0
H583 H 0.73548 0.34753 0.1939 0.0
H584 H 0.75735 0.31238 0.43206 0.0
H585 H 0.83398 0.31087 0.29859 0.0
H586 H 0.69917 0.26943 0.36462 0.0
H587 H 0.68687 0.30771 0.32968 0.0
H588 H 0.69967 0.3077 0.4069 0.0
H589 H 0.79462 0.26723 0.19401 0.0
H590 H 0.8222 0.30284 0.19669 0.0
H591 H 0.77964 0.30736 0.17112 0.0
C592 C 0.77594 0.70285 0.19239 0.0
C593 C 0.75462 0.68716 0.15146 0.0
C594 C 0.76283 0.72317 0.23822 0.0
C595 C 0.72766 0.7277 0.2432 0.0
C596 C 0.70609 0.71055 0.20384 0.0
C597 C 0.71977 0.69057 0.15872 0.0
C598 C 0.78666 0.74092 0.27976 0.0
C599 C 0.66853 0.71445 0.20764 0.0
C600 C 0.69689 0.76699 0.38781 0.0
C601 C 0.69624 0.8009 0.37235 0.0
C602 C 0.7054 0.74247 0.34545 0.0
C603 C 0.71355 0.75228 0.28651 0.0
C604 C 0.70992 0.7862 0.2696 0.0
C605 C 0.70137 0.8101 0.31282 0.0
C606 C 0.70848 0.70654 0.36516 0.0
C607 C 0.7179 0.79776 0.20711 0.0
H608 H 0.8028 0.70037 0.1872 0.0
H609 H 0.70293 0.6782 0.12791 0.0
H610 H 0.78495 0.76831 0.2725 0.0
H611 H 0.77967 0.73607 0.32684 0.0
H612 H 0.81304 0.73302 0.27289 0.0
H613 H 0.65514 0.69717 0.17708 0.0
H614 H 0.65979 0.70984 0.25384 0.0
H615 H 0.66148 0.74046 0.19594 0.0
H616 H 0.69404 0.75998 0.43424 0.0
H617 H 0.70187 0.83643 0.3013 0.0
H618 H 0.73535 0.69973 0.36822 0.0
H619 H 0.69674 0.68954 0.33216 0.0
H620 H 0.69672 0.70228 0.40939 0.0
H621 H 0.74513 0.79496 0.19874 0.0
H622 H 0.71093 0.82433 0.19979 0.0
H623 H 0.70459 0.78213 0.17385 0.0
C624 C 0.32503 0.7193 0.18134 0.0
C625 C 0.32453 0.75374 0.16867 0.0
C626 C 0.30595 0.70569 0.22779 0.0
C627 C 0.28567 0.72695 0.26272 0.0
C628 C 0.28652 0.76202 0.25263 0.0
C629 C 0.30608 0.77506 0.20571 0.0
C630 C 0.30621 0.66832 0.23738 0.0
C631 C 0.26543 0.78557 0.28943 0.0
C632 C 0.2048 0.69531 0.3316 0.0
C633 C 0.21316 0.69415 0.39215 0.0
C634 C 0.2287 0.70421 0.2885 0.0
C635 C 0.26171 0.71232 0.30662 0.0
C636 C 0.27097 0.70825 0.36714 0.0
C637 C 0.2465 0.69929 0.40925 0.0
C638 C 0.21782 0.70776 0.22435 0.0
C639 C 0.30592 0.71619 0.38834 0.0
H640 H 0.33958 0.70262 0.15339 0.0
H641 H 0.3055 0.8016 0.19612 0.0
H642 H 0.31023 0.66241 0.28517 0.0
H643 H 0.28157 0.65775 0.22454 0.0
H644 H 0.32592 0.65568 0.21069 0.0
H645 H 0.2707 0.81221 0.27907 0.0
H646 H 0.23852 0.78063 0.28084 0.0
H647 H 0.2699 0.7813 0.33765 0.0
H648 H 0.1788 0.69243 0.31862 0.0
H649 H 0.25273 0.69953 0.45632 0.0
H650 H 0.23554 0.69462 0.19435 0.0
H651 H 0.21797 0.73458 0.2117 0.0
H652 H 0.19228 0.69766 0.2167 0.0
H653 H 0.32488 0.70508 0.35813 0.0
H654 H 0.31046 0.70693 0.43434 0.0
H655 H 0.30966 0.74366 0.38798 0.0
C656 C 0.78964 0.81416 0.65841 0.0
C657 C 0.75482 0.81774 0.65114 0.0
C658 C 0.80322 0.79421 0.70368 0.0
C659 C 0.78156 0.77728 0.74315 0.0
C660 C 0.74641 0.78199 0.73814 0.0
C661 C 0.73341 0.80227 0.69217 0.0
C662 C 0.84075 0.7901 0.7075 0.0
C663 C 0.72249 0.76446 0.77979 0.0
C664 C 0.80748 0.69487 0.81307 0.0
C665 C 0.81276 0.70413 0.87253 0.0
C666 C 0.79898 0.71873 0.76978 0.0
C667 C 0.79553 0.75269 0.78657 0.0
C668 C 0.80378 0.76256 0.84545 0.0
C669 C 0.81224 0.73806 0.88787 0.0
C670 C 0.79088 0.70711 0.70736 0.0
C671 C 0.80088 0.79852 0.86501 0.0
H672 H 0.80656 0.82635 0.62752 0.0
H673 H 0.70657 0.8049 0.68697 0.0
H674 H 0.84953 0.79476 0.75368 0.0
H675 H 0.84766 0.76403 0.69595 0.0
H676 H 0.85424 0.80725 0.67685 0.0
H677 H 0.69616 0.77252 0.77291 0.0
H678 H 0.72402 0.73705 0.77265 0.0
H679 H 0.72953 0.76934 0.82684 0.0
H680 H 0.80689 0.66852 0.80164 0.0
H681 H 0.8152 0.74512 0.93427 0.0
H682 H 0.80427 0.7226 0.67401 0.0
H683 H 0.76366 0.71009 0.69902 0.0
H684 H 0.79766 0.68048 0.70017 0.0
H685 H 0.81273 0.81541 0.83195 0.0
H686 H 0.81265 0.80279 0.90924 0.0
H687 H 0.77405 0.8055 0.86799 0.0
C688 C 0.18379 0.78519 0.68185 0.0
C689 C 0.18452 0.75076 0.66912 0.0
C690 C 0.20282 0.79891 0.72826 0.0
C691 C 0.2233 0.77778 0.76307 0.0
C692 C 0.22269 0.74271 0.75293 0.0
C693 C 0.20317 0.72956 0.70606 0.0
C694 C 0.2023 0.83628 0.73794 0.0
C695 C 0.24399 0.7193 0.78962 0.0
C696 C 0.30406 0.80987 0.83172 0.0
C697 C 0.29578 0.81086 0.89231 0.0
C698 C 0.28014 0.8009 0.78868 0.0
C699 C 0.24721 0.79256 0.80691 0.0
C700 C 0.23801 0.79652 0.86747 0.0
C701 C 0.26249 0.80555 0.90951 0.0
C702 C 0.29095 0.79749 0.72446 0.0
C703 C 0.20314 0.78835 0.88879 0.0
H704 H 0.16908 0.80177 0.65398 0.0
H705 H 0.20392 0.70302 0.69642 0.0
H706 H 0.1983 0.84214 0.78576 0.0
H707 H 0.22683 0.84703 0.72501 0.0
H708 H 0.18244 0.84878 0.71137 0.0
H709 H 0.23891 0.69263 0.77922 0.0
H710 H 0.27085 0.72444 0.78098 0.0
H711 H 0.23953 0.72351 0.83786 0.0
H712 H 0.33003 0.81289 0.81866 0.0
H713 H 0.25633 0.80519 0.95661 0.0
H714 H 0.27308 0.81052 0.69459 0.0
H715 H 0.29099 0.77068 0.71173 0.0
H716 H 0.3164 0.8078 0.71674 0.0
H717 H 0.18406 0.79929 0.85862 0.0
H718 H 0.19859 0.7976 0.93478 0.0
H719 H 0.19961 0.76084 0.88849 0.0
C720 C 0.22423 0.1813 0.69479 0.0
C721 C 0.25854 0.18212 0.68082 0.0
C722 C 0.21098 0.20035 0.7416 0.0
C723 C 0.23246 0.22097 0.77546 0.0
C724 C 0.26742 0.22062 0.7638 0.0
C725 C 0.28011 0.20103 0.71666 0.0
C726 C 0.17371 0.19963 0.75284 0.0
C727 C 0.29119 0.2422 0.79922 0.0
C728 C 0.20033 0.30087 0.84709 0.0
C729 C 0.20012 0.29214 0.90749 0.0
C730 C 0.20915 0.2774 0.8032 0.0
C731 C 0.21815 0.24449 0.8204 0.0
C732 C 0.21527 0.2349 0.88094 0.0
C733 C 0.20644 0.25894 0.92385 0.0
C734 C 0.21154 0.28862 0.73908 0.0
C735 C 0.22419 0.20004 0.90114 0.0
H736 H 0.20739 0.16645 0.66766 0.0
H737 H 0.30655 0.20191 0.70596 0.0
H738 H 0.16852 0.19534 0.80082 0.0
H739 H 0.16265 0.22418 0.74087 0.0
H740 H 0.16091 0.17992 0.72645 0.0
H741 H 0.31777 0.2375 0.78736 0.0
H742 H 0.28551 0.26896 0.79097 0.0
H743 H 0.28787 0.23765 0.84765 0.0
H744 H 0.19657 0.3268 0.83469 0.0
H745 H 0.20738 0.25249 0.97079 0.0
H746 H 0.19827 0.27081 0.70944 0.0
H747 H 0.23818 0.28902 0.72515 0.0
H748 H 0.20083 0.31397 0.73233 0.0
H749 H 0.21243 0.18108 0.87176 0.0
H750 H 0.21628 0.19528 0.94786 0.0
H751 H 0.2517 0.19656 0.89824 0.0
C752 C 0.70272 0.19095 0.81088 0.0
C753 C 0.71173 0.18898 0.87111 0.0
C754 C 0.72612 0.2005 0.76735 0.0
C755 C 0.75935 0.20821 0.78462 0.0
C756 C 0.7694 0.20277 0.8444 0.0
C757 C 0.74539 0.19324 0.88701 0.0
C758 C 0.71438 0.20546 0.70397 0.0
C759 C 0.80466 0.21006 0.86463 0.0
C760 C 0.8213 0.21887 0.65786 0.0
C761 C 0.8209 0.25366 0.64859 0.0
C762 C 0.80255 0.2039 0.7034 0.0
C763 C 0.78266 0.2241 0.74092 0.0
C764 C 0.78339 0.25942 0.73398 0.0
C765 C 0.80265 0.27384 0.68792 0.0
C766 C 0.80291 0.1663 0.70956 0.0
C767 C 0.76265 0.28186 0.77353 0.0
H768 H 0.67653 0.18865 0.79879 0.0
H769 H 0.75221 0.19277 0.93381 0.0
H770 H 0.71401 0.23257 0.69349 0.0
H771 H 0.73186 0.19333 0.67223 0.0
H772 H 0.68888 0.19521 0.69659 0.0
H773 H 0.80984 0.1995 0.9095 0.0
H774 H 0.82315 0.19981 0.83257 0.0
H775 H 0.80844 0.23751 0.86661 0.0
H776 H 0.83571 0.203 0.62822 0.0
H777 H 0.80217 0.30066 0.68105 0.0
H778 H 0.77808 0.15608 0.69704 0.0
H779 H 0.80769 0.15905 0.75653 0.0
H780 H 0.82219 0.15443 0.68079 0.0
H781 H 0.73567 0.2768 0.766 0.0
H782 H 0.76746 0.30878 0.76493 0.0
H783 H 0.76797 0.27652 0.82114 0.0
C784 C 0.93663 0.53804 0.00272 0.0
C785 C 0.9393 0.56467 0.04327 0.0
C786 C 0.96189 0.51344 0.99843 0.0
C787 C 0.99056 0.51538 0.0356 0.0
C788 C 0.99387 0.5429 0.07498 0.0
C789 C 0.96822 0.56694 0.07858 0.0
C790 C 0.9571 0.48452 0.95612 0.0
C791 C 0.02399 0.5463 0.1152 0.0
C792 C 0.03773 0.43726 0.08548 0.0
C793 C 0.067 0.43854 0.05093 0.0
C794 C 0.01213 0.46116 0.07895 0.0
C795 C 0.01582 0.48751 0.03722 0.0
C796 C 0.04481 0.48834 1.00071 0.0
C797 C 0.07003 0.46392 0.00801 0.0
C798 C 0.98168 0.45895 0.11862 0.0
C799 C 0.04997 0.51598 0.9559 0.0
H800 H 0.91408 0.53534 0.97645 0.0
H801 H 0.97049 0.58732 0.11019 0.0
H802 H 0.97987 0.48079 0.9286 0.0
H803 H 0.95308 0.46123 0.98199 0.0
H804 H 0.93533 0.48828 0.92604 0.0
H805 H 0.02413 0.5704 0.1398 0.0
H806 H 0.02418 0.52561 0.14813 0.0
H807 H 0.04739 0.54439 0.08879 0.0
H808 H 0.03516 0.41784 0.11888 0.0
H809 H 0.09283 0.46588 0.98223 0.0
H810 H 0.95851 0.46012 0.09147 0.0
H811 H 0.98126 0.48055 0.14963 0.0
H812 H 0.9813 0.43558 0.14536 0.0
H813 H 0.02741 0.51893 0.92753 0.0
H814 H 0.07195 0.5113 0.92673 0.0
H815 H 0.05387 0.53999 0.97968 0.0
C816 C 0.53575 0.07241 0.00186 0.0
C817 C 0.56411 0.06921 0.03842 0.0
C818 C 0.51162 0.04669 0.99819 0.0
C819 C 0.51584 0.01695 0.03186 0.0
C820 C 0.545 0.01323 0.06727 0.0
C821 C 0.56851 0.03937 0.0704 0.0
C822 C 0.48088 0.05194 0.96025 0.0
C823 C 0.55086 0.98201 0.10363 0.0
C824 C 0.44121 0.96537 0.08506 0.0
C825 C 0.44202 0.93758 0.04686 0.0
C826 C 0.46407 0.99192 0.07894 0.0
C827 C 0.4889 0.99072 0.03385 0.0
C828 C 0.48928 0.96319 0.99394 0.0
C829 C 0.46591 0.93699 0.00093 0.0
C830 C 0.46241 0.02073 0.12235 0.0
C831 C 0.51536 0.96064 0.94552 0.0
H832 H 0.53145 0.09561 0.97829 0.0
H833 H 0.59027 0.03663 0.09887 0.0
H834 H 0.47692 0.0302 0.93037 0.0
H835 H 0.45852 0.05396 0.98934 0.0
H836 H 0.48264 0.07494 0.93267 0.0
H837 H 0.57584 0.9819 0.12538 0.0
H838 H 0.53141 0.97995 0.13875 0.0
H839 H 0.54874 0.95952 0.07493 0.0
H840 H 0.42296 0.96607 0.12081 0.0
H841 H 0.46758 0.91532 0.97223 0.0
H842 H 0.46178 0.04484 0.09795 0.0
H843 H 0.48517 0.02081 0.1507 0.0
H844 H 0.44011 0.0193 0.1518 0.0
H845 H 0.5164 0.98417 0.91943 0.0
H846 H 0.51039 0.93953 0.91458 0.0
H847 H 0.54038 0.95694 0.96598 0.0
C848 C 0.47037 0.06635 0.58924 0.0
C849 C 0.44153 0.06525 0.55357 0.0
C850 C 0.49625 0.04276 0.58267 0.0
C851 C 0.49323 0.01688 0.53983 0.0
C852 C 0.46462 0.01618 0.50238 0.0
C853 C 0.43914 0.04032 0.50968 0.0
C854 C 0.52631 0.04482 0.62333 0.0
C855 C 0.46014 0.98899 0.45645 0.0
C856 C 0.57313 0.96759 0.5051 0.0
C857 C 0.57047 0.94047 0.54455 0.0
C858 C 0.54769 0.99201 0.50131 0.0
C859 C 0.51881 0.98934 0.5378 0.0
C860 C 0.51551 0.96132 0.57602 0.0
C861 C 0.54138 0.93749 0.57923 0.0
C862 C 0.55248 0.02152 0.46032 0.0
C863 C 0.48516 0.95711 0.6154 0.0
H864 H 0.47242 0.08542 0.6234 0.0
H865 H 0.41664 0.03849 0.48304 0.0
H866 H 0.5267 0.02285 0.6535 0.0
H867 H 0.54974 0.04422 0.59681 0.0
H868 H 0.5262 0.06786 0.65097 0.0
H869 H 0.4383 0.9937 0.42697 0.0
H870 H 0.48292 0.98668 0.42849 0.0
H871 H 0.45643 0.96466 0.47927 0.0
H872 H 0.59581 0.97081 0.4794 0.0
H873 H 0.53913 0.91671 0.60998 0.0
H874 H 0.55596 0.04453 0.48724 0.0
H875 H 0.52991 0.02529 0.43229 0.0
H876 H 0.57456 0.01841 0.43074 0.0
H877 H 0.48451 0.97738 0.64915 0.0
H878 H 0.48509 0.9327 0.639 0.0
H879 H 0.46193 0.95912 0.58853 0.0
C880 C 0.06663 0.53941 0.5814 0.0
C881 C 0.06549 0.5681 0.54541 0.0
C882 C 0.04295 0.51358 0.57535 0.0
C883 C 0.0169 0.51649 0.53274 0.0
C884 C 0.01612 0.54495 0.49502 0.0
C885 C 0.04036 0.57037 0.50178 0.0
C886 C 0.04512 0.48369 0.61626 0.0
C887 C 0.98874 0.54933 0.44935 0.0
C888 C 0.96734 0.43664 0.49891 0.0
C889 C 0.94025 0.43943 0.5385 0.0
C890 C 0.99184 0.46199 0.49483 0.0
C891 C 0.9893 0.49093 0.53116 0.0
C892 C 0.96132 0.49433 0.56957 0.0
C893 C 0.93742 0.46855 0.57306 0.0
C894 C 0.02128 0.45707 0.45364 0.0
C895 C 0.95724 0.52473 0.6088 0.0
H896 H 0.08584 0.53744 0.61538 0.0
H897 H 0.03849 0.59274 0.4749 0.0
H898 H 0.0232 0.48341 0.64663 0.0
H899 H 0.04444 0.46021 0.58997 0.0
H900 H 0.06827 0.48387 0.6437 0.0
H901 H 0.99332 0.57109 0.41972 0.0
H902 H 0.98637 0.52652 0.42153 0.0
H903 H 0.96445 0.55305 0.47239 0.0
H904 H 0.97046 0.41395 0.47327 0.0
H905 H 0.91668 0.47093 0.60393 0.0
H906 H 0.0444 0.4537 0.4804 0.0
H907 H 0.02497 0.47952 0.42535 0.0
H908 H 0.01811 0.43492 0.42431 0.0
H909 H 0.97763 0.52543 0.64236 0.0
H910 H 0.93287 0.52488 0.63264 0.0
H911 H 0.95918 0.54787 0.58177 0.0
loop_
_geom_bond_atom_site_label_1
_geom_bond_atom_site_label_2
_geom_bond_distance
_geom_bond_site_symmetry_2
_ccdc_geom_bond_type
Co0 O3 1.970 1_554 S
Co0 N17 1.989 . S
Co0 O25 1.967 . S
Co0 O32 1.920 . S
Co1 O4 1.966 1_554 S
Co1 N10 2.022 . S
Co1 N18 1.993 . S
Co1 O26 1.941 . S
C2 O3 1.258 . S
C2 O4 1.263 . S
O3 Co0 1.970 1_556 S
O3 C2 1.258 . S
O4 Co1 1.966 1_556 S
O4 C2 1.263 . S
C5 O6 1.235 . S
C5 O32 1.289 1_556 S
O6 C5 1.235 . S
C7 C9 1.400 . S
C7 N10 1.351 1_556 S
C7 C12 1.501 . S
C8 C9 1.387 1_554 S
C8 N11 1.341 . S
C9 C7 1.400 . S
C9 C8 1.387 1_556 S
N10 Co1 2.022 . S
N10 C7 1.351 1_554 S
N10 N11 1.365 . S
N11 C8 1.341 . S
N11 N10 1.365 . S
N11 H31 0.862 . S
C12 C7 1.501 . S
C12 H13 0.961 . S
C12 H14 0.961 . S
C12 H15 0.960 . S
H13 C12 0.961 . S
H14 C12 0.961 . S
H15 C12 0.960 . S
C16 N17 1.342 . S
C16 C20 1.401 . S
C16 C21 1.499 . S
N17 Co0 1.989 . S
N17 C16 1.342 . S
N17 N18 1.388 . S
N18 Co1 1.993 . S
N18 N17 1.388 . S
N18 C19 1.346 . S
C19 N18 1.346 . S
C19 C20 1.396 . S
C19 C29 1.510 . S
C20 C16 1.401 . S
C20 C19 1.396 . S
C21 C16 1.499 . S
C21 H22 0.959 . S
C21 H23 0.960 1_554 S
C21 H24 0.961 . S
H22 C21 0.959 . S
H23 C21 0.960 1_556 S
H24 C21 0.961 . S
O25 Co0 1.967 . S
O25 C33 1.258 . S
O26 Co1 1.941 . S
O26 C33 1.266 . S
H27 C29 0.959 . S
H28 C29 0.961 1_556 S
C29 C19 1.510 . S
C29 H27 0.959 . S
C29 H28 0.961 1_554 S
C29 H30 0.960 . S
H30 C29 0.960 . S
H31 N11 0.862 . S
O32 Co0 1.920 . S
O32 C5 1.289 1_554 S
C33 O25 1.258 . S
C33 O26 1.266 . S
Co34 O37 1.970 1_554 S
Co34 N51 1.989 . S
Co34 O59 1.967 . S
Co34 O66 1.920 . S
Co35 O38 1.966 1_554 S
Co35 N44 2.022 . S
Co35 N52 1.993 . S
Co35 O60 1.941 . S
C36 O37 1.258 . S
C36 O38 1.263 . S
O37 Co34 1.970 1_556 S
O37 C36 1.258 . S
O38 Co35 1.966 1_556 S
O38 C36 1.263 . S
C39 O40 1.235 . S
C39 O66 1.289 1_556 S
O40 C39 1.235 . S
C41 C43 1.400 . S
C41 N44 1.351 1_556 S
C41 C46 1.501 . S
C42 C43 1.387 1_554 S
C42 N45 1.341 . S
C43 C41 1.400 . S
C43 C42 1.387 1_556 S
N44 Co35 2.022 . S
N44 C41 1.351 1_554 S
N44 N45 1.365 . S
N45 C42 1.341 . S
N45 N44 1.365 . S
N45 H65 0.862 . S
C46 C41 1.501 . S
C46 H47 0.961 . S
C46 H48 0.961 . S
C46 H49 0.960 . S
H47 C46 0.961 . S
H48 C46 0.961 . S
H49 C46 0.960 . S
C50 N51 1.342 . S
C50 C54 1.401 . S
C50 C55 1.499 . S
N51 Co34 1.989 . S
N51 C50 1.342 . S
N51 N52 1.388 . S
N52 Co35 1.993 . S
N52 N51 1.388 . S
N52 C53 1.346 . S
C53 N52 1.346 . S
C53 C54 1.396 . S
C53 C63 1.510 . S
C54 C50 1.401 . S
C54 C53 1.396 . S
C55 C50 1.499 . S
C55 H56 0.959 . S
C55 H57 0.960 1_554 S
C55 H58 0.961 . S
H56 C55 0.959 . S
H57 C55 0.960 1_556 S
H58 C55 0.961 . S
O59 Co34 1.967 . S
O59 C67 1.258 . S
O60 Co35 1.941 . S
O60 C67 1.266 . S
H61 C63 0.959 . S
H62 C63 0.961 1_556 S
C63 C53 1.510 . S
C63 H61 0.959 . S
C63 H62 0.961 1_554 S
C63 H64 0.960 . S
H64 C63 0.960 . S
H65 N45 0.862 . S
O66 Co34 1.920 . S
O66 C39 1.289 1_554 S
C67 O59 1.258 . S
C67 O60 1.266 . S
Co68 O71 1.970 1_554 S
Co68 N85 1.989 . S
Co68 O93 1.967 . S
Co68 O100 1.920 . S
Co69 O72 1.966 1_554 S
Co69 N78 2.022 . S
Co69 N86 1.993 . S
Co69 O94 1.941 . S
C70 O71 1.258 . S
C70 O72 1.263 . S
O71 Co68 1.970 1_556 S
O71 C70 1.258 . S
O72 Co69 1.966 1_556 S
O72 C70 1.263 . S
C73 O74 1.235 . S
C73 O100 1.289 1_556 S
O74 C73 1.235 . S
C75 C77 1.400 . S
C75 N78 1.351 1_556 S
C75 C80 1.501 . S
C76 C77 1.387 1_554 S
C76 N79 1.341 . S
C77 C75 1.400 . S
C77 C76 1.387 1_556 S
N78 Co69 2.022 . S
N78 C75 1.351 1_554 S
N78 N79 1.365 . S
N79 C76 1.341 . S
N79 N78 1.365 . S
N79 H99 0.862 . S
C80 C75 1.501 . S
C80 H81 0.961 . S
C80 H82 0.961 . S
C80 H83 0.960 . S
H81 C80 0.961 . S
H82 C80 0.961 . S
H83 C80 0.960 . S
C84 N85 1.342 . S
C84 C88 1.401 . S
C84 C89 1.499 . S
N85 Co68 1.989 . S
N85 C84 1.342 . S
N85 N86 1.388 . S
N86 Co69 1.993 . S
N86 N85 1.388 . S
N86 C87 1.346 . S
C87 N86 1.346 . S
C87 C88 1.396 . S
C87 C97 1.510 . S
C88 C84 1.401 . S
C88 C87 1.396 . S
C89 C84 1.499 . S
C89 H90 0.959 . S
C89 H91 0.960 1_554 S
C89 H92 0.961 . S
H90 C89 0.959 . S
H91 C89 0.960 1_556 S
H92 C89 0.961 . S
O93 Co68 1.967 . S
O93 C101 1.258 . S
O94 Co69 1.941 . S
O94 C101 1.266 . S
H95 C97 0.959 . S
H96 C97 0.961 1_556 S
C97 C87 1.510 . S
C97 H95 0.959 . S
C97 H96 0.961 1_554 S
C97 H98 0.960 . S
H98 C97 0.960 . S
H99 N79 0.862 . S
O100 Co68 1.920 . S
O100 C73 1.289 1_554 S
C101 O93 1.258 . S
C101 O94 1.266 . S
Co102 O105 1.970 1_554 S
Co102 N119 1.989 . S
Co102 O127 1.967 . S
Co102 O134 1.920 . S
Co103 O106 1.966 1_554 S
Co103 N112 2.022 . S
Co103 N120 1.993 . S
Co103 O128 1.941 . S
C104 O105 1.258 . S
C104 O106 1.263 . S
O105 Co102 1.970 1_556 S
O105 C104 1.258 . S
O106 Co103 1.966 1_556 S
O106 C104 1.263 . S
C107 O108 1.235 . S
C107 O134 1.289 1_556 S
O108 C107 1.235 . S
C109 C111 1.400 . S
C109 N112 1.351 1_556 S
C109 C114 1.501 . S
C110 C111 1.387 1_554 S
C110 N113 1.341 . S
C111 C109 1.400 . S
C111 C110 1.387 1_556 S
N112 Co103 2.022 . S
N112 C109 1.351 1_554 S
N112 N113 1.365 . S
N113 C110 1.341 . S
N113 N112 1.365 . S
N113 H133 0.862 . S
C114 C109 1.501 . S
C114 H115 0.961 . S
C114 H116 0.961 . S
C114 H117 0.960 . S
H115 C114 0.961 . S
H116 C114 0.961 . S
H117 C114 0.960 . S
C118 N119 1.342 . S
C118 C122 1.401 . S
C118 C123 1.499 . S
N119 Co102 1.989 . S
N119 C118 1.342 . S
N119 N120 1.388 . S
N120 Co103 1.993 . S
N120 N119 1.388 . S
N120 C121 1.346 . S
C121 N120 1.346 . S
C121 C122 1.396 . S
C121 C131 1.510 . S
C122 C118 1.401 . S
C122 C121 1.396 . S
C123 C118 1.499 . S
C123 H124 0.959 . S
C123 H125 0.960 1_554 S
C123 H126 0.961 . S
H124 C123 0.959 . S
H125 C123 0.960 1_556 S
H126 C123 0.961 . S
O127 Co102 1.967 . S
O127 C135 1.258 . S
O128 Co103 1.941 . S
O128 C135 1.266 . S
H129 C131 0.959 . S
H130 C131 0.961 1_556 S
C131 C121 1.510 . S
C131 H129 0.959 . S
C131 H130 0.961 1_554 S
C131 H132 0.960 . S
H132 C131 0.960 . S
H133 N113 0.862 . S
O134 Co102 1.920 . S
O134 C107 1.289 1_554 S
C135 O127 1.258 . S
C135 O128 1.266 . S
Co136 O139 1.970 . S
Co136 N153 1.989 . S
Co136 O161 1.967 . S
Co136 O168 1.920 . S
Co137 O140 1.966 . S
Co137 N146 2.022 . S
Co137 N154 1.993 . S
Co137 O162 1.941 . S
C138 O139 1.258 . S
C138 O140 1.263 . S
O139 Co136 1.970 . S
O139 C138 1.258 . S
O140 Co137 1.966 . S
O140 C138 1.263 . S
C141 O142 1.235 . S
C141 O168 1.289 . S
O142 C141 1.235 . S
C143 C145 1.400 . S
C143 N146 1.351 . S
C143 C148 1.501 . S
C144 C145 1.387 . S
C144 N147 1.341 . S
C145 C143 1.400 . S
C145 C144 1.387 . S
N146 Co137 2.022 . S
N146 C143 1.351 . S
N146 N147 1.365 . S
N147 C144 1.341 . S
N147 N146 1.365 . S
N147 H167 0.862 . S
C148 C143 1.501 . S
C148 H149 0.961 . S
C148 H150 0.961 . S
C148 H151 0.960 . S
H149 C148 0.961 . S
H150 C148 0.961 . S
H151 C148 0.960 . S
C152 N153 1.342 . S
C152 C156 1.401 . S
C152 C157 1.499 . S
N153 Co136 1.989 . S
N153 C152 1.342 . S
N153 N154 1.388 . S
N154 Co137 1.993 . S
N154 N153 1.388 . S
N154 C155 1.346 . S
C155 N154 1.346 . S
C155 C156 1.396 . S
C155 C165 1.510 . S
C156 C152 1.401 . S
C156 C155 1.396 . S
C157 C152 1.499 . S
C157 H158 0.959 . S
C157 H159 0.960 . S
C157 H160 0.961 . S
H158 C157 0.959 . S
H159 C157 0.960 . S
H160 C157 0.961 . S
O161 Co136 1.967 . S
O161 C169 1.258 . S
O162 Co137 1.941 . S
O162 C169 1.266 . S
H163 C165 0.959 . S
H164 C165 0.961 . S
C165 C155 1.510 . S
C165 H163 0.959 . S
C165 H164 0.961 . S
C165 H166 0.960 . S
H166 C165 0.960 . S
H167 N147 0.862 . S
O168 Co136 1.920 . S
O168 C141 1.289 . S
C169 O161 1.258 . S
C169 O162 1.266 . S
Co170 O173 1.970 . S
Co170 N187 1.989 . S
Co170 O195 1.967 . S
Co170 O202 1.920 . S
Co171 O174 1.966 . S
Co171 N180 2.022 . S
Co171 N188 1.993 . S
Co171 O196 1.941 . S
C172 O173 1.258 . S
C172 O174 1.263 . S
O173 Co170 1.970 . S
O173 C172 1.258 . S
O174 Co171 1.966 . S
O174 C172 1.263 . S
C175 O176 1.235 . S
C175 O202 1.289 . S
O176 C175 1.235 . S
C177 C179 1.400 . S
C177 N180 1.351 . S
C177 C182 1.501 . S
C178 C179 1.387 . S
C178 N181 1.341 . S
C179 C177 1.400 . S
C179 C178 1.387 . S
N180 Co171 2.022 . S
N180 C177 1.351 . S
N180 N181 1.365 . S
N181 C178 1.341 . S
N181 N180 1.365 . S
N181 H201 0.862 . S
C182 C177 1.501 . S
C182 H183 0.961 . S
C182 H184 0.961 . S
C182 H185 0.960 . S
H183 C182 0.961 . S
H184 C182 0.961 . S
H185 C182 0.960 . S
C186 N187 1.342 . S
C186 C190 1.401 . S
C186 C191 1.499 . S
N187 Co170 1.989 . S
N187 C186 1.342 . S
N187 N188 1.388 . S
N188 Co171 1.993 . S
N188 N187 1.388 . S
N188 C189 1.346 . S
C189 N188 1.346 . S
C189 C190 1.396 . S
C189 C199 1.510 . S
C190 C186 1.401 . S
C190 C189 1.396 . S
C191 C186 1.499 . S
C191 H192 0.959 . S
C191 H193 0.960 . S
C191 H194 0.961 . S
H192 C191 0.959 . S
H193 C191 0.960 . S
H194 C191 0.961 . S
O195 Co170 1.967 . S
O195 C203 1.258 . S
O196 Co171 1.941 . S
O196 C203 1.266 . S
H197 C199 0.959 . S
H198 C199 0.961 . S
C199 C189 1.510 . S
C199 H197 0.959 . S
C199 H198 0.961 . S
C199 H200 0.960 . S
H200 C199 0.960 . S
H201 N181 0.862 . S
O202 Co170 1.920 . S
O202 C175 1.289 . S
C203 O195 1.258 . S
C203 O196 1.266 . S
Co204 O207 1.970 . S
Co204 N221 1.989 . S
Co204 O229 1.967 . S
Co204 O236 1.920 . S
Co205 O208 1.966 . S
Co205 N214 2.022 . S
Co205 N222 1.993 . S
Co205 O230 1.941 . S
C206 O207 1.258 . S
C206 O208 1.263 . S
O207 Co204 1.970 . S
O207 C206 1.258 . S
O208 Co205 1.966 . S
O208 C206 1.263 . S
C209 O210 1.235 . S
C209 O236 1.289 . S
O210 C209 1.235 . S
C211 C213 1.400 . S
C211 N214 1.351 . S
C211 C216 1.501 . S
C212 C213 1.387 . S
C212 N215 1.341 . S
C213 C211 1.400 . S
C213 C212 1.387 . S
N214 Co205 2.022 . S
N214 C211 1.351 . S
N214 N215 1.365 . S
N215 C212 1.341 . S
N215 N214 1.365 . S
N215 H235 0.862 . S
C216 C211 1.501 . S
C216 H217 0.961 . S
C216 H218 0.961 . S
C216 H219 0.960 . S
H217 C216 0.961 . S
H218 C216 0.961 . S
H219 C216 0.960 . S
C220 N221 1.342 . S
C220 C224 1.401 . S
C220 C225 1.499 . S
N221 Co204 1.989 . S
N221 C220 1.342 . S
N221 N222 1.388 . S
N222 Co205 1.993 . S
N222 N221 1.388 . S
N222 C223 1.346 . S
C223 N222 1.346 . S
C223 C224 1.396 . S
C223 C233 1.510 . S
C224 C220 1.401 . S
C224 C223 1.396 . S
C225 C220 1.499 . S
C225 H226 0.959 . S
C225 H227 0.960 . S
C225 H228 0.961 . S
H226 C225 0.959 . S
H227 C225 0.960 . S
H228 C225 0.961 . S
O229 Co204 1.967 . S
O229 C237 1.258 . S
O230 Co205 1.941 . S
O230 C237 1.266 . S
H231 C233 0.959 . S
H232 C233 0.961 . S
C233 C223 1.510 . S
C233 H231 0.959 . S
C233 H232 0.961 . S
C233 H234 0.960 . S
H234 C233 0.960 . S
H235 N215 0.862 . S
O236 Co204 1.920 . S
O236 C209 1.289 . S
C237 O229 1.258 . S
C237 O230 1.266 . S
Co238 O241 1.970 . S
Co238 N255 1.989 . S
Co238 O263 1.967 . S
Co238 O270 1.920 . S
Co239 O242 1.966 . S
Co239 N248 2.022 . S
Co239 N256 1.993 . S
Co239 O264 1.941 . S
C240 O241 1.258 . S
C240 O242 1.263 . S
O241 Co238 1.970 . S
O241 C240 1.258 . S
O242 Co239 1.966 . S
O242 C240 1.263 . S
C243 O244 1.235 . S
C243 O270 1.289 . S
O244 C243 1.235 . S
C245 C247 1.400 . S
C245 N248 1.351 . S
C245 C250 1.501 . S
C246 C247 1.387 . S
C246 N249 1.341 . S
C247 C245 1.400 . S
C247 C246 1.387 . S
N248 Co239 2.022 . S
N248 C245 1.351 . S
N248 N249 1.365 . S
N249 C246 1.341 . S
N249 N248 1.365 . S
N249 H269 0.862 . S
C250 C245 1.501 . S
C250 H251 0.961 . S
C250 H252 0.961 . S
C250 H253 0.960 . S
H251 C250 0.961 . S
H252 C250 0.961 . S
H253 C250 0.960 . S
C254 N255 1.342 . S
C254 C258 1.401 . S
C254 C259 1.499 . S
N255 Co238 1.989 . S
N255 C254 1.342 . S
N255 N256 1.388 . S
N256 Co239 1.993 . S
N256 N255 1.388 . S
N256 C257 1.346 . S
C257 N256 1.346 . S
C257 C258 1.396 . S
C257 C267 1.510 . S
C258 C254 1.401 . S
C258 C257 1.396 . S
C259 C254 1.499 . S
C259 H260 0.959 . S
C259 H261 0.960 . S
C259 H262 0.961 . S
H260 C259 0.959 . S
H261 C259 0.960 . S
H262 C259 0.961 . S
O263 Co238 1.967 . S
O263 C271 1.258 . S
O264 Co239 1.941 . S
O264 C271 1.266 . S
H265 C267 0.959 . S
H266 C267 0.961 . S
C267 C257 1.510 . S
C267 H265 0.959 . S
C267 H266 0.961 . S
C267 H268 0.960 . S
H268 C267 0.960 . S
H269 N249 0.862 . S
O270 Co238 1.920 . S
O270 C243 1.289 . S
C271 O263 1.258 . S
C271 O264 1.266 . S
C272 C273 1.391 . S
C272 C274 1.394 . S
C272 H288 0.931 . S
C273 C272 1.391 . S
C273 C277 1.376 . S
C274 C272 1.394 . S
C274 C275 1.369 . S
C274 C278 1.531 1_554 S
C275 C274 1.369 . S
C275 C276 1.410 . S
C275 C283 1.503 . S
C276 C275 1.410 . S
C276 C277 1.392 . S
C276 C279 1.511 . S
C277 C273 1.376 . S
C277 C276 1.392 . S
C277 H289 0.929 . S
C278 C274 1.531 1_556 S
C278 H290 0.960 . S
C278 H291 0.962 . S
C278 H292 0.960 . S
C279 C276 1.511 . S
C279 H293 0.961 . S
C279 H294 0.961 . S
C279 H295 0.961 . S
C280 C281 1.370 . S
C280 C282 1.363 . S
C280 H296 0.931 . S
C281 C280 1.370 . S
C281 C285 1.408 1_556 S
C282 C280 1.363 . S
C282 C283 1.370 1_556 S
C282 C286 1.524 . S
C283 C275 1.503 . S
C283 C282 1.370 1_554 S
C283 C284 1.403 . S
C284 C283 1.403 . S
C284 C285 1.404 . S
C284 C287 1.539 . S
C285 C281 1.408 1_554 S
C285 C284 1.404 . S
C285 H297 0.930 . S
C286 C282 1.524 . S
C286 H298 0.956 . S
C286 H299 0.961 . S
C286 H300 0.961 . S
C287 C284 1.539 . S
C287 H301 0.958 . S
C287 H302 0.961 . S
C287 H303 0.960 . S
H288 C272 0.931 . S
H289 C277 0.929 . S
H290 C278 0.960 . S
H291 C278 0.962 . S
H292 C278 0.960 . S
H293 C279 0.961 . S
H294 C279 0.961 . S
H295 C279 0.961 . S
H296 C280 0.931 . S
H297 C285 0.930 . S
H298 C286 0.956 . S
H299 C286 0.961 . S
H300 C286 0.961 . S
H301 C287 0.958 . S
H302 C287 0.961 . S
H303 C287 0.960 . S
C304 C305 1.391 . S
C304 C306 1.394 . S
C304 H320 0.931 . S
C305 C304 1.391 . S
C305 C309 1.376 . S
C306 C304 1.394 . S
C306 C307 1.369 . S
C306 C310 1.531 . S
C307 C306 1.369 . S
C307 C308 1.410 1_556 S
C307 C315 1.503 1_556 S
C308 C307 1.410 1_554 S
C308 C309 1.392 1_554 S
C308 C311 1.511 . S
C309 C305 1.376 . S
C309 C308 1.392 1_556 S
C309 H321 0.929 1_556 S
C310 C306 1.531 . S
C310 H322 0.960 . S
C310 H323 0.962 . S
C310 H324 0.960 . S
C311 C308 1.511 . S
C311 H325 0.961 . S
C311 H326 0.961 . S
C311 H327 0.961 . S
C312 C313 1.370 . S
C312 C314 1.363 . S
C312 H328 0.931 . S
C313 C312 1.370 . S
C313 C317 1.408 1_554 S
C314 C312 1.363 . S
C314 C315 1.370 . S
C314 C318 1.524 . S
C315 C307 1.503 1_554 S
C315 C314 1.370 . S
C315 C316 1.403 1_554 S
C316 C315 1.403 1_556 S
C316 C317 1.404 . S
C316 C319 1.539 . S
C317 C313 1.408 1_556 S
C317 C316 1.404 . S
C317 H329 0.930 . S
C318 C314 1.524 . S
C318 H330 0.956 . S
C318 H331 0.961 . S
C318 H332 0.961 . S
C319 C316 1.539 . S
C319 H333 0.958 . S
C319 H334 0.961 . S
C319 H335 0.960 . S
H320 C304 0.931 . S
H321 C309 0.929 1_554 S
H322 C310 0.960 . S
H323 C310 0.962 . S
H324 C310 0.960 . S
H325 C311 0.961 . S
H326 C311 0.961 . S
H327 C311 0.961 . S
H328 C312 0.931 . S
H329 C317 0.930 . S
H330 C318 0.956 . S
H331 C318 0.961 . S
H332 C318 0.961 . S
H333 C319 0.958 . S
H334 C319 0.961 . S
H335 C319 0.960 . S
C336 C337 1.391 . S
C336 C338 1.394 . S
C336 H352 0.931 . S
C337 C336 1.391 . S
C337 C341 1.376 . S
C338 C336 1.394 . S
C338 C339 1.369 . S
C338 C342 1.531 . S
C339 C338 1.369 . S
C339 C340 1.410 . S
C339 C347 1.503 1_556 S
C340 C339 1.410 . S
C340 C341 1.392 . S
C340 C343 1.511 1_556 S
C341 C337 1.376 . S
C341 C340 1.392 . S
C341 H353 0.929 . S
C342 C338 1.531 . S
C342 H354 0.960 . S
C342 H355 0.962 . S
C342 H356 0.960 . S
C343 C340 1.511 1_554 S
C343 H357 0.961 . S
C343 H358 0.961 . S
C343 H359 0.961 1_554 S
C344 C345 1.370 . S
C344 C346 1.363 . S
C344 H360 0.931 . S
C345 C344 1.370 . S
C345 C349 1.408 1_554 S
C346 C344 1.363 . S
C346 C347 1.374 . S
C346 C350 1.524 . S
C347 C339 1.503 1_554 S
C347 C346 1.374 . S
C347 C348 1.400 1_554 S
C348 C347 1.400 1_556 S
C348 C349 1.404 . S
C348 C351 1.539 . S
C349 C345 1.408 1_556 S
C349 C348 1.404 . S
C349 H361 0.930 . S
C350 C346 1.524 . S
C350 H362 0.956 . S
C350 H363 0.961 . S
C350 H364 0.961 . S
C351 C348 1.539 . S
C351 H365 0.958 . S
C351 H366 0.961 . S
C351 H367 0.960 . S
H352 C336 0.931 . S
H353 C341 0.929 . S
H354 C342 0.960 . S
H355 C342 0.962 . S
H356 C342 0.960 . S
H357 C343 0.961 . S
H358 C343 0.961 . S
H359 C343 0.961 1_556 S
H360 C344 0.931 . S
H361 C349 0.930 . S
H362 C350 0.956 . S
H363 C350 0.961 . S
H364 C350 0.961 . S
H365 C351 0.958 . S
H366 C351 0.961 . S
H367 C351 0.960 . S
C368 C369 1.391 . S
C368 C370 1.394 . S
C368 H384 0.931 . S
C369 C368 1.391 . S
C369 C373 1.376 . S
C370 C368 1.394 . S
C370 C371 1.369 . S
C370 C374 1.531 . S
C371 C370 1.369 . S
C371 C372 1.410 1_554 S
C371 C379 1.503 . S
C372 C371 1.410 1_556 S
C372 C373 1.392 1_556 S
C372 C375 1.511 . S
C373 C369 1.376 . S
C373 C372 1.392 1_554 S
C373 H385 0.929 1_554 S
C374 C370 1.531 . S
C374 H386 0.960 . S
C374 H387 0.962 . S
C374 H388 0.960 . S
C375 C372 1.511 . S
C375 H389 0.961 . S
C375 H390 0.961 . S
C375 H391 0.961 . S
C376 C377 1.370 . S
C376 C378 1.363 . S
C376 H392 0.931 . S
C377 C376 1.370 . S
C377 C381 1.408 1_556 S
C378 C376 1.363 . S
C378 C379 1.370 1_556 S
C378 C382 1.524 . S
C379 C371 1.503 . S
C379 C378 1.370 1_554 S
C379 C380 1.403 . S
C380 C379 1.403 . S
C380 C381 1.404 . S
C380 C383 1.539 . S
C381 C377 1.408 1_554 S
C381 C380 1.404 . S
C381 H393 0.930 . S
C382 C378 1.524 . S
C382 H394 0.956 . S
C382 H395 0.961 . S
C382 H396 0.961 . S
C383 C380 1.539 . S
C383 H397 0.958 . S
C383 H398 0.961 . S
C383 H399 0.960 . S
H384 C368 0.931 . S
H385 C373 0.929 1_556 S
H386 C374 0.960 . S
H387 C374 0.962 . S
H388 C374 0.960 . S
H389 C375 0.961 . S
H390 C375 0.961 . S
H391 C375 0.961 . S
H392 C376 0.931 . S
H393 C381 0.930 . S
H394 C382 0.956 . S
H395 C382 0.961 . S
H396 C382 0.961 . S
H397 C383 0.958 . S
H398 C383 0.961 . S
H399 C383 0.960 . S
C400 C401 1.391 1_655 S
C400 C402 1.394 . S
C400 H416 0.931 1_655 S
C401 C400 1.391 1_455 S
C401 C405 1.376 . S
C402 C400 1.394 . S
C402 C403 1.369 . S
C402 C406 1.531 . S
C403 C402 1.369 . S
C403 C404 1.410 . S
C403 C411 1.503 . S
C404 C403 1.410 . S
C404 C405 1.392 1_655 S
C404 C407 1.511 . S
C405 C401 1.376 . S
C405 C404 1.392 1_455 S
C405 H417 0.929 . S
C406 C402 1.531 . S
C406 H418 0.960 . S
C406 H419 0.962 . S
C406 H420 0.960 . S
C407 C404 1.511 . S
C407 H421 0.961 . S
C407 H422 0.961 . S
C407 H423 0.961 . S
C408 C409 1.370 . S
C408 C410 1.363 . S
C408 H424 0.931 . S
C409 C408 1.370 . S
C409 C413 1.408 . S
C410 C408 1.363 . S
C410 C411 1.370 . S
C410 C414 1.524 . S
C411 C403 1.503 . S
C411 C410 1.370 . S
C411 C412 1.403 . S
C412 C411 1.403 . S
C412 C413 1.404 . S
C412 C415 1.539 . S
C413 C409 1.408 . S
C413 C412 1.404 . S
C413 H425 0.930 . S
C414 C410 1.524 . S
C414 H426 0.956 . S
C414 H427 0.961 . S
C414 H428 0.961 . S
C415 C412 1.539 . S
C415 H429 0.958 . S
C415 H430 0.961 . S
C415 H431 0.960 . S
H416 C400 0.931 1_455 S
H417 C405 0.929 . S
H418 C406 0.960 . S
H419 C406 0.962 . S
H420 C406 0.960 . S
H421 C407 0.961 . S
H422 C407 0.961 . S
H423 C407 0.961 . S
H424 C408 0.931 . S
H425 C413 0.930 . S
H426 C414 0.956 . S
H427 C414 0.961 . S
H428 C414 0.961 . S
H429 C415 0.958 . S
H430 C415 0.961 . S
H431 C415 0.960 . S
C432 C433 1.391 . S
C432 C434 1.394 1_545 S
C432 H448 0.931 . S
C433 C432 1.391 . S
C433 C437 1.376 1_545 S
C434 C432 1.394 1_565 S
C434 C435 1.369 . S
C434 C438 1.531 . S
C435 C434 1.369 . S
C435 C436 1.410 . S
C435 C443 1.503 . S
C436 C435 1.410 . S
C436 C437 1.392 . S
C436 C439 1.511 . S
C437 C433 1.376 1_565 S
C437 C436 1.392 . S
C437 H449 0.929 1_565 S
C438 C434 1.531 . S
C438 H450 0.960 . S
C438 H451 0.962 . S
C438 H452 0.960 . S
C439 C436 1.511 . S
C439 H453 0.961 . S
C439 H454 0.961 . S
C439 H455 0.961 . S
C440 C441 1.370 . S
C440 C442 1.363 . S
C440 H456 0.931 . S
C441 C440 1.370 . S
C441 C445 1.408 . S
C442 C440 1.363 . S
C442 C443 1.370 . S
C442 C446 1.524 . S
C443 C435 1.503 . S
C443 C442 1.370 . S
C443 C444 1.403 . S
C444 C443 1.403 . S
C444 C445 1.404 . S
C444 C447 1.539 . S
C445 C441 1.408 . S
C445 C444 1.404 . S
C445 H457 0.930 . S
C446 C442 1.524 . S
C446 H458 0.956 . S
C446 H459 0.961 . S
C446 H460 0.961 . S
C447 C444 1.539 . S
C447 H461 0.958 . S
C447 H462 0.961 . S
C447 H463 0.960 . S
H448 C432 0.931 . S
H449 C437 0.929 1_545 S
H450 C438 0.960 . S
H451 C438 0.962 . S
H452 C438 0.960 . S
H453 C439 0.961 . S
H454 C439 0.961 . S
H455 C439 0.961 . S
H456 C440 0.931 . S
H457 C445 0.930 . S
H458 C446 0.956 . S
H459 C446 0.961 . S
H460 C446 0.961 . S
H461 C447 0.958 . S
H462 C447 0.961 . S
H463 C447 0.960 . S
C464 C465 1.391 . S
C464 C466 1.394 . S
C464 H480 0.931 . S
C465 C464 1.391 . S
C465 C469 1.376 . S
C466 C464 1.394 . S
C466 C467 1.369 . S
C466 C470 1.531 . S
C467 C466 1.369 . S
C467 C468 1.410 . S
C467 C475 1.503 . S
C468 C467 1.410 . S
C468 C469 1.392 . S
C468 C471 1.511 . S
C469 C465 1.376 . S
C469 C468 1.392 . S
C469 H481 0.929 . S
C470 C466 1.531 . S
C470 H482 0.960 . S
C470 H483 0.962 . S
C470 H484 0.960 . S
C471 C468 1.511 . S
C471 H485 0.961 . S
C471 H486 0.961 . S
C471 H487 0.961 . S
C472 C473 1.370 1_455 S
C472 C474 1.363 . S
C472 H488 0.931 1_455 S
C473 C472 1.370 1_655 S
C473 C477 1.408 . S
C474 C472 1.363 . S
C474 C475 1.370 . S
C474 C478 1.524 . S
C475 C467 1.503 . S
C475 C474 1.370 . S
C475 C476 1.403 . S
C476 C475 1.403 . S
C476 C477 1.404 1_455 S
C476 C479 1.539 . S
C477 C473 1.408 . S
C477 C476 1.404 1_655 S
C477 H489 0.930 . S
C478 C474 1.524 . S
C478 H490 0.956 . S
C478 H491 0.961 . S
C478 H492 0.961 . S
C479 C476 1.539 . S
C479 H493 0.958 . S
C479 H494 0.961 1_455 S
C479 H495 0.960 . S
H480 C464 0.931 . S
H481 C469 0.929 . S
H482 C470 0.960 . S
H483 C470 0.962 . S
H484 C470 0.960 . S
H485 C471 0.961 . S
H486 C471 0.961 . S
H487 C471 0.961 . S
H488 C472 0.931 1_655 S
H489 C477 0.930 . S
H490 C478 0.956 . S
H491 C478 0.961 . S
H492 C478 0.961 . S
H493 C479 0.958 . S
H494 C479 0.961 1_655 S
H495 C479 0.960 . S
C496 C497 1.391 . S
C496 C498 1.394 . S
C496 H512 0.931 . S
C497 C496 1.391 . S
C497 C501 1.376 . S
C498 C496 1.394 . S
C498 C499 1.369 . S
C498 C502 1.531 . S
C499 C498 1.369 . S
C499 C500 1.410 . S
C499 C507 1.503 . S
C500 C499 1.410 . S
C500 C501 1.392 . S
C500 C503 1.511 . S
C501 C497 1.376 . S
C501 C500 1.392 . S
C501 H513 0.929 . S
C502 C498 1.531 . S
C502 H514 0.960 . S
C502 H515 0.962 . S
C502 H516 0.960 . S
C503 C500 1.511 . S
C503 H517 0.961 . S
C503 H518 0.961 . S
C503 H519 0.961 . S
C504 C505 1.370 1_545 S
C504 C506 1.363 . S
C504 H520 0.931 . S
C505 C504 1.370 1_565 S
C505 C509 1.408 . S
C506 C504 1.363 . S
C506 C507 1.370 . S
C506 C510 1.524 . S
C507 C499 1.503 . S
C507 C506 1.370 . S
C507 C508 1.403 . S
C508 C507 1.403 . S
C508 C509 1.404 1_545 S
C508 C511 1.539 . S
C509 C505 1.408 . S
C509 C508 1.404 1_565 S
C509 H521 0.930 . S
C510 C506 1.524 . S
C510 H522 0.956 . S
C510 H523 0.961 . S
C510 H524 0.961 . S
C511 C508 1.539 . S
C511 H525 0.958 . S
C511 H526 0.961 1_545 S
C511 H527 0.960 . S
H512 C496 0.931 . S
H513 C501 0.929 . S
H514 C502 0.960 . S
H515 C502 0.962 . S
H516 C502 0.960 . S
H517 C503 0.961 . S
H518 C503 0.961 . S
H519 C503 0.961 . S
H520 C504 0.931 . S
H521 C509 0.930 . S
H522 C510 0.956 . S
H523 C510 0.961 . S
H524 C510 0.961 . S
H525 C511 0.958 . S
H526 C511 0.961 1_565 S
H527 C511 0.960 . S
C528 C529 1.391 . S
C528 C530 1.394 . S
C528 H544 0.931 . S
C529 C528 1.391 . S
C529 C533 1.376 . S
C530 C528 1.394 . S
C530 C531 1.369 . S
C530 C534 1.531 . S
C531 C530 1.369 . S
C531 C532 1.410 . S
C531 C539 1.503 . S
C532 C531 1.410 . S
C532 C533 1.392 . S
C532 C535 1.511 . S
C533 C529 1.376 . S
C533 C532 1.392 . S
C533 H545 0.929 . S
C534 C530 1.531 . S
C534 H546 0.960 . S
C534 H547 0.962 . S
C534 H548 0.960 . S
C535 C532 1.511 . S
C535 H549 0.961 . S
C535 H550 0.961 . S
C535 H551 0.961 . S
C536 C537 1.370 . S
C536 C538 1.363 . S
C536 H552 0.931 . S
C537 C536 1.370 . S
C537 C541 1.408 . S
C538 C536 1.363 . S
C538 C539 1.370 . S
C538 C542 1.524 . S
C539 C531 1.503 . S
C539 C538 1.370 . S
C539 C540 1.403 . S
C540 C539 1.403 . S
C540 C541 1.404 . S
C540 C543 1.539 . S
C541 C537 1.408 . S
C541 C540 1.404 . S
C541 H553 0.930 . S
C542 C538 1.524 . S
C542 H554 0.956 . S
C542 H555 0.961 . S
C542 H556 0.961 . S
C543 C540 1.539 . S
C543 H557 0.958 . S
C543 H558 0.961 . S
C543 H559 0.960 . S
H544 C528 0.931 . S
H545 C533 0.929 . S
H546 C534 0.960 . S
H547 C534 0.962 . S
H548 C534 0.960 . S
H549 C535 0.961 . S
H550 C535 0.961 . S
H551 C535 0.961 . S
H552 C536 0.931 . S
H553 C541 0.930 . S
H554 C542 0.956 . S
H555 C542 0.961 . S
H556 C542 0.961 . S
H557 C543 0.958 . S
H558 C543 0.961 . S
H559 C543 0.960 . S
C560 C561 1.391 . S
C560 C562 1.394 . S
C560 H576 0.931 . S
C561 C560 1.391 . S
C561 C565 1.376 . S
C562 C560 1.394 . S
C562 C563 1.369 . S
C562 C566 1.531 . S
C563 C562 1.369 . S
C563 C564 1.410 . S
C563 C571 1.503 . S
C564 C563 1.410 . S
C564 C565 1.392 . S
C564 C567 1.511 . S
C565 C561 1.376 . S
C565 C564 1.392 . S
C565 H577 0.929 . S
C566 C562 1.531 . S
C566 H578 0.960 . S
C566 H579 0.962 . S
C566 H580 0.960 . S
C567 C564 1.511 . S
C567 H581 0.961 . S
C567 H582 0.961 . S
C567 H583 0.961 . S
C568 C569 1.370 . S
C568 C570 1.363 . S
C568 H584 0.931 . S
C569 C568 1.370 . S
C569 C573 1.408 . S
C570 C568 1.363 . S
C570 C571 1.370 . S
C570 C574 1.524 . S
C571 C563 1.503 . S
C571 C570 1.370 . S
C571 C572 1.403 . S
C572 C571 1.403 . S
C572 C573 1.404 . S
C572 C575 1.539 . S
C573 C569 1.408 . S
C573 C572 1.404 . S
C573 H585 0.930 . S
C574 C570 1.524 . S
C574 H586 0.956 . S
C574 H587 0.961 . S
C574 H588 0.961 . S
C575 C572 1.539 . S
C575 H589 0.958 . S
C575 H590 0.961 . S
C575 H591 0.960 . S
H576 C560 0.931 . S
H577 C565 0.929 . S
H578 C566 0.960 . S
H579 C566 0.962 . S
H580 C566 0.960 . S
H581 C567 0.961 . S
H582 C567 0.961 . S
H583 C567 0.961 . S
H584 C568 0.931 . S
H585 C573 0.930 . S
H586 C574 0.956 . S
H587 C574 0.961 . S
H588 C574 0.961 . S
H589 C575 0.958 . S
H590 C575 0.961 . S
H591 C575 0.960 . S
C592 C593 1.391 . S
C592 C594 1.394 . S
C592 H608 0.931 . S
C593 C592 1.391 . S
C593 C597 1.376 . S
C594 C592 1.394 . S
C594 C595 1.369 . S
C594 C598 1.531 . S
C595 C594 1.369 . S
C595 C596 1.410 . S
C595 C603 1.503 . S
C596 C595 1.410 . S
C596 C597 1.392 . S
C596 C599 1.511 . S
C597 C593 1.376 . S
C597 C596 1.392 . S
C597 H609 0.929 . S
C598 C594 1.531 . S
C598 H610 0.960 . S
C598 H611 0.962 . S
C598 H612 0.960 . S
C599 C596 1.511 . S
C599 H613 0.961 . S
C599 H614 0.961 . S
C599 H615 0.961 . S
C600 C601 1.370 . S
C600 C602 1.363 . S
C600 H616 0.931 . S
C601 C600 1.370 . S
C601 C605 1.408 . S
C602 C600 1.363 . S
C602 C603 1.370 . S
C602 C606 1.524 . S
C603 C595 1.503 . S
C603 C602 1.370 . S
C603 C604 1.403 . S
C604 C603 1.403 . S
C604 C605 1.404 . S
C604 C607 1.539 . S
C605 C601 1.408 . S
C605 C604 1.404 . S
C605 H617 0.930 . S
C606 C602 1.524 . S
C606 H618 0.956 . S
C606 H619 0.961 . S
C606 H620 0.961 . S
C607 C604 1.539 . S
C607 H621 0.958 . S
C607 H622 0.961 . S
C607 H623 0.960 . S
H608 C592 0.931 . S
H609 C597 0.929 . S
H610 C598 0.960 . S
H611 C598 0.962 . S
H612 C598 0.960 . S
H613 C599 0.961 . S
H614 C599 0.961 . S
H615 C599 0.961 . S
H616 C600 0.931 . S
H617 C605 0.930 . S
H618 C606 0.956 . S
H619 C606 0.961 . S
H620 C606 0.961 . S
H621 C607 0.958 . S
H622 C607 0.961 . S
H623 C607 0.960 . S
C624 C625 1.391 . S
C624 C626 1.394 . S
C624 H640 0.931 . S
C625 C624 1.391 . S
C625 C629 1.376 . S
C626 C624 1.394 . S
C626 C627 1.369 . S
C626 C630 1.531 . S
C627 C626 1.369 . S
C627 C628 1.410 . S
C627 C635 1.503 . S
C628 C627 1.410 . S
C628 C629 1.392 . S
C628 C631 1.511 . S
C629 C625 1.376 . S
C629 C628 1.392 . S
C629 H641 0.929 . S
C630 C626 1.531 . S
C630 H642 0.960 . S
C630 H643 0.962 . S
C630 H644 0.960 . S
C631 C628 1.511 . S
C631 H645 0.961 . S
C631 H646 0.961 . S
C631 H647 0.961 . S
C632 C633 1.370 . S
C632 C634 1.363 . S
C632 H648 0.931 . S
C633 C632 1.370 . S
C633 C637 1.408 . S
C634 C632 1.363 . S
C634 C635 1.370 . S
C634 C638 1.524 . S
C635 C627 1.503 . S
C635 C634 1.370 . S
C635 C636 1.403 . S
C636 C635 1.403 . S
C636 C637 1.404 . S
C636 C639 1.539 . S
C637 C633 1.408 . S
C637 C636 1.404 . S
C637 H649 0.930 . S
C638 C634 1.524 . S
C638 H650 0.956 . S
C638 H651 0.961 . S
C638 H652 0.961 . S
C639 C636 1.539 . S
C639 H653 0.958 . S
C639 H654 0.961 . S
C639 H655 0.960 . S
H640 C624 0.931 . S
H641 C629 0.929 . S
H642 C630 0.960 . S
H643 C630 0.962 . S
H644 C630 0.960 . S
H645 C631 0.961 . S
H646 C631 0.961 . S
H647 C631 0.961 . S
H648 C632 0.931 . S
H649 C637 0.930 . S
H650 C638 0.956 . S
H651 C638 0.961 . S
H652 C638 0.961 . S
H653 C639 0.958 . S
H654 C639 0.961 . S
H655 C639 0.960 . S
C656 C657 1.391 . S
C656 C658 1.394 . S
C656 H672 0.931 . S
C657 C656 1.391 . S
C657 C661 1.376 . S
C658 C656 1.394 . S
C658 C659 1.369 . S
C658 C662 1.531 . S
C659 C658 1.369 . S
C659 C660 1.410 . S
C659 C667 1.503 . S
C660 C659 1.410 . S
C660 C661 1.392 . S
C660 C663 1.511 . S
C661 C657 1.376 . S
C661 C660 1.392 . S
C661 H673 0.929 . S
C662 C658 1.531 . S
C662 H674 0.960 . S
C662 H675 0.962 . S
C662 H676 0.960 . S
C663 C660 1.511 . S
C663 H677 0.961 . S
C663 H678 0.961 . S
C663 H679 0.961 . S
C664 C665 1.370 . S
C664 C666 1.363 . S
C664 H680 0.931 . S
C665 C664 1.370 . S
C665 C669 1.408 . S
C666 C664 1.363 . S
C666 C667 1.370 . S
C666 C670 1.524 . S
C667 C659 1.503 . S
C667 C666 1.370 . S
C667 C668 1.403 . S
C668 C667 1.403 . S
C668 C669 1.404 . S
C668 C671 1.539 . S
C669 C665 1.408 . S
C669 C668 1.404 . S
C669 H681 0.930 . S
C670 C666 1.524 . S
C670 H682 0.956 . S
C670 H683 0.961 . S
C670 H684 0.961 . S
C671 C668 1.539 . S
C671 H685 0.958 . S
C671 H686 0.961 . S
C671 H687 0.960 . S
H672 C656 0.931 . S
H673 C661 0.929 . S
H674 C662 0.960 . S
H675 C662 0.962 . S
H676 C662 0.960 . S
H677 C663 0.961 . S
H678 C663 0.961 . S
H679 C663 0.961 . S
H680 C664 0.931 . S
H681 C669 0.930 . S
H682 C670 0.956 . S
H683 C670 0.961 . S
H684 C670 0.961 . S
H685 C671 0.958 . S
H686 C671 0.961 . S
H687 C671 0.960 . S
C688 C689 1.391 . S
C688 C690 1.394 . S
C688 H704 0.931 . S
C689 C688 1.391 . S
C689 C693 1.376 . S
C690 C688 1.394 . S
C690 C691 1.369 . S
C690 C694 1.531 . S
C691 C690 1.369 . S
C691 C692 1.410 . S
C691 C699 1.503 . S
C692 C691 1.410 . S
C692 C693 1.392 . S
C692 C695 1.511 . S
C693 C689 1.376 . S
C693 C692 1.392 . S
C693 H705 0.929 . S
C694 C690 1.531 . S
C694 H706 0.960 . S
C694 H707 0.962 . S
C694 H708 0.960 . S
C695 C692 1.511 . S
C695 H709 0.961 . S
C695 H710 0.961 . S
C695 H711 0.961 . S
C696 C697 1.370 . S
C696 C698 1.363 . S
C696 H712 0.931 . S
C697 C696 1.370 . S
C697 C701 1.408 . S
C698 C696 1.363 . S
C698 C699 1.370 . S
C698 C702 1.524 . S
C699 C691 1.503 . S
C699 C698 1.370 . S
C699 C700 1.403 . S
C700 C699 1.403 . S
C700 C701 1.404 . S
C700 C703 1.539 . S
C701 C697 1.408 . S
C701 C700 1.404 . S
C701 H713 0.930 . S
C702 C698 1.524 . S
C702 H714 0.956 . S
C702 H715 0.961 . S
C702 H716 0.961 . S
C703 C700 1.539 . S
C703 H717 0.958 . S
C703 H718 0.961 . S
C703 H719 0.960 . S
H704 C688 0.931 . S
H705 C693 0.929 . S
H706 C694 0.960 . S
H707 C694 0.962 . S
H708 C694 0.960 . S
H709 C695 0.961 . S
H710 C695 0.961 . S
H711 C695 0.961 . S
H712 C696 0.931 . S
H713 C701 0.930 . S
H714 C702 0.956 . S
H715 C702 0.961 . S
H716 C702 0.961 . S
H717 C703 0.958 . S
H718 C703 0.961 . S
H719 C703 0.960 . S
C720 C721 1.391 . S
C720 C722 1.394 . S
C720 H736 0.931 . S
C721 C720 1.391 . S
C721 C725 1.376 . S
C722 C720 1.394 . S
C722 C723 1.369 . S
C722 C726 1.531 . S
C723 C722 1.369 . S
C723 C724 1.410 . S
C723 C731 1.503 . S
C724 C723 1.410 . S
C724 C725 1.392 . S
C724 C727 1.511 . S
C725 C721 1.376 . S
C725 C724 1.392 . S
C725 H737 0.929 . S
C726 C722 1.531 . S
C726 H738 0.960 . S
C726 H739 0.962 . S
C726 H740 0.960 . S
C727 C724 1.511 . S
C727 H741 0.961 . S
C727 H742 0.961 . S
C727 H743 0.961 . S
C728 C729 1.370 . S
C728 C730 1.363 . S
C728 H744 0.931 . S
C729 C728 1.370 . S
C729 C733 1.408 . S
C730 C728 1.363 . S
C730 C731 1.370 . S
C730 C734 1.524 . S
C731 C723 1.503 . S
C731 C730 1.370 . S
C731 C732 1.403 . S
C732 C731 1.403 . S
C732 C733 1.404 . S
C732 C735 1.539 . S
C733 C729 1.408 . S
C733 C732 1.404 . S
C733 H745 0.930 . S
C734 C730 1.524 . S
C734 H746 0.956 . S
C734 H747 0.961 . S
C734 H748 0.961 . S
C735 C732 1.539 . S
C735 H749 0.958 . S
C735 H750 0.961 . S
C735 H751 0.960 . S
H736 C720 0.931 . S
H737 C725 0.929 . S
H738 C726 0.960 . S
H739 C726 0.962 . S
H740 C726 0.960 . S
H741 C727 0.961 . S
H742 C727 0.961 . S
H743 C727 0.961 . S
H744 C728 0.931 . S
H745 C733 0.930 . S
H746 C734 0.956 . S
H747 C734 0.961 . S
H748 C734 0.961 . S
H749 C735 0.958 . S
H750 C735 0.961 . S
H751 C735 0.960 . S
C752 C753 1.391 . S
C752 C754 1.394 . S
C752 H768 0.931 . S
C753 C752 1.391 . S
C753 C757 1.376 . S
C754 C752 1.394 . S
C754 C755 1.369 . S
C754 C758 1.531 . S
C755 C754 1.369 . S
C755 C756 1.410 . S
C755 C763 1.503 . S
C756 C755 1.410 . S
C756 C757 1.392 . S
C756 C759 1.511 . S
C757 C753 1.376 . S
C757 C756 1.392 . S
C757 H769 0.929 . S
C758 C754 1.531 . S
C758 H770 0.960 . S
C758 H771 0.962 . S
C758 H772 0.960 . S
C759 C756 1.511 . S
C759 H773 0.961 . S
C759 H774 0.961 . S
C759 H775 0.961 . S
C760 C761 1.370 . S
C760 C762 1.363 . S
C760 H776 0.931 . S
C761 C760 1.370 . S
C761 C765 1.408 . S
C762 C760 1.363 . S
C762 C763 1.370 . S
C762 C766 1.524 . S
C763 C755 1.503 . S
C763 C762 1.370 . S
C763 C764 1.403 . S
C764 C763 1.403 . S
C764 C765 1.404 . S
C764 C767 1.539 . S
C765 C761 1.408 . S
C765 C764 1.404 . S
C765 H777 0.930 . S
C766 C762 1.524 . S
C766 H778 0.956 . S
C766 H779 0.961 . S
C766 H780 0.961 . S
C767 C764 1.539 . S
C767 H781 0.958 . S
C767 H782 0.961 . S
C767 H783 0.960 . S
H768 C752 0.931 . S
H769 C757 0.929 . S
H770 C758 0.960 . S
H771 C758 0.962 . S
H772 C758 0.960 . S
H773 C759 0.961 . S
H774 C759 0.961 . S
H775 C759 0.961 . S
H776 C760 0.931 . S
H777 C765 0.930 . S
H778 C766 0.956 . S
H779 C766 0.961 . S
H780 C766 0.961 . S
H781 C767 0.958 . S
H782 C767 0.961 . S
H783 C767 0.960 . S
C784 C785 1.391 . S
C784 C786 1.394 . S
C784 H800 0.931 . S
C785 C784 1.391 . S
C785 C789 1.376 . S
C786 C784 1.394 . S
C786 C787 1.369 . S
C786 C790 1.531 . S
C787 C786 1.369 . S
C787 C788 1.410 . S
C787 C795 1.503 1_655 S
C788 C787 1.410 . S
C788 C789 1.392 . S
C788 C791 1.511 1_656 S
C789 C785 1.376 . S
C789 C788 1.392 . S
C789 H801 0.929 1_556 S
C790 C786 1.531 . S
C790 H802 0.960 . S
C790 H803 0.962 . S
C790 H804 0.960 . S
C791 C788 1.511 1_454 S
C791 H805 0.961 . S
C791 H806 0.961 . S
C791 H807 0.961 . S
C792 C793 1.361 1_554 S
C792 C794 1.363 1_554 S
C792 H808 0.941 . S
C793 C792 1.361 1_556 S
C793 C797 1.408 . S
C794 C792 1.363 1_556 S
C794 C795 1.370 . S
C794 C798 1.524 1_456 S
C795 C787 1.503 1_455 S
C795 C794 1.370 . S
C795 C796 1.403 . S
C796 C795 1.403 . S
C796 C797 1.404 . S
C796 C799 1.539 . S
C797 C793 1.408 . S
C797 C796 1.404 . S
C797 H809 0.930 . S
C798 C794 1.524 1_654 S
C798 H810 0.956 . S
C798 H811 0.961 . S
C798 H812 0.968 . S
C799 C796 1.539 . S
C799 H813 0.958 . S
C799 H814 0.961 . S
C799 H815 0.960 . S
H800 C784 0.931 . S
H801 C789 0.929 1_554 S
H802 C790 0.960 . S
H803 C790 0.962 . S
H804 C790 0.960 . S
H805 C791 0.961 . S
H806 C791 0.961 . S
H807 C791 0.961 . S
H808 C792 0.941 . S
H809 C797 0.930 . S
H810 C798 0.956 . S
H811 C798 0.961 . S
H812 C798 0.968 . S
H813 C799 0.958 . S
H814 C799 0.961 . S
H815 C799 0.960 . S
C816 C817 1.391 . S
C816 C818 1.394 . S
C816 H832 0.931 . S
C817 C816 1.391 . S
C817 C821 1.376 . S
C818 C816 1.394 . S
C818 C819 1.369 . S
C818 C822 1.531 . S
C819 C818 1.369 . S
C819 C820 1.410 . S
C819 C827 1.503 1_545 S
C820 C819 1.410 . S
C820 C821 1.392 . S
C820 C823 1.511 1_545 S
C821 C817 1.376 . S
C821 C820 1.392 . S
C821 H833 0.929 . S
C822 C818 1.531 . S
C822 H834 0.960 . S
C822 H835 0.962 . S
C822 H836 0.960 . S
C823 C820 1.511 1_565 S
C823 H837 0.961 1_556 S
C823 H838 0.961 . S
C823 H839 0.961 . S
C824 C825 1.370 1_554 S
C824 C826 1.363 . S
C824 H840 0.931 . S
C825 C824 1.370 1_556 S
C825 C829 1.408 . S
C826 C824 1.363 . S
C826 C827 1.370 1_554 S
C826 C830 1.524 . S
C827 C819 1.503 1_565 S
C827 C826 1.370 1_556 S
C827 C828 1.403 . S
C828 C827 1.403 . S
C828 C829 1.404 . S
C828 C831 1.539 . S
C829 C825 1.408 . S
C829 C828 1.404 . S
C829 H841 0.930 . S
C830 C826 1.524 . S
C830 H842 0.956 1_565 S
C830 H843 0.960 1_565 S
C830 H844 0.961 . S
C831 C828 1.539 . S
C831 H845 0.958 . S
C831 H846 0.961 . S
C831 H847 0.960 . S
H832 C816 0.931 . S
H833 C821 0.929 . S
H834 C822 0.960 . S
H835 C822 0.962 . S
H836 C822 0.960 . S
H837 C823 0.961 1_554 S
H838 C823 0.961 . S
H839 C823 0.961 . S
H840 C824 0.931 . S
H841 C829 0.930 . S
H842 C830 0.956 1_545 S
H843 C830 0.960 1_545 S
H844 C830 0.961 . S
H845 C831 0.958 . S
H846 C831 0.961 . S
H847 C831 0.960 . S
C848 C849 1.391 . S
C848 C850 1.394 . S
C848 H864 0.931 . S
C849 C848 1.391 . S
C849 C853 1.376 . S
C850 C848 1.394 . S
C850 C851 1.369 . S
C850 C854 1.531 . S
C851 C850 1.369 . S
C851 C852 1.410 1_545 S
C851 C859 1.503 1_545 S
C852 C851 1.410 1_565 S
C852 C853 1.392 1_565 S
C852 C855 1.511 . S
C853 C849 1.376 . S
C853 C852 1.392 1_545 S
C853 H865 0.929 . S
C854 C850 1.531 . S
C854 H866 0.960 . S
C854 H867 0.962 . S
C854 H868 0.960 . S
C855 C852 1.511 . S
C855 H869 0.961 . S
C855 H870 0.961 . S
C855 H871 0.961 . S
C856 C857 1.370 . S
C856 C858 1.363 . S
C856 H872 0.931 . S
C857 C856 1.370 . S
C857 C861 1.408 . S
C858 C856 1.363 . S
C858 C859 1.370 . S
C858 C862 1.524 1_565 S
C859 C851 1.503 1_565 S
C859 C858 1.370 . S
C859 C860 1.403 . S
C860 C859 1.403 . S
C860 C861 1.404 . S
C860 C863 1.539 . S
C861 C857 1.408 . S
C861 C860 1.404 . S
C861 H873 0.930 . S
C862 C858 1.524 1_545 S
C862 H874 0.956 . S
C862 H875 0.961 . S
C862 H876 0.961 . S
C863 C860 1.539 . S
C863 H877 0.958 . S
C863 H878 0.961 . S
C863 H879 0.960 . S
H864 C848 0.931 . S
H865 C853 0.929 . S
H866 C854 0.960 . S
H867 C854 0.962 . S
H868 C854 0.960 . S
H869 C855 0.961 . S
H870 C855 0.961 . S
H871 C855 0.961 . S
H872 C856 0.931 . S
H873 C861 0.930 . S
H874 C862 0.956 . S
H875 C862 0.961 . S
H876 C862 0.961 . S
H877 C863 0.958 . S
H878 C863 0.961 . S
H879 C863 0.960 . S
C880 C881 1.391 . S
C880 C882 1.394 . S
C880 H896 0.931 . S
C881 C880 1.391 . S
C881 C885 1.376 . S
C882 C880 1.394 . S
C882 C883 1.369 . S
C882 C886 1.531 . S
C883 C882 1.369 . S
C883 C884 1.410 . S
C883 C891 1.503 1_455 S
C884 C883 1.410 . S
C884 C885 1.392 . S
C884 C887 1.511 1_455 S
C885 C881 1.376 . S
C885 C884 1.392 . S
C885 H897 0.929 . S
C886 C882 1.531 . S
C886 H898 0.960 1_455 S
C886 H899 0.962 . S
C886 H900 0.960 . S
C887 C884 1.511 1_655 S
C887 H901 0.961 . S
C887 H902 0.961 . S
C887 H903 0.961 . S
C888 C889 1.370 . S
C888 C890 1.363 1_655 S
C888 H904 0.931 . S
C889 C888 1.370 . S
C889 C893 1.408 . S
C890 C888 1.363 1_455 S
C890 C891 1.370 1_455 S
C890 C894 1.524 . S
C891 C883 1.503 1_655 S
C891 C890 1.370 1_655 S
C891 C892 1.403 . S
C892 C891 1.403 . S
C892 C893 1.404 . S
C892 C895 1.539 . S
C893 C889 1.408 . S
C893 C892 1.404 . S
C893 H905 0.930 . S
C894 C890 1.524 . S
C894 H906 0.956 . S
C894 H907 0.961 . S
C894 H908 0.961 . S
C895 C892 1.539 . S
C895 H909 0.958 . S
C895 H910 0.961 . S
C895 H911 0.960 . S
H896 C880 0.931 . S
H897 C885 0.929 . S
H898 C886 0.960 1_655 S
H899 C886 0.962 . S
H900 C886 0.960 . S
H901 C887 0.961 . S
H902 C887 0.961 . S
H903 C887 0.961 . S
H904 C888 0.931 . S
H905 C893 0.930 . S
H906 C894 0.956 . S
H907 C894 0.961 . S
H908 C894 0.961 . S
H909 C895 0.958 . S
H910 C895 0.961 . S
H911 C895 0.960 . S
C273 C54 0.736 . S
C281 C5 0.668 . S
C305 C39 0.682 . S
C313 C88 0.655 . S
C337 C73 0.679 . S
C345 C122 0.655 . S
C369 C20 0.708 . S
C377 C107 0.674 . S
C401 C190 0.679 . S
C409 C141 0.677 . S
C433 C224 0.697 . S
C441 C175 0.664 . S
C465 C209 0.678 . S
C473 C258 0.655 . S
C497 C243 0.680 . S
C505 C156 0.655 . S
C529 C206 1.550 . S
C537 C33 1.549 . S
C561 C67 1.558 . S
C569 C240 1.521 . S
C593 C101 1.547 . S
C601 C138 1.528 . S
C625 C135 1.547 . S
C633 C172 1.536 . S
C657 C169 1.541 . S
C665 C70 1.542 . S
C689 C203 1.564 . S
C697 C104 1.525 . S
C721 C237 1.564 . S
C729 C2 1.525 . S
C753 C36 1.514 . S
C761 C271 1.558 . S
C785 C77 2.098 . S
C793 C9 2.087 . S
C817 C43 2.102 . S
C825 C111 2.091 . S
C849 C213 2.057 . S
C857 C145 2.076 . S
C881 C179 2.067 . S
C889 C247 2.081 . S
