# Generated by pormake.
# Topology wla, (5)-cn, num edge types: 1
# Building blocks:
#     Node 0, Type 0, BuildingBlock: XOMCOT_clean_sbu_0, # of connection points: 5
#     Node 1, Type 0, BuildingBlock: XOMCOT_clean_sbu_0, # of connection points: 5
#     Node 2, Type 0, BuildingBlock: XOMCOT_clean_sbu_0, # of connection points: 5
#     Node 3, Type 0, BuildingBlock: XOMCOT_clean_sbu_0, # of connection points: 5
#     Node 4, Type 0, BuildingBlock: XOMCOT_clean_sbu_0, # of connection points: 5
#     Node 5, Type 0, BuildingBlock: XOMCOT_clean_sbu_0, # of connection points: 5
#     Node 6, Type 0, BuildingBlock: XOMCOT_clean_sbu_0, # of connection points: 5
#     Node 7, Type 0, BuildingBlock: XOMCOT_clean_sbu_0, # of connection points: 5
#     Node 8, Type 0, BuildingBlock: XOMCOT_clean_sbu_0, # of connection points: 5
#     Node 9, Type 0, BuildingBlock: XOMCOT_clean_sbu_0, # of connection points: 5
#     Node 10, Type 0, BuildingBlock: XOMCOT_clean_sbu_0, # of connection points: 5
#     Node 11, Type 0, BuildingBlock: XOMCOT_clean_sbu_0, # of connection points: 5
#     Node 12, Type 0, BuildingBlock: XOMCOT_clean_sbu_0, # of connection points: 5
#     Node 13, Type 0, BuildingBlock: XOMCOT_clean_sbu_0, # of connection points: 5
#     Node 14, Type 0, BuildingBlock: XOMCOT_clean_sbu_0, # of connection points: 5
#     Node 15, Type 0, BuildingBlock: XOMCOT_clean_sbu_0, # of connection points: 5
#     Node 16, Type 0, BuildingBlock: XOMCOT_clean_sbu_0, # of connection points: 5
#     Node 17, Type 0, BuildingBlock: XOMCOT_clean_sbu_0, # of connection points: 5
#     Edge 18, Type (0, 0), BuildingBlock: KIFKEQ_clean_linker_1, # of connection points: 2
#     Edge 19, Type (0, 0), BuildingBlock: KIFKEQ_clean_linker_1, # of connection points: 2
#     Edge 20, Type (0, 0), BuildingBlock: KIFKEQ_clean_linker_1, # of connection points: 2
#     Edge 21, Type (0, 0), BuildingBlock: KIFKEQ_clean_linker_1, # of connection points: 2
#     Edge 22, Type (0, 0), BuildingBlock: KIFKEQ_clean_linker_1, # of connection points: 2
#     Edge 23, Type (0, 0), BuildingBlock: KIFKEQ_clean_linker_1, # of connection points: 2
#     Edge 24, Type (0, 0), BuildingBlock: KIFKEQ_clean_linker_1, # of connection points: 2
#     Edge 25, Type (0, 0), BuildingBlock: KIFKEQ_clean_linker_1, # of connection points: 2
#     Edge 26, Type (0, 0), BuildingBlock: KIFKEQ_clean_linker_1, # of connection points: 2
#     Edge 27, Type (0, 0), BuildingBlock: KIFKEQ_clean_linker_1, # of connection points: 2
#     Edge 28, Type (0, 0), BuildingBlock: KIFKEQ_clean_linker_1, # of connection points: 2
#     Edge 29, Type (0, 0), BuildingBlock: KIFKEQ_clean_linker_1, # of connection points: 2
#     Edge 30, Type (0, 0), BuildingBlock: KIFKEQ_clean_linker_1, # of connection points: 2
#     Edge 31, Type (0, 0), BuildingBlock: KIFKEQ_clean_linker_1, # of connection points: 2
#     Edge 32, Type (0, 0), BuildingBlock: KIFKEQ_clean_linker_1, # of connection points: 2
#     Edge 33, Type (0, 0), BuildingBlock: KIFKEQ_clean_linker_1, # of connection points: 2
#     Edge 34, Type (0, 0), BuildingBlock: KIFKEQ_clean_linker_1, # of connection points: 2
#     Edge 35, Type (0, 0), BuildingBlock: KIFKEQ_clean_linker_1, # of connection points: 2
#     Edge 36, Type (0, 0), BuildingBlock: KIFKEQ_clean_linker_1, # of connection points: 2
#     Edge 37, Type (0, 0), BuildingBlock: KIFKEQ_clean_linker_1, # of connection points: 2
#     Edge 38, Type (0, 0), BuildingBlock: KIFKEQ_clean_linker_1, # of connection points: 2
#     Edge 39, Type (0, 0), BuildingBlock: KIFKEQ_clean_linker_1, # of connection points: 2
#     Edge 40, Type (0, 0), BuildingBlock: KIFKEQ_clean_linker_1, # of connection points: 2
#     Edge 41, Type (0, 0), BuildingBlock: KIFKEQ_clean_linker_1, # of connection points: 2
#     Edge 42, Type (0, 0), BuildingBlock: KIFKEQ_clean_linker_1, # of connection points: 2
#     Edge 43, Type (0, 0), BuildingBlock: KIFKEQ_clean_linker_1, # of connection points: 2
#     Edge 44, Type (0, 0), BuildingBlock: KIFKEQ_clean_linker_1, # of connection points: 2
#     Edge 45, Type (0, 0), BuildingBlock: KIFKEQ_clean_linker_1, # of connection points: 2
#     Edge 46, Type (0, 0), BuildingBlock: KIFKEQ_clean_linker_1, # of connection points: 2
#     Edge 47, Type (0, 0), BuildingBlock: KIFKEQ_clean_linker_1, # of connection points: 2
#     Edge 48, Type (0, 0), BuildingBlock: KIFKEQ_clean_linker_1, # of connection points: 2
#     Edge 49, Type (0, 0), BuildingBlock: KIFKEQ_clean_linker_1, # of connection points: 2
#     Edge 50, Type (0, 0), BuildingBlock: KIFKEQ_clean_linker_1, # of connection points: 2
#     Edge 51, Type (0, 0), BuildingBlock: KIFKEQ_clean_linker_1, # of connection points: 2
#     Edge 52, Type (0, 0), BuildingBlock: KIFKEQ_clean_linker_1, # of connection points: 2
#     Edge 53, Type (0, 0), BuildingBlock: KIFKEQ_clean_linker_1, # of connection points: 2
#     Edge 54, Type (0, 0), BuildingBlock: KIFKEQ_clean_linker_1, # of connection points: 2
#     Edge 55, Type (0, 0), BuildingBlock: KIFKEQ_clean_linker_1, # of connection points: 2
#     Edge 56, Type (0, 0), BuildingBlock: KIFKEQ_clean_linker_1, # of connection points: 2
#     Edge 57, Type (0, 0), BuildingBlock: KIFKEQ_clean_linker_1, # of connection points: 2
#     Edge 58, Type (0, 0), BuildingBlock: KIFKEQ_clean_linker_1, # of connection points: 2
#     Edge 59, Type (0, 0), BuildingBlock: KIFKEQ_clean_linker_1, # of connection points: 2
#     Edge 60, Type (0, 0), BuildingBlock: KIFKEQ_clean_linker_1, # of connection points: 2
#     Edge 61, Type (0, 0), BuildingBlock: KIFKEQ_clean_linker_1, # of connection points: 2
#     Edge 62, Type (0, 0), BuildingBlock: KIFKEQ_clean_linker_1, # of connection points: 2
# Relax obj value: 0.271
# Max RMSD: 0.259
# Mean RMSD: 0.259
data_MOF--net-wla--node1-XOMCOT_clean_sbu_0--edge1-KIFKEQ_clean_linker_1
_symmetry_space_group_name_H-M    P1
_symmetry_Int_Tables_number       1
_symmetry_cell_setting            triclinic
loop_
_symmetry_equiv_pos_as_xyz
'x, y, z'
_cell_length_a     59.823066
_cell_length_b     59.845625
_cell_length_c     32.033397
_cell_angle_alpha  90.01521
_cell_angle_beta   90.00297
_cell_angle_gamma 120.019
loop_
_atom_site_label
_atom_site_type_symbol
_atom_site_fract_x
_atom_site_fract_y
_atom_site_fract_z
_atom_type_partial_charge
Co0 Co 0.1655 0.02496 0.21415 0.0
C1 C 0.21948 0.06734 0.19979 0.0
C2 C 0.19157 0.07794 0.18178 0.0
C3 C 0.21573 0.09781 0.17143 0.0
N4 N 0.19393 0.05901 0.2004 0.0
N5 N 0.23327 0.09108 0.18274 0.0
H6 H 0.22783 0.05579 0.20885 0.0
H7 H 0.17342 0.07701 0.17492 0.0
C8 C 0.15244 0.06149 0.25726 0.0
O9 O 0.17632 0.07485 0.27088 0.0
N10 N 0.13709 0.99111 0.22676 0.0
C11 C 0.13878 0.97053 0.23915 0.0
C12 C 0.11429 0.95052 0.24729 0.0
C13 C 0.11173 0.98343 0.22719 0.0
N14 N 0.09726 0.95863 0.23983 0.0
C15 C 0.20119 0.02221 0.2722 0.0
C16 C 0.17502 0.02209 0.34336 0.0
C17 C 0.19756 0.02081 0.34739 0.0
C18 C 0.21061 0.02045 0.31142 0.0
C19 C 0.16619 0.02351 0.30386 0.0
N20 N 0.17992 0.02501 0.26881 0.0
H21 H 0.21036 0.02016 0.24466 0.0
H22 H 0.14764 0.0223 0.30172 0.0
H23 H 0.15663 0.9703 0.24285 0.0
H24 H 0.10411 0.99576 0.21838 0.0
O25 O 0.1812 0.00958 0.17989 0.0
O26 O 0.1535 0.02151 0.15802 0.0
O27 O 0.14511 0.04078 0.23642 0.0
C28 C 0.16787 0.01156 0.14932 0.0
H29 H 0.21993 0.11559 0.15605 0.0
H30 H 0.10957 0.93167 0.25887 0.0
H31 H 0.16385 0.02117 0.3706 0.0
H32 H 0.22751 0.0183 0.31358 0.0
Co33 Co 0.97066 0.1388 0.21946 0.0
C34 C 0.92749 0.14945 0.20828 0.0
C35 C 0.91853 0.11271 0.18328 0.0
C36 C 0.8983 0.11679 0.1747 0.0
N37 N 0.93664 0.13298 0.2051 0.0
N38 N 0.904 0.13996 0.19044 0.0
H39 H 0.93829 0.16861 0.22094 0.0
H40 H 0.9202 0.09633 0.17336 0.0
C41 C 0.93355 0.0874 0.25661 0.0
O42 O 0.91966 0.09717 0.27091 0.0
N43 N 0.00465 0.14487 0.2328 0.0
C44 C 0.02485 0.16769 0.2444 0.0
C45 C 0.04553 0.16432 0.25244 0.0
C46 C 0.01318 0.12787 0.23386 0.0
N47 N 0.03818 0.13929 0.24586 0.0
C48 C 0.97298 0.17542 0.28087 0.0
C49 C 0.97402 0.14783 0.34931 0.0
C50 C 0.97685 0.17218 0.35548 0.0
C51 C 0.97619 0.18611 0.32091 0.0
C52 C 0.97081 0.13791 0.30911 0.0
N53 N 0.96951 0.15121 0.27535 0.0
H54 H 0.975 0.18733 0.25428 0.0
H55 H 0.97126 0.12026 0.30533 0.0
H56 H 0.02446 0.18549 0.2473 0.0
H57 H 0.00144 0.1077 0.22572 0.0
O58 O 0.98619 0.17091 0.18754 0.0
O59 O 0.97534 0.13215 0.16285 0.0
O60 O 0.95502 0.10187 0.23832 0.0
C61 C 0.98531 0.15666 0.15601 0.0
H62 H 0.88098 0.10384 0.15762 0.0
H63 H 0.06438 0.17907 0.26312 0.0
H64 H 0.97551 0.13704 0.37528 0.0
H65 H 0.97949 0.20552 0.32459 0.0
Co66 Co 0.85547 0.82825 0.20996 0.0
C67 C 0.84427 0.77408 0.20675 0.0
C68 C 0.88481 0.80074 0.20353 0.0
C69 C 0.88081 0.77629 0.1969 0.0
N70 N 0.86194 0.79939 0.21108 0.0
N71 N 0.85526 0.7596 0.19862 0.0
H72 H 0.8237 0.76653 0.2061 0.0
H73 H 0.90303 0.81834 0.19938 0.0
C74 C 0.90447 0.84973 0.25967 0.0
O75 O 0.89341 0.82924 0.28379 0.0
N76 N 0.849 0.85679 0.20734 0.0
C77 C 0.82569 0.85497 0.2104 0.0
C78 C 0.82914 0.87942 0.21348 0.0
C79 C 0.86631 0.88228 0.20833 0.0
N80 N 0.8547 0.89657 0.21254 0.0
C81 C 0.82128 0.79854 0.27761 0.0
C82 C 0.84175 0.83849 0.33481 0.0
C83 C 0.82129 0.81449 0.34699 0.0
C84 C 0.81098 0.7943 0.31796 0.0
C85 C 0.85173 0.84174 0.29462 0.0
N86 N 0.84203 0.82174 0.26678 0.0
H87 H 0.81199 0.78339 0.25498 0.0
H88 H 0.86717 0.86061 0.2858 0.0
H89 H 0.80752 0.83706 0.21256 0.0
H90 H 0.88698 0.89016 0.20748 0.0
O91 O 0.82379 0.80728 0.17887 0.0
O92 O 0.86291 0.83142 0.1515 0.0
O93 O 0.8918 0.85235 0.22983 0.0
C94 C 0.83845 0.81542 0.14585 0.0
H95 H 0.89535 0.77145 0.18807 0.0
H96 H 0.81404 0.88408 0.2185 0.0
H97 H 0.85016 0.85463 0.35633 0.0
H98 H 0.79472 0.77565 0.32606 0.0
Co99 Co 0.03784 0.1761 0.79116 0.0
C100 C 0.07677 0.2313 0.78864 0.0
C101 C 0.09454 0.20788 0.79355 0.0
C102 C 0.11358 0.23345 0.79488 0.0
N103 N 0.07155 0.20663 0.7894 0.0
N104 N 0.10233 0.24811 0.79207 0.0
H105 H 0.06207 0.23675 0.78668 0.0
H106 H 0.09723 0.19143 0.79723 0.0
C107 C 0.04734 0.14071 0.73469 0.0
O108 O 0.02719 0.13532 0.71134 0.0
N109 N 0.00357 0.14521 0.79452 0.0
C110 C 0.98164 0.14461 0.80693 0.0
C111 C 0.9617 0.11953 0.80768 0.0
C112 C 0.99656 0.12004 0.78968 0.0
N113 N 0.9711 0.1042 0.79644 0.0
C114 C 0.00839 0.18647 0.7304 0.0
C115 C 0.04206 0.19633 0.66475 0.0
C116 C 0.01872 0.19577 0.65706 0.0
C117 C 0.00201 0.19129 0.69071 0.0
C118 C 0.04754 0.19118 0.70476 0.0
N119 N 0.03023 0.18507 0.73659 0.0
H120 H 0.99574 0.18395 0.75602 0.0
H121 H 0.06556 0.19152 0.70994 0.0
H122 H 0.98003 0.16118 0.81563 0.0
H123 H 0.00964 0.11302 0.78327 0.0
O124 O 0.02612 0.19425 0.82755 0.0
O125 O 0.04384 0.17119 0.8482 0.0
O126 O 0.0532 0.15591 0.7659 0.0
C127 C 0.0341 0.1856 0.85812 0.0
H128 H 0.13396 0.24066 0.79982 0.0
H129 H 0.94177 0.11305 0.81545 0.0
H130 H 0.05565 0.19985 0.63978 0.0
H131 H 0.98417 0.19153 0.6864 0.0
Co132 Co 0.82994 0.86164 0.79006 0.0
C133 C 0.77672 0.8526 0.79999 0.0
C134 C 0.80494 0.89093 0.81812 0.0
C135 C 0.78075 0.88748 0.82593 0.0
N136 N 0.80242 0.86922 0.80079 0.0
N137 N 0.76303 0.86333 0.81437 0.0
H138 H 0.7681 0.83245 0.79234 0.0
H139 H 0.8231 0.90779 0.82623 0.0
C140 C 0.85148 0.91518 0.75408 0.0
O141 O 0.83019 0.90793 0.7327 0.0
N142 N 0.85714 0.85383 0.78016 0.0
C143 C 0.85377 0.83063 0.76912 0.0
C144 C 0.87749 0.83328 0.7604 0.0
C145 C 0.88279 0.8703 0.77812 0.0
N146 N 0.8957 0.85825 0.76583 0.0
C147 C 0.79678 0.82997 0.72312 0.0
C148 C 0.83178 0.85614 0.6601 0.0
C149 C 0.80839 0.83414 0.65016 0.0
C150 C 0.79058 0.82106 0.68199 0.0
C151 C 0.83697 0.86462 0.70127 0.0
N152 N 0.81934 0.85205 0.73226 0.0
H153 H 0.78418 0.81809 0.74764 0.0
H154 H 0.85593 0.88048 0.70836 0.0
H155 H 0.83525 0.81319 0.76602 0.0
H156 H 0.89177 0.89071 0.78477 0.0
O157 O 0.80982 0.82835 0.81767 0.0
O158 O 0.83785 0.86529 0.84814 0.0
O159 O 0.85426 0.89889 0.77586 0.0
C160 C 0.82186 0.84071 0.85143 0.0
H161 H 0.77663 0.90149 0.83989 0.0
H162 H 0.88092 0.81819 0.7492 0.0
H163 H 0.84628 0.86633 0.63634 0.0
H164 H 0.77272 0.80337 0.6755 0.0
Co165 Co 0.13599 0.96841 0.78107 0.0
C166 C 0.14859 0.92614 0.781 0.0
C167 C 0.10964 0.91318 0.79977 0.0
C168 C 0.11473 0.89344 0.80619 0.0
N169 N 0.13076 0.93367 0.78345 0.0
N170 N 0.13923 0.90169 0.79438 0.0
H171 H 0.16863 0.93875 0.77355 0.0
H172 H 0.09225 0.91317 0.80903 0.0
C173 C 0.0868 0.93581 0.73351 0.0
O174 O 0.09744 0.92404 0.71431 0.0
N175 N 0.14112 0.00298 0.77972 0.0
C176 C 0.16407 0.02501 0.77974 0.0
C177 C 0.15999 0.04539 0.77293 0.0
C178 C 0.12338 0.01023 0.77289 0.0
N179 N 0.13439 0.03608 0.76829 0.0
C180 C 0.17536 0.978 0.71989 0.0
C181 C 0.15079 0.9866 0.65405 0.0
C182 C 0.17497 0.98895 0.64724 0.0
C183 C 0.18733 0.98449 0.68067 0.0
C184 C 0.13948 0.97985 0.69338 0.0
N185 N 0.15123 0.97465 0.7255 0.0
H186 H 0.18608 0.97688 0.74604 0.0
H187 H 0.1217 0.97993 0.6981 0.0
H188 H 0.1826 0.02613 0.78298 0.0
H189 H 0.10298 0.99685 0.76942 0.0
O190 O 0.16664 0.98043 0.816 0.0
O191 O 0.12649 0.96514 0.83859 0.0
O192 O 0.10001 0.95436 0.75866 0.0
C193 C 0.15066 0.974 0.84734 0.0
H194 H 0.10184 0.87491 0.82026 0.0
H195 H 0.17486 0.06548 0.77097 0.0
H196 H 0.14076 0.99031 0.62924 0.0
H197 H 0.20646 0.98704 0.67697 0.0
Co198 Co 0.84084 0.36623 0.54454 0.0
C199 C 0.89584 0.4077 0.54871 0.0
C200 C 0.87067 0.42276 0.53728 0.0
C201 C 0.89574 0.44261 0.5338 0.0
N202 N 0.87062 0.40089 0.54777 0.0
N203 N 0.91159 0.43308 0.54072 0.0
H204 H 0.90259 0.39415 0.55199 0.0
H205 H 0.8537 0.42393 0.52946 0.0
C206 C 0.82085 0.39573 0.59282 0.0
O207 O 0.84148 0.40541 0.6167 0.0
N208 N 0.81131 0.33171 0.5401 0.0
C209 C 0.8123 0.30978 0.53703 0.0
C210 C 0.78768 0.28908 0.5402 0.0
C211 C 0.78606 0.32403 0.54511 0.0
N212 N 0.77113 0.298 0.54576 0.0
C213 C 0.86731 0.35656 0.61246 0.0
C214 C 0.82851 0.34412 0.67019 0.0
C215 C 0.85118 0.34487 0.68323 0.0
C216 C 0.87053 0.35047 0.65355 0.0
C217 C 0.82609 0.35015 0.62921 0.0
N218 N 0.84587 0.35775 0.60133 0.0
H219 H 0.88177 0.3597 0.58959 0.0
H220 H 0.80798 0.34846 0.62003 0.0
H221 H 0.82981 0.3088 0.53432 0.0
H222 H 0.77893 0.33716 0.55047 0.0
O223 O 0.86139 0.3552 0.51251 0.0
O224 O 0.83854 0.37191 0.48643 0.0
O225 O 0.81767 0.37962 0.56405 0.0
C226 C 0.85389 0.36282 0.47993 0.0
H227 H 0.90173 0.46207 0.52371 0.0
H228 H 0.78259 0.26902 0.53932 0.0
H229 H 0.81249 0.33858 0.69145 0.0
H230 H 0.88798 0.35033 0.66202 0.0
Co231 Co 0.63914 0.47261 0.54651 0.0
C232 C 0.59637 0.4832 0.5304 0.0
C233 C 0.58881 0.4471 0.50435 0.0
C234 C 0.56908 0.45139 0.49296 0.0
N235 N 0.6057 0.46683 0.5285 0.0
N236 N 0.57396 0.47418 0.50921 0.0
H237 H 0.60606 0.50172 0.54559 0.0
H238 H 0.59118 0.43113 0.49444 0.0
C239 C 0.60074 0.42043 0.57996 0.0
O240 O 0.58579 0.42958 0.59159 0.0
N241 N 0.67256 0.47857 0.56348 0.0
C242 C 0.69199 0.50081 0.57865 0.0
C243 C 0.71236 0.49719 0.5882 0.0
C244 C 0.68129 0.46172 0.56373 0.0
N245 N 0.70564 0.47261 0.57884 0.0
C246 C 0.63975 0.50894 0.60676 0.0
C247 C 0.63434 0.47931 0.67628 0.0
C248 C 0.63769 0.50392 0.68185 0.0
C249 C 0.64073 0.51905 0.64669 0.0
C250 C 0.63417 0.47029 0.6362 0.0
N251 N 0.63569 0.48448 0.60173 0.0
H252 H 0.64354 0.5213 0.58004 0.0
H253 H 0.63432 0.45245 0.63351 0.0
H254 H 0.69128 0.51838 0.58284 0.0
H255 H 0.67014 0.44205 0.55269 0.0
O256 O 0.65555 0.50503 0.51539 0.0
O257 O 0.64601 0.46662 0.49064 0.0
O258 O 0.62304 0.43548 0.5646 0.0
C259 C 0.65571 0.49113 0.4841 0.0
H260 H 0.55309 0.43931 0.47257 0.0
H261 H 0.73053 0.5115 0.60171 0.0
H262 H 0.63319 0.46762 0.70292 0.0
H263 H 0.64438 0.5386 0.65007 0.0
Co264 Co 0.52927 0.16252 0.53333 0.0
C265 C 0.51812 0.10835 0.53458 0.0
C266 C 0.55813 0.13494 0.5237 0.0
C267 C 0.55384 0.11029 0.51836 0.0
N268 N 0.53583 0.1338 0.53486 0.0
N269 N 0.52858 0.09354 0.5249 0.0
H270 H 0.49771 0.10084 0.53808 0.0
H271 H 0.5759 0.15247 0.51649 0.0
C272 C 0.57948 0.18439 0.58072 0.0
O273 O 0.56977 0.16384 0.60476 0.0
N274 N 0.52252 0.19087 0.53071 0.0
C275 C 0.49895 0.18857 0.532 0.0
C276 C 0.50182 0.21276 0.53543 0.0
C277 C 0.53944 0.21642 0.53338 0.0
N278 N 0.52728 0.23026 0.53658 0.0
C279 C 0.49267 0.13404 0.59916 0.0
C280 C 0.51611 0.17232 0.65872 0.0
C281 C 0.49339 0.14965 0.66929 0.0
C282 C 0.48163 0.13027 0.63899 0.0
C283 C 0.52651 0.17519 0.61891 0.0
N284 N 0.51539 0.15589 0.58994 0.0
H285 H 0.48224 0.11991 0.57538 0.0
H286 H 0.54313 0.19351 0.61114 0.0
H287 H 0.48091 0.17046 0.53255 0.0
H288 H 0.56016 0.22467 0.53421 0.0
O289 O 0.49805 0.14151 0.50064 0.0
O290 O 0.53752 0.16624 0.47529 0.0
O291 O 0.5655 0.18677 0.553 0.0
C292 C 0.51328 0.15025 0.46824 0.0
H293 H 0.56786 0.10528 0.50724 0.0
H294 H 0.48633 0.21698 0.53908 0.0
H295 H 0.52574 0.18794 0.68095 0.0
H296 H 0.46356 0.11281 0.64547 0.0
Co297 Co 0.69838 0.50098 0.11726 0.0
C298 C 0.73984 0.55588 0.11751 0.0
C299 C 0.75467 0.53047 0.12854 0.0
C300 C 0.77439 0.55543 0.13412 0.0
N301 N 0.73307 0.5307 0.117 0.0
N302 N 0.76494 0.57136 0.1275 0.0
H303 H 0.72641 0.56276 0.11387 0.0
H304 H 0.75562 0.5133 0.13556 0.0
C305 C 0.72937 0.48313 0.06783 0.0
O306 O 0.74024 0.50493 0.04688 0.0
N307 N 0.66383 0.47145 0.11861 0.0
C308 C 0.64179 0.47232 0.12039 0.0
C309 C 0.62127 0.44785 0.11416 0.0
C310 C 0.65644 0.44648 0.11138 0.0
N311 N 0.63051 0.43162 0.10808 0.0
C312 C 0.68824 0.52957 0.05412 0.0
C313 C 0.67682 0.49383 0.99125 0.0
C314 C 0.67501 0.5158 0.98268 0.0
C315 C 0.68091 0.53391 0.01469 0.0
C316 C 0.68425 0.49033 0.03073 0.0
N317 N 0.6908 0.50845 0.06137 0.0
H318 H 0.69067 0.5426 0.07914 0.0
H319 H 0.68378 0.47239 0.03677 0.0
H320 H 0.6407 0.48971 0.12409 0.0
H321 H 0.66975 0.43955 0.1063 0.0
O322 O 0.68691 0.52026 0.15174 0.0
O323 O 0.70307 0.49632 0.175 0.0
O324 O 0.71203 0.47857 0.09509 0.0
C325 C 0.69407 0.51156 0.18333 0.0
H326 H 0.79359 0.56124 0.14545 0.0
H327 H 0.60116 0.44264 0.11322 0.0
H328 H 0.67223 0.47916 0.96769 0.0
H329 H 0.67891 0.55074 0.0098 0.0
Co330 Co 0.49385 0.19337 0.10703 0.0
C331 C 0.43973 0.17919 0.12075 0.0
C332 C 0.46566 0.21907 0.13524 0.0
C333 C 0.4408 0.21355 0.14337 0.0
N334 N 0.46485 0.19755 0.1209 0.0
N335 N 0.42454 0.18845 0.13435 0.0
H336 H 0.4328 0.15948 0.11108 0.0
H337 H 0.48311 0.23732 0.1404 0.0
C338 C 0.52877 0.24129 0.05673 0.0
O339 O 0.53446 0.22805 0.03037 0.0
N340 N 0.52339 0.18924 0.09404 0.0
C341 C 0.52332 0.1675 0.08258 0.0
C342 C 0.54835 0.17271 0.07883 0.0
C343 C 0.54862 0.20706 0.09896 0.0
N344 N 0.56427 0.19764 0.08886 0.0
C345 C 0.46858 0.15407 0.04426 0.0
C346 C 0.46852 0.1863 0.98269 0.0
C347 C 0.46234 0.16114 0.97184 0.0
C348 C 0.46119 0.14455 0.00373 0.0
C349 C 0.47583 0.19496 0.0236 0.0
N350 N 0.47815 0.1796 0.05277 0.0
H351 H 0.46717 0.14098 0.0686 0.0
H352 H 0.48017 0.21426 0.03131 0.0
H353 H 0.50653 0.14876 0.07848 0.0
H354 H 0.5554 0.22644 0.11027 0.0
O355 O 0.47893 0.16185 0.14008 0.0
O356 O 0.50585 0.20133 0.16337 0.0
O357 O 0.51267 0.23005 0.08629 0.0
C358 C 0.49201 0.17681 0.17112 0.0
H359 H 0.43524 0.22679 0.15622 0.0
H360 H 0.55431 0.15913 0.0693 0.0
H361 H 0.46893 0.19966 0.9595 0.0
H362 H 0.45516 0.12456 0.99727 0.0
Co363 Co 0.80755 0.30236 0.12202 0.0
C364 C 0.81903 0.26114 0.13998 0.0
C365 C 0.78015 0.24989 0.15749 0.0
C366 C 0.78459 0.22995 0.16686 0.0
N367 N 0.80173 0.26927 0.14045 0.0
N368 N 0.80908 0.23716 0.15594 0.0
H369 H 0.83847 0.27256 0.12803 0.0
H370 H 0.76259 0.25036 0.16332 0.0
C371 C 0.75834 0.28902 0.07481 0.0
O372 O 0.77145 0.305 0.04442 0.0
N373 N 0.81364 0.33608 0.10415 0.0
C374 C 0.83582 0.3561 0.08956 0.0
C375 C 0.83191 0.37632 0.08061 0.0
C376 C 0.79702 0.34516 0.10623 0.0
N377 N 0.80746 0.36935 0.09082 0.0
C378 C 0.84302 0.31045 0.05496 0.0
C379 C 0.80644 0.2757 0.00044 0.0
C380 C 0.83076 0.29386 0.98476 0.0
C381 C 0.84973 0.31027 0.01322 0.0
C382 C 0.80063 0.27674 0.04235 0.0
N383 N 0.818 0.29593 0.06771 0.0
H384 H 0.85776 0.32304 0.07662 0.0
H385 H 0.78177 0.26273 0.0538 0.0
H386 H 0.85404 0.35673 0.08677 0.0
H387 H 0.77753 0.33419 0.11816 0.0
O388 O 0.84053 0.31883 0.15128 0.0
O389 O 0.80286 0.3106 0.1778 0.0
O390 O 0.77005 0.28568 0.10543 0.0
C391 C 0.82747 0.31992 0.18304 0.0
H392 H 0.77109 0.21186 0.18155 0.0
H393 H 0.84613 0.39495 0.06836 0.0
H394 H 0.79164 0.26157 0.98013 0.0
H395 H 0.86912 0.32395 0.00303 0.0
Co396 Co 0.50287 0.69856 0.87812 0.0
C397 C 0.55693 0.7419 0.86902 0.0
C398 C 0.52927 0.75273 0.85067 0.0
C399 C 0.55362 0.77314 0.8428 0.0
N400 N 0.53132 0.7333 0.86807 0.0
N401 N 0.57098 0.7662 0.8542 0.0
H402 H 0.56529 0.73045 0.87855 0.0
H403 H 0.51124 0.75177 0.84268 0.0
C404 C 0.48765 0.73304 0.9226 0.0
O405 O 0.51113 0.74622 0.93796 0.0
N406 N 0.47466 0.66397 0.88709 0.0
C407 C 0.47696 0.64312 0.89495 0.0
C408 C 0.45285 0.62248 0.90303 0.0
C409 C 0.44926 0.65585 0.89038 0.0
N410 N 0.43544 0.63051 0.9003 0.0
C411 C 0.53699 0.69449 0.93789 0.0
C412 C 0.50701 0.68906 0.00695 0.0
C413 C 0.52963 0.68805 0.0122 0.0
C414 C 0.54481 0.69077 0.97728 0.0
C415 C 0.50013 0.69313 0.96738 0.0
N416 N 0.51553 0.69686 0.9335 0.0
H417 H 0.54745 0.69404 0.91084 0.0
H418 H 0.48162 0.69187 0.96399 0.0
H419 H 0.49503 0.64312 0.89597 0.0
H420 H 0.44111 0.66823 0.8859 0.0
O421 O 0.52016 0.68484 0.84379 0.0
O422 O 0.49273 0.69687 0.82114 0.0
O423 O 0.48117 0.71303 0.9003 0.0
C424 C 0.50764 0.68751 0.81261 0.0
H425 H 0.55813 0.79113 0.82785 0.0
H426 H 0.44863 0.60328 0.91168 0.0
H427 H 0.49437 0.68609 0.03318 0.0
H428 H 0.56188 0.68897 0.98017 0.0
Co429 Co 0.30639 0.81219 0.88161 0.0
C430 C 0.26494 0.8237 0.86276 0.0
C431 C 0.25598 0.78625 0.84047 0.0
C432 C 0.23659 0.79085 0.82814 0.0
N433 N 0.27366 0.80685 0.86206 0.0
N434 N 0.24229 0.81436 0.84223 0.0
H435 H 0.27542 0.84275 0.87651 0.0
H436 H 0.25748 0.76941 0.83316 0.0
C437 C 0.29154 0.76477 0.93485 0.0
O438 O 0.3092 0.7783 0.96297 0.0
N439 N 0.33962 0.81733 0.90029 0.0
C440 C 0.36007 0.83914 0.91495 0.0
C441 C 0.37985 0.83445 0.92345 0.0
C442 C 0.3479 0.80007 0.89807 0.0
N443 N 0.37214 0.80985 0.91306 0.0
C444 C 0.31681 0.85204 0.94189 0.0
C445 C 0.28393 0.81968 0.0028 0.0
C446 C 0.30257 0.84496 0.0139 0.0
C447 C 0.31811 0.86166 0.98215 0.0
C448 C 0.28342 0.81095 0.96216 0.0
N449 N 0.30163 0.82635 0.93367 0.0
H450 H 0.32892 0.86507 0.91778 0.0
H451 H 0.2689 0.79148 0.95434 0.0
H452 H 0.36136 0.85764 0.918 0.0
H453 H 0.33629 0.78063 0.88622 0.0
O454 O 0.32385 0.84329 0.84753 0.0
O455 O 0.31331 0.80374 0.82736 0.0
O456 O 0.28811 0.77577 0.90335 0.0
C457 C 0.32357 0.82803 0.81818 0.0
H458 H 0.21973 0.77802 0.80993 0.0
H459 H 0.39876 0.84832 0.93527 0.0
H460 H 0.27082 0.80622 0.02573 0.0
H461 H 0.33178 0.88174 0.98866 0.0
Co462 Co 0.19373 0.50379 0.89104 0.0
C463 C 0.18243 0.45056 0.8713 0.0
C464 C 0.22234 0.47838 0.86251 0.0
C465 C 0.21829 0.4547 0.84966 0.0
N466 N 0.20002 0.47571 0.87743 0.0
N467 N 0.19313 0.43728 0.85504 0.0
H468 H 0.16198 0.44227 0.87615 0.0
H469 H 0.24011 0.49653 0.85886 0.0
C470 C 0.2439 0.51913 0.93445 0.0
O471 O 0.23358 0.49594 0.95087 0.0
N472 N 0.18766 0.53186 0.90319 0.0
C473 C 0.16527 0.52993 0.91558 0.0
C474 C 0.16963 0.5543 0.92458 0.0
C475 C 0.20527 0.55721 0.90448 0.0
N476 N 0.19484 0.57142 0.91778 0.0
C477 C 0.15806 0.46743 0.95159 0.0
C478 C 0.18102 0.49896 0.01987 0.0
C479 C 0.1582 0.47549 0.02559 0.0
C480 C 0.14679 0.45939 0.9911 0.0
C481 C 0.1918 0.50602 0.98024 0.0
N482 N 0.1807 0.49018 0.9466 0.0
H483 H 0.1476 0.45612 0.92494 0.0
H484 H 0.20833 0.52505 0.97641 0.0
H485 H 0.14724 0.51199 0.91905 0.0
H486 H 0.22533 0.56502 0.89607 0.0
O487 O 0.16186 0.48674 0.85888 0.0
O488 O 0.20076 0.51485 0.83427 0.0
O489 O 0.2303 0.52528 0.91166 0.0
C490 C 0.1763 0.49973 0.82733 0.0
H491 H 0.2324 0.45089 0.83522 0.0
H492 H 0.15549 0.5589 0.9365 0.0
H493 H 0.1901 0.51213 0.04574 0.0
H494 H 0.12864 0.44148 0.99428 0.0
Co495 Co 0.36701 0.83495 0.44939 0.0
C496 C 0.41049 0.88919 0.45194 0.0
C497 C 0.42276 0.86193 0.46518 0.0
C498 C 0.44317 0.88632 0.4723 0.0
N499 N 0.40232 0.86365 0.45149 0.0
N500 N 0.43538 0.90344 0.46412 0.0
H501 H 0.39803 0.89719 0.44769 0.0
H502 H 0.4224 0.8441 0.4723 0.0
C503 C 0.39756 0.81663 0.40067 0.0
O504 O 0.4093 0.83893 0.38118 0.0
N505 N 0.33193 0.80655 0.44854 0.0
C506 C 0.31081 0.80881 0.44309 0.0
C507 C 0.28982 0.78462 0.437 0.0
C508 C 0.32354 0.78105 0.44619 0.0
N509 N 0.29788 0.76725 0.43879 0.0
C510 C 0.35974 0.86578 0.38653 0.0
C511 C 0.34656 0.82992 0.32325 0.0
C512 C 0.34579 0.85249 0.31516 0.0
C513 C 0.35269 0.87072 0.34727 0.0
C514 C 0.35385 0.82588 0.3625 0.0
N515 N 0.36109 0.84395 0.39345 0.0
H516 H 0.36269 0.87885 0.41176 0.0
H517 H 0.35239 0.80746 0.36832 0.0
H518 H 0.31091 0.82691 0.44156 0.0
H519 H 0.33605 0.77286 0.44752 0.0
O520 O 0.35607 0.85456 0.4842 0.0
O521 O 0.37015 0.82876 0.50698 0.0
O522 O 0.37961 0.81174 0.42688 0.0
C523 C 0.36203 0.84467 0.51566 0.0
H524 H 0.4619 0.89097 0.48442 0.0
H525 H 0.27024 0.7802 0.43075 0.0
H526 H 0.34112 0.81516 0.29956 0.0
H527 H 0.35155 0.88805 0.34266 0.0
Co528 Co 0.16928 0.52674 0.45503 0.0
C529 C 0.1157 0.5166 0.46864 0.0
C530 C 0.14429 0.55472 0.48732 0.0
C531 C 0.12035 0.55093 0.49805 0.0
N532 N 0.14138 0.53335 0.46816 0.0
N533 N 0.1024 0.5269 0.48632 0.0
H534 H 0.10688 0.49672 0.45923 0.0
H535 H 0.16266 0.5716 0.49446 0.0
C536 C 0.18276 0.57597 0.41065 0.0
O537 O 0.15867 0.56566 0.39819 0.0
N538 N 0.19703 0.52014 0.44308 0.0
C539 C 0.19452 0.49707 0.43378 0.0
C540 C 0.21849 0.50062 0.42407 0.0
C541 C 0.22238 0.53742 0.43914 0.0
N542 N 0.236 0.52601 0.42733 0.0
C543 C 0.13321 0.48734 0.39872 0.0
C544 C 0.1604 0.51094 0.32692 0.0
C545 C 0.13816 0.48677 0.32395 0.0
C546 C 0.12434 0.47482 0.36021 0.0
C547 C 0.16841 0.52277 0.36567 0.0
N548 N 0.15446 0.51149 0.40101 0.0
H549 H 0.12381 0.47693 0.42676 0.0
H550 H 0.18678 0.54034 0.36717 0.0
H551 H 0.17641 0.47902 0.43304 0.0
H552 H 0.23061 0.55787 0.44469 0.0
O553 O 0.15307 0.49635 0.4909 0.0
O554 O 0.1817 0.53617 0.51076 0.0
O555 O 0.19019 0.56253 0.43106 0.0
C556 C 0.16676 0.51214 0.52074 0.0
H557 H 0.11656 0.56459 0.51414 0.0
H558 H 0.22251 0.4857 0.41416 0.0
H559 H 0.17199 0.52026 0.29953 0.0
H560 H 0.10759 0.45564 0.35901 0.0
Co561 Co 0.47589 0.63592 0.44768 0.0
C562 C 0.48707 0.59281 0.45059 0.0
C563 C 0.44686 0.57945 0.45879 0.0
C564 C 0.45084 0.55889 0.46412 0.0
N565 N 0.46949 0.60067 0.44903 0.0
N566 N 0.47619 0.56736 0.45897 0.0
H567 H 0.50763 0.60567 0.44964 0.0
H568 H 0.42885 0.57912 0.46402 0.0
C569 C 0.42748 0.60659 0.39679 0.0
O570 O 0.43838 0.59576 0.37562 0.0
N571 N 0.48233 0.67092 0.44748 0.0
C572 C 0.50555 0.69214 0.44134 0.0
C573 C 0.50204 0.71292 0.43518 0.0
C574 C 0.46502 0.67907 0.44567 0.0
N575 N 0.47657 0.70462 0.43777 0.0
C576 C 0.51342 0.64202 0.38448 0.0
C577 C 0.49184 0.65689 0.32182 0.0
C578 C 0.51395 0.65542 0.31302 0.0
C579 C 0.52483 0.64786 0.34481 0.0
C580 C 0.48085 0.65044 0.36139 0.0
N581 N 0.49101 0.64219 0.39192 0.0
H582 H 0.52329 0.63852 0.40941 0.0
H583 H 0.4645 0.6529 0.3677 0.0
H584 H 0.52362 0.69219 0.43905 0.0
H585 H 0.44434 0.66642 0.44739 0.0
O586 O 0.50641 0.64698 0.48251 0.0
O587 O 0.46638 0.63241 0.50517 0.0
O588 O 0.44018 0.62338 0.42484 0.0
C589 C 0.4905 0.64095 0.51391 0.0
H590 H 0.4363 0.53945 0.47255 0.0
H591 H 0.51694 0.73246 0.428 0.0
H592 H 0.48309 0.66307 0.29824 0.0
H593 H 0.54246 0.64736 0.33945 0.0
H594 H 0.16158 0.10645 0.29479 0.0
H595 H 0.10231 0.0389 0.23142 0.0
H596 H 0.13299 0.12454 0.29666 0.0
H597 H 0.07415 0.05724 0.23226 0.0
H598 H 0.02205 0.08946 0.26591 0.0
H599 H 0.04888 0.06967 0.27465 0.0
H600 H 0.11675 0.14266 0.24578 0.0
H601 H 0.09001 0.16234 0.23744 0.0
C602 C 0.14241 0.09537 0.28158 0.0
C603 C 0.13434 0.07134 0.26267 0.0
C604 C 0.12609 0.10581 0.28236 0.0
C605 C 0.10137 0.09246 0.26421 0.0
C606 C 0.09295 0.06796 0.24685 0.0
C607 C 0.10921 0.05751 0.24616 0.0
C608 C 0.04268 0.10121 0.26126 0.0
C609 C 0.05389 0.12747 0.25096 0.0
C610 C 0.05807 0.0899 0.26636 0.0
C611 C 0.085 0.10461 0.26111 0.0
C612 C 0.09616 0.13089 0.25096 0.0
C613 C 0.08081 0.14218 0.24601 0.0
H614 H 0.8348 0.92752 0.19604 0.0
H615 H 0.90206 0.92794 0.24616 0.0
H616 H 0.85431 0.97341 0.21123 0.0
H617 H 0.9216 0.97387 0.26119 0.0
H618 H 0.9582 0.06135 0.23339 0.0
H619 H 0.93942 0.01501 0.22432 0.0
H620 H 0.86643 0.00298 0.27081 0.0
H621 H 0.88509 0.04949 0.27922 0.0
C622 C 0.85368 0.93735 0.21049 0.0
C623 C 0.86683 0.92399 0.21981 0.0
C624 C 0.86483 0.96364 0.21934 0.0
C625 C 0.88943 0.97725 0.23771 0.0
C626 C 0.90272 0.96399 0.24668 0.0
C627 C 0.89154 0.93766 0.23787 0.0
C628 C 0.93822 0.04883 0.24215 0.0
C629 C 0.92309 0.05915 0.25677 0.0
C630 C 0.92748 0.02223 0.23709 0.0
C631 C 0.90136 0.00532 0.24645 0.0
C632 C 0.8865 0.01555 0.26264 0.0
C633 C 0.89726 0.04219 0.26784 0.0
H634 H 0.93259 0.89593 0.21961 0.0
H635 H 0.94005 0.84471 0.3063 0.0
H636 H 0.97939 0.9233 0.2178 0.0
H637 H 0.98692 0.8723 0.30472 0.0
H638 H 0.06677 0.90648 0.24113 0.0
H639 H 0.02029 0.88177 0.25087 0.0
H640 H 0.01783 0.95248 0.26023 0.0
H641 H 0.06452 0.97737 0.25115 0.0
C642 C 0.94418 0.89069 0.23874 0.0
C643 C 0.93257 0.868 0.26285 0.0
C644 C 0.97102 0.90646 0.23783 0.0
C645 C 0.98686 0.89984 0.26081 0.0
C646 C 0.97522 0.8777 0.28619 0.0
C647 C 0.94836 0.862 0.28733 0.0
C648 C 0.05649 0.91686 0.24581 0.0
C649 C 0.06958 0.94401 0.24534 0.0
C650 C 0.02977 0.90264 0.25145 0.0
C651 C 0.01539 0.91516 0.25653 0.0
C652 C 0.02837 0.94227 0.25604 0.0
C653 C 0.05516 0.95654 0.25065 0.0
H654 H 0.15575 0.0833 0.73151 0.0
H655 H 0.08396 0.02178 0.78091 0.0
H656 H 0.13487 0.10833 0.71646 0.0
H657 H 0.06304 0.04682 0.76519 0.0
H658 H 0.0286 0.09182 0.70369 0.0
H659 H 0.04965 0.06566 0.70665 0.0
H660 H 0.11759 0.13024 0.76004 0.0
H661 H 0.09674 0.15619 0.75682 0.0
C662 C 0.13557 0.07508 0.73938 0.0
C663 C 0.1217 0.05054 0.75797 0.0
C664 C 0.12356 0.08943 0.73047 0.0
C665 C 0.09732 0.07959 0.73969 0.0
C666 C 0.08321 0.0548 0.75719 0.0
C667 C 0.09526 0.04047 0.76632 0.0
C668 C 0.04823 0.10052 0.71516 0.0
C669 C 0.06103 0.12602 0.73011 0.0
C670 C 0.06017 0.08549 0.71728 0.0
C671 C 0.08523 0.09585 0.73379 0.0
C672 C 0.09837 0.12173 0.74685 0.0
C673 C 0.08637 0.13658 0.74521 0.0
H674 H 0.97558 0.07691 0.73314 0.0
H675 H 0.93315 0.06972 0.84597 0.0
H676 H 0.94764 0.03042 0.71981 0.0
H677 H 0.90579 0.02327 0.83335 0.0
H678 H 0.88816 0.93794 0.81424 0.0
H679 H 0.9189 0.98378 0.82349 0.0
H680 H 0.89137 0.00096 0.7104 0.0
H681 H 0.8598 0.95486 0.7014 0.0
C682 C 0.96054 0.06526 0.75532 0.0
C683 C 0.95642 0.07673 0.79058 0.0
C684 C 0.94452 0.03886 0.74755 0.0
C685 C 0.92463 0.02351 0.77553 0.0
C686 C 0.92103 0.03482 0.81138 0.0
C687 C 0.9366 0.06127 0.81858 0.0
C688 C 0.88874 0.95137 0.79102 0.0
C689 C 0.87146 0.94278 0.7571 0.0
C690 C 0.90632 0.97758 0.79646 0.0
C691 C 0.9074 0.99569 0.76764 0.0
C692 C 0.89088 0.98719 0.73287 0.0
C693 C 0.87282 0.96092 0.72785 0.0
H694 H 0.06003 0.95807 0.76402 0.0
H695 H 0.04989 0.89104 0.6966 0.0
H696 H 0.0136 0.93951 0.76779 0.0
H697 H 0.00307 0.87257 0.69975 0.0
H698 H 0.92455 0.835 0.76945 0.0
H699 H 0.97055 0.85442 0.75519 0.0
H700 H 0.97465 0.92708 0.72801 0.0
H701 H 0.92864 0.90765 0.74233 0.0
C702 C 0.04791 0.93955 0.74932 0.0
C703 C 0.05871 0.92596 0.73024 0.0
C704 C 0.02121 0.92895 0.75132 0.0
C705 C 0.00461 0.90448 0.73432 0.0
C706 C 0.01538 0.89132 0.71368 0.0
C707 C 0.04219 0.90199 0.71156 0.0
C708 C 0.9352 0.85504 0.76003 0.0
C709 C 0.92292 0.86979 0.75732 0.0
C710 C 0.96156 0.86615 0.75167 0.0
C711 C 0.97626 0.89229 0.74038 0.0
C712 C 0.96393 0.90697 0.73716 0.0
C713 C 0.93757 0.89586 0.74556 0.0
H714 H 0.68907 0.42146 0.5876 0.0
H715 H 0.75791 0.49658 0.58201 0.0
H716 H 0.71574 0.40149 0.59567 0.0
H717 H 0.78441 0.47665 0.59046 0.0
H718 H 0.82468 0.43535 0.64098 0.0
H719 H 0.7956 0.45295 0.64143 0.0
H720 H 0.74599 0.39489 0.55258 0.0
H721 H 0.77472 0.37714 0.55245 0.0
C722 C 0.70984 0.43373 0.5879 0.0
C723 C 0.72129 0.46067 0.58408 0.0
C724 C 0.72512 0.42227 0.59269 0.0
C725 C 0.75219 0.4375 0.5939 0.0
C726 C 0.76361 0.46441 0.59046 0.0
C727 C 0.74837 0.47585 0.58554 0.0
C728 C 0.8074 0.42614 0.62197 0.0
C729 C 0.80212 0.40494 0.59651 0.0
C730 C 0.79084 0.43633 0.62202 0.0
C731 C 0.76859 0.42541 0.59681 0.0
C732 C 0.76283 0.40361 0.57261 0.0
C733 C 0.77942 0.39353 0.57239 0.0
H734 H 0.55207 0.38165 0.59947 0.0
H735 H 0.62716 0.39549 0.56067 0.0
H736 H 0.53476 0.3353 0.5917 0.0
H737 H 0.60973 0.34929 0.55218 0.0
H738 H 0.57341 0.2622 0.57355 0.0
H739 H 0.59163 0.308 0.58874 0.0
H740 H 0.52509 0.3061 0.53243 0.0
H741 H 0.50695 0.26042 0.51715 0.0
C742 C 0.56495 0.37482 0.58974 0.0
C743 C 0.59094 0.3923 0.58043 0.0
C744 C 0.55498 0.34828 0.58493 0.0
C745 C 0.5708 0.33863 0.57083 0.0
C746 C 0.59705 0.35605 0.56331 0.0
C747 C 0.60701 0.38258 0.56802 0.0
C748 C 0.5628 0.27159 0.56397 0.0
C749 C 0.53868 0.25758 0.54411 0.0
C750 C 0.5732 0.29784 0.57285 0.0
C751 C 0.55971 0.31065 0.56212 0.0
C752 C 0.53572 0.29669 0.54195 0.0
C753 C 0.52535 0.2705 0.53305 0.0
H754 H 0.60569 0.22649 0.53061 0.0
H755 H 0.61674 0.18558 0.63237 0.0
H756 H 0.65192 0.25484 0.52545 0.0
H757 H 0.66333 0.2148 0.62824 0.0
H758 H 0.7438 0.24773 0.57056 0.0
H759 H 0.69782 0.22219 0.58284 0.0
H760 H 0.68977 0.28855 0.5558 0.0
H761 H 0.73563 0.31379 0.54086 0.0
C762 C 0.61796 0.22381 0.55247 0.0
C763 C 0.60746 0.20355 0.5817 0.0
C764 C 0.64459 0.24027 0.54966 0.0
C765 C 0.66149 0.23709 0.57623 0.0
C766 C 0.65093 0.21751 0.60671 0.0
C767 C 0.6242 0.20088 0.60935 0.0
C768 C 0.73235 0.25695 0.56666 0.0
C769 C 0.74372 0.28294 0.55418 0.0
C770 C 0.70587 0.2423 0.57449 0.0
C771 C 0.68996 0.25324 0.57043 0.0
C772 C 0.70133 0.27934 0.55875 0.0
C773 C 0.72781 0.29395 0.55055 0.0
H774 H 0.77091 0.37005 0.13963 0.0
H775 H 0.8158 0.40251 0.02782 0.0
H776 H 0.75102 0.39671 0.13026 0.0
H777 H 0.79541 0.42854 0.01733 0.0
H778 H 0.7768 0.49329 0.04057 0.0
H779 H 0.79496 0.46488 0.0443 0.0
H780 H 0.72192 0.4032 0.08976 0.0
H781 H 0.70427 0.43199 0.08767 0.0
C782 C 0.77625 0.38267 0.11277 0.0
C783 C 0.79504 0.38439 0.08469 0.0
C784 C 0.76479 0.39788 0.10718 0.0
C785 C 0.7716 0.41489 0.07299 0.0
C786 C 0.79005 0.41613 0.04447 0.0
C787 C 0.80172 0.40118 0.0504 0.0
C788 C 0.76455 0.47355 0.05077 0.0
C789 C 0.73917 0.46494 0.06409 0.0
C790 C 0.77493 0.45719 0.05288 0.0
C791 C 0.76002 0.43173 0.0678 0.0
C792 C 0.73421 0.42283 0.07916 0.0
C793 C 0.72398 0.43929 0.0776 0.0
H794 H 0.64546 0.39568 0.1157 0.0
H795 H 0.58259 0.40606 0.07342 0.0
H796 H 0.62089 0.35028 0.09622 0.0
H797 H 0.55801 0.36064 0.0548 0.0
H798 H 0.51233 0.273 0.08676 0.0
H799 H 0.53735 0.31965 0.09501 0.0
H800 H 0.60225 0.3208 0.03377 0.0
H801 H 0.57706 0.27378 0.02561 0.0
C802 C 0.62656 0.38845 0.10196 0.0
C803 C 0.61602 0.40468 0.09652 0.0
C804 C 0.61251 0.3624 0.09069 0.0
C805 C 0.58754 0.35192 0.07398 0.0
C806 C 0.57711 0.36812 0.06804 0.0
C807 C 0.59119 0.39418 0.07903 0.0
C808 C 0.53181 0.28323 0.07451 0.0
C809 C 0.54278 0.26977 0.05564 0.0
C810 C 0.54611 0.30997 0.07907 0.0
C811 C 0.5718 0.32386 0.06523 0.0
C812 C 0.58254 0.31053 0.04505 0.0
C813 C 0.56807 0.2837 0.04001 0.0
H814 H 0.72579 0.29514 0.02139 0.0
H815 H 0.72605 0.2524 0.12996 0.0
H816 H 0.6786 0.27346 0.02473 0.0
H817 H 0.67937 0.23127 0.13358 0.0
H818 H 0.59535 0.17739 0.10029 0.0
H819 H 0.64212 0.19957 0.09459 0.0
H820 H 0.64355 0.27121 0.06979 0.0
H821 H 0.59639 0.24869 0.07424 0.0
C822 C 0.71584 0.2811 0.04582 0.0
C823 C 0.72974 0.27544 0.07525 0.0
C824 C 0.68884 0.26886 0.04795 0.0
C825 C 0.67523 0.25061 0.07938 0.0
C826 C 0.68919 0.24495 0.10863 0.0
C827 C 0.71604 0.25719 0.10661 0.0
C828 C 0.60557 0.19783 0.09337 0.0
C829 C 0.5921 0.21124 0.08768 0.0
C830 C 0.63243 0.21061 0.09046 0.0
C831 C 0.64658 0.23717 0.08177 0.0
C832 C 0.63318 0.25069 0.07614 0.0
C833 C 0.60621 0.23787 0.07923 0.0
H834 H 0.40688 0.81799 0.97338 0.0
H835 H 0.37077 0.77255 0.86332 0.0
H836 H 0.43332 0.79778 0.98011 0.0
H837 H 0.39771 0.75269 0.86914 0.0
H838 H 0.43577 0.70701 0.90717 0.0
H839 H 0.40636 0.72406 0.90819 0.0
H840 H 0.46899 0.79827 0.94748 0.0
H841 H 0.4981 0.78092 0.94784 0.0
C842 C 0.40475 0.80378 0.95042 0.0
C843 C 0.38692 0.797 0.91761 0.0
C844 C 0.41994 0.79221 0.95421 0.0
C845 C 0.41787 0.77371 0.92501 0.0
C846 C 0.39962 0.76658 0.89259 0.0
C847 C 0.38421 0.778 0.88908 0.0
C848 C 0.44318 0.72689 0.91648 0.0
C849 C 0.4693 0.74264 0.92734 0.0
C850 C 0.42635 0.73673 0.91674 0.0
C851 C 0.43528 0.76263 0.92754 0.0
C852 C 0.46128 0.77815 0.93952 0.0
C853 C 0.47805 0.76823 0.93962 0.0
H854 H 0.24944 0.73275 0.8884 0.0
H855 H 0.29808 0.73234 0.98785 0.0
H856 H 0.22568 0.68599 0.88812 0.0
H857 H 0.27368 0.68508 0.98814 0.0
H858 H 0.24591 0.60322 0.9336 0.0
H859 H 0.26828 0.64991 0.9421 0.0
H860 H 0.19591 0.6488 0.92825 0.0
H861 H 0.17371 0.60231 0.91793 0.0
C862 C 0.25491 0.72268 0.91061 0.0
C863 C 0.27578 0.73632 0.93804 0.0
C864 C 0.2411 0.69579 0.91063 0.0
C865 C 0.24775 0.68176 0.9381 0.0
C866 C 0.26825 0.69535 0.96629 0.0
C867 C 0.28209 0.7224 0.96636 0.0
C868 C 0.23476 0.61292 0.93202 0.0
C869 C 0.20799 0.59895 0.92458 0.0
C870 C 0.24756 0.63968 0.93756 0.0
C871 C 0.2339 0.65311 0.93577 0.0
C872 C 0.20706 0.63908 0.92932 0.0
C873 C 0.19427 0.61236 0.92376 0.0
H874 H 0.27075 0.56896 0.90698 0.0
H875 H 0.28091 0.51002 0.96723 0.0
H876 H 0.31732 0.59653 0.90209 0.0
H877 H 0.32767 0.53796 0.96308 0.0
H878 H 0.40514 0.57871 0.89234 0.0
H879 H 0.35914 0.55287 0.90645 0.0
H880 H 0.35733 0.62176 0.94074 0.0
H881 H 0.4035 0.64769 0.92667 0.0
C882 C 0.28292 0.56202 0.91981 0.0
C883 C 0.27208 0.53714 0.93713 0.0
C884 C 0.30967 0.57794 0.91719 0.0
C885 C 0.32623 0.56936 0.93181 0.0
C886 C 0.31541 0.54495 0.95087 0.0
C887 C 0.28861 0.52902 0.95357 0.0
C888 C 0.39504 0.58836 0.90332 0.0
C889 C 0.40808 0.61532 0.9083 0.0
C890 C 0.36864 0.57351 0.91155 0.0
C891 C 0.35456 0.58521 0.92497 0.0
C892 C 0.36757 0.61217 0.93005 0.0
C893 C 0.39402 0.62705 0.92183 0.0
H894 H 0.48993 0.74098 0.37828 0.0
H895 H 0.43503 0.70127 0.4767 0.0
H896 H 0.46924 0.76624 0.36304 0.0
H897 H 0.41493 0.72739 0.46334 0.0
H898 H 0.37154 0.76477 0.41479 0.0
H899 H 0.38945 0.73617 0.41925 0.0
H900 H 0.4649 0.80011 0.38822 0.0
H901 H 0.44654 0.82813 0.38152 0.0
C902 C 0.47357 0.73794 0.39698 0.0
C903 C 0.46416 0.71937 0.42888 0.0
C904 C 0.4617 0.75246 0.38838 0.0
C905 C 0.44041 0.74911 0.41205 0.0
C906 C 0.43093 0.73028 0.44383 0.0
C907 C 0.44252 0.71541 0.45182 0.0
C908 C 0.39186 0.77252 0.40821 0.0
C909 C 0.40765 0.79865 0.39781 0.0
C910 C 0.40223 0.7562 0.41121 0.0
C911 C 0.42878 0.76578 0.40471 0.0
C912 C 0.44433 0.79181 0.39289 0.0
C913 C 0.43383 0.80798 0.3891 0.0
H914 H 0.30289 0.72918 0.47477 0.0
H915 H 0.25857 0.74378 0.38388 0.0
H916 H 0.27584 0.68286 0.46308 0.0
H917 H 0.23208 0.69766 0.37071 0.0
H918 H 0.17053 0.61363 0.39763 0.0
H919 H 0.19932 0.66005 0.40156 0.0
H920 H 0.26447 0.64819 0.41716 0.0
H921 H 0.23537 0.60168 0.4151 0.0
C922 C 0.28755 0.72242 0.45188 0.0
C923 C 0.28262 0.74 0.43062 0.0
C924 C 0.27211 0.69589 0.4449 0.0
C925 C 0.25162 0.68636 0.41596 0.0
C926 C 0.24724 0.70414 0.39389 0.0
C927 C 0.26244 0.73061 0.40136 0.0
C928 C 0.19105 0.62096 0.40124 0.0
C929 C 0.20066 0.60401 0.40631 0.0
C930 C 0.20764 0.64765 0.40341 0.0
C931 C 0.2343 0.65803 0.41011 0.0
C932 C 0.24401 0.64097 0.41303 0.0
C933 C 0.22736 0.61429 0.41145 0.0
H934 H 0.39113 0.56305 0.35652 0.0
H935 H 0.40031 0.62801 0.42911 0.0
H936 H 0.34428 0.54423 0.35904 0.0
H937 H 0.35368 0.60907 0.43207 0.0
H938 H 0.26815 0.57601 0.4051 0.0
H939 H 0.31435 0.59667 0.39134 0.0
H940 H 0.31211 0.52459 0.41545 0.0
H941 H 0.26609 0.50399 0.42961 0.0
C942 C 0.38321 0.57351 0.37244 0.0
C943 C 0.39945 0.59692 0.39289 0.0
C944 C 0.35637 0.56262 0.37418 0.0
C945 C 0.34527 0.57503 0.39613 0.0
C946 C 0.36159 0.59909 0.41469 0.0
C947 C 0.38836 0.60988 0.41316 0.0
C948 C 0.27749 0.56458 0.40777 0.0
C949 C 0.26331 0.5383 0.41865 0.0
C950 C 0.30398 0.57642 0.39967 0.0
C951 C 0.31687 0.56224 0.40211 0.0
C952 C 0.30266 0.53594 0.41251 0.0
C953 C 0.27624 0.52413 0.42074 0.0
H954 H 0.39197 0.20755 0.13182 0.0
H955 H 0.39438 0.13729 0.15009 0.0
H956 H 0.3455 0.18403 0.14393 0.0
H957 H 0.3478 0.11361 0.16091 0.0
H958 H 0.27013 0.08718 0.22602 0.0
H959 H 0.3165 0.11064 0.21339 0.0
H960 H 0.30547 0.15101 0.11088 0.0
H961 H 0.25909 0.12744 0.12327 0.0
C962 C 0.38259 0.18709 0.13839 0.0
C963 C 0.39693 0.17433 0.14006 0.0
C964 C 0.35592 0.17356 0.14491 0.0
C965 C 0.34296 0.14695 0.15342 0.0
C966 C 0.35725 0.13415 0.15484 0.0
C967 C 0.38392 0.14767 0.14815 0.0
C968 C 0.27752 0.10087 0.20054 0.0
C969 C 0.26079 0.10534 0.17564 0.0
C970 C 0.30413 0.11433 0.19331 0.0
C971 C 0.31466 0.13265 0.16107 0.0
C972 C 0.29799 0.13726 0.13631 0.0
C973 C 0.27137 0.12375 0.14348 0.0
H974 H 0.85996 0.2563 0.17073 0.0
H975 H 0.78787 0.18523 0.15355 0.0
H976 H 0.88229 0.2319 0.17953 0.0
H977 H 0.81018 0.1607 0.16304 0.0
H978 H 0.86707 0.13111 0.13266 0.0
H979 H 0.84325 0.15408 0.12516 0.0
H980 H 0.8835 0.20145 0.23163 0.0
H981 H 0.90697 0.17824 0.23981 0.0
C982 C 0.84891 0.23546 0.16866 0.0
C983 C 0.82217 0.22268 0.16135 0.0
C984 C 0.86165 0.22148 0.17413 0.0
C985 C 0.84796 0.19439 0.17207 0.0
C986 C 0.82124 0.18157 0.16454 0.0
C987 C 0.80845 0.19558 0.15947 0.0
C988 C 0.87064 0.14615 0.15486 0.0
C989 C 0.88916 0.15288 0.18669 0.0
C990 C 0.85699 0.15934 0.15048 0.0
C991 C 0.86164 0.17966 0.17765 0.0
C992 C 0.87983 0.18616 0.20979 0.0
C993 C 0.89333 0.17286 0.21438 0.0
H994 H 0.81579 0.60561 0.11826 0.0
H995 H 0.74353 0.5989 0.15681 0.0
H996 H 0.83807 0.65164 0.13469 0.0
H997 H 0.76566 0.64464 0.1736 0.0
H998 H 0.80898 0.73198 0.15997 0.0
H999 H 0.78732 0.6865 0.14132 0.0
H1000 H 0.85056 0.6804 0.19404 0.0
H1001 H 0.87237 0.72616 0.21229 0.0
C1002 C 0.80471 0.61397 0.13034 0.0
C1003 C 0.7779 0.59865 0.13596 0.0
C1004 C 0.81745 0.6403 0.13988 0.0
C1005 C 0.80366 0.65185 0.15546 0.0
C1006 C 0.77682 0.6365 0.16094 0.0
C1007 C 0.76409 0.61024 0.15123 0.0
C1008 C 0.81813 0.72089 0.16804 0.0
C1009 C 0.84231 0.73261 0.18795 0.0
C1010 C 0.80573 0.69479 0.15726 0.0
C1011 C 0.81715 0.67975 0.16629 0.0
C1012 C 0.84139 0.6915 0.18609 0.0
C1013 C 0.85385 0.71767 0.19669 0.0
H1014 H 0.08214 0.27537 0.82682 0.0
H1015 H 0.15091 0.28336 0.76892 0.0
H1016 H 0.1042 0.32163 0.83967 0.0
H1017 H 0.17299 0.32984 0.78103 0.0
H1018 H 0.21271 0.40528 0.8561 0.0
H1019 H 0.19045 0.3596 0.8379 0.0
H1020 H 0.12185 0.3631 0.80761 0.0
H1021 H 0.14408 0.40865 0.82656 0.0
C1022 C 0.10184 0.28709 0.81612 0.0
C1023 C 0.11481 0.2757 0.79692 0.0
C1024 C 0.11452 0.31366 0.82346 0.0
C1025 C 0.14044 0.32951 0.81154 0.0
C1026 C 0.1532 0.31817 0.79136 0.0
C1027 C 0.14055 0.29156 0.78429 0.0
C1028 C 0.19295 0.39629 0.84525 0.0
C1029 C 0.1801 0.41049 0.8431 0.0
C1030 C 0.18018 0.37013 0.83467 0.0
C1031 C 0.1543 0.3576 0.82133 0.0
C1032 C 0.14161 0.37198 0.8185 0.0
C1033 C 0.15433 0.39809 0.82938 0.0
H1034 H 0.60312 0.74726 0.84041 0.0
H1035 H 0.60158 0.81824 0.85455 0.0
H1036 H 0.64967 0.77175 0.83094 0.0
H1037 H 0.6483 0.8429 0.84378 0.0
H1038 H 0.73568 0.87482 0.86968 0.0
H1039 H 0.6889 0.85192 0.87893 0.0
H1040 H 0.68067 0.80014 0.77858 0.0
H1041 H 0.72726 0.82305 0.76911 0.0
C1042 C 0.61271 0.7681 0.84173 0.0
C1043 C 0.59859 0.78078 0.84844 0.0
C1044 C 0.6394 0.78216 0.83577 0.0
C1045 C 0.65269 0.80928 0.83643 0.0
C1046 C 0.63865 0.82202 0.84338 0.0
C1047 C 0.61187 0.80791 0.84915 0.0
C1048 C 0.7239 0.85876 0.84927 0.0
C1049 C 0.73532 0.85065 0.8189 0.0
C1050 C 0.69707 0.84562 0.85459 0.0
C1051 C 0.68109 0.82407 0.82973 0.0
C1052 C 0.69247 0.81634 0.79881 0.0
C1053 C 0.71921 0.82947 0.79343 0.0
H1054 H 0.21613 0.81235 0.77234 0.0
H1055 H 0.23576 0.84547 0.89579 0.0
H1056 H 0.19104 0.83386 0.76022 0.0
H1057 H 0.21043 0.86684 0.88386 0.0
H1058 H 0.13553 0.87128 0.85944 0.0
H1059 H 0.16118 0.85031 0.87107 0.0
H1060 H 0.20151 0.88198 0.75514 0.0
H1061 H 0.17596 0.90318 0.74375 0.0
C1062 C 0.21495 0.82415 0.7969 0.0
C1063 C 0.22779 0.82723 0.83504 0.0
C1064 C 0.20079 0.83657 0.78987 0.0
C1065 C 0.19881 0.85193 0.82115 0.0
C1066 C 0.21157 0.85497 0.85935 0.0
C1067 C 0.22615 0.84292 0.86608 0.0
C1068 C 0.14973 0.87357 0.83634 0.0
C1069 C 0.15373 0.88872 0.80059 0.0
C1070 C 0.16454 0.8618 0.84317 0.0
C1071 C 0.18329 0.86459 0.81401 0.0
C1072 C 0.18708 0.87946 0.77799 0.0
C1073 C 0.1726 0.89163 0.77156 0.0
H1074 H 0.94481 0.48431 0.54979 0.0
H1075 H 0.94129 0.41249 0.51774 0.0
H1076 H 0.9911 0.50747 0.53612 0.0
H1077 H 0.98763 0.43545 0.50586 0.0
H1078 H 0.06468 0.48782 0.44161 0.0
H1079 H 0.01848 0.46509 0.45579 0.0
H1080 H 0.0316 0.51367 0.56342 0.0
H1081 H 0.07779 0.53645 0.54908 0.0
C1082 C 0.9539 0.47344 0.54 0.0
C1083 C 0.93923 0.44652 0.53484 0.0
C1084 C 0.9805 0.48669 0.53258 0.0
C1085 C 0.9931 0.47334 0.51978 0.0
C1086 C 0.9785 0.44639 0.51515 0.0
C1087 C 0.95191 0.43314 0.52257 0.0
C1088 C 0.05773 0.49354 0.46844 0.0
C1089 C 0.07498 0.51394 0.49422 0.0
C1090 C 0.03123 0.48049 0.47663 0.0
C1091 C 0.02131 0.48747 0.51087 0.0
C1092 C 0.03854 0.50801 0.53647 0.0
C1093 C 0.06505 0.5211 0.52822 0.0
H1094 H 0.52202 0.57789 0.42551 0.0
H1095 H 0.46067 0.52428 0.5062 0.0
H1096 H 0.54541 0.55489 0.43763 0.0
H1097 H 0.48402 0.50118 0.51805 0.0
H1098 H 0.52259 0.45213 0.49495 0.0
H1099 H 0.49827 0.47419 0.48147 0.0
H1100 H 0.56817 0.54781 0.4952 0.0
H1101 H 0.59253 0.52583 0.50736 0.0
C1102 C 0.51357 0.5613 0.44602 0.0
C1103 C 0.4895 0.55307 0.46504 0.0
C1104 C 0.52698 0.54811 0.45295 0.0
C1105 C 0.51663 0.52629 0.47898 0.0
C1106 C 0.49238 0.51776 0.49747 0.0
C1107 C 0.47898 0.53101 0.49062 0.0
C1108 C 0.53276 0.47301 0.49482 0.0
C1109 C 0.55949 0.48719 0.50229 0.0
C1110 C 0.5188 0.48564 0.48749 0.0
C1111 C 0.5313 0.51275 0.4872 0.0
C1112 C 0.55801 0.52691 0.49477 0.0
C1113 C 0.57193 0.51429 0.50228 0.0
H1114 H 0.43003 0.9403 0.42418 0.0
H1115 H 0.47227 0.92866 0.52289 0.0
H1116 H 0.45291 0.9865 0.43889 0.0
H1117 H 0.49485 0.97466 0.53812 0.0
H1118 H 0.5486 0.06169 0.52735 0.0
H1119 H 0.52656 0.01579 0.5112 0.0
H1120 H 0.45564 0.01667 0.49053 0.0
H1121 H 0.47789 0.06266 0.50442 0.0
C1122 C 0.44411 0.94761 0.44916 0.0
C1123 C 0.44937 0.93081 0.47225 0.0
C1124 C 0.45718 0.97407 0.45772 0.0
C1125 C 0.47572 0.98436 0.4898 0.0
C1126 C 0.48103 0.96752 0.51275 0.0
C1127 C 0.46807 0.9411 0.50402 0.0
C1128 C 0.52836 0.05216 0.51903 0.0
C1129 C 0.51514 0.06605 0.51723 0.0
C1130 C 0.51563 0.02573 0.5102 0.0
C1131 C 0.48929 0.01247 0.49948 0.0
C1132 C 0.476 0.02629 0.49809 0.0
C1133 C 0.48875 0.05272 0.50675 0.0
H1134 H 0.18649 0.97648 0.38692 0.0
H1135 H 0.22526 0.05899 0.40274 0.0
H1136 H 0.18879 0.97103 0.46212 0.0
H1137 H 0.22841 0.05387 0.47792 0.0
H1138 H 0.1975 0.96715 0.60053 0.0
H1139 H 0.21211 0.97711 0.52784 0.0
H1140 H 0.19382 0.03844 0.5279 0.0
H1141 H 0.17995 0.02887 0.6001 0.0
C1142 C 0.19652 0.99346 0.40647 0.0
C1143 C 0.2058 0.01812 0.38945 0.0
C1144 C 0.19789 0.9904 0.4495 0.0
C1145 C 0.20848 0.01202 0.47614 0.0
C1146 C 0.21975 0.03682 0.45834 0.0
C1147 C 0.21822 0.03982 0.41537 0.0
C1148 C 0.19723 0.98312 0.58511 0.0
C1149 C 0.18728 0.99702 0.60564 0.0
C1150 C 0.20543 0.98873 0.54351 0.0
C1151 C 0.20405 0.00851 0.52196 0.0
C1152 C 0.1955 0.0233 0.54354 0.0
C1153 C 0.18722 0.01762 0.58482 0.0
H1154 H 0.04902 0.23057 0.59741 0.0
H1155 H 0.97204 0.16691 0.61887 0.0
H1156 H 0.0387 0.23108 0.52383 0.0
H1157 H 0.9618 0.16711 0.54533 0.0
H1158 H 0.94556 0.17715 0.41215 0.0
H1159 H 0.95514 0.1885 0.48626 0.0
H1160 H 0.0326 0.20234 0.46705 0.0
H1161 H 0.02296 0.19146 0.39347 0.0
C1162 C 0.02983 0.21682 0.58644 0.0
C1163 C 0.01144 0.19852 0.61383 0.0
C1164 C 0.0239 0.2171 0.54431 0.0
C1165 C 0.9995 0.19896 0.52851 0.0
C1166 C 0.98067 0.18158 0.55643 0.0
C1167 C 0.98656 0.1814 0.59863 0.0
C1168 C 0.96479 0.18339 0.42385 0.0
C1169 C 0.98364 0.18368 0.39749 0.0
C1170 C 0.97024 0.18963 0.4662 0.0
C1171 C 0.99462 0.19623 0.48271 0.0
C1172 C 0.01378 0.19775 0.45545 0.0
C1173 C 0.00829 0.19146 0.41334 0.0
H1174 H 0.83746 0.81952 0.60611 0.0
H1175 H 0.76944 0.82682 0.5975 0.0
H1176 H 0.83384 0.80854 0.53207 0.0
H1177 H 0.76587 0.81608 0.5228 0.0
H1178 H 0.81456 0.77704 0.40228 0.0
H1179 H 0.80515 0.77559 0.47704 0.0
H1180 H 0.7966 0.84271 0.46326 0.0
H1181 H 0.80608 0.84417 0.38881 0.0
C1182 C 0.82148 0.81831 0.58834 0.0
C1183 C 0.80381 0.82412 0.60709 0.0
C1184 C 0.81927 0.81185 0.54614 0.0
C1185 C 0.79957 0.81146 0.52177 0.0
C1186 C 0.78124 0.81628 0.54097 0.0
C1187 C 0.78322 0.82234 0.58351 0.0
C1188 C 0.81002 0.79103 0.41516 0.0
C1189 C 0.81127 0.81086 0.39009 0.0
C1190 C 0.80475 0.79028 0.45783 0.0
C1191 C 0.80026 0.8091 0.47586 0.0
C1192 C 0.79977 0.82784 0.45012 0.0
C1193 C 0.80539 0.82881 0.40766 0.0
H1194 H 0.87448 0.305 0.93938 0.0
H1195 H 0.79716 0.29269 0.92666 0.0
H1196 H 0.88281 0.31785 0.86561 0.0
H1197 H 0.8054 0.30499 0.8537 0.0
H1198 H 0.83977 0.36403 0.75147 0.0
H1199 H 0.83666 0.35008 0.8236 0.0
H1200 H 0.86528 0.29934 0.78834 0.0
H1201 H 0.86811 0.31316 0.71522 0.0
C1202 C 0.85919 0.30468 0.92081 0.0
C1203 C 0.83516 0.29785 0.93899 0.0
C1204 C 0.86394 0.31189 0.87865 0.0
C1205 C 0.84485 0.31272 0.85427 0.0
C1206 C 0.82056 0.30482 0.87197 0.0
C1207 C 0.81576 0.29745 0.91372 0.0
C1208 C 0.84557 0.35002 0.75904 0.0
C1209 C 0.85371 0.33931 0.72759 0.0
C1210 C 0.84378 0.34203 0.80031 0.0
C1211 C 0.85023 0.32327 0.81129 0.0
C1212 C 0.8601 0.31378 0.78053 0.0
C1213 C 0.86178 0.32173 0.73884 0.0
H1214 H 0.63518 0.47914 0.93695 0.0
H1215 H 0.69471 0.55936 0.93383 0.0
H1216 H 0.62432 0.48173 0.86501 0.0
H1217 H 0.68303 0.56242 0.86158 0.0
H1218 H 0.68159 0.5399 0.71988 0.0
H1219 H 0.68835 0.5473 0.795 0.0
H1220 H 0.60649 0.49732 0.81545 0.0
H1221 H 0.60024 0.4891 0.74046 0.0
C1222 C 0.64574 0.49749 0.92095 0.0
C1223 C 0.66614 0.51891 0.94084 0.0
C1224 C 0.63923 0.49912 0.87973 0.0
C1225 C 0.65281 0.5223 0.85719 0.0
C1226 C 0.67237 0.54417 0.8778 0.0
C1227 C 0.67893 0.5425 0.91928 0.0
C1228 C 0.66502 0.53123 0.74051 0.0
C1229 C 0.64043 0.51397 0.72472 0.0
C1230 C 0.66883 0.53545 0.78357 0.0
C1231 C 0.64803 0.52254 0.81152 0.0
C1232 C 0.62305 0.50708 0.79502 0.0
C1233 C 0.61935 0.50258 0.75209 0.0
H1234 H 0.48704 0.18543 0.71208 0.0
H1235 H 0.4741 0.10788 0.72173 0.0
H1236 H 0.47383 0.1836 0.78432 0.0
H1237 H 0.46005 0.10568 0.79419 0.0
H1238 H 0.48094 0.13308 0.93338 0.0
H1239 H 0.4825 0.12606 0.85894 0.0
H1240 H 0.43893 0.16441 0.83447 0.0
H1241 H 0.43742 0.17152 0.90921 0.0
C1242 C 0.48105 0.16784 0.72959 0.0
C1243 C 0.48199 0.14695 0.71145 0.0
C1244 C 0.47315 0.16666 0.77089 0.0
C1245 C 0.46595 0.14452 0.79517 0.0
C1246 C 0.46573 0.12312 0.77645 0.0
C1247 C 0.47358 0.12429 0.73491 0.0
C1248 C 0.47105 0.1394 0.91228 0.0
C1249 C 0.45929 0.15312 0.92727 0.0
C1250 C 0.47195 0.13535 0.86949 0.0
C1251 C 0.46109 0.14492 0.84065 0.0
C1252 C 0.44793 0.15724 0.85582 0.0
C1253 C 0.44706 0.16132 0.89864 0.0
H1254 H 0.52521 0.6263 0.26086 0.0
H1255 H 0.52777 0.69948 0.26988 0.0
H1256 H 0.53657 0.63439 0.18661 0.0
H1257 H 0.53908 0.70762 0.19615 0.0
H1258 H 0.56707 0.72143 0.06505 0.0
H1259 H 0.57101 0.71449 0.13962 0.0
H1260 H 0.5092 0.63552 0.12763 0.0
H1261 H 0.50537 0.64265 0.05351 0.0
C1262 C 0.52888 0.64438 0.24717 0.0
C1263 C 0.5254 0.66218 0.27077 0.0
C1264 C 0.53525 0.64896 0.20476 0.0
C1265 C 0.53861 0.67159 0.18555 0.0
C1266 C 0.53689 0.69014 0.21008 0.0
C1267 C 0.53021 0.68541 0.25219 0.0
C1268 C 0.55497 0.70244 0.07832 0.0
C1269 C 0.53598 0.68252 0.05397 0.0
C1270 C 0.55709 0.69848 0.12087 0.0
C1271 C 0.54035 0.67448 0.13946 0.0
C1272 C 0.52259 0.6541 0.11416 0.0
C1273 C 0.52029 0.65816 0.07185 0.0
H1274 H 0.26712 0.83354 0.07684 0.0
H1275 H 0.34914 0.87364 0.05251 0.0
H1276 H 0.27575 0.83988 0.15167 0.0
H1277 H 0.35772 0.8799 0.12699 0.0
H1278 H 0.36761 0.89544 0.26504 0.0
H1279 H 0.35545 0.89884 0.1932 0.0
H1280 H 0.29192 0.82041 0.20023 0.0
H1281 H 0.30365 0.81737 0.27176 0.0
C1282 C 0.28698 0.84399 0.08738 0.0
C1283 C 0.30742 0.85283 0.05861 0.0
C1284 C 0.29193 0.84762 0.13027 0.0
C1285 C 0.31744 0.86013 0.14542 0.0
C1286 C 0.33785 0.87043 0.11651 0.0
C1287 C 0.3329 0.86683 0.07365 0.0
C1288 C 0.35074 0.87919 0.25138 0.0
C1289 C 0.33679 0.85603 0.27376 0.0
C1290 C 0.34389 0.88104 0.21019 0.0
C1291 C 0.3228 0.85984 0.19079 0.0
C1292 C 0.3081 0.83722 0.21416 0.0
C1293 C 0.31501 0.83535 0.25506 0.0
H1294 H 0.16121 0.46398 0.28398 0.0
H1295 H 0.10055 0.48247 0.2714 0.0
H1296 H 0.15788 0.45346 0.20976 0.0
H1297 H 0.09695 0.47183 0.19683 0.0
H1298 H 0.14296 0.50378 0.07036 0.0
H1299 H 0.12959 0.49798 0.14321 0.0
H1300 H 0.13278 0.42746 0.14784 0.0
H1301 H 0.14625 0.43345 0.07427 0.0
C1302 C 0.14646 0.46477 0.26545 0.0
C1303 C 0.13108 0.47391 0.283 0.0
C1304 C 0.14447 0.4587 0.22303 0.0
C1305 C 0.12728 0.46202 0.19738 0.0
C1306 C 0.1105 0.46927 0.21581 0.0
C1307 C 0.11239 0.47519 0.25839 0.0
C1308 C 0.14022 0.48675 0.08676 0.0
C1309 C 0.14583 0.46917 0.0671 0.0
C1310 C 0.13234 0.48327 0.12835 0.0
C1311 C 0.13016 0.46227 0.15132 0.0
C1312 C 0.13439 0.44387 0.1309 0.0
C1313 C 0.14199 0.44721 0.08893 0.0
H1314 H 0.13017 0.997 0.09236 0.0
H1315 H 0.20625 0.00692 0.10937 0.0
H1316 H 0.13024 0.98521 0.02006 0.0
H1317 H 0.20638 0.9951 0.03549 0.0
H1318 H 0.19594 0.00998 0.88497 0.0
H1319 H 0.20358 0.01624 0.96081 0.0
H1320 H 0.13059 0.94708 0.98325 0.0
H1321 H 0.12283 0.94118 0.90848 0.0
C1322 C 0.14691 0.99651 0.08062 0.0
C1323 C 0.16818 0.00281 0.10645 0.0
C1324 C 0.14689 0.98963 0.03922 0.0
C1325 C 0.16824 0.98907 0.02232 0.0
C1326 C 0.18968 0.99536 0.04795 0.0
C1327 C 0.18953 0.00192 0.09006 0.0
C1328 C 0.18197 0.99584 0.90628 0.0
C1329 C 0.15856 0.97546 0.89121 0.0
C1330 C 0.18636 0.99933 0.94949 0.0
C1331 C 0.16745 0.98232 0.9777 0.0
C1332 C 0.14528 0.96066 0.96216 0.0
C1333 C 0.14081 0.95736 0.91942 0.0
H1334 H 0.0028 0.13552 0.10042 0.0
H1335 H 0.99169 0.2009 0.11764 0.0
H1336 H 0.01796 0.14949 0.03005 0.0
H1337 H 0.00705 0.21509 0.04562 0.0
H1338 H 0.99838 0.19556 0.89452 0.0
H1339 H 0.9899 0.19495 0.96978 0.0
H1340 H 0.05639 0.18703 0.99593 0.0
H1341 H 0.06444 0.18705 0.92149 0.0
C1342 C 0.00375 0.15304 0.08915 0.0
C1343 C 0.99602 0.16711 0.11445 0.0
C1344 C 0.01264 0.16117 0.04886 0.0
C1345 C 0.01391 0.18351 0.03247 0.0
C1346 C 0.0063 0.19783 0.05766 0.0
C1347 C 0.99768 0.18982 0.09872 0.0
C1348 C 0.0115 0.19438 0.91653 0.0
C1349 C 0.03171 0.19078 0.90238 0.0
C1350 C 0.00673 0.19415 0.95949 0.0
C1351 C 0.02227 0.19052 0.98854 0.0
C1352 C 0.04387 0.18941 0.97418 0.0
C1353 C 0.04843 0.18936 0.93159 0.0
H1354 H 0.77851 0.80276 0.89109 0.0
H1355 H 0.86124 0.85045 0.90164 0.0
H1356 H 0.77679 0.78684 0.96286 0.0
H1357 H 0.85972 0.83479 0.97178 0.0
H1358 H 0.85941 0.79987 0.08658 0.0
H1359 H 0.84992 0.79589 0.01206 0.0
H1360 H 0.78665 0.80968 0.03476 0.0
H1361 H 0.79562 0.81254 0.11001 0.0
C1362 C 0.79627 0.8093 0.90842 0.0
C1363 C 0.82 0.82783 0.89129 0.0
C1364 C 0.7953 0.80035 0.94932 0.0
C1365 C 0.81814 0.80941 0.97278 0.0
C1366 C 0.84183 0.82703 0.9544 0.0
C1367 C 0.84271 0.83621 0.91432 0.0
C1368 C 0.84296 0.8012 0.07567 0.0
C1369 C 0.82849 0.80696 0.1035 0.0
C1370 C 0.83751 0.79891 0.03314 0.0
C1371 C 0.81794 0.80308 0.01755 0.0
C1372 C 0.8018 0.80631 0.04591 0.0
C1373 C 0.80698 0.80809 0.08885 0.0
H1374 H 0.81277 0.34496 0.2359 0.0
H1375 H 0.86802 0.3191 0.22213 0.0
H1376 H 0.82762 0.35895 0.30665 0.0
H1377 H 0.88297 0.33304 0.29431 0.0
H1378 H 0.8656 0.39809 0.41955 0.0
H1379 H 0.86738 0.39181 0.34478 0.0
H1380 H 0.85996 0.31731 0.36782 0.0
H1381 H 0.85881 0.324 0.44341 0.0
C1382 C 0.82841 0.34262 0.24796 0.0
C1383 C 0.8393 0.33102 0.22368 0.0
C1384 C 0.83703 0.35077 0.28842 0.0
C1385 C 0.85658 0.34724 0.30593 0.0
C1386 C 0.86792 0.33603 0.28145 0.0
C1387 C 0.85953 0.32825 0.24026 0.0
C1388 C 0.86516 0.38072 0.4087 0.0
C1389 C 0.86168 0.36133 0.43694 0.0
C1390 C 0.86617 0.37713 0.36595 0.0
C1391 C 0.86328 0.35387 0.35052 0.0
C1392 C 0.8623 0.33546 0.37894 0.0
C1393 C 0.8616 0.33923 0.42208 0.0
H1394 H 0.65695 0.51873 0.22153 0.0
H1395 H 0.72871 0.51996 0.24347 0.0
H1396 H 0.65144 0.52087 0.29731 0.0
H1397 H 0.72375 0.5229 0.3183 0.0
H1398 H 0.67874 0.47394 0.43184 0.0
H1399 H 0.69129 0.48623 0.35993 0.0
H1400 H 0.66838 0.54402 0.36906 0.0
H1401 H 0.65566 0.53146 0.44245 0.0
C1402 C 0.67189 0.52032 0.24248 0.0
C1403 C 0.69295 0.51863 0.227 0.0
C1404 C 0.66883 0.52165 0.28574 0.0
C1405 C 0.68695 0.52156 0.31371 0.0
C1406 C 0.70921 0.52245 0.29758 0.0
C1407 C 0.71204 0.52075 0.25477 0.0
C1408 C 0.67674 0.48957 0.41882 0.0
C1409 C 0.6663 0.50179 0.44262 0.0
C1410 C 0.68408 0.49674 0.37762 0.0
C1411 C 0.68098 0.51623 0.35884 0.0
C1412 C 0.67099 0.52895 0.38282 0.0
C1413 C 0.66394 0.52196 0.42473 0.0
H1414 H 0.45513 0.1317 0.20823 0.0
H1415 H 0.52898 0.20022 0.22941 0.0
H1416 H 0.4557 0.11765 0.28054 0.0
H1417 H 0.52964 0.18618 0.30021 0.0
H1418 H 0.46694 0.14021 0.43418 0.0
H1419 H 0.4581 0.14034 0.35907 0.0
H1420 H 0.53105 0.14559 0.33033 0.0
H1421 H 0.53992 0.14571 0.4045 0.0
C1422 C 0.4715 0.14355 0.22813 0.0
C1423 C 0.49203 0.16701 0.21333 0.0
C1424 C 0.47174 0.13561 0.26934 0.0
C1425 C 0.49281 0.15078 0.29561 0.0
C1426 C 0.51331 0.174 0.28042 0.0
C1427 C 0.51286 0.18208 0.23992 0.0
C1428 C 0.48056 0.14045 0.41165 0.0
C1429 C 0.50429 0.14342 0.42487 0.0
C1430 C 0.47551 0.14048 0.36882 0.0
C1431 C 0.4941 0.14333 0.33917 0.0
C1432 C 0.51656 0.14365 0.35264 0.0
C1433 C 0.52164 0.14378 0.39504 0.0
H1434 H 0.47553 0.68174 0.74926 0.0
H1435 H 0.54288 0.67568 0.77826 0.0
H1436 H 0.47612 0.6682 0.67819 0.0
H1437 H 0.54352 0.66217 0.70556 0.0
H1438 H 0.53713 0.67621 0.54875 0.0
H1439 H 0.5455 0.68599 0.62383 0.0
H1440 H 0.47015 0.6217 0.65236 0.0
H1441 H 0.46174 0.6121 0.57832 0.0
C1442 C 0.49059 0.67764 0.74042 0.0
C1443 C 0.50911 0.67966 0.76944 0.0
C1444 C 0.49085 0.66982 0.69969 0.0
C1445 C 0.50975 0.66403 0.68667 0.0
C1446 C 0.52876 0.66656 0.71511 0.0
C1447 C 0.52831 0.67413 0.75651 0.0
C1448 C 0.52279 0.66375 0.57129 0.0
C1449 C 0.49862 0.64374 0.55792 0.0
C1450 C 0.5276 0.66928 0.61407 0.0
C1451 C 0.50832 0.65468 0.64354 0.0
C1452 C 0.48521 0.63329 0.63013 0.0
C1453 C 0.48038 0.62791 0.58778 0.0
H1454 H 0.32774 0.86981 0.77497 0.0
H1455 H 0.34136 0.80563 0.76532 0.0
H1456 H 0.3402 0.8805 0.70109 0.0
H1457 H 0.35364 0.81613 0.69282 0.0
H1458 H 0.39441 0.84858 0.57695 0.0
H1459 H 0.38903 0.85127 0.65165 0.0
H1460 H 0.3212 0.85753 0.62911 0.0
H1461 H 0.32708 0.85546 0.55334 0.0
C1462 C 0.33382 0.85833 0.75731 0.0
C1463 C 0.33367 0.83694 0.77575 0.0
C1464 C 0.34071 0.8643 0.71512 0.0
C1465 C 0.34804 0.84925 0.6913 0.0
C1466 C 0.34848 0.82835 0.71042 0.0
C1467 C 0.34131 0.82224 0.75196 0.0
C1468 C 0.37862 0.85104 0.58785 0.0
C1469 C 0.36084 0.85131 0.55958 0.0
C1470 C 0.37556 0.8526 0.63061 0.0
C1471 C 0.35441 0.85407 0.64622 0.0
C1472 C 0.33771 0.85644 0.61788 0.0
C1473 C 0.34098 0.85517 0.57465 0.0
H1474 H 0.1254 0.47358 0.56338 0.0
H1475 H 0.20497 0.53356 0.57708 0.0
H1476 H 0.12218 0.46733 0.63976 0.0
H1477 H 0.20198 0.52714 0.65202 0.0
H1478 H 0.18411 0.53925 0.77852 0.0
H1479 H 0.17766 0.53825 0.7034 0.0
H1480 H 0.14153 0.45512 0.70435 0.0
H1481 H 0.14735 0.45621 0.78068 0.0
C1482 C 0.14228 0.48492 0.58259 0.0
C1483 C 0.16533 0.50428 0.56463 0.0
C1484 C 0.14042 0.48144 0.62611 0.0
C1485 C 0.16162 0.49728 0.65179 0.0
C1486 C 0.18508 0.51521 0.63315 0.0
C1487 C 0.18686 0.51877 0.5902 0.0
C1488 C 0.17407 0.52073 0.76283 0.0
C1489 C 0.16627 0.49784 0.78497 0.0
C1490 C 0.17056 0.52013 0.71987 0.0
C1491 C 0.15973 0.49665 0.69796 0.0
C1492 C 0.14999 0.47346 0.72052 0.0
C1493 C 0.15321 0.47406 0.76402 0.0
loop_
_geom_bond_atom_site_label_1
_geom_bond_atom_site_label_2
_geom_bond_distance
_geom_bond_site_symmetry_2
_ccdc_geom_bond_type
Co0 N4 2.148 . S
Co0 N10 2.128 1_545 S
Co0 N20 2.194 1_545 S
Co0 O25 2.351 1_545 S
Co0 O26 2.155 1_545 S
Co0 O27 2.096 . S
C1 N4 1.301 . S
C1 N5 1.328 . S
C1 H6 0.930 . S
C2 C3 1.333 . S
C2 N4 1.317 . S
C2 H7 0.930 . S
C3 C2 1.333 . S
C3 N5 1.350 . S
C3 H29 0.931 . S
N4 Co0 2.148 . S
N4 C1 1.301 . S
N4 C2 1.317 . S
N5 C1 1.328 . S
N5 C3 1.350 . S
H6 C1 0.930 . S
H7 C2 0.930 . S
C8 O9 1.224 . S
C8 O27 1.247 . S
O9 C8 1.224 . S
N10 Co0 2.128 1_565 S
N10 C11 1.355 . S
N10 C13 1.311 . S
C11 N10 1.355 . S
C11 C12 1.363 . S
C11 H23 0.929 . S
C12 C11 1.363 . S
C12 N14 1.375 . S
C12 H30 0.931 . S
C13 N10 1.311 . S
C13 N14 1.347 . S
C13 H24 0.929 . S
N14 C12 1.375 . S
N14 C13 1.347 . S
C15 C18 1.365 . S
C15 N20 1.328 . S
C15 H21 0.929 . S
C16 C17 1.362 . S
C16 C19 1.378 1_565 S
C16 H31 0.924 1_565 S
C17 C16 1.362 . S
C17 C18 1.366 . S
C18 C15 1.365 . S
C18 C17 1.366 . S
C18 H32 0.930 . S
C19 C16 1.378 1_545 S
C19 N20 1.315 1_545 S
C19 H22 0.930 . S
N20 Co0 2.194 1_565 S
N20 C15 1.328 . S
N20 C19 1.315 1_565 S
H21 C15 0.929 . S
H22 C19 0.930 . S
H23 C11 0.929 . S
H24 C13 0.929 . S
O25 Co0 2.351 1_565 S
O25 C28 1.244 . S
O26 Co0 2.155 1_565 S
O26 C28 1.240 . S
O27 Co0 2.096 . S
O27 C8 1.247 . S
C28 O25 1.244 . S
C28 O26 1.240 . S
H29 C3 0.931 . S
H30 C12 0.931 . S
H31 C16 0.924 1_545 S
H32 C18 0.930 . S
Co33 N37 2.148 . S
Co33 N43 2.128 1_655 S
Co33 N53 2.194 1_655 S
Co33 O58 2.351 1_655 S
Co33 O59 2.155 1_655 S
Co33 O60 2.096 . S
C34 N37 1.301 . S
C34 N38 1.328 . S
C34 H39 0.930 . S
C35 C36 1.333 . S
C35 N37 1.317 . S
C35 H40 0.930 . S
C36 C35 1.333 . S
C36 N38 1.350 . S
C36 H62 0.931 . S
N37 Co33 2.148 . S
N37 C34 1.301 . S
N37 C35 1.317 . S
N38 C34 1.328 . S
N38 C36 1.350 . S
H39 C34 0.930 . S
H40 C35 0.930 . S
C41 O42 1.224 . S
C41 O60 1.247 . S
O42 C41 1.224 . S
N43 Co33 2.128 1_455 S
N43 C44 1.355 . S
N43 C46 1.311 . S
C44 N43 1.355 . S
C44 C45 1.363 . S
C44 H56 0.929 . S
C45 C44 1.363 . S
C45 N47 1.375 . S
C45 H63 0.931 . S
C46 N43 1.311 . S
C46 N47 1.347 . S
C46 H57 0.929 . S
N47 C45 1.375 . S
N47 C46 1.347 . S
C48 C51 1.365 . S
C48 N53 1.328 . S
C48 H54 0.929 . S
C49 C50 1.362 . S
C49 C52 1.375 1_455 S
C49 H64 0.931 . S
C50 C49 1.362 . S
C50 C51 1.366 . S
C51 C48 1.365 . S
C51 C50 1.366 . S
C51 H65 0.930 . S
C52 C49 1.375 1_655 S
C52 N53 1.314 1_655 S
C52 H55 0.935 . S
N53 Co33 2.194 1_455 S
N53 C48 1.328 . S
N53 C52 1.314 1_455 S
H54 C48 0.929 . S
H55 C52 0.935 . S
H56 C44 0.929 . S
H57 C46 0.929 . S
O58 Co33 2.351 1_455 S
O58 C61 1.244 . S
O59 Co33 2.155 1_455 S
O59 C61 1.240 . S
O60 Co33 2.096 . S
O60 C41 1.247 . S
C61 O58 1.244 . S
C61 O59 1.240 . S
H62 C36 0.931 . S
H63 C45 0.931 . S
H64 C49 0.931 . S
H65 C51 0.930 . S
Co66 N70 2.148 . S
Co66 N76 2.128 . S
Co66 N86 2.194 . S
Co66 O91 2.351 . S
Co66 O92 2.155 . S
Co66 O93 2.096 . S
C67 N70 1.301 . S
C67 N71 1.328 . S
C67 H72 0.930 . S
C68 C69 1.333 . S
C68 N70 1.317 . S
C68 H73 0.930 . S
C69 C68 1.333 . S
C69 N71 1.350 . S
C69 H95 0.931 . S
N70 Co66 2.148 . S
N70 C67 1.301 . S
N70 C68 1.317 . S
N71 C67 1.328 . S
N71 C69 1.350 . S
H72 C67 0.930 . S
H73 C68 0.930 . S
C74 O75 1.224 . S
C74 O93 1.247 . S
O75 C74 1.224 . S
N76 Co66 2.128 . S
N76 C77 1.355 . S
N76 C79 1.311 . S
C77 N76 1.355 . S
C77 C78 1.363 . S
C77 H89 0.929 . S
C78 C77 1.363 . S
C78 N80 1.375 . S
C78 H96 0.931 . S
C79 N76 1.311 . S
C79 N80 1.347 . S
C79 H90 0.929 . S
N80 C78 1.375 . S
N80 C79 1.347 . S
C81 C84 1.365 . S
C81 N86 1.328 . S
C81 H87 0.929 . S
C82 C83 1.362 . S
C82 C85 1.378 . S
C82 H97 0.929 . S
C83 C82 1.362 . S
C83 C84 1.366 . S
C84 C81 1.365 . S
C84 C83 1.366 . S
C84 H98 0.930 . S
C85 C82 1.378 . S
C85 N86 1.315 . S
C85 H88 0.930 . S
N86 Co66 2.194 . S
N86 C81 1.328 . S
N86 C85 1.315 . S
H87 C81 0.929 . S
H88 C85 0.930 . S
H89 C77 0.929 . S
H90 C79 0.929 . S
O91 Co66 2.351 . S
O91 C94 1.244 . S
O92 Co66 2.155 . S
O92 C94 1.240 . S
O93 Co66 2.096 . S
O93 C74 1.247 . S
C94 O91 1.244 . S
C94 O92 1.240 . S
H95 C69 0.931 . S
H96 C78 0.931 . S
H97 C82 0.929 . S
H98 C84 0.930 . S
Co99 N103 2.148 . S
Co99 N109 2.128 1_455 S
Co99 N119 2.194 1_455 S
Co99 O124 2.351 1_455 S
Co99 O125 2.155 1_455 S
Co99 O126 2.096 . S
C100 N103 1.301 . S
C100 N104 1.328 . S
C100 H105 0.930 . S
C101 C102 1.333 . S
C101 N103 1.317 . S
C101 H106 0.930 . S
C102 C101 1.333 . S
C102 N104 1.350 . S
C102 H128 0.931 . S
N103 Co99 2.148 . S
N103 C100 1.301 . S
N103 C101 1.317 . S
N104 C100 1.328 . S
N104 C102 1.350 . S
H105 C100 0.930 . S
H106 C101 0.930 . S
C107 O108 1.224 . S
C107 O126 1.247 . S
O108 C107 1.224 . S
N109 Co99 2.128 1_655 S
N109 C110 1.355 . S
N109 C112 1.311 . S
C110 N109 1.355 . S
C110 C111 1.363 . S
C110 H122 0.929 . S
C111 C110 1.363 . S
C111 N113 1.375 . S
C111 H129 0.931 . S
C112 N109 1.311 . S
C112 N113 1.347 . S
C112 H123 0.929 . S
N113 C111 1.375 . S
N113 C112 1.347 . S
C114 C117 1.365 . S
C114 N119 1.328 . S
C114 H120 0.929 . S
C115 C116 1.362 . S
C115 C118 1.378 1_655 S
C115 H130 0.924 1_655 S
C116 C115 1.362 . S
C116 C117 1.366 . S
C117 C114 1.365 . S
C117 C116 1.366 . S
C117 H131 0.930 . S
C118 C115 1.378 1_455 S
C118 N119 1.315 1_455 S
C118 H121 0.930 . S
N119 Co99 2.194 1_655 S
N119 C114 1.328 . S
N119 C118 1.315 1_655 S
H120 C114 0.929 . S
H121 C118 0.930 . S
H122 C110 0.929 . S
H123 C112 0.929 . S
O124 Co99 2.351 1_655 S
O124 C127 1.244 . S
O125 Co99 2.155 1_655 S
O125 C127 1.240 . S
O126 Co99 2.096 . S
O126 C107 1.247 . S
C127 O124 1.244 . S
C127 O125 1.240 . S
H128 C102 0.931 . S
H129 C111 0.931 . S
H130 C115 0.924 1_455 S
H131 C117 0.930 . S
Co132 N136 2.148 . S
Co132 N142 2.128 . S
Co132 N152 2.194 . S
Co132 O157 2.351 . S
Co132 O158 2.155 . S
Co132 O159 2.096 . S
C133 N136 1.301 . S
C133 N137 1.328 . S
C133 H138 0.930 . S
C134 C135 1.333 . S
C134 N136 1.317 . S
C134 H139 0.930 . S
C135 C134 1.333 . S
C135 N137 1.350 . S
C135 H161 0.931 . S
N136 Co132 2.148 . S
N136 C133 1.301 . S
N136 C134 1.317 . S
N137 C133 1.328 . S
N137 C135 1.350 . S
H138 C133 0.930 . S
H139 C134 0.930 . S
C140 O141 1.224 . S
C140 O159 1.247 . S
O141 C140 1.224 . S
N142 Co132 2.128 . S
N142 C143 1.355 . S
N142 C145 1.311 . S
C143 N142 1.355 . S
C143 C144 1.363 . S
C143 H155 0.929 . S
C144 C143 1.363 . S
C144 N146 1.375 . S
C144 H162 0.931 . S
C145 N142 1.311 . S
C145 N146 1.347 . S
C145 H156 0.929 . S
N146 C144 1.375 . S
N146 C145 1.347 . S
C147 C150 1.365 . S
C147 N152 1.328 . S
C147 H153 0.929 . S
C148 C149 1.362 . S
C148 C151 1.378 . S
C148 H163 0.929 . S
C149 C148 1.362 . S
C149 C150 1.366 . S
C150 C147 1.365 . S
C150 C149 1.366 . S
C150 H164 0.930 . S
C151 C148 1.378 . S
C151 N152 1.315 . S
C151 H154 0.930 . S
N152 Co132 2.194 . S
N152 C147 1.328 . S
N152 C151 1.315 . S
H153 C147 0.929 . S
H154 C151 0.930 . S
H155 C143 0.929 . S
H156 C145 0.929 . S
O157 Co132 2.351 . S
O157 C160 1.244 . S
O158 Co132 2.155 . S
O158 C160 1.240 . S
O159 Co132 2.096 . S
O159 C140 1.247 . S
C160 O157 1.244 . S
C160 O158 1.240 . S
H161 C135 0.931 . S
H162 C144 0.931 . S
H163 C148 0.929 . S
H164 C150 0.930 . S
Co165 N169 2.148 . S
Co165 N175 2.128 1_565 S
Co165 N185 2.194 1_565 S
Co165 O190 2.351 1_565 S
Co165 O191 2.155 1_565 S
Co165 O192 2.096 . S
C166 N169 1.301 . S
C166 N170 1.328 . S
C166 H171 0.930 . S
C167 C168 1.333 . S
C167 N169 1.317 . S
C167 H172 0.930 . S
C168 C167 1.333 . S
C168 N170 1.350 . S
C168 H194 0.931 . S
N169 Co165 2.148 . S
N169 C166 1.301 . S
N169 C167 1.317 . S
N170 C166 1.328 . S
N170 C168 1.350 . S
H171 C166 0.930 . S
H172 C167 0.930 . S
C173 O174 1.224 . S
C173 O192 1.247 . S
O174 C173 1.224 . S
N175 Co165 2.128 1_545 S
N175 C176 1.355 . S
N175 C178 1.311 . S
C176 N175 1.355 . S
C176 C177 1.363 . S
C176 H188 0.929 . S
C177 C176 1.363 . S
C177 N179 1.375 . S
C177 H195 0.931 . S
C178 N175 1.311 . S
C178 N179 1.347 . S
C178 H189 0.929 . S
N179 C177 1.375 . S
N179 C178 1.347 . S
C180 C183 1.365 . S
C180 N185 1.328 . S
C180 H186 0.929 . S
C181 C182 1.362 . S
C181 C184 1.375 1_545 S
C181 H196 0.931 . S
C182 C181 1.362 . S
C182 C183 1.366 . S
C183 C180 1.365 . S
C183 C182 1.366 . S
C183 H197 0.930 . S
C184 C181 1.375 1_565 S
C184 N185 1.314 1_565 S
C184 H187 0.935 . S
N185 Co165 2.194 1_545 S
N185 C180 1.328 . S
N185 C184 1.314 1_545 S
H186 C180 0.929 . S
H187 C184 0.935 . S
H188 C176 0.929 . S
H189 C178 0.929 . S
O190 Co165 2.351 1_545 S
O190 C193 1.244 . S
O191 Co165 2.155 1_545 S
O191 C193 1.240 . S
O192 Co165 2.096 . S
O192 C173 1.247 . S
C193 O190 1.244 . S
C193 O191 1.240 . S
H194 C168 0.931 . S
H195 C177 0.931 . S
H196 C181 0.931 . S
H197 C183 0.930 . S
Co198 N202 2.148 . S
Co198 N208 2.128 . S
Co198 N218 2.194 . S
Co198 O223 2.351 . S
Co198 O224 2.155 . S
Co198 O225 2.096 . S
C199 N202 1.301 . S
C199 N203 1.328 . S
C199 H204 0.930 . S
C200 C201 1.333 . S
C200 N202 1.317 . S
C200 H205 0.930 . S
C201 C200 1.333 . S
C201 N203 1.350 . S
C201 H227 0.931 . S
N202 Co198 2.148 . S
N202 C199 1.301 . S
N202 C200 1.317 . S
N203 C199 1.328 . S
N203 C201 1.350 . S
H204 C199 0.930 . S
H205 C200 0.930 . S
C206 O207 1.224 . S
C206 O225 1.247 . S
O207 C206 1.224 . S
N208 Co198 2.128 . S
N208 C209 1.355 . S
N208 C211 1.311 . S
C209 N208 1.355 . S
C209 C210 1.363 . S
C209 H221 0.929 . S
C210 C209 1.363 . S
C210 N212 1.375 . S
C210 H228 0.931 . S
C211 N208 1.311 . S
C211 N212 1.347 . S
C211 H222 0.929 . S
N212 C210 1.375 . S
N212 C211 1.347 . S
C213 C216 1.365 . S
C213 N218 1.328 . S
C213 H219 0.929 . S
C214 C215 1.362 . S
C214 C217 1.378 . S
C214 H229 0.929 . S
C215 C214 1.362 . S
C215 C216 1.366 . S
C216 C213 1.365 . S
C216 C215 1.366 . S
C216 H230 0.930 . S
C217 C214 1.378 . S
C217 N218 1.315 . S
C217 H220 0.930 . S
N218 Co198 2.194 . S
N218 C213 1.328 . S
N218 C217 1.315 . S
H219 C213 0.929 . S
H220 C217 0.930 . S
H221 C209 0.929 . S
H222 C211 0.929 . S
O223 Co198 2.351 . S
O223 C226 1.244 . S
O224 Co198 2.155 . S
O224 C226 1.240 . S
O225 Co198 2.096 . S
O225 C206 1.247 . S
C226 O223 1.244 . S
C226 O224 1.240 . S
H227 C201 0.931 . S
H228 C210 0.931 . S
H229 C214 0.929 . S
H230 C216 0.930 . S
Co231 N235 2.148 . S
Co231 N241 2.128 . S
Co231 N251 2.194 . S
Co231 O256 2.351 . S
Co231 O257 2.155 . S
Co231 O258 2.096 . S
C232 N235 1.301 . S
C232 N236 1.328 . S
C232 H237 0.930 . S
C233 C234 1.333 . S
C233 N235 1.317 . S
C233 H238 0.930 . S
C234 C233 1.333 . S
C234 N236 1.350 . S
C234 H260 0.931 . S
N235 Co231 2.148 . S
N235 C232 1.301 . S
N235 C233 1.317 . S
N236 C232 1.328 . S
N236 C234 1.350 . S
H237 C232 0.930 . S
H238 C233 0.930 . S
C239 O240 1.224 . S
C239 O258 1.247 . S
O240 C239 1.224 . S
N241 Co231 2.128 . S
N241 C242 1.355 . S
N241 C244 1.311 . S
C242 N241 1.355 . S
C242 C243 1.363 . S
C242 H254 0.929 . S
C243 C242 1.363 . S
C243 N245 1.375 . S
C243 H261 0.931 . S
C244 N241 1.311 . S
C244 N245 1.347 . S
C244 H255 0.929 . S
N245 C243 1.375 . S
N245 C244 1.347 . S
C246 C249 1.365 . S
C246 N251 1.328 . S
C246 H252 0.929 . S
C247 C248 1.362 . S
C247 C250 1.378 . S
C247 H262 0.929 . S
C248 C247 1.362 . S
C248 C249 1.366 . S
C249 C246 1.365 . S
C249 C248 1.366 . S
C249 H263 0.930 . S
C250 C247 1.378 . S
C250 N251 1.315 . S
C250 H253 0.930 . S
N251 Co231 2.194 . S
N251 C246 1.328 . S
N251 C250 1.315 . S
H252 C246 0.929 . S
H253 C250 0.930 . S
H254 C242 0.929 . S
H255 C244 0.929 . S
O256 Co231 2.351 . S
O256 C259 1.244 . S
O257 Co231 2.155 . S
O257 C259 1.240 . S
O258 Co231 2.096 . S
O258 C239 1.247 . S
C259 O256 1.244 . S
C259 O257 1.240 . S
H260 C234 0.931 . S
H261 C243 0.931 . S
H262 C247 0.929 . S
H263 C249 0.930 . S
Co264 N268 2.148 . S
Co264 N274 2.128 . S
Co264 N284 2.194 . S
Co264 O289 2.351 . S
Co264 O290 2.155 . S
Co264 O291 2.096 . S
C265 N268 1.301 . S
C265 N269 1.328 . S
C265 H270 0.930 . S
C266 C267 1.333 . S
C266 N268 1.317 . S
C266 H271 0.930 . S
C267 C266 1.333 . S
C267 N269 1.350 . S
C267 H293 0.931 . S
N268 Co264 2.148 . S
N268 C265 1.301 . S
N268 C266 1.317 . S
N269 C265 1.328 . S
N269 C267 1.350 . S
H270 C265 0.930 . S
H271 C266 0.930 . S
C272 O273 1.224 . S
C272 O291 1.247 . S
O273 C272 1.224 . S
N274 Co264 2.128 . S
N274 C275 1.355 . S
N274 C277 1.311 . S
C275 N274 1.355 . S
C275 C276 1.363 . S
C275 H287 0.929 . S
C276 C275 1.363 . S
C276 N278 1.375 . S
C276 H294 0.931 . S
C277 N274 1.311 . S
C277 N278 1.347 . S
C277 H288 0.929 . S
N278 C276 1.375 . S
N278 C277 1.347 . S
C279 C282 1.365 . S
C279 N284 1.328 . S
C279 H285 0.929 . S
C280 C281 1.362 . S
C280 C283 1.378 . S
C280 H295 0.929 . S
C281 C280 1.362 . S
C281 C282 1.366 . S
C282 C279 1.365 . S
C282 C281 1.366 . S
C282 H296 0.930 . S
C283 C280 1.378 . S
C283 N284 1.315 . S
C283 H286 0.930 . S
N284 Co264 2.194 . S
N284 C279 1.328 . S
N284 C283 1.315 . S
H285 C279 0.929 . S
H286 C283 0.930 . S
H287 C275 0.929 . S
H288 C277 0.929 . S
O289 Co264 2.351 . S
O289 C292 1.244 . S
O290 Co264 2.155 . S
O290 C292 1.240 . S
O291 Co264 2.096 . S
O291 C272 1.247 . S
C292 O289 1.244 . S
C292 O290 1.240 . S
H293 C267 0.931 . S
H294 C276 0.931 . S
H295 C280 0.929 . S
H296 C282 0.930 . S
Co297 N301 2.148 . S
Co297 N307 2.128 . S
Co297 N317 2.194 . S
Co297 O322 2.351 . S
Co297 O323 2.155 . S
Co297 O324 2.096 . S
C298 N301 1.301 . S
C298 N302 1.328 . S
C298 H303 0.930 . S
C299 C300 1.333 . S
C299 N301 1.317 . S
C299 H304 0.930 . S
C300 C299 1.333 . S
C300 N302 1.350 . S
C300 H326 0.931 . S
N301 Co297 2.148 . S
N301 C298 1.301 . S
N301 C299 1.317 . S
N302 C298 1.328 . S
N302 C300 1.350 . S
H303 C298 0.930 . S
H304 C299 0.930 . S
C305 O306 1.224 . S
C305 O324 1.247 . S
O306 C305 1.224 . S
N307 Co297 2.128 . S
N307 C308 1.355 . S
N307 C310 1.311 . S
C308 N307 1.355 . S
C308 C309 1.363 . S
C308 H320 0.929 . S
C309 C308 1.363 . S
C309 N311 1.375 . S
C309 H327 0.931 . S
C310 N307 1.311 . S
C310 N311 1.347 . S
C310 H321 0.929 . S
N311 C309 1.375 . S
N311 C310 1.347 . S
C312 C315 1.365 . S
C312 N317 1.328 . S
C312 H318 0.929 . S
C313 C314 1.362 . S
C313 C316 1.378 1_556 S
C313 H328 0.929 . S
C314 C313 1.362 . S
C314 C315 1.366 1_556 S
C315 C312 1.365 . S
C315 C314 1.366 1_554 S
C315 H329 0.930 . S
C316 C313 1.378 1_554 S
C316 N317 1.315 . S
C316 H319 0.930 . S
N317 Co297 2.194 . S
N317 C312 1.328 . S
N317 C316 1.315 . S
H318 C312 0.929 . S
H319 C316 0.930 . S
H320 C308 0.929 . S
H321 C310 0.929 . S
O322 Co297 2.351 . S
O322 C325 1.244 . S
O323 Co297 2.155 . S
O323 C325 1.240 . S
O324 Co297 2.096 . S
O324 C305 1.247 . S
C325 O322 1.244 . S
C325 O323 1.240 . S
H326 C300 0.931 . S
H327 C309 0.931 . S
H328 C313 0.929 . S
H329 C315 0.930 . S
Co330 N334 2.148 . S
Co330 N340 2.128 . S
Co330 N350 2.194 . S
Co330 O355 2.351 . S
Co330 O356 2.155 . S
Co330 O357 2.096 . S
C331 N334 1.301 . S
C331 N335 1.328 . S
C331 H336 0.930 . S
C332 C333 1.333 . S
C332 N334 1.317 . S
C332 H337 0.930 . S
C333 C332 1.333 . S
C333 N335 1.350 . S
C333 H359 0.931 . S
N334 Co330 2.148 . S
N334 C331 1.301 . S
N334 C332 1.317 . S
N335 C331 1.328 . S
N335 C333 1.350 . S
H336 C331 0.930 . S
H337 C332 0.930 . S
C338 O339 1.224 . S
C338 O357 1.247 . S
O339 C338 1.224 . S
N340 Co330 2.128 . S
N340 C341 1.355 . S
N340 C343 1.311 . S
C341 N340 1.355 . S
C341 C342 1.363 . S
C341 H353 0.929 . S
C342 C341 1.363 . S
C342 N344 1.375 . S
C342 H360 0.931 . S
C343 N340 1.311 . S
C343 N344 1.347 . S
C343 H354 0.929 . S
N344 C342 1.375 . S
N344 C343 1.347 . S
C345 C348 1.365 . S
C345 N350 1.328 . S
C345 H351 0.929 . S
C346 C347 1.362 . S
C346 C349 1.378 1_556 S
C346 H361 0.929 . S
C347 C346 1.362 . S
C347 C348 1.366 1_556 S
C348 C345 1.365 . S
C348 C347 1.366 1_554 S
C348 H362 0.930 . S
C349 C346 1.378 1_554 S
C349 N350 1.315 . S
C349 H352 0.930 . S
N350 Co330 2.194 . S
N350 C345 1.328 . S
N350 C349 1.315 . S
H351 C345 0.929 . S
H352 C349 0.930 . S
H353 C341 0.929 . S
H354 C343 0.929 . S
O355 Co330 2.351 . S
O355 C358 1.244 . S
O356 Co330 2.155 . S
O356 C358 1.240 . S
O357 Co330 2.096 . S
O357 C338 1.247 . S
C358 O355 1.244 . S
C358 O356 1.240 . S
H359 C333 0.931 . S
H360 C342 0.931 . S
H361 C346 0.929 . S
H362 C348 0.930 . S
Co363 N367 2.148 . S
Co363 N373 2.128 . S
Co363 N383 2.194 . S
Co363 O388 2.351 . S
Co363 O389 2.155 . S
Co363 O390 2.096 . S
C364 N367 1.301 . S
C364 N368 1.328 . S
C364 H369 0.930 . S
C365 C366 1.333 . S
C365 N367 1.317 . S
C365 H370 0.930 . S
C366 C365 1.333 . S
C366 N368 1.350 . S
C366 H392 0.931 . S
N367 Co363 2.148 . S
N367 C364 1.301 . S
N367 C365 1.317 . S
N368 C364 1.328 . S
N368 C366 1.350 . S
H369 C364 0.930 . S
H370 C365 0.930 . S
C371 O372 1.224 . S
C371 O390 1.247 . S
O372 C371 1.224 . S
N373 Co363 2.128 . S
N373 C374 1.355 . S
N373 C376 1.311 . S
C374 N373 1.355 . S
C374 C375 1.363 . S
C374 H386 0.929 . S
C375 C374 1.363 . S
C375 N377 1.375 . S
C375 H393 0.931 . S
C376 N373 1.311 . S
C376 N377 1.347 . S
C376 H387 0.929 . S
N377 C375 1.375 . S
N377 C376 1.347 . S
C378 C381 1.365 . S
C378 N383 1.328 . S
C378 H384 0.929 . S
C379 C380 1.362 . S
C379 C382 1.378 1_556 S
C379 H394 0.929 . S
C380 C379 1.362 . S
C380 C381 1.366 1_556 S
C381 C378 1.365 . S
C381 C380 1.366 1_554 S
C381 H395 0.930 . S
C382 C379 1.378 1_554 S
C382 N383 1.315 . S
C382 H385 0.930 . S
N383 Co363 2.194 . S
N383 C378 1.328 . S
N383 C382 1.315 . S
H384 C378 0.929 . S
H385 C382 0.930 . S
H386 C374 0.929 . S
H387 C376 0.929 . S
O388 Co363 2.351 . S
O388 C391 1.244 . S
O389 Co363 2.155 . S
O389 C391 1.240 . S
O390 Co363 2.096 . S
O390 C371 1.247 . S
C391 O388 1.244 . S
C391 O389 1.240 . S
H392 C366 0.931 . S
H393 C375 0.931 . S
H394 C379 0.929 . S
H395 C381 0.930 . S
Co396 N400 2.148 . S
Co396 N406 2.128 . S
Co396 N416 2.194 . S
Co396 O421 2.351 . S
Co396 O422 2.155 . S
Co396 O423 2.096 . S
C397 N400 1.301 . S
C397 N401 1.328 . S
C397 H402 0.930 . S
C398 C399 1.333 . S
C398 N400 1.317 . S
C398 H403 0.930 . S
C399 C398 1.333 . S
C399 N401 1.350 . S
C399 H425 0.931 . S
N400 Co396 2.148 . S
N400 C397 1.301 . S
N400 C398 1.317 . S
N401 C397 1.328 . S
N401 C399 1.350 . S
H402 C397 0.930 . S
H403 C398 0.930 . S
C404 O405 1.224 . S
C404 O423 1.247 . S
O405 C404 1.224 . S
N406 Co396 2.128 . S
N406 C407 1.355 . S
N406 C409 1.311 . S
C407 N406 1.355 . S
C407 C408 1.363 . S
C407 H419 0.929 . S
C408 C407 1.363 . S
C408 N410 1.375 . S
C408 H426 0.931 . S
C409 N406 1.311 . S
C409 N410 1.347 . S
C409 H420 0.929 . S
N410 C408 1.375 . S
N410 C409 1.347 . S
C411 C414 1.365 . S
C411 N416 1.328 . S
C411 H417 0.929 . S
C412 C413 1.362 . S
C412 C415 1.378 1_554 S
C412 H427 0.929 . S
C413 C412 1.362 . S
C413 C414 1.366 1_554 S
C414 C411 1.365 . S
C414 C413 1.366 1_556 S
C414 H428 0.930 . S
C415 C412 1.378 1_556 S
C415 N416 1.315 . S
C415 H418 0.930 . S
N416 Co396 2.194 . S
N416 C411 1.328 . S
N416 C415 1.315 . S
H417 C411 0.929 . S
H418 C415 0.930 . S
H419 C407 0.929 . S
H420 C409 0.929 . S
O421 Co396 2.351 . S
O421 C424 1.244 . S
O422 Co396 2.155 . S
O422 C424 1.240 . S
O423 Co396 2.096 . S
O423 C404 1.247 . S
C424 O421 1.244 . S
C424 O422 1.240 . S
H425 C399 0.931 . S
H426 C408 0.931 . S
H427 C412 0.929 . S
H428 C414 0.930 . S
Co429 N433 2.148 . S
Co429 N439 2.128 . S
Co429 N449 2.194 . S
Co429 O454 2.351 . S
Co429 O455 2.155 . S
Co429 O456 2.096 . S
C430 N433 1.301 . S
C430 N434 1.328 . S
C430 H435 0.930 . S
C431 C432 1.333 . S
C431 N433 1.317 . S
C431 H436 0.930 . S
C432 C431 1.333 . S
C432 N434 1.350 . S
C432 H458 0.931 . S
N433 Co429 2.148 . S
N433 C430 1.301 . S
N433 C431 1.317 . S
N434 C430 1.328 . S
N434 C432 1.350 . S
H435 C430 0.930 . S
H436 C431 0.930 . S
C437 O438 1.224 . S
C437 O456 1.247 . S
O438 C437 1.224 . S
N439 Co429 2.128 . S
N439 C440 1.355 . S
N439 C442 1.311 . S
C440 N439 1.355 . S
C440 C441 1.363 . S
C440 H452 0.929 . S
C441 C440 1.363 . S
C441 N443 1.375 . S
C441 H459 0.931 . S
C442 N439 1.311 . S
C442 N443 1.347 . S
C442 H453 0.929 . S
N443 C441 1.375 . S
N443 C442 1.347 . S
C444 C447 1.365 . S
C444 N449 1.328 . S
C444 H450 0.929 . S
C445 C446 1.362 . S
C445 C448 1.378 1_554 S
C445 H460 0.929 . S
C446 C445 1.362 . S
C446 C447 1.366 1_554 S
C447 C444 1.365 . S
C447 C446 1.366 1_556 S
C447 H461 0.930 . S
C448 C445 1.378 1_556 S
C448 N449 1.315 . S
C448 H451 0.930 . S
N449 Co429 2.194 . S
N449 C444 1.328 . S
N449 C448 1.315 . S
H450 C444 0.929 . S
H451 C448 0.930 . S
H452 C440 0.929 . S
H453 C442 0.929 . S
O454 Co429 2.351 . S
O454 C457 1.244 . S
O455 Co429 2.155 . S
O455 C457 1.240 . S
O456 Co429 2.096 . S
O456 C437 1.247 . S
C457 O454 1.244 . S
C457 O455 1.240 . S
H458 C432 0.931 . S
H459 C441 0.931 . S
H460 C445 0.929 . S
H461 C447 0.930 . S
Co462 N466 2.148 . S
Co462 N472 2.128 . S
Co462 N482 2.194 . S
Co462 O487 2.351 . S
Co462 O488 2.155 . S
Co462 O489 2.096 . S
C463 N466 1.301 . S
C463 N467 1.328 . S
C463 H468 0.930 . S
C464 C465 1.333 . S
C464 N466 1.317 . S
C464 H469 0.930 . S
C465 C464 1.333 . S
C465 N467 1.350 . S
C465 H491 0.931 . S
N466 Co462 2.148 . S
N466 C463 1.301 . S
N466 C464 1.317 . S
N467 C463 1.328 . S
N467 C465 1.350 . S
H468 C463 0.930 . S
H469 C464 0.930 . S
C470 O471 1.224 . S
C470 O489 1.247 . S
O471 C470 1.224 . S
N472 Co462 2.128 . S
N472 C473 1.355 . S
N472 C475 1.311 . S
C473 N472 1.355 . S
C473 C474 1.363 . S
C473 H485 0.929 . S
C474 C473 1.363 . S
C474 N476 1.375 . S
C474 H492 0.931 . S
C475 N472 1.311 . S
C475 N476 1.347 . S
C475 H486 0.929 . S
N476 C474 1.375 . S
N476 C475 1.347 . S
C477 C480 1.365 . S
C477 N482 1.328 . S
C477 H483 0.929 . S
C478 C479 1.362 . S
C478 C481 1.378 1_554 S
C478 H493 0.929 . S
C479 C478 1.362 . S
C479 C480 1.366 1_554 S
C480 C477 1.365 . S
C480 C479 1.366 1_556 S
C480 H494 0.930 . S
C481 C478 1.378 1_556 S
C481 N482 1.315 . S
C481 H484 0.930 . S
N482 Co462 2.194 . S
N482 C477 1.328 . S
N482 C481 1.315 . S
H483 C477 0.929 . S
H484 C481 0.930 . S
H485 C473 0.929 . S
H486 C475 0.929 . S
O487 Co462 2.351 . S
O487 C490 1.244 . S
O488 Co462 2.155 . S
O488 C490 1.240 . S
O489 Co462 2.096 . S
O489 C470 1.247 . S
C490 O487 1.244 . S
C490 O488 1.240 . S
H491 C465 0.931 . S
H492 C474 0.931 . S
H493 C478 0.929 . S
H494 C480 0.930 . S
Co495 N499 2.148 . S
Co495 N505 2.128 . S
Co495 N515 2.194 . S
Co495 O520 2.351 . S
Co495 O521 2.155 . S
Co495 O522 2.096 . S
C496 N499 1.301 . S
C496 N500 1.328 . S
C496 H501 0.930 . S
C497 C498 1.333 . S
C497 N499 1.317 . S
C497 H502 0.930 . S
C498 C497 1.333 . S
C498 N500 1.350 . S
C498 H524 0.931 . S
N499 Co495 2.148 . S
N499 C496 1.301 . S
N499 C497 1.317 . S
N500 C496 1.328 . S
N500 C498 1.350 . S
H501 C496 0.930 . S
H502 C497 0.930 . S
C503 O504 1.224 . S
C503 O522 1.247 . S
O504 C503 1.224 . S
N505 Co495 2.128 . S
N505 C506 1.355 . S
N505 C508 1.311 . S
C506 N505 1.355 . S
C506 C507 1.363 . S
C506 H518 0.929 . S
C507 C506 1.363 . S
C507 N509 1.375 . S
C507 H525 0.931 . S
C508 N505 1.311 . S
C508 N509 1.347 . S
C508 H519 0.929 . S
N509 C507 1.375 . S
N509 C508 1.347 . S
C510 C513 1.365 . S
C510 N515 1.328 . S
C510 H516 0.929 . S
C511 C512 1.362 . S
C511 C514 1.378 . S
C511 H526 0.929 . S
C512 C511 1.362 . S
C512 C513 1.366 . S
C513 C510 1.365 . S
C513 C512 1.366 . S
C513 H527 0.930 . S
C514 C511 1.378 . S
C514 N515 1.315 . S
C514 H517 0.930 . S
N515 Co495 2.194 . S
N515 C510 1.328 . S
N515 C514 1.315 . S
H516 C510 0.929 . S
H517 C514 0.930 . S
H518 C506 0.929 . S
H519 C508 0.929 . S
O520 Co495 2.351 . S
O520 C523 1.244 . S
O521 Co495 2.155 . S
O521 C523 1.240 . S
O522 Co495 2.096 . S
O522 C503 1.247 . S
C523 O520 1.244 . S
C523 O521 1.240 . S
H524 C498 0.931 . S
H525 C507 0.931 . S
H526 C511 0.929 . S
H527 C513 0.930 . S
Co528 N532 2.148 . S
Co528 N538 2.128 . S
Co528 N548 2.194 . S
Co528 O553 2.351 . S
Co528 O554 2.155 . S
Co528 O555 2.096 . S
C529 N532 1.301 . S
C529 N533 1.328 . S
C529 H534 0.930 . S
C530 C531 1.333 . S
C530 N532 1.317 . S
C530 H535 0.930 . S
C531 C530 1.333 . S
C531 N533 1.350 . S
C531 H557 0.931 . S
N532 Co528 2.148 . S
N532 C529 1.301 . S
N532 C530 1.317 . S
N533 C529 1.328 . S
N533 C531 1.350 . S
H534 C529 0.930 . S
H535 C530 0.930 . S
C536 O537 1.224 . S
C536 O555 1.247 . S
O537 C536 1.224 . S
N538 Co528 2.128 . S
N538 C539 1.355 . S
N538 C541 1.311 . S
C539 N538 1.355 . S
C539 C540 1.363 . S
C539 H551 0.929 . S
C540 C539 1.363 . S
C540 N542 1.375 . S
C540 H558 0.931 . S
C541 N538 1.311 . S
C541 N542 1.347 . S
C541 H552 0.929 . S
N542 C540 1.375 . S
N542 C541 1.347 . S
C543 C546 1.365 . S
C543 N548 1.328 . S
C543 H549 0.929 . S
C544 C545 1.362 . S
C544 C547 1.378 . S
C544 H559 0.929 . S
C545 C544 1.362 . S
C545 C546 1.366 . S
C546 C543 1.365 . S
C546 C545 1.366 . S
C546 H560 0.930 . S
C547 C544 1.378 . S
C547 N548 1.315 . S
C547 H550 0.930 . S
N548 Co528 2.194 . S
N548 C543 1.328 . S
N548 C547 1.315 . S
H549 C543 0.929 . S
H550 C547 0.930 . S
H551 C539 0.929 . S
H552 C541 0.929 . S
O553 Co528 2.351 . S
O553 C556 1.244 . S
O554 Co528 2.155 . S
O554 C556 1.240 . S
O555 Co528 2.096 . S
O555 C536 1.247 . S
C556 O553 1.244 . S
C556 O554 1.240 . S
H557 C531 0.931 . S
H558 C540 0.931 . S
H559 C544 0.929 . S
H560 C546 0.930 . S
Co561 N565 2.148 . S
Co561 N571 2.128 . S
Co561 N581 2.194 . S
Co561 O586 2.351 . S
Co561 O587 2.155 . S
Co561 O588 2.096 . S
C562 N565 1.301 . S
C562 N566 1.328 . S
C562 H567 0.930 . S
C563 C564 1.333 . S
C563 N565 1.317 . S
C563 H568 0.930 . S
C564 C563 1.333 . S
C564 N566 1.350 . S
C564 H590 0.931 . S
N565 Co561 2.148 . S
N565 C562 1.301 . S
N565 C563 1.317 . S
N566 C562 1.328 . S
N566 C564 1.350 . S
H567 C562 0.930 . S
H568 C563 0.930 . S
C569 O570 1.224 . S
C569 O588 1.247 . S
O570 C569 1.224 . S
N571 Co561 2.128 . S
N571 C572 1.355 . S
N571 C574 1.311 . S
C572 N571 1.355 . S
C572 C573 1.363 . S
C572 H584 0.929 . S
C573 C572 1.363 . S
C573 N575 1.375 . S
C573 H591 0.931 . S
C574 N571 1.311 . S
C574 N575 1.347 . S
C574 H585 0.929 . S
N575 C573 1.375 . S
N575 C574 1.347 . S
C576 C579 1.365 . S
C576 N581 1.328 . S
C576 H582 0.929 . S
C577 C578 1.362 . S
C577 C580 1.378 . S
C577 H592 0.929 . S
C578 C577 1.362 . S
C578 C579 1.366 . S
C579 C576 1.365 . S
C579 C578 1.366 . S
C579 H593 0.930 . S
C580 C577 1.378 . S
C580 N581 1.315 . S
C580 H583 0.930 . S
N581 Co561 2.194 . S
N581 C576 1.328 . S
N581 C580 1.315 . S
H582 C576 0.929 . S
H583 C580 0.930 . S
H584 C572 0.929 . S
H585 C574 0.929 . S
O586 Co561 2.351 . S
O586 C589 1.244 . S
O587 Co561 2.155 . S
O587 C589 1.240 . S
O588 Co561 2.096 . S
O588 C569 1.247 . S
C589 O586 1.244 . S
C589 O587 1.240 . S
H590 C564 0.931 . S
H591 C573 0.931 . S
H592 C577 0.929 . S
H593 C579 0.930 . S
H594 C602 0.950 . S
H595 C607 0.950 . S
H596 C604 0.950 . S
H597 C606 0.950 . S
H598 C608 0.950 . S
H599 C610 0.950 . S
H600 C612 0.950 . S
H601 C613 0.950 . S
C602 H594 0.950 . S
C602 C603 1.386 . S
C602 C604 1.391 . S
C603 C602 1.386 . S
C603 C607 1.393 . S
C604 H596 0.950 . S
C604 C602 1.391 . S
C604 C605 1.400 . S
C605 C604 1.400 . S
C605 C606 1.398 . S
C605 C611 1.491 . S
C606 H597 0.950 . S
C606 C605 1.398 . S
C606 C607 1.391 . S
C607 H595 0.950 . S
C607 C603 1.393 . S
C607 C606 1.391 . S
C608 H598 0.950 . S
C608 C609 1.386 . S
C608 C610 1.391 . S
C609 C608 1.386 . S
C609 C613 1.393 . S
C610 H599 0.950 . S
C610 C608 1.391 . S
C610 C611 1.400 . S
C611 C605 1.491 . S
C611 C610 1.400 . S
C611 C612 1.398 . S
C612 H600 0.950 . S
C612 C611 1.398 . S
C612 C613 1.391 . S
C613 H601 0.950 . S
C613 C609 1.393 . S
C613 C612 1.391 . S
H614 C622 0.950 . S
H615 C627 0.950 . S
H616 C624 0.950 . S
H617 C626 0.950 . S
H618 C628 0.950 . S
H619 C630 0.950 . S
H620 C632 0.950 . S
H621 C633 0.950 . S
C622 H614 0.950 . S
C622 C623 1.386 . S
C622 C624 1.391 . S
C623 C622 1.386 . S
C623 C627 1.393 . S
C624 H616 0.950 . S
C624 C622 1.391 . S
C624 C625 1.400 . S
C625 C624 1.400 . S
C625 C626 1.398 . S
C625 C631 1.491 1_565 S
C626 H617 0.950 . S
C626 C625 1.398 . S
C626 C627 1.391 . S
C627 H615 0.950 . S
C627 C623 1.393 . S
C627 C626 1.391 . S
C628 H618 0.950 . S
C628 C629 1.386 . S
C628 C630 1.391 . S
C629 C628 1.386 . S
C629 C633 1.393 . S
C630 H619 0.950 . S
C630 C628 1.391 . S
C630 C631 1.400 . S
C631 C625 1.491 1_545 S
C631 C630 1.400 . S
C631 C632 1.398 . S
C632 H620 0.950 . S
C632 C631 1.398 . S
C632 C633 1.391 . S
C633 H621 0.950 . S
C633 C629 1.393 . S
C633 C632 1.391 . S
H634 C642 0.950 . S
H635 C647 0.950 . S
H636 C644 0.950 . S
H637 C646 0.950 . S
H638 C648 0.950 . S
H639 C650 0.950 . S
H640 C652 0.950 . S
H641 C653 0.950 . S
C642 H634 0.950 . S
C642 C643 1.386 . S
C642 C644 1.391 . S
C643 C642 1.386 . S
C643 C647 1.393 . S
C644 H636 0.950 . S
C644 C642 1.391 . S
C644 C645 1.400 . S
C645 C644 1.400 . S
C645 C646 1.398 . S
C645 C651 1.491 1_655 S
C646 H637 0.950 . S
C646 C645 1.398 . S
C646 C647 1.391 . S
C647 H635 0.950 . S
C647 C643 1.393 . S
C647 C646 1.391 . S
C648 H638 0.950 . S
C648 C649 1.386 . S
C648 C650 1.391 . S
C649 C648 1.386 . S
C649 C653 1.393 . S
C650 H639 0.950 . S
C650 C648 1.391 . S
C650 C651 1.400 . S
C651 C645 1.491 1_455 S
C651 C650 1.400 . S
C651 C652 1.398 . S
C652 H640 0.950 . S
C652 C651 1.398 . S
C652 C653 1.391 . S
C653 H641 0.950 . S
C653 C649 1.393 . S
C653 C652 1.391 . S
H654 C662 0.950 . S
H655 C667 0.950 . S
H656 C664 0.950 . S
H657 C666 0.950 . S
H658 C668 0.950 . S
H659 C670 0.950 . S
H660 C672 0.950 . S
H661 C673 0.950 . S
C662 H654 0.950 . S
C662 C663 1.386 . S
C662 C664 1.391 . S
C663 C662 1.386 . S
C663 C667 1.393 . S
C664 H656 0.950 . S
C664 C662 1.391 . S
C664 C665 1.400 . S
C665 C664 1.400 . S
C665 C666 1.398 . S
C665 C671 1.491 . S
C666 H657 0.950 . S
C666 C665 1.398 . S
C666 C667 1.391 . S
C667 H655 0.950 . S
C667 C663 1.393 . S
C667 C666 1.391 . S
C668 H658 0.950 . S
C668 C669 1.386 . S
C668 C670 1.391 . S
C669 C668 1.386 . S
C669 C673 1.393 . S
C670 H659 0.950 . S
C670 C668 1.391 . S
C670 C671 1.400 . S
C671 C665 1.491 . S
C671 C670 1.400 . S
C671 C672 1.398 . S
C672 H660 0.950 . S
C672 C671 1.398 . S
C672 C673 1.391 . S
C673 H661 0.950 . S
C673 C669 1.393 . S
C673 C672 1.391 . S
H674 C682 0.950 . S
H675 C687 0.950 . S
H676 C684 0.950 . S
H677 C686 0.950 . S
H678 C688 0.950 . S
H679 C690 0.950 . S
H680 C692 0.950 . S
H681 C693 0.950 . S
C682 H674 0.950 . S
C682 C683 1.386 . S
C682 C684 1.391 . S
C683 C682 1.386 . S
C683 C687 1.393 . S
C684 H676 0.950 . S
C684 C682 1.391 . S
C684 C685 1.400 . S
C685 C684 1.400 . S
C685 C686 1.398 . S
C685 C691 1.491 1_545 S
C686 H677 0.950 . S
C686 C685 1.398 . S
C686 C687 1.391 . S
C687 H675 0.950 . S
C687 C683 1.393 . S
C687 C686 1.391 . S
C688 H678 0.950 . S
C688 C689 1.386 . S
C688 C690 1.391 . S
C689 C688 1.386 . S
C689 C693 1.393 . S
C690 H679 0.950 . S
C690 C688 1.391 . S
C690 C691 1.400 . S
C691 C685 1.491 1_565 S
C691 C690 1.400 . S
C691 C692 1.398 . S
C692 H680 0.950 . S
C692 C691 1.398 . S
C692 C693 1.391 . S
C693 H681 0.950 . S
C693 C689 1.393 . S
C693 C692 1.391 . S
H694 C702 0.950 . S
H695 C707 0.950 . S
H696 C704 0.950 . S
H697 C706 0.950 . S
H698 C708 0.950 . S
H699 C710 0.950 . S
H700 C712 0.950 . S
H701 C713 0.950 . S
C702 H694 0.950 . S
C702 C703 1.386 . S
C702 C704 1.391 . S
C703 C702 1.386 . S
C703 C707 1.393 . S
C704 H696 0.950 . S
C704 C702 1.391 . S
C704 C705 1.400 . S
C705 C704 1.400 . S
C705 C706 1.398 . S
C705 C711 1.491 1_455 S
C706 H697 0.950 . S
C706 C705 1.398 . S
C706 C707 1.391 . S
C707 H695 0.950 . S
C707 C703 1.393 . S
C707 C706 1.391 . S
C708 H698 0.950 . S
C708 C709 1.386 . S
C708 C710 1.391 . S
C709 C708 1.386 . S
C709 C713 1.393 . S
C710 H699 0.950 . S
C710 C708 1.391 . S
C710 C711 1.400 . S
C711 C705 1.491 1_655 S
C711 C710 1.400 . S
C711 C712 1.398 . S
C712 H700 0.950 . S
C712 C711 1.398 . S
C712 C713 1.391 . S
C713 H701 0.950 . S
C713 C709 1.393 . S
C713 C712 1.391 . S
H714 C722 0.950 . S
H715 C727 0.950 . S
H716 C724 0.950 . S
H717 C726 0.950 . S
H718 C728 0.950 . S
H719 C730 0.950 . S
H720 C732 0.950 . S
H721 C733 0.950 . S
C722 H714 0.950 . S
C722 C723 1.386 . S
C722 C724 1.391 . S
C723 C722 1.386 . S
C723 C727 1.393 . S
C724 H716 0.950 . S
C724 C722 1.391 . S
C724 C725 1.400 . S
C725 C724 1.400 . S
C725 C726 1.398 . S
C725 C731 1.491 . S
C726 H717 0.950 . S
C726 C725 1.398 . S
C726 C727 1.391 . S
C727 H715 0.950 . S
C727 C723 1.393 . S
C727 C726 1.391 . S
C728 H718 0.950 . S
C728 C729 1.386 . S
C728 C730 1.391 . S
C729 C728 1.386 . S
C729 C733 1.393 . S
C730 H719 0.950 . S
C730 C728 1.391 . S
C730 C731 1.400 . S
C731 C725 1.491 . S
C731 C730 1.400 . S
C731 C732 1.398 . S
C732 H720 0.950 . S
C732 C731 1.398 . S
C732 C733 1.391 . S
C733 H721 0.950 . S
C733 C729 1.393 . S
C733 C732 1.391 . S
H734 C742 0.950 . S
H735 C747 0.950 . S
H736 C744 0.950 . S
H737 C746 0.950 . S
H738 C748 0.950 . S
H739 C750 0.950 . S
H740 C752 0.950 . S
H741 C753 0.950 . S
C742 H734 0.950 . S
C742 C743 1.386 . S
C742 C744 1.391 . S
C743 C742 1.386 . S
C743 C747 1.393 . S
C744 H736 0.950 . S
C744 C742 1.391 . S
C744 C745 1.400 . S
C745 C744 1.400 . S
C745 C746 1.398 . S
C745 C751 1.491 . S
C746 H737 0.950 . S
C746 C745 1.398 . S
C746 C747 1.391 . S
C747 H735 0.950 . S
C747 C743 1.393 . S
C747 C746 1.391 . S
C748 H738 0.950 . S
C748 C749 1.386 . S
C748 C750 1.391 . S
C749 C748 1.386 . S
C749 C753 1.393 . S
C750 H739 0.950 . S
C750 C748 1.391 . S
C750 C751 1.400 . S
C751 C745 1.491 . S
C751 C750 1.400 . S
C751 C752 1.398 . S
C752 H740 0.950 . S
C752 C751 1.398 . S
C752 C753 1.391 . S
C753 H741 0.950 . S
C753 C749 1.393 . S
C753 C752 1.391 . S
H754 C762 0.950 . S
H755 C767 0.950 . S
H756 C764 0.950 . S
H757 C766 0.950 . S
H758 C768 0.950 . S
H759 C770 0.950 . S
H760 C772 0.950 . S
H761 C773 0.950 . S
C762 H754 0.950 . S
C762 C763 1.386 . S
C762 C764 1.391 . S
C763 C762 1.386 . S
C763 C767 1.393 . S
C764 H756 0.950 . S
C764 C762 1.391 . S
C764 C765 1.400 . S
C765 C764 1.400 . S
C765 C766 1.398 . S
C765 C771 1.491 . S
C766 H757 0.950 . S
C766 C765 1.398 . S
C766 C767 1.391 . S
C767 H755 0.950 . S
C767 C763 1.393 . S
C767 C766 1.391 . S
C768 H758 0.950 . S
C768 C769 1.386 . S
C768 C770 1.391 . S
C769 C768 1.386 . S
C769 C773 1.393 . S
C770 H759 0.950 . S
C770 C768 1.391 . S
C770 C771 1.400 . S
C771 C765 1.491 . S
C771 C770 1.400 . S
C771 C772 1.398 . S
C772 H760 0.950 . S
C772 C771 1.398 . S
C772 C773 1.391 . S
C773 H761 0.950 . S
C773 C769 1.393 . S
C773 C772 1.391 . S
H774 C782 0.950 . S
H775 C787 0.950 . S
H776 C784 0.950 . S
H777 C786 0.950 . S
H778 C788 0.950 . S
H779 C790 0.950 . S
H780 C792 0.950 . S
H781 C793 0.950 . S
C782 H774 0.950 . S
C782 C783 1.386 . S
C782 C784 1.391 . S
C783 C782 1.386 . S
C783 C787 1.393 . S
C784 H776 0.950 . S
C784 C782 1.391 . S
C784 C785 1.400 . S
C785 C784 1.400 . S
C785 C786 1.398 . S
C785 C791 1.491 . S
C786 H777 0.950 . S
C786 C785 1.398 . S
C786 C787 1.391 . S
C787 H775 0.950 . S
C787 C783 1.393 . S
C787 C786 1.391 . S
C788 H778 0.950 . S
C788 C789 1.386 . S
C788 C790 1.391 . S
C789 C788 1.386 . S
C789 C793 1.393 . S
C790 H779 0.950 . S
C790 C788 1.391 . S
C790 C791 1.400 . S
C791 C785 1.491 . S
C791 C790 1.400 . S
C791 C792 1.398 . S
C792 H780 0.950 . S
C792 C791 1.398 . S
C792 C793 1.391 . S
C793 H781 0.950 . S
C793 C789 1.393 . S
C793 C792 1.391 . S
H794 C802 0.950 . S
H795 C807 0.950 . S
H796 C804 0.950 . S
H797 C806 0.950 . S
H798 C808 0.950 . S
H799 C810 0.950 . S
H800 C812 0.950 . S
H801 C813 0.950 . S
C802 H794 0.950 . S
C802 C803 1.386 . S
C802 C804 1.391 . S
C803 C802 1.386 . S
C803 C807 1.393 . S
C804 H796 0.950 . S
C804 C802 1.391 . S
C804 C805 1.400 . S
C805 C804 1.400 . S
C805 C806 1.398 . S
C805 C811 1.491 . S
C806 H797 0.950 . S
C806 C805 1.398 . S
C806 C807 1.391 . S
C807 H795 0.950 . S
C807 C803 1.393 . S
C807 C806 1.391 . S
C808 H798 0.950 . S
C808 C809 1.386 . S
C808 C810 1.391 . S
C809 C808 1.386 . S
C809 C813 1.393 . S
C810 H799 0.950 . S
C810 C808 1.391 . S
C810 C811 1.400 . S
C811 C805 1.491 . S
C811 C810 1.400 . S
C811 C812 1.398 . S
C812 H800 0.950 . S
C812 C811 1.398 . S
C812 C813 1.391 . S
C813 H801 0.950 . S
C813 C809 1.393 . S
C813 C812 1.391 . S
H814 C822 0.950 . S
H815 C827 0.950 . S
H816 C824 0.950 . S
H817 C826 0.950 . S
H818 C828 0.950 . S
H819 C830 0.950 . S
H820 C832 0.950 . S
H821 C833 0.950 . S
C822 H814 0.950 . S
C822 C823 1.386 . S
C822 C824 1.391 . S
C823 C822 1.386 . S
C823 C827 1.393 . S
C824 H816 0.950 . S
C824 C822 1.391 . S
C824 C825 1.400 . S
C825 C824 1.400 . S
C825 C826 1.398 . S
C825 C831 1.491 . S
C826 H817 0.950 . S
C826 C825 1.398 . S
C826 C827 1.391 . S
C827 H815 0.950 . S
C827 C823 1.393 . S
C827 C826 1.391 . S
C828 H818 0.950 . S
C828 C829 1.386 . S
C828 C830 1.391 . S
C829 C828 1.386 . S
C829 C833 1.393 . S
C830 H819 0.950 . S
C830 C828 1.391 . S
C830 C831 1.400 . S
C831 C825 1.491 . S
C831 C830 1.400 . S
C831 C832 1.398 . S
C832 H820 0.950 . S
C832 C831 1.398 . S
C832 C833 1.391 . S
C833 H821 0.950 . S
C833 C829 1.393 . S
C833 C832 1.391 . S
H834 C842 0.950 . S
H835 C847 0.950 . S
H836 C844 0.950 . S
H837 C846 0.950 . S
H838 C848 0.950 . S
H839 C850 0.950 . S
H840 C852 0.950 . S
H841 C853 0.950 . S
C842 H834 0.950 . S
C842 C843 1.386 . S
C842 C844 1.391 . S
C843 C842 1.386 . S
C843 C847 1.393 . S
C844 H836 0.950 . S
C844 C842 1.391 . S
C844 C845 1.400 . S
C845 C844 1.400 . S
C845 C846 1.398 . S
C845 C851 1.491 . S
C846 H837 0.950 . S
C846 C845 1.398 . S
C846 C847 1.391 . S
C847 H835 0.950 . S
C847 C843 1.393 . S
C847 C846 1.391 . S
C848 H838 0.950 . S
C848 C849 1.386 . S
C848 C850 1.391 . S
C849 C848 1.386 . S
C849 C853 1.393 . S
C850 H839 0.950 . S
C850 C848 1.391 . S
C850 C851 1.400 . S
C851 C845 1.491 . S
C851 C850 1.400 . S
C851 C852 1.398 . S
C852 H840 0.950 . S
C852 C851 1.398 . S
C852 C853 1.391 . S
C853 H841 0.950 . S
C853 C849 1.393 . S
C853 C852 1.391 . S
H854 C862 0.950 . S
H855 C867 0.950 . S
H856 C864 0.950 . S
H857 C866 0.950 . S
H858 C868 0.950 . S
H859 C870 0.950 . S
H860 C872 0.950 . S
H861 C873 0.950 . S
C862 H854 0.950 . S
C862 C863 1.386 . S
C862 C864 1.391 . S
C863 C862 1.386 . S
C863 C867 1.393 . S
C864 H856 0.950 . S
C864 C862 1.391 . S
C864 C865 1.400 . S
C865 C864 1.400 . S
C865 C866 1.398 . S
C865 C871 1.491 . S
C866 H857 0.950 . S
C866 C865 1.398 . S
C866 C867 1.391 . S
C867 H855 0.950 . S
C867 C863 1.393 . S
C867 C866 1.391 . S
C868 H858 0.950 . S
C868 C869 1.386 . S
C868 C870 1.391 . S
C869 C868 1.386 . S
C869 C873 1.393 . S
C870 H859 0.950 . S
C870 C868 1.391 . S
C870 C871 1.400 . S
C871 C865 1.491 . S
C871 C870 1.400 . S
C871 C872 1.398 . S
C872 H860 0.950 . S
C872 C871 1.398 . S
C872 C873 1.391 . S
C873 H861 0.950 . S
C873 C869 1.393 . S
C873 C872 1.391 . S
H874 C882 0.950 . S
H875 C887 0.950 . S
H876 C884 0.950 . S
H877 C886 0.950 . S
H878 C888 0.950 . S
H879 C890 0.950 . S
H880 C892 0.950 . S
H881 C893 0.950 . S
C882 H874 0.950 . S
C882 C883 1.386 . S
C882 C884 1.391 . S
C883 C882 1.386 . S
C883 C887 1.393 . S
C884 H876 0.950 . S
C884 C882 1.391 . S
C884 C885 1.400 . S
C885 C884 1.400 . S
C885 C886 1.398 . S
C885 C891 1.491 . S
C886 H877 0.950 . S
C886 C885 1.398 . S
C886 C887 1.391 . S
C887 H875 0.950 . S
C887 C883 1.393 . S
C887 C886 1.391 . S
C888 H878 0.950 . S
C888 C889 1.386 . S
C888 C890 1.391 . S
C889 C888 1.386 . S
C889 C893 1.393 . S
C890 H879 0.950 . S
C890 C888 1.391 . S
C890 C891 1.400 . S
C891 C885 1.491 . S
C891 C890 1.400 . S
C891 C892 1.398 . S
C892 H880 0.950 . S
C892 C891 1.398 . S
C892 C893 1.391 . S
C893 H881 0.950 . S
C893 C889 1.393 . S
C893 C892 1.391 . S
H894 C902 0.950 . S
H895 C907 0.950 . S
H896 C904 0.950 . S
H897 C906 0.950 . S
H898 C908 0.950 . S
H899 C910 0.950 . S
H900 C912 0.950 . S
H901 C913 0.950 . S
C902 H894 0.950 . S
C902 C903 1.386 . S
C902 C904 1.391 . S
C903 C902 1.386 . S
C903 C907 1.393 . S
C904 H896 0.950 . S
C904 C902 1.391 . S
C904 C905 1.400 . S
C905 C904 1.400 . S
C905 C906 1.398 . S
C905 C911 1.491 . S
C906 H897 0.950 . S
C906 C905 1.398 . S
C906 C907 1.391 . S
C907 H895 0.950 . S
C907 C903 1.393 . S
C907 C906 1.391 . S
C908 H898 0.950 . S
C908 C909 1.386 . S
C908 C910 1.391 . S
C909 C908 1.386 . S
C909 C913 1.393 . S
C910 H899 0.950 . S
C910 C908 1.391 . S
C910 C911 1.400 . S
C911 C905 1.491 . S
C911 C910 1.400 . S
C911 C912 1.398 . S
C912 H900 0.950 . S
C912 C911 1.398 . S
C912 C913 1.391 . S
C913 H901 0.950 . S
C913 C909 1.393 . S
C913 C912 1.391 . S
H914 C922 0.950 . S
H915 C927 0.950 . S
H916 C924 0.950 . S
H917 C926 0.950 . S
H918 C928 0.950 . S
H919 C930 0.950 . S
H920 C932 0.950 . S
H921 C933 0.950 . S
C922 H914 0.950 . S
C922 C923 1.386 . S
C922 C924 1.391 . S
C923 C922 1.386 . S
C923 C927 1.393 . S
C924 H916 0.950 . S
C924 C922 1.391 . S
C924 C925 1.400 . S
C925 C924 1.400 . S
C925 C926 1.398 . S
C925 C931 1.491 . S
C926 H917 0.950 . S
C926 C925 1.398 . S
C926 C927 1.391 . S
C927 H915 0.950 . S
C927 C923 1.393 . S
C927 C926 1.391 . S
C928 H918 0.950 . S
C928 C929 1.386 . S
C928 C930 1.391 . S
C929 C928 1.386 . S
C929 C933 1.393 . S
C930 H919 0.950 . S
C930 C928 1.391 . S
C930 C931 1.400 . S
C931 C925 1.491 . S
C931 C930 1.400 . S
C931 C932 1.398 . S
C932 H920 0.950 . S
C932 C931 1.398 . S
C932 C933 1.391 . S
C933 H921 0.950 . S
C933 C929 1.393 . S
C933 C932 1.391 . S
H934 C942 0.950 . S
H935 C947 0.950 . S
H936 C944 0.950 . S
H937 C946 0.950 . S
H938 C948 0.950 . S
H939 C950 0.950 . S
H940 C952 0.950 . S
H941 C953 0.950 . S
C942 H934 0.950 . S
C942 C943 1.386 . S
C942 C944 1.391 . S
C943 C942 1.386 . S
C943 C947 1.393 . S
C944 H936 0.950 . S
C944 C942 1.391 . S
C944 C945 1.400 . S
C945 C944 1.400 . S
C945 C946 1.398 . S
C945 C951 1.491 . S
C946 H937 0.950 . S
C946 C945 1.398 . S
C946 C947 1.391 . S
C947 H935 0.950 . S
C947 C943 1.393 . S
C947 C946 1.391 . S
C948 H938 0.950 . S
C948 C949 1.386 . S
C948 C950 1.391 . S
C949 C948 1.386 . S
C949 C953 1.393 . S
C950 H939 0.950 . S
C950 C948 1.391 . S
C950 C951 1.400 . S
C951 C945 1.491 . S
C951 C950 1.400 . S
C951 C952 1.398 . S
C952 H940 0.950 . S
C952 C951 1.398 . S
C952 C953 1.391 . S
C953 H941 0.950 . S
C953 C949 1.393 . S
C953 C952 1.391 . S
H954 C962 0.950 . S
H955 C967 0.950 . S
H956 C964 0.950 . S
H957 C966 0.950 . S
H958 C968 0.950 . S
H959 C970 0.950 . S
H960 C972 0.950 . S
H961 C973 0.950 . S
C962 H954 0.950 . S
C962 C963 1.386 . S
C962 C964 1.391 . S
C963 C962 1.386 . S
C963 C967 1.393 . S
C964 H956 0.950 . S
C964 C962 1.391 . S
C964 C965 1.400 . S
C965 C964 1.400 . S
C965 C966 1.398 . S
C965 C971 1.491 . S
C966 H957 0.950 . S
C966 C965 1.398 . S
C966 C967 1.391 . S
C967 H955 0.950 . S
C967 C963 1.393 . S
C967 C966 1.391 . S
C968 H958 0.950 . S
C968 C969 1.386 . S
C968 C970 1.391 . S
C969 C968 1.386 . S
C969 C973 1.393 . S
C970 H959 0.950 . S
C970 C968 1.391 . S
C970 C971 1.400 . S
C971 C965 1.491 . S
C971 C970 1.400 . S
C971 C972 1.398 . S
C972 H960 0.950 . S
C972 C971 1.398 . S
C972 C973 1.391 . S
C973 H961 0.950 . S
C973 C969 1.393 . S
C973 C972 1.391 . S
H974 C982 0.950 . S
H975 C987 0.950 . S
H976 C984 0.950 . S
H977 C986 0.950 . S
H978 C988 0.950 . S
H979 C990 0.950 . S
H980 C992 0.950 . S
H981 C993 0.950 . S
C982 H974 0.950 . S
C982 C983 1.386 . S
C982 C984 1.391 . S
C983 C982 1.386 . S
C983 C987 1.393 . S
C984 H976 0.950 . S
C984 C982 1.391 . S
C984 C985 1.400 . S
C985 C984 1.400 . S
C985 C986 1.398 . S
C985 C991 1.491 . S
C986 H977 0.950 . S
C986 C985 1.398 . S
C986 C987 1.391 . S
C987 H975 0.950 . S
C987 C983 1.393 . S
C987 C986 1.391 . S
C988 H978 0.950 . S
C988 C989 1.386 . S
C988 C990 1.391 . S
C989 C988 1.386 . S
C989 C993 1.393 . S
C990 H979 0.950 . S
C990 C988 1.391 . S
C990 C991 1.400 . S
C991 C985 1.491 . S
C991 C990 1.400 . S
C991 C992 1.398 . S
C992 H980 0.950 . S
C992 C991 1.398 . S
C992 C993 1.391 . S
C993 H981 0.950 . S
C993 C989 1.393 . S
C993 C992 1.391 . S
H994 C1002 0.950 . S
H995 C1007 0.950 . S
H996 C1004 0.950 . S
H997 C1006 0.950 . S
H998 C1008 0.950 . S
H999 C1010 0.950 . S
H1000 C1012 0.950 . S
H1001 C1013 0.950 . S
C1002 H994 0.950 . S
C1002 C1003 1.386 . S
C1002 C1004 1.391 . S
C1003 C1002 1.386 . S
C1003 C1007 1.393 . S
C1004 H996 0.950 . S
C1004 C1002 1.391 . S
C1004 C1005 1.400 . S
C1005 C1004 1.400 . S
C1005 C1006 1.398 . S
C1005 C1011 1.491 . S
C1006 H997 0.950 . S
C1006 C1005 1.398 . S
C1006 C1007 1.391 . S
C1007 H995 0.950 . S
C1007 C1003 1.393 . S
C1007 C1006 1.391 . S
C1008 H998 0.950 . S
C1008 C1009 1.386 . S
C1008 C1010 1.391 . S
C1009 C1008 1.386 . S
C1009 C1013 1.393 . S
C1010 H999 0.950 . S
C1010 C1008 1.391 . S
C1010 C1011 1.400 . S
C1011 C1005 1.491 . S
C1011 C1010 1.400 . S
C1011 C1012 1.398 . S
C1012 H1000 0.950 . S
C1012 C1011 1.398 . S
C1012 C1013 1.391 . S
C1013 H1001 0.950 . S
C1013 C1009 1.393 . S
C1013 C1012 1.391 . S
H1014 C1022 0.950 . S
H1015 C1027 0.950 . S
H1016 C1024 0.950 . S
H1017 C1026 0.950 . S
H1018 C1028 0.950 . S
H1019 C1030 0.950 . S
H1020 C1032 0.950 . S
H1021 C1033 0.950 . S
C1022 H1014 0.950 . S
C1022 C1023 1.386 . S
C1022 C1024 1.391 . S
C1023 C1022 1.386 . S
C1023 C1027 1.393 . S
C1024 H1016 0.950 . S
C1024 C1022 1.391 . S
C1024 C1025 1.400 . S
C1025 C1024 1.400 . S
C1025 C1026 1.398 . S
C1025 C1031 1.491 . S
C1026 H1017 0.950 . S
C1026 C1025 1.398 . S
C1026 C1027 1.391 . S
C1027 H1015 0.950 . S
C1027 C1023 1.393 . S
C1027 C1026 1.391 . S
C1028 H1018 0.950 . S
C1028 C1029 1.386 . S
C1028 C1030 1.391 . S
C1029 C1028 1.386 . S
C1029 C1033 1.393 . S
C1030 H1019 0.950 . S
C1030 C1028 1.391 . S
C1030 C1031 1.400 . S
C1031 C1025 1.491 . S
C1031 C1030 1.400 . S
C1031 C1032 1.398 . S
C1032 H1020 0.950 . S
C1032 C1031 1.398 . S
C1032 C1033 1.391 . S
C1033 H1021 0.950 . S
C1033 C1029 1.393 . S
C1033 C1032 1.391 . S
H1034 C1042 0.950 . S
H1035 C1047 0.950 . S
H1036 C1044 0.950 . S
H1037 C1046 0.950 . S
H1038 C1048 0.950 . S
H1039 C1050 0.950 . S
H1040 C1052 0.950 . S
H1041 C1053 0.950 . S
C1042 H1034 0.950 . S
C1042 C1043 1.386 . S
C1042 C1044 1.391 . S
C1043 C1042 1.386 . S
C1043 C1047 1.393 . S
C1044 H1036 0.950 . S
C1044 C1042 1.391 . S
C1044 C1045 1.400 . S
C1045 C1044 1.400 . S
C1045 C1046 1.398 . S
C1045 C1051 1.491 . S
C1046 H1037 0.950 . S
C1046 C1045 1.398 . S
C1046 C1047 1.391 . S
C1047 H1035 0.950 . S
C1047 C1043 1.393 . S
C1047 C1046 1.391 . S
C1048 H1038 0.950 . S
C1048 C1049 1.386 . S
C1048 C1050 1.391 . S
C1049 C1048 1.386 . S
C1049 C1053 1.393 . S
C1050 H1039 0.950 . S
C1050 C1048 1.391 . S
C1050 C1051 1.400 . S
C1051 C1045 1.491 . S
C1051 C1050 1.400 . S
C1051 C1052 1.398 . S
C1052 H1040 0.950 . S
C1052 C1051 1.398 . S
C1052 C1053 1.391 . S
C1053 H1041 0.950 . S
C1053 C1049 1.393 . S
C1053 C1052 1.391 . S
H1054 C1062 0.950 . S
H1055 C1067 0.950 . S
H1056 C1064 0.950 . S
H1057 C1066 0.950 . S
H1058 C1068 0.950 . S
H1059 C1070 0.950 . S
H1060 C1072 0.950 . S
H1061 C1073 0.950 . S
C1062 H1054 0.950 . S
C1062 C1063 1.386 . S
C1062 C1064 1.391 . S
C1063 C1062 1.386 . S
C1063 C1067 1.393 . S
C1064 H1056 0.950 . S
C1064 C1062 1.391 . S
C1064 C1065 1.400 . S
C1065 C1064 1.400 . S
C1065 C1066 1.398 . S
C1065 C1071 1.491 . S
C1066 H1057 0.950 . S
C1066 C1065 1.398 . S
C1066 C1067 1.391 . S
C1067 H1055 0.950 . S
C1067 C1063 1.393 . S
C1067 C1066 1.391 . S
C1068 H1058 0.950 . S
C1068 C1069 1.386 . S
C1068 C1070 1.391 . S
C1069 C1068 1.386 . S
C1069 C1073 1.393 . S
C1070 H1059 0.950 . S
C1070 C1068 1.391 . S
C1070 C1071 1.400 . S
C1071 C1065 1.491 . S
C1071 C1070 1.400 . S
C1071 C1072 1.398 . S
C1072 H1060 0.950 . S
C1072 C1071 1.398 . S
C1072 C1073 1.391 . S
C1073 H1061 0.950 . S
C1073 C1069 1.393 . S
C1073 C1072 1.391 . S
H1074 C1082 0.950 . S
H1075 C1087 0.950 . S
H1076 C1084 0.950 . S
H1077 C1086 0.950 . S
H1078 C1088 0.950 . S
H1079 C1090 0.950 . S
H1080 C1092 0.950 . S
H1081 C1093 0.950 . S
C1082 H1074 0.950 . S
C1082 C1083 1.386 . S
C1082 C1084 1.391 . S
C1083 C1082 1.386 . S
C1083 C1087 1.393 . S
C1084 H1076 0.950 . S
C1084 C1082 1.391 . S
C1084 C1085 1.400 . S
C1085 C1084 1.400 . S
C1085 C1086 1.398 . S
C1085 C1091 1.491 1_655 S
C1086 H1077 0.950 . S
C1086 C1085 1.398 . S
C1086 C1087 1.391 . S
C1087 H1075 0.950 . S
C1087 C1083 1.393 . S
C1087 C1086 1.391 . S
C1088 H1078 0.950 . S
C1088 C1089 1.386 . S
C1088 C1090 1.391 . S
C1089 C1088 1.386 . S
C1089 C1093 1.393 . S
C1090 H1079 0.950 . S
C1090 C1088 1.391 . S
C1090 C1091 1.400 . S
C1091 C1085 1.491 1_455 S
C1091 C1090 1.400 . S
C1091 C1092 1.398 . S
C1092 H1080 0.950 . S
C1092 C1091 1.398 . S
C1092 C1093 1.391 . S
C1093 H1081 0.950 . S
C1093 C1089 1.393 . S
C1093 C1092 1.391 . S
H1094 C1102 0.950 . S
H1095 C1107 0.950 . S
H1096 C1104 0.950 . S
H1097 C1106 0.950 . S
H1098 C1108 0.950 . S
H1099 C1110 0.950 . S
H1100 C1112 0.950 . S
H1101 C1113 0.950 . S
C1102 H1094 0.950 . S
C1102 C1103 1.386 . S
C1102 C1104 1.391 . S
C1103 C1102 1.386 . S
C1103 C1107 1.393 . S
C1104 H1096 0.950 . S
C1104 C1102 1.391 . S
C1104 C1105 1.400 . S
C1105 C1104 1.400 . S
C1105 C1106 1.398 . S
C1105 C1111 1.491 . S
C1106 H1097 0.950 . S
C1106 C1105 1.398 . S
C1106 C1107 1.391 . S
C1107 H1095 0.950 . S
C1107 C1103 1.393 . S
C1107 C1106 1.391 . S
C1108 H1098 0.950 . S
C1108 C1109 1.386 . S
C1108 C1110 1.391 . S
C1109 C1108 1.386 . S
C1109 C1113 1.393 . S
C1110 H1099 0.950 . S
C1110 C1108 1.391 . S
C1110 C1111 1.400 . S
C1111 C1105 1.491 . S
C1111 C1110 1.400 . S
C1111 C1112 1.398 . S
C1112 H1100 0.950 . S
C1112 C1111 1.398 . S
C1112 C1113 1.391 . S
C1113 H1101 0.950 . S
C1113 C1109 1.393 . S
C1113 C1112 1.391 . S
H1114 C1122 0.950 . S
H1115 C1127 0.950 . S
H1116 C1124 0.950 . S
H1117 C1126 0.950 . S
H1118 C1128 0.950 . S
H1119 C1130 0.950 . S
H1120 C1132 0.950 . S
H1121 C1133 0.950 . S
C1122 H1114 0.950 . S
C1122 C1123 1.386 . S
C1122 C1124 1.391 . S
C1123 C1122 1.386 . S
C1123 C1127 1.393 . S
C1124 H1116 0.950 . S
C1124 C1122 1.391 . S
C1124 C1125 1.400 . S
C1125 C1124 1.400 . S
C1125 C1126 1.398 . S
C1125 C1131 1.491 1_565 S
C1126 H1117 0.950 . S
C1126 C1125 1.398 . S
C1126 C1127 1.391 . S
C1127 H1115 0.950 . S
C1127 C1123 1.393 . S
C1127 C1126 1.391 . S
C1128 H1118 0.950 . S
C1128 C1129 1.386 . S
C1128 C1130 1.391 . S
C1129 C1128 1.386 . S
C1129 C1133 1.393 . S
C1130 H1119 0.950 . S
C1130 C1128 1.391 . S
C1130 C1131 1.400 . S
C1131 C1125 1.491 1_545 S
C1131 C1130 1.400 . S
C1131 C1132 1.398 . S
C1132 H1120 0.950 . S
C1132 C1131 1.398 . S
C1132 C1133 1.391 . S
C1133 H1121 0.950 . S
C1133 C1129 1.393 . S
C1133 C1132 1.391 . S
H1134 C1142 0.950 . S
H1135 C1147 0.950 . S
H1136 C1144 0.950 1_545 S
H1137 C1146 0.950 . S
H1138 C1148 0.950 . S
H1139 C1150 0.950 1_565 S
H1140 C1152 0.950 . S
H1141 C1153 0.950 . S
C1142 H1134 0.950 . S
C1142 C1143 1.386 . S
C1142 C1144 1.391 . S
C1143 C1142 1.386 . S
C1143 C1147 1.393 . S
C1144 H1136 0.950 1_565 S
C1144 C1142 1.391 . S
C1144 C1145 1.400 . S
C1145 C1144 1.400 . S
C1145 C1146 1.398 . S
C1145 C1151 1.491 1_565 S
C1146 H1137 0.950 . S
C1146 C1145 1.398 . S
C1146 C1147 1.391 . S
C1147 H1135 0.950 . S
C1147 C1143 1.393 . S
C1147 C1146 1.391 . S
C1148 H1138 0.950 . S
C1148 C1149 1.386 . S
C1148 C1150 1.391 . S
C1149 C1148 1.386 . S
C1149 C1153 1.393 . S
C1150 H1139 0.950 1_545 S
C1150 C1148 1.391 . S
C1150 C1151 1.400 . S
C1151 C1145 1.491 1_545 S
C1151 C1150 1.400 . S
C1151 C1152 1.398 . S
C1152 H1140 0.950 . S
C1152 C1151 1.398 . S
C1152 C1153 1.391 . S
C1153 H1141 0.950 . S
C1153 C1149 1.393 . S
C1153 C1152 1.391 . S
H1154 C1162 0.950 1_455 S
H1155 C1167 0.950 . S
H1156 C1164 0.950 . S
H1157 C1166 0.950 . S
H1158 C1168 0.950 1_655 S
H1159 C1170 0.950 . S
H1160 C1172 0.950 . S
H1161 C1173 0.950 . S
C1162 H1154 0.950 1_655 S
C1162 C1163 1.386 . S
C1162 C1164 1.391 1_655 S
C1163 C1162 1.386 . S
C1163 C1167 1.393 . S
C1164 H1156 0.950 . S
C1164 C1162 1.391 1_455 S
C1164 C1165 1.400 1_455 S
C1165 C1164 1.400 1_655 S
C1165 C1166 1.398 . S
C1165 C1171 1.491 1_655 S
C1166 H1157 0.950 . S
C1166 C1165 1.398 . S
C1166 C1167 1.391 . S
C1167 H1155 0.950 . S
C1167 C1163 1.393 . S
C1167 C1166 1.391 . S
C1168 H1158 0.950 1_455 S
C1168 C1169 1.386 . S
C1168 C1170 1.391 1_455 S
C1169 C1168 1.386 . S
C1169 C1173 1.393 . S
C1170 H1159 0.950 . S
C1170 C1168 1.391 1_655 S
C1170 C1171 1.400 1_655 S
C1171 C1165 1.491 1_455 S
C1171 C1170 1.400 1_455 S
C1171 C1172 1.398 . S
C1172 H1160 0.950 . S
C1172 C1171 1.398 . S
C1172 C1173 1.391 . S
C1173 H1161 0.950 . S
C1173 C1169 1.393 . S
C1173 C1172 1.391 . S
H1174 C1182 0.950 . S
H1175 C1187 0.950 . S
H1176 C1184 0.950 . S
H1177 C1186 0.950 . S
H1178 C1188 0.950 . S
H1179 C1190 0.950 . S
H1180 C1192 0.950 . S
H1181 C1193 0.950 . S
C1182 H1174 0.950 . S
C1182 C1183 1.386 . S
C1182 C1184 1.391 . S
C1183 C1182 1.386 . S
C1183 C1187 1.393 . S
C1184 H1176 0.950 . S
C1184 C1182 1.391 . S
C1184 C1185 1.400 . S
C1185 C1184 1.400 . S
C1185 C1186 1.398 . S
C1185 C1191 1.491 . S
C1186 H1177 0.950 . S
C1186 C1185 1.398 . S
C1186 C1187 1.391 . S
C1187 H1175 0.950 . S
C1187 C1183 1.393 . S
C1187 C1186 1.391 . S
C1188 H1178 0.950 . S
C1188 C1189 1.386 . S
C1188 C1190 1.391 . S
C1189 C1188 1.386 . S
C1189 C1193 1.393 . S
C1190 H1179 0.950 . S
C1190 C1188 1.391 . S
C1190 C1191 1.400 . S
C1191 C1185 1.491 . S
C1191 C1190 1.400 . S
C1191 C1192 1.398 . S
C1192 H1180 0.950 . S
C1192 C1191 1.398 . S
C1192 C1193 1.391 . S
C1193 H1181 0.950 . S
C1193 C1189 1.393 . S
C1193 C1192 1.391 . S
H1194 C1202 0.950 . S
H1195 C1207 0.950 . S
H1196 C1204 0.950 . S
H1197 C1206 0.950 . S
H1198 C1208 0.950 . S
H1199 C1210 0.950 . S
H1200 C1212 0.950 . S
H1201 C1213 0.950 . S
C1202 H1194 0.950 . S
C1202 C1203 1.386 . S
C1202 C1204 1.391 . S
C1203 C1202 1.386 . S
C1203 C1207 1.393 . S
C1204 H1196 0.950 . S
C1204 C1202 1.391 . S
C1204 C1205 1.400 . S
C1205 C1204 1.400 . S
C1205 C1206 1.398 . S
C1205 C1211 1.491 . S
C1206 H1197 0.950 . S
C1206 C1205 1.398 . S
C1206 C1207 1.391 . S
C1207 H1195 0.950 . S
C1207 C1203 1.393 . S
C1207 C1206 1.391 . S
C1208 H1198 0.950 . S
C1208 C1209 1.386 . S
C1208 C1210 1.391 . S
C1209 C1208 1.386 . S
C1209 C1213 1.393 . S
C1210 H1199 0.950 . S
C1210 C1208 1.391 . S
C1210 C1211 1.400 . S
C1211 C1205 1.491 . S
C1211 C1210 1.400 . S
C1211 C1212 1.398 . S
C1212 H1200 0.950 . S
C1212 C1211 1.398 . S
C1212 C1213 1.391 . S
C1213 H1201 0.950 . S
C1213 C1209 1.393 . S
C1213 C1212 1.391 . S
H1214 C1222 0.950 . S
H1215 C1227 0.950 . S
H1216 C1224 0.950 . S
H1217 C1226 0.950 . S
H1218 C1228 0.950 . S
H1219 C1230 0.950 . S
H1220 C1232 0.950 . S
H1221 C1233 0.950 . S
C1222 H1214 0.950 . S
C1222 C1223 1.386 . S
C1222 C1224 1.391 . S
C1223 C1222 1.386 . S
C1223 C1227 1.393 . S
C1224 H1216 0.950 . S
C1224 C1222 1.391 . S
C1224 C1225 1.400 . S
C1225 C1224 1.400 . S
C1225 C1226 1.398 . S
C1225 C1231 1.491 . S
C1226 H1217 0.950 . S
C1226 C1225 1.398 . S
C1226 C1227 1.391 . S
C1227 H1215 0.950 . S
C1227 C1223 1.393 . S
C1227 C1226 1.391 . S
C1228 H1218 0.950 . S
C1228 C1229 1.386 . S
C1228 C1230 1.391 . S
C1229 C1228 1.386 . S
C1229 C1233 1.393 . S
C1230 H1219 0.950 . S
C1230 C1228 1.391 . S
C1230 C1231 1.400 . S
C1231 C1225 1.491 . S
C1231 C1230 1.400 . S
C1231 C1232 1.398 . S
C1232 H1220 0.950 . S
C1232 C1231 1.398 . S
C1232 C1233 1.391 . S
C1233 H1221 0.950 . S
C1233 C1229 1.393 . S
C1233 C1232 1.391 . S
H1234 C1242 0.950 . S
H1235 C1247 0.950 . S
H1236 C1244 0.950 . S
H1237 C1246 0.950 . S
H1238 C1248 0.950 . S
H1239 C1250 0.950 . S
H1240 C1252 0.950 . S
H1241 C1253 0.950 . S
C1242 H1234 0.950 . S
C1242 C1243 1.386 . S
C1242 C1244 1.391 . S
C1243 C1242 1.386 . S
C1243 C1247 1.393 . S
C1244 H1236 0.950 . S
C1244 C1242 1.391 . S
C1244 C1245 1.400 . S
C1245 C1244 1.400 . S
C1245 C1246 1.398 . S
C1245 C1251 1.491 . S
C1246 H1237 0.950 . S
C1246 C1245 1.398 . S
C1246 C1247 1.391 . S
C1247 H1235 0.950 . S
C1247 C1243 1.393 . S
C1247 C1246 1.391 . S
C1248 H1238 0.950 . S
C1248 C1249 1.386 . S
C1248 C1250 1.391 . S
C1249 C1248 1.386 . S
C1249 C1253 1.393 . S
C1250 H1239 0.950 . S
C1250 C1248 1.391 . S
C1250 C1251 1.400 . S
C1251 C1245 1.491 . S
C1251 C1250 1.400 . S
C1251 C1252 1.398 . S
C1252 H1240 0.950 . S
C1252 C1251 1.398 . S
C1252 C1253 1.391 . S
C1253 H1241 0.950 . S
C1253 C1249 1.393 . S
C1253 C1252 1.391 . S
H1254 C1262 0.950 . S
H1255 C1267 0.950 . S
H1256 C1264 0.950 . S
H1257 C1266 0.950 . S
H1258 C1268 0.950 . S
H1259 C1270 0.950 . S
H1260 C1272 0.950 . S
H1261 C1273 0.950 . S
C1262 H1254 0.950 . S
C1262 C1263 1.386 . S
C1262 C1264 1.391 . S
C1263 C1262 1.386 . S
C1263 C1267 1.393 . S
C1264 H1256 0.950 . S
C1264 C1262 1.391 . S
C1264 C1265 1.400 . S
C1265 C1264 1.400 . S
C1265 C1266 1.398 . S
C1265 C1271 1.491 . S
C1266 H1257 0.950 . S
C1266 C1265 1.398 . S
C1266 C1267 1.391 . S
C1267 H1255 0.950 . S
C1267 C1263 1.393 . S
C1267 C1266 1.391 . S
C1268 H1258 0.950 . S
C1268 C1269 1.386 . S
C1268 C1270 1.391 . S
C1269 C1268 1.386 . S
C1269 C1273 1.393 . S
C1270 H1259 0.950 . S
C1270 C1268 1.391 . S
C1270 C1271 1.400 . S
C1271 C1265 1.491 . S
C1271 C1270 1.400 . S
C1271 C1272 1.398 . S
C1272 H1260 0.950 . S
C1272 C1271 1.398 . S
C1272 C1273 1.391 . S
C1273 H1261 0.950 . S
C1273 C1269 1.393 . S
C1273 C1272 1.391 . S
H1274 C1282 0.950 . S
H1275 C1287 0.950 . S
H1276 C1284 0.950 . S
H1277 C1286 0.950 . S
H1278 C1288 0.950 . S
H1279 C1290 0.950 . S
H1280 C1292 0.950 . S
H1281 C1293 0.950 . S
C1282 H1274 0.950 . S
C1282 C1283 1.386 . S
C1282 C1284 1.391 . S
C1283 C1282 1.386 . S
C1283 C1287 1.393 . S
C1284 H1276 0.950 . S
C1284 C1282 1.391 . S
C1284 C1285 1.400 . S
C1285 C1284 1.400 . S
C1285 C1286 1.398 . S
C1285 C1291 1.491 . S
C1286 H1277 0.950 . S
C1286 C1285 1.398 . S
C1286 C1287 1.391 . S
C1287 H1275 0.950 . S
C1287 C1283 1.393 . S
C1287 C1286 1.391 . S
C1288 H1278 0.950 . S
C1288 C1289 1.386 . S
C1288 C1290 1.391 . S
C1289 C1288 1.386 . S
C1289 C1293 1.393 . S
C1290 H1279 0.950 . S
C1290 C1288 1.391 . S
C1290 C1291 1.400 . S
C1291 C1285 1.491 . S
C1291 C1290 1.400 . S
C1291 C1292 1.398 . S
C1292 H1280 0.950 . S
C1292 C1291 1.398 . S
C1292 C1293 1.391 . S
C1293 H1281 0.950 . S
C1293 C1289 1.393 . S
C1293 C1292 1.391 . S
H1294 C1302 0.950 . S
H1295 C1307 0.950 . S
H1296 C1304 0.950 . S
H1297 C1306 0.950 . S
H1298 C1308 0.950 . S
H1299 C1310 0.950 . S
H1300 C1312 0.950 . S
H1301 C1313 0.950 . S
C1302 H1294 0.950 . S
C1302 C1303 1.386 . S
C1302 C1304 1.391 . S
C1303 C1302 1.386 . S
C1303 C1307 1.393 . S
C1304 H1296 0.950 . S
C1304 C1302 1.391 . S
C1304 C1305 1.400 . S
C1305 C1304 1.400 . S
C1305 C1306 1.398 . S
C1305 C1311 1.491 . S
C1306 H1297 0.950 . S
C1306 C1305 1.398 . S
C1306 C1307 1.391 . S
C1307 H1295 0.950 . S
C1307 C1303 1.393 . S
C1307 C1306 1.391 . S
C1308 H1298 0.950 . S
C1308 C1309 1.386 . S
C1308 C1310 1.391 . S
C1309 C1308 1.386 . S
C1309 C1313 1.393 . S
C1310 H1299 0.950 . S
C1310 C1308 1.391 . S
C1310 C1311 1.400 . S
C1311 C1305 1.491 . S
C1311 C1310 1.400 . S
C1311 C1312 1.398 . S
C1312 H1300 0.950 . S
C1312 C1311 1.398 . S
C1312 C1313 1.391 . S
C1313 H1301 0.950 . S
C1313 C1309 1.393 . S
C1313 C1312 1.391 . S
H1314 C1322 0.950 . S
H1315 C1327 0.950 1_545 S
H1316 C1324 0.950 . S
H1317 C1326 0.950 . S
H1318 C1328 0.950 . S
H1319 C1330 0.950 . S
H1320 C1332 0.950 . S
H1321 C1333 0.950 1_565 S
C1322 H1314 0.950 . S
C1322 C1323 1.386 . S
C1322 C1324 1.391 . S
C1323 C1322 1.386 . S
C1323 C1327 1.407 . S
C1324 H1316 0.950 . S
C1324 C1322 1.391 . S
C1324 C1325 1.400 . S
C1325 C1324 1.400 . S
C1325 C1326 1.398 1_565 S
C1325 C1331 1.491 1_564 S
C1326 H1317 0.950 . S
C1326 C1325 1.398 1_545 S
C1326 C1327 1.379 1_545 S
C1327 H1315 0.950 1_565 S
C1327 C1323 1.407 . S
C1327 C1326 1.379 1_565 S
C1328 H1318 0.950 . S
C1328 C1329 1.386 . S
C1328 C1330 1.391 . S
C1329 C1328 1.386 . S
C1329 C1333 1.393 . S
C1330 H1319 0.950 . S
C1330 C1328 1.391 . S
C1330 C1331 1.400 . S
C1331 C1325 1.491 1_546 S
C1331 C1330 1.400 . S
C1331 C1332 1.398 1_545 S
C1332 H1320 0.950 . S
C1332 C1331 1.398 1_565 S
C1332 C1333 1.391 1_565 S
C1333 H1321 0.950 1_545 S
C1333 C1329 1.393 . S
C1333 C1332 1.391 1_545 S
H1334 C1342 0.950 . S
H1335 C1347 0.950 . S
H1336 C1344 0.950 . S
H1337 C1346 0.950 . S
H1338 C1348 0.950 . S
H1339 C1350 0.950 . S
H1340 C1352 0.950 . S
H1341 C1353 0.950 . S
C1342 H1334 0.950 . S
C1342 C1343 1.386 . S
C1342 C1344 1.391 . S
C1343 C1342 1.386 . S
C1343 C1347 1.393 1_455 S
C1344 H1336 0.950 . S
C1344 C1342 1.391 . S
C1344 C1345 1.400 . S
C1345 C1344 1.400 . S
C1345 C1346 1.398 1_455 S
C1345 C1351 1.491 1_454 S
C1346 H1337 0.950 . S
C1346 C1345 1.398 1_655 S
C1346 C1347 1.391 . S
C1347 H1335 0.950 . S
C1347 C1343 1.393 1_655 S
C1347 C1346 1.391 . S
C1348 H1338 0.950 . S
C1348 C1349 1.386 . S
C1348 C1350 1.391 . S
C1349 C1348 1.386 . S
C1349 C1353 1.393 1_655 S
C1350 H1339 0.950 . S
C1350 C1348 1.391 . S
C1350 C1351 1.400 . S
C1351 C1345 1.491 1_656 S
C1351 C1350 1.400 . S
C1351 C1352 1.398 1_655 S
C1352 H1340 0.950 . S
C1352 C1351 1.398 1_455 S
C1352 C1353 1.391 . S
C1353 H1341 0.950 . S
C1353 C1349 1.393 1_455 S
C1353 C1352 1.391 . S
H1354 C1362 0.950 . S
H1355 C1367 0.950 . S
H1356 C1364 0.950 . S
H1357 C1366 0.950 . S
H1358 C1368 0.950 . S
H1359 C1370 0.950 . S
H1360 C1372 0.950 . S
H1361 C1373 0.950 . S
C1362 H1354 0.950 . S
C1362 C1363 1.386 . S
C1362 C1364 1.391 . S
C1363 C1362 1.386 . S
C1363 C1367 1.393 . S
C1364 H1356 0.950 . S
C1364 C1362 1.391 . S
C1364 C1365 1.400 . S
C1365 C1364 1.400 . S
C1365 C1366 1.398 . S
C1365 C1371 1.491 1_556 S
C1366 H1357 0.950 . S
C1366 C1365 1.398 . S
C1366 C1367 1.391 . S
C1367 H1355 0.950 . S
C1367 C1363 1.393 . S
C1367 C1366 1.391 . S
C1368 H1358 0.950 . S
C1368 C1369 1.386 . S
C1368 C1370 1.391 . S
C1369 C1368 1.386 . S
C1369 C1373 1.393 . S
C1370 H1359 0.950 . S
C1370 C1368 1.391 . S
C1370 C1371 1.400 . S
C1371 C1365 1.491 1_554 S
C1371 C1370 1.400 . S
C1371 C1372 1.398 . S
C1372 H1360 0.950 . S
C1372 C1371 1.398 . S
C1372 C1373 1.391 . S
C1373 H1361 0.950 . S
C1373 C1369 1.393 . S
C1373 C1372 1.391 . S
H1374 C1382 0.950 . S
H1375 C1387 0.950 . S
H1376 C1384 0.950 . S
H1377 C1386 0.950 . S
H1378 C1388 0.950 . S
H1379 C1390 0.950 . S
H1380 C1392 0.950 . S
H1381 C1393 0.950 . S
C1382 H1374 0.950 . S
C1382 C1383 1.386 . S
C1382 C1384 1.391 . S
C1383 C1382 1.386 . S
C1383 C1387 1.393 . S
C1384 H1376 0.950 . S
C1384 C1382 1.391 . S
C1384 C1385 1.400 . S
C1385 C1384 1.400 . S
C1385 C1386 1.398 . S
C1385 C1391 1.491 . S
C1386 H1377 0.950 . S
C1386 C1385 1.398 . S
C1386 C1387 1.391 . S
C1387 H1375 0.950 . S
C1387 C1383 1.393 . S
C1387 C1386 1.391 . S
C1388 H1378 0.950 . S
C1388 C1389 1.386 . S
C1388 C1390 1.391 . S
C1389 C1388 1.386 . S
C1389 C1393 1.393 . S
C1390 H1379 0.950 . S
C1390 C1388 1.391 . S
C1390 C1391 1.400 . S
C1391 C1385 1.491 . S
C1391 C1390 1.400 . S
C1391 C1392 1.398 . S
C1392 H1380 0.950 . S
C1392 C1391 1.398 . S
C1392 C1393 1.391 . S
C1393 H1381 0.950 . S
C1393 C1389 1.393 . S
C1393 C1392 1.391 . S
H1394 C1402 0.950 . S
H1395 C1407 0.950 . S
H1396 C1404 0.950 . S
H1397 C1406 0.950 . S
H1398 C1408 0.950 . S
H1399 C1410 0.950 . S
H1400 C1412 0.950 . S
H1401 C1413 0.950 . S
C1402 H1394 0.950 . S
C1402 C1403 1.386 . S
C1402 C1404 1.391 . S
C1403 C1402 1.386 . S
C1403 C1407 1.393 . S
C1404 H1396 0.950 . S
C1404 C1402 1.391 . S
C1404 C1405 1.400 . S
C1405 C1404 1.400 . S
C1405 C1406 1.398 . S
C1405 C1411 1.491 . S
C1406 H1397 0.950 . S
C1406 C1405 1.398 . S
C1406 C1407 1.391 . S
C1407 H1395 0.950 . S
C1407 C1403 1.393 . S
C1407 C1406 1.391 . S
C1408 H1398 0.950 . S
C1408 C1409 1.386 . S
C1408 C1410 1.391 . S
C1409 C1408 1.386 . S
C1409 C1413 1.393 . S
C1410 H1399 0.950 . S
C1410 C1408 1.391 . S
C1410 C1411 1.400 . S
C1411 C1405 1.491 . S
C1411 C1410 1.400 . S
C1411 C1412 1.398 . S
C1412 H1400 0.950 . S
C1412 C1411 1.398 . S
C1412 C1413 1.391 . S
C1413 H1401 0.950 . S
C1413 C1409 1.393 . S
C1413 C1412 1.391 . S
H1414 C1422 0.950 . S
H1415 C1427 0.950 . S
H1416 C1424 0.950 . S
H1417 C1426 0.950 . S
H1418 C1428 0.950 . S
H1419 C1430 0.950 . S
H1420 C1432 0.950 . S
H1421 C1433 0.950 . S
C1422 H1414 0.950 . S
C1422 C1423 1.386 . S
C1422 C1424 1.391 . S
C1423 C1422 1.386 . S
C1423 C1427 1.393 . S
C1424 H1416 0.950 . S
C1424 C1422 1.391 . S
C1424 C1425 1.400 . S
C1425 C1424 1.400 . S
C1425 C1426 1.398 . S
C1425 C1431 1.491 . S
C1426 H1417 0.950 . S
C1426 C1425 1.398 . S
C1426 C1427 1.391 . S
C1427 H1415 0.950 . S
C1427 C1423 1.393 . S
C1427 C1426 1.391 . S
C1428 H1418 0.950 . S
C1428 C1429 1.386 . S
C1428 C1430 1.391 . S
C1429 C1428 1.386 . S
C1429 C1433 1.393 . S
C1430 H1419 0.950 . S
C1430 C1428 1.391 . S
C1430 C1431 1.400 . S
C1431 C1425 1.491 . S
C1431 C1430 1.400 . S
C1431 C1432 1.398 . S
C1432 H1420 0.950 . S
C1432 C1431 1.398 . S
C1432 C1433 1.391 . S
C1433 H1421 0.950 . S
C1433 C1429 1.393 . S
C1433 C1432 1.391 . S
H1434 C1442 0.950 . S
H1435 C1447 0.950 . S
H1436 C1444 0.950 . S
H1437 C1446 0.950 . S
H1438 C1448 0.950 . S
H1439 C1450 0.950 . S
H1440 C1452 0.950 . S
H1441 C1453 0.950 . S
C1442 H1434 0.950 . S
C1442 C1443 1.386 . S
C1442 C1444 1.391 . S
C1443 C1442 1.386 . S
C1443 C1447 1.393 . S
C1444 H1436 0.950 . S
C1444 C1442 1.391 . S
C1444 C1445 1.400 . S
C1445 C1444 1.400 . S
C1445 C1446 1.398 . S
C1445 C1451 1.491 . S
C1446 H1437 0.950 . S
C1446 C1445 1.398 . S
C1446 C1447 1.391 . S
C1447 H1435 0.950 . S
C1447 C1443 1.393 . S
C1447 C1446 1.391 . S
C1448 H1438 0.950 . S
C1448 C1449 1.386 . S
C1448 C1450 1.391 . S
C1449 C1448 1.386 . S
C1449 C1453 1.393 . S
C1450 H1439 0.950 . S
C1450 C1448 1.391 . S
C1450 C1451 1.400 . S
C1451 C1445 1.491 . S
C1451 C1450 1.400 . S
C1451 C1452 1.398 . S
C1452 H1440 0.950 . S
C1452 C1451 1.398 . S
C1452 C1453 1.391 . S
C1453 H1441 0.950 . S
C1453 C1449 1.393 . S
C1453 C1452 1.391 . S
H1454 C1462 0.950 . S
H1455 C1467 0.950 . S
H1456 C1464 0.950 . S
H1457 C1466 0.950 . S
H1458 C1468 0.950 . S
H1459 C1470 0.950 . S
H1460 C1472 0.950 . S
H1461 C1473 0.950 . S
C1462 H1454 0.950 . S
C1462 C1463 1.386 . S
C1462 C1464 1.391 . S
C1463 C1462 1.386 . S
C1463 C1467 1.393 . S
C1464 H1456 0.950 . S
C1464 C1462 1.391 . S
C1464 C1465 1.400 . S
C1465 C1464 1.400 . S
C1465 C1466 1.398 . S
C1465 C1471 1.491 . S
C1466 H1457 0.950 . S
C1466 C1465 1.398 . S
C1466 C1467 1.391 . S
C1467 H1455 0.950 . S
C1467 C1463 1.393 . S
C1467 C1466 1.391 . S
C1468 H1458 0.950 . S
C1468 C1469 1.386 . S
C1468 C1470 1.391 . S
C1469 C1468 1.386 . S
C1469 C1473 1.393 . S
C1470 H1459 0.950 . S
C1470 C1468 1.391 . S
C1470 C1471 1.400 . S
C1471 C1465 1.491 . S
C1471 C1470 1.400 . S
C1471 C1472 1.398 . S
C1472 H1460 0.950 . S
C1472 C1471 1.398 . S
C1472 C1473 1.391 . S
C1473 H1461 0.950 . S
C1473 C1469 1.393 . S
C1473 C1472 1.391 . S
H1474 C1482 0.950 . S
H1475 C1487 0.950 . S
H1476 C1484 0.950 . S
H1477 C1486 0.950 . S
H1478 C1488 0.950 . S
H1479 C1490 0.950 . S
H1480 C1492 0.950 . S
H1481 C1493 0.950 . S
C1482 H1474 0.950 . S
C1482 C1483 1.386 . S
C1482 C1484 1.391 . S
C1483 C1482 1.386 . S
C1483 C1487 1.393 . S
C1484 H1476 0.950 . S
C1484 C1482 1.391 . S
C1484 C1485 1.400 . S
C1485 C1484 1.400 . S
C1485 C1486 1.398 . S
C1485 C1491 1.491 . S
C1486 H1477 0.950 . S
C1486 C1485 1.398 . S
C1486 C1487 1.391 . S
C1487 H1475 0.950 . S
C1487 C1483 1.393 . S
C1487 C1486 1.391 . S
C1488 H1478 0.950 . S
C1488 C1489 1.386 . S
C1488 C1490 1.391 . S
C1489 C1488 1.386 . S
C1489 C1493 1.393 . S
C1490 H1479 0.950 . S
C1490 C1488 1.391 . S
C1490 C1491 1.400 . S
C1491 C1485 1.491 . S
C1491 C1490 1.400 . S
C1491 C1492 1.398 . S
C1492 H1480 0.950 . S
C1492 C1491 1.398 . S
C1492 C1493 1.391 . S
C1493 H1481 0.950 . S
C1493 C1489 1.393 . S
C1493 C1492 1.391 . S
C603 C8 1.195 . S
C609 N47 1.186 . S
C623 N80 1.193 . S
C629 C41 1.200 . S
C643 C74 1.198 . S
C649 N14 1.193 . S
C663 N179 1.200 . S
C669 C107 1.205 . S
C683 N113 1.198 . S
C689 C140 1.202 . S
C703 C173 1.194 . S
C709 N146 1.188 . S
C723 N245 1.183 . S
C729 C206 1.192 . S
C743 C239 1.192 . S
C749 N278 1.183 . S
C763 C272 1.191 . S
C769 N212 1.182 . S
C783 N377 1.183 . S
C789 C305 1.190 . S
C803 N311 1.181 . S
C809 C338 1.190 . S
C823 C371 1.205 . S
C829 N344 1.201 . S
C843 N443 1.197 . S
C849 C404 1.203 . S
C863 C437 1.190 . S
C869 N476 1.181 . S
C883 C470 1.200 . S
C889 N410 1.196 . S
C903 N575 1.200 . S
C909 C503 1.204 . S
C923 N509 1.184 . S
C929 C536 1.191 . S
C943 C569 1.199 . S
C949 N542 1.191 . S
C963 N335 1.371 . S
C969 N5 1.357 . S
C983 N368 1.357 . S
C989 N38 1.370 . S
C1003 N302 1.369 . S
C1009 N71 1.365 . S
C1023 N104 1.361 . S
C1029 N467 1.361 . S
C1043 N401 1.357 . S
C1049 N137 1.370 . S
C1063 N434 1.358 . S
C1069 N170 1.371 . S
C1083 N203 1.371 . S
C1089 N533 1.358 . S
C1103 N566 1.367 . S
C1109 N236 1.358 . S
C1123 N500 1.364 . S
C1129 N269 1.359 . S
C1143 C17 1.693 . S
C1149 C182 1.696 . S
C1163 C116 1.668 . S
C1169 C50 1.677 . S
C1183 C149 1.692 . S
C1189 C83 1.696 . S
C1203 C380 1.668 . S
C1209 C215 1.677 . S
C1223 C314 1.689 . S
C1229 C248 1.678 . S
C1243 C281 1.689 . S
C1249 C347 1.677 . S
C1263 C578 1.686 . S
C1269 C413 1.695 . S
C1283 C446 1.681 . S
C1289 C512 1.692 . S
C1303 C545 1.691 . S
C1309 C479 1.680 . S
C1323 C28 1.098 . S
C1329 C193 1.116 . S
C1343 C61 1.099 . S
C1349 C127 1.124 . S
C1363 C160 1.139 . S
C1369 C94 1.108 . S
C1383 C391 1.118 . S
C1389 C226 1.098 . S
C1403 C325 1.111 . S
C1409 C259 1.141 . S
C1423 C358 1.141 . S
C1429 C292 1.143 . S
C1443 C424 1.098 . S
C1449 C589 1.118 . S
C1463 C457 1.136 . S
C1469 C523 1.106 . S
C1483 C556 1.123 . S
C1489 C490 1.147 . S
