# Generated by pormake.
# Topology acs-a, (4)-cn, num edge types: 1
# Building blocks:
#     Node 0, Type 0, BuildingBlock: ICAMEG_clean_sbu_1, # of connection points: 4
#     Node 1, Type 0, BuildingBlock: ICAMEG_clean_sbu_1, # of connection points: 4
#     Node 2, Type 0, BuildingBlock: ICAMEG_clean_sbu_1, # of connection points: 4
#     Node 3, Type 0, BuildingBlock: ICAMEG_clean_sbu_1, # of connection points: 4
#     Node 4, Type 0, BuildingBlock: ICAMEG_clean_sbu_1, # of connection points: 4
#     Node 5, Type 0, BuildingBlock: ICAMEG_clean_sbu_1, # of connection points: 4
#     Node 6, Type 0, BuildingBlock: ICAMEG_clean_sbu_1, # of connection points: 4
#     Node 7, Type 0, BuildingBlock: ICAMEG_clean_sbu_1, # of connection points: 4
#     Node 8, Type 0, BuildingBlock: ICAMEG_clean_sbu_1, # of connection points: 4
#     Node 9, Type 0, BuildingBlock: ICAMEG_clean_sbu_1, # of connection points: 4
#     Node 10, Type 0, BuildingBlock: ICAMEG_clean_sbu_1, # of connection points: 4
#     Node 11, Type 0, BuildingBlock: ICAMEG_clean_sbu_1, # of connection points: 4
#     Edge 12, Type (0, 0), BuildingBlock: ZUJKAS_clean_linker_0, # of connection points: 2
#     Edge 13, Type (0, 0), BuildingBlock: ZUJKAS_clean_linker_0, # of connection points: 2
#     Edge 14, Type (0, 0), BuildingBlock: ZUJKAS_clean_linker_0, # of connection points: 2
#     Edge 15, Type (0, 0), BuildingBlock: ZUJKAS_clean_linker_0, # of connection points: 2
#     Edge 16, Type (0, 0), BuildingBlock: ZUJKAS_clean_linker_0, # of connection points: 2
#     Edge 17, Type (0, 0), BuildingBlock: ZUJKAS_clean_linker_0, # of connection points: 2
#     Edge 18, Type (0, 0), BuildingBlock: ZUJKAS_clean_linker_0, # of connection points: 2
#     Edge 19, Type (0, 0), BuildingBlock: ZUJKAS_clean_linker_0, # of connection points: 2
#     Edge 20, Type (0, 0), BuildingBlock: ZUJKAS_clean_linker_0, # of connection points: 2
#     Edge 21, Type (0, 0), BuildingBlock: ZUJKAS_clean_linker_0, # of connection points: 2
#     Edge 22, Type (0, 0), BuildingBlock: ZUJKAS_clean_linker_0, # of connection points: 2
#     Edge 23, Type (0, 0), BuildingBlock: ZUJKAS_clean_linker_0, # of connection points: 2
#     Edge 24, Type (0, 0), BuildingBlock: ZUJKAS_clean_linker_0, # of connection points: 2
#     Edge 25, Type (0, 0), BuildingBlock: ZUJKAS_clean_linker_0, # of connection points: 2
#     Edge 26, Type (0, 0), BuildingBlock: ZUJKAS_clean_linker_0, # of connection points: 2
#     Edge 27, Type (0, 0), BuildingBlock: ZUJKAS_clean_linker_0, # of connection points: 2
#     Edge 28, Type (0, 0), BuildingBlock: ZUJKAS_clean_linker_0, # of connection points: 2
#     Edge 29, Type (0, 0), BuildingBlock: ZUJKAS_clean_linker_0, # of connection points: 2
#     Edge 30, Type (0, 0), BuildingBlock: ZUJKAS_clean_linker_0, # of connection points: 2
#     Edge 31, Type (0, 0), BuildingBlock: ZUJKAS_clean_linker_0, # of connection points: 2
#     Edge 32, Type (0, 0), BuildingBlock: ZUJKAS_clean_linker_0, # of connection points: 2
#     Edge 33, Type (0, 0), BuildingBlock: ZUJKAS_clean_linker_0, # of connection points: 2
#     Edge 34, Type (0, 0), BuildingBlock: ZUJKAS_clean_linker_0, # of connection points: 2
#     Edge 35, Type (0, 0), BuildingBlock: ZUJKAS_clean_linker_0, # of connection points: 2
# Relax obj value: 0.498
# Max RMSD: 0.314
# Mean RMSD: 0.245
data_MOF--net-acs-a--node1-ICAMEG_clean_sbu_1--edge1-ZUJKAS_clean_linker_0
_symmetry_space_group_name_H-M    P1
_symmetry_Int_Tables_number       1
_symmetry_cell_setting            triclinic
loop_
_symmetry_equiv_pos_as_xyz
'x, y, z'
_cell_length_a     69.640284
_cell_length_b     57.885291
_cell_length_c     56.221934
_cell_angle_alpha  89.988335
_cell_angle_beta   89.991533
_cell_angle_gamma 114.54956
loop_
_atom_site_label
_atom_site_type_symbol
_atom_site_fract_x
_atom_site_fract_y
_atom_site_fract_z
_atom_type_partial_charge
Co0 Co 0.59644 0.1617 0.10638 0.0
Co1 Co 0.58865 0.14807 0.04625 0.0
O2 O 0.58361 0.13875 0.07983 0.0
C3 C 0.61668 0.13485 0.13432 0.0
O4 O 0.63476 0.15423 0.13011 0.0
C5 C 0.54228 0.13061 0.05117 0.0
O6 O 0.54572 0.1462 0.06923 0.0
O7 O 0.58532 0.18047 0.05139 0.0
O8 O 0.59259 0.18983 0.09006 0.0
H9 H 0.62244 0.20622 0.97742 0.0
H10 H 0.56079 0.11159 0.11422 0.0
O11 O 0.60007 0.13344 0.12366 0.0
H12 H 0.53604 0.17438 0.14461 0.0
H13 H 0.60832 0.18569 0.19319 0.0
H14 H 0.62779 0.2151 0.11072 0.0
H15 H 0.57198 0.18816 0.12834 0.0
H16 H 0.59193 0.15708 0.15944 0.0
O17 O 0.55772 0.12954 0.03982 0.0
H18 H 0.616 0.19444 0.01978 0.0
H19 H 0.57132 0.12057 0.00088 0.0
H20 H 0.64453 0.24435 0.14396 0.0
H21 H 0.52482 0.09691 0.13062 0.0
H22 H 0.63485 0.22965 0.18556 0.0
H23 H 0.51219 0.12842 0.14587 0.0
O24 O 0.62512 0.17322 0.09154 0.0
H25 H 0.5686 0.05438 0.05423 0.0
H26 H 0.62022 0.1349 0.02054 0.0
H27 H 0.62505 0.09551 0.01409 0.0
H28 H 0.59907 0.05484 0.03093 0.0
H29 H 0.56453 0.09429 0.06047 0.0
H30 H 0.57713 0.13163 0.95831 0.0
H31 H 0.60293 0.17469 0.94635 0.0
O32 O 0.61951 0.16627 0.0522 0.0
C33 C 0.58811 0.19501 0.06936 0.0
C34 C 0.6112 0.18738 0.98241 0.0
C35 C 0.58574 0.14552 0.97169 0.0
N36 N 0.59338 0.15681 0.0128 0.0
C37 C 0.60752 0.18058 0.00637 0.0
C38 C 0.58246 0.1394 0.99582 0.0
C39 C 0.60023 0.16968 0.96499 0.0
C40 C 0.55548 0.12542 0.12098 0.0
N41 N 0.56849 0.15075 0.12026 0.0
C42 C 0.53506 0.11699 0.13018 0.0
C43 C 0.52797 0.13468 0.13871 0.0
C44 C 0.54134 0.16047 0.13797 0.0
C45 C 0.56164 0.16819 0.12861 0.0
C46 C 0.61272 0.19228 0.17515 0.0
C47 C 0.62352 0.20855 0.12876 0.0
C48 C 0.60352 0.17616 0.15595 0.0
N49 N 0.60902 0.18434 0.13309 0.0
C50 C 0.63303 0.2252 0.14752 0.0
C51 C 0.62759 0.21695 0.17085 0.0
C52 C 0.63169 0.17453 0.07012 0.0
C53 C 0.58003 0.07198 0.0468 0.0
C54 C 0.60898 0.11734 0.02812 0.0
C55 C 0.61173 0.09506 0.02431 0.0
C56 C 0.59713 0.07225 0.03374 0.0
N57 N 0.59214 0.11692 0.04091 0.0
C58 C 0.57778 0.09463 0.05024 0.0
Co59 Co 0.35175 0.49526 0.60266 0.0
Co60 Co 0.38149 0.5015 0.55274 0.0
O61 O 0.37073 0.48575 0.58356 0.0
C62 C 0.38451 0.4981 0.63803 0.0
O63 O 0.39922 0.51243 0.62322 0.0
C64 C 0.37514 0.45715 0.5222 0.0
O65 O 0.36408 0.46474 0.50775 0.0
O66 O 0.35197 0.49135 0.5409 0.0
O67 O 0.33761 0.50014 0.5736 0.0
H68 H 0.38429 0.55382 0.48034 0.0
H69 H 0.35533 0.44688 0.61251 0.0
O70 O 0.36511 0.49007 0.63241 0.0
H71 H 0.28012 0.42258 0.59444 0.0
H72 H 0.30387 0.48798 0.67214 0.0
H73 H 0.33547 0.53501 0.5987 0.0
H74 H 0.30541 0.46758 0.59419 0.0
H75 H 0.32792 0.47614 0.6479 0.0
O76 O 0.38161 0.46855 0.54196 0.0
H77 H 0.37105 0.5343 0.51938 0.0
H78 H 0.41535 0.50139 0.51998 0.0
H79 H 0.31126 0.54721 0.6222 0.0
H80 H 0.3305 0.40162 0.61323 0.0
H81 H 0.29528 0.52363 0.65922 0.0
H82 H 0.2926 0.38924 0.6041 0.0
O83 O 0.37211 0.53172 0.60145 0.0
H84 H 0.43963 0.48796 0.59495 0.0
H85 H 0.4204 0.55016 0.55303 0.0
H86 H 0.45636 0.56368 0.56912 0.0
H87 H 0.46621 0.53245 0.59017 0.0
H88 H 0.40375 0.47532 0.57888 0.0
H89 H 0.429 0.52043 0.48089 0.0
H90 H 0.41347 0.5469 0.4608 0.0
O91 O 0.38195 0.53469 0.56319 0.0
C92 C 0.33739 0.49533 0.55149 0.0
C93 C 0.39119 0.54232 0.4889 0.0
C94 C 0.41629 0.5236 0.48921 0.0
N95 N 0.39237 0.51669 0.52197 0.0
C96 C 0.38375 0.53121 0.51102 0.0
C97 C 0.40848 0.51285 0.51135 0.0
C98 C 0.40756 0.53844 0.47796 0.0
C99 C 0.33883 0.44163 0.60868 0.0
N100 N 0.33182 0.45985 0.60343 0.0
C101 C 0.32486 0.41598 0.60905 0.0
C102 C 0.3036 0.40904 0.6039 0.0
C103 C 0.29658 0.42774 0.59847 0.0
C104 C 0.311 0.45319 0.5983 0.0
C105 C 0.31074 0.4984 0.65604 0.0
C106 C 0.32853 0.52458 0.61474 0.0
C107 C 0.32444 0.49186 0.6423 0.0
N108 N 0.33304 0.50481 0.62185 0.0
C109 C 0.31486 0.53163 0.628 0.0
C110 C 0.30591 0.51839 0.64877 0.0
C111 C 0.38035 0.54474 0.58285 0.0
C112 C 0.43556 0.50171 0.58571 0.0
C113 C 0.42451 0.53646 0.56226 0.0
C114 C 0.44493 0.54422 0.57128 0.0
C115 C 0.45045 0.52669 0.58307 0.0
N116 N 0.41 0.51189 0.56483 0.0
C117 C 0.41529 0.49463 0.57646 0.0
Co118 Co 0.86359 0.41855 0.02921 0.0
Co119 Co 0.83871 0.39277 0.08127 0.0
O120 O 0.86455 0.40946 0.0626 0.0
C121 C 0.89325 0.39321 0.02817 0.0
O122 O 0.88009 0.37469 0.04137 0.0
C123 C 0.86291 0.43371 0.11615 0.0
O124 O 0.86366 0.45125 0.10089 0.0
O125 O 0.83018 0.42089 0.07404 0.0
O126 O 0.83863 0.42654 0.03531 0.0
H127 H 0.76084 0.36069 0.09704 0.0
H128 H 0.90302 0.44271 0.0571 0.0
O129 O 0.88881 0.41159 0.02203 0.0
H130 H 0.8871 0.5135 0.02886 0.0
H131 H 0.89531 0.45888 0.95099 0.0
H132 H 0.8294 0.40792 0.99385 0.0
H133 H 0.86403 0.46931 0.01812 0.0
H134 H 0.89618 0.44793 0.99325 0.0
O135 O 0.8541 0.41033 0.11057 0.0
H136 H 0.79346 0.38125 0.07354 0.0
H137 H 0.82927 0.36954 0.12969 0.0
H138 H 0.82779 0.41868 0.95166 0.0
H139 H 0.92666 0.48666 0.0681 0.0
H140 H 0.86092 0.44433 0.92994 0.0
H141 H 0.91872 0.52242 0.05399 0.0
O142 O 0.8444 0.38255 0.02152 0.0
H143 H 0.889 0.35479 0.10496 0.0
H144 H 0.81654 0.33625 0.07862 0.0
H145 H 0.82683 0.30091 0.08559 0.0
H146 H 0.86329 0.31007 0.09895 0.0
H147 H 0.87812 0.38962 0.09743 0.0
H148 H 0.79704 0.34905 0.15387 0.0
H149 H 0.76249 0.34441 0.13752 0.0
O150 O 0.82265 0.37424 0.05291 0.0
C151 C 0.82886 0.42951 0.05347 0.0
C152 C 0.77579 0.36256 0.10435 0.0
C153 C 0.79612 0.35606 0.13625 0.0
N154 N 0.81327 0.37654 0.10018 0.0
C155 C 0.79433 0.37415 0.09111 0.0
C156 C 0.81433 0.36776 0.1225 0.0
C157 C 0.77674 0.35344 0.12706 0.0
C158 C 0.89952 0.45818 0.05079 0.0
N159 N 0.88215 0.45343 0.03697 0.0
C160 C 0.91294 0.48302 0.05712 0.0
C161 C 0.90847 0.50307 0.04922 0.0
C162 C 0.89072 0.49808 0.03514 0.0
C163 C 0.87765 0.473 0.02918 0.0
C164 C 0.88077 0.4477 0.96026 0.0
C165 C 0.84388 0.41917 0.98455 0.0
C166 C 0.88116 0.44135 0.98417 0.0
N167 N 0.86285 0.42736 0.99603 0.0
C168 C 0.84287 0.42516 0.96065 0.0
C169 C 0.86147 0.43954 0.94847 0.0
C170 C 0.82719 0.36921 0.03221 0.0
C171 C 0.87306 0.35055 0.09922 0.0
C172 C 0.83247 0.34043 0.08431 0.0
C173 C 0.83818 0.32031 0.0883 0.0
C174 C 0.85863 0.32547 0.0958 0.0
N175 N 0.84671 0.365 0.08766 0.0
C176 C 0.86678 0.37019 0.09503 0.0
Co177 Co 0.39126 0.82641 0.60278 0.0
Co178 Co 0.40837 0.84896 0.54732 0.0
O179 O 0.40983 0.85377 0.58195 0.0
C180 C 0.3977 0.87552 0.62811 0.0
O181 O 0.40879 0.88977 0.61055 0.0
C182 C 0.4546 0.87177 0.55701 0.0
O183 O 0.4513 0.85597 0.57488 0.0
O184 O 0.41507 0.81895 0.55138 0.0
O185 O 0.39178 0.79983 0.58033 0.0
H186 H 0.38652 0.79759 0.4722 0.0
H187 H 0.43192 0.86595 0.62137 0.0
O188 O 0.38976 0.85138 0.62663 0.0
H189 H 0.43507 0.78393 0.63727 0.0
H190 H 0.36361 0.78341 0.6813 0.0
H191 H 0.35397 0.7778 0.59428 0.0
H192 H 0.40393 0.78538 0.61784 0.0
H193 H 0.38783 0.81723 0.65526 0.0
O194 O 0.43919 0.8714 0.54458 0.0
H195 H 0.38809 0.80449 0.51558 0.0
H196 H 0.42689 0.88295 0.50566 0.0
H197 H 0.32951 0.74348 0.61967 0.0
H198 H 0.4631 0.86533 0.64129 0.0
H199 H 0.33425 0.74614 0.66352 0.0
H200 H 0.46492 0.8241 0.64931 0.0
O201 O 0.36637 0.8269 0.58604 0.0
H202 H 0.41922 0.93909 0.56238 0.0
H203 H 0.37572 0.85949 0.52066 0.0
H204 H 0.36714 0.89656 0.51657 0.0
H205 H 0.389 0.93675 0.53749 0.0
H206 H 0.42713 0.90148 0.56614 0.0
H207 H 0.42591 0.87686 0.46219 0.0
H208 H 0.40553 0.83394 0.44519 0.0
O209 O 0.37721 0.82649 0.54867 0.0
C210 C 0.40456 0.7997 0.56421 0.0
C211 C 0.39541 0.81639 0.47939 0.0
C212 C 0.41754 0.86088 0.47377 0.0
N213 N 0.40744 0.84412 0.51313 0.0
C214 C 0.39631 0.82043 0.50394 0.0
C215 C 0.41808 0.8642 0.49841 0.0
C216 C 0.40609 0.83679 0.46425 0.0
C217 C 0.43225 0.84791 0.62524 0.0
N218 N 0.41579 0.82575 0.61884 0.0
C219 C 0.45011 0.84768 0.63635 0.0
C220 C 0.45115 0.82455 0.64078 0.0
C221 C 0.43442 0.80202 0.63404 0.0
C222 C 0.4168 0.80299 0.62301 0.0
C223 C 0.36139 0.78202 0.66222 0.0
C224 C 0.35622 0.77908 0.61333 0.0
C225 C 0.37502 0.80116 0.64737 0.0
N226 N 0.37239 0.79948 0.62323 0.0
C227 C 0.34228 0.75959 0.62763 0.0
C228 C 0.34493 0.76111 0.65223 0.0
C229 C 0.36258 0.82264 0.56391 0.0
C230 C 0.40957 0.92169 0.55319 0.0
C231 C 0.38521 0.87684 0.52998 0.0
C232 C 0.38033 0.8978 0.52751 0.0
C233 C 0.39261 0.92035 0.53923 0.0
N234 N 0.40187 0.87829 0.54373 0.0
C235 C 0.414 0.90034 0.55523 0.0
Co236 Co 0.653 0.50779 0.09041 0.0
Co237 Co 0.62035 0.4987 0.04207 0.0
O238 O 0.63231 0.51524 0.07229 0.0
C239 C 0.62048 0.50066 0.12755 0.0
O240 O 0.60587 0.48537 0.11316 0.0
C241 C 0.62593 0.542 0.01056 0.0
O242 O 0.63671 0.53393 0.99619 0.0
O243 O 0.64928 0.50818 0.0285 0.0
O244 O 0.66707 0.50475 0.06074 0.0
H245 H 0.61413 0.44352 0.97084 0.0
H246 H 0.64605 0.55372 0.10185 0.0
O247 O 0.63966 0.51106 0.12089 0.0
H248 H 0.72138 0.58532 0.08057 0.0
H249 H 0.7035 0.51912 0.15813 0.0
H250 H 0.67247 0.47121 0.08494 0.0
H251 H 0.69855 0.53941 0.08028 0.0
H252 H 0.67752 0.52848 0.13494 0.0
O253 O 0.61992 0.53135 0.03073 0.0
H254 H 0.629 0.46426 0.00897 0.0
H255 H 0.58539 0.49817 0.01076 0.0
H256 H 0.69858 0.46146 0.10744 0.0
H257 H 0.66838 0.5998 0.10262 0.0
H258 H 0.71428 0.48549 0.14433 0.0
H259 H 0.70633 0.61586 0.09189 0.0
O260 O 0.63473 0.47053 0.0893 0.0
H261 H 0.56449 0.51421 0.08716 0.0
H262 H 0.5812 0.45039 0.0446 0.0
H263 H 0.54604 0.43771 0.06267 0.0
H264 H 0.53745 0.46976 0.08407 0.0
H265 H 0.59956 0.526 0.06909 0.0
H266 H 0.57013 0.47793 0.97258 0.0
H267 H 0.5845 0.45034 0.95236 0.0
O268 O 0.62022 0.46593 0.05297 0.0
C269 C 0.66538 0.50712 0.03846 0.0
C270 C 0.60774 0.45552 0.97946 0.0
C271 C 0.58305 0.47481 0.98044 0.0
N272 N 0.60815 0.4825 0.01207 0.0
C273 C 0.61611 0.46732 0.00106 0.0
C274 C 0.59177 0.48625 0.00205 0.0
C275 C 0.59112 0.45935 0.96911 0.0
C276 C 0.66258 0.56057 0.09731 0.0
N277 N 0.671 0.54389 0.09115 0.0
C278 C 0.67513 0.58668 0.09771 0.0
C279 C 0.69642 0.59568 0.09167 0.0
C280 C 0.70487 0.57856 0.0853 0.0
C281 C 0.69185 0.55258 0.08511 0.0
C282 C 0.69678 0.50853 0.14208 0.0
C283 C 0.67929 0.48184 0.10092 0.0
C284 C 0.682 0.51368 0.12892 0.0
N285 N 0.67353 0.50047 0.10856 0.0
C286 C 0.69404 0.47619 0.11361 0.0
C287 C 0.70283 0.48966 0.13432 0.0
C288 C 0.62457 0.45681 0.0718 0.0
C289 C 0.56801 0.50009 0.07782 0.0
C290 C 0.57766 0.46442 0.05399 0.0
C291 C 0.55768 0.45715 0.06412 0.0
C292 C 0.55287 0.47514 0.07611 0.0
N293 N 0.59242 0.48896 0.05565 0.0
C294 C 0.58782 0.50668 0.06745 0.0
Co295 Co 0.13357 0.57751 0.54461 0.0
Co296 Co 0.16342 0.61163 0.59136 0.0
O297 O 0.13601 0.59138 0.57681 0.0
C298 C 0.10374 0.60252 0.54106 0.0
O299 O 0.11915 0.6245 0.54633 0.0
C300 C 0.13998 0.57484 0.62964 0.0
O301 O 0.13213 0.55667 0.61378 0.0
O302 O 0.17275 0.58397 0.58545 0.0
O303 O 0.15978 0.57151 0.54882 0.0
H304 H 0.24258 0.64841 0.59644 0.0
H305 H 0.09697 0.55634 0.57736 0.0
O306 O 0.10709 0.58254 0.53974 0.0
H307 H 0.11336 0.48392 0.55586 0.0
H308 H 0.09374 0.52559 0.47446 0.0
H309 H 0.16359 0.58335 0.50523 0.0
H310 H 0.13422 0.52648 0.53925 0.0
H311 H 0.09746 0.54275 0.51518 0.0
O312 O 0.15238 0.5972 0.62336 0.0
H313 H 0.20786 0.6242 0.57797 0.0
H314 H 0.17734 0.64151 0.63631 0.0
H315 H 0.1606 0.56644 0.46448 0.0
H316 H 0.07549 0.51402 0.59412 0.0
H317 H 0.12548 0.53734 0.44884 0.0
H318 H 0.0837 0.47746 0.58346 0.0
O319 O 0.15093 0.61208 0.53153 0.0
H320 H 0.11207 0.64732 0.61677 0.0
H321 H 0.18269 0.66767 0.58323 0.0
H322 H 0.17078 0.70189 0.58877 0.0
H323 H 0.13524 0.69182 0.60571 0.0
H324 H 0.12456 0.61361 0.6107 0.0
H325 H 0.21177 0.66607 0.65532 0.0
H326 H 0.24471 0.66968 0.63533 0.0
O327 O 0.17546 0.62723 0.56021 0.0
C328 C 0.17212 0.57237 0.56595 0.0
C329 C 0.22835 0.64701 0.60531 0.0
C330 C 0.21105 0.65691 0.63835 0.0
N331 N 0.19057 0.63145 0.60602 0.0
C332 C 0.20863 0.63335 0.59492 0.0
C333 C 0.19159 0.64294 0.62752 0.0
C334 C 0.22953 0.65893 0.62714 0.0
C335 C 0.10052 0.54049 0.57246 0.0
N336 N 0.11686 0.54391 0.55735 0.0
C337 C 0.08835 0.51658 0.58208 0.0
C338 C 0.09299 0.49609 0.57613 0.0
C339 C 0.10965 0.49971 0.56068 0.0
C340 C 0.12148 0.52389 0.55141 0.0
C341 C 0.10914 0.53823 0.48108 0.0
C342 C 0.14826 0.57059 0.4986 0.0
C343 C 0.11134 0.54806 0.5041 0.0
N344 N 0.13075 0.56391 0.51263 0.0
C345 C 0.14666 0.56112 0.47549 0.0
C346 C 0.12695 0.54481 0.46672 0.0
C347 C 0.16851 0.62822 0.53949 0.0
C348 C 0.12761 0.65196 0.60944 0.0
C349 C 0.16719 0.66311 0.59056 0.0
C350 C 0.16055 0.68259 0.5937 0.0
C351 C 0.14061 0.67692 0.6032 0.0
N352 N 0.15435 0.63867 0.59673 0.0
C353 C 0.13478 0.63297 0.60604 0.0
Co354 Co 0.83619 0.45654 0.40725 0.0
Co355 Co 0.86593 0.45289 0.45393 0.0
O356 O 0.86358 0.46463 0.422 0.0
C357 C 0.85853 0.44318 0.36784 0.0
O358 O 0.86171 0.42694 0.38184 0.0
C359 C 0.89544 0.50769 0.46222 0.0
O360 O 0.87965 0.51448 0.46202 0.0
O361 O 0.84786 0.46928 0.46694 0.0
O362 O 0.8231 0.45747 0.43841 0.0
H363 H 0.83866 0.41337 0.53353 0.0
H364 H 0.87424 0.50002 0.38953 0.0
O365 O 0.8487 0.45597 0.3754 0.0
H366 H 0.82472 0.53665 0.4138 0.0
H367 H 0.78808 0.46251 0.34299 0.0
H368 H 0.79182 0.42262 0.41932 0.0
H369 H 0.8147 0.49064 0.41728 0.0
H370 H 0.82239 0.47285 0.36248 0.0
O371 O 0.89228 0.48459 0.45904 0.0
H372 H 0.83575 0.42763 0.49289 0.0
H373 H 0.90207 0.45473 0.48361 0.0
H374 H 0.75719 0.4119 0.40054 0.0
H375 H 0.88482 0.54614 0.3855 0.0
H376 H 0.75516 0.43191 0.36208 0.0
H377 H 0.85998 0.56474 0.39773 0.0
O378 O 0.82813 0.41952 0.412 0.0
H379 H 0.92372 0.44859 0.40311 0.0
H380 H 0.86645 0.40182 0.45949 0.0
H381 H 0.88758 0.3807 0.4424 0.0
H382 H 0.9165 0.40415 0.41402 0.0
H383 H 0.90207 0.4689 0.42047 0.0
H384 H 0.90572 0.44099 0.52423 0.0
H385 H 0.87385 0.42003 0.54945 0.0
O386 O 0.84009 0.42045 0.44921 0.0
C387 C 0.82968 0.46587 0.45913 0.0
C388 C 0.85266 0.42242 0.5227 0.0
C389 C 0.8903 0.43796 0.51749 0.0
N390 N 0.8687 0.44186 0.48584 0.0
C391 C 0.8511 0.43049 0.49965 0.0
C392 C 0.88814 0.44577 0.49452 0.0
C393 C 0.87241 0.42619 0.53163 0.0
C394 C 0.86328 0.50795 0.39469 0.0
N395 N 0.84384 0.49262 0.40347 0.0
C396 C 0.86938 0.53408 0.39244 0.0
C397 C 0.85545 0.54451 0.39934 0.0
C398 C 0.83566 0.52877 0.40835 0.0
C399 C 0.8301 0.50272 0.41031 0.0
C400 C 0.78876 0.45366 0.35974 0.0
C401 C 0.79108 0.43147 0.40263 0.0
C402 C 0.80815 0.45938 0.37083 0.0
N403 N 0.80912 0.44839 0.39206 0.0
C404 C 0.77142 0.42529 0.39205 0.0
C405 C 0.77029 0.43651 0.37047 0.0
C406 C 0.82847 0.40865 0.43169 0.0
C407 C 0.91119 0.43819 0.41549 0.0
C408 C 0.87893 0.41211 0.44708 0.0
C409 C 0.89089 0.40008 0.4375 0.0
C410 C 0.90712 0.41325 0.42159 0.0
N411 N 0.88304 0.43659 0.44104 0.0
C412 C 0.89891 0.44961 0.42543 0.0
Co413 Co 0.35544 0.85994 0.90963 0.0
Co414 Co 0.38902 0.87027 0.9579 0.0
O415 O 0.37814 0.88205 0.93046 0.0
C416 C 0.39044 0.88435 0.87511 0.0
O417 O 0.40303 0.87926 0.8895 0.0
C418 C 0.37833 0.91169 0.97731 0.0
O419 O 0.36166 0.90454 0.96351 0.0
O420 O 0.35986 0.84851 0.96972 0.0
O421 O 0.33903 0.84109 0.93745 0.0
H422 H 0.39386 0.80499 0.01367 0.0
H423 H 0.37118 0.91578 0.90465 0.0
O424 O 0.37131 0.87841 0.8809 0.0
H425 H 0.29581 0.88562 0.92527 0.0
H426 H 0.30581 0.84092 0.8399 0.0
H427 H 0.32816 0.80465 0.90826 0.0
H428 H 0.31209 0.8553 0.92079 0.0
H429 H 0.33427 0.8685 0.86648 0.0
O430 O 0.3899 0.89952 0.97739 0.0
H431 H 0.38021 0.82 0.9793 0.0
H432 H 0.42195 0.8963 0.99462 0.0
H433 H 0.29963 0.77641 0.88213 0.0
H434 H 0.35549 0.94675 0.90872 0.0
H435 H 0.28823 0.79453 0.84772 0.0
H436 H 0.31755 0.93171 0.91918 0.0
O437 O 0.36841 0.83492 0.9068 0.0
H438 H 0.44645 0.94978 0.92513 0.0
H439 H 0.42805 0.86171 0.95088 0.0
H440 H 0.46378 0.88744 0.93548 0.0
H441 H 0.4732 0.93186 0.92252 0.0
H442 H 0.41084 0.92325 0.94036 0.0
H443 H 0.43592 0.88216 0.02929 0.0
H444 H 0.42191 0.83619 0.03897 0.0
O445 O 0.38883 0.84116 0.93925 0.0
C446 C 0.34199 0.83803 0.95931 0.0
C447 C 0.40008 0.82508 0.00965 0.0
C448 C 0.42366 0.86838 0.01844 0.0
N449 N 0.40019 0.85899 0.98498 0.0
C450 C 0.39241 0.83368 0.9902 0.0
C451 C 0.41561 0.87629 0.99884 0.0
C452 C 0.41581 0.84259 0.02384 0.0
C453 C 0.35461 0.90908 0.90897 0.0
N454 N 0.34255 0.88377 0.9124 0.0
C455 C 0.34584 0.92671 0.91135 0.0
C456 C 0.32456 0.91826 0.91726 0.0
C457 C 0.31236 0.89241 0.9207 0.0
C458 C 0.32168 0.87533 0.91822 0.0
C459 C 0.31061 0.83281 0.85486 0.0
C460 C 0.32327 0.81271 0.89334 0.0
C461 C 0.32676 0.84832 0.86994 0.0
N462 N 0.33284 0.83822 0.88895 0.0
C463 C 0.30711 0.79661 0.87861 0.0
C464 C 0.30075 0.80678 0.85927 0.0
C465 C 0.3807 0.82932 0.92017 0.0
C466 C 0.44255 0.93045 0.93073 0.0
C467 C 0.43196 0.88092 0.94509 0.0
C468 C 0.45226 0.89545 0.93649 0.0
C469 C 0.45754 0.92038 0.92925 0.0
N470 N 0.41735 0.89091 0.9465 0.0
C471 C 0.42242 0.91535 0.93944 0.0
Co472 Co 0.59392 0.44467 0.45872 0.0
Co473 Co 0.60796 0.44889 0.39973 0.0
O474 O 0.59058 0.45242 0.42553 0.0
C475 C 0.5483 0.4151 0.44904 0.0
O476 O 0.55354 0.40703 0.42932 0.0
C477 C 0.62138 0.4974 0.3738 0.0
O478 O 0.64093 0.50146 0.37891 0.0
O479 O 0.63415 0.47123 0.41705 0.0
O480 O 0.62541 0.45996 0.45522 0.0
H481 H 0.66885 0.43528 0.36456 0.0
H482 H 0.56888 0.47369 0.4462 0.0
O483 O 0.56255 0.42974 0.46301 0.0
H484 H 0.62428 0.52914 0.50077 0.0
H485 H 0.57665 0.43769 0.54615 0.0
H486 H 0.621 0.42443 0.48396 0.0
H487 H 0.62199 0.48676 0.49009 0.0
H488 H 0.57307 0.44785 0.50424 0.0
O489 O 0.60621 0.4788 0.38346 0.0
H490 H 0.64649 0.43918 0.39691 0.0
H491 H 0.60588 0.4507 0.34655 0.0
H492 H 0.62527 0.41427 0.5257 0.0
H493 H 0.57041 0.51581 0.45661 0.0
H494 H 0.60298 0.42089 0.55713 0.0
H495 H 0.5983 0.54388 0.48404 0.0
O496 O 0.59244 0.41052 0.44977 0.0
H497 H 0.53448 0.42378 0.36812 0.0
H498 H 0.59314 0.39775 0.37689 0.0
H499 H 0.56032 0.36896 0.35713 0.0
H500 H 0.53072 0.38196 0.35255 0.0
H501 H 0.56745 0.45183 0.38811 0.0
H502 H 0.62782 0.44702 0.31365 0.0
H503 H 0.65959 0.43927 0.32255 0.0
O504 O 0.60974 0.41892 0.415 0.0
C505 C 0.63896 0.47117 0.439 0.0
C506 C 0.65511 0.43878 0.36045 0.0
C507 C 0.63208 0.44534 0.33188 0.0
N508 N 0.62507 0.44555 0.37371 0.0
C509 C 0.64242 0.44108 0.37871 0.0
C510 C 0.61974 0.44748 0.3506 0.0
C511 C 0.64989 0.441 0.33688 0.0
C512 C 0.58102 0.48576 0.45821 0.0
N513 N 0.59538 0.4778 0.46747 0.0
C514 C 0.58183 0.50961 0.46401 0.0
C515 C 0.59749 0.52536 0.47939 0.0
C516 C 0.61209 0.51711 0.48875 0.0
C517 C 0.61079 0.49315 0.48255 0.0
C518 C 0.58647 0.43475 0.53263 0.0
C519 C 0.61133 0.42749 0.49756 0.0
C520 C 0.58446 0.44039 0.50885 0.0
N521 N 0.59691 0.43687 0.4917 0.0
C522 C 0.61378 0.42164 0.52115 0.0
C523 C 0.60125 0.42534 0.53877 0.0
C524 C 0.60173 0.40459 0.43282 0.0
C525 C 0.5473 0.41795 0.3699 0.0
C526 C 0.58031 0.40352 0.3751 0.0
C527 C 0.56178 0.38716 0.36381 0.0
C528 C 0.54519 0.39447 0.36122 0.0
N529 N 0.5823 0.42657 0.38352 0.0
C530 C 0.56607 0.43383 0.38108 0.0
Co531 Co 0.16383 0.54733 0.91863 0.0
Co532 Co 0.1364 0.55261 0.96723 0.0
O533 O 0.13705 0.54054 0.93473 0.0
C534 C 0.13908 0.55975 0.88108 0.0
O535 O 0.13171 0.57057 0.89699 0.0
C536 C 0.10553 0.49825 0.97005 0.0
O537 O 0.11919 0.4915 0.95943 0.0
O538 O 0.15397 0.53501 0.97892 0.0
O539 O 0.17738 0.54509 0.94906 0.0
H540 H 0.16817 0.59184 0.04549 0.0
H541 H 0.12453 0.50589 0.9009 0.0
O542 O 0.15144 0.54967 0.88718 0.0
H543 H 0.17134 0.46456 0.92266 0.0
H544 H 0.2093 0.53857 0.85263 0.0
H545 H 0.20888 0.57935 0.92949 0.0
H546 H 0.18331 0.51082 0.92709 0.0
H547 H 0.17574 0.52991 0.87321 0.0
O548 O 0.1101 0.52158 0.97415 0.0
H549 H 0.16863 0.57688 0.00451 0.0
H550 H 0.1023 0.55311 0.99915 0.0
H551 H 0.24279 0.58834 0.90963 0.0
H552 H 0.112 0.45955 0.89586 0.0
H553 H 0.24316 0.56788 0.8709 0.0
H554 H 0.13546 0.43859 0.90687 0.0
O555 O 0.17333 0.58447 0.92371 0.0
H556 H 0.07643 0.55817 0.92161 0.0
H557 H 0.1378 0.60464 0.97299 0.0
H558 H 0.11654 0.62651 0.95788 0.0
H559 H 0.08555 0.60321 0.93204 0.0
H560 H 0.09833 0.53714 0.93687 0.0
H561 H 0.10109 0.56756 0.04015 0.0
H562 H 0.13421 0.5872 0.06358 0.0
O563 O 0.16254 0.58444 0.96131 0.0
C564 C 0.17147 0.53717 0.97004 0.0
C565 C 0.15363 0.58335 0.03545 0.0
C566 C 0.11598 0.56969 0.03247 0.0
N567 N 0.13553 0.56421 0.99942 0.0
C568 C 0.1538 0.57489 0.01222 0.0
C569 C 0.11676 0.56145 0.00929 0.0
C570 C 0.13457 0.58072 0.0456 0.0
C571 C 0.1349 0.49692 0.90547 0.0
N572 N 0.15465 0.51106 0.91417 0.0
C573 C 0.12769 0.47068 0.90268 0.0
C574 C 0.14085 0.45892 0.9089 0.0
C575 C 0.16098 0.47347 0.91777 0.0
C576 C 0.16765 0.49966 0.9203 0.0
C577 C 0.20935 0.54761 0.86949 0.0
C578 C 0.20888 0.57033 0.91267 0.0
C579 C 0.19038 0.54287 0.88118 0.0
N580 N 0.19032 0.55414 0.90253 0.0
C581 C 0.22814 0.57552 0.90149 0.0
C582 C 0.22834 0.56405 0.87976 0.0
C583 C 0.17387 0.59568 0.94341 0.0
C584 C 0.08988 0.56852 0.93288 0.0
C585 C 0.12448 0.59444 0.96159 0.0
C586 C 0.11242 0.60689 0.95318 0.0
C587 C 0.09502 0.5938 0.93871 0.0
N588 N 0.11935 0.56965 0.95579 0.0
C589 C 0.1023 0.55669 0.94164 0.0
Co590 Co 0.64892 0.13983 0.41285 0.0
Co591 Co 0.61792 0.13106 0.46338 0.0
O592 O 0.62756 0.1183 0.43548 0.0
C593 C 0.61281 0.11493 0.37949 0.0
O594 O 0.6008 0.12168 0.39326 0.0
C595 C 0.62849 0.08896 0.48198 0.0
O596 O 0.64171 0.09196 0.46442 0.0
O597 O 0.64751 0.1544 0.47266 0.0
O598 O 0.66668 0.16004 0.43922 0.0
H599 H 0.61434 0.19868 0.51697 0.0
H600 H 0.63381 0.08395 0.40879 0.0
O601 O 0.63176 0.11999 0.38541 0.0
H602 H 0.71015 0.11618 0.42483 0.0
H603 H 0.69482 0.15687 0.33989 0.0
H604 H 0.67553 0.19515 0.40908 0.0
H605 H 0.69299 0.14571 0.42159 0.0
H606 H 0.6679 0.13003 0.36843 0.0
O607 O 0.61907 0.10355 0.48412 0.0
H608 H 0.62661 0.18226 0.48245 0.0
H609 H 0.58776 0.10647 0.5031 0.0
H610 H 0.70271 0.22263 0.38115 0.0
H611 H 0.6504 0.05378 0.41151 0.0
H612 H 0.7125 0.20351 0.34623 0.0
H613 H 0.68882 0.06985 0.4197 0.0
O614 O 0.63537 0.16433 0.41051 0.0
H615 H 0.55988 0.04846 0.43722 0.0
H616 H 0.57778 0.13758 0.45878 0.0
H617 H 0.5413 0.10984 0.4471 0.0
H618 H 0.53211 0.06486 0.43635 0.0
H619 H 0.59621 0.07697 0.44859 0.0
H620 H 0.57524 0.12208 0.53796 0.0
H621 H 0.58848 0.1685 0.54504 0.0
O622 O 0.6161 0.1585 0.44386 0.0
C623 C 0.66478 0.16447 0.46102 0.0
C624 C 0.60846 0.17841 0.51409 0.0
C625 C 0.58654 0.13542 0.52588 0.0
N626 N 0.60797 0.14344 0.49074 0.0
C627 C 0.61534 0.169 0.49455 0.0
C628 C 0.59377 0.1267 0.50616 0.0
C629 C 0.59396 0.16147 0.52983 0.0
C630 C 0.65058 0.09111 0.41209 0.0
N631 N 0.66241 0.11656 0.41503 0.0
C632 C 0.65987 0.07393 0.41373 0.0
C633 C 0.68142 0.08296 0.41837 0.0
C634 C 0.69339 0.10894 0.42129 0.0
C635 C 0.68356 0.12556 0.41956 0.0
C636 C 0.69069 0.16542 0.35504 0.0
C637 C 0.67977 0.18665 0.394 0.0
C638 C 0.6754 0.15033 0.37123 0.0
N639 N 0.67018 0.16098 0.39046 0.0
C640 C 0.69514 0.20233 0.37821 0.0
C641 C 0.70062 0.19159 0.35861 0.0
C642 C 0.62325 0.16981 0.42427 0.0
C643 C 0.56367 0.06801 0.44192 0.0
C644 C 0.57397 0.11813 0.45392 0.0
C645 C 0.55325 0.10246 0.44742 0.0
C646 C 0.5481 0.07723 0.44141 0.0
N647 N 0.58914 0.10893 0.45451 0.0
C648 C 0.58422 0.08424 0.44849 0.0
Co649 Co 0.40551 0.55141 0.94755 0.0
Co650 Co 0.38949 0.5461 0.88861 0.0
O651 O 0.40687 0.54181 0.91423 0.0
C652 C 0.45088 0.5787 0.93491 0.0
O653 O 0.44517 0.58533 0.9147 0.0
C654 C 0.39158 0.49568 0.87812 0.0
O655 O 0.40287 0.49682 0.89711 0.0
O656 O 0.36334 0.5291 0.90798 0.0
O657 O 0.37404 0.53727 0.94604 0.0
H658 H 0.33397 0.57104 0.85483 0.0
H659 H 0.42973 0.52116 0.93579 0.0
O660 O 0.437 0.56555 0.94999 0.0
H661 H 0.37477 0.46854 0.99225 0.0
H662 H 0.4268 0.56109 0.03386 0.0
H663 H 0.38082 0.57437 0.97372 0.0
H664 H 0.37756 0.51081 0.98031 0.0
H665 H 0.428 0.54893 0.99203 0.0
O666 O 0.38479 0.5126 0.87404 0.0
H667 H 0.35635 0.56573 0.88642 0.0
H668 H 0.38546 0.53546 0.83634 0.0
H669 H 0.37897 0.58659 0.0154 0.0
H670 H 0.42778 0.47919 0.94754 0.0
H671 H 0.40208 0.57996 0.0458 0.0
H672 H 0.40007 0.4525 0.97588 0.0
O673 O 0.40749 0.58564 0.93807 0.0
H674 H 0.45997 0.55811 0.85405 0.0
H675 H 0.40631 0.59274 0.85864 0.0
H676 H 0.43819 0.61478 0.83443 0.0
H677 H 0.46524 0.59735 0.83179 0.0
H678 H 0.42822 0.53711 0.87843 0.0
H679 H 0.36324 0.54022 0.8043 0.0
H680 H 0.33732 0.55822 0.81342 0.0
O681 O 0.39331 0.57957 0.90156 0.0
C682 C 0.35963 0.52855 0.93027 0.0
C683 C 0.34521 0.56319 0.85063 0.0
C684 C 0.36161 0.54585 0.82227 0.0
N685 N 0.3722 0.55028 0.86329 0.0
C686 C 0.35795 0.56016 0.86844 0.0
C687 C 0.37408 0.54309 0.84054 0.0
C688 C 0.34709 0.55597 0.8274 0.0
C689 C 0.4177 0.50972 0.94822 0.0
N690 N 0.40362 0.51832 0.95715 0.0
C691 C 0.41664 0.48594 0.95477 0.0
C692 C 0.40107 0.47096 0.97064 0.0
C693 C 0.38685 0.47992 0.97979 0.0
C694 C 0.38838 0.50379 0.97282 0.0
C695 C 0.41663 0.56404 0.02078 0.0
C696 C 0.39084 0.57129 0.98687 0.0
C697 C 0.41728 0.55726 0.99705 0.0
N698 N 0.4044 0.56079 0.98048 0.0
C699 C 0.38976 0.57832 0.01043 0.0
C700 C 0.40275 0.57462 0.02747 0.0
C701 C 0.40088 0.59328 0.91984 0.0
C702 C 0.44818 0.56575 0.85482 0.0
C703 C 0.41797 0.585 0.85769 0.0
C704 C 0.43601 0.59758 0.84388 0.0
C705 C 0.45117 0.58779 0.8424 0.0
N706 N 0.41493 0.56312 0.86956 0.0
C707 C 0.42995 0.55369 0.86845 0.0
H708 H 0.57882 0.11423 0.35416 0.0
H709 H 0.57232 0.10571 0.3115 0.0
H710 H 0.62561 0.08614 0.3072 0.0
H711 H 0.63186 0.09396 0.34957 0.0
H712 H 0.60058 0.13377 0.27912 0.0
H713 H 0.58471 0.0332 0.26396 0.0
H714 H 0.58277 0.04533 0.29305 0.0
H715 H 0.608 0.04884 0.28158 0.0
C716 C 0.58871 0.10732 0.34426 0.0
C717 C 0.60597 0.10502 0.35521 0.0
C718 C 0.58501 0.10251 0.31988 0.0
C719 C 0.59837 0.09507 0.30615 0.0
C720 C 0.61478 0.09128 0.31742 0.0
H721 H 0.64685 0.13953 0.16746 0.0
H722 H 0.64048 0.1251 0.20871 0.0
C723 C 0.61848 0.09605 0.34168 0.0
C724 C 0.5974 0.09512 0.27976 0.0
H725 H 0.59896 0.06157 0.23025 0.0
C726 C 0.59978 0.11778 0.26846 0.0
C727 C 0.59637 0.07427 0.26578 0.0
C728 C 0.5926 0.04897 0.27674 0.0
C729 C 0.60221 0.12057 0.24375 0.0
C730 C 0.6025 0.10031 0.22999 0.0
C731 C 0.59909 0.0772 0.24099 0.0
C732 C 0.60688 0.10354 0.2042 0.0
C733 C 0.60498 0.14544 0.23247 0.0
C734 C 0.59021 0.09502 0.18783 0.0
C735 C 0.59377 0.10321 0.16418 0.0
C736 C 0.61406 0.12018 0.15664 0.0
C737 C 0.63103 0.12661 0.17263 0.0
C738 C 0.62743 0.11842 0.19625 0.0
H739 H 0.60122 0.15781 0.24502 0.0
H740 H 0.62159 0.15577 0.22653 0.0
H741 H 0.59471 0.14196 0.21656 0.0
H742 H 0.57424 0.08353 0.19371 0.0
H743 H 0.58034 0.09775 0.15233 0.0
H744 H 0.42374 0.51381 0.65884 0.0
H745 H 0.43163 0.50462 0.69944 0.0
H746 H 0.36533 0.45917 0.71153 0.0
H747 H 0.35743 0.46767 0.67133 0.0
H748 H 0.41812 0.51782 0.73971 0.0
H749 H 0.38978 0.41368 0.73966 0.0
H750 H 0.39446 0.43185 0.71247 0.0
H751 H 0.36976 0.42245 0.72815 0.0
C752 C 0.41092 0.50153 0.67006 0.0
C753 C 0.38996 0.49157 0.66183 0.0
C754 C 0.41545 0.49625 0.69322 0.0
C755 C 0.39913 0.48074 0.7084 0.0
C756 C 0.37829 0.47051 0.7 0.0
H757 H 0.36048 0.47221 0.84622 0.0
H758 H 0.36591 0.46323 0.80492 0.0
C759 C 0.37377 0.4757 0.67699 0.0
C760 C 0.40317 0.47743 0.73384 0.0
H761 H 0.38843 0.43294 0.77813 0.0
C762 C 0.41227 0.49925 0.74804 0.0
C763 C 0.39556 0.45318 0.74473 0.0
C764 C 0.38706 0.429 0.73036 0.0
C765 C 0.41233 0.49751 0.77293 0.0
C766 C 0.40319 0.47332 0.78383 0.0
C767 C 0.39538 0.45144 0.76967 0.0
C768 C 0.39884 0.47103 0.80966 0.0
C769 C 0.42075 0.5216 0.78752 0.0
C770 C 0.41525 0.47676 0.82623 0.0
C771 C 0.41206 0.48148 0.85001 0.0
C772 C 0.39252 0.48085 0.85725 0.0
C773 C 0.3756 0.47255 0.84112 0.0
C774 C 0.37872 0.46754 0.81751 0.0
H775 H 0.4265 0.53895 0.77627 0.0
H776 H 0.40822 0.52199 0.79954 0.0
H777 H 0.434 0.52215 0.79881 0.0
H778 H 0.4309 0.47959 0.82041 0.0
H779 H 0.42546 0.48827 0.86199 0.0
H780 H 0.86972 0.40337 0.14894 0.0
H781 H 0.87526 0.41077 0.19157 0.0
H782 H 0.87731 0.48577 0.18294 0.0
H783 H 0.87154 0.47844 0.13998 0.0
H784 H 0.90662 0.44953 0.22039 0.0
H785 H 0.82627 0.4477 0.22773 0.0
H786 H 0.83506 0.43708 0.20141 0.0
H787 H 0.84404 0.47043 0.20727 0.0
C788 C 0.87165 0.42162 0.15599 0.0
C789 C 0.86989 0.44021 0.1411 0.0
C790 C 0.8749 0.42583 0.18038 0.0
C791 C 0.87637 0.44864 0.19044 0.0
C792 C 0.87594 0.4679 0.1755 0.0
H793 H 0.86236 0.48188 0.33809 0.0
H794 H 0.86977 0.48528 0.29558 0.0
C795 C 0.87276 0.46374 0.15097 0.0
C796 C 0.87641 0.45108 0.21668 0.0
H797 H 0.84533 0.45241 0.26311 0.0
C798 C 0.89333 0.45039 0.22979 0.0
C799 C 0.85894 0.45193 0.22885 0.0
C800 C 0.83993 0.45164 0.2157 0.0
C801 C 0.89328 0.45068 0.25481 0.0
C802 C 0.87564 0.45113 0.26696 0.0
C803 C 0.85887 0.45212 0.25379 0.0
C804 C 0.8739 0.45032 0.29332 0.0
C805 C 0.91219 0.45077 0.26796 0.0
C806 C 0.87408 0.42968 0.30638 0.0
C807 C 0.86998 0.42774 0.33089 0.0
C808 C 0.86528 0.44621 0.34262 0.0
C809 C 0.86574 0.46719 0.32959 0.0
C810 C 0.87001 0.46921 0.30525 0.0
H811 H 0.92652 0.45785 0.25655 0.0
H812 H 0.91552 0.46273 0.2842 0.0
H813 H 0.90895 0.43108 0.27343 0.0
H814 H 0.87658 0.41457 0.29748 0.0
H815 H 0.86963 0.41131 0.34041 0.0
H816 H 0.42777 0.89235 0.85262 0.0
H817 H 0.43634 0.90278 0.81055 0.0
H818 H 0.37684 0.908 0.8006 0.0
H819 H 0.36848 0.89837 0.84236 0.0
H820 H 0.41462 0.87324 0.77537 0.0
H821 H 0.41427 0.96729 0.76139 0.0
H822 H 0.41599 0.95546 0.79068 0.0
H823 H 0.3907 0.9468 0.77655 0.0
C824 C 0.41678 0.89639 0.84159 0.0
C825 C 0.39737 0.89431 0.85083 0.0
C826 C 0.4217 0.90235 0.81755 0.0
C827 C 0.40737 0.90652 0.80242 0.0
C828 C 0.38844 0.90557 0.81194 0.0
H829 H 0.36957 0.85508 0.66386 0.0
H830 H 0.37446 0.86701 0.70576 0.0
C831 C 0.38356 0.89971 0.83587 0.0
C832 C 0.4105 0.90814 0.77623 0.0
H833 H 0.40494 0.93917 0.72672 0.0
C834 C 0.41302 0.88802 0.7648 0.0
C835 C 0.40863 0.92751 0.7623 0.0
C836 C 0.40749 0.95061 0.77343 0.0
C837 C 0.41222 0.88581 0.73997 0.0
C838 C 0.40843 0.90393 0.72619 0.0
C839 C 0.40742 0.92503 0.73739 0.0
C840 C 0.40393 0.89988 0.70043 0.0
C841 C 0.41475 0.86357 0.72868 0.0
C842 C 0.41827 0.91535 0.68341 0.0
C843 C 0.4154 0.90869 0.65926 0.0
C844 C 0.39819 0.88645 0.65198 0.0
C845 C 0.38306 0.87222 0.66894 0.0
C846 C 0.38587 0.87894 0.6929 0.0
H847 H 0.42321 0.85563 0.74064 0.0
H848 H 0.39891 0.84831 0.72494 0.0
H849 H 0.42351 0.86915 0.71161 0.0
H850 H 0.43225 0.93169 0.68893 0.0
H851 H 0.42737 0.91994 0.64661 0.0
H852 H 0.64978 0.53091 0.34285 0.0
H853 H 0.64314 0.53741 0.30127 0.0
H854 H 0.57652 0.49286 0.31168 0.0
H855 H 0.58289 0.48644 0.35331 0.0
H856 H 0.59742 0.47384 0.27729 0.0
H857 H 0.61378 0.57496 0.26157 0.0
H858 H 0.63279 0.56969 0.27985 0.0
H859 H 0.6062 0.55991 0.29035 0.0
C860 C 0.63362 0.52329 0.3366 0.0
C861 C 0.61693 0.50782 0.35139 0.0
C862 C 0.62984 0.52707 0.31279 0.0
C863 C 0.60934 0.51556 0.30342 0.0
C864 C 0.59245 0.50194 0.31861 0.0
H865 H 0.58245 0.47823 0.15112 0.0
H866 H 0.57581 0.48262 0.19342 0.0
C867 C 0.59616 0.49834 0.34245 0.0
C868 C 0.60616 0.51412 0.27733 0.0
H869 H 0.61368 0.55034 0.2274 0.0
C870 C 0.60054 0.49044 0.26633 0.0
C871 C 0.61042 0.53586 0.26321 0.0
C872 C 0.61598 0.56156 0.27429 0.0
C873 C 0.60022 0.48812 0.24148 0.0
C874 C 0.60509 0.51002 0.22724 0.0
C875 C 0.60984 0.53355 0.23831 0.0
C876 C 0.60784 0.50939 0.2011 0.0
C877 C 0.59603 0.46254 0.23077 0.0
C878 C 0.62771 0.52382 0.19118 0.0
C879 C 0.63147 0.52156 0.16713 0.0
C880 C 0.61542 0.50474 0.15237 0.0
C881 C 0.59518 0.49116 0.16204 0.0
C882 C 0.59141 0.49355 0.18622 0.0
H883 H 0.59688 0.44896 0.24426 0.0
H884 H 0.57996 0.45429 0.22291 0.0
H885 H 0.60755 0.46444 0.21643 0.0
H886 H 0.64061 0.53622 0.20226 0.0
H887 H 0.64719 0.53256 0.16029 0.0
H888 H 0.16196 0.60331 0.6669 0.0
H889 H 0.15376 0.59653 0.70901 0.0
H890 H 0.09757 0.52935 0.69279 0.0
H891 H 0.1062 0.53561 0.6502 0.0
H892 H 0.12104 0.59589 0.73392 0.0
H893 H 0.12481 0.50201 0.74162 0.0
H894 H 0.13347 0.52139 0.71531 0.0
H895 H 0.10577 0.50349 0.72086 0.0
C896 C 0.14787 0.58701 0.6722 0.0
C897 C 0.13477 0.56991 0.65519 0.0
C898 C 0.14315 0.5832 0.69635 0.0
C899 C 0.12513 0.56234 0.70418 0.0
C900 C 0.1118 0.54531 0.68725 0.0
H901 H 0.10584 0.56656 0.86049 0.0
H902 H 0.09746 0.56478 0.81782 0.0
C903 C 0.1167 0.54893 0.66293 0.0
C904 C 0.12089 0.5588 0.73016 0.0
H905 H 0.11943 0.52026 0.77673 0.0
C906 C 0.12043 0.57922 0.74331 0.0
C907 C 0.12006 0.53702 0.74236 0.0
C908 C 0.1212 0.51478 0.72941 0.0
C909 C 0.12057 0.5792 0.7683 0.0
C910 C 0.12048 0.55778 0.7805 0.0
C911 C 0.1195 0.53667 0.76733 0.0
C912 C 0.12449 0.55816 0.80651 0.0
C913 C 0.12226 0.60279 0.7813 0.0
C914 C 0.14213 0.5545 0.81438 0.0
C915 C 0.14669 0.55509 0.83853 0.0
C916 C 0.13383 0.55956 0.85554 0.0
C917 C 0.11614 0.56331 0.84777 0.0
C918 C 0.11138 0.56237 0.82342 0.0
H919 H 0.12632 0.61929 0.76915 0.0
H920 H 0.10688 0.59915 0.78978 0.0
H921 H 0.13443 0.60795 0.79547 0.0
H922 H 0.15258 0.5514 0.80174 0.0
H923 H 0.16054 0.5523 0.84381 0.0
H924 H 0.50466 0.12946 0.06768 0.0
H925 H 0.4689 0.09863 0.05734 0.0
H926 H 0.49528 0.06042 0.01036 0.0
H927 H 0.53066 0.09134 0.01985 0.0
H928 H 0.46198 0.06501 0.99038 0.0
H929 H 0.44165 0.02687 0.08237 0.0
H930 H 0.44824 0.0601 0.07842 0.0
H931 H 0.46811 0.0483 0.07411 0.0
C932 C 0.50278 0.11455 0.05504 0.0
C933 C 0.52052 0.11283 0.04465 0.0
C934 C 0.48234 0.09687 0.04926 0.0
C935 C 0.47939 0.07698 0.0333 0.0
C936 C 0.49711 0.07561 0.02266 0.0
H937 H 0.40724 0.92684 0.01283 0.0
H938 H 0.42636 0.96959 0.02793 0.0
C939 C 0.5174 0.09332 0.02818 0.0
C940 C 0.45814 0.05686 0.02784 0.0
H941 H 0.41846 0.0047 0.05197 0.0
C942 C 0.45219 0.05204 0.00386 0.0
C943 C 0.44537 0.04007 0.04551 0.0
C944 C 0.45113 0.04387 0.07154 0.0
C945 C 0.43496 0.02978 0.99684 0.0
C946 C 0.42287 0.01224 0.01443 0.0
C947 C 0.42772 0.01819 0.03855 0.0
C948 C 0.40826 0.9858 0.00814 0.0
C949 C 0.43106 0.02429 0.97059 0.0
C950 C 0.39098 0.98027 0.99275 0.0
C951 C 0.38006 0.95561 0.98373 0.0
C952 C 0.38622 0.9362 0.99018 0.0
C953 C 0.4023 0.94143 0.00718 0.0
C954 C 0.4132 0.96591 0.01598 0.0
H955 H 0.44388 0.03809 0.95944 0.0
H956 H 0.42966 0.0049 0.96643 0.0
H957 H 0.41606 0.02534 0.96549 0.0
H958 H 0.38654 0.9952 0.98691 0.0
H959 H 0.36766 0.95213 0.97076 0.0
H960 H 0.40176 0.4415 0.54611 0.0
H961 H 0.42477 0.42377 0.52897 0.0
H962 H 0.39456 0.41744 0.46084 0.0
H963 H 0.3718 0.4361 0.47771 0.0
H964 H 0.4211 0.38093 0.50541 0.0
H965 H 0.45496 0.4653 0.44593 0.0
H966 H 0.43696 0.46322 0.46971 0.0
H967 H 0.42721 0.44614 0.44244 0.0
C968 C 0.39968 0.43596 0.52756 0.0
C969 C 0.38518 0.44073 0.51318 0.0
C970 C 0.41288 0.42575 0.51778 0.0
C971 C 0.4118 0.41992 0.49346 0.0
C972 C 0.39606 0.42246 0.47951 0.0
H973 H 0.51479 0.39927 0.41815 0.0
H974 H 0.47885 0.3951 0.4265 0.0
C975 C 0.38291 0.43291 0.48925 0.0
C976 C 0.42847 0.4135 0.48271 0.0
H977 H 0.47119 0.43712 0.44563 0.0
C978 C 0.43186 0.39299 0.49207 0.0
C979 C 0.44259 0.42931 0.46533 0.0
C980 C 0.44044 0.45235 0.45535 0.0
C981 C 0.44938 0.38844 0.48518 0.0
C982 C 0.46389 0.40486 0.46859 0.0
C983 C 0.45993 0.42451 0.45827 0.0
C984 C 0.48456 0.40409 0.4639 0.0
C985 C 0.45257 0.36655 0.49619 0.0
C986 C 0.49959 0.41043 0.48218 0.0
C987 C 0.52008 0.41309 0.47744 0.0
C988 C 0.52596 0.40935 0.45433 0.0
C989 C 0.51068 0.40208 0.43618 0.0
C990 C 0.49018 0.39973 0.44089 0.0
H991 H 0.43752 0.35181 0.50311 0.0
H992 H 0.45939 0.35766 0.48311 0.0
H993 H 0.46374 0.37367 0.51131 0.0
H994 H 0.4957 0.41433 0.49995 0.0
H995 H 0.53147 0.4187 0.49181 0.0
H996 H 0.07636 0.50626 0.99685 0.0
H997 H 0.04107 0.47612 0.00754 0.0
H998 H 0.0509 0.41659 0.97069 0.0
H999 H 0.08667 0.44707 0.95954 0.0
H1000 H 0.01308 0.41868 0.95894 0.0
H1001 H 0.02083 0.41952 0.05651 0.0
H1002 H 0.03081 0.45134 0.04523 0.0
H1003 H 0.04348 0.43097 0.03696 0.0
C1004 C 0.07123 0.48674 0.99112 0.0
C1005 C 0.08443 0.47911 0.97732 0.0
C1006 C 0.05103 0.46942 0.99749 0.0
C1007 C 0.04347 0.44395 0.9904 0.0
C1008 C 0.05654 0.4361 0.97663 0.0
H1009 H 0.91334 0.36416 0.04475 0.0
H1010 H 0.94909 0.36873 0.03446 0.0
C1011 C 0.07694 0.45352 0.97028 0.0
C1012 C 0.02129 0.42654 0.99593 0.0
H1013 H 0.98561 0.41089 0.04137 0.0
C1014 C 0.00712 0.41635 0.97702 0.0
C1015 C 0.01348 0.4229 0.01952 0.0
C1016 C 0.02802 0.43154 0.0407 0.0
C1017 C 0.98522 0.40488 0.98094 0.0
C1018 C 0.97734 0.40405 0.00429 0.0
C1019 C 0.99158 0.41191 0.0234 0.0
C1020 C 0.9549 0.39884 0.00886 0.0
C1021 C 0.97072 0.39473 0.95988 0.0
C1022 C 0.94634 0.41426 0.99799 0.0
C1023 C 0.92614 0.41178 0.00385 0.0
C1024 C 0.91395 0.3939 0.02089 0.0
C1025 C 0.92229 0.37802 0.03147 0.0
C1026 C 0.9427 0.38061 0.02562 0.0
H1027 H 0.97826 0.38777 0.94587 0.0
H1028 H 0.95553 0.37902 0.9651 0.0
H1029 H 0.96737 0.41026 0.95201 0.0
H1030 H 0.95561 0.42894 0.98553 0.0
H1031 H 0.92028 0.42434 0.99531 0.0
H1032 H 0.62203 0.04144 0.46693 0.0
H1033 H 0.59709 0.00151 0.48465 0.0
H1034 H 0.58959 0.04266 0.54525 0.0
H1035 H 0.61395 0.08259 0.52734 0.0
H1036 H 0.58928 0.97367 0.5293 0.0
H1037 H 0.53212 0.01569 0.5107 0.0
H1038 H 0.55875 0.02929 0.4994 0.0
H1039 H 0.55359 0.03451 0.52981 0.0
C1040 C 0.61572 0.04183 0.48447 0.0
C1041 C 0.61972 0.06508 0.49569 0.0
C1042 C 0.60141 0.01902 0.49453 0.0
C1043 C 0.59116 0.01924 0.51599 0.0
C1044 C 0.59707 0.04215 0.52848 0.0
H1045 H 0.48995 0.88912 0.58541 0.0
H1046 H 0.52443 0.92373 0.57644 0.0
C1047 C 0.61107 0.06492 0.5183 0.0
C1048 C 0.57211 0.99665 0.52332 0.0
H1049 H 0.51882 0.97589 0.52965 0.0
C1050 C 0.57385 0.97408 0.52948 0.0
C1051 C 0.55197 0.99717 0.52309 0.0
C1052 C 0.54886 0.02035 0.51519 0.0
C1053 C 0.5559 0.952 0.53554 0.0
C1054 C 0.53583 0.95273 0.53572 0.0
C1055 C 0.53421 0.97537 0.52965 0.0
C1056 C 0.51595 0.93008 0.54076 0.0
C1057 C 0.55846 0.92793 0.54098 0.0
C1058 C 0.49973 0.92222 0.52378 0.0
C1059 C 0.48004 0.90289 0.52898 0.0
C1060 C 0.47611 0.8908 0.55127 0.0
C1061 C 0.49256 0.898 0.56804 0.0
C1062 C 0.5123 0.91766 0.56288 0.0
H1063 H 0.57388 0.92888 0.53459 0.0
H1064 H 0.55771 0.92494 0.56051 0.0
H1065 H 0.5456 0.91124 0.53272 0.0
H1066 H 0.50216 0.93148 0.50659 0.0
H1067 H 0.46779 0.89766 0.51557 0.0
H1068 H 0.46861 0.57803 0.97784 0.0
H1069 H 0.50453 0.58304 0.98589 0.0
H1070 H 0.51988 0.59703 0.91145 0.0
H1071 H 0.48371 0.59209 0.90316 0.0
H1072 H 0.52868 0.55741 0.93259 0.0
H1073 H 0.56216 0.64541 0.9863 0.0
H1074 H 0.53634 0.6237 0.99588 0.0
H1075 H 0.53968 0.63799 0.96688 0.0
C1076 C 0.47969 0.58259 0.96319 0.0
C1077 C 0.47331 0.58464 0.93985 0.0
C1078 C 0.50028 0.58565 0.96787 0.0
C1079 C 0.51495 0.59076 0.94933 0.0
C1080 C 0.50883 0.59338 0.92604 0.0
H1081 H 0.62904 0.56202 0.96567 0.0
H1082 H 0.60578 0.5795 0.948 0.0
C1083 C 0.48821 0.59059 0.92135 0.0
C1084 C 0.5358 0.59056 0.95425 0.0
H1085 H 0.57873 0.61649 0.99067 0.0
C1086 C 0.53993 0.57066 0.94483 0.0
C1087 C 0.55032 0.60781 0.97032 0.0
C1088 C 0.54704 0.63009 0.98028 0.0
C1089 C 0.55745 0.56645 0.95234 0.0
C1090 C 0.57153 0.58307 0.96926 0.0
C1091 C 0.56797 0.6038 0.97769 0.0
C1092 C 0.58841 0.5774 0.98045 0.0
C1093 C 0.55985 0.54321 0.94333 0.0
C1094 C 0.58737 0.57214 0.0049 0.0
C1095 C 0.60082 0.56255 0.01512 0.0
C1096 C 0.61555 0.55787 0.00106 0.0
C1097 C 0.61775 0.56515 0.97697 0.0
C1098 C 0.60434 0.57494 0.96678 0.0
H1099 H 0.54541 0.52978 0.93411 0.0
H1100 H 0.57312 0.54911 0.93047 0.0
H1101 H 0.56343 0.53298 0.95819 0.0
H1102 H 0.57531 0.57407 0.01585 0.0
H1103 H 0.59876 0.55737 0.03376 0.0
H1104 H 0.90802 0.55374 0.48494 0.0
H1105 H 0.94392 0.58141 0.49827 0.0
H1106 H 0.9675 0.53083 0.46583 0.0
H1107 H 0.93199 0.50323 0.45269 0.0
H1108 H 0.96833 0.56388 0.52891 0.0
H1109 H 0.01008 0.60227 0.44433 0.0
H1110 H 0.98169 0.58979 0.44713 0.0
H1111 H 0.9944 0.56861 0.4433 0.0
C1112 C 0.92095 0.54883 0.48027 0.0
C1113 C 0.91716 0.52628 0.46782 0.0
C1114 C 0.94141 0.56461 0.48792 0.0
C1115 C 0.9584 0.55832 0.48278 0.0
C1116 C 0.95471 0.5363 0.46963 0.0
H1117 H 0.06721 0.55973 0.5418 0.0
H1118 H 0.03209 0.55492 0.52998 0.0
C1119 C 0.93434 0.52044 0.46227 0.0
C1120 C 0.97967 0.57299 0.49296 0.0
H1121 H 0.03174 0.60051 0.47732 0.0
C1122 C 0.98218 0.57251 0.5177 0.0
C1123 C 0.99772 0.58443 0.47836 0.0
C1124 C 0.99587 0.58656 0.45181 0.0
C1125 C 0.00234 0.58132 0.52801 0.0
C1126 C 0.02036 0.59073 0.51317 0.0
C1127 C 0.01788 0.59312 0.48866 0.0
C1128 C 0.0415 0.59474 0.52224 0.0
C1129 C 0.00422 0.57944 0.55458 0.0
C1130 C 0.05851 0.6188 0.52176 0.0
C1131 C 0.07873 0.62169 0.52873 0.0
C1132 C 0.08226 0.60044 0.53574 0.0
C1133 C 0.06507 0.57649 0.53644 0.0
C1134 C 0.04493 0.5737 0.52982 0.0
H1135 H 0.98996 0.57889 0.5639 0.0
H1136 H 0.00592 0.56166 0.55887 0.0
H1137 H 0.01833 0.59569 0.56149 0.0
H1138 H 0.05617 0.63523 0.51575 0.0
H1139 H 0.09169 0.64035 0.52789 0.0
H1140 H 0.57934 0.22257 0.10337 0.0
H1141 H 0.58264 0.26593 0.10066 0.0
H1142 H 0.59895 0.26828 0.02645 0.0
H1143 H 0.59553 0.22429 0.02898 0.0
H1144 H 0.62824 0.30918 0.05713 0.0
H1145 H 0.54493 0.29591 0.06637 0.0
H1146 H 0.55311 0.27846 0.08747 0.0
H1147 H 0.55214 0.27091 0.05638 0.0
C1148 C 0.58326 0.23201 0.08632 0.0
C1149 C 0.58717 0.21992 0.06639 0.0
C1150 C 0.58506 0.25683 0.08481 0.0
C1151 C 0.5909 0.2702 0.06335 0.0
C1152 C 0.5943 0.25812 0.04315 0.0
H1153 H 0.59894 0.42159 0.04038 0.0
H1154 H 0.59094 0.37659 0.03853 0.0
C1155 C 0.59223 0.233 0.04458 0.0
C1156 C 0.59493 0.29737 0.0629 0.0
H1157 H 0.5714 0.33774 0.07291 0.0
C1158 C 0.61581 0.31549 0.06031 0.0
C1159 C 0.57867 0.30543 0.06711 0.0
C1160 C 0.55591 0.2867 0.0693 0.0
C1161 C 0.62094 0.34156 0.06243 0.0
C1162 C 0.60476 0.34958 0.0675 0.0
C1163 C 0.5838 0.33147 0.06941 0.0
C1164 C 0.60913 0.37678 0.06972 0.0
C1165 C 0.64356 0.36035 0.0591 0.0
C1166 C 0.62168 0.39175 0.08827 0.0
C1167 C 0.62625 0.41769 0.08956 0.0
C1168 C 0.61834 0.42901 0.07225 0.0
C1169 C 0.60533 0.41365 0.05408 0.0
C1170 C 0.60072 0.38784 0.05292 0.0
H1171 H 0.65324 0.3515 0.05055 0.0
H1172 H 0.64443 0.37667 0.04807 0.0
H1173 H 0.65058 0.36781 0.07671 0.0
H1174 H 0.62808 0.38341 0.10162 0.0
H1175 H 0.63634 0.42894 0.10374 0.0
H1176 H 0.33794 0.53784 0.53173 0.0
H1177 H 0.30685 0.54696 0.52778 0.0
H1178 H 0.2666 0.46799 0.54032 0.0
H1179 H 0.29786 0.45901 0.54484 0.0
H1180 H 0.26898 0.53172 0.50378 0.0
H1181 H 0.25693 0.50333 0.5989 0.0
H1182 H 0.28026 0.50672 0.58267 0.0
H1183 H 0.25617 0.47862 0.57913 0.0
C1184 C 0.32244 0.52219 0.53222 0.0
C1185 C 0.32023 0.49765 0.53813 0.0
C1186 C 0.30466 0.52747 0.5303 0.0
C1187 C 0.28443 0.50828 0.53439 0.0
C1188 C 0.2821 0.48317 0.53756 0.0
H1189 H 0.17189 0.54 0.53032 0.0
H1190 H 0.19793 0.52299 0.52249 0.0
C1191 C 0.29992 0.47793 0.53968 0.0
C1192 C 0.26646 0.51529 0.53859 0.0
H1193 H 0.23226 0.51643 0.58168 0.0
C1194 C 0.26081 0.52822 0.52072 0.0
C1195 C 0.25629 0.5114 0.56101 0.0
C1196 C 0.26281 0.49951 0.58163 0.0
C1197 C 0.24523 0.53732 0.52462 0.0
C1198 C 0.23456 0.5327 0.54679 0.0
C1199 C 0.24024 0.51973 0.56462 0.0
C1200 C 0.21803 0.54195 0.55223 0.0
C1201 C 0.24101 0.55267 0.50525 0.0
C1202 C 0.22 0.55726 0.5723 0.0
C1203 C 0.20477 0.56651 0.57724 0.0
C1204 C 0.18732 0.5608 0.56209 0.0
C1205 C 0.18515 0.54494 0.54234 0.0
C1206 C 0.20019 0.53539 0.53764 0.0
H1207 H 0.25452 0.56079 0.49272 0.0
H1208 H 0.22698 0.54016 0.49487 0.0
H1209 H 0.23783 0.56846 0.5128 0.0
H1210 H 0.23354 0.56245 0.58395 0.0
H1211 H 0.207 0.57866 0.59259 0.0
H1212 H 0.78864 0.36361 0.01874 0.0
H1213 H 0.75753 0.32329 0.01841 0.0
H1214 H 0.79746 0.28301 0.02301 0.0
H1215 H 0.82875 0.32374 0.02404 0.0
H1216 H 0.74018 0.27853 0.9953 0.0
H1217 H 0.76632 0.26559 0.08593 0.0
H1218 H 0.77929 0.29456 0.06928 0.0
H1219 H 0.78405 0.26711 0.06218 0.0
C1220 C 0.79079 0.34611 0.01843 0.0
C1221 C 0.81099 0.34664 0.02114 0.0
C1222 C 0.77301 0.32305 0.01849 0.0
C1223 C 0.77513 0.30014 0.02137 0.0
C1224 C 0.79546 0.30051 0.02131 0.0
H1225 H 0.65373 0.1667 0.03321 0.0
H1226 H 0.68991 0.1934 0.02123 0.0
C1227 C 0.81334 0.32371 0.02137 0.0
C1228 C 0.75613 0.27686 0.02755 0.0
H1229 H 0.73288 0.23638 0.07371 0.0
C1230 C 0.73864 0.26901 0.01227 0.0
C1231 C 0.75404 0.2649 0.05001 0.0
C1232 C 0.77181 0.27352 0.06793 0.0
C1233 C 0.71894 0.25022 0.0191 0.0
C1234 C 0.71684 0.23821 0.04154 0.0
C1235 C 0.73454 0.24544 0.05647 0.0
C1236 C 0.69607 0.21967 0.0506 0.0
C1237 C 0.70032 0.24463 0.00275 0.0
C1238 C 0.68799 0.22437 0.0721 0.0
C1239 C 0.66745 0.20865 0.07939 0.0
C1240 C 0.65455 0.18816 0.06512 0.0
C1241 C 0.66314 0.18259 0.04439 0.0
C1242 C 0.68379 0.19798 0.03739 0.0
H1243 H 0.70342 0.26002 0.98951 0.0
H1244 H 0.69711 0.22685 0.99281 0.0
H1245 H 0.68594 0.24212 0.01296 0.0
H1246 H 0.69724 0.24087 0.08274 0.0
H1247 H 0.66133 0.21342 0.09546 0.0
H1248 H 0.37417 0.75473 0.55074 0.0
H1249 H 0.37493 0.71305 0.55515 0.0
H1250 H 0.4399 0.7492 0.57801 0.0
H1251 H 0.43936 0.79105 0.57243 0.0
H1252 H 0.43352 0.70814 0.55211 0.0
H1253 H 0.37085 0.68276 0.62005 0.0
H1254 H 0.36205 0.69038 0.5924 0.0
H1255 H 0.38377 0.71443 0.60805 0.0
C1256 C 0.38878 0.75368 0.55591 0.0
C1257 C 0.40678 0.77585 0.56095 0.0
C1258 C 0.38912 0.72994 0.55884 0.0
C1259 C 0.40725 0.72799 0.56771 0.0
C1260 C 0.42568 0.75025 0.57136 0.0
H1261 H 0.38661 0.57653 0.62139 0.0
H1262 H 0.39689 0.62257 0.62053 0.0
C1263 C 0.42546 0.77409 0.56795 0.0
C1264 C 0.40656 0.70274 0.57392 0.0
H1265 H 0.37691 0.64798 0.60356 0.0
C1266 C 0.42131 0.69508 0.56359 0.0
C1267 C 0.39114 0.68601 0.58964 0.0
C1268 C 0.37624 0.69394 0.60339 0.0
C1269 C 0.4202 0.67058 0.56734 0.0
C1270 C 0.40345 0.653 0.58112 0.0
C1271 C 0.38953 0.66122 0.59265 0.0
C1272 C 0.39894 0.62558 0.58212 0.0
C1273 C 0.43701 0.66386 0.55643 0.0
C1274 C 0.39647 0.61193 0.5609 0.0
C1275 C 0.39093 0.5859 0.56136 0.0
C1276 C 0.38719 0.57263 0.58307 0.0
C1277 C 0.38945 0.58619 0.60439 0.0
C1278 C 0.39533 0.61249 0.60391 0.0
H1279 H 0.45228 0.68086 0.55512 0.0
H1280 H 0.43951 0.64906 0.56689 0.0
H1281 H 0.43222 0.65667 0.5381 0.0
H1282 H 0.3983 0.62129 0.54383 0.0
H1283 H 0.38905 0.57611 0.54453 0.0
H1284 H 0.70441 0.54395 0.03079 0.0
H1285 H 0.73586 0.53575 0.02505 0.0
H1286 H 0.69608 0.45636 0.01361 0.0
H1287 H 0.66487 0.46488 0.01832 0.0
H1288 H 0.74436 0.5086 0.05627 0.0
H1289 H 0.74255 0.46388 0.96924 0.0
H1290 H 0.72632 0.48065 0.97554 0.0
H1291 H 0.71782 0.44789 0.98422 0.0
C1292 C 0.70248 0.52515 0.02538 0.0
C1293 C 0.68228 0.50517 0.02431 0.0
C1294 C 0.72044 0.52034 0.02251 0.0
C1295 C 0.71844 0.49541 0.01886 0.0
C1296 C 0.69818 0.47585 0.01575 0.0
H1297 H 0.79733 0.42967 0.08288 0.0
H1298 H 0.7716 0.4472 0.0743 0.0
C1299 C 0.68026 0.48076 0.01826 0.0
C1300 C 0.7369 0.48912 0.02253 0.0
H1301 H 0.76163 0.45364 0.00057 0.0
C1302 C 0.74838 0.49698 0.04383 0.0
C1303 C 0.7423 0.47404 0.00638 0.0
C1304 C 0.73171 0.46638 0.98247 0.0
C1305 C 0.76461 0.4896 0.04973 0.0
C1306 C 0.76905 0.47312 0.03431 0.0
C1307 C 0.75806 0.46594 0.01264 0.0
C1308 C 0.78506 0.46317 0.04015 0.0
C1309 C 0.7769 0.49979 0.07234 0.0
C1310 C 0.80091 0.46569 0.02365 0.0
C1311 C 0.81529 0.45518 0.02826 0.0
C1312 C 0.81438 0.44209 0.04966 0.0
C1313 C 0.7987 0.43991 0.06639 0.0
C1314 C 0.78403 0.45008 0.06155 0.0
H1315 H 0.77651 0.51808 0.07764 0.0
H1316 H 0.76966 0.48602 0.08697 0.0
H1317 H 0.79363 0.50278 0.0704 0.0
H1318 H 0.80204 0.47559 0.007 0.0
H1319 H 0.82697 0.45707 0.01481 0.0
H1320 H 0.20222 0.63182 0.51376 0.0
H1321 H 0.23364 0.67162 0.5087 0.0
H1322 H 0.19838 0.71367 0.53157 0.0
H1323 H 0.16683 0.67384 0.53625 0.0
H1324 H 0.23726 0.73925 0.49545 0.0
H1325 H 0.24976 0.69943 0.58119 0.0
H1326 H 0.24311 0.67834 0.55603 0.0
H1327 H 0.22412 0.689 0.56746 0.0
C1328 C 0.20082 0.64966 0.51604 0.0
C1329 C 0.18215 0.64991 0.5251 0.0
C1330 C 0.21881 0.67237 0.51338 0.0
C1331 C 0.21833 0.69549 0.52 0.0
C1332 C 0.199 0.69602 0.52619 0.0
H1333 H 0.32654 0.81134 0.59012 0.0
H1334 H 0.29031 0.7845 0.57827 0.0
C1335 C 0.18094 0.67328 0.52868 0.0
C1336 C 0.2383 0.71737 0.52595 0.0
H1337 H 0.27767 0.73644 0.56728 0.0
C1338 C 0.24613 0.7388 0.51116 0.0
C1339 C 0.24948 0.7169 0.54681 0.0
C1340 C 0.2412 0.69482 0.56395 0.0
C1341 C 0.26535 0.75956 0.51637 0.0
C1342 C 0.27705 0.75852 0.53667 0.0
C1343 C 0.26878 0.7373 0.55173 0.0
C1344 C 0.29837 0.77841 0.54232 0.0
C1345 C 0.27279 0.78244 0.50025 0.0
C1346 C 0.31495 0.78442 0.52593 0.0
C1347 C 0.33567 0.79996 0.53259 0.0
C1348 C 0.34032 0.80947 0.55594 0.0
C1349 C 0.32357 0.8043 0.57203 0.0
C1350 C 0.30282 0.78895 0.56527 0.0
H1351 H 0.25932 0.78405 0.49093 0.0
H1352 H 0.28157 0.80025 0.51031 0.0
H1353 H 0.28344 0.78046 0.48651 0.0
H1354 H 0.31206 0.77605 0.50834 0.0
H1355 H 0.34814 0.80348 0.5197 0.0
H1356 H 0.79041 0.4333 0.47019 0.0
H1357 H 0.76127 0.44498 0.47773 0.0
H1358 H 0.80531 0.52317 0.48728 0.0
H1359 H 0.8347 0.51142 0.4784 0.0
H1360 H 0.74585 0.46618 0.50823 0.0
H1361 H 0.77472 0.53003 0.4297 0.0
H1362 H 0.78687 0.50952 0.43906 0.0
H1363 H 0.79187 0.53836 0.45508 0.0
C1364 C 0.79393 0.45281 0.47492 0.0
C1365 C 0.81469 0.47148 0.47373 0.0
C1366 C 0.77724 0.45955 0.47909 0.0
C1367 C 0.78099 0.48513 0.48228 0.0
C1368 C 0.80198 0.50343 0.48411 0.0
H1369 H 0.65598 0.48924 0.48266 0.0
H1370 H 0.69207 0.5002 0.49582 0.0
C1371 C 0.8188 0.49667 0.47959 0.0
C1372 C 0.76276 0.49216 0.48042 0.0
H1373 H 0.74091 0.52153 0.44343 0.0
C1374 C 0.74482 0.4786 0.4943 0.0
C1375 C 0.76139 0.50817 0.46202 0.0
C1376 C 0.77963 0.52223 0.44546 0.0
C1377 C 0.72518 0.47885 0.48912 0.0
C1378 C 0.72368 0.49445 0.47038 0.0
C1379 C 0.74202 0.50958 0.45773 0.0
C1380 C 0.70296 0.49299 0.46171 0.0
C1381 C 0.70607 0.46071 0.50257 0.0
C1382 C 0.6975 0.48781 0.43759 0.0
C1383 C 0.67709 0.48279 0.42973 0.0
C1384 C 0.66154 0.4821 0.44598 0.0
C1385 C 0.66744 0.4891 0.46975 0.0
C1386 C 0.68806 0.49505 0.4774 0.0
H1387 H 0.70921 0.44564 0.51177 0.0
H1388 H 0.70164 0.47132 0.51634 0.0
H1389 H 0.69242 0.45134 0.49047 0.0
H1390 H 0.70872 0.48643 0.42495 0.0
H1391 H 0.67325 0.47796 0.41123 0.0
H1392 H 0.34213 0.79578 0.97979 0.0
H1393 H 0.31128 0.75514 0.98254 0.0
H1394 H 0.27066 0.79264 0.96675 0.0
H1395 H 0.30163 0.83313 0.96289 0.0
H1396 H 0.27353 0.73138 0.00421 0.0
H1397 H 0.26204 0.74797 0.90919 0.0
H1398 H 0.28472 0.76869 0.92592 0.0
H1399 H 0.26003 0.77153 0.92849 0.0
C1400 C 0.32657 0.79555 0.97805 0.0
C1401 C 0.32422 0.81754 0.97114 0.0
C1402 C 0.30892 0.77224 0.97935 0.0
C1403 C 0.28872 0.77072 0.974 0.0
C1404 C 0.28616 0.79325 0.9702 0.0
H1405 H 0.17534 0.62835 0.97923 0.0
H1406 H 0.20237 0.67087 0.98657 0.0
C1407 C 0.30381 0.81645 0.96841 0.0
C1408 C 0.27101 0.74559 0.96953 0.0
H1409 H 0.23631 0.71083 0.9266 0.0
C1410 C 0.26533 0.72688 0.98729 0.0
C1411 C 0.26075 0.73946 0.94714 0.0
C1412 C 0.26731 0.75785 0.9265 0.0
C1413 C 0.24953 0.70234 0.98338 0.0
C1414 C 0.23863 0.6966 0.96135 0.0
C1415 C 0.24444 0.71528 0.94356 0.0
C1416 C 0.22148 0.67119 0.95611 0.0
C1417 C 0.24527 0.68264 0.00263 0.0
C1418 C 0.22249 0.65766 0.93572 0.0
C1419 C 0.20663 0.63352 0.93101 0.0
C1420 C 0.18953 0.62231 0.94673 0.0
C1421 C 0.18829 0.63625 0.96675 0.0
C1422 C 0.20393 0.66052 0.9712 0.0
H1423 H 0.25905 0.68753 0.01469 0.0
H1424 H 0.2317 0.68173 0.01356 0.0
H1425 H 0.24139 0.66354 0.99498 0.0
H1426 H 0.23578 0.66557 0.92367 0.0
H1427 H 0.20813 0.62337 0.91544 0.0
H1428 H 0.64587 0.21166 0.39678 0.0
H1429 H 0.64117 0.25141 0.39542 0.0
H1430 H 0.58548 0.21757 0.43912 0.0
H1431 H 0.58976 0.17801 0.44019 0.0
H1432 H 0.58126 0.24853 0.40394 0.0
H1433 H 0.65587 0.29674 0.45482 0.0
H1434 H 0.65852 0.28294 0.42708 0.0
H1435 H 0.64342 0.26276 0.45081 0.0
C1436 C 0.63233 0.21252 0.40556 0.0
C1437 C 0.61835 0.19178 0.41885 0.0
C1438 C 0.6298 0.2353 0.40499 0.0
C1439 C 0.61326 0.23757 0.41768 0.0
C1440 C 0.59844 0.2163 0.4294 0.0
H1441 H 0.57854 0.3614 0.45868 0.0
H1442 H 0.58072 0.32008 0.45606 0.0
C1443 C 0.60096 0.19368 0.43001 0.0
C1444 C 0.61196 0.26235 0.4203 0.0
H1445 H 0.63777 0.32174 0.44382 0.0
C1446 C 0.59361 0.26456 0.41263 0.0
C1447 C 0.62797 0.28306 0.43202 0.0
C1448 C 0.64749 0.28131 0.44188 0.0
C1449 C 0.59102 0.28714 0.41595 0.0
C1450 C 0.60711 0.30787 0.42745 0.0
C1451 C 0.62543 0.30568 0.43515 0.0
C1452 C 0.60593 0.33266 0.43006 0.0
C1453 C 0.57134 0.28894 0.40674 0.0
C1454 C 0.61967 0.35333 0.41675 0.0
C1455 C 0.61844 0.37668 0.41816 0.0
C1456 C 0.60354 0.37999 0.43308 0.0
C1457 C 0.59016 0.35943 0.44703 0.0
C1458 C 0.5913 0.33585 0.44544 0.0
H1459 H 0.56184 0.27255 0.39525 0.0
H1460 H 0.5614 0.28943 0.422 0.0
H1461 H 0.57551 0.30675 0.39644 0.0
H1462 H 0.63113 0.35126 0.40491 0.0
H1463 H 0.62916 0.39211 0.40732 0.0
H1464 H 0.21041 0.56909 0.98306 0.0
H1465 H 0.23991 0.55716 0.98634 0.0
H1466 H 0.19646 0.47805 0.98895 0.0
H1467 H 0.16677 0.49017 0.98444 0.0
H1468 H 0.25646 0.53197 0.0115 0.0
H1469 H 0.22505 0.48011 0.92683 0.0
H1470 H 0.21352 0.49922 0.94094 0.0
H1471 H 0.20842 0.46818 0.95239 0.0
C1472 C 0.20712 0.54923 0.98557 0.0
C1473 C 0.18641 0.53054 0.98359 0.0
C1474 C 0.22401 0.54236 0.98723 0.0
C1475 C 0.22047 0.51665 0.98703 0.0
C1476 C 0.1996 0.49799 0.98837 0.0
H1477 H 0.34281 0.506 0.97267 0.0
H1478 H 0.30761 0.4967 0.9882 0.0
C1479 C 0.1826 0.5049 0.98638 0.0
C1480 C 0.23859 0.51014 0.98183 0.0
H1481 H 0.25885 0.48568 0.93816 0.0
C1482 C 0.25693 0.5215 0.99567 0.0
C1483 C 0.23926 0.49681 0.9609 0.0
C1484 C 0.22062 0.48553 0.94426 0.0
C1485 C 0.27621 0.52139 0.98844 0.0
C1486 C 0.27695 0.50837 0.96732 0.0
C1487 C 0.25828 0.4956 0.95433 0.0
C1488 C 0.29721 0.51016 0.95694 0.0
C1489 C 0.29578 0.53689 0.0026 0.0
C1490 C 0.30259 0.51888 0.93347 0.0
C1491 C 0.32244 0.52326 0.92421 0.0
C1492 C 0.33749 0.5195 0.93841 0.0
C1493 C 0.3317 0.50948 0.96142 0.0
C1494 C 0.31162 0.5044 0.97043 0.0
H1495 H 0.29332 0.55079 0.01444 0.0
H1496 H 0.29998 0.52403 0.014 0.0
H1497 H 0.30934 0.54747 0.99071 0.0
H1498 H 0.29174 0.52331 0.92256 0.0
H1499 H 0.32636 0.53091 0.90641 0.0
H1500 H 0.70561 0.17097 0.46132 0.0
H1501 H 0.73615 0.21202 0.46257 0.0
H1502 H 0.69521 0.24852 0.48059 0.0
H1503 H 0.66489 0.20736 0.48034 0.0
H1504 H 0.73971 0.24654 0.43101 0.0
H1505 H 0.74546 0.29019 0.51967 0.0
H1506 H 0.72973 0.25684 0.51444 0.0
H1507 H 0.71944 0.27992 0.50748 0.0
C1508 C 0.70336 0.1876 0.46688 0.0
C1509 C 0.68296 0.18597 0.4711 0.0
C1510 C 0.72077 0.21111 0.46729 0.0
C1511 C 0.71807 0.23348 0.47161 0.0
C1512 C 0.69788 0.23159 0.47773 0.0
H1513 H 0.7938 0.37913 0.40497 0.0
H1514 H 0.7674 0.33647 0.41442 0.0
C1515 C 0.6805 0.20796 0.47774 0.0
C1516 C 0.73551 0.25862 0.46617 0.0
H1517 H 0.76278 0.31868 0.48756 0.0
C1518 C 0.74493 0.2622 0.44354 0.0
C1519 C 0.74241 0.27912 0.48242 0.0
C1520 C 0.73387 0.27626 0.50743 0.0
C1521 C 0.76082 0.28567 0.43663 0.0
C1522 C 0.76705 0.30649 0.45249 0.0
C1523 C 0.75787 0.30283 0.47526 0.0
C1524 C 0.78333 0.3321 0.44607 0.0
C1525 C 0.77098 0.2877 0.41255 0.0
C1526 C 0.8009 0.34411 0.46087 0.0
C1527 C 0.81578 0.36863 0.45575 0.0
C1528 C 0.81357 0.38175 0.43558 0.0
C1529 C 0.79616 0.36952 0.42048 0.0
C1530 C 0.78107 0.34504 0.42582 0.0
H1531 H 0.76924 0.26883 0.40596 0.0
H1532 H 0.76315 0.29538 0.39956 0.0
H1533 H 0.78805 0.30057 0.41309 0.0
H1534 H 0.80302 0.33458 0.47659 0.0
H1535 H 0.82888 0.37741 0.4679 0.0
H1536 H 0.39328 0.6177 0.88197 0.0
H1537 H 0.39204 0.65896 0.88112 0.0
H1538 H 0.40736 0.66897 0.95576 0.0
H1539 H 0.40887 0.62728 0.9569 0.0
H1540 H 0.36997 0.6777 0.93891 0.0
H1541 H 0.44335 0.7304 0.88723 0.0
H1542 H 0.42619 0.69981 0.87556 0.0
H1543 H 0.43889 0.70183 0.90376 0.0
C1544 C 0.39668 0.62865 0.89825 0.0
C1545 C 0.40136 0.61914 0.91951 0.0
C1546 C 0.39597 0.65231 0.89766 0.0
C1547 C 0.39981 0.66705 0.91828 0.0
C1548 C 0.40449 0.65783 0.93961 0.0
H1549 H 0.4146 0.82083 0.93398 0.0
H1550 H 0.4189 0.7813 0.93166 0.0
C1551 C 0.40541 0.63409 0.9402 0.0
C1552 C 0.39807 0.69163 0.91741 0.0
H1553 H 0.42011 0.75058 0.89222 0.0
C1554 C 0.38096 0.69371 0.92883 0.0
C1555 C 0.41245 0.71236 0.90417 0.0
C1556 C 0.43137 0.7112 0.8921 0.0
C1557 C 0.37771 0.71602 0.92713 0.0
C1558 C 0.39183 0.73658 0.91346 0.0
C1559 C 0.40912 0.7346 0.90233 0.0
C1560 C 0.38994 0.76108 0.91224 0.0
C1561 C 0.35941 0.71764 0.94029 0.0
C1562 C 0.37256 0.76308 0.90126 0.0
C1563 C 0.37009 0.78589 0.9024 0.0
C1564 C 0.38491 0.80686 0.91471 0.0
C1565 C 0.40281 0.80503 0.92453 0.0
C1566 C 0.40533 0.78243 0.92322 0.0
H1567 H 0.35225 0.70192 0.95331 0.0
H1568 H 0.36457 0.73602 0.94987 0.0
H1569 H 0.34705 0.71657 0.92734 0.0
H1570 H 0.36066 0.74683 0.8924 0.0
H1571 H 0.35611 0.78668 0.89473 0.0
loop_
_geom_bond_atom_site_label_1
_geom_bond_atom_site_label_2
_geom_bond_distance
_geom_bond_site_symmetry_2
_ccdc_geom_bond_type
Co0 O2 2.143 . S
Co0 O8 2.074 . S
Co0 O11 2.093 . S
Co0 O24 2.097 . S
Co0 N41 2.151 . S
Co0 N49 2.214 . S
Co1 O2 2.160 . S
Co1 O7 2.058 . S
Co1 O17 2.057 . S
Co1 O32 2.037 . S
Co1 N36 2.145 1_554 S
Co1 N57 2.257 . S
O2 Co0 2.143 . S
O2 Co1 2.160 . S
C3 O4 1.278 . S
C3 O11 1.224 . S
O4 C3 1.278 . S
C5 O6 1.245 . S
C5 O17 1.232 . S
O6 C5 1.245 . S
O7 Co1 2.058 . S
O7 C33 1.269 . S
O8 Co0 2.074 . S
O8 C33 1.257 . S
H9 C34 0.930 . S
H10 C40 0.930 . S
O11 Co0 2.093 . S
O11 C3 1.224 . S
H12 C44 0.929 . S
H13 C46 0.930 . S
H14 C47 0.930 . S
H15 C45 0.929 . S
H16 C48 0.928 . S
O17 Co1 2.057 . S
O17 C5 1.232 . S
H18 C37 0.929 . S
H19 C38 0.929 . S
H20 C50 0.931 . S
H21 C42 0.929 . S
H22 C51 0.930 . S
H23 C43 0.931 . S
O24 Co0 2.097 . S
O24 C52 1.214 . S
H25 C53 0.929 . S
H26 C54 0.929 . S
H27 C55 0.930 . S
H28 C56 0.929 . S
H29 C58 0.930 . S
H30 C35 0.930 . S
H31 C39 0.930 . S
O32 Co1 2.037 . S
O32 C52 1.234 . S
C33 O7 1.269 . S
C33 O8 1.257 . S
C34 H9 0.930 . S
C34 C37 1.388 . S
C34 C39 1.418 . S
C35 H30 0.930 . S
C35 C38 1.404 . S
C35 C39 1.353 . S
N36 Co1 2.145 1_556 S
N36 C37 1.397 . S
N36 C38 1.334 . S
C37 H18 0.929 . S
C37 C34 1.388 . S
C37 N36 1.397 . S
C38 H19 0.929 . S
C38 C35 1.404 . S
C38 N36 1.334 . S
C39 H31 0.930 . S
C39 C34 1.418 . S
C39 C35 1.353 . S
C40 H10 0.930 . S
C40 N41 1.330 . S
C40 C42 1.446 . S
N41 Co0 2.151 . S
N41 C40 1.330 . S
N41 C45 1.418 . S
C42 H21 0.929 . S
C42 C40 1.446 . S
C42 C43 1.332 . S
C43 H23 0.931 . S
C43 C42 1.332 . S
C43 C44 1.267 . S
C44 H12 0.929 . S
C44 C43 1.267 . S
C44 C45 1.251 . S
C45 H15 0.929 . S
C45 N41 1.418 . S
C45 C44 1.251 . S
C46 H13 0.930 . S
C46 C48 1.406 . S
C46 C51 1.261 . S
C47 H14 0.930 . S
C47 N49 1.325 . S
C47 C50 1.357 . S
C48 H16 0.928 . S
C48 C46 1.406 . S
C48 N49 1.261 . S
N49 Co0 2.214 . S
N49 C47 1.325 . S
N49 C48 1.261 . S
C50 H20 0.931 . S
C50 C47 1.357 . S
C50 C51 1.312 . S
C51 H22 0.930 . S
C51 C46 1.261 . S
C51 C50 1.312 . S
C52 O24 1.214 . S
C52 O32 1.234 . S
C53 H25 0.929 . S
C53 C56 1.391 . S
C53 C58 1.391 . S
C54 H26 0.929 . S
C54 C55 1.390 . S
C54 N57 1.391 . S
C55 H27 0.930 . S
C55 C54 1.390 . S
C55 C56 1.392 . S
C56 H28 0.929 . S
C56 C53 1.391 . S
C56 C55 1.392 . S
N57 Co1 2.257 . S
N57 C54 1.391 . S
N57 C58 1.388 . S
C58 H29 0.930 . S
C58 C53 1.391 . S
C58 N57 1.388 . S
Co59 O61 2.143 . S
Co59 O67 2.074 . S
Co59 O70 2.093 . S
Co59 O83 2.097 . S
Co59 N100 2.151 . S
Co59 N108 2.214 . S
Co60 O61 2.160 . S
Co60 O66 2.058 . S
Co60 O76 2.057 . S
Co60 O91 2.037 . S
Co60 N95 2.145 . S
Co60 N116 2.257 . S
O61 Co59 2.143 . S
O61 Co60 2.160 . S
C62 O63 1.278 . S
C62 O70 1.224 . S
O63 C62 1.278 . S
C64 O65 1.245 . S
C64 O76 1.232 . S
O65 C64 1.245 . S
O66 Co60 2.058 . S
O66 C92 1.269 . S
O67 Co59 2.074 . S
O67 C92 1.257 . S
H68 C93 0.930 . S
H69 C99 0.930 . S
O70 Co59 2.093 . S
O70 C62 1.224 . S
H71 C103 0.929 . S
H72 C105 0.930 . S
H73 C106 0.930 . S
H74 C104 0.929 . S
H75 C107 0.928 . S
O76 Co60 2.057 . S
O76 C64 1.232 . S
H77 C96 0.929 . S
H78 C97 0.929 . S
H79 C109 0.931 . S
H80 C101 0.929 . S
H81 C110 0.930 . S
H82 C102 0.931 . S
O83 Co59 2.097 . S
O83 C111 1.214 . S
H84 C112 0.929 . S
H85 C113 0.929 . S
H86 C114 0.930 . S
H87 C115 0.929 . S
H88 C117 0.930 . S
H89 C94 0.930 . S
H90 C98 0.930 . S
O91 Co60 2.037 . S
O91 C111 1.234 . S
C92 O66 1.269 . S
C92 O67 1.257 . S
C93 H68 0.930 . S
C93 C96 1.388 . S
C93 C98 1.418 . S
C94 H89 0.930 . S
C94 C97 1.404 . S
C94 C98 1.353 . S
N95 Co60 2.145 . S
N95 C96 1.397 . S
N95 C97 1.334 . S
C96 H77 0.929 . S
C96 C93 1.388 . S
C96 N95 1.397 . S
C97 H78 0.929 . S
C97 C94 1.404 . S
C97 N95 1.334 . S
C98 H90 0.930 . S
C98 C93 1.418 . S
C98 C94 1.353 . S
C99 H69 0.930 . S
C99 N100 1.330 . S
C99 C101 1.446 . S
N100 Co59 2.151 . S
N100 C99 1.330 . S
N100 C104 1.418 . S
C101 H80 0.929 . S
C101 C99 1.446 . S
C101 C102 1.332 . S
C102 H82 0.931 . S
C102 C101 1.332 . S
C102 C103 1.267 . S
C103 H71 0.929 . S
C103 C102 1.267 . S
C103 C104 1.251 . S
C104 H74 0.929 . S
C104 N100 1.418 . S
C104 C103 1.251 . S
C105 H72 0.930 . S
C105 C107 1.406 . S
C105 C110 1.261 . S
C106 H73 0.930 . S
C106 N108 1.325 . S
C106 C109 1.357 . S
C107 H75 0.928 . S
C107 C105 1.406 . S
C107 N108 1.261 . S
N108 Co59 2.214 . S
N108 C106 1.325 . S
N108 C107 1.261 . S
C109 H79 0.931 . S
C109 C106 1.357 . S
C109 C110 1.312 . S
C110 H81 0.930 . S
C110 C105 1.261 . S
C110 C109 1.312 . S
C111 O83 1.214 . S
C111 O91 1.234 . S
C112 H84 0.929 . S
C112 C115 1.391 . S
C112 C117 1.391 . S
C113 H85 0.929 . S
C113 C114 1.390 . S
C113 N116 1.391 . S
C114 H86 0.930 . S
C114 C113 1.390 . S
C114 C115 1.392 . S
C115 H87 0.929 . S
C115 C112 1.391 . S
C115 C114 1.392 . S
N116 Co60 2.257 . S
N116 C113 1.391 . S
N116 C117 1.388 . S
C117 H88 0.930 . S
C117 C112 1.391 . S
C117 N116 1.388 . S
Co118 O120 2.143 . S
Co118 O126 2.074 . S
Co118 O129 2.093 . S
Co118 O142 2.097 . S
Co118 N159 2.151 . S
Co118 N167 2.214 1_554 S
Co119 O120 2.160 . S
Co119 O125 2.058 . S
Co119 O135 2.057 . S
Co119 O150 2.037 . S
Co119 N154 2.145 . S
Co119 N175 2.257 . S
O120 Co118 2.143 . S
O120 Co119 2.160 . S
C121 O122 1.278 . S
C121 O129 1.224 . S
O122 C121 1.278 . S
C123 O124 1.245 . S
C123 O135 1.232 . S
O124 C123 1.245 . S
O125 Co119 2.058 . S
O125 C151 1.269 . S
O126 Co118 2.074 . S
O126 C151 1.257 . S
H127 C152 0.930 . S
H128 C158 0.930 . S
O129 Co118 2.093 . S
O129 C121 1.224 . S
H130 C162 0.929 . S
H131 C164 0.930 . S
H132 C165 0.930 . S
H133 C163 0.929 . S
H134 C166 0.928 . S
O135 Co119 2.057 . S
O135 C123 1.232 . S
H136 C155 0.929 . S
H137 C156 0.929 . S
H138 C168 0.931 . S
H139 C160 0.929 . S
H140 C169 0.930 . S
H141 C161 0.931 . S
O142 Co118 2.097 . S
O142 C170 1.214 . S
H143 C171 0.929 . S
H144 C172 0.929 . S
H145 C173 0.930 . S
H146 C174 0.929 . S
H147 C176 0.930 . S
H148 C153 0.930 . S
H149 C157 0.930 . S
O150 Co119 2.037 . S
O150 C170 1.234 . S
C151 O125 1.269 . S
C151 O126 1.257 . S
C152 H127 0.930 . S
C152 C155 1.388 . S
C152 C157 1.418 . S
C153 H148 0.930 . S
C153 C156 1.404 . S
C153 C157 1.353 . S
N154 Co119 2.145 . S
N154 C155 1.397 . S
N154 C156 1.334 . S
C155 H136 0.929 . S
C155 C152 1.388 . S
C155 N154 1.397 . S
C156 H137 0.929 . S
C156 C153 1.404 . S
C156 N154 1.334 . S
C157 H149 0.930 . S
C157 C152 1.418 . S
C157 C153 1.353 . S
C158 H128 0.930 . S
C158 N159 1.330 . S
C158 C160 1.446 . S
N159 Co118 2.151 . S
N159 C158 1.330 . S
N159 C163 1.418 . S
C160 H139 0.929 . S
C160 C158 1.446 . S
C160 C161 1.332 . S
C161 H141 0.931 . S
C161 C160 1.332 . S
C161 C162 1.267 . S
C162 H130 0.929 . S
C162 C161 1.267 . S
C162 C163 1.251 . S
C163 H133 0.929 . S
C163 N159 1.418 . S
C163 C162 1.251 . S
C164 H131 0.930 . S
C164 C166 1.406 . S
C164 C169 1.261 . S
C165 H132 0.930 . S
C165 N167 1.325 . S
C165 C168 1.357 . S
C166 H134 0.928 . S
C166 C164 1.406 . S
C166 N167 1.261 . S
N167 Co118 2.214 1_556 S
N167 C165 1.325 . S
N167 C166 1.261 . S
C168 H138 0.931 . S
C168 C165 1.357 . S
C168 C169 1.312 . S
C169 H140 0.930 . S
C169 C164 1.261 . S
C169 C168 1.312 . S
C170 O142 1.214 . S
C170 O150 1.234 . S
C171 H143 0.929 . S
C171 C174 1.391 . S
C171 C176 1.391 . S
C172 H144 0.929 . S
C172 C173 1.390 . S
C172 N175 1.391 . S
C173 H145 0.930 . S
C173 C172 1.390 . S
C173 C174 1.392 . S
C174 H146 0.929 . S
C174 C171 1.391 . S
C174 C173 1.392 . S
N175 Co119 2.257 . S
N175 C172 1.391 . S
N175 C176 1.388 . S
C176 H147 0.930 . S
C176 C171 1.391 . S
C176 N175 1.388 . S
Co177 O179 2.143 . S
Co177 O185 2.074 . S
Co177 O188 2.093 . S
Co177 O201 2.097 . S
Co177 N218 2.151 . S
Co177 N226 2.214 . S
Co178 O179 2.160 . S
Co178 O184 2.058 . S
Co178 O194 2.057 . S
Co178 O209 2.037 . S
Co178 N213 2.145 . S
Co178 N234 2.257 . S
O179 Co177 2.143 . S
O179 Co178 2.160 . S
C180 O181 1.278 . S
C180 O188 1.224 . S
O181 C180 1.278 . S
C182 O183 1.245 . S
C182 O194 1.232 . S
O183 C182 1.245 . S
O184 Co178 2.058 . S
O184 C210 1.269 . S
O185 Co177 2.074 . S
O185 C210 1.257 . S
H186 C211 0.930 . S
H187 C217 0.930 . S
O188 Co177 2.093 . S
O188 C180 1.224 . S
H189 C221 0.929 . S
H190 C223 0.930 . S
H191 C224 0.930 . S
H192 C222 0.929 . S
H193 C225 0.928 . S
O194 Co178 2.057 . S
O194 C182 1.232 . S
H195 C214 0.929 . S
H196 C215 0.929 . S
H197 C227 0.931 . S
H198 C219 0.929 . S
H199 C228 0.930 . S
H200 C220 0.931 . S
O201 Co177 2.097 . S
O201 C229 1.214 . S
H202 C230 0.929 . S
H203 C231 0.929 . S
H204 C232 0.930 . S
H205 C233 0.929 . S
H206 C235 0.930 . S
H207 C212 0.930 . S
H208 C216 0.930 . S
O209 Co178 2.037 . S
O209 C229 1.234 . S
C210 O184 1.269 . S
C210 O185 1.257 . S
C211 H186 0.930 . S
C211 C214 1.388 . S
C211 C216 1.418 . S
C212 H207 0.930 . S
C212 C215 1.404 . S
C212 C216 1.353 . S
N213 Co178 2.145 . S
N213 C214 1.397 . S
N213 C215 1.334 . S
C214 H195 0.929 . S
C214 C211 1.388 . S
C214 N213 1.397 . S
C215 H196 0.929 . S
C215 C212 1.404 . S
C215 N213 1.334 . S
C216 H208 0.930 . S
C216 C211 1.418 . S
C216 C212 1.353 . S
C217 H187 0.930 . S
C217 N218 1.330 . S
C217 C219 1.446 . S
N218 Co177 2.151 . S
N218 C217 1.330 . S
N218 C222 1.418 . S
C219 H198 0.929 . S
C219 C217 1.446 . S
C219 C220 1.332 . S
C220 H200 0.931 . S
C220 C219 1.332 . S
C220 C221 1.267 . S
C221 H189 0.929 . S
C221 C220 1.267 . S
C221 C222 1.251 . S
C222 H192 0.929 . S
C222 N218 1.418 . S
C222 C221 1.251 . S
C223 H190 0.930 . S
C223 C225 1.406 . S
C223 C228 1.261 . S
C224 H191 0.930 . S
C224 N226 1.325 . S
C224 C227 1.357 . S
C225 H193 0.928 . S
C225 C223 1.406 . S
C225 N226 1.261 . S
N226 Co177 2.214 . S
N226 C224 1.325 . S
N226 C225 1.261 . S
C227 H197 0.931 . S
C227 C224 1.357 . S
C227 C228 1.312 . S
C228 H199 0.930 . S
C228 C223 1.261 . S
C228 C227 1.312 . S
C229 O201 1.214 . S
C229 O209 1.234 . S
C230 H202 0.929 . S
C230 C233 1.391 . S
C230 C235 1.391 . S
C231 H203 0.929 . S
C231 C232 1.390 . S
C231 N234 1.391 . S
C232 H204 0.930 . S
C232 C231 1.390 . S
C232 C233 1.392 . S
C233 H205 0.929 . S
C233 C230 1.391 . S
C233 C232 1.392 . S
N234 Co178 2.257 . S
N234 C231 1.391 . S
N234 C235 1.388 . S
C235 H206 0.930 . S
C235 C230 1.391 . S
C235 N234 1.388 . S
Co236 O238 2.143 . S
Co236 O244 2.074 . S
Co236 O247 2.093 . S
Co236 O260 2.097 . S
Co236 N277 2.151 . S
Co236 N285 2.214 . S
Co237 O238 2.160 . S
Co237 O243 2.058 . S
Co237 O253 2.057 . S
Co237 O268 2.037 . S
Co237 N272 2.145 . S
Co237 N293 2.257 . S
O238 Co236 2.143 . S
O238 Co237 2.160 . S
C239 O240 1.278 . S
C239 O247 1.224 . S
O240 C239 1.278 . S
C241 O242 1.245 . S
C241 O253 1.232 . S
O242 C241 1.245 . S
O243 Co237 2.058 . S
O243 C269 1.269 . S
O244 Co236 2.074 . S
O244 C269 1.257 . S
H245 C270 0.930 . S
H246 C276 0.930 . S
O247 Co236 2.093 . S
O247 C239 1.224 . S
H248 C280 0.929 . S
H249 C282 0.930 . S
H250 C283 0.930 . S
H251 C281 0.929 . S
H252 C284 0.928 . S
O253 Co237 2.057 . S
O253 C241 1.232 . S
H254 C273 0.929 1_554 S
H255 C274 0.929 . S
H256 C286 0.931 . S
H257 C278 0.929 . S
H258 C287 0.930 . S
H259 C279 0.931 . S
O260 Co236 2.097 . S
O260 C288 1.214 . S
H261 C289 0.929 . S
H262 C290 0.929 . S
H263 C291 0.930 . S
H264 C292 0.929 . S
H265 C294 0.930 . S
H266 C271 0.930 . S
H267 C275 0.930 . S
O268 Co237 2.037 . S
O268 C288 1.234 . S
C269 O243 1.269 . S
C269 O244 1.257 . S
C270 H245 0.930 . S
C270 C273 1.388 . S
C270 C275 1.418 . S
C271 H266 0.930 . S
C271 C274 1.404 . S
C271 C275 1.353 . S
N272 Co237 2.145 . S
N272 C273 1.397 1_554 S
N272 C274 1.334 1_554 S
C273 H254 0.929 1_556 S
C273 C270 1.388 . S
C273 N272 1.397 1_556 S
C274 H255 0.929 . S
C274 C271 1.404 . S
C274 N272 1.334 1_556 S
C275 H267 0.930 . S
C275 C270 1.418 . S
C275 C271 1.353 . S
C276 H246 0.930 . S
C276 N277 1.330 . S
C276 C278 1.446 . S
N277 Co236 2.151 . S
N277 C276 1.330 . S
N277 C281 1.418 . S
C278 H257 0.929 . S
C278 C276 1.446 . S
C278 C279 1.332 . S
C279 H259 0.931 . S
C279 C278 1.332 . S
C279 C280 1.267 . S
C280 H248 0.929 . S
C280 C279 1.267 . S
C280 C281 1.251 . S
C281 H251 0.929 . S
C281 N277 1.418 . S
C281 C280 1.251 . S
C282 H249 0.930 . S
C282 C284 1.406 . S
C282 C287 1.261 . S
C283 H250 0.930 . S
C283 N285 1.325 . S
C283 C286 1.357 . S
C284 H252 0.928 . S
C284 C282 1.406 . S
C284 N285 1.261 . S
N285 Co236 2.214 . S
N285 C283 1.325 . S
N285 C284 1.261 . S
C286 H256 0.931 . S
C286 C283 1.357 . S
C286 C287 1.312 . S
C287 H258 0.930 . S
C287 C282 1.261 . S
C287 C286 1.312 . S
C288 O260 1.214 . S
C288 O268 1.234 . S
C289 H261 0.929 . S
C289 C292 1.391 . S
C289 C294 1.391 . S
C290 H262 0.929 . S
C290 C291 1.390 . S
C290 N293 1.391 . S
C291 H263 0.930 . S
C291 C290 1.390 . S
C291 C292 1.392 . S
C292 H264 0.929 . S
C292 C289 1.391 . S
C292 C291 1.392 . S
N293 Co237 2.257 . S
N293 C290 1.391 . S
N293 C294 1.388 . S
C294 H265 0.930 . S
C294 C289 1.391 . S
C294 N293 1.388 . S
Co295 O297 2.143 . S
Co295 O303 2.074 . S
Co295 O306 2.093 . S
Co295 O319 2.097 . S
Co295 N336 2.151 . S
Co295 N344 2.214 . S
Co296 O297 2.160 . S
Co296 O302 2.058 . S
Co296 O312 2.057 . S
Co296 O327 2.037 . S
Co296 N331 2.145 . S
Co296 N352 2.257 . S
O297 Co295 2.143 . S
O297 Co296 2.160 . S
C298 O299 1.278 . S
C298 O306 1.224 . S
O299 C298 1.278 . S
C300 O301 1.245 . S
C300 O312 1.232 . S
O301 C300 1.245 . S
O302 Co296 2.058 . S
O302 C328 1.269 . S
O303 Co295 2.074 . S
O303 C328 1.257 . S
H304 C329 0.930 . S
H305 C335 0.930 . S
O306 Co295 2.093 . S
O306 C298 1.224 . S
H307 C339 0.929 . S
H308 C341 0.930 . S
H309 C342 0.930 . S
H310 C340 0.929 . S
H311 C343 0.928 . S
O312 Co296 2.057 . S
O312 C300 1.232 . S
H313 C332 0.929 . S
H314 C333 0.929 . S
H315 C345 0.931 . S
H316 C337 0.929 . S
H317 C346 0.930 . S
H318 C338 0.931 . S
O319 Co295 2.097 . S
O319 C347 1.214 . S
H320 C348 0.929 . S
H321 C349 0.929 . S
H322 C350 0.930 . S
H323 C351 0.929 . S
H324 C353 0.930 . S
H325 C330 0.930 . S
H326 C334 0.930 . S
O327 Co296 2.037 . S
O327 C347 1.234 . S
C328 O302 1.269 . S
C328 O303 1.257 . S
C329 H304 0.930 . S
C329 C332 1.388 . S
C329 C334 1.418 . S
C330 H325 0.930 . S
C330 C333 1.404 . S
C330 C334 1.353 . S
N331 Co296 2.145 . S
N331 C332 1.397 . S
N331 C333 1.334 . S
C332 H313 0.929 . S
C332 C329 1.388 . S
C332 N331 1.397 . S
C333 H314 0.929 . S
C333 C330 1.404 . S
C333 N331 1.334 . S
C334 H326 0.930 . S
C334 C329 1.418 . S
C334 C330 1.353 . S
C335 H305 0.930 . S
C335 N336 1.330 . S
C335 C337 1.446 . S
N336 Co295 2.151 . S
N336 C335 1.330 . S
N336 C340 1.418 . S
C337 H316 0.929 . S
C337 C335 1.446 . S
C337 C338 1.332 . S
C338 H318 0.931 . S
C338 C337 1.332 . S
C338 C339 1.267 . S
C339 H307 0.929 . S
C339 C338 1.267 . S
C339 C340 1.251 . S
C340 H310 0.929 . S
C340 N336 1.418 . S
C340 C339 1.251 . S
C341 H308 0.930 . S
C341 C343 1.406 . S
C341 C346 1.261 . S
C342 H309 0.930 . S
C342 N344 1.325 . S
C342 C345 1.357 . S
C343 H311 0.928 . S
C343 C341 1.406 . S
C343 N344 1.261 . S
N344 Co295 2.214 . S
N344 C342 1.325 . S
N344 C343 1.261 . S
C345 H315 0.931 . S
C345 C342 1.357 . S
C345 C346 1.312 . S
C346 H317 0.930 . S
C346 C341 1.261 . S
C346 C345 1.312 . S
C347 O319 1.214 . S
C347 O327 1.234 . S
C348 H320 0.929 . S
C348 C351 1.391 . S
C348 C353 1.391 . S
C349 H321 0.929 . S
C349 C350 1.390 . S
C349 N352 1.391 . S
C350 H322 0.930 . S
C350 C349 1.390 . S
C350 C351 1.392 . S
C351 H323 0.929 . S
C351 C348 1.391 . S
C351 C350 1.392 . S
N352 Co296 2.257 . S
N352 C349 1.391 . S
N352 C353 1.388 . S
C353 H324 0.930 . S
C353 C348 1.391 . S
C353 N352 1.388 . S
Co354 O356 2.143 . S
Co354 O362 2.074 . S
Co354 O365 2.093 . S
Co354 O378 2.097 . S
Co354 N395 2.151 . S
Co354 N403 2.214 . S
Co355 O356 2.160 . S
Co355 O361 2.058 . S
Co355 O371 2.057 . S
Co355 O386 2.037 . S
Co355 N390 2.145 . S
Co355 N411 2.257 . S
O356 Co354 2.143 . S
O356 Co355 2.160 . S
C357 O358 1.278 . S
C357 O365 1.224 . S
O358 C357 1.278 . S
C359 O360 1.245 . S
C359 O371 1.232 . S
O360 C359 1.245 . S
O361 Co355 2.058 . S
O361 C387 1.269 . S
O362 Co354 2.074 . S
O362 C387 1.257 . S
H363 C388 0.930 . S
H364 C394 0.930 . S
O365 Co354 2.093 . S
O365 C357 1.224 . S
H366 C398 0.929 . S
H367 C400 0.930 . S
H368 C401 0.930 . S
H369 C399 0.929 . S
H370 C402 0.928 . S
O371 Co355 2.057 . S
O371 C359 1.232 . S
H372 C391 0.929 . S
H373 C392 0.929 . S
H374 C404 0.931 . S
H375 C396 0.929 . S
H376 C405 0.930 . S
H377 C397 0.931 . S
O378 Co354 2.097 . S
O378 C406 1.214 . S
H379 C407 0.929 . S
H380 C408 0.929 . S
H381 C409 0.930 . S
H382 C410 0.929 . S
H383 C412 0.930 . S
H384 C389 0.930 . S
H385 C393 0.930 . S
O386 Co355 2.037 . S
O386 C406 1.234 . S
C387 O361 1.269 . S
C387 O362 1.257 . S
C388 H363 0.930 . S
C388 C391 1.388 . S
C388 C393 1.418 . S
C389 H384 0.930 . S
C389 C392 1.404 . S
C389 C393 1.353 . S
N390 Co355 2.145 . S
N390 C391 1.397 . S
N390 C392 1.334 . S
C391 H372 0.929 . S
C391 C388 1.388 . S
C391 N390 1.397 . S
C392 H373 0.929 . S
C392 C389 1.404 . S
C392 N390 1.334 . S
C393 H385 0.930 . S
C393 C388 1.418 . S
C393 C389 1.353 . S
C394 H364 0.930 . S
C394 N395 1.330 . S
C394 C396 1.446 . S
N395 Co354 2.151 . S
N395 C394 1.330 . S
N395 C399 1.418 . S
C396 H375 0.929 . S
C396 C394 1.446 . S
C396 C397 1.332 . S
C397 H377 0.931 . S
C397 C396 1.332 . S
C397 C398 1.267 . S
C398 H366 0.929 . S
C398 C397 1.267 . S
C398 C399 1.251 . S
C399 H369 0.929 . S
C399 N395 1.418 . S
C399 C398 1.251 . S
C400 H367 0.930 . S
C400 C402 1.406 . S
C400 C405 1.261 . S
C401 H368 0.930 . S
C401 N403 1.325 . S
C401 C404 1.357 . S
C402 H370 0.928 . S
C402 C400 1.406 . S
C402 N403 1.261 . S
N403 Co354 2.214 . S
N403 C401 1.325 . S
N403 C402 1.261 . S
C404 H374 0.931 . S
C404 C401 1.357 . S
C404 C405 1.312 . S
C405 H376 0.930 . S
C405 C400 1.261 . S
C405 C404 1.312 . S
C406 O378 1.214 . S
C406 O386 1.234 . S
C407 H379 0.929 . S
C407 C410 1.391 . S
C407 C412 1.391 . S
C408 H380 0.929 . S
C408 C409 1.390 . S
C408 N411 1.391 . S
C409 H381 0.930 . S
C409 C408 1.390 . S
C409 C410 1.392 . S
C410 H382 0.929 . S
C410 C407 1.391 . S
C410 C409 1.392 . S
N411 Co355 2.257 . S
N411 C408 1.391 . S
N411 C412 1.388 . S
C412 H383 0.930 . S
C412 C407 1.391 . S
C412 N411 1.388 . S
Co413 O415 2.143 . S
Co413 O421 2.074 . S
Co413 O424 2.093 . S
Co413 O437 2.097 . S
Co413 N454 2.151 . S
Co413 N462 2.214 . S
Co414 O415 2.160 . S
Co414 O420 2.058 . S
Co414 O430 2.057 . S
Co414 O445 2.037 . S
Co414 N449 2.145 . S
Co414 N470 2.257 . S
O415 Co413 2.143 . S
O415 Co414 2.160 . S
C416 O417 1.278 . S
C416 O424 1.224 . S
O417 C416 1.278 . S
C418 O419 1.245 . S
C418 O430 1.232 . S
O419 C418 1.245 . S
O420 Co414 2.058 . S
O420 C446 1.269 . S
O421 Co413 2.074 . S
O421 C446 1.257 . S
H422 C447 0.930 . S
H423 C453 0.930 . S
O424 Co413 2.093 . S
O424 C416 1.224 . S
H425 C457 0.929 . S
H426 C459 0.930 . S
H427 C460 0.930 . S
H428 C458 0.929 . S
H429 C461 0.928 . S
O430 Co414 2.057 . S
O430 C418 1.232 . S
H431 C450 0.929 1_556 S
H432 C451 0.929 . S
H433 C463 0.931 . S
H434 C455 0.929 . S
H435 C464 0.930 . S
H436 C456 0.931 . S
O437 Co413 2.097 . S
O437 C465 1.214 . S
H438 C466 0.929 . S
H439 C467 0.929 . S
H440 C468 0.930 . S
H441 C469 0.929 . S
H442 C471 0.930 . S
H443 C448 0.930 . S
H444 C452 0.930 . S
O445 Co414 2.037 . S
O445 C465 1.234 . S
C446 O420 1.269 . S
C446 O421 1.257 . S
C447 H422 0.930 . S
C447 C450 1.388 . S
C447 C452 1.418 . S
C448 H443 0.930 . S
C448 C451 1.404 . S
C448 C452 1.353 . S
N449 Co414 2.145 . S
N449 C450 1.397 1_556 S
N449 C451 1.334 1_556 S
C450 H431 0.929 1_554 S
C450 C447 1.388 . S
C450 N449 1.397 1_554 S
C451 H432 0.929 . S
C451 C448 1.404 . S
C451 N449 1.334 1_554 S
C452 H444 0.930 . S
C452 C447 1.418 . S
C452 C448 1.353 . S
C453 H423 0.930 . S
C453 N454 1.330 . S
C453 C455 1.446 . S
N454 Co413 2.151 . S
N454 C453 1.330 . S
N454 C458 1.418 . S
C455 H434 0.929 . S
C455 C453 1.446 . S
C455 C456 1.332 . S
C456 H436 0.931 . S
C456 C455 1.332 . S
C456 C457 1.267 . S
C457 H425 0.929 . S
C457 C456 1.267 . S
C457 C458 1.251 . S
C458 H428 0.929 . S
C458 N454 1.418 . S
C458 C457 1.251 . S
C459 H426 0.930 . S
C459 C461 1.406 . S
C459 C464 1.261 . S
C460 H427 0.930 . S
C460 N462 1.325 . S
C460 C463 1.357 . S
C461 H429 0.928 . S
C461 C459 1.406 . S
C461 N462 1.261 . S
N462 Co413 2.214 . S
N462 C460 1.325 . S
N462 C461 1.261 . S
C463 H433 0.931 . S
C463 C460 1.357 . S
C463 C464 1.312 . S
C464 H435 0.930 . S
C464 C459 1.261 . S
C464 C463 1.312 . S
C465 O437 1.214 . S
C465 O445 1.234 . S
C466 H438 0.929 . S
C466 C469 1.391 . S
C466 C471 1.391 . S
C467 H439 0.929 . S
C467 C468 1.390 . S
C467 N470 1.391 . S
C468 H440 0.930 . S
C468 C467 1.390 . S
C468 C469 1.392 . S
C469 H441 0.929 . S
C469 C466 1.391 . S
C469 C468 1.392 . S
N470 Co414 2.257 . S
N470 C467 1.391 . S
N470 C471 1.388 . S
C471 H442 0.930 . S
C471 C466 1.391 . S
C471 N470 1.388 . S
Co472 O474 2.143 . S
Co472 O480 2.074 . S
Co472 O483 2.093 . S
Co472 O496 2.097 . S
Co472 N513 2.151 . S
Co472 N521 2.214 . S
Co473 O474 2.160 . S
Co473 O479 2.058 . S
Co473 O489 2.057 . S
Co473 O504 2.037 . S
Co473 N508 2.145 . S
Co473 N529 2.257 . S
O474 Co472 2.143 . S
O474 Co473 2.160 . S
C475 O476 1.278 . S
C475 O483 1.224 . S
O476 C475 1.278 . S
C477 O478 1.245 . S
C477 O489 1.232 . S
O478 C477 1.245 . S
O479 Co473 2.058 . S
O479 C505 1.269 . S
O480 Co472 2.074 . S
O480 C505 1.257 . S
H481 C506 0.930 . S
H482 C512 0.930 . S
O483 Co472 2.093 . S
O483 C475 1.224 . S
H484 C516 0.929 . S
H485 C518 0.930 . S
H486 C519 0.930 . S
H487 C517 0.929 . S
H488 C520 0.928 . S
O489 Co473 2.057 . S
O489 C477 1.232 . S
H490 C509 0.929 . S
H491 C510 0.929 . S
H492 C522 0.931 . S
H493 C514 0.929 . S
H494 C523 0.930 . S
H495 C515 0.931 . S
O496 Co472 2.097 . S
O496 C524 1.214 . S
H497 C525 0.929 . S
H498 C526 0.929 . S
H499 C527 0.930 . S
H500 C528 0.929 . S
H501 C530 0.930 . S
H502 C507 0.930 . S
H503 C511 0.930 . S
O504 Co473 2.037 . S
O504 C524 1.234 . S
C505 O479 1.269 . S
C505 O480 1.257 . S
C506 H481 0.930 . S
C506 C509 1.388 . S
C506 C511 1.418 . S
C507 H502 0.930 . S
C507 C510 1.404 . S
C507 C511 1.353 . S
N508 Co473 2.145 . S
N508 C509 1.397 . S
N508 C510 1.334 . S
C509 H490 0.929 . S
C509 C506 1.388 . S
C509 N508 1.397 . S
C510 H491 0.929 . S
C510 C507 1.404 . S
C510 N508 1.334 . S
C511 H503 0.930 . S
C511 C506 1.418 . S
C511 C507 1.353 . S
C512 H482 0.930 . S
C512 N513 1.330 . S
C512 C514 1.446 . S
N513 Co472 2.151 . S
N513 C512 1.330 . S
N513 C517 1.418 . S
C514 H493 0.929 . S
C514 C512 1.446 . S
C514 C515 1.332 . S
C515 H495 0.931 . S
C515 C514 1.332 . S
C515 C516 1.267 . S
C516 H484 0.929 . S
C516 C515 1.267 . S
C516 C517 1.251 . S
C517 H487 0.929 . S
C517 N513 1.418 . S
C517 C516 1.251 . S
C518 H485 0.930 . S
C518 C520 1.406 . S
C518 C523 1.261 . S
C519 H486 0.930 . S
C519 N521 1.325 . S
C519 C522 1.357 . S
C520 H488 0.928 . S
C520 C518 1.406 . S
C520 N521 1.261 . S
N521 Co472 2.214 . S
N521 C519 1.325 . S
N521 C520 1.261 . S
C522 H492 0.931 . S
C522 C519 1.357 . S
C522 C523 1.312 . S
C523 H494 0.930 . S
C523 C518 1.261 . S
C523 C522 1.312 . S
C524 O496 1.214 . S
C524 O504 1.234 . S
C525 H497 0.929 . S
C525 C528 1.391 . S
C525 C530 1.391 . S
C526 H498 0.929 . S
C526 C527 1.390 . S
C526 N529 1.391 . S
C527 H499 0.930 . S
C527 C526 1.390 . S
C527 C528 1.392 . S
C528 H500 0.929 . S
C528 C525 1.391 . S
C528 C527 1.392 . S
N529 Co473 2.257 . S
N529 C526 1.391 . S
N529 C530 1.388 . S
C530 H501 0.930 . S
C530 C525 1.391 . S
C530 N529 1.388 . S
Co531 O533 2.143 . S
Co531 O539 2.074 . S
Co531 O542 2.093 . S
Co531 O555 2.097 . S
Co531 N572 2.151 . S
Co531 N580 2.214 . S
Co532 O533 2.160 . S
Co532 O538 2.058 . S
Co532 O548 2.057 . S
Co532 O563 2.037 . S
Co532 N567 2.145 1_556 S
Co532 N588 2.257 . S
O533 Co531 2.143 . S
O533 Co532 2.160 . S
C534 O535 1.278 . S
C534 O542 1.224 . S
O535 C534 1.278 . S
C536 O537 1.245 . S
C536 O548 1.232 . S
O537 C536 1.245 . S
O538 Co532 2.058 . S
O538 C564 1.269 . S
O539 Co531 2.074 . S
O539 C564 1.257 . S
H540 C565 0.930 . S
H541 C571 0.930 . S
O542 Co531 2.093 . S
O542 C534 1.224 . S
H543 C575 0.929 . S
H544 C577 0.930 . S
H545 C578 0.930 . S
H546 C576 0.929 . S
H547 C579 0.928 . S
O548 Co532 2.057 . S
O548 C536 1.232 . S
H549 C568 0.929 . S
H550 C569 0.929 . S
H551 C581 0.931 . S
H552 C573 0.929 . S
H553 C582 0.930 . S
H554 C574 0.931 . S
O555 Co531 2.097 . S
O555 C583 1.214 . S
H556 C584 0.929 . S
H557 C585 0.929 . S
H558 C586 0.930 . S
H559 C587 0.929 . S
H560 C589 0.930 . S
H561 C566 0.930 . S
H562 C570 0.930 . S
O563 Co532 2.037 . S
O563 C583 1.234 . S
C564 O538 1.269 . S
C564 O539 1.257 . S
C565 H540 0.930 . S
C565 C568 1.388 . S
C565 C570 1.418 . S
C566 H561 0.930 . S
C566 C569 1.404 . S
C566 C570 1.353 . S
N567 Co532 2.145 1_554 S
N567 C568 1.397 . S
N567 C569 1.334 . S
C568 H549 0.929 . S
C568 C565 1.388 . S
C568 N567 1.397 . S
C569 H550 0.929 . S
C569 C566 1.404 . S
C569 N567 1.334 . S
C570 H562 0.930 . S
C570 C565 1.418 . S
C570 C566 1.353 . S
C571 H541 0.930 . S
C571 N572 1.330 . S
C571 C573 1.446 . S
N572 Co531 2.151 . S
N572 C571 1.330 . S
N572 C576 1.418 . S
C573 H552 0.929 . S
C573 C571 1.446 . S
C573 C574 1.332 . S
C574 H554 0.931 . S
C574 C573 1.332 . S
C574 C575 1.267 . S
C575 H543 0.929 . S
C575 C574 1.267 . S
C575 C576 1.251 . S
C576 H546 0.929 . S
C576 N572 1.418 . S
C576 C575 1.251 . S
C577 H544 0.930 . S
C577 C579 1.406 . S
C577 C582 1.261 . S
C578 H545 0.930 . S
C578 N580 1.325 . S
C578 C581 1.357 . S
C579 H547 0.928 . S
C579 C577 1.406 . S
C579 N580 1.261 . S
N580 Co531 2.214 . S
N580 C578 1.325 . S
N580 C579 1.261 . S
C581 H551 0.931 . S
C581 C578 1.357 . S
C581 C582 1.312 . S
C582 H553 0.930 . S
C582 C577 1.261 . S
C582 C581 1.312 . S
C583 O555 1.214 . S
C583 O563 1.234 . S
C584 H556 0.929 . S
C584 C587 1.391 . S
C584 C589 1.391 . S
C585 H557 0.929 . S
C585 C586 1.390 . S
C585 N588 1.391 . S
C586 H558 0.930 . S
C586 C585 1.390 . S
C586 C587 1.392 . S
C587 H559 0.929 . S
C587 C584 1.391 . S
C587 C586 1.392 . S
N588 Co532 2.257 . S
N588 C585 1.391 . S
N588 C589 1.388 . S
C589 H560 0.930 . S
C589 C584 1.391 . S
C589 N588 1.388 . S
Co590 O592 2.143 . S
Co590 O598 2.074 . S
Co590 O601 2.093 . S
Co590 O614 2.097 . S
Co590 N631 2.151 . S
Co590 N639 2.214 . S
Co591 O592 2.160 . S
Co591 O597 2.058 . S
Co591 O607 2.057 . S
Co591 O622 2.037 . S
Co591 N626 2.145 . S
Co591 N647 2.257 . S
O592 Co590 2.143 . S
O592 Co591 2.160 . S
C593 O594 1.278 . S
C593 O601 1.224 . S
O594 C593 1.278 . S
C595 O596 1.245 . S
C595 O607 1.232 . S
O596 C595 1.245 . S
O597 Co591 2.058 . S
O597 C623 1.269 . S
O598 Co590 2.074 . S
O598 C623 1.257 . S
H599 C624 0.930 . S
H600 C630 0.930 . S
O601 Co590 2.093 . S
O601 C593 1.224 . S
H602 C634 0.929 . S
H603 C636 0.930 . S
H604 C637 0.930 . S
H605 C635 0.929 . S
H606 C638 0.928 . S
O607 Co591 2.057 . S
O607 C595 1.232 . S
H608 C627 0.929 . S
H609 C628 0.929 . S
H610 C640 0.931 . S
H611 C632 0.929 . S
H612 C641 0.930 . S
H613 C633 0.931 . S
O614 Co590 2.097 . S
O614 C642 1.214 . S
H615 C643 0.929 . S
H616 C644 0.929 . S
H617 C645 0.930 . S
H618 C646 0.929 . S
H619 C648 0.930 . S
H620 C625 0.930 . S
H621 C629 0.930 . S
O622 Co591 2.037 . S
O622 C642 1.234 . S
C623 O597 1.269 . S
C623 O598 1.257 . S
C624 H599 0.930 . S
C624 C627 1.388 . S
C624 C629 1.418 . S
C625 H620 0.930 . S
C625 C628 1.404 . S
C625 C629 1.353 . S
N626 Co591 2.145 . S
N626 C627 1.397 . S
N626 C628 1.334 . S
C627 H608 0.929 . S
C627 C624 1.388 . S
C627 N626 1.397 . S
C628 H609 0.929 . S
C628 C625 1.404 . S
C628 N626 1.334 . S
C629 H621 0.930 . S
C629 C624 1.418 . S
C629 C625 1.353 . S
C630 H600 0.930 . S
C630 N631 1.330 . S
C630 C632 1.446 . S
N631 Co590 2.151 . S
N631 C630 1.330 . S
N631 C635 1.418 . S
C632 H611 0.929 . S
C632 C630 1.446 . S
C632 C633 1.332 . S
C633 H613 0.931 . S
C633 C632 1.332 . S
C633 C634 1.267 . S
C634 H602 0.929 . S
C634 C633 1.267 . S
C634 C635 1.251 . S
C635 H605 0.929 . S
C635 N631 1.418 . S
C635 C634 1.251 . S
C636 H603 0.930 . S
C636 C638 1.406 . S
C636 C641 1.261 . S
C637 H604 0.930 . S
C637 N639 1.325 . S
C637 C640 1.357 . S
C638 H606 0.928 . S
C638 C636 1.406 . S
C638 N639 1.261 . S
N639 Co590 2.214 . S
N639 C637 1.325 . S
N639 C638 1.261 . S
C640 H610 0.931 . S
C640 C637 1.357 . S
C640 C641 1.312 . S
C641 H612 0.930 . S
C641 C636 1.261 . S
C641 C640 1.312 . S
C642 O614 1.214 . S
C642 O622 1.234 . S
C643 H615 0.929 . S
C643 C646 1.391 . S
C643 C648 1.391 . S
C644 H616 0.929 . S
C644 C645 1.390 . S
C644 N647 1.391 . S
C645 H617 0.930 . S
C645 C644 1.390 . S
C645 C646 1.392 . S
C646 H618 0.929 . S
C646 C643 1.391 . S
C646 C645 1.392 . S
N647 Co591 2.257 . S
N647 C644 1.391 . S
N647 C648 1.388 . S
C648 H619 0.930 . S
C648 C643 1.391 . S
C648 N647 1.388 . S
Co649 O651 2.143 . S
Co649 O657 2.074 . S
Co649 O660 2.093 . S
Co649 O673 2.097 . S
Co649 N690 2.151 . S
Co649 N698 2.214 1_556 S
Co650 O651 2.160 . S
Co650 O656 2.058 . S
Co650 O666 2.057 . S
Co650 O681 2.037 . S
Co650 N685 2.145 . S
Co650 N706 2.257 . S
O651 Co649 2.143 . S
O651 Co650 2.160 . S
C652 O653 1.278 . S
C652 O660 1.224 . S
O653 C652 1.278 . S
C654 O655 1.245 . S
C654 O666 1.232 . S
O655 C654 1.245 . S
O656 Co650 2.058 . S
O656 C682 1.269 . S
O657 Co649 2.074 . S
O657 C682 1.257 . S
H658 C683 0.930 . S
H659 C689 0.930 . S
O660 Co649 2.093 . S
O660 C652 1.224 . S
H661 C693 0.929 . S
H662 C695 0.930 . S
H663 C696 0.930 . S
H664 C694 0.929 . S
H665 C697 0.928 . S
O666 Co650 2.057 . S
O666 C654 1.232 . S
H667 C686 0.929 . S
H668 C687 0.929 . S
H669 C699 0.931 . S
H670 C691 0.929 . S
H671 C700 0.930 . S
H672 C692 0.931 . S
O673 Co649 2.097 . S
O673 C701 1.214 . S
H674 C702 0.929 . S
H675 C703 0.929 . S
H676 C704 0.930 . S
H677 C705 0.929 . S
H678 C707 0.930 . S
H679 C684 0.930 . S
H680 C688 0.930 . S
O681 Co650 2.037 . S
O681 C701 1.234 . S
C682 O656 1.269 . S
C682 O657 1.257 . S
C683 H658 0.930 . S
C683 C686 1.388 . S
C683 C688 1.418 . S
C684 H679 0.930 . S
C684 C687 1.404 . S
C684 C688 1.353 . S
N685 Co650 2.145 . S
N685 C686 1.397 . S
N685 C687 1.334 . S
C686 H667 0.929 . S
C686 C683 1.388 . S
C686 N685 1.397 . S
C687 H668 0.929 . S
C687 C684 1.404 . S
C687 N685 1.334 . S
C688 H680 0.930 . S
C688 C683 1.418 . S
C688 C684 1.353 . S
C689 H659 0.930 . S
C689 N690 1.330 . S
C689 C691 1.446 . S
N690 Co649 2.151 . S
N690 C689 1.330 . S
N690 C694 1.418 . S
C691 H670 0.929 . S
C691 C689 1.446 . S
C691 C692 1.332 . S
C692 H672 0.931 . S
C692 C691 1.332 . S
C692 C693 1.267 . S
C693 H661 0.929 . S
C693 C692 1.267 . S
C693 C694 1.251 . S
C694 H664 0.929 . S
C694 N690 1.418 . S
C694 C693 1.251 . S
C695 H662 0.930 . S
C695 C697 1.406 . S
C695 C700 1.261 . S
C696 H663 0.930 . S
C696 N698 1.325 . S
C696 C699 1.357 . S
C697 H665 0.928 . S
C697 C695 1.406 . S
C697 N698 1.261 . S
N698 Co649 2.214 1_554 S
N698 C696 1.325 . S
N698 C697 1.261 . S
C699 H669 0.931 . S
C699 C696 1.357 . S
C699 C700 1.312 . S
C700 H671 0.930 . S
C700 C695 1.261 . S
C700 C699 1.312 . S
C701 O673 1.214 . S
C701 O681 1.234 . S
C702 H674 0.929 . S
C702 C705 1.391 . S
C702 C707 1.391 . S
C703 H675 0.929 . S
C703 C704 1.390 . S
C703 N706 1.391 . S
C704 H676 0.930 . S
C704 C703 1.390 . S
C704 C705 1.392 . S
C705 H677 0.929 . S
C705 C702 1.391 . S
C705 C704 1.392 . S
N706 Co650 2.257 . S
N706 C703 1.391 . S
N706 C707 1.388 . S
C707 H678 0.930 . S
C707 C702 1.391 . S
C707 N706 1.388 . S
H708 C716 0.929 . S
H709 C718 0.930 . S
H710 C720 0.930 . S
H711 C723 0.929 . S
H712 C726 0.930 . S
H713 C728 0.960 . S
H714 C728 0.960 . S
H715 C728 0.960 . S
C716 H708 0.929 . S
C716 C717 1.377 . S
C716 C718 1.384 . S
C717 C716 1.377 . S
C717 C723 1.390 . S
C718 H709 0.930 . S
C718 C716 1.384 . S
C718 C719 1.372 . S
C719 C718 1.372 . S
C719 C720 1.400 . S
C719 C724 1.490 . S
C720 H710 0.930 . S
C720 C719 1.400 . S
C720 C723 1.386 . S
H721 C737 0.930 . S
H722 C738 0.931 . S
C723 H711 0.929 . S
C723 C717 1.390 . S
C723 C720 1.386 . S
C724 C719 1.490 . S
C724 C726 1.395 . S
C724 C727 1.403 . S
H725 C731 0.930 . S
C726 H712 0.930 . S
C726 C724 1.395 . S
C726 C729 1.403 . S
C727 C724 1.403 . S
C727 C728 1.524 . S
C727 C731 1.400 . S
C728 H713 0.960 . S
C728 H714 0.960 . S
C728 H715 0.960 . S
C728 C727 1.524 . S
C729 C726 1.403 . S
C729 C730 1.392 . S
C729 C733 1.495 . S
C730 C729 1.392 . S
C730 C731 1.385 . S
C730 C732 1.478 . S
C731 H725 0.930 . S
C731 C727 1.400 . S
C731 C730 1.385 . S
C732 C730 1.478 . S
C732 C734 1.381 . S
C732 C738 1.383 . S
C733 C729 1.495 . S
C733 H739 0.959 . S
C733 H740 0.961 . S
C733 H741 0.960 . S
C734 C732 1.381 . S
C734 C735 1.394 . S
C734 H742 0.930 . S
C735 C734 1.394 . S
C735 C736 1.383 . S
C735 H743 0.929 . S
C736 C735 1.383 . S
C736 C737 1.377 . S
C737 H721 0.930 . S
C737 C736 1.377 . S
C737 C738 1.379 . S
C738 H722 0.931 . S
C738 C732 1.383 . S
C738 C737 1.379 . S
H739 C733 0.959 . S
H740 C733 0.961 . S
H741 C733 0.960 . S
H742 C734 0.930 . S
H743 C735 0.929 . S
H744 C752 0.929 . S
H745 C754 0.930 . S
H746 C756 0.930 . S
H747 C759 0.929 . S
H748 C762 0.930 . S
H749 C764 0.960 . S
H750 C764 0.960 . S
H751 C764 0.960 . S
C752 H744 0.929 . S
C752 C753 1.377 . S
C752 C754 1.384 . S
C753 C752 1.377 . S
C753 C759 1.390 . S
C754 H745 0.930 . S
C754 C752 1.384 . S
C754 C755 1.372 . S
C755 C754 1.372 . S
C755 C756 1.400 . S
C755 C760 1.490 . S
C756 H746 0.930 . S
C756 C755 1.400 . S
C756 C759 1.386 . S
H757 C773 0.930 . S
H758 C774 0.931 . S
C759 H747 0.929 . S
C759 C753 1.390 . S
C759 C756 1.386 . S
C760 C755 1.490 . S
C760 C762 1.395 . S
C760 C763 1.403 . S
H761 C767 0.930 . S
C762 H748 0.930 . S
C762 C760 1.395 . S
C762 C765 1.403 . S
C763 C760 1.403 . S
C763 C764 1.524 . S
C763 C767 1.400 . S
C764 H749 0.960 . S
C764 H750 0.960 . S
C764 H751 0.960 . S
C764 C763 1.524 . S
C765 C762 1.403 . S
C765 C766 1.392 . S
C765 C769 1.495 . S
C766 C765 1.392 . S
C766 C767 1.385 . S
C766 C768 1.478 . S
C767 H761 0.930 . S
C767 C763 1.400 . S
C767 C766 1.385 . S
C768 C766 1.478 . S
C768 C770 1.381 . S
C768 C774 1.383 . S
C769 C765 1.495 . S
C769 H775 0.959 . S
C769 H776 0.961 . S
C769 H777 0.960 . S
C770 C768 1.381 . S
C770 C771 1.394 . S
C770 H778 0.930 . S
C771 C770 1.394 . S
C771 C772 1.383 . S
C771 H779 0.929 . S
C772 C771 1.383 . S
C772 C773 1.377 . S
C773 H757 0.930 . S
C773 C772 1.377 . S
C773 C774 1.379 . S
C774 H758 0.931 . S
C774 C768 1.383 . S
C774 C773 1.379 . S
H775 C769 0.959 . S
H776 C769 0.961 . S
H777 C769 0.960 . S
H778 C770 0.930 . S
H779 C771 0.929 . S
H780 C788 0.929 . S
H781 C790 0.930 . S
H782 C792 0.930 . S
H783 C795 0.929 . S
H784 C798 0.930 . S
H785 C800 0.960 . S
H786 C800 0.960 . S
H787 C800 0.960 . S
C788 H780 0.929 . S
C788 C789 1.377 . S
C788 C790 1.384 . S
C789 C788 1.377 . S
C789 C795 1.390 . S
C790 H781 0.930 . S
C790 C788 1.384 . S
C790 C791 1.372 . S
C791 C790 1.372 . S
C791 C792 1.400 . S
C791 C796 1.490 . S
C792 H782 0.930 . S
C792 C791 1.400 . S
C792 C795 1.386 . S
H793 C809 0.930 . S
H794 C810 0.931 . S
C795 H783 0.929 . S
C795 C789 1.390 . S
C795 C792 1.386 . S
C796 C791 1.490 . S
C796 C798 1.395 . S
C796 C799 1.403 . S
H797 C803 0.930 . S
C798 H784 0.930 . S
C798 C796 1.395 . S
C798 C801 1.403 . S
C799 C796 1.403 . S
C799 C800 1.524 . S
C799 C803 1.400 . S
C800 H785 0.960 . S
C800 H786 0.960 . S
C800 H787 0.960 . S
C800 C799 1.524 . S
C801 C798 1.403 . S
C801 C802 1.392 . S
C801 C805 1.495 . S
C802 C801 1.392 . S
C802 C803 1.385 . S
C802 C804 1.478 . S
C803 H797 0.930 . S
C803 C799 1.400 . S
C803 C802 1.385 . S
C804 C802 1.478 . S
C804 C806 1.381 . S
C804 C810 1.383 . S
C805 C801 1.495 . S
C805 H811 0.959 . S
C805 H812 0.961 . S
C805 H813 0.960 . S
C806 C804 1.381 . S
C806 C807 1.394 . S
C806 H814 0.930 . S
C807 C806 1.394 . S
C807 C808 1.383 . S
C807 H815 0.929 . S
C808 C807 1.383 . S
C808 C809 1.377 . S
C809 H793 0.930 . S
C809 C808 1.377 . S
C809 C810 1.379 . S
C810 H794 0.931 . S
C810 C804 1.383 . S
C810 C809 1.379 . S
H811 C805 0.959 . S
H812 C805 0.961 . S
H813 C805 0.960 . S
H814 C806 0.930 . S
H815 C807 0.929 . S
H816 C824 0.929 . S
H817 C826 0.930 . S
H818 C828 0.930 . S
H819 C831 0.929 . S
H820 C834 0.930 . S
H821 C836 0.960 . S
H822 C836 0.960 . S
H823 C836 0.960 . S
C824 H816 0.929 . S
C824 C825 1.377 . S
C824 C826 1.384 . S
C825 C824 1.377 . S
C825 C831 1.390 . S
C826 H817 0.930 . S
C826 C824 1.384 . S
C826 C827 1.372 . S
C827 C826 1.372 . S
C827 C828 1.400 . S
C827 C832 1.490 . S
C828 H818 0.930 . S
C828 C827 1.400 . S
C828 C831 1.386 . S
H829 C845 0.930 . S
H830 C846 0.931 . S
C831 H819 0.929 . S
C831 C825 1.390 . S
C831 C828 1.386 . S
C832 C827 1.490 . S
C832 C834 1.395 . S
C832 C835 1.403 . S
H833 C839 0.930 . S
C834 H820 0.930 . S
C834 C832 1.395 . S
C834 C837 1.403 . S
C835 C832 1.403 . S
C835 C836 1.524 . S
C835 C839 1.400 . S
C836 H821 0.960 . S
C836 H822 0.960 . S
C836 H823 0.960 . S
C836 C835 1.524 . S
C837 C834 1.403 . S
C837 C838 1.392 . S
C837 C841 1.495 . S
C838 C837 1.392 . S
C838 C839 1.385 . S
C838 C840 1.478 . S
C839 H833 0.930 . S
C839 C835 1.400 . S
C839 C838 1.385 . S
C840 C838 1.478 . S
C840 C842 1.381 . S
C840 C846 1.383 . S
C841 C837 1.495 . S
C841 H847 0.959 . S
C841 H848 0.961 . S
C841 H849 0.960 . S
C842 C840 1.381 . S
C842 C843 1.394 . S
C842 H850 0.930 . S
C843 C842 1.394 . S
C843 C844 1.383 . S
C843 H851 0.929 . S
C844 C843 1.383 . S
C844 C845 1.377 . S
C845 H829 0.930 . S
C845 C844 1.377 . S
C845 C846 1.379 . S
C846 H830 0.931 . S
C846 C840 1.383 . S
C846 C845 1.379 . S
H847 C841 0.959 . S
H848 C841 0.961 . S
H849 C841 0.960 . S
H850 C842 0.930 . S
H851 C843 0.929 . S
H852 C860 0.929 . S
H853 C862 0.930 . S
H854 C864 0.930 . S
H855 C867 0.929 . S
H856 C870 0.930 . S
H857 C872 0.960 . S
H858 C872 0.960 . S
H859 C872 0.960 . S
C860 H852 0.929 . S
C860 C861 1.377 . S
C860 C862 1.384 . S
C861 C860 1.377 . S
C861 C867 1.390 . S
C862 H853 0.930 . S
C862 C860 1.384 . S
C862 C863 1.372 . S
C863 C862 1.372 . S
C863 C864 1.400 . S
C863 C868 1.490 . S
C864 H854 0.930 . S
C864 C863 1.400 . S
C864 C867 1.386 . S
H865 C881 0.930 . S
H866 C882 0.931 . S
C867 H855 0.929 . S
C867 C861 1.390 . S
C867 C864 1.386 . S
C868 C863 1.490 . S
C868 C870 1.395 . S
C868 C871 1.403 . S
H869 C875 0.930 . S
C870 H856 0.930 . S
C870 C868 1.395 . S
C870 C873 1.403 . S
C871 C868 1.403 . S
C871 C872 1.524 . S
C871 C875 1.400 . S
C872 H857 0.960 . S
C872 H858 0.960 . S
C872 H859 0.960 . S
C872 C871 1.524 . S
C873 C870 1.403 . S
C873 C874 1.392 . S
C873 C877 1.495 . S
C874 C873 1.392 . S
C874 C875 1.385 . S
C874 C876 1.478 . S
C875 H869 0.930 . S
C875 C871 1.400 . S
C875 C874 1.385 . S
C876 C874 1.478 . S
C876 C878 1.381 . S
C876 C882 1.383 . S
C877 C873 1.495 . S
C877 H883 0.959 . S
C877 H884 0.961 . S
C877 H885 0.960 . S
C878 C876 1.381 . S
C878 C879 1.394 . S
C878 H886 0.930 . S
C879 C878 1.394 . S
C879 C880 1.383 . S
C879 H887 0.929 . S
C880 C879 1.383 . S
C880 C881 1.377 . S
C881 H865 0.930 . S
C881 C880 1.377 . S
C881 C882 1.379 . S
C882 H866 0.931 . S
C882 C876 1.383 . S
C882 C881 1.379 . S
H883 C877 0.959 . S
H884 C877 0.961 . S
H885 C877 0.960 . S
H886 C878 0.930 . S
H887 C879 0.929 . S
H888 C896 0.929 . S
H889 C898 0.930 . S
H890 C900 0.930 . S
H891 C903 0.929 . S
H892 C906 0.930 . S
H893 C908 0.960 . S
H894 C908 0.960 . S
H895 C908 0.960 . S
C896 H888 0.929 . S
C896 C897 1.377 . S
C896 C898 1.384 . S
C897 C896 1.377 . S
C897 C903 1.390 . S
C898 H889 0.930 . S
C898 C896 1.384 . S
C898 C899 1.372 . S
C899 C898 1.372 . S
C899 C900 1.400 . S
C899 C904 1.490 . S
C900 H890 0.930 . S
C900 C899 1.400 . S
C900 C903 1.386 . S
H901 C917 0.930 . S
H902 C918 0.931 . S
C903 H891 0.929 . S
C903 C897 1.390 . S
C903 C900 1.386 . S
C904 C899 1.490 . S
C904 C906 1.395 . S
C904 C907 1.403 . S
H905 C911 0.930 . S
C906 H892 0.930 . S
C906 C904 1.395 . S
C906 C909 1.403 . S
C907 C904 1.403 . S
C907 C908 1.524 . S
C907 C911 1.400 . S
C908 H893 0.960 . S
C908 H894 0.960 . S
C908 H895 0.960 . S
C908 C907 1.524 . S
C909 C906 1.403 . S
C909 C910 1.392 . S
C909 C913 1.495 . S
C910 C909 1.392 . S
C910 C911 1.385 . S
C910 C912 1.478 . S
C911 H905 0.930 . S
C911 C907 1.400 . S
C911 C910 1.385 . S
C912 C910 1.478 . S
C912 C914 1.381 . S
C912 C918 1.383 . S
C913 C909 1.495 . S
C913 H919 0.959 . S
C913 H920 0.961 . S
C913 H921 0.960 . S
C914 C912 1.381 . S
C914 C915 1.394 . S
C914 H922 0.930 . S
C915 C914 1.394 . S
C915 C916 1.383 . S
C915 H923 0.929 . S
C916 C915 1.383 . S
C916 C917 1.377 . S
C917 H901 0.930 . S
C917 C916 1.377 . S
C917 C918 1.379 . S
C918 H902 0.931 . S
C918 C912 1.383 . S
C918 C917 1.379 . S
H919 C913 0.959 . S
H920 C913 0.961 . S
H921 C913 0.960 . S
H922 C914 0.930 . S
H923 C915 0.929 . S
H924 C932 0.929 . S
H925 C934 0.930 1_556 S
H926 C936 0.930 . S
H927 C939 0.929 . S
H928 C942 0.930 . S
H929 C944 0.960 . S
H930 C944 0.960 . S
H931 C944 0.960 . S
C932 H924 0.929 . S
C932 C933 1.377 . S
C932 C934 1.384 . S
C933 C932 1.377 . S
C933 C939 1.390 . S
C934 H925 0.930 1_554 S
C934 C932 1.384 . S
C934 C935 1.372 . S
C935 C934 1.372 . S
C935 C936 1.400 . S
C935 C940 1.490 . S
C936 H926 0.930 . S
C936 C935 1.400 . S
C936 C939 1.386 . S
H937 C953 0.930 . S
H938 C954 0.931 1_554 S
C939 H927 0.929 . S
C939 C933 1.390 . S
C939 C936 1.386 . S
C940 C935 1.490 . S
C940 C942 1.395 1_554 S
C940 C943 1.403 . S
H941 C947 0.930 . S
C942 H928 0.930 . S
C942 C940 1.395 1_556 S
C942 C945 1.403 1_545 S
C943 C940 1.403 . S
C943 C944 1.524 . S
C943 C947 1.400 1_545 S
C944 H929 0.960 . S
C944 H930 0.960 . S
C944 H931 0.960 . S
C944 C943 1.524 . S
C945 C942 1.403 1_565 S
C945 C946 1.392 . S
C945 C949 1.495 . S
C946 C945 1.392 . S
C946 C947 1.385 1_556 S
C946 C948 1.478 . S
C947 H941 0.930 . S
C947 C943 1.400 1_565 S
C947 C946 1.385 1_554 S
C948 C946 1.478 . S
C948 C950 1.381 . S
C948 C954 1.383 . S
C949 C945 1.495 . S
C949 H955 0.959 . S
C949 H956 0.961 . S
C949 H957 0.960 . S
C950 C948 1.381 . S
C950 C951 1.394 . S
C950 H958 0.930 . S
C951 C950 1.394 . S
C951 C952 1.383 . S
C951 H959 0.929 . S
C952 C951 1.383 . S
C952 C953 1.377 . S
C953 H937 0.930 . S
C953 C952 1.377 . S
C953 C954 1.379 . S
C954 H938 0.931 1_556 S
C954 C948 1.383 . S
C954 C953 1.379 . S
H955 C949 0.959 . S
H956 C949 0.961 . S
H957 C949 0.960 . S
H958 C950 0.930 . S
H959 C951 0.929 . S
H960 C968 0.929 . S
H961 C970 0.930 . S
H962 C972 0.930 . S
H963 C975 0.929 . S
H964 C978 0.930 . S
H965 C980 0.960 . S
H966 C980 0.960 . S
H967 C980 0.960 . S
C968 H960 0.929 . S
C968 C969 1.377 . S
C968 C970 1.384 . S
C969 C968 1.377 . S
C969 C975 1.390 . S
C970 H961 0.930 . S
C970 C968 1.384 . S
C970 C971 1.372 . S
C971 C970 1.372 . S
C971 C972 1.400 . S
C971 C976 1.490 . S
C972 H962 0.930 . S
C972 C971 1.400 . S
C972 C975 1.386 . S
H973 C989 0.930 . S
H974 C990 0.931 . S
C975 H963 0.929 . S
C975 C969 1.390 . S
C975 C972 1.386 . S
C976 C971 1.490 . S
C976 C978 1.395 . S
C976 C979 1.403 . S
H977 C983 0.930 . S
C978 H964 0.930 . S
C978 C976 1.395 . S
C978 C981 1.403 . S
C979 C976 1.403 . S
C979 C980 1.524 . S
C979 C983 1.400 . S
C980 H965 0.960 . S
C980 H966 0.960 . S
C980 H967 0.960 . S
C980 C979 1.524 . S
C981 C978 1.403 . S
C981 C982 1.392 . S
C981 C985 1.495 . S
C982 C981 1.392 . S
C982 C983 1.385 . S
C982 C984 1.478 . S
C983 H977 0.930 . S
C983 C979 1.400 . S
C983 C982 1.385 . S
C984 C982 1.478 . S
C984 C986 1.381 . S
C984 C990 1.383 . S
C985 C981 1.495 . S
C985 H991 0.959 . S
C985 H992 0.961 . S
C985 H993 0.960 . S
C986 C984 1.381 . S
C986 C987 1.394 . S
C986 H994 0.930 . S
C987 C986 1.394 . S
C987 C988 1.383 . S
C987 H995 0.929 . S
C988 C987 1.383 . S
C988 C989 1.377 . S
C989 H973 0.930 . S
C989 C988 1.377 . S
C989 C990 1.379 . S
C990 H974 0.931 . S
C990 C984 1.383 . S
C990 C989 1.379 . S
H991 C985 0.959 . S
H992 C985 0.961 . S
H993 C985 0.960 . S
H994 C986 0.930 . S
H995 C987 0.929 . S
H996 C1004 0.929 . S
H997 C1006 0.930 1_554 S
H998 C1008 0.930 . S
H999 C1011 0.929 . S
H1000 C1014 0.930 . S
H1001 C1016 0.960 . S
H1002 C1016 0.960 . S
H1003 C1016 0.960 . S
C1004 H996 0.929 . S
C1004 C1005 1.377 . S
C1004 C1006 1.384 . S
C1005 C1004 1.377 . S
C1005 C1011 1.390 . S
C1006 H997 0.930 1_556 S
C1006 C1004 1.384 . S
C1006 C1007 1.372 . S
C1007 C1006 1.372 . S
C1007 C1008 1.400 . S
C1007 C1012 1.490 . S
C1008 H998 0.930 . S
C1008 C1007 1.400 . S
C1008 C1011 1.386 . S
H1009 C1025 0.930 . S
H1010 C1026 0.931 1_556 S
C1011 H999 0.929 . S
C1011 C1005 1.390 . S
C1011 C1008 1.386 . S
C1012 C1007 1.490 . S
C1012 C1014 1.395 . S
C1012 C1015 1.403 1_556 S
H1013 C1019 0.930 . S
C1014 H1000 0.930 . S
C1014 C1012 1.395 . S
C1014 C1017 1.403 1_455 S
C1015 C1012 1.403 1_554 S
C1015 C1016 1.524 . S
C1015 C1019 1.400 1_455 S
C1016 H1001 0.960 . S
C1016 H1002 0.960 . S
C1016 H1003 0.960 . S
C1016 C1015 1.524 . S
C1017 C1014 1.403 1_655 S
C1017 C1018 1.392 1_556 S
C1017 C1021 1.495 . S
C1018 C1017 1.392 1_554 S
C1018 C1019 1.385 . S
C1018 C1020 1.478 . S
C1019 H1013 0.930 . S
C1019 C1015 1.400 1_655 S
C1019 C1018 1.385 . S
C1020 C1018 1.478 . S
C1020 C1022 1.381 . S
C1020 C1026 1.383 . S
C1021 C1017 1.495 . S
C1021 H1027 0.959 . S
C1021 H1028 0.961 . S
C1021 H1029 0.960 . S
C1022 C1020 1.381 . S
C1022 C1023 1.394 . S
C1022 H1030 0.930 . S
C1023 C1022 1.394 . S
C1023 C1024 1.383 . S
C1023 H1031 0.929 . S
C1024 C1023 1.383 . S
C1024 C1025 1.377 . S
C1025 H1009 0.930 . S
C1025 C1024 1.377 . S
C1025 C1026 1.379 . S
C1026 H1010 0.931 1_554 S
C1026 C1020 1.383 . S
C1026 C1025 1.379 . S
H1027 C1021 0.959 . S
H1028 C1021 0.961 . S
H1029 C1021 0.960 . S
H1030 C1022 0.930 . S
H1031 C1023 0.929 . S
H1032 C1040 0.929 . S
H1033 C1042 0.930 . S
H1034 C1044 0.930 . S
H1035 C1047 0.929 . S
H1036 C1050 0.930 . S
H1037 C1052 0.960 . S
H1038 C1052 0.960 . S
H1039 C1052 0.960 . S
C1040 H1032 0.929 . S
C1040 C1041 1.377 . S
C1040 C1042 1.384 . S
C1041 C1040 1.377 . S
C1041 C1047 1.390 . S
C1042 H1033 0.930 . S
C1042 C1040 1.384 . S
C1042 C1043 1.372 . S
C1043 C1042 1.372 . S
C1043 C1044 1.400 . S
C1043 C1048 1.490 . S
C1044 H1034 0.930 . S
C1044 C1043 1.400 . S
C1044 C1047 1.386 . S
H1045 C1061 0.930 . S
H1046 C1062 0.931 . S
C1047 H1035 0.929 . S
C1047 C1041 1.390 . S
C1047 C1044 1.386 . S
C1048 C1043 1.490 . S
C1048 C1050 1.395 1_545 S
C1048 C1051 1.403 . S
H1049 C1055 0.930 . S
C1050 H1036 0.930 . S
C1050 C1048 1.395 1_565 S
C1050 C1053 1.403 . S
C1051 C1048 1.403 . S
C1051 C1052 1.524 . S
C1051 C1055 1.400 1_545 S
C1052 H1037 0.960 . S
C1052 H1038 0.960 . S
C1052 H1039 0.960 . S
C1052 C1051 1.524 . S
C1053 C1050 1.403 . S
C1053 C1054 1.392 . S
C1053 C1057 1.495 . S
C1054 C1053 1.392 . S
C1054 C1055 1.385 . S
C1054 C1056 1.478 . S
C1055 H1049 0.930 . S
C1055 C1051 1.400 1_565 S
C1055 C1054 1.385 . S
C1056 C1054 1.478 . S
C1056 C1058 1.381 . S
C1056 C1062 1.383 . S
C1057 C1053 1.495 . S
C1057 H1063 0.959 . S
C1057 H1064 0.961 . S
C1057 H1065 0.960 . S
C1058 C1056 1.381 . S
C1058 C1059 1.394 . S
C1058 H1066 0.930 . S
C1059 C1058 1.394 . S
C1059 C1060 1.383 . S
C1059 H1067 0.929 . S
C1060 C1059 1.383 . S
C1060 C1061 1.377 . S
C1061 H1045 0.930 . S
C1061 C1060 1.377 . S
C1061 C1062 1.379 . S
C1062 H1046 0.931 . S
C1062 C1056 1.383 . S
C1062 C1061 1.379 . S
H1063 C1057 0.959 . S
H1064 C1057 0.961 . S
H1065 C1057 0.960 . S
H1066 C1058 0.930 . S
H1067 C1059 0.929 . S
H1068 C1076 0.929 . S
H1069 C1078 0.930 . S
H1070 C1080 0.907 1_554 S
H1071 C1083 0.929 . S
H1072 C1086 0.930 . S
H1073 C1088 0.960 . S
H1074 C1088 0.960 . S
H1075 C1088 0.960 . S
C1076 H1068 0.929 . S
C1076 C1077 1.377 . S
C1076 C1078 1.384 . S
C1077 C1076 1.377 . S
C1077 C1083 1.390 . S
C1078 H1069 0.930 . S
C1078 C1076 1.384 . S
C1078 C1079 1.372 . S
C1079 C1078 1.372 . S
C1079 C1080 1.400 . S
C1079 C1084 1.490 . S
C1080 H1070 0.907 1_556 S
C1080 C1079 1.400 . S
C1080 C1083 1.386 . S
H1081 C1097 0.930 . S
H1082 C1098 0.931 . S
C1083 H1071 0.929 . S
C1083 C1077 1.390 . S
C1083 C1080 1.386 . S
C1084 C1079 1.490 . S
C1084 C1086 1.395 . S
C1084 C1087 1.403 1_556 S
H1085 C1091 0.930 . S
C1086 H1072 0.930 . S
C1086 C1084 1.395 . S
C1086 C1089 1.403 . S
C1087 C1084 1.403 1_554 S
C1087 C1088 1.524 . S
C1087 C1091 1.400 . S
C1088 H1073 0.960 . S
C1088 H1074 0.960 . S
C1088 H1075 0.960 . S
C1088 C1087 1.524 . S
C1089 C1086 1.403 . S
C1089 C1090 1.360 1_556 S
C1089 C1093 1.495 . S
C1090 C1089 1.360 1_554 S
C1090 C1091 1.410 . S
C1090 C1092 1.487 . S
C1091 H1085 0.930 . S
C1091 C1087 1.400 . S
C1091 C1090 1.410 . S
C1092 C1090 1.487 . S
C1092 C1094 1.381 . S
C1092 C1098 1.383 . S
C1093 C1089 1.495 . S
C1093 H1099 0.959 . S
C1093 H1100 0.961 . S
C1093 H1101 0.960 . S
C1094 C1092 1.381 . S
C1094 C1095 1.394 . S
C1094 H1102 0.930 1_554 S
C1095 C1094 1.394 . S
C1095 C1096 1.383 . S
C1095 H1103 0.929 . S
C1096 C1095 1.383 . S
C1096 C1097 1.377 . S
C1097 H1081 0.930 . S
C1097 C1096 1.377 . S
C1097 C1098 1.379 . S
C1098 H1082 0.931 . S
C1098 C1092 1.383 . S
C1098 C1097 1.379 . S
H1099 C1093 0.959 . S
H1100 C1093 0.961 . S
H1101 C1093 0.960 . S
H1102 C1094 0.930 1_556 S
H1103 C1095 0.929 . S
H1104 C1112 0.929 . S
H1105 C1114 0.930 . S
H1106 C1116 0.930 . S
H1107 C1119 0.929 . S
H1108 C1122 0.930 . S
H1109 C1124 0.963 1_455 S
H1110 C1124 0.960 . S
H1111 C1124 0.960 . S
C1112 H1104 0.929 . S
C1112 C1113 1.377 . S
C1112 C1114 1.384 . S
C1113 C1112 1.377 . S
C1113 C1119 1.390 . S
C1114 H1105 0.930 . S
C1114 C1112 1.384 . S
C1114 C1115 1.372 . S
C1115 C1114 1.372 . S
C1115 C1116 1.400 . S
C1115 C1120 1.490 . S
C1116 H1106 0.930 . S
C1116 C1115 1.400 . S
C1116 C1119 1.386 . S
H1117 C1133 0.930 . S
H1118 C1134 0.931 . S
C1119 H1107 0.929 . S
C1119 C1113 1.390 . S
C1119 C1116 1.386 . S
C1120 C1115 1.490 . S
C1120 C1122 1.395 . S
C1120 C1123 1.403 . S
H1121 C1127 0.930 . S
C1122 H1108 0.930 . S
C1122 C1120 1.395 . S
C1122 C1125 1.403 1_655 S
C1123 C1120 1.403 . S
C1123 C1124 1.524 . S
C1123 C1127 1.400 1_655 S
C1124 H1109 0.963 1_655 S
C1124 H1110 0.960 . S
C1124 H1111 0.960 . S
C1124 C1123 1.524 . S
C1125 C1122 1.403 1_455 S
C1125 C1126 1.392 . S
C1125 C1129 1.495 . S
C1126 C1125 1.392 . S
C1126 C1127 1.385 . S
C1126 C1128 1.478 . S
C1127 H1121 0.930 . S
C1127 C1123 1.400 1_455 S
C1127 C1126 1.385 . S
C1128 C1126 1.478 . S
C1128 C1130 1.381 . S
C1128 C1134 1.383 . S
C1129 C1125 1.495 . S
C1129 H1135 0.940 1_455 S
C1129 H1136 0.961 . S
C1129 H1137 0.960 . S
C1130 C1128 1.381 . S
C1130 C1131 1.394 . S
C1130 H1138 0.930 . S
C1131 C1130 1.394 . S
C1131 C1132 1.383 . S
C1131 H1139 0.929 . S
C1132 C1131 1.383 . S
C1132 C1133 1.377 . S
C1133 H1117 0.930 . S
C1133 C1132 1.377 . S
C1133 C1134 1.379 . S
C1134 H1118 0.931 . S
C1134 C1128 1.383 . S
C1134 C1133 1.379 . S
H1135 C1129 0.940 1_655 S
H1136 C1129 0.961 . S
H1137 C1129 0.960 . S
H1138 C1130 0.930 . S
H1139 C1131 0.929 . S
H1140 C1148 0.929 . S
H1141 C1150 0.930 . S
H1142 C1152 0.930 . S
H1143 C1155 0.929 . S
H1144 C1158 0.930 . S
H1145 C1160 0.960 . S
H1146 C1160 0.960 . S
H1147 C1160 0.960 . S
C1148 H1140 0.929 . S
C1148 C1149 1.377 . S
C1148 C1150 1.384 . S
C1149 C1148 1.377 . S
C1149 C1155 1.390 . S
C1150 H1141 0.930 . S
C1150 C1148 1.384 . S
C1150 C1151 1.372 . S
C1151 C1150 1.372 . S
C1151 C1152 1.400 . S
C1151 C1156 1.490 . S
C1152 H1142 0.930 . S
C1152 C1151 1.400 . S
C1152 C1155 1.386 . S
H1153 C1169 0.930 . S
H1154 C1170 0.931 . S
C1155 H1143 0.929 . S
C1155 C1149 1.390 . S
C1155 C1152 1.386 . S
C1156 C1151 1.490 . S
C1156 C1158 1.395 . S
C1156 C1159 1.403 . S
H1157 C1163 0.930 . S
C1158 H1144 0.930 . S
C1158 C1156 1.395 . S
C1158 C1161 1.403 . S
C1159 C1156 1.403 . S
C1159 C1160 1.524 . S
C1159 C1163 1.400 . S
C1160 H1145 0.960 . S
C1160 H1146 0.960 . S
C1160 H1147 0.960 . S
C1160 C1159 1.524 . S
C1161 C1158 1.403 . S
C1161 C1162 1.392 . S
C1161 C1165 1.495 . S
C1162 C1161 1.392 . S
C1162 C1163 1.385 . S
C1162 C1164 1.478 . S
C1163 H1157 0.930 . S
C1163 C1159 1.400 . S
C1163 C1162 1.385 . S
C1164 C1162 1.478 . S
C1164 C1166 1.381 . S
C1164 C1170 1.383 . S
C1165 C1161 1.495 . S
C1165 H1171 0.959 . S
C1165 H1172 0.961 . S
C1165 H1173 0.960 . S
C1166 C1164 1.381 . S
C1166 C1167 1.394 . S
C1166 H1174 0.930 . S
C1167 C1166 1.394 . S
C1167 C1168 1.383 . S
C1167 H1175 0.929 . S
C1168 C1167 1.383 . S
C1168 C1169 1.377 . S
C1169 H1153 0.930 . S
C1169 C1168 1.377 . S
C1169 C1170 1.379 . S
C1170 H1154 0.931 . S
C1170 C1164 1.383 . S
C1170 C1169 1.379 . S
H1171 C1165 0.959 . S
H1172 C1165 0.961 . S
H1173 C1165 0.960 . S
H1174 C1166 0.930 . S
H1175 C1167 0.929 . S
H1176 C1184 0.929 . S
H1177 C1186 0.930 . S
H1178 C1188 0.930 . S
H1179 C1191 0.929 . S
H1180 C1194 0.930 . S
H1181 C1196 0.960 . S
H1182 C1196 0.960 . S
H1183 C1196 0.960 . S
C1184 H1176 0.929 . S
C1184 C1185 1.377 . S
C1184 C1186 1.384 . S
C1185 C1184 1.377 . S
C1185 C1191 1.390 . S
C1186 H1177 0.930 . S
C1186 C1184 1.384 . S
C1186 C1187 1.372 . S
C1187 C1186 1.372 . S
C1187 C1188 1.400 . S
C1187 C1192 1.490 . S
C1188 H1178 0.930 . S
C1188 C1187 1.400 . S
C1188 C1191 1.386 . S
H1189 C1205 0.930 . S
H1190 C1206 0.931 . S
C1191 H1179 0.929 . S
C1191 C1185 1.390 . S
C1191 C1188 1.386 . S
C1192 C1187 1.490 . S
C1192 C1194 1.395 . S
C1192 C1195 1.403 . S
H1193 C1199 0.930 . S
C1194 H1180 0.930 . S
C1194 C1192 1.395 . S
C1194 C1197 1.403 . S
C1195 C1192 1.403 . S
C1195 C1196 1.524 . S
C1195 C1199 1.400 . S
C1196 H1181 0.960 . S
C1196 H1182 0.960 . S
C1196 H1183 0.960 . S
C1196 C1195 1.524 . S
C1197 C1194 1.403 . S
C1197 C1198 1.392 . S
C1197 C1201 1.495 . S
C1198 C1197 1.392 . S
C1198 C1199 1.385 . S
C1198 C1200 1.478 . S
C1199 H1193 0.930 . S
C1199 C1195 1.400 . S
C1199 C1198 1.385 . S
C1200 C1198 1.478 . S
C1200 C1202 1.381 . S
C1200 C1206 1.383 . S
C1201 C1197 1.495 . S
C1201 H1207 0.959 . S
C1201 H1208 0.961 . S
C1201 H1209 0.960 . S
C1202 C1200 1.381 . S
C1202 C1203 1.394 . S
C1202 H1210 0.930 . S
C1203 C1202 1.394 . S
C1203 C1204 1.383 . S
C1203 H1211 0.929 . S
C1204 C1203 1.383 . S
C1204 C1205 1.377 . S
C1205 H1189 0.930 . S
C1205 C1204 1.377 . S
C1205 C1206 1.379 . S
C1206 H1190 0.931 . S
C1206 C1200 1.383 . S
C1206 C1205 1.379 . S
H1207 C1201 0.959 . S
H1208 C1201 0.961 . S
H1209 C1201 0.960 . S
H1210 C1202 0.930 . S
H1211 C1203 0.929 . S
H1212 C1220 0.929 . S
H1213 C1222 0.930 . S
H1214 C1224 0.930 . S
H1215 C1227 0.929 . S
H1216 C1230 0.930 . S
H1217 C1232 0.960 . S
H1218 C1232 0.960 . S
H1219 C1232 0.960 . S
C1220 H1212 0.929 . S
C1220 C1221 1.377 . S
C1220 C1222 1.384 . S
C1221 C1220 1.377 . S
C1221 C1227 1.390 . S
C1222 H1213 0.930 . S
C1222 C1220 1.384 . S
C1222 C1223 1.372 . S
C1223 C1222 1.372 . S
C1223 C1224 1.400 . S
C1223 C1228 1.490 . S
C1224 H1214 0.930 . S
C1224 C1223 1.400 . S
C1224 C1227 1.386 . S
H1225 C1241 0.930 . S
H1226 C1242 0.931 . S
C1227 H1215 0.929 . S
C1227 C1221 1.390 . S
C1227 C1224 1.386 . S
C1228 C1223 1.490 . S
C1228 C1230 1.395 . S
C1228 C1231 1.403 . S
H1229 C1235 0.930 . S
C1230 H1216 0.930 . S
C1230 C1228 1.395 . S
C1230 C1233 1.403 . S
C1231 C1228 1.403 . S
C1231 C1232 1.524 . S
C1231 C1235 1.400 . S
C1232 H1217 0.960 . S
C1232 H1218 0.960 . S
C1232 H1219 0.960 . S
C1232 C1231 1.524 . S
C1233 C1230 1.403 . S
C1233 C1234 1.392 . S
C1233 C1237 1.495 . S
C1234 C1233 1.392 . S
C1234 C1235 1.385 . S
C1234 C1236 1.478 . S
C1235 H1229 0.930 . S
C1235 C1231 1.400 . S
C1235 C1234 1.385 . S
C1236 C1234 1.478 . S
C1236 C1238 1.381 . S
C1236 C1242 1.383 . S
C1237 C1233 1.495 . S
C1237 H1243 0.959 . S
C1237 H1244 0.961 . S
C1237 H1245 0.960 . S
C1238 C1236 1.381 . S
C1238 C1239 1.394 . S
C1238 H1246 0.930 . S
C1239 C1238 1.394 . S
C1239 C1240 1.383 . S
C1239 H1247 0.929 . S
C1240 C1239 1.383 . S
C1240 C1241 1.377 . S
C1241 H1225 0.930 . S
C1241 C1240 1.377 . S
C1241 C1242 1.379 . S
C1242 H1226 0.931 . S
C1242 C1236 1.383 . S
C1242 C1241 1.379 . S
H1243 C1237 0.959 . S
H1244 C1237 0.961 . S
H1245 C1237 0.960 . S
H1246 C1238 0.930 . S
H1247 C1239 0.929 . S
H1248 C1256 0.929 . S
H1249 C1258 0.930 . S
H1250 C1260 0.930 . S
H1251 C1263 0.929 . S
H1252 C1266 0.930 . S
H1253 C1268 0.960 . S
H1254 C1268 0.960 . S
H1255 C1268 0.960 . S
C1256 H1248 0.929 . S
C1256 C1257 1.377 . S
C1256 C1258 1.384 . S
C1257 C1256 1.377 . S
C1257 C1263 1.390 . S
C1258 H1249 0.930 . S
C1258 C1256 1.384 . S
C1258 C1259 1.372 . S
C1259 C1258 1.372 . S
C1259 C1260 1.400 . S
C1259 C1264 1.490 . S
C1260 H1250 0.930 . S
C1260 C1259 1.400 . S
C1260 C1263 1.386 . S
H1261 C1277 0.930 . S
H1262 C1278 0.931 . S
C1263 H1251 0.929 . S
C1263 C1257 1.390 . S
C1263 C1260 1.386 . S
C1264 C1259 1.490 . S
C1264 C1266 1.395 . S
C1264 C1267 1.403 . S
H1265 C1271 0.930 . S
C1266 H1252 0.930 . S
C1266 C1264 1.395 . S
C1266 C1269 1.403 . S
C1267 C1264 1.403 . S
C1267 C1268 1.524 . S
C1267 C1271 1.400 . S
C1268 H1253 0.960 . S
C1268 H1254 0.960 . S
C1268 H1255 0.960 . S
C1268 C1267 1.524 . S
C1269 C1266 1.403 . S
C1269 C1270 1.392 . S
C1269 C1273 1.495 . S
C1270 C1269 1.392 . S
C1270 C1271 1.385 . S
C1270 C1272 1.478 . S
C1271 H1265 0.930 . S
C1271 C1267 1.400 . S
C1271 C1270 1.385 . S
C1272 C1270 1.478 . S
C1272 C1274 1.381 . S
C1272 C1278 1.383 . S
C1273 C1269 1.495 . S
C1273 H1279 0.959 . S
C1273 H1280 0.961 . S
C1273 H1281 0.960 . S
C1274 C1272 1.381 . S
C1274 C1275 1.394 . S
C1274 H1282 0.930 . S
C1275 C1274 1.394 . S
C1275 C1276 1.383 . S
C1275 H1283 0.929 . S
C1276 C1275 1.383 . S
C1276 C1277 1.377 . S
C1277 H1261 0.930 . S
C1277 C1276 1.377 . S
C1277 C1278 1.379 . S
C1278 H1262 0.931 . S
C1278 C1272 1.383 . S
C1278 C1277 1.379 . S
H1279 C1273 0.959 . S
H1280 C1273 0.961 . S
H1281 C1273 0.960 . S
H1282 C1274 0.930 . S
H1283 C1275 0.929 . S
H1284 C1292 0.929 . S
H1285 C1294 0.930 . S
H1286 C1296 0.930 . S
H1287 C1299 0.929 . S
H1288 C1302 0.930 . S
H1289 C1304 0.960 . S
H1290 C1304 0.960 . S
H1291 C1304 0.960 . S
C1292 H1284 0.929 . S
C1292 C1293 1.377 . S
C1292 C1294 1.384 . S
C1293 C1292 1.377 . S
C1293 C1299 1.390 . S
C1294 H1285 0.930 . S
C1294 C1292 1.384 . S
C1294 C1295 1.372 . S
C1295 C1294 1.372 . S
C1295 C1296 1.400 . S
C1295 C1300 1.490 . S
C1296 H1286 0.930 . S
C1296 C1295 1.400 . S
C1296 C1299 1.386 . S
H1297 C1313 0.930 . S
H1298 C1314 0.931 . S
C1299 H1287 0.929 . S
C1299 C1293 1.390 . S
C1299 C1296 1.386 . S
C1300 C1295 1.490 . S
C1300 C1302 1.395 . S
C1300 C1303 1.403 . S
H1301 C1307 0.930 . S
C1302 H1288 0.930 . S
C1302 C1300 1.395 . S
C1302 C1305 1.403 . S
C1303 C1300 1.403 . S
C1303 C1304 1.524 1_554 S
C1303 C1307 1.400 . S
C1304 H1289 0.960 . S
C1304 H1290 0.960 . S
C1304 H1291 0.960 . S
C1304 C1303 1.524 1_556 S
C1305 C1302 1.403 . S
C1305 C1306 1.392 . S
C1305 C1309 1.495 . S
C1306 C1305 1.392 . S
C1306 C1307 1.385 . S
C1306 C1308 1.478 . S
C1307 H1301 0.930 . S
C1307 C1303 1.400 . S
C1307 C1306 1.385 . S
C1308 C1306 1.478 . S
C1308 C1310 1.381 . S
C1308 C1314 1.383 . S
C1309 C1305 1.495 . S
C1309 H1315 0.959 . S
C1309 H1316 0.961 . S
C1309 H1317 0.960 . S
C1310 C1308 1.381 . S
C1310 C1311 1.394 . S
C1310 H1318 0.930 . S
C1311 C1310 1.394 . S
C1311 C1312 1.383 . S
C1311 H1319 0.929 . S
C1312 C1311 1.383 . S
C1312 C1313 1.377 . S
C1313 H1297 0.930 . S
C1313 C1312 1.377 . S
C1313 C1314 1.379 . S
C1314 H1298 0.931 . S
C1314 C1308 1.383 . S
C1314 C1313 1.379 . S
H1315 C1309 0.959 . S
H1316 C1309 0.961 . S
H1317 C1309 0.960 . S
H1318 C1310 0.930 . S
H1319 C1311 0.929 . S
H1320 C1328 0.929 . S
H1321 C1330 0.930 . S
H1322 C1332 0.930 . S
H1323 C1335 0.929 . S
H1324 C1338 0.930 . S
H1325 C1340 0.960 . S
H1326 C1340 0.960 . S
H1327 C1340 0.960 . S
C1328 H1320 0.929 . S
C1328 C1329 1.377 . S
C1328 C1330 1.384 . S
C1329 C1328 1.377 . S
C1329 C1335 1.390 . S
C1330 H1321 0.930 . S
C1330 C1328 1.384 . S
C1330 C1331 1.372 . S
C1331 C1330 1.372 . S
C1331 C1332 1.400 . S
C1331 C1336 1.490 . S
C1332 H1322 0.930 . S
C1332 C1331 1.400 . S
C1332 C1335 1.386 . S
H1333 C1349 0.930 . S
H1334 C1350 0.931 . S
C1335 H1323 0.929 . S
C1335 C1329 1.390 . S
C1335 C1332 1.386 . S
C1336 C1331 1.490 . S
C1336 C1338 1.395 . S
C1336 C1339 1.403 . S
H1337 C1343 0.930 . S
C1338 H1324 0.930 . S
C1338 C1336 1.395 . S
C1338 C1341 1.403 . S
C1339 C1336 1.403 . S
C1339 C1340 1.524 . S
C1339 C1343 1.400 . S
C1340 H1325 0.960 . S
C1340 H1326 0.960 . S
C1340 H1327 0.960 . S
C1340 C1339 1.524 . S
C1341 C1338 1.403 . S
C1341 C1342 1.392 . S
C1341 C1345 1.495 . S
C1342 C1341 1.392 . S
C1342 C1343 1.385 . S
C1342 C1344 1.478 . S
C1343 H1337 0.930 . S
C1343 C1339 1.400 . S
C1343 C1342 1.385 . S
C1344 C1342 1.478 . S
C1344 C1346 1.381 . S
C1344 C1350 1.383 . S
C1345 C1341 1.495 . S
C1345 H1351 0.959 . S
C1345 H1352 0.961 . S
C1345 H1353 0.960 . S
C1346 C1344 1.381 . S
C1346 C1347 1.394 . S
C1346 H1354 0.930 . S
C1347 C1346 1.394 . S
C1347 C1348 1.383 . S
C1347 H1355 0.929 . S
C1348 C1347 1.383 . S
C1348 C1349 1.377 . S
C1349 H1333 0.930 . S
C1349 C1348 1.377 . S
C1349 C1350 1.379 . S
C1350 H1334 0.931 . S
C1350 C1344 1.383 . S
C1350 C1349 1.379 . S
H1351 C1345 0.959 . S
H1352 C1345 0.961 . S
H1353 C1345 0.960 . S
H1354 C1346 0.930 . S
H1355 C1347 0.929 . S
H1356 C1364 0.929 . S
H1357 C1366 0.930 . S
H1358 C1368 0.930 . S
H1359 C1371 0.929 . S
H1360 C1374 0.930 . S
H1361 C1376 0.960 . S
H1362 C1376 0.960 . S
H1363 C1376 0.960 . S
C1364 H1356 0.929 . S
C1364 C1365 1.377 . S
C1364 C1366 1.384 . S
C1365 C1364 1.377 . S
C1365 C1371 1.390 . S
C1366 H1357 0.930 . S
C1366 C1364 1.384 . S
C1366 C1367 1.372 . S
C1367 C1366 1.372 . S
C1367 C1368 1.400 . S
C1367 C1372 1.490 . S
C1368 H1358 0.930 . S
C1368 C1367 1.400 . S
C1368 C1371 1.386 . S
H1369 C1385 0.930 . S
H1370 C1386 0.931 . S
C1371 H1359 0.929 . S
C1371 C1365 1.390 . S
C1371 C1368 1.386 . S
C1372 C1367 1.490 . S
C1372 C1374 1.395 . S
C1372 C1375 1.403 . S
H1373 C1379 0.930 . S
C1374 H1360 0.930 . S
C1374 C1372 1.395 . S
C1374 C1377 1.403 . S
C1375 C1372 1.403 . S
C1375 C1376 1.524 . S
C1375 C1379 1.400 . S
C1376 H1361 0.960 . S
C1376 H1362 0.960 . S
C1376 H1363 0.960 . S
C1376 C1375 1.524 . S
C1377 C1374 1.403 . S
C1377 C1378 1.392 . S
C1377 C1381 1.495 . S
C1378 C1377 1.392 . S
C1378 C1379 1.385 . S
C1378 C1380 1.478 . S
C1379 H1373 0.930 . S
C1379 C1375 1.400 . S
C1379 C1378 1.385 . S
C1380 C1378 1.478 . S
C1380 C1382 1.381 . S
C1380 C1386 1.383 . S
C1381 C1377 1.495 . S
C1381 H1387 0.959 . S
C1381 H1388 0.961 . S
C1381 H1389 0.960 . S
C1382 C1380 1.381 . S
C1382 C1383 1.394 . S
C1382 H1390 0.930 . S
C1383 C1382 1.394 . S
C1383 C1384 1.383 . S
C1383 H1391 0.929 . S
C1384 C1383 1.383 . S
C1384 C1385 1.377 . S
C1385 H1369 0.930 . S
C1385 C1384 1.377 . S
C1385 C1386 1.379 . S
C1386 H1370 0.931 . S
C1386 C1380 1.383 . S
C1386 C1385 1.379 . S
H1387 C1381 0.959 . S
H1388 C1381 0.961 . S
H1389 C1381 0.960 . S
H1390 C1382 0.930 . S
H1391 C1383 0.929 . S
H1392 C1400 0.929 . S
H1393 C1402 0.930 . S
H1394 C1404 0.930 . S
H1395 C1407 0.929 . S
H1396 C1410 0.930 . S
H1397 C1412 0.960 . S
H1398 C1412 0.960 . S
H1399 C1412 0.960 . S
C1400 H1392 0.929 . S
C1400 C1401 1.377 . S
C1400 C1402 1.384 . S
C1401 C1400 1.377 . S
C1401 C1407 1.390 . S
C1402 H1393 0.930 . S
C1402 C1400 1.384 . S
C1402 C1403 1.372 . S
C1403 C1402 1.372 . S
C1403 C1404 1.400 . S
C1403 C1408 1.490 . S
C1404 H1394 0.930 . S
C1404 C1403 1.400 . S
C1404 C1407 1.386 . S
H1405 C1421 0.930 . S
H1406 C1422 0.931 . S
C1407 H1395 0.929 . S
C1407 C1401 1.390 . S
C1407 C1404 1.386 . S
C1408 C1403 1.490 . S
C1408 C1410 1.395 . S
C1408 C1411 1.403 . S
H1409 C1415 0.930 . S
C1410 H1396 0.930 . S
C1410 C1408 1.395 . S
C1410 C1413 1.403 . S
C1411 C1408 1.403 . S
C1411 C1412 1.524 . S
C1411 C1415 1.400 . S
C1412 H1397 0.960 . S
C1412 H1398 0.960 . S
C1412 H1399 0.960 . S
C1412 C1411 1.524 . S
C1413 C1410 1.403 . S
C1413 C1414 1.392 . S
C1413 C1417 1.495 . S
C1414 C1413 1.392 . S
C1414 C1415 1.385 . S
C1414 C1416 1.478 . S
C1415 H1409 0.930 . S
C1415 C1411 1.400 . S
C1415 C1414 1.385 . S
C1416 C1414 1.478 . S
C1416 C1418 1.381 . S
C1416 C1422 1.383 . S
C1417 C1413 1.495 . S
C1417 H1423 0.959 1_556 S
C1417 H1424 0.958 1_556 S
C1417 H1425 0.960 . S
C1418 C1416 1.381 . S
C1418 C1419 1.394 . S
C1418 H1426 0.930 . S
C1419 C1418 1.394 . S
C1419 C1420 1.383 . S
C1419 H1427 0.929 . S
C1420 C1419 1.383 . S
C1420 C1421 1.377 . S
C1421 H1405 0.930 . S
C1421 C1420 1.377 . S
C1421 C1422 1.379 . S
C1422 H1406 0.931 . S
C1422 C1416 1.383 . S
C1422 C1421 1.379 . S
H1423 C1417 0.959 1_554 S
H1424 C1417 0.958 1_554 S
H1425 C1417 0.960 . S
H1426 C1418 0.930 . S
H1427 C1419 0.929 . S
H1428 C1436 0.929 . S
H1429 C1438 0.930 . S
H1430 C1440 0.930 . S
H1431 C1443 0.929 . S
H1432 C1446 0.930 . S
H1433 C1448 0.960 . S
H1434 C1448 0.960 . S
H1435 C1448 0.960 . S
C1436 H1428 0.929 . S
C1436 C1437 1.377 . S
C1436 C1438 1.384 . S
C1437 C1436 1.377 . S
C1437 C1443 1.390 . S
C1438 H1429 0.930 . S
C1438 C1436 1.384 . S
C1438 C1439 1.372 . S
C1439 C1438 1.372 . S
C1439 C1440 1.400 . S
C1439 C1444 1.490 . S
C1440 H1430 0.930 . S
C1440 C1439 1.400 . S
C1440 C1443 1.386 . S
H1441 C1457 0.930 . S
H1442 C1458 0.931 . S
C1443 H1431 0.929 . S
C1443 C1437 1.390 . S
C1443 C1440 1.386 . S
C1444 C1439 1.490 . S
C1444 C1446 1.395 . S
C1444 C1447 1.403 . S
H1445 C1451 0.930 . S
C1446 H1432 0.930 . S
C1446 C1444 1.395 . S
C1446 C1449 1.403 . S
C1447 C1444 1.403 . S
C1447 C1448 1.524 . S
C1447 C1451 1.400 . S
C1448 H1433 0.960 . S
C1448 H1434 0.960 . S
C1448 H1435 0.960 . S
C1448 C1447 1.524 . S
C1449 C1446 1.403 . S
C1449 C1450 1.392 . S
C1449 C1453 1.495 . S
C1450 C1449 1.392 . S
C1450 C1451 1.385 . S
C1450 C1452 1.478 . S
C1451 H1445 0.930 . S
C1451 C1447 1.400 . S
C1451 C1450 1.385 . S
C1452 C1450 1.478 . S
C1452 C1454 1.381 . S
C1452 C1458 1.383 . S
C1453 C1449 1.495 . S
C1453 H1459 0.959 . S
C1453 H1460 0.961 . S
C1453 H1461 0.960 . S
C1454 C1452 1.381 . S
C1454 C1455 1.394 . S
C1454 H1462 0.930 . S
C1455 C1454 1.394 . S
C1455 C1456 1.383 . S
C1455 H1463 0.929 . S
C1456 C1455 1.383 . S
C1456 C1457 1.377 . S
C1457 H1441 0.930 . S
C1457 C1456 1.377 . S
C1457 C1458 1.379 . S
C1458 H1442 0.931 . S
C1458 C1452 1.383 . S
C1458 C1457 1.379 . S
H1459 C1453 0.959 . S
H1460 C1453 0.961 . S
H1461 C1453 0.960 . S
H1462 C1454 0.930 . S
H1463 C1455 0.929 . S
H1464 C1472 0.929 . S
H1465 C1474 0.930 . S
H1466 C1476 0.930 . S
H1467 C1479 0.929 . S
H1468 C1482 0.930 . S
H1469 C1484 0.960 . S
H1470 C1484 0.960 . S
H1471 C1484 0.960 . S
C1472 H1464 0.929 . S
C1472 C1473 1.377 . S
C1472 C1474 1.384 . S
C1473 C1472 1.377 . S
C1473 C1479 1.390 . S
C1474 H1465 0.930 . S
C1474 C1472 1.384 . S
C1474 C1475 1.372 . S
C1475 C1474 1.372 . S
C1475 C1476 1.400 . S
C1475 C1480 1.490 . S
C1476 H1466 0.930 . S
C1476 C1475 1.400 . S
C1476 C1479 1.386 . S
H1477 C1493 0.930 . S
H1478 C1494 0.931 . S
C1479 H1467 0.929 . S
C1479 C1473 1.390 . S
C1479 C1476 1.386 . S
C1480 C1475 1.490 . S
C1480 C1482 1.395 . S
C1480 C1483 1.403 . S
H1481 C1487 0.930 . S
C1482 H1468 0.930 . S
C1482 C1480 1.395 . S
C1482 C1485 1.403 . S
C1483 C1480 1.403 . S
C1483 C1484 1.524 . S
C1483 C1487 1.400 . S
C1484 H1469 0.960 . S
C1484 H1470 0.960 . S
C1484 H1471 0.960 . S
C1484 C1483 1.524 . S
C1485 C1482 1.403 . S
C1485 C1486 1.392 . S
C1485 C1489 1.495 1_556 S
C1486 C1485 1.392 . S
C1486 C1487 1.385 . S
C1486 C1488 1.478 . S
C1487 H1481 0.930 . S
C1487 C1483 1.400 . S
C1487 C1486 1.385 . S
C1488 C1486 1.478 . S
C1488 C1490 1.381 . S
C1488 C1494 1.383 . S
C1489 C1485 1.495 1_554 S
C1489 H1495 0.959 . S
C1489 H1496 0.961 . S
C1489 H1497 0.962 . S
C1490 C1488 1.381 . S
C1490 C1491 1.394 . S
C1490 H1498 0.930 . S
C1491 C1490 1.394 . S
C1491 C1492 1.383 . S
C1491 H1499 0.929 . S
C1492 C1491 1.383 . S
C1492 C1493 1.377 . S
C1493 H1477 0.930 . S
C1493 C1492 1.377 . S
C1493 C1494 1.379 . S
C1494 H1478 0.931 . S
C1494 C1488 1.383 . S
C1494 C1493 1.379 . S
H1495 C1489 0.959 . S
H1496 C1489 0.961 . S
H1497 C1489 0.962 . S
H1498 C1490 0.930 . S
H1499 C1491 0.929 . S
H1500 C1508 0.929 . S
H1501 C1510 0.930 . S
H1502 C1512 0.930 . S
H1503 C1515 0.929 . S
H1504 C1518 0.930 . S
H1505 C1520 0.960 . S
H1506 C1520 0.960 . S
H1507 C1520 0.960 . S
C1508 H1500 0.929 . S
C1508 C1509 1.377 . S
C1508 C1510 1.384 . S
C1509 C1508 1.377 . S
C1509 C1515 1.390 . S
C1510 H1501 0.930 . S
C1510 C1508 1.384 . S
C1510 C1511 1.372 . S
C1511 C1510 1.372 . S
C1511 C1512 1.400 . S
C1511 C1516 1.490 . S
C1512 H1502 0.930 . S
C1512 C1511 1.400 . S
C1512 C1515 1.386 . S
H1513 C1529 0.930 . S
H1514 C1530 0.931 . S
C1515 H1503 0.929 . S
C1515 C1509 1.390 . S
C1515 C1512 1.386 . S
C1516 C1511 1.490 . S
C1516 C1518 1.395 . S
C1516 C1519 1.403 . S
H1517 C1523 0.930 . S
C1518 H1504 0.930 . S
C1518 C1516 1.395 . S
C1518 C1521 1.403 . S
C1519 C1516 1.403 . S
C1519 C1520 1.524 . S
C1519 C1523 1.400 . S
C1520 H1505 0.960 . S
C1520 H1506 0.960 . S
C1520 H1507 0.960 . S
C1520 C1519 1.524 . S
C1521 C1518 1.403 . S
C1521 C1522 1.392 . S
C1521 C1525 1.495 . S
C1522 C1521 1.392 . S
C1522 C1523 1.385 . S
C1522 C1524 1.478 . S
C1523 H1517 0.930 . S
C1523 C1519 1.400 . S
C1523 C1522 1.385 . S
C1524 C1522 1.478 . S
C1524 C1526 1.381 . S
C1524 C1530 1.383 . S
C1525 C1521 1.495 . S
C1525 H1531 0.959 . S
C1525 H1532 0.961 . S
C1525 H1533 0.960 . S
C1526 C1524 1.381 . S
C1526 C1527 1.394 . S
C1526 H1534 0.930 . S
C1527 C1526 1.394 . S
C1527 C1528 1.383 . S
C1527 H1535 0.929 . S
C1528 C1527 1.383 . S
C1528 C1529 1.377 . S
C1529 H1513 0.930 . S
C1529 C1528 1.377 . S
C1529 C1530 1.379 . S
C1530 H1514 0.931 . S
C1530 C1524 1.383 . S
C1530 C1529 1.379 . S
H1531 C1525 0.959 . S
H1532 C1525 0.961 . S
H1533 C1525 0.960 . S
H1534 C1526 0.930 . S
H1535 C1527 0.929 . S
H1536 C1544 0.929 . S
H1537 C1546 0.930 . S
H1538 C1548 0.930 . S
H1539 C1551 0.929 . S
H1540 C1554 0.930 . S
H1541 C1556 0.960 . S
H1542 C1556 0.960 . S
H1543 C1556 0.960 . S
C1544 H1536 0.929 . S
C1544 C1545 1.377 . S
C1544 C1546 1.384 . S
C1545 C1544 1.377 . S
C1545 C1551 1.390 . S
C1546 H1537 0.930 . S
C1546 C1544 1.384 . S
C1546 C1547 1.372 . S
C1547 C1546 1.372 . S
C1547 C1548 1.400 . S
C1547 C1552 1.490 . S
C1548 H1538 0.930 . S
C1548 C1547 1.400 . S
C1548 C1551 1.386 . S
H1549 C1565 0.930 . S
H1550 C1566 0.931 . S
C1551 H1539 0.929 . S
C1551 C1545 1.390 . S
C1551 C1548 1.386 . S
C1552 C1547 1.490 . S
C1552 C1554 1.395 . S
C1552 C1555 1.403 . S
H1553 C1559 0.930 . S
C1554 H1540 0.930 . S
C1554 C1552 1.395 . S
C1554 C1557 1.403 . S
C1555 C1552 1.403 . S
C1555 C1556 1.524 . S
C1555 C1559 1.400 . S
C1556 H1541 0.960 . S
C1556 H1542 0.960 . S
C1556 H1543 0.960 . S
C1556 C1555 1.524 . S
C1557 C1554 1.403 . S
C1557 C1558 1.392 . S
C1557 C1561 1.495 . S
C1558 C1557 1.392 . S
C1558 C1559 1.385 . S
C1558 C1560 1.478 . S
C1559 H1553 0.930 . S
C1559 C1555 1.400 . S
C1559 C1558 1.385 . S
C1560 C1558 1.478 . S
C1560 C1562 1.381 . S
C1560 C1566 1.383 . S
C1561 C1557 1.495 . S
C1561 H1567 0.959 . S
C1561 H1568 0.961 . S
C1561 H1569 0.960 . S
C1562 C1560 1.381 . S
C1562 C1563 1.394 . S
C1562 H1570 0.930 . S
C1563 C1562 1.394 . S
C1563 C1564 1.383 . S
C1563 H1571 0.929 . S
C1564 C1563 1.383 . S
C1564 C1565 1.377 . S
C1565 H1549 0.930 . S
C1565 C1564 1.377 . S
C1565 C1566 1.379 . S
C1566 H1550 0.931 . S
C1566 C1560 1.383 . S
C1566 C1565 1.379 . S
H1567 C1561 0.959 . S
H1568 C1561 0.961 . S
H1569 C1561 0.960 . S
H1570 C1562 0.930 . S
H1571 C1563 0.929 . S
C717 C593 1.639 . S
C736 C3 1.598 . S
C753 C62 1.636 . S
C772 C654 1.630 . S
C789 C123 1.688 . S
C808 C357 1.686 . S
C825 C416 1.639 . S
C844 C180 1.616 . S
C861 C477 1.644 . S
C880 C239 1.608 . S
C897 C300 1.693 . S
C916 C534 1.657 . S
C933 C5 1.030 . S
C952 C418 0.981 . S
C969 C64 1.009 . S
C988 C475 1.028 . S
C1005 C536 0.824 . S
C1024 C121 0.817 . S
C1041 C595 1.006 . S
C1060 C182 1.014 . S
C1077 C652 1.038 . S
C1096 C241 1.033 . S
C1113 C359 0.825 . S
C1132 C298 0.817 . S
C1149 C33 1.269 . S
C1168 C288 1.330 . S
C1185 C92 1.002 . S
C1204 C328 1.106 . S
C1221 C170 0.712 . S
C1240 C52 0.687 . S
C1257 C210 1.266 . S
C1276 C111 1.316 . S
C1293 C269 1.021 . S
C1312 C151 1.116 . S
C1329 C347 0.717 . S
C1348 C229 0.730 . S
C1365 C387 0.712 . S
C1384 C505 0.700 . S
C1401 C446 0.996 . S
C1420 C583 1.108 . S
C1437 C642 1.324 . S
C1456 C524 1.240 . S
C1473 C564 0.715 . S
C1492 C682 0.721 . S
C1509 C623 1.018 . S
C1528 C406 1.109 . S
C1545 C701 1.264 . S
C1564 C465 1.324 . S
