# Generated by pormake.
# Topology wgm, (5)-cn, num edge types: 1
# Building blocks:
#     Node 0, Type 0, BuildingBlock: BEQFEK_clean_sbu_0, # of connection points: 5
#     Node 1, Type 0, BuildingBlock: BEQFEK_clean_sbu_0, # of connection points: 5
#     Node 2, Type 0, BuildingBlock: BEQFEK_clean_sbu_0, # of connection points: 5
#     Node 3, Type 0, BuildingBlock: BEQFEK_clean_sbu_0, # of connection points: 5
#     Node 4, Type 0, BuildingBlock: BEQFEK_clean_sbu_0, # of connection points: 5
#     Node 5, Type 0, BuildingBlock: BEQFEK_clean_sbu_0, # of connection points: 5
#     Node 6, Type 0, BuildingBlock: BEQFEK_clean_sbu_0, # of connection points: 5
#     Node 7, Type 0, BuildingBlock: BEQFEK_clean_sbu_0, # of connection points: 5
#     Node 8, Type 0, BuildingBlock: BEQFEK_clean_sbu_0, # of connection points: 5
#     Node 9, Type 0, BuildingBlock: BEQFEK_clean_sbu_0, # of connection points: 5
#     Node 10, Type 0, BuildingBlock: BEQFEK_clean_sbu_0, # of connection points: 5
#     Node 11, Type 0, BuildingBlock: BEQFEK_clean_sbu_0, # of connection points: 5
#     Node 12, Type 0, BuildingBlock: BEQFEK_clean_sbu_0, # of connection points: 5
#     Node 13, Type 0, BuildingBlock: BEQFEK_clean_sbu_0, # of connection points: 5
#     Node 14, Type 0, BuildingBlock: BEQFEK_clean_sbu_0, # of connection points: 5
#     Node 15, Type 0, BuildingBlock: BEQFEK_clean_sbu_0, # of connection points: 5
#     Node 16, Type 0, BuildingBlock: BEQFEK_clean_sbu_0, # of connection points: 5
#     Node 17, Type 0, BuildingBlock: BEQFEK_clean_sbu_0, # of connection points: 5
#     Node 18, Type 0, BuildingBlock: BEQFEK_clean_sbu_0, # of connection points: 5
#     Node 19, Type 0, BuildingBlock: BEQFEK_clean_sbu_0, # of connection points: 5
#     Node 20, Type 0, BuildingBlock: BEQFEK_clean_sbu_0, # of connection points: 5
#     Node 21, Type 0, BuildingBlock: BEQFEK_clean_sbu_0, # of connection points: 5
#     Node 22, Type 0, BuildingBlock: BEQFEK_clean_sbu_0, # of connection points: 5
#     Node 23, Type 0, BuildingBlock: BEQFEK_clean_sbu_0, # of connection points: 5
#     Node 24, Type 0, BuildingBlock: BEQFEK_clean_sbu_0, # of connection points: 5
#     Node 25, Type 0, BuildingBlock: BEQFEK_clean_sbu_0, # of connection points: 5
#     Node 26, Type 0, BuildingBlock: BEQFEK_clean_sbu_0, # of connection points: 5
#     Node 27, Type 0, BuildingBlock: BEQFEK_clean_sbu_0, # of connection points: 5
#     Node 28, Type 0, BuildingBlock: BEQFEK_clean_sbu_0, # of connection points: 5
#     Node 29, Type 0, BuildingBlock: BEQFEK_clean_sbu_0, # of connection points: 5
#     Node 30, Type 0, BuildingBlock: BEQFEK_clean_sbu_0, # of connection points: 5
#     Node 31, Type 0, BuildingBlock: BEQFEK_clean_sbu_0, # of connection points: 5
#     Edge 32, Type (0, 0), BuildingBlock: UVAHIK_clean_linker_0, # of connection points: 2
#     Edge 33, Type (0, 0), BuildingBlock: UVAHIK_clean_linker_0, # of connection points: 2
#     Edge 34, Type (0, 0), BuildingBlock: UVAHIK_clean_linker_0, # of connection points: 2
#     Edge 35, Type (0, 0), BuildingBlock: UVAHIK_clean_linker_0, # of connection points: 2
#     Edge 36, Type (0, 0), BuildingBlock: UVAHIK_clean_linker_0, # of connection points: 2
#     Edge 37, Type (0, 0), BuildingBlock: UVAHIK_clean_linker_0, # of connection points: 2
#     Edge 38, Type (0, 0), BuildingBlock: UVAHIK_clean_linker_0, # of connection points: 2
#     Edge 39, Type (0, 0), BuildingBlock: UVAHIK_clean_linker_0, # of connection points: 2
#     Edge 40, Type (0, 0), BuildingBlock: UVAHIK_clean_linker_0, # of connection points: 2
#     Edge 41, Type (0, 0), BuildingBlock: UVAHIK_clean_linker_0, # of connection points: 2
#     Edge 42, Type (0, 0), BuildingBlock: UVAHIK_clean_linker_0, # of connection points: 2
#     Edge 43, Type (0, 0), BuildingBlock: UVAHIK_clean_linker_0, # of connection points: 2
#     Edge 44, Type (0, 0), BuildingBlock: UVAHIK_clean_linker_0, # of connection points: 2
#     Edge 45, Type (0, 0), BuildingBlock: UVAHIK_clean_linker_0, # of connection points: 2
#     Edge 46, Type (0, 0), BuildingBlock: UVAHIK_clean_linker_0, # of connection points: 2
#     Edge 47, Type (0, 0), BuildingBlock: UVAHIK_clean_linker_0, # of connection points: 2
#     Edge 48, Type (0, 0), BuildingBlock: UVAHIK_clean_linker_0, # of connection points: 2
#     Edge 49, Type (0, 0), BuildingBlock: UVAHIK_clean_linker_0, # of connection points: 2
#     Edge 50, Type (0, 0), BuildingBlock: UVAHIK_clean_linker_0, # of connection points: 2
#     Edge 51, Type (0, 0), BuildingBlock: UVAHIK_clean_linker_0, # of connection points: 2
#     Edge 52, Type (0, 0), BuildingBlock: UVAHIK_clean_linker_0, # of connection points: 2
#     Edge 53, Type (0, 0), BuildingBlock: UVAHIK_clean_linker_0, # of connection points: 2
#     Edge 54, Type (0, 0), BuildingBlock: UVAHIK_clean_linker_0, # of connection points: 2
#     Edge 55, Type (0, 0), BuildingBlock: UVAHIK_clean_linker_0, # of connection points: 2
#     Edge 56, Type (0, 0), BuildingBlock: UVAHIK_clean_linker_0, # of connection points: 2
#     Edge 57, Type (0, 0), BuildingBlock: UVAHIK_clean_linker_0, # of connection points: 2
#     Edge 58, Type (0, 0), BuildingBlock: UVAHIK_clean_linker_0, # of connection points: 2
#     Edge 59, Type (0, 0), BuildingBlock: UVAHIK_clean_linker_0, # of connection points: 2
#     Edge 60, Type (0, 0), BuildingBlock: UVAHIK_clean_linker_0, # of connection points: 2
#     Edge 61, Type (0, 0), BuildingBlock: UVAHIK_clean_linker_0, # of connection points: 2
#     Edge 62, Type (0, 0), BuildingBlock: UVAHIK_clean_linker_0, # of connection points: 2
#     Edge 63, Type (0, 0), BuildingBlock: UVAHIK_clean_linker_0, # of connection points: 2
#     Edge 64, Type (0, 0), BuildingBlock: UVAHIK_clean_linker_0, # of connection points: 2
#     Edge 65, Type (0, 0), BuildingBlock: UVAHIK_clean_linker_0, # of connection points: 2
#     Edge 66, Type (0, 0), BuildingBlock: UVAHIK_clean_linker_0, # of connection points: 2
#     Edge 67, Type (0, 0), BuildingBlock: UVAHIK_clean_linker_0, # of connection points: 2
#     Edge 68, Type (0, 0), BuildingBlock: UVAHIK_clean_linker_0, # of connection points: 2
#     Edge 69, Type (0, 0), BuildingBlock: UVAHIK_clean_linker_0, # of connection points: 2
#     Edge 70, Type (0, 0), BuildingBlock: UVAHIK_clean_linker_0, # of connection points: 2
#     Edge 71, Type (0, 0), BuildingBlock: UVAHIK_clean_linker_0, # of connection points: 2
#     Edge 72, Type (0, 0), BuildingBlock: UVAHIK_clean_linker_0, # of connection points: 2
#     Edge 73, Type (0, 0), BuildingBlock: UVAHIK_clean_linker_0, # of connection points: 2
#     Edge 74, Type (0, 0), BuildingBlock: UVAHIK_clean_linker_0, # of connection points: 2
#     Edge 75, Type (0, 0), BuildingBlock: UVAHIK_clean_linker_0, # of connection points: 2
#     Edge 76, Type (0, 0), BuildingBlock: UVAHIK_clean_linker_0, # of connection points: 2
#     Edge 77, Type (0, 0), BuildingBlock: UVAHIK_clean_linker_0, # of connection points: 2
#     Edge 78, Type (0, 0), BuildingBlock: UVAHIK_clean_linker_0, # of connection points: 2
#     Edge 79, Type (0, 0), BuildingBlock: UVAHIK_clean_linker_0, # of connection points: 2
#     Edge 80, Type (0, 0), BuildingBlock: UVAHIK_clean_linker_0, # of connection points: 2
#     Edge 81, Type (0, 0), BuildingBlock: UVAHIK_clean_linker_0, # of connection points: 2
#     Edge 82, Type (0, 0), BuildingBlock: UVAHIK_clean_linker_0, # of connection points: 2
#     Edge 83, Type (0, 0), BuildingBlock: UVAHIK_clean_linker_0, # of connection points: 2
#     Edge 84, Type (0, 0), BuildingBlock: UVAHIK_clean_linker_0, # of connection points: 2
#     Edge 85, Type (0, 0), BuildingBlock: UVAHIK_clean_linker_0, # of connection points: 2
#     Edge 86, Type (0, 0), BuildingBlock: UVAHIK_clean_linker_0, # of connection points: 2
#     Edge 87, Type (0, 0), BuildingBlock: UVAHIK_clean_linker_0, # of connection points: 2
#     Edge 88, Type (0, 0), BuildingBlock: UVAHIK_clean_linker_0, # of connection points: 2
#     Edge 89, Type (0, 0), BuildingBlock: UVAHIK_clean_linker_0, # of connection points: 2
#     Edge 90, Type (0, 0), BuildingBlock: UVAHIK_clean_linker_0, # of connection points: 2
#     Edge 91, Type (0, 0), BuildingBlock: UVAHIK_clean_linker_0, # of connection points: 2
#     Edge 92, Type (0, 0), BuildingBlock: UVAHIK_clean_linker_0, # of connection points: 2
#     Edge 93, Type (0, 0), BuildingBlock: UVAHIK_clean_linker_0, # of connection points: 2
#     Edge 94, Type (0, 0), BuildingBlock: UVAHIK_clean_linker_0, # of connection points: 2
#     Edge 95, Type (0, 0), BuildingBlock: UVAHIK_clean_linker_0, # of connection points: 2
#     Edge 96, Type (0, 0), BuildingBlock: UVAHIK_clean_linker_0, # of connection points: 2
#     Edge 97, Type (0, 0), BuildingBlock: UVAHIK_clean_linker_0, # of connection points: 2
#     Edge 98, Type (0, 0), BuildingBlock: UVAHIK_clean_linker_0, # of connection points: 2
#     Edge 99, Type (0, 0), BuildingBlock: UVAHIK_clean_linker_0, # of connection points: 2
#     Edge 100, Type (0, 0), BuildingBlock: UVAHIK_clean_linker_0, # of connection points: 2
#     Edge 101, Type (0, 0), BuildingBlock: UVAHIK_clean_linker_0, # of connection points: 2
#     Edge 102, Type (0, 0), BuildingBlock: UVAHIK_clean_linker_0, # of connection points: 2
#     Edge 103, Type (0, 0), BuildingBlock: UVAHIK_clean_linker_0, # of connection points: 2
#     Edge 104, Type (0, 0), BuildingBlock: UVAHIK_clean_linker_0, # of connection points: 2
#     Edge 105, Type (0, 0), BuildingBlock: UVAHIK_clean_linker_0, # of connection points: 2
#     Edge 106, Type (0, 0), BuildingBlock: UVAHIK_clean_linker_0, # of connection points: 2
#     Edge 107, Type (0, 0), BuildingBlock: UVAHIK_clean_linker_0, # of connection points: 2
#     Edge 108, Type (0, 0), BuildingBlock: UVAHIK_clean_linker_0, # of connection points: 2
#     Edge 109, Type (0, 0), BuildingBlock: UVAHIK_clean_linker_0, # of connection points: 2
#     Edge 110, Type (0, 0), BuildingBlock: UVAHIK_clean_linker_0, # of connection points: 2
#     Edge 111, Type (0, 0), BuildingBlock: UVAHIK_clean_linker_0, # of connection points: 2
# Relax obj value: 0.071
# Max RMSD: 0.117
# Mean RMSD: 0.117
data_MOF--net-wgm--node1-BEQFEK_clean_sbu_0--edge1-UVAHIK_clean_linker_0
_symmetry_space_group_name_H-M    P1
_symmetry_Int_Tables_number       1
_symmetry_cell_setting            triclinic
loop_
_symmetry_equiv_pos_as_xyz
'x, y, z'
_cell_length_a     60.735115
_cell_length_b     60.716146
_cell_length_c     104.49149
_cell_angle_alpha  89.973559
_cell_angle_beta   90.031454
_cell_angle_gamma 89.995887
loop_
_atom_site_label
_atom_site_type_symbol
_atom_site_fract_x
_atom_site_fract_y
_atom_site_fract_z
_atom_type_partial_charge
Co0 Co 0.18953 0.11021 0.3094 0.0
Co1 Co 0.19184 0.14837 0.32966 0.0
C2 C 0.15303 0.11853 0.32827 0.0
O3 O 0.16126 0.10782 0.31894 0.0
O4 O 0.16316 0.1347 0.33331 0.0
C5 C 0.17209 0.0869 0.28754 0.0
O6 O 0.15549 0.10067 0.28852 0.0
C7 C 0.18033 0.18724 0.34515 0.0
C8 C 0.21328 0.19894 0.35108 0.0
C9 C 0.19101 0.20345 0.35219 0.0
N10 N 0.19567 0.17395 0.34001 0.0
N11 N 0.2153 0.18101 0.34362 0.0
C12 C 0.1561 0.18313 0.34407 0.0
H13 H 0.15137 0.18241 0.33382 0.0
H14 H 0.14615 0.19571 0.34909 0.0
H15 H 0.1523 0.16689 0.34837 0.0
C16 C 0.19903 0.14776 0.29191 0.0
N17 N 0.19433 0.13939 0.30354 0.0
N18 N 0.19462 0.15541 0.31203 0.0
C19 C 0.19907 0.17453 0.30604 0.0
C20 C 0.2022 0.17032 0.29312 0.0
C21 C 0.20261 0.13409 0.28018 0.0
H22 H 0.21066 0.11832 0.28279 0.0
H23 H 0.18643 0.13034 0.27576 0.0
H24 H 0.21296 0.14284 0.27306 0.0
O25 O 0.2143 0.10104 0.32047 0.0
O26 O 0.21526 0.12781 0.33492 0.0
H27 H 0.21538 0.19751 0.31829 0.0
H28 H 0.19966 0.21022 0.30559 0.0
C29 C 0.20003 0.19645 0.31257 0.0
H30 H 0.1858 0.19818 0.31912 0.0
H31 H 0.23008 0.1735 0.34101 0.0
O32 O 0.18828 0.08867 0.29518 0.0
C33 C 0.2226 0.10978 0.33044 0.0
Co34 Co 0.13037 0.94088 0.5606 0.0
Co35 Co 0.09156 0.94636 0.5802 0.0
C36 C 0.11873 0.90543 0.57951 0.0
O37 O 0.13056 0.91277 0.57038 0.0
O38 O 0.10301 0.91674 0.58416 0.0
C39 C 0.16015 0.92095 0.54242 0.0
O40 O 0.15413 0.90236 0.54781 0.0
C41 C 0.05073 0.93672 0.59391 0.0
C42 C 0.04159 0.96946 0.60147 0.0
C43 C 0.03504 0.94761 0.60119 0.0
N44 N 0.06588 0.95144 0.59014 0.0
N45 N 0.0604 0.97097 0.59472 0.0
C46 C 0.05076 0.91309 0.58986 0.0
H47 H 0.05914 0.9113 0.58048 0.0
H48 H 0.03371 0.90662 0.58918 0.0
H49 H 0.05994 0.90322 0.59703 0.0
C50 C 0.09426 0.95058 0.54238 0.0
N51 N 0.10181 0.94698 0.55431 0.0
N52 N 0.08552 0.94936 0.5625 0.0
C53 C 0.06706 0.95461 0.55603 0.0
C54 C 0.07198 0.95551 0.54307 0.0
C55 C 0.10821 0.94907 0.53061 0.0
H56 H 0.12074 0.96237 0.53079 0.0
H57 H 0.11704 0.93308 0.53057 0.0
H58 H 0.09823 0.95044 0.52175 0.0
O59 O 0.14061 0.96527 0.57176 0.0
O60 O 0.11331 0.96825 0.58577 0.0
H61 H 0.04867 0.9734 0.56963 0.0
H62 H 0.03344 0.96689 0.55536 0.0
C63 C 0.0457 0.96055 0.5623 0.0
H64 H 0.03889 0.94582 0.56717 0.0
H65 H 0.06945 0.98533 0.59319 0.0
O66 O 0.15175 0.93894 0.54628 0.0
C67 C 0.13202 0.97422 0.58157 0.0
Co68 Co 0.30112 0.87815 0.81047 0.0
Co69 Co 0.29538 0.83994 0.83033 0.0
C70 C 0.3373 0.86586 0.82852 0.0
O71 O 0.33005 0.87765 0.81935 0.0
O72 O 0.32551 0.85085 0.83356 0.0
C73 C 0.31984 0.90288 0.78952 0.0
O74 O 0.33753 0.89099 0.79168 0.0
C75 C 0.3052 0.79819 0.84295 0.0
C76 C 0.27498 0.79243 0.85423 0.0
C77 C 0.29558 0.78365 0.85161 0.0
N78 N 0.29098 0.81467 0.84071 0.0
N79 N 0.27295 0.81118 0.84748 0.0
C80 C 0.32688 0.7962 0.83625 0.0
H81 H 0.32669 0.80581 0.82721 0.0
H82 H 0.33067 0.77869 0.83413 0.0
H83 H 0.34003 0.80302 0.84246 0.0
C84 C 0.28841 0.84204 0.79266 0.0
N85 N 0.29334 0.84966 0.80443 0.0
N86 N 0.29089 0.83361 0.81279 0.0
C87 C 0.28426 0.8153 0.80662 0.0
C88 C 0.28258 0.81999 0.79367 0.0
C89 C 0.28966 0.85562 0.78073 0.0
H90 H 0.30677 0.86157 0.77946 0.0
H91 H 0.28487 0.8461 0.77211 0.0
H92 H 0.27882 0.87023 0.78171 0.0
O93 O 0.27815 0.88945 0.82232 0.0
O94 O 0.27399 0.86199 0.83611 0.0
H95 H 0.26834 0.78331 0.80669 0.0
H96 H 0.29272 0.78563 0.81647 0.0
C97 C 0.27772 0.79435 0.81316 0.0
H98 H 0.2674 0.79812 0.82162 0.0
H99 H 0.25933 0.82163 0.84752 0.0
O100 O 0.30269 0.89962 0.79622 0.0
C101 C 0.26885 0.88108 0.8321 0.0
Co102 Co 0.36304 0.05251 0.05837 0.0
Co103 Co 0.40192 0.0467 0.07792 0.0
C104 C 0.37466 0.08758 0.07749 0.0
O105 O 0.36284 0.08042 0.06831 0.0
O106 O 0.39038 0.0762 0.08208 0.0
C107 C 0.33365 0.07301 0.04021 0.0
O108 O 0.34077 0.09149 0.04527 0.0
C109 C 0.4428 0.05646 0.09158 0.0
C110 C 0.4522 0.02375 0.09909 0.0
C111 C 0.45861 0.04565 0.09883 0.0
N112 N 0.42772 0.04166 0.08781 0.0
N113 N 0.43337 0.02214 0.09236 0.0
C114 C 0.44259 0.08011 0.08754 0.0
H115 H 0.43416 0.08187 0.07816 0.0
H116 H 0.4596 0.08669 0.08684 0.0
H117 H 0.43338 0.08989 0.09472 0.0
C118 C 0.39901 0.04279 0.04009 0.0
N119 N 0.39156 0.04649 0.05202 0.0
N120 N 0.40788 0.04406 0.06019 0.0
C121 C 0.42629 0.03875 0.05371 0.0
C122 C 0.42128 0.03781 0.04075 0.0
C123 C 0.38493 0.04396 0.02835 0.0
H124 H 0.37229 0.03078 0.02877 0.0
H125 H 0.37623 0.06001 0.02813 0.0
H126 H 0.39479 0.04215 0.01948 0.0
O127 O 0.35292 0.02793 0.0694 0.0
O128 O 0.38024 0.02457 0.08339 0.0
H129 H 0.44465 0.01959 0.06716 0.0
H130 H 0.45992 0.02653 0.05297 0.0
C131 C 0.44764 0.03265 0.05995 0.0
H132 H 0.45443 0.04724 0.06496 0.0
H133 H 0.4244 0.00773 0.09083 0.0
O134 O 0.3414 0.05479 0.04419 0.0
C135 C 0.36152 0.01871 0.07914 0.0
Co136 Co 0.19259 0.88096 0.17801 0.0
Co137 Co 0.19597 0.84036 0.15949 0.0
C138 C 0.15485 0.86668 0.16112 0.0
O139 O 0.16331 0.87941 0.16948 0.0
O140 O 0.16566 0.85066 0.15643 0.0
C141 C 0.17474 0.90539 0.19916 0.0
O142 O 0.15924 0.89029 0.19889 0.0
C143 C 0.18672 0.79916 0.14569 0.0
C144 C 0.22026 0.78842 0.14035 0.0
C145 C 0.19824 0.78274 0.13933 0.0
N146 N 0.20127 0.81392 0.15019 0.0
N147 N 0.22128 0.80745 0.14691 0.0
C148 C 0.16253 0.80005 0.14834 0.0
H149 H 0.15948 0.80793 0.15776 0.0
H150 H 0.1552 0.78331 0.14829 0.0
H151 H 0.1544 0.81012 0.14084 0.0
C152 C 0.20647 0.84678 0.19684 0.0
N153 N 0.20054 0.85322 0.18498 0.0
N154 N 0.20141 0.83615 0.17722 0.0
C155 C 0.20757 0.81825 0.18394 0.0
C156 C 0.21114 0.8244 0.19656 0.0
C157 C 0.20917 0.86205 0.20796 0.0
H158 H 0.21604 0.878 0.20467 0.0
H159 H 0.1928 0.86516 0.21231 0.0
H160 H 0.22016 0.8549 0.21536 0.0
O161 O 0.21513 0.89071 0.16555 0.0
O162 O 0.21644 0.86222 0.15227 0.0
H163 H 0.22444 0.79437 0.17258 0.0
H164 H 0.20992 0.78282 0.18608 0.0
C165 C 0.2093 0.79554 0.17846 0.0
H166 H 0.1949 0.79221 0.17224 0.0
H167 H 0.23563 0.816 0.14923 0.0
O168 O 0.19068 0.9041 0.19132 0.0
C169 C 0.22271 0.88136 0.15559 0.0
Co170 Co 0.36042 0.94418 0.42887 0.0
Co171 Co 0.40084 0.94374 0.4102 0.0
C172 C 0.37139 0.90508 0.41211 0.0
O173 O 0.35915 0.9151 0.42011 0.0
O174 O 0.38865 0.91402 0.40758 0.0
C175 C 0.33463 0.92629 0.44912 0.0
O176 O 0.34635 0.9086 0.44668 0.0
C177 C 0.44148 0.93131 0.39681 0.0
C178 C 0.45408 0.9638 0.39067 0.0
C179 C 0.45863 0.94146 0.39032 0.0
N180 N 0.4274 0.94695 0.40075 0.0
N181 N 0.43495 0.96632 0.39699 0.0
C182 C 0.43932 0.90744 0.40015 0.0
H183 H 0.43092 0.90558 0.40951 0.0
H184 H 0.45569 0.89935 0.40057 0.0
H185 H 0.42922 0.89914 0.39274 0.0
C186 C 0.3957 0.95588 0.44733 0.0
N187 N 0.38882 0.94982 0.43559 0.0
N188 N 0.40582 0.94925 0.4278 0.0
C189 C 0.42413 0.95458 0.43437 0.0
C190 C 0.41832 0.95914 0.44693 0.0
C191 C 0.38058 0.96031 0.45834 0.0
H192 H 0.36577 0.96923 0.45492 0.0
H193 H 0.37516 0.94439 0.46249 0.0
H194 H 0.38878 0.97017 0.4659 0.0
O195 O 0.35227 0.96756 0.41664 0.0
O196 O 0.38025 0.96572 0.403 0.0
H197 H 0.4486 0.96959 0.42255 0.0
H198 H 0.45964 0.9554 0.43633 0.0
C199 C 0.44681 0.9549 0.42878 0.0
H200 H 0.44939 0.93997 0.42289 0.0
H201 H 0.42715 0.98128 0.39887 0.0
O202 O 0.33816 0.94374 0.44272 0.0
C203 C 0.36194 0.97394 0.40648 0.0
Co204 Co 0.30049 0.11171 0.68067 0.0
Co205 Co 0.29642 0.15268 0.66229 0.0
C206 C 0.33733 0.1255 0.66326 0.0
O207 O 0.32932 0.11286 0.6718 0.0
O208 O 0.32632 0.14156 0.65875 0.0
C209 C 0.31467 0.07234 0.693 0.0
O210 O 0.32644 0.07037 0.68252 0.0
C211 C 0.30523 0.19644 0.6508 0.0
C212 C 0.2738 0.20241 0.64072 0.0
C213 C 0.29438 0.21148 0.64296 0.0
N214 N 0.29158 0.17941 0.65307 0.0
N215 N 0.27281 0.18318 0.64706 0.0
C216 C 0.32848 0.19757 0.65553 0.0
H217 H 0.33424 0.18131 0.6589 0.0
H218 H 0.32936 0.20912 0.66373 0.0
H219 H 0.33954 0.20371 0.64787 0.0
C220 C 0.28915 0.14581 0.69981 0.0
N221 N 0.29361 0.13953 0.68773 0.0
N222 N 0.29175 0.15665 0.68007 0.0
C223 C 0.28584 0.17436 0.68702 0.0
C224 C 0.28413 0.16811 0.69976 0.0
C225 C 0.29009 0.1307 0.71111 0.0
H226 H 0.30585 0.12147 0.71099 0.0
H227 H 0.28871 0.13984 0.72026 0.0
H228 H 0.2765 0.11854 0.71042 0.0
O229 O 0.27726 0.10245 0.66845 0.0
O230 O 0.27533 0.13122 0.65536 0.0
H231 H 0.27164 0.20711 0.68839 0.0
H232 H 0.29531 0.20452 0.67804 0.0
C233 C 0.28006 0.1963 0.68138 0.0
H234 H 0.26904 0.19395 0.67304 0.0
H235 H 0.2594 0.17244 0.64714 0.0
O236 O 0.30217 0.08899 0.69431 0.0
C237 C 0.26917 0.11204 0.65868 0.0
Co238 Co 0.12781 0.05073 0.93042 0.0
Co239 Co 0.08906 0.04711 0.91057 0.0
C240 C 0.11642 0.08781 0.91257 0.0
O241 O 0.12794 0.07964 0.92158 0.0
O242 O 0.1008 0.07699 0.90743 0.0
C243 C 0.15331 0.06996 0.95067 0.0
O244 O 0.14252 0.08796 0.94759 0.0
C245 C 0.04859 0.05738 0.89625 0.0
C246 C 0.03832 0.02428 0.88975 0.0
C247 C 0.03239 0.04629 0.88942 0.0
N248 N 0.0632 0.0425 0.90056 0.0
N249 N 0.05701 0.02277 0.89661 0.0
C250 C 0.05132 0.08172 0.89792 0.0
H251 H 0.05217 0.08567 0.90828 0.0
H252 H 0.03799 0.0913 0.89331 0.0
H253 H 0.06711 0.08681 0.89353 0.0
C254 C 0.09176 0.03835 0.94816 0.0
N255 N 0.09929 0.04369 0.93644 0.0
N256 N 0.08295 0.04269 0.92818 0.0
C257 C 0.06442 0.03694 0.93441 0.0
C258 C 0.0694 0.03385 0.94725 0.0
C259 C 0.10616 0.03593 0.9597 0.0
H260 H 0.12146 0.02706 0.95707 0.0
H261 H 0.11084 0.05254 0.9632 0.0
H262 H 0.09773 0.02685 0.9675 0.0
O263 O 0.13834 0.02778 0.91847 0.0
O264 O 0.11082 0.02531 0.90456 0.0
H265 H 0.04193 0.02008 0.92211 0.0
H266 H 0.02888 0.0339 0.93541 0.0
C267 C 0.04227 0.03499 0.92823 0.0
H268 H 0.03926 0.04958 0.9221 0.0
H269 H 0.06556 0.00827 0.89861 0.0
O270 O 0.14921 0.05218 0.94472 0.0
C271 C 0.12971 0.0193 0.90851 0.0
Co272 Co 0.79925 0.87989 0.67889 0.0
Co273 Co 0.79675 0.84153 0.65885 0.0
C274 C 0.83654 0.86979 0.6608 0.0
O275 O 0.82802 0.88101 0.66984 0.0
O276 O 0.82622 0.85387 0.65564 0.0
C277 C 0.81681 0.90258 0.70079 0.0
O278 O 0.83326 0.88868 0.6996 0.0
C279 C 0.80765 0.80183 0.64412 0.0
C280 C 0.77464 0.7905 0.63809 0.0
C281 C 0.79684 0.78542 0.63734 0.0
N282 N 0.79251 0.81597 0.64862 0.0
N283 N 0.77284 0.80921 0.64491 0.0
C284 C 0.83165 0.8031 0.64728 0.0
H285 H 0.83403 0.81119 0.6567 0.0
H286 H 0.83918 0.78645 0.64749 0.0
H287 H 0.84012 0.81311 0.63989 0.0
C288 C 0.78795 0.84306 0.69647 0.0
N289 N 0.79318 0.85105 0.68483 0.0
N290 N 0.79272 0.83487 0.67644 0.0
C291 C 0.78757 0.81601 0.68253 0.0
C292 C 0.78425 0.82059 0.69539 0.0
C293 C 0.7846 0.85703 0.7081 0.0
H294 H 0.77682 0.87288 0.70539 0.0
H295 H 0.80084 0.86058 0.71251 0.0
H296 H 0.77409 0.84861 0.71528 0.0
O297 O 0.7754 0.88977 0.66739 0.0
O298 O 0.77448 0.86289 0.653 0.0
H299 H 0.77128 0.7932 0.67016 0.0
H300 H 0.78586 0.78036 0.68327 0.0
C301 C 0.78631 0.79395 0.67618 0.0
H302 H 0.80084 0.79161 0.66994 0.0
H303 H 0.75816 0.8172 0.64719 0.0
O304 O 0.8006 0.9013 0.69314 0.0
C305 C 0.76746 0.88119 0.65728 0.0
Co306 Co 0.86204 0.04858 0.43049 0.0
Co307 Co 0.90063 0.04229 0.41082 0.0
C308 C 0.87396 0.0836 0.41142 0.0
O309 O 0.86231 0.07648 0.42068 0.0
O310 O 0.88941 0.07206 0.40664 0.0
C311 C 0.8332 0.06944 0.44877 0.0
O312 O 0.84027 0.08781 0.44355 0.0
C313 C 0.94134 0.05087 0.39668 0.0
C314 C 0.95011 0.01761 0.38975 0.0
C315 C 0.95684 0.0394 0.38956 0.0
N316 N 0.92612 0.03652 0.40083 0.0
N317 N 0.93137 0.01668 0.3966 0.0
C318 C 0.9416 0.07472 0.40026 0.0
H319 H 0.9334 0.07715 0.40964 0.0
H320 H 0.95872 0.08107 0.40071 0.0
H321 H 0.93239 0.08424 0.39293 0.0
C322 C 0.89816 0.0386 0.44866 0.0
N323 N 0.89055 0.04207 0.43673 0.0
N324 N 0.90679 0.03956 0.42852 0.0
C325 C 0.92528 0.03436 0.43497 0.0
C326 C 0.92043 0.03362 0.44795 0.0
C327 C 0.8843 0.04037 0.46045 0.0
H328 H 0.87147 0.02736 0.46027 0.0
H329 H 0.87582 0.05655 0.46051 0.0
H330 H 0.89427 0.03877 0.4693 0.0
O331 O 0.85115 0.02462 0.41928 0.0
O332 O 0.87867 0.02035 0.40557 0.0
H333 H 0.94367 0.01514 0.42159 0.0
H334 H 0.95905 0.0225 0.43566 0.0
C335 C 0.94661 0.02837 0.42869 0.0
H336 H 0.95317 0.04293 0.42353 0.0
H337 H 0.92223 0.0025 0.39847 0.0
O338 O 0.8407 0.05112 0.4448 0.0
C339 C 0.85969 0.01504 0.40965 0.0
Co340 Co 0.6904 0.11416 0.18036 0.0
Co341 Co 0.69443 0.15242 0.16032 0.0
C342 C 0.65445 0.12404 0.16139 0.0
O343 O 0.66221 0.11298 0.17073 0.0
O344 O 0.66524 0.13982 0.15639 0.0
C345 C 0.6705 0.08847 0.2004 0.0
O346 O 0.65237 0.09862 0.19689 0.0
C347 C 0.68422 0.19193 0.14527 0.0
C348 C 0.71744 0.20293 0.13945 0.0
C349 C 0.69529 0.20808 0.13841 0.0
N350 N 0.69917 0.17787 0.15007 0.0
N351 N 0.71897 0.18445 0.14651 0.0
C352 C 0.66012 0.19077 0.14818 0.0
H353 H 0.65742 0.18267 0.15757 0.0
H354 H 0.65269 0.20747 0.14831 0.0
H355 H 0.65181 0.18082 0.1407 0.0
C356 C 0.70054 0.15108 0.19806 0.0
N357 N 0.69612 0.14307 0.18632 0.0
N358 N 0.69719 0.15922 0.17793 0.0
C359 C 0.70203 0.17808 0.18408 0.0
C360 C 0.70449 0.17355 0.19703 0.0
C361 C 0.70279 0.13704 0.20977 0.0
H362 H 0.71211 0.12187 0.20741 0.0
H363 H 0.68615 0.13206 0.21306 0.0
H364 H 0.71132 0.14588 0.21762 0.0
O365 O 0.71466 0.10393 0.16919 0.0
O366 O 0.71736 0.13129 0.15521 0.0
H367 H 0.71927 0.2006 0.17197 0.0
H368 H 0.70406 0.21373 0.18474 0.0
C369 C 0.7039 0.20007 0.17769 0.0
H370 H 0.68976 0.2025 0.17115 0.0
H371 H 0.73355 0.17643 0.149 0.0
O372 O 0.68849 0.09305 0.19479 0.0
C373 C 0.72369 0.11271 0.15945 0.0
Co374 Co 0.63093 0.94212 0.92925 0.0
Co375 Co 0.5911 0.94517 0.91008 0.0
C376 C 0.62111 0.90623 0.91033 0.0
O377 O 0.63257 0.91432 0.91939 0.0
O378 O 0.60453 0.91643 0.9058 0.0
C379 C 0.6603 0.92277 0.94769 0.0
O380 O 0.65259 0.90416 0.94312 0.0
C381 C 0.55049 0.93296 0.89668 0.0
C382 C 0.53863 0.96524 0.88973 0.0
C383 C 0.53368 0.94297 0.88981 0.0
N384 N 0.56473 0.94859 0.90044 0.0
N385 N 0.55763 0.96784 0.89619 0.0
C386 C 0.55236 0.90923 0.9004 0.0
H387 H 0.56128 0.90766 0.90963 0.0
H388 H 0.53585 0.90154 0.90121 0.0
H389 H 0.56188 0.90035 0.89295 0.0
C390 C 0.59495 0.94993 0.94785 0.0
N391 N 0.60223 0.94634 0.93586 0.0
N392 N 0.58551 0.94751 0.92787 0.0
C393 C 0.56703 0.9519 0.93452 0.0
C394 C 0.5724 0.95355 0.9474 0.0
C395 C 0.60948 0.95 0.95942 0.0
H396 H 0.6216 0.96361 0.95859 0.0
H397 H 0.61878 0.93431 0.95984 0.0
H398 H 0.5999 0.95191 0.96838 0.0
O399 O 0.63924 0.96702 0.91797 0.0
O400 O 0.61097 0.9689 0.90455 0.0
H401 H 0.54725 0.97015 0.92134 0.0
H402 H 0.53267 0.96191 0.93551 0.0
C403 C 0.54522 0.95675 0.92844 0.0
H404 H 0.53931 0.94188 0.92333 0.0
H405 H 0.56568 0.98276 0.89779 0.0
O406 O 0.653 0.94089 0.9433 0.0
C407 C 0.62955 0.97585 0.90844 0.0
Co408 Co 0.79903 0.11143 0.80939 0.0
Co409 Co 0.79451 0.15126 0.82837 0.0
C410 C 0.8346 0.12289 0.82827 0.0
O411 O 0.82693 0.11122 0.81918 0.0
O412 O 0.82376 0.13902 0.83285 0.0
C413 C 0.81261 0.07189 0.79723 0.0
O414 O 0.82239 0.06883 0.80831 0.0
C415 C 0.80466 0.19208 0.84214 0.0
C416 C 0.77163 0.20283 0.84843 0.0
C417 C 0.79372 0.20841 0.8489 0.0
N418 N 0.78972 0.17748 0.83793 0.0
N419 N 0.77001 0.18393 0.84177 0.0
C420 C 0.82867 0.19092 0.839 0.0
H421 H 0.83111 0.18253 0.82968 0.0
H422 H 0.83603 0.20764 0.83865 0.0
H423 H 0.83722 0.18121 0.8465 0.0
C424 C 0.79011 0.1469 0.7906 0.0
N425 N 0.79372 0.13985 0.80264 0.0
N426 N 0.79207 0.15663 0.81055 0.0
C427 C 0.78731 0.17493 0.80381 0.0
C428 C 0.78593 0.16938 0.79093 0.0
C429 C 0.79067 0.13226 0.7791 0.0
H430 H 0.80606 0.12241 0.77919 0.0
H431 H 0.78984 0.14184 0.77007 0.0
H432 H 0.77661 0.12061 0.77953 0.0
O433 O 0.77444 0.10214 0.82064 0.0
O434 O 0.77152 0.13055 0.83386 0.0
H435 H 0.76831 0.19454 0.81667 0.0
H436 H 0.77698 0.2092 0.80262 0.0
C437 C 0.78199 0.19671 0.80978 0.0
H438 H 0.79656 0.20277 0.81512 0.0
H439 H 0.75546 0.17547 0.83979 0.0
O440 O 0.80147 0.08936 0.79546 0.0
C441 C 0.76522 0.11169 0.83007 0.0
Co442 Co 0.62872 0.04997 0.55963 0.0
Co443 Co 0.58951 0.04914 0.57922 0.0
C444 C 0.61918 0.08791 0.57743 0.0
O445 O 0.63052 0.0788 0.56864 0.0
O446 O 0.60258 0.07832 0.58234 0.0
C447 C 0.65456 0.06819 0.53934 0.0
O448 O 0.64372 0.08627 0.54218 0.0
C449 C 0.54989 0.06086 0.59394 0.0
C450 C 0.53758 0.02796 0.59955 0.0
C451 C 0.53312 0.05025 0.60055 0.0
N452 N 0.56343 0.04546 0.58912 0.0
N453 N 0.55603 0.02585 0.59254 0.0
C454 C 0.55424 0.08507 0.59302 0.0
H455 H 0.57051 0.0886 0.59735 0.0
H456 H 0.55498 0.08999 0.5828 0.0
H457 H 0.5418 0.09507 0.59813 0.0
C458 C 0.59224 0.03943 0.54174 0.0
N459 N 0.59991 0.04472 0.55343 0.0
N460 N 0.58343 0.04496 0.5616 0.0
C461 C 0.56466 0.04021 0.55532 0.0
C462 C 0.56962 0.03635 0.54256 0.0
C463 C 0.60664 0.03554 0.53034 0.0
H464 H 0.62155 0.02627 0.53327 0.0
H465 H 0.612 0.05166 0.52642 0.0
H466 H 0.5979 0.02623 0.52275 0.0
O467 O 0.6376 0.02608 0.57144 0.0
O468 O 0.61013 0.02654 0.58544 0.0
H469 H 0.54067 0.02468 0.56724 0.0
H470 H 0.52905 0.04014 0.5541 0.0
C471 C 0.54234 0.03982 0.56139 0.0
H472 H 0.54042 0.05431 0.56773 0.0
H473 H 0.56361 0.01103 0.59009 0.0
O474 O 0.65034 0.05059 0.54545 0.0
C475 C 0.62839 0.01881 0.58153 0.0
Co476 Co 0.68891 0.87973 0.30883 0.0
Co477 Co 0.69602 0.84014 0.32786 0.0
C478 C 0.6544 0.86677 0.32777 0.0
O479 O 0.66093 0.87883 0.31855 0.0
O480 O 0.66644 0.85147 0.33229 0.0
C481 C 0.66812 0.9095 0.29095 0.0
O482 O 0.64971 0.90225 0.29602 0.0
C483 C 0.68837 0.797 0.34019 0.0
C484 C 0.72012 0.79197 0.35013 0.0
C485 C 0.6996 0.78254 0.34821 0.0
N486 N 0.70174 0.81405 0.3375 0.0
N487 N 0.72071 0.81086 0.34342 0.0
C488 C 0.665 0.79539 0.33572 0.0
H489 H 0.65898 0.81142 0.33212 0.0
H490 H 0.664 0.78342 0.32773 0.0
H491 H 0.65423 0.78952 0.34359 0.0
C492 C 0.69936 0.84461 0.29008 0.0
N493 N 0.69571 0.85155 0.30213 0.0
N494 N 0.69876 0.835 0.31008 0.0
C495 C 0.70468 0.81704 0.30335 0.0
C496 C 0.70511 0.8225 0.29046 0.0
C497 C 0.69721 0.85897 0.2785 0.0
H498 H 0.68098 0.86732 0.27866 0.0
H499 H 0.69874 0.84938 0.26951 0.0
H500 H 0.71013 0.87189 0.27878 0.0
O501 O 0.71282 0.89018 0.32029 0.0
O502 O 0.71794 0.86186 0.33338 0.0
H503 H 0.72336 0.79919 0.31732 0.0
H504 H 0.72046 0.78499 0.30231 0.0
C505 C 0.71195 0.79579 0.30928 0.0
H506 H 0.69738 0.78699 0.31311 0.0
H507 H 0.73396 0.82176 0.34304 0.0
O508 O 0.68639 0.90177 0.29486 0.0
C509 C 0.72281 0.88118 0.32965 0.0
Co510 Co 0.86128 0.9419 0.06123 0.0
Co511 Co 0.90035 0.945 0.08086 0.0
C512 C 0.87199 0.90497 0.07938 0.0
O513 O 0.86054 0.91318 0.07034 0.0
O514 O 0.88791 0.91556 0.08437 0.0
C515 C 0.83499 0.92303 0.04113 0.0
O516 O 0.84503 0.90469 0.04439 0.0
C517 C 0.94026 0.93383 0.09532 0.0
C518 C 0.95217 0.96674 0.10114 0.0
C519 C 0.95691 0.94447 0.10198 0.0
N520 N 0.92627 0.94912 0.09081 0.0
N521 N 0.9334 0.96874 0.09439 0.0
C522 C 0.93856 0.90979 0.09232 0.0
H523 H 0.93047 0.90738 0.0829 0.0
H524 H 0.95507 0.90195 0.09221 0.0
H525 H 0.92838 0.90164 0.09976 0.0
C526 C 0.89742 0.95307 0.04325 0.0
N527 N 0.88993 0.94801 0.05502 0.0
N528 N 0.9064 0.94877 0.0632 0.0
C529 C 0.92497 0.95407 0.05687 0.0
C530 C 0.91988 0.95712 0.04404 0.0
C531 C 0.8829 0.95579 0.03178 0.0
H532 H 0.86796 0.96523 0.03446 0.0
H533 H 0.87758 0.9393 0.02841 0.0
H534 H 0.89148 0.96444 0.02387 0.0
O535 O 0.85152 0.96552 0.07299 0.0
O536 O 0.87938 0.96759 0.08668 0.0
H537 H 0.94787 0.97108 0.06884 0.0
H538 H 0.96053 0.95639 0.05573 0.0
C539 C 0.9472 0.95588 0.06297 0.0
H540 H 0.94999 0.94155 0.06933 0.0
H541 H 0.92557 0.98351 0.09209 0.0
O542 O 0.83975 0.94077 0.04697 0.0
C543 C 0.86063 0.97407 0.08279 0.0
Co544 Co 0.69204 0.61192 0.80903 0.0
Co545 Co 0.69487 0.65094 0.82872 0.0
C546 C 0.65429 0.62385 0.82645 0.0
O547 O 0.66299 0.61196 0.81778 0.0
O548 O 0.66474 0.63981 0.83151 0.0
C549 C 0.6729 0.58654 0.78873 0.0
O550 O 0.65507 0.59776 0.79156 0.0
C551 C 0.68541 0.69159 0.84312 0.0
C552 C 0.71889 0.70169 0.84903 0.0
C553 C 0.69695 0.70778 0.84969 0.0
N554 N 0.69996 0.67681 0.83862 0.0
N555 N 0.71991 0.6829 0.84224 0.0
C556 C 0.66099 0.68904 0.84185 0.0
H557 H 0.65642 0.6891 0.83157 0.0
H558 H 0.65176 0.70201 0.84702 0.0
H559 H 0.6561 0.67292 0.84589 0.0
C560 C 0.70473 0.64771 0.79122 0.0
N561 N 0.69918 0.64031 0.80293 0.0
N562 N 0.69992 0.65676 0.81112 0.0
C563 C 0.70564 0.67526 0.80483 0.0
C564 C 0.70904 0.67012 0.79204 0.0
C565 C 0.70744 0.63318 0.77976 0.0
H566 H 0.71603 0.6178 0.78256 0.0
H567 H 0.69093 0.62868 0.77604 0.0
H568 H 0.71693 0.64146 0.77207 0.0
O569 O 0.71502 0.6016 0.821 0.0
O570 O 0.71589 0.62879 0.8352 0.0
H571 H 0.72207 0.6984 0.81692 0.0
H572 H 0.70773 0.71084 0.8036 0.0
C573 C 0.70708 0.69756 0.81088 0.0
H574 H 0.69251 0.7003 0.81705 0.0
H575 H 0.73424 0.67423 0.84002 0.0
O576 O 0.69059 0.59036 0.79484 0.0
C577 C 0.72254 0.61015 0.83122 0.0
Co578 Co 0.62728 0.44367 0.06101 0.0
Co579 Co 0.58841 0.44593 0.08078 0.0
C580 C 0.61658 0.40604 0.07879 0.0
O581 O 0.62798 0.41478 0.0699 0.0
O582 O 0.60059 0.41628 0.08394 0.0
C583 C 0.65306 0.42462 0.04087 0.0
O584 O 0.64266 0.4065 0.04415 0.0
C585 C 0.54882 0.43528 0.09571 0.0
C586 C 0.53757 0.46844 0.1015 0.0
C587 C 0.53261 0.44625 0.10257 0.0
N588 N 0.56274 0.45032 0.09089 0.0
N589 N 0.55599 0.4701 0.09442 0.0
C590 C 0.5502 0.41116 0.09289 0.0
H591 H 0.5579 0.40846 0.08339 0.0
H592 H 0.53363 0.40346 0.09304 0.0
H593 H 0.56063 0.4031 0.10025 0.0
C594 C 0.59086 0.45511 0.04326 0.0
N595 N 0.59857 0.44995 0.05497 0.0
N596 N 0.58217 0.45024 0.0632 0.0
C597 C 0.56344 0.45529 0.05696 0.0
C598 C 0.56832 0.45871 0.04414 0.0
C599 C 0.60518 0.45815 0.03174 0.0
H600 H 0.62036 0.46715 0.03446 0.0
H601 H 0.61008 0.44174 0.02804 0.0
H602 H 0.59657 0.46738 0.02406 0.0
O603 O 0.6373 0.46697 0.0729 0.0
O604 O 0.60965 0.46815 0.08675 0.0
H605 H 0.53996 0.47139 0.06897 0.0
H606 H 0.5278 0.45611 0.05591 0.0
C607 C 0.54121 0.4562 0.06312 0.0
H608 H 0.53907 0.4418 0.06952 0.0
H609 H 0.5639 0.48473 0.09193 0.0
O610 O 0.64866 0.44248 0.04667 0.0
C611 C 0.62829 0.47496 0.08287 0.0
Co612 Co 0.79382 0.38074 0.31306 0.0
Co613 Co 0.79448 0.33929 0.33099 0.0
C614 C 0.83344 0.36826 0.32911 0.0
O615 O 0.82319 0.38106 0.3215 0.0
O616 O 0.82453 0.35082 0.33343 0.0
C617 C 0.81161 0.4071 0.29311 0.0
O618 O 0.82899 0.39474 0.29523 0.0
C619 C 0.80661 0.29755 0.34337 0.0
C620 C 0.77418 0.28561 0.35001 0.0
C621 C 0.79637 0.28036 0.3498 0.0
N622 N 0.79115 0.31228 0.33999 0.0
N623 N 0.77183 0.3051 0.34403 0.0
C624 C 0.83029 0.29924 0.33955 0.0
H625 H 0.83183 0.30836 0.33039 0.0
H626 H 0.83779 0.28267 0.33852 0.0
H627 H 0.8394 0.30846 0.34704 0.0
C628 C 0.78117 0.34662 0.29408 0.0
N629 N 0.78754 0.35281 0.3059 0.0
N630 N 0.78808 0.33538 0.31339 0.0
C631 C 0.78233 0.3175 0.30654 0.0
C632 C 0.77762 0.32404 0.29412 0.0
C633 C 0.77692 0.36233 0.28332 0.0
H634 H 0.76823 0.37711 0.28697 0.0
H635 H 0.7929 0.36772 0.27924 0.0
H636 H 0.76693 0.35462 0.27564 0.0
O637 O 0.77101 0.38852 0.32573 0.0
O638 O 0.77324 0.35987 0.33889 0.0
H639 H 0.76757 0.29269 0.31823 0.0
H640 H 0.78066 0.2821 0.30398 0.0
C641 C 0.78188 0.29452 0.31173 0.0
H642 H 0.7971 0.29135 0.31727 0.0
H643 H 0.75701 0.31344 0.34262 0.0
O644 O 0.79423 0.40375 0.2996 0.0
C645 C 0.76506 0.37843 0.33583 0.0
Co646 Co 0.86248 0.54983 0.56103 0.0
Co647 Co 0.90302 0.5466 0.57968 0.0
C648 C 0.87497 0.58691 0.57865 0.0
O649 O 0.86274 0.57866 0.56998 0.0
O650 O 0.89119 0.57627 0.58328 0.0
C651 C 0.83508 0.56886 0.54154 0.0
O652 O 0.84584 0.58697 0.5444 0.0
C653 C 0.94433 0.55677 0.59331 0.0
C654 C 0.95558 0.52341 0.59874 0.0
C655 C 0.96113 0.54549 0.59952 0.0
N656 N 0.92973 0.54195 0.58891 0.0
N657 N 0.93652 0.52207 0.59223 0.0
C658 C 0.94104 0.58115 0.59235 0.0
H659 H 0.92518 0.58552 0.59692 0.0
H660 H 0.94002 0.58598 0.58212 0.0
H661 H 0.95422 0.5906 0.59719 0.0
C662 C 0.89715 0.53829 0.54218 0.0
N663 N 0.89055 0.54336 0.55413 0.0
N664 N 0.9076 0.54251 0.5619 0.0
C665 C 0.92565 0.53712 0.55511 0.0
C666 C 0.91962 0.53411 0.54242 0.0
C667 C 0.88184 0.53584 0.53104 0.0
H668 H 0.86704 0.52645 0.53402 0.0
H669 H 0.87639 0.55241 0.52788 0.0
H670 H 0.88984 0.52727 0.52291 0.0
O671 O 0.85339 0.52649 0.57317 0.0
O672 O 0.88216 0.52446 0.58621 0.0
H673 H 0.94946 0.52011 0.56648 0.0
H674 H 0.96109 0.53481 0.55305 0.0
C675 C 0.94832 0.53532 0.56063 0.0
H676 H 0.95159 0.54965 0.56691 0.0
H677 H 0.92809 0.50757 0.59005 0.0
O678 O 0.83987 0.55109 0.54735 0.0
C679 C 0.86308 0.51809 0.58282 0.0
Co680 Co 0.69107 0.37963 0.67959 0.0
Co681 Co 0.69675 0.34118 0.65972 0.0
C682 C 0.65726 0.37078 0.65937 0.0
O683 O 0.66409 0.38162 0.66901 0.0
O684 O 0.66834 0.35482 0.6548 0.0
C685 C 0.67022 0.40846 0.69781 0.0
O686 O 0.65193 0.40172 0.69236 0.0
C687 C 0.68727 0.29956 0.64622 0.0
C688 C 0.7191 0.29341 0.63661 0.0
C689 C 0.698 0.28507 0.63801 0.0
N690 N 0.70147 0.31559 0.64952 0.0
N691 N 0.72047 0.31174 0.64378 0.0
C692 C 0.66366 0.299 0.65032 0.0
H693 H 0.66167 0.28676 0.65812 0.0
H694 H 0.65294 0.29406 0.64221 0.0
H695 H 0.65835 0.31518 0.65407 0.0
C696 C 0.6983 0.34265 0.69762 0.0
N697 N 0.69531 0.35055 0.6857 0.0
N698 N 0.69777 0.33441 0.67742 0.0
C699 C 0.70261 0.31574 0.68379 0.0
C700 C 0.70301 0.32031 0.69681 0.0
C701 C 0.69704 0.35643 0.70946 0.0
H702 H 0.68133 0.36574 0.70948 0.0
H703 H 0.69798 0.34625 0.71826 0.0
H704 H 0.71071 0.36856 0.70942 0.0
O705 O 0.71674 0.38919 0.66923 0.0
O706 O 0.72065 0.36169 0.65544 0.0
H707 H 0.71689 0.28293 0.6843 0.0
H708 H 0.69475 0.2869 0.67302 0.0
C709 C 0.70939 0.29469 0.67744 0.0
H710 H 0.72149 0.29825 0.66978 0.0
H711 H 0.7343 0.32182 0.64462 0.0
O712 O 0.68855 0.40074 0.69401 0.0
C713 C 0.72676 0.3802 0.65989 0.0
Co714 Co 0.85941 0.43962 0.93073 0.0
Co715 Co 0.89887 0.44324 0.91127 0.0
C716 C 0.87076 0.40297 0.91252 0.0
O717 O 0.85896 0.41092 0.92148 0.0
O718 O 0.88674 0.41378 0.90778 0.0
C719 C 0.83129 0.4204 0.94995 0.0
O720 O 0.8397 0.4017 0.94594 0.0
C721 C 0.94084 0.43449 0.89756 0.0
C722 C 0.94812 0.46772 0.89002 0.0
C723 C 0.95604 0.44635 0.89039 0.0
N724 N 0.92484 0.44836 0.90138 0.0
N725 N 0.92933 0.46816 0.89682 0.0
C726 C 0.94108 0.41028 0.90033 0.0
H727 H 0.95093 0.40723 0.9091 0.0
H728 H 0.9486 0.40103 0.89228 0.0
H729 H 0.92428 0.40401 0.90203 0.0
C730 C 0.8951 0.45143 0.94885 0.0
N731 N 0.88791 0.44608 0.93706 0.0
N732 N 0.90444 0.44735 0.92895 0.0
C733 C 0.92271 0.45342 0.93534 0.0
C734 C 0.91739 0.45633 0.94814 0.0
C735 C 0.88035 0.4537 0.96025 0.0
H736 H 0.86576 0.46375 0.95764 0.0
H737 H 0.87441 0.43715 0.96313 0.0
H738 H 0.88892 0.46152 0.96845 0.0
O739 O 0.84953 0.46333 0.919 0.0
O740 O 0.87727 0.46499 0.90521 0.0
H741 H 0.94449 0.47075 0.92281 0.0
H742 H 0.95802 0.45855 0.93652 0.0
C743 C 0.94486 0.45627 0.92928 0.0
H744 H 0.9488 0.4415 0.92351 0.0
H745 H 0.91949 0.482 0.89831 0.0
O746 O 0.83773 0.43835 0.94492 0.0
C747 C 0.85852 0.47149 0.90906 0.0
Co748 Co 0.80078 0.61063 0.18095 0.0
Co749 Co 0.79683 0.64892 0.16077 0.0
C750 C 0.83588 0.61873 0.16145 0.0
O751 O 0.82834 0.60805 0.17097 0.0
O752 O 0.8253 0.63479 0.15659 0.0
C753 C 0.8198 0.58139 0.19967 0.0
O754 O 0.83851 0.58712 0.19431 0.0
C755 C 0.80764 0.69033 0.1473 0.0
C756 C 0.77638 0.69679 0.13712 0.0
C757 C 0.79747 0.70494 0.13889 0.0
N758 N 0.79311 0.67444 0.15034 0.0
N759 N 0.77447 0.67846 0.14425 0.0
C760 C 0.83101 0.69069 0.15185 0.0
H761 H 0.83605 0.67438 0.15554 0.0
H762 H 0.83261 0.70271 0.15978 0.0
H763 H 0.84219 0.6958 0.14398 0.0
C764 C 0.79349 0.64806 0.19862 0.0
N765 N 0.79675 0.63989 0.1868 0.0
N766 N 0.79485 0.65592 0.17838 0.0
C767 C 0.79002 0.67477 0.18457 0.0
C768 C 0.78911 0.67043 0.19761 0.0
C769 C 0.79436 0.63451 0.21057 0.0
H770 H 0.80979 0.62474 0.21069 0.0
H771 H 0.79374 0.64491 0.21929 0.0
H772 H 0.78033 0.6228 0.21063 0.0
O773 O 0.77557 0.60138 0.17011 0.0
O774 O 0.77291 0.62873 0.15611 0.0
H775 H 0.77222 0.69219 0.17004 0.0
H776 H 0.77571 0.70757 0.18461 0.0
C777 C 0.78373 0.69578 0.17799 0.0
H778 H 0.7987 0.70355 0.17394 0.0
H779 H 0.76049 0.66854 0.14486 0.0
O780 O 0.80194 0.58978 0.19559 0.0
C781 C 0.76625 0.61039 0.16053 0.0
Co782 Co 0.62863 0.55219 0.43151 0.0
Co783 Co 0.59111 0.54824 0.41085 0.0
C784 C 0.62177 0.5868 0.41142 0.0
O785 O 0.63208 0.57937 0.42112 0.0
O786 O 0.60564 0.57637 0.40657 0.0
C787 C 0.65683 0.57187 0.4505 0.0
O788 O 0.65033 0.59046 0.44529 0.0
C789 C 0.55038 0.55941 0.39684 0.0
C790 C 0.54426 0.52842 0.38633 0.0
C791 C 0.53619 0.54956 0.38808 0.0
N792 N 0.56597 0.54469 0.40009 0.0
N793 N 0.56214 0.52619 0.39381 0.0
C794 C 0.54998 0.5827 0.40153 0.0
H795 H 0.56605 0.58744 0.40568 0.0
H796 H 0.53739 0.58431 0.40915 0.0
H797 H 0.54562 0.5941 0.39361 0.0
C798 C 0.59063 0.54495 0.44872 0.0
N799 N 0.59914 0.54862 0.43702 0.0
N800 N 0.58343 0.54667 0.42841 0.0
C801 C 0.56444 0.54148 0.43435 0.0
C802 C 0.56836 0.54028 0.44743 0.0
C803 C 0.60388 0.54517 0.4608 0.0
H804 H 0.61364 0.56059 0.46126 0.0
H805 H 0.59326 0.54408 0.46941 0.0
H806 H 0.61559 0.53113 0.4607 0.0
O807 O 0.63776 0.52624 0.42125 0.0
O808 O 0.6114 0.52415 0.40656 0.0
H809 H 0.53175 0.52694 0.43396 0.0
H810 H 0.53618 0.54966 0.42314 0.0
C811 C 0.54383 0.53486 0.42748 0.0
H812 H 0.54792 0.52317 0.41969 0.0
H813 H 0.57195 0.51214 0.39449 0.0
O814 O 0.64915 0.55378 0.44629 0.0
C815 C 0.62922 0.51709 0.41147 0.0
Co816 Co 0.29735 0.37954 0.18014 0.0
Co817 Co 0.29636 0.33954 0.1611 0.0
C818 C 0.33612 0.36764 0.1634 0.0
O819 O 0.32677 0.37971 0.17176 0.0
O820 O 0.32628 0.35122 0.15846 0.0
C821 C 0.31555 0.40634 0.20004 0.0
O822 O 0.33367 0.39554 0.19727 0.0
C823 C 0.30794 0.29903 0.14731 0.0
C824 C 0.27521 0.28717 0.14113 0.0
C825 C 0.29747 0.28226 0.14066 0.0
N826 N 0.29257 0.31324 0.15146 0.0
N827 N 0.27306 0.30612 0.14768 0.0
C828 C 0.33187 0.3007 0.1506 0.0
H829 H 0.33394 0.30868 0.16007 0.0
H830 H 0.33972 0.2842 0.15076 0.0
H831 H 0.34024 0.311 0.1433 0.0
C832 C 0.28434 0.34431 0.19831 0.0
N833 N 0.29057 0.35125 0.18661 0.0
N834 N 0.29062 0.3344 0.17869 0.0
C835 C 0.28471 0.31613 0.18513 0.0
C836 C 0.28036 0.32181 0.19774 0.0
C837 C 0.28057 0.35935 0.20943 0.0
H838 H 0.27173 0.37434 0.20618 0.0
H839 H 0.29673 0.36456 0.21337 0.0
H840 H 0.2709 0.35122 0.2171 0.0
O841 O 0.27464 0.38878 0.16765 0.0
O842 O 0.2751 0.36079 0.15399 0.0
H843 H 0.26893 0.29232 0.1732 0.0
H844 H 0.28295 0.2806 0.18685 0.0
C845 C 0.28372 0.29358 0.17938 0.0
H846 H 0.29851 0.29073 0.17341 0.0
H847 H 0.25826 0.31412 0.14967 0.0
O848 O 0.2979 0.40176 0.19406 0.0
C849 C 0.2678 0.37948 0.15748 0.0
Co850 Co 0.36092 0.54495 0.9277 0.0
Co851 Co 0.40196 0.54548 0.90947 0.0
C852 C 0.372 0.58369 0.91054 0.0
O853 O 0.35966 0.57366 0.9185 0.0
O854 O 0.38965 0.57499 0.90636 0.0
C855 C 0.33346 0.56337 0.94711 0.0
O856 O 0.34425 0.58145 0.94422 0.0
C857 C 0.4425 0.55698 0.89559 0.0
C858 C 0.45483 0.52399 0.89022 0.0
C859 C 0.45934 0.54627 0.88911 0.0
N860 N 0.42863 0.54169 0.90022 0.0
N861 N 0.43607 0.52203 0.89695 0.0
C862 C 0.44029 0.58112 0.89817 0.0
H863 H 0.43213 0.58382 0.90754 0.0
H864 H 0.45663 0.5893 0.89818 0.0
H865 H 0.42992 0.58865 0.8906 0.0
C866 C 0.39579 0.53427 0.94663 0.0
N867 N 0.38918 0.53989 0.93476 0.0
N868 N 0.40642 0.54052 0.92715 0.0
C869 C 0.42459 0.53564 0.93395 0.0
C870 C 0.41846 0.53133 0.9465 0.0
C871 C 0.38038 0.52996 0.95752 0.0
H872 H 0.36591 0.52053 0.95406 0.0
H873 H 0.37438 0.54593 0.96133 0.0
H874 H 0.38852 0.52066 0.96534 0.0
O875 O 0.35333 0.52111 0.91564 0.0
O876 O 0.38167 0.52335 0.9023 0.0
H877 H 0.44973 0.52039 0.92274 0.0
H878 H 0.46003 0.53576 0.93627 0.0
C879 C 0.44743 0.53546 0.92858 0.0
H880 H 0.44984 0.55001 0.92233 0.0
H881 H 0.4283 0.50726 0.89933 0.0
O882 O 0.33821 0.54557 0.94133 0.0
C883 C 0.3634 0.51486 0.9056 0.0
Co884 Co 0.19576 0.61079 0.67886 0.0
Co885 Co 0.19893 0.6512 0.66023 0.0
C886 C 0.15997 0.62128 0.65995 0.0
O887 O 0.16807 0.60951 0.66887 0.0
O888 O 0.17015 0.63805 0.65565 0.0
C889 C 0.17576 0.58206 0.69722 0.0
O890 O 0.15754 0.59148 0.69323 0.0
C891 C 0.18691 0.69225 0.64733 0.0
C892 C 0.21922 0.70429 0.64055 0.0
C893 C 0.19696 0.70926 0.64067 0.0
N894 N 0.20251 0.67786 0.65094 0.0
N895 N 0.22177 0.68507 0.6468 0.0
C896 C 0.16319 0.69028 0.651 0.0
H897 H 0.16159 0.6811 0.66014 0.0
H898 H 0.1555 0.70677 0.65197 0.0
H899 H 0.15431 0.68097 0.64345 0.0
C900 C 0.20296 0.64619 0.69799 0.0
N901 N 0.19989 0.63924 0.68589 0.0
N902 N 0.20111 0.65624 0.67809 0.0
C903 C 0.20502 0.67456 0.68499 0.0
C904 C 0.20627 0.66882 0.69784 0.0
C905 C 0.20246 0.63134 0.70942 0.0
H906 H 0.18644 0.62259 0.70971 0.0
H907 H 0.20459 0.64057 0.71849 0.0
H908 H 0.21563 0.61876 0.70852 0.0
O909 O 0.22079 0.60278 0.6676 0.0
O910 O 0.22264 0.6315 0.65451 0.0
H911 H 0.21465 0.70898 0.68648 0.0
H912 H 0.19452 0.70267 0.67428 0.0
C913 C 0.20953 0.69669 0.67923 0.0
H914 H 0.22285 0.69516 0.67205 0.0
H915 H 0.23667 0.67693 0.64833 0.0
O916 O 0.19409 0.5882 0.69255 0.0
C917 C 0.22962 0.6128 0.65819 0.0
Co918 Co 0.12728 0.43928 0.42967 0.0
Co919 Co 0.08995 0.44276 0.40902 0.0
C920 C 0.11587 0.40136 0.4125 0.0
O921 O 0.12721 0.4098 0.42151 0.0
O922 O 0.10087 0.41232 0.40686 0.0
C923 C 0.15172 0.42091 0.45072 0.0
O924 O 0.14122 0.4027 0.44775 0.0
C925 C 0.04975 0.43207 0.39485 0.0
C926 C 0.04331 0.46319 0.38454 0.0
C927 C 0.03544 0.44192 0.38613 0.0
N928 N 0.06524 0.44684 0.3981 0.0
N929 N 0.06134 0.46539 0.3919 0.0
C930 C 0.04822 0.40966 0.40076 0.0
H931 H 0.05698 0.40934 0.41008 0.0
H932 H 0.03076 0.4049 0.40223 0.0
H933 H 0.05616 0.39748 0.39434 0.0
C934 C 0.09045 0.45338 0.44642 0.0
N935 N 0.09856 0.44744 0.43494 0.0
N936 N 0.08281 0.44876 0.42631 0.0
C937 C 0.06413 0.45556 0.43203 0.0
C938 C 0.06836 0.45872 0.44497 0.0
C939 C 0.10411 0.45536 0.45829 0.0
H940 H 0.11974 0.46397 0.45604 0.0
H941 H 0.10826 0.43863 0.46182 0.0
H942 H 0.09537 0.46452 0.46594 0.0
O943 O 0.13921 0.46123 0.41747 0.0
O944 O 0.11258 0.46354 0.40299 0.0
H945 H 0.04422 0.47174 0.41801 0.0
H946 H 0.02902 0.46247 0.43191 0.0
C947 C 0.04262 0.45845 0.42524 0.0
H948 H 0.03837 0.44303 0.42017 0.0
H949 H 0.07103 0.4795 0.39267 0.0
O950 O 0.14782 0.43838 0.44441 0.0
C951 C 0.13137 0.46932 0.40719 0.0
Co952 Co 0.30113 0.61378 0.30924 0.0
Co953 Co 0.29664 0.65091 0.32995 0.0
C954 C 0.33815 0.6249 0.32713 0.0
O955 O 0.33024 0.61371 0.31789 0.0
O956 O 0.32688 0.6398 0.33263 0.0
C957 C 0.32016 0.58714 0.28922 0.0
O958 O 0.33895 0.59509 0.29339 0.0
C959 C 0.30685 0.69086 0.34445 0.0
C960 C 0.27528 0.69741 0.35423 0.0
C961 C 0.29668 0.70513 0.35304 0.0
N962 N 0.29214 0.67553 0.34087 0.0
N963 N 0.27332 0.67949 0.34675 0.0
C964 C 0.32955 0.69229 0.33894 0.0
H965 H 0.33027 0.68367 0.32958 0.0
H966 H 0.33453 0.70973 0.33764 0.0
H967 H 0.34134 0.68414 0.34553 0.0
C968 C 0.28808 0.65088 0.29236 0.0
N969 N 0.2933 0.6426 0.30393 0.0
N970 N 0.29157 0.65826 0.31258 0.0
C971 C 0.28522 0.67705 0.30679 0.0
C972 C 0.28277 0.67301 0.29378 0.0
C973 C 0.28678 0.63735 0.28041 0.0
H974 H 0.27747 0.622 0.28237 0.0
H975 H 0.30367 0.63262 0.27744 0.0
H976 H 0.27864 0.6464 0.2725 0.0
O977 O 0.27864 0.60178 0.32109 0.0
O978 O 0.27552 0.62831 0.33555 0.0
H979 H 0.26843 0.69696 0.32056 0.0
H980 H 0.27866 0.71225 0.30691 0.0
C981 C 0.28214 0.69852 0.3136 0.0
H982 H 0.29729 0.70255 0.319 0.0
H983 H 0.25918 0.66991 0.3457 0.0
O984 O 0.3023 0.59335 0.29443 0.0
C985 C 0.27001 0.60954 0.33123 0.0
Co986 Co 0.1296 0.54989 0.05873 0.0
Co987 Co 0.09164 0.54677 0.07918 0.0
C988 C 0.12068 0.58636 0.07747 0.0
O989 O 0.13156 0.57835 0.06815 0.0
O990 O 0.10483 0.57582 0.08255 0.0
C991 C 0.1566 0.56877 0.03888 0.0
O992 O 0.14885 0.58759 0.04314 0.0
C993 C 0.05076 0.55665 0.09366 0.0
C994 C 0.04297 0.52367 0.1014 0.0
C995 C 0.03555 0.54522 0.10105 0.0
N996 N 0.06625 0.54236 0.08966 0.0
N997 N 0.06149 0.52272 0.09437 0.0
C998 C 0.05099 0.58083 0.0908 0.0
H999 H 0.06794 0.58676 0.08918 0.0
H1000 H 0.04136 0.58396 0.08196 0.0
H1001 H 0.04352 0.59031 0.09876 0.0
C1002 C 0.0923 0.53951 0.04146 0.0
N1003 N 0.10048 0.54437 0.0531 0.0
N1004 N 0.08456 0.54323 0.06162 0.0
C1005 C 0.06569 0.53771 0.05565 0.0
C1006 C 0.06997 0.53508 0.0427 0.0
C1007 C 0.10613 0.53715 0.02969 0.0
H1008 H 0.12066 0.52672 0.03186 0.0
H1009 H 0.11224 0.55363 0.02677 0.0
H1010 H 0.09681 0.52971 0.02165 0.0
O1011 O 0.13964 0.52558 0.06998 0.0
O1012 O 0.113 0.52419 0.0845 0.0
H1013 H 0.04471 0.52061 0.06874 0.0
H1014 H 0.03028 0.53287 0.05536 0.0
C1015 C 0.04399 0.53506 0.06225 0.0
H1016 H 0.04058 0.54989 0.06808 0.0
H1017 H 0.07091 0.50862 0.09277 0.0
O1018 O 0.1502 0.5509 0.04402 0.0
C1019 C 0.13123 0.51732 0.08006 0.0
Co1020 Co 0.18999 0.3794 0.80951 0.0
Co1021 Co 0.19338 0.34172 0.83007 0.0
C1022 C 0.15494 0.37244 0.8293 0.0
O1023 O 0.16269 0.38288 0.81974 0.0
O1024 O 0.16516 0.35617 0.83416 0.0
C1025 C 0.17052 0.407 0.7902 0.0
O1026 O 0.15188 0.39998 0.79509 0.0
C1027 C 0.18231 0.30085 0.84395 0.0
C1028 C 0.2134 0.29463 0.85435 0.0
C1029 C 0.19229 0.28654 0.85258 0.0
N1030 N 0.19695 0.31654 0.84076 0.0
N1031 N 0.2155 0.31267 0.84698 0.0
C1032 C 0.15896 0.30046 0.83934 0.0
H1033 H 0.15407 0.31664 0.83539 0.0
H1034 H 0.15733 0.28811 0.83159 0.0
H1035 H 0.14769 0.29576 0.84725 0.0
C1036 C 0.19668 0.3414 0.79221 0.0
N1037 N 0.19338 0.34992 0.80394 0.0
N1038 N 0.19515 0.33413 0.81252 0.0
C1039 C 0.19988 0.31507 0.80652 0.0
C1040 C 0.20091 0.31903 0.79345 0.0
C1041 C 0.19624 0.35465 0.78014 0.0
H1042 H 0.18071 0.36423 0.77971 0.0
H1043 H 0.19736 0.34407 0.77151 0.0
H1044 H 0.21013 0.36652 0.78021 0.0
O1045 O 0.21587 0.38835 0.81987 0.0
O1046 O 0.21737 0.36192 0.83453 0.0
H1047 H 0.21387 0.28214 0.80678 0.0
H1048 H 0.19105 0.28672 0.81749 0.0
C1049 C 0.20605 0.29422 0.8133 0.0
H1050 H 0.21767 0.29797 0.82118 0.0
H1051 H 0.22953 0.32251 0.84632 0.0
O1052 O 0.1886 0.39989 0.79474 0.0
C1053 C 0.22471 0.37969 0.82971 0.0
Co1054 Co 0.36042 0.44138 0.55929 0.0
Co1055 Co 0.40109 0.44592 0.57776 0.0
C1056 C 0.37058 0.40727 0.57919 0.0
O1057 O 0.35892 0.41446 0.56996 0.0
O1058 O 0.38733 0.41783 0.58318 0.0
C1059 C 0.32961 0.42108 0.54198 0.0
O1060 O 0.33678 0.40267 0.5471 0.0
C1061 C 0.44399 0.43574 0.5898 0.0
C1062 C 0.45181 0.46772 0.59882 0.0
C1063 C 0.45961 0.44644 0.59731 0.0
N1064 N 0.42786 0.45016 0.587 0.0
N1065 N 0.4327 0.46923 0.59238 0.0
C1066 C 0.4437 0.41203 0.58589 0.0
H1067 H 0.427 0.40689 0.58288 0.0
H1068 H 0.4549 0.40967 0.57762 0.0
H1069 H 0.44949 0.40143 0.59387 0.0
C1070 C 0.39555 0.44779 0.53998 0.0
N1071 N 0.38886 0.4449 0.55214 0.0
N1072 N 0.4059 0.4469 0.55985 0.0
C1073 C 0.42396 0.45136 0.55283 0.0
C1074 C 0.41803 0.45196 0.54 0.0
C1075 C 0.38051 0.44696 0.52864 0.0
H1076 H 0.37093 0.43142 0.52889 0.0
H1077 H 0.38974 0.44783 0.5195 0.0
H1078 H 0.36867 0.46085 0.52917 0.0
O1079 O 0.35266 0.46726 0.56997 0.0
O1080 O 0.3816 0.47022 0.58283 0.0
H1081 H 0.45696 0.46495 0.55122 0.0
H1082 H 0.45366 0.44289 0.56263 0.0
C1083 C 0.44576 0.45769 0.55845 0.0
H1084 H 0.44325 0.46989 0.56619 0.0
H1085 H 0.42281 0.48324 0.59179 0.0
O1086 O 0.33778 0.43931 0.54562 0.0
C1087 C 0.36285 0.4769 0.57904 0.0
C1088 C 0.16477 0.23505 0.35422 0.0
C1089 C 0.18152 0.22195 0.35948 0.0
C1090 C 0.15643 0.253 0.36102 0.0
C1091 C 0.17157 0.2925 0.38603 0.0
H1092 H 0.10892 0.30475 0.38698 0.0
C1093 C 0.13713 0.36611 0.41429 0.0
C1094 C 0.12104 0.37882 0.40804 0.0
C1095 C 0.14327 0.34557 0.40944 0.0
C1096 C 0.12647 0.30163 0.38673 0.0
H1097 H 0.20319 0.21759 0.37575 0.0
H1098 H 0.18866 0.24902 0.38768 0.0
H1099 H 0.12223 0.27158 0.37628 0.0
H1100 H 0.09827 0.37957 0.39202 0.0
H1101 H 0.10925 0.34399 0.38347 0.0
H1102 H 0.17594 0.32272 0.39619 0.0
C1103 C 0.18186 0.24534 0.37834 0.0
C1104 C 0.13408 0.28265 0.38061 0.0
C1105 C 0.19012 0.22735 0.37155 0.0
C1106 C 0.11072 0.37022 0.39708 0.0
C1107 C 0.11693 0.34973 0.39221 0.0
C1108 C 0.16399 0.31151 0.3921 0.0
C1109 C 0.16494 0.25837 0.37314 0.0
C1110 C 0.15672 0.27797 0.38011 0.0
C1111 C 0.13352 0.33732 0.39822 0.0
C1112 C 0.14136 0.3164 0.39243 0.0
H1113 H 0.1585 0.23178 0.3447 0.0
H1114 H 0.14375 0.26304 0.35664 0.0
H1115 H 0.18914 0.2895 0.38565 0.0
H1116 H 0.14528 0.37215 0.42281 0.0
H1117 H 0.15582 0.33624 0.41443 0.0
C1118 C -0.00427 0.95074 0.60769 0.0
C1119 C 0.01534 0.93855 0.60755 0.0
C1120 C 0.97713 0.94262 0.61394 0.0
C1121 C 0.95285 0.89121 0.62681 0.0
H1122 H 0.91455 0.93202 0.64465 0.0
C1123 C 0.8714 0.89177 0.66214 0.0
C1124 C 0.85847 0.87598 0.6558 0.0
C1125 C 0.89154 0.89849 0.65699 0.0
C1126 C 0.9252 0.92033 0.63987 0.0
H1127 H 0.03129 0.90882 0.61432 0.0
H1128 H -0.0011 0.89467 0.62537 0.0
H1129 H 0.94786 0.94559 0.63447 0.0
H1130 H 0.85674 0.85458 0.63919 0.0
H1131 H 0.8915 0.86666 0.63009 0.0
H1132 H 0.93047 0.86586 0.63252 0.0
C1133 C -0.00238 0.91017 0.6203 0.0
C1134 C 0.94415 0.92818 0.63385 0.0
C1135 C 0.01617 0.91824 0.61394 0.0
C1136 C 0.86632 0.86673 0.64435 0.0
C1137 C 0.88635 0.87357 0.63916 0.0
C1138 C 0.93397 0.88333 0.63292 0.0
C1139 C 0.97786 0.92227 0.62037 0.0
C1140 C 0.95809 0.91376 0.62714 0.0
C1141 C 0.89911 0.88969 0.64535 0.0
C1142 C 0.91981 0.89783 0.63942 0.0
H1143 H 0.99471 0.96648 0.60283 0.0
H1144 H 0.9621 0.95221 0.61362 0.0
H1145 H 0.9631 0.87966 0.62164 0.0
H1146 H 0.86592 0.89909 0.67104 0.0
H1147 H 0.90114 0.91064 0.66213 0.0
C1148 C 0.34295 0.61198 0.90642 0.0
C1149 C 0.36507 0.60535 0.90552 0.0
C1150 C 0.33598 0.63162 0.90077 0.0
C1151 C 0.35405 0.68556 0.8899 0.0
H1152 H 0.30442 0.68217 0.86661 0.0
C1153 C 0.32707 0.76008 0.85937 0.0
C1154 C 0.30441 0.76308 0.85727 0.0
C1155 C 0.33491 0.7408 0.86507 0.0
C1156 C 0.31808 0.68353 0.87323 0.0
H1157 H 0.39738 0.6145 0.89843 0.0
H1158 H 0.38517 0.64913 0.88879 0.0
H1159 H 0.31707 0.64906 0.87755 0.0
H1160 H 0.27217 0.74844 0.85995 0.0
H1161 H 0.28569 0.71532 0.87034 0.0
H1162 H 0.35475 0.72009 0.88594 0.0
C1163 C 0.37328 0.63896 0.89376 0.0
C1164 C 0.32536 0.66453 0.87944 0.0
C1165 C 0.38021 0.61913 0.89923 0.0
C1166 C 0.28976 0.74656 0.86128 0.0
C1167 C 0.29755 0.72743 0.86714 0.0
C1168 C 0.34657 0.70467 0.88384 0.0
C1169 C 0.35104 0.64517 0.89431 0.0
C1170 C 0.34339 0.66539 0.88782 0.0
C1171 C 0.32024 0.72425 0.86908 0.0
C1172 C 0.32847 0.7039 0.87542 0.0
H1173 H 0.33088 0.60172 0.91118 0.0
H1174 H 0.31877 0.63619 0.90141 0.0
H1175 H 0.36791 0.68662 0.8964 0.0
H1176 H 0.33882 0.77275 0.85694 0.0
H1177 H 0.3525 0.73891 0.86634 0.0
C1178 C 0.61959 0.10196 0.1619 0.0
C1179 C 0.6329 0.1178 0.15587 0.0
C1180 C 0.59986 0.09516 0.15628 0.0
C1181 C 0.56743 0.07321 0.13841 0.0
H1182 H 0.53024 0.11386 0.11963 0.0
C1183 C 0.49789 0.04271 0.10547 0.0
C1184 C 0.47823 0.05483 0.10523 0.0
C1185 C 0.51638 0.05091 0.11182 0.0
C1186 C 0.54031 0.10231 0.12494 0.0
H1187 H 0.63569 0.13921 0.1393 0.0
H1188 H 0.60159 0.12701 0.12939 0.0
H1189 H 0.56238 0.1277 0.13101 0.0
H1190 H 0.46211 0.08451 0.1119 0.0
H1191 H 0.49429 0.09879 0.12309 0.0
H1192 H 0.54506 0.04792 0.13265 0.0
C1193 C 0.60616 0.12011 0.13857 0.0
C1194 C 0.5589 0.11022 0.13134 0.0
C1195 C 0.62581 0.12702 0.14423 0.0
C1196 C 0.47726 0.07516 0.11159 0.0
C1197 C 0.49571 0.08329 0.11804 0.0
C1198 C 0.54877 0.06534 0.13209 0.0
C1199 C 0.59306 0.10393 0.14446 0.0
C1200 C 0.57277 0.09574 0.13808 0.0
C1201 C 0.51549 0.07125 0.11824 0.0
C1202 C 0.53507 0.07976 0.12519 0.0
H1203 H 0.62448 0.09465 0.17092 0.0
H1204 H 0.58997 0.08297 0.16119 0.0
H1205 H 0.57787 0.06154 0.14337 0.0
H1206 H 0.49903 0.02696 0.10065 0.0
H1207 H 0.53143 0.04135 0.11161 0.0
C1208 C 0.14312 0.6211 0.07696 0.0
C1209 C 0.12718 0.60786 0.08297 0.0
C1210 C 0.15006 0.64077 0.08263 0.0
C1211 C 0.15538 0.66682 0.11394 0.0
H1212 H 0.16132 0.72138 0.09492 0.0
C1213 C 0.20067 0.74286 0.13392 0.0
C1214 C 0.1896 0.76305 0.13277 0.0
C1215 C 0.19278 0.72416 0.12765 0.0
C1216 C 0.15966 0.70626 0.10034 0.0
H1217 H 0.10572 0.60518 0.09953 0.0
H1218 H 0.11801 0.63935 0.10941 0.0
H1219 H 0.14754 0.68834 0.08412 0.0
H1220 H 0.16226 0.77987 0.12368 0.0
H1221 H 0.1484 0.7471 0.1127 0.0
H1222 H 0.16757 0.68464 0.13013 0.0
C1223 C 0.12516 0.63444 0.10035 0.0
C1224 C 0.15194 0.68737 0.09415 0.0
C1225 C 0.11806 0.61493 0.09464 0.0
C1226 C 0.17078 0.76437 0.12499 0.0
C1227 C 0.16303 0.74571 0.11859 0.0
C1228 C 0.16333 0.68562 0.12007 0.0
C1229 C 0.14137 0.64744 0.09447 0.0
C1230 C 0.14965 0.6675 0.10091 0.0
C1231 C 0.17389 0.72541 0.11992 0.0
C1232 C 0.16549 0.70552 0.11335 0.0
H1233 H 0.15043 0.61615 0.06796 0.0
H1234 H 0.16267 0.65046 0.07793 0.0
H1235 H 0.15395 0.65166 0.11934 0.0
H1236 H 0.21533 0.74149 0.13979 0.0
H1237 H 0.2016 0.70876 0.12873 0.0
C1238 C 0.47616 0.91196 0.37706 0.0
C1239 C 0.4781 0.93131 0.38432 0.0
C1240 C 0.4946 0.90293 0.37103 0.0
C1241 C 0.55487 0.90166 0.37225 0.0
H1242 H 0.55125 0.88623 0.33628 0.0
C1243 C 0.62692 0.86094 0.3453 0.0
C1244 C 0.63277 0.87121 0.33373 0.0
C1245 C 0.60718 0.86627 0.3514 0.0
C1246 C 0.55245 0.89044 0.34633 0.0
H1247 H 0.5006 0.95652 0.39095 0.0
H1248 H 0.53293 0.94063 0.38052 0.0
H1249 H 0.51843 0.89958 0.34742 0.0
H1250 H 0.62207 0.89455 0.31925 0.0
H1251 H 0.58753 0.90369 0.32989 0.0
H1252 H 0.58893 0.89283 0.37113 0.0
C1253 C 0.51721 0.93236 0.37957 0.0
C1254 C 0.53368 0.8979 0.35271 0.0
C1255 C 0.49874 0.94151 0.38545 0.0
C1256 C 0.61811 0.88639 0.32818 0.0
C1257 C 0.59827 0.89154 0.33422 0.0
C1258 C 0.57357 0.89397 0.3659 0.0
C1259 C 0.5153 0.91304 0.37226 0.0
C1260 C 0.5348 0.90385 0.36569 0.0
C1261 C 0.59279 0.88178 0.34598 0.0
C1262 C 0.57259 0.88854 0.35285 0.0
H1263 H 0.46032 0.90407 0.37579 0.0
H1264 H 0.4927 0.88803 0.36545 0.0
H1265 H 0.55612 0.90599 0.38228 0.0
H1266 H 0.6378 0.84912 0.34982 0.0
H1267 H 0.60323 0.85835 0.36041 0.0
C1268 C 0.31787 0.24574 0.64332 0.0
C1269 C 0.30271 0.23202 0.63702 0.0
C1270 C 0.32559 0.26492 0.63742 0.0
C1271 C 0.31132 0.3055 0.61275 0.0
H1272 H 0.37397 0.31774 0.6119 0.0
C1273 C 0.34689 0.37363 0.58073 0.0
C1274 C 0.36398 0.38667 0.58571 0.0
C1275 C 0.3399 0.35477 0.58719 0.0
C1276 C 0.3564 0.31473 0.6122 0.0
H1277 H 0.28322 0.22807 0.61977 0.0
H1278 H 0.29649 0.26161 0.60957 0.0
H1279 H 0.3605 0.28521 0.6232 0.0
H1280 H 0.38733 0.38992 0.60133 0.0
H1281 H 0.37481 0.35724 0.61273 0.0
H1282 H 0.30707 0.33503 0.60191 0.0
C1283 C 0.30251 0.25746 0.61903 0.0
C1284 C 0.34872 0.29609 0.61865 0.0
C1285 C 0.29496 0.23824 0.62487 0.0
C1286 C 0.37416 0.38021 0.59721 0.0
C1287 C 0.36705 0.3614 0.60372 0.0
C1288 C 0.31897 0.3242 0.60639 0.0
C1289 C 0.31799 0.27094 0.62521 0.0
C1290 C 0.32612 0.29119 0.61888 0.0
C1291 C 0.3497 0.34856 0.59884 0.0
C1292 C 0.34162 0.32893 0.60592 0.0
H1293 H 0.32347 0.24205 0.6529 0.0
H1294 H 0.33721 0.27525 0.64251 0.0
H1295 H 0.29378 0.3023 0.61295 0.0
H1296 H 0.3388 0.37802 0.57185 0.0
H1297 H 0.32681 0.34501 0.58302 0.0
C1298 C 0.86913 0.10042 0.8283 0.0
C1299 C 0.8561 0.1169 0.83394 0.0
C1300 C 0.88876 0.09371 0.83404 0.0
C1301 C 0.93054 0.10987 0.85812 0.0
H1302 H 0.94306 0.04722 0.85844 0.0
C1303 C -0.00066 0.07097 0.88903 0.0
C1304 C 0.01269 0.05523 0.88298 0.0
C1305 C 0.98053 0.07905 0.88293 0.0
C1306 C 0.9399 0.06478 0.85832 0.0
H1307 H 0.85375 0.13959 0.84993 0.0
H1308 H 0.88785 0.12759 0.86007 0.0
H1309 H 0.90988 0.06065 0.84793 0.0
H1310 H 0.01648 0.0349 0.86611 0.0
H1311 H 0.98353 0.04892 0.85543 0.0
H1312 H 0.9605 0.11387 0.8687 0.0
C1313 C 0.88303 0.12007 0.8511 0.0
C1314 C 0.92091 0.0725 0.85227 0.0
C1315 C 0.86342 0.12688 0.84531 0.0
C1316 C 0.00656 0.04721 0.87091 0.0
C1317 C 0.98769 0.05517 0.86483 0.0
C1318 C 0.94949 0.10212 0.86423 0.0
C1319 C 0.89579 0.10322 0.84561 0.0
C1320 C 0.91604 0.09514 0.85205 0.0
C1321 C 0.97452 0.07123 0.87076 0.0
C1322 C 0.95438 0.0795 0.86436 0.0
H1323 H 0.86409 0.0925 0.81948 0.0
H1324 H 0.89842 0.08101 0.82942 0.0
H1325 H 0.92742 0.12743 0.85799 0.0
H1326 H 0.00319 0.07673 0.89858 0.0
H1327 H 0.97042 0.09106 0.88784 0.0
C1328 C 0.79543 0.74546 0.63211 0.0
C1329 C 0.80622 0.76581 0.63106 0.0
C1330 C 0.80415 0.72674 0.62626 0.0
C1331 C 0.83941 0.7086 0.60004 0.0
H1332 H 0.84384 0.65448 0.61962 0.0
C1333 C 0.85441 0.62266 0.57763 0.0
C1334 C 0.86954 0.60885 0.58391 0.0
C1335 C 0.84825 0.64277 0.58304 0.0
C1336 C 0.84284 0.66951 0.61406 0.0
H1337 H 0.83396 0.78289 0.6226 0.0
H1338 H 0.84925 0.75007 0.61231 0.0
H1339 H 0.82985 0.6878 0.62986 0.0
H1340 H 0.8903 0.60553 0.60072 0.0
H1341 H 0.87945 0.64058 0.61016 0.0
H1342 H 0.85219 0.69018 0.58419 0.0
C1343 C 0.83421 0.74858 0.6178 0.0
C1344 C 0.83467 0.6885 0.61989 0.0
C1345 C 0.82561 0.76727 0.6238 0.0
C1346 C 0.8787 0.6158 0.59559 0.0
C1347 C 0.87237 0.63579 0.60106 0.0
C1348 C 0.84736 0.68951 0.59416 0.0
C1349 C 0.82363 0.72812 0.61907 0.0
C1350 C 0.83281 0.7082 0.61292 0.0
C1351 C 0.85692 0.64935 0.5949 0.0
C1352 C 0.84912 0.66979 0.60113 0.0
H1353 H 0.78037 0.74396 0.6376 0.0
H1354 H 0.79552 0.71122 0.62725 0.0
H1355 H 0.83801 0.72356 0.59445 0.0
H1356 H 0.84709 0.61781 0.5686 0.0
H1357 H 0.83618 0.65286 0.57814 0.0
C1358 C -0.00377 0.03567 0.38332 0.0
C1359 C 0.97662 0.04789 0.38303 0.0
C1360 C 0.01501 0.04342 0.37707 0.0
C1361 C 0.03335 0.07929 0.35105 0.0
H1362 H 0.08888 0.08005 0.3694 0.0
C1363 C 0.11801 0.09666 0.32726 0.0
C1364 C 0.1318 0.11143 0.33383 0.0
C1365 C 0.09846 0.08925 0.33288 0.0
C1366 C 0.07347 0.07998 0.36418 0.0
H1367 H 0.96085 0.07717 0.37549 0.0
H1368 H 0.99375 0.09079 0.36457 0.0
H1369 H 0.05582 0.06627 0.38002 0.0
H1370 H 0.13582 0.13005 0.35142 0.0
H1371 H 0.10184 0.11705 0.36117 0.0
H1372 H 0.05109 0.09299 0.33519 0.0
C1373 C 0.99464 0.07536 0.36976 0.0
C1374 C 0.05462 0.07195 0.37021 0.0
C1375 C 0.97593 0.06773 0.37614 0.0
C1376 C 0.12553 0.1188 0.34605 0.0
C1377 C 0.10616 0.11122 0.3517 0.0
C1378 C 0.05229 0.08709 0.34495 0.0
C1379 C 0.01438 0.06334 0.37024 0.0
C1380 C 0.03437 0.07162 0.36373 0.0
C1381 C 0.09253 0.09626 0.34521 0.0
C1382 C 0.07248 0.08763 0.3515 0.0
H1383 H -0.0029 0.02023 0.38849 0.0
H1384 H 0.02997 0.03373 0.37747 0.0
H1385 H 0.01794 0.07905 0.34582 0.0
H1386 H 0.12238 0.0907 0.31783 0.0
H1387 H 0.08827 0.07762 0.32771 0.0
C1388 C 0.69753 0.2475 0.13198 0.0
C1389 C 0.6862 0.22738 0.13163 0.0
C1390 C 0.68929 0.26585 0.12553 0.0
C1391 C 0.63825 0.28852 0.11148 0.0
H1392 H 0.67896 0.32866 0.09496 0.0
C1393 C 0.61298 0.37548 0.09476 0.0
C1394 C 0.62264 0.38392 0.08356 0.0
C1395 C 0.6198 0.35527 0.09976 0.0
C1396 C 0.66731 0.31749 0.09937 0.0
H1397 H 0.65797 0.2103 0.12373 0.0
H1398 H 0.64354 0.24233 0.11239 0.0
H1399 H 0.69289 0.29539 0.10507 0.0
H1400 H 0.64643 0.37731 0.06855 0.0
H1401 H 0.65799 0.34187 0.07713 0.0
H1402 H 0.61262 0.31045 0.10554 0.0
C1403 C 0.65846 0.24413 0.11797 0.0
C1404 C 0.67534 0.29856 0.10534 0.0
C1405 C 0.66667 0.22579 0.1245 0.0
C1406 C 0.63879 0.37138 0.07726 0.0
C1407 C 0.64551 0.35111 0.08222 0.0
C1408 C 0.63019 0.30742 0.10545 0.0
C1409 C 0.66966 0.26439 0.11843 0.0
C1410 C 0.66094 0.28398 0.11159 0.0
C1411 C 0.63634 0.34297 0.09363 0.0
C1412 C 0.64466 0.32224 0.09943 0.0
H1413 H 0.71265 0.24914 0.13741 0.0
H1414 H 0.69816 0.28127 0.12624 0.0
H1415 H 0.62672 0.27772 0.11629 0.0
H1416 H 0.60054 0.38473 0.09987 0.0
H1417 H 0.61259 0.34963 0.10865 0.0
C1418 C 0.37358 0.88566 0.82809 0.0
C1419 C 0.35931 0.87049 0.83398 0.0
C1420 C 0.39359 0.89125 0.83385 0.0
C1421 C 0.41883 0.8953 0.86534 0.0
H1422 H 0.47391 0.90048 0.8468 0.0
C1423 C 0.49371 0.94336 0.88451 0.0
C1424 C 0.51422 0.9328 0.88377 0.0
C1425 C 0.47527 0.93424 0.87856 0.0
C1426 C 0.45866 0.89896 0.8521 0.0
H1427 H 0.35527 0.84875 0.85034 0.0
H1428 H 0.39005 0.85876 0.8604 0.0
H1429 H 0.44105 0.88667 0.83579 0.0
H1430 H 0.53181 0.9049 0.87585 0.0
H1431 H 0.49949 0.88895 0.86534 0.0
H1432 H 0.43627 0.90795 0.88157 0.0
C1433 C 0.38568 0.86634 0.85136 0.0
C1434 C 0.43988 0.89122 0.84579 0.0
C1435 C 0.3658 0.86057 0.84555 0.0
C1436 C 0.51607 0.9131 0.87681 0.0
C1437 C 0.49767 0.90412 0.87069 0.0
C1438 C 0.43751 0.9033 0.87159 0.0
C1439 C 0.39961 0.88196 0.84566 0.0
C1440 C 0.41978 0.88938 0.85236 0.0
C1441 C 0.47709 0.91459 0.87154 0.0
C1442 C 0.45756 0.90529 0.86502 0.0
H1443 H 0.36911 0.89353 0.81916 0.0
H1444 H 0.404 0.90343 0.82929 0.0
H1445 H 0.4035 0.89423 0.8706 0.0
H1446 H 0.49191 0.95864 0.88976 0.0
H1447 H 0.45964 0.94276 0.87924 0.0
C1448 C 0.79202 0.24815 0.85467 0.0
C1449 C 0.80296 0.22784 0.85544 0.0
C1450 C 0.80035 0.26657 0.86103 0.0
C1451 C 0.83391 0.28312 0.88831 0.0
H1452 H 0.83997 0.33841 0.87003 0.0
C1453 C 0.84901 0.3678 0.91262 0.0
C1454 C 0.86505 0.38132 0.90693 0.0
C1455 C 0.84261 0.34811 0.90676 0.0
C1456 C 0.83846 0.32305 0.87523 0.0
H1457 H 0.83057 0.21049 0.86388 0.0
H1458 H 0.84513 0.24275 0.87509 0.0
H1459 H 0.82633 0.30588 0.85877 0.0
H1460 H 0.88735 0.38445 0.89077 0.0
H1461 H 0.87595 0.35028 0.88054 0.0
H1462 H 0.84582 0.30043 0.90481 0.0
C1463 C 0.8303 0.24446 0.86941 0.0
C1464 C 0.83052 0.30452 0.86882 0.0
C1465 C 0.82213 0.22611 0.86288 0.0
C1466 C 0.87492 0.37447 0.89542 0.0
C1467 C 0.86833 0.35496 0.8895 0.0
C1468 C 0.84159 0.30176 0.89477 0.0
C1469 C 0.81952 0.26487 0.86849 0.0
C1470 C 0.82818 0.28439 0.8753 0.0
C1471 C 0.85194 0.34174 0.89503 0.0
C1472 C 0.84398 0.32187 0.88827 0.0
H1473 H 0.77712 0.24983 0.84905 0.0
H1474 H 0.79161 0.28207 0.86028 0.0
H1475 H 0.83211 0.2678 0.89353 0.0
H1476 H 0.84115 0.37257 0.9215 0.0
H1477 H 0.82985 0.33823 0.91118 0.0
C1478 C 0.50191 0.07704 0.60188 0.0
C1479 C 0.51418 0.05988 0.60736 0.0
C1480 C 0.48378 0.08581 0.60831 0.0
C1481 C 0.45772 0.08877 0.64034 0.0
H1482 H 0.40547 0.10347 0.62078 0.0
C1483 C 0.37217 0.10341 0.66294 0.0
C1484 C 0.35937 0.12068 0.65794 0.0
C1485 C 0.39218 0.09774 0.65725 0.0
C1486 C 0.42004 0.09972 0.62635 0.0
H1487 H 0.51668 0.03771 0.62353 0.0
H1488 H 0.48467 0.05262 0.63467 0.0
H1489 H 0.43801 0.08979 0.60976 0.0
H1490 H 0.35795 0.14607 0.64331 0.0
H1491 H 0.39285 0.13607 0.63338 0.0
H1492 H 0.43942 0.09822 0.65698 0.0
C1493 C 0.48946 0.05986 0.62562 0.0
C1494 C 0.4387 0.0919 0.62004 0.0
C1495 C 0.50765 0.05119 0.61921 0.0
C1496 C 0.36733 0.1326 0.64737 0.0
C1497 C 0.38726 0.12683 0.64163 0.0
C1498 C 0.43899 0.09646 0.64667 0.0
C1499 C 0.47734 0.07732 0.62026 0.0
C1500 C 0.45773 0.08624 0.62696 0.0
C1501 C 0.39971 0.10915 0.64641 0.0
C1502 C 0.41994 0.10192 0.63973 0.0
H1503 H 0.50609 0.08347 0.59252 0.0
H1504 H 0.47485 0.09928 0.60392 0.0
H1505 H 0.47223 0.0849 0.64594 0.0
H1506 H 0.36655 0.09394 0.6711 0.0
H1507 H 0.40137 0.08393 0.66107 0.0
C1508 C 0.61986 0.61448 0.3937 0.0
C1509 C 0.62909 0.60759 0.40537 0.0
C1510 C 0.62735 0.63358 0.38767 0.0
C1511 C 0.67503 0.67142 0.38664 0.0
H1512 H 0.63403 0.70975 0.3689 0.0
C1513 C 0.6993 0.75682 0.36683 0.0
C1514 C 0.69162 0.76222 0.35453 0.0
C1515 C 0.69182 0.73789 0.37304 0.0
C1516 C 0.64568 0.69908 0.37372 0.0
H1517 H 0.65313 0.61566 0.42001 0.0
H1518 H 0.66584 0.64927 0.40964 0.0
H1519 H 0.62029 0.67731 0.38009 0.0
H1520 H 0.67126 0.751 0.33876 0.0
H1521 H 0.6577 0.71833 0.34974 0.0
H1522 H 0.70036 0.69344 0.38037 0.0
C1523 C 0.65314 0.63963 0.405 0.0
C1524 C 0.63784 0.68048 0.38012 0.0
C1525 C 0.64574 0.62043 0.41099 0.0
C1526 C 0.67675 0.74795 0.34843 0.0
C1527 C 0.66913 0.72908 0.35468 0.0
C1528 C 0.68284 0.69011 0.38031 0.0
C1529 C 0.64414 0.64634 0.39322 0.0
C1530 C 0.65242 0.66638 0.38663 0.0
C1531 C 0.67652 0.72393 0.36707 0.0
C1532 C 0.66825 0.70409 0.37376 0.0
H1533 H 0.60707 0.60493 0.38907 0.0
H1534 H 0.62027 0.63807 0.37852 0.0
H1535 H 0.68677 0.66072 0.39135 0.0
H1536 H 0.71085 0.76743 0.37176 0.0
H1537 H 0.69771 0.73439 0.38261 0.0
C1538 C -0.00308 0.94501 0.10715 0.0
C1539 C 0.9763 0.93481 0.10836 0.0
C1540 C 0.01541 0.93603 0.11313 0.0
C1541 C 0.03279 0.90181 0.13994 0.0
H1542 H 0.08646 0.89438 0.1203 0.0
C1543 C 0.11909 0.88726 0.16212 0.0
C1544 C 0.13252 0.87142 0.15617 0.0
C1545 C 0.09879 0.89304 0.15678 0.0
C1546 C 0.07154 0.89621 0.12587 0.0
H1547 H 0.95852 0.90788 0.11722 0.0
H1548 H 0.99094 0.89217 0.12777 0.0
H1549 H 0.05342 0.9086 0.10983 0.0
H1550 H 0.13482 0.84872 0.14017 0.0
H1551 H 0.09951 0.85901 0.13082 0.0
H1552 H 0.0511 0.88975 0.15604 0.0
C1553 C 0.99281 0.90693 0.12204 0.0
C1554 C 0.05272 0.9045 0.11992 0.0
C1555 C 0.97435 0.91576 0.11591 0.0
C1556 C 0.12491 0.86101 0.145 0.0
C1557 C 0.10475 0.86696 0.13959 0.0
C1558 C 0.05173 0.89377 0.14595 0.0
C1559 C 0.01353 0.91691 0.12062 0.0
C1560 C 0.03321 0.90747 0.1269 0.0
C1561 C 0.09166 0.88326 0.14532 0.0
C1562 C 0.07128 0.89094 0.13897 0.0
H1563 H -0.00121 0.9598 0.10144 0.0
H1564 H 0.03116 0.94418 0.11201 0.0
H1565 H 0.01795 0.90407 0.14554 0.0
H1566 H 0.12443 0.89553 0.17077 0.0
H1567 H 0.08906 0.90575 0.16134 0.0
C1568 C 0.67236 0.74086 0.85025 0.0
C1569 C 0.68849 0.7277 0.8561 0.0
C1570 C 0.66463 0.7598 0.85634 0.0
C1571 C 0.67999 0.80113 0.8803 0.0
H1572 H 0.61726 0.8128 0.88179 0.0
C1573 C 0.64483 0.8725 0.91014 0.0
C1574 C 0.62769 0.8849 0.90467 0.0
C1575 C 0.65174 0.85287 0.90449 0.0
C1576 C 0.63484 0.80991 0.88133 0.0
H1577 H 0.70992 0.7244 0.87256 0.0
H1578 H 0.69649 0.75761 0.88322 0.0
H1579 H 0.63057 0.77958 0.87117 0.0
H1580 H 0.60417 0.88621 0.88903 0.0
H1581 H 0.6165 0.85216 0.87905 0.0
H1582 H 0.68436 0.83155 0.89027 0.0
C1583 C 0.68967 0.75318 0.87399 0.0
C1584 C 0.64244 0.79088 0.87527 0.0
C1585 C 0.69729 0.73417 0.86793 0.0
C1586 C 0.61738 0.87703 0.89352 0.0
C1587 C 0.62438 0.85744 0.88783 0.0
C1588 C 0.67241 0.82021 0.88629 0.0
C1589 C 0.67318 0.76613 0.86829 0.0
C1590 C 0.66509 0.7863 0.87471 0.0
C1591 C 0.64175 0.84522 0.89319 0.0
C1592 C 0.64974 0.82482 0.8869 0.0
H1593 H 0.66599 0.73675 0.84087 0.0
H1594 H 0.65226 0.76974 0.8516 0.0
H1595 H 0.69757 0.79817 0.87985 0.0
H1596 H 0.65304 0.878 0.91877 0.0
H1597 H 0.6649 0.84365 0.90899 0.0
C1598 C 0.37061 0.39015 0.16497 0.0
C1599 C 0.35842 0.37352 0.15885 0.0
C1600 C 0.39095 0.3968 0.16008 0.0
C1601 C 0.43517 0.38092 0.13724 0.0
H1602 H 0.44613 0.44382 0.13652 0.0
C1603 C 0.51566 0.41776 0.11687 0.0
C1604 C 0.51359 0.43703 0.10954 0.0
C1605 C 0.49765 0.40955 0.12369 0.0
C1606 C 0.44326 0.42621 0.13656 0.0
H1607 H 0.35833 0.35046 0.14298 0.0
H1608 H 0.39348 0.36239 0.13432 0.0
H1609 H 0.41324 0.42986 0.14698 0.0
H1610 H 0.49131 0.46298 0.10366 0.0
H1611 H 0.45972 0.44844 0.11528 0.0
H1612 H 0.46472 0.3774 0.12631 0.0
C1613 C 0.38756 0.37003 0.14302 0.0
C1614 C 0.42455 0.41817 0.14274 0.0
C1615 C 0.36731 0.36327 0.14796 0.0
C1616 C 0.49331 0.44807 0.10924 0.0
C1617 C 0.47528 0.4398 0.11597 0.0
C1618 C 0.45383 0.38899 0.13099 0.0
C1619 C 0.39949 0.38709 0.14891 0.0
C1620 C 0.42016 0.39544 0.14305 0.0
C1621 C 0.47723 0.42047 0.1233 0.0
C1622 C 0.45797 0.41175 0.13046 0.0
H1623 H 0.36433 0.39825 0.17345 0.0
H1624 H 0.3999 0.4097 0.16499 0.0
H1625 H 0.43243 0.3633 0.13744 0.0
H1626 H 0.5313 0.40931 0.1176 0.0
H1627 H 0.49984 0.39487 0.12944 0.0
C1628 C 0.8784 0.11193 0.39415 0.0
C1629 C 0.86863 0.10525 0.40571 0.0
C1630 C 0.87196 0.13156 0.38824 0.0
C1631 C 0.86228 0.17897 0.38058 0.0
H1632 H 0.79982 0.1922 0.38103 0.0
C1633 C 0.82637 0.26129 0.362 0.0
C1634 C 0.80624 0.26037 0.35542 0.0
C1635 C 0.8349 0.24248 0.3679 0.0
C1636 C 0.81729 0.18866 0.3807 0.0
H1637 H 0.84518 0.11448 0.42044 0.0
H1638 H 0.83434 0.14885 0.41029 0.0
H1639 H 0.8133 0.15947 0.39186 0.0
H1640 H 0.77926 0.23917 0.34976 0.0
H1641 H 0.79429 0.2062 0.35983 0.0
H1642 H 0.8661 0.20791 0.36908 0.0
C1643 C 0.84656 0.13866 0.40561 0.0
C1644 C 0.82507 0.17005 0.38708 0.0
C1645 C 0.85288 0.11901 0.41147 0.0
C1646 C 0.79483 0.24031 0.35479 0.0
C1647 C 0.80339 0.22148 0.36061 0.0
C1648 C 0.85446 0.19759 0.37415 0.0
C1649 C 0.85571 0.14497 0.39381 0.0
C1650 C 0.84765 0.16499 0.38712 0.0
C1651 C 0.82341 0.22239 0.36735 0.0
C1652 C 0.83186 0.20261 0.37412 0.0
H1653 H 0.89057 0.10171 0.38945 0.0
H1654 H 0.87921 0.13584 0.37911 0.0
H1655 H 0.87979 0.17563 0.38051 0.0
H1656 H 0.8352 0.27669 0.36296 0.0
H1657 H 0.85016 0.24383 0.37321 0.0
C1658 C 0.98798 0.54524 0.61754 0.0
C1659 C 0.98099 0.55427 0.60586 0.0
C1660 C 0.00703 0.55301 0.6235 0.0
C1661 C 0.04437 0.6006 0.62486 0.0
H1662 H 0.08557 0.55848 0.63919 0.0
C1663 C 0.13068 0.62555 0.6432 0.0
C1664 C 0.13863 0.61487 0.65422 0.0
C1665 C 0.11108 0.61868 0.63744 0.0
C1666 C 0.0741 0.57048 0.6354 0.0
H1667 H 0.98913 0.57746 0.59082 0.0
H1668 H 0.02224 0.59141 0.60136 0.0
H1669 H 0.05211 0.54538 0.62884 0.0
H1670 H 0.13185 0.58903 0.66803 0.0
H1671 H 0.09752 0.57739 0.65814 0.0
H1672 H 0.06628 0.62573 0.6315 0.0
C1673 C 0.01266 0.57873 0.60607 0.0
C1674 C 0.05496 0.56296 0.62944 0.0
C1675 C 0.99365 0.57087 0.60008 0.0
C1676 C 0.1263 0.59751 0.6595 0.0
C1677 C 0.10667 0.59074 0.65378 0.0
C1678 C 0.06348 0.60814 0.63088 0.0
C1679 C 0.01954 0.56987 0.61784 0.0
C1680 C 0.03988 0.57793 0.62412 0.0
C1681 C 0.09895 0.60107 0.6426 0.0
C1682 C 0.07856 0.59316 0.63623 0.0
H1683 H 0.97859 0.53228 0.62212 0.0
H1684 H 0.01186 0.54595 0.6326 0.0
H1685 H 0.03291 0.61252 0.62096 0.0
H1686 H 0.1398 0.63894 0.63887 0.0
H1687 H 0.10572 0.62685 0.62876 0.0
C1688 C 0.67362 0.25164 0.63698 0.0
C1689 C 0.68924 0.26555 0.63124 0.0
C1690 C 0.66552 0.23333 0.6304 0.0
C1691 C 0.67922 0.19457 0.60476 0.0
H1692 H 0.61659 0.18215 0.60495 0.0
C1693 C 0.6422 0.12216 0.57616 0.0
C1694 C 0.62599 0.10965 0.58244 0.0
C1695 C 0.64933 0.14218 0.58131 0.0
C1696 C 0.63415 0.18528 0.6049 0.0
H1697 H 0.70914 0.27078 0.61428 0.0
H1698 H 0.69512 0.23866 0.60285 0.0
H1699 H 0.63045 0.21494 0.61575 0.0
H1700 H 0.60461 0.10842 0.59906 0.0
H1701 H 0.61717 0.14303 0.60806 0.0
H1702 H 0.68304 0.16469 0.59417 0.0
C1703 C 0.68904 0.24203 0.61239 0.0
C1704 C 0.64206 0.20406 0.61108 0.0
C1705 C 0.69702 0.26042 0.61893 0.0
C1706 C 0.6169 0.11774 0.59387 0.0
C1707 C 0.62407 0.13766 0.59903 0.0
C1708 C 0.67133 0.1757 0.59865 0.0
C1709 C 0.67312 0.22837 0.61804 0.0
C1710 C 0.66468 0.20881 0.61114 0.0
C1711 C 0.64047 0.15006 0.59286 0.0
C1712 C 0.64872 0.17074 0.59873 0.0
H1713 H 0.66799 0.25448 0.64664 0.0
H1714 H 0.65363 0.22277 0.6351 0.0
H1715 H 0.69678 0.19771 0.60478 0.0
H1716 H 0.64949 0.11644 0.5673 0.0
H1717 H 0.66178 0.15148 0.57622 0.0
C1718 C 0.12157 0.39676 0.82957 0.0
C1719 C 0.13388 0.37958 0.83506 0.0
C1720 C 0.10197 0.40381 0.83523 0.0
C1721 C 0.05897 0.38652 0.85824 0.0
H1722 H 0.04657 0.44912 0.85997 0.0
C1723 C 0.98979 0.4225 0.88968 0.0
C1724 C 0.9763 0.43856 0.884 0.0
C1725 C 0.00884 0.41527 0.88349 0.0
C1726 C 0.04972 0.43158 0.85945 0.0
H1727 H 0.13517 0.35627 0.85082 0.0
H1728 H 0.10127 0.36882 0.86078 0.0
H1729 H 0.08005 0.43637 0.84944 0.0
H1730 H 0.97259 0.46026 0.86767 0.0
H1731 H 0.00596 0.44771 0.85688 0.0
H1732 H 0.02876 0.38181 0.86842 0.0
C1733 C 0.10654 0.37661 0.85198 0.0
C1734 C 0.06886 0.42426 0.85339 0.0
C1735 C 0.12607 0.3695 0.84629 0.0
C1736 C 0.9826 0.44775 0.87222 0.0
C1737 C 0.00171 0.44061 0.86607 0.0
C1738 C 0.0399 0.39385 0.86436 0.0
C1739 C 0.09429 0.39388 0.84654 0.0
C1740 C 0.07373 0.40165 0.85274 0.0
C1741 C 0.01494 0.4242 0.87161 0.0
C1742 C 0.03511 0.41645 0.86504 0.0
H1743 H 0.12706 0.40482 0.82088 0.0
H1744 H 0.09276 0.41694 0.83069 0.0
H1745 H 0.06204 0.36898 0.85773 0.0
H1746 H 0.98595 0.4158 0.899 0.0
H1747 H 0.01901 0.40296 0.88812 0.0
C1748 C 0.79913 0.73008 0.12006 0.0
C1749 C 0.8066 0.72457 0.13238 0.0
C1750 C 0.80704 0.74883 0.11384 0.0
C1751 C 0.853 0.78814 0.11342 0.0
H1752 H 0.81095 0.82679 0.09679 0.0
C1753 C 0.87592 0.8753 0.09588 0.0
C1754 C 0.86612 0.88306 0.08455 0.0
C1755 C 0.86945 0.85521 0.1012 0.0
C1756 C 0.82297 0.81601 0.1012 0.0
H1757 H 0.82742 0.7352 0.14809 0.0
H1758 H 0.84165 0.76758 0.13711 0.0
H1759 H 0.79814 0.79316 0.10709 0.0
H1760 H 0.84235 0.87541 0.06969 0.0
H1761 H 0.83142 0.84017 0.07882 0.0
H1762 H 0.87787 0.8109 0.10749 0.0
C1763 C 0.83003 0.75706 0.13216 0.0
C1764 C 0.8156 0.79678 0.10713 0.0
C1765 C 0.822 0.73837 0.13842 0.0
C1766 C 0.85011 0.87001 0.07848 0.0
C1767 C 0.84374 0.84985 0.08376 0.0
C1768 C 0.8604 0.80732 0.10741 0.0
C1769 C 0.82256 0.76251 0.11983 0.0
C1770 C 0.83052 0.7827 0.11335 0.0
C1771 C 0.85313 0.84235 0.09527 0.0
C1772 C 0.84546 0.82154 0.10128 0.0
H1773 H 0.78722 0.71981 0.11516 0.0
H1774 H 0.8011 0.75254 0.1043 0.0
H1775 H 0.86489 0.77743 0.11801 0.0
H1776 H 0.88824 0.88497 0.10084 0.0
H1777 H 0.87683 0.85009 0.11016 0.0
C1778 C 0.36813 0.62935 0.3434 0.0
C1779 C 0.36043 0.61967 0.33202 0.0
C1780 C 0.38837 0.62312 0.3486 0.0
C1781 C 0.42782 0.5769 0.34828 0.0
H1782 H 0.4656 0.61826 0.36611 0.0
C1783 C 0.5124 0.55197 0.36868 0.0
C1784 C 0.51713 0.55907 0.38118 0.0
C1785 C 0.4942 0.56025 0.36209 0.0
C1786 C 0.45513 0.60652 0.36122 0.0
H1787 H 0.36846 0.59655 0.31689 0.0
H1788 H 0.40398 0.58605 0.32583 0.0
H1789 H 0.43258 0.63159 0.35524 0.0
H1790 H 0.50568 0.57968 0.39677 0.0
H1791 H 0.47424 0.59453 0.38516 0.0
H1792 H 0.45038 0.55186 0.35425 0.0
C1793 C 0.39411 0.59806 0.3309 0.0
C1794 C 0.43621 0.61413 0.35501 0.0
C1795 C 0.3738 0.60419 0.32573 0.0
C1796 C 0.50312 0.57452 0.38699 0.0
C1797 C 0.48497 0.58291 0.38037 0.0
C1798 C 0.44679 0.56934 0.35441 0.0
C1799 C 0.40148 0.60717 0.34251 0.0
C1800 C 0.42223 0.59938 0.34855 0.0
C1801 C 0.48028 0.5758 0.36787 0.0
C1802 C 0.46055 0.58404 0.36102 0.0
H1803 H 0.35825 0.64132 0.34851 0.0
H1804 H 0.39339 0.63029 0.35763 0.0
H1805 H 0.41723 0.56501 0.34361 0.0
H1806 H 0.52286 0.54005 0.36394 0.0
H1807 H 0.49108 0.55457 0.35243 0.0
C1808 C 0.29683 0.24231 0.13532 0.0
C1809 C 0.30726 0.26287 0.13437 0.0
C1810 C 0.30572 0.22391 0.12921 0.0
C1811 C 0.34 0.2076 0.10221 0.0
H1812 H 0.34568 0.15233 0.12057 0.0
C1813 C 0.35382 0.12324 0.07772 0.0
C1814 C 0.3694 0.10911 0.08336 0.0
C1815 C 0.34793 0.14294 0.08371 0.0
C1816 C 0.34433 0.1677 0.11536 0.0
H1817 H 0.33456 0.28062 0.12589 0.0
H1818 H 0.35012 0.24838 0.11515 0.0
H1819 H 0.33206 0.18495 0.13174 0.0
H1820 H 0.39138 0.10489 0.09958 0.0
H1821 H 0.38088 0.13918 0.11006 0.0
H1822 H 0.35199 0.19022 0.08578 0.0
C1823 C 0.33525 0.24648 0.12077 0.0
C1824 C 0.33638 0.18628 0.12171 0.0
C1825 C 0.32651 0.26484 0.12702 0.0
C1826 C 0.3793 0.11535 0.09498 0.0
C1827 C 0.37323 0.13493 0.10102 0.0
C1828 C 0.34771 0.18893 0.09581 0.0
C1829 C 0.32497 0.22584 0.12185 0.0
C1830 C 0.33407 0.20637 0.11519 0.0
C1831 C 0.35733 0.14878 0.09551 0.0
C1832 C 0.34989 0.1688 0.10232 0.0
H1833 H 0.28188 0.24044 0.14086 0.0
H1834 H 0.29733 0.20824 0.13006 0.0
H1835 H 0.33822 0.22287 0.09695 0.0
H1836 H 0.34594 0.11895 0.06876 0.0
H1837 H 0.33552 0.15328 0.0793 0.0
C1838 C 0.62392 0.62809 0.84245 0.0
C1839 C 0.63206 0.61826 0.83124 0.0
C1840 C 0.60373 0.62158 0.84757 0.0
C1841 C 0.56603 0.57427 0.84792 0.0
H1842 H 0.52696 0.61528 0.86504 0.0
C1843 C 0.49867 0.54492 0.88248 0.0
C1844 C 0.47827 0.55575 0.88219 0.0
C1845 C 0.51652 0.55318 0.87559 0.0
C1846 C 0.53756 0.60364 0.86018 0.0
H1847 H 0.62492 0.59445 0.81631 0.0
H1848 H 0.5895 0.5833 0.82516 0.0
H1849 H 0.55898 0.62916 0.85351 0.0
H1850 H 0.46023 0.58316 0.874 0.0
H1851 H 0.49143 0.59768 0.86198 0.0
H1852 H 0.54452 0.54877 0.85444 0.0
C1853 C 0.59896 0.59578 0.83012 0.0
C1854 C 0.55603 0.61157 0.85369 0.0
C1855 C 0.61921 0.60224 0.82502 0.0
C1856 C 0.47595 0.57488 0.87475 0.0
C1857 C 0.4938 0.58312 0.86781 0.0
C1858 C 0.54755 0.56635 0.85437 0.0
C1859 C 0.59116 0.60513 0.84156 0.0
C1860 C 0.57063 0.59695 0.84762 0.0
C1861 C 0.51428 0.57233 0.86813 0.0
C1862 C 0.53327 0.58091 0.86072 0.0
H1863 H 0.63344 0.64033 0.84755 0.0
H1864 H 0.59837 0.62889 0.85649 0.0
H1865 H 0.57705 0.56253 0.84347 0.0
H1866 H 0.50087 0.5301 0.88812 0.0
H1867 H 0.53215 0.54465 0.87621 0.0
C1868 C 0.16711 0.72711 0.6278 0.0
C1869 C 0.18679 0.72884 0.63478 0.0
C1870 C 0.1581 0.74562 0.62182 0.0
C1871 C 0.15731 0.8058 0.62299 0.0
H1872 H 0.14056 0.80247 0.5872 0.0
C1873 C 0.11422 0.87742 0.59689 0.0
C1874 C 0.12395 0.88378 0.58525 0.0
C1875 C 0.12025 0.85771 0.60281 0.0
C1876 C 0.14515 0.80359 0.59719 0.0
H1877 H 0.21259 0.75105 0.64096 0.0
H1878 H 0.19668 0.78353 0.63065 0.0
H1879 H 0.15441 0.76956 0.59811 0.0
H1880 H 0.14705 0.874 0.57046 0.0
H1881 H 0.1574 0.83942 0.58078 0.0
H1882 H 0.14825 0.83984 0.62207 0.0
C1883 C 0.18817 0.76791 0.62986 0.0
C1884 C 0.1529 0.78477 0.60345 0.0
C1885 C 0.19732 0.74935 0.63569 0.0
C1886 C 0.13931 0.86963 0.57945 0.0
C1887 C 0.14516 0.84978 0.58531 0.0
C1888 C 0.1493 0.82453 0.61679 0.0
C1889 C 0.16854 0.76619 0.62282 0.0
C1890 C 0.15927 0.78579 0.61636 0.0
C1891 C 0.13593 0.84382 0.59713 0.0
C1892 C 0.14335 0.82364 0.6038 0.0
H1893 H 0.15895 0.71137 0.6267 0.0
H1894 H 0.14294 0.74389 0.61644 0.0
H1895 H 0.16198 0.80697 0.63297 0.0
H1896 H 0.1023 0.88791 0.60161 0.0
H1897 H 0.11275 0.85338 0.61187 0.0
C1898 C 0.86307 0.3962 0.33251 0.0
C1899 C 0.85578 0.37431 0.33346 0.0
C1900 C 0.88359 0.4023 0.33737 0.0
C1901 C 0.92655 0.38355 0.3602 0.0
H1902 H 0.96001 0.43093 0.34466 0.0
C1903 C 0.01366 0.41022 0.37696 0.0
C1904 C 0.01567 0.43281 0.3797 0.0
C1905 C 0.99489 0.40212 0.37082 0.0
C1906 C 0.95079 0.41769 0.34909 0.0
H1907 H 0.86462 0.34146 0.33977 0.0
H1908 H 0.9008 0.3519 0.34781 0.0
H1909 H 0.9264 0.41796 0.33435 0.0
H1910 H -0.00014 0.46469 0.37763 0.0
H1911 H 0.9674 0.45054 0.36661 0.0
H1912 H 0.95137 0.38313 0.3748 0.0
C1913 C 0.89039 0.36454 0.34371 0.0
C1914 C 0.93147 0.41032 0.34324 0.0
C1915 C 0.8697 0.35851 0.33902 0.0
C1916 C -0.0012 0.44717 0.37576 0.0
C1917 C 0.98024 0.43912 0.36943 0.0
C1918 C 0.94608 0.3907 0.36592 0.0
C1919 C 0.89748 0.38659 0.34311 0.0
C1920 C 0.91889 0.39338 0.34883 0.0
C1921 C 0.97806 0.41651 0.36699 0.0
C1922 C 0.95816 0.40804 0.36051 0.0
H1923 H 0.85265 0.4088 0.32835 0.0
H1924 H 0.88824 0.4195 0.33693 0.0
H1925 H 0.91717 0.37075 0.36492 0.0
H1926 H 0.02669 0.39877 0.37923 0.0
H1927 H 0.99371 0.38465 0.36883 0.0
C1928 C 0.29123 0.74168 0.36349 0.0
C1929 C 0.30562 0.72473 0.35972 0.0
C1930 C 0.29915 0.76012 0.37 0.0
C1931 C 0.34762 0.79386 0.37422 0.0
H1932 H 0.31984 0.81325 0.40567 0.0
C1933 C 0.38052 0.86894 0.40192 0.0
C1934 C 0.36493 0.88298 0.40756 0.0
C1935 C 0.37415 0.84851 0.39702 0.0
C1936 C 0.32762 0.80827 0.39681 0.0
H1937 H 0.33951 0.7134 0.36072 0.0
H1938 H 0.35344 0.74616 0.37142 0.0
H1939 H 0.30671 0.77999 0.39503 0.0
H1940 H 0.33049 0.88663 0.41259 0.0
H1941 H 0.31919 0.8515 0.4036 0.0
H1942 H 0.36788 0.8225 0.37556 0.0
C1943 C 0.33606 0.74515 0.36916 0.0
C1944 C 0.32015 0.78916 0.39078 0.0
C1945 C 0.32808 0.72651 0.36284 0.0
C1946 C 0.34292 0.87608 0.40837 0.0
C1947 C 0.33647 0.85583 0.40327 0.0
C1948 C 0.35485 0.81319 0.38012 0.0
C1949 C 0.32165 0.76208 0.3728 0.0
C1950 C 0.33004 0.78186 0.37942 0.0
C1951 C 0.35197 0.84182 0.39744 0.0
C1952 C 0.34488 0.82072 0.39147 0.0
H1953 H 0.27381 0.74079 0.36133 0.0
H1954 H 0.28773 0.77303 0.37268 0.0
H1955 H 0.35535 0.78863 0.36539 0.0
H1956 H 0.39766 0.87371 0.4013 0.0
H1957 H 0.38665 0.838 0.39287 0.0
C1958 C 0.86481 0.62218 0.14448 0.0
C1959 C 0.85712 0.61202 0.15571 0.0
C1960 C 0.88446 0.61532 0.13882 0.0
C1961 C 0.9226 0.568 0.13756 0.0
H1962 H 0.96254 0.61056 0.12249 0.0
C1963 C 0.00908 0.54455 0.11928 0.0
C1964 C 0.01547 0.55346 0.10744 0.0
C1965 C 0.98996 0.55188 0.12534 0.0
C1966 C 0.95144 0.59848 0.12657 0.0
H1967 H 0.86432 0.58698 0.16995 0.0
H1968 H 0.89879 0.57533 0.1602 0.0
H1969 H 0.92899 0.62327 0.13298 0.0
H1970 H 0.00604 0.57601 0.09229 0.0
H1971 H 0.97295 0.58917 0.10301 0.0
H1972 H 0.94516 0.54323 0.13121 0.0
C1973 C 0.8894 0.5883 0.15563 0.0
C1974 C 0.93222 0.60575 0.13256 0.0
C1975 C 0.86969 0.59509 0.16126 0.0
C1976 C 0.00212 0.56951 0.10165 0.0
C1977 C 0.98305 0.57693 0.10775 0.0
C1978 C 0.94187 0.56075 0.13163 0.0
C1979 C 0.89693 0.59823 0.14429 0.0
C1980 C 0.91755 0.59058 0.1381 0.0
C1981 C 0.9768 0.5682 0.11965 0.0
C1982 C 0.95646 0.57592 0.12605 0.0
H1983 H 0.85551 0.63525 0.13993 0.0
H1984 H 0.88965 0.62313 0.13 0.0
H1985 H 0.91146 0.55585 0.14153 0.0
H1986 H 0.019 0.53204 0.12392 0.0
H1987 H 0.98561 0.54494 0.13455 0.0
C1988 C 0.11307 0.11728 0.89591 0.0
C1989 C 0.12203 0.1099 0.90756 0.0
C1990 C 0.1195 0.13746 0.89072 0.0
C1991 C 0.1652 0.17733 0.89168 0.0
H1992 H 0.12407 0.21488 0.87347 0.0
C1993 C 0.18987 0.26237 0.87181 0.0
C1994 C 0.18293 0.26724 0.8593 0.0
C1995 C 0.18168 0.24395 0.87823 0.0
C1996 C 0.13575 0.20447 0.87846 0.0
H1997 H 0.14424 0.11827 0.92308 0.0
H1998 H 0.15516 0.15368 0.91412 0.0
H1999 H 0.11072 0.18164 0.88408 0.0
H2000 H 0.16278 0.25587 0.84348 0.0
H2001 H 0.1481 0.22402 0.85478 0.0
H2002 H 0.19021 0.20016 0.88604 0.0
C2003 C 0.14349 0.14365 0.90888 0.0
C2004 C 0.12813 0.18544 0.88453 0.0
C2005 C 0.13714 0.12341 0.91405 0.0
C2006 C 0.16778 0.25317 0.85328 0.0
C2007 C 0.15949 0.23479 0.85972 0.0
C2008 C 0.17278 0.19641 0.88567 0.0
C2009 C 0.13496 0.15077 0.89707 0.0
C2010 C 0.14279 0.17157 0.89113 0.0
C2011 C 0.16641 0.22997 0.87225 0.0
C2012 C 0.15817 0.21009 0.87893 0.0
H2013 H 0.10158 0.10721 0.89059 0.0
H2014 H 0.11285 0.14229 0.88152 0.0
H2015 H 0.17701 0.16682 0.89648 0.0
H2016 H 0.20158 0.27289 0.8767 0.0
H2017 H 0.18719 0.24073 0.88791 0.0
C2018 C 0.49283 0.42157 0.59735 0.0
C2019 C 0.47977 0.4376 0.60339 0.0
C2020 C 0.51196 0.41373 0.60325 0.0
C2021 C 0.55355 0.42901 0.6272 0.0
H2022 H 0.56604 0.3664 0.62842 0.0
C2023 C 0.62335 0.39418 0.65835 0.0
C2024 C 0.63636 0.37728 0.65313 0.0
C2025 C 0.6041 0.40097 0.6522 0.0
C2026 C 0.56293 0.38395 0.62803 0.0
H2027 H 0.47678 0.45828 0.62022 0.0
H2028 H 0.51016 0.44469 0.63046 0.0
H2029 H 0.5329 0.37949 0.61756 0.0
H2030 H 0.63915 0.35405 0.63743 0.0
H2031 H 0.60574 0.36617 0.6266 0.0
H2032 H 0.58357 0.43358 0.63754 0.0
C2033 C 0.50561 0.43816 0.62118 0.0
C2034 C 0.54395 0.39143 0.62182 0.0
C2035 C 0.48647 0.4459 0.61533 0.0
C2036 C 0.6295 0.3671 0.64172 0.0
C2037 C 0.61028 0.37397 0.63554 0.0
C2038 C 0.57255 0.42156 0.63335 0.0
C2039 C 0.51856 0.422 0.61521 0.0
C2040 C 0.539 0.41402 0.62143 0.0
C2041 C 0.59745 0.3911 0.64066 0.0
C2042 C 0.57739 0.39894 0.63392 0.0
H2043 H 0.48869 0.41546 0.58795 0.0
H2044 H 0.52186 0.40156 0.59832 0.0
H2045 H 0.55036 0.44655 0.62686 0.0
H2046 H 0.62805 0.40229 0.66717 0.0
H2047 H 0.59438 0.41393 0.65653 0.0
C2048 C 0.15594 0.06852 0.26817 0.0
C2049 C 0.17164 0.0688 0.27806 0.0
C2050 C 0.15528 0.05103 0.25946 0.0
C2051 C 0.17002 0.99281 0.25615 0.0
H2052 H 0.16818 0.00374 0.21959 0.0
C2053 C 0.15853 0.9236 0.21852 0.0
C2054 C 0.17348 0.92399 0.20826 0.0
C2055 C 0.1573 0.94133 0.22704 0.0
C2056 C 0.16868 0.00047 0.22978 0.0
H2057 H 0.19896 0.05096 0.28655 0.0
H2058 H 0.1976 0.0204 0.27146 0.0
H2059 H 0.16789 0.03483 0.23451 0.0
H2060 H 0.19874 0.94338 0.19883 0.0
H2061 H 0.19637 0.97438 0.21361 0.0
H2062 H 0.1709 0.95847 0.25143 0.0
C2063 C 0.18582 0.03369 0.27045 0.0
C2064 C 0.16836 0.01822 0.2383 0.0
C2065 C 0.18668 0.05127 0.27904 0.0
C2066 C 0.18708 0.94253 0.20666 0.0
C2067 C 0.18563 0.96036 0.21506 0.0
C2068 C 0.17004 0.97506 0.24764 0.0
C2069 C 0.1701 0.03335 0.2606 0.0
C2070 C 0.16929 0.01456 0.25156 0.0
C2071 C 0.17077 0.95993 0.22534 0.0
C2072 C 0.16962 0.97872 0.23437 0.0
H2073 H 0.14415 0.0818 0.26716 0.0
H2074 H 0.14295 0.05112 0.25197 0.0
H2075 H 0.17057 0.98953 0.26634 0.0
H2076 H 0.14785 0.90955 0.22002 0.0
H2077 H 0.14562 0.94063 0.23486 0.0
C2078 C 0.18834 0.90167 0.52897 0.0
C2079 C 0.17722 0.92112 0.53232 0.0
C2080 C 0.20518 0.90205 0.51985 0.0
C2081 C 0.24474 0.94 0.50451 0.0
H2082 H 0.2509 0.89294 0.47969 0.0
C2083 C 0.3052 0.94489 0.46199 0.0
C2084 C 0.31713 0.92575 0.45897 0.0
C2085 C 0.28828 0.94424 0.47103 0.0
C2086 C 0.24954 0.90608 0.48666 0.0
H2087 H 0.17468 0.95616 0.52849 0.0
H2088 H 0.2038 0.95677 0.51248 0.0
H2089 H 0.22067 0.89193 0.49505 0.0
H2090 H 0.32077 0.89094 0.46318 0.0
H2091 H 0.2913 0.88985 0.47901 0.0
H2092 H 0.27355 0.95419 0.49608 0.0
C2093 C 0.19982 0.94128 0.51707 0.0
C2094 C 0.23222 0.90551 0.49545 0.0
C2095 C 0.18302 0.9409 0.52619 0.0
C2096 C 0.31188 0.90598 0.46527 0.0
C2097 C 0.29489 0.90531 0.47428 0.0
C2098 C 0.26202 0.9406 0.4957 0.0
C2099 C 0.21123 0.9219 0.51387 0.0
C2100 C 0.2296 0.92248 0.50448 0.0
C2101 C 0.28286 0.92441 0.47723 0.0
C2102 C 0.2646 0.92366 0.48667 0.0
H2103 H 0.18431 0.88616 0.53353 0.0
H2104 H 0.21378 0.88687 0.51771 0.0
H2105 H 0.24344 0.95313 0.51148 0.0
H2106 H 0.30883 0.96039 0.4573 0.0
H2107 H 0.27916 0.95919 0.473 0.0
C2108 C 0.30091 0.05528 0.71333 0.0
C2109 C 0.31584 0.05524 0.70307 0.0
C2110 C 0.30182 0.03885 0.72269 0.0
C2111 C 0.32381 0.98264 0.72863 0.0
H2112 H 0.3113 -0.00293 0.76403 0.0
C2113 C 0.33715 0.9216 0.77063 0.0
C2114 C 0.31978 0.92004 0.77947 0.0
C2115 C 0.33707 0.93802 0.76123 0.0
C2116 C 0.31469 0.99279 0.75417 0.0
H2117 H 0.34369 0.03813 0.6947 0.0
H2118 H 0.34566 0.00986 0.71117 0.0
H2119 H 0.31071 0.02606 0.74789 0.0
H2120 H 0.28872 0.93451 0.78538 0.0
H2121 H 0.28875 0.96323 0.76907 0.0
H2122 H 0.32812 0.94937 0.73503 0.0
C2123 C 0.33287 0.02224 0.71185 0.0
C2124 C 0.31428 0.00937 0.7449 0.0
C2125 C 0.33184 0.03855 0.70243 0.0
C2126 C 0.30236 0.93524 0.77871 0.0
C2127 C 0.30242 0.95178 0.76943 0.0
C2128 C 0.32443 0.96609 0.73793 0.0
C2129 C 0.31781 0.0221 0.72207 0.0
C2130 C 0.31869 0.0045 0.73199 0.0
C2131 C 0.31977 0.95335 0.7606 0.0
C2132 C 0.31974 0.97098 0.75077 0.0
H2133 H 0.28833 0.06786 0.71406 0.0
H2134 H 0.28972 0.03909 0.7303 0.0
H2135 H 0.32693 0.97818 0.71876 0.0
H2136 H 0.35079 0.91012 0.77094 0.0
H2137 H 0.35072 0.93894 0.75458 0.0
C2138 C 0.30847 0.05352 0.02498 0.0
C2139 C 0.31585 0.07326 0.03054 0.0
C2140 C 0.29085 0.05356 0.01638 0.0
C2141 C 0.25836 0.08971 -0.00498 0.0
H2142 H 0.21476 0.04331 -0.00203 0.0
C2143 C 0.1771 0.09059 0.96619 0.0
C2144 C 0.1708 0.07056 0.96053 0.0
C2145 C 0.19437 0.09126 0.97504 0.0
C2146 C 0.22689 0.05627 -0.00305 0.0
H2147 H 0.31073 0.10861 0.03124 0.0
H2148 H 0.27985 0.10865 0.01632 0.0
H2149 H 0.24612 0.04388 0.01252 0.0
H2150 H 0.17745 0.03545 0.9599 0.0
H2151 H 0.20758 0.03665 0.97526 0.0
H2152 H 0.23907 0.10208 0.97944 0.0
C2153 C 0.28783 0.09315 0.01852 0.0
C2154 C 0.24489 0.05658 0.00528 0.0
C2155 C 0.30549 0.09311 0.02711 0.0
C2156 C 0.18188 0.05116 0.96408 0.0
C2157 C 0.19909 0.05182 0.97294 0.0
C2158 C 0.24032 0.08941 0.98671 0.0
C2159 C 0.28017 0.07335 0.01315 0.0
C2160 C 0.26091 0.07323 0.00437 0.0
C2161 C 0.20565 0.0719 0.97845 0.0
C2162 C 0.22444 0.07262 0.98754 0.0
H2163 H 0.31618 0.03795 0.02735 0.0
H2164 H 0.28562 0.03807 0.01225 0.0
H2165 H 0.27053 0.10261 0.99396 0.0
H2166 H 0.16888 0.10582 0.96369 0.0
H2167 H 0.19886 0.10693 0.97924 0.0
C2168 C 0.80149 0.93685 0.71065 0.0
C2169 C 0.81715 0.9198 0.7108 0.0
C2170 C 0.80199 0.95342 0.7199 0.0
C2171 C 0.82059 0.96559 0.75243 0.0
H2172 H 0.81433 0.02655 0.74194 0.0
C2173 C 0.82871 0.03708 0.78848 0.0
C2174 C 0.81424 0.05499 0.78709 0.0
C2175 C 0.83 0.02084 0.77904 0.0
C2176 C 0.81582 0.00961 0.74506 0.0
H2177 H 0.84547 0.90664 0.72089 0.0
H2178 H 0.84616 0.93556 0.73718 0.0
H2179 H 0.81465 -0.00245 0.72582 0.0
H2180 H 0.78982 0.06994 0.77467 0.0
H2181 H 0.79164 0.04134 0.75837 0.0
H2182 H 0.82125 0.97748 0.77168 0.0
C2183 C 0.83354 0.93605 0.72985 0.0
C2184 C 0.81607 0.99301 0.73581 0.0
C2185 C 0.8332 0.91956 0.7205 0.0
C2186 C 0.80119 0.05639 0.77601 0.0
C2187 C 0.80235 0.04004 0.76662 0.0
C2188 C 0.82014 0.98217 0.7617 0.0
C2189 C 0.81801 0.9532 0.72959 0.0
C2190 C 0.81838 0.97083 0.7394 0.0
C2191 C 0.81673 0.02202 0.76803 0.0
C2192 C 0.81767 0.0044 0.75814 0.0
H2193 H 0.78891 0.93752 0.70331 0.0
H2194 H 0.78965 0.9663 0.71955 0.0
H2195 H 0.82214 0.9486 0.75548 0.0
H2196 H 0.83912 0.0356 0.79685 0.0
H2197 H 0.84155 0.00744 0.78035 0.0
C2198 C 0.8057 0.0899 0.46212 0.0
C2199 C 0.81589 0.06995 0.45873 0.0
C2200 C 0.78858 0.0902 0.47106 0.0
C2201 C 0.76345 0.05788 0.49719 0.0
H2202 H 0.71149 0.0927 0.48967 0.0
C2203 C 0.68361 0.04912 0.52645 0.0
C2204 C 0.67229 0.06855 0.52964 0.0
C2205 C 0.70107 0.0496 0.51776 0.0
C2206 C 0.72598 0.08309 0.49199 0.0
H2207 H 0.81641 0.03473 0.46227 0.0
H2208 H 0.78652 0.03527 0.47781 0.0
H2209 H 0.74258 0.09326 0.47492 0.0
H2210 H 0.67025 0.10369 0.52605 0.0
H2211 H 0.70087 0.10455 0.51098 0.0
H2212 H 0.74689 0.04771 0.51426 0.0
C2213 C 0.79184 0.0507 0.47362 0.0
C2214 C 0.7438 0.08343 0.48354 0.0
C2215 C 0.80889 0.05038 0.46466 0.0
C2216 C 0.67859 0.08841 0.52378 0.0
C2217 C 0.69609 0.0889 0.5151 0.0
C2218 C 0.74566 0.05758 0.50565 0.0
C2219 C 0.78136 0.07058 0.47684 0.0
C2220 C 0.7627 0.07074 0.48601 0.0
C2221 C 0.70765 0.06952 0.51207 0.0
C2222 C 0.72666 0.07009 0.50312 0.0
H2223 H 0.81073 0.10528 0.45775 0.0
H2224 H 0.78103 0.10582 0.47346 0.0
H2225 H 0.77791 0.04819 0.49946 0.0
H2226 H 0.67909 0.03351 0.53073 0.0
H2227 H 0.70937 0.03432 0.51547 0.0
C2228 C 0.68934 0.06024 0.21402 0.0
C2229 C 0.66987 0.07094 0.21025 0.0
C2230 C 0.68868 0.04287 0.22278 0.0
C2231 C 0.65416 0.01709 0.24776 0.0
H2232 H 0.69076 0.96604 0.24105 0.0
C2233 C 0.64774 0.93706 0.27755 0.0
C2234 C 0.66771 0.92713 0.28116 0.0
C2235 C 0.6475 0.95433 0.2687 0.0
C2236 C 0.68059 0.98025 0.24312 0.0
H2237 H 0.63446 0.07206 0.21291 0.0
H2238 H 0.63331 0.04161 0.22814 0.0
H2239 H 0.69136 -0.00293 0.22627 0.0
H2240 H 0.70306 0.92734 0.27815 0.0
H2241 H 0.70263 0.95751 0.26279 0.0
H2242 H 0.64342 0.00022 0.26464 0.0
C2243 C 0.64911 0.04678 0.2244 0.0
C2244 C 0.68095 -0.00194 0.23466 0.0
C2245 C 0.64977 0.06418 0.21563 0.0
C2246 C 0.68739 0.93462 0.27558 0.0
C2247 C 0.68713 0.95184 0.26671 0.0
C2248 C 0.65378 -0.00074 0.25623 0.0
C2249 C 0.66854 0.03577 0.22797 0.0
C2250 C 0.66784 0.01674 0.23691 0.0
C2251 C 0.66721 0.96199 0.26322 0.0
C2252 C 0.66709 0.98068 0.25404 0.0
H2253 H 0.70512 0.06512 0.21013 0.0
H2254 H 0.70399 0.03501 0.22551 0.0
H2255 H 0.64405 0.03134 0.24985 0.0
H2256 H 0.63228 0.93166 0.28165 0.0
H2257 H 0.63185 0.96162 0.26608 0.0
C2258 C 0.68719 0.9027 0.96166 0.0
C2259 C 0.67773 0.92265 0.9576 0.0
C2260 C 0.70414 0.90261 0.97071 0.0
C2261 C 0.7295 0.93618 -0.0038 0.0
H2262 H 0.78001 0.89823 0.99078 0.0
C2263 C 0.80766 0.94273 0.02728 0.0
C2264 C 0.81774 0.92296 0.03112 0.0
C2265 C 0.7908 0.94261 0.01818 0.0
C2266 C 0.76591 0.90874 0.99252 0.0
H2267 H 0.67849 0.95814 0.95999 0.0
H2268 H 0.70812 0.95796 0.97575 0.0
H2269 H 0.74983 0.89805 0.97537 0.0
H2270 H 0.81815 0.88756 0.0283 0.0
H2271 H 0.78855 0.88733 0.01253 0.0
H2272 H 0.74549 0.94681 0.01336 0.0
C2273 C 0.70232 0.94238 0.972 0.0
C2274 C 0.74862 0.90863 0.98368 0.0
C2275 C 0.68541 0.94248 0.96291 0.0
C2276 C 0.81077 0.90309 0.02553 0.0
C2277 C 0.79387 0.90297 0.01644 0.0
C2278 C 0.74676 0.93625 0.00504 0.0
C2279 C 0.71196 0.92245 0.97595 0.0
C2280 C 0.73023 0.92238 0.98541 0.0
C2281 C 0.78357 0.92272 0.01272 0.0
C2282 C 0.7652 0.92257 0.0033 0.0
H2283 H 0.68163 0.88712 0.95779 0.0
H2284 H 0.71103 0.88696 0.97368 0.0
H2285 H 0.71541 0.94672 -0.0021 0.0
H2286 H 0.81273 0.95834 0.03133 0.0
H2287 H 0.78349 0.95815 0.01537 0.0
C2288 C 0.65224 0.56291 0.77314 0.0
C2289 C 0.6722 0.56882 0.77902 0.0
C2290 C 0.65145 0.54542 0.76445 0.0
C2291 C 0.68185 0.49524 0.75509 0.0
H2292 H 0.64678 0.49904 0.72415 0.0
C2293 C 0.68913 0.43232 0.71398 0.0
C2294 C 0.66964 0.42563 0.70785 0.0
C2295 C 0.68878 0.44927 0.72301 0.0
C2296 C 0.65643 0.49762 0.73283 0.0
H2297 H 0.7071 0.56136 0.78014 0.0
H2298 H 0.70575 0.5311 0.76488 0.0
H2299 H 0.64757 0.53007 0.73898 0.0
H2300 H 0.63442 0.43124 0.70658 0.0
H2301 H 0.63382 0.46076 0.72241 0.0
H2302 H 0.69084 0.46287 0.7489 0.0
C2303 C 0.69062 0.53969 0.76716 0.0
C2304 C 0.6569 0.5154 0.74132 0.0
C2305 C 0.69142 0.55714 0.77584 0.0
C2306 C 0.64974 0.43603 0.7111 0.0
C2307 C 0.6494 0.45304 0.72011 0.0
C2308 C 0.68141 0.47749 0.7466 0.0
C2309 C 0.6706 0.53348 0.76145 0.0
C2310 C 0.66973 0.51447 0.75251 0.0
C2311 C 0.66895 0.45995 0.7261 0.0
C2312 C 0.66879 0.47852 0.73534 0.0
H2313 H 0.63713 0.57154 0.7754 0.0
H2314 H 0.63573 0.54093 0.76031 0.0
H2315 H 0.69157 0.49381 0.76375 0.0
H2316 H 0.70474 0.42465 0.7117 0.0
H2317 H 0.70415 0.45436 0.72735 0.0
C2318 C 0.80552 0.44061 0.96451 0.0
C2319 C 0.81368 0.42057 0.95973 0.0
C2320 C 0.7882 0.44084 0.9733 0.0
C2321 C 0.75809 0.40576 -0.00356 0.0
H2322 H 0.71254 0.45004 0.99252 0.0
C2323 C 0.67744 0.40392 0.02572 0.0
C2324 C 0.67046 0.42406 0.03096 0.0
C2325 C 0.69461 0.4033 0.01682 0.0
C2326 C 0.72523 0.43769 0.9938 0.0
H2327 H 0.81022 0.38504 0.96057 0.0
H2328 H 0.7798 0.38546 0.97578 0.0
H2329 H 0.74342 0.44928 0.97763 0.0
H2330 H 0.67576 0.4594 0.03077 0.0
H2331 H 0.7057 0.4583 0.01526 0.0
H2332 H 0.73978 0.39412 0.01259 0.0
C2333 C 0.78698 0.40099 0.97286 0.0
C2334 C 0.74296 0.43728 0.98529 0.0
C2335 C 0.80436 0.40076 0.96409 0.0
C2336 C 0.68075 0.44361 0.02693 0.0
C2337 C 0.69784 0.44299 0.01799 0.0
C2338 C 0.74031 0.40613 0.00493 0.0
C2339 C 0.77857 0.42105 0.97749 0.0
C2340 C 0.75966 0.42137 0.98653 0.0
C2341 C 0.70508 0.42282 0.01291 0.0
C2342 C 0.72372 0.42214 0.00373 0.0
H2343 H 0.81244 0.45617 0.96142 0.0
H2344 H 0.7824 0.45656 0.97685 0.0
H2345 H 0.77081 0.39347 -0.00221 0.0
H2346 H 0.66985 0.38856 0.02861 0.0
H2347 H 0.69964 0.38753 0.01297 0.0
C2348 C 0.83871 0.55336 0.21342 0.0
C2349 C 0.8194 0.56466 0.20996 0.0
C2350 C 0.83812 0.53679 0.2227 0.0
C2351 C 0.80522 0.51529 0.24962 0.0
H2352 H 0.83622 0.46077 0.24263 0.0
C2353 C 0.79357 0.43753 0.28072 0.0
C2354 C 0.81243 0.42498 0.2835 0.0
C2355 C 0.79452 0.45471 0.27183 0.0
C2356 C 0.82769 0.47597 0.24481 0.0
H2357 H 0.78441 0.56776 0.21376 0.0
H2358 H 0.78341 0.53881 0.22993 0.0
H2359 H 0.838 0.4909 0.22725 0.0
H2360 H 0.84706 0.42062 0.2791 0.0
H2361 H 0.84878 0.45074 0.26374 0.0
H2362 H 0.79496 0.50041 0.2672 0.0
C2363 C 0.79902 0.54284 0.2255 0.0
C2364 C 0.82872 0.49324 0.23599 0.0
C2365 C 0.79958 0.55934 0.21618 0.0
C2366 C 0.83221 0.42991 0.27714 0.0
C2367 C 0.83317 0.44712 0.26828 0.0
C2368 C 0.80425 0.49804 0.25847 0.0
C2369 C 0.81824 0.53123 0.22877 0.0
C2370 C 0.81746 0.51307 0.23828 0.0
C2371 C 0.81436 0.45976 0.26553 0.0
C2372 C 0.81544 0.47815 0.25615 0.0
H2373 H 0.85426 0.55709 0.20884 0.0
H2374 H 0.85326 0.52834 0.22513 0.0
H2375 H 0.7966 0.53047 0.25173 0.0
H2376 H 0.77804 0.43409 0.2854 0.0
H2377 H 0.77964 0.4639 0.26979 0.0
C2378 C 0.68063 0.55201 0.46634 0.0
C2379 C 0.6739 0.57185 0.46062 0.0
C2380 C 0.69765 0.55182 0.47535 0.0
C2381 C 0.72941 0.58766 0.4973 0.0
H2382 H 0.77284 0.541 0.49504 0.0
C2383 C 0.81052 0.58913 0.52626 0.0
C2384 C 0.81709 0.56923 0.53198 0.0
C2385 C 0.79304 0.58955 0.51755 0.0
C2386 C 0.76074 0.55401 0.49588 0.0
H2387 H 0.67948 0.60713 0.46007 0.0
H2388 H 0.7093 0.60677 0.47568 0.0
H2389 H 0.74195 0.54155 0.48016 0.0
H2390 H 0.81061 0.53411 0.53292 0.0
H2391 H 0.78009 0.53489 0.51778 0.0
H2392 H 0.74831 0.60016 0.51301 0.0
C2393 C 0.70128 0.59137 0.47331 0.0
C2394 C 0.743 0.55432 0.48737 0.0
C2395 C 0.68423 0.59156 0.46431 0.0
C2396 C 0.80598 0.54973 0.52868 0.0
C2397 C 0.78855 0.55015 0.51995 0.0
C2398 C 0.74719 0.58738 0.50581 0.0
C2399 C 0.70834 0.57147 0.47884 0.0
C2400 C 0.7271 0.57112 0.48799 0.0
C2401 C 0.78181 0.57008 0.51433 0.0
C2402 C 0.76304 0.57053 0.50521 0.0
H2403 H 0.67292 0.53654 0.46378 0.0
H2404 H 0.70242 0.53626 0.47959 0.0
H2405 H 0.71731 0.60068 0.49815 0.0
H2406 H 0.81876 0.60444 0.52857 0.0
H2407 H 0.78843 0.60512 0.51325 0.0
C2408 C 0.29968 0.56222 0.27427 0.0
C2409 C 0.31979 0.56992 0.2792 0.0
C2410 C 0.29923 0.54498 0.26542 0.0
C2411 C 0.33408 0.51378 0.24262 0.0
H2412 H 0.28912 0.46898 0.24676 0.0
C2413 C 0.33593 0.43154 0.21488 0.0
C2414 C 0.31591 0.4244 0.20955 0.0
C2415 C 0.33641 0.44928 0.22339 0.0
C2416 C 0.30165 0.48146 0.2454 0.0
H2417 H 0.35526 0.56585 0.27847 0.0
H2418 H 0.35446 0.53558 0.26318 0.0
H2419 H 0.28997 0.50039 0.26126 0.0
H2420 H 0.28064 0.43007 0.20915 0.0
H2421 H 0.28151 0.46101 0.22401 0.0
H2422 H 0.34586 0.49466 0.22683 0.0
C2423 C 0.33903 0.54304 0.26603 0.0
C2424 C 0.30211 0.4995 0.25369 0.0
C2425 C 0.33948 0.56034 0.27485 0.0
C2426 C 0.29634 0.43516 0.21308 0.0
C2427 C 0.29682 0.45283 0.22165 0.0
C2428 C 0.33366 0.49568 0.23436 0.0
C2429 C 0.31888 0.53498 0.26132 0.0
C2430 C 0.31832 0.51591 0.25239 0.0
C2431 C 0.31687 0.46019 0.22682 0.0
C2432 C 0.31743 0.47933 0.23566 0.0
H2433 H 0.28421 0.56935 0.27735 0.0
H2434 H 0.28345 0.53948 0.26181 0.0
H2435 H 0.34659 0.52626 0.24123 0.0
H2436 H 0.3513 0.4236 0.21237 0.0
H2437 H 0.35209 0.45439 0.22735 0.0
C2438 C 0.30863 0.58392 0.96206 0.0
C2439 C 0.31553 0.56385 0.95669 0.0
C2440 C 0.29122 0.58449 0.9708 0.0
C2441 C 0.26009 0.54981 0.99337 0.0
H2442 H 0.21539 0.59508 0.99009 0.0
C2443 C 0.18087 0.54821 0.02364 0.0
C2444 C 0.17353 0.56835 0.02871 0.0
C2445 C 0.19769 0.54771 0.01453 0.0
C2446 C 0.22786 0.58248 0.99123 0.0
H2447 H 0.30973 0.52859 0.95642 0.0
H2448 H 0.27935 0.52961 0.97166 0.0
H2449 H 0.24612 0.59418 0.97507 0.0
H2450 H 0.17785 0.6038 0.02801 0.0
H2451 H 0.20741 0.6029 0.01226 0.0
H2452 H 0.24201 0.53819 0.00958 0.0
C2453 C 0.28748 0.54489 0.96915 0.0
C2454 C 0.24546 0.58196 0.98262 0.0
C2455 C 0.30482 0.54433 0.96037 0.0
C2456 C 0.18309 0.58801 0.02428 0.0
C2457 C 0.19998 0.58749 0.0152 0.0
C2458 C 0.24255 0.55036 0.002 0.0
C2459 C 0.28041 0.56499 0.97441 0.0
C2460 C 0.26176 0.56561 0.98359 0.0
C2461 C 0.20763 0.56732 0.0103 0.0
C2462 C 0.22619 0.56669 0.00103 0.0
H2463 H 0.31654 0.59926 0.95945 0.0
H2464 H 0.28633 0.60019 0.97481 0.0
H2465 H 0.27256 0.53719 0.99448 0.0
H2466 H 0.17374 0.53277 0.02677 0.0
H2467 H 0.2029 0.53191 0.01079 0.0
C2468 C 0.19438 0.55403 0.71112 0.0
C2469 C 0.17492 0.56417 0.70683 0.0
C2470 C 0.19353 0.5367 0.71991 0.0
C2471 C 0.15779 0.51106 0.74429 0.0
H2472 H 0.19607 0.46062 0.73947 0.0
C2473 C 0.15069 0.43287 0.77547 0.0
C2474 C 0.17055 0.4237 0.77988 0.0
C2475 C 0.15082 0.44942 0.76617 0.0
C2476 C 0.18542 0.47467 0.74101 0.0
H2477 H 0.13931 0.56414 0.70848 0.0
H2478 H 0.13784 0.53381 0.72374 0.0
H2479 H 0.19716 0.49095 0.72418 0.0
H2480 H 0.20609 0.42442 0.77779 0.0
H2481 H 0.20629 0.45338 0.76165 0.0
H2482 H 0.14611 0.49482 0.76115 0.0
C2483 C 0.15377 0.53941 0.72041 0.0
C2484 C 0.18606 0.49206 0.73226 0.0
C2485 C 0.15461 0.55674 0.71162 0.0
C2486 C 0.1905 0.43114 0.77461 0.0
C2487 C 0.19061 0.44766 0.7653 0.0
C2488 C 0.15715 0.49366 0.75304 0.0
C2489 C 0.17321 0.52912 0.72461 0.0
C2490 C 0.17232 0.5105 0.73383 0.0
C2491 C 0.17079 0.45713 0.76105 0.0
C2492 C 0.17102 0.47531 0.75153 0.0
H2493 H 0.21031 0.55942 0.70767 0.0
H2494 H 0.20883 0.52935 0.7231 0.0
H2495 H 0.1472 0.52515 0.74587 0.0
H2496 H 0.13503 0.42746 0.7793 0.0
H2497 H 0.13525 0.45617 0.76297 0.0
C2498 C 0.30455 0.44029 0.52653 0.0
C2499 C 0.31174 0.42068 0.53234 0.0
C2500 C 0.28723 0.44002 0.51773 0.0
C2501 C 0.23918 0.40714 0.50775 0.0
H2502 H 0.24238 0.44283 0.47703 0.0
C2503 C 0.17514 0.40115 0.46682 0.0
C2504 C 0.16886 0.42087 0.4608 0.0
C2505 C 0.19224 0.40097 0.47579 0.0
C2506 C 0.2411 0.43298 0.48564 0.0
H2507 H 0.30653 0.38537 0.53335 0.0
H2508 H 0.27639 0.38491 0.51791 0.0
H2509 H 0.27318 0.44265 0.49197 0.0
H2510 H 0.17515 0.45601 0.45976 0.0
H2511 H 0.20472 0.45574 0.47551 0.0
H2512 H 0.20705 0.39752 0.50142 0.0
C2513 C 0.28399 0.40052 0.52028 0.0
C2514 C 0.25877 0.43286 0.49419 0.0
C2515 C 0.30137 0.40078 0.52906 0.0
C2516 C 0.17969 0.44049 0.46415 0.0
C2517 C 0.19675 0.44032 0.47312 0.0
C2518 C 0.22147 0.40729 0.4992 0.0
C2519 C 0.27668 0.42015 0.51455 0.0
C2520 C 0.258 0.41998 0.50536 0.0
C2521 C 0.2034 0.42053 0.47894 0.0
C2522 C 0.2222 0.42026 0.48806 0.0
H2523 H 0.31217 0.45592 0.52885 0.0
H2524 H 0.28183 0.45546 0.51359 0.0
H2525 H 0.23796 0.39728 0.51636 0.0
H2526 H 0.16716 0.38573 0.46444 0.0
H2527 H 0.19709 0.38541 0.48001 0.0
C2528 C 0.33504 0.00465 0.40323 0.0
C2529 C 0.35137 0.99066 0.39828 0.0
C2530 C 0.32438 0.01974 0.39526 0.0
C2531 C 0.30626 0.02627 0.36287 0.0
H2532 H 0.29942 0.08818 0.37102 0.0
C2533 C 0.25373 0.08281 0.33096 0.0
C2534 C 0.2406 0.09844 0.33725 0.0
C2535 C 0.27015 0.07148 0.33762 0.0
C2536 C 0.30095 0.07088 0.36867 0.0
H2537 H 0.36961 0.98171 0.38119 0.0
H2538 H 0.35044 0.00771 0.36722 0.0
H2539 H 0.32254 0.06491 0.38455 0.0
H2540 H 0.23443 0.11467 0.35538 0.0
H2541 H 0.26221 0.09426 0.36713 0.0
H2542 H 0.28378 0.03162 0.3475 0.0
C2543 C 0.34614 0.00709 0.37728 0.0
C2544 C 0.3143 0.05766 0.37637 0.0
C2545 C 0.3571 0.9923 0.38528 0.0
C2546 C 0.2444 0.10279 0.35026 0.0
C2547 C 0.26049 0.09118 0.35697 0.0
C2548 C 0.29257 0.03935 0.35531 0.0
C2549 C 0.32961 0.0208 0.3822 0.0
C2550 C 0.31687 0.03522 0.37359 0.0
C2551 C 0.27348 0.07523 0.35078 0.0
C2552 C 0.28951 0.06179 0.3582 0.0
H2553 H 0.33038 0.00382 0.41322 0.0
H2554 H 0.31155 0.03009 0.39922 0.0
H2555 H 0.30787 0.00892 0.36064 0.0
H2556 H 0.25133 0.07933 0.32089 0.0
H2557 H 0.28012 0.05968 0.33246 0.0
C2558 C 0.25064 0.10625 0.63765 0.0
C2559 C 0.25304 0.10039 0.6506 0.0
C2560 C 0.23632 0.09455 0.62974 0.0
C2561 C 0.18699 0.0621 0.6288 0.0
H2562 H 0.21304 0.03104 0.60013 0.0
C2563 C 0.13981 0.99483 0.60167 0.0
C2564 C 0.14433 0.99121 0.58867 0.0
C2565 C 0.1521 0.00998 0.60869 0.0
C2566 C 0.20533 0.03997 0.60789 0.0
H2567 H 0.24187 0.07822 0.66552 0.0
H2568 H 0.21621 0.05813 0.65166 0.0
H2569 H 0.23596 0.05461 0.61349 0.0
H2570 H 0.16467 0.00118 0.57265 0.0
H2571 H 0.18554 0.02847 0.58474 0.0
H2572 H 0.15625 0.04816 0.6231 0.0
C2573 C 0.22569 0.07162 0.6477 0.0
C2574 C 0.21853 0.05331 0.61559 0.0
C2575 C 0.24039 0.08301 0.65557 0.0
C2576 C 0.16099 0.0035 0.58271 0.0
C2577 C 0.17302 0.01903 0.58967 0.0
C2578 C 0.17365 0.04914 0.62094 0.0
C2579 C 0.22382 0.07714 0.6347 0.0
C2580 C 0.20952 0.06416 0.62619 0.0
C2581 C 0.16895 0.02224 0.60281 0.0
C2582 C 0.18272 0.03756 0.61052 0.0
H2583 H 0.26024 0.11952 0.63354 0.0
H2584 H 0.23504 0.09904 0.61973 0.0
H2585 H 0.17973 0.07057 0.63689 0.0
H2586 H 0.12717 0.98545 0.60656 0.0
H2587 H 0.14874 0.01156 0.61882 0.0
C2588 C 0.13285 0.99299 0.89015 0.0
C2589 C 0.1422 0.00277 0.90108 0.0
C2590 C 0.14506 0.97835 0.8827 0.0
C2591 C 0.19444 0.94283 0.88318 0.0
H2592 H 0.19178 0.9495 0.84628 0.0
C2593 C 0.24798 0.91602 0.83618 0.0
C2594 C 0.25216 0.89387 0.83923 0.0
C2595 C 0.23307 0.92832 0.84344 0.0
C2596 C 0.19276 0.94751 0.85657 0.0
H2597 H 0.17158 0.00445 0.91287 0.0
H2598 H 0.19293 0.97911 0.89979 0.0
H2599 H 0.16883 0.97272 0.85986 0.0
H2600 H 0.24338 0.86704 0.85201 0.0
H2601 H 0.21724 0.88841 0.8645 0.0
H2602 H 0.21888 0.91814 0.87992 0.0
C2603 C 0.17607 0.98258 0.89707 0.0
C2604 C 0.17943 0.96061 0.86434 0.0
C2605 C 0.16386 -0.0028 0.90453 0.0
C2606 C 0.24071 0.88413 0.84947 0.0
C2607 C 0.22579 0.8964 0.85668 0.0
C2608 C 0.20777 0.92974 0.87541 0.0
C2609 C 0.16688 0.97317 0.886 0.0
C2610 C 0.18026 0.95853 0.87773 0.0
C2611 C 0.22202 0.91869 0.85385 0.0
C2612 C 0.20719 0.93204 0.86203 0.0
H2613 H 0.11615 -0.00319 0.88725 0.0
H2614 H 0.13742 0.97111 0.87433 0.0
H2615 H 0.19528 0.94068 0.89345 0.0
H2616 H 0.25654 0.92402 0.82837 0.0
H2617 H 0.23068 0.94553 0.8411 0.0
C2618 C 0.2404 0.88778 0.13437 0.0
C2619 C 0.2386 0.89314 0.14742 0.0
C2620 C 0.25476 0.89944 0.12645 0.0
C2621 C 0.30507 0.93058 0.12568 0.0
H2622 H 0.27972 0.96287 0.09723 0.0
C2623 C 0.35366 -0.00248 0.09905 0.0
C2624 C 0.34913 0.00159 0.08609 0.0
C2625 C 0.34112 0.98239 0.10595 0.0
C2626 C 0.28724 0.95359 0.10493 0.0
H2627 H 0.25081 0.91443 0.16249 0.0
H2628 H 0.2765 0.93443 0.14863 0.0
H2629 H 0.25627 0.93955 0.11042 0.0
H2630 H 0.32857 0.99236 0.07001 0.0
H2631 H 0.30729 0.96513 0.08187 0.0
H2632 H 0.33612 0.94395 0.12009 0.0
C2633 C 0.26654 0.92137 0.14459 0.0
C2634 C 0.27372 0.94039 0.11253 0.0
C2635 C 0.25181 0.91003 0.15246 0.0
C2636 C 0.33227 0.98971 0.08003 0.0
C2637 C 0.31999 0.9742 0.08687 0.0
C2638 C 0.3187 0.9434 0.11792 0.0
C2639 C 0.2679 0.91629 0.13151 0.0
C2640 C 0.28249 0.9291 0.12306 0.0
C2641 C 0.32401 0.9706 0.09998 0.0
C2642 C 0.3099 0.95542 0.10758 0.0
H2643 H 0.23036 0.87489 0.13021 0.0
H2644 H 0.25563 0.89529 0.11638 0.0
H2645 H 0.31215 0.92177 0.13371 0.0
H2646 H 0.36646 0.00656 0.10401 0.0
H2647 H 0.34448 0.98048 0.11606 0.0
C2648 C 0.63388 -0.00092 0.60223 0.0
C2649 C 0.63951 0.00182 0.58928 0.0
C2650 C 0.64538 0.98419 0.60989 0.0
C2651 C 0.67875 0.93481 0.60993 0.0
H2652 H 0.70799 0.96028 0.63942 0.0
C2653 C 0.74736 0.889 0.63697 0.0
C2654 C 0.75021 0.89297 0.6501 0.0
C2655 C 0.73186 0.90092 0.62997 0.0
C2656 C 0.69958 0.95269 0.63142 0.0
H2657 H 0.66095 0.99046 0.57404 0.0
H2658 H 0.68078 0.96397 0.58746 0.0
H2659 H 0.68392 0.98306 0.62633 0.0
H2660 H 0.73847 0.91175 0.66635 0.0
H2661 H 0.71067 0.93189 0.65427 0.0
H2662 H 0.6939 0.90432 0.61509 0.0
C2663 C 0.66757 0.97357 0.59163 0.0
C2664 C 0.68592 0.96583 0.62388 0.0
C2665 C 0.65634 0.98878 0.58401 0.0
C2666 C 0.73679 0.90857 0.65619 0.0
C2667 C 0.72095 0.92019 0.64924 0.0
C2668 C 0.69208 0.92152 0.61761 0.0
C2669 C 0.66242 0.97148 0.60467 0.0
C2670 C 0.67567 0.95707 0.613 0.0
C2671 C 0.71854 0.91678 0.63598 0.0
C2672 C 0.70296 0.93038 0.62835 0.0
H2673 H 0.62101 0.00891 0.60657 0.0
H2674 H 0.64112 0.98275 0.61992 0.0
H2675 H 0.6708 0.92773 0.60161 0.0
H2676 H 0.75759 0.87714 0.632 0.0
H2677 H 0.73083 0.8981 0.61975 0.0
C2678 C 0.74282 0.91628 0.33453 0.0
C2679 C 0.73952 0.89374 0.33689 0.0
C2680 C 0.75714 0.92849 0.34222 0.0
C2681 C 0.77465 0.9519 0.36577 0.0
H2682 H 0.83139 0.92959 0.37686 0.0
C2683 C 0.82456 0.99473 0.4053 0.0
C2684 C 0.8469 -0.00162 0.40251 0.0
C2685 C 0.81201 0.98062 0.39769 0.0
C2686 C 0.81561 0.93603 0.37381 0.0
H2687 H 0.7494 0.86613 0.34883 0.0
H2688 H 0.77425 0.88747 0.36221 0.0
H2689 H 0.80926 0.90817 0.36181 0.0
H2690 H 0.87381 0.98927 0.38989 0.0
H2691 H 0.85186 0.96474 0.37662 0.0
H2692 H 0.78106 0.97987 0.37762 0.0
C2693 C 0.76583 0.89568 0.35441 0.0
C2694 C 0.8029 0.92373 0.36527 0.0
C2695 C 0.75148 0.8835 0.34678 0.0
C2696 C 0.85661 0.98691 0.39227 0.0
C2697 C 0.84408 0.97275 0.3847 0.0
C2698 C 0.78729 0.96413 0.37434 0.0
C2699 C 0.7685 0.91837 0.35236 0.0
C2700 C 0.78232 0.93158 0.36115 0.0
C2701 C 0.82157 0.9698 0.38718 0.0
C2702 C 0.8079 0.95634 0.37844 0.0
H2703 H 0.73394 0.92465 0.32697 0.0
H2704 H 0.75914 0.94592 0.34031 0.0
H2705 H 0.75872 0.95821 0.36289 0.0
H2706 H 0.8166 0.00323 0.41315 0.0
H2707 H 0.79474 0.97837 0.39992 0.0
C2708 C 0.75224 0.11086 0.14225 0.0
C2709 C 0.7412 0.10075 0.15251 0.0
C2710 C 0.76756 0.09911 0.13502 0.0
C2711 C 0.80184 0.04873 0.13485 0.0
H2712 H 0.79712 0.0546 0.09798 0.0
C2713 C 0.82717 -0.00291 0.087 0.0
C2714 C 0.84891 0.99128 0.09012 0.0
C2715 C 0.8157 0.01233 0.09445 0.0
C2716 C 0.79859 0.05274 0.10825 0.0
H2717 H 0.73816 0.07058 0.16351 0.0
H2718 H 0.76467 0.04997 0.15078 0.0
H2719 H 0.77421 0.07737 0.11178 0.0
H2720 H 0.87594 -0.00248 0.10325 0.0
H2721 H 0.85597 0.02426 0.11614 0.0
H2722 H 0.82561 0.02349 0.1313 0.0
C2723 C 0.76166 0.06707 0.14841 0.0
C2724 C 0.78567 0.06597 0.11617 0.0
C2725 C 0.74637 0.07885 0.15566 0.0
C2726 C 0.85913 0.00149 0.10064 0.0
C2727 C 0.84767 0.01674 0.10807 0.0
C2728 C 0.81475 0.03548 0.12693 0.0
C2729 C 0.77215 0.07698 0.13788 0.0
C2730 C 0.78697 0.06393 0.12955 0.0
C2731 C 0.82574 0.02211 0.10516 0.0
C2732 C 0.81307 0.03717 0.11354 0.0
H2733 H 0.74882 0.12779 0.13963 0.0
H2734 H 0.77567 0.10731 0.12711 0.0
H2735 H 0.80338 0.04694 0.14512 0.0
H2736 H 0.8188 0.98953 0.07897 0.0
H2737 H 0.79873 0.01593 0.09204 0.0
C2738 C 0.66217 6e-05 0.90426 0.0
C2739 C 0.64051 0.99375 0.90127 0.0
C2740 C 0.67316 0.01554 0.89673 0.0
C2741 C 0.68961 0.05572 0.88236 0.0
H2742 H 0.68449 0.04797 0.84563 0.0
C2743 C 0.7364 0.11133 0.84715 0.0
C2744 C 0.74748 0.10039 0.83719 0.0
C2745 C 0.72087 0.10025 0.85458 0.0
C2746 C 0.6861 0.05031 0.85586 0.0
H2747 H 0.61302 -0.00041 0.8884 0.0
H2748 H 0.63216 0.02675 0.87536 0.0
H2749 H 0.66227 0.02538 0.85994 0.0
H2750 H 0.75036 0.06945 0.82693 0.0
H2751 H 0.72344 0.05003 0.84003 0.0
H2752 H 0.71408 0.08003 0.8783 0.0
C2753 C 0.64076 0.0194 0.88338 0.0
C2754 C 0.67319 0.03757 0.86406 0.0
C2755 C 0.62979 0.00391 0.8909 0.0
C2756 C 0.74213 0.07835 0.83453 0.0
C2757 C 0.72661 0.06725 0.842 0.0
C2758 C 0.70251 0.06847 0.87417 0.0
C2759 C 0.66269 0.02508 0.88607 0.0
C2760 C 0.67505 0.03992 0.8774 0.0
C2761 C 0.71609 0.07799 0.85223 0.0
C2762 C 0.70112 0.06567 0.86083 0.0
H2763 H 0.67091 0.99257 0.91219 0.0
H2764 H 0.69013 0.01942 0.89897 0.0
H2765 H 0.69122 0.05806 0.8926 0.0
H2766 H 0.73996 0.12839 0.84937 0.0
H2767 H 0.71277 0.10906 0.86225 0.0
C2768 C 0.82911 0.50017 0.90669 0.0
C2769 C 0.84658 0.48804 0.90139 0.0
C2770 C 0.81732 0.51509 0.89913 0.0
C2771 C 0.79918 0.52341 0.86688 0.0
H2772 H 0.79145 0.58498 0.87558 0.0
C2773 C 0.75207 0.58169 0.83329 0.0
C2774 C 0.73874 0.59786 0.83894 0.0
C2775 C 0.76683 0.56956 0.84074 0.0
C2776 C 0.79315 0.56776 0.87309 0.0
H2777 H 0.86555 0.48215 0.88411 0.0
H2778 H 0.84449 0.50774 0.8709 0.0
H2779 H 0.81372 0.56133 0.88938 0.0
H2780 H 0.73036 0.61411 0.85675 0.0
H2781 H 0.75522 0.59231 0.86984 0.0
H2782 H 0.77793 0.52921 0.85099 0.0
C2783 C 0.84016 0.50585 0.8809 0.0
C2784 C 0.806 0.55432 0.88097 0.0
C2785 C 0.8522 0.49129 0.88848 0.0
C2786 C 0.74057 0.60184 0.85213 0.0
C2787 C 0.75497 0.58941 0.85962 0.0
C2788 C 0.78598 0.53668 0.85915 0.0
C2789 C 0.82257 0.51773 0.88614 0.0
C2790 C 0.80912 0.53208 0.87789 0.0
C2791 C 0.76821 0.573 0.85404 0.0
C2792 C 0.78279 0.55906 0.86213 0.0
H2793 H 0.82449 0.49806 0.91662 0.0
H2794 H 0.80371 0.52408 0.90333 0.0
H2795 H 0.80124 0.50619 0.86442 0.0
H2796 H 0.75117 0.57847 0.82311 0.0
H2797 H 0.77711 0.55746 0.83604 0.0
C2798 C 0.66159 0.49806 0.08737 0.0
C2799 C 0.63993 0.49191 0.09044 0.0
C2800 C 0.67299 0.51303 0.09506 0.0
C2801 C 0.68974 0.55297 0.10945 0.0
H2802 H 0.68556 0.54525 0.14623 0.0
C2803 C 0.73654 0.60956 0.14398 0.0
C2804 C 0.74809 0.59893 0.15387 0.0
C2805 C 0.72086 0.59818 0.13682 0.0
C2806 C 0.68691 0.54758 0.13599 0.0
H2807 H 0.61296 0.49729 0.10374 0.0
H2808 H 0.6328 0.52355 0.11702 0.0
H2809 H 0.66337 0.52227 0.1321 0.0
H2810 H 0.75156 0.56827 0.16437 0.0
H2811 H 0.7244 0.54831 0.15172 0.0
H2812 H 0.7139 0.57766 0.1133 0.0
C2813 C 0.64109 0.51649 0.10881 0.0
C2814 C 0.67403 0.53459 0.12789 0.0
C2815 C 0.62971 0.50152 0.10115 0.0
C2816 C 0.74296 0.57693 0.1568 0.0
C2817 C 0.72731 0.56552 0.14959 0.0
C2818 C 0.70262 0.56594 0.11754 0.0
C2819 C 0.66294 0.52219 0.10594 0.0
C2820 C 0.67552 0.53697 0.11453 0.0
C2821 C 0.71642 0.57591 0.13936 0.0
C2822 C 0.70153 0.56321 0.13089 0.0
H2823 H 0.66995 0.49096 0.07921 0.0
H2824 H 0.6899 0.5169 0.09268 0.0
H2825 H 0.69106 0.55536 0.09921 0.0
H2826 H 0.7399 0.62658 0.14157 0.0
H2827 H 0.71243 0.60676 0.12915 0.0
C2828 C 0.65694 0.4865 0.41174 0.0
C2829 C 0.64066 0.49853 0.40523 0.0
C2830 C 0.66845 0.46972 0.40549 0.0
C2831 C 0.66859 0.43603 0.37545 0.0
H2832 H 0.7313 0.43267 0.38217 0.0
C2833 C 0.73406 0.40464 0.33979 0.0
C2834 C 0.7488 0.38871 0.34443 0.0
C2835 C 0.71917 0.41483 0.34807 0.0
C2836 C 0.71375 0.43328 0.38032 0.0
H2837 H 0.62343 0.50224 0.38717 0.0
H2838 H 0.64403 0.47387 0.37615 0.0
H2839 H 0.70829 0.45643 0.39534 0.0
H2840 H 0.75948 0.37082 0.36132 0.0
H2841 H 0.73386 0.38926 0.37586 0.0
H2842 H 0.67459 0.41387 0.35986 0.0
C2843 C 0.64754 0.47672 0.38617 0.0
C2844 C 0.7005 0.44677 0.3879 0.0
C2845 C 0.63581 0.49318 0.39247 0.0
C2846 C 0.74825 0.383 0.35748 0.0
C2847 C 0.73369 0.39354 0.36579 0.0
C2848 C 0.68194 0.4229 0.36772 0.0
C2849 C 0.66416 0.46489 0.39255 0.0
C2850 C 0.67779 0.44864 0.38542 0.0
C2851 C 0.7191 0.40956 0.36115 0.0
C2852 C 0.70465 0.4217 0.36999 0.0
H2853 H 0.66086 0.49011 0.42163 0.0
H2854 H 0.68083 0.46068 0.41079 0.0
H2855 H 0.6511 0.43659 0.37345 0.0
H2856 H 0.73406 0.40927 0.32978 0.0
H2857 H 0.70813 0.42729 0.34432 0.0
C2858 C 0.83013 0.49465 0.58757 0.0
C2859 C 0.85173 0.50115 0.59056 0.0
C2860 C 0.81905 0.47952 0.5953 0.0
C2861 C 0.80336 0.43906 0.60959 0.0
H2862 H 0.80687 0.44686 0.64638 0.0
C2863 C 0.75716 0.38148 0.64379 0.0
C2864 C 0.74504 0.39193 0.65351 0.0
C2865 C 0.77287 0.39314 0.6368 0.0
C2866 C 0.80573 0.4445 0.63613 0.0
H2867 H 0.87886 0.49634 0.60383 0.0
H2868 H 0.85953 0.46983 0.61723 0.0
H2869 H 0.82871 0.47039 0.63233 0.0
H2870 H 0.74066 0.42254 0.66391 0.0
H2871 H 0.76789 0.44297 0.65158 0.0
H2872 H 0.77978 0.41377 0.61332 0.0
C2873 C 0.85108 0.47669 0.60901 0.0
C2874 C 0.81839 0.4578 0.62809 0.0
C2875 C 0.86217 0.49181 0.60129 0.0
C2876 C 0.74969 0.41402 0.65647 0.0
C2877 C 0.76538 0.4257 0.64945 0.0
C2878 C 0.79072 0.42576 0.61762 0.0
C2879 C 0.82933 0.47055 0.60617 0.0
C2880 C 0.8171 0.45542 0.61473 0.0
C2881 C 0.77678 0.4155 0.63935 0.0
C2882 C 0.79156 0.42852 0.63097 0.0
H2883 H 0.82159 0.50153 0.57939 0.0
H2884 H 0.8022 0.47531 0.59294 0.0
H2885 H 0.80222 0.43666 0.59934 0.0
H2886 H 0.75418 0.3644 0.64135 0.0
H2887 H 0.7817 0.38472 0.62924 0.0
C2888 C 0.13889 0.4966 0.10017 0.0
C2889 C 0.14325 0.50006 0.08713 0.0
C2890 C 0.151 0.48124 0.10715 0.0
C2891 C 0.20378 0.45057 0.10617 0.0
H2892 H 0.17826 0.42044 0.13537 0.0
C2893 C 0.25009 0.38541 0.1362 0.0
C2894 C 0.25168 0.39086 0.14925 0.0
C2895 C 0.23572 0.39688 0.1282 0.0
C2896 C 0.18551 0.42877 0.12722 0.0
H2897 H 0.16307 0.48953 0.07102 0.0
H2898 H 0.18365 0.46195 0.08306 0.0
H2899 H 0.15482 0.44294 0.1216 0.0
H2900 H 0.23899 0.41205 0.16423 0.0
H2901 H 0.21335 0.43177 0.15021 0.0
H2902 H 0.23437 0.43582 0.11173 0.0
C2903 C 0.17139 0.47165 0.08804 0.0
C2904 C 0.17218 0.44177 0.11938 0.0
C2905 C 0.15952 0.48736 0.0811 0.0
C2906 C 0.23817 0.40759 0.15421 0.0
C2907 C 0.22346 0.41876 0.14623 0.0
C2908 C 0.21698 0.43721 0.11388 0.0
C2909 C 0.16752 0.46863 0.10121 0.0
C2910 C 0.18123 0.45319 0.10888 0.0
C2911 C 0.22237 0.41367 0.13315 0.0
C2912 C 0.20801 0.42653 0.12457 0.0
H2913 H 0.12654 0.50626 0.10511 0.0
H2914 H 0.14781 0.47978 0.11731 0.0
H2915 H 0.21147 0.45937 0.09835 0.0
H2916 H 0.26034 0.37264 0.1321 0.0
H2917 H 0.23506 0.3927 0.11812 0.0
C2918 C 0.33715 0.48372 0.90194 0.0
C2919 C 0.35333 0.49813 0.89722 0.0
C2920 C 0.32698 0.46863 0.89377 0.0
C2921 C 0.30916 0.46286 0.86142 0.0
H2922 H 0.3043 0.4004 0.86859 0.0
C2923 C 0.25582 0.40679 0.82968 0.0
C2924 C 0.24324 0.39087 0.83611 0.0
C2925 C 0.27265 0.41799 0.83607 0.0
C2926 C 0.3053 0.41784 0.86651 0.0
H2927 H 0.37175 0.50787 0.88034 0.0
H2928 H 0.35338 0.48192 0.86601 0.0
H2929 H 0.3271 0.42363 0.88231 0.0
H2930 H 0.23856 0.37395 0.8542 0.0
H2931 H 0.267 0.39407 0.86546 0.0
H2932 H 0.28638 0.45766 0.84618 0.0
C2933 C 0.34888 0.48217 0.87605 0.0
C2934 C 0.31846 0.43104 0.87432 0.0
C2935 C 0.35937 0.49694 0.88425 0.0
C2936 C 0.24806 0.38606 0.84896 0.0
C2937 C 0.26456 0.3975 0.8554 0.0
C2938 C 0.29564 0.44978 0.85376 0.0
C2939 C 0.33253 0.46803 0.88074 0.0
C2940 C 0.32024 0.45367 0.87191 0.0
C2941 C 0.27696 0.41377 0.84909 0.0
C2942 C 0.29323 0.42715 0.85634 0.0
H2943 H 0.33226 0.48422 0.9119 0.0
H2944 H 0.31426 0.45793 0.89753 0.0
H2945 H 0.31021 0.48036 0.85947 0.0
H2946 H 0.25262 0.41064 0.81973 0.0
H2947 H 0.28214 0.43009 0.83082 0.0
C2948 C 0.2575 0.6131 0.64057 0.0
C2949 C 0.2475 0.60208 0.65089 0.0
C2950 C 0.27293 0.60237 0.63291 0.0
C2951 C 0.30938 0.55365 0.63132 0.0
H2952 H 0.30086 0.55939 0.59466 0.0
C2953 C 0.33028 0.50113 0.58336 0.0
C2954 C 0.35226 0.49536 0.58591 0.0
C2955 C 0.31967 0.51701 0.5908 0.0
C2956 C 0.30344 0.55764 0.60487 0.0
H2957 H 0.24655 0.57139 0.66154 0.0
H2958 H 0.27331 0.5526 0.64807 0.0
H2959 H 0.27859 0.5814 0.60925 0.0
H2960 H 0.3807 0.50265 0.59779 0.0
H2961 H 0.36221 0.53047 0.61064 0.0
H2962 H 0.33358 0.52923 0.62696 0.0
C2963 C 0.26935 0.56962 0.64598 0.0
C2964 C 0.29087 0.57041 0.61323 0.0
C2965 C 0.25392 0.58036 0.65367 0.0
C2966 C 0.36368 0.50652 0.59566 0.0
C2967 C 0.35307 0.52241 0.60307 0.0
C2968 C 0.32196 0.5409 0.62296 0.0
C2969 C 0.27872 0.58038 0.63538 0.0
C2970 C 0.29346 0.56828 0.62654 0.0
C2971 C 0.33083 0.52748 0.6009 0.0
C2972 C 0.31888 0.5425 0.60965 0.0
H2973 H 0.2531 0.62992 0.63823 0.0
H2974 H 0.28014 0.61119 0.62493 0.0
H2975 H 0.31191 0.55184 0.64152 0.0
H2976 H 0.32102 0.49287 0.57592 0.0
H2977 H 0.30245 0.52042 0.58896 0.0
C2978 C 0.2495 0.57429 0.335 0.0
C2979 C 0.2538 0.59625 0.33843 0.0
C2980 C 0.23512 0.56145 0.34228 0.0
C2981 C 0.19556 0.54134 0.35563 0.0
H2982 H 0.19925 0.54602 0.39259 0.0
C2983 C 0.13542 0.49554 0.38886 0.0
C2984 C 0.14448 0.48534 0.39974 0.0
C2985 C 0.14801 0.50999 0.3815 0.0
C2986 C 0.19811 0.54443 0.38229 0.0
H2987 H 0.24579 0.62216 0.35198 0.0
H2988 H 0.22049 0.59986 0.36453 0.0
H2989 H 0.22262 0.56914 0.37924 0.0
H2990 H 0.17381 0.48258 0.41151 0.0
H2991 H 0.19587 0.50758 0.39854 0.0
H2992 H 0.17154 0.51614 0.35869 0.0
C2993 C 0.22858 0.59243 0.35637 0.0
C2994 C 0.2113 0.55787 0.37464 0.0
C2995 C 0.243 0.60524 0.34912 0.0
C2996 C 0.16631 0.4902 0.40321 0.0
C2997 C 0.17893 0.50461 0.39581 0.0
C2998 C 0.18239 0.52787 0.36329 0.0
C2999 C 0.22468 0.57032 0.35313 0.0
C3000 C 0.21023 0.55642 0.36122 0.0
C3001 C 0.16996 0.51453 0.38482 0.0
C3002 C 0.18358 0.52921 0.3767 0.0
H3003 H 0.25758 0.56685 0.32684 0.0
H3004 H 0.23263 0.5444 0.33961 0.0
H3005 H 0.19419 0.53998 0.34533 0.0
H3006 H 0.11861 0.4923 0.38597 0.0
H3007 H 0.14052 0.51765 0.37321 0.0
C3008 C 0.28167 0.30624 0.21988 0.0
C3009 C 0.27145 0.30741 0.20787 0.0
C3010 C 0.27364 0.29187 0.22923 0.0
C3011 C 0.24054 0.24132 0.23279 0.0
H3012 H 0.2374 0.25879 0.26843 0.0
C3013 C 0.19893 0.18745 0.27144 0.0
C3014 C 0.20981 0.18593 0.28324 0.0
C3015 C 0.20608 0.20248 0.2622 0.0
C3016 C 0.23838 0.25361 0.25852 0.0
H3017 H 0.24453 0.29532 0.19625 0.0
H3018 H 0.23038 0.27027 0.21257 0.0
H3019 H 0.25054 0.28501 0.25247 0.0
H3020 H 0.237 0.19823 0.29459 0.0
H3021 H 0.24955 0.2245 0.27848 0.0
H3022 H 0.22844 0.20991 0.23884 0.0
C3023 C 0.24482 0.28005 0.21473 0.0
C3024 C 0.24591 0.26862 0.24939 0.0
C3025 C 0.25286 0.29439 0.20541 0.0
C3026 C 0.2281 0.19943 0.28562 0.0
C3027 C 0.23524 0.21446 0.27642 0.0
C3028 C 0.233 0.22632 0.24192 0.0
C3029 C 0.25524 0.27847 0.22671 0.0
C3030 C 0.2471 0.26263 0.23643 0.0
C3031 C 0.22427 0.21622 0.26462 0.0
C3032 C 0.23189 0.23228 0.25489 0.0
H3033 H 0.29612 0.31609 0.22193 0.0
H3034 H 0.28215 0.29087 0.23833 0.0
H3035 H 0.24159 0.23609 0.2229 0.0
H3036 H 0.18472 0.17721 0.26944 0.0
H3037 H 0.19717 0.20359 0.25324 0.0
C3038 C 0.03694 0.95181 0.53083 0.0
C3039 C 0.05723 0.96238 0.53261 0.0
C3040 C 0.02223 0.95936 0.52154 0.0
C3041 C 0.01853 0.99319 0.49226 0.0
H3042 H 0.95691 -0.00208 0.50163 0.0
C3043 C 0.95548 0.03755 0.46016 0.0
C3044 C 0.93523 0.02688 0.45842 0.0
C3045 C 0.97022 0.03014 0.46947 0.0
C3046 C 0.97403 -0.00349 0.49883 0.0
H3047 H 0.07839 0.98878 0.52611 0.0
H3048 H 0.05271 0.00207 0.50981 0.0
H3049 H 0.98332 0.98329 0.51703 0.0
H3050 H 0.91416 0.00047 0.46499 0.0
H3051 H 0.93991 0.98741 0.48132 0.0
H3052 H 0.00924 0.0064 0.47406 0.0
C3053 C 0.0482 0.98783 0.51548 0.0
C3054 C 0.98914 0.98809 0.50764 0.0
C3055 C 0.06288 0.98027 0.52478 0.0
C3056 C 0.92965 0.00905 0.46629 0.0
C3057 C 0.94436 0.00162 0.47561 0.0
C3058 C 0.00342 0.00161 0.48345 0.0
C3059 C 0.0276 0.97762 0.51387 0.0
C3060 C 0.01155 0.98632 0.50444 0.0
C3061 C 0.96492 0.01193 0.4772 0.0
C3062 C 0.981 0.00335 0.48664 0.0
H3063 H 0.03239 0.93786 0.53673 0.0
H3064 H 0.00664 0.95093 0.52038 0.0
H3065 H 0.03564 0.99177 0.48946 0.0
H3066 H 0.95997 0.05147 0.45421 0.0
H3067 H 0.98578 0.03863 0.4706 0.0
C3068 C 0.25668 0.81063 0.77594 0.0
C3069 C 0.27492 0.80504 0.78349 0.0
C3070 C 0.24864 0.79585 0.76682 0.0
C3071 C 0.24889 0.73664 0.75861 0.0
H3072 H 0.22917 0.7573 0.72541 0.0
C3073 C 0.23053 0.67836 0.71629 0.0
C3074 C 0.21221 0.68329 0.70863 0.0
C3075 C 0.23719 0.6929 0.72589 0.0
C3076 C 0.23435 0.75132 0.7347 0.0
H3077 H 0.29934 0.78003 0.78747 0.0
H3078 H 0.2856 0.75421 0.77139 0.0
H3079 H 0.24331 0.78363 0.74098 0.0
H3080 H 0.18604 0.7067 0.70511 0.0
H3081 H 0.19764 0.73227 0.72193 0.0
H3082 H 0.24015 0.70429 0.75224 0.0
C3083 C 0.27723 0.76982 0.77261 0.0
C3084 C 0.24247 0.76639 0.74362 0.0
C3085 C 0.28519 0.78459 0.78173 0.0
C3086 C 0.20032 0.7027 0.71088 0.0
C3087 C 0.20701 0.71731 0.72044 0.0
C3088 C 0.24084 0.72156 0.74967 0.0
C3089 C 0.25874 0.7752 0.76511 0.0
C3090 C 0.24991 0.75922 0.75566 0.0
C3091 C 0.22567 0.71268 0.72795 0.0
C3092 C 0.23355 0.72873 0.73761 0.0
H3093 H 0.24833 0.82623 0.7773 0.0
H3094 H 0.23421 0.80038 0.76133 0.0
H3095 H 0.25411 0.73062 0.76788 0.0
H3096 H 0.24007 0.66357 0.71459 0.0
H3097 H 0.25177 0.689 0.73141 0.0
C3098 C 0.4302 0.012 0.02296 0.0
C3099 C 0.43586 0.03042 0.03034 0.0
C3100 C 0.44487 0.0038 0.01385 0.0
C3101 C 0.50401 0.00336 0.006 0.0
H3102 H 0.48389 0.98125 0.97321 0.0
C3103 C 0.56309 0.97961 0.965 0.0
C3104 C 0.55786 0.96076 0.95788 0.0
C3105 C 0.54845 0.98758 0.97419 0.0
C3106 C 0.48971 0.98712 0.98239 0.0
H3107 H 0.46065 0.05527 0.03385 0.0
H3108 H 0.4863 0.04119 0.01777 0.0
H3109 H 0.45741 -0.00284 0.98811 0.0
H3110 H 0.53384 0.93496 0.95492 0.0
H3111 H 0.50811 0.94881 0.97106 0.0
H3112 H 0.53633 0.99343 0.00023 0.0
C3113 C 0.47076 0.03279 0.01915 0.0
C3114 C 0.47456 -0.00374 0.99091 0.0
C3115 C 0.45608 0.04094 0.02827 0.0
C3116 C 0.53807 0.94963 0.96028 0.0
C3117 C 0.52337 0.95761 0.96944 0.0
C3118 C 0.51916 0.99428 -0.00254 0.0
C3119 C 0.46544 0.01393 0.01196 0.0
C3120 C 0.48154 0.0045 0.00281 0.0
C3121 C 0.52829 0.97683 0.97638 0.0
C3122 C 0.51217 0.98606 0.98557 0.0
H3123 H 0.41473 0.00354 0.02453 0.0
H3124 H 0.44038 0.98912 0.00858 0.0
H3125 H 0.50986 0.00919 0.01518 0.0
H3126 H 0.57819 0.98857 0.96317 0.0
H3127 H 0.55259 0.00255 0.97929 0.0
C3128 C 0.20804 0.80919 0.21871 0.0
C3129 C 0.21938 0.8104 0.20705 0.0
C3130 C 0.21523 0.79488 0.22833 0.0
C3131 C 0.24878 0.74465 0.23285 0.0
H3132 H 0.24637 0.76075 0.26872 0.0
C3133 C 0.28789 0.69152 0.27265 0.0
C3134 C 0.27541 0.68856 0.2838 0.0
C3135 C 0.28112 0.70655 0.26332 0.0
C3136 C 0.24695 0.75597 0.25874 0.0
H3137 H 0.24756 0.7986 0.1964 0.0
H3138 H 0.2604 0.77384 0.21323 0.0
H3139 H 0.23478 0.78727 0.25249 0.0
H3140 H 0.24591 0.6984 0.29391 0.0
H3141 H 0.23407 0.72486 0.27764 0.0
H3142 H 0.26108 0.71341 0.2391 0.0
C3143 C 0.24563 0.78343 0.21488 0.0
C3144 C 0.24029 0.77113 0.24945 0.0
C3145 C 0.23837 0.79764 0.20527 0.0
C3146 C 0.25595 0.70068 0.28545 0.0
C3147 C 0.24923 0.71581 0.27617 0.0
C3148 C 0.25552 0.72954 0.24213 0.0
C3149 C 0.23399 0.78164 0.22646 0.0
C3150 C 0.24114 0.76565 0.23639 0.0
C3151 C 0.26177 0.71893 0.26501 0.0
C3152 C 0.25466 0.73503 0.25517 0.0
H3153 H 0.19328 0.81887 0.22024 0.0
H3154 H 0.20576 0.79376 0.23709 0.0
H3155 H 0.24924 0.73972 0.22289 0.0
H3156 H 0.30304 0.68241 0.27124 0.0
H3157 H 0.29123 0.70876 0.25488 0.0
C3158 C 0.55333 0.03883 0.52063 0.0
C3159 C 0.55451 0.02829 0.53255 0.0
C3160 C 0.53849 0.03144 0.51135 0.0
C3161 C 0.50533 0.98302 0.50205 0.0
H3162 H 0.4713 0.02573 0.48279 0.0
C3163 C 0.43341 0.9575 0.46916 0.0
C3164 C 0.43273 0.96771 0.45713 0.0
C3165 C 0.44781 0.96517 0.47859 0.0
C3166 C 0.48082 0.01361 0.48802 0.0
H3167 H 0.54177 0.00158 0.54411 0.0
H3168 H 0.51558 0.98886 0.52802 0.0
H3169 H 0.49805 0.03841 0.49857 0.0
H3170 H 0.44582 0.99421 0.44554 0.0
H3171 H 0.47121 0.0075 0.46192 0.0
H3172 H 0.48811 0.95822 0.49149 0.0
C3173 C 0.52614 0.00269 0.52576 0.0
C3174 C 0.49617 0.02088 0.49703 0.0
C3175 C 0.54094 0.01009 0.53501 0.0
C3176 C 0.44626 0.98597 0.45473 0.0
C3177 C 0.46061 0.99367 0.46414 0.0
C3178 C 0.48997 0.97576 0.49305 0.0
C3179 C 0.52467 0.01334 0.51384 0.0
C3180 C 0.5086 0.00565 0.50413 0.0
C3181 C 0.46168 0.98325 0.47614 0.0
C3182 C 0.47757 0.99098 0.48593 0.0
H3183 H 0.56367 0.05293 0.51857 0.0
H3184 H 0.53792 0.03981 0.5022 0.0
H3185 H 0.51488 0.97089 0.50724 0.0
H3186 H 0.42307 0.94338 0.47117 0.0
H3187 H 0.44808 0.95698 0.4878 0.0
C3188 C 0.22661 0.30897 0.77584 0.0
C3189 C 0.2084 0.30364 0.78347 0.0
C3190 C 0.23459 0.2939 0.7669 0.0
C3191 C 0.23524 0.23464 0.75947 0.0
H3192 H 0.25465 0.25471 0.7261 0.0
C3193 C 0.25903 0.17579 0.71812 0.0
C3194 C 0.27708 0.18197 0.71057 0.0
C3195 C 0.25104 0.19002 0.72753 0.0
C3196 C 0.24954 0.24889 0.73544 0.0
H3197 H 0.18401 0.27876 0.78779 0.0
H3198 H 0.19781 0.25232 0.77201 0.0
H3199 H 0.23908 0.28103 0.74116 0.0
H3200 H 0.30162 0.20712 0.70716 0.0
H3201 H 0.2878 0.23203 0.72368 0.0
H3202 H 0.24567 0.20245 0.75368 0.0
C3203 C 0.20609 0.26802 0.77303 0.0
C3204 C 0.24059 0.26396 0.74406 0.0
C3205 C 0.19812 0.28313 0.78197 0.0
C3206 C 0.28753 0.20218 0.71283 0.0
C3207 C 0.27955 0.21641 0.72221 0.0
C3208 C 0.24417 0.21954 0.75083 0.0
C3209 C 0.22451 0.27321 0.76545 0.0
C3210 C 0.23343 0.25703 0.75619 0.0
C3211 C 0.26098 0.21066 0.72951 0.0
C3212 C 0.25152 0.22655 0.73875 0.0
H3213 H 0.235 0.32459 0.77701 0.0
H3214 H 0.24901 0.29826 0.76135 0.0
H3215 H 0.23014 0.22886 0.76882 0.0
H3216 H 0.25064 0.16032 0.71643 0.0
H3217 H 0.2366 0.18522 0.73294 0.0
C3218 C 0.94733 0.98417 0.03588 0.0
C3219 C 0.93468 0.96516 0.03388 0.0
C3220 C 0.96183 0.99158 0.02647 0.0
C3221 C 0.97374 0.98786 0.99197 0.0
H3222 H 0.0317 0.00814 0.00221 0.0
C3223 C 0.04202 0.00664 0.95535 0.0
C3224 C 0.05456 0.02572 0.95738 0.0
C3225 C 0.02751 -0.00084 0.96473 0.0
C3226 C 0.0155 0.00275 -0.00079 0.0
H3227 H 0.92688 0.93906 0.02054 0.0
H3228 H 0.95235 0.95195 0.00398 0.0
H3229 H 0.00587 0.99521 0.01841 0.0
H3230 H 0.0621 0.05189 0.97072 0.0
H3231 H 0.03663 0.03885 0.98723 0.0
H3232 H 0.98338 0.9954 0.97277 0.0
C3233 C 0.95096 0.96124 0.01279 0.0
C3234 C 0.0007 0.99535 0.00849 0.0
C3235 C 0.93645 0.95383 0.02224 0.0
C3236 C 0.05264 0.03706 0.96901 0.0
C3237 C 0.03812 0.02956 0.97843 0.0
C3238 C 0.98854 0.99526 0.98269 0.0
C3239 C 0.96391 0.98013 0.01485 0.0
C3240 C 0.97965 0.98784 0.00497 0.0
C3241 C 0.0253 0.01059 0.97635 0.0
C3242 C 0.00958 0.00279 0.98622 0.0
H3243 H 0.94595 0.99335 0.04474 0.0
H3244 H 0.97126 0.0064 0.02825 0.0
H3245 H 0.95753 0.98249 0.98897 0.0
H3246 H 0.04351 -0.00253 0.9465 0.0
H3247 H 0.01816 0.98428 0.96293 0.0
C3248 C 0.78765 0.80387 0.71714 0.0
C3249 C 0.77654 0.80532 0.7054 0.0
C3250 C 0.78046 0.78915 0.72652 0.0
C3251 C 0.74755 0.73859 0.73073 0.0
H3252 H 0.74607 0.75645 0.76634 0.0
C3253 C 0.70601 0.68639 0.77015 0.0
C3254 C 0.71711 0.68492 0.78189 0.0
C3255 C 0.71342 0.70088 0.7607 0.0
C3256 C 0.74661 0.75114 0.75645 0.0
H3257 H 0.74896 0.79324 0.69431 0.0
H3258 H 0.73628 0.76753 0.7107 0.0
H3259 H 0.75874 0.78238 0.75012 0.0
H3260 H 0.74488 0.69671 0.79293 0.0
H3261 H 0.75792 0.72204 0.77643 0.0
H3262 H 0.73538 0.70736 0.73707 0.0
C3263 C 0.75079 0.77738 0.71259 0.0
C3264 C 0.75388 0.76599 0.74716 0.0
C3265 C 0.75799 0.79209 0.70323 0.0
C3266 C 0.73588 0.69786 0.78399 0.0
C3267 C 0.74329 0.71235 0.77458 0.0
C3268 C 0.74027 0.72374 0.74001 0.0
C3269 C 0.76199 0.77568 0.72432 0.0
C3270 C 0.75441 0.75988 0.7342 0.0
C3271 C 0.73207 0.71412 0.76285 0.0
C3272 C 0.73974 0.72986 0.75297 0.0
H3273 H 0.80207 0.81389 0.71896 0.0
H3274 H 0.78956 0.78805 0.73542 0.0
H3275 H 0.74809 0.73328 0.72084 0.0
H3276 H 0.6914 0.67662 0.76839 0.0
H3277 H 0.70431 0.70205 0.75181 0.0
C3278 C 0.77974 0.30983 0.27173 0.0
C3279 C 0.76912 0.3102 0.28364 0.0
C3280 C 0.77233 0.29573 0.26208 0.0
C3281 C 0.7243 0.26324 0.25157 0.0
H3282 H 0.76787 0.22838 0.23354 0.0
C3283 C 0.70025 0.19079 0.21861 0.0
C3284 C 0.71194 0.18885 0.2071 0.0
C3285 C 0.70711 0.20577 0.22796 0.0
C3286 C 0.7555 0.23817 0.23838 0.0
H3287 H 0.74213 0.29699 0.29477 0.0
H3288 H 0.72919 0.27223 0.27794 0.0
H3289 H 0.77976 0.25516 0.24947 0.0
H3290 H 0.74011 0.20044 0.19635 0.0
H3291 H 0.75185 0.22696 0.21249 0.0
H3292 H 0.70004 0.24631 0.24045 0.0
C3293 C 0.74317 0.28278 0.27601 0.0
C3294 C 0.76233 0.25352 0.24749 0.0
C3295 C 0.75065 0.29678 0.28566 0.0
C3296 C 0.73072 0.20185 0.20512 0.0
C3297 C 0.73754 0.21684 0.21442 0.0
C3298 C 0.71747 0.24794 0.24241 0.0
C3299 C 0.75408 0.28193 0.26417 0.0
C3300 C 0.74681 0.26618 0.2542 0.0
C3301 C 0.72579 0.21904 0.22593 0.0
C3302 C 0.733 0.2352 0.23573 0.0
H3303 H 0.79403 0.32008 0.27001 0.0
H3304 H 0.7809 0.29559 0.25299 0.0
H3305 H 0.71198 0.27295 0.2565 0.0
H3306 H 0.68569 0.18091 0.22031 0.0
H3307 H 0.69787 0.20686 0.2368 0.0
C3308 C 0.76045 0.17801 0.77288 0.0
C3309 C 0.77883 0.18371 0.78031 0.0
C3310 C 0.75253 0.19249 0.76356 0.0
C3311 C 0.75188 0.25132 0.75552 0.0
H3312 H 0.73185 0.23118 0.72229 0.0
C3313 C 0.72815 0.31116 0.71491 0.0
C3314 C 0.71021 0.30544 0.70715 0.0
C3315 C 0.73612 0.29636 0.72403 0.0
C3316 C 0.7371 0.23702 0.73159 0.0
H3317 H 0.80396 0.20832 0.78359 0.0
H3318 H 0.79017 0.23374 0.76726 0.0
H3319 H 0.74737 0.2048 0.73742 0.0
H3320 H 0.68612 0.28025 0.70289 0.0
H3321 H 0.69981 0.25434 0.71899 0.0
H3322 H 0.7415 0.2835 0.74976 0.0
C3323 C 0.78166 0.21827 0.76875 0.0
C3324 C 0.74605 0.22192 0.74024 0.0
C3325 C 0.78961 0.20375 0.77803 0.0
C3326 C 0.70004 0.2849 0.70879 0.0
C3327 C 0.70797 0.27009 0.71792 0.0
C3328 C 0.74287 0.26641 0.7469 0.0
C3329 C 0.76285 0.21293 0.76155 0.0
C3330 C 0.75358 0.22893 0.75228 0.0
C3331 C 0.72627 0.27555 0.72555 0.0
C3332 C 0.73541 0.25944 0.73483 0.0
H3333 H 0.7518 0.16269 0.77458 0.0
H3334 H 0.73789 0.188 0.75824 0.0
H3335 H 0.75718 0.25715 0.76482 0.0
H3336 H 0.73641 0.32683 0.71366 0.0
H3337 H 0.75042 0.30097 0.72962 0.0
C3338 C 0.72967 0.8146 0.27189 0.0
C3339 C 0.71217 0.80826 0.27982 0.0
C3340 C 0.73783 0.80008 0.26268 0.0
C3341 C 0.74091 0.74077 0.25578 0.0
H3342 H 0.7589 0.75991 0.22196 0.0
C3343 C 0.76404 0.68002 0.21564 0.0
C3344 C 0.78189 0.68561 0.20777 0.0
C3345 C 0.7561 0.69504 0.22462 0.0
C3346 C 0.7542 0.75439 0.23143 0.0
H3347 H 0.6888 0.78242 0.28414 0.0
H3348 H 0.70282 0.75703 0.26793 0.0
H3349 H 0.74298 0.78649 0.23683 0.0
H3350 H 0.8058 0.71081 0.20319 0.0
H3351 H 0.79202 0.73717 0.219 0.0
H3352 H 0.75208 0.70868 0.25039 0.0
C3353 C 0.71055 0.77301 0.26895 0.0
C3354 C 0.74505 0.76959 0.23992 0.0
C3355 C 0.70243 0.78753 0.27815 0.0
C3356 C 0.79195 0.70626 0.20916 0.0
C3357 C 0.78399 0.72132 0.21813 0.0
C3358 C 0.75004 0.72558 0.24729 0.0
C3359 C 0.72859 0.77898 0.26127 0.0
C3360 C 0.73822 0.76292 0.25217 0.0
C3361 C 0.76584 0.71593 0.22587 0.0
C3362 C 0.75672 0.73221 0.23501 0.0
H3363 H 0.73755 0.83046 0.27314 0.0
H3364 H 0.75187 0.80507 0.25699 0.0
H3365 H 0.73622 0.73521 0.26524 0.0
H3366 H 0.75584 0.66429 0.21457 0.0
H3367 H 0.74192 0.69052 0.23033 0.0
C3368 C 0.43297 0.53364 0.96884 0.0
C3369 C 0.43269 0.52315 0.95689 0.0
C3370 C 0.44727 0.52636 0.97844 0.0
C3371 C 0.49884 0.49512 0.98283 0.0
H3372 H 0.48042 0.49228 0.01831 0.0
C3373 C 0.55205 0.45501 0.02228 0.0
C3374 C 0.55315 0.46617 0.03401 0.0
C3375 C 0.53727 0.46187 0.01284 0.0
C3376 C 0.48585 0.49319 0.00845 0.0
H3377 H 0.44622 0.49645 0.94566 0.0
H3378 H 0.47108 0.48355 0.96241 0.0
H3379 H 0.4543 0.50429 0.00198 0.0
H3380 H 0.54032 0.49348 0.04503 0.0
H3381 H 0.51442 0.50551 0.02857 0.0
H3382 H 0.53037 0.48399 0.98929 0.0
C3383 C 0.4607 0.49768 0.96433 0.0
C3384 C 0.47091 0.50008 -0.00089 0.0
C3385 C 0.44646 0.50499 0.95476 0.0
C3386 C 0.53948 0.48443 0.03612 0.0
C3387 C 0.52466 0.49126 0.02671 0.0
C3388 C 0.51376 0.4882 0.99216 0.0
C3389 C 0.46144 0.50842 0.97623 0.0
C3390 C 0.47724 0.50111 0.98619 0.0
C3391 C 0.52333 0.48 0.01499 0.0
C3392 C 0.50743 0.48718 0.00507 0.0
H3393 H 0.4225 0.54775 0.97064 0.0
H3394 H 0.44759 0.5351 0.98747 0.0
H3395 H 0.50434 0.4961 0.97298 0.0
H3396 H 0.56238 0.44079 0.02051 0.0
H3397 H 0.53646 0.45275 0.00395 0.0
C3398 C 0.0502 0.4549 0.46626 0.0
C3399 C 0.05302 0.46675 0.45486 0.0
C3400 C 0.03554 0.46239 0.47559 0.0
C3401 C 0.98696 0.49782 0.48006 0.0
H3402 H 0.00406 0.49605 0.51581 0.0
C3403 C 0.93509 0.53774 0.52036 0.0
C3404 C 0.93368 0.5261 0.53191 0.0
C3405 C 0.94928 0.53056 0.51069 0.0
C3406 C -0.00108 0.49641 0.50588 0.0
H3407 H 0.04333 0.49583 0.44428 0.0
H3408 H 0.01757 0.50897 0.46057 0.0
H3409 H 0.02976 0.48343 0.4995 0.0
H3410 H 0.94509 0.49751 0.54237 0.0
H3411 H 0.96972 0.48477 0.52549 0.0
H3412 H 0.95606 0.5107 0.48646 0.0
C3413 C 0.02641 0.49375 0.46224 0.0
C3414 C 0.01366 0.4892 0.49654 0.0
C3415 C 0.04113 0.48628 0.45295 0.0
C3416 C 0.9462 0.50691 0.53358 0.0
C3417 C 0.96033 0.4997 0.52394 0.0
C3418 C 0.97217 0.50498 0.48942 0.0
C3419 C 0.02345 0.48186 0.47366 0.0
C3420 C 0.00783 0.48976 0.48354 0.0
C3421 C 0.96224 0.51157 0.51244 0.0
C3422 C 0.97796 0.50427 0.50243 0.0
H3423 H 0.05914 0.43971 0.46788 0.0
H3424 H 0.03343 0.45275 0.48423 0.0
H3425 H 0.98191 0.4982 0.47012 0.0
H3426 H 0.92559 0.55265 0.51893 0.0
H3427 H 0.95051 0.54017 0.50198 0.0
C3428 C 0.04297 0.50734 0.03482 0.0
C3429 C 0.05468 0.52694 0.03281 0.0
C3430 C 0.02793 0.49987 0.02571 0.0
C3431 C 0.01296 0.50488 0.99168 0.0
H3432 H 0.95665 0.48199 0.00308 0.0
C3433 C 0.94322 0.48485 0.95634 0.0
C3434 C 0.93178 0.46508 0.9583 0.0
C3435 C 0.95776 0.49272 0.9656 0.0
C3436 C 0.97238 0.48813 -0.00024 0.0
H3437 H 0.06031 0.55402 0.01977 0.0
H3438 H 0.03391 0.54103 0.00372 0.0
H3439 H 0.98331 0.49507 0.0188 0.0
H3440 H 0.92598 0.43819 0.97145 0.0
H3441 H 0.95155 0.45187 0.98776 0.0
H3442 H 0.00208 0.49789 0.97264 0.0
C3443 C 0.03643 0.53133 0.0123 0.0
C3444 C 0.98766 0.49562 0.00876 0.0
C3445 C 0.05147 0.5388 0.02145 0.0
C3446 C 0.93463 0.45353 0.9698 0.0
C3447 C 0.94919 0.46139 0.9791 0.0
C3448 C -0.0023 0.49738 0.98269 0.0
C3449 C 0.02439 0.51186 0.01438 0.0
C3450 C 0.00812 0.50406 0.00481 0.0
C3451 C 0.9611 0.48096 0.97703 0.0
C3452 C 0.97724 0.48894 0.98662 0.0
H3453 H 0.04547 0.49778 0.04346 0.0
H3454 H 0.01922 0.48461 0.02748 0.0
H3455 H 0.02871 0.51098 0.98835 0.0
H3456 H 0.94099 0.49418 0.94759 0.0
H3457 H 0.96635 0.50805 0.96383 0.0
C3458 C 0.53237 0.54148 0.45892 0.0
C3459 C 0.55319 0.5319 0.45731 0.0
C3460 C 0.51746 0.5326 0.46769 0.0
C3461 C 0.51409 0.49642 0.49607 0.0
H3462 H 0.45275 0.49082 0.48622 0.0
C3463 C 0.45224 0.44851 0.527 0.0
C3464 C 0.43198 0.4589 0.52918 0.0
C3465 C 0.46657 0.45655 0.51766 0.0
C3466 C 0.46979 0.49242 0.48914 0.0
H3467 H 0.5749 0.50566 0.46342 0.0
H3468 H 0.54892 0.49007 0.47878 0.0
H3469 H 0.47899 0.50736 0.47137 0.0
H3470 H 0.41043 0.48542 0.52328 0.0
H3471 H 0.43541 0.49951 0.50687 0.0
H3472 H 0.50492 0.48152 0.51383 0.0
C3473 C 0.54416 0.50461 0.47345 0.0
C3474 C 0.48481 0.50195 0.48065 0.0
C3475 C 0.55903 0.51351 0.46468 0.0
C3476 C 0.42589 0.47699 0.52162 0.0
C3477 C 0.44019 0.48504 0.51226 0.0
C3478 C 0.4991 0.48687 0.50453 0.0
C3479 C 0.52314 0.51396 0.47499 0.0
C3480 C 0.50712 0.50406 0.48403 0.0
C3481 C 0.46086 0.47514 0.51034 0.0
C3482 C 0.47679 0.48477 0.50116 0.0
H3483 H 0.52761 0.55571 0.45331 0.0
H3484 H 0.50151 0.54035 0.46879 0.0
H3485 H 0.5311 0.49811 0.49903 0.0
H3486 H 0.45717 0.43445 0.53271 0.0
H3487 H 0.48223 0.44837 0.51626 0.0
loop_
_geom_bond_atom_site_label_1
_geom_bond_atom_site_label_2
_geom_bond_distance
_geom_bond_site_symmetry_2
_ccdc_geom_bond_type
Co0 O3 1.970 . S
Co0 N17 1.989 . S
Co0 O25 1.967 . S
Co0 O32 1.920 . S
Co1 O4 1.966 . S
Co1 N10 2.022 . S
Co1 N18 1.993 . S
Co1 O26 1.941 . S
C2 O3 1.258 . S
C2 O4 1.263 . S
O3 Co0 1.970 . S
O3 C2 1.258 . S
O4 Co1 1.966 . S
O4 C2 1.263 . S
C5 O6 1.235 . S
C5 O32 1.289 . S
O6 C5 1.235 . S
C7 C9 1.400 . S
C7 N10 1.351 . S
C7 C12 1.501 . S
C8 C9 1.387 . S
C8 N11 1.341 . S
C9 C7 1.400 . S
C9 C8 1.387 . S
N10 Co1 2.022 . S
N10 C7 1.351 . S
N10 N11 1.365 . S
N11 C8 1.341 . S
N11 N10 1.365 . S
N11 H31 0.862 . S
C12 C7 1.501 . S
C12 H13 0.961 . S
C12 H14 0.961 . S
C12 H15 0.960 . S
H13 C12 0.961 . S
H14 C12 0.961 . S
H15 C12 0.960 . S
C16 N17 1.342 . S
C16 C20 1.401 . S
C16 C21 1.499 . S
N17 Co0 1.989 . S
N17 C16 1.342 . S
N17 N18 1.388 . S
N18 Co1 1.993 . S
N18 N17 1.388 . S
N18 C19 1.346 . S
C19 N18 1.346 . S
C19 C20 1.396 . S
C19 C29 1.510 . S
C20 C16 1.401 . S
C20 C19 1.396 . S
C21 C16 1.499 . S
C21 H22 0.959 . S
C21 H23 0.960 . S
C21 H24 0.961 . S
H22 C21 0.959 . S
H23 C21 0.960 . S
H24 C21 0.961 . S
O25 Co0 1.967 . S
O25 C33 1.258 . S
O26 Co1 1.941 . S
O26 C33 1.266 . S
H27 C29 0.959 . S
H28 C29 0.961 . S
C29 C19 1.510 . S
C29 H27 0.959 . S
C29 H28 0.961 . S
C29 H30 0.960 . S
H30 C29 0.960 . S
H31 N11 0.862 . S
O32 Co0 1.920 . S
O32 C5 1.289 . S
C33 O25 1.258 . S
C33 O26 1.266 . S
Co34 O37 1.970 . S
Co34 N51 1.989 . S
Co34 O59 1.967 . S
Co34 O66 1.920 . S
Co35 O38 1.966 . S
Co35 N44 2.022 . S
Co35 N52 1.993 . S
Co35 O60 1.941 . S
C36 O37 1.258 . S
C36 O38 1.263 . S
O37 Co34 1.970 . S
O37 C36 1.258 . S
O38 Co35 1.966 . S
O38 C36 1.263 . S
C39 O40 1.235 . S
C39 O66 1.289 . S
O40 C39 1.235 . S
C41 C43 1.400 . S
C41 N44 1.351 . S
C41 C46 1.501 . S
C42 C43 1.387 . S
C42 N45 1.341 . S
C43 C41 1.400 . S
C43 C42 1.387 . S
N44 Co35 2.022 . S
N44 C41 1.351 . S
N44 N45 1.365 . S
N45 C42 1.341 . S
N45 N44 1.365 . S
N45 H65 0.862 . S
C46 C41 1.501 . S
C46 H47 0.961 . S
C46 H48 0.961 . S
C46 H49 0.960 . S
H47 C46 0.961 . S
H48 C46 0.961 . S
H49 C46 0.960 . S
C50 N51 1.342 . S
C50 C54 1.401 . S
C50 C55 1.499 . S
N51 Co34 1.989 . S
N51 C50 1.342 . S
N51 N52 1.388 . S
N52 Co35 1.993 . S
N52 N51 1.388 . S
N52 C53 1.346 . S
C53 N52 1.346 . S
C53 C54 1.396 . S
C53 C63 1.510 . S
C54 C50 1.401 . S
C54 C53 1.396 . S
C55 C50 1.499 . S
C55 H56 0.959 . S
C55 H57 0.960 . S
C55 H58 0.961 . S
H56 C55 0.959 . S
H57 C55 0.960 . S
H58 C55 0.961 . S
O59 Co34 1.967 . S
O59 C67 1.258 . S
O60 Co35 1.941 . S
O60 C67 1.266 . S
H61 C63 0.959 . S
H62 C63 0.961 . S
C63 C53 1.510 . S
C63 H61 0.959 . S
C63 H62 0.961 . S
C63 H64 0.960 . S
H64 C63 0.960 . S
H65 N45 0.862 . S
O66 Co34 1.920 . S
O66 C39 1.289 . S
C67 O59 1.258 . S
C67 O60 1.266 . S
Co68 O71 1.970 . S
Co68 N85 1.989 . S
Co68 O93 1.967 . S
Co68 O100 1.920 . S
Co69 O72 1.966 . S
Co69 N78 2.022 . S
Co69 N86 1.993 . S
Co69 O94 1.941 . S
C70 O71 1.258 . S
C70 O72 1.263 . S
O71 Co68 1.970 . S
O71 C70 1.258 . S
O72 Co69 1.966 . S
O72 C70 1.263 . S
C73 O74 1.235 . S
C73 O100 1.289 . S
O74 C73 1.235 . S
C75 C77 1.400 . S
C75 N78 1.351 . S
C75 C80 1.501 . S
C76 C77 1.387 . S
C76 N79 1.341 . S
C77 C75 1.400 . S
C77 C76 1.387 . S
N78 Co69 2.022 . S
N78 C75 1.351 . S
N78 N79 1.365 . S
N79 C76 1.341 . S
N79 N78 1.365 . S
N79 H99 0.862 . S
C80 C75 1.501 . S
C80 H81 0.961 . S
C80 H82 0.961 . S
C80 H83 0.960 . S
H81 C80 0.961 . S
H82 C80 0.961 . S
H83 C80 0.960 . S
C84 N85 1.342 . S
C84 C88 1.401 . S
C84 C89 1.499 . S
N85 Co68 1.989 . S
N85 C84 1.342 . S
N85 N86 1.388 . S
N86 Co69 1.993 . S
N86 N85 1.388 . S
N86 C87 1.346 . S
C87 N86 1.346 . S
C87 C88 1.396 . S
C87 C97 1.510 . S
C88 C84 1.401 . S
C88 C87 1.396 . S
C89 C84 1.499 . S
C89 H90 0.959 . S
C89 H91 0.960 . S
C89 H92 0.961 . S
H90 C89 0.959 . S
H91 C89 0.960 . S
H92 C89 0.961 . S
O93 Co68 1.967 . S
O93 C101 1.258 . S
O94 Co69 1.941 . S
O94 C101 1.266 . S
H95 C97 0.959 . S
H96 C97 0.961 . S
C97 C87 1.510 . S
C97 H95 0.959 . S
C97 H96 0.961 . S
C97 H98 0.960 . S
H98 C97 0.960 . S
H99 N79 0.862 . S
O100 Co68 1.920 . S
O100 C73 1.289 . S
C101 O93 1.258 . S
C101 O94 1.266 . S
Co102 O105 1.970 . S
Co102 N119 1.989 . S
Co102 O127 1.967 . S
Co102 O134 1.920 . S
Co103 O106 1.966 . S
Co103 N112 2.022 . S
Co103 N120 1.993 . S
Co103 O128 1.941 . S
C104 O105 1.258 . S
C104 O106 1.263 . S
O105 Co102 1.970 . S
O105 C104 1.258 . S
O106 Co103 1.966 . S
O106 C104 1.263 . S
C107 O108 1.235 . S
C107 O134 1.289 . S
O108 C107 1.235 . S
C109 C111 1.400 . S
C109 N112 1.351 . S
C109 C114 1.501 . S
C110 C111 1.387 . S
C110 N113 1.341 . S
C111 C109 1.400 . S
C111 C110 1.387 . S
N112 Co103 2.022 . S
N112 C109 1.351 . S
N112 N113 1.365 . S
N113 C110 1.341 . S
N113 N112 1.365 . S
N113 H133 0.862 . S
C114 C109 1.501 . S
C114 H115 0.961 . S
C114 H116 0.961 . S
C114 H117 0.960 . S
H115 C114 0.961 . S
H116 C114 0.961 . S
H117 C114 0.960 . S
C118 N119 1.342 . S
C118 C122 1.401 . S
C118 C123 1.499 . S
N119 Co102 1.989 . S
N119 C118 1.342 . S
N119 N120 1.388 . S
N120 Co103 1.993 . S
N120 N119 1.388 . S
N120 C121 1.346 . S
C121 N120 1.346 . S
C121 C122 1.396 . S
C121 C131 1.510 . S
C122 C118 1.401 . S
C122 C121 1.396 . S
C123 C118 1.499 . S
C123 H124 0.959 . S
C123 H125 0.960 . S
C123 H126 0.961 . S
H124 C123 0.959 . S
H125 C123 0.960 . S
H126 C123 0.961 . S
O127 Co102 1.967 . S
O127 C135 1.258 . S
O128 Co103 1.941 . S
O128 C135 1.266 . S
H129 C131 0.959 . S
H130 C131 0.961 . S
C131 C121 1.510 . S
C131 H129 0.959 . S
C131 H130 0.961 . S
C131 H132 0.960 . S
H132 C131 0.960 . S
H133 N113 0.862 . S
O134 Co102 1.920 . S
O134 C107 1.289 . S
C135 O127 1.258 . S
C135 O128 1.266 . S
Co136 O139 1.970 . S
Co136 N153 1.989 . S
Co136 O161 1.967 . S
Co136 O168 1.920 . S
Co137 O140 1.966 . S
Co137 N146 2.022 . S
Co137 N154 1.993 . S
Co137 O162 1.941 . S
C138 O139 1.258 . S
C138 O140 1.263 . S
O139 Co136 1.970 . S
O139 C138 1.258 . S
O140 Co137 1.966 . S
O140 C138 1.263 . S
C141 O142 1.235 . S
C141 O168 1.289 . S
O142 C141 1.235 . S
C143 C145 1.400 . S
C143 N146 1.351 . S
C143 C148 1.501 . S
C144 C145 1.387 . S
C144 N147 1.341 . S
C145 C143 1.400 . S
C145 C144 1.387 . S
N146 Co137 2.022 . S
N146 C143 1.351 . S
N146 N147 1.365 . S
N147 C144 1.341 . S
N147 N146 1.365 . S
N147 H167 0.862 . S
C148 C143 1.501 . S
C148 H149 0.961 . S
C148 H150 0.961 . S
C148 H151 0.960 . S
H149 C148 0.961 . S
H150 C148 0.961 . S
H151 C148 0.960 . S
C152 N153 1.342 . S
C152 C156 1.401 . S
C152 C157 1.499 . S
N153 Co136 1.989 . S
N153 C152 1.342 . S
N153 N154 1.388 . S
N154 Co137 1.993 . S
N154 N153 1.388 . S
N154 C155 1.346 . S
C155 N154 1.346 . S
C155 C156 1.396 . S
C155 C165 1.510 . S
C156 C152 1.401 . S
C156 C155 1.396 . S
C157 C152 1.499 . S
C157 H158 0.959 . S
C157 H159 0.960 . S
C157 H160 0.961 . S
H158 C157 0.959 . S
H159 C157 0.960 . S
H160 C157 0.961 . S
O161 Co136 1.967 . S
O161 C169 1.258 . S
O162 Co137 1.941 . S
O162 C169 1.266 . S
H163 C165 0.959 . S
H164 C165 0.961 . S
C165 C155 1.510 . S
C165 H163 0.959 . S
C165 H164 0.961 . S
C165 H166 0.960 . S
H166 C165 0.960 . S
H167 N147 0.862 . S
O168 Co136 1.920 . S
O168 C141 1.289 . S
C169 O161 1.258 . S
C169 O162 1.266 . S
Co170 O173 1.970 . S
Co170 N187 1.989 . S
Co170 O195 1.967 . S
Co170 O202 1.920 . S
Co171 O174 1.966 . S
Co171 N180 2.022 . S
Co171 N188 1.993 . S
Co171 O196 1.941 . S
C172 O173 1.258 . S
C172 O174 1.263 . S
O173 Co170 1.970 . S
O173 C172 1.258 . S
O174 Co171 1.966 . S
O174 C172 1.263 . S
C175 O176 1.235 . S
C175 O202 1.289 . S
O176 C175 1.235 . S
C177 C179 1.400 . S
C177 N180 1.351 . S
C177 C182 1.501 . S
C178 C179 1.387 . S
C178 N181 1.341 . S
C179 C177 1.400 . S
C179 C178 1.387 . S
N180 Co171 2.022 . S
N180 C177 1.351 . S
N180 N181 1.365 . S
N181 C178 1.341 . S
N181 N180 1.365 . S
N181 H201 0.862 . S
C182 C177 1.501 . S
C182 H183 0.961 . S
C182 H184 0.961 . S
C182 H185 0.960 . S
H183 C182 0.961 . S
H184 C182 0.961 . S
H185 C182 0.960 . S
C186 N187 1.342 . S
C186 C190 1.401 . S
C186 C191 1.499 . S
N187 Co170 1.989 . S
N187 C186 1.342 . S
N187 N188 1.388 . S
N188 Co171 1.993 . S
N188 N187 1.388 . S
N188 C189 1.346 . S
C189 N188 1.346 . S
C189 C190 1.396 . S
C189 C199 1.510 . S
C190 C186 1.401 . S
C190 C189 1.396 . S
C191 C186 1.499 . S
C191 H192 0.959 . S
C191 H193 0.960 . S
C191 H194 0.961 . S
H192 C191 0.959 . S
H193 C191 0.960 . S
H194 C191 0.961 . S
O195 Co170 1.967 . S
O195 C203 1.258 . S
O196 Co171 1.941 . S
O196 C203 1.266 . S
H197 C199 0.959 . S
H198 C199 0.961 . S
C199 C189 1.510 . S
C199 H197 0.959 . S
C199 H198 0.961 . S
C199 H200 0.960 . S
H200 C199 0.960 . S
H201 N181 0.862 . S
O202 Co170 1.920 . S
O202 C175 1.289 . S
C203 O195 1.258 . S
C203 O196 1.266 . S
Co204 O207 1.970 . S
Co204 N221 1.989 . S
Co204 O229 1.967 . S
Co204 O236 1.920 . S
Co205 O208 1.966 . S
Co205 N214 2.022 . S
Co205 N222 1.993 . S
Co205 O230 1.941 . S
C206 O207 1.258 . S
C206 O208 1.263 . S
O207 Co204 1.970 . S
O207 C206 1.258 . S
O208 Co205 1.966 . S
O208 C206 1.263 . S
C209 O210 1.235 . S
C209 O236 1.289 . S
O210 C209 1.235 . S
C211 C213 1.400 . S
C211 N214 1.351 . S
C211 C216 1.501 . S
C212 C213 1.387 . S
C212 N215 1.341 . S
C213 C211 1.400 . S
C213 C212 1.387 . S
N214 Co205 2.022 . S
N214 C211 1.351 . S
N214 N215 1.365 . S
N215 C212 1.341 . S
N215 N214 1.365 . S
N215 H235 0.862 . S
C216 C211 1.501 . S
C216 H217 0.961 . S
C216 H218 0.961 . S
C216 H219 0.960 . S
H217 C216 0.961 . S
H218 C216 0.961 . S
H219 C216 0.960 . S
C220 N221 1.342 . S
C220 C224 1.401 . S
C220 C225 1.499 . S
N221 Co204 1.989 . S
N221 C220 1.342 . S
N221 N222 1.388 . S
N222 Co205 1.993 . S
N222 N221 1.388 . S
N222 C223 1.346 . S
C223 N222 1.346 . S
C223 C224 1.396 . S
C223 C233 1.510 . S
C224 C220 1.401 . S
C224 C223 1.396 . S
C225 C220 1.499 . S
C225 H226 0.959 . S
C225 H227 0.960 . S
C225 H228 0.961 . S
H226 C225 0.959 . S
H227 C225 0.960 . S
H228 C225 0.961 . S
O229 Co204 1.967 . S
O229 C237 1.258 . S
O230 Co205 1.941 . S
O230 C237 1.266 . S
H231 C233 0.959 . S
H232 C233 0.961 . S
C233 C223 1.510 . S
C233 H231 0.959 . S
C233 H232 0.961 . S
C233 H234 0.960 . S
H234 C233 0.960 . S
H235 N215 0.862 . S
O236 Co204 1.920 . S
O236 C209 1.289 . S
C237 O229 1.258 . S
C237 O230 1.266 . S
Co238 O241 1.970 . S
Co238 N255 1.989 . S
Co238 O263 1.967 . S
Co238 O270 1.920 . S
Co239 O242 1.966 . S
Co239 N248 2.022 . S
Co239 N256 1.993 . S
Co239 O264 1.941 . S
C240 O241 1.258 . S
C240 O242 1.263 . S
O241 Co238 1.970 . S
O241 C240 1.258 . S
O242 Co239 1.966 . S
O242 C240 1.263 . S
C243 O244 1.235 . S
C243 O270 1.289 . S
O244 C243 1.235 . S
C245 C247 1.400 . S
C245 N248 1.351 . S
C245 C250 1.501 . S
C246 C247 1.387 . S
C246 N249 1.341 . S
C247 C245 1.400 . S
C247 C246 1.387 . S
N248 Co239 2.022 . S
N248 C245 1.351 . S
N248 N249 1.365 . S
N249 C246 1.341 . S
N249 N248 1.365 . S
N249 H269 0.862 . S
C250 C245 1.501 . S
C250 H251 0.961 . S
C250 H252 0.961 . S
C250 H253 0.960 . S
H251 C250 0.961 . S
H252 C250 0.961 . S
H253 C250 0.960 . S
C254 N255 1.342 . S
C254 C258 1.401 . S
C254 C259 1.499 . S
N255 Co238 1.989 . S
N255 C254 1.342 . S
N255 N256 1.388 . S
N256 Co239 1.993 . S
N256 N255 1.388 . S
N256 C257 1.346 . S
C257 N256 1.346 . S
C257 C258 1.396 . S
C257 C267 1.510 . S
C258 C254 1.401 . S
C258 C257 1.396 . S
C259 C254 1.499 . S
C259 H260 0.959 . S
C259 H261 0.960 . S
C259 H262 0.961 . S
H260 C259 0.959 . S
H261 C259 0.960 . S
H262 C259 0.961 . S
O263 Co238 1.967 . S
O263 C271 1.258 . S
O264 Co239 1.941 . S
O264 C271 1.266 . S
H265 C267 0.959 . S
H266 C267 0.961 . S
C267 C257 1.510 . S
C267 H265 0.959 . S
C267 H266 0.961 . S
C267 H268 0.960 . S
H268 C267 0.960 . S
H269 N249 0.862 . S
O270 Co238 1.920 . S
O270 C243 1.289 . S
C271 O263 1.258 . S
C271 O264 1.266 . S
Co272 O275 1.970 . S
Co272 N289 1.989 . S
Co272 O297 1.967 . S
Co272 O304 1.920 . S
Co273 O276 1.966 . S
Co273 N282 2.022 . S
Co273 N290 1.993 . S
Co273 O298 1.941 . S
C274 O275 1.258 . S
C274 O276 1.263 . S
O275 Co272 1.970 . S
O275 C274 1.258 . S
O276 Co273 1.966 . S
O276 C274 1.263 . S
C277 O278 1.235 . S
C277 O304 1.289 . S
O278 C277 1.235 . S
C279 C281 1.400 . S
C279 N282 1.351 . S
C279 C284 1.501 . S
C280 C281 1.387 . S
C280 N283 1.341 . S
C281 C279 1.400 . S
C281 C280 1.387 . S
N282 Co273 2.022 . S
N282 C279 1.351 . S
N282 N283 1.365 . S
N283 C280 1.341 . S
N283 N282 1.365 . S
N283 H303 0.862 . S
C284 C279 1.501 . S
C284 H285 0.961 . S
C284 H286 0.961 . S
C284 H287 0.960 . S
H285 C284 0.961 . S
H286 C284 0.961 . S
H287 C284 0.960 . S
C288 N289 1.342 . S
C288 C292 1.401 . S
C288 C293 1.499 . S
N289 Co272 1.989 . S
N289 C288 1.342 . S
N289 N290 1.388 . S
N290 Co273 1.993 . S
N290 N289 1.388 . S
N290 C291 1.346 . S
C291 N290 1.346 . S
C291 C292 1.396 . S
C291 C301 1.510 . S
C292 C288 1.401 . S
C292 C291 1.396 . S
C293 C288 1.499 . S
C293 H294 0.959 . S
C293 H295 0.960 . S
C293 H296 0.961 . S
H294 C293 0.959 . S
H295 C293 0.960 . S
H296 C293 0.961 . S
O297 Co272 1.967 . S
O297 C305 1.258 . S
O298 Co273 1.941 . S
O298 C305 1.266 . S
H299 C301 0.959 . S
H300 C301 0.961 . S
C301 C291 1.510 . S
C301 H299 0.959 . S
C301 H300 0.961 . S
C301 H302 0.960 . S
H302 C301 0.960 . S
H303 N283 0.862 . S
O304 Co272 1.920 . S
O304 C277 1.289 . S
C305 O297 1.258 . S
C305 O298 1.266 . S
Co306 O309 1.970 . S
Co306 N323 1.989 . S
Co306 O331 1.967 . S
Co306 O338 1.920 . S
Co307 O310 1.966 . S
Co307 N316 2.022 . S
Co307 N324 1.993 . S
Co307 O332 1.941 . S
C308 O309 1.258 . S
C308 O310 1.263 . S
O309 Co306 1.970 . S
O309 C308 1.258 . S
O310 Co307 1.966 . S
O310 C308 1.263 . S
C311 O312 1.235 . S
C311 O338 1.289 . S
O312 C311 1.235 . S
C313 C315 1.400 . S
C313 N316 1.351 . S
C313 C318 1.501 . S
C314 C315 1.387 . S
C314 N317 1.341 . S
C315 C313 1.400 . S
C315 C314 1.387 . S
N316 Co307 2.022 . S
N316 C313 1.351 . S
N316 N317 1.365 . S
N317 C314 1.341 . S
N317 N316 1.365 . S
N317 H337 0.862 . S
C318 C313 1.501 . S
C318 H319 0.961 . S
C318 H320 0.961 . S
C318 H321 0.960 . S
H319 C318 0.961 . S
H320 C318 0.961 . S
H321 C318 0.960 . S
C322 N323 1.342 . S
C322 C326 1.401 . S
C322 C327 1.499 . S
N323 Co306 1.989 . S
N323 C322 1.342 . S
N323 N324 1.388 . S
N324 Co307 1.993 . S
N324 N323 1.388 . S
N324 C325 1.346 . S
C325 N324 1.346 . S
C325 C326 1.396 . S
C325 C335 1.510 . S
C326 C322 1.401 . S
C326 C325 1.396 . S
C327 C322 1.499 . S
C327 H328 0.959 . S
C327 H329 0.960 . S
C327 H330 0.961 . S
H328 C327 0.959 . S
H329 C327 0.960 . S
H330 C327 0.961 . S
O331 Co306 1.967 . S
O331 C339 1.258 . S
O332 Co307 1.941 . S
O332 C339 1.266 . S
H333 C335 0.959 . S
H334 C335 0.961 . S
C335 C325 1.510 . S
C335 H333 0.959 . S
C335 H334 0.961 . S
C335 H336 0.960 . S
H336 C335 0.960 . S
H337 N317 0.862 . S
O338 Co306 1.920 . S
O338 C311 1.289 . S
C339 O331 1.258 . S
C339 O332 1.266 . S
Co340 O343 1.970 . S
Co340 N357 1.989 . S
Co340 O365 1.967 . S
Co340 O372 1.920 . S
Co341 O344 1.966 . S
Co341 N350 2.022 . S
Co341 N358 1.993 . S
Co341 O366 1.941 . S
C342 O343 1.258 . S
C342 O344 1.263 . S
O343 Co340 1.970 . S
O343 C342 1.258 . S
O344 Co341 1.966 . S
O344 C342 1.263 . S
C345 O346 1.235 . S
C345 O372 1.289 . S
O346 C345 1.235 . S
C347 C349 1.400 . S
C347 N350 1.351 . S
C347 C352 1.501 . S
C348 C349 1.387 . S
C348 N351 1.341 . S
C349 C347 1.400 . S
C349 C348 1.387 . S
N350 Co341 2.022 . S
N350 C347 1.351 . S
N350 N351 1.365 . S
N351 C348 1.341 . S
N351 N350 1.365 . S
N351 H371 0.862 . S
C352 C347 1.501 . S
C352 H353 0.961 . S
C352 H354 0.961 . S
C352 H355 0.960 . S
H353 C352 0.961 . S
H354 C352 0.961 . S
H355 C352 0.960 . S
C356 N357 1.342 . S
C356 C360 1.401 . S
C356 C361 1.499 . S
N357 Co340 1.989 . S
N357 C356 1.342 . S
N357 N358 1.388 . S
N358 Co341 1.993 . S
N358 N357 1.388 . S
N358 C359 1.346 . S
C359 N358 1.346 . S
C359 C360 1.396 . S
C359 C369 1.510 . S
C360 C356 1.401 . S
C360 C359 1.396 . S
C361 C356 1.499 . S
C361 H362 0.959 . S
C361 H363 0.960 . S
C361 H364 0.961 . S
H362 C361 0.959 . S
H363 C361 0.960 . S
H364 C361 0.961 . S
O365 Co340 1.967 . S
O365 C373 1.258 . S
O366 Co341 1.941 . S
O366 C373 1.266 . S
H367 C369 0.959 . S
H368 C369 0.961 . S
C369 C359 1.510 . S
C369 H367 0.959 . S
C369 H368 0.961 . S
C369 H370 0.960 . S
H370 C369 0.960 . S
H371 N351 0.862 . S
O372 Co340 1.920 . S
O372 C345 1.289 . S
C373 O365 1.258 . S
C373 O366 1.266 . S
Co374 O377 1.970 . S
Co374 N391 1.989 . S
Co374 O399 1.967 . S
Co374 O406 1.920 . S
Co375 O378 1.966 . S
Co375 N384 2.022 . S
Co375 N392 1.993 . S
Co375 O400 1.941 . S
C376 O377 1.258 . S
C376 O378 1.263 . S
O377 Co374 1.970 . S
O377 C376 1.258 . S
O378 Co375 1.966 . S
O378 C376 1.263 . S
C379 O380 1.235 . S
C379 O406 1.289 . S
O380 C379 1.235 . S
C381 C383 1.400 . S
C381 N384 1.351 . S
C381 C386 1.501 . S
C382 C383 1.387 . S
C382 N385 1.341 . S
C383 C381 1.400 . S
C383 C382 1.387 . S
N384 Co375 2.022 . S
N384 C381 1.351 . S
N384 N385 1.365 . S
N385 C382 1.341 . S
N385 N384 1.365 . S
N385 H405 0.862 . S
C386 C381 1.501 . S
C386 H387 0.961 . S
C386 H388 0.961 . S
C386 H389 0.960 . S
H387 C386 0.961 . S
H388 C386 0.961 . S
H389 C386 0.960 . S
C390 N391 1.342 . S
C390 C394 1.401 . S
C390 C395 1.499 . S
N391 Co374 1.989 . S
N391 C390 1.342 . S
N391 N392 1.388 . S
N392 Co375 1.993 . S
N392 N391 1.388 . S
N392 C393 1.346 . S
C393 N392 1.346 . S
C393 C394 1.396 . S
C393 C403 1.510 . S
C394 C390 1.401 . S
C394 C393 1.396 . S
C395 C390 1.499 . S
C395 H396 0.959 . S
C395 H397 0.960 . S
C395 H398 0.961 . S
H396 C395 0.959 . S
H397 C395 0.960 . S
H398 C395 0.961 . S
O399 Co374 1.967 . S
O399 C407 1.258 . S
O400 Co375 1.941 . S
O400 C407 1.266 . S
H401 C403 0.959 . S
H402 C403 0.961 . S
C403 C393 1.510 . S
C403 H401 0.959 . S
C403 H402 0.961 . S
C403 H404 0.960 . S
H404 C403 0.960 . S
H405 N385 0.862 . S
O406 Co374 1.920 . S
O406 C379 1.289 . S
C407 O399 1.258 . S
C407 O400 1.266 . S
Co408 O411 1.970 . S
Co408 N425 1.989 . S
Co408 O433 1.967 . S
Co408 O440 1.920 . S
Co409 O412 1.966 . S
Co409 N418 2.022 . S
Co409 N426 1.993 . S
Co409 O434 1.941 . S
C410 O411 1.258 . S
C410 O412 1.263 . S
O411 Co408 1.970 . S
O411 C410 1.258 . S
O412 Co409 1.966 . S
O412 C410 1.263 . S
C413 O414 1.235 . S
C413 O440 1.289 . S
O414 C413 1.235 . S
C415 C417 1.400 . S
C415 N418 1.351 . S
C415 C420 1.501 . S
C416 C417 1.387 . S
C416 N419 1.341 . S
C417 C415 1.400 . S
C417 C416 1.387 . S
N418 Co409 2.022 . S
N418 C415 1.351 . S
N418 N419 1.365 . S
N419 C416 1.341 . S
N419 N418 1.365 . S
N419 H439 0.862 . S
C420 C415 1.501 . S
C420 H421 0.961 . S
C420 H422 0.961 . S
C420 H423 0.960 . S
H421 C420 0.961 . S
H422 C420 0.961 . S
H423 C420 0.960 . S
C424 N425 1.342 . S
C424 C428 1.401 . S
C424 C429 1.499 . S
N425 Co408 1.989 . S
N425 C424 1.342 . S
N425 N426 1.388 . S
N426 Co409 1.993 . S
N426 N425 1.388 . S
N426 C427 1.346 . S
C427 N426 1.346 . S
C427 C428 1.396 . S
C427 C437 1.510 . S
C428 C424 1.401 . S
C428 C427 1.396 . S
C429 C424 1.499 . S
C429 H430 0.959 . S
C429 H431 0.960 . S
C429 H432 0.961 . S
H430 C429 0.959 . S
H431 C429 0.960 . S
H432 C429 0.961 . S
O433 Co408 1.967 . S
O433 C441 1.258 . S
O434 Co409 1.941 . S
O434 C441 1.266 . S
H435 C437 0.959 . S
H436 C437 0.961 . S
C437 C427 1.510 . S
C437 H435 0.959 . S
C437 H436 0.961 . S
C437 H438 0.960 . S
H438 C437 0.960 . S
H439 N419 0.862 . S
O440 Co408 1.920 . S
O440 C413 1.289 . S
C441 O433 1.258 . S
C441 O434 1.266 . S
Co442 O445 1.970 . S
Co442 N459 1.989 . S
Co442 O467 1.967 . S
Co442 O474 1.920 . S
Co443 O446 1.966 . S
Co443 N452 2.022 . S
Co443 N460 1.993 . S
Co443 O468 1.941 . S
C444 O445 1.258 . S
C444 O446 1.263 . S
O445 Co442 1.970 . S
O445 C444 1.258 . S
O446 Co443 1.966 . S
O446 C444 1.263 . S
C447 O448 1.235 . S
C447 O474 1.289 . S
O448 C447 1.235 . S
C449 C451 1.400 . S
C449 N452 1.351 . S
C449 C454 1.501 . S
C450 C451 1.387 . S
C450 N453 1.341 . S
C451 C449 1.400 . S
C451 C450 1.387 . S
N452 Co443 2.022 . S
N452 C449 1.351 . S
N452 N453 1.365 . S
N453 C450 1.341 . S
N453 N452 1.365 . S
N453 H473 0.862 . S
C454 C449 1.501 . S
C454 H455 0.961 . S
C454 H456 0.961 . S
C454 H457 0.960 . S
H455 C454 0.961 . S
H456 C454 0.961 . S
H457 C454 0.960 . S
C458 N459 1.342 . S
C458 C462 1.401 . S
C458 C463 1.499 . S
N459 Co442 1.989 . S
N459 C458 1.342 . S
N459 N460 1.388 . S
N460 Co443 1.993 . S
N460 N459 1.388 . S
N460 C461 1.346 . S
C461 N460 1.346 . S
C461 C462 1.396 . S
C461 C471 1.510 . S
C462 C458 1.401 . S
C462 C461 1.396 . S
C463 C458 1.499 . S
C463 H464 0.959 . S
C463 H465 0.960 . S
C463 H466 0.961 . S
H464 C463 0.959 . S
H465 C463 0.960 . S
H466 C463 0.961 . S
O467 Co442 1.967 . S
O467 C475 1.258 . S
O468 Co443 1.941 . S
O468 C475 1.266 . S
H469 C471 0.959 . S
H470 C471 0.961 . S
C471 C461 1.510 . S
C471 H469 0.959 . S
C471 H470 0.961 . S
C471 H472 0.960 . S
H472 C471 0.960 . S
H473 N453 0.862 . S
O474 Co442 1.920 . S
O474 C447 1.289 . S
C475 O467 1.258 . S
C475 O468 1.266 . S
Co476 O479 1.970 . S
Co476 N493 1.989 . S
Co476 O501 1.967 . S
Co476 O508 1.920 . S
Co477 O480 1.966 . S
Co477 N486 2.022 . S
Co477 N494 1.993 . S
Co477 O502 1.941 . S
C478 O479 1.258 . S
C478 O480 1.263 . S
O479 Co476 1.970 . S
O479 C478 1.258 . S
O480 Co477 1.966 . S
O480 C478 1.263 . S
C481 O482 1.235 . S
C481 O508 1.289 . S
O482 C481 1.235 . S
C483 C485 1.400 . S
C483 N486 1.351 . S
C483 C488 1.501 . S
C484 C485 1.387 . S
C484 N487 1.341 . S
C485 C483 1.400 . S
C485 C484 1.387 . S
N486 Co477 2.022 . S
N486 C483 1.351 . S
N486 N487 1.365 . S
N487 C484 1.341 . S
N487 N486 1.365 . S
N487 H507 0.862 . S
C488 C483 1.501 . S
C488 H489 0.961 . S
C488 H490 0.961 . S
C488 H491 0.960 . S
H489 C488 0.961 . S
H490 C488 0.961 . S
H491 C488 0.960 . S
C492 N493 1.342 . S
C492 C496 1.401 . S
C492 C497 1.499 . S
N493 Co476 1.989 . S
N493 C492 1.342 . S
N493 N494 1.388 . S
N494 Co477 1.993 . S
N494 N493 1.388 . S
N494 C495 1.346 . S
C495 N494 1.346 . S
C495 C496 1.396 . S
C495 C505 1.510 . S
C496 C492 1.401 . S
C496 C495 1.396 . S
C497 C492 1.499 . S
C497 H498 0.959 . S
C497 H499 0.960 . S
C497 H500 0.961 . S
H498 C497 0.959 . S
H499 C497 0.960 . S
H500 C497 0.961 . S
O501 Co476 1.967 . S
O501 C509 1.258 . S
O502 Co477 1.941 . S
O502 C509 1.266 . S
H503 C505 0.959 . S
H504 C505 0.961 . S
C505 C495 1.510 . S
C505 H503 0.959 . S
C505 H504 0.961 . S
C505 H506 0.960 . S
H506 C505 0.960 . S
H507 N487 0.862 . S
O508 Co476 1.920 . S
O508 C481 1.289 . S
C509 O501 1.258 . S
C509 O502 1.266 . S
Co510 O513 1.970 . S
Co510 N527 1.989 . S
Co510 O535 1.967 . S
Co510 O542 1.920 . S
Co511 O514 1.966 . S
Co511 N520 2.022 . S
Co511 N528 1.993 . S
Co511 O536 1.941 . S
C512 O513 1.258 . S
C512 O514 1.263 . S
O513 Co510 1.970 . S
O513 C512 1.258 . S
O514 Co511 1.966 . S
O514 C512 1.263 . S
C515 O516 1.235 . S
C515 O542 1.289 . S
O516 C515 1.235 . S
C517 C519 1.400 . S
C517 N520 1.351 . S
C517 C522 1.501 . S
C518 C519 1.387 . S
C518 N521 1.341 . S
C519 C517 1.400 . S
C519 C518 1.387 . S
N520 Co511 2.022 . S
N520 C517 1.351 . S
N520 N521 1.365 . S
N521 C518 1.341 . S
N521 N520 1.365 . S
N521 H541 0.862 . S
C522 C517 1.501 . S
C522 H523 0.961 . S
C522 H524 0.961 . S
C522 H525 0.960 . S
H523 C522 0.961 . S
H524 C522 0.961 . S
H525 C522 0.960 . S
C526 N527 1.342 . S
C526 C530 1.401 . S
C526 C531 1.499 . S
N527 Co510 1.989 . S
N527 C526 1.342 . S
N527 N528 1.388 . S
N528 Co511 1.993 . S
N528 N527 1.388 . S
N528 C529 1.346 . S
C529 N528 1.346 . S
C529 C530 1.396 . S
C529 C539 1.510 . S
C530 C526 1.401 . S
C530 C529 1.396 . S
C531 C526 1.499 . S
C531 H532 0.959 . S
C531 H533 0.960 . S
C531 H534 0.961 . S
H532 C531 0.959 . S
H533 C531 0.960 . S
H534 C531 0.961 . S
O535 Co510 1.967 . S
O535 C543 1.258 . S
O536 Co511 1.941 . S
O536 C543 1.266 . S
H537 C539 0.959 . S
H538 C539 0.961 . S
C539 C529 1.510 . S
C539 H537 0.959 . S
C539 H538 0.961 . S
C539 H540 0.960 . S
H540 C539 0.960 . S
H541 N521 0.862 . S
O542 Co510 1.920 . S
O542 C515 1.289 . S
C543 O535 1.258 . S
C543 O536 1.266 . S
Co544 O547 1.970 . S
Co544 N561 1.989 . S
Co544 O569 1.967 . S
Co544 O576 1.920 . S
Co545 O548 1.966 . S
Co545 N554 2.022 . S
Co545 N562 1.993 . S
Co545 O570 1.941 . S
C546 O547 1.258 . S
C546 O548 1.263 . S
O547 Co544 1.970 . S
O547 C546 1.258 . S
O548 Co545 1.966 . S
O548 C546 1.263 . S
C549 O550 1.235 . S
C549 O576 1.289 . S
O550 C549 1.235 . S
C551 C553 1.400 . S
C551 N554 1.351 . S
C551 C556 1.501 . S
C552 C553 1.387 . S
C552 N555 1.341 . S
C553 C551 1.400 . S
C553 C552 1.387 . S
N554 Co545 2.022 . S
N554 C551 1.351 . S
N554 N555 1.365 . S
N555 C552 1.341 . S
N555 N554 1.365 . S
N555 H575 0.862 . S
C556 C551 1.501 . S
C556 H557 0.961 . S
C556 H558 0.961 . S
C556 H559 0.960 . S
H557 C556 0.961 . S
H558 C556 0.961 . S
H559 C556 0.960 . S
C560 N561 1.342 . S
C560 C564 1.401 . S
C560 C565 1.499 . S
N561 Co544 1.989 . S
N561 C560 1.342 . S
N561 N562 1.388 . S
N562 Co545 1.993 . S
N562 N561 1.388 . S
N562 C563 1.346 . S
C563 N562 1.346 . S
C563 C564 1.396 . S
C563 C573 1.510 . S
C564 C560 1.401 . S
C564 C563 1.396 . S
C565 C560 1.499 . S
C565 H566 0.959 . S
C565 H567 0.960 . S
C565 H568 0.961 . S
H566 C565 0.959 . S
H567 C565 0.960 . S
H568 C565 0.961 . S
O569 Co544 1.967 . S
O569 C577 1.258 . S
O570 Co545 1.941 . S
O570 C577 1.266 . S
H571 C573 0.959 . S
H572 C573 0.961 . S
C573 C563 1.510 . S
C573 H571 0.959 . S
C573 H572 0.961 . S
C573 H574 0.960 . S
H574 C573 0.960 . S
H575 N555 0.862 . S
O576 Co544 1.920 . S
O576 C549 1.289 . S
C577 O569 1.258 . S
C577 O570 1.266 . S
Co578 O581 1.970 . S
Co578 N595 1.989 . S
Co578 O603 1.967 . S
Co578 O610 1.920 . S
Co579 O582 1.966 . S
Co579 N588 2.022 . S
Co579 N596 1.993 . S
Co579 O604 1.941 . S
C580 O581 1.258 . S
C580 O582 1.263 . S
O581 Co578 1.970 . S
O581 C580 1.258 . S
O582 Co579 1.966 . S
O582 C580 1.263 . S
C583 O584 1.235 . S
C583 O610 1.289 . S
O584 C583 1.235 . S
C585 C587 1.400 . S
C585 N588 1.351 . S
C585 C590 1.501 . S
C586 C587 1.387 . S
C586 N589 1.341 . S
C587 C585 1.400 . S
C587 C586 1.387 . S
N588 Co579 2.022 . S
N588 C585 1.351 . S
N588 N589 1.365 . S
N589 C586 1.341 . S
N589 N588 1.365 . S
N589 H609 0.862 . S
C590 C585 1.501 . S
C590 H591 0.961 . S
C590 H592 0.961 . S
C590 H593 0.960 . S
H591 C590 0.961 . S
H592 C590 0.961 . S
H593 C590 0.960 . S
C594 N595 1.342 . S
C594 C598 1.401 . S
C594 C599 1.499 . S
N595 Co578 1.989 . S
N595 C594 1.342 . S
N595 N596 1.388 . S
N596 Co579 1.993 . S
N596 N595 1.388 . S
N596 C597 1.346 . S
C597 N596 1.346 . S
C597 C598 1.396 . S
C597 C607 1.510 . S
C598 C594 1.401 . S
C598 C597 1.396 . S
C599 C594 1.499 . S
C599 H600 0.959 . S
C599 H601 0.960 . S
C599 H602 0.961 . S
H600 C599 0.959 . S
H601 C599 0.960 . S
H602 C599 0.961 . S
O603 Co578 1.967 . S
O603 C611 1.258 . S
O604 Co579 1.941 . S
O604 C611 1.266 . S
H605 C607 0.959 . S
H606 C607 0.961 . S
C607 C597 1.510 . S
C607 H605 0.959 . S
C607 H606 0.961 . S
C607 H608 0.960 . S
H608 C607 0.960 . S
H609 N589 0.862 . S
O610 Co578 1.920 . S
O610 C583 1.289 . S
C611 O603 1.258 . S
C611 O604 1.266 . S
Co612 O615 1.970 . S
Co612 N629 1.989 . S
Co612 O637 1.967 . S
Co612 O644 1.920 . S
Co613 O616 1.966 . S
Co613 N622 2.022 . S
Co613 N630 1.993 . S
Co613 O638 1.941 . S
C614 O615 1.258 . S
C614 O616 1.263 . S
O615 Co612 1.970 . S
O615 C614 1.258 . S
O616 Co613 1.966 . S
O616 C614 1.263 . S
C617 O618 1.235 . S
C617 O644 1.289 . S
O618 C617 1.235 . S
C619 C621 1.400 . S
C619 N622 1.351 . S
C619 C624 1.501 . S
C620 C621 1.387 . S
C620 N623 1.341 . S
C621 C619 1.400 . S
C621 C620 1.387 . S
N622 Co613 2.022 . S
N622 C619 1.351 . S
N622 N623 1.365 . S
N623 C620 1.341 . S
N623 N622 1.365 . S
N623 H643 0.862 . S
C624 C619 1.501 . S
C624 H625 0.961 . S
C624 H626 0.961 . S
C624 H627 0.960 . S
H625 C624 0.961 . S
H626 C624 0.961 . S
H627 C624 0.960 . S
C628 N629 1.342 . S
C628 C632 1.401 . S
C628 C633 1.499 . S
N629 Co612 1.989 . S
N629 C628 1.342 . S
N629 N630 1.388 . S
N630 Co613 1.993 . S
N630 N629 1.388 . S
N630 C631 1.346 . S
C631 N630 1.346 . S
C631 C632 1.396 . S
C631 C641 1.510 . S
C632 C628 1.401 . S
C632 C631 1.396 . S
C633 C628 1.499 . S
C633 H634 0.959 . S
C633 H635 0.960 . S
C633 H636 0.961 . S
H634 C633 0.959 . S
H635 C633 0.960 . S
H636 C633 0.961 . S
O637 Co612 1.967 . S
O637 C645 1.258 . S
O638 Co613 1.941 . S
O638 C645 1.266 . S
H639 C641 0.959 . S
H640 C641 0.961 . S
C641 C631 1.510 . S
C641 H639 0.959 . S
C641 H640 0.961 . S
C641 H642 0.960 . S
H642 C641 0.960 . S
H643 N623 0.862 . S
O644 Co612 1.920 . S
O644 C617 1.289 . S
C645 O637 1.258 . S
C645 O638 1.266 . S
Co646 O649 1.970 . S
Co646 N663 1.989 . S
Co646 O671 1.967 . S
Co646 O678 1.920 . S
Co647 O650 1.966 . S
Co647 N656 2.022 . S
Co647 N664 1.993 . S
Co647 O672 1.941 . S
C648 O649 1.258 . S
C648 O650 1.263 . S
O649 Co646 1.970 . S
O649 C648 1.258 . S
O650 Co647 1.966 . S
O650 C648 1.263 . S
C651 O652 1.235 . S
C651 O678 1.289 . S
O652 C651 1.235 . S
C653 C655 1.400 . S
C653 N656 1.351 . S
C653 C658 1.501 . S
C654 C655 1.387 . S
C654 N657 1.341 . S
C655 C653 1.400 . S
C655 C654 1.387 . S
N656 Co647 2.022 . S
N656 C653 1.351 . S
N656 N657 1.365 . S
N657 C654 1.341 . S
N657 N656 1.365 . S
N657 H677 0.862 . S
C658 C653 1.501 . S
C658 H659 0.961 . S
C658 H660 0.961 . S
C658 H661 0.960 . S
H659 C658 0.961 . S
H660 C658 0.961 . S
H661 C658 0.960 . S
C662 N663 1.342 . S
C662 C666 1.401 . S
C662 C667 1.499 . S
N663 Co646 1.989 . S
N663 C662 1.342 . S
N663 N664 1.388 . S
N664 Co647 1.993 . S
N664 N663 1.388 . S
N664 C665 1.346 . S
C665 N664 1.346 . S
C665 C666 1.396 . S
C665 C675 1.510 . S
C666 C662 1.401 . S
C666 C665 1.396 . S
C667 C662 1.499 . S
C667 H668 0.959 . S
C667 H669 0.960 . S
C667 H670 0.961 . S
H668 C667 0.959 . S
H669 C667 0.960 . S
H670 C667 0.961 . S
O671 Co646 1.967 . S
O671 C679 1.258 . S
O672 Co647 1.941 . S
O672 C679 1.266 . S
H673 C675 0.959 . S
H674 C675 0.961 . S
C675 C665 1.510 . S
C675 H673 0.959 . S
C675 H674 0.961 . S
C675 H676 0.960 . S
H676 C675 0.960 . S
H677 N657 0.862 . S
O678 Co646 1.920 . S
O678 C651 1.289 . S
C679 O671 1.258 . S
C679 O672 1.266 . S
Co680 O683 1.970 . S
Co680 N697 1.989 . S
Co680 O705 1.967 . S
Co680 O712 1.920 . S
Co681 O684 1.966 . S
Co681 N690 2.022 . S
Co681 N698 1.993 . S
Co681 O706 1.941 . S
C682 O683 1.258 . S
C682 O684 1.263 . S
O683 Co680 1.970 . S
O683 C682 1.258 . S
O684 Co681 1.966 . S
O684 C682 1.263 . S
C685 O686 1.235 . S
C685 O712 1.289 . S
O686 C685 1.235 . S
C687 C689 1.400 . S
C687 N690 1.351 . S
C687 C692 1.501 . S
C688 C689 1.387 . S
C688 N691 1.341 . S
C689 C687 1.400 . S
C689 C688 1.387 . S
N690 Co681 2.022 . S
N690 C687 1.351 . S
N690 N691 1.365 . S
N691 C688 1.341 . S
N691 N690 1.365 . S
N691 H711 0.862 . S
C692 C687 1.501 . S
C692 H693 0.961 . S
C692 H694 0.961 . S
C692 H695 0.960 . S
H693 C692 0.961 . S
H694 C692 0.961 . S
H695 C692 0.960 . S
C696 N697 1.342 . S
C696 C700 1.401 . S
C696 C701 1.499 . S
N697 Co680 1.989 . S
N697 C696 1.342 . S
N697 N698 1.388 . S
N698 Co681 1.993 . S
N698 N697 1.388 . S
N698 C699 1.346 . S
C699 N698 1.346 . S
C699 C700 1.396 . S
C699 C709 1.510 . S
C700 C696 1.401 . S
C700 C699 1.396 . S
C701 C696 1.499 . S
C701 H702 0.959 . S
C701 H703 0.960 . S
C701 H704 0.961 . S
H702 C701 0.959 . S
H703 C701 0.960 . S
H704 C701 0.961 . S
O705 Co680 1.967 . S
O705 C713 1.258 . S
O706 Co681 1.941 . S
O706 C713 1.266 . S
H707 C709 0.959 . S
H708 C709 0.961 . S
C709 C699 1.510 . S
C709 H707 0.959 . S
C709 H708 0.961 . S
C709 H710 0.960 . S
H710 C709 0.960 . S
H711 N691 0.862 . S
O712 Co680 1.920 . S
O712 C685 1.289 . S
C713 O705 1.258 . S
C713 O706 1.266 . S
Co714 O717 1.970 . S
Co714 N731 1.989 . S
Co714 O739 1.967 . S
Co714 O746 1.920 . S
Co715 O718 1.966 . S
Co715 N724 2.022 . S
Co715 N732 1.993 . S
Co715 O740 1.941 . S
C716 O717 1.258 . S
C716 O718 1.263 . S
O717 Co714 1.970 . S
O717 C716 1.258 . S
O718 Co715 1.966 . S
O718 C716 1.263 . S
C719 O720 1.235 . S
C719 O746 1.289 . S
O720 C719 1.235 . S
C721 C723 1.400 . S
C721 N724 1.351 . S
C721 C726 1.501 . S
C722 C723 1.387 . S
C722 N725 1.341 . S
C723 C721 1.400 . S
C723 C722 1.387 . S
N724 Co715 2.022 . S
N724 C721 1.351 . S
N724 N725 1.365 . S
N725 C722 1.341 . S
N725 N724 1.365 . S
N725 H745 0.862 . S
C726 C721 1.501 . S
C726 H727 0.961 . S
C726 H728 0.961 . S
C726 H729 0.960 . S
H727 C726 0.961 . S
H728 C726 0.961 . S
H729 C726 0.960 . S
C730 N731 1.342 . S
C730 C734 1.401 . S
C730 C735 1.499 . S
N731 Co714 1.989 . S
N731 C730 1.342 . S
N731 N732 1.388 . S
N732 Co715 1.993 . S
N732 N731 1.388 . S
N732 C733 1.346 . S
C733 N732 1.346 . S
C733 C734 1.396 . S
C733 C743 1.510 . S
C734 C730 1.401 . S
C734 C733 1.396 . S
C735 C730 1.499 . S
C735 H736 0.959 . S
C735 H737 0.960 . S
C735 H738 0.961 . S
H736 C735 0.959 . S
H737 C735 0.960 . S
H738 C735 0.961 . S
O739 Co714 1.967 . S
O739 C747 1.258 . S
O740 Co715 1.941 . S
O740 C747 1.266 . S
H741 C743 0.959 . S
H742 C743 0.961 . S
C743 C733 1.510 . S
C743 H741 0.959 . S
C743 H742 0.961 . S
C743 H744 0.960 . S
H744 C743 0.960 . S
H745 N725 0.862 . S
O746 Co714 1.920 . S
O746 C719 1.289 . S
C747 O739 1.258 . S
C747 O740 1.266 . S
Co748 O751 1.970 . S
Co748 N765 1.989 . S
Co748 O773 1.967 . S
Co748 O780 1.920 . S
Co749 O752 1.966 . S
Co749 N758 2.022 . S
Co749 N766 1.993 . S
Co749 O774 1.941 . S
C750 O751 1.258 . S
C750 O752 1.263 . S
O751 Co748 1.970 . S
O751 C750 1.258 . S
O752 Co749 1.966 . S
O752 C750 1.263 . S
C753 O754 1.235 . S
C753 O780 1.289 . S
O754 C753 1.235 . S
C755 C757 1.400 . S
C755 N758 1.351 . S
C755 C760 1.501 . S
C756 C757 1.387 . S
C756 N759 1.341 . S
C757 C755 1.400 . S
C757 C756 1.387 . S
N758 Co749 2.022 . S
N758 C755 1.351 . S
N758 N759 1.365 . S
N759 C756 1.341 . S
N759 N758 1.365 . S
N759 H779 0.862 . S
C760 C755 1.501 . S
C760 H761 0.961 . S
C760 H762 0.961 . S
C760 H763 0.960 . S
H761 C760 0.961 . S
H762 C760 0.961 . S
H763 C760 0.960 . S
C764 N765 1.342 . S
C764 C768 1.401 . S
C764 C769 1.499 . S
N765 Co748 1.989 . S
N765 C764 1.342 . S
N765 N766 1.388 . S
N766 Co749 1.993 . S
N766 N765 1.388 . S
N766 C767 1.346 . S
C767 N766 1.346 . S
C767 C768 1.396 . S
C767 C777 1.510 . S
C768 C764 1.401 . S
C768 C767 1.396 . S
C769 C764 1.499 . S
C769 H770 0.959 . S
C769 H771 0.960 . S
C769 H772 0.961 . S
H770 C769 0.959 . S
H771 C769 0.960 . S
H772 C769 0.961 . S
O773 Co748 1.967 . S
O773 C781 1.258 . S
O774 Co749 1.941 . S
O774 C781 1.266 . S
H775 C777 0.959 . S
H776 C777 0.961 . S
C777 C767 1.510 . S
C777 H775 0.959 . S
C777 H776 0.961 . S
C777 H778 0.960 . S
H778 C777 0.960 . S
H779 N759 0.862 . S
O780 Co748 1.920 . S
O780 C753 1.289 . S
C781 O773 1.258 . S
C781 O774 1.266 . S
Co782 O785 1.970 . S
Co782 N799 1.989 . S
Co782 O807 1.967 . S
Co782 O814 1.920 . S
Co783 O786 1.966 . S
Co783 N792 2.022 . S
Co783 N800 1.993 . S
Co783 O808 1.941 . S
C784 O785 1.258 . S
C784 O786 1.263 . S
O785 Co782 1.970 . S
O785 C784 1.258 . S
O786 Co783 1.966 . S
O786 C784 1.263 . S
C787 O788 1.235 . S
C787 O814 1.289 . S
O788 C787 1.235 . S
C789 C791 1.400 . S
C789 N792 1.351 . S
C789 C794 1.501 . S
C790 C791 1.387 . S
C790 N793 1.341 . S
C791 C789 1.400 . S
C791 C790 1.387 . S
N792 Co783 2.022 . S
N792 C789 1.351 . S
N792 N793 1.365 . S
N793 C790 1.341 . S
N793 N792 1.365 . S
N793 H813 0.862 . S
C794 C789 1.501 . S
C794 H795 0.961 . S
C794 H796 0.961 . S
C794 H797 0.960 . S
H795 C794 0.961 . S
H796 C794 0.961 . S
H797 C794 0.960 . S
C798 N799 1.342 . S
C798 C802 1.401 . S
C798 C803 1.499 . S
N799 Co782 1.989 . S
N799 C798 1.342 . S
N799 N800 1.388 . S
N800 Co783 1.993 . S
N800 N799 1.388 . S
N800 C801 1.346 . S
C801 N800 1.346 . S
C801 C802 1.396 . S
C801 C811 1.510 . S
C802 C798 1.401 . S
C802 C801 1.396 . S
C803 C798 1.499 . S
C803 H804 0.959 . S
C803 H805 0.960 . S
C803 H806 0.961 . S
H804 C803 0.959 . S
H805 C803 0.960 . S
H806 C803 0.961 . S
O807 Co782 1.967 . S
O807 C815 1.258 . S
O808 Co783 1.941 . S
O808 C815 1.266 . S
H809 C811 0.959 . S
H810 C811 0.961 . S
C811 C801 1.510 . S
C811 H809 0.959 . S
C811 H810 0.961 . S
C811 H812 0.960 . S
H812 C811 0.960 . S
H813 N793 0.862 . S
O814 Co782 1.920 . S
O814 C787 1.289 . S
C815 O807 1.258 . S
C815 O808 1.266 . S
Co816 O819 1.970 . S
Co816 N833 1.989 . S
Co816 O841 1.967 . S
Co816 O848 1.920 . S
Co817 O820 1.966 . S
Co817 N826 2.022 . S
Co817 N834 1.993 . S
Co817 O842 1.941 . S
C818 O819 1.258 . S
C818 O820 1.263 . S
O819 Co816 1.970 . S
O819 C818 1.258 . S
O820 Co817 1.966 . S
O820 C818 1.263 . S
C821 O822 1.235 . S
C821 O848 1.289 . S
O822 C821 1.235 . S
C823 C825 1.400 . S
C823 N826 1.351 . S
C823 C828 1.501 . S
C824 C825 1.387 . S
C824 N827 1.341 . S
C825 C823 1.400 . S
C825 C824 1.387 . S
N826 Co817 2.022 . S
N826 C823 1.351 . S
N826 N827 1.365 . S
N827 C824 1.341 . S
N827 N826 1.365 . S
N827 H847 0.862 . S
C828 C823 1.501 . S
C828 H829 0.961 . S
C828 H830 0.961 . S
C828 H831 0.960 . S
H829 C828 0.961 . S
H830 C828 0.961 . S
H831 C828 0.960 . S
C832 N833 1.342 . S
C832 C836 1.401 . S
C832 C837 1.499 . S
N833 Co816 1.989 . S
N833 C832 1.342 . S
N833 N834 1.388 . S
N834 Co817 1.993 . S
N834 N833 1.388 . S
N834 C835 1.346 . S
C835 N834 1.346 . S
C835 C836 1.396 . S
C835 C845 1.510 . S
C836 C832 1.401 . S
C836 C835 1.396 . S
C837 C832 1.499 . S
C837 H838 0.959 . S
C837 H839 0.960 . S
C837 H840 0.961 . S
H838 C837 0.959 . S
H839 C837 0.960 . S
H840 C837 0.961 . S
O841 Co816 1.967 . S
O841 C849 1.258 . S
O842 Co817 1.941 . S
O842 C849 1.266 . S
H843 C845 0.959 . S
H844 C845 0.961 . S
C845 C835 1.510 . S
C845 H843 0.959 . S
C845 H844 0.961 . S
C845 H846 0.960 . S
H846 C845 0.960 . S
H847 N827 0.862 . S
O848 Co816 1.920 . S
O848 C821 1.289 . S
C849 O841 1.258 . S
C849 O842 1.266 . S
Co850 O853 1.970 . S
Co850 N867 1.989 . S
Co850 O875 1.967 . S
Co850 O882 1.920 . S
Co851 O854 1.966 . S
Co851 N860 2.022 . S
Co851 N868 1.993 . S
Co851 O876 1.941 . S
C852 O853 1.258 . S
C852 O854 1.263 . S
O853 Co850 1.970 . S
O853 C852 1.258 . S
O854 Co851 1.966 . S
O854 C852 1.263 . S
C855 O856 1.235 . S
C855 O882 1.289 . S
O856 C855 1.235 . S
C857 C859 1.400 . S
C857 N860 1.351 . S
C857 C862 1.501 . S
C858 C859 1.387 . S
C858 N861 1.341 . S
C859 C857 1.400 . S
C859 C858 1.387 . S
N860 Co851 2.022 . S
N860 C857 1.351 . S
N860 N861 1.365 . S
N861 C858 1.341 . S
N861 N860 1.365 . S
N861 H881 0.862 . S
C862 C857 1.501 . S
C862 H863 0.961 . S
C862 H864 0.961 . S
C862 H865 0.960 . S
H863 C862 0.961 . S
H864 C862 0.961 . S
H865 C862 0.960 . S
C866 N867 1.342 . S
C866 C870 1.401 . S
C866 C871 1.499 . S
N867 Co850 1.989 . S
N867 C866 1.342 . S
N867 N868 1.388 . S
N868 Co851 1.993 . S
N868 N867 1.388 . S
N868 C869 1.346 . S
C869 N868 1.346 . S
C869 C870 1.396 . S
C869 C879 1.510 . S
C870 C866 1.401 . S
C870 C869 1.396 . S
C871 C866 1.499 . S
C871 H872 0.959 . S
C871 H873 0.960 . S
C871 H874 0.961 . S
H872 C871 0.959 . S
H873 C871 0.960 . S
H874 C871 0.961 . S
O875 Co850 1.967 . S
O875 C883 1.258 . S
O876 Co851 1.941 . S
O876 C883 1.266 . S
H877 C879 0.959 . S
H878 C879 0.961 . S
C879 C869 1.510 . S
C879 H877 0.959 . S
C879 H878 0.961 . S
C879 H880 0.960 . S
H880 C879 0.960 . S
H881 N861 0.862 . S
O882 Co850 1.920 . S
O882 C855 1.289 . S
C883 O875 1.258 . S
C883 O876 1.266 . S
Co884 O887 1.970 . S
Co884 N901 1.989 . S
Co884 O909 1.967 . S
Co884 O916 1.920 . S
Co885 O888 1.966 . S
Co885 N894 2.022 . S
Co885 N902 1.993 . S
Co885 O910 1.941 . S
C886 O887 1.258 . S
C886 O888 1.263 . S
O887 Co884 1.970 . S
O887 C886 1.258 . S
O888 Co885 1.966 . S
O888 C886 1.263 . S
C889 O890 1.235 . S
C889 O916 1.289 . S
O890 C889 1.235 . S
C891 C893 1.400 . S
C891 N894 1.351 . S
C891 C896 1.501 . S
C892 C893 1.387 . S
C892 N895 1.341 . S
C893 C891 1.400 . S
C893 C892 1.387 . S
N894 Co885 2.022 . S
N894 C891 1.351 . S
N894 N895 1.365 . S
N895 C892 1.341 . S
N895 N894 1.365 . S
N895 H915 0.862 . S
C896 C891 1.501 . S
C896 H897 0.961 . S
C896 H898 0.961 . S
C896 H899 0.960 . S
H897 C896 0.961 . S
H898 C896 0.961 . S
H899 C896 0.960 . S
C900 N901 1.342 . S
C900 C904 1.401 . S
C900 C905 1.499 . S
N901 Co884 1.989 . S
N901 C900 1.342 . S
N901 N902 1.388 . S
N902 Co885 1.993 . S
N902 N901 1.388 . S
N902 C903 1.346 . S
C903 N902 1.346 . S
C903 C904 1.396 . S
C903 C913 1.510 . S
C904 C900 1.401 . S
C904 C903 1.396 . S
C905 C900 1.499 . S
C905 H906 0.959 . S
C905 H907 0.960 . S
C905 H908 0.961 . S
H906 C905 0.959 . S
H907 C905 0.960 . S
H908 C905 0.961 . S
O909 Co884 1.967 . S
O909 C917 1.258 . S
O910 Co885 1.941 . S
O910 C917 1.266 . S
H911 C913 0.959 . S
H912 C913 0.961 . S
C913 C903 1.510 . S
C913 H911 0.959 . S
C913 H912 0.961 . S
C913 H914 0.960 . S
H914 C913 0.960 . S
H915 N895 0.862 . S
O916 Co884 1.920 . S
O916 C889 1.289 . S
C917 O909 1.258 . S
C917 O910 1.266 . S
Co918 O921 1.970 . S
Co918 N935 1.989 . S
Co918 O943 1.967 . S
Co918 O950 1.920 . S
Co919 O922 1.966 . S
Co919 N928 2.022 . S
Co919 N936 1.993 . S
Co919 O944 1.941 . S
C920 O921 1.258 . S
C920 O922 1.263 . S
O921 Co918 1.970 . S
O921 C920 1.258 . S
O922 Co919 1.966 . S
O922 C920 1.263 . S
C923 O924 1.235 . S
C923 O950 1.289 . S
O924 C923 1.235 . S
C925 C927 1.400 . S
C925 N928 1.351 . S
C925 C930 1.501 . S
C926 C927 1.387 . S
C926 N929 1.341 . S
C927 C925 1.400 . S
C927 C926 1.387 . S
N928 Co919 2.022 . S
N928 C925 1.351 . S
N928 N929 1.365 . S
N929 C926 1.341 . S
N929 N928 1.365 . S
N929 H949 0.862 . S
C930 C925 1.501 . S
C930 H931 0.961 . S
C930 H932 0.961 . S
C930 H933 0.960 . S
H931 C930 0.961 . S
H932 C930 0.961 . S
H933 C930 0.960 . S
C934 N935 1.342 . S
C934 C938 1.401 . S
C934 C939 1.499 . S
N935 Co918 1.989 . S
N935 C934 1.342 . S
N935 N936 1.388 . S
N936 Co919 1.993 . S
N936 N935 1.388 . S
N936 C937 1.346 . S
C937 N936 1.346 . S
C937 C938 1.396 . S
C937 C947 1.510 . S
C938 C934 1.401 . S
C938 C937 1.396 . S
C939 C934 1.499 . S
C939 H940 0.959 . S
C939 H941 0.960 . S
C939 H942 0.961 . S
H940 C939 0.959 . S
H941 C939 0.960 . S
H942 C939 0.961 . S
O943 Co918 1.967 . S
O943 C951 1.258 . S
O944 Co919 1.941 . S
O944 C951 1.266 . S
H945 C947 0.959 . S
H946 C947 0.961 . S
C947 C937 1.510 . S
C947 H945 0.959 . S
C947 H946 0.961 . S
C947 H948 0.960 . S
H948 C947 0.960 . S
H949 N929 0.862 . S
O950 Co918 1.920 . S
O950 C923 1.289 . S
C951 O943 1.258 . S
C951 O944 1.266 . S
Co952 O955 1.970 . S
Co952 N969 1.989 . S
Co952 O977 1.967 . S
Co952 O984 1.920 . S
Co953 O956 1.966 . S
Co953 N962 2.022 . S
Co953 N970 1.993 . S
Co953 O978 1.941 . S
C954 O955 1.258 . S
C954 O956 1.263 . S
O955 Co952 1.970 . S
O955 C954 1.258 . S
O956 Co953 1.966 . S
O956 C954 1.263 . S
C957 O958 1.235 . S
C957 O984 1.289 . S
O958 C957 1.235 . S
C959 C961 1.400 . S
C959 N962 1.351 . S
C959 C964 1.501 . S
C960 C961 1.387 . S
C960 N963 1.341 . S
C961 C959 1.400 . S
C961 C960 1.387 . S
N962 Co953 2.022 . S
N962 C959 1.351 . S
N962 N963 1.365 . S
N963 C960 1.341 . S
N963 N962 1.365 . S
N963 H983 0.862 . S
C964 C959 1.501 . S
C964 H965 0.961 . S
C964 H966 0.961 . S
C964 H967 0.960 . S
H965 C964 0.961 . S
H966 C964 0.961 . S
H967 C964 0.960 . S
C968 N969 1.342 . S
C968 C972 1.401 . S
C968 C973 1.499 . S
N969 Co952 1.989 . S
N969 C968 1.342 . S
N969 N970 1.388 . S
N970 Co953 1.993 . S
N970 N969 1.388 . S
N970 C971 1.346 . S
C971 N970 1.346 . S
C971 C972 1.396 . S
C971 C981 1.510 . S
C972 C968 1.401 . S
C972 C971 1.396 . S
C973 C968 1.499 . S
C973 H974 0.959 . S
C973 H975 0.960 . S
C973 H976 0.961 . S
H974 C973 0.959 . S
H975 C973 0.960 . S
H976 C973 0.961 . S
O977 Co952 1.967 . S
O977 C985 1.258 . S
O978 Co953 1.941 . S
O978 C985 1.266 . S
H979 C981 0.959 . S
H980 C981 0.961 . S
C981 C971 1.510 . S
C981 H979 0.959 . S
C981 H980 0.961 . S
C981 H982 0.960 . S
H982 C981 0.960 . S
H983 N963 0.862 . S
O984 Co952 1.920 . S
O984 C957 1.289 . S
C985 O977 1.258 . S
C985 O978 1.266 . S
Co986 O989 1.970 . S
Co986 N1003 1.989 . S
Co986 O1011 1.967 . S
Co986 O1018 1.920 . S
Co987 O990 1.966 . S
Co987 N996 2.022 . S
Co987 N1004 1.993 . S
Co987 O1012 1.941 . S
C988 O989 1.258 . S
C988 O990 1.263 . S
O989 Co986 1.970 . S
O989 C988 1.258 . S
O990 Co987 1.966 . S
O990 C988 1.263 . S
C991 O992 1.235 . S
C991 O1018 1.289 . S
O992 C991 1.235 . S
C993 C995 1.400 . S
C993 N996 1.351 . S
C993 C998 1.501 . S
C994 C995 1.387 . S
C994 N997 1.341 . S
C995 C993 1.400 . S
C995 C994 1.387 . S
N996 Co987 2.022 . S
N996 C993 1.351 . S
N996 N997 1.365 . S
N997 C994 1.341 . S
N997 N996 1.365 . S
N997 H1017 0.862 . S
C998 C993 1.501 . S
C998 H999 0.961 . S
C998 H1000 0.961 . S
C998 H1001 0.960 . S
H999 C998 0.961 . S
H1000 C998 0.961 . S
H1001 C998 0.960 . S
C1002 N1003 1.342 . S
C1002 C1006 1.401 . S
C1002 C1007 1.499 . S
N1003 Co986 1.989 . S
N1003 C1002 1.342 . S
N1003 N1004 1.388 . S
N1004 Co987 1.993 . S
N1004 N1003 1.388 . S
N1004 C1005 1.346 . S
C1005 N1004 1.346 . S
C1005 C1006 1.396 . S
C1005 C1015 1.510 . S
C1006 C1002 1.401 . S
C1006 C1005 1.396 . S
C1007 C1002 1.499 . S
C1007 H1008 0.959 . S
C1007 H1009 0.960 . S
C1007 H1010 0.961 . S
H1008 C1007 0.959 . S
H1009 C1007 0.960 . S
H1010 C1007 0.961 . S
O1011 Co986 1.967 . S
O1011 C1019 1.258 . S
O1012 Co987 1.941 . S
O1012 C1019 1.266 . S
H1013 C1015 0.959 . S
H1014 C1015 0.961 . S
C1015 C1005 1.510 . S
C1015 H1013 0.959 . S
C1015 H1014 0.961 . S
C1015 H1016 0.960 . S
H1016 C1015 0.960 . S
H1017 N997 0.862 . S
O1018 Co986 1.920 . S
O1018 C991 1.289 . S
C1019 O1011 1.258 . S
C1019 O1012 1.266 . S
Co1020 O1023 1.970 . S
Co1020 N1037 1.989 . S
Co1020 O1045 1.967 . S
Co1020 O1052 1.920 . S
Co1021 O1024 1.966 . S
Co1021 N1030 2.022 . S
Co1021 N1038 1.993 . S
Co1021 O1046 1.941 . S
C1022 O1023 1.258 . S
C1022 O1024 1.263 . S
O1023 Co1020 1.970 . S
O1023 C1022 1.258 . S
O1024 Co1021 1.966 . S
O1024 C1022 1.263 . S
C1025 O1026 1.235 . S
C1025 O1052 1.289 . S
O1026 C1025 1.235 . S
C1027 C1029 1.400 . S
C1027 N1030 1.351 . S
C1027 C1032 1.501 . S
C1028 C1029 1.387 . S
C1028 N1031 1.341 . S
C1029 C1027 1.400 . S
C1029 C1028 1.387 . S
N1030 Co1021 2.022 . S
N1030 C1027 1.351 . S
N1030 N1031 1.365 . S
N1031 C1028 1.341 . S
N1031 N1030 1.365 . S
N1031 H1051 0.862 . S
C1032 C1027 1.501 . S
C1032 H1033 0.961 . S
C1032 H1034 0.961 . S
C1032 H1035 0.960 . S
H1033 C1032 0.961 . S
H1034 C1032 0.961 . S
H1035 C1032 0.960 . S
C1036 N1037 1.342 . S
C1036 C1040 1.401 . S
C1036 C1041 1.499 . S
N1037 Co1020 1.989 . S
N1037 C1036 1.342 . S
N1037 N1038 1.388 . S
N1038 Co1021 1.993 . S
N1038 N1037 1.388 . S
N1038 C1039 1.346 . S
C1039 N1038 1.346 . S
C1039 C1040 1.396 . S
C1039 C1049 1.510 . S
C1040 C1036 1.401 . S
C1040 C1039 1.396 . S
C1041 C1036 1.499 . S
C1041 H1042 0.959 . S
C1041 H1043 0.960 . S
C1041 H1044 0.961 . S
H1042 C1041 0.959 . S
H1043 C1041 0.960 . S
H1044 C1041 0.961 . S
O1045 Co1020 1.967 . S
O1045 C1053 1.258 . S
O1046 Co1021 1.941 . S
O1046 C1053 1.266 . S
H1047 C1049 0.959 . S
H1048 C1049 0.961 . S
C1049 C1039 1.510 . S
C1049 H1047 0.959 . S
C1049 H1048 0.961 . S
C1049 H1050 0.960 . S
H1050 C1049 0.960 . S
H1051 N1031 0.862 . S
O1052 Co1020 1.920 . S
O1052 C1025 1.289 . S
C1053 O1045 1.258 . S
C1053 O1046 1.266 . S
Co1054 O1057 1.970 . S
Co1054 N1071 1.989 . S
Co1054 O1079 1.967 . S
Co1054 O1086 1.920 . S
Co1055 O1058 1.966 . S
Co1055 N1064 2.022 . S
Co1055 N1072 1.993 . S
Co1055 O1080 1.941 . S
C1056 O1057 1.258 . S
C1056 O1058 1.263 . S
O1057 Co1054 1.970 . S
O1057 C1056 1.258 . S
O1058 Co1055 1.966 . S
O1058 C1056 1.263 . S
C1059 O1060 1.235 . S
C1059 O1086 1.289 . S
O1060 C1059 1.235 . S
C1061 C1063 1.400 . S
C1061 N1064 1.351 . S
C1061 C1066 1.501 . S
C1062 C1063 1.387 . S
C1062 N1065 1.341 . S
C1063 C1061 1.400 . S
C1063 C1062 1.387 . S
N1064 Co1055 2.022 . S
N1064 C1061 1.351 . S
N1064 N1065 1.365 . S
N1065 C1062 1.341 . S
N1065 N1064 1.365 . S
N1065 H1085 0.862 . S
C1066 C1061 1.501 . S
C1066 H1067 0.961 . S
C1066 H1068 0.961 . S
C1066 H1069 0.960 . S
H1067 C1066 0.961 . S
H1068 C1066 0.961 . S
H1069 C1066 0.960 . S
C1070 N1071 1.342 . S
C1070 C1074 1.401 . S
C1070 C1075 1.499 . S
N1071 Co1054 1.989 . S
N1071 C1070 1.342 . S
N1071 N1072 1.388 . S
N1072 Co1055 1.993 . S
N1072 N1071 1.388 . S
N1072 C1073 1.346 . S
C1073 N1072 1.346 . S
C1073 C1074 1.396 . S
C1073 C1083 1.510 . S
C1074 C1070 1.401 . S
C1074 C1073 1.396 . S
C1075 C1070 1.499 . S
C1075 H1076 0.959 . S
C1075 H1077 0.960 . S
C1075 H1078 0.961 . S
H1076 C1075 0.959 . S
H1077 C1075 0.960 . S
H1078 C1075 0.961 . S
O1079 Co1054 1.967 . S
O1079 C1087 1.258 . S
O1080 Co1055 1.941 . S
O1080 C1087 1.266 . S
H1081 C1083 0.959 . S
H1082 C1083 0.961 . S
C1083 C1073 1.510 . S
C1083 H1081 0.959 . S
C1083 H1082 0.961 . S
C1083 H1084 0.960 . S
H1084 C1083 0.960 . S
H1085 N1065 0.862 . S
O1086 Co1054 1.920 . S
O1086 C1059 1.289 . S
C1087 O1079 1.258 . S
C1087 O1080 1.266 . S
C1088 C1089 1.349 . S
C1088 C1090 1.327 . S
C1088 H1113 0.950 . S
C1089 C1088 1.349 . S
C1089 C1105 1.349 . S
C1090 C1088 1.327 . S
C1090 C1109 1.429 . S
C1090 H1114 0.950 . S
C1091 C1108 1.574 . S
C1091 C1110 1.368 . S
C1091 H1115 0.949 . S
H1092 C1096 0.949 . S
C1093 C1094 1.349 . S
C1093 C1095 1.327 . S
C1093 H1116 0.950 . S
C1094 C1093 1.349 . S
C1094 C1106 1.349 . S
C1095 C1093 1.327 . S
C1095 C1111 1.429 . S
C1095 H1117 0.950 . S
C1096 H1092 0.949 . S
C1096 C1104 1.574 . S
C1096 C1112 1.368 . S
H1097 C1105 0.950 . S
H1098 C1103 0.950 . S
H1099 C1104 0.949 . S
H1100 C1106 0.950 . S
H1101 C1107 0.950 . S
H1102 C1108 0.949 . S
C1103 H1098 0.950 . S
C1103 C1105 1.327 . S
C1103 C1109 1.429 . S
C1104 C1096 1.574 . S
C1104 H1099 0.949 . S
C1104 C1110 1.368 . S
C1105 C1089 1.349 . S
C1105 H1097 0.950 . S
C1105 C1103 1.327 . S
C1106 C1094 1.349 . S
C1106 H1100 0.950 . S
C1106 C1107 1.327 . S
C1107 H1101 0.950 . S
C1107 C1106 1.327 . S
C1107 C1111 1.429 . S
C1108 C1091 1.574 . S
C1108 H1102 0.949 . S
C1108 C1112 1.368 . S
C1109 C1090 1.429 . S
C1109 C1103 1.429 . S
C1109 C1110 1.523 . S
C1110 C1091 1.368 . S
C1110 C1104 1.368 . S
C1110 C1109 1.523 . S
C1111 C1095 1.429 . S
C1111 C1107 1.429 . S
C1111 C1112 1.523 . S
C1112 C1096 1.368 . S
C1112 C1108 1.368 . S
C1112 C1111 1.523 . S
H1113 C1088 0.950 . S
H1114 C1090 0.950 . S
H1115 C1091 0.949 . S
H1116 C1093 0.950 . S
H1117 C1095 0.950 . S
C1118 C1119 1.349 1_655 S
C1118 C1120 1.327 . S
C1118 H1143 0.950 . S
C1119 C1118 1.349 1_455 S
C1119 C1135 1.349 . S
C1120 C1118 1.327 . S
C1120 C1139 1.429 . S
C1120 H1144 0.950 . S
C1121 C1138 1.574 . S
C1121 C1140 1.368 . S
C1121 H1145 0.949 . S
H1122 C1126 0.949 . S
C1123 C1124 1.349 . S
C1123 C1125 1.327 . S
C1123 H1146 0.950 . S
C1124 C1123 1.349 . S
C1124 C1136 1.349 . S
C1125 C1123 1.327 . S
C1125 C1141 1.429 . S
C1125 H1147 0.950 . S
C1126 H1122 0.949 . S
C1126 C1134 1.574 . S
C1126 C1142 1.368 . S
H1127 C1135 0.950 . S
H1128 C1133 0.950 . S
H1129 C1134 0.949 . S
H1130 C1136 0.950 . S
H1131 C1137 0.950 . S
H1132 C1138 0.949 . S
C1133 H1128 0.950 . S
C1133 C1135 1.327 1_655 S
C1133 C1139 1.429 . S
C1134 C1126 1.574 . S
C1134 H1129 0.949 . S
C1134 C1140 1.368 . S
C1135 C1119 1.349 . S
C1135 H1127 0.950 . S
C1135 C1133 1.327 1_455 S
C1136 C1124 1.349 . S
C1136 H1130 0.950 . S
C1136 C1137 1.327 . S
C1137 H1131 0.950 . S
C1137 C1136 1.327 . S
C1137 C1141 1.429 . S
C1138 C1121 1.574 . S
C1138 H1132 0.949 . S
C1138 C1142 1.368 . S
C1139 C1120 1.429 . S
C1139 C1133 1.429 . S
C1139 C1140 1.523 . S
C1140 C1121 1.368 . S
C1140 C1134 1.368 . S
C1140 C1139 1.523 . S
C1141 C1125 1.429 . S
C1141 C1137 1.429 . S
C1141 C1142 1.523 . S
C1142 C1126 1.368 . S
C1142 C1138 1.368 . S
C1142 C1141 1.523 . S
H1143 C1118 0.950 . S
H1144 C1120 0.950 . S
H1145 C1121 0.949 . S
H1146 C1123 0.950 . S
H1147 C1125 0.950 . S
C1148 C1149 1.349 . S
C1148 C1150 1.327 . S
C1148 H1173 0.950 . S
C1149 C1148 1.349 . S
C1149 C1165 1.349 . S
C1150 C1148 1.327 . S
C1150 C1169 1.429 . S
C1150 H1174 0.950 . S
C1151 C1168 1.574 . S
C1151 C1170 1.368 . S
C1151 H1175 0.949 . S
H1152 C1156 0.949 . S
C1153 C1154 1.349 . S
C1153 C1155 1.327 . S
C1153 H1176 0.950 . S
C1154 C1153 1.349 . S
C1154 C1166 1.349 . S
C1155 C1153 1.327 . S
C1155 C1171 1.429 . S
C1155 H1177 0.950 . S
C1156 H1152 0.949 . S
C1156 C1164 1.574 . S
C1156 C1172 1.368 . S
H1157 C1165 0.950 . S
H1158 C1163 0.950 . S
H1159 C1164 0.949 . S
H1160 C1166 0.950 . S
H1161 C1167 0.950 . S
H1162 C1168 0.949 . S
C1163 H1158 0.950 . S
C1163 C1165 1.327 . S
C1163 C1169 1.429 . S
C1164 C1156 1.574 . S
C1164 H1159 0.949 . S
C1164 C1170 1.368 . S
C1165 C1149 1.349 . S
C1165 H1157 0.950 . S
C1165 C1163 1.327 . S
C1166 C1154 1.349 . S
C1166 H1160 0.950 . S
C1166 C1167 1.327 . S
C1167 H1161 0.950 . S
C1167 C1166 1.327 . S
C1167 C1171 1.429 . S
C1168 C1151 1.574 . S
C1168 H1162 0.949 . S
C1168 C1172 1.368 . S
C1169 C1150 1.429 . S
C1169 C1163 1.429 . S
C1169 C1170 1.523 . S
C1170 C1151 1.368 . S
C1170 C1164 1.368 . S
C1170 C1169 1.523 . S
C1171 C1155 1.429 . S
C1171 C1167 1.429 . S
C1171 C1172 1.523 . S
C1172 C1156 1.368 . S
C1172 C1168 1.368 . S
C1172 C1171 1.523 . S
H1173 C1148 0.950 . S
H1174 C1150 0.950 . S
H1175 C1151 0.949 . S
H1176 C1153 0.950 . S
H1177 C1155 0.950 . S
C1178 C1179 1.349 . S
C1178 C1180 1.327 . S
C1178 H1203 0.950 . S
C1179 C1178 1.349 . S
C1179 C1195 1.349 . S
C1180 C1178 1.327 . S
C1180 C1199 1.429 . S
C1180 H1204 0.950 . S
C1181 C1198 1.574 . S
C1181 C1200 1.368 . S
C1181 H1205 0.949 . S
H1182 C1186 0.949 . S
C1183 C1184 1.349 . S
C1183 C1185 1.327 . S
C1183 H1206 0.950 . S
C1184 C1183 1.349 . S
C1184 C1196 1.349 . S
C1185 C1183 1.327 . S
C1185 C1201 1.429 . S
C1185 H1207 0.950 . S
C1186 H1182 0.949 . S
C1186 C1194 1.574 . S
C1186 C1202 1.368 . S
H1187 C1195 0.950 . S
H1188 C1193 0.950 . S
H1189 C1194 0.949 . S
H1190 C1196 0.950 . S
H1191 C1197 0.950 . S
H1192 C1198 0.949 . S
C1193 H1188 0.950 . S
C1193 C1195 1.327 . S
C1193 C1199 1.429 . S
C1194 C1186 1.574 . S
C1194 H1189 0.949 . S
C1194 C1200 1.368 . S
C1195 C1179 1.349 . S
C1195 H1187 0.950 . S
C1195 C1193 1.327 . S
C1196 C1184 1.349 . S
C1196 H1190 0.950 . S
C1196 C1197 1.327 . S
C1197 H1191 0.950 . S
C1197 C1196 1.327 . S
C1197 C1201 1.429 . S
C1198 C1181 1.574 . S
C1198 H1192 0.949 . S
C1198 C1202 1.368 . S
C1199 C1180 1.429 . S
C1199 C1193 1.429 . S
C1199 C1200 1.523 . S
C1200 C1181 1.368 . S
C1200 C1194 1.368 . S
C1200 C1199 1.523 . S
C1201 C1185 1.429 . S
C1201 C1197 1.429 . S
C1201 C1202 1.523 . S
C1202 C1186 1.368 . S
C1202 C1198 1.368 . S
C1202 C1201 1.523 . S
H1203 C1178 0.950 . S
H1204 C1180 0.950 . S
H1205 C1181 0.949 . S
H1206 C1183 0.950 . S
H1207 C1185 0.950 . S
C1208 C1209 1.349 . S
C1208 C1210 1.327 . S
C1208 H1233 0.950 . S
C1209 C1208 1.349 . S
C1209 C1225 1.349 . S
C1210 C1208 1.327 . S
C1210 C1229 1.429 . S
C1210 H1234 0.950 . S
C1211 C1228 1.574 . S
C1211 C1230 1.368 . S
C1211 H1235 0.949 . S
H1212 C1216 0.949 . S
C1213 C1214 1.349 . S
C1213 C1215 1.327 . S
C1213 H1236 0.950 . S
C1214 C1213 1.349 . S
C1214 C1226 1.349 . S
C1215 C1213 1.327 . S
C1215 C1231 1.429 . S
C1215 H1237 0.950 . S
C1216 H1212 0.949 . S
C1216 C1224 1.574 . S
C1216 C1232 1.368 . S
H1217 C1225 0.950 . S
H1218 C1223 0.950 . S
H1219 C1224 0.949 . S
H1220 C1226 0.950 . S
H1221 C1227 0.950 . S
H1222 C1228 0.949 . S
C1223 H1218 0.950 . S
C1223 C1225 1.327 . S
C1223 C1229 1.429 . S
C1224 C1216 1.574 . S
C1224 H1219 0.949 . S
C1224 C1230 1.368 . S
C1225 C1209 1.349 . S
C1225 H1217 0.950 . S
C1225 C1223 1.327 . S
C1226 C1214 1.349 . S
C1226 H1220 0.950 . S
C1226 C1227 1.327 . S
C1227 H1221 0.950 . S
C1227 C1226 1.327 . S
C1227 C1231 1.429 . S
C1228 C1211 1.574 . S
C1228 H1222 0.949 . S
C1228 C1232 1.368 . S
C1229 C1210 1.429 . S
C1229 C1223 1.429 . S
C1229 C1230 1.523 . S
C1230 C1211 1.368 . S
C1230 C1224 1.368 . S
C1230 C1229 1.523 . S
C1231 C1215 1.429 . S
C1231 C1227 1.429 . S
C1231 C1232 1.523 . S
C1232 C1216 1.368 . S
C1232 C1228 1.368 . S
C1232 C1231 1.523 . S
H1233 C1208 0.950 . S
H1234 C1210 0.950 . S
H1235 C1211 0.949 . S
H1236 C1213 0.950 . S
H1237 C1215 0.950 . S
C1238 C1239 1.349 . S
C1238 C1240 1.327 . S
C1238 H1263 0.950 . S
C1239 C1238 1.349 . S
C1239 C1255 1.349 . S
C1240 C1238 1.327 . S
C1240 C1259 1.429 . S
C1240 H1264 0.950 . S
C1241 C1258 1.574 . S
C1241 C1260 1.368 . S
C1241 H1265 0.949 . S
H1242 C1246 0.949 . S
C1243 C1244 1.349 . S
C1243 C1245 1.327 . S
C1243 H1266 0.950 . S
C1244 C1243 1.349 . S
C1244 C1256 1.349 . S
C1245 C1243 1.327 . S
C1245 C1261 1.429 . S
C1245 H1267 0.950 . S
C1246 H1242 0.949 . S
C1246 C1254 1.574 . S
C1246 C1262 1.368 . S
H1247 C1255 0.950 . S
H1248 C1253 0.950 . S
H1249 C1254 0.949 . S
H1250 C1256 0.950 . S
H1251 C1257 0.950 . S
H1252 C1258 0.949 . S
C1253 H1248 0.950 . S
C1253 C1255 1.327 . S
C1253 C1259 1.429 . S
C1254 C1246 1.574 . S
C1254 H1249 0.949 . S
C1254 C1260 1.368 . S
C1255 C1239 1.349 . S
C1255 H1247 0.950 . S
C1255 C1253 1.327 . S
C1256 C1244 1.349 . S
C1256 H1250 0.950 . S
C1256 C1257 1.327 . S
C1257 H1251 0.950 . S
C1257 C1256 1.327 . S
C1257 C1261 1.429 . S
C1258 C1241 1.574 . S
C1258 H1252 0.949 . S
C1258 C1262 1.368 . S
C1259 C1240 1.429 . S
C1259 C1253 1.429 . S
C1259 C1260 1.523 . S
C1260 C1241 1.368 . S
C1260 C1254 1.368 . S
C1260 C1259 1.523 . S
C1261 C1245 1.429 . S
C1261 C1257 1.429 . S
C1261 C1262 1.523 . S
C1262 C1246 1.368 . S
C1262 C1258 1.368 . S
C1262 C1261 1.523 . S
H1263 C1238 0.950 . S
H1264 C1240 0.950 . S
H1265 C1241 0.949 . S
H1266 C1243 0.950 . S
H1267 C1245 0.950 . S
C1268 C1269 1.349 . S
C1268 C1270 1.327 . S
C1268 H1293 0.950 . S
C1269 C1268 1.349 . S
C1269 C1285 1.349 . S
C1270 C1268 1.327 . S
C1270 C1289 1.429 . S
C1270 H1294 0.950 . S
C1271 C1288 1.574 . S
C1271 C1290 1.368 . S
C1271 H1295 0.949 . S
H1272 C1276 0.949 . S
C1273 C1274 1.349 . S
C1273 C1275 1.327 . S
C1273 H1296 0.950 . S
C1274 C1273 1.349 . S
C1274 C1286 1.349 . S
C1275 C1273 1.327 . S
C1275 C1291 1.429 . S
C1275 H1297 0.950 . S
C1276 H1272 0.949 . S
C1276 C1284 1.574 . S
C1276 C1292 1.368 . S
H1277 C1285 0.950 . S
H1278 C1283 0.950 . S
H1279 C1284 0.949 . S
H1280 C1286 0.950 . S
H1281 C1287 0.950 . S
H1282 C1288 0.949 . S
C1283 H1278 0.950 . S
C1283 C1285 1.327 . S
C1283 C1289 1.429 . S
C1284 C1276 1.574 . S
C1284 H1279 0.949 . S
C1284 C1290 1.368 . S
C1285 C1269 1.349 . S
C1285 H1277 0.950 . S
C1285 C1283 1.327 . S
C1286 C1274 1.349 . S
C1286 H1280 0.950 . S
C1286 C1287 1.327 . S
C1287 H1281 0.950 . S
C1287 C1286 1.327 . S
C1287 C1291 1.429 . S
C1288 C1271 1.574 . S
C1288 H1282 0.949 . S
C1288 C1292 1.368 . S
C1289 C1270 1.429 . S
C1289 C1283 1.429 . S
C1289 C1290 1.523 . S
C1290 C1271 1.368 . S
C1290 C1284 1.368 . S
C1290 C1289 1.523 . S
C1291 C1275 1.429 . S
C1291 C1287 1.429 . S
C1291 C1292 1.523 . S
C1292 C1276 1.368 . S
C1292 C1288 1.368 . S
C1292 C1291 1.523 . S
H1293 C1268 0.950 . S
H1294 C1270 0.950 . S
H1295 C1271 0.949 . S
H1296 C1273 0.950 . S
H1297 C1275 0.950 . S
C1298 C1299 1.349 . S
C1298 C1300 1.327 . S
C1298 H1323 0.950 . S
C1299 C1298 1.349 . S
C1299 C1315 1.349 . S
C1300 C1298 1.327 . S
C1300 C1319 1.429 . S
C1300 H1324 0.950 . S
C1301 C1318 1.574 . S
C1301 C1320 1.368 . S
C1301 H1325 0.949 . S
H1302 C1306 0.949 . S
C1303 C1304 1.349 1_655 S
C1303 C1305 1.327 . S
C1303 H1326 0.950 . S
C1304 C1303 1.349 1_455 S
C1304 C1316 1.349 . S
C1305 C1303 1.327 . S
C1305 C1321 1.429 . S
C1305 H1327 0.950 . S
C1306 H1302 0.949 . S
C1306 C1314 1.574 . S
C1306 C1322 1.368 . S
H1307 C1315 0.950 . S
H1308 C1313 0.950 . S
H1309 C1314 0.949 . S
H1310 C1316 0.950 . S
H1311 C1317 0.950 . S
H1312 C1318 0.949 . S
C1313 H1308 0.950 . S
C1313 C1315 1.327 . S
C1313 C1319 1.429 . S
C1314 C1306 1.574 . S
C1314 H1309 0.949 . S
C1314 C1320 1.368 . S
C1315 C1299 1.349 . S
C1315 H1307 0.950 . S
C1315 C1313 1.327 . S
C1316 C1304 1.349 . S
C1316 H1310 0.950 . S
C1316 C1317 1.327 1_455 S
C1317 H1311 0.950 . S
C1317 C1316 1.327 1_655 S
C1317 C1321 1.429 . S
C1318 C1301 1.574 . S
C1318 H1312 0.949 . S
C1318 C1322 1.368 . S
C1319 C1300 1.429 . S
C1319 C1313 1.429 . S
C1319 C1320 1.523 . S
C1320 C1301 1.368 . S
C1320 C1314 1.368 . S
C1320 C1319 1.523 . S
C1321 C1305 1.429 . S
C1321 C1317 1.429 . S
C1321 C1322 1.523 . S
C1322 C1306 1.368 . S
C1322 C1318 1.368 . S
C1322 C1321 1.523 . S
H1323 C1298 0.950 . S
H1324 C1300 0.950 . S
H1325 C1301 0.949 . S
H1326 C1303 0.950 . S
H1327 C1305 0.950 . S
C1328 C1329 1.349 . S
C1328 C1330 1.327 . S
C1328 H1353 0.950 . S
C1329 C1328 1.349 . S
C1329 C1345 1.349 . S
C1330 C1328 1.327 . S
C1330 C1349 1.429 . S
C1330 H1354 0.950 . S
C1331 C1348 1.574 . S
C1331 C1350 1.368 . S
C1331 H1355 0.949 . S
H1332 C1336 0.949 . S
C1333 C1334 1.349 . S
C1333 C1335 1.327 . S
C1333 H1356 0.950 . S
C1334 C1333 1.349 . S
C1334 C1346 1.349 . S
C1335 C1333 1.327 . S
C1335 C1351 1.429 . S
C1335 H1357 0.950 . S
C1336 H1332 0.949 . S
C1336 C1344 1.574 . S
C1336 C1352 1.368 . S
H1337 C1345 0.950 . S
H1338 C1343 0.950 . S
H1339 C1344 0.949 . S
H1340 C1346 0.950 . S
H1341 C1347 0.950 . S
H1342 C1348 0.949 . S
C1343 H1338 0.950 . S
C1343 C1345 1.327 . S
C1343 C1349 1.429 . S
C1344 C1336 1.574 . S
C1344 H1339 0.949 . S
C1344 C1350 1.368 . S
C1345 C1329 1.349 . S
C1345 H1337 0.950 . S
C1345 C1343 1.327 . S
C1346 C1334 1.349 . S
C1346 H1340 0.950 . S
C1346 C1347 1.327 . S
C1347 H1341 0.950 . S
C1347 C1346 1.327 . S
C1347 C1351 1.429 . S
C1348 C1331 1.574 . S
C1348 H1342 0.949 . S
C1348 C1352 1.368 . S
C1349 C1330 1.429 . S
C1349 C1343 1.429 . S
C1349 C1350 1.523 . S
C1350 C1331 1.368 . S
C1350 C1344 1.368 . S
C1350 C1349 1.523 . S
C1351 C1335 1.429 . S
C1351 C1347 1.429 . S
C1351 C1352 1.523 . S
C1352 C1336 1.368 . S
C1352 C1348 1.368 . S
C1352 C1351 1.523 . S
H1353 C1328 0.950 . S
H1354 C1330 0.950 . S
H1355 C1331 0.949 . S
H1356 C1333 0.950 . S
H1357 C1335 0.950 . S
C1358 C1359 1.349 1_455 S
C1358 C1360 1.327 . S
C1358 H1383 0.950 . S
C1359 C1358 1.349 1_655 S
C1359 C1375 1.349 . S
C1360 C1358 1.327 . S
C1360 C1379 1.429 . S
C1360 H1384 0.950 . S
C1361 C1378 1.574 . S
C1361 C1380 1.368 . S
C1361 H1385 0.949 . S
H1362 C1366 0.949 . S
C1363 C1364 1.349 . S
C1363 C1365 1.327 . S
C1363 H1386 0.950 . S
C1364 C1363 1.349 . S
C1364 C1376 1.349 . S
C1365 C1363 1.327 . S
C1365 C1381 1.429 . S
C1365 H1387 0.950 . S
C1366 H1362 0.949 . S
C1366 C1374 1.574 . S
C1366 C1382 1.368 . S
H1367 C1375 0.950 . S
H1368 C1373 0.950 . S
H1369 C1374 0.949 . S
H1370 C1376 0.950 . S
H1371 C1377 0.950 . S
H1372 C1378 0.949 . S
C1373 H1368 0.950 . S
C1373 C1375 1.327 1_455 S
C1373 C1379 1.429 . S
C1374 C1366 1.574 . S
C1374 H1369 0.949 . S
C1374 C1380 1.368 . S
C1375 C1359 1.349 . S
C1375 H1367 0.950 . S
C1375 C1373 1.327 1_655 S
C1376 C1364 1.349 . S
C1376 H1370 0.950 . S
C1376 C1377 1.327 . S
C1377 H1371 0.950 . S
C1377 C1376 1.327 . S
C1377 C1381 1.429 . S
C1378 C1361 1.574 . S
C1378 H1372 0.949 . S
C1378 C1382 1.368 . S
C1379 C1360 1.429 . S
C1379 C1373 1.429 . S
C1379 C1380 1.523 . S
C1380 C1361 1.368 . S
C1380 C1374 1.368 . S
C1380 C1379 1.523 . S
C1381 C1365 1.429 . S
C1381 C1377 1.429 . S
C1381 C1382 1.523 . S
C1382 C1366 1.368 . S
C1382 C1378 1.368 . S
C1382 C1381 1.523 . S
H1383 C1358 0.950 . S
H1384 C1360 0.950 . S
H1385 C1361 0.949 . S
H1386 C1363 0.950 . S
H1387 C1365 0.950 . S
C1388 C1389 1.349 . S
C1388 C1390 1.327 . S
C1388 H1413 0.950 . S
C1389 C1388 1.349 . S
C1389 C1405 1.349 . S
C1390 C1388 1.327 . S
C1390 C1409 1.429 . S
C1390 H1414 0.950 . S
C1391 C1408 1.574 . S
C1391 C1410 1.368 . S
C1391 H1415 0.949 . S
H1392 C1396 0.949 . S
C1393 C1394 1.349 . S
C1393 C1395 1.327 . S
C1393 H1416 0.950 . S
C1394 C1393 1.349 . S
C1394 C1406 1.349 . S
C1395 C1393 1.327 . S
C1395 C1411 1.429 . S
C1395 H1417 0.950 . S
C1396 H1392 0.949 . S
C1396 C1404 1.574 . S
C1396 C1412 1.368 . S
H1397 C1405 0.950 . S
H1398 C1403 0.950 . S
H1399 C1404 0.949 . S
H1400 C1406 0.950 . S
H1401 C1407 0.950 . S
H1402 C1408 0.949 . S
C1403 H1398 0.950 . S
C1403 C1405 1.327 . S
C1403 C1409 1.429 . S
C1404 C1396 1.574 . S
C1404 H1399 0.949 . S
C1404 C1410 1.368 . S
C1405 C1389 1.349 . S
C1405 H1397 0.950 . S
C1405 C1403 1.327 . S
C1406 C1394 1.349 . S
C1406 H1400 0.950 . S
C1406 C1407 1.327 . S
C1407 H1401 0.950 . S
C1407 C1406 1.327 . S
C1407 C1411 1.429 . S
C1408 C1391 1.574 . S
C1408 H1402 0.949 . S
C1408 C1412 1.368 . S
C1409 C1390 1.429 . S
C1409 C1403 1.429 . S
C1409 C1410 1.523 . S
C1410 C1391 1.368 . S
C1410 C1404 1.368 . S
C1410 C1409 1.523 . S
C1411 C1395 1.429 . S
C1411 C1407 1.429 . S
C1411 C1412 1.523 . S
C1412 C1396 1.368 . S
C1412 C1408 1.368 . S
C1412 C1411 1.523 . S
H1413 C1388 0.950 . S
H1414 C1390 0.950 . S
H1415 C1391 0.949 . S
H1416 C1393 0.950 . S
H1417 C1395 0.950 . S
C1418 C1419 1.349 . S
C1418 C1420 1.327 . S
C1418 H1443 0.950 . S
C1419 C1418 1.349 . S
C1419 C1435 1.349 . S
C1420 C1418 1.327 . S
C1420 C1439 1.429 . S
C1420 H1444 0.950 . S
C1421 C1438 1.574 . S
C1421 C1440 1.368 . S
C1421 H1445 0.949 . S
H1422 C1426 0.949 . S
C1423 C1424 1.349 . S
C1423 C1425 1.327 . S
C1423 H1446 0.950 . S
C1424 C1423 1.349 . S
C1424 C1436 1.349 . S
C1425 C1423 1.327 . S
C1425 C1441 1.429 . S
C1425 H1447 0.950 . S
C1426 H1422 0.949 . S
C1426 C1434 1.574 . S
C1426 C1442 1.368 . S
H1427 C1435 0.950 . S
H1428 C1433 0.950 . S
H1429 C1434 0.949 . S
H1430 C1436 0.950 . S
H1431 C1437 0.950 . S
H1432 C1438 0.949 . S
C1433 H1428 0.950 . S
C1433 C1435 1.327 . S
C1433 C1439 1.429 . S
C1434 C1426 1.574 . S
C1434 H1429 0.949 . S
C1434 C1440 1.368 . S
C1435 C1419 1.349 . S
C1435 H1427 0.950 . S
C1435 C1433 1.327 . S
C1436 C1424 1.349 . S
C1436 H1430 0.950 . S
C1436 C1437 1.327 . S
C1437 H1431 0.950 . S
C1437 C1436 1.327 . S
C1437 C1441 1.429 . S
C1438 C1421 1.574 . S
C1438 H1432 0.949 . S
C1438 C1442 1.368 . S
C1439 C1420 1.429 . S
C1439 C1433 1.429 . S
C1439 C1440 1.523 . S
C1440 C1421 1.368 . S
C1440 C1434 1.368 . S
C1440 C1439 1.523 . S
C1441 C1425 1.429 . S
C1441 C1437 1.429 . S
C1441 C1442 1.523 . S
C1442 C1426 1.368 . S
C1442 C1438 1.368 . S
C1442 C1441 1.523 . S
H1443 C1418 0.950 . S
H1444 C1420 0.950 . S
H1445 C1421 0.949 . S
H1446 C1423 0.950 . S
H1447 C1425 0.950 . S
C1448 C1449 1.349 . S
C1448 C1450 1.327 . S
C1448 H1473 0.950 . S
C1449 C1448 1.349 . S
C1449 C1465 1.349 . S
C1450 C1448 1.327 . S
C1450 C1469 1.429 . S
C1450 H1474 0.950 . S
C1451 C1468 1.574 . S
C1451 C1470 1.368 . S
C1451 H1475 0.949 . S
H1452 C1456 0.949 . S
C1453 C1454 1.349 . S
C1453 C1455 1.327 . S
C1453 H1476 0.950 . S
C1454 C1453 1.349 . S
C1454 C1466 1.349 . S
C1455 C1453 1.327 . S
C1455 C1471 1.429 . S
C1455 H1477 0.950 . S
C1456 H1452 0.949 . S
C1456 C1464 1.574 . S
C1456 C1472 1.368 . S
H1457 C1465 0.950 . S
H1458 C1463 0.950 . S
H1459 C1464 0.949 . S
H1460 C1466 0.950 . S
H1461 C1467 0.950 . S
H1462 C1468 0.949 . S
C1463 H1458 0.950 . S
C1463 C1465 1.327 . S
C1463 C1469 1.429 . S
C1464 C1456 1.574 . S
C1464 H1459 0.949 . S
C1464 C1470 1.368 . S
C1465 C1449 1.349 . S
C1465 H1457 0.950 . S
C1465 C1463 1.327 . S
C1466 C1454 1.349 . S
C1466 H1460 0.950 . S
C1466 C1467 1.327 . S
C1467 H1461 0.950 . S
C1467 C1466 1.327 . S
C1467 C1471 1.429 . S
C1468 C1451 1.574 . S
C1468 H1462 0.949 . S
C1468 C1472 1.368 . S
C1469 C1450 1.429 . S
C1469 C1463 1.429 . S
C1469 C1470 1.523 . S
C1470 C1451 1.368 . S
C1470 C1464 1.368 . S
C1470 C1469 1.523 . S
C1471 C1455 1.429 . S
C1471 C1467 1.429 . S
C1471 C1472 1.523 . S
C1472 C1456 1.368 . S
C1472 C1468 1.368 . S
C1472 C1471 1.523 . S
H1473 C1448 0.950 . S
H1474 C1450 0.950 . S
H1475 C1451 0.949 . S
H1476 C1453 0.950 . S
H1477 C1455 0.950 . S
C1478 C1479 1.349 . S
C1478 C1480 1.327 . S
C1478 H1503 0.950 . S
C1479 C1478 1.349 . S
C1479 C1495 1.349 . S
C1480 C1478 1.327 . S
C1480 C1499 1.429 . S
C1480 H1504 0.950 . S
C1481 C1498 1.574 . S
C1481 C1500 1.368 . S
C1481 H1505 0.949 . S
H1482 C1486 0.949 . S
C1483 C1484 1.349 . S
C1483 C1485 1.327 . S
C1483 H1506 0.950 . S
C1484 C1483 1.349 . S
C1484 C1496 1.349 . S
C1485 C1483 1.327 . S
C1485 C1501 1.429 . S
C1485 H1507 0.950 . S
C1486 H1482 0.949 . S
C1486 C1494 1.574 . S
C1486 C1502 1.368 . S
H1487 C1495 0.950 . S
H1488 C1493 0.950 . S
H1489 C1494 0.949 . S
H1490 C1496 0.950 . S
H1491 C1497 0.950 . S
H1492 C1498 0.949 . S
C1493 H1488 0.950 . S
C1493 C1495 1.327 . S
C1493 C1499 1.429 . S
C1494 C1486 1.574 . S
C1494 H1489 0.949 . S
C1494 C1500 1.368 . S
C1495 C1479 1.349 . S
C1495 H1487 0.950 . S
C1495 C1493 1.327 . S
C1496 C1484 1.349 . S
C1496 H1490 0.950 . S
C1496 C1497 1.327 . S
C1497 H1491 0.950 . S
C1497 C1496 1.327 . S
C1497 C1501 1.429 . S
C1498 C1481 1.574 . S
C1498 H1492 0.949 . S
C1498 C1502 1.368 . S
C1499 C1480 1.429 . S
C1499 C1493 1.429 . S
C1499 C1500 1.523 . S
C1500 C1481 1.368 . S
C1500 C1494 1.368 . S
C1500 C1499 1.523 . S
C1501 C1485 1.429 . S
C1501 C1497 1.429 . S
C1501 C1502 1.523 . S
C1502 C1486 1.368 . S
C1502 C1498 1.368 . S
C1502 C1501 1.523 . S
H1503 C1478 0.950 . S
H1504 C1480 0.950 . S
H1505 C1481 0.949 . S
H1506 C1483 0.950 . S
H1507 C1485 0.950 . S
C1508 C1509 1.349 . S
C1508 C1510 1.327 . S
C1508 H1533 0.950 . S
C1509 C1508 1.349 . S
C1509 C1525 1.349 . S
C1510 C1508 1.327 . S
C1510 C1529 1.429 . S
C1510 H1534 0.950 . S
C1511 C1528 1.574 . S
C1511 C1530 1.368 . S
C1511 H1535 0.949 . S
H1512 C1516 0.949 . S
C1513 C1514 1.349 . S
C1513 C1515 1.327 . S
C1513 H1536 0.950 . S
C1514 C1513 1.349 . S
C1514 C1526 1.349 . S
C1515 C1513 1.327 . S
C1515 C1531 1.429 . S
C1515 H1537 0.950 . S
C1516 H1512 0.949 . S
C1516 C1524 1.574 . S
C1516 C1532 1.368 . S
H1517 C1525 0.950 . S
H1518 C1523 0.950 . S
H1519 C1524 0.949 . S
H1520 C1526 0.950 . S
H1521 C1527 0.950 . S
H1522 C1528 0.949 . S
C1523 H1518 0.950 . S
C1523 C1525 1.327 . S
C1523 C1529 1.429 . S
C1524 C1516 1.574 . S
C1524 H1519 0.949 . S
C1524 C1530 1.368 . S
C1525 C1509 1.349 . S
C1525 H1517 0.950 . S
C1525 C1523 1.327 . S
C1526 C1514 1.349 . S
C1526 H1520 0.950 . S
C1526 C1527 1.327 . S
C1527 H1521 0.950 . S
C1527 C1526 1.327 . S
C1527 C1531 1.429 . S
C1528 C1511 1.574 . S
C1528 H1522 0.949 . S
C1528 C1532 1.368 . S
C1529 C1510 1.429 . S
C1529 C1523 1.429 . S
C1529 C1530 1.523 . S
C1530 C1511 1.368 . S
C1530 C1524 1.368 . S
C1530 C1529 1.523 . S
C1531 C1515 1.429 . S
C1531 C1527 1.429 . S
C1531 C1532 1.523 . S
C1532 C1516 1.368 . S
C1532 C1528 1.368 . S
C1532 C1531 1.523 . S
H1533 C1508 0.950 . S
H1534 C1510 0.950 . S
H1535 C1511 0.949 . S
H1536 C1513 0.950 . S
H1537 C1515 0.950 . S
C1538 C1539 1.349 1_455 S
C1538 C1540 1.327 . S
C1538 H1563 0.950 . S
C1539 C1538 1.349 1_655 S
C1539 C1555 1.349 . S
C1540 C1538 1.327 . S
C1540 C1559 1.429 . S
C1540 H1564 0.950 . S
C1541 C1558 1.574 . S
C1541 C1560 1.368 . S
C1541 H1565 0.949 . S
H1542 C1546 0.949 . S
C1543 C1544 1.349 . S
C1543 C1545 1.327 . S
C1543 H1566 0.950 . S
C1544 C1543 1.349 . S
C1544 C1556 1.349 . S
C1545 C1543 1.327 . S
C1545 C1561 1.429 . S
C1545 H1567 0.950 . S
C1546 H1542 0.949 . S
C1546 C1554 1.574 . S
C1546 C1562 1.368 . S
H1547 C1555 0.950 . S
H1548 C1553 0.950 . S
H1549 C1554 0.949 . S
H1550 C1556 0.950 . S
H1551 C1557 0.950 . S
H1552 C1558 0.949 . S
C1553 H1548 0.950 . S
C1553 C1555 1.327 1_455 S
C1553 C1559 1.429 . S
C1554 C1546 1.574 . S
C1554 H1549 0.949 . S
C1554 C1560 1.368 . S
C1555 C1539 1.349 . S
C1555 H1547 0.950 . S
C1555 C1553 1.327 1_655 S
C1556 C1544 1.349 . S
C1556 H1550 0.950 . S
C1556 C1557 1.327 . S
C1557 H1551 0.950 . S
C1557 C1556 1.327 . S
C1557 C1561 1.429 . S
C1558 C1541 1.574 . S
C1558 H1552 0.949 . S
C1558 C1562 1.368 . S
C1559 C1540 1.429 . S
C1559 C1553 1.429 . S
C1559 C1560 1.523 . S
C1560 C1541 1.368 . S
C1560 C1554 1.368 . S
C1560 C1559 1.523 . S
C1561 C1545 1.429 . S
C1561 C1557 1.429 . S
C1561 C1562 1.523 . S
C1562 C1546 1.368 . S
C1562 C1558 1.368 . S
C1562 C1561 1.523 . S
H1563 C1538 0.950 . S
H1564 C1540 0.950 . S
H1565 C1541 0.949 . S
H1566 C1543 0.950 . S
H1567 C1545 0.950 . S
C1568 C1569 1.349 . S
C1568 C1570 1.327 . S
C1568 H1593 0.950 . S
C1569 C1568 1.349 . S
C1569 C1585 1.349 . S
C1570 C1568 1.327 . S
C1570 C1589 1.429 . S
C1570 H1594 0.950 . S
C1571 C1588 1.574 . S
C1571 C1590 1.368 . S
C1571 H1595 0.949 . S
H1572 C1576 0.949 . S
C1573 C1574 1.349 . S
C1573 C1575 1.327 . S
C1573 H1596 0.950 . S
C1574 C1573 1.349 . S
C1574 C1586 1.349 . S
C1575 C1573 1.327 . S
C1575 C1591 1.429 . S
C1575 H1597 0.950 . S
C1576 H1572 0.949 . S
C1576 C1584 1.574 . S
C1576 C1592 1.368 . S
H1577 C1585 0.950 . S
H1578 C1583 0.950 . S
H1579 C1584 0.949 . S
H1580 C1586 0.950 . S
H1581 C1587 0.950 . S
H1582 C1588 0.949 . S
C1583 H1578 0.950 . S
C1583 C1585 1.327 . S
C1583 C1589 1.429 . S
C1584 C1576 1.574 . S
C1584 H1579 0.949 . S
C1584 C1590 1.368 . S
C1585 C1569 1.349 . S
C1585 H1577 0.950 . S
C1585 C1583 1.327 . S
C1586 C1574 1.349 . S
C1586 H1580 0.950 . S
C1586 C1587 1.327 . S
C1587 H1581 0.950 . S
C1587 C1586 1.327 . S
C1587 C1591 1.429 . S
C1588 C1571 1.574 . S
C1588 H1582 0.949 . S
C1588 C1592 1.368 . S
C1589 C1570 1.429 . S
C1589 C1583 1.429 . S
C1589 C1590 1.523 . S
C1590 C1571 1.368 . S
C1590 C1584 1.368 . S
C1590 C1589 1.523 . S
C1591 C1575 1.429 . S
C1591 C1587 1.429 . S
C1591 C1592 1.523 . S
C1592 C1576 1.368 . S
C1592 C1588 1.368 . S
C1592 C1591 1.523 . S
H1593 C1568 0.950 . S
H1594 C1570 0.950 . S
H1595 C1571 0.949 . S
H1596 C1573 0.950 . S
H1597 C1575 0.950 . S
C1598 C1599 1.349 . S
C1598 C1600 1.327 . S
C1598 H1623 0.950 . S
C1599 C1598 1.349 . S
C1599 C1615 1.349 . S
C1600 C1598 1.327 . S
C1600 C1619 1.429 . S
C1600 H1624 0.950 . S
C1601 C1618 1.574 . S
C1601 C1620 1.368 . S
C1601 H1625 0.949 . S
H1602 C1606 0.949 . S
C1603 C1604 1.349 . S
C1603 C1605 1.327 . S
C1603 H1626 0.950 . S
C1604 C1603 1.349 . S
C1604 C1616 1.349 . S
C1605 C1603 1.327 . S
C1605 C1621 1.429 . S
C1605 H1627 0.950 . S
C1606 H1602 0.949 . S
C1606 C1614 1.574 . S
C1606 C1622 1.368 . S
H1607 C1615 0.950 . S
H1608 C1613 0.950 . S
H1609 C1614 0.949 . S
H1610 C1616 0.950 . S
H1611 C1617 0.950 . S
H1612 C1618 0.949 . S
C1613 H1608 0.950 . S
C1613 C1615 1.327 . S
C1613 C1619 1.429 . S
C1614 C1606 1.574 . S
C1614 H1609 0.949 . S
C1614 C1620 1.368 . S
C1615 C1599 1.349 . S
C1615 H1607 0.950 . S
C1615 C1613 1.327 . S
C1616 C1604 1.349 . S
C1616 H1610 0.950 . S
C1616 C1617 1.327 . S
C1617 H1611 0.950 . S
C1617 C1616 1.327 . S
C1617 C1621 1.429 . S
C1618 C1601 1.574 . S
C1618 H1612 0.949 . S
C1618 C1622 1.368 . S
C1619 C1600 1.429 . S
C1619 C1613 1.429 . S
C1619 C1620 1.523 . S
C1620 C1601 1.368 . S
C1620 C1614 1.368 . S
C1620 C1619 1.523 . S
C1621 C1605 1.429 . S
C1621 C1617 1.429 . S
C1621 C1622 1.523 . S
C1622 C1606 1.368 . S
C1622 C1618 1.368 . S
C1622 C1621 1.523 . S
H1623 C1598 0.950 . S
H1624 C1600 0.950 . S
H1625 C1601 0.949 . S
H1626 C1603 0.950 . S
H1627 C1605 0.950 . S
C1628 C1629 1.349 . S
C1628 C1630 1.327 . S
C1628 H1653 0.950 . S
C1629 C1628 1.349 . S
C1629 C1645 1.349 . S
C1630 C1628 1.327 . S
C1630 C1649 1.429 . S
C1630 H1654 0.950 . S
C1631 C1648 1.574 . S
C1631 C1650 1.368 . S
C1631 H1655 0.949 . S
H1632 C1636 0.949 . S
C1633 C1634 1.349 . S
C1633 C1635 1.327 . S
C1633 H1656 0.950 . S
C1634 C1633 1.349 . S
C1634 C1646 1.349 . S
C1635 C1633 1.327 . S
C1635 C1651 1.429 . S
C1635 H1657 0.950 . S
C1636 H1632 0.949 . S
C1636 C1644 1.574 . S
C1636 C1652 1.368 . S
H1637 C1645 0.950 . S
H1638 C1643 0.950 . S
H1639 C1644 0.949 . S
H1640 C1646 0.950 . S
H1641 C1647 0.950 . S
H1642 C1648 0.949 . S
C1643 H1638 0.950 . S
C1643 C1645 1.327 . S
C1643 C1649 1.429 . S
C1644 C1636 1.574 . S
C1644 H1639 0.949 . S
C1644 C1650 1.368 . S
C1645 C1629 1.349 . S
C1645 H1637 0.950 . S
C1645 C1643 1.327 . S
C1646 C1634 1.349 . S
C1646 H1640 0.950 . S
C1646 C1647 1.327 . S
C1647 H1641 0.950 . S
C1647 C1646 1.327 . S
C1647 C1651 1.429 . S
C1648 C1631 1.574 . S
C1648 H1642 0.949 . S
C1648 C1652 1.368 . S
C1649 C1630 1.429 . S
C1649 C1643 1.429 . S
C1649 C1650 1.523 . S
C1650 C1631 1.368 . S
C1650 C1644 1.368 . S
C1650 C1649 1.523 . S
C1651 C1635 1.429 . S
C1651 C1647 1.429 . S
C1651 C1652 1.523 . S
C1652 C1636 1.368 . S
C1652 C1648 1.368 . S
C1652 C1651 1.523 . S
H1653 C1628 0.950 . S
H1654 C1630 0.950 . S
H1655 C1631 0.949 . S
H1656 C1633 0.950 . S
H1657 C1635 0.950 . S
C1658 C1659 1.349 1_455 S
C1658 C1660 1.327 . S
C1658 H1683 0.950 1_455 S
C1659 C1658 1.349 1_655 S
C1659 C1675 1.349 1_655 S
C1660 C1658 1.327 . S
C1660 C1679 1.429 . S
C1660 H1684 0.950 . S
C1661 C1678 1.574 . S
C1661 C1680 1.368 . S
C1661 H1685 0.949 . S
H1662 C1666 0.949 . S
C1663 C1664 1.349 . S
C1663 C1665 1.327 . S
C1663 H1686 0.950 . S
C1664 C1663 1.349 . S
C1664 C1676 1.349 . S
C1665 C1663 1.327 . S
C1665 C1681 1.429 . S
C1665 H1687 0.950 . S
C1666 H1662 0.949 . S
C1666 C1674 1.574 . S
C1666 C1682 1.368 . S
H1667 C1675 0.950 1_655 S
H1668 C1673 0.950 . S
H1669 C1674 0.949 . S
H1670 C1676 0.950 . S
H1671 C1677 0.950 . S
H1672 C1678 0.949 . S
C1673 H1668 0.950 . S
C1673 C1675 1.327 . S
C1673 C1679 1.429 . S
C1674 C1666 1.574 . S
C1674 H1669 0.949 . S
C1674 C1680 1.368 . S
C1675 C1659 1.349 1_455 S
C1675 H1667 0.950 1_455 S
C1675 C1673 1.327 . S
C1676 C1664 1.349 . S
C1676 H1670 0.950 . S
C1676 C1677 1.327 . S
C1677 H1671 0.950 . S
C1677 C1676 1.327 . S
C1677 C1681 1.429 . S
C1678 C1661 1.574 . S
C1678 H1672 0.949 . S
C1678 C1682 1.368 . S
C1679 C1660 1.429 . S
C1679 C1673 1.429 . S
C1679 C1680 1.523 . S
C1680 C1661 1.368 . S
C1680 C1674 1.368 . S
C1680 C1679 1.523 . S
C1681 C1665 1.429 . S
C1681 C1677 1.429 . S
C1681 C1682 1.523 . S
C1682 C1666 1.368 . S
C1682 C1678 1.368 . S
C1682 C1681 1.523 . S
H1683 C1658 0.950 1_655 S
H1684 C1660 0.950 . S
H1685 C1661 0.949 . S
H1686 C1663 0.950 . S
H1687 C1665 0.950 . S
C1688 C1689 1.349 . S
C1688 C1690 1.327 . S
C1688 H1713 0.950 . S
C1689 C1688 1.349 . S
C1689 C1705 1.349 . S
C1690 C1688 1.327 . S
C1690 C1709 1.429 . S
C1690 H1714 0.950 . S
C1691 C1708 1.574 . S
C1691 C1710 1.368 . S
C1691 H1715 0.949 . S
H1692 C1696 0.949 . S
C1693 C1694 1.349 . S
C1693 C1695 1.327 . S
C1693 H1716 0.950 . S
C1694 C1693 1.349 . S
C1694 C1706 1.349 . S
C1695 C1693 1.327 . S
C1695 C1711 1.429 . S
C1695 H1717 0.950 . S
C1696 H1692 0.949 . S
C1696 C1704 1.574 . S
C1696 C1712 1.368 . S
H1697 C1705 0.950 . S
H1698 C1703 0.950 . S
H1699 C1704 0.949 . S
H1700 C1706 0.950 . S
H1701 C1707 0.950 . S
H1702 C1708 0.949 . S
C1703 H1698 0.950 . S
C1703 C1705 1.327 . S
C1703 C1709 1.429 . S
C1704 C1696 1.574 . S
C1704 H1699 0.949 . S
C1704 C1710 1.368 . S
C1705 C1689 1.349 . S
C1705 H1697 0.950 . S
C1705 C1703 1.327 . S
C1706 C1694 1.349 . S
C1706 H1700 0.950 . S
C1706 C1707 1.327 . S
C1707 H1701 0.950 . S
C1707 C1706 1.327 . S
C1707 C1711 1.429 . S
C1708 C1691 1.574 . S
C1708 H1702 0.949 . S
C1708 C1712 1.368 . S
C1709 C1690 1.429 . S
C1709 C1703 1.429 . S
C1709 C1710 1.523 . S
C1710 C1691 1.368 . S
C1710 C1704 1.368 . S
C1710 C1709 1.523 . S
C1711 C1695 1.429 . S
C1711 C1707 1.429 . S
C1711 C1712 1.523 . S
C1712 C1696 1.368 . S
C1712 C1708 1.368 . S
C1712 C1711 1.523 . S
H1713 C1688 0.950 . S
H1714 C1690 0.950 . S
H1715 C1691 0.949 . S
H1716 C1693 0.950 . S
H1717 C1695 0.950 . S
C1718 C1719 1.349 . S
C1718 C1720 1.327 . S
C1718 H1743 0.950 . S
C1719 C1718 1.349 . S
C1719 C1735 1.349 . S
C1720 C1718 1.327 . S
C1720 C1739 1.429 . S
C1720 H1744 0.950 . S
C1721 C1738 1.574 . S
C1721 C1740 1.368 . S
C1721 H1745 0.949 . S
H1722 C1726 0.949 . S
C1723 C1724 1.349 1_455 S
C1723 C1725 1.327 . S
C1723 H1746 0.950 . S
C1724 C1723 1.349 1_655 S
C1724 C1736 1.349 . S
C1725 C1723 1.327 . S
C1725 C1741 1.429 . S
C1725 H1747 0.950 . S
C1726 H1722 0.949 . S
C1726 C1734 1.574 . S
C1726 C1742 1.368 . S
H1727 C1735 0.950 . S
H1728 C1733 0.950 . S
H1729 C1734 0.949 . S
H1730 C1736 0.950 . S
H1731 C1737 0.950 . S
H1732 C1738 0.949 . S
C1733 H1728 0.950 . S
C1733 C1735 1.327 . S
C1733 C1739 1.429 . S
C1734 C1726 1.574 . S
C1734 H1729 0.949 . S
C1734 C1740 1.368 . S
C1735 C1719 1.349 . S
C1735 H1727 0.950 . S
C1735 C1733 1.327 . S
C1736 C1724 1.349 . S
C1736 H1730 0.950 . S
C1736 C1737 1.327 1_655 S
C1737 H1731 0.950 . S
C1737 C1736 1.327 1_455 S
C1737 C1741 1.429 . S
C1738 C1721 1.574 . S
C1738 H1732 0.949 . S
C1738 C1742 1.368 . S
C1739 C1720 1.429 . S
C1739 C1733 1.429 . S
C1739 C1740 1.523 . S
C1740 C1721 1.368 . S
C1740 C1734 1.368 . S
C1740 C1739 1.523 . S
C1741 C1725 1.429 . S
C1741 C1737 1.429 . S
C1741 C1742 1.523 . S
C1742 C1726 1.368 . S
C1742 C1738 1.368 . S
C1742 C1741 1.523 . S
H1743 C1718 0.950 . S
H1744 C1720 0.950 . S
H1745 C1721 0.949 . S
H1746 C1723 0.950 . S
H1747 C1725 0.950 . S
C1748 C1749 1.349 . S
C1748 C1750 1.327 . S
C1748 H1773 0.950 . S
C1749 C1748 1.349 . S
C1749 C1765 1.349 . S
C1750 C1748 1.327 . S
C1750 C1769 1.429 . S
C1750 H1774 0.950 . S
C1751 C1768 1.574 . S
C1751 C1770 1.368 . S
C1751 H1775 0.949 . S
H1752 C1756 0.949 . S
C1753 C1754 1.349 . S
C1753 C1755 1.327 . S
C1753 H1776 0.950 . S
C1754 C1753 1.349 . S
C1754 C1766 1.349 . S
C1755 C1753 1.327 . S
C1755 C1771 1.429 . S
C1755 H1777 0.950 . S
C1756 H1752 0.949 . S
C1756 C1764 1.574 . S
C1756 C1772 1.368 . S
H1757 C1765 0.950 . S
H1758 C1763 0.950 . S
H1759 C1764 0.949 . S
H1760 C1766 0.950 . S
H1761 C1767 0.950 . S
H1762 C1768 0.949 . S
C1763 H1758 0.950 . S
C1763 C1765 1.327 . S
C1763 C1769 1.429 . S
C1764 C1756 1.574 . S
C1764 H1759 0.949 . S
C1764 C1770 1.368 . S
C1765 C1749 1.349 . S
C1765 H1757 0.950 . S
C1765 C1763 1.327 . S
C1766 C1754 1.349 . S
C1766 H1760 0.950 . S
C1766 C1767 1.327 . S
C1767 H1761 0.950 . S
C1767 C1766 1.327 . S
C1767 C1771 1.429 . S
C1768 C1751 1.574 . S
C1768 H1762 0.949 . S
C1768 C1772 1.368 . S
C1769 C1750 1.429 . S
C1769 C1763 1.429 . S
C1769 C1770 1.523 . S
C1770 C1751 1.368 . S
C1770 C1764 1.368 . S
C1770 C1769 1.523 . S
C1771 C1755 1.429 . S
C1771 C1767 1.429 . S
C1771 C1772 1.523 . S
C1772 C1756 1.368 . S
C1772 C1768 1.368 . S
C1772 C1771 1.523 . S
H1773 C1748 0.950 . S
H1774 C1750 0.950 . S
H1775 C1751 0.949 . S
H1776 C1753 0.950 . S
H1777 C1755 0.950 . S
C1778 C1779 1.349 . S
C1778 C1780 1.327 . S
C1778 H1803 0.950 . S
C1779 C1778 1.349 . S
C1779 C1795 1.349 . S
C1780 C1778 1.327 . S
C1780 C1799 1.429 . S
C1780 H1804 0.950 . S
C1781 C1798 1.574 . S
C1781 C1800 1.368 . S
C1781 H1805 0.949 . S
H1782 C1786 0.949 . S
C1783 C1784 1.349 . S
C1783 C1785 1.327 . S
C1783 H1806 0.950 . S
C1784 C1783 1.349 . S
C1784 C1796 1.349 . S
C1785 C1783 1.327 . S
C1785 C1801 1.429 . S
C1785 H1807 0.950 . S
C1786 H1782 0.949 . S
C1786 C1794 1.574 . S
C1786 C1802 1.368 . S
H1787 C1795 0.950 . S
H1788 C1793 0.950 . S
H1789 C1794 0.949 . S
H1790 C1796 0.950 . S
H1791 C1797 0.950 . S
H1792 C1798 0.949 . S
C1793 H1788 0.950 . S
C1793 C1795 1.327 . S
C1793 C1799 1.429 . S
C1794 C1786 1.574 . S
C1794 H1789 0.949 . S
C1794 C1800 1.368 . S
C1795 C1779 1.349 . S
C1795 H1787 0.950 . S
C1795 C1793 1.327 . S
C1796 C1784 1.349 . S
C1796 H1790 0.950 . S
C1796 C1797 1.327 . S
C1797 H1791 0.950 . S
C1797 C1796 1.327 . S
C1797 C1801 1.429 . S
C1798 C1781 1.574 . S
C1798 H1792 0.949 . S
C1798 C1802 1.368 . S
C1799 C1780 1.429 . S
C1799 C1793 1.429 . S
C1799 C1800 1.523 . S
C1800 C1781 1.368 . S
C1800 C1794 1.368 . S
C1800 C1799 1.523 . S
C1801 C1785 1.429 . S
C1801 C1797 1.429 . S
C1801 C1802 1.523 . S
C1802 C1786 1.368 . S
C1802 C1798 1.368 . S
C1802 C1801 1.523 . S
H1803 C1778 0.950 . S
H1804 C1780 0.950 . S
H1805 C1781 0.949 . S
H1806 C1783 0.950 . S
H1807 C1785 0.950 . S
C1808 C1809 1.349 . S
C1808 C1810 1.327 . S
C1808 H1833 0.950 . S
C1809 C1808 1.349 . S
C1809 C1825 1.349 . S
C1810 C1808 1.327 . S
C1810 C1829 1.429 . S
C1810 H1834 0.950 . S
C1811 C1828 1.574 . S
C1811 C1830 1.368 . S
C1811 H1835 0.949 . S
H1812 C1816 0.949 . S
C1813 C1814 1.349 . S
C1813 C1815 1.327 . S
C1813 H1836 0.950 . S
C1814 C1813 1.349 . S
C1814 C1826 1.349 . S
C1815 C1813 1.327 . S
C1815 C1831 1.429 . S
C1815 H1837 0.950 . S
C1816 H1812 0.949 . S
C1816 C1824 1.574 . S
C1816 C1832 1.368 . S
H1817 C1825 0.950 . S
H1818 C1823 0.950 . S
H1819 C1824 0.949 . S
H1820 C1826 0.950 . S
H1821 C1827 0.950 . S
H1822 C1828 0.949 . S
C1823 H1818 0.950 . S
C1823 C1825 1.327 . S
C1823 C1829 1.429 . S
C1824 C1816 1.574 . S
C1824 H1819 0.949 . S
C1824 C1830 1.368 . S
C1825 C1809 1.349 . S
C1825 H1817 0.950 . S
C1825 C1823 1.327 . S
C1826 C1814 1.349 . S
C1826 H1820 0.950 . S
C1826 C1827 1.327 . S
C1827 H1821 0.950 . S
C1827 C1826 1.327 . S
C1827 C1831 1.429 . S
C1828 C1811 1.574 . S
C1828 H1822 0.949 . S
C1828 C1832 1.368 . S
C1829 C1810 1.429 . S
C1829 C1823 1.429 . S
C1829 C1830 1.523 . S
C1830 C1811 1.368 . S
C1830 C1824 1.368 . S
C1830 C1829 1.523 . S
C1831 C1815 1.429 . S
C1831 C1827 1.429 . S
C1831 C1832 1.523 . S
C1832 C1816 1.368 . S
C1832 C1828 1.368 . S
C1832 C1831 1.523 . S
H1833 C1808 0.950 . S
H1834 C1810 0.950 . S
H1835 C1811 0.949 . S
H1836 C1813 0.950 . S
H1837 C1815 0.950 . S
C1838 C1839 1.349 . S
C1838 C1840 1.327 . S
C1838 H1863 0.950 . S
C1839 C1838 1.349 . S
C1839 C1855 1.349 . S
C1840 C1838 1.327 . S
C1840 C1859 1.429 . S
C1840 H1864 0.950 . S
C1841 C1858 1.574 . S
C1841 C1860 1.368 . S
C1841 H1865 0.949 . S
H1842 C1846 0.949 . S
C1843 C1844 1.349 . S
C1843 C1845 1.327 . S
C1843 H1866 0.950 . S
C1844 C1843 1.349 . S
C1844 C1856 1.349 . S
C1845 C1843 1.327 . S
C1845 C1861 1.429 . S
C1845 H1867 0.950 . S
C1846 H1842 0.949 . S
C1846 C1854 1.574 . S
C1846 C1862 1.368 . S
H1847 C1855 0.950 . S
H1848 C1853 0.950 . S
H1849 C1854 0.949 . S
H1850 C1856 0.950 . S
H1851 C1857 0.950 . S
H1852 C1858 0.949 . S
C1853 H1848 0.950 . S
C1853 C1855 1.327 . S
C1853 C1859 1.429 . S
C1854 C1846 1.574 . S
C1854 H1849 0.949 . S
C1854 C1860 1.368 . S
C1855 C1839 1.349 . S
C1855 H1847 0.950 . S
C1855 C1853 1.327 . S
C1856 C1844 1.349 . S
C1856 H1850 0.950 . S
C1856 C1857 1.327 . S
C1857 H1851 0.950 . S
C1857 C1856 1.327 . S
C1857 C1861 1.429 . S
C1858 C1841 1.574 . S
C1858 H1852 0.949 . S
C1858 C1862 1.368 . S
C1859 C1840 1.429 . S
C1859 C1853 1.429 . S
C1859 C1860 1.523 . S
C1860 C1841 1.368 . S
C1860 C1854 1.368 . S
C1860 C1859 1.523 . S
C1861 C1845 1.429 . S
C1861 C1857 1.429 . S
C1861 C1862 1.523 . S
C1862 C1846 1.368 . S
C1862 C1858 1.368 . S
C1862 C1861 1.523 . S
H1863 C1838 0.950 . S
H1864 C1840 0.950 . S
H1865 C1841 0.949 . S
H1866 C1843 0.950 . S
H1867 C1845 0.950 . S
C1868 C1869 1.349 . S
C1868 C1870 1.327 . S
C1868 H1893 0.950 . S
C1869 C1868 1.349 . S
C1869 C1885 1.349 . S
C1870 C1868 1.327 . S
C1870 C1889 1.429 . S
C1870 H1894 0.950 . S
C1871 C1888 1.574 . S
C1871 C1890 1.368 . S
C1871 H1895 0.949 . S
H1872 C1876 0.949 . S
C1873 C1874 1.349 . S
C1873 C1875 1.327 . S
C1873 H1896 0.950 . S
C1874 C1873 1.349 . S
C1874 C1886 1.349 . S
C1875 C1873 1.327 . S
C1875 C1891 1.429 . S
C1875 H1897 0.950 . S
C1876 H1872 0.949 . S
C1876 C1884 1.574 . S
C1876 C1892 1.368 . S
H1877 C1885 0.950 . S
H1878 C1883 0.950 . S
H1879 C1884 0.949 . S
H1880 C1886 0.950 . S
H1881 C1887 0.950 . S
H1882 C1888 0.949 . S
C1883 H1878 0.950 . S
C1883 C1885 1.327 . S
C1883 C1889 1.429 . S
C1884 C1876 1.574 . S
C1884 H1879 0.949 . S
C1884 C1890 1.368 . S
C1885 C1869 1.349 . S
C1885 H1877 0.950 . S
C1885 C1883 1.327 . S
C1886 C1874 1.349 . S
C1886 H1880 0.950 . S
C1886 C1887 1.327 . S
C1887 H1881 0.950 . S
C1887 C1886 1.327 . S
C1887 C1891 1.429 . S
C1888 C1871 1.574 . S
C1888 H1882 0.949 . S
C1888 C1892 1.368 . S
C1889 C1870 1.429 . S
C1889 C1883 1.429 . S
C1889 C1890 1.523 . S
C1890 C1871 1.368 . S
C1890 C1884 1.368 . S
C1890 C1889 1.523 . S
C1891 C1875 1.429 . S
C1891 C1887 1.429 . S
C1891 C1892 1.523 . S
C1892 C1876 1.368 . S
C1892 C1888 1.368 . S
C1892 C1891 1.523 . S
H1893 C1868 0.950 . S
H1894 C1870 0.950 . S
H1895 C1871 0.949 . S
H1896 C1873 0.950 . S
H1897 C1875 0.950 . S
C1898 C1899 1.349 . S
C1898 C1900 1.327 . S
C1898 H1923 0.950 . S
C1899 C1898 1.349 . S
C1899 C1915 1.349 . S
C1900 C1898 1.327 . S
C1900 C1919 1.429 . S
C1900 H1924 0.950 . S
C1901 C1918 1.574 . S
C1901 C1920 1.368 . S
C1901 H1925 0.949 . S
H1902 C1906 0.949 . S
C1903 C1904 1.349 . S
C1903 C1905 1.327 1_455 S
C1903 H1926 0.950 . S
C1904 C1903 1.349 . S
C1904 C1916 1.349 1_455 S
C1905 C1903 1.327 1_655 S
C1905 C1921 1.429 . S
C1905 H1927 0.950 . S
C1906 H1902 0.949 . S
C1906 C1914 1.574 . S
C1906 C1922 1.368 . S
H1907 C1915 0.950 . S
H1908 C1913 0.950 . S
H1909 C1914 0.949 . S
H1910 C1916 0.950 . S
H1911 C1917 0.950 . S
H1912 C1918 0.949 . S
C1913 H1908 0.950 . S
C1913 C1915 1.327 . S
C1913 C1919 1.429 . S
C1914 C1906 1.574 . S
C1914 H1909 0.949 . S
C1914 C1920 1.368 . S
C1915 C1899 1.349 . S
C1915 H1907 0.950 . S
C1915 C1913 1.327 . S
C1916 C1904 1.349 1_655 S
C1916 H1910 0.950 . S
C1916 C1917 1.327 . S
C1917 H1911 0.950 . S
C1917 C1916 1.327 . S
C1917 C1921 1.429 . S
C1918 C1901 1.574 . S
C1918 H1912 0.949 . S
C1918 C1922 1.368 . S
C1919 C1900 1.429 . S
C1919 C1913 1.429 . S
C1919 C1920 1.523 . S
C1920 C1901 1.368 . S
C1920 C1914 1.368 . S
C1920 C1919 1.523 . S
C1921 C1905 1.429 . S
C1921 C1917 1.429 . S
C1921 C1922 1.523 . S
C1922 C1906 1.368 . S
C1922 C1918 1.368 . S
C1922 C1921 1.523 . S
H1923 C1898 0.950 . S
H1924 C1900 0.950 . S
H1925 C1901 0.949 . S
H1926 C1903 0.950 . S
H1927 C1905 0.950 . S
C1928 C1929 1.349 . S
C1928 C1930 1.327 . S
C1928 H1953 0.950 . S
C1929 C1928 1.349 . S
C1929 C1945 1.349 . S
C1930 C1928 1.327 . S
C1930 C1949 1.429 . S
C1930 H1954 0.950 . S
C1931 C1948 1.574 . S
C1931 C1950 1.368 . S
C1931 H1955 0.949 . S
H1932 C1936 0.949 . S
C1933 C1934 1.349 . S
C1933 C1935 1.327 . S
C1933 H1956 0.950 . S
C1934 C1933 1.349 . S
C1934 C1946 1.349 . S
C1935 C1933 1.327 . S
C1935 C1951 1.429 . S
C1935 H1957 0.950 . S
C1936 H1932 0.949 . S
C1936 C1944 1.574 . S
C1936 C1952 1.368 . S
H1937 C1945 0.950 . S
H1938 C1943 0.950 . S
H1939 C1944 0.949 . S
H1940 C1946 0.950 . S
H1941 C1947 0.950 . S
H1942 C1948 0.949 . S
C1943 H1938 0.950 . S
C1943 C1945 1.327 . S
C1943 C1949 1.429 . S
C1944 C1936 1.574 . S
C1944 H1939 0.949 . S
C1944 C1950 1.368 . S
C1945 C1929 1.349 . S
C1945 H1937 0.950 . S
C1945 C1943 1.327 . S
C1946 C1934 1.349 . S
C1946 H1940 0.950 . S
C1946 C1947 1.327 . S
C1947 H1941 0.950 . S
C1947 C1946 1.327 . S
C1947 C1951 1.429 . S
C1948 C1931 1.574 . S
C1948 H1942 0.949 . S
C1948 C1952 1.368 . S
C1949 C1930 1.429 . S
C1949 C1943 1.429 . S
C1949 C1950 1.523 . S
C1950 C1931 1.368 . S
C1950 C1944 1.368 . S
C1950 C1949 1.523 . S
C1951 C1935 1.429 . S
C1951 C1947 1.429 . S
C1951 C1952 1.523 . S
C1952 C1936 1.368 . S
C1952 C1948 1.368 . S
C1952 C1951 1.523 . S
H1953 C1928 0.950 . S
H1954 C1930 0.950 . S
H1955 C1931 0.949 . S
H1956 C1933 0.950 . S
H1957 C1935 0.950 . S
C1958 C1959 1.349 . S
C1958 C1960 1.327 . S
C1958 H1983 0.950 . S
C1959 C1958 1.349 . S
C1959 C1975 1.349 . S
C1960 C1958 1.327 . S
C1960 C1979 1.429 . S
C1960 H1984 0.950 . S
C1961 C1978 1.574 . S
C1961 C1980 1.368 . S
C1961 H1985 0.949 . S
H1962 C1966 0.949 . S
C1963 C1964 1.349 . S
C1963 C1965 1.327 1_455 S
C1963 H1986 0.950 . S
C1964 C1963 1.349 . S
C1964 C1976 1.349 1_455 S
C1965 C1963 1.327 1_655 S
C1965 C1981 1.429 . S
C1965 H1987 0.950 . S
C1966 H1962 0.949 . S
C1966 C1974 1.574 . S
C1966 C1982 1.368 . S
H1967 C1975 0.950 . S
H1968 C1973 0.950 . S
H1969 C1974 0.949 . S
H1970 C1976 0.959 . S
H1971 C1977 0.950 . S
H1972 C1978 0.949 . S
C1973 H1968 0.950 . S
C1973 C1975 1.327 . S
C1973 C1979 1.429 . S
C1974 C1966 1.574 . S
C1974 H1969 0.949 . S
C1974 C1980 1.368 . S
C1975 C1959 1.349 . S
C1975 H1967 0.950 . S
C1975 C1973 1.327 . S
C1976 C1964 1.349 1_655 S
C1976 H1970 0.959 . S
C1976 C1977 1.327 . S
C1977 H1971 0.950 . S
C1977 C1976 1.327 . S
C1977 C1981 1.429 . S
C1978 C1961 1.574 . S
C1978 H1972 0.949 . S
C1978 C1982 1.368 . S
C1979 C1960 1.429 . S
C1979 C1973 1.429 . S
C1979 C1980 1.523 . S
C1980 C1961 1.368 . S
C1980 C1974 1.368 . S
C1980 C1979 1.523 . S
C1981 C1965 1.429 . S
C1981 C1977 1.429 . S
C1981 C1982 1.523 . S
C1982 C1966 1.368 . S
C1982 C1978 1.368 . S
C1982 C1981 1.523 . S
H1983 C1958 0.950 . S
H1984 C1960 0.950 . S
H1985 C1961 0.949 . S
H1986 C1963 0.950 . S
H1987 C1965 0.950 . S
C1988 C1989 1.349 . S
C1988 C1990 1.327 . S
C1988 H2013 0.950 . S
C1989 C1988 1.349 . S
C1989 C2005 1.349 . S
C1990 C1988 1.327 . S
C1990 C2009 1.429 . S
C1990 H2014 0.950 . S
C1991 C2008 1.574 . S
C1991 C2010 1.368 . S
C1991 H2015 0.949 . S
H1992 C1996 0.949 . S
C1993 C1994 1.349 . S
C1993 C1995 1.327 . S
C1993 H2016 0.950 . S
C1994 C1993 1.349 . S
C1994 C2006 1.349 . S
C1995 C1993 1.327 . S
C1995 C2011 1.429 . S
C1995 H2017 0.950 . S
C1996 H1992 0.949 . S
C1996 C2004 1.574 . S
C1996 C2012 1.368 . S
H1997 C2005 0.950 . S
H1998 C2003 0.950 . S
H1999 C2004 0.949 . S
H2000 C2006 0.950 . S
H2001 C2007 0.950 . S
H2002 C2008 0.949 . S
C2003 H1998 0.950 . S
C2003 C2005 1.327 . S
C2003 C2009 1.429 . S
C2004 C1996 1.574 . S
C2004 H1999 0.949 . S
C2004 C2010 1.368 . S
C2005 C1989 1.349 . S
C2005 H1997 0.950 . S
C2005 C2003 1.327 . S
C2006 C1994 1.349 . S
C2006 H2000 0.950 . S
C2006 C2007 1.327 . S
C2007 H2001 0.950 . S
C2007 C2006 1.327 . S
C2007 C2011 1.429 . S
C2008 C1991 1.574 . S
C2008 H2002 0.949 . S
C2008 C2012 1.368 . S
C2009 C1990 1.429 . S
C2009 C2003 1.429 . S
C2009 C2010 1.523 . S
C2010 C1991 1.368 . S
C2010 C2004 1.368 . S
C2010 C2009 1.523 . S
C2011 C1995 1.429 . S
C2011 C2007 1.429 . S
C2011 C2012 1.523 . S
C2012 C1996 1.368 . S
C2012 C2008 1.368 . S
C2012 C2011 1.523 . S
H2013 C1988 0.950 . S
H2014 C1990 0.950 . S
H2015 C1991 0.949 . S
H2016 C1993 0.950 . S
H2017 C1995 0.950 . S
C2018 C2019 1.349 . S
C2018 C2020 1.327 . S
C2018 H2043 0.950 . S
C2019 C2018 1.349 . S
C2019 C2035 1.349 . S
C2020 C2018 1.327 . S
C2020 C2039 1.429 . S
C2020 H2044 0.950 . S
C2021 C2038 1.574 . S
C2021 C2040 1.368 . S
C2021 H2045 0.949 . S
H2022 C2026 0.949 . S
C2023 C2024 1.349 . S
C2023 C2025 1.327 . S
C2023 H2046 0.950 . S
C2024 C2023 1.349 . S
C2024 C2036 1.349 . S
C2025 C2023 1.327 . S
C2025 C2041 1.429 . S
C2025 H2047 0.950 . S
C2026 H2022 0.949 . S
C2026 C2034 1.574 . S
C2026 C2042 1.368 . S
H2027 C2035 0.950 . S
H2028 C2033 0.950 . S
H2029 C2034 0.949 . S
H2030 C2036 0.950 . S
H2031 C2037 0.950 . S
H2032 C2038 0.949 . S
C2033 H2028 0.950 . S
C2033 C2035 1.327 . S
C2033 C2039 1.429 . S
C2034 C2026 1.574 . S
C2034 H2029 0.949 . S
C2034 C2040 1.368 . S
C2035 C2019 1.349 . S
C2035 H2027 0.950 . S
C2035 C2033 1.327 . S
C2036 C2024 1.349 . S
C2036 H2030 0.950 . S
C2036 C2037 1.327 . S
C2037 H2031 0.950 . S
C2037 C2036 1.327 . S
C2037 C2041 1.429 . S
C2038 C2021 1.574 . S
C2038 H2032 0.949 . S
C2038 C2042 1.368 . S
C2039 C2020 1.429 . S
C2039 C2033 1.429 . S
C2039 C2040 1.523 . S
C2040 C2021 1.368 . S
C2040 C2034 1.368 . S
C2040 C2039 1.523 . S
C2041 C2025 1.429 . S
C2041 C2037 1.429 . S
C2041 C2042 1.523 . S
C2042 C2026 1.368 . S
C2042 C2038 1.368 . S
C2042 C2041 1.523 . S
H2043 C2018 0.950 . S
H2044 C2020 0.950 . S
H2045 C2021 0.949 . S
H2046 C2023 0.950 . S
H2047 C2025 0.950 . S
C2048 C2049 1.349 . S
C2048 C2050 1.327 . S
C2048 H2073 0.950 . S
C2049 C2048 1.349 . S
C2049 C2065 1.349 . S
C2050 C2048 1.327 . S
C2050 C2069 1.429 . S
C2050 H2074 0.950 . S
C2051 C2068 1.574 . S
C2051 C2070 1.368 1_565 S
C2051 H2075 0.949 . S
H2052 C2056 0.949 . S
C2053 C2054 1.349 . S
C2053 C2055 1.327 . S
C2053 H2076 0.950 . S
C2054 C2053 1.349 . S
C2054 C2066 1.349 . S
C2055 C2053 1.327 . S
C2055 C2071 1.429 . S
C2055 H2077 0.950 . S
C2056 H2052 0.949 . S
C2056 C2064 1.574 . S
C2056 C2072 1.368 1_545 S
H2057 C2065 0.950 . S
H2058 C2063 0.950 . S
H2059 C2064 0.949 . S
H2060 C2066 0.950 . S
H2061 C2067 0.950 . S
H2062 C2068 0.949 . S
C2063 H2058 0.950 . S
C2063 C2065 1.327 . S
C2063 C2069 1.429 . S
C2064 C2056 1.574 . S
C2064 H2059 0.949 . S
C2064 C2070 1.368 . S
C2065 C2049 1.349 . S
C2065 H2057 0.950 . S
C2065 C2063 1.327 . S
C2066 C2054 1.349 . S
C2066 H2060 0.950 . S
C2066 C2067 1.327 . S
C2067 H2061 0.950 . S
C2067 C2066 1.327 . S
C2067 C2071 1.429 . S
C2068 C2051 1.574 . S
C2068 H2062 0.949 . S
C2068 C2072 1.368 . S
C2069 C2050 1.429 . S
C2069 C2063 1.429 . S
C2069 C2070 1.523 . S
C2070 C2051 1.368 1_545 S
C2070 C2064 1.368 . S
C2070 C2069 1.523 . S
C2071 C2055 1.429 . S
C2071 C2067 1.429 . S
C2071 C2072 1.523 . S
C2072 C2056 1.368 1_565 S
C2072 C2068 1.368 . S
C2072 C2071 1.523 . S
H2073 C2048 0.950 . S
H2074 C2050 0.950 . S
H2075 C2051 0.949 . S
H2076 C2053 0.950 . S
H2077 C2055 0.950 . S
C2078 C2079 1.349 . S
C2078 C2080 1.327 . S
C2078 H2103 0.950 . S
C2079 C2078 1.349 . S
C2079 C2095 1.349 . S
C2080 C2078 1.327 . S
C2080 C2099 1.429 . S
C2080 H2104 0.950 . S
C2081 C2098 1.574 . S
C2081 C2100 1.368 . S
C2081 H2105 0.949 . S
H2082 C2086 0.949 . S
C2083 C2084 1.349 . S
C2083 C2085 1.327 . S
C2083 H2106 0.950 . S
C2084 C2083 1.349 . S
C2084 C2096 1.349 . S
C2085 C2083 1.327 . S
C2085 C2101 1.429 . S
C2085 H2107 0.950 . S
C2086 H2082 0.949 . S
C2086 C2094 1.574 . S
C2086 C2102 1.368 . S
H2087 C2095 0.950 . S
H2088 C2093 0.950 . S
H2089 C2094 0.949 . S
H2090 C2096 0.950 . S
H2091 C2097 0.950 . S
H2092 C2098 0.949 . S
C2093 H2088 0.950 . S
C2093 C2095 1.327 . S
C2093 C2099 1.429 . S
C2094 C2086 1.574 . S
C2094 H2089 0.949 . S
C2094 C2100 1.368 . S
C2095 C2079 1.349 . S
C2095 H2087 0.950 . S
C2095 C2093 1.327 . S
C2096 C2084 1.349 . S
C2096 H2090 0.950 . S
C2096 C2097 1.327 . S
C2097 H2091 0.950 . S
C2097 C2096 1.327 . S
C2097 C2101 1.429 . S
C2098 C2081 1.574 . S
C2098 H2092 0.949 . S
C2098 C2102 1.368 . S
C2099 C2080 1.429 . S
C2099 C2093 1.429 . S
C2099 C2100 1.523 . S
C2100 C2081 1.368 . S
C2100 C2094 1.368 . S
C2100 C2099 1.523 . S
C2101 C2085 1.429 . S
C2101 C2097 1.429 . S
C2101 C2102 1.523 . S
C2102 C2086 1.368 . S
C2102 C2098 1.368 . S
C2102 C2101 1.523 . S
H2103 C2078 0.950 . S
H2104 C2080 0.950 . S
H2105 C2081 0.949 . S
H2106 C2083 0.950 . S
H2107 C2085 0.950 . S
C2108 C2109 1.349 . S
C2108 C2110 1.327 . S
C2108 H2133 0.950 . S
C2109 C2108 1.349 . S
C2109 C2125 1.349 . S
C2110 C2108 1.327 . S
C2110 C2129 1.429 . S
C2110 H2134 0.950 . S
C2111 C2128 1.574 . S
C2111 C2130 1.368 1_565 S
C2111 H2135 0.949 . S
H2112 C2116 0.949 . S
C2113 C2114 1.349 . S
C2113 C2115 1.327 . S
C2113 H2136 0.950 . S
C2114 C2113 1.349 . S
C2114 C2126 1.349 . S
C2115 C2113 1.327 . S
C2115 C2131 1.429 . S
C2115 H2137 0.950 . S
C2116 H2112 0.949 . S
C2116 C2124 1.574 . S
C2116 C2132 1.368 1_545 S
H2117 C2125 0.950 . S
H2118 C2123 0.950 . S
H2119 C2124 0.949 . S
H2120 C2126 0.950 . S
H2121 C2127 0.950 . S
H2122 C2128 0.949 . S
C2123 H2118 0.950 . S
C2123 C2125 1.327 . S
C2123 C2129 1.429 . S
C2124 C2116 1.574 . S
C2124 H2119 0.949 . S
C2124 C2130 1.368 . S
C2125 C2109 1.349 . S
C2125 H2117 0.950 . S
C2125 C2123 1.327 . S
C2126 C2114 1.349 . S
C2126 H2120 0.950 . S
C2126 C2127 1.327 . S
C2127 H2121 0.950 . S
C2127 C2126 1.327 . S
C2127 C2131 1.429 . S
C2128 C2111 1.574 . S
C2128 H2122 0.949 . S
C2128 C2132 1.368 . S
C2129 C2110 1.429 . S
C2129 C2123 1.429 . S
C2129 C2130 1.523 . S
C2130 C2111 1.368 1_545 S
C2130 C2124 1.368 . S
C2130 C2129 1.523 . S
C2131 C2115 1.429 . S
C2131 C2127 1.429 . S
C2131 C2132 1.523 . S
C2132 C2116 1.368 1_565 S
C2132 C2128 1.368 . S
C2132 C2131 1.523 . S
H2133 C2108 0.950 . S
H2134 C2110 0.950 . S
H2135 C2111 0.949 . S
H2136 C2113 0.950 . S
H2137 C2115 0.950 . S
C2138 C2139 1.349 . S
C2138 C2140 1.327 . S
C2138 H2163 0.950 . S
C2139 C2138 1.349 . S
C2139 C2155 1.349 . S
C2140 C2138 1.327 . S
C2140 C2159 1.429 . S
C2140 H2164 0.950 . S
C2141 C2158 1.569 . S
C2141 C2160 1.372 1_556 S
C2141 H2165 0.949 1_556 S
H2142 C2146 0.949 1_556 S
C2143 C2144 1.349 . S
C2143 C2145 1.327 . S
C2143 H2166 0.950 . S
C2144 C2143 1.349 . S
C2144 C2156 1.349 . S
C2145 C2143 1.327 . S
C2145 C2161 1.429 . S
C2145 H2167 0.950 . S
C2146 H2142 0.949 1_554 S
C2146 C2154 1.569 . S
C2146 C2162 1.372 1_554 S
H2147 C2155 0.950 . S
H2148 C2153 0.950 . S
H2149 C2154 0.949 . S
H2150 C2156 0.950 . S
H2151 C2157 0.950 . S
H2152 C2158 0.949 . S
C2153 H2148 0.950 . S
C2153 C2155 1.327 . S
C2153 C2159 1.429 . S
C2154 C2146 1.569 . S
C2154 H2149 0.949 . S
C2154 C2160 1.368 . S
C2155 C2139 1.349 . S
C2155 H2147 0.950 . S
C2155 C2153 1.327 . S
C2156 C2144 1.349 . S
C2156 H2150 0.950 . S
C2156 C2157 1.327 . S
C2157 H2151 0.950 . S
C2157 C2156 1.327 . S
C2157 C2161 1.429 . S
C2158 C2141 1.569 . S
C2158 H2152 0.949 . S
C2158 C2162 1.368 . S
C2159 C2140 1.429 . S
C2159 C2153 1.429 . S
C2159 C2160 1.523 . S
C2160 C2141 1.372 1_554 S
C2160 C2154 1.368 . S
C2160 C2159 1.523 . S
C2161 C2145 1.429 . S
C2161 C2157 1.429 . S
C2161 C2162 1.523 . S
C2162 C2146 1.372 1_556 S
C2162 C2158 1.368 . S
C2162 C2161 1.523 . S
H2163 C2138 0.950 . S
H2164 C2140 0.950 . S
H2165 C2141 0.949 1_554 S
H2166 C2143 0.950 . S
H2167 C2145 0.950 . S
C2168 C2169 1.349 . S
C2168 C2170 1.327 . S
C2168 H2193 0.950 . S
C2169 C2168 1.349 . S
C2169 C2185 1.349 . S
C2170 C2168 1.327 . S
C2170 C2189 1.429 . S
C2170 H2194 0.950 . S
C2171 C2188 1.574 . S
C2171 C2190 1.368 . S
C2171 H2195 0.949 . S
H2172 C2176 0.949 . S
C2173 C2174 1.349 . S
C2173 C2175 1.327 . S
C2173 H2196 0.950 . S
C2174 C2173 1.349 . S
C2174 C2186 1.349 . S
C2175 C2173 1.327 . S
C2175 C2191 1.429 . S
C2175 H2197 0.950 . S
C2176 H2172 0.949 . S
C2176 C2184 1.574 . S
C2176 C2192 1.368 . S
H2177 C2185 0.950 . S
H2178 C2183 0.950 . S
H2179 C2184 0.949 . S
H2180 C2186 0.950 . S
H2181 C2187 0.950 . S
H2182 C2188 0.949 . S
C2183 H2178 0.950 . S
C2183 C2185 1.327 . S
C2183 C2189 1.429 . S
C2184 C2176 1.574 . S
C2184 H2179 0.949 . S
C2184 C2190 1.368 1_545 S
C2185 C2169 1.349 . S
C2185 H2177 0.950 . S
C2185 C2183 1.327 . S
C2186 C2174 1.349 . S
C2186 H2180 0.950 . S
C2186 C2187 1.327 . S
C2187 H2181 0.950 . S
C2187 C2186 1.327 . S
C2187 C2191 1.429 . S
C2188 C2171 1.574 . S
C2188 H2182 0.949 . S
C2188 C2192 1.368 1_565 S
C2189 C2170 1.429 . S
C2189 C2183 1.429 . S
C2189 C2190 1.523 . S
C2190 C2171 1.368 . S
C2190 C2184 1.368 1_565 S
C2190 C2189 1.523 . S
C2191 C2175 1.429 . S
C2191 C2187 1.429 . S
C2191 C2192 1.523 . S
C2192 C2176 1.368 . S
C2192 C2188 1.368 1_545 S
C2192 C2191 1.523 . S
H2193 C2168 0.950 . S
H2194 C2170 0.950 . S
H2195 C2171 0.949 . S
H2196 C2173 0.950 . S
H2197 C2175 0.950 . S
C2198 C2199 1.349 . S
C2198 C2200 1.327 . S
C2198 H2223 0.950 . S
C2199 C2198 1.349 . S
C2199 C2215 1.349 . S
C2200 C2198 1.327 . S
C2200 C2219 1.429 . S
C2200 H2224 0.950 . S
C2201 C2218 1.574 . S
C2201 C2220 1.368 . S
C2201 H2225 0.949 . S
H2202 C2206 0.949 . S
C2203 C2204 1.349 . S
C2203 C2205 1.327 . S
C2203 H2226 0.950 . S
C2204 C2203 1.349 . S
C2204 C2216 1.349 . S
C2205 C2203 1.327 . S
C2205 C2221 1.429 . S
C2205 H2227 0.950 . S
C2206 H2202 0.949 . S
C2206 C2214 1.574 . S
C2206 C2222 1.368 . S
H2207 C2215 0.950 . S
H2208 C2213 0.950 . S
H2209 C2214 0.949 . S
H2210 C2216 0.950 . S
H2211 C2217 0.950 . S
H2212 C2218 0.949 . S
C2213 H2208 0.950 . S
C2213 C2215 1.327 . S
C2213 C2219 1.429 . S
C2214 C2206 1.574 . S
C2214 H2209 0.949 . S
C2214 C2220 1.368 . S
C2215 C2199 1.349 . S
C2215 H2207 0.950 . S
C2215 C2213 1.327 . S
C2216 C2204 1.349 . S
C2216 H2210 0.950 . S
C2216 C2217 1.327 . S
C2217 H2211 0.950 . S
C2217 C2216 1.327 . S
C2217 C2221 1.429 . S
C2218 C2201 1.574 . S
C2218 H2212 0.949 . S
C2218 C2222 1.368 . S
C2219 C2200 1.429 . S
C2219 C2213 1.429 . S
C2219 C2220 1.523 . S
C2220 C2201 1.368 . S
C2220 C2214 1.368 . S
C2220 C2219 1.523 . S
C2221 C2205 1.429 . S
C2221 C2217 1.429 . S
C2221 C2222 1.523 . S
C2222 C2206 1.368 . S
C2222 C2218 1.368 . S
C2222 C2221 1.523 . S
H2223 C2198 0.950 . S
H2224 C2200 0.950 . S
H2225 C2201 0.949 . S
H2226 C2203 0.950 . S
H2227 C2205 0.950 . S
C2228 C2229 1.349 . S
C2228 C2230 1.327 . S
C2228 H2253 0.950 . S
C2229 C2228 1.349 . S
C2229 C2245 1.349 . S
C2230 C2228 1.327 . S
C2230 C2249 1.429 . S
C2230 H2254 0.950 . S
C2231 C2248 1.574 1_545 S
C2231 C2250 1.368 . S
C2231 H2255 0.949 . S
H2232 C2236 0.949 . S
C2233 C2234 1.349 . S
C2233 C2235 1.327 . S
C2233 H2256 0.950 . S
C2234 C2233 1.349 . S
C2234 C2246 1.349 . S
C2235 C2233 1.327 . S
C2235 C2251 1.429 . S
C2235 H2257 0.950 . S
C2236 H2232 0.949 . S
C2236 C2244 1.574 1_565 S
C2236 C2252 1.368 . S
H2237 C2245 0.950 . S
H2238 C2243 0.950 . S
H2239 C2244 0.949 . S
H2240 C2246 0.950 . S
H2241 C2247 0.950 . S
H2242 C2248 0.949 . S
C2243 H2238 0.950 . S
C2243 C2245 1.327 . S
C2243 C2249 1.429 . S
C2244 C2236 1.574 1_545 S
C2244 H2239 0.949 . S
C2244 C2250 1.368 . S
C2245 C2229 1.349 . S
C2245 H2237 0.950 . S
C2245 C2243 1.327 . S
C2246 C2234 1.349 . S
C2246 H2240 0.950 . S
C2246 C2247 1.327 . S
C2247 H2241 0.950 . S
C2247 C2246 1.327 . S
C2247 C2251 1.429 . S
C2248 C2231 1.574 1_565 S
C2248 H2242 0.949 . S
C2248 C2252 1.368 . S
C2249 C2230 1.429 . S
C2249 C2243 1.429 . S
C2249 C2250 1.523 . S
C2250 C2231 1.368 . S
C2250 C2244 1.368 . S
C2250 C2249 1.523 . S
C2251 C2235 1.429 . S
C2251 C2247 1.429 . S
C2251 C2252 1.523 . S
C2252 C2236 1.368 . S
C2252 C2248 1.368 . S
C2252 C2251 1.523 . S
H2253 C2228 0.950 . S
H2254 C2230 0.950 . S
H2255 C2231 0.949 . S
H2256 C2233 0.950 . S
H2257 C2235 0.950 . S
C2258 C2259 1.349 . S
C2258 C2260 1.327 . S
C2258 H2283 0.950 . S
C2259 C2258 1.349 . S
C2259 C2275 1.349 . S
C2260 C2258 1.327 . S
C2260 C2279 1.429 . S
C2260 H2284 0.950 . S
C2261 C2278 1.570 . S
C2261 C2280 1.372 1_554 S
C2261 H2285 0.949 1_554 S
H2262 C2266 0.949 1_554 S
C2263 C2264 1.349 . S
C2263 C2265 1.327 . S
C2263 H2286 0.950 . S
C2264 C2263 1.349 . S
C2264 C2276 1.349 . S
C2265 C2263 1.327 . S
C2265 C2281 1.429 . S
C2265 H2287 0.950 . S
C2266 H2262 0.949 1_556 S
C2266 C2274 1.569 . S
C2266 C2282 1.372 1_556 S
H2267 C2275 0.950 . S
H2268 C2273 0.950 . S
H2269 C2274 0.949 . S
H2270 C2276 0.950 . S
H2271 C2277 0.950 . S
H2272 C2278 0.949 . S
C2273 H2268 0.950 . S
C2273 C2275 1.327 . S
C2273 C2279 1.429 . S
C2274 C2266 1.569 . S
C2274 H2269 0.949 . S
C2274 C2280 1.368 . S
C2275 C2259 1.349 . S
C2275 H2267 0.950 . S
C2275 C2273 1.327 . S
C2276 C2264 1.349 . S
C2276 H2270 0.950 . S
C2276 C2277 1.327 . S
C2277 H2271 0.950 . S
C2277 C2276 1.327 . S
C2277 C2281 1.429 . S
C2278 C2261 1.570 . S
C2278 H2272 0.949 . S
C2278 C2282 1.368 . S
C2279 C2260 1.429 . S
C2279 C2273 1.429 . S
C2279 C2280 1.523 . S
C2280 C2261 1.372 1_556 S
C2280 C2274 1.368 . S
C2280 C2279 1.523 . S
C2281 C2265 1.429 . S
C2281 C2277 1.429 . S
C2281 C2282 1.523 . S
C2282 C2266 1.372 1_554 S
C2282 C2278 1.368 . S
C2282 C2281 1.523 . S
H2283 C2258 0.950 . S
H2284 C2260 0.950 . S
H2285 C2261 0.949 1_556 S
H2286 C2263 0.950 . S
H2287 C2265 0.950 . S
C2288 C2289 1.349 . S
C2288 C2290 1.327 . S
C2288 H2313 0.950 . S
C2289 C2288 1.349 . S
C2289 C2305 1.349 . S
C2290 C2288 1.327 . S
C2290 C2309 1.429 . S
C2290 H2314 0.950 . S
C2291 C2308 1.574 . S
C2291 C2310 1.368 . S
C2291 H2315 0.949 . S
H2292 C2296 0.949 . S
C2293 C2294 1.349 . S
C2293 C2295 1.327 . S
C2293 H2316 0.950 . S
C2294 C2293 1.349 . S
C2294 C2306 1.349 . S
C2295 C2293 1.327 . S
C2295 C2311 1.429 . S
C2295 H2317 0.950 . S
C2296 H2292 0.949 . S
C2296 C2304 1.574 . S
C2296 C2312 1.368 . S
H2297 C2305 0.950 . S
H2298 C2303 0.950 . S
H2299 C2304 0.949 . S
H2300 C2306 0.950 . S
H2301 C2307 0.950 . S
H2302 C2308 0.949 . S
C2303 H2298 0.950 . S
C2303 C2305 1.327 . S
C2303 C2309 1.429 . S
C2304 C2296 1.574 . S
C2304 H2299 0.949 . S
C2304 C2310 1.368 . S
C2305 C2289 1.349 . S
C2305 H2297 0.950 . S
C2305 C2303 1.327 . S
C2306 C2294 1.349 . S
C2306 H2300 0.950 . S
C2306 C2307 1.327 . S
C2307 H2301 0.950 . S
C2307 C2306 1.327 . S
C2307 C2311 1.429 . S
C2308 C2291 1.574 . S
C2308 H2302 0.949 . S
C2308 C2312 1.368 . S
C2309 C2290 1.429 . S
C2309 C2303 1.429 . S
C2309 C2310 1.523 . S
C2310 C2291 1.368 . S
C2310 C2304 1.368 . S
C2310 C2309 1.523 . S
C2311 C2295 1.429 . S
C2311 C2307 1.429 . S
C2311 C2312 1.523 . S
C2312 C2296 1.368 . S
C2312 C2308 1.368 . S
C2312 C2311 1.523 . S
H2313 C2288 0.950 . S
H2314 C2290 0.950 . S
H2315 C2291 0.949 . S
H2316 C2293 0.950 . S
H2317 C2295 0.950 . S
C2318 C2319 1.349 . S
C2318 C2320 1.327 . S
C2318 H2343 0.950 . S
C2319 C2318 1.349 . S
C2319 C2335 1.349 . S
C2320 C2318 1.327 . S
C2320 C2339 1.429 . S
C2320 H2344 0.950 . S
C2321 C2338 1.570 . S
C2321 C2340 1.372 1_554 S
C2321 H2345 0.949 1_554 S
H2322 C2326 0.949 1_554 S
C2323 C2324 1.349 . S
C2323 C2325 1.327 . S
C2323 H2346 0.950 . S
C2324 C2323 1.349 . S
C2324 C2336 1.349 . S
C2325 C2323 1.327 . S
C2325 C2341 1.429 . S
C2325 H2347 0.950 . S
C2326 H2322 0.949 1_556 S
C2326 C2334 1.569 . S
C2326 C2342 1.372 1_556 S
H2327 C2335 0.950 . S
H2328 C2333 0.950 . S
H2329 C2334 0.949 . S
H2330 C2336 0.950 . S
H2331 C2337 0.950 . S
H2332 C2338 0.949 . S
C2333 H2328 0.950 . S
C2333 C2335 1.327 . S
C2333 C2339 1.429 . S
C2334 C2326 1.569 . S
C2334 H2329 0.949 . S
C2334 C2340 1.368 . S
C2335 C2319 1.349 . S
C2335 H2327 0.950 . S
C2335 C2333 1.327 . S
C2336 C2324 1.349 . S
C2336 H2330 0.950 . S
C2336 C2337 1.327 . S
C2337 H2331 0.950 . S
C2337 C2336 1.327 . S
C2337 C2341 1.429 . S
C2338 C2321 1.570 . S
C2338 H2332 0.949 . S
C2338 C2342 1.368 . S
C2339 C2320 1.429 . S
C2339 C2333 1.429 . S
C2339 C2340 1.523 . S
C2340 C2321 1.372 1_556 S
C2340 C2334 1.368 . S
C2340 C2339 1.523 . S
C2341 C2325 1.429 . S
C2341 C2337 1.429 . S
C2341 C2342 1.523 . S
C2342 C2326 1.372 1_554 S
C2342 C2338 1.368 . S
C2342 C2341 1.523 . S
H2343 C2318 0.950 . S
H2344 C2320 0.950 . S
H2345 C2321 0.949 1_556 S
H2346 C2323 0.950 . S
H2347 C2325 0.950 . S
C2348 C2349 1.349 . S
C2348 C2350 1.327 . S
C2348 H2373 0.950 . S
C2349 C2348 1.349 . S
C2349 C2365 1.349 . S
C2350 C2348 1.327 . S
C2350 C2369 1.429 . S
C2350 H2374 0.950 . S
C2351 C2368 1.574 . S
C2351 C2370 1.368 . S
C2351 H2375 0.949 . S
H2352 C2356 0.949 . S
C2353 C2354 1.349 . S
C2353 C2355 1.327 . S
C2353 H2376 0.950 . S
C2354 C2353 1.349 . S
C2354 C2366 1.349 . S
C2355 C2353 1.327 . S
C2355 C2371 1.429 . S
C2355 H2377 0.950 . S
C2356 H2352 0.949 . S
C2356 C2364 1.574 . S
C2356 C2372 1.368 . S
H2357 C2365 0.950 . S
H2358 C2363 0.950 . S
H2359 C2364 0.949 . S
H2360 C2366 0.950 . S
H2361 C2367 0.950 . S
H2362 C2368 0.949 . S
C2363 H2358 0.950 . S
C2363 C2365 1.327 . S
C2363 C2369 1.429 . S
C2364 C2356 1.574 . S
C2364 H2359 0.949 . S
C2364 C2370 1.368 . S
C2365 C2349 1.349 . S
C2365 H2357 0.950 . S
C2365 C2363 1.327 . S
C2366 C2354 1.349 . S
C2366 H2360 0.950 . S
C2366 C2367 1.327 . S
C2367 H2361 0.950 . S
C2367 C2366 1.327 . S
C2367 C2371 1.429 . S
C2368 C2351 1.574 . S
C2368 H2362 0.949 . S
C2368 C2372 1.368 . S
C2369 C2350 1.429 . S
C2369 C2363 1.429 . S
C2369 C2370 1.523 . S
C2370 C2351 1.368 . S
C2370 C2364 1.368 . S
C2370 C2369 1.523 . S
C2371 C2355 1.429 . S
C2371 C2367 1.429 . S
C2371 C2372 1.523 . S
C2372 C2356 1.368 . S
C2372 C2368 1.368 . S
C2372 C2371 1.523 . S
H2373 C2348 0.950 . S
H2374 C2350 0.950 . S
H2375 C2351 0.949 . S
H2376 C2353 0.950 . S
H2377 C2355 0.950 . S
C2378 C2379 1.349 . S
C2378 C2380 1.327 . S
C2378 H2403 0.950 . S
C2379 C2378 1.349 . S
C2379 C2395 1.349 . S
C2380 C2378 1.327 . S
C2380 C2399 1.429 . S
C2380 H2404 0.950 . S
C2381 C2398 1.574 . S
C2381 C2400 1.368 . S
C2381 H2405 0.949 . S
H2382 C2386 0.949 . S
C2383 C2384 1.349 . S
C2383 C2385 1.327 . S
C2383 H2406 0.950 . S
C2384 C2383 1.349 . S
C2384 C2396 1.349 . S
C2385 C2383 1.327 . S
C2385 C2401 1.429 . S
C2385 H2407 0.950 . S
C2386 H2382 0.949 . S
C2386 C2394 1.574 . S
C2386 C2402 1.368 . S
H2387 C2395 0.950 . S
H2388 C2393 0.950 . S
H2389 C2394 0.949 . S
H2390 C2396 0.950 . S
H2391 C2397 0.950 . S
H2392 C2398 0.949 . S
C2393 H2388 0.950 . S
C2393 C2395 1.327 . S
C2393 C2399 1.429 . S
C2394 C2386 1.574 . S
C2394 H2389 0.949 . S
C2394 C2400 1.368 . S
C2395 C2379 1.349 . S
C2395 H2387 0.950 . S
C2395 C2393 1.327 . S
C2396 C2384 1.349 . S
C2396 H2390 0.950 . S
C2396 C2397 1.327 . S
C2397 H2391 0.950 . S
C2397 C2396 1.327 . S
C2397 C2401 1.429 . S
C2398 C2381 1.574 . S
C2398 H2392 0.949 . S
C2398 C2402 1.368 . S
C2399 C2380 1.429 . S
C2399 C2393 1.429 . S
C2399 C2400 1.523 . S
C2400 C2381 1.368 . S
C2400 C2394 1.368 . S
C2400 C2399 1.523 . S
C2401 C2385 1.429 . S
C2401 C2397 1.429 . S
C2401 C2402 1.523 . S
C2402 C2386 1.368 . S
C2402 C2398 1.368 . S
C2402 C2401 1.523 . S
H2403 C2378 0.950 . S
H2404 C2380 0.950 . S
H2405 C2381 0.949 . S
H2406 C2383 0.950 . S
H2407 C2385 0.950 . S
C2408 C2409 1.349 . S
C2408 C2410 1.327 . S
C2408 H2433 0.950 . S
C2409 C2408 1.349 . S
C2409 C2425 1.349 . S
C2410 C2408 1.327 . S
C2410 C2429 1.429 . S
C2410 H2434 0.950 . S
C2411 C2428 1.574 . S
C2411 C2430 1.368 . S
C2411 H2435 0.949 . S
H2412 C2416 0.949 . S
C2413 C2414 1.349 . S
C2413 C2415 1.327 . S
C2413 H2436 0.950 . S
C2414 C2413 1.349 . S
C2414 C2426 1.349 . S
C2415 C2413 1.327 . S
C2415 C2431 1.429 . S
C2415 H2437 0.950 . S
C2416 H2412 0.949 . S
C2416 C2424 1.574 . S
C2416 C2432 1.368 . S
H2417 C2425 0.950 . S
H2418 C2423 0.950 . S
H2419 C2424 0.949 . S
H2420 C2426 0.950 . S
H2421 C2427 0.950 . S
H2422 C2428 0.949 . S
C2423 H2418 0.950 . S
C2423 C2425 1.327 . S
C2423 C2429 1.429 . S
C2424 C2416 1.574 . S
C2424 H2419 0.949 . S
C2424 C2430 1.368 . S
C2425 C2409 1.349 . S
C2425 H2417 0.950 . S
C2425 C2423 1.327 . S
C2426 C2414 1.349 . S
C2426 H2420 0.950 . S
C2426 C2427 1.327 . S
C2427 H2421 0.950 . S
C2427 C2426 1.327 . S
C2427 C2431 1.429 . S
C2428 C2411 1.574 . S
C2428 H2422 0.949 . S
C2428 C2432 1.368 . S
C2429 C2410 1.429 . S
C2429 C2423 1.429 . S
C2429 C2430 1.523 . S
C2430 C2411 1.368 . S
C2430 C2424 1.368 . S
C2430 C2429 1.523 . S
C2431 C2415 1.429 . S
C2431 C2427 1.429 . S
C2431 C2432 1.523 . S
C2432 C2416 1.368 . S
C2432 C2428 1.368 . S
C2432 C2431 1.523 . S
H2433 C2408 0.950 . S
H2434 C2410 0.950 . S
H2435 C2411 0.949 . S
H2436 C2413 0.950 . S
H2437 C2415 0.950 . S
C2438 C2439 1.349 . S
C2438 C2440 1.327 . S
C2438 H2463 0.950 . S
C2439 C2438 1.349 . S
C2439 C2455 1.349 . S
C2440 C2438 1.327 . S
C2440 C2459 1.429 . S
C2440 H2464 0.950 . S
C2441 C2458 1.569 . S
C2441 C2460 1.372 1_554 S
C2441 H2465 0.949 1_554 S
H2442 C2446 0.949 1_554 S
C2443 C2444 1.349 . S
C2443 C2445 1.327 . S
C2443 H2466 0.950 . S
C2444 C2443 1.349 . S
C2444 C2456 1.349 . S
C2445 C2443 1.327 . S
C2445 C2461 1.429 . S
C2445 H2467 0.950 . S
C2446 H2442 0.949 1_556 S
C2446 C2454 1.570 . S
C2446 C2462 1.372 1_556 S
H2447 C2455 0.950 . S
H2448 C2453 0.950 . S
H2449 C2454 0.949 . S
H2450 C2456 0.950 . S
H2451 C2457 0.950 . S
H2452 C2458 0.949 . S
C2453 H2448 0.950 . S
C2453 C2455 1.327 . S
C2453 C2459 1.429 . S
C2454 C2446 1.570 . S
C2454 H2449 0.949 . S
C2454 C2460 1.368 . S
C2455 C2439 1.349 . S
C2455 H2447 0.950 . S
C2455 C2453 1.327 . S
C2456 C2444 1.349 . S
C2456 H2450 0.950 . S
C2456 C2457 1.327 . S
C2457 H2451 0.950 . S
C2457 C2456 1.327 . S
C2457 C2461 1.429 . S
C2458 C2441 1.569 . S
C2458 H2452 0.949 . S
C2458 C2462 1.368 . S
C2459 C2440 1.429 . S
C2459 C2453 1.429 . S
C2459 C2460 1.523 . S
C2460 C2441 1.372 1_556 S
C2460 C2454 1.368 . S
C2460 C2459 1.523 . S
C2461 C2445 1.429 . S
C2461 C2457 1.429 . S
C2461 C2462 1.523 . S
C2462 C2446 1.372 1_554 S
C2462 C2458 1.368 . S
C2462 C2461 1.523 . S
H2463 C2438 0.950 . S
H2464 C2440 0.950 . S
H2465 C2441 0.949 1_556 S
H2466 C2443 0.950 . S
H2467 C2445 0.950 . S
C2468 C2469 1.349 . S
C2468 C2470 1.327 . S
C2468 H2493 0.950 . S
C2469 C2468 1.349 . S
C2469 C2485 1.349 . S
C2470 C2468 1.327 . S
C2470 C2489 1.429 . S
C2470 H2494 0.950 . S
C2471 C2488 1.574 . S
C2471 C2490 1.368 . S
C2471 H2495 0.949 . S
H2472 C2476 0.949 . S
C2473 C2474 1.349 . S
C2473 C2475 1.327 . S
C2473 H2496 0.950 . S
C2474 C2473 1.349 . S
C2474 C2486 1.349 . S
C2475 C2473 1.327 . S
C2475 C2491 1.429 . S
C2475 H2497 0.950 . S
C2476 H2472 0.949 . S
C2476 C2484 1.574 . S
C2476 C2492 1.368 . S
H2477 C2485 0.950 . S
H2478 C2483 0.950 . S
H2479 C2484 0.949 . S
H2480 C2486 0.950 . S
H2481 C2487 0.950 . S
H2482 C2488 0.949 . S
C2483 H2478 0.950 . S
C2483 C2485 1.327 . S
C2483 C2489 1.429 . S
C2484 C2476 1.574 . S
C2484 H2479 0.949 . S
C2484 C2490 1.368 . S
C2485 C2469 1.349 . S
C2485 H2477 0.950 . S
C2485 C2483 1.327 . S
C2486 C2474 1.349 . S
C2486 H2480 0.950 . S
C2486 C2487 1.327 . S
C2487 H2481 0.950 . S
C2487 C2486 1.327 . S
C2487 C2491 1.429 . S
C2488 C2471 1.574 . S
C2488 H2482 0.949 . S
C2488 C2492 1.368 . S
C2489 C2470 1.429 . S
C2489 C2483 1.429 . S
C2489 C2490 1.523 . S
C2490 C2471 1.368 . S
C2490 C2484 1.368 . S
C2490 C2489 1.523 . S
C2491 C2475 1.429 . S
C2491 C2487 1.429 . S
C2491 C2492 1.523 . S
C2492 C2476 1.368 . S
C2492 C2488 1.368 . S
C2492 C2491 1.523 . S
H2493 C2468 0.950 . S
H2494 C2470 0.950 . S
H2495 C2471 0.949 . S
H2496 C2473 0.950 . S
H2497 C2475 0.950 . S
C2498 C2499 1.349 . S
C2498 C2500 1.327 . S
C2498 H2523 0.950 . S
C2499 C2498 1.349 . S
C2499 C2515 1.349 . S
C2500 C2498 1.327 . S
C2500 C2519 1.429 . S
C2500 H2524 0.950 . S
C2501 C2518 1.574 . S
C2501 C2520 1.368 . S
C2501 H2525 0.949 . S
H2502 C2506 0.949 . S
C2503 C2504 1.349 . S
C2503 C2505 1.327 . S
C2503 H2526 0.950 . S
C2504 C2503 1.349 . S
C2504 C2516 1.349 . S
C2505 C2503 1.327 . S
C2505 C2521 1.429 . S
C2505 H2527 0.950 . S
C2506 H2502 0.949 . S
C2506 C2514 1.574 . S
C2506 C2522 1.368 . S
H2507 C2515 0.950 . S
H2508 C2513 0.950 . S
H2509 C2514 0.949 . S
H2510 C2516 0.950 . S
H2511 C2517 0.950 . S
H2512 C2518 0.949 . S
C2513 H2508 0.950 . S
C2513 C2515 1.327 . S
C2513 C2519 1.429 . S
C2514 C2506 1.574 . S
C2514 H2509 0.949 . S
C2514 C2520 1.368 . S
C2515 C2499 1.349 . S
C2515 H2507 0.950 . S
C2515 C2513 1.327 . S
C2516 C2504 1.349 . S
C2516 H2510 0.950 . S
C2516 C2517 1.327 . S
C2517 H2511 0.950 . S
C2517 C2516 1.327 . S
C2517 C2521 1.429 . S
C2518 C2501 1.574 . S
C2518 H2512 0.949 . S
C2518 C2522 1.368 . S
C2519 C2500 1.429 . S
C2519 C2513 1.429 . S
C2519 C2520 1.523 . S
C2520 C2501 1.368 . S
C2520 C2514 1.368 . S
C2520 C2519 1.523 . S
C2521 C2505 1.429 . S
C2521 C2517 1.429 . S
C2521 C2522 1.523 . S
C2522 C2506 1.368 . S
C2522 C2518 1.368 . S
C2522 C2521 1.523 . S
H2523 C2498 0.950 . S
H2524 C2500 0.950 . S
H2525 C2501 0.949 . S
H2526 C2503 0.950 . S
H2527 C2505 0.950 . S
C2528 C2529 1.349 1_545 S
C2528 C2530 1.327 . S
C2528 H2553 0.950 . S
C2529 C2528 1.349 1_565 S
C2529 C2545 1.349 . S
C2530 C2528 1.327 . S
C2530 C2549 1.429 . S
C2530 H2554 0.950 . S
C2531 C2548 1.574 . S
C2531 C2550 1.368 . S
C2531 H2555 0.949 . S
H2532 C2536 0.949 . S
C2533 C2534 1.349 . S
C2533 C2535 1.327 . S
C2533 H2556 0.950 . S
C2534 C2533 1.349 . S
C2534 C2546 1.349 . S
C2535 C2533 1.327 . S
C2535 C2551 1.429 . S
C2535 H2557 0.950 . S
C2536 H2532 0.949 . S
C2536 C2544 1.574 . S
C2536 C2552 1.368 . S
H2537 C2545 0.950 . S
H2538 C2543 0.950 . S
H2539 C2544 0.949 . S
H2540 C2546 0.950 . S
H2541 C2547 0.950 . S
H2542 C2548 0.949 . S
C2543 H2538 0.950 . S
C2543 C2545 1.327 1_545 S
C2543 C2549 1.429 . S
C2544 C2536 1.574 . S
C2544 H2539 0.949 . S
C2544 C2550 1.368 . S
C2545 C2529 1.349 . S
C2545 H2537 0.950 . S
C2545 C2543 1.327 1_565 S
C2546 C2534 1.349 . S
C2546 H2540 0.950 . S
C2546 C2547 1.327 . S
C2547 H2541 0.950 . S
C2547 C2546 1.327 . S
C2547 C2551 1.429 . S
C2548 C2531 1.574 . S
C2548 H2542 0.949 . S
C2548 C2552 1.368 . S
C2549 C2530 1.429 . S
C2549 C2543 1.429 . S
C2549 C2550 1.523 . S
C2550 C2531 1.368 . S
C2550 C2544 1.368 . S
C2550 C2549 1.523 . S
C2551 C2535 1.429 . S
C2551 C2547 1.429 . S
C2551 C2552 1.523 . S
C2552 C2536 1.368 . S
C2552 C2548 1.368 . S
C2552 C2551 1.523 . S
H2553 C2528 0.950 . S
H2554 C2530 0.950 . S
H2555 C2531 0.949 . S
H2556 C2533 0.950 . S
H2557 C2535 0.950 . S
C2558 C2559 1.349 . S
C2558 C2560 1.327 . S
C2558 H2583 0.950 . S
C2559 C2558 1.349 . S
C2559 C2575 1.349 . S
C2560 C2558 1.327 . S
C2560 C2579 1.429 . S
C2560 H2584 0.950 . S
C2561 C2578 1.574 . S
C2561 C2580 1.368 . S
C2561 H2585 0.949 . S
H2562 C2566 0.949 . S
C2563 C2564 1.349 1_545 S
C2563 C2565 1.327 . S
C2563 H2586 0.950 1_545 S
C2564 C2563 1.349 1_565 S
C2564 C2576 1.349 1_565 S
C2565 C2563 1.327 . S
C2565 C2581 1.429 . S
C2565 H2587 0.950 . S
C2566 H2562 0.949 . S
C2566 C2574 1.574 . S
C2566 C2582 1.368 . S
H2567 C2575 0.950 . S
H2568 C2573 0.950 . S
H2569 C2574 0.949 . S
H2570 C2576 0.964 . S
H2571 C2577 0.950 . S
H2572 C2578 0.949 . S
C2573 H2568 0.950 . S
C2573 C2575 1.327 . S
C2573 C2579 1.429 . S
C2574 C2566 1.574 . S
C2574 H2569 0.949 . S
C2574 C2580 1.368 . S
C2575 C2559 1.349 . S
C2575 H2567 0.950 . S
C2575 C2573 1.327 . S
C2576 C2564 1.349 1_545 S
C2576 H2570 0.964 . S
C2576 C2577 1.327 . S
C2577 H2571 0.950 . S
C2577 C2576 1.327 . S
C2577 C2581 1.429 . S
C2578 C2561 1.574 . S
C2578 H2572 0.949 . S
C2578 C2582 1.368 . S
C2579 C2560 1.429 . S
C2579 C2573 1.429 . S
C2579 C2580 1.523 . S
C2580 C2561 1.368 . S
C2580 C2574 1.368 . S
C2580 C2579 1.523 . S
C2581 C2565 1.429 . S
C2581 C2577 1.429 . S
C2581 C2582 1.523 . S
C2582 C2566 1.368 . S
C2582 C2578 1.368 . S
C2582 C2581 1.523 . S
H2583 C2558 0.950 . S
H2584 C2560 0.950 . S
H2585 C2561 0.949 . S
H2586 C2563 0.950 1_565 S
H2587 C2565 0.950 . S
C2588 C2589 1.349 1_565 S
C2588 C2590 1.327 . S
C2588 H2613 0.950 . S
C2589 C2588 1.349 1_545 S
C2589 C2605 1.349 . S
C2590 C2588 1.327 . S
C2590 C2609 1.429 . S
C2590 H2614 0.950 . S
C2591 C2608 1.574 . S
C2591 C2610 1.368 . S
C2591 H2615 0.949 . S
H2592 C2596 0.949 . S
C2593 C2594 1.349 . S
C2593 C2595 1.327 . S
C2593 H2616 0.950 . S
C2594 C2593 1.349 . S
C2594 C2606 1.349 . S
C2595 C2593 1.327 . S
C2595 C2611 1.429 . S
C2595 H2617 0.950 . S
C2596 H2592 0.949 . S
C2596 C2604 1.574 . S
C2596 C2612 1.368 . S
H2597 C2605 0.950 . S
H2598 C2603 0.950 . S
H2599 C2604 0.949 . S
H2600 C2606 0.950 . S
H2601 C2607 0.950 . S
H2602 C2608 0.949 . S
C2603 H2598 0.950 . S
C2603 C2605 1.327 1_565 S
C2603 C2609 1.429 . S
C2604 C2596 1.574 . S
C2604 H2599 0.949 . S
C2604 C2610 1.368 . S
C2605 C2589 1.349 . S
C2605 H2597 0.950 . S
C2605 C2603 1.327 1_545 S
C2606 C2594 1.349 . S
C2606 H2600 0.950 . S
C2606 C2607 1.327 . S
C2607 H2601 0.950 . S
C2607 C2606 1.327 . S
C2607 C2611 1.429 . S
C2608 C2591 1.574 . S
C2608 H2602 0.949 . S
C2608 C2612 1.368 . S
C2609 C2590 1.429 . S
C2609 C2603 1.429 . S
C2609 C2610 1.523 . S
C2610 C2591 1.368 . S
C2610 C2604 1.368 . S
C2610 C2609 1.523 . S
C2611 C2595 1.429 . S
C2611 C2607 1.429 . S
C2611 C2612 1.523 . S
C2612 C2596 1.368 . S
C2612 C2608 1.368 . S
C2612 C2611 1.523 . S
H2613 C2588 0.950 . S
H2614 C2590 0.950 . S
H2615 C2591 0.949 . S
H2616 C2593 0.950 . S
H2617 C2595 0.950 . S
C2618 C2619 1.349 . S
C2618 C2620 1.327 . S
C2618 H2643 0.950 . S
C2619 C2618 1.349 . S
C2619 C2635 1.349 . S
C2620 C2618 1.327 . S
C2620 C2639 1.429 . S
C2620 H2644 0.950 . S
C2621 C2638 1.574 . S
C2621 C2640 1.368 . S
C2621 H2645 0.949 . S
H2622 C2626 0.949 . S
C2623 C2624 1.349 1_565 S
C2623 C2625 1.327 . S
C2623 H2646 0.950 . S
C2624 C2623 1.349 1_545 S
C2624 C2636 1.349 . S
C2625 C2623 1.327 . S
C2625 C2641 1.429 . S
C2625 H2647 0.950 . S
C2626 H2622 0.949 . S
C2626 C2634 1.574 . S
C2626 C2642 1.368 . S
H2627 C2635 0.950 . S
H2628 C2633 0.950 . S
H2629 C2634 0.949 . S
H2630 C2636 0.950 . S
H2631 C2637 0.950 . S
H2632 C2638 0.949 . S
C2633 H2628 0.950 . S
C2633 C2635 1.327 . S
C2633 C2639 1.429 . S
C2634 C2626 1.574 . S
C2634 H2629 0.949 . S
C2634 C2640 1.368 . S
C2635 C2619 1.349 . S
C2635 H2627 0.950 . S
C2635 C2633 1.327 . S
C2636 C2624 1.349 . S
C2636 H2630 0.950 . S
C2636 C2637 1.327 1_545 S
C2637 H2631 0.950 . S
C2637 C2636 1.327 1_565 S
C2637 C2641 1.429 . S
C2638 C2621 1.574 . S
C2638 H2632 0.949 . S
C2638 C2642 1.368 . S
C2639 C2620 1.429 . S
C2639 C2633 1.429 . S
C2639 C2640 1.523 . S
C2640 C2621 1.368 . S
C2640 C2634 1.368 . S
C2640 C2639 1.523 . S
C2641 C2625 1.429 . S
C2641 C2637 1.429 . S
C2641 C2642 1.523 . S
C2642 C2626 1.368 . S
C2642 C2638 1.368 . S
C2642 C2641 1.523 . S
H2643 C2618 0.950 . S
H2644 C2620 0.950 . S
H2645 C2621 0.949 . S
H2646 C2623 0.950 . S
H2647 C2625 0.950 . S
C2648 C2649 1.349 . S
C2648 C2650 1.327 1_545 S
C2648 H2673 0.950 . S
C2649 C2648 1.349 . S
C2649 C2665 1.349 1_545 S
C2650 C2648 1.327 1_565 S
C2650 C2669 1.429 . S
C2650 H2674 0.963 . S
C2651 C2668 1.574 . S
C2651 C2670 1.368 . S
C2651 H2675 0.949 . S
H2652 C2656 0.949 . S
C2653 C2654 1.349 . S
C2653 C2655 1.327 . S
C2653 H2676 0.950 . S
C2654 C2653 1.349 . S
C2654 C2666 1.349 . S
C2655 C2653 1.327 . S
C2655 C2671 1.429 . S
C2655 H2677 0.950 . S
C2656 H2652 0.949 . S
C2656 C2664 1.574 . S
C2656 C2672 1.368 . S
H2657 C2665 0.950 . S
H2658 C2663 0.950 . S
H2659 C2664 0.949 . S
H2660 C2666 0.950 . S
H2661 C2667 0.950 . S
H2662 C2668 0.949 . S
C2663 H2658 0.950 . S
C2663 C2665 1.327 . S
C2663 C2669 1.429 . S
C2664 C2656 1.574 . S
C2664 H2659 0.949 . S
C2664 C2670 1.368 . S
C2665 C2649 1.349 1_565 S
C2665 H2657 0.950 . S
C2665 C2663 1.327 . S
C2666 C2654 1.349 . S
C2666 H2660 0.950 . S
C2666 C2667 1.327 . S
C2667 H2661 0.950 . S
C2667 C2666 1.327 . S
C2667 C2671 1.429 . S
C2668 C2651 1.574 . S
C2668 H2662 0.949 . S
C2668 C2672 1.368 . S
C2669 C2650 1.429 . S
C2669 C2663 1.429 . S
C2669 C2670 1.523 . S
C2670 C2651 1.368 . S
C2670 C2664 1.368 . S
C2670 C2669 1.523 . S
C2671 C2655 1.429 . S
C2671 C2667 1.429 . S
C2671 C2672 1.523 . S
C2672 C2656 1.368 . S
C2672 C2668 1.368 . S
C2672 C2671 1.523 . S
H2673 C2648 0.950 . S
H2674 C2650 0.963 . S
H2675 C2651 0.949 . S
H2676 C2653 0.950 . S
H2677 C2655 0.950 . S
C2678 C2679 1.349 . S
C2678 C2680 1.327 . S
C2678 H2703 0.950 . S
C2679 C2678 1.349 . S
C2679 C2695 1.349 . S
C2680 C2678 1.327 . S
C2680 C2699 1.429 . S
C2680 H2704 0.950 . S
C2681 C2698 1.574 . S
C2681 C2700 1.368 . S
C2681 H2705 0.949 . S
H2682 C2686 0.949 . S
C2683 C2684 1.348 1_565 S
C2683 C2685 1.330 . S
C2683 H2706 0.947 1_565 S
C2684 C2683 1.348 1_545 S
C2684 C2696 1.349 1_545 S
C2685 C2683 1.330 . S
C2685 C2701 1.429 . S
C2685 H2707 0.950 . S
C2686 H2682 0.949 . S
C2686 C2694 1.574 . S
C2686 C2702 1.368 . S
H2687 C2695 0.950 . S
H2688 C2693 0.950 . S
H2689 C2694 0.949 . S
H2690 C2696 0.950 . S
H2691 C2697 0.950 . S
H2692 C2698 0.949 . S
C2693 H2688 0.950 . S
C2693 C2695 1.327 . S
C2693 C2699 1.429 . S
C2694 C2686 1.574 . S
C2694 H2689 0.949 . S
C2694 C2700 1.368 . S
C2695 C2679 1.349 . S
C2695 H2687 0.950 . S
C2695 C2693 1.327 . S
C2696 C2684 1.349 1_565 S
C2696 H2690 0.950 . S
C2696 C2697 1.327 . S
C2697 H2691 0.950 . S
C2697 C2696 1.327 . S
C2697 C2701 1.429 . S
C2698 C2681 1.574 . S
C2698 H2692 0.949 . S
C2698 C2702 1.368 . S
C2699 C2680 1.429 . S
C2699 C2693 1.429 . S
C2699 C2700 1.523 . S
C2700 C2681 1.368 . S
C2700 C2694 1.368 . S
C2700 C2699 1.523 . S
C2701 C2685 1.429 . S
C2701 C2697 1.429 . S
C2701 C2702 1.523 . S
C2702 C2686 1.368 . S
C2702 C2698 1.368 . S
C2702 C2701 1.523 . S
H2703 C2678 0.950 . S
H2704 C2680 0.950 . S
H2705 C2681 0.949 . S
H2706 C2683 0.947 1_545 S
H2707 C2685 0.950 . S
C2708 C2709 1.349 . S
C2708 C2710 1.327 . S
C2708 H2733 0.950 . S
C2709 C2708 1.349 . S
C2709 C2725 1.349 . S
C2710 C2708 1.327 . S
C2710 C2729 1.429 . S
C2710 H2734 0.950 . S
C2711 C2728 1.574 . S
C2711 C2730 1.368 . S
C2711 H2735 0.949 . S
H2712 C2716 0.949 . S
C2713 C2714 1.349 . S
C2713 C2715 1.327 1_565 S
C2713 H2736 0.950 . S
C2714 C2713 1.349 . S
C2714 C2726 1.349 1_565 S
C2715 C2713 1.327 1_545 S
C2715 C2731 1.429 . S
C2715 H2737 0.950 1_545 S
C2716 H2712 0.949 . S
C2716 C2724 1.574 . S
C2716 C2732 1.368 . S
H2717 C2725 0.950 . S
H2718 C2723 0.950 . S
H2719 C2724 0.949 . S
H2720 C2726 0.950 . S
H2721 C2727 0.950 . S
H2722 C2728 0.949 . S
C2723 H2718 0.950 . S
C2723 C2725 1.327 . S
C2723 C2729 1.429 . S
C2724 C2716 1.574 . S
C2724 H2719 0.949 . S
C2724 C2730 1.368 . S
C2725 C2709 1.349 . S
C2725 H2717 0.950 . S
C2725 C2723 1.327 . S
C2726 C2714 1.349 1_545 S
C2726 H2720 0.950 . S
C2726 C2727 1.327 . S
C2727 H2721 0.950 . S
C2727 C2726 1.327 . S
C2727 C2731 1.429 . S
C2728 C2711 1.574 . S
C2728 H2722 0.949 . S
C2728 C2732 1.368 . S
C2729 C2710 1.429 . S
C2729 C2723 1.429 . S
C2729 C2730 1.523 . S
C2730 C2711 1.368 . S
C2730 C2724 1.368 . S
C2730 C2729 1.523 . S
C2731 C2715 1.429 . S
C2731 C2727 1.429 . S
C2731 C2732 1.523 . S
C2732 C2716 1.368 . S
C2732 C2728 1.368 . S
C2732 C2731 1.523 . S
H2733 C2708 0.950 . S
H2734 C2710 0.950 . S
H2735 C2711 0.949 . S
H2736 C2713 0.950 . S
H2737 C2715 0.950 1_565 S
C2738 C2739 1.349 . S
C2738 C2740 1.327 1_565 S
C2738 H2763 0.950 . S
C2739 C2738 1.349 . S
C2739 C2755 1.349 1_565 S
C2740 C2738 1.327 1_545 S
C2740 C2759 1.429 . S
C2740 H2764 0.950 1_545 S
C2741 C2758 1.574 . S
C2741 C2760 1.368 . S
C2741 H2765 0.949 . S
H2742 C2746 0.949 . S
C2743 C2744 1.349 . S
C2743 C2745 1.327 . S
C2743 H2766 0.950 . S
C2744 C2743 1.349 . S
C2744 C2756 1.349 . S
C2745 C2743 1.327 . S
C2745 C2761 1.429 . S
C2745 H2767 0.950 . S
C2746 H2742 0.949 . S
C2746 C2754 1.574 . S
C2746 C2762 1.368 . S
H2747 C2755 0.950 . S
H2748 C2753 0.950 . S
H2749 C2754 0.949 . S
H2750 C2756 0.950 . S
H2751 C2757 0.950 . S
H2752 C2758 0.949 . S
C2753 H2748 0.950 . S
C2753 C2755 1.327 . S
C2753 C2759 1.429 . S
C2754 C2746 1.574 . S
C2754 H2749 0.949 . S
C2754 C2760 1.368 . S
C2755 C2739 1.349 1_545 S
C2755 H2747 0.950 . S
C2755 C2753 1.327 . S
C2756 C2744 1.349 . S
C2756 H2750 0.950 . S
C2756 C2757 1.327 . S
C2757 H2751 0.950 . S
C2757 C2756 1.327 . S
C2757 C2761 1.429 . S
C2758 C2741 1.574 . S
C2758 H2752 0.949 . S
C2758 C2762 1.368 . S
C2759 C2740 1.429 . S
C2759 C2753 1.429 . S
C2759 C2760 1.523 . S
C2760 C2741 1.368 . S
C2760 C2754 1.368 . S
C2760 C2759 1.523 . S
C2761 C2745 1.429 . S
C2761 C2757 1.429 . S
C2761 C2762 1.523 . S
C2762 C2746 1.368 . S
C2762 C2758 1.368 . S
C2762 C2761 1.523 . S
H2763 C2738 0.950 . S
H2764 C2740 0.950 1_565 S
H2765 C2741 0.949 . S
H2766 C2743 0.950 . S
H2767 C2745 0.950 . S
C2768 C2769 1.349 . S
C2768 C2770 1.327 . S
C2768 H2793 0.950 . S
C2769 C2768 1.349 . S
C2769 C2785 1.349 . S
C2770 C2768 1.327 . S
C2770 C2789 1.429 . S
C2770 H2794 0.950 . S
C2771 C2788 1.574 . S
C2771 C2790 1.368 . S
C2771 H2795 0.949 . S
H2772 C2776 0.949 . S
C2773 C2774 1.349 . S
C2773 C2775 1.327 . S
C2773 H2796 0.950 . S
C2774 C2773 1.349 . S
C2774 C2786 1.349 . S
C2775 C2773 1.327 . S
C2775 C2791 1.429 . S
C2775 H2797 0.950 . S
C2776 H2772 0.949 . S
C2776 C2784 1.574 . S
C2776 C2792 1.368 . S
H2777 C2785 0.950 . S
H2778 C2783 0.950 . S
H2779 C2784 0.949 . S
H2780 C2786 0.950 . S
H2781 C2787 0.950 . S
H2782 C2788 0.949 . S
C2783 H2778 0.950 . S
C2783 C2785 1.327 . S
C2783 C2789 1.429 . S
C2784 C2776 1.574 . S
C2784 H2779 0.949 . S
C2784 C2790 1.368 . S
C2785 C2769 1.349 . S
C2785 H2777 0.950 . S
C2785 C2783 1.327 . S
C2786 C2774 1.349 . S
C2786 H2780 0.950 . S
C2786 C2787 1.327 . S
C2787 H2781 0.950 . S
C2787 C2786 1.327 . S
C2787 C2791 1.429 . S
C2788 C2771 1.574 . S
C2788 H2782 0.949 . S
C2788 C2792 1.368 . S
C2789 C2770 1.429 . S
C2789 C2783 1.429 . S
C2789 C2790 1.523 . S
C2790 C2771 1.368 . S
C2790 C2784 1.368 . S
C2790 C2789 1.523 . S
C2791 C2775 1.429 . S
C2791 C2787 1.429 . S
C2791 C2792 1.523 . S
C2792 C2776 1.368 . S
C2792 C2788 1.368 . S
C2792 C2791 1.523 . S
H2793 C2768 0.950 . S
H2794 C2770 0.950 . S
H2795 C2771 0.949 . S
H2796 C2773 0.950 . S
H2797 C2775 0.950 . S
C2798 C2799 1.349 . S
C2798 C2800 1.327 . S
C2798 H2823 0.950 . S
C2799 C2798 1.349 . S
C2799 C2815 1.349 . S
C2800 C2798 1.327 . S
C2800 C2819 1.429 . S
C2800 H2824 0.950 . S
C2801 C2818 1.574 . S
C2801 C2820 1.368 . S
C2801 H2825 0.949 . S
H2802 C2806 0.949 . S
C2803 C2804 1.349 . S
C2803 C2805 1.327 . S
C2803 H2826 0.950 . S
C2804 C2803 1.349 . S
C2804 C2816 1.349 . S
C2805 C2803 1.327 . S
C2805 C2821 1.429 . S
C2805 H2827 0.950 . S
C2806 H2802 0.949 . S
C2806 C2814 1.574 . S
C2806 C2822 1.368 . S
H2807 C2815 0.950 . S
H2808 C2813 0.950 . S
H2809 C2814 0.949 . S
H2810 C2816 0.950 . S
H2811 C2817 0.950 . S
H2812 C2818 0.949 . S
C2813 H2808 0.950 . S
C2813 C2815 1.327 . S
C2813 C2819 1.429 . S
C2814 C2806 1.574 . S
C2814 H2809 0.949 . S
C2814 C2820 1.368 . S
C2815 C2799 1.349 . S
C2815 H2807 0.950 . S
C2815 C2813 1.327 . S
C2816 C2804 1.349 . S
C2816 H2810 0.950 . S
C2816 C2817 1.327 . S
C2817 H2811 0.950 . S
C2817 C2816 1.327 . S
C2817 C2821 1.429 . S
C2818 C2801 1.574 . S
C2818 H2812 0.949 . S
C2818 C2822 1.368 . S
C2819 C2800 1.429 . S
C2819 C2813 1.429 . S
C2819 C2820 1.523 . S
C2820 C2801 1.368 . S
C2820 C2814 1.368 . S
C2820 C2819 1.523 . S
C2821 C2805 1.429 . S
C2821 C2817 1.429 . S
C2821 C2822 1.523 . S
C2822 C2806 1.368 . S
C2822 C2818 1.368 . S
C2822 C2821 1.523 . S
H2823 C2798 0.950 . S
H2824 C2800 0.950 . S
H2825 C2801 0.949 . S
H2826 C2803 0.950 . S
H2827 C2805 0.950 . S
C2828 C2829 1.349 . S
C2828 C2830 1.327 . S
C2828 H2853 0.950 . S
C2829 C2828 1.349 . S
C2829 C2845 1.349 . S
C2830 C2828 1.327 . S
C2830 C2849 1.429 . S
C2830 H2854 0.950 . S
C2831 C2848 1.574 . S
C2831 C2850 1.368 . S
C2831 H2855 0.949 . S
H2832 C2836 0.949 . S
C2833 C2834 1.349 . S
C2833 C2835 1.327 . S
C2833 H2856 0.950 . S
C2834 C2833 1.349 . S
C2834 C2846 1.349 . S
C2835 C2833 1.327 . S
C2835 C2851 1.429 . S
C2835 H2857 0.950 . S
C2836 H2832 0.949 . S
C2836 C2844 1.574 . S
C2836 C2852 1.368 . S
H2837 C2845 0.950 . S
H2838 C2843 0.950 . S
H2839 C2844 0.949 . S
H2840 C2846 0.950 . S
H2841 C2847 0.950 . S
H2842 C2848 0.949 . S
C2843 H2838 0.950 . S
C2843 C2845 1.327 . S
C2843 C2849 1.429 . S
C2844 C2836 1.574 . S
C2844 H2839 0.949 . S
C2844 C2850 1.368 . S
C2845 C2829 1.349 . S
C2845 H2837 0.950 . S
C2845 C2843 1.327 . S
C2846 C2834 1.349 . S
C2846 H2840 0.950 . S
C2846 C2847 1.327 . S
C2847 H2841 0.950 . S
C2847 C2846 1.327 . S
C2847 C2851 1.429 . S
C2848 C2831 1.574 . S
C2848 H2842 0.949 . S
C2848 C2852 1.368 . S
C2849 C2830 1.429 . S
C2849 C2843 1.429 . S
C2849 C2850 1.523 . S
C2850 C2831 1.368 . S
C2850 C2844 1.368 . S
C2850 C2849 1.523 . S
C2851 C2835 1.429 . S
C2851 C2847 1.429 . S
C2851 C2852 1.523 . S
C2852 C2836 1.368 . S
C2852 C2848 1.368 . S
C2852 C2851 1.523 . S
H2853 C2828 0.950 . S
H2854 C2830 0.950 . S
H2855 C2831 0.949 . S
H2856 C2833 0.950 . S
H2857 C2835 0.950 . S
C2858 C2859 1.349 . S
C2858 C2860 1.327 . S
C2858 H2883 0.950 . S
C2859 C2858 1.349 . S
C2859 C2875 1.349 . S
C2860 C2858 1.327 . S
C2860 C2879 1.429 . S
C2860 H2884 0.950 . S
C2861 C2878 1.574 . S
C2861 C2880 1.368 . S
C2861 H2885 0.949 . S
H2862 C2866 0.949 . S
C2863 C2864 1.349 . S
C2863 C2865 1.327 . S
C2863 H2886 0.950 . S
C2864 C2863 1.349 . S
C2864 C2876 1.349 . S
C2865 C2863 1.327 . S
C2865 C2881 1.429 . S
C2865 H2887 0.950 . S
C2866 H2862 0.949 . S
C2866 C2874 1.574 . S
C2866 C2882 1.368 . S
H2867 C2875 0.950 . S
H2868 C2873 0.950 . S
H2869 C2874 0.949 . S
H2870 C2876 0.950 . S
H2871 C2877 0.950 . S
H2872 C2878 0.949 . S
C2873 H2868 0.950 . S
C2873 C2875 1.327 . S
C2873 C2879 1.429 . S
C2874 C2866 1.574 . S
C2874 H2869 0.949 . S
C2874 C2880 1.368 . S
C2875 C2859 1.349 . S
C2875 H2867 0.950 . S
C2875 C2873 1.327 . S
C2876 C2864 1.349 . S
C2876 H2870 0.950 . S
C2876 C2877 1.327 . S
C2877 H2871 0.950 . S
C2877 C2876 1.327 . S
C2877 C2881 1.429 . S
C2878 C2861 1.574 . S
C2878 H2872 0.949 . S
C2878 C2882 1.368 . S
C2879 C2860 1.429 . S
C2879 C2873 1.429 . S
C2879 C2880 1.523 . S
C2880 C2861 1.368 . S
C2880 C2874 1.368 . S
C2880 C2879 1.523 . S
C2881 C2865 1.429 . S
C2881 C2877 1.429 . S
C2881 C2882 1.523 . S
C2882 C2866 1.368 . S
C2882 C2878 1.368 . S
C2882 C2881 1.523 . S
H2883 C2858 0.950 . S
H2884 C2860 0.950 . S
H2885 C2861 0.949 . S
H2886 C2863 0.950 . S
H2887 C2865 0.950 . S
C2888 C2889 1.349 . S
C2888 C2890 1.327 . S
C2888 H2913 0.950 . S
C2889 C2888 1.349 . S
C2889 C2905 1.349 . S
C2890 C2888 1.327 . S
C2890 C2909 1.429 . S
C2890 H2914 0.950 . S
C2891 C2908 1.574 . S
C2891 C2910 1.368 . S
C2891 H2915 0.949 . S
H2892 C2896 0.949 . S
C2893 C2894 1.349 . S
C2893 C2895 1.327 . S
C2893 H2916 0.950 . S
C2894 C2893 1.349 . S
C2894 C2906 1.349 . S
C2895 C2893 1.327 . S
C2895 C2911 1.429 . S
C2895 H2917 0.950 . S
C2896 H2892 0.949 . S
C2896 C2904 1.574 . S
C2896 C2912 1.368 . S
H2897 C2905 0.950 . S
H2898 C2903 0.950 . S
H2899 C2904 0.949 . S
H2900 C2906 0.950 . S
H2901 C2907 0.950 . S
H2902 C2908 0.949 . S
C2903 H2898 0.950 . S
C2903 C2905 1.327 . S
C2903 C2909 1.429 . S
C2904 C2896 1.574 . S
C2904 H2899 0.949 . S
C2904 C2910 1.368 . S
C2905 C2889 1.349 . S
C2905 H2897 0.950 . S
C2905 C2903 1.327 . S
C2906 C2894 1.349 . S
C2906 H2900 0.950 . S
C2906 C2907 1.327 . S
C2907 H2901 0.950 . S
C2907 C2906 1.327 . S
C2907 C2911 1.429 . S
C2908 C2891 1.574 . S
C2908 H2902 0.949 . S
C2908 C2912 1.368 . S
C2909 C2890 1.429 . S
C2909 C2903 1.429 . S
C2909 C2910 1.523 . S
C2910 C2891 1.368 . S
C2910 C2904 1.368 . S
C2910 C2909 1.523 . S
C2911 C2895 1.429 . S
C2911 C2907 1.429 . S
C2911 C2912 1.523 . S
C2912 C2896 1.368 . S
C2912 C2908 1.368 . S
C2912 C2911 1.523 . S
H2913 C2888 0.950 . S
H2914 C2890 0.950 . S
H2915 C2891 0.949 . S
H2916 C2893 0.950 . S
H2917 C2895 0.950 . S
C2918 C2919 1.349 . S
C2918 C2920 1.327 . S
C2918 H2943 0.950 . S
C2919 C2918 1.349 . S
C2919 C2935 1.349 . S
C2920 C2918 1.327 . S
C2920 C2939 1.429 . S
C2920 H2944 0.950 . S
C2921 C2938 1.574 . S
C2921 C2940 1.368 . S
C2921 H2945 0.949 . S
H2922 C2926 0.949 . S
C2923 C2924 1.349 . S
C2923 C2925 1.327 . S
C2923 H2946 0.950 . S
C2924 C2923 1.349 . S
C2924 C2936 1.349 . S
C2925 C2923 1.327 . S
C2925 C2941 1.429 . S
C2925 H2947 0.950 . S
C2926 H2922 0.949 . S
C2926 C2934 1.574 . S
C2926 C2942 1.368 . S
H2927 C2935 0.950 . S
H2928 C2933 0.950 . S
H2929 C2934 0.949 . S
H2930 C2936 0.950 . S
H2931 C2937 0.950 . S
H2932 C2938 0.949 . S
C2933 H2928 0.950 . S
C2933 C2935 1.327 . S
C2933 C2939 1.429 . S
C2934 C2926 1.574 . S
C2934 H2929 0.949 . S
C2934 C2940 1.368 . S
C2935 C2919 1.349 . S
C2935 H2927 0.950 . S
C2935 C2933 1.327 . S
C2936 C2924 1.349 . S
C2936 H2930 0.950 . S
C2936 C2937 1.327 . S
C2937 H2931 0.950 . S
C2937 C2936 1.327 . S
C2937 C2941 1.429 . S
C2938 C2921 1.574 . S
C2938 H2932 0.949 . S
C2938 C2942 1.368 . S
C2939 C2920 1.429 . S
C2939 C2933 1.429 . S
C2939 C2940 1.523 . S
C2940 C2921 1.368 . S
C2940 C2934 1.368 . S
C2940 C2939 1.523 . S
C2941 C2925 1.429 . S
C2941 C2937 1.429 . S
C2941 C2942 1.523 . S
C2942 C2926 1.368 . S
C2942 C2938 1.368 . S
C2942 C2941 1.523 . S
H2943 C2918 0.950 . S
H2944 C2920 0.950 . S
H2945 C2921 0.949 . S
H2946 C2923 0.950 . S
H2947 C2925 0.950 . S
C2948 C2949 1.349 . S
C2948 C2950 1.327 . S
C2948 H2973 0.950 . S
C2949 C2948 1.349 . S
C2949 C2965 1.349 . S
C2950 C2948 1.327 . S
C2950 C2969 1.429 . S
C2950 H2974 0.950 . S
C2951 C2968 1.574 . S
C2951 C2970 1.368 . S
C2951 H2975 0.949 . S
H2952 C2956 0.949 . S
C2953 C2954 1.349 . S
C2953 C2955 1.327 . S
C2953 H2976 0.950 . S
C2954 C2953 1.349 . S
C2954 C2966 1.349 . S
C2955 C2953 1.327 . S
C2955 C2971 1.429 . S
C2955 H2977 0.950 . S
C2956 H2952 0.949 . S
C2956 C2964 1.574 . S
C2956 C2972 1.368 . S
H2957 C2965 0.950 . S
H2958 C2963 0.950 . S
H2959 C2964 0.949 . S
H2960 C2966 0.950 . S
H2961 C2967 0.950 . S
H2962 C2968 0.949 . S
C2963 H2958 0.950 . S
C2963 C2965 1.327 . S
C2963 C2969 1.429 . S
C2964 C2956 1.574 . S
C2964 H2959 0.949 . S
C2964 C2970 1.368 . S
C2965 C2949 1.349 . S
C2965 H2957 0.950 . S
C2965 C2963 1.327 . S
C2966 C2954 1.349 . S
C2966 H2960 0.950 . S
C2966 C2967 1.327 . S
C2967 H2961 0.950 . S
C2967 C2966 1.327 . S
C2967 C2971 1.429 . S
C2968 C2951 1.574 . S
C2968 H2962 0.949 . S
C2968 C2972 1.368 . S
C2969 C2950 1.429 . S
C2969 C2963 1.429 . S
C2969 C2970 1.523 . S
C2970 C2951 1.368 . S
C2970 C2964 1.368 . S
C2970 C2969 1.523 . S
C2971 C2955 1.429 . S
C2971 C2967 1.429 . S
C2971 C2972 1.523 . S
C2972 C2956 1.368 . S
C2972 C2968 1.368 . S
C2972 C2971 1.523 . S
H2973 C2948 0.950 . S
H2974 C2950 0.950 . S
H2975 C2951 0.949 . S
H2976 C2953 0.950 . S
H2977 C2955 0.950 . S
C2978 C2979 1.349 . S
C2978 C2980 1.327 . S
C2978 H3003 0.950 . S
C2979 C2978 1.349 . S
C2979 C2995 1.349 . S
C2980 C2978 1.327 . S
C2980 C2999 1.429 . S
C2980 H3004 0.950 . S
C2981 C2998 1.574 . S
C2981 C3000 1.368 . S
C2981 H3005 0.949 . S
H2982 C2986 0.949 . S
C2983 C2984 1.349 . S
C2983 C2985 1.327 . S
C2983 H3006 0.950 . S
C2984 C2983 1.349 . S
C2984 C2996 1.349 . S
C2985 C2983 1.327 . S
C2985 C3001 1.429 . S
C2985 H3007 0.950 . S
C2986 H2982 0.949 . S
C2986 C2994 1.574 . S
C2986 C3002 1.368 . S
H2987 C2995 0.950 . S
H2988 C2993 0.950 . S
H2989 C2994 0.949 . S
H2990 C2996 0.950 . S
H2991 C2997 0.950 . S
H2992 C2998 0.949 . S
C2993 H2988 0.950 . S
C2993 C2995 1.327 . S
C2993 C2999 1.429 . S
C2994 C2986 1.574 . S
C2994 H2989 0.949 . S
C2994 C3000 1.368 . S
C2995 C2979 1.349 . S
C2995 H2987 0.950 . S
C2995 C2993 1.327 . S
C2996 C2984 1.349 . S
C2996 H2990 0.950 . S
C2996 C2997 1.327 . S
C2997 H2991 0.950 . S
C2997 C2996 1.327 . S
C2997 C3001 1.429 . S
C2998 C2981 1.574 . S
C2998 H2992 0.949 . S
C2998 C3002 1.368 . S
C2999 C2980 1.429 . S
C2999 C2993 1.429 . S
C2999 C3000 1.523 . S
C3000 C2981 1.368 . S
C3000 C2994 1.368 . S
C3000 C2999 1.523 . S
C3001 C2985 1.429 . S
C3001 C2997 1.429 . S
C3001 C3002 1.523 . S
C3002 C2986 1.368 . S
C3002 C2998 1.368 . S
C3002 C3001 1.523 . S
H3003 C2978 0.950 . S
H3004 C2980 0.950 . S
H3005 C2981 0.949 . S
H3006 C2983 0.950 . S
H3007 C2985 0.950 . S
C3008 C3009 1.349 . S
C3008 C3010 1.327 . S
C3008 H3033 0.950 . S
C3009 C3008 1.349 . S
C3009 C3025 1.349 . S
C3010 C3008 1.327 . S
C3010 C3029 1.429 . S
C3010 H3034 0.950 . S
C3011 C3028 1.574 . S
C3011 C3030 1.368 . S
C3011 H3035 0.949 . S
H3012 C3016 0.949 . S
C3013 C3014 1.349 . S
C3013 C3015 1.327 . S
C3013 H3036 0.950 . S
C3014 C3013 1.349 . S
C3014 C3026 1.349 . S
C3015 C3013 1.327 . S
C3015 C3031 1.429 . S
C3015 H3037 0.950 . S
C3016 H3012 0.949 . S
C3016 C3024 1.574 . S
C3016 C3032 1.368 . S
H3017 C3025 0.950 . S
H3018 C3023 0.950 . S
H3019 C3024 0.949 . S
H3020 C3026 0.950 . S
H3021 C3027 0.950 . S
H3022 C3028 0.949 . S
C3023 H3018 0.950 . S
C3023 C3025 1.327 . S
C3023 C3029 1.429 . S
C3024 C3016 1.574 . S
C3024 H3019 0.949 . S
C3024 C3030 1.368 . S
C3025 C3009 1.349 . S
C3025 H3017 0.950 . S
C3025 C3023 1.327 . S
C3026 C3014 1.349 . S
C3026 H3020 0.950 . S
C3026 C3027 1.327 . S
C3027 H3021 0.950 . S
C3027 C3026 1.327 . S
C3027 C3031 1.429 . S
C3028 C3011 1.574 . S
C3028 H3022 0.949 . S
C3028 C3032 1.368 . S
C3029 C3010 1.429 . S
C3029 C3023 1.429 . S
C3029 C3030 1.523 . S
C3030 C3011 1.368 . S
C3030 C3024 1.368 . S
C3030 C3029 1.523 . S
C3031 C3015 1.429 . S
C3031 C3027 1.429 . S
C3031 C3032 1.523 . S
C3032 C3016 1.368 . S
C3032 C3028 1.368 . S
C3032 C3031 1.523 . S
H3033 C3008 0.950 . S
H3034 C3010 0.950 . S
H3035 C3011 0.949 . S
H3036 C3013 0.950 . S
H3037 C3015 0.950 . S
C3038 C3039 1.349 . S
C3038 C3040 1.327 . S
C3038 H3063 0.950 . S
C3039 C3038 1.349 . S
C3039 C3055 1.387 . S
C3040 C3038 1.327 . S
C3040 C3059 1.429 . S
C3040 H3064 0.950 . S
C3041 C3058 1.574 . S
C3041 C3060 1.368 1_545 S
C3041 H3065 0.949 . S
H3042 C3046 0.949 . S
C3043 C3044 1.349 . S
C3043 C3045 1.327 . S
C3043 H3066 0.950 . S
C3044 C3043 1.349 . S
C3044 C3056 1.387 . S
C3045 C3043 1.327 . S
C3045 C3061 1.429 . S
C3045 H3067 0.950 . S
C3046 H3042 0.949 . S
C3046 C3054 1.574 . S
C3046 C3062 1.368 1_565 S
H3047 C3055 0.923 1_545 S
H3048 C3053 0.950 . S
H3049 C3054 0.949 . S
H3050 C3056 0.923 1_565 S
H3051 C3057 0.950 . S
H3052 C3058 0.949 . S
C3053 H3048 0.950 . S
C3053 C3055 1.318 1_545 S
C3053 C3059 1.429 1_545 S
C3054 C3046 1.574 . S
C3054 H3049 0.949 . S
C3054 C3060 1.368 1_655 S
C3055 C3039 1.387 . S
C3055 H3047 0.923 1_565 S
C3055 C3053 1.318 1_565 S
C3056 C3044 1.387 . S
C3056 H3050 0.923 1_545 S
C3056 C3057 1.318 1_545 S
C3057 H3051 0.950 . S
C3057 C3056 1.318 1_565 S
C3057 C3061 1.429 1_565 S
C3058 C3041 1.574 . S
C3058 H3052 0.949 . S
C3058 C3062 1.368 1_455 S
C3059 C3040 1.429 . S
C3059 C3053 1.429 1_565 S
C3059 C3060 1.523 . S
C3060 C3041 1.368 1_565 S
C3060 C3054 1.368 1_455 S
C3060 C3059 1.523 . S
C3061 C3045 1.429 . S
C3061 C3057 1.429 1_545 S
C3061 C3062 1.523 . S
C3062 C3046 1.368 1_545 S
C3062 C3058 1.368 1_655 S
C3062 C3061 1.523 . S
H3063 C3038 0.950 . S
H3064 C3040 0.950 . S
H3065 C3041 0.949 . S
H3066 C3043 0.950 . S
H3067 C3045 0.950 . S
C3068 C3069 1.349 . S
C3068 C3070 1.327 . S
C3068 H3093 0.950 . S
C3069 C3068 1.349 . S
C3069 C3085 1.349 . S
C3070 C3068 1.327 . S
C3070 C3089 1.429 . S
C3070 H3094 0.950 . S
C3071 C3088 1.574 . S
C3071 C3090 1.368 . S
C3071 H3095 0.949 . S
H3072 C3076 0.949 . S
C3073 C3074 1.349 . S
C3073 C3075 1.327 . S
C3073 H3096 0.950 . S
C3074 C3073 1.349 . S
C3074 C3086 1.349 . S
C3075 C3073 1.327 . S
C3075 C3091 1.429 . S
C3075 H3097 0.950 . S
C3076 H3072 0.949 . S
C3076 C3084 1.574 . S
C3076 C3092 1.368 . S
H3077 C3085 0.950 . S
H3078 C3083 0.950 . S
H3079 C3084 0.949 . S
H3080 C3086 0.950 . S
H3081 C3087 0.950 . S
H3082 C3088 0.949 . S
C3083 H3078 0.950 . S
C3083 C3085 1.327 . S
C3083 C3089 1.429 . S
C3084 C3076 1.574 . S
C3084 H3079 0.949 . S
C3084 C3090 1.368 . S
C3085 C3069 1.349 . S
C3085 H3077 0.950 . S
C3085 C3083 1.327 . S
C3086 C3074 1.349 . S
C3086 H3080 0.950 . S
C3086 C3087 1.327 . S
C3087 H3081 0.950 . S
C3087 C3086 1.327 . S
C3087 C3091 1.429 . S
C3088 C3071 1.574 . S
C3088 H3082 0.949 . S
C3088 C3092 1.368 . S
C3089 C3070 1.429 . S
C3089 C3083 1.429 . S
C3089 C3090 1.523 . S
C3090 C3071 1.368 . S
C3090 C3084 1.368 . S
C3090 C3089 1.523 . S
C3091 C3075 1.429 . S
C3091 C3087 1.429 . S
C3091 C3092 1.523 . S
C3092 C3076 1.368 . S
C3092 C3088 1.368 . S
C3092 C3091 1.523 . S
H3093 C3068 0.950 . S
H3094 C3070 0.950 . S
H3095 C3071 0.949 . S
H3096 C3073 0.950 . S
H3097 C3075 0.950 . S
C3098 C3099 1.350 1_565 S
C3098 C3100 1.327 . S
C3098 H3123 0.949 . S
C3099 C3098 1.350 1_545 S
C3099 C3115 1.349 . S
C3100 C3098 1.327 . S
C3100 C3119 1.429 1_565 S
C3100 H3124 0.950 . S
C3101 C3118 1.574 1_554 S
C3101 C3120 1.368 . S
C3101 H3125 0.949 . S
H3102 C3106 0.949 . S
C3103 C3104 1.350 1_545 S
C3103 C3105 1.327 . S
C3103 H3126 0.949 . S
C3104 C3103 1.350 1_565 S
C3104 C3116 1.349 . S
C3105 C3103 1.327 . S
C3105 C3121 1.429 1_545 S
C3105 H3127 0.950 . S
C3106 H3102 0.949 . S
C3106 C3114 1.574 1_556 S
C3106 C3122 1.368 . S
H3107 C3115 0.950 . S
H3108 C3113 0.950 . S
H3109 C3114 0.949 . S
H3110 C3116 0.950 . S
H3111 C3117 0.950 . S
H3112 C3118 0.949 . S
C3113 H3108 0.950 . S
C3113 C3115 1.327 . S
C3113 C3119 1.429 . S
C3114 C3106 1.574 1_554 S
C3114 H3109 0.949 . S
C3114 C3120 1.368 1_565 S
C3115 C3099 1.349 . S
C3115 H3107 0.950 . S
C3115 C3113 1.327 . S
C3116 C3104 1.349 . S
C3116 H3110 0.950 . S
C3116 C3117 1.327 . S
C3117 H3111 0.950 . S
C3117 C3116 1.327 . S
C3117 C3121 1.429 . S
C3118 C3101 1.574 1_556 S
C3118 H3112 0.949 . S
C3118 C3122 1.368 1_545 S
C3119 C3100 1.429 1_545 S
C3119 C3113 1.429 . S
C3119 C3120 1.523 . S
C3120 C3101 1.368 . S
C3120 C3114 1.368 1_545 S
C3120 C3119 1.523 . S
C3121 C3105 1.429 1_565 S
C3121 C3117 1.429 . S
C3121 C3122 1.523 . S
C3122 C3106 1.368 . S
C3122 C3118 1.368 1_565 S
C3122 C3121 1.523 . S
H3123 C3098 0.949 . S
H3124 C3100 0.950 . S
H3125 C3101 0.949 . S
H3126 C3103 0.949 . S
H3127 C3105 0.950 . S
C3128 C3129 1.349 . S
C3128 C3130 1.327 . S
C3128 H3153 0.950 . S
C3129 C3128 1.349 . S
C3129 C3145 1.349 . S
C3130 C3128 1.327 . S
C3130 C3149 1.429 . S
C3130 H3154 0.950 . S
C3131 C3148 1.574 . S
C3131 C3150 1.368 . S
C3131 H3155 0.949 . S
H3132 C3136 0.949 . S
C3133 C3134 1.349 . S
C3133 C3135 1.327 . S
C3133 H3156 0.950 . S
C3134 C3133 1.349 . S
C3134 C3146 1.349 . S
C3135 C3133 1.327 . S
C3135 C3151 1.429 . S
C3135 H3157 0.950 . S
C3136 H3132 0.949 . S
C3136 C3144 1.574 . S
C3136 C3152 1.368 . S
H3137 C3145 0.950 . S
H3138 C3143 0.950 . S
H3139 C3144 0.949 . S
H3140 C3146 0.950 . S
H3141 C3147 0.950 . S
H3142 C3148 0.949 . S
C3143 H3138 0.950 . S
C3143 C3145 1.327 . S
C3143 C3149 1.429 . S
C3144 C3136 1.574 . S
C3144 H3139 0.949 . S
C3144 C3150 1.368 . S
C3145 C3129 1.349 . S
C3145 H3137 0.950 . S
C3145 C3143 1.327 . S
C3146 C3134 1.349 . S
C3146 H3140 0.950 . S
C3146 C3147 1.327 . S
C3147 H3141 0.950 . S
C3147 C3146 1.327 . S
C3147 C3151 1.429 . S
C3148 C3131 1.574 . S
C3148 H3142 0.949 . S
C3148 C3152 1.368 . S
C3149 C3130 1.429 . S
C3149 C3143 1.429 . S
C3149 C3150 1.523 . S
C3150 C3131 1.368 . S
C3150 C3144 1.368 . S
C3150 C3149 1.523 . S
C3151 C3135 1.429 . S
C3151 C3147 1.429 . S
C3151 C3152 1.523 . S
C3152 C3136 1.368 . S
C3152 C3148 1.368 . S
C3152 C3151 1.523 . S
H3153 C3128 0.950 . S
H3154 C3130 0.950 . S
H3155 C3131 0.949 . S
H3156 C3133 0.950 . S
H3157 C3135 0.950 . S
C3158 C3159 1.349 . S
C3158 C3160 1.327 . S
C3158 H3183 0.950 . S
C3159 C3158 1.349 . S
C3159 C3175 1.381 . S
C3160 C3158 1.327 . S
C3160 C3179 1.429 . S
C3160 H3184 0.950 . S
C3161 C3178 1.574 . S
C3161 C3180 1.368 1_565 S
C3161 H3185 0.949 . S
H3162 C3166 0.949 . S
C3163 C3164 1.349 . S
C3163 C3165 1.327 . S
C3163 H3186 0.950 . S
C3164 C3163 1.349 . S
C3164 C3176 1.381 . S
C3165 C3163 1.327 . S
C3165 C3181 1.429 . S
C3165 H3187 0.950 . S
C3166 H3162 0.949 . S
C3166 C3174 1.574 . S
C3166 C3182 1.368 1_545 S
H3167 C3175 0.927 1_565 S
H3168 C3173 0.950 . S
H3169 C3174 0.949 . S
H3170 C3176 0.927 1_545 S
H3171 C3177 0.950 . S
H3172 C3178 0.949 . S
C3173 H3168 0.950 . S
C3173 C3175 1.319 1_565 S
C3173 C3179 1.429 1_565 S
C3174 C3166 1.574 . S
C3174 H3169 0.949 . S
C3174 C3180 1.368 . S
C3175 C3159 1.381 . S
C3175 H3167 0.927 1_545 S
C3175 C3173 1.319 1_545 S
C3176 C3164 1.381 . S
C3176 H3170 0.927 1_565 S
C3176 C3177 1.319 1_565 S
C3177 H3171 0.950 . S
C3177 C3176 1.319 1_545 S
C3177 C3181 1.429 1_545 S
C3178 C3161 1.574 . S
C3178 H3172 0.949 . S
C3178 C3182 1.368 . S
C3179 C3160 1.429 . S
C3179 C3173 1.429 1_545 S
C3179 C3180 1.523 . S
C3180 C3161 1.368 1_545 S
C3180 C3174 1.368 . S
C3180 C3179 1.523 . S
C3181 C3165 1.429 . S
C3181 C3177 1.429 1_565 S
C3181 C3182 1.523 . S
C3182 C3166 1.368 1_565 S
C3182 C3178 1.368 . S
C3182 C3181 1.523 . S
H3183 C3158 0.950 . S
H3184 C3160 0.950 . S
H3185 C3161 0.949 . S
H3186 C3163 0.950 . S
H3187 C3165 0.950 . S
C3188 C3189 1.349 . S
C3188 C3190 1.327 . S
C3188 H3213 0.950 . S
C3189 C3188 1.349 . S
C3189 C3205 1.349 . S
C3190 C3188 1.327 . S
C3190 C3209 1.429 . S
C3190 H3214 0.950 . S
C3191 C3208 1.574 . S
C3191 C3210 1.368 . S
C3191 H3215 0.949 . S
H3192 C3196 0.949 . S
C3193 C3194 1.349 . S
C3193 C3195 1.327 . S
C3193 H3216 0.950 . S
C3194 C3193 1.349 . S
C3194 C3206 1.349 . S
C3195 C3193 1.327 . S
C3195 C3211 1.429 . S
C3195 H3217 0.950 . S
C3196 H3192 0.949 . S
C3196 C3204 1.574 . S
C3196 C3212 1.368 . S
H3197 C3205 0.950 . S
H3198 C3203 0.950 . S
H3199 C3204 0.949 . S
H3200 C3206 0.950 . S
H3201 C3207 0.950 . S
H3202 C3208 0.949 . S
C3203 H3198 0.950 . S
C3203 C3205 1.327 . S
C3203 C3209 1.429 . S
C3204 C3196 1.574 . S
C3204 H3199 0.949 . S
C3204 C3210 1.368 . S
C3205 C3189 1.349 . S
C3205 H3197 0.950 . S
C3205 C3203 1.327 . S
C3206 C3194 1.349 . S
C3206 H3200 0.950 . S
C3206 C3207 1.327 . S
C3207 H3201 0.950 . S
C3207 C3206 1.327 . S
C3207 C3211 1.429 . S
C3208 C3191 1.574 . S
C3208 H3202 0.949 . S
C3208 C3212 1.368 . S
C3209 C3190 1.429 . S
C3209 C3203 1.429 . S
C3209 C3210 1.523 . S
C3210 C3191 1.368 . S
C3210 C3204 1.368 . S
C3210 C3209 1.523 . S
C3211 C3195 1.429 . S
C3211 C3207 1.429 . S
C3211 C3212 1.523 . S
C3212 C3196 1.368 . S
C3212 C3208 1.368 . S
C3212 C3211 1.523 . S
H3213 C3188 0.950 . S
H3214 C3190 0.950 . S
H3215 C3191 0.949 . S
H3216 C3193 0.950 . S
H3217 C3195 0.950 . S
C3218 C3219 1.349 . S
C3218 C3220 1.327 1_565 S
C3218 H3243 0.950 1_565 S
C3219 C3218 1.349 . S
C3219 C3235 1.349 . S
C3220 C3218 1.327 1_545 S
C3220 C3239 1.429 1_545 S
C3220 H3244 0.950 . S
C3221 C3238 1.574 . S
C3221 C3240 1.368 1_556 S
C3221 H3245 0.949 . S
H3222 C3226 0.949 . S
C3223 C3224 1.349 . S
C3223 C3225 1.327 1_545 S
C3223 H3246 0.950 1_545 S
C3224 C3223 1.349 . S
C3224 C3236 1.349 . S
C3225 C3223 1.327 1_565 S
C3225 C3241 1.429 1_565 S
C3225 H3247 0.950 . S
C3226 H3222 0.949 . S
C3226 C3234 1.574 . S
C3226 C3242 1.368 1_554 S
H3227 C3235 0.950 . S
H3228 C3233 0.950 . S
H3229 C3234 0.949 . S
H3230 C3236 0.950 . S
H3231 C3237 0.950 . S
H3232 C3238 0.949 . S
C3233 H3228 0.950 . S
C3233 C3235 1.327 . S
C3233 C3239 1.429 . S
C3234 C3226 1.574 . S
C3234 H3229 0.949 . S
C3234 C3240 1.368 1_445 S
C3235 C3219 1.349 . S
C3235 H3227 0.950 . S
C3235 C3233 1.327 . S
C3236 C3224 1.349 . S
C3236 H3230 0.950 . S
C3236 C3237 1.327 . S
C3237 H3231 0.950 . S
C3237 C3236 1.327 . S
C3237 C3241 1.429 . S
C3238 C3221 1.574 . S
C3238 H3232 0.949 . S
C3238 C3242 1.368 1_665 S
C3239 C3220 1.429 1_565 S
C3239 C3233 1.429 . S
C3239 C3240 1.523 . S
C3240 C3221 1.368 1_554 S
C3240 C3234 1.368 1_665 S
C3240 C3239 1.523 . S
C3241 C3225 1.429 1_545 S
C3241 C3237 1.429 . S
C3241 C3242 1.523 . S
C3242 C3226 1.368 1_556 S
C3242 C3238 1.368 1_445 S
C3242 C3241 1.523 . S
H3243 C3218 0.950 1_545 S
H3244 C3220 0.950 . S
H3245 C3221 0.949 . S
H3246 C3223 0.950 1_565 S
H3247 C3225 0.950 . S
C3248 C3249 1.349 . S
C3248 C3250 1.327 . S
C3248 H3273 0.950 . S
C3249 C3248 1.349 . S
C3249 C3265 1.349 . S
C3250 C3248 1.327 . S
C3250 C3269 1.429 . S
C3250 H3274 0.950 . S
C3251 C3268 1.574 . S
C3251 C3270 1.368 . S
C3251 H3275 0.949 . S
H3252 C3256 0.949 . S
C3253 C3254 1.349 . S
C3253 C3255 1.327 . S
C3253 H3276 0.950 . S
C3254 C3253 1.349 . S
C3254 C3266 1.349 . S
C3255 C3253 1.327 . S
C3255 C3271 1.429 . S
C3255 H3277 0.950 . S
C3256 H3252 0.949 . S
C3256 C3264 1.574 . S
C3256 C3272 1.368 . S
H3257 C3265 0.950 . S
H3258 C3263 0.950 . S
H3259 C3264 0.949 . S
H3260 C3266 0.950 . S
H3261 C3267 0.950 . S
H3262 C3268 0.949 . S
C3263 H3258 0.950 . S
C3263 C3265 1.327 . S
C3263 C3269 1.429 . S
C3264 C3256 1.574 . S
C3264 H3259 0.949 . S
C3264 C3270 1.368 . S
C3265 C3249 1.349 . S
C3265 H3257 0.950 . S
C3265 C3263 1.327 . S
C3266 C3254 1.349 . S
C3266 H3260 0.950 . S
C3266 C3267 1.327 . S
C3267 H3261 0.950 . S
C3267 C3266 1.327 . S
C3267 C3271 1.429 . S
C3268 C3251 1.574 . S
C3268 H3262 0.949 . S
C3268 C3272 1.368 . S
C3269 C3250 1.429 . S
C3269 C3263 1.429 . S
C3269 C3270 1.523 . S
C3270 C3251 1.368 . S
C3270 C3264 1.368 . S
C3270 C3269 1.523 . S
C3271 C3255 1.429 . S
C3271 C3267 1.429 . S
C3271 C3272 1.523 . S
C3272 C3256 1.368 . S
C3272 C3268 1.368 . S
C3272 C3271 1.523 . S
H3273 C3248 0.950 . S
H3274 C3250 0.950 . S
H3275 C3251 0.949 . S
H3276 C3253 0.950 . S
H3277 C3255 0.950 . S
C3278 C3279 1.349 . S
C3278 C3280 1.327 . S
C3278 H3303 0.950 . S
C3279 C3278 1.349 . S
C3279 C3295 1.349 . S
C3280 C3278 1.327 . S
C3280 C3299 1.429 . S
C3280 H3304 0.950 . S
C3281 C3298 1.574 . S
C3281 C3300 1.368 . S
C3281 H3305 0.949 . S
H3282 C3286 0.949 . S
C3283 C3284 1.349 . S
C3283 C3285 1.327 . S
C3283 H3306 0.950 . S
C3284 C3283 1.349 . S
C3284 C3296 1.349 . S
C3285 C3283 1.327 . S
C3285 C3301 1.429 . S
C3285 H3307 0.950 . S
C3286 H3282 0.949 . S
C3286 C3294 1.574 . S
C3286 C3302 1.368 . S
H3287 C3295 0.950 . S
H3288 C3293 0.950 . S
H3289 C3294 0.949 . S
H3290 C3296 0.950 . S
H3291 C3297 0.950 . S
H3292 C3298 0.949 . S
C3293 H3288 0.950 . S
C3293 C3295 1.327 . S
C3293 C3299 1.429 . S
C3294 C3286 1.574 . S
C3294 H3289 0.949 . S
C3294 C3300 1.368 . S
C3295 C3279 1.349 . S
C3295 H3287 0.950 . S
C3295 C3293 1.327 . S
C3296 C3284 1.349 . S
C3296 H3290 0.950 . S
C3296 C3297 1.327 . S
C3297 H3291 0.950 . S
C3297 C3296 1.327 . S
C3297 C3301 1.429 . S
C3298 C3281 1.574 . S
C3298 H3292 0.949 . S
C3298 C3302 1.368 . S
C3299 C3280 1.429 . S
C3299 C3293 1.429 . S
C3299 C3300 1.523 . S
C3300 C3281 1.368 . S
C3300 C3294 1.368 . S
C3300 C3299 1.523 . S
C3301 C3285 1.429 . S
C3301 C3297 1.429 . S
C3301 C3302 1.523 . S
C3302 C3286 1.368 . S
C3302 C3298 1.368 . S
C3302 C3301 1.523 . S
H3303 C3278 0.950 . S
H3304 C3280 0.950 . S
H3305 C3281 0.949 . S
H3306 C3283 0.950 . S
H3307 C3285 0.950 . S
C3308 C3309 1.349 . S
C3308 C3310 1.327 . S
C3308 H3333 0.950 . S
C3309 C3308 1.349 . S
C3309 C3325 1.349 . S
C3310 C3308 1.327 . S
C3310 C3329 1.429 . S
C3310 H3334 0.950 . S
C3311 C3328 1.574 . S
C3311 C3330 1.368 . S
C3311 H3335 0.949 . S
H3312 C3316 0.949 . S
C3313 C3314 1.349 . S
C3313 C3315 1.327 . S
C3313 H3336 0.950 . S
C3314 C3313 1.349 . S
C3314 C3326 1.349 . S
C3315 C3313 1.327 . S
C3315 C3331 1.429 . S
C3315 H3337 0.950 . S
C3316 H3312 0.949 . S
C3316 C3324 1.574 . S
C3316 C3332 1.368 . S
H3317 C3325 0.950 . S
H3318 C3323 0.950 . S
H3319 C3324 0.949 . S
H3320 C3326 0.950 . S
H3321 C3327 0.950 . S
H3322 C3328 0.949 . S
C3323 H3318 0.950 . S
C3323 C3325 1.327 . S
C3323 C3329 1.429 . S
C3324 C3316 1.574 . S
C3324 H3319 0.949 . S
C3324 C3330 1.368 . S
C3325 C3309 1.349 . S
C3325 H3317 0.950 . S
C3325 C3323 1.327 . S
C3326 C3314 1.349 . S
C3326 H3320 0.950 . S
C3326 C3327 1.327 . S
C3327 H3321 0.950 . S
C3327 C3326 1.327 . S
C3327 C3331 1.429 . S
C3328 C3311 1.574 . S
C3328 H3322 0.949 . S
C3328 C3332 1.368 . S
C3329 C3310 1.429 . S
C3329 C3323 1.429 . S
C3329 C3330 1.523 . S
C3330 C3311 1.368 . S
C3330 C3324 1.368 . S
C3330 C3329 1.523 . S
C3331 C3315 1.429 . S
C3331 C3327 1.429 . S
C3331 C3332 1.523 . S
C3332 C3316 1.368 . S
C3332 C3328 1.368 . S
C3332 C3331 1.523 . S
H3333 C3308 0.950 . S
H3334 C3310 0.950 . S
H3335 C3311 0.949 . S
H3336 C3313 0.950 . S
H3337 C3315 0.950 . S
C3338 C3339 1.349 . S
C3338 C3340 1.327 . S
C3338 H3363 0.950 . S
C3339 C3338 1.349 . S
C3339 C3355 1.349 . S
C3340 C3338 1.327 . S
C3340 C3359 1.429 . S
C3340 H3364 0.950 . S
C3341 C3358 1.574 . S
C3341 C3360 1.368 . S
C3341 H3365 0.949 . S
H3342 C3346 0.949 . S
C3343 C3344 1.349 . S
C3343 C3345 1.327 . S
C3343 H3366 0.950 . S
C3344 C3343 1.349 . S
C3344 C3356 1.349 . S
C3345 C3343 1.327 . S
C3345 C3361 1.429 . S
C3345 H3367 0.950 . S
C3346 H3342 0.949 . S
C3346 C3354 1.574 . S
C3346 C3362 1.368 . S
H3347 C3355 0.950 . S
H3348 C3353 0.950 . S
H3349 C3354 0.949 . S
H3350 C3356 0.950 . S
H3351 C3357 0.950 . S
H3352 C3358 0.949 . S
C3353 H3348 0.950 . S
C3353 C3355 1.327 . S
C3353 C3359 1.429 . S
C3354 C3346 1.574 . S
C3354 H3349 0.949 . S
C3354 C3360 1.368 . S
C3355 C3339 1.349 . S
C3355 H3347 0.950 . S
C3355 C3353 1.327 . S
C3356 C3344 1.349 . S
C3356 H3350 0.950 . S
C3356 C3357 1.327 . S
C3357 H3351 0.950 . S
C3357 C3356 1.327 . S
C3357 C3361 1.429 . S
C3358 C3341 1.574 . S
C3358 H3352 0.949 . S
C3358 C3362 1.368 . S
C3359 C3340 1.429 . S
C3359 C3353 1.429 . S
C3359 C3360 1.523 . S
C3360 C3341 1.368 . S
C3360 C3354 1.368 . S
C3360 C3359 1.523 . S
C3361 C3345 1.429 . S
C3361 C3357 1.429 . S
C3361 C3362 1.523 . S
C3362 C3346 1.368 . S
C3362 C3358 1.368 . S
C3362 C3361 1.523 . S
H3363 C3338 0.950 . S
H3364 C3340 0.950 . S
H3365 C3341 0.949 . S
H3366 C3343 0.950 . S
H3367 C3345 0.950 . S
C3368 C3369 1.349 . S
C3368 C3370 1.327 . S
C3368 H3393 0.950 . S
C3369 C3368 1.349 . S
C3369 C3385 1.349 . S
C3370 C3368 1.327 . S
C3370 C3389 1.429 . S
C3370 H3394 0.950 . S
C3371 C3388 1.574 . S
C3371 C3390 1.368 . S
C3371 H3395 0.949 . S
H3372 C3376 0.949 . S
C3373 C3374 1.349 . S
C3373 C3375 1.327 . S
C3373 H3396 0.950 . S
C3374 C3373 1.349 . S
C3374 C3386 1.349 . S
C3375 C3373 1.327 . S
C3375 C3391 1.429 . S
C3375 H3397 0.950 . S
C3376 H3372 0.949 . S
C3376 C3384 1.574 . S
C3376 C3392 1.368 . S
H3377 C3385 0.950 . S
H3378 C3383 0.950 . S
H3379 C3384 0.949 . S
H3380 C3386 0.950 . S
H3381 C3387 0.950 . S
H3382 C3388 0.949 . S
C3383 H3378 0.950 . S
C3383 C3385 1.327 . S
C3383 C3389 1.429 . S
C3384 C3376 1.574 . S
C3384 H3379 0.949 . S
C3384 C3390 1.368 1_554 S
C3385 C3369 1.349 . S
C3385 H3377 0.950 . S
C3385 C3383 1.327 . S
C3386 C3374 1.349 . S
C3386 H3380 0.950 . S
C3386 C3387 1.327 . S
C3387 H3381 0.950 . S
C3387 C3386 1.327 . S
C3387 C3391 1.429 . S
C3388 C3371 1.574 . S
C3388 H3382 0.949 . S
C3388 C3392 1.368 1_556 S
C3389 C3370 1.429 . S
C3389 C3383 1.429 . S
C3389 C3390 1.523 . S
C3390 C3371 1.368 . S
C3390 C3384 1.368 1_556 S
C3390 C3389 1.523 . S
C3391 C3375 1.429 . S
C3391 C3387 1.429 . S
C3391 C3392 1.523 . S
C3392 C3376 1.368 . S
C3392 C3388 1.368 1_554 S
C3392 C3391 1.523 . S
H3393 C3368 0.950 . S
H3394 C3370 0.950 . S
H3395 C3371 0.949 . S
H3396 C3373 0.950 . S
H3397 C3375 0.950 . S
C3398 C3399 1.349 . S
C3398 C3400 1.327 . S
C3398 H3423 0.950 . S
C3399 C3398 1.349 . S
C3399 C3415 1.349 . S
C3400 C3398 1.327 . S
C3400 C3419 1.429 . S
C3400 H3424 0.950 . S
C3401 C3418 1.574 . S
C3401 C3420 1.368 1_655 S
C3401 H3425 0.949 . S
H3402 C3406 0.949 . S
C3403 C3404 1.349 . S
C3403 C3405 1.327 . S
C3403 H3426 0.950 . S
C3404 C3403 1.349 . S
C3404 C3416 1.349 . S
C3405 C3403 1.327 . S
C3405 C3421 1.429 . S
C3405 H3427 0.950 . S
C3406 H3402 0.949 . S
C3406 C3414 1.574 . S
C3406 C3422 1.368 1_455 S
H3407 C3415 0.950 . S
H3408 C3413 0.950 . S
H3409 C3414 0.949 . S
H3410 C3416 0.950 . S
H3411 C3417 0.950 . S
H3412 C3418 0.949 . S
C3413 H3408 0.950 . S
C3413 C3415 1.327 . S
C3413 C3419 1.429 . S
C3414 C3406 1.574 . S
C3414 H3409 0.949 . S
C3414 C3420 1.368 . S
C3415 C3399 1.349 . S
C3415 H3407 0.950 . S
C3415 C3413 1.327 . S
C3416 C3404 1.349 . S
C3416 H3410 0.950 . S
C3416 C3417 1.327 . S
C3417 H3411 0.950 . S
C3417 C3416 1.327 . S
C3417 C3421 1.429 . S
C3418 C3401 1.574 . S
C3418 H3412 0.949 . S
C3418 C3422 1.368 . S
C3419 C3400 1.429 . S
C3419 C3413 1.429 . S
C3419 C3420 1.523 . S
C3420 C3401 1.368 1_455 S
C3420 C3414 1.368 . S
C3420 C3419 1.523 . S
C3421 C3405 1.429 . S
C3421 C3417 1.429 . S
C3421 C3422 1.523 . S
C3422 C3406 1.368 1_655 S
C3422 C3418 1.368 . S
C3422 C3421 1.523 . S
H3423 C3398 0.950 . S
H3424 C3400 0.950 . S
H3425 C3401 0.949 . S
H3426 C3403 0.950 . S
H3427 C3405 0.950 . S
C3428 C3429 1.349 . S
C3428 C3430 1.327 . S
C3428 H3453 0.950 . S
C3429 C3428 1.349 . S
C3429 C3445 1.349 . S
C3430 C3428 1.327 . S
C3430 C3449 1.429 . S
C3430 H3454 0.950 . S
C3431 C3448 1.594 1_455 S
C3431 C3450 1.349 1_556 S
C3431 H3455 0.949 . S
H3432 C3436 0.949 . S
C3433 C3434 1.349 . S
C3433 C3435 1.327 . S
C3433 H3456 0.950 . S
C3434 C3433 1.349 . S
C3434 C3446 1.349 . S
C3435 C3433 1.327 . S
C3435 C3451 1.429 . S
C3435 H3457 0.950 . S
C3436 H3432 0.949 . S
C3436 C3444 1.594 1_655 S
C3436 C3452 1.349 1_554 S
H3437 C3445 0.950 . S
H3438 C3443 0.950 . S
H3439 C3444 0.949 . S
H3440 C3446 0.950 . S
H3441 C3447 0.950 . S
H3442 C3448 0.949 . S
C3443 H3438 0.950 . S
C3443 C3445 1.327 . S
C3443 C3449 1.429 . S
C3444 C3436 1.594 1_455 S
C3444 H3439 0.949 . S
C3444 C3450 1.368 . S
C3445 C3429 1.349 . S
C3445 H3437 0.950 . S
C3445 C3443 1.327 . S
C3446 C3434 1.349 . S
C3446 H3440 0.950 . S
C3446 C3447 1.327 . S
C3447 H3441 0.950 . S
C3447 C3446 1.327 . S
C3447 C3451 1.429 . S
C3448 C3431 1.594 1_655 S
C3448 H3442 0.949 . S
C3448 C3452 1.368 . S
C3449 C3430 1.429 . S
C3449 C3443 1.429 . S
C3449 C3450 1.523 . S
C3450 C3431 1.349 1_554 S
C3450 C3444 1.368 . S
C3450 C3449 1.523 . S
C3451 C3435 1.429 . S
C3451 C3447 1.429 . S
C3451 C3452 1.523 . S
C3452 C3436 1.349 1_556 S
C3452 C3448 1.368 . S
C3452 C3451 1.523 . S
H3453 C3428 0.950 . S
H3454 C3430 0.950 . S
H3455 C3431 0.949 . S
H3456 C3433 0.950 . S
H3457 C3435 0.950 . S
C3458 C3459 1.349 . S
C3458 C3460 1.327 . S
C3458 H3483 0.950 . S
C3459 C3458 1.349 . S
C3459 C3475 1.349 . S
C3460 C3458 1.327 . S
C3460 C3479 1.429 . S
C3460 H3484 0.950 . S
C3461 C3478 1.574 . S
C3461 C3480 1.368 . S
C3461 H3485 0.949 . S
H3462 C3466 0.949 . S
C3463 C3464 1.349 . S
C3463 C3465 1.327 . S
C3463 H3486 0.950 . S
C3464 C3463 1.349 . S
C3464 C3476 1.349 . S
C3465 C3463 1.327 . S
C3465 C3481 1.429 . S
C3465 H3487 0.950 . S
C3466 H3462 0.949 . S
C3466 C3474 1.574 . S
C3466 C3482 1.368 . S
H3467 C3475 0.950 . S
H3468 C3473 0.950 . S
H3469 C3474 0.949 . S
H3470 C3476 0.950 . S
H3471 C3477 0.950 . S
H3472 C3478 0.949 . S
C3473 H3468 0.950 . S
C3473 C3475 1.327 . S
C3473 C3479 1.429 . S
C3474 C3466 1.574 . S
C3474 H3469 0.949 . S
C3474 C3480 1.368 . S
C3475 C3459 1.349 . S
C3475 H3467 0.950 . S
C3475 C3473 1.327 . S
C3476 C3464 1.349 . S
C3476 H3470 0.950 . S
C3476 C3477 1.327 . S
C3477 H3471 0.950 . S
C3477 C3476 1.327 . S
C3477 C3481 1.429 . S
C3478 C3461 1.574 . S
C3478 H3472 0.949 . S
C3478 C3482 1.368 . S
C3479 C3460 1.429 . S
C3479 C3473 1.429 . S
C3479 C3480 1.523 . S
C3480 C3461 1.368 . S
C3480 C3474 1.368 . S
C3480 C3479 1.523 . S
C3481 C3465 1.429 . S
C3481 C3477 1.429 . S
C3481 C3482 1.523 . S
C3482 C3466 1.368 . S
C3482 C3478 1.368 . S
C3482 C3481 1.523 . S
H3483 C3458 0.950 . S
H3484 C3460 0.950 . S
H3485 C3461 0.949 . S
H3486 C3463 0.950 . S
H3487 C3465 0.950 . S
C1089 C9 1.431 . S
C1094 C920 1.463 . S
C1119 C43 1.432 . S
C1124 C274 1.463 . S
C1149 C852 1.464 . S
C1154 C77 1.432 . S
C1179 C342 1.463 . S
C1184 C111 1.432 . S
C1209 C988 1.463 . S
C1214 C145 1.432 . S
C1239 C179 1.432 . S
C1244 C478 1.463 . S
C1269 C213 1.432 . S
C1274 C1056 1.463 . S
C1299 C410 1.464 . S
C1304 C247 1.432 . S
C1329 C281 1.431 . S
C1334 C648 1.463 . S
C1359 C315 1.432 . S
C1364 C2 1.463 . S
C1389 C349 1.432 . S
C1394 C580 1.464 . S
C1419 C70 1.463 . S
C1424 C383 1.432 . S
C1449 C417 1.432 . S
C1454 C716 1.463 . S
C1479 C451 1.432 . S
C1484 C206 1.463 . S
C1509 C784 1.463 . S
C1514 C485 1.432 . S
C1539 C519 1.432 . S
C1544 C138 1.464 . S
C1569 C553 1.432 . S
C1574 C376 1.463 . S
C1599 C818 1.464 . S
C1604 C587 1.432 . S
C1629 C308 1.464 . S
C1634 C621 1.432 . S
C1659 C655 1.432 . S
C1664 C886 1.464 . S
C1689 C689 1.432 . S
C1694 C444 1.463 . S
C1719 C1022 1.464 . S
C1724 C723 1.432 . S
C1749 C757 1.432 . S
C1754 C512 1.464 . S
C1779 C954 1.464 . S
C1784 C791 1.432 . S
C1809 C825 1.432 . S
C1814 C104 1.463 . S
C1839 C546 1.464 . S
C1844 C859 1.432 . S
C1869 C893 1.432 . S
C1874 C36 1.464 . S
C1899 C614 1.464 . S
C1904 C927 1.432 . S
C1929 C961 1.432 . S
C1934 C172 1.463 . S
C1959 C750 1.464 . S
C1964 C995 1.432 . S
C1989 C240 1.464 . S
C1994 C1029 1.432 . S
C2019 C1063 1.432 . S
C2024 C682 1.464 . S
C2049 C5 1.691 . S
C2054 C141 1.691 . S
C2079 C39 1.691 . S
C2084 C175 1.691 . S
C2109 C209 1.691 . S
C2114 C73 1.691 . S
C2139 C107 1.691 . S
C2144 C243 1.691 . S
C2169 C277 1.691 . S
C2174 C413 1.691 . S
C2199 C311 1.691 . S
C2204 C447 1.691 . S
C2229 C345 1.691 . S
C2234 C481 1.691 . S
C2259 C379 1.691 . S
C2264 C515 1.691 . S
C2289 C549 1.691 . S
C2294 C685 1.691 . S
C2319 C719 1.691 . S
C2324 C583 1.691 . S
C2349 C753 1.691 . S
C2354 C617 1.691 . S
C2379 C787 1.692 . S
C2384 C651 1.692 . S
C2409 C957 1.691 . S
C2414 C821 1.691 . S
C2439 C855 1.691 . S
C2444 C991 1.691 . S
C2469 C889 1.691 . S
C2474 C1025 1.691 . S
C2499 C1059 1.692 . S
C2504 C923 1.692 . S
C2529 C203 1.204 . S
C2534 C33 1.204 . S
C2559 C237 1.204 . S
C2564 C67 1.204 . S
C2589 C271 1.204 . S
C2594 C101 1.204 . S
C2619 C169 1.204 . S
C2624 C135 1.204 . S
C2649 C475 1.204 . S
C2654 C305 1.204 . S
C2679 C509 1.204 . S
C2684 C339 1.204 . S
C2709 C373 1.204 . S
C2714 C543 1.204 . S
C2739 C407 1.204 . S
C2744 C441 1.204 . S
C2769 C747 1.204 . S
C2774 C577 1.204 . S
C2799 C611 1.204 . S
C2804 C781 1.204 . S
C2829 C815 1.204 . S
C2834 C645 1.204 . S
C2859 C679 1.204 . S
C2864 C713 1.204 . S
C2889 C1019 1.204 . S
C2894 C849 1.204 . S
C2919 C883 1.204 . S
C2924 C1053 1.204 . S
C2949 C917 1.204 . S
C2954 C1087 1.204 . S
C2979 C985 1.204 . S
C2984 C951 1.204 . S
C3009 C836 1.246 . S
C3014 C20 1.246 . S
C3039 C54 1.246 . S
C3044 C326 1.246 . S
C3069 C88 1.245 . S
C3074 C904 1.245 . S
C3099 C122 1.246 . S
C3104 C394 1.246 . S
C3129 C156 1.246 . S
C3134 C972 1.246 . S
C3159 C462 1.246 . S
C3164 C190 1.246 . S
C3189 C1040 1.245 . S
C3194 C224 1.245 . S
C3219 C530 1.246 . S
C3224 C258 1.246 . S
C3249 C292 1.246 . S
C3254 C564 1.246 . S
C3279 C632 1.245 . S
C3284 C360 1.245 . S
C3309 C428 1.246 . S
C3314 C700 1.246 . S
C3339 C496 1.245 . S
C3344 C768 1.245 . S
C3369 C870 1.245 . S
C3374 C598 1.245 . S
C3399 C938 1.246 . S
C3404 C666 1.246 . S
C3429 C1006 1.245 . S
C3434 C734 1.245 . S
C3459 C802 1.245 . S
C3464 C1074 1.245 . S
