# Generated by pormake.
# Topology ict, (4)-cn, num edge types: 1
# Building blocks:
#     Node 0, Type 0, BuildingBlock: QUQFOY_clean_sbu_1, # of connection points: 4
#     Node 1, Type 0, BuildingBlock: QUQFOY_clean_sbu_1, # of connection points: 4
#     Node 2, Type 0, BuildingBlock: QUQFOY_clean_sbu_1, # of connection points: 4
#     Node 3, Type 0, BuildingBlock: QUQFOY_clean_sbu_1, # of connection points: 4
#     Node 4, Type 0, BuildingBlock: QUQFOY_clean_sbu_1, # of connection points: 4
#     Node 5, Type 0, BuildingBlock: QUQFOY_clean_sbu_1, # of connection points: 4
#     Node 6, Type 0, BuildingBlock: QUQFOY_clean_sbu_1, # of connection points: 4
#     Node 7, Type 0, BuildingBlock: QUQFOY_clean_sbu_1, # of connection points: 4
#     Node 8, Type 0, BuildingBlock: QUQFOY_clean_sbu_1, # of connection points: 4
#     Node 9, Type 0, BuildingBlock: QUQFOY_clean_sbu_1, # of connection points: 4
#     Node 10, Type 0, BuildingBlock: QUQFOY_clean_sbu_1, # of connection points: 4
#     Node 11, Type 0, BuildingBlock: QUQFOY_clean_sbu_1, # of connection points: 4
#     Node 12, Type 0, BuildingBlock: QUQFOY_clean_sbu_1, # of connection points: 4
#     Node 13, Type 0, BuildingBlock: QUQFOY_clean_sbu_1, # of connection points: 4
#     Node 14, Type 0, BuildingBlock: QUQFOY_clean_sbu_1, # of connection points: 4
#     Node 15, Type 0, BuildingBlock: QUQFOY_clean_sbu_1, # of connection points: 4
#     Node 16, Type 0, BuildingBlock: QUQFOY_clean_sbu_1, # of connection points: 4
#     Node 17, Type 0, BuildingBlock: QUQFOY_clean_sbu_1, # of connection points: 4
#     Node 18, Type 0, BuildingBlock: QUQFOY_clean_sbu_1, # of connection points: 4
#     Node 19, Type 0, BuildingBlock: QUQFOY_clean_sbu_1, # of connection points: 4
#     Node 20, Type 0, BuildingBlock: QUQFOY_clean_sbu_1, # of connection points: 4
#     Node 21, Type 0, BuildingBlock: QUQFOY_clean_sbu_1, # of connection points: 4
#     Node 22, Type 0, BuildingBlock: QUQFOY_clean_sbu_1, # of connection points: 4
#     Node 23, Type 0, BuildingBlock: QUQFOY_clean_sbu_1, # of connection points: 4
#     Node 24, Type 0, BuildingBlock: QUQFOY_clean_sbu_1, # of connection points: 4
#     Node 25, Type 0, BuildingBlock: QUQFOY_clean_sbu_1, # of connection points: 4
#     Node 26, Type 0, BuildingBlock: QUQFOY_clean_sbu_1, # of connection points: 4
#     Node 27, Type 0, BuildingBlock: QUQFOY_clean_sbu_1, # of connection points: 4
#     Node 28, Type 0, BuildingBlock: QUQFOY_clean_sbu_1, # of connection points: 4
#     Node 29, Type 0, BuildingBlock: QUQFOY_clean_sbu_1, # of connection points: 4
#     Node 30, Type 0, BuildingBlock: QUQFOY_clean_sbu_1, # of connection points: 4
#     Node 31, Type 0, BuildingBlock: QUQFOY_clean_sbu_1, # of connection points: 4
#     Node 32, Type 0, BuildingBlock: QUQFOY_clean_sbu_1, # of connection points: 4
#     Node 33, Type 0, BuildingBlock: QUQFOY_clean_sbu_1, # of connection points: 4
#     Node 34, Type 0, BuildingBlock: QUQFOY_clean_sbu_1, # of connection points: 4
#     Node 35, Type 0, BuildingBlock: QUQFOY_clean_sbu_1, # of connection points: 4
#     Edge 36, Type (0, 0), None
#     Edge 37, Type (0, 0), None
#     Edge 38, Type (0, 0), None
#     Edge 39, Type (0, 0), None
#     Edge 40, Type (0, 0), None
#     Edge 41, Type (0, 0), None
#     Edge 42, Type (0, 0), None
#     Edge 43, Type (0, 0), None
#     Edge 44, Type (0, 0), None
#     Edge 45, Type (0, 0), None
#     Edge 46, Type (0, 0), None
#     Edge 47, Type (0, 0), None
#     Edge 48, Type (0, 0), None
#     Edge 49, Type (0, 0), None
#     Edge 50, Type (0, 0), None
#     Edge 51, Type (0, 0), None
#     Edge 52, Type (0, 0), None
#     Edge 53, Type (0, 0), None
#     Edge 54, Type (0, 0), None
#     Edge 55, Type (0, 0), None
#     Edge 56, Type (0, 0), None
#     Edge 57, Type (0, 0), None
#     Edge 58, Type (0, 0), None
#     Edge 59, Type (0, 0), None
#     Edge 60, Type (0, 0), None
#     Edge 61, Type (0, 0), None
#     Edge 62, Type (0, 0), None
#     Edge 63, Type (0, 0), None
#     Edge 64, Type (0, 0), None
#     Edge 65, Type (0, 0), None
#     Edge 66, Type (0, 0), None
#     Edge 67, Type (0, 0), None
#     Edge 68, Type (0, 0), None
#     Edge 69, Type (0, 0), None
#     Edge 70, Type (0, 0), None
#     Edge 71, Type (0, 0), None
#     Edge 72, Type (0, 0), None
#     Edge 73, Type (0, 0), None
#     Edge 74, Type (0, 0), None
#     Edge 75, Type (0, 0), None
#     Edge 76, Type (0, 0), None
#     Edge 77, Type (0, 0), None
#     Edge 78, Type (0, 0), None
#     Edge 79, Type (0, 0), None
#     Edge 80, Type (0, 0), None
#     Edge 81, Type (0, 0), None
#     Edge 82, Type (0, 0), None
#     Edge 83, Type (0, 0), None
#     Edge 84, Type (0, 0), None
#     Edge 85, Type (0, 0), None
#     Edge 86, Type (0, 0), None
#     Edge 87, Type (0, 0), None
#     Edge 88, Type (0, 0), None
#     Edge 89, Type (0, 0), None
#     Edge 90, Type (0, 0), None
#     Edge 91, Type (0, 0), None
#     Edge 92, Type (0, 0), None
#     Edge 93, Type (0, 0), None
#     Edge 94, Type (0, 0), None
#     Edge 95, Type (0, 0), None
#     Edge 96, Type (0, 0), None
#     Edge 97, Type (0, 0), None
#     Edge 98, Type (0, 0), None
#     Edge 99, Type (0, 0), None
#     Edge 100, Type (0, 0), None
#     Edge 101, Type (0, 0), None
#     Edge 102, Type (0, 0), None
#     Edge 103, Type (0, 0), None
#     Edge 104, Type (0, 0), None
#     Edge 105, Type (0, 0), None
#     Edge 106, Type (0, 0), None
#     Edge 107, Type (0, 0), None
# Relax obj value: 0.140
# Max RMSD: 0.199
# Mean RMSD: 0.199
data_MOF--net-ict--node1-QUQFOY_clean_sbu_1--edge1-none
_symmetry_space_group_name_H-M    P1
_symmetry_Int_Tables_number       1
_symmetry_cell_setting            triclinic
loop_
_symmetry_equiv_pos_as_xyz
'x, y, z'
_cell_length_a     33.821753
_cell_length_b     33.822
_cell_length_c     16.654185
_cell_angle_alpha  90.003416
_cell_angle_beta   89.993017
_cell_angle_gamma 120.00142
loop_
_atom_site_label
_atom_site_type_symbol
_atom_site_fract_x
_atom_site_fract_y
_atom_site_fract_z
_atom_type_partial_charge
O0 O 0.26459 0.15982 0.04221 0.0
Cd1 Cd 0.28628 0.22926 0.04812 0.0
Cd2 Cd 0.19683 0.19876 0.03502 0.0
O3 O 0.19887 0.14382 -0.01284 0.0
O4 O 0.3496 0.26401 0.00502 0.0
O5 O 0.28881 0.25626 0.93985 0.0
C6 C 0.33208 0.27031 0.94081 0.0
C7 C 0.14041 0.21437 -0.01001 0.0
C8 C 0.22784 0.13198 0.0063 0.0
C9 C 0.24353 0.23587 0.19363 0.0
O10 O 0.20756 0.20813 0.15625 0.0
O11 O 0.28169 0.25603 0.15762 0.0
O12 O 0.1305 0.1782 0.03035 0.0
O13 O 0.18266 0.24164 0.97194 0.0
O14 O 0.86037 0.10881 0.0422 0.0
Cd15 Cd 0.79093 0.06106 0.04811 0.0
Cd16 Cd 0.82144 1.00211 0.03499 0.0
O17 O 0.87637 0.05909 -0.01288 0.0
O18 O 0.75617 0.08962 0.00502 0.0
O19 O 0.76393 0.03659 0.93983 0.0
C20 C 0.74987 0.0658 0.94081 0.0
C21 C 0.80582 0.93007 -0.01003 0.0
C22 C 0.88821 0.0999 0.00627 0.0
C23 C 0.78433 0.0117 0.19361 0.0
O24 O 0.81208 1.00348 0.15623 0.0
O25 O 0.76415 0.02968 0.15761 0.0
O26 O 0.842 0.95634 0.03032 0.0
O27 O 0.77855 0.94505 0.97194 0.0
O28 O 0.91137 0.75559 0.04223 0.0
Cd29 Cd 0.95911 0.7339 0.04814 0.0
Cd30 Cd 0.01807 0.82336 0.03502 0.0
O31 O 0.96109 0.82131 -0.01284 0.0
O32 O 0.93055 0.67058 0.00504 0.0
O33 O 0.98359 0.73137 0.93986 0.0
C34 C 0.95438 0.6881 0.94083 0.0
C35 C 0.09012 0.87978 -0.01 0.0
C36 C 0.92029 0.79234 0.0063 0.0
C37 C 1.00849 0.77666 0.19363 0.0
O38 O 0.0167 0.81262 0.15626 0.0
O39 O 0.99049 0.7385 0.15763 0.0
O40 O 0.06384 0.88968 0.03036 0.0
O41 O 0.07514 0.83753 0.97196 0.0
O42 O 0.16386 0.26055 0.43178 0.0
Cd43 Cd 0.2333 0.28225 0.42587 0.0
Cd44 Cd 0.2028 0.19278 0.43899 0.0
O45 O 0.14786 0.19483 0.48684 0.0
O46 O 0.26805 0.34556 0.46897 0.0
O47 O 0.2603 0.28477 0.53415 0.0
C48 C 0.27435 0.32804 0.53318 0.0
C49 C 0.21841 0.13636 0.48402 0.0
C50 C 0.13602 0.2238 0.4677 0.0
C51 C 0.23991 0.23949 0.28038 0.0
O52 O 0.21217 0.20352 0.31775 0.0
O53 O 0.26008 0.27765 0.31637 0.0
O54 O 0.18224 0.12646 0.44366 0.0
O55 O 0.24568 0.17861 0.50206 0.0
O56 O 0.75964 0.90733 0.43175 0.0
Cd57 Cd 0.73794 0.95508 0.42584 0.0
Cd58 Cd 0.8274 0.01404 0.43896 0.0
O59 O 0.82535 0.95706 0.48681 0.0
O60 O 0.67462 0.92651 0.46895 0.0
O61 O 0.73541 0.97956 0.53411 0.0
C62 C 0.69214 0.95034 0.53315 0.0
C63 C 0.88382 0.08608 0.48399 0.0
C64 C 0.79638 0.91625 0.46767 0.0
C65 C 0.7807 1.00446 0.28035 0.0
O66 O 0.81667 0.01268 0.31773 0.0
O67 O 0.74254 0.98645 0.31635 0.0
O68 O 0.89372 0.05981 0.44363 0.0
O69 O 0.84157 0.0711 0.50204 0.0
O70 O 0.11285 0.85633 0.43177 0.0
Cd71 Cd 0.06511 0.78689 0.42586 0.0
Cd72 Cd 1.00615 0.8174 0.43899 0.0
O73 O 0.06313 0.87232 0.48685 0.0
O74 O 0.09367 0.75214 0.46894 0.0
O75 O 0.04063 0.75989 0.53414 0.0
C76 C 0.06984 0.74583 0.53316 0.0
C77 C 0.93411 0.80178 0.48401 0.0
C78 C 0.10394 0.88416 0.4677 0.0
C79 C 0.01573 0.78028 0.28038 0.0
O80 O 1.00752 0.80803 0.31775 0.0
O81 O 0.03372 0.76011 0.31637 0.0
O82 O 0.96039 0.83796 0.44366 0.0
O83 O 0.94909 0.77451 0.50205 0.0
O84 O 0.75964 0.85633 0.93177 0.0
Cd85 Cd 0.73794 0.78689 0.92587 0.0
Cd86 Cd 0.8274 0.81739 0.93897 0.0
O87 O 0.82535 0.87233 0.98682 0.0
O88 O 0.67462 0.75214 0.96897 0.0
O89 O 0.73541 0.75989 0.03414 0.0
C90 C 0.69214 0.74583 0.03318 0.0
C91 C 0.88382 0.80177 0.984 0.0
C92 C 0.79639 0.88416 0.96769 0.0
C93 C 0.7807 0.78028 0.78036 0.0
O94 O 0.81667 0.80802 0.81774 0.0
O95 O 0.74254 0.76011 0.81637 0.0
O96 O 0.89372 0.83794 0.94364 0.0
O97 O 0.84157 0.77451 0.00205 0.0
O98 O 0.16386 0.90734 0.93179 0.0
Cd99 Cd 0.2333 0.95509 0.92588 0.0
Cd100 Cd 0.20279 0.01404 0.939 0.0
O101 O 0.14786 0.95706 0.98686 0.0
O102 O 0.26805 0.92652 0.96897 0.0
O103 O 0.2603 0.97956 0.03416 0.0
C104 C 0.27435 0.95035 0.03318 0.0
C105 C 0.21841 0.08608 0.98401 0.0
C106 C 0.13602 0.91625 0.96772 0.0
C107 C 0.2399 1.00445 0.78038 0.0
O108 O 0.21215 0.01267 0.81776 0.0
O109 O 0.26008 0.98647 0.81638 0.0
O110 O 0.18223 0.0598 0.94367 0.0
O111 O 0.24567 0.0711 0.00205 0.0
O112 O 0.11286 0.26055 0.93176 0.0
Cd113 Cd 0.06511 0.28225 0.92585 0.0
Cd114 Cd 1.00615 0.19279 0.93897 0.0
O115 O 0.06313 0.19484 0.98683 0.0
O116 O 0.09367 0.34557 0.96895 0.0
O117 O 0.04063 0.28478 0.03413 0.0
C118 C 0.06985 0.32804 0.03316 0.0
C119 C 0.93411 0.13637 0.98398 0.0
C120 C 0.10394 0.22381 0.96769 0.0
C121 C 0.01574 0.23949 0.78036 0.0
O122 O 1.00752 0.20352 0.81773 0.0
O123 O 0.03373 0.27765 0.81636 0.0
O124 O 0.96039 0.12647 0.94363 0.0
O125 O 0.94909 0.17862 0.00203 0.0
O126 O 0.86037 0.7556 0.54221 0.0
Cd127 Cd 0.79093 0.7339 0.54812 0.0
Cd128 Cd 0.82143 0.82336 0.535 0.0
O129 O 0.87637 0.82131 0.48715 0.0
O130 O 0.75617 0.67058 0.50502 0.0
O131 O 0.76393 0.73137 0.43984 0.0
C132 C 0.74987 0.68811 0.44081 0.0
C133 C 0.80582 0.87978 0.48997 0.0
C134 C 0.8882 0.79235 0.50629 0.0
C135 C 0.78432 0.77666 0.69361 0.0
O136 O 0.81206 0.81263 0.65624 0.0
O137 O 0.76415 0.7385 0.65762 0.0
O138 O 0.84199 0.88969 0.53033 0.0
O139 O 0.77855 0.83753 0.47193 0.0
O140 O 0.26459 0.10881 0.54224 0.0
Cd141 Cd 0.28629 0.06107 0.54815 0.0
Cd142 Cd 0.19683 1.0021 0.53503 0.0
O143 O 0.19888 0.05909 0.48718 0.0
O144 O 0.3496 0.08963 0.50504 0.0
O145 O 0.28881 0.03659 0.43988 0.0
C146 C 0.33208 0.06581 0.44084 0.0
C147 C 0.14041 0.93007 0.49 0.0
C148 C 0.22784 0.0999 0.50632 0.0
C149 C 0.24352 0.01169 0.69364 0.0
O150 O 0.20756 1.00347 0.65626 0.0
O151 O 0.28169 0.0297 0.65764 0.0
O152 O 0.1305 0.95634 0.53036 0.0
O153 O 0.18266 0.94505 0.47195 0.0
O154 O 0.91137 0.15981 0.54222 0.0
Cd155 Cd 0.95912 0.22926 0.54813 0.0
Cd156 Cd 0.01808 0.19875 0.535 0.0
O157 O 0.9611 0.14382 0.48714 0.0
O158 O 0.93056 0.26401 0.50505 0.0
O159 O 0.98359 0.25626 0.43985 0.0
C160 C 0.95438 0.27031 0.44083 0.0
C161 C 0.09012 0.21437 0.48998 0.0
C162 C 0.92029 0.13198 0.50629 0.0
C163 C 1.0085 0.23586 0.69361 0.0
O164 O 0.01671 0.20811 0.65624 0.0
O165 O 0.9905 0.25603 0.65762 0.0
O166 O 0.06384 0.17819 0.53033 0.0
O167 O 0.07514 0.24164 0.47194 0.0
O168 O 0.93126 0.49315 0.37555 0.0
Cd169 Cd 0.95295 0.56259 0.38146 0.0
Cd170 Cd 0.86349 0.53209 0.36835 0.0
O171 O 0.86554 0.47716 0.3205 0.0
O172 O 0.01627 0.59734 0.33835 0.0
O173 O 0.95548 0.58959 0.27318 0.0
C174 C 0.99875 0.60365 0.27415 0.0
C175 C 0.80707 0.54771 0.32332 0.0
C176 C 0.89451 0.46532 0.33964 0.0
C177 C 0.91019 0.5692 0.52696 0.0
O178 O 0.87423 0.54146 0.48959 0.0
O179 O 0.94836 0.58937 0.49095 0.0
O180 O 0.79717 0.51154 0.36368 0.0
O181 O 0.84933 0.57498 0.30527 0.0
O182 O 0.52704 0.44214 0.37553 0.0
Cd183 Cd 0.4576 0.39439 0.38144 0.0
Cd184 Cd 0.4881 0.33544 0.36833 0.0
O185 O 0.54304 0.39242 0.32046 0.0
O186 O 0.42284 0.42296 0.33836 0.0
O187 O 0.4306 0.36992 0.27316 0.0
C188 C 0.41654 0.39913 0.27414 0.0
C189 C 0.47249 0.2634 0.32331 0.0
C190 C 0.55487 0.43323 0.33961 0.0
C191 C 0.45099 0.34503 0.52694 0.0
O192 O 0.47874 0.33682 0.48956 0.0
O193 O 0.43082 0.36301 0.49094 0.0
O194 O 0.50866 0.28968 0.36365 0.0
O195 O 0.44522 0.27838 0.30527 0.0
O196 O 0.57803 0.08893 0.37556 0.0
Cd197 Cd 0.62578 0.06723 0.38148 0.0
Cd198 Cd 0.68474 0.15669 0.36836 0.0
O199 O 0.62776 0.15464 0.32049 0.0
O200 O 0.59722 1.00391 0.33838 0.0
O201 O 0.65026 0.06471 0.2732 0.0
C202 C 0.62105 0.02144 0.27417 0.0
C203 C 0.75678 0.21312 0.32334 0.0
C204 C 0.58695 0.12567 0.33964 0.0
C205 C 0.67515 0.11 0.52696 0.0
O206 O 0.68337 0.14596 0.48959 0.0
O207 O 0.65716 0.07183 0.49096 0.0
O208 O 0.7305 0.22302 0.36369 0.0
O209 O 0.7418 0.17087 0.30529 0.0
O210 O 0.83053 0.59388 0.76511 0.0
Cd211 Cd 0.89997 0.61558 0.7592 0.0
Cd212 Cd 0.86946 0.52612 0.77232 0.0
O213 O 0.81453 0.52817 0.82017 0.0
O214 O 0.93472 0.6789 0.8023 0.0
O215 O 0.92696 0.6181 0.86748 0.0
C216 C 0.94101 0.66137 0.8665 0.0
C217 C 0.88508 0.4697 0.81735 0.0
C218 C 0.80269 0.55714 0.80103 0.0
C219 C 0.90658 0.57282 0.61371 0.0
O220 O 0.87883 0.53685 0.65109 0.0
O221 O 0.92675 0.61098 0.64971 0.0
O222 O 0.84891 0.45979 0.77699 0.0
O223 O 0.91234 0.51195 0.83539 0.0
O224 O 0.4263 0.24067 0.76509 0.0
Cd225 Cd 0.4046 0.28841 0.75917 0.0
Cd226 Cd 0.49406 0.34738 0.77229 0.0
O227 O 0.49201 0.29039 0.82014 0.0
O228 O 0.34129 0.25985 0.80228 0.0
O229 O 0.40208 0.31289 0.86745 0.0
C230 C 0.35882 0.28368 0.86648 0.0
C231 C 0.55049 0.41941 0.81733 0.0
C232 C 0.46305 0.24959 0.80101 0.0
C233 C 0.44737 0.33779 0.61369 0.0
O234 O 0.48334 0.34602 0.65106 0.0
O235 O 0.4092 0.31979 0.64968 0.0
O236 O 0.56039 0.39314 0.77696 0.0
O237 O 0.50824 0.40443 0.83537 0.0
O238 O 0.77952 0.18967 0.7651 0.0
Cd239 Cd 0.73177 0.12023 0.75919 0.0
Cd240 Cd 0.67282 0.15073 0.77232 0.0
O241 O 0.7298 0.20566 0.82018 0.0
O242 O 0.76034 0.08547 0.80227 0.0
O243 O 0.7073 0.09323 0.86747 0.0
C244 C 0.73651 0.07917 0.86649 0.0
C245 C 0.60078 0.13512 0.81734 0.0
C246 C 0.7706 0.2175 0.80103 0.0
C247 C 0.6824 0.11362 0.61371 0.0
O248 O 0.67418 0.14137 0.65109 0.0
O249 O 0.70039 0.09345 0.6497 0.0
O250 O 0.62705 0.17129 0.77699 0.0
O251 O 0.61575 0.10785 0.83538 0.0
O252 O 0.4263 0.18966 0.26511 0.0
Cd253 Cd 0.40461 0.12022 0.2592 0.0
Cd254 Cd 0.49406 0.15072 0.2723 0.0
O255 O 0.49202 0.20566 0.32016 0.0
O256 O 0.34129 0.08547 0.3023 0.0
O257 O 0.40208 0.09322 0.36747 0.0
C258 C 0.35882 0.07917 0.36651 0.0
C259 C 0.55048 0.1351 0.31733 0.0
C260 C 0.46305 0.2175 0.30102 0.0
C261 C 0.44736 0.11361 0.1137 0.0
O262 O 0.48333 0.14135 0.15107 0.0
O263 O 0.4092 0.09345 0.1497 0.0
O264 O 0.56039 0.17128 0.27697 0.0
O265 O 0.50823 0.10784 0.33538 0.0
O266 O 0.83052 0.24067 0.26512 0.0
Cd267 Cd 0.89996 0.28842 0.25921 0.0
Cd268 Cd 0.86946 0.34737 0.27233 0.0
O269 O 0.81452 0.29039 0.3202 0.0
O270 O 0.93472 0.25986 0.3023 0.0
O271 O 0.92696 0.31289 0.36749 0.0
C272 C 0.94101 0.28368 0.36651 0.0
C273 C 0.88507 0.41941 0.31735 0.0
C274 C 0.80269 0.24959 0.30105 0.0
C275 C 0.90657 0.33778 0.11372 0.0
O276 O 0.87882 0.346 0.1511 0.0
O277 O 0.92674 0.3198 0.14972 0.0
O278 O 0.8489 0.39314 0.277 0.0
O279 O 0.91234 0.40443 0.33539 0.0
O280 O 0.77953 0.59389 0.26509 0.0
Cd281 Cd 0.73178 0.61558 0.25918 0.0
Cd282 Cd 0.67282 0.52613 0.2723 0.0
O283 O 0.7298 0.52818 0.32016 0.0
O284 O 0.76034 0.6789 0.30228 0.0
O285 O 0.7073 0.6181 0.36746 0.0
C286 C 0.73651 0.66137 0.36649 0.0
C287 C 0.60078 0.4697 0.31732 0.0
C288 C 0.77061 0.55714 0.30102 0.0
C289 C 0.68241 0.57282 0.11369 0.0
O290 O 0.67419 0.53686 0.15107 0.0
O291 O 0.7004 0.61098 0.14969 0.0
O292 O 0.62705 0.4598 0.27697 0.0
O293 O 0.61576 0.51195 0.33537 0.0
O294 O 0.52703 0.08893 0.87554 0.0
Cd295 Cd 0.45759 0.06723 0.88145 0.0
Cd296 Cd 0.4881 0.1567 0.86834 0.0
O297 O 0.54303 0.15465 0.82048 0.0
O298 O 0.42284 1.00392 0.83835 0.0
O299 O 0.4306 0.06471 0.77318 0.0
C300 C 0.41654 0.02144 0.77415 0.0
C301 C 0.47248 0.21312 0.82331 0.0
C302 C 0.55487 0.12568 0.83963 0.0
C303 C 0.45098 0.10999 0.02695 0.0
O304 O 0.47872 0.14596 -0.01043 0.0
O305 O 0.43081 0.07183 -0.00905 0.0
O306 O 0.50865 0.22302 0.86366 0.0
O307 O 0.44522 0.17087 0.80526 0.0
O308 O 0.93126 0.44215 0.87557 0.0
Cd309 Cd 0.95295 0.3944 0.88148 0.0
Cd310 Cd 0.86349 0.33544 0.86836 0.0
O311 O 0.86554 0.39242 0.82051 0.0
O312 O 0.01627 0.42297 0.83838 0.0
O313 O 0.95548 0.36993 0.77321 0.0
C314 C 0.99875 0.39914 0.77417 0.0
C315 C 0.80707 0.2634 0.82333 0.0
C316 C 0.89451 0.43323 0.83965 0.0
C317 C 0.91019 0.34502 0.02697 0.0
O318 O 0.87422 0.3368 -0.0104 0.0
O319 O 0.94836 0.36303 -0.00903 0.0
O320 O 0.79717 0.28967 0.8637 0.0
O321 O 0.84932 0.27839 0.80528 0.0
O322 O 0.57804 0.49315 0.87556 0.0
Cd323 Cd 0.62579 0.56259 0.88147 0.0
Cd324 Cd 0.68474 0.53209 0.86834 0.0
O325 O 0.62776 0.47716 0.82047 0.0
O326 O 0.59722 0.59734 0.83838 0.0
O327 O 0.65026 0.58959 0.77319 0.0
C328 C 0.62105 0.60365 0.77416 0.0
C329 C 0.75678 0.5477 0.82332 0.0
C330 C 0.58696 0.46532 0.83962 0.0
C331 C 0.67516 0.5692 0.02695 0.0
O332 O 0.68337 0.54145 -0.01043 0.0
O333 O 0.65717 0.58937 -0.00904 0.0
O334 O 0.73051 0.51152 0.86366 0.0
O335 O 0.74181 0.57497 0.80527 0.0
O336 O 0.59792 0.82648 0.70888 0.0
Cd337 Cd 0.61962 0.89592 0.71479 0.0
Cd338 Cd 0.53016 0.86543 0.70169 0.0
O339 O 0.53221 0.81049 0.65383 0.0
O340 O 0.68294 0.93068 0.67168 0.0
O341 O 0.62214 0.92292 0.60652 0.0
C342 C 0.66541 0.93697 0.60748 0.0
C343 C 0.47374 0.88104 0.65665 0.0
C344 C 0.56117 0.79865 0.67297 0.0
C345 C 0.57686 0.90253 0.86029 0.0
O346 O 0.5409 0.8748 0.82292 0.0
O347 O 0.61503 0.9227 0.82429 0.0
O348 O 0.46384 0.84487 0.69702 0.0
O349 O 0.51599 0.90831 0.63861 0.0
O350 O 0.1937 0.77547 0.70886 0.0
Cd351 Cd 0.12426 0.72773 0.71478 0.0
Cd352 Cd 0.15477 0.66877 0.70166 0.0
O353 O 0.2097 0.72576 0.65379 0.0
O354 O 0.08951 0.75629 0.67169 0.0
O355 O 0.09727 0.70325 0.6065 0.0
C356 C 0.08322 0.73247 0.60748 0.0
C357 C 0.13916 0.59674 0.65664 0.0
C358 C 0.22154 0.76656 0.67294 0.0
C359 C 0.11766 0.67836 0.86027 0.0
O360 O 0.14541 0.67015 0.82289 0.0
O361 O 0.09748 0.69635 0.82427 0.0
O362 O 0.17533 0.62301 0.69699 0.0
O363 O 0.11189 0.61172 0.6386 0.0
O364 O 0.2447 0.42226 0.7089 0.0
Cd365 Cd 0.29245 0.40056 0.71481 0.0
Cd366 Cd 0.35141 0.49002 0.70169 0.0
O367 O 0.29443 0.48797 0.65383 0.0
O368 O 0.26389 0.33725 0.67171 0.0
O369 O 0.31693 0.39804 0.60653 0.0
C370 C 0.28771 0.35478 0.6075 0.0
C371 C 0.42345 0.54645 0.65667 0.0
C372 C 0.25362 0.459 0.67297 0.0
C373 C 0.34182 0.44333 0.8603 0.0
O374 O 0.35004 0.47929 0.82292 0.0
O375 O 0.32383 0.40517 0.8243 0.0
O376 O 0.39717 0.55635 0.69702 0.0
O377 O 0.40847 0.5042 0.63862 0.0
O378 O 0.49719 0.92722 0.09845 0.0
Cd379 Cd 0.56663 0.94891 0.09254 0.0
Cd380 Cd 0.53613 0.85945 0.10565 0.0
O381 O 0.48119 0.8615 0.15351 0.0
O382 O 0.60139 0.01223 0.13563 0.0
O383 O 0.59363 0.95144 0.20081 0.0
C384 C 0.60768 0.9947 0.19984 0.0
C385 C 0.55174 0.80303 0.15069 0.0
C386 C 0.46936 0.89047 0.13436 0.0
C387 C 0.57324 0.90615 0.94704 0.0
O388 O 0.5455 0.87019 0.98442 0.0
O389 O 0.59341 0.94432 0.98304 0.0
O390 O 0.51557 0.79313 0.11033 0.0
O391 O 0.57901 0.84528 0.16873 0.0
O392 O 0.09297 0.574 0.09842 0.0
Cd393 Cd 0.07127 0.62174 0.09251 0.0
Cd394 Cd 0.16073 0.68071 0.10563 0.0
O395 O 0.15868 0.62373 0.15348 0.0
O396 O 1.00795 0.59318 0.13561 0.0
O397 O 0.06875 0.64623 0.20078 0.0
C398 C 0.02548 0.61701 0.19981 0.0
C399 C 0.21715 0.75275 0.15066 0.0
C400 C 0.12972 0.58292 0.13434 0.0
C401 C 0.11404 0.67112 0.94702 0.0
O402 O 0.15 0.67935 0.98439 0.0
O403 O 0.07587 0.65312 0.98302 0.0
O404 O 0.22706 0.72648 0.1103 0.0
O405 O 0.1749 0.73776 0.16871 0.0
O406 O 0.44619 0.523 0.09843 0.0
Cd407 Cd 0.39844 0.45356 0.09252 0.0
Cd408 Cd 0.33948 0.48406 0.10565 0.0
O409 O 0.39646 0.53899 0.15352 0.0
O410 O 0.427 0.4188 0.13561 0.0
O411 O 0.37396 0.42656 0.2008 0.0
C412 C 0.40318 0.41251 0.19982 0.0
C413 C 0.26744 0.46845 0.15068 0.0
C414 C 0.43727 0.55083 0.13437 0.0
C415 C 0.34906 0.44695 0.94704 0.0
O416 O 0.34085 0.4747 0.98442 0.0
O417 O 0.36706 0.42678 0.98303 0.0
O418 O 0.29372 0.50463 0.11033 0.0
O419 O 0.28242 0.44118 0.16872 0.0
O420 O 0.09297 0.523 0.59844 0.0
Cd421 Cd 0.07127 0.45356 0.59253 0.0
Cd422 Cd 0.16073 0.48405 0.60564 0.0
O423 O 0.15869 0.53899 0.65349 0.0
O424 O 1.00796 0.41881 0.63564 0.0
O425 O 0.06875 0.42656 0.7008 0.0
C426 C 0.02548 0.41251 0.69984 0.0
C427 C 0.21715 0.46844 0.65067 0.0
C428 C 0.12972 0.55083 0.63435 0.0
C429 C 0.11403 0.44694 0.44703 0.0
O430 O 0.15 0.47468 0.4844 0.0
O431 O 0.07587 0.42678 0.48304 0.0
O432 O 0.22706 0.50461 0.6103 0.0
O433 O 0.1749 0.44117 0.66871 0.0
O434 O 0.49719 0.57401 0.59846 0.0
Cd435 Cd 0.56663 0.62175 0.59255 0.0
Cd436 Cd 0.53612 0.68071 0.60566 0.0
O437 O 0.48119 0.62372 0.65353 0.0
O438 O 0.60138 0.59319 0.63563 0.0
O439 O 0.59363 0.64623 0.70082 0.0
C440 C 0.60768 0.61701 0.69984 0.0
C441 C 0.55174 0.75275 0.65068 0.0
C442 C 0.46935 0.58292 0.63438 0.0
C443 C 0.57323 0.67112 0.44705 0.0
O444 O 0.54548 0.67933 0.48443 0.0
O445 O 0.59341 0.65313 0.48305 0.0
O446 O 0.51556 0.72647 0.61033 0.0
O447 O 0.57901 0.73777 0.66872 0.0
O448 O 0.44619 0.92722 0.59842 0.0
Cd449 Cd 0.39845 0.94892 0.59251 0.0
Cd450 Cd 0.33949 0.85946 0.60563 0.0
O451 O 0.39647 0.86151 0.6535 0.0
O452 O 0.42701 0.01223 0.63561 0.0
O453 O 0.37396 0.95144 0.70079 0.0
C454 C 0.40318 0.9947 0.69982 0.0
C455 C 0.26744 0.80303 0.65065 0.0
C456 C 0.43727 0.89048 0.63435 0.0
C457 C 0.34907 0.90615 0.44703 0.0
O458 O 0.34086 0.87019 0.4844 0.0
O459 O 0.36707 0.94432 0.48303 0.0
O460 O 0.29372 0.79313 0.6103 0.0
O461 O 0.28243 0.84528 0.6687 0.0
O462 O 0.1937 0.42226 0.20888 0.0
Cd463 Cd 0.12426 0.40057 0.21479 0.0
Cd464 Cd 0.15476 0.49003 0.20167 0.0
O465 O 0.2097 0.48798 0.15382 0.0
O466 O 0.08951 0.33725 0.17169 0.0
O467 O 0.09726 0.39804 0.10651 0.0
C468 C 0.08321 0.35478 0.10748 0.0
C469 C 0.13915 0.54645 0.15664 0.0
C470 C 0.22154 0.45901 0.17296 0.0
C471 C 0.11765 0.44333 0.36028 0.0
O472 O 0.14539 0.47929 0.3229 0.0
O473 O 0.09748 0.40516 0.32428 0.0
O474 O 0.17532 0.55635 0.197 0.0
O475 O 0.11188 0.5042 0.1386 0.0
O476 O 0.59793 0.77548 0.20891 0.0
Cd477 Cd 0.61962 0.72774 0.21482 0.0
Cd478 Cd 0.53016 0.66877 0.2017 0.0
O479 O 0.53221 0.72575 0.15385 0.0
O480 O 0.68294 0.7563 0.17171 0.0
O481 O 0.62214 0.70326 0.10654 0.0
C482 C 0.66541 0.73247 0.10751 0.0
C483 C 0.47374 0.59673 0.15667 0.0
C484 C 0.56118 0.76656 0.17299 0.0
C485 C 0.57686 0.67836 0.3603 0.0
O486 O 0.54089 0.67013 0.32293 0.0
O487 O 0.61502 0.69636 0.32431 0.0
O488 O 0.46384 0.623 0.19703 0.0
O489 O 0.51599 0.61172 0.13862 0.0
O490 O 0.24471 0.82648 0.20889 0.0
Cd491 Cd 0.29245 0.89592 0.2148 0.0
Cd492 Cd 0.35141 0.86542 0.20167 0.0
O493 O 0.29443 0.81049 0.15381 0.0
O494 O 0.26389 0.93068 0.17172 0.0
O495 O 0.31693 0.92292 0.10652 0.0
C496 C 0.28772 0.93697 0.1075 0.0
C497 C 0.42345 0.88103 0.15665 0.0
C498 C 0.25362 0.79865 0.17296 0.0
C499 C 0.34183 0.90253 0.36028 0.0
O500 O 0.35004 0.87478 0.3229 0.0
O501 O 0.32384 0.9227 0.32429 0.0
O502 O 0.39717 0.84486 0.197 0.0
O503 O 0.40847 0.9083 0.13861 0.0
loop_
_geom_bond_atom_site_label_1
_geom_bond_atom_site_label_2
_geom_bond_distance
_geom_bond_site_symmetry_2
_ccdc_geom_bond_type
O0 Cd1 2.223 . S
O0 C8 1.315 . S
Cd1 O0 2.223 . S
Cd1 O4 2.297 1_554 S
Cd1 O5 2.439 1_554 S
Cd1 O11 2.240 . S
Cd2 O3 2.240 . S
Cd2 O10 2.223 . S
Cd2 O12 2.297 . S
Cd2 O13 2.439 1_554 S
O3 Cd2 2.240 . S
O3 C8 1.279 . S
O4 Cd1 2.297 1_556 S
O4 C6 1.247 . S
O5 Cd1 2.439 1_556 S
O5 C6 1.208 . S
C6 O4 1.247 . S
C6 O5 1.208 . S
C7 O12 1.247 . S
C7 O13 1.208 1_554 S
C8 O0 1.315 . S
C8 O3 1.279 . S
C9 O10 1.315 . S
C9 O11 1.279 . S
O10 Cd2 2.223 . S
O10 C9 1.315 . S
O11 Cd1 2.240 . S
O11 C9 1.279 . S
O12 Cd2 2.297 . S
O12 C7 1.247 . S
O13 Cd2 2.439 1_556 S
O13 C7 1.208 1_556 S
O14 Cd15 2.223 . S
O14 C22 1.315 . S
Cd15 O14 2.223 . S
Cd15 O18 2.297 1_554 S
Cd15 O19 2.439 1_554 S
Cd15 O25 2.240 1_545 S
Cd16 O17 2.240 1_565 S
Cd16 O24 2.222 1_565 S
Cd16 O26 2.297 . S
Cd16 O27 2.439 1_554 S
O17 Cd16 2.240 1_545 S
O17 C22 1.279 . S
O18 Cd15 2.297 1_556 S
O18 C20 1.247 . S
O19 Cd15 2.439 1_556 S
O19 C20 1.208 . S
C20 O18 1.247 . S
C20 O19 1.208 . S
C21 O26 1.247 . S
C21 O27 1.208 1_554 S
C22 O14 1.315 . S
C22 O17 1.279 . S
C23 O24 1.318 . S
C23 O25 1.279 1_545 S
O24 Cd16 2.222 1_545 S
O24 C23 1.318 . S
O25 Cd15 2.240 1_565 S
O25 C23 1.279 1_565 S
O26 Cd16 2.297 . S
O26 C21 1.247 . S
O27 Cd16 2.439 1_556 S
O27 C21 1.208 1_556 S
O28 Cd29 2.223 . S
O28 C36 1.315 . S
Cd29 O28 2.223 . S
Cd29 O32 2.297 1_554 S
Cd29 O33 2.439 1_554 S
Cd29 O39 2.240 1_655 S
Cd30 O31 2.240 1_455 S
Cd30 O38 2.222 1_455 S
Cd30 O40 2.297 . S
Cd30 O41 2.439 1_554 S
O31 Cd30 2.240 1_655 S
O31 C36 1.279 . S
O32 Cd29 2.297 1_556 S
O32 C34 1.247 . S
O33 Cd29 2.439 1_556 S
O33 C34 1.208 . S
C34 O32 1.247 . S
C34 O33 1.208 . S
C35 O40 1.247 . S
C35 O41 1.208 1_554 S
C36 O28 1.315 . S
C36 O31 1.279 . S
C37 O38 1.312 . S
C37 O39 1.279 1_655 S
O38 Cd30 2.222 1_655 S
O38 C37 1.312 . S
O39 Cd29 2.240 1_455 S
O39 C37 1.279 1_455 S
O40 Cd30 2.297 . S
O40 C35 1.247 . S
O41 Cd30 2.439 1_556 S
O41 C35 1.208 1_556 S
O42 Cd43 2.223 . S
O42 C50 1.315 . S
Cd43 O42 2.223 . S
Cd43 O46 2.297 . S
Cd43 O47 2.439 . S
Cd43 O53 2.240 . S
Cd44 O45 2.240 . S
Cd44 O52 2.223 . S
Cd44 O54 2.297 . S
Cd44 O55 2.439 . S
O45 Cd44 2.240 . S
O45 C50 1.279 . S
O46 Cd43 2.297 . S
O46 C48 1.247 . S
O47 Cd43 2.439 . S
O47 C48 1.208 . S
C48 O46 1.247 . S
C48 O47 1.208 . S
C49 O54 1.247 . S
C49 O55 1.208 . S
C50 O42 1.315 . S
C50 O45 1.279 . S
C51 O52 1.315 . S
C51 O53 1.279 . S
O52 Cd44 2.223 . S
O52 C51 1.315 . S
O53 Cd43 2.240 . S
O53 C51 1.279 . S
O54 Cd44 2.297 . S
O54 C49 1.247 . S
O55 Cd44 2.439 . S
O55 C49 1.208 . S
O56 Cd57 2.223 . S
O56 C64 1.315 . S
Cd57 O56 2.223 . S
Cd57 O60 2.297 . S
Cd57 O61 2.439 . S
Cd57 O67 2.240 1_565 S
Cd58 O59 2.240 1_545 S
Cd58 O66 2.222 1_545 S
Cd58 O68 2.297 . S
Cd58 O69 2.439 . S
O59 Cd58 2.240 1_565 S
O59 C64 1.279 . S
O60 Cd57 2.297 . S
O60 C62 1.247 . S
O61 Cd57 2.439 . S
O61 C62 1.208 . S
C62 O60 1.247 . S
C62 O61 1.208 . S
C63 O68 1.247 . S
C63 O69 1.208 . S
C64 O56 1.315 . S
C64 O59 1.279 . S
C65 O66 1.312 . S
C65 O67 1.279 1_565 S
O66 Cd58 2.222 1_565 S
O66 C65 1.312 . S
O67 Cd57 2.240 1_545 S
O67 C65 1.279 1_545 S
O68 Cd58 2.297 . S
O68 C63 1.247 . S
O69 Cd58 2.439 . S
O69 C63 1.208 . S
O70 Cd71 2.223 . S
O70 C78 1.315 . S
Cd71 O70 2.223 . S
Cd71 O74 2.297 . S
Cd71 O75 2.439 . S
Cd71 O81 2.240 1_455 S
Cd72 O73 2.240 1_655 S
Cd72 O80 2.222 1_655 S
Cd72 O82 2.297 . S
Cd72 O83 2.439 . S
O73 Cd72 2.240 1_455 S
O73 C78 1.279 . S
O74 Cd71 2.297 . S
O74 C76 1.247 . S
O75 Cd71 2.439 . S
O75 C76 1.208 . S
C76 O74 1.247 . S
C76 O75 1.208 . S
C77 O82 1.247 . S
C77 O83 1.208 . S
C78 O70 1.315 . S
C78 O73 1.279 . S
C79 O80 1.318 . S
C79 O81 1.279 1_455 S
O80 Cd72 2.222 1_455 S
O80 C79 1.318 . S
O81 Cd71 2.240 1_655 S
O81 C79 1.279 1_655 S
O82 Cd72 2.297 . S
O82 C77 1.247 . S
O83 Cd72 2.439 . S
O83 C77 1.208 . S
O84 Cd85 2.223 . S
O84 C92 1.315 . S
Cd85 O84 2.223 . S
Cd85 O88 2.297 1_556 S
Cd85 O89 2.439 1_556 S
Cd85 O95 2.240 . S
Cd86 O87 2.240 . S
Cd86 O94 2.223 . S
Cd86 O96 2.297 . S
Cd86 O97 2.439 1_556 S
O87 Cd86 2.240 . S
O87 C92 1.279 . S
O88 Cd85 2.297 1_554 S
O88 C90 1.247 . S
O89 Cd85 2.439 1_554 S
O89 C90 1.208 . S
C90 O88 1.247 . S
C90 O89 1.208 . S
C91 O96 1.247 . S
C91 O97 1.208 1_556 S
C92 O84 1.315 . S
C92 O87 1.279 . S
C93 O94 1.315 . S
C93 O95 1.279 . S
O94 Cd86 2.223 . S
O94 C93 1.315 . S
O95 Cd85 2.240 . S
O95 C93 1.279 . S
O96 Cd86 2.297 . S
O96 C91 1.247 . S
O97 Cd86 2.439 1_554 S
O97 C91 1.208 1_554 S
O98 Cd99 2.223 . S
O98 C106 1.315 . S
Cd99 O98 2.223 . S
Cd99 O102 2.297 1_556 S
Cd99 O103 2.439 1_556 S
Cd99 O109 2.240 1_565 S
Cd100 O101 2.240 1_545 S
Cd100 O108 2.222 1_545 S
Cd100 O110 2.297 . S
Cd100 O111 2.439 1_556 S
O101 Cd100 2.240 1_565 S
O101 C106 1.279 . S
O102 Cd99 2.297 1_554 S
O102 C104 1.247 . S
O103 Cd99 2.439 1_554 S
O103 C104 1.208 . S
C104 O102 1.247 . S
C104 O103 1.208 . S
C105 O110 1.247 . S
C105 O111 1.208 1_556 S
C106 O98 1.315 . S
C106 O101 1.279 . S
C107 O108 1.318 . S
C107 O109 1.279 1_565 S
O108 Cd100 2.222 1_565 S
O108 C107 1.318 . S
O109 Cd99 2.240 1_545 S
O109 C107 1.279 1_545 S
O110 Cd100 2.297 . S
O110 C105 1.247 . S
O111 Cd100 2.439 1_554 S
O111 C105 1.208 1_554 S
O112 Cd113 2.223 . S
O112 C120 1.315 . S
Cd113 O112 2.223 . S
Cd113 O116 2.297 1_556 S
Cd113 O117 2.439 1_556 S
Cd113 O123 2.240 1_455 S
Cd114 O115 2.240 1_655 S
Cd114 O122 2.222 1_655 S
Cd114 O124 2.297 . S
Cd114 O125 2.439 1_556 S
O115 Cd114 2.240 1_455 S
O115 C120 1.279 . S
O116 Cd113 2.297 1_554 S
O116 C118 1.247 . S
O117 Cd113 2.439 1_554 S
O117 C118 1.208 . S
C118 O116 1.247 . S
C118 O117 1.208 . S
C119 O124 1.247 . S
C119 O125 1.208 1_556 S
C120 O112 1.315 . S
C120 O115 1.279 . S
C121 O122 1.312 . S
C121 O123 1.279 1_455 S
O122 Cd114 2.222 1_455 S
O122 C121 1.312 . S
O123 Cd113 2.240 1_655 S
O123 C121 1.279 1_655 S
O124 Cd114 2.297 . S
O124 C119 1.247 . S
O125 Cd114 2.439 1_554 S
O125 C119 1.208 1_554 S
O126 Cd127 2.223 . S
O126 C134 1.315 . S
Cd127 O126 2.223 . S
Cd127 O130 2.297 . S
Cd127 O131 2.439 . S
Cd127 O137 2.240 . S
Cd128 O129 2.240 . S
Cd128 O136 2.223 . S
Cd128 O138 2.297 . S
Cd128 O139 2.439 . S
O129 Cd128 2.240 . S
O129 C134 1.279 . S
O130 Cd127 2.297 . S
O130 C132 1.247 . S
O131 Cd127 2.439 . S
O131 C132 1.208 . S
C132 O130 1.247 . S
C132 O131 1.208 . S
C133 O138 1.247 . S
C133 O139 1.208 . S
C134 O126 1.315 . S
C134 O129 1.279 . S
C135 O136 1.315 . S
C135 O137 1.279 . S
O136 Cd128 2.223 . S
O136 C135 1.315 . S
O137 Cd127 2.240 . S
O137 C135 1.279 . S
O138 Cd128 2.297 . S
O138 C133 1.247 . S
O139 Cd128 2.439 . S
O139 C133 1.208 . S
O140 Cd141 2.223 . S
O140 C148 1.315 . S
Cd141 O140 2.223 . S
Cd141 O144 2.297 . S
Cd141 O145 2.439 . S
Cd141 O151 2.240 1_545 S
Cd142 O143 2.240 1_565 S
Cd142 O150 2.222 1_565 S
Cd142 O152 2.297 . S
Cd142 O153 2.439 . S
O143 Cd142 2.240 1_545 S
O143 C148 1.279 . S
O144 Cd141 2.297 . S
O144 C146 1.247 . S
O145 Cd141 2.439 . S
O145 C146 1.208 . S
C146 O144 1.247 . S
C146 O145 1.208 . S
C147 O152 1.247 . S
C147 O153 1.208 . S
C148 O140 1.315 . S
C148 O143 1.279 . S
C149 O150 1.312 . S
C149 O151 1.279 1_545 S
O150 Cd142 2.222 1_545 S
O150 C149 1.312 . S
O151 Cd141 2.240 1_565 S
O151 C149 1.279 1_565 S
O152 Cd142 2.297 . S
O152 C147 1.247 . S
O153 Cd142 2.439 . S
O153 C147 1.208 . S
O154 Cd155 2.223 . S
O154 C162 1.315 . S
Cd155 O154 2.223 . S
Cd155 O158 2.297 . S
Cd155 O159 2.439 . S
Cd155 O165 2.240 1_655 S
Cd156 O157 2.240 1_455 S
Cd156 O164 2.222 1_455 S
Cd156 O166 2.297 . S
Cd156 O167 2.439 . S
O157 Cd156 2.240 1_655 S
O157 C162 1.279 . S
O158 Cd155 2.297 . S
O158 C160 1.247 . S
O159 Cd155 2.439 . S
O159 C160 1.208 . S
C160 O158 1.247 . S
C160 O159 1.208 . S
C161 O166 1.247 . S
C161 O167 1.208 . S
C162 O154 1.315 . S
C162 O157 1.279 . S
C163 O164 1.318 . S
C163 O165 1.279 1_655 S
O164 Cd156 2.222 1_655 S
O164 C163 1.318 . S
O165 Cd155 2.240 1_455 S
O165 C163 1.279 1_455 S
O166 Cd156 2.297 . S
O166 C161 1.247 . S
O167 Cd156 2.439 . S
O167 C161 1.208 . S
O168 Cd169 2.223 . S
O168 C176 1.315 . S
Cd169 O168 2.223 . S
Cd169 O172 2.297 1_655 S
Cd169 O173 2.439 . S
Cd169 O179 2.240 . S
Cd170 O171 2.240 . S
Cd170 O178 2.223 . S
Cd170 O180 2.297 . S
Cd170 O181 2.439 . S
O171 Cd170 2.240 . S
O171 C176 1.279 . S
O172 Cd169 2.297 1_455 S
O172 C174 1.247 1_455 S
O173 Cd169 2.439 . S
O173 C174 1.208 . S
C174 O172 1.247 1_655 S
C174 O173 1.208 . S
C175 O180 1.247 . S
C175 O181 1.208 . S
C176 O168 1.315 . S
C176 O171 1.279 . S
C177 O178 1.315 . S
C177 O179 1.279 . S
O178 Cd170 2.223 . S
O178 C177 1.315 . S
O179 Cd169 2.240 . S
O179 C177 1.279 . S
O180 Cd170 2.297 . S
O180 C175 1.247 . S
O181 Cd170 2.439 . S
O181 C175 1.208 . S
O182 Cd183 2.223 . S
O182 C190 1.315 . S
Cd183 O182 2.223 . S
Cd183 O186 2.297 . S
Cd183 O187 2.439 . S
Cd183 O193 2.240 . S
Cd184 O185 2.240 . S
Cd184 O192 2.223 . S
Cd184 O194 2.297 . S
Cd184 O195 2.439 . S
O185 Cd184 2.240 . S
O185 C190 1.279 . S
O186 Cd183 2.297 . S
O186 C188 1.247 . S
O187 Cd183 2.439 . S
O187 C188 1.208 . S
C188 O186 1.247 . S
C188 O187 1.208 . S
C189 O194 1.247 . S
C189 O195 1.208 . S
C190 O182 1.315 . S
C190 O185 1.279 . S
C191 O192 1.315 . S
C191 O193 1.279 . S
O192 Cd184 2.223 . S
O192 C191 1.315 . S
O193 Cd183 2.240 . S
O193 C191 1.279 . S
O194 Cd184 2.297 . S
O194 C189 1.247 . S
O195 Cd184 2.439 . S
O195 C189 1.208 . S
O196 Cd197 2.223 . S
O196 C204 1.315 . S
Cd197 O196 2.223 . S
Cd197 O200 2.297 1_545 S
Cd197 O201 2.439 . S
Cd197 O207 2.240 . S
Cd198 O199 2.240 . S
Cd198 O206 2.223 . S
Cd198 O208 2.297 . S
Cd198 O209 2.439 . S
O199 Cd198 2.240 . S
O199 C204 1.279 . S
O200 Cd197 2.297 1_565 S
O200 C202 1.247 1_565 S
O201 Cd197 2.439 . S
O201 C202 1.208 . S
C202 O200 1.247 1_545 S
C202 O201 1.208 . S
C203 O208 1.247 . S
C203 O209 1.208 . S
C204 O196 1.315 . S
C204 O199 1.279 . S
C205 O206 1.315 . S
C205 O207 1.279 . S
O206 Cd198 2.223 . S
O206 C205 1.315 . S
O207 Cd197 2.240 . S
O207 C205 1.279 . S
O208 Cd198 2.297 . S
O208 C203 1.247 . S
O209 Cd198 2.439 . S
O209 C203 1.208 . S
O210 Cd211 2.223 . S
O210 C218 1.315 . S
Cd211 O210 2.223 . S
Cd211 O214 2.297 . S
Cd211 O215 2.439 . S
Cd211 O221 2.240 . S
Cd212 O213 2.240 . S
Cd212 O220 2.223 . S
Cd212 O222 2.297 . S
Cd212 O223 2.439 . S
O213 Cd212 2.240 . S
O213 C218 1.279 . S
O214 Cd211 2.297 . S
O214 C216 1.247 . S
O215 Cd211 2.439 . S
O215 C216 1.208 . S
C216 O214 1.247 . S
C216 O215 1.208 . S
C217 O222 1.247 . S
C217 O223 1.208 . S
C218 O210 1.315 . S
C218 O213 1.279 . S
C219 O220 1.315 . S
C219 O221 1.279 . S
O220 Cd212 2.223 . S
O220 C219 1.315 . S
O221 Cd211 2.240 . S
O221 C219 1.279 . S
O222 Cd212 2.297 . S
O222 C217 1.247 . S
O223 Cd212 2.439 . S
O223 C217 1.208 . S
O224 Cd225 2.223 . S
O224 C232 1.315 . S
Cd225 O224 2.223 . S
Cd225 O228 2.297 . S
Cd225 O229 2.439 . S
Cd225 O235 2.240 . S
Cd226 O227 2.240 . S
Cd226 O234 2.223 . S
Cd226 O236 2.297 . S
Cd226 O237 2.439 . S
O227 Cd226 2.240 . S
O227 C232 1.279 . S
O228 Cd225 2.297 . S
O228 C230 1.247 . S
O229 Cd225 2.439 . S
O229 C230 1.208 . S
C230 O228 1.247 . S
C230 O229 1.208 . S
C231 O236 1.247 . S
C231 O237 1.208 . S
C232 O224 1.315 . S
C232 O227 1.279 . S
C233 O234 1.315 . S
C233 O235 1.279 . S
O234 Cd226 2.223 . S
O234 C233 1.315 . S
O235 Cd225 2.240 . S
O235 C233 1.279 . S
O236 Cd226 2.297 . S
O236 C231 1.247 . S
O237 Cd226 2.439 . S
O237 C231 1.208 . S
O238 Cd239 2.223 . S
O238 C246 1.315 . S
Cd239 O238 2.223 . S
Cd239 O242 2.297 . S
Cd239 O243 2.439 . S
Cd239 O249 2.240 . S
Cd240 O241 2.240 . S
Cd240 O248 2.223 . S
Cd240 O250 2.297 . S
Cd240 O251 2.439 . S
O241 Cd240 2.240 . S
O241 C246 1.279 . S
O242 Cd239 2.297 . S
O242 C244 1.247 . S
O243 Cd239 2.439 . S
O243 C244 1.208 . S
C244 O242 1.247 . S
C244 O243 1.208 . S
C245 O250 1.247 . S
C245 O251 1.208 . S
C246 O238 1.315 . S
C246 O241 1.279 . S
C247 O248 1.315 . S
C247 O249 1.279 . S
O248 Cd240 2.223 . S
O248 C247 1.315 . S
O249 Cd239 2.240 . S
O249 C247 1.279 . S
O250 Cd240 2.297 . S
O250 C245 1.247 . S
O251 Cd240 2.439 . S
O251 C245 1.208 . S
O252 Cd253 2.223 . S
O252 C260 1.315 . S
Cd253 O252 2.223 . S
Cd253 O256 2.297 . S
Cd253 O257 2.439 . S
Cd253 O263 2.240 . S
Cd254 O255 2.240 . S
Cd254 O262 2.223 . S
Cd254 O264 2.297 . S
Cd254 O265 2.439 . S
O255 Cd254 2.240 . S
O255 C260 1.279 . S
O256 Cd253 2.297 . S
O256 C258 1.247 . S
O257 Cd253 2.439 . S
O257 C258 1.208 . S
C258 O256 1.247 . S
C258 O257 1.208 . S
C259 O264 1.247 . S
C259 O265 1.208 . S
C260 O252 1.315 . S
C260 O255 1.279 . S
C261 O262 1.315 . S
C261 O263 1.279 . S
O262 Cd254 2.223 . S
O262 C261 1.315 . S
O263 Cd253 2.240 . S
O263 C261 1.279 . S
O264 Cd254 2.297 . S
O264 C259 1.247 . S
O265 Cd254 2.439 . S
O265 C259 1.208 . S
O266 Cd267 2.223 . S
O266 C274 1.315 . S
Cd267 O266 2.223 . S
Cd267 O270 2.297 . S
Cd267 O271 2.439 . S
Cd267 O277 2.240 . S
Cd268 O269 2.240 . S
Cd268 O276 2.223 . S
Cd268 O278 2.297 . S
Cd268 O279 2.439 . S
O269 Cd268 2.240 . S
O269 C274 1.279 . S
O270 Cd267 2.297 . S
O270 C272 1.247 . S
O271 Cd267 2.439 . S
O271 C272 1.208 . S
C272 O270 1.247 . S
C272 O271 1.208 . S
C273 O278 1.247 . S
C273 O279 1.208 . S
C274 O266 1.315 . S
C274 O269 1.279 . S
C275 O276 1.315 . S
C275 O277 1.279 . S
O276 Cd268 2.223 . S
O276 C275 1.315 . S
O277 Cd267 2.240 . S
O277 C275 1.279 . S
O278 Cd268 2.297 . S
O278 C273 1.247 . S
O279 Cd268 2.439 . S
O279 C273 1.208 . S
O280 Cd281 2.223 . S
O280 C288 1.315 . S
Cd281 O280 2.223 . S
Cd281 O284 2.297 . S
Cd281 O285 2.439 . S
Cd281 O291 2.240 . S
Cd282 O283 2.240 . S
Cd282 O290 2.223 . S
Cd282 O292 2.297 . S
Cd282 O293 2.439 . S
O283 Cd282 2.240 . S
O283 C288 1.279 . S
O284 Cd281 2.297 . S
O284 C286 1.247 . S
O285 Cd281 2.439 . S
O285 C286 1.208 . S
C286 O284 1.247 . S
C286 O285 1.208 . S
C287 O292 1.247 . S
C287 O293 1.208 . S
C288 O280 1.315 . S
C288 O283 1.279 . S
C289 O290 1.315 . S
C289 O291 1.279 . S
O290 Cd282 2.223 . S
O290 C289 1.315 . S
O291 Cd281 2.240 . S
O291 C289 1.279 . S
O292 Cd282 2.297 . S
O292 C287 1.247 . S
O293 Cd282 2.439 . S
O293 C287 1.208 . S
O294 Cd295 2.223 . S
O294 C302 1.315 . S
Cd295 O294 2.223 . S
Cd295 O298 2.297 1_545 S
Cd295 O299 2.439 . S
Cd295 O305 2.240 . S
Cd296 O297 2.240 . S
Cd296 O304 2.223 1_556 S
Cd296 O306 2.297 . S
Cd296 O307 2.439 . S
O297 Cd296 2.240 . S
O297 C302 1.279 . S
O298 Cd295 2.297 1_565 S
O298 C300 1.247 1_565 S
O299 Cd295 2.439 . S
O299 C300 1.208 . S
C300 O298 1.247 1_545 S
C300 O299 1.208 . S
C301 O306 1.247 . S
C301 O307 1.208 . S
C302 O294 1.315 . S
C302 O297 1.279 . S
C303 O304 1.315 . S
C303 O305 1.279 1_554 S
O304 Cd296 2.223 1_554 S
O304 C303 1.315 . S
O305 Cd295 2.240 . S
O305 C303 1.279 1_556 S
O306 Cd296 2.297 . S
O306 C301 1.247 . S
O307 Cd296 2.439 . S
O307 C301 1.208 . S
O308 Cd309 2.223 . S
O308 C316 1.315 . S
Cd309 O308 2.223 . S
Cd309 O312 2.297 1_655 S
Cd309 O313 2.439 . S
Cd309 O319 2.240 . S
Cd310 O311 2.240 . S
Cd310 O318 2.223 1_556 S
Cd310 O320 2.297 . S
Cd310 O321 2.439 . S
O311 Cd310 2.240 . S
O311 C316 1.279 . S
O312 Cd309 2.297 1_455 S
O312 C314 1.247 1_455 S
O313 Cd309 2.439 . S
O313 C314 1.208 . S
C314 O312 1.247 1_655 S
C314 O313 1.208 . S
C315 O320 1.247 . S
C315 O321 1.208 . S
C316 O308 1.315 . S
C316 O311 1.279 . S
C317 O318 1.315 . S
C317 O319 1.279 1_554 S
O318 Cd310 2.223 1_554 S
O318 C317 1.315 . S
O319 Cd309 2.240 . S
O319 C317 1.279 1_556 S
O320 Cd310 2.297 . S
O320 C315 1.247 . S
O321 Cd310 2.439 . S
O321 C315 1.208 . S
O322 Cd323 2.223 . S
O322 C330 1.315 . S
Cd323 O322 2.223 . S
Cd323 O326 2.297 . S
Cd323 O327 2.439 . S
Cd323 O333 2.240 . S
Cd324 O325 2.240 . S
Cd324 O332 2.223 1_556 S
Cd324 O334 2.297 . S
Cd324 O335 2.439 . S
O325 Cd324 2.240 . S
O325 C330 1.279 . S
O326 Cd323 2.297 . S
O326 C328 1.247 . S
O327 Cd323 2.439 . S
O327 C328 1.208 . S
C328 O326 1.247 . S
C328 O327 1.208 . S
C329 O334 1.247 . S
C329 O335 1.208 . S
C330 O322 1.315 . S
C330 O325 1.279 . S
C331 O332 1.315 . S
C331 O333 1.279 1_554 S
O332 Cd324 2.223 1_554 S
O332 C331 1.315 . S
O333 Cd323 2.240 . S
O333 C331 1.279 1_556 S
O334 Cd324 2.297 . S
O334 C329 1.247 . S
O335 Cd324 2.439 . S
O335 C329 1.208 . S
O336 Cd337 2.223 . S
O336 C344 1.315 . S
Cd337 O336 2.223 . S
Cd337 O340 2.297 . S
Cd337 O341 2.439 . S
Cd337 O347 2.240 . S
Cd338 O339 2.240 . S
Cd338 O346 2.223 . S
Cd338 O348 2.297 . S
Cd338 O349 2.439 . S
O339 Cd338 2.240 . S
O339 C344 1.279 . S
O340 Cd337 2.297 . S
O340 C342 1.247 . S
O341 Cd337 2.439 . S
O341 C342 1.208 . S
C342 O340 1.247 . S
C342 O341 1.208 . S
C343 O348 1.247 . S
C343 O349 1.208 . S
C344 O336 1.315 . S
C344 O339 1.279 . S
C345 O346 1.315 . S
C345 O347 1.279 . S
O346 Cd338 2.223 . S
O346 C345 1.315 . S
O347 Cd337 2.240 . S
O347 C345 1.279 . S
O348 Cd338 2.297 . S
O348 C343 1.247 . S
O349 Cd338 2.439 . S
O349 C343 1.208 . S
O350 Cd351 2.223 . S
O350 C358 1.315 . S
Cd351 O350 2.223 . S
Cd351 O354 2.297 . S
Cd351 O355 2.439 . S
Cd351 O361 2.240 . S
Cd352 O353 2.240 . S
Cd352 O360 2.223 . S
Cd352 O362 2.297 . S
Cd352 O363 2.439 . S
O353 Cd352 2.240 . S
O353 C358 1.279 . S
O354 Cd351 2.297 . S
O354 C356 1.247 . S
O355 Cd351 2.439 . S
O355 C356 1.208 . S
C356 O354 1.247 . S
C356 O355 1.208 . S
C357 O362 1.247 . S
C357 O363 1.208 . S
C358 O350 1.315 . S
C358 O353 1.279 . S
C359 O360 1.315 . S
C359 O361 1.279 . S
O360 Cd352 2.223 . S
O360 C359 1.315 . S
O361 Cd351 2.240 . S
O361 C359 1.279 . S
O362 Cd352 2.297 . S
O362 C357 1.247 . S
O363 Cd352 2.439 . S
O363 C357 1.208 . S
O364 Cd365 2.223 . S
O364 C372 1.315 . S
Cd365 O364 2.223 . S
Cd365 O368 2.297 . S
Cd365 O369 2.439 . S
Cd365 O375 2.240 . S
Cd366 O367 2.240 . S
Cd366 O374 2.223 . S
Cd366 O376 2.297 . S
Cd366 O377 2.439 . S
O367 Cd366 2.240 . S
O367 C372 1.279 . S
O368 Cd365 2.297 . S
O368 C370 1.247 . S
O369 Cd365 2.439 . S
O369 C370 1.208 . S
C370 O368 1.247 . S
C370 O369 1.208 . S
C371 O376 1.247 . S
C371 O377 1.208 . S
C372 O364 1.315 . S
C372 O367 1.279 . S
C373 O374 1.315 . S
C373 O375 1.279 . S
O374 Cd366 2.223 . S
O374 C373 1.315 . S
O375 Cd365 2.240 . S
O375 C373 1.279 . S
O376 Cd366 2.297 . S
O376 C371 1.247 . S
O377 Cd366 2.439 . S
O377 C371 1.208 . S
O378 Cd379 2.223 . S
O378 C386 1.315 . S
Cd379 O378 2.223 . S
Cd379 O382 2.297 1_565 S
Cd379 O383 2.439 . S
Cd379 O389 2.240 . S
Cd380 O381 2.240 . S
Cd380 O388 2.223 1_554 S
Cd380 O390 2.297 . S
Cd380 O391 2.439 . S
O381 Cd380 2.240 . S
O381 C386 1.279 . S
O382 Cd379 2.297 1_545 S
O382 C384 1.247 1_545 S
O383 Cd379 2.439 . S
O383 C384 1.208 . S
C384 O382 1.247 1_565 S
C384 O383 1.208 . S
C385 O390 1.247 . S
C385 O391 1.208 . S
C386 O378 1.315 . S
C386 O381 1.279 . S
C387 O388 1.315 . S
C387 O389 1.279 1_556 S
O388 Cd380 2.223 1_556 S
O388 C387 1.315 . S
O389 Cd379 2.240 . S
O389 C387 1.279 1_554 S
O390 Cd380 2.297 . S
O390 C385 1.247 . S
O391 Cd380 2.439 . S
O391 C385 1.208 . S
O392 Cd393 2.223 . S
O392 C400 1.315 . S
Cd393 O392 2.223 . S
Cd393 O396 2.297 1_455 S
Cd393 O397 2.439 . S
Cd393 O403 2.240 . S
Cd394 O395 2.240 . S
Cd394 O402 2.223 1_554 S
Cd394 O404 2.297 . S
Cd394 O405 2.439 . S
O395 Cd394 2.240 . S
O395 C400 1.279 . S
O396 Cd393 2.297 1_655 S
O396 C398 1.247 1_655 S
O397 Cd393 2.439 . S
O397 C398 1.208 . S
C398 O396 1.247 1_455 S
C398 O397 1.208 . S
C399 O404 1.247 . S
C399 O405 1.208 . S
C400 O392 1.315 . S
C400 O395 1.279 . S
C401 O402 1.315 . S
C401 O403 1.279 1_556 S
O402 Cd394 2.223 1_556 S
O402 C401 1.315 . S
O403 Cd393 2.240 . S
O403 C401 1.279 1_554 S
O404 Cd394 2.297 . S
O404 C399 1.247 . S
O405 Cd394 2.439 . S
O405 C399 1.208 . S
O406 Cd407 2.223 . S
O406 C414 1.315 . S
Cd407 O406 2.223 . S
Cd407 O410 2.297 . S
Cd407 O411 2.439 . S
Cd407 O417 2.240 . S
Cd408 O409 2.240 . S
Cd408 O416 2.223 1_554 S
Cd408 O418 2.297 . S
Cd408 O419 2.439 . S
O409 Cd408 2.240 . S
O409 C414 1.279 . S
O410 Cd407 2.297 . S
O410 C412 1.247 . S
O411 Cd407 2.439 . S
O411 C412 1.208 . S
C412 O410 1.247 . S
C412 O411 1.208 . S
C413 O418 1.247 . S
C413 O419 1.208 . S
C414 O406 1.315 . S
C414 O409 1.279 . S
C415 O416 1.315 . S
C415 O417 1.279 1_556 S
O416 Cd408 2.223 1_556 S
O416 C415 1.315 . S
O417 Cd407 2.240 . S
O417 C415 1.279 1_554 S
O418 Cd408 2.297 . S
O418 C413 1.247 . S
O419 Cd408 2.439 . S
O419 C413 1.208 . S
O420 Cd421 2.223 . S
O420 C428 1.315 . S
Cd421 O420 2.223 . S
Cd421 O424 2.297 1_455 S
Cd421 O425 2.439 . S
Cd421 O431 2.240 . S
Cd422 O423 2.240 . S
Cd422 O430 2.223 . S
Cd422 O432 2.297 . S
Cd422 O433 2.439 . S
O423 Cd422 2.240 . S
O423 C428 1.279 . S
O424 Cd421 2.297 1_655 S
O424 C426 1.247 1_655 S
O425 Cd421 2.439 . S
O425 C426 1.208 . S
C426 O424 1.247 1_455 S
C426 O425 1.208 . S
C427 O432 1.247 . S
C427 O433 1.208 . S
C428 O420 1.315 . S
C428 O423 1.279 . S
C429 O430 1.315 . S
C429 O431 1.279 . S
O430 Cd422 2.223 . S
O430 C429 1.315 . S
O431 Cd421 2.240 . S
O431 C429 1.279 . S
O432 Cd422 2.297 . S
O432 C427 1.247 . S
O433 Cd422 2.439 . S
O433 C427 1.208 . S
O434 Cd435 2.223 . S
O434 C442 1.315 . S
Cd435 O434 2.223 . S
Cd435 O438 2.297 . S
Cd435 O439 2.439 . S
Cd435 O445 2.240 . S
Cd436 O437 2.240 . S
Cd436 O444 2.223 . S
Cd436 O446 2.297 . S
Cd436 O447 2.439 . S
O437 Cd436 2.240 . S
O437 C442 1.279 . S
O438 Cd435 2.297 . S
O438 C440 1.247 . S
O439 Cd435 2.439 . S
O439 C440 1.208 . S
C440 O438 1.247 . S
C440 O439 1.208 . S
C441 O446 1.247 . S
C441 O447 1.208 . S
C442 O434 1.315 . S
C442 O437 1.279 . S
C443 O444 1.315 . S
C443 O445 1.279 . S
O444 Cd436 2.223 . S
O444 C443 1.315 . S
O445 Cd435 2.240 . S
O445 C443 1.279 . S
O446 Cd436 2.297 . S
O446 C441 1.247 . S
O447 Cd436 2.439 . S
O447 C441 1.208 . S
O448 Cd449 2.223 . S
O448 C456 1.315 . S
Cd449 O448 2.223 . S
Cd449 O452 2.297 1_565 S
Cd449 O453 2.439 . S
Cd449 O459 2.240 . S
Cd450 O451 2.240 . S
Cd450 O458 2.223 . S
Cd450 O460 2.297 . S
Cd450 O461 2.439 . S
O451 Cd450 2.240 . S
O451 C456 1.279 . S
O452 Cd449 2.297 1_545 S
O452 C454 1.247 1_545 S
O453 Cd449 2.439 . S
O453 C454 1.208 . S
C454 O452 1.247 1_565 S
C454 O453 1.208 . S
C455 O460 1.247 . S
C455 O461 1.208 . S
C456 O448 1.315 . S
C456 O451 1.279 . S
C457 O458 1.315 . S
C457 O459 1.279 . S
O458 Cd450 2.223 . S
O458 C457 1.315 . S
O459 Cd449 2.240 . S
O459 C457 1.279 . S
O460 Cd450 2.297 . S
O460 C455 1.247 . S
O461 Cd450 2.439 . S
O461 C455 1.208 . S
O462 Cd463 2.223 . S
O462 C470 1.315 . S
Cd463 O462 2.223 . S
Cd463 O466 2.297 . S
Cd463 O467 2.439 . S
Cd463 O473 2.240 . S
Cd464 O465 2.240 . S
Cd464 O472 2.223 . S
Cd464 O474 2.297 . S
Cd464 O475 2.439 . S
O465 Cd464 2.240 . S
O465 C470 1.279 . S
O466 Cd463 2.297 . S
O466 C468 1.247 . S
O467 Cd463 2.439 . S
O467 C468 1.208 . S
C468 O466 1.247 . S
C468 O467 1.208 . S
C469 O474 1.247 . S
C469 O475 1.208 . S
C470 O462 1.315 . S
C470 O465 1.279 . S
C471 O472 1.315 . S
C471 O473 1.279 . S
O472 Cd464 2.223 . S
O472 C471 1.315 . S
O473 Cd463 2.240 . S
O473 C471 1.279 . S
O474 Cd464 2.297 . S
O474 C469 1.247 . S
O475 Cd464 2.439 . S
O475 C469 1.208 . S
O476 Cd477 2.223 . S
O476 C484 1.315 . S
Cd477 O476 2.223 . S
Cd477 O480 2.297 . S
Cd477 O481 2.439 . S
Cd477 O487 2.240 . S
Cd478 O479 2.240 . S
Cd478 O486 2.223 . S
Cd478 O488 2.297 . S
Cd478 O489 2.439 . S
O479 Cd478 2.240 . S
O479 C484 1.279 . S
O480 Cd477 2.297 . S
O480 C482 1.247 . S
O481 Cd477 2.439 . S
O481 C482 1.208 . S
C482 O480 1.247 . S
C482 O481 1.208 . S
C483 O488 1.247 . S
C483 O489 1.208 . S
C484 O476 1.315 . S
C484 O479 1.279 . S
C485 O486 1.315 . S
C485 O487 1.279 . S
O486 Cd478 2.223 . S
O486 C485 1.315 . S
O487 Cd477 2.240 . S
O487 C485 1.279 . S
O488 Cd478 2.297 . S
O488 C483 1.247 . S
O489 Cd478 2.439 . S
O489 C483 1.208 . S
O490 Cd491 2.223 . S
O490 C498 1.315 . S
Cd491 O490 2.223 . S
Cd491 O494 2.297 . S
Cd491 O495 2.439 . S
Cd491 O501 2.240 . S
Cd492 O493 2.240 . S
Cd492 O500 2.223 . S
Cd492 O502 2.297 . S
Cd492 O503 2.439 . S
O493 Cd492 2.240 . S
O493 C498 1.279 . S
O494 Cd491 2.297 . S
O494 C496 1.247 . S
O495 Cd491 2.439 . S
O495 C496 1.208 . S
C496 O494 1.247 . S
C496 O495 1.208 . S
C497 O502 1.247 . S
C497 O503 1.208 . S
C498 O490 1.315 . S
C498 O493 1.279 . S
C499 O500 1.315 . S
C499 O501 1.279 . S
O500 Cd492 2.223 . S
O500 C499 1.315 . S
O501 Cd491 2.240 . S
O501 C499 1.279 . S
O502 Cd492 2.297 . S
O502 C497 1.247 . S
O503 Cd492 2.439 . S
O503 C497 1.208 . S
C230 C6 1.105 . S
C244 C20 1.106 . S
C34 C216 1.105 . S
C370 C48 1.105 . S
C342 C62 1.105 . S
C76 C356 1.106 . S
C482 C90 1.105 . S
C496 C104 1.106 . S
C468 C118 1.105 . S
C286 C132 1.105 . S
C146 C258 1.105 . S
C272 C160 1.106 . S
C398 C174 1.106 1_455 S
C188 C412 1.105 . S
C384 C202 1.106 1_565 S
C454 C300 1.106 1_565 S
C426 C314 1.106 1_455 S
C328 C440 1.105 . S
C105 C8 1.744 1_556 S
C119 C22 1.744 1_556 S
C91 C36 1.744 1_556 S
C50 C161 1.744 . S
C133 C64 1.744 . S
C78 C147 1.744 . S
C21 C92 1.744 1_554 S
C106 C35 1.744 1_556 S
C7 C120 1.744 1_554 S
C77 C134 1.744 . S
C49 C148 1.744 . S
C162 C63 1.744 . S
C176 C273 1.744 . S
C287 C190 1.744 . S
C259 C204 1.745 . S
C218 C329 1.745 . S
C301 C232 1.744 . S
C246 C315 1.744 . S
C260 C189 1.745 . S
C274 C203 1.744 . S
C175 C288 1.744 . S
C245 C302 1.744 . S
C217 C316 1.745 . S
C330 C231 1.744 . S
C441 C344 1.745 . S
C358 C455 1.744 . S
C372 C427 1.744 . S
C497 C386 1.744 . S
C400 C469 1.745 . S
C483 C414 1.744 . S
C357 C428 1.744 . S
C371 C442 1.744 . S
C456 C343 1.745 . S
C470 C413 1.745 . S
C385 C484 1.744 . S
C399 C498 1.744 . S
C9 C51 1.825 . S
C23 C65 1.825 1_545 S
C79 C37 1.825 1_455 S
C93 C135 1.825 . S
C149 C107 1.825 1_545 S
C163 C121 1.825 1_655 S
C177 C219 1.825 . S
C191 C233 1.825 . S
C247 C205 1.825 . S
C261 C303 1.825 . S
C275 C317 1.825 . S
C289 C331 1.825 . S
C387 C345 1.825 . S
C401 C359 1.825 . S
C415 C373 1.825 . S
C429 C471 1.825 . S
C485 C443 1.825 . S
C499 C457 1.825 . S
