# Generated by pormake.
# Topology oof, (8)-cn, num edge types: 1
# Building blocks:
#     Node 0, Type 0, BuildingBlock: TAGTUT_clean_sbu_1, # of connection points: 8
#     Node 1, Type 0, BuildingBlock: TAGTUT_clean_sbu_1, # of connection points: 8
#     Node 2, Type 0, BuildingBlock: TAGTUT_clean_sbu_1, # of connection points: 8
#     Node 3, Type 0, BuildingBlock: TAGTUT_clean_sbu_1, # of connection points: 8
#     Edge 4, Type (0, 0), BuildingBlock: EZIPEK_clean_linker_0, # of connection points: 2
#     Edge 5, Type (0, 0), BuildingBlock: EZIPEK_clean_linker_0, # of connection points: 2
#     Edge 6, Type (0, 0), BuildingBlock: EZIPEK_clean_linker_0, # of connection points: 2
#     Edge 7, Type (0, 0), BuildingBlock: EZIPEK_clean_linker_0, # of connection points: 2
#     Edge 8, Type (0, 0), BuildingBlock: EZIPEK_clean_linker_0, # of connection points: 2
#     Edge 9, Type (0, 0), BuildingBlock: EZIPEK_clean_linker_0, # of connection points: 2
#     Edge 10, Type (0, 0), BuildingBlock: EZIPEK_clean_linker_0, # of connection points: 2
#     Edge 11, Type (0, 0), BuildingBlock: EZIPEK_clean_linker_0, # of connection points: 2
#     Edge 12, Type (0, 0), BuildingBlock: EZIPEK_clean_linker_0, # of connection points: 2
#     Edge 13, Type (0, 0), BuildingBlock: EZIPEK_clean_linker_0, # of connection points: 2
#     Edge 14, Type (0, 0), BuildingBlock: EZIPEK_clean_linker_0, # of connection points: 2
#     Edge 15, Type (0, 0), BuildingBlock: EZIPEK_clean_linker_0, # of connection points: 2
#     Edge 16, Type (0, 0), BuildingBlock: EZIPEK_clean_linker_0, # of connection points: 2
#     Edge 17, Type (0, 0), BuildingBlock: EZIPEK_clean_linker_0, # of connection points: 2
#     Edge 18, Type (0, 0), BuildingBlock: EZIPEK_clean_linker_0, # of connection points: 2
#     Edge 19, Type (0, 0), BuildingBlock: EZIPEK_clean_linker_0, # of connection points: 2
# Relax obj value: 0.052
# Max RMSD: 0.154
# Mean RMSD: 0.154
data_MOF--net-oof--node1-TAGTUT_clean_sbu_1--edge1-EZIPEK_clean_linker_0
_symmetry_space_group_name_H-M    P1
_symmetry_Int_Tables_number       1
_symmetry_cell_setting            triclinic
loop_
_symmetry_equiv_pos_as_xyz
'x, y, z'
_cell_length_a     11.310671
_cell_length_b     42.150362
_cell_length_c     15.362519
_cell_angle_alpha  95.025787
_cell_angle_beta   102.77645
_cell_angle_gamma 103.74612
loop_
_atom_site_label
_atom_site_type_symbol
_atom_site_fract_x
_atom_site_fract_y
_atom_site_fract_z
_atom_type_partial_charge
C0 C 0.01677 0.10317 0.53272 0.0
C1 C 0.05251 0.04031 0.33464 0.0
C2 C 0.27889 0.15854 0.21595 0.0
Mg3 Mg 0.87588 0.0774 0.33397 0.0
O4 O -0.0115 0.11752 0.32899 0.0
Mg5 Mg 0.17276 0.123 0.37682 0.0
Mg6 Mg -0.00721 0.13049 0.20831 0.0
O7 O -0.00992 0.14384 0.08728 0.0
Mg8 Mg 0.07906 0.18626 0.07913 0.0
Mg9 Mg 0.80674 0.12824 0.02606 0.0
C10 C 0.69483 0.10759 0.2025 0.0
C11 C 0.90926 0.06358 0.05818 0.0
O12 O 0.1164 0.11712 0.50928 0.0
O13 O 0.91793 0.08431 0.47771 0.0
O14 O 0.15008 0.06511 0.35969 0.0
O15 O 0.95919 0.04404 0.27792 0.0
O16 O 0.70845 0.0885 0.26211 0.0
O17 O 0.78527 0.12283 0.17247 0.0
C18 C 0.1249 0.19528 0.36316 0.0
O19 O 0.0406 0.18464 0.28767 0.0
O20 O 0.18633 0.17676 0.40312 0.0
O21 O 0.87463 0.13594 0.89778 0.0
O22 O 0.06173 0.17448 0.93825 0.0
O23 O 0.77957 0.18051 0.03309 0.0
C24 C 0.97479 0.15289 0.88008 0.0
O25 O 0.96016 0.21986 0.0848 0.0
O26 O 0.2533 0.18116 0.16907 0.0
C27 C 0.84054 0.21088 0.05355 0.0
O28 O 0.19509 0.13564 0.23452 0.0
O29 O 0.96952 0.07803 0.13755 0.0
O30 O 0.83493 0.07646 0.00701 0.0
C31 C 0.01501 0.86314 0.09439 0.0
C32 C 0.15646 0.80767 0.9181 0.0
C33 C 0.29434 0.90922 0.77165 0.0
Mg34 Mg 0.91372 0.83055 0.89408 0.0
O35 O -0.00107 0.87363 0.88835 0.0
Mg36 Mg 0.18249 0.88965 0.9497 0.0
Mg37 Mg -0.00423 0.88697 0.76709 0.0
O38 O 0.00028 0.89959 0.64613 0.0
Mg39 Mg 0.11435 0.93924 0.63944 0.0
Mg40 Mg 0.81635 0.89418 0.59818 0.0
C41 C 0.7106 0.85835 0.75911 0.0
C42 C 0.86279 0.82187 0.61305 0.0
O43 O 0.11432 0.88094 0.07753 0.0
O44 O 0.93017 0.84128 0.03549 0.0
O45 O 0.21433 0.83813 0.94152 0.0
O46 O 0.03713 0.79809 0.88514 0.0
O47 O 0.73819 0.83562 0.80488 0.0
O48 O 0.79293 0.88173 0.7407 0.0
C49 C 0.07609 0.95372 0.91735 0.0
O50 O 0.01783 0.93942 0.83745 0.0
O51 O 0.15013 0.94092 0.96908 0.0
O52 O 0.87247 0.89944 0.46515 0.0
O53 O 0.07124 0.93194 0.49566 0.0
O54 O 0.841 0.95215 0.61456 0.0
C55 C 0.97201 0.91306 0.44113 0.0
O56 O 0.03244 0.97285 0.69593 0.0
O57 O 0.28134 0.92764 0.71026 0.0
C58 C 0.93922 0.97679 0.63953 0.0
O59 O 0.20378 0.89526 0.80347 0.0
O60 O 0.94803 0.83264 0.6881 0.0
O61 O 0.80143 0.84038 0.57303 0.0
C62 C 0.52741 0.59962 0.53013 0.0
C63 C 0.58482 0.53958 0.3446 0.0
C64 C 0.8299 0.64999 0.22823 0.0
Mg65 Mg 0.4079 0.57636 0.32526 0.0
O66 O 0.52019 0.61923 0.33932 0.0
Mg67 Mg 0.70445 0.62144 0.39144 0.0
Mg68 Mg 0.53556 0.63488 0.22176 0.0
O69 O 0.54511 0.64757 0.1025 0.0
Mg70 Mg 0.6609 0.68369 0.08187 0.0
Mg71 Mg 0.36252 0.63558 0.03987 0.0
C72 C 0.25408 0.61293 0.21641 0.0
C73 C 0.43353 0.56734 0.07324 0.0
O74 O 0.63229 0.6136 0.51382 0.0
O75 O 0.42952 0.58266 0.46949 0.0
O76 O 0.68284 0.56358 0.37705 0.0
O77 O 0.50572 0.54464 0.27974 0.0
O78 O 0.26584 0.58368 0.21555 0.0
O79 O 0.32696 0.63429 0.18461 0.0
C80 C 0.67917 0.69667 0.38212 0.0
O81 O 0.60075 0.68869 0.30366 0.0
O82 O 0.72684 0.67571 0.42192 0.0
O83 O 0.42375 0.63799 0.90986 0.0
O84 O 0.62725 0.66716 0.941 0.0
O85 O 0.36781 0.69022 0.04541 0.0
C86 C 0.52542 0.64951 0.88646 0.0
O87 O 0.56466 0.72335 0.08395 0.0
O88 O 0.82297 0.67032 0.16993 0.0
C89 C 0.44477 0.71885 0.05963 0.0
O90 O 0.73456 0.63502 0.25375 0.0
O91 O 0.49779 0.58198 0.15113 0.0
O92 O 0.36513 0.58143 0.02156 0.0
C93 C 0.44747 0.36155 0.08155 0.0
C94 C 0.55611 0.29962 0.90277 0.0
C95 C 0.72709 0.40503 0.76397 0.0
Mg96 Mg 0.3311 0.32952 0.88224 0.0
O97 O 0.43098 0.37035 0.87259 0.0
Mg98 Mg 0.61408 0.38299 0.93466 0.0
Mg99 Mg 0.43526 0.38391 0.75156 0.0
O100 O 0.4449 0.39749 0.63052 0.0
Mg101 Mg 0.5585 0.43785 0.63074 0.0
Mg102 Mg 0.26132 0.39461 0.58098 0.0
C103 C 0.15266 0.3633 0.74604 0.0
C104 C 0.29533 0.32056 0.59327 0.0
O105 O 0.54913 0.37673 0.06283 0.0
O106 O 0.35516 0.34131 0.02397 0.0
O107 O 0.62442 0.3293 0.92495 0.0
O108 O 0.43692 0.29291 0.87006 0.0
O109 O 0.16678 0.34142 0.79853 0.0
O110 O 0.24154 0.38143 0.72093 0.0
C111 C 0.53285 0.45044 0.90578 0.0
O112 O 0.46991 0.43677 0.82622 0.0
O113 O 0.60026 0.43582 0.95655 0.0
O114 O 0.31767 0.40065 0.45065 0.0
O115 O 0.51952 0.43151 0.48622 0.0
O116 O 0.29115 0.45312 0.59809 0.0
C117 C 0.41949 0.41394 0.42937 0.0
O118 O 0.47437 0.47005 0.6902 0.0
O119 O 0.71753 0.42531 0.70721 0.0
C120 C 0.39294 0.47629 0.62884 0.0
O121 O 0.6355 0.38859 0.78972 0.0
O122 O 0.3775 0.32994 0.67012 0.0
O123 O 0.24054 0.34029 0.55291 0.0
C124 C 0.09873 0.13161 0.78336 0.0
C125 C -0.00515 0.1444 0.79067 0.0
C126 C 0.9121 0.13277 0.62714 0.0
C127 C 0.00589 0.11584 0.62169 0.0
N128 N 0.18108 0.09632 0.69348 0.0
N129 N 0.80164 0.15707 0.72134 0.0
C130 C 0.09771 0.1147 0.6994 0.0
C131 C 0.90098 0.14482 0.71301 0.0
N132 N 0.19873 0.13546 0.8559 0.0
N133 N 0.83894 0.13926 0.55054 0.0
H134 H 0.79739 0.16968 0.78164 0.0
H135 H 0.72087 0.15356 0.66947 0.0
H136 H 0.84622 0.13235 0.4856 0.0
H137 H 0.77942 0.15466 0.55105 0.0
H138 H 0.28302 0.1305 0.85074 0.0
H139 H 0.20327 0.14578 0.92074 0.0
H140 H 0.23943 0.09078 0.74935 0.0
H141 H 0.1848 0.08417 0.63248 0.0
C142 C 0.8904 0.90085 0.2744 0.0
C143 C 0.9824 0.89997 0.35231 0.0
C144 C 0.08729 0.87073 0.26151 0.0
C145 C -0.0067 0.87093 0.18373 0.0
N146 N 0.78755 0.87876 0.1189 0.0
N147 N 0.14914 0.87658 0.42404 0.0
C148 C 0.88887 0.88347 0.19092 0.0
C149 C 0.07606 0.88294 0.34724 0.0
N150 N 0.80729 0.91936 0.2796 0.0
N151 N 0.18693 0.8586 0.25337 0.0
H152 H 0.14174 0.88362 0.48887 0.0
H153 H 0.20861 0.86115 0.42378 0.0
H154 H 0.19129 0.84599 0.19308 0.0
H155 H 0.26763 0.86219 0.30536 0.0
H156 H 0.74871 0.92459 0.22331 0.0
H157 H 0.80429 0.93196 0.3402 0.0
H158 H 0.70359 0.88391 0.12419 0.0
H159 H 0.78105 0.86713 0.05504 0.0
C160 C 0.6066 0.61687 0.78314 0.0
C161 C 0.5285 0.63787 0.79497 0.0
C162 C 0.43749 0.63027 0.63243 0.0
C163 C 0.51612 0.60916 0.62085 0.0
N164 N 0.69437 0.58844 0.68119 0.0
N165 N 0.36445 0.66342 0.73562 0.0
C166 C 0.60551 0.60404 0.69512 0.0
C167 C 0.44212 0.64418 0.72088 0.0
N168 N 0.67685 0.60759 0.85612 0.0
N169 N 0.36778 0.63954 0.55888 0.0
H170 H 0.37406 0.67678 0.7984 0.0
H171 H 0.28711 0.6653 0.6871 0.0
H172 H 0.36346 0.63105 0.49227 0.0
H173 H 0.32066 0.65781 0.56256 0.0
H174 H 0.72133 0.58879 0.85126 0.0
H175 H 0.68394 0.61678 0.92264 0.0
H176 H 0.77388 0.58863 0.73093 0.0
H177 H 0.69414 0.57709 0.61816 0.0
C178 C 0.3366 0.38784 0.17809 0.0
C179 C 0.43156 0.37155 0.17083 0.0
C180 C 0.51483 0.38191 0.33415 0.0
C181 C 0.42924 0.40143 0.34023 0.0
N182 N 0.26341 0.42467 0.27055 0.0
N183 N 0.61298 0.35348 0.23881 0.0
C184 C 0.34071 0.40462 0.26296 0.0
C185 C 0.52159 0.36884 0.24802 0.0
N186 N 0.2423 0.38739 0.10434 0.0
N187 N 0.58332 0.3739 0.41039 0.0
H188 H 0.61268 0.34028 0.178 0.0
H189 H 0.69218 0.35498 0.29034 0.0
H190 H 0.57822 0.38143 0.47553 0.0
H191 H 0.63673 0.35695 0.40953 0.0
H192 H 0.161 0.39427 0.10855 0.0
H193 H 0.24021 0.37874 0.03841 0.0
H194 H 0.20838 0.43168 0.21572 0.0
H195 H 0.26082 0.43646 0.33236 0.0
C196 C 0.47803 0.1092 0.13471 0.0
C197 C 0.5925 0.12287 0.19938 0.0
C198 C 0.50533 0.16249 0.27287 0.0
C199 C 0.39117 0.14897 0.20744 0.0
N200 N 0.27266 0.11479 0.06553 0.0
N201 N 0.7264 0.16522 0.32178 0.0
C202 C 0.37879 0.12398 0.1349 0.0
C203 C 0.60997 0.15054 0.26581 0.0
N204 N 0.46316 0.08146 0.07553 0.0
N205 N 0.51165 0.18569 0.34306 0.0
H206 H 0.80492 0.15634 0.32192 0.0
H207 H 0.74786 0.18743 0.3647 0.0
H208 H 0.43663 0.19561 0.34768 0.0
H209 H 0.58805 0.19392 0.39901 0.0
H210 H 0.37675 0.06773 0.03434 0.0
H211 H 0.53661 0.07081 0.07165 0.0
H212 H 0.26589 0.09989 0.00604 0.0
H213 H 0.19538 0.12437 0.06343 0.0
C214 C 0.48398 0.85437 0.70141 0.0
C215 C 0.59707 0.86723 0.7684 0.0
C216 C 0.50819 0.90602 0.84335 0.0
C217 C 0.3954 0.8933 0.77632 0.0
N218 N 0.26309 0.85183 0.65146 0.0
N219 N 0.71234 0.89971 0.9132 0.0
C220 C 0.37902 0.8662 0.70848 0.0
C221 C 0.60757 0.89126 0.84278 0.0
N222 N 0.47894 0.8319 0.62992 0.0
N223 N 0.52157 0.93294 0.90497 0.0
H224 H 0.78979 0.89023 0.91485 0.0
H225 H 0.71785 0.91387 0.97361 0.0
H226 H 0.44781 0.94344 0.90902 0.0
H227 H 0.60705 0.94615 0.94841 0.0
H228 H 0.40364 0.82431 0.57308 0.0
H229 H 0.55391 0.82194 0.6254 0.0
H230 H 0.24239 0.83008 0.60684 0.0
H231 H 0.18406 0.86034 0.65267 0.0
C232 C 0.06377 0.66665 0.28558 0.0
C233 C 0.94905 0.64133 0.26072 0.0
C234 C 0.06781 0.60017 0.27988 0.0
C235 C 0.17233 0.62381 0.26958 0.0
N236 N 0.29177 0.68038 0.31017 0.0
N237 N 0.84401 0.58196 0.23277 0.0
C238 C 0.17772 0.65765 0.28794 0.0
C239 C 0.95079 0.60748 0.26017 0.0
N240 N 0.06228 0.69872 0.30623 0.0
N241 N 0.08034 0.57116 0.30862 0.0
H242 H 0.75369 0.58453 0.21102 0.0
H243 H 0.8466 0.55736 0.22312 0.0
H244 H 0.16833 0.56684 0.33134 0.0
H245 H 0.0063 0.55397 0.32243 0.0
H246 H 0.14155 0.71869 0.32328 0.0
H247 H 0.98008 0.70514 0.31078 0.0
H248 H 0.30496 0.7058 0.32123 0.0
H249 H 0.3749 0.673 0.32285 0.0
C250 C 0.81558 0.36167 0.71066 0.0
C251 C 0.83119 0.39123 0.76936 0.0
C252 C 0.05298 0.40647 0.78561 0.0
C253 C 0.04124 0.37467 0.73862 0.0
N254 N 0.91447 0.32096 0.6615 0.0
N255 N 0.96099 0.4374 0.87877 0.0
C256 C 0.92329 0.35173 0.70333 0.0
C257 C 0.94912 0.41199 0.81298 0.0
N258 N 0.69995 0.34446 0.65765 0.0
N259 N 0.15899 0.432 0.80049 0.0
H260 H 0.88396 0.4418 0.89999 0.0
H261 H 0.04777 0.45173 0.91799 0.0
H262 H 0.2371 0.43133 0.77658 0.0
H263 H 0.1629 0.45601 0.82663 0.0
H264 H 0.68709 0.32502 0.60674 0.0
H265 H 0.6172 0.35102 0.6589 0.0
H266 H 0.83166 0.30195 0.6445 0.0
H267 H -0.00828 0.3141 0.64728 0.0
C268 C 0.16996 0.26127 0.56086 0.0
C269 C 0.26393 0.28675 0.54253 0.0
C270 C 0.23808 0.25523 0.39354 0.0
C271 C 0.15008 0.22884 0.414 0.0
N272 N 0.03559 0.20526 0.51798 0.0
N273 N 0.40238 0.30638 0.44921 0.0
C274 C 0.11664 0.23159 0.49795 0.0
C275 C 0.30212 0.28319 0.46086 0.0
N276 N 0.12955 0.26592 0.63736 0.0
N277 N 0.25931 0.25354 0.3093 0.0
H278 H 0.45257 0.32655 0.49866 0.0
H279 H 0.44297 0.3042 0.39522 0.0
H280 H 0.21171 0.23352 0.25886 0.0
H281 H 0.31443 0.27295 0.28661 0.0
H282 H 0.05095 0.25037 0.65024 0.0
H283 H 0.17286 0.28638 0.68723 0.0
H284 H 0.01884 0.20361 0.58156 0.0
H285 H -0.01223 0.1843 0.47067 0.0
C286 C 0.71977 0.26874 0.89929 0.0
C287 C 0.61756 0.27351 0.93345 0.0
C288 C 0.67336 0.24086 0.0549 0.0
C289 C 0.77213 0.23506 0.01823 0.0
N290 N 0.87413 0.23786 0.89527 0.0
N291 N 0.48969 0.26228 0.04014 0.0
C292 C 0.7916 0.2476 0.93786 0.0
C293 C 0.59155 0.25877 0.0098 0.0
N294 N 0.74947 0.2849 0.8304 0.0
N295 N 0.66104 0.23012 0.13482 0.0
H296 H 0.43223 0.2769 0.01392 0.0
H297 H 0.45674 0.24929 0.08828 0.0
H298 H 0.7201 0.21721 0.16929 0.0
H299 H 0.5991 0.23577 0.17082 0.0
H300 H 0.8331 0.28647 0.81113 0.0
H301 H 0.69307 0.29828 0.79527 0.0
H302 H 0.88069 0.2426 0.83088 0.0
H303 H 0.92995 0.22273 0.92081 0.0
C304 C 0.80738 0.75577 0.41377 0.0
C305 C 0.71564 0.73033 0.43464 0.0
C306 C 0.75103 0.76179 0.58545 0.0
C307 C 0.83625 0.78818 0.56246 0.0
N308 N 0.94382 0.81158 0.45481 0.0
N309 N 0.58618 0.71047 0.53383 0.0
C310 C 0.86431 0.78536 0.47661 0.0
C311 C 0.68369 0.73379 0.51889 0.0
N312 N 0.8427 0.75112 0.33506 0.0
N313 N 0.73557 0.76354 0.6713 0.0
H314 H 0.53351 0.69019 0.48543 0.0
H315 H 0.55016 0.71247 0.5902 0.0
H316 H 0.78598 0.78353 0.72114 0.0
H317 H 0.68251 0.74423 0.69563 0.0
H318 H 0.91948 0.76666 0.31995 0.0
H319 H 0.79755 0.73065 0.28552 0.0
H320 H 0.95655 0.81333 0.3902 0.0
H321 H -0.00534 0.83237 0.50193 0.0
C322 C 0.3005 0.75432 0.07552 0.0
C323 C 0.38875 0.74606 0.03124 0.0
C324 C 0.32628 0.77877 0.91212 0.0
C325 C 0.22824 0.78383 0.95098 0.0
N326 N 0.11757 0.77548 0.06851 0.0
N327 N 0.47615 0.74691 0.9011 0.0
C328 C 0.21391 0.77123 0.03229 0.0
C329 C 0.40019 0.75764 0.94829 0.0
N330 N 0.30246 0.74667 0.16045 0.0
N331 N 0.34944 0.79439 0.84091 0.0
H332 H 0.53353 0.73194 0.92516 0.0
H333 H 0.47628 0.751 0.83525 0.0
H334 H 0.29248 0.80832 0.80915 0.0
H335 H 0.42915 0.79521 0.81688 0.0
H336 H 0.24922 0.75441 0.20106 0.0
H337 H 0.36697 0.73496 0.1939 0.0
H338 H 0.09299 0.76378 0.1213 0.0
H339 H 0.05605 0.78916 0.04248 0.0
C340 C 0.91259 1.00379 0.04796 0.0
C341 C 0.94606 0.03484 0.01887 0.0
C342 C 0.0711 0.01332 0.92681 0.0
C343 C 0.03805 0.98231 0.95613 0.0
N344 N 0.94698 0.94962 0.05842 0.0
N345 N 0.03546 0.06728 0.91552 0.0
C346 C 0.96429 0.97799 0.02058 0.0
C347 C 0.01911 0.03906 0.95401 0.0
N348 N 0.823 0.99812 0.09569 0.0
N349 N 0.1606 0.01905 0.87899 0.0
H350 H 0.00793 0.08787 0.93702 0.0
H351 H 0.06972 0.06946 0.85816 0.0
H352 H 0.20256 1.00094 0.85981 0.0
H353 H 0.20235 0.04242 0.8663 0.0
H354 H 0.78074 0.97475 0.10811 0.0
H355 H 0.78157 0.01632 0.11514 0.0
H356 H 0.91133 0.94717 0.11514 0.0
H357 H 0.97478 0.92907 0.03692 0.0
C358 C 0.89718 1.00524 0.40981 0.0
C359 C 0.02387 0.01908 0.40615 0.0
C360 C 0.09497 0.01177 0.56445 0.0
C361 C 0.96816 0.99803 0.56815 0.0
N362 N 0.75103 0.99507 0.50439 0.0
N363 N 0.24113 0.02222 0.46985 0.0
C364 C 0.86996 0.99877 0.49364 0.0
C365 C 0.12216 0.01839 0.48065 0.0
N366 N 0.80353 0.99531 0.33221 0.0
N367 N 0.18881 0.02143 0.64203 0.0
H368 H 0.26147 0.02429 0.40721 0.0
H369 H 0.31477 0.0188 0.51917 0.0
H370 H 0.17018 0.02325 0.70535 0.0
H371 H 0.28141 0.0333 0.64364 0.0
H372 H 0.71104 0.98335 0.33069 0.0
H373 H 0.82244 0.9934 0.269 0.0
H374 H 0.67756 0.99848 0.4549 0.0
H375 H 0.73061 0.99312 0.56705 0.0
C376 C 0.57238 0.53982 0.00402 0.0
C377 C 0.46058 0.53691 0.03456 0.0
C378 C 0.40185 0.47693 0.98667 0.0
C379 C 0.50672 0.48047 0.94761 0.0
N380 N 0.68653 0.51505 0.91251 0.0
N381 N 0.26887 0.50345 0.05652 0.0
C382 C 0.59082 0.51187 0.95484 0.0
C383 C 0.37495 0.5056 0.02603 0.0
N384 N 0.66273 0.56922 0.024 0.0
N385 N 0.33016 0.44598 0.98809 0.0
H386 H 0.24993 0.52387 0.08854 0.0
H387 H 0.19745 0.48195 0.04869 0.0
H388 H 0.34609 0.4245 0.9595 0.0
H389 H 0.25754 0.44119 0.02027 0.0
H390 H 0.75312 0.57181 0.01542 0.0
H391 H 0.65101 0.59082 0.05529 0.0
H392 H 0.74431 0.53764 0.90717 0.0
H393 H 0.70297 0.49499 0.87678 0.0
C394 C 0.57426 0.50806 0.56866 0.0
C395 C 0.44216 0.49685 0.56132 0.0
C396 C 0.40229 0.50757 0.40375 0.0
C397 C 0.53442 0.51882 0.41125 0.0
N398 N 0.74046 0.51675 0.49001 0.0
N399 N 0.2364 0.49923 0.48271 0.0
C400 C 0.61859 0.51513 0.49063 0.0
C401 C 0.35792 0.50052 0.48186 0.0
N402 N 0.65785 0.51492 0.65143 0.0
N403 N 0.31864 0.50091 0.32106 0.0
H404 H 0.20421 0.49688 0.54107 0.0
H405 H 0.17335 0.5051 0.43017 0.0
H406 H 0.34621 0.49853 0.26097 0.0
H407 H 0.22197 0.4918 0.31151 0.0
H408 H 0.75446 0.52421 0.66104 0.0
H409 H 0.62997 0.5174 0.71139 0.0
H410 H 0.8037 0.51097 0.54258 0.0
H411 H 0.77313 0.51949 0.43193 0.0
loop_
_geom_bond_atom_site_label_1
_geom_bond_atom_site_label_2
_geom_bond_distance
_geom_bond_site_symmetry_2
_ccdc_geom_bond_type
C0 O12 1.241 1_655 S
C0 O13 1.280 . S
C1 O14 1.277 . S
C1 O15 1.245 1_455 S
C2 O26 1.247 . S
C2 O28 1.289 . S
Mg3 O4 1.926 . S
Mg3 O13 1.984 . S
Mg3 O15 1.988 . S
Mg3 O16 2.061 . S
O4 Mg3 1.926 . S
O4 Mg5 1.986 1_655 S
O4 Mg6 1.917 1_655 S
Mg5 O4 1.986 1_455 S
Mg5 O12 2.042 . S
Mg5 O14 2.041 . S
Mg5 O20 2.038 . S
Mg5 O28 2.238 . S
Mg6 O4 1.917 1_455 S
Mg6 O7 1.917 . S
Mg6 O17 2.106 1_455 S
Mg6 O19 2.079 . S
Mg6 O28 2.106 . S
Mg6 O29 2.079 1_455 S
O7 Mg6 1.917 . S
O7 Mg8 1.926 . S
O7 Mg9 1.986 1_455 S
Mg8 O7 1.926 . S
Mg8 O22 1.984 1_554 S
Mg8 O25 1.988 . S
Mg8 O26 2.061 . S
Mg9 O7 1.986 1_655 S
Mg9 O17 2.238 . S
Mg9 O21 2.042 1_554 S
Mg9 O23 2.041 . S
Mg9 O30 2.038 . S
C10 O16 1.247 . S
C10 O17 1.289 . S
C11 O29 1.245 . S
C11 O30 1.274 . S
O12 C0 1.241 1_455 S
O12 Mg5 2.042 . S
O13 C0 1.280 . S
O13 Mg3 1.984 . S
O14 C1 1.277 . S
O14 Mg5 2.041 . S
O15 C1 1.245 1_655 S
O15 Mg3 1.988 . S
O16 Mg3 2.061 . S
O16 C10 1.247 . S
O17 Mg6 2.106 1_655 S
O17 Mg9 2.238 . S
O17 C10 1.289 . S
C18 O19 1.245 . S
C18 O20 1.274 . S
O19 Mg6 2.079 . S
O19 C18 1.245 . S
O20 Mg5 2.038 . S
O20 C18 1.274 . S
O21 Mg9 2.042 1_556 S
O21 C24 1.241 1_655 S
O22 Mg8 1.984 1_556 S
O22 C24 1.280 . S
O23 Mg9 2.041 . S
O23 C27 1.277 . S
C24 O21 1.241 1_455 S
C24 O22 1.280 . S
O25 Mg8 1.988 . S
O25 C27 1.245 1_455 S
O26 C2 1.247 . S
O26 Mg8 2.061 . S
C27 O23 1.277 . S
C27 O25 1.245 1_655 S
O28 C2 1.289 . S
O28 Mg5 2.238 . S
O28 Mg6 2.106 . S
O29 Mg6 2.079 1_655 S
O29 C11 1.245 . S
O30 Mg9 2.038 . S
O30 C11 1.274 . S
C31 O43 1.241 1_655 S
C31 O44 1.280 . S
C32 O45 1.277 . S
C32 O46 1.245 1_455 S
C33 O57 1.247 . S
C33 O59 1.289 . S
Mg34 O35 1.926 . S
Mg34 O44 1.984 1_556 S
Mg34 O46 1.988 . S
Mg34 O47 2.061 . S
O35 Mg34 1.926 . S
O35 Mg36 1.986 1_655 S
O35 Mg37 1.917 1_655 S
Mg36 O35 1.986 1_455 S
Mg36 O43 2.042 1_556 S
Mg36 O45 2.041 . S
Mg36 O51 2.038 . S
Mg36 O59 2.238 . S
Mg37 O35 1.917 1_455 S
Mg37 O38 1.917 . S
Mg37 O48 2.106 1_455 S
Mg37 O50 2.079 . S
Mg37 O59 2.106 . S
Mg37 O60 2.079 1_455 S
O38 Mg37 1.917 . S
O38 Mg39 1.926 . S
O38 Mg40 1.986 1_455 S
Mg39 O38 1.926 . S
Mg39 O53 1.984 . S
Mg39 O56 1.988 . S
Mg39 O57 2.061 . S
Mg40 O38 1.986 1_655 S
Mg40 O48 2.238 . S
Mg40 O52 2.042 . S
Mg40 O54 2.041 . S
Mg40 O61 2.038 . S
C41 O47 1.247 . S
C41 O48 1.289 . S
C42 O60 1.245 . S
C42 O61 1.274 . S
O43 C31 1.241 1_455 S
O43 Mg36 2.042 1_554 S
O44 C31 1.280 . S
O44 Mg34 1.984 1_554 S
O45 C32 1.277 . S
O45 Mg36 2.041 . S
O46 C32 1.245 1_655 S
O46 Mg34 1.988 . S
O47 Mg34 2.061 . S
O47 C41 1.247 . S
O48 Mg37 2.106 1_655 S
O48 Mg40 2.238 . S
O48 C41 1.289 . S
C49 O50 1.245 . S
C49 O51 1.274 . S
O50 Mg37 2.079 . S
O50 C49 1.245 . S
O51 Mg36 2.038 . S
O51 C49 1.274 . S
O52 Mg40 2.042 . S
O52 C55 1.241 1_655 S
O53 Mg39 1.984 . S
O53 C55 1.280 . S
O54 Mg40 2.041 . S
O54 C58 1.277 . S
C55 O52 1.241 1_455 S
C55 O53 1.280 . S
O56 Mg39 1.988 . S
O56 C58 1.245 1_455 S
O57 C33 1.247 . S
O57 Mg39 2.061 . S
C58 O54 1.277 . S
C58 O56 1.245 1_655 S
O59 C33 1.289 . S
O59 Mg36 2.238 . S
O59 Mg37 2.106 . S
O60 Mg37 2.079 1_655 S
O60 C42 1.245 . S
O61 Mg40 2.038 . S
O61 C42 1.274 . S
C62 O74 1.241 . S
C62 O75 1.280 . S
C63 O76 1.277 . S
C63 O77 1.245 . S
C64 O88 1.247 . S
C64 O90 1.289 . S
Mg65 O66 1.926 . S
Mg65 O75 1.984 . S
Mg65 O77 1.988 . S
Mg65 O78 2.061 . S
O66 Mg65 1.926 . S
O66 Mg67 1.986 . S
O66 Mg68 1.917 . S
Mg67 O66 1.986 . S
Mg67 O74 2.042 . S
Mg67 O76 2.041 . S
Mg67 O82 2.038 . S
Mg67 O90 2.238 . S
Mg68 O66 1.917 . S
Mg68 O69 1.917 . S
Mg68 O79 2.106 . S
Mg68 O81 2.079 . S
Mg68 O90 2.106 . S
Mg68 O91 2.079 . S
O69 Mg68 1.917 . S
O69 Mg70 1.926 . S
O69 Mg71 1.986 . S
Mg70 O69 1.926 . S
Mg70 O84 1.984 1_554 S
Mg70 O87 1.988 . S
Mg70 O88 2.061 . S
Mg71 O69 1.986 . S
Mg71 O79 2.238 . S
Mg71 O83 2.042 1_554 S
Mg71 O85 2.041 . S
Mg71 O92 2.038 . S
C72 O78 1.247 . S
C72 O79 1.289 . S
C73 O91 1.245 . S
C73 O92 1.274 . S
O74 C62 1.241 . S
O74 Mg67 2.042 . S
O75 C62 1.280 . S
O75 Mg65 1.984 . S
O76 C63 1.277 . S
O76 Mg67 2.041 . S
O77 C63 1.245 . S
O77 Mg65 1.988 . S
O78 Mg65 2.061 . S
O78 C72 1.247 . S
O79 Mg68 2.106 . S
O79 Mg71 2.238 . S
O79 C72 1.289 . S
C80 O81 1.245 . S
C80 O82 1.274 . S
O81 Mg68 2.079 . S
O81 C80 1.245 . S
O82 Mg67 2.038 . S
O82 C80 1.274 . S
O83 Mg71 2.042 1_556 S
O83 C86 1.241 . S
O84 Mg70 1.984 1_556 S
O84 C86 1.280 . S
O85 Mg71 2.041 . S
O85 C89 1.277 . S
C86 O83 1.241 . S
C86 O84 1.280 . S
O87 Mg70 1.988 . S
O87 C89 1.245 . S
O88 C64 1.247 . S
O88 Mg70 2.061 . S
C89 O85 1.277 . S
C89 O87 1.245 . S
O90 C64 1.289 . S
O90 Mg67 2.238 . S
O90 Mg68 2.106 . S
O91 Mg68 2.079 . S
O91 C73 1.245 . S
O92 Mg71 2.038 . S
O92 C73 1.274 . S
C93 O105 1.241 . S
C93 O106 1.280 . S
C94 O107 1.277 . S
C94 O108 1.245 . S
C95 O119 1.247 . S
C95 O121 1.289 . S
Mg96 O97 1.926 . S
Mg96 O106 1.984 1_556 S
Mg96 O108 1.988 . S
Mg96 O109 2.061 . S
O97 Mg96 1.926 . S
O97 Mg98 1.986 . S
O97 Mg99 1.917 . S
Mg98 O97 1.986 . S
Mg98 O105 2.042 1_556 S
Mg98 O107 2.041 . S
Mg98 O113 2.038 . S
Mg98 O121 2.238 . S
Mg99 O97 1.917 . S
Mg99 O100 1.917 . S
Mg99 O110 2.106 . S
Mg99 O112 2.079 . S
Mg99 O121 2.106 . S
Mg99 O122 2.079 . S
O100 Mg99 1.917 . S
O100 Mg101 1.926 . S
O100 Mg102 1.986 . S
Mg101 O100 1.926 . S
Mg101 O115 1.984 . S
Mg101 O118 1.988 . S
Mg101 O119 2.061 . S
Mg102 O100 1.986 . S
Mg102 O110 2.238 . S
Mg102 O114 2.042 . S
Mg102 O116 2.041 . S
Mg102 O123 2.038 . S
C103 O109 1.247 . S
C103 O110 1.289 . S
C104 O122 1.245 . S
C104 O123 1.274 . S
O105 C93 1.241 . S
O105 Mg98 2.042 1_554 S
O106 C93 1.280 . S
O106 Mg96 1.984 1_554 S
O107 C94 1.277 . S
O107 Mg98 2.041 . S
O108 C94 1.245 . S
O108 Mg96 1.988 . S
O109 Mg96 2.061 . S
O109 C103 1.247 . S
O110 Mg99 2.106 . S
O110 Mg102 2.238 . S
O110 C103 1.289 . S
C111 O112 1.245 . S
C111 O113 1.274 . S
O112 Mg99 2.079 . S
O112 C111 1.245 . S
O113 Mg98 2.038 . S
O113 C111 1.274 . S
O114 Mg102 2.042 . S
O114 C117 1.241 . S
O115 Mg101 1.984 . S
O115 C117 1.280 . S
O116 Mg102 2.041 . S
O116 C120 1.277 . S
C117 O114 1.241 . S
C117 O115 1.280 . S
O118 Mg101 1.988 . S
O118 C120 1.245 . S
O119 C95 1.247 . S
O119 Mg101 2.061 . S
C120 O116 1.277 . S
C120 O118 1.245 . S
O121 C95 1.289 . S
O121 Mg98 2.238 . S
O121 Mg99 2.106 . S
O122 Mg99 2.079 . S
O122 C104 1.245 . S
O123 Mg102 2.038 . S
O123 C104 1.274 . S
C124 C125 1.363 . S
C124 C130 1.379 . S
C124 N132 1.356 . S
C125 C124 1.363 . S
C125 C131 1.363 1_455 S
C126 C127 1.363 . S
C126 C131 1.379 . S
C126 N133 1.356 . S
C127 C126 1.363 . S
C127 C130 1.363 1_655 S
N128 C130 1.356 . S
N128 H140 0.984 . S
N128 H141 0.985 . S
N129 C131 1.356 . S
N129 H134 0.984 . S
N129 H135 0.985 . S
C130 C124 1.379 . S
C130 C127 1.363 1_455 S
C130 N128 1.356 . S
C131 C125 1.363 1_655 S
C131 C126 1.379 . S
C131 N129 1.356 . S
N132 C124 1.356 . S
N132 H138 0.984 . S
N132 H139 0.984 . S
N133 C126 1.356 . S
N133 H136 0.984 . S
N133 H137 0.985 . S
H134 N129 0.984 . S
H135 N129 0.985 . S
H136 N133 0.984 . S
H137 N133 0.985 . S
H138 N132 0.984 . S
H139 N132 0.984 . S
H140 N128 0.984 . S
H141 N128 0.985 . S
C142 C143 1.363 1_655 S
C142 C148 1.379 . S
C142 N150 1.356 . S
C143 C142 1.363 1_455 S
C143 C149 1.363 . S
C144 C145 1.363 1_455 S
C144 C149 1.379 . S
C144 N151 1.356 . S
C145 C144 1.363 1_655 S
C145 C148 1.363 . S
N146 C148 1.356 . S
N146 H158 0.984 . S
N146 H159 0.985 . S
N147 C149 1.356 . S
N147 H152 0.984 . S
N147 H153 0.985 . S
C148 C142 1.379 . S
C148 C145 1.363 . S
C148 N146 1.356 . S
C149 C143 1.363 . S
C149 C144 1.379 . S
C149 N147 1.356 . S
N150 C142 1.356 . S
N150 H156 0.984 . S
N150 H157 0.984 . S
N151 C144 1.356 . S
N151 H154 0.984 . S
N151 H155 0.985 . S
H152 N147 0.984 . S
H153 N147 0.985 . S
H154 N151 0.984 . S
H155 N151 0.985 . S
H156 N150 0.984 . S
H157 N150 0.984 . S
H158 N146 0.984 . S
H159 N146 0.985 . S
C160 C161 1.363 . S
C160 C166 1.379 . S
C160 N168 1.356 . S
C161 C160 1.363 . S
C161 C167 1.363 . S
C162 C163 1.363 . S
C162 C167 1.379 . S
C162 N169 1.356 . S
C163 C162 1.363 . S
C163 C166 1.363 . S
N164 C166 1.356 . S
N164 H176 0.984 . S
N164 H177 0.985 . S
N165 C167 1.356 . S
N165 H170 0.984 . S
N165 H171 0.985 . S
C166 C160 1.379 . S
C166 C163 1.363 . S
C166 N164 1.356 . S
C167 C161 1.363 . S
C167 C162 1.379 . S
C167 N165 1.356 . S
N168 C160 1.356 . S
N168 H174 0.984 . S
N168 H175 0.984 . S
N169 C162 1.356 . S
N169 H172 0.984 . S
N169 H173 0.985 . S
H170 N165 0.984 . S
H171 N165 0.985 . S
H172 N169 0.984 . S
H173 N169 0.985 . S
H174 N168 0.984 . S
H175 N168 0.984 . S
H176 N164 0.984 . S
H177 N164 0.985 . S
C178 C179 1.363 . S
C178 C184 1.379 . S
C178 N186 1.356 . S
C179 C178 1.363 . S
C179 C185 1.363 . S
C180 C181 1.363 . S
C180 C185 1.379 . S
C180 N187 1.356 . S
C181 C180 1.363 . S
C181 C184 1.363 . S
N182 C184 1.356 . S
N182 H194 0.984 . S
N182 H195 0.985 . S
N183 C185 1.356 . S
N183 H188 0.984 . S
N183 H189 0.985 . S
C184 C178 1.379 . S
C184 C181 1.363 . S
C184 N182 1.356 . S
C185 C179 1.363 . S
C185 C180 1.379 . S
C185 N183 1.356 . S
N186 C178 1.356 . S
N186 H192 0.984 . S
N186 H193 0.984 . S
N187 C180 1.356 . S
N187 H190 0.984 . S
N187 H191 0.985 . S
H188 N183 0.984 . S
H189 N183 0.985 . S
H190 N187 0.984 . S
H191 N187 0.985 . S
H192 N186 0.984 . S
H193 N186 0.984 . S
H194 N182 0.984 . S
H195 N182 0.985 . S
C196 C197 1.363 . S
C196 C202 1.379 . S
C196 N204 1.356 . S
C197 C196 1.363 . S
C197 C203 1.363 . S
C198 C199 1.363 . S
C198 C203 1.379 . S
C198 N205 1.356 . S
C199 C198 1.363 . S
C199 C202 1.363 . S
N200 C202 1.356 . S
N200 H212 0.984 . S
N200 H213 0.985 . S
N201 C203 1.356 . S
N201 H206 0.984 . S
N201 H207 0.985 . S
C202 C196 1.379 . S
C202 C199 1.363 . S
C202 N200 1.356 . S
C203 C197 1.363 . S
C203 C198 1.379 . S
C203 N201 1.356 . S
N204 C196 1.356 . S
N204 H210 0.984 . S
N204 H211 0.984 . S
N205 C198 1.356 . S
N205 H208 0.984 . S
N205 H209 0.985 . S
H206 N201 0.984 . S
H207 N201 0.985 . S
H208 N205 0.984 . S
H209 N205 0.985 . S
H210 N204 0.984 . S
H211 N204 0.984 . S
H212 N200 0.984 . S
H213 N200 0.985 . S
C214 C215 1.363 . S
C214 C220 1.379 . S
C214 N222 1.356 . S
C215 C214 1.363 . S
C215 C221 1.363 . S
C216 C217 1.363 . S
C216 C221 1.379 . S
C216 N223 1.356 . S
C217 C216 1.363 . S
C217 C220 1.363 . S
N218 C220 1.356 . S
N218 H230 0.984 . S
N218 H231 0.985 . S
N219 C221 1.356 . S
N219 H224 0.984 . S
N219 H225 0.985 . S
C220 C214 1.379 . S
C220 C217 1.363 . S
C220 N218 1.356 . S
C221 C215 1.363 . S
C221 C216 1.379 . S
C221 N219 1.356 . S
N222 C214 1.356 . S
N222 H228 0.984 . S
N222 H229 0.984 . S
N223 C216 1.356 . S
N223 H226 0.984 . S
N223 H227 0.985 . S
H224 N219 0.984 . S
H225 N219 0.985 . S
H226 N223 0.984 . S
H227 N223 0.985 . S
H228 N222 0.984 . S
H229 N222 0.984 . S
H230 N218 0.984 . S
H231 N218 0.985 . S
C232 C233 1.363 . S
C232 C238 1.379 1_655 S
C232 N240 1.356 . S
C233 C232 1.363 . S
C233 C239 1.363 . S
C234 C235 1.363 . S
C234 C239 1.379 1_455 S
C234 N241 1.356 . S
C235 C234 1.363 . S
C235 C238 1.363 . S
N236 C238 1.356 . S
N236 H248 0.984 . S
N236 H249 0.985 . S
N237 C239 1.356 . S
N237 H242 0.984 . S
N237 H243 0.985 . S
C238 C232 1.379 1_455 S
C238 C235 1.363 . S
C238 N236 1.356 . S
C239 C233 1.363 . S
C239 C234 1.379 1_655 S
C239 N237 1.356 . S
N240 C232 1.356 . S
N240 H246 0.984 . S
N240 H247 0.984 . S
N241 C234 1.356 . S
N241 H244 0.984 . S
N241 H245 0.985 . S
H242 N237 0.984 . S
H243 N237 0.985 . S
H244 N241 0.984 . S
H245 N241 0.985 . S
H246 N240 0.984 . S
H247 N240 0.984 . S
H248 N236 0.984 . S
H249 N236 0.985 . S
C250 C251 1.363 . S
C250 C256 1.379 1_655 S
C250 N258 1.356 . S
C251 C250 1.363 . S
C251 C257 1.363 . S
C252 C253 1.363 . S
C252 C257 1.379 1_455 S
C252 N259 1.356 . S
C253 C252 1.363 . S
C253 C256 1.363 . S
N254 C256 1.356 . S
N254 H266 0.984 . S
N254 H267 0.985 . S
N255 C257 1.356 . S
N255 H260 0.984 . S
N255 H261 0.985 . S
C256 C250 1.379 1_455 S
C256 C253 1.363 . S
C256 N254 1.356 . S
C257 C251 1.363 . S
C257 C252 1.379 1_655 S
C257 N255 1.356 . S
N258 C250 1.356 . S
N258 H264 0.984 . S
N258 H265 0.984 . S
N259 C252 1.356 . S
N259 H262 0.984 . S
N259 H263 0.985 . S
H260 N255 0.984 . S
H261 N255 0.985 . S
H262 N259 0.984 . S
H263 N259 0.985 . S
H264 N258 0.984 . S
H265 N258 0.984 . S
H266 N254 0.984 . S
H267 N254 0.985 . S
C268 C269 1.363 . S
C268 C274 1.379 . S
C268 N276 1.356 . S
C269 C268 1.363 . S
C269 C275 1.363 . S
C270 C271 1.363 . S
C270 C275 1.379 . S
C270 N277 1.356 . S
C271 C270 1.363 . S
C271 C274 1.363 . S
N272 C274 1.356 . S
N272 H284 0.984 . S
N272 H285 0.985 . S
N273 C275 1.356 . S
N273 H278 0.984 . S
N273 H279 0.985 . S
C274 C268 1.379 . S
C274 C271 1.363 . S
C274 N272 1.356 . S
C275 C269 1.363 . S
C275 C270 1.379 . S
C275 N273 1.356 . S
N276 C268 1.356 . S
N276 H282 0.984 . S
N276 H283 0.984 . S
N277 C270 1.356 . S
N277 H280 0.984 . S
N277 H281 0.985 . S
H278 N273 0.984 . S
H279 N273 0.985 . S
H280 N277 0.984 . S
H281 N277 0.985 . S
H282 N276 0.984 . S
H283 N276 0.984 . S
H284 N272 0.984 . S
H285 N272 0.985 . S
C286 C287 1.363 . S
C286 C292 1.379 . S
C286 N294 1.356 . S
C287 C286 1.363 . S
C287 C293 1.363 1_556 S
C288 C289 1.363 . S
C288 C293 1.379 . S
C288 N295 1.356 . S
C289 C288 1.363 . S
C289 C292 1.363 1_554 S
N290 C292 1.356 . S
N290 H302 0.984 1_655 S
N290 H303 0.985 1_656 S
N291 C293 1.356 . S
N291 H296 0.984 1_554 S
N291 H297 0.985 . S
C292 C286 1.379 . S
C292 C289 1.363 1_556 S
C292 N290 1.356 . S
C293 C287 1.363 1_554 S
C293 C288 1.379 . S
C293 N291 1.356 . S
N294 C286 1.356 . S
N294 H300 0.984 . S
N294 H301 0.984 . S
N295 C288 1.356 . S
N295 H298 0.984 . S
N295 H299 0.985 . S
H296 N291 0.984 1_556 S
H297 N291 0.985 . S
H298 N295 0.984 . S
H299 N295 0.985 . S
H300 N294 0.984 . S
H301 N294 0.984 . S
H302 N290 0.984 1_455 S
H303 N290 0.985 1_454 S
C304 C305 1.363 . S
C304 C310 1.379 . S
C304 N312 1.356 . S
C305 C304 1.363 . S
C305 C311 1.363 . S
C306 C307 1.363 . S
C306 C311 1.379 . S
C306 N313 1.356 . S
C307 C306 1.363 . S
C307 C310 1.363 . S
N308 C310 1.356 . S
N308 H320 0.984 . S
N308 H321 0.985 . S
N309 C311 1.356 . S
N309 H314 0.984 . S
N309 H315 0.985 . S
C310 C304 1.379 . S
C310 C307 1.363 . S
C310 N308 1.356 . S
C311 C305 1.363 . S
C311 C306 1.379 . S
C311 N309 1.356 . S
N312 C304 1.356 . S
N312 H318 0.984 . S
N312 H319 0.984 . S
N313 C306 1.356 . S
N313 H316 0.984 . S
N313 H317 0.985 . S
H314 N309 0.984 . S
H315 N309 0.985 . S
H316 N313 0.984 . S
H317 N313 0.985 . S
H318 N312 0.984 . S
H319 N312 0.984 . S
H320 N308 0.984 . S
H321 N308 0.985 . S
C322 C323 1.363 . S
C322 C328 1.379 . S
C322 N330 1.356 . S
C323 C322 1.363 . S
C323 C329 1.363 1_554 S
C324 C325 1.363 . S
C324 C329 1.379 . S
C324 N331 1.356 . S
C325 C324 1.363 . S
C325 C328 1.363 1_556 S
N326 C328 1.356 . S
N326 H338 0.984 . S
N326 H339 0.985 . S
N327 C329 1.356 . S
N327 H332 0.984 . S
N327 H333 0.985 . S
C328 C322 1.379 . S
C328 C325 1.363 1_554 S
C328 N326 1.356 . S
C329 C323 1.363 1_556 S
C329 C324 1.379 . S
C329 N327 1.356 . S
N330 C322 1.356 . S
N330 H336 0.984 . S
N330 H337 0.984 . S
N331 C324 1.356 . S
N331 H334 0.984 . S
N331 H335 0.985 . S
H332 N327 0.984 . S
H333 N327 0.985 . S
H334 N331 0.984 . S
H335 N331 0.985 . S
H336 N330 0.984 . S
H337 N330 0.984 . S
H338 N326 0.984 . S
H339 N326 0.985 . S
C340 C341 1.363 1_455 S
C340 C346 1.379 1_545 S
C340 N348 1.356 . S
C341 C340 1.363 1_655 S
C341 C347 1.363 1_554 S
C342 C343 1.363 1_655 S
C342 C347 1.379 1_565 S
C342 N349 1.356 . S
C343 C342 1.363 1_455 S
C343 C346 1.363 1_556 S
N344 C346 1.356 . S
N344 H356 0.984 . S
N344 H357 0.985 . S
N345 C347 1.356 . S
N345 H350 0.984 . S
N345 H351 0.985 . S
C346 C340 1.379 1_565 S
C346 C343 1.363 1_554 S
C346 N344 1.356 . S
C347 C341 1.363 1_556 S
C347 C342 1.379 1_545 S
C347 N345 1.356 . S
N348 C340 1.356 . S
N348 H354 0.984 . S
N348 H355 0.984 1_455 S
N349 C342 1.356 . S
N349 H352 0.984 1_655 S
N349 H353 0.985 . S
H350 N345 0.984 . S
H351 N345 0.985 . S
H352 N349 0.984 1_455 S
H353 N349 0.985 . S
H354 N348 0.984 . S
H355 N348 0.984 1_655 S
H356 N344 0.984 . S
H357 N344 0.985 . S
C358 C359 1.363 1_655 S
C358 C364 1.379 1_545 S
C358 N366 1.356 . S
C359 C358 1.363 1_455 S
C359 C365 1.363 . S
C360 C361 1.363 1_455 S
C360 C365 1.379 1_565 S
C360 N367 1.356 . S
C361 C360 1.363 1_655 S
C361 C364 1.363 . S
N362 C364 1.356 . S
N362 H374 0.984 . S
N362 H375 0.985 . S
N363 C365 1.356 . S
N363 H368 0.984 . S
N363 H369 0.985 . S
C364 C358 1.379 1_565 S
C364 C361 1.363 . S
C364 N362 1.356 . S
C365 C359 1.363 . S
C365 C360 1.379 1_545 S
C365 N363 1.356 . S
N366 C358 1.356 . S
N366 H372 0.984 . S
N366 H373 0.984 . S
N367 C360 1.356 . S
N367 H370 0.984 . S
N367 H371 0.985 . S
H368 N363 0.984 . S
H369 N363 0.985 . S
H370 N367 0.984 . S
H371 N367 0.985 . S
H372 N366 0.984 . S
H373 N366 0.984 . S
H374 N362 0.984 . S
H375 N362 0.985 . S
C376 C377 1.363 . S
C376 C382 1.379 1_554 S
C376 N384 1.356 . S
C377 C376 1.363 . S
C377 C383 1.363 . S
C378 C379 1.363 . S
C378 C383 1.379 1_556 S
C378 N385 1.356 . S
C379 C378 1.363 . S
C379 C382 1.363 . S
N380 C382 1.356 . S
N380 H392 0.984 . S
N380 H393 0.985 . S
N381 C383 1.356 . S
N381 H386 0.984 . S
N381 H387 0.985 . S
C382 C376 1.379 1_556 S
C382 C379 1.363 . S
C382 N380 1.356 . S
C383 C377 1.363 . S
C383 C378 1.379 1_554 S
C383 N381 1.356 . S
N384 C376 1.356 . S
N384 H390 0.984 . S
N384 H391 0.984 . S
N385 C378 1.356 . S
N385 H388 0.984 . S
N385 H389 0.985 . S
H386 N381 0.984 . S
H387 N381 0.985 . S
H388 N385 0.984 . S
H389 N385 0.985 . S
H390 N384 0.984 . S
H391 N384 0.984 . S
H392 N380 0.984 . S
H393 N380 0.985 . S
C394 C395 1.363 . S
C394 C400 1.379 . S
C394 N402 1.356 . S
C395 C394 1.363 . S
C395 C401 1.363 . S
C396 C397 1.363 . S
C396 C401 1.379 . S
C396 N403 1.356 . S
C397 C396 1.363 . S
C397 C400 1.363 . S
N398 C400 1.356 . S
N398 H410 0.984 . S
N398 H411 0.985 . S
N399 C401 1.356 . S
N399 H404 0.984 . S
N399 H405 0.985 . S
C400 C394 1.379 . S
C400 C397 1.363 . S
C400 N398 1.356 . S
C401 C395 1.363 . S
C401 C396 1.379 . S
C401 N399 1.356 . S
N402 C394 1.356 . S
N402 H408 0.984 . S
N402 H409 0.984 . S
N403 C396 1.356 . S
N403 H406 0.984 . S
N403 H407 0.985 . S
H404 N399 0.984 . S
H405 N399 0.985 . S
H406 N403 0.984 . S
H407 N403 0.985 . S
H408 N402 0.984 . S
H409 N402 0.984 . S
H410 N398 0.984 . S
H411 N398 0.985 . S
C125 C24 1.230 . S
C127 C0 1.230 . S
C143 C55 1.230 . S
C145 C31 1.230 . S
C161 C86 1.230 . S
C163 C62 1.230 . S
C179 C93 1.230 . S
C181 C117 1.230 . S
C197 C10 1.113 . S
C199 C2 1.113 . S
C215 C41 1.113 . S
C217 C33 1.113 . S
C233 C64 1.113 . S
C235 C72 1.113 . S
C251 C95 1.113 . S
C253 C103 1.113 . S
C269 C104 1.669 . S
C271 C18 1.669 . S
C287 C94 1.862 . S
C289 C27 1.862 . S
C305 C80 1.669 . S
C307 C42 1.669 . S
C323 C89 1.862 . S
C325 C32 1.862 . S
C341 C11 2.202 . S
C343 C49 2.202 . S
C359 C1 1.432 . S
C361 C58 1.432 . S
C377 C73 2.202 . S
C379 C111 2.202 . S
C395 C120 1.432 . S
C397 C63 1.432 . S
