# Generated by pormake.
# Topology uno, (4)-cn, num edge types: 1
# Building blocks:
#     Node 0, Type 0, BuildingBlock: KOZSID_clean_sbu_0, # of connection points: 4
#     Node 1, Type 0, BuildingBlock: KOZSID_clean_sbu_0, # of connection points: 4
#     Node 2, Type 0, BuildingBlock: KOZSID_clean_sbu_0, # of connection points: 4
#     Node 3, Type 0, BuildingBlock: KOZSID_clean_sbu_0, # of connection points: 4
#     Node 4, Type 0, BuildingBlock: KOZSID_clean_sbu_0, # of connection points: 4
#     Node 5, Type 0, BuildingBlock: KOZSID_clean_sbu_0, # of connection points: 4
#     Node 6, Type 0, BuildingBlock: KOZSID_clean_sbu_0, # of connection points: 4
#     Node 7, Type 0, BuildingBlock: KOZSID_clean_sbu_0, # of connection points: 4
#     Node 8, Type 0, BuildingBlock: KOZSID_clean_sbu_0, # of connection points: 4
#     Node 9, Type 0, BuildingBlock: KOZSID_clean_sbu_0, # of connection points: 4
#     Node 10, Type 0, BuildingBlock: KOZSID_clean_sbu_0, # of connection points: 4
#     Node 11, Type 0, BuildingBlock: KOZSID_clean_sbu_0, # of connection points: 4
#     Node 12, Type 0, BuildingBlock: KOZSID_clean_sbu_0, # of connection points: 4
#     Node 13, Type 0, BuildingBlock: KOZSID_clean_sbu_0, # of connection points: 4
#     Node 14, Type 0, BuildingBlock: KOZSID_clean_sbu_0, # of connection points: 4
#     Node 15, Type 0, BuildingBlock: KOZSID_clean_sbu_0, # of connection points: 4
#     Node 16, Type 0, BuildingBlock: KOZSID_clean_sbu_0, # of connection points: 4
#     Node 17, Type 0, BuildingBlock: KOZSID_clean_sbu_0, # of connection points: 4
#     Node 18, Type 0, BuildingBlock: KOZSID_clean_sbu_0, # of connection points: 4
#     Node 19, Type 0, BuildingBlock: KOZSID_clean_sbu_0, # of connection points: 4
#     Node 20, Type 0, BuildingBlock: KOZSID_clean_sbu_0, # of connection points: 4
#     Node 21, Type 0, BuildingBlock: KOZSID_clean_sbu_0, # of connection points: 4
#     Node 22, Type 0, BuildingBlock: KOZSID_clean_sbu_0, # of connection points: 4
#     Node 23, Type 0, BuildingBlock: KOZSID_clean_sbu_0, # of connection points: 4
#     Edge 24, Type (0, 0), BuildingBlock: OJICUG_clean_linker_0, # of connection points: 2
#     Edge 25, Type (0, 0), BuildingBlock: OJICUG_clean_linker_0, # of connection points: 2
#     Edge 26, Type (0, 0), BuildingBlock: OJICUG_clean_linker_0, # of connection points: 2
#     Edge 27, Type (0, 0), BuildingBlock: OJICUG_clean_linker_0, # of connection points: 2
#     Edge 28, Type (0, 0), BuildingBlock: OJICUG_clean_linker_0, # of connection points: 2
#     Edge 29, Type (0, 0), BuildingBlock: OJICUG_clean_linker_0, # of connection points: 2
#     Edge 30, Type (0, 0), BuildingBlock: OJICUG_clean_linker_0, # of connection points: 2
#     Edge 31, Type (0, 0), BuildingBlock: OJICUG_clean_linker_0, # of connection points: 2
#     Edge 32, Type (0, 0), BuildingBlock: OJICUG_clean_linker_0, # of connection points: 2
#     Edge 33, Type (0, 0), BuildingBlock: OJICUG_clean_linker_0, # of connection points: 2
#     Edge 34, Type (0, 0), BuildingBlock: OJICUG_clean_linker_0, # of connection points: 2
#     Edge 35, Type (0, 0), BuildingBlock: OJICUG_clean_linker_0, # of connection points: 2
#     Edge 36, Type (0, 0), BuildingBlock: OJICUG_clean_linker_0, # of connection points: 2
#     Edge 37, Type (0, 0), BuildingBlock: OJICUG_clean_linker_0, # of connection points: 2
#     Edge 38, Type (0, 0), BuildingBlock: OJICUG_clean_linker_0, # of connection points: 2
#     Edge 39, Type (0, 0), BuildingBlock: OJICUG_clean_linker_0, # of connection points: 2
#     Edge 40, Type (0, 0), BuildingBlock: OJICUG_clean_linker_0, # of connection points: 2
#     Edge 41, Type (0, 0), BuildingBlock: OJICUG_clean_linker_0, # of connection points: 2
#     Edge 42, Type (0, 0), BuildingBlock: OJICUG_clean_linker_0, # of connection points: 2
#     Edge 43, Type (0, 0), BuildingBlock: OJICUG_clean_linker_0, # of connection points: 2
#     Edge 44, Type (0, 0), BuildingBlock: OJICUG_clean_linker_0, # of connection points: 2
#     Edge 45, Type (0, 0), BuildingBlock: OJICUG_clean_linker_0, # of connection points: 2
#     Edge 46, Type (0, 0), BuildingBlock: OJICUG_clean_linker_0, # of connection points: 2
#     Edge 47, Type (0, 0), BuildingBlock: OJICUG_clean_linker_0, # of connection points: 2
#     Edge 48, Type (0, 0), BuildingBlock: OJICUG_clean_linker_0, # of connection points: 2
#     Edge 49, Type (0, 0), BuildingBlock: OJICUG_clean_linker_0, # of connection points: 2
#     Edge 50, Type (0, 0), BuildingBlock: OJICUG_clean_linker_0, # of connection points: 2
#     Edge 51, Type (0, 0), BuildingBlock: OJICUG_clean_linker_0, # of connection points: 2
#     Edge 52, Type (0, 0), BuildingBlock: OJICUG_clean_linker_0, # of connection points: 2
#     Edge 53, Type (0, 0), BuildingBlock: OJICUG_clean_linker_0, # of connection points: 2
#     Edge 54, Type (0, 0), BuildingBlock: OJICUG_clean_linker_0, # of connection points: 2
#     Edge 55, Type (0, 0), BuildingBlock: OJICUG_clean_linker_0, # of connection points: 2
#     Edge 56, Type (0, 0), BuildingBlock: OJICUG_clean_linker_0, # of connection points: 2
#     Edge 57, Type (0, 0), BuildingBlock: OJICUG_clean_linker_0, # of connection points: 2
#     Edge 58, Type (0, 0), BuildingBlock: OJICUG_clean_linker_0, # of connection points: 2
#     Edge 59, Type (0, 0), BuildingBlock: OJICUG_clean_linker_0, # of connection points: 2
#     Edge 60, Type (0, 0), BuildingBlock: OJICUG_clean_linker_0, # of connection points: 2
#     Edge 61, Type (0, 0), BuildingBlock: OJICUG_clean_linker_0, # of connection points: 2
#     Edge 62, Type (0, 0), BuildingBlock: OJICUG_clean_linker_0, # of connection points: 2
#     Edge 63, Type (0, 0), BuildingBlock: OJICUG_clean_linker_0, # of connection points: 2
#     Edge 64, Type (0, 0), BuildingBlock: OJICUG_clean_linker_0, # of connection points: 2
#     Edge 65, Type (0, 0), BuildingBlock: OJICUG_clean_linker_0, # of connection points: 2
#     Edge 66, Type (0, 0), BuildingBlock: OJICUG_clean_linker_0, # of connection points: 2
#     Edge 67, Type (0, 0), BuildingBlock: OJICUG_clean_linker_0, # of connection points: 2
#     Edge 68, Type (0, 0), BuildingBlock: OJICUG_clean_linker_0, # of connection points: 2
#     Edge 69, Type (0, 0), BuildingBlock: OJICUG_clean_linker_0, # of connection points: 2
#     Edge 70, Type (0, 0), BuildingBlock: OJICUG_clean_linker_0, # of connection points: 2
#     Edge 71, Type (0, 0), BuildingBlock: OJICUG_clean_linker_0, # of connection points: 2
# Relax obj value: 0.400
# Max RMSD: 0.288
# Mean RMSD: 0.251
data_MOF--net-uno--node1-KOZSID_clean_sbu_0--edge1-OJICUG_clean_linker_0
_symmetry_space_group_name_H-M    P1
_symmetry_Int_Tables_number       1
_symmetry_cell_setting            triclinic
loop_
_symmetry_equiv_pos_as_xyz
'x, y, z'
_cell_length_a     50.499185
_cell_length_b     48.966739
_cell_length_c     49.070859
_cell_angle_alpha  89.733396
_cell_angle_beta   90.12178
_cell_angle_gamma 93.194315
loop_
_atom_site_label
_atom_site_type_symbol
_atom_site_fract_x
_atom_site_fract_y
_atom_site_fract_z
_atom_type_partial_charge
C0 C 0.06629 0.30621 0.20953 0.0
C1 C 0.04356 0.30286 0.19374 0.0
C2 C 0.04272 0.27634 0.18429 0.0
C3 C 0.06502 0.26503 0.19463 0.0
N4 N 0.07948 0.28275 0.21021 0.0
Co5 Co 0.11514 0.27711 0.22577 0.0
N6 N 0.12172 0.24701 0.20032 0.0
C7 C 0.10266 0.23272 0.18625 0.0
C8 C 0.11213 0.21095 0.17261 0.0
C9 C 0.13864 0.21129 0.17885 0.0
C10 C 0.14411 0.23351 0.19594 0.0
N11 N 0.15112 0.27334 0.24123 0.0
C12 C 0.17205 0.26094 0.23068 0.0
C13 C 0.19453 0.2661 0.24668 0.0
C14 C 0.18686 0.28068 0.26878 0.0
C15 C 0.16038 0.28421 0.26483 0.0
N16 N 0.10817 0.30685 0.25143 0.0
C17 C 0.12046 0.31204 0.27533 0.0
C18 C 0.11179 0.33497 0.28783 0.0
C19 C 0.09331 0.345 0.27043 0.0
C20 C 0.09188 0.3276 0.24821 0.0
N21 N 0.10017 0.24847 0.25123 0.0
C22 C 0.07785 0.19623 0.26533 0.0
C23 C 0.10521 0.20137 0.26435 0.0
C24 C 0.11587 0.22737 0.25779 0.0
C25 C 0.06178 0.21867 0.26277 0.0
C26 C 0.07342 0.24479 0.256 0.0
N27 N 0.13035 0.30337 0.1991 0.0
C28 C 0.17049 0.32757 0.18444 0.0
C29 C 0.1649 0.31997 0.15737 0.0
C30 C 0.13974 0.30824 0.15135 0.0
C31 C 0.12281 0.30013 0.17247 0.0
C32 C 0.15248 0.3196 0.20507 0.0
H33 H 0.10517 0.28817 0.16696 0.0
H34 H 0.15787 0.32395 0.22594 0.0
H35 H 0.13693 0.22893 0.25554 0.0
H36 H 0.06053 0.26136 0.25266 0.0
C37 C 0.0766 0.24157 0.1848 0.0
C38 C 0.07526 0.33136 0.22415 0.0
C39 C 0.16982 0.23923 0.21 0.0
C40 C 0.14473 0.30068 0.2807 0.0
H41 H 0.0295 0.31805 0.18893 0.0
H42 H 0.02862 0.26715 0.16995 0.0
H43 H 0.10111 0.19648 0.15971 0.0
H44 H 0.15203 0.19625 0.17213 0.0
H45 H 0.21407 0.25865 0.24355 0.0
H46 H 0.19923 0.28813 0.2855 0.0
H47 H 0.11967 0.3447 0.30611 0.0
H48 H 0.08288 0.3635 0.27322 0.0
H49 H 0.11847 0.18493 0.26727 0.0
H50 H 0.04043 0.21577 0.26434 0.0
H51 H 0.18941 0.33761 0.18987 0.0
H52 H 0.13428 0.30222 0.1308 0.0
C53 C 0.94545 0.78757 0.50389 0.0
C54 C 0.93895 0.78047 0.47728 0.0
C55 C 0.96005 0.78923 0.46148 0.0
C56 C 0.9781 0.80132 0.47924 0.0
N57 N 0.97026 0.8001 0.50551 0.0
Co58 Co 0.98934 0.81869 0.53725 0.0
N59 N 0.01966 0.8324 0.51398 0.0
C60 C 0.02179 0.82938 0.48681 0.0
C61 C 0.04489 0.84107 0.47628 0.0
C62 C 0.05833 0.85213 0.49818 0.0
C63 C 0.04253 0.84657 0.52086 0.0
N64 N 0.00743 0.83739 0.56914 0.0
C65 C 0.03181 0.85021 0.57112 0.0
C66 C 0.037 0.85947 0.59743 0.0
C67 C 0.0152 0.85202 0.6126 0.0
C68 C 0.998 0.83884 0.59477 0.0
N69 N 0.95898 0.80464 0.56063 0.0
C70 C 0.95653 0.80787 0.58776 0.0
C71 C 0.93341 0.79631 0.59835 0.0
C72 C 0.91988 0.78554 0.5765 0.0
C73 C 0.93556 0.79139 0.55382 0.0
N74 N 0.00983 0.7856 0.54433 0.0
C75 C 0.06096 0.76528 0.54258 0.0
C76 C 0.05086 0.77546 0.56686 0.0
C77 C 0.02476 0.78414 0.56765 0.0
C78 C 0.04316 0.76088 0.52093 0.0
C79 C 0.0176 0.77062 0.52246 0.0
N80 N 0.97142 0.8528 0.52878 0.0
C81 C 0.95448 0.86626 0.48549 0.0
C82 C 0.97659 0.8846 0.48229 0.0
C83 C 0.99119 0.89199 0.50568 0.0
C84 C 0.98713 0.87652 0.52945 0.0
C85 C 0.95129 0.8519 0.5101 0.0
H86 H 1.00007 0.88129 0.54634 0.0
H87 H 0.9348 0.83734 0.51199 0.0
H88 H 0.01787 0.79195 0.58663 0.0
H89 H 0.00542 0.76788 0.50471 0.0
C90 C 1.002 0.81504 0.472 0.0
C91 C 0.92601 0.78648 0.52613 0.0
C92 C 0.04967 0.85598 0.54831 0.0
C93 C 0.97473 0.82439 0.6022 0.0
H94 H 0.92035 0.77131 0.46984 0.0
H95 H 0.96151 0.78809 0.43952 0.0
H96 H 0.05124 0.84143 0.45522 0.0
H97 H 0.07751 0.86315 0.49758 0.0
H98 H 0.05471 0.87047 0.6049 0.0
H99 H 0.01255 0.85505 0.63424 0.0
H100 H 0.92662 0.79686 0.61924 0.0
H101 H 0.90016 0.77567 0.57693 0.0
H102 H 0.06323 0.77747 0.58487 0.0
H103 H 0.04945 0.75173 0.50214 0.0
H104 H 0.94098 0.86171 0.46874 0.0
H105 H 0.00736 0.90745 0.50497 0.0
C106 C 0.44944 0.7109 0.71856 0.0
C107 C 0.46917 0.71355 0.69899 0.0
C108 C 0.46611 0.73823 0.68603 0.0
C109 C 0.44481 0.74932 0.69849 0.0
N110 N 0.43474 0.73324 0.71857 0.0
Co111 Co 0.40246 0.73912 0.73991 0.0
N112 N 0.38827 0.76353 0.71183 0.0
C113 C 0.40315 0.77664 0.6925 0.0
C114 C 0.38917 0.79469 0.6776 0.0
C115 C 0.36415 0.79318 0.68849 0.0
C116 C 0.36398 0.77397 0.70955 0.0
N117 N 0.36994 0.74364 0.76155 0.0
C118 C 0.34601 0.75187 0.75343 0.0
C119 C 0.32755 0.74805 0.7743 0.0
C120 C 0.34094 0.73895 0.79658 0.0
C121 C 0.3666 0.73699 0.78801 0.0
N122 N 0.41711 0.7147 0.76772 0.0
C123 C 0.40987 0.71294 0.79406 0.0
C124 C 0.42072 0.69147 0.80722 0.0
C125 C 0.43508 0.67865 0.78788 0.0
C126 C 0.43278 0.69337 0.76376 0.0
N127 N 0.41956 0.77243 0.75691 0.0
C128 C 0.44201 0.82621 0.76331 0.0
C129 C 0.41465 0.82075 0.76403 0.0
C130 C 0.40397 0.79409 0.76121 0.0
C131 C 0.45821 0.80374 0.76205 0.0
C132 C 0.44656 0.77693 0.75888 0.0
N133 N 0.38477 0.70765 0.72186 0.0
C134 C 0.34703 0.67558 0.72124 0.0
C135 C 0.34617 0.67732 0.69271 0.0
C136 C 0.3674 0.69106 0.67922 0.0
C137 C 0.38637 0.70617 0.69414 0.0
C138 C 0.36697 0.69054 0.73549 0.0
H139 H 0.40055 0.71896 0.68292 0.0
H140 H 0.3664 0.69034 0.75745 0.0
H141 H 0.38278 0.79182 0.7603 0.0
H142 H 0.45938 0.76017 0.75642 0.0
C143 C 0.4295 0.76989 0.68767 0.0
C144 C 0.445 0.68726 0.73714 0.0
C145 C 0.34176 0.76889 0.72907 0.0
C146 C 0.38645 0.7243 0.80246 0.0
H147 H 0.48366 0.69886 0.69411 0.0
H148 H 0.47679 0.74601 0.66827 0.0
H149 H 0.3963 0.80752 0.66084 0.0
H150 H 0.34837 0.80573 0.68203 0.0
H151 H 0.30688 0.7528 0.77389 0.0
H152 H 0.33274 0.73365 0.81639 0.0
H153 H 0.41616 0.68393 0.82754 0.0
H154 H 0.44446 0.6598 0.79151 0.0
H155 H 0.40132 0.83724 0.76587 0.0
H156 H 0.47959 0.80696 0.76213 0.0
H157 H 0.33131 0.66461 0.73245 0.0
H158 H 0.36777 0.69301 0.65722 0.0
C159 C 0.59268 0.21647 0.99192 0.0
C160 C 0.60065 0.22107 0.9652 0.0
C161 C 0.58013 0.21153 0.94902 0.0
C162 C 0.56088 0.2016 0.96673 0.0
N163 N 0.56743 0.20501 0.99323 0.0
Co164 Co 0.54603 0.19045 0.02549 0.0
N165 N 0.51657 0.17529 1.00176 0.0
C166 C 0.51602 0.17564 0.97429 0.0
C167 C 0.49329 0.16343 0.96347 0.0
C168 C 0.4784 0.15486 0.98547 0.0
C169 C 0.49303 0.1623 0.0085 0.0
N170 N 0.52538 0.17606 0.05793 0.0
C171 C 0.50057 0.1641 0.05958 0.0
C172 C 0.49359 0.15799 0.08639 0.0
C173 C 0.51465 0.16656 0.10218 0.0
C174 C 0.53324 0.17719 0.08421 0.0
N175 N 0.57573 0.20571 0.04917 0.0
C176 C 0.57673 0.20492 0.07663 0.0
C177 C 0.60005 0.21579 0.08741 0.0
C178 C 0.61525 0.22341 0.06546 0.0
C179 C 0.60026 0.21662 0.04253 0.0
N180 N 0.52659 0.22481 0.02725 0.0
C181 C 0.4756 0.24594 0.02339 0.0
C182 C 0.48742 0.24099 0.0489 0.0
C183 C 0.51308 0.23108 0.05037 0.0
C184 C 0.49237 0.24509 1.00063 0.0
C185 C 0.51796 0.2357 0.00327 0.0
N186 N 0.56303 0.15502 0.02255 0.0
C187 C 0.58149 0.13749 0.98191 0.0
C188 C 0.55813 0.12098 0.97822 0.0
C189 C 0.54226 0.11561 1.0013 0.0
C190 C 0.54631 0.13212 0.02426 0.0
C191 C 0.58419 0.15331 0.00551 0.0
H192 H 0.53245 0.12927 0.04073 0.0
H193 H 0.60117 0.1672 0.00733 0.0
H194 H 0.52075 0.22626 0.07018 0.0
H195 H 0.52925 0.23471 0.98495 0.0
C196 C 0.53698 0.18793 0.9594 0.0
C197 C 0.61113 0.21886 0.01503 0.0
C198 C 0.48414 0.15574 0.03627 0.0
C199 C 0.55689 0.19102 0.09153 0.0
H200 H 0.61985 0.22911 0.9582 0.0
H201 H 0.57978 0.21076 0.92697 0.0
H202 H 0.48815 0.16105 0.94216 0.0
H203 H 0.45905 0.1442 0.9847 0.0
H204 H 0.47528 0.14815 0.09383 0.0
H205 H 0.51603 0.16566 0.12418 0.0
H206 H 0.60583 0.21674 0.10866 0.0
H207 H 0.63549 0.23193 0.06613 0.0
H208 H 0.47672 0.2436 0.06769 0.0
H209 H 0.48562 0.24982 0.98035 0.0
H210 H 0.59613 0.14018 0.96589 0.0
H211 H 0.52506 0.10147 1.00073 0.0
C212 C 0.9988 0.9665 0.27746 0.0
C213 C 0.97352 0.97127 0.2681 0.0
C214 C 0.96521 0.9935 0.28254 0.0
C215 C 0.98604 1.00162 0.2994 0.0
N216 N 0.0067 0.98598 0.29572 0.0
Co217 Co 0.04013 0.98834 0.31618 0.0
N218 N 0.02384 0.00521 0.34765 0.0
C219 C 1.00103 0.01808 0.34733 0.0
C220 C 0.99469 0.02713 0.37293 0.0
C221 C 0.01492 0.01944 0.38992 0.0
C222 C 0.03251 0.00605 0.37374 0.0
N223 N 0.07431 0.9907 0.33532 0.0
C224 C 0.07904 0.99316 0.36218 0.0
C225 C 0.10621 0.99433 0.36728 0.0
C226 C 0.11857 0.99291 0.34241 0.0
C227 C 0.09841 0.99081 0.32357 0.0
N228 N 0.05624 0.97126 0.28479 0.0
C229 C 0.0817 0.97401 0.27707 0.0
C230 C 0.08615 0.95978 0.2535 0.0
C231 C 0.06189 0.94735 0.24646 0.0
C232 C 0.04421 0.95452 0.26639 0.0
N233 N 0.04859 0.02531 0.30106 0.0
C234 C 0.05346 0.08069 0.28461 0.0
C235 C 0.06012 0.07277 0.31101 0.0
C236 C 0.05782 0.04531 0.31867 0.0
C237 C 0.04547 0.05997 0.26602 0.0
C238 C 0.04297 0.03238 0.27471 0.0
N239 N 0.03051 0.95253 0.33315 0.0
C240 C 0.04266 0.91981 0.36716 0.0
C241 C 0.01636 0.91761 0.37641 0.0
C242 C 0.99698 0.92984 0.36135 0.0
C243 C 0.00439 0.94735 0.34015 0.0
C244 C 0.04921 0.93681 0.34465 0.0
H245 H 0.98882 0.95907 0.33222 0.0
H246 H 0.06973 0.93941 0.33857 0.0
H247 H 0.06268 0.04051 0.33945 0.0
H248 H 0.0358 0.0169 0.26046 0.0
C249 C 0.98449 0.01683 0.32384 0.0
C250 C 0.01632 0.94474 0.26875 0.0
C251 C 0.05815 0.99586 0.38265 0.0
C252 C 0.10098 0.98401 0.29582 0.0
H253 H 0.96216 0.96002 0.25275 0.0
H254 H 0.94561 1.00138 0.28214 0.0
H255 H 0.97703 0.03716 0.37883 0.0
H256 H 0.01659 0.0233 0.41157 0.0
H257 H 0.11615 0.99603 0.3868 0.0
H258 H 0.13964 0.99228 0.3387 0.0
H259 H 0.10501 0.95707 0.24372 0.0
H260 H 0.05788 0.93369 0.22949 0.0
H261 H 0.06709 0.08782 0.32588 0.0
H262 H 0.04042 0.0651 0.24524 0.0
H263 H 0.05818 0.91019 0.37831 0.0
H264 H 0.97645 0.92844 0.3679 0.0
C265 C 0.1959 0.76405 0.53907 0.0
C266 C 0.19926 0.7916 0.53262 0.0
C267 C 0.22152 0.80143 0.54636 0.0
C268 C 0.23066 0.77929 0.56008 0.0
N269 N 0.21591 0.75609 0.5555 0.0
Co270 Co 0.22435 0.71866 0.56823 0.0
N271 N 0.24985 0.73357 0.59607 0.0
C272 C 0.25999 0.75961 0.59715 0.0
C273 C 0.27884 0.7637 0.61707 0.0
C274 C 0.2811 0.73859 0.629 0.0
C275 C 0.26334 0.72045 0.61566 0.0
N276 N 0.23175 0.681 0.5806 0.0
C277 C 0.24532 0.67248 0.60269 0.0
C278 C 0.24597 0.64416 0.60324 0.0
C279 C 0.23336 0.63477 0.5801 0.0
C280 C 0.22543 0.65773 0.56696 0.0
N281 N 0.1999 0.70432 0.53918 0.0
C282 C 0.20039 0.67939 0.52794 0.0
C283 C 0.18558 0.67683 0.5045 0.0
C284 C 0.17489 0.70174 0.50089 0.0
C285 C 0.18295 0.71767 0.523 0.0
N286 N 0.25505 0.71899 0.54272 0.0
C287 C 0.30527 0.73472 0.52111 0.0
C288 C 0.30241 0.7142 0.54073 0.0
C289 C 0.27741 0.7065 0.55096 0.0
C290 C 0.2822 0.74499 0.50993 0.0
C291 C 0.25714 0.73638 0.52069 0.0
N292 N 0.19503 0.71883 0.59539 0.0
C293 C 0.17402 0.7601 0.60445 0.0
C294 C 0.19206 0.76504 0.62599 0.0
C295 C 0.20373 0.74204 0.63717 0.0
C296 C 0.20258 0.71782 0.62208 0.0
C297 C 0.1746 0.73515 0.59062 0.0
H298 H 0.21221 0.70051 0.63006 0.0
H299 H 0.16028 0.72977 0.5752 0.0
H300 H 0.27718 0.6921 0.56733 0.0
H301 H 0.23981 0.74533 0.51241 0.0
C302 C 0.25101 0.77967 0.57947 0.0
C303 C 0.1744 0.7454 0.52834 0.0
C304 C 0.26094 0.69073 0.6211 0.0
C305 C 0.21223 0.65831 0.54188 0.0
H306 H 0.18686 0.80329 0.51948 0.0
H307 H 0.22954 0.82238 0.54696 0.0
H308 H 0.28984 0.7826 0.62217 0.0
H309 H 0.29482 0.73414 0.64516 0.0
H310 H 0.25567 0.6317 0.61809 0.0
H311 H 0.23076 0.61375 0.57342 0.0
H312 H 0.18242 0.65886 0.49188 0.0
H313 H 0.16221 0.70739 0.48421 0.0
H314 H 0.31969 0.70527 0.54946 0.0
H315 H 0.28357 0.76048 0.4941 0.0
H316 H 0.16096 0.77551 0.59761 0.0
H317 H 0.21573 0.7431 0.65544 0.0
C318 C 0.52495 0.05539 0.77075 0.0
C319 C 0.5507 0.05106 0.76277 0.0
C320 C 0.55778 0.02744 0.77586 0.0
C321 C 0.5361 0.01847 0.79116 0.0
N322 N 0.51597 0.03497 0.78777 0.0
Co323 Co 0.48283 0.0337 0.80891 0.0
N324 N 0.49841 0.01425 0.83951 0.0
C325 C 0.5205 1.00026 0.83845 0.0
C326 C 0.52656 0.98945 0.86353 0.0
C327 C 0.5069 0.99719 0.88101 0.0
C328 C 0.4899 0.01237 0.86563 0.0
N329 N 0.44889 0.03259 0.82854 0.0
C330 C 0.44425 0.02872 0.85528 0.0
C331 C 0.4172 0.02877 0.86067 0.0
C332 C 0.40476 0.03259 0.83612 0.0
C333 C 0.42477 0.03472 0.81718 0.0
N334 N 0.46745 0.05359 0.77853 0.0
C335 C 0.44175 0.05375 0.77155 0.0
C336 C 0.43774 0.07129 0.75007 0.0
C337 C 0.46248 0.08285 0.74363 0.0
C338 C 0.48008 0.07163 0.7616 0.0
N339 N 0.472 0.99778 0.79267 0.0
C340 C 0.46624 0.94251 0.77632 0.0
C341 C 0.45891 0.95049 0.80235 0.0
C342 C 0.46164 0.97786 0.80994 0.0
C343 C 0.47499 0.96316 0.75781 0.0
C344 C 0.47792 0.99074 0.76647 0.0
N345 N 0.4949 0.06809 0.82723 0.0
C346 C 0.48588 0.09833 0.86429 0.0
C347 C 0.51264 0.09884 0.87207 0.0
C348 C 0.53066 0.08732 0.85496 0.0
C349 C 0.52147 0.07172 0.83315 0.0
C350 C 0.47757 0.08368 0.84087 0.0
H351 H 0.5362 0.06005 0.82381 0.0
H352 H 0.45676 0.08267 0.83568 0.0
H353 H 0.45662 0.98245 0.83063 0.0
H354 H 0.48593 0.00613 0.75242 0.0
C355 C 0.53691 1.00208 0.81501 0.0
C356 C 0.50862 0.0786 0.76309 0.0
C357 C 0.46497 0.02342 0.87535 0.0
C358 C 0.4223 0.04372 0.79004 0.0
H359 H 0.56348 0.0638 0.74982 0.0
H360 H 0.57735 0.01947 0.77628 0.0
H361 H 0.54374 0.97825 0.8688 0.0
H362 H 0.50524 0.99224 0.90247 0.0
H363 H 0.40741 0.02629 0.88019 0.0
H364 H 0.3838 0.03475 0.83274 0.0
H365 H 0.41895 0.07679 0.74161 0.0
H366 H 0.46699 0.09834 0.72827 0.0
H367 H 0.45143 0.93546 0.81713 0.0
H368 H 0.4805 0.95794 0.73725 0.0
H369 H 0.4714 0.10766 0.87697 0.0
H370 H 0.55152 0.08744 0.86032 0.0
C371 C 0.34097 0.24179 0.01882 0.0
C372 C 0.3458 0.21425 0.01708 0.0
C373 C 0.32496 0.20023 0.02944 0.0
C374 C 0.3086 0.21993 0.03793 0.0
N375 N 0.31714 0.24561 0.03091 0.0
Co376 Co 0.29956 0.28024 0.04076 0.0
N377 N 0.2696 0.25961 0.05981 0.0
C378 C 0.26675 0.23228 0.06328 0.0
C379 C 0.24409 0.22383 0.07696 0.0
C380 C 0.23169 0.24727 0.0825 0.0
C381 C 0.24765 0.26874 0.07193 0.0
N382 N 0.28274 0.31498 0.05091 0.0
C383 C 0.25932 0.31904 0.06332 0.0
C384 C 0.25512 0.34671 0.06586 0.0
C385 C 0.27654 0.36056 0.05449 0.0
C386 C 0.29256 0.34066 0.04588 0.0
N387 N 0.32967 0.30062 0.02132 0.0
C388 C 0.33276 0.32802 0.01838 0.0
C389 C 0.35589 0.33679 0.00592 0.0
C390 C 0.36885 0.31368 1.00112 0.0
C391 C 0.35274 0.29181 0.01081 0.0
N392 N 0.27726 0.27777 0.00713 0.0
C393 C 0.22345 0.27124 0.99196 0.0
C394 C 0.23671 0.2973 0.99245 0.0
C395 C 0.26387 0.30001 0.99908 0.0
C396 C 0.23939 0.24871 0.99327 0.0
C397 C 0.26642 0.25259 0.99971 0.0
N398 N 0.31953 0.28196 0.07547 0.0
C399 C 0.34127 0.24518 0.09607 0.0
C400 C 0.31934 0.24078 0.11346 0.0
C401 C 0.303 0.26276 0.11718 0.0
C402 C 0.30476 0.28439 0.09853 0.0
C403 C 0.34159 0.26739 0.078 0.0
H404 H 0.29032 0.2996 0.10002 0.0
H405 H 0.35738 0.27009 0.0636 0.0
H406 H 0.27298 0.32034 1.00061 0.0
H407 H 0.27734 0.23457 1.00158 0.0
C408 C 0.28534 0.21519 0.05284 0.0
C409 C 0.36125 0.26351 0.01221 0.0
C410 C 0.24177 0.29749 0.07514 0.0
C411 C 0.31539 0.3452 0.03056 0.0
H412 H 0.36327 0.20538 0.00894 0.0
H413 H 0.32251 0.17836 0.03274 0.0
H414 H 0.23735 0.2031 0.08221 0.0
H415 H 0.21313 0.24851 0.0933 0.0
H416 H 0.23844 0.356 0.07513 0.0
H417 H 0.27979 0.38249 0.05227 0.0
H418 H 0.36321 0.35768 1.00223 0.0
H419 H 0.3885 0.31361 0.99263 0.0
H420 H 0.22601 0.3156 0.98926 0.0
H421 H 0.23092 0.22801 0.99159 0.0
H422 H 0.35639 0.23044 0.09453 0.0
H423 H 0.28684 0.26188 0.13164 0.0
C424 C 0.28901 0.03817 0.20028 0.0
C425 C 0.31405 0.03063 0.20783 0.0
C426 C 0.32225 0.04777 0.229 0.0
C427 C 0.30159 0.06441 0.23372 0.0
N428 N 0.28109 0.05804 0.2171 0.0
Co429 Co 0.24819 0.07738 0.21431 0.0
N430 N 0.26474 0.11141 0.22895 0.0
C431 C 0.28743 0.11348 0.24332 0.0
C432 C 0.294 0.14017 0.25049 0.0
C433 C 0.27402 0.15538 0.24002 0.0
C434 C 0.25629 0.13713 0.22697 0.0
N435 N 0.21432 0.09517 0.21172 0.0
C436 C 0.20978 0.122 0.21158 0.0
C437 C 0.18266 0.12567 0.21025 0.0
C438 C 0.17011 0.10003 0.20996 0.0
C439 C 0.19009 0.08215 0.21101 0.0
N440 N 0.23193 0.0435 0.19924 0.0
C441 C 0.20636 0.03478 0.20073 0.0
C442 C 0.20181 0.00963 0.18857 0.0
C443 C 0.22614 0.00263 0.17878 0.0
C444 C 0.24395 0.02422 0.18516 0.0
N445 N 0.23854 0.06594 0.25198 0.0
C446 C 0.231 0.05596 0.30855 0.0
C447 C 0.23989 0.03552 0.2911 0.0
C448 C 0.24356 0.04093 0.26289 0.0
C449 C 0.22584 0.08115 0.29659 0.0
C450 C 0.22922 0.08547 0.26877 0.0
N451 N 0.25906 0.09097 0.17777 0.0
C452 C 0.24919 0.1245 0.14374 0.0
C453 C 0.27609 0.1332 0.1427 0.0
C454 C 0.29444 0.11768 0.15574 0.0
C455 C 0.28562 0.09715 0.1735 0.0
C456 C 0.24122 0.10217 0.1605 0.0
H457 H 0.30084 0.08945 0.18608 0.0
H458 H 0.22034 0.09629 0.1618 0.0
H459 H 0.25097 0.02519 0.25004 0.0
H460 H 0.22522 0.10544 0.26118 0.0
C461 C 0.30344 0.09064 0.24595 0.0
C462 C 0.27211 0.02698 0.17763 0.0
C463 C 0.23061 0.14398 0.21477 0.0
C464 C 0.18724 0.0536 0.20704 0.0
H465 H 0.32546 0.01504 0.19869 0.0
H466 H 0.3418 0.04936 0.23814 0.0
H467 H 0.31156 0.14786 0.26129 0.0
H468 H 0.27255 0.17724 0.24197 0.0
H469 H 0.17289 0.14478 0.20982 0.0
H470 H 0.14901 0.09511 0.20827 0.0
H471 H 0.18288 0.99863 0.18538 0.0
H472 H 0.23013 0.98452 0.16728 0.0
H473 H 0.24402 0.01555 0.29907 0.0
H474 H 0.21982 0.09814 0.30869 0.0
H475 H 0.23442 0.13587 0.13324 0.0
H476 H 0.31542 0.12375 0.15518 0.0
C477 C 0.23199 0.98689 0.53755 0.0
C478 C 0.25253 0.96968 0.53374 0.0
C479 C 0.25018 0.96013 0.50738 0.0
C480 C 0.2283 0.97185 0.49657 0.0
N481 N 0.21722 0.98843 0.51446 0.0
Co482 Co 0.18249 0.00504 0.5106 0.0
N483 N 0.17022 0.97895 0.48207 0.0
C484 C 0.18638 0.964 0.46704 0.0
C485 C 0.17324 0.95019 0.4464 0.0
C486 C 0.1474 0.95727 0.44828 0.0
C487 C 0.14597 0.97501 0.47027 0.0
N488 N 0.14756 0.02157 0.50896 0.0
C489 C 0.12431 0.01115 0.49866 0.0
C490 C 0.10386 0.02791 0.50501 0.0
C491 C 0.11515 0.05033 0.5181 0.0
C492 C 0.14167 0.04581 0.51965 0.0
N493 N 0.19516 0.03131 0.53872 0.0
C494 C 0.18582 0.0559 0.54397 0.0
C495 C 0.19787 0.06814 0.56633 0.0
C496 C 0.21527 0.04974 0.57595 0.0
C497 C 0.21275 0.02732 0.55888 0.0
N498 N 0.19609 0.02929 0.48028 0.0
C499 C 0.21218 0.04346 0.42635 0.0
C500 C 0.18561 0.04316 0.43428 0.0
C501 C 0.17817 0.03659 0.46087 0.0
C502 C 0.23098 0.0389 0.44692 0.0
C503 C 0.22255 0.0324 0.47386 0.0
N504 N 0.16831 0.97952 0.53847 0.0
C505 C 0.13077 0.96661 0.56652 0.0
C506 C 0.13363 0.93903 0.56004 0.0
C507 C 0.15654 0.93203 0.54654 0.0
C508 C 0.17346 0.95253 0.53577 0.0
C509 C 0.14895 0.98663 0.55608 0.0
H510 H 0.18878 0.9461 0.52255 0.0
H511 H 0.14564 0.00784 0.55988 0.0
H512 H 0.15727 0.0351 0.46423 0.0
H513 H 0.23746 0.0283 0.48891 0.0
C514 C 0.21325 0.96189 0.47422 0.0
C515 C 0.22615 1.00186 0.56276 0.0
C516 C 0.12224 0.99006 0.47734 0.0
C517 C 0.16069 0.0618 0.53425 0.0
H518 H 0.26703 0.96373 0.54852 0.0
H519 H 0.26158 0.94452 0.49821 0.0
H520 H 0.18143 0.93664 0.43165 0.0
H521 H 0.13181 0.95062 0.43433 0.0
H522 H 0.08322 0.0251 0.49916 0.0
H523 H 0.10513 0.06765 0.52586 0.0
H524 H 0.19261 0.08678 0.57624 0.0
H525 H 0.22733 0.05187 0.59416 0.0
H526 H 0.16998 0.04621 0.41963 0.0
H527 H 0.25194 0.03973 0.4422 0.0
H528 H 0.11361 0.97276 0.57764 0.0
H529 H 0.15971 0.91101 0.54122 0.0
C530 C 0.23383 0.97316 0.70009 0.0
C531 C 0.20974 0.98387 0.70633 0.0
C532 C 0.19964 0.96916 0.72855 0.0
C533 C 0.21837 0.95077 0.7352 0.0
N534 N 0.23946 0.95372 0.7187 0.0
Co535 Co 0.27036 0.93109 0.71905 0.0
N536 N 0.25061 0.90003 0.73628 0.0
C537 C 0.22778 0.90144 0.7501 0.0
C538 C 0.21878 0.87615 0.75974 0.0
C539 C 0.2373 0.85815 0.75149 0.0
C540 C 0.25664 0.87343 0.73717 0.0
N541 N 0.30226 0.90988 0.71937 0.0
C542 C 0.3042 0.88263 0.72135 0.0
C543 C 0.33072 0.8762 0.72034 0.0
C544 C 0.34557 0.9005 0.71846 0.0
C545 C 0.32748 0.9204 0.7181 0.0
N546 N 0.28994 0.96206 0.7016 0.0
C547 C 0.316 0.9685 0.70369 0.0
C548 C 0.32313 0.9927 0.69051 0.0
C549 C 0.29996 1.00157 0.67945 0.0
C550 C 0.2802 0.98185 0.68603 0.0
N551 N 0.28022 0.94487 0.75583 0.0
C552 C 0.28545 0.95926 0.81141 0.0
C553 C 0.28979 0.93282 0.80255 0.0
C554 C 0.2874 0.9262 0.77501 0.0
C555 C 0.27981 0.97894 0.79148 0.0
C556 C 0.27709 0.97128 0.7638 0.0
N557 N 0.25904 0.9154 0.68354 0.0
C558 C 0.2668 0.87891 0.65229 0.0
C559 C 0.23949 0.87201 0.65136 0.0
C560 C 0.22221 0.88956 0.66305 0.0
C561 C 0.23225 0.91081 0.67923 0.0
C562 C 0.27614 0.90168 0.66765 0.0
H563 H 0.21764 0.92063 0.69083 0.0
H564 H 0.29728 0.90606 0.66909 0.0
H565 H 0.29032 0.90533 0.76955 0.0
H566 H 0.27162 0.98641 0.74901 0.0
C567 C 0.21398 0.92595 0.74993 0.0
C568 C 0.25229 0.98157 0.6776 0.0
C569 C 0.28154 0.86299 0.7265 0.0
C570 C 0.33305 0.94833 0.71208 0.0
H571 H 0.20026 1.00019 0.69588 0.0
H572 H 0.18013 0.97044 0.73737 0.0
H573 H 0.20058 0.87117 0.77074 0.0
H574 H 0.23677 0.83641 0.7557 0.0
H575 H 0.33867 0.85615 0.72109 0.0
H576 H 0.3669 0.90319 0.71654 0.0
H577 H 0.34294 1.00187 0.68771 0.0
H578 H 0.29795 0.01969 0.66708 0.0
H579 H 0.2949 0.91709 0.81692 0.0
H580 H 0.27664 0.9998 0.79733 0.0
H581 H 0.28078 0.86584 0.64294 0.0
H582 H 0.20097 0.8849 0.66254 0.0
C583 C 0.29608 0.0277 0.03829 0.0
C584 C 0.2754 0.04495 0.03544 0.0
C585 C 0.2763 0.05444 0.00893 0.0
C586 C 0.29753 0.04266 0.99706 0.0
N587 N 0.30965 0.02617 0.01448 0.0
Co588 Co 0.34373 0.00888 0.00829 0.0
N589 N 0.35414 0.03442 0.97843 0.0
C590 C 0.33712 0.04935 0.96428 0.0
C591 C 0.34889 0.06272 0.94249 0.0
C592 C 0.37473 0.05543 0.94276 0.0
C593 C 0.37754 0.03803 0.96498 0.0
N594 N 0.37805 0.99157 0.00407 0.0
C595 C 0.4006 1.00138 0.99182 0.0
C596 C 0.42107 0.98408 0.9966 0.0
C597 C 0.41038 0.96197 0.01077 0.0
C598 C 0.38424 0.9672 0.01448 0.0
N599 N 0.33288 0.98318 0.03786 0.0
C600 C 0.34223 0.95845 0.04269 0.0
C601 C 0.33157 0.94635 0.06585 0.0
C602 C 0.31499 0.96491 0.0764 0.0
C603 C 0.31659 0.98735 0.05906 0.0
N604 N 0.32744 0.98454 0.97957 0.0
C605 C 0.30647 0.97327 0.92712 0.0
C606 C 0.33351 0.97237 0.93231 0.0
C607 C 0.34344 0.9775 0.95838 0.0
C608 C 0.28956 0.97622 0.94955 0.0
C609 C 0.30048 0.98155 0.97576 0.0
N610 N 0.36057 0.03456 0.03442 0.0
C611 C 0.40081 0.0472 0.05851 0.0
C612 C 0.39807 0.07475 0.05146 0.0
C613 C 0.37422 0.08198 0.03978 0.0
C614 C 0.35581 0.06164 0.03143 0.0
C615 C 0.38134 0.02737 0.05033 0.0
H616 H 0.3394 0.06813 0.01958 0.0
H617 H 0.38453 0.00613 0.05437 0.0
H618 H 0.36458 0.97839 0.95994 0.0
H619 H 0.28713 0.9853 0.99231 0.0
C620 C 0.31094 0.05202 0.97342 0.0
C621 C 0.30293 0.01259 0.06329 0.0
C622 C 0.40166 0.02307 0.97089 0.0
C623 C 0.36624 0.95185 0.03093 0.0
H624 H 0.26168 0.05085 0.05093 0.0
H625 H 0.26431 0.0699 1.00017 0.0
H626 H 0.33981 0.07618 0.92809 0.0
H627 H 0.3894 0.0617 0.92766 0.0
H628 H 0.44128 0.98646 0.98931 0.0
H629 H 0.4206 0.94446 0.01796 0.0
H630 H 0.33712 0.92753 0.07541 0.0
H631 H 0.3039 0.96274 0.09521 0.0
H632 H 0.34727 0.96907 0.91588 0.0
H633 H 0.2683 0.97609 0.94663 0.0
H634 H 0.41863 0.04083 0.06843 0.0
H635 H 0.371 0.10295 0.03412 0.0
C636 C 0.74448 0.20419 0.99411 0.0
C637 C 0.74501 0.17597 0.99511 0.0
C638 C 0.76356 0.16881 0.97598 0.0
C639 C 0.77357 0.19299 0.9644 0.0
N640 N 0.76256 0.21448 0.97581 0.0
Co641 Co 0.76574 0.25253 0.96306 0.0
N642 N 0.77509 0.242 0.92611 0.0
C643 C 0.78447 0.218 0.91877 0.0
C644 C 0.78791 0.21675 0.89094 0.0
C645 C 0.78022 0.24154 0.88073 0.0
C646 C 0.77245 0.25653 0.90293 0.0
N647 N 0.76886 0.29102 0.95218 0.0
C648 C 0.76771 0.30158 0.92704 0.0
C649 C 0.77188 0.32992 0.92782 0.0
C650 C 0.77589 0.33685 0.95472 0.0
C651 C 0.77391 0.31251 0.96879 0.0
N652 N 0.75614 0.26282 1.00008 0.0
C653 C 0.76229 0.28654 0.01275 0.0
C654 C 0.75099 0.28717 0.03829 0.0
C655 C 0.73685 0.26238 0.04132 0.0
C656 C 0.7405 0.24813 0.01747 0.0
N657 N 0.80415 0.25511 0.97203 0.0
C658 C 0.86006 0.25185 0.97571 0.0
C659 C 0.84832 0.2662 0.9546 0.0
C660 C 0.82088 0.26774 0.95328 0.0
C661 C 0.84284 0.24021 0.99592 0.0
C662 C 0.81501 0.242 0.99367 0.0
N663 N 0.72816 0.24926 0.95106 0.0
C664 C 0.69086 0.26997 0.92984 0.0
C665 C 0.68314 0.24504 0.91727 0.0
C666 C 0.69679 0.22212 0.92382 0.0
C667 C 0.71932 0.22474 0.93987 0.0
C668 C 0.71314 0.27147 0.94733 0.0
H669 H 0.73067 0.20698 0.94054 0.0
H670 H 0.71912 0.29094 0.95632 0.0
H671 H 0.81327 0.278 0.93576 0.0
H672 H 0.80225 0.23204 0.00882 0.0
C673 C 0.78434 0.19594 0.93774 0.0
C674 C 0.72722 0.22191 0.00996 0.0
C675 C 0.76378 0.28481 0.90252 0.0
C676 C 0.77159 0.3094 0.99731 0.0
H677 H 0.73281 0.16198 0.00747 0.0
H678 H 0.76716 0.14827 0.96943 0.0
H679 H 0.79396 0.19948 0.87926 0.0
H680 H 0.78018 0.24776 0.85955 0.0
H681 H 0.77199 0.34414 0.91089 0.0
H682 H 0.77869 0.35725 0.96303 0.0
H683 H 0.75096 0.30441 0.05201 0.0
H684 H 0.72429 0.25605 0.05831 0.0
H685 H 0.85999 0.27524 0.93808 0.0
H686 H 0.85062 0.2294 0.01318 0.0
H687 H 0.68052 0.28825 0.92532 0.0
H688 H 0.69174 0.20259 0.91427 0.0
C689 C 0.05101 0.46673 0.20025 0.0
C690 C 0.07653 0.47556 0.19266 0.0
C691 C 0.07405 0.49718 0.17468 0.0
C692 C 0.04726 0.50082 0.17258 0.0
N693 N 0.0333 0.48304 0.18858 0.0
Co694 Co 0.99454 0.4783 0.19049 0.0
N695 N 0.99021 0.49321 0.1538 0.0
C696 C 0.00798 0.50986 0.14058 0.0
C697 C 0.99917 0.51621 0.11485 0.0
C698 C 0.97451 0.50271 0.11223 0.0
C699 C 0.96965 0.48873 0.13653 0.0
N700 N 0.95583 0.47275 0.1931 0.0
C701 C 0.93797 0.4699 0.17273 0.0
C702 C 0.9126 0.46514 0.18322 0.0
C703 C 0.91505 0.46548 0.21119 0.0
C704 C 0.9417 0.47022 0.21627 0.0
N705 N 0.99922 0.46345 0.22716 0.0
C706 C 0.98144 0.46247 0.24745 0.0
C707 C 0.99079 0.44918 0.27006 0.0
C708 C 0.01569 0.44124 0.26303 0.0
C709 C 0.02002 0.45008 0.23648 0.0
N710 N 0.99235 0.51565 0.20496 0.0
C711 C 0.9934 0.57246 0.21544 0.0
C712 C 0.97355 0.55956 0.19924 0.0
C713 C 0.97323 0.5315 0.19453 0.0
C714 C 0.01216 0.55573 0.22735 0.0
C715 C 0.01123 0.52739 0.22195 0.0
N716 N 0.99685 0.4421 0.17459 0.0
C717 C 0.98386 0.39426 0.17055 0.0
C718 C 1.00168 0.39214 0.14889 0.0
C719 C 0.01654 0.41527 0.1402 0.0
C720 C 0.01358 0.43992 0.15295 0.0
C721 C 0.98196 0.41963 0.18347 0.0
H722 H 0.02493 0.45736 0.14499 0.0
H723 H 0.9686 0.42117 0.20049 0.0
H724 H 0.9582 0.52297 0.18095 0.0
H725 H 0.02632 0.51514 0.23061 0.0
C726 C 0.03428 0.51372 0.15074 0.0
C727 C 0.04283 0.44409 0.21933 0.0
C728 C 0.94501 0.47274 0.14373 0.0
C729 C 0.95461 0.46656 0.24148 0.0
H730 H 0.09503 0.4676 0.1991 0.0
H731 H 0.08982 0.50755 0.16307 0.0
H732 H 0.00988 0.52803 0.09931 0.0
H733 H 0.96167 0.50302 0.09456 0.0
H734 H 0.89428 0.46151 0.17205 0.0
H735 H 0.89945 0.46121 0.22594 0.0
H736 H 0.97995 0.44365 0.28845 0.0
H737 H 0.02852 0.42915 0.2753 0.0
H738 H 0.95881 0.57115 0.18901 0.0
H739 H 0.02767 0.56442 0.24045 0.0
H740 H 0.97187 0.37658 0.17751 0.0
H741 H 0.03 0.41447 0.12307 0.0
C742 C 0.79235 0.80044 0.50532 0.0
C743 C 0.79177 0.82838 0.50942 0.0
C744 C 0.772 0.83749 0.49258 0.0
C745 C 0.76131 0.81467 0.47928 0.0
N746 N 0.77308 0.79212 0.48744 0.0
Co747 Co 0.76815 0.7555 0.47157 0.0
N748 N 0.75582 0.76997 0.43676 0.0
C749 C 0.74591 0.79458 0.43283 0.0
C750 C 0.74011 0.79887 0.40572 0.0
C751 C 0.7468 0.77542 0.3923 0.0
C752 C 0.75636 0.75815 0.412 0.0
N753 N 0.76378 0.71841 0.45687 0.0
C754 C 0.76283 0.71074 0.43066 0.0
C755 C 0.75912 0.68247 0.42869 0.0
C756 C 0.75754 0.67248 0.45495 0.0
C757 C 0.76042 0.6951 0.47141 0.0
N758 N 0.78043 0.74129 0.50643 0.0
C759 C 0.77528 0.71618 0.51687 0.0
C760 C 0.78832 0.71279 0.54127 0.0
C761 C 0.80258 0.73723 0.54589 0.0
C762 C 0.79731 0.75406 0.52403 0.0
N763 N 0.73079 0.75237 0.48378 0.0
C764 C 0.67586 0.75411 0.49397 0.0
C765 C 0.68527 0.74137 0.47081 0.0
C766 C 0.71238 0.74087 0.46607 0.0
C767 C 0.69475 0.76541 0.51255 0.0
C768 C 0.72216 0.76404 0.50722 0.0
N769 N 0.80456 0.75942 0.45737 0.0
C770 C 0.8432 0.74034 0.43777 0.0
C771 C 0.84985 0.76525 0.42424 0.0
C772 C 0.83458 0.78746 0.42977 0.0
C773 C 0.81229 0.7841 0.44593 0.0
C774 C 0.82042 0.73788 0.45438 0.0
H775 H 0.80014 0.80133 0.44698 0.0
H776 H 0.8149 0.71831 0.46361 0.0
H777 H 0.71823 0.7322 0.44707 0.0
H778 H 0.73633 0.77317 0.52151 0.0
C779 C 0.74797 0.81455 0.45377 0.0
C780 C 0.81017 0.78107 0.51845 0.0
C781 C 0.76451 0.73013 0.40777 0.0
C782 C 0.76503 0.69509 0.49978 0.0
H783 H 0.80436 0.84104 0.52261 0.0
H784 H 0.7677 0.85857 0.48877 0.0
H785 H 0.73317 0.8173 0.39653 0.0
H786 H 0.74493 0.77149 0.37068 0.0
H787 H 0.75776 0.67031 0.41035 0.0
H788 H 0.75573 0.65123 0.4612 0.0
H789 H 0.78937 0.6941 0.55299 0.0
H790 H 0.81628 0.74169 0.56247 0.0
H791 H 0.67171 0.73281 0.45555 0.0
H792 H 0.68842 0.77536 0.53089 0.0
H793 H 0.85457 0.72257 0.43443 0.0
H794 H 0.83805 0.80699 0.4196 0.0
C795 C 0.99243 0.80524 0.279 0.0
C796 C 0.00495 0.80924 0.30398 0.0
C797 C 0.99725 0.78734 0.32002 0.0
C798 C 0.9804 0.7713 0.30409 0.0
N799 N 0.97748 0.78111 0.27858 0.0
Co800 Co 0.95163 0.76556 0.25047 0.0
N801 N 0.942 0.73258 0.27313 0.0
C802 C 0.94945 0.72837 0.29911 0.0
C803 C 0.94005 0.70365 0.30948 0.0
C804 C 0.92567 0.69145 0.28878 0.0
C805 C 0.92695 0.70959 0.26693 0.0
N806 N 0.92566 0.75086 0.22236 0.0
C807 C 0.91238 0.72611 0.22049 0.0
C808 C 0.89643 0.72449 0.19734 0.0
C809 C 0.90008 0.74888 0.18404 0.0
C810 C 0.91777 0.76401 0.19979 0.0
N811 N 0.96137 0.79855 0.22751 0.0
C812 C 0.95103 0.80468 0.20301 0.0
C813 C 0.96176 0.82836 0.19162 0.0
C814 C 0.97969 0.83843 0.2103 0.0
C815 C 0.97854 0.82036 0.23221 0.0
N816 N 0.97976 0.74433 0.23374 0.0
C817 C 0.99581 0.69178 0.22176 0.0
C818 C 0.98285 0.70712 0.20209 0.0
C819 C 0.97614 0.73391 0.20806 0.0
C820 C 0.00481 0.7052 0.24533 0.0
C821 C 0.9969 0.73161 0.25076 0.0
N822 N 0.92289 0.78432 0.26867 0.0
C823 C 0.88704 0.76882 0.29791 0.0
C824 C 0.89829 0.78428 0.31941 0.0
C825 C 0.91806 0.80453 0.31271 0.0
C826 C 0.92902 0.8051 0.2865 0.0
C827 C 0.89936 0.76957 0.2725 0.0
H828 H 0.94467 0.82016 0.28216 0.0
H829 H 0.89165 0.75522 0.25765 0.0
H830 H 0.96528 0.7447 0.19293 0.0
H831 H 1.00226 0.73988 0.27029 0.0
C832 C 0.96674 0.74714 0.31238 0.0
C833 C 0.99141 0.82689 0.25823 0.0
C834 C 0.91241 0.70469 0.24128 0.0
C835 C 0.9304 0.78857 0.19181 0.0
H836 H 0.01717 0.82685 0.31049 0.0
H837 H 0.00251 0.78403 0.34113 0.0
H838 H 0.94358 0.6953 0.32954 0.0
H839 H 0.91526 0.67154 0.28971 0.0
H840 H 0.88336 0.70758 0.19069 0.0
H841 H 0.89156 0.75454 0.1647 0.0
H842 H 0.95654 0.83766 0.17243 0.0
H843 H 0.99133 0.85761 0.20865 0.0
H844 H 0.97646 0.6979 0.18299 0.0
H845 H 0.0156 0.69444 0.26077 0.0
H846 H 0.86998 0.75477 0.30101 0.0
H847 H 0.92649 0.81855 0.32777 0.0
C848 C 0.52448 0.22033 0.75878 0.0
C849 C 0.49957 0.22308 0.77007 0.0
C850 C 0.49965 0.24907 0.78091 0.0
C851 C 0.52417 0.26119 0.77487 0.0
N852 N 0.53902 0.24457 0.76047 0.0
Co853 Co 0.57557 0.25352 0.74723 0.0
N854 N 0.58202 0.28318 0.7739 0.0
C855 C 0.56293 0.29525 0.78783 0.0
C856 C 0.57279 0.31703 0.80298 0.0
C857 C 0.59958 0.319 0.79782 0.0
C858 C 0.60471 0.29821 0.77973 0.0
N859 N 0.61217 0.26067 0.73332 0.0
C860 C 0.633 0.27489 0.74473 0.0
C861 C 0.65564 0.27298 0.72889 0.0
C862 C 0.6482 0.2584 0.70611 0.0
C863 C 0.62167 0.25174 0.70947 0.0
N864 N 0.56871 0.22437 0.72014 0.0
C865 C 0.58058 0.22251 0.69583 0.0
C866 C 0.56921 0.20189 0.68003 0.0
C867 C 0.54919 0.18994 0.69568 0.0
C868 C 0.55013 0.2035 0.72046 0.0
N869 N 0.56245 0.28188 0.7218 0.0
C870 C 0.54278 0.33355 0.70978 0.0
C871 C 0.56993 0.32985 0.71045 0.0
C872 C 0.57924 0.30417 0.716 0.0
C873 C 0.5256 0.30993 0.71101 0.0
C874 C 0.53593 0.28415 0.71652 0.0
N875 N 0.5889 0.22786 0.77472 0.0
C876 C 0.62989 0.21698 0.79633 0.0
C877 C 0.61887 0.22157 0.82205 0.0
C878 C 0.59165 0.22428 0.82368 0.0
C879 C 0.57707 0.22735 0.79993 0.0
C880 C 0.61405 0.21891 0.77287 0.0
H881 H 0.55713 0.23296 0.80301 0.0
H882 H 0.62318 0.21631 0.75327 0.0
H883 H 0.6002 0.30369 0.71798 0.0
H884 H 0.52214 0.26662 0.71862 0.0
C885 C 0.53628 0.28483 0.78685 0.0
C886 C 0.53399 0.196 0.74443 0.0
C887 C 0.6305 0.29556 0.76603 0.0
C888 C 0.60562 0.23558 0.6918 0.0
H889 H 0.48277 0.20845 0.77005 0.0
H890 H 0.48406 0.25759 0.79273 0.0
H891 H 0.56183 0.33013 0.81601 0.0
H892 H 0.61356 0.33455 0.80573 0.0
H893 H 0.67508 0.28277 0.73251 0.0
H894 H 0.66062 0.25342 0.68909 0.0
H895 H 0.57579 0.19513 0.66032 0.0
H896 H 0.53628 0.17245 0.69012 0.0
H897 H 0.58415 0.34712 0.70814 0.0
H898 H 0.50435 0.31153 0.70946 0.0
H899 H 0.65078 0.21351 0.79428 0.0
H900 H 0.58212 0.2272 0.84314 0.0
C901 C 0.46279 0.5594 0.68731 0.0
C902 C 0.4353 0.55922 0.68746 0.0
C903 C 0.42651 0.54165 0.66743 0.0
C904 C 0.44899 0.53184 0.65637 0.0
N905 N 0.47157 0.54137 0.66863 0.0
Co906 Co 0.50855 0.53243 0.65786 0.0
N907 N 0.49544 0.50489 0.63027 0.0
C908 C 0.4701 0.5004 0.62205 0.0
C909 C 0.46697 0.48096 0.60208 0.0
C910 C 0.49195 0.4728 0.59706 0.0
C911 C 0.50891 0.48779 0.61432 0.0
N912 N 0.54555 0.52352 0.64778 0.0
C913 C 0.55434 0.50286 0.6325 0.0
C914 C 0.58197 0.50315 0.63284 0.0
C915 C 0.5907 0.5249 0.64815 0.0
C916 C 0.56818 0.53658 0.65646 0.0
N917 N 0.52174 0.56066 0.6851 0.0
C918 C 0.54735 0.56929 0.68886 0.0
C919 C 0.55106 0.59076 0.70631 0.0
C920 C 0.52628 0.59686 0.71391 0.0
C921 C 0.50857 0.57835 0.70088 0.0
N922 N 0.50836 0.5025 0.68535 0.0
C923 C 0.51528 0.44807 0.70242 0.0
C924 C 0.53545 0.46881 0.70602 0.0
C925 C 0.53136 0.49589 0.69798 0.0
C926 C 0.49047 0.45634 0.69381 0.0
C927 C 0.48738 0.4835 0.68576 0.0
N928 N 0.50841 0.56053 0.62883 0.0
C929 C 0.5125 0.56841 0.58035 0.0
C930 C 0.49331 0.58774 0.58144 0.0
C931 C 0.48436 0.59569 0.60704 0.0
C932 C 0.49265 0.58228 0.63048 0.0
C933 C 0.51987 0.55526 0.60424 0.0
H934 H 0.48517 0.58887 0.64955 0.0
H935 H 0.53366 0.53968 0.60218 0.0
H936 H 0.54771 0.5108 0.69985 0.0
H937 H 0.46845 0.48817 0.67764 0.0
C938 C 0.44967 0.51363 0.63462 0.0
C939 C 0.47954 0.58022 0.70194 0.0
C940 C 0.5378 0.4865 0.61327 0.0
C941 C 0.56761 0.55772 0.67489 0.0
H942 H 0.42297 0.57165 0.69979 0.0
H943 H 0.40617 0.53709 0.66122 0.0
H944 H 0.4487 0.47352 0.59241 0.0
H945 H 0.49725 0.45786 0.58213 0.0
H946 H 0.59495 0.48975 0.62266 0.0
H947 H 0.61105 0.53117 0.65302 0.0
H948 H 0.56958 0.60147 0.71196 0.0
H949 H 0.52232 0.61405 0.72659 0.0
H950 H 0.55491 0.46404 0.71328 0.0
H951 H 0.47368 0.44171 0.69207 0.0
H952 H 0.52084 0.56253 0.56107 0.0
H953 H 0.47072 0.61191 0.60891 0.0
C954 C 0.9956 0.25675 0.96285 0.0
C955 C 0.99848 0.26628 0.93637 0.0
C956 C 0.02 0.28522 0.93654 0.0
C957 C 0.02931 0.28603 0.96304 0.0
N958 N 0.01494 0.26841 0.97886 0.0
Co959 Co 0.01655 0.26534 0.01863 0.0
N960 N 0.03253 0.30237 0.02257 0.0
C961 C 0.04583 0.31683 0.0031 0.0
C962 C 0.05411 0.34244 0.01236 0.0
C963 C 0.04543 0.34359 0.03907 0.0
C964 C 0.03226 0.31859 0.04465 0.0
N965 N 0.01674 0.26106 0.0583 0.0
C966 C 0.01739 0.28069 0.07733 0.0
C967 C 0.01767 0.26929 0.10327 0.0
C968 C 0.01746 0.24133 0.09989 0.0
C969 C 0.01699 0.23729 0.07216 0.0
N970 N 1.00133 0.22811 0.01459 0.0
C971 C 0.00506 0.20691 0.03124 0.0
C972 C 0.99365 0.1829 0.02091 0.0
C973 C 0.98199 0.19002 0.99656 0.0
C974 C 0.98634 0.21812 0.99394 0.0
N975 N 0.05313 0.25255 0.01681 0.0
C976 C 0.10845 0.2531 0.00732 0.0
C977 C 0.09826 0.26206 0.03204 0.0
C978 C 0.07093 0.26182 0.03626 0.0
C979 C 0.09021 0.24082 0.98867 0.0
C980 C 0.06266 0.24042 0.99397 0.0
N981 N 0.9813 0.28065 0.01988 0.0
C982 C 0.93709 0.28584 0.0374 0.0
C983 C 0.93494 0.30953 0.02132 0.0
C984 C 0.9557 0.31752 0.00411 0.0
C985 C 0.9784 0.3033 0.00394 0.0
C986 C 0.96074 0.27152 0.03635 0.0
H987 H 0.9939 0.31144 0.99096 0.0
H988 H 0.9627 0.25364 0.04905 0.0
H989 H 0.0645 0.27154 0.0545 0.0
H990 H 0.04909 0.23215 0.97867 0.0
C991 C 0.04448 0.30795 0.9755 0.0
C992 C 0.97532 0.23609 0.97328 0.0
C993 C 0.02022 0.30988 0.07086 0.0
C994 C 0.01289 0.21202 0.05846 0.0
H995 H 0.98585 0.26089 0.91915 0.0
H996 H 0.02643 0.2985 0.91986 0.0
H997 H 0.06391 0.35888 1.00074 0.0
H998 H 0.04821 0.36083 0.05269 0.0
H999 H 0.01839 0.28004 0.12248 0.0
H1000 H 0.01693 0.2259 0.11577 0.0
H1001 H 0.99223 0.16304 0.03074 0.0
H1002 H 0.97043 0.17651 0.98315 0.0
H1003 H 0.11128 0.27057 0.04778 0.0
H1004 H 0.09693 0.233 0.96944 0.0
H1005 H 0.92116 0.27895 0.05092 0.0
H1006 H 0.95474 0.33544 0.99112 0.0
C1007 C 0.54396 0.75949 0.47647 0.0
C1008 C 0.55141 0.76777 0.45047 0.0
C1009 C 0.53102 0.75918 0.43346 0.0
C1010 C 0.51235 0.74606 0.45001 0.0
N1011 N 0.51938 0.74674 0.47662 0.0
Co1012 Co 0.50184 0.72582 0.50729 0.0
N1013 N 0.47878 0.70346 0.48185 0.0
C1014 C 0.47582 0.70748 0.45479 0.0
C1015 C 0.45995 0.68721 0.44272 0.0
C1016 C 0.45265 0.66931 0.46337 0.0
C1017 C 0.46446 0.67977 0.48683 0.0
N1018 N 0.48501 0.70496 0.53823 0.0
C1019 C 0.46633 0.68422 0.53754 0.0
C1020 C 0.45745 0.67733 0.56362 0.0
C1021 C 0.47172 0.69387 0.58131 0.0
C1022 C 0.48829 0.70994 0.56511 0.0
N1023 N 0.52525 0.74797 0.53267 0.0
C1024 C 0.52387 0.74864 0.56013 0.0
C1025 C 0.54456 0.76368 0.57189 0.0
C1026 C 0.56057 0.77218 0.55071 0.0
C1027 C 0.54859 0.76187 0.52718 0.0
N1028 N 0.47281 0.75235 0.50971 0.0
C1029 C 0.41794 0.76112 0.51086 0.0
C1030 C 0.43271 0.75974 0.53503 0.0
C1031 C 0.46014 0.75645 0.53393 0.0
C1032 C 0.43231 0.76346 0.48653 0.0
C1033 C 0.45974 0.7601 0.48663 0.0
N1034 N 0.52915 0.69856 0.50412 0.0
C1035 C 0.55855 0.66575 0.52284 0.0
C1036 C 0.56398 0.65614 0.49655 0.0
C1037 C 0.55197 0.66859 0.4745 0.0
C1038 C 0.53504 0.68943 0.47866 0.0
C1039 C 0.54116 0.68713 0.52617 0.0
H1040 H 0.52626 0.69734 0.46081 0.0
H1041 H 0.53707 0.6939 0.5465 0.0
H1042 H 0.47035 0.75574 0.55291 0.0
H1043 H 0.4696 0.76266 0.4676 0.0
C1044 C 0.49174 0.72762 0.44093 0.0
C1045 C 0.56124 0.76258 0.50044 0.0
C1046 C 0.4613 0.66708 0.51364 0.0
C1047 C 0.50661 0.73034 0.57425 0.0
H1048 H 0.57015 0.77775 0.44439 0.0
H1049 H 0.53095 0.7602 0.41142 0.0
H1050 H 0.45529 0.68497 0.42128 0.0
H1051 H 0.44032 0.65062 0.46149 0.0
H1052 H 0.44283 0.66145 0.56949 0.0
H1053 H 0.47034 0.69395 0.60332 0.0
H1054 H 0.54878 0.76607 0.59341 0.0
H1055 H 0.57961 0.78321 0.55266 0.0
H1056 H 0.42313 0.75955 0.55475 0.0
H1057 H 0.42239 0.76703 0.46736 0.0
H1058 H 0.56737 0.65673 0.54062 0.0
H1059 H 0.55474 0.66165 0.45383 0.0
C1060 C 0.71518 0.53757 0.463 0.0
C1061 C 0.72755 0.56352 0.4643 0.0
C1062 C 0.71753 0.57585 0.48683 0.0
C1063 C 0.69944 0.55693 0.49786 0.0
N1064 N 0.6975 0.53339 0.48386 0.0
Co1065 Co 0.67227 0.50116 0.49182 0.0
N1066 N 0.65172 0.52188 0.51849 0.0
C1067 C 0.65897 0.54674 0.52854 0.0
C1068 C 0.64178 0.55549 0.54779 0.0
C1069 C 0.62256 0.53478 0.55024 0.0
C1070 C 0.62897 0.51448 0.53207 0.0
N1071 N 0.64774 0.46832 0.49927 0.0
C1072 C 0.62486 0.4658 0.51382 0.0
C1073 C 0.6139 0.43914 0.51313 0.0
C1074 C 0.63113 0.42417 0.49886 0.0
C1075 C 0.65125 0.44251 0.49119 0.0
N1076 N 0.69315 0.48029 0.4654 0.0
C1077 C 0.69259 0.45293 0.46264 0.0
C1078 C 0.70973 0.44435 0.44318 0.0
C1079 C 0.72184 0.46779 0.43281 0.0
C1080 C 0.71124 0.48927 0.44657 0.0
N1081 N 0.69539 0.49057 0.52263 0.0
C1082 C 0.72216 0.49119 0.57321 0.0
C1083 C 0.69641 0.47986 0.5708 0.0
C1084 C 0.68351 0.4798 0.54572 0.0
C1085 C 0.73535 0.50012 0.54936 0.0
C1086 C 0.72175 0.49905 0.52411 0.0
N1087 N 0.64788 0.51344 0.46262 0.0
C1088 C 0.60591 0.53271 0.47083 0.0
C1089 C 0.61736 0.55892 0.46522 0.0
C1090 C 0.64158 0.56027 0.45116 0.0
C1091 C 0.65535 0.53651 0.44816 0.0
C1092 C 0.62122 0.5099 0.46751 0.0
H1093 H 0.67316 0.53783 0.43643 0.0
H1094 H 0.61206 0.48996 0.47142 0.0
H1095 H 0.66315 0.47276 0.54611 0.0
H1096 H 0.73223 0.50648 0.50619 0.0
C1097 C 0.68129 0.56171 0.5185 0.0
C1098 C 0.71861 0.5179 0.44074 0.0
C1099 C 0.61373 0.48796 0.52938 0.0
C1100 C 0.67281 0.43647 0.47513 0.0
H1101 H 0.74166 0.57296 0.45014 0.0
H1102 H 0.72189 0.59666 0.49349 0.0
H1103 H 0.64301 0.57466 0.55874 0.0
H1104 H 0.60601 0.5346 0.56421 0.0
H1105 H 0.59556 0.43117 0.52222 0.0
H1106 H 0.62906 0.40254 0.49434 0.0
H1107 H 0.71218 0.42363 0.43641 0.0
H1108 H 0.73641 0.46908 0.41664 0.0
H1109 H 0.68563 0.47237 0.58866 0.0
H1110 H 0.75565 0.50845 0.55029 0.0
H1111 H 0.58585 0.52987 0.47849 0.0
H1112 H 0.65062 0.57938 0.44366 0.0
C1113 C 0.78968 0.46955 0.79698 0.0
C1114 C 0.8165 0.47014 0.79101 0.0
C1115 C 0.81857 0.46052 0.76461 0.0
C1116 C 0.79297 0.45451 0.75572 0.0
N1117 N 0.77536 0.4603 0.77507 0.0
Co1118 Co 0.73723 0.44962 0.7749 0.0
N1119 N 0.74139 0.42042 0.74841 0.0
C1120 C 0.76172 0.41873 0.73099 0.0
C1121 C 0.7592 0.39495 0.71602 0.0
C1122 C 0.73597 0.38136 0.72486 0.0
C1123 C 0.72558 0.39758 0.74482 0.0
N1124 N 0.6992 0.43927 0.77661 0.0
C1125 C 0.68702 0.41487 0.77101 0.0
C1126 C 0.65985 0.41557 0.77508 0.0
C1127 C 0.65527 0.44167 0.78356 0.0
C1128 C 0.6798 0.45537 0.78416 0.0
N1129 N 0.73291 0.47906 0.80106 0.0
C1130 C 0.71075 0.49219 0.8059 0.0
C1131 C 0.71428 0.51073 0.82681 0.0
C1132 C 0.74004 0.50857 0.83561 0.0
C1133 C 0.75071 0.48881 0.81951 0.0
N1134 N 0.73106 0.47408 0.74343 0.0
C1135 C 0.73461 0.49113 0.68861 0.0
C1136 C 0.7142 0.47288 0.69733 0.0
C1137 C 0.71269 0.46476 0.72449 0.0
C1138 C 0.75132 0.50351 0.70849 0.0
C1139 C 0.74893 0.49494 0.73602 0.0
N1140 N 0.74394 0.42328 0.80383 0.0
C1141 C 0.72904 0.39311 0.84016 0.0
C1142 C 0.74879 0.37488 0.83361 0.0
C1143 C 0.76659 0.38249 0.81295 0.0
C1144 C 0.76441 0.40679 0.79926 0.0
C1145 C 0.72676 0.41718 0.82472 0.0
H1146 H 0.77827 0.41065 0.78307 0.0
H1147 H 0.71067 0.43023 0.82884 0.0
H1148 H 0.69836 0.44835 0.72891 0.0
H1149 H 0.76302 0.50345 0.75072 0.0
C1150 C 0.7852 0.43575 0.73473 0.0
C1151 C 0.77708 0.47815 0.82278 0.0
C1152 C 0.70086 0.39172 0.76029 0.0
C1153 C 0.68612 0.48073 0.79675 0.0
H1154 H 0.83288 0.47599 0.80432 0.0
H1155 H 0.8367 0.45603 0.75424 0.0
H1156 H 0.77338 0.38741 0.70179 0.0
H1157 H 0.72797 0.36165 0.71791 0.0
H1158 H 0.64498 0.39904 0.77227 0.0
H1159 H 0.6365 0.44924 0.78982 0.0
H1160 H 0.6993 0.52248 0.83628 0.0
H1161 H 0.74949 0.51925 0.85261 0.0
H1162 H 0.70053 0.46324 0.68275 0.0
H1163 H 0.76709 0.51823 0.70262 0.0
H1164 H 0.71511 0.38867 0.85652 0.0
H1165 H 0.78168 0.36933 0.80605 0.0
C1166 C 0.78871 0.47193 0.96261 0.0
C1167 C 0.76136 0.46677 0.96319 0.0
C1168 C 0.75501 0.45691 0.98881 0.0
C1169 C 0.77851 0.45761 0.00294 0.0
N1170 N 0.79901 0.46799 0.988 0.0
Co1171 Co 0.83615 0.47468 1.00118 0.0
N1172 N 0.83045 0.45062 0.03339 0.0
C1173 C 0.80659 0.44163 0.0432 0.0
C1174 C 0.80846 0.42723 0.06713 0.0
C1175 C 0.83509 0.42757 0.07292 0.0
C1176 C 0.84804 0.44227 0.05217 0.0
N1177 N 0.87396 0.48081 0.01218 0.0
C1178 C 0.8883 0.46749 0.0308 0.0
C1179 C 0.91449 0.47809 0.03114 0.0
C1180 C 0.91619 0.49934 0.01293 0.0
C1181 C 0.89121 0.50044 1.00223 0.0
N1182 N 0.8414 0.49967 0.9696 0.0
C1183 C 0.8598 0.52049 0.96791 0.0
C1184 C 0.85563 0.53777 0.94641 0.0
C1185 C 0.83338 0.52681 0.93358 0.0
C1186 C 0.82599 0.50275 0.94735 0.0
N1187 N 0.82603 0.50556 0.02528 0.0
C1188 C 0.80688 0.52248 0.07606 0.0
C1189 C 0.83396 0.52203 0.0712 0.0
C1190 C 0.84311 0.51412 0.04582 0.0
C1191 C 0.7898 0.51956 0.05355 0.0
C1192 C 0.80002 0.51205 0.028 0.0
N1193 N 0.84596 0.44264 0.98011 0.0
C1194 C 0.88439 0.41637 0.97636 0.0
C1195 C 0.86986 0.39327 0.98668 0.0
C1196 C 0.8423 0.39397 0.98767 0.0
C1197 C 0.83064 0.41888 0.98373 0.0
C1198 C 0.87165 0.44074 0.97204 0.0
H1199 H 0.80983 0.41915 0.98804 0.0
H1200 H 0.88351 0.45887 0.96628 0.0
H1201 H 0.86414 0.51317 0.0445 0.0
H1202 H 0.78635 0.50969 0.0112 0.0
C1203 C 0.78311 0.44611 0.0287 0.0
C1204 C 0.80462 0.48292 0.939 0.0
C1205 C 0.87666 0.44986 0.05246 0.0
C1206 C 0.88309 0.51966 0.9832 0.0
H1207 H 0.74709 0.47073 0.94745 0.0
H1208 H 0.7356 0.44985 0.9961 0.0
H1209 H 0.79243 0.4177 0.07902 0.0
H1210 H 0.84397 0.41866 0.09073 0.0
H1211 H 0.93041 0.47243 0.04441 0.0
H1212 H 0.93339 0.51283 0.00861 0.0
H1213 H 0.86796 0.55542 0.94002 0.0
H1214 H 0.82424 0.53504 0.91558 0.0
H1215 H 0.84807 0.52623 0.08753 0.0
H1216 H 0.76867 0.52147 0.05595 0.0
H1217 H 0.90568 0.41623 0.97376 0.0
H1218 H 0.83011 0.37634 0.99444 0.0
C1219 C 0.73701 0.55515 0.30744 0.0
C1220 C 0.71099 0.56254 0.30978 0.0
C1221 C 0.70845 0.58473 0.2932 0.0
C1222 C 0.73297 0.58978 0.28176 0.0
N1223 N 0.75084 0.57168 0.28924 0.0
Co1224 Co 0.78969 0.57383 0.27924 0.0
N1225 N 0.78582 0.60626 0.25499 0.0
C1226 C 0.76376 0.62022 0.25168 0.0
C1227 C 0.76697 0.64183 0.23389 0.0
C1228 C 0.79281 0.64185 0.22566 0.0
C1229 C 0.8039 0.62022 0.23903 0.0
N1230 N 0.8283 0.57524 0.26929 0.0
C1231 C 0.84208 0.59107 0.25078 0.0
C1232 C 0.8684 0.58414 0.24948 0.0
C1233 C 0.87132 0.56364 0.26791 0.0
C1234 C 0.84684 0.55917 0.27947 0.0
N1235 N 0.79356 0.54142 0.30383 0.0
C1236 C 0.81608 0.52875 0.30904 0.0
C1237 C 0.81291 0.50717 0.32685 0.0
C1238 C 0.78682 0.50639 0.33406 0.0
C1239 C 0.77569 0.52775 0.32032 0.0
N1240 N 0.78222 0.54988 0.2471 0.0
C1241 C 0.78312 0.53327 0.19183 0.0
C1242 C 0.80155 0.52412 0.21091 0.0
C1243 C 0.80036 0.53209 0.23835 0.0
C1244 C 0.76227 0.5479 0.20212 0.0
C1245 C 0.7621 0.55573 0.22958 0.0
N1246 N 0.79726 0.59955 0.30984 0.0
C1247 C 0.81403 0.64551 0.32034 0.0
C1248 C 0.79268 0.6487 0.33776 0.0
C1249 C 0.77668 0.62557 0.34462 0.0
C1250 C 0.77991 0.60108 0.33106 0.0
C1251 C 0.81607 0.62065 0.30675 0.0
H1252 H 0.76703 0.58431 0.33689 0.0
H1253 H 0.83194 0.61958 0.29256 0.0
H1254 H 0.81537 0.52524 0.25183 0.0
H1255 H 0.74646 0.56817 0.2358 0.0
C1256 C 0.74024 0.61194 0.26489 0.0
C1257 C 0.74927 0.53651 0.32683 0.0
C1258 C 0.83235 0.61586 0.23825 0.0
C1259 C 0.84006 0.53828 0.29781 0.0
H1260 H 0.69579 0.55402 0.32329 0.0
H1261 H 0.69111 0.59656 0.29079 0.0
H1262 H 0.75233 0.656 0.22777 0.0
H1263 H 0.80271 0.65656 0.21204 0.0
H1264 H 0.88426 0.59317 0.23713 0.0
H1265 H 0.88914 0.55306 0.27218 0.0
H1266 H 0.82797 0.49417 0.33441 0.0
H1267 H 0.7773 0.49266 0.34888 0.0
H1268 H 0.81787 0.51222 0.20463 0.0
H1269 H 0.74656 0.55427 0.1889 0.0
H1270 H 0.82806 0.6625 0.316 0.0
H1271 H 0.76117 0.62657 0.35976 0.0
C1272 C 0.22852 0.30142 0.12381 0.0
C1273 C 0.22255 0.30509 0.09618 0.0
H1274 H 0.21506 0.3037 0.16493 0.0
C1275 C 0.19877 0.3166 0.08879 0.0
H1276 H 0.24694 0.29277 0.12985 0.0
C1277 C 0.18073 0.32353 0.10884 0.0
C1278 C 0.18613 0.31882 0.1366 0.0
H1279 H 0.19406 0.31987 0.06751 0.0
H1280 H 0.16217 0.33172 0.1026 0.0
C1281 C 0.2105 0.30819 0.14385 0.0
C1282 C 0.98698 0.87402 0.43357 0.0
C1283 C 0.98629 0.89324 0.45485 0.0
H1284 H 0.99814 0.86641 0.39212 0.0
C1285 C 0.99697 0.91993 0.45025 0.0
H1286 H 0.97897 0.85325 0.43645 0.0
C1287 C 0.00782 0.92729 0.42495 0.0
C1288 C 0.00906 0.90795 0.40401 0.0
H1289 H 0.99643 0.93529 0.46602 0.0
H1290 H 0.0144 0.94843 0.4214 0.0
C1291 C 0.99835 0.88131 0.40838 0.0
C1292 C 0.27654 0.68525 0.66899 0.0
C1293 C 0.27912 0.67919 0.64128 0.0
H1294 H 0.29607 0.68883 0.70754 0.0
C1295 C 0.30155 0.66624 0.63226 0.0
H1296 H 0.25933 0.69531 0.67621 0.0
C1297 C 0.32237 0.66193 0.65023 0.0
C1298 C 0.32128 0.67114 0.67729 0.0
H1299 H 0.30387 0.66148 0.61088 0.0
H1300 H 0.34031 0.65379 0.64232 0.0
C1301 C 0.2975 0.68126 0.68693 0.0
C1302 C 0.53044 0.09112 0.94606 0.0
C1303 C 0.54787 0.1141 0.95041 0.0
H1304 H 0.50607 0.06834 0.91757 0.0
C1305 C 0.5528 0.13252 0.92855 0.0
H1306 H 0.52672 0.07597 0.96192 0.0
C1307 C 0.53987 0.12867 0.90354 0.0
C1308 C 0.52193 0.10619 0.89969 0.0
H1309 H 0.56619 0.15038 0.9308 0.0
H1310 H 0.54432 0.14291 0.88699 0.0
C1311 C 0.51791 0.08709 0.92088 0.0
C1312 C 0.21738 0.18537 0.18931 0.0
C1313 C 0.22167 0.17227 0.21435 0.0
H1314 H 0.19863 0.21787 0.16845 0.0
C1315 C 0.21042 0.1824 0.23804 0.0
H1316 H 0.22454 0.17693 0.17056 0.0
C1317 C 0.19384 0.2042 0.2365 0.0
C1318 C 0.1892 0.21725 0.21144 0.0
H1319 H 0.21252 0.17187 0.25734 0.0
H1320 H 0.18384 0.2102 0.25485 0.0
C1321 C 0.20193 0.20825 0.188 0.0
C1322 C 0.06668 0.90452 0.5459 0.0
C1323 C 0.07123 0.87724 0.5521 0.0
H1324 H 0.0829 0.94575 0.54427 0.0
C1325 C 0.09534 0.87066 0.56391 0.0
H1326 H 0.04792 0.9099 0.53721 0.0
C1327 C 0.11518 0.89116 0.56853 0.0
C1328 C 0.11107 0.91849 0.56145 0.0
H1329 H 0.09882 0.8497 0.56935 0.0
H1330 H 0.13403 0.88557 0.57684 0.0
C1331 C 0.08643 0.92502 0.55054 0.0
C1332 C 0.28876 0.81682 0.70742 0.0
C1333 C 0.28809 0.8341 0.73015 0.0
H1334 H 0.305 0.78125 0.68989 0.0
C1335 C 0.30182 0.82729 0.75384 0.0
H1336 H 0.27934 0.82232 0.68853 0.0
C1337 C 0.31868 0.80572 0.7536 0.0
C1338 C 0.32057 0.78909 0.7304 0.0
H1339 H 0.30225 0.84084 0.77126 0.0
H1340 H 0.3315 0.80324 0.77104 0.0
C1341 C 0.30412 0.79383 0.70794 0.0
C1342 C 0.44552 0.08756 0.04089 0.0
C1343 C 0.42104 0.09504 0.05128 0.0
H1344 H 0.48447 0.10121 0.02761 0.0
C1345 C 0.41764 0.12277 0.05711 0.0
H1346 H 0.44862 0.06653 0.03558 0.0
C1347 C 0.43798 0.14263 0.05183 0.0
C1348 C 0.46204 0.13505 0.0408 0.0
H1349 H 0.39903 0.12918 0.06515 0.0
H1350 H 0.43495 0.16389 0.05627 0.0
C1351 C 0.46584 0.10741 0.03574 0.0
C1352 C 0.06935 0.9706 0.42479 0.0
C1353 C 0.06659 0.99572 0.41145 0.0
H1354 H 0.088 0.94934 0.45737 0.0
C1355 C 0.07962 0.01939 0.42189 0.0
H1356 H 0.06065 0.95189 0.4162 0.0
C1357 C 0.09717 0.01754 0.44369 0.0
C1358 C 0.10083 0.99222 0.45651 0.0
H1359 H 0.07855 0.03876 0.41127 0.0
H1360 H 0.10894 0.03574 0.44952 0.0
C1361 C 0.08564 0.96903 0.44778 0.0
C1362 C 0.20282 0.81442 0.6137 0.0
C1363 C 0.20176 0.79339 0.63354 0.0
H1364 H 0.21674 0.85546 0.60328 0.0
C1365 C 0.21327 0.79899 0.65919 0.0
H1366 H 0.19391 0.81127 0.59385 0.0
C1367 C 0.22633 0.82433 0.66437 0.0
C1368 C 0.22867 0.84448 0.64399 0.0
H1369 H 0.21216 0.78395 0.67541 0.0
H1370 H 0.23405 0.82848 0.68463 0.0
C1371 C 0.21627 0.83965 0.61882 0.0
C1372 C 0.43714 0.04633 0.94158 0.0
C1373 C 0.42268 0.02237 0.94961 0.0
H1374 H 0.46126 0.0656 0.91043 0.0
C1375 C 0.42659 0.99787 0.93563 0.0
H1376 H 0.43434 0.06546 0.9519 0.0
C1377 C 0.44395 0.9975 0.91359 0.0
C1378 C 0.45655 0.0219 0.90413 0.0
H1379 H 0.41518 0.97919 0.94084 0.0
H1380 H 0.44527 0.97875 0.90214 0.0
C1381 C 0.45321 0.04627 0.91841 0.0
C1382 C 0.28184 0.18291 0.1512 0.0
C1383 C 0.28526 0.16081 0.13372 0.0
H1384 H 0.29076 0.22519 0.15951 0.0
C1385 C 0.3023 0.16434 0.1114 0.0
H1386 H 0.27059 0.18002 0.16982 0.0
C1387 C 0.31475 0.18996 0.10591 0.0
C1388 C 0.31032 0.21269 0.12257 0.0
H1389 H 0.30626 0.14719 0.09844 0.0
H1390 H 0.32721 0.19199 0.08806 0.0
C1391 C 0.29403 0.20861 0.14562 0.0
C1392 C 0.72934 0.33396 0.85962 0.0
C1393 C 0.75135 0.34804 0.84756 0.0
H1394 H 0.71629 0.30189 0.88694 0.0
C1395 C 0.77625 0.33622 0.84906 0.0
H1396 H 0.70976 0.3418 0.85844 0.0
C1397 C 0.77925 0.31191 0.86318 0.0
C1398 C 0.75785 0.29969 0.87746 0.0
H1399 H 0.79409 0.34645 0.84103 0.0
H1400 H 0.799 0.30471 0.8659 0.0
C1401 C 0.73273 0.31031 0.87493 0.0
C1402 C 0.93111 0.44289 0.10445 0.0
C1403 C 0.92568 0.46417 0.12231 0.0
H1404 H 0.91896 0.42081 0.06836 0.0
C1405 C 0.9023 0.47797 0.11902 0.0
H1406 H 0.94913 0.43206 0.10672 0.0
C1407 C 0.88494 0.47116 0.09768 0.0
C1408 C 0.89094 0.45087 0.07894 0.0
H1409 H 0.89792 0.49465 0.13242 0.0
H1410 H 0.8676 0.48285 0.09482 0.0
C1411 C 0.91376 0.43619 0.08289 0.0
C1412 C 0.75344 0.70567 0.3651 0.0
C1413 C 0.77265 0.71949 0.38129 0.0
H1414 H 0.74496 0.67175 0.33852 0.0
C1415 C 0.79939 0.7138 0.37827 0.0
H1416 H 0.73264 0.70949 0.36752 0.0
C1417 C 0.8065 0.69199 0.36212 0.0
C1418 C 0.78675 0.67564 0.34896 0.0
H1419 H 0.81428 0.72408 0.39097 0.0
H1420 H 0.82694 0.68637 0.36212 0.0
C1421 C 0.76044 0.68373 0.34909 0.0
C1422 C 0.87275 0.64089 0.21797 0.0
C1423 C 0.85127 0.64026 0.23612 0.0
H1424 H 0.90938 0.66167 0.20576 0.0
C1425 C 0.84917 0.66199 0.25445 0.0
H1426 H 0.87427 0.62498 0.20289 0.0
C1427 C 0.86923 0.68261 0.25632 0.0
C1428 C 0.89163 0.68211 0.2396 0.0
H1429 H 0.83223 0.66276 0.26774 0.0
H1430 H 0.8673 0.69897 0.27087 0.0
C1431 C 0.89292 0.66158 0.21984 0.0
C1432 C 0.66643 0.32671 0.78672 0.0
C1433 C 0.64964 0.31974 0.76475 0.0
H1434 H 0.69659 0.35528 0.80218 0.0
C1435 C 0.65174 0.33524 0.74054 0.0
H1436 H 0.66519 0.31496 0.80548 0.0
C1437 C 0.67017 0.35736 0.73831 0.0
C1438 C 0.68651 0.3647 0.7604 0.0
H1439 H 0.63904 0.33032 0.72328 0.0
H1440 H 0.67077 0.36956 0.71982 0.0
C1441 C 0.6846 0.34931 0.78464 0.0
C1442 C 0.44727 0.6221 0.53338 0.0
C1443 C 0.46584 0.63781 0.51788 0.0
H1444 H 0.44181 0.59438 0.5671 0.0
C1445 C 0.49227 0.6304 0.51758 0.0
H1446 H 0.42666 0.6272 0.53358 0.0
C1447 C 0.50109 0.61207 0.53701 0.0
C1448 C 0.48331 0.60049 0.55632 0.0
H1449 H 0.50674 0.64175 0.50518 0.0
H1450 H 0.52211 0.60929 0.53876 0.0
C1451 C 0.45604 0.60389 0.553 0.0
C1452 C 0.64281 0.2227 0.89546 0.0
C1453 C 0.66406 0.24248 0.89433 0.0
H1454 H 0.61211 0.20019 0.87342 0.0
C1455 C 0.6706 0.25484 0.86917 0.0
H1456 H 0.63794 0.21218 0.9144 0.0
C1457 C 0.65649 0.2473 0.84554 0.0
C1458 C 0.63543 0.22731 0.84662 0.0
H1459 H 0.68745 0.26933 0.86745 0.0
H1460 H 0.6619 0.25728 0.82643 0.0
C1461 C 0.62844 0.21543 0.87193 0.0
C1462 C 0.98406 0.3573 0.11605 0.0
C1463 C 0.00453 0.36687 0.13349 0.0
H1464 H 0.97344 0.33179 0.08177 0.0
C1465 C 0.02984 0.35657 0.13111 0.0
H1466 H 0.96461 0.36551 0.11721 0.0
C1467 C 0.035 0.33804 0.1106 0.0
C1468 C 0.0149 0.32963 0.09231 0.0
H1469 H 0.04594 0.36405 0.14421 0.0
H1470 H 0.05474 0.33066 0.10864 0.0
C1471 C 0.98923 0.33864 0.09554 0.0
C1472 C 0.8815 0.79338 0.39441 0.0
C1473 C 0.86887 0.76778 0.40096 0.0
H1474 H 0.89894 0.81937 0.3636 0.0
C1475 C 0.87008 0.74656 0.38193 0.0
H1476 H 0.88207 0.80998 0.40895 0.0
C1477 C 0.88065 0.75174 0.35598 0.0
C1478 C 0.89 0.77834 0.3482 0.0
H1479 H 0.86133 0.72635 0.38627 0.0
H1480 H 0.88068 0.7349 0.34176 0.0
C1481 C 0.89143 0.79877 0.36826 0.0
C1482 C 0.54837 0.49681 0.56456 0.0
C1483 C 0.55065 0.47937 0.58717 0.0
H1484 H 0.56691 0.51312 0.5282 0.0
C1485 C 0.5704 0.46035 0.58718 0.0
H1486 H 0.53286 0.51116 0.56366 0.0
C1487 C 0.59046 0.46231 0.5676 0.0
C1488 C 0.58997 0.48208 0.54677 0.0
H1489 H 0.57232 0.44654 0.6043 0.0
H1490 H 0.60729 0.44969 0.56987 0.0
C1491 C 0.56791 0.49811 0.5444 0.0
C1492 C 0.9186 0.35528 0.02915 0.0
C1493 C 0.91263 0.32791 0.02181 0.0
H1494 H 0.91036 0.39725 0.02297 0.0
C1495 C 0.88997 0.32174 0.00587 0.0
H1496 H 0.9361 0.36067 0.04124 0.0
C1497 C 0.8754 0.34281 0.9949 0.0
C1498 C 0.88344 0.37037 0.99968 0.0
H1499 H 0.88481 0.30088 1.00014 0.0
H1500 H 0.85885 0.3376 0.98146 0.0
C1501 C 0.90436 0.37627 0.01802 0.0
C1502 C 0.60785 0.60861 0.45892 0.0
C1503 C 0.60456 0.58423 0.47408 0.0
H1504 H 0.59916 0.65057 0.45499 0.0
C1505 C 0.59001 0.58466 0.49858 0.0
H1506 H 0.61876 0.60939 0.43997 0.0
C1507 C 0.57817 0.60846 0.507 0.0
C1508 C 0.58054 0.63242 0.4911 0.0
H1509 H 0.58768 0.56656 0.5113 0.0
H1510 H 0.56644 0.60777 0.52542 0.0
C1511 C 0.59633 0.63235 0.46748 0.0
C1512 C 0.06983 0.11947 0.25384 0.0
C1513 C 0.05568 0.11043 0.27708 0.0
H1514 H 0.08781 0.15375 0.232 0.0
C1515 C 0.04603 0.13027 0.29475 0.0
H1516 H 0.07767 0.10484 0.23993 0.0
C1517 C 0.05156 0.15836 0.29005 0.0
C1518 C 0.06719 0.16724 0.26777 0.0
H1519 H 0.03488 0.12399 0.31277 0.0
H1520 H 0.04489 0.17301 0.30463 0.0
C1521 C 0.07569 0.1475 0.24938 0.0
C1522 C 0.13666 0.77552 0.54286 0.0
C1523 C 0.14496 0.75135 0.53053 0.0
H1524 H 0.10428 0.79862 0.55666 0.0
C1525 C 0.12462 0.73157 0.52326 0.0
H1526 H 0.1508 0.79115 0.5501 0.0
C1527 C 0.09769 0.73607 0.52714 0.0
C1528 C 0.08978 0.76012 0.53933 0.0
H1529 H 0.12884 0.71195 0.51515 0.0
H1530 H 0.08297 0.7203 0.52109 0.0
C1531 C 0.10965 0.77974 0.54726 0.0
C1532 C 0.47574 0.89354 0.78695 0.0
C1533 C 0.46432 0.91267 0.7695 0.0
H1534 H 0.47824 0.85123 0.79835 0.0
C1535 C 0.4482 0.90273 0.74799 0.0
H1536 H 0.48824 0.90057 0.80376 0.0
C1537 C 0.44221 0.87449 0.74517 0.0
C1538 C 0.45254 0.85544 0.76348 0.0
H1539 H 0.43891 0.91683 0.73439 0.0
H1540 H 0.42859 0.86756 0.72923 0.0
C1541 C 0.47012 0.86527 0.78383 0.0
C1542 C 0.40056 0.24505 0.0375 0.0
C1543 C 0.39043 0.25788 0.01424 0.0
H1544 H 0.4342 0.23076 0.05847 0.0
C1545 C 0.40844 0.26565 0.99345 0.0
H1546 H 0.3874 0.23771 0.0536 0.0
C1547 C 0.43583 0.2628 0.9967 0.0
C1548 C 0.44624 0.25067 0.02038 0.0
H1549 H 0.40139 0.27419 0.97457 0.0
H1550 H 0.44863 0.27039 0.98043 0.0
C1551 C 0.42782 0.24136 0.04044 0.0
C1552 C 0.26117 0.02309 0.12682 0.0
C1553 C 0.28046 0.02537 0.14787 0.0
H1554 H 0.25275 0.01668 0.08434 0.0
C1555 C 0.3073 0.02643 0.13977 0.0
H1556 H 0.24026 0.02343 0.13122 0.0
C1557 C 0.31438 0.02351 0.11223 0.0
C1558 C 0.29497 0.01999 0.09171 0.0
H1559 H 0.3231 0.02909 0.15446 0.0
H1560 H 0.33521 0.02342 0.10696 0.0
C1561 C 0.26828 0.02003 0.09939 0.0
C1562 C 0.2037 0.06458 0.38039 0.0
C1563 C 0.21905 0.04771 0.39665 0.0
H1564 H 0.19378 0.07863 0.34087 0.0
C1565 C 0.23881 0.03329 0.38354 0.0
H1566 H 0.1886 0.07653 0.38939 0.0
C1567 C 0.24267 0.03546 0.35504 0.0
C1568 C 0.22677 0.05199 0.33885 0.0
H1569 H 0.25089 0.01983 0.39518 0.0
H1570 H 0.25824 0.02435 0.34579 0.0
C1571 C 0.20707 0.0662 0.35219 0.0
C1572 C 0.21847 0.98601 0.63868 0.0
C1573 C 0.24492 0.98447 0.64761 0.0
H1574 H 0.19201 0.99246 0.60514 0.0
C1575 C 0.26479 0.98536 0.62717 0.0
H1576 H 0.20215 0.9842 0.65278 0.0
C1577 C 0.25882 0.99 0.59963 0.0
C1578 C 0.23263 0.99287 0.5912 0.0
H1579 H 0.28532 0.98271 0.6321 0.0
H1580 H 0.27495 0.99241 0.5852 0.0
C1581 C 0.2125 0.9904 0.61102 0.0
C1582 C 0.27489 0.94772 0.86067 0.0
C1583 C 0.28732 0.96555 0.84128 0.0
H1584 H 0.27058 0.93647 0.90301 0.0
C1585 C 0.30363 0.98766 0.85084 0.0
H1586 H 0.26208 0.93054 0.85401 0.0
C1587 C 0.30867 0.99081 0.87886 0.0
C1588 C 0.29716 0.97228 0.89813 0.0
H1589 H 0.31364 1.00164 0.83657 0.0
H1590 H 0.32237 0.00729 0.88546 0.0
C1591 C 0.27957 0.95116 0.88876 0.0
C1592 C 0.15206 0.23955 0.98626 0.0
C1593 C 0.13758 0.2582 1.00113 0.0
H1594 H 0.18996 0.22908 0.97097 0.0
C1595 C 0.15139 0.2821 0.01075 0.0
H1596 H 0.14231 0.22097 0.97838 0.0
C1597 C 0.17877 0.2866 0.00687 0.0
C1598 C 0.19355 0.26758 0.99287 0.0
H1599 H 0.14107 0.29747 0.02163 0.0
H1600 H 0.18843 0.3047 0.01583 0.0
C1601 C 0.17961 0.24415 0.98222 0.0
C1602 C 0.68315 0.24348 0.00349 0.0
C1603 C 0.69726 0.21991 0.00909 0.0
H1604 H 0.64534 0.26139 1.00013 0.0
C1605 C 0.68243 0.19559 0.01548 0.0
H1606 H 0.69358 0.26284 0.99898 0.0
C1607 C 0.65453 0.19509 0.01684 0.0
C1608 C 0.64067 0.2187 0.01112 0.0
H1609 H 0.69228 0.17724 0.02068 0.0
H1610 H 0.64386 0.17634 0.02305 0.0
C1611 C 0.65535 0.24279 0.00416 0.0
C1612 C 0.03959 0.36556 0.22246 0.0
C1613 C 0.06598 0.35933 0.21805 0.0
H1614 H 0.01175 0.39651 0.22616 0.0
C1615 C 0.08467 0.381 0.21238 0.0
H1616 H 0.02484 0.34951 0.22769 0.0
C1617 C 0.07731 0.4083 0.21176 0.0
C1618 C 0.05103 0.41484 0.21714 0.0
H1619 H 0.10533 0.37685 0.2095 0.0
H1620 H 0.09269 0.42406 0.20848 0.0
C1621 C 0.03225 0.3928 0.22197 0.0
C1622 C 0.88222 0.80913 0.52754 0.0
C1623 C 0.89666 0.78627 0.52084 0.0
H1624 H 0.84416 0.82569 0.5323 0.0
C1625 C 0.88261 0.76243 0.51216 0.0
H1626 H 0.89248 0.82766 0.53492 0.0
C1627 C 0.85482 0.76123 0.51082 0.0
C1628 C 0.84011 0.78392 0.51788 0.0
H1629 H 0.89307 0.74434 0.50739 0.0
H1630 H 0.84487 0.74209 0.50478 0.0
C1631 C 0.85436 0.80804 0.52592 0.0
C1632 C 0.346 0.76261 0.53463 0.0
C1633 C 0.33248 0.7463 0.515 0.0
H1634 H 0.38314 0.78083 0.54849 0.0
C1635 C 0.34672 0.73716 0.49261 0.0
H1636 H 0.33552 0.76958 0.55232 0.0
C1637 C 0.37419 0.74324 0.49055 0.0
C1638 C 0.38812 0.75847 0.51094 0.0
H1639 H 0.33689 0.72404 0.47754 0.0
H1640 H 0.38473 0.73459 0.47375 0.0
C1641 C 0.3734 0.76873 0.53259 0.0
C1642 C 0.98273 0.90347 0.26609 0.0
C1643 C 0.00905 0.91421 0.26888 0.0
H1644 H 0.95661 0.8677 0.26081 0.0
C1645 C 0.02906 0.89517 0.27168 0.0
H1646 H 0.9664 0.91662 0.26475 0.0
C1647 C 0.02332 0.8669 0.2694 0.0
C1648 C 0.99729 0.85655 0.26499 0.0
H1649 H 0.0495 0.90189 0.27538 0.0
H1650 H 0.0394 0.85317 0.27029 0.0
C1651 C 0.97698 0.87512 0.26405 0.0
C1652 C 0.504 0.12817 0.77536 0.0
C1653 C 0.51811 0.10833 0.76163 0.0
H1654 H 0.4982 0.17019 0.78248 0.0
C1655 C 0.53925 0.11761 0.74498 0.0
H1656 H 0.48798 0.12184 0.78904 0.0
C1657 C 0.54521 0.14575 0.74115 0.0
C1658 C 0.52943 0.16588 0.7526 0.0
H1659 H 0.55055 0.10336 0.73376 0.0
H1660 H 0.56219 0.15144 0.72859 0.0
C1661 C 0.5097 0.15635 0.77118 0.0
C1662 C 0.54554 0.38213 0.72665 0.0
C1663 C 0.53344 0.36214 0.70938 0.0
H1664 H 0.54902 0.42411 0.73875 0.0
C1665 C 0.51393 0.37029 0.69108 0.0
H1666 H 0.56034 0.37653 0.74138 0.0
C1667 C 0.50763 0.39792 0.68928 0.0
C1668 C 0.5204 0.41816 0.70598 0.0
H1669 H 0.50432 0.35553 0.67739 0.0
H1670 H 0.49339 0.40349 0.674 0.0
C1671 C 0.53911 0.40959 0.72505 0.0
C1672 C 0.90026 0.22492 0.98697 0.0
C1673 C 0.88967 0.24822 0.97543 0.0
H1674 H 0.93392 0.20262 0.99545 0.0
C1675 C 0.90766 0.26733 0.96247 0.0
H1676 H 0.88748 0.20929 0.99666 0.0
C1677 C 0.935 0.26319 0.96113 0.0
C1678 C 0.94561 0.23984 0.97276 0.0
H1679 H 0.90086 0.28599 0.9537 0.0
H1680 H 0.94777 0.27881 0.95145 0.0
C1681 C 0.92751 0.22088 0.98578 0.0
C1682 C 0.97184 0.64599 0.21841 0.0
C1683 C 0.99604 0.6614 0.21986 0.0
H1684 H 0.95179 0.60653 0.21752 0.0
C1685 C 0.01959 0.64744 0.22161 0.0
H1686 H 0.9534 0.65619 0.21814 0.0
C1687 C 0.01889 0.61864 0.22072 0.0
C1688 C 0.99455 0.60311 0.21865 0.0
H1689 H 0.03854 0.65883 0.22324 0.0
H1690 H 0.03747 0.60864 0.22104 0.0
C1691 C 0.97104 0.61739 0.2181 0.0
C1692 C 0.60139 0.73628 0.49107 0.0
C1693 C 0.59066 0.76103 0.4983 0.0
H1694 H 0.63641 0.71438 0.48497 0.0
C1695 C 0.60809 0.78338 0.50514 0.0
H1696 H 0.58844 0.71866 0.48603 0.0
C1697 C 0.63572 0.78096 0.50481 0.0
C1698 C 0.64653 0.75618 0.49736 0.0
H1699 H 0.60031 0.80275 0.51071 0.0
H1700 H 0.64863 0.79869 0.50965 0.0
C1701 C 0.6289 0.73385 0.49064 0.0
C1702 C 0.70815 0.51729 0.39043 0.0
C1703 C 0.72533 0.52596 0.41182 0.0
H1704 H 0.70227 0.51307 0.34721 0.0
C1705 C 0.74993 0.53888 0.40496 0.0
H1706 H 0.68926 0.5067 0.395 0.0
C1707 C 0.75713 0.543 0.37754 0.0
C1708 C 0.7401 0.53404 0.3561 0.0
H1709 H 0.76414 0.54471 0.42072 0.0
H1710 H 0.77652 0.55252 0.37309 0.0
C1711 C 0.7155 0.5211 0.363 0.0
C1712 C 0.74128 0.47064 0.61496 0.0
C1713 C 0.7337 0.49406 0.60106 0.0
H1714 H 0.74818 0.45178 0.65366 0.0
C1715 C 0.73065 0.51815 0.61607 0.0
H1716 H 0.74313 0.45166 0.60404 0.0
C1717 C 0.73338 0.51823 0.64466 0.0
C1718 C 0.73908 0.49415 0.65866 0.0
H1719 H 0.72408 0.53628 0.60592 0.0
H1720 H 0.729 0.53641 0.6559 0.0
C1721 C 0.74403 0.47071 0.64338 0.0
C1722 C 0.81807 0.48597 0.88832 0.0
C1723 C 0.79951 0.47685 0.90862 0.0
H1724 H 0.8256 0.49505 0.84605 0.0
C1725 C 0.7765 0.46229 0.89899 0.0
H1726 H 0.83761 0.49427 0.89373 0.0
C1727 C 0.77024 0.46142 0.87105 0.0
C1728 C 0.78722 0.47399 0.85136 0.0
H1729 H 0.76288 0.45151 0.91255 0.0
H1730 H 0.75146 0.45159 0.8649 0.0
C1731 C 0.81175 0.48535 0.86033 0.0
C1732 C 0.79936 0.50637 0.15154 0.0
C1733 C 0.78645 0.52902 0.16157 0.0
H1734 H 0.81569 0.48671 0.11689 0.0
C1735 C 0.77821 0.54852 0.14238 0.0
H1736 H 0.80555 0.4905 0.16517 0.0
C1737 C 0.78348 0.54586 0.11437 0.0
C1738 C 0.79747 0.52388 0.10483 0.0
H1739 H 0.76861 0.56655 0.149 0.0
H1740 H 0.77772 0.56164 0.10036 0.0
C1741 C 0.80497 0.50399 0.1237 0.0
C1742 C 0.46756 0.64258 0.74606 0.0
C1743 C 0.45274 0.65906 0.72886 0.0
H1744 H 0.48447 0.60384 0.75263 0.0
C1745 C 0.44586 0.64869 0.70287 0.0
H1746 H 0.47571 0.6504 0.76499 0.0
C1747 C 0.45386 0.62297 0.69437 0.0
C1748 C 0.46811 0.60631 0.712 0.0
H1749 H 0.4347 0.66078 0.68884 0.0
H1750 H 0.44932 0.61636 0.67377 0.0
C1751 C 0.47369 0.61608 0.7384 0.0
loop_
_geom_bond_atom_site_label_1
_geom_bond_atom_site_label_2
_geom_bond_distance
_geom_bond_site_symmetry_2
_ccdc_geom_bond_type
C0 C1 1.443 . S
C0 N4 1.376 . S
C0 C38 1.389 . S
C1 C0 1.443 . S
C1 C2 1.340 . S
C1 H41 0.951 . S
C2 C1 1.340 . S
C2 C3 1.439 . S
C2 H42 0.950 . S
C3 C2 1.439 . S
C3 N4 1.374 . S
C3 C37 1.395 . S
N4 C0 1.376 . S
N4 C3 1.374 . S
N4 Co5 2.008 . S
Co5 N4 2.008 . S
Co5 N6 1.995 . S
Co5 N11 2.008 . S
Co5 N16 1.995 . S
Co5 N21 2.282 . S
Co5 N27 2.282 . S
N6 Co5 1.995 . S
N6 C7 1.376 . S
N6 C10 1.383 . S
C7 N6 1.376 . S
C7 C8 1.446 . S
C7 C37 1.391 . S
C8 C7 1.446 . S
C8 C9 1.339 . S
C8 H43 0.949 . S
C9 C8 1.339 . S
C9 C10 1.439 . S
C9 H44 0.950 . S
C10 N6 1.383 . S
C10 C9 1.439 . S
C10 C39 1.392 . S
N11 Co5 2.008 . S
N11 C12 1.376 . S
N11 C15 1.374 . S
C12 N11 1.376 . S
C12 C13 1.443 . S
C12 C39 1.389 . S
C13 C12 1.443 . S
C13 C14 1.340 . S
C13 H45 0.951 . S
C14 C13 1.340 . S
C14 C15 1.439 . S
C14 H46 0.950 . S
C15 N11 1.374 . S
C15 C14 1.439 . S
C15 C40 1.395 . S
N16 Co5 1.995 . S
N16 C17 1.376 . S
N16 C20 1.383 . S
C17 N16 1.376 . S
C17 C18 1.446 . S
C17 C40 1.391 . S
C18 C17 1.446 . S
C18 C19 1.339 . S
C18 H47 0.949 . S
C19 C18 1.339 . S
C19 C20 1.439 . S
C19 H48 0.950 . S
C20 N16 1.383 . S
C20 C19 1.439 . S
C20 C38 1.392 . S
N21 Co5 2.282 . S
N21 C24 1.332 . S
N21 C26 1.332 . S
C22 C23 1.386 . S
C22 C25 1.388 . S
C23 C22 1.386 . S
C23 C24 1.382 . S
C23 H49 0.950 . S
C24 N21 1.332 . S
C24 C23 1.382 . S
C24 H35 0.952 . S
C25 C22 1.388 . S
C25 C26 1.382 . S
C25 H50 0.950 . S
C26 N21 1.332 . S
C26 C25 1.382 . S
C26 H36 0.948 . S
N27 Co5 2.282 . S
N27 C31 1.332 . S
N27 C32 1.332 . S
C28 C29 1.388 . S
C28 C32 1.382 . S
C28 H51 0.950 . S
C29 C28 1.388 . S
C29 C30 1.386 . S
C30 C29 1.386 . S
C30 C31 1.382 . S
C30 H52 0.950 . S
C31 N27 1.332 . S
C31 C30 1.382 . S
C31 H33 0.952 . S
C32 N27 1.332 . S
C32 C28 1.382 . S
C32 H34 0.948 . S
H33 C31 0.952 . S
H34 C32 0.948 . S
H35 C24 0.952 . S
H36 C26 0.948 . S
C37 C3 1.395 . S
C37 C7 1.391 . S
C38 C0 1.389 . S
C38 C20 1.392 . S
C39 C10 1.392 . S
C39 C12 1.389 . S
C40 C15 1.395 . S
C40 C17 1.391 . S
H41 C1 0.951 . S
H42 C2 0.950 . S
H43 C8 0.949 . S
H44 C9 0.950 . S
H45 C13 0.951 . S
H46 C14 0.950 . S
H47 C18 0.949 . S
H48 C19 0.950 . S
H49 C23 0.950 . S
H50 C25 0.950 . S
H51 C28 0.950 . S
H52 C30 0.950 . S
C53 C54 1.443 . S
C53 N57 1.376 . S
C53 C91 1.389 . S
C54 C53 1.443 . S
C54 C55 1.340 . S
C54 H94 0.951 . S
C55 C54 1.340 . S
C55 C56 1.439 . S
C55 H95 0.950 . S
C56 C55 1.439 . S
C56 N57 1.374 . S
C56 C90 1.395 1_655 S
N57 C53 1.376 . S
N57 C56 1.374 . S
N57 Co58 2.008 1_655 S
Co58 N57 2.008 1_455 S
Co58 N59 1.995 . S
Co58 N64 2.008 . S
Co58 N69 1.995 1_455 S
Co58 N74 2.282 . S
Co58 N80 2.282 1_455 S
N59 Co58 1.995 . S
N59 C60 1.376 . S
N59 C63 1.383 . S
C60 N59 1.376 . S
C60 C61 1.446 . S
C60 C90 1.391 . S
C61 C60 1.446 . S
C61 C62 1.339 . S
C61 H96 0.949 . S
C62 C61 1.339 . S
C62 C63 1.439 . S
C62 H97 0.950 . S
C63 N59 1.383 . S
C63 C62 1.439 . S
C63 C92 1.392 . S
N64 Co58 2.008 . S
N64 C65 1.376 . S
N64 C68 1.374 . S
C65 N64 1.376 . S
C65 C66 1.443 . S
C65 C92 1.389 . S
C66 C65 1.443 . S
C66 C67 1.340 . S
C66 H98 0.951 . S
C67 C66 1.340 . S
C67 C68 1.439 . S
C67 H99 0.950 . S
C68 N64 1.374 . S
C68 C67 1.439 . S
C68 C93 1.395 1_455 S
N69 Co58 1.995 1_655 S
N69 C70 1.376 . S
N69 C73 1.383 . S
C70 N69 1.376 . S
C70 C71 1.446 . S
C70 C93 1.391 . S
C71 C70 1.446 . S
C71 C72 1.339 . S
C71 H100 0.949 . S
C72 C71 1.339 . S
C72 C73 1.439 . S
C72 H101 0.950 . S
C73 N69 1.383 . S
C73 C72 1.439 . S
C73 C91 1.392 . S
N74 Co58 2.282 . S
N74 C77 1.332 . S
N74 C79 1.332 . S
C75 C76 1.386 . S
C75 C78 1.388 . S
C76 C75 1.386 . S
C76 C77 1.382 . S
C76 H102 0.950 . S
C77 N74 1.332 . S
C77 C76 1.382 . S
C77 H88 0.952 1_455 S
C78 C75 1.388 . S
C78 C79 1.382 . S
C78 H103 0.950 . S
C79 N74 1.332 . S
C79 C78 1.382 . S
C79 H89 0.948 . S
N80 Co58 2.282 1_655 S
N80 C84 1.332 . S
N80 C85 1.332 . S
C81 C82 1.388 . S
C81 C85 1.382 . S
C81 H104 0.950 . S
C82 C81 1.388 . S
C82 C83 1.386 . S
C83 C82 1.386 . S
C83 C84 1.382 . S
C83 H105 0.950 . S
C84 N80 1.332 . S
C84 C83 1.382 . S
C84 H86 0.952 1_655 S
C85 N80 1.332 . S
C85 C81 1.382 . S
C85 H87 0.948 . S
H86 C84 0.952 1_455 S
H87 C85 0.948 . S
H88 C77 0.952 1_655 S
H89 C79 0.948 . S
C90 C56 1.395 1_455 S
C90 C60 1.391 . S
C91 C53 1.389 . S
C91 C73 1.392 . S
C92 C63 1.392 . S
C92 C65 1.389 . S
C93 C68 1.395 1_655 S
C93 C70 1.391 . S
H94 C54 0.951 . S
H95 C55 0.950 . S
H96 C61 0.949 . S
H97 C62 0.950 . S
H98 C66 0.951 . S
H99 C67 0.950 . S
H100 C71 0.949 . S
H101 C72 0.950 . S
H102 C76 0.950 . S
H103 C78 0.950 . S
H104 C81 0.950 . S
H105 C83 0.950 . S
C106 C107 1.443 . S
C106 N110 1.376 . S
C106 C144 1.389 . S
C107 C106 1.443 . S
C107 C108 1.340 . S
C107 H147 0.951 . S
C108 C107 1.340 . S
C108 C109 1.439 . S
C108 H148 0.950 . S
C109 C108 1.439 . S
C109 N110 1.374 . S
C109 C143 1.395 . S
N110 C106 1.376 . S
N110 C109 1.374 . S
N110 Co111 2.008 . S
Co111 N110 2.008 . S
Co111 N112 1.995 . S
Co111 N117 2.008 . S
Co111 N122 1.995 . S
Co111 N127 2.282 . S
Co111 N133 2.282 . S
N112 Co111 1.995 . S
N112 C113 1.376 . S
N112 C116 1.383 . S
C113 N112 1.376 . S
C113 C114 1.446 . S
C113 C143 1.391 . S
C114 C113 1.446 . S
C114 C115 1.339 . S
C114 H149 0.949 . S
C115 C114 1.339 . S
C115 C116 1.439 . S
C115 H150 0.950 . S
C116 N112 1.383 . S
C116 C115 1.439 . S
C116 C145 1.392 . S
N117 Co111 2.008 . S
N117 C118 1.376 . S
N117 C121 1.374 . S
C118 N117 1.376 . S
C118 C119 1.443 . S
C118 C145 1.389 . S
C119 C118 1.443 . S
C119 C120 1.340 . S
C119 H151 0.951 . S
C120 C119 1.340 . S
C120 C121 1.439 . S
C120 H152 0.950 . S
C121 N117 1.374 . S
C121 C120 1.439 . S
C121 C146 1.395 . S
N122 Co111 1.995 . S
N122 C123 1.376 . S
N122 C126 1.383 . S
C123 N122 1.376 . S
C123 C124 1.446 . S
C123 C146 1.391 . S
C124 C123 1.446 . S
C124 C125 1.339 . S
C124 H153 0.949 . S
C125 C124 1.339 . S
C125 C126 1.439 . S
C125 H154 0.950 . S
C126 N122 1.383 . S
C126 C125 1.439 . S
C126 C144 1.392 . S
N127 Co111 2.282 . S
N127 C130 1.332 . S
N127 C132 1.332 . S
C128 C129 1.386 . S
C128 C131 1.388 . S
C129 C128 1.386 . S
C129 C130 1.382 . S
C129 H155 0.950 . S
C130 N127 1.332 . S
C130 C129 1.382 . S
C130 H141 0.952 . S
C131 C128 1.388 . S
C131 C132 1.382 . S
C131 H156 0.950 . S
C132 N127 1.332 . S
C132 C131 1.382 . S
C132 H142 0.948 . S
N133 Co111 2.282 . S
N133 C137 1.332 . S
N133 C138 1.332 . S
C134 C135 1.388 . S
C134 C138 1.382 . S
C134 H157 0.950 . S
C135 C134 1.388 . S
C135 C136 1.386 . S
C136 C135 1.386 . S
C136 C137 1.382 . S
C136 H158 0.950 . S
C137 N133 1.332 . S
C137 C136 1.382 . S
C137 H139 0.952 . S
C138 N133 1.332 . S
C138 C134 1.382 . S
C138 H140 0.948 . S
H139 C137 0.952 . S
H140 C138 0.948 . S
H141 C130 0.952 . S
H142 C132 0.948 . S
C143 C109 1.395 . S
C143 C113 1.391 . S
C144 C106 1.389 . S
C144 C126 1.392 . S
C145 C116 1.392 . S
C145 C118 1.389 . S
C146 C121 1.395 . S
C146 C123 1.391 . S
H147 C107 0.951 . S
H148 C108 0.950 . S
H149 C114 0.949 . S
H150 C115 0.950 . S
H151 C119 0.951 . S
H152 C120 0.950 . S
H153 C124 0.949 . S
H154 C125 0.950 . S
H155 C129 0.950 . S
H156 C131 0.950 . S
H157 C134 0.950 . S
H158 C136 0.950 . S
C159 C160 1.443 . S
C159 N163 1.376 . S
C159 C197 1.389 . S
C160 C159 1.443 . S
C160 C161 1.340 . S
C160 H200 0.951 . S
C161 C160 1.340 . S
C161 C162 1.439 . S
C161 H201 0.950 . S
C162 C161 1.439 . S
C162 N163 1.374 . S
C162 C196 1.395 . S
N163 C159 1.376 . S
N163 C162 1.374 . S
N163 Co164 2.008 . S
Co164 N163 2.008 . S
Co164 N165 1.995 . S
Co164 N170 2.008 1_556 S
Co164 N175 1.995 1_556 S
Co164 N180 2.282 1_556 S
Co164 N186 2.282 . S
N165 Co164 1.995 . S
N165 C166 1.376 . S
N165 C169 1.383 . S
C166 N165 1.376 . S
C166 C167 1.446 . S
C166 C196 1.391 . S
C167 C166 1.446 . S
C167 C168 1.339 . S
C167 H202 0.949 . S
C168 C167 1.339 . S
C168 C169 1.439 . S
C168 H203 0.950 . S
C169 N165 1.383 . S
C169 C168 1.439 . S
C169 C198 1.392 1_556 S
N170 Co164 2.008 1_554 S
N170 C171 1.376 . S
N170 C174 1.374 . S
C171 N170 1.376 . S
C171 C172 1.443 . S
C171 C198 1.389 . S
C172 C171 1.443 . S
C172 C173 1.340 . S
C172 H204 0.951 . S
C173 C172 1.340 . S
C173 C174 1.439 . S
C173 H205 0.950 . S
C174 N170 1.374 . S
C174 C173 1.439 . S
C174 C199 1.395 . S
N175 Co164 1.995 1_554 S
N175 C176 1.376 . S
N175 C179 1.383 . S
C176 N175 1.376 . S
C176 C177 1.446 . S
C176 C199 1.391 . S
C177 C176 1.446 . S
C177 C178 1.339 . S
C177 H206 0.949 . S
C178 C177 1.339 . S
C178 C179 1.439 . S
C178 H207 0.950 . S
C179 N175 1.383 . S
C179 C178 1.439 . S
C179 C197 1.392 1_554 S
N180 Co164 2.282 1_554 S
N180 C183 1.332 . S
N180 C185 1.332 . S
C181 C182 1.386 . S
C181 C184 1.388 . S
C182 C181 1.386 . S
C182 C183 1.382 . S
C182 H208 0.950 . S
C183 N180 1.332 . S
C183 C182 1.382 . S
C183 H194 0.952 . S
C184 C181 1.388 . S
C184 C185 1.382 . S
C184 H209 0.950 . S
C185 N180 1.332 . S
C185 C184 1.382 . S
C185 H195 0.948 1_554 S
N186 Co164 2.282 . S
N186 C190 1.332 . S
N186 C191 1.332 . S
C187 C188 1.388 . S
C187 C191 1.382 . S
C187 H210 0.950 . S
C188 C187 1.388 . S
C188 C189 1.386 . S
C189 C188 1.386 . S
C189 C190 1.382 . S
C189 H211 0.950 . S
C190 N186 1.332 . S
C190 C189 1.382 . S
C190 H192 0.952 . S
C191 N186 1.332 . S
C191 C187 1.382 . S
C191 H193 0.948 1_556 S
H192 C190 0.952 . S
H193 C191 0.948 1_554 S
H194 C183 0.952 . S
H195 C185 0.948 1_556 S
C196 C162 1.395 . S
C196 C166 1.391 . S
C197 C159 1.389 . S
C197 C179 1.392 1_556 S
C198 C169 1.392 1_554 S
C198 C171 1.389 . S
C199 C174 1.395 . S
C199 C176 1.391 . S
H200 C160 0.951 . S
H201 C161 0.950 . S
H202 C167 0.949 . S
H203 C168 0.950 . S
H204 C172 0.951 . S
H205 C173 0.950 . S
H206 C177 0.949 . S
H207 C178 0.950 . S
H208 C182 0.950 . S
H209 C184 0.950 . S
H210 C187 0.950 . S
H211 C189 0.950 . S
C212 C213 1.443 . S
C212 N216 1.370 1_565 S
C212 C250 1.389 . S
C213 C212 1.443 . S
C213 C214 1.340 1_565 S
C213 H253 0.951 . S
C214 C213 1.340 1_545 S
C214 C215 1.439 . S
C214 H254 0.950 . S
C215 C214 1.439 . S
C215 N216 1.379 . S
C215 C249 1.395 . S
N216 C212 1.370 1_545 S
N216 C215 1.379 . S
N216 Co217 2.007 1_645 S
Co217 N216 2.007 1_465 S
Co217 N218 1.995 1_465 S
Co217 N223 2.007 . S
Co217 N228 1.995 . S
Co217 N233 2.282 1_565 S
Co217 N239 2.282 1_455 S
N218 Co217 1.995 1_645 S
N218 C219 1.376 . S
N218 C222 1.383 1_655 S
C219 N218 1.376 . S
C219 C220 1.446 . S
C219 C249 1.391 . S
C220 C219 1.446 . S
C220 C221 1.339 1_655 S
C220 H255 0.949 . S
C221 C220 1.339 1_455 S
C221 C222 1.439 . S
C221 H256 0.950 . S
C222 N218 1.383 1_455 S
C222 C221 1.439 . S
C222 C251 1.392 . S
N223 Co217 2.007 . S
N223 C224 1.366 1_565 S
N223 C227 1.383 . S
C224 N223 1.366 1_545 S
C224 C225 1.443 . S
C224 C251 1.389 . S
C225 C224 1.443 . S
C225 C226 1.340 1_545 S
C225 H257 0.951 . S
C226 C225 1.340 1_565 S
C226 C227 1.439 . S
C226 H258 0.950 . S
C227 N223 1.383 . S
C227 C226 1.439 . S
C227 C252 1.395 . S
N228 Co217 1.995 . S
N228 C229 1.376 . S
N228 C232 1.383 1_455 S
C229 N228 1.376 . S
C229 C230 1.446 . S
C229 C252 1.391 . S
C230 C229 1.446 . S
C230 C231 1.339 1_455 S
C230 H259 0.949 . S
C231 C230 1.339 1_655 S
C231 C232 1.439 . S
C231 H260 0.950 . S
C232 N228 1.383 1_655 S
C232 C231 1.439 . S
C232 C250 1.392 . S
N233 Co217 2.282 1_545 S
N233 C236 1.332 . S
N233 C238 1.332 . S
C234 C235 1.386 . S
C234 C237 1.388 . S
C235 C234 1.386 . S
C235 C236 1.382 . S
C235 H261 0.950 . S
C236 N233 1.332 . S
C236 C235 1.382 . S
C236 H247 0.952 . S
C237 C234 1.388 . S
C237 C238 1.382 . S
C237 H262 0.950 . S
C238 N233 1.332 . S
C238 C237 1.382 . S
C238 H248 0.948 1_455 S
N239 Co217 2.282 1_655 S
N239 C243 1.332 . S
N239 C244 1.332 . S
C240 C241 1.388 . S
C240 C244 1.382 . S
C240 H263 0.950 . S
C241 C240 1.388 . S
C241 C242 1.386 . S
C242 C241 1.386 . S
C242 C243 1.382 . S
C242 H264 0.950 . S
C243 N239 1.332 . S
C243 C242 1.382 . S
C243 H245 0.952 . S
C244 N239 1.332 . S
C244 C240 1.382 . S
C244 H246 0.948 1_655 S
H245 C243 0.952 . S
H246 C244 0.948 1_455 S
H247 C236 0.952 . S
H248 C238 0.948 1_655 S
C249 C215 1.395 . S
C249 C219 1.391 . S
C250 C212 1.389 . S
C250 C232 1.392 . S
C251 C222 1.392 . S
C251 C224 1.389 . S
C252 C227 1.395 . S
C252 C229 1.391 . S
H253 C213 0.951 . S
H254 C214 0.950 . S
H255 C220 0.949 . S
H256 C221 0.950 . S
H257 C225 0.951 . S
H258 C226 0.950 . S
H259 C230 0.949 . S
H260 C231 0.950 . S
H261 C235 0.950 . S
H262 C237 0.950 . S
H263 C240 0.950 . S
H264 C242 0.950 . S
C265 C266 1.443 . S
C265 N269 1.376 . S
C265 C303 1.389 . S
C266 C265 1.443 . S
C266 C267 1.340 . S
C266 H306 0.951 . S
C267 C266 1.340 . S
C267 C268 1.439 . S
C267 H307 0.950 . S
C268 C267 1.439 . S
C268 N269 1.374 . S
C268 C302 1.395 . S
N269 C265 1.376 . S
N269 C268 1.374 . S
N269 Co270 2.008 . S
Co270 N269 2.008 . S
Co270 N271 1.995 . S
Co270 N276 2.008 . S
Co270 N281 1.995 . S
Co270 N286 2.282 . S
Co270 N292 2.282 . S
N271 Co270 1.995 . S
N271 C272 1.376 . S
N271 C275 1.383 . S
C272 N271 1.376 . S
C272 C273 1.446 . S
C272 C302 1.391 . S
C273 C272 1.446 . S
C273 C274 1.339 . S
C273 H308 0.949 . S
C274 C273 1.339 . S
C274 C275 1.439 . S
C274 H309 0.950 . S
C275 N271 1.383 . S
C275 C274 1.439 . S
C275 C304 1.392 . S
N276 Co270 2.008 . S
N276 C277 1.376 . S
N276 C280 1.374 . S
C277 N276 1.376 . S
C277 C278 1.443 . S
C277 C304 1.389 . S
C278 C277 1.443 . S
C278 C279 1.340 . S
C278 H310 0.951 . S
C279 C278 1.340 . S
C279 C280 1.439 . S
C279 H311 0.950 . S
C280 N276 1.374 . S
C280 C279 1.439 . S
C280 C305 1.395 . S
N281 Co270 1.995 . S
N281 C282 1.376 . S
N281 C285 1.383 . S
C282 N281 1.376 . S
C282 C283 1.446 . S
C282 C305 1.391 . S
C283 C282 1.446 . S
C283 C284 1.339 . S
C283 H312 0.949 . S
C284 C283 1.339 . S
C284 C285 1.439 . S
C284 H313 0.950 . S
C285 N281 1.383 . S
C285 C284 1.439 . S
C285 C303 1.392 . S
N286 Co270 2.282 . S
N286 C289 1.332 . S
N286 C291 1.332 . S
C287 C288 1.386 . S
C287 C290 1.388 . S
C288 C287 1.386 . S
C288 C289 1.382 . S
C288 H314 0.950 . S
C289 N286 1.332 . S
C289 C288 1.382 . S
C289 H300 0.952 . S
C290 C287 1.388 . S
C290 C291 1.382 . S
C290 H315 0.950 . S
C291 N286 1.332 . S
C291 C290 1.382 . S
C291 H301 0.948 . S
N292 Co270 2.282 . S
N292 C296 1.332 . S
N292 C297 1.332 . S
C293 C294 1.388 . S
C293 C297 1.382 . S
C293 H316 0.950 . S
C294 C293 1.388 . S
C294 C295 1.386 . S
C295 C294 1.386 . S
C295 C296 1.382 . S
C295 H317 0.950 . S
C296 N292 1.332 . S
C296 C295 1.382 . S
C296 H298 0.952 . S
C297 N292 1.332 . S
C297 C293 1.382 . S
C297 H299 0.948 . S
H298 C296 0.952 . S
H299 C297 0.948 . S
H300 C289 0.952 . S
H301 C291 0.948 . S
C302 C268 1.395 . S
C302 C272 1.391 . S
C303 C265 1.389 . S
C303 C285 1.392 . S
C304 C275 1.392 . S
C304 C277 1.389 . S
C305 C280 1.395 . S
C305 C282 1.391 . S
H306 C266 0.951 . S
H307 C267 0.950 . S
H308 C273 0.949 . S
H309 C274 0.950 . S
H310 C278 0.951 . S
H311 C279 0.950 . S
H312 C283 0.949 . S
H313 C284 0.950 . S
H314 C288 0.950 . S
H315 C290 0.950 . S
H316 C293 0.950 . S
H317 C295 0.950 . S
C318 C319 1.443 . S
C318 N322 1.396 . S
C318 C356 1.389 . S
C319 C318 1.443 . S
C319 C320 1.328 1_545 S
C319 H359 0.951 . S
C320 C319 1.328 1_565 S
C320 C321 1.444 . S
C320 H360 0.956 . S
C321 C320 1.444 . S
C321 N322 1.359 1_565 S
C321 C355 1.395 . S
N322 C318 1.396 . S
N322 C321 1.359 1_545 S
N322 Co323 2.010 . S
Co323 N322 2.010 . S
Co323 N324 1.995 1_545 S
Co323 N329 2.009 1_545 S
Co323 N334 1.995 . S
Co323 N339 2.282 1_545 S
Co323 N345 2.282 . S
N324 Co323 1.995 1_565 S
N324 C325 1.376 . S
N324 C328 1.383 . S
C325 N324 1.376 . S
C325 C326 1.446 . S
C325 C355 1.391 . S
C326 C325 1.446 . S
C326 C327 1.339 . S
C326 H361 0.949 . S
C327 C326 1.339 . S
C327 C328 1.439 . S
C327 H362 0.950 . S
C328 N324 1.383 . S
C328 C327 1.439 . S
C328 C357 1.392 . S
N329 Co323 2.009 1_565 S
N329 C330 1.391 . S
N329 C333 1.363 1_565 S
C330 N329 1.391 . S
C330 C331 1.443 . S
C330 C357 1.389 . S
C331 C330 1.443 . S
C331 C332 1.323 1_565 S
C331 H363 0.951 . S
C332 C331 1.323 1_545 S
C332 C333 1.447 . S
C332 H364 0.959 . S
C333 N329 1.363 1_545 S
C333 C332 1.447 . S
C333 C358 1.395 . S
N334 Co323 1.995 . S
N334 C335 1.376 . S
N334 C338 1.383 . S
C335 N334 1.376 . S
C335 C336 1.446 . S
C335 C358 1.391 . S
C336 C335 1.446 . S
C336 C337 1.339 . S
C336 H365 0.949 . S
C337 C336 1.339 . S
C337 C338 1.439 . S
C337 H366 0.950 . S
C338 N334 1.383 . S
C338 C337 1.439 . S
C338 C356 1.392 . S
N339 Co323 2.282 1_565 S
N339 C342 1.332 . S
N339 C344 1.332 . S
C340 C341 1.386 . S
C340 C343 1.388 . S
C341 C340 1.386 . S
C341 C342 1.382 . S
C341 H367 0.950 . S
C342 N339 1.332 . S
C342 C341 1.382 . S
C342 H353 0.952 . S
C343 C340 1.388 . S
C343 C344 1.382 . S
C343 H368 0.950 . S
C344 N339 1.332 . S
C344 C343 1.382 . S
C344 H354 0.948 . S
N345 Co323 2.282 . S
N345 C349 1.332 . S
N345 C350 1.332 . S
C346 C347 1.388 . S
C346 C350 1.382 . S
C346 H369 0.950 . S
C347 C346 1.388 . S
C347 C348 1.386 . S
C348 C347 1.386 . S
C348 C349 1.382 . S
C348 H370 0.950 . S
C349 N345 1.332 . S
C349 C348 1.382 . S
C349 H351 0.952 . S
C350 N345 1.332 . S
C350 C346 1.382 . S
C350 H352 0.948 . S
H351 C349 0.952 . S
H352 C350 0.948 . S
H353 C342 0.952 . S
H354 C344 0.948 . S
C355 C321 1.395 . S
C355 C325 1.391 . S
C356 C318 1.389 . S
C356 C338 1.392 . S
C357 C328 1.392 . S
C357 C330 1.389 . S
C358 C333 1.395 . S
C358 C335 1.391 . S
H359 C319 0.951 . S
H360 C320 0.956 . S
H361 C326 0.949 . S
H362 C327 0.950 . S
H363 C331 0.951 . S
H364 C332 0.959 . S
H365 C336 0.949 . S
H366 C337 0.950 . S
H367 C341 0.950 . S
H368 C343 0.950 . S
H369 C346 0.950 . S
H370 C348 0.950 . S
C371 C372 1.443 . S
C371 N375 1.376 . S
C371 C409 1.389 . S
C372 C371 1.443 . S
C372 C373 1.340 . S
C372 H412 0.951 . S
C373 C372 1.340 . S
C373 C374 1.439 . S
C373 H413 0.950 . S
C374 C373 1.439 . S
C374 N375 1.374 . S
C374 C408 1.395 . S
N375 C371 1.376 . S
N375 C374 1.374 . S
N375 Co376 2.008 . S
Co376 N375 2.008 . S
Co376 N377 1.995 . S
Co376 N382 2.008 . S
Co376 N387 1.995 . S
Co376 N392 2.282 . S
Co376 N398 2.282 . S
N377 Co376 1.995 . S
N377 C378 1.376 . S
N377 C381 1.383 . S
C378 N377 1.376 . S
C378 C379 1.446 . S
C378 C408 1.391 . S
C379 C378 1.446 . S
C379 C380 1.339 . S
C379 H414 0.949 . S
C380 C379 1.339 . S
C380 C381 1.439 . S
C380 H415 0.950 . S
C381 N377 1.383 . S
C381 C380 1.439 . S
C381 C410 1.392 . S
N382 Co376 2.008 . S
N382 C383 1.376 . S
N382 C386 1.374 . S
C383 N382 1.376 . S
C383 C384 1.443 . S
C383 C410 1.389 . S
C384 C383 1.443 . S
C384 C385 1.340 . S
C384 H416 0.951 . S
C385 C384 1.340 . S
C385 C386 1.439 . S
C385 H417 0.950 . S
C386 N382 1.374 . S
C386 C385 1.439 . S
C386 C411 1.395 . S
N387 Co376 1.995 . S
N387 C388 1.376 . S
N387 C391 1.383 . S
C388 N387 1.376 . S
C388 C389 1.446 . S
C388 C411 1.391 . S
C389 C388 1.446 . S
C389 C390 1.339 . S
C389 H418 0.949 . S
C390 C389 1.339 . S
C390 C391 1.439 . S
C390 H419 0.950 . S
C391 N387 1.383 . S
C391 C390 1.439 . S
C391 C409 1.392 . S
N392 Co376 2.282 . S
N392 C395 1.332 . S
N392 C397 1.332 . S
C393 C394 1.386 . S
C393 C396 1.388 . S
C394 C393 1.386 . S
C394 C395 1.382 . S
C394 H420 0.950 . S
C395 N392 1.332 . S
C395 C394 1.382 . S
C395 H406 0.952 . S
C396 C393 1.388 . S
C396 C397 1.382 . S
C396 H421 0.950 . S
C397 N392 1.332 . S
C397 C396 1.382 . S
C397 H407 0.948 . S
N398 Co376 2.282 . S
N398 C402 1.332 . S
N398 C403 1.332 . S
C399 C400 1.388 . S
C399 C403 1.382 . S
C399 H422 0.950 . S
C400 C399 1.388 . S
C400 C401 1.386 . S
C401 C400 1.386 . S
C401 C402 1.382 . S
C401 H423 0.950 . S
C402 N398 1.332 . S
C402 C401 1.382 . S
C402 H404 0.952 . S
C403 N398 1.332 . S
C403 C399 1.382 . S
C403 H405 0.948 . S
H404 C402 0.952 . S
H405 C403 0.948 . S
H406 C395 0.952 . S
H407 C397 0.948 . S
C408 C374 1.395 . S
C408 C378 1.391 . S
C409 C371 1.389 . S
C409 C391 1.392 . S
C410 C381 1.392 . S
C410 C383 1.389 . S
C411 C386 1.395 . S
C411 C388 1.391 . S
H412 C372 0.951 . S
H413 C373 0.950 . S
H414 C379 0.949 . S
H415 C380 0.950 . S
H416 C384 0.951 . S
H417 C385 0.950 . S
H418 C389 0.949 . S
H419 C390 0.950 . S
H420 C394 0.950 . S
H421 C396 0.950 . S
H422 C399 0.950 . S
H423 C401 0.950 . S
C424 C425 1.443 . S
C424 N428 1.376 . S
C424 C462 1.389 . S
C425 C424 1.443 . S
C425 C426 1.340 . S
C425 H465 0.951 . S
C426 C425 1.340 . S
C426 C427 1.439 . S
C426 H466 0.950 . S
C427 C426 1.439 . S
C427 N428 1.374 . S
C427 C461 1.395 . S
N428 C424 1.376 . S
N428 C427 1.374 . S
N428 Co429 2.008 . S
Co429 N428 2.008 . S
Co429 N430 1.995 . S
Co429 N435 2.008 . S
Co429 N440 1.995 . S
Co429 N445 2.282 . S
Co429 N451 2.282 . S
N430 Co429 1.995 . S
N430 C431 1.376 . S
N430 C434 1.383 . S
C431 N430 1.376 . S
C431 C432 1.446 . S
C431 C461 1.391 . S
C432 C431 1.446 . S
C432 C433 1.339 . S
C432 H467 0.949 . S
C433 C432 1.339 . S
C433 C434 1.439 . S
C433 H468 0.950 . S
C434 N430 1.383 . S
C434 C433 1.439 . S
C434 C463 1.392 . S
N435 Co429 2.008 . S
N435 C436 1.376 . S
N435 C439 1.374 . S
C436 N435 1.376 . S
C436 C437 1.443 . S
C436 C463 1.389 . S
C437 C436 1.443 . S
C437 C438 1.340 . S
C437 H469 0.951 . S
C438 C437 1.340 . S
C438 C439 1.439 . S
C438 H470 0.950 . S
C439 N435 1.374 . S
C439 C438 1.439 . S
C439 C464 1.395 . S
N440 Co429 1.995 . S
N440 C441 1.376 . S
N440 C444 1.383 . S
C441 N440 1.376 . S
C441 C442 1.446 . S
C441 C464 1.391 . S
C442 C441 1.446 . S
C442 C443 1.339 . S
C442 H471 0.949 . S
C443 C442 1.339 . S
C443 C444 1.439 . S
C443 H472 0.950 . S
C444 N440 1.383 . S
C444 C443 1.439 . S
C444 C462 1.392 . S
N445 Co429 2.282 . S
N445 C448 1.332 . S
N445 C450 1.332 . S
C446 C447 1.386 . S
C446 C449 1.388 . S
C447 C446 1.386 . S
C447 C448 1.382 . S
C447 H473 0.950 . S
C448 N445 1.332 . S
C448 C447 1.382 . S
C448 H459 0.952 . S
C449 C446 1.388 . S
C449 C450 1.382 . S
C449 H474 0.950 . S
C450 N445 1.332 . S
C450 C449 1.382 . S
C450 H460 0.948 . S
N451 Co429 2.282 . S
N451 C455 1.332 . S
N451 C456 1.332 . S
C452 C453 1.388 . S
C452 C456 1.382 . S
C452 H475 0.950 . S
C453 C452 1.388 . S
C453 C454 1.386 . S
C454 C453 1.386 . S
C454 C455 1.382 . S
C454 H476 0.950 . S
C455 N451 1.332 . S
C455 C454 1.382 . S
C455 H457 0.952 . S
C456 N451 1.332 . S
C456 C452 1.382 . S
C456 H458 0.948 . S
H457 C455 0.952 . S
H458 C456 0.948 . S
H459 C448 0.952 . S
H460 C450 0.948 . S
C461 C427 1.395 . S
C461 C431 1.391 . S
C462 C424 1.389 . S
C462 C444 1.392 . S
C463 C434 1.392 . S
C463 C436 1.389 . S
C464 C439 1.395 . S
C464 C441 1.391 . S
H465 C425 0.951 . S
H466 C426 0.950 . S
H467 C432 0.949 . S
H468 C433 0.950 . S
H469 C437 0.951 . S
H470 C438 0.950 . S
H471 C442 0.949 . S
H472 C443 0.950 . S
H473 C447 0.950 . S
H474 C449 0.950 . S
H475 C452 0.950 . S
H476 C454 0.950 . S
C477 C478 1.443 . S
C477 N481 1.376 . S
C477 C515 1.389 . S
C478 C477 1.443 . S
C478 C479 1.340 . S
C478 H518 0.951 . S
C479 C478 1.340 . S
C479 C480 1.439 . S
C479 H519 0.950 . S
C480 C479 1.439 . S
C480 N481 1.374 . S
C480 C514 1.395 . S
N481 C477 1.376 . S
N481 C480 1.374 . S
N481 Co482 2.008 . S
Co482 N481 2.008 . S
Co482 N483 1.995 . S
Co482 N488 2.008 1_565 S
Co482 N493 1.995 1_565 S
Co482 N498 2.282 1_565 S
Co482 N504 2.282 . S
N483 Co482 1.995 . S
N483 C484 1.376 . S
N483 C487 1.383 . S
C484 N483 1.376 . S
C484 C485 1.446 . S
C484 C514 1.391 . S
C485 C484 1.446 . S
C485 C486 1.339 . S
C485 H520 0.949 . S
C486 C485 1.339 . S
C486 C487 1.439 . S
C486 H521 0.950 . S
C487 N483 1.383 . S
C487 C486 1.439 . S
C487 C516 1.392 1_565 S
N488 Co482 2.008 1_545 S
N488 C489 1.376 . S
N488 C492 1.374 . S
C489 N488 1.376 . S
C489 C490 1.443 . S
C489 C516 1.389 . S
C490 C489 1.443 . S
C490 C491 1.340 . S
C490 H522 0.951 . S
C491 C490 1.340 . S
C491 C492 1.439 . S
C491 H523 0.950 . S
C492 N488 1.374 . S
C492 C491 1.439 . S
C492 C517 1.395 . S
N493 Co482 1.995 1_545 S
N493 C494 1.376 . S
N493 C497 1.383 1_545 S
C494 N493 1.376 . S
C494 C495 1.446 . S
C494 C517 1.391 . S
C495 C494 1.446 . S
C495 C496 1.339 . S
C495 H524 0.949 . S
C496 C495 1.339 . S
C496 C497 1.439 1_545 S
C496 H525 0.950 . S
C497 N493 1.383 1_565 S
C497 C496 1.439 1_565 S
C497 C515 1.392 . S
N498 Co482 2.282 1_545 S
N498 C501 1.332 . S
N498 C503 1.332 . S
C499 C500 1.386 . S
C499 C502 1.388 . S
C500 C499 1.386 . S
C500 C501 1.382 . S
C500 H526 0.950 . S
C501 N498 1.332 . S
C501 C500 1.382 . S
C501 H512 0.952 . S
C502 C499 1.388 . S
C502 C503 1.382 . S
C502 H527 0.950 . S
C503 N498 1.332 . S
C503 C502 1.382 . S
C503 H513 0.948 1_545 S
N504 Co482 2.282 . S
N504 C508 1.332 . S
N504 C509 1.332 . S
C505 C506 1.388 . S
C505 C509 1.382 . S
C505 H528 0.950 . S
C506 C505 1.388 . S
C506 C507 1.386 . S
C507 C506 1.386 . S
C507 C508 1.382 . S
C507 H529 0.950 . S
C508 N504 1.332 . S
C508 C507 1.382 . S
C508 H510 0.952 . S
C509 N504 1.332 . S
C509 C505 1.382 . S
C509 H511 0.948 . S
H510 C508 0.952 . S
H511 C509 0.948 . S
H512 C501 0.952 . S
H513 C503 0.948 1_565 S
C514 C480 1.395 . S
C514 C484 1.391 . S
C515 C477 1.389 . S
C515 C497 1.392 . S
C516 C487 1.392 1_545 S
C516 C489 1.389 . S
C517 C492 1.395 . S
C517 C494 1.391 . S
H518 C478 0.951 . S
H519 C479 0.950 . S
H520 C485 0.949 . S
H521 C486 0.950 . S
H522 C490 0.951 . S
H523 C491 0.950 . S
H524 C495 0.949 . S
H525 C496 0.950 . S
H526 C500 0.950 . S
H527 C502 0.950 . S
H528 C505 0.950 . S
H529 C507 0.950 . S
C530 C531 1.443 . S
C530 N534 1.376 . S
C530 C568 1.389 . S
C531 C530 1.443 . S
C531 C532 1.340 . S
C531 H571 0.951 . S
C532 C531 1.340 . S
C532 C533 1.439 . S
C532 H572 0.950 . S
C533 C532 1.439 . S
C533 N534 1.374 . S
C533 C567 1.395 . S
N534 C530 1.376 . S
N534 C533 1.374 . S
N534 Co535 2.008 . S
Co535 N534 2.008 . S
Co535 N536 1.995 . S
Co535 N541 2.008 . S
Co535 N546 1.995 . S
Co535 N551 2.282 . S
Co535 N557 2.282 . S
N536 Co535 1.995 . S
N536 C537 1.376 . S
N536 C540 1.383 . S
C537 N536 1.376 . S
C537 C538 1.446 . S
C537 C567 1.391 . S
C538 C537 1.446 . S
C538 C539 1.339 . S
C538 H573 0.949 . S
C539 C538 1.339 . S
C539 C540 1.439 . S
C539 H574 0.950 . S
C540 N536 1.383 . S
C540 C539 1.439 . S
C540 C569 1.392 . S
N541 Co535 2.008 . S
N541 C542 1.376 . S
N541 C545 1.374 . S
C542 N541 1.376 . S
C542 C543 1.443 . S
C542 C569 1.389 . S
C543 C542 1.443 . S
C543 C544 1.340 . S
C543 H575 0.951 . S
C544 C543 1.340 . S
C544 C545 1.439 . S
C544 H576 0.950 . S
C545 N541 1.374 . S
C545 C544 1.439 . S
C545 C570 1.395 . S
N546 Co535 1.995 . S
N546 C547 1.376 . S
N546 C550 1.383 . S
C547 N546 1.376 . S
C547 C548 1.446 . S
C547 C570 1.391 . S
C548 C547 1.446 . S
C548 C549 1.339 . S
C548 H577 0.949 . S
C549 C548 1.339 . S
C549 C550 1.439 . S
C549 H578 0.950 . S
C550 N546 1.383 . S
C550 C549 1.439 . S
C550 C568 1.392 . S
N551 Co535 2.282 . S
N551 C554 1.332 . S
N551 C556 1.332 . S
C552 C553 1.386 . S
C552 C555 1.388 . S
C553 C552 1.386 . S
C553 C554 1.382 . S
C553 H579 0.950 . S
C554 N551 1.332 . S
C554 C553 1.382 . S
C554 H565 0.952 . S
C555 C552 1.388 . S
C555 C556 1.382 . S
C555 H580 0.950 . S
C556 N551 1.332 . S
C556 C555 1.382 . S
C556 H566 0.948 . S
N557 Co535 2.282 . S
N557 C561 1.332 . S
N557 C562 1.332 . S
C558 C559 1.388 . S
C558 C562 1.382 . S
C558 H581 0.950 . S
C559 C558 1.388 . S
C559 C560 1.386 . S
C560 C559 1.386 . S
C560 C561 1.382 . S
C560 H582 0.950 . S
C561 N557 1.332 . S
C561 C560 1.382 . S
C561 H563 0.952 . S
C562 N557 1.332 . S
C562 C558 1.382 . S
C562 H564 0.948 . S
H563 C561 0.952 . S
H564 C562 0.948 . S
H565 C554 0.952 . S
H566 C556 0.948 . S
C567 C533 1.395 . S
C567 C537 1.391 . S
C568 C530 1.389 . S
C568 C550 1.392 . S
C569 C540 1.392 . S
C569 C542 1.389 . S
C570 C545 1.395 . S
C570 C547 1.391 . S
H571 C531 0.951 . S
H572 C532 0.950 . S
H573 C538 0.949 . S
H574 C539 0.950 . S
H575 C543 0.951 . S
H576 C544 0.950 . S
H577 C548 0.949 . S
H578 C549 0.950 . S
H579 C553 0.950 . S
H580 C555 0.950 . S
H581 C558 0.950 . S
H582 C560 0.950 . S
C583 C584 1.443 . S
C583 N587 1.376 . S
C583 C621 1.389 . S
C584 C583 1.443 . S
C584 C585 1.340 . S
C584 H624 0.951 . S
C585 C584 1.340 . S
C585 C586 1.439 1_554 S
C585 H625 0.950 . S
C586 C585 1.439 1_556 S
C586 N587 1.374 1_556 S
C586 C620 1.395 . S
N587 C583 1.376 . S
N587 C586 1.374 1_554 S
N587 Co588 2.008 1_554 S
Co588 N587 2.008 1_556 S
Co588 N589 1.995 . S
Co588 N594 2.008 1_545 S
Co588 N599 1.995 1_546 S
Co588 N604 2.282 1_545 S
Co588 N610 2.282 1_556 S
N589 Co588 1.995 . S
N589 C590 1.376 . S
N589 C593 1.383 . S
C590 N589 1.376 . S
C590 C591 1.446 . S
C590 C620 1.391 . S
C591 C590 1.446 . S
C591 C592 1.339 . S
C591 H626 0.949 . S
C592 C591 1.339 . S
C592 C593 1.439 . S
C592 H627 0.950 . S
C593 N589 1.383 . S
C593 C592 1.439 . S
C593 C622 1.392 1_545 S
N594 Co588 2.008 1_565 S
N594 C595 1.376 . S
N594 C598 1.374 1_556 S
C595 N594 1.376 . S
C595 C596 1.443 . S
C595 C622 1.389 . S
C596 C595 1.443 . S
C596 C597 1.340 . S
C596 H628 0.951 . S
C597 C596 1.340 . S
C597 C598 1.439 1_556 S
C597 H629 0.950 . S
C598 N594 1.374 1_554 S
C598 C597 1.439 1_554 S
C598 C623 1.395 . S
N599 Co588 1.995 1_564 S
N599 C600 1.376 . S
N599 C603 1.383 1_565 S
C600 N599 1.376 . S
C600 C601 1.446 . S
C600 C623 1.391 . S
C601 C600 1.446 . S
C601 C602 1.339 . S
C601 H630 0.949 . S
C602 C601 1.339 . S
C602 C603 1.439 1_565 S
C602 H631 0.950 . S
C603 N599 1.383 1_545 S
C603 C602 1.439 1_545 S
C603 C621 1.392 . S
N604 Co588 2.282 1_565 S
N604 C607 1.332 . S
N604 C609 1.332 . S
C605 C606 1.386 . S
C605 C608 1.388 . S
C606 C605 1.386 . S
C606 C607 1.382 . S
C606 H632 0.950 . S
C607 N604 1.332 . S
C607 C606 1.382 . S
C607 H618 0.952 1_556 S
C608 C605 1.388 . S
C608 C609 1.382 . S
C608 H633 0.950 . S
C609 N604 1.332 . S
C609 C608 1.382 . S
C609 H619 0.948 1_565 S
N610 Co588 2.282 1_554 S
N610 C614 1.332 . S
N610 C615 1.332 . S
C611 C612 1.388 . S
C611 C615 1.382 . S
C611 H634 0.950 . S
C612 C611 1.388 . S
C612 C613 1.386 . S
C613 C612 1.386 . S
C613 C614 1.382 . S
C613 H635 0.950 . S
C614 N610 1.332 . S
C614 C613 1.382 . S
C614 H616 0.952 1_554 S
C615 N610 1.332 . S
C615 C611 1.382 . S
C615 H617 0.948 . S
H616 C614 0.952 1_556 S
H617 C615 0.948 . S
H618 C607 0.952 1_554 S
H619 C609 0.948 1_545 S
C620 C586 1.395 . S
C620 C590 1.391 . S
C621 C583 1.389 . S
C621 C603 1.392 . S
C622 C593 1.392 1_565 S
C622 C595 1.389 . S
C623 C598 1.395 . S
C623 C600 1.391 . S
H624 C584 0.951 . S
H625 C585 0.950 . S
H626 C591 0.949 . S
H627 C592 0.950 . S
H628 C596 0.951 . S
H629 C597 0.950 . S
H630 C601 0.949 . S
H631 C602 0.950 . S
H632 C606 0.950 . S
H633 C608 0.950 . S
H634 C611 0.950 . S
H635 C613 0.950 . S
C636 C637 1.443 . S
C636 N640 1.376 . S
C636 C674 1.389 . S
C637 C636 1.443 . S
C637 C638 1.340 . S
C637 H677 0.951 . S
C638 C637 1.340 . S
C638 C639 1.439 . S
C638 H678 0.950 . S
C639 C638 1.439 . S
C639 N640 1.374 . S
C639 C673 1.395 . S
N640 C636 1.376 . S
N640 C639 1.374 . S
N640 Co641 2.008 . S
Co641 N640 2.008 . S
Co641 N642 1.995 . S
Co641 N647 2.008 . S
Co641 N652 1.995 . S
Co641 N657 2.282 . S
Co641 N663 2.282 . S
N642 Co641 1.995 . S
N642 C643 1.376 . S
N642 C646 1.383 . S
C643 N642 1.376 . S
C643 C644 1.446 . S
C643 C673 1.391 . S
C644 C643 1.446 . S
C644 C645 1.339 . S
C644 H679 0.949 . S
C645 C644 1.339 . S
C645 C646 1.439 . S
C645 H680 0.950 . S
C646 N642 1.383 . S
C646 C645 1.439 . S
C646 C675 1.392 . S
N647 Co641 2.008 . S
N647 C648 1.376 . S
N647 C651 1.374 . S
C648 N647 1.376 . S
C648 C649 1.443 . S
C648 C675 1.389 . S
C649 C648 1.443 . S
C649 C650 1.340 . S
C649 H681 0.951 . S
C650 C649 1.340 . S
C650 C651 1.439 . S
C650 H682 0.950 . S
C651 N647 1.374 . S
C651 C650 1.439 . S
C651 C676 1.395 . S
N652 Co641 1.995 . S
N652 C653 1.376 . S
N652 C656 1.383 . S
C653 N652 1.376 . S
C653 C654 1.446 . S
C653 C676 1.391 . S
C654 C653 1.446 . S
C654 C655 1.339 . S
C654 H683 0.949 . S
C655 C654 1.339 . S
C655 C656 1.439 . S
C655 H684 0.950 . S
C656 N652 1.383 . S
C656 C655 1.439 . S
C656 C674 1.392 . S
N657 Co641 2.282 . S
N657 C660 1.332 . S
N657 C662 1.332 . S
C658 C659 1.386 . S
C658 C661 1.388 . S
C659 C658 1.386 . S
C659 C660 1.382 . S
C659 H685 0.950 . S
C660 N657 1.332 . S
C660 C659 1.382 . S
C660 H671 0.952 . S
C661 C658 1.388 . S
C661 C662 1.382 . S
C661 H686 0.950 . S
C662 N657 1.332 . S
C662 C661 1.382 . S
C662 H672 0.948 . S
N663 Co641 2.282 . S
N663 C667 1.332 . S
N663 C668 1.332 . S
C664 C665 1.388 . S
C664 C668 1.382 . S
C664 H687 0.950 . S
C665 C664 1.388 . S
C665 C666 1.386 . S
C666 C665 1.386 . S
C666 C667 1.382 . S
C666 H688 0.950 . S
C667 N663 1.332 . S
C667 C666 1.382 . S
C667 H669 0.952 . S
C668 N663 1.332 . S
C668 C664 1.382 . S
C668 H670 0.948 . S
H669 C667 0.952 . S
H670 C668 0.948 . S
H671 C660 0.952 . S
H672 C662 0.948 . S
C673 C639 1.395 . S
C673 C643 1.391 . S
C674 C636 1.389 . S
C674 C656 1.392 . S
C675 C646 1.392 . S
C675 C648 1.389 . S
C676 C651 1.395 . S
C676 C653 1.391 . S
H677 C637 0.951 . S
H678 C638 0.950 . S
H679 C644 0.949 . S
H680 C645 0.950 . S
H681 C649 0.951 . S
H682 C650 0.950 . S
H683 C654 0.949 . S
H684 C655 0.950 . S
H685 C659 0.950 . S
H686 C661 0.950 . S
H687 C664 0.950 . S
H688 C666 0.950 . S
C689 C690 1.443 . S
C689 N693 1.376 . S
C689 C727 1.389 . S
C690 C689 1.443 . S
C690 C691 1.340 . S
C690 H730 0.951 . S
C691 C690 1.340 . S
C691 C692 1.439 . S
C691 H731 0.950 . S
C692 C691 1.439 . S
C692 N693 1.374 . S
C692 C726 1.395 . S
N693 C689 1.376 . S
N693 C692 1.374 . S
N693 Co694 2.008 1_455 S
Co694 N693 2.008 1_655 S
Co694 N695 1.995 1_655 S
Co694 N700 2.008 . S
Co694 N705 1.995 . S
Co694 N710 2.282 . S
Co694 N716 2.282 1_655 S
N695 Co694 1.995 1_455 S
N695 C696 1.405 . S
N695 C699 1.353 1_455 S
C696 N695 1.405 . S
C696 C697 1.446 . S
C696 C726 1.391 . S
C697 C696 1.446 . S
C697 C698 1.339 1_455 S
C697 H732 0.949 . S
C698 C697 1.339 1_655 S
C698 C699 1.439 . S
C698 H733 0.950 . S
C699 N695 1.353 1_655 S
C699 C698 1.439 . S
C699 C728 1.392 . S
N700 Co694 2.008 . S
N700 C701 1.376 . S
N700 C704 1.374 . S
C701 N700 1.376 . S
C701 C702 1.443 . S
C701 C728 1.389 . S
C702 C701 1.443 . S
C702 C703 1.340 . S
C702 H734 0.951 . S
C703 C702 1.340 . S
C703 C704 1.439 . S
C703 H735 0.950 . S
C704 N700 1.374 . S
C704 C703 1.439 . S
C704 C729 1.395 . S
N705 Co694 1.995 . S
N705 C706 1.376 . S
N705 C709 1.383 1_655 S
C706 N705 1.376 . S
C706 C707 1.446 . S
C706 C729 1.391 . S
C707 C706 1.446 . S
C707 C708 1.339 1_655 S
C707 H736 0.949 . S
C708 C707 1.339 1_455 S
C708 C709 1.439 . S
C708 H737 0.950 . S
C709 N705 1.383 1_455 S
C709 C708 1.439 . S
C709 C727 1.392 . S
N710 Co694 2.282 . S
N710 C713 1.332 . S
N710 C715 1.332 1_655 S
C711 C712 1.386 . S
C711 C714 1.388 . S
C712 C711 1.386 . S
C712 C713 1.382 . S
C712 H738 0.950 . S
C713 N710 1.332 . S
C713 C712 1.382 . S
C713 H724 0.952 . S
C714 C711 1.388 . S
C714 C715 1.382 1_655 S
C714 H739 0.950 1_655 S
C715 N710 1.332 1_455 S
C715 C714 1.382 1_455 S
C715 H725 0.948 . S
N716 Co694 2.282 1_455 S
N716 C720 1.332 . S
N716 C721 1.332 1_455 S
C717 C718 1.388 . S
C717 C721 1.382 1_455 S
C717 H740 0.950 1_455 S
C718 C717 1.388 . S
C718 C719 1.386 . S
C719 C718 1.386 . S
C719 C720 1.382 . S
C719 H741 0.950 . S
C720 N716 1.332 . S
C720 C719 1.382 . S
C720 H722 0.952 . S
C721 N716 1.332 1_655 S
C721 C717 1.382 1_655 S
C721 H723 0.948 . S
H722 C720 0.952 . S
H723 C721 0.948 . S
H724 C713 0.952 . S
H725 C715 0.948 . S
C726 C692 1.395 . S
C726 C696 1.391 . S
C727 C689 1.389 . S
C727 C709 1.392 . S
C728 C699 1.392 . S
C728 C701 1.389 . S
C729 C704 1.395 . S
C729 C706 1.391 . S
H730 C690 0.951 . S
H731 C691 0.950 . S
H732 C697 0.949 . S
H733 C698 0.950 . S
H734 C702 0.951 . S
H735 C703 0.950 . S
H736 C707 0.949 . S
H737 C708 0.950 . S
H738 C712 0.950 . S
H739 C714 0.950 1_455 S
H740 C717 0.950 1_655 S
H741 C719 0.950 . S
C742 C743 1.443 . S
C742 N746 1.376 . S
C742 C780 1.389 . S
C743 C742 1.443 . S
C743 C744 1.340 . S
C743 H783 0.951 . S
C744 C743 1.340 . S
C744 C745 1.439 . S
C744 H784 0.950 . S
C745 C744 1.439 . S
C745 N746 1.374 . S
C745 C779 1.395 . S
N746 C742 1.376 . S
N746 C745 1.374 . S
N746 Co747 2.008 . S
Co747 N746 2.008 . S
Co747 N748 1.995 . S
Co747 N753 2.008 . S
Co747 N758 1.995 . S
Co747 N763 2.282 . S
Co747 N769 2.282 . S
N748 Co747 1.995 . S
N748 C749 1.376 . S
N748 C752 1.383 . S
C749 N748 1.376 . S
C749 C750 1.446 . S
C749 C779 1.391 . S
C750 C749 1.446 . S
C750 C751 1.339 . S
C750 H785 0.949 . S
C751 C750 1.339 . S
C751 C752 1.439 . S
C751 H786 0.950 . S
C752 N748 1.383 . S
C752 C751 1.439 . S
C752 C781 1.392 . S
N753 Co747 2.008 . S
N753 C754 1.376 . S
N753 C757 1.374 . S
C754 N753 1.376 . S
C754 C755 1.443 . S
C754 C781 1.389 . S
C755 C754 1.443 . S
C755 C756 1.340 . S
C755 H787 0.951 . S
C756 C755 1.340 . S
C756 C757 1.439 . S
C756 H788 0.950 . S
C757 N753 1.374 . S
C757 C756 1.439 . S
C757 C782 1.395 . S
N758 Co747 1.995 . S
N758 C759 1.376 . S
N758 C762 1.383 . S
C759 N758 1.376 . S
C759 C760 1.446 . S
C759 C782 1.391 . S
C760 C759 1.446 . S
C760 C761 1.339 . S
C760 H789 0.949 . S
C761 C760 1.339 . S
C761 C762 1.439 . S
C761 H790 0.950 . S
C762 N758 1.383 . S
C762 C761 1.439 . S
C762 C780 1.392 . S
N763 Co747 2.282 . S
N763 C766 1.332 . S
N763 C768 1.332 . S
C764 C765 1.386 . S
C764 C767 1.388 . S
C765 C764 1.386 . S
C765 C766 1.382 . S
C765 H791 0.950 . S
C766 N763 1.332 . S
C766 C765 1.382 . S
C766 H777 0.952 . S
C767 C764 1.388 . S
C767 C768 1.382 . S
C767 H792 0.950 . S
C768 N763 1.332 . S
C768 C767 1.382 . S
C768 H778 0.948 . S
N769 Co747 2.282 . S
N769 C773 1.332 . S
N769 C774 1.332 . S
C770 C771 1.388 . S
C770 C774 1.382 . S
C770 H793 0.950 . S
C771 C770 1.388 . S
C771 C772 1.386 . S
C772 C771 1.386 . S
C772 C773 1.382 . S
C772 H794 0.950 . S
C773 N769 1.332 . S
C773 C772 1.382 . S
C773 H775 0.952 . S
C774 N769 1.332 . S
C774 C770 1.382 . S
C774 H776 0.948 . S
H775 C773 0.952 . S
H776 C774 0.948 . S
H777 C766 0.952 . S
H778 C768 0.948 . S
C779 C745 1.395 . S
C779 C749 1.391 . S
C780 C742 1.389 . S
C780 C762 1.392 . S
C781 C752 1.392 . S
C781 C754 1.389 . S
C782 C757 1.395 . S
C782 C759 1.391 . S
H783 C743 0.951 . S
H784 C744 0.950 . S
H785 C750 0.949 . S
H786 C751 0.950 . S
H787 C755 0.951 . S
H788 C756 0.950 . S
H789 C760 0.949 . S
H790 C761 0.950 . S
H791 C765 0.950 . S
H792 C767 0.950 . S
H793 C770 0.950 . S
H794 C772 0.950 . S
C795 C796 1.443 . S
C795 N799 1.376 . S
C795 C833 1.389 . S
C796 C795 1.443 . S
C796 C797 1.340 . S
C796 H836 0.951 . S
C797 C796 1.340 . S
C797 C798 1.439 . S
C797 H837 0.950 . S
C798 C797 1.439 . S
C798 N799 1.374 . S
C798 C832 1.395 . S
N799 C795 1.376 . S
N799 C798 1.374 . S
N799 Co800 2.008 . S
Co800 N799 2.008 . S
Co800 N801 1.995 . S
Co800 N806 2.008 . S
Co800 N811 1.995 . S
Co800 N816 2.282 . S
Co800 N822 2.282 . S
N801 Co800 1.995 . S
N801 C802 1.376 . S
N801 C805 1.383 . S
C802 N801 1.376 . S
C802 C803 1.446 . S
C802 C832 1.391 . S
C803 C802 1.446 . S
C803 C804 1.339 . S
C803 H838 0.949 . S
C804 C803 1.339 . S
C804 C805 1.439 . S
C804 H839 0.950 . S
C805 N801 1.383 . S
C805 C804 1.439 . S
C805 C834 1.392 . S
N806 Co800 2.008 . S
N806 C807 1.376 . S
N806 C810 1.374 . S
C807 N806 1.376 . S
C807 C808 1.443 . S
C807 C834 1.389 . S
C808 C807 1.443 . S
C808 C809 1.340 . S
C808 H840 0.951 . S
C809 C808 1.340 . S
C809 C810 1.439 . S
C809 H841 0.950 . S
C810 N806 1.374 . S
C810 C809 1.439 . S
C810 C835 1.395 . S
N811 Co800 1.995 . S
N811 C812 1.376 . S
N811 C815 1.383 . S
C812 N811 1.376 . S
C812 C813 1.446 . S
C812 C835 1.391 . S
C813 C812 1.446 . S
C813 C814 1.339 . S
C813 H842 0.949 . S
C814 C813 1.339 . S
C814 C815 1.439 . S
C814 H843 0.950 . S
C815 N811 1.383 . S
C815 C814 1.439 . S
C815 C833 1.392 . S
N816 Co800 2.282 . S
N816 C819 1.332 . S
N816 C821 1.332 . S
C817 C818 1.386 . S
C817 C820 1.388 . S
C818 C817 1.386 . S
C818 C819 1.382 . S
C818 H844 0.950 . S
C819 N816 1.332 . S
C819 C818 1.382 . S
C819 H830 0.952 . S
C820 C817 1.388 . S
C820 C821 1.382 . S
C820 H845 0.950 . S
C821 N816 1.332 . S
C821 C820 1.382 . S
C821 H831 0.948 . S
N822 Co800 2.282 . S
N822 C826 1.332 . S
N822 C827 1.332 . S
C823 C824 1.388 . S
C823 C827 1.382 . S
C823 H846 0.950 . S
C824 C823 1.388 . S
C824 C825 1.386 . S
C825 C824 1.386 . S
C825 C826 1.382 . S
C825 H847 0.950 . S
C826 N822 1.332 . S
C826 C825 1.382 . S
C826 H828 0.952 . S
C827 N822 1.332 . S
C827 C823 1.382 . S
C827 H829 0.948 . S
H828 C826 0.952 . S
H829 C827 0.948 . S
H830 C819 0.952 . S
H831 C821 0.948 . S
C832 C798 1.395 . S
C832 C802 1.391 . S
C833 C795 1.389 . S
C833 C815 1.392 . S
C834 C805 1.392 . S
C834 C807 1.389 . S
C835 C810 1.395 . S
C835 C812 1.391 . S
H836 C796 0.951 . S
H837 C797 0.950 . S
H838 C803 0.949 . S
H839 C804 0.950 . S
H840 C808 0.951 . S
H841 C809 0.950 . S
H842 C813 0.949 . S
H843 C814 0.950 . S
H844 C818 0.950 . S
H845 C820 0.950 . S
H846 C823 0.950 . S
H847 C825 0.950 . S
C848 C849 1.443 . S
C848 N852 1.376 . S
C848 C886 1.389 . S
C849 C848 1.443 . S
C849 C850 1.340 . S
C849 H889 0.951 . S
C850 C849 1.340 . S
C850 C851 1.439 . S
C850 H890 0.950 . S
C851 C850 1.439 . S
C851 N852 1.374 . S
C851 C885 1.395 . S
N852 C848 1.376 . S
N852 C851 1.374 . S
N852 Co853 2.008 . S
Co853 N852 2.008 . S
Co853 N854 1.995 . S
Co853 N859 2.008 . S
Co853 N864 1.995 . S
Co853 N869 2.282 . S
Co853 N875 2.282 . S
N854 Co853 1.995 . S
N854 C855 1.376 . S
N854 C858 1.383 . S
C855 N854 1.376 . S
C855 C856 1.446 . S
C855 C885 1.391 . S
C856 C855 1.446 . S
C856 C857 1.339 . S
C856 H891 0.949 . S
C857 C856 1.339 . S
C857 C858 1.439 . S
C857 H892 0.950 . S
C858 N854 1.383 . S
C858 C857 1.439 . S
C858 C887 1.392 . S
N859 Co853 2.008 . S
N859 C860 1.376 . S
N859 C863 1.374 . S
C860 N859 1.376 . S
C860 C861 1.443 . S
C860 C887 1.389 . S
C861 C860 1.443 . S
C861 C862 1.340 . S
C861 H893 0.951 . S
C862 C861 1.340 . S
C862 C863 1.439 . S
C862 H894 0.950 . S
C863 N859 1.374 . S
C863 C862 1.439 . S
C863 C888 1.395 . S
N864 Co853 1.995 . S
N864 C865 1.376 . S
N864 C868 1.383 . S
C865 N864 1.376 . S
C865 C866 1.446 . S
C865 C888 1.391 . S
C866 C865 1.446 . S
C866 C867 1.339 . S
C866 H895 0.949 . S
C867 C866 1.339 . S
C867 C868 1.439 . S
C867 H896 0.950 . S
C868 N864 1.383 . S
C868 C867 1.439 . S
C868 C886 1.392 . S
N869 Co853 2.282 . S
N869 C872 1.332 . S
N869 C874 1.332 . S
C870 C871 1.386 . S
C870 C873 1.388 . S
C871 C870 1.386 . S
C871 C872 1.382 . S
C871 H897 0.950 . S
C872 N869 1.332 . S
C872 C871 1.382 . S
C872 H883 0.952 . S
C873 C870 1.388 . S
C873 C874 1.382 . S
C873 H898 0.950 . S
C874 N869 1.332 . S
C874 C873 1.382 . S
C874 H884 0.948 . S
N875 Co853 2.282 . S
N875 C879 1.332 . S
N875 C880 1.332 . S
C876 C877 1.388 . S
C876 C880 1.382 . S
C876 H899 0.950 . S
C877 C876 1.388 . S
C877 C878 1.386 . S
C878 C877 1.386 . S
C878 C879 1.382 . S
C878 H900 0.950 . S
C879 N875 1.332 . S
C879 C878 1.382 . S
C879 H881 0.952 . S
C880 N875 1.332 . S
C880 C876 1.382 . S
C880 H882 0.948 . S
H881 C879 0.952 . S
H882 C880 0.948 . S
H883 C872 0.952 . S
H884 C874 0.948 . S
C885 C851 1.395 . S
C885 C855 1.391 . S
C886 C848 1.389 . S
C886 C868 1.392 . S
C887 C858 1.392 . S
C887 C860 1.389 . S
C888 C863 1.395 . S
C888 C865 1.391 . S
H889 C849 0.951 . S
H890 C850 0.950 . S
H891 C856 0.949 . S
H892 C857 0.950 . S
H893 C861 0.951 . S
H894 C862 0.950 . S
H895 C866 0.949 . S
H896 C867 0.950 . S
H897 C871 0.950 . S
H898 C873 0.950 . S
H899 C876 0.950 . S
H900 C878 0.950 . S
C901 C902 1.443 . S
C901 N905 1.376 . S
C901 C939 1.389 . S
C902 C901 1.443 . S
C902 C903 1.340 . S
C902 H942 0.951 . S
C903 C902 1.340 . S
C903 C904 1.439 . S
C903 H943 0.950 . S
C904 C903 1.439 . S
C904 N905 1.374 . S
C904 C938 1.395 . S
N905 C901 1.376 . S
N905 C904 1.374 . S
N905 Co906 2.008 . S
Co906 N905 2.008 . S
Co906 N907 1.995 . S
Co906 N912 2.008 . S
Co906 N917 1.995 . S
Co906 N922 2.282 . S
Co906 N928 2.282 . S
N907 Co906 1.995 . S
N907 C908 1.376 . S
N907 C911 1.383 . S
C908 N907 1.376 . S
C908 C909 1.446 . S
C908 C938 1.391 . S
C909 C908 1.446 . S
C909 C910 1.339 . S
C909 H944 0.949 . S
C910 C909 1.339 . S
C910 C911 1.439 . S
C910 H945 0.950 . S
C911 N907 1.383 . S
C911 C910 1.439 . S
C911 C940 1.392 . S
N912 Co906 2.008 . S
N912 C913 1.376 . S
N912 C916 1.374 . S
C913 N912 1.376 . S
C913 C914 1.443 . S
C913 C940 1.389 . S
C914 C913 1.443 . S
C914 C915 1.340 . S
C914 H946 0.951 . S
C915 C914 1.340 . S
C915 C916 1.439 . S
C915 H947 0.950 . S
C916 N912 1.374 . S
C916 C915 1.439 . S
C916 C941 1.395 . S
N917 Co906 1.995 . S
N917 C918 1.376 . S
N917 C921 1.383 . S
C918 N917 1.376 . S
C918 C919 1.446 . S
C918 C941 1.391 . S
C919 C918 1.446 . S
C919 C920 1.339 . S
C919 H948 0.949 . S
C920 C919 1.339 . S
C920 C921 1.439 . S
C920 H949 0.950 . S
C921 N917 1.383 . S
C921 C920 1.439 . S
C921 C939 1.392 . S
N922 Co906 2.282 . S
N922 C925 1.332 . S
N922 C927 1.332 . S
C923 C924 1.386 . S
C923 C926 1.388 . S
C924 C923 1.386 . S
C924 C925 1.382 . S
C924 H950 0.950 . S
C925 N922 1.332 . S
C925 C924 1.382 . S
C925 H936 0.952 . S
C926 C923 1.388 . S
C926 C927 1.382 . S
C926 H951 0.950 . S
C927 N922 1.332 . S
C927 C926 1.382 . S
C927 H937 0.948 . S
N928 Co906 2.282 . S
N928 C932 1.332 . S
N928 C933 1.332 . S
C929 C930 1.388 . S
C929 C933 1.382 . S
C929 H952 0.950 . S
C930 C929 1.388 . S
C930 C931 1.386 . S
C931 C930 1.386 . S
C931 C932 1.382 . S
C931 H953 0.950 . S
C932 N928 1.332 . S
C932 C931 1.382 . S
C932 H934 0.952 . S
C933 N928 1.332 . S
C933 C929 1.382 . S
C933 H935 0.948 . S
H934 C932 0.952 . S
H935 C933 0.948 . S
H936 C925 0.952 . S
H937 C927 0.948 . S
C938 C904 1.395 . S
C938 C908 1.391 . S
C939 C901 1.389 . S
C939 C921 1.392 . S
C940 C911 1.392 . S
C940 C913 1.389 . S
C941 C916 1.395 . S
C941 C918 1.391 . S
H942 C902 0.951 . S
H943 C903 0.950 . S
H944 C909 0.949 . S
H945 C910 0.950 . S
H946 C914 0.951 . S
H947 C915 0.950 . S
H948 C919 0.949 . S
H949 C920 0.950 . S
H950 C924 0.950 . S
H951 C926 0.950 . S
H952 C929 0.950 . S
H953 C931 0.950 . S
C954 C955 1.443 . S
C954 N958 1.376 . S
C954 C992 1.389 . S
C955 C954 1.443 . S
C955 C956 1.340 . S
C955 H995 0.951 . S
C956 C955 1.340 . S
C956 C957 1.439 1_655 S
C956 H996 0.955 . S
C957 C956 1.439 1_455 S
C957 N958 1.374 1_455 S
C957 C991 1.395 . S
N958 C954 1.376 . S
N958 C957 1.374 1_655 S
N958 Co959 2.008 1_556 S
Co959 N958 2.008 1_554 S
Co959 N960 1.995 1_654 S
Co959 N965 2.008 1_655 S
Co959 N970 1.995 . S
Co959 N975 2.282 1_655 S
Co959 N981 2.282 1_554 S
N960 Co959 1.995 1_456 S
N960 C961 1.376 . S
N960 C964 1.383 1_556 S
C961 N960 1.376 . S
C961 C962 1.446 . S
C961 C991 1.391 . S
C962 C961 1.446 . S
C962 C963 1.339 1_556 S
C962 H997 0.949 . S
C963 C962 1.339 1_554 S
C963 C964 1.439 . S
C963 H998 0.950 . S
C964 N960 1.383 1_554 S
C964 C963 1.439 . S
C964 C993 1.392 . S
N965 Co959 2.008 1_455 S
N965 C966 1.376 . S
N965 C969 1.374 1_455 S
C966 N965 1.376 . S
C966 C967 1.443 . S
C966 C993 1.389 . S
C967 C966 1.443 . S
C967 C968 1.340 . S
C967 H999 0.951 . S
C968 C967 1.340 . S
C968 C969 1.439 1_455 S
C968 H1000 0.954 . S
C969 N965 1.374 1_655 S
C969 C968 1.439 1_655 S
C969 C994 1.395 . S
N970 Co959 1.995 . S
N970 C971 1.376 . S
N970 C974 1.383 1_554 S
C971 N970 1.376 . S
C971 C972 1.446 . S
C971 C994 1.391 . S
C972 C971 1.446 . S
C972 C973 1.339 1_554 S
C972 H1001 0.949 . S
C973 C972 1.339 1_556 S
C973 C974 1.439 . S
C973 H1002 0.950 . S
C974 N970 1.383 1_556 S
C974 C973 1.439 . S
C974 C992 1.392 . S
N975 Co959 2.282 1_455 S
N975 C978 1.332 . S
N975 C980 1.332 1_554 S
C976 C977 1.386 . S
C976 C979 1.399 . S
C977 C976 1.386 . S
C977 C978 1.382 . S
C977 H1003 0.950 . S
C978 N975 1.332 . S
C978 C977 1.382 . S
C978 H989 0.952 . S
C979 C976 1.399 . S
C979 C980 1.379 1_554 S
C979 H1004 0.944 1_554 S
C980 N975 1.332 1_556 S
C980 C979 1.379 1_556 S
C980 H990 0.948 . S
N981 Co959 2.282 1_556 S
N981 C985 1.332 . S
N981 C986 1.332 1_556 S
C982 C983 1.392 . S
C982 C986 1.381 1_556 S
C982 H1005 0.948 1_556 S
C983 C982 1.392 . S
C983 C984 1.386 . S
C984 C983 1.386 . S
C984 C985 1.382 . S
C984 H1006 0.950 . S
C985 N981 1.332 . S
C985 C984 1.382 . S
C985 H987 0.952 . S
C986 N981 1.332 1_554 S
C986 C982 1.381 1_554 S
C986 H988 0.948 . S
H987 C985 0.952 . S
H988 C986 0.948 . S
H989 C978 0.952 . S
H990 C980 0.948 . S
C991 C957 1.395 . S
C991 C961 1.391 . S
C992 C954 1.389 . S
C992 C974 1.392 . S
C993 C964 1.392 . S
C993 C966 1.389 . S
C994 C969 1.395 . S
C994 C971 1.391 . S
H995 C955 0.951 . S
H996 C956 0.955 . S
H997 C962 0.949 . S
H998 C963 0.950 . S
H999 C967 0.951 . S
H1000 C968 0.954 . S
H1001 C972 0.949 . S
H1002 C973 0.950 . S
H1003 C977 0.950 . S
H1004 C979 0.944 1_556 S
H1005 C982 0.948 1_554 S
H1006 C984 0.950 . S
C1007 C1008 1.443 . S
C1007 N1011 1.376 . S
C1007 C1045 1.389 . S
C1008 C1007 1.443 . S
C1008 C1009 1.340 . S
C1008 H1048 0.951 . S
C1009 C1008 1.340 . S
C1009 C1010 1.439 . S
C1009 H1049 0.950 . S
C1010 C1009 1.439 . S
C1010 N1011 1.374 . S
C1010 C1044 1.395 . S
N1011 C1007 1.376 . S
N1011 C1010 1.374 . S
N1011 Co1012 2.008 . S
Co1012 N1011 2.008 . S
Co1012 N1013 1.995 . S
Co1012 N1018 2.008 . S
Co1012 N1023 1.995 . S
Co1012 N1028 2.282 . S
Co1012 N1034 2.282 . S
N1013 Co1012 1.995 . S
N1013 C1014 1.376 . S
N1013 C1017 1.383 . S
C1014 N1013 1.376 . S
C1014 C1015 1.446 . S
C1014 C1044 1.391 . S
C1015 C1014 1.446 . S
C1015 C1016 1.339 . S
C1015 H1050 0.949 . S
C1016 C1015 1.339 . S
C1016 C1017 1.439 . S
C1016 H1051 0.950 . S
C1017 N1013 1.383 . S
C1017 C1016 1.439 . S
C1017 C1046 1.392 . S
N1018 Co1012 2.008 . S
N1018 C1019 1.376 . S
N1018 C1022 1.374 . S
C1019 N1018 1.376 . S
C1019 C1020 1.443 . S
C1019 C1046 1.389 . S
C1020 C1019 1.443 . S
C1020 C1021 1.340 . S
C1020 H1052 0.951 . S
C1021 C1020 1.340 . S
C1021 C1022 1.439 . S
C1021 H1053 0.950 . S
C1022 N1018 1.374 . S
C1022 C1021 1.439 . S
C1022 C1047 1.395 . S
N1023 Co1012 1.995 . S
N1023 C1024 1.376 . S
N1023 C1027 1.383 . S
C1024 N1023 1.376 . S
C1024 C1025 1.446 . S
C1024 C1047 1.391 . S
C1025 C1024 1.446 . S
C1025 C1026 1.339 . S
C1025 H1054 0.949 . S
C1026 C1025 1.339 . S
C1026 C1027 1.439 . S
C1026 H1055 0.950 . S
C1027 N1023 1.383 . S
C1027 C1026 1.439 . S
C1027 C1045 1.392 . S
N1028 Co1012 2.282 . S
N1028 C1031 1.332 . S
N1028 C1033 1.332 . S
C1029 C1030 1.386 . S
C1029 C1032 1.388 . S
C1030 C1029 1.386 . S
C1030 C1031 1.382 . S
C1030 H1056 0.950 . S
C1031 N1028 1.332 . S
C1031 C1030 1.382 . S
C1031 H1042 0.952 . S
C1032 C1029 1.388 . S
C1032 C1033 1.382 . S
C1032 H1057 0.950 . S
C1033 N1028 1.332 . S
C1033 C1032 1.382 . S
C1033 H1043 0.948 . S
N1034 Co1012 2.282 . S
N1034 C1038 1.332 . S
N1034 C1039 1.332 . S
C1035 C1036 1.388 . S
C1035 C1039 1.382 . S
C1035 H1058 0.950 . S
C1036 C1035 1.388 . S
C1036 C1037 1.386 . S
C1037 C1036 1.386 . S
C1037 C1038 1.382 . S
C1037 H1059 0.950 . S
C1038 N1034 1.332 . S
C1038 C1037 1.382 . S
C1038 H1040 0.952 . S
C1039 N1034 1.332 . S
C1039 C1035 1.382 . S
C1039 H1041 0.948 . S
H1040 C1038 0.952 . S
H1041 C1039 0.948 . S
H1042 C1031 0.952 . S
H1043 C1033 0.948 . S
C1044 C1010 1.395 . S
C1044 C1014 1.391 . S
C1045 C1007 1.389 . S
C1045 C1027 1.392 . S
C1046 C1017 1.392 . S
C1046 C1019 1.389 . S
C1047 C1022 1.395 . S
C1047 C1024 1.391 . S
H1048 C1008 0.951 . S
H1049 C1009 0.950 . S
H1050 C1015 0.949 . S
H1051 C1016 0.950 . S
H1052 C1020 0.951 . S
H1053 C1021 0.950 . S
H1054 C1025 0.949 . S
H1055 C1026 0.950 . S
H1056 C1030 0.950 . S
H1057 C1032 0.950 . S
H1058 C1035 0.950 . S
H1059 C1037 0.950 . S
C1060 C1061 1.443 . S
C1060 N1064 1.376 . S
C1060 C1098 1.389 . S
C1061 C1060 1.443 . S
C1061 C1062 1.340 . S
C1061 H1101 0.951 . S
C1062 C1061 1.340 . S
C1062 C1063 1.439 . S
C1062 H1102 0.950 . S
C1063 C1062 1.439 . S
C1063 N1064 1.374 . S
C1063 C1097 1.395 . S
N1064 C1060 1.376 . S
N1064 C1063 1.374 . S
N1064 Co1065 2.008 . S
Co1065 N1064 2.008 . S
Co1065 N1066 1.995 . S
Co1065 N1071 2.008 . S
Co1065 N1076 1.995 . S
Co1065 N1081 2.282 . S
Co1065 N1087 2.282 . S
N1066 Co1065 1.995 . S
N1066 C1067 1.376 . S
N1066 C1070 1.383 . S
C1067 N1066 1.376 . S
C1067 C1068 1.446 . S
C1067 C1097 1.391 . S
C1068 C1067 1.446 . S
C1068 C1069 1.339 . S
C1068 H1103 0.949 . S
C1069 C1068 1.339 . S
C1069 C1070 1.439 . S
C1069 H1104 0.950 . S
C1070 N1066 1.383 . S
C1070 C1069 1.439 . S
C1070 C1099 1.392 . S
N1071 Co1065 2.008 . S
N1071 C1072 1.376 . S
N1071 C1075 1.374 . S
C1072 N1071 1.376 . S
C1072 C1073 1.443 . S
C1072 C1099 1.389 . S
C1073 C1072 1.443 . S
C1073 C1074 1.340 . S
C1073 H1105 0.951 . S
C1074 C1073 1.340 . S
C1074 C1075 1.439 . S
C1074 H1106 0.950 . S
C1075 N1071 1.374 . S
C1075 C1074 1.439 . S
C1075 C1100 1.395 . S
N1076 Co1065 1.995 . S
N1076 C1077 1.376 . S
N1076 C1080 1.383 . S
C1077 N1076 1.376 . S
C1077 C1078 1.446 . S
C1077 C1100 1.391 . S
C1078 C1077 1.446 . S
C1078 C1079 1.339 . S
C1078 H1107 0.949 . S
C1079 C1078 1.339 . S
C1079 C1080 1.439 . S
C1079 H1108 0.950 . S
C1080 N1076 1.383 . S
C1080 C1079 1.439 . S
C1080 C1098 1.392 . S
N1081 Co1065 2.282 . S
N1081 C1084 1.332 . S
N1081 C1086 1.332 . S
C1082 C1083 1.386 . S
C1082 C1085 1.388 . S
C1083 C1082 1.386 . S
C1083 C1084 1.382 . S
C1083 H1109 0.950 . S
C1084 N1081 1.332 . S
C1084 C1083 1.382 . S
C1084 H1095 0.952 . S
C1085 C1082 1.388 . S
C1085 C1086 1.382 . S
C1085 H1110 0.950 . S
C1086 N1081 1.332 . S
C1086 C1085 1.382 . S
C1086 H1096 0.948 . S
N1087 Co1065 2.282 . S
N1087 C1091 1.332 . S
N1087 C1092 1.332 . S
C1088 C1089 1.388 . S
C1088 C1092 1.382 . S
C1088 H1111 0.950 . S
C1089 C1088 1.388 . S
C1089 C1090 1.386 . S
C1090 C1089 1.386 . S
C1090 C1091 1.382 . S
C1090 H1112 0.950 . S
C1091 N1087 1.332 . S
C1091 C1090 1.382 . S
C1091 H1093 0.952 . S
C1092 N1087 1.332 . S
C1092 C1088 1.382 . S
C1092 H1094 0.948 . S
H1093 C1091 0.952 . S
H1094 C1092 0.948 . S
H1095 C1084 0.952 . S
H1096 C1086 0.948 . S
C1097 C1063 1.395 . S
C1097 C1067 1.391 . S
C1098 C1060 1.389 . S
C1098 C1080 1.392 . S
C1099 C1070 1.392 . S
C1099 C1072 1.389 . S
C1100 C1075 1.395 . S
C1100 C1077 1.391 . S
H1101 C1061 0.951 . S
H1102 C1062 0.950 . S
H1103 C1068 0.949 . S
H1104 C1069 0.950 . S
H1105 C1073 0.951 . S
H1106 C1074 0.950 . S
H1107 C1078 0.949 . S
H1108 C1079 0.950 . S
H1109 C1083 0.950 . S
H1110 C1085 0.950 . S
H1111 C1088 0.950 . S
H1112 C1090 0.950 . S
C1113 C1114 1.443 . S
C1113 N1117 1.376 . S
C1113 C1151 1.389 . S
C1114 C1113 1.443 . S
C1114 C1115 1.340 . S
C1114 H1154 0.951 . S
C1115 C1114 1.340 . S
C1115 C1116 1.439 . S
C1115 H1155 0.950 . S
C1116 C1115 1.439 . S
C1116 N1117 1.374 . S
C1116 C1150 1.395 . S
N1117 C1113 1.376 . S
N1117 C1116 1.374 . S
N1117 Co1118 2.008 . S
Co1118 N1117 2.008 . S
Co1118 N1119 1.995 . S
Co1118 N1124 2.008 . S
Co1118 N1129 1.995 . S
Co1118 N1134 2.282 . S
Co1118 N1140 2.282 . S
N1119 Co1118 1.995 . S
N1119 C1120 1.376 . S
N1119 C1123 1.383 . S
C1120 N1119 1.376 . S
C1120 C1121 1.446 . S
C1120 C1150 1.391 . S
C1121 C1120 1.446 . S
C1121 C1122 1.339 . S
C1121 H1156 0.949 . S
C1122 C1121 1.339 . S
C1122 C1123 1.439 . S
C1122 H1157 0.950 . S
C1123 N1119 1.383 . S
C1123 C1122 1.439 . S
C1123 C1152 1.392 . S
N1124 Co1118 2.008 . S
N1124 C1125 1.376 . S
N1124 C1128 1.374 . S
C1125 N1124 1.376 . S
C1125 C1126 1.443 . S
C1125 C1152 1.389 . S
C1126 C1125 1.443 . S
C1126 C1127 1.340 . S
C1126 H1158 0.951 . S
C1127 C1126 1.340 . S
C1127 C1128 1.439 . S
C1127 H1159 0.950 . S
C1128 N1124 1.374 . S
C1128 C1127 1.439 . S
C1128 C1153 1.395 . S
N1129 Co1118 1.995 . S
N1129 C1130 1.376 . S
N1129 C1133 1.383 . S
C1130 N1129 1.376 . S
C1130 C1131 1.446 . S
C1130 C1153 1.391 . S
C1131 C1130 1.446 . S
C1131 C1132 1.339 . S
C1131 H1160 0.949 . S
C1132 C1131 1.339 . S
C1132 C1133 1.439 . S
C1132 H1161 0.950 . S
C1133 N1129 1.383 . S
C1133 C1132 1.439 . S
C1133 C1151 1.392 . S
N1134 Co1118 2.282 . S
N1134 C1137 1.332 . S
N1134 C1139 1.332 . S
C1135 C1136 1.386 . S
C1135 C1138 1.388 . S
C1136 C1135 1.386 . S
C1136 C1137 1.382 . S
C1136 H1162 0.950 . S
C1137 N1134 1.332 . S
C1137 C1136 1.382 . S
C1137 H1148 0.952 . S
C1138 C1135 1.388 . S
C1138 C1139 1.382 . S
C1138 H1163 0.950 . S
C1139 N1134 1.332 . S
C1139 C1138 1.382 . S
C1139 H1149 0.948 . S
N1140 Co1118 2.282 . S
N1140 C1144 1.332 . S
N1140 C1145 1.332 . S
C1141 C1142 1.388 . S
C1141 C1145 1.382 . S
C1141 H1164 0.950 . S
C1142 C1141 1.388 . S
C1142 C1143 1.386 . S
C1143 C1142 1.386 . S
C1143 C1144 1.382 . S
C1143 H1165 0.950 . S
C1144 N1140 1.332 . S
C1144 C1143 1.382 . S
C1144 H1146 0.952 . S
C1145 N1140 1.332 . S
C1145 C1141 1.382 . S
C1145 H1147 0.948 . S
H1146 C1144 0.952 . S
H1147 C1145 0.948 . S
H1148 C1137 0.952 . S
H1149 C1139 0.948 . S
C1150 C1116 1.395 . S
C1150 C1120 1.391 . S
C1151 C1113 1.389 . S
C1151 C1133 1.392 . S
C1152 C1123 1.392 . S
C1152 C1125 1.389 . S
C1153 C1128 1.395 . S
C1153 C1130 1.391 . S
H1154 C1114 0.951 . S
H1155 C1115 0.950 . S
H1156 C1121 0.949 . S
H1157 C1122 0.950 . S
H1158 C1126 0.951 . S
H1159 C1127 0.950 . S
H1160 C1131 0.949 . S
H1161 C1132 0.950 . S
H1162 C1136 0.950 . S
H1163 C1138 0.950 . S
H1164 C1141 0.950 . S
H1165 C1143 0.950 . S
C1166 C1167 1.443 . S
C1166 N1170 1.376 . S
C1166 C1204 1.389 . S
C1167 C1166 1.443 . S
C1167 C1168 1.340 . S
C1167 H1207 0.951 . S
C1168 C1167 1.340 . S
C1168 C1169 1.439 1_556 S
C1168 H1208 0.950 . S
C1169 C1168 1.439 1_554 S
C1169 N1170 1.374 1_554 S
C1169 C1203 1.395 . S
N1170 C1166 1.376 . S
N1170 C1169 1.374 1_556 S
N1170 Co1171 2.008 1_556 S
Co1171 N1170 2.008 1_554 S
Co1171 N1172 1.995 . S
Co1171 N1177 2.008 . S
Co1171 N1182 1.995 1_554 S
Co1171 N1187 2.282 . S
Co1171 N1193 2.282 1_554 S
N1172 Co1171 1.995 . S
N1172 C1173 1.376 . S
N1172 C1176 1.383 . S
C1173 N1172 1.376 . S
C1173 C1174 1.446 . S
C1173 C1203 1.391 . S
C1174 C1173 1.446 . S
C1174 C1175 1.339 . S
C1174 H1209 0.949 . S
C1175 C1174 1.339 . S
C1175 C1176 1.439 . S
C1175 H1210 0.950 . S
C1176 N1172 1.383 . S
C1176 C1175 1.439 . S
C1176 C1205 1.392 . S
N1177 Co1171 2.008 . S
N1177 C1178 1.376 . S
N1177 C1181 1.374 1_554 S
C1178 N1177 1.376 . S
C1178 C1179 1.443 . S
C1178 C1205 1.389 . S
C1179 C1178 1.443 . S
C1179 C1180 1.340 . S
C1179 H1211 0.951 . S
C1180 C1179 1.340 . S
C1180 C1181 1.439 1_554 S
C1180 H1212 0.950 . S
C1181 N1177 1.374 1_556 S
C1181 C1180 1.439 1_556 S
C1181 C1206 1.395 . S
N1182 Co1171 1.995 1_556 S
N1182 C1183 1.376 . S
N1182 C1186 1.383 . S
C1183 N1182 1.376 . S
C1183 C1184 1.446 . S
C1183 C1206 1.391 . S
C1184 C1183 1.446 . S
C1184 C1185 1.339 . S
C1184 H1213 0.949 . S
C1185 C1184 1.339 . S
C1185 C1186 1.439 . S
C1185 H1214 0.950 . S
C1186 N1182 1.383 . S
C1186 C1185 1.439 . S
C1186 C1204 1.392 . S
N1187 Co1171 2.282 . S
N1187 C1190 1.332 . S
N1187 C1192 1.332 . S
C1188 C1189 1.386 . S
C1188 C1191 1.388 . S
C1189 C1188 1.386 . S
C1189 C1190 1.382 . S
C1189 H1215 0.950 . S
C1190 N1187 1.332 . S
C1190 C1189 1.382 . S
C1190 H1201 0.952 1_554 S
C1191 C1188 1.388 . S
C1191 C1192 1.382 . S
C1191 H1216 0.950 . S
C1192 N1187 1.332 . S
C1192 C1191 1.382 . S
C1192 H1202 0.948 . S
N1193 Co1171 2.282 1_556 S
N1193 C1197 1.332 . S
N1193 C1198 1.332 . S
C1194 C1195 1.388 . S
C1194 C1198 1.382 . S
C1194 H1217 0.950 . S
C1195 C1194 1.388 . S
C1195 C1196 1.386 . S
C1196 C1195 1.386 . S
C1196 C1197 1.382 . S
C1196 H1218 0.950 . S
C1197 N1193 1.332 . S
C1197 C1196 1.382 . S
C1197 H1199 0.952 1_556 S
C1198 N1193 1.332 . S
C1198 C1194 1.382 . S
C1198 H1200 0.948 . S
H1199 C1197 0.952 1_554 S
H1200 C1198 0.948 . S
H1201 C1190 0.952 1_556 S
H1202 C1192 0.948 . S
C1203 C1169 1.395 . S
C1203 C1173 1.391 . S
C1204 C1166 1.389 . S
C1204 C1186 1.392 . S
C1205 C1176 1.392 . S
C1205 C1178 1.389 . S
C1206 C1181 1.395 . S
C1206 C1183 1.391 . S
H1207 C1167 0.951 . S
H1208 C1168 0.950 . S
H1209 C1174 0.949 . S
H1210 C1175 0.950 . S
H1211 C1179 0.951 . S
H1212 C1180 0.950 . S
H1213 C1184 0.949 . S
H1214 C1185 0.950 . S
H1215 C1189 0.950 . S
H1216 C1191 0.950 . S
H1217 C1194 0.950 . S
H1218 C1196 0.950 . S
C1219 C1220 1.443 . S
C1219 N1223 1.376 . S
C1219 C1257 1.389 . S
C1220 C1219 1.443 . S
C1220 C1221 1.340 . S
C1220 H1260 0.951 . S
C1221 C1220 1.340 . S
C1221 C1222 1.439 . S
C1221 H1261 0.950 . S
C1222 C1221 1.439 . S
C1222 N1223 1.374 . S
C1222 C1256 1.395 . S
N1223 C1219 1.376 . S
N1223 C1222 1.374 . S
N1223 Co1224 2.008 . S
Co1224 N1223 2.008 . S
Co1224 N1225 1.995 . S
Co1224 N1230 2.008 . S
Co1224 N1235 1.995 . S
Co1224 N1240 2.282 . S
Co1224 N1246 2.282 . S
N1225 Co1224 1.995 . S
N1225 C1226 1.376 . S
N1225 C1229 1.383 . S
C1226 N1225 1.376 . S
C1226 C1227 1.446 . S
C1226 C1256 1.391 . S
C1227 C1226 1.446 . S
C1227 C1228 1.339 . S
C1227 H1262 0.949 . S
C1228 C1227 1.339 . S
C1228 C1229 1.439 . S
C1228 H1263 0.950 . S
C1229 N1225 1.383 . S
C1229 C1228 1.439 . S
C1229 C1258 1.392 . S
N1230 Co1224 2.008 . S
N1230 C1231 1.376 . S
N1230 C1234 1.374 . S
C1231 N1230 1.376 . S
C1231 C1232 1.443 . S
C1231 C1258 1.389 . S
C1232 C1231 1.443 . S
C1232 C1233 1.340 . S
C1232 H1264 0.951 . S
C1233 C1232 1.340 . S
C1233 C1234 1.439 . S
C1233 H1265 0.950 . S
C1234 N1230 1.374 . S
C1234 C1233 1.439 . S
C1234 C1259 1.395 . S
N1235 Co1224 1.995 . S
N1235 C1236 1.376 . S
N1235 C1239 1.383 . S
C1236 N1235 1.376 . S
C1236 C1237 1.446 . S
C1236 C1259 1.391 . S
C1237 C1236 1.446 . S
C1237 C1238 1.339 . S
C1237 H1266 0.949 . S
C1238 C1237 1.339 . S
C1238 C1239 1.439 . S
C1238 H1267 0.950 . S
C1239 N1235 1.383 . S
C1239 C1238 1.439 . S
C1239 C1257 1.392 . S
N1240 Co1224 2.282 . S
N1240 C1243 1.332 . S
N1240 C1245 1.332 . S
C1241 C1242 1.386 . S
C1241 C1244 1.388 . S
C1242 C1241 1.386 . S
C1242 C1243 1.382 . S
C1242 H1268 0.950 . S
C1243 N1240 1.332 . S
C1243 C1242 1.382 . S
C1243 H1254 0.952 . S
C1244 C1241 1.388 . S
C1244 C1245 1.382 . S
C1244 H1269 0.950 . S
C1245 N1240 1.332 . S
C1245 C1244 1.382 . S
C1245 H1255 0.948 . S
N1246 Co1224 2.282 . S
N1246 C1250 1.332 . S
N1246 C1251 1.332 . S
C1247 C1248 1.388 . S
C1247 C1251 1.382 . S
C1247 H1270 0.950 . S
C1248 C1247 1.388 . S
C1248 C1249 1.386 . S
C1249 C1248 1.386 . S
C1249 C1250 1.382 . S
C1249 H1271 0.950 . S
C1250 N1246 1.332 . S
C1250 C1249 1.382 . S
C1250 H1252 0.952 . S
C1251 N1246 1.332 . S
C1251 C1247 1.382 . S
C1251 H1253 0.948 . S
H1252 C1250 0.952 . S
H1253 C1251 0.948 . S
H1254 C1243 0.952 . S
H1255 C1245 0.948 . S
C1256 C1222 1.395 . S
C1256 C1226 1.391 . S
C1257 C1219 1.389 . S
C1257 C1239 1.392 . S
C1258 C1229 1.392 . S
C1258 C1231 1.389 . S
C1259 C1234 1.395 . S
C1259 C1236 1.391 . S
H1260 C1220 0.951 . S
H1261 C1221 0.950 . S
H1262 C1227 0.949 . S
H1263 C1228 0.950 . S
H1264 C1232 0.951 . S
H1265 C1233 0.950 . S
H1266 C1237 0.949 . S
H1267 C1238 0.950 . S
H1268 C1242 0.950 . S
H1269 C1244 0.950 . S
H1270 C1247 0.950 . S
H1271 C1249 0.950 . S
C1272 C1273 1.387 . S
C1272 H1276 0.950 . S
C1272 C1281 1.390 . S
C1273 C1272 1.387 . S
C1273 C1275 1.387 . S
H1274 C1281 0.950 . S
C1275 C1273 1.387 . S
C1275 C1277 1.390 . S
C1275 H1279 0.950 . S
H1276 C1272 0.950 . S
C1277 C1275 1.390 . S
C1277 C1278 1.387 . S
C1277 H1280 0.950 . S
C1278 C1277 1.387 . S
C1278 C1281 1.387 . S
H1279 C1275 0.950 . S
H1280 C1277 0.950 . S
C1281 C1272 1.390 . S
C1281 H1274 0.950 . S
C1281 C1278 1.387 . S
C1282 C1283 1.387 . S
C1282 H1286 0.950 . S
C1282 C1291 1.390 . S
C1283 C1282 1.387 . S
C1283 C1285 1.387 . S
H1284 C1291 0.950 . S
C1285 C1283 1.387 . S
C1285 C1287 1.390 . S
C1285 H1289 0.950 . S
H1286 C1282 0.950 . S
C1287 C1285 1.390 . S
C1287 C1288 1.387 . S
C1287 H1290 0.950 . S
C1288 C1287 1.387 . S
C1288 C1291 1.387 . S
H1289 C1285 0.950 . S
H1290 C1287 0.950 . S
C1291 C1282 1.390 . S
C1291 H1284 0.950 . S
C1291 C1288 1.387 . S
C1292 C1293 1.387 . S
C1292 H1296 0.950 . S
C1292 C1301 1.390 . S
C1293 C1292 1.387 . S
C1293 C1295 1.387 . S
H1294 C1301 0.950 . S
C1295 C1293 1.387 . S
C1295 C1297 1.390 . S
C1295 H1299 0.950 . S
H1296 C1292 0.950 . S
C1297 C1295 1.390 . S
C1297 C1298 1.387 . S
C1297 H1300 0.950 . S
C1298 C1297 1.387 . S
C1298 C1301 1.387 . S
H1299 C1295 0.950 . S
H1300 C1297 0.950 . S
C1301 C1292 1.390 . S
C1301 H1294 0.950 . S
C1301 C1298 1.387 . S
C1302 C1303 1.387 . S
C1302 H1306 0.950 . S
C1302 C1311 1.390 . S
C1303 C1302 1.387 . S
C1303 C1305 1.387 . S
H1304 C1311 0.950 . S
C1305 C1303 1.387 . S
C1305 C1307 1.390 . S
C1305 H1309 0.950 . S
H1306 C1302 0.950 . S
C1307 C1305 1.390 . S
C1307 C1308 1.387 . S
C1307 H1310 0.950 . S
C1308 C1307 1.387 . S
C1308 C1311 1.387 . S
H1309 C1305 0.950 . S
H1310 C1307 0.950 . S
C1311 C1302 1.390 . S
C1311 H1304 0.950 . S
C1311 C1308 1.387 . S
C1312 C1313 1.387 . S
C1312 H1316 0.950 . S
C1312 C1321 1.390 . S
C1313 C1312 1.387 . S
C1313 C1315 1.387 . S
H1314 C1321 0.950 . S
C1315 C1313 1.387 . S
C1315 C1317 1.390 . S
C1315 H1319 0.950 . S
H1316 C1312 0.950 . S
C1317 C1315 1.390 . S
C1317 C1318 1.387 . S
C1317 H1320 0.950 . S
C1318 C1317 1.387 . S
C1318 C1321 1.387 . S
H1319 C1315 0.950 . S
H1320 C1317 0.950 . S
C1321 C1312 1.390 . S
C1321 H1314 0.950 . S
C1321 C1318 1.387 . S
C1322 C1323 1.387 . S
C1322 H1326 0.950 . S
C1322 C1331 1.390 . S
C1323 C1322 1.387 . S
C1323 C1325 1.387 . S
H1324 C1331 0.950 . S
C1325 C1323 1.387 . S
C1325 C1327 1.390 . S
C1325 H1329 0.950 . S
H1326 C1322 0.950 . S
C1327 C1325 1.390 . S
C1327 C1328 1.387 . S
C1327 H1330 0.950 . S
C1328 C1327 1.387 . S
C1328 C1331 1.387 . S
H1329 C1325 0.950 . S
H1330 C1327 0.950 . S
C1331 C1322 1.390 . S
C1331 H1324 0.950 . S
C1331 C1328 1.387 . S
C1332 C1333 1.387 . S
C1332 H1336 0.950 . S
C1332 C1341 1.390 . S
C1333 C1332 1.387 . S
C1333 C1335 1.387 . S
H1334 C1341 0.950 . S
C1335 C1333 1.387 . S
C1335 C1337 1.390 . S
C1335 H1339 0.950 . S
H1336 C1332 0.950 . S
C1337 C1335 1.390 . S
C1337 C1338 1.387 . S
C1337 H1340 0.950 . S
C1338 C1337 1.387 . S
C1338 C1341 1.387 . S
H1339 C1335 0.950 . S
H1340 C1337 0.950 . S
C1341 C1332 1.390 . S
C1341 H1334 0.950 . S
C1341 C1338 1.387 . S
C1342 C1343 1.387 . S
C1342 H1346 0.950 . S
C1342 C1351 1.390 . S
C1343 C1342 1.387 . S
C1343 C1345 1.387 . S
H1344 C1351 0.950 1_556 S
C1345 C1343 1.387 . S
C1345 C1347 1.390 . S
C1345 H1349 0.950 . S
H1346 C1342 0.950 . S
C1347 C1345 1.390 . S
C1347 C1348 1.387 . S
C1347 H1350 0.950 . S
C1348 C1347 1.387 . S
C1348 C1351 1.387 . S
H1349 C1345 0.950 . S
H1350 C1347 0.950 . S
C1351 C1342 1.390 . S
C1351 H1344 0.950 1_554 S
C1351 C1348 1.387 . S
C1352 C1353 1.387 . S
C1352 H1356 0.950 1_545 S
C1352 C1361 1.382 1_545 S
C1353 C1352 1.387 . S
C1353 C1355 1.387 . S
H1354 C1361 0.978 . S
C1355 C1353 1.387 . S
C1355 C1357 1.390 . S
C1355 H1359 0.950 . S
H1356 C1352 0.950 1_565 S
C1357 C1355 1.390 . S
C1357 C1358 1.387 . S
C1357 H1360 0.950 . S
C1358 C1357 1.387 . S
C1358 C1361 1.368 1_545 S
H1359 C1355 0.950 . S
H1360 C1357 0.950 . S
C1361 C1352 1.382 1_565 S
C1361 H1354 0.978 . S
C1361 C1358 1.368 1_565 S
C1362 C1363 1.387 . S
C1362 H1366 0.950 . S
C1362 C1371 1.390 . S
C1363 C1362 1.387 . S
C1363 C1365 1.387 . S
H1364 C1371 0.950 . S
C1365 C1363 1.387 . S
C1365 C1367 1.390 . S
C1365 H1369 0.950 . S
H1366 C1362 0.950 . S
C1367 C1365 1.390 . S
C1367 C1368 1.387 . S
C1367 H1370 0.950 . S
C1368 C1367 1.387 . S
C1368 C1371 1.387 . S
H1369 C1365 0.950 . S
H1370 C1367 0.950 . S
C1371 C1362 1.390 . S
C1371 H1364 0.950 . S
C1371 C1368 1.387 . S
C1372 C1373 1.387 1_545 S
C1372 H1376 0.950 . S
C1372 C1381 1.390 1_545 S
C1373 C1372 1.387 1_565 S
C1373 C1375 1.387 . S
H1374 C1381 0.950 1_545 S
C1375 C1373 1.387 . S
C1375 C1377 1.390 . S
C1375 H1379 0.950 . S
H1376 C1372 0.950 . S
C1377 C1375 1.390 . S
C1377 C1378 1.387 . S
C1377 H1380 0.950 . S
C1378 C1377 1.387 . S
C1378 C1381 1.387 . S
H1379 C1375 0.950 . S
H1380 C1377 0.950 . S
C1381 C1372 1.390 1_565 S
C1381 H1374 0.950 1_565 S
C1381 C1378 1.387 . S
C1382 C1383 1.387 . S
C1382 H1386 0.950 . S
C1382 C1391 1.390 . S
C1383 C1382 1.387 . S
C1383 C1385 1.387 . S
H1384 C1391 0.950 . S
C1385 C1383 1.387 . S
C1385 C1387 1.390 . S
C1385 H1389 0.950 . S
H1386 C1382 0.950 . S
C1387 C1385 1.390 . S
C1387 C1388 1.387 . S
C1387 H1390 0.950 . S
C1388 C1387 1.387 . S
C1388 C1391 1.387 . S
H1389 C1385 0.950 . S
H1390 C1387 0.950 . S
C1391 C1382 1.390 . S
C1391 H1384 0.950 . S
C1391 C1388 1.387 . S
C1392 C1393 1.387 . S
C1392 H1396 0.950 . S
C1392 C1401 1.390 . S
C1393 C1392 1.387 . S
C1393 C1395 1.387 . S
H1394 C1401 0.950 . S
C1395 C1393 1.387 . S
C1395 C1397 1.390 . S
C1395 H1399 0.950 . S
H1396 C1392 0.950 . S
C1397 C1395 1.390 . S
C1397 C1398 1.387 . S
C1397 H1400 0.950 . S
C1398 C1397 1.387 . S
C1398 C1401 1.387 . S
H1399 C1395 0.950 . S
H1400 C1397 0.950 . S
C1401 C1392 1.390 . S
C1401 H1394 0.950 . S
C1401 C1398 1.387 . S
C1402 C1403 1.387 . S
C1402 H1406 0.950 . S
C1402 C1411 1.390 . S
C1403 C1402 1.387 . S
C1403 C1405 1.387 . S
H1404 C1411 0.950 . S
C1405 C1403 1.387 . S
C1405 C1407 1.390 . S
C1405 H1409 0.950 . S
H1406 C1402 0.950 . S
C1407 C1405 1.390 . S
C1407 C1408 1.387 . S
C1407 H1410 0.950 . S
C1408 C1407 1.387 . S
C1408 C1411 1.387 . S
H1409 C1405 0.950 . S
H1410 C1407 0.950 . S
C1411 C1402 1.390 . S
C1411 H1404 0.950 . S
C1411 C1408 1.387 . S
C1412 C1413 1.387 . S
C1412 H1416 0.950 . S
C1412 C1421 1.390 . S
C1413 C1412 1.387 . S
C1413 C1415 1.387 . S
H1414 C1421 0.950 . S
C1415 C1413 1.387 . S
C1415 C1417 1.390 . S
C1415 H1419 0.950 . S
H1416 C1412 0.950 . S
C1417 C1415 1.390 . S
C1417 C1418 1.387 . S
C1417 H1420 0.950 . S
C1418 C1417 1.387 . S
C1418 C1421 1.387 . S
H1419 C1415 0.950 . S
H1420 C1417 0.950 . S
C1421 C1412 1.390 . S
C1421 H1414 0.950 . S
C1421 C1418 1.387 . S
C1422 C1423 1.387 . S
C1422 H1426 0.950 . S
C1422 C1431 1.390 . S
C1423 C1422 1.387 . S
C1423 C1425 1.387 . S
H1424 C1431 0.950 . S
C1425 C1423 1.387 . S
C1425 C1427 1.390 . S
C1425 H1429 0.950 . S
H1426 C1422 0.950 . S
C1427 C1425 1.390 . S
C1427 C1428 1.387 . S
C1427 H1430 0.950 . S
C1428 C1427 1.387 . S
C1428 C1431 1.387 . S
H1429 C1425 0.950 . S
H1430 C1427 0.950 . S
C1431 C1422 1.390 . S
C1431 H1424 0.950 . S
C1431 C1428 1.387 . S
C1432 C1433 1.387 . S
C1432 H1436 0.950 . S
C1432 C1441 1.390 . S
C1433 C1432 1.387 . S
C1433 C1435 1.387 . S
H1434 C1441 0.950 . S
C1435 C1433 1.387 . S
C1435 C1437 1.390 . S
C1435 H1439 0.950 . S
H1436 C1432 0.950 . S
C1437 C1435 1.390 . S
C1437 C1438 1.387 . S
C1437 H1440 0.950 . S
C1438 C1437 1.387 . S
C1438 C1441 1.387 . S
H1439 C1435 0.950 . S
H1440 C1437 0.950 . S
C1441 C1432 1.390 . S
C1441 H1434 0.950 . S
C1441 C1438 1.387 . S
C1442 C1443 1.387 . S
C1442 H1446 0.950 . S
C1442 C1451 1.390 . S
C1443 C1442 1.387 . S
C1443 C1445 1.387 . S
H1444 C1451 0.950 . S
C1445 C1443 1.387 . S
C1445 C1447 1.390 . S
C1445 H1449 0.950 . S
H1446 C1442 0.950 . S
C1447 C1445 1.390 . S
C1447 C1448 1.387 . S
C1447 H1450 0.950 . S
C1448 C1447 1.387 . S
C1448 C1451 1.387 . S
H1449 C1445 0.950 . S
H1450 C1447 0.950 . S
C1451 C1442 1.390 . S
C1451 H1444 0.950 . S
C1451 C1448 1.387 . S
C1452 C1453 1.387 . S
C1452 H1456 0.950 . S
C1452 C1461 1.390 . S
C1453 C1452 1.387 . S
C1453 C1455 1.387 . S
H1454 C1461 0.950 . S
C1455 C1453 1.387 . S
C1455 C1457 1.390 . S
C1455 H1459 0.950 . S
H1456 C1452 0.950 . S
C1457 C1455 1.390 . S
C1457 C1458 1.387 . S
C1457 H1460 0.950 . S
C1458 C1457 1.387 . S
C1458 C1461 1.387 . S
H1459 C1455 0.950 . S
H1460 C1457 0.950 . S
C1461 C1452 1.390 . S
C1461 H1454 0.950 . S
C1461 C1458 1.387 . S
C1462 C1463 1.387 . S
C1462 H1466 0.950 1_455 S
C1462 C1471 1.390 . S
C1463 C1462 1.387 . S
C1463 C1465 1.387 . S
H1464 C1471 0.950 1_655 S
C1465 C1463 1.387 . S
C1465 C1467 1.390 . S
C1465 H1469 0.950 . S
H1466 C1462 0.950 1_655 S
C1467 C1465 1.390 . S
C1467 C1468 1.387 . S
C1467 H1470 0.950 . S
C1468 C1467 1.387 . S
C1468 C1471 1.387 . S
H1469 C1465 0.950 . S
H1470 C1467 0.950 . S
C1471 C1462 1.390 . S
C1471 H1464 0.950 1_455 S
C1471 C1468 1.387 . S
C1472 C1473 1.387 . S
C1472 H1476 0.950 . S
C1472 C1481 1.390 . S
C1473 C1472 1.387 . S
C1473 C1475 1.387 . S
H1474 C1481 0.950 . S
C1475 C1473 1.387 . S
C1475 C1477 1.390 . S
C1475 H1479 0.950 . S
H1476 C1472 0.950 . S
C1477 C1475 1.390 . S
C1477 C1478 1.387 . S
C1477 H1480 0.950 . S
C1478 C1477 1.387 . S
C1478 C1481 1.387 . S
H1479 C1475 0.950 . S
H1480 C1477 0.950 . S
C1481 C1472 1.390 . S
C1481 H1474 0.950 . S
C1481 C1478 1.387 . S
C1482 C1483 1.387 . S
C1482 H1486 0.950 . S
C1482 C1491 1.390 . S
C1483 C1482 1.387 . S
C1483 C1485 1.387 . S
H1484 C1491 0.950 . S
C1485 C1483 1.387 . S
C1485 C1487 1.390 . S
C1485 H1489 0.950 . S
H1486 C1482 0.950 . S
C1487 C1485 1.390 . S
C1487 C1488 1.387 . S
C1487 H1490 0.950 . S
C1488 C1487 1.387 . S
C1488 C1491 1.387 . S
H1489 C1485 0.950 . S
H1490 C1487 0.950 . S
C1491 C1482 1.390 . S
C1491 H1484 0.950 . S
C1491 C1488 1.387 . S
C1492 C1493 1.387 . S
C1492 H1496 0.950 1_556 S
C1492 C1501 1.390 . S
C1493 C1492 1.387 . S
C1493 C1495 1.387 . S
H1494 C1501 0.950 . S
C1495 C1493 1.387 . S
C1495 C1497 1.390 . S
C1495 H1499 0.950 . S
H1496 C1492 0.950 1_554 S
C1497 C1495 1.390 . S
C1497 C1498 1.387 . S
C1497 H1500 0.950 . S
C1498 C1497 1.387 . S
C1498 C1501 1.387 . S
H1499 C1495 0.950 . S
H1500 C1497 0.950 . S
C1501 C1492 1.390 . S
C1501 H1494 0.950 . S
C1501 C1498 1.387 . S
C1502 C1503 1.387 . S
C1502 H1506 0.950 . S
C1502 C1511 1.390 . S
C1503 C1502 1.387 . S
C1503 C1505 1.387 . S
H1504 C1511 0.950 . S
C1505 C1503 1.387 . S
C1505 C1507 1.390 . S
C1505 H1509 0.950 . S
H1506 C1502 0.950 . S
C1507 C1505 1.390 . S
C1507 C1508 1.387 . S
C1507 H1510 0.950 . S
C1508 C1507 1.387 . S
C1508 C1511 1.387 . S
H1509 C1505 0.950 . S
H1510 C1507 0.950 . S
C1511 C1502 1.390 . S
C1511 H1504 0.950 . S
C1511 C1508 1.387 . S
C1512 C1513 1.387 . S
C1512 H1516 0.950 . S
C1512 C1521 1.390 . S
C1513 C1512 1.387 . S
C1513 C1515 1.387 . S
H1514 C1521 0.950 . S
C1515 C1513 1.387 . S
C1515 C1517 1.390 . S
C1515 H1519 0.950 . S
H1516 C1512 0.950 . S
C1517 C1515 1.390 . S
C1517 C1518 1.387 . S
C1517 H1520 0.950 . S
C1518 C1517 1.387 . S
C1518 C1521 1.387 . S
H1519 C1515 0.950 . S
H1520 C1517 0.950 . S
C1521 C1512 1.390 . S
C1521 H1514 0.950 . S
C1521 C1518 1.387 . S
C1522 C1523 1.387 . S
C1522 H1526 0.950 . S
C1522 C1531 1.390 . S
C1523 C1522 1.387 . S
C1523 C1525 1.387 . S
H1524 C1531 0.950 . S
C1525 C1523 1.387 . S
C1525 C1527 1.390 . S
C1525 H1529 0.950 . S
H1526 C1522 0.950 . S
C1527 C1525 1.390 . S
C1527 C1528 1.387 . S
C1527 H1530 0.950 . S
C1528 C1527 1.387 . S
C1528 C1531 1.387 . S
H1529 C1525 0.950 . S
H1530 C1527 0.950 . S
C1531 C1522 1.390 . S
C1531 H1524 0.950 . S
C1531 C1528 1.387 . S
C1532 C1533 1.387 . S
C1532 H1536 0.950 . S
C1532 C1541 1.390 . S
C1533 C1532 1.387 . S
C1533 C1535 1.387 . S
H1534 C1541 0.950 . S
C1535 C1533 1.387 . S
C1535 C1537 1.390 . S
C1535 H1539 0.950 . S
H1536 C1532 0.950 . S
C1537 C1535 1.390 . S
C1537 C1538 1.387 . S
C1537 H1540 0.950 . S
C1538 C1537 1.387 . S
C1538 C1541 1.387 . S
H1539 C1535 0.950 . S
H1540 C1537 0.950 . S
C1541 C1532 1.390 . S
C1541 H1534 0.950 . S
C1541 C1538 1.387 . S
C1542 C1543 1.387 . S
C1542 H1546 0.950 . S
C1542 C1551 1.390 . S
C1543 C1542 1.387 . S
C1543 C1545 1.387 . S
H1544 C1551 0.950 . S
C1545 C1543 1.387 . S
C1545 C1547 1.390 . S
C1545 H1549 0.950 . S
H1546 C1542 0.950 . S
C1547 C1545 1.390 . S
C1547 C1548 1.387 . S
C1547 H1550 0.950 . S
C1548 C1547 1.387 . S
C1548 C1551 1.387 . S
H1549 C1545 0.950 . S
H1550 C1547 0.950 . S
C1551 C1542 1.390 . S
C1551 H1544 0.950 . S
C1551 C1548 1.387 . S
C1552 C1553 1.387 . S
C1552 H1556 0.950 . S
C1552 C1561 1.390 . S
C1553 C1552 1.387 . S
C1553 C1555 1.387 . S
H1554 C1561 0.950 . S
C1555 C1553 1.387 . S
C1555 C1557 1.390 . S
C1555 H1559 0.950 . S
H1556 C1552 0.950 . S
C1557 C1555 1.390 . S
C1557 C1558 1.387 . S
C1557 H1560 0.950 . S
C1558 C1557 1.387 . S
C1558 C1561 1.387 . S
H1559 C1555 0.950 . S
H1560 C1557 0.950 . S
C1561 C1552 1.390 . S
C1561 H1554 0.950 . S
C1561 C1558 1.387 . S
C1562 C1563 1.387 . S
C1562 H1566 0.950 . S
C1562 C1571 1.390 . S
C1563 C1562 1.387 . S
C1563 C1565 1.387 . S
H1564 C1571 0.950 . S
C1565 C1563 1.387 . S
C1565 C1567 1.390 . S
C1565 H1569 0.950 . S
H1566 C1562 0.950 . S
C1567 C1565 1.390 . S
C1567 C1568 1.387 . S
C1567 H1570 0.950 . S
C1568 C1567 1.387 . S
C1568 C1571 1.387 . S
H1569 C1565 0.950 . S
H1570 C1567 0.950 . S
C1571 C1562 1.390 . S
C1571 H1564 0.950 . S
C1571 C1568 1.387 . S
C1572 C1573 1.387 . S
C1572 H1576 0.950 . S
C1572 C1581 1.390 . S
C1573 C1572 1.387 . S
C1573 C1575 1.387 . S
H1574 C1581 0.950 . S
C1575 C1573 1.387 . S
C1575 C1577 1.390 . S
C1575 H1579 0.950 . S
H1576 C1572 0.950 . S
C1577 C1575 1.390 . S
C1577 C1578 1.387 . S
C1577 H1580 0.950 . S
C1578 C1577 1.387 . S
C1578 C1581 1.387 . S
H1579 C1575 0.950 . S
H1580 C1577 0.950 . S
C1581 C1572 1.390 . S
C1581 H1574 0.950 . S
C1581 C1578 1.387 . S
C1582 C1583 1.387 . S
C1582 H1586 0.950 . S
C1582 C1591 1.390 . S
C1583 C1582 1.387 . S
C1583 C1585 1.387 . S
H1584 C1591 0.950 . S
C1585 C1583 1.387 . S
C1585 C1587 1.390 . S
C1585 H1589 0.950 . S
H1586 C1582 0.950 . S
C1587 C1585 1.390 . S
C1587 C1588 1.387 . S
C1587 H1590 0.950 . S
C1588 C1587 1.387 . S
C1588 C1591 1.387 . S
H1589 C1585 0.950 . S
H1590 C1587 0.950 . S
C1591 C1582 1.390 . S
C1591 H1584 0.950 . S
C1591 C1588 1.387 . S
C1592 C1593 1.387 1_556 S
C1592 H1596 0.950 . S
C1592 C1601 1.390 . S
C1593 C1592 1.387 1_554 S
C1593 C1595 1.387 . S
H1594 C1601 0.950 . S
C1595 C1593 1.387 . S
C1595 C1597 1.390 . S
C1595 H1599 0.950 . S
H1596 C1592 0.950 . S
C1597 C1595 1.390 . S
C1597 C1598 1.387 . S
C1597 H1600 0.950 . S
C1598 C1597 1.387 . S
C1598 C1601 1.387 1_554 S
H1599 C1595 0.950 . S
H1600 C1597 0.950 . S
C1601 C1592 1.390 . S
C1601 H1594 0.950 . S
C1601 C1598 1.387 1_556 S
C1602 C1603 1.387 . S
C1602 H1606 0.950 . S
C1602 C1611 1.390 . S
C1603 C1602 1.387 . S
C1603 C1605 1.387 . S
H1604 C1611 0.950 . S
C1605 C1603 1.387 . S
C1605 C1607 1.392 . S
C1605 H1609 0.950 1_556 S
H1606 C1602 0.950 . S
C1607 C1605 1.392 . S
C1607 C1608 1.402 . S
C1607 H1610 0.933 1_556 S
C1608 C1607 1.402 . S
C1608 C1611 1.387 . S
H1609 C1605 0.950 1_554 S
H1610 C1607 0.933 1_554 S
C1611 C1602 1.390 . S
C1611 H1604 0.950 . S
C1611 C1608 1.387 . S
C1612 C1613 1.387 . S
C1612 H1616 0.950 . S
C1612 C1621 1.390 . S
C1613 C1612 1.387 . S
C1613 C1615 1.387 . S
H1614 C1621 0.950 . S
C1615 C1613 1.387 . S
C1615 C1617 1.390 . S
C1615 H1619 0.950 . S
H1616 C1612 0.950 . S
C1617 C1615 1.390 . S
C1617 C1618 1.387 . S
C1617 H1620 0.950 . S
C1618 C1617 1.387 . S
C1618 C1621 1.387 . S
H1619 C1615 0.950 . S
H1620 C1617 0.950 . S
C1621 C1612 1.390 . S
C1621 H1614 0.950 . S
C1621 C1618 1.387 . S
C1622 C1623 1.387 . S
C1622 H1626 0.950 . S
C1622 C1631 1.390 . S
C1623 C1622 1.387 . S
C1623 C1625 1.387 . S
H1624 C1631 0.950 . S
C1625 C1623 1.387 . S
C1625 C1627 1.390 . S
C1625 H1629 0.950 . S
H1626 C1622 0.950 . S
C1627 C1625 1.390 . S
C1627 C1628 1.387 . S
C1627 H1630 0.950 . S
C1628 C1627 1.387 . S
C1628 C1631 1.387 . S
H1629 C1625 0.950 . S
H1630 C1627 0.950 . S
C1631 C1622 1.390 . S
C1631 H1624 0.950 . S
C1631 C1628 1.387 . S
C1632 C1633 1.387 . S
C1632 H1636 0.950 . S
C1632 C1641 1.390 . S
C1633 C1632 1.387 . S
C1633 C1635 1.387 . S
H1634 C1641 0.950 . S
C1635 C1633 1.387 . S
C1635 C1637 1.390 . S
C1635 H1639 0.950 . S
H1636 C1632 0.950 . S
C1637 C1635 1.390 . S
C1637 C1638 1.387 . S
C1637 H1640 0.950 . S
C1638 C1637 1.387 . S
C1638 C1641 1.387 . S
H1639 C1635 0.950 . S
H1640 C1637 0.950 . S
C1641 C1632 1.390 . S
C1641 H1634 0.950 . S
C1641 C1638 1.387 . S
C1642 C1643 1.387 . S
C1642 H1646 0.950 . S
C1642 C1651 1.390 . S
C1643 C1642 1.387 . S
C1643 C1645 1.387 . S
H1644 C1651 0.950 . S
C1645 C1643 1.387 . S
C1645 C1647 1.390 . S
C1645 H1649 0.950 . S
H1646 C1642 0.950 . S
C1647 C1645 1.390 . S
C1647 C1648 1.387 . S
C1647 H1650 0.950 . S
C1648 C1647 1.387 . S
C1648 C1651 1.387 . S
H1649 C1645 0.950 . S
H1650 C1647 0.950 . S
C1651 C1642 1.390 . S
C1651 H1644 0.950 . S
C1651 C1648 1.387 . S
C1652 C1653 1.387 . S
C1652 H1656 0.950 . S
C1652 C1661 1.390 . S
C1653 C1652 1.387 . S
C1653 C1655 1.387 . S
H1654 C1661 0.950 . S
C1655 C1653 1.387 . S
C1655 C1657 1.390 . S
C1655 H1659 0.950 . S
H1656 C1652 0.950 . S
C1657 C1655 1.390 . S
C1657 C1658 1.387 . S
C1657 H1660 0.950 . S
C1658 C1657 1.387 . S
C1658 C1661 1.387 . S
H1659 C1655 0.950 . S
H1660 C1657 0.950 . S
C1661 C1652 1.390 . S
C1661 H1654 0.950 . S
C1661 C1658 1.387 . S
C1662 C1663 1.387 . S
C1662 H1666 0.950 . S
C1662 C1671 1.390 . S
C1663 C1662 1.387 . S
C1663 C1665 1.387 . S
H1664 C1671 0.950 . S
C1665 C1663 1.387 . S
C1665 C1667 1.390 . S
C1665 H1669 0.950 . S
H1666 C1662 0.950 . S
C1667 C1665 1.390 . S
C1667 C1668 1.387 . S
C1667 H1670 0.950 . S
C1668 C1667 1.387 . S
C1668 C1671 1.387 . S
H1669 C1665 0.950 . S
H1670 C1667 0.950 . S
C1671 C1662 1.390 . S
C1671 H1664 0.950 . S
C1671 C1668 1.387 . S
C1672 C1673 1.387 . S
C1672 H1676 0.950 . S
C1672 C1681 1.390 . S
C1673 C1672 1.387 . S
C1673 C1675 1.387 . S
H1674 C1681 0.950 . S
C1675 C1673 1.387 . S
C1675 C1677 1.390 . S
C1675 H1679 0.950 . S
H1676 C1672 0.950 . S
C1677 C1675 1.390 . S
C1677 C1678 1.387 . S
C1677 H1680 0.950 . S
C1678 C1677 1.387 . S
C1678 C1681 1.387 . S
H1679 C1675 0.950 . S
H1680 C1677 0.950 . S
C1681 C1672 1.390 . S
C1681 H1674 0.950 . S
C1681 C1678 1.387 . S
C1682 C1683 1.387 . S
C1682 H1686 0.950 . S
C1682 C1691 1.390 . S
C1683 C1682 1.387 . S
C1683 C1685 1.387 . S
H1684 C1691 0.950 . S
C1685 C1683 1.387 . S
C1685 C1687 1.390 . S
C1685 H1689 0.950 . S
H1686 C1682 0.950 . S
C1687 C1685 1.390 . S
C1687 C1688 1.387 . S
C1687 H1690 0.950 . S
C1688 C1687 1.387 . S
C1688 C1691 1.387 . S
H1689 C1685 0.950 . S
H1690 C1687 0.950 . S
C1691 C1682 1.390 . S
C1691 H1684 0.950 . S
C1691 C1688 1.387 . S
C1692 C1693 1.387 . S
C1692 H1696 0.950 . S
C1692 C1701 1.390 . S
C1693 C1692 1.387 . S
C1693 C1695 1.387 . S
H1694 C1701 0.950 . S
C1695 C1693 1.387 . S
C1695 C1697 1.390 . S
C1695 H1699 0.950 . S
H1696 C1692 0.950 . S
C1697 C1695 1.390 . S
C1697 C1698 1.387 . S
C1697 H1700 0.950 . S
C1698 C1697 1.387 . S
C1698 C1701 1.387 . S
H1699 C1695 0.950 . S
H1700 C1697 0.950 . S
C1701 C1692 1.390 . S
C1701 H1694 0.950 . S
C1701 C1698 1.387 . S
C1702 C1703 1.387 . S
C1702 H1706 0.950 . S
C1702 C1711 1.390 . S
C1703 C1702 1.387 . S
C1703 C1705 1.387 . S
H1704 C1711 0.950 . S
C1705 C1703 1.387 . S
C1705 C1707 1.390 . S
C1705 H1709 0.950 . S
H1706 C1702 0.950 . S
C1707 C1705 1.390 . S
C1707 C1708 1.387 . S
C1707 H1710 0.950 . S
C1708 C1707 1.387 . S
C1708 C1711 1.387 . S
H1709 C1705 0.950 . S
H1710 C1707 0.950 . S
C1711 C1702 1.390 . S
C1711 H1704 0.950 . S
C1711 C1708 1.387 . S
C1712 C1713 1.387 . S
C1712 H1716 0.950 . S
C1712 C1721 1.390 . S
C1713 C1712 1.387 . S
C1713 C1715 1.387 . S
H1714 C1721 0.950 . S
C1715 C1713 1.387 . S
C1715 C1717 1.390 . S
C1715 H1719 0.950 . S
H1716 C1712 0.950 . S
C1717 C1715 1.390 . S
C1717 C1718 1.387 . S
C1717 H1720 0.950 . S
C1718 C1717 1.387 . S
C1718 C1721 1.387 . S
H1719 C1715 0.950 . S
H1720 C1717 0.950 . S
C1721 C1712 1.390 . S
C1721 H1714 0.950 . S
C1721 C1718 1.387 . S
C1722 C1723 1.387 . S
C1722 H1726 0.950 . S
C1722 C1731 1.390 . S
C1723 C1722 1.387 . S
C1723 C1725 1.387 . S
H1724 C1731 0.950 . S
C1725 C1723 1.387 . S
C1725 C1727 1.390 . S
C1725 H1729 0.950 . S
H1726 C1722 0.950 . S
C1727 C1725 1.390 . S
C1727 C1728 1.387 . S
C1727 H1730 0.950 . S
C1728 C1727 1.387 . S
C1728 C1731 1.387 . S
H1729 C1725 0.950 . S
H1730 C1727 0.950 . S
C1731 C1722 1.390 . S
C1731 H1724 0.950 . S
C1731 C1728 1.387 . S
C1732 C1733 1.387 . S
C1732 H1736 0.950 . S
C1732 C1741 1.390 . S
C1733 C1732 1.387 . S
C1733 C1735 1.387 . S
H1734 C1741 0.950 . S
C1735 C1733 1.387 . S
C1735 C1737 1.390 . S
C1735 H1739 0.950 . S
H1736 C1732 0.950 . S
C1737 C1735 1.390 . S
C1737 C1738 1.387 . S
C1737 H1740 0.950 . S
C1738 C1737 1.387 . S
C1738 C1741 1.387 . S
H1739 C1735 0.950 . S
H1740 C1737 0.950 . S
C1741 C1732 1.390 . S
C1741 H1734 0.950 . S
C1741 C1738 1.387 . S
C1742 C1743 1.387 . S
C1742 H1746 0.950 . S
C1742 C1751 1.390 . S
C1743 C1742 1.387 . S
C1743 C1745 1.387 . S
H1744 C1751 0.950 . S
C1745 C1743 1.387 . S
C1745 C1747 1.390 . S
C1745 H1749 0.950 . S
H1746 C1742 0.950 . S
C1747 C1745 1.390 . S
C1747 C1748 1.387 . S
C1747 H1750 0.950 . S
C1748 C1747 1.387 . S
C1748 C1751 1.387 . S
H1749 C1745 0.950 . S
H1750 C1747 0.950 . S
C1751 C1742 1.390 . S
C1751 H1744 0.950 . S
C1751 C1748 1.387 . S
C1273 C410 1.741 . S
C1278 C29 1.607 . S
C1283 C82 1.057 . S
C1288 C241 1.074 . S
C1293 C304 1.618 . S
C1298 C135 1.538 . S
C1303 C188 1.136 . S
C1308 C347 1.154 . S
C1313 C463 2.212 . S
C1318 C39 2.328 . S
C1323 C92 1.500 . S
C1328 C506 1.510 . S
C1333 C569 2.181 . S
C1338 C145 2.312 . S
C1343 C612 1.443 . S
C1348 C198 1.448 . S
C1353 C251 1.808 . S
C1358 C516 1.859 . S
C1363 C294 1.429 . S
C1368 C559 1.545 . S
C1373 C622 1.935 . S
C1378 C357 1.853 . S
C1383 C453 1.560 . S
C1388 C400 1.452 . S
C1393 C1142 1.727 . S
C1398 C675 1.628 . S
C1403 C728 1.861 . S
C1408 C1205 1.813 . S
C1413 C781 1.358 . S
C1418 C1248 1.419 . S
C1423 C1258 1.980 . S
C1428 C834 2.029 . S
C1433 C887 2.068 . S
C1438 C1152 2.066 . S
C1443 C1046 1.461 . S
C1448 C930 1.488 . S
C1453 C665 1.415 . S
C1458 C877 1.386 . S
C1463 C718 1.044 . S
C1468 C993 1.016 . S
C1473 C771 1.578 . S
C1478 C824 1.545 . S
C1483 C940 2.028 . S
C1488 C1099 2.029 . S
C1493 C983 1.256 . S
C1498 C1195 1.231 . S
C1503 C1089 1.110 . S
C1508 C1036 1.088 . S
C1513 C234 2.380 . S
C1518 C22 2.286 . S
C1523 C303 2.025 . S
C1528 C75 1.908 . S
C1533 C340 2.513 . S
C1538 C128 2.417 . S
C1543 C409 2.554 . S
C1548 C181 2.461 . S
C1553 C462 2.880 . S
C1558 C621 2.984 . S
C1563 C499 2.313 . S
C1568 C446 2.385 . S
C1573 C568 2.692 . S
C1578 C515 2.787 . S
C1583 C552 1.934 . S
C1588 C605 1.847 . S
C1593 C976 3.066 . S
C1598 C393 2.896 . S
C1603 C674 2.695 . S
C1608 C197 2.839 . S
C1613 C38 2.444 . S
C1618 C727 2.404 . S
C1623 C91 3.280 . S
C1628 C780 3.153 . S
C1633 C287 2.750 . S
C1638 C1029 2.861 . S
C1643 C250 2.120 . S
C1648 C833 2.173 . S
C1653 C356 2.113 . S
C1658 C886 2.183 . S
C1663 C870 2.319 . S
C1668 C923 2.413 . S
C1673 C658 1.855 . S
C1678 C992 1.780 . S
C1683 C817 2.330 . S
C1688 C711 2.486 . S
C1693 C1045 3.066 . S
C1698 C764 3.082 . S
C1703 C1098 2.579 . S
C1708 C1257 2.549 . S
C1713 C1082 2.301 . S
C1718 C1135 2.384 . S
C1723 C1204 2.746 . S
C1728 C1151 2.704 . S
C1733 C1241 1.907 . S
C1738 C1188 1.781 . S
C1743 C144 2.775 . S
C1748 C939 2.696 . S
