# Generated by pormake.
# Topology fnc, (5)-cn, num edge types: 1
# Building blocks:
#     Node 0, Type 0, BuildingBlock: XOMCOT_clean_sbu_0, # of connection points: 5
#     Node 1, Type 0, BuildingBlock: XOMCOT_clean_sbu_0, # of connection points: 5
#     Node 2, Type 0, BuildingBlock: XOMCOT_clean_sbu_0, # of connection points: 5
#     Node 3, Type 0, BuildingBlock: XOMCOT_clean_sbu_0, # of connection points: 5
#     Node 4, Type 0, BuildingBlock: XOMCOT_clean_sbu_0, # of connection points: 5
#     Node 5, Type 0, BuildingBlock: XOMCOT_clean_sbu_0, # of connection points: 5
#     Node 6, Type 0, BuildingBlock: XOMCOT_clean_sbu_0, # of connection points: 5
#     Node 7, Type 0, BuildingBlock: XOMCOT_clean_sbu_0, # of connection points: 5
#     Node 8, Type 0, BuildingBlock: XOMCOT_clean_sbu_0, # of connection points: 5
#     Node 9, Type 0, BuildingBlock: XOMCOT_clean_sbu_0, # of connection points: 5
#     Node 10, Type 0, BuildingBlock: XOMCOT_clean_sbu_0, # of connection points: 5
#     Node 11, Type 0, BuildingBlock: XOMCOT_clean_sbu_0, # of connection points: 5
#     Node 12, Type 0, BuildingBlock: XOMCOT_clean_sbu_0, # of connection points: 5
#     Node 13, Type 0, BuildingBlock: XOMCOT_clean_sbu_0, # of connection points: 5
#     Node 14, Type 0, BuildingBlock: XOMCOT_clean_sbu_0, # of connection points: 5
#     Node 15, Type 0, BuildingBlock: XOMCOT_clean_sbu_0, # of connection points: 5
#     Node 16, Type 0, BuildingBlock: XOMCOT_clean_sbu_0, # of connection points: 5
#     Node 17, Type 0, BuildingBlock: XOMCOT_clean_sbu_0, # of connection points: 5
#     Edge 18, Type (0, 0), BuildingBlock: XUDNAN_clean_linker_2, # of connection points: 2
#     Edge 19, Type (0, 0), BuildingBlock: XUDNAN_clean_linker_2, # of connection points: 2
#     Edge 20, Type (0, 0), BuildingBlock: XUDNAN_clean_linker_2, # of connection points: 2
#     Edge 21, Type (0, 0), BuildingBlock: XUDNAN_clean_linker_2, # of connection points: 2
#     Edge 22, Type (0, 0), BuildingBlock: XUDNAN_clean_linker_2, # of connection points: 2
#     Edge 23, Type (0, 0), BuildingBlock: XUDNAN_clean_linker_2, # of connection points: 2
#     Edge 24, Type (0, 0), BuildingBlock: XUDNAN_clean_linker_2, # of connection points: 2
#     Edge 25, Type (0, 0), BuildingBlock: XUDNAN_clean_linker_2, # of connection points: 2
#     Edge 26, Type (0, 0), BuildingBlock: XUDNAN_clean_linker_2, # of connection points: 2
#     Edge 27, Type (0, 0), BuildingBlock: XUDNAN_clean_linker_2, # of connection points: 2
#     Edge 28, Type (0, 0), BuildingBlock: XUDNAN_clean_linker_2, # of connection points: 2
#     Edge 29, Type (0, 0), BuildingBlock: XUDNAN_clean_linker_2, # of connection points: 2
#     Edge 30, Type (0, 0), BuildingBlock: XUDNAN_clean_linker_2, # of connection points: 2
#     Edge 31, Type (0, 0), BuildingBlock: XUDNAN_clean_linker_2, # of connection points: 2
#     Edge 32, Type (0, 0), BuildingBlock: XUDNAN_clean_linker_2, # of connection points: 2
#     Edge 33, Type (0, 0), BuildingBlock: XUDNAN_clean_linker_2, # of connection points: 2
#     Edge 34, Type (0, 0), BuildingBlock: XUDNAN_clean_linker_2, # of connection points: 2
#     Edge 35, Type (0, 0), BuildingBlock: XUDNAN_clean_linker_2, # of connection points: 2
#     Edge 36, Type (0, 0), BuildingBlock: XUDNAN_clean_linker_2, # of connection points: 2
#     Edge 37, Type (0, 0), BuildingBlock: XUDNAN_clean_linker_2, # of connection points: 2
#     Edge 38, Type (0, 0), BuildingBlock: XUDNAN_clean_linker_2, # of connection points: 2
#     Edge 39, Type (0, 0), BuildingBlock: XUDNAN_clean_linker_2, # of connection points: 2
#     Edge 40, Type (0, 0), BuildingBlock: XUDNAN_clean_linker_2, # of connection points: 2
#     Edge 41, Type (0, 0), BuildingBlock: XUDNAN_clean_linker_2, # of connection points: 2
#     Edge 42, Type (0, 0), BuildingBlock: XUDNAN_clean_linker_2, # of connection points: 2
#     Edge 43, Type (0, 0), BuildingBlock: XUDNAN_clean_linker_2, # of connection points: 2
#     Edge 44, Type (0, 0), BuildingBlock: XUDNAN_clean_linker_2, # of connection points: 2
#     Edge 45, Type (0, 0), BuildingBlock: XUDNAN_clean_linker_2, # of connection points: 2
#     Edge 46, Type (0, 0), BuildingBlock: XUDNAN_clean_linker_2, # of connection points: 2
#     Edge 47, Type (0, 0), BuildingBlock: XUDNAN_clean_linker_2, # of connection points: 2
#     Edge 48, Type (0, 0), BuildingBlock: XUDNAN_clean_linker_2, # of connection points: 2
#     Edge 49, Type (0, 0), BuildingBlock: XUDNAN_clean_linker_2, # of connection points: 2
#     Edge 50, Type (0, 0), BuildingBlock: XUDNAN_clean_linker_2, # of connection points: 2
#     Edge 51, Type (0, 0), BuildingBlock: XUDNAN_clean_linker_2, # of connection points: 2
#     Edge 52, Type (0, 0), BuildingBlock: XUDNAN_clean_linker_2, # of connection points: 2
#     Edge 53, Type (0, 0), BuildingBlock: XUDNAN_clean_linker_2, # of connection points: 2
#     Edge 54, Type (0, 0), BuildingBlock: XUDNAN_clean_linker_2, # of connection points: 2
#     Edge 55, Type (0, 0), BuildingBlock: XUDNAN_clean_linker_2, # of connection points: 2
#     Edge 56, Type (0, 0), BuildingBlock: XUDNAN_clean_linker_2, # of connection points: 2
#     Edge 57, Type (0, 0), BuildingBlock: XUDNAN_clean_linker_2, # of connection points: 2
#     Edge 58, Type (0, 0), BuildingBlock: XUDNAN_clean_linker_2, # of connection points: 2
#     Edge 59, Type (0, 0), BuildingBlock: XUDNAN_clean_linker_2, # of connection points: 2
#     Edge 60, Type (0, 0), BuildingBlock: XUDNAN_clean_linker_2, # of connection points: 2
#     Edge 61, Type (0, 0), BuildingBlock: XUDNAN_clean_linker_2, # of connection points: 2
#     Edge 62, Type (0, 0), BuildingBlock: XUDNAN_clean_linker_2, # of connection points: 2
# Relax obj value: 0.190
# Max RMSD: 0.311
# Mean RMSD: 0.298
data_MOF--net-fnc--node1-XOMCOT_clean_sbu_0--edge1-XUDNAN_clean_linker_2
_symmetry_space_group_name_H-M    P1
_symmetry_Int_Tables_number       1
_symmetry_cell_setting            triclinic
loop_
_symmetry_equiv_pos_as_xyz
'x, y, z'
_cell_length_a     91.943171
_cell_length_b     102.28771
_cell_length_c     17.577975
_cell_angle_alpha  90.657998
_cell_angle_beta   90.994057
_cell_angle_gamma 121.74721
loop_
_atom_site_label
_atom_site_type_symbol
_atom_site_fract_x
_atom_site_fract_y
_atom_site_fract_z
_atom_type_partial_charge
Co0 Co 0.0243 0.46384 0.07423 0.0
C1 C 0.02888 0.46886 0.90966 0.0
C2 C 0.04215 0.45819 0.95111 0.0
C3 C 0.04389 0.4596 0.87321 0.0
N4 N 0.03278 0.46407 0.97367 0.0
N5 N 0.03549 0.4663 0.84707 0.0
H6 H 0.02082 0.47363 0.90911 0.0
H7 H 0.04703 0.45292 0.9882 0.0
C8 C 0.05854 0.47463 0.15762 0.0
O9 O 0.06124 0.48815 0.17747 0.0
N10 N 0.01527 0.46322 0.17552 0.0
C11 C -0.0004 0.46073 0.18981 0.0
C12 C -0.0019 0.46195 0.26674 0.0
C13 C 0.02281 0.4654 0.24547 0.0
N14 N 0.01267 0.46486 0.30157 0.0
C15 C 0.0251 0.49197 0.08647 0.0
C16 C 0.05781 0.51096 0.03477 0.0
C17 C 0.04785 0.5173 0.05104 0.0
C18 C 0.03124 0.5075 0.07686 0.0
C19 C 0.051 0.49523 0.04375 0.0
N20 N 0.03502 0.48602 0.07171 0.0
H21 H 0.012 0.48459 0.10233 0.0
H22 H 0.05858 0.49043 0.02784 0.0
H23 H 0.98993 0.45864 0.14738 0.0
H24 H 0.03549 0.46766 0.25629 0.0
O25 O 0.00257 0.45812 0.02653 0.0
O26 O 0.01 0.44181 0.06554 0.0
O27 O 0.04495 0.46465 0.12106 0.0
C28 C -0.00128 0.44396 0.03191 0.0
H29 H 0.05069 0.45582 0.83873 0.0
H30 H 0.9872 0.46095 0.295 0.0
H31 H 0.0707 0.51798 0.0145 0.0
H32 H 0.02268 0.51157 0.08681 0.0
Co33 Co 0.61076 0.67585 0.0113 0.0
C34 C 0.61193 0.67326 0.18021 0.0
C35 C 0.63645 0.68255 0.12919 0.0
C36 C 0.63848 0.68173 0.20606 0.0
N37 N 0.61983 0.67707 0.11278 0.0
N38 N 0.62311 0.67589 0.23804 0.0
H39 H 0.59835 0.66844 0.1866 0.0
H40 H 0.64646 0.68692 0.08796 0.0
C41 C 0.62566 0.65931 0.92926 0.0
O42 O 0.61112 0.64986 0.89289 0.0
N43 N 0.60249 0.67532 0.90754 0.0
C44 C 0.58789 0.67423 0.88259 0.0
C45 C 0.58756 0.67424 0.80402 0.0
C46 C 0.61124 0.67708 0.84374 0.0
N47 N 0.6022 0.67581 0.77982 0.0
C48 C 0.57631 0.65066 0.02473 0.0
C49 C 0.58401 0.62899 0.06657 0.0
C50 C 0.5668 0.62467 0.06046 0.0
C51 C 0.56307 0.63578 0.03951 0.0
C52 C 0.5969 0.64406 0.05093 0.0
N53 N 0.59295 0.65454 0.02725 0.0
H54 H 0.57312 0.65919 0.01411 0.0
H55 H 0.61006 0.64738 0.06017 0.0
H56 H 0.5782 0.67378 0.91805 0.0
H57 H 0.62417 0.67947 0.84374 0.0
O58 O 0.59906 0.68558 0.04834 0.0
O59 O 0.62553 0.69787 1.00591 0.0
O60 O 0.62719 0.66992 0.97401 0.0
C61 C 0.61317 0.69858 0.03691 0.0
H62 H 0.65039 0.68529 0.23643 0.0
H63 H 0.5772 0.67287 0.76771 0.0
H64 H 0.58752 0.62095 0.08541 0.0
H65 H 0.55 0.63307 0.03502 0.0
Co66 Co 0.4311 0.08164 0.133 0.0
C67 C 0.43085 0.08018 0.96388 0.0
C68 C 0.40789 0.0612 1.00631 0.0
C69 C 0.40634 0.06103 0.92788 0.0
N70 N 0.42354 0.07298 0.02926 0.0
N71 N 0.42077 0.07309 0.90145 0.0
H72 H 0.44271 0.09114 0.96187 0.0
H73 H 0.39767 0.05393 0.04382 0.0
C74 C 0.41217 0.04769 0.16181 0.0
O75 O 0.41942 0.04533 0.10397 0.0
N76 N 0.43851 0.09067 0.2347 0.0
C77 C 0.45381 0.10336 0.2521 0.0
C78 C 0.45489 0.1063 0.32908 0.0
C79 C 0.43047 0.08593 0.3018 0.0
N80 N 0.44026 0.09538 0.36049 0.0
C81 C 0.46247 0.08469 0.08102 0.0
C82 C 0.46617 0.06944 0.20155 0.0
C83 C 0.47892 0.07588 0.14744 0.0
C84 C 0.4769 0.08344 0.08602 0.0
C85 C 0.45186 0.07071 0.19372 0.0
N86 N 0.44995 0.07808 0.13347 0.0
H87 H 0.46188 0.09161 0.03704 0.0
H88 H 0.44265 0.06628 0.23831 0.0
H89 H 0.46363 0.10993 0.21154 0.0
H90 H 0.41776 0.07593 0.30759 0.0
O91 O 0.44221 0.10209 0.09141 0.0
O92 O 0.41531 0.08851 0.12843 0.0
O93 O 0.41539 0.06112 0.1791 0.0
C94 C 0.42755 0.10103 0.09909 0.0
H95 H 0.39495 0.05344 0.89369 0.0
H96 H 0.46578 0.11565 0.35991 0.0
H97 H 0.46736 0.06365 0.25029 0.0
H98 H 0.48675 0.08893 0.04419 0.0
Co99 Co 0.06336 0.66521 0.9794 0.0
C100 C 0.06087 0.6651 0.1494 0.0
C101 C 0.03733 0.65919 0.09177 0.0
C102 C 0.03554 0.66039 0.16847 0.0
N103 N 0.05322 0.66216 0.07925 0.0
N104 N 0.05033 0.66422 0.20482 0.0
H105 H 0.07414 0.66873 0.15936 0.0
H106 H 0.02785 0.65706 0.04822 0.0
C107 C 0.03323 0.64496 0.87338 0.0
O108 O 0.04209 0.64029 0.83681 0.0
N109 N 0.07335 0.66872 0.8784 0.0
C110 C 0.08695 0.6682 0.85501 0.0
C111 C 0.08857 0.67049 0.77775 0.0
C112 C 0.06752 0.67216 0.81505 0.0
N113 N 0.07621 0.67281 0.75229 0.0
C114 C 0.07853 0.64721 1.00107 0.0
C115 C 0.0485 0.61881 1.00151 0.0
C116 C 0.06417 0.61958 1.0031 0.0
C117 C 0.07931 0.634 1.00492 0.0
C118 C 0.04834 0.63236 0.99631 0.0
N119 N 0.06326 0.64627 0.99072 0.0
H120 H 0.09031 0.65822 1.00636 0.0
H121 H 0.03619 0.63161 0.99717 0.0
H122 H 0.0954 0.66644 0.89036 0.0
H123 H 0.05664 0.67354 0.81455 0.0
O124 O 0.08559 0.67948 0.02472 0.0
O125 O 0.06733 0.68566 0.97995 0.0
O126 O 0.03974 0.65428 0.93039 0.0
C127 C 0.08186 0.68997 0.01459 0.0
H128 H 0.02434 0.65906 0.19531 0.0
H129 H 0.09817 0.67047 0.74312 0.0
H130 H 0.03652 0.60785 1.00274 0.0
H131 H 0.09166 0.63506 1.00986 0.0
Co132 Co 0.45472 0.4594 0.12032 0.0
C133 C 0.45488 0.46438 0.95542 0.0
C134 C 0.42929 0.44976 0.99363 0.0
C135 C 0.42877 0.45047 0.9153 0.0
N136 N 0.44567 0.45852 0.01856 0.0
N137 N 0.4449 0.45963 0.89125 0.0
H138 H 0.46871 0.47127 0.95647 0.0
H139 H 0.41856 0.44278 0.02942 0.0
C140 C 0.43164 0.46661 0.20916 0.0
O141 O 0.44474 0.47849 0.24432 0.0
N142 N 0.46397 0.45984 0.22274 0.0
C143 C 0.47956 0.46199 0.23811 0.0
C144 C 0.48236 0.46281 0.31541 0.0
C145 C 0.4571 0.45833 0.29236 0.0
N146 N 0.4683 0.46062 0.34954 0.0
C147 C 0.4844 0.48997 0.13076 0.0
C148 C 0.46781 0.50513 0.09341 0.0
C149 C 0.48542 0.51376 0.1105 0.0
C150 C 0.49376 0.50597 0.12827 0.0
C151 C 0.45896 0.48911 0.09617 0.0
N152 N 0.46711 0.48174 0.11817 0.0
H153 H 0.49122 0.48424 0.14118 0.0
H154 H 0.4455 0.48261 0.08046 0.0
H155 H 0.48866 0.46327 0.19625 0.0
H156 H 0.44436 0.45583 0.30218 0.0
O157 O 0.47158 0.45621 0.07481 0.0
O158 O 0.44598 0.43769 0.11153 0.0
O159 O 0.43376 0.45808 0.1627 0.0
C160 C 0.4602 0.44158 0.07809 0.0
H161 H 0.4174 0.44442 0.87898 0.0
H162 H 0.49401 0.4652 0.3445 0.0
H163 H 0.46099 0.51068 0.07684 0.0
H164 H 0.5074 0.51218 0.1406 0.0
Co165 Co 0.60734 0.03565 0.08801 0.0
C166 C 0.60941 0.03887 0.25733 0.0
C167 C 0.63412 0.0505 0.20646 0.0
C168 C 0.63642 0.05302 0.28382 0.0
N169 N 0.61723 0.04184 0.18976 0.0
N170 N 0.62093 0.04573 0.31563 0.0
H171 H 0.59567 0.03228 0.26344 0.0
H172 H 0.6441 0.0548 0.16511 0.0
C173 C 0.6273 0.06734 0.01716 0.0
O174 O 0.61344 0.06726 0.9968 0.0
N175 N 0.5981 0.02939 0.98388 0.0
C176 C 0.58328 0.01682 0.9588 0.0
C177 C 0.58237 0.01679 0.88023 0.0
C178 C 0.60633 0.0362 0.91969 0.0
N179 N 0.59687 0.02914 0.85595 0.0
C180 C 0.57543 0.0344 0.09494 0.0
C181 C 0.58866 0.0636 0.15685 0.0
C182 C 0.57115 0.05464 0.13798 0.0
C183 C 0.56452 0.03978 0.10765 0.0
C184 C 0.59916 0.05782 0.14229 0.0
N185 N 0.59263 0.04362 0.10858 0.0
H186 H 0.56992 0.02269 0.07562 0.0
H187 H 0.61262 0.06485 0.15741 0.0
H188 H 0.57384 0.008 0.99447 0.0
H189 H 0.61937 0.04572 0.91865 0.0
O190 O 0.59283 0.01485 0.12266 0.0
O191 O 0.61878 0.02464 0.07613 0.0
O192 O 0.62639 0.05601 0.05146 0.0
C193 C 0.60548 0.01308 0.10641 0.0
H194 H 0.64855 0.05972 0.31454 0.0
H195 H 0.57185 0.00838 0.84407 0.0
H196 H 0.59423 0.07505 0.18166 0.0
H197 H 0.55094 0.03224 0.0954 0.0
Co198 Co 0.70154 0.80307 0.45079 0.0
C199 C 0.69856 0.80002 0.61998 0.0
C200 C 0.68089 0.77899 0.55925 0.0
C201 C 0.67995 0.77611 0.63588 0.0
N202 N 0.69258 0.79395 0.54894 0.0
N203 N 0.69111 0.78927 0.67425 0.0
H204 H 0.70895 0.81173 0.63126 0.0
H205 H 0.67415 0.77054 0.51396 0.0
C206 C 0.67137 0.79081 0.34476 0.0
O207 O 0.67771 0.80488 0.32105 0.0
N208 N 0.71061 0.81163 0.35062 0.0
C209 C 0.71921 0.8263 0.3269 0.0
C210 C 0.72102 0.82631 0.24911 0.0
C211 C 0.70804 0.80307 0.28652 0.0
N212 N 0.71383 0.81168 0.2234 0.0
C213 C 0.70668 0.83278 0.48385 0.0
C214 C 0.67247 0.82299 0.49485 0.0
C215 C 0.68469 0.83875 0.49658 0.0
C216 C 0.70204 0.84363 0.49379 0.0
C217 C 0.67772 0.81257 0.48365 0.0
N218 N 0.69453 0.81763 0.47174 0.0
H219 H 0.72009 0.83661 0.48469 0.0
H220 H 0.66819 0.80043 0.48365 0.0
H221 H 0.72385 0.83648 0.36187 0.0
H222 H 0.70118 0.79063 0.28581 0.0
O223 O 0.72429 0.81429 0.49656 0.0
O224 O 0.71187 0.79095 0.44285 0.0
O225 O 0.67886 0.78801 0.39843 0.0
C226 C 0.72499 0.80223 0.47943 0.0
H227 H 0.67205 0.765 0.66126 0.0
H228 H 0.72709 0.83639 0.21419 0.0
H229 H 0.65898 0.8188 0.49956 0.0
H230 H 0.71188 0.85572 0.49866 0.0
Co231 Co 0.28004 0.98897 0.46815 0.0
C232 C 0.28015 0.98446 0.63314 0.0
C233 C 0.30555 -0.00018 0.5945 0.0
C234 C 0.30618 -0.00064 0.67288 0.0
N235 N 0.28923 0.99044 0.56988 0.0
N236 N 0.29017 0.98971 0.69707 0.0
H237 H 0.26635 0.97708 0.6324 0.0
H238 H 0.31612 0.00704 0.5584 0.0
C239 C 0.30388 0.98254 0.37828 0.0
O240 O 0.29125 0.97079 0.34015 0.0
N241 N 0.27057 0.98781 0.36552 0.0
C242 C 0.25439 0.98413 0.34952 0.0
C243 C 0.25171 0.98323 0.27217 0.0
C244 C 0.27779 0.99007 0.29631 0.0
N245 N 0.26636 0.98683 0.23868 0.0
C246 C 0.25013 0.95885 0.47192 0.0
C247 C 0.26661 0.94287 0.48705 0.0
C248 C 0.24877 0.93473 0.47908 0.0
C249 C 0.24048 0.94288 0.47393 0.0
C250 C 0.27577 0.95895 0.48698 0.0
N251 N 0.26757 0.96667 0.47377 0.0
H252 H 0.24346 0.96488 0.46952 0.0
H253 H 0.28944 0.96514 0.49702 0.0
H254 H 0.24492 0.98209 0.39084 0.0
H255 H 0.29096 0.99373 0.28725 0.0
O256 O 0.26319 0.99255 0.51118 0.0
O257 O 0.2889 0.01068 0.47329 0.0
O258 O 0.30105 0.99027 0.42689 0.0
C259 C 0.27455 0.00707 0.50438 0.0
H260 H 0.31749 0.00587 0.70918 0.0
H261 H 0.23976 0.97982 0.24256 0.0
H262 H 0.27335 0.93686 0.49324 0.0
H263 H 0.22665 0.93692 0.46921 0.0
Co264 Co 0.08731 0.38445 0.43897 0.0
C265 C 0.08582 0.38399 0.60615 0.0
C266 C 0.08436 0.40282 0.56318 0.0
C267 C 0.08283 0.4026 0.64134 0.0
N268 N 0.08625 0.39113 0.54136 0.0
N269 N 0.08361 0.39066 0.66805 0.0
H270 H 0.0868 0.37391 0.60775 0.0
H271 H 0.08358 0.41066 0.52506 0.0
C272 C 0.10398 0.41369 0.34796 0.0
O273 O 0.11403 0.41017 0.31302 0.0
N274 N 0.08813 0.37739 0.33649 0.0
C275 C 0.09189 0.36664 0.31878 0.0
C276 C 0.0895 0.36356 0.24191 0.0
C277 C 0.08306 0.38041 0.26944 0.0
N278 N 0.08401 0.37223 0.21077 0.0
C279 C 0.11337 0.37825 0.47913 0.0
C280 C 0.14089 0.40816 0.47801 0.0
C281 C 0.14401 0.39621 0.48713 0.0
C282 C 0.12986 0.38115 0.49083 0.0
C283 C 0.1241 0.40473 0.46789 0.0
N284 N 0.11069 0.38983 0.46242 0.0
H285 H 0.10276 0.36657 0.48283 0.0
H286 H 0.12206 0.41415 0.46457 0.0
H287 H 0.09542 0.36081 0.35871 0.0
H288 H 0.07826 0.38802 0.26393 0.0
O289 O 0.07466 0.36323 0.47145 0.0
O290 O 0.06318 0.37588 0.4244 0.0
O291 O 0.09433 0.40535 0.4008 0.0
C292 C 0.06094 0.36331 0.45283 0.0
H293 H 0.08056 0.41021 0.67537 0.0
H294 H 0.09146 0.3554 0.2112 0.0
H295 H 0.15129 0.42005 0.47705 0.0
H296 H 0.13143 0.37159 0.5024 0.0
Co297 Co 0.69583 0.98232 0.40797 0.0
C298 C 0.69188 0.97791 0.57259 0.0
C299 C 0.67724 0.98721 0.52994 0.0
C300 C 0.6759 0.98624 0.60814 0.0
N301 N 0.68723 0.98193 0.50807 0.0
N302 N 0.68514 0.9804 0.63478 0.0
H303 H 0.7006 0.97383 0.57391 0.0
H304 H 0.67171 0.99181 0.4921 0.0
C305 C 0.66259 0.96657 0.31627 0.0
O306 O 0.66614 0.95677 0.28645 0.0
N307 N 0.70514 0.9832 0.307 0.0
C308 C 0.7203 0.98452 0.29379 0.0
C309 C 0.7223 0.98405 0.21688 0.0
C310 C 0.69876 0.98307 0.23647 0.0
N311 N 0.70871 0.98303 0.18085 0.0
C312 C 0.7 0.95658 0.41281 0.0
C313 C 0.66689 0.93488 0.4511 0.0
C314 C 0.67874 0.93034 0.44222 0.0
C315 C 0.69554 0.9415 0.42397 0.0
C316 C 0.67195 0.95021 0.43963 0.0
N317 N 0.68817 0.96071 0.41752 0.0
H318 H 0.7132 0.96501 0.40358 0.0
H319 H 0.66287 0.95367 0.44956 0.0
H320 H 0.72947 0.98571 0.33679 0.0
H321 H 0.68711 0.98288 0.2251 0.0
O322 O 0.71833 0.99118 0.45428 0.0
O323 O 0.70725 0.00444 0.41003 0.0
O324 O 0.67316 0.97735 0.36198 0.0
C325 C 0.71991 0.00445 0.44454 0.0
H326 H 0.66881 0.98971 0.64257 0.0
H327 H 0.73286 0.98426 0.18935 0.0
H328 H 0.65386 0.92672 0.46686 0.0
H329 H 0.70539 0.93874 0.4206 0.0
Co330 Co 0.08919 0.79318 0.37581 0.0
C331 C 0.08855 0.79045 0.54668 0.0
C332 C 0.08185 0.76958 0.48681 0.0
C333 C 0.07926 0.76655 0.56277 0.0
N334 N 0.08806 0.78463 0.47606 0.0
N335 N 0.08331 0.77961 0.6007 0.0
H336 H 0.09123 0.80192 0.5579 0.0
H337 H 0.07829 0.76104 0.4419 0.0
C338 C 0.10571 0.77474 0.34882 0.0
O339 O 0.11497 0.78033 0.41204 0.0
N340 N 0.08961 0.80095 0.27525 0.0
C341 C 0.09651 0.81561 0.25384 0.0
C342 C 0.09518 0.81576 0.17534 0.0
C343 C 0.08405 0.79241 0.21013 0.0
N344 N 0.08733 0.80113 0.14797 0.0
C345 C 0.11762 0.82068 0.44513 0.0
C346 C 0.14225 0.82187 0.35262 0.0
C347 C 0.14735 0.83372 0.4074 0.0
C348 C 0.13456 0.83301 0.45348 0.0
C349 C 0.12511 0.81032 0.34353 0.0
N350 N 0.11312 0.8093 0.39193 0.0
H351 H 0.108 0.82071 0.47917 0.0
H352 H 0.12152 0.8024 0.29583 0.0
H353 H 0.10242 0.82551 0.29229 0.0
H354 H 0.07815 0.78006 0.20835 0.0
O355 O 0.07819 0.80348 0.41612 0.0
O356 O 0.06489 0.77986 0.36486 0.0
O357 O 0.09529 0.77879 0.32839 0.0
C358 C 0.06389 0.79081 0.39743 0.0
H359 H 0.07408 0.75537 0.58769 0.0
H360 H 0.09965 0.82585 0.14122 0.0
H361 H 0.15121 0.82144 0.31541 0.0
H362 H 0.13729 0.84206 0.49423 0.0
Co363 Co 0.29142 0.38117 0.42694 0.0
C364 C 0.29264 0.38631 0.59446 0.0
C365 C 0.31681 0.3912 0.55431 0.0
C366 C 0.31784 0.39257 0.63275 0.0
N367 N 0.30104 0.38747 0.53012 0.0
N368 N 0.30259 0.38949 0.65795 0.0
H369 H 0.27926 0.38241 0.59558 0.0
H370 H 0.32678 0.39249 0.51753 0.0
C371 C 0.31954 0.41471 0.41691 0.0
O372 O 0.31815 0.41751 0.48864 0.0
N373 N 0.28164 0.37448 0.32505 0.0
C374 C 0.26506 0.36408 0.30806 0.0
C375 C 0.26244 0.36359 0.23055 0.0
C376 C 0.28899 0.37999 0.25735 0.0
N377 N 0.27746 0.37357 0.19881 0.0
C378 C 0.25996 0.37735 0.47687 0.0
C379 C 0.26542 0.40524 0.42998 0.0
C380 C 0.24998 0.39486 0.46394 0.0
C381 C 0.24728 0.38074 0.4872 0.0
C382 C 0.27769 0.40128 0.41948 0.0
N383 N 0.27513 0.38763 0.44471 0.0
H384 H 0.25748 0.36635 0.49511 0.0
H385 H 0.28887 0.40914 0.3888 0.0
H386 H 0.25539 0.35766 0.34937 0.0
H387 H 0.30225 0.38896 0.25108 0.0
O388 O 0.27827 0.36014 0.46129 0.0
O389 O 0.30423 0.37135 0.41373 0.0
O390 O 0.30928 0.40158 0.38551 0.0
C391 C 0.29138 0.35929 0.44284 0.0
H392 H 0.3289 0.39542 0.66825 0.0
H393 H 0.25033 0.35668 0.19986 0.0
H394 H 0.26775 0.4161 0.40931 0.0
H395 H 0.23545 0.37238 0.51339 0.0
Co396 Co 0.32619 0.12202 0.82737 0.0
C397 C 0.33093 0.12696 0.66036 0.0
C398 C 0.34459 0.11697 0.70492 0.0
C399 C 0.34637 0.11797 0.62692 0.0
N400 N 0.33513 0.12288 0.72622 0.0
N401 N 0.33778 0.12431 0.59901 0.0
H402 H 0.32221 0.13094 0.6561 0.0
H403 H 0.34953 0.11194 0.74331 0.0
C404 C 0.36455 0.13955 0.8508 0.0
O405 O 0.36668 0.14671 0.78655 0.0
N406 N 0.31699 0.1209 0.92706 0.0
C407 C 0.30275 0.12116 0.9402 0.0
C408 C 0.30144 0.12246 0.01735 0.0
C409 C 0.32409 0.1219 0.9967 0.0
N410 N 0.31485 0.12296 0.05281 0.0
C411 C 0.31729 0.14327 0.77357 0.0
C412 C 0.34379 0.16933 0.84541 0.0
C413 C 0.33281 0.17079 0.79471 0.0
C414 C 0.31909 0.15744 0.76057 0.0
C415 C 0.34148 0.15486 0.85682 0.0
N416 N 0.32908 0.1422 0.81685 0.0
H417 H 0.30648 0.13315 0.74733 0.0
H418 H 0.34967 0.15399 0.8983 0.0
H419 H 0.29432 0.12114 0.89647 0.0
H420 H 0.33616 0.12268 1.00622 0.0
O421 O 0.30328 0.10913 0.78394 0.0
O422 O 0.31932 0.10078 0.83162 0.0
O423 O 0.34956 0.13051 0.87546 0.0
C424 C 0.30516 0.09761 0.79733 0.0
H425 H 0.3533 0.11416 0.59349 0.0
H426 H 0.29165 0.12347 0.04524 0.0
H427 H 0.35428 0.17929 0.87486 0.0
H428 H 0.30981 0.15792 0.72384 0.0
Co429 Co 0.92852 0.33174 0.67374 0.0
C430 C 0.92959 0.32758 0.84456 0.0
C431 C 0.95331 0.33516 0.79005 0.0
C432 C 0.95588 0.33484 0.86677 0.0
N433 N 0.93671 0.33014 0.77486 0.0
N434 N 0.941 0.33006 0.90137 0.0
H435 H 0.91673 0.32472 0.85469 0.0
H436 H 0.96322 0.3396 0.74841 0.0
C437 C 0.94775 0.31596 0.64178 0.0
O438 O 0.93957 0.30621 0.69602 0.0
N439 N 0.92136 0.33401 0.57264 0.0
C440 C 0.90556 0.32999 0.54771 0.0
C441 C 0.90529 0.33003 0.46889 0.0
C442 C 0.93048 0.33671 0.50916 0.0
N443 N 0.92095 0.33404 0.44484 0.0
C444 C 0.89713 0.30559 0.72291 0.0
C445 C 0.89373 0.28597 0.60494 0.0
C446 C 0.88114 0.28067 0.65978 0.0
C447 C 0.88291 0.29061 0.71942 0.0
C448 C 0.90791 0.30092 0.6115 0.0
N449 N 0.90976 0.31041 0.67124 0.0
H450 H 0.89755 0.31346 0.76517 0.0
H451 H 0.91713 0.30499 0.56691 0.0
H452 H 0.89469 0.32614 0.5838 0.0
H453 H 0.94367 0.33979 0.50989 0.0
O454 O 0.91722 0.3412 0.71964 0.0
O455 O 0.94418 0.35353 0.68261 0.0
O456 O 0.94447 0.32632 0.62577 0.0
C457 C 0.93189 0.35405 0.71511 0.0
H458 H 0.96803 0.3386 0.89534 0.0
H459 H 0.89411 0.32622 0.43231 0.0
H460 H 0.8926 0.27866 0.55727 0.0
H461 H 0.87308 0.28702 0.76132 0.0
Co462 Co 0.76519 0.72396 0.7402 0.0
C463 C 0.76119 0.71944 0.5681 0.0
C464 C 0.73837 0.71454 0.62408 0.0
C465 C 0.73491 0.71243 0.54718 0.0
N466 N 0.75473 0.71861 0.63799 0.0
N467 N 0.74923 0.7155 0.51194 0.0
H468 H 0.77419 0.72282 0.55739 0.0
H469 H 0.72952 0.71326 0.66738 0.0
C470 C 0.73572 0.69106 0.74893 0.0
O471 O 0.73851 0.68781 0.68028 0.0
N472 N 0.77468 0.72924 0.84291 0.0
C473 C 0.79103 0.73568 0.86792 0.0
C474 C 0.79125 0.73532 0.9467 0.0
C475 C 0.76531 0.72525 0.90603 0.0
N476 N 0.775 0.72859 0.97035 0.0
C477 C 0.792 0.72183 0.67342 0.0
C478 C 0.78671 0.69635 0.75064 0.0
C479 C 0.79971 0.70304 0.69761 0.0
C480 C 0.8024 0.716 0.65926 0.0
C481 C 0.77629 0.70237 0.76184 0.0
N482 N 0.77859 0.71463 0.72117 0.0
H483 H 0.7949 0.73233 0.64642 0.0
H484 H 0.76676 0.69743 0.80496 0.0
H485 H 0.80189 0.73974 0.83158 0.0
H486 H 0.75152 0.71965 0.90456 0.0
O487 O 0.78113 0.74463 0.7074 0.0
O488 O 0.75559 0.73655 0.75425 0.0
O489 O 0.74542 0.70437 0.77962 0.0
C490 C 0.7694 0.74759 0.72436 0.0
H491 H 0.72285 0.70917 0.51916 0.0
H492 H 0.80241 0.73901 0.98327 0.0
H493 H 0.78461 0.68657 0.78291 0.0
H494 H 0.81276 0.72181 0.61993 0.0
Co495 Co 0.38637 0.33112 0.73047 0.0
C496 C 0.38225 0.32903 0.89885 0.0
C497 C 0.3683 0.33794 0.84361 0.0
C498 C 0.36562 0.3375 0.92035 0.0
N499 N 0.37851 0.33246 0.82994 0.0
N500 N 0.37438 0.33194 0.95498 0.0
H501 H 0.39031 0.32436 0.90755 0.0
H502 H 0.36326 0.34212 0.80075 0.0
C503 C 0.35313 0.31551 0.63908 0.0
O504 O 0.35663 0.30546 0.61203 0.0
N505 N 0.39437 0.33058 0.62855 0.0
C506 C 0.40749 0.32911 0.60663 0.0
C507 C 0.40807 0.32929 0.52803 0.0
C508 C 0.38817 0.33282 0.56303 0.0
N509 N 0.39566 0.33138 0.5009 0.0
C510 C 0.38864 0.30422 0.73976 0.0
C511 C 0.35465 0.28391 0.77148 0.0
C512 C 0.36525 0.27825 0.75668 0.0
C513 C 0.38253 0.28856 0.74321 0.0
C514 C 0.36132 0.29969 0.7674 0.0
N515 N 0.3778 0.30947 0.74592 0.0
H516 H 0.40207 0.31207 0.73215 0.0
H517 H 0.35305 0.30399 0.77889 0.0
H518 H 0.41633 0.32827 0.64428 0.0
H519 H 0.37844 0.3357 0.56025 0.0
O520 O 0.40909 0.33973 0.77371 0.0
O521 O 0.39851 0.35318 0.72573 0.0
O522 O 0.36364 0.32627 0.68532 0.0
C523 C 0.41112 0.35305 0.75984 0.0
H524 H 0.35794 0.34114 0.94882 0.0
H525 H 0.41666 0.32765 0.49365 0.0
H526 H 0.34129 0.27618 0.78393 0.0
H527 H 0.39115 0.2845 0.73408 0.0
Co528 Co 0.7656 0.11789 0.74057 0.0
C529 C 0.76467 0.1193 0.57386 0.0
C530 C 0.73917 0.10697 0.6157 0.0
C531 C 0.73829 0.10617 0.53687 0.0
N532 N 0.75576 0.1152 0.63857 0.0
N533 N 0.75437 0.11381 0.51088 0.0
H534 H 0.7785 0.12551 0.57306 0.0
H535 H 0.72852 0.10123 0.65341 0.0
C536 C 0.74373 0.12614 0.8302 0.0
O537 O 0.75727 0.13901 0.85561 0.0
N538 N 0.77569 0.12022 0.84292 0.0
C539 C 0.79179 0.12366 0.85809 0.0
C540 C 0.79399 0.12274 0.93456 0.0
C541 C 0.76808 0.11649 0.91164 0.0
N542 N 0.77909 0.11814 0.96877 0.0
C543 C 0.79503 0.1486 0.73416 0.0
C544 C 0.77742 0.16236 0.68793 0.0
C545 C 0.7952 0.1714 0.69887 0.0
C546 C 0.80403 0.16435 0.72186 0.0
C547 C 0.76888 0.14665 0.70214 0.0
N548 N 0.77762 0.14002 0.72768 0.0
H549 H 0.80223 0.1433 0.74568 0.0
H550 H 0.75521 0.13974 0.69163 0.0
H551 H 0.80124 0.12584 0.81643 0.0
H552 H 0.75461 0.11186 0.9195 0.0
O553 O 0.78213 0.11376 0.69812 0.0
O554 O 0.75687 0.09625 0.74305 0.0
O555 O 0.74515 0.11709 0.78462 0.0
C556 C 0.7709 0.09937 0.71057 0.0
H557 H 0.7268 0.09957 0.5017 0.0
H558 H 0.80572 0.12504 0.96234 0.0
H559 H 0.77021 0.16738 0.6685 0.0
H560 H 0.81786 0.17086 0.72754 0.0
Co561 Co 0.9494 0.69196 0.66688 0.0
C562 C 0.95042 0.69672 0.83812 0.0
C563 C 0.97456 0.71069 0.78518 0.0
C564 C 0.97694 0.71372 0.86206 0.0
N565 N 0.95789 0.70032 0.76936 0.0
N566 N 0.96179 0.70496 0.89539 0.0
H567 H 0.93715 0.6883 0.84712 0.0
H568 H 0.98442 0.71565 0.74325 0.0
C569 C 0.96518 0.72618 0.65282 0.0
O570 O 0.95938 0.72716 0.71904 0.0
N571 N 0.94188 0.68401 0.5639 0.0
C572 C 0.92664 0.67204 0.53903 0.0
C573 C 0.92598 0.67213 0.46031 0.0
C574 C 0.9503 0.69105 0.50064 0.0
N575 N 0.94083 0.68423 0.43648 0.0
C576 C 0.91599 0.68234 0.72375 0.0
C577 C 0.90971 0.69988 0.626 0.0
C578 C 0.89676 0.6898 0.67394 0.0
C579 C 0.90006 0.68109 0.72418 0.0
C580 C 0.92541 0.70091 0.62803 0.0
N581 N 0.92863 0.69247 0.67759 0.0
H582 H 0.91779 0.67453 0.75754 0.0
H583 H 0.93449 0.7078 0.58577 0.0
H584 H 0.91642 0.6643 0.57549 0.0
H585 H 0.96296 0.7013 0.50175 0.0
O586 O 0.94153 0.67149 0.70268 0.0
O587 O 0.96739 0.68776 0.6595 0.0
O588 O 0.96223 0.71335 0.62583 0.0
C589 C 0.95681 0.67444 0.68798 0.0
H590 H 0.98898 0.72152 0.89151 0.0
H591 H 0.91507 0.66444 0.42389 0.0
H592 H 0.90753 0.70661 0.58534 0.0
H593 H 0.89015 0.67281 0.76038 0.0
H594 H 0.04004 0.45386 0.71679 0.0
H595 H 0.02549 0.48562 0.79779 0.0
H596 H 0.01927 0.4893 0.66625 0.0
H597 H 0.06081 0.47528 0.54464 0.0
H598 H 0.05364 0.45815 0.48722 0.0
H599 H 0.05755 0.45808 0.588 0.0
H600 H 0.02677 0.43484 0.60298 0.0
H601 H 0.02276 0.43468 0.50227 0.0
H602 H 0.0089 0.43603 0.56894 0.0
H603 H 0.01235 0.4881 0.52809 0.0
H604 H 0.00682 0.48319 0.38951 0.0
H605 H 0.0276 0.45377 0.39416 0.0
C606 C 0.03582 0.46179 0.70721 0.0
C607 C 0.03308 0.46927 0.76885 0.0
C608 C 0.02737 0.47944 0.75265 0.0
C609 C 0.02391 0.48173 0.6777 0.0
C610 C 0.02646 0.47399 0.61885 0.0
C611 C 0.03248 0.46437 0.63238 0.0
C612 C 0.03388 0.45732 0.55834 0.0
C613 C 0.05258 0.46252 0.54371 0.0
C614 C 0.02239 0.43967 0.55816 0.0
C615 C 0.02728 0.4642 0.5015 0.0
C616 C 0.02308 0.47378 0.53795 0.0
C617 C 0.0158 0.4808 0.49875 0.0
C618 C 0.01264 0.4779 0.42028 0.0
C619 C 0.01688 0.4682 0.38149 0.0
C620 C 0.02451 0.46142 0.42252 0.0
H621 H 0.5915 0.68269 0.64799 0.0
H622 H 0.62251 0.66547 0.73635 0.0
H623 H 0.62975 0.66241 0.60637 0.0
H624 H 0.5748 0.65738 0.48002 0.0
H625 H 0.5757 0.67182 0.41904 0.0
H626 H 0.57253 0.67254 0.51954 0.0
H627 H 0.59893 0.70031 0.52954 0.0
H628 H 0.60211 0.69971 0.42905 0.0
H629 H 0.61923 0.70416 0.49623 0.0
H630 H 0.63424 0.6616 0.46927 0.0
H631 H 0.63673 0.66411 0.33006 0.0
H632 H 0.60268 0.68143 0.32587 0.0
C633 C 0.59973 0.67821 0.63985 0.0
C634 C 0.60655 0.67444 0.70284 0.0
C635 C 0.6174 0.66873 0.68957 0.0
C636 C 0.62146 0.66679 0.61572 0.0
C637 C 0.61455 0.67058 0.55517 0.0
C638 C 0.60398 0.67623 0.566 0.0
C639 C 0.59876 0.67981 0.49029 0.0
C640 C 0.57929 0.66979 0.47643 0.0
C641 C 0.60514 0.69702 0.48605 0.0
C642 C 0.60814 0.67536 0.43563 0.0
C643 C 0.61709 0.67001 0.47471 0.0
C644 C 0.62725 0.6657 0.43787 0.0
C645 C 0.62862 0.66719 0.35899 0.0
C646 C 0.61988 0.67291 0.31758 0.0
C647 C 0.60925 0.67679 0.35624 0.0
H648 H 0.41159 0.05648 0.76741 0.0
H649 H 0.43635 0.1029 0.86211 0.0
H650 H 0.44211 0.11321 0.73282 0.0
H651 H 0.44072 0.06521 0.61662 0.0
H652 H 0.42474 0.05222 0.54743 0.0
H653 H 0.42151 0.04824 0.6473 0.0
H654 H 0.39262 0.0469 0.63646 0.0
H655 H 0.39583 0.05092 0.5365 0.0
H656 H 0.39207 0.06294 0.59853 0.0
H657 H 0.44629 0.11875 0.59552 0.0
H658 H 0.44967 0.11937 0.45672 0.0
H659 H 0.42256 0.06955 0.44589 0.0
C660 C 0.41806 0.06879 0.76056 0.0
C661 C 0.42364 0.0789 0.82505 0.0
C662 C 0.43222 0.09495 0.81391 0.0
C663 C 0.43541 0.10091 0.74055 0.0
C664 C 0.42996 0.0907 0.67837 0.0
C665 C 0.42149 0.07498 0.68722 0.0
C666 C 0.41779 0.0667 0.61019 0.0
C667 C 0.42673 0.05756 0.60511 0.0
C668 C 0.39843 0.05625 0.59451 0.0
C669 C 0.42571 0.08025 0.55704 0.0
C670 C 0.43249 0.09395 0.59799 0.0
C671 C 0.44099 0.1081 0.56281 0.0
C672 C 0.44291 0.10834 0.48391 0.0
C673 C 0.43644 0.09454 0.44038 0.0
C674 C 0.42744 0.08027 0.47749 0.0
H675 H 0.08385 0.66238 0.62407 0.0
H676 H 0.05934 0.68641 0.70146 0.0
H677 H 0.05095 0.68753 0.56864 0.0
H678 H 0.10056 0.68373 0.44899 0.0
H679 H 0.09687 0.66711 0.39503 0.0
H680 H 0.10133 0.66853 0.49604 0.0
H681 H 0.07326 0.64232 0.5136 0.0
H682 H 0.0687 0.64083 0.41276 0.0
H683 H 0.05328 0.63962 0.4788 0.0
H684 H 0.04437 0.68527 0.42822 0.0
H685 H 0.0399 0.67976 0.28998 0.0
H686 H 0.06939 0.65786 0.30121 0.0
C687 C 0.077 0.66814 0.61324 0.0
C688 C 0.07221 0.67427 0.6739 0.0
C689 C 0.06293 0.68141 0.65657 0.0
C690 C 0.05823 0.68222 0.58109 0.0
C691 C 0.06304 0.67596 0.52301 0.0
C692 C 0.07228 0.66911 0.53806 0.0
C693 C 0.07545 0.66292 0.46522 0.0
C694 C 0.0947 0.67106 0.45046 0.0
C695 C 0.06717 0.64538 0.46777 0.0
C696 C 0.06641 0.66724 0.40682 0.0
C697 C 0.05937 0.67477 0.44163 0.0
C698 C 0.04989 0.67944 0.40042 0.0
C699 C 0.04735 0.67619 0.32191 0.0
C700 C 0.05425 0.66834 0.28476 0.0
C701 C 0.06414 0.66403 0.32788 0.0
H702 H 0.4414 0.44332 0.44186 0.0
H703 H 0.49256 0.48373 0.43769 0.0
H704 H 0.4915 0.48834 0.57497 0.0
H705 H 0.42405 0.45776 0.58042 0.0
H706 H 0.41199 0.43987 0.62924 0.0
H707 H 0.41616 0.43975 0.52957 0.0
H708 H 0.43005 0.42385 0.5548 0.0
H709 H 0.42573 0.4236 0.65451 0.0
H710 H 0.44725 0.4307 0.62475 0.0
H711 H 0.48528 0.48858 0.71187 0.0
H712 H 0.47476 0.48384 0.84247 0.0
H713 H 0.42801 0.44248 0.76236 0.0
C714 C 0.45225 0.45318 0.47009 0.0
C715 C 0.46708 0.46319 0.42938 0.0
C716 C 0.48117 0.47588 0.46811 0.0
C717 C 0.48064 0.47863 0.54592 0.0
C718 C 0.46597 0.4685 0.58477 0.0
C719 C 0.45206 0.45596 0.5486 0.0
C720 C 0.43827 0.44648 0.60525 0.0
C721 C 0.42164 0.44595 0.58491 0.0
C722 C 0.43515 0.43019 0.6101 0.0
C723 C 0.4466 0.45576 0.67838 0.0
C724 C 0.46254 0.46843 0.66493 0.0
C725 C 0.47283 0.47865 0.72324 0.0
C726 C 0.46676 0.47579 0.79754 0.0
C727 C 0.45057 0.46274 0.81355 0.0
C728 C 0.44035 0.45267 0.75253 0.0
H729 H 0.5851 0.0119 0.72327 0.0
H730 H 0.61882 0.05841 0.81317 0.0
H731 H 0.6274 0.06758 0.68366 0.0
H732 H 0.61225 0.01366 0.57625 0.0
H733 H 0.59519 0.00268 0.50704 0.0
H734 H 0.59111 -0.0004 0.60706 0.0
H735 H 0.56674 0.00509 0.59253 0.0
H736 H 0.57077 0.00822 0.49239 0.0
H737 H 0.5712 0.02289 0.55186 0.0
H738 H 0.63354 0.07178 0.54693 0.0
H739 H 0.63673 0.07071 0.40828 0.0
H740 H 0.59845 0.02195 0.40251 0.0
C741 C 0.59413 0.02403 0.71566 0.0
C742 C 0.6014 0.03437 0.77902 0.0
C743 C 0.61332 0.05015 0.76624 0.0
C744 C 0.61818 0.05554 0.69261 0.0
C745 C 0.61092 0.04506 0.63177 0.0
C746 C 0.59912 0.02966 0.64209 0.0
C747 C 0.59366 0.02086 0.56629 0.0
C748 C 0.59834 0.00847 0.56406 0.0
C749 C 0.57445 0.01385 0.54981 0.0
C750 C 0.60441 0.03373 0.5122 0.0
C751 C 0.61424 0.04758 0.55156 0.0
C752 C 0.62582 0.06105 0.51531 0.0
C753 C 0.62759 0.06033 0.43676 0.0
C754 C 0.61778 0.04629 0.39507 0.0
C755 C 0.60585 0.03286 0.43312 0.0
H756 H 0.69937 0.81334 0.77259 0.0
H757 H 0.69262 0.76812 0.75925 0.0
H758 H 0.69877 0.76943 0.8971 0.0
H759 H 0.73368 0.82998 0.91807 0.0
H760 H 0.72564 0.84043 0.96657 0.0
H761 H 0.72161 0.83638 0.86576 0.0
H762 H 0.68902 0.82313 0.8859 0.0
H763 H 0.69297 0.82717 0.98668 0.0
H764 H 0.67884 0.80768 0.95212 0.0
H765 H 0.7052 0.77534 0.03748 0.0
H766 H 0.71046 0.78511 0.17057 0.0
H767 H 0.71189 0.82606 0.09626 0.0
C768 C 0.69941 0.80384 0.79872 0.0
C769 C 0.69554 0.79063 0.75475 0.0
C770 C 0.69542 0.7783 0.79149 0.0
C771 C 0.69898 0.77896 0.8699 0.0
C772 C 0.70253 0.792 0.9118 0.0
C773 C 0.70269 0.80421 0.87772 0.0
C774 C 0.70609 0.81653 0.93694 0.0
C775 C 0.72275 0.83173 0.92086 0.0
C776 C 0.69082 0.81875 0.94061 0.0
C777 C 0.70786 0.80937 1.00921 0.0
C778 C 0.70585 0.79526 0.99325 0.0
C779 C 0.70679 0.78639 0.0506 0.0
C780 C 0.70968 0.79199 0.12628 0.0
C781 C 0.71155 0.80633 0.14465 0.0
C782 C 0.71073 0.81514 0.08464 0.0
H783 H 0.30561 0.008 0.82417 0.0
H784 H 0.26208 0.96398 0.74676 0.0
H785 H 0.25184 0.95851 0.87792 0.0
H786 H 0.31277 0.995 1.00551 0.0
H787 H 0.31842 0.01261 0.05578 0.0
H788 H 0.32251 0.01288 0.95579 0.0
H789 H 0.30515 0.02581 0.93068 0.0
H790 H 0.30076 0.02527 0.03042 0.0
H791 H 0.28335 0.01656 0.96103 0.0
H792 H 0.24566 0.95804 0.01494 0.0
H793 H 0.24414 0.9623 0.1522 0.0
H794 H 0.29215 0.00608 0.14534 0.0
C795 C 0.29407 -0.00289 0.8349 0.0
C796 C 0.28464 0.98642 0.7747 0.0
C797 C 0.26941 0.97244 0.79137 0.0
C798 C 0.26354 0.96919 0.86588 0.0
C799 C 0.27306 0.97999 0.92354 0.0
C800 C 0.28802 0.99365 0.90926 0.0
C801 C 0.29558 0.00336 0.98185 0.0
C802 C 0.31338 0.00611 1.00084 0.0
C803 C 0.29624 0.01865 0.97561 0.0
C804 C 0.28255 0.99296 0.0392 0.0
C805 C 0.26963 0.97959 1.0038 0.0
C806 C 0.25574 0.9684 0.0434 0.0
C807 C 0.25495 0.97094 0.12117 0.0
C808 C 0.268 0.98448 0.15909 0.0
C809 C 0.28211 0.99557 0.11769 0.0
H810 H 0.09238 0.40774 0.80047 0.0
H811 H 0.06849 0.36104 0.71028 0.0
H812 H 0.06404 0.35134 0.84072 0.0
H813 H 0.1148 0.40328 0.95515 0.0
H814 H 0.11191 0.41524 0.02157 0.0
H815 H 0.11231 0.41857 0.92106 0.0
H816 H 0.08272 0.41584 0.92781 0.0
H817 H 0.08221 0.41242 0.02839 0.0
H818 H 0.06496 0.39868 0.96609 0.0
H819 H 0.06326 0.34662 0.97893 0.0
H820 H 0.06735 0.34721 0.11822 0.0
H821 H 0.09159 0.39679 0.12307 0.0
C822 C 0.08603 0.39547 0.80838 0.0
C823 C 0.08085 0.38515 0.74495 0.0
C824 C 0.07281 0.36918 0.75769 0.0
C825 C 0.07007 0.36355 0.83167 0.0
C826 C 0.07541 0.374 0.89278 0.0
C827 C 0.08327 0.38963 0.88226 0.0
C828 C 0.08854 0.39835 0.95836 0.0
C829 C 0.10805 0.40952 0.96436 0.0
C830 C 0.07903 0.40682 0.97088 0.0
C831 C 0.08265 0.38518 0.013 0.0
C832 C 0.07497 0.37124 0.97359 0.0
C833 C 0.06914 0.35745 0.01047 0.0
C834 C 0.07155 0.35789 0.08952 0.0
C835 C 0.07972 0.37202 0.1313 0.0
C836 C 0.08503 0.38582 0.0926 0.0
H837 H 0.69613 0.99598 0.08579 0.0
H838 H 0.71231 0.96314 0.09464 0.0
H839 H 0.70679 0.95817 0.95634 0.0
H840 H 0.66262 0.97609 0.93695 0.0
H841 H 0.66754 0.9935 0.89026 0.0
H842 H 0.67157 0.99389 0.99097 0.0
H843 H 0.70319 0.01526 0.97498 0.0
H844 H 0.69934 0.01504 0.87404 0.0
H845 H 0.71598 0.01218 0.90911 0.0
H846 H 0.70008 0.95692 0.81801 0.0
H847 H 0.69366 0.96027 0.68573 0.0
H848 H 0.6833 0.99503 0.76233 0.0
C849 C 0.69828 0.98763 0.05837 0.0
C850 C 0.70465 0.97992 0.10063 0.0
C851 C 0.70757 0.96923 0.06299 0.0
C852 C 0.70439 0.96627 0.98463 0.0
C853 C 0.69841 0.97421 0.9442 0.0
C854 C 0.69544 0.98473 0.97936 0.0
C855 C 0.68997 0.99229 0.92105 0.0
C856 C 0.67183 0.98871 0.93571 0.0
C857 C 0.70289 0.00973 0.91973 0.0
C858 C 0.69031 0.98434 0.84825 0.0
C859 C 0.69509 0.97388 0.86319 0.0
C860 C 0.69638 0.96513 0.80549 0.0
C861 C 0.69279 0.96719 0.73032 0.0
C862 C 0.68807 0.97799 0.71304 0.0
C863 C 0.68671 0.98658 0.77331 0.0
H864 H 0.10155 0.80451 0.6979 0.0
H865 H 0.05849 0.75737 0.68538 0.0
H866 H 0.05454 0.75824 0.8228 0.0
H867 H 0.11852 0.80174 0.87685 0.0
H868 H 0.12477 0.82071 0.91137 0.0
H869 H 0.12386 0.81686 0.8106 0.0
H870 H 0.10313 0.82652 0.79015 0.0
H871 H 0.10402 0.83044 0.89092 0.0
H872 H 0.08366 0.81808 0.8427 0.0
H873 H 0.05596 0.76341 0.96212 0.0
H874 H 0.06203 0.77304 0.09494 0.0
H875 H 0.1041 0.81699 0.02139 0.0
C876 C 0.09116 0.79448 0.72406 0.0
C877 C 0.08045 0.78081 0.68056 0.0
C878 C 0.06711 0.76786 0.71729 0.0
C879 C 0.06466 0.76827 0.79547 0.0
C880 C 0.07563 0.78173 0.83695 0.0
C881 C 0.08856 0.79465 0.80278 0.0
C882 C 0.09879 0.80747 0.86173 0.0
C883 C 0.1176 0.81195 0.86533 0.0
C884 C 0.09731 0.82146 0.84539 0.0
C885 C 0.08967 0.79963 0.93406 0.0
C886 C 0.07634 0.78479 0.91813 0.0
C887 C 0.06631 0.77506 0.9753 0.0
C888 C 0.06995 0.78061 0.05087 0.0
C889 C 0.08355 0.7958 0.06924 0.0
C890 C 0.09346 0.80542 1.00951 0.0
H891 H 0.31705 0.38547 0.78667 0.0
H892 H 0.27648 0.39223 0.70772 0.0
H893 H 0.26651 0.38976 0.83853 0.0
H894 H 0.29331 0.35772 0.925 0.0
H895 H 0.31066 0.36491 0.99438 0.0
H896 H 0.31514 0.3677 0.89456 0.0
H897 H 0.33449 0.39709 0.91948 0.0
H898 H 0.33008 0.39439 0.01949 0.0
H899 H 0.32594 0.4072 0.96717 0.0
H900 H 0.25964 0.38496 0.97528 0.0
H901 H 0.25708 0.3792 0.11219 0.0
H902 H 0.30285 0.37702 0.10724 0.0
C903 C 0.30624 0.38667 0.79684 0.0
C904 C 0.29748 0.3889 0.73596 0.0
C905 C 0.28324 0.39021 0.75242 0.0
C906 C 0.27754 0.38895 0.82691 0.0
C907 C 0.28628 0.38655 0.88508 0.0
C908 C 0.30042 0.38557 0.87131 0.0
C909 C 0.30728 0.38271 0.94451 0.0
C910 C 0.30655 0.36735 0.93927 0.0
C911 C 0.32553 0.39615 0.96379 0.0
C912 C 0.29462 0.38203 1.00118 0.0
C913 C 0.28261 0.38425 0.96529 0.0
C914 C 0.26907 0.38337 1.00421 0.0
C915 C 0.26767 0.38004 0.08175 0.0
C916 C 0.27981 0.37777 0.12004 0.0
C917 C 0.29358 0.37896 0.07937 0.0
H918 H 0.34022 0.11011 0.47027 0.0
H919 H 0.33043 0.14518 0.54797 0.0
H920 H 0.3248 0.14918 0.41587 0.0
H921 H 0.36164 0.12957 0.2935 0.0
H922 H 0.35243 0.11176 0.2394 0.0
H923 H 0.35659 0.11212 0.34021 0.0
H924 H 0.32482 0.0908 0.35767 0.0
H925 H 0.32064 0.09058 0.25706 0.0
H926 H 0.3082 0.09384 0.32417 0.0
H927 H 0.31827 0.14836 0.27804 0.0
H928 H 0.31225 0.14338 0.14 0.0
H929 H 0.32743 0.10983 0.14646 0.0
C930 C 0.33717 0.11881 0.45951 0.0
C931 C 0.33559 0.1272 0.52036 0.0
C932 C 0.33137 0.13835 0.50319 0.0
C933 C 0.32829 0.14082 0.42801 0.0
C934 C 0.32965 0.13221 0.36985 0.0
C935 C 0.33415 0.12153 0.38426 0.0
C936 C 0.33425 0.11358 0.31068 0.0
C937 C 0.35231 0.11697 0.29505 0.0
C938 C 0.3212 0.09617 0.31254 0.0
C939 C 0.32881 0.1213 0.25317 0.0
C940 C 0.32626 0.13201 0.28894 0.0
C941 C 0.32039 0.14012 0.24924 0.0
C942 C 0.31691 0.13716 0.17097 0.0
C943 C 0.31938 0.12625 0.13269 0.0
C944 C 0.32565 0.11837 0.17427 0.0
H945 H 0.90866 0.33841 0.31025 0.0
H946 H 0.94351 0.3259 0.40493 0.0
H947 H 0.95137 0.32289 0.27611 0.0
H948 H 0.89405 0.31188 0.14693 0.0
H949 H 0.8931 0.32498 0.08228 0.0
H950 H 0.88987 0.32617 0.18236 0.0
H951 H 0.91422 0.35481 0.18675 0.0
H952 H 0.91754 0.35375 0.08675 0.0
H953 H 0.93511 0.36016 0.15443 0.0
H954 H 0.95563 0.32105 0.13944 0.0
H955 H 0.95704 0.32153 0.99993 0.0
H956 H 0.91985 0.33539 0.98772 0.0
C957 C 0.91791 0.33502 0.30368 0.0
C958 C 0.92561 0.3326 0.3683 0.0
C959 C 0.93772 0.32821 0.35706 0.0
C960 C 0.94216 0.32631 0.28383 0.0
C961 C 0.93443 0.32881 0.2217 0.0
C962 C 0.92261 0.33313 0.23038 0.0
C963 C 0.91655 0.33532 0.15306 0.0
C964 C 0.89724 0.3239 0.14043 0.0
C965 C 0.92114 0.35201 0.14476 0.0
C966 C 0.92688 0.33161 0.09996 0.0
C967 C 0.937 0.32781 0.14134 0.0
C968 C 0.94781 0.32406 0.10635 0.0
C969 C 0.94857 0.32442 0.02697 0.0
C970 C 0.93866 0.32858 0.98265 0.0
C971 C 0.92745 0.33201 0.01984 0.0
H972 H 0.79198 0.74221 0.10551 0.0
H973 H 0.74397 0.70462 1.00925 0.0
H974 H 0.73294 0.69698 0.13753 0.0
H975 H 0.79355 0.72155 0.27052 0.0
H976 H 0.80227 0.73803 0.33437 0.0
H977 H 0.80684 0.74063 0.23448 0.0
H978 H 0.79505 0.75868 0.22711 0.0
H979 H 0.79049 0.75617 0.32695 0.0
H980 H 0.7737 0.75195 0.25826 0.0
H981 H 0.72653 0.69355 0.27434 0.0
H982 H 0.72503 0.69469 0.41385 0.0
H983 H 0.77704 0.73407 0.42628 0.0
C984 C 0.77922 0.7323 0.11152 0.0
C985 C 0.76883 0.72413 0.04663 0.0
C986 C 0.75212 0.7113 0.05731 0.0
C987 C 0.74575 0.70676 0.13028 0.0
C988 C 0.75621 0.71509 0.19268 0.0
C989 C 0.77259 0.72758 0.18447 0.0
C990 C 0.78092 0.73465 0.26178 0.0
C991 C 0.79684 0.73365 0.27611 0.0
C992 C 0.78529 0.75135 0.26892 0.0
C993 C 0.7666 0.72421 0.31431 0.0
C994 C 0.75251 0.713 0.27282 0.0
C995 C 0.73749 0.70224 0.30755 0.0
C996 C 0.73673 0.70302 0.38679 0.0
C997 C 0.75088 0.71446 0.43093 0.0
C998 C 0.76611 0.72508 0.39409 0.0
H999 H 0.40175 0.33859 0.04722 0.0
H1000 H 0.34706 0.31966 0.04391 0.0
H1001 H 0.34675 0.31699 0.18324 0.0
H1002 H 0.40292 0.31504 0.20053 0.0
H1003 H 0.42259 0.33055 0.24298 0.0
H1004 H 0.41848 0.33016 0.14209 0.0
H1005 H 0.42305 0.35732 0.15355 0.0
H1006 H 0.4272 0.35783 0.25434 0.0
H1007 H 0.41065 0.36086 0.21942 0.0
H1008 H 0.35225 0.31751 0.32131 0.0
H1009 H 0.36311 0.32033 0.45284 0.0
H1010 H 0.41457 0.33918 0.37178 0.0
C1011 C 0.38972 0.33361 0.07606 0.0
C1012 C 0.37437 0.32924 0.03512 0.0
C1013 C 0.35891 0.3231 0.07454 0.0
C1014 C 0.35861 0.32152 0.1535 0.0
C1015 C 0.37395 0.32621 0.19255 0.0
C1016 C 0.38923 0.33209 0.15556 0.0
C1017 C 0.40393 0.33686 0.21246 0.0
C1018 C 0.41248 0.32759 0.19868 0.0
C1019 C 0.41698 0.35426 0.20982 0.0
C1020 C 0.39445 0.33262 0.28681 0.0
C1021 C 0.37718 0.32657 0.27353 0.0
C1022 C 0.36575 0.32219 0.33251 0.0
C1023 C 0.37208 0.32398 0.40724 0.0
C1024 C 0.38971 0.33007 0.42298 0.0
C1025 C 0.40103 0.33439 0.36161 0.0
H1026 H 0.73985 0.11577 0.37732 0.0
H1027 H 0.7809 0.11116 0.47043 0.0
H1028 H 0.78987 0.10989 0.34114 0.0
H1029 H 0.72995 0.09106 0.20767 0.0
H1030 H 0.72665 0.10324 0.14573 0.0
H1031 H 0.72237 0.10279 0.24568 0.0
H1032 H 0.74305 0.13231 0.25719 0.0
H1033 H 0.74728 0.13285 0.15723 0.0
H1034 H 0.76473 0.14079 0.22634 0.0
H1035 H 0.79422 0.10846 0.20457 0.0
H1036 H 0.79652 0.11054 0.06633 0.0
H1037 H 0.75453 0.11849 0.05512 0.0
C1038 C 0.75064 0.11438 0.37007 0.0
C1039 C 0.75961 0.11346 0.43423 0.0
C1040 C 0.77387 0.11195 0.42259 0.0
C1041 C 0.77899 0.1111 0.34918 0.0
C1042 C 0.7699 0.11198 0.28738 0.0
C1043 C 0.75621 0.11384 0.29654 0.0
C1044 C 0.7496 0.11559 0.21953 0.0
C1045 C 0.73104 0.10238 0.20374 0.0
C1046 C 0.75127 0.13132 0.21481 0.0
C1047 C 0.76181 0.11448 0.16619 0.0
C1048 C 0.77315 0.11211 0.2071 0.0
C1049 C 0.78558 0.11054 0.17189 0.0
C1050 C 0.78686 0.11188 0.09293 0.0
C1051 C 0.77602 0.11509 0.04914 0.0
C1052 C 0.76304 0.11607 0.08653 0.0
H1053 H 0.92923 0.66777 0.30186 0.0
H1054 H 0.96173 0.71397 0.39727 0.0
H1055 H 0.96926 0.7241 0.26863 0.0
H1056 H 0.95643 0.67179 0.14918 0.0
H1057 H 0.93923 0.66066 0.08084 0.0
H1058 H 0.93577 0.65688 0.1808 0.0
H1059 H 0.91027 0.66096 0.17327 0.0
H1060 H 0.91369 0.6648 0.07326 0.0
H1061 H 0.91349 0.67867 0.13675 0.0
H1062 H 0.97417 0.72938 0.13148 0.0
H1063 H 0.97662 0.72942 0.99205 0.0
H1064 H 0.94081 0.6801 0.98112 0.0
C1065 C 0.9378 0.68002 0.29556 0.0
C1066 C 0.94498 0.69002 0.36021 0.0
C1067 C 0.95629 0.70598 0.34928 0.0
C1068 C 0.96054 0.7119 0.27615 0.0
C1069 C 0.95336 0.70177 0.21394 0.0
C1070 C 0.94224 0.68617 0.22252 0.0
C1071 C 0.9368 0.67782 0.14548 0.0
C1072 C 0.9424 0.6661 0.1387 0.0
C1073 C 0.91741 0.67011 0.13138 0.0
C1074 C 0.94675 0.69118 0.09261 0.0
C1075 C 0.95614 0.70487 0.1337 0.0
C1076 C 0.96683 0.71875 0.0986 0.0
C1077 C 0.96818 0.71866 0.01946 0.0
C1078 C 0.95892 0.70479 0.97585 0.0
C1079 C 0.94784 0.69089 0.01296 0.0
H1080 H 0.04812 0.5951 0.09757 0.0
H1081 H 0.08179 0.61244 0.90592 0.0
H1082 H 0.08261 0.58866 0.90101 0.0
H1083 H 0.06864 0.57663 0.18769 0.0
H1084 H 0.04874 0.56063 0.21974 0.0
H1085 H 0.05117 0.57917 0.20908 0.0
H1086 H 0.02436 0.56692 0.11897 0.0
H1087 H 0.02186 0.54837 0.12935 0.0
H1088 H 0.02355 0.55603 0.03588 0.0
H1089 H 0.07795 0.56227 0.91117 0.0
H1090 H 0.06912 0.53557 0.93846 0.0
H1091 H 0.04059 0.53642 0.13116 0.0
C1092 C 0.05567 0.59385 0.05478 0.0
C1093 C 0.06485 0.60549 1.00194 0.0
C1094 C 0.07474 0.60361 0.94705 0.0
C1095 C 0.07526 0.59018 0.94381 0.0
C1096 C 0.06604 0.57887 0.99666 0.0
C1097 C 0.05657 0.58063 0.05161 0.0
C1098 C 0.0478 0.56673 0.10153 0.0
C1099 C 0.0545 0.57105 0.18442 0.0
C1100 C 0.02824 0.55906 0.09606 0.0
C1101 C 0.05347 0.55674 0.06484 0.0
C1102 C 0.06397 0.56393 1.00447 0.0
C1103 C 0.06999 0.5566 0.95922 0.0
C1104 C 0.065 0.54144 0.97567 0.0
C1105 C 0.0542 0.53379 0.03737 0.0
C1106 C 0.04868 0.54176 0.08307 0.0
H1107 H 0.51684 0.53294 0.04978 0.0
H1108 H 0.47589 0.53299 0.16874 0.0
H1109 H 0.49238 0.56142 0.17001 0.0
H1110 H 0.55167 0.56564 0.1492 0.0
H1111 H 0.56465 0.57288 0.06635 0.0
H1112 H 0.54955 0.55255 0.07406 0.0
H1113 H 0.53528 0.55223 0.94498 0.0
H1114 H 0.55038 0.57253 0.93671 0.0
H1115 H 0.52774 0.56516 0.93175 0.0
H1116 H 0.5136 0.58972 0.16107 0.0
H1117 H 0.53751 0.61604 0.13769 0.0
H1118 H 0.56439 0.59745 0.02235 0.0
C1119 C 0.51138 0.53894 0.07649 0.0
C1120 C 0.4951 0.53079 0.10934 0.0
C1121 C 0.48827 0.53903 0.14262 0.0
C1122 C 0.49758 0.55515 0.14404 0.0
C1123 C 0.51365 0.56282 0.11168 0.0
C1124 C 0.52046 0.555 0.07816 0.0
C1125 C 0.53792 0.56598 0.04671 0.0
C1126 C 0.55176 0.56415 0.08648 0.0
C1127 C 0.53781 0.56385 0.95989 0.0
C1128 C 0.53989 0.58122 0.06798 0.0
C1129 C 0.52578 0.57914 0.10562 0.0
C1130 C 0.52467 0.5915 0.13117 0.0
C1131 C 0.53828 0.6064 0.11719 0.0
C1132 C 0.55278 0.60883 0.07761 0.0
C1133 C 0.55357 0.59601 0.0533 0.0
H1134 H 0.54671 0.05297 0.04028 0.0
H1135 H 0.5696 0.0693 0.26598 0.0
H1136 H 0.54934 0.07776 0.29063 0.0
H1137 H 0.53863 0.08377 1.00326 0.0
H1138 H 0.51866 0.07113 0.95282 0.0
H1139 H 0.53552 0.0671 0.95178 0.0
H1140 H 0.51481 0.03994 1.00327 0.0
H1141 H 0.4979 0.04388 1.00459 0.0
H1142 H 0.5038 0.03804 0.09021 0.0
H1143 H 0.52518 0.08248 0.29415 0.0
H1144 H 0.4997 0.08441 0.274 0.0
H1145 H 0.49313 0.06581 0.04443 0.0
C1146 C 0.54749 0.0584 0.09475 0.0
C1147 C 0.55968 0.06049 0.15136 0.0
C1148 C 0.56044 0.06774 0.22168 0.0
C1149 C 0.54896 0.07252 0.23622 0.0
C1150 C 0.53697 0.07012 0.17947 0.0
C1151 C 0.53626 0.06338 0.10985 0.0
C1152 C 0.52196 0.06189 0.05903 0.0
C1153 C 0.52913 0.07155 0.98749 0.0
C1154 C 0.50884 0.04493 0.03808 0.0
C1155 C 0.51448 0.06855 0.11156 0.0
C1156 C 0.52333 0.07323 0.18076 0.0
C1157 C 0.51828 0.07902 0.23992 0.0
C1158 C 0.50378 0.08002 0.22813 0.0
C1159 C 0.49458 0.07533 0.15762 0.0
C1160 C 0.50012 0.06968 0.09843 0.0
H1161 H 0.69416 0.86171 0.39755 0.0
H1162 H 0.66348 0.84127 0.59577 0.0
H1163 H 0.65595 0.8613 0.59701 0.0
H1164 H 0.71168 0.90008 0.45143 0.0
H1165 H 0.71098 0.90647 0.35705 0.0
H1166 H 0.71262 0.88987 0.36927 0.0
H1167 H 0.6854 0.87359 0.28359 0.0
H1168 H 0.68365 0.89018 0.27123 0.0
H1169 H 0.6659 0.8727 0.3071 0.0
H1170 H 0.6544 0.88531 0.58272 0.0
H1171 H 0.65869 0.91072 0.55381 0.0
H1172 H 0.6889 0.91393 0.35995 0.0
C1173 C 0.68578 0.86143 0.44093 0.0
C1174 C 0.67948 0.85014 0.49697 0.0
C1175 C 0.66839 0.84991 0.55243 0.0
C1176 C 0.66404 0.86119 0.55339 0.0
C1177 C 0.67066 0.87232 0.49754 0.0
C1178 C 0.68114 0.87238 0.4419 0.0
C1179 C 0.6871 0.88579 0.38979 0.0
C1180 C 0.70675 0.89616 0.39209 0.0
C1181 C 0.68009 0.88023 0.3081 0.0
C1182 C 0.67889 0.89367 0.42639 0.0
C1183 C 0.66933 0.88572 0.48806 0.0
C1184 C 0.6616 0.89148 0.53371 0.0
C1185 C 0.66403 0.90588 0.51665 0.0
C1186 C 0.67415 0.91431 0.45467 0.0
C1187 C 0.6812 0.90783 0.40805 0.0
H1188 H 0.16442 0.8543 0.52932 0.0
H1189 H 0.17209 0.84448 0.29652 0.0
H1190 H 0.20133 0.86637 0.30441 0.0
H1191 H 0.18317 0.89327 0.49767 0.0
H1192 H 0.19233 0.89948 0.59238 0.0
H1193 H 0.17338 0.8808 0.57688 0.0
H1194 H 0.18865 0.86832 0.64072 0.0
H1195 H 0.20777 0.88702 0.65557 0.0
H1196 H 0.20872 0.8721 0.60472 0.0
H1197 H 0.22889 0.89072 0.33013 0.0
H1198 H 0.25042 0.91785 0.36395 0.0
H1199 H 0.22357 0.91418 0.57029 0.0
C1200 C 0.17207 0.85653 0.47964 0.0
C1201 C 0.16556 0.84701 0.41306 0.0
C1202 C 0.17652 0.85079 0.3501 0.0
C1203 C 0.19334 0.86341 0.35355 0.0
C1204 C 0.19912 0.87253 0.4195 0.0
C1205 C 0.18871 0.86946 0.48084 0.0
C1206 C 0.19696 0.88251 0.53952 0.0
C1207 C 0.1858 0.88942 0.55229 0.0
C1208 C 0.20075 0.87716 0.61458 0.0
C1209 C 0.21334 0.89361 0.50002 0.0
C1210 C 0.21463 0.88736 0.4322 0.0
C1211 C 0.22816 0.89569 0.38352 0.0
C1212 C 0.24035 0.91103 0.40322 0.0
C1213 C 0.23863 0.91789 0.46988 0.0
C1214 C 0.22523 0.90899 0.51975 0.0
H1215 H 0.21636 0.37685 0.42027 0.0
H1216 H 0.25314 0.4209 0.52672 0.0
H1217 H 0.2301 0.42634 0.54472 0.0
H1218 H 0.19212 0.3901 0.3188 0.0
H1219 H 0.17195 0.37241 0.33083 0.0
H1220 H 0.19138 0.3722 0.32687 0.0
H1221 H 0.18481 0.35881 0.457 0.0
H1222 H 0.16541 0.35906 0.46156 0.0
H1223 H 0.18121 0.36762 0.538 0.0
H1224 H 0.20246 0.42619 0.55591 0.0
H1225 H 0.17312 0.42128 0.55254 0.0
H1226 H 0.15526 0.37802 0.43068 0.0
C1227 C 0.21953 0.38762 0.44754 0.0
C1228 C 0.23644 0.39843 0.4727 0.0
C1229 C 0.24022 0.41251 0.50699 0.0
C1230 C 0.22724 0.41566 0.51763 0.0
C1231 C 0.21063 0.40467 0.49269 0.0
C1232 C 0.20682 0.39102 0.45757 0.0
C1233 C 0.18808 0.38123 0.43457 0.0
C1234 C 0.18575 0.37886 0.34761 0.0
C1235 C 0.17937 0.36577 0.47523 0.0
C1236 C 0.18185 0.39139 0.46319 0.0
C1237 C 0.19498 0.40483 0.49682 0.0
C1238 C 0.19211 0.41578 0.52895 0.0
C1239 C 0.17539 0.41291 0.52632 0.0
C1240 C 0.16175 0.39925 0.49129 0.0
C1241 C 0.16521 0.38846 0.45915 0.0
H1242 H 0.36146 0.25862 0.86952 0.0
H1243 H 0.35377 0.26099 0.62747 0.0
H1244 H 0.34347 0.23332 0.61152 0.0
H1245 H 0.37727 0.23371 0.85618 0.0
H1246 H 0.36682 0.22293 0.93939 0.0
H1247 H 0.37248 0.24261 0.93276 0.0
H1248 H 0.34098 0.23433 0.95464 0.0
H1249 H 0.33523 0.21462 0.96175 0.0
H1250 H 0.32423 0.21966 0.89353 0.0
H1251 H 0.33552 0.2061 0.62092 0.0
H1252 H 0.33009 0.18061 0.65452 0.0
H1253 H 0.3426 0.19563 0.8915 0.0
C1254 C 0.35736 0.25316 0.8136 0.0
C1255 C 0.35818 0.26166 0.7496 0.0
C1256 C 0.35302 0.25444 0.67686 0.0
C1257 C 0.34719 0.23881 0.66742 0.0
C1258 C 0.34663 0.23068 0.73146 0.0
C1259 C 0.3515 0.23754 0.80321 0.0
C1260 C 0.35017 0.22627 0.86196 0.0
C1261 C 0.36773 0.23171 0.89977 0.0
C1262 C 0.33686 0.22356 0.92148 0.0
C1263 C 0.3441 0.2121 0.81177 0.0
C1264 C 0.34203 0.21488 0.73685 0.0
C1265 C 0.33689 0.2037 0.67952 0.0
C1266 C 0.33376 0.18924 0.69927 0.0
C1267 C 0.3358 0.18608 0.77571 0.0
C1268 C 0.34102 0.19771 0.83256 0.0
H1269 H 0.86951 0.25873 0.76754 0.0
H1270 H 0.85911 0.26721 0.53787 0.0
H1271 H 0.83419 0.2405 0.52654 0.0
H1272 H 0.86065 0.22129 0.72813 0.0
H1273 H 0.85124 0.21371 0.81861 0.0
H1274 H 0.86709 0.23385 0.81105 0.0
H1275 H 0.84599 0.24077 0.86686 0.0
H1276 H 0.83005 0.22062 0.8745 0.0
H1277 H 0.82514 0.23294 0.8222 0.0
H1278 H 0.81105 0.21269 0.53928 0.0
H1279 H 0.79287 0.18521 0.571 0.0
H1280 H 0.81935 0.19479 0.79013 0.0
C1281 C 0.86178 0.25498 0.71543 0.0
C1282 C 0.86601 0.26493 0.65376 0.0
C1283 C 0.85595 0.25965 0.58563 0.0
C1284 C 0.84177 0.24458 0.57892 0.0
C1285 C 0.83798 0.23498 0.6407 0.0
C1286 C 0.84777 0.23994 0.70742 0.0
C1287 C 0.84181 0.22703 0.76308 0.0
C1288 C 0.85604 0.22378 0.78123 0.0
C1289 C 0.83536 0.23055 0.83597 0.0
C1290 C 0.82727 0.214 0.71691 0.0
C1291 C 0.82506 0.21886 0.647 0.0
C1292 C 0.8126 0.20876 0.59399 0.0
C1293 C 0.80231 0.19323 0.61252 0.0
C1294 C 0.80477 0.18798 0.68289 0.0
C1295 C 0.81727 0.19855 0.73589 0.0
H1296 H 0.81996 0.69932 0.80017 0.0
H1297 H 0.8051 0.69392 0.56113 0.0
H1298 H 0.8262 0.68668 0.53217 0.0
H1299 H 0.86353 0.71745 0.77205 0.0
H1300 H 0.8682 0.70868 0.84938 0.0
H1301 H 0.8501 0.71092 0.85379 0.0
H1302 H 0.83007 0.68168 0.87374 0.0
H1303 H 0.84817 0.67935 0.86972 0.0
H1304 H 0.82993 0.6682 0.80626 0.0
H1305 H 0.8507 0.68308 0.52652 0.0
H1306 H 0.87773 0.68368 0.54382 0.0
H1307 H 0.87751 0.69176 0.7864 0.0
C1308 C 0.82085 0.69614 0.74224 0.0
C1309 C 0.81083 0.69694 0.68281 0.0
C1310 C 0.81263 0.69323 0.60723 0.0
C1311 C 0.8245 0.68906 0.5904 0.0
C1312 C 0.8345 0.68871 0.64986 0.0
C1313 C 0.83281 0.6921 0.72434 0.0
C1314 C 0.84636 0.69239 0.77613 0.0
C1315 C 0.85772 0.70831 0.81509 0.0
C1316 C 0.83814 0.67964 0.83494 0.0
C1317 C 0.85623 0.68911 0.71871 0.0
C1318 C 0.84897 0.68681 0.64644 0.0
C1319 C 0.85637 0.68464 0.58292 0.0
C1320 C 0.87174 0.68508 0.59322 0.0
C1321 C 0.87961 0.68773 0.66639 0.0
C1322 C 0.87157 0.68945 0.73013 0.0
H1323 H 0.07568 0.41532 0.35956 0.0
H1324 H 0.12695 0.43977 0.27147 0.0
H1325 H 0.12191 0.45976 0.22178 0.0
H1326 H 0.05628 0.42076 0.20023 0.0
H1327 H 0.04071 0.42232 0.25397 0.0
H1328 H 0.04926 0.41124 0.28977 0.0
H1329 H 0.05894 0.42755 0.4154 0.0
H1330 H 0.05032 0.43862 0.37982 0.0
H1331 H 0.07241 0.44819 0.41156 0.0
H1332 H 0.1105 0.47688 0.18027 0.0
H1333 H 0.09292 0.48759 0.13838 0.0
H1334 H 0.04885 0.45013 0.24567 0.0
C1335 C 0.08603 0.42504 0.33126 0.0
C1336 C 0.10184 0.42619 0.32058 0.0
C1337 C 0.11481 0.43879 0.28085 0.0
C1338 C 0.11207 0.45019 0.2528 0.0
C1339 C 0.09622 0.44863 0.26419 0.0
C1340 C 0.08339 0.43623 0.30181 0.0
C1341 C 0.06695 0.43622 0.30063 0.0
C1342 C 0.05246 0.42178 0.25863 0.0
C1343 C 0.06187 0.43774 0.38168 0.0
C1344 C 0.07243 0.45054 0.25613 0.0
C1345 C 0.08943 0.45778 0.23672 0.0
C1346 C 0.09719 0.47128 0.19521 0.0
C1347 C 0.08719 0.47731 0.17195 0.0
C1348 C 0.06965 0.4696 0.18898 0.0
C1349 C 0.06228 0.45618 0.23205 0.0
H1350 H 0.67526 0.78188 0.20589 0.0
H1351 H 0.6382 0.77055 0.38106 0.0
H1352 H 0.61675 0.74758 0.30466 0.0
H1353 H 0.64628 0.76669 0.03585 0.0
H1354 H 0.65822 0.75906 0.9949 0.0
H1355 H 0.66892 0.77601 0.05587 0.0
H1356 H 0.68004 0.76237 0.145 0.0
H1357 H 0.66974 0.74607 0.08038 0.0
H1358 H 0.66481 0.74371 0.18 0.0
H1359 H 0.6007 0.72467 0.21619 0.0
H1360 H 0.59251 0.70202 0.13402 0.0
H1361 H 0.64109 0.72752 0.02159 0.0
C1362 C 0.66248 0.77473 0.22706 0.0
C1363 C 0.6581 0.77797 0.29813 0.0
C1364 C 0.64153 0.76824 0.32585 0.0
C1365 C 0.62932 0.75528 0.2827 0.0
C1366 C 0.6341 0.75222 0.21285 0.0
C1367 C 0.6504 0.76157 0.18587 0.0
C1368 C 0.65331 0.75453 0.11612 0.0
C1369 C 0.65689 0.76467 0.04655 0.0
C1370 C 0.66782 0.75149 0.13124 0.0
C1371 C 0.63616 0.73964 0.10821 0.0
C1372 C 0.62513 0.73866 0.16357 0.0
C1373 C 0.60913 0.72539 0.17197 0.0
C1374 C 0.60457 0.71258 0.12483 0.0
C1375 C 0.61615 0.71305 0.07119 0.0
C1376 C 0.63187 0.72692 0.06116 0.0
H1377 H 0.38261 0.02217 0.11016 0.0
H1378 H 0.41277 0.04541 0.31434 0.0
H1379 H 0.38914 0.02677 0.39334 0.0
H1380 H 0.34615 0.01822 0.1724 0.0
H1381 H 0.33129 -0.0004 0.12987 0.0
H1382 H 0.35175 0.01174 0.08828 0.0
H1383 H 0.35838 0.99017 0.09898 0.0
H1384 H 0.33773 0.97783 0.13966 0.0
H1385 H 0.35687 0.98155 0.18969 0.0
H1386 H 0.36135 0.00952 0.44901 0.0
H1387 H 0.33074 0.99536 0.47853 0.0
H1388 H 0.31743 0.98321 0.23958 0.0
C1389 C 0.38443 0.02276 0.17144 0.0
C1390 C 0.39955 0.03483 0.20668 0.0
C1391 C 0.40134 0.03596 0.28684 0.0
C1392 C 0.38802 0.0254 0.33197 0.0
C1393 C 0.37296 0.01388 0.2959 0.0
C1394 C 0.37105 0.01244 0.21739 0.0
C1395 C 0.35265 0.00074 0.19337 0.0
C1396 C 0.34504 0.00803 0.14305 0.0
C1397 C 0.35134 0.98674 0.15305 0.0
C1398 C 0.34437 0.99653 0.27034 0.0
C1399 C 0.35644 0.00395 0.32866 0.0
C1400 C 0.35182 0.00334 0.40413 0.0
C1401 C 0.33441 0.99534 0.42032 0.0
C1402 C 0.32182 0.9881 0.36136 0.0
C1403 C 0.32686 0.98828 0.28579 0.0
H1404 H 0.40104 0.10444 0.13314 0.0
H1405 H 0.44579 0.12295 0.99365 0.0
H1406 H 0.43678 0.13881 0.92672 0.0
H1407 H 0.37284 0.09915 0.99313 0.0
H1408 H 0.36016 0.10429 0.04833 0.0
H1409 H 0.37192 0.09704 0.09495 0.0
H1410 H 0.38717 0.12137 0.18276 0.0
H1411 H 0.3755 0.12881 0.13592 0.0
H1412 H 0.39855 0.14013 0.14144 0.0
H1413 H 0.4201 0.14894 0.86057 0.0
H1414 H 0.39762 0.15237 0.8029 0.0
H1415 H 0.36434 0.12751 0.98847 0.0
C1416 C 0.40924 0.11222 0.09023 0.0
C1417 C 0.42415 0.11258 0.06881 0.0
C1418 C 0.43444 0.1227 0.01162 0.0
C1419 C 0.42941 0.13174 0.97333 0.0
C1420 C 0.41426 0.13071 0.99407 0.0
C1421 C 0.40447 0.12135 0.05212 0.0
C1422 C 0.38784 0.12091 0.05832 0.0
C1423 C 0.37229 0.10438 0.048 0.0
C1424 C 0.38724 0.12825 0.13412 0.0
C1425 C 0.38932 0.13078 0.99201 0.0
C1426 C 0.40475 0.13659 0.95635 0.0
C1427 C 0.40816 0.14475 0.88914 0.0
C1428 C 0.39531 0.14665 0.85675 0.0
C1429 C 0.37922 0.14026 0.89124 0.0
C1430 C 0.37652 0.13269 0.96095 0.0
H1431 H 0.98718 0.41348 0.03941 0.0
H1432 H 0.97621 0.44564 0.93446 0.0
H1433 H 0.95399 0.42463 0.85178 0.0
H1434 H 0.98607 0.39486 0.87842 0.0
H1435 H 0.97623 0.37588 0.91709 0.0
H1436 H 0.98845 0.39249 0.97849 0.0
H1437 H 0.96239 0.38307 0.06526 0.0
H1438 H 0.95012 0.36632 1.004 0.0
H1439 H 0.94217 0.37873 0.02438 0.0
H1440 H 0.93671 0.40111 0.76539 0.0
H1441 H 0.92565 0.3771 0.68715 0.0
H1442 H 0.94833 0.36102 0.84958 0.0
C1443 C 0.9797 0.41601 1.00089 0.0
C1444 C 0.98333 0.43113 0.9935 0.0
C1445 C 0.97349 0.43406 0.94153 0.0
C1446 C 0.96084 0.4222 0.89435 0.0
C1447 C 0.95805 0.40748 0.9008 0.0
C1448 C 0.96707 0.40433 0.95371 0.0
C1449 C 0.96314 0.38808 0.94411 0.0
C1450 C 0.97944 0.38783 0.92856 0.0
C1451 C 0.9539 0.37849 0.01357 0.0
C1452 C 0.95128 0.38287 0.87497 0.0
C1453 C 0.94815 0.39403 0.85139 0.0
C1454 C 0.93872 0.39215 0.78445 0.0
C1455 C 0.93253 0.37857 0.74034 0.0
C1456 C 0.93604 0.36733 0.76355 0.0
C1457 C 0.94524 0.36941 0.8319 0.0
H1458 H 0.70352 0.67415 0.68588 0.0
H1459 H 0.73221 0.6855 0.89957 0.0
H1460 H 0.7053 0.67336 0.96953 0.0
H1461 H 0.6765 0.68463 0.74184 0.0
H1462 H 0.65744 0.6699 0.69196 0.0
H1463 H 0.67811 0.67545 0.65694 0.0
H1464 H 0.67058 0.64728 0.66206 0.0
H1465 H 0.64969 0.64155 0.69607 0.0
H1466 H 0.6633 0.63698 0.74951 0.0
H1467 H 0.67703 0.66591 0.01609 0.0
H1468 H 0.64883 0.66262 0.0366 0.0
H1469 H 0.63735 0.65509 0.79428 0.0
C1470 C 0.70398 0.67327 0.74712 0.0
C1471 C 0.71981 0.68042 0.78763 0.0
C1472 C 0.72012 0.67985 0.86788 0.0
C1473 C 0.70491 0.67295 0.90794 0.0
C1474 C 0.68948 0.66664 0.86679 0.0
C1475 C 0.68883 0.66654 0.78803 0.0
C1476 C 0.67089 0.66118 0.75831 0.0
C1477 C 0.67074 0.67353 0.70943 0.0
C1478 C 0.66316 0.64583 0.71386 0.0
C1479 C 0.66184 0.65914 0.83254 0.0
C1480 C 0.67277 0.66212 0.89435 0.0
C1481 C 0.66817 0.66307 0.9684 0.0
C1482 C 0.65219 0.66126 0.97951 0.0
C1483 C 0.64092 0.65843 0.91706 0.0
C1484 C 0.64558 0.65686 0.843 0.0
H1485 H 0.02889 0.65542 0.73995 0.0
H1486 H 0.00211 0.63011 0.93821 0.0
H1487 H 0.9766 0.63071 0.89625 0.0
H1488 H 0.01663 0.68125 0.75802 0.0
H1489 H 0.01504 0.68405 0.65781 0.0
H1490 H 0.02905 0.67796 0.69109 0.0
H1491 H 0.01393 0.65421 0.59978 0.0
H1492 H -0.00024 0.66021 0.56596 0.0
H1493 H 0.99108 0.64125 0.60345 0.0
H1494 H 0.95595 0.63751 0.8438 0.0
H1495 H 0.94296 0.65158 0.79217 0.0
H1496 H 0.98436 0.67436 0.63437 0.0
C1497 C 0.01731 0.64936 0.77221 0.0
C1498 C 0.01706 0.6422 0.84054 0.0
C1499 C 0.00219 0.63519 0.88434 0.0
C1500 C 0.9877 0.6355 0.8609 0.0
C1501 C 0.98849 0.64313 0.79431 0.0
C1502 C 0.00298 0.65 0.75074 0.0
C1503 C 0.00185 0.65984 0.69001 0.0
C1504 C 0.0165 0.67677 0.69991 0.0
C1505 C 0.00163 0.65349 0.61005 0.0
C1506 C 0.98475 0.65783 0.70762 0.0
C1507 C 0.97701 0.64783 0.76661 0.0
C1508 C 0.96174 0.64514 0.7967 0.0
C1509 C 0.95444 0.65316 0.76702 0.0
C1510 C 0.96265 0.66398 0.70919 0.0
C1511 C 0.97774 0.66603 0.67811 0.0
H1512 H 0.44643 0.41096 0.10235 0.0
H1513 H 0.4753 0.44693 0.94177 0.0
H1514 H 0.46997 0.42743 0.8436 0.0
H1515 H 0.46054 0.38399 0.0211 0.0
H1516 H 0.43997 0.36718 0.03882 0.0
H1517 H 0.44881 0.3837 0.10285 0.0
H1518 H 0.42177 0.38508 0.08497 0.0
H1519 H 0.41247 0.36854 0.02217 0.0
H1520 H 0.41464 0.38615 0.99025 0.0
H1521 H 0.45444 0.40463 0.75605 0.0
H1522 H 0.43398 0.37972 0.69099 0.0
H1523 H 0.41848 0.35815 0.90939 0.0
C1524 C 0.45232 0.41468 0.04764 0.0
C1525 C 0.46136 0.43037 0.02958 0.0
C1526 C 0.4686 0.43495 0.95708 0.0
C1527 C 0.46559 0.42394 0.90079 0.0
C1528 C 0.45588 0.40846 0.91898 0.0
C1529 C 0.44991 0.40382 0.99157 0.0
C1530 C 0.43872 0.38647 0.9946 0.0
C1531 C 0.44754 0.37995 0.04222 0.0
C1532 C 0.42085 0.38127 0.0247 0.0
C1533 C 0.43792 0.38225 0.9112 0.0
C1534 C 0.44806 0.39507 0.86846 0.0
C1535 C 0.44712 0.39438 0.78895 0.0
C1536 C 0.43547 0.38028 0.75242 0.0
C1537 C 0.42528 0.3671 0.79559 0.0
C1538 C 0.42681 0.36801 0.87557 0.0
H1539 H 0.71953 0.09693 0.86184 0.0
H1540 H 0.72993 0.14347 0.86896 0.0
H1541 H 0.70066 0.1337 0.91599 0.0
H1542 H 0.67585 0.07753 0.80156 0.0
H1543 H 0.66956 0.06127 0.86121 0.0
H1544 H 0.69101 0.0721 0.82688 0.0
H1545 H 0.70318 0.0768 0.96555 0.0
H1546 H 0.68176 0.06594 1.00034 0.0
H1547 H 0.69626 0.08536 0.03495 0.0
H1548 H 0.66901 0.11785 0.95549 0.0
H1549 H 0.63992 0.09821 0.99798 0.0
H1550 H 0.65247 0.06308 0.97269 0.0
C1551 C 0.71563 0.10508 0.87296 0.0
C1552 C 0.72678 0.12089 0.86093 0.0
C1553 C 0.72144 0.13127 0.87774 0.0
C1554 C 0.70487 0.12582 0.90408 0.0
C1555 C 0.69406 0.11004 0.91457 0.0
C1556 C 0.69943 0.09991 0.90066 0.0
C1557 C 0.68591 0.08363 0.91922 0.0
C1558 C 0.68025 0.07301 0.84797 0.0
C1559 C 0.69215 0.07758 0.98387 0.0
C1560 C 0.67192 0.08604 0.94494 0.0
C1561 C 0.67664 0.10127 0.94116 0.0
C1562 C 0.6653 0.10594 0.9595 0.0
C1563 C 0.64882 0.09475 0.98319 0.0
C1564 C 0.64413 0.07924 0.98949 0.0
C1565 C 0.65584 0.07492 0.96973 0.0
H1566 H 0.65867 0.9746 0.17531 0.0
H1567 H 0.63473 0.96131 0.39376 0.0
H1568 H 0.61267 0.96673 0.34991 0.0
H1569 H 0.65607 0.00713 0.16794 0.0
H1570 H 0.65401 0.00629 0.06556 0.0
H1571 H 0.66453 -0.00214 0.11271 0.0
H1572 H 0.64233 0.97146 0.04018 0.0
H1573 H 0.63248 0.98094 0.99694 0.0
H1574 H 0.61983 0.96376 0.05043 0.0
H1575 H 0.59598 0.97717 0.28888 0.0
H1576 H 0.58861 0.99439 0.22468 0.0
H1577 H 0.62528 0.00292 0.05093 0.0
C1578 C 0.64834 0.97224 0.21252 0.0
C1579 C 0.64792 0.96711 0.28674 0.0
C1580 C 0.63484 0.96486 0.33583 0.0
C1581 C 0.62229 0.96788 0.31128 0.0
C1582 C 0.62328 0.97339 0.23804 0.0
C1583 C 0.63612 0.9757 0.18977 0.0
C1584 C 0.63651 0.98446 0.12041 0.0
C1585 C 0.65379 -0.00017 0.11636 0.0
C1586 C 0.63255 0.97457 0.04761 0.0
C1587 C 0.62215 0.98704 0.1376 0.0
C1588 C 0.61434 0.98023 0.20468 0.0
C1589 C 0.60178 0.98229 0.23558 0.0
C1590 C 0.59761 0.99203 0.19857 0.0
C1591 C 0.60628 -0.00017 0.13257 0.0
C1592 C 0.61825 -0.00313 0.10058 0.0
H1593 H 0.07527 0.71301 0.01443 0.0
H1594 H 0.11053 0.70072 0.10562 0.0
H1595 H 0.12319 0.72338 0.19277 0.0
H1596 H 0.10475 0.75615 0.03637 0.0
H1597 H 0.08721 0.7582 0.06319 0.0
H1598 H 0.08354 0.74304 0.99742 0.0
H1599 H 0.06014 0.72303 0.0846 0.0
H1600 H 0.06392 0.73804 0.15105 0.0
H1601 H 0.06551 0.72213 0.18275 0.0
H1602 H 0.12842 0.74456 0.28494 0.0
H1603 H 0.12693 0.76349 0.36829 0.0
H1604 H 0.0881 0.76148 0.21583 0.0
C1605 C 0.0861 0.71542 0.05055 0.0
C1606 C 0.09199 0.70518 0.05298 0.0
C1607 C 0.10593 0.70852 0.10232 0.0
C1608 C 0.1132 0.72135 0.15212 0.0
C1609 C 0.1065 0.73081 0.15105 0.0
C1610 C 0.09345 0.72814 0.10051 0.0
C1611 C 0.08722 0.73893 0.11619 0.0
C1612 C 0.09091 0.74972 0.04932 0.0
C1613 C 0.06807 0.72999 0.13478 0.0
C1614 C 0.09828 0.74761 0.18534 0.0
C1615 C 0.10948 0.74295 0.20423 0.0
C1616 C 0.11997 0.74855 0.26974 0.0
C1617 C 0.11896 0.75921 0.31697 0.0
C1618 C 0.10746 0.76401 0.29852 0.0
C1619 C 0.09717 0.7582 0.23137 0.0
H1620 H 0.41845 0.46711 0.34688 0.0
H1621 H 0.4052 0.45584 0.10731 0.0
H1622 H 0.37483 0.44554 0.13402 0.0
H1623 H 0.38492 0.43357 0.41115 0.0
H1624 H 0.38102 0.44154 0.49478 0.0
H1625 H 0.40196 0.45115 0.45525 0.0
H1626 H 0.40148 0.4761 0.44448 0.0
H1627 H 0.38042 0.46655 0.48374 0.0
H1628 H 0.3841 0.4757 0.39308 0.0
H1629 H 0.34606 0.43308 0.18693 0.0
H1630 H 0.32046 0.41798 0.26349 0.0
H1631 H 0.35165 0.43648 0.47046 0.0
C1632 C 0.40917 0.46298 0.29999 0.0
C1633 C 0.41406 0.46241 0.22497 0.0
C1634 C 0.40161 0.45641 0.16509 0.0
C1635 C 0.38439 0.45065 0.17965 0.0
C1636 C 0.37982 0.45094 0.25451 0.0
C1637 C 0.39182 0.45694 0.31386 0.0
C1638 C 0.38321 0.45385 0.39002 0.0
C1639 C 0.38805 0.44445 0.44074 0.0
C1640 C 0.38756 0.46895 0.43019 0.0
C1641 C 0.36454 0.44455 0.36428 0.0
C1642 C 0.36291 0.44336 0.28575 0.0
C1643 C 0.34712 0.43417 0.24839 0.0
C1644 C 0.33266 0.42559 0.29232 0.0
C1645 C 0.33409 0.42618 0.37274 0.0
C1646 C 0.35015 0.43615 0.4091 0.0
H1647 H 0.72164 0.78921 0.61384 0.0
H1648 H 0.75584 0.8086 0.42574 0.0
H1649 H 0.77487 0.80081 0.48469 0.0
H1650 H 0.7548 0.7974 0.76736 0.0
H1651 H 0.74034 0.77934 0.81088 0.0
H1652 H 0.73208 0.78955 0.76155 0.0
H1653 H 0.71273 0.76509 0.67626 0.0
H1654 H 0.72112 0.75514 0.72607 0.0
H1655 H 0.7225 0.75657 0.624 0.0
H1656 H 0.78744 0.78744 0.55471 0.0
H1657 H 0.79127 0.76835 0.62218 0.0
H1658 H 0.74829 0.75755 0.76325 0.0
C1659 C 0.73347 0.79229 0.58669 0.0
C1660 C 0.73762 0.79972 0.51656 0.0
C1661 C 0.75277 0.80313 0.48045 0.0
C1662 C 0.76361 0.79881 0.51371 0.0
C1663 C 0.75901 0.79119 0.58286 0.0
C1664 C 0.74427 0.78801 0.6189 0.0
C1665 C 0.74079 0.77791 0.68668 0.0
C1666 C 0.74209 0.78657 0.76103 0.0
C1667 C 0.72326 0.76279 0.67765 0.0
C1668 C 0.75539 0.7752 0.68121 0.0
C1669 C 0.76604 0.78326 0.6223 0.0
C1670 C 0.77941 0.78134 0.60192 0.0
C1671 C 0.78153 0.7705 0.64073 0.0
C1672 C 0.77012 0.76156 0.69819 0.0
C1673 C 0.75734 0.76439 0.72034 0.0
H1674 H 0.29018 0.01988 0.63767 0.0
H1675 H 0.2561 0.02022 0.46594 0.0
H1676 H 0.25612 0.04138 0.5375 0.0
H1677 H 0.27242 0.02954 0.80439 0.0
H1678 H 0.29337 0.04117 0.84871 0.0
H1679 H 0.2884 0.02467 0.79006 0.0
H1680 H 0.31435 0.04186 0.70652 0.0
H1681 H 0.3195 0.05833 0.76492 0.0
H1682 H 0.31618 0.05859 0.6637 0.0
H1683 H 0.26352 0.0648 0.61835 0.0
H1684 H 0.27817 0.08873 0.69712 0.0
H1685 H 0.30657 0.07204 0.8177 0.0
C1686 C 0.28246 0.02425 0.61625 0.0
C1687 C 0.27315 0.01865 0.54703 0.0
C1688 C 0.26324 0.02451 0.51943 0.0
C1689 C 0.26312 0.03639 0.55987 0.0
C1690 C 0.27271 0.0419 0.62803 0.0
C1691 C 0.28207 0.03588 0.6562 0.0
C1692 C 0.29257 0.04461 0.72641 0.0
C1693 C 0.28631 0.03439 0.79653 0.0
C1694 C 0.31178 0.05125 0.7146 0.0
C1695 C 0.28849 0.05709 0.73112 0.0
C1696 C 0.27674 0.05519 0.67503 0.0
C1697 C 0.27241 0.06622 0.66354 0.0
C1698 C 0.28078 0.07977 0.70864 0.0
C1699 C 0.29343 0.08217 0.76372 0.0
C1700 C 0.29678 0.07041 0.77681 0.0
H1701 H 0.03081 0.35979 0.40553 0.0
H1702 H 0.05208 0.33872 0.54405 0.0
H1703 H 0.02327 0.3205 0.59232 0.0
H1704 H 0.00564 0.36072 0.5388 0.0
H1705 H 0.988 0.35679 0.47607 0.0
H1706 H 0.00918 0.36559 0.43978 0.0
H1707 H -0.00153 0.34374 0.33737 0.0
H1708 H 0.97717 0.33499 0.37336 0.0
H1709 H 0.98728 0.32399 0.36612 0.0
H1710 H 0.99326 0.30789 0.64215 0.0
H1711 H 0.96536 0.30237 0.68862 0.0
H1712 H 0.96428 0.33195 0.51683 0.0
C1713 C 0.02932 0.351 0.44401 0.0
C1714 C 0.04361 0.35057 0.47072 0.0
C1715 C 0.04123 0.33909 0.52211 0.0
C1716 C 0.02491 0.3287 0.54977 0.0
C1717 C 0.01115 0.32984 0.52452 0.0
C1718 C 0.0132 0.34061 0.47192 0.0
C1719 C -0.00297 0.3409 0.4608 0.0
C1720 C 0.00016 0.35694 0.48007 0.0
C1721 C 0.98955 0.33558 0.37957 0.0
C1722 C 0.98582 0.32921 0.51829 0.0
C1723 C 0.99397 0.32268 0.55346 0.0
C1724 C 0.98661 0.31267 0.61374 0.0
C1725 C 0.97075 0.30959 0.63978 0.0
C1726 C 0.96261 0.3167 0.6062 0.0
C1727 C 0.97007 0.32622 0.54327 0.0
H1728 H 0.33934 0.33137 0.69671 0.0
H1729 H 0.33413 0.30119 0.50887 0.0
H1730 H 0.31307 0.30578 0.44563 0.0
H1731 H 0.29346 0.32138 0.69044 0.0
H1732 H 0.30005 0.34097 0.71419 0.0
H1733 H 0.31218 0.33303 0.75056 0.0
H1734 H 0.33961 0.35547 0.69254 0.0
H1735 H 0.32757 0.36339 0.65602 0.0
H1736 H 0.33968 0.35903 0.59226 0.0
H1737 H 0.29764 0.31794 0.39156 0.0
H1738 H 0.28778 0.33549 0.35569 0.0
H1739 H 0.30134 0.3562 0.58184 0.0
C1740 C 0.3334 0.32537 0.64331 0.0
C1741 C 0.33843 0.316 0.6075 0.0
C1742 C 0.33044 0.3084 0.53746 0.0
C1743 C 0.31843 0.31091 0.50119 0.0
C1744 C 0.31423 0.32071 0.53672 0.0
C1745 C 0.32126 0.32759 0.60703 0.0
C1746 C 0.31594 0.33875 0.63003 0.0
C1747 C 0.30474 0.33319 0.70048 0.0
C1748 C 0.33163 0.35512 0.64342 0.0
C1749 C 0.30562 0.33775 0.55985 0.0
C1750 C 0.30459 0.32716 0.50686 0.0
C1751 C 0.29776 0.32582 0.43355 0.0
C1752 C 0.29218 0.33577 0.41359 0.0
C1753 C 0.29331 0.34667 0.46715 0.0
C1754 C 0.29972 0.34743 0.54136 0.0
H1755 H 0.76458 0.09125 0.56354 0.0
H1756 H 0.77689 0.0787 0.77815 0.0
H1757 H 0.77096 0.05414 0.71946 0.0
H1758 H 0.72945 0.05828 0.52828 0.0
H1759 H 0.73074 0.05718 0.4264 0.0
H1760 H 0.74154 0.07557 0.47469 0.0
H1761 H 0.7705 0.0821 0.41914 0.0
H1762 H 0.75959 0.06387 0.36825 0.0
H1763 H 0.77771 0.06892 0.43032 0.0
H1764 H 0.75885 0.02955 0.64506 0.0
H1765 H 0.73918 0.00628 0.56794 0.0
H1766 H 0.73201 0.03416 0.40582 0.0
C1767 C 0.76704 0.08372 0.59645 0.0
C1768 C 0.77187 0.08698 0.67395 0.0
C1769 C 0.77378 0.07649 0.71781 0.0
C1770 C 0.77046 0.06258 0.68481 0.0
C1771 C 0.76505 0.05938 0.6084 0.0
C1772 C 0.76338 0.06971 0.56468 0.0
C1773 C 0.75411 0.06245 0.48956 0.0
C1774 C 0.73801 0.06342 0.47926 0.0
C1775 C 0.7662 0.06976 0.42286 0.0
C1776 C 0.74963 0.04611 0.50022 0.0
C1777 C 0.75676 0.04474 0.56736 0.0
C1778 C 0.7535 0.03055 0.59172 0.0
C1779 C 0.74232 0.0174 0.5475 0.0
C1780 C 0.73417 0.01851 0.48098 0.0
C1781 C 0.73822 0.03307 0.45616 0.0
H1782 H 0.99468 0.75246 0.69731 0.0
H1783 H 0.95955 0.72978 0.50572 0.0
H1784 H 0.98 0.74979 0.42074 0.0
H1785 H 0.01651 0.79413 0.62234 0.0
H1786 H 0.03701 0.79829 0.6587 0.0
H1787 H 0.01781 0.78537 0.70853 0.0
H1788 H 0.02542 0.76431 0.70173 0.0
H1789 H 0.04449 0.77723 0.65255 0.0
H1790 H 0.02928 0.75867 0.61034 0.0
H1791 H 0.00585 0.7671 0.35346 0.0
H1792 H 0.03543 0.7801 0.3086 0.0
H1793 H 0.05483 0.79262 0.54077 0.0
C1794 C 0.99103 0.75231 0.63822 0.0
C1795 C 0.9755 0.73992 0.60782 0.0
C1796 C 0.97133 0.73941 0.52974 0.0
C1797 C 0.98283 0.75078 0.48129 0.0
C1798 C -0.00152 0.76255 0.51189 0.0
C1799 C 0.00259 0.76349 0.5888 0.0
C1800 C 0.02133 0.77549 0.6046 0.0
C1801 C 0.02327 0.78913 0.6513 0.0
C1802 C 0.03065 0.76848 0.64457 0.0
C1803 C 0.02738 0.78016 0.52415 0.0
C1804 C 0.01385 0.77292 0.47179 0.0
C1805 C 0.01647 0.77334 0.3937 0.0
C1806 C 0.03328 0.78074 0.36859 0.0
C1807 C 0.04721 0.78772 0.4213 0.0
C1808 C 0.04428 0.78799 0.49956 0.0
loop_
_geom_bond_atom_site_label_1
_geom_bond_atom_site_label_2
_geom_bond_distance
_geom_bond_site_symmetry_2
_ccdc_geom_bond_type
Co0 N4 2.148 1_554 S
Co0 N10 2.128 . S
Co0 N20 2.194 . S
Co0 O25 2.351 1_454 S
Co0 O26 2.155 . S
Co0 O27 2.096 . S
C1 N4 1.301 . S
C1 N5 1.328 . S
C1 H6 0.930 . S
C2 C3 1.333 . S
C2 N4 1.317 . S
C2 H7 0.930 . S
C3 C2 1.333 . S
C3 N5 1.350 . S
C3 H29 0.931 . S
N4 Co0 2.148 1_556 S
N4 C1 1.301 . S
N4 C2 1.317 . S
N5 C1 1.328 . S
N5 C3 1.350 . S
H6 C1 0.930 . S
H7 C2 0.930 . S
C8 O9 1.224 . S
C8 O27 1.247 . S
O9 C8 1.224 . S
N10 Co0 2.128 . S
N10 C11 1.355 . S
N10 C13 1.311 . S
C11 N10 1.355 . S
C11 C12 1.363 . S
C11 H23 0.929 1_455 S
C12 C11 1.363 . S
C12 N14 1.375 . S
C12 H30 0.931 1_455 S
C13 N10 1.311 . S
C13 N14 1.347 . S
C13 H24 0.929 . S
N14 C12 1.375 . S
N14 C13 1.347 . S
C15 C18 1.365 . S
C15 N20 1.328 . S
C15 H21 0.929 1_554 S
C16 C17 1.362 . S
C16 C19 1.378 . S
C16 H31 0.929 . S
C17 C16 1.362 . S
C17 C18 1.366 . S
C18 C15 1.365 . S
C18 C17 1.366 . S
C18 H32 0.930 1_554 S
C19 C16 1.378 . S
C19 N20 1.315 . S
C19 H22 0.930 . S
N20 Co0 2.194 . S
N20 C15 1.328 . S
N20 C19 1.315 . S
H21 C15 0.929 1_556 S
H22 C19 0.930 . S
H23 C11 0.929 1_655 S
H24 C13 0.929 . S
O25 Co0 2.351 1_656 S
O25 C28 1.244 . S
O26 Co0 2.155 . S
O26 C28 1.240 1_454 S
O27 Co0 2.096 . S
O27 C8 1.247 . S
C28 O25 1.244 . S
C28 O26 1.240 1_656 S
H29 C3 0.931 . S
H30 C12 0.931 1_655 S
H31 C16 0.929 . S
H32 C18 0.930 1_556 S
Co33 N37 2.148 . S
Co33 N43 2.128 1_554 S
Co33 N53 2.194 . S
Co33 O58 2.351 . S
Co33 O59 2.155 . S
Co33 O60 2.096 . S
C34 N37 1.301 . S
C34 N38 1.328 . S
C34 H39 0.930 . S
C35 C36 1.333 . S
C35 N37 1.317 . S
C35 H40 0.930 . S
C36 C35 1.333 . S
C36 N38 1.350 . S
C36 H62 0.931 . S
N37 Co33 2.148 . S
N37 C34 1.301 . S
N37 C35 1.317 . S
N38 C34 1.328 . S
N38 C36 1.350 . S
H39 C34 0.930 . S
H40 C35 0.930 . S
C41 O42 1.224 . S
C41 O60 1.247 1_556 S
O42 C41 1.224 . S
N43 Co33 2.128 1_556 S
N43 C44 1.355 . S
N43 C46 1.311 . S
C44 N43 1.355 . S
C44 C45 1.363 . S
C44 H56 0.929 . S
C45 C44 1.363 . S
C45 N47 1.375 . S
C45 H63 0.931 . S
C46 N43 1.311 . S
C46 N47 1.347 . S
C46 H57 0.929 . S
N47 C45 1.375 . S
N47 C46 1.347 . S
C48 C51 1.365 . S
C48 N53 1.328 . S
C48 H54 0.929 . S
C49 C50 1.362 . S
C49 C52 1.378 . S
C49 H64 0.929 . S
C50 C49 1.362 . S
C50 C51 1.366 . S
C51 C48 1.365 . S
C51 C50 1.366 . S
C51 H65 0.930 . S
C52 C49 1.378 . S
C52 N53 1.315 . S
C52 H55 0.930 . S
N53 Co33 2.194 . S
N53 C48 1.328 . S
N53 C52 1.315 . S
H54 C48 0.929 . S
H55 C52 0.930 . S
H56 C44 0.929 . S
H57 C46 0.929 . S
O58 Co33 2.351 . S
O58 C61 1.244 . S
O59 Co33 2.155 . S
O59 C61 1.240 . S
O60 Co33 2.096 . S
O60 C41 1.247 1_554 S
C61 O58 1.244 . S
C61 O59 1.240 . S
H62 C36 0.931 . S
H63 C45 0.931 . S
H64 C49 0.929 . S
H65 C51 0.930 . S
Co66 N70 2.148 1_554 S
Co66 N76 2.128 . S
Co66 N86 2.194 . S
Co66 O91 2.351 . S
Co66 O92 2.155 . S
Co66 O93 2.096 . S
C67 N70 1.301 . S
C67 N71 1.328 . S
C67 H72 0.930 . S
C68 C69 1.333 . S
C68 N70 1.317 . S
C68 H73 0.930 . S
C69 C68 1.333 . S
C69 N71 1.350 . S
C69 H95 0.931 . S
N70 Co66 2.148 1_556 S
N70 C67 1.301 . S
N70 C68 1.317 . S
N71 C67 1.328 . S
N71 C69 1.350 . S
H72 C67 0.930 . S
H73 C68 0.930 . S
C74 O75 1.224 . S
C74 O93 1.247 . S
O75 C74 1.224 . S
N76 Co66 2.128 . S
N76 C77 1.355 . S
N76 C79 1.311 . S
C77 N76 1.355 . S
C77 C78 1.363 . S
C77 H89 0.929 . S
C78 C77 1.363 . S
C78 N80 1.375 . S
C78 H96 0.931 . S
C79 N76 1.311 . S
C79 N80 1.347 . S
C79 H90 0.929 . S
N80 C78 1.375 . S
N80 C79 1.347 . S
C81 C84 1.365 . S
C81 N86 1.328 . S
C81 H87 0.929 . S
C82 C83 1.362 . S
C82 C85 1.378 . S
C82 H97 0.929 . S
C83 C82 1.362 . S
C83 C84 1.366 . S
C84 C81 1.365 . S
C84 C83 1.366 . S
C84 H98 0.930 . S
C85 C82 1.378 . S
C85 N86 1.315 . S
C85 H88 0.930 . S
N86 Co66 2.194 . S
N86 C81 1.328 . S
N86 C85 1.315 . S
H87 C81 0.929 . S
H88 C85 0.930 . S
H89 C77 0.929 . S
H90 C79 0.929 . S
O91 Co66 2.351 . S
O91 C94 1.244 . S
O92 Co66 2.155 . S
O92 C94 1.240 . S
O93 Co66 2.096 . S
O93 C74 1.247 . S
C94 O91 1.244 . S
C94 O92 1.240 . S
H95 C69 0.931 . S
H96 C78 0.931 . S
H97 C82 0.929 . S
H98 C84 0.930 . S
Co99 N103 2.148 . S
Co99 N109 2.128 1_554 S
Co99 N119 2.194 . S
Co99 O124 2.351 . S
Co99 O125 2.155 . S
Co99 O126 2.096 1_554 S
C100 N103 1.301 . S
C100 N104 1.328 . S
C100 H105 0.930 . S
C101 C102 1.333 . S
C101 N103 1.317 . S
C101 H106 0.930 . S
C102 C101 1.333 . S
C102 N104 1.350 . S
C102 H128 0.931 . S
N103 Co99 2.148 . S
N103 C100 1.301 . S
N103 C101 1.317 . S
N104 C100 1.328 . S
N104 C102 1.350 . S
H105 C100 0.930 . S
H106 C101 0.930 . S
C107 O108 1.224 . S
C107 O126 1.247 . S
O108 C107 1.224 . S
N109 Co99 2.128 1_556 S
N109 C110 1.355 . S
N109 C112 1.311 . S
C110 N109 1.355 . S
C110 C111 1.363 . S
C110 H122 0.929 . S
C111 C110 1.363 . S
C111 N113 1.375 . S
C111 H129 0.931 . S
C112 N109 1.311 . S
C112 N113 1.347 . S
C112 H123 0.929 . S
N113 C111 1.375 . S
N113 C112 1.347 . S
C114 C117 1.365 . S
C114 N119 1.328 . S
C114 H120 0.929 . S
C115 C116 1.362 . S
C115 C118 1.378 . S
C115 H130 0.929 1_554 S
C116 C115 1.362 . S
C116 C117 1.366 . S
C117 C114 1.365 . S
C117 C116 1.366 . S
C117 H131 0.930 . S
C118 C115 1.378 . S
C118 N119 1.315 . S
C118 H121 0.930 1_554 S
N119 Co99 2.194 . S
N119 C114 1.328 . S
N119 C118 1.315 . S
H120 C114 0.929 . S
H121 C118 0.930 1_556 S
H122 C110 0.929 . S
H123 C112 0.929 . S
O124 Co99 2.351 . S
O124 C127 1.244 . S
O125 Co99 2.155 . S
O125 C127 1.240 . S
O126 Co99 2.096 1_556 S
O126 C107 1.247 . S
C127 O124 1.244 . S
C127 O125 1.240 . S
H128 C102 0.931 . S
H129 C111 0.931 . S
H130 C115 0.929 1_556 S
H131 C117 0.930 . S
Co132 N136 2.148 1_554 S
Co132 N142 2.128 . S
Co132 N152 2.194 . S
Co132 O157 2.351 . S
Co132 O158 2.155 . S
Co132 O159 2.096 . S
C133 N136 1.301 . S
C133 N137 1.328 . S
C133 H138 0.930 . S
C134 C135 1.333 . S
C134 N136 1.317 . S
C134 H139 0.930 . S
C135 C134 1.333 . S
C135 N137 1.350 . S
C135 H161 0.931 . S
N136 Co132 2.148 1_556 S
N136 C133 1.301 . S
N136 C134 1.317 . S
N137 C133 1.328 . S
N137 C135 1.350 . S
H138 C133 0.930 . S
H139 C134 0.930 . S
C140 O141 1.224 . S
C140 O159 1.247 . S
O141 C140 1.224 . S
N142 Co132 2.128 . S
N142 C143 1.355 . S
N142 C145 1.311 . S
C143 N142 1.355 . S
C143 C144 1.363 . S
C143 H155 0.929 . S
C144 C143 1.363 . S
C144 N146 1.375 . S
C144 H162 0.931 . S
C145 N142 1.311 . S
C145 N146 1.347 . S
C145 H156 0.929 . S
N146 C144 1.375 . S
N146 C145 1.347 . S
C147 C150 1.365 . S
C147 N152 1.328 . S
C147 H153 0.929 . S
C148 C149 1.362 . S
C148 C151 1.378 . S
C148 H163 0.929 . S
C149 C148 1.362 . S
C149 C150 1.366 . S
C150 C147 1.365 . S
C150 C149 1.366 . S
C150 H164 0.930 . S
C151 C148 1.378 . S
C151 N152 1.315 . S
C151 H154 0.930 . S
N152 Co132 2.194 . S
N152 C147 1.328 . S
N152 C151 1.315 . S
H153 C147 0.929 . S
H154 C151 0.930 . S
H155 C143 0.929 . S
H156 C145 0.929 . S
O157 Co132 2.351 . S
O157 C160 1.244 . S
O158 Co132 2.155 . S
O158 C160 1.240 . S
O159 Co132 2.096 . S
O159 C140 1.247 . S
C160 O157 1.244 . S
C160 O158 1.240 . S
H161 C135 0.931 . S
H162 C144 0.931 . S
H163 C148 0.929 . S
H164 C150 0.930 . S
Co165 N169 2.148 . S
Co165 N175 2.128 1_554 S
Co165 N185 2.194 . S
Co165 O190 2.351 . S
Co165 O191 2.155 . S
Co165 O192 2.096 . S
C166 N169 1.301 . S
C166 N170 1.328 . S
C166 H171 0.930 . S
C167 C168 1.333 . S
C167 N169 1.317 . S
C167 H172 0.930 . S
C168 C167 1.333 . S
C168 N170 1.350 . S
C168 H194 0.931 . S
N169 Co165 2.148 . S
N169 C166 1.301 . S
N169 C167 1.317 . S
N170 C166 1.328 . S
N170 C168 1.350 . S
H171 C166 0.930 . S
H172 C167 0.930 . S
C173 O174 1.224 . S
C173 O192 1.247 . S
O174 C173 1.224 . S
N175 Co165 2.128 1_556 S
N175 C176 1.355 . S
N175 C178 1.311 . S
C176 N175 1.355 . S
C176 C177 1.363 . S
C176 H188 0.929 . S
C177 C176 1.363 . S
C177 N179 1.375 . S
C177 H195 0.931 . S
C178 N175 1.311 . S
C178 N179 1.347 . S
C178 H189 0.929 . S
N179 C177 1.375 . S
N179 C178 1.347 . S
C180 C183 1.365 . S
C180 N185 1.328 . S
C180 H186 0.929 . S
C181 C182 1.362 . S
C181 C184 1.378 . S
C181 H196 0.929 . S
C182 C181 1.362 . S
C182 C183 1.366 . S
C183 C180 1.365 . S
C183 C182 1.366 . S
C183 H197 0.930 . S
C184 C181 1.378 . S
C184 N185 1.315 . S
C184 H187 0.930 . S
N185 Co165 2.194 . S
N185 C180 1.328 . S
N185 C184 1.315 . S
H186 C180 0.929 . S
H187 C184 0.930 . S
H188 C176 0.929 . S
H189 C178 0.929 . S
O190 Co165 2.351 . S
O190 C193 1.244 . S
O191 Co165 2.155 . S
O191 C193 1.240 . S
O192 Co165 2.096 . S
O192 C173 1.247 . S
C193 O190 1.244 . S
C193 O191 1.240 . S
H194 C168 0.931 . S
H195 C177 0.931 . S
H196 C181 0.929 . S
H197 C183 0.930 . S
Co198 N202 2.148 . S
Co198 N208 2.128 . S
Co198 N218 2.194 . S
Co198 O223 2.351 . S
Co198 O224 2.155 . S
Co198 O225 2.096 . S
C199 N202 1.301 . S
C199 N203 1.328 . S
C199 H204 0.930 . S
C200 C201 1.333 . S
C200 N202 1.317 . S
C200 H205 0.930 . S
C201 C200 1.333 . S
C201 N203 1.350 . S
C201 H227 0.931 . S
N202 Co198 2.148 . S
N202 C199 1.301 . S
N202 C200 1.317 . S
N203 C199 1.328 . S
N203 C201 1.350 . S
H204 C199 0.930 . S
H205 C200 0.930 . S
C206 O207 1.224 . S
C206 O225 1.247 . S
O207 C206 1.224 . S
N208 Co198 2.128 . S
N208 C209 1.355 . S
N208 C211 1.311 . S
C209 N208 1.355 . S
C209 C210 1.363 . S
C209 H221 0.929 . S
C210 C209 1.363 . S
C210 N212 1.375 . S
C210 H228 0.931 . S
C211 N208 1.311 . S
C211 N212 1.347 . S
C211 H222 0.929 . S
N212 C210 1.375 . S
N212 C211 1.347 . S
C213 C216 1.365 . S
C213 N218 1.328 . S
C213 H219 0.929 . S
C214 C215 1.362 . S
C214 C217 1.378 . S
C214 H229 0.929 . S
C215 C214 1.362 . S
C215 C216 1.366 . S
C216 C213 1.365 . S
C216 C215 1.366 . S
C216 H230 0.930 . S
C217 C214 1.378 . S
C217 N218 1.315 . S
C217 H220 0.930 . S
N218 Co198 2.194 . S
N218 C213 1.328 . S
N218 C217 1.315 . S
H219 C213 0.929 . S
H220 C217 0.930 . S
H221 C209 0.929 . S
H222 C211 0.929 . S
O223 Co198 2.351 . S
O223 C226 1.244 . S
O224 Co198 2.155 . S
O224 C226 1.240 . S
O225 Co198 2.096 . S
O225 C206 1.247 . S
C226 O223 1.244 . S
C226 O224 1.240 . S
H227 C201 0.931 . S
H228 C210 0.931 . S
H229 C214 0.929 . S
H230 C216 0.930 . S
Co231 N235 2.148 1_545 S
Co231 N241 2.128 . S
Co231 N251 2.194 1_545 S
Co231 O256 2.351 . S
Co231 O257 2.155 . S
Co231 O258 2.096 . S
C232 N235 1.301 . S
C232 N236 1.328 . S
C232 H237 0.930 . S
C233 C234 1.336 . S
C233 N235 1.308 . S
C233 H238 0.936 1_565 S
C234 C233 1.336 . S
C234 N236 1.350 . S
C234 H260 0.905 . S
N235 Co231 2.148 1_565 S
N235 C232 1.301 . S
N235 C233 1.308 . S
N236 C232 1.328 . S
N236 C234 1.350 . S
H237 C232 0.930 . S
H238 C233 0.936 1_545 S
C239 O240 1.211 1_545 S
C239 O258 1.266 . S
O240 C239 1.211 1_565 S
N241 Co231 2.128 . S
N241 C242 1.355 1_545 S
N241 C244 1.311 . S
C242 N241 1.355 1_565 S
C242 C243 1.363 . S
C242 H254 0.929 . S
C243 C242 1.363 . S
C243 N245 1.375 1_565 S
C243 H261 0.931 . S
C244 N241 1.311 . S
C244 N245 1.347 . S
C244 H255 0.929 . S
N245 C243 1.375 1_545 S
N245 C244 1.347 . S
C246 C249 1.365 . S
C246 N251 1.328 . S
C246 H252 0.929 . S
C247 C248 1.362 . S
C247 C250 1.378 . S
C247 H262 0.929 . S
C248 C247 1.362 . S
C248 C249 1.366 . S
C249 C246 1.365 . S
C249 C248 1.366 . S
C249 H263 0.930 . S
C250 C247 1.378 . S
C250 N251 1.315 . S
C250 H253 0.930 . S
N251 Co231 2.194 1_565 S
N251 C246 1.328 . S
N251 C250 1.315 . S
H252 C246 0.929 . S
H253 C250 0.930 . S
H254 C242 0.929 . S
H255 C244 0.929 . S
O256 Co231 2.351 . S
O256 C259 1.244 . S
O257 Co231 2.155 . S
O257 C259 1.240 . S
O258 Co231 2.096 . S
O258 C239 1.266 . S
C259 O256 1.244 . S
C259 O257 1.240 . S
H260 C234 0.905 . S
H261 C243 0.931 . S
H262 C247 0.929 . S
H263 C249 0.930 . S
Co264 N268 2.148 . S
Co264 N274 2.128 . S
Co264 N284 2.194 . S
Co264 O289 2.351 . S
Co264 O290 2.155 . S
Co264 O291 2.096 . S
C265 N268 1.301 . S
C265 N269 1.328 . S
C265 H270 0.930 . S
C266 C267 1.333 . S
C266 N268 1.317 . S
C266 H271 0.930 . S
C267 C266 1.333 . S
C267 N269 1.350 . S
C267 H293 0.931 . S
N268 Co264 2.148 . S
N268 C265 1.301 . S
N268 C266 1.317 . S
N269 C265 1.328 . S
N269 C267 1.350 . S
H270 C265 0.930 . S
H271 C266 0.930 . S
C272 O273 1.224 . S
C272 O291 1.247 . S
O273 C272 1.224 . S
N274 Co264 2.128 . S
N274 C275 1.355 . S
N274 C277 1.311 . S
C275 N274 1.355 . S
C275 C276 1.363 . S
C275 H287 0.929 . S
C276 C275 1.363 . S
C276 N278 1.375 . S
C276 H294 0.931 . S
C277 N274 1.311 . S
C277 N278 1.347 . S
C277 H288 0.929 . S
N278 C276 1.375 . S
N278 C277 1.347 . S
C279 C282 1.365 . S
C279 N284 1.328 . S
C279 H285 0.929 . S
C280 C281 1.362 . S
C280 C283 1.378 . S
C280 H295 0.929 . S
C281 C280 1.362 . S
C281 C282 1.366 . S
C282 C279 1.365 . S
C282 C281 1.366 . S
C282 H296 0.930 . S
C283 C280 1.378 . S
C283 N284 1.315 . S
C283 H286 0.930 . S
N284 Co264 2.194 . S
N284 C279 1.328 . S
N284 C283 1.315 . S
H285 C279 0.929 . S
H286 C283 0.930 . S
H287 C275 0.929 . S
H288 C277 0.929 . S
O289 Co264 2.351 . S
O289 C292 1.244 . S
O290 Co264 2.155 . S
O290 C292 1.240 . S
O291 Co264 2.096 . S
O291 C272 1.247 . S
C292 O289 1.244 . S
C292 O290 1.240 . S
H293 C267 0.931 . S
H294 C276 0.931 . S
H295 C280 0.929 . S
H296 C282 0.930 . S
Co297 N301 2.148 . S
Co297 N307 2.128 . S
Co297 N317 2.194 . S
Co297 O322 2.351 1_565 S
Co297 O323 2.155 1_565 S
Co297 O324 2.096 . S
C298 N301 1.301 . S
C298 N302 1.328 . S
C298 H303 0.930 . S
C299 C300 1.333 . S
C299 N301 1.317 . S
C299 H304 0.930 . S
C300 C299 1.333 . S
C300 N302 1.350 . S
C300 H326 0.931 . S
N301 Co297 2.148 . S
N301 C298 1.301 . S
N301 C299 1.317 . S
N302 C298 1.328 . S
N302 C300 1.350 . S
H303 C298 0.930 . S
H304 C299 0.930 . S
C305 O306 1.224 . S
C305 O324 1.247 . S
O306 C305 1.224 . S
N307 Co297 2.128 . S
N307 C308 1.355 . S
N307 C310 1.311 . S
C308 N307 1.355 . S
C308 C309 1.363 . S
C308 H320 0.929 . S
C309 C308 1.363 . S
C309 N311 1.375 . S
C309 H327 0.931 . S
C310 N307 1.311 . S
C310 N311 1.347 . S
C310 H321 0.929 . S
N311 C309 1.375 . S
N311 C310 1.347 . S
C312 C315 1.365 . S
C312 N317 1.328 . S
C312 H318 0.929 . S
C313 C314 1.362 . S
C313 C316 1.378 . S
C313 H328 0.929 . S
C314 C313 1.362 . S
C314 C315 1.366 . S
C315 C312 1.365 . S
C315 C314 1.366 . S
C315 H329 0.930 . S
C316 C313 1.378 . S
C316 N317 1.315 . S
C316 H319 0.930 . S
N317 Co297 2.194 . S
N317 C312 1.328 . S
N317 C316 1.315 . S
H318 C312 0.929 . S
H319 C316 0.930 . S
H320 C308 0.929 . S
H321 C310 0.929 . S
O322 Co297 2.351 1_545 S
O322 C325 1.244 . S
O323 Co297 2.155 1_545 S
O323 C325 1.240 . S
O324 Co297 2.096 . S
O324 C305 1.247 . S
C325 O322 1.244 . S
C325 O323 1.240 . S
H326 C300 0.931 . S
H327 C309 0.931 . S
H328 C313 0.929 . S
H329 C315 0.930 . S
Co330 N334 2.148 . S
Co330 N340 2.128 . S
Co330 N350 2.194 . S
Co330 O355 2.351 . S
Co330 O356 2.155 . S
Co330 O357 2.096 . S
C331 N334 1.301 . S
C331 N335 1.328 . S
C331 H336 0.930 . S
C332 C333 1.333 . S
C332 N334 1.317 . S
C332 H337 0.930 . S
C333 C332 1.333 . S
C333 N335 1.350 . S
C333 H359 0.931 . S
N334 Co330 2.148 . S
N334 C331 1.301 . S
N334 C332 1.317 . S
N335 C331 1.328 . S
N335 C333 1.350 . S
H336 C331 0.930 . S
H337 C332 0.930 . S
C338 O339 1.224 . S
C338 O357 1.247 . S
O339 C338 1.224 . S
N340 Co330 2.128 . S
N340 C341 1.355 . S
N340 C343 1.311 . S
C341 N340 1.355 . S
C341 C342 1.363 . S
C341 H353 0.929 . S
C342 C341 1.363 . S
C342 N344 1.375 . S
C342 H360 0.931 . S
C343 N340 1.311 . S
C343 N344 1.347 . S
C343 H354 0.929 . S
N344 C342 1.375 . S
N344 C343 1.347 . S
C345 C348 1.365 . S
C345 N350 1.328 . S
C345 H351 0.929 . S
C346 C347 1.362 . S
C346 C349 1.378 . S
C346 H361 0.929 . S
C347 C346 1.362 . S
C347 C348 1.366 . S
C348 C345 1.365 . S
C348 C347 1.366 . S
C348 H362 0.930 . S
C349 C346 1.378 . S
C349 N350 1.315 . S
C349 H352 0.930 . S
N350 Co330 2.194 . S
N350 C345 1.328 . S
N350 C349 1.315 . S
H351 C345 0.929 . S
H352 C349 0.930 . S
H353 C341 0.929 . S
H354 C343 0.929 . S
O355 Co330 2.351 . S
O355 C358 1.244 . S
O356 Co330 2.155 . S
O356 C358 1.240 . S
O357 Co330 2.096 . S
O357 C338 1.247 . S
C358 O355 1.244 . S
C358 O356 1.240 . S
H359 C333 0.931 . S
H360 C342 0.931 . S
H361 C346 0.929 . S
H362 C348 0.930 . S
Co363 N367 2.148 . S
Co363 N373 2.128 . S
Co363 N383 2.194 . S
Co363 O388 2.351 . S
Co363 O389 2.155 . S
Co363 O390 2.096 . S
C364 N367 1.301 . S
C364 N368 1.328 . S
C364 H369 0.930 . S
C365 C366 1.333 . S
C365 N367 1.317 . S
C365 H370 0.930 . S
C366 C365 1.333 . S
C366 N368 1.350 . S
C366 H392 0.931 . S
N367 Co363 2.148 . S
N367 C364 1.301 . S
N367 C365 1.317 . S
N368 C364 1.328 . S
N368 C366 1.350 . S
H369 C364 0.930 . S
H370 C365 0.930 . S
C371 O372 1.224 . S
C371 O390 1.247 . S
O372 C371 1.224 . S
N373 Co363 2.128 . S
N373 C374 1.355 . S
N373 C376 1.311 . S
C374 N373 1.355 . S
C374 C375 1.363 . S
C374 H386 0.929 . S
C375 C374 1.363 . S
C375 N377 1.375 . S
C375 H393 0.931 . S
C376 N373 1.311 . S
C376 N377 1.347 . S
C376 H387 0.929 . S
N377 C375 1.375 . S
N377 C376 1.347 . S
C378 C381 1.365 . S
C378 N383 1.328 . S
C378 H384 0.929 . S
C379 C380 1.362 . S
C379 C382 1.378 . S
C379 H394 0.929 . S
C380 C379 1.362 . S
C380 C381 1.366 . S
C381 C378 1.365 . S
C381 C380 1.366 . S
C381 H395 0.930 . S
C382 C379 1.378 . S
C382 N383 1.315 . S
C382 H385 0.930 . S
N383 Co363 2.194 . S
N383 C378 1.328 . S
N383 C382 1.315 . S
H384 C378 0.929 . S
H385 C382 0.930 . S
H386 C374 0.929 . S
H387 C376 0.929 . S
O388 Co363 2.351 . S
O388 C391 1.244 . S
O389 Co363 2.155 . S
O389 C391 1.240 . S
O390 Co363 2.096 . S
O390 C371 1.247 . S
C391 O388 1.244 . S
C391 O389 1.240 . S
H392 C366 0.931 . S
H393 C375 0.931 . S
H394 C379 0.929 . S
H395 C381 0.930 . S
Co396 N400 2.148 . S
Co396 N406 2.128 . S
Co396 N416 2.194 . S
Co396 O421 2.351 . S
Co396 O422 2.155 . S
Co396 O423 2.096 . S
C397 N400 1.301 . S
C397 N401 1.328 . S
C397 H402 0.930 . S
C398 C399 1.333 . S
C398 N400 1.317 . S
C398 H403 0.930 . S
C399 C398 1.333 . S
C399 N401 1.350 . S
C399 H425 0.931 . S
N400 Co396 2.148 . S
N400 C397 1.301 . S
N400 C398 1.317 . S
N401 C397 1.328 . S
N401 C399 1.350 . S
H402 C397 0.930 . S
H403 C398 0.930 . S
C404 O405 1.224 . S
C404 O423 1.247 . S
O405 C404 1.224 . S
N406 Co396 2.128 . S
N406 C407 1.355 . S
N406 C409 1.311 . S
C407 N406 1.355 . S
C407 C408 1.363 . S
C407 H419 0.929 . S
C408 C407 1.363 . S
C408 N410 1.375 . S
C408 H426 0.931 . S
C409 N406 1.311 . S
C409 N410 1.347 . S
C409 H420 0.929 . S
N410 C408 1.375 . S
N410 C409 1.347 . S
C411 C414 1.365 . S
C411 N416 1.328 . S
C411 H417 0.929 . S
C412 C413 1.362 . S
C412 C415 1.378 . S
C412 H427 0.929 . S
C413 C412 1.362 . S
C413 C414 1.366 . S
C414 C411 1.365 . S
C414 C413 1.366 . S
C414 H428 0.930 . S
C415 C412 1.378 . S
C415 N416 1.315 . S
C415 H418 0.930 . S
N416 Co396 2.194 . S
N416 C411 1.328 . S
N416 C415 1.315 . S
H417 C411 0.929 . S
H418 C415 0.930 . S
H419 C407 0.929 . S
H420 C409 0.929 . S
O421 Co396 2.351 . S
O421 C424 1.244 . S
O422 Co396 2.155 . S
O422 C424 1.240 . S
O423 Co396 2.096 . S
O423 C404 1.247 . S
C424 O421 1.244 . S
C424 O422 1.240 . S
H425 C399 0.931 . S
H426 C408 0.931 . S
H427 C412 0.929 . S
H428 C414 0.930 . S
Co429 N433 2.148 . S
Co429 N439 2.128 . S
Co429 N449 2.194 . S
Co429 O454 2.351 . S
Co429 O455 2.155 . S
Co429 O456 2.096 . S
C430 N433 1.301 . S
C430 N434 1.328 . S
C430 H435 0.930 . S
C431 C432 1.333 . S
C431 N433 1.317 . S
C431 H436 0.930 . S
C432 C431 1.333 . S
C432 N434 1.350 . S
C432 H458 0.931 . S
N433 Co429 2.148 . S
N433 C430 1.301 . S
N433 C431 1.317 . S
N434 C430 1.328 . S
N434 C432 1.350 . S
H435 C430 0.930 . S
H436 C431 0.930 . S
C437 O438 1.224 . S
C437 O456 1.247 . S
O438 C437 1.224 . S
N439 Co429 2.128 . S
N439 C440 1.355 . S
N439 C442 1.311 . S
C440 N439 1.355 . S
C440 C441 1.363 . S
C440 H452 0.929 . S
C441 C440 1.363 . S
C441 N443 1.375 . S
C441 H459 0.931 . S
C442 N439 1.311 . S
C442 N443 1.347 . S
C442 H453 0.929 . S
N443 C441 1.375 . S
N443 C442 1.347 . S
C444 C447 1.365 . S
C444 N449 1.328 . S
C444 H450 0.929 . S
C445 C446 1.362 . S
C445 C448 1.378 . S
C445 H460 0.929 . S
C446 C445 1.362 . S
C446 C447 1.366 . S
C447 C444 1.365 . S
C447 C446 1.366 . S
C447 H461 0.930 . S
C448 C445 1.378 . S
C448 N449 1.315 . S
C448 H451 0.930 . S
N449 Co429 2.194 . S
N449 C444 1.328 . S
N449 C448 1.315 . S
H450 C444 0.929 . S
H451 C448 0.930 . S
H452 C440 0.929 . S
H453 C442 0.929 . S
O454 Co429 2.351 . S
O454 C457 1.244 . S
O455 Co429 2.155 . S
O455 C457 1.240 . S
O456 Co429 2.096 . S
O456 C437 1.247 . S
C457 O454 1.244 . S
C457 O455 1.240 . S
H458 C432 0.931 . S
H459 C441 0.931 . S
H460 C445 0.929 . S
H461 C447 0.930 . S
Co462 N466 2.148 . S
Co462 N472 2.128 . S
Co462 N482 2.194 . S
Co462 O487 2.351 . S
Co462 O488 2.155 . S
Co462 O489 2.096 . S
C463 N466 1.301 . S
C463 N467 1.328 . S
C463 H468 0.930 . S
C464 C465 1.333 . S
C464 N466 1.317 . S
C464 H469 0.930 . S
C465 C464 1.333 . S
C465 N467 1.350 . S
C465 H491 0.931 . S
N466 Co462 2.148 . S
N466 C463 1.301 . S
N466 C464 1.317 . S
N467 C463 1.328 . S
N467 C465 1.350 . S
H468 C463 0.930 . S
H469 C464 0.930 . S
C470 O471 1.224 . S
C470 O489 1.247 . S
O471 C470 1.224 . S
N472 Co462 2.128 . S
N472 C473 1.355 . S
N472 C475 1.311 . S
C473 N472 1.355 . S
C473 C474 1.363 . S
C473 H485 0.929 . S
C474 C473 1.363 . S
C474 N476 1.375 . S
C474 H492 0.931 . S
C475 N472 1.311 . S
C475 N476 1.347 . S
C475 H486 0.929 . S
N476 C474 1.375 . S
N476 C475 1.347 . S
C477 C480 1.365 . S
C477 N482 1.328 . S
C477 H483 0.929 . S
C478 C479 1.362 . S
C478 C481 1.378 . S
C478 H493 0.929 . S
C479 C478 1.362 . S
C479 C480 1.366 . S
C480 C477 1.365 . S
C480 C479 1.366 . S
C480 H494 0.930 . S
C481 C478 1.378 . S
C481 N482 1.315 . S
C481 H484 0.930 . S
N482 Co462 2.194 . S
N482 C477 1.328 . S
N482 C481 1.315 . S
H483 C477 0.929 . S
H484 C481 0.930 . S
H485 C473 0.929 . S
H486 C475 0.929 . S
O487 Co462 2.351 . S
O487 C490 1.244 . S
O488 Co462 2.155 . S
O488 C490 1.240 . S
O489 Co462 2.096 . S
O489 C470 1.247 . S
C490 O487 1.244 . S
C490 O488 1.240 . S
H491 C465 0.931 . S
H492 C474 0.931 . S
H493 C478 0.929 . S
H494 C480 0.930 . S
Co495 N499 2.148 . S
Co495 N505 2.128 . S
Co495 N515 2.194 . S
Co495 O520 2.351 . S
Co495 O521 2.155 . S
Co495 O522 2.096 . S
C496 N499 1.301 . S
C496 N500 1.328 . S
C496 H501 0.930 . S
C497 C498 1.333 . S
C497 N499 1.317 . S
C497 H502 0.930 . S
C498 C497 1.333 . S
C498 N500 1.350 . S
C498 H524 0.931 . S
N499 Co495 2.148 . S
N499 C496 1.301 . S
N499 C497 1.317 . S
N500 C496 1.328 . S
N500 C498 1.350 . S
H501 C496 0.930 . S
H502 C497 0.930 . S
C503 O504 1.224 . S
C503 O522 1.247 . S
O504 C503 1.224 . S
N505 Co495 2.128 . S
N505 C506 1.355 . S
N505 C508 1.311 . S
C506 N505 1.355 . S
C506 C507 1.363 . S
C506 H518 0.929 . S
C507 C506 1.363 . S
C507 N509 1.375 . S
C507 H525 0.931 . S
C508 N505 1.311 . S
C508 N509 1.347 . S
C508 H519 0.929 . S
N509 C507 1.375 . S
N509 C508 1.347 . S
C510 C513 1.365 . S
C510 N515 1.328 . S
C510 H516 0.929 . S
C511 C512 1.362 . S
C511 C514 1.378 . S
C511 H526 0.929 . S
C512 C511 1.362 . S
C512 C513 1.366 . S
C513 C510 1.365 . S
C513 C512 1.366 . S
C513 H527 0.930 . S
C514 C511 1.378 . S
C514 N515 1.315 . S
C514 H517 0.930 . S
N515 Co495 2.194 . S
N515 C510 1.328 . S
N515 C514 1.315 . S
H516 C510 0.929 . S
H517 C514 0.930 . S
H518 C506 0.929 . S
H519 C508 0.929 . S
O520 Co495 2.351 . S
O520 C523 1.244 . S
O521 Co495 2.155 . S
O521 C523 1.240 . S
O522 Co495 2.096 . S
O522 C503 1.247 . S
C523 O520 1.244 . S
C523 O521 1.240 . S
H524 C498 0.931 . S
H525 C507 0.931 . S
H526 C511 0.929 . S
H527 C513 0.930 . S
Co528 N532 2.148 . S
Co528 N538 2.128 . S
Co528 N548 2.194 . S
Co528 O553 2.351 . S
Co528 O554 2.155 . S
Co528 O555 2.096 . S
C529 N532 1.301 . S
C529 N533 1.328 . S
C529 H534 0.930 . S
C530 C531 1.333 . S
C530 N532 1.317 . S
C530 H535 0.930 . S
C531 C530 1.333 . S
C531 N533 1.350 . S
C531 H557 0.931 . S
N532 Co528 2.148 . S
N532 C529 1.301 . S
N532 C530 1.317 . S
N533 C529 1.328 . S
N533 C531 1.350 . S
H534 C529 0.930 . S
H535 C530 0.930 . S
C536 O537 1.224 . S
C536 O555 1.247 . S
O537 C536 1.224 . S
N538 Co528 2.128 . S
N538 C539 1.355 . S
N538 C541 1.311 . S
C539 N538 1.355 . S
C539 C540 1.363 . S
C539 H551 0.929 . S
C540 C539 1.363 . S
C540 N542 1.375 . S
C540 H558 0.931 . S
C541 N538 1.311 . S
C541 N542 1.347 . S
C541 H552 0.929 . S
N542 C540 1.375 . S
N542 C541 1.347 . S
C543 C546 1.365 . S
C543 N548 1.328 . S
C543 H549 0.929 . S
C544 C545 1.362 . S
C544 C547 1.378 . S
C544 H559 0.929 . S
C545 C544 1.362 . S
C545 C546 1.366 . S
C546 C543 1.365 . S
C546 C545 1.366 . S
C546 H560 0.930 . S
C547 C544 1.378 . S
C547 N548 1.315 . S
C547 H550 0.930 . S
N548 Co528 2.194 . S
N548 C543 1.328 . S
N548 C547 1.315 . S
H549 C543 0.929 . S
H550 C547 0.930 . S
H551 C539 0.929 . S
H552 C541 0.929 . S
O553 Co528 2.351 . S
O553 C556 1.244 . S
O554 Co528 2.155 . S
O554 C556 1.240 . S
O555 Co528 2.096 . S
O555 C536 1.247 . S
C556 O553 1.244 . S
C556 O554 1.240 . S
H557 C531 0.931 . S
H558 C540 0.931 . S
H559 C544 0.929 . S
H560 C546 0.930 . S
Co561 N565 2.148 . S
Co561 N571 2.128 . S
Co561 N581 2.194 . S
Co561 O586 2.351 . S
Co561 O587 2.155 . S
Co561 O588 2.096 . S
C562 N565 1.301 . S
C562 N566 1.328 . S
C562 H567 0.930 . S
C563 C564 1.333 . S
C563 N565 1.317 . S
C563 H568 0.930 . S
C564 C563 1.333 . S
C564 N566 1.350 . S
C564 H590 0.931 . S
N565 Co561 2.148 . S
N565 C562 1.301 . S
N565 C563 1.317 . S
N566 C562 1.328 . S
N566 C564 1.350 . S
H567 C562 0.930 . S
H568 C563 0.930 . S
C569 O570 1.224 . S
C569 O588 1.247 . S
O570 C569 1.224 . S
N571 Co561 2.128 . S
N571 C572 1.355 . S
N571 C574 1.311 . S
C572 N571 1.355 . S
C572 C573 1.363 . S
C572 H584 0.929 . S
C573 C572 1.363 . S
C573 N575 1.375 . S
C573 H591 0.931 . S
C574 N571 1.311 . S
C574 N575 1.347 . S
C574 H585 0.929 . S
N575 C573 1.375 . S
N575 C574 1.347 . S
C576 C579 1.365 . S
C576 N581 1.328 . S
C576 H582 0.929 . S
C577 C578 1.362 . S
C577 C580 1.378 . S
C577 H592 0.929 . S
C578 C577 1.362 . S
C578 C579 1.366 . S
C579 C576 1.365 . S
C579 C578 1.366 . S
C579 H593 0.930 . S
C580 C577 1.378 . S
C580 N581 1.315 . S
C580 H583 0.930 . S
N581 Co561 2.194 . S
N581 C576 1.328 . S
N581 C580 1.315 . S
H582 C576 0.929 . S
H583 C580 0.930 . S
H584 C572 0.929 . S
H585 C574 0.929 . S
O586 Co561 2.351 . S
O586 C589 1.244 . S
O587 Co561 2.155 . S
O587 C589 1.240 . S
O588 Co561 2.096 . S
O588 C569 1.247 . S
C589 O586 1.244 . S
C589 O587 1.240 . S
H590 C564 0.931 . S
H591 C573 0.931 . S
H592 C577 0.929 . S
H593 C579 0.930 . S
H594 C606 0.930 . S
H595 C608 0.930 . S
H596 C609 0.930 . S
H597 C613 0.959 . S
H598 C613 0.959 . S
H599 C613 0.961 . S
H600 C614 0.960 . S
H601 C614 0.959 . S
H602 C614 0.959 1_655 S
H603 C617 0.929 . S
H604 C618 0.931 . S
H605 C620 0.930 . S
C606 H594 0.930 . S
C606 C607 1.399 . S
C606 C611 1.399 . S
C607 C606 1.399 . S
C607 C608 1.376 . S
C608 H595 0.930 . S
C608 C607 1.376 . S
C608 C609 1.388 . S
C609 H596 0.930 . S
C609 C608 1.388 . S
C609 C610 1.390 . S
C610 C609 1.390 . S
C610 C611 1.394 . S
C610 C616 1.465 . S
C611 C606 1.399 . S
C611 C610 1.394 . S
C611 C612 1.516 . S
C612 C611 1.516 . S
C612 C613 1.502 . S
C612 C614 1.561 . S
C612 C615 1.526 . S
C613 H597 0.959 . S
C613 H598 0.959 . S
C613 H599 0.961 . S
C613 C612 1.502 . S
C614 H600 0.960 . S
C614 H601 0.959 . S
C614 H602 0.959 1_455 S
C614 C612 1.561 . S
C615 C612 1.526 . S
C615 C616 1.396 . S
C615 C620 1.390 . S
C616 C610 1.465 . S
C616 C615 1.396 . S
C616 C617 1.399 . S
C617 H603 0.929 . S
C617 C616 1.399 . S
C617 C618 1.385 . S
C618 H604 0.931 . S
C618 C617 1.385 . S
C618 C619 1.389 . S
C619 C618 1.389 . S
C619 C620 1.387 . S
C620 H605 0.930 . S
C620 C615 1.390 . S
C620 C619 1.387 . S
H621 C633 0.930 . S
H622 C635 0.930 . S
H623 C636 0.930 . S
H624 C640 0.959 . S
H625 C640 0.959 . S
H626 C640 0.961 . S
H627 C641 0.960 . S
H628 C641 0.961 . S
H629 C641 0.959 . S
H630 C644 0.929 . S
H631 C645 0.931 . S
H632 C647 0.930 . S
C633 H621 0.930 . S
C633 C634 1.399 . S
C633 C638 1.399 . S
C634 C633 1.399 . S
C634 C635 1.376 . S
C635 H622 0.930 . S
C635 C634 1.376 . S
C635 C636 1.388 . S
C636 H623 0.930 . S
C636 C635 1.388 . S
C636 C637 1.390 . S
C637 C636 1.390 . S
C637 C638 1.394 . S
C637 C643 1.465 . S
C638 C633 1.399 . S
C638 C637 1.394 . S
C638 C639 1.516 . S
C639 C638 1.516 . S
C639 C640 1.502 . S
C639 C641 1.561 . S
C639 C642 1.526 . S
C640 H624 0.959 . S
C640 H625 0.959 . S
C640 H626 0.961 . S
C640 C639 1.502 . S
C641 H627 0.960 . S
C641 H628 0.961 . S
C641 H629 0.959 . S
C641 C639 1.561 . S
C642 C639 1.526 . S
C642 C643 1.396 . S
C642 C647 1.390 . S
C643 C637 1.465 . S
C643 C642 1.396 . S
C643 C644 1.399 . S
C644 H630 0.929 . S
C644 C643 1.399 . S
C644 C645 1.385 . S
C645 H631 0.931 . S
C645 C644 1.385 . S
C645 C646 1.389 . S
C646 C645 1.389 . S
C646 C647 1.387 . S
C647 H632 0.930 . S
C647 C642 1.390 . S
C647 C646 1.387 . S
H648 C660 0.930 . S
H649 C662 0.930 . S
H650 C663 0.930 . S
H651 C667 0.959 . S
H652 C667 0.959 . S
H653 C667 0.961 . S
H654 C668 0.960 . S
H655 C668 0.961 . S
H656 C668 0.959 . S
H657 C671 0.929 . S
H658 C672 0.931 . S
H659 C674 0.930 . S
C660 H648 0.930 . S
C660 C661 1.399 . S
C660 C665 1.399 . S
C661 C660 1.399 . S
C661 C662 1.376 . S
C662 H649 0.930 . S
C662 C661 1.376 . S
C662 C663 1.388 . S
C663 H650 0.930 . S
C663 C662 1.388 . S
C663 C664 1.390 . S
C664 C663 1.390 . S
C664 C665 1.394 . S
C664 C670 1.465 . S
C665 C660 1.399 . S
C665 C664 1.394 . S
C665 C666 1.516 . S
C666 C665 1.516 . S
C666 C667 1.502 . S
C666 C668 1.561 . S
C666 C669 1.526 . S
C667 H651 0.959 . S
C667 H652 0.959 . S
C667 H653 0.961 . S
C667 C666 1.502 . S
C668 H654 0.960 . S
C668 H655 0.961 . S
C668 H656 0.959 . S
C668 C666 1.561 . S
C669 C666 1.526 . S
C669 C670 1.396 . S
C669 C674 1.390 . S
C670 C664 1.465 . S
C670 C669 1.396 . S
C670 C671 1.399 . S
C671 H657 0.929 . S
C671 C670 1.399 . S
C671 C672 1.385 . S
C672 H658 0.931 . S
C672 C671 1.385 . S
C672 C673 1.389 . S
C673 C672 1.389 . S
C673 C674 1.387 . S
C674 H659 0.930 . S
C674 C669 1.390 . S
C674 C673 1.387 . S
H675 C687 0.930 . S
H676 C689 0.930 . S
H677 C690 0.930 . S
H678 C694 0.959 . S
H679 C694 0.959 . S
H680 C694 0.961 . S
H681 C695 0.960 . S
H682 C695 0.961 . S
H683 C695 0.959 . S
H684 C698 0.929 . S
H685 C699 0.931 . S
H686 C701 0.930 . S
C687 H675 0.930 . S
C687 C688 1.399 . S
C687 C692 1.399 . S
C688 C687 1.399 . S
C688 C689 1.376 . S
C689 H676 0.930 . S
C689 C688 1.376 . S
C689 C690 1.388 . S
C690 H677 0.930 . S
C690 C689 1.388 . S
C690 C691 1.390 . S
C691 C690 1.390 . S
C691 C692 1.394 . S
C691 C697 1.465 . S
C692 C687 1.399 . S
C692 C691 1.394 . S
C692 C693 1.516 . S
C693 C692 1.516 . S
C693 C694 1.502 . S
C693 C695 1.561 . S
C693 C696 1.526 . S
C694 H678 0.959 . S
C694 H679 0.959 . S
C694 H680 0.961 . S
C694 C693 1.502 . S
C695 H681 0.960 . S
C695 H682 0.961 . S
C695 H683 0.959 . S
C695 C693 1.561 . S
C696 C693 1.526 . S
C696 C697 1.396 . S
C696 C701 1.390 . S
C697 C691 1.465 . S
C697 C696 1.396 . S
C697 C698 1.399 . S
C698 H684 0.929 . S
C698 C697 1.399 . S
C698 C699 1.385 . S
C699 H685 0.931 . S
C699 C698 1.385 . S
C699 C700 1.389 . S
C700 C699 1.389 . S
C700 C701 1.387 . S
C701 H686 0.930 . S
C701 C696 1.390 . S
C701 C700 1.387 . S
H702 C714 0.930 . S
H703 C716 0.930 . S
H704 C717 0.930 . S
H705 C721 0.959 . S
H706 C721 0.959 . S
H707 C721 0.961 . S
H708 C722 0.960 . S
H709 C722 0.961 . S
H710 C722 0.959 . S
H711 C725 0.929 . S
H712 C726 0.931 . S
H713 C728 0.930 . S
C714 H702 0.930 . S
C714 C715 1.399 . S
C714 C719 1.399 . S
C715 C714 1.399 . S
C715 C716 1.376 . S
C716 H703 0.930 . S
C716 C715 1.376 . S
C716 C717 1.388 . S
C717 H704 0.930 . S
C717 C716 1.388 . S
C717 C718 1.390 . S
C718 C717 1.390 . S
C718 C719 1.394 . S
C718 C724 1.465 . S
C719 C714 1.399 . S
C719 C718 1.394 . S
C719 C720 1.516 . S
C720 C719 1.516 . S
C720 C721 1.502 . S
C720 C722 1.561 . S
C720 C723 1.526 . S
C721 H705 0.959 . S
C721 H706 0.959 . S
C721 H707 0.961 . S
C721 C720 1.502 . S
C722 H708 0.960 . S
C722 H709 0.961 . S
C722 H710 0.959 . S
C722 C720 1.561 . S
C723 C720 1.526 . S
C723 C724 1.396 . S
C723 C728 1.390 . S
C724 C718 1.465 . S
C724 C723 1.396 . S
C724 C725 1.399 . S
C725 H711 0.929 . S
C725 C724 1.399 . S
C725 C726 1.385 . S
C726 H712 0.931 . S
C726 C725 1.385 . S
C726 C727 1.389 . S
C727 C726 1.389 . S
C727 C728 1.387 . S
C728 H713 0.930 . S
C728 C723 1.390 . S
C728 C727 1.387 . S
H729 C741 0.930 . S
H730 C743 0.930 . S
H731 C744 0.930 . S
H732 C748 0.959 . S
H733 C748 0.959 . S
H734 C748 0.961 . S
H735 C749 0.960 . S
H736 C749 0.961 . S
H737 C749 0.959 . S
H738 C752 0.929 . S
H739 C753 0.931 . S
H740 C755 0.930 . S
C741 H729 0.930 . S
C741 C742 1.399 . S
C741 C746 1.399 . S
C742 C741 1.399 . S
C742 C743 1.376 . S
C743 H730 0.930 . S
C743 C742 1.376 . S
C743 C744 1.388 . S
C744 H731 0.930 . S
C744 C743 1.388 . S
C744 C745 1.390 . S
C745 C744 1.390 . S
C745 C746 1.394 . S
C745 C751 1.465 . S
C746 C741 1.399 . S
C746 C745 1.394 . S
C746 C747 1.516 . S
C747 C746 1.516 . S
C747 C748 1.502 . S
C747 C749 1.561 . S
C747 C750 1.526 . S
C748 H732 0.959 . S
C748 H733 0.959 . S
C748 H734 0.961 . S
C748 C747 1.502 . S
C749 H735 0.960 . S
C749 H736 0.961 . S
C749 H737 0.959 . S
C749 C747 1.561 . S
C750 C747 1.526 . S
C750 C751 1.396 . S
C750 C755 1.390 . S
C751 C745 1.465 . S
C751 C750 1.396 . S
C751 C752 1.399 . S
C752 H738 0.929 . S
C752 C751 1.399 . S
C752 C753 1.385 . S
C753 H739 0.931 . S
C753 C752 1.385 . S
C753 C754 1.389 . S
C754 C753 1.389 . S
C754 C755 1.387 . S
C755 H740 0.930 . S
C755 C750 1.390 . S
C755 C754 1.387 . S
H756 C768 0.930 . S
H757 C770 0.930 . S
H758 C771 0.930 . S
H759 C775 0.959 . S
H760 C775 0.959 . S
H761 C775 0.961 . S
H762 C776 0.960 . S
H763 C776 0.961 . S
H764 C776 0.959 . S
H765 C779 0.929 1_556 S
H766 C780 0.931 . S
H767 C782 0.930 . S
C768 H756 0.930 . S
C768 C769 1.399 . S
C768 C773 1.399 . S
C769 C768 1.399 . S
C769 C770 1.376 . S
C770 H757 0.930 . S
C770 C769 1.376 . S
C770 C771 1.388 . S
C771 H758 0.930 . S
C771 C770 1.388 . S
C771 C772 1.390 . S
C772 C771 1.390 . S
C772 C773 1.394 . S
C772 C778 1.465 . S
C773 C768 1.399 . S
C773 C772 1.394 . S
C773 C774 1.516 . S
C774 C773 1.516 . S
C774 C775 1.502 . S
C774 C776 1.561 . S
C774 C777 1.526 . S
C775 H759 0.959 . S
C775 H760 0.959 . S
C775 H761 0.961 . S
C775 C774 1.502 . S
C776 H762 0.960 . S
C776 H763 0.961 . S
C776 H764 0.959 . S
C776 C774 1.561 . S
C777 C774 1.526 . S
C777 C778 1.396 . S
C777 C782 1.390 1_556 S
C778 C772 1.465 . S
C778 C777 1.396 . S
C778 C779 1.399 1_556 S
C779 H765 0.929 1_554 S
C779 C778 1.399 1_554 S
C779 C780 1.385 . S
C780 H766 0.931 . S
C780 C779 1.385 . S
C780 C781 1.389 . S
C781 C780 1.389 . S
C781 C782 1.387 . S
C782 H767 0.930 . S
C782 C777 1.390 1_554 S
C782 C781 1.387 . S
H783 C795 0.930 . S
H784 C797 0.930 . S
H785 C798 0.930 . S
H786 C802 0.959 . S
H787 C802 0.959 . S
H788 C802 0.961 . S
H789 C803 0.960 . S
H790 C803 0.961 . S
H791 C803 0.959 . S
H792 C806 0.929 . S
H793 C807 0.931 . S
H794 C809 0.930 . S
C795 H783 0.930 . S
C795 C796 1.399 1_545 S
C795 C800 1.399 . S
C796 C795 1.399 1_565 S
C796 C797 1.376 . S
C797 H784 0.930 . S
C797 C796 1.376 . S
C797 C798 1.388 . S
C798 H785 0.930 . S
C798 C797 1.388 . S
C798 C799 1.390 . S
C799 C798 1.390 . S
C799 C800 1.394 1_565 S
C799 C805 1.465 . S
C800 C795 1.399 . S
C800 C799 1.394 1_545 S
C800 C801 1.516 . S
C801 C800 1.516 . S
C801 C802 1.502 . S
C801 C803 1.561 . S
C801 C804 1.526 . S
C802 H786 0.959 . S
C802 H787 0.959 . S
C802 H788 0.961 . S
C802 C801 1.502 . S
C803 H789 0.960 . S
C803 H790 0.961 . S
C803 H791 0.959 . S
C803 C801 1.561 . S
C804 C801 1.526 . S
C804 C805 1.396 1_545 S
C804 C809 1.390 1_556 S
C805 C799 1.465 . S
C805 C804 1.396 1_565 S
C805 C806 1.399 . S
C806 H792 0.929 . S
C806 C805 1.399 . S
C806 C807 1.385 1_556 S
C807 H793 0.931 . S
C807 C806 1.385 1_554 S
C807 C808 1.389 1_565 S
C808 C807 1.389 1_545 S
C808 C809 1.387 . S
C809 H794 0.930 . S
C809 C804 1.390 1_554 S
C809 C808 1.387 . S
H810 C822 0.930 . S
H811 C824 0.930 . S
H812 C825 0.930 . S
H813 C829 0.959 . S
H814 C829 0.959 . S
H815 C829 0.961 . S
H816 C830 0.960 . S
H817 C830 0.961 . S
H818 C830 0.959 . S
H819 C833 0.929 . S
H820 C834 0.931 . S
H821 C836 0.930 . S
C822 H810 0.930 . S
C822 C823 1.399 . S
C822 C827 1.399 . S
C823 C822 1.399 . S
C823 C824 1.376 . S
C824 H811 0.930 . S
C824 C823 1.376 . S
C824 C825 1.388 . S
C825 H812 0.930 . S
C825 C824 1.388 . S
C825 C826 1.390 . S
C826 C825 1.390 . S
C826 C827 1.394 . S
C826 C832 1.465 . S
C827 C822 1.399 . S
C827 C826 1.394 . S
C827 C828 1.516 . S
C828 C827 1.516 . S
C828 C829 1.502 . S
C828 C830 1.561 . S
C828 C831 1.526 . S
C829 H813 0.959 . S
C829 H814 0.959 . S
C829 H815 0.961 . S
C829 C828 1.502 . S
C830 H816 0.960 . S
C830 H817 0.961 . S
C830 H818 0.959 . S
C830 C828 1.561 . S
C831 C828 1.526 . S
C831 C832 1.396 . S
C831 C836 1.390 1_556 S
C832 C826 1.465 . S
C832 C831 1.396 . S
C832 C833 1.399 . S
C833 H819 0.929 . S
C833 C832 1.399 . S
C833 C834 1.385 1_556 S
C834 H820 0.931 . S
C834 C833 1.385 1_554 S
C834 C835 1.389 . S
C835 C834 1.389 . S
C835 C836 1.387 . S
C836 H821 0.930 . S
C836 C831 1.390 1_554 S
C836 C835 1.387 . S
H837 C849 0.930 . S
H838 C851 0.930 . S
H839 C852 0.930 1_556 S
H840 C856 0.959 . S
H841 C856 0.959 . S
H842 C856 0.961 . S
H843 C857 0.960 . S
H844 C857 0.961 . S
H845 C857 0.959 . S
H846 C860 0.929 . S
H847 C861 0.931 . S
H848 C863 0.930 1_545 S
C849 H837 0.930 . S
C849 C850 1.399 1_545 S
C849 C854 1.399 1_544 S
C850 C849 1.399 1_565 S
C850 C851 1.376 . S
C851 H838 0.930 . S
C851 C850 1.376 . S
C851 C852 1.388 . S
C852 H839 0.930 1_554 S
C852 C851 1.388 . S
C852 C853 1.390 1_554 S
C853 C852 1.390 1_556 S
C853 C854 1.394 . S
C853 C859 1.465 . S
C854 C849 1.399 1_566 S
C854 C853 1.394 . S
C854 C855 1.516 1_565 S
C855 C854 1.516 1_545 S
C855 C856 1.502 . S
C855 C857 1.561 . S
C855 C858 1.526 1_545 S
C856 H840 0.959 . S
C856 H841 0.959 . S
C856 H842 0.961 . S
C856 C855 1.502 . S
C857 H843 0.960 . S
C857 H844 0.961 . S
C857 H845 0.959 . S
C857 C855 1.561 . S
C858 C855 1.526 1_565 S
C858 C859 1.396 . S
C858 C863 1.390 . S
C859 C853 1.465 . S
C859 C858 1.396 . S
C859 C860 1.399 . S
C860 H846 0.929 . S
C860 C859 1.399 . S
C860 C861 1.385 . S
C861 H847 0.931 . S
C861 C860 1.385 . S
C861 C862 1.389 . S
C862 C861 1.389 . S
C862 C863 1.387 . S
C863 H848 0.930 1_565 S
C863 C858 1.390 . S
C863 C862 1.387 . S
H864 C876 0.930 . S
H865 C878 0.930 . S
H866 C879 0.930 . S
H867 C883 0.959 . S
H868 C883 0.959 . S
H869 C883 0.961 . S
H870 C884 0.960 . S
H871 C884 0.961 . S
H872 C884 0.959 . S
H873 C887 0.929 . S
H874 C888 0.931 . S
H875 C890 0.930 . S
C876 H864 0.930 . S
C876 C877 1.399 . S
C876 C881 1.399 . S
C877 C876 1.399 . S
C877 C878 1.376 . S
C878 H865 0.930 . S
C878 C877 1.376 . S
C878 C879 1.388 . S
C879 H866 0.930 . S
C879 C878 1.388 . S
C879 C880 1.390 . S
C880 C879 1.390 . S
C880 C881 1.394 . S
C880 C886 1.465 . S
C881 C876 1.399 . S
C881 C880 1.394 . S
C881 C882 1.516 . S
C882 C881 1.516 . S
C882 C883 1.502 . S
C882 C884 1.561 . S
C882 C885 1.526 . S
C883 H867 0.959 . S
C883 H868 0.959 . S
C883 H869 0.961 . S
C883 C882 1.502 . S
C884 H870 0.960 . S
C884 H871 0.961 . S
C884 H872 0.959 . S
C884 C882 1.561 . S
C885 C882 1.526 . S
C885 C886 1.396 . S
C885 C890 1.390 1_556 S
C886 C880 1.465 . S
C886 C885 1.396 . S
C886 C887 1.399 . S
C887 H873 0.929 . S
C887 C886 1.399 . S
C887 C888 1.385 1_556 S
C888 H874 0.931 . S
C888 C887 1.385 1_554 S
C888 C889 1.389 . S
C889 C888 1.389 . S
C889 C890 1.387 . S
C890 H875 0.930 . S
C890 C885 1.390 1_554 S
C890 C889 1.387 . S
H891 C903 0.930 . S
H892 C905 0.930 . S
H893 C906 0.930 . S
H894 C910 0.959 . S
H895 C910 0.959 . S
H896 C910 0.961 . S
H897 C911 0.960 . S
H898 C911 0.961 . S
H899 C911 0.959 . S
H900 C914 0.929 . S
H901 C915 0.931 . S
H902 C917 0.930 . S
C903 H891 0.930 . S
C903 C904 1.399 . S
C903 C908 1.399 . S
C904 C903 1.399 . S
C904 C905 1.376 . S
C905 H892 0.930 . S
C905 C904 1.376 . S
C905 C906 1.388 . S
C906 H893 0.930 . S
C906 C905 1.388 . S
C906 C907 1.390 . S
C907 C906 1.390 . S
C907 C908 1.394 . S
C907 C913 1.465 . S
C908 C903 1.399 . S
C908 C907 1.394 . S
C908 C909 1.516 . S
C909 C908 1.516 . S
C909 C910 1.502 . S
C909 C911 1.561 . S
C909 C912 1.526 . S
C910 H894 0.959 . S
C910 H895 0.959 . S
C910 H896 0.961 . S
C910 C909 1.502 . S
C911 H897 0.960 . S
C911 H898 0.961 . S
C911 H899 0.959 . S
C911 C909 1.561 . S
C912 C909 1.526 . S
C912 C913 1.396 . S
C912 C917 1.390 1_556 S
C913 C907 1.465 . S
C913 C912 1.396 . S
C913 C914 1.399 . S
C914 H900 0.929 . S
C914 C913 1.399 . S
C914 C915 1.385 1_556 S
C915 H901 0.931 . S
C915 C914 1.385 1_554 S
C915 C916 1.389 . S
C916 C915 1.389 . S
C916 C917 1.387 . S
C917 H902 0.930 . S
C917 C912 1.390 1_554 S
C917 C916 1.387 . S
H918 C930 0.930 . S
H919 C932 0.930 . S
H920 C933 0.930 . S
H921 C937 0.959 . S
H922 C937 0.959 . S
H923 C937 0.961 . S
H924 C938 0.960 . S
H925 C938 0.961 . S
H926 C938 0.959 . S
H927 C941 0.929 . S
H928 C942 0.931 . S
H929 C944 0.930 . S
C930 H918 0.930 . S
C930 C931 1.399 . S
C930 C935 1.399 . S
C931 C930 1.399 . S
C931 C932 1.376 . S
C932 H919 0.930 . S
C932 C931 1.376 . S
C932 C933 1.388 . S
C933 H920 0.930 . S
C933 C932 1.388 . S
C933 C934 1.390 . S
C934 C933 1.390 . S
C934 C935 1.394 . S
C934 C940 1.465 . S
C935 C930 1.399 . S
C935 C934 1.394 . S
C935 C936 1.516 . S
C936 C935 1.516 . S
C936 C937 1.502 . S
C936 C938 1.561 . S
C936 C939 1.526 . S
C937 H921 0.959 . S
C937 H922 0.959 . S
C937 H923 0.961 . S
C937 C936 1.502 . S
C938 H924 0.960 . S
C938 H925 0.961 . S
C938 H926 0.959 . S
C938 C936 1.561 . S
C939 C936 1.526 . S
C939 C940 1.396 . S
C939 C944 1.390 . S
C940 C934 1.465 . S
C940 C939 1.396 . S
C940 C941 1.399 . S
C941 H927 0.929 . S
C941 C940 1.399 . S
C941 C942 1.385 . S
C942 H928 0.931 . S
C942 C941 1.385 . S
C942 C943 1.389 . S
C943 C942 1.389 . S
C943 C944 1.387 . S
C944 H929 0.930 . S
C944 C939 1.390 . S
C944 C943 1.387 . S
H945 C957 0.930 . S
H946 C959 0.930 . S
H947 C960 0.930 . S
H948 C964 0.959 . S
H949 C964 0.959 . S
H950 C964 0.961 . S
H951 C965 0.960 . S
H952 C965 0.961 . S
H953 C965 0.959 . S
H954 C968 0.929 . S
H955 C969 0.931 . S
H956 C971 0.930 . S
C957 H945 0.930 . S
C957 C958 1.399 . S
C957 C962 1.399 . S
C958 C957 1.399 . S
C958 C959 1.376 . S
C959 H946 0.930 . S
C959 C958 1.376 . S
C959 C960 1.388 . S
C960 H947 0.930 . S
C960 C959 1.388 . S
C960 C961 1.390 . S
C961 C960 1.390 . S
C961 C962 1.394 . S
C961 C967 1.465 . S
C962 C957 1.399 . S
C962 C961 1.394 . S
C962 C963 1.516 . S
C963 C962 1.516 . S
C963 C964 1.502 . S
C963 C965 1.561 . S
C963 C966 1.526 . S
C964 H948 0.959 . S
C964 H949 0.959 . S
C964 H950 0.961 . S
C964 C963 1.502 . S
C965 H951 0.960 . S
C965 H952 0.961 . S
C965 H953 0.959 . S
C965 C963 1.561 . S
C966 C963 1.526 . S
C966 C967 1.396 . S
C966 C971 1.390 . S
C967 C961 1.465 . S
C967 C966 1.396 . S
C967 C968 1.399 . S
C968 H954 0.929 . S
C968 C967 1.399 . S
C968 C969 1.385 . S
C969 H955 0.931 . S
C969 C968 1.385 . S
C969 C970 1.389 . S
C970 C969 1.389 . S
C970 C971 1.387 . S
C971 H956 0.930 . S
C971 C966 1.390 . S
C971 C970 1.387 . S
H972 C984 0.930 . S
H973 C986 0.926 1_556 S
H974 C987 0.930 . S
H975 C991 0.959 . S
H976 C991 0.959 . S
H977 C991 0.961 . S
H978 C992 0.960 . S
H979 C992 0.961 . S
H980 C992 0.959 . S
H981 C995 0.929 . S
H982 C996 0.931 . S
H983 C998 0.930 . S
C984 H972 0.930 . S
C984 C985 1.399 . S
C984 C989 1.399 . S
C985 C984 1.399 . S
C985 C986 1.376 . S
C986 H973 0.926 1_554 S
C986 C985 1.376 . S
C986 C987 1.388 . S
C987 H974 0.930 . S
C987 C986 1.388 . S
C987 C988 1.390 . S
C988 C987 1.390 . S
C988 C989 1.394 . S
C988 C994 1.465 . S
C989 C984 1.399 . S
C989 C988 1.394 . S
C989 C990 1.516 . S
C990 C989 1.516 . S
C990 C991 1.502 . S
C990 C992 1.561 . S
C990 C993 1.526 . S
C991 H975 0.959 . S
C991 H976 0.959 . S
C991 H977 0.961 . S
C991 C990 1.502 . S
C992 H978 0.960 . S
C992 H979 0.961 . S
C992 H980 0.959 . S
C992 C990 1.561 . S
C993 C990 1.526 . S
C993 C994 1.396 . S
C993 C998 1.390 . S
C994 C988 1.465 . S
C994 C993 1.396 . S
C994 C995 1.399 . S
C995 H981 0.929 . S
C995 C994 1.399 . S
C995 C996 1.385 . S
C996 H982 0.931 . S
C996 C995 1.385 . S
C996 C997 1.389 . S
C997 C996 1.389 . S
C997 C998 1.387 . S
C998 H983 0.930 . S
C998 C993 1.390 . S
C998 C997 1.387 . S
H999 C1011 0.930 . S
H1000 C1013 0.930 . S
H1001 C1014 0.930 . S
H1002 C1018 0.959 . S
H1003 C1018 0.959 . S
H1004 C1018 0.961 . S
H1005 C1019 0.960 . S
H1006 C1019 0.961 . S
H1007 C1019 0.959 . S
H1008 C1022 0.929 . S
H1009 C1023 0.931 . S
H1010 C1025 0.930 . S
C1011 H999 0.930 . S
C1011 C1012 1.399 . S
C1011 C1016 1.399 . S
C1012 C1011 1.399 . S
C1012 C1013 1.376 . S
C1013 H1000 0.930 . S
C1013 C1012 1.376 . S
C1013 C1014 1.388 . S
C1014 H1001 0.930 . S
C1014 C1013 1.388 . S
C1014 C1015 1.390 . S
C1015 C1014 1.390 . S
C1015 C1016 1.394 . S
C1015 C1021 1.465 . S
C1016 C1011 1.399 . S
C1016 C1015 1.394 . S
C1016 C1017 1.516 . S
C1017 C1016 1.516 . S
C1017 C1018 1.502 . S
C1017 C1019 1.561 . S
C1017 C1020 1.526 . S
C1018 H1002 0.959 . S
C1018 H1003 0.959 . S
C1018 H1004 0.961 . S
C1018 C1017 1.502 . S
C1019 H1005 0.960 . S
C1019 H1006 0.961 . S
C1019 H1007 0.959 . S
C1019 C1017 1.561 . S
C1020 C1017 1.526 . S
C1020 C1021 1.396 . S
C1020 C1025 1.390 . S
C1021 C1015 1.465 . S
C1021 C1020 1.396 . S
C1021 C1022 1.399 . S
C1022 H1008 0.929 . S
C1022 C1021 1.399 . S
C1022 C1023 1.385 . S
C1023 H1009 0.931 . S
C1023 C1022 1.385 . S
C1023 C1024 1.389 . S
C1024 C1023 1.389 . S
C1024 C1025 1.387 . S
C1025 H1010 0.930 . S
C1025 C1020 1.390 . S
C1025 C1024 1.387 . S
H1026 C1038 0.930 . S
H1027 C1040 0.930 . S
H1028 C1041 0.930 . S
H1029 C1045 0.959 . S
H1030 C1045 0.959 . S
H1031 C1045 0.961 . S
H1032 C1046 0.960 . S
H1033 C1046 0.961 . S
H1034 C1046 0.959 . S
H1035 C1049 0.929 . S
H1036 C1050 0.931 . S
H1037 C1052 0.930 . S
C1038 H1026 0.930 . S
C1038 C1039 1.399 . S
C1038 C1043 1.399 . S
C1039 C1038 1.399 . S
C1039 C1040 1.376 . S
C1040 H1027 0.930 . S
C1040 C1039 1.376 . S
C1040 C1041 1.388 . S
C1041 H1028 0.930 . S
C1041 C1040 1.388 . S
C1041 C1042 1.390 . S
C1042 C1041 1.390 . S
C1042 C1043 1.394 . S
C1042 C1048 1.465 . S
C1043 C1038 1.399 . S
C1043 C1042 1.394 . S
C1043 C1044 1.516 . S
C1044 C1043 1.516 . S
C1044 C1045 1.502 . S
C1044 C1046 1.561 . S
C1044 C1047 1.526 . S
C1045 H1029 0.959 . S
C1045 H1030 0.959 . S
C1045 H1031 0.961 . S
C1045 C1044 1.502 . S
C1046 H1032 0.960 . S
C1046 H1033 0.961 . S
C1046 H1034 0.959 . S
C1046 C1044 1.561 . S
C1047 C1044 1.526 . S
C1047 C1048 1.396 . S
C1047 C1052 1.390 . S
C1048 C1042 1.465 . S
C1048 C1047 1.396 . S
C1048 C1049 1.399 . S
C1049 H1035 0.929 . S
C1049 C1048 1.399 . S
C1049 C1050 1.385 . S
C1050 H1036 0.931 . S
C1050 C1049 1.385 . S
C1050 C1051 1.389 . S
C1051 C1050 1.389 . S
C1051 C1052 1.387 . S
C1052 H1037 0.930 . S
C1052 C1047 1.390 . S
C1052 C1051 1.387 . S
H1053 C1065 0.930 . S
H1054 C1067 0.930 . S
H1055 C1068 0.930 . S
H1056 C1072 0.959 . S
H1057 C1072 0.959 . S
H1058 C1072 0.961 . S
H1059 C1073 0.960 . S
H1060 C1073 0.961 . S
H1061 C1073 0.959 . S
H1062 C1076 0.929 . S
H1063 C1077 0.931 . S
H1064 C1079 0.930 . S
C1065 H1053 0.930 . S
C1065 C1066 1.399 . S
C1065 C1070 1.399 . S
C1066 C1065 1.399 . S
C1066 C1067 1.376 . S
C1067 H1054 0.930 . S
C1067 C1066 1.376 . S
C1067 C1068 1.388 . S
C1068 H1055 0.930 . S
C1068 C1067 1.388 . S
C1068 C1069 1.390 . S
C1069 C1068 1.390 . S
C1069 C1070 1.394 . S
C1069 C1075 1.465 . S
C1070 C1065 1.399 . S
C1070 C1069 1.394 . S
C1070 C1071 1.516 . S
C1071 C1070 1.516 . S
C1071 C1072 1.502 . S
C1071 C1073 1.561 . S
C1071 C1074 1.526 . S
C1072 H1056 0.959 . S
C1072 H1057 0.959 . S
C1072 H1058 0.961 . S
C1072 C1071 1.502 . S
C1073 H1059 0.960 . S
C1073 H1060 0.961 . S
C1073 H1061 0.959 . S
C1073 C1071 1.561 . S
C1074 C1071 1.526 . S
C1074 C1075 1.396 . S
C1074 C1079 1.390 . S
C1075 C1069 1.465 . S
C1075 C1074 1.396 . S
C1075 C1076 1.399 . S
C1076 H1062 0.929 . S
C1076 C1075 1.399 . S
C1076 C1077 1.385 . S
C1077 H1063 0.931 . S
C1077 C1076 1.385 . S
C1077 C1078 1.389 . S
C1078 C1077 1.389 . S
C1078 C1079 1.387 . S
C1079 H1064 0.930 . S
C1079 C1074 1.390 . S
C1079 C1078 1.387 . S
H1080 C1092 0.930 . S
H1081 C1094 0.930 . S
H1082 C1095 0.930 . S
H1083 C1099 0.959 . S
H1084 C1099 0.959 . S
H1085 C1099 0.961 . S
H1086 C1100 0.960 . S
H1087 C1100 0.961 . S
H1088 C1100 0.959 . S
H1089 C1103 0.929 . S
H1090 C1104 0.931 . S
H1091 C1106 0.930 . S
C1092 H1080 0.930 . S
C1092 C1093 1.399 . S
C1092 C1097 1.399 . S
C1093 C1092 1.399 . S
C1093 C1094 1.376 1_554 S
C1094 H1081 0.930 . S
C1094 C1093 1.376 1_556 S
C1094 C1095 1.388 . S
C1095 H1082 0.930 . S
C1095 C1094 1.388 . S
C1095 C1096 1.390 1_556 S
C1096 C1095 1.390 1_554 S
C1096 C1097 1.394 . S
C1096 C1102 1.465 . S
C1097 C1092 1.399 . S
C1097 C1096 1.394 . S
C1097 C1098 1.516 . S
C1098 C1097 1.516 . S
C1098 C1099 1.502 . S
C1098 C1100 1.561 . S
C1098 C1101 1.526 . S
C1099 H1083 0.959 . S
C1099 H1084 0.959 . S
C1099 H1085 0.961 . S
C1099 C1098 1.502 . S
C1100 H1086 0.960 . S
C1100 H1087 0.961 . S
C1100 H1088 0.959 . S
C1100 C1098 1.561 . S
C1101 C1098 1.526 . S
C1101 C1102 1.396 . S
C1101 C1106 1.390 . S
C1102 C1096 1.465 . S
C1102 C1101 1.396 . S
C1102 C1103 1.399 1_554 S
C1103 H1089 0.929 . S
C1103 C1102 1.399 1_556 S
C1103 C1104 1.385 . S
C1104 H1090 0.931 . S
C1104 C1103 1.385 . S
C1104 C1105 1.389 1_556 S
C1105 C1104 1.389 1_554 S
C1105 C1106 1.387 . S
C1106 H1091 0.930 . S
C1106 C1101 1.390 . S
C1106 C1105 1.387 . S
H1107 C1119 0.930 1_556 S
H1108 C1121 0.930 . S
H1109 C1122 0.930 . S
H1110 C1126 0.959 1_554 S
H1111 C1126 0.959 . S
H1112 C1126 0.961 . S
H1113 C1127 0.960 . S
H1114 C1127 0.961 . S
H1115 C1127 0.959 . S
H1116 C1130 0.929 . S
H1117 C1131 0.931 . S
H1118 C1133 0.930 1_556 S
C1119 H1107 0.930 1_554 S
C1119 C1120 1.399 . S
C1119 C1124 1.399 . S
C1120 C1119 1.399 . S
C1120 C1121 1.376 . S
C1121 H1108 0.930 . S
C1121 C1120 1.376 . S
C1121 C1122 1.388 . S
C1122 H1109 0.930 . S
C1122 C1121 1.388 . S
C1122 C1123 1.390 . S
C1123 C1122 1.390 . S
C1123 C1124 1.394 . S
C1123 C1129 1.465 . S
C1124 C1119 1.399 . S
C1124 C1123 1.394 . S
C1124 C1125 1.516 1_554 S
C1125 C1124 1.516 1_556 S
C1125 C1126 1.502 . S
C1125 C1127 1.561 . S
C1125 C1128 1.526 1_556 S
C1126 H1110 0.959 1_556 S
C1126 H1111 0.959 . S
C1126 H1112 0.961 . S
C1126 C1125 1.502 . S
C1127 H1113 0.960 . S
C1127 H1114 0.961 . S
C1127 H1115 0.959 . S
C1127 C1125 1.561 . S
C1128 C1125 1.526 1_554 S
C1128 C1129 1.396 . S
C1128 C1133 1.390 . S
C1129 C1123 1.465 . S
C1129 C1128 1.396 . S
C1129 C1130 1.399 . S
C1130 H1116 0.929 . S
C1130 C1129 1.399 . S
C1130 C1131 1.385 . S
C1131 H1117 0.931 . S
C1131 C1130 1.385 . S
C1131 C1132 1.389 . S
C1132 C1131 1.389 . S
C1132 C1133 1.387 . S
C1133 H1118 0.930 1_554 S
C1133 C1128 1.390 . S
C1133 C1132 1.387 . S
H1134 C1146 0.930 1_556 S
H1135 C1148 0.930 . S
H1136 C1149 0.930 . S
H1137 C1153 0.950 1_554 S
H1138 C1153 0.959 . S
H1139 C1153 0.961 . S
H1140 C1154 0.960 . S
H1141 C1154 0.961 . S
H1142 C1154 0.959 . S
H1143 C1157 0.929 . S
H1144 C1158 0.931 . S
H1145 C1160 0.930 1_556 S
C1146 H1134 0.930 1_554 S
C1146 C1147 1.399 . S
C1146 C1151 1.399 . S
C1147 C1146 1.399 . S
C1147 C1148 1.376 . S
C1148 H1135 0.930 . S
C1148 C1147 1.376 . S
C1148 C1149 1.388 . S
C1149 H1136 0.930 . S
C1149 C1148 1.388 . S
C1149 C1150 1.390 . S
C1150 C1149 1.390 . S
C1150 C1151 1.394 . S
C1150 C1156 1.465 . S
C1151 C1146 1.399 . S
C1151 C1150 1.394 . S
C1151 C1152 1.516 1_554 S
C1152 C1151 1.516 1_556 S
C1152 C1153 1.502 . S
C1152 C1154 1.561 . S
C1152 C1155 1.526 1_556 S
C1153 H1137 0.950 1_556 S
C1153 H1138 0.959 . S
C1153 H1139 0.961 . S
C1153 C1152 1.502 . S
C1154 H1140 0.960 . S
C1154 H1141 0.961 . S
C1154 H1142 0.959 . S
C1154 C1152 1.561 . S
C1155 C1152 1.526 1_554 S
C1155 C1156 1.396 . S
C1155 C1160 1.390 . S
C1156 C1150 1.465 . S
C1156 C1155 1.396 . S
C1156 C1157 1.399 . S
C1157 H1143 0.929 . S
C1157 C1156 1.399 . S
C1157 C1158 1.385 . S
C1158 H1144 0.931 . S
C1158 C1157 1.385 . S
C1158 C1159 1.389 . S
C1159 C1158 1.389 . S
C1159 C1160 1.387 . S
C1160 H1145 0.930 1_554 S
C1160 C1155 1.390 . S
C1160 C1159 1.387 . S
H1161 C1173 0.930 . S
H1162 C1175 0.930 . S
H1163 C1176 0.930 . S
H1164 C1180 0.959 . S
H1165 C1180 0.959 . S
H1166 C1180 0.961 . S
H1167 C1181 0.960 . S
H1168 C1181 0.961 . S
H1169 C1181 0.959 . S
H1170 C1184 0.929 . S
H1171 C1185 0.931 . S
H1172 C1187 0.930 . S
C1173 H1161 0.930 . S
C1173 C1174 1.399 . S
C1173 C1178 1.399 . S
C1174 C1173 1.399 . S
C1174 C1175 1.376 . S
C1175 H1162 0.930 . S
C1175 C1174 1.376 . S
C1175 C1176 1.388 . S
C1176 H1163 0.930 . S
C1176 C1175 1.388 . S
C1176 C1177 1.390 . S
C1177 C1176 1.390 . S
C1177 C1178 1.394 . S
C1177 C1183 1.465 . S
C1178 C1173 1.399 . S
C1178 C1177 1.394 . S
C1178 C1179 1.516 . S
C1179 C1178 1.516 . S
C1179 C1180 1.502 . S
C1179 C1181 1.561 . S
C1179 C1182 1.526 . S
C1180 H1164 0.959 . S
C1180 H1165 0.959 . S
C1180 H1166 0.961 . S
C1180 C1179 1.502 . S
C1181 H1167 0.960 . S
C1181 H1168 0.961 . S
C1181 H1169 0.959 . S
C1181 C1179 1.561 . S
C1182 C1179 1.526 . S
C1182 C1183 1.396 . S
C1182 C1187 1.390 . S
C1183 C1177 1.465 . S
C1183 C1182 1.396 . S
C1183 C1184 1.399 . S
C1184 H1170 0.929 . S
C1184 C1183 1.399 . S
C1184 C1185 1.385 . S
C1185 H1171 0.931 . S
C1185 C1184 1.385 . S
C1185 C1186 1.389 . S
C1186 C1185 1.389 . S
C1186 C1187 1.387 . S
C1187 H1172 0.930 . S
C1187 C1182 1.390 . S
C1187 C1186 1.387 . S
H1188 C1200 0.930 . S
H1189 C1202 0.930 . S
H1190 C1203 0.930 . S
H1191 C1207 0.959 . S
H1192 C1207 0.959 . S
H1193 C1207 0.961 . S
H1194 C1208 0.960 . S
H1195 C1208 0.961 . S
H1196 C1208 0.959 . S
H1197 C1211 0.929 . S
H1198 C1212 0.931 . S
H1199 C1214 0.930 . S
C1200 H1188 0.930 . S
C1200 C1201 1.399 . S
C1200 C1205 1.399 . S
C1201 C1200 1.399 . S
C1201 C1202 1.376 . S
C1202 H1189 0.930 . S
C1202 C1201 1.376 . S
C1202 C1203 1.388 . S
C1203 H1190 0.930 . S
C1203 C1202 1.388 . S
C1203 C1204 1.390 . S
C1204 C1203 1.390 . S
C1204 C1205 1.394 . S
C1204 C1210 1.465 . S
C1205 C1200 1.399 . S
C1205 C1204 1.394 . S
C1205 C1206 1.516 . S
C1206 C1205 1.516 . S
C1206 C1207 1.502 . S
C1206 C1208 1.561 . S
C1206 C1209 1.526 . S
C1207 H1191 0.959 . S
C1207 H1192 0.959 . S
C1207 H1193 0.961 . S
C1207 C1206 1.502 . S
C1208 H1194 0.960 . S
C1208 H1195 0.961 . S
C1208 H1196 0.959 . S
C1208 C1206 1.561 . S
C1209 C1206 1.526 . S
C1209 C1210 1.396 . S
C1209 C1214 1.390 . S
C1210 C1204 1.465 . S
C1210 C1209 1.396 . S
C1210 C1211 1.399 . S
C1211 H1197 0.929 . S
C1211 C1210 1.399 . S
C1211 C1212 1.385 . S
C1212 H1198 0.931 . S
C1212 C1211 1.385 . S
C1212 C1213 1.389 . S
C1213 C1212 1.389 . S
C1213 C1214 1.387 . S
C1214 H1199 0.930 . S
C1214 C1209 1.390 . S
C1214 C1213 1.387 . S
H1215 C1227 0.930 . S
H1216 C1229 0.930 . S
H1217 C1230 0.930 . S
H1218 C1234 0.959 . S
H1219 C1234 0.959 . S
H1220 C1234 0.961 . S
H1221 C1235 0.960 . S
H1222 C1235 0.961 . S
H1223 C1235 0.959 . S
H1224 C1238 0.929 . S
H1225 C1239 0.931 . S
H1226 C1241 0.930 . S
C1227 H1215 0.930 . S
C1227 C1228 1.399 . S
C1227 C1232 1.399 . S
C1228 C1227 1.399 . S
C1228 C1229 1.376 . S
C1229 H1216 0.930 . S
C1229 C1228 1.376 . S
C1229 C1230 1.388 . S
C1230 H1217 0.930 . S
C1230 C1229 1.388 . S
C1230 C1231 1.390 . S
C1231 C1230 1.390 . S
C1231 C1232 1.394 . S
C1231 C1237 1.465 . S
C1232 C1227 1.399 . S
C1232 C1231 1.394 . S
C1232 C1233 1.516 . S
C1233 C1232 1.516 . S
C1233 C1234 1.502 . S
C1233 C1235 1.561 . S
C1233 C1236 1.526 . S
C1234 H1218 0.959 . S
C1234 H1219 0.959 . S
C1234 H1220 0.961 . S
C1234 C1233 1.502 . S
C1235 H1221 0.960 . S
C1235 H1222 0.961 . S
C1235 H1223 0.959 . S
C1235 C1233 1.561 . S
C1236 C1233 1.526 . S
C1236 C1237 1.396 . S
C1236 C1241 1.390 . S
C1237 C1231 1.465 . S
C1237 C1236 1.396 . S
C1237 C1238 1.399 . S
C1238 H1224 0.929 . S
C1238 C1237 1.399 . S
C1238 C1239 1.385 . S
C1239 H1225 0.931 . S
C1239 C1238 1.385 . S
C1239 C1240 1.389 . S
C1240 C1239 1.389 . S
C1240 C1241 1.387 . S
C1241 H1226 0.930 . S
C1241 C1236 1.390 . S
C1241 C1240 1.387 . S
H1242 C1254 0.930 . S
H1243 C1256 0.930 . S
H1244 C1257 0.930 . S
H1245 C1261 0.959 . S
H1246 C1261 0.959 . S
H1247 C1261 0.961 . S
H1248 C1262 0.960 . S
H1249 C1262 0.961 . S
H1250 C1262 0.959 . S
H1251 C1265 0.929 . S
H1252 C1266 0.931 . S
H1253 C1268 0.930 . S
C1254 H1242 0.930 . S
C1254 C1255 1.399 . S
C1254 C1259 1.399 . S
C1255 C1254 1.399 . S
C1255 C1256 1.376 . S
C1256 H1243 0.930 . S
C1256 C1255 1.376 . S
C1256 C1257 1.388 . S
C1257 H1244 0.930 . S
C1257 C1256 1.388 . S
C1257 C1258 1.390 . S
C1258 C1257 1.390 . S
C1258 C1259 1.394 . S
C1258 C1264 1.465 . S
C1259 C1254 1.399 . S
C1259 C1258 1.394 . S
C1259 C1260 1.516 . S
C1260 C1259 1.516 . S
C1260 C1261 1.502 . S
C1260 C1262 1.561 . S
C1260 C1263 1.526 . S
C1261 H1245 0.959 . S
C1261 H1246 0.959 . S
C1261 H1247 0.961 . S
C1261 C1260 1.502 . S
C1262 H1248 0.960 . S
C1262 H1249 0.961 . S
C1262 H1250 0.959 . S
C1262 C1260 1.561 . S
C1263 C1260 1.526 . S
C1263 C1264 1.396 . S
C1263 C1268 1.390 . S
C1264 C1258 1.465 . S
C1264 C1263 1.396 . S
C1264 C1265 1.399 . S
C1265 H1251 0.929 . S
C1265 C1264 1.399 . S
C1265 C1266 1.385 . S
C1266 H1252 0.931 . S
C1266 C1265 1.385 . S
C1266 C1267 1.389 . S
C1267 C1266 1.389 . S
C1267 C1268 1.387 . S
C1268 H1253 0.930 . S
C1268 C1263 1.390 . S
C1268 C1267 1.387 . S
H1269 C1281 0.930 . S
H1270 C1283 0.930 . S
H1271 C1284 0.930 . S
H1272 C1288 0.959 . S
H1273 C1288 0.959 . S
H1274 C1288 0.961 . S
H1275 C1289 0.960 . S
H1276 C1289 0.961 . S
H1277 C1289 0.959 . S
H1278 C1292 0.929 . S
H1279 C1293 0.931 . S
H1280 C1295 0.930 . S
C1281 H1269 0.930 . S
C1281 C1282 1.399 . S
C1281 C1286 1.399 . S
C1282 C1281 1.399 . S
C1282 C1283 1.376 . S
C1283 H1270 0.930 . S
C1283 C1282 1.376 . S
C1283 C1284 1.388 . S
C1284 H1271 0.930 . S
C1284 C1283 1.388 . S
C1284 C1285 1.390 . S
C1285 C1284 1.390 . S
C1285 C1286 1.394 . S
C1285 C1291 1.465 . S
C1286 C1281 1.399 . S
C1286 C1285 1.394 . S
C1286 C1287 1.516 . S
C1287 C1286 1.516 . S
C1287 C1288 1.502 . S
C1287 C1289 1.561 . S
C1287 C1290 1.526 . S
C1288 H1272 0.959 . S
C1288 H1273 0.959 . S
C1288 H1274 0.961 . S
C1288 C1287 1.502 . S
C1289 H1275 0.960 . S
C1289 H1276 0.961 . S
C1289 H1277 0.959 . S
C1289 C1287 1.561 . S
C1290 C1287 1.526 . S
C1290 C1291 1.396 . S
C1290 C1295 1.390 . S
C1291 C1285 1.465 . S
C1291 C1290 1.396 . S
C1291 C1292 1.399 . S
C1292 H1278 0.929 . S
C1292 C1291 1.399 . S
C1292 C1293 1.385 . S
C1293 H1279 0.931 . S
C1293 C1292 1.385 . S
C1293 C1294 1.389 . S
C1294 C1293 1.389 . S
C1294 C1295 1.387 . S
C1295 H1280 0.930 . S
C1295 C1290 1.390 . S
C1295 C1294 1.387 . S
H1296 C1308 0.930 . S
H1297 C1310 0.930 . S
H1298 C1311 0.930 . S
H1299 C1315 0.959 . S
H1300 C1315 0.959 . S
H1301 C1315 0.961 . S
H1302 C1316 0.960 . S
H1303 C1316 0.961 . S
H1304 C1316 0.959 . S
H1305 C1319 0.929 . S
H1306 C1320 0.931 . S
H1307 C1322 0.930 . S
C1308 H1296 0.930 . S
C1308 C1309 1.399 . S
C1308 C1313 1.399 . S
C1309 C1308 1.399 . S
C1309 C1310 1.376 . S
C1310 H1297 0.930 . S
C1310 C1309 1.376 . S
C1310 C1311 1.388 . S
C1311 H1298 0.930 . S
C1311 C1310 1.388 . S
C1311 C1312 1.390 . S
C1312 C1311 1.390 . S
C1312 C1313 1.394 . S
C1312 C1318 1.465 . S
C1313 C1308 1.399 . S
C1313 C1312 1.394 . S
C1313 C1314 1.516 . S
C1314 C1313 1.516 . S
C1314 C1315 1.502 . S
C1314 C1316 1.561 . S
C1314 C1317 1.526 . S
C1315 H1299 0.959 . S
C1315 H1300 0.959 . S
C1315 H1301 0.961 . S
C1315 C1314 1.502 . S
C1316 H1302 0.960 . S
C1316 H1303 0.961 . S
C1316 H1304 0.959 . S
C1316 C1314 1.561 . S
C1317 C1314 1.526 . S
C1317 C1318 1.396 . S
C1317 C1322 1.390 . S
C1318 C1312 1.465 . S
C1318 C1317 1.396 . S
C1318 C1319 1.399 . S
C1319 H1305 0.929 . S
C1319 C1318 1.399 . S
C1319 C1320 1.385 . S
C1320 H1306 0.931 . S
C1320 C1319 1.385 . S
C1320 C1321 1.389 . S
C1321 C1320 1.389 . S
C1321 C1322 1.387 . S
C1322 H1307 0.930 . S
C1322 C1317 1.390 . S
C1322 C1321 1.387 . S
H1323 C1335 0.930 . S
H1324 C1337 0.930 . S
H1325 C1338 0.930 . S
H1326 C1342 0.959 . S
H1327 C1342 0.959 . S
H1328 C1342 0.961 . S
H1329 C1343 0.960 . S
H1330 C1343 0.961 . S
H1331 C1343 0.959 . S
H1332 C1346 0.929 . S
H1333 C1347 0.931 . S
H1334 C1349 0.930 . S
C1335 H1323 0.930 . S
C1335 C1336 1.399 . S
C1335 C1340 1.399 . S
C1336 C1335 1.399 . S
C1336 C1337 1.376 . S
C1337 H1324 0.930 . S
C1337 C1336 1.376 . S
C1337 C1338 1.388 . S
C1338 H1325 0.930 . S
C1338 C1337 1.388 . S
C1338 C1339 1.390 . S
C1339 C1338 1.390 . S
C1339 C1340 1.394 . S
C1339 C1345 1.465 . S
C1340 C1335 1.399 . S
C1340 C1339 1.394 . S
C1340 C1341 1.516 . S
C1341 C1340 1.516 . S
C1341 C1342 1.502 . S
C1341 C1343 1.561 . S
C1341 C1344 1.526 . S
C1342 H1326 0.959 . S
C1342 H1327 0.959 . S
C1342 H1328 0.961 . S
C1342 C1341 1.502 . S
C1343 H1329 0.960 . S
C1343 H1330 0.961 . S
C1343 H1331 0.959 . S
C1343 C1341 1.561 . S
C1344 C1341 1.526 . S
C1344 C1345 1.396 . S
C1344 C1349 1.390 . S
C1345 C1339 1.465 . S
C1345 C1344 1.396 . S
C1345 C1346 1.399 . S
C1346 H1332 0.929 . S
C1346 C1345 1.399 . S
C1346 C1347 1.385 . S
C1347 H1333 0.931 . S
C1347 C1346 1.385 . S
C1347 C1348 1.389 . S
C1348 C1347 1.389 . S
C1348 C1349 1.387 . S
C1349 H1334 0.930 . S
C1349 C1344 1.390 . S
C1349 C1348 1.387 . S
H1350 C1362 0.930 . S
H1351 C1364 0.930 . S
H1352 C1365 0.930 . S
H1353 C1369 0.959 . S
H1354 C1369 0.959 . S
H1355 C1369 0.961 . S
H1356 C1370 0.960 . S
H1357 C1370 0.961 . S
H1358 C1370 0.959 . S
H1359 C1373 0.929 . S
H1360 C1374 0.931 . S
H1361 C1376 0.930 . S
C1362 H1350 0.930 . S
C1362 C1363 1.399 . S
C1362 C1367 1.399 . S
C1363 C1362 1.399 . S
C1363 C1364 1.376 . S
C1364 H1351 0.930 . S
C1364 C1363 1.376 . S
C1364 C1365 1.388 . S
C1365 H1352 0.930 . S
C1365 C1364 1.388 . S
C1365 C1366 1.390 . S
C1366 C1365 1.390 . S
C1366 C1367 1.394 . S
C1366 C1372 1.465 . S
C1367 C1362 1.399 . S
C1367 C1366 1.394 . S
C1367 C1368 1.516 . S
C1368 C1367 1.516 . S
C1368 C1369 1.502 . S
C1368 C1370 1.561 . S
C1368 C1371 1.526 . S
C1369 H1353 0.959 . S
C1369 H1354 0.959 . S
C1369 H1355 0.961 . S
C1369 C1368 1.502 . S
C1370 H1356 0.960 . S
C1370 H1357 0.961 . S
C1370 H1358 0.959 . S
C1370 C1368 1.561 . S
C1371 C1368 1.526 . S
C1371 C1372 1.396 . S
C1371 C1376 1.390 . S
C1372 C1366 1.465 . S
C1372 C1371 1.396 . S
C1372 C1373 1.399 . S
C1373 H1359 0.929 . S
C1373 C1372 1.399 . S
C1373 C1374 1.385 . S
C1374 H1360 0.931 . S
C1374 C1373 1.385 . S
C1374 C1375 1.389 . S
C1375 C1374 1.389 . S
C1375 C1376 1.387 . S
C1376 H1361 0.930 . S
C1376 C1371 1.390 . S
C1376 C1375 1.387 . S
H1377 C1389 0.930 . S
H1378 C1391 0.930 . S
H1379 C1392 0.930 . S
H1380 C1396 0.959 . S
H1381 C1396 0.959 1_565 S
H1382 C1396 0.961 . S
H1383 C1397 0.960 . S
H1384 C1397 0.961 . S
H1385 C1397 0.959 . S
H1386 C1400 0.929 . S
H1387 C1401 0.931 . S
H1388 C1403 0.929 1_565 S
C1389 H1377 0.930 . S
C1389 C1390 1.399 . S
C1389 C1394 1.399 . S
C1390 C1389 1.399 . S
C1390 C1391 1.376 . S
C1391 H1378 0.930 . S
C1391 C1390 1.376 . S
C1391 C1392 1.388 . S
C1392 H1379 0.930 . S
C1392 C1391 1.388 . S
C1392 C1393 1.390 . S
C1393 C1392 1.390 . S
C1393 C1394 1.394 . S
C1393 C1399 1.465 . S
C1394 C1389 1.399 . S
C1394 C1393 1.394 . S
C1394 C1395 1.516 . S
C1395 C1394 1.516 . S
C1395 C1396 1.502 . S
C1395 C1397 1.561 1_545 S
C1395 C1398 1.526 . S
C1396 H1380 0.959 . S
C1396 H1381 0.959 1_545 S
C1396 H1382 0.961 . S
C1396 C1395 1.502 . S
C1397 H1383 0.960 . S
C1397 H1384 0.961 . S
C1397 H1385 0.959 . S
C1397 C1395 1.561 1_565 S
C1398 C1395 1.526 . S
C1398 C1399 1.396 . S
C1398 C1403 1.390 . S
C1399 C1393 1.465 . S
C1399 C1398 1.396 . S
C1399 C1400 1.399 . S
C1400 H1386 0.929 . S
C1400 C1399 1.399 . S
C1400 C1401 1.385 . S
C1401 H1387 0.931 . S
C1401 C1400 1.385 . S
C1401 C1402 1.389 . S
C1402 C1401 1.389 . S
C1402 C1403 1.387 . S
C1403 H1388 0.929 1_545 S
C1403 C1398 1.390 . S
C1403 C1402 1.387 . S
H1404 C1416 0.930 . S
H1405 C1418 0.930 . S
H1406 C1419 0.930 . S
H1407 C1423 0.959 . S
H1408 C1423 0.959 . S
H1409 C1423 0.961 . S
H1410 C1424 0.960 . S
H1411 C1424 0.961 . S
H1412 C1424 0.959 . S
H1413 C1427 0.929 . S
H1414 C1428 0.931 . S
H1415 C1430 0.930 . S
C1416 H1404 0.930 . S
C1416 C1417 1.399 1_556 S
C1416 C1421 1.399 . S
C1417 C1416 1.399 1_554 S
C1417 C1418 1.376 . S
C1418 H1405 0.930 . S
C1418 C1417 1.376 . S
C1418 C1419 1.388 . S
C1419 H1406 0.930 . S
C1419 C1418 1.388 . S
C1419 C1420 1.390 1_554 S
C1420 C1419 1.390 1_556 S
C1420 C1421 1.394 . S
C1420 C1426 1.465 . S
C1421 C1416 1.399 . S
C1421 C1420 1.394 . S
C1421 C1422 1.516 . S
C1422 C1421 1.516 . S
C1422 C1423 1.502 . S
C1422 C1424 1.561 . S
C1422 C1425 1.526 . S
C1423 H1407 0.959 . S
C1423 H1408 0.959 . S
C1423 H1409 0.961 . S
C1423 C1422 1.502 . S
C1424 H1410 0.960 . S
C1424 H1411 0.961 . S
C1424 H1412 0.959 . S
C1424 C1422 1.561 . S
C1425 C1422 1.526 . S
C1425 C1426 1.396 . S
C1425 C1430 1.390 . S
C1426 C1420 1.465 . S
C1426 C1425 1.396 . S
C1426 C1427 1.399 . S
C1427 H1413 0.929 . S
C1427 C1426 1.399 . S
C1427 C1428 1.385 . S
C1428 H1414 0.931 . S
C1428 C1427 1.385 . S
C1428 C1429 1.389 . S
C1429 C1428 1.389 . S
C1429 C1430 1.387 . S
C1430 H1415 0.930 . S
C1430 C1425 1.390 . S
C1430 C1429 1.387 . S
H1431 C1443 0.930 1_554 S
H1432 C1445 0.930 . S
H1433 C1446 0.930 . S
H1434 C1450 0.959 . S
H1435 C1450 0.959 . S
H1436 C1450 0.961 . S
H1437 C1451 0.960 . S
H1438 C1451 0.961 . S
H1439 C1451 0.959 . S
H1440 C1454 0.929 . S
H1441 C1455 0.931 . S
H1442 C1457 0.930 . S
C1443 H1431 0.930 1_556 S
C1443 C1444 1.399 . S
C1443 C1448 1.399 . S
C1444 C1443 1.399 . S
C1444 C1445 1.376 . S
C1445 H1432 0.930 . S
C1445 C1444 1.376 . S
C1445 C1446 1.388 . S
C1446 H1433 0.930 . S
C1446 C1445 1.388 . S
C1446 C1447 1.390 . S
C1447 C1446 1.390 . S
C1447 C1448 1.394 . S
C1447 C1453 1.465 . S
C1448 C1443 1.399 . S
C1448 C1447 1.394 . S
C1448 C1449 1.516 . S
C1449 C1448 1.516 . S
C1449 C1450 1.502 . S
C1449 C1451 1.561 1_556 S
C1449 C1452 1.526 . S
C1450 H1434 0.959 . S
C1450 H1435 0.959 . S
C1450 H1436 0.961 . S
C1450 C1449 1.502 . S
C1451 H1437 0.960 . S
C1451 H1438 0.961 . S
C1451 H1439 0.959 . S
C1451 C1449 1.561 1_554 S
C1452 C1449 1.526 . S
C1452 C1453 1.396 . S
C1452 C1457 1.390 . S
C1453 C1447 1.465 . S
C1453 C1452 1.396 . S
C1453 C1454 1.399 . S
C1454 H1440 0.929 . S
C1454 C1453 1.399 . S
C1454 C1455 1.385 . S
C1455 H1441 0.931 . S
C1455 C1454 1.385 . S
C1455 C1456 1.389 . S
C1456 C1455 1.389 . S
C1456 C1457 1.387 . S
C1457 H1442 0.930 . S
C1457 C1452 1.390 . S
C1457 C1456 1.387 . S
H1458 C1470 0.930 . S
H1459 C1472 0.930 . S
H1460 C1473 0.930 . S
H1461 C1477 0.959 . S
H1462 C1477 0.959 . S
H1463 C1477 0.961 . S
H1464 C1478 0.960 . S
H1465 C1478 0.961 . S
H1466 C1478 0.959 . S
H1467 C1481 0.929 . S
H1468 C1482 0.931 . S
H1469 C1484 0.930 . S
C1470 H1458 0.930 . S
C1470 C1471 1.399 . S
C1470 C1475 1.399 . S
C1471 C1470 1.399 . S
C1471 C1472 1.376 . S
C1472 H1459 0.930 . S
C1472 C1471 1.376 . S
C1472 C1473 1.388 . S
C1473 H1460 0.930 . S
C1473 C1472 1.388 . S
C1473 C1474 1.390 . S
C1474 C1473 1.390 . S
C1474 C1475 1.394 . S
C1474 C1480 1.465 . S
C1475 C1470 1.399 . S
C1475 C1474 1.394 . S
C1475 C1476 1.516 . S
C1476 C1475 1.516 . S
C1476 C1477 1.502 . S
C1476 C1478 1.561 . S
C1476 C1479 1.526 . S
C1477 H1461 0.959 . S
C1477 H1462 0.959 . S
C1477 H1463 0.961 . S
C1477 C1476 1.502 . S
C1478 H1464 0.960 . S
C1478 H1465 0.961 . S
C1478 H1466 0.959 . S
C1478 C1476 1.561 . S
C1479 C1476 1.526 . S
C1479 C1480 1.396 . S
C1479 C1484 1.390 . S
C1480 C1474 1.465 . S
C1480 C1479 1.396 . S
C1480 C1481 1.399 1_556 S
C1481 H1467 0.929 . S
C1481 C1480 1.399 1_554 S
C1481 C1482 1.385 . S
C1482 H1468 0.931 . S
C1482 C1481 1.385 . S
C1482 C1483 1.389 1_554 S
C1483 C1482 1.389 1_556 S
C1483 C1484 1.387 . S
C1484 H1469 0.930 . S
C1484 C1479 1.390 . S
C1484 C1483 1.387 . S
H1485 C1497 0.930 . S
H1486 C1499 0.930 1_554 S
H1487 C1500 0.951 1_455 S
H1488 C1504 0.959 . S
H1489 C1504 0.959 . S
H1490 C1504 0.961 . S
H1491 C1505 0.960 . S
H1492 C1505 0.961 . S
H1493 C1505 0.959 . S
H1494 C1508 0.929 . S
H1495 C1509 0.931 . S
H1496 C1511 0.930 . S
C1497 H1485 0.930 . S
C1497 C1498 1.399 1_655 S
C1497 C1502 1.399 . S
C1498 C1497 1.399 1_455 S
C1498 C1499 1.376 . S
C1499 H1486 0.930 1_556 S
C1499 C1498 1.376 . S
C1499 C1500 1.339 1_455 S
C1500 H1487 0.951 1_655 S
C1500 C1499 1.339 1_655 S
C1500 C1501 1.421 . S
C1501 C1500 1.421 . S
C1501 C1502 1.394 . S
C1501 C1507 1.465 . S
C1502 C1497 1.399 . S
C1502 C1501 1.394 . S
C1502 C1503 1.516 . S
C1503 C1502 1.516 . S
C1503 C1504 1.502 . S
C1503 C1505 1.561 . S
C1503 C1506 1.526 . S
C1504 H1488 0.959 . S
C1504 H1489 0.959 . S
C1504 H1490 0.961 . S
C1504 C1503 1.502 . S
C1505 H1491 0.960 . S
C1505 H1492 0.961 . S
C1505 H1493 0.959 . S
C1505 C1503 1.561 . S
C1506 C1503 1.526 . S
C1506 C1507 1.396 . S
C1506 C1511 1.390 . S
C1507 C1501 1.465 . S
C1507 C1506 1.396 . S
C1507 C1508 1.399 . S
C1508 H1494 0.929 . S
C1508 C1507 1.399 . S
C1508 C1509 1.385 . S
C1509 H1495 0.931 . S
C1509 C1508 1.385 . S
C1509 C1510 1.389 . S
C1510 C1509 1.389 . S
C1510 C1511 1.387 . S
C1511 H1496 0.930 . S
C1511 C1506 1.390 . S
C1511 C1510 1.387 . S
H1512 C1524 0.930 . S
H1513 C1526 0.930 . S
H1514 C1527 0.930 . S
H1515 C1531 0.959 . S
H1516 C1531 0.959 . S
H1517 C1531 0.961 1_554 S
H1518 C1532 0.960 . S
H1519 C1532 0.961 . S
H1520 C1532 0.959 . S
H1521 C1535 0.929 . S
H1522 C1536 0.931 . S
H1523 C1538 0.930 . S
C1524 H1512 0.930 . S
C1524 C1525 1.399 1_554 S
C1524 C1529 1.399 1_554 S
C1525 C1524 1.399 1_556 S
C1525 C1526 1.376 . S
C1526 H1513 0.930 . S
C1526 C1525 1.376 . S
C1526 C1527 1.388 . S
C1527 H1514 0.930 . S
C1527 C1526 1.388 . S
C1527 C1528 1.390 . S
C1528 C1527 1.390 . S
C1528 C1529 1.394 . S
C1528 C1534 1.465 . S
C1529 C1524 1.399 1_556 S
C1529 C1528 1.394 . S
C1529 C1530 1.516 . S
C1530 C1529 1.516 . S
C1530 C1531 1.502 . S
C1530 C1532 1.561 1_556 S
C1530 C1533 1.526 . S
C1531 H1515 0.959 . S
C1531 H1516 0.959 . S
C1531 H1517 0.961 1_556 S
C1531 C1530 1.502 . S
C1532 H1518 0.960 . S
C1532 H1519 0.961 . S
C1532 H1520 0.959 . S
C1532 C1530 1.561 1_554 S
C1533 C1530 1.526 . S
C1533 C1534 1.396 . S
C1533 C1538 1.390 . S
C1534 C1528 1.465 . S
C1534 C1533 1.396 . S
C1534 C1535 1.399 . S
C1535 H1521 0.929 . S
C1535 C1534 1.399 . S
C1535 C1536 1.385 . S
C1536 H1522 0.931 . S
C1536 C1535 1.385 . S
C1536 C1537 1.389 . S
C1537 C1536 1.389 . S
C1537 C1538 1.387 . S
C1538 H1523 0.930 . S
C1538 C1533 1.390 . S
C1538 C1537 1.387 . S
H1539 C1551 0.930 . S
H1540 C1553 0.930 . S
H1541 C1554 0.930 . S
H1542 C1558 0.959 . S
H1543 C1558 0.959 . S
H1544 C1558 0.961 . S
H1545 C1559 0.960 . S
H1546 C1559 0.961 . S
H1547 C1559 0.959 . S
H1548 C1562 0.929 . S
H1549 C1563 0.931 1_554 S
H1550 C1565 0.930 . S
C1551 H1539 0.930 . S
C1551 C1552 1.399 . S
C1551 C1556 1.399 . S
C1552 C1551 1.399 . S
C1552 C1553 1.376 . S
C1553 H1540 0.930 . S
C1553 C1552 1.376 . S
C1553 C1554 1.388 . S
C1554 H1541 0.930 . S
C1554 C1553 1.388 . S
C1554 C1555 1.390 . S
C1555 C1554 1.390 . S
C1555 C1556 1.394 . S
C1555 C1561 1.465 . S
C1556 C1551 1.399 . S
C1556 C1555 1.394 . S
C1556 C1557 1.516 . S
C1557 C1556 1.516 . S
C1557 C1558 1.502 . S
C1557 C1559 1.561 . S
C1557 C1560 1.526 . S
C1558 H1542 0.959 . S
C1558 H1543 0.959 . S
C1558 H1544 0.961 . S
C1558 C1557 1.502 . S
C1559 H1545 0.960 . S
C1559 H1546 0.961 . S
C1559 H1547 0.959 . S
C1559 C1557 1.561 . S
C1560 C1557 1.526 . S
C1560 C1561 1.396 . S
C1560 C1565 1.390 . S
C1561 C1555 1.465 . S
C1561 C1560 1.396 . S
C1561 C1562 1.399 . S
C1562 H1548 0.929 . S
C1562 C1561 1.399 . S
C1562 C1563 1.385 . S
C1563 H1549 0.931 1_556 S
C1563 C1562 1.385 . S
C1563 C1564 1.389 . S
C1564 C1563 1.389 . S
C1564 C1565 1.387 . S
C1565 H1550 0.930 . S
C1565 C1560 1.390 . S
C1565 C1564 1.387 . S
H1566 C1578 0.930 . S
H1567 C1580 0.930 . S
H1568 C1581 0.930 . S
H1569 C1585 0.959 . S
H1570 C1585 0.959 . S
H1571 C1585 0.961 . S
H1572 C1586 0.960 . S
H1573 C1586 0.961 . S
H1574 C1586 0.959 . S
H1575 C1589 0.929 . S
H1576 C1590 0.931 . S
H1577 C1592 0.930 . S
C1578 H1566 0.930 . S
C1578 C1579 1.399 . S
C1578 C1583 1.399 . S
C1579 C1578 1.399 . S
C1579 C1580 1.376 1_565 S
C1580 H1567 0.930 . S
C1580 C1579 1.376 1_545 S
C1580 C1581 1.388 . S
C1581 H1568 0.930 . S
C1581 C1580 1.388 . S
C1581 C1582 1.390 . S
C1582 C1581 1.390 . S
C1582 C1583 1.394 1_545 S
C1582 C1588 1.465 . S
C1583 C1578 1.399 . S
C1583 C1582 1.394 1_565 S
C1583 C1584 1.516 . S
C1584 C1583 1.516 . S
C1584 C1585 1.502 . S
C1584 C1586 1.561 . S
C1584 C1587 1.526 . S
C1585 H1569 0.959 . S
C1585 H1570 0.959 . S
C1585 H1571 0.961 . S
C1585 C1584 1.502 . S
C1586 H1572 0.960 . S
C1586 H1573 0.961 . S
C1586 H1574 0.959 . S
C1586 C1584 1.561 . S
C1587 C1584 1.526 . S
C1587 C1588 1.396 1_565 S
C1587 C1592 1.390 . S
C1588 C1582 1.465 . S
C1588 C1587 1.396 1_545 S
C1588 C1589 1.399 . S
C1589 H1575 0.929 . S
C1589 C1588 1.399 . S
C1589 C1590 1.385 . S
C1590 H1576 0.931 . S
C1590 C1589 1.385 . S
C1590 C1591 1.389 . S
C1591 C1590 1.389 . S
C1591 C1592 1.387 1_545 S
C1592 H1577 0.930 . S
C1592 C1587 1.390 . S
C1592 C1591 1.387 1_565 S
H1593 C1605 0.930 . S
H1594 C1607 0.930 . S
H1595 C1608 0.930 . S
H1596 C1612 0.959 . S
H1597 C1612 0.959 . S
H1598 C1612 0.961 . S
H1599 C1613 0.960 . S
H1600 C1613 0.961 . S
H1601 C1613 0.959 . S
H1602 C1616 0.929 . S
H1603 C1617 0.931 . S
H1604 C1619 0.930 . S
C1605 H1593 0.930 . S
C1605 C1606 1.399 . S
C1605 C1610 1.399 . S
C1606 C1605 1.399 . S
C1606 C1607 1.376 . S
C1607 H1594 0.930 . S
C1607 C1606 1.376 . S
C1607 C1608 1.388 . S
C1608 H1595 0.930 . S
C1608 C1607 1.388 . S
C1608 C1609 1.390 . S
C1609 C1608 1.390 . S
C1609 C1610 1.394 . S
C1609 C1615 1.465 . S
C1610 C1605 1.399 . S
C1610 C1609 1.394 . S
C1610 C1611 1.516 . S
C1611 C1610 1.516 . S
C1611 C1612 1.502 . S
C1611 C1613 1.561 . S
C1611 C1614 1.526 . S
C1612 H1596 0.959 . S
C1612 H1597 0.959 . S
C1612 H1598 0.961 . S
C1612 C1611 1.502 . S
C1613 H1599 0.960 . S
C1613 H1600 0.961 . S
C1613 H1601 0.959 . S
C1613 C1611 1.561 . S
C1614 C1611 1.526 . S
C1614 C1615 1.396 . S
C1614 C1619 1.390 . S
C1615 C1609 1.465 . S
C1615 C1614 1.396 . S
C1615 C1616 1.399 . S
C1616 H1602 0.929 . S
C1616 C1615 1.399 . S
C1616 C1617 1.385 . S
C1617 H1603 0.931 . S
C1617 C1616 1.385 . S
C1617 C1618 1.389 . S
C1618 C1617 1.389 . S
C1618 C1619 1.387 . S
C1619 H1604 0.930 . S
C1619 C1614 1.390 . S
C1619 C1618 1.387 . S
H1620 C1632 0.930 . S
H1621 C1634 0.930 . S
H1622 C1635 0.930 . S
H1623 C1639 0.959 . S
H1624 C1639 0.959 . S
H1625 C1639 0.961 . S
H1626 C1640 0.960 . S
H1627 C1640 0.961 . S
H1628 C1640 0.959 . S
H1629 C1643 0.929 . S
H1630 C1644 0.931 . S
H1631 C1646 0.930 . S
C1632 H1620 0.930 . S
C1632 C1633 1.399 . S
C1632 C1637 1.399 . S
C1633 C1632 1.399 . S
C1633 C1634 1.376 . S
C1634 H1621 0.930 . S
C1634 C1633 1.376 . S
C1634 C1635 1.388 . S
C1635 H1622 0.930 . S
C1635 C1634 1.388 . S
C1635 C1636 1.390 . S
C1636 C1635 1.390 . S
C1636 C1637 1.394 . S
C1636 C1642 1.465 . S
C1637 C1632 1.399 . S
C1637 C1636 1.394 . S
C1637 C1638 1.516 . S
C1638 C1637 1.516 . S
C1638 C1639 1.502 . S
C1638 C1640 1.561 . S
C1638 C1641 1.526 . S
C1639 H1623 0.959 . S
C1639 H1624 0.959 . S
C1639 H1625 0.961 . S
C1639 C1638 1.502 . S
C1640 H1626 0.960 . S
C1640 H1627 0.961 . S
C1640 H1628 0.959 . S
C1640 C1638 1.561 . S
C1641 C1638 1.526 . S
C1641 C1642 1.396 . S
C1641 C1646 1.390 . S
C1642 C1636 1.465 . S
C1642 C1641 1.396 . S
C1642 C1643 1.399 . S
C1643 H1629 0.929 . S
C1643 C1642 1.399 . S
C1643 C1644 1.385 . S
C1644 H1630 0.931 . S
C1644 C1643 1.385 . S
C1644 C1645 1.389 . S
C1645 C1644 1.389 . S
C1645 C1646 1.387 . S
C1646 H1631 0.930 . S
C1646 C1641 1.390 . S
C1646 C1645 1.387 . S
H1647 C1659 0.930 . S
H1648 C1661 0.930 . S
H1649 C1662 0.930 . S
H1650 C1666 0.959 . S
H1651 C1666 0.959 . S
H1652 C1666 0.961 . S
H1653 C1667 0.960 . S
H1654 C1667 0.961 . S
H1655 C1667 0.959 . S
H1656 C1670 0.929 . S
H1657 C1671 0.931 . S
H1658 C1673 0.930 . S
C1659 H1647 0.930 . S
C1659 C1660 1.399 . S
C1659 C1664 1.399 . S
C1660 C1659 1.399 . S
C1660 C1661 1.376 . S
C1661 H1648 0.930 . S
C1661 C1660 1.376 . S
C1661 C1662 1.388 . S
C1662 H1649 0.930 . S
C1662 C1661 1.388 . S
C1662 C1663 1.390 . S
C1663 C1662 1.390 . S
C1663 C1664 1.394 . S
C1663 C1669 1.465 . S
C1664 C1659 1.399 . S
C1664 C1663 1.394 . S
C1664 C1665 1.516 . S
C1665 C1664 1.516 . S
C1665 C1666 1.502 . S
C1665 C1667 1.561 . S
C1665 C1668 1.526 . S
C1666 H1650 0.959 . S
C1666 H1651 0.959 . S
C1666 H1652 0.961 . S
C1666 C1665 1.502 . S
C1667 H1653 0.960 . S
C1667 H1654 0.961 . S
C1667 H1655 0.959 . S
C1667 C1665 1.561 . S
C1668 C1665 1.526 . S
C1668 C1669 1.396 . S
C1668 C1673 1.390 . S
C1669 C1663 1.465 . S
C1669 C1668 1.396 . S
C1669 C1670 1.399 . S
C1670 H1656 0.929 . S
C1670 C1669 1.399 . S
C1670 C1671 1.385 . S
C1671 H1657 0.931 . S
C1671 C1670 1.385 . S
C1671 C1672 1.389 . S
C1672 C1671 1.389 . S
C1672 C1673 1.387 . S
C1673 H1658 0.930 . S
C1673 C1668 1.390 . S
C1673 C1672 1.387 . S
H1674 C1686 0.930 . S
H1675 C1688 0.930 . S
H1676 C1689 0.930 . S
H1677 C1693 0.959 . S
H1678 C1693 0.959 . S
H1679 C1693 0.961 . S
H1680 C1694 0.960 . S
H1681 C1694 0.961 . S
H1682 C1694 0.959 . S
H1683 C1697 0.929 . S
H1684 C1698 0.931 . S
H1685 C1700 0.930 . S
C1686 H1674 0.930 . S
C1686 C1687 1.399 . S
C1686 C1691 1.399 . S
C1687 C1686 1.399 . S
C1687 C1688 1.376 . S
C1688 H1675 0.930 . S
C1688 C1687 1.376 . S
C1688 C1689 1.388 . S
C1689 H1676 0.930 . S
C1689 C1688 1.388 . S
C1689 C1690 1.390 . S
C1690 C1689 1.390 . S
C1690 C1691 1.394 . S
C1690 C1696 1.465 . S
C1691 C1686 1.399 . S
C1691 C1690 1.394 . S
C1691 C1692 1.516 . S
C1692 C1691 1.516 . S
C1692 C1693 1.502 . S
C1692 C1694 1.561 . S
C1692 C1695 1.526 . S
C1693 H1677 0.959 . S
C1693 H1678 0.959 . S
C1693 H1679 0.961 . S
C1693 C1692 1.502 . S
C1694 H1680 0.960 . S
C1694 H1681 0.961 . S
C1694 H1682 0.959 . S
C1694 C1692 1.561 . S
C1695 C1692 1.526 . S
C1695 C1696 1.396 . S
C1695 C1700 1.390 . S
C1696 C1690 1.465 . S
C1696 C1695 1.396 . S
C1696 C1697 1.399 . S
C1697 H1683 0.929 . S
C1697 C1696 1.399 . S
C1697 C1698 1.385 . S
C1698 H1684 0.931 . S
C1698 C1697 1.385 . S
C1698 C1699 1.389 . S
C1699 C1698 1.389 . S
C1699 C1700 1.387 . S
C1700 H1685 0.930 . S
C1700 C1695 1.390 . S
C1700 C1699 1.387 . S
H1701 C1713 0.930 . S
H1702 C1715 0.930 . S
H1703 C1716 0.930 . S
H1704 C1720 0.959 . S
H1705 C1720 0.959 . S
H1706 C1720 0.961 . S
H1707 C1721 0.960 . S
H1708 C1721 0.961 . S
H1709 C1721 0.959 . S
H1710 C1724 0.929 . S
H1711 C1725 0.931 . S
H1712 C1727 0.930 . S
C1713 H1701 0.930 . S
C1713 C1714 1.399 . S
C1713 C1718 1.399 . S
C1714 C1713 1.399 . S
C1714 C1715 1.376 . S
C1715 H1702 0.930 . S
C1715 C1714 1.376 . S
C1715 C1716 1.388 . S
C1716 H1703 0.930 . S
C1716 C1715 1.388 . S
C1716 C1717 1.390 . S
C1717 C1716 1.390 . S
C1717 C1718 1.394 . S
C1717 C1723 1.465 . S
C1718 C1713 1.399 . S
C1718 C1717 1.394 . S
C1718 C1719 1.516 . S
C1719 C1718 1.516 . S
C1719 C1720 1.502 . S
C1719 C1721 1.561 . S
C1719 C1722 1.526 . S
C1720 H1704 0.959 . S
C1720 H1705 0.959 . S
C1720 H1706 0.961 . S
C1720 C1719 1.502 . S
C1721 H1707 0.960 . S
C1721 H1708 0.961 . S
C1721 H1709 0.959 . S
C1721 C1719 1.561 . S
C1722 C1719 1.526 . S
C1722 C1723 1.396 . S
C1722 C1727 1.390 1_455 S
C1723 C1717 1.465 . S
C1723 C1722 1.396 . S
C1723 C1724 1.399 1_455 S
C1724 H1710 0.929 . S
C1724 C1723 1.399 1_655 S
C1724 C1725 1.385 . S
C1725 H1711 0.931 . S
C1725 C1724 1.385 . S
C1725 C1726 1.389 . S
C1726 C1725 1.389 . S
C1726 C1727 1.387 . S
C1727 H1712 0.930 . S
C1727 C1722 1.390 1_655 S
C1727 C1726 1.387 . S
H1728 C1740 0.930 . S
H1729 C1742 0.930 . S
H1730 C1743 0.930 . S
H1731 C1747 0.959 . S
H1732 C1747 0.959 . S
H1733 C1747 0.961 . S
H1734 C1748 0.960 . S
H1735 C1748 0.961 . S
H1736 C1748 0.959 . S
H1737 C1751 0.929 . S
H1738 C1752 0.931 . S
H1739 C1754 0.930 . S
C1740 H1728 0.930 . S
C1740 C1741 1.399 . S
C1740 C1745 1.399 . S
C1741 C1740 1.399 . S
C1741 C1742 1.376 . S
C1742 H1729 0.930 . S
C1742 C1741 1.376 . S
C1742 C1743 1.388 . S
C1743 H1730 0.930 . S
C1743 C1742 1.388 . S
C1743 C1744 1.390 . S
C1744 C1743 1.390 . S
C1744 C1745 1.394 . S
C1744 C1750 1.465 . S
C1745 C1740 1.399 . S
C1745 C1744 1.394 . S
C1745 C1746 1.516 . S
C1746 C1745 1.516 . S
C1746 C1747 1.502 . S
C1746 C1748 1.561 . S
C1746 C1749 1.526 . S
C1747 H1731 0.959 . S
C1747 H1732 0.959 . S
C1747 H1733 0.961 . S
C1747 C1746 1.502 . S
C1748 H1734 0.960 . S
C1748 H1735 0.961 . S
C1748 H1736 0.959 . S
C1748 C1746 1.561 . S
C1749 C1746 1.526 . S
C1749 C1750 1.396 . S
C1749 C1754 1.390 . S
C1750 C1744 1.465 . S
C1750 C1749 1.396 . S
C1750 C1751 1.399 . S
C1751 H1737 0.929 . S
C1751 C1750 1.399 . S
C1751 C1752 1.385 . S
C1752 H1738 0.931 . S
C1752 C1751 1.385 . S
C1752 C1753 1.389 . S
C1753 C1752 1.389 . S
C1753 C1754 1.387 . S
C1754 H1739 0.930 . S
C1754 C1749 1.390 . S
C1754 C1753 1.387 . S
H1755 C1767 0.930 . S
H1756 C1769 0.930 . S
H1757 C1770 0.930 . S
H1758 C1774 0.959 . S
H1759 C1774 0.959 . S
H1760 C1774 0.961 . S
H1761 C1775 0.960 . S
H1762 C1775 0.961 . S
H1763 C1775 0.959 . S
H1764 C1778 0.929 . S
H1765 C1779 0.931 . S
H1766 C1781 0.930 . S
C1767 H1755 0.930 . S
C1767 C1768 1.399 . S
C1767 C1772 1.399 . S
C1768 C1767 1.399 . S
C1768 C1769 1.376 . S
C1769 H1756 0.930 . S
C1769 C1768 1.376 . S
C1769 C1770 1.388 . S
C1770 H1757 0.930 . S
C1770 C1769 1.388 . S
C1770 C1771 1.390 . S
C1771 C1770 1.390 . S
C1771 C1772 1.394 . S
C1771 C1777 1.465 . S
C1772 C1767 1.399 . S
C1772 C1771 1.394 . S
C1772 C1773 1.516 . S
C1773 C1772 1.516 . S
C1773 C1774 1.502 . S
C1773 C1775 1.561 . S
C1773 C1776 1.526 . S
C1774 H1758 0.959 . S
C1774 H1759 0.959 . S
C1774 H1760 0.961 . S
C1774 C1773 1.502 . S
C1775 H1761 0.960 . S
C1775 H1762 0.961 . S
C1775 H1763 0.959 . S
C1775 C1773 1.561 . S
C1776 C1773 1.526 . S
C1776 C1777 1.396 . S
C1776 C1781 1.390 . S
C1777 C1771 1.465 . S
C1777 C1776 1.396 . S
C1777 C1778 1.399 . S
C1778 H1764 0.929 . S
C1778 C1777 1.399 . S
C1778 C1779 1.385 . S
C1779 H1765 0.931 . S
C1779 C1778 1.385 . S
C1779 C1780 1.389 . S
C1780 C1779 1.389 . S
C1780 C1781 1.387 . S
C1781 H1766 0.930 . S
C1781 C1776 1.390 . S
C1781 C1780 1.387 . S
H1782 C1794 0.930 . S
H1783 C1796 0.930 . S
H1784 C1797 0.930 . S
H1785 C1801 0.959 . S
H1786 C1801 0.959 . S
H1787 C1801 0.961 . S
H1788 C1802 0.960 . S
H1789 C1802 0.961 . S
H1790 C1802 0.959 . S
H1791 C1805 0.929 . S
H1792 C1806 0.931 . S
H1793 C1808 0.930 . S
C1794 H1782 0.930 . S
C1794 C1795 1.399 1_455 S
C1794 C1799 1.399 . S
C1795 C1794 1.399 1_655 S
C1795 C1796 1.376 . S
C1796 H1783 0.930 . S
C1796 C1795 1.376 . S
C1796 C1797 1.388 . S
C1797 H1784 0.930 . S
C1797 C1796 1.388 . S
C1797 C1798 1.390 1_655 S
C1798 C1797 1.390 1_455 S
C1798 C1799 1.394 . S
C1798 C1804 1.465 . S
C1799 C1794 1.399 . S
C1799 C1798 1.394 . S
C1799 C1800 1.516 . S
C1800 C1799 1.516 . S
C1800 C1801 1.502 . S
C1800 C1802 1.561 . S
C1800 C1803 1.526 . S
C1801 H1785 0.959 . S
C1801 H1786 0.959 . S
C1801 H1787 0.961 . S
C1801 C1800 1.502 . S
C1802 H1788 0.960 . S
C1802 H1789 0.961 . S
C1802 H1790 0.959 . S
C1802 C1800 1.561 . S
C1803 C1800 1.526 . S
C1803 C1804 1.396 . S
C1803 C1808 1.390 . S
C1804 C1798 1.465 . S
C1804 C1803 1.396 . S
C1804 C1805 1.399 . S
C1805 H1791 0.929 . S
C1805 C1804 1.399 . S
C1805 C1806 1.385 . S
C1806 H1792 0.931 . S
C1806 C1805 1.385 . S
C1806 C1807 1.389 . S
C1807 C1806 1.389 . S
C1807 C1808 1.387 . S
C1808 H1793 0.930 . S
C1808 C1803 1.390 . S
C1808 C1807 1.387 . S
C607 N5 1.507 . S
C619 N14 1.478 . S
C634 N47 1.498 . S
C646 N38 1.522 . S
C661 N71 1.507 . S
C673 N80 1.507 . S
C688 N113 1.511 . S
C700 N104 1.488 . S
C715 N146 1.491 . S
C727 N137 1.515 . S
C742 N179 1.495 . S
C754 N170 1.524 . S
C769 N203 1.489 . S
C781 N212 1.493 . S
C796 N236 1.506 . S
C808 N245 1.483 . S
C823 N269 1.495 . S
C835 N278 1.518 . S
C850 N311 1.468 . S
C862 N302 1.503 . S
C877 N335 1.484 . S
C889 N344 1.513 . S
C904 N368 1.524 . S
C916 N377 1.490 . S
C931 N401 1.503 . S
C943 N410 1.472 1_554 S
C958 N443 1.491 . S
C970 N434 1.503 1_554 S
C985 N476 1.507 1_554 S
C997 N467 1.504 . S
C1012 N500 1.495 1_554 S
C1024 N509 1.475 . S
C1039 N533 1.500 . S
C1051 N542 1.503 1_554 S
C1066 N575 1.484 . S
C1078 N566 1.512 1_554 S
C1093 C116 1.244 . S
C1105 C17 1.251 . S
C1120 C149 1.257 . S
C1132 C50 1.280 . S
C1147 C182 1.273 . S
C1159 C83 1.263 . S
C1174 C215 1.212 . S
C1186 C314 1.202 . S
C1201 C347 1.235 . S
C1213 C248 1.217 . S
C1228 C380 1.227 . S
C1240 C281 1.206 . S
C1255 C512 1.236 . S
C1267 C413 1.234 . S
C1282 C446 1.299 . S
C1294 C545 1.253 . S
C1309 C479 1.242 . S
C1321 C578 1.285 . S
C1336 C272 0.878 . S
C1348 C8 0.854 . S
C1363 C206 0.819 . S
C1375 C61 0.794 . S
C1390 C74 0.830 . S
C1402 C239 0.839 . S
C1417 C94 0.868 . S
C1429 C404 0.865 . S
C1444 C28 0.870 . S
C1456 C457 0.876 . S
C1471 C470 0.855 . S
C1483 C41 0.876 . S
C1498 C107 0.909 . S
C1510 C589 0.810 . S
C1525 C160 0.723 1_556 S
C1537 C523 0.755 . S
C1552 C536 0.893 . S
C1564 C173 0.913 1_556 S
C1579 C305 0.809 . S
C1591 C193 0.742 . S
C1606 C127 0.738 . S
C1618 C338 0.778 . S
C1633 C140 0.883 . S
C1645 C371 0.834 . S
C1660 C226 0.716 . S
C1672 C490 0.686 . S
C1687 C259 0.747 . S
C1699 C424 0.764 . S
C1714 C292 0.857 . S
C1726 C437 0.851 . S
C1741 C503 0.825 . S
C1753 C391 0.871 . S
C1768 C556 0.827 . S
C1780 C325 0.795 . S
C1795 C569 0.786 . S
C1807 C358 0.797 . S
