# Generated by pormake.
# Topology kag, (6)-cn, num edge types: 1
# Building blocks:
#     Node 0, Type 0, BuildingBlock: CUWYAW_clean_sbu_0, # of connection points: 6
#     Node 1, Type 0, BuildingBlock: CUWYAW_clean_sbu_0, # of connection points: 6
#     Node 2, Type 0, BuildingBlock: CUWYAW_clean_sbu_0, # of connection points: 6
#     Edge 3, Type (0, 0), BuildingBlock: UKIBUN_clean_linker_0, # of connection points: 2
#     Edge 4, Type (0, 0), BuildingBlock: UKIBUN_clean_linker_0, # of connection points: 2
#     Edge 5, Type (0, 0), BuildingBlock: UKIBUN_clean_linker_0, # of connection points: 2
#     Edge 6, Type (0, 0), BuildingBlock: UKIBUN_clean_linker_0, # of connection points: 2
#     Edge 7, Type (0, 0), BuildingBlock: UKIBUN_clean_linker_0, # of connection points: 2
#     Edge 8, Type (0, 0), BuildingBlock: UKIBUN_clean_linker_0, # of connection points: 2
#     Edge 9, Type (0, 0), BuildingBlock: UKIBUN_clean_linker_0, # of connection points: 2
#     Edge 10, Type (0, 0), BuildingBlock: UKIBUN_clean_linker_0, # of connection points: 2
#     Edge 11, Type (0, 0), BuildingBlock: UKIBUN_clean_linker_0, # of connection points: 2
# Relax obj value: 0.011
# Max RMSD: 0.070
# Mean RMSD: 0.056
data_MOF--net-kag--node1-CUWYAW_clean_sbu_0--edge1-UKIBUN_clean_linker_0
_symmetry_space_group_name_H-M    P1
_symmetry_Int_Tables_number       1
_symmetry_cell_setting            triclinic
loop_
_symmetry_equiv_pos_as_xyz
'x, y, z'
_cell_length_a     60.819669
_cell_length_b     60.930519
_cell_length_c     24.265303
_cell_angle_alpha  93.221848
_cell_angle_beta   91.513562
_cell_angle_gamma 119.99121
loop_
_atom_site_label
_atom_site_type_symbol
_atom_site_fract_x
_atom_site_fract_y
_atom_site_fract_z
_atom_type_partial_charge
C0 C 0.07116 0.58416 0.99208 0.0
Eu1 Eu 0.03139 0.53895 0.00558 0.0
C2 C 0.09984 0.60173 0.99484 0.0
C3 C 0.11318 0.61732 0.0433 0.0
C4 C 0.13837 0.63768 0.04236 0.0
C5 C 0.15104 0.6434 0.99291 0.0
C6 C 0.13848 0.62696 0.94526 0.0
C7 C 0.11339 0.60636 0.94634 0.0
C8 C 0.01346 0.51723 0.10127 0.0
C9 C 0.05451 0.50074 0.00827 0.0
C10 C 0.9551 0.43302 0.00516 0.0
Eu11 Eu 0.9946 0.47868 0.99221 0.0
C12 C 0.92635 0.41544 0.00395 0.0
C13 C 0.91225 0.39927 0.95655 0.0
C14 C 0.88675 0.37946 0.95911 0.0
C15 C 0.87458 0.37485 0.0093 0.0
C16 C 0.88808 0.39178 0.05577 0.0
C17 C 0.91337 0.41174 0.05307 0.0
C18 C 1.01196 0.50123 0.8963 0.0
C19 C 0.9721 0.51765 0.99105 0.0
O20 O 0.06017 0.56562 0.95286 0.0
O21 O 0.05902 0.57833 0.03764 0.0
O22 O 0.01951 0.54033 0.09163 0.0
O23 O 0.01945 0.50722 0.0614 0.0
O24 O 0.057 0.52325 0.00549 0.0
O25 O 0.03207 0.47945 0.00747 0.0
O26 O 0.96653 0.45123 0.04493 0.0
O27 O 0.9667 0.43939 0.95905 0.0
O28 O 1.00601 0.47802 0.90462 0.0
O29 O 1.00615 0.51052 0.93755 0.0
O30 O 0.96864 0.49468 0.99392 0.0
O31 O 0.9946 0.53854 0.99008 0.0
H32 H 0.10374 0.61467 0.08158 0.0
H33 H 0.14739 0.64995 0.07985 0.0
H34 H 0.14778 0.63051 0.90662 0.0
H35 H 0.10411 0.59487 0.90816 0.0
H36 H 0.92123 0.40119 0.91781 0.0
H37 H 0.87698 0.36694 0.92232 0.0
H38 H 0.87922 0.38924 0.09485 0.0
H39 H 0.92316 0.42362 0.09053 0.0
C40 C 0.49658 0.06692 0.98638 0.0
Eu41 Eu 0.50169 0.027 0.0037 0.0
C42 C 0.50711 0.09553 0.98875 0.0
C43 C 0.50593 0.10897 0.03674 0.0
C44 C 0.51083 0.13413 0.03605 0.0
C45 C 0.51655 0.14693 0.98704 0.0
C46 C 0.51907 0.13402 0.93957 0.0
C47 C 0.51456 0.10888 0.94055 0.0
C48 C 0.50826 0.0106 0.10187 0.0
C49 C 0.56333 0.05045 0.01081 0.0
C50 C 0.5309 0.95076 0.01425 0.0
Eu51 Eu 0.52533 0.99042 0.9971 0.0
C52 C 0.51947 0.92202 0.01111 0.0
C53 C 0.5202 0.90851 0.96273 0.0
C54 C 0.5148 0.88316 0.96294 0.0
C55 C 0.509 0.87025 0.01181 0.0
C56 C 0.50644 0.88311 0.05935 0.0
C57 C 0.51147 0.90844 0.05887 0.0
C58 C 0.51956 1.00685 0.89898 0.0
C59 C 0.4634 0.96768 0.98929 0.0
O60 O 0.50397 0.05587 0.94934 0.0
O61 O 0.49068 0.05504 0.03181 0.0
O62 O 0.49102 0.0167 0.09082 0.0
O63 O 0.52299 0.01614 0.06256 0.0
O64 O 0.54309 0.05268 0.00551 0.0
O65 O 0.56241 0.02827 0.0146 0.0
O66 O 0.52397 0.96203 0.05179 0.0
O67 O 0.53661 0.96263 0.96883 0.0
O68 O 0.53659 1.0006 0.91097 0.0
O69 O 0.5043 1.00133 0.93745 0.0
O70 O 0.4834 0.96497 0.99602 0.0
O71 O 0.46473 0.98995 0.98498 0.0
H72 H 0.50038 0.09977 0.0749 0.0
H73 H 0.50975 0.14334 0.07448 0.0
H74 H 0.52352 0.14279 0.90077 0.0
H75 H 0.51578 0.09946 0.90256 0.0
H76 H 0.5259 0.91781 0.92472 0.0
H77 H 0.51571 0.87394 0.92435 0.0
H78 H 0.50171 0.87421 0.09797 0.0
H79 H 0.51033 0.91783 0.09699 0.0
C80 C 0.58971 0.5275 0.98625 0.0
Eu81 Eu 0.54465 0.52154 0.00426 0.0
C82 C 0.60624 0.51556 0.98984 0.0
C83 C 0.62103 0.51872 0.03845 0.0
C84 C 0.64133 0.51386 0.03757 0.0
C85 C 0.64765 0.50539 0.98805 0.0
C86 C 0.63075 0.49938 0.94107 0.0
C87 C 0.61064 0.50457 0.94192 0.0
C88 C 0.52333 0.51505 0.10466 0.0
C89 C 0.50558 0.45948 0.00128 0.0
C90 C 0.4356 0.48956 0.01229 0.0
Eu91 Eu 0.4807 0.49532 0.9953 0.0
C92 C 0.41931 0.50186 0.00955 0.0
C93 C 0.40358 0.49822 0.96194 0.0
C94 C 0.38352 0.5035 0.96459 0.0
C95 C 0.37879 0.51281 0.01459 0.0
C96 C 0.39603 0.51898 0.06043 0.0
C97 C 0.41595 0.51354 0.05794 0.0
C98 C 0.50169 0.50208 0.89455 0.0
C99 C 0.52006 0.55742 0.9981 0.0
O100 O 0.57079 0.51821 0.94838 0.0
O101 O 0.5846 0.53619 0.03191 0.0
O102 O 0.54756 0.52768 0.09781 0.0
O103 O 0.51211 0.50449 0.0578 0.0
O104 O 0.52818 0.47971 0.99816 0.0
O105 O 0.4839 0.45991 0.0055 0.0
O106 O 0.45421 0.49813 0.0508 0.0
O107 O 0.44097 0.48135 0.96631 0.0
O108 O 0.4775 0.48963 0.9018 0.0
O109 O 0.51308 0.51165 0.94173 0.0
O110 O 0.4975 0.53725 0.00204 0.0
O111 O 0.54164 0.5569 0.99334 0.0
H112 H 0.61801 0.52653 0.07679 0.0
H113 H 0.65271 0.51839 0.07579 0.0
H114 H 0.63326 0.49151 0.90239 0.0
H115 H 0.59934 0.50121 0.90385 0.0
H116 H 0.40568 0.4898 0.92341 0.0
H117 H 0.37091 0.49915 0.92815 0.0
H118 H 0.39305 0.52633 0.09948 0.0
H119 H 0.4277 0.51696 0.09529 0.0
C120 C 0.98902 0.49248 0.80416 0.0
C121 C 1.01072 0.50822 0.83937 0.0
C122 C 0.98836 0.49684 0.74831 0.0
C123 C 0.98407 0.50233 0.52747 0.0
C124 C 0.03403 0.52772 0.19596 0.0
C125 C 0.01328 0.51099 0.15928 0.0
C126 C 0.03178 0.52738 0.25314 0.0
C127 C 0.02516 0.5385 0.47318 0.0
H128 H 0.97271 0.47642 0.81968 0.0
H129 H 0.97159 0.48408 0.72179 0.0
H130 H 0.96815 0.48801 0.54789 0.0
H131 H 0.05151 0.54219 0.18027 0.0
H132 H 0.04762 0.54134 0.28044 0.0
H133 H 0.04134 0.55245 0.45271 0.0
C134 C 0.0315 0.529 0.81815 0.0
C135 C 0.03089 0.53329 0.7619 0.0
C136 C 0.02601 0.53979 0.53115 0.0
C137 C 0.99087 0.49247 0.18085 0.0
C138 C 0.98861 0.49211 0.23838 0.0
C139 C 0.98322 0.50105 0.46952 0.0
C140 C 1.00941 0.51698 0.72657 0.0
C141 C 1.00909 0.51995 0.66772 0.0
C142 C 1.00755 0.52133 0.61826 0.0
C143 C 1.00568 0.52143 0.55859 0.0
H144 H 0.04849 0.5413 0.84442 0.0
H145 H 0.04737 0.54894 0.74578 0.0
H146 H 0.0428 0.55472 0.55449 0.0
H147 H 0.97458 0.47949 0.1534 0.0
H148 H 0.97076 0.47853 0.25436 0.0
H149 H 0.96667 0.48578 0.44616 0.0
C150 C 1.00875 0.51028 0.2746 0.0
C151 C 1.00563 0.51258 0.33325 0.0
C152 C 1.00437 0.51558 0.38258 0.0
C153 C 1.00399 0.51877 0.4421 0.0
C154 C 0.51343 0.98902 0.18254 0.0
C155 C 0.51664 0.0111 0.15993 0.0
C156 C 0.51805 0.98911 0.2397 0.0
C157 C 0.52806 0.99225 0.47193 0.0
C158 C 0.52017 0.03067 0.81799 0.0
C159 C 0.51296 1.00739 0.84024 0.0
C160 C 0.52253 0.03274 0.76075 0.0
C161 C 0.53788 0.03695 0.5329 0.0
H162 H 0.50644 0.97153 0.15648 0.0
H163 H 0.51473 0.97172 0.25673 0.0
H164 H 0.52394 0.97474 0.44881 0.0
H165 H 0.52581 0.0476 0.84511 0.0
H166 H 0.52937 0.05113 0.74461 0.0
H167 H 0.54142 0.05429 0.55593 0.0
C168 C 0.52546 0.03343 0.19485 0.0
C169 C 0.53014 0.03354 0.25168 0.0
C170 C 0.53847 0.03623 0.4751 0.0
C171 C 0.50616 0.98583 0.80401 0.0
C172 C 0.5086 0.98791 0.74707 0.0
C173 C 0.52745 0.99296 0.52974 0.0
C174 C 0.52602 0.0113 0.27467 0.0
C175 C 0.52879 0.01121 0.33424 0.0
C176 C 0.5314 0.0123 0.38421 0.0
C177 C 0.5331 0.01374 0.4442 0.0
H178 H 0.52804 0.05066 0.1783 0.0
H179 H 0.53632 0.05085 0.2779 0.0
H180 H 0.54248 0.05305 0.45449 0.0
H181 H 0.50078 0.96771 0.82022 0.0
H182 H 0.50461 0.9713 0.7204 0.0
H183 H 0.52285 0.97597 0.55027 0.0
C184 C 0.51778 0.01156 0.72538 0.0
C185 C 0.5236 0.01409 0.66769 0.0
C186 C 0.52808 0.015 0.61922 0.0
C187 C 0.53178 0.01515 0.56042 0.0
C188 C 0.49377 0.48613 0.79705 0.0
C189 C 0.51079 0.50484 0.83772 0.0
C190 C 0.49485 0.4908 0.74144 0.0
C191 C 0.48413 0.50073 0.52957 0.0
C192 C 0.53014 0.53468 0.19945 0.0
C193 C 0.51356 0.51476 0.16042 0.0
C194 C 0.52568 0.5339 0.25542 0.0
C195 C 0.52291 0.53828 0.47271 0.0
H196 H 0.47805 0.46845 0.80878 0.0
H197 H 0.48026 0.47663 0.71195 0.0
H198 H 0.46914 0.48586 0.55098 0.0
H199 H 0.54741 0.55072 0.18696 0.0
H200 H 0.53941 0.54925 0.28426 0.0
H201 H 0.53821 0.55281 0.45127 0.0
C202 C 0.53095 0.52749 0.82047 0.0
C203 C 0.53238 0.53196 0.76376 0.0
C204 C 0.52476 0.53971 0.53065 0.0
C205 C 0.49147 0.49422 0.17889 0.0
C206 C 0.48684 0.49356 0.2358 0.0
C207 C 0.48225 0.49932 0.47164 0.0
C208 C 0.5136 0.51398 0.72453 0.0
C209 C 0.51245 0.51895 0.66718 0.0
C210 C 0.50923 0.52055 0.61845 0.0
C211 C 0.50567 0.52068 0.55929 0.0
H212 H 0.54427 0.54235 0.85062 0.0
H213 H 0.54731 0.54986 0.75096 0.0
H214 H 0.54146 0.55526 0.55301 0.0
H215 H 0.47859 0.47831 0.15026 0.0
H216 H 0.47016 0.4774 0.24995 0.0
H217 H 0.46583 0.48346 0.44923 0.0
C218 C 0.50423 0.51333 0.27423 0.0
C219 C 0.50106 0.51293 0.3332 0.0
C220 C 0.50084 0.51504 0.38308 0.0
C221 C 0.50184 0.5178 0.4429 0.0
C222 C 0.10069 0.52499 0.03438 0.0
C223 C 0.07894 0.50158 0.01521 0.0
C224 C 0.12445 0.52716 0.03933 0.0
C225 C 0.21561 0.52938 0.07325 0.0
C226 C 0.33104 0.49091 0.00532 0.0
C227 C 0.35446 0.51308 0.0207 0.0
C228 C 0.30796 0.49015 0.01354 0.0
C229 C 0.21686 0.48538 0.03875 0.0
H230 H 0.09946 0.54176 0.04624 0.0
H231 H 0.14079 0.54514 0.055 0.0
H232 H 0.21531 0.54657 0.0859 0.0
H233 H 0.33056 0.47389 0.98803 0.0
H234 H 0.29022 0.47273 0.00194 0.0
H235 H 0.21715 0.46836 0.02454 0.0
C236 C 0.08165 0.4807 -0.00051 0.0
C237 C 0.10563 0.48295 0.00457 0.0
C238 C 0.19376 0.4851 0.0374 0.0
C239 C 0.35415 0.53461 0.04426 0.0
C240 C 0.33097 0.53391 0.0518 0.0
C241 C 0.23872 0.52966 0.07464 0.0
C242 C 0.12679 0.50596 0.0257 0.0
C243 C 0.15054 0.5073 0.03689 0.0
C244 C 0.17019 0.50771 0.04572 0.0
C245 C 0.19328 0.50726 0.05344 0.0
H246 H 0.06542 0.46288 0.98305 0.0
H247 H 0.10761 0.46662 0.99304 0.0
H248 H 0.17645 0.46789 0.0222 0.0
H249 H 0.37179 0.55196 0.05658 0.0
H250 H 0.33112 0.55072 0.06959 0.0
H251 H 0.25604 0.54711 0.08838 0.0
C252 C 0.30782 0.51159 0.03688 0.0
C253 C 0.2839 0.51052 0.04529 0.0
C254 C 0.26362 0.50906 0.05181 0.0
C255 C 0.23948 0.50784 0.05629 0.0
C256 C 0.5869 0.0922 0.97439 0.0
C257 C 0.58673 0.07513 0.01164 0.0
C258 C 0.60502 0.11793 0.98109 0.0
C259 C 0.68671 0.2166 0.99657 0.0
C260 C 0.84402 0.33639 0.05858 0.0
C261 C 0.84861 0.3519 0.01423 0.0
C262 C 0.81997 0.31494 0.06353 0.0
C263 C 0.72521 0.22925 0.07889 0.0
H264 H 0.5722 0.08573 0.94117 0.0
H265 H 0.6046 0.13062 0.95203 0.0
H266 H 0.6721 0.21169 0.96399 0.0
H267 H 0.85918 0.34066 0.0892 0.0
H268 H 0.81711 0.30332 0.09784 0.0
H269 H 0.74004 0.23373 0.11058 0.0
C270 C 0.60474 0.08447 0.05662 0.0
C271 C 0.62317 0.11038 0.063 0.0
C272 C 0.70214 0.20631 0.07869 0.0
C273 C 0.82831 0.34508 0.97482 0.0
C274 C 0.80416 0.32376 0.9802 0.0
C275 C 0.70978 0.23956 0.99677 0.0
C276 C 0.62345 0.12705 0.02498 0.0
C277 C 0.64352 0.15316 0.02903 0.0
C278 C 0.66059 0.17493 0.03352 0.0
C279 C 0.68299 0.19977 0.0371 0.0
H280 H 0.60385 0.0721 0.0879 0.0
H281 H 0.6371 0.11746 0.09781 0.0
H282 H 0.69954 0.19337 0.11006 0.0
H283 H 0.83098 0.35647 0.94025 0.0
H284 H 0.78884 0.31913 0.94964 0.0
H285 H 0.7126 0.25211 0.96441 0.0
C286 C 0.79984 0.30862 0.02466 0.0
C287 C 0.77489 0.28665 0.0302 0.0
C288 C 0.754 0.26836 0.03446 0.0
C289 C 0.72932 0.24581 0.03737 0.0
C290 C 0.49181 0.82648 0.05098 0.0
C291 C 0.50645 0.84409 0.01263 0.0
C292 C 0.48865 0.80189 0.04856 0.0
C293 C 0.47832 0.7049 0.02657 0.0
C294 C 0.52775 0.59711 0.95655 0.0
C295 C 0.51897 0.58096 -0.00044 0.0
C296 C 0.52071 0.61563 0.95166 0.0
C297 C 0.50335 0.6945 0.94278 0.0
H298 H 0.48214 0.83127 0.08203 0.0
H299 H 0.47704 0.78868 0.07789 0.0
H300 H 0.46888 0.70885 0.05966 0.0
H301 H 0.53891 0.59461 0.9254 0.0
H302 H 0.52743 0.62791 0.91803 0.0
H303 H 0.51348 0.69083 0.91078 0.0
C304 C 0.51881 0.83635 0.97408 0.0
C305 C 0.51531 0.81177 0.97128 0.0
C306 C 0.50317 0.71742 0.94579 0.0
C307 C 0.50289 0.58346 0.03714 0.0
C308 C 0.49586 0.60181 0.03213 0.0
C309 C 0.47853 0.68201 0.02358 0.0
C310 C 0.4999 0.79427 0.00772 0.0
C311 C 0.49567 0.76861 0.00219 0.0
C312 C 0.49296 0.74755 0.99519 0.0
C313 C 0.49102 0.7229 0.98835 0.0
H314 H 0.53137 0.84922 0.94557 0.0
H315 H 0.52459 0.8064 0.94015 0.0
H316 H 0.51309 0.73112 0.9159 0.0
H317 H 0.49494 0.57045 0.0693 0.0
H318 H 0.48332 0.60319 0.0613 0.0
H319 H 0.46933 0.66865 0.05452 0.0
C320 C 0.50485 0.61804 0.98953 0.0
C321 C 0.49892 0.63801 0.9864 0.0
C322 C 0.49416 0.65487 0.98307 0.0
C323 C 0.49135 0.67693 0.98218 0.0
C324 C 0.93931 0.52138 0.0393 0.0
C325 C 0.94902 0.51879 0.98931 0.0
C326 C 0.91562 0.51959 0.0391 0.0
C327 C 0.83104 0.52895 0.03172 0.0
C328 C 0.68221 0.50318 0.93288 0.0
C329 C 0.67252 0.50508 0.9845 0.0
C330 C 0.70657 0.50618 0.92982 0.0
C331 C 0.80453 0.52055 0.92941 0.0
H332 H 0.95003 0.52471 0.0783 0.0
H333 H 0.90859 0.52256 0.07775 0.0
H334 H 0.84106 0.53187 0.07148 0.0
H335 H 0.67169 0.50027 0.89409 0.0
H336 H 0.71356 0.50506 0.88971 0.0
H337 H 0.79423 0.51688 0.88972 0.0
C338 C 0.93395 0.51173 0.9397 0.0
C339 C 0.91029 0.51008 0.93941 0.0
C340 C 0.8275 0.52066 0.93188 0.0
C341 C 0.6881 0.50876 0.03263 0.0
C342 C 0.71255 0.51224 0.02925 0.0
C343 C 0.80803 0.52884 0.02927 0.0
C344 C 0.9017 0.51507 0.98888 0.0
C345 C 0.88018 0.51838 0.98744 0.0
C346 C 0.86205 0.52114 0.98602 0.0
C347 C 0.84033 0.52417 0.98314 0.0
H348 H 0.94054 0.50764 0.90149 0.0
H349 H 0.89912 0.50573 0.90063 0.0
H350 H 0.83476 0.51711 0.89412 0.0
H351 H 0.68199 0.50937 0.07366 0.0
H352 H 0.72422 0.51588 0.06697 0.0
H353 H 0.80045 0.53162 0.06727 0.0
C354 C 0.72203 0.51143 0.97797 0.0
C355 C 0.74771 0.51634 0.97541 0.0
C356 C 0.76931 0.5206 0.97612 0.0
C357 C 0.79445 0.52403 0.97818 0.0
C358 C 0.1797 0.68437 0.94947 0.0
C359 C 0.17607 0.6676 0.99066 0.0
C360 C 0.20136 0.70874 0.95235 0.0
C361 C 0.28491 0.8059 0.97236 0.0
C362 C 0.43801 0.92785 0.03227 0.0
C363 C 0.43937 0.94412 0.99186 0.0
C364 C 0.41614 0.90451 0.03524 0.0
C365 C 0.32293 0.81843 0.05581 0.0
H366 H 0.1652 0.67914 0.9165 0.0
H367 H 0.20325 0.72165 0.9214 0.0
H368 H 0.2705 0.8011 0.9394 0.0
H369 H 0.45382 0.93341 0.0622 0.0
H370 H 0.41509 0.89263 0.06787 0.0
H371 H 0.33772 0.823 0.08777 0.0
C372 C 0.19553 0.67538 0.03274 0.0
C373 C 0.21726 0.69965 0.03526 0.0
C374 C 0.3 0.79543 0.0549 0.0
C375 C 0.41936 0.93595 0.9517 0.0
C376 C 0.39741 0.91233 0.95448 0.0
C377 C 0.30783 0.82889 0.9733 0.0
C378 C 0.21989 0.71666 0.99602 0.0
C379 C 0.24112 0.74239 0.00175 0.0
C380 C 0.25899 0.76381 0.00727 0.0
C381 C 0.28118 0.78883 0.01237 0.0
H382 H 0.19365 0.66288 0.06454 0.0
H383 H 0.23165 0.70538 0.06879 0.0
H384 H 0.29732 0.78246 0.08621 0.0
H385 H 0.4208 0.94758 0.9183 0.0
H386 H 0.38167 0.90621 0.92409 0.0
H387 H 0.31089 0.84159 0.9411 0.0
C388 C 0.39553 0.89714 0.99746 0.0
C389 C 0.37178 0.87512 0.00551 0.0
C390 C 0.35151 0.85676 0.01086 0.0
C391 C 0.32705 0.8348 0.01416 0.0
C392 C 0.52307 0.43372 0.96225 0.0
C393 C 0.50683 0.43601 -0.00031 0.0
C394 C 0.53023 0.41545 0.96717 0.0
C395 C 0.54764 0.33521 0.9757 0.0
C396 C 0.50696 0.18096 0.02467 0.0
C397 C 0.51926 0.17313 0.98617 0.0
C398 C 0.51071 0.20562 0.02766 0.0
C399 C 0.5229 0.29977 0.05339 0.0
H400 H 0.53105 0.44681 0.93026 0.0
H401 H 0.54286 0.41419 0.93807 0.0
H402 H 0.55687 0.34858 0.9448 0.0
H403 H 0.49425 0.16809 0.05298 0.0
H404 H 0.50146 0.21106 0.05873 0.0
H405 H 0.51293 0.28605 0.08321 0.0
C406 C 0.49811 0.41981 0.04262 0.0
C407 C 0.50528 0.40138 0.04743 0.0
C408 C 0.52268 0.32267 0.05632 0.0
C409 C 0.53418 0.19077 0.94814 0.0
C410 C 0.53757 0.21545 0.9507 0.0
C411 C 0.54788 0.31235 0.9728 0.0
C412 C 0.52122 0.39912 0.0096 0.0
C413 C 0.52721 0.37918 0.01261 0.0
C414 C 0.53195 0.36232 0.01601 0.0
C415 C 0.53474 0.34026 0.01698 0.0
H416 H 0.48689 0.4222 0.07376 0.0
H417 H 0.49857 0.38905 0.08096 0.0
H418 H 0.51249 0.32631 0.08822 0.0
H419 H 0.54387 0.18592 0.91726 0.0
H420 H 0.54934 0.22867 0.92158 0.0
H421 H 0.55738 0.30841 0.9398 0.0
C422 C 0.5263 0.2231 0.99142 0.0
C423 C 0.5306 0.24875 0.99696 0.0
C424 C 0.53327 0.26977 0.00414 0.0
C425 C 0.53514 0.29435 0.01097 0.0
loop_
_geom_bond_atom_site_label_1
_geom_bond_atom_site_label_2
_geom_bond_distance
_geom_bond_site_symmetry_2
_ccdc_geom_bond_type
C0 Eu1 2.835 . S
C0 C2 1.500 1_554 S
C0 O20 1.257 1_554 S
C0 O21 1.260 . S
Eu1 C0 2.835 . S
Eu1 O20 2.473 1_554 S
Eu1 O21 2.480 . S
Eu1 O22 2.430 . S
Eu1 O23 2.670 1_455 S
Eu1 O24 2.394 . S
Eu1 O29 2.355 1_554 S
Eu1 O31 2.374 1_455 S
C2 C0 1.500 1_556 S
C2 C3 1.374 1_556 S
C2 C7 1.381 . S
C3 C2 1.374 1_554 S
C3 C4 1.395 . S
C3 H32 0.931 . S
C4 C3 1.395 . S
C4 C5 1.383 1_554 S
C4 H33 0.931 . S
C5 C4 1.383 1_556 S
C5 C6 1.394 . S
C6 C5 1.394 . S
C6 C7 1.378 . S
C6 H34 0.931 . S
C7 C2 1.381 . S
C7 C6 1.378 . S
C7 H35 0.931 . S
C8 O22 1.259 . S
C8 O23 1.270 1_455 S
C9 O24 1.251 . S
C9 O25 1.251 1_554 S
C10 Eu11 2.835 . S
C10 C12 1.499 1_556 S
C10 O26 1.257 1_556 S
C10 O27 1.260 . S
Eu11 C10 2.835 . S
Eu11 O23 2.355 1_556 S
Eu11 O25 2.374 1_655 S
Eu11 O26 2.473 1_556 S
Eu11 O27 2.480 . S
Eu11 O28 2.430 . S
Eu11 O29 2.670 1_655 S
Eu11 O30 2.394 . S
C12 C10 1.499 1_554 S
C12 C13 1.371 1_554 S
C12 C17 1.385 . S
C13 C12 1.371 1_556 S
C13 C14 1.395 . S
C13 H36 0.931 . S
C14 C13 1.395 . S
C14 C15 1.383 1_556 S
C14 H37 0.931 . S
C15 C14 1.383 1_554 S
C15 C16 1.394 . S
C16 C15 1.394 . S
C16 C17 1.378 . S
C16 H38 0.931 . S
C17 C12 1.385 . S
C17 C16 1.378 . S
C17 H39 0.931 . S
C18 O28 1.259 . S
C18 O29 1.270 1_655 S
C19 O30 1.251 . S
C19 O31 1.250 1_556 S
O20 C0 1.257 1_556 S
O20 Eu1 2.473 1_556 S
O21 C0 1.260 . S
O21 Eu1 2.480 . S
O22 Eu1 2.430 . S
O22 C8 1.259 . S
O23 Eu1 2.670 1_655 S
O23 C8 1.270 1_655 S
O23 Eu11 2.355 1_554 S
O24 Eu1 2.394 . S
O24 C9 1.251 . S
O25 C9 1.251 1_556 S
O25 Eu11 2.374 1_455 S
O26 C10 1.257 1_554 S
O26 Eu11 2.473 1_554 S
O27 C10 1.260 . S
O27 Eu11 2.480 . S
O28 Eu11 2.430 . S
O28 C18 1.259 . S
O29 Eu1 2.355 1_556 S
O29 Eu11 2.670 1_455 S
O29 C18 1.270 1_455 S
O30 Eu11 2.394 . S
O30 C19 1.251 . S
O31 Eu1 2.374 1_655 S
O31 C19 1.250 1_554 S
H32 C3 0.931 . S
H33 C4 0.931 . S
H34 C6 0.931 . S
H35 C7 0.931 . S
H36 C13 0.931 . S
H37 C14 0.931 . S
H38 C16 0.931 . S
H39 C17 0.931 . S
C40 Eu41 2.834 1_556 S
C40 C42 1.501 . S
C40 O60 1.262 . S
C40 O61 1.254 1_556 S
Eu41 C40 2.834 1_554 S
Eu41 O60 2.473 1_554 S
Eu41 O61 2.480 . S
Eu41 O62 2.430 . S
Eu41 O63 2.670 1_545 S
Eu41 O64 2.394 . S
Eu41 O69 2.355 1_554 S
Eu41 O71 2.374 1_544 S
C42 C40 1.501 . S
C42 C43 1.377 1_556 S
C42 C47 1.377 . S
C43 C42 1.377 1_554 S
C43 C44 1.395 . S
C43 H72 0.931 . S
C44 C43 1.395 . S
C44 C45 1.383 1_554 S
C44 H73 0.931 . S
C45 C44 1.383 1_556 S
C45 C46 1.394 . S
C46 C45 1.394 . S
C46 C47 1.378 . S
C46 H74 0.931 . S
C47 C42 1.377 . S
C47 C46 1.378 . S
C47 H75 0.931 . S
C48 O62 1.259 . S
C48 O63 1.270 1_545 S
C49 O64 1.251 . S
C49 O65 1.251 . S
C50 Eu51 2.833 1_554 S
C50 C52 1.502 . S
C50 O66 1.266 . S
C50 O67 1.250 1_554 S
Eu51 C50 2.833 1_556 S
Eu51 O63 2.355 1_556 S
Eu51 O65 2.374 1_566 S
Eu51 O66 2.473 1_556 S
Eu51 O67 2.480 . S
Eu51 O68 2.430 . S
Eu51 O69 2.670 1_565 S
Eu51 O70 2.394 . S
C52 C50 1.502 . S
C52 C53 1.377 1_554 S
C52 C57 1.377 . S
C53 C52 1.377 1_556 S
C53 C54 1.395 . S
C53 H76 0.931 . S
C54 C53 1.395 . S
C54 C55 1.383 1_556 S
C54 H77 0.931 . S
C55 C54 1.383 1_554 S
C55 C56 1.394 . S
C56 C55 1.394 . S
C56 C57 1.378 . S
C56 H78 0.931 . S
C57 C52 1.377 . S
C57 C56 1.378 . S
C57 H79 0.931 . S
C58 O68 1.259 . S
C58 O69 1.270 1_565 S
C59 O70 1.251 . S
C59 O71 1.251 . S
O60 C40 1.262 . S
O60 Eu41 2.473 1_556 S
O61 C40 1.254 1_554 S
O61 Eu41 2.480 . S
O62 Eu41 2.430 . S
O62 C48 1.259 . S
O63 Eu41 2.670 1_565 S
O63 C48 1.270 1_565 S
O63 Eu51 2.355 1_554 S
O64 Eu41 2.394 . S
O64 C49 1.251 . S
O65 C49 1.251 . S
O65 Eu51 2.374 1_544 S
O66 C50 1.266 . S
O66 Eu51 2.473 1_554 S
O67 C50 1.250 1_556 S
O67 Eu51 2.480 . S
O68 Eu51 2.430 . S
O68 C58 1.259 . S
O69 Eu41 2.355 1_556 S
O69 Eu51 2.670 1_545 S
O69 C58 1.270 1_545 S
O70 Eu51 2.394 . S
O70 C59 1.251 . S
O71 Eu41 2.374 1_566 S
O71 C59 1.251 . S
H72 C43 0.931 . S
H73 C44 0.931 . S
H74 C46 0.931 . S
H75 C47 0.931 . S
H76 C53 0.931 . S
H77 C54 0.931 . S
H78 C56 0.931 . S
H79 C57 0.931 . S
C80 Eu81 2.835 . S
C80 C82 1.500 1_554 S
C80 O100 1.257 1_554 S
C80 O101 1.260 . S
Eu81 C80 2.835 . S
Eu81 O100 2.473 1_554 S
Eu81 O101 2.480 . S
Eu81 O102 2.430 . S
Eu81 O103 2.670 . S
Eu81 O104 2.394 . S
Eu81 O109 2.355 1_554 S
Eu81 O111 2.374 . S
C82 C80 1.500 1_556 S
C82 C83 1.377 1_556 S
C82 C87 1.377 . S
C83 C82 1.377 1_554 S
C83 C84 1.395 . S
C83 H112 0.931 . S
C84 C83 1.395 . S
C84 C85 1.383 1_554 S
C84 H113 0.931 . S
C85 C84 1.383 1_556 S
C85 C86 1.394 . S
C86 C85 1.394 . S
C86 C87 1.378 . S
C86 H114 0.931 . S
C87 C82 1.377 . S
C87 C86 1.378 . S
C87 H115 0.931 . S
C88 O102 1.259 . S
C88 O103 1.270 . S
C89 O104 1.251 . S
C89 O105 1.251 1_554 S
C90 Eu91 2.835 . S
C90 C92 1.500 1_556 S
C90 O106 1.257 1_556 S
C90 O107 1.260 . S
Eu91 C90 2.835 . S
Eu91 O103 2.355 1_556 S
Eu91 O105 2.374 . S
Eu91 O106 2.473 1_556 S
Eu91 O107 2.480 . S
Eu91 O108 2.430 . S
Eu91 O109 2.670 . S
Eu91 O110 2.394 . S
C92 C90 1.500 1_554 S
C92 C93 1.377 1_554 S
C92 C97 1.377 . S
C93 C92 1.377 1_556 S
C93 C94 1.395 . S
C93 H116 0.931 . S
C94 C93 1.395 . S
C94 C95 1.383 1_556 S
C94 H117 0.931 . S
C95 C94 1.383 1_554 S
C95 C96 1.394 . S
C96 C95 1.394 . S
C96 C97 1.378 . S
C96 H118 0.931 . S
C97 C92 1.377 . S
C97 C96 1.378 . S
C97 H119 0.931 . S
C98 O108 1.259 . S
C98 O109 1.270 . S
C99 O110 1.251 . S
C99 O111 1.251 1_556 S
O100 C80 1.257 1_556 S
O100 Eu81 2.473 1_556 S
O101 C80 1.260 . S
O101 Eu81 2.480 . S
O102 Eu81 2.430 . S
O102 C88 1.259 . S
O103 Eu81 2.670 . S
O103 C88 1.270 . S
O103 Eu91 2.355 1_554 S
O104 Eu81 2.394 . S
O104 C89 1.251 . S
O105 C89 1.251 1_556 S
O105 Eu91 2.374 . S
O106 C90 1.257 1_554 S
O106 Eu91 2.473 1_554 S
O107 C90 1.260 . S
O107 Eu91 2.480 . S
O108 Eu91 2.430 . S
O108 C98 1.259 . S
O109 Eu81 2.355 1_556 S
O109 Eu91 2.670 . S
O109 C98 1.270 . S
O110 Eu91 2.394 . S
O110 C99 1.251 . S
O111 Eu81 2.374 . S
O111 C99 1.251 1_554 S
H112 C83 0.931 . S
H113 C84 0.931 . S
H114 C86 0.931 . S
H115 C87 0.931 . S
H116 C93 0.931 . S
H117 C94 0.931 . S
H118 C96 0.931 . S
H119 C97 0.931 . S
C120 C121 1.422 1_655 S
C120 C122 1.385 . S
C120 H128 0.928 . S
C121 C120 1.422 1_455 S
C121 C134 1.418 . S
C122 C120 1.385 . S
C122 H129 0.929 . S
C122 C140 1.407 . S
C123 H130 0.928 . S
C123 C139 1.374 . S
C123 C143 1.388 . S
C124 C125 1.418 . S
C124 C126 1.385 . S
C124 H131 0.928 . S
C125 C124 1.418 . S
C125 C137 1.422 1_455 S
C126 C124 1.385 . S
C126 H132 0.929 . S
C126 C150 1.407 1_455 S
C127 H133 0.928 . S
C127 C136 1.374 . S
C127 C153 1.388 1_455 S
H128 C120 0.928 . S
H129 C122 0.929 . S
H130 C123 0.928 . S
H131 C124 0.928 . S
H132 C126 0.929 . S
H133 C127 0.928 . S
C134 C121 1.418 . S
C134 C135 1.385 . S
C134 H144 0.928 . S
C135 C134 1.385 . S
C135 C140 1.407 1_455 S
C135 H145 0.929 . S
C136 C127 1.374 . S
C136 C143 1.388 1_455 S
C136 H146 0.928 . S
C137 C125 1.422 1_655 S
C137 C138 1.385 . S
C137 H147 0.928 . S
C138 C137 1.385 . S
C138 H148 0.929 . S
C138 C150 1.407 . S
C139 C123 1.374 . S
C139 H149 0.928 . S
C139 C153 1.388 . S
C140 C122 1.407 . S
C140 C135 1.407 1_655 S
C140 C141 1.428 . S
C141 C140 1.428 . S
C141 C142 1.230 . S
C142 C141 1.230 . S
C142 C143 1.405 . S
C143 C123 1.388 . S
C143 C136 1.388 1_655 S
C143 C142 1.405 . S
H144 C134 0.928 . S
H145 C135 0.929 . S
H146 C136 0.928 . S
H147 C137 0.928 . S
H148 C138 0.929 . S
H149 C139 0.928 . S
C150 C126 1.407 1_655 S
C150 C138 1.407 . S
C150 C151 1.428 . S
C151 C150 1.428 . S
C151 C152 1.230 . S
C152 C151 1.230 . S
C152 C153 1.405 . S
C153 C127 1.388 1_655 S
C153 C139 1.388 . S
C153 C152 1.405 . S
C154 C155 1.420 1_565 S
C154 C156 1.385 . S
C154 H162 0.928 . S
C155 C154 1.420 1_545 S
C155 C168 1.420 . S
C156 C154 1.385 . S
C156 H163 0.929 . S
C156 C174 1.407 1_565 S
C157 H164 0.928 . S
C157 C173 1.374 . S
C157 C177 1.388 1_565 S
C158 C159 1.449 . S
C158 C160 1.385 . S
C158 H165 0.928 . S
C159 C158 1.449 . S
C159 C171 1.391 1_545 S
C160 C158 1.385 . S
C160 H166 0.929 . S
C160 C184 1.407 . S
C161 H167 0.928 . S
C161 C170 1.374 . S
C161 C187 1.388 . S
H162 C154 0.928 . S
H163 C156 0.929 . S
H164 C157 0.928 . S
H165 C158 0.928 . S
H166 C160 0.929 . S
H167 C161 0.928 . S
C168 C155 1.420 . S
C168 C169 1.385 . S
C168 H178 0.928 . S
C169 C168 1.385 . S
C169 C174 1.407 . S
C169 H179 0.929 . S
C170 C161 1.374 . S
C170 C177 1.388 . S
C170 H180 0.928 . S
C171 C159 1.391 1_565 S
C171 C172 1.385 . S
C171 H181 0.928 . S
C172 C171 1.385 . S
C172 H182 0.929 . S
C172 C184 1.407 1_565 S
C173 C157 1.374 . S
C173 H183 0.928 . S
C173 C187 1.388 1_565 S
C174 C156 1.407 1_545 S
C174 C169 1.407 . S
C174 C175 1.428 . S
C175 C174 1.428 . S
C175 C176 1.230 . S
C176 C175 1.230 . S
C176 C177 1.405 . S
C177 C157 1.388 1_545 S
C177 C170 1.388 . S
C177 C176 1.405 . S
H178 C168 0.928 . S
H179 C169 0.929 . S
H180 C170 0.928 . S
H181 C171 0.928 . S
H182 C172 0.929 . S
H183 C173 0.928 . S
C184 C160 1.407 . S
C184 C172 1.407 1_545 S
C184 C185 1.428 . S
C185 C184 1.428 . S
C185 C186 1.230 . S
C186 C185 1.230 . S
C186 C187 1.405 . S
C187 C161 1.388 . S
C187 C173 1.388 1_545 S
C187 C186 1.405 . S
C188 C189 1.420 . S
C188 C190 1.385 . S
C188 H196 0.928 . S
C189 C188 1.420 . S
C189 C202 1.420 . S
C190 C188 1.385 . S
C190 H197 0.929 . S
C190 C208 1.407 . S
C191 H198 0.928 . S
C191 C207 1.374 . S
C191 C211 1.388 . S
C192 C193 1.420 . S
C192 C194 1.385 . S
C192 H199 0.928 . S
C193 C192 1.420 . S
C193 C205 1.420 . S
C194 C192 1.385 . S
C194 H200 0.929 . S
C194 C218 1.407 . S
C195 H201 0.928 . S
C195 C204 1.374 . S
C195 C221 1.388 . S
H196 C188 0.928 . S
H197 C190 0.929 . S
H198 C191 0.928 . S
H199 C192 0.928 . S
H200 C194 0.929 . S
H201 C195 0.928 . S
C202 C189 1.420 . S
C202 C203 1.385 . S
C202 H212 0.928 . S
C203 C202 1.385 . S
C203 C208 1.407 . S
C203 H213 0.929 . S
C204 C195 1.374 . S
C204 C211 1.388 . S
C204 H214 0.928 . S
C205 C193 1.420 . S
C205 C206 1.385 . S
C205 H215 0.928 . S
C206 C205 1.385 . S
C206 H216 0.929 . S
C206 C218 1.407 . S
C207 C191 1.374 . S
C207 H217 0.928 . S
C207 C221 1.388 . S
C208 C190 1.407 . S
C208 C203 1.407 . S
C208 C209 1.428 . S
C209 C208 1.428 . S
C209 C210 1.230 . S
C210 C209 1.230 . S
C210 C211 1.405 . S
C211 C191 1.388 . S
C211 C204 1.388 . S
C211 C210 1.405 . S
H212 C202 0.928 . S
H213 C203 0.929 . S
H214 C204 0.928 . S
H215 C205 0.928 . S
H216 C206 0.929 . S
H217 C207 0.928 . S
C218 C194 1.407 . S
C218 C206 1.407 . S
C218 C219 1.428 . S
C219 C218 1.428 . S
C219 C220 1.230 . S
C220 C219 1.230 . S
C220 C221 1.405 . S
C221 C195 1.388 . S
C221 C207 1.388 . S
C221 C220 1.405 . S
C222 C223 1.420 . S
C222 C224 1.385 . S
C222 H230 0.928 . S
C223 C222 1.420 . S
C223 C236 1.420 1_554 S
C224 C222 1.385 . S
C224 H231 0.929 . S
C224 C242 1.407 . S
C225 H232 0.928 . S
C225 C241 1.374 . S
C225 C245 1.388 . S
C226 C227 1.420 . S
C226 C228 1.385 . S
C226 H233 0.928 1_554 S
C227 C226 1.420 . S
C227 C239 1.420 . S
C228 C226 1.385 . S
C228 H234 0.929 . S
C228 C252 1.407 . S
C229 H235 0.928 . S
C229 C238 1.374 . S
C229 C255 1.388 . S
H230 C222 0.928 . S
H231 C224 0.929 . S
H232 C225 0.928 . S
H233 C226 0.928 1_556 S
H234 C228 0.929 . S
H235 C229 0.928 . S
C236 C223 1.420 1_556 S
C236 C237 1.385 1_556 S
C236 H246 0.928 . S
C237 C236 1.385 1_554 S
C237 C242 1.407 . S
C237 H247 0.929 1_554 S
C238 C229 1.374 . S
C238 C245 1.388 . S
C238 H248 0.928 . S
C239 C227 1.420 . S
C239 C240 1.385 . S
C239 H249 0.928 . S
C240 C239 1.385 . S
C240 H250 0.929 . S
C240 C252 1.407 . S
C241 C225 1.374 . S
C241 H251 0.928 . S
C241 C255 1.388 . S
C242 C224 1.407 . S
C242 C237 1.407 . S
C242 C243 1.428 . S
C243 C242 1.428 . S
C243 C244 1.230 . S
C244 C243 1.230 . S
C244 C245 1.405 . S
C245 C225 1.388 . S
C245 C238 1.388 . S
C245 C244 1.405 . S
H246 C236 0.928 . S
H247 C237 0.929 1_556 S
H248 C238 0.928 . S
H249 C239 0.928 . S
H250 C240 0.929 . S
H251 C241 0.928 . S
C252 C228 1.407 . S
C252 C240 1.407 . S
C252 C253 1.428 . S
C253 C252 1.428 . S
C253 C254 1.230 . S
C254 C253 1.230 . S
C254 C255 1.405 . S
C255 C229 1.388 . S
C255 C241 1.388 . S
C255 C254 1.405 . S
C256 C257 1.420 1_556 S
C256 C258 1.385 . S
C256 H264 0.928 . S
C257 C256 1.420 1_554 S
C257 C270 1.420 . S
C258 C256 1.385 . S
C258 H265 0.929 . S
C258 C276 1.407 1_556 S
C259 H266 0.928 . S
C259 C275 1.372 . S
C259 C279 1.388 1_556 S
C260 C261 1.420 . S
C260 C262 1.385 . S
C260 H267 0.928 . S
C261 C260 1.420 . S
C261 C273 1.420 1_554 S
C262 C260 1.385 . S
C262 H268 0.929 . S
C262 C286 1.407 . S
C263 H269 0.928 . S
C263 C272 1.374 . S
C263 C289 1.388 . S
H264 C256 0.928 . S
H265 C258 0.929 . S
H266 C259 0.928 . S
H267 C260 0.928 . S
H268 C262 0.929 . S
H269 C263 0.928 . S
C270 C257 1.420 . S
C270 C271 1.385 . S
C270 H280 0.928 . S
C271 C270 1.385 . S
C271 C276 1.407 . S
C271 H281 0.929 . S
C272 C263 1.374 . S
C272 C279 1.388 . S
C272 H282 0.928 . S
C273 C261 1.420 1_556 S
C273 C274 1.385 . S
C273 H283 0.928 . S
C274 C273 1.385 . S
C274 H284 0.929 . S
C274 C286 1.407 1_556 S
C275 C259 1.372 . S
C275 H285 0.944 . S
C275 C289 1.374 1_556 S
C276 C258 1.407 1_554 S
C276 C271 1.407 . S
C276 C277 1.428 . S
C277 C276 1.428 . S
C277 C278 1.230 . S
C278 C277 1.230 . S
C278 C279 1.405 . S
C279 C259 1.388 1_554 S
C279 C272 1.388 . S
C279 C278 1.405 . S
H280 C270 0.928 . S
H281 C271 0.929 . S
H282 C272 0.928 . S
H283 C273 0.928 . S
H284 C274 0.929 . S
H285 C275 0.944 . S
C286 C262 1.407 . S
C286 C274 1.407 1_554 S
C286 C287 1.428 . S
C287 C286 1.428 . S
C287 C288 1.230 . S
C288 C287 1.230 . S
C288 C289 1.405 . S
C289 C263 1.388 . S
C289 C275 1.374 1_554 S
C289 C288 1.405 . S
C290 C291 1.420 . S
C290 C292 1.385 . S
C290 H298 0.928 . S
C291 C290 1.420 . S
C291 C304 1.420 1_554 S
C292 C290 1.385 . S
C292 H299 0.929 . S
C292 C310 1.407 . S
C293 H300 0.928 . S
C293 C309 1.374 . S
C293 C313 1.388 1_554 S
C294 C295 1.419 . S
C294 C296 1.385 . S
C294 H301 0.928 . S
C295 C294 1.419 . S
C295 C307 1.420 1_556 S
C296 C294 1.385 . S
C296 H302 0.929 . S
C296 C320 1.407 . S
C297 H303 0.928 . S
C297 C306 1.374 . S
C297 C323 1.388 . S
H298 C290 0.928 . S
H299 C292 0.929 . S
H300 C293 0.928 . S
H301 C294 0.928 . S
H302 C296 0.929 . S
H303 C297 0.928 . S
C304 C291 1.420 1_556 S
C304 C305 1.385 . S
C304 H314 0.928 . S
C305 C304 1.385 . S
C305 C310 1.407 1_556 S
C305 H315 0.929 . S
C306 C297 1.374 . S
C306 C313 1.388 . S
C306 H316 0.928 . S
C307 C295 1.420 1_554 S
C307 C308 1.385 . S
C307 H317 0.928 . S
C308 C307 1.385 . S
C308 H318 0.929 . S
C308 C320 1.407 1_554 S
C309 C293 1.374 . S
C309 H319 0.928 . S
C309 C323 1.388 1_554 S
C310 C292 1.407 . S
C310 C305 1.407 1_554 S
C310 C311 1.426 1_554 S
C311 C310 1.426 1_556 S
C311 C312 1.232 . S
C312 C311 1.232 . S
C312 C313 1.405 . S
C313 C293 1.388 1_556 S
C313 C306 1.388 . S
C313 C312 1.405 . S
H314 C304 0.928 . S
H315 C305 0.929 . S
H316 C306 0.928 . S
H317 C307 0.928 . S
H318 C308 0.929 . S
H319 C309 0.928 . S
C320 C296 1.407 . S
C320 C308 1.407 1_556 S
C320 C321 1.428 . S
C321 C320 1.428 . S
C321 C322 1.230 . S
C322 C321 1.230 . S
C322 C323 1.405 . S
C323 C297 1.388 . S
C323 C309 1.388 1_556 S
C323 C322 1.405 . S
C324 C325 1.420 1_554 S
C324 C326 1.385 . S
C324 H332 0.928 . S
C325 C324 1.420 1_556 S
C325 C338 1.420 . S
C326 C324 1.385 . S
C326 H333 0.929 . S
C326 C344 1.407 1_554 S
C327 H334 0.928 . S
C327 C343 1.374 . S
C327 C347 1.388 1_554 S
C328 C329 1.420 . S
C328 C330 1.385 . S
C328 H335 0.928 . S
C329 C328 1.420 . S
C329 C341 1.420 1_556 S
C330 C328 1.385 . S
C330 H336 0.929 . S
C330 C354 1.407 . S
C331 H337 0.928 . S
C331 C340 1.374 . S
C331 C357 1.388 . S
H332 C324 0.928 . S
H333 C326 0.929 . S
H334 C327 0.928 . S
H335 C328 0.928 . S
H336 C330 0.929 . S
H337 C331 0.928 . S
C338 C325 1.420 . S
C338 C339 1.385 . S
C338 H348 0.928 . S
C339 C338 1.385 . S
C339 C344 1.407 . S
C339 H349 0.929 . S
C340 C331 1.374 . S
C340 C347 1.388 . S
C340 H350 0.928 . S
C341 C329 1.420 1_554 S
C341 C342 1.385 . S
C341 H351 0.928 . S
C342 C341 1.385 . S
C342 H352 0.929 . S
C342 C354 1.407 1_554 S
C343 C327 1.374 . S
C343 H353 0.928 . S
C343 C357 1.388 1_554 S
C344 C326 1.407 1_556 S
C344 C339 1.407 . S
C344 C345 1.428 . S
C345 C344 1.428 . S
C345 C346 1.230 . S
C346 C345 1.230 . S
C346 C347 1.405 . S
C347 C327 1.388 1_556 S
C347 C340 1.388 . S
C347 C346 1.405 . S
H348 C338 0.928 . S
H349 C339 0.929 . S
H350 C340 0.928 . S
H351 C341 0.928 . S
H352 C342 0.929 . S
H353 C343 0.928 . S
C354 C330 1.407 . S
C354 C342 1.407 1_556 S
C354 C355 1.428 . S
C355 C354 1.428 . S
C355 C356 1.230 . S
C356 C355 1.230 . S
C356 C357 1.405 . S
C357 C331 1.388 . S
C357 C343 1.388 1_556 S
C357 C356 1.405 . S
C358 C359 1.420 . S
C358 C360 1.385 . S
C358 H366 0.928 . S
C359 C358 1.420 . S
C359 C372 1.420 1_556 S
C360 C358 1.385 . S
C360 H367 0.929 . S
C360 C378 1.407 . S
C361 H368 0.928 . S
C361 C377 1.374 . S
C361 C381 1.388 1_556 S
C362 C363 1.420 1_554 S
C362 C364 1.385 . S
C362 H369 0.928 . S
C363 C362 1.420 1_556 S
C363 C375 1.420 . S
C364 C362 1.385 . S
C364 H370 0.929 . S
C364 C388 1.409 1_554 S
C365 H371 0.928 . S
C365 C374 1.374 . S
C365 C391 1.388 . S
H366 C358 0.928 . S
H367 C360 0.929 . S
H368 C361 0.928 . S
H369 C362 0.928 . S
H370 C364 0.929 . S
H371 C365 0.928 . S
C372 C359 1.420 1_554 S
C372 C373 1.385 . S
C372 H382 0.928 . S
C373 C372 1.385 . S
C373 C378 1.407 1_554 S
C373 H383 0.929 . S
C374 C365 1.374 . S
C374 C381 1.388 . S
C374 H384 0.928 . S
C375 C363 1.420 . S
C375 C376 1.385 . S
C375 H385 0.928 . S
C376 C375 1.385 . S
C376 H386 0.929 . S
C376 C388 1.406 . S
C377 C361 1.374 . S
C377 H387 0.928 . S
C377 C391 1.388 1_556 S
C378 C360 1.407 . S
C378 C373 1.407 1_556 S
C378 C379 1.428 1_556 S
C379 C378 1.428 1_554 S
C379 C380 1.230 . S
C380 C379 1.230 . S
C380 C381 1.405 . S
C381 C361 1.388 1_554 S
C381 C374 1.388 . S
C381 C380 1.405 . S
H382 C372 0.928 . S
H383 C373 0.929 . S
H384 C374 0.928 . S
H385 C375 0.928 . S
H386 C376 0.929 . S
H387 C377 0.928 . S
C388 C364 1.409 1_556 S
C388 C376 1.406 . S
C388 C389 1.428 1_556 S
C389 C388 1.428 1_554 S
C389 C390 1.230 . S
C390 C389 1.230 . S
C390 C391 1.405 . S
C391 C365 1.388 . S
C391 C377 1.388 1_554 S
C391 C390 1.405 . S
C392 C393 1.417 1_556 S
C392 C394 1.385 . S
C392 H400 0.928 . S
C393 C392 1.417 1_554 S
C393 C406 1.423 . S
C394 C392 1.385 . S
C394 H401 0.929 . S
C394 C412 1.407 1_556 S
C395 H402 0.928 . S
C395 C411 1.374 . S
C395 C415 1.388 1_556 S
C396 C397 1.420 1_554 S
C396 C398 1.385 . S
C396 H403 0.928 . S
C397 C396 1.420 1_556 S
C397 C409 1.420 . S
C398 C396 1.385 . S
C398 H404 0.929 . S
C398 C422 1.407 1_554 S
C399 H405 0.928 . S
C399 C408 1.374 . S
C399 C425 1.388 . S
H400 C392 0.928 . S
H401 C394 0.929 . S
H402 C395 0.928 . S
H403 C396 0.928 . S
H404 C398 0.929 . S
H405 C399 0.928 . S
C406 C393 1.423 . S
C406 C407 1.385 . S
C406 H416 0.928 . S
C407 C406 1.385 . S
C407 C412 1.407 . S
C407 H417 0.929 . S
C408 C399 1.374 . S
C408 C415 1.388 . S
C408 H418 0.928 . S
C409 C397 1.420 . S
C409 C410 1.385 . S
C409 H419 0.928 . S
C410 C409 1.385 . S
C410 H420 0.929 . S
C410 C422 1.407 . S
C411 C395 1.374 . S
C411 H421 0.928 . S
C411 C425 1.388 1_556 S
C412 C394 1.407 1_554 S
C412 C407 1.407 . S
C412 C413 1.428 . S
C413 C412 1.428 . S
C413 C414 1.230 . S
C414 C413 1.230 . S
C414 C415 1.405 . S
C415 C395 1.388 1_554 S
C415 C408 1.388 . S
C415 C414 1.405 . S
H416 C406 0.928 . S
H417 C407 0.929 . S
H418 C408 0.928 . S
H419 C409 0.928 . S
H420 C410 0.929 . S
H421 C411 0.928 . S
C422 C398 1.407 1_556 S
C422 C410 1.407 . S
C422 C423 1.428 1_556 S
C423 C422 1.428 1_554 S
C423 C424 1.230 . S
C424 C423 1.230 . S
C424 C425 1.405 . S
C425 C399 1.388 . S
C425 C411 1.388 1_554 S
C425 C424 1.405 . S
C121 C18 1.456 1_455 S
C125 C8 1.435 . S
C155 C48 1.457 . S
C159 C58 1.424 1_545 S
C189 C98 1.442 . S
C193 C88 1.452 . S
C223 C9 1.615 . S
C227 C95 1.632 . S
C257 C49 1.623 . S
C261 C15 1.632 . S
C291 C55 1.632 . S
C295 C99 1.626 . S
C325 C19 1.618 . S
C329 C85 1.629 . S
C359 C5 1.627 . S
C363 C59 1.623 . S
C393 C89 1.626 . S
C397 C45 1.632 . S
