# Generated by pormake.
# Topology umq, (4)-cn, num edge types: 1
# Building blocks:
#     Node 0, Type 0, BuildingBlock: QUQFOY_clean_sbu_1, # of connection points: 4
#     Node 1, Type 0, BuildingBlock: QUQFOY_clean_sbu_1, # of connection points: 4
#     Node 2, Type 0, BuildingBlock: QUQFOY_clean_sbu_1, # of connection points: 4
#     Node 3, Type 0, BuildingBlock: QUQFOY_clean_sbu_1, # of connection points: 4
#     Node 4, Type 0, BuildingBlock: QUQFOY_clean_sbu_1, # of connection points: 4
#     Node 5, Type 0, BuildingBlock: QUQFOY_clean_sbu_1, # of connection points: 4
#     Node 6, Type 0, BuildingBlock: QUQFOY_clean_sbu_1, # of connection points: 4
#     Node 7, Type 0, BuildingBlock: QUQFOY_clean_sbu_1, # of connection points: 4
#     Node 8, Type 0, BuildingBlock: QUQFOY_clean_sbu_1, # of connection points: 4
#     Node 9, Type 0, BuildingBlock: QUQFOY_clean_sbu_1, # of connection points: 4
#     Node 10, Type 0, BuildingBlock: QUQFOY_clean_sbu_1, # of connection points: 4
#     Node 11, Type 0, BuildingBlock: QUQFOY_clean_sbu_1, # of connection points: 4
#     Node 12, Type 0, BuildingBlock: QUQFOY_clean_sbu_1, # of connection points: 4
#     Node 13, Type 0, BuildingBlock: QUQFOY_clean_sbu_1, # of connection points: 4
#     Node 14, Type 0, BuildingBlock: QUQFOY_clean_sbu_1, # of connection points: 4
#     Node 15, Type 0, BuildingBlock: QUQFOY_clean_sbu_1, # of connection points: 4
#     Node 16, Type 0, BuildingBlock: QUQFOY_clean_sbu_1, # of connection points: 4
#     Node 17, Type 0, BuildingBlock: QUQFOY_clean_sbu_1, # of connection points: 4
#     Node 18, Type 0, BuildingBlock: QUQFOY_clean_sbu_1, # of connection points: 4
#     Node 19, Type 0, BuildingBlock: QUQFOY_clean_sbu_1, # of connection points: 4
#     Node 20, Type 0, BuildingBlock: QUQFOY_clean_sbu_1, # of connection points: 4
#     Node 21, Type 0, BuildingBlock: QUQFOY_clean_sbu_1, # of connection points: 4
#     Node 22, Type 0, BuildingBlock: QUQFOY_clean_sbu_1, # of connection points: 4
#     Node 23, Type 0, BuildingBlock: QUQFOY_clean_sbu_1, # of connection points: 4
#     Node 24, Type 0, BuildingBlock: QUQFOY_clean_sbu_1, # of connection points: 4
#     Node 25, Type 0, BuildingBlock: QUQFOY_clean_sbu_1, # of connection points: 4
#     Node 26, Type 0, BuildingBlock: QUQFOY_clean_sbu_1, # of connection points: 4
#     Node 27, Type 0, BuildingBlock: QUQFOY_clean_sbu_1, # of connection points: 4
#     Node 28, Type 0, BuildingBlock: QUQFOY_clean_sbu_1, # of connection points: 4
#     Node 29, Type 0, BuildingBlock: QUQFOY_clean_sbu_1, # of connection points: 4
#     Node 30, Type 0, BuildingBlock: QUQFOY_clean_sbu_1, # of connection points: 4
#     Node 31, Type 0, BuildingBlock: QUQFOY_clean_sbu_1, # of connection points: 4
#     Edge 32, Type (0, 0), BuildingBlock: KIFKEQ_clean_linker_1, # of connection points: 2
#     Edge 33, Type (0, 0), BuildingBlock: KIFKEQ_clean_linker_1, # of connection points: 2
#     Edge 34, Type (0, 0), BuildingBlock: KIFKEQ_clean_linker_1, # of connection points: 2
#     Edge 35, Type (0, 0), BuildingBlock: KIFKEQ_clean_linker_1, # of connection points: 2
#     Edge 36, Type (0, 0), BuildingBlock: KIFKEQ_clean_linker_1, # of connection points: 2
#     Edge 37, Type (0, 0), BuildingBlock: KIFKEQ_clean_linker_1, # of connection points: 2
#     Edge 38, Type (0, 0), BuildingBlock: KIFKEQ_clean_linker_1, # of connection points: 2
#     Edge 39, Type (0, 0), BuildingBlock: KIFKEQ_clean_linker_1, # of connection points: 2
#     Edge 40, Type (0, 0), BuildingBlock: KIFKEQ_clean_linker_1, # of connection points: 2
#     Edge 41, Type (0, 0), BuildingBlock: KIFKEQ_clean_linker_1, # of connection points: 2
#     Edge 42, Type (0, 0), BuildingBlock: KIFKEQ_clean_linker_1, # of connection points: 2
#     Edge 43, Type (0, 0), BuildingBlock: KIFKEQ_clean_linker_1, # of connection points: 2
#     Edge 44, Type (0, 0), BuildingBlock: KIFKEQ_clean_linker_1, # of connection points: 2
#     Edge 45, Type (0, 0), BuildingBlock: KIFKEQ_clean_linker_1, # of connection points: 2
#     Edge 46, Type (0, 0), BuildingBlock: KIFKEQ_clean_linker_1, # of connection points: 2
#     Edge 47, Type (0, 0), BuildingBlock: KIFKEQ_clean_linker_1, # of connection points: 2
#     Edge 48, Type (0, 0), BuildingBlock: KIFKEQ_clean_linker_1, # of connection points: 2
#     Edge 49, Type (0, 0), BuildingBlock: KIFKEQ_clean_linker_1, # of connection points: 2
#     Edge 50, Type (0, 0), BuildingBlock: KIFKEQ_clean_linker_1, # of connection points: 2
#     Edge 51, Type (0, 0), BuildingBlock: KIFKEQ_clean_linker_1, # of connection points: 2
#     Edge 52, Type (0, 0), BuildingBlock: KIFKEQ_clean_linker_1, # of connection points: 2
#     Edge 53, Type (0, 0), BuildingBlock: KIFKEQ_clean_linker_1, # of connection points: 2
#     Edge 54, Type (0, 0), BuildingBlock: KIFKEQ_clean_linker_1, # of connection points: 2
#     Edge 55, Type (0, 0), BuildingBlock: KIFKEQ_clean_linker_1, # of connection points: 2
#     Edge 56, Type (0, 0), BuildingBlock: KIFKEQ_clean_linker_1, # of connection points: 2
#     Edge 57, Type (0, 0), BuildingBlock: KIFKEQ_clean_linker_1, # of connection points: 2
#     Edge 58, Type (0, 0), BuildingBlock: KIFKEQ_clean_linker_1, # of connection points: 2
#     Edge 59, Type (0, 0), BuildingBlock: KIFKEQ_clean_linker_1, # of connection points: 2
#     Edge 60, Type (0, 0), BuildingBlock: KIFKEQ_clean_linker_1, # of connection points: 2
#     Edge 61, Type (0, 0), BuildingBlock: KIFKEQ_clean_linker_1, # of connection points: 2
#     Edge 62, Type (0, 0), BuildingBlock: KIFKEQ_clean_linker_1, # of connection points: 2
#     Edge 63, Type (0, 0), BuildingBlock: KIFKEQ_clean_linker_1, # of connection points: 2
#     Edge 64, Type (0, 0), BuildingBlock: KIFKEQ_clean_linker_1, # of connection points: 2
#     Edge 65, Type (0, 0), BuildingBlock: KIFKEQ_clean_linker_1, # of connection points: 2
#     Edge 66, Type (0, 0), BuildingBlock: KIFKEQ_clean_linker_1, # of connection points: 2
#     Edge 67, Type (0, 0), BuildingBlock: KIFKEQ_clean_linker_1, # of connection points: 2
#     Edge 68, Type (0, 0), BuildingBlock: KIFKEQ_clean_linker_1, # of connection points: 2
#     Edge 69, Type (0, 0), BuildingBlock: KIFKEQ_clean_linker_1, # of connection points: 2
#     Edge 70, Type (0, 0), BuildingBlock: KIFKEQ_clean_linker_1, # of connection points: 2
#     Edge 71, Type (0, 0), BuildingBlock: KIFKEQ_clean_linker_1, # of connection points: 2
#     Edge 72, Type (0, 0), BuildingBlock: KIFKEQ_clean_linker_1, # of connection points: 2
#     Edge 73, Type (0, 0), BuildingBlock: KIFKEQ_clean_linker_1, # of connection points: 2
#     Edge 74, Type (0, 0), BuildingBlock: KIFKEQ_clean_linker_1, # of connection points: 2
#     Edge 75, Type (0, 0), BuildingBlock: KIFKEQ_clean_linker_1, # of connection points: 2
#     Edge 76, Type (0, 0), BuildingBlock: KIFKEQ_clean_linker_1, # of connection points: 2
#     Edge 77, Type (0, 0), BuildingBlock: KIFKEQ_clean_linker_1, # of connection points: 2
#     Edge 78, Type (0, 0), BuildingBlock: KIFKEQ_clean_linker_1, # of connection points: 2
#     Edge 79, Type (0, 0), BuildingBlock: KIFKEQ_clean_linker_1, # of connection points: 2
#     Edge 80, Type (0, 0), BuildingBlock: KIFKEQ_clean_linker_1, # of connection points: 2
#     Edge 81, Type (0, 0), BuildingBlock: KIFKEQ_clean_linker_1, # of connection points: 2
#     Edge 82, Type (0, 0), BuildingBlock: KIFKEQ_clean_linker_1, # of connection points: 2
#     Edge 83, Type (0, 0), BuildingBlock: KIFKEQ_clean_linker_1, # of connection points: 2
#     Edge 84, Type (0, 0), BuildingBlock: KIFKEQ_clean_linker_1, # of connection points: 2
#     Edge 85, Type (0, 0), BuildingBlock: KIFKEQ_clean_linker_1, # of connection points: 2
#     Edge 86, Type (0, 0), BuildingBlock: KIFKEQ_clean_linker_1, # of connection points: 2
#     Edge 87, Type (0, 0), BuildingBlock: KIFKEQ_clean_linker_1, # of connection points: 2
#     Edge 88, Type (0, 0), BuildingBlock: KIFKEQ_clean_linker_1, # of connection points: 2
#     Edge 89, Type (0, 0), BuildingBlock: KIFKEQ_clean_linker_1, # of connection points: 2
#     Edge 90, Type (0, 0), BuildingBlock: KIFKEQ_clean_linker_1, # of connection points: 2
#     Edge 91, Type (0, 0), BuildingBlock: KIFKEQ_clean_linker_1, # of connection points: 2
#     Edge 92, Type (0, 0), BuildingBlock: KIFKEQ_clean_linker_1, # of connection points: 2
#     Edge 93, Type (0, 0), BuildingBlock: KIFKEQ_clean_linker_1, # of connection points: 2
#     Edge 94, Type (0, 0), BuildingBlock: KIFKEQ_clean_linker_1, # of connection points: 2
#     Edge 95, Type (0, 0), BuildingBlock: KIFKEQ_clean_linker_1, # of connection points: 2
# Relax obj value: 0.035
# Max RMSD: 0.092
# Mean RMSD: 0.092
data_MOF--net-umq--node1-QUQFOY_clean_sbu_1--edge1-KIFKEQ_clean_linker_1
_symmetry_space_group_name_H-M    P1
_symmetry_Int_Tables_number       1
_symmetry_cell_setting            triclinic
loop_
_symmetry_equiv_pos_as_xyz
'x, y, z'
_cell_length_a     67.306609
_cell_length_b     67.310923
_cell_length_c     51.490491
_cell_angle_alpha  89.95926
_cell_angle_beta   90.00773
_cell_angle_gamma 90.006138
loop_
_atom_site_label
_atom_site_type_symbol
_atom_site_fract_x
_atom_site_fract_y
_atom_site_fract_z
_atom_type_partial_charge
O0 O 0.21881 0.11105 0.21052 0.0
Cd1 Cd 0.24285 0.09656 0.195 0.0
Cd2 Cd 0.22506 0.1135 0.14831 0.0
O3 O 0.20322 0.12098 0.17506 0.0
O4 O 0.25297 0.08144 0.22551 0.0
O5 O 0.24164 0.06686 0.19007 0.0
C6 C 0.2487 0.06531 0.21331 0.0
C7 C 0.21541 0.10732 0.10516 0.0
C8 C 0.20411 0.11948 0.19967 0.0
C9 C 0.26696 0.12609 0.16514 0.0
O10 O 0.25203 0.12814 0.15025 0.0
O11 O 0.26666 0.11363 0.18367 0.0
O12 O 0.21442 0.12475 0.11531 0.0
O13 O 0.22115 0.0929 0.1199 0.0
O14 O 0.88856 0.21634 0.2094 0.0
Cd15 Cd 0.90236 0.24049 0.19259 0.0
Cd16 Cd 0.88355 0.22272 0.14791 0.0
O17 O 0.87687 0.20092 0.17476 0.0
O18 O 0.91743 0.25136 0.22269 0.0
O19 O 0.9321 0.23965 0.18755 0.0
C20 C 0.93359 0.24712 0.21057 0.0
C21 C 0.89162 0.21357 0.10526 0.0
C22 C 0.87952 0.20174 0.19918 0.0
C23 C 0.87127 0.26426 0.16407 0.0
O24 O 0.86787 0.24894 0.15035 0.0
O25 O 0.88515 0.26428 0.18082 0.0
O26 O 0.87407 0.21098 0.11459 0.0
O27 O 0.90505 0.22083 0.12045 0.0
O28 O 0.78124 0.88716 0.20848 0.0
Cd29 Cd 0.75736 0.90185 0.19232 0.0
Cd30 Cd 0.77429 0.88222 0.14699 0.0
O31 O 0.79582 0.87448 0.1738 0.0
O32 O 0.74736 0.91712 0.22275 0.0
O33 O 0.75911 0.93157 0.18745 0.0
C34 C 0.75194 0.9332 0.21062 0.0
C35 C 0.78355 0.88858 0.10374 0.0
C36 C 0.79533 0.87738 0.1982 0.0
C37 C 0.73215 0.87192 0.1641 0.0
O38 O 0.74716 0.86823 0.14994 0.0
O39 O 0.73281 0.88552 0.18118 0.0
O40 O 0.78441 0.87105 0.11367 0.0
O41 O 0.77816 0.90296 0.11877 0.0
O42 O 0.11169 0.78068 0.20668 0.0
Cd43 Cd 0.09728 0.75739 0.18888 0.0
Cd44 Cd 0.11527 0.77613 0.14532 0.0
O45 O 0.12042 0.79828 0.17238 0.0
O46 O 0.08188 0.74606 0.21842 0.0
O47 O 0.06759 0.75912 0.18379 0.0
C48 C 0.06586 0.75107 0.20647 0.0
C49 C 0.10683 0.78487 0.10259 0.0
C50 C 0.1192 0.79629 0.19689 0.0
C51 C 0.12873 0.73472 0.16056 0.0
O52 O 0.13227 0.7506 0.14799 0.0
O53 O 0.11422 0.73381 0.17629 0.0
O54 O 0.12419 0.7884 0.11202 0.0
O55 O 0.09379 0.77686 0.11773 0.0
O56 O 0.21836 0.88755 0.30518 0.0
Cd57 Cd 0.2415 0.90197 0.32331 0.0
Cd58 Cd 0.22241 0.88419 0.36666 0.0
O59 O 0.20047 0.87901 0.3393 0.0
O60 O 0.25301 0.91751 0.29403 0.0
O61 O 0.23971 0.93162 0.3286 0.0
C62 C 0.24792 0.93347 0.30605 0.0
C63 C 0.21334 0.89253 0.40928 0.0
C64 C 0.20265 0.88013 0.31481 0.0
C65 C 0.26396 0.87065 0.35213 0.0
O66 O 0.24797 0.86719 0.3645 0.0
O67 O 0.26499 0.88507 0.33625 0.0
O68 O 0.20988 0.8752 0.39976 0.0
O69 O 0.22144 0.90561 0.39428 0.0
O70 O 0.11157 0.22038 0.30414 0.0
Cd71 Cd 0.09661 0.24347 0.32163 0.0
Cd72 Cd 0.11421 0.22441 0.36581 0.0
O73 O 0.12 0.20264 0.33849 0.0
O74 O 0.08111 0.25447 0.29198 0.0
O75 O 0.06697 0.24121 0.3266 0.0
C76 C 0.06515 0.24918 0.30389 0.0
C77 C 0.1077 0.21489 0.4089 0.0
C78 C 0.11908 0.20478 0.31398 0.0
C79 C 0.12711 0.26638 0.351 0.0
O80 O 0.13039 0.25046 0.36357 0.0
O81 O 0.11301 0.26731 0.33463 0.0
O82 O 0.12499 0.2129 0.39857 0.0
O83 O 0.09358 0.22159 0.39436 0.0
O84 O 0.78297 0.10963 0.30912 0.0
Cd85 Cd 0.75833 0.09541 0.32402 0.0
Cd86 Cd 0.7743 0.1152 0.37022 0.0
O87 O 0.79634 0.123 0.34423 0.0
O88 O 0.7489 0.0805 0.29297 0.0
O89 O 0.75926 0.06563 0.3287 0.0
C90 C 0.75273 0.06427 0.30518 0.0
C91 C 0.78295 0.10912 0.41373 0.0
C92 C 0.79666 0.11966 0.31993 0.0
C93 C 0.73262 0.12557 0.35129 0.0
O94 O 0.7472 0.12906 0.36628 0.0
O95 O 0.73373 0.11213 0.33403 0.0
O96 O 0.78373 0.12662 0.40372 0.0
O97 O 0.77792 0.09462 0.39869 0.0
O98 O 0.88951 0.78136 0.30627 0.0
Cd99 Cd 0.9037 0.75649 0.32014 0.0
Cd100 Cd 0.88478 0.7719 0.36804 0.0
O101 O 0.87566 0.79351 0.34183 0.0
O102 O 0.91845 0.7475 0.28872 0.0
O103 O 0.9335 0.75707 0.32469 0.0
C104 C 0.93475 0.75094 0.30099 0.0
C105 C 0.89035 0.78129 0.41146 0.0
C106 C 0.87902 0.79445 0.31754 0.0
C107 C 0.87478 0.73007 0.3486 0.0
O108 O 0.8724 0.74397 0.36499 0.0
O109 O 0.88666 0.73205 0.3296 0.0
O110 O 0.87285 0.78106 0.4014 0.0
O111 O 0.90511 0.77689 0.39652 0.0
O112 O 0.77895 0.88726 0.80481 0.0
Cd113 Cd 0.75524 0.90114 0.82205 0.0
Cd114 Cd 0.774 0.88407 0.86702 0.0
O115 O 0.7958 0.87806 0.83959 0.0
O116 O 0.74402 0.91677 0.79264 0.0
O117 O 0.75638 0.93075 0.82791 0.0
C118 C 0.7486 0.9327 0.80511 0.0
C119 C 0.78377 0.892 0.90955 0.0
C120 C 0.79425 0.87947 0.81502 0.0
C121 C 0.73249 0.87021 0.85155 0.0
O122 O 0.74787 0.86784 0.86557 0.0
O123 O 0.73203 0.88348 0.834 0.0
O124 O 0.78652 0.87459 0.89991 0.0
O125 O 0.77599 0.90539 0.89474 0.0
O126 O 0.11103 0.77765 0.80323 0.0
Cd127 Cd 0.09586 0.7546 0.82053 0.0
Cd128 Cd 0.11407 0.77322 0.86498 0.0
O129 O 0.12033 0.7949 0.83761 0.0
O130 O 0.08032 0.74387 0.79075 0.0
O131 O 0.0662 0.75689 0.8255 0.0
C132 C 0.06436 0.74904 0.80274 0.0
C133 C 0.1079 0.7827 0.90821 0.0
C134 C 0.11908 0.79296 0.81309 0.0
C135 C 0.12609 0.73104 0.84967 0.0
O136 O 0.12955 0.74676 0.86256 0.0
O137 O 0.11208 0.73052 0.83314 0.0
O138 O 0.12519 0.78436 0.89779 0.0
O139 O 0.09359 0.7764 0.89368 0.0
O140 O 0.21506 0.10878 0.80709 0.0
Cd141 Cd 0.23955 0.09513 0.82327 0.0
Cd142 Cd 0.22257 0.11423 0.8684 0.0
O143 O 0.20053 0.12111 0.842 0.0
O144 O 0.25005 0.08013 0.79288 0.0
O145 O 0.23894 0.06537 0.82831 0.0
C146 C 0.24609 0.06393 0.80511 0.0
C147 C 0.21357 0.10601 0.91107 0.0
C148 C 0.20079 0.11813 0.81763 0.0
C149 C 0.26392 0.12624 0.85111 0.0
O150 O 0.24891 0.12968 0.86542 0.0
O151 O 0.2635 0.11243 0.83429 0.0
O152 O 0.21114 0.12365 0.90194 0.0
O153 O 0.2207 0.09262 0.89573 0.0
O154 O 0.88804 0.21779 0.80603 0.0
Cd155 Cd 0.90187 0.24283 0.81997 0.0
Cd156 Cd 0.88362 0.22716 0.86787 0.0
O157 O 0.87487 0.20534 0.84187 0.0
O158 O 0.91691 0.25201 0.78887 0.0
O159 O 0.93159 0.24236 0.8251 0.0
C160 C 0.93308 0.24854 0.80142 0.0
C161 C 0.88945 0.2177 0.9112 0.0
C162 C 0.87799 0.20445 0.81753 0.0
C163 C 0.87259 0.26875 0.8485 0.0
O164 O 0.87056 0.25478 0.8649 0.0
O165 O 0.88448 0.26703 0.82945 0.0
O166 O 0.87193 0.2177 0.90121 0.0
O167 O 0.9041 0.22246 0.89625 0.0
O168 O 0.78014 0.11013 0.71263 0.0
Cd169 Cd 0.75548 0.09673 0.69692 0.0
Cd170 Cd 0.77286 0.11393 0.65034 0.0
O171 O 0.79448 0.12173 0.67712 0.0
O172 O 0.74498 0.08143 0.72708 0.0
O173 O 0.75585 0.06708 0.69123 0.0
C174 C 0.74881 0.06537 0.71447 0.0
C175 C 0.78283 0.10612 0.60786 0.0
C176 C 0.79433 0.11927 0.70161 0.0
C177 C 0.73145 0.12696 0.66722 0.0
O178 O 0.7461 0.12883 0.65182 0.0
O179 O 0.73204 0.11464 0.68593 0.0
O180 O 0.78462 0.12376 0.61718 0.0
O181 O 0.77585 0.09247 0.62295 0.0
O182 O 0.8867 0.77935 0.7104 0.0
Cd183 Cd 0.90068 0.75554 0.69355 0.0
Cd184 Cd 0.88379 0.77406 0.64831 0.0
O185 O 0.87759 0.79602 0.67545 0.0
O186 O 0.91612 0.74458 0.72329 0.0
O187 O 0.93033 0.75666 0.68799 0.0
C188 C 0.93212 0.74909 0.71093 0.0
C189 C 0.89195 0.78354 0.60572 0.0
C190 C 0.87892 0.79459 0.70003 0.0
C191 C 0.86992 0.7326 0.6641 0.0
O192 O 0.86762 0.74791 0.64992 0.0
O193 O 0.88311 0.73224 0.68176 0.0
O194 O 0.87447 0.78631 0.61517 0.0
O195 O 0.90528 0.77593 0.62077 0.0
O196 O 0.2192 0.88635 0.70866 0.0
Cd197 Cd 0.24297 0.90124 0.693 0.0
Cd198 Cd 0.22578 0.88339 0.64658 0.0
O199 O 0.20397 0.87568 0.67332 0.0
O200 O 0.25285 0.91652 0.7235 0.0
O201 O 0.24128 0.93095 0.68808 0.0
C202 C 0.24834 0.93259 0.71131 0.0
C203 C 0.21622 0.88978 0.60342 0.0
C204 C 0.20474 0.87747 0.6979 0.0
C205 C 0.26783 0.87186 0.66382 0.0
O206 O 0.25302 0.86923 0.64889 0.0
O207 O 0.26715 0.88459 0.682 0.0
O208 O 0.21541 0.87226 0.61337 0.0
O209 O 0.22177 0.90414 0.61836 0.0
O210 O 0.10941 0.21485 0.70692 0.0
Cd211 Cd 0.09586 0.23921 0.69024 0.0
Cd212 Cd 0.11474 0.22173 0.64553 0.0
O213 O 0.12134 0.19977 0.67218 0.0
O214 O 0.08073 0.25011 0.72028 0.0
O215 O 0.06613 0.23857 0.68499 0.0
C216 C 0.06459 0.24603 0.70801 0.0
C217 C 0.10625 0.21274 0.60298 0.0
C218 C 0.11851 0.20035 0.69657 0.0
C219 C 0.1272 0.26305 0.66211 0.0
O220 O 0.13058 0.24784 0.64817 0.0
O221 O 0.11328 0.26296 0.6788 0.0
O222 O 0.12386 0.21 0.61205 0.0
O223 O 0.09303 0.22014 0.61835 0.0
O224 O 0.71677 0.61137 0.70727 0.0
Cd225 Cd 0.74013 0.59706 0.68945 0.0
Cd226 Cd 0.72103 0.61525 0.64597 0.0
O227 O 0.69892 0.6201 0.67319 0.0
O228 O 0.75162 0.582 0.71923 0.0
O229 O 0.73871 0.56729 0.68485 0.0
C230 C 0.74675 0.56582 0.70755 0.0
C231 C 0.71243 0.60713 0.60309 0.0
C232 C 0.70106 0.61881 0.69767 0.0
C233 C 0.76248 0.62875 0.66098 0.0
O234 O 0.74647 0.63236 0.64873 0.0
O235 O 0.76358 0.61409 0.6765 0.0
O236 O 0.70875 0.62438 0.61275 0.0
O237 O 0.72043 0.594 0.6181 0.0
O238 O 0.38811 0.7206 0.71304 0.0
Cd239 Cd 0.4032 0.74329 0.69484 0.0
Cd240 Cd 0.38586 0.72381 0.65133 0.0
O241 O 0.38053 0.70217 0.67905 0.0
O242 O 0.41852 0.75483 0.72429 0.0
O243 O 0.43288 0.74093 0.6903 0.0
C244 C 0.43455 0.74931 0.71276 0.0
C245 C 0.39377 0.71413 0.60878 0.0
C246 C 0.38102 0.70472 0.70351 0.0
C247 C 0.37252 0.76565 0.66488 0.0
O248 O 0.369 0.7495 0.65294 0.0
O249 O 0.38685 0.76684 0.68086 0.0
O250 O 0.37649 0.71095 0.61864 0.0
O251 O 0.40705 0.72229 0.6234 0.0
O252 O 0.27787 0.38573 0.70977 0.0
Cd253 Cd 0.25438 0.40074 0.69369 0.0
Cd254 Cd 0.27179 0.38304 0.64755 0.0
O255 O 0.29344 0.37529 0.67456 0.0
O256 O 0.2445 0.41648 0.72375 0.0
O257 O 0.25645 0.43034 0.68814 0.0
C258 C 0.24928 0.43235 0.71126 0.0
C259 C 0.28147 0.38932 0.60437 0.0
C260 C 0.29243 0.37691 0.69916 0.0
C261 C 0.2296 0.37148 0.66446 0.0
O262 O 0.24449 0.36893 0.64963 0.0
O263 O 0.23018 0.38415 0.68271 0.0
O264 O 0.28223 0.37182 0.61439 0.0
O265 O 0.27597 0.40373 0.61926 0.0
O266 O 0.61136 0.28142 0.70644 0.0
Cd267 Cd 0.59674 0.25799 0.68924 0.0
Cd268 Cd 0.61548 0.27608 0.64508 0.0
O269 O 0.62096 0.29834 0.67193 0.0
O270 O 0.58147 0.24713 0.71922 0.0
O271 O 0.56699 0.25956 0.68435 0.0
C272 C 0.56537 0.25183 0.70722 0.0
C273 C 0.60779 0.28447 0.60192 0.0
C274 C 0.61939 0.2967 0.69646 0.0
C275 C 0.62801 0.23453 0.66148 0.0
O276 O 0.63179 0.25015 0.64846 0.0
O277 O 0.61351 0.2341 0.67727 0.0
O278 O 0.62512 0.28767 0.61164 0.0
O279 O 0.59435 0.27708 0.61701 0.0
O280 O 0.71897 0.38869 0.80373 0.0
Cd281 Cd 0.74219 0.40359 0.82098 0.0
Cd282 Cd 0.72383 0.38502 0.86537 0.0
O283 O 0.70181 0.37939 0.83818 0.0
O284 O 0.75303 0.41881 0.79094 0.0
O285 O 0.74025 0.43333 0.82553 0.0
C286 C 0.74802 0.43492 0.80269 0.0
C287 C 0.71481 0.39219 0.90846 0.0
C288 C 0.70363 0.38075 0.81365 0.0
C289 C 0.76568 0.37275 0.84951 0.0
O290 O 0.75 0.36902 0.86242 0.0
O291 O 0.76613 0.38708 0.83344 0.0
O292 O 0.71198 0.37492 0.89841 0.0
O293 O 0.72222 0.40586 0.89376 0.0
O294 O 0.61091 0.71771 0.80759 0.0
Cd295 Cd 0.59665 0.74099 0.82564 0.0
Cd296 Cd 0.61454 0.72162 0.86886 0.0
O297 O 0.61933 0.69958 0.84155 0.0
O298 O 0.58164 0.75269 0.79599 0.0
O299 O 0.56689 0.73962 0.83027 0.0
C300 C 0.56545 0.7478 0.80764 0.0
C301 C 0.60599 0.71298 0.91157 0.0
C302 C 0.61818 0.70188 0.81708 0.0
C303 C 0.62837 0.76303 0.85435 0.0
O304 O 0.6319 0.74693 0.86641 0.0
O305 O 0.61372 0.7643 0.83885 0.0
O306 O 0.62328 0.70916 0.90212 0.0
O307 O 0.59306 0.72114 0.89642 0.0
O308 O 0.28055 0.61085 0.80608 0.0
Cd309 Cd 0.25645 0.59606 0.82099 0.0
Cd310 Cd 0.27288 0.61399 0.86818 0.0
O311 O 0.29487 0.622 0.84184 0.0
O312 O 0.24701 0.58081 0.79024 0.0
O313 O 0.25782 0.56637 0.82608 0.0
C314 C 0.25111 0.56473 0.80268 0.0
C315 C 0.28226 0.60819 0.91155 0.0
C316 C 0.29466 0.62 0.81726 0.0
C317 C 0.23093 0.6251 0.84982 0.0
O318 O 0.24538 0.6276 0.86538 0.0
O319 O 0.23212 0.61273 0.83128 0.0
O320 O 0.2827 0.62564 0.90137 0.0
O321 O 0.27716 0.59357 0.89675 0.0
O322 O 0.38684 0.27657 0.80242 0.0
Cd323 Cd 0.40197 0.253 0.81812 0.0
Cd324 Cd 0.38405 0.27037 0.86481 0.0
O325 O 0.37628 0.29197 0.83771 0.0
O326 O 0.41753 0.24335 0.78773 0.0
O327 O 0.43163 0.2551 0.82326 0.0
C328 C 0.43348 0.24812 0.80002 0.0
C329 C 0.38944 0.28022 0.90815 0.0
C330 C 0.37795 0.29105 0.81311 0.0
C331 C 0.37289 0.22806 0.84755 0.0
O332 O 0.37035 0.24288 0.86249 0.0
O333 O 0.38544 0.22874 0.82916 0.0
O334 O 0.3721 0.28064 0.89765 0.0
O335 O 0.40418 0.27493 0.89368 0.0
O336 O 0.27948 0.38871 0.30527 0.0
Cd337 Cd 0.25583 0.40295 0.32214 0.0
Cd338 Cd 0.27395 0.38495 0.36734 0.0
O339 O 0.29573 0.37841 0.34001 0.0
O340 O 0.24496 0.41826 0.29222 0.0
O341 O 0.25704 0.43265 0.32735 0.0
C342 C 0.24944 0.43433 0.30441 0.0
C343 C 0.28354 0.39264 0.41005 0.0
C344 C 0.29442 0.38024 0.31547 0.0
C345 C 0.23217 0.37238 0.35121 0.0
O346 O 0.24735 0.36955 0.36547 0.0
O347 O 0.23224 0.38569 0.3337 0.0
O348 O 0.28594 0.37516 0.40044 0.0
O349 O 0.27626 0.40622 0.39509 0.0
O350 O 0.61085 0.27612 0.30134 0.0
Cd351 Cd 0.59541 0.25272 0.31691 0.0
Cd352 Cd 0.61357 0.26976 0.3638 0.0
O353 O 0.62172 0.29125 0.33668 0.0
O354 O 0.57986 0.24331 0.28641 0.0
O355 O 0.56578 0.25506 0.32195 0.0
C356 C 0.56392 0.24813 0.29869 0.0
C357 C 0.60842 0.27964 0.40719 0.0
C358 C 0.62 0.29042 0.31207 0.0
C359 C 0.62392 0.22724 0.34641 0.0
O360 O 0.62663 0.24195 0.36148 0.0
O361 O 0.61155 0.22821 0.32784 0.0
O362 O 0.62575 0.27973 0.39667 0.0
O363 O 0.59356 0.2747 0.39271 0.0
O364 O 0.72045 0.61237 0.30346 0.0
Cd365 Cd 0.74339 0.59674 0.32023 0.0
Cd366 Cd 0.72575 0.61521 0.36529 0.0
O367 O 0.70398 0.62215 0.33828 0.0
O368 O 0.7534 0.58096 0.29027 0.0
O369 O 0.74055 0.56715 0.32537 0.0
C370 C 0.74808 0.56512 0.30244 0.0
C371 C 0.71632 0.60919 0.40861 0.0
C372 C 0.70552 0.62083 0.31371 0.0
C373 C 0.76808 0.62624 0.34901 0.0
O374 O 0.75268 0.62988 0.3625 0.0
O375 O 0.76796 0.61245 0.33218 0.0
O376 O 0.71519 0.62657 0.3983 0.0
O377 O 0.72211 0.59475 0.39396 0.0
O378 O 0.38739 0.71582 0.31011 0.0
Cd379 Cd 0.40061 0.74083 0.32506 0.0
Cd380 Cd 0.38193 0.72434 0.37165 0.0
O381 O 0.37392 0.70252 0.34521 0.0
O382 O 0.41569 0.75074 0.29441 0.0
O383 O 0.4303 0.74084 0.33055 0.0
C384 C 0.43183 0.7474 0.30705 0.0
C385 C 0.38876 0.7151 0.41477 0.0
C386 C 0.37742 0.7021 0.32093 0.0
C387 C 0.37024 0.76582 0.35306 0.0
O388 O 0.36798 0.75154 0.36894 0.0
O389 O 0.38272 0.76463 0.3346 0.0
O390 O 0.37112 0.71429 0.40521 0.0
O391 O 0.40298 0.72047 0.39946 0.0
O392 O 0.28154 0.61028 0.21008 0.0
Cd393 Cd 0.25691 0.59724 0.19383 0.0
Cd394 Cd 0.27479 0.6151 0.14809 0.0
O395 O 0.29638 0.62235 0.17521 0.0
O396 O 0.24601 0.58218 0.22394 0.0
O397 O 0.25698 0.56755 0.18835 0.0
C398 C 0.24977 0.56603 0.21152 0.0
C399 C 0.2845 0.60681 0.10569 0.0
C400 C 0.29594 0.61947 0.19962 0.0
C401 C 0.23337 0.62817 0.16459 0.0
O402 O 0.24822 0.63035 0.14959 0.0
O403 O 0.23368 0.6154 0.18279 0.0
O404 O 0.28675 0.62446 0.11481 0.0
O405 O 0.27729 0.5934 0.12096 0.0
O406 O 0.38573 0.28078 0.20688 0.0
Cd407 Cd 0.40043 0.25781 0.18881 0.0
Cd408 Cd 0.38172 0.2764 0.14556 0.0
O409 O 0.37649 0.29843 0.17283 0.0
O410 O 0.41589 0.24653 0.21831 0.0
O411 O 0.43012 0.25976 0.18377 0.0
C412 C 0.43189 0.25163 0.20638 0.0
C413 C 0.38988 0.28505 0.10269 0.0
C414 C 0.37792 0.29633 0.19732 0.0
C415 C 0.36921 0.23468 0.16067 0.0
O416 O 0.36518 0.25057 0.14835 0.0
O417 O 0.38389 0.234 0.17615 0.0
O418 O 0.37252 0.28844 0.1122 0.0
O419 O 0.40309 0.27734 0.11785 0.0
O420 O 0.7196 0.38583 0.20872 0.0
Cd421 Cd 0.74307 0.40112 0.19303 0.0
Cd422 Cd 0.72615 0.3829 0.14657 0.0
O423 O 0.70447 0.37487 0.17343 0.0
O424 O 0.75258 0.41668 0.22348 0.0
O425 O 0.74096 0.43077 0.18785 0.0
C426 C 0.74791 0.43263 0.21111 0.0
C427 C 0.71673 0.38882 0.10318 0.0
C428 C 0.70529 0.37667 0.19803 0.0
C429 C 0.76841 0.37211 0.16416 0.0
O430 O 0.75369 0.36931 0.14913 0.0
O431 O 0.76752 0.3848 0.18237 0.0
O432 O 0.71618 0.37135 0.11332 0.0
O433 O 0.72184 0.40338 0.11806 0.0
O434 O 0.61036 0.72095 0.2114 0.0
Cd435 Cd 0.59507 0.74456 0.19608 0.0
Cd436 Cd 0.61287 0.72782 0.14904 0.0
O437 O 0.62124 0.70621 0.1758 0.0
O438 O 0.57967 0.75408 0.22665 0.0
O439 O 0.56541 0.74254 0.1911 0.0
C440 C 0.56367 0.7495 0.21437 0.0
C441 C 0.60712 0.71795 0.10582 0.0
C442 C 0.61952 0.70677 0.20041 0.0
C443 C 0.62361 0.77011 0.16656 0.0
O444 O 0.62616 0.75551 0.15125 0.0
O445 O 0.61135 0.76901 0.18525 0.0
O446 O 0.62458 0.71778 0.11597 0.0
O447 O 0.59247 0.72304 0.12056 0.0
H448 H 0.33283 0.2329 0.13729 0.0
H449 H 0.3757 0.19686 0.17835 0.0
H450 H 0.30987 0.20508 0.13645 0.0
H451 H 0.35298 0.1687 0.17664 0.0
H452 H 0.29682 0.13347 0.19983 0.0
H453 H 0.32288 0.15839 0.19645 0.0
H454 H 0.3027 0.17337 0.11915 0.0
H455 H 0.27615 0.14898 0.123 0.0
C456 C 0.3375 0.21893 0.14575 0.0
C457 C 0.35605 0.21717 0.15805 0.0
C458 C 0.32436 0.20288 0.14512 0.0
C459 C 0.32951 0.18459 0.15654 0.0
C460 C 0.34837 0.18264 0.16806 0.0
C461 C 0.36145 0.19877 0.16891 0.0
C462 C 0.29809 0.14192 0.182 0.0
C463 C 0.28429 0.13939 0.1618 0.0
C464 C 0.31312 0.15617 0.17998 0.0
C465 C 0.31482 0.16807 0.1576 0.0
C466 C 0.30157 0.16481 0.13691 0.0
C467 C 0.28642 0.15073 0.13904 0.0
H468 H 0.83606 0.26668 0.13809 0.0
H469 H 0.87692 0.30163 0.18392 0.0
H470 H 0.81327 0.29453 0.1363 0.0
H471 H 0.8544 0.32995 0.1812 0.0
H472 H 0.79712 0.36492 0.20048 0.0
H473 H 0.82359 0.34038 0.1984 0.0
H474 H 0.80675 0.32627 0.11948 0.0
H475 H 0.77969 0.35019 0.12209 0.0
C476 C 0.84035 0.28045 0.14742 0.0
C477 C 0.85826 0.28187 0.1613 0.0
C478 C 0.82731 0.29653 0.14622 0.0
C479 C 0.83193 0.31458 0.15859 0.0
C480 C 0.85017 0.3162 0.1718 0.0
C481 C 0.86315 0.3 0.17325 0.0
C482 C 0.79923 0.35675 0.18258 0.0
C483 C 0.78616 0.35932 0.16156 0.0
C484 C 0.81451 0.34272 0.18131 0.0
C485 C 0.81722 0.33111 0.15886 0.0
C486 C 0.80481 0.33455 0.13733 0.0
C487 C 0.78937 0.34836 0.13874 0.0
H488 H 0.63186 0.7983 0.20313 0.0
H489 H 0.64409 0.7821 0.12357 0.0
H490 H 0.65633 0.82482 0.20037 0.0
H491 H 0.66789 0.80922 0.12032 0.0
H492 H 0.72833 0.83746 0.13683 0.0
H493 H 0.70012 0.81516 0.13559 0.0
H494 H 0.6666 0.85583 0.18358 0.0
H495 H 0.69535 0.87787 0.18573 0.0
C496 C 0.63944 0.80071 0.18484 0.0
C497 C 0.63625 0.78795 0.16367 0.0
C498 C 0.65343 0.81602 0.18319 0.0
C499 C 0.66433 0.81907 0.1602 0.0
C500 C 0.66018 0.80701 0.13855 0.0
C501 C 0.64644 0.79152 0.14034 0.0
C502 C 0.7149 0.84178 0.14695 0.0
C503 C 0.71417 0.8594 0.16154 0.0
C504 C 0.69859 0.82902 0.14607 0.0
C505 C 0.68099 0.83363 0.15948 0.0
C506 C 0.68001 0.85162 0.17336 0.0
C507 C 0.69646 0.86432 0.17448 0.0
H508 H 0.22379 0.65125 0.12276 0.0
H509 H 0.20376 0.63528 0.19971 0.0
H510 H 0.19679 0.67514 0.11914 0.0
H511 H 0.17725 0.65975 0.19658 0.0
H512 H 0.12336 0.69683 0.1787 0.0
H513 H 0.14685 0.6693 0.17709 0.0
H514 H 0.18874 0.70663 0.13616 0.0
H515 H 0.16501 0.73378 0.13687 0.0
C516 C 0.2136 0.65283 0.1389 0.0
C517 C 0.216 0.64147 0.16159 0.0
C518 C 0.19817 0.66662 0.1369 0.0
C519 C 0.18492 0.66959 0.15767 0.0
C520 C 0.18698 0.65774 0.18005 0.0
C521 C 0.20227 0.64376 0.18192 0.0
C522 C 0.13751 0.69907 0.16912 0.0
C523 C 0.14233 0.71753 0.158 0.0
C524 C 0.15104 0.68331 0.16833 0.0
C525 C 0.16978 0.68571 0.15664 0.0
C526 C 0.17436 0.70407 0.14498 0.0
C527 C 0.16077 0.71973 0.14553 0.0
H528 H 0.30186 0.87565 0.33385 0.0
H529 H 0.2649 0.83488 0.37714 0.0
H530 H 0.32945 0.85227 0.33654 0.0
H531 H 0.29213 0.81128 0.379 0.0
H532 H 0.34751 0.77689 0.39451 0.0
H533 H 0.3237 0.80404 0.39677 0.0
H534 H 0.33902 0.82125 0.31837 0.0
H535 H 0.36338 0.79456 0.31654 0.0
C536 C 0.29963 0.86172 0.34398 0.0
C537 C 0.28114 0.85711 0.3552 0.0
C538 C 0.31542 0.84826 0.3454 0.0
C539 C 0.31304 0.82981 0.35788 0.0
C540 C 0.29466 0.82545 0.36959 0.0
C541 C 0.27896 0.83896 0.36838 0.0
C542 C 0.34595 0.78662 0.37786 0.0
C543 C 0.35723 0.78347 0.35526 0.0
C544 C 0.33221 0.80212 0.37909 0.0
C545 C 0.32922 0.81473 0.35764 0.0
C546 C 0.34104 0.81201 0.33538 0.0
C547 C 0.35496 0.79661 0.33426 0.0
H548 H 0.20214 0.36658 0.31639 0.0
H549 H 0.22276 0.34829 0.39217 0.0
H550 H 0.17545 0.34235 0.31873 0.0
H551 H 0.19547 0.32463 0.39513 0.0
H552 H 0.16319 0.26677 0.37506 0.0
H553 H 0.18691 0.29383 0.37713 0.0
H554 H 0.14523 0.33222 0.33749 0.0
H555 H 0.12177 0.30471 0.33438 0.0
C556 C 0.20073 0.35765 0.3338 0.0
C557 C 0.21469 0.35921 0.35398 0.0
C558 C 0.18531 0.3438 0.33523 0.0
C559 C 0.18331 0.33136 0.35705 0.0
C560 C 0.19678 0.33361 0.37776 0.0
C561 C 0.21238 0.34727 0.37616 0.0
C562 C 0.15899 0.28103 0.36697 0.0
C563 C 0.14064 0.28353 0.35437 0.0
C564 C 0.17258 0.29665 0.36832 0.0
C565 C 0.16808 0.31529 0.35742 0.0
C566 C 0.14939 0.31799 0.34566 0.0
C567 C 0.13587 0.30225 0.34401 0.0
H568 H 0.6963 0.11975 0.32821 0.0
H569 H 0.72828 0.15998 0.37849 0.0
H570 H 0.66748 0.14175 0.32956 0.0
H571 H 0.70005 0.18225 0.37892 0.0
H572 H 0.64384 0.21511 0.38974 0.0
H573 H 0.66765 0.18803 0.39334 0.0
H574 H 0.65719 0.17275 0.31292 0.0
H575 H 0.63266 0.1992 0.30982 0.0
C576 C 0.69717 0.13326 0.33957 0.0
C577 C 0.71461 0.13812 0.35318 0.0
C578 C 0.68069 0.14593 0.34024 0.0
C579 C 0.68137 0.16385 0.35431 0.0
C580 C 0.69873 0.16844 0.3683 0.0
C581 C 0.71506 0.15569 0.36788 0.0
C582 C 0.64643 0.20576 0.37296 0.0
C583 C 0.63652 0.2094 0.34944 0.0
C584 C 0.66019 0.1903 0.37495 0.0
C585 C 0.66466 0.17836 0.3533 0.0
C586 C 0.65404 0.18147 0.3301 0.0
C587 C 0.64002 0.19673 0.32825 0.0
H588 H 0.8049 0.62132 0.32705 0.0
H589 H 0.77139 0.66033 0.37726 0.0
H590 H 0.83317 0.64395 0.32933 0.0
H591 H 0.79919 0.68318 0.37874 0.0
H592 H 0.85505 0.71661 0.3914 0.0
H593 H 0.83167 0.68911 0.39396 0.0
H594 H 0.84239 0.67572 0.31304 0.0
H595 H 0.8664 0.70273 0.31086 0.0
C596 C 0.80358 0.63467 0.33865 0.0
C597 C 0.78584 0.63904 0.35189 0.0
C598 C 0.81975 0.64771 0.33983 0.0
C599 C 0.81849 0.66547 0.35414 0.0
C600 C 0.8009 0.66952 0.3679 0.0
C601 C 0.78484 0.65644 0.36689 0.0
C602 C 0.85261 0.70762 0.37426 0.0
C603 C 0.86242 0.71197 0.35086 0.0
C604 C 0.8391 0.69191 0.37567 0.0
C605 C 0.83486 0.68035 0.35361 0.0
C606 C 0.84538 0.68416 0.33051 0.0
C607 C 0.85911 0.69973 0.3292 0.0
H608 H 0.70171 0.86419 0.81788 0.0
H609 H 0.72469 0.84524 0.89223 0.0
H610 H 0.67553 0.83944 0.82088 0.0
H611 H 0.69795 0.82101 0.89582 0.0
H612 H 0.66533 0.76311 0.87618 0.0
H613 H 0.68908 0.79025 0.87746 0.0
H614 H 0.64597 0.82902 0.84125 0.0
H615 H 0.62248 0.80153 0.83897 0.0
C616 C 0.70095 0.85499 0.83512 0.0
C617 C 0.71539 0.85657 0.85471 0.0
C618 C 0.68583 0.84083 0.83693 0.0
C619 C 0.68463 0.82808 0.85854 0.0
C620 C 0.69864 0.83026 0.87863 0.0
C621 C 0.71391 0.84425 0.87666 0.0
C622 C 0.66084 0.77747 0.86868 0.0
C623 C 0.64206 0.7801 0.85729 0.0
C624 C 0.67445 0.79312 0.86957 0.0
C625 C 0.66953 0.81189 0.85937 0.0
C626 C 0.65044 0.81469 0.84882 0.0
C627 C 0.63691 0.79895 0.84765 0.0
H628 H 0.16127 0.7294 0.87586 0.0
H629 H 0.12101 0.69336 0.83052 0.0
H630 H 0.18464 0.70205 0.87776 0.0
H631 H 0.14416 0.66555 0.83333 0.0
H632 H 0.20217 0.63205 0.81347 0.0
H633 H 0.17522 0.65606 0.81572 0.0
H634 H 0.19194 0.67039 0.8946 0.0
H635 H 0.21943 0.64697 0.89188 0.0
C636 C 0.15723 0.7155 0.86668 0.0
C637 C 0.13932 0.71363 0.85287 0.0
C638 C 0.17062 0.6997 0.86793 0.0
C639 C 0.16636 0.68152 0.85566 0.0
C640 C 0.1481 0.67943 0.84263 0.0
C641 C 0.13477 0.69534 0.84114 0.0
C642 C 0.19994 0.64016 0.83139 0.0
C643 C 0.21308 0.63778 0.85238 0.0
C644 C 0.1844 0.65388 0.83276 0.0
C645 C 0.18147 0.66536 0.85527 0.0
C646 C 0.19401 0.66217 0.87673 0.0
C647 C 0.20971 0.64865 0.87524 0.0
H648 H 0.3648 0.1994 0.81149 0.0
H649 H 0.35141 0.2171 0.89018 0.0
H650 H 0.33994 0.17324 0.81429 0.0
H651 H 0.3272 0.19036 0.89349 0.0
H652 H 0.26709 0.16149 0.87688 0.0
H653 H 0.29515 0.18407 0.87768 0.0
H654 H 0.32941 0.14259 0.83182 0.0
H655 H 0.30087 0.1203 0.83009 0.0
C656 C 0.35686 0.1974 0.82961 0.0
C657 C 0.3599 0.21046 0.85051 0.0
C658 C 0.34264 0.18231 0.83128 0.0
C659 C 0.33133 0.17977 0.85403 0.0
C660 C 0.33523 0.19217 0.87543 0.0
C661 C 0.34922 0.20743 0.87361 0.0
C662 C 0.28065 0.15708 0.86712 0.0
C663 C 0.28168 0.13913 0.85328 0.0
C664 C 0.29686 0.17 0.86774 0.0
C665 C 0.31464 0.16522 0.85482 0.0
C666 C 0.31587 0.14695 0.84163 0.0
C667 C 0.29954 0.1341 0.84075 0.0
H668 H 0.85168 0.28106 0.89094 0.0
H669 H 0.86455 0.29669 0.8113 0.0
H670 H 0.82794 0.30825 0.89353 0.0
H671 H 0.84024 0.32343 0.81354 0.0
H672 H 0.8029 0.37783 0.82887 0.0
H673 H 0.8309 0.35489 0.83093 0.0
H674 H 0.79567 0.31453 0.87729 0.0
H675 H 0.76806 0.33768 0.876 0.0
C676 C 0.8495 0.29037 0.874 0.0
C677 C 0.85987 0.2866 0.85083 0.0
C678 C 0.83579 0.30589 0.87543 0.0
C679 C 0.83192 0.31789 0.85364 0.0
C680 C 0.84294 0.31464 0.8308 0.0
C681 C 0.85683 0.29923 0.82946 0.0
C682 C 0.80122 0.36415 0.83973 0.0
C683 C 0.7832 0.35957 0.85219 0.0
C684 C 0.81725 0.35094 0.84079 0.0
C685 C 0.81557 0.33279 0.85419 0.0
C686 C 0.79768 0.32849 0.86714 0.0
C687 C 0.78174 0.34174 0.86626 0.0
H688 H 0.62233 0.19715 0.68127 0.0
H689 H 0.66393 0.23247 0.63701 0.0
H690 H 0.64538 0.16923 0.68019 0.0
H691 H 0.68721 0.20493 0.63679 0.0
H692 H 0.72125 0.14889 0.62462 0.0
H693 H 0.6944 0.17292 0.62072 0.0
H694 H 0.67601 0.15968 0.6993 0.0
H695 H 0.70237 0.13506 0.70276 0.0
C696 C 0.63637 0.19895 0.67126 0.0
C697 C 0.64131 0.21708 0.65931 0.0
C698 C 0.64964 0.18297 0.67078 0.0
C699 C 0.66824 0.1848 0.65852 0.0
C700 C 0.67293 0.20281 0.64605 0.0
C701 C 0.6596 0.2187 0.64633 0.0
C702 C 0.71133 0.15096 0.64096 0.0
C703 C 0.71404 0.14018 0.66408 0.0
C704 C 0.696 0.16484 0.63879 0.0
C705 C 0.68314 0.16847 0.65979 0.0
C706 C 0.68544 0.15715 0.6826 0.0
C707 C 0.70064 0.14309 0.68465 0.0
H708 H 0.8008 0.62283 0.6771 0.0
H709 H 0.7629 0.66559 0.63881 0.0
H710 H 0.8284 0.64622 0.675 0.0
H711 H 0.79013 0.68923 0.63769 0.0
H712 H 0.84533 0.72452 0.62317 0.0
H713 H 0.82107 0.69781 0.6196 0.0
H714 H 0.83879 0.67591 0.69511 0.0
H715 H 0.86359 0.70207 0.69809 0.0
C716 C 0.79837 0.63722 0.66822 0.0
C717 C 0.77963 0.64237 0.65822 0.0
C718 C 0.81416 0.65069 0.66715 0.0
C719 C 0.81154 0.66972 0.65632 0.0
C720 C 0.79288 0.67464 0.6458 0.0
C721 C 0.77717 0.6611 0.64659 0.0
C722 C 0.84418 0.71386 0.63887 0.0
C723 C 0.85631 0.71549 0.66098 0.0
C724 C 0.83017 0.6986 0.63691 0.0
C725 C 0.82777 0.68476 0.65717 0.0
C726 C 0.84035 0.68609 0.67894 0.0
C727 C 0.85453 0.70119 0.68074 0.0
H728 H 0.29769 0.86595 0.69896 0.0
H729 H 0.27781 0.84834 0.62258 0.0
H730 H 0.32438 0.84167 0.69673 0.0
H731 H 0.30502 0.8246 0.61983 0.0
H732 H 0.33648 0.76622 0.64056 0.0
H733 H 0.31296 0.7935 0.63819 0.0
H734 H 0.3548 0.83163 0.67787 0.0
H735 H 0.37807 0.80399 0.68116 0.0
C736 C 0.29927 0.85718 0.68145 0.0
C737 C 0.2855 0.85893 0.66107 0.0
C738 C 0.31467 0.8433 0.68009 0.0
C739 C 0.31681 0.831 0.65817 0.0
C740 C 0.30358 0.83348 0.63726 0.0
C741 C 0.28804 0.84719 0.63876 0.0
C742 C 0.34076 0.78046 0.64858 0.0
C743 C 0.35909 0.78287 0.66124 0.0
C744 C 0.3273 0.7962 0.64706 0.0
C745 C 0.33191 0.81482 0.65791 0.0
C746 C 0.35058 0.81741 0.66972 0.0
C747 C 0.36398 0.80159 0.67148 0.0
H748 H 0.12131 0.30036 0.68198 0.0
H749 H 0.16273 0.26554 0.63687 0.0
H750 H 0.14383 0.3287 0.67984 0.0
H751 H 0.18553 0.29341 0.63568 0.0
H752 H 0.21907 0.34933 0.62225 0.0
H753 H 0.19224 0.32519 0.61912 0.0
H754 H 0.17436 0.33921 0.69766 0.0
H755 H 0.20059 0.36398 0.70026 0.0
C756 C 0.13521 0.29876 0.6716 0.0
C757 C 0.14024 0.28067 0.65967 0.0
C758 C 0.14819 0.31497 0.67049 0.0
C759 C 0.16659 0.3134 0.65766 0.0
C760 C 0.17138 0.29538 0.64532 0.0
C761 C 0.15832 0.27928 0.64617 0.0
C762 C 0.20922 0.34743 0.6387 0.0
C763 C 0.21205 0.35845 0.66157 0.0
C764 C 0.19391 0.33348 0.637 0.0
C765 C 0.18125 0.32998 0.65827 0.0
C766 C 0.18363 0.34161 0.68076 0.0
C767 C 0.19876 0.35577 0.68232 0.0
H768 H 0.20623 0.13596 0.07001 0.0
H769 H 0.21589 0.07271 0.07654 0.0
H770 H 0.20309 0.13288 0.02349 0.0
H771 H 0.21187 0.0694 0.02945 0.0
H772 H 0.23138 0.07859 0.94275 0.0
H773 H 0.22901 0.07669 0.99006 0.0
H774 H 0.18361 0.12214 0.98895 0.0
H775 H 0.18688 0.12472 0.94204 0.0
C776 C 0.20729 0.12127 0.06155 0.0
C777 C 0.21137 0.10459 0.07706 0.0
C778 C 0.20531 0.11945 0.03471 0.0
C779 C 0.20709 0.10085 0.02249 0.0
C780 C 0.21061 0.084 0.0381 0.0
C781 C 0.21277 0.08586 0.06511 0.0
C782 C 0.22068 0.0879 0.95267 0.0
C783 C 0.20953 0.102 0.93881 0.0
C784 C 0.21925 0.08679 0.97981 0.0
C785 C 0.2064 0.09956 0.99353 0.0
C786 C 0.19414 0.11252 0.97924 0.0
C787 C 0.19588 0.1139 0.95229 0.0
H788 H 0.9242 0.21656 0.93953 0.0
H789 H 0.86061 0.20969 0.94655 0.0
H790 H 0.92761 0.21196 0.98654 0.0
H791 H 0.86385 0.20589 0.99301 0.0
H792 H 0.87205 0.18777 0.07385 0.0
H793 H 0.87423 0.18516 0.02683 0.0
H794 H 0.92103 0.22916 0.02638 0.0
H795 H 0.91944 0.23095 0.07375 0.0
C796 C 0.91099 0.21395 0.95104 0.0
C797 C 0.89214 0.21349 0.93926 0.0
C798 C 0.91292 0.21144 0.978 0.0
C799 C 0.89603 0.20847 0.99371 0.0
C800 C 0.87728 0.20767 0.98167 0.0
C801 C 0.87539 0.21004 0.95488 0.0
C802 C 0.88308 0.19659 0.06373 0.0
C803 C 0.89543 0.20972 0.07742 0.0
C804 C 0.88424 0.19523 0.03672 0.0
C805 C 0.89747 0.20731 0.02262 0.0
C806 C 0.9107 0.21956 0.03651 0.0
C807 C 0.90977 0.22065 0.06368 0.0
H808 H 0.81068 0.87286 0.93986 0.0
H809 H 0.7663 0.91907 0.94202 0.0
H810 H 0.81425 0.8748 0.98678 0.0
H811 H 0.76903 0.92037 0.98932 0.0
H812 H 0.78306 0.92345 0.07563 0.0
H813 H 0.78665 0.9272 0.02854 0.0
H814 H 0.79495 0.86374 0.02146 0.0
H815 H 0.79218 0.86021 0.06801 0.0
C816 C 0.80179 0.88357 0.95041 0.0
C817 C 0.78807 0.89567 0.93732 0.0
C818 C 0.8037 0.88458 0.97738 0.0
C819 C 0.79159 0.8974 0.99207 0.0
C820 C 0.77868 0.91038 0.97876 0.0
C821 C 0.77705 0.90961 0.95162 0.0
C822 C 0.78596 0.91039 0.06396 0.0
C823 C 0.78734 0.89154 0.07561 0.0
C824 C 0.78788 0.91251 0.03695 0.0
C825 C 0.79114 0.8958 0.02102 0.0
C826 C 0.79291 0.87706 0.03293 0.0
C827 C 0.79115 0.87498 0.05978 0.0
H828 H 0.07348 0.78115 0.93717 0.0
H829 H 0.13644 0.79271 0.94311 0.0
H830 H 0.07028 0.78504 0.98427 0.0
H831 H 0.13349 0.79574 0.9897 0.0
H832 H 0.12492 0.81188 0.07133 0.0
H833 H 0.12234 0.81484 0.02438 0.0
H834 H 0.07818 0.76818 0.02361 0.0
H835 H 0.08008 0.76607 0.07093 0.0
C836 C 0.08659 0.78465 0.94848 0.0
C837 C 0.10521 0.78663 0.93635 0.0
C838 C 0.0848 0.78674 0.97551 0.0
C839 C 0.1016 0.79075 0.99098 0.0
C840 C 0.12009 0.79311 0.97859 0.0
C841 C 0.12183 0.7912 0.95172 0.0
C842 C 0.11438 0.80252 0.06115 0.0
C843 C 0.10284 0.78861 0.07475 0.0
C844 C 0.11301 0.80408 0.03417 0.0
C845 C 0.1004 0.79142 0.01996 0.0
C846 C 0.088 0.77826 0.03378 0.0
C847 C 0.08911 0.77698 0.06094 0.0
H848 H 0.18639 0.87415 0.44033 0.0
H849 H 0.23189 0.91931 0.44115 0.0
H850 H 0.18352 0.87635 0.48732 0.0
H851 H 0.22983 0.92087 0.4885 0.0
H852 H 0.20659 0.86148 0.56803 0.0
H853 H 0.20321 0.86494 0.52154 0.0
H854 H 0.2128 0.92825 0.5281 0.0
H855 H 0.21697 0.92456 0.57513 0.0
C856 C 0.19568 0.88469 0.4506 0.0
C857 C 0.20951 0.89641 0.43711 0.0
C858 C 0.19417 0.88585 0.4776 0.0
C859 C 0.20678 0.89844 0.49192 0.0
C860 C 0.2198 0.91106 0.47822 0.0
C861 C 0.22105 0.91014 0.45106 0.0
C862 C 0.20778 0.87621 0.5597 0.0
C863 C 0.21211 0.89273 0.57536 0.0
C864 C 0.20567 0.87825 0.5329 0.0
C865 C 0.20761 0.89692 0.52086 0.0
C866 C 0.21141 0.91361 0.53661 0.0
C867 C 0.21366 0.91153 0.56359 0.0
H868 H 0.12423 0.18557 0.57199 0.0
H869 H 0.07935 0.23131 0.57134 0.0
H870 H 0.1216 0.18243 0.52507 0.0
H871 H 0.07744 0.2291 0.52404 0.0
H872 H 0.07315 0.21651 0.43758 0.0
H873 H 0.06971 0.21245 0.48464 0.0
H874 H 0.13286 0.20145 0.49048 0.0
H875 H 0.13602 0.20461 0.44396 0.0
C876 C 0.11367 0.19486 0.56175 0.0
C877 C 0.10214 0.20881 0.57525 0.0
C878 C 0.11227 0.19322 0.53479 0.0
C879 C 0.09967 0.20586 0.52052 0.0
C880 C 0.08725 0.21903 0.53426 0.0
C881 C 0.08836 0.22037 0.5614 0.0
C882 C 0.08619 0.21291 0.44897 0.0
C883 C 0.10485 0.21087 0.43699 0.0
C884 C 0.08426 0.21072 0.47598 0.0
C885 C 0.10098 0.20657 0.49155 0.0
C886 C 0.11951 0.20417 0.47929 0.0
C887 C 0.12138 0.20616 0.45246 0.0
H888 H 0.76622 0.07836 0.57561 0.0
H889 H 0.8092 0.1259 0.57754 0.0
H890 H 0.76899 0.077 0.5283 0.0
H891 H 0.81285 0.12391 0.53064 0.0
H892 H 0.78322 0.07428 0.44191 0.0
H893 H 0.78678 0.07067 0.48903 0.0
H894 H 0.79312 0.13436 0.49606 0.0
H895 H 0.79039 0.13778 0.4495 0.0
C896 C 0.7767 0.0881 0.56596 0.0
C897 C 0.78728 0.10242 0.58017 0.0
C898 C 0.77835 0.08731 0.53882 0.0
C899 C 0.79085 0.10064 0.52545 0.0
C900 C 0.80259 0.11385 0.54008 0.0
C901 C 0.80064 0.11489 0.56703 0.0
C902 C 0.78567 0.08743 0.45358 0.0
C903 C 0.78654 0.1063 0.44192 0.0
C904 C 0.78758 0.08539 0.48061 0.0
C905 C 0.79032 0.1022 0.49651 0.0
C906 C 0.79151 0.12098 0.4846 0.0
C907 C 0.78977 0.12298 0.45775 0.0
H908 H 0.87235 0.80954 0.57455 0.0
H909 H 0.91981 0.76644 0.574 0.0
H910 H 0.87459 0.81258 0.52758 0.0
H911 H 0.92148 0.76869 0.52665 0.0
H912 H 0.92497 0.78233 0.44005 0.0
H913 H 0.92818 0.7864 0.48716 0.0
H914 H 0.86438 0.7922 0.49329 0.0
H915 H 0.86134 0.7889 0.44674 0.0
C916 C 0.8834 0.80083 0.56435 0.0
C917 C 0.89576 0.7876 0.57791 0.0
C918 C 0.8846 0.80243 0.53736 0.0
C919 C 0.89789 0.79053 0.52312 0.0
C920 C 0.91111 0.77816 0.53689 0.0
C921 C 0.91013 0.77681 0.56405 0.0
C922 C 0.91171 0.78478 0.45151 0.0
C923 C 0.89291 0.7853 0.4396 0.0
C924 C 0.91352 0.78697 0.47853 0.0
C925 C 0.89656 0.78969 0.49418 0.0
C926 C 0.87786 0.79059 0.48201 0.0
C927 C 0.87608 0.78852 0.45517 0.0
H928 H 0.73106 0.58022 0.57147 0.0
H929 H 0.68614 0.62594 0.57148 0.0
H930 H 0.72945 0.57867 0.5241 0.0
H931 H 0.68371 0.62377 0.52445 0.0
H932 H 0.70703 0.63784 0.44369 0.0
H933 H 0.7036 0.63473 0.49023 0.0
H934 H 0.71265 0.5713 0.48442 0.0
H935 H 0.7169 0.57463 0.43737 0.0
C936 C 0.72045 0.58953 0.56138 0.0
C937 C 0.70892 0.60339 0.57513 0.0
C938 C 0.71946 0.58862 0.53419 0.0
C939 C 0.70672 0.60137 0.52025 0.0
C940 C 0.69415 0.61415 0.53435 0.0
C941 C 0.6954 0.6153 0.56138 0.0
C942 C 0.70811 0.62316 0.4522 0.0
C943 C 0.71229 0.60649 0.43673 0.0
C944 C 0.70596 0.62133 0.47904 0.0
C945 C 0.70772 0.60272 0.4913 0.0
C946 C 0.71141 0.5859 0.47574 0.0
C947 C 0.71371 0.58777 0.44875 0.0
H948 H 0.42389 0.7159 0.44228 0.0
H949 H 0.36085 0.70589 0.45091 0.0
H950 H 0.42815 0.71212 0.48928 0.0
H951 H 0.36488 0.7029 0.49738 0.0
H952 H 0.37497 0.68689 0.57865 0.0
H953 H 0.37663 0.68349 0.53169 0.0
H954 H 0.42132 0.72958 0.52871 0.0
H955 H 0.42031 0.73217 0.57604 0.0
C956 C 0.41099 0.71276 0.45415 0.0
C957 C 0.39204 0.7112 0.44282 0.0
C958 C 0.41339 0.71073 0.48111 0.0
C959 C 0.39688 0.70715 0.49728 0.0
C960 C 0.37805 0.70519 0.48569 0.0
C961 C 0.37569 0.70708 0.4589 0.0
C962 C 0.38544 0.69601 0.56799 0.0
C963 C 0.39736 0.70993 0.58097 0.0
C964 C 0.38629 0.6942 0.541 0.0
C965 C 0.39875 0.7066 0.5262 0.0
C966 C 0.41159 0.7197 0.53938 0.0
C967 C 0.41099 0.72125 0.56654 0.0
H968 H 0.30971 0.37294 0.44085 0.0
H969 H 0.26625 0.42004 0.44223 0.0
H970 H 0.31285 0.37483 0.48783 0.0
H971 H 0.2685 0.42128 0.48957 0.0
H972 H 0.28162 0.42415 0.57614 0.0
H973 H 0.28567 0.42779 0.5291 0.0
H974 H 0.29321 0.36421 0.52229 0.0
H975 H 0.29002 0.36079 0.56881 0.0
C976 C 0.30092 0.38383 0.45125 0.0
C977 C 0.2876 0.39621 0.43791 0.0
C978 C 0.30257 0.38481 0.47826 0.0
C979 C 0.29057 0.39787 0.49274 0.0
C980 C 0.27807 0.41109 0.47919 0.0
C981 C 0.27671 0.41036 0.45201 0.0
C982 C 0.28446 0.41104 0.56455 0.0
C983 C 0.28551 0.39219 0.57627 0.0
C984 C 0.28664 0.41309 0.53755 0.0
C985 C 0.28982 0.39632 0.5217 0.0
C986 C 0.29124 0.37758 0.53369 0.0
C987 C 0.28924 0.37557 0.56053 0.0
H988 H 0.62802 0.30931 0.56975 0.0
H989 H 0.57983 0.26702 0.57063 0.0
H990 H 0.62577 0.3115 0.52271 0.0
H991 H 0.57814 0.26839 0.52325 0.0
H992 H 0.57412 0.28101 0.43642 0.0
H993 H 0.57143 0.28547 0.48351 0.0
H994 H 0.63532 0.29092 0.48848 0.0
H995 H 0.63785 0.28729 0.4419 0.0
C996 C 0.61683 0.30056 0.55985 0.0
C997 C 0.60423 0.28785 0.57387 0.0
C998 C 0.61563 0.30168 0.53281 0.0
C999 C 0.60208 0.28978 0.51895 0.0
C1000 C 0.58871 0.27786 0.53314 0.0
C1001 C 0.5897 0.27701 0.56034 0.0
C1002 C 0.58752 0.28346 0.44762 0.0
C1003 C 0.60619 0.28382 0.43536 0.0
C1004 C 0.58601 0.28587 0.47465 0.0
C1005 C 0.60314 0.28862 0.48998 0.0
C1006 C 0.62171 0.2893 0.47746 0.0
C1007 C 0.6232 0.28705 0.4506 0.0
H1008 H 0.73196 0.4196 0.94082 0.0
H1009 H 0.68928 0.37177 0.93944 0.0
H1010 H 0.72985 0.42066 0.98819 0.0
H1011 H 0.68632 0.37343 0.98645 0.0
H1012 H 0.70908 0.36 0.06763 0.0
H1013 H 0.70614 0.36323 0.02104 0.0
H1014 H 0.71239 0.42696 0.02762 0.0
H1015 H 0.71617 0.42354 0.07473 0.0
C1016 C 0.72172 0.40969 0.95061 0.0
C1017 C 0.71099 0.39543 0.93647 0.0
C1018 C 0.72044 0.41032 0.9778 0.0
C1019 C 0.70819 0.39686 0.99136 0.0
C1020 C 0.6964 0.38361 0.97687 0.0
C1021 C 0.69795 0.38275 0.94984 0.0
C1022 C 0.70964 0.37477 0.05928 0.0
C1023 C 0.7129 0.39151 0.07499 0.0
C1024 C 0.70778 0.37665 0.0324 0.0
C1025 C 0.7089 0.39539 0.02033 0.0
C1026 C 0.71166 0.41226 0.03613 0.0
C1027 C 0.71369 0.41033 0.06316 0.0
H1028 H 0.57259 0.71775 0.07701 0.0
H1029 H 0.63596 0.70875 0.07094 0.0
H1030 H 0.56941 0.71314 0.02999 0.0
H1031 H 0.63296 0.7049 0.02444 0.0
H1032 H 0.62459 0.68673 0.94349 0.0
H1033 H 0.62213 0.68446 0.99051 0.0
H1034 H 0.5769 0.73006 0.99016 0.0
H1035 H 0.57876 0.73157 0.94279 0.0
C1036 C 0.58579 0.71465 0.0657 0.0
C1037 C 0.60452 0.71362 0.07776 0.0
C1038 C 0.584 0.71214 0.03873 0.0
C1039 C 0.60091 0.70858 0.02327 0.0
C1040 C 0.61952 0.70717 0.03559 0.0
C1041 C 0.62127 0.70955 0.06239 0.0
C1042 C 0.61385 0.696 0.95342 0.0
C1043 C 0.60202 0.70948 0.93949 0.0
C1044 C 0.61253 0.69483 0.98045 0.0
C1045 C 0.59965 0.70741 0.99433 0.0
C1046 C 0.58694 0.72006 0.98021 0.0
C1047 C 0.58803 0.72099 0.95303 0.0
H1048 H 0.31072 0.62613 0.07458 0.0
H1049 H 0.26737 0.57891 0.07412 0.0
H1050 H 0.31385 0.62372 0.02764 0.0
H1051 H 0.26964 0.57712 0.0268 0.0
H1052 H 0.28278 0.57356 0.9402 0.0
H1053 H 0.28695 0.57032 0.98729 0.0
H1054 H 0.2938 0.63402 0.99327 0.0
H1055 H 0.29046 0.63707 0.94673 0.0
C1056 C 0.30197 0.61509 0.0644 0.0
C1057 C 0.28866 0.60285 0.07796 0.0
C1058 C 0.30362 0.61381 0.03742 0.0
C1059 C 0.29164 0.60057 0.0232 0.0
C1060 C 0.27918 0.58745 0.03699 0.0
C1061 C 0.27782 0.58849 0.06414 0.0
C1062 C 0.28548 0.58679 0.95163 0.0
C1063 C 0.28629 0.60557 0.93968 0.0
C1064 C 0.28774 0.58496 0.97864 0.0
C1065 C 0.29079 0.60188 0.99425 0.0
C1066 C 0.29195 0.62056 0.98204 0.0
C1067 C 0.28985 0.62235 0.9552 0.0
H1068 H 0.36023 0.28878 0.94279 0.0
H1069 H 0.42377 0.28082 0.93737 0.0
H1070 H 0.36286 0.29249 0.98934 0.0
H1071 H 0.42658 0.28535 0.98443 0.0
H1072 H 0.41753 0.26704 0.07152 0.0
H1073 H 0.41939 0.26847 0.02416 0.0
H1074 H 0.37294 0.31284 0.02355 0.0
H1075 H 0.37049 0.31058 0.07058 0.0
C1076 C 0.37487 0.28818 0.95149 0.0
C1077 C 0.39179 0.28445 0.93628 0.0
C1078 C 0.37641 0.29049 0.97834 0.0
C1079 C 0.39496 0.28935 0.99086 0.0
C1080 C 0.41202 0.28611 0.97556 0.0
C1081 C 0.41044 0.28365 0.94855 0.0
C1082 C 0.40797 0.27732 0.06123 0.0
C1083 C 0.39368 0.2885 0.07471 0.0
C1084 C 0.40906 0.27821 0.03404 0.0
C1085 C 0.39604 0.2905 0.01983 0.0
C1086 C 0.38279 0.30273 0.03366 0.0
C1087 C 0.38148 0.30158 0.06069 0.0
H1088 H 0.2405 0.02838 0.19367 0.0
H1089 H 0.26163 0.05821 0.26265 0.0
H1090 H 0.2418 0.99663 0.21663 0.0
H1091 H 0.26312 0.02652 0.28541 0.0
H1092 H 0.23763 0.97009 0.32503 0.0
H1093 H 0.23928 0.00194 0.30234 0.0
H1094 H 0.26547 0.97293 0.23583 0.0
H1095 H 0.26363 0.94115 0.2583 0.0
C1096 C 0.24562 0.02814 0.21361 0.0
C1097 C 0.25091 0.04582 0.22633 0.0
C1098 C 0.24643 0.00995 0.22675 0.0
C1099 C 0.25248 0.00909 0.25289 0.0
C1100 C 0.25814 0.02673 0.26541 0.0
C1101 C 0.2574 0.04487 0.25227 0.0
C1102 C 0.2439 0.97055 0.30567 0.0
C1103 C 0.25043 0.95308 0.29346 0.0
C1104 C 0.24491 0.9888 0.29269 0.0
C1105 C 0.25241 0.98992 0.26722 0.0
C1106 C 0.25935 0.97251 0.25528 0.0
C1107 C 0.25841 0.95432 0.26826 0.0
H1108 H 0.94053 0.2611 0.25941 0.0
H1109 H 0.97063 0.23888 0.19123 0.0
H1110 H 0.97216 0.26325 0.28218 0.0
H1111 H 0.00233 0.24085 0.21421 0.0
H1112 H 0.05757 0.2639 0.25555 0.0
H1113 H 0.02587 0.26504 0.2328 0.0
H1114 H 0.99678 0.2398 0.29993 0.0
H1115 H 0.02854 0.23884 0.32288 0.0
C1116 C 0.95391 0.25678 0.2492 0.0
C1117 C 0.95306 0.24977 0.22349 0.0
C1118 C 0.97202 0.25789 0.26235 0.0
C1119 C 0.98973 0.25211 0.25008 0.0
C1120 C 0.98896 0.24558 0.22413 0.0
C1121 C 0.9708 0.24438 0.21099 0.0
C1122 C 0.0444 0.25874 0.26558 0.0
C1123 C 0.04558 0.25123 0.29104 0.0
C1124 C 0.02626 0.25927 0.25244 0.0
C1125 C 0.00885 0.25241 0.26449 0.0
C1126 C 0.00992 0.24537 0.29019 0.0
C1127 C 0.02811 0.24475 0.30333 0.0
H1128 H 0.76113 0.02719 0.3243 0.0
H1129 H 0.73959 0.05756 0.25589 0.0
H1130 H 0.75969 0.99563 0.30099 0.0
H1131 H 0.73788 0.02606 0.23281 0.0
H1132 H 0.76211 0.96994 0.19186 0.0
H1133 H 0.76107 0.00157 0.21505 0.0
H1134 H 0.73614 0.97204 0.28205 0.0
H1135 H 0.73744 0.94046 0.25911 0.0
C1136 C 0.75589 0.02711 0.30441 0.0
C1137 C 0.75053 0.04488 0.29195 0.0
C1138 C 0.755 0.00903 0.29107 0.0
C1139 C 0.74875 0.00836 0.26499 0.0
C1140 C 0.74303 0.0261 0.25274 0.0
C1141 C 0.74389 0.04414 0.26606 0.0
C1142 C 0.75626 0.97024 0.21146 0.0
C1143 C 0.74992 0.95268 0.22365 0.0
C1144 C 0.7556 0.98837 0.22472 0.0
C1145 C 0.74861 0.98929 0.25046 0.0
C1146 C 0.74188 0.97178 0.26241 0.0
C1147 C 0.74251 0.9537 0.24916 0.0
H1148 H 0.05837 0.73509 0.25414 0.0
H1149 H 0.02921 0.76191 0.18806 0.0
H1150 H 0.02674 0.73348 0.27698 0.0
H1151 H 0.99754 0.76053 0.21115 0.0
H1152 H 0.94125 0.73885 0.25118 0.0
H1153 H 0.97272 0.73721 0.22799 0.0
H1154 H 0.00349 0.75695 0.29693 0.0
H1155 H 0.97196 0.75834 0.32033 0.0
C1156 C 0.04518 0.74055 0.2444 0.0
C1157 C 0.04631 0.74868 0.21927 0.0
C1158 C 0.02708 0.73974 0.25761 0.0
C1159 C 0.00965 0.74699 0.24598 0.0
C1160 C 0.01067 0.75465 0.22057 0.0
C1161 C 0.02882 0.7555 0.20735 0.0
C1162 C 0.95473 0.74271 0.26149 0.0
C1163 C 0.9541 0.74876 0.28762 0.0
C1164 C 0.97276 0.74188 0.24811 0.0
C1165 C 0.99059 0.74704 0.26055 0.0
C1166 C 0.99002 0.75269 0.28686 0.0
C1167 C 0.97196 0.75356 0.30025 0.0
H1168 H 0.73336 0.94068 0.75715 0.0
H1169 H 0.75833 0.96923 0.82486 0.0
H1170 H 0.73156 0.97266 0.73513 0.0
H1171 H 0.75675 0.00125 0.80261 0.0
H1172 H 0.73522 0.05785 0.76339 0.0
H1173 H 0.73331 0.02595 0.78558 0.0
H1174 H 0.75513 0.99662 0.71666 0.0
H1175 H 0.75681 0.02857 0.69427 0.0
C1176 C 0.73836 0.95381 0.76742 0.0
C1177 C 0.74604 0.9524 0.79277 0.0
C1178 C 0.73744 0.97211 0.7547 0.0
C1179 C 0.74413 0.98947 0.76703 0.0
C1180 C 0.75131 0.98817 0.79265 0.0
C1181 C 0.75228 0.96982 0.80538 0.0
C1182 C 0.73945 0.04459 0.75285 0.0
C1183 C 0.74621 0.04576 0.72705 0.0
C1184 C 0.73847 0.02632 0.76567 0.0
C1185 C 0.74417 0.00877 0.75296 0.0
C1186 C 0.75045 0.00986 0.72692 0.0
C1187 C 0.75148 0.02817 0.71411 0.0
H1188 H 0.93971 0.73507 0.75962 0.0
H1189 H 0.96885 0.75801 0.69109 0.0
H1190 H 0.97156 0.73352 0.78198 0.0
H1191 H 0.00075 0.75665 0.71365 0.0
H1192 H 0.05674 0.73456 0.75432 0.0
H1193 H 0.02492 0.73295 0.73191 0.0
H1194 H 0.99584 0.75744 0.79945 0.0
H1195 H 0.02772 0.75888 0.82207 0.0
C1196 C 0.95293 0.73967 0.74925 0.0
C1197 C 0.95174 0.7467 0.72356 0.0
C1198 C 0.97116 0.73891 0.76216 0.0
C1199 C 0.98865 0.74508 0.74967 0.0
C1200 C 0.98755 0.75163 0.72374 0.0
C1201 C 0.96928 0.75247 0.71083 0.0
C1202 C 0.04355 0.73947 0.76451 0.0
C1203 C 0.04477 0.74688 0.79 0.0
C1204 C 0.02534 0.73866 0.75156 0.0
C1205 C 0.00788 0.74516 0.76384 0.0
C1206 C 0.00901 0.75215 0.78955 0.0
C1207 C 0.02727 0.75304 0.80248 0.0
H1208 H 0.26225 0.93991 0.7601 0.0
H1209 H 0.23859 0.96933 0.6922 0.0
H1210 H 0.26336 0.97154 0.78296 0.0
H1211 H 0.23945 0.00101 0.71528 0.0
H1212 H 0.26032 0.05705 0.75637 0.0
H1213 H 0.2625 0.02547 0.73354 0.0
H1214 H 0.23952 0.99524 0.80121 0.0
H1215 H 0.23759 0.02689 0.82427 0.0
C1216 C 0.25737 0.95315 0.74999 0.0
C1217 C 0.25029 0.9521 0.72432 0.0
C1218 C 0.25788 0.97126 0.76318 0.0
C1219 C 0.25138 0.98876 0.75102 0.0
C1220 C 0.24474 0.98781 0.72513 0.0
C1221 C 0.24418 0.96966 0.71192 0.0
C1222 C 0.25587 0.04366 0.7665 0.0
C1223 C 0.24873 0.04449 0.79215 0.0
C1224 C 0.257 0.02558 0.75332 0.0
C1225 C 0.25107 0.00787 0.76548 0.0
C1226 C 0.24438 0.00861 0.79136 0.0
C1227 C 0.24321 0.02674 0.80456 0.0
H1228 H 0.97001 0.24026 0.82106 0.0
H1229 H 0.94016 0.26127 0.752 0.0
H1230 H 0.00169 0.24115 0.79799 0.0
H1231 H 0.9718 0.26247 0.72914 0.0
H1232 H 0.02768 0.23667 0.68912 0.0
H1233 H 0.99598 0.2388 0.71201 0.0
H1234 H 0.02578 0.26391 0.77866 0.0
H1235 H 0.05744 0.26151 0.75602 0.0
C1236 C 0.97024 0.2453 0.80108 0.0
C1237 C 0.95256 0.25062 0.78836 0.0
C1238 C 0.98839 0.24588 0.78787 0.0
C1239 C 0.98925 0.25179 0.76166 0.0
C1240 C 0.97162 0.25755 0.74917 0.0
C1241 C 0.9535 0.25699 0.76237 0.0
C1242 C 0.02743 0.24281 0.70856 0.0
C1243 C 0.04508 0.24885 0.72077 0.0
C1244 C 0.00926 0.24409 0.72165 0.0
C1245 C 0.00837 0.25143 0.74723 0.0
C1246 C 0.02599 0.2579 0.75915 0.0
C1247 C 0.04412 0.25665 0.74607 0.0
H1248 H 0.73763 0.52877 0.68895 0.0
H1249 H 0.76133 0.55903 0.75616 0.0
H1250 H 0.73938 0.49723 0.71234 0.0
H1251 H 0.76324 0.52754 0.77936 0.0
H1252 H 0.73842 0.47182 0.82138 0.0
H1253 H 0.73958 0.5034 0.79798 0.0
H1254 H 0.7635 0.47345 0.73073 0.0
H1255 H 0.76219 0.44194 0.75393 0.0
C1256 C 0.74342 0.52867 0.70858 0.0
C1257 C 0.74929 0.54641 0.72069 0.0
C1258 C 0.74448 0.51059 0.72196 0.0
C1259 C 0.75136 0.50991 0.74777 0.0
C1260 C 0.75761 0.52761 0.75964 0.0
C1261 C 0.75664 0.54563 0.74625 0.0
C1262 C 0.74409 0.47202 0.80169 0.0
C1263 C 0.75016 0.45436 0.78952 0.0
C1264 C 0.74481 0.49011 0.7883 0.0
C1265 C 0.75154 0.49089 0.76244 0.0
C1266 C 0.75798 0.47329 0.7505 0.0
C1267 C 0.75735 0.45526 0.76389 0.0
H1268 H 0.55874 0.76228 0.75896 0.0
H1269 H 0.52834 0.73903 0.82639 0.0
H1270 H 0.52725 0.7643 0.73579 0.0
H1271 H 0.49679 0.74094 0.80302 0.0
H1272 H 0.4417 0.76405 0.76117 0.0
H1273 H 0.47323 0.76535 0.78432 0.0
H1274 H 0.50297 0.74042 0.71755 0.0
H1275 H 0.47137 0.73924 0.6942 0.0
C1276 C 0.54532 0.75772 0.76893 0.0
C1277 C 0.54605 0.75045 0.79454 0.0
C1278 C 0.5273 0.75876 0.75555 0.0
C1279 C 0.50957 0.75267 0.7675 0.0
C1280 C 0.5102 0.7459 0.79335 0.0
C1281 C 0.52827 0.74475 0.80672 0.0
C1282 C 0.45498 0.759 0.7513 0.0
C1283 C 0.45402 0.7515 0.72583 0.0
C1284 C 0.47302 0.75962 0.76466 0.0
C1285 C 0.49056 0.75288 0.75284 0.0
C1286 C 0.48972 0.74588 0.72711 0.0
C1287 C 0.47162 0.74514 0.71377 0.0
H1288 H 0.25967 0.46872 0.69153 0.0
H1289 H 0.23506 0.44043 0.75968 0.0
H1290 H 0.25899 0.50069 0.71392 0.0
H1291 H 0.23412 0.47235 0.78184 0.0
H1292 H 0.25962 0.52791 0.82252 0.0
H1293 H 0.258 0.49605 0.79996 0.0
H1294 H 0.23599 0.52559 0.73124 0.0
H1295 H 0.23787 0.55741 0.75357 0.0
C1296 C 0.25391 0.46936 0.71115 0.0
C1297 C 0.24748 0.45203 0.72383 0.0
C1298 C 0.25346 0.48768 0.72396 0.0
C1299 C 0.24659 0.48903 0.74972 0.0
C1300 C 0.23978 0.47175 0.76216 0.0
C1301 C 0.24019 0.45348 0.74936 0.0
C1302 C 0.25431 0.52758 0.80266 0.0
C1303 C 0.24893 0.54519 0.78983 0.0
C1304 C 0.25331 0.50932 0.78976 0.0
C1305 C 0.24693 0.50831 0.76376 0.0
C1306 C 0.24123 0.5259 0.75112 0.0
C1307 C 0.24219 0.54412 0.76401 0.0
H1308 H 0.47005 0.25792 0.81966 0.0
H1309 H 0.44117 0.23508 0.75092 0.0
H1310 H 0.50187 0.25765 0.79683 0.0
H1311 H 0.47293 0.23459 0.7283 0.0
H1312 H 0.52847 0.26104 0.68814 0.0
H1313 H 0.4967 0.25893 0.71093 0.0
H1314 H 0.52649 0.23479 0.77822 0.0
H1315 H 0.55819 0.23711 0.75566 0.0
C1316 C 0.47052 0.25264 0.79981 0.0
C1317 C 0.45308 0.24656 0.78711 0.0
C1318 C 0.48875 0.25242 0.78674 0.0
C1319 C 0.4899 0.24619 0.7607 0.0
C1320 C 0.4725 0.23975 0.74821 0.0
C1321 C 0.45432 0.23991 0.76128 0.0
C1322 C 0.5282 0.25515 0.70771 0.0
C1323 C 0.54586 0.24929 0.72008 0.0
C1324 C 0.51 0.25387 0.72075 0.0
C1325 C 0.5091 0.24677 0.74644 0.0
C1326 C 0.52672 0.24059 0.7586 0.0
C1327 C 0.54488 0.2418 0.74556 0.0
H1328 H 0.25786 0.52905 0.19192 0.0
H1329 H 0.23575 0.55893 0.26033 0.0
H1330 H 0.25613 0.49732 0.21482 0.0
H1331 H 0.23379 0.52724 0.28302 0.0
H1332 H 0.25896 0.47111 0.32353 0.0
H1333 H 0.25733 0.50288 0.30067 0.0
H1334 H 0.23259 0.47343 0.23354 0.0
H1335 H 0.23445 0.44171 0.25617 0.0
C1336 C 0.2524 0.52882 0.2117 0.0
C1337 C 0.24702 0.54652 0.22431 0.0
C1338 C 0.25134 0.51064 0.22481 0.0
C1339 C 0.24492 0.50978 0.25081 0.0
C1340 C 0.23907 0.52743 0.26315 0.0
C1341 C 0.24007 0.54558 0.25005 0.0
C1342 C 0.253 0.47146 0.30399 0.0
C1343 C 0.24691 0.45388 0.29166 0.0
C1344 C 0.252 0.48966 0.29092 0.0
C1345 C 0.24492 0.49065 0.26522 0.0
C1346 C 0.23839 0.47312 0.25316 0.0
C1347 C 0.23934 0.45496 0.26623 0.0
H1348 H 0.52734 0.25763 0.31848 0.0
H1349 H 0.55628 0.23549 0.2494 0.0
H1350 H 0.4955 0.2573 0.29571 0.0
H1351 H 0.52449 0.23496 0.22683 0.0
H1352 H 0.46864 0.26143 0.1873 0.0
H1353 H 0.50048 0.2594 0.20993 0.0
H1354 H 0.47112 0.23414 0.27684 0.0
H1355 H 0.43934 0.23635 0.25444 0.0
C1356 C 0.52688 0.25251 0.29856 0.0
C1357 C 0.54434 0.24663 0.28576 0.0
C1358 C 0.50864 0.25225 0.28553 0.0
C1359 C 0.5075 0.24618 0.25942 0.0
C1360 C 0.52492 0.23998 0.24681 0.0
C1361 C 0.54312 0.24016 0.25984 0.0
C1362 C 0.46902 0.2553 0.20675 0.0
C1363 C 0.45146 0.2491 0.21907 0.0
C1364 C 0.48726 0.25408 0.21969 0.0
C1365 C 0.48829 0.24669 0.24524 0.0
C1366 C 0.47077 0.24015 0.25733 0.0
C1367 C 0.45258 0.24131 0.24438 0.0
H1368 H 0.76226 0.55714 0.25398 0.0
H1369 H 0.73754 0.52872 0.32198 0.0
H1370 H 0.76338 0.52523 0.2318 0.0
H1371 H 0.73845 0.49675 0.29957 0.0
H1372 H 0.76089 0.44029 0.26024 0.0
H1373 H 0.76209 0.47216 0.2825 0.0
H1374 H 0.73967 0.50119 0.21362 0.0
H1375 H 0.73869 0.46925 0.19114 0.0
C1376 C 0.75713 0.54407 0.26426 0.0
C1377 C 0.74979 0.54547 0.28977 0.0
C1378 C 0.75765 0.5258 0.25145 0.0
C1379 C 0.75091 0.50849 0.26386 0.0
C1380 C 0.74392 0.50981 0.28956 0.0
C1381 C 0.74334 0.52812 0.30238 0.0
C1382 C 0.75633 0.45347 0.24974 0.0
C1383 C 0.74967 0.45223 0.22389 0.0
C1384 C 0.75689 0.47172 0.26259 0.0
C1385 C 0.75088 0.48918 0.24989 0.0
C1386 C 0.74458 0.48801 0.22387 0.0
C1387 C 0.74395 0.46972 0.21101 0.0
H1388 H 0.43895 0.76115 0.25813 0.0
H1389 H 0.46879 0.73934 0.32679 0.0
H1390 H 0.47067 0.76326 0.2356 0.0
H1391 H 0.50056 0.74116 0.30402 0.0
H1392 H 0.55609 0.76357 0.263 0.0
H1393 H 0.52434 0.76473 0.28558 0.0
H1394 H 0.49529 0.74026 0.21797 0.0
H1395 H 0.52707 0.73938 0.19514 0.0
C1396 C 0.4523 0.75689 0.26848 0.0
C1397 C 0.45134 0.75003 0.29426 0.0
C1398 C 0.47046 0.75798 0.25547 0.0
C1399 C 0.48812 0.75226 0.26793 0.0
C1400 C 0.48724 0.74586 0.29394 0.0
C1401 C 0.46903 0.74475 0.30697 0.0
C1402 C 0.54291 0.75857 0.25284 0.0
C1403 C 0.54411 0.75134 0.22726 0.0
C1404 C 0.52473 0.75912 0.26588 0.0
C1405 C 0.50731 0.75249 0.25365 0.0
C1406 C 0.50842 0.74566 0.22786 0.0
C1407 C 0.52664 0.74509 0.2148 0.0
H1408 H 0.20446 0.12353 0.25234 0.0
H1409 H 0.1689 0.13663 0.18456 0.0
H1410 H 0.18139 0.14186 0.27926 0.0
H1411 H 0.14519 0.15443 0.21185 0.0
H1412 H 0.12606 0.20797 0.26195 0.0
H1413 H 0.14402 0.18505 0.23425 0.0
H1414 H 0.14971 0.14404 0.2985 0.0
H1415 H 0.13239 0.16748 0.3266 0.0
C1416 C 0.19149 0.13001 0.24321 0.0
C1417 C 0.18866 0.12877 0.2162 0.0
C1418 C 0.17811 0.14043 0.25876 0.0
C1419 C 0.1614 0.14975 0.2478 0.0
C1420 C 0.15809 0.14776 0.22091 0.0
C1421 C 0.17161 0.13746 0.20526 0.0
C1422 C 0.13095 0.19398 0.27016 0.0
C1423 C 0.12799 0.18967 0.2966 0.0
C1424 C 0.14115 0.18071 0.25416 0.0
C1425 C 0.14849 0.16269 0.2641 0.0
C1426 C 0.14465 0.15796 0.29028 0.0
C1427 C 0.13462 0.17135 0.30638 0.0
H1428 H 0.84954 0.17588 0.18766 0.0
H1429 H 0.88932 0.1932 0.24944 0.0
H1430 H 0.83197 0.15403 0.2174 0.0
H1431 H 0.87239 0.17058 0.27902 0.0
H1432 H 0.82011 0.15165 0.33113 0.0
H1433 H 0.84238 0.16919 0.30184 0.0
H1434 H 0.83135 0.1251 0.24248 0.0
H1435 H 0.8083 0.10819 0.27145 0.0
C1436 C 0.85483 0.17465 0.20747 0.0
C1437 C 0.87069 0.18641 0.21626 0.0
C1438 C 0.84481 0.16201 0.22457 0.0
C1439 C 0.85061 0.16058 0.2508 0.0
C1440 C 0.86717 0.17161 0.25917 0.0
C1441 C 0.87699 0.18448 0.24216 0.0
C1442 C 0.82265 0.14558 0.31194 0.0
C1443 C 0.81229 0.12866 0.30351 0.0
C1444 C 0.83553 0.15558 0.29511 0.0
C1445 C 0.8386 0.14872 0.26958 0.0
C1446 C 0.82901 0.13114 0.26172 0.0
C1447 C 0.8159 0.12134 0.2784 0.0
H1448 H 0.89 0.80699 0.26926 0.0
H1449 H 0.84639 0.81693 0.32939 0.0
H1450 H 0.8723 0.82974 0.24072 0.0
H1451 H 0.82814 0.83901 0.3005 0.0
H1452 H 0.80374 0.88659 0.24868 0.0
H1453 H 0.82635 0.86945 0.27803 0.0
H1454 H 0.84299 0.82955 0.21595 0.0
H1455 H 0.82102 0.84724 0.18642 0.0
C1456 C 0.87665 0.81412 0.27642 0.0
C1457 C 0.86952 0.81006 0.30153 0.0
C1458 C 0.86641 0.82706 0.25997 0.0
C1459 C 0.84859 0.83606 0.26807 0.0
C1460 C 0.84191 0.83258 0.29361 0.0
C1461 C 0.85233 0.81984 0.3102 0.0
C1462 C 0.81243 0.87431 0.24124 0.0
C1463 C 0.81051 0.86821 0.21524 0.0
C1464 C 0.82531 0.86438 0.25813 0.0
C1465 C 0.83641 0.84795 0.24953 0.0
C1466 C 0.83493 0.84229 0.22326 0.0
C1467 C 0.82224 0.85238 0.20629 0.0
H1468 H 0.16585 0.86536 0.32734 0.0
H1469 H 0.20532 0.87506 0.26236 0.0
H1470 H 0.14262 0.84819 0.29874 0.0
H1471 H 0.18261 0.85733 0.23412 0.0
H1472 H 0.12367 0.79416 0.24948 0.0
H1473 H 0.14134 0.81699 0.2776 0.0
H1474 H 0.15163 0.85614 0.21237 0.0
H1475 H 0.13451 0.83278 0.1839 0.0
C1476 C 0.16953 0.86393 0.30695 0.0
C1477 C 0.18753 0.87144 0.29722 0.0
C1478 C 0.15626 0.85399 0.29056 0.0
C1479 C 0.16078 0.85118 0.26411 0.0
C1480 C 0.17844 0.8594 0.25425 0.0
C1481 C 0.19159 0.86948 0.27055 0.0
C1482 C 0.12949 0.80774 0.24112 0.0
C1483 C 0.12785 0.81151 0.21434 0.0
C1484 C 0.13954 0.82096 0.25735 0.0
C1485 C 0.14806 0.83841 0.2473 0.0
C1486 C 0.14559 0.84266 0.22071 0.0
C1487 C 0.13567 0.82932 0.20439 0.0
H1488 H 0.86368 0.83092 0.68606 0.0
H1489 H 0.87399 0.79308 0.75255 0.0
H1490 H 0.84638 0.85463 0.71386 0.0
H1491 H 0.8561 0.81618 0.77995 0.0
H1492 H 0.79237 0.87426 0.76257 0.0
H1493 H 0.81539 0.85634 0.73503 0.0
H1494 H 0.85442 0.84731 0.80069 0.0
H1495 H 0.83081 0.86461 0.82862 0.0
C1496 C 0.86235 0.8277 0.7066 0.0
C1497 C 0.87009 0.81002 0.717 0.0
C1498 C 0.85233 0.84124 0.72254 0.0
C1499 C 0.84964 0.83729 0.74918 0.0
C1500 C 0.85807 0.81994 0.75967 0.0
C1501 C 0.86824 0.80655 0.74383 0.0
C1502 C 0.80596 0.86866 0.77115 0.0
C1503 C 0.80962 0.87068 0.79791 0.0
C1504 C 0.8193 0.85848 0.75524 0.0
C1505 C 0.83677 0.85022 0.76558 0.0
C1506 C 0.84092 0.85311 0.79213 0.0
C1507 C 0.82744 0.86314 0.80814 0.0
H1508 H 0.20546 0.87317 0.75053 0.0
H1509 H 0.16944 0.86034 0.68312 0.0
H1510 H 0.18245 0.85494 0.7777 0.0
H1511 H 0.14576 0.84269 0.71065 0.0
H1512 H 0.12575 0.7897 0.76102 0.0
H1513 H 0.14407 0.81225 0.73316 0.0
H1514 H 0.15101 0.85304 0.79736 0.0
H1515 H 0.13335 0.82993 0.82562 0.0
C1516 C 0.1924 0.86677 0.74154 0.0
C1517 C 0.18941 0.86807 0.71455 0.0
C1518 C 0.17905 0.8564 0.75723 0.0
C1519 C 0.1622 0.84723 0.74646 0.0
C1520 C 0.15876 0.84924 0.71959 0.0
C1521 C 0.17227 0.85946 0.70379 0.0
C1522 C 0.131 0.80357 0.76918 0.0
C1523 C 0.12827 0.80789 0.79566 0.0
C1524 C 0.14141 0.81662 0.75309 0.0
C1525 C 0.14918 0.83448 0.76295 0.0
C1526 C 0.14562 0.83924 0.78918 0.0
C1527 C 0.13539 0.82604 0.80539 0.0
H1528 H 0.14902 0.1751 0.68524 0.0
H1529 H 0.10793 0.19083 0.74625 0.0
H1530 H 0.16641 0.15304 0.71487 0.0
H1531 H 0.12465 0.16794 0.77568 0.0
H1532 H 0.17624 0.14921 0.82892 0.0
H1533 H 0.1541 0.16665 0.79942 0.0
H1534 H 0.1674 0.12387 0.73921 0.0
H1535 H 0.19038 0.1071 0.76846 0.0
C1536 C 0.1434 0.17346 0.70483 0.0
C1537 C 0.12724 0.18485 0.71347 0.0
C1538 C 0.15332 0.16069 0.72188 0.0
C1539 C 0.14709 0.15874 0.74788 0.0
C1540 C 0.13021 0.16938 0.75604 0.0
C1541 C 0.12051 0.1824 0.73911 0.0
C1542 C 0.17423 0.14339 0.80949 0.0
C1543 C 0.18521 0.12692 0.80094 0.0
C1544 C 0.16141 0.15333 0.79253 0.0
C1545 C 0.15901 0.14683 0.76672 0.0
C1546 C 0.16921 0.12965 0.75869 0.0
C1547 C 0.18229 0.11992 0.77552 0.0
H1548 H 0.8462 0.18112 0.83027 0.0
H1549 H 0.88872 0.19204 0.76909 0.0
H1550 H 0.8283 0.15831 0.80209 0.0
H1551 H 0.87141 0.16852 0.74124 0.0
H1552 H 0.81968 0.14935 0.68847 0.0
H1553 H 0.84192 0.16753 0.71707 0.0
H1554 H 0.82698 0.12778 0.78015 0.0
H1555 H 0.80402 0.11019 0.75174 0.0
C1556 C 0.85199 0.17828 0.81099 0.0
C1557 C 0.86874 0.18854 0.80182 0.0
C1558 C 0.84178 0.1651 0.79481 0.0
C1559 C 0.84826 0.16164 0.76919 0.0
C1560 C 0.86567 0.17115 0.76058 0.0
C1561 C 0.8757 0.18454 0.77662 0.0
C1562 C 0.82135 0.14433 0.70835 0.0
C1563 C 0.80995 0.12846 0.7179 0.0
C1564 C 0.83421 0.1547 0.72479 0.0
C1565 C 0.83618 0.14927 0.75109 0.0
C1566 C 0.82552 0.1327 0.76021 0.0
C1567 C 0.81245 0.12252 0.74387 0.0
H1568 H 0.70347 0.62299 0.75028 0.0
H1569 H 0.66445 0.63412 0.68521 0.0
H1570 H 0.68081 0.64051 0.77877 0.0
H1571 H 0.64125 0.65108 0.71407 0.0
H1572 H 0.63292 0.66499 0.82927 0.0
H1573 H 0.64979 0.64178 0.80033 0.0
H1574 H 0.64022 0.68196 0.73599 0.0
H1575 H 0.62279 0.70464 0.76456 0.0
C1576 C 0.68984 0.62884 0.7421 0.0
C1577 C 0.68591 0.62734 0.71535 0.0
C1578 C 0.67672 0.63879 0.75856 0.0
C1579 C 0.6592 0.64736 0.74877 0.0
C1580 C 0.65479 0.64501 0.72221 0.0
C1581 C 0.66803 0.63518 0.70567 0.0
C1582 C 0.63418 0.66871 0.80887 0.0
C1583 C 0.62665 0.68676 0.79932 0.0
C1584 C 0.64396 0.65546 0.79228 0.0
C1585 C 0.64657 0.66004 0.76581 0.0
C1586 C 0.6383 0.67774 0.75613 0.0
C1587 C 0.62841 0.69087 0.77263 0.0
H1588 H 0.29537 0.62335 0.76451 0.0
H1589 H 0.32913 0.63819 0.83322 0.0
H1590 H 0.31872 0.64166 0.73794 0.0
H1591 H 0.35314 0.65597 0.80632 0.0
H1592 H 0.37293 0.70874 0.75516 0.0
H1593 H 0.35458 0.68613 0.78293 0.0
H1594 H 0.35077 0.6439 0.71988 0.0
H1595 H 0.36846 0.66702 0.69168 0.0
C1596 C 0.30801 0.63022 0.77394 0.0
C1597 C 0.31025 0.62944 0.80108 0.0
C1598 C 0.32155 0.64063 0.7586 0.0
C1599 C 0.33786 0.6504 0.76991 0.0
C1600 C 0.34057 0.64893 0.79697 0.0
C1601 C 0.32686 0.63865 0.8124 0.0
C1602 C 0.36837 0.69455 0.74725 0.0
C1603 C 0.37197 0.6898 0.72108 0.0
C1604 C 0.35794 0.68147 0.7633 0.0
C1605 C 0.35101 0.66319 0.75368 0.0
C1606 C 0.35549 0.65802 0.72783 0.0
C1607 C 0.36575 0.67123 0.71167 0.0
H1608 H 0.36188 0.32695 0.82739 0.0
H1609 H 0.37228 0.28937 0.76076 0.0
H1610 H 0.34409 0.35047 0.79979 0.0
H1611 H 0.35384 0.31222 0.73357 0.0
H1612 H 0.32843 0.36097 0.68506 0.0
H1613 H 0.35185 0.34311 0.71272 0.0
H1614 H 0.31329 0.35259 0.77872 0.0
H1615 H 0.29054 0.3711 0.75148 0.0
C1616 C 0.36041 0.32373 0.80687 0.0
C1617 C 0.36841 0.30622 0.79635 0.0
C1618 C 0.35011 0.33715 0.79104 0.0
C1619 C 0.34735 0.33324 0.76439 0.0
C1620 C 0.35589 0.31599 0.75384 0.0
C1621 C 0.36637 0.30274 0.76955 0.0
C1622 C 0.32512 0.35943 0.70554 0.0
C1623 C 0.30755 0.36737 0.71598 0.0
C1624 C 0.33849 0.34909 0.72141 0.0
C1625 C 0.33445 0.34621 0.74801 0.0
C1626 C 0.31715 0.35471 0.7585 0.0
C1627 C 0.30396 0.36524 0.74275 0.0
H1628 H 0.63514 0.33298 0.68325 0.0
H1629 H 0.62398 0.29466 0.74903 0.0
H1630 H 0.65253 0.35624 0.71159 0.0
H1631 H 0.64197 0.31734 0.777 0.0
H1632 H 0.66705 0.36559 0.82659 0.0
H1633 H 0.64374 0.34831 0.7982 0.0
H1634 H 0.68336 0.3576 0.73322 0.0
H1635 H 0.70609 0.37549 0.76123 0.0
C1636 C 0.6363 0.32956 0.70376 0.0
C1637 C 0.62828 0.31187 0.7138 0.0
C1638 C 0.64639 0.34284 0.72001 0.0
C1639 C 0.64886 0.33864 0.74662 0.0
C1640 C 0.64017 0.32129 0.75675 0.0
C1641 C 0.62994 0.30815 0.74059 0.0
C1642 C 0.67062 0.36416 0.80616 0.0
C1643 C 0.68851 0.37181 0.79626 0.0
C1644 C 0.65732 0.35414 0.78989 0.0
C1645 C 0.66169 0.35136 0.76338 0.0
C1646 C 0.67927 0.35965 0.75338 0.0
C1647 C 0.69244 0.36982 0.76956 0.0
H1648 H 0.37234 0.2931 0.24962 0.0
H1649 H 0.3636 0.3334 0.18526 0.0
H1650 H 0.35469 0.31569 0.27807 0.0
H1651 H 0.3466 0.35656 0.21412 0.0
H1652 H 0.2929 0.37642 0.2628 0.0
H1653 H 0.31553 0.35846 0.23482 0.0
H1654 H 0.35348 0.34611 0.30063 0.0
H1655 H 0.33021 0.36348 0.32901 0.0
C1656 C 0.36699 0.30699 0.24162 0.0
C1657 C 0.3692 0.31132 0.21505 0.0
C1658 C 0.35696 0.32008 0.25806 0.0
C1659 C 0.34905 0.33797 0.24846 0.0
C1660 C 0.35211 0.34274 0.22211 0.0
C1661 C 0.36197 0.32951 0.20556 0.0
C1662 C 0.30617 0.37007 0.27135 0.0
C1663 C 0.30961 0.37124 0.29825 0.0
C1664 C 0.31929 0.35986 0.25518 0.0
C1665 C 0.33636 0.3507 0.26538 0.0
C1666 C 0.34029 0.35264 0.29214 0.0
C1667 C 0.32701 0.36271 0.30841 0.0
H1668 H 0.63609 0.32634 0.32628 0.0
H1669 H 0.62599 0.28851 0.25981 0.0
H1670 H 0.65387 0.34984 0.29864 0.0
H1671 H 0.64444 0.31131 0.23259 0.0
H1672 H 0.66955 0.36014 0.18383 0.0
H1673 H 0.6463 0.34206 0.21151 0.0
H1674 H 0.68459 0.35227 0.27762 0.0
H1675 H 0.70714 0.371 0.25037 0.0
C1676 C 0.63764 0.32305 0.30579 0.0
C1677 C 0.6297 0.3055 0.29533 0.0
C1678 C 0.64794 0.33646 0.28993 0.0
C1679 C 0.65077 0.33248 0.2633 0.0
C1680 C 0.64233 0.31515 0.25282 0.0
C1681 C 0.63184 0.30192 0.26856 0.0
C1682 C 0.67283 0.35871 0.20435 0.0
C1683 C 0.69026 0.36693 0.21481 0.0
C1684 C 0.65957 0.34824 0.22023 0.0
C1685 C 0.66358 0.34551 0.24687 0.0
C1686 C 0.68075 0.35427 0.25737 0.0
C1687 C 0.69382 0.36493 0.24161 0.0
H1688 H 0.70835 0.62784 0.26167 0.0
H1689 H 0.66884 0.63542 0.32705 0.0
H1690 H 0.68561 0.64636 0.23432 0.0
H1691 H 0.64551 0.65326 0.2993 0.0
H1692 H 0.62452 0.70752 0.25292 0.0
H1693 H 0.64325 0.68463 0.27968 0.0
H1694 H 0.65501 0.64812 0.21236 0.0
H1695 H 0.63687 0.67169 0.18521 0.0
C1696 C 0.6946 0.63314 0.27012 0.0
C1697 C 0.69052 0.63031 0.29665 0.0
C1698 C 0.68143 0.64367 0.25431 0.0
C1699 C 0.6637 0.65146 0.26453 0.0
C1700 C 0.65921 0.64786 0.29085 0.0
C1701 C 0.67253 0.63752 0.30676 0.0
C1702 C 0.63093 0.69452 0.24378 0.0
C1703 C 0.62932 0.69155 0.21683 0.0
C1704 C 0.64159 0.68125 0.25925 0.0
C1705 C 0.65076 0.66447 0.24828 0.0
C1706 C 0.64848 0.66106 0.22144 0.0
C1707 C 0.63797 0.67451 0.20587 0.0
H1708 H 0.30517 0.609 0.24938 0.0
H1709 H 0.32142 0.64988 0.18829 0.0
H1710 H 0.32771 0.62587 0.27906 0.0
H1711 H 0.34327 0.66735 0.21818 0.0
H1712 H 0.38911 0.69082 0.27242 0.0
H1713 H 0.37242 0.66786 0.24314 0.0
H1714 H 0.32849 0.65583 0.30239 0.0
H1715 H 0.34575 0.67809 0.33197 0.0
C1716 C 0.31366 0.62155 0.24226 0.0
C1717 C 0.31142 0.6282 0.21653 0.0
C1718 C 0.32648 0.63133 0.25933 0.0
C1719 C 0.33718 0.64818 0.25122 0.0
C1720 C 0.33552 0.6543 0.22513 0.0
C1721 C 0.32289 0.64433 0.20795 0.0
C1722 C 0.37604 0.68302 0.2793 0.0
C1723 C 0.36866 0.68637 0.30445 0.0
C1724 C 0.36638 0.66995 0.26243 0.0
C1725 C 0.34891 0.66013 0.27017 0.0
C1726 C 0.34202 0.66289 0.29576 0.0
C1727 C 0.35186 0.67575 0.31276 0.0
loop_
_geom_bond_atom_site_label_1
_geom_bond_atom_site_label_2
_geom_bond_distance
_geom_bond_site_symmetry_2
_ccdc_geom_bond_type
O0 Cd1 2.223 . S
O0 C8 1.315 . S
Cd1 O0 2.223 . S
Cd1 O4 2.297 . S
Cd1 O5 2.439 . S
Cd1 O11 2.240 . S
Cd2 O3 2.240 . S
Cd2 O10 2.223 . S
Cd2 O12 2.297 . S
Cd2 O13 2.439 . S
O3 Cd2 2.240 . S
O3 C8 1.279 . S
O4 Cd1 2.297 . S
O4 C6 1.247 . S
O5 Cd1 2.439 . S
O5 C6 1.208 . S
C6 O4 1.247 . S
C6 O5 1.208 . S
C7 O12 1.247 . S
C7 O13 1.208 . S
C8 O0 1.315 . S
C8 O3 1.279 . S
C9 O10 1.315 . S
C9 O11 1.279 . S
O10 Cd2 2.223 . S
O10 C9 1.315 . S
O11 Cd1 2.240 . S
O11 C9 1.279 . S
O12 Cd2 2.297 . S
O12 C7 1.247 . S
O13 Cd2 2.439 . S
O13 C7 1.208 . S
O14 Cd15 2.223 . S
O14 C22 1.315 . S
Cd15 O14 2.223 . S
Cd15 O18 2.297 . S
Cd15 O19 2.439 . S
Cd15 O25 2.240 . S
Cd16 O17 2.240 . S
Cd16 O24 2.223 . S
Cd16 O26 2.297 . S
Cd16 O27 2.439 . S
O17 Cd16 2.240 . S
O17 C22 1.279 . S
O18 Cd15 2.297 . S
O18 C20 1.247 . S
O19 Cd15 2.439 . S
O19 C20 1.208 . S
C20 O18 1.247 . S
C20 O19 1.208 . S
C21 O26 1.247 . S
C21 O27 1.208 . S
C22 O14 1.315 . S
C22 O17 1.279 . S
C23 O24 1.315 . S
C23 O25 1.279 . S
O24 Cd16 2.223 . S
O24 C23 1.315 . S
O25 Cd15 2.240 . S
O25 C23 1.279 . S
O26 Cd16 2.297 . S
O26 C21 1.247 . S
O27 Cd16 2.439 . S
O27 C21 1.208 . S
O28 Cd29 2.223 . S
O28 C36 1.315 . S
Cd29 O28 2.223 . S
Cd29 O32 2.297 . S
Cd29 O33 2.439 . S
Cd29 O39 2.240 . S
Cd30 O31 2.240 . S
Cd30 O38 2.223 . S
Cd30 O40 2.297 . S
Cd30 O41 2.439 . S
O31 Cd30 2.240 . S
O31 C36 1.279 . S
O32 Cd29 2.297 . S
O32 C34 1.247 . S
O33 Cd29 2.439 . S
O33 C34 1.208 . S
C34 O32 1.247 . S
C34 O33 1.208 . S
C35 O40 1.247 . S
C35 O41 1.208 . S
C36 O28 1.315 . S
C36 O31 1.279 . S
C37 O38 1.315 . S
C37 O39 1.279 . S
O38 Cd30 2.223 . S
O38 C37 1.315 . S
O39 Cd29 2.240 . S
O39 C37 1.279 . S
O40 Cd30 2.297 . S
O40 C35 1.247 . S
O41 Cd30 2.439 . S
O41 C35 1.208 . S
O42 Cd43 2.223 . S
O42 C50 1.315 . S
Cd43 O42 2.223 . S
Cd43 O46 2.297 . S
Cd43 O47 2.439 . S
Cd43 O53 2.240 . S
Cd44 O45 2.240 . S
Cd44 O52 2.223 . S
Cd44 O54 2.297 . S
Cd44 O55 2.439 . S
O45 Cd44 2.240 . S
O45 C50 1.279 . S
O46 Cd43 2.297 . S
O46 C48 1.247 . S
O47 Cd43 2.439 . S
O47 C48 1.208 . S
C48 O46 1.247 . S
C48 O47 1.208 . S
C49 O54 1.247 . S
C49 O55 1.208 . S
C50 O42 1.315 . S
C50 O45 1.279 . S
C51 O52 1.315 . S
C51 O53 1.279 . S
O52 Cd44 2.223 . S
O52 C51 1.315 . S
O53 Cd43 2.240 . S
O53 C51 1.279 . S
O54 Cd44 2.297 . S
O54 C49 1.247 . S
O55 Cd44 2.439 . S
O55 C49 1.208 . S
O56 Cd57 2.223 . S
O56 C64 1.315 . S
Cd57 O56 2.223 . S
Cd57 O60 2.297 . S
Cd57 O61 2.439 . S
Cd57 O67 2.240 . S
Cd58 O59 2.240 . S
Cd58 O66 2.223 . S
Cd58 O68 2.297 . S
Cd58 O69 2.439 . S
O59 Cd58 2.240 . S
O59 C64 1.279 . S
O60 Cd57 2.297 . S
O60 C62 1.247 . S
O61 Cd57 2.439 . S
O61 C62 1.208 . S
C62 O60 1.247 . S
C62 O61 1.208 . S
C63 O68 1.247 . S
C63 O69 1.208 . S
C64 O56 1.315 . S
C64 O59 1.279 . S
C65 O66 1.315 . S
C65 O67 1.279 . S
O66 Cd58 2.223 . S
O66 C65 1.315 . S
O67 Cd57 2.240 . S
O67 C65 1.279 . S
O68 Cd58 2.297 . S
O68 C63 1.247 . S
O69 Cd58 2.439 . S
O69 C63 1.208 . S
O70 Cd71 2.223 . S
O70 C78 1.315 . S
Cd71 O70 2.223 . S
Cd71 O74 2.297 . S
Cd71 O75 2.439 . S
Cd71 O81 2.240 . S
Cd72 O73 2.240 . S
Cd72 O80 2.223 . S
Cd72 O82 2.297 . S
Cd72 O83 2.439 . S
O73 Cd72 2.240 . S
O73 C78 1.279 . S
O74 Cd71 2.297 . S
O74 C76 1.247 . S
O75 Cd71 2.439 . S
O75 C76 1.208 . S
C76 O74 1.247 . S
C76 O75 1.208 . S
C77 O82 1.247 . S
C77 O83 1.208 . S
C78 O70 1.315 . S
C78 O73 1.279 . S
C79 O80 1.315 . S
C79 O81 1.279 . S
O80 Cd72 2.223 . S
O80 C79 1.315 . S
O81 Cd71 2.240 . S
O81 C79 1.279 . S
O82 Cd72 2.297 . S
O82 C77 1.247 . S
O83 Cd72 2.439 . S
O83 C77 1.208 . S
O84 Cd85 2.223 . S
O84 C92 1.315 . S
Cd85 O84 2.223 . S
Cd85 O88 2.297 . S
Cd85 O89 2.439 . S
Cd85 O95 2.240 . S
Cd86 O87 2.240 . S
Cd86 O94 2.223 . S
Cd86 O96 2.297 . S
Cd86 O97 2.439 . S
O87 Cd86 2.240 . S
O87 C92 1.279 . S
O88 Cd85 2.297 . S
O88 C90 1.247 . S
O89 Cd85 2.439 . S
O89 C90 1.208 . S
C90 O88 1.247 . S
C90 O89 1.208 . S
C91 O96 1.247 . S
C91 O97 1.208 . S
C92 O84 1.315 . S
C92 O87 1.279 . S
C93 O94 1.315 . S
C93 O95 1.279 . S
O94 Cd86 2.223 . S
O94 C93 1.315 . S
O95 Cd85 2.240 . S
O95 C93 1.279 . S
O96 Cd86 2.297 . S
O96 C91 1.247 . S
O97 Cd86 2.439 . S
O97 C91 1.208 . S
O98 Cd99 2.223 . S
O98 C106 1.315 . S
Cd99 O98 2.223 . S
Cd99 O102 2.297 . S
Cd99 O103 2.439 . S
Cd99 O109 2.240 . S
Cd100 O101 2.240 . S
Cd100 O108 2.223 . S
Cd100 O110 2.297 . S
Cd100 O111 2.439 . S
O101 Cd100 2.240 . S
O101 C106 1.279 . S
O102 Cd99 2.297 . S
O102 C104 1.247 . S
O103 Cd99 2.439 . S
O103 C104 1.208 . S
C104 O102 1.247 . S
C104 O103 1.208 . S
C105 O110 1.247 . S
C105 O111 1.208 . S
C106 O98 1.315 . S
C106 O101 1.279 . S
C107 O108 1.315 . S
C107 O109 1.279 . S
O108 Cd100 2.223 . S
O108 C107 1.315 . S
O109 Cd99 2.240 . S
O109 C107 1.279 . S
O110 Cd100 2.297 . S
O110 C105 1.247 . S
O111 Cd100 2.439 . S
O111 C105 1.208 . S
O112 Cd113 2.223 . S
O112 C120 1.315 . S
Cd113 O112 2.223 . S
Cd113 O116 2.297 . S
Cd113 O117 2.439 . S
Cd113 O123 2.240 . S
Cd114 O115 2.240 . S
Cd114 O122 2.223 . S
Cd114 O124 2.297 . S
Cd114 O125 2.439 . S
O115 Cd114 2.240 . S
O115 C120 1.279 . S
O116 Cd113 2.297 . S
O116 C118 1.247 . S
O117 Cd113 2.439 . S
O117 C118 1.208 . S
C118 O116 1.247 . S
C118 O117 1.208 . S
C119 O124 1.247 . S
C119 O125 1.208 . S
C120 O112 1.315 . S
C120 O115 1.279 . S
C121 O122 1.315 . S
C121 O123 1.279 . S
O122 Cd114 2.223 . S
O122 C121 1.315 . S
O123 Cd113 2.240 . S
O123 C121 1.279 . S
O124 Cd114 2.297 . S
O124 C119 1.247 . S
O125 Cd114 2.439 . S
O125 C119 1.208 . S
O126 Cd127 2.223 . S
O126 C134 1.315 . S
Cd127 O126 2.223 . S
Cd127 O130 2.297 . S
Cd127 O131 2.439 . S
Cd127 O137 2.240 . S
Cd128 O129 2.240 . S
Cd128 O136 2.223 . S
Cd128 O138 2.297 . S
Cd128 O139 2.439 . S
O129 Cd128 2.240 . S
O129 C134 1.279 . S
O130 Cd127 2.297 . S
O130 C132 1.247 . S
O131 Cd127 2.439 . S
O131 C132 1.208 . S
C132 O130 1.247 . S
C132 O131 1.208 . S
C133 O138 1.247 . S
C133 O139 1.208 . S
C134 O126 1.315 . S
C134 O129 1.279 . S
C135 O136 1.315 . S
C135 O137 1.279 . S
O136 Cd128 2.223 . S
O136 C135 1.315 . S
O137 Cd127 2.240 . S
O137 C135 1.279 . S
O138 Cd128 2.297 . S
O138 C133 1.247 . S
O139 Cd128 2.439 . S
O139 C133 1.208 . S
O140 Cd141 2.223 . S
O140 C148 1.315 . S
Cd141 O140 2.223 . S
Cd141 O144 2.297 . S
Cd141 O145 2.439 . S
Cd141 O151 2.240 . S
Cd142 O143 2.240 . S
Cd142 O150 2.223 . S
Cd142 O152 2.297 . S
Cd142 O153 2.439 . S
O143 Cd142 2.240 . S
O143 C148 1.279 . S
O144 Cd141 2.297 . S
O144 C146 1.247 . S
O145 Cd141 2.439 . S
O145 C146 1.208 . S
C146 O144 1.247 . S
C146 O145 1.208 . S
C147 O152 1.247 . S
C147 O153 1.208 . S
C148 O140 1.315 . S
C148 O143 1.279 . S
C149 O150 1.315 . S
C149 O151 1.279 . S
O150 Cd142 2.223 . S
O150 C149 1.315 . S
O151 Cd141 2.240 . S
O151 C149 1.279 . S
O152 Cd142 2.297 . S
O152 C147 1.247 . S
O153 Cd142 2.439 . S
O153 C147 1.208 . S
O154 Cd155 2.223 . S
O154 C162 1.315 . S
Cd155 O154 2.223 . S
Cd155 O158 2.297 . S
Cd155 O159 2.439 . S
Cd155 O165 2.240 . S
Cd156 O157 2.240 . S
Cd156 O164 2.223 . S
Cd156 O166 2.297 . S
Cd156 O167 2.439 . S
O157 Cd156 2.240 . S
O157 C162 1.279 . S
O158 Cd155 2.297 . S
O158 C160 1.247 . S
O159 Cd155 2.439 . S
O159 C160 1.208 . S
C160 O158 1.247 . S
C160 O159 1.208 . S
C161 O166 1.247 . S
C161 O167 1.208 . S
C162 O154 1.315 . S
C162 O157 1.279 . S
C163 O164 1.315 . S
C163 O165 1.279 . S
O164 Cd156 2.223 . S
O164 C163 1.315 . S
O165 Cd155 2.240 . S
O165 C163 1.279 . S
O166 Cd156 2.297 . S
O166 C161 1.247 . S
O167 Cd156 2.439 . S
O167 C161 1.208 . S
O168 Cd169 2.223 . S
O168 C176 1.315 . S
Cd169 O168 2.223 . S
Cd169 O172 2.297 . S
Cd169 O173 2.439 . S
Cd169 O179 2.240 . S
Cd170 O171 2.240 . S
Cd170 O178 2.223 . S
Cd170 O180 2.297 . S
Cd170 O181 2.439 . S
O171 Cd170 2.240 . S
O171 C176 1.279 . S
O172 Cd169 2.297 . S
O172 C174 1.247 . S
O173 Cd169 2.439 . S
O173 C174 1.208 . S
C174 O172 1.247 . S
C174 O173 1.208 . S
C175 O180 1.247 . S
C175 O181 1.208 . S
C176 O168 1.315 . S
C176 O171 1.279 . S
C177 O178 1.315 . S
C177 O179 1.279 . S
O178 Cd170 2.223 . S
O178 C177 1.315 . S
O179 Cd169 2.240 . S
O179 C177 1.279 . S
O180 Cd170 2.297 . S
O180 C175 1.247 . S
O181 Cd170 2.439 . S
O181 C175 1.208 . S
O182 Cd183 2.223 . S
O182 C190 1.315 . S
Cd183 O182 2.223 . S
Cd183 O186 2.297 . S
Cd183 O187 2.439 . S
Cd183 O193 2.240 . S
Cd184 O185 2.240 . S
Cd184 O192 2.223 . S
Cd184 O194 2.297 . S
Cd184 O195 2.439 . S
O185 Cd184 2.240 . S
O185 C190 1.279 . S
O186 Cd183 2.297 . S
O186 C188 1.247 . S
O187 Cd183 2.439 . S
O187 C188 1.208 . S
C188 O186 1.247 . S
C188 O187 1.208 . S
C189 O194 1.247 . S
C189 O195 1.208 . S
C190 O182 1.315 . S
C190 O185 1.279 . S
C191 O192 1.315 . S
C191 O193 1.279 . S
O192 Cd184 2.223 . S
O192 C191 1.315 . S
O193 Cd183 2.240 . S
O193 C191 1.279 . S
O194 Cd184 2.297 . S
O194 C189 1.247 . S
O195 Cd184 2.439 . S
O195 C189 1.208 . S
O196 Cd197 2.223 . S
O196 C204 1.315 . S
Cd197 O196 2.223 . S
Cd197 O200 2.297 . S
Cd197 O201 2.439 . S
Cd197 O207 2.240 . S
Cd198 O199 2.240 . S
Cd198 O206 2.223 . S
Cd198 O208 2.297 . S
Cd198 O209 2.439 . S
O199 Cd198 2.240 . S
O199 C204 1.279 . S
O200 Cd197 2.297 . S
O200 C202 1.247 . S
O201 Cd197 2.439 . S
O201 C202 1.208 . S
C202 O200 1.247 . S
C202 O201 1.208 . S
C203 O208 1.247 . S
C203 O209 1.208 . S
C204 O196 1.315 . S
C204 O199 1.279 . S
C205 O206 1.315 . S
C205 O207 1.279 . S
O206 Cd198 2.223 . S
O206 C205 1.315 . S
O207 Cd197 2.240 . S
O207 C205 1.279 . S
O208 Cd198 2.297 . S
O208 C203 1.247 . S
O209 Cd198 2.439 . S
O209 C203 1.208 . S
O210 Cd211 2.223 . S
O210 C218 1.315 . S
Cd211 O210 2.223 . S
Cd211 O214 2.297 . S
Cd211 O215 2.439 . S
Cd211 O221 2.240 . S
Cd212 O213 2.240 . S
Cd212 O220 2.223 . S
Cd212 O222 2.297 . S
Cd212 O223 2.439 . S
O213 Cd212 2.240 . S
O213 C218 1.279 . S
O214 Cd211 2.297 . S
O214 C216 1.247 . S
O215 Cd211 2.439 . S
O215 C216 1.208 . S
C216 O214 1.247 . S
C216 O215 1.208 . S
C217 O222 1.247 . S
C217 O223 1.208 . S
C218 O210 1.315 . S
C218 O213 1.279 . S
C219 O220 1.315 . S
C219 O221 1.279 . S
O220 Cd212 2.223 . S
O220 C219 1.315 . S
O221 Cd211 2.240 . S
O221 C219 1.279 . S
O222 Cd212 2.297 . S
O222 C217 1.247 . S
O223 Cd212 2.439 . S
O223 C217 1.208 . S
O224 Cd225 2.223 . S
O224 C232 1.315 . S
Cd225 O224 2.223 . S
Cd225 O228 2.297 . S
Cd225 O229 2.439 . S
Cd225 O235 2.240 . S
Cd226 O227 2.240 . S
Cd226 O234 2.223 . S
Cd226 O236 2.297 . S
Cd226 O237 2.439 . S
O227 Cd226 2.240 . S
O227 C232 1.279 . S
O228 Cd225 2.297 . S
O228 C230 1.247 . S
O229 Cd225 2.439 . S
O229 C230 1.208 . S
C230 O228 1.247 . S
C230 O229 1.208 . S
C231 O236 1.247 . S
C231 O237 1.208 . S
C232 O224 1.315 . S
C232 O227 1.279 . S
C233 O234 1.315 . S
C233 O235 1.279 . S
O234 Cd226 2.223 . S
O234 C233 1.315 . S
O235 Cd225 2.240 . S
O235 C233 1.279 . S
O236 Cd226 2.297 . S
O236 C231 1.247 . S
O237 Cd226 2.439 . S
O237 C231 1.208 . S
O238 Cd239 2.223 . S
O238 C246 1.315 . S
Cd239 O238 2.223 . S
Cd239 O242 2.297 . S
Cd239 O243 2.439 . S
Cd239 O249 2.240 . S
Cd240 O241 2.240 . S
Cd240 O248 2.223 . S
Cd240 O250 2.297 . S
Cd240 O251 2.439 . S
O241 Cd240 2.240 . S
O241 C246 1.279 . S
O242 Cd239 2.297 . S
O242 C244 1.247 . S
O243 Cd239 2.439 . S
O243 C244 1.208 . S
C244 O242 1.247 . S
C244 O243 1.208 . S
C245 O250 1.247 . S
C245 O251 1.208 . S
C246 O238 1.315 . S
C246 O241 1.279 . S
C247 O248 1.315 . S
C247 O249 1.279 . S
O248 Cd240 2.223 . S
O248 C247 1.315 . S
O249 Cd239 2.240 . S
O249 C247 1.279 . S
O250 Cd240 2.297 . S
O250 C245 1.247 . S
O251 Cd240 2.439 . S
O251 C245 1.208 . S
O252 Cd253 2.223 . S
O252 C260 1.315 . S
Cd253 O252 2.223 . S
Cd253 O256 2.297 . S
Cd253 O257 2.439 . S
Cd253 O263 2.240 . S
Cd254 O255 2.240 . S
Cd254 O262 2.223 . S
Cd254 O264 2.297 . S
Cd254 O265 2.439 . S
O255 Cd254 2.240 . S
O255 C260 1.279 . S
O256 Cd253 2.297 . S
O256 C258 1.247 . S
O257 Cd253 2.439 . S
O257 C258 1.208 . S
C258 O256 1.247 . S
C258 O257 1.208 . S
C259 O264 1.247 . S
C259 O265 1.208 . S
C260 O252 1.315 . S
C260 O255 1.279 . S
C261 O262 1.315 . S
C261 O263 1.279 . S
O262 Cd254 2.223 . S
O262 C261 1.315 . S
O263 Cd253 2.240 . S
O263 C261 1.279 . S
O264 Cd254 2.297 . S
O264 C259 1.247 . S
O265 Cd254 2.439 . S
O265 C259 1.208 . S
O266 Cd267 2.223 . S
O266 C274 1.315 . S
Cd267 O266 2.223 . S
Cd267 O270 2.297 . S
Cd267 O271 2.439 . S
Cd267 O277 2.240 . S
Cd268 O269 2.240 . S
Cd268 O276 2.223 . S
Cd268 O278 2.297 . S
Cd268 O279 2.439 . S
O269 Cd268 2.240 . S
O269 C274 1.279 . S
O270 Cd267 2.297 . S
O270 C272 1.247 . S
O271 Cd267 2.439 . S
O271 C272 1.208 . S
C272 O270 1.247 . S
C272 O271 1.208 . S
C273 O278 1.247 . S
C273 O279 1.208 . S
C274 O266 1.315 . S
C274 O269 1.279 . S
C275 O276 1.315 . S
C275 O277 1.279 . S
O276 Cd268 2.223 . S
O276 C275 1.315 . S
O277 Cd267 2.240 . S
O277 C275 1.279 . S
O278 Cd268 2.297 . S
O278 C273 1.247 . S
O279 Cd268 2.439 . S
O279 C273 1.208 . S
O280 Cd281 2.223 . S
O280 C288 1.315 . S
Cd281 O280 2.223 . S
Cd281 O284 2.297 . S
Cd281 O285 2.439 . S
Cd281 O291 2.240 . S
Cd282 O283 2.240 . S
Cd282 O290 2.223 . S
Cd282 O292 2.297 . S
Cd282 O293 2.439 . S
O283 Cd282 2.240 . S
O283 C288 1.279 . S
O284 Cd281 2.297 . S
O284 C286 1.247 . S
O285 Cd281 2.439 . S
O285 C286 1.208 . S
C286 O284 1.247 . S
C286 O285 1.208 . S
C287 O292 1.247 . S
C287 O293 1.208 . S
C288 O280 1.315 . S
C288 O283 1.279 . S
C289 O290 1.315 . S
C289 O291 1.279 . S
O290 Cd282 2.223 . S
O290 C289 1.315 . S
O291 Cd281 2.240 . S
O291 C289 1.279 . S
O292 Cd282 2.297 . S
O292 C287 1.247 . S
O293 Cd282 2.439 . S
O293 C287 1.208 . S
O294 Cd295 2.223 . S
O294 C302 1.315 . S
Cd295 O294 2.223 . S
Cd295 O298 2.297 . S
Cd295 O299 2.439 . S
Cd295 O305 2.240 . S
Cd296 O297 2.240 . S
Cd296 O304 2.223 . S
Cd296 O306 2.297 . S
Cd296 O307 2.439 . S
O297 Cd296 2.240 . S
O297 C302 1.279 . S
O298 Cd295 2.297 . S
O298 C300 1.247 . S
O299 Cd295 2.439 . S
O299 C300 1.208 . S
C300 O298 1.247 . S
C300 O299 1.208 . S
C301 O306 1.247 . S
C301 O307 1.208 . S
C302 O294 1.315 . S
C302 O297 1.279 . S
C303 O304 1.315 . S
C303 O305 1.279 . S
O304 Cd296 2.223 . S
O304 C303 1.315 . S
O305 Cd295 2.240 . S
O305 C303 1.279 . S
O306 Cd296 2.297 . S
O306 C301 1.247 . S
O307 Cd296 2.439 . S
O307 C301 1.208 . S
O308 Cd309 2.223 . S
O308 C316 1.315 . S
Cd309 O308 2.223 . S
Cd309 O312 2.297 . S
Cd309 O313 2.439 . S
Cd309 O319 2.240 . S
Cd310 O311 2.240 . S
Cd310 O318 2.223 . S
Cd310 O320 2.297 . S
Cd310 O321 2.439 . S
O311 Cd310 2.240 . S
O311 C316 1.279 . S
O312 Cd309 2.297 . S
O312 C314 1.247 . S
O313 Cd309 2.439 . S
O313 C314 1.208 . S
C314 O312 1.247 . S
C314 O313 1.208 . S
C315 O320 1.247 . S
C315 O321 1.208 . S
C316 O308 1.315 . S
C316 O311 1.279 . S
C317 O318 1.315 . S
C317 O319 1.279 . S
O318 Cd310 2.223 . S
O318 C317 1.315 . S
O319 Cd309 2.240 . S
O319 C317 1.279 . S
O320 Cd310 2.297 . S
O320 C315 1.247 . S
O321 Cd310 2.439 . S
O321 C315 1.208 . S
O322 Cd323 2.223 . S
O322 C330 1.315 . S
Cd323 O322 2.223 . S
Cd323 O326 2.297 . S
Cd323 O327 2.439 . S
Cd323 O333 2.240 . S
Cd324 O325 2.240 . S
Cd324 O332 2.223 . S
Cd324 O334 2.297 . S
Cd324 O335 2.439 . S
O325 Cd324 2.240 . S
O325 C330 1.279 . S
O326 Cd323 2.297 . S
O326 C328 1.247 . S
O327 Cd323 2.439 . S
O327 C328 1.208 . S
C328 O326 1.247 . S
C328 O327 1.208 . S
C329 O334 1.247 . S
C329 O335 1.208 . S
C330 O322 1.315 . S
C330 O325 1.279 . S
C331 O332 1.315 . S
C331 O333 1.279 . S
O332 Cd324 2.223 . S
O332 C331 1.315 . S
O333 Cd323 2.240 . S
O333 C331 1.279 . S
O334 Cd324 2.297 . S
O334 C329 1.247 . S
O335 Cd324 2.439 . S
O335 C329 1.208 . S
O336 Cd337 2.223 . S
O336 C344 1.315 . S
Cd337 O336 2.223 . S
Cd337 O340 2.297 . S
Cd337 O341 2.439 . S
Cd337 O347 2.240 . S
Cd338 O339 2.240 . S
Cd338 O346 2.223 . S
Cd338 O348 2.297 . S
Cd338 O349 2.439 . S
O339 Cd338 2.240 . S
O339 C344 1.279 . S
O340 Cd337 2.297 . S
O340 C342 1.247 . S
O341 Cd337 2.439 . S
O341 C342 1.208 . S
C342 O340 1.247 . S
C342 O341 1.208 . S
C343 O348 1.247 . S
C343 O349 1.208 . S
C344 O336 1.315 . S
C344 O339 1.279 . S
C345 O346 1.315 . S
C345 O347 1.279 . S
O346 Cd338 2.223 . S
O346 C345 1.315 . S
O347 Cd337 2.240 . S
O347 C345 1.279 . S
O348 Cd338 2.297 . S
O348 C343 1.247 . S
O349 Cd338 2.439 . S
O349 C343 1.208 . S
O350 Cd351 2.223 . S
O350 C358 1.315 . S
Cd351 O350 2.223 . S
Cd351 O354 2.297 . S
Cd351 O355 2.439 . S
Cd351 O361 2.240 . S
Cd352 O353 2.240 . S
Cd352 O360 2.223 . S
Cd352 O362 2.297 . S
Cd352 O363 2.439 . S
O353 Cd352 2.240 . S
O353 C358 1.279 . S
O354 Cd351 2.297 . S
O354 C356 1.247 . S
O355 Cd351 2.439 . S
O355 C356 1.208 . S
C356 O354 1.247 . S
C356 O355 1.208 . S
C357 O362 1.247 . S
C357 O363 1.208 . S
C358 O350 1.315 . S
C358 O353 1.279 . S
C359 O360 1.315 . S
C359 O361 1.279 . S
O360 Cd352 2.223 . S
O360 C359 1.315 . S
O361 Cd351 2.240 . S
O361 C359 1.279 . S
O362 Cd352 2.297 . S
O362 C357 1.247 . S
O363 Cd352 2.439 . S
O363 C357 1.208 . S
O364 Cd365 2.223 . S
O364 C372 1.315 . S
Cd365 O364 2.223 . S
Cd365 O368 2.297 . S
Cd365 O369 2.439 . S
Cd365 O375 2.240 . S
Cd366 O367 2.240 . S
Cd366 O374 2.223 . S
Cd366 O376 2.297 . S
Cd366 O377 2.439 . S
O367 Cd366 2.240 . S
O367 C372 1.279 . S
O368 Cd365 2.297 . S
O368 C370 1.247 . S
O369 Cd365 2.439 . S
O369 C370 1.208 . S
C370 O368 1.247 . S
C370 O369 1.208 . S
C371 O376 1.247 . S
C371 O377 1.208 . S
C372 O364 1.315 . S
C372 O367 1.279 . S
C373 O374 1.315 . S
C373 O375 1.279 . S
O374 Cd366 2.223 . S
O374 C373 1.315 . S
O375 Cd365 2.240 . S
O375 C373 1.279 . S
O376 Cd366 2.297 . S
O376 C371 1.247 . S
O377 Cd366 2.439 . S
O377 C371 1.208 . S
O378 Cd379 2.223 . S
O378 C386 1.315 . S
Cd379 O378 2.223 . S
Cd379 O382 2.297 . S
Cd379 O383 2.439 . S
Cd379 O389 2.240 . S
Cd380 O381 2.240 . S
Cd380 O388 2.223 . S
Cd380 O390 2.297 . S
Cd380 O391 2.439 . S
O381 Cd380 2.240 . S
O381 C386 1.279 . S
O382 Cd379 2.297 . S
O382 C384 1.247 . S
O383 Cd379 2.439 . S
O383 C384 1.208 . S
C384 O382 1.247 . S
C384 O383 1.208 . S
C385 O390 1.247 . S
C385 O391 1.208 . S
C386 O378 1.315 . S
C386 O381 1.279 . S
C387 O388 1.315 . S
C387 O389 1.279 . S
O388 Cd380 2.223 . S
O388 C387 1.315 . S
O389 Cd379 2.240 . S
O389 C387 1.279 . S
O390 Cd380 2.297 . S
O390 C385 1.247 . S
O391 Cd380 2.439 . S
O391 C385 1.208 . S
O392 Cd393 2.223 . S
O392 C400 1.315 . S
Cd393 O392 2.223 . S
Cd393 O396 2.297 . S
Cd393 O397 2.439 . S
Cd393 O403 2.240 . S
Cd394 O395 2.240 . S
Cd394 O402 2.223 . S
Cd394 O404 2.297 . S
Cd394 O405 2.439 . S
O395 Cd394 2.240 . S
O395 C400 1.279 . S
O396 Cd393 2.297 . S
O396 C398 1.247 . S
O397 Cd393 2.439 . S
O397 C398 1.208 . S
C398 O396 1.247 . S
C398 O397 1.208 . S
C399 O404 1.247 . S
C399 O405 1.208 . S
C400 O392 1.315 . S
C400 O395 1.279 . S
C401 O402 1.315 . S
C401 O403 1.279 . S
O402 Cd394 2.223 . S
O402 C401 1.315 . S
O403 Cd393 2.240 . S
O403 C401 1.279 . S
O404 Cd394 2.297 . S
O404 C399 1.247 . S
O405 Cd394 2.439 . S
O405 C399 1.208 . S
O406 Cd407 2.223 . S
O406 C414 1.315 . S
Cd407 O406 2.223 . S
Cd407 O410 2.297 . S
Cd407 O411 2.439 . S
Cd407 O417 2.240 . S
Cd408 O409 2.240 . S
Cd408 O416 2.223 . S
Cd408 O418 2.297 . S
Cd408 O419 2.439 . S
O409 Cd408 2.240 . S
O409 C414 1.279 . S
O410 Cd407 2.297 . S
O410 C412 1.247 . S
O411 Cd407 2.439 . S
O411 C412 1.208 . S
C412 O410 1.247 . S
C412 O411 1.208 . S
C413 O418 1.247 . S
C413 O419 1.208 . S
C414 O406 1.315 . S
C414 O409 1.279 . S
C415 O416 1.315 . S
C415 O417 1.279 . S
O416 Cd408 2.223 . S
O416 C415 1.315 . S
O417 Cd407 2.240 . S
O417 C415 1.279 . S
O418 Cd408 2.297 . S
O418 C413 1.247 . S
O419 Cd408 2.439 . S
O419 C413 1.208 . S
O420 Cd421 2.223 . S
O420 C428 1.315 . S
Cd421 O420 2.223 . S
Cd421 O424 2.297 . S
Cd421 O425 2.439 . S
Cd421 O431 2.240 . S
Cd422 O423 2.240 . S
Cd422 O430 2.223 . S
Cd422 O432 2.297 . S
Cd422 O433 2.439 . S
O423 Cd422 2.240 . S
O423 C428 1.279 . S
O424 Cd421 2.297 . S
O424 C426 1.247 . S
O425 Cd421 2.439 . S
O425 C426 1.208 . S
C426 O424 1.247 . S
C426 O425 1.208 . S
C427 O432 1.247 . S
C427 O433 1.208 . S
C428 O420 1.315 . S
C428 O423 1.279 . S
C429 O430 1.315 . S
C429 O431 1.279 . S
O430 Cd422 2.223 . S
O430 C429 1.315 . S
O431 Cd421 2.240 . S
O431 C429 1.279 . S
O432 Cd422 2.297 . S
O432 C427 1.247 . S
O433 Cd422 2.439 . S
O433 C427 1.208 . S
O434 Cd435 2.223 . S
O434 C442 1.315 . S
Cd435 O434 2.223 . S
Cd435 O438 2.297 . S
Cd435 O439 2.439 . S
Cd435 O445 2.240 . S
Cd436 O437 2.240 . S
Cd436 O444 2.223 . S
Cd436 O446 2.297 . S
Cd436 O447 2.439 . S
O437 Cd436 2.240 . S
O437 C442 1.279 . S
O438 Cd435 2.297 . S
O438 C440 1.247 . S
O439 Cd435 2.439 . S
O439 C440 1.208 . S
C440 O438 1.247 . S
C440 O439 1.208 . S
C441 O446 1.247 . S
C441 O447 1.208 . S
C442 O434 1.315 . S
C442 O437 1.279 . S
C443 O444 1.315 . S
C443 O445 1.279 . S
O444 Cd436 2.223 . S
O444 C443 1.315 . S
O445 Cd435 2.240 . S
O445 C443 1.279 . S
O446 Cd436 2.297 . S
O446 C441 1.247 . S
O447 Cd436 2.439 . S
O447 C441 1.208 . S
H448 C456 0.950 . S
H449 C461 0.950 . S
H450 C458 0.950 . S
H451 C460 0.950 . S
H452 C462 0.950 . S
H453 C464 0.950 . S
H454 C466 0.950 . S
H455 C467 0.950 . S
C456 H448 0.950 . S
C456 C457 1.386 . S
C456 C458 1.391 . S
C457 C456 1.386 . S
C457 C461 1.393 . S
C458 H450 0.950 . S
C458 C456 1.391 . S
C458 C459 1.400 . S
C459 C458 1.400 . S
C459 C460 1.398 . S
C459 C465 1.491 . S
C460 H451 0.950 . S
C460 C459 1.398 . S
C460 C461 1.391 . S
C461 H449 0.950 . S
C461 C457 1.393 . S
C461 C460 1.391 . S
C462 H452 0.950 . S
C462 C463 1.386 . S
C462 C464 1.391 . S
C463 C462 1.386 . S
C463 C467 1.393 . S
C464 H453 0.950 . S
C464 C462 1.391 . S
C464 C465 1.400 . S
C465 C459 1.491 . S
C465 C464 1.400 . S
C465 C466 1.398 . S
C466 H454 0.950 . S
C466 C465 1.398 . S
C466 C467 1.391 . S
C467 H455 0.950 . S
C467 C463 1.393 . S
C467 C466 1.391 . S
H468 C476 0.950 . S
H469 C481 0.950 . S
H470 C478 0.950 . S
H471 C480 0.950 . S
H472 C482 0.950 . S
H473 C484 0.950 . S
H474 C486 0.950 . S
H475 C487 0.950 . S
C476 H468 0.950 . S
C476 C477 1.386 . S
C476 C478 1.391 . S
C477 C476 1.386 . S
C477 C481 1.393 . S
C478 H470 0.950 . S
C478 C476 1.391 . S
C478 C479 1.400 . S
C479 C478 1.400 . S
C479 C480 1.398 . S
C479 C485 1.491 . S
C480 H471 0.950 . S
C480 C479 1.398 . S
C480 C481 1.391 . S
C481 H469 0.950 . S
C481 C477 1.393 . S
C481 C480 1.391 . S
C482 H472 0.950 . S
C482 C483 1.386 . S
C482 C484 1.391 . S
C483 C482 1.386 . S
C483 C487 1.393 . S
C484 H473 0.950 . S
C484 C482 1.391 . S
C484 C485 1.400 . S
C485 C479 1.491 . S
C485 C484 1.400 . S
C485 C486 1.398 . S
C486 H474 0.950 . S
C486 C485 1.398 . S
C486 C487 1.391 . S
C487 H475 0.950 . S
C487 C483 1.393 . S
C487 C486 1.391 . S
H488 C496 0.950 . S
H489 C501 0.950 . S
H490 C498 0.950 . S
H491 C500 0.950 . S
H492 C502 0.950 . S
H493 C504 0.950 . S
H494 C506 0.950 . S
H495 C507 0.950 . S
C496 H488 0.950 . S
C496 C497 1.386 . S
C496 C498 1.391 . S
C497 C496 1.386 . S
C497 C501 1.393 . S
C498 H490 0.950 . S
C498 C496 1.391 . S
C498 C499 1.400 . S
C499 C498 1.400 . S
C499 C500 1.398 . S
C499 C505 1.491 . S
C500 H491 0.950 . S
C500 C499 1.398 . S
C500 C501 1.391 . S
C501 H489 0.950 . S
C501 C497 1.393 . S
C501 C500 1.391 . S
C502 H492 0.950 . S
C502 C503 1.386 . S
C502 C504 1.391 . S
C503 C502 1.386 . S
C503 C507 1.393 . S
C504 H493 0.950 . S
C504 C502 1.391 . S
C504 C505 1.400 . S
C505 C499 1.491 . S
C505 C504 1.400 . S
C505 C506 1.398 . S
C506 H494 0.950 . S
C506 C505 1.398 . S
C506 C507 1.391 . S
C507 H495 0.950 . S
C507 C503 1.393 . S
C507 C506 1.391 . S
H508 C516 0.950 . S
H509 C521 0.950 . S
H510 C518 0.950 . S
H511 C520 0.950 . S
H512 C522 0.950 . S
H513 C524 0.950 . S
H514 C526 0.950 . S
H515 C527 0.950 . S
C516 H508 0.950 . S
C516 C517 1.386 . S
C516 C518 1.391 . S
C517 C516 1.386 . S
C517 C521 1.393 . S
C518 H510 0.950 . S
C518 C516 1.391 . S
C518 C519 1.400 . S
C519 C518 1.400 . S
C519 C520 1.398 . S
C519 C525 1.491 . S
C520 H511 0.950 . S
C520 C519 1.398 . S
C520 C521 1.391 . S
C521 H509 0.950 . S
C521 C517 1.393 . S
C521 C520 1.391 . S
C522 H512 0.950 . S
C522 C523 1.386 . S
C522 C524 1.391 . S
C523 C522 1.386 . S
C523 C527 1.393 . S
C524 H513 0.950 . S
C524 C522 1.391 . S
C524 C525 1.400 . S
C525 C519 1.491 . S
C525 C524 1.400 . S
C525 C526 1.398 . S
C526 H514 0.950 . S
C526 C525 1.398 . S
C526 C527 1.391 . S
C527 H515 0.950 . S
C527 C523 1.393 . S
C527 C526 1.391 . S
H528 C536 0.950 . S
H529 C541 0.950 . S
H530 C538 0.950 . S
H531 C540 0.950 . S
H532 C542 0.950 . S
H533 C544 0.950 . S
H534 C546 0.950 . S
H535 C547 0.950 . S
C536 H528 0.950 . S
C536 C537 1.386 . S
C536 C538 1.391 . S
C537 C536 1.386 . S
C537 C541 1.393 . S
C538 H530 0.950 . S
C538 C536 1.391 . S
C538 C539 1.400 . S
C539 C538 1.400 . S
C539 C540 1.398 . S
C539 C545 1.491 . S
C540 H531 0.950 . S
C540 C539 1.398 . S
C540 C541 1.391 . S
C541 H529 0.950 . S
C541 C537 1.393 . S
C541 C540 1.391 . S
C542 H532 0.950 . S
C542 C543 1.386 . S
C542 C544 1.391 . S
C543 C542 1.386 . S
C543 C547 1.393 . S
C544 H533 0.950 . S
C544 C542 1.391 . S
C544 C545 1.400 . S
C545 C539 1.491 . S
C545 C544 1.400 . S
C545 C546 1.398 . S
C546 H534 0.950 . S
C546 C545 1.398 . S
C546 C547 1.391 . S
C547 H535 0.950 . S
C547 C543 1.393 . S
C547 C546 1.391 . S
H548 C556 0.950 . S
H549 C561 0.950 . S
H550 C558 0.950 . S
H551 C560 0.950 . S
H552 C562 0.950 . S
H553 C564 0.950 . S
H554 C566 0.950 . S
H555 C567 0.950 . S
C556 H548 0.950 . S
C556 C557 1.386 . S
C556 C558 1.391 . S
C557 C556 1.386 . S
C557 C561 1.393 . S
C558 H550 0.950 . S
C558 C556 1.391 . S
C558 C559 1.400 . S
C559 C558 1.400 . S
C559 C560 1.398 . S
C559 C565 1.491 . S
C560 H551 0.950 . S
C560 C559 1.398 . S
C560 C561 1.391 . S
C561 H549 0.950 . S
C561 C557 1.393 . S
C561 C560 1.391 . S
C562 H552 0.950 . S
C562 C563 1.386 . S
C562 C564 1.391 . S
C563 C562 1.386 . S
C563 C567 1.393 . S
C564 H553 0.950 . S
C564 C562 1.391 . S
C564 C565 1.400 . S
C565 C559 1.491 . S
C565 C564 1.400 . S
C565 C566 1.398 . S
C566 H554 0.950 . S
C566 C565 1.398 . S
C566 C567 1.391 . S
C567 H555 0.950 . S
C567 C563 1.393 . S
C567 C566 1.391 . S
H568 C576 0.950 . S
H569 C581 0.950 . S
H570 C578 0.950 . S
H571 C580 0.950 . S
H572 C582 0.950 . S
H573 C584 0.950 . S
H574 C586 0.950 . S
H575 C587 0.950 . S
C576 H568 0.950 . S
C576 C577 1.386 . S
C576 C578 1.391 . S
C577 C576 1.386 . S
C577 C581 1.393 . S
C578 H570 0.950 . S
C578 C576 1.391 . S
C578 C579 1.400 . S
C579 C578 1.400 . S
C579 C580 1.398 . S
C579 C585 1.491 . S
C580 H571 0.950 . S
C580 C579 1.398 . S
C580 C581 1.391 . S
C581 H569 0.950 . S
C581 C577 1.393 . S
C581 C580 1.391 . S
C582 H572 0.950 . S
C582 C583 1.386 . S
C582 C584 1.391 . S
C583 C582 1.386 . S
C583 C587 1.393 . S
C584 H573 0.950 . S
C584 C582 1.391 . S
C584 C585 1.400 . S
C585 C579 1.491 . S
C585 C584 1.400 . S
C585 C586 1.398 . S
C586 H574 0.950 . S
C586 C585 1.398 . S
C586 C587 1.391 . S
C587 H575 0.950 . S
C587 C583 1.393 . S
C587 C586 1.391 . S
H588 C596 0.950 . S
H589 C601 0.950 . S
H590 C598 0.950 . S
H591 C600 0.950 . S
H592 C602 0.950 . S
H593 C604 0.950 . S
H594 C606 0.950 . S
H595 C607 0.950 . S
C596 H588 0.950 . S
C596 C597 1.386 . S
C596 C598 1.391 . S
C597 C596 1.386 . S
C597 C601 1.393 . S
C598 H590 0.950 . S
C598 C596 1.391 . S
C598 C599 1.400 . S
C599 C598 1.400 . S
C599 C600 1.398 . S
C599 C605 1.491 . S
C600 H591 0.950 . S
C600 C599 1.398 . S
C600 C601 1.391 . S
C601 H589 0.950 . S
C601 C597 1.393 . S
C601 C600 1.391 . S
C602 H592 0.950 . S
C602 C603 1.386 . S
C602 C604 1.391 . S
C603 C602 1.386 . S
C603 C607 1.393 . S
C604 H593 0.950 . S
C604 C602 1.391 . S
C604 C605 1.400 . S
C605 C599 1.491 . S
C605 C604 1.400 . S
C605 C606 1.398 . S
C606 H594 0.950 . S
C606 C605 1.398 . S
C606 C607 1.391 . S
C607 H595 0.950 . S
C607 C603 1.393 . S
C607 C606 1.391 . S
H608 C616 0.950 . S
H609 C621 0.950 . S
H610 C618 0.950 . S
H611 C620 0.950 . S
H612 C622 0.950 . S
H613 C624 0.950 . S
H614 C626 0.950 . S
H615 C627 0.950 . S
C616 H608 0.950 . S
C616 C617 1.386 . S
C616 C618 1.391 . S
C617 C616 1.386 . S
C617 C621 1.393 . S
C618 H610 0.950 . S
C618 C616 1.391 . S
C618 C619 1.400 . S
C619 C618 1.400 . S
C619 C620 1.398 . S
C619 C625 1.491 . S
C620 H611 0.950 . S
C620 C619 1.398 . S
C620 C621 1.391 . S
C621 H609 0.950 . S
C621 C617 1.393 . S
C621 C620 1.391 . S
C622 H612 0.950 . S
C622 C623 1.386 . S
C622 C624 1.391 . S
C623 C622 1.386 . S
C623 C627 1.393 . S
C624 H613 0.950 . S
C624 C622 1.391 . S
C624 C625 1.400 . S
C625 C619 1.491 . S
C625 C624 1.400 . S
C625 C626 1.398 . S
C626 H614 0.950 . S
C626 C625 1.398 . S
C626 C627 1.391 . S
C627 H615 0.950 . S
C627 C623 1.393 . S
C627 C626 1.391 . S
H628 C636 0.950 . S
H629 C641 0.950 . S
H630 C638 0.950 . S
H631 C640 0.950 . S
H632 C642 0.950 . S
H633 C644 0.950 . S
H634 C646 0.950 . S
H635 C647 0.950 . S
C636 H628 0.950 . S
C636 C637 1.386 . S
C636 C638 1.391 . S
C637 C636 1.386 . S
C637 C641 1.393 . S
C638 H630 0.950 . S
C638 C636 1.391 . S
C638 C639 1.400 . S
C639 C638 1.400 . S
C639 C640 1.398 . S
C639 C645 1.491 . S
C640 H631 0.950 . S
C640 C639 1.398 . S
C640 C641 1.391 . S
C641 H629 0.950 . S
C641 C637 1.393 . S
C641 C640 1.391 . S
C642 H632 0.950 . S
C642 C643 1.386 . S
C642 C644 1.391 . S
C643 C642 1.386 . S
C643 C647 1.393 . S
C644 H633 0.950 . S
C644 C642 1.391 . S
C644 C645 1.400 . S
C645 C639 1.491 . S
C645 C644 1.400 . S
C645 C646 1.398 . S
C646 H634 0.950 . S
C646 C645 1.398 . S
C646 C647 1.391 . S
C647 H635 0.950 . S
C647 C643 1.393 . S
C647 C646 1.391 . S
H648 C656 0.950 . S
H649 C661 0.950 . S
H650 C658 0.950 . S
H651 C660 0.950 . S
H652 C662 0.950 . S
H653 C664 0.950 . S
H654 C666 0.950 . S
H655 C667 0.950 . S
C656 H648 0.950 . S
C656 C657 1.386 . S
C656 C658 1.391 . S
C657 C656 1.386 . S
C657 C661 1.393 . S
C658 H650 0.950 . S
C658 C656 1.391 . S
C658 C659 1.400 . S
C659 C658 1.400 . S
C659 C660 1.398 . S
C659 C665 1.491 . S
C660 H651 0.950 . S
C660 C659 1.398 . S
C660 C661 1.391 . S
C661 H649 0.950 . S
C661 C657 1.393 . S
C661 C660 1.391 . S
C662 H652 0.950 . S
C662 C663 1.386 . S
C662 C664 1.391 . S
C663 C662 1.386 . S
C663 C667 1.393 . S
C664 H653 0.950 . S
C664 C662 1.391 . S
C664 C665 1.400 . S
C665 C659 1.491 . S
C665 C664 1.400 . S
C665 C666 1.398 . S
C666 H654 0.950 . S
C666 C665 1.398 . S
C666 C667 1.391 . S
C667 H655 0.950 . S
C667 C663 1.393 . S
C667 C666 1.391 . S
H668 C676 0.950 . S
H669 C681 0.950 . S
H670 C678 0.950 . S
H671 C680 0.950 . S
H672 C682 0.950 . S
H673 C684 0.950 . S
H674 C686 0.950 . S
H675 C687 0.950 . S
C676 H668 0.950 . S
C676 C677 1.386 . S
C676 C678 1.391 . S
C677 C676 1.386 . S
C677 C681 1.393 . S
C678 H670 0.950 . S
C678 C676 1.391 . S
C678 C679 1.400 . S
C679 C678 1.400 . S
C679 C680 1.398 . S
C679 C685 1.491 . S
C680 H671 0.950 . S
C680 C679 1.398 . S
C680 C681 1.391 . S
C681 H669 0.950 . S
C681 C677 1.393 . S
C681 C680 1.391 . S
C682 H672 0.950 . S
C682 C683 1.386 . S
C682 C684 1.391 . S
C683 C682 1.386 . S
C683 C687 1.393 . S
C684 H673 0.950 . S
C684 C682 1.391 . S
C684 C685 1.400 . S
C685 C679 1.491 . S
C685 C684 1.400 . S
C685 C686 1.398 . S
C686 H674 0.950 . S
C686 C685 1.398 . S
C686 C687 1.391 . S
C687 H675 0.950 . S
C687 C683 1.393 . S
C687 C686 1.391 . S
H688 C696 0.950 . S
H689 C701 0.950 . S
H690 C698 0.950 . S
H691 C700 0.950 . S
H692 C702 0.950 . S
H693 C704 0.950 . S
H694 C706 0.950 . S
H695 C707 0.950 . S
C696 H688 0.950 . S
C696 C697 1.386 . S
C696 C698 1.391 . S
C697 C696 1.386 . S
C697 C701 1.393 . S
C698 H690 0.950 . S
C698 C696 1.391 . S
C698 C699 1.400 . S
C699 C698 1.400 . S
C699 C700 1.398 . S
C699 C705 1.491 . S
C700 H691 0.950 . S
C700 C699 1.398 . S
C700 C701 1.391 . S
C701 H689 0.950 . S
C701 C697 1.393 . S
C701 C700 1.391 . S
C702 H692 0.950 . S
C702 C703 1.386 . S
C702 C704 1.391 . S
C703 C702 1.386 . S
C703 C707 1.393 . S
C704 H693 0.950 . S
C704 C702 1.391 . S
C704 C705 1.400 . S
C705 C699 1.491 . S
C705 C704 1.400 . S
C705 C706 1.398 . S
C706 H694 0.950 . S
C706 C705 1.398 . S
C706 C707 1.391 . S
C707 H695 0.950 . S
C707 C703 1.393 . S
C707 C706 1.391 . S
H708 C716 0.950 . S
H709 C721 0.950 . S
H710 C718 0.950 . S
H711 C720 0.950 . S
H712 C722 0.950 . S
H713 C724 0.950 . S
H714 C726 0.950 . S
H715 C727 0.950 . S
C716 H708 0.950 . S
C716 C717 1.386 . S
C716 C718 1.391 . S
C717 C716 1.386 . S
C717 C721 1.393 . S
C718 H710 0.950 . S
C718 C716 1.391 . S
C718 C719 1.400 . S
C719 C718 1.400 . S
C719 C720 1.398 . S
C719 C725 1.491 . S
C720 H711 0.950 . S
C720 C719 1.398 . S
C720 C721 1.391 . S
C721 H709 0.950 . S
C721 C717 1.393 . S
C721 C720 1.391 . S
C722 H712 0.950 . S
C722 C723 1.386 . S
C722 C724 1.391 . S
C723 C722 1.386 . S
C723 C727 1.393 . S
C724 H713 0.950 . S
C724 C722 1.391 . S
C724 C725 1.400 . S
C725 C719 1.491 . S
C725 C724 1.400 . S
C725 C726 1.398 . S
C726 H714 0.950 . S
C726 C725 1.398 . S
C726 C727 1.391 . S
C727 H715 0.950 . S
C727 C723 1.393 . S
C727 C726 1.391 . S
H728 C736 0.950 . S
H729 C741 0.950 . S
H730 C738 0.950 . S
H731 C740 0.950 . S
H732 C742 0.950 . S
H733 C744 0.950 . S
H734 C746 0.950 . S
H735 C747 0.950 . S
C736 H728 0.950 . S
C736 C737 1.386 . S
C736 C738 1.391 . S
C737 C736 1.386 . S
C737 C741 1.393 . S
C738 H730 0.950 . S
C738 C736 1.391 . S
C738 C739 1.400 . S
C739 C738 1.400 . S
C739 C740 1.398 . S
C739 C745 1.491 . S
C740 H731 0.950 . S
C740 C739 1.398 . S
C740 C741 1.391 . S
C741 H729 0.950 . S
C741 C737 1.393 . S
C741 C740 1.391 . S
C742 H732 0.950 . S
C742 C743 1.386 . S
C742 C744 1.391 . S
C743 C742 1.386 . S
C743 C747 1.393 . S
C744 H733 0.950 . S
C744 C742 1.391 . S
C744 C745 1.400 . S
C745 C739 1.491 . S
C745 C744 1.400 . S
C745 C746 1.398 . S
C746 H734 0.950 . S
C746 C745 1.398 . S
C746 C747 1.391 . S
C747 H735 0.950 . S
C747 C743 1.393 . S
C747 C746 1.391 . S
H748 C756 0.950 . S
H749 C761 0.950 . S
H750 C758 0.950 . S
H751 C760 0.950 . S
H752 C762 0.950 . S
H753 C764 0.950 . S
H754 C766 0.950 . S
H755 C767 0.950 . S
C756 H748 0.950 . S
C756 C757 1.386 . S
C756 C758 1.391 . S
C757 C756 1.386 . S
C757 C761 1.393 . S
C758 H750 0.950 . S
C758 C756 1.391 . S
C758 C759 1.400 . S
C759 C758 1.400 . S
C759 C760 1.398 . S
C759 C765 1.491 . S
C760 H751 0.950 . S
C760 C759 1.398 . S
C760 C761 1.391 . S
C761 H749 0.950 . S
C761 C757 1.393 . S
C761 C760 1.391 . S
C762 H752 0.950 . S
C762 C763 1.386 . S
C762 C764 1.391 . S
C763 C762 1.386 . S
C763 C767 1.393 . S
C764 H753 0.950 . S
C764 C762 1.391 . S
C764 C765 1.400 . S
C765 C759 1.491 . S
C765 C764 1.400 . S
C765 C766 1.398 . S
C766 H754 0.950 . S
C766 C765 1.398 . S
C766 C767 1.391 . S
C767 H755 0.950 . S
C767 C763 1.393 . S
C767 C766 1.391 . S
H768 C776 0.950 . S
H769 C781 0.950 . S
H770 C778 0.950 . S
H771 C780 0.950 . S
H772 C782 0.950 . S
H773 C784 0.950 . S
H774 C786 0.950 . S
H775 C787 0.950 . S
C776 H768 0.950 . S
C776 C777 1.386 . S
C776 C778 1.391 . S
C777 C776 1.386 . S
C777 C781 1.393 . S
C778 H770 0.950 . S
C778 C776 1.391 . S
C778 C779 1.400 . S
C779 C778 1.400 . S
C779 C780 1.398 . S
C779 C785 1.491 1_554 S
C780 H771 0.950 . S
C780 C779 1.398 . S
C780 C781 1.391 . S
C781 H769 0.950 . S
C781 C777 1.393 . S
C781 C780 1.391 . S
C782 H772 0.950 . S
C782 C783 1.386 . S
C782 C784 1.391 . S
C783 C782 1.386 . S
C783 C787 1.393 . S
C784 H773 0.950 . S
C784 C782 1.391 . S
C784 C785 1.400 . S
C785 C779 1.491 1_556 S
C785 C784 1.400 . S
C785 C786 1.398 . S
C786 H774 0.950 . S
C786 C785 1.398 . S
C786 C787 1.391 . S
C787 H775 0.950 . S
C787 C783 1.393 . S
C787 C786 1.391 . S
H788 C796 0.950 . S
H789 C801 0.950 . S
H790 C798 0.950 . S
H791 C800 0.950 . S
H792 C802 0.950 . S
H793 C804 0.950 . S
H794 C806 0.950 . S
H795 C807 0.950 . S
C796 H788 0.950 . S
C796 C797 1.386 . S
C796 C798 1.391 . S
C797 C796 1.386 . S
C797 C801 1.393 . S
C798 H790 0.950 . S
C798 C796 1.391 . S
C798 C799 1.400 . S
C799 C798 1.400 . S
C799 C800 1.398 . S
C799 C805 1.491 1_556 S
C800 H791 0.950 . S
C800 C799 1.398 . S
C800 C801 1.391 . S
C801 H789 0.950 . S
C801 C797 1.393 . S
C801 C800 1.391 . S
C802 H792 0.950 . S
C802 C803 1.386 . S
C802 C804 1.391 . S
C803 C802 1.386 . S
C803 C807 1.393 . S
C804 H793 0.950 . S
C804 C802 1.391 . S
C804 C805 1.400 . S
C805 C799 1.491 1_554 S
C805 C804 1.400 . S
C805 C806 1.398 . S
C806 H794 0.950 . S
C806 C805 1.398 . S
C806 C807 1.391 . S
C807 H795 0.950 . S
C807 C803 1.393 . S
C807 C806 1.391 . S
H808 C816 0.950 . S
H809 C821 0.950 . S
H810 C818 0.950 . S
H811 C820 0.950 . S
H812 C822 0.950 . S
H813 C824 0.950 . S
H814 C826 0.950 . S
H815 C827 0.950 . S
C816 H808 0.950 . S
C816 C817 1.386 . S
C816 C818 1.391 . S
C817 C816 1.386 . S
C817 C821 1.393 . S
C818 H810 0.950 . S
C818 C816 1.391 . S
C818 C819 1.400 . S
C819 C818 1.400 . S
C819 C820 1.398 . S
C819 C825 1.491 1_556 S
C820 H811 0.950 . S
C820 C819 1.398 . S
C820 C821 1.391 . S
C821 H809 0.950 . S
C821 C817 1.393 . S
C821 C820 1.391 . S
C822 H812 0.950 . S
C822 C823 1.386 . S
C822 C824 1.391 . S
C823 C822 1.386 . S
C823 C827 1.393 . S
C824 H813 0.950 . S
C824 C822 1.391 . S
C824 C825 1.400 . S
C825 C819 1.491 1_554 S
C825 C824 1.400 . S
C825 C826 1.398 . S
C826 H814 0.950 . S
C826 C825 1.398 . S
C826 C827 1.391 . S
C827 H815 0.950 . S
C827 C823 1.393 . S
C827 C826 1.391 . S
H828 C836 0.950 . S
H829 C841 0.950 . S
H830 C838 0.950 . S
H831 C840 0.950 . S
H832 C842 0.950 . S
H833 C844 0.950 . S
H834 C846 0.950 . S
H835 C847 0.950 . S
C836 H828 0.950 . S
C836 C837 1.386 . S
C836 C838 1.391 . S
C837 C836 1.386 . S
C837 C841 1.393 . S
C838 H830 0.950 . S
C838 C836 1.391 . S
C838 C839 1.400 . S
C839 C838 1.400 . S
C839 C840 1.398 . S
C839 C845 1.491 1_556 S
C840 H831 0.950 . S
C840 C839 1.398 . S
C840 C841 1.391 . S
C841 H829 0.950 . S
C841 C837 1.393 . S
C841 C840 1.391 . S
C842 H832 0.950 . S
C842 C843 1.386 . S
C842 C844 1.391 . S
C843 C842 1.386 . S
C843 C847 1.393 . S
C844 H833 0.950 . S
C844 C842 1.391 . S
C844 C845 1.400 . S
C845 C839 1.491 1_554 S
C845 C844 1.400 . S
C845 C846 1.398 . S
C846 H834 0.950 . S
C846 C845 1.398 . S
C846 C847 1.391 . S
C847 H835 0.950 . S
C847 C843 1.393 . S
C847 C846 1.391 . S
H848 C856 0.950 . S
H849 C861 0.950 . S
H850 C858 0.950 . S
H851 C860 0.950 . S
H852 C862 0.950 . S
H853 C864 0.950 . S
H854 C866 0.950 . S
H855 C867 0.950 . S
C856 H848 0.950 . S
C856 C857 1.386 . S
C856 C858 1.391 . S
C857 C856 1.386 . S
C857 C861 1.393 . S
C858 H850 0.950 . S
C858 C856 1.391 . S
C858 C859 1.400 . S
C859 C858 1.400 . S
C859 C860 1.398 . S
C859 C865 1.491 . S
C860 H851 0.950 . S
C860 C859 1.398 . S
C860 C861 1.391 . S
C861 H849 0.950 . S
C861 C857 1.393 . S
C861 C860 1.391 . S
C862 H852 0.950 . S
C862 C863 1.386 . S
C862 C864 1.391 . S
C863 C862 1.386 . S
C863 C867 1.393 . S
C864 H853 0.950 . S
C864 C862 1.391 . S
C864 C865 1.400 . S
C865 C859 1.491 . S
C865 C864 1.400 . S
C865 C866 1.398 . S
C866 H854 0.950 . S
C866 C865 1.398 . S
C866 C867 1.391 . S
C867 H855 0.950 . S
C867 C863 1.393 . S
C867 C866 1.391 . S
H868 C876 0.950 . S
H869 C881 0.950 . S
H870 C878 0.950 . S
H871 C880 0.950 . S
H872 C882 0.950 . S
H873 C884 0.950 . S
H874 C886 0.950 . S
H875 C887 0.950 . S
C876 H868 0.950 . S
C876 C877 1.386 . S
C876 C878 1.391 . S
C877 C876 1.386 . S
C877 C881 1.393 . S
C878 H870 0.950 . S
C878 C876 1.391 . S
C878 C879 1.400 . S
C879 C878 1.400 . S
C879 C880 1.398 . S
C879 C885 1.491 . S
C880 H871 0.950 . S
C880 C879 1.398 . S
C880 C881 1.391 . S
C881 H869 0.950 . S
C881 C877 1.393 . S
C881 C880 1.391 . S
C882 H872 0.950 . S
C882 C883 1.386 . S
C882 C884 1.391 . S
C883 C882 1.386 . S
C883 C887 1.393 . S
C884 H873 0.950 . S
C884 C882 1.391 . S
C884 C885 1.400 . S
C885 C879 1.491 . S
C885 C884 1.400 . S
C885 C886 1.398 . S
C886 H874 0.950 . S
C886 C885 1.398 . S
C886 C887 1.391 . S
C887 H875 0.950 . S
C887 C883 1.393 . S
C887 C886 1.391 . S
H888 C896 0.950 . S
H889 C901 0.950 . S
H890 C898 0.950 . S
H891 C900 0.950 . S
H892 C902 0.950 . S
H893 C904 0.950 . S
H894 C906 0.950 . S
H895 C907 0.950 . S
C896 H888 0.950 . S
C896 C897 1.386 . S
C896 C898 1.391 . S
C897 C896 1.386 . S
C897 C901 1.393 . S
C898 H890 0.950 . S
C898 C896 1.391 . S
C898 C899 1.400 . S
C899 C898 1.400 . S
C899 C900 1.398 . S
C899 C905 1.491 . S
C900 H891 0.950 . S
C900 C899 1.398 . S
C900 C901 1.391 . S
C901 H889 0.950 . S
C901 C897 1.393 . S
C901 C900 1.391 . S
C902 H892 0.950 . S
C902 C903 1.386 . S
C902 C904 1.391 . S
C903 C902 1.386 . S
C903 C907 1.393 . S
C904 H893 0.950 . S
C904 C902 1.391 . S
C904 C905 1.400 . S
C905 C899 1.491 . S
C905 C904 1.400 . S
C905 C906 1.398 . S
C906 H894 0.950 . S
C906 C905 1.398 . S
C906 C907 1.391 . S
C907 H895 0.950 . S
C907 C903 1.393 . S
C907 C906 1.391 . S
H908 C916 0.950 . S
H909 C921 0.950 . S
H910 C918 0.950 . S
H911 C920 0.950 . S
H912 C922 0.950 . S
H913 C924 0.950 . S
H914 C926 0.950 . S
H915 C927 0.950 . S
C916 H908 0.950 . S
C916 C917 1.386 . S
C916 C918 1.391 . S
C917 C916 1.386 . S
C917 C921 1.393 . S
C918 H910 0.950 . S
C918 C916 1.391 . S
C918 C919 1.400 . S
C919 C918 1.400 . S
C919 C920 1.398 . S
C919 C925 1.491 . S
C920 H911 0.950 . S
C920 C919 1.398 . S
C920 C921 1.391 . S
C921 H909 0.950 . S
C921 C917 1.393 . S
C921 C920 1.391 . S
C922 H912 0.950 . S
C922 C923 1.386 . S
C922 C924 1.391 . S
C923 C922 1.386 . S
C923 C927 1.393 . S
C924 H913 0.950 . S
C924 C922 1.391 . S
C924 C925 1.400 . S
C925 C919 1.491 . S
C925 C924 1.400 . S
C925 C926 1.398 . S
C926 H914 0.950 . S
C926 C925 1.398 . S
C926 C927 1.391 . S
C927 H915 0.950 . S
C927 C923 1.393 . S
C927 C926 1.391 . S
H928 C936 0.950 . S
H929 C941 0.950 . S
H930 C938 0.950 . S
H931 C940 0.950 . S
H932 C942 0.950 . S
H933 C944 0.950 . S
H934 C946 0.950 . S
H935 C947 0.950 . S
C936 H928 0.950 . S
C936 C937 1.386 . S
C936 C938 1.391 . S
C937 C936 1.386 . S
C937 C941 1.393 . S
C938 H930 0.950 . S
C938 C936 1.391 . S
C938 C939 1.400 . S
C939 C938 1.400 . S
C939 C940 1.398 . S
C939 C945 1.491 . S
C940 H931 0.950 . S
C940 C939 1.398 . S
C940 C941 1.391 . S
C941 H929 0.950 . S
C941 C937 1.393 . S
C941 C940 1.391 . S
C942 H932 0.950 . S
C942 C943 1.386 . S
C942 C944 1.391 . S
C943 C942 1.386 . S
C943 C947 1.393 . S
C944 H933 0.950 . S
C944 C942 1.391 . S
C944 C945 1.400 . S
C945 C939 1.491 . S
C945 C944 1.400 . S
C945 C946 1.398 . S
C946 H934 0.950 . S
C946 C945 1.398 . S
C946 C947 1.391 . S
C947 H935 0.950 . S
C947 C943 1.393 . S
C947 C946 1.391 . S
H948 C956 0.950 . S
H949 C961 0.950 . S
H950 C958 0.950 . S
H951 C960 0.950 . S
H952 C962 0.950 . S
H953 C964 0.950 . S
H954 C966 0.950 . S
H955 C967 0.950 . S
C956 H948 0.950 . S
C956 C957 1.386 . S
C956 C958 1.391 . S
C957 C956 1.386 . S
C957 C961 1.393 . S
C958 H950 0.950 . S
C958 C956 1.391 . S
C958 C959 1.400 . S
C959 C958 1.400 . S
C959 C960 1.398 . S
C959 C965 1.491 . S
C960 H951 0.950 . S
C960 C959 1.398 . S
C960 C961 1.391 . S
C961 H949 0.950 . S
C961 C957 1.393 . S
C961 C960 1.391 . S
C962 H952 0.950 . S
C962 C963 1.386 . S
C962 C964 1.391 . S
C963 C962 1.386 . S
C963 C967 1.393 . S
C964 H953 0.950 . S
C964 C962 1.391 . S
C964 C965 1.400 . S
C965 C959 1.491 . S
C965 C964 1.400 . S
C965 C966 1.398 . S
C966 H954 0.950 . S
C966 C965 1.398 . S
C966 C967 1.391 . S
C967 H955 0.950 . S
C967 C963 1.393 . S
C967 C966 1.391 . S
H968 C976 0.950 . S
H969 C981 0.950 . S
H970 C978 0.950 . S
H971 C980 0.950 . S
H972 C982 0.950 . S
H973 C984 0.950 . S
H974 C986 0.950 . S
H975 C987 0.950 . S
C976 H968 0.950 . S
C976 C977 1.386 . S
C976 C978 1.391 . S
C977 C976 1.386 . S
C977 C981 1.393 . S
C978 H970 0.950 . S
C978 C976 1.391 . S
C978 C979 1.400 . S
C979 C978 1.400 . S
C979 C980 1.398 . S
C979 C985 1.491 . S
C980 H971 0.950 . S
C980 C979 1.398 . S
C980 C981 1.391 . S
C981 H969 0.950 . S
C981 C977 1.393 . S
C981 C980 1.391 . S
C982 H972 0.950 . S
C982 C983 1.386 . S
C982 C984 1.391 . S
C983 C982 1.386 . S
C983 C987 1.393 . S
C984 H973 0.950 . S
C984 C982 1.391 . S
C984 C985 1.400 . S
C985 C979 1.491 . S
C985 C984 1.400 . S
C985 C986 1.398 . S
C986 H974 0.950 . S
C986 C985 1.398 . S
C986 C987 1.391 . S
C987 H975 0.950 . S
C987 C983 1.393 . S
C987 C986 1.391 . S
H988 C996 0.950 . S
H989 C1001 0.950 . S
H990 C998 0.950 . S
H991 C1000 0.950 . S
H992 C1002 0.950 . S
H993 C1004 0.950 . S
H994 C1006 0.950 . S
H995 C1007 0.950 . S
C996 H988 0.950 . S
C996 C997 1.386 . S
C996 C998 1.391 . S
C997 C996 1.386 . S
C997 C1001 1.393 . S
C998 H990 0.950 . S
C998 C996 1.391 . S
C998 C999 1.400 . S
C999 C998 1.400 . S
C999 C1000 1.398 . S
C999 C1005 1.491 . S
C1000 H991 0.950 . S
C1000 C999 1.398 . S
C1000 C1001 1.391 . S
C1001 H989 0.950 . S
C1001 C997 1.393 . S
C1001 C1000 1.391 . S
C1002 H992 0.950 . S
C1002 C1003 1.386 . S
C1002 C1004 1.391 . S
C1003 C1002 1.386 . S
C1003 C1007 1.393 . S
C1004 H993 0.950 . S
C1004 C1002 1.391 . S
C1004 C1005 1.400 . S
C1005 C999 1.491 . S
C1005 C1004 1.400 . S
C1005 C1006 1.398 . S
C1006 H994 0.950 . S
C1006 C1005 1.398 . S
C1006 C1007 1.391 . S
C1007 H995 0.950 . S
C1007 C1003 1.393 . S
C1007 C1006 1.391 . S
H1008 C1016 0.950 . S
H1009 C1021 0.950 . S
H1010 C1018 0.950 . S
H1011 C1020 0.950 . S
H1012 C1022 0.950 . S
H1013 C1024 0.950 . S
H1014 C1026 0.950 . S
H1015 C1027 0.950 . S
C1016 H1008 0.950 . S
C1016 C1017 1.386 . S
C1016 C1018 1.391 . S
C1017 C1016 1.386 . S
C1017 C1021 1.393 . S
C1018 H1010 0.950 . S
C1018 C1016 1.391 . S
C1018 C1019 1.400 . S
C1019 C1018 1.400 . S
C1019 C1020 1.398 . S
C1019 C1025 1.491 1_556 S
C1020 H1011 0.950 . S
C1020 C1019 1.398 . S
C1020 C1021 1.391 . S
C1021 H1009 0.950 . S
C1021 C1017 1.393 . S
C1021 C1020 1.391 . S
C1022 H1012 0.950 . S
C1022 C1023 1.386 . S
C1022 C1024 1.391 . S
C1023 C1022 1.386 . S
C1023 C1027 1.393 . S
C1024 H1013 0.950 . S
C1024 C1022 1.391 . S
C1024 C1025 1.400 . S
C1025 C1019 1.491 1_554 S
C1025 C1024 1.400 . S
C1025 C1026 1.398 . S
C1026 H1014 0.950 . S
C1026 C1025 1.398 . S
C1026 C1027 1.391 . S
C1027 H1015 0.950 . S
C1027 C1023 1.393 . S
C1027 C1026 1.391 . S
H1028 C1036 0.950 . S
H1029 C1041 0.950 . S
H1030 C1038 0.950 . S
H1031 C1040 0.950 . S
H1032 C1042 0.950 . S
H1033 C1044 0.950 . S
H1034 C1046 0.950 . S
H1035 C1047 0.950 . S
C1036 H1028 0.950 . S
C1036 C1037 1.386 . S
C1036 C1038 1.391 . S
C1037 C1036 1.386 . S
C1037 C1041 1.393 . S
C1038 H1030 0.950 . S
C1038 C1036 1.391 . S
C1038 C1039 1.400 . S
C1039 C1038 1.400 . S
C1039 C1040 1.398 . S
C1039 C1045 1.491 1_554 S
C1040 H1031 0.950 . S
C1040 C1039 1.398 . S
C1040 C1041 1.391 . S
C1041 H1029 0.950 . S
C1041 C1037 1.393 . S
C1041 C1040 1.391 . S
C1042 H1032 0.950 . S
C1042 C1043 1.386 . S
C1042 C1044 1.391 . S
C1043 C1042 1.386 . S
C1043 C1047 1.393 . S
C1044 H1033 0.950 . S
C1044 C1042 1.391 . S
C1044 C1045 1.400 . S
C1045 C1039 1.491 1_556 S
C1045 C1044 1.400 . S
C1045 C1046 1.398 . S
C1046 H1034 0.950 . S
C1046 C1045 1.398 . S
C1046 C1047 1.391 . S
C1047 H1035 0.950 . S
C1047 C1043 1.393 . S
C1047 C1046 1.391 . S
H1048 C1056 0.950 . S
H1049 C1061 0.950 . S
H1050 C1058 0.950 . S
H1051 C1060 0.950 . S
H1052 C1062 0.950 . S
H1053 C1064 0.950 . S
H1054 C1066 0.950 . S
H1055 C1067 0.950 . S
C1056 H1048 0.950 . S
C1056 C1057 1.386 . S
C1056 C1058 1.391 . S
C1057 C1056 1.386 . S
C1057 C1061 1.393 . S
C1058 H1050 0.950 . S
C1058 C1056 1.391 . S
C1058 C1059 1.400 . S
C1059 C1058 1.400 . S
C1059 C1060 1.398 . S
C1059 C1065 1.491 1_554 S
C1060 H1051 0.950 . S
C1060 C1059 1.398 . S
C1060 C1061 1.391 . S
C1061 H1049 0.950 . S
C1061 C1057 1.393 . S
C1061 C1060 1.391 . S
C1062 H1052 0.950 . S
C1062 C1063 1.386 . S
C1062 C1064 1.391 . S
C1063 C1062 1.386 . S
C1063 C1067 1.393 . S
C1064 H1053 0.950 . S
C1064 C1062 1.391 . S
C1064 C1065 1.400 . S
C1065 C1059 1.491 1_556 S
C1065 C1064 1.400 . S
C1065 C1066 1.398 . S
C1066 H1054 0.950 . S
C1066 C1065 1.398 . S
C1066 C1067 1.391 . S
C1067 H1055 0.950 . S
C1067 C1063 1.393 . S
C1067 C1066 1.391 . S
H1068 C1076 0.950 . S
H1069 C1081 0.950 . S
H1070 C1078 0.950 . S
H1071 C1080 0.950 . S
H1072 C1082 0.950 . S
H1073 C1084 0.950 . S
H1074 C1086 0.950 . S
H1075 C1087 0.950 . S
C1076 H1068 0.950 . S
C1076 C1077 1.386 . S
C1076 C1078 1.391 . S
C1077 C1076 1.386 . S
C1077 C1081 1.393 . S
C1078 H1070 0.950 . S
C1078 C1076 1.391 . S
C1078 C1079 1.400 . S
C1079 C1078 1.400 . S
C1079 C1080 1.398 . S
C1079 C1085 1.491 1_556 S
C1080 H1071 0.950 . S
C1080 C1079 1.398 . S
C1080 C1081 1.391 . S
C1081 H1069 0.950 . S
C1081 C1077 1.393 . S
C1081 C1080 1.391 . S
C1082 H1072 0.950 . S
C1082 C1083 1.386 . S
C1082 C1084 1.391 . S
C1083 C1082 1.386 . S
C1083 C1087 1.393 . S
C1084 H1073 0.950 . S
C1084 C1082 1.391 . S
C1084 C1085 1.400 . S
C1085 C1079 1.491 1_554 S
C1085 C1084 1.400 . S
C1085 C1086 1.398 . S
C1086 H1074 0.950 . S
C1086 C1085 1.398 . S
C1086 C1087 1.391 . S
C1087 H1075 0.950 . S
C1087 C1083 1.393 . S
C1087 C1086 1.391 . S
H1088 C1096 0.950 . S
H1089 C1101 0.950 . S
H1090 C1098 0.950 . S
H1091 C1100 0.950 . S
H1092 C1102 0.950 . S
H1093 C1104 0.950 . S
H1094 C1106 0.950 . S
H1095 C1107 0.950 . S
C1096 H1088 0.950 . S
C1096 C1097 1.386 . S
C1096 C1098 1.391 . S
C1097 C1096 1.386 . S
C1097 C1101 1.393 . S
C1098 H1090 0.950 . S
C1098 C1096 1.391 . S
C1098 C1099 1.400 . S
C1099 C1098 1.400 . S
C1099 C1100 1.398 . S
C1099 C1105 1.491 1_545 S
C1100 H1091 0.950 . S
C1100 C1099 1.398 . S
C1100 C1101 1.391 . S
C1101 H1089 0.950 . S
C1101 C1097 1.393 . S
C1101 C1100 1.391 . S
C1102 H1092 0.950 . S
C1102 C1103 1.386 . S
C1102 C1104 1.391 . S
C1103 C1102 1.386 . S
C1103 C1107 1.393 . S
C1104 H1093 0.950 . S
C1104 C1102 1.391 . S
C1104 C1105 1.400 . S
C1105 C1099 1.491 1_565 S
C1105 C1104 1.400 . S
C1105 C1106 1.398 . S
C1106 H1094 0.950 . S
C1106 C1105 1.398 . S
C1106 C1107 1.391 . S
C1107 H1095 0.950 . S
C1107 C1103 1.393 . S
C1107 C1106 1.391 . S
H1108 C1116 0.950 . S
H1109 C1121 0.950 . S
H1110 C1118 0.950 . S
H1111 C1120 0.950 . S
H1112 C1122 0.950 . S
H1113 C1124 0.950 . S
H1114 C1126 0.950 . S
H1115 C1127 0.950 . S
C1116 H1108 0.950 . S
C1116 C1117 1.386 . S
C1116 C1118 1.391 . S
C1117 C1116 1.386 . S
C1117 C1121 1.393 . S
C1118 H1110 0.950 . S
C1118 C1116 1.391 . S
C1118 C1119 1.400 . S
C1119 C1118 1.400 . S
C1119 C1120 1.398 . S
C1119 C1125 1.491 1_655 S
C1120 H1111 0.950 . S
C1120 C1119 1.398 . S
C1120 C1121 1.391 . S
C1121 H1109 0.950 . S
C1121 C1117 1.393 . S
C1121 C1120 1.391 . S
C1122 H1112 0.950 . S
C1122 C1123 1.386 . S
C1122 C1124 1.391 . S
C1123 C1122 1.386 . S
C1123 C1127 1.393 . S
C1124 H1113 0.950 . S
C1124 C1122 1.391 . S
C1124 C1125 1.400 . S
C1125 C1119 1.491 1_455 S
C1125 C1124 1.400 . S
C1125 C1126 1.398 . S
C1126 H1114 0.950 . S
C1126 C1125 1.398 . S
C1126 C1127 1.391 . S
C1127 H1115 0.950 . S
C1127 C1123 1.393 . S
C1127 C1126 1.391 . S
H1128 C1136 0.950 . S
H1129 C1141 0.950 . S
H1130 C1138 0.950 . S
H1131 C1140 0.950 . S
H1132 C1142 0.950 . S
H1133 C1144 0.950 . S
H1134 C1146 0.950 . S
H1135 C1147 0.950 . S
C1136 H1128 0.950 . S
C1136 C1137 1.386 . S
C1136 C1138 1.391 . S
C1137 C1136 1.386 . S
C1137 C1141 1.393 . S
C1138 H1130 0.950 . S
C1138 C1136 1.391 . S
C1138 C1139 1.400 . S
C1139 C1138 1.400 . S
C1139 C1140 1.398 . S
C1139 C1145 1.491 1_545 S
C1140 H1131 0.950 . S
C1140 C1139 1.398 . S
C1140 C1141 1.391 . S
C1141 H1129 0.950 . S
C1141 C1137 1.393 . S
C1141 C1140 1.391 . S
C1142 H1132 0.950 . S
C1142 C1143 1.386 . S
C1142 C1144 1.391 . S
C1143 C1142 1.386 . S
C1143 C1147 1.393 . S
C1144 H1133 0.950 . S
C1144 C1142 1.391 . S
C1144 C1145 1.400 . S
C1145 C1139 1.491 1_565 S
C1145 C1144 1.400 . S
C1145 C1146 1.398 . S
C1146 H1134 0.950 . S
C1146 C1145 1.398 . S
C1146 C1147 1.391 . S
C1147 H1135 0.950 . S
C1147 C1143 1.393 . S
C1147 C1146 1.391 . S
H1148 C1156 0.950 . S
H1149 C1161 0.950 . S
H1150 C1158 0.950 . S
H1151 C1160 0.951 . S
H1152 C1162 0.950 . S
H1153 C1164 0.950 . S
H1154 C1166 0.951 . S
H1155 C1167 0.950 . S
C1156 H1148 0.950 . S
C1156 C1157 1.386 . S
C1156 C1158 1.391 . S
C1157 C1156 1.386 . S
C1157 C1161 1.393 . S
C1158 H1150 0.950 . S
C1158 C1156 1.391 . S
C1158 C1159 1.400 . S
C1159 C1158 1.400 . S
C1159 C1160 1.398 . S
C1159 C1165 1.491 1_455 S
C1160 H1151 0.951 . S
C1160 C1159 1.398 . S
C1160 C1161 1.391 . S
C1161 H1149 0.950 . S
C1161 C1157 1.393 . S
C1161 C1160 1.391 . S
C1162 H1152 0.950 . S
C1162 C1163 1.386 . S
C1162 C1164 1.391 . S
C1163 C1162 1.386 . S
C1163 C1167 1.393 . S
C1164 H1153 0.950 . S
C1164 C1162 1.391 . S
C1164 C1165 1.400 . S
C1165 C1159 1.491 1_655 S
C1165 C1164 1.400 . S
C1165 C1166 1.398 . S
C1166 H1154 0.951 . S
C1166 C1165 1.398 . S
C1166 C1167 1.391 . S
C1167 H1155 0.950 . S
C1167 C1163 1.393 . S
C1167 C1166 1.391 . S
H1168 C1176 0.950 . S
H1169 C1181 0.950 . S
H1170 C1178 0.950 . S
H1171 C1180 0.914 1_545 S
H1172 C1182 0.950 . S
H1173 C1184 0.950 . S
H1174 C1186 0.914 1_565 S
H1175 C1187 0.950 . S
C1176 H1168 0.950 . S
C1176 C1177 1.386 . S
C1176 C1178 1.391 . S
C1177 C1176 1.386 . S
C1177 C1181 1.393 . S
C1178 H1170 0.950 . S
C1178 C1176 1.391 . S
C1178 C1179 1.400 . S
C1179 C1178 1.400 . S
C1179 C1180 1.398 . S
C1179 C1185 1.491 1_565 S
C1180 H1171 0.914 1_565 S
C1180 C1179 1.398 . S
C1180 C1181 1.391 . S
C1181 H1169 0.950 . S
C1181 C1177 1.393 . S
C1181 C1180 1.391 . S
C1182 H1172 0.950 . S
C1182 C1183 1.386 . S
C1182 C1184 1.391 . S
C1183 C1182 1.386 . S
C1183 C1187 1.393 . S
C1184 H1173 0.950 . S
C1184 C1182 1.391 . S
C1184 C1185 1.400 . S
C1185 C1179 1.491 1_545 S
C1185 C1184 1.400 . S
C1185 C1186 1.398 . S
C1186 H1174 0.914 1_545 S
C1186 C1185 1.398 . S
C1186 C1187 1.391 . S
C1187 H1175 0.950 . S
C1187 C1183 1.393 . S
C1187 C1186 1.391 . S
H1188 C1196 0.950 . S
H1189 C1201 0.950 . S
H1190 C1198 0.950 . S
H1191 C1200 0.950 . S
H1192 C1202 0.950 . S
H1193 C1204 0.950 . S
H1194 C1206 0.950 . S
H1195 C1207 0.950 . S
C1196 H1188 0.950 . S
C1196 C1197 1.386 . S
C1196 C1198 1.391 . S
C1197 C1196 1.386 . S
C1197 C1201 1.393 . S
C1198 H1190 0.950 . S
C1198 C1196 1.391 . S
C1198 C1199 1.400 . S
C1199 C1198 1.400 . S
C1199 C1200 1.398 . S
C1199 C1205 1.491 1_655 S
C1200 H1191 0.950 . S
C1200 C1199 1.398 . S
C1200 C1201 1.391 . S
C1201 H1189 0.950 . S
C1201 C1197 1.393 . S
C1201 C1200 1.391 . S
C1202 H1192 0.950 . S
C1202 C1203 1.386 . S
C1202 C1204 1.391 . S
C1203 C1202 1.386 . S
C1203 C1207 1.393 . S
C1204 H1193 0.950 . S
C1204 C1202 1.391 . S
C1204 C1205 1.400 . S
C1205 C1199 1.491 1_455 S
C1205 C1204 1.400 . S
C1205 C1206 1.398 . S
C1206 H1194 0.950 . S
C1206 C1205 1.398 . S
C1206 C1207 1.391 . S
C1207 H1195 0.950 . S
C1207 C1203 1.393 . S
C1207 C1206 1.391 . S
H1208 C1216 0.950 . S
H1209 C1221 0.950 . S
H1210 C1218 0.950 . S
H1211 C1220 0.950 . S
H1212 C1222 0.950 . S
H1213 C1224 0.950 . S
H1214 C1226 0.950 . S
H1215 C1227 0.950 . S
C1216 H1208 0.950 . S
C1216 C1217 1.386 . S
C1216 C1218 1.391 . S
C1217 C1216 1.386 . S
C1217 C1221 1.393 . S
C1218 H1210 0.950 . S
C1218 C1216 1.391 . S
C1218 C1219 1.400 . S
C1219 C1218 1.400 . S
C1219 C1220 1.398 . S
C1219 C1225 1.491 1_565 S
C1220 H1211 0.950 . S
C1220 C1219 1.398 . S
C1220 C1221 1.391 . S
C1221 H1209 0.950 . S
C1221 C1217 1.393 . S
C1221 C1220 1.391 . S
C1222 H1212 0.950 . S
C1222 C1223 1.386 . S
C1222 C1224 1.391 . S
C1223 C1222 1.386 . S
C1223 C1227 1.393 . S
C1224 H1213 0.950 . S
C1224 C1222 1.391 . S
C1224 C1225 1.400 . S
C1225 C1219 1.491 1_545 S
C1225 C1224 1.400 . S
C1225 C1226 1.398 . S
C1226 H1214 0.950 . S
C1226 C1225 1.398 . S
C1226 C1227 1.391 . S
C1227 H1215 0.950 . S
C1227 C1223 1.393 . S
C1227 C1226 1.391 . S
H1228 C1236 0.950 . S
H1229 C1241 0.950 . S
H1230 C1238 0.950 1_455 S
H1231 C1240 0.950 . S
H1232 C1242 0.950 . S
H1233 C1244 0.950 1_655 S
H1234 C1246 0.950 . S
H1235 C1247 0.950 . S
C1236 H1228 0.950 . S
C1236 C1237 1.386 . S
C1236 C1238 1.391 . S
C1237 C1236 1.386 . S
C1237 C1241 1.393 . S
C1238 H1230 0.950 1_655 S
C1238 C1236 1.391 . S
C1238 C1239 1.400 . S
C1239 C1238 1.400 . S
C1239 C1240 1.398 . S
C1239 C1245 1.491 1_655 S
C1240 H1231 0.950 . S
C1240 C1239 1.398 . S
C1240 C1241 1.391 . S
C1241 H1229 0.950 . S
C1241 C1237 1.393 . S
C1241 C1240 1.391 . S
C1242 H1232 0.950 . S
C1242 C1243 1.386 . S
C1242 C1244 1.391 . S
C1243 C1242 1.386 . S
C1243 C1247 1.393 . S
C1244 H1233 0.950 1_455 S
C1244 C1242 1.391 . S
C1244 C1245 1.400 . S
C1245 C1239 1.491 1_455 S
C1245 C1244 1.400 . S
C1245 C1246 1.398 . S
C1246 H1234 0.950 . S
C1246 C1245 1.398 . S
C1246 C1247 1.391 . S
C1247 H1235 0.950 . S
C1247 C1243 1.393 . S
C1247 C1246 1.391 . S
H1248 C1256 0.950 . S
H1249 C1261 0.950 . S
H1250 C1258 0.950 . S
H1251 C1260 0.950 . S
H1252 C1262 0.950 . S
H1253 C1264 0.950 . S
H1254 C1266 0.950 . S
H1255 C1267 0.950 . S
C1256 H1248 0.950 . S
C1256 C1257 1.386 . S
C1256 C1258 1.391 . S
C1257 C1256 1.386 . S
C1257 C1261 1.393 . S
C1258 H1250 0.950 . S
C1258 C1256 1.391 . S
C1258 C1259 1.400 . S
C1259 C1258 1.400 . S
C1259 C1260 1.398 . S
C1259 C1265 1.491 . S
C1260 H1251 0.950 . S
C1260 C1259 1.398 . S
C1260 C1261 1.391 . S
C1261 H1249 0.950 . S
C1261 C1257 1.393 . S
C1261 C1260 1.391 . S
C1262 H1252 0.950 . S
C1262 C1263 1.386 . S
C1262 C1264 1.391 . S
C1263 C1262 1.386 . S
C1263 C1267 1.393 . S
C1264 H1253 0.950 . S
C1264 C1262 1.391 . S
C1264 C1265 1.400 . S
C1265 C1259 1.491 . S
C1265 C1264 1.400 . S
C1265 C1266 1.398 . S
C1266 H1254 0.950 . S
C1266 C1265 1.398 . S
C1266 C1267 1.391 . S
C1267 H1255 0.950 . S
C1267 C1263 1.393 . S
C1267 C1266 1.391 . S
H1268 C1276 0.950 . S
H1269 C1281 0.950 . S
H1270 C1278 0.950 . S
H1271 C1280 0.950 . S
H1272 C1282 0.950 . S
H1273 C1284 0.950 . S
H1274 C1286 0.950 . S
H1275 C1287 0.950 . S
C1276 H1268 0.950 . S
C1276 C1277 1.386 . S
C1276 C1278 1.391 . S
C1277 C1276 1.386 . S
C1277 C1281 1.393 . S
C1278 H1270 0.950 . S
C1278 C1276 1.391 . S
C1278 C1279 1.400 . S
C1279 C1278 1.400 . S
C1279 C1280 1.398 . S
C1279 C1285 1.491 . S
C1280 H1271 0.950 . S
C1280 C1279 1.398 . S
C1280 C1281 1.391 . S
C1281 H1269 0.950 . S
C1281 C1277 1.393 . S
C1281 C1280 1.391 . S
C1282 H1272 0.950 . S
C1282 C1283 1.386 . S
C1282 C1284 1.391 . S
C1283 C1282 1.386 . S
C1283 C1287 1.393 . S
C1284 H1273 0.950 . S
C1284 C1282 1.391 . S
C1284 C1285 1.400 . S
C1285 C1279 1.491 . S
C1285 C1284 1.400 . S
C1285 C1286 1.398 . S
C1286 H1274 0.950 . S
C1286 C1285 1.398 . S
C1286 C1287 1.391 . S
C1287 H1275 0.950 . S
C1287 C1283 1.393 . S
C1287 C1286 1.391 . S
H1288 C1296 0.950 . S
H1289 C1301 0.950 . S
H1290 C1298 0.950 . S
H1291 C1300 0.950 . S
H1292 C1302 0.950 . S
H1293 C1304 0.950 . S
H1294 C1306 0.950 . S
H1295 C1307 0.950 . S
C1296 H1288 0.950 . S
C1296 C1297 1.386 . S
C1296 C1298 1.391 . S
C1297 C1296 1.386 . S
C1297 C1301 1.393 . S
C1298 H1290 0.950 . S
C1298 C1296 1.391 . S
C1298 C1299 1.400 . S
C1299 C1298 1.400 . S
C1299 C1300 1.398 . S
C1299 C1305 1.491 . S
C1300 H1291 0.950 . S
C1300 C1299 1.398 . S
C1300 C1301 1.391 . S
C1301 H1289 0.950 . S
C1301 C1297 1.393 . S
C1301 C1300 1.391 . S
C1302 H1292 0.950 . S
C1302 C1303 1.386 . S
C1302 C1304 1.391 . S
C1303 C1302 1.386 . S
C1303 C1307 1.393 . S
C1304 H1293 0.950 . S
C1304 C1302 1.391 . S
C1304 C1305 1.400 . S
C1305 C1299 1.491 . S
C1305 C1304 1.400 . S
C1305 C1306 1.398 . S
C1306 H1294 0.950 . S
C1306 C1305 1.398 . S
C1306 C1307 1.391 . S
C1307 H1295 0.950 . S
C1307 C1303 1.393 . S
C1307 C1306 1.391 . S
H1308 C1316 0.950 . S
H1309 C1321 0.950 . S
H1310 C1318 0.950 . S
H1311 C1320 0.950 . S
H1312 C1322 0.950 . S
H1313 C1324 0.950 . S
H1314 C1326 0.950 . S
H1315 C1327 0.950 . S
C1316 H1308 0.950 . S
C1316 C1317 1.386 . S
C1316 C1318 1.391 . S
C1317 C1316 1.386 . S
C1317 C1321 1.393 . S
C1318 H1310 0.950 . S
C1318 C1316 1.391 . S
C1318 C1319 1.400 . S
C1319 C1318 1.400 . S
C1319 C1320 1.398 . S
C1319 C1325 1.491 . S
C1320 H1311 0.950 . S
C1320 C1319 1.398 . S
C1320 C1321 1.391 . S
C1321 H1309 0.950 . S
C1321 C1317 1.393 . S
C1321 C1320 1.391 . S
C1322 H1312 0.950 . S
C1322 C1323 1.386 . S
C1322 C1324 1.391 . S
C1323 C1322 1.386 . S
C1323 C1327 1.393 . S
C1324 H1313 0.950 . S
C1324 C1322 1.391 . S
C1324 C1325 1.400 . S
C1325 C1319 1.491 . S
C1325 C1324 1.400 . S
C1325 C1326 1.398 . S
C1326 H1314 0.950 . S
C1326 C1325 1.398 . S
C1326 C1327 1.391 . S
C1327 H1315 0.950 . S
C1327 C1323 1.393 . S
C1327 C1326 1.391 . S
H1328 C1336 0.950 . S
H1329 C1341 0.950 . S
H1330 C1338 0.950 . S
H1331 C1340 0.950 . S
H1332 C1342 0.950 . S
H1333 C1344 0.950 . S
H1334 C1346 0.950 . S
H1335 C1347 0.950 . S
C1336 H1328 0.950 . S
C1336 C1337 1.386 . S
C1336 C1338 1.391 . S
C1337 C1336 1.386 . S
C1337 C1341 1.393 . S
C1338 H1330 0.950 . S
C1338 C1336 1.391 . S
C1338 C1339 1.400 . S
C1339 C1338 1.400 . S
C1339 C1340 1.398 . S
C1339 C1345 1.491 . S
C1340 H1331 0.950 . S
C1340 C1339 1.398 . S
C1340 C1341 1.391 . S
C1341 H1329 0.950 . S
C1341 C1337 1.393 . S
C1341 C1340 1.391 . S
C1342 H1332 0.950 . S
C1342 C1343 1.386 . S
C1342 C1344 1.391 . S
C1343 C1342 1.386 . S
C1343 C1347 1.393 . S
C1344 H1333 0.950 . S
C1344 C1342 1.391 . S
C1344 C1345 1.400 . S
C1345 C1339 1.491 . S
C1345 C1344 1.400 . S
C1345 C1346 1.398 . S
C1346 H1334 0.950 . S
C1346 C1345 1.398 . S
C1346 C1347 1.391 . S
C1347 H1335 0.950 . S
C1347 C1343 1.393 . S
C1347 C1346 1.391 . S
H1348 C1356 0.950 . S
H1349 C1361 0.950 . S
H1350 C1358 0.950 . S
H1351 C1360 0.950 . S
H1352 C1362 0.950 . S
H1353 C1364 0.950 . S
H1354 C1366 0.950 . S
H1355 C1367 0.950 . S
C1356 H1348 0.950 . S
C1356 C1357 1.386 . S
C1356 C1358 1.391 . S
C1357 C1356 1.386 . S
C1357 C1361 1.393 . S
C1358 H1350 0.950 . S
C1358 C1356 1.391 . S
C1358 C1359 1.400 . S
C1359 C1358 1.400 . S
C1359 C1360 1.398 . S
C1359 C1365 1.491 . S
C1360 H1351 0.950 . S
C1360 C1359 1.398 . S
C1360 C1361 1.391 . S
C1361 H1349 0.950 . S
C1361 C1357 1.393 . S
C1361 C1360 1.391 . S
C1362 H1352 0.950 . S
C1362 C1363 1.386 . S
C1362 C1364 1.391 . S
C1363 C1362 1.386 . S
C1363 C1367 1.393 . S
C1364 H1353 0.950 . S
C1364 C1362 1.391 . S
C1364 C1365 1.400 . S
C1365 C1359 1.491 . S
C1365 C1364 1.400 . S
C1365 C1366 1.398 . S
C1366 H1354 0.950 . S
C1366 C1365 1.398 . S
C1366 C1367 1.391 . S
C1367 H1355 0.950 . S
C1367 C1363 1.393 . S
C1367 C1366 1.391 . S
H1368 C1376 0.950 . S
H1369 C1381 0.950 . S
H1370 C1378 0.950 . S
H1371 C1380 0.950 . S
H1372 C1382 0.950 . S
H1373 C1384 0.950 . S
H1374 C1386 0.950 . S
H1375 C1387 0.950 . S
C1376 H1368 0.950 . S
C1376 C1377 1.386 . S
C1376 C1378 1.391 . S
C1377 C1376 1.386 . S
C1377 C1381 1.393 . S
C1378 H1370 0.950 . S
C1378 C1376 1.391 . S
C1378 C1379 1.400 . S
C1379 C1378 1.400 . S
C1379 C1380 1.398 . S
C1379 C1385 1.491 . S
C1380 H1371 0.950 . S
C1380 C1379 1.398 . S
C1380 C1381 1.391 . S
C1381 H1369 0.950 . S
C1381 C1377 1.393 . S
C1381 C1380 1.391 . S
C1382 H1372 0.950 . S
C1382 C1383 1.386 . S
C1382 C1384 1.391 . S
C1383 C1382 1.386 . S
C1383 C1387 1.393 . S
C1384 H1373 0.950 . S
C1384 C1382 1.391 . S
C1384 C1385 1.400 . S
C1385 C1379 1.491 . S
C1385 C1384 1.400 . S
C1385 C1386 1.398 . S
C1386 H1374 0.950 . S
C1386 C1385 1.398 . S
C1386 C1387 1.391 . S
C1387 H1375 0.950 . S
C1387 C1383 1.393 . S
C1387 C1386 1.391 . S
H1388 C1396 0.950 . S
H1389 C1401 0.950 . S
H1390 C1398 0.950 . S
H1391 C1400 0.950 . S
H1392 C1402 0.950 . S
H1393 C1404 0.950 . S
H1394 C1406 0.950 . S
H1395 C1407 0.950 . S
C1396 H1388 0.950 . S
C1396 C1397 1.386 . S
C1396 C1398 1.391 . S
C1397 C1396 1.386 . S
C1397 C1401 1.393 . S
C1398 H1390 0.950 . S
C1398 C1396 1.391 . S
C1398 C1399 1.400 . S
C1399 C1398 1.400 . S
C1399 C1400 1.398 . S
C1399 C1405 1.491 . S
C1400 H1391 0.950 . S
C1400 C1399 1.398 . S
C1400 C1401 1.391 . S
C1401 H1389 0.950 . S
C1401 C1397 1.393 . S
C1401 C1400 1.391 . S
C1402 H1392 0.950 . S
C1402 C1403 1.386 . S
C1402 C1404 1.391 . S
C1403 C1402 1.386 . S
C1403 C1407 1.393 . S
C1404 H1393 0.950 . S
C1404 C1402 1.391 . S
C1404 C1405 1.400 . S
C1405 C1399 1.491 . S
C1405 C1404 1.400 . S
C1405 C1406 1.398 . S
C1406 H1394 0.950 . S
C1406 C1405 1.398 . S
C1406 C1407 1.391 . S
C1407 H1395 0.950 . S
C1407 C1403 1.393 . S
C1407 C1406 1.391 . S
H1408 C1416 0.950 . S
H1409 C1421 0.950 . S
H1410 C1418 0.950 . S
H1411 C1420 0.950 . S
H1412 C1422 0.950 . S
H1413 C1424 0.950 . S
H1414 C1426 0.950 . S
H1415 C1427 0.950 . S
C1416 H1408 0.950 . S
C1416 C1417 1.386 . S
C1416 C1418 1.391 . S
C1417 C1416 1.386 . S
C1417 C1421 1.393 . S
C1418 H1410 0.950 . S
C1418 C1416 1.391 . S
C1418 C1419 1.400 . S
C1419 C1418 1.400 . S
C1419 C1420 1.398 . S
C1419 C1425 1.491 . S
C1420 H1411 0.950 . S
C1420 C1419 1.398 . S
C1420 C1421 1.391 . S
C1421 H1409 0.950 . S
C1421 C1417 1.393 . S
C1421 C1420 1.391 . S
C1422 H1412 0.950 . S
C1422 C1423 1.386 . S
C1422 C1424 1.391 . S
C1423 C1422 1.386 . S
C1423 C1427 1.393 . S
C1424 H1413 0.950 . S
C1424 C1422 1.391 . S
C1424 C1425 1.400 . S
C1425 C1419 1.491 . S
C1425 C1424 1.400 . S
C1425 C1426 1.398 . S
C1426 H1414 0.950 . S
C1426 C1425 1.398 . S
C1426 C1427 1.391 . S
C1427 H1415 0.950 . S
C1427 C1423 1.393 . S
C1427 C1426 1.391 . S
H1428 C1436 0.950 . S
H1429 C1441 0.950 . S
H1430 C1438 0.950 . S
H1431 C1440 0.950 . S
H1432 C1442 0.950 . S
H1433 C1444 0.950 . S
H1434 C1446 0.950 . S
H1435 C1447 0.950 . S
C1436 H1428 0.950 . S
C1436 C1437 1.386 . S
C1436 C1438 1.391 . S
C1437 C1436 1.386 . S
C1437 C1441 1.393 . S
C1438 H1430 0.950 . S
C1438 C1436 1.391 . S
C1438 C1439 1.400 . S
C1439 C1438 1.400 . S
C1439 C1440 1.398 . S
C1439 C1445 1.491 . S
C1440 H1431 0.950 . S
C1440 C1439 1.398 . S
C1440 C1441 1.391 . S
C1441 H1429 0.950 . S
C1441 C1437 1.393 . S
C1441 C1440 1.391 . S
C1442 H1432 0.950 . S
C1442 C1443 1.386 . S
C1442 C1444 1.391 . S
C1443 C1442 1.386 . S
C1443 C1447 1.393 . S
C1444 H1433 0.950 . S
C1444 C1442 1.391 . S
C1444 C1445 1.400 . S
C1445 C1439 1.491 . S
C1445 C1444 1.400 . S
C1445 C1446 1.398 . S
C1446 H1434 0.950 . S
C1446 C1445 1.398 . S
C1446 C1447 1.391 . S
C1447 H1435 0.950 . S
C1447 C1443 1.393 . S
C1447 C1446 1.391 . S
H1448 C1456 0.950 . S
H1449 C1461 0.950 . S
H1450 C1458 0.950 . S
H1451 C1460 0.950 . S
H1452 C1462 0.950 . S
H1453 C1464 0.950 . S
H1454 C1466 0.950 . S
H1455 C1467 0.950 . S
C1456 H1448 0.950 . S
C1456 C1457 1.386 . S
C1456 C1458 1.391 . S
C1457 C1456 1.386 . S
C1457 C1461 1.393 . S
C1458 H1450 0.950 . S
C1458 C1456 1.391 . S
C1458 C1459 1.400 . S
C1459 C1458 1.400 . S
C1459 C1460 1.398 . S
C1459 C1465 1.491 . S
C1460 H1451 0.950 . S
C1460 C1459 1.398 . S
C1460 C1461 1.391 . S
C1461 H1449 0.950 . S
C1461 C1457 1.393 . S
C1461 C1460 1.391 . S
C1462 H1452 0.950 . S
C1462 C1463 1.386 . S
C1462 C1464 1.391 . S
C1463 C1462 1.386 . S
C1463 C1467 1.393 . S
C1464 H1453 0.950 . S
C1464 C1462 1.391 . S
C1464 C1465 1.400 . S
C1465 C1459 1.491 . S
C1465 C1464 1.400 . S
C1465 C1466 1.398 . S
C1466 H1454 0.950 . S
C1466 C1465 1.398 . S
C1466 C1467 1.391 . S
C1467 H1455 0.950 . S
C1467 C1463 1.393 . S
C1467 C1466 1.391 . S
H1468 C1476 0.950 . S
H1469 C1481 0.950 . S
H1470 C1478 0.950 . S
H1471 C1480 0.950 . S
H1472 C1482 0.950 . S
H1473 C1484 0.950 . S
H1474 C1486 0.950 . S
H1475 C1487 0.950 . S
C1476 H1468 0.950 . S
C1476 C1477 1.386 . S
C1476 C1478 1.391 . S
C1477 C1476 1.386 . S
C1477 C1481 1.393 . S
C1478 H1470 0.950 . S
C1478 C1476 1.391 . S
C1478 C1479 1.400 . S
C1479 C1478 1.400 . S
C1479 C1480 1.398 . S
C1479 C1485 1.491 . S
C1480 H1471 0.950 . S
C1480 C1479 1.398 . S
C1480 C1481 1.391 . S
C1481 H1469 0.950 . S
C1481 C1477 1.393 . S
C1481 C1480 1.391 . S
C1482 H1472 0.950 . S
C1482 C1483 1.386 . S
C1482 C1484 1.391 . S
C1483 C1482 1.386 . S
C1483 C1487 1.393 . S
C1484 H1473 0.950 . S
C1484 C1482 1.391 . S
C1484 C1485 1.400 . S
C1485 C1479 1.491 . S
C1485 C1484 1.400 . S
C1485 C1486 1.398 . S
C1486 H1474 0.950 . S
C1486 C1485 1.398 . S
C1486 C1487 1.391 . S
C1487 H1475 0.950 . S
C1487 C1483 1.393 . S
C1487 C1486 1.391 . S
H1488 C1496 0.950 . S
H1489 C1501 0.950 . S
H1490 C1498 0.950 . S
H1491 C1500 0.950 . S
H1492 C1502 0.950 . S
H1493 C1504 0.950 . S
H1494 C1506 0.950 . S
H1495 C1507 0.950 . S
C1496 H1488 0.950 . S
C1496 C1497 1.386 . S
C1496 C1498 1.391 . S
C1497 C1496 1.386 . S
C1497 C1501 1.393 . S
C1498 H1490 0.950 . S
C1498 C1496 1.391 . S
C1498 C1499 1.400 . S
C1499 C1498 1.400 . S
C1499 C1500 1.398 . S
C1499 C1505 1.491 . S
C1500 H1491 0.950 . S
C1500 C1499 1.398 . S
C1500 C1501 1.391 . S
C1501 H1489 0.950 . S
C1501 C1497 1.393 . S
C1501 C1500 1.391 . S
C1502 H1492 0.950 . S
C1502 C1503 1.386 . S
C1502 C1504 1.391 . S
C1503 C1502 1.386 . S
C1503 C1507 1.393 . S
C1504 H1493 0.950 . S
C1504 C1502 1.391 . S
C1504 C1505 1.400 . S
C1505 C1499 1.491 . S
C1505 C1504 1.400 . S
C1505 C1506 1.398 . S
C1506 H1494 0.950 . S
C1506 C1505 1.398 . S
C1506 C1507 1.391 . S
C1507 H1495 0.950 . S
C1507 C1503 1.393 . S
C1507 C1506 1.391 . S
H1508 C1516 0.950 . S
H1509 C1521 0.950 . S
H1510 C1518 0.950 . S
H1511 C1520 0.950 . S
H1512 C1522 0.950 . S
H1513 C1524 0.950 . S
H1514 C1526 0.950 . S
H1515 C1527 0.950 . S
C1516 H1508 0.950 . S
C1516 C1517 1.386 . S
C1516 C1518 1.391 . S
C1517 C1516 1.386 . S
C1517 C1521 1.393 . S
C1518 H1510 0.950 . S
C1518 C1516 1.391 . S
C1518 C1519 1.400 . S
C1519 C1518 1.400 . S
C1519 C1520 1.398 . S
C1519 C1525 1.491 . S
C1520 H1511 0.950 . S
C1520 C1519 1.398 . S
C1520 C1521 1.391 . S
C1521 H1509 0.950 . S
C1521 C1517 1.393 . S
C1521 C1520 1.391 . S
C1522 H1512 0.950 . S
C1522 C1523 1.386 . S
C1522 C1524 1.391 . S
C1523 C1522 1.386 . S
C1523 C1527 1.393 . S
C1524 H1513 0.950 . S
C1524 C1522 1.391 . S
C1524 C1525 1.400 . S
C1525 C1519 1.491 . S
C1525 C1524 1.400 . S
C1525 C1526 1.398 . S
C1526 H1514 0.950 . S
C1526 C1525 1.398 . S
C1526 C1527 1.391 . S
C1527 H1515 0.950 . S
C1527 C1523 1.393 . S
C1527 C1526 1.391 . S
H1528 C1536 0.950 . S
H1529 C1541 0.950 . S
H1530 C1538 0.950 . S
H1531 C1540 0.950 . S
H1532 C1542 0.950 . S
H1533 C1544 0.950 . S
H1534 C1546 0.950 . S
H1535 C1547 0.950 . S
C1536 H1528 0.950 . S
C1536 C1537 1.386 . S
C1536 C1538 1.391 . S
C1537 C1536 1.386 . S
C1537 C1541 1.393 . S
C1538 H1530 0.950 . S
C1538 C1536 1.391 . S
C1538 C1539 1.400 . S
C1539 C1538 1.400 . S
C1539 C1540 1.398 . S
C1539 C1545 1.491 . S
C1540 H1531 0.950 . S
C1540 C1539 1.398 . S
C1540 C1541 1.391 . S
C1541 H1529 0.950 . S
C1541 C1537 1.393 . S
C1541 C1540 1.391 . S
C1542 H1532 0.950 . S
C1542 C1543 1.386 . S
C1542 C1544 1.391 . S
C1543 C1542 1.386 . S
C1543 C1547 1.393 . S
C1544 H1533 0.950 . S
C1544 C1542 1.391 . S
C1544 C1545 1.400 . S
C1545 C1539 1.491 . S
C1545 C1544 1.400 . S
C1545 C1546 1.398 . S
C1546 H1534 0.950 . S
C1546 C1545 1.398 . S
C1546 C1547 1.391 . S
C1547 H1535 0.950 . S
C1547 C1543 1.393 . S
C1547 C1546 1.391 . S
H1548 C1556 0.950 . S
H1549 C1561 0.950 . S
H1550 C1558 0.950 . S
H1551 C1560 0.950 . S
H1552 C1562 0.950 . S
H1553 C1564 0.950 . S
H1554 C1566 0.950 . S
H1555 C1567 0.950 . S
C1556 H1548 0.950 . S
C1556 C1557 1.386 . S
C1556 C1558 1.391 . S
C1557 C1556 1.386 . S
C1557 C1561 1.393 . S
C1558 H1550 0.950 . S
C1558 C1556 1.391 . S
C1558 C1559 1.400 . S
C1559 C1558 1.400 . S
C1559 C1560 1.398 . S
C1559 C1565 1.491 . S
C1560 H1551 0.950 . S
C1560 C1559 1.398 . S
C1560 C1561 1.391 . S
C1561 H1549 0.950 . S
C1561 C1557 1.393 . S
C1561 C1560 1.391 . S
C1562 H1552 0.950 . S
C1562 C1563 1.386 . S
C1562 C1564 1.391 . S
C1563 C1562 1.386 . S
C1563 C1567 1.393 . S
C1564 H1553 0.950 . S
C1564 C1562 1.391 . S
C1564 C1565 1.400 . S
C1565 C1559 1.491 . S
C1565 C1564 1.400 . S
C1565 C1566 1.398 . S
C1566 H1554 0.950 . S
C1566 C1565 1.398 . S
C1566 C1567 1.391 . S
C1567 H1555 0.950 . S
C1567 C1563 1.393 . S
C1567 C1566 1.391 . S
H1568 C1576 0.950 . S
H1569 C1581 0.950 . S
H1570 C1578 0.950 . S
H1571 C1580 0.950 . S
H1572 C1582 0.950 . S
H1573 C1584 0.950 . S
H1574 C1586 0.950 . S
H1575 C1587 0.950 . S
C1576 H1568 0.950 . S
C1576 C1577 1.386 . S
C1576 C1578 1.391 . S
C1577 C1576 1.386 . S
C1577 C1581 1.393 . S
C1578 H1570 0.950 . S
C1578 C1576 1.391 . S
C1578 C1579 1.400 . S
C1579 C1578 1.400 . S
C1579 C1580 1.398 . S
C1579 C1585 1.491 . S
C1580 H1571 0.950 . S
C1580 C1579 1.398 . S
C1580 C1581 1.391 . S
C1581 H1569 0.950 . S
C1581 C1577 1.393 . S
C1581 C1580 1.391 . S
C1582 H1572 0.950 . S
C1582 C1583 1.386 . S
C1582 C1584 1.391 . S
C1583 C1582 1.386 . S
C1583 C1587 1.393 . S
C1584 H1573 0.950 . S
C1584 C1582 1.391 . S
C1584 C1585 1.400 . S
C1585 C1579 1.491 . S
C1585 C1584 1.400 . S
C1585 C1586 1.398 . S
C1586 H1574 0.950 . S
C1586 C1585 1.398 . S
C1586 C1587 1.391 . S
C1587 H1575 0.950 . S
C1587 C1583 1.393 . S
C1587 C1586 1.391 . S
H1588 C1596 0.950 . S
H1589 C1601 0.950 . S
H1590 C1598 0.950 . S
H1591 C1600 0.950 . S
H1592 C1602 0.950 . S
H1593 C1604 0.950 . S
H1594 C1606 0.950 . S
H1595 C1607 0.950 . S
C1596 H1588 0.950 . S
C1596 C1597 1.386 . S
C1596 C1598 1.391 . S
C1597 C1596 1.386 . S
C1597 C1601 1.393 . S
C1598 H1590 0.950 . S
C1598 C1596 1.391 . S
C1598 C1599 1.400 . S
C1599 C1598 1.400 . S
C1599 C1600 1.398 . S
C1599 C1605 1.491 . S
C1600 H1591 0.950 . S
C1600 C1599 1.398 . S
C1600 C1601 1.391 . S
C1601 H1589 0.950 . S
C1601 C1597 1.393 . S
C1601 C1600 1.391 . S
C1602 H1592 0.950 . S
C1602 C1603 1.386 . S
C1602 C1604 1.391 . S
C1603 C1602 1.386 . S
C1603 C1607 1.393 . S
C1604 H1593 0.950 . S
C1604 C1602 1.391 . S
C1604 C1605 1.400 . S
C1605 C1599 1.491 . S
C1605 C1604 1.400 . S
C1605 C1606 1.398 . S
C1606 H1594 0.950 . S
C1606 C1605 1.398 . S
C1606 C1607 1.391 . S
C1607 H1595 0.950 . S
C1607 C1603 1.393 . S
C1607 C1606 1.391 . S
H1608 C1616 0.950 . S
H1609 C1621 0.950 . S
H1610 C1618 0.950 . S
H1611 C1620 0.950 . S
H1612 C1622 0.950 . S
H1613 C1624 0.950 . S
H1614 C1626 0.950 . S
H1615 C1627 0.950 . S
C1616 H1608 0.950 . S
C1616 C1617 1.386 . S
C1616 C1618 1.391 . S
C1617 C1616 1.386 . S
C1617 C1621 1.393 . S
C1618 H1610 0.950 . S
C1618 C1616 1.391 . S
C1618 C1619 1.400 . S
C1619 C1618 1.400 . S
C1619 C1620 1.398 . S
C1619 C1625 1.491 . S
C1620 H1611 0.950 . S
C1620 C1619 1.398 . S
C1620 C1621 1.391 . S
C1621 H1609 0.950 . S
C1621 C1617 1.393 . S
C1621 C1620 1.391 . S
C1622 H1612 0.950 . S
C1622 C1623 1.386 . S
C1622 C1624 1.391 . S
C1623 C1622 1.386 . S
C1623 C1627 1.393 . S
C1624 H1613 0.950 . S
C1624 C1622 1.391 . S
C1624 C1625 1.400 . S
C1625 C1619 1.491 . S
C1625 C1624 1.400 . S
C1625 C1626 1.398 . S
C1626 H1614 0.950 . S
C1626 C1625 1.398 . S
C1626 C1627 1.391 . S
C1627 H1615 0.950 . S
C1627 C1623 1.393 . S
C1627 C1626 1.391 . S
H1628 C1636 0.950 . S
H1629 C1641 0.950 . S
H1630 C1638 0.950 . S
H1631 C1640 0.950 . S
H1632 C1642 0.950 . S
H1633 C1644 0.950 . S
H1634 C1646 0.950 . S
H1635 C1647 0.950 . S
C1636 H1628 0.950 . S
C1636 C1637 1.386 . S
C1636 C1638 1.391 . S
C1637 C1636 1.386 . S
C1637 C1641 1.393 . S
C1638 H1630 0.950 . S
C1638 C1636 1.391 . S
C1638 C1639 1.400 . S
C1639 C1638 1.400 . S
C1639 C1640 1.398 . S
C1639 C1645 1.491 . S
C1640 H1631 0.950 . S
C1640 C1639 1.398 . S
C1640 C1641 1.391 . S
C1641 H1629 0.950 . S
C1641 C1637 1.393 . S
C1641 C1640 1.391 . S
C1642 H1632 0.950 . S
C1642 C1643 1.386 . S
C1642 C1644 1.391 . S
C1643 C1642 1.386 . S
C1643 C1647 1.393 . S
C1644 H1633 0.950 . S
C1644 C1642 1.391 . S
C1644 C1645 1.400 . S
C1645 C1639 1.491 . S
C1645 C1644 1.400 . S
C1645 C1646 1.398 . S
C1646 H1634 0.950 . S
C1646 C1645 1.398 . S
C1646 C1647 1.391 . S
C1647 H1635 0.950 . S
C1647 C1643 1.393 . S
C1647 C1646 1.391 . S
H1648 C1656 0.950 . S
H1649 C1661 0.950 . S
H1650 C1658 0.950 . S
H1651 C1660 0.950 . S
H1652 C1662 0.950 . S
H1653 C1664 0.950 . S
H1654 C1666 0.950 . S
H1655 C1667 0.950 . S
C1656 H1648 0.950 . S
C1656 C1657 1.386 . S
C1656 C1658 1.391 . S
C1657 C1656 1.386 . S
C1657 C1661 1.393 . S
C1658 H1650 0.950 . S
C1658 C1656 1.391 . S
C1658 C1659 1.400 . S
C1659 C1658 1.400 . S
C1659 C1660 1.398 . S
C1659 C1665 1.491 . S
C1660 H1651 0.950 . S
C1660 C1659 1.398 . S
C1660 C1661 1.391 . S
C1661 H1649 0.950 . S
C1661 C1657 1.393 . S
C1661 C1660 1.391 . S
C1662 H1652 0.950 . S
C1662 C1663 1.386 . S
C1662 C1664 1.391 . S
C1663 C1662 1.386 . S
C1663 C1667 1.393 . S
C1664 H1653 0.950 . S
C1664 C1662 1.391 . S
C1664 C1665 1.400 . S
C1665 C1659 1.491 . S
C1665 C1664 1.400 . S
C1665 C1666 1.398 . S
C1666 H1654 0.950 . S
C1666 C1665 1.398 . S
C1666 C1667 1.391 . S
C1667 H1655 0.950 . S
C1667 C1663 1.393 . S
C1667 C1666 1.391 . S
H1668 C1676 0.950 . S
H1669 C1681 0.950 . S
H1670 C1678 0.950 . S
H1671 C1680 0.950 . S
H1672 C1682 0.950 . S
H1673 C1684 0.950 . S
H1674 C1686 0.950 . S
H1675 C1687 0.950 . S
C1676 H1668 0.950 . S
C1676 C1677 1.386 . S
C1676 C1678 1.391 . S
C1677 C1676 1.386 . S
C1677 C1681 1.393 . S
C1678 H1670 0.950 . S
C1678 C1676 1.391 . S
C1678 C1679 1.400 . S
C1679 C1678 1.400 . S
C1679 C1680 1.398 . S
C1679 C1685 1.491 . S
C1680 H1671 0.950 . S
C1680 C1679 1.398 . S
C1680 C1681 1.391 . S
C1681 H1669 0.950 . S
C1681 C1677 1.393 . S
C1681 C1680 1.391 . S
C1682 H1672 0.950 . S
C1682 C1683 1.386 . S
C1682 C1684 1.391 . S
C1683 C1682 1.386 . S
C1683 C1687 1.393 . S
C1684 H1673 0.950 . S
C1684 C1682 1.391 . S
C1684 C1685 1.400 . S
C1685 C1679 1.491 . S
C1685 C1684 1.400 . S
C1685 C1686 1.398 . S
C1686 H1674 0.950 . S
C1686 C1685 1.398 . S
C1686 C1687 1.391 . S
C1687 H1675 0.950 . S
C1687 C1683 1.393 . S
C1687 C1686 1.391 . S
H1688 C1696 0.950 . S
H1689 C1701 0.950 . S
H1690 C1698 0.950 . S
H1691 C1700 0.950 . S
H1692 C1702 0.950 . S
H1693 C1704 0.950 . S
H1694 C1706 0.950 . S
H1695 C1707 0.950 . S
C1696 H1688 0.950 . S
C1696 C1697 1.386 . S
C1696 C1698 1.391 . S
C1697 C1696 1.386 . S
C1697 C1701 1.393 . S
C1698 H1690 0.950 . S
C1698 C1696 1.391 . S
C1698 C1699 1.400 . S
C1699 C1698 1.400 . S
C1699 C1700 1.398 . S
C1699 C1705 1.491 . S
C1700 H1691 0.950 . S
C1700 C1699 1.398 . S
C1700 C1701 1.391 . S
C1701 H1689 0.950 . S
C1701 C1697 1.393 . S
C1701 C1700 1.391 . S
C1702 H1692 0.950 . S
C1702 C1703 1.386 . S
C1702 C1704 1.391 . S
C1703 C1702 1.386 . S
C1703 C1707 1.393 . S
C1704 H1693 0.950 . S
C1704 C1702 1.391 . S
C1704 C1705 1.400 . S
C1705 C1699 1.491 . S
C1705 C1704 1.400 . S
C1705 C1706 1.398 . S
C1706 H1694 0.950 . S
C1706 C1705 1.398 . S
C1706 C1707 1.391 . S
C1707 H1695 0.950 . S
C1707 C1703 1.393 . S
C1707 C1706 1.391 . S
H1708 C1716 0.950 . S
H1709 C1721 0.950 . S
H1710 C1718 0.950 . S
H1711 C1720 0.950 . S
H1712 C1722 0.950 . S
H1713 C1724 0.950 . S
H1714 C1726 0.950 . S
H1715 C1727 0.950 . S
C1716 H1708 0.950 . S
C1716 C1717 1.386 . S
C1716 C1718 1.391 . S
C1717 C1716 1.386 . S
C1717 C1721 1.393 . S
C1718 H1710 0.950 . S
C1718 C1716 1.391 . S
C1718 C1719 1.400 . S
C1719 C1718 1.400 . S
C1719 C1720 1.398 . S
C1719 C1725 1.491 . S
C1720 H1711 0.950 . S
C1720 C1719 1.398 . S
C1720 C1721 1.391 . S
C1721 H1709 0.950 . S
C1721 C1717 1.393 . S
C1721 C1720 1.391 . S
C1722 H1712 0.950 . S
C1722 C1723 1.386 . S
C1722 C1724 1.391 . S
C1723 C1722 1.386 . S
C1723 C1727 1.393 . S
C1724 H1713 0.950 . S
C1724 C1722 1.391 . S
C1724 C1725 1.400 . S
C1725 C1719 1.491 . S
C1725 C1724 1.400 . S
C1725 C1726 1.398 . S
C1726 H1714 0.950 . S
C1726 C1725 1.398 . S
C1726 C1727 1.391 . S
C1727 H1715 0.950 . S
C1727 C1723 1.393 . S
C1727 C1726 1.391 . S
C457 C415 1.648 . S
C463 C9 1.655 . S
C477 C23 1.648 . S
C483 C429 1.655 . S
C497 C443 1.652 . S
C503 C37 1.650 . S
C517 C401 1.658 . S
C523 C51 1.645 . S
C537 C65 1.644 . S
C543 C387 1.658 . S
C557 C345 1.655 . S
C563 C79 1.648 . S
C577 C93 1.645 . S
C583 C359 1.657 . S
C597 C373 1.647 . S
C603 C107 1.655 . S
C617 C121 1.658 . S
C623 C303 1.645 . S
C637 C135 1.646 . S
C643 C317 1.656 . S
C657 C331 1.656 . S
C663 C149 1.646 . S
C677 C163 1.655 . S
C683 C289 1.647 . S
C697 C275 1.647 . S
C703 C177 1.656 . S
C717 C233 1.645 . S
C723 C191 1.658 . S
C737 C205 1.654 . S
C743 C247 1.649 . S
C757 C219 1.651 . S
C763 C261 1.652 . S
C777 C7 1.417 . S
C783 C147 1.431 . S
C797 C161 1.430 . S
C803 C21 1.418 . S
C817 C119 1.428 . S
C823 C35 1.420 . S
C837 C133 1.420 . S
C843 C49 1.428 . S
C857 C63 1.413 . S
C863 C203 1.435 . S
C877 C217 1.417 . S
C883 C77 1.431 . S
C897 C175 1.412 . S
C903 C91 1.436 . S
C917 C189 1.428 . S
C923 C105 1.420 . S
C937 C231 1.413 . S
C943 C371 1.435 . S
C957 C385 1.415 . S
C963 C245 1.433 . S
C977 C343 1.432 . S
C983 C259 1.416 . S
C997 C273 1.436 . S
C1003 C357 1.412 . S
C1017 C287 1.412 . S
C1023 C427 1.436 . S
C1037 C441 1.432 . S
C1043 C301 1.416 . S
C1057 C399 1.435 . S
C1063 C315 1.413 . S
C1077 C329 1.421 . S
C1083 C413 1.427 . S
C1097 C6 1.566 . S
C1103 C62 1.573 . S
C1117 C20 1.574 . S
C1123 C76 1.566 . S
C1137 C90 1.566 . S
C1143 C34 1.573 . S
C1157 C48 1.590 . S
C1163 C104 1.582 . S
C1177 C118 1.581 . S
C1183 C174 1.590 . S
C1197 C188 1.566 . S
C1203 C132 1.575 . S
C1217 C202 1.584 . S
C1223 C146 1.589 . S
C1237 C160 1.588 . S
C1243 C216 1.574 . S
C1257 C230 1.567 . S
C1263 C286 1.570 . S
C1277 C300 1.574 . S
C1283 C244 1.566 . S
C1297 C258 1.580 . S
C1303 C314 1.590 . S
C1317 C328 1.576 . S
C1323 C272 1.589 . S
C1337 C398 1.589 . S
C1343 C342 1.576 . S
C1357 C356 1.568 . S
C1363 C412 1.570 . S
C1377 C370 1.571 . S
C1383 C426 1.586 . S
C1397 C384 1.576 . S
C1403 C440 1.589 . S
C1417 C8 1.393 . S
C1423 C78 1.393 . S
C1437 C22 1.392 . S
C1443 C92 1.392 . S
C1457 C106 1.404 . S
C1463 C36 1.404 . S
C1477 C64 1.392 . S
C1483 C50 1.392 . S
C1497 C190 1.405 . S
C1503 C120 1.405 . S
C1517 C204 1.402 . S
C1523 C134 1.401 . S
C1537 C218 1.403 . S
C1543 C148 1.403 . S
C1557 C162 1.404 . S
C1563 C176 1.404 . S
C1577 C232 1.405 . S
C1583 C302 1.405 . S
C1597 C316 1.394 . S
C1603 C246 1.395 . S
C1617 C330 1.393 . S
C1623 C260 1.393 . S
C1637 C274 1.402 . S
C1643 C288 1.402 . S
C1657 C414 1.401 . S
C1663 C344 1.400 . S
C1677 C358 1.395 . S
C1683 C428 1.396 . S
C1697 C372 1.401 . S
C1703 C442 1.401 . S
C1717 C400 1.404 . S
C1723 C386 1.404 . S
