# Generated by pormake.
# Topology una, (4)-cn, num edge types: 1
# Building blocks:
#     Node 0, Type 0, BuildingBlock: TATPOV_clean_sbu_0, # of connection points: 4
#     Node 1, Type 0, BuildingBlock: TATPOV_clean_sbu_0, # of connection points: 4
#     Node 2, Type 0, BuildingBlock: TATPOV_clean_sbu_0, # of connection points: 4
#     Node 3, Type 0, BuildingBlock: TATPOV_clean_sbu_0, # of connection points: 4
#     Node 4, Type 0, BuildingBlock: TATPOV_clean_sbu_0, # of connection points: 4
#     Node 5, Type 0, BuildingBlock: TATPOV_clean_sbu_0, # of connection points: 4
#     Node 6, Type 0, BuildingBlock: TATPOV_clean_sbu_0, # of connection points: 4
#     Node 7, Type 0, BuildingBlock: TATPOV_clean_sbu_0, # of connection points: 4
#     Node 8, Type 0, BuildingBlock: TATPOV_clean_sbu_0, # of connection points: 4
#     Node 9, Type 0, BuildingBlock: TATPOV_clean_sbu_0, # of connection points: 4
#     Node 10, Type 0, BuildingBlock: TATPOV_clean_sbu_0, # of connection points: 4
#     Node 11, Type 0, BuildingBlock: TATPOV_clean_sbu_0, # of connection points: 4
#     Edge 12, Type (0, 0), BuildingBlock: AJUNOK_clean_linker_0, # of connection points: 2
#     Edge 13, Type (0, 0), BuildingBlock: AJUNOK_clean_linker_0, # of connection points: 2
#     Edge 14, Type (0, 0), BuildingBlock: AJUNOK_clean_linker_0, # of connection points: 2
#     Edge 15, Type (0, 0), BuildingBlock: AJUNOK_clean_linker_0, # of connection points: 2
#     Edge 16, Type (0, 0), BuildingBlock: AJUNOK_clean_linker_0, # of connection points: 2
#     Edge 17, Type (0, 0), BuildingBlock: AJUNOK_clean_linker_0, # of connection points: 2
#     Edge 18, Type (0, 0), BuildingBlock: AJUNOK_clean_linker_0, # of connection points: 2
#     Edge 19, Type (0, 0), BuildingBlock: AJUNOK_clean_linker_0, # of connection points: 2
#     Edge 20, Type (0, 0), BuildingBlock: AJUNOK_clean_linker_0, # of connection points: 2
#     Edge 21, Type (0, 0), BuildingBlock: AJUNOK_clean_linker_0, # of connection points: 2
#     Edge 22, Type (0, 0), BuildingBlock: AJUNOK_clean_linker_0, # of connection points: 2
#     Edge 23, Type (0, 0), BuildingBlock: AJUNOK_clean_linker_0, # of connection points: 2
#     Edge 24, Type (0, 0), BuildingBlock: AJUNOK_clean_linker_0, # of connection points: 2
#     Edge 25, Type (0, 0), BuildingBlock: AJUNOK_clean_linker_0, # of connection points: 2
#     Edge 26, Type (0, 0), BuildingBlock: AJUNOK_clean_linker_0, # of connection points: 2
#     Edge 27, Type (0, 0), BuildingBlock: AJUNOK_clean_linker_0, # of connection points: 2
#     Edge 28, Type (0, 0), BuildingBlock: AJUNOK_clean_linker_0, # of connection points: 2
#     Edge 29, Type (0, 0), BuildingBlock: AJUNOK_clean_linker_0, # of connection points: 2
#     Edge 30, Type (0, 0), BuildingBlock: AJUNOK_clean_linker_0, # of connection points: 2
#     Edge 31, Type (0, 0), BuildingBlock: AJUNOK_clean_linker_0, # of connection points: 2
#     Edge 32, Type (0, 0), BuildingBlock: AJUNOK_clean_linker_0, # of connection points: 2
#     Edge 33, Type (0, 0), BuildingBlock: AJUNOK_clean_linker_0, # of connection points: 2
#     Edge 34, Type (0, 0), BuildingBlock: AJUNOK_clean_linker_0, # of connection points: 2
#     Edge 35, Type (0, 0), BuildingBlock: AJUNOK_clean_linker_0, # of connection points: 2
# Relax obj value: 0.135
# Max RMSD: 0.158
# Mean RMSD: 0.158
data_MOF--net-una--node1-TATPOV_clean_sbu_0--edge1-AJUNOK_clean_linker_0
_symmetry_space_group_name_H-M    P1
_symmetry_Int_Tables_number       1
_symmetry_cell_setting            triclinic
loop_
_symmetry_equiv_pos_as_xyz
'x, y, z'
_cell_length_a     43.868644
_cell_length_b     43.904092
_cell_length_c     14.852742
_cell_angle_alpha  90.096173
_cell_angle_beta   90.191269
_cell_angle_gamma 119.98577
loop_
_atom_site_label
_atom_site_type_symbol
_atom_site_fract_x
_atom_site_fract_y
_atom_site_fract_z
_atom_type_partial_charge
Zn0 Zn 0.17855 0.47671 0.15317 0.0
Zn1 Zn 0.12127 0.43115 0.06534 0.0
O2 O 0.15734 0.4476 0.96524 0.0
O3 O 0.20642 0.48292 0.03808 0.0
O4 O 0.07605 0.39777 0.00342 0.0
O5 O 0.15908 0.50815 0.18191 0.0
O6 O 0.11156 0.47068 0.10679 0.0
C7 C 0.19055 0.46778 0.96585 0.0
C8 C 0.15021 0.40749 0.22191 0.0
O9 O 0.12941 0.39964 0.15489 0.0
O10 O 0.17212 0.4393 0.23965 0.0
C11 C 0.07367 0.37662 0.94162 0.0
O12 O 0.10185 0.37529 0.91844 0.0
C13 C 0.12872 0.49907 0.15187 0.0
Zn14 Zn 0.69823 0.18188 0.27453 0.0
Zn15 Zn 0.69133 0.12344 0.20543 0.0
O16 O 0.71244 0.15776 0.10198 0.0
O17 O 0.71282 0.20525 0.152 0.0
O18 O 0.68033 0.07675 0.15447 0.0
O19 O 0.64851 0.15958 0.31654 0.0
O20 O 0.64136 0.1133 0.24113 0.0
C21 C 0.71915 0.18922 0.09037 0.0
C22 C 0.74623 0.16174 0.3498 0.0
O23 O 0.73084 0.13517 0.29787 0.0
O24 O 0.73635 0.18429 0.35327 0.0
C25 C 0.69612 0.07225 0.08874 0.0
O26 O 0.72259 0.0997 0.05085 0.0
C27 C 0.62858 0.12894 0.28637 0.0
Zn28 Zn 0.50559 0.69855 0.45525 0.0
Zn29 Zn 0.55267 0.68922 0.36815 0.0
O30 O 0.53502 0.70752 0.26708 0.0
O31 O 0.49807 0.71894 0.33946 0.0
O32 O 0.58736 0.67923 0.3076 0.0
O33 O 0.4762 0.64753 0.4845 0.0
O34 O 0.51482 0.63943 0.40965 0.0
C35 C 0.51357 0.71906 0.26746 0.0
C36 C 0.57451 0.74176 0.52492 0.0
O37 O 0.58304 0.72935 0.45832 0.0
O38 O 0.54248 0.73086 0.54189 0.0
C39 C 0.60939 0.67478 0.35305 0.0
O40 O 0.60998 0.67813 0.44107 0.0
C41 C 0.48652 0.62723 0.45491 0.0
Zn42 Zn 0.81546 0.51419 0.65691 0.0
Zn43 Zn 0.87114 0.56593 0.58154 0.0
O44 O 0.83558 0.55294 0.48005 0.0
O45 O 0.78945 0.5066 0.53768 0.0
O46 O 0.91785 0.60312 0.53531 0.0
O47 O 0.83839 0.48633 0.68935 0.0
O48 O 0.88258 0.52638 0.61067 0.0
C49 C 0.80374 0.52821 0.47376 0.0
C50 C 0.83525 0.58086 0.73603 0.0
O51 O 0.85931 0.59234 0.67697 0.0
O52 O 0.81425 0.5482 0.7439 0.0
C53 C 0.9239 0.61882 0.46024 0.0
O54 O 0.89752 0.61183 0.40581 0.0
C55 C 0.86832 0.49761 0.65442 0.0
Zn56 Zn 0.29739 0.82323 0.82741 0.0
Zn57 Zn 0.30306 0.87591 0.73574 0.0
O58 O 0.28346 0.83947 0.63574 0.0
O59 O 0.2719 0.79293 0.71694 0.0
O60 O 0.31128 0.92157 0.68408 0.0
O61 O 0.34893 0.84347 0.84617 0.0
O62 O 0.35415 0.88852 0.76902 0.0
C63 C 0.27037 0.80636 0.64267 0.0
C64 C 0.25382 0.84563 0.89949 0.0
O65 O 0.26296 0.86341 0.82712 0.0
O66 O 0.26896 0.82886 0.92321 0.0
C67 C 0.30471 0.92618 0.60358 0.0
O68 O 0.2906 0.89932 0.54774 0.0
C69 C 0.36807 0.87341 0.81194 0.0
Zn70 Zn 0.47313 0.28804 0.94304 0.0
Zn71 Zn 0.42803 0.29867 0.85571 0.0
O72 O 0.44578 0.28156 0.7521 0.0
O73 O 0.47917 0.26615 0.82799 0.0
O74 O 0.39331 0.30975 0.79865 0.0
O75 O 0.50466 0.33843 0.97424 0.0
O76 O 0.46601 0.34788 0.90356 0.0
C77 C 0.46529 0.26775 0.75446 0.0
C78 C 0.40518 0.24422 0.00772 0.0
O79 O 0.39742 0.25629 0.93894 0.0
O80 O 0.43698 0.25685 0.03105 0.0
C81 C 0.3708 0.31262 0.84603 0.0
O82 O 0.36973 0.30689 0.93304 0.0
C83 C 0.49457 0.35933 0.94816 0.0
Zn84 Zn 0.5125 0.81962 0.77339 0.0
Zn85 Zn 0.55923 0.87071 0.87326 0.0
O86 O 0.53871 0.83219 0.96645 0.0
O87 O 0.50403 0.7869 0.88027 0.0
O88 O 0.59518 0.91261 0.94227 0.0
O89 O 0.48354 0.84255 0.75517 0.0
O90 O 0.52326 0.88621 0.83732 0.0
C91 C 0.51776 0.79938 0.95649 0.0
C92 C 0.58028 0.84278 0.70826 0.0
O93 O 0.58835 0.85977 0.78227 0.0
O94 O 0.54855 0.82619 0.68246 0.0
C95 C 0.6219 0.93792 0.90548 0.0
O96 O 0.62697 0.93628 0.81889 0.0
C97 C 0.49472 0.87225 0.79193 0.0
Zn98 Zn 0.69194 0.50765 0.993 0.0
Zn99 Zn 0.68181 0.5568 0.06647 0.0
O100 O 0.70582 0.54504 0.16726 0.0
O101 O 0.71064 0.501 0.11213 0.0
O102 O 0.66933 0.59113 0.11988 0.0
O103 O 0.64182 0.47759 0.95641 0.0
O104 O 0.63233 0.51594 0.02837 0.0
C105 C 0.71571 0.52241 0.17545 0.0
C106 C 0.73455 0.57646 0.91603 0.0
O107 O 0.71947 0.58623 0.97266 0.0
O108 O 0.72631 0.54448 0.91018 0.0
C109 C 0.68204 0.60858 0.19204 0.0
O110 O 0.70575 0.60496 0.23749 0.0
C111 C 0.62087 0.48737 0.98399 0.0
Zn112 Zn 0.17954 0.6997 0.14633 0.0
Zn113 Zn 0.12345 0.69068 0.23022 0.0
O114 O 0.1579 0.71056 0.33489 0.0
O115 O 0.20667 0.72422 0.26134 0.0
O116 O 0.07639 0.6807 0.2755 0.0
O117 O 0.16076 0.64842 0.12572 0.0
O118 O 0.11324 0.64055 0.19571 0.0
C119 C 0.19123 0.72429 0.33335 0.0
C120 C 0.15478 0.74113 0.06922 0.0
O121 O 0.13527 0.73046 0.13848 0.0
O122 O 0.17437 0.72857 0.05038 0.0
C123 C 0.06991 0.68859 0.35258 0.0
O124 O 0.09561 0.70466 0.41132 0.0
C125 C 0.13027 0.62808 0.15555 0.0
Zn126 Zn 0.47565 0.17366 0.25632 0.0
Zn127 Zn 0.42951 0.11914 0.3466 0.0
O128 O 0.44453 0.15558 0.44619 0.0
O129 O 0.47927 0.20296 0.3676 0.0
O130 O 0.39387 0.07313 0.39954 0.0
O131 O 0.50836 0.1549 0.2394 0.0
O132 O 0.46968 0.10898 0.31598 0.0
C133 C 0.46405 0.18882 0.44091 0.0
C134 C 0.40851 0.14645 0.18023 0.0
O135 O 0.40024 0.12818 0.25176 0.0
O136 O 0.44054 0.16618 0.1605 0.0
C137 C 0.37619 0.06888 0.47059 0.0
O138 O 0.3804 0.09651 0.51558 0.0
C139 C 0.49882 0.12528 0.27429 0.0
Zn140 Zn 0.2885 0.47394 0.46207 0.0
Zn141 Zn 0.2996 0.4304 0.55535 0.0
O142 O 0.2806 0.44771 0.65527 0.0
O143 O 0.26507 0.47984 0.57427 0.0
O144 O 0.31222 0.39709 0.61375 0.0
O145 O 0.33908 0.50666 0.43535 0.0
O146 O 0.34878 0.46975 0.51327 0.0
C147 C 0.26611 0.46652 0.64911 0.0
C148 C 0.24665 0.40531 0.39779 0.0
O149 O 0.25845 0.39854 0.46884 0.0
O150 O 0.25881 0.43681 0.37317 0.0
C151 C 0.29825 0.37931 0.68434 0.0
O152 O 0.27249 0.38141 0.72309 0.0
C153 C 0.36024 0.4979 0.46761 0.0
Zn154 Zn 0.81942 0.30207 0.61443 0.0
Zn155 Zn 0.87501 0.30691 0.69941 0.0
O156 O 0.83624 0.28181 0.79031 0.0
O157 O 0.78994 0.28014 0.72684 0.0
O158 O 0.91818 0.31541 0.76718 0.0
O159 O 0.84245 0.35353 0.59128 0.0
O160 O 0.88641 0.35808 0.67334 0.0
C161 C 0.80384 0.27286 0.7921 0.0
C162 C 0.84527 0.25946 0.53546 0.0
O163 O 0.86763 0.27118 0.59946 0.0
O164 O 0.82345 0.27009 0.52562 0.0
C165 C 0.94318 0.31182 0.73626 0.0
O166 O 0.94109 0.30039 0.65345 0.0
C167 C 0.87194 0.37233 0.62896 0.0
C168 C 0.18181 0.37525 0.21895 0.0
C169 C 0.15717 0.38135 0.26396 0.0
C170 C 0.20942 0.37522 0.26679 0.0
C171 C 0.21203 0.37994 0.36062 0.0
H172 H 0.1838 0.37734 0.14623 0.0
H173 H 0.23156 0.3774 0.22923 0.0
S174 S 0.14582 0.38195 0.51027 0.0
N175 N 0.13128 0.38178 0.40738 0.0
N176 N 0.18182 0.37927 0.49784 0.0
C177 C 0.1828 0.37712 0.40668 0.0
C178 C 0.15549 0.3785 0.35793 0.0
C179 C 0.81091 0.19576 0.53223 0.0
C180 C 0.83642 0.22656 0.48917 0.0
C181 C 0.7828 0.1692 0.48302 0.0
C182 C 0.78071 0.17227 0.38957 0.0
H183 H 0.80898 0.1951 0.60504 0.0
H184 H 0.76037 0.14916 0.51941 0.0
S185 S 0.84766 0.24144 0.24381 0.0
N186 N 0.86251 0.25434 0.34735 0.0
N187 N 0.81109 0.20316 0.25406 0.0
C188 C 0.81008 0.19898 0.34488 0.0
C189 C 0.83787 0.22661 0.3951 0.0
C190 C 0.60612 0.80572 0.5248 0.0
C191 C 0.60006 0.77482 0.56863 0.0
C192 C 0.60725 0.83356 0.57399 0.0
C193 C 0.60351 0.83145 0.66802 0.0
H194 H 0.60357 0.80586 0.45219 0.0
H195 H 0.60541 0.85397 0.5376 0.0
S196 S 0.60026 0.76176 0.81432 0.0
N197 N 0.59953 0.74761 0.71076 0.0
N198 N 0.60391 0.80091 0.80372 0.0
C199 C 0.60562 0.80436 0.71266 0.0
C200 C 0.60323 0.77552 0.66255 0.0
C201 C 0.82592 0.60756 0.87071 0.0
C202 C 0.82399 0.60397 0.77677 0.0
C203 C 0.79831 0.60728 0.9186 0.0
C204 C 0.76767 0.60177 0.87348 0.0
H205 H 0.84595 0.60522 0.90785 0.0
H206 H 0.79821 0.60479 0.99124 0.0
S207 S 0.75538 0.602 0.62736 0.0
N208 N 0.79419 0.6049 0.63971 0.0
N209 N 0.74101 0.60162 0.73031 0.0
C210 C 0.7686 0.60483 0.7797 0.0
C211 C 0.79732 0.60658 0.73093 0.0
C212 C 0.21596 0.83365 0.03159 0.0
C213 C 0.21875 0.8332 0.93753 0.0
C214 C 0.18853 0.80506 0.07643 0.0
C215 C 0.16419 0.77502 0.0281 0.0
H216 H 0.23772 0.85339 0.07112 0.0
H217 H 0.19017 0.804 0.14911 0.0
S218 S 0.15418 0.76624 0.78075 0.0
N219 N 0.18959 0.80508 0.79721 0.0
N220 N 0.13942 0.75025 0.88202 0.0
C221 C 0.16309 0.77724 0.93428 0.0
C222 C 0.19018 0.8069 0.88864 0.0
C223 C 0.37635 0.17831 0.18244 0.0
C224 C 0.38343 0.15455 0.13619 0.0
C225 C 0.37564 0.20577 0.13614 0.0
C226 C 0.38073 0.20911 0.04261 0.0
H227 H 0.37789 0.17972 0.25533 0.0
H228 H 0.37687 0.22729 0.17493 0.0
S229 S 0.38642 0.14565 0.88938 0.0
N230 N 0.38601 0.13049 0.99139 0.0
N231 N 0.38222 0.1807 0.90373 0.0
C232 C 0.37932 0.18079 -0.00518 0.0
C233 C 0.38143 0.15368 0.04204 0.0
C234 C 0.11437 0.54024 0.07467 0.0
C235 C 0.11692 0.52503 0.15551 0.0
C236 C 0.11541 0.5727 0.07502 0.0
C237 C 0.11778 0.59018 0.15631 0.0
H238 H 0.11511 0.52879 0.01058 0.0
H239 H 0.11679 0.58532 0.01133 0.0
S240 S 0.1204 0.55888 0.38602 0.0
N241 N 0.11897 0.52819 0.31869 0.0
N242 N 0.11907 0.58836 0.31958 0.0
C243 C 0.11685 0.57353 0.23766 0.0
C244 C 0.11689 0.54108 0.23722 0.0
C245 C 0.57274 0.11073 0.20524 0.0
C246 C 0.59044 0.11544 0.28768 0.0
C247 C 0.54067 0.11048 0.20149 0.0
C248 C 0.52486 0.11364 0.28034 0.0
H249 H 0.58543 0.11092 0.1426 0.0
H250 H 0.52947 0.11036 0.13626 0.0
S251 S 0.55821 0.12129 0.51347 0.0
N252 N 0.58843 0.11999 0.45012 0.0
N253 N 0.52716 0.11764 0.44355 0.0
C254 C 0.54049 0.11462 0.36371 0.0
C255 C 0.57363 0.116 0.36729 0.0
C256 C 0.41369 0.53913 0.38238 0.0
C257 C 0.39802 0.52385 0.46496 0.0
C258 C 0.44555 0.57112 0.37968 0.0
C259 C 0.46194 0.58921 0.45952 0.0
H260 H 0.39998 0.52758 0.31974 0.0
H261 H 0.45545 0.58342 0.31495 0.0
S262 S 0.43331 0.55859 0.69235 0.0
N263 N 0.4031 0.52719 0.62802 0.0
N264 N 0.46212 0.58829 0.6228 0.0
C265 C 0.44791 0.57298 0.54223 0.0
C266 C 0.41608 0.53993 0.54498 0.0
C267 C 0.88184 0.45488 0.72766 0.0
C268 C 0.88256 0.47358 0.6502 0.0
C269 C 0.88353 0.4239 0.72097 0.0
C270 C 0.88486 0.41022 0.63641 0.0
H271 H 0.87717 0.46274 0.79303 0.0
H272 H 0.87989 0.40866 0.7814 0.0
S273 S 0.8918 0.45152 0.41471 0.0
N274 N 0.88933 0.47865 0.48768 0.0
N275 N 0.89066 0.41937 0.47497 0.0
C276 C 0.88864 0.4302 0.55937 0.0
C277 C 0.888 0.46227 0.56635 0.0
C278 C 0.42112 0.88746 0.72377 0.0
C279 C 0.40614 0.88677 0.80774 0.0
C280 C 0.45262 0.88666 0.71829 0.0
C281 C 0.47052 0.88628 0.79658 0.0
H282 H 0.40658 0.88475 0.66228 0.0
H283 H 0.4615 0.88345 0.65281 0.0
S284 S 0.4449 0.89021 0.03187 0.0
N285 N 0.41317 0.88954 0.9701 0.0
N286 N 0.47337 0.88985 0.95993 0.0
C287 C 0.45785 0.88973 0.88047 0.0
C288 C 0.42528 0.88946 0.88606 0.0
C289 C 0.53391 0.41047 0.0441 0.0
C290 C 0.51912 0.39723 0.95889 0.0
C291 C 0.56519 0.4428 0.05285 0.0
C292 C 0.58302 0.46225 0.97638 0.0
H293 H 0.52268 0.39453 0.10361 0.0
H294 H 0.57728 0.4508 0.11885 0.0
S295 S 0.55335 0.4407 0.73943 0.0
N296 N 0.52252 0.40773 0.7978 0.0
N297 N 0.58229 0.4678 0.81404 0.0
C298 C 0.56714 0.45062 0.89164 0.0
C299 C 0.53481 0.41821 0.88293 0.0
C300 C 0.26249 0.47369 0.81454 0.0
C301 C 0.24814 0.47051 0.72801 0.0
C302 C 0.24438 0.47455 0.89113 0.0
C303 C 0.21085 0.4712 0.88378 0.0
H304 H 0.28773 0.47513 0.82314 0.0
H305 H 0.25607 0.47635 0.95669 0.0
S306 S 0.16203 0.46268 0.67215 0.0
N307 N 0.19904 0.46505 0.6389 0.0
N308 N 0.16443 0.46547 0.7831 0.0
C309 C 0.19646 0.46853 0.7975 0.0
C310 C 0.21528 0.46852 0.71946 0.0
C311 C 0.73319 0.2345 0.9713 0.0
C312 C 0.73907 0.20876 0.0106 0.0
C313 C 0.75392 0.25499 0.89936 0.0
C314 C 0.78185 0.25109 0.86687 0.0
H315 H 0.71247 0.23881 -0.00367 0.0
H316 H 0.74858 0.27448 0.87038 0.0
S317 S 0.80814 0.18753 0.94751 0.0
N318 N 0.77453 0.18035 0.01153 0.0
N319 N 0.8139 0.21927 0.87809 0.0
C320 C 0.78793 0.22543 0.90569 0.0
C321 C 0.7664 0.20412 0.97717 0.0
C322 C 0.5066 0.76632 0.19532 0.0
C323 C 0.50973 0.73611 0.18622 0.0
C324 C 0.50811 0.78614 0.12 0.0
C325 C 0.51173 0.77582 0.03297 0.0
H326 H 0.50477 0.77573 0.26143 0.0
H327 H 0.50717 0.81011 0.13006 0.0
S328 S 0.51825 0.69733 0.97238 0.0
N329 N 0.51506 0.69592 0.08327 0.0
N330 N 0.51661 0.73258 0.94116 0.0
C331 C 0.51303 0.74469 0.02243 0.0
C332 C 0.5124 0.72498 0.09931 0.0
C333 C 0.75626 0.49454 0.36052 0.0
C334 C 0.78208 0.52698 0.39641 0.0
C335 C 0.73453 0.4931 0.28918 0.0
C336 C 0.73714 0.52401 0.25385 0.0
H337 H 0.75313 0.47017 0.38704 0.0
H338 H 0.7154 0.46767 0.26194 0.0
S339 S 0.79989 0.61543 0.32651 0.0
N340 N 0.80886 0.59062 0.39225 0.0
N341 N 0.7675 0.58793 0.25998 0.0
C342 C 0.76252 0.55656 0.29024 0.0
C343 C 0.78516 0.55804 0.36108 0.0
C344 C 0.2443 0.77462 0.40268 0.0
C345 C 0.21228 0.74299 0.41342 0.0
C346 C 0.26327 0.79478 0.4774 0.0
C347 C 0.25141 0.78346 0.56539 0.0
H348 H 0.25411 0.78454 0.33596 0.0
H349 H 0.28726 0.81954 0.46621 0.0
S350 S 0.17011 0.70163 0.62965 0.0
N351 N 0.16993 0.70085 0.51846 0.0
N352 N 0.2063 0.73807 0.65928 0.0
C353 C 0.22009 0.75125 0.57714 0.0
C354 C 0.20031 0.7312 0.50099 0.0
C355 C 0.46805 0.21797 0.68268 0.0
C356 C 0.46862 0.25014 0.67363 0.0
C357 C 0.46707 0.19848 0.60687 0.0
C358 C 0.46758 0.21096 0.51949 0.0
H359 H 0.46691 0.20706 0.74879 0.0
H360 H 0.4656 0.17333 0.61675 0.0
S361 S 0.47088 0.29458 0.4598 0.0
N362 N 0.47053 0.29407 0.57099 0.0
N363 N 0.46989 0.25801 0.42815 0.0
C364 C 0.46946 0.24371 0.50954 0.0
C365 C 0.46961 0.26314 0.58678 0.0
C366 C 0.00973 0.35598 0.92411 0.0
C367 C 0.03997 0.35624 0.89191 0.0
C368 C 0.97834 0.34033 0.87481 0.0
C369 C 0.97574 0.32433 0.79075 0.0
H370 H 0.01041 0.36872 0.9872 0.0
H371 H 0.95623 0.34179 0.90208 0.0
S372 S 0.04631 0.31478 0.67993 0.0
N373 N 0.06468 0.33678 0.77354 0.0
N374 N 0.00551 0.30732 0.68049 0.0
C375 C 0.00527 0.32287 0.75947 0.0
C376 C 0.03738 0.3388 0.81012 0.0
C377 C 0.66961 0.00102 0.91198 0.0
C378 C 0.64438 0.97067 0.95706 0.0
C379 C 0.68776 0.03353 0.95643 0.0
C380 C 0.68125 0.03693 0.04749 0.0
H381 H 0.67443 9e-05 0.84085 0.0
H382 H 0.70574 0.05643 0.9178 0.0
S383 S 0.62222 0.96453 0.20008 0.0
N384 N 0.61714 0.94538 0.10112 0.0
N385 N 0.65109 0.00648 0.18415 0.0
C386 C 0.6579 0.00639 0.09494 0.0
C387 C 0.63952 0.97327 0.04987 0.0
C388 C 0.66979 0.63694 0.32221 0.0
C389 C 0.66711 0.62956 0.22945 0.0
C390 C 0.6521 0.65281 0.36109 0.0
C391 C 0.63121 0.66209 0.30858 0.0
H392 H 0.68448 0.62913 0.36597 0.0
H393 H 0.65397 0.65675 0.43332 0.0
S394 S 0.61991 0.65303 0.06007 0.0
N395 N 0.645 0.636 0.08448 0.0
N396 N 0.61196 0.66602 0.15711 0.0
C397 C 0.63008 0.65677 0.21479 0.0
C398 C 0.64794 0.64044 0.17534 0.0
C399 C 0.0235 0.66951 0.47014 0.0
C400 C 0.033 0.6757 0.37899 0.0
C401 C 0.98813 0.6525 0.4959 0.0
C402 C 0.96089 0.64138 0.43159 0.0
H403 H 0.04338 0.6763 0.52186 0.0
H404 H 0.9821 0.64706 0.56672 0.0
S405 S 0.97227 0.65604 0.18499 0.0
N406 N 0.0127 0.67277 0.22484 0.0
N407 N 0.94617 0.64104 0.27332 0.0
C408 C 0.97017 0.64959 0.34069 0.0
C409 C 0.00623 0.66663 0.31435 0.0
C410 C 0.34281 0.00401 0.44616 0.0
C411 C 0.35348 0.03282 0.50495 0.0
C412 C 0.32519 0.96945 0.478 0.0
C413 C 0.31796 0.96234 0.57008 0.0
H414 H 0.34897 0.00818 0.37511 0.0
H415 H 0.31873 0.9483 0.43047 0.0
S416 S 0.33671 0.02811 0.75066 0.0
N417 N 0.35269 0.05177 0.65854 0.0
N418 N 0.31984 0.98671 0.71869 0.0
C419 C 0.32674 0.99075 0.62899 0.0
C420 C 0.34438 0.02601 0.59633 0.0
C421 C 0.33797 0.35403 0.67632 0.0
C422 C 0.3132 0.35878 0.72512 0.0
C423 C 0.35537 0.33792 0.71507 0.0
C424 C 0.34896 0.32599 0.80458 0.0
H425 H 0.34464 0.36349 0.60789 0.0
H426 H 0.37481 0.3358 0.67492 0.0
S427 S 0.28421 0.32917 0.95921 0.0
N428 N 0.28131 0.34804 0.86604 0.0
N429 N 0.31415 0.31776 0.93919 0.0
C430 C 0.32314 0.32916 0.85316 0.0
C431 C 0.30523 0.34551 0.81335 0.0
loop_
_geom_bond_atom_site_label_1
_geom_bond_atom_site_label_2
_geom_bond_distance
_geom_bond_site_symmetry_2
_ccdc_geom_bond_type
Zn0 O3 2.031 . S
Zn0 O5 2.049 . S
Zn0 O10 2.067 . S
Zn1 O2 1.962 1_554 S
Zn1 O4 1.986 . S
Zn1 O6 1.996 . S
Zn1 O9 1.943 . S
O2 Zn1 1.962 1_556 S
O2 C7 1.254 . S
O3 Zn0 2.031 . S
O3 C7 1.269 1_554 S
O4 Zn1 1.986 . S
O4 C11 1.262 1_554 S
O5 Zn0 2.049 . S
O5 C13 1.260 . S
O6 Zn1 1.996 . S
O6 C13 1.257 . S
C7 O2 1.254 . S
C7 O3 1.269 1_556 S
C8 O9 1.249 . S
C8 O10 1.270 . S
O9 Zn1 1.943 . S
O9 C8 1.249 . S
O10 Zn0 2.067 . S
O10 C8 1.270 . S
C11 O4 1.262 1_556 S
C11 O12 1.232 . S
O12 C11 1.232 . S
C13 O5 1.260 . S
C13 O6 1.257 . S
Zn14 O17 2.031 . S
Zn14 O19 2.049 . S
Zn14 O24 2.067 . S
Zn15 O16 1.962 . S
Zn15 O18 1.986 . S
Zn15 O20 1.996 . S
Zn15 O23 1.943 . S
O16 Zn15 1.962 . S
O16 C21 1.254 . S
O17 Zn14 2.031 . S
O17 C21 1.269 . S
O18 Zn15 1.986 . S
O18 C25 1.262 . S
O19 Zn14 2.049 . S
O19 C27 1.260 . S
O20 Zn15 1.996 . S
O20 C27 1.257 . S
C21 O16 1.254 . S
C21 O17 1.269 . S
C22 O23 1.249 . S
C22 O24 1.270 . S
O23 Zn15 1.943 . S
O23 C22 1.249 . S
O24 Zn14 2.067 . S
O24 C22 1.270 . S
C25 O18 1.262 . S
C25 O26 1.232 . S
O26 C25 1.232 . S
C27 O19 1.260 . S
C27 O20 1.257 . S
Zn28 O31 2.031 . S
Zn28 O33 2.049 . S
Zn28 O38 2.067 . S
Zn29 O30 1.962 . S
Zn29 O32 1.986 . S
Zn29 O34 1.996 . S
Zn29 O37 1.943 . S
O30 Zn29 1.962 . S
O30 C35 1.254 . S
O31 Zn28 2.031 . S
O31 C35 1.269 . S
O32 Zn29 1.986 . S
O32 C39 1.262 . S
O33 Zn28 2.049 . S
O33 C41 1.260 . S
O34 Zn29 1.996 . S
O34 C41 1.257 . S
C35 O30 1.254 . S
C35 O31 1.269 . S
C36 O37 1.249 . S
C36 O38 1.270 . S
O37 Zn29 1.943 . S
O37 C36 1.249 . S
O38 Zn28 2.067 . S
O38 C36 1.270 . S
C39 O32 1.262 . S
C39 O40 1.232 . S
O40 C39 1.232 . S
C41 O33 1.260 . S
C41 O34 1.257 . S
Zn42 O45 2.031 . S
Zn42 O47 2.049 . S
Zn42 O52 2.067 . S
Zn43 O44 1.962 . S
Zn43 O46 1.986 . S
Zn43 O48 1.996 . S
Zn43 O51 1.943 . S
O44 Zn43 1.962 . S
O44 C49 1.254 . S
O45 Zn42 2.031 . S
O45 C49 1.269 . S
O46 Zn43 1.986 . S
O46 C53 1.262 . S
O47 Zn42 2.049 . S
O47 C55 1.260 . S
O48 Zn43 1.996 . S
O48 C55 1.257 . S
C49 O44 1.254 . S
C49 O45 1.269 . S
C50 O51 1.249 . S
C50 O52 1.270 . S
O51 Zn43 1.943 . S
O51 C50 1.249 . S
O52 Zn42 2.067 . S
O52 C50 1.270 . S
C53 O46 1.262 . S
C53 O54 1.232 . S
O54 C53 1.232 . S
C55 O47 1.260 . S
C55 O48 1.257 . S
Zn56 O59 2.031 . S
Zn56 O61 2.049 . S
Zn56 O66 2.067 . S
Zn57 O58 1.962 . S
Zn57 O60 1.986 . S
Zn57 O62 1.996 . S
Zn57 O65 1.943 . S
O58 Zn57 1.962 . S
O58 C63 1.254 . S
O59 Zn56 2.031 . S
O59 C63 1.269 . S
O60 Zn57 1.986 . S
O60 C67 1.262 . S
O61 Zn56 2.049 . S
O61 C69 1.260 . S
O62 Zn57 1.996 . S
O62 C69 1.257 . S
C63 O58 1.254 . S
C63 O59 1.269 . S
C64 O65 1.249 . S
C64 O66 1.270 . S
O65 Zn57 1.943 . S
O65 C64 1.249 . S
O66 Zn56 2.067 . S
O66 C64 1.270 . S
C67 O60 1.262 . S
C67 O68 1.232 . S
O68 C67 1.232 . S
C69 O61 1.260 . S
C69 O62 1.257 . S
Zn70 O73 2.031 . S
Zn70 O75 2.049 . S
Zn70 O80 2.067 1_556 S
Zn71 O72 1.962 . S
Zn71 O74 1.986 . S
Zn71 O76 1.996 . S
Zn71 O79 1.943 . S
O72 Zn71 1.962 . S
O72 C77 1.254 . S
O73 Zn70 2.031 . S
O73 C77 1.269 . S
O74 Zn71 1.986 . S
O74 C81 1.262 . S
O75 Zn70 2.049 . S
O75 C83 1.260 . S
O76 Zn71 1.996 . S
O76 C83 1.257 . S
C77 O72 1.254 . S
C77 O73 1.269 . S
C78 O79 1.249 1_554 S
C78 O80 1.270 . S
O79 Zn71 1.943 . S
O79 C78 1.249 1_556 S
O80 Zn70 2.067 1_554 S
O80 C78 1.270 . S
C81 O74 1.262 . S
C81 O82 1.232 . S
O82 C81 1.232 . S
C83 O75 1.260 . S
C83 O76 1.257 . S
Zn84 O87 2.031 . S
Zn84 O89 2.049 . S
Zn84 O94 2.067 . S
Zn85 O86 1.962 1_556 S
Zn85 O88 1.986 . S
Zn85 O90 1.996 . S
Zn85 O93 1.943 . S
O86 Zn85 1.962 1_554 S
O86 C91 1.254 . S
O87 Zn84 2.031 . S
O87 C91 1.269 1_556 S
O88 Zn85 1.986 . S
O88 C95 1.262 . S
O89 Zn84 2.049 . S
O89 C97 1.260 . S
O90 Zn85 1.996 . S
O90 C97 1.257 . S
C91 O86 1.254 . S
C91 O87 1.269 1_554 S
C92 O93 1.249 . S
C92 O94 1.270 . S
O93 Zn85 1.943 . S
O93 C92 1.249 . S
O94 Zn84 2.067 . S
O94 C92 1.270 . S
C95 O88 1.262 . S
C95 O96 1.232 . S
O96 C95 1.232 . S
C97 O89 1.260 . S
C97 O90 1.257 . S
Zn98 O101 2.031 . S
Zn98 O103 2.049 1_554 S
Zn98 O108 2.067 1_554 S
Zn99 O100 1.962 . S
Zn99 O102 1.986 . S
Zn99 O104 1.996 . S
Zn99 O107 1.943 1_554 S
O100 Zn99 1.962 . S
O100 C105 1.254 . S
O101 Zn98 2.031 . S
O101 C105 1.269 . S
O102 Zn99 1.986 . S
O102 C109 1.262 . S
O103 Zn98 2.049 1_556 S
O103 C111 1.260 1_556 S
O104 Zn99 1.996 . S
O104 C111 1.257 . S
C105 O100 1.254 . S
C105 O101 1.269 . S
C106 O107 1.249 . S
C106 O108 1.270 . S
O107 Zn99 1.943 1_556 S
O107 C106 1.249 . S
O108 Zn98 2.067 1_556 S
O108 C106 1.270 . S
C109 O102 1.262 . S
C109 O110 1.232 . S
O110 C109 1.232 . S
C111 O103 1.260 1_554 S
C111 O104 1.257 . S
Zn112 O115 2.031 . S
Zn112 O117 2.049 . S
Zn112 O122 2.067 . S
Zn113 O114 1.962 . S
Zn113 O116 1.986 . S
Zn113 O118 1.996 . S
Zn113 O121 1.943 . S
O114 Zn113 1.962 . S
O114 C119 1.254 . S
O115 Zn112 2.031 . S
O115 C119 1.269 . S
O116 Zn113 1.986 . S
O116 C123 1.262 . S
O117 Zn112 2.049 . S
O117 C125 1.260 . S
O118 Zn113 1.996 . S
O118 C125 1.257 . S
C119 O114 1.254 . S
C119 O115 1.269 . S
C120 O121 1.249 . S
C120 O122 1.270 . S
O121 Zn113 1.943 . S
O121 C120 1.249 . S
O122 Zn112 2.067 . S
O122 C120 1.270 . S
C123 O116 1.262 . S
C123 O124 1.232 . S
O124 C123 1.232 . S
C125 O117 1.260 . S
C125 O118 1.257 . S
Zn126 O129 2.031 . S
Zn126 O131 2.049 . S
Zn126 O136 2.067 . S
Zn127 O128 1.962 . S
Zn127 O130 1.986 . S
Zn127 O132 1.996 . S
Zn127 O135 1.943 . S
O128 Zn127 1.962 . S
O128 C133 1.254 . S
O129 Zn126 2.031 . S
O129 C133 1.269 . S
O130 Zn127 1.986 . S
O130 C137 1.262 . S
O131 Zn126 2.049 . S
O131 C139 1.260 . S
O132 Zn127 1.996 . S
O132 C139 1.257 . S
C133 O128 1.254 . S
C133 O129 1.269 . S
C134 O135 1.249 . S
C134 O136 1.270 . S
O135 Zn127 1.943 . S
O135 C134 1.249 . S
O136 Zn126 2.067 . S
O136 C134 1.270 . S
C137 O130 1.262 . S
C137 O138 1.232 . S
O138 C137 1.232 . S
C139 O131 1.260 . S
C139 O132 1.257 . S
Zn140 O143 2.031 . S
Zn140 O145 2.049 . S
Zn140 O150 2.067 . S
Zn141 O142 1.962 . S
Zn141 O144 1.986 . S
Zn141 O146 1.996 . S
Zn141 O149 1.943 . S
O142 Zn141 1.962 . S
O142 C147 1.254 . S
O143 Zn140 2.031 . S
O143 C147 1.269 . S
O144 Zn141 1.986 . S
O144 C151 1.262 . S
O145 Zn140 2.049 . S
O145 C153 1.260 . S
O146 Zn141 1.996 . S
O146 C153 1.257 . S
C147 O142 1.254 . S
C147 O143 1.269 . S
C148 O149 1.249 . S
C148 O150 1.270 . S
O149 Zn141 1.943 . S
O149 C148 1.249 . S
O150 Zn140 2.067 . S
O150 C148 1.270 . S
C151 O144 1.262 . S
C151 O152 1.232 . S
O152 C151 1.232 . S
C153 O145 1.260 . S
C153 O146 1.257 . S
Zn154 O157 2.031 . S
Zn154 O159 2.049 . S
Zn154 O164 2.067 . S
Zn155 O156 1.962 . S
Zn155 O158 1.986 . S
Zn155 O160 1.996 . S
Zn155 O163 1.943 . S
O156 Zn155 1.962 . S
O156 C161 1.254 . S
O157 Zn154 2.031 . S
O157 C161 1.269 . S
O158 Zn155 1.986 . S
O158 C165 1.262 . S
O159 Zn154 2.049 . S
O159 C167 1.260 . S
O160 Zn155 1.996 . S
O160 C167 1.257 . S
C161 O156 1.254 . S
C161 O157 1.269 . S
C162 O163 1.249 . S
C162 O164 1.270 . S
O163 Zn155 1.943 . S
O163 C162 1.249 . S
O164 Zn154 2.067 . S
O164 C162 1.270 . S
C165 O158 1.262 . S
C165 O166 1.232 . S
O166 C165 1.232 . S
C167 O159 1.260 . S
C167 O160 1.257 . S
C168 C169 1.369 . S
C168 C170 1.419 . S
C168 H172 0.930 . S
C169 C168 1.369 . S
C169 C178 1.429 . S
C170 C168 1.419 . S
C170 C171 1.363 . S
C170 H173 0.929 . S
C171 C170 1.363 . S
C171 C177 1.428 . S
H172 C168 0.930 . S
H173 C170 0.929 . S
S174 N175 1.613 . S
S174 N176 1.610 . S
N175 S174 1.613 . S
N175 C178 1.350 . S
N176 S174 1.610 . S
N176 C177 1.351 . S
C177 C171 1.428 . S
C177 N176 1.351 . S
C177 C178 1.434 . S
C178 C169 1.429 . S
C178 N175 1.350 . S
C178 C177 1.434 . S
C179 C180 1.369 . S
C179 C181 1.419 . S
C179 H183 0.930 . S
C180 C179 1.369 . S
C180 C189 1.429 . S
C181 C179 1.419 . S
C181 C182 1.363 . S
C181 H184 0.929 . S
C182 C181 1.363 . S
C182 C188 1.428 . S
H183 C179 0.930 . S
H184 C181 0.929 . S
S185 N186 1.613 . S
S185 N187 1.610 . S
N186 S185 1.613 . S
N186 C189 1.350 . S
N187 S185 1.610 . S
N187 C188 1.351 . S
C188 C182 1.428 . S
C188 N187 1.351 . S
C188 C189 1.434 . S
C189 C180 1.429 . S
C189 N186 1.350 . S
C189 C188 1.434 . S
C190 C191 1.369 . S
C190 C192 1.419 . S
C190 H194 0.930 . S
C191 C190 1.369 . S
C191 C200 1.429 . S
C192 C190 1.419 . S
C192 C193 1.363 . S
C192 H195 0.929 . S
C193 C192 1.363 . S
C193 C199 1.428 . S
H194 C190 0.930 . S
H195 C192 0.929 . S
S196 N197 1.613 . S
S196 N198 1.610 . S
N197 S196 1.613 . S
N197 C200 1.350 . S
N198 S196 1.610 . S
N198 C199 1.351 . S
C199 C193 1.428 . S
C199 N198 1.351 . S
C199 C200 1.434 . S
C200 C191 1.429 . S
C200 N197 1.350 . S
C200 C199 1.434 . S
C201 C202 1.369 . S
C201 C203 1.419 . S
C201 H205 0.930 . S
C202 C201 1.369 . S
C202 C211 1.429 . S
C203 C201 1.419 . S
C203 C204 1.363 . S
C203 H206 0.929 . S
C204 C203 1.363 . S
C204 C210 1.428 . S
H205 C201 0.930 . S
H206 C203 0.929 . S
S207 N208 1.613 . S
S207 N209 1.610 . S
N208 S207 1.613 . S
N208 C211 1.350 . S
N209 S207 1.610 . S
N209 C210 1.351 . S
C210 C204 1.428 . S
C210 N209 1.351 . S
C210 C211 1.434 . S
C211 C202 1.429 . S
C211 N208 1.350 . S
C211 C210 1.434 . S
C212 C213 1.369 . S
C212 C214 1.419 1_556 S
C212 H216 0.930 1_556 S
C213 C212 1.369 . S
C213 C222 1.429 . S
C214 C212 1.419 1_554 S
C214 C215 1.363 . S
C214 H217 0.929 . S
C215 C214 1.363 . S
C215 C221 1.428 1_554 S
H216 C212 0.930 1_554 S
H217 C214 0.929 . S
S218 N219 1.613 . S
S218 N220 1.610 . S
N219 S218 1.613 . S
N219 C222 1.350 . S
N220 S218 1.610 . S
N220 C221 1.351 . S
C221 C215 1.428 1_556 S
C221 N220 1.351 . S
C221 C222 1.434 . S
C222 C213 1.429 . S
C222 N219 1.350 . S
C222 C221 1.434 . S
C223 C224 1.369 . S
C223 C225 1.419 . S
C223 H227 0.930 . S
C224 C223 1.369 . S
C224 C233 1.429 . S
C225 C223 1.419 . S
C225 C226 1.363 . S
C225 H228 0.929 . S
C226 C225 1.363 . S
C226 C232 1.428 . S
H227 C223 0.930 . S
H228 C225 0.929 . S
S229 N230 1.613 1_556 S
S229 N231 1.610 . S
N230 S229 1.613 1_554 S
N230 C233 1.350 . S
N231 S229 1.610 . S
N231 C232 1.351 1_556 S
C232 C226 1.428 . S
C232 N231 1.351 1_554 S
C232 C233 1.434 . S
C233 C224 1.429 . S
C233 N230 1.350 . S
C233 C232 1.434 . S
C234 C235 1.369 . S
C234 C236 1.419 . S
C234 H238 0.930 . S
C235 C234 1.369 . S
C235 C244 1.429 . S
C236 C234 1.419 . S
C236 C237 1.363 . S
C236 H239 0.929 . S
C237 C236 1.363 . S
C237 C243 1.428 . S
H238 C234 0.930 . S
H239 C236 0.929 . S
S240 N241 1.613 . S
S240 N242 1.610 . S
N241 S240 1.613 . S
N241 C244 1.350 . S
N242 S240 1.610 . S
N242 C243 1.351 . S
C243 C237 1.428 . S
C243 N242 1.351 . S
C243 C244 1.434 . S
C244 C235 1.429 . S
C244 N241 1.350 . S
C244 C243 1.434 . S
C245 C246 1.369 . S
C245 C247 1.419 . S
C245 H249 0.930 . S
C246 C245 1.369 . S
C246 C255 1.429 . S
C247 C245 1.419 . S
C247 C248 1.363 . S
C247 H250 0.929 . S
C248 C247 1.363 . S
C248 C254 1.428 . S
H249 C245 0.930 . S
H250 C247 0.929 . S
S251 N252 1.613 . S
S251 N253 1.610 . S
N252 S251 1.613 . S
N252 C255 1.350 . S
N253 S251 1.610 . S
N253 C254 1.351 . S
C254 C248 1.428 . S
C254 N253 1.351 . S
C254 C255 1.434 . S
C255 C246 1.429 . S
C255 N252 1.350 . S
C255 C254 1.434 . S
C256 C257 1.369 . S
C256 C258 1.419 . S
C256 H260 0.930 . S
C257 C256 1.369 . S
C257 C266 1.429 . S
C258 C256 1.419 . S
C258 C259 1.363 . S
C258 H261 0.929 . S
C259 C258 1.363 . S
C259 C265 1.428 . S
H260 C256 0.930 . S
H261 C258 0.929 . S
S262 N263 1.613 . S
S262 N264 1.610 . S
N263 S262 1.613 . S
N263 C266 1.350 . S
N264 S262 1.610 . S
N264 C265 1.351 . S
C265 C259 1.428 . S
C265 N264 1.351 . S
C265 C266 1.434 . S
C266 C257 1.429 . S
C266 N263 1.350 . S
C266 C265 1.434 . S
C267 C268 1.369 . S
C267 C269 1.419 . S
C267 H271 0.930 . S
C268 C267 1.369 . S
C268 C277 1.429 . S
C269 C267 1.419 . S
C269 C270 1.363 . S
C269 H272 0.929 . S
C270 C269 1.363 . S
C270 C276 1.428 . S
H271 C267 0.930 . S
H272 C269 0.929 . S
S273 N274 1.613 . S
S273 N275 1.610 . S
N274 S273 1.613 . S
N274 C277 1.350 . S
N275 S273 1.610 . S
N275 C276 1.351 . S
C276 C270 1.428 . S
C276 N275 1.351 . S
C276 C277 1.434 . S
C277 C268 1.429 . S
C277 N274 1.350 . S
C277 C276 1.434 . S
C278 C279 1.369 . S
C278 C280 1.419 . S
C278 H282 0.930 . S
C279 C278 1.369 . S
C279 C288 1.429 . S
C280 C278 1.419 . S
C280 C281 1.363 . S
C280 H283 0.929 . S
C281 C280 1.363 . S
C281 C287 1.428 . S
H282 C278 0.930 . S
H283 C280 0.929 . S
S284 N285 1.613 . S
S284 N286 1.610 . S
N285 S284 1.613 . S
N285 C288 1.350 . S
N286 S284 1.610 . S
N286 C287 1.351 . S
C287 C281 1.428 . S
C287 N286 1.351 . S
C287 C288 1.434 . S
C288 C279 1.429 . S
C288 N285 1.350 . S
C288 C287 1.434 . S
C289 C290 1.369 1_554 S
C289 C291 1.419 . S
C289 H293 0.930 . S
C290 C289 1.369 1_556 S
C290 C299 1.429 . S
C291 C289 1.419 . S
C291 C292 1.363 1_554 S
C291 H294 0.929 . S
C292 C291 1.363 1_556 S
C292 C298 1.428 . S
H293 C289 0.930 . S
H294 C291 0.929 . S
S295 N296 1.613 . S
S295 N297 1.610 . S
N296 S295 1.613 . S
N296 C299 1.350 . S
N297 S295 1.610 . S
N297 C298 1.351 . S
C298 C292 1.428 . S
C298 N297 1.351 . S
C298 C299 1.434 . S
C299 C290 1.429 . S
C299 N296 1.350 . S
C299 C298 1.434 . S
C300 C301 1.369 . S
C300 C302 1.419 . S
C300 H304 0.930 . S
C301 C300 1.369 . S
C301 C310 1.429 . S
C302 C300 1.419 . S
C302 C303 1.363 . S
C302 H305 0.929 . S
C303 C302 1.363 . S
C303 C309 1.428 . S
H304 C300 0.930 . S
H305 C302 0.929 . S
S306 N307 1.613 . S
S306 N308 1.610 . S
N307 S306 1.613 . S
N307 C310 1.350 . S
N308 S306 1.610 . S
N308 C309 1.351 . S
C309 C303 1.428 . S
C309 N308 1.351 . S
C309 C310 1.434 . S
C310 C301 1.429 . S
C310 N307 1.350 . S
C310 C309 1.434 . S
C311 C312 1.369 1_556 S
C311 C313 1.419 . S
C311 H315 0.930 . S
C312 C311 1.369 1_554 S
C312 C321 1.429 . S
C313 C311 1.419 . S
C313 C314 1.363 . S
C313 H316 0.929 . S
C314 C313 1.363 . S
C314 C320 1.428 . S
H315 C311 0.930 . S
H316 C313 0.929 . S
S317 N318 1.613 . S
S317 N319 1.610 . S
N318 S317 1.613 . S
N318 C321 1.350 . S
N319 S317 1.610 . S
N319 C320 1.351 1_554 S
C320 C314 1.428 . S
C320 N319 1.351 1_556 S
C320 C321 1.434 1_556 S
C321 C312 1.429 . S
C321 N318 1.350 . S
C321 C320 1.434 1_554 S
C322 C323 1.369 . S
C322 C324 1.419 . S
C322 H326 0.930 . S
C323 C322 1.369 . S
C323 C332 1.429 . S
C324 C322 1.419 . S
C324 C325 1.363 . S
C324 H327 0.929 . S
C325 C324 1.363 . S
C325 C331 1.428 . S
H326 C322 0.930 . S
H327 C324 0.929 . S
S328 N329 1.613 . S
S328 N330 1.610 . S
N329 S328 1.613 . S
N329 C332 1.350 . S
N330 S328 1.610 . S
N330 C331 1.351 . S
C331 C325 1.428 . S
C331 N330 1.351 . S
C331 C332 1.434 . S
C332 C323 1.429 . S
C332 N329 1.350 . S
C332 C331 1.434 . S
C333 C334 1.369 . S
C333 C335 1.419 . S
C333 H337 0.930 . S
C334 C333 1.369 . S
C334 C343 1.429 . S
C335 C333 1.419 . S
C335 C336 1.363 . S
C335 H338 0.929 . S
C336 C335 1.363 . S
C336 C342 1.428 . S
H337 C333 0.930 . S
H338 C335 0.929 . S
S339 N340 1.613 . S
S339 N341 1.610 . S
N340 S339 1.613 . S
N340 C343 1.350 . S
N341 S339 1.610 . S
N341 C342 1.351 . S
C342 C336 1.428 . S
C342 N341 1.351 . S
C342 C343 1.434 . S
C343 C334 1.429 . S
C343 N340 1.350 . S
C343 C342 1.434 . S
C344 C345 1.369 . S
C344 C346 1.419 . S
C344 H348 0.930 . S
C345 C344 1.369 . S
C345 C354 1.429 . S
C346 C344 1.419 . S
C346 C347 1.363 . S
C346 H349 0.929 . S
C347 C346 1.363 . S
C347 C353 1.428 . S
H348 C344 0.930 . S
H349 C346 0.929 . S
S350 N351 1.613 . S
S350 N352 1.610 . S
N351 S350 1.613 . S
N351 C354 1.350 . S
N352 S350 1.610 . S
N352 C353 1.351 . S
C353 C347 1.428 . S
C353 N352 1.351 . S
C353 C354 1.434 . S
C354 C345 1.429 . S
C354 N351 1.350 . S
C354 C353 1.434 . S
C355 C356 1.369 . S
C355 C357 1.419 . S
C355 H359 0.930 . S
C356 C355 1.369 . S
C356 C365 1.429 . S
C357 C355 1.419 . S
C357 C358 1.363 . S
C357 H360 0.929 . S
C358 C357 1.363 . S
C358 C364 1.428 . S
H359 C355 0.930 . S
H360 C357 0.929 . S
S361 N362 1.613 . S
S361 N363 1.610 . S
N362 S361 1.613 . S
N362 C365 1.350 . S
N363 S361 1.610 . S
N363 C364 1.351 . S
C364 C358 1.428 . S
C364 N363 1.351 . S
C364 C365 1.434 . S
C365 C356 1.429 . S
C365 N362 1.350 . S
C365 C364 1.434 . S
C366 C367 1.369 . S
C366 C368 1.419 1_455 S
C366 H370 0.930 . S
C367 C366 1.369 . S
C367 C376 1.429 . S
C368 C366 1.419 1_655 S
C368 C369 1.363 . S
C368 H371 0.929 . S
C369 C368 1.363 . S
C369 C375 1.450 . S
H370 C366 0.930 . S
H371 C368 0.929 . S
S372 N373 1.613 . S
S372 N374 1.610 . S
N373 S372 1.613 . S
N373 C376 1.350 . S
N374 S372 1.610 . S
N374 C375 1.341 1_455 S
C375 C369 1.450 . S
C375 N374 1.341 1_655 S
C375 C376 1.420 1_655 S
C376 C367 1.429 . S
C376 N373 1.350 . S
C376 C375 1.420 1_455 S
C377 C378 1.369 1_554 S
C377 C379 1.419 1_565 S
C377 H381 0.930 . S
C378 C377 1.369 1_556 S
C378 C387 1.429 . S
C379 C377 1.419 1_545 S
C379 C380 1.363 . S
C379 H382 0.929 . S
C380 C379 1.363 . S
C380 C386 1.428 . S
H381 C377 0.930 . S
H382 C379 0.929 . S
S383 N384 1.610 . S
S383 N385 1.610 1_556 S
N384 S383 1.610 . S
N384 C387 1.351 1_545 S
N385 S383 1.610 1_554 S
N385 C386 1.351 . S
C386 C380 1.428 . S
C386 N385 1.351 . S
C386 C387 1.434 1_544 S
C387 C378 1.429 . S
C387 N384 1.351 1_565 S
C387 C386 1.434 1_566 S
C388 C389 1.369 . S
C388 C390 1.419 . S
C388 H392 0.930 . S
C389 C388 1.369 . S
C389 C398 1.429 . S
C390 C388 1.419 . S
C390 C391 1.363 . S
C390 H393 0.929 . S
C391 C390 1.363 . S
C391 C397 1.428 . S
H392 C388 0.930 . S
H393 C390 0.929 . S
S394 N395 1.613 . S
S394 N396 1.610 . S
N395 S394 1.613 . S
N395 C398 1.350 . S
N396 S394 1.610 . S
N396 C397 1.351 . S
C397 C391 1.428 . S
C397 N396 1.351 . S
C397 C398 1.434 . S
C398 C389 1.429 . S
C398 N395 1.350 . S
C398 C397 1.434 . S
C399 C400 1.369 . S
C399 C401 1.419 . S
C399 H403 0.930 . S
C400 C399 1.369 . S
C400 C409 1.429 1_455 S
C401 C399 1.419 . S
C401 C402 1.363 1_455 S
C401 H404 0.929 . S
C402 C401 1.363 1_655 S
C402 C408 1.428 . S
H403 C399 0.930 . S
H404 C401 0.929 . S
S405 N406 1.613 . S
S405 N407 1.610 . S
N406 S405 1.613 . S
N406 C409 1.350 . S
N407 S405 1.610 . S
N407 C408 1.351 . S
C408 C402 1.428 . S
C408 N407 1.351 . S
C408 C409 1.434 . S
C409 C400 1.429 1_655 S
C409 N406 1.350 . S
C409 C408 1.434 . S
C410 C411 1.369 1_565 S
C410 C412 1.419 . S
C410 H414 0.930 . S
C411 C410 1.369 1_545 S
C411 C420 1.429 . S
C412 C410 1.419 . S
C412 C413 1.363 . S
C412 H415 0.929 . S
C413 C412 1.363 . S
C413 C419 1.428 1_565 S
H414 C410 0.930 . S
H415 C412 0.929 . S
S416 N417 1.613 . S
S416 N418 1.610 . S
N417 S416 1.613 . S
N417 C420 1.350 . S
N418 S416 1.610 . S
N418 C419 1.351 . S
C419 C413 1.428 1_545 S
C419 N418 1.351 . S
C419 C420 1.434 . S
C420 C411 1.429 . S
C420 N417 1.350 . S
C420 C419 1.434 . S
C421 C422 1.369 . S
C421 C423 1.419 . S
C421 H425 0.930 . S
C422 C421 1.369 . S
C422 C431 1.429 . S
C423 C421 1.419 . S
C423 C424 1.363 . S
C423 H426 0.929 . S
C424 C423 1.363 . S
C424 C430 1.428 . S
H425 C421 0.930 . S
H426 C423 0.929 . S
S427 N428 1.613 . S
S427 N429 1.610 . S
N428 S427 1.613 . S
N428 C431 1.350 . S
N429 S427 1.610 . S
N429 C430 1.351 . S
C430 C424 1.428 . S
C430 N429 1.351 . S
C430 C431 1.434 . S
C431 C422 1.429 . S
C431 N428 1.350 . S
C431 C430 1.434 . S
C169 C8 1.439 . S
C171 C148 1.437 . S
C180 C162 1.437 . S
C182 C22 1.435 . S
C191 C36 1.443 . S
C193 C92 1.440 . S
C202 C50 1.435 . S
C204 C106 1.438 . S
C213 C64 1.434 . S
C215 C120 1.437 . S
C224 C134 1.435 . S
C226 C78 1.434 . S
C235 C13 1.458 . S
C237 C125 1.458 . S
C246 C27 1.456 . S
C248 C139 1.456 . S
C257 C153 1.453 . S
C259 C41 1.455 . S
C268 C55 1.464 . S
C270 C167 1.463 . S
C279 C69 1.463 . S
C281 C97 1.462 . S
C290 C83 1.454 . S
C292 C111 1.455 1_556 S
C301 C147 1.012 . S
C303 C7 1.012 . S
C312 C21 1.011 . S
C314 C161 1.012 . S
C323 C35 1.009 . S
C325 C91 1.010 . S
C334 C49 1.011 . S
C336 C105 1.011 . S
C345 C119 1.010 . S
C347 C63 1.010 . S
C356 C77 1.012 . S
C358 C133 1.011 . S
C367 C11 1.515 . S
C369 C165 1.522 . S
C378 C95 1.522 . S
C380 C25 1.515 . S
C389 C109 1.524 . S
C391 C39 1.515 . S
C400 C123 1.524 . S
C402 C53 1.515 . S
C411 C137 1.513 . S
C413 C67 1.523 . S
C422 C151 1.514 . S
C424 C81 1.523 . S
