# Generated by pormake.
# Topology acs-a, (4)-cn, num edge types: 1
# Building blocks:
#     Node 0, Type 0, BuildingBlock: KUFVIS_clean_sbu_0, # of connection points: 4
#     Node 1, Type 0, BuildingBlock: KUFVIS_clean_sbu_0, # of connection points: 4
#     Node 2, Type 0, BuildingBlock: KUFVIS_clean_sbu_0, # of connection points: 4
#     Node 3, Type 0, BuildingBlock: KUFVIS_clean_sbu_0, # of connection points: 4
#     Node 4, Type 0, BuildingBlock: KUFVIS_clean_sbu_0, # of connection points: 4
#     Node 5, Type 0, BuildingBlock: KUFVIS_clean_sbu_0, # of connection points: 4
#     Node 6, Type 0, BuildingBlock: KUFVIS_clean_sbu_0, # of connection points: 4
#     Node 7, Type 0, BuildingBlock: KUFVIS_clean_sbu_0, # of connection points: 4
#     Node 8, Type 0, BuildingBlock: KUFVIS_clean_sbu_0, # of connection points: 4
#     Node 9, Type 0, BuildingBlock: KUFVIS_clean_sbu_0, # of connection points: 4
#     Node 10, Type 0, BuildingBlock: KUFVIS_clean_sbu_0, # of connection points: 4
#     Node 11, Type 0, BuildingBlock: KUFVIS_clean_sbu_0, # of connection points: 4
#     Edge 12, Type (0, 0), BuildingBlock: ZUJKAS_clean_linker_0, # of connection points: 2
#     Edge 13, Type (0, 0), BuildingBlock: ZUJKAS_clean_linker_0, # of connection points: 2
#     Edge 14, Type (0, 0), BuildingBlock: ZUJKAS_clean_linker_0, # of connection points: 2
#     Edge 15, Type (0, 0), BuildingBlock: ZUJKAS_clean_linker_0, # of connection points: 2
#     Edge 16, Type (0, 0), BuildingBlock: ZUJKAS_clean_linker_0, # of connection points: 2
#     Edge 17, Type (0, 0), BuildingBlock: ZUJKAS_clean_linker_0, # of connection points: 2
#     Edge 18, Type (0, 0), BuildingBlock: ZUJKAS_clean_linker_0, # of connection points: 2
#     Edge 19, Type (0, 0), BuildingBlock: ZUJKAS_clean_linker_0, # of connection points: 2
#     Edge 20, Type (0, 0), BuildingBlock: ZUJKAS_clean_linker_0, # of connection points: 2
#     Edge 21, Type (0, 0), BuildingBlock: ZUJKAS_clean_linker_0, # of connection points: 2
#     Edge 22, Type (0, 0), BuildingBlock: ZUJKAS_clean_linker_0, # of connection points: 2
#     Edge 23, Type (0, 0), BuildingBlock: ZUJKAS_clean_linker_0, # of connection points: 2
#     Edge 24, Type (0, 0), BuildingBlock: ZUJKAS_clean_linker_0, # of connection points: 2
#     Edge 25, Type (0, 0), BuildingBlock: ZUJKAS_clean_linker_0, # of connection points: 2
#     Edge 26, Type (0, 0), BuildingBlock: ZUJKAS_clean_linker_0, # of connection points: 2
#     Edge 27, Type (0, 0), BuildingBlock: ZUJKAS_clean_linker_0, # of connection points: 2
#     Edge 28, Type (0, 0), BuildingBlock: ZUJKAS_clean_linker_0, # of connection points: 2
#     Edge 29, Type (0, 0), BuildingBlock: ZUJKAS_clean_linker_0, # of connection points: 2
#     Edge 30, Type (0, 0), BuildingBlock: ZUJKAS_clean_linker_0, # of connection points: 2
#     Edge 31, Type (0, 0), BuildingBlock: ZUJKAS_clean_linker_0, # of connection points: 2
#     Edge 32, Type (0, 0), BuildingBlock: ZUJKAS_clean_linker_0, # of connection points: 2
#     Edge 33, Type (0, 0), BuildingBlock: ZUJKAS_clean_linker_0, # of connection points: 2
#     Edge 34, Type (0, 0), BuildingBlock: ZUJKAS_clean_linker_0, # of connection points: 2
#     Edge 35, Type (0, 0), BuildingBlock: ZUJKAS_clean_linker_0, # of connection points: 2
# Relax obj value: 0.496
# Max RMSD: 0.248
# Mean RMSD: 0.224
data_MOF--net-acs-a--node1-KUFVIS_clean_sbu_0--edge1-ZUJKAS_clean_linker_0
_symmetry_space_group_name_H-M    P1
_symmetry_Int_Tables_number       1
_symmetry_cell_setting            triclinic
loop_
_symmetry_equiv_pos_as_xyz
'x, y, z'
_cell_length_a     61.504671
_cell_length_b     61.525672
_cell_length_c     51.491746
_cell_angle_alpha  89.99816
_cell_angle_beta   90.014476
_cell_angle_gamma 113.06269
loop_
_atom_site_label
_atom_site_type_symbol
_atom_site_fract_x
_atom_site_fract_y
_atom_site_fract_z
_atom_type_partial_charge
Mn0 Mn 0.56448 0.14685 0.08154 0.0
Mn1 Mn 0.5192 0.14495 0.11969 0.0
C2 C 0.54655 0.17318 0.07484 0.0
C3 C 0.60512 0.1609 0.07393 0.0
C4 C 0.5143 0.10949 0.07677 0.0
O5 O 0.56695 0.1275 0.11274 0.0
O6 O 0.53839 0.13033 0.13825 0.0
C7 C 0.54595 0.17724 0.16167 0.0
N8 N 0.52922 0.17145 0.14267 0.0
C9 C 0.52016 0.2052 0.15262 0.0
C10 C 0.5372 0.21145 0.17239 0.0
C11 C 0.55019 0.19744 0.17688 0.0
C12 C 0.51667 0.18484 0.13813 0.0
H13 H 0.556 0.16654 0.16516 0.0
C14 C 0.55556 0.1239 0.13415 0.0
O15 O 0.59064 0.14157 0.0631 0.0
O16 O 0.596 0.17163 0.08946 0.0
N17 N 0.49961 0.15898 0.10398 0.0
C18 C 0.48499 0.15141 0.08307 0.0
C19 C 0.47133 0.164 0.07537 0.0
C20 C 0.47272 0.1841 0.08934 0.0
C21 C 0.48779 0.19146 0.11089 0.0
C22 C 0.50094 0.17819 0.11769 0.0
H23 H 0.48382 0.13595 0.07226 0.0
O24 O 0.55857 0.16877 0.05634 0.0
O25 O 0.54553 0.16211 0.09654 0.0
O26 O 0.53539 0.11908 0.06817 0.0
O27 O 0.50686 0.11727 0.09641 0.0
C28 C 0.49053 0.21164 0.12566 0.0
C29 C 0.50679 0.21857 0.14643 0.0
H30 H 0.54059 0.22707 0.18409 0.0
H31 H 0.56345 0.20222 0.19202 0.0
H32 H 0.45978 0.15823 0.05868 0.0
H33 H 0.46226 0.19384 0.08326 0.0
H34 H 0.48048 0.22216 0.12096 0.0
H35 H 0.50906 0.23438 0.15732 0.0
Mn36 Mn 0.37977 0.54146 0.58347 0.0
Mn37 Mn 0.33997 0.49342 0.61279 0.0
C38 C 0.33993 0.53192 0.5774 0.0
C39 C 0.4035 0.58165 0.58402 0.0
C40 C 0.37003 0.49112 0.5669 0.0
O41 O 0.39874 0.53427 0.612 0.0
O42 O 0.36997 0.50464 0.63312 0.0
C43 C 0.33226 0.51373 0.66234 0.0
N44 N 0.32353 0.50207 0.63973 0.0
C45 C 0.28421 0.49865 0.65031 0.0
C46 C 0.29276 0.51051 0.67376 0.0
C47 C 0.31689 0.51807 0.67979 0.0
C48 C 0.30029 0.49445 0.63388 0.0
H49 H 0.35082 0.51975 0.66695 0.0
C50 C 0.39143 0.51963 0.63081 0.0
O51 O 0.40834 0.56724 0.5689 0.0
O52 O 0.38537 0.57257 0.59922 0.0
N53 N 0.31035 0.48178 0.59481 0.0
C54 C 0.30542 0.47267 0.57037 0.0
C55 C 0.28231 0.46549 0.56068 0.0
C56 C 0.26454 0.4678 0.57618 0.0
C57 C 0.27005 0.47725 0.60126 0.0
C58 C 0.29334 0.48389 0.60997 0.0
H59 H 0.31907 0.4711 0.55827 0.0
O60 O 0.35515 0.5448 0.56045 0.0
O61 O 0.3486 0.52461 0.59697 0.0
O62 O 0.37969 0.51325 0.56268 0.0
O63 O 0.35544 0.4821 0.58538 0.0
C64 C 0.25348 0.48094 0.61767 0.0
C65 C 0.26054 0.49156 0.64221 0.0
H66 H 0.28103 0.5142 0.68712 0.0
H67 H 0.32364 0.52737 0.69778 0.0
H68 H 0.27823 0.45835 0.54125 0.0
H69 H 0.2468 0.46251 0.56852 0.0
H70 H 0.23535 0.47603 0.61143 0.0
H71 H 0.24773 0.49466 0.65447 0.0
Mn72 Mn 0.85656 0.3521 0.07208 0.0
Mn73 Mn 0.87747 0.31135 0.0901 0.0
C74 C 0.83882 0.31392 0.05664 0.0
C75 C 0.8326 0.37301 0.07817 0.0
C76 C 0.90289 0.3512 0.05258 0.0
O77 O 0.87557 0.36606 0.1047 0.0
O78 O 0.88593 0.33623 0.11745 0.0
C79 C 0.84841 0.29117 0.13672 0.0
N80 N 0.8555 0.28828 0.11236 0.0
C81 C 0.8307 0.2468 0.11279 0.0
C82 C 0.82319 0.24931 0.13791 0.0
C83 C 0.83208 0.2716 0.14991 0.0
C84 C 0.84716 0.26688 0.10069 0.0
H85 H 0.8551 0.3083 0.14596 0.0
C86 C 0.88497 0.35652 0.12086 0.0
O87 O 0.85197 0.38165 0.06478 0.0
O88 O 0.82732 0.3523 0.08853 0.0
N89 N 0.86966 0.28641 0.0651 0.0
C90 C 0.8772 0.28738 0.04008 0.0
C91 C 0.86912 0.26676 0.02493 0.0
C92 C 0.85339 0.24538 0.03564 0.0
C93 C 0.84584 0.24483 0.06141 0.0
C94 C 0.85459 0.26591 0.07562 0.0
H95 H 0.88916 0.3038 0.03171 0.0
O96 O 0.83703 0.33133 0.04381 0.0
O97 O 0.85156 0.3197 0.07763 0.0
O98 O 0.8866 0.35897 0.05141 0.0
O99 O 0.90174 0.33394 0.06705 0.0
C100 C 0.82964 0.22429 0.07339 0.0
C101 C 0.82207 0.22527 0.09906 0.0
H102 H 0.81045 0.23431 0.14806 0.0
H103 H 0.82629 0.27371 0.16924 0.0
H104 H 0.87493 0.26736 0.00501 0.0
H105 H 0.84707 0.22955 0.02382 0.0
H106 H 0.82262 0.20771 0.0629 0.0
H107 H 0.80934 0.20943 0.10792 0.0
Mn108 Mn 0.43084 0.84835 0.58567 0.0
Mn109 Mn 0.47493 0.85135 0.62644 0.0
C110 C 0.44853 0.82142 0.58206 0.0
C111 C 0.39045 0.83451 0.57624 0.0
C112 C 0.48197 0.8842 0.58045 0.0
O113 O 0.42747 0.869 0.615 0.0
O114 O 0.45654 0.86866 0.64134 0.0
C115 C 0.44607 0.82367 0.67023 0.0
N116 N 0.46335 0.82722 0.65223 0.0
C117 C 0.47228 0.79539 0.66966 0.0
C118 C 0.45465 0.79145 0.68847 0.0
C119 C 0.4414 0.80557 0.68866 0.0
C120 C 0.47599 0.81355 0.65167 0.0
H121 H 0.43597 0.83461 0.67059 0.0
C122 C 0.43924 0.8746 0.63611 0.0
O123 O 0.40554 0.85326 0.565 0.0
O124 O 0.39882 0.82416 0.59309 0.0
N125 N 0.49398 0.83504 0.61488 0.0
C126 C 0.50914 0.84006 0.59436 0.0
C127 C 0.52308 0.82688 0.59072 0.0
C128 C 0.52159 0.809 0.60847 0.0
C129 C 0.50596 0.80427 0.62952 0.0
C130 C 0.4923 0.81777 0.63196 0.0
H131 H 0.51056 0.85397 0.58085 0.0
O132 O 0.4373 0.82548 0.56255 0.0
O133 O 0.44895 0.83312 0.60321 0.0
O134 O 0.46064 0.87555 0.57232 0.0
O135 O 0.48889 0.87655 0.60053 0.0
C136 C 0.50328 0.78661 0.64812 0.0
C137 C 0.48627 0.78198 0.668 0.0
H138 H 0.45108 0.77757 0.70278 0.0
H139 H 0.42772 0.80259 0.70306 0.0
H140 H 0.53508 0.83061 0.5744 0.0
H141 H 0.53245 0.79894 0.60567 0.0
H142 H 0.51397 0.77623 0.6471 0.0
H143 H 0.48402 0.768 0.68183 0.0
Mn144 Mn 0.60983 0.44991 0.08113 0.0
Mn145 Mn 0.65128 0.49651 0.11079 0.0
C146 C 0.64937 0.45878 0.07346 0.0
C147 C 0.58514 0.41 0.0814 0.0
C148 C 0.62053 0.50092 0.06657 0.0
O149 O 0.59197 0.45716 0.11082 0.0
O150 O 0.62191 0.48543 0.1321 0.0
C151 C 0.65937 0.47354 0.15823 0.0
N152 N 0.66785 0.48608 0.13606 0.0
C153 C 0.70684 0.48727 0.14418 0.0
C154 C 0.69856 0.47451 0.16719 0.0
C155 C 0.67472 0.46761 0.17423 0.0
C156 C 0.69079 0.49294 0.12918 0.0
H157 H 0.64101 0.46799 0.16358 0.0
C158 C 0.60017 0.47114 0.13004 0.0
O159 O 0.58043 0.42492 0.06695 0.0
O160 O 0.60378 0.41839 0.09597 0.0
N161 N 0.68043 0.50807 0.09192 0.0
C162 C 0.68513 0.51859 0.06813 0.0
C163 C 0.70796 0.52568 0.0577 0.0
C164 C 0.7257 0.52185 0.07178 0.0
C165 C 0.72045 0.511 0.09623 0.0
C166 C 0.69745 0.50454 0.10577 0.0
H167 H 0.67151 0.52139 0.05712 0.0
O168 O 0.63357 0.44629 0.05681 0.0
O169 O 0.64139 0.46583 0.09371 0.0
O170 O 0.61038 0.47892 0.06166 0.0
O171 O 0.63555 0.50923 0.08488 0.0
C172 C 0.73699 0.50582 0.1112 0.0
C173 C 0.7302 0.49398 0.13517 0.0
H174 H 0.71027 0.46967 0.17943 0.0
H175 H 0.66816 0.45762 0.19186 0.0
H176 H 0.71184 0.53395 0.03876 0.0
H177 H 0.74322 0.52711 0.06353 0.0
H178 H 0.75489 0.51052 0.10428 0.0
H179 H 0.74297 0.48975 0.1463 0.0
Mn180 Mn 0.13785 0.64584 0.56789 0.0
Mn181 Mn 0.1172 0.68679 0.58568 0.0
C182 C 0.15512 0.68369 0.55143 0.0
C183 C 0.16228 0.62562 0.57414 0.0
C184 C 0.09074 0.64582 0.54983 0.0
O185 O 0.12005 0.63279 0.60136 0.0
O186 O 0.1097 0.6627 0.6139 0.0
C187 C 0.14767 0.70836 0.63097 0.0
N188 N 0.13996 0.71049 0.60668 0.0
C189 C 0.16592 0.7516 0.60472 0.0
C190 C 0.17407 0.74985 0.62975 0.0
C191 C 0.16488 0.72814 0.64293 0.0
C192 C 0.14848 0.73137 0.59393 0.0
H193 H 0.14084 0.69165 0.64109 0.0
C194 C 0.11108 0.64263 0.61764 0.0
O195 O 0.14253 0.61614 0.56153 0.0
O196 O 0.16776 0.64672 0.58345 0.0
N197 N 0.1243 0.71094 0.55979 0.0
C198 C 0.11587 0.70921 0.53507 0.0
C199 C 0.12398 0.72917 0.51889 0.0
C200 C 0.14073 0.75065 0.52824 0.0
C201 C 0.1492 0.75199 0.55372 0.0
C202 C 0.14028 0.73158 0.56905 0.0
H203 H 0.10321 0.69267 0.52768 0.0
O204 O 0.15646 0.66602 0.53866 0.0
O205 O 0.14272 0.67818 0.57264 0.0
O206 O 0.10709 0.63814 0.54832 0.0
O207 O 0.09224 0.66346 0.56387 0.0
C208 C 0.16656 0.77262 0.56429 0.0
C209 C 0.17489 0.77244 0.58978 0.0
H210 H 0.18757 0.76499 0.63891 0.0
H211 H 0.17117 0.72662 0.66221 0.0
H212 H 0.11746 0.72796 0.4992 0.0
H213 H 0.14712 0.76594 0.5156 0.0
H214 H 0.17384 0.78865 0.55286 0.0
H215 H 0.18847 0.78832 0.59756 0.0
Mn216 Mn 0.84823 0.42892 0.41728 0.0
Mn217 Mn 0.85424 0.47292 0.37506 0.0
C218 C 0.82156 0.44702 0.41784 0.0
C219 C 0.83386 0.38865 0.42714 0.0
C220 C 0.88462 0.4798 0.42314 0.0
O221 O 0.87012 0.42497 0.38975 0.0
O222 O 0.87207 0.45424 0.36226 0.0
C223 C 0.82859 0.44396 0.33033 0.0
N224 N 0.83138 0.46137 0.34795 0.0
C225 C 0.80026 0.47009 0.32824 0.0
C226 C 0.79713 0.45234 0.30979 0.0
C227 C 0.81127 0.43914 0.31093 0.0
C228 C 0.81769 0.47398 0.34721 0.0
H229 H 0.83952 0.43387 0.33104 0.0
C230 C 0.87727 0.4368 0.36889 0.0
O231 O 0.85185 0.40385 0.43943 0.0
O232 O 0.82435 0.39686 0.4092 0.0
N233 N 0.83765 0.49227 0.3847 0.0
C234 C 0.84183 0.5076 0.40499 0.0
C235 C 0.82847 0.5215 0.40734 0.0
C236 C 0.81126 0.51979 0.38859 0.0
C237 C 0.80742 0.50401 0.36779 0.0
C238 C 0.82108 0.49043 0.36662 0.0
H239 H 0.85522 0.50915 0.41927 0.0
O240 O 0.82434 0.43585 0.43814 0.0
O241 O 0.83441 0.44716 0.39773 0.0
O242 O 0.87491 0.45865 0.4316 0.0
O243 O 0.87827 0.48678 0.40222 0.0
C244 C 0.79048 0.5011 0.34824 0.0
C245 C 0.78672 0.48399 0.32864 0.0
H246 H 0.78383 0.44862 0.29475 0.0
H247 H 0.80891 0.42536 0.29682 0.0
H248 H 0.83152 0.53362 0.42347 0.0
H249 H 0.80103 0.53058 0.39043 0.0
H250 H 0.77999 0.51172 0.34828 0.0
H251 H 0.77328 0.48158 0.31405 0.0
Mn252 Mn 0.3476 0.85757 0.9284 0.0
Mn253 Mn 0.30557 0.87811 0.91512 0.0
C254 C 0.31066 0.83984 0.94714 0.0
C255 C 0.36772 0.83349 0.91932 0.0
C256 C 0.34819 0.90398 0.94915 0.0
O257 O 0.35914 0.87651 0.89513 0.0
O258 O 0.32805 0.88588 0.88535 0.0
C259 C 0.28151 0.84832 0.87024 0.0
N260 N 0.2807 0.8558 0.89498 0.0
C261 C 0.23932 0.83108 0.89853 0.0
C262 C 0.23969 0.82317 0.87307 0.0
C263 C 0.26089 0.83183 0.85887 0.0
C264 C 0.26036 0.84771 0.90876 0.0
H265 H 0.29778 0.85482 0.8593 0.0
C266 C 0.3482 0.88528 0.87997 0.0
O267 O 0.37766 0.85302 0.9322 0.0
O268 O 0.34627 0.82815 0.91115 0.0
N269 N 0.28281 0.8708 0.94256 0.0
C270 C 0.28588 0.87875 0.96754 0.0
C271 C 0.26661 0.87095 0.9847 0.0
C272 C 0.24441 0.85506 0.97603 0.0
C273 C 0.2417 0.84707 0.95027 0.0
C274 C 0.26151 0.85555 0.934 0.0
H275 H 0.30293 0.89084 0.97436 0.0
O276 O 0.32899 0.83818 0.95809 0.0
O277 O 0.3149 0.85247 0.9261 0.0
O278 O 0.35596 0.88767 0.94929 0.0
O279 O 0.33004 0.90275 0.9362 0.0
C280 C 0.22022 0.83069 0.94022 0.0
C281 C 0.21902 0.82272 0.91437 0.0
H282 H 0.22388 0.81029 0.86431 0.0
H283 H 0.26135 0.82572 0.83925 0.0
H284 H 0.26887 0.8771 0.0046 0.0
H285 H 0.22962 0.84895 0.98939 0.0
H286 H 0.20459 0.82385 0.95233 0.0
H287 H 0.20249 0.80988 0.90698 0.0
Mn288 Mn 0.54129 0.37934 0.41488 0.0
Mn289 Mn 0.49159 0.33689 0.39141 0.0
C290 C 0.53322 0.34009 0.42321 0.0
C291 C 0.58122 0.40354 0.41075 0.0
C292 C 0.49204 0.36913 0.43616 0.0
O293 O 0.5315 0.39611 0.38598 0.0
O294 O 0.50005 0.36575 0.36954 0.0
C295 C 0.50819 0.32755 0.3403 0.0
N296 N 0.49869 0.31968 0.36409 0.0
C297 C 0.4958 0.28033 0.35464 0.0
C298 C 0.50548 0.288 0.33 0.0
C299 C 0.51169 0.3117 0.32281 0.0
C300 C 0.49236 0.29684 0.37109 0.0
H301 H 0.51315 0.34579 0.33475 0.0
C302 C 0.51498 0.38734 0.36923 0.0
O303 O 0.56757 0.40899 0.4264 0.0
O304 O 0.57145 0.38461 0.39687 0.0
N305 N 0.48247 0.30823 0.41099 0.0
C306 C 0.47549 0.30427 0.43627 0.0
C307 C 0.46991 0.28175 0.44703 0.0
C308 C 0.47158 0.26357 0.43173 0.0
C309 C 0.47882 0.26808 0.40576 0.0
C310 C 0.48395 0.29081 0.39602 0.0
H311 H 0.47443 0.31826 0.4482 0.0
O312 O 0.54695 0.3564 0.43863 0.0
O313 O 0.52411 0.34734 0.40401 0.0
O314 O 0.51439 0.37999 0.43763 0.0
O315 O 0.48189 0.35303 0.41944 0.0
C316 C 0.48176 0.25108 0.38939 0.0
C317 C 0.49018 0.25718 0.36382 0.0
H318 H 0.5085 0.27591 0.31658 0.0
H319 H 0.51928 0.31777 0.30388 0.0
H320 H 0.46448 0.27846 0.46713 0.0
H321 H 0.46753 0.24631 0.44019 0.0
H322 H 0.47798 0.23337 0.39641 0.0
H323 H 0.49273 0.24407 0.35157 0.0
Mn324 Mn 0.14443 0.56645 0.91858 0.0
Mn325 Mn 0.14018 0.52265 0.87686 0.0
C326 C 0.17116 0.54855 0.92061 0.0
C327 C 0.15897 0.60662 0.9289 0.0
C328 C 0.10786 0.51559 0.92325 0.0
O329 O 0.12386 0.57062 0.88966 0.0
O330 O 0.1228 0.5413 0.86262 0.0
C331 C 0.1676 0.55171 0.83306 0.0
N332 N 0.16433 0.5345 0.85108 0.0
C333 C 0.19816 0.528 0.83545 0.0
C334 C 0.20179 0.54555 0.81662 0.0
C335 C 0.18646 0.55748 0.81546 0.0
C336 C 0.17897 0.52291 0.85236 0.0
H337 H 0.15592 0.561 0.83214 0.0
C338 C 0.11751 0.55885 0.86862 0.0
O339 O 0.14017 0.59158 0.94011 0.0
O340 O 0.16891 0.59834 0.9115 0.0
N341 N 0.15669 0.50368 0.88823 0.0
C342 C 0.15174 0.48843 0.90866 0.0
C343 C 0.16598 0.47569 0.91316 0.0
C344 C 0.18505 0.47867 0.89654 0.0
C345 C 0.18976 0.49442 0.8756 0.0
C346 C 0.17491 0.50656 0.87201 0.0
H347 H 0.13712 0.48611 0.92151 0.0
O348 O 0.16748 0.55929 0.9408 0.0
O349 O 0.15884 0.54841 0.90008 0.0
O350 O 0.11718 0.53674 0.93178 0.0
O351 O 0.11499 0.50861 0.90283 0.0
C352 C 0.20883 0.49885 0.85839 0.0
C353 C 0.21308 0.51568 0.83839 0.0
H354 H 0.21641 0.55015 0.80311 0.0
H355 H 0.18922 0.57113 0.80107 0.0
H356 H 0.16228 0.46364 0.92942 0.0
H357 H 0.19605 0.4689 0.90017 0.0
H358 H 0.22052 0.4896 0.86053 0.0
H359 H 0.22802 0.51919 0.82555 0.0
Mn360 Mn 0.64374 0.13549 0.42903 0.0
Mn361 Mn 0.68639 0.116 0.41528 0.0
C362 C 0.68081 0.15377 0.4474 0.0
C363 C 0.62341 0.15942 0.42055 0.0
C364 C 0.64411 0.08928 0.44951 0.0
O365 O 0.63229 0.11676 0.39567 0.0
O366 O 0.66355 0.10768 0.38574 0.0
C367 C 0.70927 0.14633 0.37032 0.0
N368 N 0.71061 0.13896 0.39499 0.0
C369 C 0.75123 0.16602 0.39877 0.0
C370 C 0.75031 0.1738 0.37337 0.0
C371 C 0.72924 0.16389 0.35908 0.0
C372 C 0.73087 0.14821 0.40883 0.0
H373 H 0.69303 0.139 0.35936 0.0
C374 C 0.6433 0.10813 0.38044 0.0
O375 O 0.61356 0.13975 0.43321 0.0
O376 O 0.6448 0.16488 0.41214 0.0
N377 N 0.70946 0.124 0.44247 0.0
C378 C 0.70691 0.11582 0.46735 0.0
C379 C 0.72614 0.12459 0.48452 0.0
C380 C 0.74774 0.14174 0.476 0.0
C381 C 0.74993 0.14994 0.45033 0.0
C382 C 0.73025 0.14034 0.434 0.0
H383 H 0.69028 0.10284 0.4741 0.0
O384 O 0.66244 0.15496 0.45876 0.0
O385 O 0.67642 0.14105 0.42645 0.0
O386 O 0.63587 0.10526 0.44947 0.0
O387 O 0.66253 0.09102 0.43672 0.0
C388 C 0.77069 0.16768 0.44052 0.0
C389 C 0.77135 0.1757 0.41476 0.0
H390 H 0.76558 0.18756 0.36474 0.0
H391 H 0.72834 0.16991 0.33951 0.0
H392 H 0.72428 0.11827 0.50434 0.0
H393 H 0.76245 0.14866 0.48939 0.0
H394 H 0.78616 0.1755 0.45274 0.0
H395 H 0.78731 0.18958 0.40756 0.0
Mn396 Mn 0.45349 0.61633 0.91263 0.0
Mn397 Mn 0.50338 0.65824 0.88895 0.0
C398 C 0.46167 0.65572 0.9203 0.0
C399 C 0.41359 0.59222 0.90826 0.0
C400 C 0.50255 0.62647 0.93437 0.0
O401 O 0.4633 0.59911 0.88429 0.0
O402 O 0.49479 0.62911 0.86743 0.0
C403 C 0.48706 0.66717 0.8375 0.0
N404 N 0.49649 0.67524 0.86127 0.0
C405 C 0.49947 0.71452 0.85126 0.0
C406 C 0.48988 0.70664 0.82664 0.0
C407 C 0.48366 0.68287 0.81973 0.0
C408 C 0.50283 0.69815 0.868 0.0
H409 H 0.48208 0.64887 0.83216 0.0
C410 C 0.47975 0.60756 0.86744 0.0
O411 O 0.42702 0.5869 0.92436 0.0
O412 O 0.42355 0.61098 0.89417 0.0
N413 N 0.51261 0.68711 0.90815 0.0
C414 C 0.51954 0.69131 0.93343 0.0
C415 C 0.52515 0.71393 0.9439 0.0
C416 C 0.52353 0.73198 0.92832 0.0
C417 C 0.51633 0.72723 0.90236 0.0
C418 C 0.51118 0.7044 0.89291 0.0
H419 H 0.52055 0.67743 0.94558 0.0
O420 O 0.44781 0.63961 0.93581 0.0
O421 O 0.47083 0.64819 0.90136 0.0
O422 O 0.48018 0.61585 0.93582 0.0
O423 O 0.51287 0.64227 0.91739 0.0
C424 C 0.51345 0.74409 0.88572 0.0
C425 C 0.5051 0.73775 0.86016 0.0
H426 H 0.48693 0.71862 0.81301 0.0
H427 H 0.47613 0.67663 0.80081 0.0
H428 H 0.53055 0.71742 0.964 0.0
H429 H 0.5276 0.74933 0.93656 0.0
H430 H 0.51725 0.76187 0.89251 0.0
H431 H 0.5026 0.75077 0.84768 0.0
H432 H 0.59949 0.10262 0.36253 0.0
H433 H 0.58521 0.09555 0.3179 0.0
H434 H 0.64963 0.08913 0.2941 0.0
H435 H 0.66424 0.09631 0.33875 0.0
H436 H 0.63917 0.12263 0.26627 0.0
H437 H 0.56118 0.03794 0.26968 0.0
H438 H 0.56083 0.05812 0.2947 0.0
H439 H 0.5837 0.04674 0.29458 0.0
C440 C 0.61048 0.09922 0.34798 0.0
C441 C 0.6331 0.10018 0.3543 0.0
C442 C 0.60218 0.095 0.32245 0.0
C443 C 0.61625 0.09156 0.30273 0.0
C444 C 0.63843 0.09156 0.30909 0.0
H445 H 0.59341 0.11057 0.13628 0.0
H446 H 0.60908 0.09831 0.17482 0.0
C447 C 0.64672 0.09566 0.33466 0.0
C448 C 0.60894 0.09095 0.27523 0.0
H449 H 0.56284 0.06382 0.23389 0.0
C450 C 0.62274 0.1095 0.25893 0.0
C451 C 0.58752 0.07379 0.26578 0.0
C452 C 0.57256 0.05289 0.28202 0.0
C453 C 0.61491 0.1123 0.23403 0.0
C454 C 0.5929 0.09576 0.22502 0.0
C455 C 0.5797 0.07649 0.24082 0.0
C456 C 0.58202 0.09982 0.20076 0.0
C457 C 0.62953 0.13381 0.21834 0.0
C458 C 0.561 0.10356 0.20231 0.0
C459 C 0.55189 0.11031 0.18038 0.0
C460 C 0.56361 0.11351 0.15633 0.0
C461 C 0.58401 0.10847 0.1545 0.0
C462 C 0.59308 0.10159 0.17654 0.0
H463 H 0.64375 0.14701 0.2301 0.0
H464 H 0.63796 0.12835 0.20195 0.0
H465 H 0.61824 0.14246 0.21014 0.0
H466 H 0.55213 0.10222 0.22078 0.0
H467 H 0.53607 0.11385 0.1826 0.0
H468 H 0.43899 0.54662 0.63264 0.0
H469 H 0.46439 0.55574 0.67094 0.0
H470 H 0.40684 0.50745 0.7164 0.0
H471 H 0.38147 0.49783 0.67825 0.0
H472 H 0.45351 0.57688 0.71124 0.0
H473 H 0.46186 0.49581 0.74669 0.0
H474 H 0.45252 0.4985 0.71399 0.0
H475 H 0.43163 0.49092 0.74038 0.0
C476 C 0.43189 0.53742 0.65061 0.0
C477 C 0.40805 0.52172 0.65242 0.0
C478 C 0.44649 0.54261 0.67246 0.0
C479 C 0.43759 0.53216 0.6965 0.0
C480 C 0.41429 0.51533 0.69796 0.0
H481 H 0.4456 0.5648 0.85388 0.0
H482 H 0.44113 0.54515 0.81196 0.0
C483 C 0.3997 0.51002 0.6761 0.0
C484 C 0.45091 0.54185 0.72068 0.0
H485 H 0.46642 0.52602 0.77917 0.0
C486 C 0.45694 0.5659 0.72584 0.0
C487 C 0.45518 0.52745 0.73974 0.0
C488 C 0.45016 0.50178 0.7348 0.0
C489 C 0.46561 0.57564 0.75015 0.0
C490 C 0.46886 0.561 0.76967 0.0
C491 C 0.46396 0.53719 0.76413 0.0
C492 C 0.47451 0.5696 0.79666 0.0
C493 C 0.46963 0.60113 0.75523 0.0
C494 C 0.49537 0.58909 0.80242 0.0
C495 C 0.49788 0.60061 0.82629 0.0
C496 C 0.47967 0.5926 0.84489 0.0
C497 C 0.45989 0.57161 0.83997 0.0
C498 C 0.45732 0.56027 0.81601 0.0
H499 H 0.4621 0.60858 0.73965 0.0
H500 H 0.46162 0.6029 0.77402 0.0
H501 H 0.48889 0.61191 0.75627 0.0
H502 H 0.50905 0.59626 0.78787 0.0
H503 H 0.51352 0.61651 0.82959 0.0
H504 H 0.8682 0.3853 0.14646 0.0
H505 H 0.8782 0.40122 0.19008 0.0
H506 H 0.93092 0.37136 0.1957 0.0
H507 H 0.91979 0.35401 0.15238 0.0
H508 H 0.90837 0.36289 0.23775 0.0
H509 H 0.92947 0.45663 0.21859 0.0
H510 H 0.90058 0.44028 0.20587 0.0
H511 H 0.92575 0.43591 0.19252 0.0
C512 C 0.88224 0.38249 0.15677 0.0
C513 C 0.89334 0.36856 0.14593 0.0
C514 C 0.88811 0.39179 0.18171 0.0
C515 C 0.90581 0.38812 0.19608 0.0
C516 C 0.91733 0.37462 0.18501 0.0
H517 H 0.91813 0.46188 0.34327 0.0
H518 H 0.93273 0.44959 0.304 0.0
C519 C 0.91101 0.36477 0.16024 0.0
C520 C 0.9106 0.39665 0.22337 0.0
H521 H 0.91336 0.44268 0.26181 0.0
C522 C 0.91005 0.38055 0.24299 0.0
C523 C 0.91374 0.41992 0.23045 0.0
C524 C 0.91772 0.43918 0.21063 0.0
C525 C 0.91057 0.38649 0.26939 0.0
C526 C 0.9104 0.4087 0.27639 0.0
C527 C 0.91292 0.4254 0.25676 0.0
C528 C 0.90525 0.41426 0.30331 0.0
C529 C 0.91116 0.36875 0.28931 0.0
C530 C 0.88562 0.39827 0.31686 0.0
C531 C 0.87798 0.405 0.33989 0.0
C532 C 0.88924 0.42811 0.34926 0.0
C533 C 0.90936 0.44387 0.33646 0.0
C534 C 0.91755 0.43687 0.31393 0.0
H535 H 0.92175 0.35894 0.28212 0.0
H536 H 0.91876 0.37728 0.30805 0.0
H537 H 0.89293 0.35558 0.29267 0.0
H538 H 0.87515 0.38109 0.30881 0.0
H539 H 0.86206 0.39276 0.34912 0.0
H540 H 0.32804 0.89935 0.83919 0.0
H541 H 0.34264 0.90738 0.79459 0.0
H542 H 0.40562 0.89726 0.81666 0.0
H543 H 0.39136 0.88928 0.86132 0.0
H544 H 0.41189 0.93723 0.78035 0.0
H545 H 0.34337 0.85028 0.75033 0.0
H546 H 0.33372 0.87032 0.76761 0.0
H547 H 0.35147 0.85732 0.78392 0.0
C548 C 0.34519 0.8992 0.83474 0.0
C549 C 0.3584 0.89338 0.85387 0.0
C550 C 0.35345 0.90375 0.80919 0.0
C551 C 0.37504 0.90264 0.80235 0.0
C552 C 0.38887 0.89817 0.82161 0.0
H553 H 0.46114 0.89155 0.68229 0.0
H554 H 0.44473 0.90358 0.71981 0.0
C555 C 0.38063 0.89353 0.84712 0.0
C556 C 0.38244 0.90403 0.77486 0.0
H557 H 0.37149 0.87127 0.71933 0.0
C558 C 0.4029 0.92301 0.76682 0.0
C559 C 0.37051 0.88556 0.75725 0.0
C560 C 0.34861 0.8646 0.76508 0.0
C561 C 0.41225 0.92357 0.74183 0.0
C562 C 0.40116 0.90435 0.72476 0.0
C563 C 0.37998 0.88602 0.73238 0.0
C564 C 0.4126 0.90118 0.70049 0.0
C565 C 0.43412 0.94458 0.73414 0.0
C566 C 0.40007 0.89583 0.67693 0.0
C567 C 0.40934 0.88858 0.65531 0.0
C568 C 0.43122 0.88636 0.65699 0.0
C569 C 0.44424 0.893 0.68021 0.0
C570 C 0.43496 0.90016 0.70173 0.0
H571 H 0.43489 0.96084 0.74421 0.0
H572 H 0.44999 0.94141 0.74001 0.0
H573 H 0.43484 0.94766 0.71285 0.0
H574 H 0.38269 0.89632 0.67559 0.0
H575 H 0.3988 0.88358 0.63778 0.0
H576 H 0.54791 0.43087 0.35577 0.0
H577 H 0.55178 0.45038 0.3139 0.0
H578 H 0.48548 0.39675 0.2891 0.0
H579 H 0.4816 0.37678 0.33081 0.0
H580 H 0.52162 0.39927 0.25852 0.0
H581 H 0.52458 0.48941 0.27206 0.0
H582 H 0.54394 0.48329 0.29424 0.0
H583 H 0.51253 0.46655 0.29629 0.0
C584 C 0.53375 0.42356 0.34177 0.0
C585 C 0.51463 0.40201 0.34654 0.0
C586 C 0.5359 0.4349 0.31785 0.0
C587 C 0.51884 0.42512 0.29842 0.0
C588 C 0.4988 0.40465 0.30388 0.0
H589 H 0.55205 0.44711 0.13231 0.0
H590 H 0.5273 0.43821 0.17123 0.0
C591 C 0.49668 0.39321 0.32774 0.0
C592 C 0.52424 0.43352 0.27131 0.0
H593 H 0.545 0.48335 0.23402 0.0
C594 C 0.52612 0.41752 0.25293 0.0
C595 C 0.53026 0.45736 0.26416 0.0
C596 C 0.52749 0.47507 0.2827 0.0
C597 C 0.53543 0.42499 0.22817 0.0
C598 C 0.54253 0.44908 0.22138 0.0
C599 C 0.5395 0.46489 0.23927 0.0
C600 C 0.55575 0.45844 0.19711 0.0
C601 C 0.53911 0.4073 0.2102 0.0
C602 C 0.57955 0.47397 0.19858 0.0
C603 C 0.59369 0.47931 0.17639 0.0
C604 C 0.58428 0.46907 0.15234 0.0
C605 C 0.55995 0.45498 0.1506 0.0
C606 C 0.54577 0.44985 0.17281 0.0
H607 H 0.53682 0.3906 0.22033 0.0
H608 H 0.52604 0.40292 0.19417 0.0
H609 H 0.55708 0.41475 0.20155 0.0
H610 H 0.58756 0.48084 0.21717 0.0
H611 H 0.61228 0.49039 0.17846 0.0
H612 H 0.07541 0.64273 0.64956 0.0
H613 H 0.06623 0.62598 0.69342 0.0
H614 H 0.12367 0.60248 0.68796 0.0
H615 H 0.13163 0.61754 0.6438 0.0
H616 H 0.08961 0.57064 0.71035 0.0
H617 H 0.09974 0.65523 0.75749 0.0
H618 H 0.07624 0.64497 0.73419 0.0
H619 H 0.1064 0.65355 0.72369 0.0
C620 C 0.08583 0.63373 0.65775 0.0
C621 C 0.10419 0.63138 0.64332 0.0
C622 C 0.08077 0.62441 0.6829 0.0
C623 C 0.09461 0.61344 0.69439 0.0
C624 C 0.11266 0.6108 0.67967 0.0
H625 H 0.13451 0.60303 0.84913 0.0
H626 H 0.12372 0.61537 0.80772 0.0
C627 C 0.11722 0.61942 0.65436 0.0
C628 C 0.09086 0.60477 0.7217 0.0
H629 H 0.09047 0.62214 0.78467 0.0
C630 C 0.08975 0.58191 0.72661 0.0
C631 C 0.09104 0.61947 0.74298 0.0
C632 C 0.09364 0.64473 0.73941 0.0
C633 C 0.09043 0.57386 0.75195 0.0
C634 C 0.09056 0.58851 0.77329 0.0
C635 C 0.09022 0.61085 0.7684 0.0
C636 C 0.09407 0.58225 0.80048 0.0
C637 C 0.09277 0.55047 0.75528 0.0
C638 C 0.0803 0.56001 0.81105 0.0
C639 C 0.08704 0.55266 0.83431 0.0
C640 C 0.10683 0.56795 0.84804 0.0
C641 C 0.11902 0.59104 0.83896 0.0
C642 C 0.11285 0.59806 0.81524 0.0
H643 H 0.09875 0.54475 0.73712 0.0
H644 H 0.10558 0.55142 0.77087 0.0
H645 H 0.07531 0.53666 0.76043 0.0
H646 H 0.06511 0.54784 0.80066 0.0
H647 H 0.07738 0.53477 0.84107 0.0
H648 H 0.51697 0.09503 0.02694 0.0
H649 H 0.4873 0.06204 0.00361 0.0
H650 H 0.44354 0.04373 0.07219 0.0
H651 H 0.47262 0.07707 0.09529 0.0
H652 H 0.47077 0.01636 0.01132 0.0
H653 H 0.39611 0.04459 0.01967 0.0
H654 H 0.42599 0.06378 0.028 0.0
H655 H 0.40777 0.04225 0.05097 0.0
C656 C 0.50101 0.08399 0.03704 0.0
C657 C 0.4971 0.08878 0.06293 0.0
C658 C 0.48403 0.06518 0.02366 0.0
C659 C 0.46289 0.05074 0.03593 0.0
C660 C 0.4593 0.05509 0.062 0.0
H661 H 0.37589 0.90817 0.99157 0.0
H662 H 0.40272 0.94446 0.01221 0.0
C663 C 0.47608 0.07405 0.07527 0.0
C664 C 0.44503 0.03052 0.02186 0.0
H665 H 0.38612 0.00404 0.00781 0.0
C666 C 0.45231 0.01381 0.01035 0.0
C667 C 0.42099 0.02739 0.02008 0.0
C668 C 0.41231 0.04561 0.03009 0.0
C669 C 0.43613 0.99369 0.99791 0.0
C670 C 0.41183 0.98972 0.99775 0.0
C671 C 0.40466 0.00685 0.00839 0.0
C672 C 0.39368 0.96775 0.9869 0.0
C673 C 0.44535 0.97705 0.98483 0.0
C674 C 0.37849 0.96871 0.96693 0.0
C675 C 0.36267 0.94787 0.95544 0.0
C676 C 0.36196 0.92581 0.96364 0.0
C677 C 0.37631 0.92493 0.98454 0.0
C678 C 0.39179 0.94567 0.99623 0.0
H679 H 0.46426 0.9862 0.9794 0.0
H680 H 0.44395 0.96259 0.99845 0.0
H681 H 0.43508 0.96913 0.96705 0.0
H682 H 0.37946 0.98558 0.95964 0.0
H683 H 0.35184 0.9491 0.93937 0.0
H684 H 0.40176 0.50302 0.5267 0.0
H685 H 0.41781 0.47752 0.50454 0.0
H686 H 0.3718 0.4178 0.54892 0.0
H687 H 0.35567 0.44312 0.5714 0.0
H688 H 0.41961 0.42451 0.55072 0.0
H689 H 0.38957 0.42576 0.44938 0.0
H690 H 0.4038 0.45462 0.46345 0.0
H691 H 0.37631 0.43432 0.47675 0.0
C692 C 0.39472 0.4844 0.53148 0.0
C693 C 0.37748 0.47519 0.55096 0.0
C694 C 0.40386 0.46982 0.51869 0.0
C695 C 0.39586 0.44577 0.52499 0.0
C696 C 0.37815 0.43633 0.54377 0.0
H697 H 0.44371 0.35068 0.43895 0.0
H698 H 0.4189 0.36656 0.46279 0.0
C699 C 0.36893 0.45086 0.55655 0.0
C700 C 0.40735 0.43097 0.51345 0.0
H701 H 0.42067 0.41216 0.45561 0.0
C702 C 0.41963 0.42155 0.52995 0.0
C703 C 0.40713 0.42698 0.48642 0.0
C704 C 0.39331 0.43575 0.46796 0.0
C705 C 0.43247 0.40895 0.51999 0.0
C706 C 0.43322 0.40598 0.49284 0.0
C707 C 0.4202 0.41463 0.47643 0.0
C708 C 0.44814 0.39484 0.48085 0.0
C709 C 0.44521 0.39903 0.53857 0.0
C710 C 0.4728 0.40532 0.48345 0.0
C711 C 0.48709 0.39631 0.46986 0.0
C712 C 0.47696 0.37675 0.45325 0.0
C713 C 0.45216 0.3658 0.45148 0.0
C714 C 0.43791 0.37485 0.46506 0.0
H715 H 0.4376 0.39696 0.55842 0.0
H716 H 0.44449 0.38163 0.53179 0.0
H717 H 0.46405 0.41134 0.53977 0.0
H718 H 0.48106 0.42102 0.49521 0.0
H719 H 0.50609 0.40524 0.47166 0.0
H720 H 0.09402 0.51833 0.97339 0.0
H721 H 0.06151 0.48858 0.99726 0.0
H722 H 0.0436 0.44376 0.9295 0.0
H723 H 0.07642 0.47292 0.90587 0.0
H724 H 0.01579 0.47182 0.98905 0.0
H725 H 0.04425 0.3972 0.98325 0.0
H726 H 0.06347 0.42695 0.9745 0.0
H727 H 0.04213 0.40833 0.9516 0.0
C728 C 0.08323 0.50208 0.96362 0.0
C729 C 0.08792 0.49796 0.93776 0.0
C730 C 0.06469 0.48506 0.97731 0.0
C731 C 0.05042 0.46366 0.96538 0.0
C732 C 0.05481 0.45974 0.93943 0.0
H733 H 0.90739 0.37728 0.0087 0.0
H734 H 0.9439 0.40345 0.98787 0.0
C735 C 0.07349 0.47657 0.92585 0.0
C736 C 0.03013 0.446 0.97954 0.0
H737 H 0.0035 0.38729 0.99441 0.0
C738 C 0.01326 0.45339 0.99044 0.0
C739 C 0.02699 0.422 0.98182 0.0
C740 C 0.04532 0.41321 0.97242 0.0
C741 C 0.99298 0.43737 0.00274 0.0
C742 C 0.98903 0.41309 0.00342 0.0
C743 C 0.0063 0.40581 0.99341 0.0
C744 C 0.96695 0.39511 0.01424 0.0
C745 C 0.97611 0.44671 0.0151 0.0
C746 C 0.96771 0.3805 0.0349 0.0
C747 C 0.94676 0.36509 0.04655 0.0
C748 C 0.92477 0.36419 0.03779 0.0
C749 C 0.92408 0.37784 0.01615 0.0
C750 C 0.94494 0.39295 0.00434 0.0
H751 H 0.98511 0.46573 0.02012 0.0
H752 H 0.96174 0.44493 0.00118 0.0
H753 H 0.96808 0.43676 0.03302 0.0
H754 H 0.98451 0.38169 0.04266 0.0
H755 H 0.94785 0.35479 0.0632 0.0
H756 H 0.60783 0.08192 0.48337 0.0
H757 H 0.58367 0.04554 0.5054 0.0
H758 H 0.62542 0.01041 0.47193 0.0
H759 H 0.64983 0.047 0.44926 0.0
H760 H 0.57602 0.98504 0.46698 0.0
H761 H 0.60041 0.01465 0.56832 0.0
H762 H 0.59151 0.03459 0.55 0.0
H763 H 0.61773 0.0302 0.5408 0.0
C764 C 0.61214 0.06659 0.48076 0.0
C765 C 0.63086 0.06746 0.46448 0.0
C766 C 0.59832 0.04579 0.49355 0.0
C767 C 0.60292 0.02537 0.49057 0.0
C768 C 0.62168 0.02607 0.47457 0.0
H769 H 0.52984 0.90237 0.58731 0.0
H770 H 0.55967 0.93493 0.56414 0.0
C771 C 0.63566 0.047 0.46174 0.0
C772 C 0.5873 0.00317 0.50341 0.0
H773 H 0.56473 0.98033 0.56252 0.0
C774 C 0.57374 0.98384 0.48789 0.0
C775 C 0.58451 0.0016 0.53069 0.0
C776 C 0.59948 0.02128 0.54845 0.0
C777 C 0.55681 0.96327 0.49891 0.0
C778 C 0.55312 0.96223 0.5261 0.0
C779 C 0.56732 0.98125 0.54164 0.0
C780 C 0.53478 0.94159 0.53899 0.0
C781 C 0.54313 0.94284 0.48137 0.0
C782 C 0.51076 0.93449 0.53263 0.0
C783 C 0.49352 0.9157 0.54583 0.0
C784 C 0.49999 0.90387 0.56587 0.0
C785 C 0.52411 0.91109 0.57211 0.0
C786 C 0.54126 0.92971 0.55883 0.0
H787 H 0.55255 0.94369 0.46274 0.0
H788 H 0.53995 0.92567 0.4909 0.0
H789 H 0.52576 0.94346 0.47679 0.0
H790 H 0.50528 0.94376 0.51779 0.0
H791 H 0.47513 0.91071 0.54061 0.0
H792 H 0.55085 0.64536 0.93871 0.0
H793 H 0.5753 0.62918 0.96289 0.0
H794 H 0.51262 0.5739 0.99313 0.0
H795 H 0.48797 0.59 0.96935 0.0
H796 H 0.54928 0.59305 0.02998 0.0
H797 H 0.58063 0.56781 0.93789 0.0
H798 H 0.58562 0.59849 0.94098 0.0
H799 H 0.55593 0.57666 0.93904 0.0
C800 C 0.54222 0.62992 0.95074 0.0
C801 C 0.51739 0.61879 0.95177 0.0
C802 C 0.55625 0.62066 0.96445 0.0
C803 C 0.54573 0.60009 0.97932 0.0
C804 C 0.52105 0.58973 0.9816 0.0
H805 H 0.58832 0.49037 0.02696 0.0
H806 H 0.57289 0.51682 0.00581 0.0
C807 C 0.50699 0.59897 0.96796 0.0
C808 C 0.56023 0.5885 0.99139 0.0
H809 H 0.59511 0.55854 0.97685 0.0
C810 C 0.55951 0.58569 0.01845 0.0
C811 C 0.57328 0.5787 0.97615 0.0
C812 C 0.57385 0.58034 0.94689 0.0
C813 C 0.57123 0.57299 0.0307 0.0
C814 C 0.58426 0.56317 0.01546 0.0
C815 C 0.58528 0.56631 0.98845 0.0
C816 C 0.59527 0.54792 0.02696 0.0
C817 C 0.56879 0.56935 0.05971 0.0
C818 C 0.6135 0.55684 0.04529 0.0
C819 C 0.62241 0.54176 0.05749 0.0
C820 C 0.61325 0.51748 0.0515 0.0
C821 C 0.59573 0.5089 0.0322 0.0
C822 C 0.58687 0.52399 0.02005 0.0
H823 H 0.55447 0.57407 0.0678 0.0
H824 H 0.56508 0.55068 0.06476 0.0
H825 H 0.58562 0.58066 0.06924 0.0
H826 H 0.62052 0.57538 0.05049 0.0
H827 H 0.63601 0.54903 0.0721 0.0
H828 H 0.91589 0.52272 0.40633 0.0
H829 H 0.94899 0.55148 0.42991 0.0
H830 H 0.93104 0.5063 0.49736 0.0
H831 H 0.89817 0.47688 0.47351 0.0
H832 H 0.95133 0.57656 0.47285 0.0
H833 H -0.00035 0.51805 0.48858 0.0
H834 H 0.97445 0.51012 0.46727 0.0
H835 H 0.97034 0.50671 0.50186 0.0
C836 C 0.91894 0.51879 0.42618 0.0
C837 C 0.90445 0.49734 0.43794 0.0
C838 C 0.93788 0.53533 0.43966 0.0
C839 C 0.94275 0.53095 0.46529 0.0
C840 C 0.928 0.50983 0.47739 0.0
H841 H 0.04584 0.64151 0.56201 0.0
H842 H 0.00888 0.61451 0.5422 0.0
C843 C 0.90914 0.49307 0.46376 0.0
C844 C 0.96347 0.54852 0.47897 0.0
H845 H 0.01575 0.55578 0.50801 0.0
C846 C 0.96542 0.57203 0.48058 0.0
C847 C 0.98197 0.54265 0.48879 0.0
C848 C 0.98168 0.51808 0.48636 0.0
C849 C 0.98548 0.58986 0.49141 0.0
C850 C 0.00381 0.58391 0.50154 0.0
C851 C 0.00166 0.56033 0.5003 0.0
C852 C 0.02594 0.60183 0.51248 0.0
C853 C 0.98717 0.615 0.49101 0.0
C854 C 0.04782 0.6037 0.50247 0.0
C855 C 0.06886 0.61876 0.514 0.0
C856 C 0.06853 0.63248 0.5357 0.0
C857 C 0.04666 0.63138 0.54511 0.0
C858 C 0.02552 0.61598 0.53376 0.0
H859 H 0.97504 0.61748 0.4764 0.0
H860 H 0.98214 0.61948 0.51035 0.0
H861 H 0.00546 0.62757 0.48664 0.0
H862 H 0.04863 0.59306 0.48601 0.0
H863 H 0.08543 0.61929 0.50622 0.0
H864 H 0.52198 0.18566 0.03748 0.0
H865 H 0.51656 0.22323 0.03459 0.0
H866 H 0.55607 0.24667 0.10565 0.0
H867 H 0.56126 0.20938 0.10856 0.0
H868 H 0.51531 0.25681 0.10323 0.0
H869 H 0.5705 0.28551 0.01398 0.0
H870 H 0.5453 0.25787 0.01259 0.0
H871 H 0.56983 0.26072 0.03318 0.0
C872 C 0.52921 0.19884 0.05253 0.0
C873 C 0.54148 0.19458 0.07359 0.0
C874 C 0.52621 0.22024 0.05084 0.0
C875 C 0.53601 0.23776 0.06987 0.0
C876 C 0.5482 0.23334 0.09088 0.0
H877 H 0.58634 0.37675 0.11533 0.0
H878 H 0.56761 0.33399 0.11067 0.0
C879 C 0.55109 0.21204 0.09259 0.0
C880 C 0.53498 0.26134 0.06766 0.0
H881 H 0.56004 0.31363 0.03512 0.0
C882 C 0.52458 0.26906 0.088 0.0
C883 C 0.54709 0.27734 0.04774 0.0
C884 C 0.55897 0.27013 0.02566 0.0
C885 C 0.52712 0.29266 0.08978 0.0
C886 C 0.54073 0.30903 0.07095 0.0
C887 C 0.54962 0.30099 0.04955 0.0
C888 C 0.54911 0.33483 0.07516 0.0
C889 C 0.51601 0.30005 0.1124 0.0
C890 C 0.54493 0.34956 0.05671 0.0
C891 C 0.55567 0.37416 0.05935 0.0
C892 C 0.57106 0.3843 0.08023 0.0
C893 C 0.57458 0.36946 0.09904 0.0
C894 C 0.56372 0.34499 0.09651 0.0
H895 H 0.50005 0.28509 0.11947 0.0
H896 H 0.52886 0.30579 0.12866 0.0
H897 H 0.511 0.31497 0.10709 0.0
H898 H 0.5339 0.34202 0.03994 0.0
H899 H 0.55275 0.38519 0.0445 0.0
H900 H 0.32036 0.54211 0.62006 0.0
H901 H 0.28463 0.54982 0.62293 0.0
H902 H 0.2756 0.54079 0.53987 0.0
H903 H 0.30967 0.52967 0.53781 0.0
H904 H 0.27978 0.58446 0.60697 0.0
H905 H 0.20889 0.511 0.55817 0.0
H906 H 0.23655 0.50924 0.56687 0.0
H907 H 0.23364 0.52286 0.53671 0.0
C908 C 0.30979 0.54014 0.60274 0.0
C909 C 0.31688 0.53383 0.57903 0.0
C910 C 0.28964 0.54515 0.60423 0.0
C911 C 0.27695 0.54555 0.58169 0.0
C912 C 0.2843 0.53964 0.55777 0.0
H913 H 0.20979 0.64439 0.56882 0.0
H914 H 0.23651 0.62374 0.57098 0.0
C915 C 0.30395 0.53356 0.55651 0.0
C916 C 0.25821 0.55516 0.58293 0.0
H917 H 0.20409 0.54833 0.55924 0.0
C918 C 0.26304 0.57617 0.59692 0.0
C919 C 0.23609 0.54437 0.57032 0.0
C920 C 0.22842 0.52048 0.55748 0.0
C921 C 0.24679 0.58692 0.59816 0.0
C922 C 0.22572 0.57744 0.5834 0.0
C923 C 0.22046 0.55601 0.57009 0.0
C924 C 0.20927 0.58976 0.58113 0.0
C925 C 0.25236 0.60805 0.6158 0.0
C926 C 0.1848 0.57734 0.58449 0.0
C927 C 0.1694 0.58897 0.58203 0.0
C928 C 0.1783 0.61329 0.57685 0.0
C929 C 0.20265 0.62571 0.57341 0.0
C930 C 0.21792 0.61393 0.57488 0.0
H931 H 0.26327 0.60704 0.6326 0.0
H932 H 0.2628 0.62438 0.60491 0.0
H933 H 0.23608 0.60947 0.62338 0.0
H934 H 0.1776 0.55868 0.58914 0.0
H935 H 0.1506 0.57907 0.58461 0.0
H936 H 0.81143 0.28641 0.09442 0.0
H937 H 0.77536 0.25128 0.0894 0.0
H938 H 0.78535 0.25429 0.00637 0.0
H939 H 0.82222 0.28954 0.01155 0.0
H940 H 0.74304 0.25547 0.02143 0.0
H941 H 0.75448 0.18155 0.07238 0.0
H942 H 0.7663 0.20856 0.09057 0.0
H943 H 0.77901 0.20662 0.05959 0.0
C944 C 0.80669 0.27885 0.07521 0.0
C945 C 0.82008 0.29015 0.05345 0.0
C946 C 0.78595 0.25876 0.07233 0.0
C947 C 0.77784 0.24978 0.04755 0.0
C948 C 0.7915 0.26067 0.02571 0.0
H949 H 0.63052 0.14218 0.04385 0.0
H950 H 0.67284 0.16073 0.03302 0.0
C951 C 0.8125 0.28075 0.02866 0.0
C952 C 0.75332 0.23194 0.04468 0.0
H953 H 0.71457 0.18036 0.07108 0.0
C954 C 0.73692 0.23872 0.03164 0.0
C955 C 0.74528 0.21001 0.05785 0.0
C956 C 0.76224 0.20111 0.07068 0.0
C957 C 0.71258 0.22512 0.03329 0.0
C958 C 0.70446 0.20433 0.04849 0.0
C959 C 0.72087 0.19649 0.05972 0.0
C960 C 0.67918 0.19236 0.05543 0.0
C961 C 0.69562 0.23368 0.01986 0.0
C962 C 0.66899 0.20383 0.07198 0.0
C963 C 0.64506 0.19331 0.07831 0.0
C964 C 0.63076 0.17108 0.06815 0.0
C965 C 0.64109 0.15935 0.05192 0.0
C966 C 0.6652 0.16988 0.04572 0.0
H967 H 0.70435 0.24618 0.00386 0.0
H968 H 0.68028 0.21862 0.01185 0.0
H969 H 0.68885 0.24303 0.03414 0.0
H970 H 0.67958 0.22108 0.07988 0.0
H971 H 0.63773 0.20283 0.09089 0.0
H972 H 0.43756 0.78744 0.61883 0.0
H973 H 0.44158 0.74957 0.61611 0.0
H974 H 0.47318 0.76823 0.54026 0.0
H975 H 0.46972 0.80667 0.54335 0.0
H976 H 0.43368 0.72518 0.54215 0.0
H977 H 0.497 0.72815 0.61977 0.0
H978 H 0.47521 0.739 0.63002 0.0
H979 H 0.49602 0.75434 0.6049 0.0
C980 C 0.44636 0.78391 0.60212 0.0
C981 C 0.45418 0.80027 0.58174 0.0
C982 C 0.44854 0.76221 0.60049 0.0
C983 C 0.45813 0.75626 0.5782 0.0
C984 C 0.46609 0.77264 0.5578 0.0
H985 H 0.43565 0.60724 0.54731 0.0
H986 H 0.45363 0.65046 0.54298 0.0
C987 C 0.46411 0.79451 0.55957 0.0
C988 C 0.45687 0.73183 0.57516 0.0
H989 H 0.46952 0.68954 0.60704 0.0
C990 C 0.442 0.71747 0.55587 0.0
C991 C 0.46781 0.72184 0.593 0.0
C992 C 0.48511 0.73669 0.61297 0.0
C993 C 0.43637 0.69304 0.55525 0.0
C994 C 0.44603 0.68287 0.57431 0.0
C995 C 0.46206 0.69743 0.59255 0.0
C996 C 0.43733 0.65699 0.5777 0.0
C997 C 0.41891 0.67802 0.53538 0.0
C998 C 0.42284 0.64654 0.59901 0.0
C999 C 0.41256 0.62203 0.6015 0.0
C1000 C 0.41674 0.60749 0.58279 0.0
C1001 C 0.43213 0.61801 0.56202 0.0
C1002 C 0.44231 0.64264 0.55945 0.0
H1003 H 0.41142 0.68843 0.5234 0.0
H1004 H 0.4278 0.66977 0.52226 0.0
H1005 H 0.40419 0.66357 0.54517 0.0
H1006 H 0.41885 0.65737 0.61331 0.0
H1007 H 0.40087 0.61447 0.61777 0.0
H1008 H 0.68182 0.46829 0.03436 0.0
H1009 H 0.71762 0.45947 0.03428 0.0
H1010 H 0.70293 0.43416 0.11309 0.0
H1011 H 0.66728 0.44258 0.11304 0.0
H1012 H 0.75281 0.46373 0.10125 0.0
H1013 H 0.70939 0.38825 0.03373 0.0
H1014 H 0.71042 0.41671 0.02391 0.0
H1015 H 0.6929 0.40208 0.05142 0.0
C1016 C 0.68661 0.46126 0.05173 0.0
C1017 C 0.67234 0.45672 0.07396 0.0
C1018 C 0.70693 0.45622 0.05168 0.0
C1019 C 0.71285 0.44622 0.07372 0.0
C1020 C 0.69878 0.44211 0.09602 0.0
H1021 H 0.78805 0.35682 0.09856 0.0
H1022 H 0.76045 0.37668 0.098 0.0
C1023 C 0.67853 0.44704 0.09602 0.0
C1024 C 0.73236 0.43794 0.07313 0.0
H1025 H 0.74696 0.3936 0.04952 0.0
C1026 C 0.75176 0.44861 0.08971 0.0
C1027 C 0.7306 0.41794 0.05836 0.0
C1028 C 0.70968 0.40538 0.04093 0.0
C1029 C 0.76943 0.43961 0.09207 0.0
C1030 C 0.76752 0.41949 0.07747 0.0
C1031 C 0.74829 0.40904 0.06066 0.0
C1032 C 0.78494 0.40853 0.07975 0.0
C1033 C 0.78959 0.45113 0.11073 0.0
C1034 C 0.80784 0.42001 0.06985 0.0
C1035 C 0.82359 0.40869 0.07003 0.0
C1036 C 0.81667 0.38571 0.08015 0.0
C1037 C 0.79391 0.37453 0.09071 0.0
C1038 C 0.77813 0.38582 0.09036 0.0
H1039 H 0.7865 0.46415 0.12356 0.0
H1040 H 0.79235 0.43757 0.12298 0.0
H1041 H 0.80608 0.46045 0.09958 0.0
H1042 H 0.81329 0.43744 0.06132 0.0
H1043 H 0.84101 0.41776 0.06175 0.0
H1044 H 0.17261 0.70916 0.50698 0.0
H1045 H 0.21048 0.7435 0.50275 0.0
H1046 H 0.2204 0.74336 0.58566 0.0
H1047 H 0.18328 0.70925 0.58977 0.0
H1048 H 0.23644 0.78965 0.56368 0.0
H1049 H 0.27048 0.72951 0.5124 0.0
H1050 H 0.24542 0.73338 0.49848 0.0
H1051 H 0.24246 0.7185 0.52907 0.0
C1052 C 0.18264 0.71699 0.52427 0.0
C1053 C 0.17475 0.70699 0.54877 0.0
C1054 C 0.20425 0.73649 0.52187 0.0
C1055 C 0.21831 0.74589 0.54391 0.0
C1056 C 0.20978 0.73658 0.56843 0.0
H1057 H 0.35631 0.79464 0.59569 0.0
H1058 H 0.31461 0.77691 0.58383 0.0
C1059 C 0.18841 0.71716 0.57079 0.0
C1060 C 0.24316 0.76312 0.54178 0.0
H1061 H 0.29825 0.76573 0.52682 0.0
C1062 C 0.24996 0.78477 0.55499 0.0
C1063 C 0.26077 0.75652 0.53074 0.0
C1064 C 0.2546 0.73319 0.51697 0.0
C1065 C 0.27394 0.7994 0.55856 0.0
C1066 C 0.29145 0.79215 0.54868 0.0
C1067 C 0.28468 0.77121 0.53425 0.0
C1068 C 0.31661 0.80409 0.55622 0.0
C1069 C 0.28052 0.82173 0.5743 0.0
C1070 C 0.33153 0.82537 0.54466 0.0
C1071 C 0.35556 0.8356 0.55136 0.0
C1072 C 0.36493 0.82467 0.56973 0.0
C1073 C 0.34973 0.80355 0.58148 0.0
C1074 C 0.32587 0.79335 0.57472 0.0
H1075 H 0.26477 0.82486 0.5808 0.0
H1076 H 0.29083 0.82073 0.59164 0.0
H1077 H 0.29194 0.83707 0.56253 0.0
H1078 H 0.32467 0.83383 0.53022 0.0
H1079 H 0.36682 0.85187 0.54196 0.0
H1080 H 0.78934 0.43529 0.37905 0.0
H1081 H 0.75124 0.439 0.3788 0.0
H1082 H 0.76665 0.47258 0.45395 0.0
H1083 H 0.80521 0.46924 0.45394 0.0
H1084 H 0.7243 0.43314 0.45184 0.0
H1085 H 0.72862 0.49292 0.36977 0.0
H1086 H 0.74064 0.47132 0.3624 0.0
H1087 H 0.75445 0.49339 0.38687 0.0
C1088 C 0.78505 0.44443 0.39495 0.0
C1089 C 0.8005 0.45277 0.41608 0.0
C1090 C 0.76322 0.44646 0.39486 0.0
C1091 C 0.75626 0.4565 0.41613 0.0
C1092 C 0.77182 0.46511 0.43717 0.0
H1093 H 0.60827 0.43765 0.44481 0.0
H1094 H 0.65157 0.45499 0.44773 0.0
C1095 C 0.79378 0.4632 0.43717 0.0
C1096 C 0.73161 0.45498 0.41764 0.0
H1097 H 0.68996 0.46664 0.38316 0.0
C1098 C 0.71687 0.44092 0.4372 0.0
C1099 C 0.72197 0.46516 0.39858 0.0
C1100 C 0.73726 0.48174 0.37831 0.0
C1101 C 0.69248 0.43553 0.43717 0.0
C1102 C 0.68267 0.44461 0.41717 0.0
C1103 C 0.69755 0.45962 0.39838 0.0
C1104 C 0.6568 0.43666 0.41399 0.0
C1105 C 0.67713 0.41906 0.45762 0.0
C1106 C 0.64557 0.42132 0.39355 0.0
C1107 C 0.62096 0.41138 0.39186 0.0
C1108 C 0.60713 0.41678 0.41049 0.0
C1109 C 0.61846 0.43317 0.43017 0.0
C1110 C 0.64315 0.443 0.43195 0.0
H1111 H 0.68715 0.41139 0.46996 0.0
H1112 H 0.66956 0.42888 0.47034 0.0
H1113 H 0.66219 0.40443 0.44837 0.0
H1114 H 0.65585 0.41628 0.37948 0.0
H1115 H 0.61277 0.39889 0.37641 0.0
H1116 H 0.28096 0.8124 0.91094 0.0
H1117 H 0.24641 0.77617 0.91764 0.0
H1118 H 0.25472 0.78563 0.00058 0.0
H1119 H 0.28936 0.82277 0.99373 0.0
H1120 H 0.25521 0.7435 0.9833 0.0
H1121 H 0.17788 0.75475 0.94042 0.0
H1122 H 0.20359 0.76702 0.9202 0.0
H1123 H 0.20363 0.77929 0.95196 0.0
C1124 C 0.27467 0.80753 0.93059 0.0
C1125 C 0.28727 0.82088 0.9518 0.0
C1126 C 0.25492 0.78668 0.93443 0.0
C1127 C 0.24759 0.77838 0.95961 0.0
C1128 C 0.2598 0.79195 0.98097 0.0
H1129 H 0.14126 0.63054 0.96235 0.0
H1130 H 0.15999 0.6724 0.97501 0.0
C1131 C 0.27953 0.81309 0.97708 0.0
C1132 C 0.2301 0.75378 0.96298 0.0
H1133 H 0.17732 0.71502 0.93909 0.0
C1134 C 0.23787 0.73736 0.97434 0.0
C1135 C 0.2074 0.74571 0.95147 0.0
C1136 C 0.19752 0.76266 0.94055 0.0
C1137 C 0.22446 0.713 0.97242 0.0
C1138 C 0.20285 0.7049 0.95866 0.0
C1139 C 0.19407 0.7213 0.94932 0.0
C1140 C 0.1909 0.6798 0.95098 0.0
C1141 C 0.23408 0.69603 0.98394 0.0
C1142 C 0.20191 0.67037 0.93296 0.0
C1143 C 0.19127 0.64672 0.92558 0.0
C1144 C 0.16938 0.63193 0.93613 0.0
C1145 C 0.15816 0.64149 0.95394 0.0
C1146 C 0.1688 0.66534 0.96119 0.0
H1147 H 0.24716 0.70451 -0.00048 0.0
H1148 H 0.21962 0.68021 0.99203 0.0
H1149 H 0.24306 0.69007 0.96849 0.0
H1150 H 0.21884 0.68135 0.92462 0.0
H1151 H 0.2004 0.63997 0.9118 0.0
H1152 H 0.57656 0.14868 0.41218 0.0
H1153 H 0.55696 0.17648 0.40888 0.0
H1154 H 0.62382 0.23448 0.42281 0.0
H1155 H 0.64354 0.20698 0.42383 0.0
H1156 H 0.54948 0.20412 0.44018 0.0
H1157 H 0.6043 0.26093 0.36274 0.0
H1158 H 0.60648 0.23351 0.37145 0.0
H1159 H 0.6232 0.26038 0.3889 0.0
C1160 C 0.58702 0.16745 0.41399 0.0
C1161 C 0.61154 0.17585 0.41773 0.0
C1162 C 0.57584 0.1833 0.41226 0.0
C1163 C 0.58897 0.20772 0.4149 0.0
C1164 C 0.61341 0.21591 0.41951 0.0
H1165 H 0.53465 0.31168 0.46341 0.0
H1166 H 0.54561 0.27748 0.46078 0.0
C1167 C 0.62467 0.20018 0.42029 0.0
C1168 C 0.57717 0.22466 0.41381 0.0
H1169 H 0.58431 0.27879 0.39047 0.0
C1170 C 0.55683 0.22026 0.42891 0.0
C1171 C 0.58625 0.24546 0.3986 0.0
C1172 C 0.60607 0.25014 0.3793 0.0
C1173 C 0.54591 0.23648 0.42995 0.0
C1174 C 0.55641 0.2583 0.41671 0.0
C1175 C 0.57631 0.26229 0.40101 0.0
C1176 C 0.54743 0.27744 0.41868 0.0
C1177 C 0.52306 0.22976 0.44482 0.0
C1178 C 0.5456 0.28943 0.39614 0.0
C1179 C 0.54065 0.30958 0.39784 0.0
C1180 C 0.53589 0.3174 0.42191 0.0
C1181 C 0.53733 0.30537 0.44453 0.0
C1182 C 0.5433 0.28565 0.44296 0.0
H1183 H 0.51313 0.21029 0.44501 0.0
H1184 H 0.52704 0.23561 0.46528 0.0
H1185 H 0.51152 0.23802 0.43638 0.0
H1186 H 0.54889 0.28375 0.37716 0.0
H1187 H 0.5412 0.31945 0.38027 0.0
H1188 H 0.20381 0.5647 0.88292 0.0
H1189 H 0.24309 0.56383 0.88174 0.0
H1190 H 0.2294 0.52642 0.95473 0.0
H1191 H 0.18938 0.52652 0.9554 0.0
H1192 H 0.27529 0.58598 0.92141 0.0
H1193 H 0.26262 0.49178 0.91041 0.0
H1194 H 0.23944 0.50204 0.90353 0.0
H1195 H 0.24686 0.49864 0.93649 0.0
C1196 C 0.20882 0.55545 0.89818 0.0
C1197 C 0.19338 0.54495 0.91879 0.0
C1198 C 0.23133 0.55515 0.89762 0.0
C1199 C 0.23906 0.54481 0.91798 0.0
C1200 C 0.22357 0.53401 0.93854 0.0
H1201 H 0.38568 0.56122 0.94454 0.0
H1202 H 0.34247 0.54664 0.94787 0.0
C1203 C 0.20085 0.5342 0.939 0.0
C1204 C 0.26425 0.54824 0.91891 0.0
H1205 H 0.30207 0.51991 0.9142 0.0
C1206 C 0.28112 0.57151 0.91991 0.0
C1207 C 0.27178 0.5293 0.91749 0.0
C1208 C 0.2543 0.50399 0.91676 0.0
C1209 C 0.30532 0.57647 0.91871 0.0
C1210 C 0.31288 0.55766 0.91583 0.0
C1211 C 0.29612 0.53427 0.916 0.0
C1212 C 0.33815 0.56245 0.91175 0.0
C1213 C 0.3226 0.60189 0.92042 0.0
C1214 C 0.34979 0.57518 0.88978 0.0
C1215 C 0.37434 0.58367 0.88794 0.0
C1216 C 0.38767 0.5793 0.9079 0.0
C1217 C 0.37584 0.56487 0.92888 0.0
C1218 C 0.35119 0.55654 0.93082 0.0
H1219 H 0.31451 0.61327 0.9296 0.0
H1220 H 0.33853 0.60347 0.93172 0.0
H1221 H 0.32831 0.60874 0.90055 0.0
H1222 H 0.33995 0.57958 0.87465 0.0
H1223 H 0.38294 0.59451 0.8714 0.0
H1224 H 0.70588 0.17075 0.49231 0.0
H1225 H 0.74067 0.20818 0.49713 0.0
H1226 H 0.74029 0.21981 0.4145 0.0
H1227 H 0.70621 0.18275 0.40975 0.0
H1228 H 0.78511 0.23424 0.43288 0.0
H1229 H 0.73171 0.26984 0.49389 0.0
H1230 H 0.73573 0.24437 0.50624 0.0
H1231 H 0.71861 0.24191 0.47728 0.0
C1232 C 0.71369 0.18115 0.47523 0.0
C1233 C 0.70375 0.17372 0.45062 0.0
C1234 C 0.7334 0.20255 0.47798 0.0
C1235 C 0.7429 0.217 0.45621 0.0
C1236 C 0.73342 0.20898 0.43158 0.0
H1237 H 0.80349 0.35264 0.39805 0.0
H1238 H 0.78594 0.31062 0.40887 0.0
C1239 C 0.71397 0.18771 0.42885 0.0
C1240 C 0.7611 0.24142 0.45862 0.0
H1241 H 0.76808 0.29674 0.47872 0.0
C1242 C 0.78164 0.24783 0.44339 0.0
C1243 C 0.75653 0.25922 0.47224 0.0
C1244 C 0.73441 0.25366 0.48821 0.0
C1245 C 0.79691 0.27161 0.44019 0.0
C1246 C 0.79158 0.28937 0.45263 0.0
C1247 C 0.77205 0.28296 0.46929 0.0
C1248 C 0.80396 0.3146 0.44572 0.0
C1249 C 0.81801 0.27778 0.4225 0.0
C1250 C 0.81995 0.3307 0.4629 0.0
C1251 C 0.83024 0.3548 0.45664 0.0
C1252 C 0.82428 0.36312 0.43335 0.0
C1253 C 0.80838 0.34682 0.41617 0.0
C1254 C 0.79842 0.3228 0.42226 0.0
H1255 H 0.82233 0.2622 0.41834 0.0
H1256 H 0.81414 0.28456 0.40383 0.0
H1257 H 0.83369 0.29193 0.43127 0.0
H1258 H 0.82427 0.32467 0.48119 0.0
H1259 H 0.84237 0.36696 0.47029 0.0
H1260 H 0.45404 0.6763 0.877 0.0
H1261 H 0.44568 0.71165 0.87363 0.0
H1262 H 0.44849 0.71806 0.95723 0.0
H1263 H 0.46002 0.68427 0.96015 0.0
H1264 H 0.4097 0.71592 0.88676 0.0
H1265 H 0.47986 0.78533 0.94139 0.0
H1266 H 0.48214 0.75791 0.93275 0.0
H1267 H 0.4665 0.75995 0.96171 0.0
C1268 C 0.45439 0.68617 0.8945 0.0
C1269 C 0.4591 0.67846 0.91867 0.0
C1270 C 0.44904 0.70611 0.89265 0.0
C1271 C 0.44683 0.718 0.91513 0.0
C1272 C 0.45106 0.70997 0.93947 0.0
H1273 H 0.34813 0.78574 0.9213 0.0
H1274 H 0.36845 0.75876 0.91937 0.0
C1275 C 0.45737 0.69049 0.9412 0.0
C1276 C 0.43735 0.73679 0.91307 0.0
H1277 H 0.4429 0.79044 0.93697 0.0
C1278 C 0.41734 0.7324 0.8974 0.0
C1279 C 0.44737 0.75859 0.92643 0.0
C1280 C 0.47031 0.76581 0.94123 0.0
C1281 C 0.40679 0.74877 0.89522 0.0
C1282 C 0.4154 0.76952 0.91056 0.0
C1283 C 0.43588 0.77434 0.92559 0.0
C1284 C 0.40309 0.78605 0.91183 0.0
C1285 C 0.38683 0.74368 0.87601 0.0
C1286 C 0.41585 0.81057 0.90959 0.0
C1287 C 0.40433 0.82609 0.91184 0.0
C1288 C 0.3798 0.81729 0.9157 0.0
C1289 C 0.367 0.79286 0.91771 0.0
C1290 C 0.37861 0.77743 0.9164 0.0
H1291 H 0.38886 0.73314 0.85936 0.0
H1292 H 0.36983 0.73305 0.88565 0.0
H1293 H 0.38593 0.76016 0.8683 0.0
H1294 H 0.43474 0.81774 0.90621 0.0
H1295 H 0.41455 0.84493 0.9104 0.0
loop_
_geom_bond_atom_site_label_1
_geom_bond_atom_site_label_2
_geom_bond_distance
_geom_bond_site_symmetry_2
_ccdc_geom_bond_type
Mn0 O5 2.095 . S
Mn0 O15 2.162 . S
Mn0 O16 2.297 . S
Mn0 O24 2.385 . S
Mn0 O25 2.209 . S
Mn0 O26 2.094 . S
Mn1 O6 2.121 . S
Mn1 N8 2.257 . S
Mn1 N17 2.282 . S
Mn1 O25 2.215 . S
Mn1 O27 2.117 . S
C2 O24 1.234 . S
C2 O25 1.283 . S
C3 O15 1.281 . S
C3 O16 1.236 . S
C4 O26 1.240 . S
C4 O27 1.264 . S
O5 Mn0 2.095 . S
O5 C14 1.250 . S
O6 Mn1 2.121 . S
O6 C14 1.258 . S
C7 N8 1.326 . S
C7 C11 1.460 . S
C7 H13 0.929 . S
N8 Mn1 2.257 . S
N8 C7 1.326 . S
N8 C12 1.362 . S
C9 C10 1.258 . S
C9 C12 1.431 . S
C9 C29 1.449 . S
C10 C9 1.258 . S
C10 C11 1.477 . S
C10 H30 0.931 . S
C11 C7 1.460 . S
C11 C10 1.477 . S
C11 H31 0.930 . S
C12 N8 1.362 . S
C12 C9 1.431 . S
C12 C22 1.476 . S
H13 C7 0.929 . S
C14 O5 1.250 . S
C14 O6 1.258 . S
O15 Mn0 2.162 . S
O15 C3 1.281 . S
O16 Mn0 2.297 . S
O16 C3 1.236 . S
N17 Mn1 2.282 . S
N17 C18 1.328 . S
N17 C22 1.318 . S
C18 N17 1.328 . S
C18 C19 1.457 . S
C18 H23 0.929 . S
C19 C18 1.457 . S
C19 C20 1.291 . S
C19 H32 0.931 1_554 S
C20 C19 1.291 . S
C20 C21 1.373 . S
C20 H33 0.929 . S
C21 C20 1.373 . S
C21 C22 1.396 . S
C21 C28 1.403 . S
C22 C12 1.476 . S
C22 N17 1.318 . S
C22 C21 1.396 . S
H23 C18 0.929 . S
O24 Mn0 2.385 . S
O24 C2 1.234 . S
O25 Mn0 2.209 . S
O25 Mn1 2.215 . S
O25 C2 1.283 . S
O26 Mn0 2.094 . S
O26 C4 1.240 . S
O27 Mn1 2.117 . S
O27 C4 1.264 . S
C28 C21 1.403 . S
C28 C29 1.399 . S
C28 H34 0.929 . S
C29 C9 1.449 . S
C29 C28 1.399 . S
C29 H35 0.930 . S
H30 C10 0.931 . S
H31 C11 0.930 . S
H32 C19 0.931 1_556 S
H33 C20 0.929 . S
H34 C28 0.929 . S
H35 C29 0.930 . S
Mn36 O41 2.095 . S
Mn36 O51 2.162 . S
Mn36 O52 2.297 . S
Mn36 O60 2.385 . S
Mn36 O61 2.209 . S
Mn36 O62 2.094 . S
Mn37 O42 2.121 . S
Mn37 N44 2.257 . S
Mn37 N53 2.282 . S
Mn37 O61 2.215 . S
Mn37 O63 2.117 . S
C38 O60 1.234 . S
C38 O61 1.283 . S
C39 O51 1.281 . S
C39 O52 1.236 . S
C40 O62 1.240 . S
C40 O63 1.264 . S
O41 Mn36 2.095 . S
O41 C50 1.250 . S
O42 Mn37 2.121 . S
O42 C50 1.258 . S
C43 N44 1.326 . S
C43 C47 1.460 . S
C43 H49 0.929 . S
N44 Mn37 2.257 . S
N44 C43 1.326 . S
N44 C48 1.362 . S
C45 C46 1.258 . S
C45 C48 1.431 . S
C45 C65 1.449 . S
C46 C45 1.258 . S
C46 C47 1.477 . S
C46 H66 0.931 . S
C47 C43 1.460 . S
C47 C46 1.477 . S
C47 H67 0.930 . S
C48 N44 1.362 . S
C48 C45 1.431 . S
C48 C58 1.476 . S
H49 C43 0.929 . S
C50 O41 1.250 . S
C50 O42 1.258 . S
O51 Mn36 2.162 . S
O51 C39 1.281 . S
O52 Mn36 2.297 . S
O52 C39 1.236 . S
N53 Mn37 2.282 . S
N53 C54 1.328 . S
N53 C58 1.318 . S
C54 N53 1.328 . S
C54 C55 1.457 . S
C54 H59 0.929 . S
C55 C54 1.457 . S
C55 C56 1.291 . S
C55 H68 0.931 . S
C56 C55 1.291 . S
C56 C57 1.373 . S
C56 H69 0.929 . S
C57 C56 1.373 . S
C57 C58 1.396 . S
C57 C64 1.403 . S
C58 C48 1.476 . S
C58 N53 1.318 . S
C58 C57 1.396 . S
H59 C54 0.929 . S
O60 Mn36 2.385 . S
O60 C38 1.234 . S
O61 Mn36 2.209 . S
O61 Mn37 2.215 . S
O61 C38 1.283 . S
O62 Mn36 2.094 . S
O62 C40 1.240 . S
O63 Mn37 2.117 . S
O63 C40 1.264 . S
C64 C57 1.403 . S
C64 C65 1.399 . S
C64 H70 0.929 . S
C65 C45 1.449 . S
C65 C64 1.399 . S
C65 H71 0.930 . S
H66 C46 0.931 . S
H67 C47 0.930 . S
H68 C55 0.931 . S
H69 C56 0.929 . S
H70 C64 0.929 . S
H71 C65 0.930 . S
Mn72 O77 2.095 . S
Mn72 O87 2.162 . S
Mn72 O88 2.297 . S
Mn72 O96 2.385 . S
Mn72 O97 2.209 . S
Mn72 O98 2.094 . S
Mn73 O78 2.121 . S
Mn73 N80 2.257 . S
Mn73 N89 2.282 . S
Mn73 O97 2.215 . S
Mn73 O99 2.117 . S
C74 O96 1.234 . S
C74 O97 1.283 . S
C75 O87 1.281 . S
C75 O88 1.236 . S
C76 O98 1.240 . S
C76 O99 1.264 . S
O77 Mn72 2.095 . S
O77 C86 1.250 . S
O78 Mn73 2.121 . S
O78 C86 1.258 . S
C79 N80 1.326 . S
C79 C83 1.460 . S
C79 H85 0.929 . S
N80 Mn73 2.257 . S
N80 C79 1.326 . S
N80 C84 1.362 . S
C81 C82 1.258 . S
C81 C84 1.431 . S
C81 C101 1.449 . S
C82 C81 1.258 . S
C82 C83 1.477 . S
C82 H102 0.931 . S
C83 C79 1.460 . S
C83 C82 1.477 . S
C83 H103 0.930 . S
C84 N80 1.362 . S
C84 C81 1.431 . S
C84 C94 1.476 . S
H85 C79 0.929 . S
C86 O77 1.250 . S
C86 O78 1.258 . S
O87 Mn72 2.162 . S
O87 C75 1.281 . S
O88 Mn72 2.297 . S
O88 C75 1.236 . S
N89 Mn73 2.282 . S
N89 C90 1.328 . S
N89 C94 1.318 . S
C90 N89 1.328 . S
C90 C91 1.457 1_554 S
C90 H95 0.929 . S
C91 C90 1.457 1_556 S
C91 C92 1.291 1_556 S
C91 H104 0.931 . S
C92 C91 1.291 1_554 S
C92 C93 1.373 . S
C92 H105 0.929 1_554 S
C93 C92 1.373 . S
C93 C94 1.396 . S
C93 C100 1.403 . S
C94 C84 1.476 . S
C94 N89 1.318 . S
C94 C93 1.396 . S
H95 C90 0.929 . S
O96 Mn72 2.385 . S
O96 C74 1.234 . S
O97 Mn72 2.209 . S
O97 Mn73 2.215 . S
O97 C74 1.283 . S
O98 Mn72 2.094 . S
O98 C76 1.240 . S
O99 Mn73 2.117 . S
O99 C76 1.264 . S
C100 C93 1.403 . S
C100 C101 1.399 . S
C100 H106 0.929 . S
C101 C81 1.449 . S
C101 C100 1.399 . S
C101 H107 0.930 . S
H102 C82 0.931 . S
H103 C83 0.930 . S
H104 C91 0.931 . S
H105 C92 0.929 1_556 S
H106 C100 0.929 . S
H107 C101 0.930 . S
Mn108 O113 2.095 . S
Mn108 O123 2.162 . S
Mn108 O124 2.297 . S
Mn108 O132 2.385 . S
Mn108 O133 2.209 . S
Mn108 O134 2.094 . S
Mn109 O114 2.121 . S
Mn109 N116 2.257 . S
Mn109 N125 2.282 . S
Mn109 O133 2.215 . S
Mn109 O135 2.117 . S
C110 O132 1.234 . S
C110 O133 1.283 . S
C111 O123 1.281 . S
C111 O124 1.236 . S
C112 O134 1.240 . S
C112 O135 1.264 . S
O113 Mn108 2.095 . S
O113 C122 1.250 . S
O114 Mn109 2.121 . S
O114 C122 1.258 . S
C115 N116 1.326 . S
C115 C119 1.460 . S
C115 H121 0.929 . S
N116 Mn109 2.257 . S
N116 C115 1.326 . S
N116 C120 1.362 . S
C117 C118 1.258 . S
C117 C120 1.431 . S
C117 C137 1.449 . S
C118 C117 1.258 . S
C118 C119 1.477 . S
C118 H138 0.931 . S
C119 C115 1.460 . S
C119 C118 1.477 . S
C119 H139 0.930 . S
C120 N116 1.362 . S
C120 C117 1.431 . S
C120 C130 1.476 . S
H121 C115 0.929 . S
C122 O113 1.250 . S
C122 O114 1.258 . S
O123 Mn108 2.162 . S
O123 C111 1.281 . S
O124 Mn108 2.297 . S
O124 C111 1.236 . S
N125 Mn109 2.282 . S
N125 C126 1.328 . S
N125 C130 1.318 . S
C126 N125 1.328 . S
C126 C127 1.457 . S
C126 H131 0.929 . S
C127 C126 1.457 . S
C127 C128 1.291 . S
C127 H140 0.931 . S
C128 C127 1.291 . S
C128 C129 1.373 . S
C128 H141 0.929 . S
C129 C128 1.373 . S
C129 C130 1.396 . S
C129 C136 1.403 . S
C130 C120 1.476 . S
C130 N125 1.318 . S
C130 C129 1.396 . S
H131 C126 0.929 . S
O132 Mn108 2.385 . S
O132 C110 1.234 . S
O133 Mn108 2.209 . S
O133 Mn109 2.215 . S
O133 C110 1.283 . S
O134 Mn108 2.094 . S
O134 C112 1.240 . S
O135 Mn109 2.117 . S
O135 C112 1.264 . S
C136 C129 1.403 . S
C136 C137 1.399 . S
C136 H142 0.929 . S
C137 C117 1.449 . S
C137 C136 1.399 . S
C137 H143 0.930 . S
H138 C118 0.931 . S
H139 C119 0.930 . S
H140 C127 0.931 . S
H141 C128 0.929 . S
H142 C136 0.929 . S
H143 C137 0.930 . S
Mn144 O149 2.095 . S
Mn144 O159 2.162 . S
Mn144 O160 2.297 . S
Mn144 O168 2.385 . S
Mn144 O169 2.209 . S
Mn144 O170 2.094 . S
Mn145 O150 2.121 . S
Mn145 N152 2.257 . S
Mn145 N161 2.282 . S
Mn145 O169 2.215 . S
Mn145 O171 2.117 . S
C146 O168 1.234 . S
C146 O169 1.283 . S
C147 O159 1.281 . S
C147 O160 1.236 . S
C148 O170 1.240 . S
C148 O171 1.264 . S
O149 Mn144 2.095 . S
O149 C158 1.250 . S
O150 Mn145 2.121 . S
O150 C158 1.258 . S
C151 N152 1.326 . S
C151 C155 1.460 . S
C151 H157 0.929 . S
N152 Mn145 2.257 . S
N152 C151 1.326 . S
N152 C156 1.362 . S
C153 C154 1.258 . S
C153 C156 1.431 . S
C153 C173 1.449 . S
C154 C153 1.258 . S
C154 C155 1.477 . S
C154 H174 0.931 . S
C155 C151 1.460 . S
C155 C154 1.477 . S
C155 H175 0.930 . S
C156 N152 1.362 . S
C156 C153 1.431 . S
C156 C166 1.476 . S
H157 C151 0.929 . S
C158 O149 1.250 . S
C158 O150 1.258 . S
O159 Mn144 2.162 . S
O159 C147 1.281 . S
O160 Mn144 2.297 . S
O160 C147 1.236 . S
N161 Mn145 2.282 . S
N161 C162 1.328 . S
N161 C166 1.318 . S
C162 N161 1.328 . S
C162 C163 1.457 . S
C162 H167 0.929 . S
C163 C162 1.457 . S
C163 C164 1.291 . S
C163 H176 0.931 1_554 S
C164 C163 1.291 . S
C164 C165 1.373 . S
C164 H177 0.929 . S
C165 C164 1.373 . S
C165 C166 1.396 . S
C165 C172 1.403 . S
C166 C156 1.476 . S
C166 N161 1.318 . S
C166 C165 1.396 . S
H167 C162 0.929 . S
O168 Mn144 2.385 . S
O168 C146 1.234 . S
O169 Mn144 2.209 . S
O169 Mn145 2.215 . S
O169 C146 1.283 . S
O170 Mn144 2.094 . S
O170 C148 1.240 . S
O171 Mn145 2.117 . S
O171 C148 1.264 . S
C172 C165 1.403 . S
C172 C173 1.399 . S
C172 H178 0.929 . S
C173 C153 1.449 . S
C173 C172 1.399 . S
C173 H179 0.930 . S
H174 C154 0.931 . S
H175 C155 0.930 . S
H176 C163 0.931 1_556 S
H177 C164 0.929 . S
H178 C172 0.929 . S
H179 C173 0.930 . S
Mn180 O185 2.095 . S
Mn180 O195 2.162 . S
Mn180 O196 2.297 . S
Mn180 O204 2.385 . S
Mn180 O205 2.209 . S
Mn180 O206 2.094 . S
Mn181 O186 2.121 . S
Mn181 N188 2.257 . S
Mn181 N197 2.282 . S
Mn181 O205 2.215 . S
Mn181 O207 2.117 . S
C182 O204 1.234 . S
C182 O205 1.283 . S
C183 O195 1.281 . S
C183 O196 1.236 . S
C184 O206 1.240 . S
C184 O207 1.264 . S
O185 Mn180 2.095 . S
O185 C194 1.250 . S
O186 Mn181 2.121 . S
O186 C194 1.258 . S
C187 N188 1.326 . S
C187 C191 1.460 . S
C187 H193 0.929 . S
N188 Mn181 2.257 . S
N188 C187 1.326 . S
N188 C192 1.362 . S
C189 C190 1.258 . S
C189 C192 1.431 . S
C189 C209 1.449 . S
C190 C189 1.258 . S
C190 C191 1.477 . S
C190 H210 0.931 . S
C191 C187 1.460 . S
C191 C190 1.477 . S
C191 H211 0.930 . S
C192 N188 1.362 . S
C192 C189 1.431 . S
C192 C202 1.476 . S
H193 C187 0.929 . S
C194 O185 1.250 . S
C194 O186 1.258 . S
O195 Mn180 2.162 . S
O195 C183 1.281 . S
O196 Mn180 2.297 . S
O196 C183 1.236 . S
N197 Mn181 2.282 . S
N197 C198 1.328 . S
N197 C202 1.318 . S
C198 N197 1.328 . S
C198 C199 1.457 . S
C198 H203 0.929 . S
C199 C198 1.457 . S
C199 C200 1.291 . S
C199 H212 0.931 . S
C200 C199 1.291 . S
C200 C201 1.373 . S
C200 H213 0.929 . S
C201 C200 1.373 . S
C201 C202 1.396 . S
C201 C208 1.403 . S
C202 C192 1.476 . S
C202 N197 1.318 . S
C202 C201 1.396 . S
H203 C198 0.929 . S
O204 Mn180 2.385 . S
O204 C182 1.234 . S
O205 Mn180 2.209 . S
O205 Mn181 2.215 . S
O205 C182 1.283 . S
O206 Mn180 2.094 . S
O206 C184 1.240 . S
O207 Mn181 2.117 . S
O207 C184 1.264 . S
C208 C201 1.403 . S
C208 C209 1.399 . S
C208 H214 0.929 . S
C209 C189 1.449 . S
C209 C208 1.399 . S
C209 H215 0.930 . S
H210 C190 0.931 . S
H211 C191 0.930 . S
H212 C199 0.931 . S
H213 C200 0.929 . S
H214 C208 0.929 . S
H215 C209 0.930 . S
Mn216 O221 2.095 . S
Mn216 O231 2.162 . S
Mn216 O232 2.297 . S
Mn216 O240 2.385 . S
Mn216 O241 2.209 . S
Mn216 O242 2.094 . S
Mn217 O222 2.121 . S
Mn217 N224 2.257 . S
Mn217 N233 2.282 . S
Mn217 O241 2.215 . S
Mn217 O243 2.117 . S
C218 O240 1.234 . S
C218 O241 1.283 . S
C219 O231 1.281 . S
C219 O232 1.236 . S
C220 O242 1.240 . S
C220 O243 1.264 . S
O221 Mn216 2.095 . S
O221 C230 1.250 . S
O222 Mn217 2.121 . S
O222 C230 1.258 . S
C223 N224 1.326 . S
C223 C227 1.460 . S
C223 H229 0.929 . S
N224 Mn217 2.257 . S
N224 C223 1.326 . S
N224 C228 1.362 . S
C225 C226 1.258 . S
C225 C228 1.431 . S
C225 C245 1.449 . S
C226 C225 1.258 . S
C226 C227 1.477 . S
C226 H246 0.931 . S
C227 C223 1.460 . S
C227 C226 1.477 . S
C227 H247 0.930 . S
C228 N224 1.362 . S
C228 C225 1.431 . S
C228 C238 1.476 . S
H229 C223 0.929 . S
C230 O221 1.250 . S
C230 O222 1.258 . S
O231 Mn216 2.162 . S
O231 C219 1.281 . S
O232 Mn216 2.297 . S
O232 C219 1.236 . S
N233 Mn217 2.282 . S
N233 C234 1.328 . S
N233 C238 1.318 . S
C234 N233 1.328 . S
C234 C235 1.457 . S
C234 H239 0.929 . S
C235 C234 1.457 . S
C235 C236 1.291 . S
C235 H248 0.931 . S
C236 C235 1.291 . S
C236 C237 1.373 . S
C236 H249 0.929 . S
C237 C236 1.373 . S
C237 C238 1.396 . S
C237 C244 1.403 . S
C238 C228 1.476 . S
C238 N233 1.318 . S
C238 C237 1.396 . S
H239 C234 0.929 . S
O240 Mn216 2.385 . S
O240 C218 1.234 . S
O241 Mn216 2.209 . S
O241 Mn217 2.215 . S
O241 C218 1.283 . S
O242 Mn216 2.094 . S
O242 C220 1.240 . S
O243 Mn217 2.117 . S
O243 C220 1.264 . S
C244 C237 1.403 . S
C244 C245 1.399 . S
C244 H250 0.929 . S
C245 C225 1.449 . S
C245 C244 1.399 . S
C245 H251 0.930 . S
H246 C226 0.931 . S
H247 C227 0.930 . S
H248 C235 0.931 . S
H249 C236 0.929 . S
H250 C244 0.929 . S
H251 C245 0.930 . S
Mn252 O257 2.095 . S
Mn252 O267 2.162 . S
Mn252 O268 2.297 . S
Mn252 O276 2.385 . S
Mn252 O277 2.209 . S
Mn252 O278 2.094 . S
Mn253 O258 2.121 . S
Mn253 N260 2.257 . S
Mn253 N269 2.282 . S
Mn253 O277 2.215 . S
Mn253 O279 2.117 . S
C254 O276 1.234 . S
C254 O277 1.283 . S
C255 O267 1.281 . S
C255 O268 1.236 . S
C256 O278 1.240 . S
C256 O279 1.264 . S
O257 Mn252 2.095 . S
O257 C266 1.250 . S
O258 Mn253 2.121 . S
O258 C266 1.258 . S
C259 N260 1.326 . S
C259 C263 1.460 . S
C259 H265 0.929 . S
N260 Mn253 2.257 . S
N260 C259 1.326 . S
N260 C264 1.362 . S
C261 C262 1.258 . S
C261 C264 1.431 . S
C261 C281 1.449 . S
C262 C261 1.258 . S
C262 C263 1.477 . S
C262 H282 0.931 . S
C263 C259 1.460 . S
C263 C262 1.477 . S
C263 H283 0.930 . S
C264 N260 1.362 . S
C264 C261 1.431 . S
C264 C274 1.476 . S
H265 C259 0.929 . S
C266 O257 1.250 . S
C266 O258 1.258 . S
O267 Mn252 2.162 . S
O267 C255 1.281 . S
O268 Mn252 2.297 . S
O268 C255 1.236 . S
N269 Mn253 2.282 . S
N269 C270 1.328 . S
N269 C274 1.318 . S
C270 N269 1.328 . S
C270 C271 1.457 1_556 S
C270 H275 0.929 . S
C271 C270 1.457 1_554 S
C271 C272 1.291 1_554 S
C271 H284 0.931 . S
C272 C271 1.291 1_556 S
C272 C273 1.373 . S
C272 H285 0.929 1_556 S
C273 C272 1.373 . S
C273 C274 1.396 . S
C273 C280 1.403 . S
C274 C264 1.476 . S
C274 N269 1.318 . S
C274 C273 1.396 . S
H275 C270 0.929 . S
O276 Mn252 2.385 . S
O276 C254 1.234 . S
O277 Mn252 2.209 . S
O277 Mn253 2.215 . S
O277 C254 1.283 . S
O278 Mn252 2.094 . S
O278 C256 1.240 . S
O279 Mn253 2.117 . S
O279 C256 1.264 . S
C280 C273 1.403 . S
C280 C281 1.399 . S
C280 H286 0.929 . S
C281 C261 1.449 . S
C281 C280 1.399 . S
C281 H287 0.930 . S
H282 C262 0.931 . S
H283 C263 0.930 . S
H284 C271 0.931 . S
H285 C272 0.929 1_554 S
H286 C280 0.929 . S
H287 C281 0.930 . S
Mn288 O293 2.095 . S
Mn288 O303 2.162 . S
Mn288 O304 2.297 . S
Mn288 O312 2.385 . S
Mn288 O313 2.209 . S
Mn288 O314 2.094 . S
Mn289 O294 2.121 . S
Mn289 N296 2.257 . S
Mn289 N305 2.282 . S
Mn289 O313 2.215 . S
Mn289 O315 2.117 . S
C290 O312 1.234 . S
C290 O313 1.283 . S
C291 O303 1.281 . S
C291 O304 1.236 . S
C292 O314 1.240 . S
C292 O315 1.264 . S
O293 Mn288 2.095 . S
O293 C302 1.250 . S
O294 Mn289 2.121 . S
O294 C302 1.258 . S
C295 N296 1.326 . S
C295 C299 1.460 . S
C295 H301 0.929 . S
N296 Mn289 2.257 . S
N296 C295 1.326 . S
N296 C300 1.362 . S
C297 C298 1.258 . S
C297 C300 1.431 . S
C297 C317 1.449 . S
C298 C297 1.258 . S
C298 C299 1.477 . S
C298 H318 0.931 . S
C299 C295 1.460 . S
C299 C298 1.477 . S
C299 H319 0.930 . S
C300 N296 1.362 . S
C300 C297 1.431 . S
C300 C310 1.476 . S
H301 C295 0.929 . S
C302 O293 1.250 . S
C302 O294 1.258 . S
O303 Mn288 2.162 . S
O303 C291 1.281 . S
O304 Mn288 2.297 . S
O304 C291 1.236 . S
N305 Mn289 2.282 . S
N305 C306 1.328 . S
N305 C310 1.318 . S
C306 N305 1.328 . S
C306 C307 1.457 . S
C306 H311 0.929 . S
C307 C306 1.457 . S
C307 C308 1.291 . S
C307 H320 0.931 . S
C308 C307 1.291 . S
C308 C309 1.373 . S
C308 H321 0.929 . S
C309 C308 1.373 . S
C309 C310 1.396 . S
C309 C316 1.403 . S
C310 C300 1.476 . S
C310 N305 1.318 . S
C310 C309 1.396 . S
H311 C306 0.929 . S
O312 Mn288 2.385 . S
O312 C290 1.234 . S
O313 Mn288 2.209 . S
O313 Mn289 2.215 . S
O313 C290 1.283 . S
O314 Mn288 2.094 . S
O314 C292 1.240 . S
O315 Mn289 2.117 . S
O315 C292 1.264 . S
C316 C309 1.403 . S
C316 C317 1.399 . S
C316 H322 0.929 . S
C317 C297 1.449 . S
C317 C316 1.399 . S
C317 H323 0.930 . S
H318 C298 0.931 . S
H319 C299 0.930 . S
H320 C307 0.931 . S
H321 C308 0.929 . S
H322 C316 0.929 . S
H323 C317 0.930 . S
Mn324 O329 2.095 . S
Mn324 O339 2.162 . S
Mn324 O340 2.297 . S
Mn324 O348 2.385 . S
Mn324 O349 2.209 . S
Mn324 O350 2.094 . S
Mn325 O330 2.121 . S
Mn325 N332 2.257 . S
Mn325 N341 2.282 . S
Mn325 O349 2.215 . S
Mn325 O351 2.117 . S
C326 O348 1.234 . S
C326 O349 1.283 . S
C327 O339 1.281 . S
C327 O340 1.236 . S
C328 O350 1.240 . S
C328 O351 1.264 . S
O329 Mn324 2.095 . S
O329 C338 1.250 . S
O330 Mn325 2.121 . S
O330 C338 1.258 . S
C331 N332 1.326 . S
C331 C335 1.460 . S
C331 H337 0.929 . S
N332 Mn325 2.257 . S
N332 C331 1.326 . S
N332 C336 1.362 . S
C333 C334 1.258 . S
C333 C336 1.431 . S
C333 C353 1.449 . S
C334 C333 1.258 . S
C334 C335 1.477 . S
C334 H354 0.931 . S
C335 C331 1.460 . S
C335 C334 1.477 . S
C335 H355 0.930 . S
C336 N332 1.362 . S
C336 C333 1.431 . S
C336 C346 1.476 . S
H337 C331 0.929 . S
C338 O329 1.250 . S
C338 O330 1.258 . S
O339 Mn324 2.162 . S
O339 C327 1.281 . S
O340 Mn324 2.297 . S
O340 C327 1.236 . S
N341 Mn325 2.282 . S
N341 C342 1.328 . S
N341 C346 1.318 . S
C342 N341 1.328 . S
C342 C343 1.457 . S
C342 H347 0.929 . S
C343 C342 1.457 . S
C343 C344 1.291 . S
C343 H356 0.931 1_556 S
C344 C343 1.291 . S
C344 C345 1.373 . S
C344 H357 0.929 . S
C345 C344 1.373 . S
C345 C346 1.396 . S
C345 C352 1.403 . S
C346 C336 1.476 . S
C346 N341 1.318 . S
C346 C345 1.396 . S
H347 C342 0.929 . S
O348 Mn324 2.385 . S
O348 C326 1.234 . S
O349 Mn324 2.209 . S
O349 Mn325 2.215 . S
O349 C326 1.283 . S
O350 Mn324 2.094 . S
O350 C328 1.240 . S
O351 Mn325 2.117 . S
O351 C328 1.264 . S
C352 C345 1.403 . S
C352 C353 1.399 . S
C352 H358 0.929 . S
C353 C333 1.449 . S
C353 C352 1.399 . S
C353 H359 0.930 . S
H354 C334 0.931 . S
H355 C335 0.930 . S
H356 C343 0.931 1_554 S
H357 C344 0.929 . S
H358 C352 0.929 . S
H359 C353 0.930 . S
Mn360 O365 2.095 . S
Mn360 O375 2.162 . S
Mn360 O376 2.297 . S
Mn360 O384 2.385 . S
Mn360 O385 2.209 . S
Mn360 O386 2.094 . S
Mn361 O366 2.121 . S
Mn361 N368 2.257 . S
Mn361 N377 2.282 . S
Mn361 O385 2.215 . S
Mn361 O387 2.117 . S
C362 O384 1.234 . S
C362 O385 1.283 . S
C363 O375 1.281 . S
C363 O376 1.236 . S
C364 O386 1.240 . S
C364 O387 1.264 . S
O365 Mn360 2.095 . S
O365 C374 1.250 . S
O366 Mn361 2.121 . S
O366 C374 1.258 . S
C367 N368 1.326 . S
C367 C371 1.460 . S
C367 H373 0.929 . S
N368 Mn361 2.257 . S
N368 C367 1.326 . S
N368 C372 1.362 . S
C369 C370 1.258 . S
C369 C372 1.431 . S
C369 C389 1.449 . S
C370 C369 1.258 . S
C370 C371 1.477 . S
C370 H390 0.931 . S
C371 C367 1.460 . S
C371 C370 1.477 . S
C371 H391 0.930 . S
C372 N368 1.362 . S
C372 C369 1.431 . S
C372 C382 1.476 . S
H373 C367 0.929 . S
C374 O365 1.250 . S
C374 O366 1.258 . S
O375 Mn360 2.162 . S
O375 C363 1.281 . S
O376 Mn360 2.297 . S
O376 C363 1.236 . S
N377 Mn361 2.282 . S
N377 C378 1.328 . S
N377 C382 1.318 . S
C378 N377 1.328 . S
C378 C379 1.457 . S
C378 H383 0.929 . S
C379 C378 1.457 . S
C379 C380 1.291 . S
C379 H392 0.931 . S
C380 C379 1.291 . S
C380 C381 1.373 . S
C380 H393 0.929 . S
C381 C380 1.373 . S
C381 C382 1.396 . S
C381 C388 1.403 . S
C382 C372 1.476 . S
C382 N377 1.318 . S
C382 C381 1.396 . S
H383 C378 0.929 . S
O384 Mn360 2.385 . S
O384 C362 1.234 . S
O385 Mn360 2.209 . S
O385 Mn361 2.215 . S
O385 C362 1.283 . S
O386 Mn360 2.094 . S
O386 C364 1.240 . S
O387 Mn361 2.117 . S
O387 C364 1.264 . S
C388 C381 1.403 . S
C388 C389 1.399 . S
C388 H394 0.929 . S
C389 C369 1.449 . S
C389 C388 1.399 . S
C389 H395 0.930 . S
H390 C370 0.931 . S
H391 C371 0.930 . S
H392 C379 0.931 . S
H393 C380 0.929 . S
H394 C388 0.929 . S
H395 C389 0.930 . S
Mn396 O401 2.095 . S
Mn396 O411 2.162 . S
Mn396 O412 2.297 . S
Mn396 O420 2.385 . S
Mn396 O421 2.209 . S
Mn396 O422 2.094 . S
Mn397 O402 2.121 . S
Mn397 N404 2.257 . S
Mn397 N413 2.282 . S
Mn397 O421 2.215 . S
Mn397 O423 2.117 . S
C398 O420 1.234 . S
C398 O421 1.283 . S
C399 O411 1.281 . S
C399 O412 1.236 . S
C400 O422 1.240 . S
C400 O423 1.264 . S
O401 Mn396 2.095 . S
O401 C410 1.250 . S
O402 Mn397 2.121 . S
O402 C410 1.258 . S
C403 N404 1.326 . S
C403 C407 1.460 . S
C403 H409 0.929 . S
N404 Mn397 2.257 . S
N404 C403 1.326 . S
N404 C408 1.362 . S
C405 C406 1.258 . S
C405 C408 1.431 . S
C405 C425 1.449 . S
C406 C405 1.258 . S
C406 C407 1.477 . S
C406 H426 0.931 . S
C407 C403 1.460 . S
C407 C406 1.477 . S
C407 H427 0.930 . S
C408 N404 1.362 . S
C408 C405 1.431 . S
C408 C418 1.476 . S
H409 C403 0.929 . S
C410 O401 1.250 . S
C410 O402 1.258 . S
O411 Mn396 2.162 . S
O411 C399 1.281 . S
O412 Mn396 2.297 . S
O412 C399 1.236 . S
N413 Mn397 2.282 . S
N413 C414 1.328 . S
N413 C418 1.318 . S
C414 N413 1.328 . S
C414 C415 1.457 . S
C414 H419 0.929 . S
C415 C414 1.457 . S
C415 C416 1.291 . S
C415 H428 0.931 1_556 S
C416 C415 1.291 . S
C416 C417 1.373 . S
C416 H429 0.929 . S
C417 C416 1.373 . S
C417 C418 1.396 . S
C417 C424 1.403 . S
C418 C408 1.476 . S
C418 N413 1.318 . S
C418 C417 1.396 . S
H419 C414 0.929 . S
O420 Mn396 2.385 . S
O420 C398 1.234 . S
O421 Mn396 2.209 . S
O421 Mn397 2.215 . S
O421 C398 1.283 . S
O422 Mn396 2.094 . S
O422 C400 1.240 . S
O423 Mn397 2.117 . S
O423 C400 1.264 . S
C424 C417 1.403 . S
C424 C425 1.399 . S
C424 H430 0.929 . S
C425 C405 1.449 . S
C425 C424 1.399 . S
C425 H431 0.930 . S
H426 C406 0.931 . S
H427 C407 0.930 . S
H428 C415 0.931 1_554 S
H429 C416 0.929 . S
H430 C424 0.929 . S
H431 C425 0.930 . S
H432 C440 0.929 . S
H433 C442 0.930 . S
H434 C444 0.930 . S
H435 C447 0.929 . S
H436 C450 0.930 . S
H437 C452 0.960 . S
H438 C452 0.960 . S
H439 C452 0.960 . S
C440 H432 0.929 . S
C440 C441 1.377 . S
C440 C442 1.384 . S
C441 C440 1.377 . S
C441 C447 1.390 . S
C442 H433 0.930 . S
C442 C440 1.384 . S
C442 C443 1.372 . S
C443 C442 1.372 . S
C443 C444 1.400 . S
C443 C448 1.490 . S
C444 H434 0.930 . S
C444 C443 1.400 . S
C444 C447 1.386 . S
H445 C461 0.930 . S
H446 C462 0.931 . S
C447 H435 0.929 . S
C447 C441 1.390 . S
C447 C444 1.386 . S
C448 C443 1.490 . S
C448 C450 1.395 . S
C448 C451 1.403 . S
H449 C455 0.930 . S
C450 H436 0.930 . S
C450 C448 1.395 . S
C450 C453 1.403 . S
C451 C448 1.403 . S
C451 C452 1.524 . S
C451 C455 1.400 . S
C452 H437 0.960 . S
C452 H438 0.960 . S
C452 H439 0.960 . S
C452 C451 1.524 . S
C453 C450 1.403 . S
C453 C454 1.392 . S
C453 C457 1.495 . S
C454 C453 1.392 . S
C454 C455 1.385 . S
C454 C456 1.478 . S
C455 H449 0.930 . S
C455 C451 1.400 . S
C455 C454 1.385 . S
C456 C454 1.478 . S
C456 C458 1.381 . S
C456 C462 1.383 . S
C457 C453 1.495 . S
C457 H463 0.959 . S
C457 H464 0.961 . S
C457 H465 0.960 . S
C458 C456 1.381 . S
C458 C459 1.394 . S
C458 H466 0.930 . S
C459 C458 1.394 . S
C459 C460 1.383 . S
C459 H467 0.929 . S
C460 C459 1.383 . S
C460 C461 1.377 . S
C461 H445 0.930 . S
C461 C460 1.377 . S
C461 C462 1.379 . S
C462 H446 0.931 . S
C462 C456 1.383 . S
C462 C461 1.379 . S
H463 C457 0.959 . S
H464 C457 0.961 . S
H465 C457 0.960 . S
H466 C458 0.930 . S
H467 C459 0.929 . S
H468 C476 0.929 . S
H469 C478 0.930 . S
H470 C480 0.930 . S
H471 C483 0.929 . S
H472 C486 0.930 . S
H473 C488 0.960 . S
H474 C488 0.960 . S
H475 C488 0.960 . S
C476 H468 0.929 . S
C476 C477 1.377 . S
C476 C478 1.384 . S
C477 C476 1.377 . S
C477 C483 1.390 . S
C478 H469 0.930 . S
C478 C476 1.384 . S
C478 C479 1.372 . S
C479 C478 1.372 . S
C479 C480 1.400 . S
C479 C484 1.490 . S
C480 H470 0.930 . S
C480 C479 1.400 . S
C480 C483 1.386 . S
H481 C497 0.930 . S
H482 C498 0.931 . S
C483 H471 0.929 . S
C483 C477 1.390 . S
C483 C480 1.386 . S
C484 C479 1.490 . S
C484 C486 1.395 . S
C484 C487 1.403 . S
H485 C491 0.930 . S
C486 H472 0.930 . S
C486 C484 1.395 . S
C486 C489 1.403 . S
C487 C484 1.403 . S
C487 C488 1.524 . S
C487 C491 1.400 . S
C488 H473 0.960 . S
C488 H474 0.960 . S
C488 H475 0.960 . S
C488 C487 1.524 . S
C489 C486 1.403 . S
C489 C490 1.392 . S
C489 C493 1.495 . S
C490 C489 1.392 . S
C490 C491 1.385 . S
C490 C492 1.478 . S
C491 H485 0.930 . S
C491 C487 1.400 . S
C491 C490 1.385 . S
C492 C490 1.478 . S
C492 C494 1.381 . S
C492 C498 1.383 . S
C493 C489 1.495 . S
C493 H499 0.959 . S
C493 H500 0.961 . S
C493 H501 0.960 . S
C494 C492 1.381 . S
C494 C495 1.394 . S
C494 H502 0.930 . S
C495 C494 1.394 . S
C495 C496 1.383 . S
C495 H503 0.929 . S
C496 C495 1.383 . S
C496 C497 1.377 . S
C497 H481 0.930 . S
C497 C496 1.377 . S
C497 C498 1.379 . S
C498 H482 0.931 . S
C498 C492 1.383 . S
C498 C497 1.379 . S
H499 C493 0.959 . S
H500 C493 0.961 . S
H501 C493 0.960 . S
H502 C494 0.930 . S
H503 C495 0.929 . S
H504 C512 0.929 . S
H505 C514 0.930 . S
H506 C516 0.930 . S
H507 C519 0.929 . S
H508 C522 0.930 . S
H509 C524 0.960 . S
H510 C524 0.960 . S
H511 C524 0.960 . S
C512 H504 0.929 . S
C512 C513 1.377 . S
C512 C514 1.384 . S
C513 C512 1.377 . S
C513 C519 1.390 . S
C514 H505 0.930 . S
C514 C512 1.384 . S
C514 C515 1.372 . S
C515 C514 1.372 . S
C515 C516 1.400 . S
C515 C520 1.490 . S
C516 H506 0.930 . S
C516 C515 1.400 . S
C516 C519 1.386 . S
H517 C533 0.930 . S
H518 C534 0.931 . S
C519 H507 0.929 . S
C519 C513 1.390 . S
C519 C516 1.386 . S
C520 C515 1.490 . S
C520 C522 1.395 . S
C520 C523 1.403 . S
H521 C527 0.930 . S
C522 H508 0.930 . S
C522 C520 1.395 . S
C522 C525 1.403 . S
C523 C520 1.403 . S
C523 C524 1.524 . S
C523 C527 1.400 . S
C524 H509 0.960 . S
C524 H510 0.960 . S
C524 H511 0.960 . S
C524 C523 1.524 . S
C525 C522 1.403 . S
C525 C526 1.392 . S
C525 C529 1.495 . S
C526 C525 1.392 . S
C526 C527 1.385 . S
C526 C528 1.478 . S
C527 H521 0.930 . S
C527 C523 1.400 . S
C527 C526 1.385 . S
C528 C526 1.478 . S
C528 C530 1.381 . S
C528 C534 1.383 . S
C529 C525 1.495 . S
C529 H535 0.959 . S
C529 H536 0.961 . S
C529 H537 0.960 . S
C530 C528 1.381 . S
C530 C531 1.394 . S
C530 H538 0.930 . S
C531 C530 1.394 . S
C531 C532 1.383 . S
C531 H539 0.929 . S
C532 C531 1.383 . S
C532 C533 1.377 . S
C533 H517 0.930 . S
C533 C532 1.377 . S
C533 C534 1.379 . S
C534 H518 0.931 . S
C534 C528 1.383 . S
C534 C533 1.379 . S
H535 C529 0.959 . S
H536 C529 0.961 . S
H537 C529 0.960 . S
H538 C530 0.930 . S
H539 C531 0.929 . S
H540 C548 0.929 . S
H541 C550 0.930 . S
H542 C552 0.930 . S
H543 C555 0.929 . S
H544 C558 0.930 . S
H545 C560 0.960 . S
H546 C560 0.960 . S
H547 C560 0.960 . S
C548 H540 0.929 . S
C548 C549 1.377 . S
C548 C550 1.384 . S
C549 C548 1.377 . S
C549 C555 1.390 . S
C550 H541 0.930 . S
C550 C548 1.384 . S
C550 C551 1.372 . S
C551 C550 1.372 . S
C551 C552 1.400 . S
C551 C556 1.490 . S
C552 H542 0.930 . S
C552 C551 1.400 . S
C552 C555 1.386 . S
H553 C569 0.930 . S
H554 C570 0.931 . S
C555 H543 0.929 . S
C555 C549 1.390 . S
C555 C552 1.386 . S
C556 C551 1.490 . S
C556 C558 1.395 . S
C556 C559 1.403 . S
H557 C563 0.930 . S
C558 H544 0.930 . S
C558 C556 1.395 . S
C558 C561 1.403 . S
C559 C556 1.403 . S
C559 C560 1.524 . S
C559 C563 1.400 . S
C560 H545 0.960 . S
C560 H546 0.960 . S
C560 H547 0.960 . S
C560 C559 1.524 . S
C561 C558 1.403 . S
C561 C562 1.392 . S
C561 C565 1.495 . S
C562 C561 1.392 . S
C562 C563 1.385 . S
C562 C564 1.478 . S
C563 H557 0.930 . S
C563 C559 1.400 . S
C563 C562 1.385 . S
C564 C562 1.478 . S
C564 C566 1.381 . S
C564 C570 1.383 . S
C565 C561 1.495 . S
C565 H571 0.959 . S
C565 H572 0.961 . S
C565 H573 0.960 . S
C566 C564 1.381 . S
C566 C567 1.394 . S
C566 H574 0.930 . S
C567 C566 1.394 . S
C567 C568 1.383 . S
C567 H575 0.929 . S
C568 C567 1.383 . S
C568 C569 1.377 . S
C569 H553 0.930 . S
C569 C568 1.377 . S
C569 C570 1.379 . S
C570 H554 0.931 . S
C570 C564 1.383 . S
C570 C569 1.379 . S
H571 C565 0.959 . S
H572 C565 0.961 . S
H573 C565 0.960 . S
H574 C566 0.930 . S
H575 C567 0.929 . S
H576 C584 0.929 . S
H577 C586 0.930 . S
H578 C588 0.930 . S
H579 C591 0.929 . S
H580 C594 0.930 . S
H581 C596 0.960 . S
H582 C596 0.960 . S
H583 C596 0.960 . S
C584 H576 0.929 . S
C584 C585 1.377 . S
C584 C586 1.384 . S
C585 C584 1.377 . S
C585 C591 1.390 . S
C586 H577 0.930 . S
C586 C584 1.384 . S
C586 C587 1.372 . S
C587 C586 1.372 . S
C587 C588 1.400 . S
C587 C592 1.490 . S
C588 H578 0.930 . S
C588 C587 1.400 . S
C588 C591 1.386 . S
H589 C605 0.930 . S
H590 C606 0.931 . S
C591 H579 0.929 . S
C591 C585 1.390 . S
C591 C588 1.386 . S
C592 C587 1.490 . S
C592 C594 1.395 . S
C592 C595 1.403 . S
H593 C599 0.930 . S
C594 H580 0.930 . S
C594 C592 1.395 . S
C594 C597 1.403 . S
C595 C592 1.403 . S
C595 C596 1.524 . S
C595 C599 1.400 . S
C596 H581 0.960 . S
C596 H582 0.960 . S
C596 H583 0.960 . S
C596 C595 1.524 . S
C597 C594 1.403 . S
C597 C598 1.392 . S
C597 C601 1.495 . S
C598 C597 1.392 . S
C598 C599 1.385 . S
C598 C600 1.478 . S
C599 H593 0.930 . S
C599 C595 1.400 . S
C599 C598 1.385 . S
C600 C598 1.478 . S
C600 C602 1.381 . S
C600 C606 1.383 . S
C601 C597 1.495 . S
C601 H607 0.959 . S
C601 H608 0.961 . S
C601 H609 0.960 . S
C602 C600 1.381 . S
C602 C603 1.394 . S
C602 H610 0.930 . S
C603 C602 1.394 . S
C603 C604 1.383 . S
C603 H611 0.929 . S
C604 C603 1.383 . S
C604 C605 1.377 . S
C605 H589 0.930 . S
C605 C604 1.377 . S
C605 C606 1.379 . S
C606 H590 0.931 . S
C606 C600 1.383 . S
C606 C605 1.379 . S
H607 C601 0.959 . S
H608 C601 0.961 . S
H609 C601 0.960 . S
H610 C602 0.930 . S
H611 C603 0.929 . S
H612 C620 0.929 . S
H613 C622 0.930 . S
H614 C624 0.930 . S
H615 C627 0.929 . S
H616 C630 0.930 . S
H617 C632 0.960 . S
H618 C632 0.960 . S
H619 C632 0.960 . S
C620 H612 0.929 . S
C620 C621 1.377 . S
C620 C622 1.384 . S
C621 C620 1.377 . S
C621 C627 1.390 . S
C622 H613 0.930 . S
C622 C620 1.384 . S
C622 C623 1.372 . S
C623 C622 1.372 . S
C623 C624 1.400 . S
C623 C628 1.490 . S
C624 H614 0.930 . S
C624 C623 1.400 . S
C624 C627 1.386 . S
H625 C641 0.930 . S
H626 C642 0.931 . S
C627 H615 0.929 . S
C627 C621 1.390 . S
C627 C624 1.386 . S
C628 C623 1.490 . S
C628 C630 1.395 . S
C628 C631 1.403 . S
H629 C635 0.930 . S
C630 H616 0.930 . S
C630 C628 1.395 . S
C630 C633 1.403 . S
C631 C628 1.403 . S
C631 C632 1.524 . S
C631 C635 1.400 . S
C632 H617 0.960 . S
C632 H618 0.960 . S
C632 H619 0.960 . S
C632 C631 1.524 . S
C633 C630 1.403 . S
C633 C634 1.392 . S
C633 C637 1.495 . S
C634 C633 1.392 . S
C634 C635 1.385 . S
C634 C636 1.478 . S
C635 H629 0.930 . S
C635 C631 1.400 . S
C635 C634 1.385 . S
C636 C634 1.478 . S
C636 C638 1.381 . S
C636 C642 1.383 . S
C637 C633 1.495 . S
C637 H643 0.959 . S
C637 H644 0.961 . S
C637 H645 0.960 . S
C638 C636 1.381 . S
C638 C639 1.394 . S
C638 H646 0.930 . S
C639 C638 1.394 . S
C639 C640 1.383 . S
C639 H647 0.929 . S
C640 C639 1.383 . S
C640 C641 1.377 . S
C641 H625 0.930 . S
C641 C640 1.377 . S
C641 C642 1.379 . S
C642 H626 0.931 . S
C642 C636 1.383 . S
C642 C641 1.379 . S
H643 C637 0.959 . S
H644 C637 0.961 . S
H645 C637 0.960 . S
H646 C638 0.930 . S
H647 C639 0.929 . S
H648 C656 0.929 1_556 S
H649 C658 0.930 . S
H650 C660 0.930 . S
H651 C663 0.929 . S
H652 C666 0.930 . S
H653 C668 0.960 . S
H654 C668 0.960 . S
H655 C668 0.960 . S
C656 H648 0.929 1_554 S
C656 C657 1.377 . S
C656 C658 1.384 1_554 S
C657 C656 1.377 . S
C657 C663 1.390 . S
C658 H649 0.930 . S
C658 C656 1.384 1_556 S
C658 C659 1.372 1_556 S
C659 C658 1.372 1_554 S
C659 C660 1.400 . S
C659 C664 1.490 . S
C660 H650 0.930 . S
C660 C659 1.400 . S
C660 C663 1.386 . S
H661 C677 0.930 1_554 S
H662 C678 0.931 . S
C663 H651 0.929 . S
C663 C657 1.390 . S
C663 C660 1.386 . S
C664 C659 1.490 . S
C664 C666 1.395 1_554 S
C664 C667 1.403 . S
H665 C671 0.930 . S
C666 H652 0.930 . S
C666 C664 1.395 1_556 S
C666 C669 1.403 1_545 S
C667 C664 1.403 . S
C667 C668 1.524 . S
C667 C671 1.400 1_545 S
C668 H653 0.960 . S
C668 H654 0.960 . S
C668 H655 0.960 . S
C668 C667 1.524 . S
C669 C666 1.403 1_565 S
C669 C670 1.392 . S
C669 C673 1.495 . S
C670 C669 1.392 . S
C670 C671 1.385 1_556 S
C670 C672 1.478 . S
C671 H665 0.930 . S
C671 C667 1.400 1_565 S
C671 C670 1.385 1_554 S
C672 C670 1.478 . S
C672 C674 1.381 . S
C672 C678 1.383 1_556 S
C673 C669 1.495 . S
C673 H679 0.959 . S
C673 H680 0.961 . S
C673 H681 0.960 . S
C674 C672 1.381 . S
C674 C675 1.394 . S
C674 H682 0.930 . S
C675 C674 1.394 . S
C675 C676 1.383 . S
C675 H683 0.929 . S
C676 C675 1.383 . S
C676 C677 1.377 . S
C677 H661 0.930 1_556 S
C677 C676 1.377 . S
C677 C678 1.379 1_556 S
C678 H662 0.931 . S
C678 C672 1.383 1_554 S
C678 C677 1.379 1_554 S
H679 C673 0.959 . S
H680 C673 0.961 . S
H681 C673 0.960 . S
H682 C674 0.930 . S
H683 C675 0.929 . S
H684 C692 0.929 . S
H685 C694 0.930 . S
H686 C696 0.930 . S
H687 C699 0.929 . S
H688 C702 0.930 . S
H689 C704 0.960 . S
H690 C704 0.960 . S
H691 C704 0.960 . S
C692 H684 0.929 . S
C692 C693 1.377 . S
C692 C694 1.384 . S
C693 C692 1.377 . S
C693 C699 1.390 . S
C694 H685 0.930 . S
C694 C692 1.384 . S
C694 C695 1.372 . S
C695 C694 1.372 . S
C695 C696 1.400 . S
C695 C700 1.490 . S
C696 H686 0.930 . S
C696 C695 1.400 . S
C696 C699 1.386 . S
H697 C713 0.930 . S
H698 C714 0.931 . S
C699 H687 0.929 . S
C699 C693 1.390 . S
C699 C696 1.386 . S
C700 C695 1.490 . S
C700 C702 1.395 . S
C700 C703 1.403 . S
H701 C707 0.930 . S
C702 H688 0.930 . S
C702 C700 1.395 . S
C702 C705 1.403 . S
C703 C700 1.403 . S
C703 C704 1.524 . S
C703 C707 1.400 . S
C704 H689 0.960 . S
C704 H690 0.960 . S
C704 H691 0.960 . S
C704 C703 1.524 . S
C705 C702 1.403 . S
C705 C706 1.392 . S
C705 C709 1.495 . S
C706 C705 1.392 . S
C706 C707 1.385 . S
C706 C708 1.478 . S
C707 H701 0.930 . S
C707 C703 1.400 . S
C707 C706 1.385 . S
C708 C706 1.478 . S
C708 C710 1.381 . S
C708 C714 1.383 . S
C709 C705 1.495 . S
C709 H715 0.959 . S
C709 H716 0.961 . S
C709 H717 0.960 . S
C710 C708 1.381 . S
C710 C711 1.394 . S
C710 H718 0.930 . S
C711 C710 1.394 . S
C711 C712 1.383 . S
C711 H719 0.929 . S
C712 C711 1.383 . S
C712 C713 1.377 . S
C713 H697 0.930 . S
C713 C712 1.377 . S
C713 C714 1.379 . S
C714 H698 0.931 . S
C714 C708 1.383 . S
C714 C713 1.379 . S
H715 C709 0.959 . S
H716 C709 0.961 . S
H717 C709 0.960 . S
H718 C710 0.930 . S
H719 C711 0.929 . S
H720 C728 0.929 . S
H721 C730 0.930 . S
H722 C732 0.930 . S
H723 C735 0.929 . S
H724 C738 0.930 . S
H725 C740 0.960 1_655 S
H726 C740 0.960 . S
H727 C740 0.960 . S
C728 H720 0.929 . S
C728 C729 1.377 . S
C728 C730 1.384 . S
C729 C728 1.377 . S
C729 C735 1.390 . S
C730 H721 0.930 . S
C730 C728 1.384 . S
C730 C731 1.372 . S
C731 C730 1.372 . S
C731 C732 1.400 . S
C731 C736 1.490 . S
C732 H722 0.930 . S
C732 C731 1.400 . S
C732 C735 1.386 . S
H733 C749 0.930 . S
H734 C750 0.931 . S
C735 H723 0.929 . S
C735 C729 1.390 . S
C735 C732 1.386 . S
C736 C731 1.490 . S
C736 C738 1.395 1_556 S
C736 C739 1.403 . S
H737 C743 0.930 . S
C738 H724 0.930 . S
C738 C736 1.395 1_554 S
C738 C741 1.403 1_455 S
C739 C736 1.403 . S
C739 C740 1.524 . S
C739 C743 1.400 1_455 S
C740 H725 0.960 1_455 S
C740 H726 0.960 . S
C740 H727 0.960 . S
C740 C739 1.524 . S
C741 C738 1.403 1_655 S
C741 C742 1.392 . S
C741 C745 1.495 . S
C742 C741 1.392 . S
C742 C743 1.385 1_554 S
C742 C744 1.478 . S
C743 H737 0.930 . S
C743 C739 1.400 1_655 S
C743 C742 1.385 1_556 S
C744 C742 1.478 . S
C744 C746 1.381 . S
C744 C750 1.383 . S
C745 C741 1.495 . S
C745 H751 0.959 1_655 S
C745 H752 0.961 . S
C745 H753 0.960 . S
C746 C744 1.381 . S
C746 C747 1.394 . S
C746 H754 0.930 . S
C747 C746 1.394 . S
C747 C748 1.383 . S
C747 H755 0.929 . S
C748 C747 1.383 . S
C748 C749 1.377 . S
C749 H733 0.930 . S
C749 C748 1.377 . S
C749 C750 1.379 . S
C750 H734 0.931 . S
C750 C744 1.383 . S
C750 C749 1.379 . S
H751 C745 0.959 1_455 S
H752 C745 0.961 . S
H753 C745 0.960 . S
H754 C746 0.930 . S
H755 C747 0.929 . S
H756 C764 0.929 . S
H757 C766 0.930 . S
H758 C768 0.930 . S
H759 C771 0.929 . S
H760 C774 0.930 . S
H761 C776 0.960 . S
H762 C776 0.960 . S
H763 C776 0.960 . S
C764 H756 0.929 . S
C764 C765 1.377 . S
C764 C766 1.384 . S
C765 C764 1.377 . S
C765 C771 1.390 . S
C766 H757 0.930 . S
C766 C764 1.384 . S
C766 C767 1.372 . S
C767 C766 1.372 . S
C767 C768 1.400 . S
C767 C772 1.490 . S
C768 H758 0.930 . S
C768 C767 1.400 . S
C768 C771 1.386 . S
H769 C785 0.930 . S
H770 C786 0.931 . S
C771 H759 0.929 . S
C771 C765 1.390 . S
C771 C768 1.386 . S
C772 C767 1.490 . S
C772 C774 1.395 . S
C772 C775 1.403 . S
H773 C779 0.930 . S
C774 H760 0.930 . S
C774 C772 1.395 . S
C774 C777 1.403 1_545 S
C775 C772 1.403 . S
C775 C776 1.524 . S
C775 C779 1.400 1_545 S
C776 H761 0.960 . S
C776 H762 0.960 . S
C776 H763 0.960 . S
C776 C775 1.524 . S
C777 C774 1.403 1_565 S
C777 C778 1.392 . S
C777 C781 1.495 . S
C778 C777 1.392 . S
C778 C779 1.385 . S
C778 C780 1.478 . S
C779 H773 0.930 . S
C779 C775 1.400 1_565 S
C779 C778 1.385 . S
C780 C778 1.478 . S
C780 C782 1.381 . S
C780 C786 1.383 . S
C781 C777 1.495 . S
C781 H787 0.959 . S
C781 H788 0.961 . S
C781 H789 0.960 . S
C782 C780 1.381 . S
C782 C783 1.394 . S
C782 H790 0.930 . S
C783 C782 1.394 . S
C783 C784 1.383 . S
C783 H791 0.929 . S
C784 C783 1.383 . S
C784 C785 1.377 . S
C785 H769 0.930 . S
C785 C784 1.377 . S
C785 C786 1.379 . S
C786 H770 0.931 . S
C786 C780 1.383 . S
C786 C785 1.379 . S
H787 C781 0.959 . S
H788 C781 0.961 . S
H789 C781 0.960 . S
H790 C782 0.930 . S
H791 C783 0.929 . S
H792 C800 0.929 1_554 S
H793 C802 0.963 . S
H794 C804 0.930 . S
H795 C807 0.929 . S
H796 C810 0.930 . S
H797 C812 0.960 . S
H798 C812 0.960 . S
H799 C812 0.960 . S
C800 H792 0.929 1_556 S
C800 C801 1.377 . S
C800 C802 1.373 1_556 S
C801 C800 1.377 . S
C801 C807 1.390 . S
C802 H793 0.963 . S
C802 C800 1.373 1_554 S
C802 C803 1.351 1_554 S
C803 C802 1.351 1_556 S
C803 C804 1.400 . S
C803 C808 1.490 . S
C804 H794 0.930 . S
C804 C803 1.400 . S
C804 C807 1.386 . S
H805 C821 0.930 1_556 S
H806 C822 0.931 1_556 S
C807 H795 0.929 . S
C807 C801 1.390 . S
C807 C804 1.386 . S
C808 C803 1.490 . S
C808 C810 1.395 1_556 S
C808 C811 1.403 . S
H809 C815 0.930 . S
C810 H796 0.930 . S
C810 C808 1.395 1_554 S
C810 C813 1.403 . S
C811 C808 1.403 . S
C811 C812 1.524 . S
C811 C815 1.400 . S
C812 H797 0.960 . S
C812 H798 0.960 . S
C812 H799 0.960 . S
C812 C811 1.524 . S
C813 C810 1.403 . S
C813 C814 1.392 . S
C813 C817 1.495 . S
C814 C813 1.392 . S
C814 C815 1.385 1_554 S
C814 C816 1.478 . S
C815 H809 0.930 . S
C815 C811 1.400 . S
C815 C814 1.385 1_556 S
C816 C814 1.478 . S
C816 C818 1.381 . S
C816 C822 1.383 . S
C817 C813 1.495 . S
C817 H823 0.959 . S
C817 H824 0.961 . S
C817 H825 0.960 . S
C818 C816 1.381 . S
C818 C819 1.394 . S
C818 H826 0.930 . S
C819 C818 1.394 . S
C819 C820 1.383 . S
C819 H827 0.929 . S
C820 C819 1.383 . S
C820 C821 1.377 . S
C821 H805 0.930 1_554 S
C821 C820 1.377 . S
C821 C822 1.379 . S
C822 H806 0.931 1_554 S
C822 C816 1.383 . S
C822 C821 1.379 . S
H823 C817 0.959 . S
H824 C817 0.961 . S
H825 C817 0.960 . S
H826 C818 0.930 . S
H827 C819 0.929 . S
H828 C836 0.929 . S
H829 C838 0.930 . S
H830 C840 0.930 . S
H831 C843 0.929 . S
H832 C846 0.930 . S
H833 C848 0.960 . S
H834 C848 0.960 . S
H835 C848 0.960 . S
C836 H828 0.929 . S
C836 C837 1.377 . S
C836 C838 1.384 . S
C837 C836 1.377 . S
C837 C843 1.390 . S
C838 H829 0.930 . S
C838 C836 1.384 . S
C838 C839 1.372 . S
C839 C838 1.372 . S
C839 C840 1.400 . S
C839 C844 1.490 . S
C840 H830 0.930 . S
C840 C839 1.400 . S
C840 C843 1.386 . S
H841 C857 0.930 . S
H842 C858 0.931 . S
C843 H831 0.929 . S
C843 C837 1.390 . S
C843 C840 1.386 . S
C844 C839 1.490 . S
C844 C846 1.395 . S
C844 C847 1.403 . S
H845 C851 0.930 . S
C846 H832 0.930 . S
C846 C844 1.395 . S
C846 C849 1.403 1_655 S
C847 C844 1.403 . S
C847 C848 1.524 . S
C847 C851 1.400 1_655 S
C848 H833 0.960 . S
C848 H834 0.960 . S
C848 H835 0.960 . S
C848 C847 1.524 . S
C849 C846 1.403 1_455 S
C849 C850 1.392 . S
C849 C853 1.495 . S
C850 C849 1.392 . S
C850 C851 1.385 . S
C850 C852 1.478 . S
C851 H845 0.930 . S
C851 C847 1.400 1_455 S
C851 C850 1.385 . S
C852 C850 1.478 . S
C852 C854 1.381 . S
C852 C858 1.383 . S
C853 C849 1.495 . S
C853 H859 0.959 . S
C853 H860 0.961 . S
C853 H861 0.960 . S
C854 C852 1.381 . S
C854 C855 1.394 . S
C854 H862 0.930 . S
C855 C854 1.394 . S
C855 C856 1.383 . S
C855 H863 0.929 . S
C856 C855 1.383 . S
C856 C857 1.377 . S
C857 H841 0.930 . S
C857 C856 1.377 . S
C857 C858 1.379 . S
C858 H842 0.931 . S
C858 C852 1.383 . S
C858 C857 1.379 . S
H859 C853 0.959 . S
H860 C853 0.961 . S
H861 C853 0.960 . S
H862 C854 0.930 . S
H863 C855 0.929 . S
H864 C872 0.929 . S
H865 C874 0.930 . S
H866 C876 0.930 . S
H867 C879 0.929 . S
H868 C882 0.930 . S
H869 C884 0.949 1_556 S
H870 C884 0.960 1_556 S
H871 C884 0.960 . S
C872 H864 0.929 . S
C872 C873 1.377 . S
C872 C874 1.384 . S
C873 C872 1.377 . S
C873 C879 1.390 . S
C874 H865 0.930 . S
C874 C872 1.384 . S
C874 C875 1.372 . S
C875 C874 1.372 . S
C875 C876 1.400 . S
C875 C880 1.490 . S
C876 H866 0.930 . S
C876 C875 1.400 . S
C876 C879 1.386 . S
H877 C893 0.930 . S
H878 C894 0.931 . S
C879 H867 0.929 . S
C879 C873 1.390 . S
C879 C876 1.386 . S
C880 C875 1.490 . S
C880 C882 1.395 . S
C880 C883 1.403 . S
H881 C887 0.930 . S
C882 H868 0.930 . S
C882 C880 1.395 . S
C882 C885 1.403 . S
C883 C880 1.403 . S
C883 C884 1.524 . S
C883 C887 1.400 . S
C884 H869 0.949 1_554 S
C884 H870 0.960 1_554 S
C884 H871 0.960 . S
C884 C883 1.524 . S
C885 C882 1.403 . S
C885 C886 1.392 . S
C885 C889 1.495 . S
C886 C885 1.392 . S
C886 C887 1.385 . S
C886 C888 1.478 . S
C887 H881 0.930 . S
C887 C883 1.400 . S
C887 C886 1.385 . S
C888 C886 1.478 . S
C888 C890 1.381 . S
C888 C894 1.383 . S
C889 C885 1.495 . S
C889 H895 0.959 . S
C889 H896 0.961 . S
C889 H897 0.960 . S
C890 C888 1.381 . S
C890 C891 1.394 . S
C890 H898 0.930 . S
C891 C890 1.394 . S
C891 C892 1.383 . S
C891 H899 0.929 . S
C892 C891 1.383 . S
C892 C893 1.377 . S
C893 H877 0.930 . S
C893 C892 1.377 . S
C893 C894 1.379 . S
C894 H878 0.931 . S
C894 C888 1.383 . S
C894 C893 1.379 . S
H895 C889 0.959 . S
H896 C889 0.961 . S
H897 C889 0.960 . S
H898 C890 0.930 . S
H899 C891 0.929 . S
H900 C908 0.929 . S
H901 C910 0.930 . S
H902 C912 0.930 . S
H903 C915 0.929 . S
H904 C918 0.930 . S
H905 C920 0.960 . S
H906 C920 0.960 . S
H907 C920 0.960 . S
C908 H900 0.929 . S
C908 C909 1.377 . S
C908 C910 1.384 . S
C909 C908 1.377 . S
C909 C915 1.390 . S
C910 H901 0.930 . S
C910 C908 1.384 . S
C910 C911 1.372 . S
C911 C910 1.372 . S
C911 C912 1.400 . S
C911 C916 1.490 . S
C912 H902 0.930 . S
C912 C911 1.400 . S
C912 C915 1.386 . S
H913 C929 0.930 . S
H914 C930 0.931 . S
C915 H903 0.929 . S
C915 C909 1.390 . S
C915 C912 1.386 . S
C916 C911 1.490 . S
C916 C918 1.395 . S
C916 C919 1.403 . S
H917 C923 0.930 . S
C918 H904 0.930 . S
C918 C916 1.395 . S
C918 C921 1.403 . S
C919 C916 1.403 . S
C919 C920 1.524 . S
C919 C923 1.400 . S
C920 H905 0.960 . S
C920 H906 0.960 . S
C920 H907 0.960 . S
C920 C919 1.524 . S
C921 C918 1.403 . S
C921 C922 1.392 . S
C921 C925 1.495 . S
C922 C921 1.392 . S
C922 C923 1.385 . S
C922 C924 1.478 . S
C923 H917 0.930 . S
C923 C919 1.400 . S
C923 C922 1.385 . S
C924 C922 1.478 . S
C924 C926 1.381 . S
C924 C930 1.383 . S
C925 C921 1.495 . S
C925 H931 0.959 . S
C925 H932 0.961 . S
C925 H933 0.960 . S
C926 C924 1.381 . S
C926 C927 1.394 . S
C926 H934 0.930 . S
C927 C926 1.394 . S
C927 C928 1.383 . S
C927 H935 0.929 . S
C928 C927 1.383 . S
C928 C929 1.377 . S
C929 H913 0.930 . S
C929 C928 1.377 . S
C929 C930 1.379 . S
C930 H914 0.931 . S
C930 C924 1.383 . S
C930 C929 1.379 . S
H931 C925 0.959 . S
H932 C925 0.961 . S
H933 C925 0.960 . S
H934 C926 0.930 . S
H935 C927 0.929 . S
H936 C944 0.929 . S
H937 C946 0.930 . S
H938 C948 0.930 . S
H939 C951 0.929 1_556 S
H940 C954 0.930 . S
H941 C956 0.960 . S
H942 C956 0.960 . S
H943 C956 0.960 . S
C944 H936 0.929 . S
C944 C945 1.377 . S
C944 C946 1.384 . S
C945 C944 1.377 . S
C945 C951 1.390 . S
C946 H937 0.930 . S
C946 C944 1.384 . S
C946 C947 1.372 . S
C947 C946 1.372 . S
C947 C948 1.400 . S
C947 C952 1.490 . S
C948 H938 0.930 . S
C948 C947 1.400 . S
C948 C951 1.386 . S
H949 C965 0.930 . S
H950 C966 0.931 . S
C951 H939 0.929 1_554 S
C951 C945 1.390 . S
C951 C948 1.386 . S
C952 C947 1.490 . S
C952 C954 1.395 . S
C952 C955 1.403 . S
H953 C959 0.930 . S
C954 H940 0.930 . S
C954 C952 1.395 . S
C954 C957 1.403 . S
C955 C952 1.403 . S
C955 C956 1.524 . S
C955 C959 1.400 . S
C956 H941 0.960 . S
C956 H942 0.960 . S
C956 H943 0.960 . S
C956 C955 1.524 . S
C957 C954 1.403 . S
C957 C958 1.392 . S
C957 C961 1.495 . S
C958 C957 1.392 . S
C958 C959 1.385 . S
C958 C960 1.478 . S
C959 H953 0.930 . S
C959 C955 1.400 . S
C959 C958 1.385 . S
C960 C958 1.478 . S
C960 C962 1.381 . S
C960 C966 1.383 . S
C961 C957 1.495 . S
C961 H967 0.959 . S
C961 H968 0.961 . S
C961 H969 0.960 . S
C962 C960 1.381 . S
C962 C963 1.394 . S
C962 H970 0.930 . S
C963 C962 1.394 . S
C963 C964 1.383 . S
C963 H971 0.929 . S
C964 C963 1.383 . S
C964 C965 1.377 . S
C965 H949 0.930 . S
C965 C964 1.377 . S
C965 C966 1.379 . S
C966 H950 0.931 . S
C966 C960 1.383 . S
C966 C965 1.379 . S
H967 C961 0.959 . S
H968 C961 0.961 . S
H969 C961 0.960 . S
H970 C962 0.930 . S
H971 C963 0.929 . S
H972 C980 0.929 . S
H973 C982 0.930 . S
H974 C984 0.930 . S
H975 C987 0.929 . S
H976 C990 0.930 . S
H977 C992 0.960 . S
H978 C992 0.960 . S
H979 C992 0.960 . S
C980 H972 0.929 . S
C980 C981 1.377 . S
C980 C982 1.384 . S
C981 C980 1.377 . S
C981 C987 1.390 . S
C982 H973 0.930 . S
C982 C980 1.384 . S
C982 C983 1.372 . S
C983 C982 1.372 . S
C983 C984 1.400 . S
C983 C988 1.490 . S
C984 H974 0.930 . S
C984 C983 1.400 . S
C984 C987 1.386 . S
H985 C1001 0.930 . S
H986 C1002 0.931 . S
C987 H975 0.929 . S
C987 C981 1.390 . S
C987 C984 1.386 . S
C988 C983 1.490 . S
C988 C990 1.395 . S
C988 C991 1.403 . S
H989 C995 0.930 . S
C990 H976 0.930 . S
C990 C988 1.395 . S
C990 C993 1.403 . S
C991 C988 1.403 . S
C991 C992 1.524 . S
C991 C995 1.400 . S
C992 H977 0.960 . S
C992 H978 0.960 . S
C992 H979 0.960 . S
C992 C991 1.524 . S
C993 C990 1.403 . S
C993 C994 1.392 . S
C993 C997 1.495 . S
C994 C993 1.392 . S
C994 C995 1.385 . S
C994 C996 1.478 . S
C995 H989 0.930 . S
C995 C991 1.400 . S
C995 C994 1.385 . S
C996 C994 1.478 . S
C996 C998 1.381 . S
C996 C1002 1.383 . S
C997 C993 1.495 . S
C997 H1003 0.959 . S
C997 H1004 0.961 . S
C997 H1005 0.960 . S
C998 C996 1.381 . S
C998 C999 1.394 . S
C998 H1006 0.930 . S
C999 C998 1.394 . S
C999 C1000 1.383 . S
C999 H1007 0.929 . S
C1000 C999 1.383 . S
C1000 C1001 1.377 . S
C1001 H985 0.930 . S
C1001 C1000 1.377 . S
C1001 C1002 1.379 . S
C1002 H986 0.931 . S
C1002 C996 1.383 . S
C1002 C1001 1.379 . S
H1003 C997 0.959 . S
H1004 C997 0.961 . S
H1005 C997 0.960 . S
H1006 C998 0.930 . S
H1007 C999 0.929 . S
H1008 C1016 0.929 . S
H1009 C1018 0.930 . S
H1010 C1020 0.930 . S
H1011 C1023 0.929 . S
H1012 C1026 0.930 . S
H1013 C1028 0.936 1_556 S
H1014 C1028 0.944 1_556 S
H1015 C1028 0.965 . S
C1016 H1008 0.929 . S
C1016 C1017 1.377 . S
C1016 C1018 1.384 . S
C1017 C1016 1.377 . S
C1017 C1023 1.390 . S
C1018 H1009 0.930 . S
C1018 C1016 1.384 . S
C1018 C1019 1.372 . S
C1019 C1018 1.372 . S
C1019 C1020 1.400 . S
C1019 C1024 1.490 . S
C1020 H1010 0.930 . S
C1020 C1019 1.400 . S
C1020 C1023 1.386 . S
H1021 C1037 0.930 . S
H1022 C1038 0.931 . S
C1023 H1011 0.929 . S
C1023 C1017 1.390 . S
C1023 C1020 1.386 . S
C1024 C1019 1.490 . S
C1024 C1026 1.395 . S
C1024 C1027 1.403 . S
H1025 C1031 0.930 . S
C1026 H1012 0.930 . S
C1026 C1024 1.395 . S
C1026 C1029 1.403 . S
C1027 C1024 1.403 . S
C1027 C1028 1.562 . S
C1027 C1031 1.400 . S
C1028 H1013 0.936 1_554 S
C1028 H1014 0.944 1_554 S
C1028 H1015 0.965 . S
C1028 C1027 1.562 . S
C1029 C1026 1.403 . S
C1029 C1030 1.392 . S
C1029 C1033 1.495 . S
C1030 C1029 1.392 . S
C1030 C1031 1.385 . S
C1030 C1032 1.478 . S
C1031 H1025 0.930 . S
C1031 C1027 1.400 . S
C1031 C1030 1.385 . S
C1032 C1030 1.478 . S
C1032 C1034 1.381 . S
C1032 C1038 1.383 . S
C1033 C1029 1.495 . S
C1033 H1039 0.959 . S
C1033 H1040 0.961 . S
C1033 H1041 0.960 . S
C1034 C1032 1.381 . S
C1034 C1035 1.394 . S
C1034 H1042 0.930 . S
C1035 C1034 1.394 . S
C1035 C1036 1.383 . S
C1035 H1043 0.929 . S
C1036 C1035 1.383 . S
C1036 C1037 1.377 . S
C1037 H1021 0.930 . S
C1037 C1036 1.377 . S
C1037 C1038 1.379 . S
C1038 H1022 0.931 . S
C1038 C1032 1.383 . S
C1038 C1037 1.379 . S
H1039 C1033 0.959 . S
H1040 C1033 0.961 . S
H1041 C1033 0.960 . S
H1042 C1034 0.930 . S
H1043 C1035 0.929 . S
H1044 C1052 0.929 . S
H1045 C1054 0.930 . S
H1046 C1056 0.930 . S
H1047 C1059 0.929 . S
H1048 C1062 0.930 . S
H1049 C1064 0.960 . S
H1050 C1064 0.960 . S
H1051 C1064 0.960 . S
C1052 H1044 0.929 . S
C1052 C1053 1.377 . S
C1052 C1054 1.384 . S
C1053 C1052 1.377 . S
C1053 C1059 1.390 . S
C1054 H1045 0.930 . S
C1054 C1052 1.384 . S
C1054 C1055 1.372 . S
C1055 C1054 1.372 . S
C1055 C1056 1.400 . S
C1055 C1060 1.490 . S
C1056 H1046 0.930 . S
C1056 C1055 1.400 . S
C1056 C1059 1.386 . S
H1057 C1073 0.930 . S
H1058 C1074 0.931 . S
C1059 H1047 0.929 . S
C1059 C1053 1.390 . S
C1059 C1056 1.386 . S
C1060 C1055 1.490 . S
C1060 C1062 1.395 . S
C1060 C1063 1.403 . S
H1061 C1067 0.930 . S
C1062 H1048 0.930 . S
C1062 C1060 1.395 . S
C1062 C1065 1.403 . S
C1063 C1060 1.403 . S
C1063 C1064 1.524 . S
C1063 C1067 1.400 . S
C1064 H1049 0.960 . S
C1064 H1050 0.960 . S
C1064 H1051 0.960 . S
C1064 C1063 1.524 . S
C1065 C1062 1.403 . S
C1065 C1066 1.392 . S
C1065 C1069 1.495 . S
C1066 C1065 1.392 . S
C1066 C1067 1.385 . S
C1066 C1068 1.478 . S
C1067 H1061 0.930 . S
C1067 C1063 1.400 . S
C1067 C1066 1.385 . S
C1068 C1066 1.478 . S
C1068 C1070 1.381 . S
C1068 C1074 1.383 . S
C1069 C1065 1.495 . S
C1069 H1075 0.959 . S
C1069 H1076 0.961 . S
C1069 H1077 0.960 . S
C1070 C1068 1.381 . S
C1070 C1071 1.394 . S
C1070 H1078 0.930 . S
C1071 C1070 1.394 . S
C1071 C1072 1.383 . S
C1071 H1079 0.929 . S
C1072 C1071 1.383 . S
C1072 C1073 1.377 . S
C1073 H1057 0.930 . S
C1073 C1072 1.377 . S
C1073 C1074 1.379 . S
C1074 H1058 0.931 . S
C1074 C1068 1.383 . S
C1074 C1073 1.379 . S
H1075 C1069 0.959 . S
H1076 C1069 0.961 . S
H1077 C1069 0.960 . S
H1078 C1070 0.930 . S
H1079 C1071 0.929 . S
H1080 C1088 0.929 . S
H1081 C1090 0.930 . S
H1082 C1092 0.930 . S
H1083 C1095 0.929 . S
H1084 C1098 0.930 . S
H1085 C1100 0.960 . S
H1086 C1100 0.960 . S
H1087 C1100 0.960 . S
C1088 H1080 0.929 . S
C1088 C1089 1.377 . S
C1088 C1090 1.384 . S
C1089 C1088 1.377 . S
C1089 C1095 1.390 . S
C1090 H1081 0.930 . S
C1090 C1088 1.384 . S
C1090 C1091 1.372 . S
C1091 C1090 1.372 . S
C1091 C1092 1.400 . S
C1091 C1096 1.490 . S
C1092 H1082 0.930 . S
C1092 C1091 1.400 . S
C1092 C1095 1.386 . S
H1093 C1109 0.930 . S
H1094 C1110 0.931 . S
C1095 H1083 0.929 . S
C1095 C1089 1.390 . S
C1095 C1092 1.386 . S
C1096 C1091 1.490 . S
C1096 C1098 1.395 . S
C1096 C1099 1.403 . S
H1097 C1103 0.930 . S
C1098 H1084 0.930 . S
C1098 C1096 1.395 . S
C1098 C1101 1.403 . S
C1099 C1096 1.403 . S
C1099 C1100 1.524 . S
C1099 C1103 1.400 . S
C1100 H1085 0.960 . S
C1100 H1086 0.960 . S
C1100 H1087 0.960 . S
C1100 C1099 1.524 . S
C1101 C1098 1.403 . S
C1101 C1102 1.392 . S
C1101 C1105 1.495 . S
C1102 C1101 1.392 . S
C1102 C1103 1.385 . S
C1102 C1104 1.478 . S
C1103 H1097 0.930 . S
C1103 C1099 1.400 . S
C1103 C1102 1.385 . S
C1104 C1102 1.478 . S
C1104 C1106 1.381 . S
C1104 C1110 1.383 . S
C1105 C1101 1.495 . S
C1105 H1111 0.959 . S
C1105 H1112 0.961 . S
C1105 H1113 0.960 . S
C1106 C1104 1.381 . S
C1106 C1107 1.394 . S
C1106 H1114 0.930 . S
C1107 C1106 1.394 . S
C1107 C1108 1.383 . S
C1107 H1115 0.929 . S
C1108 C1107 1.383 . S
C1108 C1109 1.377 . S
C1109 H1093 0.930 . S
C1109 C1108 1.377 . S
C1109 C1110 1.379 . S
C1110 H1094 0.931 . S
C1110 C1104 1.383 . S
C1110 C1109 1.379 . S
H1111 C1105 0.959 . S
H1112 C1105 0.961 . S
H1113 C1105 0.960 . S
H1114 C1106 0.930 . S
H1115 C1107 0.929 . S
H1116 C1124 0.929 . S
H1117 C1126 0.930 . S
H1118 C1128 0.930 . S
H1119 C1131 0.929 1_554 S
H1120 C1134 0.930 . S
H1121 C1136 0.960 . S
H1122 C1136 0.960 . S
H1123 C1136 0.960 . S
C1124 H1116 0.929 . S
C1124 C1125 1.377 . S
C1124 C1126 1.384 . S
C1125 C1124 1.377 . S
C1125 C1131 1.390 . S
C1126 H1117 0.930 . S
C1126 C1124 1.384 . S
C1126 C1127 1.372 . S
C1127 C1126 1.372 . S
C1127 C1128 1.400 . S
C1127 C1132 1.490 . S
C1128 H1118 0.930 . S
C1128 C1127 1.400 . S
C1128 C1131 1.386 . S
H1129 C1145 0.930 . S
H1130 C1146 0.931 . S
C1131 H1119 0.929 1_556 S
C1131 C1125 1.390 . S
C1131 C1128 1.386 . S
C1132 C1127 1.490 . S
C1132 C1134 1.395 . S
C1132 C1135 1.403 . S
H1133 C1139 0.930 . S
C1134 H1120 0.930 . S
C1134 C1132 1.395 . S
C1134 C1137 1.403 . S
C1135 C1132 1.403 . S
C1135 C1136 1.524 . S
C1135 C1139 1.400 . S
C1136 H1121 0.960 . S
C1136 H1122 0.960 . S
C1136 H1123 0.960 . S
C1136 C1135 1.524 . S
C1137 C1134 1.403 . S
C1137 C1138 1.392 . S
C1137 C1141 1.495 . S
C1138 C1137 1.392 . S
C1138 C1139 1.385 . S
C1138 C1140 1.478 . S
C1139 H1133 0.930 . S
C1139 C1135 1.400 . S
C1139 C1138 1.385 . S
C1140 C1138 1.478 . S
C1140 C1142 1.381 . S
C1140 C1146 1.383 . S
C1141 C1137 1.495 . S
C1141 H1147 0.959 . S
C1141 H1148 0.961 . S
C1141 H1149 0.960 . S
C1142 C1140 1.381 . S
C1142 C1143 1.394 . S
C1142 H1150 0.930 . S
C1143 C1142 1.394 . S
C1143 C1144 1.383 . S
C1143 H1151 0.929 . S
C1144 C1143 1.383 . S
C1144 C1145 1.377 . S
C1145 H1129 0.930 . S
C1145 C1144 1.377 . S
C1145 C1146 1.379 . S
C1146 H1130 0.931 . S
C1146 C1140 1.383 . S
C1146 C1145 1.379 . S
H1147 C1141 0.959 . S
H1148 C1141 0.961 . S
H1149 C1141 0.960 . S
H1150 C1142 0.930 . S
H1151 C1143 0.929 . S
H1152 C1160 0.929 . S
H1153 C1162 0.930 . S
H1154 C1164 0.930 . S
H1155 C1167 0.929 . S
H1156 C1170 0.930 . S
H1157 C1172 0.960 . S
H1158 C1172 0.960 . S
H1159 C1172 0.960 . S
C1160 H1152 0.929 . S
C1160 C1161 1.377 . S
C1160 C1162 1.384 . S
C1161 C1160 1.377 . S
C1161 C1167 1.390 . S
C1162 H1153 0.930 . S
C1162 C1160 1.384 . S
C1162 C1163 1.372 . S
C1163 C1162 1.372 . S
C1163 C1164 1.400 . S
C1163 C1168 1.490 . S
C1164 H1154 0.930 . S
C1164 C1163 1.400 . S
C1164 C1167 1.386 . S
H1165 C1181 0.930 . S
H1166 C1182 0.931 . S
C1167 H1155 0.929 . S
C1167 C1161 1.390 . S
C1167 C1164 1.386 . S
C1168 C1163 1.490 . S
C1168 C1170 1.395 . S
C1168 C1171 1.403 . S
H1169 C1175 0.930 . S
C1170 H1156 0.930 . S
C1170 C1168 1.395 . S
C1170 C1173 1.403 . S
C1171 C1168 1.403 . S
C1171 C1172 1.524 . S
C1171 C1175 1.400 . S
C1172 H1157 0.960 . S
C1172 H1158 0.960 . S
C1172 H1159 0.960 . S
C1172 C1171 1.524 . S
C1173 C1170 1.403 . S
C1173 C1174 1.392 . S
C1173 C1177 1.495 . S
C1174 C1173 1.392 . S
C1174 C1175 1.385 . S
C1174 C1176 1.478 . S
C1175 H1169 0.930 . S
C1175 C1171 1.400 . S
C1175 C1174 1.385 . S
C1176 C1174 1.478 . S
C1176 C1178 1.381 . S
C1176 C1182 1.383 . S
C1177 C1173 1.495 . S
C1177 H1183 0.959 . S
C1177 H1184 0.961 . S
C1177 H1185 0.960 . S
C1178 C1176 1.381 . S
C1178 C1179 1.394 . S
C1178 H1186 0.930 . S
C1179 C1178 1.394 . S
C1179 C1180 1.383 . S
C1179 H1187 0.929 . S
C1180 C1179 1.383 . S
C1180 C1181 1.377 . S
C1181 H1165 0.930 . S
C1181 C1180 1.377 . S
C1181 C1182 1.379 . S
C1182 H1166 0.931 . S
C1182 C1176 1.383 . S
C1182 C1181 1.379 . S
H1183 C1177 0.959 . S
H1184 C1177 0.961 . S
H1185 C1177 0.960 . S
H1186 C1178 0.930 . S
H1187 C1179 0.929 . S
H1188 C1196 0.929 . S
H1189 C1198 0.930 . S
H1190 C1200 0.930 . S
H1191 C1203 0.929 . S
H1192 C1206 0.930 . S
H1193 C1208 0.960 . S
H1194 C1208 0.960 . S
H1195 C1208 0.960 . S
C1196 H1188 0.929 . S
C1196 C1197 1.377 . S
C1196 C1198 1.384 . S
C1197 C1196 1.377 . S
C1197 C1203 1.390 . S
C1198 H1189 0.930 . S
C1198 C1196 1.384 . S
C1198 C1199 1.372 . S
C1199 C1198 1.372 . S
C1199 C1200 1.400 . S
C1199 C1204 1.490 . S
C1200 H1190 0.930 . S
C1200 C1199 1.400 . S
C1200 C1203 1.386 . S
H1201 C1217 0.930 . S
H1202 C1218 0.931 . S
C1203 H1191 0.929 . S
C1203 C1197 1.390 . S
C1203 C1200 1.386 . S
C1204 C1199 1.490 . S
C1204 C1206 1.395 . S
C1204 C1207 1.403 . S
H1205 C1211 0.930 . S
C1206 H1192 0.930 . S
C1206 C1204 1.395 . S
C1206 C1209 1.403 . S
C1207 C1204 1.403 . S
C1207 C1208 1.524 . S
C1207 C1211 1.400 . S
C1208 H1193 0.960 . S
C1208 H1194 0.960 . S
C1208 H1195 0.960 . S
C1208 C1207 1.524 . S
C1209 C1206 1.403 . S
C1209 C1210 1.392 . S
C1209 C1213 1.495 . S
C1210 C1209 1.392 . S
C1210 C1211 1.385 . S
C1210 C1212 1.478 . S
C1211 H1205 0.930 . S
C1211 C1207 1.400 . S
C1211 C1210 1.385 . S
C1212 C1210 1.478 . S
C1212 C1214 1.381 . S
C1212 C1218 1.383 . S
C1213 C1209 1.495 . S
C1213 H1219 0.959 . S
C1213 H1220 0.961 . S
C1213 H1221 0.960 . S
C1214 C1212 1.381 . S
C1214 C1215 1.394 . S
C1214 H1222 0.930 . S
C1215 C1214 1.394 . S
C1215 C1216 1.383 . S
C1215 H1223 0.929 . S
C1216 C1215 1.383 . S
C1216 C1217 1.377 . S
C1217 H1201 0.930 . S
C1217 C1216 1.377 . S
C1217 C1218 1.379 . S
C1218 H1202 0.931 . S
C1218 C1212 1.383 . S
C1218 C1217 1.379 . S
H1219 C1213 0.959 . S
H1220 C1213 0.961 . S
H1221 C1213 0.960 . S
H1222 C1214 0.930 . S
H1223 C1215 0.929 . S
H1224 C1232 0.929 . S
H1225 C1234 0.930 . S
H1226 C1236 0.930 . S
H1227 C1239 0.929 . S
H1228 C1242 0.930 . S
H1229 C1244 0.960 . S
H1230 C1244 0.960 . S
H1231 C1244 0.960 . S
C1232 H1224 0.929 . S
C1232 C1233 1.377 . S
C1232 C1234 1.384 . S
C1233 C1232 1.377 . S
C1233 C1239 1.390 . S
C1234 H1225 0.930 . S
C1234 C1232 1.384 . S
C1234 C1235 1.372 . S
C1235 C1234 1.372 . S
C1235 C1236 1.400 . S
C1235 C1240 1.490 . S
C1236 H1226 0.930 . S
C1236 C1235 1.400 . S
C1236 C1239 1.386 . S
H1237 C1253 0.930 . S
H1238 C1254 0.931 . S
C1239 H1227 0.929 . S
C1239 C1233 1.390 . S
C1239 C1236 1.386 . S
C1240 C1235 1.490 . S
C1240 C1242 1.395 . S
C1240 C1243 1.403 . S
H1241 C1247 0.930 . S
C1242 H1228 0.930 . S
C1242 C1240 1.395 . S
C1242 C1245 1.403 . S
C1243 C1240 1.403 . S
C1243 C1244 1.524 . S
C1243 C1247 1.400 . S
C1244 H1229 0.960 . S
C1244 H1230 0.960 . S
C1244 H1231 0.960 . S
C1244 C1243 1.524 . S
C1245 C1242 1.403 . S
C1245 C1246 1.392 . S
C1245 C1249 1.495 . S
C1246 C1245 1.392 . S
C1246 C1247 1.385 . S
C1246 C1248 1.478 . S
C1247 H1241 0.930 . S
C1247 C1243 1.400 . S
C1247 C1246 1.385 . S
C1248 C1246 1.478 . S
C1248 C1250 1.381 . S
C1248 C1254 1.383 . S
C1249 C1245 1.495 . S
C1249 H1255 0.959 . S
C1249 H1256 0.961 . S
C1249 H1257 0.960 . S
C1250 C1248 1.381 . S
C1250 C1251 1.394 . S
C1250 H1258 0.930 . S
C1251 C1250 1.394 . S
C1251 C1252 1.383 . S
C1251 H1259 0.929 . S
C1252 C1251 1.383 . S
C1252 C1253 1.377 . S
C1253 H1237 0.930 . S
C1253 C1252 1.377 . S
C1253 C1254 1.379 . S
C1254 H1238 0.931 . S
C1254 C1248 1.383 . S
C1254 C1253 1.379 . S
H1255 C1249 0.959 . S
H1256 C1249 0.961 . S
H1257 C1249 0.960 . S
H1258 C1250 0.930 . S
H1259 C1251 0.929 . S
H1260 C1268 0.929 . S
H1261 C1270 0.930 . S
H1262 C1272 0.930 . S
H1263 C1275 0.929 . S
H1264 C1278 0.930 . S
H1265 C1280 0.960 . S
H1266 C1280 0.960 . S
H1267 C1280 0.960 . S
C1268 H1260 0.929 . S
C1268 C1269 1.377 . S
C1268 C1270 1.384 . S
C1269 C1268 1.377 . S
C1269 C1275 1.390 . S
C1270 H1261 0.930 . S
C1270 C1268 1.384 . S
C1270 C1271 1.372 . S
C1271 C1270 1.372 . S
C1271 C1272 1.400 . S
C1271 C1276 1.490 . S
C1272 H1262 0.930 . S
C1272 C1271 1.400 . S
C1272 C1275 1.386 . S
H1273 C1289 0.930 . S
H1274 C1290 0.931 . S
C1275 H1263 0.929 . S
C1275 C1269 1.390 . S
C1275 C1272 1.386 . S
C1276 C1271 1.490 . S
C1276 C1278 1.395 . S
C1276 C1279 1.403 . S
H1277 C1283 0.930 . S
C1278 H1264 0.930 . S
C1278 C1276 1.395 . S
C1278 C1281 1.403 . S
C1279 C1276 1.403 . S
C1279 C1280 1.524 . S
C1279 C1283 1.400 . S
C1280 H1265 0.960 . S
C1280 H1266 0.960 . S
C1280 H1267 0.960 . S
C1280 C1279 1.524 . S
C1281 C1278 1.403 . S
C1281 C1282 1.392 . S
C1281 C1285 1.495 . S
C1282 C1281 1.392 . S
C1282 C1283 1.385 . S
C1282 C1284 1.478 . S
C1283 H1277 0.930 . S
C1283 C1279 1.400 . S
C1283 C1282 1.385 . S
C1284 C1282 1.478 . S
C1284 C1286 1.381 . S
C1284 C1290 1.383 . S
C1285 C1281 1.495 . S
C1285 H1291 0.959 . S
C1285 H1292 0.961 . S
C1285 H1293 0.960 . S
C1286 C1284 1.381 . S
C1286 C1287 1.394 . S
C1286 H1294 0.930 . S
C1287 C1286 1.394 . S
C1287 C1288 1.383 . S
C1287 H1295 0.929 . S
C1288 C1287 1.383 . S
C1288 C1289 1.377 . S
C1289 H1273 0.930 . S
C1289 C1288 1.377 . S
C1289 C1290 1.379 . S
C1290 H1274 0.931 . S
C1290 C1284 1.383 . S
C1290 C1289 1.379 . S
H1291 C1285 0.959 . S
H1292 C1285 0.961 . S
H1293 C1285 0.960 . S
H1294 C1286 0.930 . S
H1295 C1287 0.929 . S
C441 C374 1.562 . S
C460 C14 1.515 . S
C477 C50 1.398 . S
C496 C410 1.389 . S
C513 C86 1.564 . S
C532 C230 1.556 . S
C549 C266 1.558 . S
C568 C122 1.542 . S
C585 C302 1.398 . S
C604 C158 1.394 . S
C621 C194 1.556 . S
C640 C338 1.521 . S
C657 C4 0.775 . S
C676 C256 0.752 . S
C693 C40 0.540 . S
C712 C292 0.566 . S
C729 C328 0.770 . S
C748 C76 0.757 . S
C765 C364 0.777 . S
C784 C112 0.795 . S
C801 C400 0.536 . S
C820 C148 0.529 . S
C837 C220 0.784 . S
C856 C184 0.807 . S
C873 C2 0.649 . S
C892 C147 0.652 . S
C909 C38 0.746 . S
C928 C183 0.727 . S
C945 C74 0.656 . S
C964 C3 0.596 . S
C981 C110 0.644 . S
C1000 C39 0.605 . S
C1017 C146 0.748 . S
C1036 C75 0.735 . S
C1053 C182 0.640 . S
C1072 C111 0.663 . S
C1089 C218 0.633 . S
C1108 C291 0.638 . S
C1125 C254 0.658 . S
C1144 C327 0.595 . S
C1161 C363 0.735 . S
C1180 C290 0.783 . S
C1197 C326 0.639 . S
C1216 C399 0.611 . S
C1233 C362 0.664 . S
C1252 C219 0.650 . S
C1269 C398 0.745 . S
C1288 C255 0.726 . S
