# Generated by pormake.
# Topology sma, (6)-cn, num edge types: 1
# Building blocks:
#     Node 0, Type 0, BuildingBlock: PAMTOO_clean_sbu_0, # of connection points: 6
#     Node 1, Type 0, BuildingBlock: PAMTOO_clean_sbu_0, # of connection points: 6
#     Node 2, Type 0, BuildingBlock: PAMTOO_clean_sbu_0, # of connection points: 6
#     Edge 3, Type (0, 0), BuildingBlock: XIVTED_clean_linker_0, # of connection points: 2
#     Edge 4, Type (0, 0), BuildingBlock: XIVTED_clean_linker_0, # of connection points: 2
#     Edge 5, Type (0, 0), BuildingBlock: XIVTED_clean_linker_0, # of connection points: 2
#     Edge 6, Type (0, 0), BuildingBlock: XIVTED_clean_linker_0, # of connection points: 2
#     Edge 7, Type (0, 0), BuildingBlock: XIVTED_clean_linker_0, # of connection points: 2
#     Edge 8, Type (0, 0), BuildingBlock: XIVTED_clean_linker_0, # of connection points: 2
#     Edge 9, Type (0, 0), BuildingBlock: XIVTED_clean_linker_0, # of connection points: 2
#     Edge 10, Type (0, 0), BuildingBlock: XIVTED_clean_linker_0, # of connection points: 2
#     Edge 11, Type (0, 0), BuildingBlock: XIVTED_clean_linker_0, # of connection points: 2
# Relax obj value: 0.153
# Max RMSD: 0.233
# Mean RMSD: 0.209
data_MOF--net-sma--node1-PAMTOO_clean_sbu_0--edge1-XIVTED_clean_linker_0
_symmetry_space_group_name_H-M    P1
_symmetry_Int_Tables_number       1
_symmetry_cell_setting            triclinic
loop_
_symmetry_equiv_pos_as_xyz
'x, y, z'
_cell_length_a     31.024403
_cell_length_b     40.998183
_cell_length_c     13.743674
_cell_angle_alpha  90.918281
_cell_angle_beta   98.997881
_cell_angle_gamma 96.617705
loop_
_atom_site_label
_atom_site_type_symbol
_atom_site_fract_x
_atom_site_fract_y
_atom_site_fract_z
_atom_type_partial_charge
Dy0 Dy 0.07514 0.55586 0.0296 0.0
Dy1 Dy 0.05614 0.47234 -0.01343 0.0
C2 C 1.02996 0.52287 0.82043 0.0
O3 O 1.00306 0.54386 0.0328 0.0
O4 O 0.98932 0.48849 -0.01529 0.0
O5 O 0.09515 0.60461 -0.01528 0.0
O6 O 0.07683 0.5974 0.12982 0.0
O7 O 1.04247 0.48484 0.13274 0.0
O8 O 0.094 0.52888 0.16455 0.0
O9 O 0.12932 0.48633 -0.00633 0.0
O10 O 0.13509 0.54253 -0.02441 0.0
O11 O 0.07222 0.42545 0.0409 0.0
O12 O 1.0229 0.42723 0.91126 0.0
C13 C 0.97601 0.51676 0.00705 0.0
O14 O 1.03412 0.54768 0.88361 0.0
O15 O 1.04596 0.49483 0.8401 0.0
C16 C 0.12992 0.64267 0.11337 0.0
C17 C 0.19594 0.69423 0.18664 0.0
C18 C 0.20179 0.67298 0.10966 0.0
C19 C 0.16914 0.64739 0.07343 0.0
C20 C 0.12463 0.66322 0.19211 0.0
C21 C 0.15733 0.68868 0.22864 0.0
C22 C 0.09297 0.6182 0.07012 0.0
C23 C 0.06434 0.50765 0.1936 0.0
C24 C 0.15203 0.51456 -0.02176 0.0
C25 C 1.01059 0.38466 0.02319 0.0
C26 C 0.95618 0.33685 0.11097 0.0
C27 C 0.9701 0.36815 0.15666 0.0
C28 C 0.99685 0.39176 0.11321 0.0
C29 C 0.99617 0.3538 -0.02354 0.0
C30 C 0.9693 0.3302 0.01964 0.0
C31 C 1.04078 0.4088 -0.02085 0.0
H32 H 0.23144 0.67635 0.07671 0.0
H33 H 0.17428 0.63179 0.01295 0.0
H34 H 0.0946 0.66013 0.22373 0.0
H35 H 0.15159 0.70479 0.28731 0.0
H36 H 0.96021 0.37451 0.226 0.0
H37 H 1.00717 0.41549 0.15055 0.0
H38 H 1.00626 0.34774 0.90704 0.0
H39 H 0.95977 0.30638 -0.01753 0.0
Dy40 Dy 0.54046 0.0228 0.54164 0.0
Dy41 Dy 0.6501 0.04698 0.57718 0.0
C42 C 0.58926 0.06451 0.73058 0.0
O43 O 0.54627 0.07522 0.49388 0.0
O44 O 0.61972 0.09335 0.54988 0.0
O45 O 0.48107 1.0024 0.59248 0.0
O46 O 0.48007 1.01362 0.43797 0.0
O47 O 0.61993 0.04195 0.42251 0.0
O48 O 0.57173 0.99729 0.43372 0.0
O49 O 0.64279 0.99265 0.60788 0.0
O50 O 0.57165 0.98693 0.64127 0.0
O51 O 0.71088 0.04517 0.51985 0.0
O52 O 0.7097 0.07631 0.64779 0.0
C53 C 0.57935 0.09891 0.51512 0.0
O54 O 0.55331 0.05904 0.66573 0.0
O55 O 0.62635 0.05334 0.71902 0.0
C56 C 0.43492 0.96616 0.4727 0.0
C57 C 0.38939 0.90377 0.41019 0.0
C58 C 0.42055 0.90746 0.49694 0.0
C59 C 0.44304 0.93831 0.52794 0.0
C60 C 0.40407 0.9625 0.38582 0.0
C61 C 0.38156 0.93165 0.35477 0.0
C62 C 0.4588 0.99895 0.50313 0.0
C63 C 0.59813 1.01448 0.38451 0.0
C64 C 0.6092 0.97524 0.63866 0.0
C65 C 0.75283 0.0976 0.53046 0.0
C66 C 0.79315 0.15266 0.44111 0.0
C67 C 0.74929 0.13957 0.4063 0.0
C68 C 0.72935 0.11244 0.45063 0.0
C69 C 0.79641 0.11053 0.56556 0.0
C70 C 0.81635 0.13769 0.52151 0.0
C71 C 0.73179 0.06921 0.5785 0.0
H72 H 0.4278 0.88644 0.54065 0.0
H73 H 0.46675 0.94029 0.59512 0.0
H74 H 0.39728 0.98359 0.34195 0.0
H75 H 0.35741 0.92977 0.28827 0.0
H76 H 0.73007 0.15057 0.34564 0.0
H77 H 0.69547 0.1031 0.42274 0.0
H78 H 0.81511 0.09957 0.62714 0.0
H79 H 0.85027 0.14665 0.54976 0.0
Dy80 Dy 0.56482 0.56697 0.85961 0.0
Dy81 Dy 0.55236 0.48228 0.88473 0.0
C82 C 0.5949 0.53298 0.06286 0.0
O83 O 0.63286 0.55193 0.86512 0.0
O84 O 0.62451 0.49538 0.88843 0.0
O85 O 0.56171 0.61728 0.90819 0.0
O86 O 0.57982 0.60681 0.76353 0.0
O87 O 0.57359 0.49262 0.74253 0.0
O88 O 0.53909 0.53815 0.72118 0.0
O89 O 0.48562 0.49929 0.86614 0.0
O90 O 0.49853 0.55482 0.90605 0.0
O91 O 0.51424 0.43701 0.82727 0.0
O92 O 0.56613 0.43618 0.95275 0.0
C93 C 0.64891 0.52349 0.87957 0.0
O94 O 0.60062 0.5579 0.00589 0.0
O95 O 0.5686 0.50561 0.03554 0.0
C96 C 0.5787 0.66479 0.80844 0.0
C97 C 0.59026 0.733 0.77189 0.0
C98 C 0.59264 0.72199 0.86886 0.0
C99 C 0.58661 0.68828 0.88686 0.0
C100 C 0.57676 0.67574 0.71169 0.0
C101 C 0.58216 0.7094 0.6936 0.0
C102 C 0.57364 0.62907 0.82737 0.0
C103 C 0.56323 0.51741 0.68957 0.0
C104 C 0.47217 0.52694 0.89205 0.0
C105 C 0.54784 0.38798 0.84631 0.0
C106 C 0.55639 0.32653 0.75795 0.0
C107 C 0.56369 0.3559 0.70789 0.0
C108 C 0.55933 0.38631 0.7515 0.0
C109 C 0.54226 0.35893 0.89774 0.0
C110 C 0.54647 0.32857 0.85422 0.0
C111 C 0.53655 0.41876 0.88846 0.0
H112 H 0.59842 0.73947 0.93078 0.0
H113 H 0.58853 0.68059 0.9623 0.0
H114 H 0.57087 0.65826 0.64973 0.0
H115 H 0.58045 0.71698 0.61809 0.0
H116 H 0.57115 0.35529 0.63355 0.0
H117 H 0.56357 0.40838 0.70998 0.0
H118 H 0.53328 0.35958 -0.02922 0.0
H119 H 0.54147 0.30661 0.89576 0.0
H120 H 0.20086 0.46283 0.96253 0.0
H121 H 0.42444 0.57869 0.91669 0.0
H122 H 0.21135 0.56874 0.96317 0.0
H123 H 0.41183 0.47275 0.8977 0.0
H124 H 0.34689 0.57557 0.93703 0.0
H125 H 0.27832 0.4659 0.94169 0.0
C126 C 0.2193 0.48672 0.95837 0.0
C127 C 0.19915 0.51552 0.96469 0.0
C128 C 0.36112 0.553 0.92839 0.0
C129 C 0.28836 0.51926 0.94101 0.0
C130 C 0.40552 0.55479 0.91687 0.0
C131 C 0.42501 0.526 0.90496 0.0
C132 C 0.33583 0.52219 0.92878 0.0
C133 C 0.39847 0.49571 0.90585 0.0
C134 C 0.26363 0.48847 0.94637 0.0
C135 C 0.22508 0.54577 0.95851 0.0
N136 N 0.35553 0.49463 0.91763 0.0
N137 N 0.26808 0.54681 0.94727 0.0
H138 H 0.85139 0.20446 0.52989 0.0
H139 H 0.88844 0.29084 0.024 0.0
H140 H 0.7845 0.16721 0.24378 0.0
H141 H 0.96188 0.32356 0.30857 0.0
H142 H 0.84718 0.24739 0.10359 0.0
H143 H 0.88892 0.24994 0.45089 0.0
C144 C 0.84464 0.20567 0.4504 0.0
C145 C 0.81484 0.18153 0.39375 0.0
C146 C 0.87225 0.26412 0.1487 0.0
C147 C 0.85769 0.23421 0.30228 0.0
C148 C 0.89609 0.28892 0.10315 0.0
C149 C 0.92911 0.31103 0.15916 0.0
C150 C 0.88128 0.26116 0.25143 0.0
C151 C 0.93658 0.30749 0.26196 0.0
C152 C 0.86599 0.23186 0.40529 0.0
C153 C 0.80686 0.18517 0.291 0.0
N154 N 0.91308 0.28306 0.30444 0.0
N155 N 0.82822 0.21082 0.24878 0.0
H156 H 0.67893 0.9431 0.72664 0.0
H157 H 0.53978 0.76533 0.63287 0.0
H158 H 0.54188 0.9266 0.59887 0.0
H159 H 0.65149 0.78254 0.86511 0.0
H160 H 0.54715 0.82396 0.60057 0.0
H161 H 0.67638 0.88386 0.76109 0.0
C162 C 0.64845 0.9271 0.70581 0.0
C163 C 0.61041 0.9399 0.66092 0.0
C164 C 0.57013 0.81497 0.65862 0.0
C165 C 0.60748 0.87243 0.69796 0.0
C166 C 0.56608 0.78141 0.67673 0.0
C167 C 0.59502 0.76888 0.75186 0.0
C168 C 0.60375 0.83643 0.71502 0.0
C169 C 0.62821 0.79115 0.80699 0.0
C170 C 0.64695 0.89341 0.72575 0.0
C171 C 0.57179 0.91802 0.63524 0.0
N172 N 0.63183 0.82381 0.78722 0.0
N173 N 0.57141 0.88555 0.65344 0.0
H174 H 0.69389 0.46979 0.88778 0.0
H175 H 0.93306 0.57175 0.01365 0.0
H176 H 0.71452 0.57587 0.90232 0.0
H177 H 0.90911 0.46626 -0.03002 0.0
H178 H 0.85366 0.57429 -0.02037 0.0
H179 H 0.77295 0.46871 0.92153 0.0
C180 C 0.715 0.49295 0.89751 0.0
C181 C 0.69726 0.52299 0.89217 0.0
C182 C 0.86585 0.55061 -0.02216 0.0
C183 C 0.78856 0.52186 0.93183 0.0
C184 C 0.9112 0.54908 -0.00212 0.0
C185 C 0.92798 0.51869 -0.0051 0.0
C186 C 0.83699 0.52155 0.95501 0.0
C187 C 0.89791 0.49024 -0.02683 0.0
C188 C 0.76033 0.49228 0.91698 0.0
C189 C 0.7266 0.55211 0.90536 0.0
N190 N 0.85405 0.4924 0.95408 0.0
N191 N 0.77081 0.55083 0.92502 0.0
H192 H 0.35452 0.8572 0.52619 0.0
H193 H 0.23952 0.73649 0.07251 0.0
H194 H 0.36679 0.87606 0.22303 0.0
H195 H 0.22648 0.71823 0.37554 0.0
H196 H 0.28969 0.78602 0.12694 0.0
H197 H 0.31108 0.80469 0.47316 0.0
C198 C 0.34846 0.85018 0.44852 0.0
C199 C 0.36429 0.87119 0.37898 0.0
C200 C 0.27608 0.7711 0.18164 0.0
C201 C 0.31398 0.81113 0.3175 0.0
C202 C 0.24766 0.74266 0.15066 0.0
C203 C 0.22871 0.72316 0.21957 0.0
C204 C 0.28572 0.78017 0.28237 0.0
C205 C 0.23988 0.73273 0.31975 0.0
C206 C 0.32339 0.82024 0.4182 0.0
C207 C 0.35475 0.86092 0.27912 0.0
N208 N 0.26754 0.76058 0.34807 0.0
N209 N 0.33015 0.83168 0.2514 0.0
H210 H 0.61473 0.3088 0.64022 0.0
H211 H 0.50431 0.12147 0.55634 0.0
H212 H 0.50083 0.26952 0.76384 0.0
H213 H 0.63412 0.15494 0.49598 0.0
H214 H 0.49625 0.17779 0.60632 0.0
H215 H 0.6165 0.25471 0.56346 0.0
C216 C 0.58992 0.28891 0.65082 0.0
C217 C 0.55777 0.29382 0.70938 0.0
C218 C 0.52619 0.17293 0.58041 0.0
C219 C 0.55958 0.23167 0.62122 0.0
C220 C 0.53056 0.14083 0.55045 0.0
C221 C 0.56986 0.13348 0.52119 0.0
C222 C 0.56118 0.19799 0.58021 0.0
C223 C 0.60322 0.15951 0.51772 0.0
C224 C 0.59106 0.25797 0.60723 0.0
C225 C 0.52669 0.26688 0.72083 0.0
N226 N 0.5982 0.19051 0.54725 0.0
N227 N 0.52838 0.23708 0.6773 0.0
H228 H 0.97554 0.47739 0.70026 0.0
H229 H 0.07098 0.56675 0.29443 0.0
H230 H 1.02913 0.57953 0.7212 0.0
H231 H 1.00577 0.46735 0.2747 0.0
H232 H 1.02951 0.57951 0.424 0.0
H233 H 0.95269 0.48235 0.52393 0.0
C234 C 0.98218 0.5009 0.66723 0.0
C235 C 1.00713 0.52741 0.72208 0.0
C236 C 1.0238 0.55503 0.39016 0.0
C237 C 0.98357 0.53286 0.52239 0.0
C238 C 1.04821 0.5476 0.31782 0.0
C239 C 1.04313 0.51564 0.27698 0.0
C240 C 0.99537 0.52998 0.42364 0.0
C241 C 1.01186 0.49207 0.30679 0.0
C242 C 0.96875 0.50395 0.5671 0.0
C243 C 1.01225 0.55799 0.67896 0.0
N244 N 0.98966 0.4996 0.37931 0.0
N245 N 1.00206 0.55968 0.58005 0.0
H246 H 0.5195 1.01293 0.26765 0.0
H247 H 0.65467 0.09191 0.87309 0.0
H248 H 0.65872 1.01517 0.2667 0.0
H249 H 0.51405 0.06577 0.80914 0.0
H250 H 0.65174 0.084 0.04693 0.0
H251 H 0.51292 0.04239 0.11357 0.0
C252 C 0.54821 0.0182 0.2321 0.0
C253 C 0.58982 1.01223 0.27884 0.0
C254 C 0.62137 0.08075 -0.00508 0.0
C255 C 0.58313 0.04716 0.10958 0.0
C256 C 0.62301 0.0856 0.89625 0.0
C257 C 0.58506 0.0769 0.82758 0.0
C258 C 0.58181 0.06656 0.02197 0.0
C259 C 0.54447 0.07072 0.86046 0.0
C260 C 0.54472 0.03596 0.14669 0.0
C261 C 0.6262 0.01961 0.23182 0.0
N262 N 0.54398 0.06408 0.95618 0.0
N263 N 0.62222 0.03748 0.15025 0.0
H264 H 0.56823 0.57474 0.59023 0.0
H265 H 0.62814 0.48518 0.17575 0.0
H266 H 0.62311 0.48262 0.62384 0.0
H267 H 0.62008 0.58948 0.17346 0.0
H268 H 0.65514 0.49008 0.35199 0.0
H269 H 0.61155 0.58819 0.46053 0.0
C270 C 0.58944 0.55738 0.57049 0.0
C271 C 0.5902 0.52678 0.61385 0.0
C272 C 0.64835 0.51213 0.313 0.0
C273 C 0.63946 0.5417 0.46508 0.0
C274 C 0.63226 0.50913 0.21283 0.0
C275 C 0.61888 0.53654 0.16296 0.0
C276 C 0.6482 0.54229 0.36315 0.0
C277 C 0.62772 0.56743 0.2115 0.0
C278 C 0.61484 0.56526 0.4975 0.0
C279 C 0.61976 0.50583 0.58865 0.0
N280 N 0.64044 0.56938 0.31033 0.0
N281 N 0.64245 0.51333 0.51413 0.0
loop_
_geom_bond_atom_site_label_1
_geom_bond_atom_site_label_2
_geom_bond_distance
_geom_bond_site_symmetry_2
_ccdc_geom_bond_type
Dy0 O3 2.307 1_455 S
Dy0 O5 2.395 . S
Dy0 O6 2.379 . S
Dy0 O8 2.339 . S
Dy0 O10 2.298 . S
Dy0 O14 2.275 . S
Dy0 C22 2.738 . S
Dy1 O4 2.298 1_455 S
Dy1 O7 2.275 . S
Dy1 O9 2.307 . S
Dy1 O11 2.395 1_455 S
Dy1 O12 2.379 1_455 S
Dy1 O15 2.339 1_554 S
Dy1 C31 2.738 1_455 S
C2 O14 1.254 1_556 S
C2 O15 1.257 . S
O3 Dy0 2.307 1_655 S
O3 C13 1.266 . S
O4 Dy1 2.298 1_655 S
O4 C13 1.236 . S
O5 Dy0 2.395 . S
O5 C22 1.255 . S
O6 Dy0 2.379 . S
O6 C22 1.249 . S
O7 Dy1 2.275 . S
O7 C23 1.254 . S
O8 Dy0 2.339 . S
O8 C23 1.257 . S
O9 Dy1 2.307 . S
O9 C24 1.266 . S
O10 Dy0 2.298 . S
O10 C24 1.236 . S
O11 Dy1 2.395 1_655 S
O11 C31 1.255 . S
O12 Dy1 2.379 1_655 S
O12 C31 1.249 . S
C13 O3 1.266 . S
C13 O4 1.236 . S
O14 Dy0 2.275 . S
O14 C2 1.254 1_554 S
O15 Dy1 2.339 1_556 S
O15 C2 1.257 . S
C16 C19 1.344 . S
C16 C20 1.328 . S
C16 C22 1.516 . S
C17 C18 1.304 . S
C17 C21 1.323 . S
C18 C17 1.304 . S
C18 C19 1.371 . S
C18 H32 0.930 1_554 S
C19 C16 1.344 . S
C19 C18 1.371 . S
C19 H33 0.931 1_554 S
C20 C16 1.328 . S
C20 C21 1.433 . S
C20 H34 0.931 . S
C21 C17 1.323 . S
C21 C20 1.433 . S
C21 H35 0.933 . S
C22 Dy0 2.738 . S
C22 O5 1.255 . S
C22 O6 1.249 . S
C22 C16 1.516 . S
C23 O7 1.254 . S
C23 O8 1.257 . S
C24 O9 1.266 . S
C24 O10 1.236 . S
C25 C28 1.344 . S
C25 C29 1.328 . S
C25 C31 1.516 . S
C26 C27 1.304 . S
C26 C30 1.323 . S
C27 C26 1.304 . S
C27 C28 1.371 . S
C27 H36 0.930 . S
C28 C25 1.344 . S
C28 C27 1.371 . S
C28 H37 0.931 . S
C29 C25 1.328 . S
C29 C30 1.433 . S
C29 H38 0.931 1_554 S
C30 C26 1.323 . S
C30 C29 1.433 . S
C30 H39 0.933 . S
C31 Dy1 2.738 1_655 S
C31 O11 1.255 . S
C31 O12 1.249 . S
C31 C25 1.516 . S
H32 C18 0.930 1_556 S
H33 C19 0.931 1_556 S
H34 C20 0.931 . S
H35 C21 0.933 . S
H36 C27 0.930 . S
H37 C28 0.931 . S
H38 C29 0.931 1_556 S
H39 C30 0.933 . S
Dy40 O43 2.307 1_565 S
Dy40 O45 2.395 . S
Dy40 O46 2.379 . S
Dy40 O48 2.339 1_565 S
Dy40 O50 2.298 . S
Dy40 O54 2.275 1_565 S
Dy40 C62 2.738 . S
Dy41 O44 2.298 . S
Dy41 O47 2.275 . S
Dy41 O49 2.307 1_545 S
Dy41 O51 2.395 . S
Dy41 O52 2.379 . S
Dy41 O55 2.339 . S
Dy41 C71 2.738 . S
C42 O54 1.254 . S
C42 O55 1.257 . S
O43 Dy40 2.307 1_545 S
O43 C53 1.266 . S
O44 Dy41 2.298 . S
O44 C53 1.236 . S
O45 Dy40 2.395 . S
O45 C62 1.255 . S
O46 Dy40 2.379 . S
O46 C62 1.249 . S
O47 Dy41 2.275 . S
O47 C63 1.254 . S
O48 Dy40 2.339 1_545 S
O48 C63 1.257 . S
O49 Dy41 2.307 1_565 S
O49 C64 1.266 . S
O50 Dy40 2.298 . S
O50 C64 1.236 . S
O51 Dy41 2.395 . S
O51 C71 1.255 . S
O52 Dy41 2.379 . S
O52 C71 1.249 . S
C53 O43 1.266 . S
C53 O44 1.236 . S
O54 Dy40 2.275 1_545 S
O54 C42 1.254 . S
O55 Dy41 2.339 . S
O55 C42 1.257 . S
C56 C59 1.344 . S
C56 C60 1.328 . S
C56 C62 1.516 . S
C57 C58 1.304 . S
C57 C61 1.323 . S
C58 C57 1.304 . S
C58 C59 1.371 . S
C58 H72 0.930 . S
C59 C56 1.344 . S
C59 C58 1.371 . S
C59 H73 0.931 . S
C60 C56 1.328 . S
C60 C61 1.433 . S
C60 H74 0.931 . S
C61 C57 1.323 . S
C61 C60 1.433 . S
C61 H75 0.933 . S
C62 Dy40 2.738 . S
C62 O45 1.255 . S
C62 O46 1.249 . S
C62 C56 1.516 . S
C63 O47 1.254 . S
C63 O48 1.257 . S
C64 O49 1.266 . S
C64 O50 1.236 . S
C65 C68 1.344 . S
C65 C69 1.328 . S
C65 C71 1.516 . S
C66 C67 1.304 . S
C66 C70 1.323 . S
C67 C66 1.304 . S
C67 C68 1.371 . S
C67 H76 0.930 . S
C68 C65 1.344 . S
C68 C67 1.371 . S
C68 H77 0.931 . S
C69 C65 1.328 . S
C69 C70 1.433 . S
C69 H78 0.931 . S
C70 C66 1.323 . S
C70 C69 1.433 . S
C70 H79 0.933 . S
C71 Dy41 2.738 . S
C71 O51 1.255 . S
C71 O52 1.249 . S
C71 C65 1.516 . S
H72 C58 0.930 . S
H73 C59 0.931 . S
H74 C60 0.931 . S
H75 C61 0.933 . S
H76 C67 0.930 . S
H77 C68 0.931 . S
H78 C69 0.931 . S
H79 C70 0.933 . S
Dy80 O83 2.307 . S
Dy80 O85 2.395 . S
Dy80 O86 2.379 . S
Dy80 O88 2.339 . S
Dy80 O90 2.298 . S
Dy80 O94 2.275 . S
Dy80 C102 2.738 . S
Dy81 O84 2.298 . S
Dy81 O87 2.275 . S
Dy81 O89 2.307 . S
Dy81 O91 2.395 . S
Dy81 O92 2.379 . S
Dy81 O95 2.339 1_556 S
Dy81 C111 2.738 . S
C82 O94 1.254 1_554 S
C82 O95 1.257 . S
O83 Dy80 2.307 . S
O83 C93 1.266 . S
O84 Dy81 2.298 . S
O84 C93 1.236 . S
O85 Dy80 2.395 . S
O85 C102 1.255 . S
O86 Dy80 2.379 . S
O86 C102 1.249 . S
O87 Dy81 2.275 . S
O87 C103 1.254 . S
O88 Dy80 2.339 . S
O88 C103 1.257 . S
O89 Dy81 2.307 . S
O89 C104 1.266 . S
O90 Dy80 2.298 . S
O90 C104 1.236 . S
O91 Dy81 2.395 . S
O91 C111 1.255 . S
O92 Dy81 2.379 . S
O92 C111 1.249 . S
C93 O83 1.266 . S
C93 O84 1.236 . S
O94 Dy80 2.275 . S
O94 C82 1.254 1_556 S
O95 Dy81 2.339 1_554 S
O95 C82 1.257 . S
C96 C99 1.344 . S
C96 C100 1.328 . S
C96 C102 1.516 . S
C97 C98 1.304 . S
C97 C101 1.323 . S
C98 C97 1.304 . S
C98 C99 1.371 . S
C98 H112 0.930 1_556 S
C99 C96 1.344 . S
C99 C98 1.371 . S
C99 H113 0.931 1_556 S
C100 C96 1.328 . S
C100 C101 1.433 . S
C100 H114 0.931 . S
C101 C97 1.323 . S
C101 C100 1.433 . S
C101 H115 0.933 . S
C102 Dy80 2.738 . S
C102 O85 1.255 . S
C102 O86 1.249 . S
C102 C96 1.516 . S
C103 O87 1.254 . S
C103 O88 1.257 . S
C104 O89 1.266 . S
C104 O90 1.236 . S
C105 C108 1.344 . S
C105 C109 1.328 . S
C105 C111 1.516 . S
C106 C107 1.304 . S
C106 C110 1.323 . S
C107 C106 1.304 . S
C107 C108 1.371 . S
C107 H116 0.930 . S
C108 C105 1.344 . S
C108 C107 1.371 . S
C108 H117 0.931 . S
C109 C105 1.328 . S
C109 C110 1.433 . S
C109 H118 0.931 . S
C110 C106 1.323 . S
C110 C109 1.433 . S
C110 H119 0.933 . S
C111 Dy81 2.738 . S
C111 O91 1.255 . S
C111 O92 1.249 . S
C111 C105 1.516 . S
H112 C98 0.930 1_554 S
H113 C99 0.931 1_554 S
H114 C100 0.931 . S
H115 C101 0.933 . S
H116 C107 0.930 . S
H117 C108 0.931 . S
H118 C109 0.931 . S
H119 C110 0.933 . S
H120 C126 0.930 . S
H121 C130 0.930 1_554 S
H122 C135 0.929 . S
H123 C133 0.929 . S
H124 C128 0.929 . S
H125 C134 0.929 . S
C126 H120 0.930 . S
C126 C127 1.367 1_556 S
C126 C134 1.378 . S
C127 C126 1.367 1_554 S
C127 C135 1.433 . S
C128 H124 0.929 . S
C128 C130 1.378 1_554 S
C128 C132 1.350 1_554 S
C129 C132 1.463 1_554 S
C129 C134 1.350 1_554 S
C129 N137 1.427 . S
C130 H121 0.930 1_556 S
C130 C128 1.378 1_556 S
C130 C131 1.367 . S
C131 C130 1.367 . S
C131 C133 1.433 . S
C132 C128 1.350 1_556 S
C132 C129 1.463 1_556 S
C132 N136 1.427 . S
C133 H123 0.929 . S
C133 C131 1.433 . S
C133 N136 1.384 . S
C134 H125 0.929 . S
C134 C126 1.378 . S
C134 C129 1.350 1_556 S
C135 H122 0.929 . S
C135 C127 1.433 . S
C135 N137 1.384 . S
N136 C132 1.427 . S
N136 C133 1.384 . S
N137 C129 1.427 . S
N137 C135 1.384 . S
H138 C144 0.930 . S
H139 C148 0.930 . S
H140 C153 0.929 . S
H141 C151 0.929 . S
H142 C146 0.929 . S
H143 C152 0.929 . S
C144 H138 0.930 . S
C144 C145 1.367 . S
C144 C152 1.378 . S
C145 C144 1.367 . S
C145 C153 1.433 . S
C146 H142 0.929 . S
C146 C148 1.378 . S
C146 C150 1.350 . S
C147 C150 1.463 . S
C147 C152 1.350 . S
C147 N155 1.427 . S
C148 H139 0.930 . S
C148 C146 1.378 . S
C148 C149 1.367 . S
C149 C148 1.367 . S
C149 C151 1.433 . S
C150 C146 1.350 . S
C150 C147 1.463 . S
C150 N154 1.427 . S
C151 H141 0.929 . S
C151 C149 1.433 . S
C151 N154 1.384 . S
C152 H143 0.929 . S
C152 C144 1.378 . S
C152 C147 1.350 . S
C153 H140 0.929 . S
C153 C145 1.433 . S
C153 N155 1.384 . S
N154 C150 1.427 . S
N154 C151 1.384 . S
N155 C147 1.427 . S
N155 C153 1.384 . S
H156 C162 0.930 . S
H157 C166 0.930 . S
H158 C171 0.929 . S
H159 C169 0.929 . S
H160 C164 0.929 . S
H161 C170 0.929 . S
C162 H156 0.930 . S
C162 C163 1.367 . S
C162 C170 1.378 . S
C163 C162 1.367 . S
C163 C171 1.433 . S
C164 H160 0.929 . S
C164 C166 1.378 . S
C164 C168 1.350 . S
C165 C168 1.463 . S
C165 C170 1.350 . S
C165 N173 1.427 . S
C166 H157 0.930 . S
C166 C164 1.378 . S
C166 C167 1.367 . S
C167 C166 1.367 . S
C167 C169 1.433 . S
C168 C164 1.350 . S
C168 C165 1.463 . S
C168 N172 1.427 . S
C169 H159 0.929 . S
C169 C167 1.433 . S
C169 N172 1.384 . S
C170 H161 0.929 . S
C170 C162 1.378 . S
C170 C165 1.350 . S
C171 H158 0.929 . S
C171 C163 1.433 . S
C171 N173 1.384 . S
N172 C168 1.427 . S
N172 C169 1.384 . S
N173 C165 1.427 . S
N173 C171 1.384 . S
H174 C180 0.930 . S
H175 C184 0.930 . S
H176 C189 0.929 . S
H177 C187 0.929 . S
H178 C182 0.929 . S
H179 C188 0.929 . S
C180 H174 0.930 . S
C180 C181 1.367 . S
C180 C188 1.378 . S
C181 C180 1.367 . S
C181 C189 1.433 . S
C182 H178 0.929 . S
C182 C184 1.378 . S
C182 C186 1.350 . S
C183 C186 1.463 1_556 S
C183 C188 1.350 . S
C183 N191 1.427 . S
C184 H175 0.930 . S
C184 C182 1.378 . S
C184 C185 1.367 . S
C185 C184 1.367 . S
C185 C187 1.433 . S
C186 C182 1.350 . S
C186 C183 1.463 1_554 S
C186 N190 1.427 1_554 S
C187 H177 0.929 . S
C187 C185 1.433 . S
C187 N190 1.384 1_554 S
C188 H179 0.929 . S
C188 C180 1.378 . S
C188 C183 1.350 . S
C189 H176 0.929 . S
C189 C181 1.433 . S
C189 N191 1.384 . S
N190 C186 1.427 1_556 S
N190 C187 1.384 1_556 S
N191 C183 1.427 . S
N191 C189 1.384 . S
H192 C198 0.930 . S
H193 C202 0.930 . S
H194 C207 0.929 . S
H195 C205 0.929 . S
H196 C200 0.929 . S
H197 C206 0.929 . S
C198 H192 0.930 . S
C198 C199 1.367 . S
C198 C206 1.378 . S
C199 C198 1.367 . S
C199 C207 1.433 . S
C200 H196 0.929 . S
C200 C202 1.378 . S
C200 C204 1.350 . S
C201 C204 1.463 . S
C201 C206 1.350 . S
C201 N209 1.427 . S
C202 H193 0.930 . S
C202 C200 1.378 . S
C202 C203 1.367 . S
C203 C202 1.367 . S
C203 C205 1.433 . S
C204 C200 1.350 . S
C204 C201 1.463 . S
C204 N208 1.427 . S
C205 H195 0.929 . S
C205 C203 1.433 . S
C205 N208 1.384 . S
C206 H197 0.929 . S
C206 C198 1.378 . S
C206 C201 1.350 . S
C207 H194 0.929 . S
C207 C199 1.433 . S
C207 N209 1.384 . S
N208 C204 1.427 . S
N208 C205 1.384 . S
N209 C201 1.427 . S
N209 C207 1.384 . S
H210 C216 0.930 . S
H211 C220 0.930 . S
H212 C225 0.929 . S
H213 C223 0.929 . S
H214 C218 0.929 . S
H215 C224 0.929 . S
C216 H210 0.930 . S
C216 C217 1.367 . S
C216 C224 1.378 . S
C217 C216 1.367 . S
C217 C225 1.433 . S
C218 H214 0.929 . S
C218 C220 1.378 . S
C218 C222 1.350 . S
C219 C222 1.463 . S
C219 C224 1.350 . S
C219 N227 1.427 . S
C220 H211 0.930 . S
C220 C218 1.378 . S
C220 C221 1.367 . S
C221 C220 1.367 . S
C221 C223 1.433 . S
C222 C218 1.350 . S
C222 C219 1.463 . S
C222 N226 1.427 . S
C223 H213 0.929 . S
C223 C221 1.433 . S
C223 N226 1.384 . S
C224 H215 0.929 . S
C224 C216 1.378 . S
C224 C219 1.350 . S
C225 H212 0.929 . S
C225 C217 1.433 . S
C225 N227 1.384 . S
N226 C222 1.427 . S
N226 C223 1.384 . S
N227 C219 1.427 . S
N227 C225 1.384 . S
H228 C234 0.930 . S
H229 C238 0.930 . S
H230 C243 0.929 . S
H231 C241 0.929 . S
H232 C236 0.929 . S
H233 C242 0.929 . S
C234 H228 0.930 . S
C234 C235 1.367 1_655 S
C234 C242 1.378 . S
C235 C234 1.367 1_455 S
C235 C243 1.433 . S
C236 H232 0.929 . S
C236 C238 1.378 . S
C236 C240 1.350 . S
C237 C240 1.463 . S
C237 C242 1.350 1_455 S
C237 N245 1.427 . S
C238 H229 0.930 . S
C238 C236 1.378 . S
C238 C239 1.367 . S
C239 C238 1.367 . S
C239 C241 1.433 1_455 S
C240 C236 1.350 . S
C240 C237 1.463 . S
C240 N244 1.427 1_455 S
C241 H231 0.929 . S
C241 C239 1.433 1_655 S
C241 N244 1.384 . S
C242 H233 0.929 . S
C242 C234 1.378 . S
C242 C237 1.350 1_655 S
C243 H230 0.929 . S
C243 C235 1.433 . S
C243 N245 1.384 . S
N244 C240 1.427 1_655 S
N244 C241 1.384 . S
N245 C237 1.427 . S
N245 C243 1.384 . S
H246 C252 0.930 . S
H247 C256 0.930 . S
H248 C261 0.929 . S
H249 C259 0.929 . S
H250 C254 0.929 . S
H251 C260 0.929 . S
C252 H246 0.930 . S
C252 C253 1.367 1_565 S
C252 C260 1.378 . S
C253 C252 1.367 1_545 S
C253 C261 1.433 . S
C254 H250 0.929 . S
C254 C256 1.378 . S
C254 C258 1.350 . S
C255 C258 1.463 1_554 S
C255 C260 1.350 1_545 S
C255 N263 1.427 . S
C256 H247 0.930 . S
C256 C254 1.378 . S
C256 C257 1.367 . S
C257 C256 1.367 . S
C257 C259 1.433 1_545 S
C258 C254 1.350 . S
C258 C255 1.463 1_556 S
C258 N262 1.427 1_545 S
C259 H249 0.929 . S
C259 C257 1.433 1_565 S
C259 N262 1.384 . S
C260 H251 0.929 . S
C260 C252 1.378 . S
C260 C255 1.350 1_565 S
C261 H248 0.929 . S
C261 C253 1.433 . S
C261 N263 1.384 . S
N262 C258 1.427 1_565 S
N262 C259 1.384 . S
N263 C255 1.427 . S
N263 C261 1.384 . S
H264 C270 0.930 . S
H265 C274 0.930 . S
H266 C279 0.929 . S
H267 C277 0.929 . S
H268 C272 0.929 . S
H269 C278 0.929 . S
C270 H264 0.930 . S
C270 C271 1.367 . S
C270 C278 1.378 . S
C271 C270 1.367 . S
C271 C279 1.433 . S
C272 H268 0.929 . S
C272 C274 1.378 . S
C272 C276 1.350 . S
C273 C276 1.463 . S
C273 C278 1.350 . S
C273 N281 1.427 . S
C274 H265 0.930 . S
C274 C272 1.378 . S
C274 C275 1.367 . S
C275 C274 1.367 . S
C275 C277 1.433 . S
C276 C272 1.350 . S
C276 C273 1.463 . S
C276 N280 1.427 . S
C277 H267 0.929 . S
C277 C275 1.433 . S
C277 N280 1.384 . S
C278 H269 0.929 . S
C278 C270 1.378 . S
C278 C273 1.350 . S
C279 H266 0.929 . S
C279 C271 1.433 . S
C279 N281 1.384 . S
N280 C276 1.427 . S
N280 C277 1.384 . S
N281 C273 1.427 . S
N281 C279 1.384 . S
C127 C24 2.963 . S
C131 C104 2.944 . S
C145 C66 1.491 . S
C149 C26 1.518 . S
C163 C64 2.455 . S
C167 C97 2.416 . S
C181 C93 2.506 . S
C185 C13 2.517 . S
C199 C57 1.421 . S
C203 C17 1.442 . S
C217 C106 1.953 . S
C221 C53 1.912 . S
C235 C2 0.536 . S
C239 C23 0.536 . S
C253 C63 0.537 . S
C257 C42 0.537 . S
C271 C103 0.556 . S
C275 C82 0.556 . S
