# Generated by pormake.
# Topology snp, (6)-cn, num edge types: 1
# Building blocks:
#     Node 0, Type 0, BuildingBlock: BETFAJ_clean_sbu_0, # of connection points: 6
#     Node 1, Type 0, BuildingBlock: BETFAJ_clean_sbu_0, # of connection points: 6
#     Node 2, Type 0, BuildingBlock: BETFAJ_clean_sbu_0, # of connection points: 6
#     Node 3, Type 0, BuildingBlock: BETFAJ_clean_sbu_0, # of connection points: 6
#     Edge 4, Type (0, 0), BuildingBlock: MIFKUJ_clean_linker_0, # of connection points: 2
#     Edge 5, Type (0, 0), BuildingBlock: MIFKUJ_clean_linker_0, # of connection points: 2
#     Edge 6, Type (0, 0), BuildingBlock: MIFKUJ_clean_linker_0, # of connection points: 2
#     Edge 7, Type (0, 0), BuildingBlock: MIFKUJ_clean_linker_0, # of connection points: 2
#     Edge 8, Type (0, 0), BuildingBlock: MIFKUJ_clean_linker_0, # of connection points: 2
#     Edge 9, Type (0, 0), BuildingBlock: MIFKUJ_clean_linker_0, # of connection points: 2
#     Edge 10, Type (0, 0), BuildingBlock: MIFKUJ_clean_linker_0, # of connection points: 2
#     Edge 11, Type (0, 0), BuildingBlock: MIFKUJ_clean_linker_0, # of connection points: 2
#     Edge 12, Type (0, 0), BuildingBlock: MIFKUJ_clean_linker_0, # of connection points: 2
#     Edge 13, Type (0, 0), BuildingBlock: MIFKUJ_clean_linker_0, # of connection points: 2
#     Edge 14, Type (0, 0), BuildingBlock: MIFKUJ_clean_linker_0, # of connection points: 2
#     Edge 15, Type (0, 0), BuildingBlock: MIFKUJ_clean_linker_0, # of connection points: 2
# Relax obj value: 0.198
# Max RMSD: 0.204
# Mean RMSD: 0.198
data_MOF--net-snp--node1-BETFAJ_clean_sbu_0--edge1-MIFKUJ_clean_linker_0
_symmetry_space_group_name_H-M    P1
_symmetry_Int_Tables_number       1
_symmetry_cell_setting            triclinic
loop_
_symmetry_equiv_pos_as_xyz
'x, y, z'
_cell_length_a     32.668603
_cell_length_b     32.326479
_cell_length_c     44.138665
_cell_angle_alpha  85.817009
_cell_angle_beta   101.14675
_cell_angle_gamma 95.746869
loop_
_atom_site_label
_atom_site_type_symbol
_atom_site_fract_x
_atom_site_fract_y
_atom_site_fract_z
_atom_type_partial_charge
Sm0 Sm 0.28006 0.13262 0.105 0.0
Sm1 Sm 0.26967 0.048 0.07152 0.0
C2 C 0.27681 0.19119 0.1432 0.0
C3 C 0.25834 0.19283 0.17115 0.0
C4 C 0.22189 0.16771 0.17512 0.0
C5 C 0.20681 0.16693 0.20285 0.0
C6 C 0.22789 0.19132 0.22726 0.0
C7 C 0.26399 0.21701 0.22287 0.0
C8 C 0.27905 0.21764 0.19519 0.0
C9 C 0.35215 0.10275 0.09557 0.0
C10 C 0.25732 0.04337 0.14339 0.0
C11 C 0.27778 0.98089 0.04318 0.0
C12 C 0.26627 0.96839 1.01066 0.0
C13 C 0.29782 0.96251 0.99419 0.0
C14 C 0.28768 0.95289 0.96302 0.0
C15 C 0.24567 0.94856 0.94762 0.0
C16 C 0.21407 0.95389 0.96426 0.0
C17 C 0.22422 0.96379 0.99534 0.0
C18 C 0.19783 0.08864 0.06495 0.0
C19 C 0.27176 0.13692 0.03131 0.0
O20 O 0.25082 0.18719 0.11669 0.0
O21 O 0.30818 0.16803 0.14636 0.0
O22 O 0.32162 0.08133 0.1039 0.0
O23 O 0.34635 0.14213 0.093 0.0
O24 O 0.2592 0.08444 0.14085 0.0
O25 O 0.26433 0.02116 0.12106 0.0
O26 O 0.30775 0.01108 0.04873 0.0
O27 O 0.24711 0.98365 0.05805 0.0
O28 O 0.22652 0.0862 0.08829 0.0
O29 O 0.20518 0.06565 0.04399 0.0
O30 O 0.28523 0.09924 0.03533 0.0
O31 O 0.26251 0.15595 0.05434 0.0
H32 H 0.20564 0.14786 0.15708 0.0
H33 H 0.17928 0.14635 0.20543 0.0
H34 H 0.28068 0.23679 0.24083 0.0
H35 H 0.3073 0.23715 0.19271 0.0
H36 H 0.33047 0.96577 1.00538 0.0
H37 H 0.31277 0.94853 0.95104 0.0
H38 H 0.18143 0.95127 0.95305 0.0
H39 H 0.19906 0.96834 1.0072 0.0
Sm40 Sm 0.95954 0.23287 0.69046 0.0
Sm41 Sm 0.0337 0.2325 0.65359 0.0
C42 C 0.89967 0.21275 0.72322 0.0
C43 C 0.89456 0.21231 0.75582 0.0
C44 C 0.85946 0.1899 0.76482 0.0
C45 C 0.85654 0.18406 0.79614 0.0
C46 C 0.88875 0.2005 0.8193 0.0
C47 C 0.92339 0.22411 0.81002 0.0
C48 C 0.92637 0.22975 0.77863 0.0
C49 C 0.00421 0.30883 0.68345 0.0
C50 C 0.05615 0.23214 0.7266 0.0
C51 C 0.08614 0.24196 0.61381 0.0
C52 C 0.08944 0.23112 0.5822 0.0
C53 C 0.06501 0.24845 0.55534 0.0
C54 C 0.07153 0.24025 0.52587 0.0
C55 C 0.1027 0.21462 0.52253 0.0
C56 C 0.1259 0.19618 0.54948 0.0
C57 C 0.11949 0.20447 0.57882 0.0
C58 C 0.99978 0.15614 0.67427 0.0
C59 C 0.93626 0.22932 0.61439 0.0
O60 O 0.92513 0.18655 0.71781 0.0
O61 O 0.90375 0.24898 0.70803 0.0
O62 O 0.99458 0.28174 0.66362 0.0
O63 O 0.98763 0.29746 0.70756 0.0
O64 O 0.01751 0.21504 0.72594 0.0
O65 O 0.06866 0.24999 0.7017 0.0
O66 O 0.06106 0.26998 0.61669 0.0
O67 O 0.08619 0.21141 0.6349 0.0
O68 O 0.98095 0.18713 0.66323 0.0
O69 O 0.03921 0.16374 0.67301 0.0
O70 O 0.9768 0.23067 0.61417 0.0
O71 O 0.92106 0.22905 0.6403 0.0
H72 H 0.83488 0.1756 0.74766 0.0
H73 H 0.82972 0.16516 0.80219 0.0
H74 H 0.94857 0.23775 0.82703 0.0
H75 H 0.95401 0.24675 0.77224 0.0
H76 H 0.04148 0.26906 0.55706 0.0
H77 H 0.05312 0.25518 0.50576 0.0
H78 H 0.14947 0.17553 0.54798 0.0
H79 H 0.13874 0.19055 0.59902 0.0
Sm80 Sm 0.8142 -0.00263 0.18637 0.0
Sm81 Sm 0.83666 0.92838 0.14886 0.0
C82 C 0.77987 0.04624 0.21817 0.0
C83 C 0.7867 0.0558 0.25105 0.0
C84 C 0.75497 0.07148 0.26303 0.0
C85 C 0.76236 0.08301 0.29376 0.0
C86 C 0.80177 0.07937 0.31294 0.0
C87 C 0.83314 0.06273 0.30099 0.0
C88 C 0.82562 0.05087 0.27043 0.0
C89 C 0.89541 0.97872 0.20464 0.0
C90 C 0.80933 0.89937 0.21428 0.0
C91 C 0.86936 0.88005 0.11527 0.0
C92 C 0.8722 0.87479 0.08268 0.0
C93 C 0.91179 0.87512 0.07474 0.0
C94 C 0.91568 0.87035 0.04421 0.0
C95 C 0.87998 0.86514 1.02065 0.0
C96 C 0.84023 0.86417 0.02886 0.0
C97 C 0.83638 0.8691 0.05945 0.0
C98 C 0.75478 0.94844 0.13441 0.0
C99 C 0.84837 0.02543 0.12284 0.0
O100 O 0.76324 0.00877 0.21109 0.0
O101 O 0.8108 0.05905 0.2039 0.0
O102 O 0.86492 0.95288 0.19572 0.0
O103 O 0.88352 0.01543 0.20609 0.0
O104 O 0.79271 0.93557 0.2121 0.0
O105 O 0.83317 0.89134 0.19471 0.0
O106 O 0.88966 0.91336 0.12784 0.0
O107 O 0.83305 0.87066 0.1236 0.0
O108 O 0.7868 0.97331 0.13998 0.0
O109 O 0.76496 0.91074 0.13428 0.0
O110 O 0.86399 0.98893 0.12608 0.0
O111 O 0.82157 0.03396 0.14007 0.0
H112 H 0.72474 0.0755 0.24846 0.0
H113 H 0.73765 0.09593 0.30224 0.0
H114 H 0.86361 0.05898 0.31528 0.0
H115 H 0.85048 0.03848 0.26175 0.0
H116 H 0.93991 0.87939 0.09222 0.0
H117 H 0.94688 0.87183 0.03908 0.0
H118 H 0.81189 0.85936 1.01172 0.0
H119 H 0.80536 0.86849 0.06485 0.0
Sm120 Sm 0.01454 0.79767 0.58996 0.0
Sm121 Sm 0.08771 0.81703 0.55908 0.0
C122 C 0.95092 0.77662 0.61885 0.0
C123 C 0.94288 0.78455 0.64989 0.0
C124 C 0.96111 0.76183 0.67664 0.0
C125 C 0.95494 0.7711 0.70587 0.0
C126 C 0.93043 0.80337 0.70917 0.0
C127 C 0.9117 0.82563 0.6823 0.0
C128 C 0.91778 0.81629 0.65309 0.0
C129 C 0.0238 0.87905 0.56692 0.0
C130 C 0.09929 0.83127 0.63404 0.0
C131 C 0.14831 0.85039 0.53044 0.0
C132 C 0.15099 0.86556 0.49823 0.0
C133 C 0.13352 0.90226 0.48501 0.0
C134 C 0.13569 0.91572 0.45445 0.0
C135 C 0.15506 0.89269 0.43619 0.0
C136 C 0.17271 0.85611 0.44953 0.0
C137 C 0.17084 0.84283 0.48018 0.0
C138 C 0.07714 0.73511 0.57987 0.0
C139 C 0.00065 0.78363 0.51619 0.0
O140 O 0.97937 0.7513 0.61749 0.0
O141 O 0.95255 0.80913 0.5996 0.0
O142 O 0.02727 0.84732 0.55312 0.0
O143 O 0.02225 0.86805 0.59554 0.0
O144 O 0.06355 0.80845 0.63316 0.0
O145 O 0.11384 0.84234 0.60829 0.0
O146 O 0.12832 0.87205 0.5459 0.0
O147 O 0.14052 0.81022 0.53522 0.0
O148 O 0.07361 0.76604 0.59453 0.0
O149 O 0.08865 0.74666 0.55381 0.0
O150 O 0.03589 0.80752 0.51656 0.0
O151 O 0.98794 0.7703 0.54219 0.0
H152 H 0.98046 0.73702 0.67511 0.0
H153 H 0.9692 0.75266 0.72587 0.0
H154 H 0.89308 0.85104 0.68379 0.0
H155 H 0.90327 0.83445 0.63299 0.0
H156 H 0.11794 0.9206 0.49816 0.0
H157 H 0.12156 0.94391 0.445 0.0
H158 H 0.18861 0.838 0.43645 0.0
H159 H 0.18489 0.81463 0.48978 0.0
H160 H 0.95787 0.01354 0.24814 0.0
H161 H 0.03126 0.02093 0.24277 0.0
H162 H 0.00238 0.93275 0.17117 0.0
H163 H 0.93153 0.92025 0.1806 0.0
H164 H 0.07662 0.9511 0.17641 0.0
H165 H 0.96176 0.05659 0.16434 0.0
H166 H 0.9227 0.10045 0.19026 0.0
H167 H 0.03723 0.14383 0.2493 0.0
H168 H 0.07682 0.10031 0.2236 0.0
H169 H 0.12472 0.04275 0.04161 0.0
H170 H 0.07355 0.02123 0.0747 0.0
H171 H 0.12853 0.11885 0.13568 0.0
H172 H 0.17616 0.14269 0.10106 0.0
H173 H 0.05813 0.09975 0.14565 0.0
H174 H 0.16724 0.01475 0.13065 0.0
H175 H 0.20116 0.96893 0.10241 0.0
H176 H 0.09093 0.8834 0.09083 0.0
H177 H 0.05646 0.9285 0.11902 0.0
C178 C 0.9681 -0.00607 0.23267 0.0
C179 C 0.93898 0.96902 0.21257 0.0
C180 C 0.00995 -0.00163 0.22941 0.0
C181 C 0.02091 0.98138 0.20403 0.0
C182 C 0.99425 0.94856 0.18971 0.0
C183 C 0.95324 0.94189 0.19453 0.0
C184 C 0.04951 0.00572 0.18561 0.0
C185 C 0.07285 0.9837 0.16979 0.0
C186 C 0.04563 0.04868 0.17727 0.0
C187 C 0.02199 0.07502 0.19238 0.0
C188 C 0.97847 0.07562 0.18279 0.0
C189 C 0.9563 0.10034 0.19746 0.0
C190 C 0.97745 0.12479 0.22149 0.0
C191 C 0.02087 0.12482 0.23075 0.0
C192 C 0.0432 0.10022 0.21613 0.0
C193 C 0.12376 0.06139 0.06085 0.0
C194 C 0.15557 0.09299 0.06997 0.0
C195 C 0.09526 0.04839 0.08022 0.0
C196 C 0.09963 0.06634 0.10888 0.0
C197 C 0.12555 0.10339 0.11429 0.0
C198 C 0.15265 0.11733 0.09432 0.0
C199 C 0.08256 0.04427 0.13491 0.0
C200 C 0.06237 0.06724 0.15233 0.0
C201 C 0.08857 0.00192 0.14411 0.0
C202 C 0.10946 0.97503 0.12704 0.0
C203 C 0.15048 0.98605 0.12226 0.0
C204 C 0.16968 0.96032 0.10615 0.0
C205 C 0.14828 0.92337 0.09484 0.0
C206 C 0.10755 0.91202 0.09962 0.0
C207 C 0.08819 0.93764 0.11569 0.0
H208 H 0.16326 0.90356 0.08236 0.0
H209 H 0.9602 0.14378 0.23288 0.0
H210 H 0.94557 0.85916 0.5364 0.0
H211 H 0.88755 0.89766 0.54257 0.0
H212 H 0.97485 0.00285 0.57132 0.0
H213 H 0.03303 0.96317 0.56765 0.0
H214 H 0.91898 0.91391 0.61109 0.0
H215 H 0.91159 0.01399 0.51782 0.0
H216 H 0.87141 0.03829 0.46833 0.0
H217 H 0.77133 0.06291 0.51273 0.0
H218 H 0.80968 0.03606 0.56264 0.0
H219 H 0.03152 0.08127 0.67366 0.0
H220 H 0.99079 0.01817 0.6544 0.0
H221 H 0.87613 0.07418 0.65401 0.0
H222 H 0.91675 0.13767 0.67234 0.0
H223 H 0.88123 0.05942 0.5981 0.0
H224 H 0.88656 0.9728 0.6887 0.0
H225 H 0.91628 0.94248 0.74023 0.0
H226 H 0.01057 0.89151 0.70227 0.0
H227 H 0.98171 0.92158 0.65061 0.0
C228 C 0.95211 0.89155 0.54198 0.0
C229 C 0.99358 0.9082 0.55228 0.0
C230 C 0.91877 0.91351 0.54537 0.0
C231 C 0.927 0.9527 0.55784 0.0
C232 C 0.96794 0.97251 0.5616 0.0
C233 C 0.00133 0.94993 0.55951 0.0
C234 C 0.90074 0.96485 0.57862 0.0
C235 C 0.9094 0.94537 0.60843 0.0
C236 C 0.88507 0.00435 0.57483 0.0
C237 C 0.86335 0.02153 0.54435 0.0
C238 C 0.88057 0.02299 0.51733 0.0
C239 C 0.85806 0.03756 0.48899 0.0
C240 C 0.81862 0.05165 0.48731 0.0
C241 C 0.80174 0.05162 0.51401 0.0
C242 C 0.82382 0.03655 0.54233 0.0
C243 C 0.99772 0.07938 0.67089 0.0
C244 C 0.97729 0.11445 0.67398 0.0
C245 C 0.97429 0.04313 0.6601 0.0
C246 C 0.93027 0.04152 0.65266 0.0
C247 C 0.90996 0.07473 0.65965 0.0
C248 C 0.93333 0.111 0.6702 0.0
C249 C 0.90766 0.01119 0.63046 0.0
C250 C 0.88869 0.02725 0.60115 0.0
C251 C 0.91451 0.96857 0.63467 0.0
C252 C 0.93171 0.94943 0.66564 0.0
C253 C 0.91365 0.95516 0.69132 0.0
C254 C 0.93039 0.93803 0.72058 0.0
C255 C 0.96539 0.91528 0.72453 0.0
C256 C 0.98351 0.90925 0.69919 0.0
C257 C 0.96678 0.92612 0.66985 0.0
H258 H 0.97842 0.90226 0.74723 0.0
H259 H 0.80124 0.06285 0.46536 0.0
H260 H 0.68043 0.89955 0.12525 0.0
H261 H 0.60969 0.92334 0.11529 0.0
H262 H 0.66302 0.05104 0.1174 0.0
H263 H 0.73313 0.02757 0.12804 0.0
H264 H 0.60472 0.03963 0.151 0.0
H265 H 0.61722 0.00554 0.04907 0.0
H266 H 0.62955 0.96034 1.00967 0.0
H267 H 0.52586 0.87506 0.02658 0.0
H268 H 0.51326 0.91951 0.0664 0.0
H269 H 0.42604 0.14541 0.08759 0.0
H270 H 0.49336 0.11642 0.09047 0.0
H271 H 0.43441 -0.00747 0.10314 0.0
H272 H 0.36738 0.02126 0.1009 0.0
H273 H 0.4934 -0.00059 0.06197 0.0
H274 H 0.48176 0.03452 0.16405 0.0
H275 H 0.46939 0.08093 0.20266 0.0
H276 H 0.57261 0.16581 0.18428 0.0
H277 H 0.58518 0.12017 0.14517 0.0
C278 C 0.67684 0.93264 0.12345 0.0
C279 C 0.71207 0.96173 0.12742 0.0
C280 C 0.63655 0.9462 0.11764 0.0
C281 C 0.63113 0.989 0.11539 0.0
C282 C 0.66645 0.01791 0.11912 0.0
C283 C 0.7065 0.00443 0.12513 0.0
C284 C 0.5889 0.00413 0.11019 0.0
C285 C 0.58062 0.03119 0.13129 0.0
C286 C 0.55711 -0.00764 0.0849 0.0
C287 C 0.5646 0.96562 0.06095 0.0
C288 C 0.59727 0.97697 0.04457 0.0
C289 C 0.60427 0.95153 1.02213 0.0
C290 C 0.57858 0.91479 1.01569 0.0
C291 C 0.54578 0.90349 0.03163 0.0
C292 C 0.53867 0.92881 0.05412 0.0
C293 C 0.42742 0.11199 0.09061 0.0
C294 C 0.39168 0.08555 0.09411 0.0
C295 C 0.46575 0.09551 0.09224 0.0
C296 C 0.46868 0.05242 0.09716 0.0
C297 C 0.43263 0.02584 0.09922 0.0
C298 C 0.39445 0.04231 0.09798 0.0
C299 C 0.50985 0.03534 0.10244 0.0
C300 C 0.51772 0.00779 0.08156 0.0
C301 C 0.54145 0.04679 0.12783 0.0
C302 C 0.53411 0.07416 0.15145 0.0
C303 C 0.50158 0.06327 0.16804 0.0
C304 C 0.49458 0.0894 0.19005 0.0
C305 C 0.52012 0.12636 0.19586 0.0
C306 C 0.5528 0.13721 0.17972 0.0
C307 C 0.55989 0.11121 0.15764 0.0
H308 H 0.51467 0.14654 0.21292 0.0
H309 H 0.58404 0.89513 0.9983 0.0
H310 H 0.02996 0.33938 0.63059 0.0
H311 H 0.04836 0.41204 0.6156 0.0
H312 H 0.03004 0.44884 0.70374 0.0
H313 H 0.0126 0.37584 0.71915 0.0
H314 H 0.99829 0.4729 0.6079 0.0
H315 H 0.09021 0.54026 0.72179 0.0
H316 H 0.13848 0.51768 0.76892 0.0
H317 H 0.17861 0.42482 0.71906 0.0
H318 H 0.13105 0.44722 0.67155 0.0
H319 H 0.05954 0.70702 0.63609 0.0
H320 H 0.05093 0.63449 0.65597 0.0
H321 H 0.07659 0.59294 0.57137 0.0
H322 H 0.08491 0.66529 0.55131 0.0
H323 H 0.10474 0.5722 0.66665 0.0
H324 H 0.01282 0.50489 0.55269 0.0
H325 H 0.96452 0.52777 0.50565 0.0
H326 H 0.92443 0.62017 0.55593 0.0
H327 H 0.97197 0.59745 0.60334 0.0
C328 C 0.03068 0.36285 0.64701 0.0
C329 C 0.01984 0.35203 0.67601 0.0
C330 C 0.04096 0.40439 0.63835 0.0
C331 C 0.04063 0.4359 0.65853 0.0
C332 C 0.03103 0.42502 0.68793 0.0
C333 C 0.02094 0.38335 0.69668 0.0
C334 C 0.04756 0.4802 0.64789 0.0
C335 C 0.02204 0.49442 0.62053 0.0
C336 C 0.07762 0.5086 0.66485 0.0
C337 C 0.1067 0.49515 0.6932 0.0
C338 C 0.10944 0.51512 0.72086 0.0
C339 C 0.13667 0.50234 0.74765 0.0
C340 C 0.16148 0.46974 0.74701 0.0
C341 C 0.15924 0.44995 0.71956 0.0
C342 C 0.1321 0.46264 0.69271 0.0
C343 C 0.0634 0.68236 0.62179 0.0
C344 C 0.07273 0.69162 0.59213 0.0
C345 C 0.05865 0.64104 0.63321 0.0
C346 C 0.06282 0.6084 0.61505 0.0
C347 C 0.07279 0.61769 0.58561 0.0
C348 C 0.07761 0.65897 0.57421 0.0
C349 C 0.05587 0.56454 0.62653 0.0
C350 C 0.08115 0.55053 0.65405 0.0
C351 C 0.02555 0.53624 0.60976 0.0
C352 C 0.99631 0.54973 0.58148 0.0
C353 C 0.99357 0.52998 0.55373 0.0
C354 C 0.96634 0.54293 0.527 0.0
C355 C 0.94154 0.5755 0.52778 0.0
C356 C 0.94378 0.59506 0.55532 0.0
C357 C 0.9709 0.58219 0.58212 0.0
H358 H 0.92052 0.58551 0.50705 0.0
H359 H 0.18251 0.45987 0.76778 0.0
H360 H 0.17984 0.21051 0.50765 0.0
H361 H 0.19686 0.20241 0.45721 0.0
H362 H 0.06592 0.1987 0.4156 0.0
H363 H 0.04829 0.2056 0.46648 0.0
H364 H 0.10691 0.1411 0.39102 0.0
H365 H 0.12734 0.28682 0.40937 0.0
H366 H 0.15467 0.34884 0.43884 0.0
H367 H 0.2807 0.32117 0.43954 0.0
H368 H 0.25412 0.25862 0.41045 0.0
H369 H 0.14654 0.18618 0.23678 0.0
H370 H 0.12238 0.18652 0.28589 0.0
H371 H 0.25038 0.19377 0.33485 0.0
H372 H 0.27476 0.19287 0.286 0.0
H373 H 0.2069 0.25012 0.35425 0.0
H374 H 0.18759 0.10381 0.33759 0.0
H375 H 0.16156 0.04392 0.30553 0.0
H376 H 0.03499 0.07309 0.30026 0.0
H377 H 0.06027 0.13369 0.33193 0.0
C378 C 0.15441 0.20726 0.48798 0.0
C379 C 0.11257 0.20864 0.49141 0.0
C380 C 0.1643 0.20298 0.45898 0.0
C381 C 0.13277 0.20034 0.43242 0.0
C382 C 0.09086 0.20073 0.43569 0.0
C383 C 0.08087 0.20508 0.46482 0.0
C384 C 0.14415 0.19906 0.40128 0.0
C385 C 0.1283 0.16524 0.3828 0.0
C386 C 0.17263 0.23012 0.39059 0.0
C387 C 0.18872 0.26783 0.40796 0.0
C388 C 0.16088 0.29379 0.41601 0.0
C389 C 0.17624 0.32906 0.43262 0.0
C390 C 0.21939 0.33888 0.44112 0.0
C391 C 0.24728 0.3135 0.43297 0.0
C392 C 0.23209 0.27815 0.4164 0.0
C393 C 0.16959 0.18733 0.258 0.0
C394 C 0.21271 0.18989 0.25726 0.0
C395 C 0.15569 0.1876 0.28612 0.0
C396 C 0.18453 0.19018 0.31419 0.0
C397 C 0.22749 0.19213 0.31354 0.0
C398 C 0.2414 0.1918 0.2855 0.0
C399 C 0.17021 0.19198 0.34419 0.0
C400 C 0.18545 0.22599 0.36243 0.0
C401 C 0.14135 0.16108 0.35459 0.0
C402 C 0.12584 0.12347 0.33696 0.0
C403 C 0.1542 0.0975 0.32959 0.0
C404 C 0.13961 0.06346 0.31148 0.0
C405 C 0.09672 0.05479 0.30087 0.0
C406 C 0.06823 0.0799 0.30855 0.0
C407 C 0.08266 0.11409 0.3266 0.0
H408 H 0.08562 0.02864 0.28667 0.0
H409 H 0.23122 0.36621 0.45397 0.0
H410 H 0.82008 0.19471 0.84775 0.0
H411 H 0.81667 0.1728 0.90144 0.0
H412 H 0.95008 0.16367 0.92113 0.0
H413 H 0.95353 0.18413 0.86735 0.0
H414 H 0.91148 0.09634 0.94309 0.0
H415 H 0.90364 0.24245 0.94885 0.0
H416 H 0.87593 0.31061 0.93341 0.0
H417 H 0.75568 0.26148 0.95202 0.0
H418 H 0.78251 0.19283 0.96717 0.0
H419 H 0.92168 0.0421 0.10171 0.0
H420 H 0.93278 0.08027 0.05364 0.0
H421 H 0.80305 0.10676 0.03376 0.0
H422 H 0.79291 0.07112 0.08304 0.0
H423 H 0.84302 0.16861 1.01247 0.0
H424 H 0.84858 0.02139 1.00176 0.0
H425 H 0.87421 0.95188 1.01306 0.0
H426 H 0.99727 0.002 1.00118 0.0
H427 H 0.97237 0.07208 0.99012 0.0
C428 C 0.84877 0.18806 0.86344 0.0
C429 C 0.88708 0.19104 0.85287 0.0
C430 C 0.84683 0.17597 0.89435 0.0
C431 C 0.88317 0.16682 0.91562 0.0
C432 C 0.92155 0.17061 0.90531 0.0
C433 C 0.92352 0.18268 0.87444 0.0
C434 C 0.88088 0.15068 0.94797 0.0
C435 C 0.89716 0.11257 0.95845 0.0
C436 C 0.86117 0.17109 0.96785 0.0
C437 C 0.84501 0.21239 0.9589 0.0
C438 C 0.8712 0.24609 0.94943 0.0
C439 C 0.85566 0.28483 0.94077 0.0
C440 C 0.81404 0.29034 0.94166 0.0
C441 C 0.7879 0.25715 0.95131 0.0
C442 C 0.80327 0.21833 0.95997 0.0
C443 C 0.89578 0.05682 0.08732 0.0
C444 C 0.85643 0.05365 0.09614 0.0
C445 C 0.90196 0.0782 0.05954 0.0
C446 C 0.86844 0.09539 0.03916 0.0
C447 C 0.82953 0.09373 0.04872 0.0
C448 C 0.8237 0.07341 0.077 0.0
C449 C 0.87341 0.11388 1.00765 0.0
C450 C 0.8576 0.15243 0.99726 0.0
C451 C 0.8934 0.09377 0.98765 0.0
C452 C 0.9087 0.05198 0.99543 0.0
C453 C 0.88119 0.01764 1.00186 0.0
C454 C 0.8956 0.97809 1.00813 0.0
C455 C 0.93738 0.97245 1.00779 0.0
C456 C 0.96494 0.00643 1.00145 0.0
C457 C 0.95069 0.04605 0.99516 0.0
H458 H 0.94849 0.94182 1.01227 0.0
H459 H 0.80208 0.32036 0.93494 0.0
H460 H 0.02119 0.76611 0.46216 0.0
H461 H 0.97853 0.77341 0.4104 0.0
H462 H 0.87511 0.80353 0.45019 0.0
H463 H 0.91705 0.79326 0.50212 0.0
H464 H 0.84322 0.76725 0.40158 0.0
H465 H 0.94836 0.8801 0.42093 0.0
H466 H 0.01737 0.92008 0.43283 0.0
H467 H 0.05541 0.86875 0.35671 0.0
H468 H 0.98674 0.82826 0.3444 0.0
H469 H 0.77806 0.91237 0.26613 0.0
H470 H 0.79854 0.87887 0.31777 0.0
H471 H 0.86727 0.79436 0.28034 0.0
H472 H 0.84643 0.82669 0.22876 0.0
H473 H 0.91267 0.85754 0.32724 0.0
H474 H 0.7989 0.74883 0.30762 0.0
H475 H 0.72442 0.72302 0.294 0.0
H476 H 0.69831 0.78107 0.37181 0.0
H477 H 0.77256 0.80778 0.38563 0.0
C478 C 0.98891 0.77302 0.4598 0.0
C479 C 0.97231 0.77897 0.48604 0.0
C480 C 0.96468 0.77782 0.4302 0.0
C481 C 0.92393 0.79055 0.42614 0.0
C482 C 0.90647 0.79399 0.45252 0.0
C483 C 0.93037 0.78793 0.48224 0.0
C484 C 0.90072 0.80246 0.3946 0.0
C485 C 0.85847 0.78728 0.38551 0.0
C486 C 0.92016 0.82881 0.37332 0.0
C487 C 0.96251 0.85083 0.38194 0.0
C488 C 0.97163 0.87688 0.40699 0.0
C489 C 0.0106 0.89978 0.4137 0.0
C490 C 0.04057 0.89709 0.3954 0.0
C491 C 0.03203 0.87092 0.37074 0.0
C492 C 0.99311 0.84799 0.36389 0.0
C493 C 0.79619 0.88564 0.26863 0.0
C494 C 0.81108 0.87267 0.24328 0.0
C495 C 0.80786 0.86654 0.2982 0.0
C496 C 0.83454 0.83431 0.3028 0.0
C497 C 0.84656 0.81913 0.2772 0.0
C498 C 0.83459 0.83778 0.24769 0.0
C499 C 0.85602 0.82167 0.33434 0.0
C500 C 0.89783 0.83717 0.3434 0.0
C501 C 0.83578 0.79689 0.3557 0.0
C502 C 0.79121 0.78068 0.34746 0.0
C503 C 0.77721 0.75647 0.32164 0.0
C504 C 0.73504 0.74158 0.31393 0.0
C505 C 0.70662 0.7505 0.33197 0.0
C506 C 0.72034 0.77423 0.35783 0.0
C507 C 0.76247 0.78921 0.36563 0.0
H508 H 0.67399 0.73894 0.32596 0.0
H509 H 0.07023 0.91561 0.40012 0.0
H510 H 0.16774 0.88935 0.64828 0.0
H511 H 0.19857 0.91501 0.6997 0.0
H512 H 0.1112 0.83008 0.74036 0.0
H513 H 0.08059 0.80474 0.68996 0.0
H514 H 0.11241 0.907 0.75935 0.0
H515 H 0.21507 0.8129 0.74799 0.0
H516 H 0.26808 0.78811 0.7224 0.0
H517 H 0.3411 0.90592 0.73375 0.0
H518 H 0.2882 0.93158 0.75908 0.0
H519 H 0.18261 0.8937 0.91983 0.0
H520 H 0.16337 0.87914 0.86514 0.0
H521 H 0.26439 0.96683 0.84503 0.0
H522 H 0.2841 0.98123 0.89994 0.0
H523 H 0.26003 0.89993 0.81262 0.0
H524 H 0.1623 0.99143 0.82939 0.0
H525 H 0.10995 0.01712 0.85502 0.0
H526 H 0.02724 0.90754 0.83203 0.0
H527 H 0.07943 0.88065 0.80694 0.0
C528 C 0.15552 0.87589 0.66827 0.0
C529 C 0.12156 0.84509 0.66483 0.0
C530 C 0.17312 0.89058 0.69764 0.0
C531 C 0.15709 0.87457 0.72397 0.0
C532 C 0.12393 0.84322 0.72049 0.0
C533 C 0.10651 0.82865 0.69146 0.0
C534 C 0.17332 0.89063 0.75526 0.0
C535 C 0.14466 0.9052 0.77106 0.0
C536 C 0.21569 0.8898 0.77021 0.0
C537 C 0.24746 0.87431 0.75507 0.0
C538 C 0.24226 0.83363 0.74479 0.0
C539 C 0.27231 0.81939 0.73038 0.0
C540 C 0.30787 0.84547 0.72636 0.0
C541 C 0.3135 0.88578 0.73682 0.0
C542 C 0.28351 0.90018 0.75122 0.0
C543 C 0.20064 0.91008 0.90378 0.0
C544 C 0.23473 0.93887 0.9143 0.0
C545 C 0.1896 0.90171 0.87245 0.0
C546 C 0.21195 0.9224 0.85073 0.0
C547 C 0.24659 0.9505 0.86124 0.0
C548 C 0.25786 0.95866 0.89268 0.0
C549 C 0.1987 0.9148 0.81713 0.0
C550 C 0.22789 0.90214 0.80085 0.0
C551 C 0.15676 0.91761 0.80158 0.0
C552 C 0.12501 0.93386 0.81648 0.0
C553 C 0.13306 0.97264 0.83 0.0
C554 C 0.10335 0.98744 0.84443 0.0
C555 C 0.0652 0.964 0.84518 0.0
C556 C 0.05673 0.92568 0.83149 0.0
C557 C 0.0864 0.91062 0.81716 0.0
H558 H 0.04217 0.97553 0.8563 0.0
H559 H 0.33111 0.83439 0.7152 0.0
H560 H 0.94112 0.8298 0.99847 0.0
H561 H 0.9488 0.82635 0.94484 0.0
H562 H 0.83569 0.88747 0.9138 0.0
H563 H 0.82892 0.89364 0.96742 0.0
H564 H 0.84193 0.80976 0.88398 0.0
H565 H 0.91556 0.94283 0.90683 0.0
H566 H 0.96737 -0.00668 0.9357 0.0
H567 H 0.06725 0.92418 0.92191 0.0
H568 H 0.01596 0.87302 0.89313 0.0
H569 H 0.86007 0.82857 0.72575 0.0
H570 H 0.8506 0.84479 0.77694 0.0
H571 H 0.97722 0.81684 0.81516 0.0
H572 H 0.98772 0.80276 0.76377 0.0
H573 H 0.96071 0.88207 0.84067 0.0
H574 H 0.88865 0.74648 0.82121 0.0
H575 H 0.83777 0.69531 0.7921 0.0
H576 H 0.73697 0.76679 0.80048 0.0
H577 H 0.78735 0.81869 0.82931 0.0
C578 C 0.91816 0.8433 0.98044 0.0
C579 C 0.88428 0.86197 0.98768 0.0
C580 C 0.92253 0.841 0.94969 0.0
C581 C 0.89285 0.85668 0.92536 0.0
C582 C 0.85885 0.875 0.93226 0.0
C583 C 0.85486 0.87809 0.96304 0.0
C584 C 0.89691 0.8529 0.89272 0.0
C585 C 0.8676 0.82599 0.87433 0.0
C586 C 0.93089 0.87342 0.88041 0.0
C587 C 0.96182 0.90371 0.8982 0.0
C588 C 0.94852 0.93804 0.91031 0.0
C589 C 0.97782 0.96687 0.92659 0.0
C590 C 0.02056 0.9618 0.93086 0.0
C591 C 0.03411 0.92795 0.91874 0.0
C592 C 0.00493 0.89907 0.90238 0.0
C593 C 0.88615 0.82632 0.74491 0.0
C594 C 0.92455 0.81375 0.74048 0.0
C595 C 0.8805 0.8352 0.77434 0.0
C596 C 0.91285 0.83117 0.8002 0.0
C597 C 0.95156 0.81979 0.79573 0.0
C598 C 0.95735 0.81119 0.76628 0.0
C599 C 0.90635 0.83818 0.83196 0.0
C600 C 0.93513 0.86576 0.85025 0.0
C601 C 0.87213 0.81793 0.84431 0.0
C602 C 0.8418 0.78667 0.82713 0.0
C603 C 0.85566 0.75143 0.81665 0.0
C604 C 0.82692 0.72227 0.80023 0.0
C605 C 0.78418 0.72786 0.79437 0.0
C606 C 0.77009 0.76254 0.805 0.0
C607 C 0.79872 0.79182 0.82139 0.0
H608 H 0.76197 0.70525 0.78165 0.0
H609 H 0.04319 0.9842 0.94343 0.0
H610 H 0.2267 0.08143 0.18593 0.0
H611 H 0.20151 0.05154 0.23133 0.0
H612 H 0.22757 0.92966 0.2107 0.0
H613 H 0.25275 0.95977 0.16384 0.0
H614 H 0.14396 0.94039 0.23345 0.0
H615 H 0.29778 0.97307 0.26142 0.0
H616 H 0.35981 0.02307 0.26021 0.0
H617 H 0.30449 0.11234 0.3036 0.0
H618 H 0.24211 0.06297 0.30489 0.0
H619 H 0.14598 0.84548 0.38553 0.0
H620 H 0.15506 0.86887 0.3331 0.0
H621 H 0.17683 -0.00405 0.36017 0.0
H622 H 0.16945 0.97268 0.41278 0.0
H623 H 0.23448 0.98191 0.33218 0.0
H624 H 0.08894 0.95956 0.31153 0.0
H625 H 0.01639 0.92818 0.30681 0.0
H626 H 0.0408 0.8383 0.24709 0.0
H627 H 0.11371 0.86911 0.25144 0.0
C628 C 0.22734 0.04825 0.19071 0.0
C629 C 0.2427 0.02322 0.17131 0.0
C630 C 0.21246 0.03116 0.21674 0.0
C631 C 0.21293 0.98851 0.22454 0.0
C632 C 0.22697 0.96278 0.20498 0.0
C633 C 0.24177 0.98003 0.17847 0.0
C634 C 0.20211 0.97239 0.25462 0.0
C635 C 0.1641 0.94822 0.2552 0.0
C636 C 0.22698 0.98556 0.28271 0.0
C637 C 0.26539 0.01433 0.28327 0.0
C638 C 0.29894 0.00334 0.27075 0.0
C639 C 0.33412 0.03158 0.27002 0.0
C640 C 0.33611 0.07084 0.28184 0.0
C641 C 0.30299 0.08188 0.29454 0.0
C642 C 0.26778 0.05374 0.29537 0.0
C643 C 0.15289 0.87841 0.38037 0.0
C644 C 0.15756 0.90709 0.40361 0.0
C645 C 0.15744 0.89182 0.35019 0.0
C646 C 0.1666 0.93423 0.34252 0.0
C647 C 0.16988 0.96304 0.36543 0.0
C648 C 0.16541 0.94967 0.39556 0.0
C649 C 0.17657 0.94822 0.31161 0.0
C650 C 0.21439 0.9727 0.31074 0.0
C651 C 0.15034 0.93684 0.28332 0.0
C652 C 0.10716 0.91651 0.28207 0.0
C653 C 0.07912 0.93286 0.29763 0.0
C654 C 0.03779 0.91528 0.29489 0.0
C655 C 0.02401 0.88119 0.27674 0.0
C656 C 0.05154 0.86467 0.26121 0.0
C657 C 0.09288 0.88225 0.26376 0.0
H658 H 0.99199 0.86763 0.27466 0.0
H659 H 0.3633 0.0927 0.28115 0.0
H660 H 0.0854 0.16113 0.75401 0.0
H661 H 0.12965 0.1519 0.80507 0.0
H662 H 0.13617 0.28417 0.8163 0.0
H663 H 0.09373 0.2935 0.76417 0.0
H664 H 0.20739 0.25736 0.84271 0.0
H665 H 0.06587 0.21316 0.84508 0.0
H666 H 0.99678 0.17511 0.82926 0.0
H667 H 0.04934 0.05903 0.85809 0.0
H668 H 0.11947 0.09611 0.87246 0.0
H669 H 0.24684 0.21486 1.01204 0.0
H670 H 0.21714 0.23887 0.95901 0.0
H671 H 0.24049 0.12315 0.92553 0.0
H672 H 0.27082 0.09921 0.97789 0.0
H673 H 0.15216 0.14817 0.91296 0.0
H674 H 0.2962 0.19828 0.90619 0.0
H675 H 0.36266 0.24062 0.92335 0.0
H676 H 0.29801 0.35177 0.90813 0.0
H677 H 0.23103 0.30998 0.89128 0.0
C678 C 0.09705 0.1882 0.76726 0.0
C679 C 0.08643 0.22793 0.75555 0.0
C680 C 0.12202 0.18297 0.79645 0.0
C681 C 0.13533 0.2172 0.81492 0.0
C682 C 0.12612 0.25728 0.80257 0.0
C683 C 0.10193 0.26263 0.77292 0.0
C684 C 0.15681 0.21055 0.84758 0.0
C685 C 0.19498 0.23382 0.85813 0.0
C686 C 0.14047 0.1801 0.86796 0.0
C687 C 0.09819 0.15751 0.85958 0.0
C688 C 0.06292 0.17948 0.84774 0.0
C689 C 0.02353 0.15806 0.83899 0.0
C690 C 0.01865 0.1147 0.84276 0.0
C691 C 0.05325 0.09262 0.8551 0.0
C692 C 0.09289 0.11382 0.8634 0.0
C693 C 0.24659 0.19495 0.99329 0.0
C694 C 0.26105 0.15504 0.99928 0.0
C695 C 0.22958 0.20871 0.96307 0.0
C696 C 0.2265 0.1826 0.93855 0.0
C697 C 0.24262 0.14366 0.94424 0.0
C698 C 0.26011 0.13015 0.97424 0.0
C699 C 0.20309 0.19385 0.90741 0.0
C700 C 0.1643 0.17169 0.89737 0.0
C701 C 0.21827 0.22591 0.88791 0.0
C702 C 0.25856 0.25096 0.89782 0.0
C703 C 0.29609 0.2317 0.90679 0.0
C704 C 0.33387 0.25561 0.91639 0.0
C705 C 0.33454 0.29884 0.91692 0.0
C706 C 0.29744 0.31827 0.90775 0.0
C707 C 0.25958 0.29449 0.89815 0.0
H708 H 0.36382 0.3173 0.92437 0.0
H709 H 0.98805 0.09822 0.83613 0.0
H710 H 0.75289 0.0656 0.35736 0.0
H711 H 0.76796 0.09038 0.40982 0.0
H712 H 0.8855 0.152 0.39296 0.0
H713 H 0.87097 0.1265 0.34087 0.0
H714 H 0.89741 0.11558 0.44778 0.0
H715 H 0.79462 0.20499 0.39255 0.0
H716 H 0.72666 0.22049 0.36051 0.0
H717 H 0.66242 0.15734 0.42913 0.0
H718 H 0.73004 0.14101 0.4614 0.0
H719 H 0.94997 0.26021 0.55845 0.0
H720 H 0.91715 0.2337 0.50846 0.0
H721 H 0.82812 0.15434 0.55153 0.0
H722 H 0.86145 0.18072 0.60227 0.0
H723 H 0.7971 0.19397 0.48695 0.0
H724 H 0.89895 0.10966 0.54438 0.0
H725 H 0.96618 0.09425 0.57722 0.0
H726 H 0.03146 0.14568 0.50563 0.0
H727 H 0.96451 0.16207 0.47242 0.0
C728 C 0.78185 0.08457 0.36484 0.0
C729 C 0.81071 0.09412 0.34494 0.0
C730 C 0.79043 0.09883 0.39484 0.0
C731 C 0.82766 0.12366 0.40535 0.0
C732 C 0.8566 0.13289 0.38552 0.0
C733 C 0.84828 0.11825 0.35572 0.0
C734 C 0.83687 0.13989 0.43698 0.0
C735 C 0.87558 0.13309 0.4561 0.0
C736 C 0.8079 0.16151 0.44852 0.0
C737 C 0.76732 0.17148 0.42923 0.0
C738 C 0.76598 0.19419 0.4007 0.0
C739 C 0.72754 0.20315 0.38252 0.0
C740 C 0.69024 0.18982 0.39274 0.0
C741 C 0.69133 0.1676 0.42122 0.0
C742 C 0.72969 0.15852 0.43947 0.0
C743 C 0.92256 0.23809 0.55723 0.0
C744 C 0.90833 0.22241 0.58427 0.0
C745 C 0.90391 0.22291 0.52863 0.0
C746 C 0.87063 0.19172 0.52641 0.0
C747 C 0.85377 0.17853 0.55285 0.0
C748 C 0.87263 0.19377 0.58175 0.0
C749 C 0.85759 0.17001 0.49718 0.0
C750 C 0.81855 0.17604 0.47857 0.0
C751 C 0.88605 0.14728 0.48618 0.0
C752 C 0.92659 0.13743 0.50596 0.0
C753 C 0.92762 0.1181 0.5357 0.0
C754 C 0.96571 0.10913 0.55439 0.0
C755 C 0.00312 0.11925 0.54358 0.0
C756 C 0.00245 0.1381 0.51399 0.0
C757 C 0.9644 0.14713 0.49519 0.0
H758 H 0.03262 0.11238 0.55807 0.0
H759 H 0.66051 0.19678 0.37863 0.0
loop_
_geom_bond_atom_site_label_1
_geom_bond_atom_site_label_2
_geom_bond_distance
_geom_bond_site_symmetry_2
_ccdc_geom_bond_type
Sm0 C2 2.846 . S
Sm0 O20 2.543 . S
Sm0 O21 2.450 . S
Sm0 O22 2.681 . S
Sm0 O23 2.464 . S
Sm0 O24 2.396 . S
Sm0 O28 2.386 . S
Sm0 O31 2.408 . S
Sm1 C11 2.846 1_544 S
Sm1 O22 2.386 . S
Sm1 O25 2.408 1_545 S
Sm1 O26 2.545 . S
Sm1 O27 2.450 1_545 S
Sm1 O28 2.681 . S
Sm1 O29 2.464 . S
Sm1 O30 2.396 . S
C2 Sm0 2.846 . S
C2 C3 1.506 . S
C2 O20 1.261 . S
C2 O21 1.242 . S
C3 C2 1.506 . S
C3 C4 1.358 . S
C3 C8 1.382 . S
C4 C3 1.358 . S
C4 C5 1.385 . S
C4 H32 0.930 . S
C5 C4 1.385 . S
C5 C6 1.395 . S
C5 H33 0.929 . S
C6 C5 1.395 . S
C6 C7 1.335 . S
C7 C6 1.335 . S
C7 C8 1.398 . S
C7 H34 0.930 . S
C8 C3 1.382 . S
C8 C7 1.398 . S
C8 H35 0.929 . S
C9 O22 1.271 . S
C9 O23 1.251 . S
C10 O24 1.252 . S
C10 O25 1.272 1_545 S
C11 Sm1 2.846 1_566 S
C11 C12 1.506 . S
C11 O26 1.256 1_566 S
C11 O27 1.242 1_556 S
C12 C11 1.506 . S
C12 C13 1.358 . S
C12 C17 1.382 . S
C13 C12 1.358 . S
C13 C14 1.385 . S
C13 H36 0.930 . S
C14 C13 1.385 . S
C14 C15 1.395 . S
C14 H37 0.929 . S
C15 C14 1.395 . S
C15 C16 1.335 . S
C16 C15 1.335 . S
C16 C17 1.398 . S
C16 H38 0.930 . S
C17 C12 1.382 . S
C17 C16 1.398 . S
C17 H39 0.929 . S
C18 O28 1.271 . S
C18 O29 1.251 . S
C19 O30 1.252 . S
C19 O31 1.272 . S
O20 Sm0 2.543 . S
O20 C2 1.261 . S
O21 Sm0 2.450 . S
O21 C2 1.242 . S
O22 Sm0 2.681 . S
O22 Sm1 2.386 . S
O22 C9 1.271 . S
O23 Sm0 2.464 . S
O23 C9 1.251 . S
O24 Sm0 2.396 . S
O24 C10 1.252 . S
O25 Sm1 2.408 1_565 S
O25 C10 1.272 1_565 S
O26 Sm1 2.545 . S
O26 C11 1.256 1_544 S
O27 Sm1 2.450 1_565 S
O27 C11 1.242 1_554 S
O28 Sm0 2.386 . S
O28 Sm1 2.681 . S
O28 C18 1.271 . S
O29 Sm1 2.464 . S
O29 C18 1.251 . S
O30 Sm1 2.396 . S
O30 C19 1.252 . S
O31 Sm0 2.408 . S
O31 C19 1.272 . S
H32 C4 0.930 . S
H33 C5 0.929 . S
H34 C7 0.930 . S
H35 C8 0.929 . S
H36 C13 0.930 . S
H37 C14 0.929 . S
H38 C16 0.930 . S
H39 C17 0.929 . S
Sm40 C42 2.846 . S
Sm40 O60 2.543 . S
Sm40 O61 2.450 . S
Sm40 O62 2.681 1_655 S
Sm40 O63 2.464 . S
Sm40 O64 2.396 1_655 S
Sm40 O68 2.386 1_655 S
Sm40 O71 2.408 . S
Sm41 C51 2.846 . S
Sm41 O62 2.386 . S
Sm41 O65 2.408 . S
Sm41 O66 2.543 . S
Sm41 O67 2.450 . S
Sm41 O68 2.681 . S
Sm41 O69 2.464 . S
Sm41 O70 2.396 . S
C42 Sm40 2.846 . S
C42 C43 1.506 . S
C42 O60 1.261 . S
C42 O61 1.242 . S
C43 C42 1.506 . S
C43 C44 1.358 . S
C43 C48 1.382 . S
C44 C43 1.358 . S
C44 C45 1.385 . S
C44 H72 0.930 . S
C45 C44 1.385 . S
C45 C46 1.395 . S
C45 H73 0.929 . S
C46 C45 1.395 . S
C46 C47 1.335 . S
C47 C46 1.335 . S
C47 C48 1.398 . S
C47 H74 0.930 . S
C48 C43 1.382 . S
C48 C47 1.398 . S
C48 H75 0.929 . S
C49 O62 1.271 . S
C49 O63 1.251 1_455 S
C50 O64 1.252 . S
C50 O65 1.272 . S
C51 Sm41 2.846 . S
C51 C52 1.506 . S
C51 O66 1.261 . S
C51 O67 1.242 . S
C52 C51 1.506 . S
C52 C53 1.358 . S
C52 C57 1.382 . S
C53 C52 1.358 . S
C53 C54 1.385 . S
C53 H76 0.930 . S
C54 C53 1.385 . S
C54 C55 1.395 . S
C54 H77 0.929 . S
C55 C54 1.395 . S
C55 C56 1.335 . S
C56 C55 1.335 . S
C56 C57 1.398 . S
C56 H78 0.930 . S
C57 C52 1.382 . S
C57 C56 1.398 . S
C57 H79 0.929 . S
C58 O68 1.271 . S
C58 O69 1.251 . S
C59 O70 1.252 1_655 S
C59 O71 1.272 . S
O60 Sm40 2.543 . S
O60 C42 1.261 . S
O61 Sm40 2.450 . S
O61 C42 1.242 . S
O62 Sm40 2.681 1_455 S
O62 Sm41 2.386 . S
O62 C49 1.271 . S
O63 Sm40 2.464 . S
O63 C49 1.251 1_655 S
O64 Sm40 2.396 1_455 S
O64 C50 1.252 . S
O65 Sm41 2.408 . S
O65 C50 1.272 . S
O66 Sm41 2.543 . S
O66 C51 1.261 . S
O67 Sm41 2.450 . S
O67 C51 1.242 . S
O68 Sm40 2.386 1_455 S
O68 Sm41 2.681 . S
O68 C58 1.271 . S
O69 Sm41 2.464 . S
O69 C58 1.251 . S
O70 Sm41 2.396 . S
O70 C59 1.252 1_455 S
O71 Sm40 2.408 . S
O71 C59 1.272 . S
H72 C44 0.930 . S
H73 C45 0.929 . S
H74 C47 0.930 . S
H75 C48 0.929 . S
H76 C53 0.930 . S
H77 C54 0.929 . S
H78 C56 0.930 . S
H79 C57 0.929 . S
Sm80 C82 2.846 . S
Sm80 O100 2.543 . S
Sm80 O101 2.450 . S
Sm80 O102 2.681 1_545 S
Sm80 O103 2.464 . S
Sm80 O104 2.396 1_545 S
Sm80 O108 2.386 . S
Sm80 O111 2.408 . S
Sm81 C91 2.846 . S
Sm81 O102 2.386 . S
Sm81 O105 2.408 . S
Sm81 O106 2.543 . S
Sm81 O107 2.450 . S
Sm81 O108 2.681 1_565 S
Sm81 O109 2.464 . S
Sm81 O110 2.396 1_565 S
C82 Sm80 2.846 . S
C82 C83 1.506 . S
C82 O100 1.261 . S
C82 O101 1.242 . S
C83 C82 1.506 . S
C83 C84 1.358 . S
C83 C88 1.382 . S
C84 C83 1.358 . S
C84 C85 1.385 . S
C84 H112 0.930 . S
C85 C84 1.385 . S
C85 C86 1.395 . S
C85 H113 0.929 . S
C86 C85 1.395 . S
C86 C87 1.335 . S
C87 C86 1.335 . S
C87 C88 1.398 . S
C87 H114 0.930 . S
C88 C83 1.382 . S
C88 C87 1.398 . S
C88 H115 0.929 . S
C89 O102 1.271 1_545 S
C89 O103 1.251 . S
C90 O104 1.252 . S
C90 O105 1.272 . S
C91 Sm81 2.846 . S
C91 C92 1.506 . S
C91 O106 1.261 . S
C91 O107 1.242 . S
C92 C91 1.506 . S
C92 C93 1.358 . S
C92 C97 1.382 . S
C93 C92 1.358 . S
C93 C94 1.385 1_554 S
C93 H116 0.930 . S
C94 C93 1.385 1_556 S
C94 C95 1.395 . S
C94 H117 0.929 . S
C95 C94 1.395 . S
C95 C96 1.335 . S
C96 C95 1.335 . S
C96 C97 1.398 1_556 S
C96 H118 0.930 . S
C97 C92 1.382 . S
C97 C96 1.398 1_554 S
C97 H119 0.929 . S
C98 O108 1.271 1_565 S
C98 O109 1.251 . S
C99 O110 1.252 . S
C99 O111 1.272 . S
O100 Sm80 2.543 . S
O100 C82 1.261 . S
O101 Sm80 2.450 . S
O101 C82 1.242 . S
O102 Sm80 2.681 1_565 S
O102 Sm81 2.386 . S
O102 C89 1.271 1_565 S
O103 Sm80 2.464 . S
O103 C89 1.251 . S
O104 Sm80 2.396 1_565 S
O104 C90 1.252 . S
O105 Sm81 2.408 . S
O105 C90 1.272 . S
O106 Sm81 2.543 . S
O106 C91 1.261 . S
O107 Sm81 2.450 . S
O107 C91 1.242 . S
O108 Sm80 2.386 . S
O108 Sm81 2.681 1_545 S
O108 C98 1.271 1_545 S
O109 Sm81 2.464 . S
O109 C98 1.251 . S
O110 Sm81 2.396 1_545 S
O110 C99 1.252 . S
O111 Sm80 2.408 . S
O111 C99 1.272 . S
H112 C84 0.930 . S
H113 C85 0.929 . S
H114 C87 0.930 . S
H115 C88 0.929 . S
H116 C93 0.930 . S
H117 C94 0.929 . S
H118 C96 0.930 . S
H119 C97 0.929 . S
Sm120 C122 2.846 . S
Sm120 O140 2.543 . S
Sm120 O141 2.450 . S
Sm120 O142 2.681 1_655 S
Sm120 O143 2.464 . S
Sm120 O144 2.396 1_655 S
Sm120 O148 2.386 1_655 S
Sm120 O151 2.408 . S
Sm121 C131 2.846 . S
Sm121 O142 2.386 . S
Sm121 O145 2.408 . S
Sm121 O146 2.543 . S
Sm121 O147 2.450 . S
Sm121 O148 2.681 . S
Sm121 O149 2.464 . S
Sm121 O150 2.396 . S
C122 Sm120 2.846 . S
C122 C123 1.506 . S
C122 O140 1.261 . S
C122 O141 1.242 . S
C123 C122 1.506 . S
C123 C124 1.358 . S
C123 C128 1.382 . S
C124 C123 1.358 . S
C124 C125 1.385 . S
C124 H152 0.930 . S
C125 C124 1.385 . S
C125 C126 1.395 . S
C125 H153 0.929 . S
C126 C125 1.395 . S
C126 C127 1.335 . S
C127 C126 1.335 . S
C127 C128 1.398 . S
C127 H154 0.930 . S
C128 C123 1.382 . S
C128 C127 1.398 . S
C128 H155 0.929 . S
C129 O142 1.271 . S
C129 O143 1.251 1_455 S
C130 O144 1.252 . S
C130 O145 1.272 . S
C131 Sm121 2.846 . S
C131 C132 1.506 . S
C131 O146 1.261 . S
C131 O147 1.242 . S
C132 C131 1.506 . S
C132 C133 1.358 . S
C132 C137 1.382 . S
C133 C132 1.358 . S
C133 C134 1.385 . S
C133 H156 0.930 . S
C134 C133 1.385 . S
C134 C135 1.395 . S
C134 H157 0.929 . S
C135 C134 1.395 . S
C135 C136 1.335 . S
C136 C135 1.335 . S
C136 C137 1.398 . S
C136 H158 0.930 . S
C137 C132 1.382 . S
C137 C136 1.398 . S
C137 H159 0.929 . S
C138 O148 1.271 . S
C138 O149 1.251 . S
C139 O150 1.252 1_655 S
C139 O151 1.272 . S
O140 Sm120 2.543 . S
O140 C122 1.261 . S
O141 Sm120 2.450 . S
O141 C122 1.242 . S
O142 Sm120 2.681 1_455 S
O142 Sm121 2.386 . S
O142 C129 1.271 . S
O143 Sm120 2.464 . S
O143 C129 1.251 1_655 S
O144 Sm120 2.396 1_455 S
O144 C130 1.252 . S
O145 Sm121 2.408 . S
O145 C130 1.272 . S
O146 Sm121 2.543 . S
O146 C131 1.261 . S
O147 Sm121 2.450 . S
O147 C131 1.242 . S
O148 Sm120 2.386 1_455 S
O148 Sm121 2.681 . S
O148 C138 1.271 . S
O149 Sm121 2.464 . S
O149 C138 1.251 . S
O150 Sm121 2.396 . S
O150 C139 1.252 1_455 S
O151 Sm120 2.408 . S
O151 C139 1.272 . S
H152 C124 0.930 . S
H153 C125 0.929 . S
H154 C127 0.930 . S
H155 C128 0.929 . S
H156 C133 0.930 . S
H157 C134 0.929 . S
H158 C136 0.930 . S
H159 C137 0.929 . S
H160 C178 0.951 . S
H161 C180 0.951 . S
H162 C182 0.950 . S
H163 C183 0.950 . S
H164 C185 0.950 1_565 S
H165 C188 0.950 . S
H166 C189 0.950 . S
H167 C191 0.950 . S
H168 C192 0.950 . S
H169 C193 0.951 . S
H170 C195 0.951 . S
H171 C197 0.950 . S
H172 C198 0.950 . S
H173 C200 0.950 . S
H174 C203 0.950 . S
H175 C204 0.950 . S
H176 C206 0.950 1_655 S
H177 C207 0.950 1_645 S
C178 H160 0.951 . S
C178 C179 1.366 . S
C178 C180 1.388 . S
C179 C178 1.366 . S
C179 C183 1.385 1_565 S
C180 H161 0.951 . S
C180 C178 1.388 . S
C180 C181 1.366 1_565 S
C181 C180 1.366 1_545 S
C181 C182 1.414 . S
C181 C184 1.499 . S
C182 H162 0.950 . S
C182 C181 1.414 . S
C182 C183 1.374 . S
C183 H163 0.950 . S
C183 C179 1.385 1_545 S
C183 C182 1.374 . S
C184 C181 1.499 . S
C184 C185 1.373 . S
C184 C186 1.389 1_655 S
C185 H164 0.950 1_545 S
C185 C184 1.373 . S
C185 C201 1.377 1_655 S
C186 C184 1.389 1_455 S
C186 C187 1.524 . S
C186 C200 1.377 . S
C187 C186 1.524 . S
C187 C188 1.397 1_455 S
C187 C192 1.363 . S
C188 H165 0.950 . S
C188 C187 1.397 1_655 S
C188 C189 1.334 . S
C189 H166 0.950 . S
C189 C188 1.334 . S
C189 C190 1.287 1_655 S
C190 C189 1.287 1_455 S
C190 C191 1.524 . S
C190 H209 0.913 . S
C191 H167 0.950 . S
C191 C190 1.524 . S
C191 C192 1.415 . S
C192 H168 0.950 . S
C192 C187 1.363 . S
C192 C191 1.415 . S
C193 H169 0.951 . S
C193 C194 1.366 . S
C193 C195 1.388 . S
C194 C193 1.366 . S
C194 C198 1.385 . S
C195 H170 0.951 . S
C195 C193 1.388 . S
C195 C196 1.366 . S
C196 C195 1.366 . S
C196 C197 1.414 . S
C196 C199 1.499 . S
C197 H171 0.950 . S
C197 C196 1.414 . S
C197 C198 1.374 . S
C198 H172 0.950 . S
C198 C194 1.385 . S
C198 C197 1.374 . S
C199 C196 1.499 . S
C199 C200 1.373 . S
C199 C201 1.389 . S
C200 H173 0.950 . S
C200 C186 1.377 . S
C200 C199 1.373 . S
C201 C185 1.377 1_455 S
C201 C199 1.389 . S
C201 C202 1.524 1_545 S
C202 C201 1.524 1_565 S
C202 C203 1.397 . S
C202 C207 1.363 . S
C203 H174 0.950 . S
C203 C202 1.397 . S
C203 C204 1.334 . S
C204 H175 0.950 . S
C204 C203 1.334 . S
C204 C205 1.287 . S
C205 C204 1.287 . S
C205 C206 1.524 1_554 S
C205 H208 0.999 1_554 S
C206 H176 0.950 1_455 S
C206 C205 1.524 1_556 S
C206 C207 1.415 1_556 S
C207 H177 0.950 1_465 S
C207 C202 1.363 . S
C207 C206 1.415 1_554 S
H208 C205 0.999 1_556 S
H209 C190 0.913 . S
H210 C228 0.951 . S
H211 C230 0.951 . S
H212 C232 0.950 . S
H213 C233 0.950 . S
H214 C235 0.950 . S
H215 C238 0.950 . S
H216 C239 0.950 . S
H217 C241 0.950 1_655 S
H218 C242 0.974 . S
H219 C243 0.951 . S
H220 C245 0.951 . S
H221 C247 0.950 . S
H222 C248 0.950 . S
H223 C250 0.950 . S
H224 C253 0.950 . S
H225 C254 0.950 . S
H226 C256 0.950 . S
H227 C257 0.947 1_565 S
C228 H210 0.951 . S
C228 C229 1.366 1_655 S
C228 C230 1.388 . S
C229 C228 1.366 1_455 S
C229 C233 1.385 . S
C230 H211 0.951 . S
C230 C228 1.388 . S
C230 C231 1.366 1_655 S
C231 C230 1.366 1_455 S
C231 C232 1.414 . S
C231 C234 1.499 . S
C232 H212 0.950 . S
C232 C231 1.414 . S
C232 C233 1.374 . S
C233 H213 0.950 . S
C233 C229 1.385 . S
C233 C232 1.374 . S
C234 C231 1.499 . S
C234 C235 1.373 . S
C234 C236 1.389 1_565 S
C235 H214 0.950 . S
C235 C234 1.373 . S
C235 C251 1.377 1_565 S
C236 C234 1.389 1_545 S
C236 C237 1.524 . S
C236 C250 1.377 . S
C237 C236 1.524 . S
C237 C238 1.397 . S
C237 C242 1.347 1_455 S
C238 H215 0.950 . S
C238 C237 1.397 . S
C238 C239 1.334 . S
C239 H216 0.950 . S
C239 C238 1.334 . S
C239 C240 1.287 . S
C240 C239 1.287 . S
C240 C241 1.524 . S
C240 H259 0.913 . S
C241 H217 0.950 1_455 S
C241 C240 1.524 . S
C241 C242 1.408 1_455 S
C242 H218 0.974 . S
C242 C237 1.347 1_655 S
C242 C241 1.408 1_655 S
C243 H219 0.951 . S
C243 C244 1.366 . S
C243 C245 1.388 . S
C244 C243 1.366 . S
C244 C248 1.385 1_455 S
C245 H220 0.951 . S
C245 C243 1.388 . S
C245 C246 1.366 . S
C246 C245 1.366 . S
C246 C247 1.414 1_455 S
C246 C249 1.499 . S
C247 H221 0.950 . S
C247 C246 1.414 1_655 S
C247 C248 1.374 . S
C248 H222 0.950 . S
C248 C244 1.385 1_655 S
C248 C247 1.374 . S
C249 C246 1.499 . S
C249 C250 1.373 . S
C249 C251 1.389 . S
C250 H223 0.950 . S
C250 C236 1.377 . S
C250 C249 1.373 . S
C251 C235 1.377 1_545 S
C251 C249 1.389 . S
C251 C252 1.524 . S
C252 C251 1.524 . S
C252 C253 1.397 1_455 S
C252 C257 1.366 . S
C253 H224 0.950 . S
C253 C252 1.397 1_655 S
C253 C254 1.334 . S
C254 H225 0.950 . S
C254 C253 1.334 . S
C254 C255 1.287 1_655 S
C255 C254 1.287 1_455 S
C255 C256 1.524 1_545 S
C255 H258 0.999 . S
C256 H226 0.950 . S
C256 C255 1.524 1_565 S
C256 C257 1.414 1_565 S
C257 H227 0.947 1_545 S
C257 C252 1.366 . S
C257 C256 1.414 1_545 S
H258 C255 0.999 . S
H259 C240 0.913 . S
H260 C278 0.951 . S
H261 C280 0.951 . S
H262 C282 0.950 . S
H263 C283 0.950 . S
H264 C285 0.950 . S
H265 C288 0.950 . S
H266 C289 0.950 1_545 S
H267 C291 0.950 . S
H268 C292 0.950 . S
H269 C293 0.951 . S
H270 C295 0.951 . S
H271 C297 0.950 1_565 S
H272 C298 0.943 1_565 S
H273 C300 0.950 . S
H274 C303 0.950 . S
H275 C304 0.950 . S
H276 C306 0.950 . S
H277 C307 0.950 . S
C278 H260 0.951 . S
C278 C279 1.383 . S
C278 C280 1.388 . S
C279 C278 1.383 . S
C279 C283 1.361 1_565 S
C280 H261 0.951 . S
C280 C278 1.388 . S
C280 C281 1.366 1_565 S
C281 C280 1.366 1_545 S
C281 C282 1.414 . S
C281 C284 1.499 . S
C282 H262 0.950 . S
C282 C281 1.414 . S
C282 C283 1.374 . S
C283 H263 0.950 . S
C283 C279 1.361 1_545 S
C283 C282 1.374 . S
C284 C281 1.499 . S
C284 C285 1.373 . S
C284 C286 1.389 . S
C285 H264 0.950 . S
C285 C284 1.373 . S
C285 C301 1.377 . S
C286 C284 1.389 . S
C286 C287 1.524 1_545 S
C286 C300 1.377 . S
C287 C286 1.524 1_565 S
C287 C288 1.397 1_565 S
C287 C292 1.363 . S
C288 H265 0.950 . S
C288 C287 1.397 1_545 S
C288 C289 1.334 1_545 S
C289 H266 0.950 1_565 S
C289 C288 1.334 1_565 S
C289 C290 1.287 . S
C290 C289 1.287 . S
C290 C291 1.524 . S
C290 H309 0.913 1_554 S
C291 H267 0.950 . S
C291 C290 1.524 . S
C291 C292 1.415 . S
C292 H268 0.950 . S
C292 C287 1.363 . S
C292 C291 1.415 . S
C293 H269 0.951 . S
C293 C294 1.366 . S
C293 C295 1.388 . S
C294 C293 1.366 . S
C294 C298 1.385 . S
C295 H270 0.951 . S
C295 C293 1.388 . S
C295 C296 1.366 . S
C296 C295 1.366 . S
C296 C297 1.414 . S
C296 C299 1.499 . S
C297 H271 0.950 1_545 S
C297 C296 1.414 . S
C297 C298 1.374 . S
C298 H272 0.943 1_545 S
C298 C294 1.385 . S
C298 C297 1.374 . S
C299 C296 1.499 . S
C299 C300 1.373 . S
C299 C301 1.389 . S
C300 H273 0.950 . S
C300 C286 1.377 . S
C300 C299 1.373 . S
C301 C285 1.377 . S
C301 C299 1.389 . S
C301 C302 1.524 . S
C302 C301 1.524 . S
C302 C303 1.397 . S
C302 C307 1.363 . S
C303 H274 0.950 . S
C303 C302 1.397 . S
C303 C304 1.334 . S
C304 H275 0.950 . S
C304 C303 1.334 . S
C304 C305 1.287 . S
C305 C304 1.287 . S
C305 C306 1.524 . S
C305 H308 0.999 . S
C306 H276 0.950 . S
C306 C305 1.524 . S
C306 C307 1.415 . S
C307 H277 0.950 . S
C307 C302 1.363 . S
C307 C306 1.415 . S
H308 C305 0.999 . S
H309 C290 0.913 1_556 S
H310 C328 0.951 . S
H311 C330 0.951 . S
H312 C332 0.950 . S
H313 C333 0.950 . S
H314 C335 0.950 1_655 S
H315 C338 0.950 . S
H316 C339 0.950 . S
H317 C341 0.950 . S
H318 C342 0.950 . S
H319 C343 0.951 . S
H320 C345 0.951 . S
H321 C347 0.950 . S
H322 C348 0.950 . S
H323 C350 0.950 . S
H324 C353 0.950 . S
H325 C354 0.950 1_455 S
H326 C356 0.950 . S
H327 C357 0.950 . S
C328 H310 0.951 . S
C328 C329 1.366 . S
C328 C330 1.388 . S
C329 C328 1.366 . S
C329 C333 1.385 1_455 S
C330 H311 0.951 . S
C330 C328 1.388 . S
C330 C331 1.366 . S
C331 C330 1.366 . S
C331 C332 1.414 1_455 S
C331 C334 1.499 . S
C332 H312 0.950 . S
C332 C331 1.414 1_655 S
C332 C333 1.374 . S
C333 H313 0.950 . S
C333 C329 1.385 1_655 S
C333 C332 1.374 . S
C334 C331 1.499 . S
C334 C335 1.373 . S
C334 C336 1.389 . S
C335 H314 0.950 1_455 S
C335 C334 1.373 . S
C335 C351 1.377 . S
C336 C334 1.389 . S
C336 C337 1.524 . S
C336 C350 1.377 . S
C337 C336 1.524 . S
C337 C338 1.397 . S
C337 C342 1.363 . S
C338 H315 0.950 . S
C338 C337 1.397 . S
C338 C339 1.334 . S
C339 H316 0.950 . S
C339 C338 1.334 . S
C339 C340 1.287 . S
C340 C339 1.287 . S
C340 C341 1.524 . S
C340 H359 0.913 . S
C341 H317 0.950 . S
C341 C340 1.524 . S
C341 C342 1.415 . S
C342 H318 0.950 . S
C342 C337 1.363 . S
C342 C341 1.415 . S
C343 H319 0.951 . S
C343 C344 1.366 1_655 S
C343 C345 1.388 . S
C344 C343 1.366 1_455 S
C344 C348 1.385 . S
C345 H320 0.951 . S
C345 C343 1.388 . S
C345 C346 1.366 1_655 S
C346 C345 1.366 1_455 S
C346 C347 1.414 . S
C346 C349 1.499 . S
C347 H321 0.950 . S
C347 C346 1.414 . S
C347 C348 1.374 . S
C348 H322 0.950 . S
C348 C344 1.385 . S
C348 C347 1.374 . S
C349 C346 1.499 . S
C349 C350 1.373 . S
C349 C351 1.389 . S
C350 H323 0.950 . S
C350 C336 1.377 . S
C350 C349 1.373 . S
C351 C335 1.377 . S
C351 C349 1.389 . S
C351 C352 1.524 1_455 S
C352 C351 1.524 1_655 S
C352 C353 1.397 1_655 S
C352 C357 1.363 . S
C353 H324 0.950 . S
C353 C352 1.397 1_455 S
C353 C354 1.334 1_455 S
C354 H325 0.950 1_655 S
C354 C353 1.334 1_655 S
C354 C355 1.287 . S
C355 C354 1.287 . S
C355 C356 1.524 . S
C355 H358 0.999 . S
C356 H326 0.950 . S
C356 C355 1.524 . S
C356 C357 1.415 . S
C357 H327 0.950 . S
C357 C352 1.363 . S
C357 C356 1.415 . S
H358 C355 0.999 . S
H359 C340 0.913 . S
H360 C378 0.951 . S
H361 C380 0.951 . S
H362 C382 0.950 . S
H363 C383 0.950 . S
H364 C385 0.950 . S
H365 C388 0.950 . S
H366 C389 0.950 . S
H367 C391 0.950 . S
H368 C392 0.950 . S
H369 C393 0.951 . S
H370 C395 0.951 . S
H371 C397 0.950 . S
H372 C398 0.950 . S
H373 C400 0.950 . S
H374 C403 0.950 . S
H375 C404 0.950 . S
H376 C406 0.950 . S
H377 C407 0.950 . S
C378 H360 0.951 . S
C378 C379 1.366 . S
C378 C380 1.388 . S
C379 C378 1.366 . S
C379 C383 1.385 . S
C380 H361 0.951 . S
C380 C378 1.388 . S
C380 C381 1.366 . S
C381 C380 1.366 . S
C381 C382 1.414 . S
C381 C384 1.499 . S
C382 H362 0.950 . S
C382 C381 1.414 . S
C382 C383 1.374 . S
C383 H363 0.950 . S
C383 C379 1.385 . S
C383 C382 1.374 . S
C384 C381 1.499 . S
C384 C385 1.373 . S
C384 C386 1.389 . S
C385 H364 0.950 . S
C385 C384 1.373 . S
C385 C401 1.377 . S
C386 C384 1.389 . S
C386 C387 1.524 . S
C386 C400 1.377 . S
C387 C386 1.524 . S
C387 C388 1.397 . S
C387 C392 1.363 . S
C388 H365 0.950 . S
C388 C387 1.397 . S
C388 C389 1.334 . S
C389 H366 0.950 . S
C389 C388 1.334 . S
C389 C390 1.287 . S
C390 C389 1.287 . S
C390 C391 1.524 . S
C390 H409 0.913 . S
C391 H367 0.950 . S
C391 C390 1.524 . S
C391 C392 1.415 . S
C392 H368 0.950 . S
C392 C387 1.363 . S
C392 C391 1.415 . S
C393 H369 0.951 . S
C393 C394 1.366 . S
C393 C395 1.388 . S
C394 C393 1.366 . S
C394 C398 1.385 . S
C395 H370 0.951 . S
C395 C393 1.388 . S
C395 C396 1.366 . S
C396 C395 1.366 . S
C396 C397 1.414 . S
C396 C399 1.499 . S
C397 H371 0.950 . S
C397 C396 1.414 . S
C397 C398 1.374 . S
C398 H372 0.950 . S
C398 C394 1.385 . S
C398 C397 1.374 . S
C399 C396 1.499 . S
C399 C400 1.373 . S
C399 C401 1.389 . S
C400 H373 0.950 . S
C400 C386 1.377 . S
C400 C399 1.373 . S
C401 C385 1.377 . S
C401 C399 1.389 . S
C401 C402 1.524 . S
C402 C401 1.524 . S
C402 C403 1.397 . S
C402 C407 1.363 . S
C403 H374 0.950 . S
C403 C402 1.397 . S
C403 C404 1.334 . S
C404 H375 0.950 . S
C404 C403 1.334 . S
C404 C405 1.287 . S
C405 C404 1.287 . S
C405 C406 1.524 . S
C405 H408 0.999 . S
C406 H376 0.950 . S
C406 C405 1.524 . S
C406 C407 1.415 . S
C407 H377 0.950 . S
C407 C402 1.363 . S
C407 C406 1.415 . S
H408 C405 0.999 . S
H409 C390 0.913 . S
H410 C428 0.951 . S
H411 C430 0.951 . S
H412 C432 0.950 . S
H413 C433 0.950 . S
H414 C435 0.950 . S
H415 C438 0.950 . S
H416 C439 0.950 . S
H417 C441 0.950 . S
H418 C442 0.950 . S
H419 C443 0.951 . S
H420 C445 0.951 . S
H421 C447 0.950 . S
H422 C448 0.950 . S
H423 C450 0.950 . S
H424 C453 0.950 . S
H425 C454 0.950 . S
H426 C456 0.950 1_455 S
H427 C457 0.950 . S
C428 H410 0.951 . S
C428 C429 1.366 . S
C428 C430 1.388 . S
C429 C428 1.366 . S
C429 C433 1.385 . S
C430 H411 0.951 . S
C430 C428 1.388 . S
C430 C431 1.366 . S
C431 C430 1.366 . S
C431 C432 1.414 . S
C431 C434 1.499 . S
C432 H412 0.950 . S
C432 C431 1.414 . S
C432 C433 1.374 . S
C433 H413 0.950 . S
C433 C429 1.385 . S
C433 C432 1.374 . S
C434 C431 1.499 . S
C434 C435 1.373 . S
C434 C436 1.389 . S
C435 H414 0.950 . S
C435 C434 1.373 . S
C435 C451 1.377 . S
C436 C434 1.389 . S
C436 C437 1.524 . S
C436 C450 1.377 . S
C437 C436 1.524 . S
C437 C438 1.397 . S
C437 C442 1.363 . S
C438 H415 0.950 . S
C438 C437 1.397 . S
C438 C439 1.334 . S
C439 H416 0.950 . S
C439 C438 1.334 . S
C439 C440 1.287 . S
C440 C439 1.287 . S
C440 C441 1.524 . S
C440 H459 0.913 . S
C441 H417 0.950 . S
C441 C440 1.524 . S
C441 C442 1.415 . S
C442 H418 0.950 . S
C442 C437 1.363 . S
C442 C441 1.415 . S
C443 H419 0.951 . S
C443 C444 1.366 . S
C443 C445 1.388 . S
C444 C443 1.366 . S
C444 C448 1.385 . S
C445 H420 0.951 . S
C445 C443 1.388 . S
C445 C446 1.366 1_554 S
C446 C445 1.366 1_556 S
C446 C447 1.414 . S
C446 C449 1.499 . S
C447 H421 0.950 . S
C447 C446 1.414 . S
C447 C448 1.374 1_556 S
C448 H422 0.950 . S
C448 C444 1.385 . S
C448 C447 1.374 1_554 S
C449 C446 1.499 . S
C449 C450 1.373 . S
C449 C451 1.389 . S
C450 H423 0.950 . S
C450 C436 1.377 . S
C450 C449 1.373 . S
C451 C435 1.377 . S
C451 C449 1.389 . S
C451 C452 1.524 . S
C452 C451 1.524 . S
C452 C453 1.397 . S
C452 C457 1.363 . S
C453 H424 0.950 . S
C453 C452 1.397 . S
C453 C454 1.334 1_545 S
C454 H425 0.950 . S
C454 C453 1.334 1_565 S
C454 C455 1.287 1_565 S
C455 C454 1.287 1_545 S
C455 C456 1.524 . S
C455 H458 0.999 1_545 S
C456 H426 0.950 1_655 S
C456 C455 1.524 . S
C456 C457 1.415 . S
C457 H427 0.950 . S
C457 C452 1.363 . S
C457 C456 1.415 . S
H458 C455 0.999 1_565 S
H459 C440 0.913 . S
H460 C478 0.951 . S
H461 C480 0.951 . S
H462 C482 0.950 . S
H463 C483 0.950 . S
H464 C485 0.950 . S
H465 C488 0.950 1_655 S
H466 C489 0.950 . S
H467 C491 0.950 . S
H468 C492 0.950 1_655 S
H469 C493 0.951 . S
H470 C495 0.951 . S
H471 C497 0.950 . S
H472 C498 0.950 . S
H473 C500 0.950 . S
H474 C503 0.950 . S
H475 C504 0.950 . S
H476 C506 0.950 . S
H477 C507 0.950 . S
C478 H460 0.951 . S
C478 C479 1.366 . S
C478 C480 1.388 . S
C479 C478 1.366 . S
C479 C483 1.385 . S
C480 H461 0.951 . S
C480 C478 1.388 . S
C480 C481 1.366 . S
C481 C480 1.366 . S
C481 C482 1.414 . S
C481 C484 1.499 . S
C482 H462 0.950 . S
C482 C481 1.414 . S
C482 C483 1.374 . S
C483 H463 0.950 . S
C483 C479 1.385 . S
C483 C482 1.374 . S
C484 C481 1.499 . S
C484 C485 1.373 . S
C484 C486 1.389 . S
C485 H464 0.950 . S
C485 C484 1.373 . S
C485 C501 1.377 . S
C486 C484 1.389 . S
C486 C487 1.524 . S
C486 C500 1.377 . S
C487 C486 1.524 . S
C487 C488 1.397 1_655 S
C487 C492 1.363 1_655 S
C488 H465 0.950 1_455 S
C488 C487 1.397 1_455 S
C488 C489 1.334 . S
C489 H466 0.950 . S
C489 C488 1.334 . S
C489 C490 1.287 . S
C490 C489 1.287 . S
C490 C491 1.524 . S
C490 H509 0.913 . S
C491 H467 0.950 . S
C491 C490 1.524 . S
C491 C492 1.415 . S
C492 H468 0.950 1_455 S
C492 C487 1.363 1_455 S
C492 C491 1.415 . S
C493 H469 0.951 . S
C493 C494 1.366 . S
C493 C495 1.388 . S
C494 C493 1.366 . S
C494 C498 1.385 . S
C495 H470 0.951 . S
C495 C493 1.388 . S
C495 C496 1.366 . S
C496 C495 1.366 . S
C496 C497 1.414 . S
C496 C499 1.499 . S
C497 H471 0.950 . S
C497 C496 1.414 . S
C497 C498 1.374 . S
C498 H472 0.950 . S
C498 C494 1.385 . S
C498 C497 1.374 . S
C499 C496 1.499 . S
C499 C500 1.373 . S
C499 C501 1.389 . S
C500 H473 0.950 . S
C500 C486 1.377 . S
C500 C499 1.373 . S
C501 C485 1.377 . S
C501 C499 1.389 . S
C501 C502 1.524 . S
C502 C501 1.524 . S
C502 C503 1.397 . S
C502 C507 1.363 . S
C503 H474 0.950 . S
C503 C502 1.397 . S
C503 C504 1.334 . S
C504 H475 0.950 . S
C504 C503 1.334 . S
C504 C505 1.287 . S
C505 C504 1.287 . S
C505 C506 1.524 . S
C505 H508 0.999 . S
C506 H476 0.950 . S
C506 C505 1.524 . S
C506 C507 1.415 . S
C507 H477 0.950 . S
C507 C502 1.363 . S
C507 C506 1.415 . S
H508 C505 0.999 . S
H509 C490 0.913 . S
H510 C528 0.951 . S
H511 C530 0.951 . S
H512 C532 0.950 . S
H513 C533 0.950 . S
H514 C535 0.950 . S
H515 C538 0.950 . S
H516 C539 0.950 . S
H517 C541 0.950 . S
H518 C542 0.950 . S
H519 C543 0.951 . S
H520 C545 0.951 . S
H521 C547 0.950 . S
H522 C548 0.950 . S
H523 C550 0.950 . S
H524 C553 0.950 . S
H525 C554 0.950 1_545 S
H526 C556 0.945 1_655 S
H527 C557 0.950 . S
C528 H510 0.951 . S
C528 C529 1.366 . S
C528 C530 1.388 . S
C529 C528 1.366 . S
C529 C533 1.385 . S
C530 H511 0.951 . S
C530 C528 1.388 . S
C530 C531 1.366 . S
C531 C530 1.366 . S
C531 C532 1.414 . S
C531 C534 1.499 . S
C532 H512 0.950 . S
C532 C531 1.414 . S
C532 C533 1.374 . S
C533 H513 0.950 . S
C533 C529 1.385 . S
C533 C532 1.374 . S
C534 C531 1.499 . S
C534 C535 1.373 . S
C534 C536 1.389 . S
C535 H514 0.950 . S
C535 C534 1.373 . S
C535 C551 1.377 . S
C536 C534 1.389 . S
C536 C537 1.524 . S
C536 C550 1.377 . S
C537 C536 1.524 . S
C537 C538 1.397 . S
C537 C542 1.363 . S
C538 H515 0.950 . S
C538 C537 1.397 . S
C538 C539 1.334 . S
C539 H516 0.950 . S
C539 C538 1.334 . S
C539 C540 1.287 . S
C540 C539 1.287 . S
C540 C541 1.524 . S
C540 H559 0.913 . S
C541 H517 0.950 . S
C541 C540 1.524 . S
C541 C542 1.415 . S
C542 H518 0.950 . S
C542 C537 1.363 . S
C542 C541 1.415 . S
C543 H519 0.951 . S
C543 C544 1.366 . S
C543 C545 1.388 . S
C544 C543 1.366 . S
C544 C548 1.385 . S
C545 H520 0.951 . S
C545 C543 1.388 . S
C545 C546 1.366 . S
C546 C545 1.366 . S
C546 C547 1.414 . S
C546 C549 1.499 . S
C547 H521 0.950 . S
C547 C546 1.414 . S
C547 C548 1.374 . S
C548 H522 0.950 . S
C548 C544 1.385 . S
C548 C547 1.374 . S
C549 C546 1.499 . S
C549 C550 1.373 . S
C549 C551 1.389 . S
C550 H523 0.950 . S
C550 C536 1.377 . S
C550 C549 1.373 . S
C551 C535 1.377 . S
C551 C549 1.389 . S
C551 C552 1.524 . S
C552 C551 1.524 . S
C552 C553 1.397 . S
C552 C557 1.363 . S
C553 H524 0.950 . S
C553 C552 1.397 . S
C553 C554 1.334 . S
C554 H525 0.950 1_565 S
C554 C553 1.334 . S
C554 C555 1.287 . S
C555 C554 1.287 . S
C555 C556 1.524 . S
C555 H558 0.999 . S
C556 H526 0.945 1_455 S
C556 C555 1.524 . S
C556 C557 1.415 . S
C557 H527 0.950 . S
C557 C552 1.363 . S
C557 C556 1.415 . S
H558 C555 0.999 . S
H559 C540 0.913 . S
H560 C578 0.951 . S
H561 C580 0.951 . S
H562 C582 0.950 . S
H563 C583 0.950 . S
H564 C585 0.950 . S
H565 C588 0.950 . S
H566 C589 0.950 . S
H567 C591 0.950 1_455 S
H568 C592 0.950 . S
H569 C593 0.951 . S
H570 C595 0.951 . S
H571 C597 0.950 . S
H572 C598 0.950 . S
H573 C600 0.950 . S
H574 C603 0.950 . S
H575 C604 0.950 . S
H576 C606 0.950 . S
H577 C607 0.950 . S
C578 H560 0.951 . S
C578 C579 1.366 . S
C578 C580 1.388 . S
C579 C578 1.366 . S
C579 C583 1.385 . S
C580 H561 0.951 . S
C580 C578 1.388 . S
C580 C581 1.366 . S
C581 C580 1.366 . S
C581 C582 1.414 . S
C581 C584 1.499 . S
C582 H562 0.950 . S
C582 C581 1.414 . S
C582 C583 1.374 . S
C583 H563 0.950 . S
C583 C579 1.385 . S
C583 C582 1.374 . S
C584 C581 1.499 . S
C584 C585 1.373 . S
C584 C586 1.389 . S
C585 H564 0.950 . S
C585 C584 1.373 . S
C585 C601 1.377 . S
C586 C584 1.389 . S
C586 C587 1.524 . S
C586 C600 1.377 . S
C587 C586 1.524 . S
C587 C588 1.397 . S
C587 C592 1.363 . S
C588 H565 0.950 . S
C588 C587 1.397 . S
C588 C589 1.334 . S
C589 H566 0.950 . S
C589 C588 1.334 . S
C589 C590 1.287 . S
C590 C589 1.287 . S
C590 C591 1.524 . S
C590 H609 0.913 . S
C591 H567 0.950 1_655 S
C591 C590 1.524 . S
C591 C592 1.415 . S
C592 H568 0.950 . S
C592 C587 1.363 . S
C592 C591 1.415 . S
C593 H569 0.951 . S
C593 C594 1.366 . S
C593 C595 1.388 . S
C594 C593 1.366 . S
C594 C598 1.385 . S
C595 H570 0.951 . S
C595 C593 1.388 . S
C595 C596 1.366 . S
C596 C595 1.366 . S
C596 C597 1.414 . S
C596 C599 1.499 . S
C597 H571 0.950 . S
C597 C596 1.414 . S
C597 C598 1.374 . S
C598 H572 0.950 . S
C598 C594 1.385 . S
C598 C597 1.374 . S
C599 C596 1.499 . S
C599 C600 1.373 . S
C599 C601 1.389 . S
C600 H573 0.950 . S
C600 C586 1.377 . S
C600 C599 1.373 . S
C601 C585 1.377 . S
C601 C599 1.389 . S
C601 C602 1.524 . S
C602 C601 1.524 . S
C602 C603 1.397 . S
C602 C607 1.363 . S
C603 H574 0.950 . S
C603 C602 1.397 . S
C603 C604 1.334 . S
C604 H575 0.950 . S
C604 C603 1.334 . S
C604 C605 1.287 . S
C605 C604 1.287 . S
C605 C606 1.524 . S
C605 H608 0.999 . S
C606 H576 0.950 . S
C606 C605 1.524 . S
C606 C607 1.415 . S
C607 H577 0.950 . S
C607 C602 1.363 . S
C607 C606 1.415 . S
H608 C605 0.999 . S
H609 C590 0.913 . S
H610 C628 0.951 . S
H611 C630 0.951 . S
H612 C632 0.950 . S
H613 C633 0.950 . S
H614 C635 0.950 . S
H615 C638 0.950 . S
H616 C639 0.950 . S
H617 C641 0.950 . S
H618 C642 0.950 . S
H619 C643 0.951 . S
H620 C645 0.951 . S
H621 C647 0.950 . S
H622 C648 0.950 . S
H623 C650 0.950 . S
H624 C653 0.950 . S
H625 C654 0.950 . S
H626 C656 0.950 . S
H627 C657 0.950 . S
C628 H610 0.951 . S
C628 C629 1.366 1_545 S
C628 C630 1.388 . S
C629 C628 1.366 1_565 S
C629 C633 1.385 . S
C630 H611 0.951 . S
C630 C628 1.388 . S
C630 C631 1.366 1_545 S
C631 C630 1.366 1_565 S
C631 C632 1.414 . S
C631 C634 1.499 . S
C632 H612 0.950 . S
C632 C631 1.414 . S
C632 C633 1.374 . S
C633 H613 0.950 . S
C633 C629 1.385 . S
C633 C632 1.374 . S
C634 C631 1.499 . S
C634 C635 1.373 . S
C634 C636 1.389 . S
C635 H614 0.950 . S
C635 C634 1.373 . S
C635 C651 1.377 . S
C636 C634 1.389 . S
C636 C637 1.524 1_565 S
C636 C650 1.377 . S
C637 C636 1.524 1_545 S
C637 C638 1.397 1_545 S
C637 C642 1.363 . S
C638 H615 0.950 . S
C638 C637 1.397 1_565 S
C638 C639 1.334 1_565 S
C639 H616 0.950 . S
C639 C638 1.334 1_545 S
C639 C640 1.287 . S
C640 C639 1.287 . S
C640 C641 1.524 . S
C640 H659 0.913 . S
C641 H617 0.950 . S
C641 C640 1.524 . S
C641 C642 1.415 . S
C642 H618 0.950 . S
C642 C637 1.363 . S
C642 C641 1.415 . S
C643 H619 0.951 . S
C643 C644 1.366 . S
C643 C645 1.388 . S
C644 C643 1.366 . S
C644 C648 1.385 . S
C645 H620 0.951 . S
C645 C643 1.388 . S
C645 C646 1.366 . S
C646 C645 1.366 . S
C646 C647 1.414 . S
C646 C649 1.499 . S
C647 H621 0.950 . S
C647 C646 1.414 . S
C647 C648 1.374 . S
C648 H622 0.950 . S
C648 C644 1.385 . S
C648 C647 1.374 . S
C649 C646 1.499 . S
C649 C650 1.373 . S
C649 C651 1.389 . S
C650 H623 0.950 . S
C650 C636 1.377 . S
C650 C649 1.373 . S
C651 C635 1.377 . S
C651 C649 1.389 . S
C651 C652 1.524 . S
C652 C651 1.524 . S
C652 C653 1.397 . S
C652 C657 1.363 . S
C653 H624 0.950 . S
C653 C652 1.397 . S
C653 C654 1.334 . S
C654 H625 0.950 . S
C654 C653 1.334 . S
C654 C655 1.287 . S
C655 C654 1.287 . S
C655 C656 1.524 . S
C655 H658 0.999 . S
C656 H626 0.950 . S
C656 C655 1.524 . S
C656 C657 1.415 . S
C657 H627 0.950 . S
C657 C652 1.363 . S
C657 C656 1.415 . S
H658 C655 0.999 . S
H659 C640 0.913 . S
H660 C678 0.951 . S
H661 C680 0.951 . S
H662 C682 0.950 . S
H663 C683 0.950 . S
H664 C685 0.950 . S
H665 C688 0.950 . S
H666 C689 0.950 1_655 S
H667 C691 0.950 . S
H668 C692 0.950 . S
H669 C693 0.951 . S
H670 C695 0.951 . S
H671 C697 0.950 . S
H672 C698 0.950 . S
H673 C700 0.950 . S
H674 C703 0.950 . S
H675 C704 0.950 . S
H676 C706 0.950 . S
H677 C707 0.950 . S
C678 H660 0.951 . S
C678 C679 1.366 . S
C678 C680 1.388 . S
C679 C678 1.366 . S
C679 C683 1.385 . S
C680 H661 0.951 . S
C680 C678 1.388 . S
C680 C681 1.366 . S
C681 C680 1.366 . S
C681 C682 1.414 . S
C681 C684 1.499 . S
C682 H662 0.950 . S
C682 C681 1.414 . S
C682 C683 1.374 . S
C683 H663 0.950 . S
C683 C679 1.385 . S
C683 C682 1.374 . S
C684 C681 1.499 . S
C684 C685 1.373 . S
C684 C686 1.389 . S
C685 H664 0.950 . S
C685 C684 1.373 . S
C685 C701 1.377 . S
C686 C684 1.389 . S
C686 C687 1.524 . S
C686 C700 1.377 . S
C687 C686 1.524 . S
C687 C688 1.397 . S
C687 C692 1.363 . S
C688 H665 0.950 . S
C688 C687 1.397 . S
C688 C689 1.334 . S
C689 H666 0.950 1_455 S
C689 C688 1.334 . S
C689 C690 1.287 1_455 S
C690 C689 1.287 1_655 S
C690 C691 1.524 1_655 S
C690 H709 0.913 . S
C691 H667 0.950 . S
C691 C690 1.524 1_455 S
C691 C692 1.415 . S
C692 H668 0.950 . S
C692 C687 1.363 . S
C692 C691 1.415 . S
C693 H669 0.951 . S
C693 C694 1.366 . S
C693 C695 1.388 . S
C694 C693 1.366 . S
C694 C698 1.385 . S
C695 H670 0.951 . S
C695 C693 1.388 . S
C695 C696 1.366 . S
C696 C695 1.366 . S
C696 C697 1.414 . S
C696 C699 1.499 . S
C697 H671 0.950 . S
C697 C696 1.414 . S
C697 C698 1.374 . S
C698 H672 0.950 . S
C698 C694 1.385 . S
C698 C697 1.374 . S
C699 C696 1.499 . S
C699 C700 1.373 . S
C699 C701 1.389 . S
C700 H673 0.950 . S
C700 C686 1.377 . S
C700 C699 1.373 . S
C701 C685 1.377 . S
C701 C699 1.389 . S
C701 C702 1.524 . S
C702 C701 1.524 . S
C702 C703 1.397 . S
C702 C707 1.363 . S
C703 H674 0.950 . S
C703 C702 1.397 . S
C703 C704 1.334 . S
C704 H675 0.950 . S
C704 C703 1.334 . S
C704 C705 1.287 . S
C705 C704 1.287 . S
C705 C706 1.524 . S
C705 H708 0.999 . S
C706 H676 0.950 . S
C706 C705 1.524 . S
C706 C707 1.415 . S
C707 H677 0.950 . S
C707 C702 1.363 . S
C707 C706 1.415 . S
H708 C705 0.999 . S
H709 C690 0.913 . S
H710 C728 0.951 . S
H711 C730 0.951 . S
H712 C732 0.950 . S
H713 C733 0.950 . S
H714 C735 0.950 . S
H715 C738 0.950 . S
H716 C739 0.950 . S
H717 C741 0.950 . S
H718 C742 0.950 . S
H719 C743 0.951 1_455 S
H720 C745 0.951 . S
H721 C747 0.950 . S
H722 C748 0.950 . S
H723 C750 0.950 . S
H724 C753 0.950 . S
H725 C754 0.950 . S
H726 C756 0.950 . S
H727 C757 0.950 . S
C728 H710 0.951 . S
C728 C729 1.366 . S
C728 C730 1.388 . S
C729 C728 1.366 . S
C729 C733 1.385 . S
C730 H711 0.951 . S
C730 C728 1.388 . S
C730 C731 1.366 . S
C731 C730 1.366 . S
C731 C732 1.414 . S
C731 C734 1.499 . S
C732 H712 0.950 . S
C732 C731 1.414 . S
C732 C733 1.374 . S
C733 H713 0.950 . S
C733 C729 1.385 . S
C733 C732 1.374 . S
C734 C731 1.499 . S
C734 C735 1.373 . S
C734 C736 1.389 . S
C735 H714 0.950 . S
C735 C734 1.373 . S
C735 C751 1.377 . S
C736 C734 1.389 . S
C736 C737 1.524 . S
C736 C750 1.377 . S
C737 C736 1.524 . S
C737 C738 1.397 . S
C737 C742 1.363 . S
C738 H715 0.950 . S
C738 C737 1.397 . S
C738 C739 1.334 . S
C739 H716 0.950 . S
C739 C738 1.334 . S
C739 C740 1.287 . S
C740 C739 1.287 . S
C740 C741 1.524 . S
C740 H759 0.913 . S
C741 H717 0.950 . S
C741 C740 1.524 . S
C741 C742 1.415 . S
C742 H718 0.950 . S
C742 C737 1.363 . S
C742 C741 1.415 . S
C743 H719 0.951 1_655 S
C743 C744 1.366 . S
C743 C745 1.388 . S
C744 C743 1.366 . S
C744 C748 1.385 . S
C745 H720 0.951 . S
C745 C743 1.388 . S
C745 C746 1.366 . S
C746 C745 1.366 . S
C746 C747 1.414 . S
C746 C749 1.499 . S
C747 H721 0.950 . S
C747 C746 1.414 . S
C747 C748 1.374 . S
C748 H722 0.950 . S
C748 C744 1.385 . S
C748 C747 1.374 . S
C749 C746 1.499 . S
C749 C750 1.373 . S
C749 C751 1.389 . S
C750 H723 0.950 . S
C750 C736 1.377 . S
C750 C749 1.373 . S
C751 C735 1.377 . S
C751 C749 1.389 . S
C751 C752 1.524 . S
C752 C751 1.524 . S
C752 C753 1.397 . S
C752 C757 1.363 1_655 S
C753 H724 0.950 . S
C753 C752 1.397 . S
C753 C754 1.334 1_655 S
C754 H725 0.950 . S
C754 C753 1.334 1_455 S
C754 C755 1.287 . S
C755 C754 1.287 . S
C755 C756 1.524 . S
C755 H758 0.999 . S
C756 H726 0.950 . S
C756 C755 1.524 . S
C756 C757 1.415 . S
C757 H727 0.950 . S
C757 C752 1.363 1_455 S
C757 C756 1.415 . S
H758 C755 0.999 . S
H759 C740 0.913 . S
C179 C89 0.925 1_565 S
C194 C18 0.925 . S
C229 C129 1.126 . S
C244 C58 1.126 . S
C279 C98 0.961 . S
C294 C9 0.950 . S
C329 C49 0.928 . S
C344 C138 0.928 . S
C379 C55 0.994 . S
C394 C6 1.000 . S
C429 C46 1.722 . S
C444 C99 1.740 . S
C479 C139 2.150 . S
C494 C90 2.080 . S
C529 C130 1.337 . S
C544 C15 1.363 . S
C579 C95 1.000 . S
C594 C126 0.994 . S
C629 C10 1.740 1_565 S
C644 C135 1.723 . S
C679 C50 2.150 . S
C694 C19 2.080 1_556 S
C729 C86 1.362 . S
C744 C59 1.338 . S
