# Generated by pormake.
# Topology unf, (4)-cn, num edge types: 1
# Building blocks:
#     Node 0, Type 0, BuildingBlock: CEKHIL_clean_sbu_0, # of connection points: 4
#     Node 1, Type 0, BuildingBlock: CEKHIL_clean_sbu_0, # of connection points: 4
#     Node 2, Type 0, BuildingBlock: CEKHIL_clean_sbu_0, # of connection points: 4
#     Node 3, Type 0, BuildingBlock: CEKHIL_clean_sbu_0, # of connection points: 4
#     Node 4, Type 0, BuildingBlock: CEKHIL_clean_sbu_0, # of connection points: 4
#     Node 5, Type 0, BuildingBlock: CEKHIL_clean_sbu_0, # of connection points: 4
#     Node 6, Type 0, BuildingBlock: CEKHIL_clean_sbu_0, # of connection points: 4
#     Node 7, Type 0, BuildingBlock: CEKHIL_clean_sbu_0, # of connection points: 4
#     Node 8, Type 0, BuildingBlock: CEKHIL_clean_sbu_0, # of connection points: 4
#     Node 9, Type 0, BuildingBlock: CEKHIL_clean_sbu_0, # of connection points: 4
#     Node 10, Type 0, BuildingBlock: CEKHIL_clean_sbu_0, # of connection points: 4
#     Node 11, Type 0, BuildingBlock: CEKHIL_clean_sbu_0, # of connection points: 4
#     Edge 12, Type (0, 0), BuildingBlock: OJICUG_clean_linker_0, # of connection points: 2
#     Edge 13, Type (0, 0), BuildingBlock: OJICUG_clean_linker_0, # of connection points: 2
#     Edge 14, Type (0, 0), BuildingBlock: OJICUG_clean_linker_0, # of connection points: 2
#     Edge 15, Type (0, 0), BuildingBlock: OJICUG_clean_linker_0, # of connection points: 2
#     Edge 16, Type (0, 0), BuildingBlock: OJICUG_clean_linker_0, # of connection points: 2
#     Edge 17, Type (0, 0), BuildingBlock: OJICUG_clean_linker_0, # of connection points: 2
#     Edge 18, Type (0, 0), BuildingBlock: OJICUG_clean_linker_0, # of connection points: 2
#     Edge 19, Type (0, 0), BuildingBlock: OJICUG_clean_linker_0, # of connection points: 2
#     Edge 20, Type (0, 0), BuildingBlock: OJICUG_clean_linker_0, # of connection points: 2
#     Edge 21, Type (0, 0), BuildingBlock: OJICUG_clean_linker_0, # of connection points: 2
#     Edge 22, Type (0, 0), BuildingBlock: OJICUG_clean_linker_0, # of connection points: 2
#     Edge 23, Type (0, 0), BuildingBlock: OJICUG_clean_linker_0, # of connection points: 2
#     Edge 24, Type (0, 0), BuildingBlock: OJICUG_clean_linker_0, # of connection points: 2
#     Edge 25, Type (0, 0), BuildingBlock: OJICUG_clean_linker_0, # of connection points: 2
#     Edge 26, Type (0, 0), BuildingBlock: OJICUG_clean_linker_0, # of connection points: 2
#     Edge 27, Type (0, 0), BuildingBlock: OJICUG_clean_linker_0, # of connection points: 2
#     Edge 28, Type (0, 0), BuildingBlock: OJICUG_clean_linker_0, # of connection points: 2
#     Edge 29, Type (0, 0), BuildingBlock: OJICUG_clean_linker_0, # of connection points: 2
#     Edge 30, Type (0, 0), BuildingBlock: OJICUG_clean_linker_0, # of connection points: 2
#     Edge 31, Type (0, 0), BuildingBlock: OJICUG_clean_linker_0, # of connection points: 2
#     Edge 32, Type (0, 0), BuildingBlock: OJICUG_clean_linker_0, # of connection points: 2
#     Edge 33, Type (0, 0), BuildingBlock: OJICUG_clean_linker_0, # of connection points: 2
#     Edge 34, Type (0, 0), BuildingBlock: OJICUG_clean_linker_0, # of connection points: 2
#     Edge 35, Type (0, 0), BuildingBlock: OJICUG_clean_linker_0, # of connection points: 2
# Relax obj value: 0.233
# Max RMSD: 0.183
# Mean RMSD: 0.177
data_MOF--net-unf--node1-CEKHIL_clean_sbu_0--edge1-OJICUG_clean_linker_0
_symmetry_space_group_name_H-M    P1
_symmetry_Int_Tables_number       1
_symmetry_cell_setting            triclinic
loop_
_symmetry_equiv_pos_as_xyz
'x, y, z'
_cell_length_a     27.753852
_cell_length_b     27.521424
_cell_length_c     25.940559
_cell_angle_alpha  89.645904
_cell_angle_beta   90.752341
_cell_angle_gamma 120.20532
loop_
_atom_site_label
_atom_site_type_symbol
_atom_site_fract_x
_atom_site_fract_y
_atom_site_fract_z
_atom_type_partial_charge
Co0 Co 0.11161 0.41273 0.09291 0.0
O1 O 0.16549 0.45948 0.14494 0.0
O2 O 0.10743 0.36807 0.15261 0.0
C3 C 0.07554 0.46768 0.07027 0.0
O4 O 0.04964 0.35173 0.04857 0.0
Co5 Co 0.13099 0.4544 0.97924 0.0
O6 O 0.05547 0.38846 0.96935 0.0
C7 C 0.19699 0.40743 0.02131 0.0
C8 C 0.14873 0.41391 0.17192 0.0
C9 C 0.03091 0.34924 1.00235 0.0
O10 O 0.16854 0.39588 0.0629 0.0
O11 O 0.191 0.43416 0.98359 0.0
O12 O 0.05932 0.43767 0.11219 0.0
O13 O 0.1189 0.47058 0.04912 0.0
Co14 Co 0.5791 0.68114 0.09367 0.0
O15 O 0.53293 0.69245 0.14186 0.0
O16 O 0.62338 0.72636 0.15215 0.0
C17 C 0.52344 0.58818 0.07824 0.0
O18 O 0.63928 0.67603 0.05294 0.0
Co19 Co 0.53401 0.64246 0.98089 0.0
O20 O 0.60159 0.6357 0.97607 0.0
C21 C 0.58405 0.76162 0.00909 0.0
C22 C 0.57758 0.72212 0.16952 0.0
C23 C 0.64148 0.65536 0.00905 0.0
O24 O 0.5962 0.7521 0.05479 0.0
O25 O 0.5551 0.72288 0.97636 0.0
O26 O 0.55411 0.60489 0.11997 0.0
O27 O 0.52075 0.62721 0.05323 0.0
Co28 Co 0.3232 0.88377 0.09647 0.0
O29 O 0.3068 0.8216 0.1428 0.0
O30 O 0.2822 0.88544 0.15552 0.0
C31 C 0.41425 0.91529 0.07904 0.0
O32 O 0.3339 0.95438 0.06089 0.0
Co33 Co 0.35598 0.88435 0.98154 0.0
O34 O 0.37228 0.96327 0.98295 0.0
C35 C 0.23808 0.81821 0.01081 0.0
C36 C 0.28115 0.84004 0.17136 0.0
C37 C 0.35608 0.98225 0.01944 0.0
O38 O 0.2502 0.83632 0.0576 0.0
O39 O 0.27476 0.82907 0.97644 0.0
O40 O 0.40058 0.92836 0.12248 0.0
O41 O 0.37289 0.87712 0.05272 0.0
Co42 Co 0.57134 0.88304 0.42785 0.0
O43 O 0.52636 0.82107 0.38101 0.0
O44 O 0.61445 0.88564 0.36875 0.0
C45 C 0.51107 0.91373 0.44584 0.0
O46 O 0.63059 0.95361 0.46384 0.0
Co47 Co 0.53915 0.88242 0.54295 0.0
O48 O 0.6005 0.96185 0.5417 0.0
C49 C 0.59161 0.81708 0.51272 0.0
C50 C 0.57061 0.84003 0.35265 0.0
C51 C 0.63567 0.98133 0.50527 0.0
O52 O 0.59742 0.83564 0.46613 0.0
O53 O 0.5659 0.82762 0.54749 0.0
O54 O 0.53781 0.92726 0.40241 0.0
O55 O 0.51475 0.87558 0.47181 0.0
Co56 Co 0.11174 0.67892 0.42834 0.0
O57 O 0.17178 0.69177 0.38255 0.0
O58 O 0.11397 0.72386 0.36947 0.0
C59 C 0.07581 0.58597 0.44362 0.0
O60 O 0.04414 0.67291 0.46498 0.0
Co61 Co 0.10769 0.63836 0.54211 0.0
O62 O 0.02921 0.62129 0.53707 0.0
C63 C 0.17878 0.75859 0.5161 0.0
C64 C 0.15673 0.72081 0.35384 0.0
C65 C 0.01385 0.64493 0.50356 0.0
O66 O 0.16259 0.74965 0.46855 0.0
O67 O 0.16453 0.71952 0.54958 0.0
O68 O 0.06322 0.60257 0.40101 0.0
O69 O 0.11508 0.62539 0.47058 0.0
Co70 Co 0.30705 0.41104 0.43399 0.0
O71 O 0.30015 0.45826 0.38232 0.0
O72 O 0.26742 0.36701 0.3737 0.0
C73 C 0.39746 0.46593 0.45763 0.0
O74 O 0.30805 0.34968 0.47792 0.0
Co75 Co 0.32805 0.45152 0.54816 0.0
O76 O 0.33884 0.38614 0.55726 0.0
C77 C 0.21581 0.40522 0.50473 0.0
C78 C 0.27185 0.41301 0.35481 0.0
C79 C 0.32452 0.34712 0.52405 0.0
O80 O 0.23305 0.39366 0.46337 0.0
O81 O 0.24805 0.43175 0.54277 0.0
O82 O 0.38436 0.43646 0.41537 0.0
O83 O 0.35673 0.4685 0.47852 0.0
Co84 Co 0.90469 0.5948 0.92721 0.0
O85 O 0.94965 0.56051 0.91614 0.0
O86 O 0.90361 0.55218 0.98762 0.0
C87 C 0.8592 0.57497 0.84971 0.0
O88 O 0.85326 0.62333 0.95169 0.0
Co89 Co 0.92704 0.69791 0.8596 0.0
O90 O 0.85858 0.68679 0.89321 0.0
C91 C 0.01115 0.70655 0.93376 0.0
C92 C 0.93875 0.54253 0.96335 0.0
C93 C 0.83655 0.6559 0.93269 0.0
O94 O 0.97319 0.66256 0.95658 0.0
O95 O 1.00242 0.72446 0.89104 0.0
O96 O 0.84182 0.53678 0.88569 0.0
O97 O 0.90637 0.61942 0.8597 0.0
Co98 Co 0.42857 0.30807 0.92952 0.0
O99 O 0.47774 0.29697 0.88425 0.0
O100 O 0.39065 0.27341 0.86573 0.0
C101 C 0.48573 0.3961 0.95756 0.0
O102 O 0.36614 0.31535 0.96311 0.0
Co103 Co 0.4495 0.32379 0.04797 0.0
O104 O 0.39128 0.34534 0.04488 0.0
C105 C 0.40827 0.21244 1.00294 0.0
C106 C 0.4356 0.27342 0.85228 0.0
C107 C 0.35932 0.33497 1.00573 0.0
O108 O 0.40135 0.23103 0.95955 0.0
O109 O 0.43061 0.24368 0.0425 0.0
O110 O 0.46313 0.38745 0.91168 0.0
O111 O 0.48091 0.35206 0.98037 0.0
Co112 Co 0.69863 0.0965 0.92534 0.0
O113 O 0.61877 0.05285 0.91795 0.0
O114 O 0.66316 0.0985 0.98887 0.0
C115 C 0.72053 0.14253 0.84834 0.0
O116 O 0.78039 0.1458 0.94631 0.0
Co117 Co 0.76964 0.06932 0.8513 0.0
O118 O 0.83192 0.13666 0.88464 0.0
C119 C 0.69792 0.98701 0.92736 0.0
C120 C 0.61621 0.06311 0.96638 0.0
C121 C 0.82753 0.15996 0.92529 0.0
O122 O 0.69714 0.02686 0.95197 0.0
O123 O 0.71994 0.99396 0.88295 0.0
O124 O 0.70349 0.16086 0.88618 0.0
O125 O 0.71572 0.09404 0.85641 0.0
Co126 Co 0.40388 0.09288 0.59968 0.0
O127 O 0.43999 0.04891 0.60694 0.0
O128 O 0.44114 0.09446 0.53606 0.0
C129 C 0.42833 0.1392 0.67664 0.0
O130 O 0.37167 0.1426 0.57868 0.0
Co131 Co 0.30633 0.06705 0.67408 0.0
O132 O 0.31216 0.1348 0.64097 0.0
C133 C 0.29415 0.9841 0.5978 0.0
C134 C 0.45285 0.05914 0.55852 0.0
C135 C 0.33945 0.15759 0.60006 0.0
O136 O 0.33554 0.02325 0.57339 0.0
O137 O 0.27919 0.99167 0.64204 0.0
O138 O 0.46354 0.15726 0.63872 0.0
O139 O 0.38463 0.09079 0.66868 0.0
Co140 Co 0.88624 0.30897 0.59384 0.0
O141 O 0.82663 0.29893 0.63953 0.0
O142 O 0.8898 0.2747 0.65769 0.0
C143 C 0.91813 0.39694 0.56497 0.0
O144 O 0.95513 0.31486 0.5602 0.0
Co145 Co 0.88065 0.32358 0.47528 0.0
O146 O 0.96016 0.34426 0.47825 0.0
C147 C 0.81053 0.21276 0.52103 0.0
C148 C 0.84523 0.27525 0.67142 0.0
C149 C 0.98153 0.3339 0.51757 0.0
O150 O 0.83581 0.23178 0.56443 0.0
O151 O 0.81958 0.24357 0.48114 0.0
O152 O 0.93186 0.38845 0.61102 0.0
O153 O 0.87829 0.35299 0.54261 0.0
Co154 Co 0.69543 0.5894 0.59797 0.0
O155 O 0.61703 0.55914 0.61183 0.0
O156 O 0.65056 0.54406 0.54062 0.0
C157 C 0.72447 0.57344 0.67528 0.0
O158 O 0.77215 0.61165 0.56981 0.0
Co159 Co 0.78511 0.69555 0.65624 0.0
O160 O 0.83871 0.68695 0.61302 0.0
C161 C 0.70533 0.70264 0.58695 0.0
C162 C 0.60754 0.53797 0.56556 0.0
C163 C 0.82349 0.64897 0.57865 0.0
O164 O 0.69646 0.65688 0.56548 0.0
O165 O 0.73491 0.72205 0.62797 0.0
O166 O 0.69954 0.5327 0.64197 0.0
O167 O 0.72388 0.61876 0.66346 0.0
C168 C 0.25692 0.38262 0.96839 0.0
C169 C 0.23764 0.38771 0.01684 0.0
H170 H 0.30959 0.36073 0.92675 0.0
C171 C 0.25687 0.3728 0.06121 0.0
H172 H 0.24261 0.39334 0.93342 0.0
C173 C 0.29536 0.35447 0.05738 0.0
C174 C 0.31489 0.34964 0.00903 0.0
H175 H 0.24289 0.37617 0.09913 0.0
H176 H 0.3101 0.34437 0.09244 0.0
C177 C 0.29482 0.36335 0.9645 0.0
C178 C 0.62198 0.82926 0.9367 0.0
C179 C 0.61105 0.81991 0.98971 0.0
H180 H 0.65875 0.88884 0.87603 0.0
C181 C 0.62961 0.8663 0.02281 0.0
H182 H 0.60913 0.79454 0.91014 0.0
C183 C 0.65797 0.92107 1.00283 0.0
C184 C 0.66947 0.93001 0.94978 0.0
H185 H 0.62206 0.86024 0.06384 0.0
H186 H 0.67139 0.95629 0.02887 0.0
C187 C 0.65117 0.8835 0.9171 0.0
C188 C 0.13479 0.75645 0.02634 0.0
C189 C 0.17931 0.7887 0.99305 0.0
H190 H 0.04594 0.70403 0.03353 0.0
C191 C 0.16767 0.79466 0.94128 0.0
H192 H 0.14263 0.75141 0.06648 0.0
C193 C 0.1131 0.76907 0.92293 0.0
C194 C 0.0684 0.73591 0.95557 0.0
H195 H 0.2009 0.81989 0.9147 0.0
H196 H 0.10613 0.77454 0.88265 0.0
C197 C 0.07964 0.72953 1.00751 0.0
C198 C 0.66883 0.76768 0.59847 0.0
C199 C 0.67772 0.73258 0.56579 0.0
H200 H 0.63431 0.8208 0.60737 0.0
C201 C 0.65806 0.7252 0.51446 0.0
H202 H 0.68293 0.77399 0.6383 0.0
C203 C 0.63044 0.75303 0.49627 0.0
C204 C 0.62075 0.78716 0.52967 0.0
H205 H 0.66424 0.69823 0.48844 0.0
H206 H 0.61588 0.74714 0.45661 0.0
C207 C 0.64038 0.79415 0.58082 0.0
C208 C 0.24258 0.86265 0.50318 0.0
C209 C 0.21006 0.81682 0.53556 0.0
H210 H 0.2956 0.95216 0.49763 0.0
C211 C 0.20469 0.82681 0.58766 0.0
H212 H 0.24712 0.85609 0.46281 0.0
C213 C 0.23102 0.88117 0.60713 0.0
C214 C 0.26417 0.92712 0.57527 0.0
H215 H 0.17919 0.79255 0.61354 0.0
H216 H 0.22588 0.88694 0.64755 0.0
C217 C 0.27006 0.91746 0.52307 0.0
C218 C 0.07357 0.36149 0.55975 0.0
C219 C 0.04048 0.34831 0.51481 0.0
H220 H 0.15515 0.39078 0.59184 0.0
C221 C 0.06539 0.35341 0.46675 0.0
H222 H 0.05572 0.35867 0.59731 0.0
C223 C 0.12215 0.37148 0.46362 0.0
C224 C 0.15557 0.38581 0.50844 0.0
H225 H 0.04106 0.34375 0.4314 0.0
H226 H 0.14 0.3751 0.42591 0.0
C227 C 0.13063 0.38048 0.55657 0.0
C228 C 0.72493 0.64329 0.02547 0.0
C229 C 0.69352 0.65801 0.99269 0.0
H230 H 0.79476 0.62962 0.03196 0.0
C231 C 0.71011 0.67259 0.94143 0.0
H232 H 0.71257 0.63141 0.06509 0.0
C233 C 0.75669 0.67225 0.92289 0.0
C234 C 0.7878 0.65645 0.95482 0.0
H235 H 0.68679 0.68425 0.91533 0.0
H236 H 0.76763 0.68344 0.88289 0.0
C237 C 0.77149 0.64183 1.00643 0.0
C238 C 0.38164 0.12619 0.05528 0.0
C239 C 0.39105 0.15239 1.00686 0.0
H240 H 0.36238 0.0515 0.09711 0.0
C241 C 0.38603 0.12128 0.96233 0.0
H242 H 0.38489 0.14903 0.09024 0.0
C243 C 0.37378 0.06563 0.96631 0.0
C244 C 0.36535 0.03975 0.01482 0.0
H245 H 0.39318 0.1404 0.92447 0.0
H246 H 0.37138 0.04303 0.93143 0.0
C247 C 0.36846 0.07026 0.05918 0.0
C248 C 0.97418 0.28277 0.93301 0.0
C249 C 0.97945 0.29862 0.98498 0.0
H250 H 0.92251 0.22681 0.87387 0.0
C251 C 0.93452 0.26776 0.01828 0.0
H252 H 0.0082 0.30567 0.90649 0.0
C253 C 0.88448 0.22257 0.99923 0.0
C254 C 0.87944 0.20705 0.947 0.0
H255 H 0.93753 0.27952 0.05847 0.0
H256 H 0.84998 0.19975 0.02524 0.0
C257 C 0.92505 0.23738 0.91436 0.0
C258 C 0.32085 0.23603 0.6117 0.0
C259 C 0.33495 0.20504 0.57859 0.0
H260 H 0.30645 0.30461 0.62024 0.0
C261 C 0.34418 0.22004 0.52618 0.0
H262 H 0.31384 0.22592 0.65235 0.0
C263 C 0.33906 0.26525 0.50742 0.0
C264 C 0.32594 0.29663 0.54115 0.0
H265 H 0.35494 0.19672 0.49981 0.0
H266 H 0.34673 0.27655 0.46706 0.0
C267 C 0.31678 0.28135 0.59333 0.0
C268 C 0.75197 0.12598 0.46907 0.0
C269 C 0.76817 0.15259 0.51735 0.0
H270 H 0.69789 0.05064 0.42751 0.0
C271 C 0.7423 0.12164 0.56197 0.0
H272 H 0.77143 0.14869 0.43405 0.0
C273 C 0.69976 0.06563 0.55818 0.0
C274 C 0.68298 0.03929 0.50979 0.0
H275 H 0.75386 0.14108 0.59973 0.0
H276 H 0.67973 0.04311 0.59311 0.0
C277 C 0.71009 0.06974 0.46536 0.0
C278 C 0.96026 0.69451 0.51316 0.0
C279 C 0.96132 0.64411 0.51305 0.0
H280 H 0.91534 0.73558 0.53516 0.0
C281 C 0.91403 0.59416 0.52897 0.0
H282 H 0.99651 0.73357 0.50156 0.0
C283 C 0.86711 0.59502 0.54674 0.0
C284 C 0.86767 0.64614 0.55042 0.0
H285 H 0.91419 0.55486 0.52934 0.0
H286 H 0.83195 0.55642 0.56075 0.0
C287 C 0.91408 0.69568 0.53254 0.0
C288 C 0.20054 0.36235 0.28454 0.0
C289 C 0.2416 0.41309 0.307 0.0
H290 H 0.13833 0.32274 0.22507 0.0
C291 C 0.25091 0.46401 0.28525 0.0
H292 H 0.19187 0.32236 0.30058 0.0
C293 C 0.22024 0.46423 0.24194 0.0
C294 C 0.17895 0.41353 0.21964 0.0
H295 H 0.28196 0.50387 0.30171 0.0
H296 H 0.22895 0.50425 0.22593 0.0
C297 C 0.16941 0.36257 0.24154 0.0
C298 C 0.52484 0.73781 0.23956 0.0
C299 C 0.5761 0.75136 0.21719 0.0
H300 H 0.4828 0.7546 0.29978 0.0
C301 C 0.62542 0.79439 0.23979 0.0
H302 H 0.48599 0.70492 0.22318 0.0
C303 C 0.62348 0.82353 0.28324 0.0
C304 C 0.57222 0.80987 0.30569 0.0
H305 H 0.66556 0.80614 0.22348 0.0
H306 H 0.66232 0.85655 0.29951 0.0
C307 C 0.52295 0.76635 0.28348 0.0
C308 C 0.21127 0.82211 0.24036 0.0
C309 C 0.24988 0.80962 0.21833 0.0
H310 H 0.15114 0.80347 0.29957 0.0
C311 C 0.25713 0.76714 0.24099 0.0
H312 H 0.20433 0.85432 0.22376 0.0
C313 C 0.22699 0.73835 0.28494 0.0
C314 C 0.18811 0.75063 0.30672 0.0
H315 H 0.28642 0.75638 0.22499 0.0
H316 H 0.23392 0.70619 0.30167 0.0
C317 C 0.18049 0.79271 0.28371 0.0
C318 C 0.83741 0.62228 0.77813 0.0
C319 C 0.82442 0.57243 0.80441 0.0
H320 H 0.81573 0.6617 0.71861 0.0
C321 C 0.77802 0.52177 0.78732 0.0
H322 H 0.87284 0.66208 0.78966 0.0
C323 C 0.74574 0.52134 0.74467 0.0
C324 C 0.7583 0.5718 0.71952 0.0
H325 H 0.76695 0.48257 0.80662 0.0
H326 H 0.71044 0.48186 0.73204 0.0
C327 C 0.8044 0.6221 0.73703 0.0
C328 C 0.38559 0.19321 0.79145 0.0
C329 C 0.43549 0.2413 0.80635 0.0
H330 H 0.34492 0.12273 0.74119 0.0
C331 C 0.48419 0.25577 0.77861 0.0
H332 H 0.34753 0.18029 0.81248 0.0
C333 C 0.48237 0.22325 0.73598 0.0
C334 C 0.43224 0.17464 0.72161 0.0
H335 H 0.5234 0.29246 0.78947 0.0
H336 H 0.52018 0.23571 0.71476 0.0
C337 C 0.3842 0.15994 0.7504 0.0
C338 C 0.74906 0.22561 0.78816 0.0
C339 C 0.75155 0.17762 0.80311 0.0
H340 H 0.7759 0.29396 0.73391 0.0
C341 C 0.78526 0.16315 0.77459 0.0
H342 H 0.72339 0.23785 0.80919 0.0
C343 C 0.81648 0.19603 0.73315 0.0
C344 C 0.81369 0.2435 0.71764 0.0
H345 H 0.78813 0.12646 0.78436 0.0
H346 H 0.84192 0.1833 0.71234 0.0
C347 C 0.77914 0.25775 0.74519 0.0
C348 C 0.05296 0.50845 0.993 0.0
C349 C 0.04049 0.48719 0.04348 0.0
H350 H 0.0301 0.54102 0.92793 0.0
C351 C 0.99272 0.48223 0.06689 0.0
H352 H 0.0892 0.51271 0.97363 0.0
C353 C 0.95872 0.49883 0.04063 0.0
C354 C 0.97127 0.52001 0.99007 0.0
H355 H 0.9817 0.46575 0.10565 0.0
H356 H 0.92287 0.49545 0.06008 0.0
C357 C 0.01866 0.52426 0.96656 0.0
C358 C 0.47936 0.52244 1.00429 0.0
C359 C 0.50965 0.53545 0.05104 0.0
H360 H 0.44992 0.46994 0.93741 0.0
C361 C 0.53254 0.5023 0.06671 0.0
H362 H 0.46086 0.5469 0.99115 0.0
C363 C 0.52602 0.45774 0.03567 0.0
C364 C 0.49725 0.44613 0.98813 0.0
H365 H 0.55658 0.51158 0.10219 0.0
H366 H 0.54371 0.43252 0.04873 0.0
C367 C 0.47374 0.47879 0.973 0.0
C368 C 0.50937 0.004 0.07478 0.0
C369 C 0.4684 0.95253 0.05321 0.0
H370 H 0.58845 0.07989 0.06432 0.0
C371 C 0.47682 0.93882 1.00327 0.0
H372 H 0.5041 0.0161 0.113 0.0
C373 C 0.52361 0.97588 0.97499 0.0
C374 C 0.56447 0.02747 0.99605 0.0
H375 H 0.44666 0.89948 0.98538 0.0
H376 H 0.52822 0.96332 0.93672 0.0
C377 C 0.55729 0.04087 0.04665 0.0
C378 C 0.47165 0.9366 0.52199 0.0
C379 C 0.4933 0.95033 0.47188 0.0
H380 H 0.44405 0.9605 0.58858 0.0
C381 C 0.50226 0.00124 0.45015 0.0
H382 H 0.46369 0.89772 0.54005 0.0
C383 C 0.49012 0.03746 0.4782 0.0
C384 C 0.4699 0.02404 0.5289 0.0
H385 H 0.51922 0.01338 0.4118 0.0
H386 H 0.49683 0.07602 0.46035 0.0
C387 C 0.46078 0.97306 0.55019 0.0
C388 C 0.0141 0.47666 0.5484 0.0
C389 C 0.95771 0.44578 0.53369 0.0
H390 H 0.09592 0.54266 0.52977 0.0
C391 C 0.94119 0.45775 0.48597 0.0
H392 H 0.0286 0.46743 0.58408 0.0
C393 C 0.98004 0.50119 0.45451 0.0
C394 C 0.03627 0.53287 0.46996 0.0
H395 H 0.8981 0.43384 0.4732 0.0
H396 H 0.96572 0.51117 0.41913 0.0
C397 C 0.0529 0.51916 0.51671 0.0
C398 C 0.49305 0.47699 0.46297 0.0
C399 C 0.45136 0.48463 0.48516 0.0
H400 H 0.57459 0.48706 0.47107 0.0
C401 C 0.46058 0.50758 0.53507 0.0
H402 H 0.48721 0.45907 0.42476 0.0
C403 C 0.51031 0.52275 0.562 0.0
C404 C 0.55231 0.51579 0.53954 0.0
H405 H 0.42932 0.51382 0.55348 0.0
H406 H 0.51632 0.54113 0.60002 0.0
C407 C 0.54298 0.49259 0.48973 0.0
loop_
_geom_bond_atom_site_label_1
_geom_bond_atom_site_label_2
_geom_bond_distance
_geom_bond_site_symmetry_2
_ccdc_geom_bond_type
Co0 O1 2.216 . S
Co0 O2 2.091 . S
Co0 O4 2.004 . S
Co0 O10 2.021 . S
Co0 O12 2.137 . S
Co0 O13 2.244 . S
O1 Co0 2.216 . S
O1 C8 1.247 . S
O2 Co0 2.091 . S
O2 C8 1.261 . S
C3 O12 1.247 . S
C3 O13 1.272 . S
O4 Co0 2.004 . S
O4 C9 1.259 1_455 S
Co5 O6 2.061 . S
Co5 O11 2.052 . S
Co5 O13 2.135 1_556 S
O6 Co5 2.061 . S
O6 C9 1.235 1_456 S
C7 O10 1.238 . S
C7 O11 1.241 1_554 S
C8 O1 1.247 . S
C8 O2 1.261 . S
C9 O4 1.259 1_655 S
C9 O6 1.235 1_654 S
O10 Co0 2.021 . S
O10 C7 1.238 . S
O11 Co5 2.052 . S
O11 C7 1.241 1_556 S
O12 Co0 2.137 . S
O12 C3 1.247 . S
O13 Co0 2.244 . S
O13 C3 1.272 . S
O13 Co5 2.135 1_554 S
Co14 O15 2.216 . S
Co14 O16 2.091 . S
Co14 O18 2.004 . S
Co14 O24 2.021 . S
Co14 O26 2.137 . S
Co14 O27 2.244 . S
O15 Co14 2.216 . S
O15 C22 1.247 . S
O16 Co14 2.091 . S
O16 C22 1.261 . S
C17 O26 1.247 . S
C17 O27 1.272 . S
O18 Co14 2.004 . S
O18 C23 1.259 . S
Co19 O20 2.061 . S
Co19 O25 2.052 . S
Co19 O27 2.135 1_556 S
O20 Co19 2.061 . S
O20 C23 1.235 1_556 S
C21 O24 1.238 . S
C21 O25 1.241 1_554 S
C22 O15 1.247 . S
C22 O16 1.261 . S
C23 O18 1.259 . S
C23 O20 1.235 1_554 S
O24 Co14 2.021 . S
O24 C21 1.238 . S
O25 Co19 2.052 . S
O25 C21 1.241 1_556 S
O26 Co14 2.137 . S
O26 C17 1.247 . S
O27 Co14 2.244 . S
O27 C17 1.272 . S
O27 Co19 2.135 1_554 S
Co28 O29 2.216 . S
Co28 O30 2.091 . S
Co28 O32 2.004 1_565 S
Co28 O38 2.021 . S
Co28 O40 2.137 . S
Co28 O41 2.244 . S
O29 Co28 2.216 . S
O29 C36 1.247 . S
O30 Co28 2.091 . S
O30 C36 1.261 . S
C31 O40 1.247 . S
C31 O41 1.272 . S
O32 Co28 2.004 1_545 S
O32 C37 1.259 . S
Co33 O34 2.061 . S
Co33 O39 2.052 . S
Co33 O41 2.135 1_556 S
O34 Co33 2.061 . S
O34 C37 1.235 1_566 S
C35 O38 1.238 . S
C35 O39 1.241 1_554 S
C36 O29 1.247 . S
C36 O30 1.261 . S
C37 O32 1.259 . S
C37 O34 1.235 1_544 S
O38 Co28 2.021 . S
O38 C35 1.238 . S
O39 Co33 2.052 . S
O39 C35 1.241 1_556 S
O40 Co28 2.137 . S
O40 C31 1.247 . S
O41 Co28 2.244 . S
O41 C31 1.272 . S
O41 Co33 2.135 1_554 S
Co42 O43 2.216 . S
Co42 O44 2.091 . S
Co42 O46 2.004 1_565 S
Co42 O52 2.021 . S
Co42 O54 2.137 . S
Co42 O55 2.244 . S
O43 Co42 2.216 . S
O43 C50 1.247 . S
O44 Co42 2.091 . S
O44 C50 1.261 . S
C45 O54 1.247 . S
C45 O55 1.272 . S
O46 Co42 2.004 1_545 S
O46 C51 1.259 . S
Co47 O48 2.061 . S
Co47 O53 2.052 . S
Co47 O55 2.135 . S
O48 Co47 2.061 . S
O48 C51 1.235 1_565 S
C49 O52 1.238 . S
C49 O53 1.241 . S
C50 O43 1.247 . S
C50 O44 1.261 . S
C51 O46 1.259 . S
C51 O48 1.235 1_545 S
O52 Co42 2.021 . S
O52 C49 1.238 . S
O53 Co47 2.052 . S
O53 C49 1.241 . S
O54 Co42 2.137 . S
O54 C45 1.247 . S
O55 Co42 2.244 . S
O55 C45 1.272 . S
O55 Co47 2.135 . S
Co56 O57 2.216 . S
Co56 O58 2.091 . S
Co56 O60 2.004 . S
Co56 O66 2.021 . S
Co56 O68 2.137 . S
Co56 O69 2.244 . S
O57 Co56 2.216 . S
O57 C64 1.247 . S
O58 Co56 2.091 . S
O58 C64 1.261 . S
C59 O68 1.247 . S
C59 O69 1.272 . S
O60 Co56 2.004 . S
O60 C65 1.259 1_455 S
Co61 O62 2.061 . S
Co61 O67 2.052 . S
Co61 O69 2.135 . S
O62 Co61 2.061 . S
O62 C65 1.235 1_455 S
C63 O66 1.238 . S
C63 O67 1.241 . S
C64 O57 1.247 . S
C64 O58 1.261 . S
C65 O60 1.259 1_655 S
C65 O62 1.235 1_655 S
O66 Co56 2.021 . S
O66 C63 1.238 . S
O67 Co61 2.052 . S
O67 C63 1.241 . S
O68 Co56 2.137 . S
O68 C59 1.247 . S
O69 Co56 2.244 . S
O69 C59 1.272 . S
O69 Co61 2.135 . S
Co70 O71 2.216 . S
Co70 O72 2.091 . S
Co70 O74 2.004 . S
Co70 O80 2.021 . S
Co70 O82 2.137 . S
Co70 O83 2.244 . S
O71 Co70 2.216 . S
O71 C78 1.247 . S
O72 Co70 2.091 . S
O72 C78 1.261 . S
C73 O82 1.247 . S
C73 O83 1.272 . S
O74 Co70 2.004 . S
O74 C79 1.259 . S
Co75 O76 2.061 . S
Co75 O81 2.052 . S
Co75 O83 2.135 . S
O76 Co75 2.061 . S
O76 C79 1.235 . S
C77 O80 1.238 . S
C77 O81 1.241 . S
C78 O71 1.247 . S
C78 O72 1.261 . S
C79 O74 1.259 . S
C79 O76 1.235 . S
O80 Co70 2.021 . S
O80 C77 1.238 . S
O81 Co75 2.052 . S
O81 C77 1.241 . S
O82 Co70 2.137 . S
O82 C73 1.247 . S
O83 Co70 2.244 . S
O83 C73 1.272 . S
O83 Co75 2.135 . S
Co84 O85 2.216 . S
Co84 O86 2.091 . S
Co84 O88 2.004 . S
Co84 O94 2.021 . S
Co84 O96 2.137 . S
Co84 O97 2.244 . S
O85 Co84 2.216 . S
O85 C92 1.247 . S
O86 Co84 2.091 . S
O86 C92 1.261 . S
C87 O96 1.247 . S
C87 O97 1.272 . S
O88 Co84 2.004 . S
O88 C93 1.259 . S
Co89 O90 2.061 . S
Co89 O95 2.052 1_655 S
Co89 O97 2.135 . S
O90 Co89 2.061 . S
O90 C93 1.235 . S
C91 O94 1.238 1_455 S
C91 O95 1.241 . S
C92 O85 1.247 . S
C92 O86 1.261 . S
C93 O88 1.259 . S
C93 O90 1.235 . S
O94 Co84 2.021 . S
O94 C91 1.238 1_655 S
O95 Co89 2.052 1_455 S
O95 C91 1.241 . S
O96 Co84 2.137 . S
O96 C87 1.247 . S
O97 Co84 2.244 . S
O97 C87 1.272 . S
O97 Co89 2.135 . S
Co98 O99 2.216 . S
Co98 O100 2.091 . S
Co98 O102 2.004 . S
Co98 O108 2.021 . S
Co98 O110 2.137 . S
Co98 O111 2.244 . S
O99 Co98 2.216 . S
O99 C106 1.247 . S
O100 Co98 2.091 . S
O100 C106 1.261 . S
C101 O110 1.247 . S
C101 O111 1.272 . S
O102 Co98 2.004 . S
O102 C107 1.259 . S
Co103 O104 2.061 . S
Co103 O109 2.052 . S
Co103 O111 2.135 1_554 S
O104 Co103 2.061 . S
O104 C107 1.235 1_554 S
C105 O108 1.238 . S
C105 O109 1.241 1_556 S
C106 O99 1.247 . S
C106 O100 1.261 . S
C107 O102 1.259 . S
C107 O104 1.235 1_556 S
O108 Co98 2.021 . S
O108 C105 1.238 . S
O109 Co103 2.052 . S
O109 C105 1.241 1_554 S
O110 Co98 2.137 . S
O110 C101 1.247 . S
O111 Co98 2.244 . S
O111 C101 1.272 . S
O111 Co103 2.135 1_556 S
Co112 O113 2.216 . S
Co112 O114 2.091 . S
Co112 O116 2.004 . S
Co112 O122 2.021 . S
Co112 O124 2.137 . S
Co112 O125 2.244 . S
O113 Co112 2.216 . S
O113 C120 1.247 . S
O114 Co112 2.091 . S
O114 C120 1.261 . S
C115 O124 1.247 . S
C115 O125 1.272 . S
O116 Co112 2.004 . S
O116 C121 1.259 . S
Co117 O118 2.061 . S
Co117 O123 2.052 1_545 S
Co117 O125 2.135 . S
O118 Co117 2.061 . S
O118 C121 1.235 . S
C119 O122 1.238 1_565 S
C119 O123 1.241 . S
C120 O113 1.247 . S
C120 O114 1.261 . S
C121 O116 1.259 . S
C121 O118 1.235 . S
O122 Co112 2.021 . S
O122 C119 1.238 1_545 S
O123 Co117 2.052 1_565 S
O123 C119 1.241 . S
O124 Co112 2.137 . S
O124 C115 1.247 . S
O125 Co112 2.244 . S
O125 C115 1.272 . S
O125 Co117 2.135 . S
Co126 O127 2.216 . S
Co126 O128 2.091 . S
Co126 O130 2.004 . S
Co126 O136 2.021 . S
Co126 O138 2.137 . S
Co126 O139 2.244 . S
O127 Co126 2.216 . S
O127 C134 1.247 . S
O128 Co126 2.091 . S
O128 C134 1.261 . S
C129 O138 1.247 . S
C129 O139 1.272 . S
O130 Co126 2.004 . S
O130 C135 1.259 . S
Co131 O132 2.061 . S
Co131 O137 2.052 1_545 S
Co131 O139 2.135 . S
O132 Co131 2.061 . S
O132 C135 1.235 . S
C133 O136 1.238 1_565 S
C133 O137 1.241 . S
C134 O127 1.247 . S
C134 O128 1.261 . S
C135 O130 1.259 . S
C135 O132 1.235 . S
O136 Co126 2.021 . S
O136 C133 1.238 1_545 S
O137 Co131 2.052 1_565 S
O137 C133 1.241 . S
O138 Co126 2.137 . S
O138 C129 1.247 . S
O139 Co126 2.244 . S
O139 C129 1.272 . S
O139 Co131 2.135 . S
Co140 O141 2.216 . S
Co140 O142 2.091 . S
Co140 O144 2.004 1_655 S
Co140 O150 2.021 . S
Co140 O152 2.137 . S
Co140 O153 2.244 . S
O141 Co140 2.216 . S
O141 C148 1.247 . S
O142 Co140 2.091 . S
O142 C148 1.261 . S
C143 O152 1.247 . S
C143 O153 1.272 . S
O144 Co140 2.004 1_455 S
O144 C149 1.259 . S
Co145 O146 2.061 . S
Co145 O151 2.052 . S
Co145 O153 2.135 . S
O146 Co145 2.061 . S
O146 C149 1.235 1_655 S
C147 O150 1.238 . S
C147 O151 1.241 . S
C148 O141 1.247 . S
C148 O142 1.261 . S
C149 O144 1.259 . S
C149 O146 1.235 1_455 S
O150 Co140 2.021 . S
O150 C147 1.238 . S
O151 Co145 2.052 . S
O151 C147 1.241 . S
O152 Co140 2.137 . S
O152 C143 1.247 . S
O153 Co140 2.244 . S
O153 C143 1.272 . S
O153 Co145 2.135 . S
Co154 O155 2.216 . S
Co154 O156 2.091 . S
Co154 O158 2.004 . S
Co154 O164 2.021 . S
Co154 O166 2.137 . S
Co154 O167 2.244 . S
O155 Co154 2.216 . S
O155 C162 1.247 . S
O156 Co154 2.091 . S
O156 C162 1.261 . S
C157 O166 1.247 . S
C157 O167 1.272 . S
O158 Co154 2.004 . S
O158 C163 1.259 . S
Co159 O160 2.061 . S
Co159 O165 2.052 . S
Co159 O167 2.135 . S
O160 Co159 2.061 . S
O160 C163 1.235 . S
C161 O164 1.238 . S
C161 O165 1.241 . S
C162 O155 1.247 . S
C162 O156 1.261 . S
C163 O158 1.259 . S
C163 O160 1.235 . S
O164 Co154 2.021 . S
O164 C161 1.238 . S
O165 Co159 2.052 . S
O165 C161 1.241 . S
O166 Co154 2.137 . S
O166 C157 1.247 . S
O167 Co154 2.244 . S
O167 C157 1.272 . S
O167 Co159 2.135 . S
C168 C169 1.387 1_556 S
C168 H172 0.950 . S
C168 C177 1.390 . S
C169 C168 1.387 1_554 S
C169 C171 1.387 . S
H170 C177 0.950 . S
C171 C169 1.387 . S
C171 C173 1.390 . S
C171 H175 0.950 . S
H172 C168 0.950 . S
C173 C171 1.390 . S
C173 C174 1.387 1_554 S
C173 H176 0.950 . S
C174 C173 1.387 1_556 S
C174 C177 1.387 . S
H175 C171 0.950 . S
H176 C173 0.950 . S
C177 C168 1.390 . S
C177 H170 0.950 . S
C177 C174 1.387 . S
C178 C179 1.387 1_556 S
C178 H182 0.950 . S
C178 C187 1.390 . S
C179 C178 1.387 1_554 S
C179 C181 1.387 . S
H180 C187 0.950 . S
C181 C179 1.387 . S
C181 C183 1.390 1_554 S
C181 H185 0.950 . S
H182 C178 0.950 . S
C183 C181 1.390 1_556 S
C183 C184 1.387 . S
C183 H186 0.950 . S
C184 C183 1.387 . S
C184 C187 1.387 . S
H185 C181 0.950 . S
H186 C183 0.950 . S
C187 C178 1.390 . S
C187 H180 0.950 . S
C187 C184 1.387 . S
C188 C189 1.387 . S
C188 H192 0.950 . S
C188 C197 1.390 . S
C189 C188 1.387 . S
C189 C191 1.387 1_554 S
H190 C197 0.950 . S
C191 C189 1.387 1_556 S
C191 C193 1.390 . S
C191 H195 0.950 . S
H192 C188 0.950 . S
C193 C191 1.390 . S
C193 C194 1.387 . S
C193 H196 0.950 . S
C194 C193 1.387 . S
C194 C197 1.387 1_556 S
H195 C191 0.950 . S
H196 C193 0.950 . S
C197 C188 1.390 . S
C197 H190 0.950 . S
C197 C194 1.387 1_554 S
C198 C199 1.387 . S
C198 H202 0.950 . S
C198 C207 1.390 . S
C199 C198 1.387 . S
C199 C201 1.387 . S
H200 C207 0.950 . S
C201 C199 1.387 . S
C201 C203 1.390 . S
C201 H205 0.950 . S
H202 C198 0.950 . S
C203 C201 1.390 . S
C203 C204 1.387 . S
C203 H206 0.950 . S
C204 C203 1.387 . S
C204 C207 1.387 . S
H205 C201 0.950 . S
H206 C203 0.950 . S
C207 C198 1.390 . S
C207 H200 0.950 . S
C207 C204 1.387 . S
C208 C209 1.387 . S
C208 H212 0.950 . S
C208 C217 1.390 . S
C209 C208 1.387 . S
C209 C211 1.387 . S
H210 C217 0.950 . S
C211 C209 1.387 . S
C211 C213 1.390 . S
C211 H215 0.950 . S
H212 C208 0.950 . S
C213 C211 1.390 . S
C213 C214 1.387 . S
C213 H216 0.950 . S
C214 C213 1.387 . S
C214 C217 1.387 . S
H215 C211 0.950 . S
H216 C213 0.950 . S
C217 C208 1.390 . S
C217 H210 0.950 . S
C217 C214 1.387 . S
C218 C219 1.387 . S
C218 H222 0.950 . S
C218 C227 1.390 . S
C219 C218 1.387 . S
C219 C221 1.387 . S
H220 C227 0.950 . S
C221 C219 1.387 . S
C221 C223 1.390 . S
C221 H225 0.950 . S
H222 C218 0.950 . S
C223 C221 1.390 . S
C223 C224 1.387 . S
C223 H226 0.950 . S
C224 C223 1.387 . S
C224 C227 1.387 . S
H225 C221 0.950 . S
H226 C223 0.950 . S
C227 C218 1.390 . S
C227 H220 0.950 . S
C227 C224 1.387 . S
C228 C229 1.387 . S
C228 H232 0.950 . S
C228 C237 1.390 . S
C229 C228 1.387 . S
C229 C231 1.387 1_554 S
H230 C237 0.950 . S
C231 C229 1.387 1_556 S
C231 C233 1.390 . S
C231 H235 0.950 . S
H232 C228 0.950 . S
C233 C231 1.390 . S
C233 C234 1.387 . S
C233 H236 0.950 . S
C234 C233 1.387 . S
C234 C237 1.387 1_556 S
H235 C231 0.950 . S
H236 C233 0.950 . S
C237 C228 1.390 . S
C237 H230 0.950 . S
C237 C234 1.387 1_554 S
C238 C239 1.387 1_554 S
C238 H242 0.950 . S
C238 C247 1.390 . S
C239 C238 1.387 1_556 S
C239 C241 1.387 . S
H240 C247 0.950 . S
C241 C239 1.387 . S
C241 C243 1.390 . S
C241 H245 0.950 . S
H242 C238 0.950 . S
C243 C241 1.390 . S
C243 C244 1.387 1_556 S
C243 H246 0.950 . S
C244 C243 1.387 1_554 S
C244 C247 1.387 . S
H245 C241 0.950 . S
H246 C243 0.950 . S
C247 C238 1.390 . S
C247 H240 0.950 . S
C247 C244 1.387 . S
C248 C249 1.387 1_556 S
C248 H252 0.950 . S
C248 C257 1.390 . S
C249 C248 1.387 1_554 S
C249 C251 1.387 . S
H250 C257 0.950 . S
C251 C249 1.387 . S
C251 C253 1.390 . S
C251 H255 0.950 . S
H252 C248 0.950 . S
C253 C251 1.390 . S
C253 C254 1.387 1_554 S
C253 H256 0.950 . S
C254 C253 1.387 1_556 S
C254 C257 1.387 . S
H255 C251 0.950 . S
H256 C253 0.950 . S
C257 C248 1.390 . S
C257 H250 0.950 . S
C257 C254 1.387 . S
C258 C259 1.387 . S
C258 H262 0.950 . S
C258 C267 1.390 . S
C259 C258 1.387 . S
C259 C261 1.387 . S
H260 C267 0.950 . S
C261 C259 1.387 . S
C261 C263 1.390 . S
C261 H265 0.950 . S
H262 C258 0.950 . S
C263 C261 1.390 . S
C263 C264 1.387 . S
C263 H266 0.950 . S
C264 C263 1.387 . S
C264 C267 1.387 . S
H265 C261 0.950 . S
H266 C263 0.950 . S
C267 C258 1.390 . S
C267 H260 0.950 . S
C267 C264 1.387 . S
C268 C269 1.387 . S
C268 H272 0.950 . S
C268 C277 1.390 . S
C269 C268 1.387 . S
C269 C271 1.387 . S
H270 C277 0.950 . S
C271 C269 1.387 . S
C271 C273 1.390 . S
C271 H275 0.950 . S
H272 C268 0.950 . S
C273 C271 1.390 . S
C273 C274 1.387 . S
C273 H276 0.950 . S
C274 C273 1.387 . S
C274 C277 1.387 . S
H275 C271 0.950 . S
H276 C273 0.950 . S
C277 C268 1.390 . S
C277 H270 0.950 . S
C277 C274 1.387 . S
C278 C279 1.387 . S
C278 H282 0.950 . S
C278 C287 1.390 . S
C279 C278 1.387 . S
C279 C281 1.387 . S
H280 C287 0.950 . S
C281 C279 1.387 . S
C281 C283 1.390 . S
C281 H285 0.950 . S
H282 C278 0.950 . S
C283 C281 1.390 . S
C283 C284 1.387 . S
C283 H286 0.950 . S
C284 C283 1.387 . S
C284 C287 1.387 . S
H285 C281 0.950 . S
H286 C283 0.950 . S
C287 C278 1.390 . S
C287 H280 0.950 . S
C287 C284 1.387 . S
C288 C289 1.387 . S
C288 H292 0.950 . S
C288 C297 1.390 . S
C289 C288 1.387 . S
C289 C291 1.387 . S
H290 C297 0.950 . S
C291 C289 1.387 . S
C291 C293 1.390 . S
C291 H295 0.950 . S
H292 C288 0.950 . S
C293 C291 1.390 . S
C293 C294 1.387 . S
C293 H296 0.950 . S
C294 C293 1.387 . S
C294 C297 1.387 . S
H295 C291 0.950 . S
H296 C293 0.950 . S
C297 C288 1.390 . S
C297 H290 0.950 . S
C297 C294 1.387 . S
C298 C299 1.387 . S
C298 H302 0.950 . S
C298 C307 1.390 . S
C299 C298 1.387 . S
C299 C301 1.387 . S
H300 C307 0.950 . S
C301 C299 1.387 . S
C301 C303 1.390 . S
C301 H305 0.950 . S
H302 C298 0.950 . S
C303 C301 1.390 . S
C303 C304 1.387 . S
C303 H306 0.950 . S
C304 C303 1.387 . S
C304 C307 1.387 . S
H305 C301 0.950 . S
H306 C303 0.950 . S
C307 C298 1.390 . S
C307 H300 0.950 . S
C307 C304 1.387 . S
C308 C309 1.387 . S
C308 H312 0.950 . S
C308 C317 1.390 . S
C309 C308 1.387 . S
C309 C311 1.387 . S
H310 C317 0.950 . S
C311 C309 1.387 . S
C311 C313 1.390 . S
C311 H315 0.950 . S
H312 C308 0.950 . S
C313 C311 1.390 . S
C313 C314 1.387 . S
C313 H316 0.950 . S
C314 C313 1.387 . S
C314 C317 1.387 . S
H315 C311 0.950 . S
H316 C313 0.950 . S
C317 C308 1.390 . S
C317 H310 0.950 . S
C317 C314 1.387 . S
C318 C319 1.387 . S
C318 H322 0.950 . S
C318 C327 1.390 . S
C319 C318 1.387 . S
C319 C321 1.387 . S
H320 C327 0.950 . S
C321 C319 1.387 . S
C321 C323 1.390 . S
C321 H325 0.950 . S
H322 C318 0.950 . S
C323 C321 1.390 . S
C323 C324 1.387 . S
C323 H326 0.950 . S
C324 C323 1.387 . S
C324 C327 1.387 . S
H325 C321 0.950 . S
H326 C323 0.950 . S
C327 C318 1.390 . S
C327 H320 0.950 . S
C327 C324 1.387 . S
C328 C329 1.387 . S
C328 H332 0.950 . S
C328 C337 1.390 . S
C329 C328 1.387 . S
C329 C331 1.387 . S
H330 C337 0.950 . S
C331 C329 1.387 . S
C331 C333 1.390 . S
C331 H335 0.950 . S
H332 C328 0.950 . S
C333 C331 1.390 . S
C333 C334 1.387 . S
C333 H336 0.950 . S
C334 C333 1.387 . S
C334 C337 1.387 . S
H335 C331 0.950 . S
H336 C333 0.950 . S
C337 C328 1.390 . S
C337 H330 0.950 . S
C337 C334 1.387 . S
C338 C339 1.387 . S
C338 H342 0.950 . S
C338 C347 1.390 . S
C339 C338 1.387 . S
C339 C341 1.387 . S
H340 C347 0.950 . S
C341 C339 1.387 . S
C341 C343 1.390 . S
C341 H345 0.950 . S
H342 C338 0.950 . S
C343 C341 1.390 . S
C343 C344 1.387 . S
C343 H346 0.950 . S
C344 C343 1.387 . S
C344 C347 1.387 . S
H345 C341 0.950 . S
H346 C343 0.950 . S
C347 C338 1.390 . S
C347 H340 0.950 . S
C347 C344 1.387 . S
C348 C349 1.387 1_556 S
C348 H352 0.950 . S
C348 C357 1.390 . S
C349 C348 1.387 1_554 S
C349 C351 1.396 . S
H350 C357 0.950 . S
C351 C349 1.396 . S
C351 C353 1.383 1_455 S
C351 H355 0.949 1_455 S
H352 C348 0.950 . S
C353 C351 1.383 1_655 S
C353 C354 1.387 1_554 S
C353 H356 0.950 . S
C354 C353 1.387 1_556 S
C354 C357 1.387 1_655 S
H355 C351 0.949 1_655 S
H356 C353 0.950 . S
C357 C348 1.390 . S
C357 H350 0.950 . S
C357 C354 1.387 1_455 S
C358 C359 1.387 1_556 S
C358 H362 0.950 . S
C358 C367 1.390 . S
C359 C358 1.387 1_554 S
C359 C361 1.387 . S
H360 C367 0.950 . S
C361 C359 1.387 . S
C361 C363 1.390 1_554 S
C361 H365 0.950 . S
H362 C358 0.950 . S
C363 C361 1.390 1_556 S
C363 C364 1.387 . S
C363 H366 0.950 . S
C364 C363 1.387 . S
C364 C367 1.387 . S
H365 C361 0.950 . S
H366 C363 0.950 . S
C367 C358 1.390 . S
C367 H360 0.950 . S
C367 C364 1.387 . S
C368 C369 1.387 1_545 S
C368 H372 0.950 . S
C368 C377 1.390 . S
C369 C368 1.387 1_565 S
C369 C371 1.387 1_554 S
H370 C377 0.950 . S
C371 C369 1.387 1_556 S
C371 C373 1.390 . S
C371 H375 0.950 . S
H372 C368 0.950 . S
C373 C371 1.390 . S
C373 C374 1.387 1_565 S
C373 H376 0.950 . S
C374 C373 1.387 1_545 S
C374 C377 1.387 1_556 S
H375 C371 0.950 . S
H376 C373 0.950 . S
C377 C368 1.390 . S
C377 H370 0.950 . S
C377 C374 1.387 1_554 S
C378 C379 1.387 . S
C378 H382 0.950 . S
C378 C387 1.390 . S
C379 C378 1.387 . S
C379 C381 1.387 1_565 S
H380 C387 0.950 . S
C381 C379 1.387 1_545 S
C381 C383 1.390 . S
C381 H385 0.950 . S
H382 C378 0.950 . S
C383 C381 1.390 . S
C383 C384 1.387 . S
C383 H386 0.950 . S
C384 C383 1.387 . S
C384 C387 1.387 1_545 S
H385 C381 0.950 . S
H386 C383 0.950 . S
C387 C378 1.390 . S
C387 H380 0.950 . S
C387 C384 1.387 1_565 S
C388 C389 1.387 1_455 S
C388 H392 0.950 . S
C388 C397 1.390 . S
C389 C388 1.387 1_655 S
C389 C391 1.387 . S
H390 C397 0.950 . S
C391 C389 1.387 . S
C391 C393 1.390 . S
C391 H395 0.950 . S
H392 C388 0.950 . S
C393 C391 1.390 . S
C393 C394 1.387 1_655 S
C393 H396 0.950 . S
C394 C393 1.387 1_455 S
C394 C397 1.387 . S
H395 C391 0.950 . S
H396 C393 0.950 . S
C397 C388 1.390 . S
C397 H390 0.950 . S
C397 C394 1.387 . S
C398 C399 1.387 . S
C398 H402 0.950 . S
C398 C407 1.390 . S
C399 C398 1.387 . S
C399 C401 1.387 . S
H400 C407 0.950 . S
C401 C399 1.387 . S
C401 C403 1.390 . S
C401 H405 0.950 . S
H402 C398 0.950 . S
C403 C401 1.390 . S
C403 C404 1.387 . S
C403 H406 0.950 . S
C404 C403 1.387 . S
C404 C407 1.387 . S
H405 C401 0.950 . S
H406 C403 0.950 . S
C407 C398 1.390 . S
C407 H400 0.950 . S
C407 C404 1.387 . S
C169 C7 1.009 . S
C174 C107 1.004 . S
C179 C21 0.993 . S
C184 C119 0.989 . S
C189 C35 0.983 . S
C194 C91 0.985 . S
C199 C161 0.985 . S
C204 C49 0.985 . S
C209 C63 0.991 . S
C214 C133 0.991 . S
C219 C149 1.003 . S
C224 C77 1.008 . S
C229 C23 0.987 . S
C234 C93 0.975 . S
C239 C105 0.956 . S
C244 C37 0.952 . S
C249 C9 0.977 . S
C254 C121 0.963 . S
C259 C135 0.962 . S
C264 C79 0.977 . S
C269 C147 0.957 . S
C274 C51 0.953 . S
C279 C65 0.985 . S
C284 C163 0.976 . S
C289 C78 1.599 . S
C294 C8 1.599 . S
C299 C22 1.642 . S
C304 C50 1.648 . S
C309 C36 1.650 . S
C314 C64 1.642 . S
C319 C87 1.631 . S
C324 C157 1.631 . S
C329 C106 1.649 . S
C334 C129 1.631 . S
C339 C115 1.633 . S
C344 C148 1.651 . S
C349 C3 1.687 . S
C354 C92 1.689 . S
C359 C17 1.700 . S
C364 C101 1.699 . S
C369 C31 1.696 . S
C374 C120 1.695 . S
C379 C45 1.699 . S
C384 C134 1.698 . S
C389 C143 1.699 . S
C394 C59 1.700 . S
C399 C73 1.685 . S
C404 C162 1.687 . S
