# Generated by pormake.
# Topology smu, (6)-cn, num edge types: 1
# Building blocks:
#     Node 0, Type 0, BuildingBlock: JUFBIX_clean_sbu_0, # of connection points: 6
#     Node 1, Type 0, BuildingBlock: JUFBIX_clean_sbu_0, # of connection points: 6
#     Node 2, Type 0, BuildingBlock: JUFBIX_clean_sbu_0, # of connection points: 6
#     Node 3, Type 0, BuildingBlock: JUFBIX_clean_sbu_0, # of connection points: 6
#     Node 4, Type 0, BuildingBlock: JUFBIX_clean_sbu_0, # of connection points: 6
#     Node 5, Type 0, BuildingBlock: JUFBIX_clean_sbu_0, # of connection points: 6
#     Edge 6, Type (0, 0), BuildingBlock: CIFDUS_clean_linker_0, # of connection points: 2
#     Edge 7, Type (0, 0), BuildingBlock: CIFDUS_clean_linker_0, # of connection points: 2
#     Edge 8, Type (0, 0), BuildingBlock: CIFDUS_clean_linker_0, # of connection points: 2
#     Edge 9, Type (0, 0), BuildingBlock: CIFDUS_clean_linker_0, # of connection points: 2
#     Edge 10, Type (0, 0), BuildingBlock: CIFDUS_clean_linker_0, # of connection points: 2
#     Edge 11, Type (0, 0), BuildingBlock: CIFDUS_clean_linker_0, # of connection points: 2
#     Edge 12, Type (0, 0), BuildingBlock: CIFDUS_clean_linker_0, # of connection points: 2
#     Edge 13, Type (0, 0), BuildingBlock: CIFDUS_clean_linker_0, # of connection points: 2
#     Edge 14, Type (0, 0), BuildingBlock: CIFDUS_clean_linker_0, # of connection points: 2
#     Edge 15, Type (0, 0), BuildingBlock: CIFDUS_clean_linker_0, # of connection points: 2
#     Edge 16, Type (0, 0), BuildingBlock: CIFDUS_clean_linker_0, # of connection points: 2
#     Edge 17, Type (0, 0), BuildingBlock: CIFDUS_clean_linker_0, # of connection points: 2
#     Edge 18, Type (0, 0), BuildingBlock: CIFDUS_clean_linker_0, # of connection points: 2
#     Edge 19, Type (0, 0), BuildingBlock: CIFDUS_clean_linker_0, # of connection points: 2
#     Edge 20, Type (0, 0), BuildingBlock: CIFDUS_clean_linker_0, # of connection points: 2
#     Edge 21, Type (0, 0), BuildingBlock: CIFDUS_clean_linker_0, # of connection points: 2
#     Edge 22, Type (0, 0), BuildingBlock: CIFDUS_clean_linker_0, # of connection points: 2
#     Edge 23, Type (0, 0), BuildingBlock: CIFDUS_clean_linker_0, # of connection points: 2
# Relax obj value: 0.428
# Max RMSD: 0.305
# Mean RMSD: 0.304
data_MOF--net-smu--node1-JUFBIX_clean_sbu_0--edge1-CIFDUS_clean_linker_0
_symmetry_space_group_name_H-M    P1
_symmetry_Int_Tables_number       1
_symmetry_cell_setting            triclinic
loop_
_symmetry_equiv_pos_as_xyz
'x, y, z'
_cell_length_a     28.052749
_cell_length_b     28.053663
_cell_length_c     24.794984
_cell_angle_alpha  91.936194
_cell_angle_beta   89.43168
_cell_angle_gamma 120.0081
loop_
_atom_site_label
_atom_site_type_symbol
_atom_site_fract_x
_atom_site_fract_y
_atom_site_fract_z
_atom_type_partial_charge
Co0 Co 0.32719 0.04156 0.26992 0.0
C1 C 0.36642 0.08754 0.17145 0.0
Co2 Co 0.39212 0.12881 0.27688 0.0
C3 C 0.21925 0.94844 0.27607 0.0
C4 C 0.27306 0.92716 0.23339 0.0
N5 N 0.27215 0.96889 0.26104 0.0
N6 N 0.18677 0.89606 0.25816 0.0
C7 C 0.22055 0.88218 0.23169 0.0
H8 H 0.20448 0.97194 0.29892 0.0
H9 H 0.30896 0.93003 0.21374 0.0
C10 C 0.35071 0.07274 0.37493 0.0
N11 N 0.44483 0.20341 0.28647 0.0
C12 C 0.44937 0.24677 0.25959 0.0
C13 C 0.48093 0.22638 0.32793 0.0
N14 N 0.48594 0.29561 0.2834 0.0
C15 C 0.506 0.28289 0.32627 0.0
C16 C 0.2885 0.11611 0.27205 0.0
O17 O 0.3185 0.03497 0.34255 0.0
O18 O 0.38656 0.11912 0.35613 0.0
O19 O 0.33918 0.14919 0.27894 0.0
O20 O 0.27208 0.06492 0.26615 0.0
O21 O 0.39577 0.13341 0.19744 0.0
H22 H 0.48735 0.20353 0.35852 0.0
H23 H 0.42452 0.24261 0.22469 0.0
O24 O 0.33469 0.04532 0.19713 0.0
O25 O 0.38538 0.0216 0.27372 0.0
O26 O 0.44631 0.11029 0.27472 0.0
C27 C 0.43562 0.06083 0.274 0.0
H28 H 0.20781 0.84325 0.21047 0.0
H29 H 0.53667 0.31243 0.35437 0.0
Co30 Co 0.76913 0.64981 0.25908 0.0
C31 C 0.75715 0.69036 0.16081 0.0
Co32 Co 0.74777 0.71537 0.26552 0.0
C33 C 0.82952 0.59235 0.27951 0.0
C34 C 0.77708 0.5599 0.20981 0.0
N35 N 0.79053 0.59656 0.25158 0.0
N36 N 0.84162 0.55552 0.25594 0.0
C37 C 0.80849 0.53487 0.21226 0.0
H38 H 0.85064 0.61782 0.31481 0.0
H39 H 0.74786 0.55337 0.17826 0.0
C40 C 0.75134 0.67704 0.364 0.0
N41 N 0.73052 0.77092 0.27232 0.0
C42 C 0.76289 0.82349 0.25758 0.0
C43 C 0.68798 0.77062 0.29837 0.0
N44 N 0.74304 0.85633 0.27427 0.0
C45 C 0.69551 0.82311 0.29954 0.0
C46 C 0.65787 0.60701 0.25744 0.0
O47 O 0.76233 0.64301 0.3387 0.0
O48 O 0.74871 0.71341 0.33802 0.0
O49 O 0.66943 0.65708 0.2654 0.0
O50 O 0.69638 0.59625 0.25202 0.0
O51 O 0.7452 0.7186 0.19272 0.0
H52 H 0.655 0.7352 0.31742 0.0
H53 H 0.80106 0.83785 0.23589 0.0
O54 O 0.77259 0.65846 0.18018 0.0
O55 O 0.84257 0.7022 0.26588 0.0
O56 O 0.82634 0.77043 0.26636 0.0
C57 C 0.86068 0.75336 0.26734 0.0
H58 H 0.80732 0.50405 0.18396 0.0
H59 H 0.66944 0.83627 0.31971 0.0
Co60 Co 1.00143 0.29566 0.27317 0.0
C61 C 0.9518 0.28678 0.17568 0.0
Co62 Co 0.91449 0.27394 0.28173 0.0
C63 C 0.0947 0.28067 0.27768 0.0
C64 C 0.11391 0.35353 0.23571 0.0
N65 N 0.07363 0.31253 0.26363 0.0
N66 N 0.14598 0.2993 0.25882 0.0
C67 C 0.15859 0.34559 0.23284 0.0
H68 H 0.07242 0.24367 0.30045 0.0
H69 H 0.11013 0.38558 0.21659 0.0
C70 C 0.97378 0.29042 0.37895 0.0
N71 N 0.84041 0.25282 0.29186 0.0
C72 C 0.79538 0.21262 0.26541 0.0
C73 C 0.82002 0.26836 0.33409 0.0
N74 N 0.74804 0.20181 0.2903 0.0
C75 C 0.76345 0.23701 0.33335 0.0
C76 C 0.92647 0.18246 0.27279 0.0
O77 O 1.01196 0.29967 0.34632 0.0
O78 O 0.92581 0.27586 0.36031 0.0
O79 O 0.8934 0.20039 0.27721 0.0
O80 O 0.97782 0.21698 0.27111 0.0
O81 O 0.90802 0.27509 0.20227 0.0
H82 H 0.8448 0.29911 0.36471 0.0
H83 H 0.79737 0.18983 0.23017 0.0
O84 O 0.99373 0.29335 0.20048 0.0
O85 O 1.02151 0.37398 0.2744 0.0
O86 O 0.93386 0.34692 0.28651 0.0
C87 C 0.98297 0.38545 0.28163 0.0
H88 H 0.19633 0.37046 0.21116 0.0
H89 H 0.7357 0.23965 0.36237 0.0
Co90 Co 0.13611 0.38458 0.78239 0.0
C91 C 0.07684 0.34521 0.8805 0.0
Co92 Co 0.04887 0.31918 0.77545 0.0
C93 C 0.2549 0.44113 0.76661 0.0
C94 C 0.23184 0.47479 0.83397 0.0
N95 N 0.21047 0.43745 0.7926 0.0
N96 N 0.30284 0.4784 0.79088 0.0
C97 C 0.28841 0.49978 0.83312 0.0
H98 H 0.25207 0.41516 0.73206 0.0
H99 H 0.20777 0.4821 0.86399 0.0
C100 C 0.09807 0.3564 0.67702 0.0
N101 N 0.97638 0.26401 0.76523 0.0
C102 C 0.95508 0.21054 0.77719 0.0
C103 C 0.93625 0.26575 0.73744 0.0
N104 N 0.90382 0.17858 0.75709 0.0
C105 C 0.89151 0.21329 0.7325 0.0
C106 C 0.06824 0.42797 0.77884 0.0
O107 O 0.14307 0.38749 0.70291 0.0
O108 O 0.05571 0.32427 0.7028 0.0
O109 O 0.02905 0.3777 0.77746 0.0
O110 O 0.11765 0.43876 0.78116 0.0
O111 O 0.03927 0.31293 0.84817 0.0
H112 H 0.94031 0.30219 0.71949 0.0
H113 H 0.97729 0.19495 0.7991 0.0
O114 O 0.12404 0.37978 0.8616 0.0
O115 O 0.15639 0.3316 0.78349 0.0
O116 O 0.07219 0.2639 0.77332 0.0
C117 C 0.12336 0.28061 0.77814 0.0
H118 H 0.31682 0.53125 0.86142 0.0
H119 H 0.85402 0.2013 0.71014 0.0
Co120 Co 0.28171 0.90606 0.76909 0.0
C121 C 0.29867 0.9637 0.8706 0.0
Co122 Co 0.30342 0.99323 0.76777 0.0
C123 C 0.21875 0.78608 0.75284 0.0
C124 C 0.28171 0.81309 0.81344 0.0
N125 N 0.26158 0.83203 0.7757 0.0
N126 N 0.21089 0.73968 0.77591 0.0
C127 C 0.25056 0.75657 0.81383 0.0
H128 H 0.19205 0.78678 0.72203 0.0
H129 H 0.31544 0.83893 0.84067 0.0
C130 C 0.29429 0.94554 0.66628 0.0
N131 N 0.32012 0.06554 0.76226 0.0
C132 C 0.2874 0.08601 0.77763 0.0
C133 C 0.36249 0.10681 0.73659 0.0
N134 N 0.30695 0.13795 0.76183 0.0
C135 C 0.35459 0.15152 0.73642 0.0
C136 C 0.39328 0.97522 0.7678 0.0
O137 O 0.27882 0.89988 0.68939 0.0
O138 O 0.3047 0.98777 0.69467 0.0
O139 O 0.3819 1.01416 0.77041 0.0
O140 O 0.35476 0.92567 0.7664 0.0
O141 O 0.30377 1.00144 0.84085 0.0
H142 H 0.39559 0.10375 0.71714 0.0
H143 H 0.24922 0.06288 0.79917 0.0
O144 O 0.28764 0.91721 0.84872 0.0
O145 O 0.20812 0.8848 0.77159 0.0
O146 O 0.22465 0.96898 0.7651 0.0
C147 C 0.19016 0.91778 0.76837 0.0
H148 H 0.25617 0.72984 0.84034 0.0
H149 H 0.38053 0.19001 0.71692 0.0
Co150 Co 0.65707 0.76057 0.76352 0.0
C151 C 0.69964 0.75294 0.86447 0.0
Co152 Co 0.72275 0.73909 0.76172 0.0
C153 C 0.60031 0.82267 0.74633 0.0
C154 C 0.56451 0.76405 0.80861 0.0
N155 N 0.60331 0.78132 0.76996 0.0
N156 N 0.56216 0.83248 0.76981 0.0
C157 C 0.53944 0.79548 0.80876 0.0
H158 H 0.62761 0.84713 0.71468 0.0
H159 H 0.55669 0.73227 0.83667 0.0
C160 C 0.68245 0.73849 0.66076 0.0
N161 N 0.77833 0.72191 0.75663 0.0
C162 C 0.83146 0.75556 0.77119 0.0
C163 C 0.77717 0.67759 0.73246 0.0
N164 N 0.86379 0.73465 0.75632 0.0
C165 C 0.82969 0.68524 0.73234 0.0
C166 C 0.61479 0.64935 0.76745 0.0
O167 O 0.65218 0.75545 0.68379 0.0
O168 O 0.71527 0.73143 0.68906 0.0
O169 O 0.66517 0.66091 0.76816 0.0
O170 O 0.60368 0.68764 0.76499 0.0
O171 O 0.73141 0.74515 0.83408 0.0
H172 H 0.74102 0.64311 0.71407 0.0
H173 H 0.84647 0.79527 0.79156 0.0
O174 O 0.66386 0.76246 0.84332 0.0
O175 O 0.70941 0.83417 0.76189 0.0
O176 O 0.77723 0.81743 0.75572 0.0
C177 C 0.76034 0.85198 0.75774 0.0
H178 H 0.50738 0.79193 0.83585 0.0
H179 H 0.84214 0.6577 0.71387 0.0
H180 H 0.33355 0.06361 0.91983 0.0
H181 H 0.29431 0.89746 0.95235 0.0
H182 H 0.31904 0.92472 0.04755 0.0
H183 H 0.34824 0.99424 0.12077 0.0
H184 H 0.38477 0.15956 0.08958 0.0
H185 H 0.3667 0.13442 0.99281 0.0
C186 C 0.3301 0.03297 0.94756 0.0
C187 C 0.31124 0.97802 0.92892 0.0
C188 C 0.34482 0.04913 1.0018 0.0
C189 C 0.30794 0.93956 0.96557 0.0
C190 C 0.32243 0.95532 0.01983 0.0
C191 C 0.35273 0.02515 0.09281 0.0
C192 C 0.36738 0.07876 0.11233 0.0
C193 C 0.34056 1.00981 0.03822 0.0
C194 C 0.37394 0.11836 0.07555 0.0
C195 C 0.3629 0.10364 0.02049 0.0
H196 H 0.72027 0.67515 0.61578 0.0
H197 H 0.64205 0.76847 0.57447 0.0
H198 H 0.65264 0.75176 0.47824 0.0
H199 H 0.69091 0.71791 0.40817 0.0
H200 H 0.77462 0.62985 0.44933 0.0
H201 H 0.7544 0.63708 0.54518 0.0
C202 C 0.70532 0.69205 0.58595 0.0
C203 C 0.68116 0.72413 0.60242 0.0
C204 C 0.71282 0.68339 0.53136 0.0
C205 C 0.6609 0.7441 0.56302 0.0
C206 C 0.66727 0.7347 0.50818 0.0
C207 C 0.7051 0.7002 0.43787 0.0
C208 C 0.73555 0.67431 0.42162 0.0
C209 C 0.69437 0.70564 0.49222 0.0
C210 C 0.75171 0.65025 0.46068 0.0
C211 C 0.74027 0.65466 0.51531 0.0
H212 H 0.04365 0.36434 0.13088 0.0
H213 H 0.87963 0.23369 0.08989 0.0
H214 H 0.90516 0.24174 0.99388 0.0
H215 H 0.97649 0.27999 0.92427 0.0
H216 H 0.14183 0.40786 0.96678 0.0
H217 H 0.11356 0.40547 0.06106 0.0
C218 C 1.0131 0.33789 0.10087 0.0
C219 C 0.95976 0.29807 0.1174 0.0
C220 C 0.02884 0.34135 0.04674 0.0
C221 C 0.92056 0.26481 0.07816 0.0
C222 C 0.93556 0.26899 0.02353 0.0
C223 C 1.00672 0.30747 0.95397 0.0
C224 C 0.06177 0.34375 0.93836 0.0
C225 C 0.99003 0.30599 1.00776 0.0
C226 C 0.09968 0.37923 0.9776 0.0
C227 C 0.08334 0.37806 0.03135 0.0
H228 H 0.28314 0.97326 0.41736 0.0
H229 H 0.41399 0.13739 0.46129 0.0
H230 H 0.41168 0.10857 0.55409 0.0
H231 H 0.37093 0.03815 0.62203 0.0
H232 H 0.23837 0.87496 0.5794 0.0
H233 H 0.24481 0.90162 0.48481 0.0
C234 C 0.31124 1.00317 0.44706 0.0
C235 C 0.34844 0.058 0.43232 0.0
C236 C 0.31005 0.98606 0.49982 0.0
C237 C 0.38465 0.09545 0.47152 0.0
C238 C 0.38355 0.07876 0.52437 0.0
C239 C 0.34359 1.00801 0.59198 0.0
C240 C 0.3038 0.95456 0.60771 0.0
C241 C 0.34635 0.02432 0.53878 0.0
C242 C 0.26947 0.91596 0.56828 0.0
C243 C 0.27275 0.93159 0.51452 0.0
H244 H 0.75124 0.70439 0.90847 0.0
H245 H 0.6547 0.78095 0.95129 0.0
H246 H 0.66369 0.76646 0.04706 0.0
H247 H 0.7005 0.73399 0.11704 0.0
H248 H 0.79578 0.65622 0.07362 0.0
H249 H 0.7852 0.66916 0.9779 0.0
C250 C 0.73223 0.7184 0.93853 0.0
C251 C 0.70292 0.74469 0.92273 0.0
C252 C 0.73726 0.70954 0.9928 0.0
C253 C 0.67771 0.76116 0.96236 0.0
C254 C 0.68291 0.75281 1.01693 0.0
C255 C 0.71925 0.71985 0.08681 0.0
C256 C 0.74966 0.69468 0.10251 0.0
C257 C 0.71288 0.72738 0.0324 0.0
C258 C 0.77253 0.6758 0.06265 0.0
C259 C 0.76653 0.68336 1.00811 0.0
H260 H 0.07397 0.3242 0.42433 0.0
H261 H 0.90787 0.28391 0.46442 0.0
H262 H 0.93536 0.30796 0.55936 0.0
H263 H 1.00505 0.3379 0.62996 0.0
H264 H 0.17031 0.37469 0.59225 0.0
H265 H 0.14505 0.35681 0.49571 0.0
C266 C 0.04348 0.32041 0.45371 0.0
C267 C 0.98847 0.30166 0.43718 0.0
C268 C 0.05975 0.33468 0.50799 0.0
C269 C 0.95003 0.29756 0.47595 0.0
C270 C 0.96591 0.3117 0.53009 0.0
C271 C 0.03593 0.34236 0.60069 0.0
C272 C 0.08954 0.35714 0.61826 0.0
C273 C 1.02049 0.33011 0.54634 0.0
C274 C 0.12909 0.36375 0.57977 0.0
C275 C 0.1143 0.3528 0.52482 0.0
H276 H 0.5097 0.07964 0.19638 0.0
H277 H 0.47216 0.0335 0.36176 0.0
H278 H 0.57001 0.07042 0.38132 0.0
H279 H 0.66669 0.13343 0.35536 0.0
H280 H 0.70415 0.18079 0.19019 0.0
H281 H 0.60622 0.12588 0.16611 0.0
C282 C 0.52279 0.0748 0.23588 0.0
C283 C 0.48372 0.05318 0.27743 0.0
C284 C 0.57938 0.09839 0.2472 0.0
C285 C 0.50121 0.04858 0.32884 0.0
C286 C 0.55739 0.071 0.34029 0.0
C287 C 0.6533 0.13071 0.31394 0.0
C288 C 0.69226 0.16188 0.27469 0.0
C289 C 0.59694 0.09885 0.30053 0.0
C290 C 0.67481 0.15737 0.22098 0.0
C291 C 0.61884 0.1261 0.20733 0.0
H292 H 0.60258 0.52669 0.1825 0.0
H293 H 0.59418 0.57674 0.34664 0.0
H294 H 0.53345 0.48047 0.36939 0.0
H295 H 0.49971 0.38184 0.34638 0.0
H296 H 0.50879 0.3322 0.18218 0.0
H297 H 0.55208 0.4282 0.15525 0.0
C298 C 0.58482 0.51662 0.22246 0.0
C299 C 0.60237 0.55877 0.26273 0.0
C300 C 0.55177 0.46101 0.23557 0.0
C301 C 0.58025 0.54524 0.31469 0.0
C302 C 0.54659 0.48998 0.32797 0.0
C303 C 0.51027 0.39216 0.30457 0.0
C304 C 0.50215 0.35032 0.26638 0.0
C305 C 0.53482 0.44748 0.28946 0.0
C306 C 0.51495 0.36379 0.21215 0.0
C307 C 0.5398 0.41867 0.19687 0.0
H308 H 0.95925 0.44136 0.35689 0.0
H309 H 1.01454 0.44824 0.19333 0.0
H310 H 0.97833 0.50856 0.17095 0.0
H311 H 0.91355 0.54206 0.1937 0.0
H312 H 0.85757 0.53413 0.35718 0.0
H313 H 0.91133 0.4917 0.38422 0.0
C314 C 0.96611 0.45871 0.31718 0.0
C315 C 0.99001 0.44084 0.27692 0.0
C316 C 0.94309 0.49144 0.30423 0.0
C317 C 0.99753 0.46242 0.22528 0.0
C318 C 0.97554 0.49584 0.21219 0.0
C319 C 0.91415 0.53196 0.23541 0.0
C320 C 0.88088 0.54012 0.27332 0.0
C321 C 0.94543 0.50783 0.25056 0.0
C322 C 0.88263 0.52793 0.32742 0.0
C323 C 0.91325 0.50356 0.34276 0.0
H324 H 0.08374 0.49437 0.69691 0.0
H325 H 0.04401 0.47255 0.8656 0.0
H326 H 0.08165 0.57179 0.87931 0.0
H327 H 0.1442 0.66545 0.84677 0.0
H328 H 0.18495 0.68759 0.67834 0.0
H329 H 0.12866 0.58785 0.66052 0.0
C330 C 0.08035 0.51111 0.73594 0.0
C331 C 0.06037 0.4761 0.78007 0.0
C332 C 0.10431 0.56857 0.74379 0.0
C333 C 0.05778 0.49839 0.83081 0.0
C334 C 0.0806 0.5554 0.83885 0.0
C335 C 0.13946 0.6483 0.80603 0.0
C336 C 0.16919 0.68338 0.76394 0.0
C337 C 0.10688 0.59102 0.79628 0.0
C338 C 0.16248 0.66118 0.71118 0.0
C339 C 0.13049 0.60421 0.70115 0.0
H340 H 0.44743 0.95693 0.68729 0.0
H341 H 0.45891 1.00301 0.85596 0.0
H342 H 0.51989 0.96581 0.87137 0.0
H343 H 0.55205 0.90194 0.84001 0.0
H344 H 0.53962 0.85476 0.67156 0.0
H345 H 0.49715 0.91057 0.65238 0.0
C346 C 0.46604 0.96176 0.72674 0.0
C347 C 0.44929 0.98333 0.77034 0.0
C348 C 0.49913 0.93804 0.73553 0.0
C349 C 0.47229 0.98793 0.82158 0.0
C350 C 0.50609 0.96536 0.83058 0.0
C351 C 0.54114 0.90509 0.79899 0.0
C352 C 0.54792 0.87367 0.75727 0.0
C353 C 0.51696 0.9374 0.78846 0.0
C354 C 0.53451 0.87847 0.70415 0.0
C355 C 0.51009 0.91021 0.69333 0.0
H356 H 0.38692 0.49635 0.85613 0.0
H357 H 0.34331 0.49526 0.68992 0.0
H358 H 0.4403 0.53679 0.66432 0.0
H359 H 0.53788 0.58887 0.69246 0.0
H360 H 0.58173 0.59138 0.85873 0.0
H361 H 0.48464 0.53192 0.88103 0.0
C362 C 0.39875 0.50436 0.81421 0.0
C363 C 0.35827 0.49382 0.77501 0.0
C364 C 0.45463 0.52803 0.79989 0.0
C365 C 0.37378 0.50329 0.7207 0.0
C366 C 0.42923 0.52715 0.70616 0.0
C367 C 0.52633 0.57365 0.73293 0.0
C368 C 0.567 0.59384 0.77377 0.0
C369 C 0.47018 0.54152 0.74571 0.0
C370 C 0.55145 0.57524 0.82637 0.0
C371 C 0.4957 0.54235 0.83933 0.0
H372 H 0.32006 0.22358 0.27055 0.0
H373 H 0.17442 0.06236 0.26748 0.0
H374 H 0.11671 0.10548 0.26398 0.0
H375 H 0.10883 0.18975 0.26115 0.0
H376 H 0.25644 0.34927 0.26343 0.0
H377 H 0.31268 0.30557 0.26765 0.0
C378 C 0.27563 0.1974 0.2693 0.0
C379 C 0.25157 0.13963 0.26956 0.0
C380 C 0.24329 0.22227 0.26705 0.0
C381 C 0.19397 0.10684 0.2674 0.0
C382 C 0.16109 0.13154 0.26544 0.0
C383 C 0.15328 0.21489 0.26314 0.0
C384 C 0.17854 0.27286 0.26216 0.0
C385 C 0.18542 0.18931 0.26531 0.0
C386 C 0.23616 0.30477 0.26367 0.0
C387 C 0.26824 0.2798 0.2663 0.0
H388 H 0.93683 0.72203 0.27041 0.0
H389 H 0.92111 0.86739 0.26679 0.0
H390 H 1.02202 0.92517 0.26528 0.0
H391 H 0.11419 0.93309 0.26188 0.0
H392 H 0.12645 0.7858 0.26382 0.0
H393 H 0.02646 0.72958 0.26852 0.0
C394 C 0.95506 0.76641 0.26943 0.0
C395 C 0.92126 0.79035 0.26861 0.0
C396 C 1.01236 0.7988 0.26795 0.0
C397 C 0.9461 0.84792 0.26745 0.0
C398 C 1.00372 0.88085 0.26649 0.0
C399 C 0.09497 0.88875 0.264 0.0
C400 C 0.12777 0.86355 0.26255 0.0
C401 C 0.03722 0.8566 0.26638 0.0
C402 C 0.10217 0.80602 0.26433 0.0
C403 C 0.04507 0.77395 0.26725 0.0
H404 H 0.81908 0.10629 0.26618 0.0
H405 H 0.98016 0.12207 0.27282 0.0
H406 H 0.93703 0.02109 0.27189 0.0
H407 H 0.85273 0.92888 0.27287 0.0
H408 H 0.69323 0.91668 0.26733 0.0
H409 H 0.73703 1.01665 0.26473 0.0
C410 C 0.84523 0.08806 0.26741 0.0
C411 C 0.90295 0.12188 0.26993 0.0
C412 C 0.82032 0.03073 0.26733 0.0
C413 C 0.93571 0.09706 0.27098 0.0
C414 C 0.911 0.03939 0.27054 0.0
C415 C 0.82762 0.94809 0.27037 0.0
C416 C 0.76961 0.91529 0.27036 0.0
C417 C 0.85324 1.00586 0.26915 0.0
C418 C 0.73773 0.94093 0.26802 0.0
C419 C 0.76277 0.99803 0.26631 0.0
H420 H 0.23081 0.31192 0.78158 0.0
H421 H 0.06973 0.16649 0.76985 0.0
H422 H 0.1129 0.10869 0.76512 0.0
H423 H 0.19728 0.10074 0.76239 0.0
H424 H 0.35668 0.24825 0.77286 0.0
H425 H 0.31284 0.30446 0.77965 0.0
C426 C 0.20464 0.26752 0.77815 0.0
C427 C 0.1469 0.24356 0.77615 0.0
C428 C 0.22956 0.23514 0.77503 0.0
C429 C 0.11418 0.18597 0.77151 0.0
C430 C 0.13891 0.15304 0.76879 0.0
C431 C 0.22232 0.14514 0.76678 0.0
C432 C 0.28033 0.17041 0.76721 0.0
C433 C 0.19666 0.1773 0.77035 0.0
C434 C 0.31218 0.22799 0.77191 0.0
C435 C 0.28711 0.26005 0.77602 0.0
H436 H 0.11365 0.81064 0.77379 0.0
H437 H 0.1301 0.97134 0.76088 0.0
H438 H 0.02922 0.9284 0.75743 0.0
H439 H 0.93677 0.84425 0.75571 0.0
H440 H 0.92391 0.68509 0.76782 0.0
H441 H 1.02386 0.72881 0.7735 0.0
C442 C 0.0956 0.83676 0.77032 0.0
C443 C 0.1296 0.89432 0.76751 0.0
C444 C 0.0383 0.81194 0.768 0.0
C445 C 0.10497 0.92701 0.76308 0.0
C446 C 0.04735 0.90241 0.76108 0.0
C447 C 0.95586 0.81924 0.76024 0.0
C448 C 0.92284 0.7613 0.76134 0.0
C449 C 1.01363 0.84481 0.76328 0.0
C450 C 0.9483 0.72949 0.76628 0.0
C451 C 1.00541 0.75451 0.76976 0.0
H452 H 0.94062 0.10572 0.75873 0.0
H453 H 0.7932 0.11784 0.75585 0.0
H454 H 0.73677 0.01776 0.75429 0.0
H455 H 0.72905 0.92807 0.75424 0.0
H456 H 0.87444 0.91236 0.7581 0.0
H457 H 0.93239 1.01332 0.75888 0.0
C458 C 0.89616 0.08645 0.75837 0.0
C459 C 0.87109 0.11935 0.75753 0.0
C460 C 0.86384 0.02858 0.75744 0.0
C461 C 0.81345 0.0936 0.756 0.0
C462 C 0.78121 0.0364 0.7553 0.0
C463 C 0.77346 0.94631 0.75525 0.0
C464 C 0.79736 0.9125 0.75623 0.0
C465 C 0.80598 1.00367 0.75593 0.0
C466 C 0.85499 0.93735 0.75724 0.0
C467 C 0.88802 0.99501 0.75783 0.0
loop_
_geom_bond_atom_site_label_1
_geom_bond_atom_site_label_2
_geom_bond_distance
_geom_bond_site_symmetry_2
_ccdc_geom_bond_type
Co0 N5 2.057 1_545 S
Co0 O17 2.021 . S
Co0 O20 2.062 . S
Co0 O24 2.117 . S
Co0 O25 2.020 . S
C1 O21 1.259 . S
C1 O24 1.258 . S
Co2 N11 2.057 . S
Co2 O18 2.117 . S
Co2 O19 2.020 . S
Co2 O21 2.021 . S
Co2 O26 2.062 . S
C3 N5 1.316 . S
C3 N6 1.347 . S
C3 H8 0.931 . S
C4 N5 1.375 . S
C4 C7 1.350 . S
C4 H9 0.930 . S
N5 Co0 2.057 1_565 S
N5 C3 1.316 . S
N5 C4 1.375 . S
N6 C3 1.347 . S
N6 C7 1.373 . S
C7 C4 1.350 . S
C7 N6 1.373 . S
C7 H28 0.931 . S
H8 C3 0.931 . S
H9 C4 0.930 . S
C10 O17 1.259 . S
C10 O18 1.258 . S
N11 Co2 2.057 . S
N11 C12 1.316 . S
N11 C13 1.375 . S
C12 N11 1.316 . S
C12 N14 1.347 . S
C12 H23 0.931 . S
C13 N11 1.375 . S
C13 C15 1.350 . S
C13 H22 0.930 . S
N14 C12 1.347 . S
N14 C15 1.373 . S
C15 C13 1.350 . S
C15 N14 1.373 . S
C15 H29 0.931 . S
C16 O19 1.256 . S
C16 O20 1.255 . S
O17 Co0 2.021 . S
O17 C10 1.259 . S
O18 Co2 2.117 . S
O18 C10 1.258 . S
O19 Co2 2.020 . S
O19 C16 1.256 . S
O20 Co0 2.062 . S
O20 C16 1.255 . S
O21 C1 1.259 . S
O21 Co2 2.021 . S
H22 C13 0.930 . S
H23 C12 0.931 . S
O24 Co0 2.117 . S
O24 C1 1.258 . S
O25 Co0 2.020 . S
O25 C27 1.256 . S
O26 Co2 2.062 . S
O26 C27 1.255 . S
C27 O25 1.256 . S
C27 O26 1.255 . S
H28 C7 0.931 . S
H29 C15 0.931 . S
Co30 N35 2.057 . S
Co30 O47 2.021 . S
Co30 O50 2.062 . S
Co30 O54 2.117 . S
Co30 O55 2.020 . S
C31 O51 1.259 . S
C31 O54 1.258 . S
Co32 N41 2.057 . S
Co32 O48 2.117 . S
Co32 O49 2.020 . S
Co32 O51 2.021 . S
Co32 O56 2.062 . S
C33 N35 1.316 . S
C33 N36 1.347 . S
C33 H38 0.931 . S
C34 N35 1.375 . S
C34 C37 1.350 . S
C34 H39 0.930 . S
N35 Co30 2.057 . S
N35 C33 1.316 . S
N35 C34 1.375 . S
N36 C33 1.347 . S
N36 C37 1.373 . S
C37 C34 1.350 . S
C37 N36 1.373 . S
C37 H58 0.931 . S
H38 C33 0.931 . S
H39 C34 0.930 . S
C40 O47 1.259 . S
C40 O48 1.258 . S
N41 Co32 2.057 . S
N41 C42 1.316 . S
N41 C43 1.375 . S
C42 N41 1.316 . S
C42 N44 1.347 . S
C42 H53 0.931 . S
C43 N41 1.375 . S
C43 C45 1.350 . S
C43 H52 0.930 . S
N44 C42 1.347 . S
N44 C45 1.373 . S
C45 C43 1.350 . S
C45 N44 1.373 . S
C45 H59 0.931 . S
C46 O49 1.256 . S
C46 O50 1.255 . S
O47 Co30 2.021 . S
O47 C40 1.259 . S
O48 Co32 2.117 . S
O48 C40 1.258 . S
O49 Co32 2.020 . S
O49 C46 1.256 . S
O50 Co30 2.062 . S
O50 C46 1.255 . S
O51 C31 1.259 . S
O51 Co32 2.021 . S
H52 C43 0.930 . S
H53 C42 0.931 . S
O54 Co30 2.117 . S
O54 C31 1.258 . S
O55 Co30 2.020 . S
O55 C57 1.256 . S
O56 Co32 2.062 . S
O56 C57 1.255 . S
C57 O55 1.256 . S
C57 O56 1.255 . S
H58 C37 0.931 . S
H59 C45 0.931 . S
Co60 N65 2.057 1_655 S
Co60 O77 2.021 . S
Co60 O80 2.062 . S
Co60 O84 2.117 . S
Co60 O85 2.020 . S
C61 O81 1.259 . S
C61 O84 1.258 . S
Co62 N71 2.057 . S
Co62 O78 2.117 . S
Co62 O79 2.020 . S
Co62 O81 2.021 . S
Co62 O86 2.062 . S
C63 N65 1.316 . S
C63 N66 1.347 . S
C63 H68 0.931 . S
C64 N65 1.375 . S
C64 C67 1.350 . S
C64 H69 0.930 . S
N65 Co60 2.057 1_455 S
N65 C63 1.316 . S
N65 C64 1.375 . S
N66 C63 1.347 . S
N66 C67 1.373 . S
C67 C64 1.350 . S
C67 N66 1.373 . S
C67 H88 0.931 . S
H68 C63 0.931 . S
H69 C64 0.930 . S
C70 O77 1.259 . S
C70 O78 1.258 . S
N71 Co62 2.057 . S
N71 C72 1.316 . S
N71 C73 1.375 . S
C72 N71 1.316 . S
C72 N74 1.347 . S
C72 H83 0.931 . S
C73 N71 1.375 . S
C73 C75 1.350 . S
C73 H82 0.930 . S
N74 C72 1.347 . S
N74 C75 1.373 . S
C75 C73 1.350 . S
C75 N74 1.373 . S
C75 H89 0.931 . S
C76 O79 1.256 . S
C76 O80 1.255 . S
O77 Co60 2.021 . S
O77 C70 1.259 . S
O78 Co62 2.117 . S
O78 C70 1.258 . S
O79 Co62 2.020 . S
O79 C76 1.256 . S
O80 Co60 2.062 . S
O80 C76 1.255 . S
O81 C61 1.259 . S
O81 Co62 2.021 . S
H82 C73 0.930 . S
H83 C72 0.931 . S
O84 Co60 2.117 . S
O84 C61 1.258 . S
O85 Co60 2.020 . S
O85 C87 1.256 . S
O86 Co62 2.062 . S
O86 C87 1.255 . S
C87 O85 1.256 . S
C87 O86 1.255 . S
H88 C67 0.931 . S
H89 C75 0.931 . S
Co90 N95 2.057 . S
Co90 O107 2.021 . S
Co90 O110 2.062 . S
Co90 O114 2.117 . S
Co90 O115 2.020 . S
C91 O111 1.259 . S
C91 O114 1.258 . S
Co92 N101 2.057 1_455 S
Co92 O108 2.117 . S
Co92 O109 2.020 . S
Co92 O111 2.021 . S
Co92 O116 2.062 . S
C93 N95 1.316 . S
C93 N96 1.347 . S
C93 H98 0.931 . S
C94 N95 1.375 . S
C94 C97 1.350 . S
C94 H99 0.930 . S
N95 Co90 2.057 . S
N95 C93 1.316 . S
N95 C94 1.375 . S
N96 C93 1.347 . S
N96 C97 1.373 . S
C97 C94 1.350 . S
C97 N96 1.373 . S
C97 H118 0.931 . S
H98 C93 0.931 . S
H99 C94 0.930 . S
C100 O107 1.259 . S
C100 O108 1.258 . S
N101 Co92 2.057 1_655 S
N101 C102 1.316 . S
N101 C103 1.375 . S
C102 N101 1.316 . S
C102 N104 1.347 . S
C102 H113 0.931 . S
C103 N101 1.375 . S
C103 C105 1.350 . S
C103 H112 0.930 . S
N104 C102 1.347 . S
N104 C105 1.373 . S
C105 C103 1.350 . S
C105 N104 1.373 . S
C105 H119 0.931 . S
C106 O109 1.256 . S
C106 O110 1.255 . S
O107 Co90 2.021 . S
O107 C100 1.259 . S
O108 Co92 2.117 . S
O108 C100 1.258 . S
O109 Co92 2.020 . S
O109 C106 1.256 . S
O110 Co90 2.062 . S
O110 C106 1.255 . S
O111 C91 1.259 . S
O111 Co92 2.021 . S
H112 C103 0.930 . S
H113 C102 0.931 . S
O114 Co90 2.117 . S
O114 C91 1.258 . S
O115 Co90 2.020 . S
O115 C117 1.256 . S
O116 Co92 2.062 . S
O116 C117 1.255 . S
C117 O115 1.256 . S
C117 O116 1.255 . S
H118 C97 0.931 . S
H119 C105 0.931 . S
Co120 N125 2.057 . S
Co120 O137 2.021 . S
Co120 O140 2.062 . S
Co120 O144 2.117 . S
Co120 O145 2.020 . S
C121 O141 1.259 . S
C121 O144 1.258 . S
Co122 N131 2.057 1_565 S
Co122 O138 2.117 . S
Co122 O139 2.020 . S
Co122 O141 2.021 . S
Co122 O146 2.062 . S
C123 N125 1.316 . S
C123 N126 1.347 . S
C123 H128 0.931 . S
C124 N125 1.375 . S
C124 C127 1.350 . S
C124 H129 0.930 . S
N125 Co120 2.057 . S
N125 C123 1.316 . S
N125 C124 1.375 . S
N126 C123 1.347 . S
N126 C127 1.373 . S
C127 C124 1.350 . S
C127 N126 1.373 . S
C127 H148 0.931 . S
H128 C123 0.931 . S
H129 C124 0.930 . S
C130 O137 1.259 . S
C130 O138 1.258 . S
N131 Co122 2.057 1_545 S
N131 C132 1.316 . S
N131 C133 1.375 . S
C132 N131 1.316 . S
C132 N134 1.347 . S
C132 H143 0.931 . S
C133 N131 1.375 . S
C133 C135 1.350 . S
C133 H142 0.930 . S
N134 C132 1.347 . S
N134 C135 1.373 . S
C135 C133 1.350 . S
C135 N134 1.373 . S
C135 H149 0.931 . S
C136 O139 1.256 . S
C136 O140 1.255 . S
O137 Co120 2.021 . S
O137 C130 1.259 . S
O138 Co122 2.117 . S
O138 C130 1.258 . S
O139 Co122 2.020 . S
O139 C136 1.256 . S
O140 Co120 2.062 . S
O140 C136 1.255 . S
O141 C121 1.259 . S
O141 Co122 2.021 . S
H142 C133 0.930 . S
H143 C132 0.931 . S
O144 Co120 2.117 . S
O144 C121 1.258 . S
O145 Co120 2.020 . S
O145 C147 1.256 . S
O146 Co122 2.062 . S
O146 C147 1.255 . S
C147 O145 1.256 . S
C147 O146 1.255 . S
H148 C127 0.931 . S
H149 C135 0.931 . S
Co150 N155 2.057 . S
Co150 O167 2.021 . S
Co150 O170 2.062 . S
Co150 O174 2.117 . S
Co150 O175 2.020 . S
C151 O171 1.259 . S
C151 O174 1.258 . S
Co152 N161 2.057 . S
Co152 O168 2.117 . S
Co152 O169 2.020 . S
Co152 O171 2.021 . S
Co152 O176 2.062 . S
C153 N155 1.316 . S
C153 N156 1.347 . S
C153 H158 0.931 . S
C154 N155 1.375 . S
C154 C157 1.350 . S
C154 H159 0.930 . S
N155 Co150 2.057 . S
N155 C153 1.316 . S
N155 C154 1.375 . S
N156 C153 1.347 . S
N156 C157 1.373 . S
C157 C154 1.350 . S
C157 N156 1.373 . S
C157 H178 0.931 . S
H158 C153 0.931 . S
H159 C154 0.930 . S
C160 O167 1.259 . S
C160 O168 1.258 . S
N161 Co152 2.057 . S
N161 C162 1.316 . S
N161 C163 1.375 . S
C162 N161 1.316 . S
C162 N164 1.347 . S
C162 H173 0.931 . S
C163 N161 1.375 . S
C163 C165 1.350 . S
C163 H172 0.930 . S
N164 C162 1.347 . S
N164 C165 1.373 . S
C165 C163 1.350 . S
C165 N164 1.373 . S
C165 H179 0.931 . S
C166 O169 1.256 . S
C166 O170 1.255 . S
O167 Co150 2.021 . S
O167 C160 1.259 . S
O168 Co152 2.117 . S
O168 C160 1.258 . S
O169 Co152 2.020 . S
O169 C166 1.256 . S
O170 Co150 2.062 . S
O170 C166 1.255 . S
O171 C151 1.259 . S
O171 Co152 2.021 . S
H172 C163 0.930 . S
H173 C162 0.931 . S
O174 Co150 2.117 . S
O174 C151 1.258 . S
O175 Co150 2.020 . S
O175 C177 1.256 . S
O176 Co152 2.062 . S
O176 C177 1.255 . S
C177 O175 1.256 . S
C177 O176 1.255 . S
H178 C157 0.931 . S
H179 C165 0.931 . S
H180 C186 0.930 1_545 S
H181 C189 0.930 . S
H182 C190 0.930 . S
H183 C191 0.930 1_565 S
H184 C194 0.930 . S
H185 C195 0.930 . S
C186 H180 0.930 1_565 S
C186 C187 1.355 . S
C186 C188 1.415 1_565 S
C187 C186 1.355 . S
C187 C189 1.419 . S
C188 C186 1.415 1_545 S
C188 C193 1.425 1_546 S
C188 C195 1.409 . S
C189 H181 0.930 . S
C189 C187 1.419 . S
C189 C190 1.362 1_556 S
C190 H182 0.930 . S
C190 C189 1.362 1_554 S
C190 C193 1.409 . S
C191 H183 0.930 1_545 S
C191 C192 1.355 . S
C191 C193 1.415 1_545 S
C192 C191 1.355 . S
C192 C194 1.419 . S
C193 C188 1.425 1_564 S
C193 C190 1.409 . S
C193 C191 1.415 1_565 S
C194 H184 0.930 . S
C194 C192 1.419 . S
C194 C195 1.362 1_554 S
C195 H185 0.930 . S
C195 C188 1.409 . S
C195 C194 1.362 1_556 S
H196 C202 0.930 . S
H197 C205 0.930 . S
H198 C206 0.930 . S
H199 C207 0.930 . S
H200 C210 0.930 . S
H201 C211 0.930 . S
C202 H196 0.930 . S
C202 C203 1.355 . S
C202 C204 1.415 . S
C203 C202 1.355 . S
C203 C205 1.419 . S
C204 C202 1.415 . S
C204 C209 1.425 . S
C204 C211 1.409 . S
C205 H197 0.930 . S
C205 C203 1.419 . S
C205 C206 1.362 . S
C206 H198 0.930 . S
C206 C205 1.362 . S
C206 C209 1.409 . S
C207 H199 0.930 . S
C207 C208 1.355 . S
C207 C209 1.415 . S
C208 C207 1.355 . S
C208 C210 1.419 . S
C209 C204 1.425 . S
C209 C206 1.409 . S
C209 C207 1.415 . S
C210 H200 0.930 . S
C210 C208 1.419 . S
C210 C211 1.362 . S
C211 H201 0.930 . S
C211 C204 1.409 . S
C211 C210 1.362 . S
H212 C218 0.930 . S
H213 C221 0.930 . S
H214 C222 0.930 . S
H215 C223 0.930 . S
H216 C226 0.928 1_655 S
H217 C227 0.930 . S
C218 H212 0.930 . S
C218 C219 1.355 . S
C218 C220 1.415 1_554 S
C219 C218 1.355 . S
C219 C221 1.419 . S
C220 C218 1.415 1_556 S
C220 C225 1.425 1_656 S
C220 C227 1.409 . S
C221 H213 0.930 . S
C221 C219 1.419 . S
C221 C222 1.362 1_655 S
C222 H214 0.930 . S
C222 C221 1.362 1_455 S
C222 C225 1.409 . S
C223 H215 0.930 . S
C223 C224 1.355 . S
C223 C225 1.415 1_556 S
C224 C223 1.355 . S
C224 C226 1.419 . S
C225 C220 1.425 1_454 S
C225 C222 1.409 . S
C225 C223 1.415 1_554 S
C226 H216 0.928 1_455 S
C226 C224 1.419 . S
C226 C227 1.362 1_455 S
C227 H217 0.930 . S
C227 C220 1.409 . S
C227 C226 1.362 1_655 S
H228 C234 0.930 . S
H229 C237 0.930 . S
H230 C238 0.930 . S
H231 C239 0.930 . S
H232 C242 0.930 . S
H233 C243 0.930 . S
C234 H228 0.930 . S
C234 C235 1.355 . S
C234 C236 1.415 1_545 S
C235 C234 1.355 . S
C235 C237 1.419 . S
C236 C234 1.415 1_565 S
C236 C241 1.420 1_565 S
C236 C243 1.409 . S
C237 H229 0.930 . S
C237 C235 1.419 . S
C237 C238 1.362 . S
C238 H230 0.930 . S
C238 C237 1.362 . S
C238 C241 1.419 . S
C239 H231 0.930 . S
C239 C240 1.355 . S
C239 C241 1.410 1_565 S
C240 C239 1.355 . S
C240 C242 1.419 . S
C241 C236 1.420 1_545 S
C241 C238 1.419 . S
C241 C239 1.410 1_545 S
C242 H232 0.930 . S
C242 C240 1.419 . S
C242 C243 1.362 . S
C243 H233 0.930 . S
C243 C236 1.409 . S
C243 C242 1.362 . S
H244 C250 0.930 . S
H245 C253 0.930 . S
H246 C254 0.930 . S
H247 C255 0.930 . S
H248 C258 0.930 . S
H249 C259 0.930 . S
C250 H244 0.930 . S
C250 C251 1.355 . S
C250 C252 1.415 . S
C251 C250 1.355 . S
C251 C253 1.419 . S
C252 C250 1.415 . S
C252 C257 1.425 1_556 S
C252 C259 1.409 1_556 S
C253 H245 0.930 . S
C253 C251 1.419 . S
C253 C254 1.362 . S
C254 H246 0.930 . S
C254 C253 1.362 . S
C254 C257 1.409 1_556 S
C255 H247 0.930 . S
C255 C256 1.355 . S
C255 C257 1.415 . S
C256 C255 1.355 . S
C256 C258 1.419 . S
C257 C252 1.425 1_554 S
C257 C254 1.409 1_554 S
C257 C255 1.415 . S
C258 H248 0.930 . S
C258 C256 1.419 . S
C258 C259 1.362 . S
C259 H249 0.930 . S
C259 C252 1.409 1_554 S
C259 C258 1.362 . S
H260 C266 0.930 . S
H261 C269 0.930 . S
H262 C270 0.930 . S
H263 C271 0.930 . S
H264 C274 0.930 . S
H265 C275 0.930 . S
C266 H260 0.930 . S
C266 C267 1.355 . S
C266 C268 1.415 . S
C267 C266 1.355 . S
C267 C269 1.419 . S
C268 C266 1.415 . S
C268 C273 1.425 1_655 S
C268 C275 1.409 . S
C269 H261 0.930 . S
C269 C267 1.419 . S
C269 C270 1.362 1_655 S
C270 H262 0.930 . S
C270 C269 1.362 1_455 S
C270 C273 1.409 . S
C271 H263 0.930 . S
C271 C272 1.355 . S
C271 C273 1.415 . S
C272 C271 1.355 . S
C272 C274 1.419 . S
C273 C268 1.425 1_455 S
C273 C270 1.409 . S
C273 C271 1.415 . S
C274 H264 0.930 . S
C274 C272 1.419 . S
C274 C275 1.362 1_455 S
C275 H265 0.930 . S
C275 C268 1.409 . S
C275 C274 1.362 1_655 S
H276 C282 0.930 . S
H277 C285 0.930 . S
H278 C286 0.930 . S
H279 C287 0.930 . S
H280 C290 0.930 . S
H281 C291 0.930 . S
C282 H276 0.930 . S
C282 C283 1.355 . S
C282 C284 1.415 . S
C283 C282 1.355 . S
C283 C285 1.419 . S
C284 C282 1.415 . S
C284 C289 1.425 . S
C284 C291 1.409 . S
C285 H277 0.930 . S
C285 C283 1.419 . S
C285 C286 1.362 . S
C286 H278 0.930 . S
C286 C285 1.362 . S
C286 C289 1.409 . S
C287 H279 0.930 . S
C287 C288 1.355 . S
C287 C289 1.415 . S
C288 C287 1.355 . S
C288 C290 1.419 . S
C289 C284 1.425 . S
C289 C286 1.409 . S
C289 C287 1.415 . S
C290 H280 0.930 . S
C290 C288 1.419 . S
C290 C291 1.362 . S
C291 H281 0.930 . S
C291 C284 1.409 . S
C291 C290 1.362 . S
H292 C298 0.930 . S
H293 C301 0.930 . S
H294 C302 0.930 . S
H295 C303 0.930 . S
H296 C306 0.930 . S
H297 C307 0.930 . S
C298 H292 0.930 . S
C298 C299 1.355 . S
C298 C300 1.415 . S
C299 C298 1.355 . S
C299 C301 1.419 . S
C300 C298 1.415 . S
C300 C305 1.425 . S
C300 C307 1.409 . S
C301 H293 0.930 . S
C301 C299 1.419 . S
C301 C302 1.362 . S
C302 H294 0.930 . S
C302 C301 1.362 . S
C302 C305 1.409 . S
C303 H295 0.930 . S
C303 C304 1.355 . S
C303 C305 1.415 . S
C304 C303 1.355 . S
C304 C306 1.419 . S
C305 C300 1.425 . S
C305 C302 1.409 . S
C305 C303 1.415 . S
C306 H296 0.930 . S
C306 C304 1.419 . S
C306 C307 1.362 . S
C307 H297 0.930 . S
C307 C300 1.409 . S
C307 C306 1.362 . S
H308 C314 0.930 . S
H309 C317 0.930 . S
H310 C318 0.930 . S
H311 C319 0.930 . S
H312 C322 0.930 . S
H313 C323 0.930 . S
C314 H308 0.930 . S
C314 C315 1.355 . S
C314 C316 1.415 . S
C315 C314 1.355 . S
C315 C317 1.419 . S
C316 C314 1.415 . S
C316 C321 1.425 . S
C316 C323 1.409 . S
C317 H309 0.930 . S
C317 C315 1.419 . S
C317 C318 1.362 . S
C318 H310 0.930 . S
C318 C317 1.362 . S
C318 C321 1.409 . S
C319 H311 0.930 . S
C319 C320 1.355 . S
C319 C321 1.415 . S
C320 C319 1.355 . S
C320 C322 1.419 . S
C321 C316 1.425 . S
C321 C318 1.409 . S
C321 C319 1.415 . S
C322 H312 0.930 . S
C322 C320 1.419 . S
C322 C323 1.362 . S
C323 H313 0.930 . S
C323 C316 1.409 . S
C323 C322 1.362 . S
H324 C330 0.930 . S
H325 C333 0.930 . S
H326 C334 0.930 . S
H327 C335 0.930 . S
H328 C338 0.930 . S
H329 C339 0.930 . S
C330 H324 0.930 . S
C330 C331 1.355 . S
C330 C332 1.415 . S
C331 C330 1.355 . S
C331 C333 1.419 . S
C332 C330 1.415 . S
C332 C337 1.425 . S
C332 C339 1.409 . S
C333 H325 0.930 . S
C333 C331 1.419 . S
C333 C334 1.362 . S
C334 H326 0.930 . S
C334 C333 1.362 . S
C334 C337 1.409 . S
C335 H327 0.930 . S
C335 C336 1.355 . S
C335 C337 1.415 . S
C336 C335 1.355 . S
C336 C338 1.419 . S
C337 C332 1.425 . S
C337 C334 1.409 . S
C337 C335 1.415 . S
C338 H328 0.930 . S
C338 C336 1.419 . S
C338 C339 1.362 . S
C339 H329 0.930 . S
C339 C332 1.409 . S
C339 C338 1.362 . S
H340 C346 0.930 . S
H341 C349 0.930 . S
H342 C350 0.930 . S
H343 C351 0.930 . S
H344 C354 0.930 . S
H345 C355 0.930 . S
C346 H340 0.930 . S
C346 C347 1.355 . S
C346 C348 1.415 . S
C347 C346 1.355 . S
C347 C349 1.419 . S
C348 C346 1.415 . S
C348 C353 1.425 . S
C348 C355 1.409 . S
C349 H341 0.930 . S
C349 C347 1.419 . S
C349 C350 1.362 . S
C350 H342 0.930 . S
C350 C349 1.362 . S
C350 C353 1.409 . S
C351 H343 0.930 . S
C351 C352 1.355 . S
C351 C353 1.415 . S
C352 C351 1.355 . S
C352 C354 1.419 . S
C353 C348 1.425 . S
C353 C350 1.409 . S
C353 C351 1.415 . S
C354 H344 0.930 . S
C354 C352 1.419 . S
C354 C355 1.362 . S
C355 H345 0.930 . S
C355 C348 1.409 . S
C355 C354 1.362 . S
H356 C362 0.930 . S
H357 C365 0.930 . S
H358 C366 0.930 . S
H359 C367 0.930 . S
H360 C370 0.930 . S
H361 C371 0.930 . S
C362 H356 0.930 . S
C362 C363 1.355 . S
C362 C364 1.415 . S
C363 C362 1.355 . S
C363 C365 1.419 . S
C364 C362 1.415 . S
C364 C369 1.425 . S
C364 C371 1.409 . S
C365 H357 0.930 . S
C365 C363 1.419 . S
C365 C366 1.362 . S
C366 H358 0.930 . S
C366 C365 1.362 . S
C366 C369 1.409 . S
C367 H359 0.930 . S
C367 C368 1.355 . S
C367 C369 1.415 . S
C368 C367 1.355 . S
C368 C370 1.419 . S
C369 C364 1.425 . S
C369 C366 1.409 . S
C369 C367 1.415 . S
C370 H360 0.930 . S
C370 C368 1.419 . S
C370 C371 1.362 . S
C371 H361 0.930 . S
C371 C364 1.409 . S
C371 C370 1.362 . S
H372 C378 0.930 . S
H373 C381 0.930 . S
H374 C382 0.930 . S
H375 C383 0.930 . S
H376 C386 0.930 . S
H377 C387 0.930 . S
C378 H372 0.930 . S
C378 C379 1.355 . S
C378 C380 1.415 . S
C379 C378 1.355 . S
C379 C381 1.419 . S
C380 C378 1.415 . S
C380 C385 1.425 . S
C380 C387 1.409 . S
C381 H373 0.930 . S
C381 C379 1.419 . S
C381 C382 1.362 . S
C382 H374 0.930 . S
C382 C381 1.362 . S
C382 C385 1.409 . S
C383 H375 0.930 . S
C383 C384 1.355 . S
C383 C385 1.415 . S
C384 C383 1.355 . S
C384 C386 1.419 . S
C385 C380 1.425 . S
C385 C382 1.409 . S
C385 C383 1.415 . S
C386 H376 0.930 . S
C386 C384 1.419 . S
C386 C387 1.362 . S
C387 H377 0.930 . S
C387 C380 1.409 . S
C387 C386 1.362 . S
H388 C394 0.930 . S
H389 C397 0.930 . S
H390 C398 0.930 1_455 S
H391 C399 0.930 . S
H392 C402 0.930 . S
H393 C403 0.930 . S
C394 H388 0.930 . S
C394 C395 1.355 . S
C394 C396 1.415 1_655 S
C395 C394 1.355 . S
C395 C397 1.419 . S
C396 C394 1.415 1_455 S
C396 C401 1.425 . S
C396 C403 1.409 . S
C397 H389 0.930 . S
C397 C395 1.419 . S
C397 C398 1.362 . S
C398 H390 0.930 1_655 S
C398 C397 1.362 . S
C398 C401 1.409 1_655 S
C399 H391 0.930 . S
C399 C400 1.355 . S
C399 C401 1.415 . S
C400 C399 1.355 . S
C400 C402 1.419 . S
C401 C396 1.425 . S
C401 C398 1.409 1_455 S
C401 C399 1.415 . S
C402 H392 0.930 . S
C402 C400 1.419 . S
C402 C403 1.362 . S
C403 H393 0.930 . S
C403 C396 1.409 . S
C403 C402 1.362 . S
H404 C410 0.930 . S
H405 C413 0.930 . S
H406 C414 0.930 1_565 S
H407 C415 0.930 . S
H408 C418 0.930 . S
H409 C419 0.930 . S
C410 H404 0.930 . S
C410 C411 1.355 . S
C410 C412 1.415 1_545 S
C411 C410 1.355 . S
C411 C413 1.419 . S
C412 C410 1.415 1_565 S
C412 C417 1.425 . S
C412 C419 1.409 . S
C413 H405 0.930 . S
C413 C411 1.419 . S
C413 C414 1.362 . S
C414 H406 0.930 1_545 S
C414 C413 1.362 . S
C414 C417 1.409 1_545 S
C415 H407 0.930 . S
C415 C416 1.355 . S
C415 C417 1.415 . S
C416 C415 1.355 . S
C416 C418 1.419 . S
C417 C412 1.425 . S
C417 C414 1.409 1_565 S
C417 C415 1.415 . S
C418 H408 0.930 . S
C418 C416 1.419 . S
C418 C419 1.362 . S
C419 H409 0.930 . S
C419 C412 1.409 . S
C419 C418 1.362 . S
H420 C426 0.930 . S
H421 C429 0.930 . S
H422 C430 0.930 . S
H423 C431 0.930 . S
H424 C434 0.930 . S
H425 C435 0.930 . S
C426 H420 0.930 . S
C426 C427 1.355 . S
C426 C428 1.415 . S
C427 C426 1.355 . S
C427 C429 1.419 . S
C428 C426 1.415 . S
C428 C433 1.425 . S
C428 C435 1.409 . S
C429 H421 0.930 . S
C429 C427 1.419 . S
C429 C430 1.362 . S
C430 H422 0.930 . S
C430 C429 1.362 . S
C430 C433 1.409 . S
C431 H423 0.930 . S
C431 C432 1.355 . S
C431 C433 1.415 . S
C432 C431 1.355 . S
C432 C434 1.419 . S
C433 C428 1.425 . S
C433 C430 1.409 . S
C433 C431 1.415 . S
C434 H424 0.930 . S
C434 C432 1.419 . S
C434 C435 1.362 . S
C435 H425 0.930 . S
C435 C428 1.409 . S
C435 C434 1.362 . S
H436 C442 0.930 . S
H437 C445 0.930 . S
H438 C446 0.929 . S
H439 C447 0.930 . S
H440 C450 0.930 . S
H441 C451 0.930 . S
C442 H436 0.930 . S
C442 C443 1.355 . S
C442 C444 1.415 1_455 S
C443 C442 1.355 . S
C443 C445 1.419 . S
C444 C442 1.415 1_655 S
C444 C449 1.425 . S
C444 C451 1.409 . S
C445 H437 0.930 . S
C445 C443 1.419 . S
C445 C446 1.362 . S
C446 H438 0.929 . S
C446 C445 1.362 . S
C446 C449 1.409 1_455 S
C447 H439 0.930 . S
C447 C448 1.355 . S
C447 C449 1.415 . S
C448 C447 1.355 . S
C448 C450 1.419 . S
C449 C444 1.425 . S
C449 C446 1.409 1_655 S
C449 C447 1.415 . S
C450 H440 0.930 . S
C450 C448 1.419 . S
C450 C451 1.362 . S
C451 H441 0.930 . S
C451 C444 1.409 . S
C451 C450 1.362 . S
H452 C458 0.930 . S
H453 C461 0.930 . S
H454 C462 0.930 . S
H455 C463 0.930 . S
H456 C466 0.930 . S
H457 C467 0.930 1_545 S
C458 H452 0.930 . S
C458 C459 1.355 . S
C458 C460 1.415 . S
C459 C458 1.355 . S
C459 C461 1.419 . S
C460 C458 1.415 . S
C460 C465 1.425 . S
C460 C467 1.409 1_545 S
C461 H453 0.930 . S
C461 C459 1.419 . S
C461 C462 1.362 . S
C462 H454 0.930 . S
C462 C461 1.362 . S
C462 C465 1.409 . S
C463 H455 0.930 . S
C463 C464 1.355 . S
C463 C465 1.415 1_565 S
C464 C463 1.355 . S
C464 C466 1.419 . S
C465 C460 1.425 . S
C465 C462 1.409 . S
C465 C463 1.415 1_545 S
C466 H456 0.930 . S
C466 C464 1.419 . S
C466 C467 1.362 . S
C467 H457 0.930 1_565 S
C467 C460 1.409 1_565 S
C467 C466 1.362 . S
C187 C121 2.017 . S
C192 C1 2.089 . S
C203 C160 2.162 . S
C208 C40 2.165 . S
C219 C61 2.148 . S
C224 C91 2.052 . S
C235 C10 2.123 . S
C240 C130 2.209 . S
C251 C151 2.029 . S
C256 C31 2.034 . S
C267 C70 1.996 . S
C272 C100 2.088 . S
C283 C27 1.244 . S
C288 N74 1.268 . S
C299 C46 1.301 . S
C304 N14 1.324 . S
C315 C87 1.308 . S
C320 N36 1.326 . S
C331 C106 1.328 . S
C336 N126 1.305 . S
C347 C136 1.236 . S
C352 N156 1.257 . S
C363 N96 1.305 . S
C368 C166 1.324 . S
C379 C16 1.020 . S
C384 N66 1.022 . S
C395 C57 1.085 . S
C400 N6 1.074 . S
C411 C76 1.059 . S
C416 N44 0.997 . S
C427 C117 1.002 . S
C432 N134 0.946 . S
C443 C147 1.061 . S
C448 N164 1.002 . S
C459 N104 0.996 . S
C464 C177 1.057 . S
