# Generated by pormake.
# Topology sxc, (6)-cn, num edge types: 1
# Building blocks:
#     Node 0, Type 0, BuildingBlock: PAMTUU_clean_sbu_0, # of connection points: 6
#     Node 1, Type 0, BuildingBlock: PAMTUU_clean_sbu_0, # of connection points: 6
#     Node 2, Type 0, BuildingBlock: PAMTUU_clean_sbu_0, # of connection points: 6
#     Edge 3, Type (0, 0), BuildingBlock: MIFKUJ_clean_linker_0, # of connection points: 2
#     Edge 4, Type (0, 0), BuildingBlock: MIFKUJ_clean_linker_0, # of connection points: 2
#     Edge 5, Type (0, 0), BuildingBlock: MIFKUJ_clean_linker_0, # of connection points: 2
#     Edge 6, Type (0, 0), BuildingBlock: MIFKUJ_clean_linker_0, # of connection points: 2
#     Edge 7, Type (0, 0), BuildingBlock: MIFKUJ_clean_linker_0, # of connection points: 2
#     Edge 8, Type (0, 0), BuildingBlock: MIFKUJ_clean_linker_0, # of connection points: 2
#     Edge 9, Type (0, 0), BuildingBlock: MIFKUJ_clean_linker_0, # of connection points: 2
#     Edge 10, Type (0, 0), BuildingBlock: MIFKUJ_clean_linker_0, # of connection points: 2
#     Edge 11, Type (0, 0), BuildingBlock: MIFKUJ_clean_linker_0, # of connection points: 2
# Relax obj value: 0.224
# Max RMSD: 0.108
# Mean RMSD: 0.085
data_MOF--net-sxc--node1-PAMTUU_clean_sbu_0--edge1-MIFKUJ_clean_linker_0
_symmetry_space_group_name_H-M    P1
_symmetry_Int_Tables_number       1
_symmetry_cell_setting            triclinic
loop_
_symmetry_equiv_pos_as_xyz
'x, y, z'
_cell_length_a     27.663596
_cell_length_b     20.491763
_cell_length_c     59.780566
_cell_angle_alpha  85.809735
_cell_angle_beta   97.67439
_cell_angle_gamma 127.42511
loop_
_atom_site_label
_atom_site_type_symbol
_atom_site_fract_x
_atom_site_fract_y
_atom_site_fract_z
_atom_type_partial_charge
Tb0 Tb 1.02032 1.07275 0.96213 0.0
Tb1 Tb 0.1663 0.19025 0.97267 0.0
C2 C 0.10274 0.1434 0.92187 0.0
C3 C 0.87251 0.95883 0.98087 0.0
C4 C 0.83399 0.93 0.02424 0.0
C5 C 0.85352 1.00357 0.01309 0.0
C6 C 0.87298 1.01814 -0.00835 0.0
C7 C 0.84975 0.8835 -0.00838 0.0
C8 C 0.8312 0.86953 0.01315 0.0
C9 C 0.90593 0.98035 0.96095 0.0
O10 O 1.04472 0.99189 0.95536 0.0
O11 O 0.13883 1.06352 0.97584 0.0
O12 O 0.13269 0.19022 0.0037 0.0
O13 O 1.0399 1.06574 -0.00159 0.0
O14 O 0.25526 0.29843 0.96954 0.0
O15 O 0.24025 0.20028 -0.00872 0.0
O16 O 0.1466 0.28009 0.96611 0.0
O17 O 1.04321 0.19458 0.96855 0.0
O18 O 1.04987 0.11543 0.92864 0.0
O19 O 0.15085 0.16517 0.93632 0.0
C20 C 0.09171 0.99528 0.96535 0.0
O21 O 0.93704 1.05663 0.9545 0.0
O22 O 0.93796 0.95307 0.96142 0.0
C23 C 0.08321 0.12703 0.01175 0.0
C24 C 0.31485 0.3328 0.00526 0.0
C25 C 0.37559 0.4263 0.0454 0.0
C26 C 0.38834 0.37449 0.03855 0.0
C27 C 0.35841 0.32846 0.01863 0.0
C28 C 0.30107 0.38337 0.01222 0.0
C29 C 0.33173 0.43046 0.03203 0.0
C30 C 0.27919 0.27669 -0.0142 0.0
C31 C 0.09481 0.26947 0.96714 0.0
H32 H 0.85532 1.05067 0.02122 0.0
H33 H 0.89061 1.07715 -0.01604 0.0
H34 H 0.84893 0.83672 -0.01619 0.0
H35 H 0.81467 0.8113 0.02116 0.0
H36 H 0.42264 0.37109 0.04831 0.0
H37 H 0.36877 0.28861 0.01377 0.0
H38 H 0.26634 0.38598 0.00248 0.0
H39 H 0.32119 0.47006 0.03692 0.0
Tb40 Tb 0.12587 0.16097 0.30024 0.0
Tb41 Tb 0.97857 1.03887 0.2964 0.0
C42 C 1.05704 0.0981 0.34322 0.0
C43 C 0.28321 0.22898 0.31276 0.0
C44 C 0.35822 0.18303 0.33036 0.0
C45 C 0.36216 0.24562 0.34085 0.0
C46 C 0.32505 0.26852 0.33207 0.0
C47 C 0.2796 0.16687 0.30219 0.0
C48 C 0.3169 0.14456 0.31082 0.0
C49 C 0.24095 0.24894 0.30461 0.0
O50 O 0.1049 1.04006 0.29491 0.0
O51 O 1.00418 0.95488 0.30166 0.0
O52 O 1.00109 1.04079 0.26257 0.0
O53 O 0.09422 0.16696 0.26524 0.0
O54 O 0.90073 0.93344 0.30866 0.0
O55 O 0.89213 1.00116 0.28103 0.0
O56 O 0.99923 0.16198 0.29351 0.0
O57 O 0.10364 0.24667 0.3033 0.0
O58 O 0.10061 0.10716 0.33355 0.0
O59 O 1.01026 0.08813 0.33077 0.0
C60 C 1.05487 0.96569 0.29831 0.0
O61 O 0.20684 0.21433 0.28562 0.0
O62 O 0.20967 0.24604 0.31967 0.0
C63 C 1.04699 0.10489 0.25296 0.0
C64 C 0.82126 0.94523 0.30766 0.0
C65 C 0.74232 0.95758 0.32899 0.0
C66 C 0.72469 0.92352 0.30712 0.0
C67 C 0.76385 0.91727 0.29658 0.0
C68 C 0.83857 0.97768 0.32965 0.0
C69 C 0.7993 0.98332 0.34027 0.0
C70 C 0.86378 0.94359 0.29588 0.0
C71 C 1.0512 0.23605 0.29841 0.0
H72 H 0.39319 0.27606 0.35602 0.0
H73 H 0.32827 0.31614 0.34058 0.0
H74 H 0.24761 0.13475 0.28733 0.0
H75 H 0.31361 0.09748 0.30198 0.0
H76 H 0.68164 0.90456 0.29778 0.0
H77 H 0.74995 0.89249 0.27956 0.0
H78 H 0.88286 0.9999 0.33852 0.0
H79 H 0.81399 1.00906 0.35718 0.0
Tb80 Tb 0.09736 0.21813 0.6302 0.0
Tb81 Tb 0.12479 0.09411 0.63736 0.0
C82 C 0.09641 0.13586 0.5879 0.0
C83 C 1.02179 0.31659 0.62369 0.0
C84 C 0.90925 0.28743 0.6257 0.0
C85 C 0.91229 0.23563 0.6128 0.0
C86 C 0.96796 0.24971 0.61193 0.0
C87 C 1.01956 0.37082 0.63565 0.0
C88 C 0.96364 0.3564 0.63667 0.0
C89 C 0.0786 0.3247 0.62557 0.0
O90 O 0.99684 0.10132 0.63005 0.0
O91 O 1.01757 1.00918 0.63602 0.0
O92 O 0.15387 0.15608 0.66994 0.0
O93 O 0.08435 0.18068 0.6654 0.0
O94 O 0.14504 1.02049 0.62531 0.0
O95 O 0.1227 1.00768 0.65928 0.0
O96 O 0.22524 0.2109 0.63734 0.0
O97 O 0.20447 0.3028 0.631 0.0
O98 O 0.07165 0.16445 0.59659 0.0
O99 O 0.12714 0.11568 0.60105 0.0
C100 C 0.97458 1.02215 0.63304 0.0
O101 O 0.09291 0.30409 0.64499 0.0
O102 O 0.08535 0.29443 0.6089 0.0
C103 C 0.12089 0.17108 0.67883 0.0
C104 C 0.20123 0.99964 0.65328 0.0
C105 C 0.31879 1.03964 0.66157 0.0
C106 C 0.30527 1.08569 0.67175 0.0
C107 C 0.24705 1.06617 0.66752 0.0
C108 C 0.21333 0.95043 0.64426 0.0
C109 C 0.27173 0.97024 0.64836 0.0
C110 C 0.14463 0.98923 0.64508 0.0
C111 C 0.2475 0.28994 0.63413 0.0
H112 H 0.87131 0.18279 0.60387 0.0
H113 H 0.96846 0.20661 0.60268 0.0
H114 H 1.06062 0.4223 0.64498 0.0
H115 H 0.96262 0.39692 0.64692 0.0
H116 H 0.34039 0.13882 0.68223 0.0
H117 H 0.23877 0.10549 0.6745 0.0
H118 H 0.17864 0.89953 0.63301 0.0
H119 H 0.2809 0.9342 0.64003 0.0
H120 H 0.19323 0.43599 0.97137 0.0
H121 H 0.19264 0.55536 0.97106 0.0
H122 H 0.99547 0.39472 0.96199 0.0
H123 H 0.99583 0.27505 0.96242 0.0
H124 H 1.03624 0.52731 0.9351 0.0
H125 H 0.08182 0.49486 0.01376 0.0
H126 H 0.13974 0.48225 0.04663 0.0
H127 H 0.30326 0.71921 0.03281 0.0
H128 H 0.24647 0.73276 -0.00034 0.0
H129 H 0.99509 0.83244 0.95365 0.0
H130 H 0.99453 0.71239 0.95437 0.0
H131 H 0.18806 0.86602 0.97665 0.0
H132 H 0.18785 0.98534 0.97703 0.0
H133 H 0.14927 0.73553 -0.0033 0.0
H134 H 0.10995 0.77038 0.91818 0.0
H135 H 1.0574 0.78549 0.88382 0.0
H136 H 0.88979 0.54967 0.89517 0.0
H137 H 0.94119 0.53359 0.92976 0.0
C138 C 0.14951 0.42549 0.96934 0.0
C139 C 0.09457 0.34421 0.96698 0.0
C140 C 0.1492 0.49462 0.96926 0.0
C141 C 0.09396 0.48602 0.96669 0.0
C142 C 1.03909 0.40491 0.96403 0.0
C143 C 1.03935 0.33569 0.96437 0.0
C144 C 0.0933 0.56066 0.96675 0.0
C145 C 1.06041 0.57203 0.94879 0.0
C146 C 0.12598 0.62209 -0.01594 0.0
C147 C 0.16002 0.61446 0.00411 0.0
C148 C 0.13022 0.54404 0.01765 0.0
C149 C 0.16283 0.53676 0.03634 0.0
C150 C 0.22518 0.59979 0.04177 0.0
C151 C 0.25499 0.67038 0.02856 0.0
C152 C 0.2226 0.67793 0.00983 0.0
C153 C 1.03778 0.84118 0.95864 0.0
C154 C 0.09158 0.92033 0.96514 0.0
C155 C 1.03763 0.77162 0.95887 0.0
C156 C 0.09161 0.77784 0.96506 0.0
C157 C 0.14528 0.85707 0.97171 0.0
C158 C 0.14523 0.92637 0.97183 0.0
C159 C 0.09221 0.70284 0.96494 0.0
C160 C 0.12508 0.69119 -0.01708 0.0
C161 C 1.06031 0.64181 0.94744 0.0
C162 C 1.02926 0.65119 0.92668 0.0
C163 C 1.06179 0.722 0.91342 0.0
C164 C 1.03222 0.7307 0.8939 0.0
C165 C 0.97025 0.66869 0.88736 0.0
C166 C 0.93776 0.59772 0.90029 0.0
C167 C 0.96709 0.58874 0.91984 0.0
H168 H 0.94745 0.67554 0.87224 0.0
H169 H 0.25036 0.59402 0.05623 0.0
H170 H 0.32774 1.02841 0.33241 0.0
H171 H 0.39673 0.99161 0.34138 0.0
H172 H 0.54651 0.2442 0.35879 0.0
H173 H 0.47873 0.28287 0.34814 0.0
H174 H 0.57773 0.18841 0.33095 0.0
H175 H 0.48331 1.08565 0.39933 0.0
H176 H 0.39625 1.00761 0.42206 0.0
H177 H 0.33113 0.78319 0.38972 0.0
H178 H 0.41735 0.85995 0.36658 0.0
H179 H 0.7804 0.09288 0.35287 0.0
H180 H 0.71714 0.12799 0.36398 0.0
H181 H 0.55414 0.89482 0.33801 0.0
H182 H 0.61711 0.85737 0.32769 0.0
H183 H 0.53667 0.94897 0.3757 0.0
H184 H 0.61691 1.05109 0.3037 0.0
H185 H 0.70034 0.12451 0.27926 0.0
H186 H 0.78758 0.34714 0.31715 0.0
H187 H 0.70503 0.27457 0.34207 0.0
C188 C 0.37535 1.07627 0.33816 0.0
C189 C 0.39792 0.15887 0.33921 0.0
C190 C 0.41449 1.05476 0.34371 0.0
C191 C 0.4766 0.11488 0.35106 0.0
C192 C 0.49863 0.19674 0.35324 0.0
C193 C 0.45971 0.21863 0.34732 0.0
C194 C 0.51953 0.09362 0.35394 0.0
C195 C 0.56959 0.13748 0.34126 0.0
C196 C 0.50783 1.02546 0.36682 0.0
C197 C 0.45679 0.9787 0.38116 0.0
C198 C 0.45034 1.01968 0.39702 0.0
C199 C 0.40113 0.97566 0.40998 0.0
C200 C 0.35821 0.89049 0.40734 0.0
C201 C 0.36453 0.84913 0.3918 0.0
C202 C 0.41364 0.89286 0.37878 0.0
C203 C 0.73108 1.04768 0.35023 0.0
C204 C 0.70377 0.97276 0.33906 0.0
C205 C 0.69501 1.0681 0.35651 0.0
C206 C 0.63116 1.01455 0.35144 0.0
C207 C 0.60343 0.93705 0.34197 0.0
C208 C 0.63949 0.91626 0.33582 0.0
C209 C 0.59439 1.04401 0.35279 0.0
C210 C 0.54542 1.00128 0.36598 0.0
C211 C 0.60657 0.11288 0.34026 0.0
C212 C 0.65524 0.15722 0.3249 0.0
C213 C 0.65405 0.1156 0.30688 0.0
C214 C 0.70116 0.15704 0.29295 0.0
C215 C 0.74935 0.24035 0.29672 0.0
C216 C 0.75029 0.28255 0.31431 0.0
C217 C 0.70336 0.24131 0.32834 0.0
H218 H 0.78594 0.27218 0.28601 0.0
H219 H 0.32001 0.85656 0.41733 0.0
H220 H 0.90443 0.84605 0.6428 0.0
H221 H 0.79507 0.73492 0.64381 0.0
H222 H 0.75408 0.90319 0.62394 0.0
H223 H 0.86446 1.01549 0.62394 0.0
H224 H 0.65568 0.80145 0.63916 0.0
H225 H 0.71408 0.68035 0.59365 0.0
H226 H 0.77224 0.6325 0.58436 0.0
H227 H 0.7237 0.48353 0.64373 0.0
H228 H 0.66563 0.53099 0.65348 0.0
H229 H 0.31778 0.46584 0.62401 0.0
H230 H 0.42709 0.57675 0.62297 0.0
H231 H 0.46807 0.40886 0.64353 0.0
H232 H 0.35766 0.29669 0.64357 0.0
H233 H 0.56649 0.51034 0.62787 0.0
H234 H 0.50937 0.63702 0.6734 0.0
H235 H 0.45057 0.68561 0.6813 0.0
H236 H 0.49551 0.82328 0.61986 0.0
H237 H 0.55461 0.77578 0.61167 0.0
C238 C 0.87328 0.86152 0.63841 0.0
C239 C 0.89984 0.94625 0.63311 0.0
C240 C 0.80711 0.79427 0.63868 0.0
C241 C 0.75805 0.80197 0.63325 0.0
C242 C 0.78496 0.88726 0.62821 0.0
C243 C 0.85128 0.95477 0.62814 0.0
C244 C 0.68257 0.72583 0.63318 0.0
C245 C 0.63798 0.7385 0.63639 0.0
C246 C 0.65111 0.63802 0.63002 0.0
C247 C 0.68622 0.60996 0.62441 0.0
C248 C 0.71611 0.6377 0.60477 0.0
C249 C 0.749 0.61062 0.59943 0.0
C250 C 0.75182 0.55521 0.6135 0.0
C251 C 0.7216 0.52659 0.63291 0.0
C252 C 0.6887 0.55354 0.63834 0.0
C253 C 0.34889 0.45039 0.62854 0.0
C254 C 0.32228 0.36577 0.63403 0.0
C255 C 0.41509 0.51756 0.62827 0.0
C256 C 0.46415 0.50992 0.63387 0.0
C257 C 0.43719 0.42474 0.63911 0.0
C258 C 0.37085 0.35731 0.6392 0.0
C259 C 0.53967 0.58598 0.63393 0.0
C260 C 0.58427 0.57328 0.63071 0.0
C261 C 0.57113 0.67382 0.63696 0.0
C262 C 0.53578 0.70227 0.64183 0.0
C263 C 0.50654 0.67757 0.66159 0.0
C264 C 0.47327 0.70504 0.66613 0.0
C265 C 0.46927 0.75753 0.65109 0.0
C266 C 0.4987 0.78285 0.63152 0.0
C267 C 0.53214 0.75577 0.62693 0.0
H268 H 0.44343 0.77865 0.6546 0.0
H269 H 0.77729 0.53429 0.60934 0.0
H270 H 0.87692 0.39004 0.6263 0.0
H271 H 0.77808 0.35269 0.63395 0.0
H272 H 0.70765 0.09873 0.64064 0.0
H273 H 0.80595 0.13539 0.63338 0.0
H274 H 0.62756 0.11632 0.61484 0.0
H275 H 0.75417 0.21548 0.68612 0.0
H276 H 0.84504 0.3166 0.71182 0.0
H277 H 0.80218 0.48632 0.69964 0.0
H278 H 0.71138 0.38644 0.67365 0.0
H279 H 0.36145 0.94821 0.66646 0.0
H280 H 0.46498 0.9957 0.66213 0.0
H281 H 0.52401 0.24444 0.65425 0.0
H282 H 0.42074 0.19761 0.65812 0.0
H283 H 0.61058 0.23453 0.68027 0.0
H284 H 0.48583 0.13795 0.6088 0.0
H285 H 0.39512 1.03824 0.58279 0.0
H286 H 0.43495 0.86548 0.59517 0.0
H287 H 0.52553 0.96396 0.62157 0.0
C288 C 0.84035 0.32634 0.62946 0.0
C289 C 0.84907 0.26561 0.62916 0.0
C290 C 0.78406 0.30515 0.63379 0.0
C291 C 0.73595 0.22309 0.63799 0.0
C292 C 0.74425 0.16233 0.63734 0.0
C293 C 0.80034 0.18338 0.63307 0.0
C294 C 0.67676 0.19986 0.64325 0.0
C295 C 0.62376 0.14151 0.62928 0.0
C296 C 0.67228 0.23433 0.6618 0.0
C297 C 0.72654 0.29402 0.67763 0.0
C298 C 0.76445 0.27467 0.68874 0.0
C299 C 0.81587 0.33168 0.70341 0.0
C300 C 0.82955 0.40799 0.70728 0.0
C301 C 0.79167 0.4273 0.69657 0.0
C302 C 0.74023 0.37052 0.68186 0.0
C303 C 0.39664 1.01308 0.664 0.0
C304 C 0.38287 1.06904 0.66249 0.0
C305 C 0.45564 1.04008 0.66161 0.0
C306 C 0.50161 0.12331 0.65761 0.0
C307 C 0.48901 0.18 0.65737 0.0
C308 C 0.43002 0.15308 0.65969 0.0
C309 C 0.56155 0.1503 0.65204 0.0
C310 C 0.61456 0.20949 0.66585 0.0
C311 C 0.5662 0.11686 0.6333 0.0
C312 C 0.51203 1.05788 0.61733 0.0
C313 C 0.47496 1.07844 0.60613 0.0
C314 C 0.42364 1.02222 0.59129 0.0
C315 C 0.4092 0.94548 0.58738 0.0
C316 C 0.44616 0.92489 0.59826 0.0
C317 C 0.49749 0.98087 0.61314 0.0
H318 H 0.36946 0.90205 0.57589 0.0
H319 H 0.86938 0.45205 0.71865 0.0
H320 H 0.75207 0.94664 0.03753 0.0
H321 H 0.69653 0.88488 0.07021 0.0
H322 H 0.81298 0.81488 0.09515 0.0
H323 H 0.86696 0.87382 0.06151 0.0
H324 H 0.70937 0.68837 0.09036 0.0
H325 H 0.77793 0.91285 0.13203 0.0
H326 H 0.81979 1.05371 0.14238 0.0
H327 H 0.65307 1.01268 0.11283 0.0
H328 H 0.61045 0.87219 0.10187 0.0
H329 H 0.40519 0.3893 0.0876 0.0
H330 H 0.49223 0.48772 0.11459 0.0
H331 H 0.52026 0.68764 0.07339 0.0
H332 H 0.43274 0.59033 0.04708 0.0
H333 H 0.5739 0.74127 0.11702 0.0
H334 H 0.57632 0.57058 0.05681 0.0
H335 H 0.53901 0.43312 0.04449 0.0
H336 H 0.57773 0.37932 0.11237 0.0
H337 H 0.61547 0.5167 0.12499 0.0
C338 C 0.76735 0.9209 0.05041 0.0
C339 C 0.81269 0.91321 0.04681 0.0
C340 C 0.73602 0.88632 0.06941 0.0
C341 C 0.75019 0.84459 0.08538 0.0
C342 C 0.80081 0.84614 0.08309 0.0
C343 C 0.83135 0.87928 0.0638 0.0
C344 C 0.70246 0.782 0.09981 0.0
C345 C 0.68131 0.7007 0.09727 0.0
C346 C 0.666 0.79655 0.10969 0.0
C347 C 0.69069 0.88117 0.11627 0.0
C348 C 0.75012 0.93376 0.12766 0.0
C349 C 0.77406 1.01371 0.13363 0.0
C350 C 0.73904 1.04204 0.12832 0.0
C351 C 0.68003 0.99048 0.11702 0.0
C352 C 0.65584 0.91045 0.111 0.0
C353 C 0.42856 0.45444 0.08489 0.0
C354 C 0.41354 0.48242 0.06495 0.0
C355 C 0.47807 0.51058 0.10036 0.0
C356 C 0.51412 0.59496 0.09562 0.0
C357 C 0.49349 0.62286 0.07742 0.0
C358 C 0.4435 0.567 0.06221 0.0
C359 C 0.57984 0.65089 0.10452 0.0
C360 C 0.60437 0.73023 0.11175 0.0
C361 C 0.62027 0.63499 0.09933 0.0
C362 C 0.59829 0.55315 0.09181 0.0
C363 C 0.57697 0.52931 0.06903 0.0
C364 C 0.55573 0.45155 0.06202 0.0
C365 C 0.55587 0.39745 0.07765 0.0
C366 C 0.57755 0.42121 0.1003 0.0
C367 C 0.59893 0.49899 0.10739 0.0
H368 H 0.53926 0.33719 0.0722 0.0
H369 H 0.75768 0.10399 0.13294 0.0
H370 H 0.95259 0.24153 0.29705 0.0
H371 H 0.95292 0.36116 0.29771 0.0
H372 H 0.14965 0.52187 0.29983 0.0
H373 H 0.1495 0.4022 0.30021 0.0
H374 H 0.12806 0.59295 0.32408 0.0
H375 H 1.03503 0.48055 0.25008 0.0
H376 H 0.96123 0.37561 0.22098 0.0
H377 H 0.81313 0.34783 0.24767 0.0
H378 H 0.88592 0.45142 0.27726 0.0
H379 H 0.15219 0.96033 0.2953 0.0
H380 H 0.15231 0.84065 0.29548 0.0
H381 H 0.95905 0.68046 0.30198 0.0
H382 H 0.95862 0.7998 0.3016 0.0
H383 H 0.97931 0.61035 0.2734 0.0
H384 H 0.08006 0.73362 0.34683 0.0
H385 H 0.15893 0.84394 0.37389 0.0
H386 H 0.29924 0.85732 0.34546 0.0
H387 H 0.22149 0.74863 0.31789 0.0
C388 C 0.99611 0.30222 0.2976 0.0
C389 C 1.05098 0.31061 0.29846 0.0
C390 C 0.9963 0.37167 0.2978 0.0
C391 C 1.05128 0.4531 0.29833 0.0
C392 C 0.10612 0.46124 0.29939 0.0
C393 C 0.106 0.39184 0.29951 0.0
C394 C 1.05204 0.52908 0.29804 0.0
C395 C 0.09584 0.59653 0.31267 0.0
C396 C 1.00992 0.53604 0.28362 0.0
C397 C 0.96589 0.47313 0.26603 0.0
C398 C 0.98666 0.45151 0.24988 0.0
C399 C 0.94501 0.39228 0.23329 0.0
C400 C 0.8825 0.35484 0.23254 0.0
C401 C 0.86154 0.37668 0.24834 0.0
C402 C 0.90297 0.43561 0.26503 0.0
C403 C 0.10952 0.89979 0.29681 0.0
C404 C 1.0554 0.89133 0.29848 0.0
C405 C 0.10969 0.83054 0.29705 0.0
C406 C 1.05579 0.74948 0.29904 0.0
C407 C 1.00165 0.74107 0.30046 0.0
C408 C 1.0015 0.81023 0.30031 0.0
C409 C 1.05531 0.67393 0.29938 0.0
C410 C 1.01149 0.60658 0.28478 0.0
C411 C 0.0981 0.66775 0.31356 0.0
C412 C 0.14492 0.73356 0.33009 0.0
C413 C 0.1278 0.7607 0.34619 0.0
C414 C 0.17235 0.823 0.36163 0.0
C415 C 0.23415 0.85804 0.36131 0.0
C416 C 0.25148 0.83063 0.34561 0.0
C417 C 0.20717 0.76869 0.33006 0.0
H418 H 0.2686 0.90624 0.37327 0.0
H419 H 0.85033 0.30908 0.21967 0.0
H420 H 0.1392 0.21885 0.22757 0.0
H421 H 0.1395 0.22086 0.18673 0.0
H422 H 0.95343 0.99896 0.18006 0.0
H423 H 0.95346 0.99536 0.22112 0.0
H424 H 1.01281 0.98632 0.15314 0.0
H425 H 0.99216 0.19386 0.16467 0.0
H426 H 1.01511 0.31738 0.18156 0.0
H427 H 0.19301 0.46499 0.15823 0.0
H428 H 0.17149 0.34209 0.14147 0.0
H429 H 0.97995 1.01877 0.03306 0.0
H430 H 0.96798 1.01514 0.07304 0.0
H431 H 0.1574 0.22528 0.0861 0.0
H432 H 0.16932 0.23082 0.046 0.0
H433 H 0.08821 0.2401 0.10912 0.0
H434 H 0.10275 1.01889 0.09878 0.0
H435 H 0.06973 0.8916 0.08048 0.0
H436 H 0.8892 0.76568 0.10015 0.0
H437 H 0.92113 0.89243 0.11845 0.0
C438 C 0.09811 0.17053 0.21748 0.0
C439 C 1.0462 0.1071 0.22781 0.0
C440 C 0.09823 0.172 0.19397 0.0
C441 C 1.04616 0.11079 0.17999 0.0
C442 C 0.99429 1.04714 0.19029 0.0
C443 C 0.99429 1.0453 0.21386 0.0
C444 C 1.04657 0.11248 0.1548 0.0
C445 C 1.02853 1.04167 0.14355 0.0
C446 C 1.06714 0.18438 0.14196 0.0
C447 C 0.08043 0.25857 0.15201 0.0
C448 C 1.03639 0.25254 0.1633 0.0
C449 C 1.0491 0.32247 0.17282 0.0
C450 C 0.10555 0.39895 0.17102 0.0
C451 C 0.14934 0.40568 0.15964 0.0
C452 C 0.13689 0.33591 0.15011 0.0
C453 C 1.01923 1.0642 0.04441 0.0
C454 C 0.07586 0.12468 0.03621 0.0
C455 C 1.01231 1.06183 0.06737 0.0
C456 C 1.06202 0.11891 0.08288 0.0
C457 C 0.11827 0.18022 0.07464 0.0
C458 C 0.12511 0.18315 0.05163 0.0
C459 C 1.05579 0.11464 0.10765 0.0
C460 C 0.07254 0.1849 0.11879 0.0
C461 C 1.03275 1.04176 0.12028 0.0
C462 C 1.01418 0.96518 0.10982 0.0
C463 C 1.05599 0.96407 0.09914 0.0
C464 C 1.03748 0.89204 0.08878 0.0
C465 C 0.97738 0.82063 0.08912 0.0
C466 C 0.93574 0.821 0.09991 0.0
C467 C 0.95404 0.89285 0.11031 0.0
H468 H 0.9631 0.76498 0.08105 0.0
H469 H 0.1153 0.45302 0.1784 0.0
H470 H 0.14355 0.10839 0.37487 0.0
H471 H 0.15004 0.11322 0.41606 0.0
H472 H 0.98614 0.09735 0.41007 0.0
H473 H 0.97952 0.09298 0.36892 0.0
H474 H 0.07291 0.21338 0.44099 0.0
H475 H 0.98419 0.93079 0.42594 0.0
H476 H 0.98022 0.8199 0.40989 0.0
H477 H 0.15138 0.90555 0.44868 0.0
H478 H 0.15675 1.01764 0.46475 0.0
H479 H 1.01689 0.13872 0.55575 0.0
H480 H 1.00932 0.12937 0.51475 0.0
H481 H 0.15766 0.11046 0.52192 0.0
H482 H 0.16345 0.11603 0.56302 0.0
H483 H 0.08028 1.01307 0.49007 0.0
H484 H 0.17256 0.29485 0.50493 0.0
H485 H 0.18252 0.41122 0.52047 0.0
H486 H 1.01339 0.33533 0.48183 0.0
H487 H 1.00202 0.21784 0.46628 0.0
C488 C 0.10872 0.10569 0.38228 0.0
C489 C 1.06085 0.09994 0.36842 0.0
C490 C 0.11239 0.10818 0.40592 0.0
C491 C 0.06827 0.1049 0.41637 0.0
C492 C 1.02078 0.0999 0.40255 0.0
C493 C 1.01693 0.09706 0.37893 0.0
C494 C 0.07176 0.10735 0.44161 0.0
C495 C 0.0737 0.16886 0.4517 0.0
C496 C 0.07474 1.05104 0.4558 0.0
C497 C 0.07114 0.98303 0.44638 0.0
C498 C 1.02117 0.92628 0.43094 0.0
C499 C 1.01864 0.86317 0.42185 0.0
C500 C 1.0656 0.85581 0.42822 0.0
C501 C 0.11507 0.91138 0.44375 0.0
C502 C 0.11785 0.97465 0.45287 0.0
C503 C 1.04788 0.1324 0.54863 0.0
C504 C 0.09097 0.12848 0.56281 0.0
C505 C 1.04383 0.12765 0.52505 0.0
C506 C 0.0838 0.12099 0.51489 0.0
C507 C 0.12624 0.11578 0.52909 0.0
C508 C 0.12962 0.11914 0.5527 0.0
C509 C 0.08129 0.11918 0.48959 0.0
C510 C 0.07956 1.05778 0.47945 0.0
C511 C 0.07937 0.17637 0.47535 0.0
C512 C 0.08616 0.24709 0.48461 0.0
C513 C 0.13729 0.30266 0.49987 0.0
C514 C 0.14321 0.36886 0.50866 0.0
C515 C 0.09853 0.38053 0.50219 0.0
C516 C 1.04792 0.32614 0.48686 0.0
C517 C 1.04173 0.25978 0.47803 0.0
H518 H 0.1032 0.43182 0.50902 0.0
H519 H 1.0636 0.80697 0.42115 0.0
H520 H 0.1991 0.16793 0.71175 0.0
H521 H 0.20031 0.1682 0.75274 0.0
H522 H 1.04712 0.17713 0.74401 0.0
H523 H 1.04708 0.17967 0.70303 0.0
H524 H 0.12147 0.27228 0.77753 0.0
H525 H 1.03479 0.99508 0.75844 0.0
H526 H 1.03043 0.88495 0.74166 0.0
H527 H 0.19457 0.95721 0.78365 0.0
H528 H 0.20036 1.06853 0.80048 0.0
H529 H 1.02322 0.1349 0.88714 0.0
H530 H 1.03076 0.1443 0.84656 0.0
H531 H 0.20031 0.17429 0.85925 0.0
H532 H 0.1934 0.16558 0.9 0.0
H533 H 0.12133 1.06213 0.82435 0.0
H534 H 0.20378 0.33677 0.84441 0.0
H535 H 0.20444 0.44353 0.86132 0.0
H536 H 1.0428 0.37095 0.81746 0.0
H537 H 1.04065 0.26287 0.8005 0.0
C538 C 0.16573 0.17021 0.71852 0.0
C539 C 0.12283 0.17347 0.70394 0.0
C540 C 0.16618 0.16979 0.74208 0.0
C541 C 0.12304 0.1711 0.75176 0.0
C542 C 0.0809 0.17587 0.73718 0.0
C543 C 0.08083 0.17713 0.71364 0.0
C544 C 0.12161 0.16739 0.77696 0.0
C545 C 0.12064 0.22551 0.78763 0.0
C546 C 0.12184 0.10771 0.79056 0.0
C547 C 0.11835 1.04066 0.78054 0.0
C548 C 0.07019 0.98784 0.76398 0.0
C549 C 1.06743 0.92516 0.75447 0.0
C550 C 0.1123 0.91424 0.76154 0.0
C551 C 0.15992 0.96583 0.77817 0.0
C552 C 0.16294 1.02869 0.78771 0.0
C553 C 1.06226 0.14358 0.88138 0.0
C554 C 0.10776 0.14962 0.89702 0.0
C555 C 1.0666 0.14927 0.85808 0.0
C556 C 0.11633 0.16058 0.84968 0.0
C557 C 0.1615 0.16568 0.86521 0.0
C558 C 0.15758 0.161 0.88857 0.0
C559 C 0.12078 0.16655 0.82475 0.0
C560 C 0.1223 0.10888 0.81417 0.0
C561 C 0.12045 0.22609 0.81122 0.0
C562 C 0.12172 0.29117 0.82134 0.0
C563 C 0.16807 0.3431 0.8385 0.0
C564 C 0.16877 0.40394 0.84807 0.0
C565 C 0.1236 0.41387 0.84051 0.0
C566 C 0.07771 0.3631 0.82332 0.0
C567 C 0.07676 0.30208 0.81371 0.0
H568 H 0.12423 0.46103 0.84794 0.0
H569 H 0.11008 0.86568 0.75416 0.0
loop_
_geom_bond_atom_site_label_1
_geom_bond_atom_site_label_2
_geom_bond_distance
_geom_bond_site_symmetry_2
_ccdc_geom_bond_type
Tb0 C9 2.764 . S
Tb0 O10 2.325 . S
Tb0 O13 2.303 1_666 S
Tb0 O17 2.322 1_565 S
Tb0 O18 2.349 1_565 S
Tb0 O21 2.415 1_556 S
Tb0 O22 2.399 . S
Tb1 O11 2.322 1_545 S
Tb1 O12 2.349 . S
Tb1 O14 2.415 1_554 S
Tb1 O15 2.399 . S
Tb1 O16 2.325 . S
Tb1 O19 2.303 1_554 S
Tb1 C30 2.764 . S
C2 O18 1.261 1_455 S
C2 O19 1.257 . S
C3 C6 1.358 . S
C3 C7 1.332 1_556 S
C3 C9 1.504 . S
C4 C5 1.362 1_554 S
C4 C8 1.316 . S
C5 C4 1.362 1_556 S
C5 C6 1.429 . S
C5 H32 0.932 . S
C6 C3 1.358 . S
C6 C5 1.429 . S
C6 H33 0.930 . S
C7 C3 1.332 1_554 S
C7 C8 1.394 . S
C7 H34 0.932 . S
C8 C4 1.316 . S
C8 C7 1.394 . S
C8 H35 0.929 . S
C9 Tb0 2.764 . S
C9 C3 1.504 . S
C9 O21 1.239 1_556 S
C9 O22 1.263 . S
O10 Tb0 2.325 . S
O10 C20 1.236 1_656 S
O11 Tb1 2.322 1_565 S
O11 C20 1.257 . S
O12 Tb1 2.349 . S
O12 C23 1.261 . S
O13 Tb0 2.303 1_444 S
O13 C23 1.257 . S
O14 Tb1 2.415 1_556 S
O14 C30 1.239 1_556 S
O15 Tb1 2.399 . S
O15 C30 1.263 . S
O16 Tb1 2.325 . S
O16 C31 1.236 . S
O17 Tb0 2.322 1_545 S
O17 C31 1.257 1_656 S
O18 Tb0 2.349 1_545 S
O18 C2 1.261 1_655 S
O19 Tb1 2.303 1_556 S
O19 C2 1.257 . S
C20 O10 1.236 1_454 S
C20 O11 1.257 . S
O21 Tb0 2.415 1_554 S
O21 C9 1.239 1_554 S
O22 Tb0 2.399 . S
O22 C9 1.263 . S
C23 O12 1.261 . S
C23 O13 1.257 . S
C24 C27 1.358 . S
C24 C28 1.332 1_554 S
C24 C30 1.504 . S
C25 C26 1.373 . S
C25 C29 1.308 1_554 S
C26 C25 1.373 . S
C26 C27 1.429 . S
C26 H36 0.932 . S
C27 C24 1.358 . S
C27 C26 1.429 . S
C27 H37 0.930 . S
C28 C24 1.332 1_556 S
C28 C29 1.394 . S
C28 H38 0.932 . S
C29 C25 1.308 1_556 S
C29 C28 1.394 . S
C29 H39 0.929 . S
C30 Tb1 2.764 . S
C30 O14 1.239 1_554 S
C30 O15 1.263 . S
C30 C24 1.504 . S
C31 O16 1.236 . S
C31 O17 1.257 1_454 S
H32 C5 0.932 . S
H33 C6 0.930 . S
H34 C7 0.932 . S
H35 C8 0.929 . S
H36 C26 0.932 . S
H37 C27 0.930 . S
H38 C28 0.932 . S
H39 C29 0.929 . S
Tb40 C49 2.764 . S
Tb40 O50 2.325 1_545 S
Tb40 O53 2.303 . S
Tb40 O57 2.322 . S
Tb40 O58 2.349 . S
Tb40 O61 2.415 . S
Tb40 O62 2.399 . S
Tb41 O51 2.322 . S
Tb41 O52 2.349 . S
Tb41 O54 2.415 . S
Tb41 O55 2.399 . S
Tb41 O56 2.325 1_565 S
Tb41 O59 2.303 . S
Tb41 C70 2.764 . S
C42 O58 1.261 . S
C42 O59 1.257 1_445 S
C43 C46 1.358 . S
C43 C47 1.332 1_545 S
C43 C49 1.504 . S
C44 C45 1.373 . S
C44 C48 1.308 1_545 S
C45 C44 1.373 . S
C45 C46 1.429 . S
C45 H72 0.932 . S
C46 C43 1.358 . S
C46 C45 1.429 . S
C46 H73 0.930 . S
C47 C43 1.332 1_565 S
C47 C48 1.394 . S
C47 H74 0.932 . S
C48 C44 1.308 1_565 S
C48 C47 1.394 . S
C48 H75 0.929 . S
C49 Tb40 2.764 . S
C49 C43 1.504 . S
C49 O61 1.239 . S
C49 O62 1.263 . S
O50 Tb40 2.325 1_565 S
O50 C60 1.236 . S
O51 Tb41 2.322 . S
O51 C60 1.257 1_655 S
O52 Tb41 2.349 . S
O52 C63 1.261 . S
O53 Tb40 2.303 . S
O53 C63 1.257 1_445 S
O54 Tb41 2.415 . S
O54 C70 1.239 . S
O55 Tb41 2.399 . S
O55 C70 1.263 . S
O56 Tb41 2.325 1_545 S
O56 C71 1.236 1_655 S
O57 Tb40 2.322 . S
O57 C71 1.257 . S
O58 Tb40 2.349 . S
O58 C42 1.261 . S
O59 Tb41 2.303 . S
O59 C42 1.257 1_665 S
C60 O50 1.236 . S
C60 O51 1.257 1_455 S
O61 Tb40 2.415 . S
O61 C49 1.239 . S
O62 Tb40 2.399 . S
O62 C49 1.263 . S
C63 O52 1.261 . S
C63 O53 1.257 1_665 S
C64 C67 1.358 . S
C64 C68 1.332 1_565 S
C64 C70 1.504 . S
C65 C66 1.373 . S
C65 C69 1.308 1_565 S
C66 C65 1.373 . S
C66 C67 1.429 . S
C66 H76 0.932 . S
C67 C64 1.358 . S
C67 C66 1.429 . S
C67 H77 0.930 . S
C68 C64 1.332 1_545 S
C68 C69 1.394 . S
C68 H78 0.932 . S
C69 C65 1.308 1_545 S
C69 C68 1.394 . S
C69 H79 0.929 . S
C70 Tb41 2.764 . S
C70 O54 1.239 . S
C70 O55 1.263 . S
C70 C64 1.504 . S
C71 O56 1.236 1_455 S
C71 O57 1.257 . S
H72 C45 0.932 . S
H73 C46 0.930 . S
H74 C47 0.932 . S
H75 C48 0.929 . S
H76 C66 0.932 . S
H77 C67 0.930 . S
H78 C68 0.932 . S
H79 C69 0.929 . S
Tb80 C89 2.764 . S
Tb80 O90 2.325 . S
Tb80 O93 2.303 1_655 S
Tb80 O97 2.322 1_655 S
Tb80 O98 2.349 . S
Tb80 O101 2.415 . S
Tb80 O102 2.399 . S
Tb81 O91 2.322 1_445 S
Tb81 O92 2.349 . S
Tb81 O94 2.415 . S
Tb81 O95 2.399 . S
Tb81 O96 2.325 . S
Tb81 O99 2.303 . S
Tb81 C110 2.764 . S
C82 O98 1.261 1_455 S
C82 O99 1.257 . S
C83 C86 1.358 . S
C83 C87 1.332 . S
C83 C89 1.504 . S
C84 C85 1.373 . S
C84 C88 1.308 . S
C85 C84 1.373 . S
C85 C86 1.429 . S
C85 H112 0.932 . S
C86 C83 1.358 . S
C86 C85 1.429 . S
C86 H113 0.930 . S
C87 C83 1.332 . S
C87 C88 1.394 . S
C87 H114 0.932 . S
C88 C84 1.308 . S
C88 C87 1.394 . S
C88 H115 0.929 . S
C89 Tb80 2.764 . S
C89 C83 1.504 . S
C89 O101 1.239 . S
C89 O102 1.263 . S
O90 Tb80 2.325 . S
O90 C100 1.236 1_545 S
O91 Tb81 2.322 1_665 S
O91 C100 1.257 . S
O92 Tb81 2.349 . S
O92 C103 1.261 . S
O93 Tb80 2.303 1_455 S
O93 C103 1.257 . S
O94 Tb81 2.415 . S
O94 C110 1.239 . S
O95 Tb81 2.399 . S
O95 C110 1.263 . S
O96 Tb81 2.325 . S
O96 C111 1.236 . S
O97 Tb80 2.322 1_455 S
O97 C111 1.257 . S
O98 Tb80 2.349 . S
O98 C82 1.261 1_655 S
O99 Tb81 2.303 . S
O99 C82 1.257 . S
C100 O90 1.236 1_565 S
C100 O91 1.257 . S
O101 Tb80 2.415 . S
O101 C89 1.239 . S
O102 Tb80 2.399 . S
O102 C89 1.263 . S
C103 O92 1.261 . S
C103 O93 1.257 . S
C104 C107 1.358 . S
C104 C108 1.332 . S
C104 C110 1.504 . S
C105 C106 1.373 . S
C105 C109 1.308 . S
C106 C105 1.373 . S
C106 C107 1.429 . S
C106 H116 0.932 . S
C107 C104 1.358 . S
C107 C106 1.429 . S
C107 H117 0.930 . S
C108 C104 1.332 . S
C108 C109 1.394 . S
C108 H118 0.932 . S
C109 C105 1.308 . S
C109 C108 1.394 . S
C109 H119 0.929 . S
C110 Tb81 2.764 . S
C110 O94 1.239 . S
C110 O95 1.263 . S
C110 C104 1.504 . S
C111 O96 1.236 . S
C111 O97 1.257 . S
H112 C85 0.932 . S
H113 C86 0.930 . S
H114 C87 0.932 . S
H115 C88 0.929 . S
H116 C106 0.932 . S
H117 C107 0.930 . S
H118 C108 0.932 . S
H119 C109 0.929 . S
H120 C138 0.951 . S
H121 C140 0.951 . S
H122 C142 0.950 . S
H123 C143 0.950 . S
H124 C145 0.950 1_655 S
H125 C148 0.950 1_655 S
H126 C149 0.950 . S
H127 C151 0.950 . S
H128 C152 0.950 . S
H129 C153 0.951 . S
H130 C155 0.951 . S
H131 C157 0.950 . S
H132 C158 0.950 . S
H133 C160 0.950 . S
H134 C163 0.950 . S
H135 C164 0.950 . S
H136 C166 0.950 . S
H137 C167 0.950 . S
C138 H120 0.951 . S
C138 C139 1.376 . S
C138 C140 1.388 . S
C139 C138 1.376 . S
C139 C143 1.377 1_454 S
C140 H121 0.951 . S
C140 C138 1.388 . S
C140 C141 1.366 . S
C141 C140 1.366 . S
C141 C142 1.414 1_454 S
C141 C144 1.499 . S
C142 H122 0.950 . S
C142 C141 1.414 1_656 S
C142 C143 1.374 . S
C143 H123 0.950 . S
C143 C139 1.377 1_656 S
C143 C142 1.374 . S
C144 C141 1.499 . S
C144 C145 1.373 1_554 S
C144 C146 1.389 . S
C145 H124 0.950 1_455 S
C145 C144 1.373 1_556 S
C145 C161 1.377 . S
C146 C144 1.389 . S
C146 C147 1.524 . S
C146 C160 1.377 . S
C147 C146 1.524 . S
C147 C148 1.397 . S
C147 C152 1.363 . S
C148 H125 0.950 1_455 S
C148 C147 1.397 . S
C148 C149 1.334 . S
C149 H126 0.950 . S
C149 C148 1.334 . S
C149 C150 1.287 . S
C150 C149 1.287 . S
C150 C151 1.524 . S
C150 H169 0.913 . S
C151 H127 0.950 . S
C151 C150 1.524 . S
C151 C152 1.415 . S
C152 H128 0.950 . S
C152 C147 1.363 . S
C152 C151 1.415 . S
C153 H129 0.951 . S
C153 C154 1.366 1_656 S
C153 C155 1.388 . S
C154 C153 1.366 1_454 S
C154 C158 1.385 . S
C155 H130 0.951 . S
C155 C153 1.388 . S
C155 C156 1.366 1_656 S
C156 C155 1.366 1_454 S
C156 C157 1.414 . S
C156 C159 1.499 . S
C157 H131 0.950 . S
C157 C156 1.414 . S
C157 C158 1.374 . S
C158 H132 0.950 . S
C158 C154 1.385 . S
C158 C157 1.374 . S
C159 C156 1.499 . S
C159 C160 1.373 . S
C159 C161 1.389 1_554 S
C160 H133 0.950 . S
C160 C146 1.377 . S
C160 C159 1.373 . S
C161 C145 1.377 . S
C161 C159 1.389 1_556 S
C161 C162 1.524 1_455 S
C162 C161 1.524 1_655 S
C162 C163 1.397 1_655 S
C162 C167 1.363 . S
C163 H134 0.950 . S
C163 C162 1.397 1_455 S
C163 C164 1.334 . S
C164 H135 0.950 . S
C164 C163 1.334 . S
C164 C165 1.287 1_455 S
C165 C164 1.287 1_655 S
C165 C166 1.524 . S
C165 H168 0.999 . S
C166 H136 0.950 . S
C166 C165 1.524 . S
C166 C167 1.415 . S
C167 H137 0.950 . S
C167 C162 1.363 . S
C167 C166 1.415 . S
H168 C165 0.999 . S
H169 C150 0.913 . S
H170 C188 0.951 . S
H171 C190 0.951 . S
H172 C192 0.950 . S
H173 C193 0.950 . S
H174 C195 0.950 . S
H175 C198 0.950 . S
H176 C199 0.950 . S
H177 C201 0.950 . S
H178 C202 0.950 . S
H179 C203 0.951 . S
H180 C205 0.951 . S
H181 C207 0.950 . S
H182 C208 0.950 . S
H183 C210 0.950 . S
H184 C213 0.950 . S
H185 C214 0.950 . S
H186 C216 0.950 . S
H187 C217 0.950 . S
C188 H170 0.951 . S
C188 C189 1.366 1_565 S
C188 C190 1.388 . S
C189 C188 1.366 1_545 S
C189 C193 1.385 . S
C190 H171 0.951 . S
C190 C188 1.388 . S
C190 C191 1.366 1_565 S
C191 C190 1.366 1_545 S
C191 C192 1.414 . S
C191 C194 1.499 . S
C192 H172 0.950 . S
C192 C191 1.414 . S
C192 C193 1.374 . S
C193 H173 0.950 . S
C193 C189 1.385 . S
C193 C192 1.374 . S
C194 C191 1.499 . S
C194 C195 1.373 . S
C194 C196 1.389 1_545 S
C195 H174 0.950 . S
C195 C194 1.373 . S
C195 C211 1.377 . S
C196 C194 1.389 1_565 S
C196 C197 1.524 . S
C196 C210 1.377 . S
C197 C196 1.524 . S
C197 C198 1.397 . S
C197 C202 1.363 . S
C198 H175 0.950 . S
C198 C197 1.397 . S
C198 C199 1.334 . S
C199 H176 0.950 . S
C199 C198 1.334 . S
C199 C200 1.287 . S
C200 C199 1.287 . S
C200 C201 1.524 . S
C200 H219 0.913 . S
C201 H177 0.950 . S
C201 C200 1.524 . S
C201 C202 1.415 . S
C202 H178 0.950 . S
C202 C197 1.363 . S
C202 C201 1.415 . S
C203 H179 0.951 . S
C203 C204 1.366 1_545 S
C203 C205 1.388 . S
C204 C203 1.366 1_565 S
C204 C208 1.385 . S
C205 H180 0.951 . S
C205 C203 1.388 . S
C205 C206 1.372 . S
C206 C205 1.372 . S
C206 C207 1.397 1_545 S
C206 C209 1.509 . S
C207 H181 0.950 . S
C207 C206 1.397 1_565 S
C207 C208 1.374 . S
C208 H182 0.950 . S
C208 C204 1.385 . S
C208 C207 1.374 . S
C209 C206 1.509 . S
C209 C210 1.373 1_545 S
C209 C211 1.389 . S
C210 H183 0.950 . S
C210 C196 1.377 . S
C210 C209 1.373 1_565 S
C211 C195 1.377 . S
C211 C209 1.389 . S
C211 C212 1.524 . S
C212 C211 1.524 . S
C212 C213 1.397 . S
C212 C217 1.363 . S
C213 H184 0.950 . S
C213 C212 1.397 . S
C213 C214 1.334 . S
C214 H185 0.950 . S
C214 C213 1.334 . S
C214 C215 1.287 . S
C215 C214 1.287 . S
C215 C216 1.524 . S
C215 H218 0.999 . S
C216 H186 0.950 . S
C216 C215 1.524 . S
C216 C217 1.415 . S
C217 H187 0.950 . S
C217 C212 1.363 . S
C217 C216 1.415 . S
H218 C215 0.999 . S
H219 C200 0.913 . S
H220 C238 0.951 . S
H221 C240 0.951 . S
H222 C242 0.950 . S
H223 C243 0.950 . S
H224 C245 0.950 . S
H225 C248 0.950 . S
H226 C249 0.950 . S
H227 C251 0.950 . S
H228 C252 0.950 . S
H229 C253 0.951 . S
H230 C255 0.951 . S
H231 C257 0.950 . S
H232 C258 0.950 . S
H233 C260 0.950 . S
H234 C263 0.950 . S
H235 C264 0.950 . S
H236 C266 0.950 . S
H237 C267 0.950 . S
C238 H220 0.951 . S
C238 C239 1.366 . S
C238 C240 1.388 . S
C239 C238 1.366 . S
C239 C243 1.385 . S
C240 H221 0.951 . S
C240 C238 1.388 . S
C240 C241 1.366 . S
C241 C240 1.366 . S
C241 C242 1.414 . S
C241 C244 1.499 . S
C242 H222 0.950 . S
C242 C241 1.414 . S
C242 C243 1.374 . S
C243 H223 0.950 . S
C243 C239 1.385 . S
C243 C242 1.374 . S
C244 C241 1.499 . S
C244 C245 1.373 . S
C244 C246 1.389 . S
C245 H224 0.950 . S
C245 C244 1.373 . S
C245 C261 1.377 . S
C246 C244 1.389 . S
C246 C247 1.524 . S
C246 C260 1.377 . S
C247 C246 1.524 . S
C247 C248 1.397 . S
C247 C252 1.363 . S
C248 H225 0.950 . S
C248 C247 1.397 . S
C248 C249 1.334 . S
C249 H226 0.950 . S
C249 C248 1.334 . S
C249 C250 1.287 . S
C250 C249 1.287 . S
C250 C251 1.524 . S
C250 H269 0.913 . S
C251 H227 0.950 . S
C251 C250 1.524 . S
C251 C252 1.415 . S
C252 H228 0.950 . S
C252 C247 1.363 . S
C252 C251 1.415 . S
C253 H229 0.951 . S
C253 C254 1.366 . S
C253 C255 1.388 . S
C254 C253 1.366 . S
C254 C258 1.385 . S
C255 H230 0.951 . S
C255 C253 1.388 . S
C255 C256 1.366 . S
C256 C255 1.366 . S
C256 C257 1.414 . S
C256 C259 1.499 . S
C257 H231 0.950 . S
C257 C256 1.414 . S
C257 C258 1.374 . S
C258 H232 0.950 . S
C258 C254 1.385 . S
C258 C257 1.374 . S
C259 C256 1.499 . S
C259 C260 1.373 . S
C259 C261 1.389 . S
C260 H233 0.950 . S
C260 C246 1.377 . S
C260 C259 1.373 . S
C261 C245 1.377 . S
C261 C259 1.389 . S
C261 C262 1.524 . S
C262 C261 1.524 . S
C262 C263 1.397 . S
C262 C267 1.363 . S
C263 H234 0.950 . S
C263 C262 1.397 . S
C263 C264 1.334 . S
C264 H235 0.950 . S
C264 C263 1.334 . S
C264 C265 1.287 . S
C265 C264 1.287 . S
C265 C266 1.524 . S
C265 H268 0.999 . S
C266 H236 0.950 . S
C266 C265 1.524 . S
C266 C267 1.415 . S
C267 H237 0.950 . S
C267 C262 1.363 . S
C267 C266 1.415 . S
H268 C265 0.999 . S
H269 C250 0.913 . S
H270 C288 0.951 . S
H271 C290 0.951 . S
H272 C292 0.950 . S
H273 C293 0.950 . S
H274 C295 0.950 . S
H275 C298 0.950 . S
H276 C299 0.950 . S
H277 C301 0.950 . S
H278 C302 0.950 . S
H279 C303 0.951 . S
H280 C305 0.951 1_565 S
H281 C307 0.950 . S
H282 C308 0.950 . S
H283 C310 0.950 . S
H284 C313 0.950 . S
H285 C314 0.950 . S
H286 C316 0.950 1_565 S
H287 C317 0.950 1_565 S
C288 H270 0.951 . S
C288 C289 1.366 . S
C288 C290 1.388 . S
C289 C288 1.366 . S
C289 C293 1.385 . S
C290 H271 0.951 . S
C290 C288 1.388 . S
C290 C291 1.366 . S
C291 C290 1.366 . S
C291 C292 1.414 . S
C291 C294 1.499 . S
C292 H272 0.950 . S
C292 C291 1.414 . S
C292 C293 1.374 . S
C293 H273 0.950 . S
C293 C289 1.385 . S
C293 C292 1.374 . S
C294 C291 1.499 . S
C294 C295 1.373 . S
C294 C296 1.389 . S
C295 H274 0.950 . S
C295 C294 1.373 . S
C295 C311 1.377 . S
C296 C294 1.389 . S
C296 C297 1.524 . S
C296 C310 1.377 . S
C297 C296 1.524 . S
C297 C298 1.397 . S
C297 C302 1.363 . S
C298 H275 0.950 . S
C298 C297 1.397 . S
C298 C299 1.334 . S
C299 H276 0.950 . S
C299 C298 1.334 . S
C299 C300 1.287 . S
C300 C299 1.287 . S
C300 C301 1.524 . S
C300 H319 0.913 . S
C301 H277 0.950 . S
C301 C300 1.524 . S
C301 C302 1.415 . S
C302 H278 0.950 . S
C302 C297 1.363 . S
C302 C301 1.415 . S
C303 H279 0.951 . S
C303 C304 1.366 1_565 S
C303 C305 1.388 1_565 S
C304 C303 1.366 1_545 S
C304 C308 1.385 . S
C305 H280 0.951 1_545 S
C305 C303 1.388 1_545 S
C305 C306 1.366 . S
C306 C305 1.366 . S
C306 C307 1.414 . S
C306 C309 1.499 . S
C307 H281 0.950 . S
C307 C306 1.414 . S
C307 C308 1.374 . S
C308 H282 0.950 . S
C308 C304 1.385 . S
C308 C307 1.374 . S
C309 C306 1.499 . S
C309 C310 1.373 . S
C309 C311 1.389 . S
C310 H283 0.950 . S
C310 C296 1.377 . S
C310 C309 1.373 . S
C311 C295 1.377 . S
C311 C309 1.389 . S
C311 C312 1.524 . S
C312 C311 1.524 . S
C312 C313 1.397 . S
C312 C317 1.363 . S
C313 H284 0.950 . S
C313 C312 1.397 . S
C313 C314 1.334 . S
C314 H285 0.950 . S
C314 C313 1.334 . S
C314 C315 1.287 . S
C315 C314 1.287 . S
C315 C316 1.524 . S
C315 H318 0.999 . S
C316 H286 0.950 1_545 S
C316 C315 1.524 . S
C316 C317 1.415 . S
C317 H287 0.950 1_545 S
C317 C312 1.363 . S
C317 C316 1.415 . S
H318 C315 0.999 . S
H319 C300 0.913 . S
H320 C338 0.951 . S
H321 C340 0.951 . S
H322 C342 0.950 . S
H323 C343 0.950 . S
H324 C345 0.950 . S
H325 C348 0.950 1_554 S
H326 C349 0.950 . S
H327 C351 0.950 . S
H328 C352 0.950 . S
H329 C353 0.951 . S
H330 C355 0.951 . S
H331 C357 0.950 . S
H332 C358 0.950 . S
H333 C360 0.950 . S
H334 C363 0.950 1_556 S
H335 C364 0.950 . S
H336 C366 0.950 . S
H337 C367 0.950 . S
C338 H320 0.951 . S
C338 C339 1.366 . S
C338 C340 1.388 . S
C339 C338 1.366 . S
C339 C343 1.385 1_556 S
C340 H321 0.951 . S
C340 C338 1.388 . S
C340 C341 1.335 1_556 S
C341 C340 1.335 1_554 S
C341 C342 1.438 . S
C341 C344 1.507 . S
C342 H322 0.950 . S
C342 C341 1.438 . S
C342 C343 1.374 . S
C343 H323 0.950 . S
C343 C339 1.385 1_554 S
C343 C342 1.374 . S
C344 C341 1.507 . S
C344 C345 1.373 . S
C344 C346 1.389 1_554 S
C345 H324 0.950 . S
C345 C344 1.373 . S
C345 C361 1.377 . S
C346 C344 1.389 1_556 S
C346 C347 1.524 . S
C346 C360 1.377 . S
C347 C346 1.524 . S
C347 C348 1.397 . S
C347 C352 1.363 . S
C348 H325 0.950 1_556 S
C348 C347 1.397 . S
C348 C349 1.334 . S
C349 H326 0.950 . S
C349 C348 1.334 . S
C349 C350 1.287 . S
C350 C349 1.287 . S
C350 C351 1.524 . S
C350 H369 0.913 . S
C351 H327 0.950 . S
C351 C350 1.524 . S
C351 C352 1.415 . S
C352 H328 0.950 . S
C352 C347 1.363 . S
C352 C351 1.415 . S
C353 H329 0.951 . S
C353 C354 1.366 . S
C353 C355 1.388 . S
C354 C353 1.366 . S
C354 C358 1.385 1_554 S
C355 H330 0.951 . S
C355 C353 1.388 . S
C355 C356 1.366 . S
C356 C355 1.366 . S
C356 C357 1.414 1_554 S
C356 C359 1.499 . S
C357 H331 0.950 . S
C357 C356 1.414 1_556 S
C357 C358 1.374 . S
C358 H332 0.950 . S
C358 C354 1.385 1_556 S
C358 C357 1.374 . S
C359 C356 1.499 . S
C359 C360 1.373 1_554 S
C359 C361 1.389 . S
C360 H333 0.950 . S
C360 C346 1.377 . S
C360 C359 1.373 1_556 S
C361 C345 1.377 . S
C361 C359 1.389 . S
C361 C362 1.524 . S
C362 C361 1.524 . S
C362 C363 1.397 . S
C362 C367 1.363 . S
C363 H334 0.950 1_554 S
C363 C362 1.397 . S
C363 C364 1.334 . S
C364 H335 0.950 . S
C364 C363 1.334 . S
C364 C365 1.287 . S
C365 C364 1.287 . S
C365 C366 1.524 . S
C365 H368 0.999 . S
C366 H336 0.950 . S
C366 C365 1.524 . S
C366 C367 1.415 . S
C367 H337 0.950 . S
C367 C362 1.363 . S
C367 C366 1.415 . S
H368 C365 0.999 . S
H369 C350 0.913 . S
H370 C388 0.951 . S
H371 C390 0.951 . S
H372 C392 0.950 . S
H373 C393 0.950 . S
H374 C395 0.950 . S
H375 C398 0.930 1_455 S
H376 C399 0.950 . S
H377 C401 0.950 . S
H378 C402 0.950 . S
H379 C403 0.951 . S
H380 C405 0.951 . S
H381 C407 0.950 . S
H382 C408 0.950 . S
H383 C410 0.950 . S
H384 C413 0.950 . S
H385 C414 0.950 . S
H386 C416 0.950 . S
H387 C417 0.950 . S
C388 H370 0.951 . S
C388 C389 1.366 1_655 S
C388 C390 1.388 . S
C389 C388 1.366 1_455 S
C389 C393 1.385 . S
C390 H371 0.951 . S
C390 C388 1.388 . S
C390 C391 1.366 1_655 S
C391 C390 1.366 1_455 S
C391 C392 1.414 . S
C391 C394 1.499 . S
C392 H372 0.950 . S
C392 C391 1.414 . S
C392 C393 1.374 . S
C393 H373 0.950 . S
C393 C389 1.385 . S
C393 C392 1.374 . S
C394 C391 1.499 . S
C394 C395 1.373 . S
C394 C396 1.389 1_455 S
C395 H374 0.950 . S
C395 C394 1.373 . S
C395 C411 1.377 . S
C396 C394 1.389 1_655 S
C396 C397 1.524 . S
C396 C410 1.377 . S
C397 C396 1.524 . S
C397 C398 1.397 . S
C397 C402 1.363 . S
C398 H375 0.930 1_655 S
C398 C397 1.397 . S
C398 C399 1.334 . S
C399 H376 0.950 . S
C399 C398 1.334 . S
C399 C400 1.287 . S
C400 C399 1.287 . S
C400 C401 1.524 . S
C400 H419 0.913 . S
C401 H377 0.950 . S
C401 C400 1.524 . S
C401 C402 1.415 . S
C402 H378 0.950 . S
C402 C397 1.363 . S
C402 C401 1.415 . S
C403 H379 0.951 . S
C403 C404 1.366 . S
C403 C405 1.388 . S
C404 C403 1.366 . S
C404 C408 1.385 1_455 S
C405 H380 0.951 . S
C405 C403 1.388 . S
C405 C406 1.366 . S
C406 C405 1.366 . S
C406 C407 1.414 1_455 S
C406 C409 1.499 . S
C407 H381 0.950 . S
C407 C406 1.414 1_655 S
C407 C408 1.374 . S
C408 H382 0.950 . S
C408 C404 1.385 1_655 S
C408 C407 1.374 . S
C409 C406 1.499 . S
C409 C410 1.373 1_455 S
C409 C411 1.389 . S
C410 H383 0.950 . S
C410 C396 1.377 . S
C410 C409 1.373 1_655 S
C411 C395 1.377 . S
C411 C409 1.389 . S
C411 C412 1.524 . S
C412 C411 1.524 . S
C412 C413 1.397 . S
C412 C417 1.363 . S
C413 H384 0.950 . S
C413 C412 1.397 . S
C413 C414 1.334 . S
C414 H385 0.950 . S
C414 C413 1.334 . S
C414 C415 1.287 . S
C415 C414 1.287 . S
C415 C416 1.524 . S
C415 H418 0.999 . S
C416 H386 0.950 . S
C416 C415 1.524 . S
C416 C417 1.415 . S
C417 H387 0.950 . S
C417 C412 1.363 . S
C417 C416 1.415 . S
H418 C415 0.999 . S
H419 C400 0.913 . S
H420 C438 0.951 . S
H421 C440 0.951 . S
H422 C442 0.950 . S
H423 C443 0.950 . S
H424 C445 0.950 . S
H425 C448 0.950 . S
H426 C449 0.950 . S
H427 C451 0.950 . S
H428 C452 0.950 . S
H429 C453 0.951 . S
H430 C455 0.951 . S
H431 C457 0.950 . S
H432 C458 0.950 . S
H433 C460 0.950 . S
H434 C463 0.950 . S
H435 C464 0.950 . S
H436 C466 0.950 . S
H437 C467 0.950 . S
C438 H420 0.951 . S
C438 C439 1.366 1_545 S
C438 C440 1.388 . S
C439 C438 1.366 1_565 S
C439 C443 1.385 1_455 S
C440 H421 0.951 . S
C440 C438 1.388 . S
C440 C441 1.366 . S
C441 C440 1.366 . S
C441 C442 1.414 1_445 S
C441 C444 1.499 . S
C442 H422 0.950 . S
C442 C441 1.414 1_665 S
C442 C443 1.374 . S
C443 H423 0.950 . S
C443 C439 1.385 1_655 S
C443 C442 1.374 . S
C444 C441 1.499 . S
C444 C445 1.373 1_545 S
C444 C446 1.389 . S
C445 H424 0.950 . S
C445 C444 1.373 1_565 S
C445 C461 1.377 . S
C446 C444 1.389 . S
C446 C447 1.524 . S
C446 C460 1.377 . S
C447 C446 1.524 . S
C447 C448 1.397 1_455 S
C447 C452 1.363 . S
C448 H425 0.950 . S
C448 C447 1.397 1_655 S
C448 C449 1.334 . S
C449 H426 0.950 . S
C449 C448 1.334 . S
C449 C450 1.287 . S
C450 C449 1.287 . S
C450 C451 1.524 1_655 S
C450 H469 0.913 . S
C451 H427 0.950 . S
C451 C450 1.524 1_455 S
C451 C452 1.415 . S
C452 H428 0.950 . S
C452 C447 1.363 . S
C452 C451 1.415 . S
C453 H429 0.951 . S
C453 C454 1.366 1_665 S
C453 C455 1.388 . S
C454 C453 1.366 1_445 S
C454 C458 1.385 . S
C455 H430 0.951 . S
C455 C453 1.388 . S
C455 C456 1.366 1_665 S
C456 C455 1.366 1_445 S
C456 C457 1.414 . S
C456 C459 1.499 . S
C457 H431 0.950 . S
C457 C456 1.414 . S
C457 C458 1.374 . S
C458 H432 0.950 . S
C458 C454 1.385 . S
C458 C457 1.374 . S
C459 C456 1.499 . S
C459 C460 1.373 . S
C459 C461 1.389 1_545 S
C460 H433 0.950 . S
C460 C446 1.377 . S
C460 C459 1.373 . S
C461 C445 1.377 . S
C461 C459 1.389 1_565 S
C461 C462 1.524 . S
C462 C461 1.524 . S
C462 C463 1.397 . S
C462 C467 1.363 1_455 S
C463 H434 0.950 . S
C463 C462 1.397 . S
C463 C464 1.334 . S
C464 H435 0.950 . S
C464 C463 1.334 . S
C464 C465 1.287 . S
C465 C464 1.287 . S
C465 C466 1.524 1_455 S
C465 H468 0.999 . S
C466 H436 0.950 . S
C466 C465 1.524 1_655 S
C466 C467 1.415 . S
C467 H437 0.950 . S
C467 C462 1.363 1_655 S
C467 C466 1.415 . S
H468 C465 0.999 . S
H469 C450 0.913 . S
H470 C488 0.951 . S
H471 C490 0.951 . S
H472 C492 0.950 . S
H473 C493 0.950 . S
H474 C495 0.950 . S
H475 C498 0.950 . S
H476 C499 0.950 . S
H477 C501 0.950 . S
H478 C502 0.950 . S
H479 C503 0.951 . S
H480 C505 0.951 . S
H481 C507 0.950 . S
H482 C508 0.950 . S
H483 C510 0.950 . S
H484 C513 0.950 1_455 S
H485 C514 0.950 . S
H486 C516 0.950 . S
H487 C517 0.950 . S
C488 H470 0.951 . S
C488 C489 1.366 . S
C488 C490 1.388 . S
C489 C488 1.366 . S
C489 C493 1.385 1_445 S
C490 H471 0.951 . S
C490 C488 1.388 . S
C490 C491 1.366 . S
C491 C490 1.366 . S
C491 C492 1.414 1_445 S
C491 C494 1.499 . S
C492 H472 0.950 . S
C492 C491 1.414 1_665 S
C492 C493 1.374 . S
C493 H473 0.950 . S
C493 C489 1.385 1_665 S
C493 C492 1.374 . S
C494 C491 1.499 . S
C494 C495 1.373 1_455 S
C494 C496 1.389 . S
C495 H474 0.950 . S
C495 C494 1.373 1_655 S
C495 C511 1.377 . S
C496 C494 1.389 . S
C496 C497 1.524 . S
C496 C510 1.377 . S
C497 C496 1.524 . S
C497 C498 1.397 1_545 S
C497 C502 1.363 . S
C498 H475 0.950 . S
C498 C497 1.397 1_565 S
C498 C499 1.334 . S
C499 H476 0.950 . S
C499 C498 1.334 . S
C499 C500 1.287 . S
C500 C499 1.287 . S
C500 C501 1.524 1_565 S
C500 H519 0.913 . S
C501 H477 0.950 . S
C501 C500 1.524 1_545 S
C501 C502 1.415 . S
C502 H478 0.950 . S
C502 C497 1.363 . S
C502 C501 1.415 . S
C503 H479 0.951 . S
C503 C504 1.366 1_655 S
C503 C505 1.388 . S
C504 C503 1.366 1_455 S
C504 C508 1.385 . S
C505 H480 0.951 . S
C505 C503 1.388 . S
C505 C506 1.366 1_655 S
C506 C505 1.366 1_455 S
C506 C507 1.414 . S
C506 C509 1.499 . S
C507 H481 0.950 . S
C507 C506 1.414 . S
C507 C508 1.374 . S
C508 H482 0.950 . S
C508 C504 1.385 . S
C508 C507 1.374 . S
C509 C506 1.499 . S
C509 C510 1.373 . S
C509 C511 1.389 1_455 S
C510 H483 0.950 . S
C510 C496 1.377 . S
C510 C509 1.373 . S
C511 C495 1.377 . S
C511 C509 1.389 1_655 S
C511 C512 1.524 . S
C512 C511 1.524 . S
C512 C513 1.397 . S
C512 C517 1.363 . S
C513 H484 0.950 1_655 S
C513 C512 1.397 . S
C513 C514 1.334 . S
C514 H485 0.950 . S
C514 C513 1.334 . S
C514 C515 1.287 . S
C515 C514 1.287 . S
C515 C516 1.524 . S
C515 H518 0.999 . S
C516 H486 0.950 . S
C516 C515 1.524 . S
C516 C517 1.415 . S
C517 H487 0.950 . S
C517 C512 1.363 . S
C517 C516 1.415 . S
H518 C515 0.999 . S
H519 C500 0.913 . S
H520 C538 0.951 . S
H521 C540 0.951 . S
H522 C542 0.950 . S
H523 C543 0.961 . S
H524 C545 0.950 . S
H525 C548 0.950 . S
H526 C549 0.950 . S
H527 C551 0.950 . S
H528 C552 0.950 . S
H529 C553 0.963 . S
H530 C555 0.937 1_655 S
H531 C557 0.950 . S
H532 C558 0.950 . S
H533 C560 0.950 1_565 S
H534 C563 0.950 . S
H535 C564 0.950 . S
H536 C566 0.950 . S
H537 C567 0.950 1_655 S
C538 H520 0.951 . S
C538 C539 1.366 . S
C538 C540 1.388 . S
C539 C538 1.366 . S
C539 C543 1.372 1_455 S
C540 H521 0.951 . S
C540 C538 1.388 . S
C540 C541 1.366 . S
C541 C540 1.366 . S
C541 C542 1.414 1_455 S
C541 C544 1.499 . S
C542 H522 0.950 . S
C542 C541 1.414 1_655 S
C542 C543 1.376 . S
C543 H523 0.961 . S
C543 C539 1.372 1_655 S
C543 C542 1.376 . S
C544 C541 1.499 . S
C544 C545 1.373 . S
C544 C546 1.389 . S
C545 H524 0.950 . S
C545 C544 1.373 . S
C545 C561 1.377 . S
C546 C544 1.389 . S
C546 C547 1.524 1_545 S
C546 C560 1.377 . S
C547 C546 1.524 1_565 S
C547 C548 1.397 1_455 S
C547 C552 1.363 . S
C548 H525 0.950 . S
C548 C547 1.397 1_655 S
C548 C549 1.334 . S
C549 H526 0.950 . S
C549 C548 1.334 . S
C549 C550 1.287 . S
C550 C549 1.287 . S
C550 C551 1.524 1_655 S
C550 H569 0.913 . S
C551 H527 0.950 . S
C551 C550 1.524 1_455 S
C551 C552 1.415 . S
C552 H528 0.950 . S
C552 C547 1.363 . S
C552 C551 1.415 . S
C553 H529 0.963 . S
C553 C554 1.356 1_655 S
C553 C555 1.384 1_655 S
C554 C553 1.356 1_455 S
C554 C558 1.385 . S
C555 H530 0.937 1_455 S
C555 C553 1.384 1_455 S
C555 C556 1.381 . S
C556 C555 1.381 . S
C556 C557 1.414 . S
C556 C559 1.499 . S
C557 H531 0.950 . S
C557 C556 1.414 . S
C557 C558 1.374 . S
C558 H532 0.950 . S
C558 C554 1.385 . S
C558 C557 1.374 . S
C559 C556 1.499 . S
C559 C560 1.373 . S
C559 C561 1.389 . S
C560 H533 0.950 1_545 S
C560 C546 1.377 . S
C560 C559 1.373 . S
C561 C545 1.377 . S
C561 C559 1.389 . S
C561 C562 1.524 . S
C562 C561 1.524 . S
C562 C563 1.397 . S
C562 C567 1.363 . S
C563 H534 0.950 . S
C563 C562 1.397 . S
C563 C564 1.334 . S
C564 H535 0.950 . S
C564 C563 1.334 . S
C564 C565 1.287 . S
C565 C564 1.287 . S
C565 C566 1.524 . S
C565 H568 0.999 . S
C566 H536 0.950 . S
C566 C565 1.524 . S
C566 C567 1.415 . S
C567 H537 0.950 1_455 S
C567 C562 1.363 . S
C567 C566 1.415 . S
H568 C565 0.999 . S
H569 C550 0.913 . S
C139 C31 2.858 . S
C154 C20 2.858 . S
C189 C44 0.404 . S
C204 C65 0.404 . S
C239 C100 4.776 . S
C254 C111 4.776 . S
C289 C84 0.590 . S
C304 C105 0.590 . S
C339 C4 1.131 1_556 S
C354 C25 1.134 . S
C389 C71 2.832 . S
C404 C60 2.832 . S
C439 C63 1.491 1_455 S
C454 C23 1.493 . S
C489 C42 1.489 . S
C504 C82 1.500 . S
C539 C103 1.471 . S
C554 C2 1.485 . S
