# Generated by pormake.
# Topology srs-a, (3)-cn, num edge types: 1
# Building blocks:
#     Node 0, Type 0, BuildingBlock: OLANEW_clean_sbu_2, # of connection points: 3
#     Node 1, Type 0, BuildingBlock: OLANEW_clean_sbu_2, # of connection points: 3
#     Node 2, Type 0, BuildingBlock: OLANEW_clean_sbu_2, # of connection points: 3
#     Node 3, Type 0, BuildingBlock: OLANEW_clean_sbu_2, # of connection points: 3
#     Node 4, Type 0, BuildingBlock: OLANEW_clean_sbu_2, # of connection points: 3
#     Node 5, Type 0, BuildingBlock: OLANEW_clean_sbu_2, # of connection points: 3
#     Node 6, Type 0, BuildingBlock: OLANEW_clean_sbu_2, # of connection points: 3
#     Node 7, Type 0, BuildingBlock: OLANEW_clean_sbu_2, # of connection points: 3
#     Node 8, Type 0, BuildingBlock: OLANEW_clean_sbu_2, # of connection points: 3
#     Node 9, Type 0, BuildingBlock: OLANEW_clean_sbu_2, # of connection points: 3
#     Node 10, Type 0, BuildingBlock: OLANEW_clean_sbu_2, # of connection points: 3
#     Node 11, Type 0, BuildingBlock: OLANEW_clean_sbu_2, # of connection points: 3
#     Node 12, Type 0, BuildingBlock: OLANEW_clean_sbu_2, # of connection points: 3
#     Node 13, Type 0, BuildingBlock: OLANEW_clean_sbu_2, # of connection points: 3
#     Node 14, Type 0, BuildingBlock: OLANEW_clean_sbu_2, # of connection points: 3
#     Node 15, Type 0, BuildingBlock: OLANEW_clean_sbu_2, # of connection points: 3
#     Node 16, Type 0, BuildingBlock: OLANEW_clean_sbu_2, # of connection points: 3
#     Node 17, Type 0, BuildingBlock: OLANEW_clean_sbu_2, # of connection points: 3
#     Node 18, Type 0, BuildingBlock: OLANEW_clean_sbu_2, # of connection points: 3
#     Node 19, Type 0, BuildingBlock: OLANEW_clean_sbu_2, # of connection points: 3
#     Node 20, Type 0, BuildingBlock: OLANEW_clean_sbu_2, # of connection points: 3
#     Node 21, Type 0, BuildingBlock: OLANEW_clean_sbu_2, # of connection points: 3
#     Node 22, Type 0, BuildingBlock: OLANEW_clean_sbu_2, # of connection points: 3
#     Node 23, Type 0, BuildingBlock: OLANEW_clean_sbu_2, # of connection points: 3
#     Edge 24, Type (0, 0), BuildingBlock: MIFKUJ_clean_linker_0, # of connection points: 2
#     Edge 25, Type (0, 0), BuildingBlock: MIFKUJ_clean_linker_0, # of connection points: 2
#     Edge 26, Type (0, 0), BuildingBlock: MIFKUJ_clean_linker_0, # of connection points: 2
#     Edge 27, Type (0, 0), BuildingBlock: MIFKUJ_clean_linker_0, # of connection points: 2
#     Edge 28, Type (0, 0), BuildingBlock: MIFKUJ_clean_linker_0, # of connection points: 2
#     Edge 29, Type (0, 0), BuildingBlock: MIFKUJ_clean_linker_0, # of connection points: 2
#     Edge 30, Type (0, 0), BuildingBlock: MIFKUJ_clean_linker_0, # of connection points: 2
#     Edge 31, Type (0, 0), BuildingBlock: MIFKUJ_clean_linker_0, # of connection points: 2
#     Edge 32, Type (0, 0), BuildingBlock: MIFKUJ_clean_linker_0, # of connection points: 2
#     Edge 33, Type (0, 0), BuildingBlock: MIFKUJ_clean_linker_0, # of connection points: 2
#     Edge 34, Type (0, 0), BuildingBlock: MIFKUJ_clean_linker_0, # of connection points: 2
#     Edge 35, Type (0, 0), BuildingBlock: MIFKUJ_clean_linker_0, # of connection points: 2
#     Edge 36, Type (0, 0), BuildingBlock: MIFKUJ_clean_linker_0, # of connection points: 2
#     Edge 37, Type (0, 0), BuildingBlock: MIFKUJ_clean_linker_0, # of connection points: 2
#     Edge 38, Type (0, 0), BuildingBlock: MIFKUJ_clean_linker_0, # of connection points: 2
#     Edge 39, Type (0, 0), BuildingBlock: MIFKUJ_clean_linker_0, # of connection points: 2
#     Edge 40, Type (0, 0), BuildingBlock: MIFKUJ_clean_linker_0, # of connection points: 2
#     Edge 41, Type (0, 0), BuildingBlock: MIFKUJ_clean_linker_0, # of connection points: 2
#     Edge 42, Type (0, 0), BuildingBlock: MIFKUJ_clean_linker_0, # of connection points: 2
#     Edge 43, Type (0, 0), BuildingBlock: MIFKUJ_clean_linker_0, # of connection points: 2
#     Edge 44, Type (0, 0), BuildingBlock: MIFKUJ_clean_linker_0, # of connection points: 2
#     Edge 45, Type (0, 0), BuildingBlock: MIFKUJ_clean_linker_0, # of connection points: 2
#     Edge 46, Type (0, 0), BuildingBlock: MIFKUJ_clean_linker_0, # of connection points: 2
#     Edge 47, Type (0, 0), BuildingBlock: MIFKUJ_clean_linker_0, # of connection points: 2
#     Edge 48, Type (0, 0), BuildingBlock: MIFKUJ_clean_linker_0, # of connection points: 2
#     Edge 49, Type (0, 0), BuildingBlock: MIFKUJ_clean_linker_0, # of connection points: 2
#     Edge 50, Type (0, 0), BuildingBlock: MIFKUJ_clean_linker_0, # of connection points: 2
#     Edge 51, Type (0, 0), BuildingBlock: MIFKUJ_clean_linker_0, # of connection points: 2
#     Edge 52, Type (0, 0), BuildingBlock: MIFKUJ_clean_linker_0, # of connection points: 2
#     Edge 53, Type (0, 0), BuildingBlock: MIFKUJ_clean_linker_0, # of connection points: 2
#     Edge 54, Type (0, 0), BuildingBlock: MIFKUJ_clean_linker_0, # of connection points: 2
#     Edge 55, Type (0, 0), BuildingBlock: MIFKUJ_clean_linker_0, # of connection points: 2
#     Edge 56, Type (0, 0), BuildingBlock: MIFKUJ_clean_linker_0, # of connection points: 2
#     Edge 57, Type (0, 0), BuildingBlock: MIFKUJ_clean_linker_0, # of connection points: 2
#     Edge 58, Type (0, 0), BuildingBlock: MIFKUJ_clean_linker_0, # of connection points: 2
#     Edge 59, Type (0, 0), BuildingBlock: MIFKUJ_clean_linker_0, # of connection points: 2
# Relax obj value: 0.156
# Max RMSD: 0.196
# Mean RMSD: 0.173
data_MOF--net-srs-a--node1-OLANEW_clean_sbu_2--edge1-MIFKUJ_clean_linker_0
_symmetry_space_group_name_H-M    P1
_symmetry_Int_Tables_number       1
_symmetry_cell_setting            triclinic
loop_
_symmetry_equiv_pos_as_xyz
'x, y, z'
_cell_length_a     105.41832
_cell_length_b     108.99763
_cell_length_c     104.66415
_cell_angle_alpha  89.958427
_cell_angle_beta   87.200876
_cell_angle_gamma 91.40701
loop_
_atom_site_label
_atom_site_type_symbol
_atom_site_fract_x
_atom_site_fract_y
_atom_site_fract_z
_atom_type_partial_charge
O0 O 0.03125 0.1825 0.19911 0.0
Cd1 Cd 0.01103 0.19073 0.20703 0.0
O2 O 0.02243 0.1641 0.19763 0.0
Cd3 Cd 0.02493 0.14439 0.19478 0.0
O4 O 0.03267 0.12598 0.19508 0.0
C5 C 0.04426 0.12508 0.1977 0.0
O6 O 0.0509 0.13512 0.2 0.0
C7 C 0.03213 0.17123 0.19624 0.0
C8 C 0.00913 0.21534 0.20026 0.0
O9 O 0.01394 0.21227 0.21078 0.0
O10 O 0.00518 0.20676 0.19298 0.0
O11 O 0.11679 0.67531 0.34707 0.0
Cd12 Cd 0.10945 0.65544 0.33914 0.0
O13 O 0.09692 0.68077 0.34772 0.0
Cd14 Cd 0.08057 0.69209 0.35305 0.0
O15 O 0.06121 0.69771 0.35845 0.0
C16 C 0.05565 0.70643 0.35312 0.0
O17 O 0.04361 0.70827 0.35613 0.0
C18 C 0.10851 0.68334 0.34964 0.0
C19 C 0.09314 0.64384 0.35743 0.0
O20 O 0.10511 0.64198 0.35703 0.0
O21 O 0.08887 0.65108 0.34909 0.0
O22 O 0.54603 0.91997 0.5489 0.0
Cd23 Cd 0.56452 0.90704 0.54585 0.0
O24 O 0.53455 0.90609 0.53924 0.0
Cd25 Cd 0.51722 0.89963 0.53045 0.0
O26 O 0.50115 0.8957 0.5186 0.0
C27 C 0.50038 0.90205 0.50849 0.0
O28 O 0.50913 0.91057 0.5058 0.0
C29 C 0.53535 0.91632 0.54502 0.0
C30 C 0.57133 0.89803 0.56941 0.0
O31 O 0.5762 0.9081 0.56488 0.0
O32 O 0.56337 0.89213 0.5627 0.0
O33 O 0.44261 0.12927 0.84344 0.0
Cd34 Cd 0.45449 0.13448 0.86223 0.0
O35 O 0.42591 0.12561 0.85629 0.0
Cd36 Cd 0.40652 0.11872 0.86057 0.0
O37 O 0.38924 0.10877 0.86718 0.0
C38 C 0.38872 0.09719 0.86576 0.0
O39 O 0.39841 0.09176 0.86001 0.0
C40 C 0.43095 0.12615 0.84501 0.0
C41 C 0.47257 0.15312 0.85696 0.0
O42 O 0.4755 0.14181 0.85599 0.0
O43 O 0.4611 0.15561 0.86045 0.0
O44 O 0.07118 0.99402 0.16369 0.0
Cd45 Cd 0.05373 0.98038 0.17145 0.0
O46 O 0.077 0.99513 0.18347 0.0
Cd47 Cd 0.08971 0.00011 0.19872 0.0
O48 O 0.10023 0.00032 0.21627 0.0
C49 C 0.10032 0.00943 0.22384 0.0
O50 O 0.10565 0.00845 0.23486 0.0
C51 C 0.0787 0.99829 0.1718 0.0
C52 C 0.06213 0.95769 0.17947 0.0
O53 O 0.0585 0.95918 0.16808 0.0
O54 O 0.06184 0.96694 0.18704 0.0
O55 O 0.18207 0.82415 0.38992 0.0
Cd56 Cd 0.18434 0.8158 0.41133 0.0
O57 O 0.16385 0.83276 0.39479 0.0
Cd58 Cd 0.16077 0.82012 0.41083 0.0
O59 O 0.15349 0.80122 0.41021 0.0
C60 C 0.14434 0.79968 0.40285 0.0
O61 O 0.13977 0.80936 0.39736 0.0
C62 C 0.17324 0.8312 0.38693 0.0
C63 C 0.20894 0.82143 0.41837 0.0
O64 O 0.20617 0.81092 0.41362 0.0
O65 O 0.20001 0.8291 0.42011 0.0
O66 O 0.41559 0.98305 0.57839 0.0
Cd67 Cd 0.39441 0.99173 0.57797 0.0
O68 O 0.42432 0.99682 0.5651 0.0
Cd69 Cd 0.40565 0.00187 0.5591 0.0
O70 O 0.39249 0.99266 0.54655 0.0
C71 C 0.39173 0.98108 0.54799 0.0
O72 O 0.39804 0.97607 0.55709 0.0
C73 C 0.42543 0.98772 0.57255 0.0
C74 C 0.39057 0.01015 0.59611 0.0
O75 O 0.38735 0.99896 0.59866 0.0
O76 O 0.39566 0.0126 0.585 0.0
O77 O 0.29333 0.02015 0.94358 0.0
Cd78 Cd 0.27686 0.00783 0.95513 0.0
O79 O 0.28104 0.02091 0.9273 0.0
Cd80 Cd 0.2761 0.02736 0.90841 0.0
O81 O 0.27769 0.03451 0.88891 0.0
C82 C 0.28463 0.02886 0.88069 0.0
O83 O 0.29002 0.01869 0.88408 0.0
C84 C 0.2915 0.02374 0.93228 0.0
C85 C 0.26809 0.0195 0.97741 0.0
O86 O 0.27738 0.01213 0.97753 0.0
O87 O 0.26293 0.02131 0.96676 0.0
O88 O 0.12653 0.83249 0.26044 0.0
Cd89 Cd 0.11462 0.82426 0.24279 0.0
O90 O 0.14326 0.8215 0.25549 0.0
Cd91 Cd 0.1314 0.80775 0.24639 0.0
O92 O 0.12109 0.79212 0.25545 0.0
C93 C 0.11917 0.79337 0.26747 0.0
O94 O 0.12307 0.8036 0.27284 0.0
C95 C 0.13811 0.83009 0.26194 0.0
C96 C 0.10465 0.8438 0.22963 0.0
O97 O 0.09795 0.838 0.23834 0.0
O98 O 0.11595 0.8402 0.22697 0.0
O99 O 0.36209 0.88555 0.45272 0.0
Cd100 Cd 0.36302 0.86939 0.43655 0.0
O101 O 0.35943 0.90033 0.43885 0.0
Cd102 Cd 0.36702 0.88824 0.424 0.0
O103 O 0.38617 0.88341 0.42876 0.0
C104 C 0.39456 0.89199 0.4279 0.0
O105 O 0.39164 0.90246 0.42271 0.0
C106 C 0.35982 0.89674 0.45039 0.0
C107 C 0.33863 0.86011 0.43288 0.0
O108 O 0.34599 0.85464 0.44031 0.0
O109 O 0.34287 0.86983 0.42707 0.0
O110 O 0.36622 0.12543 0.72185 0.0
Cd111 Cd 0.35509 0.12609 0.70194 0.0
O112 O 0.35291 0.1107 0.72827 0.0
Cd113 Cd 0.344 0.09811 0.74243 0.0
O114 O 0.33575 0.08697 0.75813 0.0
C115 C 0.32599 0.09068 0.76446 0.0
O116 O 0.32101 0.1011 0.76123 0.0
C117 C 0.36237 0.11775 0.7304 0.0
C118 C 0.36186 0.10697 0.68548 0.0
O119 O 0.3677 0.11743 0.68472 0.0
O120 O 0.35285 0.10556 0.69406 0.0
O121 O 0.19256 0.07304 0.12443 0.0
Cd122 Cd 0.21084 0.0856 0.11668 0.0
O123 O 0.18252 0.08984 0.12957 0.0
Cd124 Cd 0.16565 0.09982 0.13585 0.0
O125 O 0.14848 0.10929 0.14204 0.0
C126 C 0.14743 0.11361 0.1533 0.0
O127 O 0.15677 0.11223 0.161 0.0
C128 C 0.18268 0.07819 0.12905 0.0
C129 C 0.22115 0.07636 0.09374 0.0
O130 O 0.2252 0.07296 0.1045 0.0
O131 O 0.2123 0.08422 0.09383 0.0
O132 O 0.60332 0.40955 0.00445 0.0
Cd133 Cd 0.61266 0.39536 0.01923 0.0
O134 O 0.59983 0.39454 0.99109 0.0
Cd135 Cd 0.59424 0.3857 0.97336 0.0
O136 O 0.5899 0.3737 0.95735 0.0
C137 C 0.59524 0.3754 0.94632 0.0
O138 O 0.60323 0.38475 0.9445 0.0
C139 C 0.59899 0.40584 0.99397 0.0
C140 C 0.6383 0.4007 0.02255 0.0
O141 O 0.6349 0.39276 0.01428 0.0
O142 O 0.62959 0.40613 0.02919 0.0
O143 O 0.84405 0.3589 0.2538 0.0
Cd144 Cd 0.82675 0.35666 0.27008 0.0
O145 O 0.83661 0.37663 0.24816 0.0
Cd146 Cd 0.83618 0.39194 0.23472 0.0
O147 O 0.83359 0.40252 0.21739 0.0
C148 C 0.82351 0.4085 0.21622 0.0
O149 O 0.81501 0.40867 0.22582 0.0
C150 C 0.84486 0.36838 0.2467 0.0
C151 C 0.83145 0.3704 0.29188 0.0
O152 O 0.83517 0.35932 0.29076 0.0
O153 O 0.8255 0.37497 0.28268 0.0
O154 O 0.84336 0.54243 0.62111 0.0
Cd155 Cd 0.83069 0.54232 0.64128 0.0
O156 O 0.82611 0.53653 0.61168 0.0
Cd157 Cd 0.81745 0.52875 0.59496 0.0
O158 O 0.82041 0.51775 0.57784 0.0
C159 C 0.83049 0.51158 0.57763 0.0
O160 O 0.83762 0.51205 0.58757 0.0
C161 C 0.8379 0.53934 0.611 0.0
C162 C 0.82357 0.56568 0.64919 0.0
O163 O 0.83383 0.561 0.65286 0.0
O164 O 0.81675 0.55934 0.64168 0.0
O165 O 0.87599 0.46693 0.42635 0.0
Cd166 Cd 0.85723 0.45324 0.42818 0.0
O167 O 0.88985 0.45247 0.42876 0.0
Cd168 Cd 0.87455 0.44063 0.43658 0.0
O169 O 0.86567 0.44526 0.45511 0.0
C170 C 0.87339 0.44963 0.463 0.0
O171 O 0.88558 0.45008 0.45968 0.0
C172 C 0.88747 0.46361 0.42646 0.0
C173 C 0.85366 0.44007 0.40574 0.0
O174 O 0.84878 0.45063 0.40748 0.0
O175 O 0.86024 0.43575 0.41461 0.0
O176 O 0.53416 0.50696 0.92706 0.0
Cd177 Cd 0.52263 0.52149 0.91447 0.0
O178 O 0.53293 0.49489 0.91044 0.0
Cd179 Cd 0.53707 0.47835 0.8994 0.0
O180 O 0.54079 0.46149 0.88882 0.0
C181 C 0.53935 0.45125 0.89457 0.0
O182 O 0.53569 0.45112 0.90675 0.0
C183 C 0.53642 0.49671 0.92176 0.0
C184 C 0.53792 0.54093 0.90493 0.0
O185 O 0.53124 0.54198 0.91542 0.0
O186 O 0.53746 0.53066 0.89901 0.0
O187 O 0.61346 0.8367 0.72384 0.0
Cd188 Cd 0.59699 0.85195 0.72264 0.0
O189 O 0.60022 0.82508 0.73563 0.0
Cd190 Cd 0.5968 0.80916 0.74813 0.0
O191 O 0.59867 0.79436 0.76189 0.0
C192 C 0.60977 0.7919 0.7652 0.0
O193 O 0.61951 0.79831 0.76021 0.0
C194 C 0.61108 0.82681 0.73002 0.0
C195 C 0.59377 0.85904 0.69745 0.0
O196 O 0.60163 0.86482 0.70439 0.0
O197 O 0.58742 0.84993 0.70245 0.0
O198 O 0.58691 0.2812 0.84171 0.0
Cd199 Cd 0.58413 0.26765 0.82342 0.0
O200 O 0.57163 0.29207 0.83446 0.0
Cd201 Cd 0.55805 0.30687 0.83523 0.0
O202 O 0.55159 0.325 0.84065 0.0
C203 C 0.55505 0.33431 0.83394 0.0
O204 O 0.56185 0.33274 0.82323 0.0
C205 C 0.57985 0.29046 0.84278 0.0
C206 C 0.566 0.2491 0.82888 0.0
O207 O 0.57783 0.24734 0.83029 0.0
O208 O 0.56275 0.25963 0.8249 0.0
O209 O 0.96686 0.37005 0.17028 0.0
Cd210 Cd 0.98759 0.36569 0.16012 0.0
O211 O 0.95787 0.36326 0.15312 0.0
Cd212 Cd 0.9418 0.36017 0.14098 0.0
O213 O 0.92715 0.36179 0.12708 0.0
C214 C 0.9303 0.36641 0.1162 0.0
O215 O 0.94225 0.36964 0.11365 0.0
C216 C 0.95685 0.36758 0.1644 0.0
C217 C 0.99372 0.34156 0.16548 0.0
O218 O 0.99701 0.35039 0.17279 0.0
O219 O 0.98771 0.34418 0.15552 0.0
O220 O 0.98047 0.56104 0.46499 0.0
Cd221 Cd 0.99257 0.57819 0.47381 0.0
O222 O 0.96409 0.565 0.47797 0.0
Cd223 Cd 0.94516 0.56054 0.48666 0.0
O224 O 0.9275 0.55591 0.49769 0.0
C225 C 0.92683 0.54637 0.50471 0.0
O226 O 0.93674 0.5393 0.50494 0.0
C227 C 0.96912 0.5586 0.46902 0.0
C228 C 0.0092 0.58895 0.45523 0.0
O229 O 0.01281 0.58029 0.46241 0.0
O230 O 0.99775 0.59254 0.45689 0.0
O231 O 0.64153 0.66351 0.83112 0.0
Cd232 Cd 0.62312 0.66648 0.84581 0.0
O233 O 0.65546 0.66414 0.84611 0.0
Cd234 Cd 0.64095 0.67101 0.85959 0.0
O235 O 0.63216 0.68852 0.8561 0.0
C236 C 0.63995 0.69626 0.85079 0.0
O237 O 0.65195 0.69332 0.84926 0.0
C238 C 0.65295 0.66272 0.83442 0.0
C239 C 0.61062 0.64474 0.85358 0.0
O240 O 0.62036 0.64878 0.85929 0.0
O241 O 0.6069 0.6509 0.84408 0.0
O242 O 0.79365 0.43154 0.08116 0.0
Cd243 Cd 0.79311 0.4312 0.05783 0.0
O244 O 0.80837 0.44617 0.08117 0.0
Cd245 Cd 0.81363 0.44284 0.06109 0.0
O246 O 0.82805 0.42967 0.05531 0.0
C247 C 0.82657 0.41928 0.06077 0.0
O248 O 0.81612 0.41709 0.06785 0.0
C249 C 0.80042 0.43912 0.08728 0.0
C250 C 0.76856 0.42629 0.05013 0.0
O251 O 0.7765 0.41765 0.05104 0.0
O252 O 0.77226 0.43724 0.05278 0.0
O253 O 0.7549 0.69201 0.73352 0.0
Cd254 Cd 0.76963 0.69917 0.71621 0.0
O255 O 0.7407 0.7051 0.72787 0.0
Cd256 Cd 0.72279 0.71473 0.73077 0.0
O257 O 0.70652 0.72673 0.73323 0.0
C258 C 0.70824 0.73736 0.73794 0.0
O259 O 0.71965 0.74064 0.74139 0.0
C260 C 0.74394 0.6965 0.73516 0.0
C261 C 0.7798 0.67919 0.70302 0.0
O262 O 0.78531 0.68386 0.71259 0.0
O263 O 0.76957 0.68409 0.69958 0.0
H264 H 0.08425 0.02286 0.23895 0.0
H265 H 0.07414 0.04203 0.23342 0.0
H266 H 0.09339 0.04143 0.19608 0.0
H267 H 0.10311 0.02198 0.2015 0.0
H268 H 0.08321 0.06348 0.22831 0.0
H269 H 0.07707 0.05623 0.17433 0.0
H270 H 0.07299 0.0396 0.15897 0.0
H271 H 0.05469 0.01779 0.18902 0.0
H272 H 0.05856 0.03434 0.20454 0.0
H273 H 0.0691 0.12026 0.20143 0.0
H274 H 0.07851 0.10038 0.20452 0.0
H275 H 0.04211 0.08243 0.20002 0.0
H276 H 0.03263 0.10236 0.19653 0.0
H277 H 0.06025 0.06945 0.1886 0.0
H278 H 0.05386 0.08864 0.22977 0.0
H279 H 0.05611 0.10536 0.24542 0.0
H280 H 0.09668 0.10229 0.24252 0.0
H281 H 0.09466 0.08559 0.2268 0.0
C282 C 0.08619 0.02679 0.22952 0.0
C283 C 0.09418 0.02089 0.22051 0.0
C284 C 0.08045 0.03774 0.22637 0.0
C285 C 0.08281 0.04308 0.21423 0.0
C286 C 0.09109 0.0373 0.20534 0.0
C287 C 0.09664 0.02623 0.20842 0.0
C288 C 0.07694 0.05491 0.21109 0.0
C289 C 0.07817 0.06474 0.21963 0.0
C290 C 0.07033 0.05662 0.19978 0.0
C291 C 0.06815 0.04651 0.1906 0.0
C292 C 0.07213 0.0479 0.17765 0.0
C293 C 0.06984 0.0385 0.16891 0.0
C294 C 0.0635 0.02769 0.173 0.0
C295 C 0.05955 0.0262 0.18586 0.0
C296 C 0.06183 0.03557 0.19464 0.0
C297 C 0.0631 0.11211 0.20094 0.0
C298 C 0.05009 0.11292 0.19881 0.0
C299 C 0.06851 0.10072 0.20275 0.0
C300 C 0.061 0.08992 0.20269 0.0
C301 C 0.04809 0.09065 0.20013 0.0
C302 C 0.04268 0.10205 0.19819 0.0
C303 C 0.06649 0.07794 0.20585 0.0
C304 C 0.06528 0.06813 0.19728 0.0
C305 C 0.07293 0.07617 0.21725 0.0
C306 C 0.07412 0.08598 0.22698 0.0
C307 C 0.06326 0.09157 0.23242 0.0
C308 C 0.06449 0.10104 0.24132 0.0
C309 C 0.07653 0.10492 0.24493 0.0
C310 C 0.08736 0.09929 0.2397 0.0
C311 C 0.08618 0.08982 0.23081 0.0
H312 H 0.07746 0.11226 0.2518 0.0
H313 H 0.06171 0.02044 0.16622 0.0
H314 H 0.12452 0.79372 0.38808 0.0
H315 H 0.11824 0.77346 0.38042 0.0
H316 H 0.14751 0.75715 0.40177 0.0
H317 H 0.15399 0.7775 0.40941 0.0
H318 H 0.14796 0.74919 0.37718 0.0
H319 H 0.11645 0.75326 0.41137 0.0
H320 H 0.09939 0.76338 0.42406 0.0
H321 H 0.07624 0.76335 0.39142 0.0
H322 H 0.09323 0.75339 0.37848 0.0
H323 H 0.12762 0.68762 0.36573 0.0
H324 H 0.13363 0.70711 0.37566 0.0
H325 H 0.10434 0.72525 0.35596 0.0
H326 H 0.09839 0.70573 0.34594 0.0
H327 H 0.10398 0.73183 0.38069 0.0
H328 H 0.1354 0.72913 0.3462 0.0
H329 H 0.15231 0.71938 0.33293 0.0
H330 H 0.17539 0.71725 0.3655 0.0
H331 H 0.15856 0.72686 0.379 0.0
C332 C 0.12955 0.78583 0.39128 0.0
C333 C 0.13978 0.78724 0.39935 0.0
C334 C 0.12591 0.77423 0.38693 0.0
C335 C 0.13235 0.76378 0.39059 0.0
C336 C 0.1424 0.76511 0.39884 0.0
C337 C 0.14605 0.77673 0.40324 0.0
C338 C 0.12899 0.7516 0.38522 0.0
C339 C 0.1384 0.74528 0.37815 0.0
C340 C 0.11642 0.74669 0.38616 0.0
C341 C 0.10617 0.75267 0.39393 0.0
C342 C 0.10777 0.7555 0.40687 0.0
C343 C 0.0981 0.76119 0.41411 0.0
C344 C 0.08675 0.76403 0.40854 0.0
C345 C 0.08504 0.76116 0.39572 0.0
C346 C 0.09468 0.75548 0.38843 0.0
C347 C 0.12249 0.69579 0.3635 0.0
C348 C 0.11232 0.69516 0.35533 0.0
C349 C 0.12594 0.70691 0.36915 0.0
C350 C 0.11942 0.71764 0.36654 0.0
C351 C 0.10939 0.71705 0.35821 0.0
C352 C 0.1059 0.70591 0.35262 0.0
C353 C 0.12295 0.72944 0.37263 0.0
C354 C 0.11357 0.7357 0.37981 0.0
C355 C 0.13552 0.73434 0.37172 0.0
C356 C 0.14567 0.72859 0.36363 0.0
C357 C 0.14404 0.72648 0.35055 0.0
C358 C 0.15362 0.721 0.34299 0.0
C359 C 0.1649 0.71766 0.34838 0.0
C360 C 0.16664 0.71983 0.36134 0.0
C361 C 0.15709 0.7253 0.36895 0.0
H362 H 0.1723 0.71342 0.34251 0.0
H363 H 0.07928 0.76844 0.41417 0.0
H364 H 0.51107 0.90856 0.5513 0.0
H365 H 0.49272 0.9212 0.55647 0.0
H366 H 0.51595 0.95392 0.5495 0.0
H367 H 0.53441 0.94124 0.54461 0.0
H368 H 0.50263 0.95694 0.57015 0.0
H369 H 0.49249 0.94321 0.52849 0.0
H370 H 0.48787 0.92935 0.5106 0.0
H371 H 0.45718 0.91232 0.53314 0.0
H372 H 0.4617 0.92598 0.55122 0.0
H373 H 0.44893 0.99654 0.56419 0.0
H374 H 0.46838 0.98481 0.56119 0.0
H375 H 0.44904 0.95299 0.57803 0.0
H376 H 0.42965 0.96466 0.58128 0.0
H377 H 0.46027 0.94995 0.55248 0.0
H378 H 0.47086 0.96498 0.59398 0.0
H379 H 0.4745 0.98096 0.61015 0.0
H380 H 0.50424 0.99731 0.5858 0.0
H381 H 0.50065 0.98152 0.5694 0.0
C382 C 0.51217 0.91844 0.55056 0.0
C383 C 0.52408 0.92393 0.5473 0.0
C384 C 0.50168 0.92568 0.55356 0.0
C385 C 0.50286 0.93855 0.55318 0.0
C386 C 0.51477 0.94403 0.54985 0.0
C387 C 0.5253 0.93679 0.54702 0.0
C388 C 0.49185 0.94627 0.55689 0.0
C389 C 0.49342 0.9555 0.56612 0.0
C390 C 0.47973 0.9443 0.55185 0.0
C391 C 0.47751 0.93556 0.54126 0.0
C392 C 0.48488 0.93639 0.5297 0.0
C393 C 0.48224 0.9286 0.51951 0.0
C394 C 0.47223 0.91998 0.52074 0.0
C395 C 0.46493 0.91902 0.53221 0.0
C396 C 0.46752 0.92678 0.54243 0.0
C397 C 0.44891 0.98714 0.56753 0.0
C398 C 0.43773 0.98151 0.5729 0.0
C399 C 0.46002 0.98046 0.56582 0.0
C400 C 0.46008 0.96804 0.56934 0.0
C401 C 0.44914 0.96257 0.57525 0.0
C402 C 0.4381 0.96928 0.57715 0.0
C403 C 0.47111 0.96045 0.5657 0.0
C404 C 0.46951 0.9513 0.55648 0.0
C405 C 0.48322 0.96264 0.57055 0.0
C406 C 0.48539 0.97214 0.58041 0.0
C407 C 0.47809 0.97205 0.59202 0.0
C408 C 0.48017 0.98106 0.60124 0.0
C409 C 0.48957 0.99016 0.59899 0.0
C410 C 0.49694 0.99026 0.58752 0.0
C411 C 0.4949 0.98128 0.57827 0.0
H412 H 0.49117 0.99713 0.60614 0.0
H413 H 0.47005 0.9141 0.51278 0.0
H414 H 0.36741 0.10549 0.87865 0.0
H415 H 0.35045 0.0932 0.88959 0.0
H416 H 0.36842 0.06004 0.87657 0.0
H417 H 0.38546 0.07223 0.86568 0.0
H418 H 0.3332 0.07628 0.88174 0.0
H419 H 0.3654 0.03904 0.90096 0.0
H420 H 0.38759 0.03681 0.90689 0.0
H421 H 0.39028 0.07533 0.91523 0.0
H422 H 0.36806 0.07775 0.90952 0.0
H423 H 0.29796 0.02356 0.9067 0.0
H424 H 0.31351 0.03691 0.89497 0.0
H425 H 0.32403 0.05333 0.93054 0.0
H426 H 0.30793 0.04046 0.94219 0.0
H427 H 0.34471 0.04647 0.91485 0.0
H428 H 0.30603 0.06773 0.91234 0.0
H429 H 0.28394 0.07158 0.90722 0.0
H430 H 0.29392 0.06815 0.86717 0.0
H431 H 0.31583 0.06333 0.87204 0.0
C432 C 0.36771 0.09558 0.87804 0.0
C433 C 0.37787 0.08984 0.87142 0.0
C434 C 0.35799 0.08858 0.88426 0.0
C435 C 0.35828 0.07572 0.88405 0.0
C436 C 0.36813 0.06996 0.87703 0.0
C437 C 0.37784 0.07695 0.87078 0.0
C438 C 0.3485 0.06833 0.8915 0.0
C439 C 0.33568 0.06969 0.88892 0.0
C440 C 0.35179 0.05996 0.90106 0.0
C441 C 0.36511 0.05858 0.90469 0.0
C442 C 0.37071 0.04702 0.90411 0.0
C443 C 0.3833 0.04572 0.90742 0.0
C444 C 0.39036 0.05593 0.91139 0.0
C445 C 0.38482 0.06744 0.91211 0.0
C446 C 0.37224 0.06878 0.90882 0.0
C447 C 0.30323 0.03034 0.91193 0.0
C448 C 0.30133 0.03136 0.92525 0.0
C449 C 0.31227 0.03781 0.90526 0.0
C450 C 0.31978 0.04623 0.91188 0.0
C451 C 0.31825 0.04694 0.92526 0.0
C452 C 0.30908 0.03959 0.93189 0.0
C453 C 0.32937 0.05418 0.90488 0.0
C454 C 0.34219 0.05294 0.90757 0.0
C455 C 0.32603 0.06275 0.89551 0.0
C456 C 0.3126 0.06493 0.8926 0.0
C457 C 0.30346 0.06742 0.90245 0.0
C458 C 0.29093 0.06975 0.89959 0.0
C459 C 0.28747 0.06992 0.88688 0.0
C460 C 0.29653 0.06774 0.87702 0.0
C461 C 0.30899 0.06513 0.87983 0.0
H462 H 0.27779 0.07185 0.88467 0.0
H463 H 0.4001 0.05491 0.91395 0.0
H464 H 0.04689 0.71457 0.33073 0.0
H465 H 0.05805 0.72798 0.31484 0.0
H466 H 0.09046 0.73013 0.33845 0.0
H467 H 0.0794 0.71642 0.35415 0.0
H468 H 0.06594 0.75054 0.31625 0.0
H469 H 0.11748 0.7351 0.3208 0.0
H470 H 0.1289 0.71649 0.32633 0.0
H471 H 0.09824 0.69388 0.31333 0.0
H472 H 0.08671 0.71234 0.30752 0.0
H473 H 0.111 0.79485 0.2925 0.0
H474 H 0.10047 0.77888 0.3058 0.0
H475 H 0.10267 0.75365 0.27411 0.0
H476 H 0.11316 0.76969 0.26059 0.0
H477 H 0.10966 0.74358 0.29842 0.0
H478 H 0.07572 0.76518 0.27996 0.0
H479 H 0.06404 0.78357 0.27428 0.0
H480 H 0.05877 0.79279 0.31404 0.0
H481 H 0.07059 0.77454 0.31995 0.0
C482 C 0.05646 0.71781 0.33242 0.0
C483 C 0.06246 0.71427 0.34346 0.0
C484 C 0.06281 0.72548 0.32337 0.0
C485 C 0.07521 0.72988 0.32532 0.0
C486 C 0.08108 0.72654 0.33653 0.0
C487 C 0.0748 0.71871 0.34547 0.0
C488 C 0.08176 0.73836 0.31587 0.0
C489 C 0.07547 0.74895 0.31232 0.0
C490 C 0.0942 0.7363 0.31067 0.0
C491 C 0.10121 0.72512 0.31377 0.0
C492 C 0.11322 0.72616 0.31902 0.0
C493 C 0.11971 0.71564 0.32221 0.0
C494 C 0.11431 0.70402 0.32017 0.0
C495 C 0.10241 0.70289 0.3149 0.0
C496 C 0.0959 0.71338 0.31166 0.0
C497 C 0.10927 0.78592 0.28832 0.0
C498 C 0.11284 0.78357 0.27544 0.0
C499 C 0.10325 0.7768 0.29595 0.0
C500 C 0.10076 0.76512 0.29092 0.0
C501 C 0.10453 0.76262 0.27816 0.0
C502 C 0.11045 0.7718 0.27044 0.0
C503 C 0.09383 0.75571 0.29895 0.0
C504 C 0.10008 0.74503 0.30229 0.0
C505 C 0.08132 0.75761 0.3039 0.0
C506 C 0.07413 0.76855 0.30039 0.0
C507 C 0.07216 0.77118 0.28749 0.0
C508 C 0.0655 0.78157 0.28423 0.0
C509 C 0.06069 0.78936 0.29379 0.0
C510 C 0.06251 0.78676 0.30664 0.0
C511 C 0.06917 0.77638 0.30995 0.0
H512 H 0.05553 0.7974 0.29125 0.0
H513 H 0.11933 0.69589 0.3227 0.0
H514 H 0.40026 0.87522 0.44608 0.0
H515 H 0.41872 0.87565 0.45939 0.0
H516 H 0.43418 0.90714 0.43848 0.0
H517 H 0.4157 0.90687 0.42521 0.0
H518 H 0.45239 0.88959 0.44364 0.0
H519 H 0.41899 0.91176 0.46543 0.0
H520 H 0.39745 0.91471 0.47499 0.0
H521 H 0.40264 0.88546 0.50158 0.0
H522 H 0.42411 0.88212 0.49196 0.0
H523 H 0.49584 0.91449 0.48661 0.0
H524 H 0.47825 0.9113 0.47256 0.0
H525 H 0.46329 0.88184 0.49684 0.0
H526 H 0.48084 0.88503 0.51104 0.0
H527 H 0.44477 0.89721 0.4901 0.0
H528 H 0.47845 0.87541 0.46866 0.0
H529 H 0.50003 0.87261 0.4591 0.0
H530 H 0.49439 0.90139 0.43208 0.0
H531 H 0.47283 0.90448 0.44159 0.0
C532 C 0.40769 0.88211 0.44417 0.0
C533 C 0.40651 0.89105 0.43463 0.0
C534 C 0.41819 0.88238 0.45183 0.0
C535 C 0.42771 0.89151 0.45001 0.0
C536 C 0.42689 0.90004 0.44006 0.0
C537 C 0.41633 0.89988 0.43249 0.0
C538 C 0.43827 0.89254 0.4588 0.0
C539 C 0.45075 0.89136 0.45378 0.0
C540 C 0.43605 0.89461 0.47207 0.0
C541 C 0.42311 0.89657 0.47784 0.0
C542 C 0.41549 0.90585 0.47321 0.0
C543 C 0.4033 0.90762 0.47867 0.0
C544 C 0.39867 0.90025 0.48887 0.0
C545 C 0.40623 0.89113 0.49365 0.0
C546 C 0.41841 0.88929 0.48819 0.0
C547 C 0.48886 0.90728 0.48895 0.0
C548 C 0.48979 0.89996 0.49991 0.0
C549 C 0.47881 0.90546 0.48089 0.0
C550 C 0.46954 0.89623 0.48357 0.0
C551 C 0.47037 0.88898 0.49457 0.0
C552 C 0.48043 0.89079 0.50264 0.0
C553 C 0.45893 0.89428 0.47494 0.0
C554 C 0.44642 0.89533 0.47998 0.0
C555 C 0.46111 0.8921 0.46169 0.0
C556 C 0.47406 0.89024 0.45592 0.0
C557 C 0.48185 0.88121 0.46074 0.0
C558 C 0.49407 0.87956 0.45532 0.0
C559 C 0.49859 0.88684 0.44501 0.0
C560 C 0.49088 0.89577 0.44008 0.0
C561 C 0.47865 0.89746 0.44547 0.0
H562 H 0.50805 0.88555 0.44082 0.0
H563 H 0.38923 0.90162 0.49309 0.0
H564 H 0.40638 0.13188 0.84137 0.0
H565 H 0.39437 0.12816 0.82233 0.0
H566 H 0.42665 0.11029 0.8043 0.0
H567 H 0.43881 0.11434 0.82326 0.0
H568 H 0.41789 0.12511 0.78833 0.0
H569 H 0.39856 0.09386 0.81539 0.0
H570 H 0.38827 0.08567 0.8354 0.0
H571 H 0.35702 0.10967 0.83143 0.0
H572 H 0.36712 0.11803 0.81141 0.0
H573 H 0.36627 0.09771 0.74544 0.0
H574 H 0.37725 0.09723 0.76551 0.0
H575 H 0.38423 0.13634 0.76286 0.0
H576 H 0.37316 0.13687 0.74288 0.0
H577 H 0.37379 0.10806 0.78884 0.0
H578 H 0.41358 0.14307 0.77217 0.0
H579 H 0.42493 0.14987 0.75214 0.0
H580 H 0.41705 0.11489 0.735 0.0
H581 H 0.40581 0.10784 0.75499 0.0
C582 C 0.4108 0.12691 0.83346 0.0
C583 C 0.42344 0.1232 0.83385 0.0
C584 C 0.40393 0.12479 0.82256 0.0
C585 C 0.40951 0.11873 0.81193 0.0
C586 C 0.42212 0.11494 0.81238 0.0
C587 C 0.42906 0.11724 0.8232 0.0
C588 C 0.40247 0.11708 0.80005 0.0
C589 C 0.40828 0.12132 0.78847 0.0
C590 C 0.38998 0.11195 0.80014 0.0
C591 C 0.38365 0.10663 0.81194 0.0
C592 C 0.38951 0.09742 0.8188 0.0
C593 C 0.38371 0.09275 0.83015 0.0
C594 C 0.37204 0.0972 0.83473 0.0
C595 C 0.36609 0.10626 0.8279 0.0
C596 C 0.37181 0.11093 0.81652 0.0
C597 C 0.36984 0.10625 0.74932 0.0
C598 C 0.36865 0.11737 0.74272 0.0
C599 C 0.3762 0.10594 0.76074 0.0
C600 C 0.38161 0.11673 0.76566 0.0
C601 C 0.38025 0.12787 0.75917 0.0
C602 C 0.37393 0.12817 0.74776 0.0
C603 C 0.38916 0.11633 0.77725 0.0
C604 C 0.38344 0.11174 0.78874 0.0
C605 C 0.40186 0.12086 0.77706 0.0
C606 C 0.40875 0.12498 0.76504 0.0
C607 C 0.41432 0.13682 0.76415 0.0
C608 C 0.42072 0.14072 0.7528 0.0
C609 C 0.42168 0.13283 0.74229 0.0
C610 C 0.41626 0.12101 0.74313 0.0
C611 C 0.40986 0.11706 0.75446 0.0
H612 H 0.42664 0.13587 0.73351 0.0
H613 H 0.36757 0.09358 0.84351 0.0
H614 H 0.14224 0.12409 0.17665 0.0
H615 H 0.12301 0.13461 0.18386 0.0
H616 H 0.10701 0.12793 0.14726 0.0
H617 H 0.12647 0.11795 0.13978 0.0
H618 H 0.10195 0.14992 0.15424 0.0
H619 H 0.09813 0.11099 0.17448 0.0
H620 H 0.10476 0.09349 0.18728 0.0
H621 H 0.10604 0.11648 0.22049 0.0
H622 H 0.0997 0.13422 0.20783 0.0
H623 H 0.03662 0.1565 0.17573 0.0
H624 H 0.05695 0.14785 0.16831 0.0
H625 H 0.0755 0.16614 0.19907 0.0
H626 H 0.05519 0.1751 0.20633 0.0
H627 H 0.07935 0.13899 0.19551 0.0
H628 H 0.0822 0.17779 0.17321 0.0
H629 H 0.07435 0.1939 0.15929 0.0
H630 H 0.07218 0.16811 0.12843 0.0
H631 H 0.07984 0.15178 0.14225 0.0
C632 C 0.13464 0.12488 0.17012 0.0
C633 C 0.13582 0.12005 0.15768 0.0
C634 C 0.12361 0.13083 0.17429 0.0
C635 C 0.11345 0.13187 0.16619 0.0
C636 C 0.11469 0.12721 0.1537 0.0
C637 C 0.12579 0.12142 0.14947 0.0
C638 C 0.10158 0.13793 0.17068 0.0
C639 C 0.09692 0.14736 0.16317 0.0
C640 C 0.09503 0.1347 0.1824 0.0
C641 C 0.09865 0.124 0.19014 0.0
C642 C 0.09996 0.11236 0.18448 0.0
C643 C 0.10368 0.1024 0.1917 0.0
C644 C 0.10596 0.10391 0.20465 0.0
C645 C 0.10437 0.11535 0.21043 0.0
C646 C 0.10072 0.12537 0.20323 0.0
C647 C 0.04506 0.15869 0.18086 0.0
C648 C 0.04441 0.16635 0.19163 0.0
C649 C 0.05663 0.15381 0.17659 0.0
C650 C 0.06766 0.15638 0.18317 0.0
C651 C 0.06705 0.16408 0.19391 0.0
C652 C 0.05551 0.16919 0.198 0.0
C653 C 0.07973 0.1507 0.17898 0.0
C654 C 0.08439 0.14138 0.18655 0.0
C655 C 0.08602 0.15372 0.16714 0.0
C656 C 0.08147 0.16353 0.15881 0.0
C657 C 0.07993 0.17552 0.1635 0.0
C658 C 0.07554 0.1847 0.15562 0.0
C659 C 0.07274 0.18202 0.14299 0.0
C660 C 0.07435 0.17016 0.13822 0.0
C661 C 0.07872 0.16095 0.14607 0.0
H662 H 0.06934 0.18914 0.13691 0.0
H663 H 0.10887 0.09619 0.21021 0.0
H664 H 0.09282 0.9979 0.14932 0.0
H665 H 0.11028 0.01204 0.1424 0.0
H666 H 0.10534 0.03213 0.17769 0.0
H667 H 0.08777 0.01806 0.18454 0.0
H668 H 0.10819 0.04724 0.15629 0.0
H669 H 0.12913 0.01342 0.17469 0.0
H670 H 0.13406 0.99164 0.17764 0.0
H671 H 0.14753 0.9894 0.13835 0.0
H672 H 0.1425 0.01114 0.13511 0.0
H673 H 0.16654 0.08194 0.14985 0.0
H674 H 0.14833 0.06903 0.15726 0.0
H675 H 0.15555 0.04438 0.12561 0.0
H676 H 0.17391 0.05716 0.11836 0.0
H677 H 0.15135 0.03171 0.1461 0.0
H678 H 0.13014 0.06533 0.12735 0.0
H679 H 0.12394 0.08669 0.12382 0.0
H680 H 0.11045 0.08931 0.16307 0.0
H681 H 0.11671 0.06799 0.16689 0.0
C682 C 0.09551 0.00531 0.15561 0.0
C683 C 0.08924 0.00672 0.16764 0.0
C684 C 0.10547 0.01335 0.15166 0.0
C685 C 0.1092 0.02301 0.15963 0.0
C686 C 0.10269 0.02464 0.17149 0.0
C687 C 0.09283 0.01652 0.17548 0.0
C688 C 0.11994 0.03137 0.15561 0.0
C689 C 0.11769 0.04392 0.15421 0.0
C690 C 0.13223 0.02694 0.15269 0.0
C691 C 0.13532 0.01388 0.15462 0.0
C692 C 0.13304 0.00826 0.16665 0.0
C693 C 0.13587 0.99592 0.16838 0.0
C694 C 0.14107 0.98913 0.15818 0.0
C695 C 0.14349 0.99467 0.14623 0.0
C696 C 0.14066 0.007 0.14445 0.0
C697 C 0.16406 0.0739 0.14435 0.0
C698 C 0.17147 0.07065 0.1334 0.0
C699 C 0.15367 0.0665 0.1486 0.0
C700 C 0.15041 0.05581 0.14188 0.0
C701 C 0.15785 0.05258 0.13095 0.0
C702 C 0.16832 0.05989 0.1268 0.0
C703 C 0.13963 0.04766 0.14651 0.0
C704 C 0.14188 0.03512 0.14813 0.0
C705 C 0.12733 0.05212 0.14958 0.0
C706 C 0.12401 0.06509 0.14743 0.0
C707 C 0.126 0.0705 0.13527 0.0
C708 C 0.12244 0.08259 0.13321 0.0
C709 C 0.11679 0.08933 0.14321 0.0
C710 C 0.11481 0.08406 0.15534 0.0
C711 C 0.11836 0.07197 0.15745 0.0
H712 H 0.11384 0.09859 0.14154 0.0
H713 H 0.14326 0.97958 0.15954 0.0
H714 H 0.1632 0.82816 0.26697 0.0
H715 H 0.17305 0.83363 0.28688 0.0
H716 H 0.13831 0.85015 0.30086 0.0
H717 H 0.12845 0.84496 0.28087 0.0
H718 H 0.1593 0.86185 0.31042 0.0
H719 H 0.14213 0.82075 0.30657 0.0
H720 H 0.13952 0.80057 0.29623 0.0
H721 H 0.17924 0.79402 0.29944 0.0
H722 H 0.18212 0.81425 0.30964 0.0
H723 H 0.15499 0.8451 0.37661 0.0
H724 H 0.15306 0.85001 0.35403 0.0
H725 H 0.18924 0.83368 0.34496 0.0
H726 H 0.19125 0.82868 0.3675 0.0
H727 H 0.17015 0.82324 0.33208 0.0
H728 H 0.18556 0.86401 0.34008 0.0
H729 H 0.18641 0.8839 0.35123 0.0
H730 H 0.14813 0.89081 0.3415 0.0
H731 H 0.14698 0.87087 0.33044 0.0
C732 C 0.15776 0.83327 0.27412 0.0
C733 C 0.14495 0.83589 0.27246 0.0
C734 C 0.16342 0.8364 0.28549 0.0
C735 C 0.15631 0.84204 0.29544 0.0
C736 C 0.14394 0.84575 0.29331 0.0
C737 C 0.1383 0.84272 0.28189 0.0
C738 C 0.16095 0.84227 0.30856 0.0
C739 C 0.16169 0.85343 0.31519 0.0
C740 C 0.16409 0.83128 0.31474 0.0
C741 C 0.16237 0.81906 0.30872 0.0
C742 C 0.15033 0.81504 0.30498 0.0
C743 C 0.14879 0.8036 0.29916 0.0
C744 C 0.15922 0.79604 0.29714 0.0
C745 C 0.17119 0.7999 0.30098 0.0
C746 C 0.17277 0.81135 0.30679 0.0
C747 C 0.16269 0.84282 0.36987 0.0
C748 C 0.17319 0.83633 0.37383 0.0
C749 C 0.1616 0.8457 0.35696 0.0
C750 C 0.17101 0.8422 0.34782 0.0
C751 C 0.18188 0.83646 0.35187 0.0
C752 C 0.18299 0.8336 0.36476 0.0
C753 C 0.16862 0.84284 0.33401 0.0
C754 C 0.16812 0.83174 0.32726 0.0
C755 C 0.16548 0.85387 0.32789 0.0
C756 C 0.16615 0.86589 0.3345 0.0
C757 C 0.17728 0.86972 0.3404 0.0
C758 C 0.17783 0.88102 0.34669 0.0
C759 C 0.16733 0.88861 0.34709 0.0
C760 C 0.15626 0.88492 0.34118 0.0
C761 C 0.15566 0.87363 0.33488 0.0
H762 H 0.16777 0.89735 0.35197 0.0
H763 H 0.15802 0.78718 0.29263 0.0
H764 H 0.38704 0.95646 0.54979 0.0
H765 H 0.37888 0.94285 0.53348 0.0
H766 H 0.37384 0.97391 0.50884 0.0
H767 H 0.38186 0.9877 0.52526 0.0
H768 H 0.35445 0.95712 0.50726 0.0
H769 H 0.39978 0.95703 0.50529 0.0
H770 H 0.42141 0.95487 0.51279 0.0
H771 H 0.41312 0.91709 0.52228 0.0
H772 H 0.39134 0.9191 0.51511 0.0
H773 H 0.35674 0.92161 0.44892 0.0
H774 H 0.35902 0.93659 0.4661 0.0
H775 H 0.36377 0.90719 0.49293 0.0
H776 H 0.3616 0.89219 0.47587 0.0
H777 H 0.38308 0.92397 0.49271 0.0
H778 H 0.33739 0.92437 0.49471 0.0
H779 H 0.31627 0.92661 0.48598 0.0
H780 H 0.32597 0.96375 0.47495 0.0
H781 H 0.34723 0.96167 0.48346 0.0
C782 C 0.38406 0.96044 0.54097 0.0
C783 C 0.38525 0.97315 0.53875 0.0
C784 C 0.37943 0.95263 0.53165 0.0
C785 C 0.37601 0.95734 0.51986 0.0
C786 C 0.37651 0.97009 0.51786 0.0
C787 C 0.3811 0.97795 0.52724 0.0
C788 C 0.37259 0.94887 0.50944 0.0
C789 C 0.36076 0.94994 0.50398 0.0
C790 C 0.38079 0.93943 0.50524 0.0
C791 C 0.39383 0.93828 0.50984 0.0
C792 C 0.40249 0.94831 0.50915 0.0
C793 C 0.4148 0.9471 0.51331 0.0
C794 C 0.41862 0.93587 0.51806 0.0
C795 C 0.41014 0.92581 0.51865 0.0
C796 C 0.3978 0.92698 0.51455 0.0
C797 C 0.35801 0.91832 0.45853 0.0
C798 C 0.35908 0.9057 0.461 0.0
C799 C 0.35927 0.92689 0.46834 0.0
C800 C 0.36156 0.92299 0.48078 0.0
C801 C 0.36202 0.91038 0.48338 0.0
C802 C 0.36075 0.90182 0.47361 0.0
C803 C 0.36482 0.93196 0.49079 0.0
C804 C 0.37672 0.93107 0.49607 0.0
C805 C 0.35674 0.94156 0.49471 0.0
C806 C 0.34395 0.94282 0.48961 0.0
C807 C 0.33506 0.93298 0.49032 0.0
C808 C 0.32306 0.93423 0.48543 0.0
C809 C 0.31979 0.9453 0.47988 0.0
C810 C 0.32852 0.95517 0.47924 0.0
C811 C 0.34055 0.95397 0.48411 0.0
H812 H 0.31049 0.94625 0.4761 0.0
H813 H 0.42817 0.93494 0.52125 0.0
H814 H 0.27274 0.04769 0.86926 0.0
H815 H 0.27867 0.05741 0.8487 0.0
H816 H 0.30888 0.03174 0.84258 0.0
H817 H 0.3031 0.02208 0.86316 0.0
H818 H 0.31745 0.05435 0.83811 0.0
H819 H 0.28144 0.03012 0.82564 0.0
H820 H 0.2592 0.02247 0.82704 0.0
H821 H 0.24623 0.05902 0.82137 0.0
H822 H 0.2684 0.06692 0.8201 0.0
H823 H 0.33417 0.06893 0.7737 0.0
H824 H 0.32598 0.0578 0.79273 0.0
H825 H 0.29769 0.08527 0.79961 0.0
H826 H 0.30571 0.09641 0.78046 0.0
H827 H 0.28793 0.06196 0.80361 0.0
H828 H 0.3242 0.08599 0.81567 0.0
H829 H 0.3465 0.09326 0.81321 0.0
H830 H 0.35911 0.0567 0.81958 0.0
H831 H 0.33686 0.04913 0.82172 0.0
C832 C 0.28056 0.04404 0.86346 0.0
C833 C 0.28748 0.03414 0.86784 0.0
C834 C 0.28389 0.04955 0.85168 0.0
C835 C 0.29419 0.04527 0.84407 0.0
C836 C 0.30093 0.03523 0.84831 0.0
C837 C 0.29757 0.02968 0.86006 0.0
C838 C 0.29836 0.0516 0.83197 0.0
C839 C 0.31103 0.05584 0.83049 0.0
C840 C 0.28991 0.05386 0.82218 0.0
C841 C 0.27657 0.04912 0.8229 0.0
C842 C 0.27384 0.03654 0.82479 0.0
C843 C 0.26125 0.03216 0.82554 0.0
C844 C 0.25131 0.04026 0.82433 0.0
C845 C 0.25394 0.05276 0.82232 0.0
C846 C 0.26652 0.05719 0.82158 0.0
C847 C 0.32616 0.07258 0.77921 0.0
C848 C 0.32065 0.08361 0.77562 0.0
C849 C 0.32151 0.06622 0.7901 0.0
C850 C 0.31134 0.0708 0.79766 0.0
C851 C 0.30557 0.08159 0.7939 0.0
C852 C 0.3102 0.08797 0.78299 0.0
C853 C 0.30702 0.06455 0.80973 0.0
C854 C 0.29433 0.06041 0.81123 0.0
C855 C 0.31546 0.06235 0.81954 0.0
C856 C 0.32885 0.06696 0.81871 0.0
C857 C 0.33173 0.07948 0.81648 0.0
C858 C 0.34436 0.08366 0.81514 0.0
C859 C 0.35422 0.07544 0.81621 0.0
C860 C 0.35146 0.06305 0.81872 0.0
C861 C 0.33884 0.0588 0.81998 0.0
H862 H 0.364 0.07867 0.81508 0.0
H863 H 0.24157 0.03685 0.82491 0.0
H864 H 0.57949 0.35504 0.94704 0.0
H865 H 0.57663 0.33991 0.93013 0.0
H866 H 0.60294 0.36057 0.90509 0.0
H867 H 0.60593 0.3757 0.92196 0.0
H868 H 0.56786 0.34156 0.90671 0.0
H869 H 0.61985 0.34099 0.88628 0.0
H870 H 0.64154 0.34411 0.89373 0.0
H871 H 0.62856 0.33357 0.93179 0.0
H872 H 0.60684 0.33023 0.92453 0.0
H873 H 0.57619 0.31535 0.84355 0.0
H874 H 0.57733 0.32895 0.86207 0.0
H875 H 0.58931 0.29877 0.88485 0.0
H876 H 0.58727 0.28492 0.8666 0.0
H877 H 0.60476 0.32092 0.88575 0.0
H878 H 0.56164 0.3066 0.88983 0.0
H879 H 0.53957 0.30272 0.88393 0.0
H880 H 0.53402 0.34147 0.88085 0.0
H881 H 0.55625 0.3456 0.88609 0.0
C882 C 0.58466 0.35639 0.93792 0.0
C883 C 0.59301 0.36654 0.93588 0.0
C884 C 0.58299 0.34773 0.92827 0.0
C885 C 0.58971 0.349 0.91641 0.0
C886 C 0.59784 0.35927 0.91425 0.0
C887 C 0.59949 0.36795 0.92389 0.0
C888 C 0.58814 0.33964 0.90628 0.0
C889 C 0.57592 0.33705 0.9021 0.0
C890 C 0.59865 0.33362 0.90044 0.0
C891 C 0.61171 0.33546 0.90487 0.0
C892 C 0.62164 0.33928 0.89623 0.0
C893 C 0.63394 0.3411 0.90042 0.0
C894 C 0.63642 0.33907 0.91323 0.0
C895 C 0.62662 0.33518 0.92187 0.0
C896 C 0.61431 0.33334 0.91773 0.0
C897 C 0.5785 0.31148 0.85263 0.0
C898 C 0.58105 0.29893 0.85376 0.0
C899 C 0.57939 0.31932 0.86314 0.0
C900 C 0.58322 0.3148 0.87486 0.0
C901 C 0.58623 0.30239 0.8759 0.0
C902 C 0.58509 0.2945 0.86547 0.0
C903 C 0.58451 0.32312 0.88593 0.0
C904 C 0.5967 0.32547 0.8903 0.0
C905 C 0.57394 0.32889 0.89197 0.0
C906 C 0.56073 0.3264 0.88816 0.0
C907 C 0.55583 0.3143 0.8876 0.0
C908 C 0.54327 0.31205 0.88439 0.0
C909 C 0.53542 0.32184 0.88195 0.0
C910 C 0.54012 0.33389 0.8827 0.0
C911 C 0.55274 0.33619 0.88569 0.0
H912 H 0.52567 0.32008 0.87953 0.0
H913 H 0.64594 0.34049 0.91646 0.0
H914 H 0.95023 0.38592 0.18082 0.0
H915 H 0.93008 0.38803 0.19317 0.0
H916 H 0.91533 0.35524 0.17549 0.0
H917 H 0.93534 0.35332 0.16289 0.0
H918 H 0.89706 0.37098 0.17845 0.0
H919 H 0.92808 0.35488 0.20555 0.0
H920 H 0.94851 0.35435 0.21604 0.0
H921 H 0.94048 0.38862 0.23457 0.0
H922 H 0.92006 0.38943 0.22406 0.0
H923 H 0.85423 0.3506 0.23092 0.0
H924 H 0.87213 0.3525 0.21505 0.0
H925 H 0.87711 0.39068 0.2248 0.0
H926 H 0.85905 0.3889 0.24046 0.0
H927 H 0.89968 0.3736 0.22559 0.0
H928 H 0.8671 0.38803 0.19898 0.0
H929 H 0.84645 0.38681 0.18888 0.0
H930 H 0.85724 0.35343 0.17001 0.0
H931 H 0.87788 0.35432 0.18016 0.0
C932 C 0.9426 0.37928 0.17945 0.0
C933 C 0.94429 0.36952 0.17083 0.0
C934 C 0.93112 0.38045 0.18654 0.0
C935 C 0.92125 0.37167 0.18543 0.0
C936 C 0.92278 0.36215 0.17649 0.0
C937 C 0.9342 0.36109 0.16924 0.0
C938 C 0.90964 0.372 0.19408 0.0
C939 C 0.89765 0.37146 0.18876 0.0
C940 C 0.91036 0.37276 0.20755 0.0
C941 C 0.92262 0.37228 0.2139 0.0
C942 C 0.93072 0.36235 0.21179 0.0
C943 C 0.94228 0.36199 0.21775 0.0
C944 C 0.94581 0.37146 0.22594 0.0
C945 C 0.93775 0.3813 0.22821 0.0
C946 C 0.92618 0.38171 0.22226 0.0
C947 C 0.85907 0.35942 0.22955 0.0
C948 C 0.85521 0.36964 0.23677 0.0
C949 C 0.86922 0.3605 0.22048 0.0
C950 C 0.87582 0.37175 0.21873 0.0
C951 C 0.87203 0.38196 0.22596 0.0
C952 C 0.8617 0.38095 0.23483 0.0
C953 C 0.88721 0.3726 0.20994 0.0
C954 C 0.89914 0.37326 0.21527 0.0
C955 C 0.88641 0.37174 0.19654 0.0
C956 C 0.87399 0.37117 0.19045 0.0
C957 C 0.86502 0.38035 0.19279 0.0
C958 C 0.85333 0.37974 0.18703 0.0
C959 C 0.85053 0.37004 0.17884 0.0
C960 C 0.85942 0.36093 0.17637 0.0
C961 C 0.87112 0.36149 0.18212 0.0
H962 H 0.84149 0.36958 0.17438 0.0
H963 H 0.95476 0.37117 0.23054 0.0
H964 H 0.9237 0.52863 0.52316 0.0
H965 H 0.90587 0.52573 0.5387 0.0
H966 H 0.88626 0.55514 0.5211 0.0
H967 H 0.90424 0.5583 0.50571 0.0
H968 H 0.88591 0.55875 0.54523 0.0
H969 H 0.87653 0.52483 0.51956 0.0
H970 H 0.87832 0.5056 0.50736 0.0
H971 H 0.88554 0.48598 0.54171 0.0
H972 H 0.88398 0.50512 0.55414 0.0
H973 H 0.83118 0.5472 0.5876 0.0
H974 H 0.84383 0.54649 0.5673 0.0
H975 H 0.87393 0.52903 0.58638 0.0
H976 H 0.86141 0.52993 0.60676 0.0
H977 H 0.86606 0.51908 0.55968 0.0
H978 H 0.87931 0.55581 0.58344 0.0
H979 H 0.87463 0.57509 0.59487 0.0
H980 H 0.85728 0.5891 0.56175 0.0
H981 H 0.86171 0.56981 0.5502 0.0
C982 C 0.91553 0.53439 0.52248 0.0
C983 C 0.91545 0.54377 0.51326 0.0
C984 C 0.90528 0.53266 0.53134 0.0
C985 C 0.89465 0.54016 0.53105 0.0
C986 C 0.89436 0.54924 0.52154 0.0
C987 C 0.90465 0.55104 0.51274 0.0
C988 C 0.88447 0.53931 0.5414 0.0
C989 C 0.88143 0.55006 0.54817 0.0
C990 C 0.8786 0.52799 0.54536 0.0
C991 C 0.88027 0.51651 0.5378 0.0
C992 C 0.87878 0.51649 0.5245 0.0
C993 C 0.87967 0.50557 0.51755 0.0
C994 C 0.8821 0.49459 0.52375 0.0
C995 C 0.88369 0.49451 0.53691 0.0
C996 C 0.88277 0.50539 0.54393 0.0
C997 C 0.84042 0.54306 0.58741 0.0
C998 C 0.84532 0.53856 0.5987 0.0
C999 C 0.84761 0.54266 0.57583 0.0
C1000 C 0.85974 0.53761 0.57536 0.0
C1001 C 0.86453 0.53284 0.58656 0.0
C1002 C 0.85744 0.53347 0.59818 0.0
C1003 C 0.86795 0.53838 0.56349 0.0
C1004 C 0.87054 0.52768 0.55651 0.0
C1005 C 0.87325 0.54973 0.55912 0.0
C1006 C 0.8707 0.56133 0.56603 0.0
C1007 C 0.87439 0.56296 0.57865 0.0
C1008 C 0.87181 0.57389 0.58514 0.0
C1009 C 0.86562 0.5833 0.57906 0.0
C1010 C 0.86205 0.5818 0.56646 0.0
C1011 C 0.8646 0.57087 0.55994 0.0
H1012 H 0.86363 0.59175 0.5841 0.0
H1013 H 0.8827 0.48613 0.51836 0.0
H1014 H 0.91284 0.4602 0.42927 0.0
H1015 H 0.92887 0.47604 0.43352 0.0
H1016 H 0.90161 0.5041 0.42759 0.0
H1017 H 0.88557 0.48836 0.42314 0.0
H1018 H 0.92515 0.51172 0.41926 0.0
H1019 H 0.90515 0.49382 0.45703 0.0
H1020 H 0.89785 0.47697 0.47151 0.0
H1021 H 0.93644 0.46634 0.47535 0.0
H1022 H 0.94396 0.48306 0.46072 0.0
H1023 H 0.94435 0.55828 0.46289 0.0
H1024 H 0.93248 0.54149 0.45298 0.0
H1025 H 0.96584 0.51933 0.45214 0.0
H1026 H 0.97784 0.5362 0.46191 0.0
H1027 H 0.94097 0.50814 0.46299 0.0
H1028 H 0.96022 0.52906 0.42594 0.0
H1029 H 0.96556 0.54726 0.41255 0.0
H1030 H 0.92589 0.55373 0.40886 0.0
H1031 H 0.92031 0.53567 0.42241 0.0
C1032 C 0.91033 0.46974 0.42853 0.0
C1033 C 0.89786 0.47301 0.42607 0.0
C1034 C 0.9195 0.47878 0.43102 0.0
C1035 C 0.91633 0.49121 0.43115 0.0
C1036 C 0.90423 0.49455 0.42761 0.0
C1037 C 0.89506 0.48552 0.42509 0.0
C1038 C 0.92508 0.50061 0.4363 0.0
C1039 C 0.9286 0.51094 0.42882 0.0
C1040 C 0.92956 0.4996 0.4488 0.0
C1041 C 0.92511 0.48958 0.45766 0.0
C1042 C 0.91208 0.48783 0.46088 0.0
C1043 C 0.9079 0.47831 0.46913 0.0
C1044 C 0.91667 0.47056 0.47431 0.0
C1045 C 0.92965 0.47234 0.4713 0.0
C1046 C 0.93388 0.48183 0.46303 0.0
C1047 C 0.9491 0.54977 0.46073 0.0
C1048 C 0.96193 0.54842 0.46332 0.0
C1049 C 0.94236 0.54026 0.45497 0.0
C1050 C 0.94832 0.52923 0.45184 0.0
C1051 C 0.96111 0.52781 0.4545 0.0
C1052 C 0.96793 0.53742 0.46004 0.0
C1053 C 0.94108 0.51916 0.44592 0.0
C1054 C 0.93774 0.50876 0.45333 0.0
C1055 C 0.93652 0.52026 0.4335 0.0
C1056 C 0.93985 0.53108 0.42529 0.0
C1057 C 0.95263 0.53443 0.42237 0.0
C1058 C 0.9557 0.54471 0.41473 0.0
C1059 C 0.94607 0.55166 0.40988 0.0
C1060 C 0.93334 0.54834 0.41263 0.0
C1061 C 0.93022 0.53808 0.42028 0.0
H1062 H 0.94846 0.55961 0.40396 0.0
H1063 H 0.91342 0.4632 0.4807 0.0
H1064 H 0.54665 0.44823 0.86932 0.0
H1065 H 0.54983 0.42891 0.85786 0.0
H1066 H 0.54002 0.40871 0.89256 0.0
H1067 H 0.53701 0.42795 0.90413 0.0
H1068 H 0.56053 0.39951 0.88015 0.0
H1069 H 0.51872 0.41183 0.86912 0.0
H1070 H 0.50321 0.42595 0.86068 0.0
H1071 H 0.52356 0.42625 0.82412 0.0
H1072 H 0.53929 0.41225 0.8324 0.0
H1073 H 0.54525 0.34053 0.85746 0.0
H1074 H 0.54321 0.36108 0.86652 0.0
H1075 H 0.55733 0.3769 0.83066 0.0
H1076 H 0.55959 0.35629 0.82158 0.0
H1077 H 0.53606 0.389 0.84216 0.0
H1078 H 0.57664 0.37504 0.85257 0.0
H1079 H 0.59222 0.361 0.86094 0.0
H1080 H 0.57474 0.36424 0.89867 0.0
H1081 H 0.55875 0.37787 0.89045 0.0
C1082 C 0.54519 0.43967 0.87452 0.0
C1083 C 0.54151 0.43962 0.88762 0.0
C1084 C 0.54696 0.42865 0.86794 0.0
C1085 C 0.54501 0.41738 0.87433 0.0
C1086 C 0.54155 0.41731 0.88745 0.0
C1087 C 0.5398 0.42832 0.89403 0.0
C1088 C 0.54655 0.40562 0.8674 0.0
C1089 C 0.55507 0.39714 0.87193 0.0
C1090 C 0.53973 0.40273 0.85642 0.0
C1091 C 0.53025 0.4111 0.85142 0.0
C1092 C 0.51994 0.41498 0.85931 0.0
C1093 C 0.5111 0.42295 0.85455 0.0
C1094 C 0.51242 0.42702 0.84188 0.0
C1095 C 0.52256 0.42311 0.83394 0.0
C1096 C 0.53143 0.41515 0.83866 0.0
C1097 C 0.54784 0.34838 0.85149 0.0
C1098 C 0.55268 0.34679 0.83887 0.0
C1099 C 0.54669 0.3601 0.85667 0.0
C1100 C 0.55025 0.37047 0.84928 0.0
C1101 C 0.55457 0.36898 0.8365 0.0
C1102 C 0.55588 0.35722 0.83135 0.0
C1103 C 0.5498 0.38281 0.85512 0.0
C1104 C 0.54154 0.39139 0.85035 0.0
C1105 C 0.55687 0.3858 0.86589 0.0
C1106 C 0.56637 0.37738 0.87084 0.0
C1107 C 0.57597 0.3726 0.86261 0.0
C1108 C 0.5849 0.3647 0.86733 0.0
C1109 C 0.58445 0.36167 0.88031 0.0
C1110 C 0.57507 0.36652 0.8886 0.0
C1111 C 0.56603 0.3743 0.88391 0.0
H1112 H 0.59144 0.35563 0.88393 0.0
H1113 H 0.50557 0.43319 0.83822 0.0
H1114 H 0.65446 0.71415 0.8387 0.0
H1115 H 0.64729 0.73141 0.82647 0.0
H1116 H 0.6083 0.72145 0.83699 0.0
H1117 H 0.61544 0.70387 0.84913 0.0
H1118 H 0.61129 0.72519 0.812 0.0
H1119 H 0.62218 0.74769 0.84881 0.0
H1120 H 0.63528 0.75443 0.8665 0.0
H1121 H 0.66412 0.76828 0.8395 0.0
H1122 H 0.65128 0.76146 0.82164 0.0
H1123 H 0.59167 0.7791 0.77976 0.0
H1124 H 0.59505 0.76367 0.79615 0.0
H1125 H 0.63557 0.76732 0.7886 0.0
H1126 H 0.6323 0.78289 0.77237 0.0
H1127 H 0.6292 0.76761 0.8141 0.0
H1128 H 0.61834 0.74368 0.77748 0.0
H1129 H 0.60507 0.73674 0.75999 0.0
H1130 H 0.5753 0.72574 0.78741 0.0
H1131 H 0.58841 0.73276 0.80502 0.0
C1132 C 0.64436 0.7157 0.8386 0.0
C1133 C 0.63552 0.7076 0.84486 0.0
C1134 C 0.64027 0.72564 0.83164 0.0
C1135 C 0.62726 0.7278 0.8309 0.0
C1136 C 0.61839 0.71996 0.83746 0.0
C1137 C 0.62249 0.70996 0.84443 0.0
C1138 C 0.62303 0.7377 0.82247 0.0
C1139 C 0.61496 0.73455 0.81264 0.0
C1140 C 0.62801 0.74985 0.82317 0.0
C1141 C 0.63579 0.75398 0.83388 0.0
C1142 C 0.63136 0.75209 0.84664 0.0
C1143 C 0.63873 0.75594 0.8567 0.0
C1144 C 0.65054 0.76177 0.85413 0.0
C1145 C 0.65498 0.76377 0.84148 0.0
C1146 C 0.64765 0.75993 0.83138 0.0
C1147 C 0.6013 0.7766 0.78156 0.0
C1148 C 0.61172 0.78225 0.77479 0.0
C1149 C 0.6032 0.76777 0.79092 0.0
C1150 C 0.61555 0.76434 0.79358 0.0
C1151 C 0.62596 0.7699 0.78676 0.0
C1152 C 0.62407 0.77876 0.77746 0.0
C1153 C 0.6177 0.75502 0.8035 0.0
C1154 C 0.62537 0.7583 0.8136 0.0
C1155 C 0.61226 0.74303 0.80312 0.0
C1156 C 0.60433 0.73886 0.79254 0.0
C1157 C 0.60895 0.73985 0.77975 0.0
C1158 C 0.60146 0.73589 0.76982 0.0
C1159 C 0.58933 0.73083 0.77259 0.0
C1160 C 0.58469 0.72969 0.78528 0.0
C1161 C 0.59216 0.73365 0.79524 0.0
H1162 H 0.58353 0.72776 0.76489 0.0
H1163 H 0.65623 0.76474 0.86193 0.0
H1164 H 0.90486 0.36062 0.11826 0.0
H1165 H 0.8885 0.36695 0.10405 0.0
H1166 H 0.91717 0.38467 0.07912 0.0
H1167 H 0.9336 0.37843 0.0933 0.0
H1168 H 0.89815 0.39986 0.08599 0.0
H1169 H 0.90145 0.35941 0.069 0.0
H1170 H 0.90222 0.33684 0.06974 0.0
H1171 H 0.86447 0.33499 0.0871 0.0
H1172 H 0.86353 0.35757 0.08664 0.0
H1173 H 0.85007 0.4213 0.04833 0.0
H1174 H 0.86887 0.40958 0.05276 0.0
H1175 H 0.84635 0.38694 0.07951 0.0
H1176 H 0.82752 0.39829 0.07484 0.0
H1177 H 0.86422 0.37363 0.06813 0.0
H1178 H 0.86246 0.41319 0.08913 0.0
H1179 H 0.86128 0.43576 0.08989 0.0
H1180 H 0.89583 0.43908 0.06651 0.0
H1181 H 0.89711 0.41651 0.06549 0.0
C1182 C 0.90772 0.36572 0.10966 0.0
C1183 C 0.92053 0.3691 0.10697 0.0
C1184 C 0.89836 0.36926 0.1015 0.0
C1185 C 0.90163 0.37622 0.09048 0.0
C1186 C 0.91445 0.37928 0.08756 0.0
C1187 C 0.92382 0.3757 0.09568 0.0
C1188 C 0.89156 0.38131 0.08277 0.0
C1189 C 0.8909 0.3941 0.0818 0.0
C1190 C 0.88195 0.3738 0.07759 0.0
C1191 C 0.88245 0.36021 0.07786 0.0
C1192 C 0.89334 0.35421 0.07306 0.0
C1193 C 0.89381 0.3414 0.07342 0.0
C1194 C 0.88341 0.33449 0.07848 0.0
C1195 C 0.87252 0.34036 0.08318 0.0
C1196 C 0.87201 0.35316 0.08286 0.0
C1197 C 0.84907 0.41364 0.05492 0.0
C1198 C 0.83735 0.41088 0.06141 0.0
C1199 C 0.85983 0.40697 0.05748 0.0
C1200 C 0.85908 0.39758 0.06671 0.0
C1201 C 0.84719 0.39418 0.07241 0.0
C1202 C 0.83642 0.40074 0.06976 0.0
C1203 C 0.87073 0.39217 0.07154 0.0
C1204 C 0.87164 0.37935 0.07204 0.0
C1205 C 0.88053 0.39963 0.07646 0.0
C1206 C 0.87979 0.41319 0.0771 0.0
C1207 C 0.86975 0.41874 0.08408 0.0
C1208 C 0.86907 0.43153 0.08457 0.0
C1209 C 0.87845 0.43885 0.07822 0.0
C1210 C 0.88855 0.4334 0.0714 0.0
C1211 C 0.88926 0.42061 0.07086 0.0
H1212 H 0.87791 0.44874 0.07861 0.0
H1213 H 0.88379 0.32458 0.07875 0.0
H1214 H 0.63608 0.83085 0.73424 0.0
H1215 H 0.6524 0.81546 0.73636 0.0
H1216 H 0.62473 0.78668 0.72937 0.0
H1217 H 0.60834 0.80206 0.72771 0.0
H1218 H 0.63829 0.78003 0.74801 0.0
H1219 H 0.64797 0.79645 0.70623 0.0
H1220 H 0.65268 0.8125 0.68996 0.0
H1221 H 0.68624 0.82357 0.70902 0.0
H1222 H 0.68164 0.80769 0.72552 0.0
H1223 H 0.68322 0.73327 0.73288 0.0
H1224 H 0.6664 0.74834 0.7328 0.0
H1225 H 0.69274 0.7765 0.74467 0.0
H1226 H 0.70961 0.76153 0.74476 0.0
H1227 H 0.67984 0.78323 0.7237 0.0
H1228 H 0.66863 0.76706 0.76635 0.0
H1229 H 0.66341 0.75051 0.78199 0.0
H1230 H 0.63279 0.73784 0.75941 0.0
H1231 H 0.63764 0.75449 0.74383 0.0
C1232 C 0.63354 0.82123 0.73315 0.0
C1233 C 0.62097 0.81759 0.73097 0.0
C1234 C 0.64285 0.81245 0.7343 0.0
C1235 C 0.63984 0.7999 0.73289 0.0
C1236 C 0.62729 0.79629 0.73055 0.0
C1237 C 0.61793 0.80506 0.72963 0.0
C1238 C 0.64972 0.79052 0.73405 0.0
C1239 C 0.64732 0.78069 0.74258 0.0
C1240 C 0.66158 0.7914 0.72709 0.0
C1241 C 0.66439 0.80096 0.71718 0.0
C1242 C 0.6563 0.80237 0.70701 0.0
C1243 C 0.65896 0.81143 0.69774 0.0
C1244 C 0.66973 0.81908 0.69847 0.0
C1245 C 0.67789 0.81766 0.70847 0.0
C1246 C 0.67527 0.80862 0.71778 0.0
C1247 C 0.68541 0.74264 0.7356 0.0
C1248 C 0.69778 0.7462 0.73877 0.0
C1249 C 0.67576 0.75123 0.73561 0.0
C1250 C 0.67831 0.76352 0.7388 0.0
C1251 C 0.69057 0.76705 0.7422 0.0
C1252 C 0.7002 0.75847 0.74226 0.0
C1253 C 0.66843 0.77288 0.73773 0.0
C1254 C 0.67083 0.78267 0.72917 0.0
C1255 C 0.65652 0.77188 0.74451 0.0
C1256 C 0.65354 0.76194 0.75391 0.0
C1257 C 0.66079 0.76073 0.76474 0.0
C1258 C 0.65785 0.75138 0.77363 0.0
C1259 C 0.64774 0.74315 0.77173 0.0
C1260 C 0.64055 0.74427 0.76094 0.0
C1261 C 0.64333 0.75371 0.75213 0.0
H1262 H 0.64549 0.7359 0.7786 0.0
H1263 H 0.67177 0.82608 0.69128 0.0
H1264 H 0.65094 0.66057 0.80858 0.0
H1265 H 0.66784 0.66349 0.79206 0.0
H1266 H 0.6955 0.66633 0.82102 0.0
H1267 H 0.67859 0.6636 0.83768 0.0
H1268 H 0.69755 0.68543 0.80528 0.0
H1269 H 0.69519 0.64203 0.80012 0.0
H1270 H 0.68495 0.62171 0.7972 0.0
H1271 H 0.67143 0.63337 0.76121 0.0
H1272 H 0.68143 0.65382 0.764 0.0
H1273 H 0.74985 0.6895 0.75904 0.0
H1274 H 0.73528 0.68149 0.77625 0.0
H1275 H 0.70388 0.68431 0.75157 0.0
H1276 H 0.71839 0.69241 0.73439 0.0
H1277 H 0.70513 0.66124 0.76562 0.0
H1278 H 0.70574 0.70502 0.77193 0.0
H1279 H 0.71596 0.72536 0.77474 0.0
H1280 H 0.73282 0.71268 0.80871 0.0
H1281 H 0.72285 0.69218 0.80598 0.0
C1282 C 0.66064 0.66153 0.81146 0.0
C1283 C 0.66339 0.66195 0.82447 0.0
C1284 C 0.67032 0.66316 0.80197 0.0
C1285 C 0.68295 0.66513 0.80529 0.0
C1286 C 0.68581 0.66486 0.81825 0.0
C1287 C 0.67613 0.66324 0.82775 0.0
C1288 C 0.69286 0.66872 0.79535 0.0
C1289 C 0.69939 0.67999 0.79675 0.0
C1290 C 0.69503 0.6618 0.78404 0.0
C1291 C 0.68898 0.6495 0.78233 0.0
C1292 C 0.68994 0.6403 0.79163 0.0
C1293 C 0.6842 0.62875 0.78999 0.0
C1294 C 0.67752 0.62626 0.77904 0.0
C1295 C 0.6766 0.63531 0.7697 0.0
C1296 C 0.68232 0.64688 0.77129 0.0
C1297 C 0.73983 0.68843 0.75733 0.0
C1298 C 0.73517 0.69179 0.74552 0.0
C1299 C 0.73155 0.68386 0.76713 0.0
C1300 C 0.71853 0.68237 0.76515 0.0
C1301 C 0.7139 0.68543 0.75326 0.0
C1302 C 0.72215 0.6902 0.74353 0.0
C1303 C 0.70969 0.6779 0.77562 0.0
C1304 C 0.70336 0.66654 0.77427 0.0
C1305 C 0.70769 0.68471 0.78699 0.0
C1306 C 0.71369 0.69702 0.78866 0.0
C1307 C 0.71174 0.70653 0.77993 0.0
C1308 C 0.71746 0.71809 0.78152 0.0
C1309 C 0.72507 0.7203 0.79187 0.0
C1310 C 0.72694 0.71095 0.80068 0.0
C1311 C 0.72126 0.69935 0.79912 0.0
H1312 H 0.72948 0.72926 0.7931 0.0
H1313 H 0.67309 0.61731 0.77779 0.0
H1314 H 0.57982 0.40164 0.97755 0.0
H1315 H 0.56971 0.41669 0.9643 0.0
H1316 H 0.59408 0.44531 0.97872 0.0
H1317 H 0.6044 0.43026 0.9918 0.0
H1318 H 0.5693 0.45157 0.97986 0.0
H1319 H 0.59887 0.43424 0.9486 0.0
H1320 H 0.60869 0.41725 0.93648 0.0
H1321 H 0.57277 0.40774 0.92104 0.0
H1322 H 0.56267 0.42455 0.93324 0.0
H1323 H 0.55542 0.49996 0.93824 0.0
H1324 H 0.56628 0.48411 0.94985 0.0
H1325 H 0.54283 0.45615 0.93288 0.0
H1326 H 0.53196 0.47199 0.92129 0.0
H1327 H 0.56685 0.44904 0.93271 0.0
H1328 H 0.53695 0.46516 0.96357 0.0
H1329 H 0.52592 0.48106 0.97629 0.0
H1330 H 0.56095 0.49172 0.99291 0.0
H1331 H 0.57224 0.476 0.98014 0.0
C1332 C 0.58332 0.41105 0.97758 0.0
C1333 C 0.59315 0.4147 0.98546 0.0
C1334 C 0.57743 0.41967 0.9701 0.0
C1335 C 0.58125 0.4321 0.97041 0.0
C1336 C 0.59102 0.43576 0.97831 0.0
C1337 C 0.59691 0.42715 0.98576 0.0
C1338 C 0.57473 0.4414 0.96292 0.0
C1339 C 0.56893 0.45113 0.96953 0.0
C1340 C 0.57386 0.44055 0.94949 0.0
C1341 C 0.57998 0.43058 0.94195 0.0
C1342 C 0.59304 0.42847 0.9427 0.0
C1343 C 0.59866 0.41888 0.9358 0.0
C1344 C 0.59135 0.41139 0.92803 0.0
C1345 C 0.57842 0.41353 0.92708 0.0
C1346 C 0.57274 0.4231 0.93398 0.0
C1347 C 0.55263 0.49042 0.93697 0.0
C1348 C 0.54305 0.48715 0.92866 0.0
C1349 C 0.55881 0.48138 0.94362 0.0
C1350 C 0.55534 0.46893 0.94226 0.0
C1351 C 0.54576 0.46567 0.93396 0.0
C1352 C 0.53963 0.47471 0.92726 0.0
C1353 C 0.56157 0.45933 0.94965 0.0
C1354 C 0.56726 0.44952 0.94304 0.0
C1355 C 0.5622 0.45999 0.96311 0.0
C1356 C 0.55546 0.46949 0.97079 0.0
C1357 C 0.54232 0.47097 0.96985 0.0
C1358 C 0.53602 0.47993 0.97708 0.0
C1359 C 0.54274 0.48742 0.98537 0.0
C1360 C 0.55577 0.48593 0.98646 0.0
C1361 C 0.56212 0.47699 0.97924 0.0
H1362 H 0.53784 0.49435 0.99097 0.0
H1363 H 0.59572 0.40395 0.92272 0.0
H1364 H 0.78502 0.42485 0.10333 0.0
H1365 H 0.78684 0.42188 0.1263 0.0
H1366 H 0.81728 0.44907 0.1262 0.0
H1367 H 0.81541 0.45224 0.10328 0.0
H1368 H 0.80688 0.41304 0.137 0.0
H1369 H 0.81871 0.46182 0.15596 0.0
H1370 H 0.81316 0.48328 0.15191 0.0
H1371 H 0.77769 0.47111 0.13717 0.0
H1372 H 0.78295 0.4496 0.14129 0.0
H1373 H 0.83848 0.40858 0.19414 0.0
H1374 H 0.83306 0.4159 0.17308 0.0
H1375 H 0.79712 0.42834 0.18897 0.0
H1376 H 0.80247 0.42108 0.21012 0.0
H1377 H 0.80811 0.44463 0.17107 0.0
H1378 H 0.79747 0.40162 0.17437 0.0
H1379 H 0.80154 0.37989 0.17885 0.0
H1380 H 0.83158 0.38014 0.14962 0.0
H1381 H 0.82777 0.40193 0.14506 0.0
C1382 C 0.79193 0.43039 0.10823 0.0
C1383 C 0.80012 0.43873 0.10144 0.0
C1384 C 0.79299 0.42864 0.12136 0.0
C1385 C 0.8022 0.43524 0.12797 0.0
C1386 C 0.81 0.44398 0.12134 0.0
C1387 C 0.80893 0.44575 0.10821 0.0
C1388 C 0.80442 0.43217 0.14148 0.0
C1389 C 0.80709 0.41997 0.14444 0.0
C1390 C 0.80461 0.44116 0.15123 0.0
C1391 C 0.80129 0.45409 0.14883 0.0
C1392 C 0.80971 0.46373 0.1519 0.0
C1393 C 0.80661 0.4759 0.14958 0.0
C1394 C 0.7951 0.47856 0.14425 0.0
C1395 C 0.78663 0.46904 0.14125 0.0
C1396 C 0.78968 0.45685 0.14356 0.0
C1397 C 0.82947 0.41298 0.1932 0.0
C1398 C 0.82084 0.41411 0.20378 0.0
C1399 C 0.82639 0.41715 0.18115 0.0
C1400 C 0.81462 0.42251 0.17945 0.0
C1401 C 0.80624 0.42421 0.19009 0.0
C1402 C 0.8093 0.42001 0.20216 0.0
C1403 C 0.81075 0.4256 0.16644 0.0
C1404 C 0.80784 0.43776 0.16359 0.0
C1405 C 0.81013 0.41655 0.1568 0.0
C1406 C 0.81239 0.40342 0.15944 0.0
C1407 C 0.80499 0.39706 0.16895 0.0
C1408 C 0.80724 0.38473 0.17149 0.0
C1409 C 0.81681 0.37864 0.16452 0.0
C1410 C 0.82416 0.38487 0.155 0.0
C1411 C 0.82195 0.39721 0.15242 0.0
H1412 H 0.81851 0.36909 0.16649 0.0
H1413 H 0.79272 0.48799 0.14246 0.0
H1414 H 0.88749 0.45686 0.48295 0.0
H1415 H 0.88014 0.46708 0.50263 0.0
H1416 H 0.84167 0.46525 0.49037 0.0
H1417 H 0.84894 0.45499 0.47061 0.0
H1418 H 0.84975 0.48877 0.49945 0.0
H1419 H 0.84955 0.44593 0.5124 0.0
H1420 H 0.85942 0.42585 0.51496 0.0
H1421 H 0.88777 0.4425 0.53792 0.0
H1422 H 0.87815 0.46272 0.53535 0.0
H1423 H 0.81684 0.50617 0.55669 0.0
H1424 H 0.82402 0.49499 0.53752 0.0
H1425 H 0.86051 0.49007 0.55355 0.0
H1426 H 0.8533 0.5009 0.57281 0.0
H1427 H 0.85418 0.47029 0.54227 0.0
H1428 H 0.85359 0.51241 0.53206 0.0
H1429 H 0.84572 0.53318 0.52898 0.0
H1430 H 0.8207 0.51955 0.5008 0.0
H1431 H 0.82842 0.49863 0.50374 0.0
C1432 C 0.87745 0.45857 0.48445 0.0
C1433 C 0.86879 0.45509 0.47524 0.0
C1434 C 0.87328 0.4644 0.49571 0.0
C1435 C 0.86037 0.46688 0.49793 0.0
C1436 C 0.85168 0.46341 0.48878 0.0
C1437 C 0.85584 0.45748 0.47756 0.0
C1438 C 0.85593 0.47315 0.5098 0.0
C1439 C 0.85048 0.4847 0.50883 0.0
C1440 C 0.85747 0.468 0.522 0.0
C1441 C 0.8632 0.45584 0.5236 0.0
C1442 C 0.85794 0.44532 0.51792 0.0
C1443 C 0.86348 0.43392 0.51938 0.0
C1444 C 0.87423 0.43291 0.52658 0.0
C1445 C 0.87945 0.4433 0.53235 0.0
C1446 C 0.87395 0.45473 0.5309 0.0
C1447 C 0.82638 0.50266 0.55612 0.0
C1448 C 0.83454 0.50448 0.56621 0.0
C1449 C 0.83049 0.49632 0.54515 0.0
C1450 C 0.84291 0.49193 0.54396 0.0
C1451 C 0.85093 0.49347 0.55418 0.0
C1452 C 0.84679 0.49966 0.5652 0.0
C1453 C 0.84764 0.4859 0.53201 0.0
C1454 C 0.8533 0.47443 0.53293 0.0
C1455 C 0.84647 0.49127 0.51978 0.0
C1456 C 0.84165 0.50388 0.51812 0.0
C1457 C 0.84644 0.5138 0.52519 0.0
C1458 C 0.84198 0.52562 0.52348 0.0
C1459 C 0.83271 0.52769 0.51469 0.0
C1460 C 0.82789 0.51793 0.5076 0.0
C1461 C 0.83234 0.50609 0.50927 0.0
H1462 H 0.82926 0.53686 0.51338 0.0
H1463 H 0.8785 0.42407 0.5277 0.0
H1464 H 0.99908 0.2247 0.17884 0.0
H1465 H 0.99746 0.24626 0.1729 0.0
H1466 H 0.01554 0.25711 0.20737 0.0
H1467 H 0.01702 0.23555 0.21348 0.0
H1468 H 0.99529 0.27076 0.20363 0.0
H1469 H 0.03184 0.25832 0.1784 0.0
H1470 H 0.04403 0.24538 0.16316 0.0
H1471 H 0.01837 0.25356 0.13387 0.0
H1472 H 0.00591 0.26642 0.149 0.0
H1473 H 0.00603 0.33311 0.18602 0.0
H1474 H 0.00959 0.31177 0.19176 0.0
H1475 H 0.99098 0.29956 0.15807 0.0
H1476 H 0.98752 0.32088 0.15216 0.0
H1477 H 0.01222 0.28678 0.16164 0.0
H1478 H 0.97534 0.29869 0.18714 0.0
H1479 H 0.96321 0.31167 0.2024 0.0
H1480 H 0.98968 0.30446 0.23124 0.0
H1481 H 0.00207 0.29157 0.21608 0.0
C1482 C 0.00273 0.23166 0.18515 0.0
C1483 C 0.0082 0.2284 0.19662 0.0
C1484 C 0.00186 0.24399 0.18171 0.0
C1485 C 0.00653 0.25329 0.18961 0.0
C1486 C 0.01191 0.25007 0.20112 0.0
C1487 C 0.01276 0.23774 0.20458 0.0
C1488 C 0.00557 0.26639 0.18599 0.0
C1489 C 0.99917 0.2743 0.19453 0.0
C1490 C 0.01039 0.27095 0.17401 0.0
C1491 C 0.01788 0.26324 0.16487 0.0
C1492 C 0.02874 0.25728 0.16874 0.0
C1493 C 0.03571 0.24997 0.16011 0.0
C1494 C 0.03196 0.24862 0.14756 0.0
C1495 C 0.02125 0.2546 0.1436 0.0
C1496 C 0.01424 0.26191 0.15219 0.0
C1497 C 0.00275 0.32589 0.17979 0.0
C1498 C 0.99643 0.32869 0.16866 0.0
C1499 C 0.00475 0.3137 0.18311 0.0
C1500 C 0.0004 0.30408 0.17543 0.0
C1501 C 0.99439 0.30685 0.16415 0.0
C1502 C 0.99239 0.31904 0.16081 0.0
C1503 C 0.00191 0.29111 0.17926 0.0
C1504 C 0.0084 0.28323 0.17076 0.0
C1505 C 0.99718 0.28657 0.19129 0.0
C1506 C 0.9897 0.29427 0.20043 0.0
C1507 C 0.97863 0.29995 0.1967 0.0
C1508 C 0.9717 0.30728 0.20534 0.0
C1509 C 0.97569 0.30892 0.21777 0.0
C1510 C 0.98661 0.3032 0.2216 0.0
C1511 C 0.99358 0.29587 0.213 0.0
H1512 H 0.97031 0.31459 0.22445 0.0
H1513 H 0.03737 0.24296 0.1409 0.0
H1514 H 0.09914 0.62724 0.37567 0.0
H1515 H 0.08493 0.61776 0.39222 0.0
H1516 H 0.05348 0.63749 0.37816 0.0
H1517 H 0.06764 0.64709 0.36163 0.0
H1518 H 0.05415 0.6387 0.40408 0.0
H1519 H 0.05648 0.60731 0.37184 0.0
H1520 H 0.06726 0.59304 0.35687 0.0
H1521 H 0.08432 0.57541 0.38823 0.0
H1522 H 0.07377 0.58969 0.40338 0.0
H1523 H 0.00383 0.60621 0.43745 0.0
H1524 H 0.01827 0.61538 0.42095 0.0
H1525 H 0.04886 0.59381 0.43408 0.0
H1526 H 0.0344 0.5844 0.45046 0.0
H1527 H 0.0489 0.59353 0.40876 0.0
H1528 H 0.04681 0.62461 0.44105 0.0
H1529 H 0.03639 0.63889 0.45626 0.0
H1530 H 0.01945 0.65719 0.42524 0.0
H1531 H 0.02963 0.6429 0.40986 0.0
C1532 C 0.08919 0.62954 0.37607 0.0
C1533 C 0.08451 0.6379 0.36731 0.0
C1534 C 0.08108 0.62408 0.38551 0.0
C1535 C 0.06813 0.62684 0.38635 0.0
C1536 C 0.06344 0.63523 0.37767 0.0
C1537 C 0.07154 0.64067 0.3682 0.0
C1538 C 0.05949 0.62114 0.39641 0.0
C1539 C 0.05287 0.62883 0.40501 0.0
C1540 C 0.0581 0.60826 0.39782 0.0
C1541 C 0.06443 0.59965 0.38873 0.0
C1542 C 0.06261 0.60045 0.37554 0.0
C1543 C 0.06866 0.59235 0.36702 0.0
C1544 C 0.07649 0.58334 0.3716 0.0
C1545 C 0.07826 0.5824 0.3847 0.0
C1546 C 0.07224 0.59049 0.39326 0.0
C1547 C 0.01364 0.60343 0.43686 0.0
C1548 C 0.01798 0.5946 0.4453 0.0
C1549 C 0.0219 0.60872 0.42744 0.0
C1550 C 0.0347 0.60541 0.42638 0.0
C1551 C 0.03903 0.59653 0.43473 0.0
C1552 C 0.03076 0.59118 0.44411 0.0
C1553 C 0.04351 0.61109 0.41644 0.0
C1554 C 0.05019 0.60341 0.40786 0.0
C1555 C 0.04501 0.62398 0.41509 0.0
C1556 C 0.03889 0.63261 0.42431 0.0
C1557 C 0.04078 0.63161 0.43748 0.0
C1558 C 0.03494 0.63972 0.44613 0.0
C1559 C 0.02724 0.64892 0.44172 0.0
C1560 C 0.0254 0.65005 0.42865 0.0
C1561 C 0.03122 0.64196 0.41995 0.0
H1562 H 0.02272 0.65519 0.44843 0.0
H1563 H 0.08117 0.57708 0.36499 0.0
H1564 H 0.57826 0.84834 0.68024 0.0
H1565 H 0.57534 0.8547 0.6582 0.0
H1566 H 0.60253 0.8845 0.66228 0.0
H1567 H 0.60541 0.87828 0.68438 0.0
H1568 H 0.58149 0.89201 0.65113 0.0
H1569 H 0.61061 0.85912 0.6454 0.0
H1570 H 0.61835 0.83816 0.64813 0.0
H1571 H 0.58562 0.82334 0.6301 0.0
H1572 H 0.5776 0.84421 0.62742 0.0
H1573 H 0.5882 0.90821 0.58562 0.0
H1574 H 0.59278 0.90123 0.60707 0.0
H1575 H 0.56618 0.87084 0.60362 0.0
H1576 H 0.5617 0.87764 0.58207 0.0
H1577 H 0.58741 0.86365 0.61438 0.0
H1578 H 0.55798 0.8963 0.62063 0.0
H1579 H 0.54999 0.91718 0.618 0.0
H1580 H 0.58303 0.93235 0.63518 0.0
H1581 H 0.59131 0.91156 0.63776 0.0
C1582 C 0.58364 0.85623 0.67645 0.0
C1583 C 0.59208 0.8628 0.68406 0.0
C1584 C 0.582 0.85982 0.66383 0.0
C1585 C 0.58882 0.86999 0.65856 0.0
C1586 C 0.59719 0.8766 0.66615 0.0
C1587 C 0.59885 0.87302 0.67877 0.0
C1588 C 0.58699 0.8739 0.64522 0.0
C1589 C 0.58298 0.88587 0.64307 0.0
C1590 C 0.58863 0.86579 0.63475 0.0
C1591 C 0.59345 0.85322 0.63632 0.0
C1592 C 0.60501 0.85138 0.64211 0.0
C1593 C 0.60946 0.83952 0.64363 0.0
C1594 C 0.60247 0.82942 0.63932 0.0
C1595 C 0.59102 0.83117 0.63345 0.0
C1596 C 0.58653 0.84301 0.63191 0.0
C1597 C 0.58337 0.90001 0.5894 0.0
C1598 C 0.57453 0.89352 0.58217 0.0
C1599 C 0.58596 0.89606 0.60168 0.0
C1600 C 0.57969 0.88562 0.60701 0.0
C1601 C 0.57111 0.87894 0.5997 0.0
C1602 C 0.56854 0.88286 0.5874 0.0
C1603 C 0.58191 0.88176 0.6203 0.0
C1604 C 0.58598 0.8698 0.62243 0.0
C1605 C 0.58029 0.88987 0.63077 0.0
C1606 C 0.57532 0.90238 0.62927 0.0
C1607 C 0.56359 0.9041 0.62376 0.0
C1608 C 0.559 0.91591 0.62229 0.0
C1609 C 0.56601 0.92609 0.62639 0.0
C1610 C 0.57762 0.92446 0.632 0.0
C1611 C 0.58226 0.91266 0.63347 0.0
H1612 H 0.56244 0.93523 0.62525 0.0
H1613 H 0.60593 0.82024 0.64051 0.0
H1614 H 0.49818 0.15092 0.85245 0.0
H1615 H 0.51397 0.16735 0.84782 0.0
H1616 H 0.48448 0.19409 0.85036 0.0
H1617 H 0.46861 0.17773 0.85503 0.0
H1618 H 0.50109 0.1973 0.82898 0.0
H1619 H 0.50324 0.19155 0.87441 0.0
H1620 H 0.50561 0.17959 0.89412 0.0
H1621 H 0.54282 0.16897 0.88048 0.0
H1622 H 0.54059 0.18073 0.8606 0.0
H1623 H 0.54017 0.251 0.83052 0.0
H1624 H 0.52431 0.23472 0.83533 0.0
H1625 H 0.55415 0.20859 0.83819 0.0
H1626 H 0.57007 0.22492 0.83379 0.0
H1627 H 0.53721 0.20493 0.85683 0.0
H1628 H 0.53547 0.21017 0.81152 0.0
H1629 H 0.53337 0.2215 0.79136 0.0
H1630 H 0.49592 0.23229 0.80398 0.0
H1631 H 0.49786 0.22116 0.8243 0.0
C1632 C 0.49505 0.1603 0.85203 0.0
C1633 C 0.48215 0.16303 0.85414 0.0
C1634 C 0.50409 0.16967 0.84943 0.0
C1635 C 0.50039 0.18193 0.84884 0.0
C1636 C 0.48751 0.18468 0.85079 0.0
C1637 C 0.47847 0.17533 0.8535 0.0
C1638 C 0.50996 0.19189 0.84612 0.0
C1639 C 0.5089 0.1991 0.83514 0.0
C1640 C 0.52032 0.19397 0.854 0.0
C1641 C 0.52169 0.18692 0.86596 0.0
C1642 C 0.51188 0.18658 0.87557 0.0
C1643 C 0.51321 0.17985 0.88678 0.0
C1644 C 0.52434 0.1735 0.88854 0.0
C1645 C 0.53419 0.17388 0.8791 0.0
C1646 C 0.5329 0.18059 0.86786 0.0
C1647 C 0.54335 0.24178 0.83215 0.0
C1648 C 0.55638 0.23924 0.83173 0.0
C1649 C 0.53427 0.23247 0.83484 0.0
C1650 C 0.53801 0.22037 0.83693 0.0
C1651 C 0.55102 0.21784 0.8366 0.0
C1652 C 0.56012 0.22718 0.83405 0.0
C1653 C 0.52839 0.2104 0.83963 0.0
C1654 C 0.52942 0.20317 0.85063 0.0
C1655 C 0.51806 0.20822 0.83169 0.0
C1656 C 0.51687 0.21493 0.81948 0.0
C1657 C 0.52683 0.21504 0.81004 0.0
C1658 C 0.52566 0.22141 0.79857 0.0
C1659 C 0.51453 0.22764 0.7964 0.0
C1660 C 0.50454 0.22748 0.80568 0.0
C1661 C 0.50566 0.22113 0.81717 0.0
H1662 H 0.51364 0.23256 0.78752 0.0
H1663 H 0.52536 0.1683 0.89723 0.0
H1664 H 0.08 0.851 0.22949 0.0
H1665 H 0.0719 0.86934 0.21954 0.0
H1666 H 0.10997 0.87972 0.20591 0.0
H1667 H 0.11802 0.86116 0.21538 0.0
H1668 H 0.07542 0.89204 0.22412 0.0
H1669 H 0.11009 0.89682 0.1793 0.0
H1670 H 0.1217 0.88349 0.16396 0.0
H1671 H 0.09431 0.8543 0.17171 0.0
H1672 H 0.08244 0.8675 0.18697 0.0
H1673 H 0.07445 0.9526 0.20114 0.0
H1674 H 0.08106 0.93261 0.20857 0.0
H1675 H 0.06564 0.91542 0.17539 0.0
H1676 H 0.05941 0.93548 0.16767 0.0
H1677 H 0.08696 0.90549 0.17969 0.0
H1678 H 0.04981 0.91412 0.20553 0.0
H1679 H 0.03579 0.92621 0.21997 0.0
H1680 H 0.06374 0.92615 0.24847 0.0
H1681 H 0.078 0.9142 0.23413 0.0
C1682 C 0.08662 0.85713 0.22425 0.0
C1683 C 0.09964 0.85461 0.22317 0.0
C1684 C 0.08199 0.86763 0.21859 0.0
C1685 C 0.09029 0.87589 0.21185 0.0
C1686 C 0.10331 0.87338 0.21079 0.0
C1687 C 0.10792 0.86278 0.21627 0.0
C1688 C 0.08542 0.88737 0.2064 0.0
C1689 C 0.07792 0.89494 0.21438 0.0
C1690 C 0.08844 0.8911 0.19362 0.0
C1691 C 0.09545 0.88312 0.18436 0.0
C1692 C 0.10652 0.88758 0.17769 0.0
C1693 C 0.11315 0.88004 0.16902 0.0
C1694 C 0.10877 0.86805 0.16689 0.0
C1695 C 0.09772 0.86358 0.1734 0.0
C1696 C 0.09105 0.87108 0.18208 0.0
C1697 C 0.07248 0.94457 0.19541 0.0
C1698 C 0.06635 0.94561 0.18385 0.0
C1699 C 0.07621 0.93313 0.1997 0.0
C1700 C 0.07365 0.92246 0.19266 0.0
C1701 C 0.06771 0.92351 0.181 0.0
C1702 C 0.06412 0.93498 0.17662 0.0
C1703 C 0.07715 0.91021 0.19748 0.0
C1704 C 0.08442 0.90254 0.1894 0.0
C1705 C 0.07357 0.90619 0.21004 0.0
C1706 C 0.06501 0.91335 0.21871 0.0
C1707 C 0.053 0.91676 0.21484 0.0
C1708 C 0.04501 0.92358 0.22301 0.0
C1709 C 0.04888 0.92697 0.23512 0.0
C1710 C 0.06075 0.92353 0.23909 0.0
C1711 C 0.06879 0.91672 0.23095 0.0
H1712 H 0.04268 0.93225 0.24143 0.0
H1713 H 0.11392 0.86222 0.16018 0.0
H1714 H 0.22885 0.80618 0.4212 0.0
H1715 H 0.25107 0.81212 0.42438 0.0
H1716 H 0.24121 0.85027 0.42438 0.0
H1717 H 0.21897 0.84444 0.42151 0.0
H1718 H 0.26257 0.84278 0.40671 0.0
H1719 H 0.24687 0.83997 0.45099 0.0
H1720 H 0.23637 0.82937 0.4696 0.0
H1721 H 0.26413 0.80119 0.46694 0.0
H1722 H 0.2747 0.81155 0.44818 0.0
H1723 H 0.31879 0.87279 0.4243 0.0
H1724 H 0.29694 0.86546 0.42225 0.0
H1725 H 0.30704 0.82956 0.4353 0.0
H1726 H 0.32881 0.83709 0.438 0.0
H1727 H 0.28559 0.83465 0.44595 0.0
H1728 H 0.30185 0.83642 0.40274 0.0
H1729 H 0.31259 0.84544 0.38336 0.0
H1730 H 0.28443 0.87319 0.38256 0.0
H1731 H 0.27361 0.86444 0.40204 0.0
C1732 C 0.2314 0.81582 0.42201 0.0
C1733 C 0.22218 0.82485 0.42111 0.0
C1734 C 0.24407 0.81919 0.42383 0.0
C1735 C 0.24772 0.83161 0.42459 0.0
C1736 C 0.23854 0.84063 0.42381 0.0
C1737 C 0.22584 0.83728 0.42222 0.0
C1738 C 0.26121 0.83527 0.42575 0.0
C1739 C 0.26761 0.84115 0.41532 0.0
C1740 C 0.26782 0.83267 0.43681 0.0
C1741 C 0.26148 0.82646 0.44809 0.0
C1742 C 0.25066 0.83145 0.45429 0.0
C1743 C 0.24471 0.8255 0.46488 0.0
C1744 C 0.24956 0.81459 0.46942 0.0
C1745 C 0.26038 0.80963 0.4634 0.0
C1746 C 0.26636 0.81554 0.45279 0.0
C1747 C 0.31637 0.86332 0.42668 0.0
C1748 C 0.32552 0.85549 0.43125 0.0
C1749 C 0.30388 0.85911 0.42543 0.0
C1750 C 0.30036 0.84687 0.42837 0.0
C1751 C 0.30951 0.83903 0.43295 0.0
C1752 C 0.32195 0.84333 0.43445 0.0
C1753 C 0.28707 0.84236 0.42692 0.0
C1754 C 0.28066 0.83627 0.43727 0.0
C1755 C 0.28052 0.84453 0.41565 0.0
C1756 C 0.28699 0.84983 0.40392 0.0
C1757 C 0.298 0.8445 0.39849 0.0
C1758 C 0.30409 0.84956 0.38747 0.0
C1759 C 0.29921 0.8599 0.38175 0.0
C1760 C 0.2882 0.86519 0.38701 0.0
C1761 C 0.28208 0.86018 0.39803 0.0
H1762 H 0.30394 0.8638 0.37322 0.0
H1763 H 0.24494 0.81 0.47763 0.0
H1764 H 0.37865 0.10791 0.66473 0.0
H1765 H 0.38398 0.09133 0.64983 0.0
H1766 H 0.35834 0.06668 0.67125 0.0
H1767 H 0.35294 0.0832 0.68621 0.0
H1768 H 0.38151 0.05625 0.66464 0.0
H1769 H 0.3492 0.07847 0.64414 0.0
H1770 H 0.33942 0.09686 0.63555 0.0
H1771 H 0.37164 0.10264 0.60936 0.0
H1772 H 0.38171 0.08436 0.61791 0.0
H1773 H 0.37703 0.00846 0.61902 0.0
H1774 H 0.37277 0.02485 0.63443 0.0
H1775 H 0.39489 0.05035 0.61034 0.0
H1776 H 0.39888 0.03408 0.5947 0.0
H1777 H 0.37383 0.06051 0.61847 0.0
H1778 H 0.40622 0.03844 0.63845 0.0
H1779 H 0.41647 0.02029 0.64702 0.0
H1780 H 0.38498 0.01453 0.67412 0.0
H1781 H 0.37445 0.03255 0.66559 0.0
C1782 C 0.37416 0.09896 0.66629 0.0
C1783 C 0.36533 0.09689 0.67662 0.0
C1784 C 0.37719 0.08951 0.65775 0.0
C1785 C 0.37147 0.07782 0.65938 0.0
C1786 C 0.36284 0.07564 0.66982 0.0
C1787 C 0.35974 0.08511 0.67833 0.0
C1788 C 0.37439 0.06788 0.65012 0.0
C1789 C 0.3797 0.0571 0.65456 0.0
C1790 C 0.37231 0.06915 0.63694 0.0
C1791 C 0.36626 0.08012 0.63176 0.0
C1792 C 0.35425 0.08372 0.63662 0.0
C1793 C 0.34865 0.09411 0.63175 0.0
C1794 C 0.35492 0.10093 0.62194 0.0
C1795 C 0.3668 0.09735 0.61697 0.0
C1796 C 0.37246 0.08697 0.62182 0.0
C1797 C 0.38103 0.01755 0.61702 0.0
C1798 C 0.38831 0.01997 0.60565 0.0
C1799 C 0.37864 0.0269 0.62588 0.0
C1800 C 0.38365 0.03881 0.62364 0.0
C1801 C 0.39094 0.04124 0.61228 0.0
C1802 C 0.39323 0.03192 0.60337 0.0
C1803 C 0.381 0.04882 0.63294 0.0
C1804 C 0.3757 0.05964 0.62852 0.0
C1805 C 0.38317 0.0476 0.64613 0.0
C1806 C 0.38949 0.03678 0.6513 0.0
C1807 C 0.40143 0.03324 0.64617 0.0
C1808 C 0.4073 0.02299 0.65104 0.0
C1809 C 0.40136 0.01624 0.66109 0.0
C1810 C 0.38956 0.01975 0.66632 0.0
C1811 C 0.38364 0.02999 0.66149 0.0
H1812 H 0.40592 0.00831 0.66484 0.0
H1813 H 0.35056 0.10897 0.61818 0.0
H1814 H 0.24052 0.06027 0.09039 0.0
H1815 H 0.24875 0.05134 0.07033 0.0
H1816 H 0.22196 0.07183 0.04953 0.0
H1817 H 0.21359 0.08074 0.06957 0.0
H1818 H 0.22241 0.04797 0.04221 0.0
H1819 H 0.25289 0.0805 0.0484 0.0
H1820 H 0.26848 0.09268 0.0602 0.0
H1821 H 0.29162 0.06104 0.06325 0.0
H1822 H 0.27608 0.04862 0.05161 0.0
H1823 H 0.24914 0.03613 0.98006 0.0
H1824 H 0.24143 0.0463 0.99964 0.0
H1825 H 0.26865 0.02703 0.02111 0.0
H1826 H 0.27656 0.01697 0.00153 0.0
H1827 H 0.26796 0.05071 0.0279 0.0
H1828 H 0.23735 0.01805 0.02225 0.0
H1829 H 0.22175 0.00571 0.01063 0.0
H1830 H 0.19882 0.0374 0.00677 0.0
H1831 H 0.21438 0.04997 0.01823 0.0
C1832 C 0.23641 0.06292 0.08154 0.0
C1833 C 0.2264 0.07122 0.08157 0.0
C1834 C 0.24116 0.05785 0.07008 0.0
C1835 C 0.23604 0.06101 0.05843 0.0
C1836 C 0.22605 0.06928 0.05842 0.0
C1837 C 0.22131 0.07439 0.06987 0.0
C1838 C 0.24088 0.05542 0.0463 0.0
C1839 C 0.23233 0.04872 0.03897 0.0
C1840 C 0.25388 0.05616 0.04226 0.0
C1841 C 0.26326 0.0636 0.04924 0.0
C1842 C 0.26125 0.07611 0.05168 0.0
C1843 C 0.27009 0.08306 0.05832 0.0
C1844 C 0.28102 0.07763 0.0625 0.0
C1845 C 0.28315 0.06523 0.06002 0.0
C1846 C 0.27433 0.05824 0.05339 0.0
C1847 C 0.25349 0.03405 0.98894 0.0
C1848 C 0.26343 0.0257 0.98925 0.0
C1849 C 0.24904 0.03984 0.00014 0.0
C1850 C 0.25437 0.03731 0.01186 0.0
C1851 C 0.2644 0.0291 0.01217 0.0
C1852 C 0.26888 0.02333 0.00097 0.0
C1853 C 0.24949 0.04323 0.02382 0.0
C1854 C 0.25803 0.04998 0.03111 0.0
C1855 C 0.23648 0.04252 0.02785 0.0
C1856 C 0.2271 0.03498 0.02098 0.0
C1857 C 0.22904 0.02241 0.01883 0.0
C1858 C 0.22019 0.01537 0.01229 0.0
C1859 C 0.20932 0.02078 0.00793 0.0
C1860 C 0.20726 0.03323 0.01014 0.0
C1861 C 0.21608 0.04031 0.01666 0.0
H1862 H 0.20248 0.01531 0.00288 0.0
H1863 H 0.28785 0.08302 0.06764 0.0
H1864 H 0.65881 0.38773 0.01376 0.0
H1865 H 0.68124 0.392 0.01753 0.0
H1866 H 0.67096 0.42412 0.03933 0.0
H1867 H 0.64851 0.41986 0.03573 0.0
H1868 H 0.69183 0.42786 0.02112 0.0
H1869 H 0.67766 0.39989 0.0551 0.0
H1870 H 0.6679 0.38067 0.06382 0.0
H1871 H 0.69598 0.35982 0.04288 0.0
H1872 H 0.70581 0.37893 0.03389 0.0
H1873 H 0.74822 0.44126 0.05255 0.0
H1874 H 0.72643 0.43676 0.04684 0.0
H1875 H 0.73749 0.4011 0.033 0.0
H1876 H 0.75923 0.40538 0.0392 0.0
H1877 H 0.71631 0.39869 0.04604 0.0
H1878 H 0.73119 0.42573 0.01244 0.0
H1879 H 0.74113 0.44442 0.00269 0.0
H1880 H 0.7123 0.46633 0.02108 0.0
H1881 H 0.70227 0.44778 0.03109 0.0
C1882 C 0.66132 0.39572 0.01932 0.0
C1883 C 0.65189 0.40344 0.02449 0.0
C1884 C 0.67413 0.39812 0.02149 0.0
C1885 C 0.67772 0.40834 0.02876 0.0
C1886 C 0.66836 0.41619 0.0337 0.0
C1887 C 0.65554 0.41371 0.03167 0.0
C1888 C 0.69122 0.41074 0.03139 0.0
C1889 C 0.69719 0.42157 0.02667 0.0
C1890 C 0.69825 0.40231 0.03828 0.0
C1891 C 0.69238 0.39083 0.04372 0.0
C1892 C 0.68168 0.3912 0.05227 0.0
C1893 C 0.67616 0.38033 0.05728 0.0
C1894 C 0.6813 0.36903 0.05388 0.0
C1895 C 0.692 0.36858 0.04549 0.0
C1896 C 0.69755 0.37943 0.04044 0.0
C1897 C 0.74603 0.43248 0.04824 0.0
C1898 C 0.75545 0.42369 0.04629 0.0
C1899 C 0.73357 0.42994 0.0449 0.0
C1900 C 0.73033 0.41867 0.03927 0.0
C1901 C 0.73975 0.40987 0.03731 0.0
C1902 C 0.75218 0.41234 0.04083 0.0
C1903 C 0.71704 0.41591 0.03582 0.0
C1904 C 0.71106 0.40499 0.0404 0.0
C1905 C 0.71006 0.42418 0.02862 0.0
C1906 C 0.71604 0.43537 0.0226 0.0
C1907 C 0.72702 0.43454 0.01448 0.0
C1908 C 0.73266 0.44511 0.00889 0.0
C1909 C 0.72736 0.45656 0.01129 0.0
C1910 C 0.7164 0.45746 0.01925 0.0
C1911 C 0.71072 0.44692 0.02487 0.0
H1912 H 0.73175 0.46473 0.00695 0.0
H1913 H 0.67701 0.36062 0.05777 0.0
H1914 H 0.84451 0.36352 0.31255 0.0
H1915 H 0.84843 0.37548 0.33175 0.0
H1916 H 0.82777 0.40555 0.31681 0.0
H1917 H 0.82399 0.39373 0.29745 0.0
H1918 H 0.84918 0.41367 0.32697 0.0
H1919 H 0.81434 0.38667 0.34012 0.0
H1920 H 0.80299 0.36676 0.34317 0.0
H1921 H 0.83208 0.35448 0.36714 0.0
H1922 H 0.8437 0.37427 0.36409 0.0
H1923 H 0.84064 0.44697 0.38504 0.0
H1924 H 0.8372 0.43519 0.36559 0.0
H1925 H 0.85875 0.40554 0.38011 0.0
H1926 H 0.86213 0.4172 0.39966 0.0
H1927 H 0.83694 0.39724 0.37017 0.0
H1928 H 0.87168 0.42442 0.35707 0.0
H1929 H 0.88286 0.44442 0.35407 0.0
H1930 H 0.85371 0.45648 0.33006 0.0
H1931 H 0.84225 0.4366 0.33306 0.0
C1932 C 0.84079 0.37268 0.31334 0.0
C1933 C 0.83389 0.37765 0.30349 0.0
C1934 C 0.843 0.37949 0.32435 0.0
C1935 C 0.83825 0.39135 0.32579 0.0
C1936 C 0.8315 0.39641 0.31591 0.0
C1937 C 0.82932 0.38962 0.30487 0.0
C1938 C 0.84038 0.39852 0.33758 0.0
C1939 C 0.84635 0.41015 0.33641 0.0
C1940 C 0.83693 0.39381 0.3499 0.0
C1941 C 0.82995 0.38191 0.35177 0.0
C1942 C 0.81837 0.37969 0.34596 0.0
C1943 C 0.81188 0.36843 0.3477 0.0
C1944 C 0.81682 0.35934 0.35531 0.0
C1945 C 0.82826 0.36151 0.36123 0.0
C1946 C 0.8348 0.37276 0.35951 0.0
C1947 C 0.84468 0.43795 0.38409 0.0
C1948 C 0.85168 0.43303 0.39389 0.0
C1949 C 0.84274 0.43125 0.37294 0.0
C1950 C 0.84782 0.41953 0.37135 0.0
C1951 C 0.85476 0.41457 0.38114 0.0
C1952 C 0.85671 0.42126 0.39229 0.0
C1953 C 0.84574 0.41237 0.35956 0.0
C1954 C 0.83977 0.40075 0.36073 0.0
C1955 C 0.84916 0.4171 0.34724 0.0
C1956 C 0.85604 0.42906 0.3454 0.0
C1957 C 0.8676 0.43137 0.35124 0.0
C1958 C 0.874 0.44268 0.34952 0.0
C1959 C 0.86898 0.45173 0.34191 0.0
C1960 C 0.85757 0.44947 0.33597 0.0
C1961 C 0.85113 0.43818 0.33767 0.0
H1962 H 0.87395 0.46048 0.34059 0.0
H1963 H 0.81178 0.35063 0.35665 0.0
H1964 H 0.8011 0.66664 0.70822 0.0
H1965 H 0.80893 0.64805 0.69783 0.0
H1966 H 0.778 0.64845 0.67234 0.0
H1967 H 0.77 0.66697 0.68278 0.0
H1968 H 0.78064 0.62604 0.68242 0.0
H1969 H 0.80817 0.65643 0.66171 0.0
H1970 H 0.8234 0.67398 0.6606 0.0
H1971 H 0.85002 0.65329 0.68106 0.0
H1972 H 0.83488 0.63567 0.68244 0.0
H1973 H 0.8034 0.57877 0.64171 0.0
H1974 H 0.79644 0.59867 0.64973 0.0
H1975 H 0.82753 0.60008 0.67505 0.0
H1976 H 0.83473 0.5803 0.66687 0.0
H1977 H 0.82471 0.62189 0.66433 0.0
H1978 H 0.79711 0.59196 0.68594 0.0
H1979 H 0.78193 0.57438 0.68753 0.0
H1980 H 0.75551 0.59419 0.66592 0.0
H1981 H 0.77061 0.61184 0.66406 0.0
C1982 C 0.796 0.66283 0.70035 0.0
C1983 C 0.78492 0.66828 0.69633 0.0
C1984 C 0.80053 0.65222 0.69438 0.0
C1985 C 0.79412 0.64692 0.68423 0.0
C1986 C 0.7831 0.6524 0.68014 0.0
C1987 C 0.77857 0.663 0.6861 0.0
C1988 C 0.7986 0.63539 0.67823 0.0
C1989 C 0.79021 0.62519 0.67827 0.0
C1990 C 0.8112 0.63419 0.67313 0.0
C1991 C 0.82034 0.64477 0.67228 0.0
C1992 C 0.81723 0.65566 0.66606 0.0
C1993 C 0.82586 0.66561 0.66536 0.0
C1994 C 0.83766 0.66476 0.67078 0.0
C1995 C 0.84087 0.65394 0.67688 0.0
C1996 C 0.83227 0.64396 0.67761 0.0
C1997 C 0.80879 0.58333 0.64896 0.0
C1998 C 0.81958 0.57792 0.65371 0.0
C1999 C 0.80476 0.59469 0.65357 0.0
C2000 C 0.81135 0.60078 0.66314 0.0
C2001 C 0.82229 0.59553 0.66769 0.0
C2002 C 0.82637 0.58421 0.66302 0.0
C2003 C 0.80675 0.61254 0.66854 0.0
C2004 C 0.81512 0.62277 0.66842 0.0
C2005 C 0.79415 0.61376 0.67363 0.0
C2006 C 0.78505 0.60317 0.67475 0.0
C2007 C 0.78811 0.59253 0.68144 0.0
C2008 C 0.77951 0.58256 0.68241 0.0
C2009 C 0.76778 0.58316 0.6768 0.0
C2010 C 0.76461 0.59374 0.67024 0.0
C2011 C 0.77318 0.60373 0.66924 0.0
H2012 H 0.76114 0.57543 0.67756 0.0
H2013 H 0.84432 0.67248 0.67023 0.0
H2014 H 0.58699 0.63673 0.8473 0.0
H2015 H 0.57488 0.61892 0.85588 0.0
H2016 H 0.60653 0.60926 0.87822 0.0
H2017 H 0.61848 0.62734 0.87004 0.0
H2018 H 0.57718 0.59551 0.85503 0.0
H2019 H 0.59635 0.59616 0.90604 0.0
H2020 H 0.6048 0.61109 0.92138 0.0
H2021 H 0.58445 0.63988 0.90406 0.0
H2022 H 0.57575 0.6251 0.88873 0.0
H2023 H 0.55701 0.54036 0.88633 0.0
H2024 H 0.56975 0.55768 0.87749 0.0
H2025 H 0.54896 0.58239 0.90248 0.0
H2026 H 0.53658 0.56505 0.91172 0.0
H2027 H 0.57236 0.58896 0.90194 0.0
H2028 H 0.54324 0.57909 0.86964 0.0
H2029 H 0.5322 0.56583 0.85441 0.0
H2030 H 0.56778 0.55845 0.83452 0.0
H2031 H 0.57906 0.57154 0.84974 0.0
C2032 C 0.59138 0.6308 0.85402 0.0
C2033 C 0.60364 0.6335 0.85809 0.0
C2034 C 0.58446 0.62059 0.85889 0.0
C2035 C 0.5897 0.61284 0.86786 0.0
C2036 C 0.60215 0.61526 0.87155 0.0
C2037 C 0.609 0.62557 0.86682 0.0
C2038 C 0.58204 0.60237 0.8735 0.0
C2039 C 0.57615 0.59407 0.86528 0.0
C2040 C 0.58044 0.60061 0.8869 0.0
C2041 C 0.58552 0.60955 0.89616 0.0
C2042 C 0.59365 0.60567 0.90554 0.0
C2043 C 0.59849 0.61411 0.91422 0.0
C2044 C 0.5952 0.62643 0.91367 0.0
C2045 C 0.58703 0.63034 0.90445 0.0
C2046 C 0.58215 0.62194 0.89575 0.0
C2047 C 0.55518 0.54949 0.88996 0.0
C2048 C 0.54577 0.55136 0.89969 0.0
C2049 C 0.56243 0.5594 0.88485 0.0
C2050 C 0.56019 0.57139 0.88915 0.0
C2051 C 0.55088 0.57324 0.89899 0.0
C2052 C 0.54379 0.56331 0.90425 0.0
C2053 C 0.56754 0.58204 0.88346 0.0
C2054 C 0.57341 0.59037 0.89168 0.0
C2055 C 0.56875 0.58406 0.87008 0.0
C2056 C 0.562 0.5762 0.8609 0.0
C2057 C 0.54872 0.57457 0.86207 0.0
C2058 C 0.54242 0.56709 0.85343 0.0
C2059 C 0.54929 0.56128 0.84352 0.0
C2060 C 0.56247 0.56295 0.84221 0.0
C2061 C 0.56882 0.5704 0.85083 0.0
H2062 H 0.5444 0.5555 0.83685 0.0
H2063 H 0.59896 0.63295 0.92039 0.0
loop_
_geom_bond_atom_site_label_1
_geom_bond_atom_site_label_2
_geom_bond_distance
_geom_bond_site_symmetry_2
_ccdc_geom_bond_type
O0 Cd1 2.300 . S
O0 C7 1.275 . S
Cd1 O0 2.300 . S
Cd1 O9 2.381 . S
Cd1 O10 2.378 . S
O2 Cd3 2.385 . S
O2 C7 1.255 . S
Cd3 O2 2.385 . S
Cd3 O4 2.317 . S
O4 Cd3 2.317 . S
O4 C5 1.232 . S
C5 O4 1.232 . S
C5 O6 1.218 . S
O6 C5 1.218 . S
C7 O0 1.275 . S
C7 O2 1.255 . S
C8 O9 1.258 . S
C8 O10 1.256 . S
O9 Cd1 2.381 . S
O9 C8 1.258 . S
O10 Cd1 2.378 . S
O10 C8 1.256 . S
O11 Cd12 2.300 . S
O11 C18 1.275 . S
Cd12 O11 2.300 . S
Cd12 O20 2.381 . S
Cd12 O21 2.378 . S
O13 Cd14 2.385 . S
O13 C18 1.255 . S
Cd14 O13 2.385 . S
Cd14 O15 2.317 . S
O15 Cd14 2.317 . S
O15 C16 1.232 . S
C16 O15 1.232 . S
C16 O17 1.218 . S
O17 C16 1.218 . S
C18 O11 1.275 . S
C18 O13 1.255 . S
C19 O20 1.258 . S
C19 O21 1.256 . S
O20 Cd12 2.381 . S
O20 C19 1.258 . S
O21 Cd12 2.378 . S
O21 C19 1.256 . S
O22 Cd23 2.300 . S
O22 C29 1.275 . S
Cd23 O22 2.300 . S
Cd23 O31 2.381 . S
Cd23 O32 2.378 . S
O24 Cd25 2.385 . S
O24 C29 1.255 . S
Cd25 O24 2.385 . S
Cd25 O26 2.317 . S
O26 Cd25 2.317 . S
O26 C27 1.232 . S
C27 O26 1.232 . S
C27 O28 1.218 . S
O28 C27 1.218 . S
C29 O22 1.275 . S
C29 O24 1.255 . S
C30 O31 1.258 . S
C30 O32 1.256 . S
O31 Cd23 2.381 . S
O31 C30 1.258 . S
O32 Cd23 2.378 . S
O32 C30 1.256 . S
O33 Cd34 2.300 . S
O33 C40 1.275 . S
Cd34 O33 2.300 . S
Cd34 O42 2.381 . S
Cd34 O43 2.378 . S
O35 Cd36 2.385 . S
O35 C40 1.255 . S
Cd36 O35 2.385 . S
Cd36 O37 2.317 . S
O37 Cd36 2.317 . S
O37 C38 1.232 . S
C38 O37 1.232 . S
C38 O39 1.218 . S
O39 C38 1.218 . S
C40 O33 1.275 . S
C40 O35 1.255 . S
C41 O42 1.258 . S
C41 O43 1.256 . S
O42 Cd34 2.381 . S
O42 C41 1.258 . S
O43 Cd34 2.378 . S
O43 C41 1.256 . S
O44 Cd45 2.300 . S
O44 C51 1.275 1_565 S
Cd45 O44 2.300 . S
Cd45 O53 2.381 . S
Cd45 O54 2.378 . S
O46 Cd47 2.385 . S
O46 C51 1.255 . S
Cd47 O46 2.385 . S
Cd47 O48 2.317 . S
O48 Cd47 2.317 . S
O48 C49 1.232 . S
C49 O48 1.232 . S
C49 O50 1.218 . S
O50 C49 1.218 . S
C51 O44 1.275 1_545 S
C51 O46 1.255 . S
C52 O53 1.258 . S
C52 O54 1.256 . S
O53 Cd45 2.381 . S
O53 C52 1.258 . S
O54 Cd45 2.378 . S
O54 C52 1.256 . S
O55 Cd56 2.300 . S
O55 C62 1.275 . S
Cd56 O55 2.300 . S
Cd56 O64 2.381 . S
Cd56 O65 2.378 . S
O57 Cd58 2.385 . S
O57 C62 1.255 . S
Cd58 O57 2.385 . S
Cd58 O59 2.317 . S
O59 Cd58 2.317 . S
O59 C60 1.232 . S
C60 O59 1.232 . S
C60 O61 1.218 . S
O61 C60 1.218 . S
C62 O55 1.275 . S
C62 O57 1.255 . S
C63 O64 1.258 . S
C63 O65 1.256 . S
O64 Cd56 2.381 . S
O64 C63 1.258 . S
O65 Cd56 2.378 . S
O65 C63 1.256 . S
O66 Cd67 2.300 1_565 S
O66 C73 1.275 . S
Cd67 O66 2.300 1_545 S
Cd67 O75 2.381 . S
Cd67 O76 2.378 . S
O68 Cd69 2.385 . S
O68 C73 1.255 1_545 S
Cd69 O68 2.385 . S
Cd69 O70 2.305 1_545 S
O70 Cd69 2.305 1_565 S
O70 C71 1.257 . S
C71 O70 1.257 . S
C71 O72 1.218 . S
O72 C71 1.218 . S
C73 O66 1.275 . S
C73 O68 1.255 1_565 S
C74 O75 1.258 . S
C74 O76 1.256 . S
O75 Cd67 2.381 . S
O75 C74 1.258 . S
O76 Cd67 2.378 . S
O76 C74 1.256 . S
O77 Cd78 2.300 . S
O77 C84 1.275 . S
Cd78 O77 2.300 . S
Cd78 O86 2.381 . S
Cd78 O87 2.378 . S
O79 Cd80 2.385 . S
O79 C84 1.255 . S
Cd80 O79 2.385 . S
Cd80 O81 2.317 . S
O81 Cd80 2.317 . S
O81 C82 1.232 . S
C82 O81 1.232 . S
C82 O83 1.218 . S
O83 C82 1.218 . S
C84 O77 1.275 . S
C84 O79 1.255 . S
C85 O86 1.258 . S
C85 O87 1.256 . S
O86 Cd78 2.381 . S
O86 C85 1.258 . S
O87 Cd78 2.378 . S
O87 C85 1.256 . S
O88 Cd89 2.300 . S
O88 C95 1.275 . S
Cd89 O88 2.300 . S
Cd89 O97 2.381 . S
Cd89 O98 2.378 . S
O90 Cd91 2.385 . S
O90 C95 1.255 . S
Cd91 O90 2.385 . S
Cd91 O92 2.317 . S
O92 Cd91 2.317 . S
O92 C93 1.232 . S
C93 O92 1.232 . S
C93 O94 1.218 . S
O94 C93 1.218 . S
C95 O88 1.275 . S
C95 O90 1.255 . S
C96 O97 1.258 . S
C96 O98 1.256 . S
O97 Cd89 2.381 . S
O97 C96 1.258 . S
O98 Cd89 2.378 . S
O98 C96 1.256 . S
O99 Cd100 2.300 . S
O99 C106 1.275 . S
Cd100 O99 2.300 . S
Cd100 O108 2.381 . S
Cd100 O109 2.378 . S
O101 Cd102 2.385 . S
O101 C106 1.255 . S
Cd102 O101 2.385 . S
Cd102 O103 2.317 . S
O103 Cd102 2.317 . S
O103 C104 1.232 . S
C104 O103 1.232 . S
C104 O105 1.218 . S
O105 C104 1.218 . S
C106 O99 1.275 . S
C106 O101 1.255 . S
C107 O108 1.258 . S
C107 O109 1.256 . S
O108 Cd100 2.381 . S
O108 C107 1.258 . S
O109 Cd100 2.378 . S
O109 C107 1.256 . S
O110 Cd111 2.300 . S
O110 C117 1.275 . S
Cd111 O110 2.300 . S
Cd111 O119 2.381 . S
Cd111 O120 2.378 . S
O112 Cd113 2.385 . S
O112 C117 1.255 . S
Cd113 O112 2.385 . S
Cd113 O114 2.317 . S
O114 Cd113 2.317 . S
O114 C115 1.232 . S
C115 O114 1.232 . S
C115 O116 1.218 . S
O116 C115 1.218 . S
C117 O110 1.275 . S
C117 O112 1.255 . S
C118 O119 1.258 . S
C118 O120 1.256 . S
O119 Cd111 2.381 . S
O119 C118 1.258 . S
O120 Cd111 2.378 . S
O120 C118 1.256 . S
O121 Cd122 2.300 . S
O121 C128 1.275 . S
Cd122 O121 2.300 . S
Cd122 O130 2.381 . S
Cd122 O131 2.378 . S
O123 Cd124 2.385 . S
O123 C128 1.255 . S
Cd124 O123 2.385 . S
Cd124 O125 2.317 . S
O125 Cd124 2.317 . S
O125 C126 1.232 . S
C126 O125 1.232 . S
C126 O127 1.218 . S
O127 C126 1.218 . S
C128 O121 1.275 . S
C128 O123 1.255 . S
C129 O130 1.258 . S
C129 O131 1.256 . S
O130 Cd122 2.381 . S
O130 C129 1.258 . S
O131 Cd122 2.378 . S
O131 C129 1.256 . S
O132 Cd133 2.300 1_556 S
O132 C139 1.275 . S
Cd133 O132 2.300 1_554 S
Cd133 O141 2.381 . S
Cd133 O142 2.378 . S
O134 Cd135 2.385 . S
O134 C139 1.255 . S
Cd135 O134 2.385 . S
Cd135 O136 2.317 . S
O136 Cd135 2.317 . S
O136 C137 1.232 . S
C137 O136 1.232 . S
C137 O138 1.218 . S
O138 C137 1.218 . S
C139 O132 1.275 . S
C139 O134 1.255 . S
C140 O141 1.258 . S
C140 O142 1.256 . S
O141 Cd133 2.381 . S
O141 C140 1.258 . S
O142 Cd133 2.378 . S
O142 C140 1.256 . S
O143 Cd144 2.300 . S
O143 C150 1.275 . S
Cd144 O143 2.300 . S
Cd144 O152 2.381 . S
Cd144 O153 2.378 . S
O145 Cd146 2.385 . S
O145 C150 1.255 . S
Cd146 O145 2.385 . S
Cd146 O147 2.317 . S
O147 Cd146 2.317 . S
O147 C148 1.232 . S
C148 O147 1.232 . S
C148 O149 1.218 . S
O149 C148 1.218 . S
C150 O143 1.275 . S
C150 O145 1.255 . S
C151 O152 1.258 . S
C151 O153 1.256 . S
O152 Cd144 2.381 . S
O152 C151 1.258 . S
O153 Cd144 2.378 . S
O153 C151 1.256 . S
O154 Cd155 2.300 . S
O154 C161 1.275 . S
Cd155 O154 2.300 . S
Cd155 O163 2.381 . S
Cd155 O164 2.378 . S
O156 Cd157 2.385 . S
O156 C161 1.255 . S
Cd157 O156 2.385 . S
Cd157 O158 2.317 . S
O158 Cd157 2.317 . S
O158 C159 1.232 . S
C159 O158 1.232 . S
C159 O160 1.218 . S
O160 C159 1.218 . S
C161 O154 1.275 . S
C161 O156 1.255 . S
C162 O163 1.258 . S
C162 O164 1.256 . S
O163 Cd155 2.381 . S
O163 C162 1.258 . S
O164 Cd155 2.378 . S
O164 C162 1.256 . S
O165 Cd166 2.300 . S
O165 C172 1.275 . S
Cd166 O165 2.300 . S
Cd166 O174 2.381 . S
Cd166 O175 2.378 . S
O167 Cd168 2.385 . S
O167 C172 1.255 . S
Cd168 O167 2.385 . S
Cd168 O169 2.317 . S
O169 Cd168 2.317 . S
O169 C170 1.232 . S
C170 O169 1.232 . S
C170 O171 1.218 . S
O171 C170 1.218 . S
C172 O165 1.275 . S
C172 O167 1.255 . S
C173 O174 1.258 . S
C173 O175 1.256 . S
O174 Cd166 2.381 . S
O174 C173 1.258 . S
O175 Cd166 2.378 . S
O175 C173 1.256 . S
O176 Cd177 2.300 . S
O176 C183 1.275 . S
Cd177 O176 2.300 . S
Cd177 O185 2.381 . S
Cd177 O186 2.378 . S
O178 Cd179 2.385 . S
O178 C183 1.255 . S
Cd179 O178 2.385 . S
Cd179 O180 2.317 . S
O180 Cd179 2.317 . S
O180 C181 1.232 . S
C181 O180 1.232 . S
C181 O182 1.218 . S
O182 C181 1.218 . S
C183 O176 1.275 . S
C183 O178 1.255 . S
C184 O185 1.258 . S
C184 O186 1.256 . S
O185 Cd177 2.381 . S
O185 C184 1.258 . S
O186 Cd177 2.378 . S
O186 C184 1.256 . S
O187 Cd188 2.300 . S
O187 C194 1.275 . S
Cd188 O187 2.300 . S
Cd188 O196 2.381 . S
Cd188 O197 2.378 . S
O189 Cd190 2.385 . S
O189 C194 1.255 . S
Cd190 O189 2.385 . S
Cd190 O191 2.317 . S
O191 Cd190 2.317 . S
O191 C192 1.232 . S
C192 O191 1.232 . S
C192 O193 1.218 . S
O193 C192 1.218 . S
C194 O187 1.275 . S
C194 O189 1.255 . S
C195 O196 1.258 . S
C195 O197 1.256 . S
O196 Cd188 2.381 . S
O196 C195 1.258 . S
O197 Cd188 2.378 . S
O197 C195 1.256 . S
O198 Cd199 2.300 . S
O198 C205 1.275 . S
Cd199 O198 2.300 . S
Cd199 O207 2.381 . S
Cd199 O208 2.378 . S
O200 Cd201 2.385 . S
O200 C205 1.255 . S
Cd201 O200 2.385 . S
Cd201 O202 2.317 . S
O202 Cd201 2.317 . S
O202 C203 1.232 . S
C203 O202 1.232 . S
C203 O204 1.218 . S
O204 C203 1.218 . S
C205 O198 1.275 . S
C205 O200 1.255 . S
C206 O207 1.258 . S
C206 O208 1.256 . S
O207 Cd199 2.381 . S
O207 C206 1.258 . S
O208 Cd199 2.378 . S
O208 C206 1.256 . S
O209 Cd210 2.300 . S
O209 C216 1.275 . S
Cd210 O209 2.300 . S
Cd210 O218 2.381 . S
Cd210 O219 2.378 . S
O211 Cd212 2.385 . S
O211 C216 1.255 . S
Cd212 O211 2.385 . S
Cd212 O213 2.317 . S
O213 Cd212 2.317 . S
O213 C214 1.232 . S
C214 O213 1.232 . S
C214 O215 1.218 . S
O215 C214 1.218 . S
C216 O209 1.275 . S
C216 O211 1.255 . S
C217 O218 1.258 . S
C217 O219 1.256 . S
O218 Cd210 2.381 . S
O218 C217 1.258 . S
O219 Cd210 2.378 . S
O219 C217 1.256 . S
O220 Cd221 2.300 . S
O220 C227 1.275 . S
Cd221 O220 2.300 . S
Cd221 O229 2.381 . S
Cd221 O230 2.378 . S
O222 Cd223 2.385 . S
O222 C227 1.255 . S
Cd223 O222 2.385 . S
Cd223 O224 2.317 . S
O224 Cd223 2.317 . S
O224 C225 1.232 . S
C225 O224 1.232 . S
C225 O226 1.218 . S
O226 C225 1.218 . S
C227 O220 1.275 . S
C227 O222 1.255 . S
C228 O229 1.258 . S
C228 O230 1.256 . S
O229 Cd221 2.381 . S
O229 C228 1.258 . S
O230 Cd221 2.378 . S
O230 C228 1.256 . S
O231 Cd232 2.300 . S
O231 C238 1.275 . S
Cd232 O231 2.300 . S
Cd232 O240 2.381 . S
Cd232 O241 2.378 . S
O233 Cd234 2.385 . S
O233 C238 1.255 . S
Cd234 O233 2.385 . S
Cd234 O235 2.317 . S
O235 Cd234 2.317 . S
O235 C236 1.232 . S
C236 O235 1.232 . S
C236 O237 1.218 . S
O237 C236 1.218 . S
C238 O231 1.275 . S
C238 O233 1.255 . S
C239 O240 1.258 . S
C239 O241 1.256 . S
O240 Cd232 2.381 . S
O240 C239 1.258 . S
O241 Cd232 2.378 . S
O241 C239 1.256 . S
O242 Cd243 2.300 . S
O242 C249 1.275 . S
Cd243 O242 2.300 . S
Cd243 O251 2.381 . S
Cd243 O252 2.378 . S
O244 Cd245 2.385 . S
O244 C249 1.255 . S
Cd245 O244 2.385 . S
Cd245 O246 2.317 . S
O246 Cd245 2.317 . S
O246 C247 1.232 . S
C247 O246 1.232 . S
C247 O248 1.218 . S
O248 C247 1.218 . S
C249 O242 1.275 . S
C249 O244 1.255 . S
C250 O251 1.258 . S
C250 O252 1.256 . S
O251 Cd243 2.381 . S
O251 C250 1.258 . S
O252 Cd243 2.378 . S
O252 C250 1.256 . S
O253 Cd254 2.300 . S
O253 C260 1.275 . S
Cd254 O253 2.300 . S
Cd254 O262 2.381 . S
Cd254 O263 2.378 . S
O255 Cd256 2.385 . S
O255 C260 1.255 . S
Cd256 O255 2.385 . S
Cd256 O257 2.317 . S
O257 Cd256 2.317 . S
O257 C258 1.232 . S
C258 O257 1.232 . S
C258 O259 1.218 . S
O259 C258 1.218 . S
C260 O253 1.275 . S
C260 O255 1.255 . S
C261 O262 1.258 . S
C261 O263 1.256 . S
O262 Cd254 2.381 . S
O262 C261 1.258 . S
O263 Cd254 2.378 . S
O263 C261 1.256 . S
H264 C282 0.951 . S
H265 C284 0.951 . S
H266 C286 0.950 . S
H267 C287 0.950 . S
H268 C289 0.950 . S
H269 C292 0.950 . S
H270 C293 0.950 . S
H271 C295 0.950 . S
H272 C296 0.950 . S
H273 C297 0.951 . S
H274 C299 0.951 . S
H275 C301 0.950 . S
H276 C302 0.950 . S
H277 C304 0.950 . S
H278 C307 0.950 . S
H279 C308 0.950 . S
H280 C310 0.950 . S
H281 C311 0.950 . S
C282 H264 0.951 . S
C282 C283 1.366 . S
C282 C284 1.388 . S
C283 C282 1.366 . S
C283 C287 1.385 . S
C284 H265 0.951 . S
C284 C282 1.388 . S
C284 C285 1.366 . S
C285 C284 1.366 . S
C285 C286 1.414 . S
C285 C288 1.499 . S
C286 H266 0.950 . S
C286 C285 1.414 . S
C286 C287 1.374 . S
C287 H267 0.950 . S
C287 C283 1.385 . S
C287 C286 1.374 . S
C288 C285 1.499 . S
C288 C289 1.373 . S
C288 C290 1.389 . S
C289 H268 0.950 . S
C289 C288 1.373 . S
C289 C305 1.377 . S
C290 C288 1.389 . S
C290 C291 1.524 . S
C290 C304 1.377 . S
C291 C290 1.524 . S
C291 C292 1.397 . S
C291 C296 1.363 . S
C292 H269 0.950 . S
C292 C291 1.397 . S
C292 C293 1.334 . S
C293 H270 0.950 . S
C293 C292 1.334 . S
C293 C294 1.287 . S
C294 C293 1.287 . S
C294 C295 1.524 . S
C294 H313 0.913 . S
C295 H271 0.950 . S
C295 C294 1.524 . S
C295 C296 1.415 . S
C296 H272 0.950 . S
C296 C291 1.363 . S
C296 C295 1.415 . S
C297 H273 0.951 . S
C297 C298 1.366 . S
C297 C299 1.388 . S
C298 C297 1.366 . S
C298 C302 1.385 . S
C299 H274 0.951 . S
C299 C297 1.388 . S
C299 C300 1.366 . S
C300 C299 1.366 . S
C300 C301 1.414 . S
C300 C303 1.499 . S
C301 H275 0.950 . S
C301 C300 1.414 . S
C301 C302 1.374 . S
C302 H276 0.950 . S
C302 C298 1.385 . S
C302 C301 1.374 . S
C303 C300 1.499 . S
C303 C304 1.373 . S
C303 C305 1.389 . S
C304 H277 0.950 . S
C304 C290 1.377 . S
C304 C303 1.373 . S
C305 C289 1.377 . S
C305 C303 1.389 . S
C305 C306 1.524 . S
C306 C305 1.524 . S
C306 C307 1.397 . S
C306 C311 1.363 . S
C307 H278 0.950 . S
C307 C306 1.397 . S
C307 C308 1.334 . S
C308 H279 0.950 . S
C308 C307 1.334 . S
C308 C309 1.287 . S
C309 C308 1.287 . S
C309 C310 1.524 . S
C309 H312 0.999 . S
C310 H280 0.950 . S
C310 C309 1.524 . S
C310 C311 1.415 . S
C311 H281 0.950 . S
C311 C306 1.363 . S
C311 C310 1.415 . S
H312 C309 0.999 . S
H313 C294 0.913 . S
H314 C332 0.951 . S
H315 C334 0.951 . S
H316 C336 0.950 . S
H317 C337 0.950 . S
H318 C339 0.950 . S
H319 C342 0.950 . S
H320 C343 0.950 . S
H321 C345 0.950 . S
H322 C346 0.950 . S
H323 C347 0.951 . S
H324 C349 0.951 . S
H325 C351 0.950 . S
H326 C352 0.950 . S
H327 C354 0.950 . S
H328 C357 0.950 . S
H329 C358 0.950 . S
H330 C360 0.950 . S
H331 C361 0.950 . S
C332 H314 0.951 . S
C332 C333 1.366 . S
C332 C334 1.388 . S
C333 C332 1.366 . S
C333 C337 1.385 . S
C334 H315 0.951 . S
C334 C332 1.388 . S
C334 C335 1.366 . S
C335 C334 1.366 . S
C335 C336 1.414 . S
C335 C338 1.499 . S
C336 H316 0.950 . S
C336 C335 1.414 . S
C336 C337 1.374 . S
C337 H317 0.950 . S
C337 C333 1.385 . S
C337 C336 1.374 . S
C338 C335 1.499 . S
C338 C339 1.373 . S
C338 C340 1.389 . S
C339 H318 0.950 . S
C339 C338 1.373 . S
C339 C355 1.377 . S
C340 C338 1.389 . S
C340 C341 1.524 . S
C340 C354 1.377 . S
C341 C340 1.524 . S
C341 C342 1.397 . S
C341 C346 1.363 . S
C342 H319 0.950 . S
C342 C341 1.397 . S
C342 C343 1.334 . S
C343 H320 0.950 . S
C343 C342 1.334 . S
C343 C344 1.287 . S
C344 C343 1.287 . S
C344 C345 1.524 . S
C344 H363 0.913 . S
C345 H321 0.950 . S
C345 C344 1.524 . S
C345 C346 1.415 . S
C346 H322 0.950 . S
C346 C341 1.363 . S
C346 C345 1.415 . S
C347 H323 0.951 . S
C347 C348 1.366 . S
C347 C349 1.388 . S
C348 C347 1.366 . S
C348 C352 1.385 . S
C349 H324 0.951 . S
C349 C347 1.388 . S
C349 C350 1.366 . S
C350 C349 1.366 . S
C350 C351 1.414 . S
C350 C353 1.499 . S
C351 H325 0.950 . S
C351 C350 1.414 . S
C351 C352 1.374 . S
C352 H326 0.950 . S
C352 C348 1.385 . S
C352 C351 1.374 . S
C353 C350 1.499 . S
C353 C354 1.373 . S
C353 C355 1.389 . S
C354 H327 0.950 . S
C354 C340 1.377 . S
C354 C353 1.373 . S
C355 C339 1.377 . S
C355 C353 1.389 . S
C355 C356 1.524 . S
C356 C355 1.524 . S
C356 C357 1.397 . S
C356 C361 1.363 . S
C357 H328 0.950 . S
C357 C356 1.397 . S
C357 C358 1.334 . S
C358 H329 0.950 . S
C358 C357 1.334 . S
C358 C359 1.287 . S
C359 C358 1.287 . S
C359 C360 1.524 . S
C359 H362 0.999 . S
C360 H330 0.950 . S
C360 C359 1.524 . S
C360 C361 1.415 . S
C361 H331 0.950 . S
C361 C356 1.363 . S
C361 C360 1.415 . S
H362 C359 0.999 . S
H363 C344 0.913 . S
H364 C382 0.951 . S
H365 C384 0.951 . S
H366 C386 0.950 . S
H367 C387 0.950 . S
H368 C389 0.950 . S
H369 C392 0.950 . S
H370 C393 0.950 . S
H371 C395 0.950 . S
H372 C396 0.950 . S
H373 C397 0.951 . S
H374 C399 0.951 . S
H375 C401 0.950 . S
H376 C402 0.950 . S
H377 C404 0.950 . S
H378 C407 0.950 . S
H379 C408 0.950 . S
H380 C410 0.950 . S
H381 C411 0.950 . S
C382 H364 0.951 . S
C382 C383 1.366 . S
C382 C384 1.388 . S
C383 C382 1.366 . S
C383 C387 1.385 . S
C384 H365 0.951 . S
C384 C382 1.388 . S
C384 C385 1.366 . S
C385 C384 1.366 . S
C385 C386 1.414 . S
C385 C388 1.499 . S
C386 H366 0.950 . S
C386 C385 1.414 . S
C386 C387 1.374 . S
C387 H367 0.950 . S
C387 C383 1.385 . S
C387 C386 1.374 . S
C388 C385 1.499 . S
C388 C389 1.373 . S
C388 C390 1.389 . S
C389 H368 0.950 . S
C389 C388 1.373 . S
C389 C405 1.377 . S
C390 C388 1.389 . S
C390 C391 1.524 . S
C390 C404 1.377 . S
C391 C390 1.524 . S
C391 C392 1.397 . S
C391 C396 1.363 . S
C392 H369 0.950 . S
C392 C391 1.397 . S
C392 C393 1.334 . S
C393 H370 0.950 . S
C393 C392 1.334 . S
C393 C394 1.287 . S
C394 C393 1.287 . S
C394 C395 1.524 . S
C394 H413 0.913 . S
C395 H371 0.950 . S
C395 C394 1.524 . S
C395 C396 1.415 . S
C396 H372 0.950 . S
C396 C391 1.363 . S
C396 C395 1.415 . S
C397 H373 0.951 . S
C397 C398 1.366 . S
C397 C399 1.388 . S
C398 C397 1.366 . S
C398 C402 1.385 . S
C399 H374 0.951 . S
C399 C397 1.388 . S
C399 C400 1.366 . S
C400 C399 1.366 . S
C400 C401 1.414 . S
C400 C403 1.499 . S
C401 H375 0.950 . S
C401 C400 1.414 . S
C401 C402 1.374 . S
C402 H376 0.950 . S
C402 C398 1.385 . S
C402 C401 1.374 . S
C403 C400 1.499 . S
C403 C404 1.373 . S
C403 C405 1.389 . S
C404 H377 0.950 . S
C404 C390 1.377 . S
C404 C403 1.373 . S
C405 C389 1.377 . S
C405 C403 1.389 . S
C405 C406 1.524 . S
C406 C405 1.524 . S
C406 C407 1.397 . S
C406 C411 1.363 . S
C407 H378 0.950 . S
C407 C406 1.397 . S
C407 C408 1.334 . S
C408 H379 0.950 . S
C408 C407 1.334 . S
C408 C409 1.287 . S
C409 C408 1.287 . S
C409 C410 1.524 . S
C409 H412 0.999 . S
C410 H380 0.950 . S
C410 C409 1.524 . S
C410 C411 1.415 . S
C411 H381 0.950 . S
C411 C406 1.363 . S
C411 C410 1.415 . S
H412 C409 0.999 . S
H413 C394 0.913 . S
H414 C432 0.951 . S
H415 C434 0.951 . S
H416 C436 0.950 . S
H417 C437 0.950 . S
H418 C439 0.950 . S
H419 C442 0.950 . S
H420 C443 0.950 . S
H421 C445 0.950 . S
H422 C446 0.950 . S
H423 C447 0.951 . S
H424 C449 0.951 . S
H425 C451 0.950 . S
H426 C452 0.950 . S
H427 C454 0.950 . S
H428 C457 0.950 . S
H429 C458 0.950 . S
H430 C460 0.950 . S
H431 C461 0.950 . S
C432 H414 0.951 . S
C432 C433 1.366 . S
C432 C434 1.388 . S
C433 C432 1.366 . S
C433 C437 1.385 . S
C434 H415 0.951 . S
C434 C432 1.388 . S
C434 C435 1.366 . S
C435 C434 1.366 . S
C435 C436 1.414 . S
C435 C438 1.499 . S
C436 H416 0.950 . S
C436 C435 1.414 . S
C436 C437 1.374 . S
C437 H417 0.950 . S
C437 C433 1.385 . S
C437 C436 1.374 . S
C438 C435 1.499 . S
C438 C439 1.373 . S
C438 C440 1.389 . S
C439 H418 0.950 . S
C439 C438 1.373 . S
C439 C455 1.377 . S
C440 C438 1.389 . S
C440 C441 1.524 . S
C440 C454 1.377 . S
C441 C440 1.524 . S
C441 C442 1.397 . S
C441 C446 1.363 . S
C442 H419 0.950 . S
C442 C441 1.397 . S
C442 C443 1.334 . S
C443 H420 0.950 . S
C443 C442 1.334 . S
C443 C444 1.287 . S
C444 C443 1.287 . S
C444 C445 1.524 . S
C444 H463 0.913 . S
C445 H421 0.950 . S
C445 C444 1.524 . S
C445 C446 1.415 . S
C446 H422 0.950 . S
C446 C441 1.363 . S
C446 C445 1.415 . S
C447 H423 0.951 . S
C447 C448 1.366 . S
C447 C449 1.388 . S
C448 C447 1.366 . S
C448 C452 1.385 . S
C449 H424 0.951 . S
C449 C447 1.388 . S
C449 C450 1.366 . S
C450 C449 1.366 . S
C450 C451 1.414 . S
C450 C453 1.499 . S
C451 H425 0.950 . S
C451 C450 1.414 . S
C451 C452 1.374 . S
C452 H426 0.950 . S
C452 C448 1.385 . S
C452 C451 1.374 . S
C453 C450 1.499 . S
C453 C454 1.373 . S
C453 C455 1.389 . S
C454 H427 0.950 . S
C454 C440 1.377 . S
C454 C453 1.373 . S
C455 C439 1.377 . S
C455 C453 1.389 . S
C455 C456 1.524 . S
C456 C455 1.524 . S
C456 C457 1.397 . S
C456 C461 1.363 . S
C457 H428 0.950 . S
C457 C456 1.397 . S
C457 C458 1.334 . S
C458 H429 0.950 . S
C458 C457 1.334 . S
C458 C459 1.287 . S
C459 C458 1.287 . S
C459 C460 1.524 . S
C459 H462 0.999 . S
C460 H430 0.950 . S
C460 C459 1.524 . S
C460 C461 1.415 . S
C461 H431 0.950 . S
C461 C456 1.363 . S
C461 C460 1.415 . S
H462 C459 0.999 . S
H463 C444 0.913 . S
H464 C482 0.951 . S
H465 C484 0.951 . S
H466 C486 0.950 . S
H467 C487 0.950 . S
H468 C489 0.950 . S
H469 C492 0.950 . S
H470 C493 0.950 . S
H471 C495 0.950 . S
H472 C496 0.950 . S
H473 C497 0.951 . S
H474 C499 0.951 . S
H475 C501 0.950 . S
H476 C502 0.950 . S
H477 C504 0.950 . S
H478 C507 0.950 . S
H479 C508 0.950 . S
H480 C510 0.950 . S
H481 C511 0.950 . S
C482 H464 0.951 . S
C482 C483 1.366 . S
C482 C484 1.388 . S
C483 C482 1.366 . S
C483 C487 1.385 . S
C484 H465 0.951 . S
C484 C482 1.388 . S
C484 C485 1.366 . S
C485 C484 1.366 . S
C485 C486 1.414 . S
C485 C488 1.499 . S
C486 H466 0.950 . S
C486 C485 1.414 . S
C486 C487 1.374 . S
C487 H467 0.950 . S
C487 C483 1.385 . S
C487 C486 1.374 . S
C488 C485 1.499 . S
C488 C489 1.373 . S
C488 C490 1.389 . S
C489 H468 0.950 . S
C489 C488 1.373 . S
C489 C505 1.377 . S
C490 C488 1.389 . S
C490 C491 1.524 . S
C490 C504 1.377 . S
C491 C490 1.524 . S
C491 C492 1.397 . S
C491 C496 1.363 . S
C492 H469 0.950 . S
C492 C491 1.397 . S
C492 C493 1.334 . S
C493 H470 0.950 . S
C493 C492 1.334 . S
C493 C494 1.287 . S
C494 C493 1.287 . S
C494 C495 1.524 . S
C494 H513 0.913 . S
C495 H471 0.950 . S
C495 C494 1.524 . S
C495 C496 1.415 . S
C496 H472 0.950 . S
C496 C491 1.363 . S
C496 C495 1.415 . S
C497 H473 0.951 . S
C497 C498 1.366 . S
C497 C499 1.388 . S
C498 C497 1.366 . S
C498 C502 1.385 . S
C499 H474 0.951 . S
C499 C497 1.388 . S
C499 C500 1.366 . S
C500 C499 1.366 . S
C500 C501 1.414 . S
C500 C503 1.499 . S
C501 H475 0.950 . S
C501 C500 1.414 . S
C501 C502 1.374 . S
C502 H476 0.950 . S
C502 C498 1.385 . S
C502 C501 1.374 . S
C503 C500 1.499 . S
C503 C504 1.373 . S
C503 C505 1.389 . S
C504 H477 0.950 . S
C504 C490 1.377 . S
C504 C503 1.373 . S
C505 C489 1.377 . S
C505 C503 1.389 . S
C505 C506 1.524 . S
C506 C505 1.524 . S
C506 C507 1.397 . S
C506 C511 1.363 . S
C507 H478 0.950 . S
C507 C506 1.397 . S
C507 C508 1.334 . S
C508 H479 0.950 . S
C508 C507 1.334 . S
C508 C509 1.287 . S
C509 C508 1.287 . S
C509 C510 1.524 . S
C509 H512 0.999 . S
C510 H480 0.950 . S
C510 C509 1.524 . S
C510 C511 1.415 . S
C511 H481 0.950 . S
C511 C506 1.363 . S
C511 C510 1.415 . S
H512 C509 0.999 . S
H513 C494 0.913 . S
H514 C532 0.951 . S
H515 C534 0.951 . S
H516 C536 0.950 . S
H517 C537 0.950 . S
H518 C539 0.950 . S
H519 C542 0.950 . S
H520 C543 0.950 . S
H521 C545 0.950 . S
H522 C546 0.950 . S
H523 C547 0.951 . S
H524 C549 0.951 . S
H525 C551 0.950 . S
H526 C552 0.950 . S
H527 C554 0.950 . S
H528 C557 0.950 . S
H529 C558 0.950 . S
H530 C560 0.950 . S
H531 C561 0.950 . S
C532 H514 0.951 . S
C532 C533 1.366 . S
C532 C534 1.388 . S
C533 C532 1.366 . S
C533 C537 1.385 . S
C534 H515 0.951 . S
C534 C532 1.388 . S
C534 C535 1.366 . S
C535 C534 1.366 . S
C535 C536 1.414 . S
C535 C538 1.499 . S
C536 H516 0.950 . S
C536 C535 1.414 . S
C536 C537 1.374 . S
C537 H517 0.950 . S
C537 C533 1.385 . S
C537 C536 1.374 . S
C538 C535 1.499 . S
C538 C539 1.373 . S
C538 C540 1.389 . S
C539 H518 0.950 . S
C539 C538 1.373 . S
C539 C555 1.377 . S
C540 C538 1.389 . S
C540 C541 1.524 . S
C540 C554 1.377 . S
C541 C540 1.524 . S
C541 C542 1.397 . S
C541 C546 1.363 . S
C542 H519 0.950 . S
C542 C541 1.397 . S
C542 C543 1.334 . S
C543 H520 0.950 . S
C543 C542 1.334 . S
C543 C544 1.287 . S
C544 C543 1.287 . S
C544 C545 1.524 . S
C544 H563 0.913 . S
C545 H521 0.950 . S
C545 C544 1.524 . S
C545 C546 1.415 . S
C546 H522 0.950 . S
C546 C541 1.363 . S
C546 C545 1.415 . S
C547 H523 0.951 . S
C547 C548 1.366 . S
C547 C549 1.388 . S
C548 C547 1.366 . S
C548 C552 1.385 . S
C549 H524 0.951 . S
C549 C547 1.388 . S
C549 C550 1.366 . S
C550 C549 1.366 . S
C550 C551 1.414 . S
C550 C553 1.499 . S
C551 H525 0.950 . S
C551 C550 1.414 . S
C551 C552 1.374 . S
C552 H526 0.950 . S
C552 C548 1.385 . S
C552 C551 1.374 . S
C553 C550 1.499 . S
C553 C554 1.373 . S
C553 C555 1.389 . S
C554 H527 0.950 . S
C554 C540 1.377 . S
C554 C553 1.373 . S
C555 C539 1.377 . S
C555 C553 1.389 . S
C555 C556 1.524 . S
C556 C555 1.524 . S
C556 C557 1.397 . S
C556 C561 1.363 . S
C557 H528 0.950 . S
C557 C556 1.397 . S
C557 C558 1.334 . S
C558 H529 0.950 . S
C558 C557 1.334 . S
C558 C559 1.287 . S
C559 C558 1.287 . S
C559 C560 1.524 . S
C559 H562 0.999 . S
C560 H530 0.950 . S
C560 C559 1.524 . S
C560 C561 1.415 . S
C561 H531 0.950 . S
C561 C556 1.363 . S
C561 C560 1.415 . S
H562 C559 0.999 . S
H563 C544 0.913 . S
H564 C582 0.951 . S
H565 C584 0.951 . S
H566 C586 0.950 . S
H567 C587 0.950 . S
H568 C589 0.950 . S
H569 C592 0.950 . S
H570 C593 0.950 . S
H571 C595 0.950 . S
H572 C596 0.950 . S
H573 C597 0.951 . S
H574 C599 0.951 . S
H575 C601 0.950 . S
H576 C602 0.950 . S
H577 C604 0.950 . S
H578 C607 0.950 . S
H579 C608 0.950 . S
H580 C610 0.950 . S
H581 C611 0.950 . S
C582 H564 0.951 . S
C582 C583 1.366 . S
C582 C584 1.388 . S
C583 C582 1.366 . S
C583 C587 1.385 . S
C584 H565 0.951 . S
C584 C582 1.388 . S
C584 C585 1.366 . S
C585 C584 1.366 . S
C585 C586 1.414 . S
C585 C588 1.499 . S
C586 H566 0.950 . S
C586 C585 1.414 . S
C586 C587 1.374 . S
C587 H567 0.950 . S
C587 C583 1.385 . S
C587 C586 1.374 . S
C588 C585 1.499 . S
C588 C589 1.373 . S
C588 C590 1.389 . S
C589 H568 0.950 . S
C589 C588 1.373 . S
C589 C605 1.377 . S
C590 C588 1.389 . S
C590 C591 1.524 . S
C590 C604 1.377 . S
C591 C590 1.524 . S
C591 C592 1.397 . S
C591 C596 1.363 . S
C592 H569 0.950 . S
C592 C591 1.397 . S
C592 C593 1.334 . S
C593 H570 0.950 . S
C593 C592 1.334 . S
C593 C594 1.287 . S
C594 C593 1.287 . S
C594 C595 1.524 . S
C594 H613 0.913 . S
C595 H571 0.950 . S
C595 C594 1.524 . S
C595 C596 1.415 . S
C596 H572 0.950 . S
C596 C591 1.363 . S
C596 C595 1.415 . S
C597 H573 0.951 . S
C597 C598 1.366 . S
C597 C599 1.388 . S
C598 C597 1.366 . S
C598 C602 1.385 . S
C599 H574 0.951 . S
C599 C597 1.388 . S
C599 C600 1.366 . S
C600 C599 1.366 . S
C600 C601 1.414 . S
C600 C603 1.499 . S
C601 H575 0.950 . S
C601 C600 1.414 . S
C601 C602 1.374 . S
C602 H576 0.950 . S
C602 C598 1.385 . S
C602 C601 1.374 . S
C603 C600 1.499 . S
C603 C604 1.373 . S
C603 C605 1.389 . S
C604 H577 0.950 . S
C604 C590 1.377 . S
C604 C603 1.373 . S
C605 C589 1.377 . S
C605 C603 1.389 . S
C605 C606 1.524 . S
C606 C605 1.524 . S
C606 C607 1.397 . S
C606 C611 1.363 . S
C607 H578 0.950 . S
C607 C606 1.397 . S
C607 C608 1.334 . S
C608 H579 0.950 . S
C608 C607 1.334 . S
C608 C609 1.287 . S
C609 C608 1.287 . S
C609 C610 1.524 . S
C609 H612 0.999 . S
C610 H580 0.950 . S
C610 C609 1.524 . S
C610 C611 1.415 . S
C611 H581 0.950 . S
C611 C606 1.363 . S
C611 C610 1.415 . S
H612 C609 0.999 . S
H613 C594 0.913 . S
H614 C632 0.951 . S
H615 C634 0.951 . S
H616 C636 0.950 . S
H617 C637 0.950 . S
H618 C639 0.950 . S
H619 C642 0.950 . S
H620 C643 0.950 . S
H621 C645 0.950 . S
H622 C646 0.950 . S
H623 C647 0.951 . S
H624 C649 0.951 . S
H625 C651 0.950 . S
H626 C652 0.950 . S
H627 C654 0.950 . S
H628 C657 0.950 . S
H629 C658 0.950 . S
H630 C660 0.950 . S
H631 C661 0.950 . S
C632 H614 0.951 . S
C632 C633 1.366 . S
C632 C634 1.388 . S
C633 C632 1.366 . S
C633 C637 1.385 . S
C634 H615 0.951 . S
C634 C632 1.388 . S
C634 C635 1.366 . S
C635 C634 1.366 . S
C635 C636 1.414 . S
C635 C638 1.499 . S
C636 H616 0.950 . S
C636 C635 1.414 . S
C636 C637 1.374 . S
C637 H617 0.950 . S
C637 C633 1.385 . S
C637 C636 1.374 . S
C638 C635 1.499 . S
C638 C639 1.373 . S
C638 C640 1.389 . S
C639 H618 0.950 . S
C639 C638 1.373 . S
C639 C655 1.377 . S
C640 C638 1.389 . S
C640 C641 1.524 . S
C640 C654 1.377 . S
C641 C640 1.524 . S
C641 C642 1.397 . S
C641 C646 1.363 . S
C642 H619 0.950 . S
C642 C641 1.397 . S
C642 C643 1.334 . S
C643 H620 0.950 . S
C643 C642 1.334 . S
C643 C644 1.287 . S
C644 C643 1.287 . S
C644 C645 1.524 . S
C644 H663 0.913 . S
C645 H621 0.950 . S
C645 C644 1.524 . S
C645 C646 1.415 . S
C646 H622 0.950 . S
C646 C641 1.363 . S
C646 C645 1.415 . S
C647 H623 0.951 . S
C647 C648 1.366 . S
C647 C649 1.388 . S
C648 C647 1.366 . S
C648 C652 1.385 . S
C649 H624 0.951 . S
C649 C647 1.388 . S
C649 C650 1.366 . S
C650 C649 1.366 . S
C650 C651 1.414 . S
C650 C653 1.499 . S
C651 H625 0.950 . S
C651 C650 1.414 . S
C651 C652 1.374 . S
C652 H626 0.950 . S
C652 C648 1.385 . S
C652 C651 1.374 . S
C653 C650 1.499 . S
C653 C654 1.373 . S
C653 C655 1.389 . S
C654 H627 0.950 . S
C654 C640 1.377 . S
C654 C653 1.373 . S
C655 C639 1.377 . S
C655 C653 1.389 . S
C655 C656 1.524 . S
C656 C655 1.524 . S
C656 C657 1.397 . S
C656 C661 1.363 . S
C657 H628 0.950 . S
C657 C656 1.397 . S
C657 C658 1.334 . S
C658 H629 0.950 . S
C658 C657 1.334 . S
C658 C659 1.287 . S
C659 C658 1.287 . S
C659 C660 1.524 . S
C659 H662 0.999 . S
C660 H630 0.950 . S
C660 C659 1.524 . S
C660 C661 1.415 . S
C661 H631 0.950 . S
C661 C656 1.363 . S
C661 C660 1.415 . S
H662 C659 0.999 . S
H663 C644 0.913 . S
H664 C682 0.951 . S
H665 C684 0.951 . S
H666 C686 0.950 . S
H667 C687 0.950 . S
H668 C689 0.950 . S
H669 C692 0.950 . S
H670 C693 0.950 . S
H671 C695 0.950 . S
H672 C696 0.950 . S
H673 C697 0.951 . S
H674 C699 0.951 . S
H675 C701 0.950 . S
H676 C702 0.950 . S
H677 C704 0.950 . S
H678 C707 0.950 . S
H679 C708 0.950 . S
H680 C710 0.950 . S
H681 C711 0.950 . S
C682 H664 0.951 . S
C682 C683 1.366 . S
C682 C684 1.388 . S
C683 C682 1.366 . S
C683 C687 1.385 . S
C684 H665 0.951 . S
C684 C682 1.388 . S
C684 C685 1.366 . S
C685 C684 1.366 . S
C685 C686 1.414 . S
C685 C688 1.499 . S
C686 H666 0.950 . S
C686 C685 1.414 . S
C686 C687 1.374 . S
C687 H667 0.950 . S
C687 C683 1.385 . S
C687 C686 1.374 . S
C688 C685 1.499 . S
C688 C689 1.373 . S
C688 C690 1.389 . S
C689 H668 0.950 . S
C689 C688 1.373 . S
C689 C705 1.377 . S
C690 C688 1.389 . S
C690 C691 1.524 . S
C690 C704 1.377 . S
C691 C690 1.524 . S
C691 C692 1.397 . S
C691 C696 1.363 . S
C692 H669 0.950 . S
C692 C691 1.397 . S
C692 C693 1.334 . S
C693 H670 0.950 . S
C693 C692 1.334 . S
C693 C694 1.287 . S
C694 C693 1.287 . S
C694 C695 1.524 . S
C694 H713 0.913 . S
C695 H671 0.950 . S
C695 C694 1.524 . S
C695 C696 1.415 . S
C696 H672 0.950 . S
C696 C691 1.363 . S
C696 C695 1.415 . S
C697 H673 0.951 . S
C697 C698 1.366 . S
C697 C699 1.388 . S
C698 C697 1.366 . S
C698 C702 1.385 . S
C699 H674 0.951 . S
C699 C697 1.388 . S
C699 C700 1.366 . S
C700 C699 1.366 . S
C700 C701 1.414 . S
C700 C703 1.499 . S
C701 H675 0.950 . S
C701 C700 1.414 . S
C701 C702 1.374 . S
C702 H676 0.950 . S
C702 C698 1.385 . S
C702 C701 1.374 . S
C703 C700 1.499 . S
C703 C704 1.373 . S
C703 C705 1.389 . S
C704 H677 0.950 . S
C704 C690 1.377 . S
C704 C703 1.373 . S
C705 C689 1.377 . S
C705 C703 1.389 . S
C705 C706 1.524 . S
C706 C705 1.524 . S
C706 C707 1.397 . S
C706 C711 1.363 . S
C707 H678 0.950 . S
C707 C706 1.397 . S
C707 C708 1.334 . S
C708 H679 0.950 . S
C708 C707 1.334 . S
C708 C709 1.287 . S
C709 C708 1.287 . S
C709 C710 1.524 . S
C709 H712 0.999 . S
C710 H680 0.950 . S
C710 C709 1.524 . S
C710 C711 1.415 . S
C711 H681 0.950 . S
C711 C706 1.363 . S
C711 C710 1.415 . S
H712 C709 0.999 . S
H713 C694 0.913 . S
H714 C732 0.951 . S
H715 C734 0.951 . S
H716 C736 0.950 . S
H717 C737 0.950 . S
H718 C739 0.950 . S
H719 C742 0.950 . S
H720 C743 0.950 . S
H721 C745 0.950 . S
H722 C746 0.950 . S
H723 C747 0.951 . S
H724 C749 0.951 . S
H725 C751 0.950 . S
H726 C752 0.950 . S
H727 C754 0.950 . S
H728 C757 0.950 . S
H729 C758 0.950 . S
H730 C760 0.950 . S
H731 C761 0.950 . S
C732 H714 0.951 . S
C732 C733 1.366 . S
C732 C734 1.388 . S
C733 C732 1.366 . S
C733 C737 1.385 . S
C734 H715 0.951 . S
C734 C732 1.388 . S
C734 C735 1.366 . S
C735 C734 1.366 . S
C735 C736 1.414 . S
C735 C738 1.499 . S
C736 H716 0.950 . S
C736 C735 1.414 . S
C736 C737 1.374 . S
C737 H717 0.950 . S
C737 C733 1.385 . S
C737 C736 1.374 . S
C738 C735 1.499 . S
C738 C739 1.373 . S
C738 C740 1.389 . S
C739 H718 0.950 . S
C739 C738 1.373 . S
C739 C755 1.377 . S
C740 C738 1.389 . S
C740 C741 1.524 . S
C740 C754 1.377 . S
C741 C740 1.524 . S
C741 C742 1.397 . S
C741 C746 1.363 . S
C742 H719 0.950 . S
C742 C741 1.397 . S
C742 C743 1.334 . S
C743 H720 0.950 . S
C743 C742 1.334 . S
C743 C744 1.287 . S
C744 C743 1.287 . S
C744 C745 1.524 . S
C744 H763 0.913 . S
C745 H721 0.950 . S
C745 C744 1.524 . S
C745 C746 1.415 . S
C746 H722 0.950 . S
C746 C741 1.363 . S
C746 C745 1.415 . S
C747 H723 0.951 . S
C747 C748 1.366 . S
C747 C749 1.388 . S
C748 C747 1.366 . S
C748 C752 1.385 . S
C749 H724 0.951 . S
C749 C747 1.388 . S
C749 C750 1.366 . S
C750 C749 1.366 . S
C750 C751 1.414 . S
C750 C753 1.499 . S
C751 H725 0.950 . S
C751 C750 1.414 . S
C751 C752 1.374 . S
C752 H726 0.950 . S
C752 C748 1.385 . S
C752 C751 1.374 . S
C753 C750 1.499 . S
C753 C754 1.373 . S
C753 C755 1.389 . S
C754 H727 0.950 . S
C754 C740 1.377 . S
C754 C753 1.373 . S
C755 C739 1.377 . S
C755 C753 1.389 . S
C755 C756 1.524 . S
C756 C755 1.524 . S
C756 C757 1.397 . S
C756 C761 1.363 . S
C757 H728 0.950 . S
C757 C756 1.397 . S
C757 C758 1.334 . S
C758 H729 0.950 . S
C758 C757 1.334 . S
C758 C759 1.287 . S
C759 C758 1.287 . S
C759 C760 1.524 . S
C759 H762 0.999 . S
C760 H730 0.950 . S
C760 C759 1.524 . S
C760 C761 1.415 . S
C761 H731 0.950 . S
C761 C756 1.363 . S
C761 C760 1.415 . S
H762 C759 0.999 . S
H763 C744 0.913 . S
H764 C782 0.951 . S
H765 C784 0.951 . S
H766 C786 0.950 . S
H767 C787 0.950 . S
H768 C789 0.950 . S
H769 C792 0.950 . S
H770 C793 0.950 . S
H771 C795 0.950 . S
H772 C796 0.950 . S
H773 C797 0.951 . S
H774 C799 0.951 . S
H775 C801 0.950 . S
H776 C802 0.950 . S
H777 C804 0.950 . S
H778 C807 0.950 . S
H779 C808 0.950 . S
H780 C810 0.950 . S
H781 C811 0.950 . S
C782 H764 0.951 . S
C782 C783 1.366 . S
C782 C784 1.388 . S
C783 C782 1.366 . S
C783 C787 1.385 . S
C784 H765 0.951 . S
C784 C782 1.388 . S
C784 C785 1.366 . S
C785 C784 1.366 . S
C785 C786 1.414 . S
C785 C788 1.499 . S
C786 H766 0.950 . S
C786 C785 1.414 . S
C786 C787 1.374 . S
C787 H767 0.950 . S
C787 C783 1.385 . S
C787 C786 1.374 . S
C788 C785 1.499 . S
C788 C789 1.373 . S
C788 C790 1.389 . S
C789 H768 0.950 . S
C789 C788 1.373 . S
C789 C805 1.377 . S
C790 C788 1.389 . S
C790 C791 1.524 . S
C790 C804 1.377 . S
C791 C790 1.524 . S
C791 C792 1.397 . S
C791 C796 1.363 . S
C792 H769 0.950 . S
C792 C791 1.397 . S
C792 C793 1.334 . S
C793 H770 0.950 . S
C793 C792 1.334 . S
C793 C794 1.287 . S
C794 C793 1.287 . S
C794 C795 1.524 . S
C794 H813 0.913 . S
C795 H771 0.950 . S
C795 C794 1.524 . S
C795 C796 1.415 . S
C796 H772 0.950 . S
C796 C791 1.363 . S
C796 C795 1.415 . S
C797 H773 0.951 . S
C797 C798 1.366 . S
C797 C799 1.388 . S
C798 C797 1.366 . S
C798 C802 1.385 . S
C799 H774 0.951 . S
C799 C797 1.388 . S
C799 C800 1.366 . S
C800 C799 1.366 . S
C800 C801 1.414 . S
C800 C803 1.499 . S
C801 H775 0.950 . S
C801 C800 1.414 . S
C801 C802 1.374 . S
C802 H776 0.950 . S
C802 C798 1.385 . S
C802 C801 1.374 . S
C803 C800 1.499 . S
C803 C804 1.373 . S
C803 C805 1.389 . S
C804 H777 0.950 . S
C804 C790 1.377 . S
C804 C803 1.373 . S
C805 C789 1.377 . S
C805 C803 1.389 . S
C805 C806 1.524 . S
C806 C805 1.524 . S
C806 C807 1.397 . S
C806 C811 1.363 . S
C807 H778 0.950 . S
C807 C806 1.397 . S
C807 C808 1.334 . S
C808 H779 0.950 . S
C808 C807 1.334 . S
C808 C809 1.287 . S
C809 C808 1.287 . S
C809 C810 1.524 . S
C809 H812 0.999 . S
C810 H780 0.950 . S
C810 C809 1.524 . S
C810 C811 1.415 . S
C811 H781 0.950 . S
C811 C806 1.363 . S
C811 C810 1.415 . S
H812 C809 0.999 . S
H813 C794 0.913 . S
H814 C832 0.951 . S
H815 C834 0.951 . S
H816 C836 0.950 . S
H817 C837 0.950 . S
H818 C839 0.950 . S
H819 C842 0.950 . S
H820 C843 0.950 . S
H821 C845 0.950 . S
H822 C846 0.950 . S
H823 C847 0.951 . S
H824 C849 0.951 . S
H825 C851 0.950 . S
H826 C852 0.950 . S
H827 C854 0.950 . S
H828 C857 0.950 . S
H829 C858 0.950 . S
H830 C860 0.950 . S
H831 C861 0.950 . S
C832 H814 0.951 . S
C832 C833 1.366 . S
C832 C834 1.388 . S
C833 C832 1.366 . S
C833 C837 1.385 . S
C834 H815 0.951 . S
C834 C832 1.388 . S
C834 C835 1.366 . S
C835 C834 1.366 . S
C835 C836 1.414 . S
C835 C838 1.499 . S
C836 H816 0.950 . S
C836 C835 1.414 . S
C836 C837 1.374 . S
C837 H817 0.950 . S
C837 C833 1.385 . S
C837 C836 1.374 . S
C838 C835 1.499 . S
C838 C839 1.373 . S
C838 C840 1.389 . S
C839 H818 0.950 . S
C839 C838 1.373 . S
C839 C855 1.377 . S
C840 C838 1.389 . S
C840 C841 1.524 . S
C840 C854 1.377 . S
C841 C840 1.524 . S
C841 C842 1.397 . S
C841 C846 1.363 . S
C842 H819 0.950 . S
C842 C841 1.397 . S
C842 C843 1.334 . S
C843 H820 0.950 . S
C843 C842 1.334 . S
C843 C844 1.287 . S
C844 C843 1.287 . S
C844 C845 1.524 . S
C844 H863 0.913 . S
C845 H821 0.950 . S
C845 C844 1.524 . S
C845 C846 1.415 . S
C846 H822 0.950 . S
C846 C841 1.363 . S
C846 C845 1.415 . S
C847 H823 0.951 . S
C847 C848 1.366 . S
C847 C849 1.388 . S
C848 C847 1.366 . S
C848 C852 1.385 . S
C849 H824 0.951 . S
C849 C847 1.388 . S
C849 C850 1.366 . S
C850 C849 1.366 . S
C850 C851 1.414 . S
C850 C853 1.499 . S
C851 H825 0.950 . S
C851 C850 1.414 . S
C851 C852 1.374 . S
C852 H826 0.950 . S
C852 C848 1.385 . S
C852 C851 1.374 . S
C853 C850 1.499 . S
C853 C854 1.373 . S
C853 C855 1.389 . S
C854 H827 0.950 . S
C854 C840 1.377 . S
C854 C853 1.373 . S
C855 C839 1.377 . S
C855 C853 1.389 . S
C855 C856 1.524 . S
C856 C855 1.524 . S
C856 C857 1.397 . S
C856 C861 1.363 . S
C857 H828 0.950 . S
C857 C856 1.397 . S
C857 C858 1.334 . S
C858 H829 0.950 . S
C858 C857 1.334 . S
C858 C859 1.287 . S
C859 C858 1.287 . S
C859 C860 1.524 . S
C859 H862 0.999 . S
C860 H830 0.950 . S
C860 C859 1.524 . S
C860 C861 1.415 . S
C861 H831 0.950 . S
C861 C856 1.363 . S
C861 C860 1.415 . S
H862 C859 0.999 . S
H863 C844 0.913 . S
H864 C882 0.951 . S
H865 C884 0.951 . S
H866 C886 0.950 . S
H867 C887 0.950 . S
H868 C889 0.950 . S
H869 C892 0.950 . S
H870 C893 0.950 . S
H871 C895 0.950 . S
H872 C896 0.950 . S
H873 C897 0.951 . S
H874 C899 0.951 . S
H875 C901 0.950 . S
H876 C902 0.950 . S
H877 C904 0.950 . S
H878 C907 0.950 . S
H879 C908 0.950 . S
H880 C910 0.950 . S
H881 C911 0.950 . S
C882 H864 0.951 . S
C882 C883 1.366 . S
C882 C884 1.388 . S
C883 C882 1.366 . S
C883 C887 1.385 . S
C884 H865 0.951 . S
C884 C882 1.388 . S
C884 C885 1.366 . S
C885 C884 1.366 . S
C885 C886 1.414 . S
C885 C888 1.499 . S
C886 H866 0.950 . S
C886 C885 1.414 . S
C886 C887 1.374 . S
C887 H867 0.950 . S
C887 C883 1.385 . S
C887 C886 1.374 . S
C888 C885 1.499 . S
C888 C889 1.373 . S
C888 C890 1.389 . S
C889 H868 0.950 . S
C889 C888 1.373 . S
C889 C905 1.377 . S
C890 C888 1.389 . S
C890 C891 1.524 . S
C890 C904 1.377 . S
C891 C890 1.524 . S
C891 C892 1.397 . S
C891 C896 1.363 . S
C892 H869 0.950 . S
C892 C891 1.397 . S
C892 C893 1.334 . S
C893 H870 0.950 . S
C893 C892 1.334 . S
C893 C894 1.287 . S
C894 C893 1.287 . S
C894 C895 1.524 . S
C894 H913 0.913 . S
C895 H871 0.950 . S
C895 C894 1.524 . S
C895 C896 1.415 . S
C896 H872 0.950 . S
C896 C891 1.363 . S
C896 C895 1.415 . S
C897 H873 0.951 . S
C897 C898 1.366 . S
C897 C899 1.388 . S
C898 C897 1.366 . S
C898 C902 1.385 . S
C899 H874 0.951 . S
C899 C897 1.388 . S
C899 C900 1.366 . S
C900 C899 1.366 . S
C900 C901 1.414 . S
C900 C903 1.499 . S
C901 H875 0.950 . S
C901 C900 1.414 . S
C901 C902 1.374 . S
C902 H876 0.950 . S
C902 C898 1.385 . S
C902 C901 1.374 . S
C903 C900 1.499 . S
C903 C904 1.373 . S
C903 C905 1.389 . S
C904 H877 0.950 . S
C904 C890 1.377 . S
C904 C903 1.373 . S
C905 C889 1.377 . S
C905 C903 1.389 . S
C905 C906 1.524 . S
C906 C905 1.524 . S
C906 C907 1.397 . S
C906 C911 1.363 . S
C907 H878 0.950 . S
C907 C906 1.397 . S
C907 C908 1.334 . S
C908 H879 0.950 . S
C908 C907 1.334 . S
C908 C909 1.287 . S
C909 C908 1.287 . S
C909 C910 1.524 . S
C909 H912 0.999 . S
C910 H880 0.950 . S
C910 C909 1.524 . S
C910 C911 1.415 . S
C911 H881 0.950 . S
C911 C906 1.363 . S
C911 C910 1.415 . S
H912 C909 0.999 . S
H913 C894 0.913 . S
H914 C932 0.951 . S
H915 C934 0.951 . S
H916 C936 0.950 . S
H917 C937 0.950 . S
H918 C939 0.950 . S
H919 C942 0.950 . S
H920 C943 0.950 . S
H921 C945 0.950 . S
H922 C946 0.950 . S
H923 C947 0.951 . S
H924 C949 0.951 . S
H925 C951 0.950 . S
H926 C952 0.950 . S
H927 C954 0.950 . S
H928 C957 0.950 . S
H929 C958 0.950 . S
H930 C960 0.950 . S
H931 C961 0.950 . S
C932 H914 0.951 . S
C932 C933 1.366 . S
C932 C934 1.388 . S
C933 C932 1.366 . S
C933 C937 1.385 . S
C934 H915 0.951 . S
C934 C932 1.388 . S
C934 C935 1.366 . S
C935 C934 1.366 . S
C935 C936 1.414 . S
C935 C938 1.499 . S
C936 H916 0.950 . S
C936 C935 1.414 . S
C936 C937 1.374 . S
C937 H917 0.950 . S
C937 C933 1.385 . S
C937 C936 1.374 . S
C938 C935 1.499 . S
C938 C939 1.373 . S
C938 C940 1.389 . S
C939 H918 0.950 . S
C939 C938 1.373 . S
C939 C955 1.377 . S
C940 C938 1.389 . S
C940 C941 1.524 . S
C940 C954 1.377 . S
C941 C940 1.524 . S
C941 C942 1.397 . S
C941 C946 1.363 . S
C942 H919 0.950 . S
C942 C941 1.397 . S
C942 C943 1.334 . S
C943 H920 0.950 . S
C943 C942 1.334 . S
C943 C944 1.287 . S
C944 C943 1.287 . S
C944 C945 1.524 . S
C944 H963 0.913 . S
C945 H921 0.950 . S
C945 C944 1.524 . S
C945 C946 1.415 . S
C946 H922 0.950 . S
C946 C941 1.363 . S
C946 C945 1.415 . S
C947 H923 0.951 . S
C947 C948 1.366 . S
C947 C949 1.388 . S
C948 C947 1.366 . S
C948 C952 1.385 . S
C949 H924 0.951 . S
C949 C947 1.388 . S
C949 C950 1.366 . S
C950 C949 1.366 . S
C950 C951 1.414 . S
C950 C953 1.499 . S
C951 H925 0.950 . S
C951 C950 1.414 . S
C951 C952 1.374 . S
C952 H926 0.950 . S
C952 C948 1.385 . S
C952 C951 1.374 . S
C953 C950 1.499 . S
C953 C954 1.373 . S
C953 C955 1.389 . S
C954 H927 0.950 . S
C954 C940 1.377 . S
C954 C953 1.373 . S
C955 C939 1.377 . S
C955 C953 1.389 . S
C955 C956 1.524 . S
C956 C955 1.524 . S
C956 C957 1.397 . S
C956 C961 1.363 . S
C957 H928 0.950 . S
C957 C956 1.397 . S
C957 C958 1.334 . S
C958 H929 0.950 . S
C958 C957 1.334 . S
C958 C959 1.287 . S
C959 C958 1.287 . S
C959 C960 1.524 . S
C959 H962 0.999 . S
C960 H930 0.950 . S
C960 C959 1.524 . S
C960 C961 1.415 . S
C961 H931 0.950 . S
C961 C956 1.363 . S
C961 C960 1.415 . S
H962 C959 0.999 . S
H963 C944 0.913 . S
H964 C982 0.951 . S
H965 C984 0.951 . S
H966 C986 0.950 . S
H967 C987 0.950 . S
H968 C989 0.950 . S
H969 C992 0.950 . S
H970 C993 0.950 . S
H971 C995 0.950 . S
H972 C996 0.950 . S
H973 C997 0.951 . S
H974 C999 0.951 . S
H975 C1001 0.950 . S
H976 C1002 0.950 . S
H977 C1004 0.950 . S
H978 C1007 0.950 . S
H979 C1008 0.950 . S
H980 C1010 0.950 . S
H981 C1011 0.950 . S
C982 H964 0.951 . S
C982 C983 1.366 . S
C982 C984 1.388 . S
C983 C982 1.366 . S
C983 C987 1.385 . S
C984 H965 0.951 . S
C984 C982 1.388 . S
C984 C985 1.366 . S
C985 C984 1.366 . S
C985 C986 1.414 . S
C985 C988 1.499 . S
C986 H966 0.950 . S
C986 C985 1.414 . S
C986 C987 1.374 . S
C987 H967 0.950 . S
C987 C983 1.385 . S
C987 C986 1.374 . S
C988 C985 1.499 . S
C988 C989 1.373 . S
C988 C990 1.389 . S
C989 H968 0.950 . S
C989 C988 1.373 . S
C989 C1005 1.377 . S
C990 C988 1.389 . S
C990 C991 1.524 . S
C990 C1004 1.377 . S
C991 C990 1.524 . S
C991 C992 1.397 . S
C991 C996 1.363 . S
C992 H969 0.950 . S
C992 C991 1.397 . S
C992 C993 1.334 . S
C993 H970 0.950 . S
C993 C992 1.334 . S
C993 C994 1.287 . S
C994 C993 1.287 . S
C994 C995 1.524 . S
C994 H1013 0.913 . S
C995 H971 0.950 . S
C995 C994 1.524 . S
C995 C996 1.415 . S
C996 H972 0.950 . S
C996 C991 1.363 . S
C996 C995 1.415 . S
C997 H973 0.951 . S
C997 C998 1.366 . S
C997 C999 1.388 . S
C998 C997 1.366 . S
C998 C1002 1.385 . S
C999 H974 0.951 . S
C999 C997 1.388 . S
C999 C1000 1.366 . S
C1000 C999 1.366 . S
C1000 C1001 1.414 . S
C1000 C1003 1.499 . S
C1001 H975 0.950 . S
C1001 C1000 1.414 . S
C1001 C1002 1.374 . S
C1002 H976 0.950 . S
C1002 C998 1.385 . S
C1002 C1001 1.374 . S
C1003 C1000 1.499 . S
C1003 C1004 1.373 . S
C1003 C1005 1.389 . S
C1004 H977 0.950 . S
C1004 C990 1.377 . S
C1004 C1003 1.373 . S
C1005 C989 1.377 . S
C1005 C1003 1.389 . S
C1005 C1006 1.524 . S
C1006 C1005 1.524 . S
C1006 C1007 1.397 . S
C1006 C1011 1.363 . S
C1007 H978 0.950 . S
C1007 C1006 1.397 . S
C1007 C1008 1.334 . S
C1008 H979 0.950 . S
C1008 C1007 1.334 . S
C1008 C1009 1.287 . S
C1009 C1008 1.287 . S
C1009 C1010 1.524 . S
C1009 H1012 0.999 . S
C1010 H980 0.950 . S
C1010 C1009 1.524 . S
C1010 C1011 1.415 . S
C1011 H981 0.950 . S
C1011 C1006 1.363 . S
C1011 C1010 1.415 . S
H1012 C1009 0.999 . S
H1013 C994 0.913 . S
H1014 C1032 0.951 . S
H1015 C1034 0.951 . S
H1016 C1036 0.950 . S
H1017 C1037 0.950 . S
H1018 C1039 0.950 . S
H1019 C1042 0.950 . S
H1020 C1043 0.950 . S
H1021 C1045 0.950 . S
H1022 C1046 0.950 . S
H1023 C1047 0.951 . S
H1024 C1049 0.951 . S
H1025 C1051 0.950 . S
H1026 C1052 0.950 . S
H1027 C1054 0.950 . S
H1028 C1057 0.950 . S
H1029 C1058 0.950 . S
H1030 C1060 0.950 . S
H1031 C1061 0.950 . S
C1032 H1014 0.951 . S
C1032 C1033 1.366 . S
C1032 C1034 1.388 . S
C1033 C1032 1.366 . S
C1033 C1037 1.385 . S
C1034 H1015 0.951 . S
C1034 C1032 1.388 . S
C1034 C1035 1.366 . S
C1035 C1034 1.366 . S
C1035 C1036 1.414 . S
C1035 C1038 1.499 . S
C1036 H1016 0.950 . S
C1036 C1035 1.414 . S
C1036 C1037 1.374 . S
C1037 H1017 0.950 . S
C1037 C1033 1.385 . S
C1037 C1036 1.374 . S
C1038 C1035 1.499 . S
C1038 C1039 1.373 . S
C1038 C1040 1.389 . S
C1039 H1018 0.950 . S
C1039 C1038 1.373 . S
C1039 C1055 1.377 . S
C1040 C1038 1.389 . S
C1040 C1041 1.524 . S
C1040 C1054 1.377 . S
C1041 C1040 1.524 . S
C1041 C1042 1.397 . S
C1041 C1046 1.363 . S
C1042 H1019 0.950 . S
C1042 C1041 1.397 . S
C1042 C1043 1.334 . S
C1043 H1020 0.950 . S
C1043 C1042 1.334 . S
C1043 C1044 1.287 . S
C1044 C1043 1.287 . S
C1044 C1045 1.524 . S
C1044 H1063 0.913 . S
C1045 H1021 0.950 . S
C1045 C1044 1.524 . S
C1045 C1046 1.415 . S
C1046 H1022 0.950 . S
C1046 C1041 1.363 . S
C1046 C1045 1.415 . S
C1047 H1023 0.951 . S
C1047 C1048 1.366 . S
C1047 C1049 1.388 . S
C1048 C1047 1.366 . S
C1048 C1052 1.385 . S
C1049 H1024 0.951 . S
C1049 C1047 1.388 . S
C1049 C1050 1.366 . S
C1050 C1049 1.366 . S
C1050 C1051 1.414 . S
C1050 C1053 1.499 . S
C1051 H1025 0.950 . S
C1051 C1050 1.414 . S
C1051 C1052 1.374 . S
C1052 H1026 0.950 . S
C1052 C1048 1.385 . S
C1052 C1051 1.374 . S
C1053 C1050 1.499 . S
C1053 C1054 1.373 . S
C1053 C1055 1.389 . S
C1054 H1027 0.950 . S
C1054 C1040 1.377 . S
C1054 C1053 1.373 . S
C1055 C1039 1.377 . S
C1055 C1053 1.389 . S
C1055 C1056 1.524 . S
C1056 C1055 1.524 . S
C1056 C1057 1.397 . S
C1056 C1061 1.363 . S
C1057 H1028 0.950 . S
C1057 C1056 1.397 . S
C1057 C1058 1.334 . S
C1058 H1029 0.950 . S
C1058 C1057 1.334 . S
C1058 C1059 1.287 . S
C1059 C1058 1.287 . S
C1059 C1060 1.524 . S
C1059 H1062 0.999 . S
C1060 H1030 0.950 . S
C1060 C1059 1.524 . S
C1060 C1061 1.415 . S
C1061 H1031 0.950 . S
C1061 C1056 1.363 . S
C1061 C1060 1.415 . S
H1062 C1059 0.999 . S
H1063 C1044 0.913 . S
H1064 C1082 0.951 . S
H1065 C1084 0.951 . S
H1066 C1086 0.950 . S
H1067 C1087 0.950 . S
H1068 C1089 0.950 . S
H1069 C1092 0.950 . S
H1070 C1093 0.950 . S
H1071 C1095 0.950 . S
H1072 C1096 0.950 . S
H1073 C1097 0.951 . S
H1074 C1099 0.951 . S
H1075 C1101 0.950 . S
H1076 C1102 0.950 . S
H1077 C1104 0.950 . S
H1078 C1107 0.950 . S
H1079 C1108 0.950 . S
H1080 C1110 0.950 . S
H1081 C1111 0.950 . S
C1082 H1064 0.951 . S
C1082 C1083 1.366 . S
C1082 C1084 1.388 . S
C1083 C1082 1.366 . S
C1083 C1087 1.385 . S
C1084 H1065 0.951 . S
C1084 C1082 1.388 . S
C1084 C1085 1.366 . S
C1085 C1084 1.366 . S
C1085 C1086 1.414 . S
C1085 C1088 1.499 . S
C1086 H1066 0.950 . S
C1086 C1085 1.414 . S
C1086 C1087 1.374 . S
C1087 H1067 0.950 . S
C1087 C1083 1.385 . S
C1087 C1086 1.374 . S
C1088 C1085 1.499 . S
C1088 C1089 1.373 . S
C1088 C1090 1.389 . S
C1089 H1068 0.950 . S
C1089 C1088 1.373 . S
C1089 C1105 1.377 . S
C1090 C1088 1.389 . S
C1090 C1091 1.524 . S
C1090 C1104 1.377 . S
C1091 C1090 1.524 . S
C1091 C1092 1.397 . S
C1091 C1096 1.363 . S
C1092 H1069 0.950 . S
C1092 C1091 1.397 . S
C1092 C1093 1.334 . S
C1093 H1070 0.950 . S
C1093 C1092 1.334 . S
C1093 C1094 1.287 . S
C1094 C1093 1.287 . S
C1094 C1095 1.524 . S
C1094 H1113 0.913 . S
C1095 H1071 0.950 . S
C1095 C1094 1.524 . S
C1095 C1096 1.415 . S
C1096 H1072 0.950 . S
C1096 C1091 1.363 . S
C1096 C1095 1.415 . S
C1097 H1073 0.951 . S
C1097 C1098 1.366 . S
C1097 C1099 1.388 . S
C1098 C1097 1.366 . S
C1098 C1102 1.385 . S
C1099 H1074 0.951 . S
C1099 C1097 1.388 . S
C1099 C1100 1.366 . S
C1100 C1099 1.366 . S
C1100 C1101 1.414 . S
C1100 C1103 1.499 . S
C1101 H1075 0.950 . S
C1101 C1100 1.414 . S
C1101 C1102 1.374 . S
C1102 H1076 0.950 . S
C1102 C1098 1.385 . S
C1102 C1101 1.374 . S
C1103 C1100 1.499 . S
C1103 C1104 1.373 . S
C1103 C1105 1.389 . S
C1104 H1077 0.950 . S
C1104 C1090 1.377 . S
C1104 C1103 1.373 . S
C1105 C1089 1.377 . S
C1105 C1103 1.389 . S
C1105 C1106 1.524 . S
C1106 C1105 1.524 . S
C1106 C1107 1.397 . S
C1106 C1111 1.363 . S
C1107 H1078 0.950 . S
C1107 C1106 1.397 . S
C1107 C1108 1.334 . S
C1108 H1079 0.950 . S
C1108 C1107 1.334 . S
C1108 C1109 1.287 . S
C1109 C1108 1.287 . S
C1109 C1110 1.524 . S
C1109 H1112 0.999 . S
C1110 H1080 0.950 . S
C1110 C1109 1.524 . S
C1110 C1111 1.415 . S
C1111 H1081 0.950 . S
C1111 C1106 1.363 . S
C1111 C1110 1.415 . S
H1112 C1109 0.999 . S
H1113 C1094 0.913 . S
H1114 C1132 0.951 . S
H1115 C1134 0.951 . S
H1116 C1136 0.950 . S
H1117 C1137 0.950 . S
H1118 C1139 0.950 . S
H1119 C1142 0.950 . S
H1120 C1143 0.950 . S
H1121 C1145 0.950 . S
H1122 C1146 0.950 . S
H1123 C1147 0.951 . S
H1124 C1149 0.951 . S
H1125 C1151 0.950 . S
H1126 C1152 0.950 . S
H1127 C1154 0.950 . S
H1128 C1157 0.950 . S
H1129 C1158 0.950 . S
H1130 C1160 0.950 . S
H1131 C1161 0.950 . S
C1132 H1114 0.951 . S
C1132 C1133 1.366 . S
C1132 C1134 1.388 . S
C1133 C1132 1.366 . S
C1133 C1137 1.385 . S
C1134 H1115 0.951 . S
C1134 C1132 1.388 . S
C1134 C1135 1.366 . S
C1135 C1134 1.366 . S
C1135 C1136 1.414 . S
C1135 C1138 1.499 . S
C1136 H1116 0.950 . S
C1136 C1135 1.414 . S
C1136 C1137 1.374 . S
C1137 H1117 0.950 . S
C1137 C1133 1.385 . S
C1137 C1136 1.374 . S
C1138 C1135 1.499 . S
C1138 C1139 1.373 . S
C1138 C1140 1.389 . S
C1139 H1118 0.950 . S
C1139 C1138 1.373 . S
C1139 C1155 1.377 . S
C1140 C1138 1.389 . S
C1140 C1141 1.524 . S
C1140 C1154 1.377 . S
C1141 C1140 1.524 . S
C1141 C1142 1.397 . S
C1141 C1146 1.363 . S
C1142 H1119 0.950 . S
C1142 C1141 1.397 . S
C1142 C1143 1.334 . S
C1143 H1120 0.950 . S
C1143 C1142 1.334 . S
C1143 C1144 1.287 . S
C1144 C1143 1.287 . S
C1144 C1145 1.524 . S
C1144 H1163 0.913 . S
C1145 H1121 0.950 . S
C1145 C1144 1.524 . S
C1145 C1146 1.415 . S
C1146 H1122 0.950 . S
C1146 C1141 1.363 . S
C1146 C1145 1.415 . S
C1147 H1123 0.951 . S
C1147 C1148 1.366 . S
C1147 C1149 1.388 . S
C1148 C1147 1.366 . S
C1148 C1152 1.385 . S
C1149 H1124 0.951 . S
C1149 C1147 1.388 . S
C1149 C1150 1.366 . S
C1150 C1149 1.366 . S
C1150 C1151 1.414 . S
C1150 C1153 1.499 . S
C1151 H1125 0.950 . S
C1151 C1150 1.414 . S
C1151 C1152 1.374 . S
C1152 H1126 0.950 . S
C1152 C1148 1.385 . S
C1152 C1151 1.374 . S
C1153 C1150 1.499 . S
C1153 C1154 1.373 . S
C1153 C1155 1.389 . S
C1154 H1127 0.950 . S
C1154 C1140 1.377 . S
C1154 C1153 1.373 . S
C1155 C1139 1.377 . S
C1155 C1153 1.389 . S
C1155 C1156 1.524 . S
C1156 C1155 1.524 . S
C1156 C1157 1.397 . S
C1156 C1161 1.363 . S
C1157 H1128 0.950 . S
C1157 C1156 1.397 . S
C1157 C1158 1.334 . S
C1158 H1129 0.950 . S
C1158 C1157 1.334 . S
C1158 C1159 1.287 . S
C1159 C1158 1.287 . S
C1159 C1160 1.524 . S
C1159 H1162 0.999 . S
C1160 H1130 0.950 . S
C1160 C1159 1.524 . S
C1160 C1161 1.415 . S
C1161 H1131 0.950 . S
C1161 C1156 1.363 . S
C1161 C1160 1.415 . S
H1162 C1159 0.999 . S
H1163 C1144 0.913 . S
H1164 C1182 0.951 . S
H1165 C1184 0.951 . S
H1166 C1186 0.950 . S
H1167 C1187 0.950 . S
H1168 C1189 0.950 . S
H1169 C1192 0.950 . S
H1170 C1193 0.950 . S
H1171 C1195 0.950 . S
H1172 C1196 0.950 . S
H1173 C1197 0.951 . S
H1174 C1199 0.951 . S
H1175 C1201 0.950 . S
H1176 C1202 0.950 . S
H1177 C1204 0.950 . S
H1178 C1207 0.950 . S
H1179 C1208 0.950 . S
H1180 C1210 0.950 . S
H1181 C1211 0.950 . S
C1182 H1164 0.951 . S
C1182 C1183 1.366 . S
C1182 C1184 1.388 . S
C1183 C1182 1.366 . S
C1183 C1187 1.385 . S
C1184 H1165 0.951 . S
C1184 C1182 1.388 . S
C1184 C1185 1.366 . S
C1185 C1184 1.366 . S
C1185 C1186 1.414 . S
C1185 C1188 1.499 . S
C1186 H1166 0.950 . S
C1186 C1185 1.414 . S
C1186 C1187 1.374 . S
C1187 H1167 0.950 . S
C1187 C1183 1.385 . S
C1187 C1186 1.374 . S
C1188 C1185 1.499 . S
C1188 C1189 1.373 . S
C1188 C1190 1.389 . S
C1189 H1168 0.950 . S
C1189 C1188 1.373 . S
C1189 C1205 1.377 . S
C1190 C1188 1.389 . S
C1190 C1191 1.524 . S
C1190 C1204 1.377 . S
C1191 C1190 1.524 . S
C1191 C1192 1.397 . S
C1191 C1196 1.363 . S
C1192 H1169 0.950 . S
C1192 C1191 1.397 . S
C1192 C1193 1.334 . S
C1193 H1170 0.950 . S
C1193 C1192 1.334 . S
C1193 C1194 1.287 . S
C1194 C1193 1.287 . S
C1194 C1195 1.524 . S
C1194 H1213 0.913 . S
C1195 H1171 0.950 . S
C1195 C1194 1.524 . S
C1195 C1196 1.415 . S
C1196 H1172 0.950 . S
C1196 C1191 1.363 . S
C1196 C1195 1.415 . S
C1197 H1173 0.951 . S
C1197 C1198 1.366 . S
C1197 C1199 1.388 . S
C1198 C1197 1.366 . S
C1198 C1202 1.385 . S
C1199 H1174 0.951 . S
C1199 C1197 1.388 . S
C1199 C1200 1.366 . S
C1200 C1199 1.366 . S
C1200 C1201 1.414 . S
C1200 C1203 1.499 . S
C1201 H1175 0.950 . S
C1201 C1200 1.414 . S
C1201 C1202 1.374 . S
C1202 H1176 0.950 . S
C1202 C1198 1.385 . S
C1202 C1201 1.374 . S
C1203 C1200 1.499 . S
C1203 C1204 1.373 . S
C1203 C1205 1.389 . S
C1204 H1177 0.950 . S
C1204 C1190 1.377 . S
C1204 C1203 1.373 . S
C1205 C1189 1.377 . S
C1205 C1203 1.389 . S
C1205 C1206 1.524 . S
C1206 C1205 1.524 . S
C1206 C1207 1.397 . S
C1206 C1211 1.363 . S
C1207 H1178 0.950 . S
C1207 C1206 1.397 . S
C1207 C1208 1.334 . S
C1208 H1179 0.950 . S
C1208 C1207 1.334 . S
C1208 C1209 1.287 . S
C1209 C1208 1.287 . S
C1209 C1210 1.524 . S
C1209 H1212 0.999 . S
C1210 H1180 0.950 . S
C1210 C1209 1.524 . S
C1210 C1211 1.415 . S
C1211 H1181 0.950 . S
C1211 C1206 1.363 . S
C1211 C1210 1.415 . S
H1212 C1209 0.999 . S
H1213 C1194 0.913 . S
H1214 C1232 0.951 . S
H1215 C1234 0.951 . S
H1216 C1236 0.950 . S
H1217 C1237 0.950 . S
H1218 C1239 0.950 . S
H1219 C1242 0.950 . S
H1220 C1243 0.950 . S
H1221 C1245 0.950 . S
H1222 C1246 0.950 . S
H1223 C1247 0.951 . S
H1224 C1249 0.951 . S
H1225 C1251 0.950 . S
H1226 C1252 0.950 . S
H1227 C1254 0.950 . S
H1228 C1257 0.950 . S
H1229 C1258 0.950 . S
H1230 C1260 0.950 . S
H1231 C1261 0.950 . S
C1232 H1214 0.951 . S
C1232 C1233 1.366 . S
C1232 C1234 1.388 . S
C1233 C1232 1.366 . S
C1233 C1237 1.385 . S
C1234 H1215 0.951 . S
C1234 C1232 1.388 . S
C1234 C1235 1.366 . S
C1235 C1234 1.366 . S
C1235 C1236 1.414 . S
C1235 C1238 1.499 . S
C1236 H1216 0.950 . S
C1236 C1235 1.414 . S
C1236 C1237 1.374 . S
C1237 H1217 0.950 . S
C1237 C1233 1.385 . S
C1237 C1236 1.374 . S
C1238 C1235 1.499 . S
C1238 C1239 1.373 . S
C1238 C1240 1.389 . S
C1239 H1218 0.950 . S
C1239 C1238 1.373 . S
C1239 C1255 1.377 . S
C1240 C1238 1.389 . S
C1240 C1241 1.524 . S
C1240 C1254 1.377 . S
C1241 C1240 1.524 . S
C1241 C1242 1.397 . S
C1241 C1246 1.363 . S
C1242 H1219 0.950 . S
C1242 C1241 1.397 . S
C1242 C1243 1.334 . S
C1243 H1220 0.950 . S
C1243 C1242 1.334 . S
C1243 C1244 1.287 . S
C1244 C1243 1.287 . S
C1244 C1245 1.524 . S
C1244 H1263 0.913 . S
C1245 H1221 0.950 . S
C1245 C1244 1.524 . S
C1245 C1246 1.415 . S
C1246 H1222 0.950 . S
C1246 C1241 1.363 . S
C1246 C1245 1.415 . S
C1247 H1223 0.951 . S
C1247 C1248 1.366 . S
C1247 C1249 1.388 . S
C1248 C1247 1.366 . S
C1248 C1252 1.385 . S
C1249 H1224 0.951 . S
C1249 C1247 1.388 . S
C1249 C1250 1.366 . S
C1250 C1249 1.366 . S
C1250 C1251 1.414 . S
C1250 C1253 1.499 . S
C1251 H1225 0.950 . S
C1251 C1250 1.414 . S
C1251 C1252 1.374 . S
C1252 H1226 0.950 . S
C1252 C1248 1.385 . S
C1252 C1251 1.374 . S
C1253 C1250 1.499 . S
C1253 C1254 1.373 . S
C1253 C1255 1.389 . S
C1254 H1227 0.950 . S
C1254 C1240 1.377 . S
C1254 C1253 1.373 . S
C1255 C1239 1.377 . S
C1255 C1253 1.389 . S
C1255 C1256 1.524 . S
C1256 C1255 1.524 . S
C1256 C1257 1.397 . S
C1256 C1261 1.363 . S
C1257 H1228 0.950 . S
C1257 C1256 1.397 . S
C1257 C1258 1.334 . S
C1258 H1229 0.950 . S
C1258 C1257 1.334 . S
C1258 C1259 1.287 . S
C1259 C1258 1.287 . S
C1259 C1260 1.524 . S
C1259 H1262 0.999 . S
C1260 H1230 0.950 . S
C1260 C1259 1.524 . S
C1260 C1261 1.415 . S
C1261 H1231 0.950 . S
C1261 C1256 1.363 . S
C1261 C1260 1.415 . S
H1262 C1259 0.999 . S
H1263 C1244 0.913 . S
H1264 C1282 0.951 . S
H1265 C1284 0.951 . S
H1266 C1286 0.950 . S
H1267 C1287 0.950 . S
H1268 C1289 0.950 . S
H1269 C1292 0.950 . S
H1270 C1293 0.950 . S
H1271 C1295 0.950 . S
H1272 C1296 0.950 . S
H1273 C1297 0.951 . S
H1274 C1299 0.951 . S
H1275 C1301 0.950 . S
H1276 C1302 0.950 . S
H1277 C1304 0.950 . S
H1278 C1307 0.950 . S
H1279 C1308 0.950 . S
H1280 C1310 0.950 . S
H1281 C1311 0.950 . S
C1282 H1264 0.951 . S
C1282 C1283 1.366 . S
C1282 C1284 1.388 . S
C1283 C1282 1.366 . S
C1283 C1287 1.385 . S
C1284 H1265 0.951 . S
C1284 C1282 1.388 . S
C1284 C1285 1.366 . S
C1285 C1284 1.366 . S
C1285 C1286 1.414 . S
C1285 C1288 1.499 . S
C1286 H1266 0.950 . S
C1286 C1285 1.414 . S
C1286 C1287 1.374 . S
C1287 H1267 0.950 . S
C1287 C1283 1.385 . S
C1287 C1286 1.374 . S
C1288 C1285 1.499 . S
C1288 C1289 1.373 . S
C1288 C1290 1.389 . S
C1289 H1268 0.950 . S
C1289 C1288 1.373 . S
C1289 C1305 1.377 . S
C1290 C1288 1.389 . S
C1290 C1291 1.524 . S
C1290 C1304 1.377 . S
C1291 C1290 1.524 . S
C1291 C1292 1.397 . S
C1291 C1296 1.363 . S
C1292 H1269 0.950 . S
C1292 C1291 1.397 . S
C1292 C1293 1.334 . S
C1293 H1270 0.950 . S
C1293 C1292 1.334 . S
C1293 C1294 1.287 . S
C1294 C1293 1.287 . S
C1294 C1295 1.524 . S
C1294 H1313 0.913 . S
C1295 H1271 0.950 . S
C1295 C1294 1.524 . S
C1295 C1296 1.415 . S
C1296 H1272 0.950 . S
C1296 C1291 1.363 . S
C1296 C1295 1.415 . S
C1297 H1273 0.951 . S
C1297 C1298 1.366 . S
C1297 C1299 1.388 . S
C1298 C1297 1.366 . S
C1298 C1302 1.385 . S
C1299 H1274 0.951 . S
C1299 C1297 1.388 . S
C1299 C1300 1.366 . S
C1300 C1299 1.366 . S
C1300 C1301 1.414 . S
C1300 C1303 1.499 . S
C1301 H1275 0.950 . S
C1301 C1300 1.414 . S
C1301 C1302 1.374 . S
C1302 H1276 0.950 . S
C1302 C1298 1.385 . S
C1302 C1301 1.374 . S
C1303 C1300 1.499 . S
C1303 C1304 1.373 . S
C1303 C1305 1.389 . S
C1304 H1277 0.950 . S
C1304 C1290 1.377 . S
C1304 C1303 1.373 . S
C1305 C1289 1.377 . S
C1305 C1303 1.389 . S
C1305 C1306 1.524 . S
C1306 C1305 1.524 . S
C1306 C1307 1.397 . S
C1306 C1311 1.363 . S
C1307 H1278 0.950 . S
C1307 C1306 1.397 . S
C1307 C1308 1.334 . S
C1308 H1279 0.950 . S
C1308 C1307 1.334 . S
C1308 C1309 1.287 . S
C1309 C1308 1.287 . S
C1309 C1310 1.524 . S
C1309 H1312 0.999 . S
C1310 H1280 0.950 . S
C1310 C1309 1.524 . S
C1310 C1311 1.415 . S
C1311 H1281 0.950 . S
C1311 C1306 1.363 . S
C1311 C1310 1.415 . S
H1312 C1309 0.999 . S
H1313 C1294 0.913 . S
H1314 C1332 0.951 . S
H1315 C1334 0.951 . S
H1316 C1336 0.950 . S
H1317 C1337 0.950 . S
H1318 C1339 0.950 . S
H1319 C1342 0.950 . S
H1320 C1343 0.950 . S
H1321 C1345 0.950 . S
H1322 C1346 0.950 . S
H1323 C1347 0.951 . S
H1324 C1349 0.951 . S
H1325 C1351 0.950 . S
H1326 C1352 0.950 . S
H1327 C1354 0.950 . S
H1328 C1357 0.950 . S
H1329 C1358 0.950 . S
H1330 C1360 0.950 . S
H1331 C1361 0.950 . S
C1332 H1314 0.951 . S
C1332 C1333 1.366 . S
C1332 C1334 1.388 . S
C1333 C1332 1.366 . S
C1333 C1337 1.385 . S
C1334 H1315 0.951 . S
C1334 C1332 1.388 . S
C1334 C1335 1.366 . S
C1335 C1334 1.366 . S
C1335 C1336 1.414 . S
C1335 C1338 1.499 . S
C1336 H1316 0.950 . S
C1336 C1335 1.414 . S
C1336 C1337 1.374 . S
C1337 H1317 0.950 . S
C1337 C1333 1.385 . S
C1337 C1336 1.374 . S
C1338 C1335 1.499 . S
C1338 C1339 1.373 . S
C1338 C1340 1.389 . S
C1339 H1318 0.950 . S
C1339 C1338 1.373 . S
C1339 C1355 1.377 . S
C1340 C1338 1.389 . S
C1340 C1341 1.524 . S
C1340 C1354 1.377 . S
C1341 C1340 1.524 . S
C1341 C1342 1.397 . S
C1341 C1346 1.363 . S
C1342 H1319 0.950 . S
C1342 C1341 1.397 . S
C1342 C1343 1.334 . S
C1343 H1320 0.950 . S
C1343 C1342 1.334 . S
C1343 C1344 1.287 . S
C1344 C1343 1.287 . S
C1344 C1345 1.524 . S
C1344 H1363 0.913 . S
C1345 H1321 0.950 . S
C1345 C1344 1.524 . S
C1345 C1346 1.415 . S
C1346 H1322 0.950 . S
C1346 C1341 1.363 . S
C1346 C1345 1.415 . S
C1347 H1323 0.951 . S
C1347 C1348 1.366 . S
C1347 C1349 1.388 . S
C1348 C1347 1.366 . S
C1348 C1352 1.385 . S
C1349 H1324 0.951 . S
C1349 C1347 1.388 . S
C1349 C1350 1.366 . S
C1350 C1349 1.366 . S
C1350 C1351 1.414 . S
C1350 C1353 1.499 . S
C1351 H1325 0.950 . S
C1351 C1350 1.414 . S
C1351 C1352 1.374 . S
C1352 H1326 0.950 . S
C1352 C1348 1.385 . S
C1352 C1351 1.374 . S
C1353 C1350 1.499 . S
C1353 C1354 1.373 . S
C1353 C1355 1.389 . S
C1354 H1327 0.950 . S
C1354 C1340 1.377 . S
C1354 C1353 1.373 . S
C1355 C1339 1.377 . S
C1355 C1353 1.389 . S
C1355 C1356 1.524 . S
C1356 C1355 1.524 . S
C1356 C1357 1.397 . S
C1356 C1361 1.363 . S
C1357 H1328 0.950 . S
C1357 C1356 1.397 . S
C1357 C1358 1.334 . S
C1358 H1329 0.950 . S
C1358 C1357 1.334 . S
C1358 C1359 1.287 . S
C1359 C1358 1.287 . S
C1359 C1360 1.524 . S
C1359 H1362 0.999 . S
C1360 H1330 0.950 . S
C1360 C1359 1.524 . S
C1360 C1361 1.415 . S
C1361 H1331 0.950 . S
C1361 C1356 1.363 . S
C1361 C1360 1.415 . S
H1362 C1359 0.999 . S
H1363 C1344 0.913 . S
H1364 C1382 0.951 . S
H1365 C1384 0.951 . S
H1366 C1386 0.950 . S
H1367 C1387 0.950 . S
H1368 C1389 0.950 . S
H1369 C1392 0.950 . S
H1370 C1393 0.950 . S
H1371 C1395 0.950 . S
H1372 C1396 0.950 . S
H1373 C1397 0.951 . S
H1374 C1399 0.951 . S
H1375 C1401 0.950 . S
H1376 C1402 0.950 . S
H1377 C1404 0.950 . S
H1378 C1407 0.950 . S
H1379 C1408 0.950 . S
H1380 C1410 0.950 . S
H1381 C1411 0.950 . S
C1382 H1364 0.951 . S
C1382 C1383 1.366 . S
C1382 C1384 1.388 . S
C1383 C1382 1.366 . S
C1383 C1387 1.385 . S
C1384 H1365 0.951 . S
C1384 C1382 1.388 . S
C1384 C1385 1.366 . S
C1385 C1384 1.366 . S
C1385 C1386 1.414 . S
C1385 C1388 1.499 . S
C1386 H1366 0.950 . S
C1386 C1385 1.414 . S
C1386 C1387 1.374 . S
C1387 H1367 0.950 . S
C1387 C1383 1.385 . S
C1387 C1386 1.374 . S
C1388 C1385 1.499 . S
C1388 C1389 1.373 . S
C1388 C1390 1.389 . S
C1389 H1368 0.950 . S
C1389 C1388 1.373 . S
C1389 C1405 1.377 . S
C1390 C1388 1.389 . S
C1390 C1391 1.524 . S
C1390 C1404 1.377 . S
C1391 C1390 1.524 . S
C1391 C1392 1.397 . S
C1391 C1396 1.363 . S
C1392 H1369 0.950 . S
C1392 C1391 1.397 . S
C1392 C1393 1.334 . S
C1393 H1370 0.950 . S
C1393 C1392 1.334 . S
C1393 C1394 1.287 . S
C1394 C1393 1.287 . S
C1394 C1395 1.524 . S
C1394 H1413 0.913 . S
C1395 H1371 0.950 . S
C1395 C1394 1.524 . S
C1395 C1396 1.415 . S
C1396 H1372 0.950 . S
C1396 C1391 1.363 . S
C1396 C1395 1.415 . S
C1397 H1373 0.951 . S
C1397 C1398 1.366 . S
C1397 C1399 1.388 . S
C1398 C1397 1.366 . S
C1398 C1402 1.385 . S
C1399 H1374 0.951 . S
C1399 C1397 1.388 . S
C1399 C1400 1.366 . S
C1400 C1399 1.366 . S
C1400 C1401 1.414 . S
C1400 C1403 1.499 . S
C1401 H1375 0.950 . S
C1401 C1400 1.414 . S
C1401 C1402 1.374 . S
C1402 H1376 0.950 . S
C1402 C1398 1.385 . S
C1402 C1401 1.374 . S
C1403 C1400 1.499 . S
C1403 C1404 1.373 . S
C1403 C1405 1.389 . S
C1404 H1377 0.950 . S
C1404 C1390 1.377 . S
C1404 C1403 1.373 . S
C1405 C1389 1.377 . S
C1405 C1403 1.389 . S
C1405 C1406 1.524 . S
C1406 C1405 1.524 . S
C1406 C1407 1.397 . S
C1406 C1411 1.363 . S
C1407 H1378 0.950 . S
C1407 C1406 1.397 . S
C1407 C1408 1.334 . S
C1408 H1379 0.950 . S
C1408 C1407 1.334 . S
C1408 C1409 1.287 . S
C1409 C1408 1.287 . S
C1409 C1410 1.524 . S
C1409 H1412 0.999 . S
C1410 H1380 0.950 . S
C1410 C1409 1.524 . S
C1410 C1411 1.415 . S
C1411 H1381 0.950 . S
C1411 C1406 1.363 . S
C1411 C1410 1.415 . S
H1412 C1409 0.999 . S
H1413 C1394 0.913 . S
H1414 C1432 0.951 . S
H1415 C1434 0.951 . S
H1416 C1436 0.950 . S
H1417 C1437 0.950 . S
H1418 C1439 0.950 . S
H1419 C1442 0.950 . S
H1420 C1443 0.950 . S
H1421 C1445 0.950 . S
H1422 C1446 0.950 . S
H1423 C1447 0.951 . S
H1424 C1449 0.951 . S
H1425 C1451 0.950 . S
H1426 C1452 0.950 . S
H1427 C1454 0.950 . S
H1428 C1457 0.950 . S
H1429 C1458 0.950 . S
H1430 C1460 0.950 . S
H1431 C1461 0.950 . S
C1432 H1414 0.951 . S
C1432 C1433 1.366 . S
C1432 C1434 1.388 . S
C1433 C1432 1.366 . S
C1433 C1437 1.385 . S
C1434 H1415 0.951 . S
C1434 C1432 1.388 . S
C1434 C1435 1.366 . S
C1435 C1434 1.366 . S
C1435 C1436 1.414 . S
C1435 C1438 1.499 . S
C1436 H1416 0.950 . S
C1436 C1435 1.414 . S
C1436 C1437 1.374 . S
C1437 H1417 0.950 . S
C1437 C1433 1.385 . S
C1437 C1436 1.374 . S
C1438 C1435 1.499 . S
C1438 C1439 1.373 . S
C1438 C1440 1.389 . S
C1439 H1418 0.950 . S
C1439 C1438 1.373 . S
C1439 C1455 1.377 . S
C1440 C1438 1.389 . S
C1440 C1441 1.524 . S
C1440 C1454 1.377 . S
C1441 C1440 1.524 . S
C1441 C1442 1.397 . S
C1441 C1446 1.363 . S
C1442 H1419 0.950 . S
C1442 C1441 1.397 . S
C1442 C1443 1.334 . S
C1443 H1420 0.950 . S
C1443 C1442 1.334 . S
C1443 C1444 1.287 . S
C1444 C1443 1.287 . S
C1444 C1445 1.524 . S
C1444 H1463 0.913 . S
C1445 H1421 0.950 . S
C1445 C1444 1.524 . S
C1445 C1446 1.415 . S
C1446 H1422 0.950 . S
C1446 C1441 1.363 . S
C1446 C1445 1.415 . S
C1447 H1423 0.951 . S
C1447 C1448 1.366 . S
C1447 C1449 1.388 . S
C1448 C1447 1.366 . S
C1448 C1452 1.385 . S
C1449 H1424 0.951 . S
C1449 C1447 1.388 . S
C1449 C1450 1.366 . S
C1450 C1449 1.366 . S
C1450 C1451 1.414 . S
C1450 C1453 1.499 . S
C1451 H1425 0.950 . S
C1451 C1450 1.414 . S
C1451 C1452 1.374 . S
C1452 H1426 0.950 . S
C1452 C1448 1.385 . S
C1452 C1451 1.374 . S
C1453 C1450 1.499 . S
C1453 C1454 1.373 . S
C1453 C1455 1.389 . S
C1454 H1427 0.950 . S
C1454 C1440 1.377 . S
C1454 C1453 1.373 . S
C1455 C1439 1.377 . S
C1455 C1453 1.389 . S
C1455 C1456 1.524 . S
C1456 C1455 1.524 . S
C1456 C1457 1.397 . S
C1456 C1461 1.363 . S
C1457 H1428 0.950 . S
C1457 C1456 1.397 . S
C1457 C1458 1.334 . S
C1458 H1429 0.950 . S
C1458 C1457 1.334 . S
C1458 C1459 1.287 . S
C1459 C1458 1.287 . S
C1459 C1460 1.524 . S
C1459 H1462 0.999 . S
C1460 H1430 0.950 . S
C1460 C1459 1.524 . S
C1460 C1461 1.415 . S
C1461 H1431 0.950 . S
C1461 C1456 1.363 . S
C1461 C1460 1.415 . S
H1462 C1459 0.999 . S
H1463 C1444 0.913 . S
H1464 C1482 0.951 . S
H1465 C1484 0.984 . S
H1466 C1486 0.950 . S
H1467 C1487 0.950 . S
H1468 C1489 0.950 . S
H1469 C1492 0.950 . S
H1470 C1493 0.950 . S
H1471 C1495 0.950 . S
H1472 C1496 0.950 . S
H1473 C1497 0.951 1_455 S
H1474 C1499 0.951 . S
H1475 C1501 0.950 . S
H1476 C1502 0.950 . S
H1477 C1504 0.950 . S
H1478 C1507 1.036 . S
H1479 C1508 0.948 . S
H1480 C1510 0.950 . S
H1481 C1511 0.950 . S
C1482 H1464 0.951 . S
C1482 C1483 1.366 . S
C1482 C1484 1.388 . S
C1483 C1482 1.366 . S
C1483 C1487 1.385 . S
C1484 H1465 0.984 . S
C1484 C1482 1.388 . S
C1484 C1485 1.366 . S
C1485 C1484 1.366 . S
C1485 C1486 1.414 . S
C1485 C1488 1.499 . S
C1486 H1466 0.950 . S
C1486 C1485 1.414 . S
C1486 C1487 1.374 . S
C1487 H1467 0.950 . S
C1487 C1483 1.385 . S
C1487 C1486 1.374 . S
C1488 C1485 1.499 . S
C1488 C1489 1.373 . S
C1488 C1490 1.389 . S
C1489 H1468 0.950 . S
C1489 C1488 1.373 . S
C1489 C1505 1.377 . S
C1490 C1488 1.389 . S
C1490 C1491 1.524 . S
C1490 C1504 1.377 1_455 S
C1491 C1490 1.524 . S
C1491 C1492 1.397 . S
C1491 C1496 1.363 1_455 S
C1492 H1469 0.950 . S
C1492 C1491 1.397 . S
C1492 C1493 1.334 . S
C1493 H1470 0.950 . S
C1493 C1492 1.334 . S
C1493 C1494 1.284 1_455 S
C1494 C1493 1.284 1_655 S
C1494 C1495 1.526 . S
C1494 H1513 0.910 . S
C1495 H1471 0.950 . S
C1495 C1494 1.526 . S
C1495 C1496 1.415 . S
C1496 H1472 0.950 . S
C1496 C1491 1.363 1_655 S
C1496 C1495 1.415 . S
C1497 H1473 0.951 1_655 S
C1497 C1498 1.366 . S
C1497 C1499 1.388 1_655 S
C1498 C1497 1.366 . S
C1498 C1502 1.385 . S
C1499 H1474 0.951 . S
C1499 C1497 1.388 1_455 S
C1499 C1500 1.366 1_455 S
C1500 C1499 1.366 1_655 S
C1500 C1501 1.414 . S
C1500 C1503 1.508 . S
C1501 H1475 0.950 . S
C1501 C1500 1.414 . S
C1501 C1502 1.374 . S
C1502 H1476 0.950 . S
C1502 C1498 1.385 . S
C1502 C1501 1.374 . S
C1503 C1500 1.508 . S
C1503 C1504 1.377 . S
C1503 C1505 1.375 1_655 S
C1504 H1477 0.950 . S
C1504 C1490 1.377 1_655 S
C1504 C1503 1.377 . S
C1505 C1489 1.377 . S
C1505 C1503 1.375 1_455 S
C1505 C1506 1.524 . S
C1506 C1505 1.524 . S
C1506 C1507 1.322 1_455 S
C1506 C1511 1.363 . S
C1507 H1478 1.036 . S
C1507 C1506 1.322 1_655 S
C1507 C1508 1.329 . S
C1508 H1479 0.948 . S
C1508 C1507 1.329 . S
C1508 C1509 1.290 1_655 S
C1509 C1508 1.290 1_455 S
C1509 C1510 1.524 . S
C1509 H1512 0.999 . S
C1510 H1480 0.950 . S
C1510 C1509 1.524 . S
C1510 C1511 1.415 . S
C1511 H1481 0.950 . S
C1511 C1506 1.363 . S
C1511 C1510 1.415 . S
H1512 C1509 0.999 . S
H1513 C1494 0.910 . S
H1514 C1532 0.951 . S
H1515 C1534 0.951 . S
H1516 C1536 0.950 . S
H1517 C1537 0.950 . S
H1518 C1539 0.950 . S
H1519 C1542 0.950 . S
H1520 C1543 0.950 . S
H1521 C1545 0.950 . S
H1522 C1546 0.950 . S
H1523 C1547 0.951 1_655 S
H1524 C1549 0.951 . S
H1525 C1551 0.950 . S
H1526 C1552 0.950 . S
H1527 C1554 0.950 . S
H1528 C1557 0.950 . S
H1529 C1558 0.950 . S
H1530 C1560 0.950 . S
H1531 C1561 0.950 . S
C1532 H1514 0.951 . S
C1532 C1533 1.366 . S
C1532 C1534 1.388 . S
C1533 C1532 1.366 . S
C1533 C1537 1.385 . S
C1534 H1515 0.951 . S
C1534 C1532 1.388 . S
C1534 C1535 1.366 . S
C1535 C1534 1.366 . S
C1535 C1536 1.414 . S
C1535 C1538 1.499 . S
C1536 H1516 0.950 . S
C1536 C1535 1.414 . S
C1536 C1537 1.374 . S
C1537 H1517 0.950 . S
C1537 C1533 1.385 . S
C1537 C1536 1.374 . S
C1538 C1535 1.499 . S
C1538 C1539 1.373 . S
C1538 C1540 1.389 . S
C1539 H1518 0.950 . S
C1539 C1538 1.373 . S
C1539 C1555 1.377 . S
C1540 C1538 1.389 . S
C1540 C1541 1.524 . S
C1540 C1554 1.377 . S
C1541 C1540 1.524 . S
C1541 C1542 1.397 . S
C1541 C1546 1.363 . S
C1542 H1519 0.950 . S
C1542 C1541 1.397 . S
C1542 C1543 1.334 . S
C1543 H1520 0.950 . S
C1543 C1542 1.334 . S
C1543 C1544 1.287 . S
C1544 C1543 1.287 . S
C1544 C1545 1.524 . S
C1544 H1563 0.913 . S
C1545 H1521 0.950 . S
C1545 C1544 1.524 . S
C1545 C1546 1.415 . S
C1546 H1522 0.950 . S
C1546 C1541 1.363 . S
C1546 C1545 1.415 . S
C1547 H1523 0.951 1_455 S
C1547 C1548 1.366 . S
C1547 C1549 1.388 . S
C1548 C1547 1.366 . S
C1548 C1552 1.385 . S
C1549 H1524 0.951 . S
C1549 C1547 1.388 . S
C1549 C1550 1.366 . S
C1550 C1549 1.366 . S
C1550 C1551 1.414 . S
C1550 C1553 1.499 . S
C1551 H1525 0.950 . S
C1551 C1550 1.414 . S
C1551 C1552 1.374 . S
C1552 H1526 0.950 . S
C1552 C1548 1.385 . S
C1552 C1551 1.374 . S
C1553 C1550 1.499 . S
C1553 C1554 1.373 . S
C1553 C1555 1.389 . S
C1554 H1527 0.950 . S
C1554 C1540 1.377 . S
C1554 C1553 1.373 . S
C1555 C1539 1.377 . S
C1555 C1553 1.389 . S
C1555 C1556 1.524 . S
C1556 C1555 1.524 . S
C1556 C1557 1.397 . S
C1556 C1561 1.363 . S
C1557 H1528 0.950 . S
C1557 C1556 1.397 . S
C1557 C1558 1.334 1_455 S
C1558 H1529 0.950 . S
C1558 C1557 1.334 1_655 S
C1558 C1559 1.287 . S
C1559 C1558 1.287 . S
C1559 C1560 1.524 . S
C1559 H1562 0.999 . S
C1560 H1530 0.950 . S
C1560 C1559 1.524 . S
C1560 C1561 1.415 1_655 S
C1561 H1531 0.950 . S
C1561 C1556 1.363 . S
C1561 C1560 1.415 1_455 S
H1562 C1559 0.999 . S
H1563 C1544 0.913 . S
H1564 C1582 0.951 . S
H1565 C1584 0.951 . S
H1566 C1586 0.950 . S
H1567 C1587 0.950 . S
H1568 C1589 0.950 . S
H1569 C1592 0.950 . S
H1570 C1593 0.950 . S
H1571 C1595 0.950 . S
H1572 C1596 0.950 . S
H1573 C1597 0.951 . S
H1574 C1599 0.951 . S
H1575 C1601 0.950 . S
H1576 C1602 0.950 . S
H1577 C1604 0.950 . S
H1578 C1607 0.950 . S
H1579 C1608 0.950 . S
H1580 C1610 0.950 . S
H1581 C1611 0.950 . S
C1582 H1564 0.951 . S
C1582 C1583 1.366 . S
C1582 C1584 1.388 . S
C1583 C1582 1.366 . S
C1583 C1587 1.385 . S
C1584 H1565 0.951 . S
C1584 C1582 1.388 . S
C1584 C1585 1.366 . S
C1585 C1584 1.366 . S
C1585 C1586 1.414 . S
C1585 C1588 1.499 . S
C1586 H1566 0.950 . S
C1586 C1585 1.414 . S
C1586 C1587 1.374 . S
C1587 H1567 0.950 . S
C1587 C1583 1.385 . S
C1587 C1586 1.374 . S
C1588 C1585 1.499 . S
C1588 C1589 1.373 . S
C1588 C1590 1.389 . S
C1589 H1568 0.950 . S
C1589 C1588 1.373 . S
C1589 C1605 1.377 . S
C1590 C1588 1.389 . S
C1590 C1591 1.524 . S
C1590 C1604 1.377 . S
C1591 C1590 1.524 . S
C1591 C1592 1.397 . S
C1591 C1596 1.363 . S
C1592 H1569 0.950 . S
C1592 C1591 1.397 . S
C1592 C1593 1.334 . S
C1593 H1570 0.950 . S
C1593 C1592 1.334 . S
C1593 C1594 1.287 . S
C1594 C1593 1.287 . S
C1594 C1595 1.524 . S
C1594 H1613 0.913 . S
C1595 H1571 0.950 . S
C1595 C1594 1.524 . S
C1595 C1596 1.415 . S
C1596 H1572 0.950 . S
C1596 C1591 1.363 . S
C1596 C1595 1.415 . S
C1597 H1573 0.951 . S
C1597 C1598 1.366 . S
C1597 C1599 1.388 . S
C1598 C1597 1.366 . S
C1598 C1602 1.385 . S
C1599 H1574 0.951 . S
C1599 C1597 1.388 . S
C1599 C1600 1.366 . S
C1600 C1599 1.366 . S
C1600 C1601 1.414 . S
C1600 C1603 1.499 . S
C1601 H1575 0.950 . S
C1601 C1600 1.414 . S
C1601 C1602 1.374 . S
C1602 H1576 0.950 . S
C1602 C1598 1.385 . S
C1602 C1601 1.374 . S
C1603 C1600 1.499 . S
C1603 C1604 1.373 . S
C1603 C1605 1.389 . S
C1604 H1577 0.950 . S
C1604 C1590 1.377 . S
C1604 C1603 1.373 . S
C1605 C1589 1.377 . S
C1605 C1603 1.389 . S
C1605 C1606 1.524 . S
C1606 C1605 1.524 . S
C1606 C1607 1.397 . S
C1606 C1611 1.363 . S
C1607 H1578 0.950 . S
C1607 C1606 1.397 . S
C1607 C1608 1.334 . S
C1608 H1579 0.950 . S
C1608 C1607 1.334 . S
C1608 C1609 1.287 . S
C1609 C1608 1.287 . S
C1609 C1610 1.524 . S
C1609 H1612 0.999 . S
C1610 H1580 0.950 . S
C1610 C1609 1.524 . S
C1610 C1611 1.415 . S
C1611 H1581 0.950 . S
C1611 C1606 1.363 . S
C1611 C1610 1.415 . S
H1612 C1609 0.999 . S
H1613 C1594 0.913 . S
H1614 C1632 0.951 . S
H1615 C1634 0.951 . S
H1616 C1636 0.950 . S
H1617 C1637 0.950 . S
H1618 C1639 0.950 . S
H1619 C1642 0.950 . S
H1620 C1643 0.950 . S
H1621 C1645 0.950 . S
H1622 C1646 0.950 . S
H1623 C1647 0.951 . S
H1624 C1649 0.951 . S
H1625 C1651 0.950 . S
H1626 C1652 0.950 . S
H1627 C1654 0.950 . S
H1628 C1657 0.950 . S
H1629 C1658 0.950 . S
H1630 C1660 0.950 . S
H1631 C1661 0.950 . S
C1632 H1614 0.951 . S
C1632 C1633 1.366 . S
C1632 C1634 1.388 . S
C1633 C1632 1.366 . S
C1633 C1637 1.385 . S
C1634 H1615 0.951 . S
C1634 C1632 1.388 . S
C1634 C1635 1.366 . S
C1635 C1634 1.366 . S
C1635 C1636 1.414 . S
C1635 C1638 1.499 . S
C1636 H1616 0.950 . S
C1636 C1635 1.414 . S
C1636 C1637 1.374 . S
C1637 H1617 0.950 . S
C1637 C1633 1.385 . S
C1637 C1636 1.374 . S
C1638 C1635 1.499 . S
C1638 C1639 1.373 . S
C1638 C1640 1.389 . S
C1639 H1618 0.950 . S
C1639 C1638 1.373 . S
C1639 C1655 1.377 . S
C1640 C1638 1.389 . S
C1640 C1641 1.524 . S
C1640 C1654 1.377 . S
C1641 C1640 1.524 . S
C1641 C1642 1.397 . S
C1641 C1646 1.363 . S
C1642 H1619 0.950 . S
C1642 C1641 1.397 . S
C1642 C1643 1.334 . S
C1643 H1620 0.950 . S
C1643 C1642 1.334 . S
C1643 C1644 1.287 . S
C1644 C1643 1.287 . S
C1644 C1645 1.524 . S
C1644 H1663 0.913 . S
C1645 H1621 0.950 . S
C1645 C1644 1.524 . S
C1645 C1646 1.415 . S
C1646 H1622 0.950 . S
C1646 C1641 1.363 . S
C1646 C1645 1.415 . S
C1647 H1623 0.951 . S
C1647 C1648 1.366 . S
C1647 C1649 1.388 . S
C1648 C1647 1.366 . S
C1648 C1652 1.385 . S
C1649 H1624 0.951 . S
C1649 C1647 1.388 . S
C1649 C1650 1.366 . S
C1650 C1649 1.366 . S
C1650 C1651 1.414 . S
C1650 C1653 1.499 . S
C1651 H1625 0.950 . S
C1651 C1650 1.414 . S
C1651 C1652 1.374 . S
C1652 H1626 0.950 . S
C1652 C1648 1.385 . S
C1652 C1651 1.374 . S
C1653 C1650 1.499 . S
C1653 C1654 1.373 . S
C1653 C1655 1.389 . S
C1654 H1627 0.950 . S
C1654 C1640 1.377 . S
C1654 C1653 1.373 . S
C1655 C1639 1.377 . S
C1655 C1653 1.389 . S
C1655 C1656 1.524 . S
C1656 C1655 1.524 . S
C1656 C1657 1.397 . S
C1656 C1661 1.363 . S
C1657 H1628 0.950 . S
C1657 C1656 1.397 . S
C1657 C1658 1.334 . S
C1658 H1629 0.950 . S
C1658 C1657 1.334 . S
C1658 C1659 1.287 . S
C1659 C1658 1.287 . S
C1659 C1660 1.524 . S
C1659 H1662 0.999 . S
C1660 H1630 0.950 . S
C1660 C1659 1.524 . S
C1660 C1661 1.415 . S
C1661 H1631 0.950 . S
C1661 C1656 1.363 . S
C1661 C1660 1.415 . S
H1662 C1659 0.999 . S
H1663 C1644 0.913 . S
H1664 C1682 0.951 . S
H1665 C1684 0.951 . S
H1666 C1686 0.950 . S
H1667 C1687 0.950 . S
H1668 C1689 0.950 . S
H1669 C1692 0.950 . S
H1670 C1693 0.950 . S
H1671 C1695 0.950 . S
H1672 C1696 0.950 . S
H1673 C1697 0.951 . S
H1674 C1699 0.951 . S
H1675 C1701 0.950 . S
H1676 C1702 0.950 . S
H1677 C1704 0.950 . S
H1678 C1707 0.950 . S
H1679 C1708 0.950 . S
H1680 C1710 0.950 . S
H1681 C1711 0.950 . S
C1682 H1664 0.951 . S
C1682 C1683 1.366 . S
C1682 C1684 1.388 . S
C1683 C1682 1.366 . S
C1683 C1687 1.385 . S
C1684 H1665 0.951 . S
C1684 C1682 1.388 . S
C1684 C1685 1.366 . S
C1685 C1684 1.366 . S
C1685 C1686 1.414 . S
C1685 C1688 1.499 . S
C1686 H1666 0.950 . S
C1686 C1685 1.414 . S
C1686 C1687 1.374 . S
C1687 H1667 0.950 . S
C1687 C1683 1.385 . S
C1687 C1686 1.374 . S
C1688 C1685 1.499 . S
C1688 C1689 1.373 . S
C1688 C1690 1.389 . S
C1689 H1668 0.950 . S
C1689 C1688 1.373 . S
C1689 C1705 1.377 . S
C1690 C1688 1.389 . S
C1690 C1691 1.524 . S
C1690 C1704 1.377 . S
C1691 C1690 1.524 . S
C1691 C1692 1.397 . S
C1691 C1696 1.363 . S
C1692 H1669 0.950 . S
C1692 C1691 1.397 . S
C1692 C1693 1.334 . S
C1693 H1670 0.950 . S
C1693 C1692 1.334 . S
C1693 C1694 1.287 . S
C1694 C1693 1.287 . S
C1694 C1695 1.524 . S
C1694 H1713 0.913 . S
C1695 H1671 0.950 . S
C1695 C1694 1.524 . S
C1695 C1696 1.415 . S
C1696 H1672 0.950 . S
C1696 C1691 1.363 . S
C1696 C1695 1.415 . S
C1697 H1673 0.951 . S
C1697 C1698 1.366 . S
C1697 C1699 1.388 . S
C1698 C1697 1.366 . S
C1698 C1702 1.385 . S
C1699 H1674 0.951 . S
C1699 C1697 1.388 . S
C1699 C1700 1.366 . S
C1700 C1699 1.366 . S
C1700 C1701 1.414 . S
C1700 C1703 1.499 . S
C1701 H1675 0.950 . S
C1701 C1700 1.414 . S
C1701 C1702 1.374 . S
C1702 H1676 0.950 . S
C1702 C1698 1.385 . S
C1702 C1701 1.374 . S
C1703 C1700 1.499 . S
C1703 C1704 1.373 . S
C1703 C1705 1.389 . S
C1704 H1677 0.950 . S
C1704 C1690 1.377 . S
C1704 C1703 1.373 . S
C1705 C1689 1.377 . S
C1705 C1703 1.389 . S
C1705 C1706 1.524 . S
C1706 C1705 1.524 . S
C1706 C1707 1.397 . S
C1706 C1711 1.363 . S
C1707 H1678 0.950 . S
C1707 C1706 1.397 . S
C1707 C1708 1.334 . S
C1708 H1679 0.950 . S
C1708 C1707 1.334 . S
C1708 C1709 1.287 . S
C1709 C1708 1.287 . S
C1709 C1710 1.524 . S
C1709 H1712 0.999 . S
C1710 H1680 0.950 . S
C1710 C1709 1.524 . S
C1710 C1711 1.415 . S
C1711 H1681 0.950 . S
C1711 C1706 1.363 . S
C1711 C1710 1.415 . S
H1712 C1709 0.999 . S
H1713 C1694 0.913 . S
H1714 C1732 0.951 . S
H1715 C1734 0.951 . S
H1716 C1736 0.950 . S
H1717 C1737 0.950 . S
H1718 C1739 0.950 . S
H1719 C1742 0.950 . S
H1720 C1743 0.950 . S
H1721 C1745 0.950 . S
H1722 C1746 0.950 . S
H1723 C1747 0.951 . S
H1724 C1749 0.951 . S
H1725 C1751 0.950 . S
H1726 C1752 0.950 . S
H1727 C1754 0.950 . S
H1728 C1757 0.950 . S
H1729 C1758 0.950 . S
H1730 C1760 0.950 . S
H1731 C1761 0.950 . S
C1732 H1714 0.951 . S
C1732 C1733 1.366 . S
C1732 C1734 1.388 . S
C1733 C1732 1.366 . S
C1733 C1737 1.385 . S
C1734 H1715 0.951 . S
C1734 C1732 1.388 . S
C1734 C1735 1.366 . S
C1735 C1734 1.366 . S
C1735 C1736 1.414 . S
C1735 C1738 1.499 . S
C1736 H1716 0.950 . S
C1736 C1735 1.414 . S
C1736 C1737 1.374 . S
C1737 H1717 0.950 . S
C1737 C1733 1.385 . S
C1737 C1736 1.374 . S
C1738 C1735 1.499 . S
C1738 C1739 1.373 . S
C1738 C1740 1.389 . S
C1739 H1718 0.950 . S
C1739 C1738 1.373 . S
C1739 C1755 1.377 . S
C1740 C1738 1.389 . S
C1740 C1741 1.524 . S
C1740 C1754 1.377 . S
C1741 C1740 1.524 . S
C1741 C1742 1.397 . S
C1741 C1746 1.363 . S
C1742 H1719 0.950 . S
C1742 C1741 1.397 . S
C1742 C1743 1.334 . S
C1743 H1720 0.950 . S
C1743 C1742 1.334 . S
C1743 C1744 1.287 . S
C1744 C1743 1.287 . S
C1744 C1745 1.524 . S
C1744 H1763 0.913 . S
C1745 H1721 0.950 . S
C1745 C1744 1.524 . S
C1745 C1746 1.415 . S
C1746 H1722 0.950 . S
C1746 C1741 1.363 . S
C1746 C1745 1.415 . S
C1747 H1723 0.951 . S
C1747 C1748 1.366 . S
C1747 C1749 1.388 . S
C1748 C1747 1.366 . S
C1748 C1752 1.385 . S
C1749 H1724 0.951 . S
C1749 C1747 1.388 . S
C1749 C1750 1.366 . S
C1750 C1749 1.366 . S
C1750 C1751 1.414 . S
C1750 C1753 1.499 . S
C1751 H1725 0.950 . S
C1751 C1750 1.414 . S
C1751 C1752 1.374 . S
C1752 H1726 0.950 . S
C1752 C1748 1.385 . S
C1752 C1751 1.374 . S
C1753 C1750 1.499 . S
C1753 C1754 1.373 . S
C1753 C1755 1.389 . S
C1754 H1727 0.950 . S
C1754 C1740 1.377 . S
C1754 C1753 1.373 . S
C1755 C1739 1.377 . S
C1755 C1753 1.389 . S
C1755 C1756 1.524 . S
C1756 C1755 1.524 . S
C1756 C1757 1.397 . S
C1756 C1761 1.363 . S
C1757 H1728 0.950 . S
C1757 C1756 1.397 . S
C1757 C1758 1.334 . S
C1758 H1729 0.950 . S
C1758 C1757 1.334 . S
C1758 C1759 1.287 . S
C1759 C1758 1.287 . S
C1759 C1760 1.524 . S
C1759 H1762 0.999 . S
C1760 H1730 0.950 . S
C1760 C1759 1.524 . S
C1760 C1761 1.415 . S
C1761 H1731 0.950 . S
C1761 C1756 1.363 . S
C1761 C1760 1.415 . S
H1762 C1759 0.999 . S
H1763 C1744 0.913 . S
H1764 C1782 0.951 . S
H1765 C1784 0.951 . S
H1766 C1786 0.950 . S
H1767 C1787 0.950 . S
H1768 C1789 0.950 . S
H1769 C1792 0.950 . S
H1770 C1793 0.950 . S
H1771 C1795 0.950 . S
H1772 C1796 0.950 . S
H1773 C1797 0.951 . S
H1774 C1799 0.951 . S
H1775 C1801 0.950 . S
H1776 C1802 0.950 . S
H1777 C1804 0.950 . S
H1778 C1807 0.950 . S
H1779 C1808 0.950 1_565 S
H1780 C1810 0.908 1_565 S
H1781 C1811 0.950 . S
C1782 H1764 0.951 . S
C1782 C1783 1.366 . S
C1782 C1784 1.388 . S
C1783 C1782 1.366 . S
C1783 C1787 1.385 . S
C1784 H1765 0.951 . S
C1784 C1782 1.388 . S
C1784 C1785 1.366 . S
C1785 C1784 1.366 . S
C1785 C1786 1.414 . S
C1785 C1788 1.499 . S
C1786 H1766 0.950 . S
C1786 C1785 1.414 . S
C1786 C1787 1.374 . S
C1787 H1767 0.950 . S
C1787 C1783 1.385 . S
C1787 C1786 1.374 . S
C1788 C1785 1.499 . S
C1788 C1789 1.373 . S
C1788 C1790 1.389 . S
C1789 H1768 0.950 . S
C1789 C1788 1.373 . S
C1789 C1805 1.377 . S
C1790 C1788 1.389 . S
C1790 C1791 1.524 . S
C1790 C1804 1.377 . S
C1791 C1790 1.524 . S
C1791 C1792 1.397 . S
C1791 C1796 1.363 . S
C1792 H1769 0.950 . S
C1792 C1791 1.397 . S
C1792 C1793 1.334 . S
C1793 H1770 0.950 . S
C1793 C1792 1.334 . S
C1793 C1794 1.287 . S
C1794 C1793 1.287 . S
C1794 C1795 1.524 . S
C1794 H1813 0.913 . S
C1795 H1771 0.950 . S
C1795 C1794 1.524 . S
C1795 C1796 1.415 . S
C1796 H1772 0.950 . S
C1796 C1791 1.363 . S
C1796 C1795 1.415 . S
C1797 H1773 0.951 . S
C1797 C1798 1.366 . S
C1797 C1799 1.388 . S
C1798 C1797 1.366 . S
C1798 C1802 1.385 . S
C1799 H1774 0.951 . S
C1799 C1797 1.388 . S
C1799 C1800 1.366 . S
C1800 C1799 1.366 . S
C1800 C1801 1.414 . S
C1800 C1803 1.499 . S
C1801 H1775 0.950 . S
C1801 C1800 1.414 . S
C1801 C1802 1.374 . S
C1802 H1776 0.950 . S
C1802 C1798 1.385 . S
C1802 C1801 1.374 . S
C1803 C1800 1.499 . S
C1803 C1804 1.373 . S
C1803 C1805 1.389 . S
C1804 H1777 0.950 . S
C1804 C1790 1.377 . S
C1804 C1803 1.373 . S
C1805 C1789 1.377 . S
C1805 C1803 1.389 . S
C1805 C1806 1.524 . S
C1806 C1805 1.524 . S
C1806 C1807 1.397 . S
C1806 C1811 1.363 . S
C1807 H1778 0.950 . S
C1807 C1806 1.397 . S
C1807 C1808 1.334 . S
C1808 H1779 0.950 1_545 S
C1808 C1807 1.334 . S
C1808 C1809 1.287 1_545 S
C1809 C1808 1.287 1_565 S
C1809 C1810 1.524 1_565 S
C1809 H1812 0.999 . S
C1810 H1780 0.908 1_545 S
C1810 C1809 1.524 1_545 S
C1810 C1811 1.415 . S
C1811 H1781 0.950 . S
C1811 C1806 1.363 . S
C1811 C1810 1.415 . S
H1812 C1809 0.999 . S
H1813 C1794 0.913 . S
H1814 C1832 0.951 . S
H1815 C1834 0.951 . S
H1816 C1836 0.950 . S
H1817 C1837 0.950 . S
H1818 C1839 0.950 . S
H1819 C1842 0.950 . S
H1820 C1843 0.950 . S
H1821 C1845 0.950 . S
H1822 C1846 0.950 . S
H1823 C1847 0.951 . S
H1824 C1849 0.951 . S
H1825 C1851 0.950 1_554 S
H1826 C1852 0.950 . S
H1827 C1854 0.950 . S
H1828 C1857 0.918 1_554 S
H1829 C1858 0.950 . S
H1830 C1860 0.950 . S
H1831 C1861 0.964 . S
C1832 H1814 0.951 . S
C1832 C1833 1.366 . S
C1832 C1834 1.388 . S
C1833 C1832 1.366 . S
C1833 C1837 1.385 . S
C1834 H1815 0.951 . S
C1834 C1832 1.388 . S
C1834 C1835 1.366 . S
C1835 C1834 1.366 . S
C1835 C1836 1.414 . S
C1835 C1838 1.499 . S
C1836 H1816 0.950 . S
C1836 C1835 1.414 . S
C1836 C1837 1.374 . S
C1837 H1817 0.950 . S
C1837 C1833 1.385 . S
C1837 C1836 1.374 . S
C1838 C1835 1.499 . S
C1838 C1839 1.373 . S
C1838 C1840 1.389 . S
C1839 H1818 0.950 . S
C1839 C1838 1.373 . S
C1839 C1855 1.377 . S
C1840 C1838 1.389 . S
C1840 C1841 1.524 . S
C1840 C1854 1.377 . S
C1841 C1840 1.524 . S
C1841 C1842 1.397 . S
C1841 C1846 1.363 . S
C1842 H1819 0.950 . S
C1842 C1841 1.397 . S
C1842 C1843 1.334 . S
C1843 H1820 0.950 . S
C1843 C1842 1.334 . S
C1843 C1844 1.287 . S
C1844 C1843 1.287 . S
C1844 C1845 1.524 . S
C1844 H1863 0.913 . S
C1845 H1821 0.950 . S
C1845 C1844 1.524 . S
C1845 C1846 1.415 . S
C1846 H1822 0.950 . S
C1846 C1841 1.363 . S
C1846 C1845 1.415 . S
C1847 H1823 0.951 . S
C1847 C1848 1.366 . S
C1847 C1849 1.388 . S
C1848 C1847 1.366 . S
C1848 C1852 1.385 . S
C1849 H1824 0.951 . S
C1849 C1847 1.388 . S
C1849 C1850 1.366 . S
C1850 C1849 1.366 . S
C1850 C1851 1.414 . S
C1850 C1853 1.499 1_556 S
C1851 H1825 0.950 1_556 S
C1851 C1850 1.414 . S
C1851 C1852 1.374 . S
C1852 H1826 0.950 . S
C1852 C1848 1.385 . S
C1852 C1851 1.374 . S
C1853 C1850 1.499 1_554 S
C1853 C1854 1.373 . S
C1853 C1855 1.389 . S
C1854 H1827 0.950 . S
C1854 C1840 1.377 . S
C1854 C1853 1.373 . S
C1855 C1839 1.377 . S
C1855 C1853 1.389 . S
C1855 C1856 1.574 . S
C1856 C1855 1.574 . S
C1856 C1857 1.386 1_554 S
C1856 C1861 1.337 1_554 S
C1857 H1828 0.918 1_556 S
C1857 C1856 1.386 1_556 S
C1857 C1858 1.382 . S
C1858 H1829 0.950 . S
C1858 C1857 1.382 . S
C1858 C1859 1.287 . S
C1859 C1858 1.287 . S
C1859 C1860 1.524 . S
C1859 H1862 0.999 . S
C1860 H1830 0.950 . S
C1860 C1859 1.524 . S
C1860 C1861 1.415 . S
C1861 H1831 0.964 . S
C1861 C1856 1.337 1_556 S
C1861 C1860 1.415 . S
H1862 C1859 0.999 . S
H1863 C1844 0.913 . S
H1864 C1882 0.951 . S
H1865 C1884 0.951 . S
H1866 C1886 0.950 . S
H1867 C1887 0.950 . S
H1868 C1889 0.950 . S
H1869 C1892 0.950 . S
H1870 C1893 0.950 . S
H1871 C1895 0.950 . S
H1872 C1896 0.950 . S
H1873 C1897 0.951 . S
H1874 C1899 0.951 . S
H1875 C1901 0.950 . S
H1876 C1902 0.950 . S
H1877 C1904 0.950 . S
H1878 C1907 0.950 . S
H1879 C1908 0.950 . S
H1880 C1910 0.950 . S
H1881 C1911 0.950 . S
C1882 H1864 0.951 . S
C1882 C1883 1.366 . S
C1882 C1884 1.388 . S
C1883 C1882 1.366 . S
C1883 C1887 1.385 . S
C1884 H1865 0.951 . S
C1884 C1882 1.388 . S
C1884 C1885 1.366 . S
C1885 C1884 1.366 . S
C1885 C1886 1.414 . S
C1885 C1888 1.499 . S
C1886 H1866 0.950 . S
C1886 C1885 1.414 . S
C1886 C1887 1.374 . S
C1887 H1867 0.950 . S
C1887 C1883 1.385 . S
C1887 C1886 1.374 . S
C1888 C1885 1.499 . S
C1888 C1889 1.373 . S
C1888 C1890 1.389 . S
C1889 H1868 0.950 . S
C1889 C1888 1.373 . S
C1889 C1905 1.377 . S
C1890 C1888 1.389 . S
C1890 C1891 1.524 . S
C1890 C1904 1.377 . S
C1891 C1890 1.524 . S
C1891 C1892 1.397 . S
C1891 C1896 1.363 . S
C1892 H1869 0.950 . S
C1892 C1891 1.397 . S
C1892 C1893 1.334 . S
C1893 H1870 0.950 . S
C1893 C1892 1.334 . S
C1893 C1894 1.287 . S
C1894 C1893 1.287 . S
C1894 C1895 1.524 . S
C1894 H1913 0.913 . S
C1895 H1871 0.950 . S
C1895 C1894 1.524 . S
C1895 C1896 1.415 . S
C1896 H1872 0.950 . S
C1896 C1891 1.363 . S
C1896 C1895 1.415 . S
C1897 H1873 0.951 . S
C1897 C1898 1.366 . S
C1897 C1899 1.388 . S
C1898 C1897 1.366 . S
C1898 C1902 1.385 . S
C1899 H1874 0.951 . S
C1899 C1897 1.388 . S
C1899 C1900 1.366 . S
C1900 C1899 1.366 . S
C1900 C1901 1.414 . S
C1900 C1903 1.499 . S
C1901 H1875 0.950 . S
C1901 C1900 1.414 . S
C1901 C1902 1.374 . S
C1902 H1876 0.950 . S
C1902 C1898 1.385 . S
C1902 C1901 1.374 . S
C1903 C1900 1.499 . S
C1903 C1904 1.373 . S
C1903 C1905 1.389 . S
C1904 H1877 0.950 . S
C1904 C1890 1.377 . S
C1904 C1903 1.373 . S
C1905 C1889 1.377 . S
C1905 C1903 1.389 . S
C1905 C1906 1.524 . S
C1906 C1905 1.524 . S
C1906 C1907 1.397 . S
C1906 C1911 1.363 . S
C1907 H1878 0.950 . S
C1907 C1906 1.397 . S
C1907 C1908 1.334 . S
C1908 H1879 0.950 . S
C1908 C1907 1.334 . S
C1908 C1909 1.287 . S
C1909 C1908 1.287 . S
C1909 C1910 1.524 . S
C1909 H1912 0.999 . S
C1910 H1880 0.950 . S
C1910 C1909 1.524 . S
C1910 C1911 1.415 . S
C1911 H1881 0.950 . S
C1911 C1906 1.363 . S
C1911 C1910 1.415 . S
H1912 C1909 0.999 . S
H1913 C1894 0.913 . S
H1914 C1932 0.951 . S
H1915 C1934 0.951 . S
H1916 C1936 0.950 . S
H1917 C1937 0.950 . S
H1918 C1939 0.950 . S
H1919 C1942 0.950 . S
H1920 C1943 0.950 . S
H1921 C1945 0.950 . S
H1922 C1946 0.950 . S
H1923 C1947 0.951 . S
H1924 C1949 0.951 . S
H1925 C1951 0.950 . S
H1926 C1952 0.950 . S
H1927 C1954 0.950 . S
H1928 C1957 0.950 . S
H1929 C1958 0.950 . S
H1930 C1960 0.950 . S
H1931 C1961 0.950 . S
C1932 H1914 0.951 . S
C1932 C1933 1.366 . S
C1932 C1934 1.388 . S
C1933 C1932 1.366 . S
C1933 C1937 1.385 . S
C1934 H1915 0.951 . S
C1934 C1932 1.388 . S
C1934 C1935 1.366 . S
C1935 C1934 1.366 . S
C1935 C1936 1.414 . S
C1935 C1938 1.499 . S
C1936 H1916 0.950 . S
C1936 C1935 1.414 . S
C1936 C1937 1.374 . S
C1937 H1917 0.950 . S
C1937 C1933 1.385 . S
C1937 C1936 1.374 . S
C1938 C1935 1.499 . S
C1938 C1939 1.373 . S
C1938 C1940 1.389 . S
C1939 H1918 0.950 . S
C1939 C1938 1.373 . S
C1939 C1955 1.377 . S
C1940 C1938 1.389 . S
C1940 C1941 1.524 . S
C1940 C1954 1.377 . S
C1941 C1940 1.524 . S
C1941 C1942 1.397 . S
C1941 C1946 1.363 . S
C1942 H1919 0.950 . S
C1942 C1941 1.397 . S
C1942 C1943 1.334 . S
C1943 H1920 0.950 . S
C1943 C1942 1.334 . S
C1943 C1944 1.287 . S
C1944 C1943 1.287 . S
C1944 C1945 1.524 . S
C1944 H1963 0.913 . S
C1945 H1921 0.950 . S
C1945 C1944 1.524 . S
C1945 C1946 1.415 . S
C1946 H1922 0.950 . S
C1946 C1941 1.363 . S
C1946 C1945 1.415 . S
C1947 H1923 0.951 . S
C1947 C1948 1.366 . S
C1947 C1949 1.388 . S
C1948 C1947 1.366 . S
C1948 C1952 1.385 . S
C1949 H1924 0.951 . S
C1949 C1947 1.388 . S
C1949 C1950 1.366 . S
C1950 C1949 1.366 . S
C1950 C1951 1.414 . S
C1950 C1953 1.499 . S
C1951 H1925 0.950 . S
C1951 C1950 1.414 . S
C1951 C1952 1.374 . S
C1952 H1926 0.950 . S
C1952 C1948 1.385 . S
C1952 C1951 1.374 . S
C1953 C1950 1.499 . S
C1953 C1954 1.373 . S
C1953 C1955 1.389 . S
C1954 H1927 0.950 . S
C1954 C1940 1.377 . S
C1954 C1953 1.373 . S
C1955 C1939 1.377 . S
C1955 C1953 1.389 . S
C1955 C1956 1.524 . S
C1956 C1955 1.524 . S
C1956 C1957 1.397 . S
C1956 C1961 1.363 . S
C1957 H1928 0.950 . S
C1957 C1956 1.397 . S
C1957 C1958 1.334 . S
C1958 H1929 0.950 . S
C1958 C1957 1.334 . S
C1958 C1959 1.287 . S
C1959 C1958 1.287 . S
C1959 C1960 1.524 . S
C1959 H1962 0.999 . S
C1960 H1930 0.950 . S
C1960 C1959 1.524 . S
C1960 C1961 1.415 . S
C1961 H1931 0.950 . S
C1961 C1956 1.363 . S
C1961 C1960 1.415 . S
H1962 C1959 0.999 . S
H1963 C1944 0.913 . S
H1964 C1982 0.951 . S
H1965 C1984 0.951 . S
H1966 C1986 0.950 . S
H1967 C1987 0.950 . S
H1968 C1989 0.950 . S
H1969 C1992 0.950 . S
H1970 C1993 0.950 . S
H1971 C1995 0.950 . S
H1972 C1996 0.950 . S
H1973 C1997 0.951 . S
H1974 C1999 0.951 . S
H1975 C2001 0.950 . S
H1976 C2002 0.950 . S
H1977 C2004 0.950 . S
H1978 C2007 0.950 . S
H1979 C2008 0.950 . S
H1980 C2010 0.950 . S
H1981 C2011 0.950 . S
C1982 H1964 0.951 . S
C1982 C1983 1.366 . S
C1982 C1984 1.388 . S
C1983 C1982 1.366 . S
C1983 C1987 1.385 . S
C1984 H1965 0.951 . S
C1984 C1982 1.388 . S
C1984 C1985 1.366 . S
C1985 C1984 1.366 . S
C1985 C1986 1.414 . S
C1985 C1988 1.499 . S
C1986 H1966 0.950 . S
C1986 C1985 1.414 . S
C1986 C1987 1.374 . S
C1987 H1967 0.950 . S
C1987 C1983 1.385 . S
C1987 C1986 1.374 . S
C1988 C1985 1.499 . S
C1988 C1989 1.373 . S
C1988 C1990 1.389 . S
C1989 H1968 0.950 . S
C1989 C1988 1.373 . S
C1989 C2005 1.377 . S
C1990 C1988 1.389 . S
C1990 C1991 1.524 . S
C1990 C2004 1.377 . S
C1991 C1990 1.524 . S
C1991 C1992 1.397 . S
C1991 C1996 1.363 . S
C1992 H1969 0.950 . S
C1992 C1991 1.397 . S
C1992 C1993 1.334 . S
C1993 H1970 0.950 . S
C1993 C1992 1.334 . S
C1993 C1994 1.287 . S
C1994 C1993 1.287 . S
C1994 C1995 1.524 . S
C1994 H2013 0.913 . S
C1995 H1971 0.950 . S
C1995 C1994 1.524 . S
C1995 C1996 1.415 . S
C1996 H1972 0.950 . S
C1996 C1991 1.363 . S
C1996 C1995 1.415 . S
C1997 H1973 0.951 . S
C1997 C1998 1.366 . S
C1997 C1999 1.388 . S
C1998 C1997 1.366 . S
C1998 C2002 1.385 . S
C1999 H1974 0.951 . S
C1999 C1997 1.388 . S
C1999 C2000 1.366 . S
C2000 C1999 1.366 . S
C2000 C2001 1.414 . S
C2000 C2003 1.499 . S
C2001 H1975 0.950 . S
C2001 C2000 1.414 . S
C2001 C2002 1.374 . S
C2002 H1976 0.950 . S
C2002 C1998 1.385 . S
C2002 C2001 1.374 . S
C2003 C2000 1.499 . S
C2003 C2004 1.373 . S
C2003 C2005 1.389 . S
C2004 H1977 0.950 . S
C2004 C1990 1.377 . S
C2004 C2003 1.373 . S
C2005 C1989 1.377 . S
C2005 C2003 1.389 . S
C2005 C2006 1.524 . S
C2006 C2005 1.524 . S
C2006 C2007 1.397 . S
C2006 C2011 1.363 . S
C2007 H1978 0.950 . S
C2007 C2006 1.397 . S
C2007 C2008 1.334 . S
C2008 H1979 0.950 . S
C2008 C2007 1.334 . S
C2008 C2009 1.287 . S
C2009 C2008 1.287 . S
C2009 C2010 1.524 . S
C2009 H2012 0.999 . S
C2010 H1980 0.950 . S
C2010 C2009 1.524 . S
C2010 C2011 1.415 . S
C2011 H1981 0.950 . S
C2011 C2006 1.363 . S
C2011 C2010 1.415 . S
H2012 C2009 0.999 . S
H2013 C1994 0.913 . S
H2014 C2032 0.951 . S
H2015 C2034 0.951 . S
H2016 C2036 0.950 . S
H2017 C2037 0.950 . S
H2018 C2039 0.950 . S
H2019 C2042 0.950 . S
H2020 C2043 0.950 . S
H2021 C2045 0.950 . S
H2022 C2046 0.950 . S
H2023 C2047 0.951 . S
H2024 C2049 0.951 . S
H2025 C2051 0.950 . S
H2026 C2052 0.950 . S
H2027 C2054 0.950 . S
H2028 C2057 0.950 . S
H2029 C2058 0.950 . S
H2030 C2060 0.950 . S
H2031 C2061 0.950 . S
C2032 H2014 0.951 . S
C2032 C2033 1.366 . S
C2032 C2034 1.388 . S
C2033 C2032 1.366 . S
C2033 C2037 1.385 . S
C2034 H2015 0.951 . S
C2034 C2032 1.388 . S
C2034 C2035 1.366 . S
C2035 C2034 1.366 . S
C2035 C2036 1.414 . S
C2035 C2038 1.499 . S
C2036 H2016 0.950 . S
C2036 C2035 1.414 . S
C2036 C2037 1.374 . S
C2037 H2017 0.950 . S
C2037 C2033 1.385 . S
C2037 C2036 1.374 . S
C2038 C2035 1.499 . S
C2038 C2039 1.373 . S
C2038 C2040 1.389 . S
C2039 H2018 0.950 . S
C2039 C2038 1.373 . S
C2039 C2055 1.377 . S
C2040 C2038 1.389 . S
C2040 C2041 1.524 . S
C2040 C2054 1.377 . S
C2041 C2040 1.524 . S
C2041 C2042 1.397 . S
C2041 C2046 1.363 . S
C2042 H2019 0.950 . S
C2042 C2041 1.397 . S
C2042 C2043 1.334 . S
C2043 H2020 0.950 . S
C2043 C2042 1.334 . S
C2043 C2044 1.287 . S
C2044 C2043 1.287 . S
C2044 C2045 1.524 . S
C2044 H2063 0.913 . S
C2045 H2021 0.950 . S
C2045 C2044 1.524 . S
C2045 C2046 1.415 . S
C2046 H2022 0.950 . S
C2046 C2041 1.363 . S
C2046 C2045 1.415 . S
C2047 H2023 0.951 . S
C2047 C2048 1.366 . S
C2047 C2049 1.388 . S
C2048 C2047 1.366 . S
C2048 C2052 1.385 . S
C2049 H2024 0.951 . S
C2049 C2047 1.388 . S
C2049 C2050 1.366 . S
C2050 C2049 1.366 . S
C2050 C2051 1.414 . S
C2050 C2053 1.499 . S
C2051 H2025 0.950 . S
C2051 C2050 1.414 . S
C2051 C2052 1.374 . S
C2052 H2026 0.950 . S
C2052 C2048 1.385 . S
C2052 C2051 1.374 . S
C2053 C2050 1.499 . S
C2053 C2054 1.373 . S
C2053 C2055 1.389 . S
C2054 H2027 0.950 . S
C2054 C2040 1.377 . S
C2054 C2053 1.373 . S
C2055 C2039 1.377 . S
C2055 C2053 1.389 . S
C2055 C2056 1.524 . S
C2056 C2055 1.524 . S
C2056 C2057 1.397 . S
C2056 C2061 1.363 . S
C2057 H2028 0.950 . S
C2057 C2056 1.397 . S
C2057 C2058 1.334 . S
C2058 H2029 0.950 . S
C2058 C2057 1.334 . S
C2058 C2059 1.287 . S
C2059 C2058 1.287 . S
C2059 C2060 1.524 . S
C2059 H2062 0.999 . S
C2060 H2030 0.950 . S
C2060 C2059 1.524 . S
C2060 C2061 1.415 . S
C2061 H2031 0.950 . S
C2061 C2056 1.363 . S
C2061 C2060 1.415 . S
H2062 C2059 0.999 . S
H2063 C2044 0.913 . S
C283 C49 0.823 . S
C298 C5 0.813 . S
C333 C60 0.985 . S
C348 C18 1.017 . S
C383 C29 1.078 . S
C398 C73 1.117 . S
C433 C38 0.837 . S
C448 C84 1.018 . S
C483 C16 0.828 . S
C498 C93 0.930 . S
C533 C104 0.962 . S
C548 C27 0.857 . S
C583 C40 1.108 . S
C598 C117 1.105 . S
C633 C126 0.828 . S
C648 C7 0.972 . S
C683 C51 1.081 . S
C698 C128 1.084 . S
C733 C95 1.125 . S
C748 C62 1.124 . S
C783 C71 0.971 . S
C798 C106 1.062 . S
C833 C82 0.825 . S
C848 C115 0.837 . S
C883 C137 1.009 . S
C898 C205 1.034 . S
C933 C216 1.070 . S
C948 C150 1.085 . S
C983 C225 0.831 . S
C998 C161 0.993 . S
C1033 C172 1.068 . S
C1048 C227 1.031 . S
C1083 C181 0.847 . S
C1098 C203 0.827 . S
C1133 C236 0.995 . S
C1148 C192 0.855 . S
C1183 C214 0.877 . S
C1198 C247 1.012 . S
C1233 C194 1.030 . S
C1248 C258 0.852 . S
C1283 C238 1.150 . S
C1298 C260 1.102 . S
C1333 C139 1.104 . S
C1348 C183 1.059 . S
C1383 C249 1.051 . S
C1398 C148 0.831 . S
C1433 C170 0.884 . S
C1448 C159 0.806 . S
C1483 C8 1.605 . S
C1498 C217 1.599 . S
C1533 C19 1.553 . S
C1548 C228 1.560 1_455 S
C1583 C195 1.623 . S
C1598 C30 1.629 . S
C1633 C41 1.609 . S
C1648 C206 1.602 . S
C1683 C96 1.623 . S
C1698 C52 1.580 . S
C1733 C63 1.679 . S
C1748 C107 1.675 . S
C1783 C118 1.601 . S
C1798 C74 1.660 . S
C1833 C129 1.536 . S
C1848 C85 1.527 . S
C1883 C140 1.715 . S
C1898 C250 1.710 . S
C1933 C151 1.458 . S
C1948 C173 1.489 . S
C1983 C261 1.565 . S
C1998 C162 1.566 . S
C2033 C239 1.669 . S
C2048 C184 1.615 . S
