# Generated by pormake.
# Topology bcu-g, (3)-cn, num edge types: 1
# Building blocks:
#     Node 0, Type 0, BuildingBlock: WUSLED_clean_sbu_0, # of connection points: 3
#     Node 1, Type 0, BuildingBlock: WUSLED_clean_sbu_0, # of connection points: 3
#     Node 2, Type 0, BuildingBlock: WUSLED_clean_sbu_0, # of connection points: 3
#     Node 3, Type 0, BuildingBlock: WUSLED_clean_sbu_0, # of connection points: 3
#     Node 4, Type 0, BuildingBlock: WUSLED_clean_sbu_0, # of connection points: 3
#     Node 5, Type 0, BuildingBlock: WUSLED_clean_sbu_0, # of connection points: 3
#     Node 6, Type 0, BuildingBlock: WUSLED_clean_sbu_0, # of connection points: 3
#     Node 7, Type 0, BuildingBlock: WUSLED_clean_sbu_0, # of connection points: 3
#     Node 8, Type 0, BuildingBlock: WUSLED_clean_sbu_0, # of connection points: 3
#     Node 9, Type 0, BuildingBlock: WUSLED_clean_sbu_0, # of connection points: 3
#     Node 10, Type 0, BuildingBlock: WUSLED_clean_sbu_0, # of connection points: 3
#     Node 11, Type 0, BuildingBlock: WUSLED_clean_sbu_0, # of connection points: 3
#     Node 12, Type 0, BuildingBlock: WUSLED_clean_sbu_0, # of connection points: 3
#     Node 13, Type 0, BuildingBlock: WUSLED_clean_sbu_0, # of connection points: 3
#     Node 14, Type 0, BuildingBlock: WUSLED_clean_sbu_0, # of connection points: 3
#     Node 15, Type 0, BuildingBlock: WUSLED_clean_sbu_0, # of connection points: 3
#     Edge 16, Type (0, 0), BuildingBlock: TEMPAE_clean_linker_10, # of connection points: 2
#     Edge 17, Type (0, 0), BuildingBlock: TEMPAE_clean_linker_10, # of connection points: 2
#     Edge 18, Type (0, 0), BuildingBlock: TEMPAE_clean_linker_10, # of connection points: 2
#     Edge 19, Type (0, 0), BuildingBlock: TEMPAE_clean_linker_10, # of connection points: 2
#     Edge 20, Type (0, 0), BuildingBlock: TEMPAE_clean_linker_10, # of connection points: 2
#     Edge 21, Type (0, 0), BuildingBlock: TEMPAE_clean_linker_10, # of connection points: 2
#     Edge 22, Type (0, 0), BuildingBlock: TEMPAE_clean_linker_10, # of connection points: 2
#     Edge 23, Type (0, 0), BuildingBlock: TEMPAE_clean_linker_10, # of connection points: 2
#     Edge 24, Type (0, 0), BuildingBlock: TEMPAE_clean_linker_10, # of connection points: 2
#     Edge 25, Type (0, 0), BuildingBlock: TEMPAE_clean_linker_10, # of connection points: 2
#     Edge 26, Type (0, 0), BuildingBlock: TEMPAE_clean_linker_10, # of connection points: 2
#     Edge 27, Type (0, 0), BuildingBlock: TEMPAE_clean_linker_10, # of connection points: 2
#     Edge 28, Type (0, 0), BuildingBlock: TEMPAE_clean_linker_10, # of connection points: 2
#     Edge 29, Type (0, 0), BuildingBlock: TEMPAE_clean_linker_10, # of connection points: 2
#     Edge 30, Type (0, 0), BuildingBlock: TEMPAE_clean_linker_10, # of connection points: 2
#     Edge 31, Type (0, 0), BuildingBlock: TEMPAE_clean_linker_10, # of connection points: 2
#     Edge 32, Type (0, 0), BuildingBlock: TEMPAE_clean_linker_10, # of connection points: 2
#     Edge 33, Type (0, 0), BuildingBlock: TEMPAE_clean_linker_10, # of connection points: 2
#     Edge 34, Type (0, 0), BuildingBlock: TEMPAE_clean_linker_10, # of connection points: 2
#     Edge 35, Type (0, 0), BuildingBlock: TEMPAE_clean_linker_10, # of connection points: 2
#     Edge 36, Type (0, 0), BuildingBlock: TEMPAE_clean_linker_10, # of connection points: 2
#     Edge 37, Type (0, 0), BuildingBlock: TEMPAE_clean_linker_10, # of connection points: 2
#     Edge 38, Type (0, 0), BuildingBlock: TEMPAE_clean_linker_10, # of connection points: 2
#     Edge 39, Type (0, 0), BuildingBlock: TEMPAE_clean_linker_10, # of connection points: 2
# Relax obj value: 0.203
# Max RMSD: 0.161
# Mean RMSD: 0.115
data_MOF--net-bcu-g--node1-WUSLED_clean_sbu_0--edge1-TEMPAE_clean_linker_10
_symmetry_space_group_name_H-M    P1
_symmetry_Int_Tables_number       1
_symmetry_cell_setting            triclinic
loop_
_symmetry_equiv_pos_as_xyz
'x, y, z'
_cell_length_a     54.674734
_cell_length_b     54.662236
_cell_length_c     64.076455
_cell_angle_alpha  89.795281
_cell_angle_beta   90.324461
_cell_angle_gamma 90.219656
loop_
_atom_site_label
_atom_site_type_symbol
_atom_site_fract_x
_atom_site_fract_y
_atom_site_fract_z
_atom_type_partial_charge
C0 C 0.58511 0.19526 0.12589 0.0
C1 C 0.57037 0.17512 0.13123 0.0
C2 C 0.55667 0.17152 0.09495 0.0
C3 C 0.55616 0.16341 0.11589 0.0
C4 C 0.57101 0.19219 0.09003 0.0
C5 C 0.58493 0.20393 0.10534 0.0
U6 U 0.61501 0.20534 0.18028 0.0
O7 O 0.65471 0.20547 0.18594 0.0
O8 O 0.63309 0.23858 0.19267 0.0
C9 C 0.65488 0.22851 0.1917 0.0
C10 C 0.60288 0.20604 0.14056 0.0
C11 C 0.67467 0.23701 0.20553 0.0
C12 C 0.71479 0.256 0.20771 0.0
C13 C 0.69423 0.24927 0.19613 0.0
C14 C 0.69605 0.23936 0.23884 0.0
C15 C 0.71625 0.25111 0.22927 0.0
C16 C 0.6755 0.23216 0.22702 0.0
C17 C 0.58377 0.16884 0.22629 0.0
C18 C 0.59851 0.14453 0.25543 0.0
C19 C 0.55503 0.14672 0.24805 0.0
C20 C 0.55969 0.16274 0.23158 0.0
C21 C 0.57447 0.13652 0.2595 0.0
C22 C 0.60316 0.16057 0.23886 0.0
C23 C 0.58787 0.17916 0.20546 0.0
O24 O 0.59469 0.22211 0.15402 0.0
O25 O 0.6187 0.19069 0.14868 0.0
O26 O 0.60625 0.17019 0.19483 0.0
O27 O 0.58434 0.20272 0.20254 0.0
H28 H 0.57035 0.16808 0.14706 0.0
H29 H 0.54508 0.14782 0.12038 0.0
H30 H 0.57239 0.19879 0.07413 0.0
H31 H 0.59639 0.21929 0.10091 0.0
H32 H 0.72988 0.26425 0.19937 0.0
H33 H 0.69397 0.253 0.1795 0.0
H34 H 0.69604 0.23553 0.25542 0.0
H35 H 0.66053 0.22263 0.23455 0.0
H36 H 0.6139 0.13695 0.26395 0.0
H37 H 0.53632 0.14121 0.25105 0.0
H38 H 0.54452 0.16892 0.22198 0.0
H39 H 0.62191 0.16507 0.23497 0.0
C40 C 0.65805 0.53589 0.08099 0.0
C41 C 0.67255 0.5147 0.08161 0.0
C42 C 0.68014 0.51833 0.04414 0.0
C43 C 0.68349 0.50599 0.06332 0.0
C44 C 0.66468 0.53883 0.0436 0.0
C45 C 0.6539 0.54751 0.06178 0.0
U46 U 0.62694 0.54206 0.13585 0.0
O47 O 0.63912 0.56642 0.16117 0.0
O48 O 0.60344 0.57309 0.14527 0.0
C49 C 0.61974 0.58039 0.1591 0.0
C50 C 0.64926 0.54821 0.09999 0.0
C51 C 0.61485 0.59996 0.17414 0.0
C52 C 0.6128 0.6434 0.18174 0.0
C53 C 0.6161 0.62439 0.16752 0.0
C54 C 0.60631 0.61371 0.20935 0.0
C55 C 0.60808 0.63833 0.20289 0.0
C56 C 0.6098 0.59468 0.19508 0.0
C57 C 0.60312 0.47671 0.15735 0.0
C58 C 0.58093 0.4574 0.18582 0.0
C59 C 0.59855 0.43263 0.15851 0.0
C60 C 0.60731 0.45364 0.14877 0.0
C61 C 0.58516 0.43412 0.1771 0.0
C62 C 0.58986 0.47865 0.17597 0.0
C63 C 0.61328 0.49778 0.14604 0.0
O64 O 0.62547 0.55022 0.10216 0.0
O65 O 0.66087 0.54387 0.11762 0.0
O66 O 0.63464 0.5069 0.15151 0.0
O67 O 0.59869 0.51313 0.13626 0.0
H68 H 0.67607 0.50537 0.09625 0.0
H69 H 0.69532 0.49018 0.06438 0.0
H70 H 0.66113 0.54847 0.02911 0.0
H71 H 0.64283 0.56389 0.06094 0.0
H72 H 0.61395 0.6621 0.17617 0.0
H73 H 0.62001 0.6288 0.15137 0.0
H74 H 0.6029 0.60916 0.22554 0.0
H75 H 0.6088 0.57588 0.20042 0.0
H76 H 0.57065 0.45919 0.20013 0.0
H77 H 0.60279 0.4151 0.1516 0.0
H78 H 0.61763 0.45183 0.13447 0.0
H79 H 0.58649 0.49639 0.18283 0.0
C80 C 0.92567 0.16764 0.19804 0.0
C81 C 0.92325 0.16752 0.21982 0.0
C82 C 0.88136 0.1523 0.21631 0.0
C83 C 0.90121 0.15978 0.22893 0.0
C84 C 0.88443 0.15153 0.19458 0.0
C85 C 0.90634 0.15915 0.18556 0.0
U86 U 0.98679 0.19997 0.17466 0.0
O87 O 0.98211 0.21259 0.14246 0.0
O88 O 0.00682 0.18195 0.14908 0.0
C89 C 0.99833 0.19735 0.13501 0.0
C90 C 0.94711 0.17821 0.18758 0.0
C91 C 0.01596 0.20817 0.12029 0.0
C92 C 0.0344 0.2069 0.0859 0.0
C93 C 0.02132 0.19549 0.10192 0.0
C94 C 0.03791 0.24359 0.10682 0.0
C95 C 0.0422 0.2313 0.08795 0.0
C96 C 0.02497 0.23209 0.12293 0.0
C97 C 0.01724 0.23851 0.21958 0.0
C98 C 0.04545 0.25872 0.24335 0.0
C99 C 1.00176 0.26418 0.24731 0.0
C100 C 0.99748 0.24836 0.23056 0.0
C101 C 0.02585 0.27033 0.25331 0.0
C102 C 0.04115 0.243 0.22661 0.0
C103 C 0.01406 0.22761 0.19881 0.0
O104 O 0.94707 0.20088 0.1807 0.0
O105 O 0.96871 0.16774 0.18876 0.0
O106 O 0.0177 0.20397 0.19682 0.0
O107 O 0.99588 0.23598 0.18737 0.0
H108 H 0.93801 0.17412 0.22967 0.0
H109 H 0.8993 0.1607 0.24573 0.0
H110 H 0.86961 0.14558 0.18448 0.0
H111 H 0.90793 0.15909 0.16871 0.0
H112 H 0.03731 0.19705 0.07149 0.0
H113 H 0.01437 0.17711 0.09956 0.0
H114 H 0.04398 0.26232 0.10888 0.0
H115 H 0.0211 0.24222 0.13702 0.0
H116 H 0.06417 0.26268 0.24785 0.0
H117 H 0.98622 0.27288 0.25455 0.0
H118 H 0.97886 0.24515 0.22538 0.0
H119 H 0.05664 0.23557 0.21829 0.0
C120 C 0.94676 0.88248 0.08607 0.0
C121 C 0.94073 0.90746 0.08568 0.0
C122 C 0.92391 0.90322 0.05027 0.0
C123 C 0.92952 0.91777 0.06788 0.0
C124 C 0.93037 0.8783 0.05093 0.0
C125 C 0.94179 0.86822 0.06846 0.0
U126 U 0.97961 0.87618 0.14051 0.0
O127 O 0.96813 0.8511 0.16586 0.0
O128 O 0.00436 0.84646 0.15072 0.0
C129 C 0.98858 0.83861 0.16463 0.0
C130 C 0.9565 0.86985 0.10478 0.0
C131 C 0.99365 0.8174 0.17826 0.0
C132 C 0.98446 0.7758 0.18937 0.0
C133 C 0.98045 0.79555 0.17581 0.0
C134 C 0.01525 0.79935 0.20784 0.0
C135 C 1.00164 0.77756 0.20577 0.0
C136 C 0.0113 0.81907 0.19417 0.0
C137 C 1.0029 0.94109 0.16254 0.0
C138 C 0.01797 0.96004 0.19442 0.0
C139 C 0.01175 0.98454 0.16328 0.0
C140 C 0.0042 0.96379 0.15252 0.0
C141 C 0.01872 0.98313 0.1844 0.0
C142 C 0.00994 0.93913 0.18357 0.0
C143 C 0.99249 0.92082 0.15036 0.0
O144 O 0.98038 0.86835 0.10673 0.0
O145 O 0.9453 0.87377 0.12253 0.0
O146 O 0.97161 0.91101 0.15615 0.0
O147 O 0.00704 0.90596 0.14024 0.0
H148 H 0.94437 0.91886 0.09915 0.0
H149 H 0.92525 0.93709 0.06798 0.0
H150 H 0.92596 0.86617 0.03813 0.0
H151 H 0.94612 0.84889 0.06848 0.0
H152 H 0.97398 0.75916 0.1871 0.0
H153 H 0.96692 0.79381 0.16348 0.0
H154 H 0.02844 0.80141 0.22039 0.0
H155 H 0.02163 0.83584 0.19632 0.0
H156 H 0.02341 0.95813 0.21061 0.0
H157 H 0.01125 1.00187 0.15506 0.0
H158 H 0.99859 0.96566 0.13633 0.0
H159 H 0.00898 0.92168 0.1916 0.0
C160 C 0.58136 0.20677 0.38142 0.0
C161 C 0.57457 0.23145 0.37932 0.0
C162 C 0.55361 0.22973 0.41282 0.0
C163 C 0.56088 0.24283 0.39492 0.0
C164 C 0.55932 0.20471 0.41425 0.0
C165 C 0.57311 0.19339 0.39872 0.0
U166 U 0.61347 0.1981 0.32829 0.0
O167 O 0.65335 0.1969 0.32423 0.0
O168 O 0.63065 0.16524 0.31465 0.0
C169 C 0.65278 0.17438 0.31716 0.0
C170 C 0.59943 0.1955 0.3674 0.0
C171 C 0.67321 0.16583 0.30429 0.0
C172 C 0.71336 0.14697 0.30415 0.0
C173 C 0.69214 0.15348 0.31467 0.0
C174 C 0.69673 0.16416 0.27219 0.0
C175 C 0.71602 0.15248 0.28293 0.0
C176 C 0.67538 0.17094 0.28288 0.0
C177 C 0.58229 0.24114 0.28529 0.0
C178 C 0.59157 0.25651 0.25068 0.0
C179 C 0.55882 0.27458 0.27072 0.0
C180 C 0.56316 0.25791 0.2867 0.0
C181 C 0.57333 0.27463 0.25266 0.0
C182 C 0.59622 0.24 0.26704 0.0
C183 C 0.58825 0.22747 0.30428 0.0
O184 O 0.59116 0.18056 0.35293 0.0
O185 O 0.61681 0.21014 0.36073 0.0
O186 O 0.60726 0.23474 0.31529 0.0
O187 O 0.5839 0.2038 0.30516 0.0
H188 H 0.58064 0.24216 0.36606 0.0
H189 H 0.55647 0.26204 0.39324 0.0
H190 H 0.55419 0.19415 0.42788 0.0
H191 H 0.57827 0.1744 0.40068 0.0
H192 H 0.72804 0.13819 0.31274 0.0
H193 H 0.69084 0.14951 0.33122 0.0
H194 H 0.69861 0.16889 0.25584 0.0
H195 H 0.661 0.18065 0.27465 0.0
H196 H 0.60278 0.25558 0.23684 0.0
H197 H 0.54499 0.28835 0.27324 0.0
H198 H 0.55232 0.25903 0.30079 0.0
H199 H 0.61106 0.22703 0.26573 0.0
C200 C 0.94628 0.52934 0.42687 0.0
C201 C 0.94604 0.50409 0.43098 0.0
C202 C 0.92394 0.5112 0.46364 0.0
C203 C 0.93502 0.4951 0.4493 0.0
C204 C 0.9242 0.5364 0.45904 0.0
C205 C 0.93538 0.54527 0.44104 0.0
U206 U 0.98082 0.53768 0.3726 0.0
O207 O 0.96823 0.56461 0.34915 0.0
O208 O 1.00361 0.57014 0.3655 0.0
C209 C 0.98718 0.57895 0.35246 0.0
C210 C 0.95701 0.54041 0.40802 0.0
C211 C 0.99375 0.59807 0.3372 0.0
C212 C 0.99014 0.64069 0.32674 0.0
C213 C 0.98523 0.62179 0.34081 0.0
C214 C 0.01274 0.61254 0.30515 0.0
C215 C 1.00403 0.6365 0.30867 0.0
C216 C 0.00757 0.59345 0.31928 0.0
C217 C 0.00518 0.47363 0.34847 0.0
C218 C 0.01312 0.45048 0.317 0.0
C219 C 0.01835 0.43135 0.35089 0.0
C220 C 0.01174 0.45323 0.36049 0.0
C221 C 0.01889 0.42955 0.32898 0.0
C222 C 0.00607 0.47225 0.32667 0.0
C223 C 0.99609 0.49556 0.35904 0.0
O224 O 0.98093 0.54212 0.40681 0.0
O225 O 0.94618 0.53643 0.38999 0.0
O226 O 0.97472 0.50476 0.35379 0.0
O227 O 0.0099 0.50941 0.37106 0.0
H228 H 0.95433 0.49146 0.42015 0.0
H229 H 0.93545 0.4756 0.45229 0.0
H230 H 0.91539 0.54946 0.46914 0.0
H231 H 0.93525 0.5648 0.43806 0.0
H232 H 0.98245 0.6585 0.32991 0.0
H233 H 0.9744 0.62568 0.35452 0.0
H234 H 0.02366 0.6085 0.29156 0.0
H235 H 0.01428 0.57521 0.31622 0.0
H236 H 0.01382 0.45004 0.30013 0.0
H237 H 0.02219 0.41565 0.3607 0.0
H238 H 0.01097 0.45397 0.37738 0.0
H239 H 1.00112 0.48789 0.31713 0.0
C240 C 0.92488 0.23903 0.31917 0.0
C241 C 0.92503 0.23908 0.2973 0.0
C242 C 0.8825 0.25329 0.29673 0.0
C243 C 0.90399 0.24628 0.28614 0.0
C244 C 0.88295 0.25345 0.31869 0.0
C245 C 0.90387 0.24657 0.32969 0.0
U246 U 0.98529 0.20786 0.34404 0.0
O247 O 0.98059 0.19362 0.37575 0.0
O248 O 0.00552 0.22454 0.37039 0.0
C249 C 0.99646 0.20889 0.38396 0.0
C250 C 0.94541 0.2303 0.33207 0.0
C251 C 0.01311 0.1981 0.39954 0.0
C252 C 0.02066 0.19001 0.43624 0.0
C253 C 0.00799 0.20242 0.42056 0.0
C254 C 0.04488 0.16941 0.41013 0.0
C255 C 0.03885 0.17299 0.43125 0.0
C256 C 0.0319 0.18176 0.3943 0.0
C257 C 0.01901 0.16899 0.30051 0.0
C258 C 0.04218 0.13645 0.28473 0.0
C259 C 0.01098 0.15746 0.2646 0.0
C260 C 0.00595 0.17235 0.28185 0.0
C261 C 0.02861 0.13863 0.26607 0.0
C262 C 0.0376 0.15162 0.30155 0.0
C263 C 0.0127 0.18091 0.32011 0.0
O264 O 0.94559 0.20738 0.33827 0.0
O265 O 0.96716 0.2406 0.33077 0.0
O266 O 0.01606 0.20464 0.32205 0.0
O267 O 0.99371 0.17226 0.33025 0.0
H268 H 0.94114 0.23331 0.28891 0.0
H269 H 0.90456 0.24617 0.26926 0.0
H270 H 0.86684 0.25806 0.32758 0.0
H271 H 0.90341 0.24653 0.3466 0.0
H272 H 0.01579 0.1933 0.45236 0.0
H273 H 0.99346 0.21481 0.42488 0.0
H274 H 0.05879 0.1563 0.40589 0.0
H275 H 0.03592 0.17799 0.37809 0.0
H276 H 0.05544 0.12206 0.28708 0.0
H277 H 1.00052 0.16029 0.25041 0.0
H278 H 0.99151 0.18583 0.28084 0.0
H279 H 0.04779 0.1488 0.31593 0.0
C280 C 0.66133 0.87907 0.43146 0.0
C281 C 0.67097 0.9029 0.43156 0.0
C282 C 0.68404 0.89758 0.46791 0.0
C283 C 0.68212 0.91214 0.44971 0.0
C284 C 0.67406 0.87383 0.46753 0.0
C285 C 0.66271 0.86483 0.44961 0.0
U286 U 0.62835 0.86834 0.37672 0.0
O287 O 0.64136 0.84098 0.35434 0.0
O288 O 0.60644 0.83501 0.37073 0.0
C289 C 0.6227 0.82629 0.35773 0.0
C290 C 0.65168 0.86711 0.41259 0.0
C291 C 0.61469 0.80971 0.34096 0.0
C292 C 0.60596 0.76765 0.33132 0.0
C293 C 0.60992 0.78538 0.34655 0.0
C294 C 0.61027 0.79856 0.30439 0.0
C295 C 0.60663 0.77385 0.31004 0.0
C296 C 0.61446 0.8164 0.31977 0.0
C297 C 0.60251 0.93157 0.35138 0.0
C298 C 0.59643 0.95636 0.32035 0.0
C299 C 0.5857 0.97246 0.35426 0.0
C300 C 0.5929 0.95043 0.36357 0.0
C301 C 0.58761 0.9758 0.33253 0.0
C302 C 0.60408 0.93458 0.32973 0.0
C303 C 0.61165 0.90911 0.36126 0.0
O304 O 0.62788 0.86431 0.41094 0.0
O305 O 0.66266 0.87121 0.39471 0.0
O306 O 0.63343 0.9006 0.35669 0.0
O307 O 0.59853 0.89568 0.37413 0.0
H308 H 0.67018 0.91416 0.41763 0.0
H309 H 0.68926 0.93064 0.44946 0.0
H310 H 0.67558 0.86176 0.4809 0.0
H311 H 0.65564 0.84628 0.44974 0.0
H312 H 0.60283 0.74892 0.33623 0.0
H313 H 0.6102 0.77983 0.36281 0.0
H314 H 0.61096 0.80389 0.28811 0.0
H315 H 0.61828 0.83509 0.31513 0.0
H316 H 0.59763 0.95798 0.30354 0.0
H317 H 0.57935 0.98708 0.36419 0.0
H318 H 0.59168 0.94841 0.38036 0.0
H319 H 0.61125 0.92009 0.32006 0.0
C320 C 0.40073 0.01162 0.84727 0.0
C321 C 0.40745 0.01377 0.82617 0.0
C322 C 0.36637 1.00152 0.81527 0.0
C323 C 0.39031 0.00893 0.81029 0.0
C324 C 0.36006 0.99838 0.8363 0.0
C325 C 0.37705 1.00349 0.85213 0.0
U326 U 0.46309 0.02327 0.87561 0.0
O327 O 0.47309 0.05669 0.893 0.0
O328 O 0.47168 0.0207 0.90938 0.0
C329 C 0.47559 0.04441 0.91055 0.0
C330 C 0.41676 0.02015 0.8645 0.0
C331 C 0.48217 0.05664 0.93025 0.0
C332 C 0.47343 0.08629 0.95741 0.0
C333 C 0.46702 0.07472 0.93866 0.0
C334 C 0.51028 0.06193 0.9594 0.0
C335 C 0.49525 0.08016 0.96795 0.0
C336 C 0.50372 0.05022 0.9408 0.0
C337 C 0.52158 1.00077 0.84472 0.0
C338 C 0.5633 0.98796 0.85249 0.0
C339 C 0.55034 0.99416 0.81665 0.0
C340 C 0.52718 1.00075 0.82345 0.0
C341 C 0.56861 0.9873 0.83098 0.0
C342 C 0.53982 0.99452 0.85934 0.0
C343 C 0.49589 0.00533 0.85022 0.0
O344 O 0.42779 1.00338 0.87585 0.0
O345 O 0.43067 0.03924 0.86056 0.0
O346 O 0.48789 0.02793 0.8489 0.0
O347 O 0.48612 0.9926 0.86552 0.0
H348 H 0.42562 0.01998 0.82198 0.0
H349 H 0.39556 0.01141 0.79414 0.0
H350 H 0.34166 0.99293 0.8405 0.0
H351 H 0.37139 1.00192 0.86826 0.0
H352 H 0.46152 0.10037 0.96341 0.0
H353 H 0.45021 0.07984 0.93078 0.0
H354 H 0.52705 0.05652 0.96718 0.0
H355 H 0.51562 0.03628 0.93453 0.0
H356 H 0.57705 0.98284 0.86391 0.0
H357 H 0.55391 0.99447 0.80004 0.0
H358 H 0.51335 0.00542 0.81193 0.0
H359 H 0.53584 0.9943 0.87588 0.0
C360 C 0.83953 0.33399 0.81612 0.0
C361 C 0.83523 0.33415 0.7945 0.0
C362 C 0.85181 0.2927 0.7919 0.0
C363 C 0.84154 0.31374 0.78244 0.0
C364 C 0.85608 0.29306 0.81359 0.0
C365 C 0.85022 0.31349 0.82544 0.0
U366 U 0.80219 0.39166 0.83021 0.0
O367 O 0.78185 0.39561 0.85945 0.0
O368 O 0.81192 0.42143 0.85211 0.0
C369 C 0.7957 0.41384 0.86581 0.0
C370 C 0.83155 0.35379 0.82989 0.0
C371 C 0.78602 0.43059 0.88152 0.0
C372 C 0.7849 0.44139 0.91818 0.0
C373 C 0.79519 0.4283 0.90185 0.0
C374 C 0.75665 0.46039 0.89384 0.0
C375 C 0.76531 0.4575 0.91453 0.0
C376 C 0.7668 0.44684 0.87746 0.0
C377 C 0.7619 0.41495 0.78213 0.0
C378 C 0.72663 0.44111 0.77699 0.0
C379 C 0.74067 0.41518 0.7489 0.0
C380 C 0.75973 0.40699 0.7615 0.0
C381 C 0.72346 0.43189 0.75658 0.0
C382 C 0.74566 0.43249 0.7898 0.0
C383 C 0.77949 0.40195 0.7953 0.0
O384 O 0.83893 0.37614 0.82551 0.0
O385 O 0.80857 0.35258 0.83557 0.0
O386 O 0.77076 0.38662 0.80926 0.0
O387 O 0.79994 0.41293 0.80089 0.0
H388 H 0.82676 0.34982 0.78705 0.0
H389 H 0.83822 0.31448 0.76579 0.0
H390 H 0.86319 0.27723 0.82175 0.0
H391 H 0.85336 0.31296 0.84216 0.0
H392 H 0.7918 0.43805 0.93379 0.0
H393 H 0.80985 0.41557 0.90528 0.0
H394 H 0.74187 0.47287 0.8903 0.0
H395 H 0.75942 0.4487 0.86181 0.0
H396 H 0.71394 0.45429 0.78329 0.0
H397 H 0.73872 0.40717 0.73355 0.0
H398 H 0.77206 0.39328 0.75543 0.0
H399 H 0.74715 0.43879 0.80577 0.0
C400 C 0.12755 0.34336 0.9251 0.0
C401 C 0.1026 0.33728 0.92571 0.0
C402 C 0.10784 0.32036 0.96094 0.0
C403 C 0.09278 0.32599 0.94357 0.0
C404 C 0.13275 0.3268 0.96003 0.0
C405 C 0.14236 0.3383 0.94244 0.0
U406 U 0.138 0.37674 0.87065 0.0
O407 O 0.17159 0.39812 0.86411 0.0
O408 O 0.16436 0.36347 0.84752 0.0
C409 C 0.17957 0.38175 0.85083 0.0
C410 C 0.13974 0.35313 0.9064 0.0
C411 C 0.19681 0.38898 0.83426 0.0
C412 C 0.23916 0.39775 0.82539 0.0
C413 C 0.22087 0.39457 0.84028 0.0
C414 C 0.2094 0.39093 0.79788 0.0
C415 C 0.23383 0.39548 0.804 0.0
C416 C 0.19103 0.38753 0.81291 0.0
C417 C 0.07433 0.40405 0.84732 0.0
C418 C 0.05302 0.42485 0.81909 0.0
C419 C 0.03028 0.40883 0.84853 0.0
C420 C 0.05203 0.40049 0.85753 0.0
C421 C 0.03046 0.42081 0.82906 0.0
C422 C 0.07482 0.41649 0.82817 0.0
C423 C 0.09671 0.39383 0.85649 0.0
O424 O 0.13542 0.34235 0.88845 0.0
O425 O 0.14262 0.37694 0.90487 0.0
O426 O 0.11143 0.407 0.86828 0.0
O427 O 0.1044 0.37177 0.85178 0.0
H428 H 0.09087 0.34096 0.9124 0.0
H429 H 0.07345 0.32168 0.94373 0.0
H430 H 0.14519 0.32235 0.97267 0.0
H431 H 0.16172 0.34263 0.94216 0.0
H432 H 0.25762 0.40158 0.83068 0.0
H433 H 0.22578 0.39555 0.85668 0.0
H434 H 0.20468 0.38895 0.78154 0.0
H435 H 0.17261 0.38302 0.8079 0.0
H436 H 0.05376 0.43377 0.80399 0.0
H437 H 0.01329 0.40573 0.85674 0.0
H438 H 0.05139 0.39094 0.87237 0.0
H439 H 0.09195 0.4193 0.82007 0.0
C440 C 0.8073 0.99604 0.89292 0.0
C441 C 0.82992 0.98494 0.88886 0.0
C442 C 0.83167 0.96964 0.92461 0.0
C443 C 0.84209 0.97194 0.90467 0.0
C444 C 0.8085 0.9797 0.92822 0.0
C445 C 0.7965 0.99288 0.91252 0.0
U446 U 0.79653 0.02483 0.83828 0.0
O447 O 0.79537 0.06427 0.83209 0.0
O448 O 0.76272 0.04162 0.82556 0.0
C449 C 0.77237 0.0637 0.82603 0.0
C450 C 0.796 0.01335 0.87813 0.0
C451 C 0.76421 0.08236 0.81093 0.0
C452 C 0.73728 0.11697 0.80469 0.0
C453 C 0.74333 0.09588 0.81592 0.0
C454 C 0.77202 0.11034 0.78217 0.0
C455 C 0.75183 0.12492 0.78792 0.0
C456 C 0.77833 0.08942 0.79374 0.0
C457 C 0.83434 0.99223 0.79371 0.0
C458 C 0.85097 0.00526 0.76047 0.0
C459 C 0.86264 0.96613 0.77531 0.0
C460 C 0.84708 0.97019 0.79205 0.0
C461 C 0.86552 0.98398 0.75965 0.0
C462 C 0.83568 0.00951 0.77755 0.0
C463 C 0.82338 0.99763 0.81395 0.0
O464 O 0.8109 0.02961 0.86998 0.0
O465 O 0.78013 0.00449 0.86463 0.0
O466 O 0.83187 0.01686 0.82395 0.0
O467 O 0.79984 0.99372 0.81654 0.0
H468 H 0.83858 0.98717 0.8738 0.0
H469 H 0.85989 0.96418 0.90151 0.0
H470 H 0.8002 0.97839 0.9435 0.0
H471 H 0.77917 1.0015 0.91598 0.0
H472 H 0.72189 0.12763 0.80996 0.0
H473 H 0.73238 0.09088 0.82934 0.0
H474 H 0.78338 0.11533 0.76904 0.0
H475 H 0.79461 0.0793 0.78968 0.0
H476 H 0.85222 0.01914 0.74842 0.0
H477 H 0.87363 0.94971 0.77554 0.0
H478 H 0.84632 0.95673 0.8045 0.0
H479 H 0.82588 0.02665 0.77861 0.0
C480 C 0.39988 0.37283 0.66187 0.0
C481 C 0.40788 0.38086 0.68163 0.0
C482 C 0.36547 0.38361 0.69355 0.0
C483 C 0.3908 0.38626 0.69733 0.0
C484 C 0.35776 0.37635 0.6735 0.0
C485 C 0.37472 0.37101 0.65794 0.0
U486 U 0.46373 0.36883 0.63609 0.0
O487 O 0.48147 0.33771 0.62031 0.0
O488 O 0.4737 0.37175 0.60281 0.0
C489 C 0.48353 0.34983 0.60265 0.0
C490 C 0.41696 0.3653 0.64521 0.0
C491 C 0.48595 0.33638 0.58278 0.0
C492 C 0.47107 0.3209 0.54933 0.0
C493 C 0.46679 0.33313 0.56831 0.0
C494 C 0.51357 0.31576 0.55907 0.0
C495 C 0.49459 0.31193 0.5445 0.0
C496 C 0.50923 0.32757 0.57792 0.0
C497 C 0.51784 0.39967 0.66656 0.0
C498 C 0.56178 0.39279 0.66599 0.0
C499 C 0.54522 0.42639 0.68594 0.0
C500 C 0.52168 0.41991 0.67951 0.0
C501 C 0.56554 0.41277 0.67951 0.0
C502 C 0.53806 0.38627 0.65953 0.0
C503 C 0.49238 0.39217 0.66244 0.0
O504 O 0.42604 0.38285 0.63347 0.0
O505 O 0.43314 0.34852 0.65024 0.0
O506 O 0.48736 0.36871 0.66393 0.0
O507 O 0.48094 0.4031 0.64694 0.0
H508 H 0.42725 0.38251 0.68502 0.0
H509 H 0.39742 0.39176 0.71257 0.0
H510 H 0.33848 0.37462 0.66981 0.0
H511 H 0.36813 0.36504 0.64281 0.0
H512 H 0.45594 0.31828 0.53859 0.0
H513 H 0.44868 0.33998 0.57165 0.0
H514 H 0.53207 0.30997 0.55584 0.0
H515 H 0.52436 0.33021 0.58869 0.0
H516 H 0.57712 0.38206 0.66063 0.0
H517 H 0.54737 0.44157 0.69663 0.0
H518 H 0.5063 0.43031 0.68523 0.0
H519 H 0.53548 0.37054 0.64951 0.0
C520 C 0.81626 0.42627 0.62875 0.0
C521 C 0.84002 0.43568 0.63109 0.0
C522 C 0.83924 0.45053 0.59498 0.0
C523 C 0.85133 0.44789 0.61439 0.0
C524 C 0.81512 0.44169 0.59312 0.0
C525 C 0.80379 0.42986 0.60983 0.0
U526 U 0.79632 0.38999 0.68073 0.0
O527 O 0.75932 0.37424 0.68472 0.0
O528 O 0.79053 0.35047 0.67797 0.0
C529 C 0.76717 0.35171 0.68242 0.0
C530 C 0.805 0.40966 0.64413 0.0
C531 C 0.75816 0.33306 0.69715 0.0
C532 C 0.73173 0.29786 0.70261 0.0
C533 C 0.73839 0.31843 0.69095 0.0
C534 C 0.76388 0.30692 0.72761 0.0
C535 C 0.74483 0.29137 0.72074 0.0
C536 C 0.77052 0.32761 0.71588 0.0
C537 C 0.83467 0.42061 0.72588 0.0
C538 C 0.85461 0.43071 0.75864 0.0
C539 C 0.87406 0.44113 0.72588 0.0
C540 C 0.85404 0.43144 0.71493 0.0
C541 C 0.87509 0.43972 0.74784 0.0
C542 C 0.83458 0.42132 0.74772 0.0
C543 C 0.81685 0.40451 0.71564 0.0
O544 O 0.81852 0.39226 0.65236 0.0
O545 O 0.78744 0.41749 0.65635 0.0
O546 O 0.82595 0.38735 0.70368 0.0
O547 O 0.79645 0.41409 0.7084 0.0
H548 H 0.85003 0.43296 0.64555 0.0
H549 H 0.86974 0.45484 0.61658 0.0
H550 H 0.80526 0.44286 0.57845 0.0
H551 H 0.78556 0.42239 0.6076 0.0
H552 H 0.7167 0.28663 0.69707 0.0
H553 H 0.72867 0.32233 0.67653 0.0
H554 H 0.77448 0.30242 0.74142 0.0
H555 H 0.78593 0.33869 0.72091 0.0
H556 H 0.85479 0.42907 0.77549 0.0
H557 H 0.88935 0.44842 0.71713 0.0
H558 H 0.85438 0.43104 0.69803 0.0
H559 H 0.81979 0.41287 0.75639 0.0
C560 C 0.11413 0.05019 0.59115 0.0
C561 C 0.09024 0.05889 0.58833 0.0
C562 C 0.10129 0.07578 0.55447 0.0
C563 C 0.08385 0.07158 0.57009 0.0
C564 C 0.12512 0.06682 0.55718 0.0
C565 C 0.13152 0.05411 0.57543 0.0
U566 U 0.13334 0.01675 0.64587 0.0
O567 O 0.16366 0.03493 0.66251 0.0
O568 O 0.17005 1.00017 0.64641 0.0
C569 C 0.1794 0.01767 0.65801 0.0
C570 C 0.12116 0.03812 0.61086 0.0
C571 C 0.19685 0.01049 0.67458 0.0
C572 C 0.23904 0.0107 0.68668 0.0
C573 C 0.22159 0.01576 0.67132 0.0
C574 C 0.20736 0.99419 0.70893 0.0
C575 C 0.23234 0.99984 0.70578 0.0
C576 C 0.18973 0.99955 0.69348 0.0
C577 C 0.07452 0.98927 0.67256 0.0
C578 C 0.04494 0.96528 0.69206 0.0
C579 C 0.03118 0.99901 0.67041 0.0
C580 C 0.05543 1.00361 0.66438 0.0
C581 C 0.02581 0.98018 0.6848 0.0
C582 C 0.06898 0.9698 0.686 0.0
C583 C 0.10054 0.99533 0.66958 0.0
O584 O 0.12038 0.04951 0.62886 0.0
O585 O 0.12794 0.01507 0.61163 0.0
O586 O 0.10692 0.01842 0.6715 0.0
O587 O 0.11239 0.98377 0.65482 0.0
H588 H 0.07659 0.05597 0.60028 0.0
H589 H 0.06532 0.07822 0.5682 0.0
H590 H 0.13887 0.07007 0.54537 0.0
H591 H 0.15014 0.04778 0.57746 0.0
H592 H 0.25778 0.01601 0.68366 0.0
H593 H 0.22744 0.02433 0.6569 0.0
H594 H 0.20138 0.9856 0.72328 0.0
H595 H 0.17066 0.99534 0.69632 0.0
H596 H 0.0414 0.95044 0.70289 0.0
H597 H 0.01682 0.01088 0.66463 0.0
H598 H 0.05934 0.01881 0.65402 0.0
H599 H 0.08346 0.95858 0.6925 0.0
C600 C 0.83818 0.08768 0.6968 0.0
C601 C 0.83614 0.0871 0.71862 0.0
C602 C 0.8511 0.12939 0.72062 0.0
C603 C 0.84276 0.10772 0.73046 0.0
C604 C 0.8529 0.12951 0.69868 0.0
C605 C 0.84677 0.10889 0.68704 0.0
U606 U 0.80269 0.02795 0.68328 0.0
O607 O 0.7816 0.02288 0.65434 0.0
O608 O 0.81326 0.99892 0.66103 0.0
C609 C 0.79618 0.00558 0.64764 0.0
C610 C 0.8303 0.06737 0.68334 0.0
C611 C 0.78704 0.98857 0.63167 0.0
C612 C 0.78746 0.97706 0.59507 0.0
C613 C 0.79746 0.99012 0.61175 0.0
C614 C 0.75679 0.95997 0.61815 0.0
C615 C 0.76686 0.96219 0.59807 0.0
C616 C 0.76685 0.97313 0.63493 0.0
C617 C 0.76437 1.00035 0.73012 0.0
C618 C 0.72624 0.97768 0.73232 0.0
C619 C 0.74549 0.99332 0.76378 0.0
C620 C 0.76466 1.00266 0.7519 0.0
C621 C 0.72581 0.98147 0.75399 0.0
C622 C 0.74553 0.98706 0.72037 0.0
C623 C 0.78149 0.01571 0.71837 0.0
O624 O 0.83882 0.04542 0.68754 0.0
O625 O 0.80708 0.0674 0.67811 0.0
O626 O 0.77191 0.03106 0.70479 0.0
O627 O 0.80246 0.00631 0.7125 0.0
H628 H 0.82931 0.07087 0.72645 0.0
H629 H 0.8413 0.10654 0.74726 0.0
H630 H 0.85834 0.14576 0.69021 0.0
H631 H 0.84819 0.10975 0.67018 0.0
H632 H 0.79523 0.97928 0.57966 0.0
H633 H 0.81281 1.00226 0.60889 0.0
H634 H 0.74076 0.94865 0.62065 0.0
H635 H 0.75846 0.97189 0.65017 0.0
H636 H 0.71098 0.96878 0.72456 0.0
H637 H 0.74518 0.99687 0.78041 0.0
H638 H 0.77891 0.01318 0.75961 0.0
H639 H 0.74496 0.98529 0.70354 0.0
C640 C 0.55484 0.09606 0.26678 0.0
C641 C 0.57012 0.11526 0.27344 0.0
C642 C 0.55374 0.07395 0.27787 0.0
C643 C 0.5684 0.07095 0.29594 0.0
C644 C 0.58236 0.0909 0.30361 0.0
C645 C 0.58313 0.11281 0.2922 0.0
C646 C 0.53839 0.05322 0.26931 0.0
C647 C 0.59795 0.08858 0.32302 0.0
C648 C 0.56224 0.01414 0.32997 0.0
C649 C 0.58167 0.99979 0.32268 0.0
C650 C 0.55739 0.03728 0.32129 0.0
C651 C 0.57218 0.04614 0.30485 0.0
C652 C 0.59136 0.03152 0.29708 0.0
C653 C 0.596 0.0087 0.3062 0.0
C654 C 0.5367 0.05238 0.32985 0.0
C655 C 0.60726 0.04013 0.27926 0.0
H656 H 0.54486 0.09771 0.25218 0.0
H657 H 0.59465 0.12774 0.29756 0.0
H658 H 0.55052 0.03919 0.26243 0.0
H659 H 0.52785 0.04421 0.28194 0.0
H660 H 0.52542 0.05954 0.25703 0.0
H661 H 0.6038 0.10674 0.32903 0.0
H662 H 0.58795 0.07872 0.33551 0.0
H663 H 0.61456 0.07785 0.31934 0.0
H664 H 0.55079 0.0073 0.34245 0.0
H665 H 0.61133 0.99808 0.30067 0.0
H666 H 0.5238 0.05742 0.31714 0.0
H667 H 0.54404 0.06968 0.33643 0.0
H668 H 0.52642 0.04255 0.34223 0.0
H669 H 0.59575 0.04417 0.26536 0.0
H670 H 0.62117 0.02636 0.27484 0.0
H671 H 0.61682 0.05732 0.28364 0.0
C672 C 0.57895 0.40817 0.20913 0.0
C673 C 0.57683 0.41112 0.18745 0.0
C674 C 0.57467 0.38533 0.21857 0.0
C675 C 0.56855 0.36492 0.206 0.0
C676 C 0.56477 0.36812 0.18434 0.0
C677 C 0.56875 0.39121 0.17535 0.0
C678 C 0.57777 0.38274 0.24189 0.0
C679 C 0.55741 0.34694 0.17057 0.0
C680 C 0.59209 0.30514 0.22812 0.0
C681 C 0.57111 0.29528 0.23749 0.0
C682 C 0.59108 0.32709 0.21678 0.0
C683 C 0.5687 0.33992 0.21522 0.0
C684 C 0.54715 0.32944 0.22352 0.0
C685 C 0.54857 0.3071 0.2343 0.0
C686 C 0.61429 0.33714 0.20733 0.0
C687 C 0.5228 0.34233 0.22232 0.0
H688 H 0.5851 0.42337 0.21865 0.0
H689 H 0.56625 0.3935 0.15867 0.0
H690 H 0.56132 0.37388 0.24869 0.0
H691 H 0.59364 0.37079 0.2454 0.0
H692 H 0.58072 0.40066 0.24966 0.0
H693 H 0.55525 0.35246 0.15396 0.0
H694 H 0.57135 0.33227 0.1716 0.0
H695 H 0.53986 0.33903 0.17606 0.0
H696 H 0.60968 0.29649 0.2305 0.0
H697 H 0.53202 0.29938 0.24087 0.0
H698 H 0.61981 0.35409 0.21562 0.0
H699 H 0.61118 0.342 0.1907 0.0
H700 H 0.62963 0.32389 0.20827 0.0
H701 H 0.52103 0.35447 0.23606 0.0
H702 H 0.50739 0.32902 0.22268 0.0
H703 H 0.52104 0.35378 0.20808 0.0
C704 C 0.0152 0.29431 0.28528 0.0
C705 C 0.0304 0.29085 0.26801 0.0
C706 C 0.01659 0.31581 0.2971 0.0
C707 C 0.03358 0.33429 0.2915 0.0
C708 C 0.05036 0.33003 0.27521 0.0
C709 C 0.04848 0.30843 0.26356 0.0
C710 C 0.99874 0.3194 0.31469 0.0
C711 C 0.06925 0.34898 0.26921 0.0
C712 C 0.01163 0.39901 0.30042 0.0
C713 C 0.02412 0.40564 0.31876 0.0
C714 C 0.01523 0.37616 0.29114 0.0
C715 C 0.03137 0.35917 0.30058 0.0
C716 C 0.04447 0.36579 0.31881 0.0
C717 C 0.04075 0.38897 0.32765 0.0
C718 C 1.00136 0.37001 0.27136 0.0
C719 C 0.06185 0.3482 0.32937 0.0
H720 H 1.00158 0.28057 0.2891 0.0
H721 H 0.06028 0.30604 0.2502 0.0
H722 H 0.00813 0.32707 0.3286 0.0
H723 H 0.98451 0.33266 0.30972 0.0
H724 H 0.98956 0.30202 0.31921 0.0
H725 H 0.08272 0.34173 0.2579 0.0
H726 H 0.06002 0.36502 0.26205 0.0
H727 H 0.07923 0.35555 0.28324 0.0
H728 H 0.99842 0.41141 0.29355 0.0
H729 H 0.05085 0.39394 0.34161 0.0
H730 H 0.98923 0.35402 0.27412 0.0
H731 H 0.01434 0.36492 0.25888 0.0
H732 H 0.99002 0.38551 0.26567 0.0
H733 H 0.05115 0.33428 0.33809 0.0
H734 H 0.07423 0.35766 0.34057 0.0
H735 H 0.07311 0.33838 0.31777 0.0
C736 C 0.05294 0.10604 0.2478 0.0
C737 C 0.03112 0.11946 0.24961 0.0
C738 C 0.05372 0.08419 0.23643 0.0
C739 C 0.03272 0.07648 0.22527 0.0
C740 C 0.01164 0.09142 0.22491 0.0
C741 C 0.01084 0.11234 0.23748 0.0
C742 C 0.07656 0.06874 0.23736 0.0
C743 C 0.98927 0.08453 0.21228 0.0
C744 C 0.03672 0.02561 0.18531 0.0
C745 C 0.02527 0.00606 0.19582 0.0
C746 C 0.03966 0.04857 0.19474 0.0
C747 C 0.03185 0.05186 0.21551 0.0
C748 C 0.02185 0.03186 0.22673 0.0
C749 C 0.01836 0.00932 0.21669 0.0
C750 C 0.05006 0.06955 0.18216 0.0
C751 C 0.01414 0.0345 0.2492 0.0
H752 H 0.06925 0.1119 0.25605 0.0
H753 H 0.99379 0.12224 0.23852 0.0
H754 H 0.07199 0.04994 0.2427 0.0
H755 H 0.08461 0.06719 0.22159 0.0
H756 H 0.09064 0.07649 0.24804 0.0
H757 H 0.97643 0.10012 0.21054 0.0
H758 H 0.99452 0.07815 0.19652 0.0
H759 H 0.97951 0.06929 0.22017 0.0
H760 H 0.04291 0.02322 0.16942 0.0
H761 H 0.00936 0.99458 0.22501 0.0
H762 H 0.06648 0.07716 0.19003 0.0
H763 H 0.03644 0.0845 0.18105 0.0
H764 H 0.05517 0.06396 0.16612 0.0
H765 H 0.02948 0.04204 0.25864 0.0
H766 H 0.00828 0.01681 0.25618 0.0
H767 H 0.99874 0.04759 0.25025 0.0
C768 C 0.68479 0.99532 0.76416 0.0
C769 C 0.70312 0.97769 0.76577 0.0
C770 C 0.66374 0.99377 0.7764 0.0
C771 C 0.66092 0.97393 0.79049 0.0
C772 C 0.6794 0.95588 0.79203 0.0
C773 C 0.70049 0.95808 0.77967 0.0
C774 C 0.64467 0.01359 0.77443 0.0
C775 C 0.6769 0.93416 0.80647 0.0
C776 C 0.61458 0.98896 0.83215 0.0
C777 C 0.59301 0.97992 0.82303 0.0
C778 C 0.63734 0.98532 0.82257 0.0
C779 C 0.63844 0.97256 0.8034 0.0
C780 C 0.61702 0.96172 0.79506 0.0
C781 C 0.5946 0.96544 0.80502 0.0
C782 C 0.66002 0.99642 0.83224 0.0
C783 C 0.61754 0.94752 0.7749 0.0
H784 H 0.68723 0.01067 0.75358 0.0
H785 H 0.71492 0.9446 0.7809 0.0
H786 H 0.62677 0.00545 0.76998 0.0
H787 H 0.64227 0.02277 0.7897 0.0
H788 H 0.64963 0.02766 0.76262 0.0
H789 H 0.69478 0.92516 0.80941 0.0
H790 H 0.66889 0.93954 0.82164 0.0
H791 H 0.66442 0.92054 0.79922 0.0
H792 H 0.61355 1.00002 0.84612 0.0
H793 H 0.57809 0.95775 0.79823 0.0
H794 H 0.66666 0.01169 0.8223 0.0
H795 H 0.67483 0.98262 0.83312 0.0
H796 H 0.65659 1.00355 0.84817 0.0
H797 H 0.62211 0.96004 0.7618 0.0
H798 H 0.59972 0.93855 0.77141 0.0
H799 H 0.63195 0.93332 0.77562 0.0
C800 C 0.59774 0.44317 0.69026 0.0
C801 C 0.59021 0.41872 0.68803 0.0
C802 C 0.61987 0.44915 0.70027 0.0
C803 C 0.63489 0.43019 0.70813 0.0
C804 C 0.62776 0.40545 0.70538 0.0
C805 C 0.60553 0.40002 0.69535 0.0
C806 C 0.62709 0.47572 0.70243 0.0
C807 C 0.64327 0.38471 0.71365 0.0
C808 C 0.70187 0.43753 0.72218 0.0
C809 C 0.70098 0.43701 0.74409 0.0
C810 C 0.6804 0.43674 0.71012 0.0
C811 C 0.65749 0.4359 0.7202 0.0
C812 C 0.65638 0.43781 0.7422 0.0
C813 C 0.67813 0.43813 0.7539 0.0
C814 C 0.68234 0.43525 0.68667 0.0
C815 C 0.6322 0.43802 0.75345 0.0
H816 H 0.58618 0.45771 0.68433 0.0
H817 H 0.59972 0.38112 0.69395 0.0
H818 H 0.63368 0.47971 0.71847 0.0
H819 H 0.64233 0.47983 0.6916 0.0
H820 H 0.61169 0.4882 0.69867 0.0
H821 H 0.63533 0.36649 0.70997 0.0
H822 H 0.6619 0.38578 0.7069 0.0
H823 H 0.64525 0.38628 0.73084 0.0
H824 H 0.71942 0.43746 0.71439 0.0
H825 H 0.67708 0.4377 0.77077 0.0
H826 H 0.66947 0.44822 0.67911 0.0
H827 H 0.67721 0.41656 0.68148 0.0
H828 H 0.70115 0.43928 0.68114 0.0
H829 H 0.62039 0.45274 0.74705 0.0
H830 H 0.63444 0.44089 0.77051 0.0
H831 H 0.62251 0.42039 0.7509 0.0
C832 C 0.98707 0.41169 0.81907 0.0
C833 C 0.00708 0.42783 0.81873 0.0
C834 C 0.96532 0.41719 0.80842 0.0
C835 C 0.96348 0.43938 0.79708 0.0
C836 C 0.98325 0.45616 0.79722 0.0
C837 C 0.00486 0.45017 0.80803 0.0
C838 C 0.94464 0.39877 0.80865 0.0
C839 C 0.98165 0.48031 0.7858 0.0
C840 C 0.92032 0.43477 0.75098 0.0
C841 C 0.89849 0.44387 0.75926 0.0
C842 C 0.94194 0.43454 0.76279 0.0
C843 C 0.9418 0.44359 0.78345 0.0
C844 C 0.92025 0.45418 0.79151 0.0
C845 C 0.89878 0.45409 0.77934 0.0
C846 C 0.96457 0.42319 0.75356 0.0
C847 C 0.91947 0.46443 0.81333 0.0
H848 H 0.9887 0.39428 0.8271 0.0
H849 H 0.02008 0.46293 0.80804 0.0
H850 H 0.92769 0.40746 0.81442 0.0
H851 H 0.94088 0.39231 0.79254 0.0
H852 H 0.94877 0.38265 0.81865 0.0
H853 H 0.99921 0.49058 0.78623 0.0
H854 H 0.97629 0.4774 0.76927 0.0
H855 H 0.96727 0.49173 0.79301 0.0
H856 H 0.92025 0.42644 0.73566 0.0
H857 H 0.88206 0.4614 0.78579 0.0
H858 H 0.96923 0.40625 0.76229 0.0
H859 H 0.98035 0.43589 0.75504 0.0
H860 H 0.96211 0.4185 0.73683 0.0
H861 H 0.9185 0.44915 0.82474 0.0
H862 H 0.90329 0.47633 0.81564 0.0
H863 H 0.93627 0.47512 0.81684 0.0
C864 C 0.89328 0.95859 0.73716 0.0
C865 C 0.8858 0.98165 0.74433 0.0
C866 C 0.91489 0.9559 0.72564 0.0
C867 C 0.92917 0.97681 0.72093 0.0
C868 C 0.92098 1.00024 0.72701 0.0
C869 C 0.89956 1.00236 0.73874 0.0
C870 C 0.92296 0.93056 0.71951 0.0
C871 C 0.93551 0.02306 0.72203 0.0
C872 C 0.99793 0.97373 0.71514 0.0
C873 C 1.00084 0.97718 0.69357 0.0
C874 C 0.97464 0.97229 0.72409 0.0
C875 C 0.95367 0.97443 0.71119 0.0
C876 C 0.9564 0.97688 0.68932 0.0
C877 C 0.97999 0.97836 0.68076 0.0
C878 C 0.97251 0.96946 0.74748 0.0
C879 C 0.93438 0.97827 0.67506 0.0
H880 H 0.88262 0.94247 0.74102 0.0
H881 H 0.89436 0.02023 0.74443 0.0
H882 H 0.93038 0.93046 0.70343 0.0
H883 H 0.93776 0.92445 0.7302 0.0
H884 H 0.90773 0.91709 0.72046 0.0
H885 H 0.9259 0.04001 0.72677 0.0
H886 H 0.95345 0.02239 0.73021 0.0
H887 H 0.93919 0.02409 0.70504 0.0
H888 H 0.01392 0.97301 0.72519 0.0
H889 H 0.98214 0.98053 0.66405 0.0
H890 H 0.96086 0.95341 0.75128 0.0
H891 H 0.96357 0.98584 0.75414 0.0
H892 H 0.99059 0.96707 0.7552 0.0
H893 H 0.92387 0.9609 0.67605 0.0
H894 H 0.93955 0.98145 0.65853 0.0
H895 H 0.92203 0.99317 0.68006 0.0
C896 C 0.52702 0.0998 0.99103 0.0
C897 C 0.50255 0.093 0.98757 0.0
C898 C 0.53414 0.11231 0.00919 0.0
C899 C 0.51642 0.11823 0.02438 0.0
C900 C 0.49173 0.1112 0.02114 0.0
C901 C 0.48509 0.09877 1.00276 0.0
C902 C 0.56066 0.1195 0.01201 0.0
C903 C 0.47213 0.11721 0.03679 0.0
C904 C 0.54243 0.13221 0.07826 0.0
C905 C 0.54366 0.15789 0.07797 0.0
C906 C 0.53249 0.11912 0.06134 0.0
C907 C 0.52394 0.13192 0.04351 0.0
C908 C 0.52415 0.15781 0.04345 0.0
C909 C 0.53382 0.17044 0.06069 0.0
C910 C 0.5318 0.09154 0.06228 0.0
C911 C 0.5149 0.17219 0.02489 0.0
H912 H 0.54061 0.09579 0.97929 0.0
H913 H 0.46618 0.09339 1.00039 0.0
H914 H 0.56226 0.1397 0.01304 0.0
H915 H 0.56789 0.11178 0.02683 0.0
H916 H 0.57229 0.11307 0.99898 0.0
H917 H 0.45555 0.10568 0.03455 0.0
H918 H 0.47885 0.11477 0.05303 0.0
H919 H 0.46676 0.13664 0.03485 0.0
H920 H 0.55007 0.12219 0.09135 0.0
H921 H 0.534 0.19026 0.06045 0.0
H922 H 0.54412 0.08392 0.05026 0.0
H923 H 0.51305 0.08482 0.05877 0.0
H924 H 0.5375 0.08437 0.0778 0.0
H925 H 0.52679 0.16873 0.01124 0.0
H926 H 0.51462 0.19219 0.0279 0.0
H927 H 0.49615 0.16613 0.02062 0.0
C928 C 0.76705 0.47672 0.95023 0.0
C929 C 0.75332 0.46992 0.93252 0.0
C930 C 0.75569 0.48571 0.96822 0.0
C931 C 0.73 0.48856 0.96845 0.0
C932 C 0.71618 0.48321 0.95028 0.0
C933 C 0.72792 0.47366 0.93266 0.0
C934 C 0.77113 0.49167 0.98715 0.0
C935 C 0.68891 0.48729 0.94956 0.0
C936 C 0.69668 0.48572 0.02039 0.0
C937 C 0.69319 0.51056 0.02487 0.0
C938 C 0.7088 0.47839 1.00217 0.0
C939 C 0.71743 0.49629 0.98792 0.0
C940 C 0.71395 0.52138 0.9923 0.0
C941 C 0.70219 0.52818 0.0108 0.0
C942 C 0.7124 0.45144 0.99815 0.0
C943 C 0.723 0.54127 0.97782 0.0
H944 H 0.78675 0.47474 0.95018 0.0
H945 H 0.71698 0.46842 0.91925 0.0
H946 H 0.76828 0.51099 0.99174 0.0
H947 H 0.76544 0.48002 1.0005 0.0
H948 H 0.79095 0.48882 0.98435 0.0
H949 H 0.6809 0.48313 0.934 0.0
H950 H 0.6798 0.4756 0.96141 0.0
H951 H 0.68482 0.50661 0.95347 0.0
H952 H 0.68966 0.47193 0.03099 0.0
H953 H 0.70028 0.54746 0.01431 0.0
H954 H 0.7322 0.44745 0.99672 0.0
H955 H 0.70355 0.44628 0.98317 0.0
H956 H 0.7047 0.43981 0.01078 0.0
H957 H 0.74228 0.54568 0.98183 0.0
H958 H 0.71214 0.55828 0.97955 0.0
H959 H 0.7223 0.53559 0.96123 0.0
C960 C 0.07179 0.23385 0.05817 0.0
C961 C 0.05301 0.24443 0.06986 0.0
C962 C 0.0814 0.24585 0.04056 0.0
C963 C 0.07166 0.26874 0.0343 0.0
C964 C 0.05262 0.2794 0.04604 0.0
C965 C 0.04367 0.26721 0.06375 0.0
C966 C 0.10214 0.23417 0.02882 0.0
C967 C 0.04133 0.30347 0.03963 0.0
C968 C 0.10783 0.31225 0.99972 0.0
C969 C 0.09806 0.3074 0.97979 0.0
C970 C 0.0999 0.29936 0.01743 0.0
C971 C 0.08116 0.2816 0.01543 0.0
C972 C 0.07088 0.27683 0.99551 0.0
C973 C 0.07964 0.28953 0.97793 0.0
C974 C 0.11169 0.30469 0.03831 0.0
C975 C 0.05079 0.25808 0.9927 0.0
H976 H 0.0791 0.21627 0.06293 0.0
H977 H 0.02886 0.27523 0.07255 0.0
H978 H 0.09746 0.2326 0.01202 0.0
H979 H 0.11868 0.24592 0.03003 0.0
H980 H 0.10667 0.21569 0.03496 0.0
H981 H 0.02664 0.30928 0.05042 0.0
H982 H 0.05555 0.31799 0.03917 0.0
H983 H 0.03352 0.30192 0.02367 0.0
H984 H 0.12168 0.3263 1.0016 0.0
H985 H 0.07226 0.28512 0.96267 0.0
H986 H 0.12022 0.2878 0.04461 0.0
H987 H 0.09767 0.31055 0.04967 0.0
H988 H 0.12596 0.31916 0.03727 0.0
H989 H 0.05834 0.23949 0.99524 0.0
H990 H 0.04253 0.25884 0.97683 0.0
H991 H 0.03613 0.26084 1.00436 0.0
C992 C 0.86882 0.96777 0.94734 0.0
C993 C 0.84564 0.95859 0.94213 0.0
C994 C 0.88162 0.95897 0.96487 0.0
C995 C 0.87128 0.94002 0.97717 0.0
C996 C 0.8481 0.93022 0.9716 0.0
C997 C 0.83537 0.93993 0.95434 0.0
C998 C 0.90608 0.9702 0.97036 0.0
C999 C 0.83671 0.90955 0.98389 0.0
C1000 C 0.91537 0.90386 0.01146 0.0
C1001 C 0.9109 0.91342 0.03145 0.0
C1002 C 0.90224 0.9119 0.99383 0.0
C1003 C 0.88469 0.93065 0.99592 0.0
C1004 C 0.88041 0.94087 0.01585 0.0
C1005 C 0.89332 0.93198 0.03337 0.0
C1006 C 0.90697 0.90008 0.97298 0.0
C1007 C 0.8622 0.96129 0.01864 0.0
H1008 H 0.87663 0.98242 0.93803 0.0
H1009 H 0.81742 0.93284 0.95029 0.0
H1010 H 0.90636 0.97595 0.98696 0.0
H1011 H 0.92072 0.95642 0.96839 0.0
H1012 H 0.91045 0.98632 0.96044 0.0
H1013 H 0.81947 0.90282 0.97662 0.0
H1014 H 0.8497 0.89407 0.98519 0.0
H1015 H 0.83266 0.91575 0.99996 0.0
H1016 H 0.92924 0.89 0.00945 0.0
H1017 H 0.88927 0.93937 0.04862 0.0
H1018 H 0.91302 0.91403 0.96149 0.0
H1019 H 0.88979 0.89186 0.96686 0.0
H1020 H 0.9211 0.88556 0.97398 0.0
H1021 H 0.86721 0.97703 0.00852 0.0
H1022 H 0.8613 0.96766 0.03505 0.0
H1023 H 0.84371 0.95508 0.01373 0.0
C1024 C 0.51716 0.27978 0.52422 0.0
C1025 C 0.49986 0.29877 0.52451 0.0
C1026 C 0.52417 0.26857 0.50552 0.0
C1027 C 0.51324 0.27595 0.48646 0.0
C1028 C 0.49504 0.29435 0.48661 0.0
C1029 C 0.48864 0.30561 0.50558 0.0
C1030 C 0.5438 0.24919 0.50614 0.0
C1031 C 0.48242 0.30223 0.4667 0.0
C1032 C 0.55113 0.26485 0.43777 0.0
C1033 C 0.54177 0.24244 0.43064 0.0
C1034 C 0.54155 0.27624 0.45554 0.0
C1035 C 0.52189 0.26515 0.46641 0.0
C1036 C 0.51182 0.24291 0.45889 0.0
C1037 C 0.52203 0.23171 0.44123 0.0
C1038 C 0.553 0.29981 0.46308 0.0
C1039 C 0.49059 0.23069 0.46973 0.0
H1040 H 0.52549 0.2737 0.5387 0.0
H1041 H 0.47532 0.32022 0.50545 0.0
H1042 H 0.53672 0.23189 0.49939 0.0
H1043 H 0.55958 0.2551 0.4965 0.0
H1044 H 0.55045 0.24544 0.52224 0.0
H1045 H 0.47028 0.31822 0.46909 0.0
H1046 H 0.49606 0.30697 0.45456 0.0
H1047 H 0.47124 0.28684 0.46058 0.0
H1048 H 0.56659 0.27309 0.42986 0.0
H1049 H 0.51459 0.21448 0.43571 0.0
H1050 H 0.56067 0.29715 0.479 0.0
H1051 H 0.5389 0.31429 0.46408 0.0
H1052 H 0.56786 0.30632 0.45267 0.0
H1053 H 0.49642 0.22424 0.48541 0.0
H1054 H 0.4834 0.21478 0.46083 0.0
H1055 H 0.47555 0.24397 0.472 0.0
C1056 C 0.87687 0.45632 0.57294 0.0
C1057 C 0.85198 0.46105 0.57635 0.0
C1058 C 0.88874 0.46471 0.55486 0.0
C1059 C 0.87545 0.47808 0.53963 0.0
C1060 C 0.85044 0.48325 0.54304 0.0
C1061 C 0.83906 0.47477 0.56133 0.0
C1062 C 0.91552 0.45907 0.55198 0.0
C1063 C 0.8356 0.49755 0.52727 0.0
C1064 C 0.9122 0.51671 0.50138 0.0
C1065 C 0.91197 0.5022 0.48326 0.0
C1066 C 0.89998 0.50935 0.51958 0.0
C1067 C 0.88777 0.48651 0.5201 0.0
C1068 C 0.88779 0.47151 0.50211 0.0
C1069 C 0.89966 0.4796 0.48389 0.0
C1070 C 0.9 0.52617 0.53823 0.0
C1071 C 0.87522 0.44687 0.50213 0.0
H1072 H 0.88704 0.44546 0.58416 0.0
H1073 H 0.81995 0.47895 0.56385 0.0
H1074 H 0.91846 0.4501 0.5367 0.0
H1075 H 0.92623 0.47635 0.55195 0.0
H1076 H 0.92282 0.447 0.56451 0.0
H1077 H 0.81677 0.50131 0.53281 0.0
H1078 H 0.84475 0.51521 0.5237 0.0
H1079 H 0.83433 0.48715 0.51246 0.0
H1080 H 0.92207 0.53392 0.50146 0.0
H1081 H 0.89891 0.46832 0.47004 0.0
H1082 H 0.90808 0.51676 0.55198 0.0
H1083 H 0.88093 0.53102 0.54231 0.0
H1084 H 0.91041 0.54333 0.53534 0.0
H1085 H 0.88269 0.43531 0.51491 0.0
H1086 H 0.87748 0.43705 0.48712 0.0
H1087 H 0.8554 0.4492 0.5051 0.0
C1088 C 0.09279 0.07863 0.51617 0.0
C1089 C 0.09469 0.09006 0.53562 0.0
C1090 C 0.08525 0.09182 0.49838 0.0
C1091 C 0.08008 0.11713 0.50009 0.0
C1092 C 0.08289 0.12887 0.51965 0.0
C1093 C 0.08984 0.1151 0.53725 0.0
C1094 C 0.08222 0.07856 0.47791 0.0
C1095 C 0.07801 0.15587 0.52208 0.0
C1096 C 0.07532 0.15596 0.45053 0.0
C1097 C 0.0499 0.15796 0.44818 0.0
C1098 C 0.08552 0.1428 0.4674 0.0
C1099 C 0.06988 0.13094 0.48189 0.0
C1100 C 0.04421 0.13258 0.47925 0.0
C1101 C 0.03459 0.14612 0.46252 0.0
C1102 C 0.11296 0.14186 0.46986 0.0
C1103 C 0.02681 0.11985 0.49399 0.0
H1104 H 0.09657 0.05923 0.51501 0.0
H1105 H 0.09148 0.12388 0.55235 0.0
H1106 H 0.06315 0.08052 0.47213 0.0
H1107 H 0.0944 0.08682 0.46602 0.0
H1108 H 0.0865 0.05877 0.47929 0.0
H1109 H 0.08308 0.16262 0.53786 0.0
H1110 H 0.08843 0.16646 0.51027 0.0
H1111 H 0.05831 0.15956 0.51936 0.0
H1112 H 0.08718 0.1652 0.43951 0.0
H1113 H 0.01492 0.14736 0.46056 0.0
H1114 H 0.11937 0.12288 0.46735 0.0
H1115 H 0.11838 0.14714 0.48595 0.0
H1116 H 0.12245 0.15411 0.45863 0.0
H1117 H 0.02882 0.09975 0.49239 0.0
H1118 H 0.00742 0.12471 0.49083 0.0
H1119 H 0.03121 0.12456 0.51041 0.0
C1120 C 0.68846 0.89946 0.50702 0.0
C1121 C 0.69668 0.90665 0.48716 0.0
C1122 C 0.7006 0.90698 0.52527 0.0
C1123 C 0.72114 0.92268 0.52379 0.0
C1124 C 0.72958 0.93009 0.50388 0.0
C1125 C 0.7174 0.92184 0.48583 0.0
C1126 C 0.69132 0.89823 0.54617 0.0
C1127 C 0.75158 0.94665 0.50165 0.0
C1128 C 0.73487 0.96322 0.57049 0.0
C1129 C 0.75465 0.95116 0.57978 0.0
C1130 C 0.72394 0.95418 0.5522 0.0
C1131 C 0.73292 0.93241 0.54312 0.0
C1132 C 0.75295 0.92011 0.55256 0.0
C1133 C 0.76369 0.92975 0.57078 0.0
C1134 C 0.70295 0.96808 0.54245 0.0
C1135 C 0.76282 0.89665 0.54363 0.0
H1136 H 0.67228 0.88808 0.50841 0.0
H1137 H 0.72435 0.92708 0.47065 0.0
H1138 H 0.70613 0.88855 0.5547 0.0
H1139 H 0.68588 0.9141 0.55581 0.0
H1140 H 0.67539 0.88567 0.54463 0.0
H1141 H 0.75492 0.95199 0.48517 0.0
H1142 H 0.74911 0.96349 0.51102 0.0
H1143 H 0.76808 0.93722 0.50777 0.0
H1144 H 0.72824 0.98001 0.57738 0.0
H1145 H 0.77917 0.92063 0.57799 0.0
H1146 H 0.68645 0.95624 0.54173 0.0
H1147 H 0.70759 0.97332 0.52619 0.0
H1148 H 0.69841 0.98491 0.55127 0.0
H1149 H 0.74964 0.8816 0.54668 0.0
H1150 H 0.78072 0.89161 0.5507 0.0
H1151 H 0.76502 0.89813 0.52648 0.0
C1152 C 0.85269 0.24613 0.26716 0.0
C1153 C 0.85916 0.25891 0.28535 0.0
C1154 C 0.82949 0.24892 0.2579 0.0
C1155 C 0.81204 0.26454 0.2672 0.0
C1156 C 0.81883 0.2785 0.28487 0.0
C1157 C 0.84231 0.27569 0.29358 0.0
C1158 C 0.82328 0.23434 0.23859 0.0
C1159 C 0.80103 0.29546 0.29538 0.0
C1160 C 0.75489 0.27621 0.23453 0.0
C1161 C 0.73938 0.25699 0.24105 0.0
C1162 C 0.77824 0.27961 0.24339 0.0
C1163 C 0.78613 0.26398 0.25967 0.0
C1164 C 0.76971 0.24637 0.26781 0.0
C1165 C 0.74688 0.24262 0.25814 0.0
C1166 C 0.79463 0.29966 0.23513 0.0
C1167 C 0.77609 0.23169 0.287 0.0
H1168 H 0.86529 0.23303 0.26061 0.0
H1169 H 0.84718 0.28631 0.30723 0.0
H1170 H 0.80747 0.22211 0.24168 0.0
H1171 H 0.81779 0.24692 0.22578 0.0
H1172 H 0.83886 0.22306 0.23319 0.0
H1173 H 0.81072 0.31001 0.30427 0.0
H1174 H 0.78844 0.3042 0.28398 0.0
H1175 H 0.78981 0.2848 0.30657 0.0
H1176 H 0.74905 0.28848 0.2222 0.0
H1177 H 0.73532 0.2279 0.26371 0.0
H1178 H 0.81063 0.29145 0.22726 0.0
H1179 H 0.80175 0.31097 0.24818 0.0
H1180 H 0.785 0.31177 0.22384 0.0
H1181 H 0.79519 0.22513 0.28642 0.0
H1182 H 0.76351 0.216 0.28923 0.0
H1183 H 0.77463 0.24362 0.30089 0.0
C1184 C 0.59049 0.75698 0.27606 0.0
C1185 C 0.60495 0.75418 0.29405 0.0
C1186 C 0.58897 0.7383 0.26103 0.0
C1187 C 0.60236 0.71639 0.264 0.0
C1188 C 0.61682 0.71343 0.28222 0.0
C1189 C 0.61795 0.73231 0.29696 0.0
C1190 C 0.573 0.74197 0.24201 0.0
C1191 C 0.6316 0.69052 0.28593 0.0
C1192 C 0.58793 0.65808 0.23378 0.0
C1193 C 0.60584 0.65869 0.21818 0.0
C1194 C 0.58605 0.67707 0.24844 0.0
C1195 C 0.60259 0.69707 0.24759 0.0
C1196 C 0.62049 0.69791 0.23173 0.0
C1197 C 0.6219 0.67876 0.21725 0.0
C1198 C 0.56657 0.67558 0.265 0.0
C1199 C 0.63854 0.71883 0.23031 0.0
H1200 H 0.58018 0.77369 0.27385 0.0
H1201 H 0.62946 0.73012 0.31066 0.0
H1202 H 0.58378 0.73926 0.22759 0.0
H1203 H 0.55809 0.72814 0.24194 0.0
H1204 H 0.5647 0.76049 0.2415 0.0
H1205 H 0.64077 0.69046 0.30145 0.0
H1206 H 0.61968 0.6741 0.28482 0.0
H1207 H 0.64579 0.68888 0.27371 0.0
H1208 H 0.57526 0.64281 0.23444 0.0
H1209 H 0.63601 0.67925 0.20545 0.0
H1210 H 0.55512 0.69228 0.26453 0.0
H1211 H 0.57524 0.67471 0.28068 0.0
H1212 H 0.55453 0.65933 0.26303 0.0
H1213 H 0.62864 0.73645 0.22897 0.0
H1214 H 0.65096 0.71707 0.21674 0.0
H1215 H 0.64978 0.71962 0.24477 0.0
C1216 C 0.83612 0.15829 0.21647 0.0
C1217 C 0.85686 0.14735 0.22541 0.0
C1218 C 0.81291 0.15532 0.22533 0.0
C1219 C 0.81021 0.14082 0.24353 0.0
C1220 C 0.83085 0.12853 0.25195 0.0
C1221 C 0.85404 0.13226 0.24298 0.0
C1222 C 0.79143 0.16853 0.21566 0.0
C1223 C 0.82842 0.11164 0.27051 0.0
C1224 C 0.76029 0.16179 0.28005 0.0
C1225 C 0.74004 0.14841 0.27301 0.0
C1226 C 0.78341 0.15875 0.2711 0.0
C1227 C 0.78655 0.14133 0.25505 0.0
C1228 C 0.76647 0.12637 0.24898 0.0
C1229 C 0.74324 0.13052 0.25769 0.0
C1230 C 0.80422 0.17486 0.27841 0.0
C1231 C 0.76925 0.10611 0.23328 0.0
H1232 H 0.83818 0.17001 0.2029 0.0
H1233 H 0.86995 0.12336 0.24967 0.0
H1234 H 0.77683 0.15523 0.21154 0.0
H1235 H 0.78366 0.18155 0.22709 0.0
H1236 H 0.79654 0.17881 0.20134 0.0
H1237 H 0.84628 0.10387 0.27548 0.0
H1238 H 0.82032 0.12141 0.28393 0.0
H1239 H 0.8158 0.0964 0.26648 0.0
H1240 H 0.75787 0.17488 0.29249 0.0
H1241 H 0.7277 0.11953 0.25278 0.0
H1242 H 0.80761 0.18921 0.26649 0.0
H1243 H 0.82141 0.16445 0.28032 0.0
H1244 H 0.80013 0.18364 0.29357 0.0
H1245 H 0.76453 0.11315 0.21752 0.0
H1246 H 0.75655 0.09075 0.23681 0.0
H1247 H 0.7882 0.09893 0.23293 0.0
C1248 C 0.02781 0.74929 0.22768 0.0
C1249 C 0.00456 0.75704 0.22103 0.0
C1250 C 0.03051 0.72964 0.24182 0.0
C1251 C 0.00945 0.71763 0.24971 0.0
C1252 C 0.98597 0.72572 0.24332 0.0
C1253 C 0.98384 0.74516 0.22903 0.0
C1254 C 0.05587 0.72143 0.24796 0.0
C1255 C 0.963 0.71398 0.25175 0.0
C1256 C 0.00912 0.65278 0.27188 0.0
C1257 C 0.0085 0.65703 0.29349 0.0
C1258 C 0.01094 0.67225 0.2575 0.0
C1259 C 0.01158 0.69671 0.26477 0.0
C1260 C 0.01194 0.70112 0.28652 0.0
C1261 C 0.01079 0.6813 0.30054 0.0
C1262 C 0.01126 0.66669 0.23446 0.0
C1263 C 0.01273 0.72685 0.29502 0.0
H1264 H 0.04393 0.75828 0.22149 0.0
H1265 H 0.96581 0.75133 0.22433 0.0
H1266 H 0.05784 0.72098 0.26519 0.0
H1267 H 0.05893 0.70255 0.24227 0.0
H1268 H 0.07032 0.73355 0.24144 0.0
H1269 H 0.94613 0.72249 0.24531 0.0
H1270 H 0.96272 0.6942 0.24794 0.0
H1271 H 0.96272 0.71556 0.26901 0.0
H1272 H 0.00728 0.63429 0.26606 0.0
H1273 H 0.01126 0.68497 0.31714 0.0
H1274 H 0.02683 0.67626 0.22691 0.0
H1275 H 0.99423 0.67353 0.22701 0.0
H1276 H 0.01279 0.64678 0.23134 0.0
H1277 H 0.02982 0.7361 0.29003 0.0
H1278 H 0.01188 0.72724 0.31234 0.0
H1279 H 0.99721 0.73762 0.28865 0.0
C1280 C 0.24596 0.99838 0.74363 0.0
C1281 C 0.25141 0.99554 0.72236 0.0
C1282 C 0.26436 0.99683 0.75906 0.0
C1283 C 0.28897 0.99291 0.75316 0.0
C1284 C 0.29447 0.98902 0.73188 0.0
C1285 C 0.27567 0.99004 0.71685 0.0
C1286 C 0.25757 1.00045 0.78163 0.0
C1287 C 0.32038 0.98441 0.72491 0.0
C1288 C 0.33962 0.01939 0.78751 0.0
C1289 C 0.34739 0.99883 0.79878 0.0
C1290 C 0.32049 0.01769 0.77282 0.0
C1291 C 0.30919 0.99474 0.76895 0.0
C1292 C 0.31739 0.97378 0.78003 0.0
C1293 C 0.33612 0.97617 0.79508 0.0
C1294 C 0.31223 0.04053 0.76155 0.0
C1295 C 0.30619 0.94891 0.77621 0.0
H1296 H 0.22747 1.00275 0.74826 0.0
H1297 H 0.28015 0.98688 0.70065 0.0
H1298 H 0.26576 0.98589 0.79151 0.0
H1299 H 0.265 0.01822 0.78715 0.0
H1300 H 0.23745 1.00034 0.78394 0.0
H1301 H 0.32167 0.98173 0.70777 0.0
H1302 H 0.33227 1.00006 0.72936 0.0
H1303 H 0.32771 0.96793 0.73288 0.0
H1304 H 0.34815 0.03696 0.79059 0.0
H1305 H 0.34209 0.9603 0.80392 0.0
H1306 H 0.29253 0.04374 0.76453 0.0
H1307 H 0.31441 0.0382 0.74447 0.0
H1308 H 0.3227 0.057 0.76649 0.0
H1309 H 0.2872 0.9486 0.78221 0.0
H1310 H 0.31667 0.93408 0.78404 0.0
H1311 H 0.30523 0.945 0.75925 0.0
C1312 C 0.87372 0.16951 0.72485 0.0
C1313 C 0.85687 0.15223 0.73267 0.0
C1314 C 0.8766 0.19262 0.73405 0.0
C1315 C 0.86319 0.19835 0.75215 0.0
C1316 C 0.84835 0.18013 0.76154 0.0
C1317 C 0.84484 0.15758 0.75144 0.0
C1318 C 0.89412 0.2108 0.72445 0.0
C1319 C 0.83598 0.18453 0.78223 0.0
C1320 C 0.87565 0.25387 0.78612 0.0
C1321 C 0.85691 0.26991 0.77978 0.0
C1322 C 0.8785 0.23082 0.77687 0.0
C1323 C 0.8628 0.22383 0.76033 0.0
C1324 C 0.84542 0.24078 0.75249 0.0
C1325 C 0.84236 0.26335 0.76254 0.0
C1326 C 0.89851 0.2141 0.78468 0.0
C1327 C 0.83042 0.23564 0.7331 0.0
H1328 H 0.88449 0.16524 0.71122 0.0
H1329 H 0.83201 0.14459 0.75801 0.0
H1330 H 0.88561 0.22911 0.72297 0.0
H1331 H 0.91038 0.21273 0.73474 0.0
H1332 H 0.9004 0.20493 0.70879 0.0
H1333 H 0.8226 0.16995 0.78616 0.0
H1334 H 0.84999 0.18499 0.7948 0.0
H1335 H 0.8266 0.20248 0.78236 0.0
H1336 H 0.88803 0.25913 0.79858 0.0
H1337 H 0.82805 0.27548 0.7571 0.0
H1338 H 0.91271 0.21242 0.77249 0.0
H1339 H 0.89131 0.19547 0.78779 0.0
H1340 H 0.90733 0.22108 0.79915 0.0
H1341 H 0.84125 0.24111 0.71925 0.0
H1342 H 0.81317 0.24633 0.73285 0.0
H1343 H 0.82601 0.21598 0.73134 0.0
C1344 C 0.25118 0.40909 0.7694 0.0
C1345 C 0.25403 0.39653 0.78839 0.0
C1346 C 0.26998 0.40949 0.75445 0.0
C1347 C 0.29205 0.39667 0.75838 0.0
C1348 C 0.29522 0.38446 0.77773 0.0
C1349 C 0.27626 0.38457 0.79245 0.0
C1350 C 0.26593 0.42312 0.73423 0.0
C1351 C 0.3184 0.3706 0.78264 0.0
C1352 C 0.32699 0.37115 0.71212 0.0
C1353 C 0.34695 0.38729 0.71041 0.0
C1354 C 0.30901 0.37425 0.72744 0.0
C1355 C 0.31084 0.39399 0.74162 0.0
C1356 C 0.33095 0.41036 0.74011 0.0
C1357 C 0.34879 0.4068 0.72457 0.0
C1358 C 0.28811 0.35615 0.72859 0.0
C1359 C 0.33344 0.43184 0.7547 0.0
H1360 H 0.23423 0.41866 0.76624 0.0
H1361 H 0.27861 0.37459 0.80697 0.0
H1362 H 0.28209 0.43461 0.73046 0.0
H1363 H 0.2635 0.40982 0.72134 0.0
H1364 H 0.2495 0.435 0.73479 0.0
H1365 H 0.31835 0.3627 0.79864 0.0
H1366 H 0.32073 0.35553 0.77128 0.0
H1367 H 0.33448 0.3829 0.78113 0.0
H1368 H 0.32556 0.35575 0.70159 0.0
H1369 H 0.36395 0.41953 0.72328 0.0
H1370 H 0.27041 0.36582 0.72688 0.0
H1371 H 0.2881 0.34701 0.74408 0.0
H1372 H 0.2892 0.34189 0.71632 0.0
H1373 H 0.31816 0.44477 0.7519 0.0
H1374 H 0.351 0.44182 0.75257 0.0
H1375 H 0.3322 0.42567 0.77118 0.0
C1376 C 0.7232 0.15872 0.77592 0.0
C1377 C 0.74702 0.14913 0.77762 0.0
C1378 C 0.71898 0.18221 0.7675 0.0
C1379 C 0.73894 0.19626 0.76013 0.0
C1380 C 0.76278 0.18645 0.76127 0.0
C1381 C 0.76658 0.16335 0.77025 0.0
C1382 C 0.69314 0.19168 0.76613 0.0
C1383 C 0.78452 0.20047 0.75318 0.0
C1384 C 0.73555 0.24641 0.71932 0.0
C1385 C 0.73995 0.26747 0.7313 0.0
C1386 C 0.73316 0.22329 0.72869 0.0
C1387 C 0.73544 0.221 0.75062 0.0
C1388 C 0.73858 0.2423 0.76291 0.0
C1389 C 0.74085 0.26527 0.75311 0.0
C1390 C 0.73013 0.20106 0.71498 0.0
C1391 C 0.74051 0.24067 0.78636 0.0
H1392 H 0.70772 0.14788 0.78104 0.0
H1393 H 0.78509 0.15665 0.77172 0.0
H1394 H 0.69228 0.21113 0.77096 0.0
H1395 H 0.6867 0.19068 0.74971 0.0
H1396 H 0.6804 0.18082 0.77596 0.0
H1397 H 0.80023 0.1882 0.75052 0.0
H1398 H 0.78035 0.20974 0.73818 0.0
H1399 H 0.78976 0.21475 0.76464 0.0
H1400 H 0.73514 0.24776 0.70244 0.0
H1401 H 0.74375 0.28147 0.76252 0.0
H1402 H 0.71508 0.18928 0.72083 0.0
H1403 H 0.74714 0.19006 0.71548 0.0
H1404 H 0.72621 0.20605 0.69848 0.0
H1405 H 0.72446 0.23067 0.79269 0.0
H1406 H 0.74154 0.25898 0.79378 0.0
H1407 H 0.75709 0.23017 0.7908 0.0
loop_
_geom_bond_atom_site_label_1
_geom_bond_atom_site_label_2
_geom_bond_distance
_geom_bond_site_symmetry_2
_ccdc_geom_bond_type
C0 C1 1.264 . S
C0 C5 1.479 . S
C0 C10 1.465 . S
C1 C0 1.264 . S
C1 C3 1.339 . S
C1 H28 0.931 . S
C2 C3 1.395 . S
C2 C4 1.320 . S
C3 C1 1.339 . S
C3 C2 1.395 . S
C3 H29 0.929 . S
C4 C2 1.320 . S
C4 C5 1.405 . S
C4 H30 0.930 . S
C5 C0 1.479 . S
C5 C4 1.405 . S
C5 H31 0.931 . S
U6 O7 2.454 . S
U6 O8 2.458 . S
U6 C9 2.984 . S
U6 C10 2.847 . S
U6 C23 2.882 . S
U6 O24 2.441 . S
U6 O25 2.420 . S
U6 O26 2.455 . S
U6 O27 2.449 . S
O7 U6 2.454 . S
O7 C9 1.353 . S
O8 U6 2.458 . S
O8 C9 1.286 . S
C9 U6 2.984 . S
C9 O7 1.353 . S
C9 O8 1.286 . S
C9 C11 1.363 . S
C10 C0 1.465 . S
C10 U6 2.847 . S
C10 O24 1.249 . S
C10 O25 1.202 . S
C11 C9 1.363 . S
C11 C13 1.408 . S
C11 C16 1.342 . S
C12 C13 1.310 . S
C12 C15 1.461 . S
C12 H32 0.932 . S
C13 C11 1.408 . S
C13 C12 1.310 . S
C13 H33 0.930 . S
C14 C15 1.474 . S
C14 C16 1.285 . S
C14 H34 0.929 . S
C15 C12 1.461 . S
C15 C14 1.474 . S
C16 C11 1.342 . S
C16 C14 1.285 . S
C16 H35 0.930 . S
C17 C20 1.424 . S
C17 C22 1.245 . S
C17 C23 1.428 . S
C18 C21 1.260 . S
C18 C22 1.477 . S
C18 H36 0.932 . S
C19 C20 1.384 . S
C19 C21 1.479 . S
C19 H37 0.929 . S
C20 C17 1.424 . S
C20 C19 1.384 . S
C20 H38 0.928 . S
C21 C18 1.260 . S
C21 C19 1.479 . S
C22 C17 1.245 . S
C22 C18 1.477 . S
C22 H39 0.932 . S
C23 U6 2.882 . S
C23 C17 1.428 . S
C23 O26 1.301 . S
C23 O27 1.282 . S
O24 U6 2.441 . S
O24 C10 1.249 . S
O25 U6 2.420 . S
O25 C10 1.202 . S
O26 U6 2.455 . S
O26 C23 1.301 . S
O27 U6 2.449 . S
O27 C23 1.282 . S
H28 C1 0.931 . S
H29 C3 0.929 . S
H30 C4 0.930 . S
H31 C5 0.931 . S
H32 C12 0.932 . S
H33 C13 0.930 . S
H34 C14 0.929 . S
H35 C16 0.930 . S
H36 C18 0.932 . S
H37 C19 0.929 . S
H38 C20 0.928 . S
H39 C22 0.932 . S
C40 C41 1.264 . S
C40 C45 1.479 . S
C40 C50 1.465 . S
C41 C40 1.264 . S
C41 C43 1.339 . S
C41 H68 0.931 . S
C42 C43 1.395 . S
C42 C44 1.320 . S
C43 C41 1.339 . S
C43 C42 1.395 . S
C43 H69 0.929 . S
C44 C42 1.320 . S
C44 C45 1.405 . S
C44 H70 0.930 . S
C45 C40 1.479 . S
C45 C44 1.405 . S
C45 H71 0.931 . S
U46 O47 2.454 . S
U46 O48 2.458 . S
U46 C49 2.984 . S
U46 C50 2.847 . S
U46 C63 2.882 . S
U46 O64 2.441 . S
U46 O65 2.420 . S
U46 O66 2.455 . S
U46 O67 2.449 . S
O47 U46 2.454 . S
O47 C49 1.353 . S
O48 U46 2.458 . S
O48 C49 1.286 . S
C49 U46 2.984 . S
C49 O47 1.353 . S
C49 O48 1.286 . S
C49 C51 1.363 . S
C50 C40 1.465 . S
C50 U46 2.847 . S
C50 O64 1.249 . S
C50 O65 1.202 . S
C51 C49 1.363 . S
C51 C53 1.408 . S
C51 C56 1.342 . S
C52 C53 1.310 . S
C52 C55 1.461 . S
C52 H72 0.932 . S
C53 C51 1.408 . S
C53 C52 1.310 . S
C53 H73 0.930 . S
C54 C55 1.474 . S
C54 C56 1.285 . S
C54 H74 0.929 . S
C55 C52 1.461 . S
C55 C54 1.474 . S
C56 C51 1.342 . S
C56 C54 1.285 . S
C56 H75 0.930 . S
C57 C60 1.424 . S
C57 C62 1.245 . S
C57 C63 1.428 . S
C58 C61 1.260 . S
C58 C62 1.477 . S
C58 H76 0.932 . S
C59 C60 1.384 . S
C59 C61 1.479 . S
C59 H77 0.929 . S
C60 C57 1.424 . S
C60 C59 1.384 . S
C60 H78 0.928 . S
C61 C58 1.260 . S
C61 C59 1.479 . S
C62 C57 1.245 . S
C62 C58 1.477 . S
C62 H79 0.932 . S
C63 U46 2.882 . S
C63 C57 1.428 . S
C63 O66 1.301 . S
C63 O67 1.282 . S
O64 U46 2.441 . S
O64 C50 1.249 . S
O65 U46 2.420 . S
O65 C50 1.202 . S
O66 U46 2.455 . S
O66 C63 1.301 . S
O67 U46 2.449 . S
O67 C63 1.282 . S
H68 C41 0.931 . S
H69 C43 0.929 . S
H70 C44 0.930 . S
H71 C45 0.931 . S
H72 C52 0.932 . S
H73 C53 0.930 . S
H74 C54 0.929 . S
H75 C56 0.930 . S
H76 C58 0.932 . S
H77 C59 0.929 . S
H78 C60 0.928 . S
H79 C62 0.932 . S
C80 C81 1.264 . S
C80 C85 1.479 . S
C80 C90 1.465 . S
C81 C80 1.264 . S
C81 C83 1.339 . S
C81 H108 0.931 . S
C82 C83 1.395 . S
C82 C84 1.320 . S
C83 C81 1.339 . S
C83 C82 1.395 . S
C83 H109 0.929 . S
C84 C82 1.320 . S
C84 C85 1.405 . S
C84 H110 0.930 . S
C85 C80 1.479 . S
C85 C84 1.405 . S
C85 H111 0.931 . S
U86 O87 2.454 . S
U86 O88 2.458 . S
U86 C89 2.984 . S
U86 C90 2.847 1_455 S
U86 C103 2.882 . S
U86 O104 2.441 1_455 S
U86 O105 2.420 1_455 S
U86 O106 2.455 . S
U86 O107 2.449 . S
O87 U86 2.454 . S
O87 C89 1.353 . S
O88 U86 2.458 . S
O88 C89 1.286 . S
C89 U86 2.984 . S
C89 O87 1.353 . S
C89 O88 1.286 . S
C89 C91 1.363 . S
C90 C80 1.465 . S
C90 U86 2.847 1_655 S
C90 O104 1.249 . S
C90 O105 1.202 . S
C91 C89 1.363 . S
C91 C93 1.408 . S
C91 C96 1.342 . S
C92 C93 1.310 . S
C92 C95 1.461 . S
C92 H112 0.932 . S
C93 C91 1.408 . S
C93 C92 1.310 . S
C93 H113 0.930 . S
C94 C95 1.474 . S
C94 C96 1.285 . S
C94 H114 0.929 . S
C95 C92 1.461 . S
C95 C94 1.474 . S
C96 C91 1.342 . S
C96 C94 1.285 . S
C96 H115 0.930 . S
C97 C100 1.424 . S
C97 C102 1.245 . S
C97 C103 1.428 . S
C98 C101 1.260 . S
C98 C102 1.477 . S
C98 H116 0.932 . S
C99 C100 1.384 . S
C99 C101 1.479 . S
C99 H117 0.929 . S
C100 C97 1.424 . S
C100 C99 1.384 . S
C100 H118 0.928 . S
C101 C98 1.260 . S
C101 C99 1.479 . S
C102 C97 1.245 . S
C102 C98 1.477 . S
C102 H119 0.932 . S
C103 U86 2.882 . S
C103 C97 1.428 . S
C103 O106 1.301 . S
C103 O107 1.282 . S
O104 U86 2.441 1_655 S
O104 C90 1.249 . S
O105 U86 2.420 1_655 S
O105 C90 1.202 . S
O106 U86 2.455 . S
O106 C103 1.301 . S
O107 U86 2.449 . S
O107 C103 1.282 . S
H108 C81 0.931 . S
H109 C83 0.929 . S
H110 C84 0.930 . S
H111 C85 0.931 . S
H112 C92 0.932 . S
H113 C93 0.930 . S
H114 C94 0.929 . S
H115 C96 0.930 . S
H116 C98 0.932 . S
H117 C99 0.929 . S
H118 C100 0.928 . S
H119 C102 0.932 . S
C120 C121 1.264 . S
C120 C125 1.479 . S
C120 C130 1.465 . S
C121 C120 1.264 . S
C121 C123 1.339 . S
C121 H148 0.931 . S
C122 C123 1.395 . S
C122 C124 1.320 . S
C123 C121 1.339 . S
C123 C122 1.395 . S
C123 H149 0.929 . S
C124 C122 1.320 . S
C124 C125 1.405 . S
C124 H150 0.930 . S
C125 C120 1.479 . S
C125 C124 1.405 . S
C125 H151 0.931 . S
U126 O127 2.454 . S
U126 O128 2.458 1_655 S
U126 C129 2.985 1_655 S
U126 C130 2.847 . S
U126 C143 2.882 . S
U126 O144 2.441 . S
U126 O145 2.420 . S
U126 O146 2.455 . S
U126 O147 2.449 . S
O127 U126 2.454 . S
O127 C129 1.354 1_655 S
O128 U126 2.458 1_455 S
O128 C129 1.286 . S
C129 U126 2.985 1_455 S
C129 O127 1.354 1_455 S
C129 O128 1.286 . S
C129 C131 1.363 . S
C130 C120 1.465 . S
C130 U126 2.847 . S
C130 O144 1.249 . S
C130 O145 1.202 . S
C131 C129 1.363 . S
C131 C133 1.408 . S
C131 C136 1.342 . S
C132 C133 1.310 . S
C132 C135 1.461 . S
C132 H152 0.932 . S
C133 C131 1.408 . S
C133 C132 1.310 . S
C133 H153 0.930 1_455 S
C134 C135 1.474 . S
C134 C136 1.285 . S
C134 H154 0.929 . S
C135 C132 1.461 . S
C135 C134 1.474 . S
C136 C131 1.342 . S
C136 C134 1.285 . S
C136 H155 0.930 . S
C137 C140 1.424 . S
C137 C142 1.245 . S
C137 C143 1.428 1_455 S
C138 C141 1.260 . S
C138 C142 1.477 . S
C138 H156 0.932 . S
C139 C140 1.384 . S
C139 C141 1.479 . S
C139 H157 0.929 1_565 S
C140 C137 1.424 . S
C140 C139 1.384 . S
C140 H158 0.926 1_455 S
C141 C138 1.260 . S
C141 C139 1.479 . S
C142 C137 1.245 . S
C142 C138 1.477 . S
C142 H159 0.932 . S
C143 U126 2.882 . S
C143 C137 1.428 1_655 S
C143 O146 1.301 . S
C143 O147 1.282 . S
O144 U126 2.441 . S
O144 C130 1.249 . S
O145 U126 2.420 . S
O145 C130 1.202 . S
O146 U126 2.455 . S
O146 C143 1.301 . S
O147 U126 2.449 . S
O147 C143 1.282 . S
H148 C121 0.931 . S
H149 C123 0.929 . S
H150 C124 0.930 . S
H151 C125 0.931 . S
H152 C132 0.932 . S
H153 C133 0.930 1_655 S
H154 C134 0.929 . S
H155 C136 0.930 . S
H156 C138 0.932 . S
H157 C139 0.929 1_545 S
H158 C140 0.926 1_655 S
H159 C142 0.932 . S
C160 C161 1.264 . S
C160 C165 1.479 . S
C160 C170 1.465 . S
C161 C160 1.264 . S
C161 C163 1.339 . S
C161 H188 0.931 . S
C162 C163 1.395 . S
C162 C164 1.320 . S
C163 C161 1.339 . S
C163 C162 1.395 . S
C163 H189 0.929 . S
C164 C162 1.320 . S
C164 C165 1.405 . S
C164 H190 0.930 . S
C165 C160 1.479 . S
C165 C164 1.405 . S
C165 H191 0.931 . S
U166 O167 2.454 . S
U166 O168 2.458 . S
U166 C169 2.984 . S
U166 C170 2.847 . S
U166 C183 2.882 . S
U166 O184 2.441 . S
U166 O185 2.420 . S
U166 O186 2.455 . S
U166 O187 2.449 . S
O167 U166 2.454 . S
O167 C169 1.353 . S
O168 U166 2.458 . S
O168 C169 1.286 . S
C169 U166 2.984 . S
C169 O167 1.353 . S
C169 O168 1.286 . S
C169 C171 1.363 . S
C170 C160 1.465 . S
C170 U166 2.847 . S
C170 O184 1.249 . S
C170 O185 1.202 . S
C171 C169 1.363 . S
C171 C173 1.408 . S
C171 C176 1.342 . S
C172 C173 1.310 . S
C172 C175 1.461 . S
C172 H192 0.932 . S
C173 C171 1.408 . S
C173 C172 1.310 . S
C173 H193 0.930 . S
C174 C175 1.474 . S
C174 C176 1.285 . S
C174 H194 0.929 . S
C175 C172 1.461 . S
C175 C174 1.474 . S
C176 C171 1.342 . S
C176 C174 1.285 . S
C176 H195 0.930 . S
C177 C180 1.424 . S
C177 C182 1.245 . S
C177 C183 1.428 . S
C178 C181 1.260 . S
C178 C182 1.477 . S
C178 H196 0.932 . S
C179 C180 1.384 . S
C179 C181 1.479 . S
C179 H197 0.929 . S
C180 C177 1.424 . S
C180 C179 1.384 . S
C180 H198 0.928 . S
C181 C178 1.260 . S
C181 C179 1.479 . S
C182 C177 1.245 . S
C182 C178 1.477 . S
C182 H199 0.932 . S
C183 U166 2.882 . S
C183 C177 1.428 . S
C183 O186 1.301 . S
C183 O187 1.282 . S
O184 U166 2.441 . S
O184 C170 1.249 . S
O185 U166 2.420 . S
O185 C170 1.202 . S
O186 U166 2.455 . S
O186 C183 1.301 . S
O187 U166 2.449 . S
O187 C183 1.282 . S
H188 C161 0.931 . S
H189 C163 0.929 . S
H190 C164 0.930 . S
H191 C165 0.931 . S
H192 C172 0.932 . S
H193 C173 0.930 . S
H194 C174 0.929 . S
H195 C176 0.930 . S
H196 C178 0.932 . S
H197 C179 0.929 . S
H198 C180 0.928 . S
H199 C182 0.932 . S
C200 C201 1.264 . S
C200 C205 1.479 . S
C200 C210 1.465 . S
C201 C200 1.264 . S
C201 C203 1.339 . S
C201 H228 0.931 . S
C202 C203 1.395 . S
C202 C204 1.320 . S
C203 C201 1.339 . S
C203 C202 1.395 . S
C203 H229 0.929 . S
C204 C202 1.320 . S
C204 C205 1.405 . S
C204 H230 0.930 . S
C205 C200 1.479 . S
C205 C204 1.405 . S
C205 H231 0.931 . S
U206 O207 2.454 . S
U206 O208 2.458 1_655 S
U206 C209 2.986 1_655 S
U206 C210 2.847 . S
U206 C223 2.882 . S
U206 O224 2.441 . S
U206 O225 2.420 . S
U206 O226 2.455 . S
U206 O227 2.449 . S
O207 U206 2.454 . S
O207 C209 1.355 1_655 S
O208 U206 2.458 1_455 S
O208 C209 1.285 . S
C209 U206 2.986 1_455 S
C209 O207 1.355 1_455 S
C209 O208 1.285 . S
C209 C211 1.362 . S
C210 C200 1.465 . S
C210 U206 2.847 . S
C210 O224 1.249 . S
C210 O225 1.202 . S
C211 C209 1.362 . S
C211 C213 1.408 . S
C211 C216 1.342 . S
C212 C213 1.310 . S
C212 C215 1.461 . S
C212 H232 0.932 . S
C213 C211 1.408 . S
C213 C212 1.310 . S
C213 H233 0.930 1_455 S
C214 C215 1.474 . S
C214 C216 1.285 . S
C214 H234 0.929 . S
C215 C212 1.461 . S
C215 C214 1.474 . S
C216 C211 1.342 . S
C216 C214 1.285 . S
C216 H235 0.930 . S
C217 C220 1.424 . S
C217 C222 1.245 . S
C217 C223 1.428 1_455 S
C218 C221 1.260 . S
C218 C222 1.477 . S
C218 H236 0.932 . S
C219 C220 1.384 . S
C219 C221 1.479 . S
C219 H237 0.929 . S
C220 C217 1.424 . S
C220 C219 1.384 . S
C220 H238 0.923 1_455 S
C221 C218 1.260 . S
C221 C219 1.479 . S
C222 C217 1.245 . S
C222 C218 1.477 . S
C222 H239 0.932 . S
C223 U206 2.882 . S
C223 C217 1.428 1_655 S
C223 O226 1.301 . S
C223 O227 1.282 . S
O224 U206 2.441 . S
O224 C210 1.249 . S
O225 U206 2.420 . S
O225 C210 1.202 . S
O226 U206 2.455 . S
O226 C223 1.301 . S
O227 U206 2.449 . S
O227 C223 1.282 . S
H228 C201 0.931 . S
H229 C203 0.929 . S
H230 C204 0.930 . S
H231 C205 0.931 . S
H232 C212 0.932 . S
H233 C213 0.930 1_655 S
H234 C214 0.929 . S
H235 C216 0.930 . S
H236 C218 0.932 . S
H237 C219 0.929 . S
H238 C220 0.923 1_655 S
H239 C222 0.932 . S
C240 C241 1.264 . S
C240 C245 1.479 . S
C240 C250 1.465 . S
C241 C240 1.264 . S
C241 C243 1.339 . S
C241 H268 0.931 . S
C242 C243 1.395 . S
C242 C244 1.320 . S
C243 C241 1.339 . S
C243 C242 1.395 . S
C243 H269 0.929 . S
C244 C242 1.320 . S
C244 C245 1.405 . S
C244 H270 0.930 . S
C245 C240 1.479 . S
C245 C244 1.405 . S
C245 H271 0.931 . S
U246 O247 2.454 . S
U246 O248 2.458 . S
U246 C249 2.984 . S
U246 C250 2.847 1_455 S
U246 C263 2.882 . S
U246 O264 2.441 1_455 S
U246 O265 2.420 1_455 S
U246 O266 2.455 . S
U246 O267 2.449 . S
O247 U246 2.454 . S
O247 C249 1.353 . S
O248 U246 2.458 . S
O248 C249 1.286 . S
C249 U246 2.984 . S
C249 O247 1.353 . S
C249 O248 1.286 . S
C249 C251 1.363 . S
C250 C240 1.465 . S
C250 U246 2.847 1_655 S
C250 O264 1.249 . S
C250 O265 1.202 . S
C251 C249 1.363 . S
C251 C253 1.408 . S
C251 C256 1.342 . S
C252 C253 1.310 . S
C252 C255 1.461 . S
C252 H272 0.932 . S
C253 C251 1.408 . S
C253 C252 1.310 . S
C253 H273 0.930 . S
C254 C255 1.474 . S
C254 C256 1.285 . S
C254 H274 0.929 . S
C255 C252 1.461 . S
C255 C254 1.474 . S
C256 C251 1.342 . S
C256 C254 1.285 . S
C256 H275 0.930 . S
C257 C260 1.424 . S
C257 C262 1.245 . S
C257 C263 1.428 . S
C258 C261 1.260 . S
C258 C262 1.477 . S
C258 H276 0.932 . S
C259 C260 1.384 . S
C259 C261 1.479 . S
C259 H277 0.929 . S
C260 C257 1.424 . S
C260 C259 1.384 . S
C260 H278 0.928 . S
C261 C258 1.260 . S
C261 C259 1.479 . S
C262 C257 1.245 . S
C262 C258 1.477 . S
C262 H279 0.932 . S
C263 U246 2.882 . S
C263 C257 1.428 . S
C263 O266 1.301 . S
C263 O267 1.282 . S
O264 U246 2.441 1_655 S
O264 C250 1.249 . S
O265 U246 2.420 1_655 S
O265 C250 1.202 . S
O266 U246 2.455 . S
O266 C263 1.301 . S
O267 U246 2.449 . S
O267 C263 1.282 . S
H268 C241 0.931 . S
H269 C243 0.929 . S
H270 C244 0.930 . S
H271 C245 0.931 . S
H272 C252 0.932 . S
H273 C253 0.930 . S
H274 C254 0.929 . S
H275 C256 0.930 . S
H276 C258 0.932 . S
H277 C259 0.929 . S
H278 C260 0.928 . S
H279 C262 0.932 . S
C280 C281 1.264 . S
C280 C285 1.479 . S
C280 C290 1.465 . S
C281 C280 1.264 . S
C281 C283 1.339 . S
C281 H308 0.931 . S
C282 C283 1.395 . S
C282 C284 1.320 . S
C283 C281 1.339 . S
C283 C282 1.395 . S
C283 H309 0.929 . S
C284 C282 1.320 . S
C284 C285 1.405 . S
C284 H310 0.930 . S
C285 C280 1.479 . S
C285 C284 1.405 . S
C285 H311 0.931 . S
U286 O287 2.454 . S
U286 O288 2.458 . S
U286 C289 2.984 . S
U286 C290 2.847 . S
U286 C303 2.882 . S
U286 O304 2.441 . S
U286 O305 2.420 . S
U286 O306 2.455 . S
U286 O307 2.449 . S
O287 U286 2.454 . S
O287 C289 1.353 . S
O288 U286 2.458 . S
O288 C289 1.286 . S
C289 U286 2.984 . S
C289 O287 1.353 . S
C289 O288 1.286 . S
C289 C291 1.363 . S
C290 C280 1.465 . S
C290 U286 2.847 . S
C290 O304 1.249 . S
C290 O305 1.202 . S
C291 C289 1.363 . S
C291 C293 1.408 . S
C291 C296 1.342 . S
C292 C293 1.310 . S
C292 C295 1.461 . S
C292 H312 0.932 . S
C293 C291 1.408 . S
C293 C292 1.310 . S
C293 H313 0.930 . S
C294 C295 1.474 . S
C294 C296 1.285 . S
C294 H314 0.929 . S
C295 C292 1.461 . S
C295 C294 1.474 . S
C296 C291 1.342 . S
C296 C294 1.285 . S
C296 H315 0.930 . S
C297 C300 1.424 . S
C297 C302 1.245 . S
C297 C303 1.428 . S
C298 C301 1.260 . S
C298 C302 1.477 . S
C298 H316 0.932 . S
C299 C300 1.384 . S
C299 C301 1.479 . S
C299 H317 0.921 1_565 S
C300 C297 1.424 . S
C300 C299 1.384 . S
C300 H318 0.928 . S
C301 C298 1.260 . S
C301 C299 1.479 . S
C302 C297 1.245 . S
C302 C298 1.477 . S
C302 H319 0.932 . S
C303 U286 2.882 . S
C303 C297 1.428 . S
C303 O306 1.301 . S
C303 O307 1.282 . S
O304 U286 2.441 . S
O304 C290 1.249 . S
O305 U286 2.420 . S
O305 C290 1.202 . S
O306 U286 2.455 . S
O306 C303 1.301 . S
O307 U286 2.449 . S
O307 C303 1.282 . S
H308 C281 0.931 . S
H309 C283 0.929 . S
H310 C284 0.930 . S
H311 C285 0.931 . S
H312 C292 0.932 . S
H313 C293 0.930 . S
H314 C294 0.929 . S
H315 C296 0.930 . S
H316 C298 0.932 . S
H317 C299 0.921 1_545 S
H318 C300 0.928 . S
H319 C302 0.932 . S
C320 C321 1.264 1_545 S
C320 C325 1.479 . S
C320 C330 1.465 . S
C321 C320 1.264 1_565 S
C321 C323 1.339 . S
C321 H348 0.931 . S
C322 C323 1.395 . S
C322 C324 1.320 . S
C323 C321 1.339 . S
C323 C322 1.395 . S
C323 H349 0.929 . S
C324 C322 1.320 . S
C324 C325 1.405 1_565 S
C324 H350 0.930 . S
C325 C320 1.479 . S
C325 C324 1.405 1_545 S
C325 H351 0.931 . S
U326 O327 2.454 . S
U326 O328 2.458 . S
U326 C329 2.984 . S
U326 C330 2.847 . S
U326 C343 2.882 . S
U326 O344 2.441 . S
U326 O345 2.420 . S
U326 O346 2.455 . S
U326 O347 2.449 . S
O327 U326 2.454 . S
O327 C329 1.353 . S
O328 U326 2.458 . S
O328 C329 1.286 . S
C329 U326 2.984 . S
C329 O327 1.353 . S
C329 O328 1.286 . S
C329 C331 1.363 . S
C330 C320 1.465 . S
C330 U326 2.847 . S
C330 O344 1.249 . S
C330 O345 1.202 . S
C331 C329 1.363 . S
C331 C333 1.408 . S
C331 C336 1.342 . S
C332 C333 1.310 . S
C332 C335 1.461 . S
C332 H352 0.932 . S
C333 C331 1.408 . S
C333 C332 1.310 . S
C333 H353 0.930 . S
C334 C335 1.474 . S
C334 C336 1.285 . S
C334 H354 0.929 . S
C335 C332 1.461 . S
C335 C334 1.474 . S
C336 C331 1.342 . S
C336 C334 1.285 . S
C336 H355 0.930 . S
C337 C340 1.424 . S
C337 C342 1.245 . S
C337 C343 1.428 1_565 S
C338 C341 1.260 . S
C338 C342 1.477 . S
C338 H356 0.932 . S
C339 C340 1.384 . S
C339 C341 1.479 . S
C339 H357 0.929 . S
C340 C337 1.424 . S
C340 C339 1.384 . S
C340 H358 0.928 . S
C341 C338 1.260 . S
C341 C339 1.479 . S
C342 C337 1.245 . S
C342 C338 1.477 . S
C342 H359 0.932 1_565 S
C343 U326 2.882 . S
C343 C337 1.428 1_545 S
C343 O346 1.301 . S
C343 O347 1.282 . S
O344 U326 2.441 . S
O344 C330 1.249 . S
O345 U326 2.420 . S
O345 C330 1.202 . S
O346 U326 2.455 . S
O346 C343 1.301 . S
O347 U326 2.449 . S
O347 C343 1.282 . S
H348 C321 0.931 . S
H349 C323 0.929 . S
H350 C324 0.930 . S
H351 C325 0.931 . S
H352 C332 0.932 . S
H353 C333 0.930 . S
H354 C334 0.929 . S
H355 C336 0.930 . S
H356 C338 0.932 . S
H357 C339 0.929 . S
H358 C340 0.928 . S
H359 C342 0.932 1_545 S
C360 C361 1.264 . S
C360 C365 1.479 . S
C360 C370 1.465 . S
C361 C360 1.264 . S
C361 C363 1.339 . S
C361 H388 0.931 . S
C362 C363 1.395 . S
C362 C364 1.320 . S
C363 C361 1.339 . S
C363 C362 1.395 . S
C363 H389 0.929 . S
C364 C362 1.320 . S
C364 C365 1.405 . S
C364 H390 0.930 . S
C365 C360 1.479 . S
C365 C364 1.405 . S
C365 H391 0.931 . S
U366 O367 2.454 . S
U366 O368 2.458 . S
U366 C369 2.984 . S
U366 C370 2.847 . S
U366 C383 2.882 . S
U366 O384 2.441 . S
U366 O385 2.420 . S
U366 O386 2.455 . S
U366 O387 2.449 . S
O367 U366 2.454 . S
O367 C369 1.353 . S
O368 U366 2.458 . S
O368 C369 1.286 . S
C369 U366 2.984 . S
C369 O367 1.353 . S
C369 O368 1.286 . S
C369 C371 1.363 . S
C370 C360 1.465 . S
C370 U366 2.847 . S
C370 O384 1.249 . S
C370 O385 1.202 . S
C371 C369 1.363 . S
C371 C373 1.408 . S
C371 C376 1.342 . S
C372 C373 1.310 . S
C372 C375 1.461 . S
C372 H392 0.932 . S
C373 C371 1.408 . S
C373 C372 1.310 . S
C373 H393 0.930 . S
C374 C375 1.474 . S
C374 C376 1.285 . S
C374 H394 0.929 . S
C375 C372 1.461 . S
C375 C374 1.474 . S
C376 C371 1.342 . S
C376 C374 1.285 . S
C376 H395 0.930 . S
C377 C380 1.424 . S
C377 C382 1.245 . S
C377 C383 1.428 . S
C378 C381 1.260 . S
C378 C382 1.477 . S
C378 H396 0.932 . S
C379 C380 1.384 . S
C379 C381 1.479 . S
C379 H397 0.929 . S
C380 C377 1.424 . S
C380 C379 1.384 . S
C380 H398 0.928 . S
C381 C378 1.260 . S
C381 C379 1.479 . S
C382 C377 1.245 . S
C382 C378 1.477 . S
C382 H399 0.932 . S
C383 U366 2.882 . S
C383 C377 1.428 . S
C383 O386 1.301 . S
C383 O387 1.282 . S
O384 U366 2.441 . S
O384 C370 1.249 . S
O385 U366 2.420 . S
O385 C370 1.202 . S
O386 U366 2.455 . S
O386 C383 1.301 . S
O387 U366 2.449 . S
O387 C383 1.282 . S
H388 C361 0.931 . S
H389 C363 0.929 . S
H390 C364 0.930 . S
H391 C365 0.931 . S
H392 C372 0.932 . S
H393 C373 0.930 . S
H394 C374 0.929 . S
H395 C376 0.930 . S
H396 C378 0.932 . S
H397 C379 0.929 . S
H398 C380 0.928 . S
H399 C382 0.932 . S
C400 C401 1.264 . S
C400 C405 1.479 . S
C400 C410 1.465 . S
C401 C400 1.264 . S
C401 C403 1.339 . S
C401 H428 0.931 . S
C402 C403 1.395 . S
C402 C404 1.320 . S
C403 C401 1.339 . S
C403 C402 1.395 . S
C403 H429 0.929 . S
C404 C402 1.320 . S
C404 C405 1.405 . S
C404 H430 0.930 . S
C405 C400 1.479 . S
C405 C404 1.405 . S
C405 H431 0.931 . S
U406 O407 2.454 . S
U406 O408 2.458 . S
U406 C409 2.984 . S
U406 C410 2.847 . S
U406 C423 2.882 . S
U406 O424 2.441 . S
U406 O425 2.420 . S
U406 O426 2.455 . S
U406 O427 2.449 . S
O407 U406 2.454 . S
O407 C409 1.353 . S
O408 U406 2.458 . S
O408 C409 1.286 . S
C409 U406 2.984 . S
C409 O407 1.353 . S
C409 O408 1.286 . S
C409 C411 1.363 . S
C410 C400 1.465 . S
C410 U406 2.847 . S
C410 O424 1.249 . S
C410 O425 1.202 . S
C411 C409 1.363 . S
C411 C413 1.408 . S
C411 C416 1.342 . S
C412 C413 1.310 . S
C412 C415 1.461 . S
C412 H432 0.932 . S
C413 C411 1.408 . S
C413 C412 1.310 . S
C413 H433 0.930 . S
C414 C415 1.474 . S
C414 C416 1.285 . S
C414 H434 0.929 . S
C415 C412 1.461 . S
C415 C414 1.474 . S
C416 C411 1.342 . S
C416 C414 1.285 . S
C416 H435 0.930 . S
C417 C420 1.424 . S
C417 C422 1.245 . S
C417 C423 1.428 . S
C418 C421 1.260 . S
C418 C422 1.477 . S
C418 H436 0.932 . S
C419 C420 1.384 . S
C419 C421 1.479 . S
C419 H437 0.942 . S
C420 C417 1.424 . S
C420 C419 1.384 . S
C420 H438 0.928 . S
C421 C418 1.260 . S
C421 C419 1.479 . S
C422 C417 1.245 . S
C422 C418 1.477 . S
C422 H439 0.932 . S
C423 U406 2.882 . S
C423 C417 1.428 . S
C423 O426 1.301 . S
C423 O427 1.282 . S
O424 U406 2.441 . S
O424 C410 1.249 . S
O425 U406 2.420 . S
O425 C410 1.202 . S
O426 U406 2.455 . S
O426 C423 1.301 . S
O427 U406 2.449 . S
O427 C423 1.282 . S
H428 C401 0.931 . S
H429 C403 0.929 . S
H430 C404 0.930 . S
H431 C405 0.931 . S
H432 C412 0.932 . S
H433 C413 0.930 . S
H434 C414 0.929 . S
H435 C416 0.930 . S
H436 C418 0.932 . S
H437 C419 0.942 . S
H438 C420 0.928 . S
H439 C422 0.932 . S
C440 C441 1.264 . S
C440 C445 1.479 . S
C440 C450 1.465 . S
C441 C440 1.264 . S
C441 C443 1.339 . S
C441 H468 0.931 . S
C442 C443 1.395 . S
C442 C444 1.320 . S
C443 C441 1.339 . S
C443 C442 1.395 . S
C443 H469 0.929 . S
C444 C442 1.320 . S
C444 C445 1.405 . S
C444 H470 0.930 . S
C445 C440 1.479 . S
C445 C444 1.405 . S
C445 H471 0.931 . S
U446 O447 2.454 1_565 S
U446 O448 2.458 1_565 S
U446 C449 2.984 1_565 S
U446 C450 2.847 . S
U446 C463 2.882 . S
U446 O464 2.441 . S
U446 O465 2.420 . S
U446 O466 2.455 . S
U446 O467 2.449 . S
O447 U446 2.454 1_545 S
O447 C449 1.353 . S
O448 U446 2.458 1_545 S
O448 C449 1.286 . S
C449 U446 2.984 1_545 S
C449 O447 1.353 . S
C449 O448 1.286 . S
C449 C451 1.363 . S
C450 C440 1.465 . S
C450 U446 2.847 . S
C450 O464 1.249 . S
C450 O465 1.202 . S
C451 C449 1.363 . S
C451 C453 1.408 . S
C451 C456 1.342 . S
C452 C453 1.310 . S
C452 C455 1.461 . S
C452 H472 0.932 . S
C453 C451 1.408 . S
C453 C452 1.310 . S
C453 H473 0.930 . S
C454 C455 1.474 . S
C454 C456 1.285 . S
C454 H474 0.929 . S
C455 C452 1.461 . S
C455 C454 1.474 . S
C456 C451 1.342 . S
C456 C454 1.285 . S
C456 H475 0.930 . S
C457 C460 1.424 . S
C457 C462 1.245 . S
C457 C463 1.428 . S
C458 C461 1.260 . S
C458 C462 1.477 . S
C458 H476 0.932 . S
C459 C460 1.384 . S
C459 C461 1.479 . S
C459 H477 0.929 . S
C460 C457 1.424 . S
C460 C459 1.384 . S
C460 H478 0.928 . S
C461 C458 1.260 . S
C461 C459 1.479 . S
C462 C457 1.245 . S
C462 C458 1.477 . S
C462 H479 0.932 . S
C463 U446 2.882 . S
C463 C457 1.428 . S
C463 O466 1.301 . S
C463 O467 1.282 . S
O464 U446 2.441 . S
O464 C450 1.249 . S
O465 U446 2.420 . S
O465 C450 1.202 . S
O466 U446 2.455 . S
O466 C463 1.301 . S
O467 U446 2.449 . S
O467 C463 1.282 . S
H468 C441 0.931 . S
H469 C443 0.929 . S
H470 C444 0.930 . S
H471 C445 0.931 . S
H472 C452 0.932 . S
H473 C453 0.930 . S
H474 C454 0.929 . S
H475 C456 0.930 . S
H476 C458 0.932 . S
H477 C459 0.929 . S
H478 C460 0.928 . S
H479 C462 0.932 . S
C480 C481 1.264 . S
C480 C485 1.479 . S
C480 C490 1.465 . S
C481 C480 1.264 . S
C481 C483 1.339 . S
C481 H508 0.931 . S
C482 C483 1.395 . S
C482 C484 1.320 . S
C483 C481 1.339 . S
C483 C482 1.395 . S
C483 H509 0.929 . S
C484 C482 1.320 . S
C484 C485 1.405 . S
C484 H510 0.930 . S
C485 C480 1.479 . S
C485 C484 1.405 . S
C485 H511 0.931 . S
U486 O487 2.454 . S
U486 O488 2.458 . S
U486 C489 2.984 . S
U486 C490 2.847 . S
U486 C503 2.882 . S
U486 O504 2.441 . S
U486 O505 2.420 . S
U486 O506 2.455 . S
U486 O507 2.449 . S
O487 U486 2.454 . S
O487 C489 1.353 . S
O488 U486 2.458 . S
O488 C489 1.286 . S
C489 U486 2.984 . S
C489 O487 1.353 . S
C489 O488 1.286 . S
C489 C491 1.363 . S
C490 C480 1.465 . S
C490 U486 2.847 . S
C490 O504 1.249 . S
C490 O505 1.202 . S
C491 C489 1.363 . S
C491 C493 1.408 . S
C491 C496 1.342 . S
C492 C493 1.310 . S
C492 C495 1.461 . S
C492 H512 0.932 . S
C493 C491 1.408 . S
C493 C492 1.310 . S
C493 H513 0.930 . S
C494 C495 1.474 . S
C494 C496 1.285 . S
C494 H514 0.929 . S
C495 C492 1.461 . S
C495 C494 1.474 . S
C496 C491 1.342 . S
C496 C494 1.285 . S
C496 H515 0.930 . S
C497 C500 1.424 . S
C497 C502 1.245 . S
C497 C503 1.428 . S
C498 C501 1.260 . S
C498 C502 1.477 . S
C498 H516 0.932 . S
C499 C500 1.384 . S
C499 C501 1.479 . S
C499 H517 0.929 . S
C500 C497 1.424 . S
C500 C499 1.384 . S
C500 H518 0.928 . S
C501 C498 1.260 . S
C501 C499 1.479 . S
C502 C497 1.245 . S
C502 C498 1.477 . S
C502 H519 0.932 . S
C503 U486 2.882 . S
C503 C497 1.428 . S
C503 O506 1.301 . S
C503 O507 1.282 . S
O504 U486 2.441 . S
O504 C490 1.249 . S
O505 U486 2.420 . S
O505 C490 1.202 . S
O506 U486 2.455 . S
O506 C503 1.301 . S
O507 U486 2.449 . S
O507 C503 1.282 . S
H508 C481 0.931 . S
H509 C483 0.929 . S
H510 C484 0.930 . S
H511 C485 0.931 . S
H512 C492 0.932 . S
H513 C493 0.930 . S
H514 C494 0.929 . S
H515 C496 0.930 . S
H516 C498 0.932 . S
H517 C499 0.929 . S
H518 C500 0.928 . S
H519 C502 0.932 . S
C520 C521 1.264 . S
C520 C525 1.479 . S
C520 C530 1.465 . S
C521 C520 1.264 . S
C521 C523 1.339 . S
C521 H548 0.931 . S
C522 C523 1.395 . S
C522 C524 1.320 . S
C523 C521 1.339 . S
C523 C522 1.395 . S
C523 H549 0.929 . S
C524 C522 1.320 . S
C524 C525 1.405 . S
C524 H550 0.930 . S
C525 C520 1.479 . S
C525 C524 1.405 . S
C525 H551 0.931 . S
U526 O527 2.454 . S
U526 O528 2.458 . S
U526 C529 2.984 . S
U526 C530 2.847 . S
U526 C543 2.882 . S
U526 O544 2.441 . S
U526 O545 2.420 . S
U526 O546 2.455 . S
U526 O547 2.449 . S
O527 U526 2.454 . S
O527 C529 1.353 . S
O528 U526 2.458 . S
O528 C529 1.286 . S
C529 U526 2.984 . S
C529 O527 1.353 . S
C529 O528 1.286 . S
C529 C531 1.363 . S
C530 C520 1.465 . S
C530 U526 2.847 . S
C530 O544 1.249 . S
C530 O545 1.202 . S
C531 C529 1.363 . S
C531 C533 1.408 . S
C531 C536 1.342 . S
C532 C533 1.310 . S
C532 C535 1.461 . S
C532 H552 0.932 . S
C533 C531 1.408 . S
C533 C532 1.310 . S
C533 H553 0.930 . S
C534 C535 1.474 . S
C534 C536 1.285 . S
C534 H554 0.929 . S
C535 C532 1.461 . S
C535 C534 1.474 . S
C536 C531 1.342 . S
C536 C534 1.285 . S
C536 H555 0.930 . S
C537 C540 1.424 . S
C537 C542 1.245 . S
C537 C543 1.428 . S
C538 C541 1.260 . S
C538 C542 1.477 . S
C538 H556 0.932 . S
C539 C540 1.384 . S
C539 C541 1.479 . S
C539 H557 0.929 . S
C540 C537 1.424 . S
C540 C539 1.384 . S
C540 H558 0.928 . S
C541 C538 1.260 . S
C541 C539 1.479 . S
C542 C537 1.245 . S
C542 C538 1.477 . S
C542 H559 0.932 . S
C543 U526 2.882 . S
C543 C537 1.428 . S
C543 O546 1.301 . S
C543 O547 1.282 . S
O544 U526 2.441 . S
O544 C530 1.249 . S
O545 U526 2.420 . S
O545 C530 1.202 . S
O546 U526 2.455 . S
O546 C543 1.301 . S
O547 U526 2.449 . S
O547 C543 1.282 . S
H548 C521 0.931 . S
H549 C523 0.929 . S
H550 C524 0.930 . S
H551 C525 0.931 . S
H552 C532 0.932 . S
H553 C533 0.930 . S
H554 C534 0.929 . S
H555 C536 0.930 . S
H556 C538 0.932 . S
H557 C539 0.929 . S
H558 C540 0.928 . S
H559 C542 0.932 . S
C560 C561 1.264 . S
C560 C565 1.479 . S
C560 C570 1.465 . S
C561 C560 1.264 . S
C561 C563 1.339 . S
C561 H588 0.931 . S
C562 C563 1.395 . S
C562 C564 1.320 . S
C563 C561 1.339 . S
C563 C562 1.395 . S
C563 H589 0.929 . S
C564 C562 1.320 . S
C564 C565 1.405 . S
C564 H590 0.930 . S
C565 C560 1.479 . S
C565 C564 1.405 . S
C565 H591 0.931 . S
U566 O567 2.454 . S
U566 O568 2.458 . S
U566 C569 2.984 . S
U566 C570 2.847 1_565 S
U566 C583 2.882 . S
U566 O584 2.441 1_565 S
U566 O585 2.420 . S
U566 O586 2.455 . S
U566 O587 2.449 . S
O567 U566 2.454 . S
O567 C569 1.353 . S
O568 U566 2.458 . S
O568 C569 1.286 . S
C569 U566 2.984 . S
C569 O567 1.353 . S
C569 O568 1.286 . S
C569 C571 1.363 . S
C570 C560 1.465 . S
C570 U566 2.847 1_545 S
C570 O584 1.249 . S
C570 O585 1.202 1_545 S
C571 C569 1.363 . S
C571 C573 1.408 . S
C571 C576 1.342 . S
C572 C573 1.310 . S
C572 C575 1.461 . S
C572 H592 0.932 . S
C573 C571 1.408 . S
C573 C572 1.310 . S
C573 H593 0.930 . S
C574 C575 1.474 . S
C574 C576 1.285 . S
C574 H594 0.929 . S
C575 C572 1.461 . S
C575 C574 1.474 . S
C576 C571 1.342 . S
C576 C574 1.285 . S
C576 H595 0.930 . S
C577 C580 1.424 . S
C577 C582 1.245 . S
C577 C583 1.428 . S
C578 C581 1.260 . S
C578 C582 1.477 . S
C578 H596 0.932 . S
C579 C580 1.384 . S
C579 C581 1.479 . S
C579 H597 0.929 1_455 S
C580 C577 1.424 . S
C580 C579 1.384 . S
C580 H598 0.928 . S
C581 C578 1.260 . S
C581 C579 1.479 . S
C582 C577 1.245 . S
C582 C578 1.477 . S
C582 H599 0.932 . S
C583 U566 2.882 . S
C583 C577 1.428 . S
C583 O586 1.301 . S
C583 O587 1.282 . S
O584 U566 2.441 1_545 S
O584 C570 1.249 . S
O585 U566 2.420 . S
O585 C570 1.202 1_565 S
O586 U566 2.455 . S
O586 C583 1.301 . S
O587 U566 2.449 . S
O587 C583 1.282 . S
H588 C561 0.931 . S
H589 C563 0.929 . S
H590 C564 0.930 . S
H591 C565 0.931 . S
H592 C572 0.932 . S
H593 C573 0.930 . S
H594 C574 0.929 . S
H595 C576 0.930 . S
H596 C578 0.932 . S
H597 C579 0.929 1_655 S
H598 C580 0.928 . S
H599 C582 0.932 . S
C600 C601 1.264 . S
C600 C605 1.479 . S
C600 C610 1.465 . S
C601 C600 1.264 . S
C601 C603 1.339 . S
C601 H628 0.931 . S
C602 C603 1.395 . S
C602 C604 1.320 . S
C603 C601 1.339 . S
C603 C602 1.395 . S
C603 H629 0.929 . S
C604 C602 1.320 . S
C604 C605 1.405 . S
C604 H630 0.930 . S
C605 C600 1.479 . S
C605 C604 1.405 . S
C605 H631 0.931 . S
U606 O607 2.454 . S
U606 O608 2.458 1_545 S
U606 C609 2.984 1_545 S
U606 C610 2.847 . S
U606 C623 2.882 1_545 S
U606 O624 2.441 . S
U606 O625 2.420 . S
U606 O626 2.455 1_545 S
U606 O627 2.449 . S
O607 U606 2.454 . S
O607 C609 1.353 1_545 S
O608 U606 2.458 1_565 S
O608 C609 1.286 . S
C609 U606 2.984 1_565 S
C609 O607 1.353 1_565 S
C609 O608 1.286 . S
C609 C611 1.363 . S
C610 C600 1.465 . S
C610 U606 2.847 . S
C610 O624 1.249 . S
C610 O625 1.202 . S
C611 C609 1.363 . S
C611 C613 1.408 . S
C611 C616 1.342 . S
C612 C613 1.310 . S
C612 C615 1.461 . S
C612 H632 0.932 . S
C613 C611 1.408 . S
C613 C612 1.310 . S
C613 H633 0.930 . S
C614 C615 1.474 . S
C614 C616 1.285 . S
C614 H634 0.929 . S
C615 C612 1.461 . S
C615 C614 1.474 . S
C616 C611 1.342 . S
C616 C614 1.285 . S
C616 H635 0.930 . S
C617 C620 1.424 . S
C617 C622 1.245 . S
C617 C623 1.428 . S
C618 C621 1.260 . S
C618 C622 1.477 . S
C618 H636 0.932 . S
C619 C620 1.384 . S
C619 C621 1.479 . S
C619 H637 0.929 . S
C620 C617 1.424 . S
C620 C619 1.384 . S
C620 H638 0.928 . S
C621 C618 1.260 . S
C621 C619 1.479 . S
C622 C617 1.245 . S
C622 C618 1.477 . S
C622 H639 0.932 . S
C623 U606 2.882 1_565 S
C623 C617 1.428 . S
C623 O626 1.301 . S
C623 O627 1.282 1_565 S
O624 U606 2.441 . S
O624 C610 1.249 . S
O625 U606 2.420 . S
O625 C610 1.202 . S
O626 U606 2.455 1_565 S
O626 C623 1.301 . S
O627 U606 2.449 . S
O627 C623 1.282 1_545 S
H628 C601 0.931 . S
H629 C603 0.929 . S
H630 C604 0.930 . S
H631 C605 0.931 . S
H632 C612 0.932 . S
H633 C613 0.930 . S
H634 C614 0.929 . S
H635 C616 0.930 . S
H636 C618 0.932 . S
H637 C619 0.929 . S
H638 C620 0.928 . S
H639 C622 0.932 . S
C640 C641 1.391 . S
C640 C642 1.394 . S
C640 H656 0.931 . S
C641 C640 1.391 . S
C641 C645 1.376 . S
C642 C640 1.394 . S
C642 C643 1.369 . S
C642 C646 1.531 . S
C643 C642 1.369 . S
C643 C644 1.410 . S
C643 C651 1.503 . S
C644 C643 1.410 . S
C644 C645 1.392 . S
C644 C647 1.511 . S
C645 C641 1.376 . S
C645 C644 1.392 . S
C645 H657 0.929 . S
C646 C642 1.531 . S
C646 H658 0.960 . S
C646 H659 0.962 . S
C646 H660 0.960 . S
C647 C644 1.511 . S
C647 H661 0.961 . S
C647 H662 0.961 . S
C647 H663 0.961 . S
C648 C649 1.370 . S
C648 C650 1.363 . S
C648 H664 0.931 . S
C649 C648 1.370 . S
C649 C653 1.408 . S
C650 C648 1.363 . S
C650 C651 1.370 . S
C650 C654 1.524 . S
C651 C643 1.503 . S
C651 C650 1.370 . S
C651 C652 1.403 . S
C652 C651 1.403 . S
C652 C653 1.404 . S
C652 C655 1.539 . S
C653 C649 1.408 . S
C653 C652 1.404 . S
C653 H665 0.930 . S
C654 C650 1.524 . S
C654 H666 0.956 . S
C654 H667 0.961 . S
C654 H668 0.961 . S
C655 C652 1.539 . S
C655 H669 0.958 . S
C655 H670 0.961 . S
C655 H671 0.960 . S
H656 C640 0.931 . S
H657 C645 0.929 . S
H658 C646 0.960 . S
H659 C646 0.962 . S
H660 C646 0.960 . S
H661 C647 0.961 . S
H662 C647 0.961 . S
H663 C647 0.961 . S
H664 C648 0.931 . S
H665 C653 0.930 . S
H666 C654 0.956 . S
H667 C654 0.961 . S
H668 C654 0.961 . S
H669 C655 0.958 . S
H670 C655 0.961 . S
H671 C655 0.960 . S
C672 C673 1.391 . S
C672 C674 1.394 . S
C672 H688 0.931 . S
C673 C672 1.391 . S
C673 C677 1.376 . S
C674 C672 1.394 . S
C674 C675 1.369 . S
C674 C678 1.531 . S
C675 C674 1.369 . S
C675 C676 1.410 . S
C675 C683 1.503 . S
C676 C675 1.410 . S
C676 C677 1.392 . S
C676 C679 1.511 . S
C677 C673 1.376 . S
C677 C676 1.392 . S
C677 H689 0.929 . S
C678 C674 1.531 . S
C678 H690 0.960 . S
C678 H691 0.962 . S
C678 H692 0.960 . S
C679 C676 1.511 . S
C679 H693 0.961 . S
C679 H694 0.961 . S
C679 H695 0.961 . S
C680 C681 1.370 . S
C680 C682 1.363 . S
C680 H696 0.931 . S
C681 C680 1.370 . S
C681 C685 1.408 . S
C682 C680 1.363 . S
C682 C683 1.370 . S
C682 C686 1.524 . S
C683 C675 1.503 . S
C683 C682 1.370 . S
C683 C684 1.403 . S
C684 C683 1.403 . S
C684 C685 1.404 . S
C684 C687 1.539 . S
C685 C681 1.408 . S
C685 C684 1.404 . S
C685 H697 0.930 . S
C686 C682 1.524 . S
C686 H698 0.956 . S
C686 H699 0.961 . S
C686 H700 0.961 . S
C687 C684 1.539 . S
C687 H701 0.958 . S
C687 H702 0.961 . S
C687 H703 0.960 . S
H688 C672 0.931 . S
H689 C677 0.929 . S
H690 C678 0.960 . S
H691 C678 0.962 . S
H692 C678 0.960 . S
H693 C679 0.961 . S
H694 C679 0.961 . S
H695 C679 0.961 . S
H696 C680 0.931 . S
H697 C685 0.930 . S
H698 C686 0.956 . S
H699 C686 0.961 . S
H700 C686 0.961 . S
H701 C687 0.958 . S
H702 C687 0.961 . S
H703 C687 0.960 . S
C704 C705 1.391 . S
C704 C706 1.394 . S
C704 H720 0.931 . S
C705 C704 1.391 . S
C705 C709 1.376 . S
C706 C704 1.394 . S
C706 C707 1.369 . S
C706 C710 1.531 . S
C707 C706 1.369 . S
C707 C708 1.410 . S
C707 C715 1.503 . S
C708 C707 1.410 . S
C708 C709 1.392 . S
C708 C711 1.511 . S
C709 C705 1.376 . S
C709 C708 1.392 . S
C709 H721 0.929 . S
C710 C706 1.531 . S
C710 H722 0.960 . S
C710 H723 0.962 1_455 S
C710 H724 0.960 . S
C711 C708 1.511 . S
C711 H725 0.961 . S
C711 H726 0.961 . S
C711 H727 0.961 . S
C712 C713 1.370 . S
C712 C714 1.363 . S
C712 H728 0.931 . S
C713 C712 1.370 . S
C713 C717 1.408 . S
C714 C712 1.363 . S
C714 C715 1.370 . S
C714 C718 1.524 . S
C715 C707 1.503 . S
C715 C714 1.370 . S
C715 C716 1.403 . S
C716 C715 1.403 . S
C716 C717 1.404 . S
C716 C719 1.539 . S
C717 C713 1.408 . S
C717 C716 1.404 . S
C717 H729 0.930 . S
C718 C714 1.524 . S
C718 H730 0.956 . S
C718 H731 0.961 . S
C718 H732 0.961 . S
C719 C716 1.539 . S
C719 H733 0.958 . S
C719 H734 0.961 . S
C719 H735 0.960 . S
H720 C704 0.931 . S
H721 C709 0.929 . S
H722 C710 0.960 . S
H723 C710 0.962 1_655 S
H724 C710 0.960 . S
H725 C711 0.961 . S
H726 C711 0.961 . S
H727 C711 0.961 . S
H728 C712 0.931 . S
H729 C717 0.930 . S
H730 C718 0.956 . S
H731 C718 0.961 . S
H732 C718 0.961 . S
H733 C719 0.958 . S
H734 C719 0.961 . S
H735 C719 0.960 . S
C736 C737 1.391 . S
C736 C738 1.394 . S
C736 H752 0.931 . S
C737 C736 1.391 . S
C737 C741 1.376 . S
C738 C736 1.394 . S
C738 C739 1.369 . S
C738 C742 1.531 . S
C739 C738 1.369 . S
C739 C740 1.410 . S
C739 C747 1.503 . S
C740 C739 1.410 . S
C740 C741 1.392 . S
C740 C743 1.536 . S
C741 C737 1.376 . S
C741 C740 1.392 . S
C741 H753 0.929 . S
C742 C738 1.531 . S
C742 H754 0.960 . S
C742 H755 0.962 . S
C742 H756 0.960 . S
C743 C740 1.536 . S
C743 H757 0.951 1_455 S
C743 H758 0.964 . S
C743 H759 0.943 1_455 S
C744 C745 1.370 . S
C744 C746 1.363 . S
C744 H760 0.931 . S
C745 C744 1.370 . S
C745 C749 1.408 . S
C746 C744 1.363 . S
C746 C747 1.370 . S
C746 C750 1.524 . S
C747 C739 1.503 . S
C747 C746 1.370 . S
C747 C748 1.403 . S
C748 C747 1.403 . S
C748 C749 1.404 . S
C748 C751 1.539 . S
C749 C745 1.408 . S
C749 C748 1.404 . S
C749 H761 0.930 . S
C750 C746 1.524 . S
C750 H762 0.956 . S
C750 H763 0.961 . S
C750 H764 0.961 . S
C751 C748 1.539 . S
C751 H765 0.958 . S
C751 H766 0.961 . S
C751 H767 0.960 . S
H752 C736 0.931 . S
H753 C741 0.929 . S
H754 C742 0.960 . S
H755 C742 0.962 . S
H756 C742 0.960 . S
H757 C743 0.951 1_655 S
H758 C743 0.964 . S
H759 C743 0.943 1_655 S
H760 C744 0.931 . S
H761 C749 0.930 . S
H762 C750 0.956 . S
H763 C750 0.961 . S
H764 C750 0.961 . S
H765 C751 0.958 . S
H766 C751 0.961 . S
H767 C751 0.960 . S
C768 C769 1.391 . S
C768 C770 1.394 . S
C768 H784 0.931 . S
C769 C768 1.391 . S
C769 C773 1.376 . S
C770 C768 1.394 . S
C770 C771 1.369 . S
C770 C774 1.531 . S
C771 C770 1.369 . S
C771 C772 1.410 . S
C771 C779 1.503 . S
C772 C771 1.410 . S
C772 C773 1.392 . S
C772 C775 1.511 . S
C773 C769 1.376 . S
C773 C772 1.392 . S
C773 H785 0.929 . S
C774 C770 1.531 . S
C774 H786 0.960 . S
C774 H787 0.962 1_565 S
C774 H788 0.960 . S
C775 C772 1.511 . S
C775 H789 0.961 . S
C775 H790 0.961 . S
C775 H791 0.961 . S
C776 C777 1.370 . S
C776 C778 1.363 . S
C776 H792 0.931 . S
C777 C776 1.370 . S
C777 C781 1.408 . S
C778 C776 1.363 . S
C778 C779 1.370 . S
C778 C782 1.524 . S
C779 C771 1.503 . S
C779 C778 1.370 . S
C779 C780 1.403 . S
C780 C779 1.403 . S
C780 C781 1.404 . S
C780 C783 1.539 . S
C781 C777 1.408 . S
C781 C780 1.404 . S
C781 H793 0.930 . S
C782 C778 1.524 . S
C782 H794 0.956 . S
C782 H795 0.961 . S
C782 H796 0.961 . S
C783 C780 1.539 . S
C783 H797 0.958 . S
C783 H798 0.961 . S
C783 H799 0.960 . S
H784 C768 0.931 . S
H785 C773 0.929 . S
H786 C774 0.960 . S
H787 C774 0.962 1_545 S
H788 C774 0.960 . S
H789 C775 0.961 . S
H790 C775 0.961 . S
H791 C775 0.961 . S
H792 C776 0.931 . S
H793 C781 0.930 . S
H794 C782 0.956 . S
H795 C782 0.961 . S
H796 C782 0.961 . S
H797 C783 0.958 . S
H798 C783 0.961 . S
H799 C783 0.960 . S
C800 C801 1.391 . S
C800 C802 1.394 . S
C800 H816 0.931 . S
C801 C800 1.391 . S
C801 C805 1.376 . S
C802 C800 1.394 . S
C802 C803 1.369 . S
C802 C806 1.531 . S
C803 C802 1.369 . S
C803 C804 1.410 . S
C803 C811 1.503 . S
C804 C803 1.410 . S
C804 C805 1.392 . S
C804 C807 1.511 . S
C805 C801 1.376 . S
C805 C804 1.392 . S
C805 H817 0.929 . S
C806 C802 1.531 . S
C806 H818 0.960 . S
C806 H819 0.962 . S
C806 H820 0.960 . S
C807 C804 1.511 . S
C807 H821 0.961 . S
C807 H822 0.961 . S
C807 H823 0.961 . S
C808 C809 1.370 . S
C808 C810 1.363 . S
C808 H824 0.931 . S
C809 C808 1.370 . S
C809 C813 1.408 . S
C810 C808 1.363 . S
C810 C811 1.370 . S
C810 C814 1.524 . S
C811 C803 1.503 . S
C811 C810 1.370 . S
C811 C812 1.403 . S
C812 C811 1.403 . S
C812 C813 1.404 . S
C812 C815 1.539 . S
C813 C809 1.408 . S
C813 C812 1.404 . S
C813 H825 0.930 . S
C814 C810 1.524 . S
C814 H826 0.956 . S
C814 H827 0.961 . S
C814 H828 0.961 . S
C815 C812 1.539 . S
C815 H829 0.958 . S
C815 H830 0.961 . S
C815 H831 0.960 . S
H816 C800 0.931 . S
H817 C805 0.929 . S
H818 C806 0.960 . S
H819 C806 0.962 . S
H820 C806 0.960 . S
H821 C807 0.961 . S
H822 C807 0.961 . S
H823 C807 0.961 . S
H824 C808 0.931 . S
H825 C813 0.930 . S
H826 C814 0.956 . S
H827 C814 0.961 . S
H828 C814 0.961 . S
H829 C815 0.958 . S
H830 C815 0.961 . S
H831 C815 0.960 . S
C832 C833 1.391 . S
C832 C834 1.394 . S
C832 H848 0.931 . S
C833 C832 1.391 . S
C833 C837 1.376 . S
C834 C832 1.394 . S
C834 C835 1.369 . S
C834 C838 1.531 . S
C835 C834 1.369 . S
C835 C836 1.410 . S
C835 C843 1.503 . S
C836 C835 1.410 . S
C836 C837 1.392 . S
C836 C839 1.511 . S
C837 C833 1.376 . S
C837 C836 1.392 . S
C837 H849 0.929 1_655 S
C838 C834 1.531 . S
C838 H850 0.960 . S
C838 H851 0.962 . S
C838 H852 0.960 . S
C839 C836 1.511 . S
C839 H853 0.961 . S
C839 H854 0.961 . S
C839 H855 0.961 . S
C840 C841 1.370 . S
C840 C842 1.363 . S
C840 H856 0.931 . S
C841 C840 1.370 . S
C841 C845 1.408 . S
C842 C840 1.363 . S
C842 C843 1.370 . S
C842 C846 1.524 . S
C843 C835 1.503 . S
C843 C842 1.370 . S
C843 C844 1.403 . S
C844 C843 1.403 . S
C844 C845 1.404 . S
C844 C847 1.539 . S
C845 C841 1.408 . S
C845 C844 1.404 . S
C845 H857 0.930 . S
C846 C842 1.524 . S
C846 H858 0.956 . S
C846 H859 0.961 . S
C846 H860 0.961 . S
C847 C844 1.539 . S
C847 H861 0.958 . S
C847 H862 0.961 . S
C847 H863 0.960 . S
H848 C832 0.931 . S
H849 C837 0.929 1_455 S
H850 C838 0.960 . S
H851 C838 0.962 . S
H852 C838 0.960 . S
H853 C839 0.961 . S
H854 C839 0.961 . S
H855 C839 0.961 . S
H856 C840 0.931 . S
H857 C845 0.930 . S
H858 C846 0.956 . S
H859 C846 0.961 . S
H860 C846 0.961 . S
H861 C847 0.958 . S
H862 C847 0.961 . S
H863 C847 0.960 . S
C864 C865 1.391 . S
C864 C866 1.394 . S
C864 H880 0.931 . S
C865 C864 1.391 . S
C865 C869 1.376 . S
C866 C864 1.394 . S
C866 C867 1.369 . S
C866 C870 1.531 . S
C867 C866 1.369 . S
C867 C868 1.410 . S
C867 C875 1.503 . S
C868 C867 1.410 . S
C868 C869 1.392 . S
C868 C871 1.533 . S
C869 C865 1.376 . S
C869 C868 1.392 . S
C869 H881 0.929 . S
C870 C866 1.531 . S
C870 H882 0.960 . S
C870 H883 0.962 . S
C870 H884 0.960 . S
C871 C868 1.533 . S
C871 H885 0.949 1_565 S
C871 H886 0.960 1_565 S
C871 H887 0.951 1_565 S
C872 C873 1.370 . S
C872 C874 1.363 . S
C872 H888 0.931 . S
C873 C872 1.370 . S
C873 C877 1.408 . S
C874 C872 1.363 . S
C874 C875 1.370 . S
C874 C878 1.524 . S
C875 C867 1.503 . S
C875 C874 1.370 . S
C875 C876 1.403 . S
C876 C875 1.403 . S
C876 C877 1.404 . S
C876 C879 1.539 . S
C877 C873 1.408 . S
C877 C876 1.404 . S
C877 H889 0.930 . S
C878 C874 1.524 . S
C878 H890 0.956 . S
C878 H891 0.961 . S
C878 H892 0.961 . S
C879 C876 1.539 . S
C879 H893 0.958 . S
C879 H894 0.961 . S
C879 H895 0.960 . S
H880 C864 0.931 . S
H881 C869 0.929 . S
H882 C870 0.960 . S
H883 C870 0.962 . S
H884 C870 0.960 . S
H885 C871 0.949 1_545 S
H886 C871 0.960 1_545 S
H887 C871 0.951 1_545 S
H888 C872 0.931 . S
H889 C877 0.930 . S
H890 C878 0.956 . S
H891 C878 0.961 . S
H892 C878 0.961 . S
H893 C879 0.958 . S
H894 C879 0.961 . S
H895 C879 0.960 . S
C896 C897 1.391 . S
C896 C898 1.394 . S
C896 H912 0.931 1_554 S
C897 C896 1.391 . S
C897 C901 1.376 . S
C898 C896 1.394 . S
C898 C899 1.369 . S
C898 C902 1.531 . S
C899 C898 1.369 . S
C899 C900 1.410 . S
C899 C907 1.503 . S
C900 C899 1.410 . S
C900 C901 1.392 . S
C900 C903 1.511 . S
C901 C897 1.376 . S
C901 C900 1.392 . S
C901 H913 0.929 . S
C902 C898 1.531 . S
C902 H914 0.960 . S
C902 H915 0.962 . S
C902 H916 0.960 . S
C903 C900 1.511 . S
C903 H917 0.961 . S
C903 H918 0.961 . S
C903 H919 0.961 . S
C904 C905 1.370 . S
C904 C906 1.363 . S
C904 H920 0.931 . S
C905 C904 1.370 . S
C905 C909 1.408 . S
C906 C904 1.363 . S
C906 C907 1.370 . S
C906 C910 1.524 . S
C907 C899 1.503 . S
C907 C906 1.370 . S
C907 C908 1.403 . S
C908 C907 1.403 . S
C908 C909 1.404 . S
C908 C911 1.539 . S
C909 C905 1.408 . S
C909 C908 1.404 . S
C909 H921 0.930 . S
C910 C906 1.524 . S
C910 H922 0.956 . S
C910 H923 0.961 . S
C910 H924 0.961 . S
C911 C908 1.539 . S
C911 H925 0.958 . S
C911 H926 0.961 . S
C911 H927 0.960 . S
H912 C896 0.931 1_556 S
H913 C901 0.929 . S
H914 C902 0.960 . S
H915 C902 0.962 . S
H916 C902 0.960 . S
H917 C903 0.961 . S
H918 C903 0.961 . S
H919 C903 0.961 . S
H920 C904 0.931 . S
H921 C909 0.930 . S
H922 C910 0.956 . S
H923 C910 0.961 . S
H924 C910 0.961 . S
H925 C911 0.958 . S
H926 C911 0.961 . S
H927 C911 0.960 . S
C928 C929 1.391 . S
C928 C930 1.394 . S
C928 H944 0.931 . S
C929 C928 1.391 . S
C929 C933 1.376 . S
C930 C928 1.394 . S
C930 C931 1.369 . S
C930 C934 1.531 . S
C931 C930 1.369 . S
C931 C932 1.410 . S
C931 C939 1.503 . S
C932 C931 1.410 . S
C932 C933 1.392 . S
C932 C935 1.511 . S
C933 C929 1.376 . S
C933 C932 1.392 . S
C933 H945 0.929 . S
C934 C930 1.531 . S
C934 H946 0.960 . S
C934 H947 0.951 1_556 S
C934 H948 0.960 . S
C935 C932 1.511 . S
C935 H949 0.961 . S
C935 H950 0.961 . S
C935 H951 0.961 . S
C936 C937 1.370 . S
C936 C938 1.362 1_554 S
C936 H952 0.932 . S
C937 C936 1.370 . S
C937 C941 1.408 1_554 S
C938 C936 1.362 1_556 S
C938 C939 1.370 . S
C938 C942 1.524 . S
C939 C931 1.503 . S
C939 C938 1.370 . S
C939 C940 1.403 . S
C940 C939 1.403 . S
C940 C941 1.404 . S
C940 C943 1.539 . S
C941 C937 1.408 1_556 S
C941 C940 1.404 . S
C941 H953 0.930 . S
C942 C938 1.524 . S
C942 H954 0.956 . S
C942 H955 0.961 . S
C942 H956 0.961 . S
C943 C940 1.539 . S
C943 H957 0.958 . S
C943 H958 0.961 . S
C943 H959 0.960 . S
H944 C928 0.931 . S
H945 C933 0.929 . S
H946 C934 0.960 . S
H947 C934 0.951 1_554 S
H948 C934 0.960 . S
H949 C935 0.961 . S
H950 C935 0.961 . S
H951 C935 0.961 . S
H952 C936 0.932 . S
H953 C941 0.930 . S
H954 C942 0.956 . S
H955 C942 0.961 . S
H956 C942 0.961 . S
H957 C943 0.958 . S
H958 C943 0.961 . S
H959 C943 0.960 . S
C960 C961 1.391 . S
C960 C962 1.394 . S
C960 H976 0.931 . S
C961 C960 1.391 . S
C961 C965 1.376 . S
C962 C960 1.394 . S
C962 C963 1.369 . S
C962 C966 1.531 . S
C963 C962 1.369 . S
C963 C964 1.410 . S
C963 C971 1.503 . S
C964 C963 1.410 . S
C964 C965 1.392 . S
C964 C967 1.511 . S
C965 C961 1.376 . S
C965 C964 1.392 . S
C965 H977 0.929 . S
C966 C962 1.531 . S
C966 H978 0.921 1_554 S
C966 H979 0.962 . S
C966 H980 0.960 . S
C967 C964 1.511 . S
C967 H981 0.961 . S
C967 H982 0.961 . S
C967 H983 0.961 . S
C968 C969 1.370 1_554 S
C968 C970 1.363 . S
C968 H984 0.931 . S
C969 C968 1.370 1_556 S
C969 C973 1.408 . S
C970 C968 1.363 . S
C970 C971 1.370 . S
C970 C974 1.524 . S
C971 C963 1.503 . S
C971 C970 1.370 . S
C971 C972 1.403 1_554 S
C972 C971 1.403 1_556 S
C972 C973 1.404 . S
C972 C975 1.539 . S
C973 C969 1.408 . S
C973 C972 1.404 . S
C973 H985 0.930 . S
C974 C970 1.524 . S
C974 H986 0.956 . S
C974 H987 0.961 . S
C974 H988 0.961 . S
C975 C972 1.539 . S
C975 H989 0.958 . S
C975 H990 0.961 . S
C975 H991 0.960 . S
H976 C960 0.931 . S
H977 C965 0.929 . S
H978 C966 0.921 1_556 S
H979 C966 0.962 . S
H980 C966 0.960 . S
H981 C967 0.961 . S
H982 C967 0.961 . S
H983 C967 0.961 . S
H984 C968 0.931 . S
H985 C973 0.930 . S
H986 C974 0.956 . S
H987 C974 0.961 . S
H988 C974 0.961 . S
H989 C975 0.958 . S
H990 C975 0.961 . S
H991 C975 0.960 . S
C992 C993 1.391 . S
C992 C994 1.394 . S
C992 H1008 0.931 . S
C993 C992 1.391 . S
C993 C997 1.376 . S
C994 C992 1.394 . S
C994 C995 1.369 . S
C994 C998 1.531 . S
C995 C994 1.369 . S
C995 C996 1.410 . S
C995 C1003 1.503 . S
C996 C995 1.410 . S
C996 C997 1.392 . S
C996 C999 1.511 . S
C997 C993 1.376 . S
C997 C996 1.392 . S
C997 H1009 0.929 . S
C998 C994 1.531 . S
C998 H1010 0.960 . S
C998 H1011 0.962 . S
C998 H1012 0.960 . S
C999 C996 1.511 . S
C999 H1013 0.961 . S
C999 H1014 0.961 . S
C999 H1015 0.961 1_556 S
C1000 C1001 1.370 1_556 S
C1000 C1002 1.363 . S
C1000 H1016 0.931 . S
C1001 C1000 1.370 1_554 S
C1001 C1005 1.408 . S
C1002 C1000 1.363 . S
C1002 C1003 1.370 . S
C1002 C1006 1.524 . S
C1003 C995 1.503 . S
C1003 C1002 1.370 . S
C1003 C1004 1.403 1_556 S
C1004 C1003 1.403 1_554 S
C1004 C1005 1.404 . S
C1004 C1007 1.539 . S
C1005 C1001 1.408 . S
C1005 C1004 1.404 . S
C1005 H1017 0.930 . S
C1006 C1002 1.524 . S
C1006 H1018 0.956 . S
C1006 H1019 0.961 . S
C1006 H1020 0.961 . S
C1007 C1004 1.539 . S
C1007 H1021 0.958 . S
C1007 H1022 0.961 . S
C1007 H1023 0.960 . S
H1008 C992 0.931 . S
H1009 C997 0.929 . S
H1010 C998 0.960 . S
H1011 C998 0.962 . S
H1012 C998 0.960 . S
H1013 C999 0.961 . S
H1014 C999 0.961 . S
H1015 C999 0.961 1_554 S
H1016 C1000 0.931 . S
H1017 C1005 0.930 . S
H1018 C1006 0.956 . S
H1019 C1006 0.961 . S
H1020 C1006 0.961 . S
H1021 C1007 0.958 . S
H1022 C1007 0.961 . S
H1023 C1007 0.960 . S
C1024 C1025 1.391 . S
C1024 C1026 1.394 . S
C1024 H1040 0.931 . S
C1025 C1024 1.391 . S
C1025 C1029 1.376 . S
C1026 C1024 1.394 . S
C1026 C1027 1.369 . S
C1026 C1030 1.531 . S
C1027 C1026 1.369 . S
C1027 C1028 1.410 . S
C1027 C1035 1.503 . S
C1028 C1027 1.410 . S
C1028 C1029 1.392 . S
C1028 C1031 1.511 . S
C1029 C1025 1.376 . S
C1029 C1028 1.392 . S
C1029 H1041 0.929 . S
C1030 C1026 1.531 . S
C1030 H1042 0.960 . S
C1030 H1043 0.962 . S
C1030 H1044 0.960 . S
C1031 C1028 1.511 . S
C1031 H1045 0.961 . S
C1031 H1046 0.961 . S
C1031 H1047 0.961 . S
C1032 C1033 1.370 . S
C1032 C1034 1.363 . S
C1032 H1048 0.931 . S
C1033 C1032 1.370 . S
C1033 C1037 1.408 . S
C1034 C1032 1.363 . S
C1034 C1035 1.370 . S
C1034 C1038 1.524 . S
C1035 C1027 1.503 . S
C1035 C1034 1.370 . S
C1035 C1036 1.403 . S
C1036 C1035 1.403 . S
C1036 C1037 1.404 . S
C1036 C1039 1.539 . S
C1037 C1033 1.408 . S
C1037 C1036 1.404 . S
C1037 H1049 0.930 . S
C1038 C1034 1.524 . S
C1038 H1050 0.956 . S
C1038 H1051 0.961 . S
C1038 H1052 0.961 . S
C1039 C1036 1.539 . S
C1039 H1053 0.958 . S
C1039 H1054 0.961 . S
C1039 H1055 0.960 . S
H1040 C1024 0.931 . S
H1041 C1029 0.929 . S
H1042 C1030 0.960 . S
H1043 C1030 0.962 . S
H1044 C1030 0.960 . S
H1045 C1031 0.961 . S
H1046 C1031 0.961 . S
H1047 C1031 0.961 . S
H1048 C1032 0.931 . S
H1049 C1037 0.930 . S
H1050 C1038 0.956 . S
H1051 C1038 0.961 . S
H1052 C1038 0.961 . S
H1053 C1039 0.958 . S
H1054 C1039 0.961 . S
H1055 C1039 0.960 . S
C1056 C1057 1.391 . S
C1056 C1058 1.394 . S
C1056 H1072 0.931 . S
C1057 C1056 1.391 . S
C1057 C1061 1.376 . S
C1058 C1056 1.394 . S
C1058 C1059 1.369 . S
C1058 C1062 1.531 . S
C1059 C1058 1.369 . S
C1059 C1060 1.410 . S
C1059 C1067 1.503 . S
C1060 C1059 1.410 . S
C1060 C1061 1.392 . S
C1060 C1063 1.511 . S
C1061 C1057 1.376 . S
C1061 C1060 1.392 . S
C1061 H1073 0.929 . S
C1062 C1058 1.531 . S
C1062 H1074 0.960 . S
C1062 H1075 0.962 . S
C1062 H1076 0.960 . S
C1063 C1060 1.511 . S
C1063 H1077 0.961 . S
C1063 H1078 0.961 . S
C1063 H1079 0.961 . S
C1064 C1065 1.370 . S
C1064 C1066 1.363 . S
C1064 H1080 0.931 . S
C1065 C1064 1.370 . S
C1065 C1069 1.408 . S
C1066 C1064 1.363 . S
C1066 C1067 1.370 . S
C1066 C1070 1.524 . S
C1067 C1059 1.503 . S
C1067 C1066 1.370 . S
C1067 C1068 1.403 . S
C1068 C1067 1.403 . S
C1068 C1069 1.404 . S
C1068 C1071 1.539 . S
C1069 C1065 1.408 . S
C1069 C1068 1.404 . S
C1069 H1081 0.930 . S
C1070 C1066 1.524 . S
C1070 H1082 0.956 . S
C1070 H1083 0.961 . S
C1070 H1084 0.961 . S
C1071 C1068 1.539 . S
C1071 H1085 0.958 . S
C1071 H1086 0.961 . S
C1071 H1087 0.960 . S
H1072 C1056 0.931 . S
H1073 C1061 0.929 . S
H1074 C1062 0.960 . S
H1075 C1062 0.962 . S
H1076 C1062 0.960 . S
H1077 C1063 0.961 . S
H1078 C1063 0.961 . S
H1079 C1063 0.961 . S
H1080 C1064 0.931 . S
H1081 C1069 0.930 . S
H1082 C1070 0.956 . S
H1083 C1070 0.961 . S
H1084 C1070 0.961 . S
H1085 C1071 0.958 . S
H1086 C1071 0.961 . S
H1087 C1071 0.960 . S
C1088 C1089 1.391 . S
C1088 C1090 1.394 . S
C1088 H1104 0.931 . S
C1089 C1088 1.391 . S
C1089 C1093 1.376 . S
C1090 C1088 1.394 . S
C1090 C1091 1.369 . S
C1090 C1094 1.531 . S
C1091 C1090 1.369 . S
C1091 C1092 1.410 . S
C1091 C1099 1.503 . S
C1092 C1091 1.410 . S
C1092 C1093 1.392 . S
C1092 C1095 1.511 . S
C1093 C1089 1.376 . S
C1093 C1092 1.392 . S
C1093 H1105 0.929 . S
C1094 C1090 1.531 . S
C1094 H1106 0.960 . S
C1094 H1107 0.962 . S
C1094 H1108 0.960 . S
C1095 C1092 1.511 . S
C1095 H1109 0.961 . S
C1095 H1110 0.961 . S
C1095 H1111 0.961 . S
C1096 C1097 1.370 . S
C1096 C1098 1.363 . S
C1096 H1112 0.931 . S
C1097 C1096 1.370 . S
C1097 C1101 1.408 . S
C1098 C1096 1.363 . S
C1098 C1099 1.370 . S
C1098 C1102 1.524 . S
C1099 C1091 1.503 . S
C1099 C1098 1.370 . S
C1099 C1100 1.403 . S
C1100 C1099 1.403 . S
C1100 C1101 1.404 . S
C1100 C1103 1.539 . S
C1101 C1097 1.408 . S
C1101 C1100 1.404 . S
C1101 H1113 0.930 . S
C1102 C1098 1.524 . S
C1102 H1114 0.956 . S
C1102 H1115 0.961 . S
C1102 H1116 0.961 . S
C1103 C1100 1.539 . S
C1103 H1117 0.958 . S
C1103 H1118 0.961 . S
C1103 H1119 0.960 . S
H1104 C1088 0.931 . S
H1105 C1093 0.929 . S
H1106 C1094 0.960 . S
H1107 C1094 0.962 . S
H1108 C1094 0.960 . S
H1109 C1095 0.961 . S
H1110 C1095 0.961 . S
H1111 C1095 0.961 . S
H1112 C1096 0.931 . S
H1113 C1101 0.930 . S
H1114 C1102 0.956 . S
H1115 C1102 0.961 . S
H1116 C1102 0.961 . S
H1117 C1103 0.958 . S
H1118 C1103 0.961 . S
H1119 C1103 0.960 . S
C1120 C1121 1.391 . S
C1120 C1122 1.394 . S
C1120 H1136 0.931 . S
C1121 C1120 1.391 . S
C1121 C1125 1.376 . S
C1122 C1120 1.394 . S
C1122 C1123 1.369 . S
C1122 C1126 1.531 . S
C1123 C1122 1.369 . S
C1123 C1124 1.410 . S
C1123 C1131 1.503 . S
C1124 C1123 1.410 . S
C1124 C1125 1.392 . S
C1124 C1127 1.511 . S
C1125 C1121 1.376 . S
C1125 C1124 1.392 . S
C1125 H1137 0.929 . S
C1126 C1122 1.531 . S
C1126 H1138 0.960 . S
C1126 H1139 0.962 . S
C1126 H1140 0.960 . S
C1127 C1124 1.511 . S
C1127 H1141 0.961 . S
C1127 H1142 0.961 . S
C1127 H1143 0.961 . S
C1128 C1129 1.370 . S
C1128 C1130 1.363 . S
C1128 H1144 0.931 . S
C1129 C1128 1.370 . S
C1129 C1133 1.408 . S
C1130 C1128 1.363 . S
C1130 C1131 1.370 . S
C1130 C1134 1.524 . S
C1131 C1123 1.503 . S
C1131 C1130 1.370 . S
C1131 C1132 1.403 . S
C1132 C1131 1.403 . S
C1132 C1133 1.404 . S
C1132 C1135 1.539 . S
C1133 C1129 1.408 . S
C1133 C1132 1.404 . S
C1133 H1145 0.930 . S
C1134 C1130 1.524 . S
C1134 H1146 0.956 . S
C1134 H1147 0.961 . S
C1134 H1148 0.961 . S
C1135 C1132 1.539 . S
C1135 H1149 0.958 . S
C1135 H1150 0.961 . S
C1135 H1151 0.960 . S
H1136 C1120 0.931 . S
H1137 C1125 0.929 . S
H1138 C1126 0.960 . S
H1139 C1126 0.962 . S
H1140 C1126 0.960 . S
H1141 C1127 0.961 . S
H1142 C1127 0.961 . S
H1143 C1127 0.961 . S
H1144 C1128 0.931 . S
H1145 C1133 0.930 . S
H1146 C1134 0.956 . S
H1147 C1134 0.961 . S
H1148 C1134 0.961 . S
H1149 C1135 0.958 . S
H1150 C1135 0.961 . S
H1151 C1135 0.960 . S
C1152 C1153 1.391 . S
C1152 C1154 1.394 . S
C1152 H1168 0.931 . S
C1153 C1152 1.391 . S
C1153 C1157 1.376 . S
C1154 C1152 1.394 . S
C1154 C1155 1.369 . S
C1154 C1158 1.531 . S
C1155 C1154 1.369 . S
C1155 C1156 1.410 . S
C1155 C1163 1.503 . S
C1156 C1155 1.410 . S
C1156 C1157 1.392 . S
C1156 C1159 1.511 . S
C1157 C1153 1.376 . S
C1157 C1156 1.392 . S
C1157 H1169 0.929 . S
C1158 C1154 1.531 . S
C1158 H1170 0.960 . S
C1158 H1171 0.962 . S
C1158 H1172 0.960 . S
C1159 C1156 1.511 . S
C1159 H1173 0.961 . S
C1159 H1174 0.961 . S
C1159 H1175 0.961 . S
C1160 C1161 1.370 . S
C1160 C1162 1.363 . S
C1160 H1176 0.931 . S
C1161 C1160 1.370 . S
C1161 C1165 1.408 . S
C1162 C1160 1.363 . S
C1162 C1163 1.370 . S
C1162 C1166 1.524 . S
C1163 C1155 1.503 . S
C1163 C1162 1.370 . S
C1163 C1164 1.403 . S
C1164 C1163 1.403 . S
C1164 C1165 1.404 . S
C1164 C1167 1.539 . S
C1165 C1161 1.408 . S
C1165 C1164 1.404 . S
C1165 H1177 0.930 . S
C1166 C1162 1.524 . S
C1166 H1178 0.956 . S
C1166 H1179 0.961 . S
C1166 H1180 0.961 . S
C1167 C1164 1.539 . S
C1167 H1181 0.958 . S
C1167 H1182 0.961 . S
C1167 H1183 0.960 . S
H1168 C1152 0.931 . S
H1169 C1157 0.929 . S
H1170 C1158 0.960 . S
H1171 C1158 0.962 . S
H1172 C1158 0.960 . S
H1173 C1159 0.961 . S
H1174 C1159 0.961 . S
H1175 C1159 0.961 . S
H1176 C1160 0.931 . S
H1177 C1165 0.930 . S
H1178 C1166 0.956 . S
H1179 C1166 0.961 . S
H1180 C1166 0.961 . S
H1181 C1167 0.958 . S
H1182 C1167 0.961 . S
H1183 C1167 0.960 . S
C1184 C1185 1.391 . S
C1184 C1186 1.394 . S
C1184 H1200 0.931 . S
C1185 C1184 1.391 . S
C1185 C1189 1.376 . S
C1186 C1184 1.394 . S
C1186 C1187 1.369 . S
C1186 C1190 1.531 . S
C1187 C1186 1.369 . S
C1187 C1188 1.410 . S
C1187 C1195 1.503 . S
C1188 C1187 1.410 . S
C1188 C1189 1.392 . S
C1188 C1191 1.511 . S
C1189 C1185 1.376 . S
C1189 C1188 1.392 . S
C1189 H1201 0.929 . S
C1190 C1186 1.531 . S
C1190 H1202 0.960 . S
C1190 H1203 0.962 . S
C1190 H1204 0.960 . S
C1191 C1188 1.511 . S
C1191 H1205 0.961 . S
C1191 H1206 0.961 . S
C1191 H1207 0.961 . S
C1192 C1193 1.370 . S
C1192 C1194 1.363 . S
C1192 H1208 0.931 . S
C1193 C1192 1.370 . S
C1193 C1197 1.408 . S
C1194 C1192 1.363 . S
C1194 C1195 1.370 . S
C1194 C1198 1.524 . S
C1195 C1187 1.503 . S
C1195 C1194 1.370 . S
C1195 C1196 1.403 . S
C1196 C1195 1.403 . S
C1196 C1197 1.404 . S
C1196 C1199 1.539 . S
C1197 C1193 1.408 . S
C1197 C1196 1.404 . S
C1197 H1209 0.930 . S
C1198 C1194 1.524 . S
C1198 H1210 0.956 . S
C1198 H1211 0.961 . S
C1198 H1212 0.961 . S
C1199 C1196 1.539 . S
C1199 H1213 0.958 . S
C1199 H1214 0.961 . S
C1199 H1215 0.960 . S
H1200 C1184 0.931 . S
H1201 C1189 0.929 . S
H1202 C1190 0.960 . S
H1203 C1190 0.962 . S
H1204 C1190 0.960 . S
H1205 C1191 0.961 . S
H1206 C1191 0.961 . S
H1207 C1191 0.961 . S
H1208 C1192 0.931 . S
H1209 C1197 0.930 . S
H1210 C1198 0.956 . S
H1211 C1198 0.961 . S
H1212 C1198 0.961 . S
H1213 C1199 0.958 . S
H1214 C1199 0.961 . S
H1215 C1199 0.960 . S
C1216 C1217 1.391 . S
C1216 C1218 1.394 . S
C1216 H1232 0.931 . S
C1217 C1216 1.391 . S
C1217 C1221 1.376 . S
C1218 C1216 1.394 . S
C1218 C1219 1.369 . S
C1218 C1222 1.531 . S
C1219 C1218 1.369 . S
C1219 C1220 1.410 . S
C1219 C1227 1.503 . S
C1220 C1219 1.410 . S
C1220 C1221 1.392 . S
C1220 C1223 1.511 . S
C1221 C1217 1.376 . S
C1221 C1220 1.392 . S
C1221 H1233 0.929 . S
C1222 C1218 1.531 . S
C1222 H1234 0.960 . S
C1222 H1235 0.962 . S
C1222 H1236 0.960 . S
C1223 C1220 1.511 . S
C1223 H1237 0.961 . S
C1223 H1238 0.961 . S
C1223 H1239 0.961 . S
C1224 C1225 1.370 . S
C1224 C1226 1.363 . S
C1224 H1240 0.931 . S
C1225 C1224 1.370 . S
C1225 C1229 1.408 . S
C1226 C1224 1.363 . S
C1226 C1227 1.370 . S
C1226 C1230 1.524 . S
C1227 C1219 1.503 . S
C1227 C1226 1.370 . S
C1227 C1228 1.403 . S
C1228 C1227 1.403 . S
C1228 C1229 1.404 . S
C1228 C1231 1.539 . S
C1229 C1225 1.408 . S
C1229 C1228 1.404 . S
C1229 H1241 0.930 . S
C1230 C1226 1.524 . S
C1230 H1242 0.956 . S
C1230 H1243 0.961 . S
C1230 H1244 0.961 . S
C1231 C1228 1.539 . S
C1231 H1245 0.958 . S
C1231 H1246 0.961 . S
C1231 H1247 0.960 . S
H1232 C1216 0.931 . S
H1233 C1221 0.929 . S
H1234 C1222 0.960 . S
H1235 C1222 0.962 . S
H1236 C1222 0.960 . S
H1237 C1223 0.961 . S
H1238 C1223 0.961 . S
H1239 C1223 0.961 . S
H1240 C1224 0.931 . S
H1241 C1229 0.930 . S
H1242 C1230 0.956 . S
H1243 C1230 0.961 . S
H1244 C1230 0.961 . S
H1245 C1231 0.958 . S
H1246 C1231 0.961 . S
H1247 C1231 0.960 . S
C1248 C1249 1.391 . S
C1248 C1250 1.394 . S
C1248 H1264 0.931 . S
C1249 C1248 1.391 . S
C1249 C1253 1.376 1_455 S
C1250 C1248 1.394 . S
C1250 C1251 1.369 . S
C1250 C1254 1.531 . S
C1251 C1250 1.369 . S
C1251 C1252 1.410 1_455 S
C1251 C1259 1.503 . S
C1252 C1251 1.410 1_655 S
C1252 C1253 1.392 . S
C1252 C1255 1.511 . S
C1253 C1249 1.376 1_655 S
C1253 C1252 1.392 . S
C1253 H1265 0.929 . S
C1254 C1250 1.531 . S
C1254 H1266 0.960 . S
C1254 H1267 0.962 . S
C1254 H1268 0.960 . S
C1255 C1252 1.511 . S
C1255 H1269 0.961 . S
C1255 H1270 0.961 . S
C1255 H1271 0.961 . S
C1256 C1257 1.370 . S
C1256 C1258 1.363 . S
C1256 H1272 0.931 . S
C1257 C1256 1.370 . S
C1257 C1261 1.408 . S
C1258 C1256 1.363 . S
C1258 C1259 1.370 . S
C1258 C1262 1.524 . S
C1259 C1251 1.503 . S
C1259 C1258 1.370 . S
C1259 C1260 1.403 . S
C1260 C1259 1.403 . S
C1260 C1261 1.404 . S
C1260 C1263 1.539 . S
C1261 C1257 1.408 . S
C1261 C1260 1.404 . S
C1261 H1273 0.930 . S
C1262 C1258 1.524 . S
C1262 H1274 0.956 . S
C1262 H1275 0.961 . S
C1262 H1276 0.961 . S
C1263 C1260 1.539 . S
C1263 H1277 0.958 . S
C1263 H1278 0.961 . S
C1263 H1279 0.960 . S
H1264 C1248 0.931 . S
H1265 C1253 0.929 . S
H1266 C1254 0.960 . S
H1267 C1254 0.962 . S
H1268 C1254 0.960 . S
H1269 C1255 0.961 . S
H1270 C1255 0.961 . S
H1271 C1255 0.961 . S
H1272 C1256 0.931 . S
H1273 C1261 0.930 . S
H1274 C1262 0.956 . S
H1275 C1262 0.961 . S
H1276 C1262 0.961 . S
H1277 C1263 0.958 . S
H1278 C1263 0.961 . S
H1279 C1263 0.960 . S
C1280 C1281 1.391 . S
C1280 C1282 1.394 . S
C1280 H1296 0.931 . S
C1281 C1280 1.391 . S
C1281 C1285 1.376 . S
C1282 C1280 1.394 . S
C1282 C1283 1.369 . S
C1282 C1286 1.531 . S
C1283 C1282 1.369 . S
C1283 C1284 1.410 . S
C1283 C1291 1.503 . S
C1284 C1283 1.410 . S
C1284 C1285 1.392 . S
C1284 C1287 1.511 . S
C1285 C1281 1.376 . S
C1285 C1284 1.392 . S
C1285 H1297 0.929 . S
C1286 C1282 1.531 . S
C1286 H1298 0.960 . S
C1286 H1299 0.962 . S
C1286 H1300 0.960 . S
C1287 C1284 1.511 . S
C1287 H1301 0.961 . S
C1287 H1302 0.961 . S
C1287 H1303 0.961 . S
C1288 C1289 1.370 1_545 S
C1288 C1290 1.363 1_545 S
C1288 H1304 0.931 . S
C1289 C1288 1.370 1_565 S
C1289 C1293 1.408 . S
C1290 C1288 1.363 1_565 S
C1290 C1291 1.380 . S
C1290 C1294 1.515 1_565 S
C1291 C1283 1.503 . S
C1291 C1290 1.380 . S
C1291 C1292 1.403 . S
C1292 C1291 1.403 . S
C1292 C1293 1.404 . S
C1292 C1295 1.539 . S
C1293 C1289 1.408 . S
C1293 C1292 1.404 . S
C1293 H1305 0.930 . S
C1294 C1290 1.515 1_545 S
C1294 H1306 0.956 . S
C1294 H1307 0.961 . S
C1294 H1308 0.961 . S
C1295 C1292 1.539 . S
C1295 H1309 0.958 . S
C1295 H1310 0.961 . S
C1295 H1311 0.960 . S
H1296 C1280 0.931 . S
H1297 C1285 0.929 . S
H1298 C1286 0.960 . S
H1299 C1286 0.962 . S
H1300 C1286 0.960 . S
H1301 C1287 0.961 . S
H1302 C1287 0.961 . S
H1303 C1287 0.961 . S
H1304 C1288 0.931 . S
H1305 C1293 0.930 . S
H1306 C1294 0.956 . S
H1307 C1294 0.961 . S
H1308 C1294 0.961 . S
H1309 C1295 0.958 . S
H1310 C1295 0.961 . S
H1311 C1295 0.960 . S
C1312 C1313 1.391 . S
C1312 C1314 1.394 . S
C1312 H1328 0.931 . S
C1313 C1312 1.391 . S
C1313 C1317 1.376 . S
C1314 C1312 1.394 . S
C1314 C1315 1.369 . S
C1314 C1318 1.531 . S
C1315 C1314 1.369 . S
C1315 C1316 1.410 . S
C1315 C1323 1.503 . S
C1316 C1315 1.410 . S
C1316 C1317 1.392 . S
C1316 C1319 1.511 . S
C1317 C1313 1.376 . S
C1317 C1316 1.392 . S
C1317 H1329 0.929 . S
C1318 C1314 1.531 . S
C1318 H1330 0.960 . S
C1318 H1331 0.962 . S
C1318 H1332 0.960 . S
C1319 C1316 1.511 . S
C1319 H1333 0.961 . S
C1319 H1334 0.961 . S
C1319 H1335 0.961 . S
C1320 C1321 1.370 . S
C1320 C1322 1.363 . S
C1320 H1336 0.931 . S
C1321 C1320 1.370 . S
C1321 C1325 1.408 . S
C1322 C1320 1.363 . S
C1322 C1323 1.370 . S
C1322 C1326 1.524 . S
C1323 C1315 1.503 . S
C1323 C1322 1.370 . S
C1323 C1324 1.403 . S
C1324 C1323 1.403 . S
C1324 C1325 1.404 . S
C1324 C1327 1.539 . S
C1325 C1321 1.408 . S
C1325 C1324 1.404 . S
C1325 H1337 0.930 . S
C1326 C1322 1.524 . S
C1326 H1338 0.956 . S
C1326 H1339 0.961 . S
C1326 H1340 0.961 . S
C1327 C1324 1.539 . S
C1327 H1341 0.958 . S
C1327 H1342 0.961 . S
C1327 H1343 0.960 . S
H1328 C1312 0.931 . S
H1329 C1317 0.929 . S
H1330 C1318 0.960 . S
H1331 C1318 0.962 . S
H1332 C1318 0.960 . S
H1333 C1319 0.961 . S
H1334 C1319 0.961 . S
H1335 C1319 0.961 . S
H1336 C1320 0.931 . S
H1337 C1325 0.930 . S
H1338 C1326 0.956 . S
H1339 C1326 0.961 . S
H1340 C1326 0.961 . S
H1341 C1327 0.958 . S
H1342 C1327 0.961 . S
H1343 C1327 0.960 . S
C1344 C1345 1.391 . S
C1344 C1346 1.394 . S
C1344 H1360 0.931 . S
C1345 C1344 1.391 . S
C1345 C1349 1.376 . S
C1346 C1344 1.394 . S
C1346 C1347 1.369 . S
C1346 C1350 1.531 . S
C1347 C1346 1.369 . S
C1347 C1348 1.410 . S
C1347 C1355 1.503 . S
C1348 C1347 1.410 . S
C1348 C1349 1.392 . S
C1348 C1351 1.511 . S
C1349 C1345 1.376 . S
C1349 C1348 1.392 . S
C1349 H1361 0.929 . S
C1350 C1346 1.531 . S
C1350 H1362 0.960 . S
C1350 H1363 0.962 . S
C1350 H1364 0.960 . S
C1351 C1348 1.511 . S
C1351 H1365 0.961 . S
C1351 H1366 0.961 . S
C1351 H1367 0.961 . S
C1352 C1353 1.370 . S
C1352 C1354 1.363 . S
C1352 H1368 0.931 . S
C1353 C1352 1.370 . S
C1353 C1357 1.408 . S
C1354 C1352 1.363 . S
C1354 C1355 1.370 . S
C1354 C1358 1.524 . S
C1355 C1347 1.503 . S
C1355 C1354 1.370 . S
C1355 C1356 1.403 . S
C1356 C1355 1.403 . S
C1356 C1357 1.404 . S
C1356 C1359 1.539 . S
C1357 C1353 1.408 . S
C1357 C1356 1.404 . S
C1357 H1369 0.930 . S
C1358 C1354 1.524 . S
C1358 H1370 0.956 . S
C1358 H1371 0.961 . S
C1358 H1372 0.961 . S
C1359 C1356 1.539 . S
C1359 H1373 0.958 . S
C1359 H1374 0.961 . S
C1359 H1375 0.960 . S
H1360 C1344 0.931 . S
H1361 C1349 0.929 . S
H1362 C1350 0.960 . S
H1363 C1350 0.962 . S
H1364 C1350 0.960 . S
H1365 C1351 0.961 . S
H1366 C1351 0.961 . S
H1367 C1351 0.961 . S
H1368 C1352 0.931 . S
H1369 C1357 0.930 . S
H1370 C1358 0.956 . S
H1371 C1358 0.961 . S
H1372 C1358 0.961 . S
H1373 C1359 0.958 . S
H1374 C1359 0.961 . S
H1375 C1359 0.960 . S
C1376 C1377 1.391 . S
C1376 C1378 1.394 . S
C1376 H1392 0.931 . S
C1377 C1376 1.391 . S
C1377 C1381 1.376 . S
C1378 C1376 1.394 . S
C1378 C1379 1.369 . S
C1378 C1382 1.531 . S
C1379 C1378 1.369 . S
C1379 C1380 1.410 . S
C1379 C1387 1.503 . S
C1380 C1379 1.410 . S
C1380 C1381 1.392 . S
C1380 C1383 1.511 . S
C1381 C1377 1.376 . S
C1381 C1380 1.392 . S
C1381 H1393 0.929 . S
C1382 C1378 1.531 . S
C1382 H1394 0.960 . S
C1382 H1395 0.962 . S
C1382 H1396 0.960 . S
C1383 C1380 1.511 . S
C1383 H1397 0.961 . S
C1383 H1398 0.961 . S
C1383 H1399 0.961 . S
C1384 C1385 1.370 . S
C1384 C1386 1.363 . S
C1384 H1400 0.931 . S
C1385 C1384 1.370 . S
C1385 C1389 1.408 . S
C1386 C1384 1.363 . S
C1386 C1387 1.370 . S
C1386 C1390 1.524 . S
C1387 C1379 1.503 . S
C1387 C1386 1.370 . S
C1387 C1388 1.403 . S
C1388 C1387 1.403 . S
C1388 C1389 1.404 . S
C1388 C1391 1.539 . S
C1389 C1385 1.408 . S
C1389 C1388 1.404 . S
C1389 H1401 0.930 . S
C1390 C1386 1.524 . S
C1390 H1402 0.956 . S
C1390 H1403 0.961 . S
C1390 H1404 0.961 . S
C1391 C1388 1.539 . S
C1391 H1405 0.958 . S
C1391 H1406 0.961 . S
C1391 H1407 0.960 . S
H1392 C1376 0.931 . S
H1393 C1381 0.929 . S
H1394 C1382 0.960 . S
H1395 C1382 0.962 . S
H1396 C1382 0.960 . S
H1397 C1383 0.961 . S
H1398 C1383 0.961 . S
H1399 C1383 0.961 . S
H1400 C1384 0.931 . S
H1401 C1389 0.930 . S
H1402 C1390 0.956 . S
H1403 C1390 0.961 . S
H1404 C1390 0.961 . S
H1405 C1391 0.958 . S
H1406 C1391 0.961 . S
H1407 C1391 0.960 . S
C641 C21 0.921 . S
C649 C301 1.180 1_545 S
C673 C61 1.265 . S
C681 C181 1.089 . S
C705 C101 1.293 . S
C713 C221 1.297 . S
C737 C261 1.144 . S
C745 C141 1.229 1_545 S
C769 C621 1.076 . S
C777 C341 1.280 . S
C801 C501 1.274 . S
C809 C381 1.041 . S
C833 C421 1.127 1_655 S
C841 C541 1.151 . S
C865 C461 1.178 . S
C873 C581 1.175 1_655 S
C897 C335 2.795 1_554 S
C905 C2 2.644 . S
C929 C375 2.642 . S
C937 C42 2.698 . S
C961 C95 2.681 . S
C969 C402 2.848 . S
C993 C442 2.862 . S
C1001 C122 2.786 . S
C1025 C495 2.705 . S
C1033 C162 2.540 . S
C1057 C522 2.849 . S
C1065 C202 2.787 . S
C1089 C562 2.924 . S
C1097 C255 2.748 . S
C1121 C282 2.675 . S
C1129 C615 2.652 . S
C1153 C242 2.728 . S
C1161 C15 2.645 . S
C1185 C295 1.967 . S
C1193 C55 1.994 . S
C1217 C82 2.715 . S
C1225 C175 2.633 . S
C1249 C135 2.056 . S
C1257 C215 2.089 . S
C1281 C575 2.064 . S
C1289 C322 2.053 . S
C1313 C602 2.594 . S
C1321 C362 2.592 . S
C1345 C415 1.975 . S
C1353 C482 1.953 . S
C1377 C455 2.692 . S
C1385 C535 2.670 . S
