# Generated by pormake.
# Topology lcv-a, (4)-cn, num edge types: 1
# Building blocks:
#     Node 0, Type 0, BuildingBlock: QUQFOY_clean_sbu_1, # of connection points: 4
#     Node 1, Type 0, BuildingBlock: QUQFOY_clean_sbu_1, # of connection points: 4
#     Node 2, Type 0, BuildingBlock: QUQFOY_clean_sbu_1, # of connection points: 4
#     Node 3, Type 0, BuildingBlock: QUQFOY_clean_sbu_1, # of connection points: 4
#     Node 4, Type 0, BuildingBlock: QUQFOY_clean_sbu_1, # of connection points: 4
#     Node 5, Type 0, BuildingBlock: QUQFOY_clean_sbu_1, # of connection points: 4
#     Node 6, Type 0, BuildingBlock: QUQFOY_clean_sbu_1, # of connection points: 4
#     Node 7, Type 0, BuildingBlock: QUQFOY_clean_sbu_1, # of connection points: 4
#     Node 8, Type 0, BuildingBlock: QUQFOY_clean_sbu_1, # of connection points: 4
#     Node 9, Type 0, BuildingBlock: QUQFOY_clean_sbu_1, # of connection points: 4
#     Node 10, Type 0, BuildingBlock: QUQFOY_clean_sbu_1, # of connection points: 4
#     Node 11, Type 0, BuildingBlock: QUQFOY_clean_sbu_1, # of connection points: 4
#     Node 12, Type 0, BuildingBlock: QUQFOY_clean_sbu_1, # of connection points: 4
#     Node 13, Type 0, BuildingBlock: QUQFOY_clean_sbu_1, # of connection points: 4
#     Node 14, Type 0, BuildingBlock: QUQFOY_clean_sbu_1, # of connection points: 4
#     Node 15, Type 0, BuildingBlock: QUQFOY_clean_sbu_1, # of connection points: 4
#     Node 16, Type 0, BuildingBlock: QUQFOY_clean_sbu_1, # of connection points: 4
#     Node 17, Type 0, BuildingBlock: QUQFOY_clean_sbu_1, # of connection points: 4
#     Node 18, Type 0, BuildingBlock: QUQFOY_clean_sbu_1, # of connection points: 4
#     Node 19, Type 0, BuildingBlock: QUQFOY_clean_sbu_1, # of connection points: 4
#     Node 20, Type 0, BuildingBlock: QUQFOY_clean_sbu_1, # of connection points: 4
#     Node 21, Type 0, BuildingBlock: QUQFOY_clean_sbu_1, # of connection points: 4
#     Node 22, Type 0, BuildingBlock: QUQFOY_clean_sbu_1, # of connection points: 4
#     Node 23, Type 0, BuildingBlock: QUQFOY_clean_sbu_1, # of connection points: 4
#     Node 24, Type 0, BuildingBlock: QUQFOY_clean_sbu_1, # of connection points: 4
#     Node 25, Type 0, BuildingBlock: QUQFOY_clean_sbu_1, # of connection points: 4
#     Node 26, Type 0, BuildingBlock: QUQFOY_clean_sbu_1, # of connection points: 4
#     Node 27, Type 0, BuildingBlock: QUQFOY_clean_sbu_1, # of connection points: 4
#     Node 28, Type 0, BuildingBlock: QUQFOY_clean_sbu_1, # of connection points: 4
#     Node 29, Type 0, BuildingBlock: QUQFOY_clean_sbu_1, # of connection points: 4
#     Node 30, Type 0, BuildingBlock: QUQFOY_clean_sbu_1, # of connection points: 4
#     Node 31, Type 0, BuildingBlock: QUQFOY_clean_sbu_1, # of connection points: 4
#     Node 32, Type 0, BuildingBlock: QUQFOY_clean_sbu_1, # of connection points: 4
#     Node 33, Type 0, BuildingBlock: QUQFOY_clean_sbu_1, # of connection points: 4
#     Node 34, Type 0, BuildingBlock: QUQFOY_clean_sbu_1, # of connection points: 4
#     Node 35, Type 0, BuildingBlock: QUQFOY_clean_sbu_1, # of connection points: 4
#     Node 36, Type 0, BuildingBlock: QUQFOY_clean_sbu_1, # of connection points: 4
#     Node 37, Type 0, BuildingBlock: QUQFOY_clean_sbu_1, # of connection points: 4
#     Node 38, Type 0, BuildingBlock: QUQFOY_clean_sbu_1, # of connection points: 4
#     Node 39, Type 0, BuildingBlock: QUQFOY_clean_sbu_1, # of connection points: 4
#     Node 40, Type 0, BuildingBlock: QUQFOY_clean_sbu_1, # of connection points: 4
#     Node 41, Type 0, BuildingBlock: QUQFOY_clean_sbu_1, # of connection points: 4
#     Node 42, Type 0, BuildingBlock: QUQFOY_clean_sbu_1, # of connection points: 4
#     Node 43, Type 0, BuildingBlock: QUQFOY_clean_sbu_1, # of connection points: 4
#     Node 44, Type 0, BuildingBlock: QUQFOY_clean_sbu_1, # of connection points: 4
#     Node 45, Type 0, BuildingBlock: QUQFOY_clean_sbu_1, # of connection points: 4
#     Node 46, Type 0, BuildingBlock: QUQFOY_clean_sbu_1, # of connection points: 4
#     Node 47, Type 0, BuildingBlock: QUQFOY_clean_sbu_1, # of connection points: 4
#     Edge 48, Type (0, 0), BuildingBlock: ZUJKAS_clean_linker_0, # of connection points: 2
#     Edge 49, Type (0, 0), BuildingBlock: ZUJKAS_clean_linker_0, # of connection points: 2
#     Edge 50, Type (0, 0), BuildingBlock: ZUJKAS_clean_linker_0, # of connection points: 2
#     Edge 51, Type (0, 0), BuildingBlock: ZUJKAS_clean_linker_0, # of connection points: 2
#     Edge 52, Type (0, 0), BuildingBlock: ZUJKAS_clean_linker_0, # of connection points: 2
#     Edge 53, Type (0, 0), BuildingBlock: ZUJKAS_clean_linker_0, # of connection points: 2
#     Edge 54, Type (0, 0), BuildingBlock: ZUJKAS_clean_linker_0, # of connection points: 2
#     Edge 55, Type (0, 0), BuildingBlock: ZUJKAS_clean_linker_0, # of connection points: 2
#     Edge 56, Type (0, 0), BuildingBlock: ZUJKAS_clean_linker_0, # of connection points: 2
#     Edge 57, Type (0, 0), BuildingBlock: ZUJKAS_clean_linker_0, # of connection points: 2
#     Edge 58, Type (0, 0), BuildingBlock: ZUJKAS_clean_linker_0, # of connection points: 2
#     Edge 59, Type (0, 0), BuildingBlock: ZUJKAS_clean_linker_0, # of connection points: 2
#     Edge 60, Type (0, 0), BuildingBlock: ZUJKAS_clean_linker_0, # of connection points: 2
#     Edge 61, Type (0, 0), BuildingBlock: ZUJKAS_clean_linker_0, # of connection points: 2
#     Edge 62, Type (0, 0), BuildingBlock: ZUJKAS_clean_linker_0, # of connection points: 2
#     Edge 63, Type (0, 0), BuildingBlock: ZUJKAS_clean_linker_0, # of connection points: 2
#     Edge 64, Type (0, 0), BuildingBlock: ZUJKAS_clean_linker_0, # of connection points: 2
#     Edge 65, Type (0, 0), BuildingBlock: ZUJKAS_clean_linker_0, # of connection points: 2
#     Edge 66, Type (0, 0), BuildingBlock: ZUJKAS_clean_linker_0, # of connection points: 2
#     Edge 67, Type (0, 0), BuildingBlock: ZUJKAS_clean_linker_0, # of connection points: 2
#     Edge 68, Type (0, 0), BuildingBlock: ZUJKAS_clean_linker_0, # of connection points: 2
#     Edge 69, Type (0, 0), BuildingBlock: ZUJKAS_clean_linker_0, # of connection points: 2
#     Edge 70, Type (0, 0), BuildingBlock: ZUJKAS_clean_linker_0, # of connection points: 2
#     Edge 71, Type (0, 0), BuildingBlock: ZUJKAS_clean_linker_0, # of connection points: 2
#     Edge 72, Type (0, 0), BuildingBlock: ZUJKAS_clean_linker_0, # of connection points: 2
#     Edge 73, Type (0, 0), BuildingBlock: ZUJKAS_clean_linker_0, # of connection points: 2
#     Edge 74, Type (0, 0), BuildingBlock: ZUJKAS_clean_linker_0, # of connection points: 2
#     Edge 75, Type (0, 0), BuildingBlock: ZUJKAS_clean_linker_0, # of connection points: 2
#     Edge 76, Type (0, 0), BuildingBlock: ZUJKAS_clean_linker_0, # of connection points: 2
#     Edge 77, Type (0, 0), BuildingBlock: ZUJKAS_clean_linker_0, # of connection points: 2
#     Edge 78, Type (0, 0), BuildingBlock: ZUJKAS_clean_linker_0, # of connection points: 2
#     Edge 79, Type (0, 0), BuildingBlock: ZUJKAS_clean_linker_0, # of connection points: 2
#     Edge 80, Type (0, 0), BuildingBlock: ZUJKAS_clean_linker_0, # of connection points: 2
#     Edge 81, Type (0, 0), BuildingBlock: ZUJKAS_clean_linker_0, # of connection points: 2
#     Edge 82, Type (0, 0), BuildingBlock: ZUJKAS_clean_linker_0, # of connection points: 2
#     Edge 83, Type (0, 0), BuildingBlock: ZUJKAS_clean_linker_0, # of connection points: 2
#     Edge 84, Type (0, 0), BuildingBlock: ZUJKAS_clean_linker_0, # of connection points: 2
#     Edge 85, Type (0, 0), BuildingBlock: ZUJKAS_clean_linker_0, # of connection points: 2
#     Edge 86, Type (0, 0), BuildingBlock: ZUJKAS_clean_linker_0, # of connection points: 2
#     Edge 87, Type (0, 0), BuildingBlock: ZUJKAS_clean_linker_0, # of connection points: 2
#     Edge 88, Type (0, 0), BuildingBlock: ZUJKAS_clean_linker_0, # of connection points: 2
#     Edge 89, Type (0, 0), BuildingBlock: ZUJKAS_clean_linker_0, # of connection points: 2
#     Edge 90, Type (0, 0), BuildingBlock: ZUJKAS_clean_linker_0, # of connection points: 2
#     Edge 91, Type (0, 0), BuildingBlock: ZUJKAS_clean_linker_0, # of connection points: 2
#     Edge 92, Type (0, 0), BuildingBlock: ZUJKAS_clean_linker_0, # of connection points: 2
#     Edge 93, Type (0, 0), BuildingBlock: ZUJKAS_clean_linker_0, # of connection points: 2
#     Edge 94, Type (0, 0), BuildingBlock: ZUJKAS_clean_linker_0, # of connection points: 2
#     Edge 95, Type (0, 0), BuildingBlock: ZUJKAS_clean_linker_0, # of connection points: 2
#     Edge 96, Type (0, 0), BuildingBlock: ZUJKAS_clean_linker_0, # of connection points: 2
#     Edge 97, Type (0, 0), BuildingBlock: ZUJKAS_clean_linker_0, # of connection points: 2
#     Edge 98, Type (0, 0), BuildingBlock: ZUJKAS_clean_linker_0, # of connection points: 2
#     Edge 99, Type (0, 0), BuildingBlock: ZUJKAS_clean_linker_0, # of connection points: 2
#     Edge 100, Type (0, 0), BuildingBlock: ZUJKAS_clean_linker_0, # of connection points: 2
#     Edge 101, Type (0, 0), BuildingBlock: ZUJKAS_clean_linker_0, # of connection points: 2
#     Edge 102, Type (0, 0), BuildingBlock: ZUJKAS_clean_linker_0, # of connection points: 2
#     Edge 103, Type (0, 0), BuildingBlock: ZUJKAS_clean_linker_0, # of connection points: 2
#     Edge 104, Type (0, 0), BuildingBlock: ZUJKAS_clean_linker_0, # of connection points: 2
#     Edge 105, Type (0, 0), BuildingBlock: ZUJKAS_clean_linker_0, # of connection points: 2
#     Edge 106, Type (0, 0), BuildingBlock: ZUJKAS_clean_linker_0, # of connection points: 2
#     Edge 107, Type (0, 0), BuildingBlock: ZUJKAS_clean_linker_0, # of connection points: 2
#     Edge 108, Type (0, 0), BuildingBlock: ZUJKAS_clean_linker_0, # of connection points: 2
#     Edge 109, Type (0, 0), BuildingBlock: ZUJKAS_clean_linker_0, # of connection points: 2
#     Edge 110, Type (0, 0), BuildingBlock: ZUJKAS_clean_linker_0, # of connection points: 2
#     Edge 111, Type (0, 0), BuildingBlock: ZUJKAS_clean_linker_0, # of connection points: 2
#     Edge 112, Type (0, 0), BuildingBlock: ZUJKAS_clean_linker_0, # of connection points: 2
#     Edge 113, Type (0, 0), BuildingBlock: ZUJKAS_clean_linker_0, # of connection points: 2
#     Edge 114, Type (0, 0), BuildingBlock: ZUJKAS_clean_linker_0, # of connection points: 2
#     Edge 115, Type (0, 0), BuildingBlock: ZUJKAS_clean_linker_0, # of connection points: 2
#     Edge 116, Type (0, 0), BuildingBlock: ZUJKAS_clean_linker_0, # of connection points: 2
#     Edge 117, Type (0, 0), BuildingBlock: ZUJKAS_clean_linker_0, # of connection points: 2
#     Edge 118, Type (0, 0), BuildingBlock: ZUJKAS_clean_linker_0, # of connection points: 2
#     Edge 119, Type (0, 0), BuildingBlock: ZUJKAS_clean_linker_0, # of connection points: 2
#     Edge 120, Type (0, 0), BuildingBlock: ZUJKAS_clean_linker_0, # of connection points: 2
#     Edge 121, Type (0, 0), BuildingBlock: ZUJKAS_clean_linker_0, # of connection points: 2
#     Edge 122, Type (0, 0), BuildingBlock: ZUJKAS_clean_linker_0, # of connection points: 2
#     Edge 123, Type (0, 0), BuildingBlock: ZUJKAS_clean_linker_0, # of connection points: 2
#     Edge 124, Type (0, 0), BuildingBlock: ZUJKAS_clean_linker_0, # of connection points: 2
#     Edge 125, Type (0, 0), BuildingBlock: ZUJKAS_clean_linker_0, # of connection points: 2
#     Edge 126, Type (0, 0), BuildingBlock: ZUJKAS_clean_linker_0, # of connection points: 2
#     Edge 127, Type (0, 0), BuildingBlock: ZUJKAS_clean_linker_0, # of connection points: 2
#     Edge 128, Type (0, 0), BuildingBlock: ZUJKAS_clean_linker_0, # of connection points: 2
#     Edge 129, Type (0, 0), BuildingBlock: ZUJKAS_clean_linker_0, # of connection points: 2
#     Edge 130, Type (0, 0), BuildingBlock: ZUJKAS_clean_linker_0, # of connection points: 2
#     Edge 131, Type (0, 0), BuildingBlock: ZUJKAS_clean_linker_0, # of connection points: 2
#     Edge 132, Type (0, 0), BuildingBlock: ZUJKAS_clean_linker_0, # of connection points: 2
#     Edge 133, Type (0, 0), BuildingBlock: ZUJKAS_clean_linker_0, # of connection points: 2
#     Edge 134, Type (0, 0), BuildingBlock: ZUJKAS_clean_linker_0, # of connection points: 2
#     Edge 135, Type (0, 0), BuildingBlock: ZUJKAS_clean_linker_0, # of connection points: 2
#     Edge 136, Type (0, 0), BuildingBlock: ZUJKAS_clean_linker_0, # of connection points: 2
#     Edge 137, Type (0, 0), BuildingBlock: ZUJKAS_clean_linker_0, # of connection points: 2
#     Edge 138, Type (0, 0), BuildingBlock: ZUJKAS_clean_linker_0, # of connection points: 2
#     Edge 139, Type (0, 0), BuildingBlock: ZUJKAS_clean_linker_0, # of connection points: 2
#     Edge 140, Type (0, 0), BuildingBlock: ZUJKAS_clean_linker_0, # of connection points: 2
#     Edge 141, Type (0, 0), BuildingBlock: ZUJKAS_clean_linker_0, # of connection points: 2
#     Edge 142, Type (0, 0), BuildingBlock: ZUJKAS_clean_linker_0, # of connection points: 2
#     Edge 143, Type (0, 0), BuildingBlock: ZUJKAS_clean_linker_0, # of connection points: 2
# Relax obj value: 0.765
# Max RMSD: 0.365
# Mean RMSD: 0.337
data_MOF--net-lcv-a--node1-QUQFOY_clean_sbu_1--edge1-ZUJKAS_clean_linker_0
_symmetry_space_group_name_H-M    P1
_symmetry_Int_Tables_number       1
_symmetry_cell_setting            triclinic
loop_
_symmetry_equiv_pos_as_xyz
'x, y, z'
_cell_length_a     118.32139
_cell_length_b     118.31352
_cell_length_c     118.30129
_cell_angle_alpha  89.447975
_cell_angle_beta   89.497619
_cell_angle_gamma 89.496898
loop_
_atom_site_label
_atom_site_type_symbol
_atom_site_fract_x
_atom_site_fract_y
_atom_site_fract_z
_atom_type_partial_charge
O0 O 0.99131 0.36605 0.20921 0.0
Cd1 Cd 0.00763 0.36274 0.21399 0.0
Cd2 Cd 0.99671 0.34621 0.22521 0.0
O3 O 0.98206 0.3549 0.22111 0.0
O4 O 0.015 0.37776 0.21155 0.0
O5 O 0.01194 0.37024 0.22848 0.0
C6 C 0.01489 0.37887 0.22241 0.0
C7 C 0.00277 0.34166 0.24329 0.0
C8 C 0.98211 0.3627 0.21365 0.0
C9 C 0.01261 0.33907 0.20649 0.0
O10 O 0.00437 0.33643 0.21294 0.0
O11 O 0.01615 0.34924 0.20612 0.0
O12 O 0.99456 0.33624 0.23876 0.0
O13 O 0.00682 0.35027 0.23789 0.0
O14 O 0.98405 0.73858 0.45798 0.0
Cd15 Cd 0.98721 0.75341 0.46604 0.0
Cd16 Cd 0.00168 0.73932 0.47508 0.0
O17 O 0.99042 0.72664 0.47093 0.0
O18 O 0.97284 0.76244 0.46381 0.0
O19 O 0.97796 0.75521 0.48029 0.0
C20 C 0.97032 0.76014 0.47423 0.0
C21 C 0.0072 0.74749 0.49182 0.0
C22 C 0.98472 0.72863 0.46205 0.0
C23 C 0.01102 0.75548 0.45867 0.0
O24 O 0.01154 0.74525 0.46201 0.0
O25 O 0.00227 0.76148 0.46103 0.0
O26 O 0.01165 0.73797 0.48867 0.0
O27 O 0.99867 0.75136 0.48623 0.0
O28 O 0.5987 0.73739 0.70123 0.0
Cd29 Cd 0.58237 0.73861 0.70657 0.0
Cd30 Cd 0.59173 0.75548 0.71775 0.0
O31 O 0.60697 0.74683 0.71484 0.0
O32 O 0.57635 0.72291 0.70431 0.0
O33 O 0.57937 0.73023 0.72111 0.0
C34 C 0.57698 0.72151 0.71513 0.0
C35 C 0.58259 0.75963 0.73468 0.0
C36 C 0.60756 0.74031 0.70636 0.0
C37 C 0.57679 0.76171 0.69824 0.0
O38 O 0.58493 0.76469 0.70447 0.0
O39 O 0.57321 0.75155 0.69861 0.0
O40 O 0.59123 0.76545 0.73135 0.0
O41 O 0.58 0.75081 0.72896 0.0
O42 O 0.59629 0.35182 0.95777 0.0
Cd43 Cd 0.59461 0.33552 0.96348 0.0
Cd44 Cd 0.57544 0.34645 0.97164 0.0
O45 O 0.58198 0.3614 0.96523 0.0
O46 O 0.61039 0.32963 0.96057 0.0
O47 O 0.60309 0.33118 0.97769 0.0
C48 C 0.61179 0.3292 0.97136 0.0
C49 C 0.57399 0.33978 0.99002 0.0
C50 C 0.59098 0.36106 0.95927 0.0
C51 C 0.572 0.32837 0.95427 0.0
O52 O 0.56772 0.33636 0.96005 0.0
O53 O 0.58256 0.32604 0.95481 0.0
O54 O 0.56622 0.34638 0.98593 0.0
O55 O 0.58298 0.33806 0.984 0.0
O56 O 0.98533 0.73663 0.37269 0.0
Cd57 Cd 0.00172 0.73831 0.36742 0.0
Cd58 Cd 0.99208 0.75696 0.35906 0.0
O59 O 0.97659 0.74927 0.36198 0.0
O60 O 0.0078 0.72255 0.36973 0.0
O61 O 0.0053 0.73024 0.35285 0.0
C62 C 0.00758 0.72138 0.35889 0.0
C63 C 0.00175 0.76205 0.34276 0.0
C64 C 0.97627 0.74105 0.36898 0.0
C65 C 0.00778 0.76035 0.37809 0.0
O66 O 0.99932 0.76436 0.3728 0.0
O67 O 0.01115 0.75021 0.3763 0.0
O68 O 0.99329 0.76809 0.34633 0.0
O69 O 0.00361 0.7524 0.34764 0.0
O70 O 0.59106 0.73383 0.63201 0.0
Cd71 Cd 0.58796 0.74921 0.62456 0.0
Cd72 Cd 0.57233 0.73637 0.61662 0.0
O73 O 0.58348 0.72292 0.61918 0.0
O74 O 0.60286 0.75695 0.62669 0.0
O75 O 0.59659 0.7519 0.60996 0.0
C76 C 0.60476 0.75562 0.61602 0.0
C77 C 0.56622 0.745 0.60003 0.0
C78 C 0.58984 0.72415 0.62768 0.0
C79 C 0.56525 0.75237 0.63428 0.0
O80 O 0.56389 0.74235 0.63077 0.0
O81 O 0.57391 0.758 0.63112 0.0
O82 O 0.56147 0.73584 0.60371 0.0
O83 O 0.57507 0.74849 0.60521 0.0
O84 O 0.60396 0.33487 0.85842 0.0
Cd85 Cd 0.59141 0.33964 0.86914 0.0
Cd86 Cd 0.60394 0.31393 0.86079 0.0
O87 O 0.61821 0.32406 0.861 0.0
O88 O 0.5937 0.35522 0.87501 0.0
O89 O 0.58147 0.35111 0.86154 0.0
C90 C 0.58671 0.35865 0.86733 0.0
C91 C 0.59351 0.30772 0.84555 0.0
C92 C 0.61402 0.33389 0.86178 0.0
C93 C 0.58876 0.31671 0.88246 0.0
O94 O 0.59599 0.31148 0.87629 0.0
O95 O 0.58547 0.32692 0.88042 0.0
O96 O 0.6016 0.30153 0.84966 0.0
O97 O 0.59209 0.31778 0.8495 0.0
O98 O 0.9635 0.34687 0.13082 0.0
Cd99 Cd 0.96642 0.33037 0.12626 0.0
Cd100 Cd 0.98481 0.34 0.11925 0.0
O101 O 0.97605 0.35512 0.1197 0.0
O102 O 0.95089 0.32394 0.12645 0.0
O103 O 0.96065 0.3271 0.11071 0.0
C104 C 0.95114 0.32458 0.11555 0.0
C105 C 0.99463 0.33198 0.10421 0.0
C106 C 0.96754 0.35575 0.1263 0.0
C107 C 0.98682 0.32532 0.13961 0.0
O108 O 0.99046 0.33413 0.13461 0.0
O109 O 0.97759 0.32089 0.13641 0.0
O110 O 0.99843 0.34079 0.10927 0.0
O111 O 0.98469 0.32841 0.10703 0.0
O112 O 0.23352 0.98695 0.34132 0.0
Cd113 Cd 0.22105 0.99801 0.34543 0.0
Cd114 Cd 0.234 0.98725 0.3204 0.0
O115 O 0.23397 0.9727 0.3304 0.0
O116 O 0.21361 0.99413 0.36019 0.0
O117 O 0.22611 0.0079 0.35801 0.0
C118 C 0.22002 1.00163 0.36467 0.0
C119 C 0.24891 0.99883 0.31523 0.0
C120 C 0.23154 0.97655 0.34006 0.0
C121 C 0.21063 1.00044 0.32131 0.0
O122 O 0.21822 0.99414 0.3168 0.0
O123 O 0.21083 0.00345 0.33174 0.0
O124 O 0.24576 0.99077 0.30867 0.0
O125 O 0.24424 0.99956 0.32511 0.0
O126 O 0.34967 0.95484 0.6023 0.0
Cd127 Cd 0.33366 0.96116 0.60018 0.0
Cd128 Cd 0.3443 0.96966 0.58251 0.0
O129 O 0.35931 0.96615 0.59088 0.0
O130 O 0.32706 0.96042 0.61585 0.0
O131 O 0.33127 0.97647 0.60714 0.0
C132 C 0.32825 0.97125 0.61631 0.0
C133 C 0.33725 0.98638 0.575 0.0
C134 C 0.35903 0.95862 0.59863 0.0
C135 C 0.32774 0.9512 0.5782 0.0
O136 O 0.33663 0.95623 0.57487 0.0
O137 O 0.32387 0.95288 0.58816 0.0
O138 O 0.3454 0.98097 0.57001 0.0
O139 O 0.33417 0.98304 0.58498 0.0
O140 O 0.37766 0.104 0.84348 0.0
Cd141 Cd 0.37214 0.08803 0.84035 0.0
Cd142 Cd 0.36403 0.10022 0.82267 0.0
O143 O 0.36856 0.11472 0.83112 0.0
O144 O 0.37453 0.0805 0.85549 0.0
O145 O 0.35762 0.08392 0.84847 0.0
C146 C 0.36371 0.08077 0.85695 0.0
C147 C 0.34647 0.09308 0.81833 0.0
C148 C 0.37505 0.11369 0.83959 0.0
C149 C 0.38241 0.08346 0.8174 0.0
O150 O 0.37689 0.09215 0.81413 0.0
O151 O 0.38107 0.07955 0.82744 0.0
O152 O 0.35077 0.10123 0.81236 0.0
O153 O 0.35166 0.08996 0.82743 0.0
O154 O 0.24078 0.09882 0.08527 0.0
Cd155 Cd 0.25459 0.1074 0.08994 0.0
Cd156 Cd 0.24193 0.09857 0.0643 0.0
O157 O 0.22761 0.10286 0.07368 0.0
O158 O 0.25186 0.11532 0.10456 0.0
O159 O 0.26224 0.09969 0.103 0.0
C160 C 0.25723 0.10704 0.10941 0.0
C161 C 0.24938 0.0814 0.05878 0.0
C162 C 0.23149 0.10388 0.08353 0.0
C163 C 0.26133 0.11656 0.06575 0.0
O164 O 0.25326 0.11143 0.06089 0.0
O165 O 0.26335 0.11547 0.0764 0.0
O166 O 0.24232 0.08684 0.05235 0.0
O167 O 0.25091 0.08507 0.06891 0.0
O168 O 0.20161 0.10163 0.23709 0.0
Cd169 Cd 0.211 0.08723 0.2398 0.0
Cd170 Cd 0.21751 0.10077 0.25617 0.0
O171 O 0.21211 0.11406 0.2459 0.0
O172 O 0.21054 0.07947 0.22466 0.0
O173 O 0.22596 0.08713 0.23148 0.0
C174 C 0.2209 0.08252 0.22311 0.0
C175 C 0.23542 0.09456 0.26123 0.0
C176 C 0.20414 0.11181 0.23916 0.0
C177 C 0.20257 0.08189 0.26292 0.0
O178 O 0.20505 0.09215 0.26478 0.0
O179 O 0.2058 0.07722 0.25372 0.0
O180 O 0.23066 0.10286 0.26657 0.0
O181 O 0.23045 0.09079 0.25238 0.0
O182 O 0.22511 0.95612 0.49757 0.0
Cd183 Cd 0.24112 0.96225 0.49696 0.0
Cd184 Cd 0.23179 0.97508 0.51134 0.0
O185 O 0.21913 0.97354 0.49902 0.0
O186 O 0.24684 0.96017 0.48109 0.0
O187 O 0.24201 0.97679 0.48825 0.0
C188 C 0.24482 0.97084 0.47954 0.0
C189 C 0.24069 0.99111 0.51769 0.0
C190 C 0.2175 0.96348 0.49574 0.0
C191 C 0.24605 0.95592 0.51968 0.0
O192 O 0.23682 0.96133 0.52128 0.0
O193 O 0.25104 0.95658 0.51011 0.0
O194 O 0.23104 0.98811 0.5219 0.0
O195 O 0.24457 0.98577 0.50899 0.0
O196 O 0.37445 0.98593 0.74079 0.0
Cd197 Cd 0.36811 0.00188 0.74272 0.0
Cd198 Cd 0.35827 0.99054 0.75986 0.0
O199 O 0.36254 0.97585 0.75117 0.0
O200 O 0.37066 0.00875 0.72726 0.0
O201 O 0.35373 0.00478 0.73412 0.0
C202 C 0.35993 0.00779 0.7256 0.0
C203 C 0.34094 0.99877 0.76401 0.0
C204 C 0.37056 0.97645 0.74396 0.0
C205 C 0.37626 0.00706 0.76588 0.0
O206 O 0.37092 0.9982 0.76878 0.0
O207 O 0.37543 0.01103 0.75583 0.0
O208 O 0.34472 0.99044 0.77011 0.0
O209 O 0.3464 1.00136 0.75486 0.0
O210 O 0.35148 0.12042 0.98132 0.0
Cd211 Cd 0.33709 0.11221 0.98636 0.0
Cd212 Cd 0.35284 0.10702 0.00263 0.0
O213 O 0.36515 0.1123 0.99122 0.0
O214 O 0.32779 0.1138 0.97223 0.0
O215 O 0.33507 0.09755 0.97803 0.0
C216 C 0.33017 0.10334 0.97016 0.0
C217 C 0.34633 0.08912 0.0072 0.0
C218 C 0.36192 0.11874 0.98317 0.0
C219 C 0.33377 0.12173 0.00967 0.0
O220 O 0.34422 0.11959 0.01104 0.0
O221 O 0.3286 0.11815 1.00096 0.0
O222 O 0.35452 0.09342 0.01288 0.0
O223 O 0.34283 0.09455 0.99839 0.0
O224 O 0.35766 0.2125 0.97924 0.0
Cd225 Cd 0.35462 0.21621 0.99579 0.0
Cd226 Cd 0.33527 0.22216 0.98546 0.0
O227 O 0.34378 0.22099 0.97008 0.0
O228 O 0.37011 0.21407 0.00226 0.0
O229 O 0.36178 0.23077 1.00077 0.0
C230 C 0.37077 0.22492 0.00291 0.0
C231 C 0.32928 0.23745 0.99617 0.0
C232 C 0.3531 0.21552 0.97001 0.0
C233 C 0.33415 0.20195 1.00037 0.0
O234 O 0.32976 0.20701 0.99194 0.0
O235 O 0.34358 0.20526 0.0043 0.0
O236 O 0.33924 0.23309 0.99741 0.0
O237 O 0.32318 0.23389 0.98792 0.0
O238 O 0.82977 0.37872 0.10284 0.0
Cd239 Cd 0.82773 0.37363 0.08656 0.0
Cd240 Cd 0.80935 0.36434 0.09756 0.0
O241 O 0.81758 0.36827 0.11251 0.0
O242 O 0.84332 0.37598 0.07991 0.0
O243 O 0.83583 0.35915 0.08256 0.0
C244 C 0.84455 0.36513 0.07997 0.0
C245 C 0.80668 0.34667 0.08977 0.0
C246 C 0.82569 0.37525 0.11218 0.0
C247 C 0.80486 0.38307 0.08062 0.0
O248 O 0.80109 0.37721 0.08889 0.0
O249 O 0.81521 0.38228 0.07753 0.0
O250 O 0.79966 0.35048 0.0973 0.0
O251 O 0.81559 0.35251 0.08755 0.0
O252 O 0.95621 0.59795 0.34817 0.0
Cd253 Cd 0.96388 0.59513 0.33288 0.0
Cd254 Cd 0.96999 0.57636 0.34562 0.0
O255 O 0.96277 0.58445 0.35946 0.0
O256 O 0.96263 0.61053 0.32547 0.0
O257 O 0.97888 0.60291 0.33055 0.0
C258 C 0.97336 0.61162 0.32689 0.0
C259 C 0.98856 0.57321 0.34023 0.0
C260 C 0.95689 0.59338 0.35789 0.0
C261 C 0.95454 0.57241 0.32615 0.0
O262 O 0.95884 0.5685 0.3352 0.0
O263 O 0.95618 0.58267 0.32308 0.0
O264 O 0.98364 0.56631 0.34722 0.0
O265 O 0.9833 0.58242 0.3375 0.0
O266 O 0.73295 0.71028 0.60017 0.0
Cd267 Cd 0.73481 0.71912 0.58529 0.0
Cd268 Cd 0.75258 0.72446 0.59755 0.0
O269 O 0.74411 0.71913 0.61196 0.0
O270 O 0.71941 0.71718 0.57854 0.0
O271 O 0.72568 0.73366 0.58428 0.0
C272 C 0.71738 0.72768 0.58072 0.0
C273 C 0.7577 0.74132 0.58905 0.0
C274 C 0.73649 0.71187 0.61013 0.0
C275 C 0.75713 0.70925 0.57886 0.0
O276 O 0.75968 0.71131 0.58902 0.0
O277 O 0.748 0.71327 0.57463 0.0
O278 O 0.76381 0.73701 0.59708 0.0
O279 O 0.74793 0.73691 0.58721 0.0
O280 O 0.13097 0.98622 0.35328 0.0
Cd281 Cd 0.12281 0.98884 0.33821 0.0
Cd282 Cd 0.11574 0.00609 0.3514 0.0
O283 O 0.12162 0.99714 0.36528 0.0
O284 O 0.12467 0.9737 0.33061 0.0
O285 O 0.10824 0.98021 0.33677 0.0
C286 C 0.11409 0.97192 0.33271 0.0
C287 C 0.09808 0.01015 0.34415 0.0
C288 C 0.12898 0.98948 0.36331 0.0
C289 C 0.1315 0.01197 0.33271 0.0
O290 O 0.12813 0.01436 0.34263 0.0
O291 O 0.12891 0.0025 0.3283 0.0
O292 O 0.1022 0.01642 0.35201 0.0
O293 O 0.10341 1.00094 0.34163 0.0
O294 O 0.23248 0.88037 0.48797 0.0
Cd295 Cd 0.23596 0.87254 0.50307 0.0
Cd296 Cd 0.25348 0.86629 0.48949 0.0
O297 O 0.24367 0.87151 0.47586 0.0
O298 O 0.22086 0.87359 0.51111 0.0
O299 O 0.22809 0.85755 0.50489 0.0
C300 C 0.21954 0.86299 0.50904 0.0
C301 C 0.25842 0.84882 0.49696 0.0
C302 C 0.23553 0.87833 0.47786 0.0
C303 C 0.25899 0.88187 0.50803 0.0
O304 O 0.26152 0.87879 0.49806 0.0
O305 O 0.24946 0.87912 0.51245 0.0
O306 O 0.26424 0.85309 0.48866 0.0
O307 O 0.2491 0.85382 0.49979 0.0
O308 O 0.96711 0.50155 0.23457 0.0
Cd309 Cd 0.97431 0.50463 0.2499 0.0
Cd310 Cd 0.9829 0.52044 0.23631 0.0
O311 O 0.97929 0.50979 0.22297 0.0
O312 O 0.97185 0.48982 0.25809 0.0
O313 O 0.98871 0.49593 0.25288 0.0
C314 C 0.98255 0.48788 0.25688 0.0
C315 C 0.99977 0.52513 0.24481 0.0
C316 C 0.971 0.5032 0.22467 0.0
C317 C 0.96548 0.52786 0.25289 0.0
O318 O 0.9694 0.52935 0.24294 0.0
O319 O 0.96793 0.51883 0.25842 0.0
O320 O 0.99649 0.53054 0.23584 0.0
O321 O 0.99406 0.51642 0.24801 0.0
O322 O 0.60072 0.58476 0.732 0.0
Cd323 Cd 0.61073 0.58989 0.74465 0.0
Cd324 Cd 0.60234 0.56399 0.73316 0.0
O325 O 0.60319 0.5735 0.71827 0.0
O326 O 0.61647 0.60505 0.74036 0.0
O327 O 0.60337 0.60235 0.75362 0.0
C328 C 0.60891 0.60926 0.74712 0.0
C329 C 0.58719 0.55812 0.74416 0.0
C330 C 0.60462 0.5833 0.72213 0.0
C331 C 0.62402 0.56709 0.74807 0.0
O332 O 0.61762 0.5618 0.74129 0.0
O333 O 0.6223 0.57746 0.75089 0.0
O334 O 0.59129 0.55166 0.73633 0.0
O335 O 0.59093 0.56833 0.7448 0.0
O336 O 0.48101 0.84567 0.71169 0.0
Cd337 Cd 0.49573 0.84215 0.72009 0.0
Cd338 Cd 0.48209 0.82597 0.72704 0.0
O339 O 0.46881 0.83664 0.72267 0.0
O340 O 0.50403 0.85693 0.71902 0.0
O341 O 0.49673 0.85026 0.73495 0.0
C342 C 0.50137 0.85853 0.7295 0.0
C343 C 0.48929 0.81975 0.74412 0.0
C344 C 0.47091 0.84376 0.71481 0.0
C345 C 0.50009 0.81922 0.71108 0.0
O346 O 0.48983 0.81766 0.7139 0.0
O347 O 0.50514 0.82814 0.71426 0.0
O348 O 0.48066 0.81477 0.73979 0.0
O349 O 0.49272 0.82901 0.73943 0.0
O350 O 0.50568 0.23475 0.98534 0.0
Cd351 Cd 0.50238 0.24894 0.97624 0.0
Cd352 Cd 0.52668 0.23354 0.98372 0.0
O353 O 0.51563 0.22021 0.98136 0.0
O354 O 0.4869 0.24897 0.96974 0.0
O355 O 0.4917 0.25882 0.98485 0.0
C356 C 0.48392 0.25525 0.97818 0.0
C357 C 0.53279 0.2417 1.0003 0.0
C358 C 0.50611 0.22511 0.98085 0.0
C359 C 0.52595 0.25178 0.96434 0.0
O360 O 0.53035 0.24329 0.9695 0.0
O361 O 0.51592 0.25549 0.96649 0.0
O362 O 0.53872 0.23382 0.99549 0.0
O363 O 0.52293 0.24405 0.99625 0.0
O364 O 0.08578 0.23627 0.22833 0.0
Cd365 Cd 0.07504 0.22932 0.21727 0.0
Cd366 Cd 0.08388 0.25702 0.23053 0.0
O367 O 0.09906 0.24844 0.22837 0.0
O368 O 0.08072 0.21503 0.21031 0.0
O369 O 0.06784 0.21562 0.22407 0.0
C370 C 0.07462 0.20972 0.21776 0.0
C371 C 0.07884 0.26781 0.24592 0.0
C372 C 0.09598 0.23853 0.22604 0.0
C373 C 0.06611 0.25244 0.20959 0.0
O374 O 0.07232 0.25694 0.21712 0.0
O375 O 0.06581 0.24168 0.2082 0.0
O376 O 0.08465 0.27209 0.23762 0.0
O377 O 0.07658 0.25712 0.24573 0.0
O378 O 0.09613 0.85349 0.45642 0.0
Cd379 Cd 0.09405 0.8374 0.46242 0.0
Cd380 Cd 0.07533 0.84795 0.47029 0.0
O381 O 0.08374 0.86299 0.46681 0.0
O382 O 0.10975 0.8308 0.46109 0.0
O383 O 0.1015 0.83448 0.47746 0.0
C384 C 0.11051 0.8316 0.47194 0.0
C385 C 0.07019 0.83946 0.48727 0.0
C386 C 0.09199 0.86279 0.45983 0.0
C387 C 0.07184 0.83118 0.45214 0.0
O388 O 0.06787 0.83992 0.45698 0.0
O389 O 0.08192 0.82777 0.45407 0.0
O390 O 0.06416 0.84764 0.48309 0.0
O391 O 0.07976 0.83716 0.48245 0.0
O392 O 0.48493 0.23629 0.87904 0.0
Cd393 Cd 0.50011 0.23758 0.87065 0.0
Cd394 Cd 0.4882 0.25597 0.86341 0.0
O395 O 0.47387 0.24881 0.8705 0.0
O396 O 0.50665 0.22179 0.8721 0.0
O397 O 0.501 0.22919 0.8559 0.0
C398 C 0.50451 0.22047 0.86151 0.0
C399 C 0.49448 0.25943 0.8452 0.0
C400 C 0.47526 0.2408 0.87762 0.0
C401 C 0.5077 0.26025 0.87865 0.0
O402 O 0.49831 0.26376 0.87478 0.0
O403 O 0.51096 0.25006 0.87693 0.0
O404 O 0.4873 0.26629 0.84991 0.0
O405 O 0.49668 0.24999 0.85031 0.0
O406 O 0.10771 0.23673 0.12824 0.0
Cd407 Cd 0.10552 0.25317 0.12256 0.0
Cd408 Cd 0.08652 0.24388 0.11751 0.0
O409 O 0.09401 0.22825 0.11922 0.0
O410 O 0.12114 0.2593 0.12294 0.0
O411 O 0.11191 0.25664 0.10704 0.0
C412 C 0.12117 0.25927 0.11205 0.0
C413 C 0.07665 0.25177 0.1025 0.0
C414 C 0.10272 0.22772 0.12542 0.0
C415 C 0.08617 0.25964 0.13682 0.0
O416 O 0.08185 0.25086 0.13263 0.0
O417 O 0.09536 0.26352 0.13272 0.0
O418 O 0.07243 0.24362 0.10848 0.0
O419 O 0.08702 0.25457 0.10431 0.0
O420 O 0.10641 0.84757 0.38153 0.0
Cd421 Cd 0.09126 0.84369 0.37434 0.0
Cd422 Cd 0.10499 0.82724 0.36778 0.0
O423 O 0.11826 0.83821 0.37045 0.0
O424 O 0.08273 0.85845 0.37557 0.0
O425 O 0.08891 0.8516 0.35934 0.0
C426 C 0.08455 0.85994 0.36487 0.0
C427 C 0.09681 0.82092 0.35127 0.0
C428 C 0.11638 0.84564 0.37795 0.0
C429 C 0.08822 0.82135 0.38534 0.0
O430 O 0.09836 0.8197 0.38208 0.0
O431 O 0.08263 0.82989 0.38162 0.0
O432 O 0.1056 0.81578 0.35535 0.0
O433 O 0.0935 0.83017 0.35599 0.0
O434 O 0.48135 0.84953 0.62604 0.0
Cd435 Cd 0.48312 0.83416 0.61847 0.0
Cd436 Cd 0.49974 0.84586 0.60919 0.0
O437 O 0.49073 0.86027 0.61386 0.0
O438 O 0.46766 0.82738 0.6205 0.0
O439 O 0.47441 0.8331 0.60397 0.0
C440 C 0.46593 0.82959 0.60993 0.0
C441 C 0.5047 0.83811 0.592 0.0
C442 C 0.48401 0.85923 0.62226 0.0
C443 C 0.50633 0.82826 0.62599 0.0
O444 O 0.50871 0.83786 0.62174 0.0
O445 O 0.49652 0.82407 0.62453 0.0
O446 O 0.51031 0.84654 0.59592 0.0
O447 O 0.49543 0.8353 0.5971 0.0
O448 O 0.70289 0.47854 0.83176 0.0
Cd449 Cd 0.71084 0.49373 0.83152 0.0
Cd450 Cd 0.72128 0.48294 0.8161 0.0
O451 O 0.71858 0.46948 0.82748 0.0
O452 O 0.70852 0.50001 0.84715 0.0
O453 O 0.72496 0.49357 0.84079 0.0
C454 C 0.7189 0.4972 0.84915 0.0
C455 C 0.7378 0.49257 0.81159 0.0
C456 C 0.7087 0.46949 0.83183 0.0
C457 C 0.70399 0.49923 0.80873 0.0
O458 O 0.7076 0.48921 0.80703 0.0
O459 O 0.70636 0.50414 0.81797 0.0
O460 O 0.73528 0.4834 0.80632 0.0
O461 O 0.73149 0.49551 0.82001 0.0
O462 O 0.8467 0.45451 0.09911 0.0
Cd463 Cd 0.83243 0.46327 0.09443 0.0
Cd464 Cd 0.84726 0.46784 0.07788 0.0
O465 O 0.85994 0.46297 0.08893 0.0
O466 O 0.82348 0.46344 0.10899 0.0
O467 O 0.83107 0.47872 0.10136 0.0
C468 C 0.82605 0.47398 0.10986 0.0
C469 C 0.84181 0.48557 0.07132 0.0
C470 C 0.85706 0.45629 0.0969 0.0
C471 C 0.82848 0.45246 0.07222 0.0
O472 O 0.83877 0.45488 0.07027 0.0
O473 O 0.82339 0.45648 0.0809 0.0
O474 O 0.8501 0.48021 0.06649 0.0
O475 O 0.83752 0.48126 0.08043 0.0
O476 O 0.85678 0.60749 0.32831 0.0
Cd477 Cd 0.86759 0.59511 0.33337 0.0
Cd478 Cd 0.8591 0.60772 0.3075 0.0
O479 O 0.85897 0.62196 0.31763 0.0
O480 O 0.87374 0.59796 0.34869 0.0
O481 O 0.86052 0.58526 0.34528 0.0
C482 C 0.86643 0.59077 0.35251 0.0
C483 C 0.84432 0.59781 0.29988 0.0
C484 C 0.85991 0.61766 0.32741 0.0
C485 C 0.88099 0.5926 0.31071 0.0
O486 O 0.87465 0.5997 0.30553 0.0
O487 O 0.87906 0.58925 0.32091 0.0
O488 O 0.84937 0.60562 0.29405 0.0
O489 O 0.84699 0.59642 0.31038 0.0
O490 O 0.72891 0.6045 0.5841 0.0
Cd491 Cd 0.74169 0.61448 0.58905 0.0
Cd492 Cd 0.73128 0.6044 0.56308 0.0
O493 O 0.71628 0.60794 0.57172 0.0
O494 O 0.73958 0.62038 0.60468 0.0
O495 O 0.75122 0.60623 0.60031 0.0
C496 C 0.74626 0.6123 0.60797 0.0
C497 C 0.73974 0.58719 0.559 0.0
C498 C 0.71943 0.60892 0.58186 0.0
C499 C 0.74789 0.62503 0.5654 0.0
O500 O 0.74168 0.61814 0.56004 0.0
O501 O 0.7489 0.62474 0.57622 0.0
O502 O 0.73318 0.59213 0.55172 0.0
O503 O 0.74054 0.59157 0.56893 0.0
O504 O 0.70661 0.59959 0.73662 0.0
Cd505 Cd 0.71517 0.58477 0.7395 0.0
Cd506 Cd 0.72144 0.5983 0.75644 0.0
O507 O 0.71574 0.61195 0.74695 0.0
O508 O 0.71382 0.57691 0.72453 0.0
O509 O 0.72983 0.58384 0.73078 0.0
C510 C 0.72423 0.57955 0.72259 0.0
C511 C 0.73903 0.59096 0.76086 0.0
C512 C 0.7085 0.60973 0.73941 0.0
C513 C 0.70586 0.57969 0.76244 0.0
O514 O 0.70881 0.58973 0.7646 0.0
O515 O 0.70905 0.57503 0.75321 0.0
O516 O 0.73466 0.59896 0.76693 0.0
O517 O 0.73399 0.5883 0.75165 0.0
O518 O 0.73579 0.485 0.98809 0.0
Cd519 Cd 0.74583 0.47189 0.9834 0.0
Cd520 Cd 0.73772 0.48711 0.00868 0.0
O521 O 0.72246 0.48728 1.00017 0.0
O522 O 0.74015 0.46475 0.9694 0.0
O523 O 0.75522 0.47576 0.96972 0.0
C524 C 0.74783 0.47032 0.96392 0.0
C525 C 0.74908 0.50174 0.01421 0.0
C526 C 0.7255 0.48347 0.99066 0.0
C527 C 0.74939 0.46244 0.00765 0.0
O528 O 0.74458 0.47118 0.01188 0.0
O529 O 0.7511 0.46138 0.99695 0.0
O530 O 0.74116 0.49798 0.02085 0.0
O531 O 0.74969 0.4979 0.00401 0.0
O532 O 0.87912 0.4892 0.23035 0.0
Cd533 Cd 0.87002 0.50365 0.23401 0.0
Cd534 Cd 0.86506 0.48959 0.25081 0.0
O535 O 0.87068 0.47631 0.241 0.0
O536 O 0.86994 0.51192 0.21906 0.0
O537 O 0.85468 0.50439 0.22676 0.0
C538 C 0.85945 0.50917 0.21814 0.0
C539 C 0.84756 0.4951 0.25757 0.0
C540 C 0.8776 0.47892 0.23313 0.0
C541 C 0.88 0.50876 0.25624 0.0
O542 O 0.87768 0.49848 0.25832 0.0
O543 O 0.87624 0.51355 0.24729 0.0
O544 O 0.8533 0.48734 0.26282 0.0
O545 O 0.85116 0.49856 0.24783 0.0
O546 O 0.85147 0.60734 0.49236 0.0
Cd547 Cd 0.83859 0.6171 0.48677 0.0
Cd548 Cd 0.8485 0.60688 0.51314 0.0
O549 O 0.86378 0.61026 0.505 0.0
O550 O 0.84321 0.62405 0.47217 0.0
O551 O 0.83066 0.61025 0.47358 0.0
C552 C 0.83705 0.61659 0.46728 0.0
C553 C 0.84013 0.58978 0.51748 0.0
C554 C 0.86073 0.61188 0.4949 0.0
C555 C 0.83156 0.62759 0.51005 0.0
O556 O 0.83791 0.62074 0.5156 0.0
O557 O 0.83067 0.62727 0.49922 0.0
O558 O 0.84668 0.5946 0.52467 0.0
O559 O 0.8393 0.59419 0.50747 0.0
O560 O 0.84392 0.71518 0.48059 0.0
Cd561 Cd 0.84018 0.72325 0.49539 0.0
Cd562 Cd 0.82318 0.72848 0.48186 0.0
O563 O 0.83343 0.72444 0.46819 0.0
O564 O 0.85492 0.72201 0.50366 0.0
O565 O 0.84819 0.73816 0.49691 0.0
C566 C 0.85649 0.73259 0.50137 0.0
C567 C 0.8164 0.74467 0.49045 0.0
C568 C 0.84129 0.71738 0.47042 0.0
C569 C 0.81795 0.71229 0.49967 0.0
O570 O 0.81616 0.7146 0.48934 0.0
O571 O 0.82643 0.71655 0.5047 0.0
O572 O 0.81132 0.74068 0.4817 0.0
O573 O 0.82613 0.74041 0.49309 0.0
O574 O 0.3404 0.88267 0.60459 0.0
Cd575 Cd 0.33766 0.87567 0.58917 0.0
Cd576 Cd 0.32219 0.86641 0.60177 0.0
O577 O 0.33388 0.86835 0.61469 0.0
O578 O 0.35259 0.87727 0.58091 0.0
O579 O 0.3461 0.86094 0.58728 0.0
C580 C 0.35432 0.86663 0.58291 0.0
C581 C 0.31641 0.85058 0.59192 0.0
C582 C 0.33969 0.87733 0.61392 0.0
C583 C 0.31453 0.88455 0.58673 0.0
O584 O 0.31347 0.88075 0.59677 0.0
O585 O 0.32318 0.88175 0.58079 0.0
O586 O 0.31173 0.85306 0.60153 0.0
O587 O 0.32498 0.85644 0.58866 0.0
O588 O 0.47759 0.08381 0.85138 0.0
Cd589 Cd 0.46826 0.08943 0.83824 0.0
Cd590 Cd 0.4745 0.06312 0.85104 0.0
O591 O 0.47365 0.07311 0.8654 0.0
O592 O 0.4631 0.10504 0.84171 0.0
O593 O 0.47643 0.1012 0.82896 0.0
C594 C 0.47097 0.1086 0.83495 0.0
C595 C 0.49018 0.05594 0.84154 0.0
C596 C 0.47329 0.08295 0.86117 0.0
C597 C 0.45394 0.06749 0.83479 0.0
O598 O 0.45956 0.06179 0.84211 0.0
O599 O 0.45649 0.07766 0.8318 0.0
O600 O 0.48514 0.05 0.84929 0.0
O601 O 0.48688 0.06628 0.83998 0.0
O602 O 0.24305 0.20923 0.10323 0.0
Cd603 Cd 0.24667 0.21756 0.08844 0.0
Cd604 Cd 0.2651 0.22183 0.10094 0.0
O605 O 0.25636 0.2151 0.1147 0.0
O606 O 0.23191 0.21677 0.08025 0.0
O607 O 0.23921 0.2328 0.08595 0.0
C608 C 0.23086 0.22753 0.08155 0.0
C609 C 0.27055 0.23923 0.09416 0.0
C610 C 0.2475 0.20934 0.11295 0.0
C611 C 0.26871 0.20642 0.0819 0.0
O612 O 0.27255 0.20973 0.09126 0.0
O613 O 0.2589 0.20949 0.07857 0.0
O614 O 0.27625 0.23431 0.10215 0.0
O615 O 0.26084 0.23509 0.09159 0.0
O616 O 0.63437 0.48704 0.85124 0.0
Cd617 Cd 0.62474 0.48856 0.83704 0.0
Cd618 Cd 0.61699 0.50497 0.85015 0.0
O619 O 0.62271 0.49496 0.86357 0.0
O620 O 0.62563 0.47307 0.8299 0.0
O621 O 0.61027 0.47983 0.83822 0.0
C622 C 0.61549 0.47139 0.83368 0.0
C623 C 0.59896 0.50915 0.84362 0.0
C624 C 0.63142 0.48894 0.86139 0.0
C625 C 0.63197 0.51158 0.831 0.0
O626 O 0.62927 0.51354 0.84123 0.0
O627 O 0.62912 0.50226 0.82647 0.0
O628 O 0.60326 0.51514 0.85158 0.0
O629 O 0.60447 0.50032 0.84033 0.0
O630 O 0.73496 0.37733 0.98837 0.0
Cd631 Cd 0.73805 0.36809 0.00285 0.0
Cd632 Cd 0.7549 0.36209 0.98848 0.0
O633 O 0.74552 0.36889 0.97541 0.0
O634 O 0.72302 0.36949 0.01091 0.0
O635 O 0.72956 0.35338 0.00414 0.0
C636 C 0.72129 0.35902 0.00855 0.0
C637 C 0.75909 0.34391 0.99448 0.0
C638 C 0.73791 0.37605 0.97811 0.0
C639 C 0.76123 0.37639 0.00786 0.0
O640 O 0.76335 0.37382 0.99765 0.0
O641 O 0.7519 0.37343 0.01254 0.0
O642 O 0.76502 0.34853 0.98644 0.0
O643 O 0.75008 0.34913 0.99785 0.0
O644 O 0.45785 0.9861 0.73341 0.0
Cd645 Cd 0.46442 0.98895 0.74907 0.0
Cd646 Cd 0.47379 0.00555 0.73552 0.0
O647 O 0.46837 0.99638 0.72174 0.0
O648 O 0.4611 0.97422 0.75718 0.0
O649 O 0.47834 0.97964 0.75264 0.0
C650 C 0.47175 0.97182 0.75639 0.0
C651 C 0.49153 0.00754 0.74328 0.0
C652 C 0.46082 0.98895 0.72346 0.0
C653 C 0.45692 0.01303 0.75304 0.0
O654 O 0.46178 0.01524 0.74365 0.0
O655 O 0.45787 0.00318 0.75754 0.0
O656 O 0.48836 0.01419 0.73513 0.0
O657 O 0.4851 0.99919 0.74598 0.0
O658 O 0.13173 0.08218 0.23052 0.0
Cd659 Cd 0.12374 0.08165 0.24582 0.0
Cd660 Cd 0.11413 0.06572 0.23527 0.0
O661 O 0.11648 0.0769 0.22159 0.0
O662 O 0.12486 0.09747 0.25196 0.0
O663 O 0.109 0.09016 0.24567 0.0
C664 C 0.11438 0.09887 0.24919 0.0
C665 C 0.09783 0.06068 0.24519 0.0
C666 C 0.12606 0.0817 0.22149 0.0
C667 C 0.13162 0.05898 0.25132 0.0
O668 O 0.12816 0.05712 0.24136 0.0
O669 O 0.12884 0.06819 0.25621 0.0
O670 O 0.10063 0.05546 0.236 0.0
O671 O 0.10369 0.06934 0.24797 0.0
H672 H 0.9954 0.32538 0.25815 0.0
H673 H 0.00753 0.31314 0.26965 0.0
H674 H 0.03615 0.33402 0.2611 0.0
H675 H 0.02401 0.34653 0.25023 0.0
H676 H 0.02162 0.30166 0.25843 0.0
H677 H 0.04701 0.32264 0.29042 0.0
H678 H 0.03427 0.32908 0.2849 0.0
H679 H 0.0477 0.33102 0.27777 0.0
C680 C 0.00417 0.32766 0.2592 0.0
C681 C 0.00881 0.33677 0.2531 0.0
C682 C 0.01111 0.32065 0.26579 0.0
C683 C 0.02282 0.32255 0.26621 0.0
C684 C 0.02716 0.33242 0.26117 0.0
H685 H 0.08 0.29079 0.24708 0.0
H686 H 0.06664 0.30312 0.25689 0.0
C687 C 0.02018 0.33956 0.2548 0.0
C688 C 0.0307 0.31309 0.26906 0.0
H689 H 0.05717 0.3078 0.27926 0.0
C690 C 0.02918 0.30285 0.26337 0.0
C691 C 0.04062 0.31457 0.27547 0.0
C692 C 0.04239 0.32491 0.28257 0.0
C693 C 0.03773 0.29462 0.26291 0.0
C694 C 0.04806 0.29657 0.26846 0.0
C695 C 0.04926 0.30635 0.27496 0.0
C696 C 0.05815 0.28956 0.26582 0.0
C697 C 0.03599 0.28439 0.25558 0.0
C698 C 0.0583 0.27792 0.26821 0.0
C699 C 0.06586 0.27079 0.26248 0.0
C700 C 0.07341 0.27526 0.25438 0.0
C701 C 0.07419 0.28706 0.25315 0.0
C702 C 0.06658 0.29415 0.25881 0.0
H703 H 0.028 0.28491 0.25073 0.0
H704 H 0.04312 0.28342 0.24948 0.0
H705 H 0.03568 0.27668 0.26097 0.0
H706 H 0.05195 0.27424 0.27375 0.0
H707 H 0.06516 0.26174 0.26375 0.0
H708 H 0.04851 0.83888 0.49548 0.0
H709 H 0.03925 0.82245 0.50388 0.0
H710 H 0.07141 0.80517 0.5061 0.0
H711 H 0.08072 0.82152 0.49756 0.0
H712 H 0.05642 0.79467 0.49248 0.0
H713 H 0.03535 0.80443 0.53319 0.0
H714 H 0.03256 0.81486 0.52243 0.0
H715 H 0.04676 0.81285 0.52745 0.0
C716 C 0.0537 0.83178 0.49819 0.0
C717 C 0.06534 0.83146 0.49568 0.0
C718 C 0.04838 0.82238 0.50306 0.0
C719 C 0.05462 0.81255 0.50563 0.0
C720 C 0.06642 0.81267 0.5042 0.0
H721 H 0.02774 0.74402 0.50197 0.0
H722 H 0.04008 0.75891 0.50885 0.0
C723 C 0.07173 0.82204 0.49932 0.0
C724 C 0.04871 0.80164 0.50743 0.0
H725 H 0.02782 0.78872 0.5228 0.0
C726 C 0.05038 0.79324 0.49928 0.0
C727 C 0.0407 0.79987 0.5162 0.0
C728 C 0.0388 0.80845 0.52538 0.0
C729 C 0.04385 0.78341 0.49926 0.0
C730 C 0.03561 0.78174 0.50786 0.0
C731 C 0.03421 0.78995 0.51628 0.0
C732 C 0.02752 0.77223 0.50728 0.0
C733 C 0.04532 0.77532 0.48953 0.0
C734 C 0.01609 0.77458 0.50517 0.0
C735 C 0.00897 0.76606 0.50143 0.0
C736 C 0.01319 0.75506 0.49964 0.0
C737 C 0.02425 0.75243 0.50314 0.0
C738 C 0.03135 0.76096 0.50698 0.0
H739 H 0.05039 0.77901 0.48249 0.0
H740 H 0.04976 0.76757 0.49255 0.0
H741 H 0.03699 0.77281 0.48616 0.0
H742 H 0.01291 0.78319 0.50546 0.0
H743 H 1.00046 0.76837 0.49894 0.0
H744 H 0.56183 0.75142 0.7405 0.0
H745 H 0.54665 0.76186 0.74988 0.0
H746 H 0.56991 0.78839 0.75794 0.0
H747 H 0.58512 0.77816 0.74817 0.0
H748 H 0.54101 0.77253 0.77023 0.0
H749 H 0.54873 0.80348 0.73531 0.0
H750 H 0.55558 0.78983 0.73578 0.0
H751 H 0.56047 0.80108 0.74456 0.0
C752 C 0.56384 0.75932 0.74454 0.0
C753 C 0.57464 0.76409 0.74334 0.0
C754 C 0.55512 0.76527 0.74994 0.0
C755 C 0.55707 0.77605 0.75432 0.0
C756 C 0.56816 0.7802 0.75437 0.0
H757 H 0.50618 0.82874 0.75666 0.0
H758 H 0.52265 0.81833 0.76359 0.0
C759 C 0.57687 0.77431 0.74883 0.0
C760 C 0.54728 0.78353 0.75702 0.0
H761 H 0.53326 0.80684 0.74709 0.0
C762 C 0.53938 0.78014 0.7653 0.0
C763 C 0.54509 0.79339 0.75049 0.0
C764 C 0.55284 0.79715 0.74097 0.0
C765 C 0.52926 0.78625 0.76708 0.0
C766 C 0.52698 0.79593 0.76034 0.0
C767 C 0.53507 0.79952 0.75237 0.0
C768 C 0.51582 0.80181 0.76022 0.0
C769 C 0.52104 0.78221 0.77601 0.0
C770 C 0.50617 0.79597 0.75678 0.0
C771 C 0.49666 0.80193 0.75292 0.0
C772 C 0.49676 0.8138 0.75225 0.0
C773 C 0.50587 0.81959 0.75699 0.0
C774 C 0.51532 0.81364 0.76095 0.0
H775 H 0.52546 0.77743 0.78282 0.0
H776 H 0.5163 0.78938 0.77982 0.0
H777 H 0.51489 0.77643 0.7721 0.0
H778 H 0.50638 0.78686 0.75597 0.0
H779 H 0.4898 0.7972 0.74929 0.0
H780 H 0.55435 0.24112 0.00864 0.0
H781 H 0.56427 0.25718 0.01659 0.0
H782 H 0.53295 0.27611 0.01777 0.0
H783 H 0.52298 0.26004 0.01028 0.0
H784 H 0.56516 0.27466 0.00324 0.0
H785 H 0.5484 0.29014 0.04377 0.0
H786 H 0.5459 0.27591 0.03901 0.0
H787 H 0.5369 0.28745 0.03446 0.0
C788 C 0.54948 0.2485 0.01111 0.0
C789 C 0.53792 0.24939 0.00858 0.0
C790 C 0.55517 0.2577 0.01566 0.0
C791 C 0.5494 0.26793 0.01773 0.0
C792 C 0.53762 0.26831 0.01646 0.0
H793 H 0.55355 0.33469 0.99953 0.0
H794 H 0.54945 0.3175 0.01029 0.0
C795 C 0.53191 0.2591 0.01203 0.0
C796 C 0.55574 0.2787 0.01835 0.0
H797 H 0.55507 0.30485 0.03039 0.0
C798 C 0.56325 0.28113 0.00942 0.0
C799 C 0.55318 0.28722 0.02632 0.0
C800 C 0.54573 0.28498 0.03648 0.0
C801 C 0.5675 0.29202 0.00766 0.0
C802 C 0.56438 0.30073 0.01524 0.0
C803 C 0.55746 0.29818 0.0246 0.0
C804 C 0.56699 0.3127 0.01248 0.0
C805 C 0.57453 0.29427 0.99715 0.0
C806 C 0.57821 0.31617 0.01096 0.0
C807 C 0.58059 0.32593 0.00463 0.0
C808 C 0.57175 0.33243 0.99996 0.0
C809 C 0.56054 0.32983 0.00296 0.0
C810 C 0.55818 0.31998 0.00913 0.0
H811 H 0.5745 0.28704 0.99123 0.0
H812 H 0.57136 0.30188 0.99258 0.0
H813 H 0.58341 0.2958 0.99959 0.0
H814 H 0.58513 0.31079 0.0137 0.0
H815 H 0.58932 0.3278 0.00257 0.0
H816 H 1.00131 0.78278 0.33226 0.0
H817 H 0.01785 0.79339 0.32596 0.0
H818 H 0.0388 0.76378 0.33092 0.0
H819 H 0.02231 0.75307 0.33692 0.0
H820 H 0.0334 0.79639 0.34183 0.0
H821 H 0.05486 0.77831 0.3044 0.0
H822 H 0.04029 0.77531 0.30791 0.0
H823 H 0.05157 0.76769 0.3148 0.0
C824 C 0.00934 0.77838 0.33152 0.0
C825 C 0.0105 0.76712 0.33529 0.0
C826 C 0.01881 0.78447 0.32793 0.0
C827 C 0.02961 0.77943 0.32801 0.0
C828 C 0.03058 0.76785 0.33059 0.0
H829 H 0.09581 0.79849 0.34609 0.0
H830 H 0.07975 0.78904 0.3375 0.0
C831 C 0.02109 0.76173 0.33411 0.0
C832 C 0.03986 0.78662 0.3279 0.0
H833 H 0.06662 0.7891 0.31701 0.0
C834 C 0.04055 0.79497 0.33621 0.0
C835 C 0.04929 0.78464 0.32072 0.0
C836 C 0.04894 0.77606 0.31139 0.0
C837 C 0.0505 0.80103 0.33789 0.0
C838 C 0.06003 0.79891 0.33086 0.0
C839 C 0.05929 0.79077 0.32234 0.0
C840 C 0.07097 0.80453 0.333 0.0
C841 C 0.05091 0.80921 0.34761 0.0
C842 C 0.07171 0.81636 0.33263 0.0
C843 C 0.08081 0.82178 0.33766 0.0
C844 C 0.08941 0.81545 0.34295 0.0
C845 C 0.08932 0.8036 0.34208 0.0
C846 C 0.08013 0.79818 0.33718 0.0
H847 H 0.04374 0.80802 0.35363 0.0
H848 H 0.05892 0.80822 0.35235 0.0
H849 H 0.05044 0.81799 0.34427 0.0
H850 H 0.06483 0.82141 0.32925 0.0
H851 H 0.08069 0.83092 0.33811 0.0
H852 H 0.54574 0.74198 0.58988 0.0
H853 H 0.53442 0.75661 0.58046 0.0
H854 H 0.56237 0.77966 0.58227 0.0
H855 H 0.57377 0.76507 0.59143 0.0
H856 H 0.52938 0.77498 0.59253 0.0
H857 H 0.54898 0.78916 0.55239 0.0
H858 H 0.55242 0.77572 0.55894 0.0
H859 H 0.55908 0.78848 0.56358 0.0
C860 C 0.54964 0.75001 0.58785 0.0
C861 C 0.56062 0.7524 0.59154 0.0
C862 C 0.54314 0.75838 0.58247 0.0
C863 C 0.54753 0.76925 0.58062 0.0
C864 C 0.55883 0.7713 0.58338 0.0
H865 H 0.52699 0.83661 0.586 0.0
H866 H 0.53652 0.81939 0.57969 0.0
C867 C 0.56534 0.76294 0.58872 0.0
C868 C 0.53982 0.77892 0.57807 0.0
H869 H 0.53719 0.80304 0.5621 0.0
C870 C 0.53089 0.78096 0.58568 0.0
C871 C 0.5419 0.78681 0.56923 0.0
C872 C 0.55106 0.78487 0.56051 0.0
C873 C 0.52444 0.79093 0.58516 0.0
C874 C 0.52675 0.79902 0.57656 0.0
C875 C 0.53538 0.79681 0.56863 0.0
C876 C 0.52109 0.81028 0.57663 0.0
C877 C 0.51572 0.79303 0.59434 0.0
C878 C 0.50927 0.81119 0.5761 0.0
C879 C 0.50378 0.821 0.57984 0.0
C880 C 0.51005 0.83009 0.58399 0.0
C881 C 0.5219 0.82975 0.58291 0.0
C882 C 0.52738 0.81988 0.57932 0.0
H883 H 0.51657 0.78698 0.60153 0.0
H884 H 0.51643 0.80174 0.59766 0.0
H885 H 0.50713 0.79208 0.59079 0.0
H886 H 0.50426 0.80396 0.57379 0.0
H887 H 0.49464 0.82105 0.58045 0.0
H888 H 0.57351 0.31726 0.83906 0.0
H889 H 0.55736 0.30749 0.83126 0.0
H890 H 0.57779 0.27746 0.82685 0.0
H891 H 0.59395 0.28707 0.83514 0.0
H892 H 0.55073 0.29562 0.81271 0.0
H893 H 0.55502 0.26722 0.85027 0.0
H894 H 0.56342 0.27973 0.84845 0.0
H895 H 0.56687 0.26712 0.84072 0.0
C896 C 0.57469 0.30866 0.83619 0.0
C897 C 0.58495 0.30285 0.83798 0.0
C898 C 0.56542 0.30308 0.83169 0.0
C899 C 0.56626 0.29163 0.82879 0.0
C900 C 0.57686 0.2862 0.82934 0.0
H901 H 0.50918 0.24671 0.83263 0.0
H902 H 0.5266 0.25373 0.82401 0.0
C903 C 0.58611 0.29173 0.83402 0.0
C904 C 0.55576 0.28515 0.82683 0.0
H905 H 0.53917 0.26496 0.83911 0.0
C906 C 0.54826 0.28878 0.81835 0.0
C907 C 0.55249 0.27628 0.83427 0.0
C908 C 0.5598 0.27239 0.844 0.0
C909 C 0.53746 0.28399 0.81734 0.0
C910 C 0.53409 0.27542 0.82503 0.0
C911 C 0.5418 0.27144 0.83312 0.0
C912 C 0.52226 0.2714 0.82604 0.0
C913 C 0.52969 0.28832 0.80822 0.0
C914 C 0.51366 0.27899 0.82929 0.0
C915 C 0.50362 0.27499 0.83416 0.0
C916 C 0.50214 0.26334 0.83603 0.0
C917 C 0.51011 0.25575 0.83141 0.0
C918 C 0.5201 0.25975 0.82648 0.0
H919 H 0.53455 0.29173 0.80089 0.0
H920 H 0.524 0.28157 0.80524 0.0
H921 H 0.52439 0.2953 0.81166 0.0
H922 H 0.51516 0.28801 0.8292 0.0
H923 H 0.49767 0.28107 0.83762 0.0
H924 H 0.01506 0.33806 0.09517 0.0
H925 H 0.02962 0.32531 0.08773 0.0
H926 H 0.00637 0.2975 0.09021 0.0
H927 H 0.9917 0.31024 0.0973 0.0
H928 H 0.03742 0.30919 0.10112 0.0
H929 H 0.0232 0.28897 0.06192 0.0
H930 H 0.01667 0.3017 0.06731 0.0
H931 H 0.01265 0.28807 0.07285 0.0
C932 C 0.01291 0.32931 0.09372 0.0
C933 C 0.00225 0.32515 0.09692 0.0
C934 C 0.02126 0.32202 0.08948 0.0
C935 C 0.01912 0.31042 0.08838 0.0
C936 C 0.00819 0.30643 0.09073 0.0
H937 H 0.05411 0.2491 0.09857 0.0
H938 H 0.04095 0.26374 0.09213 0.0
C939 C 0.9998 0.31374 0.09486 0.0
C940 C 0.02869 0.3023 0.08688 0.0
H941 H 0.03719 0.27852 0.07284 0.0
C942 C 0.0375 0.30266 0.09474 0.0
C943 C 0.02876 0.29369 0.07866 0.0
C944 C 0.01986 0.29315 0.06964 0.0
C945 C 0.04602 0.29436 0.09501 0.0
C946 C 0.04589 0.28552 0.08703 0.0
C947 C 0.03731 0.28533 0.07891 0.0
C948 C 0.05394 0.27586 0.08792 0.0
C949 C 0.05472 0.29477 0.10427 0.0
C950 C 0.06564 0.27756 0.08701 0.0
C951 C 0.07322 0.2692 0.09076 0.0
C952 C 0.06919 0.25901 0.09542 0.0
C953 C 0.05751 0.25688 0.09512 0.0
C954 C 0.04995 0.26525 0.09142 0.0
H955 H 0.05238 0.30093 0.11094 0.0
H956 H 0.05583 0.28632 0.10829 0.0
H957 H 0.06297 0.29734 0.10059 0.0
H958 H 0.06889 0.28563 0.08414 0.0
H959 H 0.08216 0.27109 0.09078 0.0
H960 H 0.24545 0.07555 0.25288 0.0
H961 H 0.25567 0.06136 0.26384 0.0
H962 H 0.25727 0.08424 0.29193 0.0
H963 H 0.24651 0.09839 0.28114 0.0
H964 H 0.27465 0.05742 0.27642 0.0
H965 H 0.2363 0.06017 0.30399 0.0
H966 H 0.23736 0.06777 0.29078 0.0
H967 H 0.24459 0.07277 0.30306 0.0
C968 C 0.24824 0.07773 0.26127 0.0
C969 C 0.24485 0.08798 0.26627 0.0
C970 C 0.25414 0.06959 0.26753 0.0
C971 C 0.25688 0.07158 0.27885 0.0
C972 C 0.25492 0.0824 0.28332 0.0
H973 H 0.25799 0.01609 0.32723 0.0
H974 H 0.26427 0.03421 0.3195 0.0
C975 C 0.24884 0.09052 0.27711 0.0
C976 C 0.25986 0.06181 0.28626 0.0
H977 H 0.2487 0.04526 0.30725 0.0
C978 C 0.26911 0.05486 0.28332 0.0
C979 C 0.25257 0.0584 0.29521 0.0
C980 C 0.2421 0.06508 0.29843 0.0
C981 C 0.271 0.04441 0.2888 0.0
C982 C 0.26341 0.04082 0.29738 0.0
C983 C 0.25457 0.04806 0.30073 0.0
C984 C 0.26334 0.02911 0.30202 0.0
C985 C 0.28092 0.0372 0.28518 0.0
C986 C 0.26133 0.02 0.2948 0.0
C987 C 0.25779 0.00959 0.29921 0.0
C988 C 0.25604 0.00818 0.3109 0.0
C989 C 0.25917 0.01693 0.31817 0.0
C990 C 0.26278 0.02731 0.31376 0.0
H991 H 0.28791 0.04248 0.28177 0.0
H992 H 0.28416 0.03196 0.2923 0.0
H993 H 0.27823 0.03148 0.27835 0.0
H994 H 0.26149 0.02121 0.28571 0.0
H995 H 0.25544 0.00303 0.29337 0.0
H996 H 0.32631 0.00588 0.5817 0.0
H997 H 0.31074 0.01541 0.5717 0.0
H998 H 0.31455 0.99166 0.54437 0.0
H999 H 0.33078 0.98328 0.5536 0.0
H1000 H 0.30732 0.00875 0.53567 0.0
H1001 H 0.28053 0.00413 0.57431 0.0
H1002 H 0.29175 0.01407 0.57553 0.0
H1003 H 0.29491 0.9992 0.57397 0.0
C1004 C 0.32402 0.00305 0.57335 0.0
C1005 C 0.32974 0.99388 0.5684 0.0
C1006 C 0.31495 0.00832 0.56774 0.0
C1007 C 0.311 0.00398 0.55746 0.0
C1008 C 0.31726 0.99526 0.55227 0.0
H1009 H 0.24703 0.98628 0.53875 0.0
H1010 H 0.26365 0.99305 0.54829 0.0
C1011 C 0.32662 0.99043 0.55757 0.0
C1012 C 0.29998 0.00759 0.55234 0.0
H1013 H 0.27157 0.00914 0.55768 0.0
C1014 C 0.29949 0.00876 0.54051 0.0
C1015 C 0.28969 0.00794 0.55862 0.0
C1016 C 0.28919 0.00619 0.57128 0.0
C1017 C 0.28917 0.00869 0.53471 0.0
C1018 C 0.27888 0.00856 0.54097 0.0
C1019 C 0.2794 0.00898 0.55284 0.0
C1020 C 0.26773 0.00594 0.53573 0.0
C1021 C 0.28962 0.00768 0.52199 0.0
C1022 C 0.26397 0.01113 0.52564 0.0
C1023 C 0.25468 0.00678 0.51984 0.0
C1024 C 0.24854 0.99773 0.52448 0.0
C1025 C 0.25153 0.99339 0.5351 0.0
C1026 C 0.26109 0.9973 0.54056 0.0
H1027 H 0.29819 0.00529 0.51887 0.0
H1028 H 0.28361 1.00122 0.51902 0.0
H1029 H 0.28741 0.01596 0.51807 0.0
H1030 H 0.26849 0.01817 0.52195 0.0
H1031 H 0.25251 0.01023 0.51162 0.0
H1032 H 0.32883 0.01486 0.75247 0.0
H1033 H 0.32096 0.03214 0.76069 0.0
H1034 H 0.327 0.01875 0.79414 0.0
H1035 H 0.33443 1.0013 0.78601 0.0
H1036 H 0.30887 0.03439 0.79363 0.0
H1037 H 0.34733 0.05085 0.77176 0.0
H1038 H 0.33686 0.04497 0.76271 0.0
H1039 H 0.34426 0.03599 0.77256 0.0
C1040 C 0.328 0.01539 0.76158 0.0
C1041 C 0.33248 0.00682 0.76859 0.0
C1042 C 0.32356 0.0253 0.76627 0.0
C1043 C 0.32379 0.02688 0.77801 0.0
C1044 C 0.32685 0.01776 0.78504 0.0
H1045 H 0.33765 0.07379 0.82753 0.0
H1046 H 0.32808 0.05905 0.81723 0.0
C1047 C 0.3311 0.00775 0.78037 0.0
C1048 C 0.32306 0.03841 0.78283 0.0
H1049 H 0.33782 0.06302 0.78388 0.0
C1050 C 0.31506 0.04075 0.79137 0.0
C1051 C 0.33121 0.04668 0.77995 0.0
C1052 C 0.34047 0.04452 0.77132 0.0
C1053 C 0.31521 0.05101 0.7973 0.0
C1054 C 0.32365 0.05906 0.7947 0.0
C1055 C 0.33126 0.05692 0.7858 0.0
C1056 C 0.32594 0.06898 0.80191 0.0
C1057 C 0.30649 0.05303 0.80644 0.0
C1058 C 0.32755 0.07969 0.79695 0.0
C1059 C 0.3332 0.08814 0.8028 0.0
C1060 C 0.33737 0.08599 0.81371 0.0
C1061 C 0.33459 0.07572 0.81912 0.0
C1062 C 0.32901 0.06727 0.81324 0.0
H1063 H 0.29852 0.04854 0.8046 0.0
H1064 H 0.30974 0.04968 0.81459 0.0
H1065 H 0.3046 0.06218 0.80742 0.0
H1066 H 0.32526 0.08121 0.78821 0.0
H1067 H 0.33513 0.09597 0.79841 0.0
H1068 H 0.24932 0.07247 0.0375 0.0
H1069 H 0.2659 0.06503 0.02755 0.0
H1070 H 0.28462 0.06505 0.05866 0.0
H1071 H 0.26804 0.07207 0.06869 0.0
H1072 H 0.2828 0.0793 0.02657 0.0
H1073 H 0.2998 0.03896 0.04325 0.0
H1074 H 0.28538 0.04346 0.04583 0.0
H1075 H 0.29667 0.04859 0.05447 0.0
C1076 C 0.25679 0.07036 0.04233 0.0
C1077 C 0.25742 0.0731 0.05384 0.0
C1078 C 0.26629 0.06612 0.03662 0.0
C1079 C 0.27658 0.06456 0.04231 0.0
C1080 C 0.27679 0.066 0.05407 0.0
H1081 H 0.34397 0.08244 0.02924 0.0
H1082 H 0.32738 0.0729 0.03713 0.0
C1083 C 0.26726 0.07011 0.05981 0.0
C1084 C 0.28738 0.06418 0.0358 0.0
H1085 H 0.31358 0.05174 0.03465 0.0
C1086 C 0.2894 0.07308 0.02812 0.0
C1087 C 0.29611 0.0562 0.03796 0.0
C1088 C 0.29433 0.04621 0.04576 0.0
C1089 C 0.3 0.07455 0.02299 0.0
C1090 C 0.30883 0.06677 0.02538 0.0
C1091 C 0.30678 0.05765 0.03279 0.0
C1092 C 0.32038 0.06875 0.02088 0.0
C1093 C 0.30182 0.08483 0.01552 0.0
C1094 C 0.32234 0.0688 0.00917 0.0
C1095 C 0.33174 0.07435 0.00463 0.0
C1096 C 0.33939 0.07978 0.01177 0.0
C1097 C 0.33824 0.07832 0.02353 0.0
C1098 C 0.32873 0.07288 0.02806 0.0
H1099 H 0.29477 0.09106 0.01622 0.0
H1100 H 0.30981 0.08912 0.0177 0.0
H1101 H 0.30244 0.08216 0.00657 0.0
H1102 H 0.31603 0.06555 0.00349 0.0
H1103 H 0.33246 0.07527 0.99553 0.0
H1104 H 0.2623 0.24774 0.0743 0.0
H1105 H 0.27374 0.25395 0.05824 0.0
H1106 H 0.30314 0.25487 0.07945 0.0
H1107 H 0.29182 0.24822 0.09555 0.0
H1108 H 0.28898 0.27022 0.05093 0.0
H1109 H 0.31028 0.22875 0.05841 0.0
H1110 H 0.29773 0.23298 0.06604 0.0
H1111 H 0.31128 0.23848 0.06988 0.0
C1112 C 0.27111 0.24963 0.0757 0.0
C1113 C 0.2762 0.24716 0.08616 0.0
C1114 C 0.27766 0.25319 0.06645 0.0
C1115 C 0.28938 0.25447 0.06754 0.0
C1116 C 0.29417 0.2536 0.07835 0.0
H1117 H 0.33999 0.24618 0.01446 0.0
H1118 H 0.33103 0.25335 0.03166 0.0
C1119 C 0.28765 0.24989 0.08758 0.0
C1120 C 0.29664 0.25484 0.05721 0.0
H1121 H 0.31604 0.23911 0.04252 0.0
C1122 C 0.295 0.2635 0.04914 0.0
C1123 C 0.30438 0.24596 0.05477 0.0
C1124 C 0.30598 0.23595 0.06266 0.0
C1125 C 0.30086 0.26347 0.03872 0.0
C1126 C 0.30848 0.25452 0.03628 0.0
C1127 C 0.3103 0.24605 0.04445 0.0
C1128 C 0.31405 0.2531 0.02506 0.0
C1129 C 0.2988 0.27295 0.03036 0.0
C1130 C 0.30754 0.25101 0.01544 0.0
C1131 C 0.31265 0.24691 0.00555 0.0
C1132 C 0.32436 0.24472 0.00515 0.0
C1133 C 0.33095 0.24773 0.01448 0.0
C1134 C 0.32584 0.25183 0.02434 0.0
H1135 H 0.29545 0.28064 0.03461 0.0
H1136 H 0.30668 0.27515 0.0257 0.0
H1137 H 0.29245 0.27022 0.02413 0.0
H1138 H 0.29841 0.25173 0.01584 0.0
H1139 H 0.30731 0.24465 0.99855 0.0
H1140 H 0.7497 0.33448 0.01341 0.0
H1141 H 0.76029 0.32592 0.02881 0.0
H1142 H 0.78975 0.32338 0.00725 0.0
H1143 H 0.77933 0.33258 0.99187 0.0
H1144 H 0.77405 0.30859 0.03572 0.0
H1145 H 0.79864 0.34805 0.02863 0.0
H1146 H 0.786 0.34513 0.02089 0.0
H1147 H 0.7991 0.33817 0.01723 0.0
C1148 C 0.75832 0.33177 0.01177 0.0
C1149 C 0.76381 0.33462 1.00154 0.0
C1150 C 0.76437 0.32681 0.02062 0.0
C1151 C 0.77595 0.32446 0.01933 0.0
C1152 C 0.78091 0.32551 0.00853 0.0
H1153 H 0.82062 0.33504 0.07546 0.0
H1154 H 0.81466 0.32486 0.05872 0.0
C1155 C 0.77492 0.33069 0.99971 0.0
C1156 C 0.78299 0.32326 0.02962 0.0
H1157 H 0.80197 0.33799 0.04511 0.0
C1158 C 0.78034 0.31487 0.0377 0.0
C1159 C 0.7911 0.33156 0.03228 0.0
C1160 C 0.79385 0.34129 0.02437 0.0
C1161 C 0.78528 0.31482 0.04849 0.0
C1162 C 0.79302 0.32338 0.05124 0.0
C1163 C 0.79613 0.33134 0.04295 0.0
C1164 C 0.79684 0.32547 0.06295 0.0
C1165 C 0.78193 0.30582 0.05694 0.0
C1166 C 0.78888 0.32854 0.07128 0.0
C1167 C 0.79228 0.33431 0.08093 0.0
C1168 C 0.80367 0.33725 0.08228 0.0
C1169 C 0.81176 0.33299 0.07461 0.0
C1170 C 0.80837 0.32714 0.06503 0.0
H1171 H 0.77935 0.29796 0.05264 0.0
H1172 H 0.78895 0.30379 0.06282 0.0
H1173 H 0.77459 0.3089 0.06199 0.0
H1174 H 0.77993 0.32753 0.06981 0.0
H1175 H 0.78585 0.33748 0.08667 0.0
H1176 H 0.00981 0.54592 0.24357 0.0
H1177 H 0.01752 0.5561 0.2596 0.0
H1178 H 0.01538 0.52581 0.28008 0.0
H1179 H 0.0081 0.51556 0.26409 0.0
H1180 H 0.0033 0.55879 0.27629 0.0
H1181 H 0.04174 0.54009 0.29475 0.0
H1182 H 0.03752 0.53722 0.28042 0.0
H1183 H 0.03172 0.52919 0.29211 0.0
C1184 C 0.01153 0.54129 0.25132 0.0
C1185 C 0.00811 0.53 0.25262 0.0
C1186 C 0.01592 0.54713 0.26051 0.0
C1187 C 0.01699 0.54177 0.27112 0.0
C1188 C 0.01485 0.53014 0.272 0.0
H1189 H 0.99652 0.55175 0.337 0.0
H1190 H 0.00738 0.54555 0.32053 0.0
C1191 C 0.01055 0.52429 0.26281 0.0
C1192 C 0.0175 0.5486 0.2816 0.0
H1193 H 0.02832 0.54866 0.30831 0.0
C1194 C 0.00903 0.55684 0.28316 0.0
C1195 C 0.02487 0.54598 0.29064 0.0
C1196 C 0.03454 0.5377 0.28933 0.0
C1197 C 0.00713 0.56185 0.29369 0.0
C1198 C 0.0141 0.55877 0.30293 0.0
C1199 C 0.023 0.55103 0.30123 0.0
C1200 C 0.01115 0.56245 0.31456 0.0
C1201 C 0.9971 0.56974 0.29502 0.0
C1202 C 0.01046 0.57398 0.31716 0.0
C1203 C 0.00411 0.57757 0.32651 0.0
C1204 C 0.99854 0.56964 0.33347 0.0
C1205 C 1.00066 0.55807 0.33178 0.0
C1206 C 0.00688 0.5545 0.32233 0.0
H1207 H 0.99144 0.56962 0.28758 0.0
H1208 H 0.99204 0.56745 0.30265 0.0
H1209 H 1.00012 0.57852 0.29603 0.0
H1210 H 0.01392 0.58025 0.31139 0.0
H1211 H 0.00273 0.58655 0.32767 0.0
H1212 H 0.79423 0.7516 0.49001 0.0
H1213 H 0.78299 0.75774 0.50631 0.0
H1214 H 0.81322 0.75923 0.52632 0.0
H1215 H 0.8245 0.75337 0.51006 0.0
H1216 H 0.78216 0.74378 0.52431 0.0
H1217 H 0.79575 0.78571 0.53895 0.0
H1218 H 0.79892 0.78064 0.52491 0.0
H1219 H 0.80749 0.77629 0.5367 0.0
C1220 C 0.79856 0.75372 0.49773 0.0
C1221 C 0.81027 0.75187 0.49874 0.0
C1222 C 0.7921 0.75718 0.50708 0.0
C1223 C 0.79723 0.75894 0.51758 0.0
C1224 C 0.80905 0.75813 0.5183 0.0
H1225 H 0.77985 0.74753 0.58664 0.0
H1226 H 0.78874 0.75442 0.56919 0.0
C1227 C 0.81551 0.75471 0.50896 0.0
C1228 C 0.79023 0.75953 0.52809 0.0
H1229 H 0.78657 0.77376 0.55293 0.0
C1230 C 0.78294 0.75048 0.53044 0.0
C1231 C 0.79138 0.76816 0.53621 0.0
C1232 C 0.79873 0.7783 0.53402 0.0
C1233 C 0.77714 0.74958 0.5408 0.0
C1234 C 0.77845 0.75809 0.549 0.0
C1235 C 0.78554 0.76728 0.54661 0.0
C1236 C 0.77301 0.757 0.56033 0.0
C1237 C 0.77006 0.73922 0.54308 0.0
C1238 C 0.76119 0.75689 0.56138 0.0
C1239 C 0.75607 0.75294 0.57135 0.0
C1240 C 0.76269 0.74907 0.58045 0.0
C1241 C 0.77449 0.75043 0.57981 0.0
C1242 C 0.7796 0.75435 0.56981 0.0
H1243 H 0.7717 0.73246 0.53681 0.0
H1244 H 0.77175 0.73573 0.55166 0.0
H1245 H 0.76098 0.74158 0.54268 0.0
H1246 H 0.75594 0.75905 0.55421 0.0
H1247 H 0.74696 0.75208 0.57157 0.0
H1248 H 0.08783 0.03987 0.24482 0.0
H1249 H 0.07943 0.03003 0.26108 0.0
H1250 H 0.08175 0.06043 0.28073 0.0
H1251 H 0.08984 0.07033 0.26453 0.0
H1252 H 0.09264 0.02721 0.27892 0.0
H1253 H 0.05319 0.0475 0.29384 0.0
H1254 H 0.05871 0.04971 0.27971 0.0
H1255 H 0.06397 0.0578 0.29134 0.0
C1256 C 0.08608 0.04459 0.25245 0.0
C1257 C 0.08965 0.05584 0.25343 0.0
C1258 C 0.08129 0.03895 0.26176 0.0
C1259 C 0.07993 0.04447 0.27217 0.0
C1260 C 0.08248 0.05601 0.27278 0.0
H1261 H 0.09177 0.03212 0.34051 0.0
H1262 H 0.08374 0.0395 0.32296 0.0
C1263 C 0.08723 0.06165 0.26349 0.0
C1264 C 0.07828 0.03782 0.28278 0.0
H1265 H 0.06446 0.03789 0.3083 0.0
C1266 C 0.08626 0.02932 0.28521 0.0
C1267 C 0.07006 0.04068 0.29108 0.0
C1268 C 0.06094 0.04935 0.2888 0.0
C1269 C 0.08675 0.02413 0.29589 0.0
C1270 C 0.07882 0.02729 0.30436 0.0
C1271 C 0.0705 0.03543 0.3018 0.0
C1272 C 0.08001 0.02306 0.31615 0.0
C1273 C 0.09628 0.01585 0.29823 0.0
C1274 C 0.07973 0.01142 0.31854 0.0
C1275 C 0.08444 0.00716 0.32853 0.0
C1276 C 0.08933 0.01451 0.33634 0.0
C1277 C 0.0881 0.02624 0.33466 0.0
C1278 C 0.08353 0.03048 0.32459 0.0
H1279 H 0.10288 0.01602 0.2915 0.0
H1280 H 0.10035 0.01771 0.30642 0.0
H1281 H 0.09286 0.00716 0.29871 0.0
H1282 H 0.07683 0.00556 0.31223 0.0
H1283 H 0.08517 0.99809 0.32963 0.0
H1284 H 0.32421 0.84446 0.5711 0.0
H1285 H 0.31308 0.83672 0.55585 0.0
H1286 H 0.28526 0.83121 0.57898 0.0
H1287 H 0.29626 0.83936 0.59431 0.0
H1288 H 0.30074 0.81785 0.55017 0.0
H1289 H 0.27279 0.85522 0.5576 0.0
H1290 H 0.28613 0.8534 0.56463 0.0
H1291 H 0.27399 0.84552 0.56929 0.0
C1292 C 0.31583 0.84134 0.57306 0.0
C1293 C 0.31102 0.84278 0.58388 0.0
C1294 C 0.30947 0.83687 0.5643 0.0
C1295 C 0.29822 0.83369 0.56619 0.0
C1296 C 0.29384 0.83389 0.57727 0.0
H1297 H 0.24768 0.83692 0.51369 0.0
H1298 H 0.25665 0.8291 0.53057 0.0
C1299 C 0.30017 0.83847 0.58605 0.0
C1300 C 0.29078 0.83187 0.55632 0.0
H1301 H 0.26911 0.84431 0.54183 0.0
C1302 C 0.29369 0.8235 0.54842 0.0
C1303 C 0.28165 0.83933 0.55397 0.0
C1304 C 0.27848 0.84894 0.56174 0.0
C1305 C 0.28789 0.8226 0.53812 0.0
C1306 C 0.27903 0.8303 0.53565 0.0
C1307 C 0.27583 0.83832 0.54377 0.0
C1308 C 0.27374 0.83127 0.52432 0.0
C1309 C 0.29144 0.81355 0.5299 0.0
C1310 C 0.28033 0.83442 0.51489 0.0
C1311 C 0.2752 0.83883 0.50516 0.0
C1312 C 0.26341 0.84033 0.50479 0.0
C1313 C 0.25679 0.83595 0.51373 0.0
C1314 C 0.26192 0.83149 0.52341 0.0
H1315 H 0.2954 0.80623 0.53434 0.0
H1316 H 0.28413 0.81053 0.52497 0.0
H1317 H 0.29778 0.81707 0.52391 0.0
H1318 H 0.28946 0.83451 0.51542 0.0
H1319 H 0.28055 0.84216 0.49846 0.0
H1320 H 0.58179 0.56806 0.76421 0.0
H1321 H 0.57621 0.55831 0.78156 0.0
H1322 H 0.57108 0.52768 0.76289 0.0
H1323 H 0.57722 0.53727 0.74549 0.0
H1324 H 0.55962 0.54553 0.79136 0.0
H1325 H 0.59783 0.51929 0.78218 0.0
H1326 H 0.59414 0.53151 0.77378 0.0
H1327 H 0.58688 0.51837 0.77185 0.0
C1328 C 0.57917 0.55933 0.76369 0.0
C1329 C 0.58025 0.55335 0.75351 0.0
C1330 C 0.57595 0.55376 0.77366 0.0
C1331 C 0.57361 0.54216 0.77359 0.0
C1332 C 0.5732 0.53656 0.76318 0.0
H1333 H 0.58548 0.49682 0.82999 0.0
H1334 H 0.57514 0.50419 0.81371 0.0
C1335 C 0.57663 0.54207 0.75322 0.0
C1336 C 0.57346 0.53575 0.78447 0.0
H1337 H 0.5888 0.51631 0.79946 0.0
C1338 C 0.56588 0.53901 0.7931 0.0
C1339 C 0.58175 0.52735 0.78679 0.0
C1340 C 0.59068 0.52397 0.77822 0.0
C1341 C 0.56653 0.53423 0.80403 0.0
C1342 C 0.57497 0.52603 0.80636 0.0
C1343 C 0.58224 0.52249 0.79762 0.0
C1344 C 0.57743 0.52176 0.81793 0.0
C1345 C 0.55832 0.53811 0.81302 0.0
C1346 C 0.58153 0.52918 0.82612 0.0
C1347 C 0.58739 0.52497 0.83552 0.0
C1348 C 0.58938 0.51329 0.83673 0.0
C1349 C 0.58414 0.50587 0.82924 0.0
C1350 C 0.57822 0.51007 0.81992 0.0
H1351 H 0.55043 0.54158 0.80926 0.0
H1352 H 0.55612 0.53108 0.81891 0.0
H1353 H 0.56226 0.54491 0.81799 0.0
H1354 H 0.58119 0.53823 0.82469 0.0
H1355 H 0.59139 0.53091 0.8411 0.0
H1356 H 0.74892 0.49185 0.79117 0.0
H1357 H 0.7578 0.50789 0.7815 0.0
H1358 H 0.75386 0.52783 0.81163 0.0
H1359 H 0.74527 0.51184 0.82137 0.0
H1360 H 0.7446 0.52584 0.77813 0.0
H1361 H 0.78294 0.54052 0.79947 0.0
H1362 H 0.77744 0.52645 0.80161 0.0
H1363 H 0.77172 0.53819 0.80947 0.0
C1364 C 0.75041 0.49948 0.79589 0.0
C1365 C 0.74624 0.50062 0.80699 0.0
C1366 C 0.75547 0.50867 0.79034 0.0
C1367 C 0.75651 0.5191 0.79582 0.0
C1368 C 0.75337 0.51986 0.80725 0.0
H1369 H 0.7445 0.58738 0.78297 0.0
H1370 H 0.75249 0.56981 0.79057 0.0
C1371 C 0.74835 0.51069 0.8128 0.0
C1372 C 0.75842 0.52964 0.78914 0.0
H1373 H 0.77198 0.55505 0.78949 0.0
C1374 C 0.75082 0.53209 0.7804 0.0
C1375 C 0.76642 0.53788 0.79219 0.0
C1376 C 0.77516 0.53557 0.80113 0.0
C1377 C 0.75046 0.54275 0.77515 0.0
C1378 C 0.75815 0.55117 0.77851 0.0
C1379 C 0.76613 0.54859 0.78689 0.0
C1380 C 0.757 0.56297 0.77424 0.0
C1381 C 0.74129 0.54513 0.7666 0.0
C1382 C 0.75775 0.56534 0.76261 0.0
C1383 C 0.75306 0.57533 0.75822 0.0
C1384 C 0.74775 0.58317 0.76544 0.0
C1385 C 0.74852 0.58151 0.77719 0.0
C1386 C 0.75306 0.57143 0.78156 0.0
H1387 H 0.73476 0.53844 0.7666 0.0
H1388 H 0.73705 0.55335 0.76832 0.0
H1389 H 0.74511 0.54557 0.75801 0.0
H1390 H 0.76098 0.55901 0.75683 0.0
H1391 H 0.75268 0.57642 0.74913 0.0
H1392 H 0.76661 0.51149 0.00254 0.0
H1393 H 0.78475 0.51694 0.01051 0.0
H1394 H 0.77127 0.51197 0.04415 0.0
H1395 H 0.75306 0.50682 0.03629 0.0
H1396 H 0.78839 0.52901 0.04272 0.0
H1397 H 0.80123 0.48856 0.02229 0.0
H1398 H 0.79602 0.49951 0.01305 0.0
H1399 H 0.78667 0.49305 0.02323 0.0
C1400 C 0.76737 0.51197 0.01164 0.0
C1401 C 0.75848 0.50846 0.01878 0.0
C1402 C 0.77777 0.51505 0.01618 0.0
C1403 C 0.77944 0.51453 0.0279 0.0
C1404 C 0.77019 0.51235 0.03507 0.0
H1405 H 0.82358 0.49753 0.07902 0.0
H1406 H 0.81039 0.50833 0.06751 0.0
C1407 C 0.75976 0.50938 0.03054 0.0
C1408 C 0.79101 0.51415 0.03263 0.0
H1409 H 0.81397 0.49663 0.03455 0.0
C1410 C 0.7941 0.52206 0.04079 0.0
C1411 C 0.79846 0.50506 0.03012 0.0
C1412 C 0.79545 0.496 0.02177 0.0
C1413 C 0.80427 0.52089 0.0468 0.0
C1414 C 0.81139 0.51144 0.04472 0.0
C1415 C 0.80858 0.50392 0.0361 0.0
C1416 C 0.82078 0.50804 0.05235 0.0
C1417 C 0.80713 0.52965 0.05546 0.0
C1418 C 0.83127 0.50455 0.04784 0.0
C1419 C 0.8388 0.49814 0.05441 0.0
C1420 C 0.83595 0.49511 0.06558 0.0
C1421 C 0.82602 0.49966 0.07042 0.0
C1422 C 0.81848 0.50598 0.06385 0.0
H1423 H 0.80385 0.5381 0.05289 0.0
H1424 H 0.80304 0.52737 0.06364 0.0
H1425 H 0.8164 0.53021 0.05675 0.0
H1426 H 0.83324 0.50603 0.03899 0.0
H1427 H 0.84639 0.49481 0.05043 0.0
H1428 H 0.82461 0.58786 0.30704 0.0
H1429 H 0.81637 0.57056 0.29944 0.0
H1430 H 0.84238 0.5699 0.27357 0.0
H1431 H 0.8496 0.5877 0.2803 0.0
H1432 H 0.82596 0.56114 0.26524 0.0
H1433 H 0.82835 0.54139 0.30803 0.0
H1434 H 0.81811 0.55254 0.3068 0.0
H1435 H 0.83298 0.5556 0.30542 0.0
C1436 C 0.82824 0.58416 0.29948 0.0
C1437 C 0.8377 0.58908 0.29422 0.0
C1438 C 0.8237 0.57415 0.29527 0.0
C1439 C 0.82902 0.56852 0.28621 0.0
C1440 C 0.83805 0.57391 0.28058 0.0
H1441 H 0.84993 0.50302 0.27857 0.0
H1442 H 0.84141 0.52022 0.28574 0.0
C1443 C 0.84221 0.58416 0.28443 0.0
C1444 C 0.82603 0.55674 0.28292 0.0
H1445 H 0.82461 0.52961 0.29301 0.0
C1446 C 0.8257 0.55424 0.27134 0.0
C1447 C 0.82542 0.54767 0.29085 0.0
C1448 C 0.82632 0.54939 0.30345 0.0
C1449 C 0.82629 0.54307 0.26743 0.0
C1450 C 0.8261 0.53398 0.27537 0.0
C1451 C 0.82493 0.53651 0.28691 0.0
C1452 C 0.82921 0.52212 0.27221 0.0
C1453 C 0.82822 0.54136 0.25491 0.0
C1454 C 0.82477 0.51681 0.26264 0.0
C1455 C 0.8301 0.50717 0.2582 0.0
C1456 C 0.83939 0.50225 0.26374 0.0
C1457 C 0.84269 0.50656 0.27419 0.0
C1458 C 0.8378 0.51649 0.27828 0.0
H1459 H 0.83067 0.54931 0.25049 0.0
H1460 H 0.835 0.53502 0.25337 0.0
H1461 H 0.82029 0.53841 0.25101 0.0
H1462 H 0.81773 0.52052 0.25813 0.0
H1463 H 0.82739 0.50396 0.25012 0.0
H1464 H 0.82145 0.58257 0.50646 0.0
H1465 H 0.80523 0.57331 0.51513 0.0
H1466 H 0.82431 0.56734 0.54554 0.0
H1467 H 0.84046 0.57722 0.53711 0.0
H1468 H 0.79793 0.55436 0.526 0.0
H1469 H 0.80126 0.59006 0.55616 0.0
H1470 H 0.81024 0.58896 0.54387 0.0
H1471 H 0.81294 0.58032 0.55618 0.0
C1472 C 0.82235 0.57901 0.51488 0.0
C1473 C 0.83213 0.58093 0.52123 0.0
C1474 C 0.81304 0.57367 0.51983 0.0
C1475 C 0.81341 0.57001 0.53113 0.0
C1476 C 0.82371 0.57046 0.53693 0.0
H1477 H 0.75312 0.574 0.57254 0.0
H1478 H 0.77073 0.56479 0.56671 0.0
C1479 C 0.83297 0.57604 0.53207 0.0
C1480 C 0.80262 0.56774 0.53722 0.0
H1481 H 0.78498 0.5794 0.55696 0.0
C1482 C 0.79517 0.55967 0.53293 0.0
C1483 C 0.79895 0.57474 0.54622 0.0
C1484 C 0.8062 0.58407 0.55084 0.0
C1485 C 0.78402 0.55876 0.53706 0.0
C1486 C 0.78025 0.56613 0.54567 0.0
C1487 C 0.78791 0.57367 0.55043 0.0
C1488 C 0.76815 0.56758 0.54882 0.0
C1489 C 0.77629 0.55018 0.53196 0.0
C1490 C 0.76048 0.57153 0.54066 0.0
C1491 C 0.75034 0.57675 0.54397 0.0
C1492 C 0.74783 0.57826 0.5555 0.0
C1493 C 0.75487 0.57308 0.56359 0.0
C1494 C 0.76495 0.56778 0.56027 0.0
H1495 H 0.78115 0.54276 0.5288 0.0
H1496 H 0.76984 0.54722 0.53816 0.0
H1497 H 0.77187 0.55408 0.52465 0.0
H1498 H 0.76281 0.57166 0.53179 0.0
H1499 H 0.74511 0.58063 0.53752 0.0
H1500 H 0.49832 0.06498 0.82184 0.0
H1501 H 0.50642 0.05458 0.80602 0.0
H1502 H 0.50831 0.02445 0.82674 0.0
H1503 H 0.49968 0.0347 0.84254 0.0
H1504 H 0.52448 0.04122 0.79983 0.0
H1505 H 0.48511 0.01594 0.80361 0.0
H1506 H 0.48739 0.02834 0.81195 0.0
H1507 H 0.49421 0.01518 0.81564 0.0
C1508 C 0.50072 0.05621 0.82316 0.0
C1509 C 0.49808 0.05058 0.83337 0.0
C1510 C 0.5054 0.05027 0.81408 0.0
C1511 C 0.50765 0.03865 0.81508 0.0
C1512 C 0.50633 0.03334 0.82569 0.0
H1513 H 0.50255 0.99388 0.75831 0.0
H1514 H 0.51119 1.00023 0.77576 0.0
C1515 C 0.50146 0.03923 0.83474 0.0
C1516 C 0.50958 0.03195 0.80467 0.0
H1517 H 0.49661 0.01273 0.78797 0.0
C1518 C 0.51851 0.03484 0.7973 0.0
C1519 C 0.50171 0.02369 0.80132 0.0
C1520 C 0.49151 0.02064 0.80846 0.0
C1521 C 0.51957 0.02993 0.78654 0.0
C1522 C 0.51148 0.02199 0.78308 0.0
C1523 C 0.5029 0.01872 0.79067 0.0
C1524 C 0.51059 0.01799 0.77126 0.0
C1525 C 0.52919 0.03347 0.77889 0.0
C1526 C 0.50815 0.02578 0.76256 0.0
C1527 C 0.5033 0.02215 0.75249 0.0
C1528 C 0.50065 0.01069 0.75109 0.0
C1529 C 0.50442 0.00278 0.75919 0.0
C1530 C 0.50936 0.0064 0.76919 0.0
H1531 H 0.53657 0.03626 0.78387 0.0
H1532 H 0.53189 0.02648 0.77326 0.0
H1533 H 0.52639 0.04071 0.77355 0.0
H1534 H 0.50884 0.03478 0.76399 0.0
H1535 H 0.50046 0.02846 0.74643 0.0
H1536 H 0.97391 0.38415 0.21474 0.0
H1537 H 0.96036 0.39269 0.20159 0.0
H1538 H 0.95492 0.35973 0.18719 0.0
H1539 H 0.96748 0.3513 0.20096 0.0
H1540 H 0.96412 0.39576 0.1822 0.0
H1541 H 0.92606 0.37164 0.17858 0.0
H1542 H 0.93431 0.37039 0.1913 0.0
H1543 H 0.93627 0.36052 0.17979 0.0
C1544 C 0.96922 0.37873 0.20918 0.0
C1545 C 0.97157 0.36709 0.20886 0.0
C1546 C 0.96155 0.3836 0.20159 0.0
C1547 C 0.95649 0.37695 0.19326 0.0
C1548 C 0.95824 0.36514 0.19366 0.0
H1549 H 0.98034 0.37087 0.1369 0.0
H1550 H 0.97346 0.38302 0.15169 0.0
C1551 C 0.96556 0.36025 0.20151 0.0
C1552 C 0.95187 0.38223 0.18274 0.0
H1553 H 0.93805 0.37254 0.15987 0.0
C1554 C 0.95806 0.39094 0.17745 0.0
C1555 C 0.94331 0.37694 0.17647 0.0
C1556 C 0.93454 0.36948 0.18197 0.0
C1557 C 0.95763 0.3926 0.1657 0.0
C1558 C 0.95154 0.38484 0.15912 0.0
C1559 C 0.94347 0.37801 0.16466 0.0
C1560 C 0.95563 0.38135 0.14767 0.0
C1561 C 0.96434 0.40209 0.16046 0.0
C1562 C 0.94813 0.3766 0.13988 0.0
C1563 C 0.95216 0.36906 0.13172 0.0
C1564 C 0.96376 0.36664 0.13085 0.0
C1565 C 0.97136 0.37276 0.13731 0.0
C1566 C 0.96734 0.37987 0.1458 0.0
H1567 H 0.96238 0.41009 0.16494 0.0
H1568 H 0.97352 0.40042 0.16155 0.0
H1569 H 0.96247 0.40329 0.15134 0.0
H1570 H 0.93909 0.37771 0.14088 0.0
H1571 H 0.94615 0.36436 0.12679 0.0
H1572 H 0.96725 0.75174 0.38666 0.0
H1573 H 0.95882 0.74168 0.40244 0.0
H1574 H 0.95315 0.71287 0.38113 0.0
H1575 H 0.96296 0.72264 0.36558 0.0
H1576 H 0.9432 0.7309 0.4114 0.0
H1577 H 0.97473 0.6974 0.40003 0.0
H1578 H 0.97366 0.71007 0.39165 0.0
H1579 H 0.96285 0.69943 0.39096 0.0
C1580 C 0.96372 0.74346 0.38518 0.0
C1581 C 0.96587 0.73791 0.37499 0.0
C1582 C 0.95894 0.7376 0.39429 0.0
C1583 C 0.95593 0.72616 0.39325 0.0
C1584 C 0.95605 0.7214 0.3824 0.0
H1585 H 0.96434 0.71818 0.46486 0.0
H1586 H 0.95332 0.71096 0.44902 0.0
C1587 C 0.96135 0.72711 0.37339 0.0
C1588 C 0.9549 0.71917 0.40382 0.0
H1589 H 0.97015 0.69951 0.41874 0.0
C1590 C 0.94898 0.72392 0.413 0.0
C1591 C 0.96204 0.70966 0.40591 0.0
C1592 C 0.96871 0.70383 0.39666 0.0
C1593 C 0.95175 0.72111 0.42422 0.0
C1594 C 0.96006 0.71262 0.42629 0.0
C1595 C 0.9641 0.70626 0.41712 0.0
C1596 C 0.96699 0.71251 0.4368 0.0
C1597 C 0.94671 0.72826 0.43353 0.0
C1598 C 0.97872 0.71415 0.43564 0.0
C1599 C 0.98511 0.71758 0.44479 0.0
C1600 C 0.97989 0.71963 0.45524 0.0
C1601 C 0.96856 0.71655 0.45687 0.0
C1602 C 0.96219 0.71273 0.44773 0.0
H1603 H 0.94118 0.73514 0.43023 0.0
H1604 H 0.94151 0.7229 0.43925 0.0
H1605 H 0.9535 0.73219 0.43854 0.0
H1606 H 0.98279 0.71395 0.42741 0.0
H1607 H 0.99381 0.72005 0.44331 0.0
H1608 H 0.61697 0.74766 0.68716 0.0
H1609 H 0.62584 0.73494 0.67399 0.0
H1610 H 0.63168 0.71077 0.701 0.0
H1611 H 0.62144 0.72327 0.71403 0.0
H1612 H 0.6409 0.72234 0.66692 0.0
H1613 H 0.61157 0.69086 0.68632 0.0
H1614 H 0.61187 0.70469 0.69236 0.0
H1615 H 0.62388 0.69523 0.69375 0.0
C1616 C 0.62063 0.73986 0.69042 0.0
C1617 C 0.6183 0.73634 0.7015 0.0
C1618 C 0.6257 0.73244 0.68282 0.0
C1619 C 0.62879 0.7214 0.68623 0.0
C1620 C 0.62863 0.71885 0.69789 0.0
H1621 H 0.60789 0.71144 0.62027 0.0
H1622 H 0.62169 0.70255 0.63305 0.0
C1623 C 0.62311 0.72617 0.70546 0.0
C1624 C 0.6296 0.71252 0.67728 0.0
H1625 H 0.61186 0.69255 0.66697 0.0
C1626 C 0.63468 0.71566 0.66695 0.0
C1627 C 0.62223 0.70307 0.67732 0.0
C1628 C 0.61709 0.6982 0.68801 0.0
C1629 C 0.63014 0.71219 0.65661 0.0
C1630 C 0.62095 0.70455 0.65674 0.0
C1631 C 0.61839 0.69894 0.66695 0.0
C1632 C 0.6117 0.70545 0.64822 0.0
C1633 C 0.63423 0.71797 0.64592 0.0
C1634 C 0.60084 0.70851 0.65218 0.0
C1635 C 0.59282 0.71299 0.64484 0.0
C1636 C 0.59547 0.71463 0.63341 0.0
C1637 C 0.60565 0.71018 0.62909 0.0
C1638 C 0.61366 0.70538 0.63646 0.0
H1639 H 0.64139 0.72374 0.64747 0.0
H1640 H 0.63714 0.71155 0.63975 0.0
H1641 H 0.62728 0.72302 0.64209 0.0
H1642 H 0.59889 0.70862 0.66114 0.0
H1643 H 0.58505 0.71645 0.64837 0.0
H1644 H 0.61055 0.37289 0.95873 0.0
H1645 H 0.61956 0.37837 0.94089 0.0
H1646 H 0.588 0.37298 0.92377 0.0
H1647 H 0.57893 0.3686 0.94164 0.0
H1648 H 0.62314 0.36279 0.9282 0.0
H1649 H 0.60082 0.39267 0.90092 0.0
H1650 H 0.59818 0.39249 0.91598 0.0
H1651 H 0.59001 0.3838 0.90661 0.0
C1652 C 0.60536 0.37384 0.95128 0.0
C1653 C 0.59407 0.37031 0.95152 0.0
C1654 C 0.61056 0.37677 0.941 0.0
C1655 C 0.6046 0.37586 0.93081 0.0
C1656 C 0.59287 0.37399 0.93138 0.0
H1657 H 0.61522 0.32769 0.88375 0.0
H1658 H 0.61645 0.34015 0.89991 0.0
C1659 C 0.5876 0.37148 0.94171 0.0
C1660 C 0.61082 0.37365 0.91999 0.0
H1661 H 0.6068 0.37447 0.89151 0.0
C1662 C 0.61974 0.36569 0.9202 0.0
C1663 C 0.60688 0.37757 0.90937 0.0
C1664 C 0.59854 0.38721 0.90827 0.0
C1665 C 0.62373 0.36056 0.91028 0.0
C1666 C 0.61834 0.36305 0.89992 0.0
C1667 C 0.61056 0.37209 0.8995 0.0
C1668 C 0.61935 0.35541 0.89001 0.0
C1669 C 0.63341 0.35222 0.91115 0.0
C1670 C 0.62032 0.35975 0.87893 0.0
C1671 C 0.61927 0.35259 0.86962 0.0
C1672 C 0.61746 0.34098 0.87127 0.0
C1673 C 0.61699 0.33656 0.88229 0.0
C1674 C 0.61776 0.34372 0.89155 0.0
H1675 H 0.63965 0.35512 0.91744 0.0
H1676 H 0.63017 0.34395 0.9142 0.0
H1677 H 0.63781 0.35104 0.90292 0.0
H1678 H 0.62139 0.36873 0.87746 0.0
H1679 H 0.6194 0.35619 0.86117 0.0
H1680 H 0.13146 0.96864 0.37282 0.0
H1681 H 0.14982 0.96072 0.37815 0.0
H1682 H 0.16421 0.9941 0.37571 0.0
H1683 H 0.14576 0.00196 0.37145 0.0
H1684 H 0.16401 0.95958 0.36336 0.0
H1685 H 0.18647 0.98187 0.39628 0.0
H1686 H 0.1713 0.98311 0.39517 0.0
H1687 H 0.1805 0.99278 0.38761 0.0
C1688 C 0.13839 0.97434 0.37433 0.0
C1689 C 0.13722 0.98591 0.37185 0.0
C1690 C 0.14896 0.9698 0.37719 0.0
C1691 C 0.15858 0.97672 0.3772 0.0
C1692 C 0.15704 0.9885 0.37607 0.0
H1693 H 0.21046 0.9738 0.3322 0.0
H1694 H 0.19346 0.97024 0.34332 0.0
C1695 C 0.1464 0.99306 0.37361 0.0
C1696 C 0.17008 0.97171 0.37542 0.0
H1697 H 0.19791 0.97804 0.37865 0.0
C1698 C 0.17139 0.96343 0.36702 0.0
C1699 C 0.17992 0.97623 0.38033 0.0
C1700 C 0.17941 0.98388 0.39045 0.0
C1701 C 0.18204 0.96068 0.36248 0.0
C1702 C 0.19161 0.96673 0.36603 0.0
C1703 C 0.19053 0.97382 0.37546 0.0
C1704 C 0.20221 0.96717 0.35913 0.0
C1705 C 0.18279 0.95158 0.35366 0.0
C1706 C 0.21291 0.96692 0.36424 0.0
C1707 C 0.22265 0.96932 0.35787 0.0
C1708 C 0.22187 0.97177 0.34627 0.0
C1709 C 0.21129 0.97155 0.34106 0.0
C1710 C 0.20156 0.96944 0.34745 0.0
H1711 H 0.17689 0.94461 0.35577 0.0
H1712 H 0.18017 0.95514 0.34536 0.0
H1713 H 0.19147 0.94802 0.35287 0.0
H1714 H 0.21368 0.96535 0.37324 0.0
H1715 H 0.23073 0.96972 0.36208 0.0
H1716 H 0.35938 0.86977 0.62319 0.0
H1717 H 0.37333 0.8824 0.63143 0.0
H1718 H 0.34807 0.90901 0.63221 0.0
H1719 H 0.33428 0.89628 0.62481 0.0
H1720 H 0.38168 0.89724 0.62041 0.0
H1721 H 0.36629 0.92185 0.6553 0.0
H1722 H 0.35995 0.90833 0.65252 0.0
H1723 H 0.35386 0.92132 0.64691 0.0
C1724 C 0.35668 0.87807 0.62597 0.0
C1725 C 0.34577 0.88207 0.62349 0.0
C1726 C 0.3647 0.88538 0.63052 0.0
C1727 C 0.36193 0.89681 0.63244 0.0
C1728 C 0.35057 0.90027 0.63122 0.0
H1729 H 0.36834 0.94015 0.58962 0.0
H1730 H 0.37675 0.92532 0.60085 0.0
C1731 C 0.34258 0.89294 0.62689 0.0
C1732 C 0.37085 0.90568 0.63261 0.0
H1733 H 0.37058 0.93397 0.63701 0.0
C1734 C 0.37954 0.90519 0.62441 0.0
C1735 C 0.36909 0.916 0.63833 0.0
C1736 C 0.36187 0.91679 0.64886 0.0
C1737 C 0.38452 0.91511 0.62017 0.0
C1738 C 0.38014 0.9257 0.62366 0.0
C1739 C 0.37346 0.92598 0.63358 0.0
C1740 C 0.37951 0.93561 0.61571 0.0
C1741 C 0.39379 0.91411 0.61141 0.0
C1742 C 0.37867 0.94673 0.61982 0.0
C1743 C 0.37337 0.95521 0.61338 0.0
C1744 C 0.36924 0.95279 0.60259 0.0
C1745 C 0.3717 0.94228 0.59782 0.0
C1746 C 0.37662 0.93372 0.60434 0.0
H1747 H 0.40033 0.90803 0.61443 0.0
H1748 H 0.39033 0.91061 0.6035 0.0
H1749 H 0.39787 0.92235 0.60958 0.0
H1750 H 0.38095 0.94857 0.62846 0.0
H1751 H 0.37138 0.96323 0.6173 0.0
H1752 H 0.39227 0.12299 0.82818 0.0
H1753 H 0.40999 0.12572 0.83784 0.0
H1754 H 0.39212 0.1282 0.86969 0.0
H1755 H 0.37442 0.12418 0.86003 0.0
H1756 H 0.4229 0.13543 0.85164 0.0
H1757 H 0.4053 0.0981 0.87473 0.0
H1758 H 0.39752 0.10514 0.86374 0.0
H1759 H 0.3986 0.11142 0.87753 0.0
C1760 C 0.39202 0.12479 0.83715 0.0
C1761 C 0.38208 0.123 0.84342 0.0
C1762 C 0.40223 0.12623 0.84275 0.0
C1763 C 0.40249 0.12636 0.85463 0.0
C1764 C 0.3922 0.12739 0.86058 0.0
H1765 H 0.47282 0.10425 0.86999 0.0
H1766 H 0.45621 0.11678 0.8719 0.0
C1767 C 0.38202 0.12543 0.85502 0.0
C1768 C 0.41313 0.12281 0.86038 0.0
H1769 H 0.42457 0.10031 0.87474 0.0
C1770 C 0.42329 0.12785 0.85686 0.0
C1771 C 0.41365 0.11289 0.86725 0.0
C1772 C 0.40322 0.10651 0.87099 0.0
C1773 C 0.4338 0.12259 0.8588 0.0
C1774 C 0.43425 0.1123 0.86505 0.0
C1775 C 0.42421 0.10807 0.86979 0.0
C1776 C 0.44441 0.10472 0.86515 0.0
C1777 C 0.4441 0.12751 0.85312 0.0
C1778 C 0.44328 0.09352 0.86142 0.0
C1779 C 0.45261 0.08627 0.86085 0.0
C1780 C 0.46336 0.09008 0.86377 0.0
C1781 C 0.46456 0.10114 0.86777 0.0
C1782 C 0.45511 0.10835 0.86865 0.0
H1783 H 0.44198 0.13461 0.84727 0.0
H1784 H 0.4499 0.13078 0.8596 0.0
H1785 H 0.44853 0.12088 0.84819 0.0
H1786 H 0.43517 0.09044 0.85864 0.0
H1787 H 0.4515 0.07781 0.85766 0.0
H1788 H 0.22522 0.106 0.10563 0.0
H1789 H 0.22372 0.12358 0.1165 0.0
H1790 H 0.23243 0.14273 0.08647 0.0
H1791 H 0.23333 0.12531 0.07559 0.0
H1792 H 0.23922 0.13806 0.12149 0.0
H1793 H 0.207 0.16161 0.09758 0.0
H1794 H 0.20946 0.14671 0.09546 0.0
H1795 H 0.21783 0.15709 0.08795 0.0
C1796 C 0.22643 0.11403 0.10133 0.0
C1797 C 0.22911 0.11438 0.08975 0.0
C1798 C 0.22566 0.12405 0.10755 0.0
C1799 C 0.22773 0.13456 0.10229 0.0
C1800 C 0.23038 0.13483 0.09068 0.0
H1801 H 0.26093 0.19239 0.12017 0.0
H1802 H 0.25433 0.1731 0.12172 0.0
C1803 C 0.23092 0.12487 0.08445 0.0
C1804 C 0.22803 0.14518 0.10897 0.0
H1805 H 0.22095 0.17309 0.10713 0.0
C1806 C 0.235 0.14567 0.11851 0.0
C1807 C 0.22226 0.15511 0.10544 0.0
C1808 C 0.21362 0.15505 0.09613 0.0
C1809 C 0.23709 0.15594 0.12398 0.0
C1810 C 0.23246 0.16611 0.11951 0.0
C1811 C 0.22473 0.16543 0.11056 0.0
C1812 C 0.23652 0.17756 0.12275 0.0
C1813 C 0.24437 0.15573 0.13438 0.0
C1814 C 0.22887 0.18671 0.12348 0.0
C1815 C 0.23269 0.19782 0.12222 0.0
C1816 C 0.24424 0.19997 0.12053 0.0
C1817 C 0.252 0.191 0.12169 0.0
C1818 C 0.24817 0.17987 0.12255 0.0
H1819 H 0.24272 0.148 0.13952 0.0
H1820 H 0.25341 0.15544 0.13179 0.0
H1821 H 0.24287 0.16325 0.13975 0.0
H1822 H 0.21985 0.18523 0.12378 0.0
H1823 H 0.22653 0.20457 0.12121 0.0
H1824 H 0.11653 0.10013 0.21122 0.0
H1825 H 0.12773 0.1155 0.20297 0.0
H1826 H 0.15723 0.09369 0.20364 0.0
H1827 H 0.14598 0.07849 0.21112 0.0
H1828 H 0.14086 0.12551 0.21445 0.0
H1829 H 0.16895 0.11349 0.18065 0.0
H1830 H 0.15619 0.10553 0.18307 0.0
H1831 H 0.16949 0.10102 0.18923 0.0
C1832 C 0.12521 0.09845 0.20875 0.0
C1833 C 0.13043 0.08816 0.21176 0.0
C1834 C 0.13169 0.1073 0.20419 0.0
C1835 C 0.14346 0.10596 0.20271 0.0
C1836 C 0.14821 0.09511 0.20432 0.0
H1837 H 0.18362 0.11738 0.24682 0.0
H1838 H 0.16831 0.12341 0.23488 0.0
C1839 C 0.14174 0.0863 0.2087 0.0
C1840 C 0.15117 0.11591 0.20269 0.0
H1841 H 0.17948 0.11912 0.19929 0.0
C1842 C 0.1492 0.1244 0.21074 0.0
C1843 C 0.16192 0.11545 0.19736 0.0
C1844 C 0.16413 0.10844 0.18699 0.0
C1845 C 0.1582 0.13049 0.21527 0.0
C1846 C 0.16941 0.12748 0.21218 0.0
C1847 C 0.17102 0.12096 0.20238 0.0
C1848 C 0.17888 0.12804 0.22045 0.0
C1849 C 0.15563 0.13942 0.22395 0.0
C1850 C 0.1902 0.12898 0.21676 0.0
C1851 C 0.19905 0.12512 0.22365 0.0
C1852 C 0.19671 0.12059 0.23441 0.0
C1853 C 0.18565 0.12111 0.23865 0.0
C1854 C 0.17682 0.12467 0.23173 0.0
H1855 H 0.14888 0.14517 0.22075 0.0
H1856 H 0.15229 0.13539 0.23179 0.0
H1857 H 0.16317 0.14451 0.22596 0.0
H1858 H 0.19213 0.13161 0.20817 0.0
H1859 H 0.20752 0.12458 0.22013 0.0
H1860 H 0.20192 0.94699 0.49606 0.0
H1861 H 0.19953 0.93508 0.47966 0.0
H1862 H 0.21382 0.96108 0.45827 0.0
H1863 H 0.21636 0.97299 0.47482 0.0
H1864 H 0.19414 0.93256 0.45594 0.0
H1865 H 0.24025 0.93916 0.46301 0.0
H1866 H 0.23006 0.94521 0.47263 0.0
H1867 H 0.23144 0.95074 0.45848 0.0
C1868 C 0.20377 0.95051 0.48776 0.0
C1869 C 0.20954 0.96077 0.48672 0.0
C1870 C 0.20248 0.94365 0.47834 0.0
C1871 C 0.20697 0.947 0.46781 0.0
C1872 C 0.21056 0.95821 0.46637 0.0
H1873 H 0.24467 0.88737 0.4583 0.0
H1874 H 0.23668 0.90354 0.44784 0.0
C1875 C 0.21185 0.96511 0.47584 0.0
C1876 C 0.21094 0.93789 0.46013 0.0
H1877 H 0.23453 0.92136 0.4579 0.0
C1878 C 0.20303 0.93025 0.45593 0.0
C1879 C 0.22258 0.93495 0.45972 0.0
C1880 C 0.23163 0.9429 0.46368 0.0
C1881 C 0.20631 0.91924 0.45283 0.0
C1882 C 0.21765 0.91568 0.45448 0.0
C1883 C 0.22576 0.92389 0.45688 0.0
C1884 C 0.22071 0.90363 0.45698 0.0
C1885 C 0.19742 0.91136 0.44853 0.0
C1886 C 0.21415 0.89769 0.46497 0.0
C1887 C 0.21862 0.8884 0.47074 0.0
C1888 C 0.22985 0.88492 0.46885 0.0
C1889 C 0.23599 0.88989 0.45992 0.0
C1890 C 0.23142 0.89918 0.45399 0.0
H1891 H 0.19209 0.9158 0.44217 0.0
H1892 H 0.20118 0.90368 0.44463 0.0
H1893 H 0.19174 0.90882 0.45561 0.0
H1894 H 0.20602 0.90092 0.46777 0.0
H1895 H 0.21366 0.88465 0.47753 0.0
H1896 H 0.38983 0.96817 0.75221 0.0
H1897 H 0.40471 0.96086 0.74015 0.0
H1898 H 0.38044 0.95488 0.71384 0.0
H1899 H 0.36564 0.96341 0.72573 0.0
H1900 H 0.41287 0.94572 0.72788 0.0
H1901 H 0.39663 0.97805 0.69726 0.0
H1902 H 0.38979 0.97615 0.71073 0.0
H1903 H 0.38833 0.9657 0.69985 0.0
C1904 C 0.38756 0.96477 0.74407 0.0
C1905 C 0.37666 0.96646 0.73985 0.0
C1906 C 0.39613 0.96064 0.73706 0.0
C1907 C 0.39389 0.95788 0.72574 0.0
C1908 C 0.38255 0.95756 0.72227 0.0
H1909 H 0.46371 0.96945 0.71153 0.0
H1910 H 0.44773 0.95829 0.70493 0.0
C1911 C 0.374 0.96212 0.7292 0.0
C1912 C 0.40363 0.95757 0.71759 0.0
H1913 H 0.41571 0.97442 0.69729 0.0
C1914 C 0.41349 0.95188 0.72105 0.0
C1915 C 0.40438 0.96524 0.70829 0.0
C1916 C 0.39426 0.97167 0.70379 0.0
C1917 C 0.42423 0.95532 0.71727 0.0
C1918 C 0.42505 0.96411 0.70903 0.0
C1919 C 0.41508 0.96801 0.70388 0.0
C1920 C 0.43526 0.97145 0.70808 0.0
C1921 C 0.43442 0.95042 0.72324 0.0
C1922 C 0.43391 0.98309 0.71019 0.0
C1923 C 0.44313 0.98963 0.71316 0.0
C1924 C 0.45382 0.98463 0.71434 0.0
C1925 C 0.45552 0.9735 0.71062 0.0
C1926 C 0.44631 0.96703 0.70718 0.0
H1927 H 0.43206 0.94451 0.73021 0.0
H1928 H 0.43972 0.94563 0.71714 0.0
H1929 H 0.43956 0.95725 0.72691 0.0
H1930 H 0.42557 0.98689 0.71082 0.0
H1931 H 0.44158 0.99816 0.71611 0.0
H1932 H 0.37621 0.13509 0.98999 0.0
H1933 H 0.38035 0.15175 0.97831 0.0
H1934 H 0.36835 0.13452 0.94889 0.0
H1935 H 0.36416 0.11791 0.96053 0.0
H1936 H 0.38778 0.15745 0.94922 0.0
H1937 H 0.34371 0.15878 0.96645 0.0
H1938 H 0.35473 0.15253 0.97492 0.0
H1939 H 0.35027 0.14565 0.9623 0.0
C1940 C 0.37525 0.13457 0.98091 0.0
C1941 C 0.36983 0.12529 0.97614 0.0
C1942 C 0.37759 0.14411 0.97422 0.0
C1943 C 0.37453 0.14438 0.96277 0.0
C1944 C 0.37084 0.13445 0.95768 0.0
H1945 H 0.34152 0.20673 0.95221 0.0
H1946 H 0.34792 0.18944 0.94296 0.0
C1947 C 0.36846 0.12495 0.96435 0.0
C1948 C 0.37164 0.15538 0.95748 0.0
H1949 H 0.35065 0.17515 0.95812 0.0
C1950 C 0.37962 0.16132 0.95097 0.0
C1951 C 0.36085 0.16022 0.95947 0.0
C1952 C 0.35183 0.15402 0.96613 0.0
C1953 C 0.37728 0.17237 0.94701 0.0
C1954 C 0.36685 0.17764 0.94995 0.0
C1955 C 0.35863 0.17125 0.95574 0.0
C1956 C 0.36497 0.19013 0.94946 0.0
C1957 C 0.38609 0.1783 0.93991 0.0
C1958 C 0.37281 0.19711 0.95477 0.0
C1959 C 0.36924 0.20722 0.95968 0.0
C1960 C 0.35772 0.21024 0.95969 0.0
C1961 C 0.35042 0.20452 0.95247 0.0
C1962 C 0.35409 0.19454 0.94726 0.0
H1963 H 0.39013 0.17227 0.93393 0.0
H1964 H 0.38246 0.18549 0.93501 0.0
H1965 H 0.39284 0.18147 0.94547 0.0
H1966 H 0.38124 0.19408 0.95669 0.0
H1967 H 0.3751 0.21162 0.96504 0.0
H1968 H 0.82083 0.39598 0.11943 0.0
H1969 H 0.83465 0.40803 0.12796 0.0
H1970 H 0.85509 0.37876 0.13649 0.0
H1971 H 0.84151 0.36674 0.12679 0.0
H1972 H 0.84663 0.41348 0.14435 0.0
H1973 H 0.87713 0.39122 0.1158 0.0
H1974 H 0.86259 0.38701 0.11599 0.0
H1975 H 0.87154 0.38394 0.12793 0.0
C1976 C 0.828 0.39205 0.12361 0.0
C1977 C 0.83018 0.38049 0.12236 0.0
C1978 C 0.83603 0.39897 0.12847 0.0
C1979 C 0.84635 0.39443 0.13237 0.0
C1980 C 0.84756 0.38259 0.13296 0.0
H1981 H 0.86843 0.45992 0.11656 0.0
H1982 H 0.87359 0.44462 0.12973 0.0
C1983 C 0.83963 0.37566 0.12771 0.0
C1984 C 0.85607 0.40234 0.13353 0.0
H1985 H 0.87891 0.41043 0.11766 0.0
C1986 C 0.85384 0.41279 0.13866 0.0
C1987 C 0.86596 0.40129 0.12669 0.0
C1988 C 0.86951 0.39029 0.12128 0.0
C1989 C 0.85925 0.42269 0.13491 0.0
C1990 C 0.86782 0.42188 0.12645 0.0
C1991 C 0.87195 0.41108 0.12366 0.0
C1992 C 0.86978 0.4312 0.11802 0.0
C1993 C 0.85461 0.43386 0.13902 0.0
C1994 C 0.86781 0.4289 0.10654 0.0
C1995 C 0.86568 0.43764 0.09887 0.0
C1996 C 0.86522 0.44883 0.10255 0.0
C1997 C 0.86878 0.45131 0.11354 0.0
C1998 C 0.87139 0.44252 0.12116 0.0
H1999 H 0.84756 0.43281 0.1452 0.0
H2000 H 0.86137 0.43861 0.14327 0.0
H2001 H 0.85138 0.43899 0.13182 0.0
H2002 H 0.86664 0.42032 0.10368 0.0
H2003 H 0.86284 0.43552 0.09047 0.0
H2004 H 0.95642 0.61381 0.36809 0.0
H2005 H 0.93875 0.62378 0.37233 0.0
H2006 H 0.92061 0.59256 0.36842 0.0
H2007 H 0.93829 0.5826 0.36512 0.0
H2008 H 0.92634 0.62667 0.35614 0.0
H2009 H 0.8982 0.60746 0.38746 0.0
H2010 H 0.91318 0.6044 0.38753 0.0
H2011 H 0.90362 0.59595 0.37935 0.0
C2012 C 0.94874 0.60896 0.36906 0.0
C2013 C 0.94868 0.59744 0.36632 0.0
C2014 C 0.93858 0.61469 0.37131 0.0
C2015 C 0.92821 0.60903 0.37051 0.0
C2016 C 0.92839 0.5972 0.36933 0.0
H2017 H 0.88193 0.61796 0.32149 0.0
H2018 H 0.89799 0.61964 0.33402 0.0
C2019 C 0.93858 0.59143 0.36745 0.0
C2020 C 0.91764 0.61548 0.36783 0.0
H2021 H 0.889 0.61293 0.36912 0.0
C2022 C 0.91819 0.62381 0.35926 0.0
C2023 C 0.90689 0.61229 0.37205 0.0
C2024 C 0.9055 0.60463 0.38221 0.0
C2025 C 0.90843 0.62783 0.35386 0.0
C2026 C 0.89786 0.62306 0.35674 0.0
C2027 C 0.89714 0.61605 0.36638 0.0
C2028 C 0.88801 0.62374 0.34895 0.0
C2029 C 0.90967 0.63688 0.34488 0.0
C2030 C 0.8769 0.62515 0.35309 0.0
C2031 C 0.86765 0.62379 0.34591 0.0
C2032 C 0.86938 0.62124 0.33446 0.0
C2033 C 0.88042 0.62029 0.33022 0.0
C2034 C 0.88962 0.62135 0.33741 0.0
H2035 H 0.9161 0.64314 0.34743 0.0
H2036 H 0.91275 0.633 0.33691 0.0
H2037 H 0.90158 0.64142 0.34327 0.0
H2038 H 0.87536 0.62684 0.36195 0.0
H2039 H 0.85916 0.62431 0.34939 0.0
H2040 H 0.71395 0.60998 0.60413 0.0
H2041 H 0.71211 0.62708 0.61561 0.0
H2042 H 0.71719 0.64757 0.58562 0.0
H2043 H 0.71839 0.63057 0.57418 0.0
H2044 H 0.72719 0.64153 0.61987 0.0
H2045 H 0.69295 0.66562 0.59974 0.0
H2046 H 0.6954 0.65089 0.59665 0.0
H2047 H 0.70287 0.66179 0.58892 0.0
C2048 C 0.71417 0.61818 0.59998 0.0
C2049 C 0.71601 0.61901 0.58827 0.0
C2050 C 0.71322 0.62794 0.60654 0.0
C2051 C 0.71428 0.63869 0.6015 0.0
C2052 C 0.71589 0.63946 0.58971 0.0
H2053 H 0.74995 0.6948 0.61666 0.0
H2054 H 0.74282 0.67583 0.61922 0.0
C2055 C 0.7166 0.62973 0.58315 0.0
C2056 C 0.71501 0.64905 0.60852 0.0
H2057 H 0.70803 0.67699 0.60791 0.0
C2058 C 0.72277 0.64923 0.61745 0.0
C2059 C 0.70897 0.65906 0.60579 0.0
C2060 C 0.69949 0.65926 0.59734 0.0
C2061 C 0.72544 0.65936 0.62292 0.0
C2062 C 0.72059 0.66966 0.61904 0.0
C2063 C 0.71201 0.66924 0.61087 0.0
C2064 C 0.72534 0.68096 0.62181 0.0
C2065 C 0.73358 0.65885 0.63265 0.0
C2066 C 0.71813 0.69041 0.62304 0.0
C2067 C 0.72223 0.70134 0.62116 0.0
C2068 C 0.73366 0.70299 0.61839 0.0
C2069 C 0.74115 0.69377 0.61905 0.0
C2070 C 0.73701 0.68282 0.6205 0.0
H2071 H 0.73206 0.65116 0.6379 0.0
H2072 H 0.74235 0.6582 0.62931 0.0
H2073 H 0.73283 0.66639 0.63813 0.0
H2074 H 0.70911 0.68929 0.62419 0.0
H2075 H 0.71625 0.7083 0.62051 0.0
H2076 H 0.95096 0.51028 0.21722 0.0
H2077 H 0.93667 0.49796 0.20977 0.0
H2078 H 0.962 0.47208 0.20397 0.0
H2079 H 0.97626 0.48432 0.21242 0.0
H2080 H 0.93015 0.48603 0.19341 0.0
H2081 H 0.94448 0.45524 0.22645 0.0
H2082 H 0.9511 0.4688 0.22503 0.0
H2083 H 0.95367 0.45801 0.21464 0.0
C2084 C 0.95358 0.50216 0.21388 0.0
C2085 C 0.96465 0.49822 0.2154 0.0
C2086 C 0.94537 0.49503 0.20965 0.0
C2087 C 0.9481 0.48382 0.20673 0.0
C2088 C 0.95955 0.48047 0.20665 0.0
H2089 H 0.87776 0.46806 0.21282 0.0
H2090 H 0.89516 0.46234 0.2029 0.0
C2091 C 0.96776 0.48757 0.2112 0.0
C2092 C 0.93862 0.47564 0.20573 0.0
H2093 H 0.92569 0.45513 0.22157 0.0
C2094 C 0.92918 0.47911 0.19942 0.0
C2095 C 0.93747 0.46629 0.21325 0.0
C2096 C 0.94717 0.46184 0.22026 0.0
C2097 C 0.91829 0.47519 0.20205 0.0
C2098 C 0.91694 0.46683 0.21067 0.0
C2099 C 0.92668 0.46177 0.21526 0.0
C2100 C 0.90608 0.46556 0.21711 0.0
C2101 C 0.90839 0.48111 0.19651 0.0
C2102 C 0.90615 0.4675 0.22884 0.0
C2103 C 0.89616 0.46995 0.23466 0.0
C2104 C 0.88594 0.47078 0.22884 0.0
C2105 C 0.88558 0.46741 0.2175 0.0
C2106 C 0.89558 0.46445 0.21175 0.0
H2107 H 0.91105 0.48826 0.19097 0.0
H2108 H 0.9038 0.47506 0.19117 0.0
H2109 H 0.90248 0.48452 0.20299 0.0
H2110 H 0.91404 0.4683 0.23333 0.0
H2111 H 0.89666 0.47268 0.24337 0.0
H2112 H 0.69113 0.61818 0.75137 0.0
H2113 H 0.67261 0.62035 0.7429 0.0
H2114 H 0.68805 0.62194 0.70974 0.0
H2115 H 0.70659 0.61873 0.71827 0.0
H2116 H 0.65902 0.63084 0.72946 0.0
H2117 H 0.67388 0.59201 0.70736 0.0
H2118 H 0.68255 0.5991 0.71741 0.0
H2119 H 0.68087 0.60482 0.70334 0.0
C2120 C 0.69065 0.61967 0.74233 0.0
C2121 C 0.70023 0.61811 0.73546 0.0
C2122 C 0.68 0.62077 0.73743 0.0
C2123 C 0.67887 0.62065 0.72561 0.0
C2124 C 0.68866 0.62146 0.71886 0.0
H2125 H 0.60675 0.60452 0.713 0.0
H2126 H 0.62432 0.61528 0.71056 0.0
C2127 C 0.6993 0.61994 0.72375 0.0
C2128 C 0.66776 0.61749 0.72076 0.0
H2129 H 0.65468 0.59569 0.70753 0.0
C2130 C 0.65804 0.62324 0.72452 0.0
C2131 C 0.66649 0.60752 0.7143 0.0
C2132 C 0.67647 0.60044 0.71042 0.0
C2133 C 0.64719 0.61878 0.72301 0.0
C2134 C 0.64594 0.60853 0.71702 0.0
C2135 C 0.6556 0.60345 0.71224 0.0
C2136 C 0.6352 0.60194 0.71707 0.0
C2137 C 0.63739 0.62459 0.72878 0.0
C2138 C 0.63546 0.59058 0.72073 0.0
C2139 C 0.62555 0.58431 0.72155 0.0
C2140 C 0.61509 0.5893 0.719 0.0
C2141 C 0.61476 0.6005 0.71497 0.0
C2142 C 0.62478 0.60671 0.7138 0.0
H2143 H 0.64015 0.63124 0.73471 0.0
H2144 H 0.63195 0.62871 0.72234 0.0
H2145 H 0.63236 0.61835 0.73364 0.0
H2146 H 0.64333 0.58661 0.7233 0.0
H2147 H 0.62601 0.5757 0.72471 0.0
H2148 H 0.46413 0.87065 0.62007 0.0
H2149 H 0.45389 0.87881 0.63614 0.0
H2150 H 0.48404 0.87529 0.65627 0.0
H2151 H 0.49426 0.86811 0.64008 0.0
H2152 H 0.44834 0.8668 0.65164 0.0
H2153 H 0.47089 0.89909 0.67403 0.0
H2154 H 0.47419 0.89643 0.65936 0.0
H2155 H 0.48191 0.8893 0.67056 0.0
C2156 C 0.46873 0.87249 0.6277 0.0
C2157 C 0.48001 0.86892 0.62885 0.0
C2158 C 0.46283 0.87699 0.63698 0.0
C2159 C 0.46806 0.87764 0.64759 0.0
C2160 C 0.47973 0.87527 0.64825 0.0
H2161 H 0.46179 0.83534 0.69614 0.0
H2162 H 0.45521 0.84681 0.68047 0.0
C2163 C 0.48566 0.8711 0.63892 0.0
C2164 C 0.46119 0.87779 0.65825 0.0
H2165 H 0.46581 0.88165 0.68627 0.0
C2166 C 0.45191 0.87044 0.65916 0.0
C2167 C 0.46512 0.88295 0.66821 0.0
C2168 C 0.47348 0.89249 0.66789 0.0
C2169 C 0.44795 0.86666 0.66974 0.0
C2170 C 0.45379 0.86979 0.67959 0.0
C2171 C 0.46162 0.87867 0.67876 0.0
C2172 C 0.45396 0.86244 0.68993 0.0
C2173 C 0.43797 0.85882 0.67013 0.0
C2174 C 0.45515 0.86712 0.70075 0.0
C2175 C 0.45928 0.86048 0.70971 0.0
C2176 C 0.46196 0.84904 0.70805 0.0
C2177 C 0.45945 0.84407 0.6977 0.0
C2178 C 0.45562 0.85071 0.68869 0.0
H2179 H 0.43127 0.86201 0.66437 0.0
H2180 H 0.44059 0.85036 0.66704 0.0
H2181 H 0.43434 0.85798 0.67879 0.0
H2182 H 0.45394 0.8761 0.70201 0.0
H2183 H 0.46143 0.86455 0.71757 0.0
H2184 H 0.5121 0.22894 0.95915 0.0
H2185 H 0.50004 0.22826 0.94255 0.0
H2186 H 0.47236 0.21631 0.96337 0.0
H2187 H 0.48437 0.21769 0.98018 0.0
H2188 H 0.49 0.21206 0.93239 0.0
H2189 H 0.45688 0.24183 0.94795 0.0
H2190 H 0.46958 0.23878 0.95575 0.0
H2191 H 0.45817 0.22886 0.95587 0.0
C2192 C 0.50347 0.22605 0.96013 0.0
C2193 C 0.49915 0.22323 0.97084 0.0
C2194 C 0.49656 0.22568 0.95066 0.0
C2195 C 0.4852 0.22234 0.95167 0.0
C2196 C 0.48098 0.21915 0.96237 0.0
H2197 H 0.46439 0.22099 0.88185 0.0
H2198 H 0.46116 0.21427 0.90123 0.0
C2199 C 0.48787 0.21978 0.97193 0.0
C2200 C 0.47803 0.22246 0.94137 0.0
H2201 H 0.45554 0.23598 0.92908 0.0
C2202 C 0.48237 0.21717 0.93169 0.0
C2203 C 0.46797 0.229 0.9405 0.0
C2204 C 0.46288 0.23502 0.95054 0.0
C2205 C 0.47769 0.21912 0.921 0.0
C2206 C 0.46791 0.22611 0.92 0.0
C2207 C 0.46297 0.23059 0.92985 0.0
C2208 C 0.46422 0.23054 0.90879 0.0
C2209 C 0.48397 0.21451 0.91083 0.0
C2210 C 0.4651 0.24219 0.90655 0.0
C2211 C 0.46626 0.24613 0.89543 0.0
C2212 C 0.46687 0.23842 0.88651 0.0
C2213 C 0.46395 0.2271 0.88861 0.0
C2214 C 0.46236 0.22322 0.89972 0.0
H2215 H 0.49242 0.21102 0.91305 0.0
H2216 H 0.47904 0.20758 0.90707 0.0
H2217 H 0.4852 0.22121 0.90431 0.0
H2218 H 0.46634 0.24807 0.91339 0.0
H2219 H 0.46857 0.25488 0.89405 0.0
H2220 H 0.12301 0.21725 0.12914 0.0
H2221 H 0.12767 0.20749 0.1468 0.0
H2222 H 0.09226 0.20803 0.15613 0.0
H2223 H 0.08766 0.21638 0.13809 0.0
H2224 H 0.12729 0.21839 0.16326 0.0
H2225 H 0.09988 0.18451 0.17698 0.0
H2226 H 0.10115 0.18784 0.16211 0.0
H2227 H 0.09009 0.19421 0.17071 0.0
C2228 C 0.11621 0.21445 0.13465 0.0
C2229 C 0.105 0.2176 0.13233 0.0
C2230 C 0.11886 0.20901 0.14485 0.0
C2231 C 0.1104 0.2072 0.15312 0.0
C2232 C 0.09904 0.209 0.15003 0.0
H2233 H 0.10321 0.24691 0.20599 0.0
H2234 H 0.11025 0.23633 0.18985 0.0
C2235 C 0.09636 0.2139 0.13962 0.0
C2236 C 0.11337 0.20674 0.16538 0.0
H2237 H 0.10036 0.20143 0.19066 0.0
C2238 C 0.12165 0.21425 0.16922 0.0
C2239 C 0.10658 0.20107 0.17354 0.0
C2240 C 0.09906 0.19136 0.17054 0.0
C2241 C 0.12202 0.21754 0.18055 0.0
C2242 C 0.11355 0.21371 0.18812 0.0
C2243 C 0.10651 0.20487 0.18476 0.0
C2244 C 0.11061 0.22008 0.19853 0.0
C2245 C 0.1311 0.22562 0.18408 0.0
C2246 C 0.10816 0.21452 0.20881 0.0
C2247 C 0.1038 0.2206 0.21801 0.0
C2248 C 0.10194 0.23231 0.21707 0.0
C2249 C 0.10478 0.23791 0.20698 0.0
C2250 C 0.10891 0.23185 0.19776 0.0
H2251 H 0.13925 0.22346 0.17984 0.0
H2252 H 0.12877 0.23432 0.18134 0.0
H2253 H 0.13237 0.22548 0.19337 0.0
H2254 H 0.10927 0.20545 0.2096 0.0
H2255 H 0.10155 0.21612 0.22572 0.0
H2256 H 0.10998 0.8754 0.46596 0.0
H2257 H 0.12235 0.88479 0.45218 0.0
H2258 H 0.09697 0.88009 0.4266 0.0
H2259 H 0.08452 0.87182 0.44053 0.0
H2260 H 0.13209 0.87415 0.43834 0.0
H2261 H 0.11159 0.90417 0.41077 0.0
H2262 H 0.10561 0.90146 0.42462 0.0
H2263 H 0.10072 0.8939 0.41234 0.0
C2264 C 0.10678 0.87726 0.45759 0.0
C2265 C 0.09628 0.87302 0.45429 0.0
C2266 C 0.11393 0.88244 0.44962 0.0
C2267 C 0.11081 0.88311 0.43816 0.0
C2268 C 0.09969 0.8801 0.4353 0.0
H2269 H 0.12601 0.83911 0.39727 0.0
H2270 H 0.13133 0.85231 0.41159 0.0
C2271 C 0.09246 0.87528 0.44333 0.0
C2272 C 0.11957 0.88381 0.42898 0.0
H2273 H 0.11923 0.88617 0.40037 0.0
C2274 C 0.12947 0.8772 0.4301 0.0
C2275 C 0.11705 0.88839 0.41819 0.0
C2276 C 0.10822 0.8975 0.41652 0.0
C2277 C 0.13535 0.87325 0.42054 0.0
C2278 C 0.13078 0.87532 0.4097 0.0
C2279 C 0.12243 0.88382 0.40863 0.0
C2280 C 0.1321 0.86696 0.40036 0.0
C2281 C 0.14592 0.86626 0.42225 0.0
C2282 C 0.13128 0.87039 0.38895 0.0
C2283 C 0.12782 0.86273 0.38074 0.0
C2284 C 0.12548 0.85148 0.38376 0.0
C2285 C 0.12803 0.84768 0.39468 0.0
C2286 C 0.13114 0.85535 0.40294 0.0
H2287 H 0.15159 0.87059 0.42823 0.0
H2288 H 0.1437 0.85801 0.4262 0.0
H2289 H 0.15059 0.86481 0.41421 0.0
H2290 H 0.13209 0.87922 0.38661 0.0
H2291 H 0.12569 0.86589 0.37239 0.0
H2292 H 0.68805 0.46071 0.83023 0.0
H2293 H 0.6774 0.45374 0.84622 0.0
H2294 H 0.70824 0.44976 0.86524 0.0
H2295 H 0.71886 0.45781 0.84922 0.0
H2296 H 0.67345 0.43928 0.86138 0.0
H2297 H 0.69611 0.47275 0.88485 0.0
H2298 H 0.69967 0.47074 0.87022 0.0
H2299 H 0.70338 0.46011 0.88062 0.0
C2300 C 0.69263 0.45789 0.83765 0.0
C2301 C 0.70419 0.46005 0.8386 0.0
C2302 C 0.68652 0.4539 0.84691 0.0
C2303 C 0.69186 0.4518 0.85733 0.0
C2304 C 0.70377 0.45194 0.85759 0.0
H2305 H 0.62737 0.47215 0.8771 0.0
H2306 H 0.64227 0.45985 0.88491 0.0
C2307 C 0.70991 0.45625 0.8483 0.0
C2308 C 0.6846 0.45189 0.86776 0.0
H2309 H 0.67676 0.47179 0.88706 0.0
C2310 C 0.67421 0.44626 0.86721 0.0
C2311 C 0.68578 0.4604 0.87606 0.0
C2312 C 0.69682 0.46635 0.87806 0.0
C2313 C 0.66436 0.45096 0.87204 0.0
C2314 C 0.66522 0.46103 0.87841 0.0
C2315 C 0.67605 0.46451 0.88161 0.0
C2316 C 0.65609 0.46988 0.87816 0.0
C2317 C 0.65314 0.44594 0.86889 0.0
C2318 C 0.65877 0.48044 0.87328 0.0
C2319 C 0.6503 0.48769 0.86943 0.0
C2320 C 0.63896 0.48452 0.87021 0.0
C2321 C 0.6361 0.47478 0.87644 0.0
C2322 C 0.64465 0.4676 0.88063 0.0
H2323 H 0.65414 0.43818 0.86374 0.0
H2324 H 0.64835 0.44362 0.87665 0.0
H2325 H 0.64809 0.45215 0.86393 0.0
H2326 H 0.66743 0.48265 0.8713 0.0
H2327 H 0.6527 0.49513 0.86459 0.0
H2328 H 0.71652 0.37937 0.97064 0.0
H2329 H 0.70875 0.39783 0.96514 0.0
H2330 H 0.7425 0.41146 0.96465 0.0
H2331 H 0.75018 0.3929 0.96915 0.0
H2332 H 0.70868 0.41309 0.97888 0.0
H2333 H 0.73003 0.43218 0.9424 0.0
H2334 H 0.73089 0.41714 0.94501 0.0
H2335 H 0.741 0.42662 0.95117 0.0
C2336 C 0.72228 0.38616 0.96852 0.0
C2337 C 0.73394 0.38472 0.97011 0.0
C2338 C 0.71784 0.39677 0.96555 0.0
C2339 C 0.72497 0.40619 0.96451 0.0
C2340 C 0.73674 0.40441 0.96504 0.0
H2341 H 0.72363 0.46379 0.00211 0.0
H2342 H 0.71997 0.44532 0.99413 0.0
C2343 C 0.74119 0.39373 0.96763 0.0
C2344 C 0.72026 0.41789 0.96547 0.0
H2345 H 0.72657 0.44516 0.95866 0.0
C2346 C 0.71234 0.42006 0.97414 0.0
C2347 C 0.72465 0.42714 0.9592 0.0
C2348 C 0.732 0.42558 0.94885 0.0
C2349 C 0.70964 0.43112 0.97744 0.0
C2350 C 0.71537 0.44029 0.97229 0.0
C2351 C 0.72236 0.43819 0.96286 0.0
C2352 C 0.71555 0.4517 0.97749 0.0
C2353 C 0.70094 0.4328 0.98669 0.0
C2354 C 0.71432 0.46157 0.97085 0.0
C2355 C 0.71674 0.47218 0.97539 0.0
C2356 C 0.72022 0.47306 0.98665 0.0
C2357 C 0.72072 0.46332 0.99347 0.0
C2358 C 0.71856 0.45274 0.9889 0.0
H2359 H 0.69414 0.42642 0.98607 0.0
H2360 H 0.70501 0.43156 0.99503 0.0
H2361 H 0.69704 0.44136 0.98633 0.0
H2362 H 0.71211 0.46101 0.96201 0.0
H2363 H 0.71652 0.47958 0.96993 0.0
H2364 H 0.82986 0.70051 0.46097 0.0
H2365 H 0.83857 0.68196 0.45881 0.0
H2366 H 0.87161 0.69707 0.45922 0.0
H2367 H 0.86282 0.71559 0.46235 0.0
H2368 H 0.85303 0.66852 0.44868 0.0
H2369 H 0.87188 0.68201 0.48932 0.0
H2370 H 0.86214 0.69087 0.48165 0.0
H2371 H 0.87663 0.68957 0.477 0.0
C2372 C 0.83896 0.69998 0.4599 0.0
C2373 C 0.84567 0.70942 0.462 0.0
C2374 C 0.84397 0.68931 0.45881 0.0
C2375 C 0.85578 0.68804 0.45949 0.0
C2376 C 0.86248 0.69778 0.45922 0.0
H2377 H 0.87122 0.61561 0.47454 0.0
H2378 H 0.87303 0.63382 0.46447 0.0
C2379 C 0.85745 0.70842 0.46071 0.0
C2380 C 0.86057 0.67681 0.46278 0.0
H2381 H 0.87276 0.66298 0.48513 0.0
C2382 C 0.8575 0.66729 0.45657 0.0
C2383 C 0.86636 0.67519 0.47315 0.0
C2384 C 0.86938 0.68491 0.48073 0.0
C2385 C 0.85922 0.65626 0.4608 0.0
C2386 C 0.86459 0.65466 0.47138 0.0
C2387 C 0.86856 0.66417 0.47709 0.0
C2388 C 0.86471 0.6436 0.47758 0.0
C2389 C 0.85443 0.64656 0.45429 0.0
C2390 C 0.86014 0.64307 0.4886 0.0
C2391 C 0.85959 0.63282 0.4945 0.0
C2392 C 0.86342 0.6228 0.48947 0.0
C2393 C 0.86831 0.62328 0.47861 0.0
C2394 C 0.86913 0.63364 0.47278 0.0
H2395 H 0.84882 0.64945 0.44733 0.0
H2396 H 0.86143 0.64156 0.45047 0.0
H2397 H 0.84948 0.641 0.46001 0.0
H2398 H 0.85665 0.65057 0.49255 0.0
H2399 H 0.85566 0.63263 0.5028 0.0
H2400 H 0.02567 0.34112 0.18712 0.0
H2401 H 0.03476 0.32579 0.17636 0.0
H2402 H 0.02196 0.30147 0.20039 0.0
H2403 H 0.01254 0.31645 0.21081 0.0
H2404 H 0.04287 0.30302 0.18287 0.0
H2405 H 0.01865 0.28821 0.1523 0.0
H2406 H 0.01393 0.27961 0.16422 0.0
H2407 H 0.02369 0.27425 0.15425 0.0
C2408 C 0.02454 0.33246 0.18992 0.0
C2409 C 0.01815 0.33001 0.1997 0.0
C2410 C 0.02959 0.32369 0.18367 0.0
C2411 C 0.02822 0.31231 0.1869 0.0
C2412 C 0.02234 0.30998 0.19702 0.0
H2413 H 0.07147 0.25005 0.15168 0.0
H2414 H 0.05894 0.2595 0.16499 0.0
C2415 C 0.01711 0.31865 0.20314 0.0
C2416 C 0.03598 0.30246 0.18067 0.0
H2417 H 0.04305 0.27263 0.15593 0.0
C2418 C 0.05078 0.3018 0.18376 0.0
C2419 C 0.03145 0.28647 0.16564 0.0
C2420 C 0.02129 0.28203 0.15889 0.0
C2421 C 0.05945 0.29225 0.17745 0.0
C2422 C 0.05623 0.28215 0.16773 0.0
C2423 C 0.04348 0.27915 0.16226 0.0
C2424 C 0.06561 0.27622 0.16184 0.0
C2425 C 0.07149 0.29287 0.18117 0.0
C2426 C 0.07375 0.2824 0.1557 0.0
C2427 C 0.08102 0.27697 0.14801 0.0
C2428 C 0.08007 0.2653 0.1462 0.0
C2429 C 0.07234 0.25908 0.1528 0.0
C2430 C 0.0652 0.26448 0.16052 0.0
H2431 H 0.07199 0.2965 0.18977 0.0
H2432 H 0.07553 0.28437 0.18116 0.0
H2433 H 0.07623 0.29848 0.17529 0.0
H2434 H 0.07399 0.29152 0.15625 0.0
H2435 H 0.08684 0.28198 0.143 0.0
H2436 H 0.09791 0.81193 0.40399 0.0
H2437 H 0.08981 0.79778 0.41702 0.0
H2438 H 0.05933 0.79756 0.39735 0.0
H2439 H 0.06717 0.81208 0.38463 0.0
H2440 H 0.07182 0.79989 0.43357 0.0
H2441 H 0.05813 0.77611 0.39398 0.0
H2442 H 0.06267 0.76254 0.39935 0.0
H2443 H 0.07288 0.77378 0.39685 0.0
C2444 C 0.08947 0.80885 0.40248 0.0
C2445 C 0.08312 0.81313 0.39336 0.0
C2446 C 0.08491 0.80071 0.40986 0.0
C2447 C 0.07414 0.79636 0.40794 0.0
C2448 C 0.06782 0.80055 0.39878 0.0
H2449 H 0.01569 0.77778 0.45392 0.0
H2450 H 0.03221 0.78532 0.4439 0.0
C2451 C 0.07221 0.80898 0.39163 0.0
C2452 C 0.06881 0.78853 0.41614 0.0
H2453 H 0.04839 0.76093 0.41786 0.0
C2454 C 0.06656 0.79329 0.43028 0.0
C2455 C 0.06226 0.77588 0.41147 0.0
C2456 C 0.06416 0.77177 0.39972 0.0
C2457 C 0.05689 0.78592 0.43955 0.0
C2458 C 0.04978 0.77365 0.43458 0.0
C2459 C 0.05274 0.76832 0.42084 0.0
C2460 C 0.04012 0.769 0.44107 0.0
C2461 C 0.05678 0.78839 0.45193 0.0
C2462 C 0.0388 0.75732 0.44234 0.0
C2463 C 0.02933 0.75298 0.44802 0.0
C2464 C 0.02084 0.76024 0.45234 0.0
C2465 C 0.02206 0.77196 0.45078 0.0
C2466 C 0.03162 0.77628 0.44521 0.0
H2467 H 0.0626 0.7954 0.45384 0.0
H2468 H 0.04811 0.79043 0.45488 0.0
H2469 H 0.0595 0.78069 0.45662 0.0
H2470 H 0.04513 0.75154 0.43902 0.0
H2471 H 0.02864 0.7439 0.44899 0.0
H2472 H 0.57028 0.75867 0.67639 0.0
H2473 H 0.56242 0.77277 0.66344 0.0
H2474 H 0.56398 0.79798 0.68947 0.0
H2475 H 0.57235 0.78393 0.7023 0.0
H2476 H 0.54499 0.79981 0.6817 0.0
H2477 H 0.57196 0.79789 0.64402 0.0
H2478 H 0.56826 0.7837 0.64766 0.0
H2479 H 0.57626 0.79192 0.65743 0.0
C2480 C 0.56897 0.76724 0.67932 0.0
C2481 C 0.57175 0.77016 0.69041 0.0
C2482 C 0.56457 0.77538 0.67185 0.0
C2483 C 0.56242 0.78653 0.67539 0.0
C2484 C 0.56542 0.78947 0.68646 0.0
H2485 H 0.52906 0.83205 0.62584 0.0
H2486 H 0.54352 0.8232 0.63768 0.0
C2487 C 0.57016 0.78142 0.69382 0.0
C2488 C 0.55593 0.79465 0.66803 0.0
H2489 H 0.55213 0.80283 0.6405 0.0
C2490 C 0.54662 0.80046 0.67272 0.0
C2491 C 0.5584 0.79633 0.65639 0.0
C2492 C 0.56935 0.79227 0.65114 0.0
C2493 C 0.53922 0.80693 0.666 0.0
C2494 C 0.54068 0.80703 0.65413 0.0
C2495 C 0.55059 0.80222 0.64953 0.0
C2496 C 0.53195 0.81207 0.6465 0.0
C2497 C 0.53016 0.81398 0.67166 0.0
C2498 C 0.52059 0.80867 0.64731 0.0
C2499 C 0.51228 0.81363 0.64045 0.0
C2500 C 0.51512 0.82224 0.63272 0.0
C2501 C 0.52653 0.82549 0.63177 0.0
C2502 C 0.53485 0.82041 0.63851 0.0
H2503 H 0.53267 0.81632 0.68035 0.0
H2504 H 0.52845 0.82189 0.66682 0.0
H2505 H 0.5222 0.80914 0.67222 0.0
H2506 H 0.5181 0.80223 0.65335 0.0
H2507 H 0.50359 0.81093 0.64142 0.0
H2508 H 0.57698 0.32118 0.93293 0.0
H2509 H 0.56415 0.31267 0.91947 0.0
H2510 H 0.53729 0.3135 0.94433 0.0
H2511 H 0.55003 0.32246 0.95768 0.0
H2512 H 0.53701 0.29442 0.93601 0.0
H2513 H 0.53954 0.32295 0.89942 0.0
H2514 H 0.55358 0.31972 0.90401 0.0
H2515 H 0.54399 0.32694 0.91338 0.0
C2516 C 0.56835 0.31949 0.93552 0.0
C2517 C 0.56456 0.32232 0.94641 0.0
C2518 C 0.56093 0.31476 0.92775 0.0
C2519 C 0.54967 0.31236 0.93078 0.0
C2520 C 0.54591 0.31518 0.94171 0.0
H2521 H 0.50463 0.28303 0.88049 0.0
H2522 H 0.51414 0.29601 0.89302 0.0
C2523 C 0.55322 0.32025 0.94938 0.0
C2524 C 0.54223 0.30598 0.92296 0.0
H2525 H 0.53476 0.30358 0.89524 0.0
C2526 C 0.53669 0.29633 0.9271 0.0
C2527 C 0.54082 0.30901 0.91145 0.0
C2528 C 0.54465 0.32029 0.90684 0.0
C2529 C 0.53081 0.28906 0.91996 0.0
C2530 C 0.53071 0.29129 0.9082 0.0
C2531 C 0.53534 0.3015 0.90416 0.0
C2532 C 0.52542 0.28338 0.9001 0.0
C2533 C 0.52448 0.27924 0.92515 0.0
C2534 C 0.52872 0.27192 0.89964 0.0
C2535 C 0.52329 0.2644 0.89242 0.0
C2536 C 0.5144 0.26819 0.88553 0.0
C2537 C 0.51138 0.27975 0.88574 0.0
C2538 C 0.51685 0.28724 0.8929 0.0
H2539 H 0.52254 0.28067 0.93423 0.0
H2540 H 0.51642 0.27779 0.92068 0.0
H2541 H 0.52969 0.27145 0.92454 0.0
H2542 H 0.53543 0.26874 0.90496 0.0
H2543 H 0.52585 0.25559 0.89247 0.0
H2544 H 0.05284 0.82049 0.45897 0.0
H2545 H 0.04105 0.80778 0.44793 0.0
H2546 H 0.06091 0.81522 0.41815 0.0
H2547 H 0.07306 0.82764 0.42931 0.0
H2548 H 0.02995 0.81081 0.42797 0.0
H2549 H 0.07152 0.76586 0.42565 0.0
H2550 H 0.06902 0.77057 0.43855 0.0
H2551 H 0.07782 0.77737 0.43004 0.0
C2552 C 0.05476 0.81929 0.45009 0.0
C2553 C 0.06422 0.82447 0.4451 0.0
C2554 C 0.04806 0.81201 0.44381 0.0
C2555 C 0.05087 0.80962 0.43252 0.0
C2556 C 0.05916 0.81627 0.42707 0.0
H2557 H 0.00838 0.78347 0.37864 0.0
H2558 H 0.01805 0.7954 0.39227 0.0
C2559 C 0.06611 0.8233 0.43344 0.0
C2560 C 0.0449 0.80037 0.42635 0.0
H2561 H 0.04748 0.78593 0.41732 0.0
C2562 C 0.03354 0.80329 0.42409 0.0
C2563 C 0.0499 0.78827 0.42137 0.0
C2564 C 0.06885 0.77414 0.42965 0.0
C2565 C 0.02647 0.79705 0.4171 0.0
C2566 C 0.03096 0.78835 0.41042 0.0
C2567 C 0.04203 0.78478 0.41162 0.0
C2568 C 0.02422 0.78143 0.40249 0.0
C2569 C 0.01413 0.80033 0.41647 0.0
C2570 C 0.02463 0.76954 0.40345 0.0
C2571 C 0.01945 0.7627 0.39547 0.0
C2572 C 0.01352 0.76757 0.38643 0.0
C2573 C 0.01287 0.77946 0.38556 0.0
C2574 C 0.01828 0.78632 0.39343 0.0
H2575 H 0.01128 0.80482 0.42421 0.0
H2576 H 0.01285 0.80611 0.40914 0.0
H2577 H 0.00874 0.7928 0.41536 0.0
H2578 H 0.02908 0.7655 0.41037 0.0
H2579 H 0.02 0.7536 0.39646 0.0
H2580 H 0.5557 0.74232 0.65278 0.0
H2581 H 0.54201 0.75052 0.66616 0.0
H2582 H 0.54156 0.78136 0.64644 0.0
H2583 H 0.5554 0.77328 0.63328 0.0
H2584 H 0.54424 0.76693 0.67981 0.0
H2585 H 0.50892 0.77935 0.65223 0.0
H2586 H 0.51936 0.76884 0.64829 0.0
H2587 H 0.52209 0.7836 0.64601 0.0
C2588 C 0.55261 0.75085 0.65132 0.0
C2589 C 0.55675 0.75726 0.64213 0.0
C2590 C 0.54476 0.75552 0.65894 0.0
C2591 C 0.54065 0.76661 0.65736 0.0
C2592 C 0.54446 0.7728 0.64787 0.0
H2593 H 0.52293 0.81605 0.70759 0.0
H2594 H 0.53218 0.80159 0.69614 0.0
C2595 C 0.55249 0.76823 0.64039 0.0
C2596 C 0.5334 0.77217 0.66615 0.0
H2597 H 0.51072 0.78991 0.66933 0.0
C2598 C 0.53695 0.77199 0.67747 0.0
C2599 C 0.52342 0.77821 0.6634 0.0
C2600 C 0.51812 0.77741 0.65187 0.0
C2601 C 0.53148 0.7785 0.68581 0.0
C2602 C 0.52219 0.7855 0.68278 0.0
C2603 C 0.51806 0.7849 0.67167 0.0
C2604 C 0.51669 0.79362 0.69081 0.0
C2605 C 0.53579 0.77777 0.69776 0.0
C2606 C 0.50486 0.79407 0.69184 0.0
C2607 C 0.49956 0.80233 0.69846 0.0
C2608 C 0.50593 0.81048 0.70414 0.0
C2609 C 0.51776 0.80998 0.70326 0.0
C2610 C 0.52307 0.80159 0.69676 0.0
H2611 H 0.5398 0.7694 0.69949 0.0
H2612 H 0.54236 0.78428 0.69894 0.0
H2613 H 0.52891 0.77916 0.70405 0.0
H2614 H 0.49968 0.78807 0.68743 0.0
H2615 H 0.49042 0.80241 0.69897 0.0
H2616 H 0.53934 0.24252 0.94801 0.0
H2617 H 0.55243 0.25224 0.93514 0.0
H2618 H 0.543 0.28409 0.95021 0.0
H2619 H 0.52948 0.27444 0.9625 0.0
H2620 H 0.54935 0.26575 0.91911 0.0
H2621 H 0.57547 0.28885 0.94928 0.0
H2622 H 0.56531 0.2785 0.95395 0.0
H2623 H 0.56098 0.29292 0.9511 0.0
C2624 C 0.53995 0.25164 0.94838 0.0
C2625 C 0.53321 0.25778 0.95605 0.0
C2626 C 0.54748 0.2572 0.94107 0.0
C2627 C 0.54873 0.269 0.94148 0.0
C2628 C 0.54218 0.27506 0.94942 0.0
H2629 H 0.5665 0.31206 0.88531 0.0
H2630 H 0.55807 0.29887 0.8989 0.0
C2631 C 0.53436 0.26955 0.95647 0.0
C2632 C 0.55619 0.27496 0.93307 0.0
H2633 H 0.57597 0.2957 0.93005 0.0
C2634 C 0.55511 0.27234 0.92155 0.0
C2635 C 0.56416 0.28324 0.93615 0.0
C2636 C 0.56663 0.28593 0.94831 0.0
C2637 C 0.56107 0.27825 0.91307 0.0
C2638 C 0.56831 0.28717 0.9161 0.0
C2639 C 0.57011 0.28918 0.92764 0.0
C2640 C 0.57368 0.2948 0.90748 0.0
C2641 C 0.55971 0.2747 0.90094 0.0
C2642 C 0.58532 0.29707 0.90772 0.0
C2643 C 0.5902 0.30448 0.89977 0.0
C2644 C 0.58347 0.3101 0.89171 0.0
C2645 C 0.57183 0.30804 0.89161 0.0
C2646 C 0.56703 0.30037 0.8993 0.0
H2647 H 0.55733 0.26566 0.90039 0.0
H2648 H 0.55285 0.27978 0.897 0.0
H2649 H 0.5676 0.27602 0.89597 0.0
H2650 H 0.59067 0.29293 0.91391 0.0
H2651 H 0.59925 0.30578 0.89987 0.0
H2652 H 0.00349 0.33534 0.15155 0.0
H2653 H 0.01738 0.32631 0.1637 0.0
H2654 H 1.00024 0.2945 0.16046 0.0
H2655 H 0.98617 0.30358 0.14827 0.0
H2656 H 0.00882 0.29396 0.18115 0.0
H2657 H 0.0418 0.31174 0.14607 0.0
H2658 H 0.03442 0.32252 0.15384 0.0
H2659 H 0.02657 0.31274 0.14539 0.0
C2660 C 0.00259 0.32642 0.15349 0.0
C2661 C 0.99391 0.32009 0.14861 0.0
C2662 C 0.0106 0.32124 0.16047 0.0
C2663 C 0.01031 0.30956 0.16258 0.0
C2664 C 1.00096 0.30346 0.15871 0.0
H2665 H 0.05427 0.24796 0.18999 0.0
H2666 H 0.04355 0.26151 0.1783 0.0
C2667 C 0.99286 0.30866 0.15172 0.0
C2668 C 0.0203 0.30359 0.1675 0.0
H2669 H 0.05258 0.30089 0.16021 0.0
C2670 C 0.01753 0.29428 0.1783 0.0
C2671 C 0.033 0.30594 0.16105 0.0
C2672 C 0.03398 0.31364 0.15097 0.0
C2673 C 0.02661 0.28532 0.185 0.0
C2674 C 0.04067 0.28459 0.18132 0.0
C2675 C 0.04484 0.29881 0.16491 0.0
C2676 C 0.04735 0.27607 0.18849 0.0
C2677 C 0.02207 0.27777 0.19415 0.0
C2678 C 0.05202 0.27941 0.19879 0.0
C2679 C 0.05801 0.27171 0.20553 0.0
C2680 C 0.05918 0.26028 0.20243 0.0
C2681 C 0.05379 0.25672 0.19253 0.0
C2682 C 0.04781 0.26452 0.18574 0.0
H2683 H 0.01293 0.27942 0.19566 0.0
H2684 H 0.02334 0.26882 0.19169 0.0
H2685 H 0.0268 0.27916 0.20206 0.0
H2686 H 0.0511 0.28802 0.20168 0.0
H2687 H 0.0617 0.27477 0.21325 0.0
H2688 H 0.13349 0.05471 0.27394 0.0
H2689 H 0.14627 0.04126 0.28327 0.0
H2690 H 0.15887 0.03032 0.25091 0.0
H2691 H 0.14604 0.0437 0.24148 0.0
H2692 H 0.14993 0.01842 0.28266 0.0
H2693 H 0.18818 0.03928 0.26451 0.0
H2694 H 0.17457 0.0464 0.26429 0.0
H2695 H 0.1774 0.03456 0.25527 0.0
C2696 C 0.13908 0.04953 0.26882 0.0
C2697 C 0.13902 0.05052 0.25701 0.0
C2698 C 0.14638 0.04184 0.27417 0.0
C2699 C 0.15399 0.03518 0.26787 0.0
C2700 C 0.15348 0.0357 0.25601 0.0
H2701 H 0.19753 0.98814 0.30739 0.0
H2702 H 0.18421 0.99516 0.29313 0.0
C2703 C 0.14606 0.04329 0.25063 0.0
C2704 C 0.1626 0.02812 0.27389 0.0
H2705 H 0.19088 0.02655 0.27954 0.0
C2706 C 0.1589 0.02013 0.28193 0.0
C2707 C 0.17434 0.03009 0.2727 0.0
C2708 C 0.17892 0.03806 0.26377 0.0
C2709 C 0.16648 0.01468 0.28934 0.0
C2710 C 0.17814 0.01726 0.28868 0.0
C2711 C 0.18192 0.02474 0.28019 0.0
C2712 C 0.1864 0.01281 0.29713 0.0
C2713 C 0.16188 0.00665 0.29819 0.0
C2714 C 0.19243 0.02035 0.30387 0.0
C2715 C 0.19978 0.01635 0.31227 0.0
C2716 C 0.20164 0.0047 0.31373 0.0
C2717 C 0.19598 0.99715 0.30666 0.0
C2718 C 0.18837 1.00116 0.29851 0.0
H2719 H 0.1525 0.00663 0.29842 0.0
H2720 H 0.16474 0.99791 0.2963 0.0
H2721 H 0.16505 0.00889 0.30668 0.0
H2722 H 0.19144 0.02936 0.30259 0.0
H2723 H 0.20436 0.02236 0.3173 0.0
H2724 H 0.32848 0.95222 0.55522 0.0
H2725 H 0.3192 0.93991 0.54175 0.0
H2726 H 0.30547 0.92021 0.56932 0.0
H2727 H 0.31437 0.93279 0.58295 0.0
H2728 H 0.31345 0.90697 0.55112 0.0
H2729 H 0.30025 0.94384 0.53281 0.0
H2730 H 0.29535 0.94374 0.5472 0.0
H2731 H 0.28553 0.94173 0.53582 0.0
C2732 C 0.3234 0.94531 0.55845 0.0
C2733 C 0.32199 0.94361 0.57018 0.0
C2734 C 0.31809 0.93828 0.55071 0.0
C2735 C 0.31131 0.92933 0.55451 0.0
C2736 C 0.31034 0.92728 0.5662 0.0
H2737 H 0.25625 0.89247 0.5285 0.0
H2738 H 0.27023 0.90364 0.53851 0.0
C2739 C 0.31543 0.93448 0.57399 0.0
C2740 C 0.30487 0.9224 0.54634 0.0
H2741 H 0.28381 0.92396 0.52679 0.0
C2742 C 0.30691 0.91068 0.54586 0.0
C2743 C 0.29655 0.92726 0.5392 0.0
C2744 C 0.29422 0.93982 0.53882 0.0
C2745 C 0.30052 0.90369 0.5388 0.0
C2746 C 0.29169 0.90849 0.53233 0.0
C2747 C 0.29013 0.92024 0.53227 0.0
C2748 C 0.2835 0.90143 0.52616 0.0
C2749 C 0.30305 0.89119 0.53842 0.0
C2750 C 0.28637 0.89648 0.51581 0.0
C2751 C 0.2784 0.89012 0.50998 0.0
C2752 C 0.26739 0.88855 0.5144 0.0
C2753 C 0.2646 0.89347 0.52483 0.0
C2754 C 0.27258 0.89987 0.53058 0.0
H2755 H 0.30974 0.88863 0.54448 0.0
H2756 H 0.29528 0.8863 0.54031 0.0
H2757 H 0.3059 0.8889 0.52977 0.0
H2758 H 0.29473 0.89761 0.5122 0.0
H2759 H 0.2809 0.88644 0.50199 0.0
H2760 H 0.38189 0.08424 0.79434 0.0
H2761 H 0.3953 0.07586 0.78095 0.0
H2762 H 0.4153 0.06338 0.80867 0.0
H2763 H 0.40172 0.07139 0.82216 0.0
H2764 H 0.42865 0.06973 0.79216 0.0
H2765 H 0.39516 0.04399 0.77226 0.0
H2766 H 0.39334 0.05895 0.7712 0.0
H2767 H 0.39239 0.05211 0.78481 0.0
C2768 C 0.38906 0.07952 0.7976 0.0
C2769 C 0.39053 0.07816 0.80935 0.0
C2770 C 0.39671 0.07467 0.78991 0.0
C2771 C 0.40602 0.06832 0.79376 0.0
C2772 C 0.4079 0.06766 0.80547 0.0
H2773 H 0.44215 0.01108 0.77101 0.0
H2774 H 0.43025 0.02593 0.77922 0.0
C2775 C 0.40013 0.07228 0.81319 0.0
C2776 C 0.41361 0.06201 0.78577 0.0
H2777 H 0.41386 0.0411 0.76596 0.0
C2778 C 0.42538 0.06343 0.78648 0.0
C2779 C 0.4094 0.05398 0.77806 0.0
C2780 C 0.3969 0.05208 0.77656 0.0
C2781 C 0.43299 0.05656 0.78034 0.0
C2782 C 0.42874 0.04803 0.77331 0.0
C2783 C 0.41704 0.04725 0.77184 0.0
C2784 C 0.43621 0.03923 0.76818 0.0
C2785 C 0.44554 0.05814 0.7817 0.0
C2786 C 0.44353 0.04178 0.75915 0.0
C2787 C 0.45033 0.03329 0.75435 0.0
C2788 C 0.44999 0.02206 0.7585 0.0
C2789 C 0.4427 0.01959 0.76762 0.0
C2790 C 0.43585 0.02807 0.77232 0.0
H2791 H 0.44751 0.06465 0.78808 0.0
H2792 H 0.4496 0.05002 0.78426 0.0
H2793 H 0.44933 0.06077 0.77348 0.0
H2794 H 0.44389 0.05029 0.75574 0.0
H2795 H 0.45583 0.03554 0.74733 0.0
H2796 H 0.31346 0.19334 0.99471 0.0
H2797 H 0.3028 0.17858 0.00464 0.0
H2798 H 0.33049 0.17403 0.02778 0.0
H2799 H 0.3411 0.18855 0.01797 0.0
H2800 H 0.3046 0.15455 0.00978 0.0
H2801 H 0.30888 0.18744 0.04869 0.0
H2802 H 0.31239 0.18844 0.03442 0.0
H2803 H 0.32114 0.18032 0.04383 0.0
C2804 C 0.31734 0.18906 0.00184 0.0
C2805 C 0.32808 0.1923 0.00568 0.0
C2806 C 0.31125 0.18053 0.00744 0.0
C2807 C 0.31575 0.17514 0.017 0.0
C2808 C 0.32675 0.17791 0.0204 0.0
H2809 H 0.28319 0.12265 0.06966 0.0
H2810 H 0.29547 0.13416 0.05762 0.0
C2811 C 0.33282 0.18639 0.01484 0.0
C2812 C 0.3085 0.1678 0.02423 0.0
H2813 H 0.29011 0.15537 0.05659 0.0
C2814 C 0.30268 0.15601 0.01861 0.0
C2815 C 0.3062 0.17132 0.03819 0.0
C2816 C 0.31226 0.1824 0.04163 0.0
C2817 C 0.29416 0.14617 0.02519 0.0
C2818 C 0.28974 0.14599 0.03895 0.0
C2819 C 0.29339 0.15623 0.04793 0.0
C2820 C 0.28318 0.13677 0.04435 0.0
C2821 C 0.29022 0.13673 0.01787 0.0
C2822 C 0.27223 0.13422 0.04085 0.0
C2823 C 0.26517 0.12756 0.04776 0.0
C2824 C 0.26887 0.12352 0.0584 0.0
C2825 C 0.27997 0.1258 0.06167 0.0
C2826 C 0.28705 0.13225 0.05469 0.0
H2827 H 0.29603 0.13553 0.01056 0.0
H2828 H 0.28958 0.12873 0.02279 0.0
H2829 H 0.2817 0.13887 0.0146 0.0
H2830 H 0.26893 0.13783 0.03309 0.0
H2831 H 0.25667 0.12589 0.04493 0.0
H2832 H 0.20167 0.05895 0.26705 0.0
H2833 H 0.1903 0.04915 0.28159 0.0
H2834 H 0.17672 0.08104 0.29275 0.0
H2835 H 0.18829 0.09091 0.27867 0.0
H2836 H 0.18795 0.05088 0.30535 0.0
H2837 H 0.14787 0.06501 0.28496 0.0
H2838 H 0.16105 0.06465 0.2771 0.0
H2839 H 0.15848 0.07528 0.28757 0.0
C2840 C 0.19619 0.06385 0.27254 0.0
C2841 C 0.19571 0.07569 0.27152 0.0
C2842 C 0.18968 0.05825 0.2808 0.0
C2843 C 0.18222 0.06429 0.28786 0.0
C2844 C 0.18206 0.07613 0.28713 0.0
H2845 H 0.14346 0.02916 0.34184 0.0
H2846 H 0.15508 0.04321 0.33213 0.0
C2847 C 0.18874 0.08176 0.27909 0.0
C2848 C 0.17437 0.05816 0.29567 0.0
H2849 H 0.14642 0.05234 0.30017 0.0
C2850 C 0.17887 0.05119 0.30422 0.0
C2851 C 0.16249 0.0588 0.29439 0.0
C2852 C 0.15713 0.06628 0.28549 0.0
C2853 C 0.17184 0.04456 0.31125 0.0
C2854 C 0.16002 0.04463 0.30944 0.0
C2855 C 0.1555 0.05203 0.30129 0.0
C2856 C 0.1523 0.03661 0.31541 0.0
C2857 C 0.1771 0.03739 0.32045 0.0
C2858 C 0.14629 0.02857 0.30925 0.0
C2859 C 0.13963 0.02043 0.31477 0.0
C2860 C 0.1386 0.02039 0.32659 0.0
C2861 C 0.1442 0.02881 0.33271 0.0
C2862 C 0.15095 0.03683 0.32719 0.0
H2863 H 0.18648 0.03768 0.32024 0.0
H2864 H 0.17435 0.04055 0.32883 0.0
H2865 H 0.17432 0.02849 0.31976 0.0
H2866 H 0.14687 0.0285 0.30014 0.0
H2867 H 0.13522 0.01426 0.30979 0.0
H2868 H 0.24407 0.95895 0.54251 0.0
H2869 H 0.25199 0.94703 0.55765 0.0
H2870 H 0.2655 0.92422 0.53269 0.0
H2871 H 0.25817 0.93635 0.51757 0.0
H2872 H 0.256 0.91304 0.55083 0.0
H2873 H 0.28489 0.94626 0.56631 0.0
H2874 H 0.27001 0.94892 0.56808 0.0
H2875 H 0.27607 0.94864 0.55415 0.0
C2876 C 0.24885 0.95144 0.54028 0.0
C2877 C 0.25071 0.94869 0.52885 0.0
C2878 C 0.25339 0.94465 0.54893 0.0
C2879 C 0.25972 0.93491 0.54631 0.0
C2880 C 0.26106 0.9319 0.53492 0.0
H2881 H 0.30593 0.88446 0.56542 0.0
H2882 H 0.29022 0.89593 0.55812 0.0
C2883 C 0.25682 0.93882 0.52627 0.0
C2884 C 0.2653 0.92789 0.55523 0.0
H2885 H 0.28718 0.92797 0.57386 0.0
C2886 C 0.26283 0.91631 0.55586 0.0
C2887 C 0.27385 0.93221 0.56225 0.0
C2888 C 0.27643 0.94467 0.56267 0.0
C2889 C 0.26934 0.9088 0.56245 0.0
C2890 C 0.2787 0.91294 0.56846 0.0
C2891 C 0.28038 0.92468 0.56882 0.0
C2892 C 0.28742 0.90523 0.57349 0.0
C2893 C 0.26615 0.89648 0.56285 0.0
C2894 C 0.29104 0.90654 0.58468 0.0
C2895 C 0.29985 0.8998 0.58897 0.0
C2896 C 0.30547 0.89188 0.58205 0.0
C2897 C 0.3019 0.89063 0.57087 0.0
C2898 C 0.29286 0.89711 0.56672 0.0
H2899 H 0.25694 0.89542 0.56149 0.0
H2900 H 0.27067 0.89189 0.55602 0.0
H2901 H 0.26843 0.8925 0.57107 0.0
H2902 H 0.28705 0.91277 0.59009 0.0
H2903 H 0.3024 0.9009 0.59766 0.0
H2904 H 0.43677 0.05565 0.84466 0.0
H2905 H 0.42314 0.04331 0.83533 0.0
H2906 H 0.43765 0.05218 0.80305 0.0
H2907 H 0.45081 0.06501 0.81218 0.0
H2908 H 0.40675 0.04762 0.81949 0.0
H2909 H 0.43849 0.01816 0.80166 0.0
H2910 H 0.44181 0.02806 0.81265 0.0
H2911 H 0.4416 0.03256 0.79807 0.0
C2912 C 0.43684 0.05516 0.83552 0.0
C2913 C 0.4447 0.06145 0.82911 0.0
C2914 C 0.42912 0.04803 0.83022 0.0
C2915 C 0.42943 0.04671 0.81843 0.0
C2916 C 0.43725 0.05306 0.81208 0.0
H2917 H 0.39629 0.01791 0.7622 0.0
H2918 H 0.40895 0.02557 0.77639 0.0
C2919 C 0.4447 0.06047 0.81731 0.0
C2920 C 0.42136 0.0391 0.81261 0.0
H2921 H 0.42007 0.01766 0.79353 0.0
C2922 C 0.4097 0.04119 0.81367 0.0
C2923 C 0.42511 0.03033 0.80541 0.0
C2924 C 0.43743 0.02704 0.80446 0.0
C2925 C 0.40183 0.03576 0.80673 0.0
C2926 C 0.40565 0.02735 0.79909 0.0
C2927 C 0.41719 0.02447 0.79893 0.0
C2928 C 0.39806 0.02192 0.7907 0.0
C2929 C 0.38961 0.03949 0.80742 0.0
C2930 C 0.38799 0.01658 0.79402 0.0
C2931 C 0.38088 0.01186 0.78593 0.0
C2932 C 0.38362 0.01246 0.77433 0.0
C2933 C 0.39378 0.01759 0.77103 0.0
C2934 C 0.40102 0.022 0.77915 0.0
H2935 H 0.38876 0.0482 0.81077 0.0
H2936 H 0.38548 0.03926 0.79905 0.0
H2937 H 0.38499 0.03374 0.81325 0.0
H2938 H 0.38565 0.01597 0.80287 0.0
H2939 H 0.37318 0.00778 0.78876 0.0
H2940 H 0.26111 0.18793 0.07127 0.0
H2941 H 0.27216 0.1741 0.06067 0.0
H2942 H 0.30254 0.19303 0.0668 0.0
H2943 H 0.29149 0.20648 0.07814 0.0
H2944 H 0.27947 0.17969 0.04123 0.0
H2945 H 0.31645 0.16272 0.07266 0.0
H2946 H 0.30382 0.17071 0.07625 0.0
H2947 H 0.31571 0.17765 0.0697 0.0
C2948 C 0.27015 0.18909 0.07038 0.0
C2949 C 0.27544 0.19833 0.07528 0.0
C2950 C 0.2765 0.18117 0.0644 0.0
C2951 C 0.28821 0.18252 0.06284 0.0
C2952 C 0.29358 0.19165 0.06796 0.0
H2953 H 0.33961 0.1429 0.01558 0.0
H2954 H 0.32947 0.15566 0.02828 0.0
C2955 C 0.28724 0.19943 0.0743 0.0
C2956 C 0.29409 0.17517 0.0546 0.0
H2957 H 0.32043 0.15338 0.05448 0.0
C2958 C 0.28681 0.17428 0.04239 0.0
C2959 C 0.30607 0.16762 0.05846 0.0
C2960 C 0.31076 0.16973 0.06996 0.0
C2961 C 0.29027 0.16493 0.03205 0.0
C2962 C 0.30847 0.15308 0.03789 0.0
C2963 C 0.31299 0.15738 0.05092 0.0
C2964 C 0.31613 0.14402 0.03247 0.0
C2965 C 0.28188 0.16583 0.02207 0.0
C2966 C 0.31308 0.13253 0.03187 0.0
C2967 C 0.31864 0.12525 0.02428 0.0
C2968 C 0.32795 0.12908 0.01794 0.0
C2969 C 0.33209 0.13993 0.01995 0.0
C2970 C 0.32627 0.14728 0.02719 0.0
H2971 H 0.27577 0.17287 0.02344 0.0
H2972 H 0.28599 0.16767 0.01381 0.0
H2973 H 0.27668 0.15813 0.02136 0.0
H2974 H 0.30593 0.12935 0.03664 0.0
H2975 H 0.31565 0.11669 0.02335 0.0
H2976 H 0.76393 0.4444 0.004 0.0
H2977 H 0.77079 0.4307 0.018 0.0
H2978 H 0.75022 0.44653 0.04373 0.0
H2979 H 0.74351 0.4603 0.02992 0.0
H2980 H 0.7698 0.44268 0.0522 0.0
H2981 H 0.75608 0.40347 0.03163 0.0
H2982 H 0.76465 0.41183 0.02227 0.0
H2983 H 0.75125 0.41729 0.02712 0.0
C2984 C 0.7608 0.4449 0.01261 0.0
C2985 C 0.75319 0.45351 0.01577 0.0
C2986 C 0.76472 0.43702 0.02065 0.0
C2987 C 0.76101 0.43747 0.032 0.0
C2988 C 0.75329 0.44597 0.03509 0.0
H2989 H 0.7826 0.38018 0.07544 0.0
H2990 H 0.76992 0.3936 0.06581 0.0
C2991 C 0.74943 0.45386 0.02712 0.0
C2992 C 0.76537 0.42937 0.04074 0.0
H2993 H 0.76935 0.40135 0.04651 0.0
C2994 C 0.76985 0.43363 0.05082 0.0
C2995 C 0.76474 0.41751 0.03946 0.0
C2996 C 0.75879 0.41224 0.02962 0.0
C2997 C 0.77443 0.42641 0.05917 0.0
C2998 C 0.7752 0.41466 0.05712 0.0
C2999 C 0.76969 0.41037 0.04763 0.0
C3000 C 0.78236 0.40685 0.06414 0.0
C3001 C 0.77764 0.43131 0.07043 0.0
C3002 C 0.79359 0.4097 0.06656 0.0
C3003 C 0.80095 0.40192 0.07168 0.0
C3004 C 0.79714 0.39117 0.07489 0.0
C3005 C 0.78578 0.3884 0.07295 0.0
C3006 C 0.77852 0.39609 0.06748 0.0
H3007 H 0.7727 0.43913 0.07222 0.0
H3008 H 0.77617 0.42513 0.0774 0.0
H3009 H 0.78668 0.43358 0.07044 0.0
H3010 H 0.79687 0.41784 0.0641 0.0
H3011 H 0.8096 0.40435 0.0732 0.0
H3012 H 0.88156 0.5317 0.25995 0.0
H3013 H 0.89345 0.54113 0.27394 0.0
H3014 H 0.90665 0.50879 0.28483 0.0
H3015 H 0.89466 0.49935 0.27124 0.0
H3016 H 0.89572 0.53743 0.29884 0.0
H3017 H 0.9348 0.52655 0.27483 0.0
H3018 H 0.92097 0.52342 0.26947 0.0
H3019 H 0.92711 0.51469 0.28031 0.0
C3020 C 0.88704 0.52663 0.26529 0.0
C3021 C 0.88727 0.51479 0.26437 0.0
C3022 C 0.8938 0.53201 0.2733 0.0
C3023 C 0.90115 0.52568 0.28024 0.0
C3024 C 0.9012 0.51387 0.27946 0.0
H3025 H 0.95682 0.54972 0.32257 0.0
H3026 H 0.94364 0.53725 0.3129 0.0
C3027 C 0.89432 0.50849 0.27166 0.0
C3028 C 0.90909 0.53137 0.28797 0.0
H3029 H 0.93712 0.53607 0.29231 0.0
C3030 C 0.90477 0.53734 0.29729 0.0
C3031 C 0.92095 0.53061 0.2864 0.0
C3032 C 0.92624 0.52352 0.27718 0.0
C3033 C 0.91199 0.54285 0.30483 0.0
C3034 C 0.92374 0.54313 0.30251 0.0
C3035 C 0.92808 0.53654 0.29364 0.0
C3036 C 0.9316 0.55053 0.30884 0.0
C3037 C 0.90713 0.54763 0.31564 0.0
C3038 C 0.92939 0.56219 0.30969 0.0
C3039 C 0.937 0.56934 0.31502 0.0
C3040 C 0.94699 0.565 0.31967 0.0
C3041 C 0.94922 0.55332 0.31893 0.0
C3042 C 0.94166 0.54618 0.31345 0.0
H3043 H 0.89851 0.54439 0.31744 0.0
H3044 H 0.91268 0.54544 0.32287 0.0
H3045 H 0.90658 0.55696 0.31512 0.0
H3046 H 0.92181 0.56581 0.30611 0.0
H3047 H 0.93493 0.57823 0.31578 0.0
H3048 H 0.82082 0.64689 0.50246 0.0
H3049 H 0.80953 0.66028 0.51352 0.0
H3050 H 0.81543 0.64045 0.54371 0.0
H3051 H 0.82709 0.62729 0.53281 0.0
H3052 H 0.78992 0.65729 0.52117 0.0
H3053 H 0.82113 0.66987 0.55871 0.0
H3054 H 0.82496 0.66258 0.54582 0.0
H3055 H 0.81863 0.65497 0.55745 0.0
C3056 C 0.81982 0.64543 0.51146 0.0
C3057 C 0.82486 0.63598 0.51669 0.0
C3058 C 0.81337 0.65311 0.51782 0.0
C3059 C 0.81173 0.65148 0.52953 0.0
C3060 C 0.81684 0.64212 0.5348 0.0
H3061 H 0.76568 0.68882 0.58493 0.0
H3062 H 0.7786 0.67667 0.57404 0.0
C3063 C 0.8234 0.63451 0.52848 0.0
C3064 C 0.80371 0.65893 0.53574 0.0
H3065 H 0.80262 0.67805 0.56343 0.0
C3066 C 0.79128 0.66169 0.52915 0.0
C3067 C 0.80709 0.66541 0.54815 0.0
C3068 C 0.81864 0.66314 0.55278 0.0
C3069 C 0.77893 0.67631 0.54041 0.0
C3070 C 0.7859 0.68025 0.55251 0.0
C3071 C 0.79895 0.67492 0.55573 0.0
C3072 C 0.78035 0.68848 0.56009 0.0
C3073 C 0.76729 0.68243 0.539 0.0
C3074 C 0.77723 0.69924 0.55595 0.0
C3075 C 0.76939 0.70592 0.56187 0.0
C3076 C 0.76497 0.70213 0.57224 0.0
C3077 C 0.76881 0.69178 0.5768 0.0
C3078 C 0.77634 0.68493 0.5707 0.0
H3079 H 0.76083 0.6789 0.53338 0.0
H3080 H 0.76302 0.6831 0.54734 0.0
H3081 H 0.76884 0.69113 0.53583 0.0
H3082 H 0.7804 0.70221 0.54784 0.0
H3083 H 0.76683 0.71404 0.55838 0.0
H3084 H 0.96208 0.53329 0.2752 0.0
H3085 H 0.94911 0.54769 0.28282 0.0
H3086 H 0.93859 0.55646 0.24907 0.0
H3087 H 0.95186 0.54252 0.24138 0.0
H3088 H 0.94522 0.57071 0.27988 0.0
H3089 H 0.91863 0.55294 0.25242 0.0
H3090 H 0.90899 0.547 0.26249 0.0
H3091 H 0.92327 0.54166 0.26149 0.0
C3092 C 0.95696 0.53826 0.26942 0.0
C3093 C 0.9578 0.53658 0.25771 0.0
C3094 C 0.94953 0.54646 0.27378 0.0
C3095 C 0.94243 0.55275 0.26657 0.0
C3096 C 0.94366 0.55145 0.25484 0.0
H3097 H 0.89572 0.6037 0.2968 0.0
H3098 H 0.91047 0.59548 0.28461 0.0
C3099 C 0.95129 0.54348 0.25046 0.0
C3100 C 0.93336 0.56014 0.27139 0.0
H3101 H 0.90465 0.5625 0.27413 0.0
C3102 C 0.93634 0.56898 0.27857 0.0
C3103 C 0.92176 0.55811 0.26941 0.0
C3104 C 0.91793 0.54937 0.2611 0.0
C3105 C 0.92807 0.5756 0.28411 0.0
C3106 C 0.91648 0.57294 0.28284 0.0
C3107 C 0.91352 0.56437 0.27532 0.0
C3108 C 0.90737 0.57821 0.28991 0.0
C3109 C 0.93191 0.58522 0.29138 0.0
C3110 C 0.90043 0.57129 0.29669 0.0
C3111 C 0.89228 0.57598 0.30395 0.0
C3112 C 0.89052 0.5877 0.30415 0.0
C3113 C 0.8971 0.59464 0.297 0.0
C3114 C 0.90551 0.58995 0.29001 0.0
H3115 H 0.94085 0.5841 0.29402 0.0
H3116 H 0.93132 0.5932 0.28641 0.0
H3117 H 0.92654 0.58616 0.29904 0.0
H3118 H 0.90136 0.56222 0.29638 0.0
H3119 H 0.88708 0.57041 0.30907 0.0
H3120 H 0.70156 0.52186 0.80484 0.0
H3121 H 0.68896 0.53126 0.79139 0.0
H3122 H 0.67784 0.49899 0.77949 0.0
H3123 H 0.69053 0.48947 0.79288 0.0
H3124 H 0.68622 0.53101 0.76838 0.0
H3125 H 0.64778 0.51216 0.78829 0.0
H3126 H 0.66116 0.51193 0.7956 0.0
H3127 H 0.65897 0.5031 0.78357 0.0
C3128 C 0.69635 0.51677 0.79944 0.0
C3129 C 0.6968 0.50494 0.80016 0.0
C3130 C 0.68914 0.52216 0.79174 0.0
C3131 C 0.682 0.5159 0.78481 0.0
C3132 C 0.68288 0.50405 0.78507 0.0
H3133 H 0.63927 0.5543 0.73662 0.0
H3134 H 0.65312 0.54092 0.7444 0.0
C3135 C 0.69023 0.49862 0.79267 0.0
C3136 C 0.67347 0.52197 0.7777 0.0
H3137 H 0.64508 0.52723 0.77558 0.0
C3138 C 0.67722 0.5302 0.76994 0.0
C3139 C 0.66169 0.52062 0.77944 0.0
C3140 C 0.65709 0.51152 0.78719 0.0
C3141 C 0.66963 0.53762 0.76447 0.0
C3142 C 0.65789 0.53672 0.76673 0.0
C3143 C 0.65408 0.52808 0.77402 0.0
C3144 C 0.64947 0.54487 0.76189 0.0
C3145 C 0.67428 0.54666 0.7567 0.0
C3146 C 0.64247 0.55132 0.76906 0.0
C3147 C 0.63473 0.55922 0.76462 0.0
C3148 C 0.63352 0.56045 0.75289 0.0
C3149 C 0.64028 0.55376 0.74571 0.0
C3150 C 0.64821 0.5461 0.75015 0.0
H3151 H 0.68363 0.54722 0.75715 0.0
H3152 H 0.67214 0.5447 0.74783 0.0
H3153 H 0.67052 0.55503 0.75879 0.0
H3154 H 0.64293 0.55015 0.77812 0.0
H3155 H 0.62933 0.56395 0.77035 0.0
H3156 H 0.83804 0.43625 0.05892 0.0
H3157 H 0.82866 0.42335 0.04606 0.0
H3158 H 0.79653 0.43869 0.0544 0.0
H3159 H 0.80581 0.45135 0.06761 0.0
H3160 H 0.81443 0.40743 0.05009 0.0
H3161 H 0.79319 0.43765 0.02146 0.0
H3162 H 0.80369 0.44209 0.03141 0.0
H3163 H 0.78913 0.44052 0.03575 0.0
C3164 C 0.82896 0.43688 0.05802 0.0
C3165 C 0.82265 0.44478 0.06435 0.0
C3166 C 0.8236 0.42949 0.05064 0.0
C3167 C 0.81184 0.43 0.04921 0.0
C3168 C 0.80558 0.4381 0.05532 0.0
H3169 H 0.7665 0.37604 0.03052 0.0
H3170 H 0.7808 0.38738 0.03996 0.0
C3171 C 0.81089 0.4453 0.06293 0.0
C3172 C 0.80602 0.42155 0.04201 0.0
H3173 H 0.78558 0.41889 0.02213 0.0
C3174 C 0.80817 0.40996 0.0439 0.0
C3175 C 0.79801 0.42474 0.03374 0.0
C3176 C 0.79598 0.43693 0.03039 0.0
C3177 C 0.80199 0.40155 0.03838 0.0
C3178 C 0.79346 0.40478 0.03065 0.0
C3179 C 0.79185 0.41635 0.02826 0.0
C3180 C 0.78603 0.39652 0.02484 0.0
C3181 C 0.80476 0.38932 0.04092 0.0
C3182 C 0.7844 0.39747 0.01313 0.0
C3183 C 0.77641 0.39085 0.00773 0.0
C3184 C 0.76967 0.38321 0.01391 0.0
C3185 C 0.77142 0.38201 0.02558 0.0
C3186 C 0.77968 0.38845 0.03095 0.0
H3187 H 0.81366 0.38827 0.04366 0.0
H3188 H 0.79926 0.38632 0.04796 0.0
H3189 H 0.80337 0.38391 0.03346 0.0
H3190 H 0.78921 0.4035 0.00814 0.0
H3191 H 0.77533 0.39192 0.9987 0.0
H3192 H 0.75595 0.62285 0.54381 0.0
H3193 H 0.76729 0.6364 0.53282 0.0
H3194 H 0.76472 0.66013 0.56016 0.0
H3195 H 0.75394 0.64641 0.57144 0.0
H3196 H 0.76364 0.65957 0.52364 0.0
H3197 H 0.79777 0.65287 0.56104 0.0
H3198 H 0.78549 0.6457 0.55751 0.0
H3199 H 0.78445 0.65859 0.56519 0.0
C3200 C 0.75783 0.63096 0.54749 0.0
C3201 C 0.75428 0.63348 0.55861 0.0
C3202 C 0.76423 0.63871 0.54115 0.0
C3203 C 0.76707 0.64914 0.54577 0.0
C3204 C 0.76291 0.65196 0.55657 0.0
H3205 H 0.8102 0.71387 0.52137 0.0
H3206 H 0.79709 0.70117 0.53118 0.0
C3207 C 0.75677 0.64412 0.56302 0.0
C3208 C 0.7751 0.65679 0.53991 0.0
H3209 H 0.80427 0.68259 0.53754 0.0
C3210 C 0.7713 0.66278 0.52732 0.0
C3211 C 0.78703 0.66108 0.54699 0.0
C3212 C 0.78901 0.65431 0.55818 0.0
C3213 C 0.77773 0.67378 0.52009 0.0
C3214 C 0.78959 0.68099 0.52389 0.0
C3215 C 0.79666 0.67768 0.53588 0.0
C3216 C 0.7949 0.69 0.51696 0.0
C3217 C 0.77202 0.67746 0.50942 0.0
C3218 C 0.79782 0.68815 0.50561 0.0
C3219 C 0.80515 0.69557 0.49995 0.0
C3220 C 0.80997 0.70472 0.50564 0.0
C3221 C 0.8068 0.70674 0.51687 0.0
C3222 C 0.79921 0.69955 0.52241 0.0
H3223 H 0.76289 0.6754 0.50976 0.0
H3224 H 0.77305 0.68668 0.50797 0.0
H3225 H 0.77589 0.67288 0.50221 0.0
H3226 H 0.79499 0.68067 0.50131 0.0
H3227 H 0.80744 0.69386 0.49124 0.0
H3228 H 0.63379 0.5151 0.80797 0.0
H3229 H 0.64541 0.52935 0.79812 0.0
H3230 H 0.65721 0.54146 0.83005 0.0
H3231 H 0.6454 0.52769 0.83996 0.0
H3232 H 0.64746 0.55286 0.79881 0.0
H3233 H 0.67598 0.53624 0.82536 0.0
H3234 H 0.68691 0.53292 0.81538 0.0
H3235 H 0.6737 0.52535 0.81515 0.0
C3236 C 0.63892 0.52075 0.81288 0.0
C3237 C 0.63884 0.52009 0.82475 0.0
C3238 C 0.64558 0.52884 0.80724 0.0
C3239 C 0.65264 0.53605 0.8133 0.0
C3240 C 0.65219 0.5357 0.82515 0.0
H3241 H 0.69279 0.58917 0.77897 0.0
H3242 H 0.68036 0.57972 0.79257 0.0
C3243 C 0.64537 0.52784 0.8308 0.0
C3244 C 0.66072 0.54361 0.80722 0.0
H3245 H 0.68894 0.54822 0.80289 0.0
C3246 C 0.65653 0.55183 0.79968 0.0
C3247 C 0.67257 0.54244 0.80856 0.0
C3248 C 0.67761 0.53373 0.81648 0.0
C3249 C 0.66386 0.55869 0.7932 0.0
C3250 C 0.67569 0.55708 0.79411 0.0
C3251 C 0.67986 0.54924 0.80203 0.0
C3252 C 0.68384 0.56289 0.7864 0.0
C3253 C 0.65892 0.56745 0.78528 0.0
C3254 C 0.69047 0.55658 0.77879 0.0
C3255 C 0.69757 0.56194 0.7709 0.0
C3256 C 0.69844 0.57376 0.77072 0.0
C3257 C 0.69221 0.58004 0.77875 0.0
C3258 C 0.68501 0.57466 0.7865 0.0
H3259 H 0.64954 0.56746 0.78538 0.0
H3260 H 0.6616 0.576 0.78782 0.0
H3261 H 0.66204 0.566 0.77653 0.0
H3262 H 0.69002 0.54748 0.77883 0.0
H3263 H 0.70243 0.55684 0.76502 0.0
H3264 H 0.01344 0.39941 0.21193 0.0
H3265 H 0.01086 0.41771 0.2208 0.0
H3266 H 0.01623 0.40242 0.2536 0.0
H3267 H 0.01816 0.38386 0.24474 0.0
H3268 H 0.99873 0.41479 0.25495 0.0
H3269 H 0.03041 0.44102 0.23314 0.0
H3270 H 0.02171 0.43456 0.22278 0.0
H3271 H 0.03042 0.42584 0.23187 0.0
C3272 C 0.0144 0.39996 0.22101 0.0
C3273 C 0.01606 0.39016 0.22762 0.0
C3274 C 0.01297 0.4105 0.2261 0.0
C3275 C 0.01351 0.41159 0.2379 0.0
C3276 C 0.01577 0.40187 0.24448 0.0
H3277 H 0.0046 0.48167 0.26028 0.0
H3278 H 0.01288 0.46275 0.25824 0.0
C3279 C 0.01697 0.39126 0.2394 0.0
C3280 C 0.01056 0.42259 0.24336 0.0
H3281 H 0.01406 0.45111 0.24067 0.0
C3282 C 0.00227 0.42271 0.25196 0.0
C3283 C 0.01528 0.43299 0.23975 0.0
C3284 C 0.02504 0.43357 0.23147 0.0
C3285 C 0.99818 0.43288 0.25657 0.0
C3286 C 0.00211 0.44332 0.25215 0.0
C3287 C 0.01083 0.44318 0.24399 0.0
C3288 C 0.99693 0.45445 0.25531 0.0
C3289 C 0.98973 0.43225 0.26618 0.0
C3290 C 0.98516 0.45615 0.25472 0.0
C3291 C 0.9804 0.4669 0.25626 0.0
C3292 C 0.98732 0.4763 0.25805 0.0
C3293 C 0.99905 0.47458 0.259 0.0
C3294 C 0.00379 0.46376 0.25774 0.0
H3295 H 0.99113 0.42451 0.2714 0.0
H3296 H 0.99021 0.43973 0.27175 0.0
H3297 H 0.98108 0.43177 0.26268 0.0
H3298 H 0.97966 0.44928 0.25248 0.0
H3299 H 0.97136 0.46797 0.25523 0.0
H3300 H 0.95132 0.76619 0.46245 0.0
H3301 H 0.93165 0.76426 0.46871 0.0
H3302 H 0.94287 0.7543 0.50194 0.0
H3303 H 0.96254 0.75626 0.49578 0.0
H3304 H 0.92296 0.74364 0.47615 0.0
H3305 H 0.91671 0.77629 0.50901 0.0
H3306 H 0.92813 0.77683 0.49877 0.0
H3307 H 0.92911 0.76761 0.5109 0.0
C3308 C 0.94962 0.76391 0.47119 0.0
C3309 C 0.95855 0.76139 0.47861 0.0
C3310 C 0.93835 0.76275 0.47474 0.0
C3311 C 0.93575 0.75918 0.48582 0.0
C3312 C 0.94463 0.75724 0.49341 0.0
H3313 H 0.87628 0.72212 0.50749 0.0
H3314 H 0.89548 0.72917 0.50458 0.0
C3315 C 0.9559 0.75834 0.48986 0.0
C3316 C 0.92389 0.7563 0.48905 0.0
H3317 H 0.90257 0.76207 0.50794 0.0
C3318 C 0.91849 0.74773 0.48306 0.0
C3319 C 0.91803 0.76165 0.49804 0.0
C3320 C 0.92323 0.77118 0.50451 0.0
C3321 C 0.90752 0.74421 0.48594 0.0
C3322 C 0.90177 0.74931 0.49514 0.0
C3323 C 0.90704 0.75807 0.50099 0.0
C3324 C 0.8902 0.74569 0.49858 0.0
C3325 C 0.9021 0.73508 0.47906 0.0
C3326 C 0.88085 0.75282 0.49667 0.0
C3327 C 0.86983 0.74882 0.49835 0.0
C3328 C 0.86795 0.73762 0.50203 0.0
C3329 C 0.87738 0.73078 0.50466 0.0
C3330 C 0.88838 0.73477 0.50293 0.0
H3331 H 0.90664 0.73367 0.47093 0.0
H3332 H 0.90223 0.72702 0.48395 0.0
H3333 H 0.89315 0.73725 0.47724 0.0
H3334 H 0.88205 0.76129 0.49335 0.0
H3335 H 0.86278 0.75432 0.49622 0.0
H3336 H 0.61331 0.6236 0.72962 0.0
H3337 H 0.60691 0.64305 0.72696 0.0
H3338 H 0.58926 0.64159 0.75894 0.0
H3339 H 0.59614 0.62209 0.76191 0.0
H3340 H 0.57629 0.64959 0.73813 0.0
H3341 H 0.61657 0.67222 0.74508 0.0
H3342 H 0.6175 0.65996 0.73622 0.0
H3343 H 0.61386 0.65831 0.75091 0.0
C3344 C 0.60853 0.62754 0.73635 0.0
C3345 C 0.60567 0.62141 0.7462 0.0
C3346 C 0.6047 0.63863 0.73472 0.0
C3347 C 0.59773 0.64383 0.74281 0.0
C3348 C 0.59472 0.63776 0.75264 0.0
H3349 H 0.58065 0.71576 0.73726 0.0
H3350 H 0.58426 0.69686 0.74505 0.0
C3351 C 0.5987 0.62664 0.75435 0.0
C3352 C 0.59327 0.65543 0.7406 0.0
H3353 H 0.60172 0.68269 0.7364 0.0
C3354 C 0.5818 0.65687 0.7379 0.0
C3355 C 0.60046 0.6649 0.74029 0.0
C3356 C 0.61278 0.66385 0.74336 0.0
C3357 C 0.57745 0.66749 0.73452 0.0
C3358 C 0.58475 0.67688 0.73379 0.0
C3359 C 0.59612 0.67549 0.7369 0.0
C3360 C 0.58096 0.68814 0.72946 0.0
C3361 C 0.56509 0.66857 0.73167 0.0
C3362 C 0.57765 0.68953 0.71815 0.0
C3363 C 0.57558 0.70036 0.71364 0.0
C3364 C 0.57681 0.71002 0.72036 0.0
C3365 C 0.57956 0.70853 0.73184 0.0
C3366 C 0.58169 0.69772 0.73631 0.0
H3367 H 0.56011 0.66147 0.7353 0.0
H3368 H 0.56151 0.67667 0.73481 0.0
H3369 H 0.56413 0.66847 0.72235 0.0
H3370 H 0.57719 0.68229 0.71264 0.0
H3371 H 0.57357 0.70118 0.70476 0.0
H3372 H 0.71526 0.33671 0.00959 0.0
H3373 H 0.69649 0.32891 0.00617 0.0
H3374 H 0.68274 0.36273 0.00348 0.0
H3375 H 0.70126 0.37048 0.00765 0.0
H3376 H 0.66765 0.35023 0.0124 0.0
H3377 H 0.68444 0.32694 0.97537 0.0
H3378 H 0.69062 0.32226 0.98838 0.0
H3379 H 0.69301 0.33647 0.98331 0.0
C3380 C 0.70816 0.34245 0.00855 0.0
C3381 C 0.70976 0.35421 0.00885 0.0
C3382 C 0.69745 0.33799 0.00642 0.0
C3383 C 0.68821 0.3452 0.0041 0.0
C3384 C 0.68969 0.35693 0.00512 0.0
H3385 H 0.63187 0.33342 0.9608 0.0
H3386 H 0.6502 0.33609 0.96957 0.0
C3387 C 0.70031 0.36138 0.00756 0.0
C3388 C 0.67717 0.34071 1.00011 0.0
H3389 H 0.66517 0.32448 0.97973 0.0
C3390 C 0.66713 0.34458 0.00526 0.0
C3391 C 0.67639 0.33345 0.99067 0.0
C3392 C 0.68668 0.32963 0.98403 0.0
C3393 C 0.65642 0.3417 1.00112 0.0
C3394 C 0.65565 0.33423 0.99184 0.0
C3395 C 0.66569 0.3301 0.98689 0.0
C3396 C 0.64463 0.33141 0.98647 0.0
C3397 C 0.64612 0.34723 0.00637 0.0
C3398 C 0.63538 0.32743 0.99287 0.0
C3399 C 0.62476 0.32613 0.98788 0.0
C3400 C 0.62327 0.32841 0.97629 0.0
C3401 C 0.63272 0.33152 0.96973 0.0
C3402 C 0.64324 0.33309 0.97477 0.0
H3403 H 0.64834 0.355 0.01103 0.0
H3404 H 0.63978 0.34953 0.99987 0.0
H3405 H 0.64219 0.34127 0.01252 0.0
H3406 H 0.63627 0.32562 0.0018 0.0
H3407 H 0.61765 0.32365 0.99315 0.0
H3408 H 0.96353 0.63199 0.32147 0.0
H3409 H 0.97145 0.65079 0.32421 0.0
H3410 H 0.00318 0.63568 0.33413 0.0
H3411 H 0.99539 0.61688 0.33126 0.0
H3412 H 0.97838 0.65799 0.34481 0.0
H3413 H 0.01375 0.66171 0.314 0.0
H3414 H 0.00284 0.65122 0.31277 0.0
H3415 H 0.0143 0.64903 0.32245 0.0
C3416 C 0.9723 0.63265 0.32391 0.0
C3417 C 0.97881 0.62289 0.32616 0.0
C3418 C 0.97681 0.64343 0.32553 0.0
C3419 C 0.98794 0.64469 0.32934 0.0
C3420 C 0.99465 0.63498 0.331 0.0
H3421 H 0.01067 0.70097 0.3696 0.0
H3422 H 0.00705 0.68223 0.36195 0.0
C3423 C 0.99015 0.62419 0.32938 0.0
C3424 C 0.99204 0.65602 0.33281 0.0
H3425 H 0.0131 0.67534 0.3288 0.0
C3426 C 0.98594 0.66179 0.34124 0.0
C3427 C 0.00188 0.66104 0.32816 0.0
C3428 C 0.00852 0.65549 0.31877 0.0
C3429 C 0.98948 0.67231 0.34526 0.0
C3430 C 0.99951 0.67717 0.34087 0.0
C3431 C 0.00551 0.67154 0.33227 0.0
C3432 C 0.00362 0.68824 0.345 0.0
C3433 C 0.98234 0.67821 0.35409 0.0
C3434 C 0.00352 0.69779 0.33786 0.0
C3435 C 0.00566 0.70855 0.3422 0.0
C3436 C 0.00797 0.70994 0.35376 0.0
C3437 C 0.00889 0.70024 0.36068 0.0
C3438 C 0.00675 0.68951 0.35633 0.0
H3439 H 0.97368 0.67468 0.35465 0.0
H3440 H 0.98636 0.67712 0.36247 0.0
H3441 H 0.98168 0.68741 0.35223 0.0
H3442 H 1.00119 0.69701 0.32907 0.0
H3443 H 0.00488 0.71582 0.33662 0.0
H3444 H 0.71016 0.74983 0.57982 0.0
H3445 H 0.69096 0.75702 0.58326 0.0
H3446 H 0.67903 0.7228 0.58694 0.0
H3447 H 0.69795 0.71565 0.5827 0.0
H3448 H 0.66357 0.73403 0.57758 0.0
H3449 H 0.67747 0.76005 0.61347 0.0
H3450 H 0.68374 0.76446 0.60034 0.0
H3451 H 0.68698 0.75066 0.60611 0.0
C3452 C 0.70338 0.74386 0.58113 0.0
C3453 C 0.70561 0.73217 0.58099 0.0
C3454 C 0.69241 0.74798 0.58329 0.0
C3455 C 0.68351 0.74051 0.5858 0.0
C3456 C 0.68567 0.72882 0.58512 0.0
H3457 H 0.6246 0.75314 0.62726 0.0
H3458 H 0.64343 0.75045 0.61916 0.0
C3459 C 0.69654 0.72471 0.58265 0.0
C3460 C 0.67203 0.74467 0.58943 0.0
H3461 H 0.65824 0.76152 0.60855 0.0
C3462 C 0.66243 0.74004 0.58437 0.0
C3463 C 0.67042 0.75242 0.59841 0.0
C3464 C 0.68019 0.75709 0.60498 0.0
C3465 C 0.6514 0.74264 0.58817 0.0
C3466 C 0.64978 0.75063 0.59692 0.0
C3467 C 0.65938 0.75549 0.60178 0.0
C3468 C 0.63835 0.75338 0.60181 0.0
C3469 C 0.64169 0.73626 0.58312 0.0
C3470 C 0.62914 0.75637 0.5949 0.0
C3471 C 0.61824 0.75763 0.59954 0.0
C3472 C 0.61639 0.7564 0.61124 0.0
C3473 C 0.62573 0.75427 0.61823 0.0
C3474 C 0.63654 0.75268 0.61357 0.0
H3475 H 0.64459 0.72825 0.57917 0.0
H3476 H 0.63519 0.73419 0.58961 0.0
H3477 H 0.63773 0.74152 0.57641 0.0
H3478 H 0.63029 0.75745 0.58587 0.0
H3479 H 0.61122 0.75932 0.59394 0.0
H3480 H 0.59097 0.37701 0.88046 0.0
H3481 H 0.59385 0.39653 0.87402 0.0
H3482 H 0.58477 0.38705 0.84019 0.0
H3483 H 0.58169 0.36765 0.84666 0.0
H3484 H 0.60927 0.40354 0.85956 0.0
H3485 H 0.5676 0.41604 0.84251 0.0
H3486 H 0.56955 0.40353 0.85113 0.0
H3487 H 0.57283 0.40328 0.83623 0.0
C3488 C 0.58942 0.37916 0.8717 0.0
C3489 C 0.58616 0.37078 0.86408 0.0
C3490 C 0.59105 0.39032 0.86801 0.0
C3491 C 0.58948 0.39335 0.8566 0.0
C3492 C 0.58579 0.38506 0.84907 0.0
H3493 H 0.62467 0.45131 0.82625 0.0
H3494 H 0.61803 0.43221 0.83075 0.0
C3495 C 0.58403 0.37393 0.8528 0.0
C3496 C 0.59263 0.40487 0.85241 0.0
H3497 H 0.58321 0.42768 0.83707 0.0
C3498 C 0.60353 0.40884 0.85471 0.0
C3499 C 0.58515 0.41187 0.84613 0.0
C3500 C 0.5731 0.40852 0.84395 0.0
C3501 C 0.60717 0.41949 0.85086 0.0
C3502 C 0.59986 0.4263 0.84419 0.0
C3503 C 0.58891 0.4224 0.84199 0.0
C3504 C 0.60318 0.43777 0.84004 0.0
C3505 C 0.61873 0.42346 0.8543 0.0
C3506 C 0.59667 0.44727 0.84307 0.0
C3507 C 0.60032 0.45818 0.8403 0.0
C3508 C 0.61059 0.45987 0.83446 0.0
C3509 C 0.61675 0.45033 0.8308 0.0
C3510 C 0.61303 0.4394 0.83349 0.0
H3511 H 0.6219 0.41875 0.86182 0.0
H3512 H 0.6248 0.42203 0.84725 0.0
H3513 H 0.61862 0.43262 0.85627 0.0
H3514 H 0.58899 0.44628 0.84802 0.0
H3515 H 0.59533 0.4653 0.84324 0.0
H3516 H 0.92999 0.31936 0.12333 0.0
H3517 H 0.91205 0.32411 0.11432 0.0
H3518 H 0.92991 0.33542 0.08444 0.0
H3519 H 0.94792 0.33056 0.09334 0.0
H3520 H 0.90712 0.34615 0.10845 0.0
H3521 H 0.90311 0.31855 0.07106 0.0
H3522 H 0.91262 0.31533 0.08253 0.0
H3523 H 0.91639 0.32572 0.07202 0.0
C3524 C 0.93011 0.32252 0.1147 0.0
C3525 C 0.94042 0.32461 0.10908 0.0
C3526 C 0.91983 0.32528 0.10958 0.0
C3527 C 0.9196 0.33014 0.0987 0.0
C3528 C 0.92984 0.33153 0.09277 0.0
H3529 H 0.86505 0.37553 0.07748 0.0
H3530 H 0.88372 0.36699 0.08046 0.0
C3531 C 0.94015 0.32874 0.09788 0.0
C3532 C 0.90885 0.335 0.09425 0.0
H3533 H 0.89006 0.33393 0.07247 0.0
C3534 C 0.90339 0.34345 0.10059 0.0
C3535 C 0.90397 0.33148 0.08401 0.0
C3536 C 0.90925 0.3222 0.07703 0.0
C3537 C 0.89323 0.34847 0.097 0.0
C3538 C 0.88843 0.34511 0.08665 0.0
C3539 C 0.89383 0.33661 0.08032 0.0
C3540 C 0.8775 0.34997 0.08271 0.0
C3541 C 0.88758 0.35716 0.10447 0.0
C3542 C 0.86787 0.34315 0.0823 0.0
C3543 C 0.85718 0.34799 0.08051 0.0
C3544 C 0.85592 0.35976 0.07907 0.0
C3545 C 0.8657 0.36645 0.07859 0.0
C3546 C 0.87638 0.36159 0.08037 0.0
H3547 H 0.89099 0.35696 0.11319 0.0
H3548 H 0.88904 0.36573 0.10087 0.0
H3549 H 0.87831 0.3558 0.10494 0.0
H3550 H 0.86854 0.33416 0.08402 0.0
H3551 H 0.84986 0.34257 0.08092 0.0
H3552 H 0.23522 0.99098 0.47325 0.0
H3553 H 0.23089 0.99755 0.45413 0.0
H3554 H 0.2483 0.96853 0.44039 0.0
H3555 H 0.25228 0.96167 0.45956 0.0
H3556 H 0.24229 0.00374 0.43608 0.0
H3557 H 0.21833 0.96534 0.42562 0.0
H3558 H 0.22326 0.96805 0.4397 0.0
H3559 H 0.23268 0.9621 0.42925 0.0
C3560 C 0.23828 0.98606 0.46616 0.0
C3561 C 0.24406 0.97576 0.46795 0.0
C3562 C 0.23575 0.98982 0.45521 0.0
C3563 C 0.23899 0.98341 0.44576 0.0
C3564 C 0.24537 0.97346 0.44751 0.0
H3565 H 0.23918 0.00688 0.37592 0.0
H3566 H 0.24329 0.00333 0.39582 0.0
C3567 C 0.24778 0.96962 0.45849 0.0
C3568 C 0.23548 0.98705 0.43417 0.0
H3569 H 0.2223 0.97799 0.41034 0.0
C3570 C 0.23788 0.99811 0.43048 0.0
C3571 C 0.22943 0.97986 0.4269 0.0
C3572 C 0.22566 0.96823 0.4306 0.0
C3573 C 0.23466 0.00207 0.4197 0.0
C3574 C 0.2292 0.99466 0.41219 0.0
C3575 C 0.22658 0.98368 0.41599 0.0
C3576 C 0.22636 0.99793 0.40029 0.0
C3577 C 0.23694 0.01425 0.41662 0.0
C3578 C 0.21549 0.99604 0.39599 0.0
C3579 C 0.21318 0.99791 0.38451 0.0
C3580 C 0.22167 0.00174 0.37709 0.0
C3581 C 0.23239 0.00412 0.38147 0.0
C3582 C 0.23475 0.0021 0.39289 0.0
H3583 H 0.23724 0.0196 0.42428 0.0
H3584 H 0.24529 0.01482 0.41233 0.0
H3585 H 0.23039 0.01775 0.41087 0.0
H3586 H 0.20883 0.99286 0.40147 0.0
H3587 H 0.20482 0.99615 0.38139 0.0
H3588 H 0.33272 0.99355 0.6205 0.0
H3589 H 0.33639 0.00205 0.6389 0.0
H3590 H 0.32737 0.97083 0.65557 0.0
H3591 H 0.32375 0.96223 0.63726 0.0
H3592 H 0.32361 0.00472 0.65991 0.0
H3593 H 0.36087 0.97617 0.66425 0.0
H3594 H 0.35367 0.9783 0.65101 0.0
H3595 H 0.34776 0.96914 0.66168 0.0
C3596 C 0.33126 0.98856 0.62809 0.0
C3597 C 0.32802 0.97716 0.62737 0.0
C3598 C 0.33339 0.99344 0.63861 0.0
C3599 C 0.33238 0.98701 0.6486 0.0
C3600 C 0.32839 0.97589 0.64796 0.0
H3601 H 0.33796 0.00468 0.71928 0.0
H3602 H 0.33104 1.00118 0.70025 0.0
C3603 C 0.32625 0.97101 0.63746 0.0
C3604 C 0.33632 0.99159 0.65956 0.0
H3605 H 0.35612 0.98738 0.68006 0.0
C3606 C 0.33073 1.00096 0.66432 0.0
C3607 C 0.34574 0.98682 0.66521 0.0
C3608 C 0.35245 0.97712 0.66026 0.0
C3609 C 0.33415 0.00547 0.67473 0.0
C3610 C 0.34334 1.00043 0.68056 0.0
C3611 C 0.34906 0.99124 0.67564 0.0
C3612 C 0.34707 0.00429 0.6919 0.0
C3613 C 0.32797 0.01566 0.67932 0.0
C3614 C 0.35837 0.00737 0.69361 0.0
C3615 C 0.36237 0.00937 0.70452 0.0
C3616 C 0.35518 0.00823 0.71399 0.0
C3617 C 0.34373 0.00572 0.7122 0.0
C3618 C 0.33973 0.00374 0.70128 0.0
H3619 H 0.32348 0.0204 0.67254 0.0
H3620 H 0.32159 0.01284 0.68564 0.0
H3621 H 0.33388 0.02147 0.68356 0.0
H3622 H 0.36422 0.00783 0.68652 0.0
H3623 H 0.37125 0.01121 0.70556 0.0
H3624 H 0.33582 0.0821 0.96284 0.0
H3625 H 0.3393 0.07634 0.94329 0.0
H3626 H 0.32695 0.10865 0.93139 0.0
H3627 H 0.3235 0.11452 0.9509 0.0
H3628 H 0.32615 0.0755 0.92258 0.0
H3629 H 0.36059 0.10714 0.92086 0.0
H3630 H 0.35397 0.10274 0.93397 0.0
H3631 H 0.34691 0.11262 0.92476 0.0
C3632 C 0.33355 0.08788 0.95607 0.0
C3633 C 0.32947 0.09883 0.95848 0.0
C3634 C 0.33558 0.08457 0.94488 0.0
C3635 C 0.33361 0.09214 0.93588 0.0
C3636 C 0.3287 0.10273 0.93821 0.0
H3637 H 0.34138 0.08262 0.86318 0.0
H3638 H 0.33369 0.08413 0.88238 0.0
C3639 C 0.32665 0.10605 0.94939 0.0
C3640 C 0.33764 0.08937 0.92426 0.0
H3641 H 0.35694 0.09727 0.90408 0.0
C3642 C 0.33286 0.08026 0.91851 0.0
C3643 C 0.34655 0.09545 0.91903 0.0
C3644 C 0.3524 0.10498 0.92497 0.0
C3645 C 0.33663 0.07722 0.9076 0.0
C3646 C 0.34536 0.08348 0.90228 0.0
C3647 C 0.35022 0.09249 0.90812 0.0
C3648 C 0.34965 0.08096 0.89067 0.0
C3649 C 0.33137 0.06722 0.90193 0.0
C3650 C 0.36117 0.07852 0.88887 0.0
C3651 C 0.3656 0.07765 0.87789 0.0
C3652 C 0.35862 0.0793 0.86842 0.0
C3653 C 0.34699 0.08121 0.87025 0.0
C3654 C 0.34256 0.08206 0.88125 0.0
H3655 H 0.32696 0.06163 0.90812 0.0
H3656 H 0.32506 0.07028 0.8957 0.0
H3657 H 0.33786 0.06216 0.89734 0.0
H3658 H 0.36682 0.07767 0.89599 0.0
H3659 H 0.3746 0.07624 0.87683 0.0
H3660 H 0.24303 0.08659 0.21758 0.0
H3661 H 0.25106 0.08971 0.19869 0.0
H3662 H 0.2189 0.08202 0.18388 0.0
H3663 H 0.2109 0.07856 0.20273 0.0
H3664 H 0.23597 0.07357 0.17131 0.0
H3665 H 0.24492 0.11834 0.18102 0.0
H3666 H 0.25189 0.1085 0.19032 0.0
H3667 H 0.2367 0.10943 0.19034 0.0
C3668 C 0.23771 0.08536 0.21029 0.0
C3669 C 0.22629 0.08238 0.21169 0.0
C3670 C 0.24229 0.08728 0.19948 0.0
C3671 C 0.23552 0.08645 0.18983 0.0
C3672 C 0.22429 0.08283 0.19118 0.0
H3673 H 0.24416 0.11876 0.12451 0.0
H3674 H 0.23979 0.11365 0.14408 0.0
C3675 C 0.21973 0.0808 0.20198 0.0
C3676 C 0.23995 0.08972 0.1784 0.0
H3677 H 0.25139 0.11169 0.16329 0.0
C3678 C 0.23938 0.0819 0.16957 0.0
C3679 C 0.24421 0.10066 0.17603 0.0
C3680 C 0.24438 0.10976 0.18489 0.0
C3681 C 0.24294 0.08468 0.1585 0.0
C3682 C 0.2475 0.09552 0.15621 0.0
C3683 C 0.24806 0.10334 0.16504 0.0
C3684 C 0.25106 0.09914 0.14458 0.0
C3685 C 0.24138 0.0761 0.1493 0.0
C3686 C 0.25921 0.093 0.13839 0.0
C3687 C 0.2617 0.09591 0.12712 0.0
C3688 C 0.25623 0.10513 0.12184 0.0
C3689 C 0.24859 0.11166 0.12828 0.0
C3690 C 0.24604 0.1087 0.1395 0.0
H3691 H 0.23512 0.06956 0.15178 0.0
H3692 H 0.23853 0.08023 0.14134 0.0
H3693 H 0.24955 0.07175 0.14761 0.0
H3694 H 0.26346 0.08579 0.14219 0.0
H3695 H 0.26765 0.09071 0.12244 0.0
H3696 H 0.39071 0.21514 0.00947 0.0
H3697 H 0.40965 0.22295 0.00712 0.0
H3698 H 0.39518 0.25456 0.9956 0.0
H3699 H 0.37622 0.24692 0.99828 0.0
H3700 H 0.41816 0.22887 0.98721 0.0
H3701 H 0.42001 0.26598 0.01528 0.0
H3702 H 0.4091 0.25545 0.01658 0.0
H3703 H 0.40809 0.26644 0.00601 0.0
C3704 C 0.39154 0.22388 0.00679 0.0
C3705 C 0.38194 0.2304 0.00407 0.0
C3706 C 0.40239 0.22832 0.00538 0.0
C3707 C 0.40389 0.23937 1.00119 0.0
C3708 C 0.39429 0.24611 0.99906 0.0
H3709 H 0.4658 0.25651 0.96397 0.0
H3710 H 0.44587 0.25403 0.96925 0.0
C3711 C 0.38342 0.2417 1.00058 0.0
C3712 C 0.41541 0.2433 0.99788 0.0
H3713 H 0.43456 0.26447 1.00122 0.0
C3714 C 0.42175 0.23663 0.99033 0.0
C3715 C 0.42014 0.25342 0.00195 0.0
C3716 C 0.41403 0.26068 0.01049 0.0
C3717 C 0.43265 0.23975 0.98676 0.0
C3718 C 0.43726 0.25003 0.99056 0.0
C3719 C 0.43096 0.25669 0.99815 0.0
C3720 C 0.4489 0.25356 0.98728 0.0
C3721 C 0.43922 0.23177 0.97921 0.0
C3722 C 0.45712 0.25497 0.99563 0.0
C3723 C 0.46847 0.25652 0.99261 0.0
C3724 C 0.47181 0.2566 0.98118 0.0
C3725 C 0.46347 0.25613 0.97283 0.0
C3726 C 0.4521 0.2547 0.97585 0.0
H3727 H 0.43573 0.22309 0.97953 0.0
H3728 H 0.43874 0.23484 0.97033 0.0
H3729 H 0.44826 0.23134 0.98165 0.0
H3730 H 0.45487 0.25423 0.00451 0.0
H3731 H 0.47471 0.25684 0.99924 0.0
H3732 H 0.07851 0.87984 0.37501 0.0
H3733 H 0.08105 0.89896 0.36743 0.0
H3734 H 0.09164 0.8852 0.3354 0.0
H3735 H 0.08905 0.86605 0.34288 0.0
H3736 H 0.10201 0.90657 0.36023 0.0
H3737 H 0.07081 0.91141 0.32574 0.0
H3738 H 0.06962 0.90066 0.33663 0.0
H3739 H 0.07929 0.89876 0.325 0.0
C3740 C 0.08105 0.88086 0.36625 0.0
C3741 C 0.08357 0.87137 0.35957 0.0
C3742 C 0.08256 0.89182 0.36194 0.0
C3743 C 0.08651 0.89356 0.35082 0.0
C3744 C 0.08842 0.88411 0.34393 0.0
H3745 H 0.12512 0.95199 0.32811 0.0
H3746 H 0.11806 0.93283 0.33137 0.0
C3747 C 0.08694 0.87314 0.34825 0.0
C3748 C 0.08983 0.90509 0.34692 0.0
H3749 H 0.08516 0.92541 0.32665 0.0
C3750 C 0.09828 0.91069 0.35291 0.0
C3751 C 0.08496 0.91051 0.33738 0.0
C3752 C 0.0756 0.90509 0.33085 0.0
C3753 C 0.10207 0.92145 0.34958 0.0
C3754 C 0.09741 0.92676 0.33989 0.0
C3755 C 0.08883 0.92127 0.33398 0.0
C3756 C 0.10116 0.93819 0.33611 0.0
C3757 C 0.11096 0.92714 0.35656 0.0
C3758 C 0.09387 0.94755 0.33716 0.0
C3759 C 0.09788 0.95853 0.33527 0.0
C3760 C 0.10926 0.96037 0.33224 0.0
C3761 C 0.11632 0.95091 0.33043 0.0
C3762 C 0.11231 0.93994 0.33236 0.0
H3763 H 0.11196 0.92301 0.36498 0.0
H3764 H 0.11921 0.92667 0.35205 0.0
H3765 H 0.10881 0.9362 0.35782 0.0
H3766 H 0.08522 0.9464 0.34 0.0
H3767 H 0.09219 0.96559 0.33674 0.0
H3768 H 0.1313 0.82771 0.46228 0.0
H3769 H 0.14978 0.83058 0.47083 0.0
H3770 H 0.13365 0.83772 0.50282 0.0
H3771 H 0.11513 0.83476 0.49436 0.0
H3772 H 0.15604 0.85103 0.47963 0.0
H3773 H 0.16014 0.81737 0.51235 0.0
H3774 H 0.15006 0.81667 0.501 0.0
H3775 H 0.14716 0.82533 0.5131 0.0
C3776 C 0.13167 0.82958 0.47121 0.0
C3777 C 0.12169 0.831 0.47762 0.0
C3778 C 0.14226 0.83127 0.47609 0.0
C3779 C 0.14315 0.83433 0.48749 0.0
C3780 C 0.13323 0.83519 0.49406 0.0
H3781 H 0.19918 0.87313 0.51397 0.0
H3782 H 0.18037 0.86574 0.51008 0.0
C3783 C 0.12262 0.83351 0.48919 0.0
C3784 C 0.15428 0.8378 0.49211 0.0
H3785 H 0.17362 0.83222 0.51284 0.0
C3786 C 0.15988 0.84688 0.48687 0.0
C3787 C 0.15934 0.83238 0.50155 0.0
C3788 C 0.15393 0.82233 0.50729 0.0
C3789 C 0.1703 0.85076 0.49083 0.0
C3790 C 0.17525 0.84553 0.50042 0.0
C3791 C 0.16975 0.83633 0.5056 0.0
C3792 C 0.18637 0.84929 0.50477 0.0
C3793 C 0.17604 0.86033 0.48457 0.0
C3794 C 0.19595 0.84229 0.50369 0.0
C3795 C 0.20674 0.84648 0.50596 0.0
C3796 C 0.20815 0.85774 0.5094 0.0
C3797 C 0.19844 0.86443 0.51133 0.0
C3798 C 0.18766 0.86024 0.50903 0.0
H3799 H 0.17237 0.86181 0.47607 0.0
H3800 H 0.17502 0.86822 0.48949 0.0
H3801 H 0.18523 0.85859 0.48357 0.0
H3802 H 0.19516 0.8338 0.50047 0.0
H3803 H 0.21401 0.84108 0.5044 0.0
H3804 H 0.49549 0.86473 0.75105 0.0
H3805 H 0.49212 0.88394 0.7579 0.0
H3806 H 0.50437 0.89755 0.72622 0.0
H3807 H 0.50772 0.87838 0.71926 0.0
H3808 H 0.50573 0.90429 0.75979 0.0
H3809 H 0.47091 0.90859 0.72878 0.0
H3810 H 0.47729 0.89512 0.73235 0.0
H3811 H 0.48441 0.90468 0.72285 0.0
C3812 C 0.49773 0.8718 0.74562 0.0
C3813 C 0.5018 0.86999 0.73455 0.0
C3814 C 0.49577 0.88279 0.74955 0.0
C3815 C 0.49778 0.89218 0.74249 0.0
C3816 C 0.50259 0.89042 0.73175 0.0
H3817 H 0.49361 0.9642 0.75477 0.0
H3818 H 0.50006 0.94463 0.75295 0.0
C3819 C 0.50458 0.87944 0.72781 0.0
C3820 C 0.49402 0.90367 0.74599 0.0
H3821 H 0.47534 0.92483 0.73927 0.0
C3822 C 0.49908 0.90879 0.75532 0.0
C3823 C 0.48519 0.90946 0.7403 0.0
C3824 C 0.47904 0.90418 0.73057 0.0
C3825 C 0.49573 0.91965 0.75892 0.0
C3826 C 0.48715 0.92557 0.75298 0.0
C3827 C 0.48194 0.92033 0.74381 0.0
C3828 C 0.48357 0.93733 0.75585 0.0
C3829 C 0.50132 0.92464 0.76911 0.0
C3830 C 0.47216 0.93981 0.75826 0.0
C3831 C 0.46843 0.95103 0.75931 0.0
C3832 C 0.47602 0.96003 0.75785 0.0
C3833 C 0.48754 0.9575 0.75602 0.0
C3834 C 0.49126 0.94627 0.755 0.0
H3835 H 0.50526 0.91799 0.77452 0.0
H3836 H 0.50807 0.93048 0.76625 0.0
H3837 H 0.49515 0.92951 0.77429 0.0
H3838 H 0.46605 0.93306 0.75892 0.0
H3839 H 0.4595 0.95265 0.76064 0.0
H3840 H 0.12452 0.11948 0.25155 0.0
H3841 H 0.11648 0.13808 0.24697 0.0
H3842 H 0.08433 0.12276 0.24026 0.0
H3843 H 0.09234 0.10414 0.24465 0.0
H3844 H 0.09116 0.13655 0.22297 0.0
H3845 H 0.09481 0.15905 0.26364 0.0
H3846 H 0.10788 0.15285 0.25884 0.0
H3847 H 0.09621 0.14388 0.26262 0.0
C3848 C 0.11567 0.12009 0.24938 0.0
C3849 C 0.10908 0.1103 0.24851 0.0
C3850 C 0.11106 0.13076 0.24676 0.0
C3851 C 0.09976 0.13187 0.24333 0.0
C3852 C 0.09307 0.12214 0.24288 0.0
H3853 H 0.06444 0.19643 0.23393 0.0
H3854 H 0.06977 0.17719 0.23965 0.0
C3855 C 0.09766 0.11149 0.24546 0.0
C3856 C 0.09511 0.14299 0.23943 0.0
H3857 H 0.09052 0.17035 0.24743 0.0
C3858 C 0.09096 0.14392 0.22835 0.0
C3859 C 0.09474 0.15261 0.24645 0.0
C3860 C 0.09854 0.15206 0.25858 0.0
C3861 C 0.08665 0.1542 0.22406 0.0
C3862 C 0.08664 0.16392 0.23096 0.0
C3863 C 0.09059 0.16294 0.2421 0.0
C3864 C 0.08271 0.1752 0.22677 0.0
C3865 C 0.08203 0.15452 0.21222 0.0
C3866 C 0.08805 0.18046 0.21749 0.0
C3867 C 0.08495 0.19144 0.21413 0.0
C3868 C 0.0765 0.19746 0.22005 0.0
C3869 C 0.07092 0.19204 0.22912 0.0
C3870 C 0.07402 0.18105 0.23246 0.0
H3871 H 0.07963 0.14597 0.20934 0.0
H3872 H 0.07452 0.16019 0.21164 0.0
H3873 H 0.08862 0.15778 0.20633 0.0
H3874 H 0.09492 0.17625 0.21307 0.0
H3875 H 0.0895 0.19537 0.20719 0.0
H3876 H 0.46803 0.12325 0.8522 0.0
H3877 H 0.47469 0.14259 0.85369 0.0
H3878 H 0.49031 0.14009 0.82075 0.0
H3879 H 0.48316 0.12068 0.81901 0.0
H3880 H 0.50455 0.14861 0.83977 0.0
H3881 H 0.46352 0.1713 0.8354 0.0
H3882 H 0.4634 0.1594 0.84497 0.0
H3883 H 0.46585 0.15717 0.83015 0.0
C3884 C 0.47242 0.12695 0.84504 0.0
C3885 C 0.47459 0.12058 0.83527 0.0
C3886 C 0.47641 0.13797 0.84599 0.0
C3887 C 0.48285 0.14286 0.83726 0.0
C3888 C 0.48524 0.13651 0.82753 0.0
H3889 H 0.49851 0.21493 0.83999 0.0
H3890 H 0.49469 0.19608 0.83273 0.0
C3891 C 0.48113 0.12545 0.82654 0.0
C3892 C 0.48732 0.15447 0.83865 0.0
H3893 H 0.47881 0.18179 0.84279 0.0
C3894 C 0.49896 0.1559 0.84027 0.0
C3895 C 0.48003 0.16397 0.83927 0.0
C3896 C 0.46751 0.16296 0.83727 0.0
C3897 C 0.50343 0.16654 0.84295 0.0
C3898 C 0.49605 0.17595 0.84408 0.0
C3899 C 0.48448 0.17457 0.84199 0.0
C3900 C 0.49999 0.18721 0.84788 0.0
C3901 C 0.51599 0.1676 0.84462 0.0
C3902 C 0.5045 0.18853 0.85874 0.0
C3903 C 0.5067 0.19933 0.86293 0.0
C3904 C 0.5044 0.20904 0.85636 0.0
C3905 C 0.50043 0.20765 0.84528 0.0
C3906 C 0.49819 0.19687 0.84112 0.0
H3907 H 0.52074 0.16061 0.84048 0.0
H3908 H 0.51912 0.17579 0.84121 0.0
H3909 H 0.51783 0.16725 0.8538 0.0
H3910 H 0.50579 0.18124 0.86419 0.0
H3911 H 0.50967 0.20007 0.87152 0.0
H3912 H 0.22528 0.24967 0.08553 0.0
H3913 H 0.20618 0.25771 0.08689 0.0
H3914 H 0.19233 0.22643 0.07512 0.0
H3915 H 0.21135 0.21829 0.07374 0.0
H3916 H 0.18492 0.25842 0.07089 0.0
H3917 H 0.18253 0.23173 0.10989 0.0
H3918 H 0.19583 0.23546 0.10332 0.0
H3919 H 0.18711 0.22492 0.09709 0.0
C3920 C 0.2182 0.2446 0.0829 0.0
C3921 C 0.21983 0.23328 0.07968 0.0
C3922 C 0.2073 0.24923 0.08366 0.0
C3923 C 0.19787 0.24262 0.0812 0.0
C3924 C 0.19952 0.23165 0.07707 0.0
H3925 H 0.12563 0.25422 0.08985 0.0
H3926 H 0.14435 0.25189 0.0811 0.0
C3927 C 0.21041 0.22702 0.0763 0.0
C3928 C 0.18641 0.24647 0.08464 0.0
H3929 H 0.16639 0.24237 0.10516 0.0
C3930 C 0.18083 0.25493 0.07835 0.0
C3931 C 0.18118 0.24196 0.09445 0.0
C3932 C 0.18695 0.23306 0.10166 0.0
C3933 C 0.17003 0.25891 0.08163 0.0
C3934 C 0.1648 0.25431 0.09142 0.0
C3935 C 0.17044 0.2459 0.09768 0.0
C3936 C 0.15349 0.25802 0.09554 0.0
C3937 C 0.16438 0.26811 0.07477 0.0
C3938 C 0.15239 0.26253 0.10642 0.0
C3939 C 0.14174 0.26381 0.11145 0.0
C3940 C 0.13196 0.26056 0.10571 0.0
C3941 C 0.133 0.25685 0.09448 0.0
C3942 C 0.1437 0.25554 0.08945 0.0
H3943 H 0.1704 0.2723 0.06884 0.0
H3944 H 0.15749 0.26439 0.06975 0.0
H3945 H 0.16057 0.27459 0.08039 0.0
H3946 H 0.15984 0.26449 0.11127 0.0
H3947 H 0.14125 0.26674 0.12009 0.0
H3948 H 0.37435 0.87714 0.57785 0.0
H3949 H 0.39345 0.8693 0.57996 0.0
H3950 H 0.37946 0.83677 0.58851 0.0
H3951 H 0.36038 0.84449 0.58633 0.0
H3952 H 0.40148 0.86065 0.60009 0.0
H3953 H 0.40506 0.82814 0.56679 0.0
H3954 H 0.39438 0.83915 0.56656 0.0
H3955 H 0.39259 0.82687 0.57545 0.0
C3956 C 0.37533 0.86824 0.57986 0.0
C3957 C 0.3658 0.86145 0.58189 0.0
C3958 C 0.38627 0.86377 0.58113 0.0
C3959 C 0.38794 0.85241 0.58433 0.0
C3960 C 0.37844 0.84549 0.58584 0.0
H3961 H 0.4459 0.82588 0.62115 0.0
H3962 H 0.42687 0.83053 0.61451 0.0
C3963 C 0.36751 0.84995 0.58461 0.0
C3964 C 0.39946 0.84811 0.58721 0.0
H3965 H 0.41908 0.82754 0.58121 0.0
C3966 C 0.40534 0.85344 0.59591 0.0
C3967 C 0.40455 0.83874 0.58174 0.0
C3968 C 0.39888 0.83294 0.57204 0.0
C3969 C 0.41603 0.84957 0.59941 0.0
C3970 C 0.42097 0.83998 0.59419 0.0
C3971 C 0.41522 0.83478 0.58532 0.0
C3972 C 0.43225 0.83553 0.59768 0.0
C3973 C 0.42203 0.85587 0.60859 0.0
C3974 C 0.44155 0.83622 0.59026 0.0
C3975 C 0.45246 0.83351 0.59402 0.0
C3976 C 0.45428 0.82999 0.60527 0.0
C3977 C 0.44484 0.82856 0.61244 0.0
C3978 C 0.43394 0.8313 0.60868 0.0
H3979 H 0.41833 0.86443 0.60992 0.0
H3980 H 0.42128 0.85106 0.61666 0.0
H3981 H 0.43116 0.85676 0.60654 0.0
H3982 H 0.44044 0.83939 0.58171 0.0
H3983 H 0.45951 0.83472 0.58825 0.0
H3984 H 0.76195 0.48229 0.94972 0.0
H3985 H 0.75874 0.48718 0.92981 0.0
H3986 H 0.7286 0.46697 0.93008 0.0
H3987 H 0.73174 0.46206 0.94986 0.0
H3988 H 0.74131 0.46455 0.91031 0.0
H3989 H 0.73397 0.50982 0.92036 0.0
H3990 H 0.74735 0.50415 0.92485 0.0
H3991 H 0.73452 0.49893 0.93112 0.0
C3992 C 0.75475 0.47871 0.94549 0.0
C3993 C 0.74712 0.47173 0.95143 0.0
C3994 C 0.75287 0.48161 0.93413 0.0
C3995 C 0.7433 0.47762 0.9285 0.0
C3996 C 0.73601 0.47019 0.93424 0.0
H3997 H 0.7075 0.50126 0.86903 0.0
H3998 H 0.71399 0.49703 0.88824 0.0
C3999 C 0.73787 0.46732 0.94557 0.0
C4000 C 0.74056 0.48147 0.9168 0.0
H4001 H 0.7333 0.50482 0.90108 0.0
C4002 C 0.73963 0.47336 0.90827 0.0
C4003 C 0.73815 0.49296 0.91419 0.0
C4004 C 0.73844 0.50198 0.92311 0.0
C4005 C 0.73643 0.47642 0.89723 0.0
C4006 C 0.73424 0.48793 0.89458 0.0
C4007 C 0.7351 0.49603 0.9031 0.0
C4008 C 0.73074 0.49159 0.88305 0.0
C4009 C 0.73511 0.46728 0.88854 0.0
C4010 C 0.73812 0.49033 0.8738 0.0
C4011 C 0.73446 0.4928 0.86282 0.0
C4012 C 0.72334 0.49661 0.86086 0.0
C4013 C 0.71614 0.49841 0.87022 0.0
C4014 C 0.71982 0.49595 0.88121 0.0
H4015 H 0.73481 0.45873 0.89248 0.0
H4016 H 0.72729 0.46867 0.88357 0.0
H4017 H 0.74241 0.46751 0.88258 0.0
H4018 H 0.74664 0.48715 0.87504 0.0
H4019 H 0.74024 0.49131 0.85583 0.0
H4020 H 0.86842 0.51523 0.19758 0.0
H4021 H 0.86023 0.512 0.17899 0.0
H4022 H 0.82943 0.50048 0.19485 0.0
H4023 H 0.83753 0.50371 0.21348 0.0
H4024 H 0.85358 0.48998 0.17284 0.0
H4025 H 0.8181 0.52071 0.16835 0.0
H4026 H 0.82954 0.5227 0.17814 0.0
H4027 H 0.81843 0.51296 0.1815 0.0
C4028 C 0.85978 0.51233 0.19714 0.0
C4029 C 0.85365 0.50971 0.20705 0.0
C4030 C 0.85513 0.51044 0.18648 0.0
C4031 C 0.84421 0.50602 0.18551 0.0
C4032 C 0.83781 0.50404 0.19537 0.0
H4033 H 0.81997 0.46503 0.13044 0.0
H4034 H 0.82307 0.4734 0.14899 0.0
C4035 C 0.84248 0.50587 0.20603 0.0
C4036 C 0.84009 0.50221 0.17433 0.0
H4037 H 0.81925 0.50603 0.15474 0.0
C4038 C 0.8461 0.49353 0.16888 0.0
C4039 C 0.83032 0.50684 0.16916 0.0
C4040 C 0.82374 0.51638 0.17451 0.0
C4041 C 0.84256 0.48925 0.15847 0.0
C4042 C 0.83269 0.49373 0.15338 0.0
C4043 C 0.82674 0.50254 0.15873 0.0
C4044 C 0.82876 0.48948 0.14233 0.0
C4045 C 0.84945 0.48002 0.15292 0.0
C4046 C 0.83044 0.49592 0.13245 0.0
C4047 C 0.82869 0.49116 0.12182 0.0
C4048 C 0.82517 0.47987 0.12088 0.0
C4049 C 0.82266 0.47375 0.13083 0.0
C4050 C 0.82447 0.4785 0.14145 0.0
H4051 H 0.85782 0.47882 0.15697 0.0
H4052 H 0.8448 0.47194 0.15355 0.0
H4053 H 0.8508 0.48197 0.1438 0.0
H4054 H 0.83374 0.50442 0.13295 0.0
H4055 H 0.83071 0.49613 0.11434 0.0
H4056 H 0.84663 0.58435 0.36267 0.0
H4057 H 0.84092 0.58761 0.38236 0.0
H4058 H 0.87435 0.5996 0.38968 0.0
H4059 H 0.88015 0.59606 0.37005 0.0
H4060 H 0.85041 0.58059 0.40446 0.0
H4061 H 0.85231 0.62686 0.39617 0.0
H4062 H 0.85197 0.61663 0.38495 0.0
H4063 H 0.86484 0.61895 0.39249 0.0
C4064 C 0.85285 0.5874 0.36855 0.0
C4065 C 0.86378 0.59023 0.36477 0.0
C4066 C 0.84955 0.58932 0.37978 0.0
C4067 C 0.85712 0.59412 0.3874 0.0
C4068 C 0.86829 0.59614 0.38386 0.0
H4069 H 0.85527 0.62173 0.4542 0.0
H4070 H 0.85909 0.61635 0.43473 0.0
C4071 C 0.87159 0.59418 0.37266 0.0
C4072 C 0.85318 0.59768 0.3988 0.0
H4073 H 0.84875 0.62106 0.41503 0.0
C4074 C 0.84998 0.58943 0.40678 0.0
C4075 C 0.85257 0.60922 0.40177 0.0
C4076 C 0.85551 0.61847 0.39339 0.0
C4077 C 0.84659 0.59241 0.41781 0.0
C4078 C 0.8461 0.60397 0.42083 0.0
C4079 C 0.8491 0.61221 0.41274 0.0
C4080 C 0.84322 0.60772 0.43252 0.0
C4081 C 0.84399 0.58311 0.42623 0.0
C4082 C 0.83287 0.60495 0.43775 0.0
C4083 C 0.83061 0.60813 0.44896 0.0
C4084 C 0.83858 0.61433 0.45505 0.0
C4085 C 0.84877 0.61733 0.44965 0.0
C4086 C 0.85104 0.61412 0.43853 0.0
H4087 H 0.84745 0.57482 0.42346 0.0
H4088 H 0.84751 0.58506 0.43466 0.0
H4089 H 0.83469 0.5823 0.42715 0.0
H4090 H 0.82659 0.60023 0.43322 0.0
H4091 H 0.82272 0.60562 0.4529 0.0
H4092 H 0.75429 0.59254 0.61709 0.0
H4093 H 0.75203 0.5858 0.63655 0.0
H4094 H 0.73767 0.61806 0.64593 0.0
H4095 H 0.73944 0.62466 0.62633 0.0
H4096 H 0.75911 0.59112 0.6567 0.0
H4097 H 0.71277 0.59775 0.65593 0.0
H4098 H 0.72148 0.59929 0.64345 0.0
H4099 H 0.72027 0.61064 0.65345 0.0
C4100 C 0.75079 0.59827 0.62332 0.0
C4101 C 0.74694 0.60911 0.62012 0.0
C4102 C 0.74947 0.59438 0.63447 0.0
C4103 C 0.74435 0.60128 0.64269 0.0
C4104 C 0.74127 0.61241 0.63968 0.0
H4105 H 0.74359 0.58963 0.71511 0.0
H4106 H 0.74902 0.59367 0.69561 0.0
C4107 C 0.74241 0.61624 0.62849 0.0
C4108 C 0.74191 0.59667 0.65424 0.0
H4109 H 0.72077 0.59328 0.67381 0.0
C4110 C 0.75071 0.59154 0.66041 0.0
C4111 C 0.73089 0.5969 0.65903 0.0
C4112 C 0.7208 0.60132 0.65257 0.0
C4113 C 0.74886 0.58693 0.67128 0.0
C4114 C 0.73797 0.58778 0.67632 0.0
C4115 C 0.72914 0.59268 0.67004 0.0
C4116 C 0.73554 0.58403 0.68819 0.0
C4117 C 0.75857 0.58101 0.67711 0.0
C4118 C 0.72612 0.57724 0.69068 0.0
C4119 C 0.72283 0.57509 0.7019 0.0
C4120 C 0.72895 0.57962 0.7109 0.0
C4121 C 0.73875 0.58587 0.70841 0.0
C4122 C 0.74192 0.58816 0.6972 0.0
H4123 H 0.7647 0.57749 0.67088 0.0
H4124 H 0.76315 0.58719 0.68233 0.0
H4125 H 0.75558 0.57403 0.68269 0.0
H4126 H 0.72104 0.57393 0.68391 0.0
H4127 H 0.71522 0.57029 0.70351 0.0
loop_
_geom_bond_atom_site_label_1
_geom_bond_atom_site_label_2
_geom_bond_distance
_geom_bond_site_symmetry_2
_ccdc_geom_bond_type
O0 Cd1 2.223 1_655 S
O0 C8 1.315 . S
Cd1 O0 2.223 1_455 S
Cd1 O4 2.297 1_455 S
Cd1 O5 2.439 1_455 S
Cd1 O11 2.240 . S
Cd2 O3 2.240 . S
Cd2 O10 2.223 1_655 S
Cd2 O12 2.297 1_655 S
Cd2 O13 2.439 1_655 S
O3 Cd2 2.240 . S
O3 C8 1.279 . S
O4 Cd1 2.297 1_655 S
O4 C6 1.247 . S
O5 Cd1 2.439 1_655 S
O5 C6 1.208 . S
C6 O4 1.247 . S
C6 O5 1.208 . S
C7 O12 1.247 . S
C7 O13 1.208 . S
C8 O0 1.315 . S
C8 O3 1.279 . S
C9 O10 1.315 . S
C9 O11 1.279 . S
O10 Cd2 2.223 1_455 S
O10 C9 1.315 . S
O11 Cd1 2.240 . S
O11 C9 1.279 . S
O12 Cd2 2.297 1_455 S
O12 C7 1.247 . S
O13 Cd2 2.439 1_455 S
O13 C7 1.208 . S
O14 Cd15 2.223 . S
O14 C22 1.315 . S
Cd15 O14 2.223 . S
Cd15 O18 2.297 . S
Cd15 O19 2.439 . S
Cd15 O25 2.240 1_655 S
Cd16 O17 2.239 1_455 S
Cd16 O24 2.223 . S
Cd16 O26 2.297 . S
Cd16 O27 2.439 . S
O17 Cd16 2.239 1_655 S
O17 C22 1.279 . S
O18 Cd15 2.297 . S
O18 C20 1.247 . S
O19 Cd15 2.439 . S
O19 C20 1.208 . S
C20 O18 1.247 . S
C20 O19 1.208 . S
C21 O26 1.247 . S
C21 O27 1.208 . S
C22 O14 1.315 . S
C22 O17 1.279 . S
C23 O24 1.315 . S
C23 O25 1.279 . S
O24 Cd16 2.223 . S
O24 C23 1.315 . S
O25 Cd15 2.240 1_455 S
O25 C23 1.279 . S
O26 Cd16 2.297 . S
O26 C21 1.247 . S
O27 Cd16 2.439 . S
O27 C21 1.208 . S
O28 Cd29 2.223 . S
O28 C36 1.315 . S
Cd29 O28 2.223 . S
Cd29 O32 2.297 . S
Cd29 O33 2.439 . S
Cd29 O39 2.240 . S
Cd30 O31 2.240 . S
Cd30 O38 2.223 . S
Cd30 O40 2.297 . S
Cd30 O41 2.439 . S
O31 Cd30 2.240 . S
O31 C36 1.279 . S
O32 Cd29 2.297 . S
O32 C34 1.247 . S
O33 Cd29 2.439 . S
O33 C34 1.208 . S
C34 O32 1.247 . S
C34 O33 1.208 . S
C35 O40 1.247 . S
C35 O41 1.208 . S
C36 O28 1.315 . S
C36 O31 1.279 . S
C37 O38 1.315 . S
C37 O39 1.279 . S
O38 Cd30 2.223 . S
O38 C37 1.315 . S
O39 Cd29 2.240 . S
O39 C37 1.279 . S
O40 Cd30 2.297 . S
O40 C35 1.247 . S
O41 Cd30 2.439 . S
O41 C35 1.208 . S
O42 Cd43 2.223 . S
O42 C50 1.315 . S
Cd43 O42 2.223 . S
Cd43 O46 2.297 . S
Cd43 O47 2.439 . S
Cd43 O53 2.240 . S
Cd44 O45 2.240 . S
Cd44 O52 2.223 . S
Cd44 O54 2.297 . S
Cd44 O55 2.439 . S
O45 Cd44 2.240 . S
O45 C50 1.279 . S
O46 Cd43 2.297 . S
O46 C48 1.247 . S
O47 Cd43 2.439 . S
O47 C48 1.208 . S
C48 O46 1.247 . S
C48 O47 1.208 . S
C49 O54 1.247 . S
C49 O55 1.208 . S
C50 O42 1.315 . S
C50 O45 1.279 . S
C51 O52 1.315 . S
C51 O53 1.279 . S
O52 Cd44 2.223 . S
O52 C51 1.315 . S
O53 Cd43 2.240 . S
O53 C51 1.279 . S
O54 Cd44 2.297 . S
O54 C49 1.247 . S
O55 Cd44 2.439 . S
O55 C49 1.208 . S
O56 Cd57 2.223 1_655 S
O56 C64 1.315 . S
Cd57 O56 2.223 1_455 S
Cd57 O60 2.297 1_455 S
Cd57 O61 2.439 1_455 S
Cd57 O67 2.240 . S
Cd58 O59 2.240 . S
Cd58 O66 2.223 1_655 S
Cd58 O68 2.297 1_655 S
Cd58 O69 2.439 1_655 S
O59 Cd58 2.240 . S
O59 C64 1.279 . S
O60 Cd57 2.297 1_655 S
O60 C62 1.247 . S
O61 Cd57 2.439 1_655 S
O61 C62 1.208 . S
C62 O60 1.247 . S
C62 O61 1.208 . S
C63 O68 1.247 . S
C63 O69 1.208 . S
C64 O56 1.315 . S
C64 O59 1.279 . S
C65 O66 1.315 . S
C65 O67 1.279 . S
O66 Cd58 2.223 1_455 S
O66 C65 1.315 . S
O67 Cd57 2.240 . S
O67 C65 1.279 . S
O68 Cd58 2.297 1_455 S
O68 C63 1.247 . S
O69 Cd58 2.439 1_455 S
O69 C63 1.208 . S
O70 Cd71 2.223 . S
O70 C78 1.315 . S
Cd71 O70 2.223 . S
Cd71 O74 2.297 . S
Cd71 O75 2.439 . S
Cd71 O81 2.240 . S
Cd72 O73 2.240 . S
Cd72 O80 2.223 . S
Cd72 O82 2.297 . S
Cd72 O83 2.439 . S
O73 Cd72 2.240 . S
O73 C78 1.279 . S
O74 Cd71 2.297 . S
O74 C76 1.247 . S
O75 Cd71 2.439 . S
O75 C76 1.208 . S
C76 O74 1.247 . S
C76 O75 1.208 . S
C77 O82 1.247 . S
C77 O83 1.208 . S
C78 O70 1.315 . S
C78 O73 1.279 . S
C79 O80 1.315 . S
C79 O81 1.279 . S
O80 Cd72 2.223 . S
O80 C79 1.315 . S
O81 Cd71 2.240 . S
O81 C79 1.279 . S
O82 Cd72 2.297 . S
O82 C77 1.247 . S
O83 Cd72 2.439 . S
O83 C77 1.208 . S
O84 Cd85 2.223 . S
O84 C92 1.315 . S
Cd85 O84 2.223 . S
Cd85 O88 2.297 . S
Cd85 O89 2.439 . S
Cd85 O95 2.240 . S
Cd86 O87 2.240 . S
Cd86 O94 2.223 . S
Cd86 O96 2.297 . S
Cd86 O97 2.439 . S
O87 Cd86 2.240 . S
O87 C92 1.279 . S
O88 Cd85 2.297 . S
O88 C90 1.247 . S
O89 Cd85 2.439 . S
O89 C90 1.208 . S
C90 O88 1.247 . S
C90 O89 1.208 . S
C91 O96 1.247 . S
C91 O97 1.208 . S
C92 O84 1.315 . S
C92 O87 1.279 . S
C93 O94 1.315 . S
C93 O95 1.279 . S
O94 Cd86 2.223 . S
O94 C93 1.315 . S
O95 Cd85 2.240 . S
O95 C93 1.279 . S
O96 Cd86 2.297 . S
O96 C91 1.247 . S
O97 Cd86 2.439 . S
O97 C91 1.208 . S
O98 Cd99 2.223 . S
O98 C106 1.315 . S
Cd99 O98 2.223 . S
Cd99 O102 2.297 . S
Cd99 O103 2.439 . S
Cd99 O109 2.240 1_655 S
Cd100 O101 2.236 . S
Cd100 O108 2.223 . S
Cd100 O110 2.297 . S
Cd100 O111 2.439 . S
O101 Cd100 2.236 . S
O101 C106 1.280 1_455 S
O102 Cd99 2.297 . S
O102 C104 1.247 . S
O103 Cd99 2.439 . S
O103 C104 1.208 . S
C104 O102 1.247 . S
C104 O103 1.208 . S
C105 O110 1.247 . S
C105 O111 1.208 . S
C106 O98 1.315 . S
C106 O101 1.280 1_655 S
C107 O108 1.315 . S
C107 O109 1.279 . S
O108 Cd100 2.223 . S
O108 C107 1.315 . S
O109 Cd99 2.240 1_455 S
O109 C107 1.279 . S
O110 Cd100 2.297 . S
O110 C105 1.247 . S
O111 Cd100 2.439 . S
O111 C105 1.208 . S
O112 Cd113 2.223 1_565 S
O112 C120 1.315 . S
Cd113 O112 2.223 1_545 S
Cd113 O116 2.297 1_545 S
Cd113 O117 2.439 1_545 S
Cd113 O123 2.240 . S
Cd114 O115 2.240 . S
Cd114 O122 2.223 1_565 S
Cd114 O124 2.297 1_565 S
Cd114 O125 2.439 1_565 S
O115 Cd114 2.240 . S
O115 C120 1.279 . S
O116 Cd113 2.297 1_565 S
O116 C118 1.247 . S
O117 Cd113 2.439 1_565 S
O117 C118 1.208 . S
C118 O116 1.247 . S
C118 O117 1.208 . S
C119 O124 1.247 . S
C119 O125 1.208 . S
C120 O112 1.315 . S
C120 O115 1.279 . S
C121 O122 1.315 . S
C121 O123 1.279 . S
O122 Cd114 2.223 1_545 S
O122 C121 1.315 . S
O123 Cd113 2.240 . S
O123 C121 1.279 . S
O124 Cd114 2.297 1_545 S
O124 C119 1.247 . S
O125 Cd114 2.439 1_545 S
O125 C119 1.208 . S
O126 Cd127 2.223 . S
O126 C134 1.315 . S
Cd127 O126 2.223 . S
Cd127 O130 2.297 . S
Cd127 O131 2.439 . S
Cd127 O137 2.240 . S
Cd128 O129 2.240 . S
Cd128 O136 2.223 . S
Cd128 O138 2.297 . S
Cd128 O139 2.439 . S
O129 Cd128 2.240 . S
O129 C134 1.279 . S
O130 Cd127 2.297 . S
O130 C132 1.247 . S
O131 Cd127 2.439 . S
O131 C132 1.208 . S
C132 O130 1.247 . S
C132 O131 1.208 . S
C133 O138 1.247 . S
C133 O139 1.208 . S
C134 O126 1.315 . S
C134 O129 1.279 . S
C135 O136 1.315 . S
C135 O137 1.279 . S
O136 Cd128 2.223 . S
O136 C135 1.315 . S
O137 Cd127 2.240 . S
O137 C135 1.279 . S
O138 Cd128 2.297 . S
O138 C133 1.247 . S
O139 Cd128 2.439 . S
O139 C133 1.208 . S
O140 Cd141 2.223 . S
O140 C148 1.315 . S
Cd141 O140 2.223 . S
Cd141 O144 2.297 . S
Cd141 O145 2.439 . S
Cd141 O151 2.240 . S
Cd142 O143 2.240 . S
Cd142 O150 2.223 . S
Cd142 O152 2.297 . S
Cd142 O153 2.439 . S
O143 Cd142 2.240 . S
O143 C148 1.279 . S
O144 Cd141 2.297 . S
O144 C146 1.247 . S
O145 Cd141 2.439 . S
O145 C146 1.208 . S
C146 O144 1.247 . S
C146 O145 1.208 . S
C147 O152 1.247 . S
C147 O153 1.208 . S
C148 O140 1.315 . S
C148 O143 1.279 . S
C149 O150 1.315 . S
C149 O151 1.279 . S
O150 Cd142 2.223 . S
O150 C149 1.315 . S
O151 Cd141 2.240 . S
O151 C149 1.279 . S
O152 Cd142 2.297 . S
O152 C147 1.247 . S
O153 Cd142 2.439 . S
O153 C147 1.208 . S
O154 Cd155 2.223 . S
O154 C162 1.315 . S
Cd155 O154 2.223 . S
Cd155 O158 2.297 . S
Cd155 O159 2.439 . S
Cd155 O165 2.240 . S
Cd156 O157 2.240 . S
Cd156 O164 2.223 . S
Cd156 O166 2.297 . S
Cd156 O167 2.439 . S
O157 Cd156 2.240 . S
O157 C162 1.279 . S
O158 Cd155 2.297 . S
O158 C160 1.247 . S
O159 Cd155 2.439 . S
O159 C160 1.208 . S
C160 O158 1.247 . S
C160 O159 1.208 . S
C161 O166 1.247 . S
C161 O167 1.208 . S
C162 O154 1.315 . S
C162 O157 1.279 . S
C163 O164 1.315 . S
C163 O165 1.279 . S
O164 Cd156 2.223 . S
O164 C163 1.315 . S
O165 Cd155 2.240 . S
O165 C163 1.279 . S
O166 Cd156 2.297 . S
O166 C161 1.247 . S
O167 Cd156 2.439 . S
O167 C161 1.208 . S
O168 Cd169 2.223 . S
O168 C176 1.315 . S
Cd169 O168 2.223 . S
Cd169 O172 2.297 . S
Cd169 O173 2.439 . S
Cd169 O179 2.240 . S
Cd170 O171 2.240 . S
Cd170 O178 2.223 . S
Cd170 O180 2.297 . S
Cd170 O181 2.439 . S
O171 Cd170 2.240 . S
O171 C176 1.279 . S
O172 Cd169 2.297 . S
O172 C174 1.247 . S
O173 Cd169 2.439 . S
O173 C174 1.208 . S
C174 O172 1.247 . S
C174 O173 1.208 . S
C175 O180 1.247 . S
C175 O181 1.208 . S
C176 O168 1.315 . S
C176 O171 1.279 . S
C177 O178 1.315 . S
C177 O179 1.279 . S
O178 Cd170 2.223 . S
O178 C177 1.315 . S
O179 Cd169 2.240 . S
O179 C177 1.279 . S
O180 Cd170 2.297 . S
O180 C175 1.247 . S
O181 Cd170 2.439 . S
O181 C175 1.208 . S
O182 Cd183 2.223 . S
O182 C190 1.315 . S
Cd183 O182 2.223 . S
Cd183 O186 2.297 . S
Cd183 O187 2.439 . S
Cd183 O193 2.240 . S
Cd184 O185 2.240 . S
Cd184 O192 2.223 . S
Cd184 O194 2.297 . S
Cd184 O195 2.439 . S
O185 Cd184 2.240 . S
O185 C190 1.279 . S
O186 Cd183 2.297 . S
O186 C188 1.247 . S
O187 Cd183 2.439 . S
O187 C188 1.208 . S
C188 O186 1.247 . S
C188 O187 1.208 . S
C189 O194 1.247 . S
C189 O195 1.208 . S
C190 O182 1.315 . S
C190 O185 1.279 . S
C191 O192 1.315 . S
C191 O193 1.279 . S
O192 Cd184 2.223 . S
O192 C191 1.315 . S
O193 Cd183 2.240 . S
O193 C191 1.279 . S
O194 Cd184 2.297 . S
O194 C189 1.247 . S
O195 Cd184 2.439 . S
O195 C189 1.208 . S
O196 Cd197 2.223 1_565 S
O196 C204 1.315 . S
Cd197 O196 2.223 1_545 S
Cd197 O200 2.297 1_545 S
Cd197 O201 2.439 1_545 S
Cd197 O207 2.240 . S
Cd198 O199 2.240 . S
Cd198 O206 2.223 1_565 S
Cd198 O208 2.297 1_565 S
Cd198 O209 2.439 1_565 S
O199 Cd198 2.240 . S
O199 C204 1.279 . S
O200 Cd197 2.297 1_565 S
O200 C202 1.247 . S
O201 Cd197 2.439 1_565 S
O201 C202 1.208 . S
C202 O200 1.247 . S
C202 O201 1.208 . S
C203 O208 1.247 . S
C203 O209 1.208 . S
C204 O196 1.315 . S
C204 O199 1.279 . S
C205 O206 1.315 . S
C205 O207 1.279 . S
O206 Cd198 2.223 1_545 S
O206 C205 1.315 . S
O207 Cd197 2.240 . S
O207 C205 1.279 . S
O208 Cd198 2.297 1_545 S
O208 C203 1.247 . S
O209 Cd198 2.439 1_545 S
O209 C203 1.208 . S
O210 Cd211 2.223 . S
O210 C218 1.315 . S
Cd211 O210 2.223 . S
Cd211 O214 2.297 . S
Cd211 O215 2.439 . S
Cd211 O221 2.240 1_556 S
Cd212 O213 2.236 . S
Cd212 O220 2.223 . S
Cd212 O222 2.297 . S
Cd212 O223 2.439 . S
O213 Cd212 2.236 . S
O213 C218 1.280 1_554 S
O214 Cd211 2.297 . S
O214 C216 1.247 . S
O215 Cd211 2.439 . S
O215 C216 1.208 . S
C216 O214 1.247 . S
C216 O215 1.208 . S
C217 O222 1.247 . S
C217 O223 1.208 . S
C218 O210 1.315 . S
C218 O213 1.280 1_556 S
C219 O220 1.315 . S
C219 O221 1.279 . S
O220 Cd212 2.223 . S
O220 C219 1.315 . S
O221 Cd211 2.240 1_554 S
O221 C219 1.279 . S
O222 Cd212 2.297 . S
O222 C217 1.247 . S
O223 Cd212 2.439 . S
O223 C217 1.208 . S
O224 Cd225 2.223 1_556 S
O224 C232 1.315 . S
Cd225 O224 2.223 1_554 S
Cd225 O228 2.297 1_554 S
Cd225 O229 2.439 1_554 S
Cd225 O235 2.240 . S
Cd226 O227 2.240 . S
Cd226 O234 2.223 1_556 S
Cd226 O236 2.297 1_556 S
Cd226 O237 2.439 1_556 S
O227 Cd226 2.240 . S
O227 C232 1.279 . S
O228 Cd225 2.297 1_556 S
O228 C230 1.247 . S
O229 Cd225 2.439 1_556 S
O229 C230 1.208 . S
C230 O228 1.247 . S
C230 O229 1.208 . S
C231 O236 1.247 . S
C231 O237 1.208 . S
C232 O224 1.315 . S
C232 O227 1.279 . S
C233 O234 1.315 . S
C233 O235 1.279 . S
O234 Cd226 2.223 1_554 S
O234 C233 1.315 . S
O235 Cd225 2.240 . S
O235 C233 1.279 . S
O236 Cd226 2.297 1_554 S
O236 C231 1.247 . S
O237 Cd226 2.439 1_554 S
O237 C231 1.208 . S
O238 Cd239 2.223 . S
O238 C246 1.315 . S
Cd239 O238 2.223 . S
Cd239 O242 2.297 . S
Cd239 O243 2.439 . S
Cd239 O249 2.240 . S
Cd240 O241 2.240 . S
Cd240 O248 2.223 . S
Cd240 O250 2.297 . S
Cd240 O251 2.439 . S
O241 Cd240 2.240 . S
O241 C246 1.279 . S
O242 Cd239 2.297 . S
O242 C244 1.247 . S
O243 Cd239 2.439 . S
O243 C244 1.208 . S
C244 O242 1.247 . S
C244 O243 1.208 . S
C245 O250 1.247 . S
C245 O251 1.208 . S
C246 O238 1.315 . S
C246 O241 1.279 . S
C247 O248 1.315 . S
C247 O249 1.279 . S
O248 Cd240 2.223 . S
O248 C247 1.315 . S
O249 Cd239 2.240 . S
O249 C247 1.279 . S
O250 Cd240 2.297 . S
O250 C245 1.247 . S
O251 Cd240 2.439 . S
O251 C245 1.208 . S
O252 Cd253 2.223 . S
O252 C260 1.315 . S
Cd253 O252 2.223 . S
Cd253 O256 2.297 . S
Cd253 O257 2.439 . S
Cd253 O263 2.240 . S
Cd254 O255 2.240 . S
Cd254 O262 2.223 . S
Cd254 O264 2.297 . S
Cd254 O265 2.439 . S
O255 Cd254 2.240 . S
O255 C260 1.279 . S
O256 Cd253 2.297 . S
O256 C258 1.247 . S
O257 Cd253 2.439 . S
O257 C258 1.208 . S
C258 O256 1.247 . S
C258 O257 1.208 . S
C259 O264 1.247 . S
C259 O265 1.208 . S
C260 O252 1.315 . S
C260 O255 1.279 . S
C261 O262 1.315 . S
C261 O263 1.279 . S
O262 Cd254 2.223 . S
O262 C261 1.315 . S
O263 Cd253 2.240 . S
O263 C261 1.279 . S
O264 Cd254 2.297 . S
O264 C259 1.247 . S
O265 Cd254 2.439 . S
O265 C259 1.208 . S
O266 Cd267 2.223 . S
O266 C274 1.315 . S
Cd267 O266 2.223 . S
Cd267 O270 2.297 . S
Cd267 O271 2.439 . S
Cd267 O277 2.240 . S
Cd268 O269 2.240 . S
Cd268 O276 2.223 . S
Cd268 O278 2.297 . S
Cd268 O279 2.439 . S
O269 Cd268 2.240 . S
O269 C274 1.279 . S
O270 Cd267 2.297 . S
O270 C272 1.247 . S
O271 Cd267 2.439 . S
O271 C272 1.208 . S
C272 O270 1.247 . S
C272 O271 1.208 . S
C273 O278 1.247 . S
C273 O279 1.208 . S
C274 O266 1.315 . S
C274 O269 1.279 . S
C275 O276 1.315 . S
C275 O277 1.279 . S
O276 Cd268 2.223 . S
O276 C275 1.315 . S
O277 Cd267 2.240 . S
O277 C275 1.279 . S
O278 Cd268 2.297 . S
O278 C273 1.247 . S
O279 Cd268 2.439 . S
O279 C273 1.208 . S
O280 Cd281 2.223 . S
O280 C288 1.315 . S
Cd281 O280 2.223 . S
Cd281 O284 2.297 . S
Cd281 O285 2.439 . S
Cd281 O291 2.240 1_565 S
Cd282 O283 2.236 . S
Cd282 O290 2.223 . S
Cd282 O292 2.297 . S
Cd282 O293 2.439 . S
O283 Cd282 2.236 . S
O283 C288 1.280 1_545 S
O284 Cd281 2.297 . S
O284 C286 1.247 . S
O285 Cd281 2.439 . S
O285 C286 1.208 . S
C286 O284 1.247 . S
C286 O285 1.208 . S
C287 O292 1.247 . S
C287 O293 1.208 . S
C288 O280 1.315 . S
C288 O283 1.280 1_565 S
C289 O290 1.315 . S
C289 O291 1.279 . S
O290 Cd282 2.223 . S
O290 C289 1.315 . S
O291 Cd281 2.240 1_545 S
O291 C289 1.279 . S
O292 Cd282 2.297 . S
O292 C287 1.247 . S
O293 Cd282 2.439 . S
O293 C287 1.208 . S
O294 Cd295 2.223 . S
O294 C302 1.315 . S
Cd295 O294 2.223 . S
Cd295 O298 2.297 . S
Cd295 O299 2.439 . S
Cd295 O305 2.240 . S
Cd296 O297 2.240 . S
Cd296 O304 2.223 . S
Cd296 O306 2.297 . S
Cd296 O307 2.439 . S
O297 Cd296 2.240 . S
O297 C302 1.279 . S
O298 Cd295 2.297 . S
O298 C300 1.247 . S
O299 Cd295 2.439 . S
O299 C300 1.208 . S
C300 O298 1.247 . S
C300 O299 1.208 . S
C301 O306 1.247 . S
C301 O307 1.208 . S
C302 O294 1.315 . S
C302 O297 1.279 . S
C303 O304 1.315 . S
C303 O305 1.279 . S
O304 Cd296 2.223 . S
O304 C303 1.315 . S
O305 Cd295 2.240 . S
O305 C303 1.279 . S
O306 Cd296 2.297 . S
O306 C301 1.247 . S
O307 Cd296 2.439 . S
O307 C301 1.208 . S
O308 Cd309 2.223 . S
O308 C316 1.315 . S
Cd309 O308 2.223 . S
Cd309 O312 2.297 . S
Cd309 O313 2.439 . S
Cd309 O319 2.240 . S
Cd310 O311 2.240 . S
Cd310 O318 2.223 . S
Cd310 O320 2.297 . S
Cd310 O321 2.439 . S
O311 Cd310 2.240 . S
O311 C316 1.279 . S
O312 Cd309 2.297 . S
O312 C314 1.247 . S
O313 Cd309 2.439 . S
O313 C314 1.208 . S
C314 O312 1.247 . S
C314 O313 1.208 . S
C315 O320 1.247 . S
C315 O321 1.208 . S
C316 O308 1.315 . S
C316 O311 1.279 . S
C317 O318 1.315 . S
C317 O319 1.279 . S
O318 Cd310 2.223 . S
O318 C317 1.315 . S
O319 Cd309 2.240 . S
O319 C317 1.279 . S
O320 Cd310 2.297 . S
O320 C315 1.247 . S
O321 Cd310 2.439 . S
O321 C315 1.208 . S
O322 Cd323 2.223 . S
O322 C330 1.315 . S
Cd323 O322 2.223 . S
Cd323 O326 2.297 . S
Cd323 O327 2.439 . S
Cd323 O333 2.240 . S
Cd324 O325 2.240 . S
Cd324 O332 2.223 . S
Cd324 O334 2.297 . S
Cd324 O335 2.439 . S
O325 Cd324 2.240 . S
O325 C330 1.279 . S
O326 Cd323 2.297 . S
O326 C328 1.247 . S
O327 Cd323 2.439 . S
O327 C328 1.208 . S
C328 O326 1.247 . S
C328 O327 1.208 . S
C329 O334 1.247 . S
C329 O335 1.208 . S
C330 O322 1.315 . S
C330 O325 1.279 . S
C331 O332 1.315 . S
C331 O333 1.279 . S
O332 Cd324 2.223 . S
O332 C331 1.315 . S
O333 Cd323 2.240 . S
O333 C331 1.279 . S
O334 Cd324 2.297 . S
O334 C329 1.247 . S
O335 Cd324 2.439 . S
O335 C329 1.208 . S
O336 Cd337 2.223 . S
O336 C344 1.315 . S
Cd337 O336 2.223 . S
Cd337 O340 2.297 . S
Cd337 O341 2.439 . S
Cd337 O347 2.240 . S
Cd338 O339 2.240 . S
Cd338 O346 2.223 . S
Cd338 O348 2.297 . S
Cd338 O349 2.439 . S
O339 Cd338 2.240 . S
O339 C344 1.279 . S
O340 Cd337 2.297 . S
O340 C342 1.247 . S
O341 Cd337 2.439 . S
O341 C342 1.208 . S
C342 O340 1.247 . S
C342 O341 1.208 . S
C343 O348 1.247 . S
C343 O349 1.208 . S
C344 O336 1.315 . S
C344 O339 1.279 . S
C345 O346 1.315 . S
C345 O347 1.279 . S
O346 Cd338 2.223 . S
O346 C345 1.315 . S
O347 Cd337 2.240 . S
O347 C345 1.279 . S
O348 Cd338 2.297 . S
O348 C343 1.247 . S
O349 Cd338 2.439 . S
O349 C343 1.208 . S
O350 Cd351 2.223 . S
O350 C358 1.315 . S
Cd351 O350 2.223 . S
Cd351 O354 2.297 . S
Cd351 O355 2.439 . S
Cd351 O361 2.240 . S
Cd352 O353 2.240 . S
Cd352 O360 2.223 . S
Cd352 O362 2.297 . S
Cd352 O363 2.439 . S
O353 Cd352 2.240 . S
O353 C358 1.279 . S
O354 Cd351 2.297 . S
O354 C356 1.247 . S
O355 Cd351 2.439 . S
O355 C356 1.208 . S
C356 O354 1.247 . S
C356 O355 1.208 . S
C357 O362 1.247 . S
C357 O363 1.208 . S
C358 O350 1.315 . S
C358 O353 1.279 . S
C359 O360 1.315 . S
C359 O361 1.279 . S
O360 Cd352 2.223 . S
O360 C359 1.315 . S
O361 Cd351 2.240 . S
O361 C359 1.279 . S
O362 Cd352 2.297 . S
O362 C357 1.247 . S
O363 Cd352 2.439 . S
O363 C357 1.208 . S
O364 Cd365 2.223 . S
O364 C372 1.315 . S
Cd365 O364 2.223 . S
Cd365 O368 2.297 . S
Cd365 O369 2.439 . S
Cd365 O375 2.240 . S
Cd366 O367 2.240 . S
Cd366 O374 2.223 . S
Cd366 O376 2.297 . S
Cd366 O377 2.439 . S
O367 Cd366 2.240 . S
O367 C372 1.279 . S
O368 Cd365 2.297 . S
O368 C370 1.247 . S
O369 Cd365 2.439 . S
O369 C370 1.208 . S
C370 O368 1.247 . S
C370 O369 1.208 . S
C371 O376 1.247 . S
C371 O377 1.208 . S
C372 O364 1.315 . S
C372 O367 1.279 . S
C373 O374 1.315 . S
C373 O375 1.279 . S
O374 Cd366 2.223 . S
O374 C373 1.315 . S
O375 Cd365 2.240 . S
O375 C373 1.279 . S
O376 Cd366 2.297 . S
O376 C371 1.247 . S
O377 Cd366 2.439 . S
O377 C371 1.208 . S
O378 Cd379 2.223 . S
O378 C386 1.315 . S
Cd379 O378 2.223 . S
Cd379 O382 2.297 . S
Cd379 O383 2.439 . S
Cd379 O389 2.240 . S
Cd380 O381 2.240 . S
Cd380 O388 2.223 . S
Cd380 O390 2.297 . S
Cd380 O391 2.439 . S
O381 Cd380 2.240 . S
O381 C386 1.279 . S
O382 Cd379 2.297 . S
O382 C384 1.247 . S
O383 Cd379 2.439 . S
O383 C384 1.208 . S
C384 O382 1.247 . S
C384 O383 1.208 . S
C385 O390 1.247 . S
C385 O391 1.208 . S
C386 O378 1.315 . S
C386 O381 1.279 . S
C387 O388 1.315 . S
C387 O389 1.279 . S
O388 Cd380 2.223 . S
O388 C387 1.315 . S
O389 Cd379 2.240 . S
O389 C387 1.279 . S
O390 Cd380 2.297 . S
O390 C385 1.247 . S
O391 Cd380 2.439 . S
O391 C385 1.208 . S
O392 Cd393 2.223 . S
O392 C400 1.315 . S
Cd393 O392 2.223 . S
Cd393 O396 2.297 . S
Cd393 O397 2.439 . S
Cd393 O403 2.240 . S
Cd394 O395 2.240 . S
Cd394 O402 2.223 . S
Cd394 O404 2.297 . S
Cd394 O405 2.439 . S
O395 Cd394 2.240 . S
O395 C400 1.279 . S
O396 Cd393 2.297 . S
O396 C398 1.247 . S
O397 Cd393 2.439 . S
O397 C398 1.208 . S
C398 O396 1.247 . S
C398 O397 1.208 . S
C399 O404 1.247 . S
C399 O405 1.208 . S
C400 O392 1.315 . S
C400 O395 1.279 . S
C401 O402 1.315 . S
C401 O403 1.279 . S
O402 Cd394 2.223 . S
O402 C401 1.315 . S
O403 Cd393 2.240 . S
O403 C401 1.279 . S
O404 Cd394 2.297 . S
O404 C399 1.247 . S
O405 Cd394 2.439 . S
O405 C399 1.208 . S
O406 Cd407 2.223 . S
O406 C414 1.315 . S
Cd407 O406 2.223 . S
Cd407 O410 2.297 . S
Cd407 O411 2.439 . S
Cd407 O417 2.240 . S
Cd408 O409 2.240 . S
Cd408 O416 2.223 . S
Cd408 O418 2.297 . S
Cd408 O419 2.439 . S
O409 Cd408 2.240 . S
O409 C414 1.279 . S
O410 Cd407 2.297 . S
O410 C412 1.247 . S
O411 Cd407 2.439 . S
O411 C412 1.208 . S
C412 O410 1.247 . S
C412 O411 1.208 . S
C413 O418 1.247 . S
C413 O419 1.208 . S
C414 O406 1.315 . S
C414 O409 1.279 . S
C415 O416 1.315 . S
C415 O417 1.279 . S
O416 Cd408 2.223 . S
O416 C415 1.315 . S
O417 Cd407 2.240 . S
O417 C415 1.279 . S
O418 Cd408 2.297 . S
O418 C413 1.247 . S
O419 Cd408 2.439 . S
O419 C413 1.208 . S
O420 Cd421 2.223 . S
O420 C428 1.315 . S
Cd421 O420 2.223 . S
Cd421 O424 2.297 . S
Cd421 O425 2.439 . S
Cd421 O431 2.240 . S
Cd422 O423 2.240 . S
Cd422 O430 2.223 . S
Cd422 O432 2.297 . S
Cd422 O433 2.439 . S
O423 Cd422 2.240 . S
O423 C428 1.279 . S
O424 Cd421 2.297 . S
O424 C426 1.247 . S
O425 Cd421 2.439 . S
O425 C426 1.208 . S
C426 O424 1.247 . S
C426 O425 1.208 . S
C427 O432 1.247 . S
C427 O433 1.208 . S
C428 O420 1.315 . S
C428 O423 1.279 . S
C429 O430 1.315 . S
C429 O431 1.279 . S
O430 Cd422 2.223 . S
O430 C429 1.315 . S
O431 Cd421 2.240 . S
O431 C429 1.279 . S
O432 Cd422 2.297 . S
O432 C427 1.247 . S
O433 Cd422 2.439 . S
O433 C427 1.208 . S
O434 Cd435 2.223 . S
O434 C442 1.315 . S
Cd435 O434 2.223 . S
Cd435 O438 2.297 . S
Cd435 O439 2.439 . S
Cd435 O445 2.240 . S
Cd436 O437 2.240 . S
Cd436 O444 2.223 . S
Cd436 O446 2.297 . S
Cd436 O447 2.439 . S
O437 Cd436 2.240 . S
O437 C442 1.279 . S
O438 Cd435 2.297 . S
O438 C440 1.247 . S
O439 Cd435 2.439 . S
O439 C440 1.208 . S
C440 O438 1.247 . S
C440 O439 1.208 . S
C441 O446 1.247 . S
C441 O447 1.208 . S
C442 O434 1.315 . S
C442 O437 1.279 . S
C443 O444 1.315 . S
C443 O445 1.279 . S
O444 Cd436 2.223 . S
O444 C443 1.315 . S
O445 Cd435 2.240 . S
O445 C443 1.279 . S
O446 Cd436 2.297 . S
O446 C441 1.247 . S
O447 Cd436 2.439 . S
O447 C441 1.208 . S
O448 Cd449 2.223 . S
O448 C456 1.315 . S
Cd449 O448 2.223 . S
Cd449 O452 2.297 . S
Cd449 O453 2.439 . S
Cd449 O459 2.240 . S
Cd450 O451 2.240 . S
Cd450 O458 2.223 . S
Cd450 O460 2.297 . S
Cd450 O461 2.439 . S
O451 Cd450 2.240 . S
O451 C456 1.279 . S
O452 Cd449 2.297 . S
O452 C454 1.247 . S
O453 Cd449 2.439 . S
O453 C454 1.208 . S
C454 O452 1.247 . S
C454 O453 1.208 . S
C455 O460 1.247 . S
C455 O461 1.208 . S
C456 O448 1.315 . S
C456 O451 1.279 . S
C457 O458 1.315 . S
C457 O459 1.279 . S
O458 Cd450 2.223 . S
O458 C457 1.315 . S
O459 Cd449 2.240 . S
O459 C457 1.279 . S
O460 Cd450 2.297 . S
O460 C455 1.247 . S
O461 Cd450 2.439 . S
O461 C455 1.208 . S
O462 Cd463 2.223 . S
O462 C470 1.315 . S
Cd463 O462 2.223 . S
Cd463 O466 2.297 . S
Cd463 O467 2.439 . S
Cd463 O473 2.240 . S
Cd464 O465 2.240 . S
Cd464 O472 2.223 . S
Cd464 O474 2.297 . S
Cd464 O475 2.439 . S
O465 Cd464 2.240 . S
O465 C470 1.279 . S
O466 Cd463 2.297 . S
O466 C468 1.247 . S
O467 Cd463 2.439 . S
O467 C468 1.208 . S
C468 O466 1.247 . S
C468 O467 1.208 . S
C469 O474 1.247 . S
C469 O475 1.208 . S
C470 O462 1.315 . S
C470 O465 1.279 . S
C471 O472 1.315 . S
C471 O473 1.279 . S
O472 Cd464 2.223 . S
O472 C471 1.315 . S
O473 Cd463 2.240 . S
O473 C471 1.279 . S
O474 Cd464 2.297 . S
O474 C469 1.247 . S
O475 Cd464 2.439 . S
O475 C469 1.208 . S
O476 Cd477 2.223 . S
O476 C484 1.315 . S
Cd477 O476 2.223 . S
Cd477 O480 2.297 . S
Cd477 O481 2.439 . S
Cd477 O487 2.240 . S
Cd478 O479 2.240 . S
Cd478 O486 2.223 . S
Cd478 O488 2.297 . S
Cd478 O489 2.439 . S
O479 Cd478 2.240 . S
O479 C484 1.279 . S
O480 Cd477 2.297 . S
O480 C482 1.247 . S
O481 Cd477 2.439 . S
O481 C482 1.208 . S
C482 O480 1.247 . S
C482 O481 1.208 . S
C483 O488 1.247 . S
C483 O489 1.208 . S
C484 O476 1.315 . S
C484 O479 1.279 . S
C485 O486 1.315 . S
C485 O487 1.279 . S
O486 Cd478 2.223 . S
O486 C485 1.315 . S
O487 Cd477 2.240 . S
O487 C485 1.279 . S
O488 Cd478 2.297 . S
O488 C483 1.247 . S
O489 Cd478 2.439 . S
O489 C483 1.208 . S
O490 Cd491 2.223 . S
O490 C498 1.315 . S
Cd491 O490 2.223 . S
Cd491 O494 2.297 . S
Cd491 O495 2.439 . S
Cd491 O501 2.240 . S
Cd492 O493 2.240 . S
Cd492 O500 2.223 . S
Cd492 O502 2.297 . S
Cd492 O503 2.439 . S
O493 Cd492 2.240 . S
O493 C498 1.279 . S
O494 Cd491 2.297 . S
O494 C496 1.247 . S
O495 Cd491 2.439 . S
O495 C496 1.208 . S
C496 O494 1.247 . S
C496 O495 1.208 . S
C497 O502 1.247 . S
C497 O503 1.208 . S
C498 O490 1.315 . S
C498 O493 1.279 . S
C499 O500 1.315 . S
C499 O501 1.279 . S
O500 Cd492 2.223 . S
O500 C499 1.315 . S
O501 Cd491 2.240 . S
O501 C499 1.279 . S
O502 Cd492 2.297 . S
O502 C497 1.247 . S
O503 Cd492 2.439 . S
O503 C497 1.208 . S
O504 Cd505 2.223 . S
O504 C512 1.315 . S
Cd505 O504 2.223 . S
Cd505 O508 2.297 . S
Cd505 O509 2.439 . S
Cd505 O515 2.240 . S
Cd506 O507 2.240 . S
Cd506 O514 2.223 . S
Cd506 O516 2.297 . S
Cd506 O517 2.439 . S
O507 Cd506 2.240 . S
O507 C512 1.279 . S
O508 Cd505 2.297 . S
O508 C510 1.247 . S
O509 Cd505 2.439 . S
O509 C510 1.208 . S
C510 O508 1.247 . S
C510 O509 1.208 . S
C511 O516 1.247 . S
C511 O517 1.208 . S
C512 O504 1.315 . S
C512 O507 1.279 . S
C513 O514 1.315 . S
C513 O515 1.279 . S
O514 Cd506 2.223 . S
O514 C513 1.315 . S
O515 Cd505 2.240 . S
O515 C513 1.279 . S
O516 Cd506 2.297 . S
O516 C511 1.247 . S
O517 Cd506 2.439 . S
O517 C511 1.208 . S
O518 Cd519 2.223 . S
O518 C526 1.315 . S
Cd519 O518 2.223 . S
Cd519 O522 2.297 . S
Cd519 O523 2.439 . S
Cd519 O529 2.240 1_556 S
Cd520 O521 2.239 1_554 S
Cd520 O528 2.223 . S
Cd520 O530 2.297 . S
Cd520 O531 2.439 . S
O521 Cd520 2.239 1_556 S
O521 C526 1.279 . S
O522 Cd519 2.297 . S
O522 C524 1.247 . S
O523 Cd519 2.439 . S
O523 C524 1.208 . S
C524 O522 1.247 . S
C524 O523 1.208 . S
C525 O530 1.247 . S
C525 O531 1.208 . S
C526 O518 1.315 . S
C526 O521 1.279 . S
C527 O528 1.315 . S
C527 O529 1.279 . S
O528 Cd520 2.223 . S
O528 C527 1.315 . S
O529 Cd519 2.240 1_554 S
O529 C527 1.279 . S
O530 Cd520 2.297 . S
O530 C525 1.247 . S
O531 Cd520 2.439 . S
O531 C525 1.208 . S
O532 Cd533 2.223 . S
O532 C540 1.315 . S
Cd533 O532 2.223 . S
Cd533 O536 2.297 . S
Cd533 O537 2.439 . S
Cd533 O543 2.240 . S
Cd534 O535 2.240 . S
Cd534 O542 2.223 . S
Cd534 O544 2.297 . S
Cd534 O545 2.439 . S
O535 Cd534 2.240 . S
O535 C540 1.279 . S
O536 Cd533 2.297 . S
O536 C538 1.247 . S
O537 Cd533 2.439 . S
O537 C538 1.208 . S
C538 O536 1.247 . S
C538 O537 1.208 . S
C539 O544 1.247 . S
C539 O545 1.208 . S
C540 O532 1.315 . S
C540 O535 1.279 . S
C541 O542 1.315 . S
C541 O543 1.279 . S
O542 Cd534 2.223 . S
O542 C541 1.315 . S
O543 Cd533 2.240 . S
O543 C541 1.279 . S
O544 Cd534 2.297 . S
O544 C539 1.247 . S
O545 Cd534 2.439 . S
O545 C539 1.208 . S
O546 Cd547 2.223 . S
O546 C554 1.315 . S
Cd547 O546 2.223 . S
Cd547 O550 2.297 . S
Cd547 O551 2.439 . S
Cd547 O557 2.240 . S
Cd548 O549 2.240 . S
Cd548 O556 2.223 . S
Cd548 O558 2.297 . S
Cd548 O559 2.439 . S
O549 Cd548 2.240 . S
O549 C554 1.279 . S
O550 Cd547 2.297 . S
O550 C552 1.247 . S
O551 Cd547 2.439 . S
O551 C552 1.208 . S
C552 O550 1.247 . S
C552 O551 1.208 . S
C553 O558 1.247 . S
C553 O559 1.208 . S
C554 O546 1.315 . S
C554 O549 1.279 . S
C555 O556 1.315 . S
C555 O557 1.279 . S
O556 Cd548 2.223 . S
O556 C555 1.315 . S
O557 Cd547 2.240 . S
O557 C555 1.279 . S
O558 Cd548 2.297 . S
O558 C553 1.247 . S
O559 Cd548 2.439 . S
O559 C553 1.208 . S
O560 Cd561 2.223 . S
O560 C568 1.315 . S
Cd561 O560 2.223 . S
Cd561 O564 2.297 . S
Cd561 O565 2.439 . S
Cd561 O571 2.240 . S
Cd562 O563 2.240 . S
Cd562 O570 2.223 . S
Cd562 O572 2.297 . S
Cd562 O573 2.439 . S
O563 Cd562 2.240 . S
O563 C568 1.279 . S
O564 Cd561 2.297 . S
O564 C566 1.247 . S
O565 Cd561 2.439 . S
O565 C566 1.208 . S
C566 O564 1.247 . S
C566 O565 1.208 . S
C567 O572 1.247 . S
C567 O573 1.208 . S
C568 O560 1.315 . S
C568 O563 1.279 . S
C569 O570 1.315 . S
C569 O571 1.279 . S
O570 Cd562 2.223 . S
O570 C569 1.315 . S
O571 Cd561 2.240 . S
O571 C569 1.279 . S
O572 Cd562 2.297 . S
O572 C567 1.247 . S
O573 Cd562 2.439 . S
O573 C567 1.208 . S
O574 Cd575 2.223 . S
O574 C582 1.315 . S
Cd575 O574 2.223 . S
Cd575 O578 2.297 . S
Cd575 O579 2.439 . S
Cd575 O585 2.240 . S
Cd576 O577 2.240 . S
Cd576 O584 2.223 . S
Cd576 O586 2.297 . S
Cd576 O587 2.439 . S
O577 Cd576 2.240 . S
O577 C582 1.279 . S
O578 Cd575 2.297 . S
O578 C580 1.247 . S
O579 Cd575 2.439 . S
O579 C580 1.208 . S
C580 O578 1.247 . S
C580 O579 1.208 . S
C581 O586 1.247 . S
C581 O587 1.208 . S
C582 O574 1.315 . S
C582 O577 1.279 . S
C583 O584 1.315 . S
C583 O585 1.279 . S
O584 Cd576 2.223 . S
O584 C583 1.315 . S
O585 Cd575 2.240 . S
O585 C583 1.279 . S
O586 Cd576 2.297 . S
O586 C581 1.247 . S
O587 Cd576 2.439 . S
O587 C581 1.208 . S
O588 Cd589 2.223 . S
O588 C596 1.315 . S
Cd589 O588 2.223 . S
Cd589 O592 2.297 . S
Cd589 O593 2.439 . S
Cd589 O599 2.240 . S
Cd590 O591 2.240 . S
Cd590 O598 2.223 . S
Cd590 O600 2.297 . S
Cd590 O601 2.439 . S
O591 Cd590 2.240 . S
O591 C596 1.279 . S
O592 Cd589 2.297 . S
O592 C594 1.247 . S
O593 Cd589 2.439 . S
O593 C594 1.208 . S
C594 O592 1.247 . S
C594 O593 1.208 . S
C595 O600 1.247 . S
C595 O601 1.208 . S
C596 O588 1.315 . S
C596 O591 1.279 . S
C597 O598 1.315 . S
C597 O599 1.279 . S
O598 Cd590 2.223 . S
O598 C597 1.315 . S
O599 Cd589 2.240 . S
O599 C597 1.279 . S
O600 Cd590 2.297 . S
O600 C595 1.247 . S
O601 Cd590 2.439 . S
O601 C595 1.208 . S
O602 Cd603 2.223 . S
O602 C610 1.315 . S
Cd603 O602 2.223 . S
Cd603 O606 2.297 . S
Cd603 O607 2.439 . S
Cd603 O613 2.240 . S
Cd604 O605 2.240 . S
Cd604 O612 2.223 . S
Cd604 O614 2.297 . S
Cd604 O615 2.439 . S
O605 Cd604 2.240 . S
O605 C610 1.279 . S
O606 Cd603 2.297 . S
O606 C608 1.247 . S
O607 Cd603 2.439 . S
O607 C608 1.208 . S
C608 O606 1.247 . S
C608 O607 1.208 . S
C609 O614 1.247 . S
C609 O615 1.208 . S
C610 O602 1.315 . S
C610 O605 1.279 . S
C611 O612 1.315 . S
C611 O613 1.279 . S
O612 Cd604 2.223 . S
O612 C611 1.315 . S
O613 Cd603 2.240 . S
O613 C611 1.279 . S
O614 Cd604 2.297 . S
O614 C609 1.247 . S
O615 Cd604 2.439 . S
O615 C609 1.208 . S
O616 Cd617 2.223 . S
O616 C624 1.315 . S
Cd617 O616 2.223 . S
Cd617 O620 2.297 . S
Cd617 O621 2.439 . S
Cd617 O627 2.240 . S
Cd618 O619 2.240 . S
Cd618 O626 2.223 . S
Cd618 O628 2.297 . S
Cd618 O629 2.439 . S
O619 Cd618 2.240 . S
O619 C624 1.279 . S
O620 Cd617 2.297 . S
O620 C622 1.247 . S
O621 Cd617 2.439 . S
O621 C622 1.208 . S
C622 O620 1.247 . S
C622 O621 1.208 . S
C623 O628 1.247 . S
C623 O629 1.208 . S
C624 O616 1.315 . S
C624 O619 1.279 . S
C625 O626 1.315 . S
C625 O627 1.279 . S
O626 Cd618 2.223 . S
O626 C625 1.315 . S
O627 Cd617 2.240 . S
O627 C625 1.279 . S
O628 Cd618 2.297 . S
O628 C623 1.247 . S
O629 Cd618 2.439 . S
O629 C623 1.208 . S
O630 Cd631 2.223 1_556 S
O630 C638 1.315 . S
Cd631 O630 2.223 1_554 S
Cd631 O634 2.297 1_554 S
Cd631 O635 2.439 1_554 S
Cd631 O641 2.240 . S
Cd632 O633 2.240 . S
Cd632 O640 2.223 1_556 S
Cd632 O642 2.297 1_556 S
Cd632 O643 2.439 1_556 S
O633 Cd632 2.240 . S
O633 C638 1.279 . S
O634 Cd631 2.297 1_556 S
O634 C636 1.247 . S
O635 Cd631 2.439 1_556 S
O635 C636 1.208 . S
C636 O634 1.247 . S
C636 O635 1.208 . S
C637 O642 1.247 . S
C637 O643 1.208 . S
C638 O630 1.315 . S
C638 O633 1.279 . S
C639 O640 1.315 . S
C639 O641 1.279 . S
O640 Cd632 2.223 1_554 S
O640 C639 1.315 . S
O641 Cd631 2.240 . S
O641 C639 1.279 . S
O642 Cd632 2.297 1_554 S
O642 C637 1.247 . S
O643 Cd632 2.439 1_554 S
O643 C637 1.208 . S
O644 Cd645 2.223 . S
O644 C652 1.315 . S
Cd645 O644 2.223 . S
Cd645 O648 2.297 . S
Cd645 O649 2.439 . S
Cd645 O655 2.240 1_565 S
Cd646 O647 2.239 1_545 S
Cd646 O654 2.223 . S
Cd646 O656 2.297 . S
Cd646 O657 2.439 . S
O647 Cd646 2.239 1_565 S
O647 C652 1.279 . S
O648 Cd645 2.297 . S
O648 C650 1.247 . S
O649 Cd645 2.439 . S
O649 C650 1.208 . S
C650 O648 1.247 . S
C650 O649 1.208 . S
C651 O656 1.247 . S
C651 O657 1.208 . S
C652 O644 1.315 . S
C652 O647 1.279 . S
C653 O654 1.315 . S
C653 O655 1.279 . S
O654 Cd646 2.223 . S
O654 C653 1.315 . S
O655 Cd645 2.240 1_545 S
O655 C653 1.279 . S
O656 Cd646 2.297 . S
O656 C651 1.247 . S
O657 Cd646 2.439 . S
O657 C651 1.208 . S
O658 Cd659 2.223 . S
O658 C666 1.315 . S
Cd659 O658 2.223 . S
Cd659 O662 2.297 . S
Cd659 O663 2.439 . S
Cd659 O669 2.240 . S
Cd660 O661 2.240 . S
Cd660 O668 2.223 . S
Cd660 O670 2.297 . S
Cd660 O671 2.439 . S
O661 Cd660 2.240 . S
O661 C666 1.279 . S
O662 Cd659 2.297 . S
O662 C664 1.247 . S
O663 Cd659 2.439 . S
O663 C664 1.208 . S
C664 O662 1.247 . S
C664 O663 1.208 . S
C665 O670 1.247 . S
C665 O671 1.208 . S
C666 O658 1.315 . S
C666 O661 1.279 . S
C667 O668 1.315 . S
C667 O669 1.279 . S
O668 Cd660 2.223 . S
O668 C667 1.315 . S
O669 Cd659 2.240 . S
O669 C667 1.279 . S
O670 Cd660 2.297 . S
O670 C665 1.247 . S
O671 Cd660 2.439 . S
O671 C665 1.208 . S
H672 C680 0.929 1_655 S
H673 C682 0.930 . S
H674 C684 0.930 . S
H675 C687 0.929 . S
H676 C690 0.930 . S
H677 C692 0.960 . S
H678 C692 0.960 . S
H679 C692 0.960 . S
C680 H672 0.929 1_455 S
C680 C681 1.377 . S
C680 C682 1.384 . S
C681 C680 1.377 . S
C681 C687 1.390 . S
C682 H673 0.930 . S
C682 C680 1.384 . S
C682 C683 1.372 . S
C683 C682 1.372 . S
C683 C684 1.400 . S
C683 C688 1.490 . S
C684 H674 0.930 . S
C684 C683 1.400 . S
C684 C687 1.386 . S
H685 C701 0.930 . S
H686 C702 0.931 . S
C687 H675 0.929 . S
C687 C681 1.390 . S
C687 C684 1.386 . S
C688 C683 1.490 . S
C688 C690 1.395 . S
C688 C691 1.403 . S
H689 C695 0.930 . S
C690 H676 0.930 . S
C690 C688 1.395 . S
C690 C693 1.403 . S
C691 C688 1.403 . S
C691 C692 1.524 . S
C691 C695 1.400 . S
C692 H677 0.960 . S
C692 H678 0.960 . S
C692 H679 0.960 . S
C692 C691 1.524 . S
C693 C690 1.403 . S
C693 C694 1.392 . S
C693 C697 1.495 . S
C694 C693 1.392 . S
C694 C695 1.385 . S
C694 C696 1.478 . S
C695 H689 0.930 . S
C695 C691 1.400 . S
C695 C694 1.385 . S
C696 C694 1.478 . S
C696 C698 1.381 . S
C696 C702 1.383 . S
C697 C693 1.495 . S
C697 H703 0.959 . S
C697 H704 0.961 . S
C697 H705 0.960 . S
C698 C696 1.381 . S
C698 C699 1.394 . S
C698 H706 0.930 . S
C699 C698 1.394 . S
C699 C700 1.383 . S
C699 H707 0.929 . S
C700 C699 1.383 . S
C700 C701 1.377 . S
C701 H685 0.930 . S
C701 C700 1.377 . S
C701 C702 1.379 . S
C702 H686 0.931 . S
C702 C696 1.383 . S
C702 C701 1.379 . S
H703 C697 0.959 . S
H704 C697 0.961 . S
H705 C697 0.960 . S
H706 C698 0.930 . S
H707 C699 0.929 . S
H708 C716 0.929 . S
H709 C718 0.930 . S
H710 C720 0.930 . S
H711 C723 0.929 . S
H712 C726 0.930 . S
H713 C728 0.960 . S
H714 C728 0.960 . S
H715 C728 0.960 . S
C716 H708 0.929 . S
C716 C717 1.377 . S
C716 C718 1.384 . S
C717 C716 1.377 . S
C717 C723 1.390 . S
C718 H709 0.930 . S
C718 C716 1.384 . S
C718 C719 1.372 . S
C719 C718 1.372 . S
C719 C720 1.400 . S
C719 C724 1.490 . S
C720 H710 0.930 . S
C720 C719 1.400 . S
C720 C723 1.386 . S
H721 C737 0.930 . S
H722 C738 0.931 . S
C723 H711 0.929 . S
C723 C717 1.390 . S
C723 C720 1.386 . S
C724 C719 1.490 . S
C724 C726 1.395 . S
C724 C727 1.403 . S
H725 C731 0.930 . S
C726 H712 0.930 . S
C726 C724 1.395 . S
C726 C729 1.403 . S
C727 C724 1.403 . S
C727 C728 1.524 . S
C727 C731 1.400 . S
C728 H713 0.960 . S
C728 H714 0.960 . S
C728 H715 0.960 . S
C728 C727 1.524 . S
C729 C726 1.403 . S
C729 C730 1.392 . S
C729 C733 1.495 . S
C730 C729 1.392 . S
C730 C731 1.385 . S
C730 C732 1.478 . S
C731 H725 0.930 . S
C731 C727 1.400 . S
C731 C730 1.385 . S
C732 C730 1.478 . S
C732 C734 1.381 . S
C732 C738 1.383 . S
C733 C729 1.495 . S
C733 H739 0.959 . S
C733 H740 0.961 . S
C733 H741 0.960 . S
C734 C732 1.381 . S
C734 C735 1.394 . S
C734 H742 0.930 . S
C735 C734 1.394 . S
C735 C736 1.383 . S
C735 H743 0.929 . S
C736 C735 1.383 . S
C736 C737 1.377 . S
C737 H721 0.930 . S
C737 C736 1.377 . S
C737 C738 1.379 . S
C738 H722 0.931 . S
C738 C732 1.383 . S
C738 C737 1.379 . S
H739 C733 0.959 . S
H740 C733 0.961 . S
H741 C733 0.960 . S
H742 C734 0.930 . S
H743 C735 0.929 . S
H744 C752 0.929 . S
H745 C754 0.930 . S
H746 C756 0.930 . S
H747 C759 0.929 . S
H748 C762 0.930 . S
H749 C764 0.960 . S
H750 C764 0.960 . S
H751 C764 0.960 . S
C752 H744 0.929 . S
C752 C753 1.377 . S
C752 C754 1.384 . S
C753 C752 1.377 . S
C753 C759 1.390 . S
C754 H745 0.930 . S
C754 C752 1.384 . S
C754 C755 1.372 . S
C755 C754 1.372 . S
C755 C756 1.400 . S
C755 C760 1.490 . S
C756 H746 0.930 . S
C756 C755 1.400 . S
C756 C759 1.386 . S
H757 C773 0.930 . S
H758 C774 0.931 . S
C759 H747 0.929 . S
C759 C753 1.390 . S
C759 C756 1.386 . S
C760 C755 1.490 . S
C760 C762 1.395 . S
C760 C763 1.403 . S
H761 C767 0.930 . S
C762 H748 0.930 . S
C762 C760 1.395 . S
C762 C765 1.403 . S
C763 C760 1.403 . S
C763 C764 1.524 . S
C763 C767 1.400 . S
C764 H749 0.960 . S
C764 H750 0.960 . S
C764 H751 0.960 . S
C764 C763 1.524 . S
C765 C762 1.403 . S
C765 C766 1.392 . S
C765 C769 1.495 . S
C766 C765 1.392 . S
C766 C767 1.385 . S
C766 C768 1.478 . S
C767 H761 0.930 . S
C767 C763 1.400 . S
C767 C766 1.385 . S
C768 C766 1.478 . S
C768 C770 1.381 . S
C768 C774 1.383 . S
C769 C765 1.495 . S
C769 H775 0.959 . S
C769 H776 0.961 . S
C769 H777 0.960 . S
C770 C768 1.381 . S
C770 C771 1.394 . S
C770 H778 0.930 . S
C771 C770 1.394 . S
C771 C772 1.383 . S
C771 H779 0.929 . S
C772 C771 1.383 . S
C772 C773 1.377 . S
C773 H757 0.930 . S
C773 C772 1.377 . S
C773 C774 1.379 . S
C774 H758 0.931 . S
C774 C768 1.383 . S
C774 C773 1.379 . S
H775 C769 0.959 . S
H776 C769 0.961 . S
H777 C769 0.960 . S
H778 C770 0.930 . S
H779 C771 0.929 . S
H780 C788 0.929 1_556 S
H781 C790 0.931 . S
H782 C792 0.930 . S
H783 C795 0.929 . S
H784 C798 0.930 . S
H785 C800 0.960 . S
H786 C800 0.960 . S
H787 C800 0.960 . S
C788 H780 0.929 1_554 S
C788 C789 1.378 . S
C788 C790 1.384 1_554 S
C789 C788 1.378 . S
C789 C795 1.390 . S
C790 H781 0.931 . S
C790 C788 1.384 1_556 S
C790 C791 1.371 1_556 S
C791 C790 1.371 1_554 S
C791 C792 1.400 . S
C791 C796 1.490 . S
C792 H782 0.930 . S
C792 C791 1.400 . S
C792 C795 1.386 . S
H793 C809 0.944 . S
H794 C810 0.930 . S
C795 H783 0.929 . S
C795 C789 1.390 . S
C795 C792 1.386 . S
C796 C791 1.490 . S
C796 C798 1.395 1_554 S
C796 C799 1.403 . S
H797 C803 0.930 . S
C798 H784 0.930 . S
C798 C796 1.395 1_556 S
C798 C801 1.403 . S
C799 C796 1.403 . S
C799 C800 1.524 . S
C799 C803 1.400 . S
C800 H785 0.960 . S
C800 H786 0.960 . S
C800 H787 0.960 . S
C800 C799 1.524 . S
C801 C798 1.403 . S
C801 C802 1.444 . S
C801 C805 1.495 . S
C802 C801 1.444 . S
C802 C803 1.331 1_556 S
C802 C804 1.478 . S
C803 H797 0.930 . S
C803 C799 1.400 . S
C803 C802 1.331 1_554 S
C804 C802 1.478 . S
C804 C806 1.389 . S
C804 C810 1.375 1_556 S
C805 C801 1.495 . S
C805 H811 0.959 . S
C805 H812 0.961 . S
C805 H813 0.960 . S
C806 C804 1.389 . S
C806 C807 1.405 . S
C806 H814 0.930 . S
C807 C806 1.405 . S
C807 C808 1.376 1_556 S
C807 H815 0.939 . S
C808 C807 1.376 1_554 S
C808 C809 1.375 . S
C809 H793 0.944 . S
C809 C808 1.375 . S
C809 C810 1.377 . S
C810 H794 0.930 . S
C810 C804 1.375 1_554 S
C810 C809 1.377 . S
H811 C805 0.959 . S
H812 C805 0.961 . S
H813 C805 0.960 . S
H814 C806 0.930 . S
H815 C807 0.939 . S
H816 C824 0.929 . S
H817 C826 0.930 . S
H818 C828 0.930 . S
H819 C831 0.929 . S
H820 C834 0.930 . S
H821 C836 0.960 . S
H822 C836 0.960 . S
H823 C836 0.960 . S
C824 H816 0.929 . S
C824 C825 1.377 . S
C824 C826 1.384 . S
C825 C824 1.377 . S
C825 C831 1.390 . S
C826 H817 0.930 . S
C826 C824 1.384 . S
C826 C827 1.372 . S
C827 C826 1.372 . S
C827 C828 1.400 . S
C827 C832 1.490 . S
C828 H818 0.930 . S
C828 C827 1.400 . S
C828 C831 1.386 . S
H829 C845 0.930 . S
H830 C846 0.931 . S
C831 H819 0.929 . S
C831 C825 1.390 . S
C831 C828 1.386 . S
C832 C827 1.490 . S
C832 C834 1.395 . S
C832 C835 1.403 . S
H833 C839 0.930 . S
C834 H820 0.930 . S
C834 C832 1.395 . S
C834 C837 1.403 . S
C835 C832 1.403 . S
C835 C836 1.524 . S
C835 C839 1.400 . S
C836 H821 0.960 . S
C836 H822 0.960 . S
C836 H823 0.960 . S
C836 C835 1.524 . S
C837 C834 1.403 . S
C837 C838 1.392 . S
C837 C841 1.495 . S
C838 C837 1.392 . S
C838 C839 1.385 . S
C838 C840 1.478 . S
C839 H833 0.930 . S
C839 C835 1.400 . S
C839 C838 1.385 . S
C840 C838 1.478 . S
C840 C842 1.381 . S
C840 C846 1.383 . S
C841 C837 1.495 . S
C841 H847 0.959 . S
C841 H848 0.961 . S
C841 H849 0.960 . S
C842 C840 1.381 . S
C842 C843 1.394 . S
C842 H850 0.930 . S
C843 C842 1.394 . S
C843 C844 1.383 . S
C843 H851 0.929 . S
C844 C843 1.383 . S
C844 C845 1.377 . S
C845 H829 0.930 . S
C845 C844 1.377 . S
C845 C846 1.379 . S
C846 H830 0.931 . S
C846 C840 1.383 . S
C846 C845 1.379 . S
H847 C841 0.959 . S
H848 C841 0.961 . S
H849 C841 0.960 . S
H850 C842 0.930 . S
H851 C843 0.929 . S
H852 C860 0.929 . S
H853 C862 0.930 . S
H854 C864 0.930 . S
H855 C867 0.929 . S
H856 C870 0.930 . S
H857 C872 0.960 . S
H858 C872 0.960 . S
H859 C872 0.960 . S
C860 H852 0.929 . S
C860 C861 1.377 . S
C860 C862 1.384 . S
C861 C860 1.377 . S
C861 C867 1.390 . S
C862 H853 0.930 . S
C862 C860 1.384 . S
C862 C863 1.372 . S
C863 C862 1.372 . S
C863 C864 1.400 . S
C863 C868 1.490 . S
C864 H854 0.930 . S
C864 C863 1.400 . S
C864 C867 1.386 . S
H865 C881 0.930 . S
H866 C882 0.931 . S
C867 H855 0.929 . S
C867 C861 1.390 . S
C867 C864 1.386 . S
C868 C863 1.490 . S
C868 C870 1.395 . S
C868 C871 1.403 . S
H869 C875 0.930 . S
C870 H856 0.930 . S
C870 C868 1.395 . S
C870 C873 1.403 . S
C871 C868 1.403 . S
C871 C872 1.524 . S
C871 C875 1.400 . S
C872 H857 0.960 . S
C872 H858 0.960 . S
C872 H859 0.960 . S
C872 C871 1.524 . S
C873 C870 1.403 . S
C873 C874 1.392 . S
C873 C877 1.495 . S
C874 C873 1.392 . S
C874 C875 1.385 . S
C874 C876 1.478 . S
C875 H869 0.930 . S
C875 C871 1.400 . S
C875 C874 1.385 . S
C876 C874 1.478 . S
C876 C878 1.381 . S
C876 C882 1.383 . S
C877 C873 1.495 . S
C877 H883 0.959 . S
C877 H884 0.961 . S
C877 H885 0.960 . S
C878 C876 1.381 . S
C878 C879 1.394 . S
C878 H886 0.930 . S
C879 C878 1.394 . S
C879 C880 1.383 . S
C879 H887 0.929 . S
C880 C879 1.383 . S
C880 C881 1.377 . S
C881 H865 0.930 . S
C881 C880 1.377 . S
C881 C882 1.379 . S
C882 H866 0.931 . S
C882 C876 1.383 . S
C882 C881 1.379 . S
H883 C877 0.959 . S
H884 C877 0.961 . S
H885 C877 0.960 . S
H886 C878 0.930 . S
H887 C879 0.929 . S
H888 C896 0.929 . S
H889 C898 0.930 . S
H890 C900 0.930 . S
H891 C903 0.929 . S
H892 C906 0.930 . S
H893 C908 0.960 . S
H894 C908 0.960 . S
H895 C908 0.960 . S
C896 H888 0.929 . S
C896 C897 1.377 . S
C896 C898 1.384 . S
C897 C896 1.377 . S
C897 C903 1.390 . S
C898 H889 0.930 . S
C898 C896 1.384 . S
C898 C899 1.372 . S
C899 C898 1.372 . S
C899 C900 1.400 . S
C899 C904 1.490 . S
C900 H890 0.930 . S
C900 C899 1.400 . S
C900 C903 1.386 . S
H901 C917 0.930 . S
H902 C918 0.931 . S
C903 H891 0.929 . S
C903 C897 1.390 . S
C903 C900 1.386 . S
C904 C899 1.490 . S
C904 C906 1.395 . S
C904 C907 1.403 . S
H905 C911 0.930 . S
C906 H892 0.930 . S
C906 C904 1.395 . S
C906 C909 1.403 . S
C907 C904 1.403 . S
C907 C908 1.524 . S
C907 C911 1.400 . S
C908 H893 0.960 . S
C908 H894 0.960 . S
C908 H895 0.960 . S
C908 C907 1.524 . S
C909 C906 1.403 . S
C909 C910 1.392 . S
C909 C913 1.495 . S
C910 C909 1.392 . S
C910 C911 1.385 . S
C910 C912 1.478 . S
C911 H905 0.930 . S
C911 C907 1.400 . S
C911 C910 1.385 . S
C912 C910 1.478 . S
C912 C914 1.381 . S
C912 C918 1.383 . S
C913 C909 1.495 . S
C913 H919 0.959 . S
C913 H920 0.961 . S
C913 H921 0.960 . S
C914 C912 1.381 . S
C914 C915 1.394 . S
C914 H922 0.930 . S
C915 C914 1.394 . S
C915 C916 1.383 . S
C915 H923 0.929 . S
C916 C915 1.383 . S
C916 C917 1.377 . S
C917 H901 0.930 . S
C917 C916 1.377 . S
C917 C918 1.379 . S
C918 H902 0.931 . S
C918 C912 1.383 . S
C918 C917 1.379 . S
H919 C913 0.959 . S
H920 C913 0.961 . S
H921 C913 0.960 . S
H922 C914 0.930 . S
H923 C915 0.929 . S
H924 C932 0.929 . S
H925 C934 0.930 . S
H926 C936 0.930 . S
H927 C939 0.929 . S
H928 C942 0.930 . S
H929 C944 0.960 . S
H930 C944 0.960 . S
H931 C944 0.960 . S
C932 H924 0.929 . S
C932 C933 1.377 . S
C932 C934 1.384 . S
C933 C932 1.377 . S
C933 C939 1.390 . S
C934 H925 0.930 . S
C934 C932 1.384 . S
C934 C935 1.372 . S
C935 C934 1.372 . S
C935 C936 1.400 . S
C935 C940 1.490 . S
C936 H926 0.930 . S
C936 C935 1.400 . S
C936 C939 1.386 . S
H937 C953 0.930 . S
H938 C954 0.931 . S
C939 H927 0.929 . S
C939 C933 1.390 . S
C939 C936 1.386 . S
C940 C935 1.490 . S
C940 C942 1.395 . S
C940 C943 1.403 . S
H941 C947 0.930 . S
C942 H928 0.930 . S
C942 C940 1.395 . S
C942 C945 1.403 . S
C943 C940 1.403 . S
C943 C944 1.524 . S
C943 C947 1.400 . S
C944 H929 0.960 . S
C944 H930 0.960 . S
C944 H931 0.960 . S
C944 C943 1.524 . S
C945 C942 1.403 . S
C945 C946 1.392 . S
C945 C949 1.495 . S
C946 C945 1.392 . S
C946 C947 1.385 . S
C946 C948 1.478 . S
C947 H941 0.930 . S
C947 C943 1.400 . S
C947 C946 1.385 . S
C948 C946 1.478 . S
C948 C950 1.381 . S
C948 C954 1.383 . S
C949 C945 1.495 . S
C949 H955 0.959 . S
C949 H956 0.961 . S
C949 H957 0.960 . S
C950 C948 1.381 . S
C950 C951 1.394 . S
C950 H958 0.930 . S
C951 C950 1.394 . S
C951 C952 1.383 . S
C951 H959 0.929 . S
C952 C951 1.383 . S
C952 C953 1.377 . S
C953 H937 0.930 . S
C953 C952 1.377 . S
C953 C954 1.379 . S
C954 H938 0.931 . S
C954 C948 1.383 . S
C954 C953 1.379 . S
H955 C949 0.959 . S
H956 C949 0.961 . S
H957 C949 0.960 . S
H958 C950 0.930 . S
H959 C951 0.929 . S
H960 C968 0.929 . S
H961 C970 0.930 . S
H962 C972 0.930 . S
H963 C975 0.929 . S
H964 C978 0.930 . S
H965 C980 0.960 . S
H966 C980 0.960 . S
H967 C980 0.960 . S
C968 H960 0.929 . S
C968 C969 1.377 . S
C968 C970 1.384 . S
C969 C968 1.377 . S
C969 C975 1.390 . S
C970 H961 0.930 . S
C970 C968 1.384 . S
C970 C971 1.372 . S
C971 C970 1.372 . S
C971 C972 1.400 . S
C971 C976 1.490 . S
C972 H962 0.930 . S
C972 C971 1.400 . S
C972 C975 1.386 . S
H973 C989 0.930 . S
H974 C990 0.931 . S
C975 H963 0.929 . S
C975 C969 1.390 . S
C975 C972 1.386 . S
C976 C971 1.490 . S
C976 C978 1.395 . S
C976 C979 1.403 . S
H977 C983 0.930 . S
C978 H964 0.930 . S
C978 C976 1.395 . S
C978 C981 1.403 . S
C979 C976 1.403 . S
C979 C980 1.524 . S
C979 C983 1.400 . S
C980 H965 0.960 . S
C980 H966 0.960 . S
C980 H967 0.960 . S
C980 C979 1.524 . S
C981 C978 1.403 . S
C981 C982 1.392 . S
C981 C985 1.495 . S
C982 C981 1.392 . S
C982 C983 1.385 . S
C982 C984 1.478 . S
C983 H977 0.930 . S
C983 C979 1.400 . S
C983 C982 1.385 . S
C984 C982 1.478 . S
C984 C986 1.381 . S
C984 C990 1.383 . S
C985 C981 1.495 . S
C985 H991 0.959 . S
C985 H992 0.961 . S
C985 H993 0.960 . S
C986 C984 1.381 . S
C986 C987 1.394 . S
C986 H994 0.930 . S
C987 C986 1.394 . S
C987 C988 1.383 . S
C987 H995 0.929 1_545 S
C988 C987 1.383 . S
C988 C989 1.377 . S
C989 H973 0.930 . S
C989 C988 1.377 . S
C989 C990 1.379 . S
C990 H974 0.931 . S
C990 C984 1.383 . S
C990 C989 1.379 . S
H991 C985 0.959 . S
H992 C985 0.961 . S
H993 C985 0.960 . S
H994 C986 0.930 . S
H995 C987 0.929 1_565 S
H996 C1004 0.929 . S
H997 C1006 0.930 . S
H998 C1008 0.930 . S
H999 C1011 0.929 . S
H1000 C1014 0.930 . S
H1001 C1016 0.960 . S
H1002 C1016 0.887 1_545 S
H1003 C1016 0.960 . S
C1004 H996 0.929 . S
C1004 C1005 1.377 . S
C1004 C1006 1.384 . S
C1005 C1004 1.377 . S
C1005 C1011 1.390 1_545 S
C1006 H997 0.930 . S
C1006 C1004 1.384 . S
C1006 C1007 1.372 . S
C1007 C1006 1.372 . S
C1007 C1008 1.400 1_545 S
C1007 C1012 1.490 . S
C1008 H998 0.930 . S
C1008 C1007 1.400 1_565 S
C1008 C1011 1.386 . S
H1009 C1025 0.930 . S
H1010 C1026 0.931 . S
C1011 H999 0.929 . S
C1011 C1005 1.390 1_565 S
C1011 C1008 1.386 . S
C1012 C1007 1.490 . S
C1012 C1014 1.395 . S
C1012 C1015 1.403 1_545 S
H1013 C1019 0.930 . S
C1014 H1000 0.930 . S
C1014 C1012 1.395 . S
C1014 C1017 1.403 . S
C1015 C1012 1.403 1_565 S
C1015 C1016 1.524 . S
C1015 C1019 1.400 . S
C1016 H1001 0.960 . S
C1016 H1002 0.887 1_565 S
C1016 H1003 0.960 . S
C1016 C1015 1.524 . S
C1017 C1014 1.403 . S
C1017 C1018 1.392 . S
C1017 C1021 1.495 . S
C1018 C1017 1.392 . S
C1018 C1019 1.385 1_545 S
C1018 C1020 1.478 . S
C1019 H1013 0.930 . S
C1019 C1015 1.400 . S
C1019 C1018 1.385 1_565 S
C1020 C1018 1.478 . S
C1020 C1022 1.381 . S
C1020 C1026 1.383 1_545 S
C1021 C1017 1.495 . S
C1021 H1027 0.959 . S
C1021 H1028 0.961 . S
C1021 H1029 0.960 . S
C1022 C1020 1.381 . S
C1022 C1023 1.394 . S
C1022 H1030 0.930 . S
C1023 C1022 1.394 . S
C1023 C1024 1.383 . S
C1023 H1031 0.929 . S
C1024 C1023 1.383 . S
C1024 C1025 1.377 1_545 S
C1025 H1009 0.930 . S
C1025 C1024 1.377 1_565 S
C1025 C1026 1.379 . S
C1026 H1010 0.931 . S
C1026 C1020 1.383 1_565 S
C1026 C1025 1.379 . S
H1027 C1021 0.959 . S
H1028 C1021 0.961 . S
H1029 C1021 0.960 . S
H1030 C1022 0.930 . S
H1031 C1023 0.929 . S
H1032 C1040 0.929 . S
H1033 C1042 0.930 . S
H1034 C1044 0.930 . S
H1035 C1047 0.929 . S
H1036 C1050 0.930 . S
H1037 C1052 0.960 . S
H1038 C1052 0.960 . S
H1039 C1052 0.960 . S
C1040 H1032 0.929 . S
C1040 C1041 1.377 . S
C1040 C1042 1.384 . S
C1041 C1040 1.377 . S
C1041 C1047 1.390 . S
C1042 H1033 0.930 . S
C1042 C1040 1.384 . S
C1042 C1043 1.372 . S
C1043 C1042 1.372 . S
C1043 C1044 1.400 . S
C1043 C1048 1.490 . S
C1044 H1034 0.930 . S
C1044 C1043 1.400 . S
C1044 C1047 1.386 . S
H1045 C1061 0.930 . S
H1046 C1062 0.931 . S
C1047 H1035 0.929 . S
C1047 C1041 1.390 . S
C1047 C1044 1.386 . S
C1048 C1043 1.490 . S
C1048 C1050 1.395 . S
C1048 C1051 1.403 . S
H1049 C1055 0.930 . S
C1050 H1036 0.930 . S
C1050 C1048 1.395 . S
C1050 C1053 1.403 . S
C1051 C1048 1.403 . S
C1051 C1052 1.524 . S
C1051 C1055 1.400 . S
C1052 H1037 0.960 . S
C1052 H1038 0.960 . S
C1052 H1039 0.960 . S
C1052 C1051 1.524 . S
C1053 C1050 1.403 . S
C1053 C1054 1.392 . S
C1053 C1057 1.495 . S
C1054 C1053 1.392 . S
C1054 C1055 1.385 . S
C1054 C1056 1.478 . S
C1055 H1049 0.930 . S
C1055 C1051 1.400 . S
C1055 C1054 1.385 . S
C1056 C1054 1.478 . S
C1056 C1058 1.381 . S
C1056 C1062 1.383 . S
C1057 C1053 1.495 . S
C1057 H1063 0.959 . S
C1057 H1064 0.961 . S
C1057 H1065 0.960 . S
C1058 C1056 1.381 . S
C1058 C1059 1.394 . S
C1058 H1066 0.930 . S
C1059 C1058 1.394 . S
C1059 C1060 1.383 . S
C1059 H1067 0.929 . S
C1060 C1059 1.383 . S
C1060 C1061 1.377 . S
C1061 H1045 0.930 . S
C1061 C1060 1.377 . S
C1061 C1062 1.379 . S
C1062 H1046 0.931 . S
C1062 C1056 1.383 . S
C1062 C1061 1.379 . S
H1063 C1057 0.959 . S
H1064 C1057 0.961 . S
H1065 C1057 0.960 . S
H1066 C1058 0.930 . S
H1067 C1059 0.929 . S
H1068 C1076 0.929 . S
H1069 C1078 0.930 . S
H1070 C1080 0.930 . S
H1071 C1083 0.929 . S
H1072 C1086 0.930 . S
H1073 C1088 0.960 . S
H1074 C1088 0.960 . S
H1075 C1088 0.960 . S
C1076 H1068 0.929 . S
C1076 C1077 1.377 . S
C1076 C1078 1.384 . S
C1077 C1076 1.377 . S
C1077 C1083 1.390 . S
C1078 H1069 0.930 . S
C1078 C1076 1.384 . S
C1078 C1079 1.372 . S
C1079 C1078 1.372 . S
C1079 C1080 1.400 . S
C1079 C1084 1.490 . S
C1080 H1070 0.930 . S
C1080 C1079 1.400 . S
C1080 C1083 1.386 . S
H1081 C1097 0.930 . S
H1082 C1098 0.931 . S
C1083 H1071 0.929 . S
C1083 C1077 1.390 . S
C1083 C1080 1.386 . S
C1084 C1079 1.490 . S
C1084 C1086 1.395 . S
C1084 C1087 1.403 . S
H1085 C1091 0.930 . S
C1086 H1072 0.930 . S
C1086 C1084 1.395 . S
C1086 C1089 1.403 . S
C1087 C1084 1.403 . S
C1087 C1088 1.524 . S
C1087 C1091 1.400 . S
C1088 H1073 0.960 . S
C1088 H1074 0.960 . S
C1088 H1075 0.960 . S
C1088 C1087 1.524 . S
C1089 C1086 1.403 . S
C1089 C1090 1.392 . S
C1089 C1093 1.495 . S
C1090 C1089 1.392 . S
C1090 C1091 1.385 . S
C1090 C1092 1.478 . S
C1091 H1085 0.930 . S
C1091 C1087 1.400 . S
C1091 C1090 1.385 . S
C1092 C1090 1.478 . S
C1092 C1094 1.381 . S
C1092 C1098 1.383 . S
C1093 C1089 1.495 . S
C1093 H1099 0.959 . S
C1093 H1100 0.961 . S
C1093 H1101 0.960 . S
C1094 C1092 1.381 . S
C1094 C1095 1.394 . S
C1094 H1102 0.930 . S
C1095 C1094 1.394 . S
C1095 C1096 1.383 . S
C1095 H1103 0.929 . S
C1096 C1095 1.383 . S
C1096 C1097 1.377 . S
C1097 H1081 0.930 . S
C1097 C1096 1.377 . S
C1097 C1098 1.379 . S
C1098 H1082 0.931 . S
C1098 C1092 1.383 . S
C1098 C1097 1.379 . S
H1099 C1093 0.959 . S
H1100 C1093 0.961 . S
H1101 C1093 0.960 . S
H1102 C1094 0.930 . S
H1103 C1095 0.929 . S
H1104 C1112 0.929 . S
H1105 C1114 0.930 . S
H1106 C1116 0.930 . S
H1107 C1119 0.929 . S
H1108 C1122 0.930 . S
H1109 C1124 0.960 . S
H1110 C1124 0.960 . S
H1111 C1124 0.960 . S
C1112 H1104 0.929 . S
C1112 C1113 1.377 . S
C1112 C1114 1.384 . S
C1113 C1112 1.377 . S
C1113 C1119 1.390 . S
C1114 H1105 0.930 . S
C1114 C1112 1.384 . S
C1114 C1115 1.372 . S
C1115 C1114 1.372 . S
C1115 C1116 1.400 . S
C1115 C1120 1.490 . S
C1116 H1106 0.930 . S
C1116 C1115 1.400 . S
C1116 C1119 1.386 . S
H1117 C1133 0.930 . S
H1118 C1134 0.931 . S
C1119 H1107 0.929 . S
C1119 C1113 1.390 . S
C1119 C1116 1.386 . S
C1120 C1115 1.490 . S
C1120 C1122 1.395 . S
C1120 C1123 1.403 . S
H1121 C1127 0.930 . S
C1122 H1108 0.930 . S
C1122 C1120 1.395 . S
C1122 C1125 1.403 . S
C1123 C1120 1.403 . S
C1123 C1124 1.524 . S
C1123 C1127 1.400 . S
C1124 H1109 0.960 . S
C1124 H1110 0.960 . S
C1124 H1111 0.960 . S
C1124 C1123 1.524 . S
C1125 C1122 1.403 . S
C1125 C1126 1.392 . S
C1125 C1129 1.495 . S
C1126 C1125 1.392 . S
C1126 C1127 1.385 . S
C1126 C1128 1.478 . S
C1127 H1121 0.930 . S
C1127 C1123 1.400 . S
C1127 C1126 1.385 . S
C1128 C1126 1.478 . S
C1128 C1130 1.381 . S
C1128 C1134 1.383 . S
C1129 C1125 1.495 . S
C1129 H1135 0.959 . S
C1129 H1136 0.961 . S
C1129 H1137 0.960 . S
C1130 C1128 1.381 . S
C1130 C1131 1.394 . S
C1130 H1138 0.930 . S
C1131 C1130 1.394 . S
C1131 C1132 1.383 . S
C1131 H1139 0.929 1_554 S
C1132 C1131 1.383 . S
C1132 C1133 1.377 . S
C1133 H1117 0.930 . S
C1133 C1132 1.377 . S
C1133 C1134 1.379 . S
C1134 H1118 0.931 . S
C1134 C1128 1.383 . S
C1134 C1133 1.379 . S
H1135 C1129 0.959 . S
H1136 C1129 0.961 . S
H1137 C1129 0.960 . S
H1138 C1130 0.930 . S
H1139 C1131 0.929 1_556 S
H1140 C1148 0.929 . S
H1141 C1150 0.930 . S
H1142 C1152 0.930 . S
H1143 C1155 0.929 . S
H1144 C1158 0.930 . S
H1145 C1160 0.960 . S
H1146 C1160 0.960 . S
H1147 C1160 0.960 . S
C1148 H1140 0.929 . S
C1148 C1149 1.377 . S
C1148 C1150 1.384 . S
C1149 C1148 1.377 . S
C1149 C1155 1.390 . S
C1150 H1141 0.930 . S
C1150 C1148 1.384 . S
C1150 C1151 1.372 . S
C1151 C1150 1.372 . S
C1151 C1152 1.400 . S
C1151 C1156 1.490 . S
C1152 H1142 0.930 . S
C1152 C1151 1.400 . S
C1152 C1155 1.386 . S
H1153 C1169 0.930 . S
H1154 C1170 0.931 . S
C1155 H1143 0.929 . S
C1155 C1149 1.390 . S
C1155 C1152 1.386 . S
C1156 C1151 1.490 . S
C1156 C1158 1.395 . S
C1156 C1159 1.403 . S
H1157 C1163 0.930 . S
C1158 H1144 0.930 . S
C1158 C1156 1.395 . S
C1158 C1161 1.403 . S
C1159 C1156 1.403 . S
C1159 C1160 1.524 . S
C1159 C1163 1.400 . S
C1160 H1145 0.960 . S
C1160 H1146 0.960 . S
C1160 H1147 0.960 . S
C1160 C1159 1.524 . S
C1161 C1158 1.403 . S
C1161 C1162 1.392 . S
C1161 C1165 1.495 . S
C1162 C1161 1.392 . S
C1162 C1163 1.385 . S
C1162 C1164 1.478 . S
C1163 H1157 0.930 . S
C1163 C1159 1.400 . S
C1163 C1162 1.385 . S
C1164 C1162 1.478 . S
C1164 C1166 1.381 . S
C1164 C1170 1.383 . S
C1165 C1161 1.495 . S
C1165 H1171 0.959 . S
C1165 H1172 0.961 . S
C1165 H1173 0.960 . S
C1166 C1164 1.381 . S
C1166 C1167 1.394 . S
C1166 H1174 0.930 . S
C1167 C1166 1.394 . S
C1167 C1168 1.383 . S
C1167 H1175 0.929 . S
C1168 C1167 1.383 . S
C1168 C1169 1.377 . S
C1169 H1153 0.930 . S
C1169 C1168 1.377 . S
C1169 C1170 1.379 . S
C1170 H1154 0.931 . S
C1170 C1164 1.383 . S
C1170 C1169 1.379 . S
H1171 C1165 0.959 . S
H1172 C1165 0.961 . S
H1173 C1165 0.960 . S
H1174 C1166 0.930 . S
H1175 C1167 0.929 . S
H1176 C1184 0.929 . S
H1177 C1186 0.930 . S
H1178 C1188 0.930 . S
H1179 C1191 0.929 . S
H1180 C1194 0.930 . S
H1181 C1196 0.960 . S
H1182 C1196 0.960 . S
H1183 C1196 0.960 1_655 S
C1184 H1176 0.929 . S
C1184 C1185 1.377 . S
C1184 C1186 1.384 . S
C1185 C1184 1.377 . S
C1185 C1191 1.390 1_455 S
C1186 H1177 0.930 . S
C1186 C1184 1.384 . S
C1186 C1187 1.372 . S
C1187 C1186 1.372 . S
C1187 C1188 1.400 1_455 S
C1187 C1192 1.490 . S
C1188 H1178 0.930 . S
C1188 C1187 1.400 1_655 S
C1188 C1191 1.386 . S
H1189 C1205 0.930 . S
H1190 C1206 0.931 . S
C1191 H1179 0.929 . S
C1191 C1185 1.390 1_655 S
C1191 C1188 1.386 . S
C1192 C1187 1.490 . S
C1192 C1194 1.395 . S
C1192 C1195 1.403 . S
H1193 C1199 0.930 . S
C1194 H1180 0.930 . S
C1194 C1192 1.395 . S
C1194 C1197 1.403 . S
C1195 C1192 1.403 . S
C1195 C1196 1.524 . S
C1195 C1199 1.400 . S
C1196 H1181 0.960 . S
C1196 H1182 0.960 . S
C1196 H1183 0.960 1_455 S
C1196 C1195 1.524 . S
C1197 C1194 1.403 . S
C1197 C1198 1.392 . S
C1197 C1201 1.495 . S
C1198 C1197 1.392 . S
C1198 C1199 1.385 . S
C1198 C1200 1.478 . S
C1199 H1193 0.930 . S
C1199 C1195 1.400 . S
C1199 C1198 1.385 . S
C1200 C1198 1.478 . S
C1200 C1202 1.381 . S
C1200 C1206 1.383 1_455 S
C1201 C1197 1.495 . S
C1201 H1207 0.959 1_455 S
C1201 H1208 0.965 1_455 S
C1201 H1209 0.956 . S
C1202 C1200 1.381 . S
C1202 C1203 1.394 . S
C1202 H1210 0.930 . S
C1203 C1202 1.394 . S
C1203 C1204 1.459 . S
C1203 H1211 0.929 . S
C1204 C1203 1.459 . S
C1204 C1205 1.304 1_455 S
C1205 H1189 0.930 . S
C1205 C1204 1.304 1_655 S
C1205 C1206 1.379 . S
C1206 H1190 0.931 . S
C1206 C1200 1.383 1_655 S
C1206 C1205 1.379 . S
H1207 C1201 0.959 1_655 S
H1208 C1201 0.965 1_655 S
H1209 C1201 0.956 . S
H1210 C1202 0.930 . S
H1211 C1203 0.929 . S
H1212 C1220 0.929 . S
H1213 C1222 0.930 . S
H1214 C1224 0.930 . S
H1215 C1227 0.929 . S
H1216 C1230 0.930 . S
H1217 C1232 0.960 . S
H1218 C1232 0.960 . S
H1219 C1232 0.960 . S
C1220 H1212 0.929 . S
C1220 C1221 1.377 . S
C1220 C1222 1.384 . S
C1221 C1220 1.377 . S
C1221 C1227 1.390 . S
C1222 H1213 0.930 . S
C1222 C1220 1.384 . S
C1222 C1223 1.372 . S
C1223 C1222 1.372 . S
C1223 C1224 1.400 . S
C1223 C1228 1.490 . S
C1224 H1214 0.930 . S
C1224 C1223 1.400 . S
C1224 C1227 1.386 . S
H1225 C1241 0.930 . S
H1226 C1242 0.931 . S
C1227 H1215 0.929 . S
C1227 C1221 1.390 . S
C1227 C1224 1.386 . S
C1228 C1223 1.490 . S
C1228 C1230 1.395 . S
C1228 C1231 1.403 . S
H1229 C1235 0.930 . S
C1230 H1216 0.930 . S
C1230 C1228 1.395 . S
C1230 C1233 1.403 . S
C1231 C1228 1.403 . S
C1231 C1232 1.524 . S
C1231 C1235 1.400 . S
C1232 H1217 0.960 . S
C1232 H1218 0.960 . S
C1232 H1219 0.960 . S
C1232 C1231 1.524 . S
C1233 C1230 1.403 . S
C1233 C1234 1.392 . S
C1233 C1237 1.495 . S
C1234 C1233 1.392 . S
C1234 C1235 1.385 . S
C1234 C1236 1.478 . S
C1235 H1229 0.930 . S
C1235 C1231 1.400 . S
C1235 C1234 1.385 . S
C1236 C1234 1.478 . S
C1236 C1238 1.381 . S
C1236 C1242 1.383 . S
C1237 C1233 1.495 . S
C1237 H1243 0.959 . S
C1237 H1244 0.961 . S
C1237 H1245 0.960 . S
C1238 C1236 1.381 . S
C1238 C1239 1.394 . S
C1238 H1246 0.930 . S
C1239 C1238 1.394 . S
C1239 C1240 1.383 . S
C1239 H1247 0.929 . S
C1240 C1239 1.383 . S
C1240 C1241 1.377 . S
C1241 H1225 0.930 . S
C1241 C1240 1.377 . S
C1241 C1242 1.379 . S
C1242 H1226 0.931 . S
C1242 C1236 1.383 . S
C1242 C1241 1.379 . S
H1243 C1237 0.959 . S
H1244 C1237 0.961 . S
H1245 C1237 0.960 . S
H1246 C1238 0.930 . S
H1247 C1239 0.929 . S
H1248 C1256 0.929 . S
H1249 C1258 0.930 . S
H1250 C1260 0.930 . S
H1251 C1263 0.929 . S
H1252 C1266 0.930 . S
H1253 C1268 0.960 . S
H1254 C1268 0.960 . S
H1255 C1268 0.960 . S
C1256 H1248 0.929 . S
C1256 C1257 1.377 . S
C1256 C1258 1.384 . S
C1257 C1256 1.377 . S
C1257 C1263 1.390 . S
C1258 H1249 0.930 . S
C1258 C1256 1.384 . S
C1258 C1259 1.372 . S
C1259 C1258 1.372 . S
C1259 C1260 1.400 . S
C1259 C1264 1.490 . S
C1260 H1250 0.930 . S
C1260 C1259 1.400 . S
C1260 C1263 1.386 . S
H1261 C1277 0.930 . S
H1262 C1278 0.931 . S
C1263 H1251 0.929 . S
C1263 C1257 1.390 . S
C1263 C1260 1.386 . S
C1264 C1259 1.490 . S
C1264 C1266 1.395 . S
C1264 C1267 1.403 . S
H1265 C1271 0.930 . S
C1266 H1252 0.930 . S
C1266 C1264 1.395 . S
C1266 C1269 1.403 . S
C1267 C1264 1.403 . S
C1267 C1268 1.524 . S
C1267 C1271 1.400 . S
C1268 H1253 0.960 . S
C1268 H1254 0.960 . S
C1268 H1255 0.960 . S
C1268 C1267 1.524 . S
C1269 C1266 1.403 . S
C1269 C1270 1.392 . S
C1269 C1273 1.495 . S
C1270 C1269 1.392 . S
C1270 C1271 1.385 . S
C1270 C1272 1.478 . S
C1271 H1265 0.930 . S
C1271 C1267 1.400 . S
C1271 C1270 1.385 . S
C1272 C1270 1.478 . S
C1272 C1274 1.381 . S
C1272 C1278 1.383 . S
C1273 C1269 1.495 . S
C1273 H1279 0.959 . S
C1273 H1280 0.961 . S
C1273 H1281 0.960 . S
C1274 C1272 1.381 . S
C1274 C1275 1.394 . S
C1274 H1282 0.930 . S
C1275 C1274 1.394 . S
C1275 C1276 1.383 . S
C1275 H1283 0.929 . S
C1276 C1275 1.383 . S
C1276 C1277 1.377 . S
C1277 H1261 0.930 . S
C1277 C1276 1.377 . S
C1277 C1278 1.379 . S
C1278 H1262 0.931 . S
C1278 C1272 1.383 . S
C1278 C1277 1.379 . S
H1279 C1273 0.959 . S
H1280 C1273 0.961 . S
H1281 C1273 0.960 . S
H1282 C1274 0.930 . S
H1283 C1275 0.929 . S
H1284 C1292 0.929 . S
H1285 C1294 0.930 . S
H1286 C1296 0.930 . S
H1287 C1299 0.929 . S
H1288 C1302 0.930 . S
H1289 C1304 0.960 . S
H1290 C1304 0.960 . S
H1291 C1304 0.960 . S
C1292 H1284 0.929 . S
C1292 C1293 1.377 . S
C1292 C1294 1.384 . S
C1293 C1292 1.377 . S
C1293 C1299 1.390 . S
C1294 H1285 0.930 . S
C1294 C1292 1.384 . S
C1294 C1295 1.372 . S
C1295 C1294 1.372 . S
C1295 C1296 1.400 . S
C1295 C1300 1.490 . S
C1296 H1286 0.930 . S
C1296 C1295 1.400 . S
C1296 C1299 1.386 . S
H1297 C1313 0.930 . S
H1298 C1314 0.931 . S
C1299 H1287 0.929 . S
C1299 C1293 1.390 . S
C1299 C1296 1.386 . S
C1300 C1295 1.490 . S
C1300 C1302 1.395 . S
C1300 C1303 1.403 . S
H1301 C1307 0.930 . S
C1302 H1288 0.930 . S
C1302 C1300 1.395 . S
C1302 C1305 1.403 . S
C1303 C1300 1.403 . S
C1303 C1304 1.524 . S
C1303 C1307 1.400 . S
C1304 H1289 0.960 . S
C1304 H1290 0.960 . S
C1304 H1291 0.960 . S
C1304 C1303 1.524 . S
C1305 C1302 1.403 . S
C1305 C1306 1.392 . S
C1305 C1309 1.495 . S
C1306 C1305 1.392 . S
C1306 C1307 1.385 . S
C1306 C1308 1.478 . S
C1307 H1301 0.930 . S
C1307 C1303 1.400 . S
C1307 C1306 1.385 . S
C1308 C1306 1.478 . S
C1308 C1310 1.381 . S
C1308 C1314 1.383 . S
C1309 C1305 1.495 . S
C1309 H1315 0.959 . S
C1309 H1316 0.961 . S
C1309 H1317 0.960 . S
C1310 C1308 1.381 . S
C1310 C1311 1.394 . S
C1310 H1318 0.930 . S
C1311 C1310 1.394 . S
C1311 C1312 1.383 . S
C1311 H1319 0.929 . S
C1312 C1311 1.383 . S
C1312 C1313 1.377 . S
C1313 H1297 0.930 . S
C1313 C1312 1.377 . S
C1313 C1314 1.379 . S
C1314 H1298 0.931 . S
C1314 C1308 1.383 . S
C1314 C1313 1.379 . S
H1315 C1309 0.959 . S
H1316 C1309 0.961 . S
H1317 C1309 0.960 . S
H1318 C1310 0.930 . S
H1319 C1311 0.929 . S
H1320 C1328 0.929 . S
H1321 C1330 0.930 . S
H1322 C1332 0.930 . S
H1323 C1335 0.929 . S
H1324 C1338 0.930 . S
H1325 C1340 0.960 . S
H1326 C1340 0.960 . S
H1327 C1340 0.960 . S
C1328 H1320 0.929 . S
C1328 C1329 1.377 . S
C1328 C1330 1.384 . S
C1329 C1328 1.377 . S
C1329 C1335 1.390 . S
C1330 H1321 0.930 . S
C1330 C1328 1.384 . S
C1330 C1331 1.372 . S
C1331 C1330 1.372 . S
C1331 C1332 1.400 . S
C1331 C1336 1.490 . S
C1332 H1322 0.930 . S
C1332 C1331 1.400 . S
C1332 C1335 1.386 . S
H1333 C1349 0.930 . S
H1334 C1350 0.931 . S
C1335 H1323 0.929 . S
C1335 C1329 1.390 . S
C1335 C1332 1.386 . S
C1336 C1331 1.490 . S
C1336 C1338 1.395 . S
C1336 C1339 1.403 . S
H1337 C1343 0.930 . S
C1338 H1324 0.930 . S
C1338 C1336 1.395 . S
C1338 C1341 1.403 . S
C1339 C1336 1.403 . S
C1339 C1340 1.524 . S
C1339 C1343 1.400 . S
C1340 H1325 0.960 . S
C1340 H1326 0.960 . S
C1340 H1327 0.960 . S
C1340 C1339 1.524 . S
C1341 C1338 1.403 . S
C1341 C1342 1.392 . S
C1341 C1345 1.495 . S
C1342 C1341 1.392 . S
C1342 C1343 1.385 . S
C1342 C1344 1.478 . S
C1343 H1337 0.930 . S
C1343 C1339 1.400 . S
C1343 C1342 1.385 . S
C1344 C1342 1.478 . S
C1344 C1346 1.381 . S
C1344 C1350 1.383 . S
C1345 C1341 1.495 . S
C1345 H1351 0.959 . S
C1345 H1352 0.961 . S
C1345 H1353 0.960 . S
C1346 C1344 1.381 . S
C1346 C1347 1.394 . S
C1346 H1354 0.930 . S
C1347 C1346 1.394 . S
C1347 C1348 1.383 . S
C1347 H1355 0.929 . S
C1348 C1347 1.383 . S
C1348 C1349 1.377 . S
C1349 H1333 0.930 . S
C1349 C1348 1.377 . S
C1349 C1350 1.379 . S
C1350 H1334 0.931 . S
C1350 C1344 1.383 . S
C1350 C1349 1.379 . S
H1351 C1345 0.959 . S
H1352 C1345 0.961 . S
H1353 C1345 0.960 . S
H1354 C1346 0.930 . S
H1355 C1347 0.929 . S
H1356 C1364 0.929 . S
H1357 C1366 0.930 . S
H1358 C1368 0.930 . S
H1359 C1371 0.929 . S
H1360 C1374 0.930 . S
H1361 C1376 0.960 . S
H1362 C1376 0.960 . S
H1363 C1376 0.960 . S
C1364 H1356 0.929 . S
C1364 C1365 1.377 . S
C1364 C1366 1.384 . S
C1365 C1364 1.377 . S
C1365 C1371 1.390 . S
C1366 H1357 0.930 . S
C1366 C1364 1.384 . S
C1366 C1367 1.372 . S
C1367 C1366 1.372 . S
C1367 C1368 1.400 . S
C1367 C1372 1.490 . S
C1368 H1358 0.930 . S
C1368 C1367 1.400 . S
C1368 C1371 1.386 . S
H1369 C1385 0.930 . S
H1370 C1386 0.931 . S
C1371 H1359 0.929 . S
C1371 C1365 1.390 . S
C1371 C1368 1.386 . S
C1372 C1367 1.490 . S
C1372 C1374 1.395 . S
C1372 C1375 1.403 . S
H1373 C1379 0.930 . S
C1374 H1360 0.930 . S
C1374 C1372 1.395 . S
C1374 C1377 1.403 . S
C1375 C1372 1.403 . S
C1375 C1376 1.524 . S
C1375 C1379 1.400 . S
C1376 H1361 0.960 . S
C1376 H1362 0.960 . S
C1376 H1363 0.960 . S
C1376 C1375 1.524 . S
C1377 C1374 1.403 . S
C1377 C1378 1.392 . S
C1377 C1381 1.495 . S
C1378 C1377 1.392 . S
C1378 C1379 1.385 . S
C1378 C1380 1.478 . S
C1379 H1373 0.930 . S
C1379 C1375 1.400 . S
C1379 C1378 1.385 . S
C1380 C1378 1.478 . S
C1380 C1382 1.381 . S
C1380 C1386 1.383 . S
C1381 C1377 1.495 . S
C1381 H1387 0.959 . S
C1381 H1388 0.961 . S
C1381 H1389 0.960 . S
C1382 C1380 1.381 . S
C1382 C1383 1.394 . S
C1382 H1390 0.930 . S
C1383 C1382 1.394 . S
C1383 C1384 1.383 . S
C1383 H1391 0.929 . S
C1384 C1383 1.383 . S
C1384 C1385 1.377 . S
C1385 H1369 0.930 . S
C1385 C1384 1.377 . S
C1385 C1386 1.379 . S
C1386 H1370 0.931 . S
C1386 C1380 1.383 . S
C1386 C1385 1.379 . S
H1387 C1381 0.959 . S
H1388 C1381 0.961 . S
H1389 C1381 0.960 . S
H1390 C1382 0.930 . S
H1391 C1383 0.929 . S
H1392 C1400 0.929 . S
H1393 C1402 0.930 . S
H1394 C1404 0.930 . S
H1395 C1407 0.929 . S
H1396 C1410 0.930 . S
H1397 C1412 0.960 . S
H1398 C1412 0.960 . S
H1399 C1412 0.960 . S
C1400 H1392 0.929 . S
C1400 C1401 1.377 . S
C1400 C1402 1.384 . S
C1401 C1400 1.377 . S
C1401 C1407 1.390 . S
C1402 H1393 0.930 . S
C1402 C1400 1.384 . S
C1402 C1403 1.372 . S
C1403 C1402 1.372 . S
C1403 C1404 1.400 . S
C1403 C1408 1.490 . S
C1404 H1394 0.930 . S
C1404 C1403 1.400 . S
C1404 C1407 1.386 . S
H1405 C1421 0.930 . S
H1406 C1422 0.931 . S
C1407 H1395 0.929 . S
C1407 C1401 1.390 . S
C1407 C1404 1.386 . S
C1408 C1403 1.490 . S
C1408 C1410 1.395 . S
C1408 C1411 1.403 . S
H1409 C1415 0.930 . S
C1410 H1396 0.930 . S
C1410 C1408 1.395 . S
C1410 C1413 1.403 . S
C1411 C1408 1.403 . S
C1411 C1412 1.524 . S
C1411 C1415 1.400 . S
C1412 H1397 0.960 . S
C1412 H1398 0.960 . S
C1412 H1399 0.960 . S
C1412 C1411 1.524 . S
C1413 C1410 1.403 . S
C1413 C1414 1.392 . S
C1413 C1417 1.495 . S
C1414 C1413 1.392 . S
C1414 C1415 1.385 . S
C1414 C1416 1.478 . S
C1415 H1409 0.930 . S
C1415 C1411 1.400 . S
C1415 C1414 1.385 . S
C1416 C1414 1.478 . S
C1416 C1418 1.381 . S
C1416 C1422 1.383 . S
C1417 C1413 1.495 . S
C1417 H1423 0.959 . S
C1417 H1424 0.961 . S
C1417 H1425 0.960 . S
C1418 C1416 1.381 . S
C1418 C1419 1.394 . S
C1418 H1426 0.930 . S
C1419 C1418 1.394 . S
C1419 C1420 1.383 . S
C1419 H1427 0.929 . S
C1420 C1419 1.383 . S
C1420 C1421 1.377 . S
C1421 H1405 0.930 . S
C1421 C1420 1.377 . S
C1421 C1422 1.379 . S
C1422 H1406 0.931 . S
C1422 C1416 1.383 . S
C1422 C1421 1.379 . S
H1423 C1417 0.959 . S
H1424 C1417 0.961 . S
H1425 C1417 0.960 . S
H1426 C1418 0.930 . S
H1427 C1419 0.929 . S
H1428 C1436 0.929 . S
H1429 C1438 0.930 . S
H1430 C1440 0.930 . S
H1431 C1443 0.929 . S
H1432 C1446 0.930 . S
H1433 C1448 0.960 . S
H1434 C1448 0.960 . S
H1435 C1448 0.960 . S
C1436 H1428 0.929 . S
C1436 C1437 1.377 . S
C1436 C1438 1.384 . S
C1437 C1436 1.377 . S
C1437 C1443 1.390 . S
C1438 H1429 0.930 . S
C1438 C1436 1.384 . S
C1438 C1439 1.372 . S
C1439 C1438 1.372 . S
C1439 C1440 1.400 . S
C1439 C1444 1.490 . S
C1440 H1430 0.930 . S
C1440 C1439 1.400 . S
C1440 C1443 1.386 . S
H1441 C1457 0.930 . S
H1442 C1458 0.931 . S
C1443 H1431 0.929 . S
C1443 C1437 1.390 . S
C1443 C1440 1.386 . S
C1444 C1439 1.490 . S
C1444 C1446 1.395 . S
C1444 C1447 1.403 . S
H1445 C1451 0.930 . S
C1446 H1432 0.930 . S
C1446 C1444 1.395 . S
C1446 C1449 1.403 . S
C1447 C1444 1.403 . S
C1447 C1448 1.524 . S
C1447 C1451 1.400 . S
C1448 H1433 0.960 . S
C1448 H1434 0.960 . S
C1448 H1435 0.960 . S
C1448 C1447 1.524 . S
C1449 C1446 1.403 . S
C1449 C1450 1.392 . S
C1449 C1453 1.495 . S
C1450 C1449 1.392 . S
C1450 C1451 1.385 . S
C1450 C1452 1.478 . S
C1451 H1445 0.930 . S
C1451 C1447 1.400 . S
C1451 C1450 1.385 . S
C1452 C1450 1.478 . S
C1452 C1454 1.381 . S
C1452 C1458 1.383 . S
C1453 C1449 1.495 . S
C1453 H1459 0.959 . S
C1453 H1460 0.961 . S
C1453 H1461 0.960 . S
C1454 C1452 1.381 . S
C1454 C1455 1.394 . S
C1454 H1462 0.930 . S
C1455 C1454 1.394 . S
C1455 C1456 1.383 . S
C1455 H1463 0.929 . S
C1456 C1455 1.383 . S
C1456 C1457 1.377 . S
C1457 H1441 0.930 . S
C1457 C1456 1.377 . S
C1457 C1458 1.379 . S
C1458 H1442 0.931 . S
C1458 C1452 1.383 . S
C1458 C1457 1.379 . S
H1459 C1453 0.959 . S
H1460 C1453 0.961 . S
H1461 C1453 0.960 . S
H1462 C1454 0.930 . S
H1463 C1455 0.929 . S
H1464 C1472 0.929 . S
H1465 C1474 0.930 . S
H1466 C1476 0.930 . S
H1467 C1479 0.929 . S
H1468 C1482 0.930 . S
H1469 C1484 0.960 . S
H1470 C1484 0.960 . S
H1471 C1484 0.960 . S
C1472 H1464 0.929 . S
C1472 C1473 1.377 . S
C1472 C1474 1.384 . S
C1473 C1472 1.377 . S
C1473 C1479 1.390 . S
C1474 H1465 0.930 . S
C1474 C1472 1.384 . S
C1474 C1475 1.372 . S
C1475 C1474 1.372 . S
C1475 C1476 1.400 . S
C1475 C1480 1.490 . S
C1476 H1466 0.930 . S
C1476 C1475 1.400 . S
C1476 C1479 1.386 . S
H1477 C1493 0.930 . S
H1478 C1494 0.931 . S
C1479 H1467 0.929 . S
C1479 C1473 1.390 . S
C1479 C1476 1.386 . S
C1480 C1475 1.490 . S
C1480 C1482 1.395 . S
C1480 C1483 1.403 . S
H1481 C1487 0.930 . S
C1482 H1468 0.930 . S
C1482 C1480 1.395 . S
C1482 C1485 1.403 . S
C1483 C1480 1.403 . S
C1483 C1484 1.524 . S
C1483 C1487 1.400 . S
C1484 H1469 0.960 . S
C1484 H1470 0.960 . S
C1484 H1471 0.960 . S
C1484 C1483 1.524 . S
C1485 C1482 1.403 . S
C1485 C1486 1.392 . S
C1485 C1489 1.495 . S
C1486 C1485 1.392 . S
C1486 C1487 1.385 . S
C1486 C1488 1.478 . S
C1487 H1481 0.930 . S
C1487 C1483 1.400 . S
C1487 C1486 1.385 . S
C1488 C1486 1.478 . S
C1488 C1490 1.381 . S
C1488 C1494 1.383 . S
C1489 C1485 1.495 . S
C1489 H1495 0.959 . S
C1489 H1496 0.961 . S
C1489 H1497 0.960 . S
C1490 C1488 1.381 . S
C1490 C1491 1.394 . S
C1490 H1498 0.930 . S
C1491 C1490 1.394 . S
C1491 C1492 1.383 . S
C1491 H1499 0.929 . S
C1492 C1491 1.383 . S
C1492 C1493 1.377 . S
C1493 H1477 0.930 . S
C1493 C1492 1.377 . S
C1493 C1494 1.379 . S
C1494 H1478 0.931 . S
C1494 C1488 1.383 . S
C1494 C1493 1.379 . S
H1495 C1489 0.959 . S
H1496 C1489 0.961 . S
H1497 C1489 0.960 . S
H1498 C1490 0.930 . S
H1499 C1491 0.929 . S
H1500 C1508 0.929 . S
H1501 C1510 0.930 . S
H1502 C1512 0.930 . S
H1503 C1515 0.929 . S
H1504 C1518 0.930 . S
H1505 C1520 0.960 . S
H1506 C1520 0.960 . S
H1507 C1520 0.960 . S
C1508 H1500 0.929 . S
C1508 C1509 1.377 . S
C1508 C1510 1.384 . S
C1509 C1508 1.377 . S
C1509 C1515 1.390 . S
C1510 H1501 0.930 . S
C1510 C1508 1.384 . S
C1510 C1511 1.372 . S
C1511 C1510 1.372 . S
C1511 C1512 1.400 . S
C1511 C1516 1.490 . S
C1512 H1502 0.930 . S
C1512 C1511 1.400 . S
C1512 C1515 1.386 . S
H1513 C1529 0.930 . S
H1514 C1530 0.931 . S
C1515 H1503 0.929 . S
C1515 C1509 1.390 . S
C1515 C1512 1.386 . S
C1516 C1511 1.490 . S
C1516 C1518 1.395 . S
C1516 C1519 1.403 . S
H1517 C1523 0.930 . S
C1518 H1504 0.930 . S
C1518 C1516 1.395 . S
C1518 C1521 1.403 . S
C1519 C1516 1.403 . S
C1519 C1520 1.524 . S
C1519 C1523 1.400 . S
C1520 H1505 0.960 . S
C1520 H1506 0.960 . S
C1520 H1507 0.960 . S
C1520 C1519 1.524 . S
C1521 C1518 1.403 . S
C1521 C1522 1.392 . S
C1521 C1525 1.495 . S
C1522 C1521 1.392 . S
C1522 C1523 1.385 . S
C1522 C1524 1.478 . S
C1523 H1517 0.930 . S
C1523 C1519 1.400 . S
C1523 C1522 1.385 . S
C1524 C1522 1.478 . S
C1524 C1526 1.381 . S
C1524 C1530 1.383 . S
C1525 C1521 1.495 . S
C1525 H1531 0.959 . S
C1525 H1532 0.961 . S
C1525 H1533 0.960 . S
C1526 C1524 1.381 . S
C1526 C1527 1.394 . S
C1526 H1534 0.930 . S
C1527 C1526 1.394 . S
C1527 C1528 1.383 . S
C1527 H1535 0.929 . S
C1528 C1527 1.383 . S
C1528 C1529 1.377 . S
C1529 H1513 0.930 . S
C1529 C1528 1.377 . S
C1529 C1530 1.379 . S
C1530 H1514 0.931 . S
C1530 C1524 1.383 . S
C1530 C1529 1.379 . S
H1531 C1525 0.959 . S
H1532 C1525 0.961 . S
H1533 C1525 0.960 . S
H1534 C1526 0.930 . S
H1535 C1527 0.929 . S
H1536 C1544 0.929 . S
H1537 C1546 0.930 . S
H1538 C1548 0.930 . S
H1539 C1551 0.929 . S
H1540 C1554 0.930 1_455 S
H1541 C1556 0.960 . S
H1542 C1556 0.960 . S
H1543 C1556 0.960 . S
C1544 H1536 0.929 . S
C1544 C1545 1.377 . S
C1544 C1546 1.384 . S
C1545 C1544 1.377 . S
C1545 C1551 1.390 . S
C1546 H1537 0.930 . S
C1546 C1544 1.384 . S
C1546 C1547 1.372 . S
C1547 C1546 1.372 . S
C1547 C1548 1.400 . S
C1547 C1552 1.490 . S
C1548 H1538 0.930 . S
C1548 C1547 1.400 . S
C1548 C1551 1.386 . S
H1549 C1565 0.930 . S
H1550 C1566 0.931 . S
C1551 H1539 0.929 . S
C1551 C1545 1.390 . S
C1551 C1548 1.386 . S
C1552 C1547 1.490 . S
C1552 C1554 1.395 . S
C1552 C1555 1.403 . S
H1553 C1559 0.930 . S
C1554 H1540 0.930 1_655 S
C1554 C1552 1.395 . S
C1554 C1557 1.383 1_655 S
C1555 C1552 1.403 . S
C1555 C1556 1.524 . S
C1555 C1559 1.400 . S
C1556 H1541 0.960 . S
C1556 H1542 0.960 . S
C1556 H1543 0.960 . S
C1556 C1555 1.524 . S
C1557 C1554 1.383 1_455 S
C1557 C1558 1.353 1_455 S
C1557 C1561 1.558 . S
C1558 C1557 1.353 1_655 S
C1558 C1559 1.385 . S
C1558 C1560 1.478 . S
C1559 H1553 0.930 . S
C1559 C1555 1.400 . S
C1559 C1558 1.385 . S
C1560 C1558 1.478 . S
C1560 C1562 1.381 . S
C1560 C1566 1.383 1_655 S
C1561 C1557 1.558 . S
C1561 H1567 0.959 . S
C1561 H1568 0.961 . S
C1561 H1569 0.960 . S
C1562 C1560 1.381 . S
C1562 C1563 1.394 . S
C1562 H1570 0.930 . S
C1563 C1562 1.394 . S
C1563 C1564 1.383 1_655 S
C1563 H1571 0.929 . S
C1564 C1563 1.383 1_455 S
C1564 C1565 1.377 . S
C1565 H1549 0.930 . S
C1565 C1564 1.377 . S
C1565 C1566 1.379 . S
C1566 H1550 0.931 . S
C1566 C1560 1.383 1_455 S
C1566 C1565 1.379 . S
H1567 C1561 0.959 . S
H1568 C1561 0.961 . S
H1569 C1561 0.960 . S
H1570 C1562 0.930 . S
H1571 C1563 0.929 . S
H1572 C1580 0.929 . S
H1573 C1582 0.930 . S
H1574 C1584 0.930 . S
H1575 C1587 0.929 . S
H1576 C1590 0.930 . S
H1577 C1592 0.960 . S
H1578 C1592 0.960 . S
H1579 C1592 0.960 1_655 S
C1580 H1572 0.929 . S
C1580 C1581 1.377 . S
C1580 C1582 1.384 . S
C1581 C1580 1.377 . S
C1581 C1587 1.390 . S
C1582 H1573 0.930 . S
C1582 C1580 1.384 . S
C1582 C1583 1.372 . S
C1583 C1582 1.372 . S
C1583 C1584 1.400 . S
C1583 C1588 1.490 . S
C1584 H1574 0.930 . S
C1584 C1583 1.400 . S
C1584 C1587 1.386 . S
H1585 C1601 0.930 . S
H1586 C1602 0.931 . S
C1587 H1575 0.929 . S
C1587 C1581 1.390 . S
C1587 C1584 1.386 . S
C1588 C1583 1.490 . S
C1588 C1590 1.395 . S
C1588 C1591 1.403 . S
H1589 C1595 0.930 1_455 S
C1590 H1576 0.930 . S
C1590 C1588 1.395 . S
C1590 C1593 1.403 . S
C1591 C1588 1.403 . S
C1591 C1592 1.524 1_655 S
C1591 C1595 1.400 . S
C1592 H1577 0.960 . S
C1592 H1578 0.960 . S
C1592 H1579 0.960 1_455 S
C1592 C1591 1.524 1_455 S
C1593 C1590 1.403 . S
C1593 C1594 1.392 . S
C1593 C1597 1.495 . S
C1594 C1593 1.392 . S
C1594 C1595 1.385 . S
C1594 C1596 1.478 . S
C1595 H1589 0.930 1_655 S
C1595 C1591 1.400 . S
C1595 C1594 1.385 . S
C1596 C1594 1.478 . S
C1596 C1598 1.383 1_655 S
C1596 C1602 1.383 . S
C1597 C1593 1.495 . S
C1597 H1603 0.959 . S
C1597 H1604 0.961 . S
C1597 H1605 0.960 . S
C1598 C1596 1.383 1_455 S
C1598 C1599 1.393 . S
C1598 H1606 0.929 . S
C1599 C1598 1.393 . S
C1599 C1600 1.394 . S
C1599 H1607 0.929 . S
C1600 C1599 1.394 . S
C1600 C1601 1.356 1_455 S
C1601 H1585 0.930 . S
C1601 C1600 1.356 1_655 S
C1601 C1602 1.379 . S
C1602 H1586 0.931 . S
C1602 C1596 1.383 . S
C1602 C1601 1.379 . S
H1603 C1597 0.959 . S
H1604 C1597 0.961 . S
H1605 C1597 0.960 . S
H1606 C1598 0.929 . S
H1607 C1599 0.929 . S
H1608 C1616 0.929 . S
H1609 C1618 0.930 . S
H1610 C1620 0.930 . S
H1611 C1623 0.929 . S
H1612 C1626 0.930 . S
H1613 C1628 0.960 . S
H1614 C1628 0.960 . S
H1615 C1628 0.960 . S
C1616 H1608 0.929 . S
C1616 C1617 1.377 . S
C1616 C1618 1.384 . S
C1617 C1616 1.377 . S
C1617 C1623 1.390 . S
C1618 H1609 0.930 . S
C1618 C1616 1.384 . S
C1618 C1619 1.372 . S
C1619 C1618 1.372 . S
C1619 C1620 1.400 . S
C1619 C1624 1.490 . S
C1620 H1610 0.930 . S
C1620 C1619 1.400 . S
C1620 C1623 1.386 . S
H1621 C1637 0.930 . S
H1622 C1638 0.931 . S
C1623 H1611 0.929 . S
C1623 C1617 1.390 . S
C1623 C1620 1.386 . S
C1624 C1619 1.490 . S
C1624 C1626 1.395 . S
C1624 C1627 1.403 . S
H1625 C1631 0.930 . S
C1626 H1612 0.930 . S
C1626 C1624 1.395 . S
C1626 C1629 1.403 . S
C1627 C1624 1.403 . S
C1627 C1628 1.524 . S
C1627 C1631 1.400 . S
C1628 H1613 0.960 . S
C1628 H1614 0.960 . S
C1628 H1615 0.960 . S
C1628 C1627 1.524 . S
C1629 C1626 1.403 . S
C1629 C1630 1.392 . S
C1629 C1633 1.495 . S
C1630 C1629 1.392 . S
C1630 C1631 1.385 . S
C1630 C1632 1.478 . S
C1631 H1625 0.930 . S
C1631 C1627 1.400 . S
C1631 C1630 1.385 . S
C1632 C1630 1.478 . S
C1632 C1634 1.381 . S
C1632 C1638 1.383 . S
C1633 C1629 1.495 . S
C1633 H1639 0.959 . S
C1633 H1640 0.961 . S
C1633 H1641 0.960 . S
C1634 C1632 1.381 . S
C1634 C1635 1.394 . S
C1634 H1642 0.930 . S
C1635 C1634 1.394 . S
C1635 C1636 1.383 . S
C1635 H1643 0.929 . S
C1636 C1635 1.383 . S
C1636 C1637 1.377 . S
C1637 H1621 0.930 . S
C1637 C1636 1.377 . S
C1637 C1638 1.379 . S
C1638 H1622 0.931 . S
C1638 C1632 1.383 . S
C1638 C1637 1.379 . S
H1639 C1633 0.959 . S
H1640 C1633 0.961 . S
H1641 C1633 0.960 . S
H1642 C1634 0.930 . S
H1643 C1635 0.929 . S
H1644 C1652 0.929 . S
H1645 C1654 0.930 . S
H1646 C1656 0.930 . S
H1647 C1659 0.929 . S
H1648 C1662 0.930 . S
H1649 C1664 0.960 . S
H1650 C1664 0.960 . S
H1651 C1664 0.960 . S
C1652 H1644 0.929 . S
C1652 C1653 1.377 . S
C1652 C1654 1.384 . S
C1653 C1652 1.377 . S
C1653 C1659 1.390 . S
C1654 H1645 0.930 . S
C1654 C1652 1.384 . S
C1654 C1655 1.372 . S
C1655 C1654 1.372 . S
C1655 C1656 1.400 . S
C1655 C1660 1.490 . S
C1656 H1646 0.930 . S
C1656 C1655 1.400 . S
C1656 C1659 1.386 . S
H1657 C1673 0.930 . S
H1658 C1674 0.931 . S
C1659 H1647 0.929 . S
C1659 C1653 1.390 . S
C1659 C1656 1.386 . S
C1660 C1655 1.490 . S
C1660 C1662 1.395 . S
C1660 C1663 1.403 . S
H1661 C1667 0.930 . S
C1662 H1648 0.930 . S
C1662 C1660 1.395 . S
C1662 C1665 1.403 . S
C1663 C1660 1.403 . S
C1663 C1664 1.524 . S
C1663 C1667 1.400 . S
C1664 H1649 0.960 . S
C1664 H1650 0.960 . S
C1664 H1651 0.960 . S
C1664 C1663 1.524 . S
C1665 C1662 1.403 . S
C1665 C1666 1.392 . S
C1665 C1669 1.495 . S
C1666 C1665 1.392 . S
C1666 C1667 1.385 . S
C1666 C1668 1.478 . S
C1667 H1661 0.930 . S
C1667 C1663 1.400 . S
C1667 C1666 1.385 . S
C1668 C1666 1.478 . S
C1668 C1670 1.381 . S
C1668 C1674 1.383 . S
C1669 C1665 1.495 . S
C1669 H1675 0.959 . S
C1669 H1676 0.961 . S
C1669 H1677 0.960 . S
C1670 C1668 1.381 . S
C1670 C1671 1.394 . S
C1670 H1678 0.930 . S
C1671 C1670 1.394 . S
C1671 C1672 1.383 . S
C1671 H1679 0.929 . S
C1672 C1671 1.383 . S
C1672 C1673 1.377 . S
C1673 H1657 0.930 . S
C1673 C1672 1.377 . S
C1673 C1674 1.379 . S
C1674 H1658 0.931 . S
C1674 C1668 1.383 . S
C1674 C1673 1.379 . S
H1675 C1669 0.959 . S
H1676 C1669 0.961 . S
H1677 C1669 0.960 . S
H1678 C1670 0.930 . S
H1679 C1671 0.929 . S
H1680 C1688 0.929 . S
H1681 C1690 0.930 . S
H1682 C1692 0.930 . S
H1683 C1695 0.929 . S
H1684 C1698 0.930 . S
H1685 C1700 0.960 . S
H1686 C1700 0.960 . S
H1687 C1700 0.960 . S
C1688 H1680 0.929 . S
C1688 C1689 1.317 1_565 S
C1688 C1690 1.384 . S
C1689 C1688 1.317 1_545 S
C1689 C1695 1.433 . S
C1690 H1681 0.930 . S
C1690 C1688 1.384 . S
C1690 C1691 1.372 . S
C1691 C1690 1.372 . S
C1691 C1692 1.400 1_565 S
C1691 C1696 1.490 . S
C1692 H1682 0.930 . S
C1692 C1691 1.400 1_545 S
C1692 C1695 1.386 . S
H1693 C1709 0.930 . S
H1694 C1710 0.931 . S
C1695 H1683 0.929 . S
C1695 C1689 1.433 . S
C1695 C1692 1.386 . S
C1696 C1691 1.490 . S
C1696 C1698 1.395 . S
C1696 C1699 1.403 . S
H1697 C1703 0.930 . S
C1698 H1684 0.930 . S
C1698 C1696 1.395 . S
C1698 C1701 1.403 . S
C1699 C1696 1.403 . S
C1699 C1700 1.524 . S
C1699 C1703 1.400 . S
C1700 H1685 0.960 . S
C1700 H1686 0.960 . S
C1700 H1687 0.960 . S
C1700 C1699 1.524 . S
C1701 C1698 1.403 . S
C1701 C1702 1.392 . S
C1701 C1705 1.495 . S
C1702 C1701 1.392 . S
C1702 C1703 1.385 . S
C1702 C1704 1.478 . S
C1703 H1697 0.930 . S
C1703 C1699 1.400 . S
C1703 C1702 1.385 . S
C1704 C1702 1.478 . S
C1704 C1706 1.381 . S
C1704 C1710 1.383 . S
C1705 C1701 1.495 . S
C1705 H1711 0.959 . S
C1705 H1712 0.961 . S
C1705 H1713 0.960 . S
C1706 C1704 1.381 . S
C1706 C1707 1.394 . S
C1706 H1714 0.930 . S
C1707 C1706 1.394 . S
C1707 C1708 1.383 . S
C1707 H1715 0.929 . S
C1708 C1707 1.383 . S
C1708 C1709 1.377 . S
C1709 H1693 0.930 . S
C1709 C1708 1.377 . S
C1709 C1710 1.379 . S
C1710 H1694 0.931 . S
C1710 C1704 1.383 . S
C1710 C1709 1.379 . S
H1711 C1705 0.959 . S
H1712 C1705 0.961 . S
H1713 C1705 0.960 . S
H1714 C1706 0.930 . S
H1715 C1707 0.929 . S
H1716 C1724 0.929 . S
H1717 C1726 0.930 . S
H1718 C1728 0.930 . S
H1719 C1731 0.929 . S
H1720 C1734 0.930 . S
H1721 C1736 0.960 . S
H1722 C1736 0.960 . S
H1723 C1736 0.960 . S
C1724 H1716 0.929 . S
C1724 C1725 1.377 . S
C1724 C1726 1.384 . S
C1725 C1724 1.377 . S
C1725 C1731 1.390 . S
C1726 H1717 0.930 . S
C1726 C1724 1.384 . S
C1726 C1727 1.372 . S
C1727 C1726 1.372 . S
C1727 C1728 1.400 . S
C1727 C1732 1.490 . S
C1728 H1718 0.930 . S
C1728 C1727 1.400 . S
C1728 C1731 1.386 . S
H1729 C1745 0.930 . S
H1730 C1746 0.931 . S
C1731 H1719 0.929 . S
C1731 C1725 1.390 . S
C1731 C1728 1.386 . S
C1732 C1727 1.490 . S
C1732 C1734 1.395 . S
C1732 C1735 1.403 . S
H1733 C1739 0.930 . S
C1734 H1720 0.930 . S
C1734 C1732 1.395 . S
C1734 C1737 1.403 . S
C1735 C1732 1.403 . S
C1735 C1736 1.524 . S
C1735 C1739 1.400 . S
C1736 H1721 0.960 . S
C1736 H1722 0.960 . S
C1736 H1723 0.960 . S
C1736 C1735 1.524 . S
C1737 C1734 1.403 . S
C1737 C1738 1.392 . S
C1737 C1741 1.495 . S
C1738 C1737 1.392 . S
C1738 C1739 1.385 . S
C1738 C1740 1.478 . S
C1739 H1733 0.930 . S
C1739 C1735 1.400 . S
C1739 C1738 1.385 . S
C1740 C1738 1.478 . S
C1740 C1742 1.381 . S
C1740 C1746 1.383 . S
C1741 C1737 1.495 . S
C1741 H1747 0.959 . S
C1741 H1748 0.961 . S
C1741 H1749 0.960 . S
C1742 C1740 1.381 . S
C1742 C1743 1.394 . S
C1742 H1750 0.930 . S
C1743 C1742 1.394 . S
C1743 C1744 1.383 . S
C1743 H1751 0.929 . S
C1744 C1743 1.383 . S
C1744 C1745 1.377 . S
C1745 H1729 0.930 . S
C1745 C1744 1.377 . S
C1745 C1746 1.379 . S
C1746 H1730 0.931 . S
C1746 C1740 1.383 . S
C1746 C1745 1.379 . S
H1747 C1741 0.959 . S
H1748 C1741 0.961 . S
H1749 C1741 0.960 . S
H1750 C1742 0.930 . S
H1751 C1743 0.929 . S
H1752 C1760 0.929 . S
H1753 C1762 0.930 . S
H1754 C1764 0.930 . S
H1755 C1767 0.929 . S
H1756 C1770 0.930 . S
H1757 C1772 0.960 . S
H1758 C1772 0.960 . S
H1759 C1772 0.960 . S
C1760 H1752 0.929 . S
C1760 C1761 1.377 . S
C1760 C1762 1.384 . S
C1761 C1760 1.377 . S
C1761 C1767 1.390 . S
C1762 H1753 0.930 . S
C1762 C1760 1.384 . S
C1762 C1763 1.372 . S
C1763 C1762 1.372 . S
C1763 C1764 1.400 . S
C1763 C1768 1.490 . S
C1764 H1754 0.930 . S
C1764 C1763 1.400 . S
C1764 C1767 1.386 . S
H1765 C1781 0.930 . S
H1766 C1782 0.931 . S
C1767 H1755 0.929 . S
C1767 C1761 1.390 . S
C1767 C1764 1.386 . S
C1768 C1763 1.490 . S
C1768 C1770 1.395 . S
C1768 C1771 1.403 . S
H1769 C1775 0.930 . S
C1770 H1756 0.930 . S
C1770 C1768 1.395 . S
C1770 C1773 1.403 . S
C1771 C1768 1.403 . S
C1771 C1772 1.524 . S
C1771 C1775 1.400 . S
C1772 H1757 0.960 . S
C1772 H1758 0.960 . S
C1772 H1759 0.960 . S
C1772 C1771 1.524 . S
C1773 C1770 1.403 . S
C1773 C1774 1.392 . S
C1773 C1777 1.495 . S
C1774 C1773 1.392 . S
C1774 C1775 1.385 . S
C1774 C1776 1.478 . S
C1775 H1769 0.930 . S
C1775 C1771 1.400 . S
C1775 C1774 1.385 . S
C1776 C1774 1.478 . S
C1776 C1778 1.381 . S
C1776 C1782 1.383 . S
C1777 C1773 1.495 . S
C1777 H1783 0.959 . S
C1777 H1784 0.961 . S
C1777 H1785 0.960 . S
C1778 C1776 1.381 . S
C1778 C1779 1.394 . S
C1778 H1786 0.930 . S
C1779 C1778 1.394 . S
C1779 C1780 1.383 . S
C1779 H1787 0.929 . S
C1780 C1779 1.383 . S
C1780 C1781 1.377 . S
C1781 H1765 0.930 . S
C1781 C1780 1.377 . S
C1781 C1782 1.379 . S
C1782 H1766 0.931 . S
C1782 C1776 1.383 . S
C1782 C1781 1.379 . S
H1783 C1777 0.959 . S
H1784 C1777 0.961 . S
H1785 C1777 0.960 . S
H1786 C1778 0.930 . S
H1787 C1779 0.929 . S
H1788 C1796 0.929 . S
H1789 C1798 0.930 . S
H1790 C1800 0.930 . S
H1791 C1803 0.929 . S
H1792 C1806 0.930 . S
H1793 C1808 0.960 . S
H1794 C1808 0.960 . S
H1795 C1808 0.960 . S
C1796 H1788 0.929 . S
C1796 C1797 1.377 . S
C1796 C1798 1.384 . S
C1797 C1796 1.377 . S
C1797 C1803 1.390 . S
C1798 H1789 0.930 . S
C1798 C1796 1.384 . S
C1798 C1799 1.372 . S
C1799 C1798 1.372 . S
C1799 C1800 1.400 . S
C1799 C1804 1.490 . S
C1800 H1790 0.930 . S
C1800 C1799 1.400 . S
C1800 C1803 1.386 . S
H1801 C1817 0.930 . S
H1802 C1818 0.931 . S
C1803 H1791 0.929 . S
C1803 C1797 1.390 . S
C1803 C1800 1.386 . S
C1804 C1799 1.490 . S
C1804 C1806 1.395 . S
C1804 C1807 1.403 . S
H1805 C1811 0.930 . S
C1806 H1792 0.930 . S
C1806 C1804 1.395 . S
C1806 C1809 1.403 . S
C1807 C1804 1.403 . S
C1807 C1808 1.524 . S
C1807 C1811 1.400 . S
C1808 H1793 0.960 . S
C1808 H1794 0.960 . S
C1808 H1795 0.960 . S
C1808 C1807 1.524 . S
C1809 C1806 1.403 . S
C1809 C1810 1.392 . S
C1809 C1813 1.495 . S
C1810 C1809 1.392 . S
C1810 C1811 1.385 . S
C1810 C1812 1.478 . S
C1811 H1805 0.930 . S
C1811 C1807 1.400 . S
C1811 C1810 1.385 . S
C1812 C1810 1.478 . S
C1812 C1814 1.381 . S
C1812 C1818 1.383 . S
C1813 C1809 1.495 . S
C1813 H1819 0.959 . S
C1813 H1820 0.961 . S
C1813 H1821 0.960 . S
C1814 C1812 1.381 . S
C1814 C1815 1.394 . S
C1814 H1822 0.930 . S
C1815 C1814 1.394 . S
C1815 C1816 1.383 . S
C1815 H1823 0.929 . S
C1816 C1815 1.383 . S
C1816 C1817 1.377 . S
C1817 H1801 0.930 . S
C1817 C1816 1.377 . S
C1817 C1818 1.379 . S
C1818 H1802 0.931 . S
C1818 C1812 1.383 . S
C1818 C1817 1.379 . S
H1819 C1813 0.959 . S
H1820 C1813 0.961 . S
H1821 C1813 0.960 . S
H1822 C1814 0.930 . S
H1823 C1815 0.929 . S
H1824 C1832 0.929 . S
H1825 C1834 0.930 . S
H1826 C1836 0.930 . S
H1827 C1839 0.929 . S
H1828 C1842 0.930 . S
H1829 C1844 0.960 . S
H1830 C1844 0.960 . S
H1831 C1844 0.960 . S
C1832 H1824 0.929 . S
C1832 C1833 1.377 . S
C1832 C1834 1.384 . S
C1833 C1832 1.377 . S
C1833 C1839 1.390 . S
C1834 H1825 0.930 . S
C1834 C1832 1.384 . S
C1834 C1835 1.372 . S
C1835 C1834 1.372 . S
C1835 C1836 1.400 . S
C1835 C1840 1.490 . S
C1836 H1826 0.930 . S
C1836 C1835 1.400 . S
C1836 C1839 1.386 . S
H1837 C1853 0.930 . S
H1838 C1854 0.931 . S
C1839 H1827 0.929 . S
C1839 C1833 1.390 . S
C1839 C1836 1.386 . S
C1840 C1835 1.490 . S
C1840 C1842 1.395 . S
C1840 C1843 1.403 . S
H1841 C1847 0.930 . S
C1842 H1828 0.930 . S
C1842 C1840 1.395 . S
C1842 C1845 1.403 . S
C1843 C1840 1.403 . S
C1843 C1844 1.524 . S
C1843 C1847 1.400 . S
C1844 H1829 0.960 . S
C1844 H1830 0.960 . S
C1844 H1831 0.960 . S
C1844 C1843 1.524 . S
C1845 C1842 1.403 . S
C1845 C1846 1.392 . S
C1845 C1849 1.495 . S
C1846 C1845 1.392 . S
C1846 C1847 1.385 . S
C1846 C1848 1.478 . S
C1847 H1841 0.930 . S
C1847 C1843 1.400 . S
C1847 C1846 1.385 . S
C1848 C1846 1.478 . S
C1848 C1850 1.381 . S
C1848 C1854 1.383 . S
C1849 C1845 1.495 . S
C1849 H1855 0.959 . S
C1849 H1856 0.961 . S
C1849 H1857 0.960 . S
C1850 C1848 1.381 . S
C1850 C1851 1.394 . S
C1850 H1858 0.930 . S
C1851 C1850 1.394 . S
C1851 C1852 1.383 . S
C1851 H1859 0.929 . S
C1852 C1851 1.383 . S
C1852 C1853 1.377 . S
C1853 H1837 0.930 . S
C1853 C1852 1.377 . S
C1853 C1854 1.379 . S
C1854 H1838 0.931 . S
C1854 C1848 1.383 . S
C1854 C1853 1.379 . S
H1855 C1849 0.959 . S
H1856 C1849 0.961 . S
H1857 C1849 0.960 . S
H1858 C1850 0.930 . S
H1859 C1851 0.929 . S
H1860 C1868 0.929 . S
H1861 C1870 0.930 . S
H1862 C1872 0.930 . S
H1863 C1875 0.929 . S
H1864 C1878 0.930 . S
H1865 C1880 0.960 . S
H1866 C1880 0.960 . S
H1867 C1880 0.960 . S
C1868 H1860 0.929 . S
C1868 C1869 1.377 . S
C1868 C1870 1.384 . S
C1869 C1868 1.377 . S
C1869 C1875 1.390 . S
C1870 H1861 0.930 . S
C1870 C1868 1.384 . S
C1870 C1871 1.372 . S
C1871 C1870 1.372 . S
C1871 C1872 1.400 . S
C1871 C1876 1.490 . S
C1872 H1862 0.930 . S
C1872 C1871 1.400 . S
C1872 C1875 1.386 . S
H1873 C1889 0.930 . S
H1874 C1890 0.931 . S
C1875 H1863 0.929 . S
C1875 C1869 1.390 . S
C1875 C1872 1.386 . S
C1876 C1871 1.490 . S
C1876 C1878 1.395 . S
C1876 C1879 1.403 . S
H1877 C1883 0.930 . S
C1878 H1864 0.930 . S
C1878 C1876 1.395 . S
C1878 C1881 1.403 . S
C1879 C1876 1.403 . S
C1879 C1880 1.524 . S
C1879 C1883 1.400 . S
C1880 H1865 0.960 . S
C1880 H1866 0.960 . S
C1880 H1867 0.960 . S
C1880 C1879 1.524 . S
C1881 C1878 1.403 . S
C1881 C1882 1.392 . S
C1881 C1885 1.495 . S
C1882 C1881 1.392 . S
C1882 C1883 1.385 . S
C1882 C1884 1.478 . S
C1883 H1877 0.930 . S
C1883 C1879 1.400 . S
C1883 C1882 1.385 . S
C1884 C1882 1.478 . S
C1884 C1886 1.381 . S
C1884 C1890 1.383 . S
C1885 C1881 1.495 . S
C1885 H1891 0.959 . S
C1885 H1892 0.961 . S
C1885 H1893 0.960 . S
C1886 C1884 1.381 . S
C1886 C1887 1.394 . S
C1886 H1894 0.930 . S
C1887 C1886 1.394 . S
C1887 C1888 1.383 . S
C1887 H1895 0.929 . S
C1888 C1887 1.383 . S
C1888 C1889 1.377 . S
C1889 H1873 0.930 . S
C1889 C1888 1.377 . S
C1889 C1890 1.379 . S
C1890 H1874 0.931 . S
C1890 C1884 1.383 . S
C1890 C1889 1.379 . S
H1891 C1885 0.959 . S
H1892 C1885 0.961 . S
H1893 C1885 0.960 . S
H1894 C1886 0.930 . S
H1895 C1887 0.929 . S
H1896 C1904 0.929 . S
H1897 C1906 0.930 . S
H1898 C1908 0.930 . S
H1899 C1911 0.929 . S
H1900 C1914 0.930 . S
H1901 C1916 0.937 1_545 S
H1902 C1916 0.930 1_545 S
H1903 C1916 0.996 . S
C1904 H1896 0.929 . S
C1904 C1905 1.377 . S
C1904 C1906 1.384 . S
C1905 C1904 1.377 . S
C1905 C1911 1.390 . S
C1906 H1897 0.930 . S
C1906 C1904 1.384 . S
C1906 C1907 1.372 . S
C1907 C1906 1.372 . S
C1907 C1908 1.400 . S
C1907 C1912 1.490 . S
C1908 H1898 0.930 . S
C1908 C1907 1.400 . S
C1908 C1911 1.386 . S
H1909 C1925 0.930 . S
H1910 C1926 0.931 . S
C1911 H1899 0.929 . S
C1911 C1905 1.390 . S
C1911 C1908 1.386 . S
C1912 C1907 1.490 . S
C1912 C1914 1.395 . S
C1912 C1915 1.403 . S
H1913 C1919 0.921 1_545 S
C1914 H1900 0.930 . S
C1914 C1912 1.395 . S
C1914 C1917 1.403 . S
C1915 C1912 1.403 . S
C1915 C1916 1.544 . S
C1915 C1919 1.400 . S
C1916 H1901 0.937 1_565 S
C1916 H1902 0.930 1_565 S
C1916 H1903 0.996 . S
C1916 C1915 1.544 . S
C1917 C1914 1.403 . S
C1917 C1918 1.392 . S
C1917 C1921 1.495 . S
C1918 C1917 1.392 . S
C1918 C1919 1.385 . S
C1918 C1920 1.478 . S
C1919 H1913 0.921 1_565 S
C1919 C1915 1.400 . S
C1919 C1918 1.385 . S
C1920 C1918 1.478 . S
C1920 C1922 1.381 1_565 S
C1920 C1926 1.383 . S
C1921 C1917 1.495 . S
C1921 H1927 0.959 . S
C1921 H1928 0.961 . S
C1921 H1929 0.960 . S
C1922 C1920 1.381 1_545 S
C1922 C1923 1.394 . S
C1922 H1930 0.930 . S
C1923 C1922 1.394 . S
C1923 C1924 1.403 . S
C1923 H1931 0.929 . S
C1924 C1923 1.403 . S
C1924 C1925 1.345 1_545 S
C1925 H1909 0.930 . S
C1925 C1924 1.345 1_565 S
C1925 C1926 1.379 . S
C1926 H1910 0.931 . S
C1926 C1920 1.383 . S
C1926 C1925 1.379 . S
H1927 C1921 0.959 . S
H1928 C1921 0.961 . S
H1929 C1921 0.960 . S
H1930 C1922 0.930 . S
H1931 C1923 0.929 . S
H1932 C1940 0.929 . S
H1933 C1942 0.930 . S
H1934 C1944 0.930 . S
H1935 C1947 0.929 . S
H1936 C1950 0.930 . S
H1937 C1952 0.960 . S
H1938 C1952 0.960 1_554 S
H1939 C1952 0.960 . S
C1940 H1932 0.929 . S
C1940 C1941 1.377 . S
C1940 C1942 1.384 . S
C1941 C1940 1.377 . S
C1941 C1947 1.390 1_554 S
C1942 H1933 0.930 . S
C1942 C1940 1.384 . S
C1942 C1943 1.372 1_554 S
C1943 C1942 1.372 1_556 S
C1943 C1944 1.400 . S
C1943 C1948 1.490 . S
C1944 H1934 0.930 . S
C1944 C1943 1.400 . S
C1944 C1947 1.386 . S
H1945 C1961 0.930 . S
H1946 C1962 0.931 . S
C1947 H1935 0.929 . S
C1947 C1941 1.390 1_556 S
C1947 C1944 1.386 . S
C1948 C1943 1.490 . S
C1948 C1950 1.395 . S
C1948 C1951 1.403 . S
H1949 C1955 0.930 . S
C1950 H1936 0.930 . S
C1950 C1948 1.395 . S
C1950 C1953 1.403 . S
C1951 C1948 1.403 . S
C1951 C1952 1.524 . S
C1951 C1955 1.400 . S
C1952 H1937 0.960 . S
C1952 H1938 0.960 1_556 S
C1952 H1939 0.960 . S
C1952 C1951 1.524 . S
C1953 C1950 1.403 . S
C1953 C1954 1.392 . S
C1953 C1957 1.495 . S
C1954 C1953 1.392 . S
C1954 C1955 1.385 . S
C1954 C1956 1.478 . S
C1955 H1949 0.930 . S
C1955 C1951 1.400 . S
C1955 C1954 1.385 . S
C1956 C1954 1.478 . S
C1956 C1958 1.381 . S
C1956 C1962 1.383 . S
C1957 C1953 1.495 . S
C1957 H1963 0.959 . S
C1957 H1964 0.961 . S
C1957 H1965 0.960 . S
C1958 C1956 1.381 . S
C1958 C1959 1.394 . S
C1958 H1966 0.930 . S
C1959 C1958 1.394 . S
C1959 C1960 1.383 . S
C1959 H1967 0.929 . S
C1960 C1959 1.383 . S
C1960 C1961 1.377 . S
C1961 H1945 0.930 . S
C1961 C1960 1.377 . S
C1961 C1962 1.379 . S
C1962 H1946 0.931 . S
C1962 C1956 1.383 . S
C1962 C1961 1.379 . S
H1963 C1957 0.959 . S
H1964 C1957 0.961 . S
H1965 C1957 0.960 . S
H1966 C1958 0.930 . S
H1967 C1959 0.929 . S
H1968 C1976 0.929 . S
H1969 C1978 0.930 . S
H1970 C1980 0.930 . S
H1971 C1983 0.929 . S
H1972 C1986 0.930 . S
H1973 C1988 0.960 . S
H1974 C1988 0.960 . S
H1975 C1988 0.960 . S
C1976 H1968 0.929 . S
C1976 C1977 1.377 . S
C1976 C1978 1.384 . S
C1977 C1976 1.377 . S
C1977 C1983 1.390 . S
C1978 H1969 0.930 . S
C1978 C1976 1.384 . S
C1978 C1979 1.372 . S
C1979 C1978 1.372 . S
C1979 C1980 1.400 . S
C1979 C1984 1.490 . S
C1980 H1970 0.930 . S
C1980 C1979 1.400 . S
C1980 C1983 1.386 . S
H1981 C1997 0.930 . S
H1982 C1998 0.931 . S
C1983 H1971 0.929 . S
C1983 C1977 1.390 . S
C1983 C1980 1.386 . S
C1984 C1979 1.490 . S
C1984 C1986 1.395 . S
C1984 C1987 1.403 . S
H1985 C1991 0.930 . S
C1986 H1972 0.930 . S
C1986 C1984 1.395 . S
C1986 C1989 1.403 . S
C1987 C1984 1.403 . S
C1987 C1988 1.524 . S
C1987 C1991 1.400 . S
C1988 H1973 0.960 . S
C1988 H1974 0.960 . S
C1988 H1975 0.960 . S
C1988 C1987 1.524 . S
C1989 C1986 1.403 . S
C1989 C1990 1.392 . S
C1989 C1993 1.495 . S
C1990 C1989 1.392 . S
C1990 C1991 1.385 . S
C1990 C1992 1.478 . S
C1991 H1985 0.930 . S
C1991 C1987 1.400 . S
C1991 C1990 1.385 . S
C1992 C1990 1.478 . S
C1992 C1994 1.381 . S
C1992 C1998 1.383 . S
C1993 C1989 1.495 . S
C1993 H1999 0.959 . S
C1993 H2000 0.961 . S
C1993 H2001 0.960 . S
C1994 C1992 1.381 . S
C1994 C1995 1.394 . S
C1994 H2002 0.930 . S
C1995 C1994 1.394 . S
C1995 C1996 1.383 . S
C1995 H2003 0.929 . S
C1996 C1995 1.383 . S
C1996 C1997 1.377 . S
C1997 H1981 0.930 . S
C1997 C1996 1.377 . S
C1997 C1998 1.379 . S
C1998 H1982 0.931 . S
C1998 C1992 1.383 . S
C1998 C1997 1.379 . S
H1999 C1993 0.959 . S
H2000 C1993 0.961 . S
H2001 C1993 0.960 . S
H2002 C1994 0.930 . S
H2003 C1995 0.929 . S
H2004 C2012 0.929 . S
H2005 C2014 0.930 . S
H2006 C2016 0.930 . S
H2007 C2019 0.929 . S
H2008 C2022 0.930 . S
H2009 C2024 0.960 . S
H2010 C2024 0.960 . S
H2011 C2024 0.960 . S
C2012 H2004 0.929 . S
C2012 C2013 1.377 . S
C2012 C2014 1.384 . S
C2013 C2012 1.377 . S
C2013 C2019 1.390 . S
C2014 H2005 0.930 . S
C2014 C2012 1.384 . S
C2014 C2015 1.372 . S
C2015 C2014 1.372 . S
C2015 C2016 1.400 . S
C2015 C2020 1.490 . S
C2016 H2006 0.930 . S
C2016 C2015 1.400 . S
C2016 C2019 1.386 . S
H2017 C2033 0.930 . S
H2018 C2034 0.931 . S
C2019 H2007 0.929 . S
C2019 C2013 1.390 . S
C2019 C2016 1.386 . S
C2020 C2015 1.490 . S
C2020 C2022 1.395 . S
C2020 C2023 1.403 . S
H2021 C2027 0.930 . S
C2022 H2008 0.930 . S
C2022 C2020 1.395 . S
C2022 C2025 1.403 . S
C2023 C2020 1.403 . S
C2023 C2024 1.524 . S
C2023 C2027 1.400 . S
C2024 H2009 0.960 . S
C2024 H2010 0.960 . S
C2024 H2011 0.960 . S
C2024 C2023 1.524 . S
C2025 C2022 1.403 . S
C2025 C2026 1.392 . S
C2025 C2029 1.495 . S
C2026 C2025 1.392 . S
C2026 C2027 1.385 . S
C2026 C2028 1.478 . S
C2027 H2021 0.930 . S
C2027 C2023 1.400 . S
C2027 C2026 1.385 . S
C2028 C2026 1.478 . S
C2028 C2030 1.381 . S
C2028 C2034 1.383 . S
C2029 C2025 1.495 . S
C2029 H2035 0.959 . S
C2029 H2036 0.961 . S
C2029 H2037 0.960 . S
C2030 C2028 1.381 . S
C2030 C2031 1.394 . S
C2030 H2038 0.930 . S
C2031 C2030 1.394 . S
C2031 C2032 1.383 . S
C2031 H2039 0.929 . S
C2032 C2031 1.383 . S
C2032 C2033 1.377 . S
C2033 H2017 0.930 . S
C2033 C2032 1.377 . S
C2033 C2034 1.379 . S
C2034 H2018 0.931 . S
C2034 C2028 1.383 . S
C2034 C2033 1.379 . S
H2035 C2029 0.959 . S
H2036 C2029 0.961 . S
H2037 C2029 0.960 . S
H2038 C2030 0.930 . S
H2039 C2031 0.929 . S
H2040 C2048 0.929 . S
H2041 C2050 0.930 . S
H2042 C2052 0.930 . S
H2043 C2055 0.929 . S
H2044 C2058 0.930 . S
H2045 C2060 0.960 . S
H2046 C2060 0.960 . S
H2047 C2060 0.960 . S
C2048 H2040 0.929 . S
C2048 C2049 1.377 . S
C2048 C2050 1.384 . S
C2049 C2048 1.377 . S
C2049 C2055 1.390 . S
C2050 H2041 0.930 . S
C2050 C2048 1.384 . S
C2050 C2051 1.372 . S
C2051 C2050 1.372 . S
C2051 C2052 1.400 . S
C2051 C2056 1.490 . S
C2052 H2042 0.930 . S
C2052 C2051 1.400 . S
C2052 C2055 1.386 . S
H2053 C2069 0.930 . S
H2054 C2070 0.931 . S
C2055 H2043 0.929 . S
C2055 C2049 1.390 . S
C2055 C2052 1.386 . S
C2056 C2051 1.490 . S
C2056 C2058 1.395 . S
C2056 C2059 1.403 . S
H2057 C2063 0.930 . S
C2058 H2044 0.930 . S
C2058 C2056 1.395 . S
C2058 C2061 1.403 . S
C2059 C2056 1.403 . S
C2059 C2060 1.524 . S
C2059 C2063 1.400 . S
C2060 H2045 0.960 . S
C2060 H2046 0.960 . S
C2060 H2047 0.960 . S
C2060 C2059 1.524 . S
C2061 C2058 1.403 . S
C2061 C2062 1.392 . S
C2061 C2065 1.495 . S
C2062 C2061 1.392 . S
C2062 C2063 1.385 . S
C2062 C2064 1.478 . S
C2063 H2057 0.930 . S
C2063 C2059 1.400 . S
C2063 C2062 1.385 . S
C2064 C2062 1.478 . S
C2064 C2066 1.381 . S
C2064 C2070 1.383 . S
C2065 C2061 1.495 . S
C2065 H2071 0.959 . S
C2065 H2072 0.961 . S
C2065 H2073 0.960 . S
C2066 C2064 1.381 . S
C2066 C2067 1.394 . S
C2066 H2074 0.930 . S
C2067 C2066 1.394 . S
C2067 C2068 1.383 . S
C2067 H2075 0.929 . S
C2068 C2067 1.383 . S
C2068 C2069 1.377 . S
C2069 H2053 0.930 . S
C2069 C2068 1.377 . S
C2069 C2070 1.379 . S
C2070 H2054 0.931 . S
C2070 C2064 1.383 . S
C2070 C2069 1.379 . S
H2071 C2065 0.959 . S
H2072 C2065 0.961 . S
H2073 C2065 0.960 . S
H2074 C2066 0.930 . S
H2075 C2067 0.929 . S
H2076 C2084 0.929 . S
H2077 C2086 0.930 . S
H2078 C2088 0.930 . S
H2079 C2091 0.929 . S
H2080 C2094 0.930 . S
H2081 C2096 0.960 . S
H2082 C2096 0.960 . S
H2083 C2096 0.960 . S
C2084 H2076 0.929 . S
C2084 C2085 1.377 . S
C2084 C2086 1.384 . S
C2085 C2084 1.377 . S
C2085 C2091 1.390 . S
C2086 H2077 0.930 . S
C2086 C2084 1.384 . S
C2086 C2087 1.372 . S
C2087 C2086 1.372 . S
C2087 C2088 1.400 . S
C2087 C2092 1.490 . S
C2088 H2078 0.930 . S
C2088 C2087 1.400 . S
C2088 C2091 1.386 . S
H2089 C2105 0.930 . S
H2090 C2106 0.931 . S
C2091 H2079 0.929 . S
C2091 C2085 1.390 . S
C2091 C2088 1.386 . S
C2092 C2087 1.490 . S
C2092 C2094 1.395 . S
C2092 C2095 1.403 . S
H2093 C2099 0.930 . S
C2094 H2080 0.930 . S
C2094 C2092 1.395 . S
C2094 C2097 1.403 . S
C2095 C2092 1.403 . S
C2095 C2096 1.524 . S
C2095 C2099 1.400 . S
C2096 H2081 0.960 . S
C2096 H2082 0.960 . S
C2096 H2083 0.960 . S
C2096 C2095 1.524 . S
C2097 C2094 1.403 . S
C2097 C2098 1.392 . S
C2097 C2101 1.495 . S
C2098 C2097 1.392 . S
C2098 C2099 1.385 . S
C2098 C2100 1.478 . S
C2099 H2093 0.930 . S
C2099 C2095 1.400 . S
C2099 C2098 1.385 . S
C2100 C2098 1.478 . S
C2100 C2102 1.381 . S
C2100 C2106 1.383 . S
C2101 C2097 1.495 . S
C2101 H2107 0.959 . S
C2101 H2108 0.961 . S
C2101 H2109 0.960 . S
C2102 C2100 1.381 . S
C2102 C2103 1.394 . S
C2102 H2110 0.930 . S
C2103 C2102 1.394 . S
C2103 C2104 1.383 . S
C2103 H2111 0.929 . S
C2104 C2103 1.383 . S
C2104 C2105 1.377 . S
C2105 H2089 0.930 . S
C2105 C2104 1.377 . S
C2105 C2106 1.379 . S
C2106 H2090 0.931 . S
C2106 C2100 1.383 . S
C2106 C2105 1.379 . S
H2107 C2101 0.959 . S
H2108 C2101 0.961 . S
H2109 C2101 0.960 . S
H2110 C2102 0.930 . S
H2111 C2103 0.929 . S
H2112 C2120 0.929 . S
H2113 C2122 0.930 . S
H2114 C2124 0.930 . S
H2115 C2127 0.929 . S
H2116 C2130 0.930 . S
H2117 C2132 0.960 . S
H2118 C2132 0.960 . S
H2119 C2132 0.960 . S
C2120 H2112 0.929 . S
C2120 C2121 1.377 . S
C2120 C2122 1.384 . S
C2121 C2120 1.377 . S
C2121 C2127 1.390 . S
C2122 H2113 0.930 . S
C2122 C2120 1.384 . S
C2122 C2123 1.372 . S
C2123 C2122 1.372 . S
C2123 C2124 1.400 . S
C2123 C2128 1.490 . S
C2124 H2114 0.930 . S
C2124 C2123 1.400 . S
C2124 C2127 1.386 . S
H2125 C2141 0.930 . S
H2126 C2142 0.931 . S
C2127 H2115 0.929 . S
C2127 C2121 1.390 . S
C2127 C2124 1.386 . S
C2128 C2123 1.490 . S
C2128 C2130 1.395 . S
C2128 C2131 1.403 . S
H2129 C2135 0.930 . S
C2130 H2116 0.930 . S
C2130 C2128 1.395 . S
C2130 C2133 1.403 . S
C2131 C2128 1.403 . S
C2131 C2132 1.524 . S
C2131 C2135 1.400 . S
C2132 H2117 0.960 . S
C2132 H2118 0.960 . S
C2132 H2119 0.960 . S
C2132 C2131 1.524 . S
C2133 C2130 1.403 . S
C2133 C2134 1.392 . S
C2133 C2137 1.495 . S
C2134 C2133 1.392 . S
C2134 C2135 1.385 . S
C2134 C2136 1.478 . S
C2135 H2129 0.930 . S
C2135 C2131 1.400 . S
C2135 C2134 1.385 . S
C2136 C2134 1.478 . S
C2136 C2138 1.381 . S
C2136 C2142 1.383 . S
C2137 C2133 1.495 . S
C2137 H2143 0.959 . S
C2137 H2144 0.961 . S
C2137 H2145 0.960 . S
C2138 C2136 1.381 . S
C2138 C2139 1.394 . S
C2138 H2146 0.930 . S
C2139 C2138 1.394 . S
C2139 C2140 1.383 . S
C2139 H2147 0.929 . S
C2140 C2139 1.383 . S
C2140 C2141 1.377 . S
C2141 H2125 0.930 . S
C2141 C2140 1.377 . S
C2141 C2142 1.379 . S
C2142 H2126 0.931 . S
C2142 C2136 1.383 . S
C2142 C2141 1.379 . S
H2143 C2137 0.959 . S
H2144 C2137 0.961 . S
H2145 C2137 0.960 . S
H2146 C2138 0.930 . S
H2147 C2139 0.929 . S
H2148 C2156 0.929 . S
H2149 C2158 0.930 . S
H2150 C2160 0.930 . S
H2151 C2163 0.929 . S
H2152 C2166 0.930 . S
H2153 C2168 0.960 . S
H2154 C2168 0.960 . S
H2155 C2168 0.960 . S
C2156 H2148 0.929 . S
C2156 C2157 1.377 . S
C2156 C2158 1.384 . S
C2157 C2156 1.377 . S
C2157 C2163 1.390 . S
C2158 H2149 0.930 . S
C2158 C2156 1.384 . S
C2158 C2159 1.372 . S
C2159 C2158 1.372 . S
C2159 C2160 1.400 . S
C2159 C2164 1.490 . S
C2160 H2150 0.930 . S
C2160 C2159 1.400 . S
C2160 C2163 1.386 . S
H2161 C2177 0.930 . S
H2162 C2178 0.931 . S
C2163 H2151 0.929 . S
C2163 C2157 1.390 . S
C2163 C2160 1.386 . S
C2164 C2159 1.490 . S
C2164 C2166 1.395 . S
C2164 C2167 1.403 . S
H2165 C2171 0.930 . S
C2166 H2152 0.930 . S
C2166 C2164 1.395 . S
C2166 C2169 1.403 . S
C2167 C2164 1.403 . S
C2167 C2168 1.524 . S
C2167 C2171 1.400 . S
C2168 H2153 0.960 . S
C2168 H2154 0.960 . S
C2168 H2155 0.960 . S
C2168 C2167 1.524 . S
C2169 C2166 1.403 . S
C2169 C2170 1.392 . S
C2169 C2173 1.495 . S
C2170 C2169 1.392 . S
C2170 C2171 1.385 . S
C2170 C2172 1.478 . S
C2171 H2165 0.930 . S
C2171 C2167 1.400 . S
C2171 C2170 1.385 . S
C2172 C2170 1.478 . S
C2172 C2174 1.381 . S
C2172 C2178 1.383 . S
C2173 C2169 1.495 . S
C2173 H2179 0.959 . S
C2173 H2180 0.961 . S
C2173 H2181 0.960 . S
C2174 C2172 1.381 . S
C2174 C2175 1.394 . S
C2174 H2182 0.930 . S
C2175 C2174 1.394 . S
C2175 C2176 1.383 . S
C2175 H2183 0.929 . S
C2176 C2175 1.383 . S
C2176 C2177 1.377 . S
C2177 H2161 0.930 . S
C2177 C2176 1.377 . S
C2177 C2178 1.379 . S
C2178 H2162 0.931 . S
C2178 C2172 1.383 . S
C2178 C2177 1.379 . S
H2179 C2173 0.959 . S
H2180 C2173 0.961 . S
H2181 C2173 0.960 . S
H2182 C2174 0.930 . S
H2183 C2175 0.929 . S
H2184 C2192 0.929 . S
H2185 C2194 0.930 . S
H2186 C2196 0.930 . S
H2187 C2199 0.929 . S
H2188 C2202 0.930 . S
H2189 C2204 0.960 . S
H2190 C2204 0.960 . S
H2191 C2204 0.960 . S
C2192 H2184 0.929 . S
C2192 C2193 1.377 . S
C2192 C2194 1.384 . S
C2193 C2192 1.377 . S
C2193 C2199 1.390 . S
C2194 H2185 0.930 . S
C2194 C2192 1.384 . S
C2194 C2195 1.372 . S
C2195 C2194 1.372 . S
C2195 C2196 1.400 . S
C2195 C2200 1.490 . S
C2196 H2186 0.930 . S
C2196 C2195 1.400 . S
C2196 C2199 1.386 . S
H2197 C2213 0.930 . S
H2198 C2214 0.931 . S
C2199 H2187 0.929 . S
C2199 C2193 1.390 . S
C2199 C2196 1.386 . S
C2200 C2195 1.490 . S
C2200 C2202 1.395 . S
C2200 C2203 1.403 . S
H2201 C2207 0.930 . S
C2202 H2188 0.930 . S
C2202 C2200 1.395 . S
C2202 C2205 1.403 . S
C2203 C2200 1.403 . S
C2203 C2204 1.524 . S
C2203 C2207 1.400 . S
C2204 H2189 0.960 . S
C2204 H2190 0.960 . S
C2204 H2191 0.960 . S
C2204 C2203 1.524 . S
C2205 C2202 1.403 . S
C2205 C2206 1.392 . S
C2205 C2209 1.495 . S
C2206 C2205 1.392 . S
C2206 C2207 1.385 . S
C2206 C2208 1.478 . S
C2207 H2201 0.930 . S
C2207 C2203 1.400 . S
C2207 C2206 1.385 . S
C2208 C2206 1.478 . S
C2208 C2210 1.381 . S
C2208 C2214 1.383 . S
C2209 C2205 1.495 . S
C2209 H2215 0.959 . S
C2209 H2216 0.961 . S
C2209 H2217 0.960 . S
C2210 C2208 1.381 . S
C2210 C2211 1.394 . S
C2210 H2218 0.930 . S
C2211 C2210 1.394 . S
C2211 C2212 1.383 . S
C2211 H2219 0.929 . S
C2212 C2211 1.383 . S
C2212 C2213 1.377 . S
C2213 H2197 0.930 . S
C2213 C2212 1.377 . S
C2213 C2214 1.379 . S
C2214 H2198 0.931 . S
C2214 C2208 1.383 . S
C2214 C2213 1.379 . S
H2215 C2209 0.959 . S
H2216 C2209 0.961 . S
H2217 C2209 0.960 . S
H2218 C2210 0.930 . S
H2219 C2211 0.929 . S
H2220 C2228 0.929 . S
H2221 C2230 0.930 . S
H2222 C2232 0.930 . S
H2223 C2235 0.929 . S
H2224 C2238 0.930 . S
H2225 C2240 0.960 . S
H2226 C2240 0.960 . S
H2227 C2240 0.960 . S
C2228 H2220 0.929 . S
C2228 C2229 1.377 . S
C2228 C2230 1.384 . S
C2229 C2228 1.377 . S
C2229 C2235 1.390 . S
C2230 H2221 0.930 . S
C2230 C2228 1.384 . S
C2230 C2231 1.372 . S
C2231 C2230 1.372 . S
C2231 C2232 1.400 . S
C2231 C2236 1.490 . S
C2232 H2222 0.930 . S
C2232 C2231 1.400 . S
C2232 C2235 1.386 . S
H2233 C2249 0.930 . S
H2234 C2250 0.931 . S
C2235 H2223 0.929 . S
C2235 C2229 1.390 . S
C2235 C2232 1.386 . S
C2236 C2231 1.490 . S
C2236 C2238 1.395 . S
C2236 C2239 1.403 . S
H2237 C2243 0.930 . S
C2238 H2224 0.930 . S
C2238 C2236 1.395 . S
C2238 C2241 1.403 . S
C2239 C2236 1.403 . S
C2239 C2240 1.524 . S
C2239 C2243 1.400 . S
C2240 H2225 0.960 . S
C2240 H2226 0.960 . S
C2240 H2227 0.960 . S
C2240 C2239 1.524 . S
C2241 C2238 1.403 . S
C2241 C2242 1.392 . S
C2241 C2245 1.495 . S
C2242 C2241 1.392 . S
C2242 C2243 1.385 . S
C2242 C2244 1.478 . S
C2243 H2237 0.930 . S
C2243 C2239 1.400 . S
C2243 C2242 1.385 . S
C2244 C2242 1.478 . S
C2244 C2246 1.381 . S
C2244 C2250 1.383 . S
C2245 C2241 1.495 . S
C2245 H2251 0.959 . S
C2245 H2252 0.961 . S
C2245 H2253 0.960 . S
C2246 C2244 1.381 . S
C2246 C2247 1.394 . S
C2246 H2254 0.930 . S
C2247 C2246 1.394 . S
C2247 C2248 1.383 . S
C2247 H2255 0.929 . S
C2248 C2247 1.383 . S
C2248 C2249 1.377 . S
C2249 H2233 0.930 . S
C2249 C2248 1.377 . S
C2249 C2250 1.379 . S
C2250 H2234 0.931 . S
C2250 C2244 1.383 . S
C2250 C2249 1.379 . S
H2251 C2245 0.959 . S
H2252 C2245 0.961 . S
H2253 C2245 0.960 . S
H2254 C2246 0.930 . S
H2255 C2247 0.929 . S
H2256 C2264 0.929 . S
H2257 C2266 0.930 . S
H2258 C2268 0.930 . S
H2259 C2271 0.929 . S
H2260 C2274 0.930 . S
H2261 C2276 0.960 . S
H2262 C2276 0.960 . S
H2263 C2276 0.960 . S
C2264 H2256 0.929 . S
C2264 C2265 1.377 . S
C2264 C2266 1.384 . S
C2265 C2264 1.377 . S
C2265 C2271 1.390 . S
C2266 H2257 0.930 . S
C2266 C2264 1.384 . S
C2266 C2267 1.372 . S
C2267 C2266 1.372 . S
C2267 C2268 1.400 . S
C2267 C2272 1.490 . S
C2268 H2258 0.930 . S
C2268 C2267 1.400 . S
C2268 C2271 1.386 . S
H2269 C2285 0.930 . S
H2270 C2286 0.931 . S
C2271 H2259 0.929 . S
C2271 C2265 1.390 . S
C2271 C2268 1.386 . S
C2272 C2267 1.490 . S
C2272 C2274 1.395 . S
C2272 C2275 1.403 . S
H2273 C2279 0.930 . S
C2274 H2260 0.930 . S
C2274 C2272 1.395 . S
C2274 C2277 1.403 . S
C2275 C2272 1.403 . S
C2275 C2276 1.524 . S
C2275 C2279 1.400 . S
C2276 H2261 0.960 . S
C2276 H2262 0.960 . S
C2276 H2263 0.960 . S
C2276 C2275 1.524 . S
C2277 C2274 1.403 . S
C2277 C2278 1.392 . S
C2277 C2281 1.495 . S
C2278 C2277 1.392 . S
C2278 C2279 1.385 . S
C2278 C2280 1.478 . S
C2279 H2273 0.930 . S
C2279 C2275 1.400 . S
C2279 C2278 1.385 . S
C2280 C2278 1.478 . S
C2280 C2282 1.381 . S
C2280 C2286 1.383 . S
C2281 C2277 1.495 . S
C2281 H2287 0.959 . S
C2281 H2288 0.961 . S
C2281 H2289 0.960 . S
C2282 C2280 1.381 . S
C2282 C2283 1.394 . S
C2282 H2290 0.930 . S
C2283 C2282 1.394 . S
C2283 C2284 1.383 . S
C2283 H2291 0.929 . S
C2284 C2283 1.383 . S
C2284 C2285 1.377 . S
C2285 H2269 0.930 . S
C2285 C2284 1.377 . S
C2285 C2286 1.379 . S
C2286 H2270 0.931 . S
C2286 C2280 1.383 . S
C2286 C2285 1.379 . S
H2287 C2281 0.959 . S
H2288 C2281 0.961 . S
H2289 C2281 0.960 . S
H2290 C2282 0.930 . S
H2291 C2283 0.929 . S
H2292 C2300 0.929 . S
H2293 C2302 0.930 . S
H2294 C2304 0.930 . S
H2295 C2307 0.929 . S
H2296 C2310 0.930 . S
H2297 C2312 0.960 . S
H2298 C2312 0.960 . S
H2299 C2312 0.960 . S
C2300 H2292 0.929 . S
C2300 C2301 1.377 . S
C2300 C2302 1.384 . S
C2301 C2300 1.377 . S
C2301 C2307 1.390 . S
C2302 H2293 0.930 . S
C2302 C2300 1.384 . S
C2302 C2303 1.372 . S
C2303 C2302 1.372 . S
C2303 C2304 1.400 . S
C2303 C2308 1.490 . S
C2304 H2294 0.930 . S
C2304 C2303 1.400 . S
C2304 C2307 1.386 . S
H2305 C2321 0.930 . S
H2306 C2322 0.931 . S
C2307 H2295 0.929 . S
C2307 C2301 1.390 . S
C2307 C2304 1.386 . S
C2308 C2303 1.490 . S
C2308 C2310 1.395 . S
C2308 C2311 1.403 . S
H2309 C2315 0.930 . S
C2310 H2296 0.930 . S
C2310 C2308 1.395 . S
C2310 C2313 1.403 . S
C2311 C2308 1.403 . S
C2311 C2312 1.524 . S
C2311 C2315 1.400 . S
C2312 H2297 0.960 . S
C2312 H2298 0.960 . S
C2312 H2299 0.960 . S
C2312 C2311 1.524 . S
C2313 C2310 1.403 . S
C2313 C2314 1.392 . S
C2313 C2317 1.495 . S
C2314 C2313 1.392 . S
C2314 C2315 1.385 . S
C2314 C2316 1.478 . S
C2315 H2309 0.930 . S
C2315 C2311 1.400 . S
C2315 C2314 1.385 . S
C2316 C2314 1.478 . S
C2316 C2318 1.381 . S
C2316 C2322 1.383 . S
C2317 C2313 1.495 . S
C2317 H2323 0.959 . S
C2317 H2324 0.961 . S
C2317 H2325 0.960 . S
C2318 C2316 1.381 . S
C2318 C2319 1.394 . S
C2318 H2326 0.930 . S
C2319 C2318 1.394 . S
C2319 C2320 1.383 . S
C2319 H2327 0.929 . S
C2320 C2319 1.383 . S
C2320 C2321 1.377 . S
C2321 H2305 0.930 . S
C2321 C2320 1.377 . S
C2321 C2322 1.379 . S
C2322 H2306 0.931 . S
C2322 C2316 1.383 . S
C2322 C2321 1.379 . S
H2323 C2317 0.959 . S
H2324 C2317 0.961 . S
H2325 C2317 0.960 . S
H2326 C2318 0.930 . S
H2327 C2319 0.929 . S
H2328 C2336 0.929 . S
H2329 C2338 0.930 . S
H2330 C2340 0.930 . S
H2331 C2343 0.929 . S
H2332 C2346 0.930 1_554 S
H2333 C2348 0.960 . S
H2334 C2348 0.960 . S
H2335 C2348 0.960 . S
C2336 H2328 0.929 . S
C2336 C2337 1.377 . S
C2336 C2338 1.384 . S
C2337 C2336 1.377 . S
C2337 C2343 1.390 . S
C2338 H2329 0.930 . S
C2338 C2336 1.384 . S
C2338 C2339 1.372 . S
C2339 C2338 1.372 . S
C2339 C2340 1.400 . S
C2339 C2344 1.490 . S
C2340 H2330 0.930 . S
C2340 C2339 1.400 . S
C2340 C2343 1.386 . S
H2341 C2357 0.929 . S
H2342 C2358 0.931 . S
C2343 H2331 0.929 . S
C2343 C2337 1.390 . S
C2343 C2340 1.386 . S
C2344 C2339 1.490 . S
C2344 C2346 1.395 . S
C2344 C2347 1.403 . S
H2345 C2351 0.930 . S
C2346 H2332 0.930 1_556 S
C2346 C2344 1.395 . S
C2346 C2349 1.403 1_556 S
C2347 C2344 1.403 . S
C2347 C2348 1.524 . S
C2347 C2351 1.400 . S
C2348 H2333 0.960 . S
C2348 H2334 0.960 . S
C2348 H2335 0.960 . S
C2348 C2347 1.524 . S
C2349 C2346 1.403 1_554 S
C2349 C2350 1.392 1_554 S
C2349 C2353 1.495 . S
C2350 C2349 1.392 1_556 S
C2350 C2351 1.385 . S
C2350 C2352 1.478 . S
C2351 H2345 0.930 . S
C2351 C2347 1.400 . S
C2351 C2350 1.385 . S
C2352 C2350 1.478 . S
C2352 C2354 1.389 . S
C2352 C2358 1.383 . S
C2353 C2349 1.495 . S
C2353 H2359 0.959 . S
C2353 H2360 0.961 . S
C2353 H2361 0.960 . S
C2354 C2352 1.389 . S
C2354 C2355 1.386 1_556 S
C2354 H2362 0.930 . S
C2355 C2354 1.386 1_554 S
C2355 C2356 1.383 . S
C2355 H2363 0.929 . S
C2356 C2355 1.383 . S
C2356 C2357 1.378 . S
C2357 H2341 0.929 . S
C2357 C2356 1.378 . S
C2357 C2358 1.378 1_554 S
C2358 H2342 0.931 . S
C2358 C2352 1.383 . S
C2358 C2357 1.378 1_556 S
H2359 C2353 0.959 . S
H2360 C2353 0.961 . S
H2361 C2353 0.960 . S
H2362 C2354 0.930 . S
H2363 C2355 0.929 . S
H2364 C2372 0.929 . S
H2365 C2374 0.930 . S
H2366 C2376 0.930 . S
H2367 C2379 0.929 . S
H2368 C2382 0.930 . S
H2369 C2384 0.960 . S
H2370 C2384 0.960 . S
H2371 C2384 0.960 . S
C2372 H2364 0.929 . S
C2372 C2373 1.377 . S
C2372 C2374 1.384 . S
C2373 C2372 1.377 . S
C2373 C2379 1.390 . S
C2374 H2365 0.930 . S
C2374 C2372 1.384 . S
C2374 C2375 1.372 . S
C2375 C2374 1.372 . S
C2375 C2376 1.400 . S
C2375 C2380 1.490 . S
C2376 H2366 0.930 . S
C2376 C2375 1.400 . S
C2376 C2379 1.386 . S
H2377 C2393 0.930 . S
H2378 C2394 0.931 . S
C2379 H2367 0.929 . S
C2379 C2373 1.390 . S
C2379 C2376 1.386 . S
C2380 C2375 1.490 . S
C2380 C2382 1.395 . S
C2380 C2383 1.403 . S
H2381 C2387 0.930 . S
C2382 H2368 0.930 . S
C2382 C2380 1.395 . S
C2382 C2385 1.403 . S
C2383 C2380 1.403 . S
C2383 C2384 1.524 . S
C2383 C2387 1.400 . S
C2384 H2369 0.960 . S
C2384 H2370 0.960 . S
C2384 H2371 0.960 . S
C2384 C2383 1.524 . S
C2385 C2382 1.403 . S
C2385 C2386 1.392 . S
C2385 C2389 1.495 . S
C2386 C2385 1.392 . S
C2386 C2387 1.385 . S
C2386 C2388 1.478 . S
C2387 H2381 0.930 . S
C2387 C2383 1.400 . S
C2387 C2386 1.385 . S
C2388 C2386 1.478 . S
C2388 C2390 1.381 . S
C2388 C2394 1.383 . S
C2389 C2385 1.495 . S
C2389 H2395 0.959 . S
C2389 H2396 0.961 . S
C2389 H2397 0.960 . S
C2390 C2388 1.381 . S
C2390 C2391 1.394 . S
C2390 H2398 0.930 . S
C2391 C2390 1.394 . S
C2391 C2392 1.383 . S
C2391 H2399 0.929 . S
C2392 C2391 1.383 . S
C2392 C2393 1.377 . S
C2393 H2377 0.930 . S
C2393 C2392 1.377 . S
C2393 C2394 1.379 . S
C2394 H2378 0.931 . S
C2394 C2388 1.383 . S
C2394 C2393 1.379 . S
H2395 C2389 0.959 . S
H2396 C2389 0.961 . S
H2397 C2389 0.960 . S
H2398 C2390 0.930 . S
H2399 C2391 0.929 . S
H2400 C2408 0.929 . S
H2401 C2410 0.930 . S
H2402 C2412 0.930 . S
H2403 C2415 0.929 . S
H2404 C2418 0.930 . S
H2405 C2420 0.960 . S
H2406 C2420 0.960 . S
H2407 C2420 0.960 . S
C2408 H2400 0.929 . S
C2408 C2409 1.377 . S
C2408 C2410 1.384 . S
C2409 C2408 1.377 . S
C2409 C2415 1.390 . S
C2410 H2401 0.930 . S
C2410 C2408 1.384 . S
C2410 C2411 1.372 . S
C2411 C2410 1.372 . S
C2411 C2412 1.400 . S
C2411 C2416 1.490 . S
C2412 H2402 0.930 . S
C2412 C2411 1.400 . S
C2412 C2415 1.386 . S
H2413 C2429 0.930 . S
H2414 C2430 0.931 . S
C2415 H2403 0.929 . S
C2415 C2409 1.390 . S
C2415 C2412 1.386 . S
C2416 C2411 1.490 . S
C2416 C2418 1.395 . S
C2416 C2419 1.403 . S
H2417 C2423 0.930 . S
C2418 H2404 0.930 . S
C2418 C2416 1.395 . S
C2418 C2421 1.403 . S
C2419 C2416 1.403 . S
C2419 C2420 1.524 . S
C2419 C2423 1.400 . S
C2420 H2405 0.960 . S
C2420 H2406 0.960 . S
C2420 H2407 0.960 . S
C2420 C2419 1.524 . S
C2421 C2418 1.403 . S
C2421 C2422 1.392 . S
C2421 C2425 1.495 . S
C2422 C2421 1.392 . S
C2422 C2423 1.385 . S
C2422 C2424 1.478 . S
C2423 H2417 0.930 . S
C2423 C2419 1.400 . S
C2423 C2422 1.385 . S
C2424 C2422 1.478 . S
C2424 C2426 1.381 . S
C2424 C2430 1.383 . S
C2425 C2421 1.495 . S
C2425 H2431 0.959 . S
C2425 H2432 0.961 . S
C2425 H2433 0.960 . S
C2426 C2424 1.381 . S
C2426 C2427 1.394 . S
C2426 H2434 0.930 . S
C2427 C2426 1.394 . S
C2427 C2428 1.383 . S
C2427 H2435 0.929 . S
C2428 C2427 1.383 . S
C2428 C2429 1.377 . S
C2429 H2413 0.930 . S
C2429 C2428 1.377 . S
C2429 C2430 1.379 . S
C2430 H2414 0.931 . S
C2430 C2424 1.383 . S
C2430 C2429 1.379 . S
H2431 C2425 0.959 . S
H2432 C2425 0.961 . S
H2433 C2425 0.960 . S
H2434 C2426 0.930 . S
H2435 C2427 0.929 . S
H2436 C2444 0.929 . S
H2437 C2446 0.930 . S
H2438 C2448 0.930 . S
H2439 C2451 0.929 . S
H2440 C2454 0.930 . S
H2441 C2456 0.960 . S
H2442 C2456 0.960 . S
H2443 C2456 0.960 . S
C2444 H2436 0.929 . S
C2444 C2445 1.377 . S
C2444 C2446 1.384 . S
C2445 C2444 1.377 . S
C2445 C2451 1.390 . S
C2446 H2437 0.930 . S
C2446 C2444 1.384 . S
C2446 C2447 1.372 . S
C2447 C2446 1.372 . S
C2447 C2448 1.400 . S
C2447 C2452 1.490 . S
C2448 H2438 0.930 . S
C2448 C2447 1.400 . S
C2448 C2451 1.386 . S
H2449 C2465 0.930 . S
H2450 C2466 0.931 . S
C2451 H2439 0.929 . S
C2451 C2445 1.390 . S
C2451 C2448 1.386 . S
C2452 C2447 1.490 . S
C2452 C2454 1.395 . S
C2452 C2455 1.403 . S
H2453 C2459 0.930 . S
C2454 H2440 0.930 . S
C2454 C2452 1.395 . S
C2454 C2457 1.403 . S
C2455 C2452 1.403 . S
C2455 C2456 1.524 . S
C2455 C2459 1.400 . S
C2456 H2441 0.960 . S
C2456 H2442 0.960 . S
C2456 H2443 0.960 . S
C2456 C2455 1.524 . S
C2457 C2454 1.403 . S
C2457 C2458 1.392 . S
C2457 C2461 1.495 . S
C2458 C2457 1.392 . S
C2458 C2459 1.385 . S
C2458 C2460 1.478 . S
C2459 H2453 0.930 . S
C2459 C2455 1.400 . S
C2459 C2458 1.385 . S
C2460 C2458 1.478 . S
C2460 C2462 1.381 . S
C2460 C2466 1.383 . S
C2461 C2457 1.495 . S
C2461 H2467 0.959 . S
C2461 H2468 0.961 . S
C2461 H2469 0.960 . S
C2462 C2460 1.381 . S
C2462 C2463 1.394 . S
C2462 H2470 0.930 . S
C2463 C2462 1.394 . S
C2463 C2464 1.383 . S
C2463 H2471 0.929 . S
C2464 C2463 1.383 . S
C2464 C2465 1.377 . S
C2465 H2449 0.930 . S
C2465 C2464 1.377 . S
C2465 C2466 1.379 . S
C2466 H2450 0.931 . S
C2466 C2460 1.383 . S
C2466 C2465 1.379 . S
H2467 C2461 0.959 . S
H2468 C2461 0.961 . S
H2469 C2461 0.960 . S
H2470 C2462 0.930 . S
H2471 C2463 0.929 . S
H2472 C2480 0.929 . S
H2473 C2482 0.930 . S
H2474 C2484 0.930 . S
H2475 C2487 0.929 . S
H2476 C2490 0.930 . S
H2477 C2492 0.960 . S
H2478 C2492 0.960 . S
H2479 C2492 0.960 . S
C2480 H2472 0.929 . S
C2480 C2481 1.377 . S
C2480 C2482 1.384 . S
C2481 C2480 1.377 . S
C2481 C2487 1.390 . S
C2482 H2473 0.930 . S
C2482 C2480 1.384 . S
C2482 C2483 1.372 . S
C2483 C2482 1.372 . S
C2483 C2484 1.400 . S
C2483 C2488 1.490 . S
C2484 H2474 0.930 . S
C2484 C2483 1.400 . S
C2484 C2487 1.386 . S
H2485 C2501 0.930 . S
H2486 C2502 0.931 . S
C2487 H2475 0.929 . S
C2487 C2481 1.390 . S
C2487 C2484 1.386 . S
C2488 C2483 1.490 . S
C2488 C2490 1.395 . S
C2488 C2491 1.403 . S
H2489 C2495 0.930 . S
C2490 H2476 0.930 . S
C2490 C2488 1.395 . S
C2490 C2493 1.403 . S
C2491 C2488 1.403 . S
C2491 C2492 1.524 . S
C2491 C2495 1.400 . S
C2492 H2477 0.960 . S
C2492 H2478 0.960 . S
C2492 H2479 0.960 . S
C2492 C2491 1.524 . S
C2493 C2490 1.403 . S
C2493 C2494 1.392 . S
C2493 C2497 1.495 . S
C2494 C2493 1.392 . S
C2494 C2495 1.385 . S
C2494 C2496 1.478 . S
C2495 H2489 0.930 . S
C2495 C2491 1.400 . S
C2495 C2494 1.385 . S
C2496 C2494 1.478 . S
C2496 C2498 1.381 . S
C2496 C2502 1.383 . S
C2497 C2493 1.495 . S
C2497 H2503 0.959 . S
C2497 H2504 0.961 . S
C2497 H2505 0.960 . S
C2498 C2496 1.381 . S
C2498 C2499 1.394 . S
C2498 H2506 0.930 . S
C2499 C2498 1.394 . S
C2499 C2500 1.383 . S
C2499 H2507 0.929 . S
C2500 C2499 1.383 . S
C2500 C2501 1.377 . S
C2501 H2485 0.930 . S
C2501 C2500 1.377 . S
C2501 C2502 1.379 . S
C2502 H2486 0.931 . S
C2502 C2496 1.383 . S
C2502 C2501 1.379 . S
H2503 C2497 0.959 . S
H2504 C2497 0.961 . S
H2505 C2497 0.960 . S
H2506 C2498 0.930 . S
H2507 C2499 0.929 . S
H2508 C2516 0.929 . S
H2509 C2518 0.930 . S
H2510 C2520 0.930 . S
H2511 C2523 0.929 . S
H2512 C2526 0.930 . S
H2513 C2528 0.960 . S
H2514 C2528 0.960 . S
H2515 C2528 0.960 . S
C2516 H2508 0.929 . S
C2516 C2517 1.377 . S
C2516 C2518 1.384 . S
C2517 C2516 1.377 . S
C2517 C2523 1.390 . S
C2518 H2509 0.930 . S
C2518 C2516 1.384 . S
C2518 C2519 1.372 . S
C2519 C2518 1.372 . S
C2519 C2520 1.400 . S
C2519 C2524 1.490 . S
C2520 H2510 0.930 . S
C2520 C2519 1.400 . S
C2520 C2523 1.386 . S
H2521 C2537 0.930 . S
H2522 C2538 0.931 . S
C2523 H2511 0.929 . S
C2523 C2517 1.390 . S
C2523 C2520 1.386 . S
C2524 C2519 1.490 . S
C2524 C2526 1.395 . S
C2524 C2527 1.403 . S
H2525 C2531 0.930 . S
C2526 H2512 0.930 . S
C2526 C2524 1.395 . S
C2526 C2529 1.403 . S
C2527 C2524 1.403 . S
C2527 C2528 1.524 . S
C2527 C2531 1.400 . S
C2528 H2513 0.960 . S
C2528 H2514 0.960 . S
C2528 H2515 0.960 . S
C2528 C2527 1.524 . S
C2529 C2526 1.403 . S
C2529 C2530 1.392 . S
C2529 C2533 1.495 . S
C2530 C2529 1.392 . S
C2530 C2531 1.385 . S
C2530 C2532 1.478 . S
C2531 H2525 0.930 . S
C2531 C2527 1.400 . S
C2531 C2530 1.385 . S
C2532 C2530 1.478 . S
C2532 C2534 1.381 . S
C2532 C2538 1.383 . S
C2533 C2529 1.495 . S
C2533 H2539 0.959 . S
C2533 H2540 0.961 . S
C2533 H2541 0.960 . S
C2534 C2532 1.381 . S
C2534 C2535 1.394 . S
C2534 H2542 0.930 . S
C2535 C2534 1.394 . S
C2535 C2536 1.383 . S
C2535 H2543 0.929 . S
C2536 C2535 1.383 . S
C2536 C2537 1.377 . S
C2537 H2521 0.930 . S
C2537 C2536 1.377 . S
C2537 C2538 1.379 . S
C2538 H2522 0.931 . S
C2538 C2532 1.383 . S
C2538 C2537 1.379 . S
H2539 C2533 0.959 . S
H2540 C2533 0.961 . S
H2541 C2533 0.960 . S
H2542 C2534 0.930 . S
H2543 C2535 0.929 . S
H2544 C2552 0.929 . S
H2545 C2554 0.930 . S
H2546 C2556 0.930 . S
H2547 C2559 0.929 . S
H2548 C2562 0.930 . S
H2549 C2564 0.960 . S
H2550 C2564 0.960 . S
H2551 C2564 0.960 . S
C2552 H2544 0.929 . S
C2552 C2553 1.377 . S
C2552 C2554 1.384 . S
C2553 C2552 1.377 . S
C2553 C2559 1.390 . S
C2554 H2545 0.930 . S
C2554 C2552 1.384 . S
C2554 C2555 1.372 . S
C2555 C2554 1.372 . S
C2555 C2556 1.400 . S
C2555 C2560 1.490 . S
C2556 H2546 0.930 . S
C2556 C2555 1.400 . S
C2556 C2559 1.386 . S
H2557 C2573 0.930 . S
H2558 C2574 0.931 . S
C2559 H2547 0.929 . S
C2559 C2553 1.390 . S
C2559 C2556 1.386 . S
C2560 C2555 1.490 . S
C2560 C2562 1.395 . S
C2560 C2563 1.403 . S
H2561 C2567 0.930 . S
C2562 H2548 0.930 . S
C2562 C2560 1.395 . S
C2562 C2565 1.403 . S
C2563 C2560 1.403 . S
C2563 C2564 1.524 . S
C2563 C2567 1.400 . S
C2564 H2549 0.960 . S
C2564 H2550 0.960 . S
C2564 H2551 0.960 . S
C2564 C2563 1.524 . S
C2565 C2562 1.403 . S
C2565 C2566 1.392 . S
C2565 C2569 1.495 . S
C2566 C2565 1.392 . S
C2566 C2567 1.385 . S
C2566 C2568 1.478 . S
C2567 H2561 0.930 . S
C2567 C2563 1.400 . S
C2567 C2566 1.385 . S
C2568 C2566 1.478 . S
C2568 C2570 1.381 . S
C2568 C2574 1.383 . S
C2569 C2565 1.495 . S
C2569 H2575 0.959 . S
C2569 H2576 0.961 . S
C2569 H2577 0.960 . S
C2570 C2568 1.381 . S
C2570 C2571 1.394 . S
C2570 H2578 0.930 . S
C2571 C2570 1.394 . S
C2571 C2572 1.383 . S
C2571 H2579 0.929 . S
C2572 C2571 1.383 . S
C2572 C2573 1.377 . S
C2573 H2557 0.930 . S
C2573 C2572 1.377 . S
C2573 C2574 1.379 . S
C2574 H2558 0.931 . S
C2574 C2568 1.383 . S
C2574 C2573 1.379 . S
H2575 C2569 0.959 . S
H2576 C2569 0.961 . S
H2577 C2569 0.960 . S
H2578 C2570 0.930 . S
H2579 C2571 0.929 . S
H2580 C2588 0.929 . S
H2581 C2590 0.930 . S
H2582 C2592 0.930 . S
H2583 C2595 0.929 . S
H2584 C2598 0.930 . S
H2585 C2600 0.960 . S
H2586 C2600 0.960 . S
H2587 C2600 0.960 . S
C2588 H2580 0.929 . S
C2588 C2589 1.377 . S
C2588 C2590 1.384 . S
C2589 C2588 1.377 . S
C2589 C2595 1.390 . S
C2590 H2581 0.930 . S
C2590 C2588 1.384 . S
C2590 C2591 1.372 . S
C2591 C2590 1.372 . S
C2591 C2592 1.400 . S
C2591 C2596 1.490 . S
C2592 H2582 0.930 . S
C2592 C2591 1.400 . S
C2592 C2595 1.386 . S
H2593 C2609 0.930 . S
H2594 C2610 0.931 . S
C2595 H2583 0.929 . S
C2595 C2589 1.390 . S
C2595 C2592 1.386 . S
C2596 C2591 1.490 . S
C2596 C2598 1.395 . S
C2596 C2599 1.403 . S
H2597 C2603 0.930 . S
C2598 H2584 0.930 . S
C2598 C2596 1.395 . S
C2598 C2601 1.403 . S
C2599 C2596 1.403 . S
C2599 C2600 1.524 . S
C2599 C2603 1.400 . S
C2600 H2585 0.960 . S
C2600 H2586 0.960 . S
C2600 H2587 0.960 . S
C2600 C2599 1.524 . S
C2601 C2598 1.403 . S
C2601 C2602 1.392 . S
C2601 C2605 1.495 . S
C2602 C2601 1.392 . S
C2602 C2603 1.385 . S
C2602 C2604 1.478 . S
C2603 H2597 0.930 . S
C2603 C2599 1.400 . S
C2603 C2602 1.385 . S
C2604 C2602 1.478 . S
C2604 C2606 1.381 . S
C2604 C2610 1.383 . S
C2605 C2601 1.495 . S
C2605 H2611 0.959 . S
C2605 H2612 0.961 . S
C2605 H2613 0.960 . S
C2606 C2604 1.381 . S
C2606 C2607 1.394 . S
C2606 H2614 0.930 . S
C2607 C2606 1.394 . S
C2607 C2608 1.383 . S
C2607 H2615 0.929 . S
C2608 C2607 1.383 . S
C2608 C2609 1.377 . S
C2609 H2593 0.930 . S
C2609 C2608 1.377 . S
C2609 C2610 1.379 . S
C2610 H2594 0.931 . S
C2610 C2604 1.383 . S
C2610 C2609 1.379 . S
H2611 C2605 0.959 . S
H2612 C2605 0.961 . S
H2613 C2605 0.960 . S
H2614 C2606 0.930 . S
H2615 C2607 0.929 . S
H2616 C2624 0.929 . S
H2617 C2626 0.930 . S
H2618 C2628 0.930 . S
H2619 C2631 0.929 . S
H2620 C2634 0.930 . S
H2621 C2636 0.960 . S
H2622 C2636 0.960 . S
H2623 C2636 0.960 . S
C2624 H2616 0.929 . S
C2624 C2625 1.377 . S
C2624 C2626 1.384 . S
C2625 C2624 1.377 . S
C2625 C2631 1.390 . S
C2626 H2617 0.930 . S
C2626 C2624 1.384 . S
C2626 C2627 1.372 . S
C2627 C2626 1.372 . S
C2627 C2628 1.400 . S
C2627 C2632 1.490 . S
C2628 H2618 0.930 . S
C2628 C2627 1.400 . S
C2628 C2631 1.386 . S
H2629 C2645 0.930 . S
H2630 C2646 0.931 . S
C2631 H2619 0.929 . S
C2631 C2625 1.390 . S
C2631 C2628 1.386 . S
C2632 C2627 1.490 . S
C2632 C2634 1.395 . S
C2632 C2635 1.403 . S
H2633 C2639 0.930 . S
C2634 H2620 0.930 . S
C2634 C2632 1.395 . S
C2634 C2637 1.403 . S
C2635 C2632 1.403 . S
C2635 C2636 1.524 . S
C2635 C2639 1.400 . S
C2636 H2621 0.960 . S
C2636 H2622 0.960 . S
C2636 H2623 0.960 . S
C2636 C2635 1.524 . S
C2637 C2634 1.403 . S
C2637 C2638 1.392 . S
C2637 C2641 1.495 . S
C2638 C2637 1.392 . S
C2638 C2639 1.385 . S
C2638 C2640 1.478 . S
C2639 H2633 0.930 . S
C2639 C2635 1.400 . S
C2639 C2638 1.385 . S
C2640 C2638 1.478 . S
C2640 C2642 1.381 . S
C2640 C2646 1.383 . S
C2641 C2637 1.495 . S
C2641 H2647 0.959 . S
C2641 H2648 0.961 . S
C2641 H2649 0.960 . S
C2642 C2640 1.381 . S
C2642 C2643 1.394 . S
C2642 H2650 0.930 . S
C2643 C2642 1.394 . S
C2643 C2644 1.383 . S
C2643 H2651 0.929 . S
C2644 C2643 1.383 . S
C2644 C2645 1.377 . S
C2645 H2629 0.930 . S
C2645 C2644 1.377 . S
C2645 C2646 1.379 . S
C2646 H2630 0.931 . S
C2646 C2640 1.383 . S
C2646 C2645 1.379 . S
H2647 C2641 0.959 . S
H2648 C2641 0.961 . S
H2649 C2641 0.960 . S
H2650 C2642 0.930 . S
H2651 C2643 0.929 . S
H2652 C2660 0.929 . S
H2653 C2662 0.930 . S
H2654 C2664 0.930 . S
H2655 C2667 0.929 . S
H2656 C2670 0.930 . S
H2657 C2672 0.960 . S
H2658 C2672 0.960 . S
H2659 C2672 0.960 . S
C2660 H2652 0.929 . S
C2660 C2661 1.377 . S
C2660 C2662 1.384 . S
C2661 C2660 1.377 . S
C2661 C2667 1.390 . S
C2662 H2653 0.930 . S
C2662 C2660 1.384 . S
C2662 C2663 1.372 . S
C2663 C2662 1.372 . S
C2663 C2664 1.400 . S
C2663 C2668 1.490 . S
C2664 H2654 0.930 . S
C2664 C2663 1.400 . S
C2664 C2667 1.386 . S
H2665 C2681 0.930 . S
H2666 C2682 0.931 . S
C2667 H2655 0.929 . S
C2667 C2661 1.390 . S
C2667 C2664 1.386 . S
C2668 C2663 1.490 . S
C2668 C2670 1.395 . S
C2668 C2671 1.403 . S
H2669 C2675 0.930 . S
C2670 H2656 0.930 . S
C2670 C2668 1.395 . S
C2670 C2673 1.403 . S
C2671 C2668 1.403 . S
C2671 C2672 1.524 . S
C2671 C2675 1.400 . S
C2672 H2657 0.960 . S
C2672 H2658 0.960 . S
C2672 H2659 0.960 . S
C2672 C2671 1.524 . S
C2673 C2670 1.403 . S
C2673 C2674 1.392 . S
C2673 C2677 1.495 . S
C2674 C2673 1.392 . S
C2674 C2675 1.385 . S
C2674 C2676 1.478 . S
C2675 H2669 0.930 . S
C2675 C2671 1.400 . S
C2675 C2674 1.385 . S
C2676 C2674 1.478 . S
C2676 C2678 1.381 . S
C2676 C2682 1.383 . S
C2677 C2673 1.495 . S
C2677 H2683 0.959 . S
C2677 H2684 0.961 . S
C2677 H2685 0.960 . S
C2678 C2676 1.381 . S
C2678 C2679 1.394 . S
C2678 H2686 0.930 . S
C2679 C2678 1.394 . S
C2679 C2680 1.383 . S
C2679 H2687 0.929 . S
C2680 C2679 1.383 . S
C2680 C2681 1.377 . S
C2681 H2665 0.930 . S
C2681 C2680 1.377 . S
C2681 C2682 1.379 . S
C2682 H2666 0.931 . S
C2682 C2676 1.383 . S
C2682 C2681 1.379 . S
H2683 C2677 0.959 . S
H2684 C2677 0.961 . S
H2685 C2677 0.960 . S
H2686 C2678 0.930 . S
H2687 C2679 0.929 . S
H2688 C2696 0.929 . S
H2689 C2698 0.930 . S
H2690 C2700 0.930 . S
H2691 C2703 0.929 . S
H2692 C2706 0.930 . S
H2693 C2708 0.960 . S
H2694 C2708 0.960 . S
H2695 C2708 0.960 . S
C2696 H2688 0.929 . S
C2696 C2697 1.377 . S
C2696 C2698 1.384 . S
C2697 C2696 1.377 . S
C2697 C2703 1.390 . S
C2698 H2689 0.930 . S
C2698 C2696 1.384 . S
C2698 C2699 1.372 . S
C2699 C2698 1.372 . S
C2699 C2700 1.400 . S
C2699 C2704 1.490 . S
C2700 H2690 0.930 . S
C2700 C2699 1.400 . S
C2700 C2703 1.386 . S
H2701 C2717 0.930 . S
H2702 C2718 0.931 . S
C2703 H2691 0.929 . S
C2703 C2697 1.390 . S
C2703 C2700 1.386 . S
C2704 C2699 1.490 . S
C2704 C2706 1.395 . S
C2704 C2707 1.403 . S
H2705 C2711 0.930 . S
C2706 H2692 0.930 . S
C2706 C2704 1.395 . S
C2706 C2709 1.403 . S
C2707 C2704 1.403 . S
C2707 C2708 1.524 . S
C2707 C2711 1.400 . S
C2708 H2693 0.960 . S
C2708 H2694 0.960 . S
C2708 H2695 0.960 . S
C2708 C2707 1.524 . S
C2709 C2706 1.403 . S
C2709 C2710 1.392 . S
C2709 C2713 1.495 . S
C2710 C2709 1.392 . S
C2710 C2711 1.385 . S
C2710 C2712 1.478 . S
C2711 H2705 0.930 . S
C2711 C2707 1.400 . S
C2711 C2710 1.385 . S
C2712 C2710 1.478 . S
C2712 C2714 1.381 . S
C2712 C2718 1.383 . S
C2713 C2709 1.495 . S
C2713 H2719 0.959 . S
C2713 H2720 0.961 . S
C2713 H2721 0.960 . S
C2714 C2712 1.381 . S
C2714 C2715 1.394 . S
C2714 H2722 0.930 . S
C2715 C2714 1.394 . S
C2715 C2716 1.383 . S
C2715 H2723 0.929 . S
C2716 C2715 1.383 . S
C2716 C2717 1.377 . S
C2717 H2701 0.930 . S
C2717 C2716 1.377 . S
C2717 C2718 1.379 . S
C2718 H2702 0.931 . S
C2718 C2712 1.383 . S
C2718 C2717 1.379 . S
H2719 C2713 0.959 . S
H2720 C2713 0.961 . S
H2721 C2713 0.960 . S
H2722 C2714 0.930 . S
H2723 C2715 0.929 . S
H2724 C2732 0.929 . S
H2725 C2734 0.930 . S
H2726 C2736 0.930 . S
H2727 C2739 0.929 . S
H2728 C2742 0.930 . S
H2729 C2744 0.960 . S
H2730 C2744 0.960 . S
H2731 C2744 0.960 . S
C2732 H2724 0.929 . S
C2732 C2733 1.377 . S
C2732 C2734 1.384 . S
C2733 C2732 1.377 . S
C2733 C2739 1.390 . S
C2734 H2725 0.930 . S
C2734 C2732 1.384 . S
C2734 C2735 1.372 . S
C2735 C2734 1.372 . S
C2735 C2736 1.400 . S
C2735 C2740 1.490 . S
C2736 H2726 0.930 . S
C2736 C2735 1.400 . S
C2736 C2739 1.386 . S
H2737 C2753 0.930 . S
H2738 C2754 0.931 . S
C2739 H2727 0.929 . S
C2739 C2733 1.390 . S
C2739 C2736 1.386 . S
C2740 C2735 1.490 . S
C2740 C2742 1.395 . S
C2740 C2743 1.403 . S
H2741 C2747 0.930 . S
C2742 H2728 0.930 . S
C2742 C2740 1.395 . S
C2742 C2745 1.403 . S
C2743 C2740 1.403 . S
C2743 C2744 1.524 . S
C2743 C2747 1.400 . S
C2744 H2729 0.960 . S
C2744 H2730 0.960 . S
C2744 H2731 0.960 . S
C2744 C2743 1.524 . S
C2745 C2742 1.403 . S
C2745 C2746 1.392 . S
C2745 C2749 1.495 . S
C2746 C2745 1.392 . S
C2746 C2747 1.385 . S
C2746 C2748 1.478 . S
C2747 H2741 0.930 . S
C2747 C2743 1.400 . S
C2747 C2746 1.385 . S
C2748 C2746 1.478 . S
C2748 C2750 1.381 . S
C2748 C2754 1.383 . S
C2749 C2745 1.495 . S
C2749 H2755 0.959 . S
C2749 H2756 0.961 . S
C2749 H2757 0.960 . S
C2750 C2748 1.381 . S
C2750 C2751 1.394 . S
C2750 H2758 0.930 . S
C2751 C2750 1.394 . S
C2751 C2752 1.383 . S
C2751 H2759 0.929 . S
C2752 C2751 1.383 . S
C2752 C2753 1.377 . S
C2753 H2737 0.930 . S
C2753 C2752 1.377 . S
C2753 C2754 1.379 . S
C2754 H2738 0.931 . S
C2754 C2748 1.383 . S
C2754 C2753 1.379 . S
H2755 C2749 0.959 . S
H2756 C2749 0.961 . S
H2757 C2749 0.960 . S
H2758 C2750 0.930 . S
H2759 C2751 0.929 . S
H2760 C2768 0.929 . S
H2761 C2770 0.930 . S
H2762 C2772 0.930 . S
H2763 C2775 0.929 . S
H2764 C2778 0.930 . S
H2765 C2780 0.960 . S
H2766 C2780 0.960 . S
H2767 C2780 0.960 . S
C2768 H2760 0.929 . S
C2768 C2769 1.377 . S
C2768 C2770 1.384 . S
C2769 C2768 1.377 . S
C2769 C2775 1.390 . S
C2770 H2761 0.930 . S
C2770 C2768 1.384 . S
C2770 C2771 1.372 . S
C2771 C2770 1.372 . S
C2771 C2772 1.400 . S
C2771 C2776 1.490 . S
C2772 H2762 0.930 . S
C2772 C2771 1.400 . S
C2772 C2775 1.386 . S
H2773 C2789 0.930 . S
H2774 C2790 0.931 . S
C2775 H2763 0.929 . S
C2775 C2769 1.390 . S
C2775 C2772 1.386 . S
C2776 C2771 1.490 . S
C2776 C2778 1.395 . S
C2776 C2779 1.403 . S
H2777 C2783 0.930 . S
C2778 H2764 0.930 . S
C2778 C2776 1.395 . S
C2778 C2781 1.403 . S
C2779 C2776 1.403 . S
C2779 C2780 1.524 . S
C2779 C2783 1.400 . S
C2780 H2765 0.960 . S
C2780 H2766 0.960 . S
C2780 H2767 0.960 . S
C2780 C2779 1.524 . S
C2781 C2778 1.403 . S
C2781 C2782 1.392 . S
C2781 C2785 1.495 . S
C2782 C2781 1.392 . S
C2782 C2783 1.385 . S
C2782 C2784 1.478 . S
C2783 H2777 0.930 . S
C2783 C2779 1.400 . S
C2783 C2782 1.385 . S
C2784 C2782 1.478 . S
C2784 C2786 1.381 . S
C2784 C2790 1.383 . S
C2785 C2781 1.495 . S
C2785 H2791 0.959 . S
C2785 H2792 0.961 . S
C2785 H2793 0.960 . S
C2786 C2784 1.381 . S
C2786 C2787 1.394 . S
C2786 H2794 0.930 . S
C2787 C2786 1.394 . S
C2787 C2788 1.383 . S
C2787 H2795 0.929 . S
C2788 C2787 1.383 . S
C2788 C2789 1.377 . S
C2789 H2773 0.930 . S
C2789 C2788 1.377 . S
C2789 C2790 1.379 . S
C2790 H2774 0.931 . S
C2790 C2784 1.383 . S
C2790 C2789 1.379 . S
H2791 C2785 0.959 . S
H2792 C2785 0.961 . S
H2793 C2785 0.960 . S
H2794 C2786 0.930 . S
H2795 C2787 0.929 . S
H2796 C2804 0.929 . S
H2797 C2806 0.930 . S
H2798 C2808 0.930 . S
H2799 C2811 0.929 . S
H2800 C2814 0.930 . S
H2801 C2816 0.960 . S
H2802 C2816 0.960 . S
H2803 C2816 0.960 . S
C2804 H2796 0.929 . S
C2804 C2805 1.377 . S
C2804 C2806 1.384 . S
C2805 C2804 1.377 . S
C2805 C2811 1.390 . S
C2806 H2797 0.930 . S
C2806 C2804 1.384 . S
C2806 C2807 1.372 . S
C2807 C2806 1.372 . S
C2807 C2808 1.400 . S
C2807 C2812 1.490 . S
C2808 H2798 0.930 . S
C2808 C2807 1.400 . S
C2808 C2811 1.386 . S
H2809 C2825 0.930 . S
H2810 C2826 0.931 . S
C2811 H2799 0.929 . S
C2811 C2805 1.390 . S
C2811 C2808 1.386 . S
C2812 C2807 1.490 . S
C2812 C2814 1.395 . S
C2812 C2815 1.403 . S
H2813 C2819 0.930 . S
C2814 H2800 0.930 . S
C2814 C2812 1.395 . S
C2814 C2817 1.403 . S
C2815 C2812 1.403 . S
C2815 C2816 1.524 . S
C2815 C2819 1.400 . S
C2816 H2801 0.960 . S
C2816 H2802 0.960 . S
C2816 H2803 0.960 . S
C2816 C2815 1.524 . S
C2817 C2814 1.403 . S
C2817 C2818 1.392 . S
C2817 C2821 1.495 . S
C2818 C2817 1.392 . S
C2818 C2819 1.385 . S
C2818 C2820 1.478 . S
C2819 H2813 0.930 . S
C2819 C2815 1.400 . S
C2819 C2818 1.385 . S
C2820 C2818 1.478 . S
C2820 C2822 1.381 . S
C2820 C2826 1.383 . S
C2821 C2817 1.495 . S
C2821 H2827 0.959 . S
C2821 H2828 0.961 . S
C2821 H2829 0.960 . S
C2822 C2820 1.381 . S
C2822 C2823 1.394 . S
C2822 H2830 0.930 . S
C2823 C2822 1.394 . S
C2823 C2824 1.383 . S
C2823 H2831 0.929 . S
C2824 C2823 1.383 . S
C2824 C2825 1.377 . S
C2825 H2809 0.930 . S
C2825 C2824 1.377 . S
C2825 C2826 1.379 . S
C2826 H2810 0.931 . S
C2826 C2820 1.383 . S
C2826 C2825 1.379 . S
H2827 C2821 0.959 . S
H2828 C2821 0.961 . S
H2829 C2821 0.960 . S
H2830 C2822 0.930 . S
H2831 C2823 0.929 . S
H2832 C2840 0.929 . S
H2833 C2842 0.930 . S
H2834 C2844 0.930 . S
H2835 C2847 0.929 . S
H2836 C2850 0.930 . S
H2837 C2852 0.960 . S
H2838 C2852 0.960 . S
H2839 C2852 0.960 . S
C2840 H2832 0.929 . S
C2840 C2841 1.377 . S
C2840 C2842 1.384 . S
C2841 C2840 1.377 . S
C2841 C2847 1.390 . S
C2842 H2833 0.930 . S
C2842 C2840 1.384 . S
C2842 C2843 1.372 . S
C2843 C2842 1.372 . S
C2843 C2844 1.400 . S
C2843 C2848 1.490 . S
C2844 H2834 0.930 . S
C2844 C2843 1.400 . S
C2844 C2847 1.386 . S
H2845 C2861 0.930 . S
H2846 C2862 0.931 . S
C2847 H2835 0.929 . S
C2847 C2841 1.390 . S
C2847 C2844 1.386 . S
C2848 C2843 1.490 . S
C2848 C2850 1.395 . S
C2848 C2851 1.403 . S
H2849 C2855 0.930 . S
C2850 H2836 0.930 . S
C2850 C2848 1.395 . S
C2850 C2853 1.403 . S
C2851 C2848 1.403 . S
C2851 C2852 1.524 . S
C2851 C2855 1.400 . S
C2852 H2837 0.960 . S
C2852 H2838 0.960 . S
C2852 H2839 0.960 . S
C2852 C2851 1.524 . S
C2853 C2850 1.403 . S
C2853 C2854 1.392 . S
C2853 C2857 1.495 . S
C2854 C2853 1.392 . S
C2854 C2855 1.385 . S
C2854 C2856 1.478 . S
C2855 H2849 0.930 . S
C2855 C2851 1.400 . S
C2855 C2854 1.385 . S
C2856 C2854 1.478 . S
C2856 C2858 1.381 . S
C2856 C2862 1.383 . S
C2857 C2853 1.495 . S
C2857 H2863 0.959 . S
C2857 H2864 0.961 . S
C2857 H2865 0.960 . S
C2858 C2856 1.381 . S
C2858 C2859 1.394 . S
C2858 H2866 0.930 . S
C2859 C2858 1.394 . S
C2859 C2860 1.383 . S
C2859 H2867 0.929 . S
C2860 C2859 1.383 . S
C2860 C2861 1.377 . S
C2861 H2845 0.930 . S
C2861 C2860 1.377 . S
C2861 C2862 1.379 . S
C2862 H2846 0.931 . S
C2862 C2856 1.383 . S
C2862 C2861 1.379 . S
H2863 C2857 0.959 . S
H2864 C2857 0.961 . S
H2865 C2857 0.960 . S
H2866 C2858 0.930 . S
H2867 C2859 0.929 . S
H2868 C2876 0.929 . S
H2869 C2878 0.930 . S
H2870 C2880 0.930 . S
H2871 C2883 0.929 . S
H2872 C2886 0.930 . S
H2873 C2888 0.960 . S
H2874 C2888 0.960 . S
H2875 C2888 0.960 . S
C2876 H2868 0.929 . S
C2876 C2877 1.377 . S
C2876 C2878 1.384 . S
C2877 C2876 1.377 . S
C2877 C2883 1.390 . S
C2878 H2869 0.930 . S
C2878 C2876 1.384 . S
C2878 C2879 1.372 . S
C2879 C2878 1.372 . S
C2879 C2880 1.400 . S
C2879 C2884 1.490 . S
C2880 H2870 0.930 . S
C2880 C2879 1.400 . S
C2880 C2883 1.386 . S
H2881 C2897 0.930 . S
H2882 C2898 0.931 . S
C2883 H2871 0.929 . S
C2883 C2877 1.390 . S
C2883 C2880 1.386 . S
C2884 C2879 1.490 . S
C2884 C2886 1.395 . S
C2884 C2887 1.403 . S
H2885 C2891 0.930 . S
C2886 H2872 0.930 . S
C2886 C2884 1.395 . S
C2886 C2889 1.403 . S
C2887 C2884 1.403 . S
C2887 C2888 1.524 . S
C2887 C2891 1.400 . S
C2888 H2873 0.960 . S
C2888 H2874 0.960 . S
C2888 H2875 0.960 . S
C2888 C2887 1.524 . S
C2889 C2886 1.403 . S
C2889 C2890 1.392 . S
C2889 C2893 1.495 . S
C2890 C2889 1.392 . S
C2890 C2891 1.385 . S
C2890 C2892 1.478 . S
C2891 H2885 0.930 . S
C2891 C2887 1.400 . S
C2891 C2890 1.385 . S
C2892 C2890 1.478 . S
C2892 C2894 1.381 . S
C2892 C2898 1.383 . S
C2893 C2889 1.495 . S
C2893 H2899 0.959 . S
C2893 H2900 0.961 . S
C2893 H2901 0.960 . S
C2894 C2892 1.381 . S
C2894 C2895 1.394 . S
C2894 H2902 0.930 . S
C2895 C2894 1.394 . S
C2895 C2896 1.383 . S
C2895 H2903 0.929 . S
C2896 C2895 1.383 . S
C2896 C2897 1.377 . S
C2897 H2881 0.930 . S
C2897 C2896 1.377 . S
C2897 C2898 1.379 . S
C2898 H2882 0.931 . S
C2898 C2892 1.383 . S
C2898 C2897 1.379 . S
H2899 C2893 0.959 . S
H2900 C2893 0.961 . S
H2901 C2893 0.960 . S
H2902 C2894 0.930 . S
H2903 C2895 0.929 . S
H2904 C2912 0.929 . S
H2905 C2914 0.930 . S
H2906 C2916 0.930 . S
H2907 C2919 0.929 . S
H2908 C2922 0.930 . S
H2909 C2924 0.960 . S
H2910 C2924 0.960 . S
H2911 C2924 0.960 . S
C2912 H2904 0.929 . S
C2912 C2913 1.377 . S
C2912 C2914 1.384 . S
C2913 C2912 1.377 . S
C2913 C2919 1.390 . S
C2914 H2905 0.930 . S
C2914 C2912 1.384 . S
C2914 C2915 1.372 . S
C2915 C2914 1.372 . S
C2915 C2916 1.400 . S
C2915 C2920 1.490 . S
C2916 H2906 0.930 . S
C2916 C2915 1.400 . S
C2916 C2919 1.386 . S
H2917 C2933 0.930 . S
H2918 C2934 0.931 . S
C2919 H2907 0.929 . S
C2919 C2913 1.390 . S
C2919 C2916 1.386 . S
C2920 C2915 1.490 . S
C2920 C2922 1.395 . S
C2920 C2923 1.403 . S
H2921 C2927 0.930 . S
C2922 H2908 0.930 . S
C2922 C2920 1.395 . S
C2922 C2925 1.403 . S
C2923 C2920 1.403 . S
C2923 C2924 1.524 . S
C2923 C2927 1.400 . S
C2924 H2909 0.960 . S
C2924 H2910 0.960 . S
C2924 H2911 0.960 . S
C2924 C2923 1.524 . S
C2925 C2922 1.403 . S
C2925 C2926 1.392 . S
C2925 C2929 1.495 . S
C2926 C2925 1.392 . S
C2926 C2927 1.385 . S
C2926 C2928 1.478 . S
C2927 H2921 0.930 . S
C2927 C2923 1.400 . S
C2927 C2926 1.385 . S
C2928 C2926 1.478 . S
C2928 C2930 1.381 . S
C2928 C2934 1.383 . S
C2929 C2925 1.495 . S
C2929 H2935 0.959 . S
C2929 H2936 0.961 . S
C2929 H2937 0.960 . S
C2930 C2928 1.381 . S
C2930 C2931 1.394 . S
C2930 H2938 0.930 . S
C2931 C2930 1.394 . S
C2931 C2932 1.383 . S
C2931 H2939 0.929 . S
C2932 C2931 1.383 . S
C2932 C2933 1.377 . S
C2933 H2917 0.930 . S
C2933 C2932 1.377 . S
C2933 C2934 1.379 . S
C2934 H2918 0.931 . S
C2934 C2928 1.383 . S
C2934 C2933 1.379 . S
H2935 C2929 0.959 . S
H2936 C2929 0.961 . S
H2937 C2929 0.960 . S
H2938 C2930 0.930 . S
H2939 C2931 0.929 . S
H2940 C2948 0.929 . S
H2941 C2950 0.930 . S
H2942 C2952 0.930 . S
H2943 C2955 0.929 . S
H2944 C2958 0.930 . S
H2945 C2960 0.960 . S
H2946 C2960 0.960 . S
H2947 C2960 0.960 . S
C2948 H2940 0.929 . S
C2948 C2949 1.377 . S
C2948 C2950 1.384 . S
C2949 C2948 1.377 . S
C2949 C2955 1.390 . S
C2950 H2941 0.930 . S
C2950 C2948 1.384 . S
C2950 C2951 1.372 . S
C2951 C2950 1.372 . S
C2951 C2952 1.400 . S
C2951 C2956 1.490 . S
C2952 H2942 0.930 . S
C2952 C2951 1.400 . S
C2952 C2955 1.386 . S
H2953 C2969 0.930 . S
H2954 C2970 0.931 . S
C2955 H2943 0.929 . S
C2955 C2949 1.390 . S
C2955 C2952 1.386 . S
C2956 C2951 1.490 . S
C2956 C2958 1.395 . S
C2956 C2959 1.403 . S
H2957 C2963 0.930 . S
C2958 H2944 0.930 . S
C2958 C2956 1.395 . S
C2958 C2961 1.403 . S
C2959 C2956 1.403 . S
C2959 C2960 1.524 . S
C2959 C2963 1.400 . S
C2960 H2945 0.960 . S
C2960 H2946 0.960 . S
C2960 H2947 0.960 . S
C2960 C2959 1.524 . S
C2961 C2958 1.403 . S
C2961 C2962 1.392 . S
C2961 C2965 1.495 . S
C2962 C2961 1.392 . S
C2962 C2963 1.385 . S
C2962 C2964 1.478 . S
C2963 H2957 0.930 . S
C2963 C2959 1.400 . S
C2963 C2962 1.385 . S
C2964 C2962 1.478 . S
C2964 C2966 1.381 . S
C2964 C2970 1.383 . S
C2965 C2961 1.495 . S
C2965 H2971 0.959 . S
C2965 H2972 0.961 . S
C2965 H2973 0.960 . S
C2966 C2964 1.381 . S
C2966 C2967 1.394 . S
C2966 H2974 0.930 . S
C2967 C2966 1.394 . S
C2967 C2968 1.383 . S
C2967 H2975 0.929 . S
C2968 C2967 1.383 . S
C2968 C2969 1.377 . S
C2969 H2953 0.930 . S
C2969 C2968 1.377 . S
C2969 C2970 1.379 . S
C2970 H2954 0.931 . S
C2970 C2964 1.383 . S
C2970 C2969 1.379 . S
H2971 C2965 0.959 . S
H2972 C2965 0.961 . S
H2973 C2965 0.960 . S
H2974 C2966 0.930 . S
H2975 C2967 0.929 . S
H2976 C2984 0.929 . S
H2977 C2986 0.930 . S
H2978 C2988 0.930 . S
H2979 C2991 0.929 . S
H2980 C2994 0.930 . S
H2981 C2996 0.960 . S
H2982 C2996 0.960 . S
H2983 C2996 0.960 . S
C2984 H2976 0.929 . S
C2984 C2985 1.377 . S
C2984 C2986 1.384 . S
C2985 C2984 1.377 . S
C2985 C2991 1.390 . S
C2986 H2977 0.930 . S
C2986 C2984 1.384 . S
C2986 C2987 1.372 . S
C2987 C2986 1.372 . S
C2987 C2988 1.400 . S
C2987 C2992 1.490 . S
C2988 H2978 0.930 . S
C2988 C2987 1.400 . S
C2988 C2991 1.386 . S
H2989 C3005 0.930 . S
H2990 C3006 0.931 . S
C2991 H2979 0.929 . S
C2991 C2985 1.390 . S
C2991 C2988 1.386 . S
C2992 C2987 1.490 . S
C2992 C2994 1.395 . S
C2992 C2995 1.403 . S
H2993 C2999 0.930 . S
C2994 H2980 0.930 . S
C2994 C2992 1.395 . S
C2994 C2997 1.403 . S
C2995 C2992 1.403 . S
C2995 C2996 1.524 . S
C2995 C2999 1.400 . S
C2996 H2981 0.960 . S
C2996 H2982 0.960 . S
C2996 H2983 0.960 . S
C2996 C2995 1.524 . S
C2997 C2994 1.403 . S
C2997 C2998 1.392 . S
C2997 C3001 1.495 . S
C2998 C2997 1.392 . S
C2998 C2999 1.385 . S
C2998 C3000 1.478 . S
C2999 H2993 0.930 . S
C2999 C2995 1.400 . S
C2999 C2998 1.385 . S
C3000 C2998 1.478 . S
C3000 C3002 1.381 . S
C3000 C3006 1.383 . S
C3001 C2997 1.495 . S
C3001 H3007 0.959 . S
C3001 H3008 0.961 . S
C3001 H3009 0.960 . S
C3002 C3000 1.381 . S
C3002 C3003 1.394 . S
C3002 H3010 0.930 . S
C3003 C3002 1.394 . S
C3003 C3004 1.383 . S
C3003 H3011 0.929 . S
C3004 C3003 1.383 . S
C3004 C3005 1.377 . S
C3005 H2989 0.930 . S
C3005 C3004 1.377 . S
C3005 C3006 1.379 . S
C3006 H2990 0.931 . S
C3006 C3000 1.383 . S
C3006 C3005 1.379 . S
H3007 C3001 0.959 . S
H3008 C3001 0.961 . S
H3009 C3001 0.960 . S
H3010 C3002 0.930 . S
H3011 C3003 0.929 . S
H3012 C3020 0.929 . S
H3013 C3022 0.930 . S
H3014 C3024 0.930 . S
H3015 C3027 0.929 . S
H3016 C3030 0.930 . S
H3017 C3032 0.960 . S
H3018 C3032 0.960 . S
H3019 C3032 0.960 . S
C3020 H3012 0.929 . S
C3020 C3021 1.377 . S
C3020 C3022 1.384 . S
C3021 C3020 1.377 . S
C3021 C3027 1.390 . S
C3022 H3013 0.930 . S
C3022 C3020 1.384 . S
C3022 C3023 1.372 . S
C3023 C3022 1.372 . S
C3023 C3024 1.400 . S
C3023 C3028 1.490 . S
C3024 H3014 0.930 . S
C3024 C3023 1.400 . S
C3024 C3027 1.386 . S
H3025 C3041 0.930 . S
H3026 C3042 0.931 . S
C3027 H3015 0.929 . S
C3027 C3021 1.390 . S
C3027 C3024 1.386 . S
C3028 C3023 1.490 . S
C3028 C3030 1.395 . S
C3028 C3031 1.403 . S
H3029 C3035 0.930 . S
C3030 H3016 0.930 . S
C3030 C3028 1.395 . S
C3030 C3033 1.403 . S
C3031 C3028 1.403 . S
C3031 C3032 1.524 . S
C3031 C3035 1.400 . S
C3032 H3017 0.960 . S
C3032 H3018 0.960 . S
C3032 H3019 0.960 . S
C3032 C3031 1.524 . S
C3033 C3030 1.403 . S
C3033 C3034 1.392 . S
C3033 C3037 1.495 . S
C3034 C3033 1.392 . S
C3034 C3035 1.385 . S
C3034 C3036 1.478 . S
C3035 H3029 0.930 . S
C3035 C3031 1.400 . S
C3035 C3034 1.385 . S
C3036 C3034 1.478 . S
C3036 C3038 1.381 . S
C3036 C3042 1.383 . S
C3037 C3033 1.495 . S
C3037 H3043 0.959 . S
C3037 H3044 0.961 . S
C3037 H3045 0.960 . S
C3038 C3036 1.381 . S
C3038 C3039 1.394 . S
C3038 H3046 0.930 . S
C3039 C3038 1.394 . S
C3039 C3040 1.383 . S
C3039 H3047 0.929 . S
C3040 C3039 1.383 . S
C3040 C3041 1.377 . S
C3041 H3025 0.930 . S
C3041 C3040 1.377 . S
C3041 C3042 1.379 . S
C3042 H3026 0.931 . S
C3042 C3036 1.383 . S
C3042 C3041 1.379 . S
H3043 C3037 0.959 . S
H3044 C3037 0.961 . S
H3045 C3037 0.960 . S
H3046 C3038 0.930 . S
H3047 C3039 0.929 . S
H3048 C3056 0.929 . S
H3049 C3058 0.930 . S
H3050 C3060 0.930 . S
H3051 C3063 0.929 . S
H3052 C3066 0.930 . S
H3053 C3068 0.960 . S
H3054 C3068 0.960 . S
H3055 C3068 0.960 . S
C3056 H3048 0.929 . S
C3056 C3057 1.377 . S
C3056 C3058 1.384 . S
C3057 C3056 1.377 . S
C3057 C3063 1.390 . S
C3058 H3049 0.930 . S
C3058 C3056 1.384 . S
C3058 C3059 1.372 . S
C3059 C3058 1.372 . S
C3059 C3060 1.400 . S
C3059 C3064 1.490 . S
C3060 H3050 0.930 . S
C3060 C3059 1.400 . S
C3060 C3063 1.386 . S
H3061 C3077 0.930 . S
H3062 C3078 0.931 . S
C3063 H3051 0.929 . S
C3063 C3057 1.390 . S
C3063 C3060 1.386 . S
C3064 C3059 1.490 . S
C3064 C3066 1.395 . S
C3064 C3067 1.403 . S
H3065 C3071 0.930 . S
C3066 H3052 0.930 . S
C3066 C3064 1.395 . S
C3066 C3069 1.403 . S
C3067 C3064 1.403 . S
C3067 C3068 1.524 . S
C3067 C3071 1.400 . S
C3068 H3053 0.960 . S
C3068 H3054 0.960 . S
C3068 H3055 0.960 . S
C3068 C3067 1.524 . S
C3069 C3066 1.403 . S
C3069 C3070 1.392 . S
C3069 C3073 1.495 . S
C3070 C3069 1.392 . S
C3070 C3071 1.385 . S
C3070 C3072 1.478 . S
C3071 H3065 0.930 . S
C3071 C3067 1.400 . S
C3071 C3070 1.385 . S
C3072 C3070 1.478 . S
C3072 C3074 1.381 . S
C3072 C3078 1.383 . S
C3073 C3069 1.495 . S
C3073 H3079 0.959 . S
C3073 H3080 0.961 . S
C3073 H3081 0.960 . S
C3074 C3072 1.381 . S
C3074 C3075 1.394 . S
C3074 H3082 0.930 . S
C3075 C3074 1.394 . S
C3075 C3076 1.383 . S
C3075 H3083 0.929 . S
C3076 C3075 1.383 . S
C3076 C3077 1.377 . S
C3077 H3061 0.930 . S
C3077 C3076 1.377 . S
C3077 C3078 1.379 . S
C3078 H3062 0.931 . S
C3078 C3072 1.383 . S
C3078 C3077 1.379 . S
H3079 C3073 0.959 . S
H3080 C3073 0.961 . S
H3081 C3073 0.960 . S
H3082 C3074 0.930 . S
H3083 C3075 0.929 . S
H3084 C3092 0.929 . S
H3085 C3094 0.930 . S
H3086 C3096 0.930 . S
H3087 C3099 0.929 . S
H3088 C3102 0.930 . S
H3089 C3104 0.960 . S
H3090 C3104 0.960 . S
H3091 C3104 0.960 . S
C3092 H3084 0.929 . S
C3092 C3093 1.377 . S
C3092 C3094 1.384 . S
C3093 C3092 1.377 . S
C3093 C3099 1.390 . S
C3094 H3085 0.930 . S
C3094 C3092 1.384 . S
C3094 C3095 1.372 . S
C3095 C3094 1.372 . S
C3095 C3096 1.400 . S
C3095 C3100 1.490 . S
C3096 H3086 0.930 . S
C3096 C3095 1.400 . S
C3096 C3099 1.386 . S
H3097 C3113 0.930 . S
H3098 C3114 0.931 . S
C3099 H3087 0.929 . S
C3099 C3093 1.390 . S
C3099 C3096 1.386 . S
C3100 C3095 1.490 . S
C3100 C3102 1.395 . S
C3100 C3103 1.403 . S
H3101 C3107 0.930 . S
C3102 H3088 0.930 . S
C3102 C3100 1.395 . S
C3102 C3105 1.403 . S
C3103 C3100 1.403 . S
C3103 C3104 1.524 . S
C3103 C3107 1.400 . S
C3104 H3089 0.960 . S
C3104 H3090 0.960 . S
C3104 H3091 0.960 . S
C3104 C3103 1.524 . S
C3105 C3102 1.403 . S
C3105 C3106 1.392 . S
C3105 C3109 1.495 . S
C3106 C3105 1.392 . S
C3106 C3107 1.385 . S
C3106 C3108 1.478 . S
C3107 H3101 0.930 . S
C3107 C3103 1.400 . S
C3107 C3106 1.385 . S
C3108 C3106 1.478 . S
C3108 C3110 1.381 . S
C3108 C3114 1.383 . S
C3109 C3105 1.495 . S
C3109 H3115 0.959 . S
C3109 H3116 0.961 . S
C3109 H3117 0.960 . S
C3110 C3108 1.381 . S
C3110 C3111 1.394 . S
C3110 H3118 0.930 . S
C3111 C3110 1.394 . S
C3111 C3112 1.383 . S
C3111 H3119 0.929 . S
C3112 C3111 1.383 . S
C3112 C3113 1.377 . S
C3113 H3097 0.930 . S
C3113 C3112 1.377 . S
C3113 C3114 1.379 . S
C3114 H3098 0.931 . S
C3114 C3108 1.383 . S
C3114 C3113 1.379 . S
H3115 C3109 0.959 . S
H3116 C3109 0.961 . S
H3117 C3109 0.960 . S
H3118 C3110 0.930 . S
H3119 C3111 0.929 . S
H3120 C3128 0.929 . S
H3121 C3130 0.930 . S
H3122 C3132 0.930 . S
H3123 C3135 0.929 . S
H3124 C3138 0.930 . S
H3125 C3140 0.960 . S
H3126 C3140 0.960 . S
H3127 C3140 0.960 . S
C3128 H3120 0.929 . S
C3128 C3129 1.377 . S
C3128 C3130 1.384 . S
C3129 C3128 1.377 . S
C3129 C3135 1.390 . S
C3130 H3121 0.930 . S
C3130 C3128 1.384 . S
C3130 C3131 1.372 . S
C3131 C3130 1.372 . S
C3131 C3132 1.400 . S
C3131 C3136 1.490 . S
C3132 H3122 0.930 . S
C3132 C3131 1.400 . S
C3132 C3135 1.386 . S
H3133 C3149 0.930 . S
H3134 C3150 0.931 . S
C3135 H3123 0.929 . S
C3135 C3129 1.390 . S
C3135 C3132 1.386 . S
C3136 C3131 1.490 . S
C3136 C3138 1.395 . S
C3136 C3139 1.403 . S
H3137 C3143 0.930 . S
C3138 H3124 0.930 . S
C3138 C3136 1.395 . S
C3138 C3141 1.403 . S
C3139 C3136 1.403 . S
C3139 C3140 1.524 . S
C3139 C3143 1.400 . S
C3140 H3125 0.960 . S
C3140 H3126 0.960 . S
C3140 H3127 0.960 . S
C3140 C3139 1.524 . S
C3141 C3138 1.403 . S
C3141 C3142 1.392 . S
C3141 C3145 1.495 . S
C3142 C3141 1.392 . S
C3142 C3143 1.385 . S
C3142 C3144 1.478 . S
C3143 H3137 0.930 . S
C3143 C3139 1.400 . S
C3143 C3142 1.385 . S
C3144 C3142 1.478 . S
C3144 C3146 1.381 . S
C3144 C3150 1.383 . S
C3145 C3141 1.495 . S
C3145 H3151 0.959 . S
C3145 H3152 0.961 . S
C3145 H3153 0.960 . S
C3146 C3144 1.381 . S
C3146 C3147 1.394 . S
C3146 H3154 0.930 . S
C3147 C3146 1.394 . S
C3147 C3148 1.383 . S
C3147 H3155 0.929 . S
C3148 C3147 1.383 . S
C3148 C3149 1.377 . S
C3149 H3133 0.930 . S
C3149 C3148 1.377 . S
C3149 C3150 1.379 . S
C3150 H3134 0.931 . S
C3150 C3144 1.383 . S
C3150 C3149 1.379 . S
H3151 C3145 0.959 . S
H3152 C3145 0.961 . S
H3153 C3145 0.960 . S
H3154 C3146 0.930 . S
H3155 C3147 0.929 . S
H3156 C3164 0.929 . S
H3157 C3166 0.930 . S
H3158 C3168 0.930 . S
H3159 C3171 0.929 . S
H3160 C3174 0.930 . S
H3161 C3176 0.960 . S
H3162 C3176 0.960 . S
H3163 C3176 0.960 . S
C3164 H3156 0.929 . S
C3164 C3165 1.377 . S
C3164 C3166 1.384 . S
C3165 C3164 1.377 . S
C3165 C3171 1.390 . S
C3166 H3157 0.930 . S
C3166 C3164 1.384 . S
C3166 C3167 1.372 . S
C3167 C3166 1.372 . S
C3167 C3168 1.400 . S
C3167 C3172 1.490 . S
C3168 H3158 0.930 . S
C3168 C3167 1.400 . S
C3168 C3171 1.386 . S
H3169 C3185 0.930 . S
H3170 C3186 0.931 . S
C3171 H3159 0.929 . S
C3171 C3165 1.390 . S
C3171 C3168 1.386 . S
C3172 C3167 1.490 . S
C3172 C3174 1.395 . S
C3172 C3175 1.403 . S
H3173 C3179 0.930 . S
C3174 H3160 0.930 . S
C3174 C3172 1.395 . S
C3174 C3177 1.403 . S
C3175 C3172 1.403 . S
C3175 C3176 1.524 . S
C3175 C3179 1.400 . S
C3176 H3161 0.960 . S
C3176 H3162 0.960 . S
C3176 H3163 0.960 . S
C3176 C3175 1.524 . S
C3177 C3174 1.403 . S
C3177 C3178 1.392 . S
C3177 C3181 1.495 . S
C3178 C3177 1.392 . S
C3178 C3179 1.385 . S
C3178 C3180 1.478 . S
C3179 H3173 0.930 . S
C3179 C3175 1.400 . S
C3179 C3178 1.385 . S
C3180 C3178 1.478 . S
C3180 C3182 1.381 . S
C3180 C3186 1.383 . S
C3181 C3177 1.495 . S
C3181 H3187 0.959 . S
C3181 H3188 0.961 . S
C3181 H3189 0.960 . S
C3182 C3180 1.381 . S
C3182 C3183 1.394 . S
C3182 H3190 0.930 . S
C3183 C3182 1.394 . S
C3183 C3184 1.383 . S
C3183 H3191 0.929 . S
C3184 C3183 1.383 . S
C3184 C3185 1.377 . S
C3185 H3169 0.930 . S
C3185 C3184 1.377 . S
C3185 C3186 1.379 . S
C3186 H3170 0.931 . S
C3186 C3180 1.383 . S
C3186 C3185 1.379 . S
H3187 C3181 0.959 . S
H3188 C3181 0.961 . S
H3189 C3181 0.960 . S
H3190 C3182 0.930 . S
H3191 C3183 0.929 . S
H3192 C3200 0.929 . S
H3193 C3202 0.930 . S
H3194 C3204 0.930 . S
H3195 C3207 0.929 . S
H3196 C3210 0.930 . S
H3197 C3212 0.960 . S
H3198 C3212 0.960 . S
H3199 C3212 0.960 . S
C3200 H3192 0.929 . S
C3200 C3201 1.377 . S
C3200 C3202 1.384 . S
C3201 C3200 1.377 . S
C3201 C3207 1.390 . S
C3202 H3193 0.930 . S
C3202 C3200 1.384 . S
C3202 C3203 1.372 . S
C3203 C3202 1.372 . S
C3203 C3204 1.400 . S
C3203 C3208 1.490 . S
C3204 H3194 0.930 . S
C3204 C3203 1.400 . S
C3204 C3207 1.386 . S
H3205 C3221 0.930 . S
H3206 C3222 0.931 . S
C3207 H3195 0.929 . S
C3207 C3201 1.390 . S
C3207 C3204 1.386 . S
C3208 C3203 1.490 . S
C3208 C3210 1.395 . S
C3208 C3211 1.403 . S
H3209 C3215 0.930 . S
C3210 H3196 0.930 . S
C3210 C3208 1.395 . S
C3210 C3213 1.403 . S
C3211 C3208 1.403 . S
C3211 C3212 1.524 . S
C3211 C3215 1.400 . S
C3212 H3197 0.960 . S
C3212 H3198 0.960 . S
C3212 H3199 0.960 . S
C3212 C3211 1.524 . S
C3213 C3210 1.403 . S
C3213 C3214 1.392 . S
C3213 C3217 1.495 . S
C3214 C3213 1.392 . S
C3214 C3215 1.385 . S
C3214 C3216 1.478 . S
C3215 H3209 0.930 . S
C3215 C3211 1.400 . S
C3215 C3214 1.385 . S
C3216 C3214 1.478 . S
C3216 C3218 1.381 . S
C3216 C3222 1.383 . S
C3217 C3213 1.495 . S
C3217 H3223 0.959 . S
C3217 H3224 0.961 . S
C3217 H3225 0.960 . S
C3218 C3216 1.381 . S
C3218 C3219 1.394 . S
C3218 H3226 0.930 . S
C3219 C3218 1.394 . S
C3219 C3220 1.383 . S
C3219 H3227 0.929 . S
C3220 C3219 1.383 . S
C3220 C3221 1.377 . S
C3221 H3205 0.930 . S
C3221 C3220 1.377 . S
C3221 C3222 1.379 . S
C3222 H3206 0.931 . S
C3222 C3216 1.383 . S
C3222 C3221 1.379 . S
H3223 C3217 0.959 . S
H3224 C3217 0.961 . S
H3225 C3217 0.960 . S
H3226 C3218 0.930 . S
H3227 C3219 0.929 . S
H3228 C3236 0.929 . S
H3229 C3238 0.930 . S
H3230 C3240 0.930 . S
H3231 C3243 0.929 . S
H3232 C3246 0.930 . S
H3233 C3248 0.960 . S
H3234 C3248 0.960 . S
H3235 C3248 0.960 . S
C3236 H3228 0.929 . S
C3236 C3237 1.377 . S
C3236 C3238 1.384 . S
C3237 C3236 1.377 . S
C3237 C3243 1.390 . S
C3238 H3229 0.930 . S
C3238 C3236 1.384 . S
C3238 C3239 1.372 . S
C3239 C3238 1.372 . S
C3239 C3240 1.400 . S
C3239 C3244 1.490 . S
C3240 H3230 0.930 . S
C3240 C3239 1.400 . S
C3240 C3243 1.386 . S
H3241 C3257 0.930 . S
H3242 C3258 0.931 . S
C3243 H3231 0.929 . S
C3243 C3237 1.390 . S
C3243 C3240 1.386 . S
C3244 C3239 1.490 . S
C3244 C3246 1.395 . S
C3244 C3247 1.403 . S
H3245 C3251 0.930 . S
C3246 H3232 0.930 . S
C3246 C3244 1.395 . S
C3246 C3249 1.403 . S
C3247 C3244 1.403 . S
C3247 C3248 1.524 . S
C3247 C3251 1.400 . S
C3248 H3233 0.960 . S
C3248 H3234 0.960 . S
C3248 H3235 0.960 . S
C3248 C3247 1.524 . S
C3249 C3246 1.403 . S
C3249 C3250 1.392 . S
C3249 C3253 1.495 . S
C3250 C3249 1.392 . S
C3250 C3251 1.385 . S
C3250 C3252 1.478 . S
C3251 H3245 0.930 . S
C3251 C3247 1.400 . S
C3251 C3250 1.385 . S
C3252 C3250 1.478 . S
C3252 C3254 1.381 . S
C3252 C3258 1.383 . S
C3253 C3249 1.495 . S
C3253 H3259 0.959 . S
C3253 H3260 0.961 . S
C3253 H3261 0.960 . S
C3254 C3252 1.381 . S
C3254 C3255 1.394 . S
C3254 H3262 0.930 . S
C3255 C3254 1.394 . S
C3255 C3256 1.383 . S
C3255 H3263 0.929 . S
C3256 C3255 1.383 . S
C3256 C3257 1.377 . S
C3257 H3241 0.930 . S
C3257 C3256 1.377 . S
C3257 C3258 1.379 . S
C3258 H3242 0.931 . S
C3258 C3252 1.383 . S
C3258 C3257 1.379 . S
H3259 C3253 0.959 . S
H3260 C3253 0.961 . S
H3261 C3253 0.960 . S
H3262 C3254 0.930 . S
H3263 C3255 0.929 . S
H3264 C3272 0.929 . S
H3265 C3274 0.930 . S
H3266 C3276 0.930 . S
H3267 C3279 0.929 . S
H3268 C3282 0.930 . S
H3269 C3284 0.960 . S
H3270 C3284 0.960 . S
H3271 C3284 0.960 . S
C3272 H3264 0.929 . S
C3272 C3273 1.377 . S
C3272 C3274 1.384 . S
C3273 C3272 1.377 . S
C3273 C3279 1.390 1_655 S
C3274 H3265 0.930 . S
C3274 C3272 1.384 . S
C3274 C3275 1.372 . S
C3275 C3274 1.372 . S
C3275 C3276 1.400 1_655 S
C3275 C3280 1.490 . S
C3276 H3266 0.930 . S
C3276 C3275 1.400 1_455 S
C3276 C3279 1.386 . S
H3277 C3293 0.930 1_455 S
H3278 C3294 0.931 1_455 S
C3279 H3267 0.929 . S
C3279 C3273 1.390 1_455 S
C3279 C3276 1.386 . S
C3280 C3275 1.490 . S
C3280 C3282 1.395 . S
C3280 C3283 1.403 . S
H3281 C3287 0.875 1_455 S
C3282 H3268 0.930 . S
C3282 C3280 1.395 . S
C3282 C3285 1.403 . S
C3283 C3280 1.403 . S
C3283 C3284 1.524 1_655 S
C3283 C3287 1.400 . S
C3284 H3269 0.960 . S
C3284 H3270 0.960 . S
C3284 H3271 0.960 . S
C3284 C3283 1.524 1_455 S
C3285 C3282 1.403 . S
C3285 C3286 1.392 . S
C3285 C3289 1.495 . S
C3286 C3285 1.392 . S
C3286 C3287 1.385 . S
C3286 C3288 1.478 . S
C3287 H3281 0.875 1_655 S
C3287 C3283 1.400 . S
C3287 C3286 1.385 . S
C3288 C3286 1.478 . S
C3288 C3290 1.381 . S
C3288 C3294 1.383 . S
C3289 C3285 1.495 . S
C3289 H3295 0.959 . S
C3289 H3296 0.961 . S
C3289 H3297 0.960 . S
C3290 C3288 1.381 . S
C3290 C3291 1.394 . S
C3290 H3298 0.930 . S
C3291 C3290 1.394 . S
C3291 C3292 1.383 . S
C3291 H3299 0.929 . S
C3292 C3291 1.383 . S
C3292 C3293 1.377 . S
C3293 H3277 0.930 1_655 S
C3293 C3292 1.377 . S
C3293 C3294 1.379 . S
C3294 H3278 0.931 1_655 S
C3294 C3288 1.383 . S
C3294 C3293 1.379 . S
H3295 C3289 0.959 . S
H3296 C3289 0.961 . S
H3297 C3289 0.960 . S
H3298 C3290 0.930 . S
H3299 C3291 0.929 . S
H3300 C3308 0.929 . S
H3301 C3310 0.930 . S
H3302 C3312 0.930 . S
H3303 C3315 0.929 . S
H3304 C3318 0.930 . S
H3305 C3320 0.960 . S
H3306 C3320 0.960 . S
H3307 C3320 0.960 . S
C3308 H3300 0.929 . S
C3308 C3309 1.377 . S
C3308 C3310 1.384 . S
C3309 C3308 1.377 . S
C3309 C3315 1.390 . S
C3310 H3301 0.930 . S
C3310 C3308 1.384 . S
C3310 C3311 1.372 . S
C3311 C3310 1.372 . S
C3311 C3312 1.400 . S
C3311 C3316 1.490 . S
C3312 H3302 0.930 . S
C3312 C3311 1.400 . S
C3312 C3315 1.386 . S
H3313 C3329 0.930 . S
H3314 C3330 0.931 . S
C3315 H3303 0.929 . S
C3315 C3309 1.390 . S
C3315 C3312 1.386 . S
C3316 C3311 1.490 . S
C3316 C3318 1.395 . S
C3316 C3319 1.403 . S
H3317 C3323 0.930 . S
C3318 H3304 0.930 . S
C3318 C3316 1.395 . S
C3318 C3321 1.403 . S
C3319 C3316 1.403 . S
C3319 C3320 1.524 . S
C3319 C3323 1.400 . S
C3320 H3305 0.960 . S
C3320 H3306 0.960 . S
C3320 H3307 0.960 . S
C3320 C3319 1.524 . S
C3321 C3318 1.403 . S
C3321 C3322 1.392 . S
C3321 C3325 1.495 . S
C3322 C3321 1.392 . S
C3322 C3323 1.385 . S
C3322 C3324 1.478 . S
C3323 H3317 0.930 . S
C3323 C3319 1.400 . S
C3323 C3322 1.385 . S
C3324 C3322 1.478 . S
C3324 C3326 1.381 . S
C3324 C3330 1.383 . S
C3325 C3321 1.495 . S
C3325 H3331 0.959 . S
C3325 H3332 0.961 . S
C3325 H3333 0.960 . S
C3326 C3324 1.381 . S
C3326 C3327 1.394 . S
C3326 H3334 0.930 . S
C3327 C3326 1.394 . S
C3327 C3328 1.383 . S
C3327 H3335 0.929 . S
C3328 C3327 1.383 . S
C3328 C3329 1.377 . S
C3329 H3313 0.930 . S
C3329 C3328 1.377 . S
C3329 C3330 1.379 . S
C3330 H3314 0.931 . S
C3330 C3324 1.383 . S
C3330 C3329 1.379 . S
H3331 C3325 0.959 . S
H3332 C3325 0.961 . S
H3333 C3325 0.960 . S
H3334 C3326 0.930 . S
H3335 C3327 0.929 . S
H3336 C3344 0.929 . S
H3337 C3346 0.930 . S
H3338 C3348 0.930 . S
H3339 C3351 0.929 . S
H3340 C3354 0.930 . S
H3341 C3356 0.960 . S
H3342 C3356 0.960 . S
H3343 C3356 0.960 . S
C3344 H3336 0.929 . S
C3344 C3345 1.377 . S
C3344 C3346 1.384 . S
C3345 C3344 1.377 . S
C3345 C3351 1.390 . S
C3346 H3337 0.930 . S
C3346 C3344 1.384 . S
C3346 C3347 1.372 . S
C3347 C3346 1.372 . S
C3347 C3348 1.400 . S
C3347 C3352 1.490 . S
C3348 H3338 0.930 . S
C3348 C3347 1.400 . S
C3348 C3351 1.386 . S
H3349 C3365 0.930 . S
H3350 C3366 0.931 . S
C3351 H3339 0.929 . S
C3351 C3345 1.390 . S
C3351 C3348 1.386 . S
C3352 C3347 1.490 . S
C3352 C3354 1.395 . S
C3352 C3355 1.403 . S
H3353 C3359 0.930 . S
C3354 H3340 0.930 . S
C3354 C3352 1.395 . S
C3354 C3357 1.403 . S
C3355 C3352 1.403 . S
C3355 C3356 1.524 . S
C3355 C3359 1.400 . S
C3356 H3341 0.960 . S
C3356 H3342 0.960 . S
C3356 H3343 0.960 . S
C3356 C3355 1.524 . S
C3357 C3354 1.403 . S
C3357 C3358 1.392 . S
C3357 C3361 1.495 . S
C3358 C3357 1.392 . S
C3358 C3359 1.385 . S
C3358 C3360 1.478 . S
C3359 H3353 0.930 . S
C3359 C3355 1.400 . S
C3359 C3358 1.385 . S
C3360 C3358 1.478 . S
C3360 C3362 1.381 . S
C3360 C3366 1.383 . S
C3361 C3357 1.495 . S
C3361 H3367 0.959 . S
C3361 H3368 0.961 . S
C3361 H3369 0.960 . S
C3362 C3360 1.381 . S
C3362 C3363 1.394 . S
C3362 H3370 0.930 . S
C3363 C3362 1.394 . S
C3363 C3364 1.383 . S
C3363 H3371 0.929 . S
C3364 C3363 1.383 . S
C3364 C3365 1.377 . S
C3365 H3349 0.930 . S
C3365 C3364 1.377 . S
C3365 C3366 1.379 . S
C3366 H3350 0.931 . S
C3366 C3360 1.383 . S
C3366 C3365 1.379 . S
H3367 C3361 0.959 . S
H3368 C3361 0.961 . S
H3369 C3361 0.960 . S
H3370 C3362 0.930 . S
H3371 C3363 0.929 . S
H3372 C3380 0.929 . S
H3373 C3382 0.977 . S
H3374 C3384 0.930 . S
H3375 C3387 0.929 . S
H3376 C3390 0.930 . S
H3377 C3392 0.960 . S
H3378 C3392 0.960 . S
H3379 C3392 0.960 . S
C3380 H3372 0.929 . S
C3380 C3381 1.377 1_554 S
C3380 C3382 1.390 . S
C3381 C3380 1.377 1_556 S
C3381 C3387 1.390 . S
C3382 H3373 0.977 . S
C3382 C3380 1.390 . S
C3382 C3383 1.325 1_554 S
C3383 C3382 1.325 1_556 S
C3383 C3384 1.400 . S
C3383 C3388 1.490 . S
C3384 H3374 0.930 . S
C3384 C3383 1.400 . S
C3384 C3387 1.386 . S
H3385 C3401 0.930 . S
H3386 C3402 0.931 . S
C3387 H3375 0.929 . S
C3387 C3381 1.390 . S
C3387 C3384 1.386 . S
C3388 C3383 1.490 . S
C3388 C3390 1.395 1_556 S
C3388 C3391 1.403 . S
H3389 C3395 0.930 . S
C3390 H3376 0.930 . S
C3390 C3388 1.395 1_554 S
C3390 C3393 1.403 . S
C3391 C3388 1.403 . S
C3391 C3392 1.524 . S
C3391 C3395 1.400 . S
C3392 H3377 0.960 . S
C3392 H3378 0.960 . S
C3392 H3379 0.960 . S
C3392 C3391 1.524 . S
C3393 C3390 1.403 . S
C3393 C3394 1.392 1_554 S
C3393 C3397 1.495 . S
C3394 C3393 1.392 1_556 S
C3394 C3395 1.385 . S
C3394 C3396 1.478 . S
C3395 H3389 0.930 . S
C3395 C3391 1.400 . S
C3395 C3394 1.385 . S
C3396 C3394 1.478 . S
C3396 C3398 1.381 . S
C3396 C3402 1.383 . S
C3397 C3393 1.495 . S
C3397 H3403 0.959 . S
C3397 H3404 0.961 . S
C3397 H3405 0.960 . S
C3398 C3396 1.381 . S
C3398 C3399 1.394 . S
C3398 H3406 0.930 1_556 S
C3399 C3398 1.394 . S
C3399 C3400 1.383 . S
C3399 H3407 0.932 1_556 S
C3400 C3399 1.383 . S
C3400 C3401 1.377 . S
C3401 H3385 0.930 . S
C3401 C3400 1.377 . S
C3401 C3402 1.379 . S
C3402 H3386 0.931 . S
C3402 C3396 1.383 . S
C3402 C3401 1.379 . S
H3403 C3397 0.959 . S
H3404 C3397 0.961 . S
H3405 C3397 0.960 . S
H3406 C3398 0.930 1_554 S
H3407 C3399 0.932 1_554 S
H3408 C3416 0.929 . S
H3409 C3418 0.930 . S
H3410 C3420 0.930 1_455 S
H3411 C3423 0.929 1_455 S
H3412 C3426 0.930 . S
H3413 C3428 0.960 . S
H3414 C3428 0.960 . S
H3415 C3428 0.960 . S
C3416 H3408 0.929 . S
C3416 C3417 1.377 . S
C3416 C3418 1.384 . S
C3417 C3416 1.377 . S
C3417 C3423 1.390 . S
C3418 H3409 0.930 . S
C3418 C3416 1.384 . S
C3418 C3419 1.372 . S
C3419 C3418 1.372 . S
C3419 C3420 1.400 . S
C3419 C3424 1.490 . S
C3420 H3410 0.930 1_655 S
C3420 C3419 1.400 . S
C3420 C3423 1.386 . S
H3421 C3437 1.010 . S
H3422 C3438 0.903 1_455 S
C3423 H3411 0.929 1_655 S
C3423 C3417 1.390 . S
C3423 C3420 1.386 . S
C3424 C3419 1.490 . S
C3424 C3426 1.395 . S
C3424 C3427 1.403 . S
H3425 C3431 0.930 1_455 S
C3426 H3412 0.930 . S
C3426 C3424 1.395 . S
C3426 C3429 1.403 . S
C3427 C3424 1.403 . S
C3427 C3428 1.524 1_655 S
C3427 C3431 1.400 . S
C3428 H3413 0.960 . S
C3428 H3414 0.960 . S
C3428 H3415 0.960 . S
C3428 C3427 1.524 1_455 S
C3429 C3426 1.403 . S
C3429 C3430 1.392 . S
C3429 C3433 1.495 . S
C3430 C3429 1.392 . S
C3430 C3431 1.385 . S
C3430 C3432 1.478 . S
C3431 H3425 0.930 1_655 S
C3431 C3427 1.400 . S
C3431 C3430 1.385 . S
C3432 C3430 1.478 . S
C3432 C3434 1.381 . S
C3432 C3438 1.417 . S
C3433 C3429 1.495 . S
C3433 H3439 0.959 . S
C3433 H3440 0.961 . S
C3433 H3441 0.960 . S
C3434 C3432 1.381 . S
C3434 C3435 1.394 . S
C3434 H3442 0.930 . S
C3435 C3434 1.394 . S
C3435 C3436 1.383 . S
C3435 H3443 0.929 . S
C3436 C3435 1.383 . S
C3436 C3437 1.314 1_655 S
C3437 H3421 1.010 . S
C3437 C3436 1.314 1_455 S
C3437 C3438 1.368 1_455 S
C3438 H3422 0.903 1_655 S
C3438 C3432 1.417 . S
C3438 C3437 1.368 1_655 S
H3439 C3433 0.959 . S
H3440 C3433 0.961 . S
H3441 C3433 0.960 . S
H3442 C3434 0.930 . S
H3443 C3435 0.929 . S
H3444 C3452 0.929 . S
H3445 C3454 0.930 . S
H3446 C3456 0.930 . S
H3447 C3459 0.929 . S
H3448 C3462 0.930 . S
H3449 C3464 0.960 . S
H3450 C3464 0.960 . S
H3451 C3464 0.960 . S
C3452 H3444 0.929 . S
C3452 C3453 1.377 . S
C3452 C3454 1.384 . S
C3453 C3452 1.377 . S
C3453 C3459 1.390 . S
C3454 H3445 0.930 . S
C3454 C3452 1.384 . S
C3454 C3455 1.372 . S
C3455 C3454 1.372 . S
C3455 C3456 1.400 . S
C3455 C3460 1.490 . S
C3456 H3446 0.930 . S
C3456 C3455 1.400 . S
C3456 C3459 1.386 . S
H3457 C3473 0.930 . S
H3458 C3474 0.931 . S
C3459 H3447 0.929 . S
C3459 C3453 1.390 . S
C3459 C3456 1.386 . S
C3460 C3455 1.490 . S
C3460 C3462 1.395 . S
C3460 C3463 1.403 . S
H3461 C3467 0.930 . S
C3462 H3448 0.930 . S
C3462 C3460 1.395 . S
C3462 C3465 1.403 . S
C3463 C3460 1.403 . S
C3463 C3464 1.524 . S
C3463 C3467 1.400 . S
C3464 H3449 0.960 . S
C3464 H3450 0.960 . S
C3464 H3451 0.960 . S
C3464 C3463 1.524 . S
C3465 C3462 1.403 . S
C3465 C3466 1.392 . S
C3465 C3469 1.495 . S
C3466 C3465 1.392 . S
C3466 C3467 1.385 . S
C3466 C3468 1.478 . S
C3467 H3461 0.930 . S
C3467 C3463 1.400 . S
C3467 C3466 1.385 . S
C3468 C3466 1.478 . S
C3468 C3470 1.381 . S
C3468 C3474 1.383 . S
C3469 C3465 1.495 . S
C3469 H3475 0.959 . S
C3469 H3476 0.961 . S
C3469 H3477 0.960 . S
C3470 C3468 1.381 . S
C3470 C3471 1.394 . S
C3470 H3478 0.930 . S
C3471 C3470 1.394 . S
C3471 C3472 1.383 . S
C3471 H3479 0.929 . S
C3472 C3471 1.383 . S
C3472 C3473 1.377 . S
C3473 H3457 0.930 . S
C3473 C3472 1.377 . S
C3473 C3474 1.379 . S
C3474 H3458 0.931 . S
C3474 C3468 1.383 . S
C3474 C3473 1.379 . S
H3475 C3469 0.959 . S
H3476 C3469 0.961 . S
H3477 C3469 0.960 . S
H3478 C3470 0.930 . S
H3479 C3471 0.929 . S
H3480 C3488 0.929 . S
H3481 C3490 0.930 . S
H3482 C3492 0.930 . S
H3483 C3495 0.929 . S
H3484 C3498 0.930 . S
H3485 C3500 0.960 . S
H3486 C3500 0.960 . S
H3487 C3500 0.960 . S
C3488 H3480 0.929 . S
C3488 C3489 1.377 . S
C3488 C3490 1.384 . S
C3489 C3488 1.377 . S
C3489 C3495 1.390 . S
C3490 H3481 0.930 . S
C3490 C3488 1.384 . S
C3490 C3491 1.372 . S
C3491 C3490 1.372 . S
C3491 C3492 1.400 . S
C3491 C3496 1.490 . S
C3492 H3482 0.930 . S
C3492 C3491 1.400 . S
C3492 C3495 1.386 . S
H3493 C3509 0.930 . S
H3494 C3510 0.931 . S
C3495 H3483 0.929 . S
C3495 C3489 1.390 . S
C3495 C3492 1.386 . S
C3496 C3491 1.490 . S
C3496 C3498 1.395 . S
C3496 C3499 1.403 . S
H3497 C3503 0.930 . S
C3498 H3484 0.930 . S
C3498 C3496 1.395 . S
C3498 C3501 1.403 . S
C3499 C3496 1.403 . S
C3499 C3500 1.524 . S
C3499 C3503 1.400 . S
C3500 H3485 0.960 . S
C3500 H3486 0.960 . S
C3500 H3487 0.960 . S
C3500 C3499 1.524 . S
C3501 C3498 1.403 . S
C3501 C3502 1.392 . S
C3501 C3505 1.495 . S
C3502 C3501 1.392 . S
C3502 C3503 1.385 . S
C3502 C3504 1.478 . S
C3503 H3497 0.930 . S
C3503 C3499 1.400 . S
C3503 C3502 1.385 . S
C3504 C3502 1.478 . S
C3504 C3506 1.381 . S
C3504 C3510 1.383 . S
C3505 C3501 1.495 . S
C3505 H3511 0.959 . S
C3505 H3512 0.961 . S
C3505 H3513 0.960 . S
C3506 C3504 1.381 . S
C3506 C3507 1.394 . S
C3506 H3514 0.930 . S
C3507 C3506 1.394 . S
C3507 C3508 1.383 . S
C3507 H3515 0.929 . S
C3508 C3507 1.383 . S
C3508 C3509 1.377 . S
C3509 H3493 0.930 . S
C3509 C3508 1.377 . S
C3509 C3510 1.379 . S
C3510 H3494 0.931 . S
C3510 C3504 1.383 . S
C3510 C3509 1.379 . S
H3511 C3505 0.959 . S
H3512 C3505 0.961 . S
H3513 C3505 0.960 . S
H3514 C3506 0.930 . S
H3515 C3507 0.929 . S
H3516 C3524 0.929 . S
H3517 C3526 0.930 . S
H3518 C3528 0.930 . S
H3519 C3531 0.929 . S
H3520 C3534 0.930 . S
H3521 C3536 0.960 . S
H3522 C3536 0.960 . S
H3523 C3536 0.960 . S
C3524 H3516 0.929 . S
C3524 C3525 1.377 . S
C3524 C3526 1.384 . S
C3525 C3524 1.377 . S
C3525 C3531 1.390 . S
C3526 H3517 0.930 . S
C3526 C3524 1.384 . S
C3526 C3527 1.372 . S
C3527 C3526 1.372 . S
C3527 C3528 1.400 . S
C3527 C3532 1.490 . S
C3528 H3518 0.930 . S
C3528 C3527 1.400 . S
C3528 C3531 1.386 . S
H3529 C3545 0.930 . S
H3530 C3546 0.931 . S
C3531 H3519 0.929 . S
C3531 C3525 1.390 . S
C3531 C3528 1.386 . S
C3532 C3527 1.490 . S
C3532 C3534 1.395 . S
C3532 C3535 1.403 . S
H3533 C3539 0.930 . S
C3534 H3520 0.930 . S
C3534 C3532 1.395 . S
C3534 C3537 1.403 . S
C3535 C3532 1.403 . S
C3535 C3536 1.524 . S
C3535 C3539 1.400 . S
C3536 H3521 0.960 . S
C3536 H3522 0.960 . S
C3536 H3523 0.960 . S
C3536 C3535 1.524 . S
C3537 C3534 1.403 . S
C3537 C3538 1.392 . S
C3537 C3541 1.495 . S
C3538 C3537 1.392 . S
C3538 C3539 1.385 . S
C3538 C3540 1.478 . S
C3539 H3533 0.930 . S
C3539 C3535 1.400 . S
C3539 C3538 1.385 . S
C3540 C3538 1.478 . S
C3540 C3542 1.381 . S
C3540 C3546 1.383 . S
C3541 C3537 1.495 . S
C3541 H3547 0.959 . S
C3541 H3548 0.961 . S
C3541 H3549 0.960 . S
C3542 C3540 1.381 . S
C3542 C3543 1.394 . S
C3542 H3550 0.930 . S
C3543 C3542 1.394 . S
C3543 C3544 1.383 . S
C3543 H3551 0.929 . S
C3544 C3543 1.383 . S
C3544 C3545 1.377 . S
C3545 H3529 0.930 . S
C3545 C3544 1.377 . S
C3545 C3546 1.379 . S
C3546 H3530 0.931 . S
C3546 C3540 1.383 . S
C3546 C3545 1.379 . S
H3547 C3541 0.959 . S
H3548 C3541 0.961 . S
H3549 C3541 0.960 . S
H3550 C3542 0.930 . S
H3551 C3543 0.929 . S
H3552 C3560 0.929 . S
H3553 C3562 0.930 . S
H3554 C3564 0.930 . S
H3555 C3567 0.929 . S
H3556 C3570 1.010 . S
H3557 C3572 0.960 . S
H3558 C3572 0.960 . S
H3559 C3572 0.960 . S
C3560 H3552 0.929 . S
C3560 C3561 1.377 . S
C3560 C3562 1.384 . S
C3561 C3560 1.377 . S
C3561 C3567 1.390 . S
C3562 H3553 0.930 . S
C3562 C3560 1.384 . S
C3562 C3563 1.372 . S
C3563 C3562 1.372 . S
C3563 C3564 1.400 . S
C3563 C3568 1.490 . S
C3564 H3554 0.930 . S
C3564 C3563 1.400 . S
C3564 C3567 1.386 . S
H3565 C3581 0.930 . S
H3566 C3582 0.931 . S
C3567 H3555 0.929 . S
C3567 C3561 1.390 . S
C3567 C3564 1.386 . S
C3568 C3563 1.490 . S
C3568 C3570 1.305 1_565 S
C3568 C3571 1.403 . S
H3569 C3575 0.930 . S
C3570 H3556 1.010 . S
C3570 C3568 1.305 1_545 S
C3570 C3573 1.422 . S
C3571 C3568 1.403 . S
C3571 C3572 1.524 . S
C3571 C3575 1.400 . S
C3572 H3557 0.960 . S
C3572 H3558 0.960 . S
C3572 H3559 0.960 . S
C3572 C3571 1.524 . S
C3573 C3570 1.422 . S
C3573 C3574 1.392 1_545 S
C3573 C3577 1.495 . S
C3574 C3573 1.392 1_565 S
C3574 C3575 1.385 . S
C3574 C3576 1.478 . S
C3575 H3569 0.930 . S
C3575 C3571 1.400 . S
C3575 C3574 1.385 . S
C3576 C3574 1.478 . S
C3576 C3578 1.381 . S
C3576 C3582 1.383 . S
C3577 C3573 1.495 . S
C3577 H3583 0.959 . S
C3577 H3584 0.961 . S
C3577 H3585 0.960 . S
C3578 C3576 1.381 . S
C3578 C3579 1.394 . S
C3578 H3586 0.930 . S
C3579 C3578 1.394 . S
C3579 C3580 1.383 . S
C3579 H3587 0.929 . S
C3580 C3579 1.383 . S
C3580 C3581 1.377 . S
C3581 H3565 0.930 . S
C3581 C3580 1.377 . S
C3581 C3582 1.379 . S
C3582 H3566 0.931 . S
C3582 C3576 1.383 . S
C3582 C3581 1.379 . S
H3583 C3577 0.959 . S
H3584 C3577 0.961 . S
H3585 C3577 0.960 . S
H3586 C3578 0.930 . S
H3587 C3579 0.929 . S
H3588 C3596 0.929 . S
H3589 C3598 0.930 . S
H3590 C3600 0.930 . S
H3591 C3603 0.929 . S
H3592 C3606 1.005 . S
H3593 C3608 0.960 . S
H3594 C3608 0.960 . S
H3595 C3608 0.960 . S
C3596 H3588 0.929 . S
C3596 C3597 1.377 . S
C3596 C3598 1.384 . S
C3597 C3596 1.377 . S
C3597 C3603 1.390 . S
C3598 H3589 0.930 . S
C3598 C3596 1.384 . S
C3598 C3599 1.372 . S
C3599 C3598 1.372 . S
C3599 C3600 1.400 . S
C3599 C3604 1.490 . S
C3600 H3590 0.930 . S
C3600 C3599 1.400 . S
C3600 C3603 1.386 . S
H3601 C3617 0.930 . S
H3602 C3618 0.931 . S
C3603 H3591 0.929 . S
C3603 C3597 1.390 . S
C3603 C3600 1.386 . S
C3604 C3599 1.490 . S
C3604 C3606 1.309 1_565 S
C3604 C3607 1.403 . S
H3605 C3611 0.930 . S
C3606 H3592 1.005 . S
C3606 C3604 1.309 1_545 S
C3606 C3609 1.422 . S
C3607 C3604 1.403 . S
C3607 C3608 1.524 . S
C3607 C3611 1.400 . S
C3608 H3593 0.960 . S
C3608 H3594 0.960 . S
C3608 H3595 0.960 . S
C3608 C3607 1.524 . S
C3609 C3606 1.422 . S
C3609 C3610 1.392 1_545 S
C3609 C3613 1.495 . S
C3610 C3609 1.392 1_565 S
C3610 C3611 1.385 . S
C3610 C3612 1.478 . S
C3611 H3605 0.930 . S
C3611 C3607 1.400 . S
C3611 C3610 1.385 . S
C3612 C3610 1.478 . S
C3612 C3614 1.381 . S
C3612 C3618 1.383 . S
C3613 C3609 1.495 . S
C3613 H3619 0.959 . S
C3613 H3620 0.961 . S
C3613 H3621 0.960 . S
C3614 C3612 1.381 . S
C3614 C3615 1.394 . S
C3614 H3622 0.930 . S
C3615 C3614 1.394 . S
C3615 C3616 1.383 . S
C3615 H3623 0.929 . S
C3616 C3615 1.383 . S
C3616 C3617 1.377 . S
C3617 H3601 0.930 . S
C3617 C3616 1.377 . S
C3617 C3618 1.379 . S
C3618 H3602 0.931 . S
C3618 C3612 1.383 . S
C3618 C3617 1.379 . S
H3619 C3613 0.959 . S
H3620 C3613 0.961 . S
H3621 C3613 0.960 . S
H3622 C3614 0.930 . S
H3623 C3615 0.929 . S
H3624 C3632 0.929 . S
H3625 C3634 0.930 . S
H3626 C3636 0.930 . S
H3627 C3639 0.929 . S
H3628 C3642 0.930 . S
H3629 C3644 0.960 . S
H3630 C3644 0.960 . S
H3631 C3644 0.960 . S
C3632 H3624 0.929 . S
C3632 C3633 1.377 . S
C3632 C3634 1.384 . S
C3633 C3632 1.377 . S
C3633 C3639 1.390 . S
C3634 H3625 0.930 . S
C3634 C3632 1.384 . S
C3634 C3635 1.372 . S
C3635 C3634 1.372 . S
C3635 C3636 1.400 . S
C3635 C3640 1.490 . S
C3636 H3626 0.930 . S
C3636 C3635 1.400 . S
C3636 C3639 1.386 . S
H3637 C3653 0.930 . S
H3638 C3654 0.931 . S
C3639 H3627 0.929 . S
C3639 C3633 1.390 . S
C3639 C3636 1.386 . S
C3640 C3635 1.490 . S
C3640 C3642 1.395 . S
C3640 C3643 1.403 . S
H3641 C3647 0.930 . S
C3642 H3628 0.930 . S
C3642 C3640 1.395 . S
C3642 C3645 1.403 . S
C3643 C3640 1.403 . S
C3643 C3644 1.524 . S
C3643 C3647 1.400 . S
C3644 H3629 0.960 . S
C3644 H3630 0.960 . S
C3644 H3631 0.960 . S
C3644 C3643 1.524 . S
C3645 C3642 1.403 . S
C3645 C3646 1.392 . S
C3645 C3649 1.495 . S
C3646 C3645 1.392 . S
C3646 C3647 1.385 . S
C3646 C3648 1.478 . S
C3647 H3641 0.930 . S
C3647 C3643 1.400 . S
C3647 C3646 1.385 . S
C3648 C3646 1.478 . S
C3648 C3650 1.381 . S
C3648 C3654 1.383 . S
C3649 C3645 1.495 . S
C3649 H3655 0.959 . S
C3649 H3656 0.961 . S
C3649 H3657 0.960 . S
C3650 C3648 1.381 . S
C3650 C3651 1.394 . S
C3650 H3658 0.930 . S
C3651 C3650 1.394 . S
C3651 C3652 1.383 . S
C3651 H3659 0.929 . S
C3652 C3651 1.383 . S
C3652 C3653 1.377 . S
C3653 H3637 0.930 . S
C3653 C3652 1.377 . S
C3653 C3654 1.379 . S
C3654 H3638 0.931 . S
C3654 C3648 1.383 . S
C3654 C3653 1.379 . S
H3655 C3649 0.959 . S
H3656 C3649 0.961 . S
H3657 C3649 0.960 . S
H3658 C3650 0.930 . S
H3659 C3651 0.929 . S
H3660 C3668 0.929 . S
H3661 C3670 0.930 . S
H3662 C3672 0.930 . S
H3663 C3675 0.929 . S
H3664 C3678 0.930 . S
H3665 C3680 0.960 . S
H3666 C3680 0.960 . S
H3667 C3680 0.960 . S
C3668 H3660 0.929 . S
C3668 C3669 1.377 . S
C3668 C3670 1.384 . S
C3669 C3668 1.377 . S
C3669 C3675 1.390 . S
C3670 H3661 0.930 . S
C3670 C3668 1.384 . S
C3670 C3671 1.372 . S
C3671 C3670 1.372 . S
C3671 C3672 1.400 . S
C3671 C3676 1.490 . S
C3672 H3662 0.930 . S
C3672 C3671 1.400 . S
C3672 C3675 1.386 . S
H3673 C3689 0.930 . S
H3674 C3690 0.931 . S
C3675 H3663 0.929 . S
C3675 C3669 1.390 . S
C3675 C3672 1.386 . S
C3676 C3671 1.490 . S
C3676 C3678 1.395 . S
C3676 C3679 1.403 . S
H3677 C3683 0.930 . S
C3678 H3664 0.930 . S
C3678 C3676 1.395 . S
C3678 C3681 1.403 . S
C3679 C3676 1.403 . S
C3679 C3680 1.524 . S
C3679 C3683 1.400 . S
C3680 H3665 0.960 . S
C3680 H3666 0.960 . S
C3680 H3667 0.960 . S
C3680 C3679 1.524 . S
C3681 C3678 1.403 . S
C3681 C3682 1.392 . S
C3681 C3685 1.495 . S
C3682 C3681 1.392 . S
C3682 C3683 1.385 . S
C3682 C3684 1.478 . S
C3683 H3677 0.930 . S
C3683 C3679 1.400 . S
C3683 C3682 1.385 . S
C3684 C3682 1.478 . S
C3684 C3686 1.381 . S
C3684 C3690 1.383 . S
C3685 C3681 1.495 . S
C3685 H3691 0.959 . S
C3685 H3692 0.961 . S
C3685 H3693 0.960 . S
C3686 C3684 1.381 . S
C3686 C3687 1.394 . S
C3686 H3694 0.930 . S
C3687 C3686 1.394 . S
C3687 C3688 1.383 . S
C3687 H3695 0.929 . S
C3688 C3687 1.383 . S
C3688 C3689 1.377 . S
C3689 H3673 0.930 . S
C3689 C3688 1.377 . S
C3689 C3690 1.379 . S
C3690 H3674 0.931 . S
C3690 C3684 1.383 . S
C3690 C3689 1.379 . S
H3691 C3685 0.959 . S
H3692 C3685 0.961 . S
H3693 C3685 0.960 . S
H3694 C3686 0.930 . S
H3695 C3687 0.929 . S
H3696 C3704 0.929 . S
H3697 C3706 0.930 . S
H3698 C3708 0.930 . S
H3699 C3711 0.929 . S
H3700 C3714 0.930 . S
H3701 C3716 0.960 . S
H3702 C3716 0.960 . S
H3703 C3716 0.960 . S
C3704 H3696 0.929 . S
C3704 C3705 1.377 1_554 S
C3704 C3706 1.384 . S
C3705 C3704 1.377 1_556 S
C3705 C3711 1.390 . S
C3706 H3697 0.930 . S
C3706 C3704 1.384 . S
C3706 C3707 1.372 1_554 S
C3707 C3706 1.372 1_556 S
C3707 C3708 1.400 . S
C3707 C3712 1.490 . S
C3708 H3698 0.930 . S
C3708 C3707 1.400 . S
C3708 C3711 1.386 . S
H3709 C3725 0.930 . S
H3710 C3726 0.931 . S
C3711 H3699 0.929 . S
C3711 C3705 1.390 . S
C3711 C3708 1.386 . S
C3712 C3707 1.490 . S
C3712 C3714 1.395 . S
C3712 C3715 1.403 . S
H3713 C3719 0.930 . S
C3714 H3700 0.930 . S
C3714 C3712 1.395 . S
C3714 C3717 1.403 . S
C3715 C3712 1.403 . S
C3715 C3716 1.524 . S
C3715 C3719 1.400 . S
C3716 H3701 0.960 . S
C3716 H3702 0.960 . S
C3716 H3703 0.960 . S
C3716 C3715 1.524 . S
C3717 C3714 1.403 . S
C3717 C3718 1.392 . S
C3717 C3721 1.495 . S
C3718 C3717 1.392 . S
C3718 C3719 1.385 . S
C3718 C3720 1.478 . S
C3719 H3713 0.930 . S
C3719 C3715 1.400 . S
C3719 C3718 1.385 . S
C3720 C3718 1.478 . S
C3720 C3722 1.376 . S
C3720 C3726 1.383 . S
C3721 C3717 1.495 . S
C3721 H3727 0.959 1_556 S
C3721 H3728 0.961 . S
C3721 H3729 0.960 1_556 S
C3722 C3720 1.376 . S
C3722 C3723 1.394 . S
C3722 H3730 0.935 1_556 S
C3723 C3722 1.394 . S
C3723 C3724 1.383 . S
C3723 H3731 0.929 1_556 S
C3724 C3723 1.383 . S
C3724 C3725 1.377 . S
C3725 H3709 0.930 . S
C3725 C3724 1.377 . S
C3725 C3726 1.379 . S
C3726 H3710 0.931 . S
C3726 C3720 1.383 . S
C3726 C3725 1.379 . S
H3727 C3721 0.959 1_554 S
H3728 C3721 0.961 . S
H3729 C3721 0.960 1_554 S
H3730 C3722 0.935 1_554 S
H3731 C3723 0.929 1_554 S
H3732 C3740 0.929 . S
H3733 C3742 0.930 . S
H3734 C3744 0.930 . S
H3735 C3747 0.929 . S
H3736 C3750 0.930 . S
H3737 C3752 0.960 . S
H3738 C3752 0.960 . S
H3739 C3752 0.960 . S
C3740 H3732 0.929 . S
C3740 C3741 1.377 . S
C3740 C3742 1.384 . S
C3741 C3740 1.377 . S
C3741 C3747 1.390 . S
C3742 H3733 0.930 . S
C3742 C3740 1.384 . S
C3742 C3743 1.372 . S
C3743 C3742 1.372 . S
C3743 C3744 1.400 . S
C3743 C3748 1.490 . S
C3744 H3734 0.930 . S
C3744 C3743 1.400 . S
C3744 C3747 1.386 . S
H3745 C3761 0.930 . S
H3746 C3762 0.931 . S
C3747 H3735 0.929 . S
C3747 C3741 1.390 . S
C3747 C3744 1.386 . S
C3748 C3743 1.490 . S
C3748 C3750 1.395 . S
C3748 C3751 1.403 . S
H3749 C3755 0.930 . S
C3750 H3736 0.930 . S
C3750 C3748 1.395 . S
C3750 C3753 1.403 . S
C3751 C3748 1.403 . S
C3751 C3752 1.524 . S
C3751 C3755 1.400 . S
C3752 H3737 0.960 . S
C3752 H3738 0.960 . S
C3752 H3739 0.960 . S
C3752 C3751 1.524 . S
C3753 C3750 1.403 . S
C3753 C3754 1.392 . S
C3753 C3757 1.495 . S
C3754 C3753 1.392 . S
C3754 C3755 1.385 . S
C3754 C3756 1.478 . S
C3755 H3749 0.930 . S
C3755 C3751 1.400 . S
C3755 C3754 1.385 . S
C3756 C3754 1.478 . S
C3756 C3758 1.381 . S
C3756 C3762 1.383 . S
C3757 C3753 1.495 . S
C3757 H3763 0.959 . S
C3757 H3764 0.961 . S
C3757 H3765 0.960 . S
C3758 C3756 1.381 . S
C3758 C3759 1.394 . S
C3758 H3766 0.930 . S
C3759 C3758 1.394 . S
C3759 C3760 1.383 . S
C3759 H3767 0.929 . S
C3760 C3759 1.383 . S
C3760 C3761 1.377 . S
C3761 H3745 0.930 . S
C3761 C3760 1.377 . S
C3761 C3762 1.379 . S
C3762 H3746 0.931 . S
C3762 C3756 1.383 . S
C3762 C3761 1.379 . S
H3763 C3757 0.959 . S
H3764 C3757 0.961 . S
H3765 C3757 0.960 . S
H3766 C3758 0.930 . S
H3767 C3759 0.929 . S
H3768 C3776 0.929 . S
H3769 C3778 0.930 . S
H3770 C3780 0.930 . S
H3771 C3783 0.929 . S
H3772 C3786 0.930 . S
H3773 C3788 0.960 . S
H3774 C3788 0.960 . S
H3775 C3788 0.960 . S
C3776 H3768 0.929 . S
C3776 C3777 1.377 . S
C3776 C3778 1.384 . S
C3777 C3776 1.377 . S
C3777 C3783 1.390 . S
C3778 H3769 0.930 . S
C3778 C3776 1.384 . S
C3778 C3779 1.372 . S
C3779 C3778 1.372 . S
C3779 C3780 1.400 . S
C3779 C3784 1.490 . S
C3780 H3770 0.930 . S
C3780 C3779 1.400 . S
C3780 C3783 1.386 . S
H3781 C3797 0.930 . S
H3782 C3798 0.931 . S
C3783 H3771 0.929 . S
C3783 C3777 1.390 . S
C3783 C3780 1.386 . S
C3784 C3779 1.490 . S
C3784 C3786 1.395 . S
C3784 C3787 1.403 . S
H3785 C3791 0.930 . S
C3786 H3772 0.930 . S
C3786 C3784 1.395 . S
C3786 C3789 1.403 . S
C3787 C3784 1.403 . S
C3787 C3788 1.524 . S
C3787 C3791 1.400 . S
C3788 H3773 0.960 . S
C3788 H3774 0.960 . S
C3788 H3775 0.960 . S
C3788 C3787 1.524 . S
C3789 C3786 1.403 . S
C3789 C3790 1.392 . S
C3789 C3793 1.495 . S
C3790 C3789 1.392 . S
C3790 C3791 1.385 . S
C3790 C3792 1.478 . S
C3791 H3785 0.930 . S
C3791 C3787 1.400 . S
C3791 C3790 1.385 . S
C3792 C3790 1.478 . S
C3792 C3794 1.381 . S
C3792 C3798 1.383 . S
C3793 C3789 1.495 . S
C3793 H3799 0.959 . S
C3793 H3800 0.961 . S
C3793 H3801 0.960 . S
C3794 C3792 1.381 . S
C3794 C3795 1.394 . S
C3794 H3802 0.930 . S
C3795 C3794 1.394 . S
C3795 C3796 1.383 . S
C3795 H3803 0.929 . S
C3796 C3795 1.383 . S
C3796 C3797 1.377 . S
C3797 H3781 0.930 . S
C3797 C3796 1.377 . S
C3797 C3798 1.379 . S
C3798 H3782 0.931 . S
C3798 C3792 1.383 . S
C3798 C3797 1.379 . S
H3799 C3793 0.959 . S
H3800 C3793 0.961 . S
H3801 C3793 0.960 . S
H3802 C3794 0.930 . S
H3803 C3795 0.929 . S
H3804 C3812 0.929 . S
H3805 C3814 0.930 . S
H3806 C3816 0.930 . S
H3807 C3819 0.929 . S
H3808 C3822 0.930 . S
H3809 C3824 0.960 . S
H3810 C3824 0.960 . S
H3811 C3824 0.960 . S
C3812 H3804 0.929 . S
C3812 C3813 1.377 . S
C3812 C3814 1.384 . S
C3813 C3812 1.377 . S
C3813 C3819 1.390 . S
C3814 H3805 0.930 . S
C3814 C3812 1.384 . S
C3814 C3815 1.372 . S
C3815 C3814 1.372 . S
C3815 C3816 1.400 . S
C3815 C3820 1.490 . S
C3816 H3806 0.930 . S
C3816 C3815 1.400 . S
C3816 C3819 1.386 . S
H3817 C3833 0.930 . S
H3818 C3834 0.931 . S
C3819 H3807 0.929 . S
C3819 C3813 1.390 . S
C3819 C3816 1.386 . S
C3820 C3815 1.490 . S
C3820 C3822 1.395 . S
C3820 C3823 1.403 . S
H3821 C3827 0.930 . S
C3822 H3808 0.930 . S
C3822 C3820 1.395 . S
C3822 C3825 1.403 . S
C3823 C3820 1.403 . S
C3823 C3824 1.524 . S
C3823 C3827 1.400 . S
C3824 H3809 0.960 . S
C3824 H3810 0.960 . S
C3824 H3811 0.960 . S
C3824 C3823 1.524 . S
C3825 C3822 1.403 . S
C3825 C3826 1.392 . S
C3825 C3829 1.495 . S
C3826 C3825 1.392 . S
C3826 C3827 1.385 . S
C3826 C3828 1.478 . S
C3827 H3821 0.930 . S
C3827 C3823 1.400 . S
C3827 C3826 1.385 . S
C3828 C3826 1.478 . S
C3828 C3830 1.381 . S
C3828 C3834 1.383 . S
C3829 C3825 1.495 . S
C3829 H3835 0.959 . S
C3829 H3836 0.961 . S
C3829 H3837 0.960 . S
C3830 C3828 1.381 . S
C3830 C3831 1.394 . S
C3830 H3838 0.930 . S
C3831 C3830 1.394 . S
C3831 C3832 1.383 . S
C3831 H3839 0.929 . S
C3832 C3831 1.383 . S
C3832 C3833 1.377 . S
C3833 H3817 0.930 . S
C3833 C3832 1.377 . S
C3833 C3834 1.379 . S
C3834 H3818 0.931 . S
C3834 C3828 1.383 . S
C3834 C3833 1.379 . S
H3835 C3829 0.959 . S
H3836 C3829 0.961 . S
H3837 C3829 0.960 . S
H3838 C3830 0.930 . S
H3839 C3831 0.929 . S
H3840 C3848 0.929 . S
H3841 C3850 0.930 . S
H3842 C3852 0.930 . S
H3843 C3855 0.929 . S
H3844 C3858 0.930 . S
H3845 C3860 0.960 . S
H3846 C3860 0.960 . S
H3847 C3860 0.960 . S
C3848 H3840 0.929 . S
C3848 C3849 1.377 . S
C3848 C3850 1.384 . S
C3849 C3848 1.377 . S
C3849 C3855 1.390 . S
C3850 H3841 0.930 . S
C3850 C3848 1.384 . S
C3850 C3851 1.372 . S
C3851 C3850 1.372 . S
C3851 C3852 1.400 . S
C3851 C3856 1.490 . S
C3852 H3842 0.930 . S
C3852 C3851 1.400 . S
C3852 C3855 1.386 . S
H3853 C3869 0.930 . S
H3854 C3870 0.931 . S
C3855 H3843 0.929 . S
C3855 C3849 1.390 . S
C3855 C3852 1.386 . S
C3856 C3851 1.490 . S
C3856 C3858 1.395 . S
C3856 C3859 1.403 . S
H3857 C3863 0.930 . S
C3858 H3844 0.930 . S
C3858 C3856 1.395 . S
C3858 C3861 1.403 . S
C3859 C3856 1.403 . S
C3859 C3860 1.524 . S
C3859 C3863 1.400 . S
C3860 H3845 0.960 . S
C3860 H3846 0.960 . S
C3860 H3847 0.960 . S
C3860 C3859 1.524 . S
C3861 C3858 1.403 . S
C3861 C3862 1.392 . S
C3861 C3865 1.495 . S
C3862 C3861 1.392 . S
C3862 C3863 1.385 . S
C3862 C3864 1.478 . S
C3863 H3857 0.930 . S
C3863 C3859 1.400 . S
C3863 C3862 1.385 . S
C3864 C3862 1.478 . S
C3864 C3866 1.381 . S
C3864 C3870 1.383 . S
C3865 C3861 1.495 . S
C3865 H3871 0.959 . S
C3865 H3872 0.961 . S
C3865 H3873 0.960 . S
C3866 C3864 1.381 . S
C3866 C3867 1.394 . S
C3866 H3874 0.930 . S
C3867 C3866 1.394 . S
C3867 C3868 1.383 . S
C3867 H3875 0.929 . S
C3868 C3867 1.383 . S
C3868 C3869 1.377 . S
C3869 H3853 0.930 . S
C3869 C3868 1.377 . S
C3869 C3870 1.379 . S
C3870 H3854 0.931 . S
C3870 C3864 1.383 . S
C3870 C3869 1.379 . S
H3871 C3865 0.959 . S
H3872 C3865 0.961 . S
H3873 C3865 0.960 . S
H3874 C3866 0.930 . S
H3875 C3867 0.929 . S
H3876 C3884 0.929 . S
H3877 C3886 0.930 . S
H3878 C3888 0.930 . S
H3879 C3891 0.929 . S
H3880 C3894 0.930 . S
H3881 C3896 0.960 . S
H3882 C3896 0.960 . S
H3883 C3896 0.960 . S
C3884 H3876 0.929 . S
C3884 C3885 1.377 . S
C3884 C3886 1.384 . S
C3885 C3884 1.377 . S
C3885 C3891 1.390 . S
C3886 H3877 0.930 . S
C3886 C3884 1.384 . S
C3886 C3887 1.372 . S
C3887 C3886 1.372 . S
C3887 C3888 1.400 . S
C3887 C3892 1.490 . S
C3888 H3878 0.930 . S
C3888 C3887 1.400 . S
C3888 C3891 1.386 . S
H3889 C3905 0.930 . S
H3890 C3906 0.931 . S
C3891 H3879 0.929 . S
C3891 C3885 1.390 . S
C3891 C3888 1.386 . S
C3892 C3887 1.490 . S
C3892 C3894 1.395 . S
C3892 C3895 1.403 . S
H3893 C3899 0.930 . S
C3894 H3880 0.930 . S
C3894 C3892 1.395 . S
C3894 C3897 1.403 . S
C3895 C3892 1.403 . S
C3895 C3896 1.524 . S
C3895 C3899 1.400 . S
C3896 H3881 0.960 . S
C3896 H3882 0.960 . S
C3896 H3883 0.960 . S
C3896 C3895 1.524 . S
C3897 C3894 1.403 . S
C3897 C3898 1.392 . S
C3897 C3901 1.495 . S
C3898 C3897 1.392 . S
C3898 C3899 1.385 . S
C3898 C3900 1.478 . S
C3899 H3893 0.930 . S
C3899 C3895 1.400 . S
C3899 C3898 1.385 . S
C3900 C3898 1.478 . S
C3900 C3902 1.381 . S
C3900 C3906 1.383 . S
C3901 C3897 1.495 . S
C3901 H3907 0.959 . S
C3901 H3908 0.961 . S
C3901 H3909 0.960 . S
C3902 C3900 1.381 . S
C3902 C3903 1.394 . S
C3902 H3910 0.930 . S
C3903 C3902 1.394 . S
C3903 C3904 1.383 . S
C3903 H3911 0.929 . S
C3904 C3903 1.383 . S
C3904 C3905 1.377 . S
C3905 H3889 0.930 . S
C3905 C3904 1.377 . S
C3905 C3906 1.379 . S
C3906 H3890 0.931 . S
C3906 C3900 1.383 . S
C3906 C3905 1.379 . S
H3907 C3901 0.959 . S
H3908 C3901 0.961 . S
H3909 C3901 0.960 . S
H3910 C3902 0.930 . S
H3911 C3903 0.929 . S
H3912 C3920 0.929 . S
H3913 C3922 0.930 . S
H3914 C3924 0.930 . S
H3915 C3927 0.929 . S
H3916 C3930 0.930 . S
H3917 C3932 0.960 . S
H3918 C3932 0.960 . S
H3919 C3932 0.960 . S
C3920 H3912 0.929 . S
C3920 C3921 1.377 . S
C3920 C3922 1.384 . S
C3921 C3920 1.377 . S
C3921 C3927 1.390 . S
C3922 H3913 0.930 . S
C3922 C3920 1.384 . S
C3922 C3923 1.372 . S
C3923 C3922 1.372 . S
C3923 C3924 1.400 . S
C3923 C3928 1.490 . S
C3924 H3914 0.930 . S
C3924 C3923 1.400 . S
C3924 C3927 1.386 . S
H3925 C3941 0.930 . S
H3926 C3942 0.931 . S
C3927 H3915 0.929 . S
C3927 C3921 1.390 . S
C3927 C3924 1.386 . S
C3928 C3923 1.490 . S
C3928 C3930 1.395 . S
C3928 C3931 1.403 . S
H3929 C3935 0.930 . S
C3930 H3916 0.930 . S
C3930 C3928 1.395 . S
C3930 C3933 1.403 . S
C3931 C3928 1.403 . S
C3931 C3932 1.524 . S
C3931 C3935 1.400 . S
C3932 H3917 0.960 . S
C3932 H3918 0.960 . S
C3932 H3919 0.960 . S
C3932 C3931 1.524 . S
C3933 C3930 1.403 . S
C3933 C3934 1.392 . S
C3933 C3937 1.495 . S
C3934 C3933 1.392 . S
C3934 C3935 1.385 . S
C3934 C3936 1.478 . S
C3935 H3929 0.930 . S
C3935 C3931 1.400 . S
C3935 C3934 1.385 . S
C3936 C3934 1.478 . S
C3936 C3938 1.381 . S
C3936 C3942 1.383 . S
C3937 C3933 1.495 . S
C3937 H3943 0.959 . S
C3937 H3944 0.961 . S
C3937 H3945 0.960 . S
C3938 C3936 1.381 . S
C3938 C3939 1.394 . S
C3938 H3946 0.930 . S
C3939 C3938 1.394 . S
C3939 C3940 1.383 . S
C3939 H3947 0.929 . S
C3940 C3939 1.383 . S
C3940 C3941 1.377 . S
C3941 H3925 0.930 . S
C3941 C3940 1.377 . S
C3941 C3942 1.379 . S
C3942 H3926 0.931 . S
C3942 C3936 1.383 . S
C3942 C3941 1.379 . S
H3943 C3937 0.959 . S
H3944 C3937 0.961 . S
H3945 C3937 0.960 . S
H3946 C3938 0.930 . S
H3947 C3939 0.929 . S
H3948 C3956 0.929 . S
H3949 C3958 0.930 . S
H3950 C3960 0.930 . S
H3951 C3963 0.929 . S
H3952 C3966 0.930 . S
H3953 C3968 0.960 . S
H3954 C3968 0.960 . S
H3955 C3968 0.960 . S
C3956 H3948 0.929 . S
C3956 C3957 1.377 . S
C3956 C3958 1.384 . S
C3957 C3956 1.377 . S
C3957 C3963 1.390 . S
C3958 H3949 0.930 . S
C3958 C3956 1.384 . S
C3958 C3959 1.372 . S
C3959 C3958 1.372 . S
C3959 C3960 1.400 . S
C3959 C3964 1.490 . S
C3960 H3950 0.930 . S
C3960 C3959 1.400 . S
C3960 C3963 1.386 . S
H3961 C3977 0.930 . S
H3962 C3978 0.931 . S
C3963 H3951 0.929 . S
C3963 C3957 1.390 . S
C3963 C3960 1.386 . S
C3964 C3959 1.490 . S
C3964 C3966 1.395 . S
C3964 C3967 1.403 . S
H3965 C3971 0.930 . S
C3966 H3952 0.930 . S
C3966 C3964 1.395 . S
C3966 C3969 1.403 . S
C3967 C3964 1.403 . S
C3967 C3968 1.524 . S
C3967 C3971 1.400 . S
C3968 H3953 0.960 . S
C3968 H3954 0.960 . S
C3968 H3955 0.960 . S
C3968 C3967 1.524 . S
C3969 C3966 1.403 . S
C3969 C3970 1.392 . S
C3969 C3973 1.495 . S
C3970 C3969 1.392 . S
C3970 C3971 1.385 . S
C3970 C3972 1.478 . S
C3971 H3965 0.930 . S
C3971 C3967 1.400 . S
C3971 C3970 1.385 . S
C3972 C3970 1.478 . S
C3972 C3974 1.381 . S
C3972 C3978 1.383 . S
C3973 C3969 1.495 . S
C3973 H3979 0.959 . S
C3973 H3980 0.961 . S
C3973 H3981 0.960 . S
C3974 C3972 1.381 . S
C3974 C3975 1.394 . S
C3974 H3982 0.930 . S
C3975 C3974 1.394 . S
C3975 C3976 1.383 . S
C3975 H3983 0.929 . S
C3976 C3975 1.383 . S
C3976 C3977 1.377 . S
C3977 H3961 0.930 . S
C3977 C3976 1.377 . S
C3977 C3978 1.379 . S
C3978 H3962 0.931 . S
C3978 C3972 1.383 . S
C3978 C3977 1.379 . S
H3979 C3973 0.959 . S
H3980 C3973 0.961 . S
H3981 C3973 0.960 . S
H3982 C3974 0.930 . S
H3983 C3975 0.929 . S
H3984 C3992 0.929 . S
H3985 C3994 0.930 . S
H3986 C3996 0.930 . S
H3987 C3999 0.929 . S
H3988 C4002 0.930 . S
H3989 C4004 0.960 . S
H3990 C4004 0.960 . S
H3991 C4004 0.960 . S
C3992 H3984 0.929 . S
C3992 C3993 1.377 . S
C3992 C3994 1.384 . S
C3993 C3992 1.377 . S
C3993 C3999 1.390 . S
C3994 H3985 0.930 . S
C3994 C3992 1.384 . S
C3994 C3995 1.372 . S
C3995 C3994 1.372 . S
C3995 C3996 1.400 . S
C3995 C4000 1.490 . S
C3996 H3986 0.930 . S
C3996 C3995 1.400 . S
C3996 C3999 1.386 . S
H3997 C4013 0.930 . S
H3998 C4014 0.931 . S
C3999 H3987 0.929 . S
C3999 C3993 1.390 . S
C3999 C3996 1.386 . S
C4000 C3995 1.490 . S
C4000 C4002 1.395 . S
C4000 C4003 1.403 . S
H4001 C4007 0.930 . S
C4002 H3988 0.930 . S
C4002 C4000 1.395 . S
C4002 C4005 1.403 . S
C4003 C4000 1.403 . S
C4003 C4004 1.524 . S
C4003 C4007 1.400 . S
C4004 H3989 0.960 . S
C4004 H3990 0.960 . S
C4004 H3991 0.960 . S
C4004 C4003 1.524 . S
C4005 C4002 1.403 . S
C4005 C4006 1.392 . S
C4005 C4009 1.495 . S
C4006 C4005 1.392 . S
C4006 C4007 1.385 . S
C4006 C4008 1.478 . S
C4007 H4001 0.930 . S
C4007 C4003 1.400 . S
C4007 C4006 1.385 . S
C4008 C4006 1.478 . S
C4008 C4010 1.381 . S
C4008 C4014 1.383 . S
C4009 C4005 1.495 . S
C4009 H4015 0.959 . S
C4009 H4016 0.961 . S
C4009 H4017 0.960 . S
C4010 C4008 1.381 . S
C4010 C4011 1.394 . S
C4010 H4018 0.930 . S
C4011 C4010 1.394 . S
C4011 C4012 1.383 . S
C4011 H4019 0.929 . S
C4012 C4011 1.383 . S
C4012 C4013 1.377 . S
C4013 H3997 0.930 . S
C4013 C4012 1.377 . S
C4013 C4014 1.379 . S
C4014 H3998 0.931 . S
C4014 C4008 1.383 . S
C4014 C4013 1.379 . S
H4015 C4009 0.959 . S
H4016 C4009 0.961 . S
H4017 C4009 0.960 . S
H4018 C4010 0.930 . S
H4019 C4011 0.929 . S
H4020 C4028 0.929 . S
H4021 C4030 0.930 . S
H4022 C4032 0.930 . S
H4023 C4035 0.929 . S
H4024 C4038 0.930 . S
H4025 C4040 0.960 . S
H4026 C4040 0.960 . S
H4027 C4040 0.960 . S
C4028 H4020 0.929 . S
C4028 C4029 1.377 . S
C4028 C4030 1.384 . S
C4029 C4028 1.377 . S
C4029 C4035 1.390 . S
C4030 H4021 0.930 . S
C4030 C4028 1.384 . S
C4030 C4031 1.372 . S
C4031 C4030 1.372 . S
C4031 C4032 1.400 . S
C4031 C4036 1.490 . S
C4032 H4022 0.930 . S
C4032 C4031 1.400 . S
C4032 C4035 1.386 . S
H4033 C4049 0.930 . S
H4034 C4050 0.931 . S
C4035 H4023 0.929 . S
C4035 C4029 1.390 . S
C4035 C4032 1.386 . S
C4036 C4031 1.490 . S
C4036 C4038 1.395 . S
C4036 C4039 1.403 . S
H4037 C4043 0.930 . S
C4038 H4024 0.930 . S
C4038 C4036 1.395 . S
C4038 C4041 1.403 . S
C4039 C4036 1.403 . S
C4039 C4040 1.524 . S
C4039 C4043 1.400 . S
C4040 H4025 0.960 . S
C4040 H4026 0.960 . S
C4040 H4027 0.960 . S
C4040 C4039 1.524 . S
C4041 C4038 1.403 . S
C4041 C4042 1.392 . S
C4041 C4045 1.495 . S
C4042 C4041 1.392 . S
C4042 C4043 1.385 . S
C4042 C4044 1.478 . S
C4043 H4037 0.930 . S
C4043 C4039 1.400 . S
C4043 C4042 1.385 . S
C4044 C4042 1.478 . S
C4044 C4046 1.381 . S
C4044 C4050 1.383 . S
C4045 C4041 1.495 . S
C4045 H4051 0.959 . S
C4045 H4052 0.961 . S
C4045 H4053 0.960 . S
C4046 C4044 1.381 . S
C4046 C4047 1.394 . S
C4046 H4054 0.930 . S
C4047 C4046 1.394 . S
C4047 C4048 1.383 . S
C4047 H4055 0.929 . S
C4048 C4047 1.383 . S
C4048 C4049 1.377 . S
C4049 H4033 0.930 . S
C4049 C4048 1.377 . S
C4049 C4050 1.379 . S
C4050 H4034 0.931 . S
C4050 C4044 1.383 . S
C4050 C4049 1.379 . S
H4051 C4045 0.959 . S
H4052 C4045 0.961 . S
H4053 C4045 0.960 . S
H4054 C4046 0.930 . S
H4055 C4047 0.929 . S
H4056 C4064 0.929 . S
H4057 C4066 0.930 . S
H4058 C4068 0.930 . S
H4059 C4071 0.929 . S
H4060 C4074 0.930 . S
H4061 C4076 0.960 . S
H4062 C4076 0.960 . S
H4063 C4076 0.960 . S
C4064 H4056 0.929 . S
C4064 C4065 1.377 . S
C4064 C4066 1.384 . S
C4065 C4064 1.377 . S
C4065 C4071 1.390 . S
C4066 H4057 0.930 . S
C4066 C4064 1.384 . S
C4066 C4067 1.372 . S
C4067 C4066 1.372 . S
C4067 C4068 1.400 . S
C4067 C4072 1.490 . S
C4068 H4058 0.930 . S
C4068 C4067 1.400 . S
C4068 C4071 1.386 . S
H4069 C4085 0.930 . S
H4070 C4086 0.931 . S
C4071 H4059 0.929 . S
C4071 C4065 1.390 . S
C4071 C4068 1.386 . S
C4072 C4067 1.490 . S
C4072 C4074 1.395 . S
C4072 C4075 1.403 . S
H4073 C4079 0.930 . S
C4074 H4060 0.930 . S
C4074 C4072 1.395 . S
C4074 C4077 1.403 . S
C4075 C4072 1.403 . S
C4075 C4076 1.524 . S
C4075 C4079 1.400 . S
C4076 H4061 0.960 . S
C4076 H4062 0.960 . S
C4076 H4063 0.960 . S
C4076 C4075 1.524 . S
C4077 C4074 1.403 . S
C4077 C4078 1.392 . S
C4077 C4081 1.495 . S
C4078 C4077 1.392 . S
C4078 C4079 1.385 . S
C4078 C4080 1.478 . S
C4079 H4073 0.930 . S
C4079 C4075 1.400 . S
C4079 C4078 1.385 . S
C4080 C4078 1.478 . S
C4080 C4082 1.381 . S
C4080 C4086 1.383 . S
C4081 C4077 1.495 . S
C4081 H4087 0.959 . S
C4081 H4088 0.961 . S
C4081 H4089 0.960 . S
C4082 C4080 1.381 . S
C4082 C4083 1.394 . S
C4082 H4090 0.930 . S
C4083 C4082 1.394 . S
C4083 C4084 1.383 . S
C4083 H4091 0.929 . S
C4084 C4083 1.383 . S
C4084 C4085 1.377 . S
C4085 H4069 0.930 . S
C4085 C4084 1.377 . S
C4085 C4086 1.379 . S
C4086 H4070 0.931 . S
C4086 C4080 1.383 . S
C4086 C4085 1.379 . S
H4087 C4081 0.959 . S
H4088 C4081 0.961 . S
H4089 C4081 0.960 . S
H4090 C4082 0.930 . S
H4091 C4083 0.929 . S
H4092 C4100 0.929 . S
H4093 C4102 0.930 . S
H4094 C4104 0.930 . S
H4095 C4107 0.929 . S
H4096 C4110 0.930 . S
H4097 C4112 0.960 . S
H4098 C4112 0.960 . S
H4099 C4112 0.960 . S
C4100 H4092 0.929 . S
C4100 C4101 1.377 . S
C4100 C4102 1.384 . S
C4101 C4100 1.377 . S
C4101 C4107 1.390 . S
C4102 H4093 0.930 . S
C4102 C4100 1.384 . S
C4102 C4103 1.372 . S
C4103 C4102 1.372 . S
C4103 C4104 1.400 . S
C4103 C4108 1.490 . S
C4104 H4094 0.930 . S
C4104 C4103 1.400 . S
C4104 C4107 1.386 . S
H4105 C4121 0.930 . S
H4106 C4122 0.931 . S
C4107 H4095 0.929 . S
C4107 C4101 1.390 . S
C4107 C4104 1.386 . S
C4108 C4103 1.490 . S
C4108 C4110 1.395 . S
C4108 C4111 1.403 . S
H4109 C4115 0.930 . S
C4110 H4096 0.930 . S
C4110 C4108 1.395 . S
C4110 C4113 1.403 . S
C4111 C4108 1.403 . S
C4111 C4112 1.524 . S
C4111 C4115 1.400 . S
C4112 H4097 0.960 . S
C4112 H4098 0.960 . S
C4112 H4099 0.960 . S
C4112 C4111 1.524 . S
C4113 C4110 1.403 . S
C4113 C4114 1.392 . S
C4113 C4117 1.495 . S
C4114 C4113 1.392 . S
C4114 C4115 1.385 . S
C4114 C4116 1.478 . S
C4115 H4109 0.930 . S
C4115 C4111 1.400 . S
C4115 C4114 1.385 . S
C4116 C4114 1.478 . S
C4116 C4118 1.381 . S
C4116 C4122 1.383 . S
C4117 C4113 1.495 . S
C4117 H4123 0.959 . S
C4117 H4124 0.961 . S
C4117 H4125 0.960 . S
C4118 C4116 1.381 . S
C4118 C4119 1.394 . S
C4118 H4126 0.930 . S
C4119 C4118 1.394 . S
C4119 C4120 1.383 . S
C4119 H4127 0.929 . S
C4120 C4119 1.383 . S
C4120 C4121 1.377 . S
C4121 H4105 0.930 . S
C4121 C4120 1.377 . S
C4121 C4122 1.379 . S
C4122 H4106 0.931 . S
C4122 C4116 1.383 . S
C4122 C4121 1.379 . S
H4123 C4117 0.959 . S
H4124 C4117 0.961 . S
H4125 C4117 0.960 . S
H4126 C4118 0.930 . S
H4127 C4119 0.929 . S
C681 C7 0.876 . S
C700 C371 0.809 . S
C717 C385 0.693 . S
C736 C21 0.684 . S
C753 C35 0.658 . S
C772 C343 0.713 . S
C789 C357 0.681 1_554 S
C808 C49 0.554 1_554 S
C825 C63 0.788 . S
C844 C427 0.719 . S
C861 C77 0.702 . S
C880 C441 0.620 . S
C897 C91 0.647 . S
C916 C399 0.718 . S
C933 C105 0.775 . S
C952 C413 0.739 . S
C969 C175 0.835 . S
C988 C119 0.924 . S
C1005 C133 0.677 1_545 S
C1024 C189 0.677 1_545 S
C1041 C203 0.778 . S
C1060 C147 0.793 . S
C1077 C161 0.783 . S
C1096 C217 0.739 . S
C1113 C609 0.836 . S
C1132 C231 0.906 . S
C1149 C637 0.757 . S
C1168 C245 0.788 . S
C1185 C315 0.682 1_455 S
C1204 C259 0.538 1_455 S
C1221 C567 0.693 . S
C1240 C273 0.610 . S
C1257 C665 0.782 . S
C1276 C287 0.750 . S
C1293 C581 0.650 . S
C1312 C301 0.699 . S
C1329 C329 0.668 . S
C1348 C623 0.701 . S
C1365 C455 0.689 . S
C1384 C511 0.659 . S
C1401 C525 0.704 . S
C1420 C469 0.727 . S
C1437 C483 0.674 . S
C1456 C539 0.694 . S
C1473 C553 0.664 . S
C1492 C497 0.753 . S
C1509 C595 0.684 . S
C1528 C651 0.739 . S
C1545 C8 0.949 . S
C1564 C106 1.031 1_455 S
C1581 C64 0.868 . S
C1600 C22 0.812 1_455 S
C1617 C36 0.846 . S
C1636 C78 0.797 . S
C1653 C50 0.828 . S
C1672 C92 0.884 . S
C1689 C288 0.914 1_545 S
C1708 C120 0.976 . S
C1725 C582 0.840 . S
C1744 C134 0.916 . S
C1761 C148 0.910 . S
C1780 C596 0.876 . S
C1797 C162 0.977 . S
C1816 C610 0.984 . S
C1833 C666 0.982 . S
C1852 C176 1.036 . S
C1869 C190 0.821 . S
C1888 C302 0.804 . S
C1905 C204 0.866 . S
C1924 C652 0.803 1_545 S
C1941 C218 0.951 1_554 S
C1960 C232 0.946 . S
C1977 C246 0.899 . S
C1996 C470 0.833 . S
C2013 C260 0.826 . S
C2032 C484 0.876 . S
C2049 C498 0.884 . S
C2068 C274 0.903 . S
C2085 C316 0.804 . S
C2104 C540 0.729 . S
C2121 C512 0.860 . S
C2140 C330 0.831 . S
C2157 C442 0.877 . S
C2176 C344 0.959 . S
C2193 C358 0.801 . S
C2212 C400 0.753 . S
C2229 C414 0.964 . S
C2248 C372 0.971 . S
C2265 C386 0.922 . S
C2284 C428 0.981 . S
C2301 C456 0.860 . S
C2320 C624 0.799 . S
C2337 C638 0.885 . S
C2356 C526 0.956 1_554 S
C2373 C568 0.878 . S
C2392 C554 0.846 . S
C2409 C9 1.618 . S
C2428 C415 1.624 . S
C2445 C429 1.665 . S
C2464 C23 1.643 . S
C2481 C37 1.640 . S
C2500 C443 1.657 . S
C2517 C51 1.654 . S
C2536 C401 1.657 . S
C2553 C387 1.644 . S
C2572 C65 1.612 . S
C2589 C79 1.662 . S
C2608 C345 1.666 . S
C2625 C359 1.641 . S
C2644 C93 1.630 . S
C2661 C107 1.627 . S
C2680 C373 1.647 . S
C2697 C667 1.627 . S
C2716 C121 1.614 . S
C2733 C135 1.647 . S
C2752 C303 1.633 . S
C2769 C149 1.665 . S
C2788 C653 1.649 . S
C2805 C233 1.610 . S
C2824 C163 1.605 . S
C2841 C177 1.641 . S
C2860 C289 1.638 . S
C2877 C191 1.644 . S
C2896 C583 1.620 . S
C2913 C597 1.638 . S
C2932 C205 1.623 . S
C2949 C611 1.636 . S
C2968 C219 1.651 . S
C2985 C527 1.658 . S
C3004 C247 1.660 . S
C3021 C541 1.649 . S
C3040 C261 1.642 . S
C3057 C555 1.642 . S
C3076 C275 1.656 . S
C3093 C317 1.649 . S
C3112 C485 1.644 . S
C3129 C457 1.673 . S
C3148 C331 1.663 . S
C3165 C471 1.638 . S
C3184 C639 1.632 . S
C3201 C499 1.665 . S
C3220 C569 1.647 . S
C3237 C625 1.644 . S
C3256 C513 1.649 . S
C3273 C6 1.601 . S
C3292 C314 1.585 . S
C3309 C20 1.650 . S
C3328 C566 1.606 . S
C3345 C328 1.677 . S
C3364 C34 1.650 . S
C3381 C636 1.602 . S
C3400 C48 1.628 . S
C3417 C258 1.592 . S
C3436 C62 1.587 . S
C3453 C272 1.685 . S
C3472 C76 1.705 . S
C3489 C90 1.654 . S
C3508 C622 1.628 . S
C3525 C104 1.583 . S
C3544 C244 1.582 . S
C3561 C188 1.612 . S
C3580 C118 1.586 . S
C3597 C132 1.594 . S
C3616 C202 1.577 . S
C3633 C216 1.578 . S
C3652 C146 1.533 . S
C3669 C174 1.645 . S
C3688 C160 1.656 . S
C3705 C230 1.609 . S
C3724 C356 1.634 . S
C3741 C426 1.572 . S
C3760 C286 1.563 . S
C3777 C384 1.656 . S
C3796 C300 1.654 . S
C3813 C342 1.650 . S
C3832 C650 1.650 . S
C3849 C664 1.624 . S
C3868 C370 1.612 . S
C3885 C594 1.657 . S
C3904 C398 1.647 . S
C3921 C608 1.644 . S
C3940 C412 1.648 . S
C3957 C580 1.655 . S
C3976 C440 1.639 . S
C3993 C524 1.659 . S
C4012 C454 1.656 . S
C4029 C538 1.671 . S
C4048 C468 1.634 . S
C4065 C482 1.666 . S
C4084 C552 1.674 . S
C4101 C496 1.682 . S
C4120 C510 1.674 . S
