# Generated by pormake.
# Topology wio, (6)-cn, num edge types: 1
# Building blocks:
#     Node 0, Type 0, BuildingBlock: BETFAJ_clean_sbu_0, # of connection points: 6
#     Node 1, Type 0, BuildingBlock: BETFAJ_clean_sbu_0, # of connection points: 6
#     Node 2, Type 0, BuildingBlock: BETFAJ_clean_sbu_0, # of connection points: 6
#     Node 3, Type 0, BuildingBlock: BETFAJ_clean_sbu_0, # of connection points: 6
#     Node 4, Type 0, BuildingBlock: BETFAJ_clean_sbu_0, # of connection points: 6
#     Node 5, Type 0, BuildingBlock: BETFAJ_clean_sbu_0, # of connection points: 6
#     Node 6, Type 0, BuildingBlock: BETFAJ_clean_sbu_0, # of connection points: 6
#     Node 7, Type 0, BuildingBlock: BETFAJ_clean_sbu_0, # of connection points: 6
#     Node 8, Type 0, BuildingBlock: BETFAJ_clean_sbu_0, # of connection points: 6
#     Node 9, Type 0, BuildingBlock: BETFAJ_clean_sbu_0, # of connection points: 6
#     Node 10, Type 0, BuildingBlock: BETFAJ_clean_sbu_0, # of connection points: 6
#     Node 11, Type 0, BuildingBlock: BETFAJ_clean_sbu_0, # of connection points: 6
#     Node 12, Type 0, BuildingBlock: BETFAJ_clean_sbu_0, # of connection points: 6
#     Node 13, Type 0, BuildingBlock: BETFAJ_clean_sbu_0, # of connection points: 6
#     Node 14, Type 0, BuildingBlock: BETFAJ_clean_sbu_0, # of connection points: 6
#     Node 15, Type 0, BuildingBlock: BETFAJ_clean_sbu_0, # of connection points: 6
#     Node 16, Type 0, BuildingBlock: BETFAJ_clean_sbu_0, # of connection points: 6
#     Node 17, Type 0, BuildingBlock: BETFAJ_clean_sbu_0, # of connection points: 6
#     Node 18, Type 0, BuildingBlock: BETFAJ_clean_sbu_0, # of connection points: 6
#     Node 19, Type 0, BuildingBlock: BETFAJ_clean_sbu_0, # of connection points: 6
#     Node 20, Type 0, BuildingBlock: BETFAJ_clean_sbu_0, # of connection points: 6
#     Node 21, Type 0, BuildingBlock: BETFAJ_clean_sbu_0, # of connection points: 6
#     Node 22, Type 0, BuildingBlock: BETFAJ_clean_sbu_0, # of connection points: 6
#     Node 23, Type 0, BuildingBlock: BETFAJ_clean_sbu_0, # of connection points: 6
#     Node 24, Type 0, BuildingBlock: BETFAJ_clean_sbu_0, # of connection points: 6
#     Node 25, Type 0, BuildingBlock: BETFAJ_clean_sbu_0, # of connection points: 6
#     Node 26, Type 0, BuildingBlock: BETFAJ_clean_sbu_0, # of connection points: 6
#     Node 27, Type 0, BuildingBlock: BETFAJ_clean_sbu_0, # of connection points: 6
#     Node 28, Type 0, BuildingBlock: BETFAJ_clean_sbu_0, # of connection points: 6
#     Node 29, Type 0, BuildingBlock: BETFAJ_clean_sbu_0, # of connection points: 6
#     Node 30, Type 0, BuildingBlock: BETFAJ_clean_sbu_0, # of connection points: 6
#     Node 31, Type 0, BuildingBlock: BETFAJ_clean_sbu_0, # of connection points: 6
#     Edge 32, Type (0, 0), BuildingBlock: UVAHIK_clean_linker_0, # of connection points: 2
#     Edge 33, Type (0, 0), BuildingBlock: UVAHIK_clean_linker_0, # of connection points: 2
#     Edge 34, Type (0, 0), BuildingBlock: UVAHIK_clean_linker_0, # of connection points: 2
#     Edge 35, Type (0, 0), BuildingBlock: UVAHIK_clean_linker_0, # of connection points: 2
#     Edge 36, Type (0, 0), BuildingBlock: UVAHIK_clean_linker_0, # of connection points: 2
#     Edge 37, Type (0, 0), BuildingBlock: UVAHIK_clean_linker_0, # of connection points: 2
#     Edge 38, Type (0, 0), BuildingBlock: UVAHIK_clean_linker_0, # of connection points: 2
#     Edge 39, Type (0, 0), BuildingBlock: UVAHIK_clean_linker_0, # of connection points: 2
#     Edge 40, Type (0, 0), BuildingBlock: UVAHIK_clean_linker_0, # of connection points: 2
#     Edge 41, Type (0, 0), BuildingBlock: UVAHIK_clean_linker_0, # of connection points: 2
#     Edge 42, Type (0, 0), BuildingBlock: UVAHIK_clean_linker_0, # of connection points: 2
#     Edge 43, Type (0, 0), BuildingBlock: UVAHIK_clean_linker_0, # of connection points: 2
#     Edge 44, Type (0, 0), BuildingBlock: UVAHIK_clean_linker_0, # of connection points: 2
#     Edge 45, Type (0, 0), BuildingBlock: UVAHIK_clean_linker_0, # of connection points: 2
#     Edge 46, Type (0, 0), BuildingBlock: UVAHIK_clean_linker_0, # of connection points: 2
#     Edge 47, Type (0, 0), BuildingBlock: UVAHIK_clean_linker_0, # of connection points: 2
#     Edge 48, Type (0, 0), BuildingBlock: UVAHIK_clean_linker_0, # of connection points: 2
#     Edge 49, Type (0, 0), BuildingBlock: UVAHIK_clean_linker_0, # of connection points: 2
#     Edge 50, Type (0, 0), BuildingBlock: UVAHIK_clean_linker_0, # of connection points: 2
#     Edge 51, Type (0, 0), BuildingBlock: UVAHIK_clean_linker_0, # of connection points: 2
#     Edge 52, Type (0, 0), BuildingBlock: UVAHIK_clean_linker_0, # of connection points: 2
#     Edge 53, Type (0, 0), BuildingBlock: UVAHIK_clean_linker_0, # of connection points: 2
#     Edge 54, Type (0, 0), BuildingBlock: UVAHIK_clean_linker_0, # of connection points: 2
#     Edge 55, Type (0, 0), BuildingBlock: UVAHIK_clean_linker_0, # of connection points: 2
#     Edge 56, Type (0, 0), BuildingBlock: UVAHIK_clean_linker_0, # of connection points: 2
#     Edge 57, Type (0, 0), BuildingBlock: UVAHIK_clean_linker_0, # of connection points: 2
#     Edge 58, Type (0, 0), BuildingBlock: UVAHIK_clean_linker_0, # of connection points: 2
#     Edge 59, Type (0, 0), BuildingBlock: UVAHIK_clean_linker_0, # of connection points: 2
#     Edge 60, Type (0, 0), BuildingBlock: UVAHIK_clean_linker_0, # of connection points: 2
#     Edge 61, Type (0, 0), BuildingBlock: UVAHIK_clean_linker_0, # of connection points: 2
#     Edge 62, Type (0, 0), BuildingBlock: UVAHIK_clean_linker_0, # of connection points: 2
#     Edge 63, Type (0, 0), BuildingBlock: UVAHIK_clean_linker_0, # of connection points: 2
#     Edge 64, Type (0, 0), BuildingBlock: UVAHIK_clean_linker_0, # of connection points: 2
#     Edge 65, Type (0, 0), BuildingBlock: UVAHIK_clean_linker_0, # of connection points: 2
#     Edge 66, Type (0, 0), BuildingBlock: UVAHIK_clean_linker_0, # of connection points: 2
#     Edge 67, Type (0, 0), BuildingBlock: UVAHIK_clean_linker_0, # of connection points: 2
#     Edge 68, Type (0, 0), BuildingBlock: UVAHIK_clean_linker_0, # of connection points: 2
#     Edge 69, Type (0, 0), BuildingBlock: UVAHIK_clean_linker_0, # of connection points: 2
#     Edge 70, Type (0, 0), BuildingBlock: UVAHIK_clean_linker_0, # of connection points: 2
#     Edge 71, Type (0, 0), BuildingBlock: UVAHIK_clean_linker_0, # of connection points: 2
#     Edge 72, Type (0, 0), BuildingBlock: UVAHIK_clean_linker_0, # of connection points: 2
#     Edge 73, Type (0, 0), BuildingBlock: UVAHIK_clean_linker_0, # of connection points: 2
#     Edge 74, Type (0, 0), BuildingBlock: UVAHIK_clean_linker_0, # of connection points: 2
#     Edge 75, Type (0, 0), BuildingBlock: UVAHIK_clean_linker_0, # of connection points: 2
#     Edge 76, Type (0, 0), BuildingBlock: UVAHIK_clean_linker_0, # of connection points: 2
#     Edge 77, Type (0, 0), BuildingBlock: UVAHIK_clean_linker_0, # of connection points: 2
#     Edge 78, Type (0, 0), BuildingBlock: UVAHIK_clean_linker_0, # of connection points: 2
#     Edge 79, Type (0, 0), BuildingBlock: UVAHIK_clean_linker_0, # of connection points: 2
#     Edge 80, Type (0, 0), BuildingBlock: UVAHIK_clean_linker_0, # of connection points: 2
#     Edge 81, Type (0, 0), BuildingBlock: UVAHIK_clean_linker_0, # of connection points: 2
#     Edge 82, Type (0, 0), BuildingBlock: UVAHIK_clean_linker_0, # of connection points: 2
#     Edge 83, Type (0, 0), BuildingBlock: UVAHIK_clean_linker_0, # of connection points: 2
#     Edge 84, Type (0, 0), BuildingBlock: UVAHIK_clean_linker_0, # of connection points: 2
#     Edge 85, Type (0, 0), BuildingBlock: UVAHIK_clean_linker_0, # of connection points: 2
#     Edge 86, Type (0, 0), BuildingBlock: UVAHIK_clean_linker_0, # of connection points: 2
#     Edge 87, Type (0, 0), BuildingBlock: UVAHIK_clean_linker_0, # of connection points: 2
#     Edge 88, Type (0, 0), BuildingBlock: UVAHIK_clean_linker_0, # of connection points: 2
#     Edge 89, Type (0, 0), BuildingBlock: UVAHIK_clean_linker_0, # of connection points: 2
#     Edge 90, Type (0, 0), BuildingBlock: UVAHIK_clean_linker_0, # of connection points: 2
#     Edge 91, Type (0, 0), BuildingBlock: UVAHIK_clean_linker_0, # of connection points: 2
#     Edge 92, Type (0, 0), BuildingBlock: UVAHIK_clean_linker_0, # of connection points: 2
#     Edge 93, Type (0, 0), BuildingBlock: UVAHIK_clean_linker_0, # of connection points: 2
#     Edge 94, Type (0, 0), BuildingBlock: UVAHIK_clean_linker_0, # of connection points: 2
#     Edge 95, Type (0, 0), BuildingBlock: UVAHIK_clean_linker_0, # of connection points: 2
#     Edge 96, Type (0, 0), BuildingBlock: UVAHIK_clean_linker_0, # of connection points: 2
#     Edge 97, Type (0, 0), BuildingBlock: UVAHIK_clean_linker_0, # of connection points: 2
#     Edge 98, Type (0, 0), BuildingBlock: UVAHIK_clean_linker_0, # of connection points: 2
#     Edge 99, Type (0, 0), BuildingBlock: UVAHIK_clean_linker_0, # of connection points: 2
#     Edge 100, Type (0, 0), BuildingBlock: UVAHIK_clean_linker_0, # of connection points: 2
#     Edge 101, Type (0, 0), BuildingBlock: UVAHIK_clean_linker_0, # of connection points: 2
#     Edge 102, Type (0, 0), BuildingBlock: UVAHIK_clean_linker_0, # of connection points: 2
#     Edge 103, Type (0, 0), BuildingBlock: UVAHIK_clean_linker_0, # of connection points: 2
#     Edge 104, Type (0, 0), BuildingBlock: UVAHIK_clean_linker_0, # of connection points: 2
#     Edge 105, Type (0, 0), BuildingBlock: UVAHIK_clean_linker_0, # of connection points: 2
#     Edge 106, Type (0, 0), BuildingBlock: UVAHIK_clean_linker_0, # of connection points: 2
#     Edge 107, Type (0, 0), BuildingBlock: UVAHIK_clean_linker_0, # of connection points: 2
#     Edge 108, Type (0, 0), BuildingBlock: UVAHIK_clean_linker_0, # of connection points: 2
#     Edge 109, Type (0, 0), BuildingBlock: UVAHIK_clean_linker_0, # of connection points: 2
#     Edge 110, Type (0, 0), BuildingBlock: UVAHIK_clean_linker_0, # of connection points: 2
#     Edge 111, Type (0, 0), BuildingBlock: UVAHIK_clean_linker_0, # of connection points: 2
#     Edge 112, Type (0, 0), BuildingBlock: UVAHIK_clean_linker_0, # of connection points: 2
#     Edge 113, Type (0, 0), BuildingBlock: UVAHIK_clean_linker_0, # of connection points: 2
#     Edge 114, Type (0, 0), BuildingBlock: UVAHIK_clean_linker_0, # of connection points: 2
#     Edge 115, Type (0, 0), BuildingBlock: UVAHIK_clean_linker_0, # of connection points: 2
#     Edge 116, Type (0, 0), BuildingBlock: UVAHIK_clean_linker_0, # of connection points: 2
#     Edge 117, Type (0, 0), BuildingBlock: UVAHIK_clean_linker_0, # of connection points: 2
#     Edge 118, Type (0, 0), BuildingBlock: UVAHIK_clean_linker_0, # of connection points: 2
#     Edge 119, Type (0, 0), BuildingBlock: UVAHIK_clean_linker_0, # of connection points: 2
#     Edge 120, Type (0, 0), BuildingBlock: UVAHIK_clean_linker_0, # of connection points: 2
#     Edge 121, Type (0, 0), BuildingBlock: UVAHIK_clean_linker_0, # of connection points: 2
#     Edge 122, Type (0, 0), BuildingBlock: UVAHIK_clean_linker_0, # of connection points: 2
#     Edge 123, Type (0, 0), BuildingBlock: UVAHIK_clean_linker_0, # of connection points: 2
#     Edge 124, Type (0, 0), BuildingBlock: UVAHIK_clean_linker_0, # of connection points: 2
#     Edge 125, Type (0, 0), BuildingBlock: UVAHIK_clean_linker_0, # of connection points: 2
#     Edge 126, Type (0, 0), BuildingBlock: UVAHIK_clean_linker_0, # of connection points: 2
#     Edge 127, Type (0, 0), BuildingBlock: UVAHIK_clean_linker_0, # of connection points: 2
# Relax obj value: 0.192
# Max RMSD: 0.229
# Mean RMSD: 0.229
data_MOF--net-wio--node1-BETFAJ_clean_sbu_0--edge1-UVAHIK_clean_linker_0
_symmetry_space_group_name_H-M    P1
_symmetry_Int_Tables_number       1
_symmetry_cell_setting            triclinic
loop_
_symmetry_equiv_pos_as_xyz
'x, y, z'
_cell_length_a     76.495853
_cell_length_b     76.520732
_cell_length_c     68.230536
_cell_angle_alpha  90.015254
_cell_angle_beta   90.047915
_cell_angle_gamma 89.97334
loop_
_atom_site_label
_atom_site_type_symbol
_atom_site_fract_x
_atom_site_fract_y
_atom_site_fract_z
_atom_type_partial_charge
Sm0 Sm 0.15169 0.11791 0.28286 0.0
Sm1 Sm 0.11316 0.12614 0.29087 0.0
C2 C 0.18263 0.10806 0.26904 0.0
C3 C 0.19523 0.11128 0.25295 0.0
C4 C 0.19084 0.10826 0.23321 0.0
C5 C 0.20348 0.11 0.21848 0.0
C6 C 0.22075 0.11486 0.22315 0.0
C7 C 0.22495 0.11829 0.24285 0.0
C8 C 0.21235 0.11645 0.25756 0.0
C9 C 0.14579 0.14893 0.30206 0.0
C10 C 0.12719 0.1344 0.24715 0.0
C11 C 0.08375 0.13828 0.30643 0.0
C12 C 0.07076 0.13468 0.32204 0.0
C13 C 0.07508 0.13576 0.34206 0.0
C14 C 0.06223 0.13335 0.35646 0.0
C15 C 0.04481 0.12976 0.35116 0.0
C16 C 0.0406 0.12854 0.33113 0.0
C17 C 0.0534 0.13103 0.31678 0.0
C18 C 0.11861 0.09397 0.27388 0.0
C19 C 0.13609 0.10344 0.32394 0.0
O20 O 0.16797 0.10009 0.26479 0.0
O21 O 0.18069 0.1204 0.28212 0.0
O22 O 0.13683 0.14334 0.28777 0.0
O23 O 0.1587 0.1385 0.30593 0.0
O24 O 0.14153 0.12598 0.25237 0.0
O25 O 0.11481 0.13825 0.25997 0.0
O26 O 0.09932 0.14366 0.31167 0.0
O27 O 0.08411 0.12756 0.29148 0.0
O28 O 0.12802 0.10095 0.28682 0.0
O29 O 0.1048 0.10345 0.27064 0.0
O30 O 0.12217 0.11331 0.32032 0.0
O31 O 0.14858 0.10149 0.31073 0.0
H32 H 0.17774 0.10431 0.22915 0.0
H33 H 0.19976 0.10747 0.20343 0.0
H34 H 0.23814 0.12186 0.247 0.0
H35 H 0.21611 0.11872 0.27267 0.0
H36 H 0.08834 0.1386 0.34664 0.0
H37 H 0.06595 0.13422 0.37175 0.0
H38 H 0.02729 0.12607 0.32648 0.0
H39 H 0.04965 0.13034 0.30148 0.0
Sm40 Sm 0.13336 0.90048 0.53223 0.0
Sm41 Sm 0.12436 0.86199 0.54076 0.0
C42 C 0.14436 0.9311 0.51863 0.0
C43 C 0.14269 0.9436 0.50227 0.0
C44 C 0.15672 0.95479 0.49822 0.0
C45 C 0.15539 0.9674 0.48348 0.0
C46 C 0.13995 0.96912 0.4724 0.0
C47 C 0.12593 0.95771 0.47636 0.0
C48 C 0.1273 0.94502 0.49114 0.0
C49 C 0.1025 0.89524 0.55191 0.0
C50 C 0.11635 0.87597 0.49686 0.0
C51 C 0.11126 0.8331 0.55659 0.0
C52 C 0.11417 0.82076 0.57287 0.0
C53 C 0.10011 0.81076 0.57975 0.0
C54 C 0.10257 0.79845 0.59465 0.0
C55 C 0.1192 0.79584 0.603 0.0
C56 C 0.13325 0.80611 0.59625 0.0
C57 C 0.13075 0.8185 0.58135 0.0
C58 C 0.15656 0.86676 0.52364 0.0
C59 C 0.1475 0.88481 0.57353 0.0
O60 O 0.15238 0.91634 0.51507 0.0
O61 O 0.13094 0.92934 0.53032 0.0
O62 O 0.1078 0.88611 0.53763 0.0
O63 O 0.11316 0.90802 0.55552 0.0
O64 O 0.12496 0.89024 0.50192 0.0
O65 O 0.11241 0.86367 0.50976 0.0
O66 O 0.10592 0.84881 0.56122 0.0
O67 O 0.12275 0.83306 0.54239 0.0
O68 O 0.14972 0.8764 0.53646 0.0
O69 O 0.14689 0.85305 0.52061 0.0
O70 O 0.13745 0.87099 0.57007 0.0
O71 O 0.14956 0.8972 0.56024 0.0
H72 H 0.16868 0.95395 0.50671 0.0
H73 H 0.16635 0.97609 0.48108 0.0
H74 H 0.11393 0.95853 0.46798 0.0
H75 H 0.11633 0.93644 0.49398 0.0
H76 H 0.08722 0.81232 0.57338 0.0
H77 H 0.0915 0.79066 0.59929 0.0
H78 H 0.14617 0.80462 0.60251 0.0
H79 H 0.14176 0.82619 0.57635 0.0
Sm80 Sm 0.35043 0.88166 0.78276 0.0
Sm81 Sm 0.38918 0.87466 0.79083 0.0
C82 C 0.31925 0.89102 0.76918 0.0
C83 C 0.30671 0.88795 0.75298 0.0
C84 C 0.31088 0.89186 0.7334 0.0
C85 C 0.29824 0.8902 0.71864 0.0
C86 C 0.28119 0.88454 0.72313 0.0
C87 C 0.27721 0.88025 0.74266 0.0
C88 C 0.28981 0.882 0.7574 0.0
C89 C 0.35715 0.85073 0.80168 0.0
C90 C 0.37554 0.86622 0.74702 0.0
C91 C 0.41917 0.86353 0.80599 0.0
C92 C 0.43184 0.86705 0.82197 0.0
C93 C 0.4273 0.8652 0.84184 0.0
C94 C 0.43989 0.86755 0.85656 0.0
C95 C 0.45724 0.87188 0.85173 0.0
C96 C 0.46166 0.8739 0.83185 0.0
C97 C 0.44913 0.87145 0.81717 0.0
C98 C 0.38236 0.90688 0.77448 0.0
C99 C 0.36552 0.89594 0.8243 0.0
O100 O 0.33368 0.89953 0.76528 0.0
O101 O 0.32154 0.87834 0.78177 0.0
O102 O 0.36606 0.85666 0.78754 0.0
O103 O 0.34388 0.8607 0.80546 0.0
O104 O 0.36088 0.87414 0.75214 0.0
O105 O 0.38794 0.86269 0.75994 0.0
O106 O 0.40391 0.85701 0.81072 0.0
O107 O 0.41826 0.87493 0.79175 0.0
O108 O 0.37345 0.89929 0.78739 0.0
O109 O 0.39632 0.89785 0.77056 0.0
O110 O 0.37977 0.88659 0.82057 0.0
O111 O 0.35299 0.89763 0.81107 0.0
H112 H 0.32381 0.89644 0.72949 0.0
H113 H 0.30179 0.89341 0.70371 0.0
H114 H 0.26418 0.87605 0.74667 0.0
H115 H 0.2862 0.87905 0.7724 0.0
H116 H 0.41409 0.86179 0.84605 0.0
H117 H 0.43602 0.86608 0.87173 0.0
H118 H 0.47494 0.87699 0.82758 0.0
H119 H 0.45303 0.87276 0.80198 0.0
Sm120 Sm 0.36763 0.10018 0.03115 0.0
Sm121 Sm 0.37659 0.13861 0.0404 0.0
C122 C 0.35636 0.06972 0.01735 0.0
C123 C 0.35826 0.057 1.00127 0.0
C124 C 0.34435 0.04566 0.99726 0.0
C125 C 0.34583 0.03296 0.98263 0.0
C126 C 0.3613 0.03132 0.97164 0.0
C127 C 0.37525 0.04283 0.97562 0.0
C128 C 0.37372 0.0556 0.9903 0.0
C129 C 0.39874 0.10526 0.05049 0.0
C130 C 0.38423 0.12524 0.99609 0.0
C131 C 0.39014 0.16732 0.05615 0.0
C132 C 0.3882 0.17988 0.0724 0.0
C133 C 0.40281 0.18954 0.07837 0.0
C134 C 0.40128 0.20236 0.09286 0.0
C135 C 0.38504 0.20583 0.10173 0.0
C136 C 0.37046 0.19573 0.09611 0.0
C137 C 0.37203 0.18287 0.08154 0.0
C138 C 0.34426 0.13394 0.02349 0.0
C139 C 0.35374 0.11539 0.07289 0.0
O140 O 0.3489 0.08465 1.0132 0.0
O141 O 0.36939 0.07125 0.02964 0.0
O142 O 0.39317 0.11459 0.03651 0.0
O143 O 0.38824 0.09231 0.0539 0.0
O144 O 0.37592 0.11072 1.00089 0.0
O145 O 0.38808 0.13737 1.00922 0.0
O146 O 0.39546 0.15156 0.06059 0.0
O147 O 0.37818 0.16751 0.04244 0.0
O148 O 0.35128 0.12414 0.03603 0.0
O149 O 0.35379 0.14779 0.02072 0.0
O150 O 0.36387 0.12919 0.06972 0.0
O151 O 0.35151 0.10327 0.05928 0.0
H152 H 0.33235 0.04648 1.00564 0.0
H153 H 0.33493 0.0242 0.9802 0.0
H154 H 0.38727 0.04205 0.9673 0.0
H155 H 0.38461 0.06429 0.99313 0.0
H156 H 0.41543 0.18735 0.07157 0.0
H157 H 0.41284 0.20962 0.09706 0.0
H158 H 0.35774 0.19811 0.10253 0.0
H159 H 0.36058 0.17549 0.07718 0.0
Sm160 Sm 0.15113 0.88317 0.25175 0.0
Sm161 Sm 0.11269 0.87486 0.2434 0.0
C162 C 0.18197 0.89319 0.26571 0.0
C163 C 0.1948 0.88973 0.28153 0.0
C164 C 0.19061 0.89222 0.3014 0.0
C165 C 0.20347 0.89036 0.31589 0.0
C166 C 0.22075 0.8859 0.31083 0.0
C167 C 0.22475 0.88297 0.29099 0.0
C168 C 0.21194 0.88494 0.27652 0.0
C169 C 0.14545 0.8522 0.23242 0.0
C170 C 0.12659 0.86642 0.28717 0.0
C171 C 0.08333 0.86273 0.22769 0.0
C172 C 0.07053 0.86633 0.21185 0.0
C173 C 0.07502 0.86492 0.19192 0.0
C174 C 0.06237 0.86745 0.17731 0.0
C175 C 0.04499 0.8715 0.1823 0.0
C176 C 0.04059 0.87302 0.20224 0.0
C177 C 0.05319 0.8704 0.21682 0.0
C178 C 0.11798 0.90701 0.26054 0.0
C179 C 0.13566 0.89771 0.21063 0.0
O180 O 0.16718 0.90069 0.27044 0.0
O181 O 0.18018 0.88125 0.25214 0.0
O182 O 0.13641 0.85772 0.24665 0.0
O183 O 0.15835 0.86266 0.2287 0.0
O184 O 0.14096 0.87485 0.2821 0.0
O185 O 0.11424 0.86267 0.27426 0.0
O186 O 0.0989 0.85717 0.22271 0.0
O187 O 0.08364 0.87359 0.2425 0.0
O188 O 0.12745 0.90007 0.24764 0.0
O189 O 0.10418 0.8975 0.26365 0.0
O190 O 0.12187 0.8876 0.21395 0.0
O191 O 0.14791 0.89982 0.22409 0.0
H192 H 0.1775 0.89588 0.30577 0.0
H193 H 0.19992 0.8925 0.33106 0.0
H194 H 0.23795 0.87972 0.28655 0.0
H195 H 0.21554 0.88309 0.2613 0.0
H196 H 0.08827 0.86176 0.18757 0.0
H197 H 0.06623 0.86634 0.16209 0.0
H198 H 0.02729 0.87588 0.20663 0.0
H199 H 0.0493 0.87135 0.23205 0.0
Sm200 Sm 0.36698 0.89969 0.50324 0.0
Sm201 Sm 0.37617 0.86149 0.49347 0.0
C202 C 0.35575 0.9298 0.518 0.0
C203 C 0.35957 0.94359 0.53265 0.0
C204 C 0.35975 0.94012 0.5529 0.0
C205 C 0.36173 0.95378 0.56643 0.0
C206 C 0.36354 0.97119 0.56004 0.0
C207 C 0.36386 0.97449 0.53975 0.0
C208 C 0.36183 0.96087 0.52626 0.0
C209 C 0.39857 0.89513 0.48471 0.0
C210 C 0.38392 0.87438 0.53793 0.0
C211 C 0.38953 0.833 0.47698 0.0
C212 C 0.38675 0.82085 0.46047 0.0
C213 C 0.40089 0.81099 0.45351 0.0
C214 C 0.39853 0.79876 0.43848 0.0
C215 C 0.38192 0.7961 0.43009 0.0
C216 C 0.36781 0.80627 0.43692 0.0
C217 C 0.37021 0.81856 0.45194 0.0
C218 C 0.34369 0.86578 0.51015 0.0
C219 C 0.3533 0.88496 0.46131 0.0
O220 O 0.35055 0.9145 0.52432 0.0
O221 O 0.36601 0.92877 0.50271 0.0
O222 O 0.39271 0.88544 0.4982 0.0
O223 O 0.38824 0.90827 0.48161 0.0
O224 O 0.37557 0.88892 0.53329 0.0
O225 O 0.38773 0.86234 0.52468 0.0
O226 O 0.39469 0.84883 0.47265 0.0
O227 O 0.37807 0.83262 0.49119 0.0
O228 O 0.35072 0.87579 0.49786 0.0
O229 O 0.35324 0.85191 0.51268 0.0
O230 O 0.36392 0.87147 0.46414 0.0
O231 O 0.35046 0.89652 0.47537 0.0
H232 H 0.35798 0.92694 0.55832 0.0
H233 H 0.36126 0.95074 0.58192 0.0
H234 H 0.36555 0.98765 0.53424 0.0
H235 H 0.36169 0.96392 0.51075 0.0
H236 H 0.41376 0.81256 0.45992 0.0
H237 H 0.40965 0.79106 0.4338 0.0
H238 H 0.35489 0.80474 0.43063 0.0
H239 H 0.35913 0.82614 0.45701 0.0
Sm240 Sm 0.35046 0.11884 0.75118 0.0
Sm241 Sm 0.38927 0.12641 0.74283 0.0
C242 C 0.31951 0.10908 0.76497 0.0
C243 C 0.30682 0.11222 0.78101 0.0
C244 C 0.31074 0.10819 0.80064 0.0
C245 C 0.29795 0.10987 0.81522 0.0
C246 C 0.28098 0.11566 0.81051 0.0
C247 C 0.27725 0.12007 0.79094 0.0
C248 C 0.28999 0.1183 0.77638 0.0
C249 C 0.35678 0.1498 0.73215 0.0
C250 C 0.3757 0.13446 0.78683 0.0
C251 C 0.41879 0.13846 0.72746 0.0
C252 C 0.43107 0.13577 0.71104 0.0
C253 C 0.43959 0.15029 0.70294 0.0
C254 C 0.45213 0.14814 0.68821 0.0
C255 C 0.45647 0.13137 0.68128 0.0
C256 C 0.44758 0.11684 0.68914 0.0
C257 C 0.43498 0.11902 0.70384 0.0
C258 C 0.3829 0.09414 0.75923 0.0
C259 C 0.36562 0.1048 0.70956 0.0
O260 O 0.33414 0.101 0.76918 0.0
O261 O 0.3215 0.12148 0.75198 0.0
O262 O 0.36581 0.14393 0.74625 0.0
O263 O 0.34352 0.13976 0.72854 0.0
O264 O 0.361 0.12661 0.7817 0.0
O265 O 0.38811 0.138 0.77394 0.0
O266 O 0.40339 0.14488 0.72319 0.0
O267 O 0.41823 0.12642 0.74106 0.0
O268 O 0.3738 0.10166 0.74642 0.0
O269 O 0.39691 0.10321 0.76291 0.0
O270 O 0.3797 0.11443 0.71317 0.0
O271 O 0.35325 0.10279 0.72292 0.0
H272 H 0.32359 0.10348 0.80472 0.0
H273 H 0.30132 0.10655 0.83018 0.0
H274 H 0.26428 0.12436 0.78674 0.0
H275 H 0.28655 0.12134 0.76135 0.0
H276 H 0.43679 0.16333 0.7083 0.0
H277 H 0.45881 0.1596 0.6827 0.0
H278 H 0.45042 0.10376 0.68395 0.0
H279 H 0.42846 0.10762 0.70976 0.0
Sm280 Sm 0.13383 0.10055 1.00173 0.0
Sm281 Sm 0.12483 0.13896 0.99311 0.0
C282 C 0.14428 0.06996 1.01594 0.0
C283 C 0.14078 0.05715 0.03176 0.0
C284 C 0.14324 0.06137 0.05164 0.0
C285 C 0.14127 0.04857 0.06615 0.0
C286 C 0.13672 0.03131 0.06113 0.0
C287 C 0.13383 0.02726 0.04128 0.0
C288 C 0.13592 0.04002 0.02678 0.0
C289 C 0.10261 0.10575 0.98266 0.0
C290 C 0.11706 0.1252 0.03715 0.0
C291 C 0.11164 0.16772 0.97707 0.0
C292 C 0.1145 0.1801 0.96078 0.0
C293 C 0.10003 0.18837 0.9522 0.0
C294 C 0.10234 0.2009 0.93749 0.0
C295 C 0.1192 0.20548 0.93106 0.0
C296 C 0.13368 0.19685 0.93942 0.0
C297 C 0.13135 0.18425 0.9541 0.0
C298 C 0.15717 0.13424 1.00998 0.0
C299 C 0.14789 0.11601 0.9604 0.0
O300 O 0.15144 0.0849 0.02075 0.0
O301 O 0.13253 0.07148 1.00212 0.0
O302 O 0.10819 0.11497 0.99673 0.0
O303 O 0.11315 0.09289 0.97901 0.0
O304 O 0.12547 0.11083 0.03203 0.0
O305 O 0.11316 0.13753 0.02426 0.0
O306 O 0.10639 0.15198 0.97246 0.0
O307 O 0.12302 0.16786 0.99141 0.0
O308 O 0.15024 0.12453 0.99729 0.0
O309 O 0.14757 0.14802 1.01292 0.0
O310 O 0.13762 0.12969 0.96372 0.0
O311 O 0.15028 0.10385 0.97392 0.0
H312 H 0.14695 0.07446 0.056 0.0
H313 H 0.14338 0.05217 0.08132 0.0
H314 H 0.13051 0.01408 0.03688 0.0
H315 H 0.13408 0.03638 1.01157 0.0
H316 H 0.08692 0.18536 0.95714 0.0
H317 H 0.0909 0.20738 0.93157 0.0
H318 H 0.14684 0.19986 0.93464 0.0
H319 H 0.14271 0.17792 0.9604 0.0
Sm320 Sm 0.88856 0.87465 0.74368 0.0
Sm321 Sm 0.84966 0.88227 0.75132 0.0
C322 C 0.91817 0.86254 0.72856 0.0
C323 C 0.93056 0.86535 0.71226 0.0
C324 C 0.93895 0.85087 0.70387 0.0
C325 C 0.95151 0.85312 0.68919 0.0
C326 C 0.95601 0.86995 0.68259 0.0
C327 C 0.94728 0.88445 0.69076 0.0
C328 C 0.93464 0.88217 0.70542 0.0
C329 C 0.88213 0.90689 0.76001 0.0
C330 C 0.86533 0.89644 0.71008 0.0
C331 C 0.81843 0.89183 0.76452 0.0
C332 C 0.80593 0.88907 0.78079 0.0
C333 C 0.81043 0.89249 0.80041 0.0
C334 C 0.79787 0.891 0.81528 0.0
C335 C 0.7806 0.88599 0.81086 0.0
C336 C 0.77628 0.88221 0.79127 0.0
C337 C 0.78879 0.8838 0.77643 0.0
C338 C 0.85635 0.85144 0.73218 0.0
C339 C 0.8744 0.86678 0.78744 0.0
O340 O 0.90279 0.85621 0.72408 0.0
O341 O 0.91754 0.87446 0.74231 0.0
O342 O 0.87307 0.89944 0.7471 0.0
O343 O 0.89607 0.89778 0.76385 0.0
O344 O 0.87944 0.8869 0.71393 0.0
O345 O 0.85272 0.89829 0.72316 0.0
O346 O 0.83282 0.90051 0.76819 0.0
O347 O 0.82078 0.87884 0.75234 0.0
O348 O 0.86503 0.85718 0.74661 0.0
O349 O 0.84325 0.86159 0.7282 0.0
O350 O 0.85987 0.87476 0.78197 0.0
O351 O 0.88698 0.86307 0.77481 0.0
H352 H 0.936 0.83778 0.70895 0.0
H353 H 0.95807 0.84168 0.68343 0.0
H354 H 0.95023 0.89757 0.68584 0.0
H355 H 0.92823 0.89355 0.71155 0.0
H356 H 0.82356 0.89652 0.80427 0.0
H357 H 0.80169 0.8938 0.83024 0.0
H358 H 0.76308 0.87853 0.7873 0.0
H359 H 0.78495 0.88121 0.76141 0.0
Sm360 Sm 0.87726 0.1382 0.49357 0.0
Sm361 Sm 0.86819 0.09985 0.50203 0.0
C362 C 0.89066 0.16695 0.47778 0.0
C363 C 0.88794 0.17918 0.46136 0.0
C364 C 0.90194 0.18952 0.455 0.0
C365 C 0.89963 0.2017 0.43993 0.0
C366 C 0.88321 0.20382 0.43091 0.0
C367 C 0.86923 0.1932 0.43717 0.0
C368 C 0.87159 0.18095 0.45222 0.0
C369 C 0.8449 0.13365 0.51028 0.0
C370 C 0.85421 0.11544 0.46069 0.0
C371 C 0.85774 0.06919 0.51601 0.0
C372 C 0.8611 0.05641 0.5319 0.0
C373 C 0.85775 0.06043 0.55167 0.0
C374 C 0.8596 0.04762 0.56619 0.0
C375 C 0.86489 0.03054 0.56129 0.0
C376 C 0.86866 0.0267 0.54159 0.0
C377 C 0.8667 0.03947 0.52707 0.0
C378 C 0.89942 0.10507 0.48304 0.0
C379 C 0.88478 0.12439 0.53764 0.0
O380 O 0.89598 0.1512 0.47332 0.0
O381 O 0.879 0.16711 0.4918 0.0
O382 O 0.85178 0.12385 0.49764 0.0
O383 O 0.85457 0.14737 0.51328 0.0
O384 O 0.86451 0.12909 0.46409 0.0
O385 O 0.85179 0.10325 0.47416 0.0
O386 O 0.85039 0.08408 0.52066 0.0
O387 O 0.86968 0.0708 0.50243 0.0
O388 O 0.89386 0.11416 0.49721 0.0
O389 O 0.88882 0.09231 0.47921 0.0
O390 O 0.8764 0.11004 0.53242 0.0
O391 O 0.88875 0.13673 0.52481 0.0
H392 H 0.91466 0.18833 0.46188 0.0
H393 H 0.91062 0.20977 0.43569 0.0
H394 H 0.85648 0.19431 0.43038 0.0
H395 H 0.86064 0.17298 0.45683 0.0
H396 H 0.85344 0.07337 0.55591 0.0
H397 H 0.85679 0.05105 0.58126 0.0
H398 H 0.87257 0.01366 0.53727 0.0
H399 H 0.86922 0.03597 0.51194 0.0
Sm400 Sm 0.61242 0.12677 0.24293 0.0
Sm401 Sm 0.65113 0.1188 0.25168 0.0
C402 C 0.58319 0.13915 0.22712 0.0
C403 C 0.57081 0.13622 0.21082 0.0
C404 C 0.56235 0.15063 0.20237 0.0
C405 C 0.54977 0.14826 0.1877 0.0
C406 C 0.54533 0.13138 0.18118 0.0
C407 C 0.55415 0.11696 0.18941 0.0
C408 C 0.56679 0.11935 0.20405 0.0
C409 C 0.61829 0.09439 0.25921 0.0
C410 C 0.63608 0.10483 0.20992 0.0
C411 C 0.68192 0.10873 0.26576 0.0
C412 C 0.69469 0.11193 0.28174 0.0
C413 C 0.69092 0.10775 0.30137 0.0
C414 C 0.7038 0.10944 0.31587 0.0
C415 C 0.72069 0.11537 0.3111 0.0
C416 C 0.72426 0.11992 0.29154 0.0
C417 C 0.71144 0.11815 0.27705 0.0
C418 C 0.64511 0.1499 0.23277 0.0
C419 C 0.62581 0.1347 0.28705 0.0
O420 O 0.59874 0.145 0.22259 0.0
O421 O 0.58347 0.12755 0.24121 0.0
O422 O 0.62767 0.10187 0.24665 0.0
O423 O 0.60429 0.10355 0.26264 0.0
O424 O 0.62203 0.11455 0.2134 0.0
O425 O 0.64838 0.10279 0.22338 0.0
O426 O 0.66715 0.10101 0.27013 0.0
O427 O 0.68013 0.12093 0.25248 0.0
O428 O 0.63601 0.14402 0.24677 0.0
O429 O 0.65836 0.1398 0.22923 0.0
O430 O 0.64046 0.12668 0.28208 0.0
O431 O 0.61353 0.13836 0.27403 0.0
H432 H 0.56524 0.16375 0.20739 0.0
H433 H 0.54315 0.15965 0.18189 0.0
H434 H 0.55124 0.1038 0.18455 0.0
H435 H 0.57326 0.10803 0.21025 0.0
H436 H 0.67814 0.10292 0.3055 0.0
H437 H 0.70055 0.10601 0.33083 0.0
H438 H 0.73717 0.12432 0.28729 0.0
H439 H 0.71477 0.12128 0.26202 0.0
Sm440 Sm 0.62514 0.86185 0.99373 0.0
Sm441 Sm 0.63367 0.90025 1.00323 0.0
C442 C 0.61281 0.83291 0.97724 0.0
C443 C 0.61647 0.82017 0.96133 0.0
C444 C 0.6139 0.82441 0.94146 0.0
C445 C 0.61637 0.81179 0.92681 0.0
C446 C 0.6215 0.79466 0.93167 0.0
C447 C 0.62419 0.79052 0.95153 0.0
C448 C 0.62164 0.80308 0.96615 0.0
C449 C 0.65735 0.86663 1.01083 0.0
C450 C 0.64792 0.88549 0.96151 0.0
C451 C 0.64451 0.93076 0.0173 0.0
C452 C 0.64274 0.94338 0.03353 0.0
C453 C 0.657 0.95412 0.03807 0.0
C454 C 0.65564 0.96687 0.05265 0.0
C455 C 0.63994 0.96919 0.06307 0.0
C456 C 0.62567 0.95822 0.05863 0.0
C457 C 0.62707 0.94539 0.044 0.0
C458 C 0.60276 0.89492 0.98356 0.0
C459 C 0.61681 0.87498 0.03789 0.0
O460 O 0.60764 0.84864 0.97233 0.0
O461 O 0.62333 0.83287 0.99237 0.0
O462 O 0.65033 0.87651 0.99836 0.0
O463 O 0.64792 0.8527 1.01342 0.0
O464 O 0.63792 0.87157 0.96458 0.0
O465 O 0.64996 0.89757 0.97518 0.0
O466 O 0.65234 0.91595 0.02108 0.0
O467 O 0.6313 0.9291 1.00526 0.0
O468 O 0.60825 0.88566 0.99763 0.0
O469 O 0.61322 0.90791 0.9802 0.0
O470 O 0.62533 0.88944 0.03334 0.0
O471 O 0.61299 0.86298 0.0246 0.0
H472 H 0.60982 0.83742 0.9372 0.0
H473 H 0.61434 0.81548 0.91165 0.0
H474 H 0.62789 0.77741 0.95585 0.0
H475 H 0.62348 0.79934 0.98133 0.0
H476 H 0.66918 0.95283 0.03009 0.0
H477 H 0.66681 0.97521 0.05541 0.0
H478 H 0.61345 0.95951 0.0665 0.0
H479 H 0.6159 0.93717 0.04077 0.0
Sm480 Sm 0.88788 0.12661 0.7913 0.0
Sm481 Sm 0.84916 0.11903 0.78393 0.0
C482 C 0.91784 0.13822 0.80606 0.0
C483 C 0.93088 0.13472 0.82166 0.0
C484 C 0.92651 0.13532 0.84168 0.0
C485 C 0.93942 0.13296 0.85606 0.0
C486 C 0.95692 0.12987 0.85073 0.0
C487 C 0.96116 0.1291 0.83068 0.0
C488 C 0.94831 0.13155 0.81636 0.0
C489 C 0.88142 0.09413 0.7755 0.0
C490 C 0.8648 0.10536 0.82537 0.0
C491 C 0.81791 0.10941 0.77081 0.0
C492 C 0.80538 0.11214 0.75453 0.0
C493 C 0.80989 0.1088 0.7349 0.0
C494 C 0.79732 0.11027 0.72003 0.0
C495 C 0.78002 0.11519 0.72445 0.0
C496 C 0.7757 0.11889 0.74405 0.0
C497 C 0.78822 0.11732 0.75889 0.0
C498 C 0.85582 0.15015 0.80254 0.0
C499 C 0.87361 0.13439 0.74762 0.0
O500 O 0.90251 0.14428 0.81126 0.0
O501 O 0.91697 0.12703 0.79159 0.0
O502 O 0.87245 0.10171 0.78837 0.0
O503 O 0.89524 0.10328 0.77136 0.0
O504 O 0.87887 0.11486 0.82132 0.0
O505 O 0.85218 0.10332 0.81232 0.0
O506 O 0.83231 0.10075 0.76713 0.0
O507 O 0.82027 0.1224 0.78297 0.0
O508 O 0.86448 0.14427 0.78818 0.0
O509 O 0.8428 0.13998 0.80674 0.0
O510 O 0.85924 0.12619 0.75313 0.0
O511 O 0.88609 0.13835 0.76028 0.0
H512 H 0.91317 0.13774 0.84626 0.0
H513 H 0.93567 0.13347 0.87136 0.0
H514 H 0.97453 0.12701 0.82602 0.0
H515 H 0.95207 0.1312 0.80105 0.0
H516 H 0.82304 0.10485 0.73104 0.0
H517 H 0.80113 0.10752 0.70505 0.0
H518 H 0.76248 0.1225 0.74802 0.0
H519 H 0.78438 0.11985 0.77392 0.0
Sm520 Sm 0.6257 0.13923 0.5402 0.0
Sm521 Sm 0.63398 0.10074 0.53107 0.0
C522 C 0.61359 0.16839 0.55641 0.0
C523 C 0.61718 0.18108 0.57238 0.0
C524 C 0.61479 0.17672 0.59224 0.0
C525 C 0.61718 0.1893 0.60694 0.0
C526 C 0.62205 0.20651 0.60215 0.0
C527 C 0.62458 0.21078 0.58229 0.0
C528 C 0.6221 0.19825 0.56762 0.0
C529 C 0.65786 0.13413 0.5231 0.0
C530 C 0.6483 0.11565 0.57267 0.0
C531 C 0.64442 0.06996 0.51734 0.0
C532 C 0.64271 0.05744 0.50101 0.0
C533 C 0.65674 0.04624 0.49694 0.0
C534 C 0.65536 0.03355 0.4823 0.0
C535 C 0.63987 0.03174 0.47134 0.0
C536 C 0.62585 0.04317 0.4753 0.0
C537 C 0.62727 0.05594 0.48998 0.0
C538 C 0.60325 0.10641 0.55096 0.0
C539 C 0.61734 0.12591 0.49613 0.0
O540 O 0.60811 0.15276 0.56122 0.0
O541 O 0.62435 0.16825 0.54151 0.0
O542 O 0.65084 0.12438 0.53569 0.0
O543 O 0.64842 0.14803 0.52031 0.0
O544 O 0.63836 0.12959 0.56945 0.0
O545 O 0.65032 0.10346 0.55911 0.0
O546 O 0.65273 0.08456 0.51388 0.0
O547 O 0.63095 0.07196 0.52892 0.0
O548 O 0.60864 0.1155 0.53671 0.0
O549 O 0.61374 0.09344 0.55442 0.0
O550 O 0.6258 0.11144 0.50082 0.0
O551 O 0.61351 0.13798 0.50934 0.0
H552 H 0.61092 0.16363 0.59644 0.0
H553 H 0.61528 0.18553 0.62209 0.0
H554 H 0.62808 0.22395 0.57802 0.0
H555 H 0.62381 0.20207 0.55245 0.0
H556 H 0.66873 0.04713 0.50535 0.0
H557 H 0.66633 0.02485 0.47991 0.0
H558 H 0.61381 0.04228 0.467 0.0
H559 H 0.61629 0.06451 0.49284 0.0
Sm560 Sm 0.61108 0.87507 0.29063 0.0
Sm561 Sm 0.65 0.88243 0.28237 0.0
C562 C 0.58131 0.86375 0.30611 0.0
C563 C 0.56875 0.8673 0.3222 0.0
C564 C 0.57321 0.86468 0.342 0.0
C565 C 0.56073 0.86706 0.3568 0.0
C566 C 0.54353 0.87217 0.35216 0.0
C567 C 0.53919 0.87494 0.33236 0.0
C568 C 0.55162 0.87247 0.31759 0.0
C569 C 0.61761 0.9072 0.2741 0.0
C570 C 0.63484 0.89655 0.32399 0.0
C571 C 0.68113 0.89226 0.26912 0.0
C572 C 0.69328 0.89103 0.25237 0.0
C573 C 0.70429 0.90521 0.24836 0.0
C574 C 0.71682 0.90414 0.2335 0.0
C575 C 0.71865 0.88881 0.22228 0.0
C576 C 0.70736 0.87467 0.22613 0.0
C577 C 0.69476 0.87578 0.24101 0.0
C578 C 0.64334 0.85188 0.30202 0.0
C579 C 0.62478 0.86671 0.24683 0.0
O580 O 0.59667 0.85736 0.31071 0.0
O581 O 0.582 0.87507 0.29175 0.0
O582 O 0.62671 0.89969 0.28692 0.0
O583 O 0.60359 0.89818 0.2704 0.0
O584 O 0.62054 0.8873 0.32019 0.0
O585 O 0.64748 0.89813 0.31089 0.0
O586 O 0.66696 0.90163 0.26681 0.0
O587 O 0.67855 0.87813 0.2795 0.0
O588 O 0.63454 0.8575 0.28763 0.0
O589 O 0.65656 0.86198 0.3057 0.0
O590 O 0.63932 0.87494 0.25183 0.0
O591 O 0.61251 0.86297 0.25981 0.0
H592 H 0.58629 0.86064 0.34609 0.0
H593 H 0.56456 0.86498 0.37191 0.0
H594 H 0.52603 0.87863 0.32821 0.0
H595 H 0.54774 0.87437 0.30246 0.0
H596 H 0.70344 0.91705 0.25702 0.0
H597 H 0.72541 0.91519 0.23118 0.0
H598 H 0.70826 0.86275 0.21762 0.0
H599 H 0.68634 0.86468 0.2438 0.0
Sm600 Sm 0.87651 0.86359 0.04116 0.0
Sm601 Sm 0.8675 0.9019 0.03303 0.0
C602 C 0.88942 0.83455 0.0568 0.0
C603 C 0.88609 0.82142 0.07232 0.0
C604 C 0.88671 0.82573 0.09237 0.0
C605 C 0.88452 0.81277 0.10669 0.0
C606 C 0.88158 0.79526 0.10128 0.0
C607 C 0.88083 0.79106 0.08123 0.0
C608 C 0.88311 0.80396 0.06696 0.0
C609 C 0.84426 0.86821 0.02414 0.0
C610 C 0.85321 0.88607 0.07406 0.0
C611 C 0.85718 0.93268 0.01919 0.0
C612 C 0.86058 0.9456 1.00345 0.0
C613 C 0.85671 0.94199 0.98369 0.0
C614 C 0.85854 0.95498 0.96937 0.0
C615 C 0.86433 0.97185 0.97446 0.0
C616 C 0.86861 0.97528 0.99414 0.0
C617 C 0.86668 0.96233 1.00845 0.0
C618 C 0.8987 0.89651 0.05213 0.0
C619 C 0.88442 0.8777 0.99738 0.0
O620 O 0.89429 0.85026 0.06214 0.0
O621 O 0.87882 0.83462 0.04174 0.0
O622 O 0.851 0.87792 0.03698 0.0
O623 O 0.85401 0.85456 0.02109 0.0
O624 O 0.86342 0.87237 0.07056 0.0
O625 O 0.85099 0.89844 0.06076 0.0
O626 O 0.84983 0.91784 1.01437 0.0
O627 O 0.86907 0.93095 0.03283 0.0
O628 O 0.89321 0.88757 0.03781 0.0
O629 O 0.88805 0.9092 0.0561 0.0
O630 O 0.87578 0.89191 1.00257 0.0
O631 O 0.8885 0.86541 1.01023 0.0
H632 H 0.88902 0.83907 0.09702 0.0
H633 H 0.88502 0.81648 0.122 0.0
H634 H 0.87887 0.77769 0.07652 0.0
H635 H 0.88278 0.80023 0.05164 0.0
H636 H 0.85199 0.92923 0.97931 0.0
H637 H 0.85533 0.95185 0.95432 0.0
H638 H 0.8729 0.98816 0.99861 0.0
H639 H 0.86959 0.96555 0.02357 0.0
Sm640 Sm 0.65037 0.61777 0.78101 0.0
Sm641 Sm 0.61211 0.62643 0.79056 0.0
C642 C 0.68077 0.60734 0.76628 0.0
C643 C 0.69359 0.61092 0.7505 0.0
C644 C 0.68945 0.60834 0.73062 0.0
C645 C 0.7023 0.61027 0.71616 0.0
C646 C 0.71953 0.61488 0.72124 0.0
C647 C 0.7235 0.6179 0.74108 0.0
C648 C 0.71069 0.61586 0.75553 0.0
C649 C 0.64533 0.64903 0.80004 0.0
C650 C 0.62496 0.63443 0.74623 0.0
C651 C 0.58354 0.63952 0.8071 0.0
C652 C 0.57123 0.63654 0.82341 0.0
C653 C 0.56303 0.65094 0.83218 0.0
C654 C 0.5505 0.64853 0.84686 0.0
C655 C 0.54588 0.63162 0.85308 0.0
C656 C 0.55446 0.6172 0.84456 0.0
C657 C 0.56705 0.61964 0.82989 0.0
C658 C 0.61671 0.59411 0.77361 0.0
C659 C 0.63572 0.60354 0.82271 0.0
O660 O 0.66572 0.60043 0.7614 0.0
O661 O 0.67944 0.61886 0.78036 0.0
O662 O 0.63586 0.64331 0.78626 0.0
O663 O 0.65837 0.63864 0.80339 0.0
O664 O 0.63954 0.62615 0.75089 0.0
O665 O 0.6129 0.63817 0.75948 0.0
O666 O 0.59935 0.6446 0.8117 0.0
O667 O 0.58323 0.62834 0.79259 0.0
O668 O 0.62664 0.60113 0.78604 0.0
O669 O 0.60281 0.60362 0.77102 0.0
O670 O 0.62188 0.61368 0.81972 0.0
O671 O 0.64766 0.60132 0.80893 0.0
H672 H 0.67639 0.60454 0.72623 0.0
H673 H 0.69875 0.60806 0.70099 0.0
H674 H 0.73667 0.62127 0.74553 0.0
H675 H 0.71429 0.61777 0.77074 0.0
H676 H 0.56607 0.66409 0.82738 0.0
H677 H 0.54405 0.65992 0.85291 0.0
H678 H 0.5514 0.60401 0.84918 0.0
H679 H 0.57334 0.60832 0.82345 0.0
Sm680 Sm 0.63435 0.40127 0.03166 0.0
Sm681 Sm 0.62526 0.3629 0.04105 0.0
C682 C 0.6458 0.43152 0.01758 0.0
C683 C 0.64375 0.44415 1.00143 0.0
C684 C 0.65782 0.45511 0.99682 0.0
C685 C 0.65625 0.46765 0.98205 0.0
C686 C 0.64053 0.46953 0.97153 0.0
C687 C 0.62643 0.45842 0.97612 0.0
C688 C 0.62804 0.44578 0.99092 0.0
C689 C 0.60312 0.39636 0.05075 0.0
C690 C 0.6175 0.37613 0.99674 0.0
C691 C 0.61179 0.33438 0.0572 0.0
C692 C 0.6145 0.32202 0.07351 0.0
C693 C 0.60003 0.31324 0.08135 0.0
C694 C 0.60224 0.30076 0.09612 0.0
C695 C 0.61901 0.29678 0.10335 0.0
C696 C 0.63347 0.30591 0.09572 0.0
C697 C 0.63123 0.31846 0.08096 0.0
C698 C 0.65772 0.36742 0.02443 0.0
C699 C 0.64802 0.38624 0.07358 0.0
O700 O 0.65301 0.41648 1.01336 0.0
O701 O 0.63296 0.43021 0.03013 0.0
O702 O 0.60875 0.38693 0.0369 0.0
O703 O 0.61359 0.40934 0.05413 0.0
O704 O 0.62597 0.39059 1.00145 0.0
O705 O 0.61359 0.36409 1.00995 0.0
O706 O 0.60677 0.3502 0.0618 0.0
O707 O 0.62317 0.33404 0.0429 0.0
O708 O 0.65061 0.37731 0.03681 0.0
O709 O 0.64823 0.35353 0.02171 0.0
O710 O 0.63783 0.37248 0.07038 0.0
O711 O 0.6504 0.39828 0.05992 0.0
H712 H 0.67002 0.45409 1.00482 0.0
H713 H 0.66728 0.47613 0.97913 0.0
H714 H 0.61421 0.45938 0.96817 0.0
H715 H 0.61704 0.43738 0.99422 0.0
H716 H 0.58701 0.31581 0.07579 0.0
H717 H 0.59084 0.29386 0.10147 0.0
H718 H 0.64654 0.30334 0.10113 0.0
H719 H 0.64257 0.32522 0.07522 0.0
Sm720 Sm 0.8499 0.38187 0.28371 0.0
Sm721 Sm 0.88871 0.37436 0.29084 0.0
C722 C 0.81863 0.39154 0.27065 0.0
C723 C 0.80601 0.38879 0.25445 0.0
C724 C 0.81033 0.39233 0.23482 0.0
C725 C 0.79766 0.3909 0.22005 0.0
C726 C 0.78044 0.38581 0.22457 0.0
C727 C 0.7763 0.38189 0.24416 0.0
C728 C 0.78892 0.38343 0.25891 0.0
C729 C 0.8566 0.35078 0.3023 0.0
C730 C 0.87426 0.36646 0.24729 0.0
C731 C 0.91886 0.36303 0.30543 0.0
C732 C 0.93164 0.36647 0.32131 0.0
C733 C 0.92696 0.36566 0.34123 0.0
C734 C 0.93961 0.36806 0.35589 0.0
C735 C 0.95715 0.37142 0.35095 0.0
C736 C 0.96171 0.37238 0.33101 0.0
C737 C 0.94912 0.36988 0.31639 0.0
C738 C 0.88193 0.40674 0.27488 0.0
C739 C 0.86572 0.39551 0.32505 0.0
O740 O 0.83304 0.40013 0.26686 0.0
O741 O 0.82098 0.37861 0.28289 0.0
O742 O 0.86532 0.35666 0.28798 0.0
O743 O 0.84352 0.3609 0.30644 0.0
O744 O 0.85986 0.37458 0.25288 0.0
O745 O 0.88684 0.36259 0.25986 0.0
O746 O 0.90365 0.35647 0.31026 0.0
O747 O 0.91781 0.37458 0.29134 0.0
O748 O 0.87319 0.39921 0.28797 0.0
O749 O 0.8957 0.39757 0.27054 0.0
O750 O 0.87977 0.38601 0.32091 0.0
O751 O 0.85302 0.39757 0.3121 0.0
H752 H 0.82342 0.39644 0.23088 0.0
H753 H 0.80134 0.39381 0.20507 0.0
H754 H 0.76314 0.37815 0.24822 0.0
H755 H 0.78522 0.38075 0.27394 0.0
H756 H 0.91358 0.36307 0.34552 0.0
H757 H 0.93562 0.36741 0.3711 0.0
H758 H 0.97512 0.37471 0.32666 0.0
H759 H 0.95311 0.37041 0.30117 0.0
Sm760 Sm 0.86787 0.60047 0.53089 0.0
Sm761 Sm 0.87682 0.63873 0.54027 0.0
C762 C 0.85698 0.57011 0.51652 0.0
C763 C 0.8609 0.55635 0.50188 0.0
C764 C 0.86041 0.55968 0.48161 0.0
C765 C 0.8625 0.546 0.46814 0.0
C766 C 0.8651 0.52872 0.47462 0.0
C767 C 0.8661 0.52558 0.49492 0.0
C768 C 0.86396 0.53921 0.50835 0.0
C769 C 0.89928 0.60538 0.54977 0.0
C770 C 0.88473 0.62555 0.49599 0.0
C771 C 0.89027 0.66724 0.55654 0.0
C772 C 0.88763 0.6795 0.57296 0.0
C773 C 0.9022 0.68771 0.58134 0.0
C774 C 0.90009 0.70018 0.59615 0.0
C775 C 0.88331 0.70473 0.60287 0.0
C776 C 0.86872 0.69613 0.59473 0.0
C777 C 0.87086 0.6836 0.57994 0.0
C778 C 0.84444 0.63426 0.52332 0.0
C779 C 0.85367 0.61559 0.57244 0.0
O780 O 0.85139 0.58528 0.5102 0.0
O781 O 0.86742 0.5714 0.53163 0.0
O782 O 0.89349 0.61482 0.53602 0.0
O783 O 0.88891 0.59233 0.55309 0.0
O784 O 0.87647 0.61099 0.50073 0.0
O785 O 0.88844 0.6377 0.50915 0.0
O786 O 0.89543 0.65142 0.56096 0.0
O787 O 0.87878 0.66759 0.54231 0.0
O788 O 0.85142 0.62435 0.53578 0.0
O789 O 0.854 0.64812 0.52072 0.0
O790 O 0.86419 0.62914 0.56957 0.0
O791 O 0.85113 0.60382 0.55852 0.0
H792 H 0.85803 0.57275 0.47614 0.0
H793 H 0.86149 0.54891 0.45265 0.0
H794 H 0.86841 0.51253 0.50047 0.0
H795 H 0.86435 0.53627 0.52388 0.0
H796 H 0.91525 0.68473 0.57615 0.0
H797 H 0.91159 0.70665 0.60191 0.0
H798 H 0.85563 0.69915 0.59974 0.0
H799 H 0.85942 0.67729 0.57379 0.0
Sm800 Sm 0.64996 0.38344 0.75288 0.0
Sm801 Sm 0.61171 0.37458 0.74356 0.0
C802 C 0.68038 0.39401 0.76747 0.0
C803 C 0.69326 0.3905 0.78325 0.0
C804 C 0.68957 0.3943 0.80299 0.0
C805 C 0.70251 0.39243 0.81738 0.0
C806 C 0.71941 0.38668 0.81237 0.0
C807 C 0.72293 0.38246 0.79271 0.0
C808 C 0.71003 0.38443 0.77832 0.0
C809 C 0.64501 0.35212 0.73395 0.0
C810 C 0.62484 0.36671 0.78783 0.0
C811 C 0.58304 0.36148 0.72723 0.0
C812 C 0.57067 0.36449 0.71096 0.0
C813 C 0.56218 0.35014 0.70243 0.0
C814 C 0.54963 0.35261 0.68776 0.0
C815 C 0.54526 0.36953 0.68132 0.0
C816 C 0.55411 0.38389 0.68962 0.0
C817 C 0.56673 0.38139 0.70426 0.0
C818 C 0.61627 0.40699 0.76035 0.0
C819 C 0.6351 0.39731 0.71114 0.0
O820 O 0.66533 0.40092 0.77234 0.0
O821 O 0.67903 0.38245 0.75343 0.0
O822 O 0.63557 0.3578 0.74777 0.0
O823 O 0.65797 0.36259 0.73052 0.0
O824 O 0.63932 0.37509 0.78308 0.0
O825 O 0.61275 0.36286 0.77464 0.0
O826 O 0.59882 0.35635 0.72258 0.0
O827 O 0.58282 0.3727 0.74171 0.0
O828 O 0.62614 0.39998 0.74787 0.0
O829 O 0.60244 0.39743 0.76308 0.0
O830 O 0.6214 0.38705 0.71424 0.0
O831 O 0.64703 0.3998 0.7249 0.0
H832 H 0.67679 0.39902 0.80732 0.0
H833 H 0.69931 0.39559 0.83243 0.0
H834 H 0.73584 0.3782 0.7883 0.0
H835 H 0.71331 0.38158 0.76321 0.0
H836 H 0.56503 0.33699 0.7074 0.0
H837 H 0.54297 0.34127 0.68189 0.0
H838 H 0.55125 0.39707 0.68482 0.0
H839 H 0.57324 0.39266 0.71053 0.0
Sm840 Sm 0.86859 0.40209 1.00156 0.0
Sm841 Sm 0.87699 0.36352 0.99367 0.0
C842 C 0.85832 0.43322 1.01445 0.0
C843 C 0.85959 0.44555 0.031 0.0
C844 C 0.8455 0.45676 0.03473 0.0
C845 C 0.84656 0.46934 0.04954 0.0
C846 C 0.86179 0.47101 0.06097 0.0
C847 C 0.87585 0.45954 0.05738 0.0
C848 C 0.87474 0.44688 0.04256 0.0
C849 C 0.89927 0.3961 0.98177 0.0
C850 C 0.88492 0.37774 0.0374 0.0
C851 C 0.88929 0.3341 0.97828 0.0
C852 C 0.88598 0.32146 0.96221 0.0
C853 C 0.88867 0.32588 0.94242 0.0
C854 C 0.88638 0.31337 0.92763 0.0
C855 C 0.8813 0.29619 0.93228 0.0
C856 C 0.87851 0.29186 0.95207 0.0
C857 C 0.88089 0.30432 0.96683 0.0
C858 C 0.84485 0.3689 1.01073 0.0
C859 C 0.85432 0.38627 0.96044 0.0
O860 O 0.84931 0.41891 0.01719 0.0
O861 O 0.87235 0.43076 1.00385 0.0
O862 O 0.89398 0.38735 0.99633 0.0
O863 O 0.88863 0.40882 0.9778 0.0
O864 O 0.87635 0.39198 0.03215 0.0
O865 O 0.889 0.36541 0.02459 0.0
O866 O 0.89515 0.34963 0.97361 0.0
O867 O 0.87803 0.33448 0.9927 0.0
O868 O 0.85175 0.37829 0.99772 0.0
O869 O 0.85446 0.35521 1.01409 0.0
O870 O 0.86409 0.3723 0.96417 0.0
O871 O 0.85247 0.39888 0.97352 0.0
H872 H 0.83373 0.45599 0.02592 0.0
H873 H 0.83558 0.47807 0.05167 0.0
H874 H 0.88768 0.46032 0.06606 0.0
H875 H 0.88576 0.43828 0.03998 0.0
H876 H 0.89267 0.33896 0.93833 0.0
H877 H 0.88847 0.31718 0.91252 0.0
H878 H 0.87484 0.2787 0.95621 0.0
H879 H 0.87895 0.30046 0.98196 0.0
Sm880 Sm 0.85051 0.61864 0.25138 0.0
Sm881 Sm 0.88928 0.62638 0.2429 0.0
C882 C 0.81966 0.60864 0.26522 0.0
C883 C 0.80704 0.61167 0.28134 0.0
C884 C 0.81143 0.60859 0.30106 0.0
C885 C 0.79877 0.61023 0.31579 0.0
C886 C 0.78149 0.61507 0.31113 0.0
C887 C 0.77728 0.61853 0.29145 0.0
C888 C 0.78989 0.61679 0.27674 0.0
C889 C 0.85667 0.64974 0.23262 0.0
C890 C 0.87583 0.63427 0.28695 0.0
C891 C 0.91873 0.63854 0.22746 0.0
C892 C 0.93078 0.63583 0.21086 0.0
C893 C 0.94087 0.6499 0.20419 0.0
C894 C 0.953 0.6476 0.18908 0.0
C895 C 0.95533 0.63111 0.18032 0.0
C896 C 0.94493 0.61706 0.18683 0.0
C897 C 0.93273 0.61941 0.20193 0.0
C898 C 0.88303 0.59398 0.25904 0.0
C899 C 0.86554 0.60504 0.20952 0.0
O900 O 0.83435 0.60064 0.26934 0.0
O901 O 0.82153 0.62111 0.2523 0.0
O902 O 0.86578 0.64379 0.2466 0.0
O903 O 0.84339 0.63972 0.22901 0.0
O904 O 0.86115 0.62635 0.28188 0.0
O905 O 0.88817 0.63788 0.27401 0.0
O906 O 0.90331 0.64501 0.2234 0.0
O907 O 0.91824 0.62637 0.24092 0.0
O908 O 0.87387 0.60157 0.24634 0.0
O909 O 0.89703 0.60306 0.26275 0.0
O910 O 0.87962 0.61465 0.21317 0.0
O911 O 0.85322 0.60288 0.22291 0.0
H912 H 0.82455 0.60467 0.3051 0.0
H913 H 0.8025 0.60767 0.33083 0.0
H914 H 0.76408 0.62207 0.2873 0.0
H915 H 0.78613 0.6191 0.26164 0.0
H916 H 0.93955 0.66267 0.21091 0.0
H917 H 0.96089 0.65865 0.18463 0.0
H918 H 0.94621 0.60425 0.18024 0.0
H919 H 0.92496 0.60839 0.20675 0.0
Sm920 Sm 0.63398 0.60019 0.50265 0.0
Sm921 Sm 0.62483 0.63837 0.49311 0.0
C922 C 0.64506 0.56996 0.51719 0.0
C923 C 0.64132 0.55636 0.53204 0.0
C924 C 0.64082 0.56015 0.5522 0.0
C925 C 0.63885 0.54669 0.56596 0.0
C926 C 0.63734 0.52916 0.55985 0.0
C927 C 0.63733 0.52554 0.53963 0.0
C928 C 0.63935 0.53897 0.52592 0.0
C929 C 0.60261 0.60488 0.4836 0.0
C930 C 0.61682 0.62527 0.5374 0.0
C931 C 0.61122 0.66679 0.4768 0.0
C932 C 0.61378 0.67916 0.4605 0.0
C933 C 0.59915 0.68742 0.45228 0.0
C934 C 0.60118 0.69999 0.43757 0.0
C935 C 0.61792 0.70459 0.43079 0.0
C936 C 0.63257 0.69595 0.43877 0.0
C937 C 0.63051 0.68332 0.45346 0.0
C938 C 0.65719 0.63413 0.51019 0.0
C939 C 0.64819 0.61525 0.46107 0.0
O940 O 0.65069 0.58519 0.52327 0.0
O941 O 0.63443 0.57111 0.50222 0.0
O942 O 0.60829 0.6144 0.49735 0.0
O943 O 0.61306 0.59186 0.4804 0.0
O944 O 0.62523 0.61076 0.53275 0.0
O945 O 0.61306 0.63733 0.52417 0.0
O946 O 0.6063 0.65093 0.47223 0.0
O947 O 0.62261 0.66722 0.49112 0.0
O948 O 0.65031 0.62415 0.49773 0.0
O949 O 0.64753 0.64794 0.51272 0.0
O950 O 0.63764 0.62879 0.4639 0.0
O951 O 0.65072 0.60349 0.475 0.0
H952 H 0.64232 0.57345 0.55739 0.0
H953 H 0.63907 0.54997 0.58139 0.0
H954 H 0.63587 0.51228 0.53434 0.0
H955 H 0.63971 0.53569 0.51047 0.0
H956 H 0.58613 0.68439 0.45752 0.0
H957 H 0.58964 0.70649 0.43195 0.0
H958 H 0.64563 0.699 0.43371 0.0
H959 H 0.64198 0.67698 0.4595 0.0
Sm960 Sm 0.38957 0.37483 0.2428 0.0
Sm961 Sm 0.351 0.38311 0.25108 0.0
C962 C 0.4186 0.36207 0.22693 0.0
C963 C 0.43105 0.36502 0.21072 0.0
C964 C 0.4397 0.35064 0.20245 0.0
C965 C 0.4523 0.35304 0.18784 0.0
C966 C 0.45657 0.36991 0.18119 0.0
C967 C 0.44757 0.3843 0.18925 0.0
C968 C 0.4349 0.38187 0.20384 0.0
C969 C 0.38438 0.40687 0.26008 0.0
C970 C 0.36656 0.39792 0.21013 0.0
C971 C 0.31997 0.3927 0.26488 0.0
C972 C 0.30732 0.38933 0.28091 0.0
C973 C 0.31132 0.3931 0.30058 0.0
C974 C 0.29859 0.39123 0.31519 0.0
C975 C 0.28161 0.38549 0.31047 0.0
C976 C 0.2778 0.38131 0.29085 0.0
C977 C 0.29049 0.38329 0.27625 0.0
C978 C 0.35699 0.35231 0.23147 0.0
C979 C 0.37568 0.3666 0.28663 0.0
O980 O 0.40295 0.35659 0.22223 0.0
O981 O 0.41851 0.37349 0.24121 0.0
O982 O 0.37474 0.40002 0.24723 0.0
O983 O 0.39822 0.39735 0.26302 0.0
O984 O 0.38049 0.388 0.21355 0.0
O985 O 0.35413 0.39978 0.22343 0.0
O986 O 0.33456 0.40075 0.26921 0.0
O987 O 0.32203 0.38043 0.25174 0.0
O988 O 0.36581 0.35778 0.24591 0.0
O989 O 0.34415 0.36281 0.22758 0.0
O990 O 0.36124 0.37487 0.28145 0.0
O991 O 0.38812 0.36292 0.27382 0.0
H992 H 0.43693 0.33753 0.20757 0.0
H993 H 0.45907 0.34168 0.18218 0.0
H994 H 0.45034 0.39745 0.18429 0.0
H995 H 0.42828 0.39317 0.2099 0.0
H996 H 0.32418 0.39776 0.30469 0.0
H997 H 0.30202 0.39436 0.33019 0.0
H998 H 0.26483 0.37705 0.28666 0.0
H999 H 0.287 0.38044 0.26119 0.0
Sm1000 Sm 0.37684 0.63835 0.99316 0.0
Sm1001 Sm 0.36739 0.59992 1.00117 0.0
C1002 C 0.3905 0.66712 0.97771 0.0
C1003 C 0.38782 0.67951 0.96145 0.0
C1004 C 0.40173 0.6902 0.95556 0.0
C1005 C 0.39948 0.70241 0.94051 0.0
C1006 C 0.38323 0.70421 0.93104 0.0
C1007 C 0.36934 0.69328 0.93686 0.0
C1008 C 0.37164 0.681 0.95189 0.0
C1009 C 0.34437 0.63382 1.00961 0.0
C1010 C 0.35384 0.61594 0.95983 0.0
C1011 C 0.35635 0.56918 1.01437 0.0
C1012 C 0.35826 0.55671 0.03069 0.0
C1013 C 0.34455 0.54509 0.0346 0.0
C1014 C 0.34611 0.53265 0.04949 0.0
C1015 C 0.36145 0.53153 0.06081 0.0
C1016 C 0.37517 0.54331 0.05693 0.0
C1017 C 0.37357 0.55584 0.04203 0.0
C1018 C 0.39861 0.60515 0.98214 0.0
C1019 C 0.38399 0.62409 0.0371 0.0
O1020 O 0.39561 0.65135 0.97299 0.0
O1021 O 0.37891 0.66726 0.9918 0.0
O1022 O 0.35129 0.62412 0.9969 0.0
O1023 O 0.35407 0.64748 1.01285 0.0
O1024 O 0.36403 0.62961 0.96353 0.0
O1025 O 0.35145 0.60352 0.97303 0.0
O1026 O 0.34836 0.58392 0.01812 0.0
O1027 O 0.36969 0.57104 1.00259 0.0
O1028 O 0.39315 0.61409 0.99649 0.0
O1029 O 0.38788 0.59254 0.9781 0.0
O1030 O 0.37507 0.61009 0.03175 0.0
O1031 O 0.38856 0.63622 0.02427 0.0
H1032 H 0.41432 0.68923 0.96276 0.0
H1033 H 0.41039 0.71073 0.93661 0.0
H1034 H 0.35672 0.69415 0.92972 0.0
H1035 H 0.36077 0.67275 0.95614 0.0
H1036 H 0.33267 0.54552 0.02596 0.0
H1037 H 0.33538 0.52366 0.05186 0.0
H1038 H 0.38708 0.54293 0.06552 0.0
H1039 H 0.38428 0.56476 0.03929 0.0
Sm1040 Sm 0.11222 0.62612 0.74251 0.0
Sm1041 Sm 0.15069 0.61747 0.75097 0.0
C1042 C 0.08328 0.63943 0.72693 0.0
C1043 C 0.07062 0.6373 0.71078 0.0
C1044 C 0.06022 0.65159 0.7054 0.0
C1045 C 0.0474 0.64985 0.69091 0.0
C1046 C 0.04466 0.63373 0.68146 0.0
C1047 C 0.05546 0.6195 0.68655 0.0
C1048 C 0.06833 0.62126 0.70111 0.0
C1049 C 0.11714 0.59386 0.75933 0.0
C1050 C 0.13518 0.60328 0.70965 0.0
C1051 C 0.18142 0.60733 0.76518 0.0
C1052 C 0.19425 0.6109 0.78103 0.0
C1053 C 0.1907 0.60671 0.80071 0.0
C1054 C 0.20362 0.60868 0.81511 0.0
C1055 C 0.22037 0.61492 0.8102 0.0
C1056 C 0.22373 0.61952 0.79061 0.0
C1057 C 0.21085 0.61745 0.7762 0.0
C1058 C 0.14513 0.64871 0.73208 0.0
C1059 C 0.126 0.6339 0.78655 0.0
O1060 O 0.09898 0.64479 0.72232 0.0
O1061 O 0.08327 0.62755 0.74071 0.0
O1062 O 0.12686 0.60079 0.74664 0.0
O1063 O 0.10334 0.60342 0.76234 0.0
O1064 O 0.12136 0.61333 0.71309 0.0
O1065 O 0.14751 0.60111 0.72304 0.0
O1066 O 0.16657 0.59998 0.76992 0.0
O1067 O 0.17974 0.61909 0.75139 0.0
O1068 O 0.13608 0.64301 0.7462 0.0
O1069 O 0.15804 0.63828 0.72827 0.0
O1070 O 0.14044 0.62565 0.78135 0.0
O1071 O 0.11359 0.63768 0.77372 0.0
H1072 H 0.06187 0.66411 0.7126 0.0
H1073 H 0.03959 0.66117 0.68715 0.0
H1074 H 0.05366 0.60687 0.67968 0.0
H1075 H 0.07627 0.61007 0.70502 0.0
H1076 H 0.17805 0.60162 0.80496 0.0
H1077 H 0.20053 0.60522 0.8301 0.0
H1078 H 0.23652 0.62415 0.78625 0.0
H1079 H 0.21404 0.6206 0.76114 0.0
Sm1080 Sm 0.12502 0.36226 0.4931 0.0
Sm1081 Sm 0.13429 0.40062 0.50128 0.0
C1082 C 0.11153 0.33347 0.47744 0.0
C1083 C 0.11445 0.32098 0.4613 0.0
C1084 C 0.10046 0.31072 0.45471 0.0
C1085 C 0.10292 0.29833 0.43987 0.0
C1086 C 0.11949 0.29592 0.43132 0.0
C1087 C 0.13346 0.30644 0.43782 0.0
C1088 C 0.13095 0.31889 0.45264 0.0
C1089 C 0.1575 0.36677 0.50962 0.0
C1090 C 0.148 0.38483 0.45994 0.0
C1091 C 0.14512 0.43145 0.51451 0.0
C1092 C 0.1435 0.44388 0.53093 0.0
C1093 C 0.12853 0.44452 0.5428 0.0
C1094 C 0.12711 0.45715 0.55764 0.0
C1095 C 0.14067 0.46927 0.56091 0.0
C1096 C 0.15572 0.46833 0.54909 0.0
C1097 C 0.15709 0.45578 0.53429 0.0
C1098 C 0.10313 0.39535 0.48207 0.0
C1099 C 0.11794 0.37633 0.53712 0.0
O1100 O 0.10653 0.34924 0.47255 0.0
O1101 O 0.12286 0.33336 0.49182 0.0
O1102 O 0.15056 0.37652 0.49696 0.0
O1103 O 0.14779 0.35311 0.51279 0.0
O1104 O 0.13794 0.37106 0.46358 0.0
O1105 O 0.15023 0.39726 0.47315 0.0
O1106 O 0.15345 0.41683 0.51788 0.0
O1107 O 0.1315 0.42944 0.50316 0.0
O1108 O 0.10853 0.38642 0.49645 0.0
O1109 O 0.1139 0.40792 0.47804 0.0
O1110 O 0.12686 0.39032 0.53183 0.0
O1111 O 0.11329 0.36426 0.52422 0.0
H1112 H 0.08762 0.31213 0.46122 0.0
H1113 H 0.09192 0.29035 0.43544 0.0
H1114 H 0.14633 0.3051 0.43139 0.0
H1115 H 0.14191 0.32679 0.45743 0.0
H1116 H 0.11791 0.43539 0.5405 0.0
H1117 H 0.11543 0.45738 0.56661 0.0
H1118 H 0.1663 0.47757 0.55097 0.0
H1119 H 0.16872 0.45554 0.52522 0.0
Sm1120 Sm 0.38947 0.62654 0.29082 0.0
Sm1121 Sm 0.35114 0.61748 0.28228 0.0
C1122 C 0.41823 0.63989 0.30675 0.0
C1123 C 0.43086 0.63685 0.32278 0.0
C1124 C 0.43958 0.65116 0.33108 0.0
C1125 C 0.45224 0.64866 0.34565 0.0
C1126 C 0.45649 0.63174 0.35222 0.0
C1127 C 0.44744 0.61741 0.34408 0.0
C1128 C 0.43472 0.61995 0.32954 0.0
C1129 C 0.38491 0.59387 0.27487 0.0
C1130 C 0.36631 0.60425 0.3241 0.0
C1131 C 0.32019 0.60713 0.2688 0.0
C1132 C 0.308 0.6085 0.25207 0.0
C1133 C 0.2968 0.59446 0.24808 0.0
C1134 C 0.28426 0.59568 0.23322 0.0
C1135 C 0.28261 0.61101 0.22197 0.0
C1136 C 0.2941 0.625 0.22581 0.0
C1137 C 0.30671 0.62375 0.2407 0.0
C1138 C 0.3565 0.64895 0.30086 0.0
C1139 C 0.3762 0.63253 0.24643 0.0
O1140 O 0.40245 0.64474 0.31177 0.0
O1141 O 0.41837 0.62886 0.29209 0.0
O1142 O 0.37505 0.60103 0.28726 0.0
O1143 O 0.39868 0.60343 0.27175 0.0
O1144 O 0.38025 0.61405 0.32037 0.0
O1145 O 0.3539 0.60201 0.31085 0.0
O1146 O 0.33458 0.5982 0.26622 0.0
O1147 O 0.32246 0.62108 0.27955 0.0
O1148 O 0.36554 0.64322 0.28673 0.0
O1149 O 0.34384 0.63833 0.30499 0.0
O1150 O 0.36221 0.62357 0.25168 0.0
O1151 O 0.38779 0.63792 0.25952 0.0
H1152 H 0.4368 0.6643 0.32607 0.0
H1153 H 0.45904 0.65997 0.35137 0.0
H1154 H 0.45019 0.60423 0.34897 0.0
H1155 H 0.42804 0.60871 0.32344 0.0
H1156 H 0.29751 0.58262 0.25675 0.0
H1157 H 0.27552 0.58473 0.23091 0.0
H1158 H 0.29335 0.63692 0.21729 0.0
H1159 H 0.31527 0.63474 0.24348 0.0
Sm1160 Sm 0.12523 0.63862 0.04037 0.0
Sm1161 Sm 0.13361 0.60023 0.03223 0.0
C1162 C 0.11294 0.6679 0.05611 0.0
C1163 C 0.11645 0.68071 0.07196 0.0
C1164 C 0.11454 0.67632 0.09188 0.0
C1165 C 0.11692 0.68898 0.10649 0.0
C1166 C 0.12133 0.70628 0.10153 0.0
C1167 C 0.12336 0.71057 0.08162 0.0
C1168 C 0.12088 0.69796 0.06704 0.0
C1169 C 0.15737 0.63353 0.02331 0.0
C1170 C 0.14821 0.61578 0.07328 0.0
C1171 C 0.14347 0.56932 0.01832 0.0
C1172 C 0.13993 0.55653 1.00247 0.0
C1173 C 0.14352 0.56033 0.98271 0.0
C1174 C 0.14158 0.54744 0.96828 0.0
C1175 C 0.13595 0.5305 0.97326 0.0
C1176 C 0.13194 0.52689 0.99296 0.0
C1177 C 0.13398 0.53973 1.00738 0.0
C1178 C 0.10254 0.60601 0.05141 0.0
C1179 C 0.11696 0.62466 0.99659 0.0
O1180 O 0.10748 0.6523 0.06108 0.0
O1181 O 0.12378 0.66765 0.04129 0.0
O1182 O 0.15055 0.62393 0.03618 0.0
O1183 O 0.14774 0.64725 0.02017 0.0
O1184 O 0.1382 0.62963 0.06979 0.0
O1185 O 0.15021 0.60338 0.05998 0.0
O1186 O 0.1511 0.58405 1.01364 0.0
O1187 O 0.13153 0.57121 0.03186 0.0
O1188 O 0.1081 0.61491 0.0371 0.0
O1189 O 0.11304 0.59318 0.05532 0.0
O1190 O 0.12538 0.61032 1.0018 0.0
O1191 O 0.11316 0.63705 1.00942 0.0
H1192 H 0.11107 0.66316 0.0962 0.0
H1193 H 0.11543 0.6852 0.12169 0.0
H1194 H 0.1265 0.72381 0.07725 0.0
H1195 H 0.12221 0.70178 0.05182 0.0
H1196 H 0.14811 0.57315 0.97841 0.0
H1197 H 0.14459 0.55071 0.95321 0.0
H1198 H 0.12778 0.51395 0.99735 0.0
H1199 H 0.13128 0.53639 0.02251 0.0
Sm1200 Sm 0.11257 0.37433 0.79068 0.0
Sm1201 Sm 0.15086 0.38355 0.7823 0.0
C1202 C 0.0838 0.3606 0.80608 0.0
C1203 C 0.07101 0.3628 0.82205 0.0
C1204 C 0.06089 0.34841 0.82773 0.0
C1205 C 0.04799 0.35019 0.84209 0.0
C1206 C 0.04489 0.36644 0.85111 0.0
C1207 C 0.05541 0.38078 0.84571 0.0
C1208 C 0.06836 0.37898 0.83129 0.0
C1209 C 0.11702 0.40687 0.77435 0.0
C1210 C 0.13536 0.39715 0.82378 0.0
C1211 C 0.18175 0.39368 0.76858 0.0
C1212 C 0.19438 0.39057 0.75247 0.0
C1213 C 0.19039 0.39471 0.73289 0.0
C1214 C 0.20309 0.39294 0.71822 0.0
C1215 C 0.22002 0.38695 0.72279 0.0
C1216 C 0.22382 0.38245 0.74231 0.0
C1217 C 0.21118 0.38431 0.75697 0.0
C1218 C 0.14562 0.35213 0.801 0.0
C1219 C 0.12612 0.36787 0.74643 0.0
O1220 O 0.09958 0.35564 0.81099 0.0
O1221 O 0.08366 0.37225 0.79205 0.0
O1222 O 0.12685 0.39991 0.78692 0.0
O1223 O 0.10333 0.39719 0.77123 0.0
O1224 O 0.12172 0.38685 0.8203 0.0
O1225 O 0.14752 0.3997 0.81032 0.0
O1226 O 0.16704 0.4016 0.7644 0.0
O1227 O 0.17986 0.38128 0.78157 0.0
O1228 O 0.1366 0.35777 0.78681 0.0
O1229 O 0.15827 0.36279 0.80507 0.0
O1230 O 0.14017 0.37673 0.75171 0.0
O1231 O 0.11434 0.36283 0.75944 0.0
H1232 H 0.06283 0.33579 0.82086 0.0
H1233 H 0.04041 0.3388 0.84611 0.0
H1234 H 0.05332 0.39352 0.85224 0.0
H1235 H 0.07609 0.39024 0.82715 0.0
H1236 H 0.17757 0.39955 0.7289 0.0
H1237 H 0.19966 0.39632 0.70329 0.0
H1238 H 0.23676 0.378 0.7464 0.0
H1239 H 0.21466 0.38118 0.77196 0.0
Sm1240 Sm 0.37693 0.36297 0.54052 0.0
Sm1241 Sm 0.36742 0.40131 0.53174 0.0
C1242 C 0.39064 0.33449 0.55662 0.0
C1243 C 0.3879 0.32197 0.57277 0.0
C1244 C 0.40241 0.31358 0.58109 0.0
C1245 C 0.4002 0.30098 0.59573 0.0
C1246 C 0.38339 0.29645 0.60236 0.0
C1247 C 0.36886 0.30519 0.59425 0.0
C1248 C 0.37109 0.31786 0.57962 0.0
C1249 C 0.34458 0.36713 0.52359 0.0
C1250 C 0.35352 0.38568 0.57315 0.0
C1251 C 0.35597 0.43174 0.51805 0.0
C1252 C 0.35789 0.44445 0.50197 0.0
C1253 C 0.34419 0.45615 0.49831 0.0
C1254 C 0.34573 0.46886 0.48372 0.0
C1255 C 0.36105 0.47016 0.47241 0.0
C1256 C 0.37476 0.45828 0.47602 0.0
C1257 C 0.37318 0.44548 0.49065 0.0
C1258 C 0.39857 0.39638 0.55111 0.0
C1259 C 0.38462 0.37685 0.49647 0.0
O1260 O 0.39539 0.35034 0.56144 0.0
O1261 O 0.37946 0.33412 0.54209 0.0
O1262 O 0.35135 0.37708 0.53618 0.0
O1263 O 0.35437 0.35345 0.5208 0.0
O1264 O 0.36373 0.37195 0.5698 0.0
O1265 O 0.35127 0.39795 0.55974 0.0
O1266 O 0.3486 0.41678 0.51386 0.0
O1267 O 0.369 0.43024 0.53036 0.0
O1268 O 0.39316 0.38723 0.53692 0.0
O1269 O 0.38786 0.40911 0.55478 0.0
O1270 O 0.37592 0.39109 0.50148 0.0
O1271 O 0.38869 0.36464 0.50943 0.0
H1272 H 0.41549 0.31657 0.576 0.0
H1273 H 0.41167 0.29441 0.60144 0.0
H1274 H 0.35574 0.30221 0.59919 0.0
H1275 H 0.3597 0.32429 0.57352 0.0
H1276 H 0.33232 0.4556 0.50695 0.0
H1277 H 0.33501 0.47792 0.4816 0.0
H1278 H 0.38666 0.45879 0.46745 0.0
H1279 H 0.38389 0.4365 0.49321 0.0
C1280 C 0.24691 0.12927 0.20755 0.0
C1281 C 0.2345 0.1157 0.2077 0.0
C1282 C 0.26018 0.12967 0.19342 0.0
C1283 C 0.27246 0.11119 0.14482 0.0
H1284 H 0.3192 0.1259 0.15946 0.0
C1285 C 0.3309 0.10066 0.09333 0.0
C1286 C 0.34237 0.11481 0.09055 0.0
C1287 C 0.31847 0.10094 0.10832 0.0
C1288 C 0.30618 0.1219 0.15511 0.0
H1289 H 0.2265 0.0918 0.19319 0.0
H1290 H 0.24966 0.09237 0.16875 0.0
H1291 H 0.29585 0.12625 0.18387 0.0
H1292 H 0.35018 0.14008 0.10203 0.0
H1293 H 0.32847 0.14048 0.12836 0.0
H1294 H 0.28283 0.10664 0.11615 0.0
C1295 C 0.24896 0.10295 0.17926 0.0
C1296 C 0.29276 0.12214 0.16909 0.0
C1297 C 0.23565 0.1026 0.19331 0.0
C1298 C 0.34159 0.12893 0.10374 0.0
C1299 C 0.32915 0.12917 0.11885 0.0
C1300 C 0.28588 0.11085 0.13092 0.0
C1301 C 0.26144 0.11647 0.17911 0.0
C1302 C 0.27572 0.11669 0.16416 0.0
C1303 C 0.31718 0.11534 0.12101 0.0
C1304 C 0.30294 0.11608 0.1359 0.0
H1305 H 0.24628 0.13967 0.21829 0.0
H1306 H 0.26934 0.14045 0.1936 0.0
H1307 H 0.25947 0.10727 0.14031 0.0
H1308 H 0.33115 0.08949 0.08357 0.0
H1309 H 0.3097 0.08991 0.10981 0.0
C1310 C 0.12173 0.09039 0.3538 0.0
C1311 C 0.13652 0.09219 0.34171 0.0
C1312 C 0.12161 0.07816 0.36912 0.0
C1313 C 0.1508 0.0505 0.39986 0.0
H1314 H 0.10981 0.02117 0.40571 0.0
C1315 C 0.15288 0.98693 0.445 0.0
C1316 C 0.13854 0.98301 0.45712 0.0
C1317 C 0.15204 0.00065 0.4315 0.0
C1318 C 0.12129 0.02938 0.40445 0.0
H1319 H 0.16297 0.08293 0.33677 0.0
H1320 H 0.16273 0.06177 0.36329 0.0
H1321 H 0.10954 0.04507 0.38199 0.0
H1322 H 0.11193 0.99043 0.46425 0.0
H1323 H 0.11044 0.01437 0.44061 0.0
H1324 H 0.16261 0.03477 0.42216 0.0
C1325 C 0.15124 0.06981 0.36107 0.0
C1326 C 0.12112 0.04311 0.39086 0.0
C1327 C 0.15135 0.08194 0.34576 0.0
C1328 C 0.12317 0.99294 0.45502 0.0
C1329 C 0.12232 0.0067 0.44148 0.0
C1330 C 0.15096 0.03679 0.41343 0.0
C1331 C 0.1363 0.06755 0.37278 0.0
C1332 C 0.13596 0.05373 0.38823 0.0
C1333 C 0.13683 0.01087 0.4297 0.0
C1334 C 0.13629 0.0259 0.41575 0.0
H1335 H 0.11006 0.09804 0.3511 0.0
H1336 H 0.10995 0.07692 0.378 0.0
H1337 H 0.16235 0.05859 0.3985 0.0
H1338 H 0.16482 0.97935 0.44593 0.0
H1339 H 0.16334 0.0032 0.42237 0.0
C1340 C 0.26571 0.8973 0.69392 0.0
C1341 C 0.2674 0.88375 0.7077 0.0
C1342 C 0.25234 0.89699 0.67992 0.0
C1343 C 0.20915 0.87676 0.66914 0.0
H1344 H 0.2183 0.89422 0.61682 0.0
C1345 C 0.16013 0.87068 0.60381 0.0
C1346 C 0.15891 0.88517 0.59117 0.0
C1347 C 0.17265 0.87032 0.61885 0.0
C1348 C 0.21546 0.88946 0.63142 0.0
H1349 H 0.25652 0.85903 0.71724 0.0
H1350 H 0.23334 0.85833 0.69264 0.0
H1351 H 0.24181 0.89353 0.64083 0.0
H1352 H 0.16939 0.91099 0.58516 0.0
H1353 H 0.19096 0.91036 0.6113 0.0
H1354 H 0.18277 0.87255 0.6595 0.0
C1355 C 0.24214 0.86941 0.69291 0.0
C1356 C 0.22896 0.88908 0.64523 0.0
C1357 C 0.25547 0.86978 0.70699 0.0
C1358 C 0.17 0.89954 0.59447 0.0
C1359 C 0.18249 0.89915 0.6094 0.0
C1360 C 0.19563 0.87706 0.65525 0.0
C1361 C 0.24033 0.88306 0.67922 0.0
C1362 C 0.22599 0.88288 0.66435 0.0
C1363 C 0.18425 0.8844 0.62151 0.0
C1364 C 0.19859 0.88358 0.63628 0.0
H1365 H 0.27447 0.90841 0.69425 0.0
H1366 H 0.25121 0.90789 0.66989 0.0
H1367 H 0.20628 0.87209 0.68376 0.0
H1368 H 0.15184 0.85936 0.60167 0.0
H1369 H 0.17368 0.85874 0.6279 0.0
C1370 C 0.37972 0.90965 0.8539 0.0
C1371 C 0.36489 0.90728 0.84198 0.0
C1372 C 0.37979 0.92239 0.8687 0.0
C1373 C 0.35777 0.96388 0.88154 0.0
H1374 H 0.37944 0.95763 0.93243 0.0
C1375 C 0.34849 0.01376 0.94397 0.0
C1376 C 0.36277 0.01752 0.95626 0.0
C1377 C 0.34945 1.00032 0.93014 0.0
C1378 C 0.37353 0.95967 0.91819 0.0
H1379 H 0.33817 0.91578 0.8371 0.0
H1380 H 0.33822 0.93764 0.86294 0.0
H1381 H 0.37949 0.93355 0.90886 0.0
H1382 H 0.38936 0.01007 0.96346 0.0
H1383 H 0.39116 0.98675 0.93903 0.0
H1384 H 0.35181 0.98993 0.89073 0.0
C1385 C 0.34996 0.93 0.86059 0.0
C1386 C 0.37353 0.94584 0.90469 0.0
C1387 C 0.34988 0.91732 0.84585 0.0
C1388 C 0.37816 0.00763 0.95413 0.0
C1389 C 0.37912 0.99411 0.94029 0.0
C1390 C 0.35778 0.97766 0.89498 0.0
C1391 C 0.36504 0.93302 0.87188 0.0
C1392 C 0.36548 0.94772 0.88626 0.0
C1393 C 0.36474 0.99024 0.92815 0.0
C1394 C 0.3655 0.97571 0.91356 0.0
H1395 H 0.39153 0.90219 0.85131 0.0
H1396 H 0.39165 0.92439 0.87709 0.0
H1397 H 0.35183 0.96596 0.86732 0.0
H1398 H 0.3365 0.02123 0.94503 0.0
H1399 H 0.33805 0.99762 0.92122 0.0
C1400 C 0.33031 0.89953 0.44087 0.0
C1401 C 0.3422 0.88569 0.44344 0.0
C1402 C 0.3184 0.89944 0.42534 0.0
C1403 C 0.29614 0.86929 0.39104 0.0
H1404 H 0.28201 0.91241 0.36573 0.0
C1405 C 0.24741 0.8717 0.32562 0.0
C1406 C 0.23474 0.88503 0.32602 0.0
C1407 C 0.26102 0.8714 0.33936 0.0
C1408 C 0.2857 0.90027 0.37277 0.0
H1409 H 0.35122 0.86113 0.43117 0.0
H1410 H 0.3306 0.86114 0.40379 0.0
H1411 H 0.30556 0.91282 0.38978 0.0
H1412 H 0.22649 0.90849 0.34124 0.0
H1413 H 0.25011 0.9079 0.36528 0.0
H1414 H 0.27623 0.85677 0.37393 0.0
C1415 C 0.33031 0.87194 0.41405 0.0
C1416 C 0.29923 0.90049 0.38657 0.0
C1417 C 0.34226 0.87201 0.42965 0.0
C1418 C 0.23592 0.89795 0.34062 0.0
C1419 C 0.24958 0.89772 0.35426 0.0
C1420 C 0.28266 0.86905 0.37714 0.0
C1421 C 0.31805 0.88554 0.41185 0.0
C1422 C 0.3045 0.88505 0.39609 0.0
C1423 C 0.26237 0.88452 0.35373 0.0
C1424 C 0.27713 0.88458 0.36801 0.0
H1425 H 0.32983 0.91027 0.45119 0.0
H1426 H 0.30905 0.91003 0.42433 0.0
H1427 H 0.29965 0.85718 0.39825 0.0
H1428 H 0.24681 0.86147 0.31466 0.0
H1429 H 0.2707 0.8611 0.33848 0.0
C1430 C 0.35575 0.00178 0.57055 0.0
C1431 C 0.36447 0.98594 0.57437 0.0
C1432 C 0.35628 0.01555 0.58403 0.0
C1433 C 0.38079 0.03246 0.62713 0.0
H1434 H 0.33841 0.05914 0.63594 0.0
C1435 C 0.37939 0.09256 0.67893 0.0
C1436 C 0.36497 0.09372 0.69166 0.0
C1437 C 0.37945 0.0805 0.66346 0.0
C1438 C 0.35035 0.05179 0.63374 0.0
H1439 H 0.38079 0.97236 0.59545 0.0
H1440 H 0.38138 0.99622 0.61918 0.0
H1441 H 0.33842 0.03556 0.612 0.0
H1442 H 0.33909 0.0834 0.69762 0.0
H1443 H 0.33925 0.06245 0.67088 0.0
H1444 H 0.39255 0.04838 0.64935 0.0
C1445 C 0.3743 0.99808 0.60558 0.0
C1446 C 0.35042 0.03836 0.61981 0.0
C1447 C 0.37379 0.98429 0.59206 0.0
C1448 C 0.35042 0.08294 0.68812 0.0
C1449 C 0.35047 0.07093 0.67267 0.0
C1450 C 0.38072 0.04591 0.64107 0.0
C1451 C 0.36549 0.01387 0.60178 0.0
C1452 C 0.3656 0.02844 0.61638 0.0
C1453 C 0.36508 0.06934 0.6603 0.0
C1454 C 0.36546 0.05568 0.64467 0.0
H1455 H 0.34823 0.00349 0.55723 0.0
H1456 H 0.3495 0.02756 0.58047 0.0
H1457 H 0.39278 0.02525 0.62473 0.0
H1458 H 0.39084 0.10063 0.68122 0.0
H1459 H 0.39083 0.07982 0.65405 0.0
C1460 C 0.15972 0.12979 0.92956 0.0
C1461 C 0.15907 0.11555 0.94259 0.0
C1462 C 0.17177 0.12999 0.91407 0.0
C1463 C 0.20167 0.10128 0.88522 0.0
H1464 H 0.22674 0.14437 0.8752 0.0
C1465 C 0.26508 0.10285 0.83941 0.0
C1466 C 0.267 0.11645 0.82572 0.0
C1467 C 0.25141 0.10308 0.85303 0.0
C1468 C 0.21974 0.13228 0.87766 0.0
H1469 H 0.17029 0.09014 0.94907 0.0
H1470 H 0.19122 0.09058 0.92239 0.0
H1471 H 0.20322 0.14399 0.89934 0.0
H1472 H 0.25624 0.1412 0.81601 0.0
H1473 H 0.23235 0.14157 0.83976 0.0
H1474 H 0.21838 0.08951 0.86378 0.0
C1475 C 0.18235 0.10153 0.92392 0.0
C1476 C 0.20619 0.13206 0.89147 0.0
C1477 C 0.17035 0.10132 0.93935 0.0
C1478 C 0.25506 0.13044 0.82624 0.0
C1479 C 0.24145 0.13073 0.83995 0.0
C1480 C 0.21524 0.10148 0.8715 0.0
C1481 C 0.18342 0.11596 0.91121 0.0
C1482 C 0.19707 0.11651 0.89558 0.0
C1483 C 0.23935 0.11696 0.85341 0.0
C1484 C 0.22457 0.11694 0.86765 0.0
H1485 H 0.15124 0.14098 0.9316 0.0
H1486 H 0.17203 0.14122 0.90441 0.0
H1487 H 0.19475 0.08913 0.8877 0.0
H1488 H 0.27392 0.09179 0.83932 0.0
H1489 H 0.25032 0.09237 0.86334 0.0
C1490 C 0.122 0.9098 0.17978 0.0
C1491 C 0.13611 0.90914 0.19302 0.0
C1492 C 0.12167 0.92227 0.16469 0.0
C1493 C 0.13947 0.96577 0.15298 0.0
H1494 H 0.12508 0.95583 0.09966 0.0
C1495 C 0.14848 0.01627 0.09112 0.0
C1496 C 0.13568 0.01741 0.07639 0.0
C1497 C 0.14795 0.00288 0.10506 0.0
C1498 C 0.1289 0.9589 0.11455 0.0
H1499 H 0.16132 0.92059 0.20008 0.0
H1500 H 0.16072 0.94209 0.17391 0.0
H1501 H 0.1253 0.93238 0.124 0.0
H1502 H 0.11207 0.00547 0.06502 0.0
H1503 H 0.11095 0.98226 0.08953 0.0
H1504 H 0.14289 0.99225 0.14379 0.0
C1505 C 0.14978 0.9332 0.17535 0.0
C1506 C 0.12906 0.94543 0.12848 0.0
C1507 C 0.15016 0.92075 0.1903 0.0
C1508 C 0.12224 0.00487 0.07605 0.0
C1509 C 0.12164 0.99151 0.09008 0.0
C1510 C 0.1392 0.97923 0.13914 0.0
C1511 C 0.13539 0.93439 0.16262 0.0
C1512 C 0.13455 0.94867 0.14781 0.0
C1513 C 0.13453 0.99029 0.10476 0.0
C1514 C 0.1341 0.97598 0.11966 0.0
H1515 H 0.11095 0.90109 0.18143 0.0
H1516 H 0.11038 0.92286 0.15513 0.0
H1517 H 0.14341 0.96881 0.16785 0.0
H1518 H 0.1592 0.02551 0.09162 0.0
H1519 H 0.15831 0.00221 0.11586 0.0
C1520 C 0.76581 0.89853 0.84064 0.0
C1521 C 0.76695 0.88528 0.82643 0.0
C1522 C 0.75255 0.89831 0.85476 0.0
C1523 C 0.70881 0.87918 0.86525 0.0
H1524 H 0.71882 0.89489 0.91808 0.0
C1525 C 0.66007 0.87223 0.93053 0.0
C1526 C 0.65932 0.88623 0.94389 0.0
C1527 C 0.6725 0.87211 0.91542 0.0
C1528 C 0.71574 0.89064 0.90334 0.0
H1529 H 0.75521 0.86113 0.81627 0.0
H1530 H 0.73224 0.86058 0.84105 0.0
H1531 H 0.74212 0.89427 0.89385 0.0
H1532 H 0.67057 0.91146 0.95116 0.0
H1533 H 0.69199 0.91128 0.92487 0.0
H1534 H 0.6824 0.8754 0.87494 0.0
C1535 C 0.74137 0.87139 0.84103 0.0
C1536 C 0.72913 0.89029 0.8894 0.0
C1537 C 0.75459 0.87167 0.82685 0.0
C1538 C 0.6708 0.90039 0.94127 0.0
C1539 C 0.68322 0.90024 0.92625 0.0
C1540 C 0.69541 0.87945 0.87925 0.0
C1541 C 0.74011 0.88476 0.85514 0.0
C1542 C 0.72585 0.88468 0.87011 0.0
C1543 C 0.68448 0.88595 0.91338 0.0
C1544 C 0.69868 0.88532 0.89843 0.0
H1545 H 0.77493 0.90936 0.84056 0.0
H1546 H 0.75186 0.90899 0.86514 0.0
H1547 H 0.70571 0.87499 0.85049 0.0
H1548 H 0.65147 0.86108 0.93211 0.0
H1549 H 0.67315 0.86088 0.90579 0.0
C1550 C 0.85247 0.01495 0.59054 0.0
C1551 C 0.8658 0.01659 0.5765 0.0
C1552 C 0.85289 0.00149 0.6044 0.0
C1553 C 0.873 0.95809 0.61451 0.0
H1554 H 0.85615 0.96713 0.66711 0.0
C1555 C 0.87941 0.90897 0.67975 0.0
C1556 C 0.86491 0.90775 0.69237 0.0
C1557 C 0.87974 0.92148 0.6647 0.0
C1558 C 0.86075 0.96433 0.65243 0.0
H1559 H 0.89023 0.00551 0.56628 0.0
H1560 H 0.89115 0.98218 0.59067 0.0
H1561 H 0.85678 0.99074 0.64327 0.0
H1562 H 0.83905 0.91818 0.69835 0.0
H1563 H 0.83965 0.93975 0.67224 0.0
H1564 H 0.87715 0.93164 0.62394 0.0
C1565 C 0.88014 0.99108 0.59072 0.0
C1566 C 0.86109 0.97789 0.63871 0.0
C1567 C 0.87966 0.0045 0.57677 0.0
C1568 C 0.8505 0.91879 0.68904 0.0
C1569 C 0.85088 0.93128 0.67413 0.0
C1570 C 0.87277 0.94452 0.62832 0.0
C1571 C 0.86673 0.98934 0.6047 0.0
C1572 C 0.86704 0.97494 0.61949 0.0
C1573 C 0.86564 0.93306 0.66206 0.0
C1574 C 0.86645 0.94745 0.64738 0.0
H1575 H 0.84144 0.02384 0.59054 0.0
H1576 H 0.84214 1.00041 0.61464 0.0
H1577 H 0.87748 0.95524 0.59981 0.0
H1578 H 0.89076 0.90072 0.6819 0.0
H1579 H 0.89132 0.92253 0.65566 0.0
C1580 C 0.74661 0.1302 0.32678 0.0
C1581 C 0.73477 0.11614 0.32623 0.0
C1582 C 0.7603 0.13049 0.34043 0.0
C1583 C 0.78687 0.10121 0.37163 0.0
H1584 H 0.7987 0.14359 0.39982 0.0
C1585 C 0.83184 0.1008 0.43947 0.0
C1586 C 0.84305 0.11506 0.44285 0.0
C1587 C 0.81984 0.10107 0.42402 0.0
C1588 C 0.79578 0.1317 0.39185 0.0
H1589 H 0.7281 0.09136 0.33967 0.0
H1590 H 0.75182 0.09194 0.36357 0.0
H1591 H 0.77509 0.14401 0.37573 0.0
H1592 H 0.85073 0.14061 0.43211 0.0
H1593 H 0.82992 0.14094 0.40489 0.0
H1594 H 0.8075 0.08887 0.38768 0.0
C1595 C 0.7506 0.1027 0.35335 0.0
C1596 C 0.78219 0.13194 0.37807 0.0
C1597 C 0.73686 0.10247 0.3398 0.0
C1598 C 0.84232 0.12939 0.42995 0.0
C1599 C 0.83026 0.12965 0.41444 0.0
C1600 C 0.80049 0.10099 0.38532 0.0
C1601 C 0.76257 0.11665 0.35377 0.0
C1602 C 0.77743 0.11664 0.36795 0.0
C1603 C 0.81869 0.11558 0.41144 0.0
C1604 C 0.80501 0.11617 0.39581 0.0
H1605 H 0.7453 0.14102 0.31665 0.0
H1606 H 0.76933 0.14139 0.34028 0.0
H1607 H 0.78379 0.08927 0.36382 0.0
H1608 H 0.83198 0.08955 0.44909 0.0
H1609 H 0.81103 0.09009 0.42239 0.0
C1610 C 0.65265 0.98688 0.09073 0.0
C1611 C 0.63852 0.98326 0.07815 0.0
C1612 C 0.65186 0.00078 0.10402 0.0
C1613 C 0.62134 0.03059 0.12971 0.0
H1614 H 0.66294 0.05894 0.13632 0.0
C1615 C 0.62209 0.09194 0.17975 0.0
C1616 C 0.63671 0.09362 0.19214 0.0
C1617 C 0.62203 0.07963 0.16452 0.0
C1618 C 0.65124 0.0511 0.13478 0.0
H1619 H 0.61235 0.99139 0.06999 0.0
H1620 H 0.61095 0.01561 0.09328 0.0
H1621 H 0.66311 0.03482 0.11302 0.0
H1622 H 0.66296 0.08404 0.19769 0.0
H1623 H 0.66282 0.0627 0.17134 0.0
H1624 H 0.60954 0.04678 0.15167 0.0
C1625 C 0.62261 0.00759 0.09292 0.0
C1626 C 0.65134 0.03722 0.12142 0.0
C1627 C 0.6234 0.99366 0.07959 0.0
C1628 C 0.65147 0.08316 0.18845 0.0
C1629 C 0.65142 0.07093 0.17323 0.0
C1630 C 0.62124 0.04448 0.14311 0.0
C1631 C 0.63693 0.01146 0.10514 0.0
C1632 C 0.63647 0.02665 0.11886 0.0
C1633 C 0.63661 0.06878 0.16125 0.0
C1634 C 0.63626 0.05479 0.14598 0.0
H1635 H 0.66437 0.97894 0.09034 0.0
H1636 H 0.66298 0.0031 0.1135 0.0
H1637 H 0.6097 0.02264 0.12826 0.0
H1638 H 0.61047 0.09974 0.18217 0.0
H1639 H 0.61048 0.0785 0.15541 0.0
C1640 C 0.76519 0.10261 0.69467 0.0
C1641 C 0.76634 0.11588 0.70888 0.0
C1642 C 0.75178 0.10273 0.6807 0.0
C1643 C 0.7195 0.13148 0.65636 0.0
H1644 H 0.69602 0.08787 0.64438 0.0
C1645 C 0.6598 0.12878 0.60402 0.0
C1646 C 0.65951 0.11493 0.59047 0.0
C1647 C 0.67184 0.12884 0.61954 0.0
C1648 C 0.70253 0.10015 0.64739 0.0
H1649 H 0.75451 0.13995 0.71915 0.0
H1650 H 0.73108 0.14012 0.6948 0.0
H1651 H 0.71942 0.08831 0.66864 0.0
H1652 H 0.67139 0.09002 0.58305 0.0
H1653 H 0.69233 0.09023 0.60978 0.0
H1654 H 0.7028 0.14328 0.6349 0.0
C1655 C 0.74057 0.12962 0.69446 0.0
C1656 C 0.71597 0.10039 0.66131 0.0
C1657 C 0.75392 0.12944 0.70853 0.0
C1658 C 0.67116 0.1009 0.59319 0.0
C1659 C 0.68317 0.10098 0.60864 0.0
C1660 C 0.70609 0.13123 0.64235 0.0
C1661 C 0.73923 0.11617 0.68049 0.0
C1662 C 0.72471 0.11603 0.66589 0.0
C1663 C 0.68386 0.11505 0.62189 0.0
C1664 C 0.6975 0.11553 0.63758 0.0
H1665 H 0.77444 0.09188 0.69462 0.0
H1666 H 0.75128 0.09228 0.67 0.0
H1667 H 0.72607 0.14372 0.65937 0.0
H1668 H 0.65102 0.13979 0.60241 0.0
H1669 H 0.6718 0.13977 0.62962 0.0
C1670 C 0.623 0.0078 0.45427 0.0
C1671 C 0.6384 0.01772 0.45621 0.0
C1672 C 0.62209 0.99393 0.44088 0.0
C1673 C 0.65056 0.96349 0.41307 0.0
H1674 H 0.60907 0.95521 0.38177 0.0
C1675 C 0.65051 0.91773 0.34585 0.0
C1676 C 0.63553 0.90768 0.34184 0.0
C1677 C 0.65057 0.92992 0.36111 0.0
C1678 C 0.62066 0.95716 0.39062 0.0
H1679 H 0.66464 0.02122 0.44486 0.0
H1680 H 0.66305 0.99716 0.42158 0.0
H1681 H 0.60948 0.9793 0.40524 0.0
H1682 H 0.60902 0.90223 0.35131 0.0
H1683 H 0.60921 0.92341 0.37812 0.0
H1684 H 0.66181 0.94148 0.39838 0.0
C1685 C 0.65179 0.99982 0.43072 0.0
C1686 C 0.62091 0.97101 0.40406 0.0
C1687 C 0.65269 0.01366 0.44407 0.0
C1688 C 0.6208 0.90972 0.35396 0.0
C1689 C 0.62084 0.92199 0.36923 0.0
C1690 C 0.65031 0.94966 0.39967 0.0
C1691 C 0.63657 0.98962 0.4291 0.0
C1692 C 0.63595 0.97448 0.4153 0.0
C1693 C 0.63565 0.93244 0.37281 0.0
C1694 C 0.63543 0.94641 0.38809 0.0
H1695 H 0.6118 0.01042 0.46352 0.0
H1696 H 0.6102 0.98628 0.44015 0.0
H1697 H 0.66223 0.96552 0.42178 0.0
H1698 H 0.6621 0.91657 0.33683 0.0
H1699 H 0.66215 0.93783 0.36326 0.0
C1700 C 0.83159 0.90112 0.09587 0.0
C1701 C 0.84194 0.88637 0.09181 0.0
C1702 C 0.81945 0.90092 0.11117 0.0
C1703 C 0.79289 0.87064 0.14087 0.0
H1704 H 0.78433 0.91201 0.17224 0.0
C1705 C 0.7426 0.87225 0.20487 0.0
C1706 C 0.7326 0.88757 0.20704 0.0
C1707 C 0.75639 0.87153 0.19136 0.0
C1708 C 0.78641 0.90039 0.16348 0.0
H1709 H 0.84796 0.85995 0.10117 0.0
H1710 H 0.82681 0.85966 0.12805 0.0
H1711 H 0.80819 0.91189 0.14863 0.0
H1712 H 0.72887 0.91389 0.19602 0.0
H1713 H 0.75277 0.91262 0.17252 0.0
H1714 H 0.77097 0.85921 0.15563 0.0
C1715 C 0.82798 0.87133 0.11919 0.0
C1716 C 0.80014 0.90031 0.14995 0.0
C1717 C 0.84022 0.87156 0.10388 0.0
C1718 C 0.73649 0.90199 0.19504 0.0
C1719 C 0.75025 0.90127 0.18156 0.0
C1720 C 0.77913 0.87072 0.15442 0.0
C1721 C 0.81728 0.88595 0.12286 0.0
C1722 C 0.80345 0.88552 0.13829 0.0
C1723 C 0.76052 0.88611 0.17969 0.0
C1724 C 0.77557 0.88568 0.16575 0.0
H1725 H 0.83251 0.91276 0.08691 0.0
H1726 H 0.81134 0.91235 0.1134 0.0
H1727 H 0.7949 0.85909 0.13197 0.0
H1728 H 0.74012 0.86096 0.21402 0.0
H1729 H 0.76411 0.85969 0.19046 0.0
C1730 C 0.87878 0.09366 0.85618 0.0
C1731 C 0.86437 0.09446 0.84339 0.0
C1732 C 0.87903 0.0817 0.87177 0.0
C1733 C 0.8503 0.05222 0.90115 0.0
H1734 H 0.8932 0.0265 0.91041 0.0
C1735 C 0.85158 0.98824 0.94588 0.0
C1736 C 0.86519 0.98605 0.95953 0.0
C1737 C 0.85187 0.00209 0.9325 0.0
C1738 C 0.88116 0.03369 0.90816 0.0
H1739 H 0.83866 0.08366 0.83748 0.0
H1740 H 0.83918 0.06289 0.86429 0.0
H1741 H 0.89282 0.05016 0.88642 0.0
H1742 H 0.89001 0.9965 0.96943 0.0
H1743 H 0.89051 0.0207 0.94605 0.0
H1744 H 0.83856 0.03551 0.9226 0.0
C1745 C 0.85024 0.07157 0.86252 0.0
C1746 C 0.88095 0.04732 0.89444 0.0
C1747 C 0.84999 0.08348 0.84701 0.0
C1748 C 0.87925 0.99789 0.95922 0.0
C1749 C 0.8796 0.01168 0.94572 0.0
C1750 C 0.85049 0.03855 0.91476 0.0
C1751 C 0.86486 0.07031 0.87495 0.0
C1752 C 0.86546 0.05665 0.89059 0.0
C1753 C 0.86583 0.01405 0.93232 0.0
C1754 C 0.86587 0.029 0.9183 0.0
H1755 H 0.89009 0.10191 0.85385 0.0
H1756 H 0.89041 0.08129 0.88121 0.0
H1757 H 0.83821 0.05931 0.89889 0.0
H1758 H 0.84046 0.97947 0.94582 0.0
H1759 H 0.84115 0.0034 0.92222 0.0
C1760 C 0.74607 0.62925 0.70638 0.0
C1761 C 0.7335 0.61584 0.70604 0.0
C1762 C 0.75949 0.62976 0.69243 0.0
C1763 C 0.7719 0.61208 0.64353 0.0
H1764 H 0.81878 0.62567 0.65894 0.0
C1765 C 0.83047 0.60108 0.59251 0.0
C1766 C 0.8422 0.61504 0.59001 0.0
C1767 C 0.81797 0.60142 0.60741 0.0
C1768 C 0.80573 0.62199 0.65439 0.0
H1769 H 0.72541 0.59228 0.69091 0.0
H1770 H 0.7488 0.59303 0.66679 0.0
H1771 H 0.79524 0.62602 0.68315 0.0
H1772 H 0.85043 0.64003 0.60189 0.0
H1773 H 0.82858 0.64055 0.62808 0.0
H1774 H 0.78241 0.60785 0.61487 0.0
C1775 C 0.74812 0.60342 0.67753 0.0
C1776 C 0.7922 0.62223 0.66824 0.0
C1777 C 0.73467 0.60298 0.69139 0.0
C1778 C 0.84163 0.62903 0.6034 0.0
C1779 C 0.8291 0.62933 0.61842 0.0
C1780 C 0.78541 0.61174 0.62976 0.0
C1781 C 0.76073 0.61681 0.67783 0.0
C1782 C 0.77511 0.61715 0.66302 0.0
C1783 C 0.81686 0.61571 0.62029 0.0
C1784 C 0.80252 0.61655 0.63503 0.0
H1785 H 0.74544 0.63947 0.71735 0.0
H1786 H 0.76878 0.64042 0.69297 0.0
H1787 H 0.75888 0.60847 0.63881 0.0
H1788 H 0.83057 0.59001 0.58261 0.0
H1789 H 0.80898 0.59054 0.60869 0.0
C1790 C 0.62194 0.5903 0.85279 0.0
C1791 C 0.63646 0.59212 0.8403 0.0
C1792 C 0.62192 0.57766 0.86768 0.0
C1793 C 0.64304 0.53563 0.88024 0.0
H1794 H 0.62332 0.54318 0.93186 0.0
C1795 C 0.65297 0.48637 0.94314 0.0
C1796 C 0.63897 0.48316 0.956 0.0
C1797 C 0.65194 0.49965 0.92912 0.0
C1798 C 0.62867 0.54078 0.91742 0.0
H1799 H 0.6627 0.58269 0.83446 0.0
H1800 H 0.66275 0.56099 0.86046 0.0
H1801 H 0.62319 0.56695 0.90792 0.0
H1802 H 0.61282 0.49142 0.96402 0.0
H1803 H 0.6109 0.51446 0.93928 0.0
H1804 H 0.64853 0.50953 0.88962 0.0
C1805 C 0.6512 0.569 0.85849 0.0
C1806 C 0.62863 0.55443 0.90371 0.0
C1807 C 0.65122 0.58158 0.84365 0.0
C1808 C 0.62379 0.49344 0.95426 0.0
C1809 C 0.62277 0.50679 0.94023 0.0
C1810 C 0.64307 0.52202 0.8939 0.0
C1811 C 0.63641 0.56658 0.8704 0.0
C1812 C 0.63599 0.55207 0.885 0.0
C1813 C 0.63687 0.5101 0.92753 0.0
C1814 C 0.63605 0.52445 0.91274 0.0
H1815 H 0.61031 0.59815 0.8506 0.0
H1816 H 0.61028 0.57612 0.87655 0.0
H1817 H 0.64843 0.53319 0.86582 0.0
H1818 H 0.66478 0.47859 0.9439 0.0
H1819 H 0.66312 0.50191 0.91975 0.0
C1820 C 0.65958 0.37285 0.10477 0.0
C1821 C 0.65919 0.38685 0.09141 0.0
C1822 C 0.67165 0.37266 0.12025 0.0
C1823 C 0.70229 0.40118 0.14841 0.0
H1824 H 0.72615 0.35759 0.15963 0.0
C1825 C 0.7653 0.39857 0.19509 0.0
C1826 C 0.76664 0.38518 0.20913 0.0
C1827 C 0.75178 0.39851 0.18125 0.0
C1828 C 0.71949 0.36984 0.15682 0.0
H1829 H 0.67092 0.41189 0.08434 0.0
H1830 H 0.69191 0.41148 0.11102 0.0
H1831 H 0.70273 0.35819 0.13532 0.0
H1832 H 0.75504 0.36095 0.2192 0.0
H1833 H 0.73142 0.36087 0.19507 0.0
H1834 H 0.71924 0.41287 0.16969 0.0
C1835 C 0.68281 0.4007 0.10975 0.0
C1836 C 0.706 0.37017 0.14292 0.0
C1837 C 0.67077 0.40089 0.09433 0.0
C1838 C 0.7543 0.37155 0.20872 0.0
C1839 C 0.74085 0.37143 0.19478 0.0
C1840 C 0.71582 0.40086 0.16223 0.0
C1841 C 0.68361 0.38648 0.12277 0.0
C1842 C 0.6973 0.38588 0.13841 0.0
C1843 C 0.73931 0.385 0.18099 0.0
C1844 C 0.72468 0.38521 0.16652 0.0
H1845 H 0.65088 0.36179 0.10299 0.0
H1846 H 0.6717 0.36161 0.13016 0.0
H1847 H 0.69571 0.41346 0.14561 0.0
H1848 H 0.77447 0.40935 0.19509 0.0
H1849 H 0.75113 0.40906 0.17069 0.0
C1850 C 0.85794 0.49786 0.46465 0.0
C1851 C 0.86608 0.51391 0.4604 0.0
C1852 C 0.85846 0.48404 0.45125 0.0
C1853 C 0.882 0.46755 0.40735 0.0
H1854 H 0.83994 0.44004 0.40009 0.0
C1855 C 0.88013 0.40758 0.35539 0.0
C1856 C 0.86539 0.40635 0.34312 0.0
C1857 C 0.88044 0.41953 0.37098 0.0
C1858 C 0.85179 0.44761 0.40187 0.0
H1859 H 0.88138 0.52781 0.43867 0.0
H1860 H 0.88192 0.50383 0.41508 0.0
H1861 H 0.84019 0.46362 0.42402 0.0
H1862 H 0.8392 0.41635 0.33812 0.0
H1863 H 0.8398 0.43707 0.36506 0.0
H1864 H 0.8934 0.45187 0.38469 0.0
C1865 C 0.87533 0.50187 0.42894 0.0
C1866 C 0.852 0.46104 0.41578 0.0
C1867 C 0.87483 0.51571 0.44238 0.0
C1868 C 0.85078 0.41688 0.34726 0.0
C1869 C 0.85108 0.42876 0.36281 0.0
C1870 C 0.88179 0.4541 0.39341 0.0
C1871 C 0.86706 0.48587 0.43316 0.0
C1872 C 0.86707 0.47128 0.41863 0.0
C1873 C 0.86601 0.43046 0.3747 0.0
C1874 C 0.86663 0.44405 0.39038 0.0
H1875 H 0.85087 0.49603 0.47823 0.0
H1876 H 0.85212 0.47187 0.45512 0.0
H1877 H 0.8939 0.47502 0.40929 0.0
H1878 H 0.89163 0.39969 0.35264 0.0
H1879 H 0.89207 0.42031 0.38001 0.0
C1880 C 0.74541 0.37177 0.82782 0.0
C1881 C 0.73353 0.3858 0.82742 0.0
C1882 C 0.75895 0.37127 0.84166 0.0
C1883 C 0.77268 0.3907 0.88927 0.0
H1884 H 0.81868 0.37392 0.87451 0.0
C1885 C 0.832 0.40109 0.93935 0.0
C1886 C 0.84295 0.38663 0.94277 0.0
C1887 C 0.81948 0.40071 0.92446 0.0
C1888 C 0.80587 0.37851 0.87889 0.0
H1889 H 0.72682 0.41049 0.84106 0.0
H1890 H 0.75043 0.40976 0.86497 0.0
H1891 H 0.79495 0.3736 0.85048 0.0
H1892 H 0.84981 0.3607 0.93244 0.0
H1893 H 0.82791 0.3601 0.90626 0.0
H1894 H 0.7836 0.39579 0.91756 0.0
C1895 C 0.74909 0.39889 0.85493 0.0
C1896 C 0.79223 0.37829 0.86514 0.0
C1897 C 0.73553 0.39932 0.84119 0.0
C1898 C 0.84161 0.37207 0.93024 0.0
C1899 C 0.82906 0.37173 0.91522 0.0
C1900 C 0.78629 0.39101 0.90293 0.0
C1901 C 0.761 0.38486 0.85539 0.0
C1902 C 0.77547 0.38451 0.87011 0.0
C1903 C 0.81756 0.38588 0.9125 0.0
C1904 C 0.8031 0.38506 0.89788 0.0
H1905 H 0.74414 0.36105 0.81754 0.0
H1906 H 0.76768 0.36013 0.84173 0.0
H1907 H 0.75989 0.39521 0.89382 0.0
H1908 H 0.83272 0.4126 0.94856 0.0
H1909 H 0.81109 0.41198 0.92249 0.0
C1910 C 0.84995 0.584 0.18744 0.0
C1911 C 0.86488 0.59409 0.19155 0.0
C1912 C 0.84995 0.57196 0.17203 0.0
C1913 C 0.88 0.54507 0.14244 0.0
H1914 H 0.83867 0.53689 0.11084 0.0
C1915 C 0.87837 0.49486 0.07846 0.0
C1916 C 0.863 0.48496 0.07619 0.0
C1917 C 0.87908 0.50865 0.09195 0.0
C1918 C 0.85027 0.53887 0.11967 0.0
H1919 H 0.89136 0.59979 0.18213 0.0
H1920 H 0.89127 0.57885 0.15508 0.0
H1921 H 0.83889 0.56075 0.13448 0.0
H1922 H 0.83658 0.48143 0.08696 0.0
H1923 H 0.83784 0.50534 0.11047 0.0
H1924 H 0.89131 0.52304 0.12776 0.0
C1925 C 0.87963 0.58014 0.16399 0.0
C1926 C 0.85041 0.5526 0.13321 0.0
C1927 C 0.87961 0.59227 0.17939 0.0
C1928 C 0.84851 0.48897 0.08805 0.0
C1929 C 0.84923 0.50273 0.10152 0.0
C1930 C 0.87986 0.53131 0.12889 0.0
C1931 C 0.86488 0.56963 0.16031 0.0
C1932 C 0.8652 0.55578 0.14492 0.0
C1933 C 0.86445 0.51289 0.10351 0.0
C1934 C 0.86492 0.52791 0.11747 0.0
H1935 H 0.83837 0.58502 0.19649 0.0
H1936 H 0.83842 0.564 0.16979 0.0
H1937 H 0.89153 0.54697 0.15141 0.0
H1938 H 0.8897 0.49227 0.06941 0.0
H1939 H 0.89097 0.51629 0.09295 0.0
C1940 C 0.76664 0.60281 0.341 0.0
C1941 C 0.76773 0.61588 0.32658 0.0
C1942 C 0.75332 0.60312 0.35504 0.0
C1943 C 0.70937 0.622 0.36505 0.0
H1944 H 0.7194 0.60697 0.41813 0.0
C1945 C 0.66026 0.62867 0.43013 0.0
C1946 C 0.65968 0.61469 0.44351 0.0
C1947 C 0.67275 0.62894 0.41508 0.0
C1948 C 0.71632 0.61104 0.40332 0.0
H1949 H 0.75581 0.63977 0.31593 0.0
H1950 H 0.73271 0.64047 0.34058 0.0
H1951 H 0.74278 0.60764 0.39399 0.0
H1952 H 0.67129 0.58963 0.45087 0.0
H1953 H 0.69281 0.59009 0.4247 0.0
H1954 H 0.68287 0.62555 0.37459 0.0
C1955 C 0.74194 0.62974 0.3408 0.0
C1956 C 0.72975 0.61141 0.38944 0.0
C1957 C 0.75523 0.62938 0.32669 0.0
C1958 C 0.6714 0.60069 0.44097 0.0
C1959 C 0.68386 0.601 0.42603 0.0
C1960 C 0.69592 0.62171 0.37901 0.0
C1961 C 0.74075 0.61657 0.35513 0.0
C1962 C 0.72646 0.61675 0.37005 0.0
C1963 C 0.68495 0.61527 0.41314 0.0
C1964 C 0.69921 0.61606 0.39827 0.0
H1965 H 0.77586 0.59206 0.34116 0.0
H1966 H 0.75268 0.59257 0.36559 0.0
H1967 H 0.70626 0.62598 0.35023 0.0
H1968 H 0.65148 0.63969 0.43166 0.0
H1969 H 0.67326 0.64016 0.40542 0.0
C1970 C 0.62161 0.40905 0.68011 0.0
C1971 C 0.63579 0.40836 0.69325 0.0
C1972 C 0.62159 0.42098 0.66452 0.0
C1973 C 0.65065 0.44993 0.63522 0.0
H1974 H 0.60792 0.47555 0.62474 0.0
C1975 C 0.64545 0.49888 0.57107 0.0
C1976 C 0.63644 0.51463 0.57443 0.0
C1977 C 0.64493 0.48531 0.58477 0.0
C1978 C 0.61999 0.4686 0.62755 0.0
H1979 H 0.66128 0.41936 0.69983 0.0
H1980 H 0.66117 0.44007 0.67287 0.0
H1981 H 0.60811 0.45274 0.64971 0.0
H1982 H 0.61959 0.52827 0.59491 0.0
H1983 H 0.61899 0.50474 0.61904 0.0
H1984 H 0.66269 0.4661 0.61353 0.0
C1985 C 0.65012 0.43134 0.67445 0.0
C1986 C 0.62004 0.45533 0.6417 0.0
C1987 C 0.65014 0.41947 0.69002 0.0
C1988 C 0.62682 0.5164 0.59189 0.0
C1989 C 0.6263 0.50281 0.60563 0.0
C1990 C 0.6506 0.46317 0.62109 0.0
C1991 C 0.63575 0.43244 0.66165 0.0
C1992 C 0.63541 0.4459 0.64582 0.0
C1993 C 0.63542 0.4871 0.60229 0.0
C1994 C 0.6353 0.47276 0.61712 0.0
H1995 H 0.61032 0.40072 0.68215 0.0
H1996 H 0.61041 0.42131 0.65478 0.0
H1997 H 0.66268 0.44284 0.63785 0.0
H1998 H 0.6532 0.49709 0.55794 0.0
H1999 H 0.65194 0.47335 0.58157 0.0
C2000 C 0.16059 0.37051 0.42973 0.0
C2001 C 0.15929 0.3851 0.4422 0.0
C2002 C 0.17306 0.37012 0.41465 0.0
C2003 C 0.21571 0.38948 0.40193 0.0
H2004 H 0.20664 0.37204 0.34957 0.0
C2005 C 0.26587 0.39798 0.33963 0.0
C2006 C 0.26772 0.38452 0.32576 0.0
C2007 C 0.25247 0.39747 0.35356 0.0
C2008 C 0.20948 0.37673 0.3642 0.0
H2009 H 0.16953 0.41109 0.44785 0.0
H2010 H 0.19102 0.4104 0.42167 0.0
H2011 H 0.18314 0.37226 0.37384 0.0
H2012 H 0.25705 0.35979 0.31592 0.0
H2013 H 0.23382 0.35874 0.34042 0.0
H2014 H 0.24201 0.39378 0.39255 0.0
C2015 C 0.18266 0.39913 0.42373 0.0
C2016 C 0.19597 0.37689 0.37809 0.0
C2017 C 0.17021 0.39955 0.43868 0.0
C2018 C 0.25588 0.37046 0.32627 0.0
C2019 C 0.24252 0.3699 0.34029 0.0
C2020 C 0.2292 0.38922 0.38813 0.0
C2021 C 0.18453 0.38428 0.4118 0.0
C2022 C 0.19888 0.38346 0.39706 0.0
C2023 C 0.24059 0.38343 0.35411 0.0
C2024 C 0.22626 0.38302 0.369 0.0
H2025 H 0.15243 0.35913 0.43204 0.0
H2026 H 0.17419 0.35847 0.40572 0.0
H2027 H 0.21851 0.39428 0.41653 0.0
H2028 H 0.27455 0.40915 0.33944 0.0
H2029 H 0.25124 0.40831 0.36367 0.0
C2030 C 0.38095 0.41176 0.18075 0.0
C2031 C 0.36608 0.40939 0.19258 0.0
C2032 C 0.38103 0.42441 0.16586 0.0
C2033 C 0.35869 0.46559 0.15223 0.0
H2034 H 0.3805 0.45876 0.10154 0.0
C2035 C 0.34874 0.51412 0.08861 0.0
C2036 C 0.36304 0.51798 0.07643 0.0
C2037 C 0.34987 0.50093 0.10273 0.0
C2038 C 0.37454 0.46095 0.11572 0.0
H2039 H 0.33932 0.41784 0.19724 0.0
H2040 H 0.33938 0.43954 0.17125 0.0
H2041 H 0.38082 0.43508 0.1256 0.0
H2042 H 0.38983 0.51095 0.06968 0.0
H2043 H 0.3919 0.48806 0.09457 0.0
H2044 H 0.35238 0.49139 0.14245 0.0
C2045 C 0.35114 0.43197 0.17374 0.0
C2046 C 0.37471 0.44736 0.12951 0.0
C2047 C 0.35107 0.4194 0.18858 0.0
C2048 C 0.37861 0.50842 0.07892 0.0
C2049 C 0.37973 0.49516 0.09303 0.0
C2050 C 0.35853 0.47913 0.1385 0.0
C2051 C 0.36624 0.43495 0.16249 0.0
C2052 C 0.3666 0.44945 0.14786 0.0
C2053 C 0.36534 0.49121 0.10509 0.0
C2054 C 0.36629 0.47696 0.11998 0.0
H2055 H 0.39277 0.40433 0.18346 0.0
H2056 H 0.3929 0.42638 0.15752 0.0
H2057 H 0.3527 0.46783 0.16638 0.0
H2058 H 0.33661 0.52133 0.08726 0.0
H2059 H 0.33846 0.49816 0.1116 0.0
C2060 C 0.24611 0.63019 0.82578 0.0
C2061 C 0.23452 0.61591 0.82522 0.0
C2062 C 0.25985 0.63069 0.83937 0.0
C2063 C 0.28713 0.60176 0.87018 0.0
H2064 H 0.29806 0.64404 0.899 0.0
C2065 C 0.33187 0.60127 0.93813 0.0
C2066 C 0.34278 0.61568 0.94189 0.0
C2067 C 0.31992 0.60156 0.92263 0.0
C2068 C 0.2954 0.63219 0.89085 0.0
H2069 H 0.22838 0.59096 0.83859 0.0
H2070 H 0.2522 0.59189 0.86235 0.0
H2071 H 0.27447 0.64425 0.87487 0.0
H2072 H 0.34998 0.64156 0.93178 0.0
H2073 H 0.32928 0.64196 0.90443 0.0
H2074 H 0.30799 0.58966 0.88606 0.0
C2075 C 0.25073 0.60267 0.85219 0.0
C2076 C 0.28181 0.6323 0.87705 0.0
C2077 C 0.23694 0.60223 0.83872 0.0
C2078 C 0.34181 0.63021 0.92931 0.0
C2079 C 0.32981 0.63051 0.91373 0.0
C2080 C 0.30074 0.60166 0.88388 0.0
C2081 C 0.26244 0.61684 0.85262 0.0
C2082 C 0.27736 0.61702 0.86673 0.0
C2083 C 0.31854 0.61626 0.91035 0.0
C2084 C 0.30493 0.6168 0.89462 0.0
H2085 H 0.24454 0.64101 0.8157 0.0
H2086 H 0.26866 0.64176 0.83924 0.0
H2087 H 0.28429 0.58985 0.86221 0.0
H2088 H 0.33218 0.58984 0.94749 0.0
H2089 H 0.31135 0.59044 0.92071 0.0
C2090 C 0.15077 0.58236 0.68747 0.0
C2091 C 0.13568 0.59211 0.69184 0.0
C2092 C 0.1508 0.57025 0.67213 0.0
C2093 C 0.12113 0.54242 0.64317 0.0
H2094 H 0.16204 0.53586 0.61049 0.0
C2095 C 0.12341 0.49229 0.57902 0.0
C2096 C 0.13916 0.4831 0.57625 0.0
C2097 C 0.12239 0.50601 0.5926 0.0
C2098 C 0.15056 0.53737 0.61962 0.0
H2099 H 0.10887 0.59705 0.68305 0.0
H2100 H 0.10897 0.57593 0.65612 0.0
H2101 H 0.16142 0.55963 0.63422 0.0
H2102 H 0.16596 0.48072 0.58628 0.0
H2103 H 0.16417 0.50446 0.60994 0.0
H2104 H 0.11036 0.51999 0.62871 0.0
C2105 C 0.12075 0.57759 0.66474 0.0
C2106 C 0.1502 0.55106 0.63321 0.0
C2107 C 0.12075 0.58982 0.68006 0.0
C2108 C 0.15372 0.48771 0.58774 0.0
C2109 C 0.1527 0.50138 0.6013 0.0
C2110 C 0.1215 0.52868 0.62957 0.0
C2111 C 0.13572 0.56749 0.66075 0.0
C2112 C 0.13556 0.55366 0.64532 0.0
C2113 C 0.1371 0.51087 0.60376 0.0
C2114 C 0.13632 0.52586 0.61777 0.0
H2115 H 0.16251 0.58375 0.69622 0.0
H2116 H 0.16251 0.56261 0.66963 0.0
H2117 H 0.10973 0.54389 0.65243 0.0
H2118 H 0.11199 0.48923 0.57028 0.0
H2119 H 0.1102 0.5131 0.59397 0.0
C2120 C 0.16147 0.63009 0.1031 0.0
C2121 C 0.15948 0.6153 0.09105 0.0
C2122 C 0.17372 0.63011 0.11843 0.0
C2123 C 0.20102 0.60068 0.14931 0.0
H2124 H 0.2309 0.64128 0.15505 0.0
C2125 C 0.26453 0.59801 0.19475 0.0
C2126 C 0.26867 0.61241 0.2067 0.0
C2127 C 0.25081 0.59892 0.18122 0.0
C2128 C 0.22254 0.62991 0.15383 0.0
H2129 H 0.16842 0.58873 0.08619 0.0
H2130 H 0.18961 0.58879 0.11273 0.0
H2131 H 0.20701 0.64177 0.13129 0.0
H2132 H 0.2616 0.63917 0.21354 0.0
H2133 H 0.23768 0.64077 0.18988 0.0
H2134 H 0.21658 0.58875 0.17169 0.0
C2135 C 0.1817 0.60036 0.11047 0.0
C2136 C 0.2088 0.6302 0.14021 0.0
C2137 C 0.16957 0.60036 0.09515 0.0
C2138 C 0.25893 0.62789 0.20443 0.0
C2139 C 0.24518 0.6288 0.19087 0.0
C2140 C 0.21472 0.60038 0.1629 0.0
C2141 C 0.18415 0.61531 0.12215 0.0
C2142 C 0.19798 0.61551 0.13761 0.0
C2143 C 0.24081 0.61425 0.17923 0.0
C2144 C 0.22581 0.61491 0.1652 0.0
H2145 H 0.15396 0.64184 0.10036 0.0
H2146 H 0.1751 0.64178 0.12728 0.0
H2147 H 0.19277 0.58924 0.14797 0.0
H2148 H 0.27195 0.58599 0.19581 0.0
H2149 H 0.24811 0.58758 0.17221 0.0
C2150 C 0.14999 0.4194 0.84512 0.0
C2151 C 0.13574 0.40819 0.8417 0.0
C2152 C 0.14973 0.43135 0.8606 0.0
C2153 C 0.11909 0.45522 0.89294 0.0
H2154 H 0.16166 0.46739 0.92066 0.0
C2155 C 0.12104 0.50445 0.95796 0.0
C2156 C 0.13502 0.51641 0.95819 0.0
C2157 C 0.12064 0.49074 0.94436 0.0
C2158 C 0.14968 0.46425 0.91294 0.0
H2159 H 0.11022 0.40043 0.85243 0.0
H2160 H 0.10989 0.42112 0.87975 0.0
H2161 H 0.162 0.44365 0.89686 0.0
H2162 H 0.15952 0.52326 0.94423 0.0
H2163 H 0.15876 0.49946 0.92045 0.0
H2164 H 0.10681 0.47587 0.90913 0.0
C2165 C 0.12117 0.42084 0.87018 0.0
C2166 C 0.14987 0.45062 0.89928 0.0
C2167 C 0.12143 0.40885 0.85462 0.0
C2168 C 0.14848 0.5144 0.94436 0.0
C2169 C 0.14815 0.50063 0.93087 0.0
C2170 C 0.11889 0.46881 0.90671 0.0
C2171 C 0.13523 0.43242 0.87321 0.0
C2172 C 0.13464 0.44605 0.88888 0.0
C2173 C 0.13429 0.48855 0.93078 0.0
C2174 C 0.13424 0.47364 0.91669 0.0
H2175 H 0.16124 0.41933 0.83549 0.0
H2176 H 0.16069 0.44017 0.86225 0.0
H2177 H 0.10717 0.45226 0.88505 0.0
H2178 H 0.11039 0.5057 0.96832 0.0
H2179 H 0.10982 0.48162 0.94476 0.0
C2180 C 0.34084 0.3716 0.60342 0.0
C2181 C 0.34215 0.38609 0.59081 0.0
C2182 C 0.32835 0.37133 0.61847 0.0
C2183 C 0.28574 0.39095 0.63116 0.0
H2184 H 0.29481 0.37335 0.68344 0.0
C2185 C 0.23578 0.39955 0.6937 0.0
C2186 C 0.23386 0.38599 0.70744 0.0
C2187 C 0.24914 0.39903 0.67972 0.0
C2188 C 0.29197 0.37809 0.66883 0.0
H2189 H 0.33188 0.41202 0.58487 0.0
H2190 H 0.31037 0.41155 0.61104 0.0
H2191 H 0.31827 0.3735 0.65913 0.0
H2192 H 0.24434 0.36107 0.71694 0.0
H2193 H 0.26752 0.36004 0.69238 0.0
H2194 H 0.25948 0.39541 0.64062 0.0
C2195 C 0.31873 0.40026 0.6091 0.0
C2196 C 0.30545 0.37821 0.65491 0.0
C2197 C 0.33119 0.40056 0.59415 0.0
C2198 C 0.24557 0.37183 0.70672 0.0
C2199 C 0.2589 0.37127 0.69266 0.0
C2200 C 0.27227 0.39075 0.64499 0.0
C2201 C 0.31687 0.38551 0.62118 0.0
C2202 C 0.30254 0.38482 0.63597 0.0
C2203 C 0.26091 0.3849 0.679 0.0
C2204 C 0.27521 0.38448 0.66409 0.0
H2205 H 0.34903 0.36021 0.60125 0.0
H2206 H 0.32724 0.35974 0.6275 0.0
H2207 H 0.28293 0.39578 0.61657 0.0
H2208 H 0.22719 0.4108 0.69405 0.0
H2209 H 0.25044 0.40994 0.66972 0.0
C2210 C 0.37827 0.49359 0.45494 0.0
C2211 C 0.36265 0.48411 0.45723 0.0
C2212 C 0.37931 0.50741 0.4415 0.0
C2213 C 0.35113 0.53853 0.41426 0.0
H2214 H 0.39216 0.54564 0.38192 0.0
C2215 C 0.35076 0.58356 0.34655 0.0
C2216 C 0.36581 0.59332 0.34209 0.0
C2217 C 0.35079 0.57154 0.36196 0.0
C2218 C 0.3807 0.54402 0.39106 0.0
H2219 H 0.33612 0.48128 0.44643 0.0
H2220 H 0.33794 0.50524 0.42306 0.0
H2221 H 0.39164 0.52167 0.40555 0.0
H2222 H 0.39259 0.59844 0.35088 0.0
H2223 H 0.39257 0.57752 0.37797 0.0
H2224 H 0.34011 0.56072 0.39968 0.0
C2225 C 0.34929 0.5023 0.43198 0.0
C2226 C 0.38039 0.53024 0.40459 0.0
C2227 C 0.34825 0.48852 0.44538 0.0
C2228 C 0.38074 0.59118 0.35391 0.0
C2229 C 0.38079 0.57906 0.36933 0.0
C2230 C 0.35144 0.55228 0.40076 0.0
C2231 C 0.36475 0.51208 0.43002 0.0
C2232 C 0.3655 0.52718 0.41619 0.0
C2233 C 0.36588 0.5689 0.37336 0.0
C2234 C 0.36614 0.55508 0.3888 0.0
H2235 H 0.38956 0.49067 0.46396 0.0
H2236 H 0.39139 0.51473 0.4405 0.0
H2237 H 0.33959 0.53682 0.42324 0.0
H2238 H 0.33902 0.58483 0.33777 0.0
H2239 H 0.33913 0.56384 0.36447 0.0
C2240 C 0.10954 0.27919 0.40144 0.0
C2241 C 0.12218 0.28218 0.41606 0.0
C2242 C 0.11178 0.26585 0.3876 0.0
C2243 C 0.14559 0.23665 0.36591 0.0
H2244 H 0.10589 0.20793 0.35134 0.0
C2245 C 0.15398 0.16993 0.32839 0.0
C2246 C 0.1425 0.16523 0.31321 0.0
C2247 C 0.15114 0.18502 0.33944 0.0
C2248 C 0.11706 0.21598 0.35503 0.0
H2249 H 0.14707 0.27331 0.42757 0.0
H2250 H 0.15096 0.25006 0.40358 0.0
H2251 H 0.10174 0.23265 0.37352 0.0
H2252 H 0.11898 0.17273 0.29764 0.0
H2253 H 0.11388 0.19925 0.31715 0.0
H2254 H 0.16096 0.2198 0.34774 0.0
C2255 C 0.13943 0.25823 0.40254 0.0
C2256 C 0.1147 0.23017 0.36776 0.0
C2257 C 0.1372 0.27159 0.41634 0.0
C2258 C 0.12804 0.17601 0.30928 0.0
C2259 C 0.1251 0.19114 0.32049 0.0
C2260 C 0.14795 0.22246 0.35327 0.0
C2261 C 0.12672 0.25512 0.38801 0.0
C2262 C 0.12899 0.24057 0.37359 0.0
C2263 C 0.13668 0.19585 0.33568 0.0
C2264 C 0.13378 0.21178 0.34787 0.0
H2265 H 0.09792 0.28725 0.4006 0.0
H2266 H 0.10185 0.26404 0.37646 0.0
H2267 H 0.15684 0.24456 0.36968 0.0
H2268 H 0.16521 0.16187 0.33187 0.0
H2269 H 0.16017 0.18805 0.3512 0.0
C2270 C 0.07524 0.87793 0.55968 0.0
C2271 C 0.08682 0.89166 0.56402 0.0
C2272 C 0.06078 0.87465 0.57182 0.0
C2273 C 0.04462 0.88321 0.62232 0.0
H2274 H 0.99894 0.87242 0.6009 0.0
C2275 C 0.98264 0.88574 0.67012 0.0
C2276 C 0.97023 0.87233 0.66785 0.0
C2277 C 0.99654 0.88745 0.65694 0.0
C2278 C 0.01165 0.87523 0.60713 0.0
H2279 H 0.09212 0.91289 0.58422 0.0
H2280 H 0.06702 0.90737 0.60506 0.0
H2281 H 0.02386 0.87611 0.57883 0.0
H2282 H 0.96251 0.85052 0.64948 0.0
H2283 H 0.98688 0.85341 0.62658 0.0
H2284 H 0.03251 0.88247 0.65055 0.0
C2285 C 0.06917 0.89888 0.59258 0.0
C2286 C 0.02595 0.87733 0.59447 0.0
C2287 C 0.08352 0.90214 0.58051 0.0
C2288 C 0.97192 0.86088 0.6518 0.0
C2289 C 0.98581 0.86264 0.63855 0.0
C2290 C 0.03038 0.88116 0.63492 0.0
C2291 C 0.05766 0.88502 0.58854 0.0
C2292 C 0.04258 0.88159 0.6019 0.0
C2293 C 0.99841 0.87583 0.64108 0.0
C2294 C 0.01365 0.87736 0.62751 0.0
H2295 H 0.07743 0.86968 0.54702 0.0
H2296 H 0.05222 0.86381 0.56832 0.0
H2297 H 0.0573 0.88609 0.62862 0.0
H2298 H 0.98187 0.89469 0.68238 0.0
H2299 H 0.00585 0.89791 0.6592 0.0
C2300 C 0.34891 0.82909 0.82725 0.0
C2301 C 0.36064 0.83434 0.81256 0.0
C2302 C 0.35187 0.81392 0.83808 0.0
C2303 C 0.38627 0.78387 0.85459 0.0
H2304 H 0.3469 0.75394 0.86705 0.0
C2305 C 0.39387 0.72103 0.90157 0.0
C2306 C 0.38074 0.71774 0.91554 0.0
C2307 C 0.39179 0.7342 0.88751 0.0
C2308 C 0.35802 0.76223 0.86388 0.0
H2309 H 0.38471 0.8277 0.79761 0.0
H2310 H 0.39006 0.80103 0.81682 0.0
H2311 H 0.34285 0.77865 0.84502 0.0
H2312 H 0.35515 0.72591 0.92565 0.0
H2313 H 0.35154 0.74888 0.90128 0.0
H2314 H 0.40136 0.76766 0.87382 0.0
C2315 C 0.37854 0.80878 0.81991 0.0
C2316 C 0.3557 0.77638 0.85118 0.0
C2317 C 0.37548 0.824 0.80889 0.0
C2318 C 0.36541 0.72787 0.91494 0.0
C2319 C 0.36334 0.74106 0.90092 0.0
C2320 C 0.38858 0.76972 0.86738 0.0
C2321 C 0.36671 0.80355 0.8346 0.0
C2322 C 0.36971 0.78756 0.84662 0.0
C2323 C 0.37653 0.74447 0.88705 0.0
C2324 C 0.37441 0.75886 0.87244 0.0
H2325 H 0.33739 0.83679 0.83052 0.0
H2326 H 0.34264 0.81047 0.84947 0.0
H2327 H 0.39729 0.79232 0.85152 0.0
H2328 H 0.40575 0.71332 0.90142 0.0
H2329 H 0.4021 0.73625 0.8769 0.0
C2330 C 0.4259 0.1227 0.05834 0.0
C2331 C 0.41443 0.10887 0.0626 0.0
C2332 C 0.44036 0.12603 0.0705 0.0
C2333 C 0.45669 0.1174 0.12093 0.0
H2334 H 0.50224 0.12863 0.09953 0.0
C2335 C 0.51877 0.1154 0.16875 0.0
C2336 C 0.5311 0.12888 0.16645 0.0
C2337 C 0.50486 0.11358 0.15558 0.0
C2338 C 0.48956 0.12569 0.10576 0.0
H2339 H 0.40933 0.0875 0.08266 0.0
H2340 H 0.43443 0.09312 0.10353 0.0
H2341 H 0.4773 0.12479 0.07746 0.0
H2342 H 0.53863 0.15071 0.14804 0.0
H2343 H 0.51423 0.14763 0.12517 0.0
H2344 H 0.46884 0.11818 0.14916 0.0
C2345 C 0.4322 0.10164 0.0911 0.0
C2346 C 0.47525 0.12351 0.0931 0.0
C2347 C 0.41785 0.09833 0.07902 0.0
C2348 C 0.52929 0.14029 0.15039 0.0
C2349 C 0.51539 0.13842 0.13715 0.0
C2350 C 0.47094 0.11955 0.13354 0.0
C2351 C 0.44359 0.11561 0.08715 0.0
C2352 C 0.45867 0.1191 0.10051 0.0
C2353 C 0.50287 0.12516 0.1397 0.0
C2354 C 0.48762 0.1235 0.12613 0.0
H2355 H 0.42363 0.131 0.04574 0.0
H2356 H 0.44883 0.13695 0.06706 0.0
H2357 H 0.44404 0.1144 0.12722 0.0
H2358 H 0.51963 0.10647 0.18102 0.0
H2359 H 0.49562 0.10305 0.15786 0.0
C2360 C 0.12816 0.82478 0.22537 0.0
C2361 C 0.1422 0.83599 0.2211 0.0
C2362 C 0.12538 0.80964 0.21413 0.0
C2363 C 0.14848 0.77955 0.17998 0.0
H2364 H 0.10201 0.76699 0.16222 0.0
C2365 C 0.13736 0.73207 0.11567 0.0
C2366 C 0.12364 0.71991 0.11696 0.0
C2367 C 0.13932 0.74517 0.1298 0.0
C2368 C 0.11505 0.77018 0.16727 0.0
H2369 H 0.16422 0.8402 0.20168 0.0
H2370 H 0.15937 0.81412 0.18219 0.0
H2371 H 0.10581 0.79171 0.18456 0.0
H2372 H 0.10117 0.71207 0.1342 0.0
H2373 H 0.10468 0.73491 0.15899 0.0
H2374 H 0.15779 0.75827 0.1625 0.0
C2375 C 0.15063 0.81673 0.19432 0.0
C2376 C 0.11722 0.78434 0.1801 0.0
C2377 C 0.15335 0.83178 0.20545 0.0
C2378 C 0.11198 0.72113 0.13285 0.0
C2379 C 0.11387 0.73433 0.14695 0.0
C2380 C 0.14632 0.76546 0.16717 0.0
C2381 C 0.13667 0.8054 0.19851 0.0
C2382 C 0.13401 0.7894 0.18633 0.0
C2383 C 0.12758 0.74652 0.14559 0.0
C2384 C 0.12962 0.76076 0.16037 0.0
H2385 H 0.11936 0.82771 0.23736 0.0
H2386 H 0.11455 0.80116 0.21782 0.0
H2387 H 0.16157 0.78281 0.18482 0.0
H2388 H 0.14667 0.73143 0.10374 0.0
H2389 H 0.1499 0.75445 0.12814 0.0
C2390 C 0.52864 0.86232 0.38325 0.0
C2391 C 0.53006 0.8744 0.36778 0.0
C2392 C 0.51555 0.86414 0.39749 0.0
C2393 C 0.48514 0.89668 0.41899 0.0
H2394 H 0.45831 0.85622 0.43526 0.0
C2395 C 0.41915 0.90376 0.45818 0.0
C2396 C 0.41481 0.89214 0.47334 0.0
C2397 C 0.43414 0.90118 0.44689 0.0
C2398 C 0.46584 0.86761 0.43112 0.0
H2399 H 0.51902 0.89808 0.35547 0.0
H2400 H 0.4962 0.90117 0.38011 0.0
H2401 H 0.4828 0.85258 0.41261 0.0
H2402 H 0.42286 0.86869 0.48865 0.0
H2403 H 0.44926 0.86411 0.4688 0.0
H2404 H 0.46817 0.91176 0.43728 0.0
C2405 C 0.50523 0.89032 0.38133 0.0
C2406 C 0.47988 0.86553 0.41811 0.0
C2407 C 0.51822 0.88845 0.36706 0.0
C2408 C 0.42586 0.87783 0.47702 0.0
C2409 C 0.44093 0.8752 0.4656 0.0
C2410 C 0.47117 0.89875 0.43199 0.0
C2411 C 0.50367 0.87816 0.3967 0.0
C2412 C 0.48952 0.88009 0.41162 0.0
C2413 C 0.44527 0.8869 0.45041 0.0
C2414 C 0.46111 0.88431 0.43796 0.0
H2415 H 0.53743 0.85126 0.38416 0.0
H2416 H 0.51481 0.85461 0.4092 0.0
H2417 H 0.4925 0.90813 0.41466 0.0
H2418 H 0.41087 0.91486 0.45489 0.0
H2419 H 0.43682 0.91028 0.43511 0.0
C2420 C 0.39257 0.28048 0.63307 0.0
C2421 C 0.38106 0.28221 0.61708 0.0
C2422 C 0.39088 0.26655 0.64628 0.0
C2423 C 0.37237 0.22199 0.64975 0.0
H2424 H 0.37753 0.2282 0.70587 0.0
C2425 C 0.35033 0.16923 0.70386 0.0
C2426 C 0.36081 0.16547 0.72023 0.0
C2427 C 0.35394 0.18356 0.69191 0.0
C2428 C 0.37629 0.22621 0.69022 0.0
H2429 H 0.35863 0.27062 0.60261 0.0
H2430 H 0.35551 0.24658 0.62572 0.0
H2431 H 0.38132 0.25322 0.68392 0.0
H2432 H 0.38319 0.17403 0.73716 0.0
H2433 H 0.38963 0.19928 0.71607 0.0
H2434 H 0.36726 0.19508 0.65593 0.0
C2435 C 0.36599 0.25588 0.62797 0.0
C2436 C 0.37844 0.24055 0.67763 0.0
C2437 C 0.36764 0.26982 0.61483 0.0
C2438 C 0.37492 0.17658 0.72458 0.0
C2439 C 0.37854 0.19106 0.71257 0.0
C2440 C 0.37025 0.20771 0.66228 0.0
C2441 C 0.37769 0.25395 0.64376 0.0
C2442 C 0.37623 0.23866 0.65724 0.0
C2443 C 0.36816 0.19461 0.69596 0.0
C2444 C 0.37189 0.20966 0.6827 0.0
H2445 H 0.40295 0.28989 0.63538 0.0
H2446 H 0.40016 0.26545 0.65821 0.0
H2447 H 0.37101 0.21993 0.63411 0.0
H2448 H 0.3393 0.16099 0.70013 0.0
H2449 H 0.34544 0.18606 0.67951 0.0
C2450 C 0.08341 0.09888 0.95425 0.0
C2451 C 0.08683 0.10936 0.97071 0.0
C2452 C 0.06903 0.10221 0.94223 0.0
C2453 C 0.02582 0.12336 0.94023 0.0
H2454 H 0.03307 0.11961 0.88414 0.0
C2455 C 0.97154 0.13859 0.88246 0.0
C2456 C 0.97085 0.12769 0.86586 0.0
C2457 C 0.98528 0.13715 0.89599 0.0
C2458 C 0.03073 0.12052 0.89976 0.0
H2459 H 0.07761 0.13139 0.98775 0.0
H2460 H 0.05225 0.1373 0.96656 0.0
H2461 H 0.05771 0.11611 0.90632 0.0
H2462 H 0.98369 0.10616 0.85103 0.0
H2463 H 0.00747 0.10356 0.87457 0.0
H2464 H 0.99872 0.1276 0.93356 0.0
C2465 C 0.06078 0.12646 0.96304 0.0
C2466 C 0.04489 0.11856 0.9125 0.0
C2467 C 0.07532 0.12313 0.97511 0.0
C2468 C 0.98399 0.11501 0.86342 0.0
C2469 C 0.99766 0.11355 0.87692 0.0
C2470 C 0.01157 0.1253 0.92743 0.0
C2471 C 0.0576 0.11612 0.94631 0.0
C2472 C 0.0426 0.11966 0.93291 0.0
C2473 C 0.99866 0.12476 0.89325 0.0
C2474 C 0.01381 0.12362 0.90702 0.0
H2475 H 0.09197 0.0881 0.95049 0.0
H2476 H 0.06682 0.09377 0.92972 0.0
H2477 H 0.02358 0.12419 0.95587 0.0
H2478 H 0.96173 0.14861 0.88469 0.0
H2479 H 0.98568 0.14609 0.90829 0.0
C2480 C 0.85042 0.8321 0.7037 0.0
C2481 C 0.86056 0.83576 0.72036 0.0
C2482 C 0.85419 0.81775 0.69184 0.0
C2483 C 0.87621 0.77494 0.69072 0.0
H2484 H 0.87203 0.78129 0.63451 0.0
C2485 C 0.89253 0.72051 0.63368 0.0
C2486 C 0.88105 0.71893 0.61763 0.0
C2487 C 0.89093 0.73444 0.6469 0.0
C2488 C 0.8731 0.77923 0.65017 0.0
H2489 H 0.8825 0.82704 0.7379 0.0
H2490 H 0.88925 0.80175 0.71695 0.0
H2491 H 0.86826 0.8062 0.65625 0.0
H2492 H 0.85882 0.73079 0.60305 0.0
H2493 H 0.85588 0.75486 0.62618 0.0
H2494 H 0.88097 0.74785 0.68451 0.0
C2495 C 0.87829 0.81006 0.71316 0.0
C2496 C 0.87096 0.79353 0.66266 0.0
C2497 C 0.8745 0.82455 0.72509 0.0
C2498 C 0.86778 0.73148 0.61532 0.0
C2499 C 0.86623 0.74542 0.62846 0.0
C2500 C 0.87839 0.76057 0.67818 0.0
C2501 C 0.86825 0.80661 0.69627 0.0
C2502 C 0.87216 0.79154 0.68311 0.0
C2503 C 0.87789 0.74719 0.6443 0.0
C2504 C 0.87655 0.7625 0.65775 0.0
H2505 H 0.83952 0.84041 0.69968 0.0
H2506 H 0.84595 0.81532 0.67922 0.0
H2507 H 0.87711 0.77293 0.7064 0.0
H2508 H 0.9028 0.71098 0.636 0.0
H2509 H 0.90016 0.73544 0.65889 0.0
C2510 C 0.03004 0.13867 0.38272 0.0
C2511 C 0.03092 0.12754 0.36631 0.0
C2512 C 0.01635 0.13716 0.39628 0.0
C2513 C 0.97122 0.11992 0.40027 0.0
H2514 H 0.97838 0.12405 0.45636 0.0
C2515 C 0.91869 0.09822 0.45473 0.0
C2516 C 0.91523 0.10869 0.47118 0.0
C2517 C 0.93306 0.10158 0.44274 0.0
C2518 C 0.97614 0.12309 0.44072 0.0
H2519 H 0.01849 0.10557 0.35187 0.0
H2520 H 0.99478 0.10288 0.37544 0.0
H2521 H 0.00317 0.12762 0.43402 0.0
H2522 H 0.92441 0.1307 0.48828 0.0
H2523 H 0.94972 0.13672 0.46712 0.0
H2524 H 0.94431 0.11527 0.40684 0.0
C2525 C 0.00441 0.11307 0.37762 0.0
C2526 C 0.99035 0.12512 0.42791 0.0
C2527 C 0.01804 0.11459 0.3641 0.0
C2528 C 0.92672 0.12246 0.47563 0.0
C2529 C 0.94123 0.12584 0.46358 0.0
C2530 C 0.95709 0.11789 0.41301 0.0
C2531 C 0.00322 0.12448 0.39375 0.0
C2532 C 0.9881 0.12327 0.40752 0.0
C2533 C 0.94444 0.11553 0.44684 0.0
C2534 C 0.95939 0.11915 0.43342 0.0
H2535 H 0.03965 0.14889 0.38478 0.0
H2536 H 0.01579 0.14625 0.40843 0.0
H2537 H 0.96889 0.11887 0.38465 0.0
H2538 H 0.91017 0.08742 0.45094 0.0
H2539 H 0.93531 0.09314 0.43025 0.0
C2540 C 0.60954 0.28061 0.13378 0.0
C2541 C 0.62138 0.28263 0.11816 0.0
C2542 C 0.61125 0.26671 0.147 0.0
C2543 C 0.63048 0.22253 0.15075 0.0
H2544 H 0.62414 0.22836 0.20677 0.0
C2545 C 0.65202 0.16964 0.20494 0.0
C2546 C 0.64125 0.16568 0.22098 0.0
C2547 C 0.64853 0.18405 0.19306 0.0
C2548 C 0.62571 0.22647 0.19114 0.0
H2549 H 0.64442 0.27161 0.10438 0.0
H2550 H 0.64756 0.24759 0.12753 0.0
H2551 H 0.6204 0.25344 0.18489 0.0
H2552 H 0.6185 0.17395 0.23744 0.0
H2553 H 0.61224 0.19931 0.21644 0.0
H2554 H 0.63583 0.19566 0.15687 0.0
C2555 C 0.63682 0.25665 0.12946 0.0
C2556 C 0.6236 0.24085 0.1786 0.0
C2557 C 0.63516 0.27057 0.11631 0.0
C2558 C 0.62699 0.17666 0.22511 0.0
C2559 C 0.62347 0.1912 0.21315 0.0
C2560 C 0.63255 0.20821 0.16323 0.0
C2561 C 0.62479 0.25442 0.14485 0.0
C2562 C 0.62623 0.2391 0.15827 0.0
C2563 C 0.63414 0.19495 0.19684 0.0
C2564 C 0.63049 0.21003 0.18361 0.0
H2565 H 0.59888 0.28976 0.13576 0.0
H2566 H 0.60172 0.26535 0.15862 0.0
H2567 H 0.63218 0.22059 0.13514 0.0
H2568 H 0.66318 0.16151 0.20141 0.0
H2569 H 0.65725 0.18672 0.18092 0.0
C2570 C 0.47192 0.8624 0.8831 0.0
C2571 C 0.4708 0.87412 0.86725 0.0
C2572 C 0.4851 0.86419 0.89725 0.0
C2573 C 0.51635 0.89639 0.9177 0.0
H2574 H 0.54243 0.85571 0.93492 0.0
C2575 C 0.58255 0.90303 0.95645 0.0
C2576 C 0.58665 0.89176 0.97203 0.0
C2577 C 0.56756 0.9004 0.94517 0.0
C2578 C 0.53511 0.86717 0.93051 0.0
H2579 H 0.48246 0.89713 0.85415 0.0
H2580 H 0.50544 0.90018 0.87865 0.0
H2581 H 0.51772 0.85212 0.9125 0.0
H2582 H 0.57825 0.86881 0.98802 0.0
H2583 H 0.55179 0.86419 0.96823 0.0
H2584 H 0.53373 0.91148 0.93549 0.0
C2585 C 0.4961 0.88964 0.88023 0.0
C2586 C 0.52095 0.86512 0.91763 0.0
C2587 C 0.48303 0.88779 0.86605 0.0
C2588 C 0.5754 0.8777 0.97608 0.0
C2589 C 0.56032 0.87503 0.9647 0.0
C2590 C 0.53043 0.89844 0.93057 0.0
C2591 C 0.49737 0.87784 0.89598 0.0
C2592 C 0.5116 0.87975 0.9108 0.0
C2593 C 0.55617 0.88643 0.94915 0.0
C2594 C 0.54022 0.88391 0.93686 0.0
H2595 H 0.46281 0.85163 0.88437 0.0
H2596 H 0.48562 0.85495 0.90926 0.0
H2597 H 0.50921 0.90791 0.91309 0.0
H2598 H 0.59101 0.91391 0.95284 0.0
H2599 H 0.56503 0.90924 0.93309 0.0
C2600 C 0.89111 0.2812 0.90123 0.0
C2601 C 0.87901 0.28274 0.91667 0.0
C2602 C 0.8892 0.26813 0.88698 0.0
C2603 C 0.85635 0.23813 0.86544 0.0
H2604 H 0.8964 0.21037 0.84973 0.0
C2605 C 0.84821 0.17137 0.82876 0.0
C2606 C 0.85939 0.16655 0.81336 0.0
C2607 C 0.85118 0.1866 0.83948 0.0
C2608 C 0.88514 0.21818 0.85371 0.0
H2609 H 0.85521 0.27195 0.92892 0.0
H2610 H 0.85196 0.24916 0.90427 0.0
H2611 H 0.90042 0.23512 0.87201 0.0
H2612 H 0.88255 0.17392 0.79712 0.0
H2613 H 0.88786 0.20078 0.81605 0.0
H2614 H 0.84102 0.22114 0.84745 0.0
C2615 C 0.86289 0.25808 0.90308 0.0
C2616 C 0.88743 0.23236 0.8665 0.0
C2617 C 0.86485 0.27105 0.91735 0.0
C2618 C 0.87372 0.17733 0.80892 0.0
C2619 C 0.87677 0.19264 0.8198 0.0
C2620 C 0.85407 0.22403 0.85269 0.0
C2621 C 0.87506 0.2564 0.88773 0.0
C2622 C 0.87299 0.24228 0.87284 0.0
C2623 C 0.86544 0.19749 0.83515 0.0
C2624 C 0.86836 0.21362 0.84699 0.0
H2625 H 0.90225 0.28989 0.90036 0.0
H2626 H 0.89874 0.26728 0.8753 0.0
H2627 H 0.845 0.24573 0.86964 0.0
H2628 H 0.8371 0.16331 0.83265 0.0
H2629 H 0.84239 0.18969 0.85142 0.0
C2630 C 0.48297 0.11549 0.66857 0.0
C2631 C 0.4707 0.12906 0.66653 0.0
C2632 C 0.49692 0.11387 0.65544 0.0
C2633 C 0.51244 0.12682 0.60604 0.0
H2634 H 0.55785 0.11511 0.62762 0.0
C2635 C 0.57629 0.12411 0.559 0.0
C2636 C 0.5876 0.11009 0.56308 0.0
C2637 C 0.56181 0.12742 0.57113 0.0
C2638 C 0.54524 0.11823 0.62129 0.0
H2639 H 0.46328 0.15127 0.64861 0.0
H2640 H 0.48773 0.14852 0.6258 0.0
H2641 H 0.53296 0.11861 0.64944 0.0
H2642 H 0.59247 0.08844 0.58284 0.0
H2643 H 0.56737 0.09403 0.60365 0.0
H2644 H 0.52482 0.1263 0.57782 0.0
C2645 C 0.48651 0.1391 0.63755 0.0
C2646 C 0.53094 0.12022 0.63383 0.0
C2647 C 0.47258 0.14077 0.65075 0.0
C2648 C 0.58406 0.0994 0.57933 0.0
C2649 C 0.56971 0.1027 0.59139 0.0
C2650 C 0.5268 0.1248 0.59344 0.0
C2651 C 0.49899 0.12575 0.63986 0.0
C2652 C 0.51429 0.12431 0.62638 0.0
C2653 C 0.55844 0.11681 0.58758 0.0
C2654 C 0.54333 0.12023 0.6009 0.0
H2655 H 0.48206 0.10634 0.68063 0.0
H2656 H 0.50613 0.10327 0.65752 0.0
H2657 H 0.49979 0.12988 0.59978 0.0
H2658 H 0.57869 0.13254 0.54655 0.0
H2659 H 0.55345 0.13846 0.56782 0.0
C2660 C 0.62523 0.82509 0.30946 0.0
C2661 C 0.63926 0.83625 0.31396 0.0
C2662 C 0.62162 0.81057 0.3214 0.0
C2663 C 0.62971 0.79376 0.37163 0.0
H2664 H 0.61948 0.74822 0.34953 0.0
C2665 C 0.63335 0.7314 0.41841 0.0
C2666 C 0.62007 0.71887 0.41612 0.0
C2667 C 0.63478 0.74543 0.40538 0.0
C2668 C 0.62213 0.7609 0.35594 0.0
H2669 H 0.66057 0.84086 0.33429 0.0
H2670 H 0.65443 0.81572 0.35479 0.0
H2671 H 0.62302 0.77344 0.32781 0.0
H2672 H 0.5982 0.71103 0.39789 0.0
H2673 H 0.60062 0.73564 0.37521 0.0
H2674 H 0.629 0.78134 0.39968 0.0
C2675 C 0.64601 0.8182 0.34232 0.0
C2676 C 0.62412 0.77535 0.34349 0.0
C2677 C 0.64962 0.83257 0.33045 0.0
C2678 C 0.60847 0.72055 0.4002 0.0
C2679 C 0.60995 0.73456 0.3871 0.0
C2680 C 0.62774 0.77938 0.38402 0.0
C2681 C 0.63191 0.80706 0.33808 0.0
C2682 C 0.62824 0.7919 0.35118 0.0
C2683 C 0.623 0.74731 0.38967 0.0
C2684 C 0.62421 0.7627 0.37634 0.0
H2685 H 0.61705 0.8276 0.2968 0.0
H2686 H 0.61062 0.80227 0.31776 0.0
H2687 H 0.63248 0.80639 0.3781 0.0
H2688 H 0.6424 0.73064 0.4306 0.0
H2689 H 0.64515 0.75485 0.40765 0.0
C2690 C 0.91912 0.90423 0.07918 0.0
C2691 C 0.91498 0.89328 0.06333 0.0
C2692 C 0.93423 0.90148 0.09022 0.0
C2693 C 0.96697 0.86814 0.10365 0.0
H2694 H 0.9927 0.9086 0.1221 0.0
C2695 C 0.03032 0.86265 0.15069 0.0
C2696 C 0.03139 0.874 0.16688 0.0
C2697 C 0.01711 0.86469 0.13662 0.0
C2698 C 0.98561 0.89716 0.11719 0.0
H2699 H 0.92345 0.87077 0.04659 0.0
H2700 H 0.95011 0.86592 0.06595 0.0
H2701 H 0.96807 0.91255 0.09993 0.0
H2702 H 0.0196 0.89664 0.18068 0.0
H2703 H 0.99657 0.90012 0.15632 0.0
H2704 H 0.98452 0.85278 0.12115 0.0
C2705 C 0.94153 0.87661 0.06988 0.0
C2706 C 0.97147 0.89942 0.10446 0.0
C2707 C 0.92632 0.87942 0.05874 0.0
C2708 C 0.01907 0.88757 0.16851 0.0
C2709 C 0.00596 0.88967 0.15441 0.0
C2710 C 0.9812 0.86587 0.1164 0.0
C2711 C 0.94569 0.88769 0.08572 0.0
C2712 C 0.96174 0.88498 0.09781 0.0
C2713 C 0.00476 0.87823 0.13832 0.0
C2714 C 0.99049 0.8804 0.1236 0.0
H2715 H 0.91059 0.91496 0.0832 0.0
H2716 H 0.93678 0.91006 0.10252 0.0
H2717 H 0.9597 0.85674 0.09896 0.0
H2718 H 0.0395 0.85197 0.14909 0.0
H2719 H 0.01663 0.85572 0.12435 0.0
C2720 C 0.62798 0.67632 0.80756 0.0
C2721 C 0.64222 0.66524 0.81143 0.0
C2722 C 0.62527 0.6914 0.81893 0.0
C2723 C 0.6486 0.72164 0.85277 0.0
H2724 H 0.60227 0.73352 0.87149 0.0
C2725 C 0.63787 0.76922 0.91717 0.0
C2726 C 0.62383 0.78105 0.91621 0.0
C2727 C 0.63983 0.75611 0.90304 0.0
C2728 C 0.61527 0.73053 0.86618 0.0
H2729 H 0.66474 0.66124 0.83023 0.0
H2730 H 0.66002 0.68722 0.84994 0.0
H2731 H 0.60605 0.70891 0.84902 0.0
H2732 H 0.6008 0.78829 0.89953 0.0
H2733 H 0.60432 0.76548 0.87473 0.0
H2734 H 0.65789 0.74303 0.87009 0.0
C2735 C 0.65104 0.68455 0.83803 0.0
C2736 C 0.61743 0.71642 0.85327 0.0
C2737 C 0.65369 0.66955 0.82678 0.0
C2738 C 0.61186 0.7795 0.90063 0.0
C2739 C 0.61377 0.76631 0.88652 0.0
C2740 C 0.64646 0.73569 0.86566 0.0
C2741 C 0.63683 0.69572 0.83429 0.0
C2742 C 0.63418 0.71161 0.84666 0.0
C2743 C 0.62778 0.75442 0.88756 0.0
C2744 C 0.62981 0.74016 0.87279 0.0
H2745 H 0.61895 0.67334 0.79579 0.0
H2746 H 0.61425 0.69976 0.81557 0.0
H2747 H 0.66165 0.71858 0.84766 0.0
H2748 H 0.64743 0.77011 0.92885 0.0
H2749 H 0.65067 0.74708 0.90446 0.0
C2750 C 0.58383 0.40349 0.07904 0.0
C2751 C 0.5874 0.39279 0.0628 0.0
C2752 C 0.56948 0.40018 0.09111 0.0
C2753 C 0.52666 0.37783 0.09325 0.0
H2754 H 0.53293 0.38386 0.14926 0.0
C2755 C 0.47277 0.36093 0.15055 0.0
C2756 C 0.4708 0.37246 0.16649 0.0
C2757 C 0.48667 0.36285 0.13735 0.0
C2758 C 0.53087 0.3823 0.13365 0.0
H2759 H 0.57847 0.37036 0.04623 0.0
H2760 H 0.55328 0.36441 0.06751 0.0
H2761 H 0.55771 0.38772 0.12736 0.0
H2762 H 0.48197 0.39514 0.18086 0.0
H2763 H 0.50596 0.39866 0.15773 0.0
H2764 H 0.49974 0.37242 0.09966 0.0
C2765 C 0.56162 0.37545 0.07083 0.0
C2766 C 0.54511 0.3845 0.12106 0.0
C2767 C 0.57608 0.37879 0.0587 0.0
C2768 C 0.48295 0.38611 0.16868 0.0
C2769 C 0.49686 0.388 0.15554 0.0
C2770 C 0.51237 0.3756 0.10589 0.0
C2771 C 0.55824 0.38604 0.08731 0.0
C2772 C 0.54318 0.38253 0.10067 0.0
C2773 C 0.49901 0.3763 0.13979 0.0
C2774 C 0.51425 0.37803 0.12625 0.0
H2775 H 0.59223 0.41444 0.08257 0.0
H2776 H 0.56712 0.40883 0.10339 0.0
H2777 H 0.52465 0.37635 0.07763 0.0
H2778 H 0.46357 0.35037 0.14828 0.0
H2779 H 0.48795 0.35356 0.12547 0.0
C2780 C 0.84866 0.32927 0.32812 0.0
C2781 C 0.86013 0.33434 0.31309 0.0
C2782 C 0.85165 0.31406 0.33887 0.0
C2783 C 0.88594 0.28346 0.35438 0.0
H2784 H 0.84638 0.2542 0.36798 0.0
C2785 C 0.89349 0.22044 0.40114 0.0
C2786 C 0.88063 0.2174 0.41548 0.0
C2787 C 0.89134 0.23366 0.38715 0.0
C2788 C 0.85756 0.26229 0.36449 0.0
H2789 H 0.88377 0.32738 0.29749 0.0
H2790 H 0.88916 0.30063 0.31654 0.0
H2791 H 0.84224 0.27897 0.34608 0.0
H2792 H 0.85545 0.22607 0.42635 0.0
H2793 H 0.85173 0.24911 0.4021 0.0
H2794 H 0.9012 0.26697 0.37316 0.0
C2795 C 0.87783 0.30855 0.31996 0.0
C2796 C 0.85519 0.27648 0.35186 0.0
C2797 C 0.87473 0.32381 0.30902 0.0
C2798 C 0.86549 0.22782 0.41534 0.0
C2799 C 0.86336 0.24106 0.40139 0.0
C2800 C 0.88831 0.26926 0.3671 0.0
C2801 C 0.86625 0.30348 0.33497 0.0
C2802 C 0.86928 0.28743 0.3469 0.0
C2803 C 0.87628 0.24422 0.38713 0.0
C2804 C 0.87408 0.25865 0.37258 0.0
H2805 H 0.83733 0.33713 0.33171 0.0
H2806 H 0.84264 0.31074 0.35053 0.0
H2807 H 0.89703 0.29171 0.351 0.0
H2808 H 0.90521 0.2125 0.40065 0.0
H2809 H 0.90144 0.23552 0.37623 0.0
C2810 C 0.91828 0.59878 0.57849 0.0
C2811 C 0.91497 0.60907 0.56185 0.0
C2812 C 0.93258 0.60225 0.5906 0.0
C2813 C 0.97581 0.62336 0.59252 0.0
H2814 H 0.9682 0.62126 0.64866 0.0
C2815 C 0.03249 0.62192 0.64963 0.0
C2816 C 0.03021 0.63175 0.66689 0.0
C2817 C 0.01876 0.62005 0.63614 0.0
C2818 C 0.97057 0.62204 0.63304 0.0
H2819 H 0.9243 0.63091 0.5446 0.0
H2820 H 0.94954 0.63701 0.56586 0.0
H2821 H 0.94374 0.61683 0.62638 0.0
H2822 H 0.01155 0.64716 0.68346 0.0
H2823 H 0.98782 0.64406 0.65995 0.0
H2824 H 0.00272 0.62861 0.5993 0.0
C2825 C 0.94098 0.62622 0.56948 0.0
C2826 C 0.95655 0.61933 0.62024 0.0
C2827 C 0.92651 0.62279 0.55736 0.0
C2828 C 0.01388 0.63966 0.67025 0.0
C2829 C 1.00018 0.63773 0.65684 0.0
C2830 C 0.98992 0.62597 0.60537 0.0
C2831 C 0.94406 0.61607 0.58637 0.0
C2832 C 0.95899 0.61983 0.59982 0.0
C2833 C 0.00238 0.62784 0.63965 0.0
C2834 C 0.98747 0.62529 0.62581 0.0
H2835 H 0.90968 0.58808 0.58233 0.0
H2836 H 0.93471 0.594 0.60328 0.0
H2837 H 0.97816 0.62374 0.57687 0.0
H2838 H 0.04492 0.61576 0.64648 0.0
H2839 H 0.02088 0.61221 0.62314 0.0
C2840 C 0.62782 0.32472 0.7265 0.0
C2841 C 0.64196 0.33589 0.72258 0.0
C2842 C 0.62517 0.30962 0.71514 0.0
C2843 C 0.64866 0.27953 0.68127 0.0
H2844 H 0.60238 0.2673 0.6626 0.0
C2845 C 0.63818 0.23208 0.61671 0.0
C2846 C 0.62428 0.22009 0.61767 0.0
C2847 C 0.64005 0.24515 0.63089 0.0
C2848 C 0.61537 0.27039 0.6679 0.0
H2849 H 0.66437 0.34003 0.70371 0.0
H2850 H 0.65977 0.31401 0.68403 0.0
H2851 H 0.606 0.29192 0.6851 0.0
H2852 H 0.6014 0.21255 0.63438 0.0
H2853 H 0.60476 0.23532 0.65927 0.0
H2854 H 0.65809 0.25824 0.66389 0.0
C2855 C 0.65082 0.31663 0.69596 0.0
C2856 C 0.61743 0.2845 0.68083 0.0
C2857 C 0.6534 0.33165 0.7072 0.0
C2858 C 0.61235 0.22146 0.63329 0.0
C2859 C 0.61417 0.23463 0.64744 0.0
C2860 C 0.6466 0.26548 0.66835 0.0
C2861 C 0.63671 0.30536 0.69976 0.0
C2862 C 0.63416 0.28944 0.68741 0.0
C2863 C 0.62804 0.24666 0.64641 0.0
C2864 C 0.62997 0.26089 0.66123 0.0
H2865 H 0.6188 0.32765 0.73829 0.0
H2866 H 0.61423 0.30118 0.71854 0.0
H2867 H 0.66169 0.28269 0.68636 0.0
H2868 H 0.6477 0.23132 0.605 0.0
H2869 H 0.65078 0.2543 0.62947 0.0
C2870 C 0.92666 0.37876 0.97475 0.0
C2871 C 0.91483 0.39207 0.96965 0.0
C2872 C 0.9411 0.37509 0.9627 0.0
C2873 C 0.95638 0.38039 0.91157 0.0
H2874 H 0.00276 0.3729 0.93293 0.0
C2875 C 0.01424 0.36009 0.86241 0.0
C2876 C 0.03038 0.36844 0.86558 0.0
C2877 C 1.00048 0.36204 0.8757 0.0
C2878 C 0.9899 0.37503 0.92674 0.0
H2879 H 0.90893 0.41204 0.94809 0.0
H2880 H 0.93391 0.40571 0.92728 0.0
H2881 H 0.9781 0.37796 0.95511 0.0
H2882 H 0.04468 0.38524 0.88553 0.0
H2883 H 0.02053 0.38887 0.90864 0.0
H2884 H 0.96808 0.37782 0.88326 0.0
C2885 C 0.93204 0.39796 0.94039 0.0
C2886 C 0.97574 0.37774 0.93946 0.0
C2887 C 0.91777 0.40166 0.95242 0.0
C2888 C 0.0324 0.37874 0.88252 0.0
C2889 C 0.01861 0.38065 0.8959 0.0
C2890 C 0.97047 0.3776 0.8989 0.0
C2891 C 0.94386 0.38457 0.94527 0.0
C2892 C 0.95884 0.38064 0.932 0.0
C2893 C 0.00243 0.37241 0.89258 0.0
C2894 C 0.98744 0.37499 0.90629 0.0
H2895 H 0.92472 0.37117 0.98796 0.0
H2896 H 0.94991 0.36464 0.96682 0.0
H2897 H 0.94352 0.38238 0.90532 0.0
H2898 H 0.0121 0.35222 0.84943 0.0
H2899 H 0.98828 0.35535 0.87276 0.0
C2900 C 0.86697 0.76809 0.11389 0.0
C2901 C 0.87955 0.78129 0.11635 0.0
C2902 C 0.86563 0.75439 0.12734 0.0
C2903 C 0.87745 0.74052 0.17778 0.0
H2904 H 0.86848 0.69439 0.15653 0.0
C2905 C 0.87468 0.67665 0.22523 0.0
C2906 C 0.86069 0.66543 0.22074 0.0
C2907 C 0.8783 0.69114 0.21323 0.0
C2908 C 0.87089 0.7072 0.16273 0.0
H2909 H 0.90044 0.79053 0.13519 0.0
H2910 H 0.89813 0.76653 0.15871 0.0
H2911 H 0.87204 0.71904 0.13441 0.0
H2912 H 0.83939 0.66075 0.2004 0.0
H2913 H 0.8456 0.68579 0.17974 0.0
H2914 H 0.87621 0.72848 0.2062 0.0
C2915 C 0.88918 0.76689 0.14642 0.0
C2916 C 0.87288 0.72136 0.15004 0.0
C2917 C 0.8905 0.78066 0.13293 0.0
C2918 C 0.85032 0.66908 0.20424 0.0
C2919 C 0.85396 0.68339 0.19228 0.0
C2920 C 0.87549 0.72626 0.19054 0.0
C2921 C 0.87688 0.75345 0.14364 0.0
C2922 C 0.87585 0.73828 0.15737 0.0
C2923 C 0.86806 0.69454 0.19648 0.0
C2924 C 0.87185 0.70949 0.18315 0.0
H2925 H 0.85809 0.76835 0.10151 0.0
H2926 H 0.8557 0.74453 0.12497 0.0
H2927 H 0.87966 0.75337 0.18395 0.0
H2928 H 0.88285 0.67418 0.23791 0.0
H2929 H 0.88928 0.69948 0.21683 0.0
C2930 C 0.57558 0.62244 0.47543 0.0
C2931 C 0.58687 0.60838 0.4715 0.0
C2932 C 0.56114 0.62573 0.46322 0.0
C2933 C 0.54475 0.61645 0.41297 0.0
H2934 H 0.49938 0.62897 0.434 0.0
C2935 C 0.48277 0.61537 0.36483 0.0
C2936 C 0.47069 0.62909 0.36698 0.0
C2937 C 0.49662 0.61337 0.37807 0.0
C2938 C 0.51201 0.62566 0.42786 0.0
H2939 H 0.59167 0.58655 0.45196 0.0
H2940 H 0.56661 0.59209 0.43099 0.0
H2941 H 0.52418 0.62495 0.45622 0.0
H2942 H 0.46351 0.65118 0.3852 0.0
H2943 H 0.48779 0.64781 0.40816 0.0
H2944 H 0.53269 0.61708 0.38468 0.0
C2945 C 0.56896 0.60082 0.44321 0.0
C2946 C 0.52624 0.62339 0.44062 0.0
C2947 C 0.58329 0.59755 0.45536 0.0
C2948 C 0.47267 0.64058 0.38295 0.0
C2949 C 0.4865 0.63854 0.39625 0.0
C2950 C 0.53057 0.61871 0.40027 0.0
C2951 C 0.55776 0.61503 0.44682 0.0
C2952 C 0.54275 0.61853 0.43334 0.0
C2953 C 0.49878 0.62501 0.39387 0.0
C2954 C 0.51395 0.62315 0.40753 0.0
H2955 H 0.57799 0.63097 0.48782 0.0
H2956 H 0.55283 0.63683 0.4664 0.0
H2957 H 0.55734 0.6131 0.40678 0.0
H2958 H 0.48179 0.60637 0.35263 0.0
H2959 H 0.50566 0.60264 0.37591 0.0
C2960 C 0.37288 0.21855 0.13309 0.0
C2961 C 0.3833 0.22035 0.11622 0.0
C2962 C 0.37118 0.23239 0.14644 0.0
C2963 C 0.37494 0.28043 0.14929 0.0
H2964 H 0.37446 0.27313 0.20554 0.0
C2965 C 0.35121 0.33354 0.2024 0.0
C2966 C 0.36094 0.33663 0.21952 0.0
C2967 C 0.3548 0.31914 0.19052 0.0
C2968 C 0.37471 0.27538 0.18987 0.0
H2969 H 0.39997 0.23827 0.10018 0.0
H2970 H 0.39717 0.26219 0.12347 0.0
H2971 H 0.37923 0.24827 0.18351 0.0
H2972 H 0.38193 0.32688 0.23781 0.0
H2973 H 0.38825 0.30145 0.21693 0.0
H2974 H 0.37044 0.30745 0.15553 0.0
C2975 C 0.39025 0.25012 0.12638 0.0
C2976 C 0.37726 0.26113 0.17725 0.0
C2977 C 0.392 0.23631 0.11311 0.0
C2978 C 0.37425 0.32482 0.22468 0.0
C2979 C 0.37779 0.31025 0.21278 0.0
C2980 C 0.3723 0.2946 0.16186 0.0
C2981 C 0.37974 0.2484 0.14316 0.0
C2982 C 0.37734 0.26348 0.15678 0.0
C2983 C 0.36819 0.30735 0.19545 0.0
C2984 C 0.37201 0.29226 0.1823 0.0
H2985 H 0.36611 0.20641 0.13604 0.0
H2986 H 0.36286 0.23067 0.15913 0.0
H2987 H 0.37476 0.28272 0.13363 0.0
H2988 H 0.34083 0.34235 0.19804 0.0
H2989 H 0.34696 0.31716 0.17747 0.0
C2990 C 0.53004 0.64025 0.88407 0.0
C2991 C 0.53164 0.62909 0.86776 0.0
C2992 C 0.5161 0.6384 0.89723 0.0
C2993 C 0.47131 0.62039 0.90016 0.0
H2994 H 0.47762 0.62414 0.95642 0.0
C2995 C 0.41779 0.59865 0.95362 0.0
C2996 C 0.41443 0.60884 0.97032 0.0
C2997 C 0.43224 0.60205 0.94176 0.0
C2998 C 0.47559 0.62329 0.94073 0.0
H2999 H 0.5198 0.60713 0.85267 0.0
H3000 H 0.49573 0.60374 0.8757 0.0
H3001 H 0.50269 0.62802 0.93459 0.0
H3002 H 0.42381 0.63043 0.98795 0.0
H3003 H 0.44923 0.63654 0.96703 0.0
H3004 H 0.44431 0.61563 0.90618 0.0
C3005 C 0.50515 0.61405 0.87823 0.0
C3006 C 0.48997 0.62549 0.92822 0.0
C3007 C 0.5191 0.61586 0.86514 0.0
C3008 C 0.42605 0.6224 0.97511 0.0
C3009 C 0.44063 0.62583 0.96319 0.0
C3010 C 0.45699 0.61822 0.91263 0.0
C3011 C 0.50336 0.6254 0.89434 0.0
C3012 C 0.48805 0.62381 0.90778 0.0
C3013 C 0.4438 0.61577 0.94624 0.0
C3014 C 0.45896 0.61937 0.93309 0.0
H3015 H 0.53955 0.65048 0.88665 0.0
H3016 H 0.51509 0.64741 0.90942 0.0
H3017 H 0.46924 0.61943 0.8845 0.0
H3018 H 0.40915 0.58803 0.94956 0.0
H3019 H 0.43443 0.5938 0.9291 0.0
C3020 C 0.10939 0.77935 0.63308 0.0
C3021 C 0.12189 0.78212 0.61827 0.0
C3022 C 0.11161 0.76602 0.64694 0.0
C3023 C 0.14528 0.7364 0.66823 0.0
H3024 H 0.10537 0.70826 0.68344 0.0
C3025 C 0.15324 0.66961 0.70564 0.0
C3026 C 0.1419 0.66506 0.721 0.0
C3027 C 0.15046 0.68473 0.69464 0.0
C3028 C 0.1166 0.71615 0.67957 0.0
H3029 H 0.14649 0.77284 0.60644 0.0
H3030 H 0.15034 0.74961 0.63045 0.0
H3031 H 0.10128 0.733 0.66127 0.0
H3032 H 0.11874 0.67292 0.73697 0.0
H3033 H 0.11372 0.6995 0.71753 0.0
H3034 H 0.16064 0.71937 0.6862 0.0
C3035 C 0.13895 0.75795 0.63163 0.0
C3036 C 0.11427 0.73035 0.66684 0.0
C3037 C 0.13674 0.7713 0.61781 0.0
C3038 C 0.12766 0.67606 0.72517 0.0
C3039 C 0.12477 0.69123 0.714 0.0
C3040 C 0.1476 0.7222 0.68086 0.0
C3041 C 0.12638 0.75507 0.64635 0.0
C3042 C 0.12863 0.74053 0.66078 0.0
C3043 C 0.1362 0.69576 0.69863 0.0
C3044 C 0.13335 0.71172 0.68648 0.0
H3045 H 0.0979 0.78759 0.63406 0.0
H3046 H 0.1018 0.76439 0.65822 0.0
H3047 H 0.15658 0.74415 0.66428 0.0
H3048 H 0.1643 0.66138 0.70198 0.0
H3049 H 0.15935 0.68763 0.68274 0.0
C3050 C 0.97136 0.36279 0.38292 0.0
C3051 C 0.97074 0.37381 0.36642 0.0
C3052 C 0.98455 0.36471 0.39705 0.0
C3053 C 0.01685 0.39666 0.41592 0.0
H3054 H 0.04147 0.35594 0.43556 0.0
C3055 C 0.08314 0.40287 0.45454 0.0
C3056 C 0.08691 0.39217 0.47072 0.0
C3057 C 0.06808 0.40022 0.44338 0.0
C3058 C 0.03456 0.36743 0.43047 0.0
H3059 H 0.98332 0.39575 0.35213 0.0
H3060 H 0.00629 0.39904 0.3766 0.0
H3061 H 0.01672 0.35219 0.41322 0.0
H3062 H 0.0778 0.3702 0.48791 0.0
H3063 H 0.05121 0.36553 0.46833 0.0
H3064 H 0.03467 0.41193 0.43294 0.0
C3065 C 0.99657 0.38893 0.3787 0.0
C3066 C 0.02038 0.36529 0.41764 0.0
C3067 C 0.98349 0.38693 0.36455 0.0
C3068 C 0.07523 0.37865 0.4755 0.0
C3069 C 0.06007 0.37595 0.46424 0.0
C3070 C 0.03095 0.3988 0.42874 0.0
C3071 C 0.99733 0.37782 0.39511 0.0
C3072 C 0.01155 0.3799 0.40992 0.0
C3073 C 0.05627 0.3868 0.44808 0.0
C3074 C 0.04024 0.38425 0.43589 0.0
H3075 H 0.96184 0.35245 0.38474 0.0
H3076 H 0.98468 0.35601 0.40957 0.0
H3077 H 0.01013 0.40819 0.41061 0.0
H3078 H 0.09192 0.41332 0.45036 0.0
H3079 H 0.06583 0.4086 0.43084 0.0
C3080 C 0.36449 0.77156 0.41513 0.0
C3081 C 0.37932 0.78242 0.41475 0.0
C3082 C 0.36237 0.75824 0.40126 0.0
C3083 C 0.38718 0.73072 0.36605 0.0
H3084 H 0.34087 0.71973 0.34654 0.0
C3085 C 0.37397 0.67631 0.30775 0.0
C3086 C 0.3597 0.66534 0.31188 0.0
C3087 C 0.37683 0.6915 0.31889 0.0
C3088 C 0.3539 0.72256 0.35191 0.0
H3089 H 0.40333 0.78796 0.39906 0.0
H3090 H 0.39957 0.7648 0.37482 0.0
H3091 H 0.34485 0.7445 0.36849 0.0
H3092 H 0.33724 0.66175 0.33082 0.0
H3093 H 0.34215 0.68803 0.35002 0.0
H3094 H 0.39615 0.70863 0.34947 0.0
C3095 C 0.38972 0.76638 0.38607 0.0
C3096 C 0.35617 0.73676 0.36457 0.0
C3097 C 0.39187 0.7797 0.39998 0.0
C3098 C 0.34832 0.66995 0.32719 0.0
C3099 C 0.35108 0.6851 0.33816 0.0
C3100 C 0.3849 0.71651 0.35331 0.0
C3101 C 0.37497 0.75541 0.38657 0.0
C3102 C 0.3728 0.7409 0.37208 0.0
C3103 C 0.36535 0.69609 0.3342 0.0
C3104 C 0.36817 0.71208 0.34634 0.0
H3105 H 0.35471 0.77305 0.42647 0.0
H3106 H 0.35099 0.74988 0.40237 0.0
H3107 H 0.40016 0.73338 0.37166 0.0
H3108 H 0.38293 0.67311 0.296 0.0
H3109 H 0.3879 0.69974 0.31539 0.0
C3110 C 0.07528 0.62357 0.05839 0.0
C3111 C 0.08616 0.6092 0.06243 0.0
C3112 C 0.06006 0.62641 0.06947 0.0
C3113 C 0.02871 0.60337 0.10191 0.0
H3114 H 0.01823 0.64943 0.1224 0.0
C3115 C 0.97962 0.61357 0.16504 0.0
C3116 C 0.96895 0.62853 0.16492 0.0
C3117 C 0.99293 0.61148 0.15117 0.0
C3118 C 0.02078 0.63652 0.11657 0.0
H3119 H 0.08959 0.58655 0.08113 0.0
H3120 H 0.06324 0.59142 0.10023 0.0
H3121 H 0.04304 0.6455 0.10031 0.0
H3122 H 0.96369 0.65284 0.14967 0.0
H3123 H 0.98682 0.64914 0.12539 0.0
H3124 H 0.0066 0.59431 0.11817 0.0
C3125 C 0.06627 0.60045 0.08849 0.0
C3126 C 0.03503 0.63428 0.10389 0.0
C3127 C 0.08146 0.59771 0.07758 0.0
C3128 C 0.97181 0.64126 0.15038 0.0
C3129 C 0.98511 0.63915 0.13646 0.0
C3130 C 0.01446 0.60561 0.1145 0.0
C3131 C 0.05536 0.61482 0.08462 0.0
C3132 C 0.03934 0.61761 0.09668 0.0
C3133 C 0.99592 0.62427 0.13672 0.0
C3134 C 0.01045 0.62216 0.12228 0.0
H3135 H 0.07856 0.63262 0.04676 0.0
H3136 H 0.05188 0.63756 0.06605 0.0
H3137 H 0.03145 0.5904 0.09633 0.0
H3138 H 0.97801 0.60364 0.17621 0.0
H3139 H 0.00116 0.59999 0.1521 0.0
C3140 C 0.15224 0.33284 0.8294 0.0
C3141 C 0.1419 0.33632 0.81284 0.0
C3142 C 0.1488 0.31844 0.84134 0.0
C3143 C 0.12705 0.27539 0.8429 0.0
H3144 H 0.1316 0.28195 0.89905 0.0
C3145 C 0.11031 0.2213 0.90013 0.0
C3146 C 0.12164 0.21968 0.9163 0.0
C3147 C 0.11211 0.23517 0.88686 0.0
C3148 C 0.13045 0.27981 0.88341 0.0
H3149 H 0.11998 0.32719 0.79554 0.0
H3150 H 0.11381 0.30187 0.81661 0.0
H3151 H 0.13541 0.30673 0.87716 0.0
H3152 H 0.14382 0.23144 0.93106 0.0
H3153 H 0.14712 0.2554 0.90786 0.0
H3154 H 0.12213 0.24837 0.84928 0.0
C3155 C 0.12467 0.31033 0.82028 0.0
C3156 C 0.13261 0.29405 0.87083 0.0
C3157 C 0.12813 0.32485 0.80826 0.0
C3158 C 0.13497 0.23215 0.91869 0.0
C3159 C 0.13672 0.24604 0.9055 0.0
C3160 C 0.12485 0.26108 0.85554 0.0
C3161 C 0.13488 0.30707 0.8371 0.0
C3162 C 0.13122 0.29201 0.85039 0.0
C3163 C 0.12522 0.24784 0.88951 0.0
C3164 C 0.12678 0.26308 0.87595 0.0
H3165 H 0.16302 0.34134 0.83329 0.0
H3166 H 0.15718 0.31618 0.85389 0.0
H3167 H 0.12601 0.27331 0.82725 0.0
H3168 H 0.1 0.21184 0.89771 0.0
H3169 H 0.10297 0.23618 0.87478 0.0
C3170 C 0.52924 0.36083 0.65045 0.0
C3171 C 0.53104 0.37215 0.66661 0.0
C3172 C 0.51534 0.3628 0.63723 0.0
C3173 C 0.4709 0.38167 0.63384 0.0
H3174 H 0.47726 0.37699 0.5777 0.0
C3175 C 0.41768 0.40319 0.57966 0.0
C3176 C 0.41431 0.39278 0.56313 0.0
C3177 C 0.43207 0.39985 0.59167 0.0
C3178 C 0.47522 0.37811 0.59335 0.0
H3179 H 0.51959 0.39448 0.68137 0.0
H3180 H 0.49559 0.39807 0.65824 0.0
H3181 H 0.50222 0.37299 0.5997 0.0
H3182 H 0.4236 0.37085 0.54599 0.0
H3183 H 0.44886 0.36483 0.56719 0.0
H3184 H 0.44399 0.3868 0.62761 0.0
C3185 C 0.50482 0.38755 0.65587 0.0
C3186 C 0.48953 0.37584 0.60597 0.0
C3187 C 0.51874 0.38563 0.66902 0.0
C3188 C 0.42585 0.37905 0.55868 0.0
C3189 C 0.44034 0.37568 0.57077 0.0
C3190 C 0.45664 0.38391 0.62127 0.0
C3191 C 0.50284 0.37607 0.6399 0.0
C3192 C 0.48759 0.37782 0.62637 0.0
C3193 C 0.44353 0.38597 0.58754 0.0
C3194 C 0.45863 0.38241 0.60084 0.0
H3195 H 0.53857 0.35041 0.64803 0.0
H3196 H 0.51418 0.35368 0.62517 0.0
H3197 H 0.46881 0.38288 0.64948 0.0
H3198 H 0.4091 0.41394 0.58344 0.0
H3199 H 0.43427 0.40827 0.60419 0.0
C3200 C 0.13499 0.06585 0.27288 0.0
C3201 C 0.1194 0.07509 0.26972 0.0
C3202 C 0.13536 0.04766 0.27124 0.0
C3203 C 0.10898 0.00928 0.25426 0.0
H3204 H 0.13925 0.98422 0.29025 0.0
C3205 C 0.10357 0.93511 0.26991 0.0
C3206 C 0.11876 0.92587 0.26477 0.0
C3207 C 0.10386 0.95334 0.27116 0.0
C3208 C 0.13076 0.99111 0.28014 0.0
H3209 H 0.09204 0.07269 0.26203 0.0
H3210 H 0.09239 0.04097 0.26004 0.0
H3211 H 0.1393 0.01609 0.29021 0.0
H3212 H 0.14628 0.92825 0.25775 0.0
H3213 H 0.14694 0.96014 0.26082 0.0
H3214 H 0.09999 0.98407 0.2449 0.0
C3215 C 0.10454 0.04765 0.26316 0.0
C3216 C 0.13088 0.00937 0.27992 0.0
C3217 C 0.10428 0.06589 0.26438 0.0
C3218 C 0.13442 0.93508 0.26184 0.0
C3219 C 0.1348 0.95326 0.26355 0.0
C3220 C 0.10859 0.99103 0.25482 0.0
C3221 C 0.12003 0.03824 0.26687 0.0
C3222 C 0.12005 0.01874 0.2669 0.0
C3223 C 0.11944 0.96254 0.26778 0.0
C3224 C 0.11952 0.98183 0.26771 0.0
H3225 H 0.14685 0.07267 0.27698 0.0
H3226 H 0.14767 0.04101 0.27367 0.0
H3227 H 0.10071 0.01591 0.24375 0.0
H3228 H 0.0913 0.92833 0.27213 0.0
H3229 H 0.09189 0.96029 0.27453 0.0
C3230 C 0.18497 0.88268 0.52286 0.0
C3231 C 0.17544 0.8673 0.51938 0.0
C3232 C 0.20316 0.88277 0.52104 0.0
C3233 C 0.24057 0.85535 0.52803 0.0
H3234 H 0.26591 0.88778 0.49497 0.0
C3235 C 0.31548 0.85102 0.51827 0.0
C3236 C 0.32478 0.86638 0.51421 0.0
C3237 C 0.29723 0.8513 0.51939 0.0
C3238 C 0.25911 0.87885 0.50462 0.0
H3239 H 0.17735 0.84005 0.51094 0.0
H3240 H 0.20931 0.84012 0.50833 0.0
H3241 H 0.23404 0.8881 0.49501 0.0
H3242 H 0.32253 0.89422 0.50914 0.0
H3243 H 0.29085 0.89499 0.51227 0.0
H3244 H 0.2654 0.84654 0.53839 0.0
C3245 C 0.20261 0.8521 0.51223 0.0
C3246 C 0.24085 0.87895 0.50444 0.0
C3247 C 0.18438 0.8521 0.51361 0.0
C3248 C 0.31563 0.88217 0.51222 0.0
C3249 C 0.29743 0.88254 0.51376 0.0
C3250 C 0.25883 0.85548 0.52855 0.0
C3251 C 0.21214 0.86739 0.51614 0.0
C3252 C 0.23145 0.86713 0.51605 0.0
C3253 C 0.28791 0.86703 0.51686 0.0
C3254 C 0.26839 0.86718 0.51678 0.0
H3255 H 0.17841 0.89452 0.52747 0.0
H3256 H 0.21027 0.89469 0.52421 0.0
H3257 H 0.23354 0.84627 0.53732 0.0
H3258 H 0.32222 0.83863 0.51969 0.0
H3259 H 0.29046 0.83903 0.52152 0.0
C3260 C 0.36781 0.93548 0.78052 0.0
C3261 C 0.38078 0.9258 0.77079 0.0
C3262 C 0.36739 0.95365 0.77909 0.0
C3263 C 0.36412 0.99151 0.76748 0.0
H3264 H 0.40826 0.01633 0.76658 0.0
C3265 C 0.36798 0.06563 0.75403 0.0
C3266 C 0.38129 0.07527 0.7632 0.0
C3267 C 0.36743 0.04748 0.7557 0.0
C3268 C 0.39581 0.00963 0.7671 0.0
H3269 H 0.40296 0.92742 0.75119 0.0
H3270 H 0.4019 0.95925 0.74808 0.0
H3271 H 0.40815 0.98455 0.76713 0.0
H3272 H 0.40398 0.07363 0.7821 0.0
H3273 H 0.40274 0.04184 0.78562 0.0
H3274 H 0.35178 0.01654 0.76825 0.0
C3275 C 0.39236 0.95282 0.75731 0.0
C3276 C 0.39574 0.99136 0.76704 0.0
C3277 C 0.39288 0.93459 0.75891 0.0
C3278 C 0.39363 0.06648 0.77479 0.0
C3279 C 0.393 0.04827 0.77663 0.0
C3280 C 0.36419 0.00975 0.76774 0.0
C3281 C 0.3798 0.9626 0.76768 0.0
C3282 C 0.37989 0.98206 0.76719 0.0
C3283 C 0.38007 0.03852 0.7668 0.0
C3284 C 0.38003 0.01907 0.76746 0.0
H3285 H 0.35831 0.92907 0.78982 0.0
H3286 H 0.35767 0.96069 0.7875 0.0
H3287 H 0.35164 0.98482 0.76738 0.0
H3288 H 0.35827 0.07204 0.74497 0.0
H3289 H 0.35743 0.04046 0.74769 0.0
C3290 C 0.18522 0.14895 0.01895 0.0
C3291 C 0.17607 0.13364 1.01413 0.0
C3292 C 0.20347 0.14877 0.02018 0.0
C3293 C 0.24136 0.12201 0.02957 0.0
H3294 H 0.26617 0.15205 0.99324 0.0
C3295 C 0.31608 0.11769 0.0224 0.0
C3296 C 0.32537 0.13325 0.01931 0.0
C3297 C 0.29789 0.11737 0.02073 0.0
C3298 C 0.25953 0.14378 1.00373 0.0
H3299 H 0.17861 0.10604 1.0076 0.0
H3300 H 0.21051 0.10559 1.01062 0.0
H3301 H 0.2343 0.15269 0.99427 0.0
H3302 H 0.32304 0.16062 1.01168 0.0
H3303 H 0.29128 0.16036 1.00962 0.0
H3304 H 0.26635 0.11355 0.03974 0.0
C3305 C 0.20357 0.11773 1.01313 0.0
C3306 C 0.24127 0.14412 1.00422 0.0
C3307 C 0.18537 0.11799 1.01145 0.0
C3308 C 0.3162 0.1484 1.014 0.0
C3309 C 0.29795 0.1482 1.01274 0.0
C3310 C 0.25963 0.12193 0.02941 0.0
C3311 C 0.21277 0.1332 0.01708 0.0
C3312 C 0.23207 0.1332 0.01708 0.0
C3313 C 0.28851 0.13273 1.01639 0.0
C3314 C 0.269 0.13274 1.0164 0.0
H3315 H 0.17837 0.16121 0.02097 0.0
H3316 H 0.21034 0.16083 0.02333 0.0
H3317 H 0.23448 0.11354 0.03967 0.0
H3318 H 0.32285 0.10581 0.02651 0.0
H3319 H 0.29121 0.10509 0.02311 0.0
C3320 C 0.86701 0.0655 0.78158 0.0
C3321 C 0.87996 0.07519 0.77187 0.0
C3322 C 0.86663 0.04733 0.78014 0.0
C3323 C 0.89502 0.00963 0.76811 0.0
H3324 H 0.85104 0.9845 0.76902 0.0
C3325 C 0.86729 0.93545 0.75473 0.0
C3326 C 0.88052 0.92576 0.764 0.0
C3327 C 0.86676 0.95359 0.75643 0.0
C3328 C 0.86346 0.99128 0.7686 0.0
H3329 H 0.90217 0.07361 0.7523 0.0
H3330 H 0.9012 0.04178 0.74919 0.0
H3331 H 0.85092 0.01622 0.76822 0.0
H3332 H 0.90308 0.92733 0.7831 0.0
H3333 H 0.90187 0.95912 0.78667 0.0
H3334 H 0.90754 0.98465 0.76766 0.0
C3335 C 0.89163 0.04819 0.75841 0.0
C3336 C 0.86339 0.00952 0.76838 0.0
C3337 C 0.8921 0.06642 0.76001 0.0
C3338 C 0.8928 0.93451 0.77573 0.0
C3339 C 0.89218 0.95272 0.77759 0.0
C3340 C 0.89509 0.99137 0.76813 0.0
C3341 C 0.87906 0.0384 0.76874 0.0
C3342 C 0.87916 0.01895 0.7682 0.0
C3343 C 0.87933 0.96251 0.76766 0.0
C3344 C 0.8793 0.98195 0.76838 0.0
H3345 H 0.85747 0.07189 0.79086 0.0
H3346 H 0.85691 0.04028 0.78852 0.0
H3347 H 0.90743 0.01644 0.76828 0.0
H3348 H 0.85764 0.92907 0.74557 0.0
H3349 H 0.85682 0.96064 0.74835 0.0
C3350 C 0.68596 0.14849 0.51371 0.0
C3351 C 0.67673 0.13335 0.51892 0.0
C3352 C 0.7042 0.14822 0.51251 0.0
C3353 C 0.74239 0.12176 0.52929 0.0
H3354 H 0.76791 0.15255 0.49443 0.0
C3355 C 0.81665 0.11755 0.51173 0.0
C3356 C 0.82601 0.13315 0.51441 0.0
C3357 C 0.79845 0.11738 0.51337 0.0
C3358 C 0.76089 0.14398 0.50431 0.0
H3359 H 0.67915 0.10588 0.52597 0.0
H3360 H 0.71079 0.10504 0.52269 0.0
H3361 H 0.73604 0.15201 0.4932 0.0
H3362 H 0.82382 0.16074 0.52123 0.0
H3363 H 0.79184 0.16051 0.52352 0.0
H3364 H 0.76747 0.11326 0.53969 0.0
C3365 C 0.70415 0.11736 0.52034 0.0
C3366 C 0.74263 0.14369 0.5037 0.0
C3367 C 0.68596 0.11774 0.52195 0.0
C3368 C 0.81691 0.14851 0.51921 0.0
C3369 C 0.79867 0.14842 0.5204 0.0
C3370 C 0.76065 0.12179 0.52958 0.0
C3371 C 0.71359 0.1327 0.51613 0.0
C3372 C 0.7331 0.13264 0.51626 0.0
C3373 C 0.78931 0.13289 0.51727 0.0
C3374 C 0.77002 0.13298 0.51719 0.0
H3375 H 0.67916 0.16075 0.51144 0.0
H3376 H 0.71092 0.16036 0.50949 0.0
H3377 H 0.73561 0.11337 0.53954 0.0
H3378 H 0.82336 0.10556 0.50791 0.0
H3379 H 0.79146 0.10527 0.51084 0.0
C3380 C 0.60719 0.06675 0.27444 0.0
C3381 C 0.61968 0.07549 0.26303 0.0
C3382 C 0.60765 0.04852 0.27611 0.0
C3383 C 0.63622 0.00985 0.26697 0.0
H3384 H 0.59211 0.98496 0.26634 0.0
C3385 C 0.60706 0.93486 0.25839 0.0
C3386 C 0.61923 0.92608 0.27021 0.0
C3387 C 0.60765 0.95308 0.25667 0.0
C3388 C 0.60456 0.99168 0.26624 0.0
H3389 H 0.64276 0.07215 0.24494 0.0
H3390 H 0.64326 0.04058 0.24731 0.0
H3391 H 0.59218 0.01674 0.26592 0.0
H3392 H 0.6419 0.92931 0.28898 0.0
H3393 H 0.64265 0.96088 0.2865 0.0
H3394 H 0.64863 0.98486 0.2664 0.0
C3395 C 0.63329 0.04763 0.25534 0.0
C3396 C 0.6046 0.00995 0.26638 0.0
C3397 C 0.63294 0.06579 0.25386 0.0
C3398 C 0.63234 0.93572 0.27973 0.0
C3399 C 0.63283 0.95387 0.2782 0.0
C3400 C 0.63619 0.99162 0.26658 0.0
C3401 C 0.62053 0.03871 0.26627 0.0
C3402 C 0.62044 0.01927 0.26678 0.0
C3403 C 0.62036 0.96283 0.26686 0.0
C3404 C 0.62036 0.98228 0.26631 0.0
H3405 H 0.59688 0.07395 0.28173 0.0
H3406 H 0.59782 0.04212 0.28498 0.0
H3407 H 0.64868 0.01654 0.26752 0.0
H3408 H 0.59687 0.92771 0.25083 0.0
H3409 H 0.59806 0.95952 0.24749 0.0
C3410 C 0.68551 0.85224 0.02006 0.0
C3411 C 0.67621 0.86741 1.01506 0.0
C3412 C 0.70375 0.85258 0.02125 0.0
C3413 C 0.74173 0.87937 1.00477 0.0
H3414 H 0.76753 0.84853 0.03939 0.0
C3415 C 0.81589 0.88411 0.02265 0.0
C3416 C 0.8254 0.8686 0.01987 0.0
C3417 C 0.7977 0.88413 0.02092 0.0
C3418 C 0.76042 0.85711 0.02958 0.0
H3419 H 0.67849 0.89497 1.0084 0.0
H3420 H 0.71012 0.8959 1.01171 0.0
H3421 H 0.73566 0.8488 0.04057 0.0
H3422 H 0.8235 0.84106 1.01271 0.0
H3423 H 0.79153 0.84103 1.01025 0.0
H3424 H 0.76673 0.88815 0.99449 0.0
C3425 C 0.70354 0.88353 1.01388 0.0
C3426 C 0.74217 0.85725 0.03016 0.0
C3427 C 0.68536 0.88309 1.01227 0.0
C3428 C 0.81647 0.85321 1.01483 0.0
C3429 C 0.79824 0.85315 1.01354 0.0
C3430 C 0.75998 0.87948 1.00451 0.0
C3431 C 0.71305 0.86818 0.01786 0.0
C3432 C 0.73254 0.86833 0.0177 0.0
C3433 C 0.78873 0.86857 1.0168 0.0
C3434 C 0.76945 0.86829 1.01682 0.0
H3435 H 0.67877 0.83994 0.02214 0.0
H3436 H 0.71054 0.84043 0.0241 0.0
H3437 H 0.73487 0.88778 0.99459 0.0
H3438 H 0.82248 0.89612 0.02664 0.0
H3439 H 0.79058 0.89615 0.02355 0.0
C3440 C 0.633 0.56595 0.77206 0.0
C3441 C 0.61733 0.57521 0.76952 0.0
C3442 C 0.63329 0.54775 0.77049 0.0
C3443 C 0.60641 0.50937 0.75455 0.0
H3444 H 0.63772 0.48431 0.7894 0.0
C3445 C 0.60158 0.43506 0.76932 0.0
C3446 C 0.61689 0.42588 0.76449 0.0
C3447 C 0.60179 0.4533 0.7706 0.0
C3448 C 0.62894 0.49119 0.7796 0.0
H3449 H 0.58972 0.57282 0.76301 0.0
H3450 H 0.58997 0.54108 0.76109 0.0
H3451 H 0.63772 0.51617 0.78941 0.0
H3452 H 0.64451 0.42838 0.75804 0.0
H3453 H 0.64499 0.46026 0.76108 0.0
H3454 H 0.59722 0.48417 0.74542 0.0
C3455 C 0.60222 0.54776 0.76369 0.0
C3456 C 0.62903 0.50945 0.77941 0.0
C3457 C 0.60202 0.566 0.76487 0.0
C3458 C 0.63255 0.43515 0.76187 0.0
C3459 C 0.63283 0.45335 0.76358 0.0
C3460 C 0.60608 0.49112 0.75506 0.0
C3461 C 0.61781 0.53834 0.76677 0.0
C3462 C 0.61783 0.51883 0.7668 0.0
C3463 C 0.61738 0.46258 0.76752 0.0
C3464 C 0.61738 0.48189 0.76753 0.0
H3465 H 0.645 0.57276 0.77561 0.0
H3466 H 0.64565 0.54108 0.77242 0.0
H3467 H 0.59783 0.51602 0.74437 0.0
H3468 H 0.58932 0.42823 0.77132 0.0
H3469 H 0.58974 0.46018 0.77376 0.0
C3470 C 0.81642 0.38485 1.01118 0.0
C3471 C 0.82594 0.36948 1.01482 0.0
C3472 C 0.79822 0.38496 1.01288 0.0
C3473 C 0.76083 0.35799 1.00539 0.0
H3474 H 0.73551 0.38904 0.04013 0.0
C3475 C 0.68594 0.35305 1.01535 0.0
C3476 C 0.67662 0.3682 0.02032 0.0
C3477 C 0.70419 0.35342 1.0141 0.0
C3478 C 0.74229 0.38052 0.03001 0.0
H3479 H 0.82398 0.34227 0.02338 0.0
H3480 H 0.79201 0.34236 0.02574 0.0
H3481 H 0.76737 0.38951 0.03989 0.0
H3482 H 0.67887 0.39577 0.02696 0.0
H3483 H 0.71048 0.39678 0.02353 0.0
H3484 H 0.73599 0.34947 0.99476 0.0
C3485 C 0.79873 0.35432 0.02184 0.0
C3486 C 0.76056 0.3807 0.03008 0.0
C3487 C 0.81698 0.35432 0.02059 0.0
C3488 C 0.68575 0.38389 0.02311 0.0
C3489 C 0.70393 0.38438 0.02142 0.0
C3490 C 0.74256 0.35807 1.00498 0.0
C3491 C 0.78923 0.3696 0.0178 0.0
C3492 C 0.76994 0.36935 0.01788 0.0
C3493 C 0.71348 0.36905 0.01741 0.0
C3494 C 0.733 0.36927 0.01736 0.0
H3495 H 0.82301 0.39667 1.00656 0.0
H3496 H 0.79111 0.39686 1.00964 0.0
H3497 H 0.76787 0.34928 0.99567 0.0
H3498 H 0.67922 0.34073 1.01329 0.0
H3499 H 0.71098 0.34128 1.01125 0.0
C3500 C 0.86802 0.56551 0.25383 0.0
C3501 C 0.88143 0.57509 0.26291 0.0
C3502 C 0.86743 0.54736 0.25546 0.0
C3503 C 0.86411 0.50965 0.26764 0.0
H3504 H 0.90794 0.48423 0.26649 0.0
C3505 C 0.86763 0.43545 0.28103 0.0
C3506 C 0.88039 0.42565 0.27111 0.0
C3507 C 0.86725 0.45361 0.27943 0.0
C3508 C 0.89557 0.4911 0.26656 0.0
H3509 H 0.90428 0.57333 0.28156 0.0
H3510 H 0.90297 0.54153 0.28498 0.0
H3511 H 0.9082 0.51601 0.26578 0.0
H3512 H 0.90223 0.42704 0.25102 0.0
H3513 H 0.90126 0.45885 0.24766 0.0
H3514 H 0.85144 0.48478 0.26763 0.0
C3515 C 0.89318 0.54802 0.27612 0.0
C3516 C 0.89573 0.50937 0.26652 0.0
C3517 C 0.89385 0.56624 0.27434 0.0
C3518 C 0.89232 0.43431 0.2589 0.0
C3519 C 0.89185 0.45252 0.25714 0.0
C3520 C 0.86395 0.4914 0.26749 0.0
C3521 C 0.88013 0.53833 0.2664 0.0
C3522 C 0.88 0.51888 0.26708 0.0
C3523 C 0.8795 0.46243 0.26768 0.0
C3524 C 0.87967 0.48188 0.26702 0.0
H3525 H 0.85825 0.57198 0.2449 0.0
H3526 H 0.85733 0.54039 0.24755 0.0
H3527 H 0.85174 0.51651 0.2683 0.0
H3528 H 0.85826 0.42914 0.29058 0.0
H3529 H 0.8577 0.46075 0.28797 0.0
C3530 C 0.68547 0.61803 0.51202 0.0
C3531 C 0.67609 0.63368 0.51438 0.0
C3532 C 0.70367 0.61787 0.5137 0.0
C3533 C 0.74133 0.64487 0.50493 0.0
H3534 H 0.76657 0.61324 0.53911 0.0
C3535 C 0.8163 0.649 0.51465 0.0
C3536 C 0.82553 0.63368 0.5192 0.0
C3537 C 0.79805 0.64881 0.5135 0.0
C3538 C 0.7598 0.62193 0.52916 0.0
H3539 H 0.67828 0.66135 0.52071 0.0
H3540 H 0.71025 0.66114 0.52313 0.0
H3541 H 0.7347 0.61316 0.53916 0.0
H3542 H 0.82313 0.60599 0.52506 0.0
H3543 H 0.79143 0.60535 0.52193 0.0
H3544 H 0.7662 0.65322 0.49424 0.0
C3545 C 0.70344 0.64901 0.52018 0.0
C3546 C 0.74153 0.62197 0.52938 0.0
C3547 C 0.68519 0.64909 0.51892 0.0
C3548 C 0.81629 0.618 0.52161 0.0
C3549 C 0.79808 0.61772 0.52007 0.0
C3550 C 0.7596 0.6446 0.5044 0.0
C3551 C 0.71283 0.63343 0.51735 0.0
C3552 C 0.73216 0.63351 0.51736 0.0
C3553 C 0.78864 0.6332 0.51649 0.0
C3554 C 0.76912 0.63318 0.51658 0.0
H3555 H 0.67875 0.60599 0.50843 0.0
H3556 H 0.71065 0.60572 0.5114 0.0
H3557 H 0.73434 0.65373 0.49532 0.0
H3558 H 0.82311 0.66131 0.51288 0.0
H3559 H 0.79134 0.66106 0.51097 0.0
C3560 C 0.36864 0.56567 0.27395 0.0
C3561 C 0.38424 0.57495 0.27089 0.0
C3562 C 0.36831 0.54749 0.27219 0.0
C3563 C 0.39471 0.50965 0.2802 0.0
H3564 H 0.36355 0.48494 0.245 0.0
C3565 C 0.39886 0.43486 0.26964 0.0
C3566 C 0.38366 0.42572 0.26446 0.0
C3567 C 0.39863 0.45309 0.27108 0.0
C3568 C 0.37209 0.49155 0.25524 0.0
H3569 H 0.41166 0.57261 0.26333 0.0
H3570 H 0.41118 0.54064 0.26086 0.0
H3571 H 0.3636 0.5168 0.24536 0.0
H3572 H 0.35612 0.42823 0.25769 0.0
H3573 H 0.35538 0.45986 0.26138 0.0
H3574 H 0.40275 0.48465 0.29081 0.0
C3575 C 0.3992 0.54754 0.26436 0.0
C3576 C 0.37221 0.50982 0.25525 0.0
C3577 C 0.39944 0.56578 0.26567 0.0
C3578 C 0.36804 0.435 0.26167 0.0
C3579 C 0.3677 0.45318 0.26352 0.0
C3580 C 0.39434 0.49139 0.28052 0.0
C3581 C 0.38367 0.53827 0.26779 0.0
C3582 C 0.38362 0.51898 0.26761 0.0
C3583 C 0.3831 0.46254 0.26775 0.0
C3584 C 0.38309 0.48205 0.26796 0.0
H3585 H 0.35678 0.57243 0.27813 0.0
H3586 H 0.35621 0.54057 0.27497 0.0
H3587 H 0.40345 0.51651 0.29005 0.0
H3588 H 0.41113 0.42803 0.27171 0.0
H3589 H 0.41083 0.45974 0.27408 0.0
C3590 C 0.31634 0.64833 0.01913 0.0
C3591 C 0.32549 0.63318 1.01378 0.0
C3592 C 0.29809 0.64813 0.02037 0.0
C3593 C 0.25978 0.62183 1.00358 0.0
H3594 H 0.2344 0.6524 0.03883 0.0
C3595 C 0.18565 0.61743 0.0219 0.0
C3596 C 0.17624 0.63299 0.0191 0.0
C3597 C 0.20384 0.61727 0.02017 0.0
C3598 C 0.24139 0.64388 0.02886 0.0
H3599 H 0.32294 0.60577 1.00645 0.0
H3600 H 0.29133 0.60504 1.00986 0.0
H3601 H 0.26628 0.65193 0.0398 0.0
H3602 H 0.17835 0.66052 1.01196 0.0
H3603 H 0.21031 0.66032 1.00953 0.0
H3604 H 0.23466 0.6133 0.99335 0.0
C3605 C 0.29801 0.61732 1.01228 0.0
C3606 C 0.25965 0.64364 0.02931 0.0
C3607 C 0.31619 0.61764 1.01061 0.0
C3608 C 0.18528 0.64833 1.01409 0.0
C3609 C 0.20352 0.64826 1.01281 0.0
C3610 C 0.24152 0.6218 1.00346 0.0
C3611 C 0.28864 0.63267 1.01665 0.0
C3612 C 0.26913 0.63266 1.01661 0.0
C3613 C 0.21292 0.63277 1.01606 0.0
C3614 C 0.23221 0.6329 1.016 0.0
H3615 H 0.3232 0.66053 0.02149 0.0
H3616 H 0.29142 0.66029 0.02352 0.0
H3617 H 0.26652 0.6135 0.99322 0.0
H3618 H 0.17897 0.60546 0.02587 0.0
H3619 H 0.21088 0.6052 0.02278 0.0
C3620 C 0.1023 0.43485 0.76507 0.0
C3621 C 0.11759 0.42575 0.77016 0.0
C3622 C 0.10247 0.45308 0.76365 0.0
C3623 C 0.12939 0.4909 0.75429 0.0
H3624 H 0.09872 0.51602 0.7897 0.0
C3625 C 0.13346 0.56572 0.76085 0.0
C3626 C 0.11783 0.57499 0.76358 0.0
C3627 C 0.13379 0.54754 0.76264 0.0
C3628 C 0.10717 0.50929 0.77946 0.0
H3629 H 0.14514 0.42837 0.77696 0.0
H3630 H 0.14557 0.46023 0.77365 0.0
H3631 H 0.09811 0.48416 0.78898 0.0
H3632 H 0.09034 0.57266 0.77066 0.0
H3633 H 0.09064 0.54094 0.77293 0.0
H3634 H 0.13801 0.51579 0.74406 0.0
C3635 C 0.13346 0.45326 0.77107 0.0
C3636 C 0.10684 0.49103 0.77914 0.0
C3637 C 0.13321 0.43508 0.77293 0.0
C3638 C 0.10261 0.56583 0.76864 0.0
C3639 C 0.10284 0.5476 0.77001 0.0
C3640 C 0.12946 0.50916 0.75427 0.0
C3641 C 0.11801 0.46242 0.76683 0.0
C3642 C 0.118 0.48171 0.76662 0.0
C3643 C 0.11839 0.53816 0.76675 0.0
C3644 C 0.11841 0.51865 0.76694 0.0
H3645 H 0.09008 0.42797 0.76295 0.0
H3646 H 0.09044 0.45992 0.76027 0.0
H3647 H 0.13804 0.48393 0.74444 0.0
H3648 H 0.14539 0.5725 0.75699 0.0
H3649 H 0.14613 0.54086 0.76056 0.0
C3650 C 0.18552 0.35205 0.5188 0.0
C3651 C 0.17642 0.36729 0.51365 0.0
C3652 C 0.20378 0.35214 0.51992 0.0
C3653 C 0.24217 0.37837 0.50326 0.0
H3654 H 0.26752 0.34752 0.53829 0.0
C3655 C 0.31614 0.38295 0.52212 0.0
C3656 C 0.32571 0.36748 0.51929 0.0
C3657 C 0.29796 0.38296 0.52021 0.0
C3658 C 0.26055 0.3561 0.52836 0.0
H3659 H 0.17907 0.39473 0.50656 0.0
H3660 H 0.21071 0.39525 0.50975 0.0
H3661 H 0.23564 0.34802 0.53919 0.0
H3662 H 0.32387 0.33997 0.51196 0.0
H3663 H 0.29191 0.33992 0.50923 0.0
H3664 H 0.26731 0.38695 0.49318 0.0
C3665 C 0.20398 0.38299 0.5121 0.0
C3666 C 0.24228 0.35637 0.52878 0.0
C3667 C 0.18578 0.3828 0.51056 0.0
C3668 C 0.31682 0.3521 0.51411 0.0
C3669 C 0.29858 0.35203 0.51266 0.0
C3670 C 0.26044 0.37836 0.50317 0.0
C3671 C 0.2133 0.36757 0.51628 0.0
C3672 C 0.23281 0.36748 0.51619 0.0
C3673 C 0.28903 0.36742 0.51589 0.0
C3674 C 0.26974 0.36718 0.51565 0.0
H3675 H 0.17861 0.33987 0.5211 0.0
H3676 H 0.2104 0.33992 0.52292 0.0
H3677 H 0.23545 0.38679 0.49298 0.0
H3678 H 0.32267 0.39495 0.52627 0.0
H3679 H 0.29082 0.39497 0.52284 0.0
C3680 C 0.1111 0.14439 0.06663 0.0
C3681 C 0.11329 0.12766 0.0584 0.0
C3682 C 0.11058 0.14659 0.08711 0.0
C3683 C 0.12599 0.124 0.13195 0.0
H3684 H 0.0979 0.15791 0.16006 0.0
C3685 C 0.1392 0.13729 0.21319 0.0
C3686 C 0.12476 0.13817 0.22589 0.0
C3687 C 0.13697 0.13804 0.19287 0.0
C3688 C 0.10578 0.14832 0.15243 0.0
H3689 H 0.11535 0.10005 0.06528 0.0
H3690 H 0.11402 0.10383 0.10056 0.0
H3691 H 0.09443 0.1547 0.12447 0.0
H3692 H 0.09663 0.14141 0.22705 0.0
H3693 H 0.09269 0.14255 0.1914 0.0
H3694 H 0.13715 0.11733 0.15964 0.0
C3695 C 0.11325 0.11534 0.09137 0.0
C3696 C 0.1039 0.14659 0.132 0.0
C3697 C 0.11388 0.11316 0.07105 0.0
C3698 C 0.10805 0.14076 0.21771 0.0
C3699 C 0.1058 0.14141 0.19725 0.0
C3700 C 0.12789 0.12576 0.15222 0.0
C3701 C 0.11218 0.13211 0.09976 0.0
C3702 C 0.11394 0.13431 0.12149 0.0
C3703 C 0.12021 0.13954 0.18455 0.0
C3704 C 0.11789 0.13796 0.16281 0.0
H3705 H 0.1107 0.15584 0.05733 0.0
H3706 H 0.10976 0.1597 0.09301 0.0
H3707 H 0.13418 0.11461 0.12443 0.0
H3708 H 0.1523 0.13551 0.21891 0.0
H3709 H 0.14844 0.13704 0.18364 0.0
C3710 C 0.11299 0.88797 0.46297 0.0
C3711 C 0.11247 0.87349 0.47565 0.0
C3712 C 0.11231 0.88575 0.44266 0.0
C3713 C 0.10295 0.85443 0.40214 0.0
H3714 H 0.13639 0.88341 0.37452 0.0
C3715 C 0.10734 0.86011 0.31645 0.0
C3716 C 0.12409 0.86255 0.30837 0.0
C3717 C 0.10503 0.85946 0.3369 0.0
C3718 C 0.12708 0.87506 0.38194 0.0
H3719 H 0.1099 0.84532 0.4768 0.0
H3720 H 0.10886 0.84138 0.44114 0.0
H3721 H 0.13333 0.8863 0.40971 0.0
H3722 H 0.15164 0.86492 0.31549 0.0
H3723 H 0.14768 0.8634 0.35074 0.0
H3724 H 0.09698 0.84302 0.3741 0.0
C3725 C 0.10967 0.85451 0.44701 0.0
C3726 C 0.12513 0.87691 0.40219 0.0
C3727 C 0.11026 0.85675 0.46747 0.0
C3728 C 0.13852 0.86325 0.32114 0.0
C3729 C 0.13623 0.86251 0.34144 0.0
C3730 C 0.10488 0.8526 0.38173 0.0
C3731 C 0.11124 0.86896 0.43433 0.0
C3732 C 0.11301 0.8667 0.41262 0.0
C3733 C 0.11942 0.86119 0.34967 0.0
C3734 C 0.11706 0.86286 0.37137 0.0
H3735 H 0.11447 0.90109 0.46872 0.0
H3736 H 0.11306 0.89724 0.43343 0.0
H3737 H 0.09344 0.84638 0.40966 0.0
H3738 H 0.09594 0.8596 0.30706 0.0
H3739 H 0.0919 0.85846 0.34269 0.0
C3740 C 0.36421 0.86237 0.71273 0.0
C3741 C 0.37843 0.86252 0.72584 0.0
C3742 C 0.36691 0.86096 0.6925 0.0
C3743 C 0.39907 0.8715 0.65468 0.0
H3744 H 0.36949 0.84336 0.62095 0.0
C3745 C 0.38855 0.88549 0.57212 0.0
C3746 C 0.38785 0.87129 0.55901 0.0
C3747 C 0.3899 0.88274 0.59234 0.0
C3748 C 0.378 0.85116 0.63016 0.0
H3749 H 0.40667 0.86094 0.72783 0.0
H3750 H 0.41138 0.85873 0.69239 0.0
H3751 H 0.36674 0.84093 0.65658 0.0
H3752 H 0.38843 0.84304 0.55698 0.0
H3753 H 0.39053 0.83822 0.59246 0.0
H3754 H 0.40992 0.88215 0.62826 0.0
C3755 C 0.39813 0.85963 0.69787 0.0
C3756 C 0.37632 0.84986 0.65057 0.0
C3757 C 0.39541 0.86075 0.71819 0.0
C3758 C 0.38907 0.85426 0.56664 0.0
C3759 C 0.39012 0.8515 0.58696 0.0
C3760 C 0.40056 0.87299 0.63427 0.0
C3761 C 0.38391 0.85993 0.68476 0.0
C3762 C 0.3867 0.86016 0.6631 0.0
C3763 C 0.39032 0.86572 0.60007 0.0
C3764 C 0.38991 0.86298 0.62174 0.0
H3765 H 0.35095 0.86373 0.71808 0.0
H3766 H 0.35567 0.86138 0.68283 0.0
H3767 H 0.40716 0.87972 0.66388 0.0
H3768 H 0.38761 0.89879 0.56677 0.0
H3769 H 0.38988 0.89398 0.602 0.0
C3770 C 0.36438 0.13834 0.8211 0.0
C3771 C 0.37862 0.13804 0.80804 0.0
C3772 C 0.36706 0.13956 0.84136 0.0
C3773 C 0.39898 0.12818 0.87923 0.0
H3774 H 0.36981 0.15659 0.91309 0.0
C3775 C 0.3885 0.11408 0.96184 0.0
C3776 C 0.38802 0.12826 0.97496 0.0
C3777 C 0.38979 0.11683 0.9416 0.0
C3778 C 0.3782 0.14871 0.90385 0.0
H3779 H 0.40688 0.13914 0.80618 0.0
H3780 H 0.41157 0.14102 0.84166 0.0
H3781 H 0.36714 0.15929 0.87747 0.0
H3782 H 0.38889 0.15651 0.977 0.0
H3783 H 0.39089 0.16133 0.94154 0.0
H3784 H 0.40964 0.1172 0.9056 0.0
C3785 C 0.39831 0.14039 0.83612 0.0
C3786 C 0.37657 0.15016 0.88343 0.0
C3787 C 0.39562 0.13947 0.81578 0.0
C3788 C 0.38936 0.14529 0.96734 0.0
C3789 C 0.39035 0.14806 0.94701 0.0
C3790 C 0.40042 0.12654 0.89964 0.0
C3791 C 0.38406 0.14023 0.84917 0.0
C3792 C 0.38681 0.13978 0.87086 0.0
C3793 C 0.39035 0.13386 0.93388 0.0
C3794 C 0.38992 0.13665 0.91221 0.0
H3795 H 0.35111 0.13725 0.81569 0.0
H3796 H 0.3558 0.13926 0.85097 0.0
H3797 H 0.40696 0.11989 0.86998 0.0
H3798 H 0.38748 0.10078 0.96718 0.0
H3799 H 0.38962 0.1056 0.93193 0.0
C3800 C 0.86235 0.86425 0.82144 0.0
C3801 C 0.87683 0.86336 0.80877 0.0
C3802 C 0.86457 0.86376 0.84176 0.0
C3803 C 0.8959 0.8542 0.8823 0.0
H3804 H 0.86703 0.88772 0.91 0.0
C3805 C 0.89069 0.85856 0.96798 0.0
C3806 C 0.88817 0.87527 0.97614 0.0
C3807 C 0.89121 0.85629 0.94753 0.0
C3808 C 0.87535 0.87839 0.90256 0.0
H3809 H 0.90499 0.86041 0.8077 0.0
H3810 H 0.9089 0.85973 0.84335 0.0
H3811 H 0.86408 0.88469 0.87482 0.0
H3812 H 0.88551 0.9028 0.96915 0.0
H3813 H 0.88686 0.89892 0.93387 0.0
H3814 H 0.90737 0.84821 0.91029 0.0
C3815 C 0.89578 0.86067 0.83747 0.0
C3816 C 0.87346 0.87645 0.88231 0.0
C3817 C 0.89354 0.86106 0.81701 0.0
C3818 C 0.88725 0.88971 0.96342 0.0
C3819 C 0.88789 0.88746 0.94311 0.0
C3820 C 0.89778 0.85613 0.90271 0.0
C3821 C 0.88134 0.86252 0.85012 0.0
C3822 C 0.88363 0.8643 0.87184 0.0
C3823 C 0.88929 0.87068 0.93481 0.0
C3824 C 0.88757 0.86834 0.9131 0.0
H3825 H 0.84925 0.86582 0.81567 0.0
H3826 H 0.85308 0.86474 0.85096 0.0
H3827 H 0.9039 0.84466 0.87477 0.0
H3828 H 0.89135 0.84715 0.97734 0.0
H3829 H 0.89228 0.84317 0.94169 0.0
C3830 C 0.86161 0.13646 0.71353 0.0
C3831 C 0.876 0.1378 0.72629 0.0
C3832 C 0.86387 0.13706 0.69322 0.0
C3833 C 0.89503 0.14778 0.65292 0.0
H3834 H 0.86731 0.11357 0.62482 0.0
C3835 C 0.89038 0.14361 0.56716 0.0
C3836 C 0.88839 0.12687 0.55891 0.0
C3837 C 0.89074 0.14583 0.58763 0.0
C3838 C 0.87532 0.1231 0.63237 0.0
H3839 H 0.90405 0.14165 0.72753 0.0
H3840 H 0.90806 0.14251 0.69191 0.0
H3841 H 0.86413 0.11633 0.66 0.0
H3842 H 0.88651 0.09925 0.56578 0.0
H3843 H 0.88758 0.10304 0.60107 0.0
H3844 H 0.90644 0.15424 0.62505 0.0
C3845 C 0.89495 0.14114 0.6977 0.0
C3846 C 0.87329 0.12488 0.65262 0.0
C3847 C 0.89267 0.14064 0.71815 0.0
C3848 C 0.88784 0.11237 0.57156 0.0
C3849 C 0.88831 0.11456 0.59189 0.0
C3850 C 0.89706 0.146 0.63252 0.0
C3851 C 0.88062 0.13887 0.68496 0.0
C3852 C 0.88304 0.13727 0.66324 0.0
C3853 C 0.88917 0.13134 0.60027 0.0
C3854 C 0.88727 0.13355 0.62198 0.0
H3855 H 0.84854 0.13447 0.71922 0.0
H3856 H 0.85245 0.13574 0.68395 0.0
H3857 H 0.90272 0.15752 0.66057 0.0
H3858 H 0.89075 0.15507 0.55785 0.0
H3859 H 0.89139 0.15895 0.59352 0.0
C3860 C 0.61203 0.14599 0.46744 0.0
C3861 C 0.61339 0.12896 0.47504 0.0
C3862 C 0.61096 0.14877 0.44712 0.0
C3863 C 0.60077 0.12728 0.39973 0.0
H3864 H 0.63417 0.15986 0.37759 0.0
C3865 C 0.60582 0.13992 0.31584 0.0
C3866 C 0.62283 0.13838 0.30822 0.0
C3867 C 0.60306 0.14094 0.33617 0.0
C3868 C 0.6247 0.15078 0.38355 0.0
H3869 H 0.61386 0.10148 0.46724 0.0
H3870 H 0.61157 0.10632 0.43201 0.0
H3871 H 0.63146 0.15724 0.4132 0.0
H3872 H 0.65031 0.13748 0.31603 0.0
H3873 H 0.64551 0.13965 0.35127 0.0
H3874 H 0.59425 0.12058 0.37008 0.0
C3875 C 0.61145 0.11755 0.44169 0.0
C3876 C 0.62305 0.14938 0.40396 0.0
C3877 C 0.61282 0.11478 0.46191 0.0
C3878 C 0.63703 0.13866 0.32136 0.0
C3879 C 0.63429 0.13997 0.34159 0.0
C3880 C 0.60224 0.12887 0.37932 0.0
C3881 C 0.61089 0.13458 0.43398 0.0
C3882 C 0.6113 0.13737 0.41231 0.0
C3883 C 0.61726 0.14076 0.3493 0.0
C3884 C 0.61446 0.1404 0.37097 0.0
H3885 H 0.61257 0.15721 0.47711 0.0
H3886 H 0.61043 0.16205 0.44165 0.0
H3887 H 0.59153 0.11797 0.40569 0.0
H3888 H 0.59458 0.13961 0.30618 0.0
H3889 H 0.58979 0.14165 0.34163 0.0
C3890 C 0.61205 0.88605 0.07206 0.0
C3891 C 0.61276 0.87188 0.05893 0.0
C3892 C 0.61059 0.88326 0.09227 0.0
C3893 C 0.62224 0.85149 0.13003 0.0
H3894 H 0.59318 0.88019 0.16371 0.0
C3895 C 0.63607 0.86264 0.2126 0.0
C3896 C 0.62186 0.86292 0.22568 0.0
C3897 C 0.63335 0.86119 0.19237 0.0
C3898 C 0.60124 0.87193 0.15452 0.0
H3899 H 0.61208 0.84364 0.0568 0.0
H3900 H 0.60978 0.83874 0.09224 0.0
H3901 H 0.59049 0.8827 0.12809 0.0
H3902 H 0.59361 0.86151 0.22766 0.0
H3903 H 0.58886 0.85923 0.19222 0.0
H3904 H 0.63339 0.84115 0.15647 0.0
C3905 C 0.61027 0.85203 0.08679 0.0
C3906 C 0.59979 0.87346 0.13411 0.0
C3907 C 0.61143 0.85484 0.06649 0.0
C3908 C 0.60486 0.86122 0.21803 0.0
C3909 C 0.60212 0.86006 0.19771 0.0
C3910 C 0.62387 0.85015 0.15045 0.0
C3911 C 0.61008 0.86622 0.09994 0.0
C3912 C 0.61041 0.86341 0.1216 0.0
C3913 C 0.61634 0.86025 0.18462 0.0
C3914 C 0.61354 0.8605 0.16296 0.0
H3915 H 0.61305 0.89936 0.06676 0.0
H3916 H 0.61061 0.89447 0.10196 0.0
H3917 H 0.63072 0.84367 0.12084 0.0
H3918 H 0.64934 0.86392 0.21796 0.0
H3919 H 0.64458 0.86152 0.18272 0.0
C3920 C 0.63596 0.63892 0.71198 0.0
C3921 C 0.62182 0.63833 0.72515 0.0
C3922 C 0.63313 0.64027 0.69177 0.0
C3923 C 0.60128 0.62855 0.6541 0.0
H3924 H 0.62996 0.6574 0.62021 0.0
C3925 C 0.61249 0.61424 0.57168 0.0
C3926 C 0.6128 0.62835 0.55846 0.0
C3927 C 0.61098 0.61709 0.59188 0.0
C3928 C 0.6217 0.6494 0.62946 0.0
H3929 H 0.59356 0.63908 0.72729 0.0
H3930 H 0.58861 0.64119 0.69184 0.0
H3931 H 0.63253 0.66023 0.65583 0.0
H3932 H 0.61135 0.65656 0.5562 0.0
H3933 H 0.60896 0.66157 0.5916 0.0
H3934 H 0.59088 0.61729 0.62773 0.0
C3935 C 0.60191 0.6407 0.69728 0.0
C3936 C 0.62327 0.65093 0.64987 0.0
C3937 C 0.60475 0.63964 0.71759 0.0
C3938 C 0.61103 0.6454 0.56594 0.0
C3939 C 0.60981 0.64827 0.58623 0.0
C3940 C 0.5999 0.62683 0.63369 0.0
C3941 C 0.61607 0.64079 0.68411 0.0
C3942 C 0.61323 0.64037 0.66245 0.0
C3943 C 0.61 0.63415 0.59946 0.0
C3944 C 0.61024 0.63709 0.62111 0.0
H3945 H 0.64928 0.63791 0.71727 0.0
H3946 H 0.64433 0.64017 0.68207 0.0
H3947 H 0.59346 0.62012 0.66335 0.0
H3948 H 0.61385 0.60093 0.56646 0.0
H3949 H 0.61131 0.60593 0.60164 0.0
C3950 C 0.63606 0.36232 0.82202 0.0
C3951 C 0.62184 0.36283 0.80893 0.0
C3952 C 0.63335 0.36099 0.84225 0.0
C3953 C 0.60169 0.37274 0.88005 0.0
H3954 H 0.6306 0.34399 0.91388 0.0
C3955 C 0.6132 0.38715 0.96243 0.0
C3956 C 0.61353 0.37304 0.97566 0.0
C3957 C 0.61165 0.38429 0.94224 0.0
C3958 C 0.62228 0.35197 0.90465 0.0
H3959 H 0.59358 0.36198 0.80694 0.0
H3960 H 0.58883 0.35994 0.84242 0.0
H3961 H 0.633 0.3411 0.87826 0.0
H3962 H 0.61211 0.34483 0.97793 0.0
H3963 H 0.60967 0.33981 0.94254 0.0
H3964 H 0.5914 0.38403 0.90644 0.0
C3965 C 0.6021 0.36046 0.83691 0.0
C3966 C 0.62375 0.3504 0.88424 0.0
C3967 C 0.60482 0.36148 0.81658 0.0
C3968 C 0.61178 0.356 0.96819 0.0
C3969 C 0.61052 0.35311 0.9479 0.0
C3970 C 0.60041 0.37449 0.90047 0.0
C3971 C 0.61634 0.36044 0.85 0.0
C3972 C 0.61362 0.36091 0.87168 0.0
C3973 C 0.61067 0.36722 0.93466 0.0
C3974 C 0.61084 0.36427 0.91302 0.0
H3975 H 0.64935 0.36336 0.81665 0.0
H3976 H 0.64461 0.36115 0.8519 0.0
H3977 H 0.5938 0.38113 0.87082 0.0
H3978 H 0.61453 0.40046 0.96766 0.0
H3979 H 0.61194 0.39544 0.93247 0.0
C3980 C 0.8877 0.3897 0.0714 0.0
C3981 C 0.88852 0.37526 0.05866 0.0
C3982 C 0.88821 0.38742 0.09171 0.0
C3983 C 0.89756 0.35587 0.13208 0.0
H3984 H 0.86419 0.38483 0.15989 0.0
C3985 C 0.89327 0.36054 0.21772 0.0
C3986 C 0.8766 0.36312 0.22594 0.0
C3987 C 0.8955 0.36019 0.19726 0.0
C3988 C 0.87347 0.37648 0.15242 0.0
H3989 H 0.89139 0.34711 0.05743 0.0
H3990 H 0.89208 0.34308 0.09306 0.0
H3991 H 0.86728 0.38791 0.12473 0.0
H3992 H 0.84907 0.36615 0.21902 0.0
H3993 H 0.85287 0.36513 0.18372 0.0
H3994 H 0.90342 0.34422 0.15999 0.0
C3995 C 0.8912 0.35622 0.08726 0.0
C3996 C 0.87545 0.37845 0.13218 0.0
C3997 C 0.8908 0.35852 0.06681 0.0
C3998 C 0.86214 0.36435 0.21326 0.0
C3999 C 0.86434 0.3639 0.19293 0.0
C4000 C 0.89558 0.3539 0.15246 0.0
C4001 C 0.88938 0.37062 0.09998 0.0
C4002 C 0.88755 0.36825 0.12168 0.0
C4003 C 0.88109 0.36236 0.18459 0.0
C4004 C 0.88344 0.36416 0.16289 0.0
H4005 H 0.88616 0.40282 0.06568 0.0
H4006 H 0.88728 0.39888 0.10097 0.0
H4007 H 0.90706 0.34784 0.12452 0.0
H4008 H 0.9047 0.35962 0.22704 0.0
H4009 H 0.9086 0.35903 0.19141 0.0
C4010 C 0.86462 0.63809 0.32126 0.0
C4011 C 0.8788 0.63789 0.30813 0.0
C4012 C 0.86739 0.63941 0.3415 0.0
C4013 C 0.89955 0.62847 0.3792 0.0
H4014 H 0.87032 0.6568 0.41309 0.0
C4015 C 0.88913 0.61441 0.46177 0.0
C4016 C 0.88861 0.62859 0.47489 0.0
C4017 C 0.89045 0.61717 0.44155 0.0
C4018 C 0.87873 0.64895 0.40383 0.0
H4019 H 0.90705 0.63929 0.30609 0.0
H4020 H 0.91188 0.64134 0.34153 0.0
H4021 H 0.8675 0.65938 0.37747 0.0
H4022 H 0.88945 0.65684 0.47695 0.0
H4023 H 0.8915 0.66167 0.4415 0.0
H4024 H 0.91037 0.61763 0.40557 0.0
C4025 C 0.8986 0.64056 0.33607 0.0
C4026 C 0.87702 0.65033 0.38343 0.0
C4027 C 0.89582 0.63952 0.31575 0.0
C4028 C 0.88996 0.64562 0.46729 0.0
C4029 C 0.89098 0.6484 0.44697 0.0
C4030 C 0.90108 0.6269 0.39961 0.0
C4031 C 0.88442 0.6403 0.3492 0.0
C4032 C 0.88727 0.63997 0.37085 0.0
C4033 C 0.891 0.63419 0.43384 0.0
C4034 C 0.89055 0.63698 0.41218 0.0
H4035 H 0.85134 0.63684 0.31593 0.0
H4036 H 0.85618 0.63903 0.35118 0.0
H4037 H 0.90755 0.6202 0.36995 0.0
H4038 H 0.88809 0.60111 0.4671 0.0
H4039 H 0.8903 0.60594 0.43187 0.0
C4040 C 0.39487 0.36067 0.31613 0.0
C4041 C 0.37813 0.36283 0.30788 0.0
C4042 C 0.39707 0.36012 0.3366 0.0
C4043 C 0.37449 0.37552 0.38138 0.0
H4044 H 0.40836 0.34738 0.40955 0.0
C4045 C 0.38785 0.3888 0.46254 0.0
C4046 C 0.38855 0.37437 0.47528 0.0
C4047 C 0.38866 0.38654 0.44224 0.0
C4048 C 0.39879 0.35527 0.4019 0.0
H4049 H 0.35051 0.36481 0.31473 0.0
H4050 H 0.35428 0.36347 0.35002 0.0
H4051 H 0.40513 0.3439 0.37396 0.0
H4052 H 0.39157 0.34623 0.47654 0.0
H4053 H 0.39283 0.34223 0.44089 0.0
H4054 H 0.36786 0.38671 0.40906 0.0
C4055 C 0.3658 0.36272 0.34084 0.0
C4056 C 0.39704 0.35338 0.38147 0.0
C4057 C 0.36362 0.36336 0.32052 0.0
C4058 C 0.39106 0.35764 0.46716 0.0
C4059 C 0.39178 0.35535 0.44671 0.0
C4060 C 0.37626 0.37743 0.40165 0.0
C4061 C 0.38257 0.36168 0.34923 0.0
C4062 C 0.38477 0.36344 0.37096 0.0
C4063 C 0.39005 0.36975 0.43397 0.0
C4064 C 0.38846 0.36741 0.41224 0.0
H4065 H 0.40633 0.3603 0.30683 0.0
H4066 H 0.41018 0.35934 0.34252 0.0
H4067 H 0.3651 0.38372 0.37384 0.0
H4068 H 0.38615 0.40191 0.46823 0.0
H4069 H 0.38778 0.398 0.43297 0.0
C4070 C 0.36933 0.62522 0.21152 0.0
C4071 C 0.37934 0.63494 0.22502 0.0
C4072 C 0.37286 0.6259 0.19147 0.0
C4073 C 0.38782 0.6508 0.15092 0.0
H4074 H 0.39985 0.6062 0.12753 0.0
C4075 C 0.39497 0.64181 0.06608 0.0
C4076 C 0.38781 0.6263 0.05842 0.0
C4077 C 0.39693 0.64405 0.08646 0.0
C4078 C 0.39637 0.61876 0.1337 0.0
H4079 H 0.40063 0.65349 0.22766 0.0
H4080 H 0.40644 0.65507 0.19214 0.0
H4081 H 0.39702 0.60861 0.16298 0.0
H4082 H 0.37742 0.60087 0.06643 0.0
H4083 H 0.38042 0.60486 0.10132 0.0
H4084 H 0.38608 0.66074 0.12156 0.0
C4085 C 0.39598 0.64678 0.19743 0.0
C4086 C 0.39492 0.62014 0.15407 0.0
C4087 C 0.39266 0.64585 0.21772 0.0
C4088 C 0.38304 0.61301 0.07162 0.0
C4089 C 0.38492 0.61525 0.09182 0.0
C4090 C 0.389 0.64936 0.1304 0.0
C4091 C 0.38629 0.63653 0.18419 0.0
C4092 C 0.39029 0.63606 0.16287 0.0
C4093 C 0.39179 0.63082 0.09964 0.0
C4094 C 0.39283 0.63317 0.12146 0.0
H4095 H 0.35899 0.61662 0.21644 0.0
H4096 H 0.36514 0.61794 0.18158 0.0
H4097 H 0.38412 0.66319 0.15736 0.0
H4098 H 0.39875 0.65236 0.05639 0.0
H4099 H 0.40242 0.65617 0.09186 0.0
C4100 C 0.13806 0.637 0.82048 0.0
C4101 C 0.12356 0.63763 0.80781 0.0
C4102 C 0.13589 0.63771 0.8408 0.0
C4103 C 0.10473 0.64748 0.88135 0.0
H4104 H 0.13377 0.61417 0.9092 0.0
C4105 C 0.11066 0.64372 0.9671 0.0
C4106 C 0.11311 0.62704 0.97534 0.0
C4107 C 0.10998 0.64589 0.94662 0.0
C4108 C 0.1254 0.62345 0.90172 0.0
H4109 H 0.09538 0.64038 0.80672 0.0
H4110 H 0.09154 0.64146 0.84239 0.0
H4111 H 0.13649 0.61693 0.87396 0.0
H4112 H 0.11548 0.59945 0.96848 0.0
H4113 H 0.11391 0.60315 0.9332 0.0
H4114 H 0.09347 0.65372 0.90937 0.0
C4115 C 0.10465 0.64054 0.8365 0.0
C4116 C 0.12716 0.62522 0.88143 0.0
C4117 C 0.10684 0.63993 0.81603 0.0
C4118 C 0.11381 0.61253 0.9627 0.0
C4119 C 0.11304 0.61467 0.94238 0.0
C4120 C 0.103 0.64573 0.90179 0.0
C4121 C 0.11913 0.63891 0.84917 0.0
C4122 C 0.11693 0.63729 0.87091 0.0
C4123 C 0.11169 0.63141 0.93399 0.0
C4124 C 0.11328 0.6336 0.91224 0.0
H4125 H 0.15117 0.63545 0.81473 0.0
H4126 H 0.14741 0.6369 0.85 0.0
H4127 H 0.09668 0.65696 0.87376 0.0
H4128 H 0.11015 0.65519 0.97639 0.0
H4129 H 0.10897 0.65898 0.94071 0.0
C4130 C 0.10921 0.35497 0.71778 0.0
C4131 C 0.12314 0.36516 0.72502 0.0
C4132 C 0.10593 0.35396 0.69749 0.0
C4133 C 0.10774 0.37993 0.65417 0.0
H4134 H 0.1162 0.33939 0.62142 0.0
C4135 C 0.11913 0.38727 0.57168 0.0
C4136 C 0.11423 0.37404 0.55845 0.0
C4137 C 0.11738 0.38497 0.59188 0.0
C4138 C 0.11339 0.35076 0.63033 0.0
H4139 H 0.14469 0.38198 0.7163 0.0
H4140 H 0.13863 0.38051 0.68139 0.0
H4141 H 0.11831 0.33681 0.65721 0.0
H4142 H 0.10317 0.34803 0.55636 0.0
H4143 H 0.09971 0.34413 0.59184 0.0
H4144 H 0.10277 0.394 0.62773 0.0
C4145 C 0.13039 0.3732 0.69136 0.0
C4146 C 0.11466 0.34925 0.65083 0.0
C4147 C 0.13385 0.37396 0.71144 0.0
C4148 C 0.10705 0.35853 0.56607 0.0
C4149 C 0.10521 0.35624 0.58646 0.0
C4150 C 0.10621 0.38139 0.63382 0.0
C4151 C 0.11633 0.36337 0.68417 0.0
C4152 C 0.1123 0.36395 0.66287 0.0
C4153 C 0.11049 0.36941 0.59968 0.0
C4154 C 0.10959 0.367 0.62149 0.0
H4155 H 0.10069 0.34804 0.72778 0.0
H4156 H 0.09497 0.34632 0.69225 0.0
H4157 H 0.10576 0.39144 0.66316 0.0
H4158 H 0.12478 0.39941 0.56652 0.0
H4159 H 0.12199 0.39531 0.6014 0.0
loop_
_geom_bond_atom_site_label_1
_geom_bond_atom_site_label_2
_geom_bond_distance
_geom_bond_site_symmetry_2
_ccdc_geom_bond_type
Sm0 C2 2.846 . S
Sm0 O20 2.543 . S
Sm0 O21 2.450 . S
Sm0 O22 2.681 . S
Sm0 O23 2.464 . S
Sm0 O24 2.396 . S
Sm0 O28 2.386 . S
Sm0 O31 2.408 . S
Sm1 C11 2.846 . S
Sm1 O22 2.386 . S
Sm1 O25 2.408 . S
Sm1 O26 2.543 . S
Sm1 O27 2.450 . S
Sm1 O28 2.681 . S
Sm1 O29 2.464 . S
Sm1 O30 2.396 . S
C2 Sm0 2.846 . S
C2 C3 1.506 . S
C2 O20 1.261 . S
C2 O21 1.242 . S
C3 C2 1.506 . S
C3 C4 1.358 . S
C3 C8 1.382 . S
C4 C3 1.358 . S
C4 C5 1.385 . S
C4 H32 0.930 . S
C5 C4 1.385 . S
C5 C6 1.395 . S
C5 H33 0.929 . S
C6 C5 1.395 . S
C6 C7 1.335 . S
C7 C6 1.335 . S
C7 C8 1.398 . S
C7 H34 0.930 . S
C8 C3 1.382 . S
C8 C7 1.398 . S
C8 H35 0.929 . S
C9 O22 1.271 . S
C9 O23 1.251 . S
C10 O24 1.252 . S
C10 O25 1.272 . S
C11 Sm1 2.846 . S
C11 C12 1.506 . S
C11 O26 1.261 . S
C11 O27 1.242 . S
C12 C11 1.506 . S
C12 C13 1.358 . S
C12 C17 1.382 . S
C13 C12 1.358 . S
C13 C14 1.385 . S
C13 H36 0.930 . S
C14 C13 1.385 . S
C14 C15 1.395 . S
C14 H37 0.929 . S
C15 C14 1.395 . S
C15 C16 1.335 . S
C16 C15 1.335 . S
C16 C17 1.398 . S
C16 H38 0.930 . S
C17 C12 1.382 . S
C17 C16 1.398 . S
C17 H39 0.929 . S
C18 O28 1.271 . S
C18 O29 1.251 . S
C19 O30 1.252 . S
C19 O31 1.272 . S
O20 Sm0 2.543 . S
O20 C2 1.261 . S
O21 Sm0 2.450 . S
O21 C2 1.242 . S
O22 Sm0 2.681 . S
O22 Sm1 2.386 . S
O22 C9 1.271 . S
O23 Sm0 2.464 . S
O23 C9 1.251 . S
O24 Sm0 2.396 . S
O24 C10 1.252 . S
O25 Sm1 2.408 . S
O25 C10 1.272 . S
O26 Sm1 2.543 . S
O26 C11 1.261 . S
O27 Sm1 2.450 . S
O27 C11 1.242 . S
O28 Sm0 2.386 . S
O28 Sm1 2.681 . S
O28 C18 1.271 . S
O29 Sm1 2.464 . S
O29 C18 1.251 . S
O30 Sm1 2.396 . S
O30 C19 1.252 . S
O31 Sm0 2.408 . S
O31 C19 1.272 . S
H32 C4 0.930 . S
H33 C5 0.929 . S
H34 C7 0.930 . S
H35 C8 0.929 . S
H36 C13 0.930 . S
H37 C14 0.929 . S
H38 C16 0.930 . S
H39 C17 0.929 . S
Sm40 C42 2.846 . S
Sm40 O60 2.543 . S
Sm40 O61 2.450 . S
Sm40 O62 2.681 . S
Sm40 O63 2.464 . S
Sm40 O64 2.396 . S
Sm40 O68 2.386 . S
Sm40 O71 2.408 . S
Sm41 C51 2.846 . S
Sm41 O62 2.386 . S
Sm41 O65 2.408 . S
Sm41 O66 2.543 . S
Sm41 O67 2.450 . S
Sm41 O68 2.681 . S
Sm41 O69 2.464 . S
Sm41 O70 2.396 . S
C42 Sm40 2.846 . S
C42 C43 1.506 . S
C42 O60 1.261 . S
C42 O61 1.242 . S
C43 C42 1.506 . S
C43 C44 1.358 . S
C43 C48 1.382 . S
C44 C43 1.358 . S
C44 C45 1.385 . S
C44 H72 0.930 . S
C45 C44 1.385 . S
C45 C46 1.395 . S
C45 H73 0.929 . S
C46 C45 1.395 . S
C46 C47 1.335 . S
C47 C46 1.335 . S
C47 C48 1.398 . S
C47 H74 0.930 . S
C48 C43 1.382 . S
C48 C47 1.398 . S
C48 H75 0.929 . S
C49 O62 1.271 . S
C49 O63 1.251 . S
C50 O64 1.252 . S
C50 O65 1.272 . S
C51 Sm41 2.846 . S
C51 C52 1.506 . S
C51 O66 1.261 . S
C51 O67 1.242 . S
C52 C51 1.506 . S
C52 C53 1.358 . S
C52 C57 1.382 . S
C53 C52 1.358 . S
C53 C54 1.385 . S
C53 H76 0.930 . S
C54 C53 1.385 . S
C54 C55 1.395 . S
C54 H77 0.929 . S
C55 C54 1.395 . S
C55 C56 1.335 . S
C56 C55 1.335 . S
C56 C57 1.398 . S
C56 H78 0.930 . S
C57 C52 1.382 . S
C57 C56 1.398 . S
C57 H79 0.929 . S
C58 O68 1.271 . S
C58 O69 1.251 . S
C59 O70 1.252 . S
C59 O71 1.272 . S
O60 Sm40 2.543 . S
O60 C42 1.261 . S
O61 Sm40 2.450 . S
O61 C42 1.242 . S
O62 Sm40 2.681 . S
O62 Sm41 2.386 . S
O62 C49 1.271 . S
O63 Sm40 2.464 . S
O63 C49 1.251 . S
O64 Sm40 2.396 . S
O64 C50 1.252 . S
O65 Sm41 2.408 . S
O65 C50 1.272 . S
O66 Sm41 2.543 . S
O66 C51 1.261 . S
O67 Sm41 2.450 . S
O67 C51 1.242 . S
O68 Sm40 2.386 . S
O68 Sm41 2.681 . S
O68 C58 1.271 . S
O69 Sm41 2.464 . S
O69 C58 1.251 . S
O70 Sm41 2.396 . S
O70 C59 1.252 . S
O71 Sm40 2.408 . S
O71 C59 1.272 . S
H72 C44 0.930 . S
H73 C45 0.929 . S
H74 C47 0.930 . S
H75 C48 0.929 . S
H76 C53 0.930 . S
H77 C54 0.929 . S
H78 C56 0.930 . S
H79 C57 0.929 . S
Sm80 C82 2.846 . S
Sm80 O100 2.543 . S
Sm80 O101 2.450 . S
Sm80 O102 2.681 . S
Sm80 O103 2.464 . S
Sm80 O104 2.396 . S
Sm80 O108 2.386 . S
Sm80 O111 2.408 . S
Sm81 C91 2.846 . S
Sm81 O102 2.386 . S
Sm81 O105 2.408 . S
Sm81 O106 2.543 . S
Sm81 O107 2.450 . S
Sm81 O108 2.681 . S
Sm81 O109 2.464 . S
Sm81 O110 2.396 . S
C82 Sm80 2.846 . S
C82 C83 1.506 . S
C82 O100 1.261 . S
C82 O101 1.242 . S
C83 C82 1.506 . S
C83 C84 1.358 . S
C83 C88 1.382 . S
C84 C83 1.358 . S
C84 C85 1.385 . S
C84 H112 0.930 . S
C85 C84 1.385 . S
C85 C86 1.395 . S
C85 H113 0.929 . S
C86 C85 1.395 . S
C86 C87 1.335 . S
C87 C86 1.335 . S
C87 C88 1.398 . S
C87 H114 0.930 . S
C88 C83 1.382 . S
C88 C87 1.398 . S
C88 H115 0.929 . S
C89 O102 1.271 . S
C89 O103 1.251 . S
C90 O104 1.252 . S
C90 O105 1.272 . S
C91 Sm81 2.846 . S
C91 C92 1.506 . S
C91 O106 1.261 . S
C91 O107 1.242 . S
C92 C91 1.506 . S
C92 C93 1.358 . S
C92 C97 1.382 . S
C93 C92 1.358 . S
C93 C94 1.385 . S
C93 H116 0.930 . S
C94 C93 1.385 . S
C94 C95 1.395 . S
C94 H117 0.929 . S
C95 C94 1.395 . S
C95 C96 1.335 . S
C96 C95 1.335 . S
C96 C97 1.398 . S
C96 H118 0.930 . S
C97 C92 1.382 . S
C97 C96 1.398 . S
C97 H119 0.929 . S
C98 O108 1.271 . S
C98 O109 1.251 . S
C99 O110 1.252 . S
C99 O111 1.272 . S
O100 Sm80 2.543 . S
O100 C82 1.261 . S
O101 Sm80 2.450 . S
O101 C82 1.242 . S
O102 Sm80 2.681 . S
O102 Sm81 2.386 . S
O102 C89 1.271 . S
O103 Sm80 2.464 . S
O103 C89 1.251 . S
O104 Sm80 2.396 . S
O104 C90 1.252 . S
O105 Sm81 2.408 . S
O105 C90 1.272 . S
O106 Sm81 2.543 . S
O106 C91 1.261 . S
O107 Sm81 2.450 . S
O107 C91 1.242 . S
O108 Sm80 2.386 . S
O108 Sm81 2.681 . S
O108 C98 1.271 . S
O109 Sm81 2.464 . S
O109 C98 1.251 . S
O110 Sm81 2.396 . S
O110 C99 1.252 . S
O111 Sm80 2.408 . S
O111 C99 1.272 . S
H112 C84 0.930 . S
H113 C85 0.929 . S
H114 C87 0.930 . S
H115 C88 0.929 . S
H116 C93 0.930 . S
H117 C94 0.929 . S
H118 C96 0.930 . S
H119 C97 0.929 . S
Sm120 C122 2.808 1_554 S
Sm120 O140 2.543 1_554 S
Sm120 O141 2.450 . S
Sm120 O142 2.681 . S
Sm120 O143 2.464 . S
Sm120 O144 2.396 . S
Sm120 O148 2.386 . S
Sm120 O151 2.408 . S
Sm121 C131 2.846 . S
Sm121 O142 2.386 . S
Sm121 O145 2.447 . S
Sm121 O146 2.543 . S
Sm121 O147 2.450 . S
Sm121 O148 2.681 . S
Sm121 O149 2.464 . S
Sm121 O150 2.396 . S
C122 Sm120 2.808 1_556 S
C122 C123 1.543 . S
C122 O140 1.267 . S
C122 O141 1.201 1_556 S
C123 C122 1.543 . S
C123 C124 1.358 . S
C123 C128 1.382 . S
C124 C123 1.358 . S
C124 C125 1.385 . S
C124 H152 0.930 . S
C125 C124 1.385 . S
C125 C126 1.395 . S
C125 H153 0.929 . S
C126 C125 1.395 . S
C126 C127 1.335 . S
C127 C126 1.335 . S
C127 C128 1.398 . S
C127 H154 0.930 . S
C128 C123 1.382 . S
C128 C127 1.398 . S
C128 H155 0.929 . S
C129 O142 1.271 . S
C129 O143 1.251 . S
C130 O144 1.252 1_556 S
C130 O145 1.256 1_556 S
C131 Sm121 2.846 . S
C131 C132 1.506 . S
C131 O146 1.261 . S
C131 O147 1.242 . S
C132 C131 1.506 . S
C132 C133 1.358 . S
C132 C137 1.382 . S
C133 C132 1.358 . S
C133 C134 1.385 . S
C133 H156 0.930 . S
C134 C133 1.385 . S
C134 C135 1.395 . S
C134 H157 0.929 . S
C135 C134 1.395 . S
C135 C136 1.335 . S
C136 C135 1.335 . S
C136 C137 1.398 . S
C136 H158 0.930 . S
C137 C132 1.382 . S
C137 C136 1.398 . S
C137 H159 0.929 . S
C138 O148 1.271 . S
C138 O149 1.251 . S
C139 O150 1.252 . S
C139 O151 1.272 . S
O140 Sm120 2.543 1_556 S
O140 C122 1.267 . S
O141 Sm120 2.450 . S
O141 C122 1.201 1_554 S
O142 Sm120 2.681 . S
O142 Sm121 2.386 . S
O142 C129 1.271 . S
O143 Sm120 2.464 . S
O143 C129 1.251 . S
O144 Sm120 2.396 . S
O144 C130 1.252 1_554 S
O145 Sm121 2.447 . S
O145 C130 1.256 1_554 S
O146 Sm121 2.543 . S
O146 C131 1.261 . S
O147 Sm121 2.450 . S
O147 C131 1.242 . S
O148 Sm120 2.386 . S
O148 Sm121 2.681 . S
O148 C138 1.271 . S
O149 Sm121 2.464 . S
O149 C138 1.251 . S
O150 Sm121 2.396 . S
O150 C139 1.252 . S
O151 Sm120 2.408 . S
O151 C139 1.272 . S
H152 C124 0.930 . S
H153 C125 0.929 . S
H154 C127 0.930 . S
H155 C128 0.929 . S
H156 C133 0.930 . S
H157 C134 0.929 . S
H158 C136 0.930 . S
H159 C137 0.929 . S
Sm160 C162 2.846 . S
Sm160 O180 2.543 . S
Sm160 O181 2.450 . S
Sm160 O182 2.681 . S
Sm160 O183 2.464 . S
Sm160 O184 2.396 . S
Sm160 O188 2.386 . S
Sm160 O191 2.408 . S
Sm161 C171 2.846 . S
Sm161 O182 2.386 . S
Sm161 O185 2.408 . S
Sm161 O186 2.543 . S
Sm161 O187 2.450 . S
Sm161 O188 2.681 . S
Sm161 O189 2.464 . S
Sm161 O190 2.396 . S
C162 Sm160 2.846 . S
C162 C163 1.506 . S
C162 O180 1.261 . S
C162 O181 1.242 . S
C163 C162 1.506 . S
C163 C164 1.358 . S
C163 C168 1.382 . S
C164 C163 1.358 . S
C164 C165 1.385 . S
C164 H192 0.930 . S
C165 C164 1.385 . S
C165 C166 1.395 . S
C165 H193 0.929 . S
C166 C165 1.395 . S
C166 C167 1.335 . S
C167 C166 1.335 . S
C167 C168 1.398 . S
C167 H194 0.930 . S
C168 C163 1.382 . S
C168 C167 1.398 . S
C168 H195 0.929 . S
C169 O182 1.271 . S
C169 O183 1.251 . S
C170 O184 1.252 . S
C170 O185 1.272 . S
C171 Sm161 2.846 . S
C171 C172 1.506 . S
C171 O186 1.261 . S
C171 O187 1.242 . S
C172 C171 1.506 . S
C172 C173 1.358 . S
C172 C177 1.382 . S
C173 C172 1.358 . S
C173 C174 1.385 . S
C173 H196 0.930 . S
C174 C173 1.385 . S
C174 C175 1.395 . S
C174 H197 0.929 . S
C175 C174 1.395 . S
C175 C176 1.335 . S
C176 C175 1.335 . S
C176 C177 1.398 . S
C176 H198 0.930 . S
C177 C172 1.382 . S
C177 C176 1.398 . S
C177 H199 0.929 . S
C178 O188 1.271 . S
C178 O189 1.251 . S
C179 O190 1.252 . S
C179 O191 1.272 . S
O180 Sm160 2.543 . S
O180 C162 1.261 . S
O181 Sm160 2.450 . S
O181 C162 1.242 . S
O182 Sm160 2.681 . S
O182 Sm161 2.386 . S
O182 C169 1.271 . S
O183 Sm160 2.464 . S
O183 C169 1.251 . S
O184 Sm160 2.396 . S
O184 C170 1.252 . S
O185 Sm161 2.408 . S
O185 C170 1.272 . S
O186 Sm161 2.543 . S
O186 C171 1.261 . S
O187 Sm161 2.450 . S
O187 C171 1.242 . S
O188 Sm160 2.386 . S
O188 Sm161 2.681 . S
O188 C178 1.271 . S
O189 Sm161 2.464 . S
O189 C178 1.251 . S
O190 Sm161 2.396 . S
O190 C179 1.252 . S
O191 Sm160 2.408 . S
O191 C179 1.272 . S
H192 C164 0.930 . S
H193 C165 0.929 . S
H194 C167 0.930 . S
H195 C168 0.929 . S
H196 C173 0.930 . S
H197 C174 0.929 . S
H198 C176 0.930 . S
H199 C177 0.929 . S
Sm200 C202 2.846 . S
Sm200 O220 2.543 . S
Sm200 O221 2.450 . S
Sm200 O222 2.681 . S
Sm200 O223 2.464 . S
Sm200 O224 2.396 . S
Sm200 O228 2.386 . S
Sm200 O231 2.408 . S
Sm201 C211 2.846 . S
Sm201 O222 2.386 . S
Sm201 O225 2.408 . S
Sm201 O226 2.543 . S
Sm201 O227 2.450 . S
Sm201 O228 2.681 . S
Sm201 O229 2.464 . S
Sm201 O230 2.396 . S
C202 Sm200 2.846 . S
C202 C203 1.506 . S
C202 O220 1.261 . S
C202 O221 1.242 . S
C203 C202 1.506 . S
C203 C204 1.358 . S
C203 C208 1.382 . S
C204 C203 1.358 . S
C204 C205 1.385 . S
C204 H232 0.930 . S
C205 C204 1.385 . S
C205 C206 1.395 . S
C205 H233 0.929 . S
C206 C205 1.395 . S
C206 C207 1.335 . S
C207 C206 1.335 . S
C207 C208 1.398 . S
C207 H234 0.930 . S
C208 C203 1.382 . S
C208 C207 1.398 . S
C208 H235 0.929 . S
C209 O222 1.271 . S
C209 O223 1.251 . S
C210 O224 1.252 . S
C210 O225 1.272 . S
C211 Sm201 2.846 . S
C211 C212 1.506 . S
C211 O226 1.261 . S
C211 O227 1.242 . S
C212 C211 1.506 . S
C212 C213 1.358 . S
C212 C217 1.382 . S
C213 C212 1.358 . S
C213 C214 1.385 . S
C213 H236 0.930 . S
C214 C213 1.385 . S
C214 C215 1.395 . S
C214 H237 0.929 . S
C215 C214 1.395 . S
C215 C216 1.335 . S
C216 C215 1.335 . S
C216 C217 1.398 . S
C216 H238 0.930 . S
C217 C212 1.382 . S
C217 C216 1.398 . S
C217 H239 0.929 . S
C218 O228 1.271 . S
C218 O229 1.251 . S
C219 O230 1.252 . S
C219 O231 1.272 . S
O220 Sm200 2.543 . S
O220 C202 1.261 . S
O221 Sm200 2.450 . S
O221 C202 1.242 . S
O222 Sm200 2.681 . S
O222 Sm201 2.386 . S
O222 C209 1.271 . S
O223 Sm200 2.464 . S
O223 C209 1.251 . S
O224 Sm200 2.396 . S
O224 C210 1.252 . S
O225 Sm201 2.408 . S
O225 C210 1.272 . S
O226 Sm201 2.543 . S
O226 C211 1.261 . S
O227 Sm201 2.450 . S
O227 C211 1.242 . S
O228 Sm200 2.386 . S
O228 Sm201 2.681 . S
O228 C218 1.271 . S
O229 Sm201 2.464 . S
O229 C218 1.251 . S
O230 Sm201 2.396 . S
O230 C219 1.252 . S
O231 Sm200 2.408 . S
O231 C219 1.272 . S
H232 C204 0.930 . S
H233 C205 0.929 . S
H234 C207 0.930 . S
H235 C208 0.929 . S
H236 C213 0.930 . S
H237 C214 0.929 . S
H238 C216 0.930 . S
H239 C217 0.929 . S
Sm240 C242 2.846 . S
Sm240 O260 2.543 . S
Sm240 O261 2.450 . S
Sm240 O262 2.681 . S
Sm240 O263 2.464 . S
Sm240 O264 2.396 . S
Sm240 O268 2.386 . S
Sm240 O271 2.408 . S
Sm241 C251 2.846 . S
Sm241 O262 2.386 . S
Sm241 O265 2.408 . S
Sm241 O266 2.543 . S
Sm241 O267 2.450 . S
Sm241 O268 2.681 . S
Sm241 O269 2.464 . S
Sm241 O270 2.396 . S
C242 Sm240 2.846 . S
C242 C243 1.506 . S
C242 O260 1.261 . S
C242 O261 1.242 . S
C243 C242 1.506 . S
C243 C244 1.358 . S
C243 C248 1.382 . S
C244 C243 1.358 . S
C244 C245 1.385 . S
C244 H272 0.930 . S
C245 C244 1.385 . S
C245 C246 1.395 . S
C245 H273 0.929 . S
C246 C245 1.395 . S
C246 C247 1.335 . S
C247 C246 1.335 . S
C247 C248 1.398 . S
C247 H274 0.930 . S
C248 C243 1.382 . S
C248 C247 1.398 . S
C248 H275 0.929 . S
C249 O262 1.271 . S
C249 O263 1.251 . S
C250 O264 1.252 . S
C250 O265 1.272 . S
C251 Sm241 2.846 . S
C251 C252 1.506 . S
C251 O266 1.261 . S
C251 O267 1.242 . S
C252 C251 1.506 . S
C252 C253 1.358 . S
C252 C257 1.382 . S
C253 C252 1.358 . S
C253 C254 1.385 . S
C253 H276 0.930 . S
C254 C253 1.385 . S
C254 C255 1.395 . S
C254 H277 0.929 . S
C255 C254 1.395 . S
C255 C256 1.335 . S
C256 C255 1.335 . S
C256 C257 1.398 . S
C256 H278 0.930 . S
C257 C252 1.382 . S
C257 C256 1.398 . S
C257 H279 0.929 . S
C258 O268 1.271 . S
C258 O269 1.251 . S
C259 O270 1.252 . S
C259 O271 1.272 . S
O260 Sm240 2.543 . S
O260 C242 1.261 . S
O261 Sm240 2.450 . S
O261 C242 1.242 . S
O262 Sm240 2.681 . S
O262 Sm241 2.386 . S
O262 C249 1.271 . S
O263 Sm240 2.464 . S
O263 C249 1.251 . S
O264 Sm240 2.396 . S
O264 C250 1.252 . S
O265 Sm241 2.408 . S
O265 C250 1.272 . S
O266 Sm241 2.543 . S
O266 C251 1.261 . S
O267 Sm241 2.450 . S
O267 C251 1.242 . S
O268 Sm240 2.386 . S
O268 Sm241 2.681 . S
O268 C258 1.271 . S
O269 Sm241 2.464 . S
O269 C258 1.251 . S
O270 Sm241 2.396 . S
O270 C259 1.252 . S
O271 Sm240 2.408 . S
O271 C259 1.272 . S
H272 C244 0.930 . S
H273 C245 0.929 . S
H274 C247 0.930 . S
H275 C248 0.929 . S
H276 C253 0.930 . S
H277 C254 0.929 . S
H278 C256 0.930 . S
H279 C257 0.929 . S
Sm280 C282 2.808 1_556 S
Sm280 O300 2.543 1_556 S
Sm280 O301 2.450 . S
Sm280 O302 2.681 . S
Sm280 O303 2.464 . S
Sm280 O304 2.396 . S
Sm280 O308 2.386 . S
Sm280 O311 2.408 . S
Sm281 C291 2.846 . S
Sm281 O302 2.386 . S
Sm281 O305 2.447 . S
Sm281 O306 2.543 . S
Sm281 O307 2.450 . S
Sm281 O308 2.681 . S
Sm281 O309 2.464 . S
Sm281 O310 2.396 . S
C282 Sm280 2.808 1_554 S
C282 C283 1.543 . S
C282 O300 1.267 . S
C282 O301 1.201 1_554 S
C283 C282 1.543 . S
C283 C284 1.358 . S
C283 C288 1.382 . S
C284 C283 1.358 . S
C284 C285 1.385 . S
C284 H312 0.930 . S
C285 C284 1.385 . S
C285 C286 1.395 . S
C285 H313 0.929 . S
C286 C285 1.395 . S
C286 C287 1.335 . S
C287 C286 1.335 . S
C287 C288 1.398 . S
C287 H314 0.930 . S
C288 C283 1.382 . S
C288 C287 1.398 . S
C288 H315 0.929 . S
C289 O302 1.271 . S
C289 O303 1.251 . S
C290 O304 1.252 1_554 S
C290 O305 1.256 1_554 S
C291 Sm281 2.846 . S
C291 C292 1.506 . S
C291 O306 1.261 . S
C291 O307 1.242 . S
C292 C291 1.506 . S
C292 C293 1.358 . S
C292 C297 1.382 . S
C293 C292 1.358 . S
C293 C294 1.385 . S
C293 H316 0.930 . S
C294 C293 1.385 . S
C294 C295 1.395 . S
C294 H317 0.929 . S
C295 C294 1.395 . S
C295 C296 1.335 . S
C296 C295 1.335 . S
C296 C297 1.398 . S
C296 H318 0.930 . S
C297 C292 1.382 . S
C297 C296 1.398 . S
C297 H319 0.929 . S
C298 O308 1.271 . S
C298 O309 1.251 . S
C299 O310 1.252 . S
C299 O311 1.272 . S
O300 Sm280 2.543 1_554 S
O300 C282 1.267 . S
O301 Sm280 2.450 . S
O301 C282 1.201 1_556 S
O302 Sm280 2.681 . S
O302 Sm281 2.386 . S
O302 C289 1.271 . S
O303 Sm280 2.464 . S
O303 C289 1.251 . S
O304 Sm280 2.396 . S
O304 C290 1.252 1_556 S
O305 Sm281 2.447 . S
O305 C290 1.256 1_556 S
O306 Sm281 2.543 . S
O306 C291 1.261 . S
O307 Sm281 2.450 . S
O307 C291 1.242 . S
O308 Sm280 2.386 . S
O308 Sm281 2.681 . S
O308 C298 1.271 . S
O309 Sm281 2.464 . S
O309 C298 1.251 . S
O310 Sm281 2.396 . S
O310 C299 1.252 . S
O311 Sm280 2.408 . S
O311 C299 1.272 . S
H312 C284 0.930 . S
H313 C285 0.929 . S
H314 C287 0.930 . S
H315 C288 0.929 . S
H316 C293 0.930 . S
H317 C294 0.929 . S
H318 C296 0.930 . S
H319 C297 0.929 . S
Sm320 C322 2.846 . S
Sm320 O340 2.543 . S
Sm320 O341 2.450 . S
Sm320 O342 2.681 . S
Sm320 O343 2.464 . S
Sm320 O344 2.396 . S
Sm320 O348 2.386 . S
Sm320 O351 2.408 . S
Sm321 C331 2.846 . S
Sm321 O342 2.386 . S
Sm321 O345 2.408 . S
Sm321 O346 2.543 . S
Sm321 O347 2.450 . S
Sm321 O348 2.681 . S
Sm321 O349 2.464 . S
Sm321 O350 2.396 . S
C322 Sm320 2.846 . S
C322 C323 1.506 . S
C322 O340 1.261 . S
C322 O341 1.242 . S
C323 C322 1.506 . S
C323 C324 1.358 . S
C323 C328 1.382 . S
C324 C323 1.358 . S
C324 C325 1.385 . S
C324 H352 0.930 . S
C325 C324 1.385 . S
C325 C326 1.395 . S
C325 H353 0.929 . S
C326 C325 1.395 . S
C326 C327 1.335 . S
C327 C326 1.335 . S
C327 C328 1.398 . S
C327 H354 0.930 . S
C328 C323 1.382 . S
C328 C327 1.398 . S
C328 H355 0.929 . S
C329 O342 1.271 . S
C329 O343 1.251 . S
C330 O344 1.252 . S
C330 O345 1.272 . S
C331 Sm321 2.846 . S
C331 C332 1.506 . S
C331 O346 1.261 . S
C331 O347 1.242 . S
C332 C331 1.506 . S
C332 C333 1.358 . S
C332 C337 1.382 . S
C333 C332 1.358 . S
C333 C334 1.385 . S
C333 H356 0.930 . S
C334 C333 1.385 . S
C334 C335 1.395 . S
C334 H357 0.929 . S
C335 C334 1.395 . S
C335 C336 1.335 . S
C336 C335 1.335 . S
C336 C337 1.398 . S
C336 H358 0.930 . S
C337 C332 1.382 . S
C337 C336 1.398 . S
C337 H359 0.929 . S
C338 O348 1.271 . S
C338 O349 1.251 . S
C339 O350 1.252 . S
C339 O351 1.272 . S
O340 Sm320 2.543 . S
O340 C322 1.261 . S
O341 Sm320 2.450 . S
O341 C322 1.242 . S
O342 Sm320 2.681 . S
O342 Sm321 2.386 . S
O342 C329 1.271 . S
O343 Sm320 2.464 . S
O343 C329 1.251 . S
O344 Sm320 2.396 . S
O344 C330 1.252 . S
O345 Sm321 2.408 . S
O345 C330 1.272 . S
O346 Sm321 2.543 . S
O346 C331 1.261 . S
O347 Sm321 2.450 . S
O347 C331 1.242 . S
O348 Sm320 2.386 . S
O348 Sm321 2.681 . S
O348 C338 1.271 . S
O349 Sm321 2.464 . S
O349 C338 1.251 . S
O350 Sm321 2.396 . S
O350 C339 1.252 . S
O351 Sm320 2.408 . S
O351 C339 1.272 . S
H352 C324 0.930 . S
H353 C325 0.929 . S
H354 C327 0.930 . S
H355 C328 0.929 . S
H356 C333 0.930 . S
H357 C334 0.929 . S
H358 C336 0.930 . S
H359 C337 0.929 . S
Sm360 C362 2.846 . S
Sm360 O380 2.543 . S
Sm360 O381 2.450 . S
Sm360 O382 2.681 . S
Sm360 O383 2.464 . S
Sm360 O384 2.396 . S
Sm360 O388 2.386 . S
Sm360 O391 2.408 . S
Sm361 C371 2.846 . S
Sm361 O382 2.386 . S
Sm361 O385 2.408 . S
Sm361 O386 2.543 . S
Sm361 O387 2.450 . S
Sm361 O388 2.681 . S
Sm361 O389 2.464 . S
Sm361 O390 2.396 . S
C362 Sm360 2.846 . S
C362 C363 1.506 . S
C362 O380 1.261 . S
C362 O381 1.242 . S
C363 C362 1.506 . S
C363 C364 1.358 . S
C363 C368 1.382 . S
C364 C363 1.358 . S
C364 C365 1.385 . S
C364 H392 0.930 . S
C365 C364 1.385 . S
C365 C366 1.395 . S
C365 H393 0.929 . S
C366 C365 1.395 . S
C366 C367 1.335 . S
C367 C366 1.335 . S
C367 C368 1.398 . S
C367 H394 0.930 . S
C368 C363 1.382 . S
C368 C367 1.398 . S
C368 H395 0.929 . S
C369 O382 1.271 . S
C369 O383 1.251 . S
C370 O384 1.252 . S
C370 O385 1.272 . S
C371 Sm361 2.846 . S
C371 C372 1.506 . S
C371 O386 1.261 . S
C371 O387 1.242 . S
C372 C371 1.506 . S
C372 C373 1.358 . S
C372 C377 1.382 . S
C373 C372 1.358 . S
C373 C374 1.385 . S
C373 H396 0.930 . S
C374 C373 1.385 . S
C374 C375 1.395 . S
C374 H397 0.929 . S
C375 C374 1.395 . S
C375 C376 1.335 . S
C376 C375 1.335 . S
C376 C377 1.398 . S
C376 H398 0.930 . S
C377 C372 1.382 . S
C377 C376 1.398 . S
C377 H399 0.929 . S
C378 O388 1.271 . S
C378 O389 1.251 . S
C379 O390 1.252 . S
C379 O391 1.272 . S
O380 Sm360 2.543 . S
O380 C362 1.261 . S
O381 Sm360 2.450 . S
O381 C362 1.242 . S
O382 Sm360 2.681 . S
O382 Sm361 2.386 . S
O382 C369 1.271 . S
O383 Sm360 2.464 . S
O383 C369 1.251 . S
O384 Sm360 2.396 . S
O384 C370 1.252 . S
O385 Sm361 2.408 . S
O385 C370 1.272 . S
O386 Sm361 2.543 . S
O386 C371 1.261 . S
O387 Sm361 2.450 . S
O387 C371 1.242 . S
O388 Sm360 2.386 . S
O388 Sm361 2.681 . S
O388 C378 1.271 . S
O389 Sm361 2.464 . S
O389 C378 1.251 . S
O390 Sm361 2.396 . S
O390 C379 1.252 . S
O391 Sm360 2.408 . S
O391 C379 1.272 . S
H392 C364 0.930 . S
H393 C365 0.929 . S
H394 C367 0.930 . S
H395 C368 0.929 . S
H396 C373 0.930 . S
H397 C374 0.929 . S
H398 C376 0.930 . S
H399 C377 0.929 . S
Sm400 C402 2.846 . S
Sm400 O420 2.543 . S
Sm400 O421 2.450 . S
Sm400 O422 2.681 . S
Sm400 O423 2.464 . S
Sm400 O424 2.396 . S
Sm400 O428 2.386 . S
Sm400 O431 2.408 . S
Sm401 C411 2.846 . S
Sm401 O422 2.386 . S
Sm401 O425 2.408 . S
Sm401 O426 2.543 . S
Sm401 O427 2.450 . S
Sm401 O428 2.681 . S
Sm401 O429 2.464 . S
Sm401 O430 2.396 . S
C402 Sm400 2.846 . S
C402 C403 1.506 . S
C402 O420 1.261 . S
C402 O421 1.242 . S
C403 C402 1.506 . S
C403 C404 1.358 . S
C403 C408 1.382 . S
C404 C403 1.358 . S
C404 C405 1.385 . S
C404 H432 0.930 . S
C405 C404 1.385 . S
C405 C406 1.395 . S
C405 H433 0.929 . S
C406 C405 1.395 . S
C406 C407 1.335 . S
C407 C406 1.335 . S
C407 C408 1.398 . S
C407 H434 0.930 . S
C408 C403 1.382 . S
C408 C407 1.398 . S
C408 H435 0.929 . S
C409 O422 1.271 . S
C409 O423 1.251 . S
C410 O424 1.252 . S
C410 O425 1.272 . S
C411 Sm401 2.846 . S
C411 C412 1.506 . S
C411 O426 1.261 . S
C411 O427 1.242 . S
C412 C411 1.506 . S
C412 C413 1.358 . S
C412 C417 1.382 . S
C413 C412 1.358 . S
C413 C414 1.385 . S
C413 H436 0.930 . S
C414 C413 1.385 . S
C414 C415 1.395 . S
C414 H437 0.929 . S
C415 C414 1.395 . S
C415 C416 1.335 . S
C416 C415 1.335 . S
C416 C417 1.398 . S
C416 H438 0.930 . S
C417 C412 1.382 . S
C417 C416 1.398 . S
C417 H439 0.929 . S
C418 O428 1.271 . S
C418 O429 1.251 . S
C419 O430 1.252 . S
C419 O431 1.272 . S
O420 Sm400 2.543 . S
O420 C402 1.261 . S
O421 Sm400 2.450 . S
O421 C402 1.242 . S
O422 Sm400 2.681 . S
O422 Sm401 2.386 . S
O422 C409 1.271 . S
O423 Sm400 2.464 . S
O423 C409 1.251 . S
O424 Sm400 2.396 . S
O424 C410 1.252 . S
O425 Sm401 2.408 . S
O425 C410 1.272 . S
O426 Sm401 2.543 . S
O426 C411 1.261 . S
O427 Sm401 2.450 . S
O427 C411 1.242 . S
O428 Sm400 2.386 . S
O428 Sm401 2.681 . S
O428 C418 1.271 . S
O429 Sm401 2.464 . S
O429 C418 1.251 . S
O430 Sm401 2.396 . S
O430 C419 1.252 . S
O431 Sm400 2.408 . S
O431 C419 1.272 . S
H432 C404 0.930 . S
H433 C405 0.929 . S
H434 C407 0.930 . S
H435 C408 0.929 . S
H436 C413 0.930 . S
H437 C414 0.929 . S
H438 C416 0.930 . S
H439 C417 0.929 . S
Sm440 C442 2.846 . S
Sm440 O460 2.543 . S
Sm440 O461 2.450 . S
Sm440 O462 2.681 . S
Sm440 O463 2.464 . S
Sm440 O464 2.396 . S
Sm440 O468 2.386 . S
Sm440 O471 2.447 . S
Sm441 C451 2.808 1_556 S
Sm441 O462 2.386 . S
Sm441 O465 2.408 . S
Sm441 O466 2.543 1_556 S
Sm441 O467 2.450 . S
Sm441 O468 2.681 . S
Sm441 O469 2.464 . S
Sm441 O470 2.396 . S
C442 Sm440 2.846 . S
C442 C443 1.506 . S
C442 O460 1.261 . S
C442 O461 1.242 . S
C443 C442 1.506 . S
C443 C444 1.358 . S
C443 C448 1.382 . S
C444 C443 1.358 . S
C444 C445 1.385 . S
C444 H472 0.930 . S
C445 C444 1.385 . S
C445 C446 1.395 . S
C445 H473 0.929 . S
C446 C445 1.395 . S
C446 C447 1.335 . S
C447 C446 1.335 . S
C447 C448 1.398 . S
C447 H474 0.930 . S
C448 C443 1.382 . S
C448 C447 1.398 . S
C448 H475 0.929 . S
C449 O462 1.271 . S
C449 O463 1.251 . S
C450 O464 1.252 . S
C450 O465 1.272 . S
C451 Sm441 2.808 1_554 S
C451 C452 1.543 . S
C451 O466 1.267 . S
C451 O467 1.201 1_554 S
C452 C451 1.543 . S
C452 C453 1.358 . S
C452 C457 1.382 . S
C453 C452 1.358 . S
C453 C454 1.385 . S
C453 H476 0.930 . S
C454 C453 1.385 . S
C454 C455 1.395 . S
C454 H477 0.929 . S
C455 C454 1.395 . S
C455 C456 1.335 . S
C456 C455 1.335 . S
C456 C457 1.398 . S
C456 H478 0.930 . S
C457 C452 1.382 . S
C457 C456 1.398 . S
C457 H479 0.929 . S
C458 O468 1.271 . S
C458 O469 1.251 . S
C459 O470 1.252 1_554 S
C459 O471 1.256 1_554 S
O460 Sm440 2.543 . S
O460 C442 1.261 . S
O461 Sm440 2.450 . S
O461 C442 1.242 . S
O462 Sm440 2.681 . S
O462 Sm441 2.386 . S
O462 C449 1.271 . S
O463 Sm440 2.464 . S
O463 C449 1.251 . S
O464 Sm440 2.396 . S
O464 C450 1.252 . S
O465 Sm441 2.408 . S
O465 C450 1.272 . S
O466 Sm441 2.543 1_554 S
O466 C451 1.267 . S
O467 Sm441 2.450 . S
O467 C451 1.201 1_556 S
O468 Sm440 2.386 . S
O468 Sm441 2.681 . S
O468 C458 1.271 . S
O469 Sm441 2.464 . S
O469 C458 1.251 . S
O470 Sm441 2.396 . S
O470 C459 1.252 1_556 S
O471 Sm440 2.447 . S
O471 C459 1.256 1_556 S
H472 C444 0.930 . S
H473 C445 0.929 . S
H474 C447 0.930 . S
H475 C448 0.929 . S
H476 C453 0.930 . S
H477 C454 0.929 . S
H478 C456 0.930 . S
H479 C457 0.929 . S
Sm480 C482 2.846 . S
Sm480 O500 2.543 . S
Sm480 O501 2.450 . S
Sm480 O502 2.681 . S
Sm480 O503 2.464 . S
Sm480 O504 2.396 . S
Sm480 O508 2.386 . S
Sm480 O511 2.408 . S
Sm481 C491 2.846 . S
Sm481 O502 2.386 . S
Sm481 O505 2.408 . S
Sm481 O506 2.543 . S
Sm481 O507 2.450 . S
Sm481 O508 2.681 . S
Sm481 O509 2.464 . S
Sm481 O510 2.396 . S
C482 Sm480 2.846 . S
C482 C483 1.506 . S
C482 O500 1.261 . S
C482 O501 1.242 . S
C483 C482 1.506 . S
C483 C484 1.358 . S
C483 C488 1.382 . S
C484 C483 1.358 . S
C484 C485 1.385 . S
C484 H512 0.930 . S
C485 C484 1.385 . S
C485 C486 1.395 . S
C485 H513 0.929 . S
C486 C485 1.395 . S
C486 C487 1.335 . S
C487 C486 1.335 . S
C487 C488 1.398 . S
C487 H514 0.930 . S
C488 C483 1.382 . S
C488 C487 1.398 . S
C488 H515 0.929 . S
C489 O502 1.271 . S
C489 O503 1.251 . S
C490 O504 1.252 . S
C490 O505 1.272 . S
C491 Sm481 2.846 . S
C491 C492 1.506 . S
C491 O506 1.261 . S
C491 O507 1.242 . S
C492 C491 1.506 . S
C492 C493 1.358 . S
C492 C497 1.382 . S
C493 C492 1.358 . S
C493 C494 1.385 . S
C493 H516 0.930 . S
C494 C493 1.385 . S
C494 C495 1.395 . S
C494 H517 0.929 . S
C495 C494 1.395 . S
C495 C496 1.335 . S
C496 C495 1.335 . S
C496 C497 1.398 . S
C496 H518 0.930 . S
C497 C492 1.382 . S
C497 C496 1.398 . S
C497 H519 0.929 . S
C498 O508 1.271 . S
C498 O509 1.251 . S
C499 O510 1.252 . S
C499 O511 1.272 . S
O500 Sm480 2.543 . S
O500 C482 1.261 . S
O501 Sm480 2.450 . S
O501 C482 1.242 . S
O502 Sm480 2.681 . S
O502 Sm481 2.386 . S
O502 C489 1.271 . S
O503 Sm480 2.464 . S
O503 C489 1.251 . S
O504 Sm480 2.396 . S
O504 C490 1.252 . S
O505 Sm481 2.408 . S
O505 C490 1.272 . S
O506 Sm481 2.543 . S
O506 C491 1.261 . S
O507 Sm481 2.450 . S
O507 C491 1.242 . S
O508 Sm480 2.386 . S
O508 Sm481 2.681 . S
O508 C498 1.271 . S
O509 Sm481 2.464 . S
O509 C498 1.251 . S
O510 Sm481 2.396 . S
O510 C499 1.252 . S
O511 Sm480 2.408 . S
O511 C499 1.272 . S
H512 C484 0.930 . S
H513 C485 0.929 . S
H514 C487 0.930 . S
H515 C488 0.929 . S
H516 C493 0.930 . S
H517 C494 0.929 . S
H518 C496 0.930 . S
H519 C497 0.929 . S
Sm520 C522 2.846 . S
Sm520 O540 2.543 . S
Sm520 O541 2.450 . S
Sm520 O542 2.681 . S
Sm520 O543 2.464 . S
Sm520 O544 2.396 . S
Sm520 O548 2.386 . S
Sm520 O551 2.408 . S
Sm521 C531 2.846 . S
Sm521 O542 2.386 . S
Sm521 O545 2.408 . S
Sm521 O546 2.543 . S
Sm521 O547 2.450 . S
Sm521 O548 2.681 . S
Sm521 O549 2.464 . S
Sm521 O550 2.396 . S
C522 Sm520 2.846 . S
C522 C523 1.506 . S
C522 O540 1.261 . S
C522 O541 1.242 . S
C523 C522 1.506 . S
C523 C524 1.358 . S
C523 C528 1.382 . S
C524 C523 1.358 . S
C524 C525 1.385 . S
C524 H552 0.930 . S
C525 C524 1.385 . S
C525 C526 1.395 . S
C525 H553 0.929 . S
C526 C525 1.395 . S
C526 C527 1.335 . S
C527 C526 1.335 . S
C527 C528 1.398 . S
C527 H554 0.930 . S
C528 C523 1.382 . S
C528 C527 1.398 . S
C528 H555 0.929 . S
C529 O542 1.271 . S
C529 O543 1.251 . S
C530 O544 1.252 . S
C530 O545 1.272 . S
C531 Sm521 2.846 . S
C531 C532 1.506 . S
C531 O546 1.261 . S
C531 O547 1.242 . S
C532 C531 1.506 . S
C532 C533 1.358 . S
C532 C537 1.382 . S
C533 C532 1.358 . S
C533 C534 1.385 . S
C533 H556 0.930 . S
C534 C533 1.385 . S
C534 C535 1.395 . S
C534 H557 0.929 . S
C535 C534 1.395 . S
C535 C536 1.335 . S
C536 C535 1.335 . S
C536 C537 1.398 . S
C536 H558 0.930 . S
C537 C532 1.382 . S
C537 C536 1.398 . S
C537 H559 0.929 . S
C538 O548 1.271 . S
C538 O549 1.251 . S
C539 O550 1.252 . S
C539 O551 1.272 . S
O540 Sm520 2.543 . S
O540 C522 1.261 . S
O541 Sm520 2.450 . S
O541 C522 1.242 . S
O542 Sm520 2.681 . S
O542 Sm521 2.386 . S
O542 C529 1.271 . S
O543 Sm520 2.464 . S
O543 C529 1.251 . S
O544 Sm520 2.396 . S
O544 C530 1.252 . S
O545 Sm521 2.408 . S
O545 C530 1.272 . S
O546 Sm521 2.543 . S
O546 C531 1.261 . S
O547 Sm521 2.450 . S
O547 C531 1.242 . S
O548 Sm520 2.386 . S
O548 Sm521 2.681 . S
O548 C538 1.271 . S
O549 Sm521 2.464 . S
O549 C538 1.251 . S
O550 Sm521 2.396 . S
O550 C539 1.252 . S
O551 Sm520 2.408 . S
O551 C539 1.272 . S
H552 C524 0.930 . S
H553 C525 0.929 . S
H554 C527 0.930 . S
H555 C528 0.929 . S
H556 C533 0.930 . S
H557 C534 0.929 . S
H558 C536 0.930 . S
H559 C537 0.929 . S
Sm560 C562 2.846 . S
Sm560 O580 2.543 . S
Sm560 O581 2.450 . S
Sm560 O582 2.681 . S
Sm560 O583 2.464 . S
Sm560 O584 2.396 . S
Sm560 O588 2.386 . S
Sm560 O591 2.408 . S
Sm561 C571 2.846 . S
Sm561 O582 2.386 . S
Sm561 O585 2.408 . S
Sm561 O586 2.543 . S
Sm561 O587 2.450 . S
Sm561 O588 2.681 . S
Sm561 O589 2.464 . S
Sm561 O590 2.396 . S
C562 Sm560 2.846 . S
C562 C563 1.506 . S
C562 O580 1.261 . S
C562 O581 1.242 . S
C563 C562 1.506 . S
C563 C564 1.358 . S
C563 C568 1.382 . S
C564 C563 1.358 . S
C564 C565 1.385 . S
C564 H592 0.930 . S
C565 C564 1.385 . S
C565 C566 1.395 . S
C565 H593 0.929 . S
C566 C565 1.395 . S
C566 C567 1.335 . S
C567 C566 1.335 . S
C567 C568 1.398 . S
C567 H594 0.930 . S
C568 C563 1.382 . S
C568 C567 1.398 . S
C568 H595 0.929 . S
C569 O582 1.271 . S
C569 O583 1.251 . S
C570 O584 1.252 . S
C570 O585 1.272 . S
C571 Sm561 2.846 . S
C571 C572 1.506 . S
C571 O586 1.261 . S
C571 O587 1.242 . S
C572 C571 1.506 . S
C572 C573 1.358 . S
C572 C577 1.382 . S
C573 C572 1.358 . S
C573 C574 1.385 . S
C573 H596 0.930 . S
C574 C573 1.385 . S
C574 C575 1.395 . S
C574 H597 0.929 . S
C575 C574 1.395 . S
C575 C576 1.335 . S
C576 C575 1.335 . S
C576 C577 1.398 . S
C576 H598 0.930 . S
C577 C572 1.382 . S
C577 C576 1.398 . S
C577 H599 0.929 . S
C578 O588 1.271 . S
C578 O589 1.251 . S
C579 O590 1.252 . S
C579 O591 1.272 . S
O580 Sm560 2.543 . S
O580 C562 1.261 . S
O581 Sm560 2.450 . S
O581 C562 1.242 . S
O582 Sm560 2.681 . S
O582 Sm561 2.386 . S
O582 C569 1.271 . S
O583 Sm560 2.464 . S
O583 C569 1.251 . S
O584 Sm560 2.396 . S
O584 C570 1.252 . S
O585 Sm561 2.408 . S
O585 C570 1.272 . S
O586 Sm561 2.543 . S
O586 C571 1.261 . S
O587 Sm561 2.450 . S
O587 C571 1.242 . S
O588 Sm560 2.386 . S
O588 Sm561 2.681 . S
O588 C578 1.271 . S
O589 Sm561 2.464 . S
O589 C578 1.251 . S
O590 Sm561 2.396 . S
O590 C579 1.252 . S
O591 Sm560 2.408 . S
O591 C579 1.272 . S
H592 C564 0.930 . S
H593 C565 0.929 . S
H594 C567 0.930 . S
H595 C568 0.929 . S
H596 C573 0.930 . S
H597 C574 0.929 . S
H598 C576 0.930 . S
H599 C577 0.929 . S
Sm600 C602 2.846 . S
Sm600 O620 2.543 . S
Sm600 O621 2.450 . S
Sm600 O622 2.681 . S
Sm600 O623 2.464 . S
Sm600 O624 2.396 . S
Sm600 O628 2.386 . S
Sm600 O631 2.447 . S
Sm601 C611 2.808 1_554 S
Sm601 O622 2.386 . S
Sm601 O625 2.408 . S
Sm601 O626 2.543 1_554 S
Sm601 O627 2.450 . S
Sm601 O628 2.681 . S
Sm601 O629 2.464 . S
Sm601 O630 2.396 . S
C602 Sm600 2.846 . S
C602 C603 1.506 . S
C602 O620 1.261 . S
C602 O621 1.242 . S
C603 C602 1.506 . S
C603 C604 1.358 . S
C603 C608 1.382 . S
C604 C603 1.358 . S
C604 C605 1.385 . S
C604 H632 0.930 . S
C605 C604 1.385 . S
C605 C606 1.395 . S
C605 H633 0.929 . S
C606 C605 1.395 . S
C606 C607 1.335 . S
C607 C606 1.335 . S
C607 C608 1.398 . S
C607 H634 0.930 . S
C608 C603 1.382 . S
C608 C607 1.398 . S
C608 H635 0.929 . S
C609 O622 1.271 . S
C609 O623 1.251 . S
C610 O624 1.252 . S
C610 O625 1.272 . S
C611 Sm601 2.808 1_556 S
C611 C612 1.543 . S
C611 O626 1.267 . S
C611 O627 1.201 1_556 S
C612 C611 1.543 . S
C612 C613 1.358 . S
C612 C617 1.382 . S
C613 C612 1.358 . S
C613 C614 1.385 . S
C613 H636 0.930 . S
C614 C613 1.385 . S
C614 C615 1.395 . S
C614 H637 0.929 . S
C615 C614 1.395 . S
C615 C616 1.335 . S
C616 C615 1.335 . S
C616 C617 1.398 . S
C616 H638 0.930 . S
C617 C612 1.382 . S
C617 C616 1.398 . S
C617 H639 0.929 . S
C618 O628 1.271 . S
C618 O629 1.251 . S
C619 O630 1.252 1_556 S
C619 O631 1.256 1_556 S
O620 Sm600 2.543 . S
O620 C602 1.261 . S
O621 Sm600 2.450 . S
O621 C602 1.242 . S
O622 Sm600 2.681 . S
O622 Sm601 2.386 . S
O622 C609 1.271 . S
O623 Sm600 2.464 . S
O623 C609 1.251 . S
O624 Sm600 2.396 . S
O624 C610 1.252 . S
O625 Sm601 2.408 . S
O625 C610 1.272 . S
O626 Sm601 2.543 1_556 S
O626 C611 1.267 . S
O627 Sm601 2.450 . S
O627 C611 1.201 1_554 S
O628 Sm600 2.386 . S
O628 Sm601 2.681 . S
O628 C618 1.271 . S
O629 Sm601 2.464 . S
O629 C618 1.251 . S
O630 Sm601 2.396 . S
O630 C619 1.252 1_554 S
O631 Sm600 2.447 . S
O631 C619 1.256 1_554 S
H632 C604 0.930 . S
H633 C605 0.929 . S
H634 C607 0.930 . S
H635 C608 0.929 . S
H636 C613 0.930 . S
H637 C614 0.929 . S
H638 C616 0.930 . S
H639 C617 0.929 . S
Sm640 C642 2.846 . S
Sm640 O660 2.543 . S
Sm640 O661 2.450 . S
Sm640 O662 2.681 . S
Sm640 O663 2.464 . S
Sm640 O664 2.396 . S
Sm640 O668 2.386 . S
Sm640 O671 2.408 . S
Sm641 C651 2.846 . S
Sm641 O662 2.386 . S
Sm641 O665 2.408 . S
Sm641 O666 2.543 . S
Sm641 O667 2.450 . S
Sm641 O668 2.681 . S
Sm641 O669 2.464 . S
Sm641 O670 2.396 . S
C642 Sm640 2.846 . S
C642 C643 1.506 . S
C642 O660 1.261 . S
C642 O661 1.242 . S
C643 C642 1.506 . S
C643 C644 1.358 . S
C643 C648 1.382 . S
C644 C643 1.358 . S
C644 C645 1.385 . S
C644 H672 0.930 . S
C645 C644 1.385 . S
C645 C646 1.395 . S
C645 H673 0.929 . S
C646 C645 1.395 . S
C646 C647 1.335 . S
C647 C646 1.335 . S
C647 C648 1.398 . S
C647 H674 0.930 . S
C648 C643 1.382 . S
C648 C647 1.398 . S
C648 H675 0.929 . S
C649 O662 1.271 . S
C649 O663 1.251 . S
C650 O664 1.252 . S
C650 O665 1.272 . S
C651 Sm641 2.846 . S
C651 C652 1.506 . S
C651 O666 1.261 . S
C651 O667 1.242 . S
C652 C651 1.506 . S
C652 C653 1.358 . S
C652 C657 1.382 . S
C653 C652 1.358 . S
C653 C654 1.385 . S
C653 H676 0.930 . S
C654 C653 1.385 . S
C654 C655 1.395 . S
C654 H677 0.929 . S
C655 C654 1.395 . S
C655 C656 1.335 . S
C656 C655 1.335 . S
C656 C657 1.398 . S
C656 H678 0.930 . S
C657 C652 1.382 . S
C657 C656 1.398 . S
C657 H679 0.929 . S
C658 O668 1.271 . S
C658 O669 1.251 . S
C659 O670 1.252 . S
C659 O671 1.272 . S
O660 Sm640 2.543 . S
O660 C642 1.261 . S
O661 Sm640 2.450 . S
O661 C642 1.242 . S
O662 Sm640 2.681 . S
O662 Sm641 2.386 . S
O662 C649 1.271 . S
O663 Sm640 2.464 . S
O663 C649 1.251 . S
O664 Sm640 2.396 . S
O664 C650 1.252 . S
O665 Sm641 2.408 . S
O665 C650 1.272 . S
O666 Sm641 2.543 . S
O666 C651 1.261 . S
O667 Sm641 2.450 . S
O667 C651 1.242 . S
O668 Sm640 2.386 . S
O668 Sm641 2.681 . S
O668 C658 1.271 . S
O669 Sm641 2.464 . S
O669 C658 1.251 . S
O670 Sm641 2.396 . S
O670 C659 1.252 . S
O671 Sm640 2.408 . S
O671 C659 1.272 . S
H672 C644 0.930 . S
H673 C645 0.929 . S
H674 C647 0.930 . S
H675 C648 0.929 . S
H676 C653 0.930 . S
H677 C654 0.929 . S
H678 C656 0.930 . S
H679 C657 0.929 . S
Sm680 C682 2.808 1_554 S
Sm680 O700 2.543 1_554 S
Sm680 O701 2.450 . S
Sm680 O702 2.681 . S
Sm680 O703 2.464 . S
Sm680 O704 2.396 . S
Sm680 O708 2.386 . S
Sm680 O711 2.408 . S
Sm681 C691 2.846 . S
Sm681 O702 2.386 . S
Sm681 O705 2.447 . S
Sm681 O706 2.543 . S
Sm681 O707 2.450 . S
Sm681 O708 2.681 . S
Sm681 O709 2.464 . S
Sm681 O710 2.396 . S
C682 Sm680 2.808 1_556 S
C682 C683 1.543 . S
C682 O700 1.267 . S
C682 O701 1.201 1_556 S
C683 C682 1.543 . S
C683 C684 1.358 . S
C683 C688 1.382 . S
C684 C683 1.358 . S
C684 C685 1.385 . S
C684 H712 0.930 . S
C685 C684 1.385 . S
C685 C686 1.395 . S
C685 H713 0.929 . S
C686 C685 1.395 . S
C686 C687 1.335 . S
C687 C686 1.335 . S
C687 C688 1.398 . S
C687 H714 0.930 . S
C688 C683 1.382 . S
C688 C687 1.398 . S
C688 H715 0.929 . S
C689 O702 1.271 . S
C689 O703 1.251 . S
C690 O704 1.252 1_556 S
C690 O705 1.256 1_556 S
C691 Sm681 2.846 . S
C691 C692 1.506 . S
C691 O706 1.261 . S
C691 O707 1.242 . S
C692 C691 1.506 . S
C692 C693 1.358 . S
C692 C697 1.382 . S
C693 C692 1.358 . S
C693 C694 1.385 . S
C693 H716 0.930 . S
C694 C693 1.385 . S
C694 C695 1.395 . S
C694 H717 0.929 . S
C695 C694 1.395 . S
C695 C696 1.335 . S
C696 C695 1.335 . S
C696 C697 1.398 . S
C696 H718 0.930 . S
C697 C692 1.382 . S
C697 C696 1.398 . S
C697 H719 0.929 . S
C698 O708 1.271 . S
C698 O709 1.251 . S
C699 O710 1.252 . S
C699 O711 1.272 . S
O700 Sm680 2.543 1_556 S
O700 C682 1.267 . S
O701 Sm680 2.450 . S
O701 C682 1.201 1_554 S
O702 Sm680 2.681 . S
O702 Sm681 2.386 . S
O702 C689 1.271 . S
O703 Sm680 2.464 . S
O703 C689 1.251 . S
O704 Sm680 2.396 . S
O704 C690 1.252 1_554 S
O705 Sm681 2.447 . S
O705 C690 1.256 1_554 S
O706 Sm681 2.543 . S
O706 C691 1.261 . S
O707 Sm681 2.450 . S
O707 C691 1.242 . S
O708 Sm680 2.386 . S
O708 Sm681 2.681 . S
O708 C698 1.271 . S
O709 Sm681 2.464 . S
O709 C698 1.251 . S
O710 Sm681 2.396 . S
O710 C699 1.252 . S
O711 Sm680 2.408 . S
O711 C699 1.272 . S
H712 C684 0.930 . S
H713 C685 0.929 . S
H714 C687 0.930 . S
H715 C688 0.929 . S
H716 C693 0.930 . S
H717 C694 0.929 . S
H718 C696 0.930 . S
H719 C697 0.929 . S
Sm720 C722 2.846 . S
Sm720 O740 2.543 . S
Sm720 O741 2.450 . S
Sm720 O742 2.681 . S
Sm720 O743 2.464 . S
Sm720 O744 2.396 . S
Sm720 O748 2.386 . S
Sm720 O751 2.408 . S
Sm721 C731 2.846 . S
Sm721 O742 2.386 . S
Sm721 O745 2.408 . S
Sm721 O746 2.543 . S
Sm721 O747 2.450 . S
Sm721 O748 2.681 . S
Sm721 O749 2.464 . S
Sm721 O750 2.396 . S
C722 Sm720 2.846 . S
C722 C723 1.506 . S
C722 O740 1.261 . S
C722 O741 1.242 . S
C723 C722 1.506 . S
C723 C724 1.358 . S
C723 C728 1.382 . S
C724 C723 1.358 . S
C724 C725 1.385 . S
C724 H752 0.930 . S
C725 C724 1.385 . S
C725 C726 1.395 . S
C725 H753 0.929 . S
C726 C725 1.395 . S
C726 C727 1.335 . S
C727 C726 1.335 . S
C727 C728 1.398 . S
C727 H754 0.930 . S
C728 C723 1.382 . S
C728 C727 1.398 . S
C728 H755 0.929 . S
C729 O742 1.271 . S
C729 O743 1.251 . S
C730 O744 1.252 . S
C730 O745 1.272 . S
C731 Sm721 2.846 . S
C731 C732 1.506 . S
C731 O746 1.261 . S
C731 O747 1.242 . S
C732 C731 1.506 . S
C732 C733 1.358 . S
C732 C737 1.382 . S
C733 C732 1.358 . S
C733 C734 1.385 . S
C733 H756 0.930 . S
C734 C733 1.385 . S
C734 C735 1.395 . S
C734 H757 0.929 . S
C735 C734 1.395 . S
C735 C736 1.335 . S
C736 C735 1.335 . S
C736 C737 1.398 . S
C736 H758 0.930 . S
C737 C732 1.382 . S
C737 C736 1.398 . S
C737 H759 0.929 . S
C738 O748 1.271 . S
C738 O749 1.251 . S
C739 O750 1.252 . S
C739 O751 1.272 . S
O740 Sm720 2.543 . S
O740 C722 1.261 . S
O741 Sm720 2.450 . S
O741 C722 1.242 . S
O742 Sm720 2.681 . S
O742 Sm721 2.386 . S
O742 C729 1.271 . S
O743 Sm720 2.464 . S
O743 C729 1.251 . S
O744 Sm720 2.396 . S
O744 C730 1.252 . S
O745 Sm721 2.408 . S
O745 C730 1.272 . S
O746 Sm721 2.543 . S
O746 C731 1.261 . S
O747 Sm721 2.450 . S
O747 C731 1.242 . S
O748 Sm720 2.386 . S
O748 Sm721 2.681 . S
O748 C738 1.271 . S
O749 Sm721 2.464 . S
O749 C738 1.251 . S
O750 Sm721 2.396 . S
O750 C739 1.252 . S
O751 Sm720 2.408 . S
O751 C739 1.272 . S
H752 C724 0.930 . S
H753 C725 0.929 . S
H754 C727 0.930 . S
H755 C728 0.929 . S
H756 C733 0.930 . S
H757 C734 0.929 . S
H758 C736 0.930 . S
H759 C737 0.929 . S
Sm760 C762 2.846 . S
Sm760 O780 2.543 . S
Sm760 O781 2.450 . S
Sm760 O782 2.681 . S
Sm760 O783 2.464 . S
Sm760 O784 2.396 . S
Sm760 O788 2.386 . S
Sm760 O791 2.408 . S
Sm761 C771 2.846 . S
Sm761 O782 2.386 . S
Sm761 O785 2.408 . S
Sm761 O786 2.543 . S
Sm761 O787 2.450 . S
Sm761 O788 2.681 . S
Sm761 O789 2.464 . S
Sm761 O790 2.396 . S
C762 Sm760 2.846 . S
C762 C763 1.506 . S
C762 O780 1.261 . S
C762 O781 1.242 . S
C763 C762 1.506 . S
C763 C764 1.358 . S
C763 C768 1.382 . S
C764 C763 1.358 . S
C764 C765 1.385 . S
C764 H792 0.930 . S
C765 C764 1.385 . S
C765 C766 1.395 . S
C765 H793 0.929 . S
C766 C765 1.395 . S
C766 C767 1.335 . S
C767 C766 1.335 . S
C767 C768 1.398 . S
C767 H794 0.930 . S
C768 C763 1.382 . S
C768 C767 1.398 . S
C768 H795 0.929 . S
C769 O782 1.271 . S
C769 O783 1.251 . S
C770 O784 1.252 . S
C770 O785 1.272 . S
C771 Sm761 2.846 . S
C771 C772 1.506 . S
C771 O786 1.261 . S
C771 O787 1.242 . S
C772 C771 1.506 . S
C772 C773 1.358 . S
C772 C777 1.382 . S
C773 C772 1.358 . S
C773 C774 1.385 . S
C773 H796 0.930 . S
C774 C773 1.385 . S
C774 C775 1.395 . S
C774 H797 0.929 . S
C775 C774 1.395 . S
C775 C776 1.335 . S
C776 C775 1.335 . S
C776 C777 1.398 . S
C776 H798 0.930 . S
C777 C772 1.382 . S
C777 C776 1.398 . S
C777 H799 0.929 . S
C778 O788 1.271 . S
C778 O789 1.251 . S
C779 O790 1.252 . S
C779 O791 1.272 . S
O780 Sm760 2.543 . S
O780 C762 1.261 . S
O781 Sm760 2.450 . S
O781 C762 1.242 . S
O782 Sm760 2.681 . S
O782 Sm761 2.386 . S
O782 C769 1.271 . S
O783 Sm760 2.464 . S
O783 C769 1.251 . S
O784 Sm760 2.396 . S
O784 C770 1.252 . S
O785 Sm761 2.408 . S
O785 C770 1.272 . S
O786 Sm761 2.543 . S
O786 C771 1.261 . S
O787 Sm761 2.450 . S
O787 C771 1.242 . S
O788 Sm760 2.386 . S
O788 Sm761 2.681 . S
O788 C778 1.271 . S
O789 Sm761 2.464 . S
O789 C778 1.251 . S
O790 Sm761 2.396 . S
O790 C779 1.252 . S
O791 Sm760 2.408 . S
O791 C779 1.272 . S
H792 C764 0.930 . S
H793 C765 0.929 . S
H794 C767 0.930 . S
H795 C768 0.929 . S
H796 C773 0.930 . S
H797 C774 0.929 . S
H798 C776 0.930 . S
H799 C777 0.929 . S
Sm800 C802 2.846 . S
Sm800 O820 2.543 . S
Sm800 O821 2.450 . S
Sm800 O822 2.681 . S
Sm800 O823 2.464 . S
Sm800 O824 2.396 . S
Sm800 O828 2.386 . S
Sm800 O831 2.408 . S
Sm801 C811 2.846 . S
Sm801 O822 2.386 . S
Sm801 O825 2.408 . S
Sm801 O826 2.543 . S
Sm801 O827 2.450 . S
Sm801 O828 2.681 . S
Sm801 O829 2.464 . S
Sm801 O830 2.396 . S
C802 Sm800 2.846 . S
C802 C803 1.506 . S
C802 O820 1.261 . S
C802 O821 1.242 . S
C803 C802 1.506 . S
C803 C804 1.358 . S
C803 C808 1.382 . S
C804 C803 1.358 . S
C804 C805 1.385 . S
C804 H832 0.930 . S
C805 C804 1.385 . S
C805 C806 1.395 . S
C805 H833 0.929 . S
C806 C805 1.395 . S
C806 C807 1.335 . S
C807 C806 1.335 . S
C807 C808 1.398 . S
C807 H834 0.930 . S
C808 C803 1.382 . S
C808 C807 1.398 . S
C808 H835 0.929 . S
C809 O822 1.271 . S
C809 O823 1.251 . S
C810 O824 1.252 . S
C810 O825 1.272 . S
C811 Sm801 2.846 . S
C811 C812 1.506 . S
C811 O826 1.261 . S
C811 O827 1.242 . S
C812 C811 1.506 . S
C812 C813 1.358 . S
C812 C817 1.382 . S
C813 C812 1.358 . S
C813 C814 1.385 . S
C813 H836 0.930 . S
C814 C813 1.385 . S
C814 C815 1.395 . S
C814 H837 0.929 . S
C815 C814 1.395 . S
C815 C816 1.335 . S
C816 C815 1.335 . S
C816 C817 1.398 . S
C816 H838 0.930 . S
C817 C812 1.382 . S
C817 C816 1.398 . S
C817 H839 0.929 . S
C818 O828 1.271 . S
C818 O829 1.251 . S
C819 O830 1.252 . S
C819 O831 1.272 . S
O820 Sm800 2.543 . S
O820 C802 1.261 . S
O821 Sm800 2.450 . S
O821 C802 1.242 . S
O822 Sm800 2.681 . S
O822 Sm801 2.386 . S
O822 C809 1.271 . S
O823 Sm800 2.464 . S
O823 C809 1.251 . S
O824 Sm800 2.396 . S
O824 C810 1.252 . S
O825 Sm801 2.408 . S
O825 C810 1.272 . S
O826 Sm801 2.543 . S
O826 C811 1.261 . S
O827 Sm801 2.450 . S
O827 C811 1.242 . S
O828 Sm800 2.386 . S
O828 Sm801 2.681 . S
O828 C818 1.271 . S
O829 Sm801 2.464 . S
O829 C818 1.251 . S
O830 Sm801 2.396 . S
O830 C819 1.252 . S
O831 Sm800 2.408 . S
O831 C819 1.272 . S
H832 C804 0.930 . S
H833 C805 0.929 . S
H834 C807 0.930 . S
H835 C808 0.929 . S
H836 C813 0.930 . S
H837 C814 0.929 . S
H838 C816 0.930 . S
H839 C817 0.929 . S
Sm840 C842 2.808 1_556 S
Sm840 O860 2.543 1_556 S
Sm840 O861 2.450 . S
Sm840 O862 2.681 . S
Sm840 O863 2.464 . S
Sm840 O864 2.396 . S
Sm840 O868 2.386 . S
Sm840 O871 2.408 . S
Sm841 C851 2.846 . S
Sm841 O862 2.386 . S
Sm841 O865 2.447 . S
Sm841 O866 2.543 . S
Sm841 O867 2.450 . S
Sm841 O868 2.681 . S
Sm841 O869 2.464 . S
Sm841 O870 2.396 . S
C842 Sm840 2.808 1_554 S
C842 C843 1.543 . S
C842 O860 1.267 . S
C842 O861 1.201 1_554 S
C843 C842 1.543 . S
C843 C844 1.358 . S
C843 C848 1.382 . S
C844 C843 1.358 . S
C844 C845 1.385 . S
C844 H872 0.930 . S
C845 C844 1.385 . S
C845 C846 1.395 . S
C845 H873 0.929 . S
C846 C845 1.395 . S
C846 C847 1.335 . S
C847 C846 1.335 . S
C847 C848 1.398 . S
C847 H874 0.930 . S
C848 C843 1.382 . S
C848 C847 1.398 . S
C848 H875 0.929 . S
C849 O862 1.271 . S
C849 O863 1.251 . S
C850 O864 1.252 1_554 S
C850 O865 1.256 1_554 S
C851 Sm841 2.846 . S
C851 C852 1.506 . S
C851 O866 1.261 . S
C851 O867 1.242 . S
C852 C851 1.506 . S
C852 C853 1.358 . S
C852 C857 1.382 . S
C853 C852 1.358 . S
C853 C854 1.385 . S
C853 H876 0.930 . S
C854 C853 1.385 . S
C854 C855 1.395 . S
C854 H877 0.929 . S
C855 C854 1.395 . S
C855 C856 1.335 . S
C856 C855 1.335 . S
C856 C857 1.398 . S
C856 H878 0.930 . S
C857 C852 1.382 . S
C857 C856 1.398 . S
C857 H879 0.929 . S
C858 O868 1.271 . S
C858 O869 1.251 . S
C859 O870 1.252 . S
C859 O871 1.272 . S
O860 Sm840 2.543 1_554 S
O860 C842 1.267 . S
O861 Sm840 2.450 . S
O861 C842 1.201 1_556 S
O862 Sm840 2.681 . S
O862 Sm841 2.386 . S
O862 C849 1.271 . S
O863 Sm840 2.464 . S
O863 C849 1.251 . S
O864 Sm840 2.396 . S
O864 C850 1.252 1_556 S
O865 Sm841 2.447 . S
O865 C850 1.256 1_556 S
O866 Sm841 2.543 . S
O866 C851 1.261 . S
O867 Sm841 2.450 . S
O867 C851 1.242 . S
O868 Sm840 2.386 . S
O868 Sm841 2.681 . S
O868 C858 1.271 . S
O869 Sm841 2.464 . S
O869 C858 1.251 . S
O870 Sm841 2.396 . S
O870 C859 1.252 . S
O871 Sm840 2.408 . S
O871 C859 1.272 . S
H872 C844 0.930 . S
H873 C845 0.929 . S
H874 C847 0.930 . S
H875 C848 0.929 . S
H876 C853 0.930 . S
H877 C854 0.929 . S
H878 C856 0.930 . S
H879 C857 0.929 . S
Sm880 C882 2.846 . S
Sm880 O900 2.543 . S
Sm880 O901 2.450 . S
Sm880 O902 2.681 . S
Sm880 O903 2.464 . S
Sm880 O904 2.396 . S
Sm880 O908 2.386 . S
Sm880 O911 2.408 . S
Sm881 C891 2.846 . S
Sm881 O902 2.386 . S
Sm881 O905 2.408 . S
Sm881 O906 2.543 . S
Sm881 O907 2.450 . S
Sm881 O908 2.681 . S
Sm881 O909 2.464 . S
Sm881 O910 2.396 . S
C882 Sm880 2.846 . S
C882 C883 1.506 . S
C882 O900 1.261 . S
C882 O901 1.242 . S
C883 C882 1.506 . S
C883 C884 1.358 . S
C883 C888 1.382 . S
C884 C883 1.358 . S
C884 C885 1.385 . S
C884 H912 0.930 . S
C885 C884 1.385 . S
C885 C886 1.395 . S
C885 H913 0.929 . S
C886 C885 1.395 . S
C886 C887 1.335 . S
C887 C886 1.335 . S
C887 C888 1.398 . S
C887 H914 0.930 . S
C888 C883 1.382 . S
C888 C887 1.398 . S
C888 H915 0.929 . S
C889 O902 1.271 . S
C889 O903 1.251 . S
C890 O904 1.252 . S
C890 O905 1.272 . S
C891 Sm881 2.846 . S
C891 C892 1.506 . S
C891 O906 1.261 . S
C891 O907 1.242 . S
C892 C891 1.506 . S
C892 C893 1.358 . S
C892 C897 1.382 . S
C893 C892 1.358 . S
C893 C894 1.385 . S
C893 H916 0.930 . S
C894 C893 1.385 . S
C894 C895 1.395 . S
C894 H917 0.929 . S
C895 C894 1.395 . S
C895 C896 1.335 . S
C896 C895 1.335 . S
C896 C897 1.398 . S
C896 H918 0.930 . S
C897 C892 1.382 . S
C897 C896 1.398 . S
C897 H919 0.929 . S
C898 O908 1.271 . S
C898 O909 1.251 . S
C899 O910 1.252 . S
C899 O911 1.272 . S
O900 Sm880 2.543 . S
O900 C882 1.261 . S
O901 Sm880 2.450 . S
O901 C882 1.242 . S
O902 Sm880 2.681 . S
O902 Sm881 2.386 . S
O902 C889 1.271 . S
O903 Sm880 2.464 . S
O903 C889 1.251 . S
O904 Sm880 2.396 . S
O904 C890 1.252 . S
O905 Sm881 2.408 . S
O905 C890 1.272 . S
O906 Sm881 2.543 . S
O906 C891 1.261 . S
O907 Sm881 2.450 . S
O907 C891 1.242 . S
O908 Sm880 2.386 . S
O908 Sm881 2.681 . S
O908 C898 1.271 . S
O909 Sm881 2.464 . S
O909 C898 1.251 . S
O910 Sm881 2.396 . S
O910 C899 1.252 . S
O911 Sm880 2.408 . S
O911 C899 1.272 . S
H912 C884 0.930 . S
H913 C885 0.929 . S
H914 C887 0.930 . S
H915 C888 0.929 . S
H916 C893 0.930 . S
H917 C894 0.929 . S
H918 C896 0.930 . S
H919 C897 0.929 . S
Sm920 C922 2.846 . S
Sm920 O940 2.543 . S
Sm920 O941 2.450 . S
Sm920 O942 2.681 . S
Sm920 O943 2.464 . S
Sm920 O944 2.396 . S
Sm920 O948 2.386 . S
Sm920 O951 2.408 . S
Sm921 C931 2.846 . S
Sm921 O942 2.386 . S
Sm921 O945 2.408 . S
Sm921 O946 2.543 . S
Sm921 O947 2.450 . S
Sm921 O948 2.681 . S
Sm921 O949 2.464 . S
Sm921 O950 2.396 . S
C922 Sm920 2.846 . S
C922 C923 1.506 . S
C922 O940 1.261 . S
C922 O941 1.242 . S
C923 C922 1.506 . S
C923 C924 1.358 . S
C923 C928 1.382 . S
C924 C923 1.358 . S
C924 C925 1.385 . S
C924 H952 0.930 . S
C925 C924 1.385 . S
C925 C926 1.395 . S
C925 H953 0.929 . S
C926 C925 1.395 . S
C926 C927 1.335 . S
C927 C926 1.335 . S
C927 C928 1.398 . S
C927 H954 0.930 . S
C928 C923 1.382 . S
C928 C927 1.398 . S
C928 H955 0.929 . S
C929 O942 1.271 . S
C929 O943 1.251 . S
C930 O944 1.252 . S
C930 O945 1.272 . S
C931 Sm921 2.846 . S
C931 C932 1.506 . S
C931 O946 1.261 . S
C931 O947 1.242 . S
C932 C931 1.506 . S
C932 C933 1.358 . S
C932 C937 1.382 . S
C933 C932 1.358 . S
C933 C934 1.385 . S
C933 H956 0.930 . S
C934 C933 1.385 . S
C934 C935 1.395 . S
C934 H957 0.929 . S
C935 C934 1.395 . S
C935 C936 1.335 . S
C936 C935 1.335 . S
C936 C937 1.398 . S
C936 H958 0.930 . S
C937 C932 1.382 . S
C937 C936 1.398 . S
C937 H959 0.929 . S
C938 O948 1.271 . S
C938 O949 1.251 . S
C939 O950 1.252 . S
C939 O951 1.272 . S
O940 Sm920 2.543 . S
O940 C922 1.261 . S
O941 Sm920 2.450 . S
O941 C922 1.242 . S
O942 Sm920 2.681 . S
O942 Sm921 2.386 . S
O942 C929 1.271 . S
O943 Sm920 2.464 . S
O943 C929 1.251 . S
O944 Sm920 2.396 . S
O944 C930 1.252 . S
O945 Sm921 2.408 . S
O945 C930 1.272 . S
O946 Sm921 2.543 . S
O946 C931 1.261 . S
O947 Sm921 2.450 . S
O947 C931 1.242 . S
O948 Sm920 2.386 . S
O948 Sm921 2.681 . S
O948 C938 1.271 . S
O949 Sm921 2.464 . S
O949 C938 1.251 . S
O950 Sm921 2.396 . S
O950 C939 1.252 . S
O951 Sm920 2.408 . S
O951 C939 1.272 . S
H952 C924 0.930 . S
H953 C925 0.929 . S
H954 C927 0.930 . S
H955 C928 0.929 . S
H956 C933 0.930 . S
H957 C934 0.929 . S
H958 C936 0.930 . S
H959 C937 0.929 . S
Sm960 C962 2.846 . S
Sm960 O980 2.543 . S
Sm960 O981 2.450 . S
Sm960 O982 2.681 . S
Sm960 O983 2.464 . S
Sm960 O984 2.396 . S
Sm960 O988 2.386 . S
Sm960 O991 2.408 . S
Sm961 C971 2.846 . S
Sm961 O982 2.386 . S
Sm961 O985 2.408 . S
Sm961 O986 2.543 . S
Sm961 O987 2.450 . S
Sm961 O988 2.681 . S
Sm961 O989 2.464 . S
Sm961 O990 2.396 . S
C962 Sm960 2.846 . S
C962 C963 1.506 . S
C962 O980 1.261 . S
C962 O981 1.242 . S
C963 C962 1.506 . S
C963 C964 1.358 . S
C963 C968 1.382 . S
C964 C963 1.358 . S
C964 C965 1.385 . S
C964 H992 0.930 . S
C965 C964 1.385 . S
C965 C966 1.395 . S
C965 H993 0.929 . S
C966 C965 1.395 . S
C966 C967 1.335 . S
C967 C966 1.335 . S
C967 C968 1.398 . S
C967 H994 0.930 . S
C968 C963 1.382 . S
C968 C967 1.398 . S
C968 H995 0.929 . S
C969 O982 1.271 . S
C969 O983 1.251 . S
C970 O984 1.252 . S
C970 O985 1.272 . S
C971 Sm961 2.846 . S
C971 C972 1.506 . S
C971 O986 1.261 . S
C971 O987 1.242 . S
C972 C971 1.506 . S
C972 C973 1.358 . S
C972 C977 1.382 . S
C973 C972 1.358 . S
C973 C974 1.385 . S
C973 H996 0.930 . S
C974 C973 1.385 . S
C974 C975 1.395 . S
C974 H997 0.929 . S
C975 C974 1.395 . S
C975 C976 1.335 . S
C976 C975 1.335 . S
C976 C977 1.398 . S
C976 H998 0.930 . S
C977 C972 1.382 . S
C977 C976 1.398 . S
C977 H999 0.929 . S
C978 O988 1.271 . S
C978 O989 1.251 . S
C979 O990 1.252 . S
C979 O991 1.272 . S
O980 Sm960 2.543 . S
O980 C962 1.261 . S
O981 Sm960 2.450 . S
O981 C962 1.242 . S
O982 Sm960 2.681 . S
O982 Sm961 2.386 . S
O982 C969 1.271 . S
O983 Sm960 2.464 . S
O983 C969 1.251 . S
O984 Sm960 2.396 . S
O984 C970 1.252 . S
O985 Sm961 2.408 . S
O985 C970 1.272 . S
O986 Sm961 2.543 . S
O986 C971 1.261 . S
O987 Sm961 2.450 . S
O987 C971 1.242 . S
O988 Sm960 2.386 . S
O988 Sm961 2.681 . S
O988 C978 1.271 . S
O989 Sm961 2.464 . S
O989 C978 1.251 . S
O990 Sm961 2.396 . S
O990 C979 1.252 . S
O991 Sm960 2.408 . S
O991 C979 1.272 . S
H992 C964 0.930 . S
H993 C965 0.929 . S
H994 C967 0.930 . S
H995 C968 0.929 . S
H996 C973 0.930 . S
H997 C974 0.929 . S
H998 C976 0.930 . S
H999 C977 0.929 . S
Sm1000 C1002 2.846 . S
Sm1000 O1020 2.543 . S
Sm1000 O1021 2.450 . S
Sm1000 O1022 2.681 . S
Sm1000 O1023 2.464 . S
Sm1000 O1024 2.396 . S
Sm1000 O1028 2.386 . S
Sm1000 O1031 2.447 . S
Sm1001 C1011 2.808 1_556 S
Sm1001 O1022 2.386 . S
Sm1001 O1025 2.408 . S
Sm1001 O1026 2.543 1_556 S
Sm1001 O1027 2.450 . S
Sm1001 O1028 2.681 . S
Sm1001 O1029 2.464 . S
Sm1001 O1030 2.396 . S
C1002 Sm1000 2.846 . S
C1002 C1003 1.506 . S
C1002 O1020 1.261 . S
C1002 O1021 1.242 . S
C1003 C1002 1.506 . S
C1003 C1004 1.358 . S
C1003 C1008 1.382 . S
C1004 C1003 1.358 . S
C1004 C1005 1.385 . S
C1004 H1032 0.930 . S
C1005 C1004 1.385 . S
C1005 C1006 1.395 . S
C1005 H1033 0.929 . S
C1006 C1005 1.395 . S
C1006 C1007 1.335 . S
C1007 C1006 1.335 . S
C1007 C1008 1.398 . S
C1007 H1034 0.930 . S
C1008 C1003 1.382 . S
C1008 C1007 1.398 . S
C1008 H1035 0.929 . S
C1009 O1022 1.271 . S
C1009 O1023 1.251 . S
C1010 O1024 1.252 . S
C1010 O1025 1.272 . S
C1011 Sm1001 2.808 1_554 S
C1011 C1012 1.543 . S
C1011 O1026 1.267 . S
C1011 O1027 1.201 1_554 S
C1012 C1011 1.543 . S
C1012 C1013 1.358 . S
C1012 C1017 1.382 . S
C1013 C1012 1.358 . S
C1013 C1014 1.385 . S
C1013 H1036 0.930 . S
C1014 C1013 1.385 . S
C1014 C1015 1.395 . S
C1014 H1037 0.929 . S
C1015 C1014 1.395 . S
C1015 C1016 1.335 . S
C1016 C1015 1.335 . S
C1016 C1017 1.398 . S
C1016 H1038 0.930 . S
C1017 C1012 1.382 . S
C1017 C1016 1.398 . S
C1017 H1039 0.929 . S
C1018 O1028 1.271 . S
C1018 O1029 1.251 . S
C1019 O1030 1.252 1_554 S
C1019 O1031 1.256 1_554 S
O1020 Sm1000 2.543 . S
O1020 C1002 1.261 . S
O1021 Sm1000 2.450 . S
O1021 C1002 1.242 . S
O1022 Sm1000 2.681 . S
O1022 Sm1001 2.386 . S
O1022 C1009 1.271 . S
O1023 Sm1000 2.464 . S
O1023 C1009 1.251 . S
O1024 Sm1000 2.396 . S
O1024 C1010 1.252 . S
O1025 Sm1001 2.408 . S
O1025 C1010 1.272 . S
O1026 Sm1001 2.543 1_554 S
O1026 C1011 1.267 . S
O1027 Sm1001 2.450 . S
O1027 C1011 1.201 1_556 S
O1028 Sm1000 2.386 . S
O1028 Sm1001 2.681 . S
O1028 C1018 1.271 . S
O1029 Sm1001 2.464 . S
O1029 C1018 1.251 . S
O1030 Sm1001 2.396 . S
O1030 C1019 1.252 1_556 S
O1031 Sm1000 2.447 . S
O1031 C1019 1.256 1_556 S
H1032 C1004 0.930 . S
H1033 C1005 0.929 . S
H1034 C1007 0.930 . S
H1035 C1008 0.929 . S
H1036 C1013 0.930 . S
H1037 C1014 0.929 . S
H1038 C1016 0.930 . S
H1039 C1017 0.929 . S
Sm1040 C1042 2.846 . S
Sm1040 O1060 2.543 . S
Sm1040 O1061 2.450 . S
Sm1040 O1062 2.681 . S
Sm1040 O1063 2.464 . S
Sm1040 O1064 2.396 . S
Sm1040 O1068 2.386 . S
Sm1040 O1071 2.408 . S
Sm1041 C1051 2.846 . S
Sm1041 O1062 2.386 . S
Sm1041 O1065 2.408 . S
Sm1041 O1066 2.543 . S
Sm1041 O1067 2.450 . S
Sm1041 O1068 2.681 . S
Sm1041 O1069 2.464 . S
Sm1041 O1070 2.396 . S
C1042 Sm1040 2.846 . S
C1042 C1043 1.506 . S
C1042 O1060 1.261 . S
C1042 O1061 1.242 . S
C1043 C1042 1.506 . S
C1043 C1044 1.358 . S
C1043 C1048 1.382 . S
C1044 C1043 1.358 . S
C1044 C1045 1.385 . S
C1044 H1072 0.930 . S
C1045 C1044 1.385 . S
C1045 C1046 1.395 . S
C1045 H1073 0.929 . S
C1046 C1045 1.395 . S
C1046 C1047 1.335 . S
C1047 C1046 1.335 . S
C1047 C1048 1.398 . S
C1047 H1074 0.930 . S
C1048 C1043 1.382 . S
C1048 C1047 1.398 . S
C1048 H1075 0.929 . S
C1049 O1062 1.271 . S
C1049 O1063 1.251 . S
C1050 O1064 1.252 . S
C1050 O1065 1.272 . S
C1051 Sm1041 2.846 . S
C1051 C1052 1.506 . S
C1051 O1066 1.261 . S
C1051 O1067 1.242 . S
C1052 C1051 1.506 . S
C1052 C1053 1.358 . S
C1052 C1057 1.382 . S
C1053 C1052 1.358 . S
C1053 C1054 1.385 . S
C1053 H1076 0.930 . S
C1054 C1053 1.385 . S
C1054 C1055 1.395 . S
C1054 H1077 0.929 . S
C1055 C1054 1.395 . S
C1055 C1056 1.335 . S
C1056 C1055 1.335 . S
C1056 C1057 1.398 . S
C1056 H1078 0.930 . S
C1057 C1052 1.382 . S
C1057 C1056 1.398 . S
C1057 H1079 0.929 . S
C1058 O1068 1.271 . S
C1058 O1069 1.251 . S
C1059 O1070 1.252 . S
C1059 O1071 1.272 . S
O1060 Sm1040 2.543 . S
O1060 C1042 1.261 . S
O1061 Sm1040 2.450 . S
O1061 C1042 1.242 . S
O1062 Sm1040 2.681 . S
O1062 Sm1041 2.386 . S
O1062 C1049 1.271 . S
O1063 Sm1040 2.464 . S
O1063 C1049 1.251 . S
O1064 Sm1040 2.396 . S
O1064 C1050 1.252 . S
O1065 Sm1041 2.408 . S
O1065 C1050 1.272 . S
O1066 Sm1041 2.543 . S
O1066 C1051 1.261 . S
O1067 Sm1041 2.450 . S
O1067 C1051 1.242 . S
O1068 Sm1040 2.386 . S
O1068 Sm1041 2.681 . S
O1068 C1058 1.271 . S
O1069 Sm1041 2.464 . S
O1069 C1058 1.251 . S
O1070 Sm1041 2.396 . S
O1070 C1059 1.252 . S
O1071 Sm1040 2.408 . S
O1071 C1059 1.272 . S
H1072 C1044 0.930 . S
H1073 C1045 0.929 . S
H1074 C1047 0.930 . S
H1075 C1048 0.929 . S
H1076 C1053 0.930 . S
H1077 C1054 0.929 . S
H1078 C1056 0.930 . S
H1079 C1057 0.929 . S
Sm1080 C1082 2.846 . S
Sm1080 O1100 2.543 . S
Sm1080 O1101 2.450 . S
Sm1080 O1102 2.681 . S
Sm1080 O1103 2.464 . S
Sm1080 O1104 2.396 . S
Sm1080 O1108 2.386 . S
Sm1080 O1111 2.408 . S
Sm1081 C1091 2.846 . S
Sm1081 O1102 2.386 . S
Sm1081 O1105 2.408 . S
Sm1081 O1106 2.543 . S
Sm1081 O1107 2.450 . S
Sm1081 O1108 2.681 . S
Sm1081 O1109 2.464 . S
Sm1081 O1110 2.396 . S
C1082 Sm1080 2.846 . S
C1082 C1083 1.506 . S
C1082 O1100 1.261 . S
C1082 O1101 1.242 . S
C1083 C1082 1.506 . S
C1083 C1084 1.358 . S
C1083 C1088 1.382 . S
C1084 C1083 1.358 . S
C1084 C1085 1.385 . S
C1084 H1112 0.930 . S
C1085 C1084 1.385 . S
C1085 C1086 1.395 . S
C1085 H1113 0.929 . S
C1086 C1085 1.395 . S
C1086 C1087 1.335 . S
C1087 C1086 1.335 . S
C1087 C1088 1.398 . S
C1087 H1114 0.930 . S
C1088 C1083 1.382 . S
C1088 C1087 1.398 . S
C1088 H1115 0.929 . S
C1089 O1102 1.271 . S
C1089 O1103 1.251 . S
C1090 O1104 1.252 . S
C1090 O1105 1.272 . S
C1091 Sm1081 2.846 . S
C1091 C1092 1.506 . S
C1091 O1106 1.261 . S
C1091 O1107 1.242 . S
C1092 C1091 1.506 . S
C1092 C1093 1.358 . S
C1092 C1097 1.382 . S
C1093 C1092 1.358 . S
C1093 C1094 1.385 . S
C1093 H1116 0.930 . S
C1094 C1093 1.385 . S
C1094 C1095 1.395 . S
C1094 H1117 0.929 . S
C1095 C1094 1.395 . S
C1095 C1096 1.335 . S
C1096 C1095 1.335 . S
C1096 C1097 1.398 . S
C1096 H1118 0.930 . S
C1097 C1092 1.382 . S
C1097 C1096 1.398 . S
C1097 H1119 0.929 . S
C1098 O1108 1.271 . S
C1098 O1109 1.251 . S
C1099 O1110 1.252 . S
C1099 O1111 1.272 . S
O1100 Sm1080 2.543 . S
O1100 C1082 1.261 . S
O1101 Sm1080 2.450 . S
O1101 C1082 1.242 . S
O1102 Sm1080 2.681 . S
O1102 Sm1081 2.386 . S
O1102 C1089 1.271 . S
O1103 Sm1080 2.464 . S
O1103 C1089 1.251 . S
O1104 Sm1080 2.396 . S
O1104 C1090 1.252 . S
O1105 Sm1081 2.408 . S
O1105 C1090 1.272 . S
O1106 Sm1081 2.543 . S
O1106 C1091 1.261 . S
O1107 Sm1081 2.450 . S
O1107 C1091 1.242 . S
O1108 Sm1080 2.386 . S
O1108 Sm1081 2.681 . S
O1108 C1098 1.271 . S
O1109 Sm1081 2.464 . S
O1109 C1098 1.251 . S
O1110 Sm1081 2.396 . S
O1110 C1099 1.252 . S
O1111 Sm1080 2.408 . S
O1111 C1099 1.272 . S
H1112 C1084 0.930 . S
H1113 C1085 0.929 . S
H1114 C1087 0.930 . S
H1115 C1088 0.929 . S
H1116 C1093 0.930 . S
H1117 C1094 0.929 . S
H1118 C1096 0.930 . S
H1119 C1097 0.929 . S
Sm1120 C1122 2.846 . S
Sm1120 O1140 2.543 . S
Sm1120 O1141 2.450 . S
Sm1120 O1142 2.681 . S
Sm1120 O1143 2.464 . S
Sm1120 O1144 2.396 . S
Sm1120 O1148 2.386 . S
Sm1120 O1151 2.408 . S
Sm1121 C1131 2.846 . S
Sm1121 O1142 2.386 . S
Sm1121 O1145 2.408 . S
Sm1121 O1146 2.543 . S
Sm1121 O1147 2.450 . S
Sm1121 O1148 2.681 . S
Sm1121 O1149 2.464 . S
Sm1121 O1150 2.396 . S
C1122 Sm1120 2.846 . S
C1122 C1123 1.506 . S
C1122 O1140 1.261 . S
C1122 O1141 1.242 . S
C1123 C1122 1.506 . S
C1123 C1124 1.358 . S
C1123 C1128 1.382 . S
C1124 C1123 1.358 . S
C1124 C1125 1.385 . S
C1124 H1152 0.930 . S
C1125 C1124 1.385 . S
C1125 C1126 1.395 . S
C1125 H1153 0.929 . S
C1126 C1125 1.395 . S
C1126 C1127 1.335 . S
C1127 C1126 1.335 . S
C1127 C1128 1.398 . S
C1127 H1154 0.930 . S
C1128 C1123 1.382 . S
C1128 C1127 1.398 . S
C1128 H1155 0.929 . S
C1129 O1142 1.271 . S
C1129 O1143 1.251 . S
C1130 O1144 1.252 . S
C1130 O1145 1.272 . S
C1131 Sm1121 2.846 . S
C1131 C1132 1.506 . S
C1131 O1146 1.261 . S
C1131 O1147 1.242 . S
C1132 C1131 1.506 . S
C1132 C1133 1.358 . S
C1132 C1137 1.382 . S
C1133 C1132 1.358 . S
C1133 C1134 1.385 . S
C1133 H1156 0.930 . S
C1134 C1133 1.385 . S
C1134 C1135 1.395 . S
C1134 H1157 0.929 . S
C1135 C1134 1.395 . S
C1135 C1136 1.335 . S
C1136 C1135 1.335 . S
C1136 C1137 1.398 . S
C1136 H1158 0.930 . S
C1137 C1132 1.382 . S
C1137 C1136 1.398 . S
C1137 H1159 0.929 . S
C1138 O1148 1.271 . S
C1138 O1149 1.251 . S
C1139 O1150 1.252 . S
C1139 O1151 1.272 . S
O1140 Sm1120 2.543 . S
O1140 C1122 1.261 . S
O1141 Sm1120 2.450 . S
O1141 C1122 1.242 . S
O1142 Sm1120 2.681 . S
O1142 Sm1121 2.386 . S
O1142 C1129 1.271 . S
O1143 Sm1120 2.464 . S
O1143 C1129 1.251 . S
O1144 Sm1120 2.396 . S
O1144 C1130 1.252 . S
O1145 Sm1121 2.408 . S
O1145 C1130 1.272 . S
O1146 Sm1121 2.543 . S
O1146 C1131 1.261 . S
O1147 Sm1121 2.450 . S
O1147 C1131 1.242 . S
O1148 Sm1120 2.386 . S
O1148 Sm1121 2.681 . S
O1148 C1138 1.271 . S
O1149 Sm1121 2.464 . S
O1149 C1138 1.251 . S
O1150 Sm1121 2.396 . S
O1150 C1139 1.252 . S
O1151 Sm1120 2.408 . S
O1151 C1139 1.272 . S
H1152 C1124 0.930 . S
H1153 C1125 0.929 . S
H1154 C1127 0.930 . S
H1155 C1128 0.929 . S
H1156 C1133 0.930 . S
H1157 C1134 0.929 . S
H1158 C1136 0.930 . S
H1159 C1137 0.929 . S
Sm1160 C1162 2.846 . S
Sm1160 O1180 2.543 . S
Sm1160 O1181 2.450 . S
Sm1160 O1182 2.681 . S
Sm1160 O1183 2.464 . S
Sm1160 O1184 2.396 . S
Sm1160 O1188 2.386 . S
Sm1160 O1191 2.447 . S
Sm1161 C1171 2.808 1_554 S
Sm1161 O1182 2.386 . S
Sm1161 O1185 2.408 . S
Sm1161 O1186 2.543 1_554 S
Sm1161 O1187 2.450 . S
Sm1161 O1188 2.681 . S
Sm1161 O1189 2.464 . S
Sm1161 O1190 2.396 . S
C1162 Sm1160 2.846 . S
C1162 C1163 1.506 . S
C1162 O1180 1.261 . S
C1162 O1181 1.242 . S
C1163 C1162 1.506 . S
C1163 C1164 1.358 . S
C1163 C1168 1.382 . S
C1164 C1163 1.358 . S
C1164 C1165 1.385 . S
C1164 H1192 0.930 . S
C1165 C1164 1.385 . S
C1165 C1166 1.395 . S
C1165 H1193 0.929 . S
C1166 C1165 1.395 . S
C1166 C1167 1.335 . S
C1167 C1166 1.335 . S
C1167 C1168 1.398 . S
C1167 H1194 0.930 . S
C1168 C1163 1.382 . S
C1168 C1167 1.398 . S
C1168 H1195 0.929 . S
C1169 O1182 1.271 . S
C1169 O1183 1.251 . S
C1170 O1184 1.252 . S
C1170 O1185 1.272 . S
C1171 Sm1161 2.808 1_556 S
C1171 C1172 1.543 . S
C1171 O1186 1.267 . S
C1171 O1187 1.201 1_556 S
C1172 C1171 1.543 . S
C1172 C1173 1.358 . S
C1172 C1177 1.382 . S
C1173 C1172 1.358 . S
C1173 C1174 1.385 . S
C1173 H1196 0.930 . S
C1174 C1173 1.385 . S
C1174 C1175 1.395 . S
C1174 H1197 0.929 . S
C1175 C1174 1.395 . S
C1175 C1176 1.335 . S
C1176 C1175 1.335 . S
C1176 C1177 1.398 . S
C1176 H1198 0.930 . S
C1177 C1172 1.382 . S
C1177 C1176 1.398 . S
C1177 H1199 0.929 . S
C1178 O1188 1.271 . S
C1178 O1189 1.251 . S
C1179 O1190 1.252 1_556 S
C1179 O1191 1.256 1_556 S
O1180 Sm1160 2.543 . S
O1180 C1162 1.261 . S
O1181 Sm1160 2.450 . S
O1181 C1162 1.242 . S
O1182 Sm1160 2.681 . S
O1182 Sm1161 2.386 . S
O1182 C1169 1.271 . S
O1183 Sm1160 2.464 . S
O1183 C1169 1.251 . S
O1184 Sm1160 2.396 . S
O1184 C1170 1.252 . S
O1185 Sm1161 2.408 . S
O1185 C1170 1.272 . S
O1186 Sm1161 2.543 1_556 S
O1186 C1171 1.267 . S
O1187 Sm1161 2.450 . S
O1187 C1171 1.201 1_554 S
O1188 Sm1160 2.386 . S
O1188 Sm1161 2.681 . S
O1188 C1178 1.271 . S
O1189 Sm1161 2.464 . S
O1189 C1178 1.251 . S
O1190 Sm1161 2.396 . S
O1190 C1179 1.252 1_554 S
O1191 Sm1160 2.447 . S
O1191 C1179 1.256 1_554 S
H1192 C1164 0.930 . S
H1193 C1165 0.929 . S
H1194 C1167 0.930 . S
H1195 C1168 0.929 . S
H1196 C1173 0.930 . S
H1197 C1174 0.929 . S
H1198 C1176 0.930 . S
H1199 C1177 0.929 . S
Sm1200 C1202 2.846 . S
Sm1200 O1220 2.543 . S
Sm1200 O1221 2.450 . S
Sm1200 O1222 2.681 . S
Sm1200 O1223 2.464 . S
Sm1200 O1224 2.396 . S
Sm1200 O1228 2.386 . S
Sm1200 O1231 2.408 . S
Sm1201 C1211 2.846 . S
Sm1201 O1222 2.386 . S
Sm1201 O1225 2.408 . S
Sm1201 O1226 2.543 . S
Sm1201 O1227 2.450 . S
Sm1201 O1228 2.681 . S
Sm1201 O1229 2.464 . S
Sm1201 O1230 2.396 . S
C1202 Sm1200 2.846 . S
C1202 C1203 1.506 . S
C1202 O1220 1.261 . S
C1202 O1221 1.242 . S
C1203 C1202 1.506 . S
C1203 C1204 1.358 . S
C1203 C1208 1.382 . S
C1204 C1203 1.358 . S
C1204 C1205 1.385 . S
C1204 H1232 0.930 . S
C1205 C1204 1.385 . S
C1205 C1206 1.395 . S
C1205 H1233 0.929 . S
C1206 C1205 1.395 . S
C1206 C1207 1.335 . S
C1207 C1206 1.335 . S
C1207 C1208 1.398 . S
C1207 H1234 0.930 . S
C1208 C1203 1.382 . S
C1208 C1207 1.398 . S
C1208 H1235 0.929 . S
C1209 O1222 1.271 . S
C1209 O1223 1.251 . S
C1210 O1224 1.252 . S
C1210 O1225 1.272 . S
C1211 Sm1201 2.846 . S
C1211 C1212 1.506 . S
C1211 O1226 1.261 . S
C1211 O1227 1.242 . S
C1212 C1211 1.506 . S
C1212 C1213 1.358 . S
C1212 C1217 1.382 . S
C1213 C1212 1.358 . S
C1213 C1214 1.385 . S
C1213 H1236 0.930 . S
C1214 C1213 1.385 . S
C1214 C1215 1.395 . S
C1214 H1237 0.929 . S
C1215 C1214 1.395 . S
C1215 C1216 1.335 . S
C1216 C1215 1.335 . S
C1216 C1217 1.398 . S
C1216 H1238 0.930 . S
C1217 C1212 1.382 . S
C1217 C1216 1.398 . S
C1217 H1239 0.929 . S
C1218 O1228 1.271 . S
C1218 O1229 1.251 . S
C1219 O1230 1.252 . S
C1219 O1231 1.272 . S
O1220 Sm1200 2.543 . S
O1220 C1202 1.261 . S
O1221 Sm1200 2.450 . S
O1221 C1202 1.242 . S
O1222 Sm1200 2.681 . S
O1222 Sm1201 2.386 . S
O1222 C1209 1.271 . S
O1223 Sm1200 2.464 . S
O1223 C1209 1.251 . S
O1224 Sm1200 2.396 . S
O1224 C1210 1.252 . S
O1225 Sm1201 2.408 . S
O1225 C1210 1.272 . S
O1226 Sm1201 2.543 . S
O1226 C1211 1.261 . S
O1227 Sm1201 2.450 . S
O1227 C1211 1.242 . S
O1228 Sm1200 2.386 . S
O1228 Sm1201 2.681 . S
O1228 C1218 1.271 . S
O1229 Sm1201 2.464 . S
O1229 C1218 1.251 . S
O1230 Sm1201 2.396 . S
O1230 C1219 1.252 . S
O1231 Sm1200 2.408 . S
O1231 C1219 1.272 . S
H1232 C1204 0.930 . S
H1233 C1205 0.929 . S
H1234 C1207 0.930 . S
H1235 C1208 0.929 . S
H1236 C1213 0.930 . S
H1237 C1214 0.929 . S
H1238 C1216 0.930 . S
H1239 C1217 0.929 . S
Sm1240 C1242 2.846 . S
Sm1240 O1260 2.543 . S
Sm1240 O1261 2.450 . S
Sm1240 O1262 2.681 . S
Sm1240 O1263 2.464 . S
Sm1240 O1264 2.396 . S
Sm1240 O1268 2.386 . S
Sm1240 O1271 2.408 . S
Sm1241 C1251 2.846 . S
Sm1241 O1262 2.386 . S
Sm1241 O1265 2.408 . S
Sm1241 O1266 2.543 . S
Sm1241 O1267 2.450 . S
Sm1241 O1268 2.681 . S
Sm1241 O1269 2.464 . S
Sm1241 O1270 2.396 . S
C1242 Sm1240 2.846 . S
C1242 C1243 1.506 . S
C1242 O1260 1.261 . S
C1242 O1261 1.242 . S
C1243 C1242 1.506 . S
C1243 C1244 1.358 . S
C1243 C1248 1.382 . S
C1244 C1243 1.358 . S
C1244 C1245 1.385 . S
C1244 H1272 0.930 . S
C1245 C1244 1.385 . S
C1245 C1246 1.395 . S
C1245 H1273 0.929 . S
C1246 C1245 1.395 . S
C1246 C1247 1.335 . S
C1247 C1246 1.335 . S
C1247 C1248 1.398 . S
C1247 H1274 0.930 . S
C1248 C1243 1.382 . S
C1248 C1247 1.398 . S
C1248 H1275 0.929 . S
C1249 O1262 1.271 . S
C1249 O1263 1.251 . S
C1250 O1264 1.252 . S
C1250 O1265 1.272 . S
C1251 Sm1241 2.846 . S
C1251 C1252 1.506 . S
C1251 O1266 1.261 . S
C1251 O1267 1.242 . S
C1252 C1251 1.506 . S
C1252 C1253 1.358 . S
C1252 C1257 1.382 . S
C1253 C1252 1.358 . S
C1253 C1254 1.385 . S
C1253 H1276 0.930 . S
C1254 C1253 1.385 . S
C1254 C1255 1.395 . S
C1254 H1277 0.929 . S
C1255 C1254 1.395 . S
C1255 C1256 1.335 . S
C1256 C1255 1.335 . S
C1256 C1257 1.398 . S
C1256 H1278 0.930 . S
C1257 C1252 1.382 . S
C1257 C1256 1.398 . S
C1257 H1279 0.929 . S
C1258 O1268 1.271 . S
C1258 O1269 1.251 . S
C1259 O1270 1.252 . S
C1259 O1271 1.272 . S
O1260 Sm1240 2.543 . S
O1260 C1242 1.261 . S
O1261 Sm1240 2.450 . S
O1261 C1242 1.242 . S
O1262 Sm1240 2.681 . S
O1262 Sm1241 2.386 . S
O1262 C1249 1.271 . S
O1263 Sm1240 2.464 . S
O1263 C1249 1.251 . S
O1264 Sm1240 2.396 . S
O1264 C1250 1.252 . S
O1265 Sm1241 2.408 . S
O1265 C1250 1.272 . S
O1266 Sm1241 2.543 . S
O1266 C1251 1.261 . S
O1267 Sm1241 2.450 . S
O1267 C1251 1.242 . S
O1268 Sm1240 2.386 . S
O1268 Sm1241 2.681 . S
O1268 C1258 1.271 . S
O1269 Sm1241 2.464 . S
O1269 C1258 1.251 . S
O1270 Sm1241 2.396 . S
O1270 C1259 1.252 . S
O1271 Sm1240 2.408 . S
O1271 C1259 1.272 . S
H1272 C1244 0.930 . S
H1273 C1245 0.929 . S
H1274 C1247 0.930 . S
H1275 C1248 0.929 . S
H1276 C1253 0.930 . S
H1277 C1254 0.929 . S
H1278 C1256 0.930 . S
H1279 C1257 0.929 . S
C1280 C1281 1.349 . S
C1280 C1282 1.327 . S
C1280 H1305 0.950 . S
C1281 C1280 1.349 . S
C1281 C1297 1.349 . S
C1282 C1280 1.327 . S
C1282 C1301 1.429 . S
C1282 H1306 0.950 . S
C1283 C1300 1.574 . S
C1283 C1302 1.368 . S
C1283 H1307 0.949 . S
H1284 C1288 0.949 . S
C1285 C1286 1.349 . S
C1285 C1287 1.327 . S
C1285 H1308 0.950 . S
C1286 C1285 1.349 . S
C1286 C1298 1.349 . S
C1287 C1285 1.327 . S
C1287 C1303 1.429 . S
C1287 H1309 0.950 . S
C1288 H1284 0.949 . S
C1288 C1296 1.574 . S
C1288 C1304 1.368 . S
H1289 C1297 0.950 . S
H1290 C1295 0.950 . S
H1291 C1296 0.949 . S
H1292 C1298 0.950 . S
H1293 C1299 0.950 . S
H1294 C1300 0.949 . S
C1295 H1290 0.950 . S
C1295 C1297 1.327 . S
C1295 C1301 1.429 . S
C1296 C1288 1.574 . S
C1296 H1291 0.949 . S
C1296 C1302 1.368 . S
C1297 C1281 1.349 . S
C1297 H1289 0.950 . S
C1297 C1295 1.327 . S
C1298 C1286 1.349 . S
C1298 H1292 0.950 . S
C1298 C1299 1.327 . S
C1299 H1293 0.950 . S
C1299 C1298 1.327 . S
C1299 C1303 1.429 . S
C1300 C1283 1.574 . S
C1300 H1294 0.949 . S
C1300 C1304 1.368 . S
C1301 C1282 1.429 . S
C1301 C1295 1.429 . S
C1301 C1302 1.523 . S
C1302 C1283 1.368 . S
C1302 C1296 1.368 . S
C1302 C1301 1.523 . S
C1303 C1287 1.429 . S
C1303 C1299 1.429 . S
C1303 C1304 1.523 . S
C1304 C1288 1.368 . S
C1304 C1300 1.368 . S
C1304 C1303 1.523 . S
H1305 C1280 0.950 . S
H1306 C1282 0.950 . S
H1307 C1283 0.949 . S
H1308 C1285 0.950 . S
H1309 C1287 0.950 . S
C1310 C1311 1.349 . S
C1310 C1312 1.327 . S
C1310 H1335 0.950 . S
C1311 C1310 1.349 . S
C1311 C1327 1.349 . S
C1312 C1310 1.327 . S
C1312 C1331 1.429 . S
C1312 H1336 0.950 . S
C1313 C1330 1.574 . S
C1313 C1332 1.368 . S
C1313 H1337 0.949 . S
H1314 C1318 0.949 . S
C1315 C1316 1.349 . S
C1315 C1317 1.327 . S
C1315 H1338 0.950 . S
C1316 C1315 1.349 . S
C1316 C1328 1.349 . S
C1317 C1315 1.327 . S
C1317 C1333 1.429 1_565 S
C1317 H1339 0.950 . S
C1318 H1314 0.949 . S
C1318 C1326 1.574 . S
C1318 C1334 1.368 . S
H1319 C1327 0.950 . S
H1320 C1325 0.950 . S
H1321 C1326 0.949 . S
H1322 C1328 0.950 . S
H1323 C1329 0.950 . S
H1324 C1330 0.949 . S
C1325 H1320 0.950 . S
C1325 C1327 1.327 . S
C1325 C1331 1.429 . S
C1326 C1318 1.574 . S
C1326 H1321 0.949 . S
C1326 C1332 1.368 . S
C1327 C1311 1.349 . S
C1327 H1319 0.950 . S
C1327 C1325 1.327 . S
C1328 C1316 1.349 . S
C1328 H1322 0.950 . S
C1328 C1329 1.327 1_565 S
C1329 H1323 0.950 . S
C1329 C1328 1.327 1_545 S
C1329 C1333 1.429 . S
C1330 C1313 1.574 . S
C1330 H1324 0.949 . S
C1330 C1334 1.368 . S
C1331 C1312 1.429 . S
C1331 C1325 1.429 . S
C1331 C1332 1.523 . S
C1332 C1313 1.368 . S
C1332 C1326 1.368 . S
C1332 C1331 1.523 . S
C1333 C1317 1.429 1_545 S
C1333 C1329 1.429 . S
C1333 C1334 1.523 . S
C1334 C1318 1.368 . S
C1334 C1330 1.368 . S
C1334 C1333 1.523 . S
H1335 C1310 0.950 . S
H1336 C1312 0.950 . S
H1337 C1313 0.949 . S
H1338 C1315 0.950 . S
H1339 C1317 0.950 . S
C1340 C1341 1.349 . S
C1340 C1342 1.327 . S
C1340 H1365 0.950 . S
C1341 C1340 1.349 . S
C1341 C1357 1.349 . S
C1342 C1340 1.327 . S
C1342 C1361 1.429 . S
C1342 H1366 0.950 . S
C1343 C1360 1.574 . S
C1343 C1362 1.368 . S
C1343 H1367 0.949 . S
H1344 C1348 0.949 . S
C1345 C1346 1.349 . S
C1345 C1347 1.327 . S
C1345 H1368 0.950 . S
C1346 C1345 1.349 . S
C1346 C1358 1.349 . S
C1347 C1345 1.327 . S
C1347 C1363 1.429 . S
C1347 H1369 0.950 . S
C1348 H1344 0.949 . S
C1348 C1356 1.574 . S
C1348 C1364 1.368 . S
H1349 C1357 0.950 . S
H1350 C1355 0.950 . S
H1351 C1356 0.949 . S
H1352 C1358 0.950 . S
H1353 C1359 0.950 . S
H1354 C1360 0.949 . S
C1355 H1350 0.950 . S
C1355 C1357 1.327 . S
C1355 C1361 1.429 . S
C1356 C1348 1.574 . S
C1356 H1351 0.949 . S
C1356 C1362 1.368 . S
C1357 C1341 1.349 . S
C1357 H1349 0.950 . S
C1357 C1355 1.327 . S
C1358 C1346 1.349 . S
C1358 H1352 0.950 . S
C1358 C1359 1.327 . S
C1359 H1353 0.950 . S
C1359 C1358 1.327 . S
C1359 C1363 1.429 . S
C1360 C1343 1.574 . S
C1360 H1354 0.949 . S
C1360 C1364 1.368 . S
C1361 C1342 1.429 . S
C1361 C1355 1.429 . S
C1361 C1362 1.523 . S
C1362 C1343 1.368 . S
C1362 C1356 1.368 . S
C1362 C1361 1.523 . S
C1363 C1347 1.429 . S
C1363 C1359 1.429 . S
C1363 C1364 1.523 . S
C1364 C1348 1.368 . S
C1364 C1360 1.368 . S
C1364 C1363 1.523 . S
H1365 C1340 0.950 . S
H1366 C1342 0.950 . S
H1367 C1343 0.949 . S
H1368 C1345 0.950 . S
H1369 C1347 0.950 . S
C1370 C1371 1.349 . S
C1370 C1372 1.327 . S
C1370 H1395 0.950 . S
C1371 C1370 1.349 . S
C1371 C1387 1.349 . S
C1372 C1370 1.327 . S
C1372 C1391 1.429 . S
C1372 H1396 0.950 . S
C1373 C1390 1.574 . S
C1373 C1392 1.368 . S
C1373 H1397 0.949 . S
H1374 C1378 0.949 . S
C1375 C1376 1.349 . S
C1375 C1377 1.327 . S
C1375 H1398 0.950 . S
C1376 C1375 1.349 . S
C1376 C1388 1.349 . S
C1377 C1375 1.327 . S
C1377 C1393 1.429 1_545 S
C1377 H1399 0.950 . S
C1378 H1374 0.949 . S
C1378 C1386 1.574 . S
C1378 C1394 1.368 . S
H1379 C1387 0.950 . S
H1380 C1385 0.950 . S
H1381 C1386 0.949 . S
H1382 C1388 0.950 1_565 S
H1383 C1389 0.950 . S
H1384 C1390 1.010 . S
C1385 H1380 0.950 . S
C1385 C1387 1.327 . S
C1385 C1391 1.429 . S
C1386 C1378 1.574 . S
C1386 H1381 0.949 . S
C1386 C1392 1.368 . S
C1387 C1371 1.349 . S
C1387 H1379 0.950 . S
C1387 C1385 1.327 . S
C1388 C1376 1.349 . S
C1388 H1382 0.950 1_545 S
C1388 C1389 1.327 1_545 S
C1389 H1383 0.950 . S
C1389 C1388 1.327 1_565 S
C1389 C1393 1.429 . S
C1390 C1373 1.574 . S
C1390 H1384 1.010 . S
C1390 C1394 1.368 . S
C1391 C1372 1.429 . S
C1391 C1385 1.429 . S
C1391 C1392 1.523 . S
C1392 C1373 1.368 . S
C1392 C1386 1.368 . S
C1392 C1391 1.523 . S
C1393 C1377 1.429 1_565 S
C1393 C1389 1.429 . S
C1393 C1394 1.523 . S
C1394 C1378 1.368 . S
C1394 C1390 1.368 . S
C1394 C1393 1.523 . S
H1395 C1370 0.950 . S
H1396 C1372 0.950 . S
H1397 C1373 0.949 . S
H1398 C1375 0.950 . S
H1399 C1377 0.950 . S
C1400 C1401 1.349 . S
C1400 C1402 1.327 . S
C1400 H1425 0.950 . S
C1401 C1400 1.349 . S
C1401 C1417 1.349 . S
C1402 C1400 1.327 . S
C1402 C1421 1.429 . S
C1402 H1426 0.950 . S
C1403 C1420 1.574 . S
C1403 C1422 1.368 . S
C1403 H1427 0.949 . S
H1404 C1408 0.949 . S
C1405 C1406 1.349 . S
C1405 C1407 1.327 . S
C1405 H1428 0.950 . S
C1406 C1405 1.349 . S
C1406 C1418 1.349 . S
C1407 C1405 1.327 . S
C1407 C1423 1.429 . S
C1407 H1429 0.950 . S
C1408 H1404 0.949 . S
C1408 C1416 1.574 . S
C1408 C1424 1.368 . S
H1409 C1417 0.950 . S
H1410 C1415 0.950 . S
H1411 C1416 0.949 . S
H1412 C1418 0.950 . S
H1413 C1419 0.950 . S
H1414 C1420 0.949 . S
C1415 H1410 0.950 . S
C1415 C1417 1.327 . S
C1415 C1421 1.429 . S
C1416 C1408 1.574 . S
C1416 H1411 0.949 . S
C1416 C1422 1.368 . S
C1417 C1401 1.349 . S
C1417 H1409 0.950 . S
C1417 C1415 1.327 . S
C1418 C1406 1.349 . S
C1418 H1412 0.950 . S
C1418 C1419 1.327 . S
C1419 H1413 0.950 . S
C1419 C1418 1.327 . S
C1419 C1423 1.429 . S
C1420 C1403 1.574 . S
C1420 H1414 0.949 . S
C1420 C1424 1.368 . S
C1421 C1402 1.429 . S
C1421 C1415 1.429 . S
C1421 C1422 1.523 . S
C1422 C1403 1.368 . S
C1422 C1416 1.368 . S
C1422 C1421 1.523 . S
C1423 C1407 1.429 . S
C1423 C1419 1.429 . S
C1423 C1424 1.523 . S
C1424 C1408 1.368 . S
C1424 C1420 1.368 . S
C1424 C1423 1.523 . S
H1425 C1400 0.950 . S
H1426 C1402 0.950 . S
H1427 C1403 0.949 . S
H1428 C1405 0.950 . S
H1429 C1407 0.950 . S
C1430 C1431 1.349 . S
C1430 C1432 1.327 1_565 S
C1430 H1455 0.948 1_565 S
C1431 C1430 1.349 . S
C1431 C1447 1.349 . S
C1432 C1430 1.327 1_545 S
C1432 C1451 1.429 . S
C1432 H1456 0.950 . S
C1433 C1450 1.574 . S
C1433 C1452 1.368 . S
C1433 H1457 0.949 . S
H1434 C1438 0.949 . S
C1435 C1436 1.349 . S
C1435 C1437 1.327 . S
C1435 H1458 0.950 . S
C1436 C1435 1.349 . S
C1436 C1448 1.349 . S
C1437 C1435 1.327 . S
C1437 C1453 1.429 . S
C1437 H1459 0.950 . S
C1438 H1434 0.949 . S
C1438 C1446 1.574 . S
C1438 C1454 1.368 . S
H1439 C1447 0.950 . S
H1440 C1445 0.950 . S
H1441 C1446 0.949 . S
H1442 C1448 0.950 . S
H1443 C1449 0.950 . S
H1444 C1450 0.949 . S
C1445 H1440 0.950 . S
C1445 C1447 1.327 . S
C1445 C1451 1.429 1_565 S
C1446 C1438 1.574 . S
C1446 H1441 0.949 . S
C1446 C1452 1.368 . S
C1447 C1431 1.349 . S
C1447 H1439 0.950 . S
C1447 C1445 1.327 . S
C1448 C1436 1.349 . S
C1448 H1442 0.950 . S
C1448 C1449 1.327 . S
C1449 H1443 0.950 . S
C1449 C1448 1.327 . S
C1449 C1453 1.429 . S
C1450 C1433 1.574 . S
C1450 H1444 0.949 . S
C1450 C1454 1.368 . S
C1451 C1432 1.429 . S
C1451 C1445 1.429 1_545 S
C1451 C1452 1.523 . S
C1452 C1433 1.368 . S
C1452 C1446 1.368 . S
C1452 C1451 1.523 . S
C1453 C1437 1.429 . S
C1453 C1449 1.429 . S
C1453 C1454 1.523 . S
C1454 C1438 1.368 . S
C1454 C1450 1.368 . S
C1454 C1453 1.523 . S
H1455 C1430 0.948 1_545 S
H1456 C1432 0.950 . S
H1457 C1433 0.949 . S
H1458 C1435 0.950 . S
H1459 C1437 0.950 . S
C1460 C1461 1.349 . S
C1460 C1462 1.327 . S
C1460 H1485 0.950 . S
C1461 C1460 1.349 . S
C1461 C1477 1.349 . S
C1462 C1460 1.327 . S
C1462 C1481 1.429 . S
C1462 H1486 0.950 . S
C1463 C1480 1.574 . S
C1463 C1482 1.368 . S
C1463 H1487 0.949 . S
H1464 C1468 0.949 . S
C1465 C1466 1.349 . S
C1465 C1467 1.327 . S
C1465 H1488 0.950 . S
C1466 C1465 1.349 . S
C1466 C1478 1.349 . S
C1467 C1465 1.327 . S
C1467 C1483 1.429 . S
C1467 H1489 0.950 . S
C1468 H1464 0.949 . S
C1468 C1476 1.574 . S
C1468 C1484 1.368 . S
H1469 C1477 0.950 . S
H1470 C1475 0.950 . S
H1471 C1476 0.949 . S
H1472 C1478 0.950 . S
H1473 C1479 0.950 . S
H1474 C1480 0.949 . S
C1475 H1470 0.950 . S
C1475 C1477 1.327 . S
C1475 C1481 1.429 . S
C1476 C1468 1.574 . S
C1476 H1471 0.949 . S
C1476 C1482 1.368 . S
C1477 C1461 1.349 . S
C1477 H1469 0.950 . S
C1477 C1475 1.327 . S
C1478 C1466 1.349 . S
C1478 H1472 0.950 . S
C1478 C1479 1.327 . S
C1479 H1473 0.950 . S
C1479 C1478 1.327 . S
C1479 C1483 1.429 . S
C1480 C1463 1.574 . S
C1480 H1474 0.949 . S
C1480 C1484 1.368 . S
C1481 C1462 1.429 . S
C1481 C1475 1.429 . S
C1481 C1482 1.523 . S
C1482 C1463 1.368 . S
C1482 C1476 1.368 . S
C1482 C1481 1.523 . S
C1483 C1467 1.429 . S
C1483 C1479 1.429 . S
C1483 C1484 1.523 . S
C1484 C1468 1.368 . S
C1484 C1480 1.368 . S
C1484 C1483 1.523 . S
H1485 C1460 0.950 . S
H1486 C1462 0.950 . S
H1487 C1463 0.949 . S
H1488 C1465 0.950 . S
H1489 C1467 0.950 . S
C1490 C1491 1.349 . S
C1490 C1492 1.327 . S
C1490 H1515 0.950 . S
C1491 C1490 1.349 . S
C1491 C1507 1.349 . S
C1492 C1490 1.327 . S
C1492 C1511 1.429 . S
C1492 H1516 0.950 . S
C1493 C1510 1.574 . S
C1493 C1512 1.368 . S
C1493 H1517 0.949 . S
H1494 C1498 0.949 . S
C1495 C1496 1.349 . S
C1495 C1497 1.327 . S
C1495 H1518 0.950 . S
C1496 C1495 1.349 . S
C1496 C1508 1.349 . S
C1497 C1495 1.327 . S
C1497 C1513 1.429 1_545 S
C1497 H1519 0.950 . S
C1498 H1494 0.949 . S
C1498 C1506 1.574 . S
C1498 C1514 1.368 . S
H1499 C1507 0.950 . S
H1500 C1505 0.950 . S
H1501 C1506 0.949 . S
H1502 C1508 0.950 . S
H1503 C1509 0.950 . S
H1504 C1510 0.949 . S
C1505 H1500 0.950 . S
C1505 C1507 1.327 . S
C1505 C1511 1.429 . S
C1506 C1498 1.574 . S
C1506 H1501 0.949 . S
C1506 C1512 1.368 . S
C1507 C1491 1.349 . S
C1507 H1499 0.950 . S
C1507 C1505 1.327 . S
C1508 C1496 1.349 . S
C1508 H1502 0.950 . S
C1508 C1509 1.327 1_545 S
C1509 H1503 0.950 . S
C1509 C1508 1.327 1_565 S
C1509 C1513 1.429 . S
C1510 C1493 1.574 . S
C1510 H1504 0.949 . S
C1510 C1514 1.368 . S
C1511 C1492 1.429 . S
C1511 C1505 1.429 . S
C1511 C1512 1.523 . S
C1512 C1493 1.368 . S
C1512 C1506 1.368 . S
C1512 C1511 1.523 . S
C1513 C1497 1.429 1_565 S
C1513 C1509 1.429 . S
C1513 C1514 1.523 . S
C1514 C1498 1.368 . S
C1514 C1510 1.368 . S
C1514 C1513 1.523 . S
H1515 C1490 0.950 . S
H1516 C1492 0.950 . S
H1517 C1493 0.949 . S
H1518 C1495 0.950 . S
H1519 C1497 0.950 . S
C1520 C1521 1.349 . S
C1520 C1522 1.327 . S
C1520 H1545 0.950 . S
C1521 C1520 1.349 . S
C1521 C1537 1.349 . S
C1522 C1520 1.327 . S
C1522 C1541 1.429 . S
C1522 H1546 0.950 . S
C1523 C1540 1.574 . S
C1523 C1542 1.368 . S
C1523 H1547 0.949 . S
H1524 C1528 0.949 . S
C1525 C1526 1.349 . S
C1525 C1527 1.327 . S
C1525 H1548 0.950 . S
C1526 C1525 1.349 . S
C1526 C1538 1.349 . S
C1527 C1525 1.327 . S
C1527 C1543 1.429 . S
C1527 H1549 0.950 . S
C1528 H1524 0.949 . S
C1528 C1536 1.574 . S
C1528 C1544 1.368 . S
H1529 C1537 0.950 . S
H1530 C1535 0.950 . S
H1531 C1536 0.949 . S
H1532 C1538 0.950 . S
H1533 C1539 0.950 . S
H1534 C1540 0.949 . S
C1535 H1530 0.950 . S
C1535 C1537 1.327 . S
C1535 C1541 1.429 . S
C1536 C1528 1.574 . S
C1536 H1531 0.949 . S
C1536 C1542 1.368 . S
C1537 C1521 1.349 . S
C1537 H1529 0.950 . S
C1537 C1535 1.327 . S
C1538 C1526 1.349 . S
C1538 H1532 0.950 . S
C1538 C1539 1.327 . S
C1539 H1533 0.950 . S
C1539 C1538 1.327 . S
C1539 C1543 1.429 . S
C1540 C1523 1.574 . S
C1540 H1534 0.949 . S
C1540 C1544 1.368 . S
C1541 C1522 1.429 . S
C1541 C1535 1.429 . S
C1541 C1542 1.523 . S
C1542 C1523 1.368 . S
C1542 C1536 1.368 . S
C1542 C1541 1.523 . S
C1543 C1527 1.429 . S
C1543 C1539 1.429 . S
C1543 C1544 1.523 . S
C1544 C1528 1.368 . S
C1544 C1540 1.368 . S
C1544 C1543 1.523 . S
H1545 C1520 0.950 . S
H1546 C1522 0.950 . S
H1547 C1523 0.949 . S
H1548 C1525 0.950 . S
H1549 C1527 0.950 . S
C1550 C1551 1.349 . S
C1550 C1552 1.327 . S
C1550 H1575 0.950 . S
C1551 C1550 1.349 . S
C1551 C1567 1.349 . S
C1552 C1550 1.327 . S
C1552 C1571 1.429 1_545 S
C1552 H1576 0.950 . S
C1553 C1570 1.574 . S
C1553 C1572 1.368 . S
C1553 H1577 0.949 . S
H1554 C1558 0.949 . S
C1555 C1556 1.349 . S
C1555 C1557 1.327 . S
C1555 H1578 0.950 . S
C1556 C1555 1.349 . S
C1556 C1568 1.349 . S
C1557 C1555 1.327 . S
C1557 C1573 1.429 . S
C1557 H1579 0.950 . S
C1558 H1554 0.949 . S
C1558 C1566 1.574 . S
C1558 C1574 1.368 . S
H1559 C1567 0.950 . S
H1560 C1565 0.950 . S
H1561 C1566 0.949 . S
H1562 C1568 0.950 . S
H1563 C1569 0.950 . S
H1564 C1570 0.949 . S
C1565 H1560 0.950 . S
C1565 C1567 1.327 1_565 S
C1565 C1571 1.429 . S
C1566 C1558 1.574 . S
C1566 H1561 0.949 . S
C1566 C1572 1.368 . S
C1567 C1551 1.349 . S
C1567 H1559 0.950 . S
C1567 C1565 1.327 1_545 S
C1568 C1556 1.349 . S
C1568 H1562 0.950 . S
C1568 C1569 1.327 . S
C1569 H1563 0.950 . S
C1569 C1568 1.327 . S
C1569 C1573 1.429 . S
C1570 C1553 1.574 . S
C1570 H1564 0.949 . S
C1570 C1574 1.368 . S
C1571 C1552 1.429 1_565 S
C1571 C1565 1.429 . S
C1571 C1572 1.523 . S
C1572 C1553 1.368 . S
C1572 C1566 1.368 . S
C1572 C1571 1.523 . S
C1573 C1557 1.429 . S
C1573 C1569 1.429 . S
C1573 C1574 1.523 . S
C1574 C1558 1.368 . S
C1574 C1570 1.368 . S
C1574 C1573 1.523 . S
H1575 C1550 0.950 . S
H1576 C1552 0.950 . S
H1577 C1553 0.949 . S
H1578 C1555 0.950 . S
H1579 C1557 0.950 . S
C1580 C1581 1.349 . S
C1580 C1582 1.327 . S
C1580 H1605 0.950 . S
C1581 C1580 1.349 . S
C1581 C1597 1.349 . S
C1582 C1580 1.327 . S
C1582 C1601 1.429 . S
C1582 H1606 0.950 . S
C1583 C1600 1.574 . S
C1583 C1602 1.368 . S
C1583 H1607 0.949 . S
H1584 C1588 0.949 . S
C1585 C1586 1.349 . S
C1585 C1587 1.327 . S
C1585 H1608 0.950 . S
C1586 C1585 1.349 . S
C1586 C1598 1.349 . S
C1587 C1585 1.327 . S
C1587 C1603 1.429 . S
C1587 H1609 0.950 . S
C1588 H1584 0.949 . S
C1588 C1596 1.574 . S
C1588 C1604 1.368 . S
H1589 C1597 0.950 . S
H1590 C1595 0.950 . S
H1591 C1596 0.949 . S
H1592 C1598 0.950 . S
H1593 C1599 0.950 . S
H1594 C1600 0.949 . S
C1595 H1590 0.950 . S
C1595 C1597 1.327 . S
C1595 C1601 1.429 . S
C1596 C1588 1.574 . S
C1596 H1591 0.949 . S
C1596 C1602 1.368 . S
C1597 C1581 1.349 . S
C1597 H1589 0.950 . S
C1597 C1595 1.327 . S
C1598 C1586 1.349 . S
C1598 H1592 0.950 . S
C1598 C1599 1.327 . S
C1599 H1593 0.950 . S
C1599 C1598 1.327 . S
C1599 C1603 1.429 . S
C1600 C1583 1.574 . S
C1600 H1594 0.949 . S
C1600 C1604 1.368 . S
C1601 C1582 1.429 . S
C1601 C1595 1.429 . S
C1601 C1602 1.523 . S
C1602 C1583 1.368 . S
C1602 C1596 1.368 . S
C1602 C1601 1.523 . S
C1603 C1587 1.429 . S
C1603 C1599 1.429 . S
C1603 C1604 1.523 . S
C1604 C1588 1.368 . S
C1604 C1600 1.368 . S
C1604 C1603 1.523 . S
H1605 C1580 0.950 . S
H1606 C1582 0.950 . S
H1607 C1583 0.949 . S
H1608 C1585 0.950 . S
H1609 C1587 0.950 . S
C1610 C1611 1.349 . S
C1610 C1612 1.327 . S
C1610 H1635 0.950 . S
C1611 C1610 1.349 . S
C1611 C1627 1.349 . S
C1612 C1610 1.327 . S
C1612 C1631 1.429 1_565 S
C1612 H1636 0.950 . S
C1613 C1630 1.574 . S
C1613 C1632 1.368 . S
C1613 H1637 0.949 . S
H1614 C1618 0.949 . S
C1615 C1616 1.349 . S
C1615 C1617 1.327 . S
C1615 H1638 0.950 . S
C1616 C1615 1.349 . S
C1616 C1628 1.349 . S
C1617 C1615 1.327 . S
C1617 C1633 1.429 . S
C1617 H1639 0.950 . S
C1618 H1614 0.949 . S
C1618 C1626 1.574 . S
C1618 C1634 1.368 . S
H1619 C1627 0.950 1_545 S
H1620 C1625 0.950 . S
H1621 C1626 0.949 . S
H1622 C1628 0.950 . S
H1623 C1629 0.950 . S
H1624 C1630 0.949 . S
C1625 H1620 0.950 . S
C1625 C1627 1.327 1_545 S
C1625 C1631 1.429 . S
C1626 C1618 1.574 . S
C1626 H1621 0.949 . S
C1626 C1632 1.368 . S
C1627 C1611 1.349 . S
C1627 H1619 0.950 1_565 S
C1627 C1625 1.327 1_565 S
C1628 C1616 1.349 . S
C1628 H1622 0.950 . S
C1628 C1629 1.327 . S
C1629 H1623 0.950 . S
C1629 C1628 1.327 . S
C1629 C1633 1.429 . S
C1630 C1613 1.574 . S
C1630 H1624 0.949 . S
C1630 C1634 1.368 . S
C1631 C1612 1.429 1_545 S
C1631 C1625 1.429 . S
C1631 C1632 1.523 . S
C1632 C1613 1.368 . S
C1632 C1626 1.368 . S
C1632 C1631 1.523 . S
C1633 C1617 1.429 . S
C1633 C1629 1.429 . S
C1633 C1634 1.523 . S
C1634 C1618 1.368 . S
C1634 C1630 1.368 . S
C1634 C1633 1.523 . S
H1635 C1610 0.950 . S
H1636 C1612 0.950 . S
H1637 C1613 0.949 . S
H1638 C1615 0.950 . S
H1639 C1617 0.950 . S
C1640 C1641 1.349 . S
C1640 C1642 1.327 . S
C1640 H1665 0.950 . S
C1641 C1640 1.349 . S
C1641 C1657 1.349 . S
C1642 C1640 1.327 . S
C1642 C1661 1.429 . S
C1642 H1666 0.950 . S
C1643 C1660 1.574 . S
C1643 C1662 1.368 . S
C1643 H1667 0.949 . S
H1644 C1648 0.949 . S
C1645 C1646 1.349 . S
C1645 C1647 1.327 . S
C1645 H1668 0.950 . S
C1646 C1645 1.349 . S
C1646 C1658 1.349 . S
C1647 C1645 1.327 . S
C1647 C1663 1.429 . S
C1647 H1669 0.950 . S
C1648 H1644 0.949 . S
C1648 C1656 1.574 . S
C1648 C1664 1.368 . S
H1649 C1657 0.950 . S
H1650 C1655 0.950 . S
H1651 C1656 0.949 . S
H1652 C1658 0.950 . S
H1653 C1659 0.950 . S
H1654 C1660 0.949 . S
C1655 H1650 0.950 . S
C1655 C1657 1.327 . S
C1655 C1661 1.429 . S
C1656 C1648 1.574 . S
C1656 H1651 0.949 . S
C1656 C1662 1.368 . S
C1657 C1641 1.349 . S
C1657 H1649 0.950 . S
C1657 C1655 1.327 . S
C1658 C1646 1.349 . S
C1658 H1652 0.950 . S
C1658 C1659 1.327 . S
C1659 H1653 0.950 . S
C1659 C1658 1.327 . S
C1659 C1663 1.429 . S
C1660 C1643 1.574 . S
C1660 H1654 0.949 . S
C1660 C1664 1.368 . S
C1661 C1642 1.429 . S
C1661 C1655 1.429 . S
C1661 C1662 1.523 . S
C1662 C1643 1.368 . S
C1662 C1656 1.368 . S
C1662 C1661 1.523 . S
C1663 C1647 1.429 . S
C1663 C1659 1.429 . S
C1663 C1664 1.523 . S
C1664 C1648 1.368 . S
C1664 C1660 1.368 . S
C1664 C1663 1.523 . S
H1665 C1640 0.950 . S
H1666 C1642 0.950 . S
H1667 C1643 0.949 . S
H1668 C1645 0.950 . S
H1669 C1647 0.950 . S
C1670 C1671 1.349 . S
C1670 C1672 1.327 1_545 S
C1670 H1695 0.950 . S
C1671 C1670 1.349 . S
C1671 C1687 1.349 . S
C1672 C1670 1.327 1_565 S
C1672 C1691 1.429 . S
C1672 H1696 0.950 . S
C1673 C1690 1.574 . S
C1673 C1692 1.368 . S
C1673 H1697 0.949 . S
H1674 C1678 0.949 . S
C1675 C1676 1.349 . S
C1675 C1677 1.327 . S
C1675 H1698 0.950 . S
C1676 C1675 1.349 . S
C1676 C1688 1.349 . S
C1677 C1675 1.327 . S
C1677 C1693 1.429 . S
C1677 H1699 0.950 . S
C1678 H1674 0.949 . S
C1678 C1686 1.574 . S
C1678 C1694 1.368 . S
H1679 C1687 0.950 . S
H1680 C1685 0.950 . S
H1681 C1686 0.949 . S
H1682 C1688 0.950 . S
H1683 C1689 0.950 . S
H1684 C1690 0.949 . S
C1685 H1680 0.950 . S
C1685 C1687 1.327 . S
C1685 C1691 1.429 1_545 S
C1686 C1678 1.574 . S
C1686 H1681 0.949 . S
C1686 C1692 1.368 . S
C1687 C1671 1.349 . S
C1687 H1679 0.950 . S
C1687 C1685 1.327 . S
C1688 C1676 1.349 . S
C1688 H1682 0.950 . S
C1688 C1689 1.327 . S
C1689 H1683 0.950 . S
C1689 C1688 1.327 . S
C1689 C1693 1.429 . S
C1690 C1673 1.574 . S
C1690 H1684 0.949 . S
C1690 C1694 1.368 . S
C1691 C1672 1.429 . S
C1691 C1685 1.429 1_565 S
C1691 C1692 1.523 . S
C1692 C1673 1.368 . S
C1692 C1686 1.368 . S
C1692 C1691 1.523 . S
C1693 C1677 1.429 . S
C1693 C1689 1.429 . S
C1693 C1694 1.523 . S
C1694 C1678 1.368 . S
C1694 C1690 1.368 . S
C1694 C1693 1.523 . S
H1695 C1670 0.950 . S
H1696 C1672 0.950 . S
H1697 C1673 0.949 . S
H1698 C1675 0.950 . S
H1699 C1677 0.950 . S
C1700 C1701 1.349 . S
C1700 C1702 1.327 . S
C1700 H1725 0.950 . S
C1701 C1700 1.349 . S
C1701 C1717 1.349 . S
C1702 C1700 1.327 . S
C1702 C1721 1.429 . S
C1702 H1726 0.950 . S
C1703 C1720 1.574 . S
C1703 C1722 1.368 . S
C1703 H1727 0.949 . S
H1704 C1708 0.949 . S
C1705 C1706 1.349 . S
C1705 C1707 1.327 . S
C1705 H1728 0.950 . S
C1706 C1705 1.349 . S
C1706 C1718 1.349 . S
C1707 C1705 1.327 . S
C1707 C1723 1.429 . S
C1707 H1729 0.950 . S
C1708 H1704 0.949 . S
C1708 C1716 1.574 . S
C1708 C1724 1.368 . S
H1709 C1717 0.950 . S
H1710 C1715 0.950 . S
H1711 C1716 0.949 . S
H1712 C1718 0.950 . S
H1713 C1719 0.950 . S
H1714 C1720 0.949 . S
C1715 H1710 0.950 . S
C1715 C1717 1.327 . S
C1715 C1721 1.429 . S
C1716 C1708 1.574 . S
C1716 H1711 0.949 . S
C1716 C1722 1.368 . S
C1717 C1701 1.349 . S
C1717 H1709 0.950 . S
C1717 C1715 1.327 . S
C1718 C1706 1.349 . S
C1718 H1712 0.950 . S
C1718 C1719 1.327 . S
C1719 H1713 0.950 . S
C1719 C1718 1.327 . S
C1719 C1723 1.429 . S
C1720 C1703 1.574 . S
C1720 H1714 0.949 . S
C1720 C1724 1.368 . S
C1721 C1702 1.429 . S
C1721 C1715 1.429 . S
C1721 C1722 1.523 . S
C1722 C1703 1.368 . S
C1722 C1716 1.368 . S
C1722 C1721 1.523 . S
C1723 C1707 1.429 . S
C1723 C1719 1.429 . S
C1723 C1724 1.523 . S
C1724 C1708 1.368 . S
C1724 C1720 1.368 . S
C1724 C1723 1.523 . S
H1725 C1700 0.950 . S
H1726 C1702 0.950 . S
H1727 C1703 0.949 . S
H1728 C1705 0.950 . S
H1729 C1707 0.950 . S
C1730 C1731 1.349 . S
C1730 C1732 1.327 . S
C1730 H1755 0.950 . S
C1731 C1730 1.349 . S
C1731 C1747 1.349 . S
C1732 C1730 1.327 . S
C1732 C1751 1.429 . S
C1732 H1756 0.950 . S
C1733 C1750 1.574 . S
C1733 C1752 1.368 . S
C1733 H1757 0.949 . S
H1734 C1738 0.949 . S
C1735 C1736 1.349 . S
C1735 C1737 1.327 1_565 S
C1735 H1758 0.950 . S
C1736 C1735 1.349 . S
C1736 C1748 1.349 . S
C1737 C1735 1.327 1_545 S
C1737 C1753 1.429 . S
C1737 H1759 0.950 . S
C1738 H1734 0.949 . S
C1738 C1746 1.574 . S
C1738 C1754 1.368 . S
H1739 C1747 0.950 . S
H1740 C1745 0.950 . S
H1741 C1746 0.949 . S
H1742 C1748 0.950 . S
H1743 C1749 0.950 . S
H1744 C1750 0.949 . S
C1745 H1740 0.950 . S
C1745 C1747 1.327 . S
C1745 C1751 1.429 . S
C1746 C1738 1.574 . S
C1746 H1741 0.949 . S
C1746 C1752 1.368 . S
C1747 C1731 1.349 . S
C1747 H1739 0.950 . S
C1747 C1745 1.327 . S
C1748 C1736 1.349 . S
C1748 H1742 0.950 . S
C1748 C1749 1.327 . S
C1749 H1743 0.950 . S
C1749 C1748 1.327 . S
C1749 C1753 1.429 1_565 S
C1750 C1733 1.574 . S
C1750 H1744 0.949 . S
C1750 C1754 1.368 . S
C1751 C1732 1.429 . S
C1751 C1745 1.429 . S
C1751 C1752 1.523 . S
C1752 C1733 1.368 . S
C1752 C1746 1.368 . S
C1752 C1751 1.523 . S
C1753 C1737 1.429 . S
C1753 C1749 1.429 1_545 S
C1753 C1754 1.523 . S
C1754 C1738 1.368 . S
C1754 C1750 1.368 . S
C1754 C1753 1.523 . S
H1755 C1730 0.950 . S
H1756 C1732 0.950 . S
H1757 C1733 0.949 . S
H1758 C1735 0.950 . S
H1759 C1737 0.950 . S
C1760 C1761 1.349 . S
C1760 C1762 1.327 . S
C1760 H1785 0.950 . S
C1761 C1760 1.349 . S
C1761 C1777 1.349 . S
C1762 C1760 1.327 . S
C1762 C1781 1.429 . S
C1762 H1786 0.950 . S
C1763 C1780 1.574 . S
C1763 C1782 1.368 . S
C1763 H1787 0.949 . S
H1764 C1768 0.949 . S
C1765 C1766 1.349 . S
C1765 C1767 1.327 . S
C1765 H1788 0.950 . S
C1766 C1765 1.349 . S
C1766 C1778 1.349 . S
C1767 C1765 1.327 . S
C1767 C1783 1.429 . S
C1767 H1789 0.950 . S
C1768 H1764 0.949 . S
C1768 C1776 1.574 . S
C1768 C1784 1.368 . S
H1769 C1777 0.950 . S
H1770 C1775 0.950 . S
H1771 C1776 0.949 . S
H1772 C1778 0.950 . S
H1773 C1779 0.950 . S
H1774 C1780 0.949 . S
C1775 H1770 0.950 . S
C1775 C1777 1.327 . S
C1775 C1781 1.429 . S
C1776 C1768 1.574 . S
C1776 H1771 0.949 . S
C1776 C1782 1.368 . S
C1777 C1761 1.349 . S
C1777 H1769 0.950 . S
C1777 C1775 1.327 . S
C1778 C1766 1.349 . S
C1778 H1772 0.950 . S
C1778 C1779 1.327 . S
C1779 H1773 0.950 . S
C1779 C1778 1.327 . S
C1779 C1783 1.429 . S
C1780 C1763 1.574 . S
C1780 H1774 0.949 . S
C1780 C1784 1.368 . S
C1781 C1762 1.429 . S
C1781 C1775 1.429 . S
C1781 C1782 1.523 . S
C1782 C1763 1.368 . S
C1782 C1776 1.368 . S
C1782 C1781 1.523 . S
C1783 C1767 1.429 . S
C1783 C1779 1.429 . S
C1783 C1784 1.523 . S
C1784 C1768 1.368 . S
C1784 C1780 1.368 . S
C1784 C1783 1.523 . S
H1785 C1760 0.950 . S
H1786 C1762 0.950 . S
H1787 C1763 0.949 . S
H1788 C1765 0.950 . S
H1789 C1767 0.950 . S
C1790 C1791 1.349 . S
C1790 C1792 1.327 . S
C1790 H1815 0.950 . S
C1791 C1790 1.349 . S
C1791 C1807 1.349 . S
C1792 C1790 1.327 . S
C1792 C1811 1.429 . S
C1792 H1816 0.950 . S
C1793 C1810 1.574 . S
C1793 C1812 1.368 . S
C1793 H1817 0.949 . S
H1794 C1798 0.949 . S
C1795 C1796 1.349 . S
C1795 C1797 1.327 . S
C1795 H1818 0.950 . S
C1796 C1795 1.349 . S
C1796 C1808 1.349 . S
C1797 C1795 1.327 . S
C1797 C1813 1.429 . S
C1797 H1819 0.950 . S
C1798 H1794 0.949 . S
C1798 C1806 1.574 . S
C1798 C1814 1.368 . S
H1799 C1807 0.950 . S
H1800 C1805 0.950 . S
H1801 C1806 0.949 . S
H1802 C1808 0.950 . S
H1803 C1809 0.950 . S
H1804 C1810 0.949 . S
C1805 H1800 0.950 . S
C1805 C1807 1.327 . S
C1805 C1811 1.429 . S
C1806 C1798 1.574 . S
C1806 H1801 0.949 . S
C1806 C1812 1.368 . S
C1807 C1791 1.349 . S
C1807 H1799 0.950 . S
C1807 C1805 1.327 . S
C1808 C1796 1.349 . S
C1808 H1802 0.950 . S
C1808 C1809 1.327 . S
C1809 H1803 0.950 . S
C1809 C1808 1.327 . S
C1809 C1813 1.429 . S
C1810 C1793 1.574 . S
C1810 H1804 0.949 . S
C1810 C1814 1.368 . S
C1811 C1792 1.429 . S
C1811 C1805 1.429 . S
C1811 C1812 1.523 . S
C1812 C1793 1.368 . S
C1812 C1806 1.368 . S
C1812 C1811 1.523 . S
C1813 C1797 1.429 . S
C1813 C1809 1.429 . S
C1813 C1814 1.523 . S
C1814 C1798 1.368 . S
C1814 C1810 1.368 . S
C1814 C1813 1.523 . S
H1815 C1790 0.950 . S
H1816 C1792 0.950 . S
H1817 C1793 0.949 . S
H1818 C1795 0.950 . S
H1819 C1797 0.950 . S
C1820 C1821 1.349 . S
C1820 C1822 1.327 . S
C1820 H1845 0.950 . S
C1821 C1820 1.349 . S
C1821 C1837 1.349 . S
C1822 C1820 1.327 . S
C1822 C1841 1.429 . S
C1822 H1846 0.950 . S
C1823 C1840 1.574 . S
C1823 C1842 1.368 . S
C1823 H1847 0.949 . S
H1824 C1828 0.949 . S
C1825 C1826 1.349 . S
C1825 C1827 1.327 . S
C1825 H1848 0.950 . S
C1826 C1825 1.349 . S
C1826 C1838 1.349 . S
C1827 C1825 1.327 . S
C1827 C1843 1.429 . S
C1827 H1849 0.950 . S
C1828 H1824 0.949 . S
C1828 C1836 1.574 . S
C1828 C1844 1.368 . S
H1829 C1837 0.950 . S
H1830 C1835 0.950 . S
H1831 C1836 0.949 . S
H1832 C1838 0.950 . S
H1833 C1839 0.950 . S
H1834 C1840 0.949 . S
C1835 H1830 0.950 . S
C1835 C1837 1.327 . S
C1835 C1841 1.429 . S
C1836 C1828 1.574 . S
C1836 H1831 0.949 . S
C1836 C1842 1.368 . S
C1837 C1821 1.349 . S
C1837 H1829 0.950 . S
C1837 C1835 1.327 . S
C1838 C1826 1.349 . S
C1838 H1832 0.950 . S
C1838 C1839 1.327 . S
C1839 H1833 0.950 . S
C1839 C1838 1.327 . S
C1839 C1843 1.429 . S
C1840 C1823 1.574 . S
C1840 H1834 0.949 . S
C1840 C1844 1.368 . S
C1841 C1822 1.429 . S
C1841 C1835 1.429 . S
C1841 C1842 1.523 . S
C1842 C1823 1.368 . S
C1842 C1836 1.368 . S
C1842 C1841 1.523 . S
C1843 C1827 1.429 . S
C1843 C1839 1.429 . S
C1843 C1844 1.523 . S
C1844 C1828 1.368 . S
C1844 C1840 1.368 . S
C1844 C1843 1.523 . S
H1845 C1820 0.950 . S
H1846 C1822 0.950 . S
H1847 C1823 0.949 . S
H1848 C1825 0.950 . S
H1849 C1827 0.950 . S
C1850 C1851 1.349 . S
C1850 C1852 1.327 . S
C1850 H1875 0.950 . S
C1851 C1850 1.349 . S
C1851 C1867 1.349 . S
C1852 C1850 1.327 . S
C1852 C1871 1.429 . S
C1852 H1876 0.950 . S
C1853 C1870 1.574 . S
C1853 C1872 1.368 . S
C1853 H1877 0.949 . S
H1854 C1858 0.949 . S
C1855 C1856 1.349 . S
C1855 C1857 1.327 . S
C1855 H1878 0.950 . S
C1856 C1855 1.349 . S
C1856 C1868 1.349 . S
C1857 C1855 1.327 . S
C1857 C1873 1.429 . S
C1857 H1879 0.950 . S
C1858 H1854 0.949 . S
C1858 C1866 1.574 . S
C1858 C1874 1.368 . S
H1859 C1867 0.950 . S
H1860 C1865 0.950 . S
H1861 C1866 0.949 . S
H1862 C1868 0.950 . S
H1863 C1869 0.950 . S
H1864 C1870 0.949 . S
C1865 H1860 0.950 . S
C1865 C1867 1.327 . S
C1865 C1871 1.429 . S
C1866 C1858 1.574 . S
C1866 H1861 0.949 . S
C1866 C1872 1.368 . S
C1867 C1851 1.349 . S
C1867 H1859 0.950 . S
C1867 C1865 1.327 . S
C1868 C1856 1.349 . S
C1868 H1862 0.950 . S
C1868 C1869 1.327 . S
C1869 H1863 0.950 . S
C1869 C1868 1.327 . S
C1869 C1873 1.429 . S
C1870 C1853 1.574 . S
C1870 H1864 0.949 . S
C1870 C1874 1.368 . S
C1871 C1852 1.429 . S
C1871 C1865 1.429 . S
C1871 C1872 1.523 . S
C1872 C1853 1.368 . S
C1872 C1866 1.368 . S
C1872 C1871 1.523 . S
C1873 C1857 1.429 . S
C1873 C1869 1.429 . S
C1873 C1874 1.523 . S
C1874 C1858 1.368 . S
C1874 C1870 1.368 . S
C1874 C1873 1.523 . S
H1875 C1850 0.950 . S
H1876 C1852 0.950 . S
H1877 C1853 0.949 . S
H1878 C1855 0.950 . S
H1879 C1857 0.950 . S
C1880 C1881 1.349 . S
C1880 C1882 1.327 . S
C1880 H1905 0.950 . S
C1881 C1880 1.349 . S
C1881 C1897 1.349 . S
C1882 C1880 1.327 . S
C1882 C1901 1.429 . S
C1882 H1906 0.950 . S
C1883 C1900 1.574 . S
C1883 C1902 1.368 . S
C1883 H1907 0.949 . S
H1884 C1888 0.949 . S
C1885 C1886 1.349 . S
C1885 C1887 1.327 . S
C1885 H1908 0.950 . S
C1886 C1885 1.349 . S
C1886 C1898 1.349 . S
C1887 C1885 1.327 . S
C1887 C1903 1.429 . S
C1887 H1909 0.950 . S
C1888 H1884 0.949 . S
C1888 C1896 1.574 . S
C1888 C1904 1.368 . S
H1889 C1897 0.950 . S
H1890 C1895 0.950 . S
H1891 C1896 0.949 . S
H1892 C1898 0.950 . S
H1893 C1899 0.950 . S
H1894 C1900 0.949 . S
C1895 H1890 0.950 . S
C1895 C1897 1.327 . S
C1895 C1901 1.429 . S
C1896 C1888 1.574 . S
C1896 H1891 0.949 . S
C1896 C1902 1.368 . S
C1897 C1881 1.349 . S
C1897 H1889 0.950 . S
C1897 C1895 1.327 . S
C1898 C1886 1.349 . S
C1898 H1892 0.950 . S
C1898 C1899 1.327 . S
C1899 H1893 0.950 . S
C1899 C1898 1.327 . S
C1899 C1903 1.429 . S
C1900 C1883 1.574 . S
C1900 H1894 0.949 . S
C1900 C1904 1.368 . S
C1901 C1882 1.429 . S
C1901 C1895 1.429 . S
C1901 C1902 1.523 . S
C1902 C1883 1.368 . S
C1902 C1896 1.368 . S
C1902 C1901 1.523 . S
C1903 C1887 1.429 . S
C1903 C1899 1.429 . S
C1903 C1904 1.523 . S
C1904 C1888 1.368 . S
C1904 C1900 1.368 . S
C1904 C1903 1.523 . S
H1905 C1880 0.950 . S
H1906 C1882 0.950 . S
H1907 C1883 0.949 . S
H1908 C1885 0.950 . S
H1909 C1887 0.950 . S
C1910 C1911 1.349 . S
C1910 C1912 1.327 . S
C1910 H1935 0.950 . S
C1911 C1910 1.349 . S
C1911 C1927 1.349 . S
C1912 C1910 1.327 . S
C1912 C1931 1.429 . S
C1912 H1936 0.950 . S
C1913 C1930 1.574 . S
C1913 C1932 1.368 . S
C1913 H1937 0.949 . S
H1914 C1918 0.949 . S
C1915 C1916 1.349 . S
C1915 C1917 1.327 . S
C1915 H1938 0.950 . S
C1916 C1915 1.349 . S
C1916 C1928 1.349 . S
C1917 C1915 1.327 . S
C1917 C1933 1.429 . S
C1917 H1939 0.950 . S
C1918 H1914 0.949 . S
C1918 C1926 1.574 . S
C1918 C1934 1.368 . S
H1919 C1927 0.950 . S
H1920 C1925 0.950 . S
H1921 C1926 0.949 . S
H1922 C1928 0.950 . S
H1923 C1929 0.950 . S
H1924 C1930 0.949 . S
C1925 H1920 0.950 . S
C1925 C1927 1.327 . S
C1925 C1931 1.429 . S
C1926 C1918 1.574 . S
C1926 H1921 0.949 . S
C1926 C1932 1.368 . S
C1927 C1911 1.349 . S
C1927 H1919 0.950 . S
C1927 C1925 1.327 . S
C1928 C1916 1.349 . S
C1928 H1922 0.950 . S
C1928 C1929 1.327 . S
C1929 H1923 0.950 . S
C1929 C1928 1.327 . S
C1929 C1933 1.429 . S
C1930 C1913 1.574 . S
C1930 H1924 0.949 . S
C1930 C1934 1.368 . S
C1931 C1912 1.429 . S
C1931 C1925 1.429 . S
C1931 C1932 1.523 . S
C1932 C1913 1.368 . S
C1932 C1926 1.368 . S
C1932 C1931 1.523 . S
C1933 C1917 1.429 . S
C1933 C1929 1.429 . S
C1933 C1934 1.523 . S
C1934 C1918 1.368 . S
C1934 C1930 1.368 . S
C1934 C1933 1.523 . S
H1935 C1910 0.950 . S
H1936 C1912 0.950 . S
H1937 C1913 0.949 . S
H1938 C1915 0.950 . S
H1939 C1917 0.950 . S
C1940 C1941 1.349 . S
C1940 C1942 1.327 . S
C1940 H1965 0.950 . S
C1941 C1940 1.349 . S
C1941 C1957 1.349 . S
C1942 C1940 1.327 . S
C1942 C1961 1.429 . S
C1942 H1966 0.950 . S
C1943 C1960 1.574 . S
C1943 C1962 1.368 . S
C1943 H1967 0.949 . S
H1944 C1948 0.949 . S
C1945 C1946 1.349 . S
C1945 C1947 1.327 . S
C1945 H1968 0.950 . S
C1946 C1945 1.349 . S
C1946 C1958 1.349 . S
C1947 C1945 1.327 . S
C1947 C1963 1.429 . S
C1947 H1969 0.950 . S
C1948 H1944 0.949 . S
C1948 C1956 1.574 . S
C1948 C1964 1.368 . S
H1949 C1957 0.950 . S
H1950 C1955 0.950 . S
H1951 C1956 0.949 . S
H1952 C1958 0.950 . S
H1953 C1959 0.950 . S
H1954 C1960 0.949 . S
C1955 H1950 0.950 . S
C1955 C1957 1.327 . S
C1955 C1961 1.429 . S
C1956 C1948 1.574 . S
C1956 H1951 0.949 . S
C1956 C1962 1.368 . S
C1957 C1941 1.349 . S
C1957 H1949 0.950 . S
C1957 C1955 1.327 . S
C1958 C1946 1.349 . S
C1958 H1952 0.950 . S
C1958 C1959 1.327 . S
C1959 H1953 0.950 . S
C1959 C1958 1.327 . S
C1959 C1963 1.429 . S
C1960 C1943 1.574 . S
C1960 H1954 0.949 . S
C1960 C1964 1.368 . S
C1961 C1942 1.429 . S
C1961 C1955 1.429 . S
C1961 C1962 1.523 . S
C1962 C1943 1.368 . S
C1962 C1956 1.368 . S
C1962 C1961 1.523 . S
C1963 C1947 1.429 . S
C1963 C1959 1.429 . S
C1963 C1964 1.523 . S
C1964 C1948 1.368 . S
C1964 C1960 1.368 . S
C1964 C1963 1.523 . S
H1965 C1940 0.950 . S
H1966 C1942 0.950 . S
H1967 C1943 0.949 . S
H1968 C1945 0.950 . S
H1969 C1947 0.950 . S
C1970 C1971 1.349 . S
C1970 C1972 1.327 . S
C1970 H1995 0.950 . S
C1971 C1970 1.349 . S
C1971 C1987 1.349 . S
C1972 C1970 1.327 . S
C1972 C1991 1.429 . S
C1972 H1996 0.950 . S
C1973 C1990 1.574 . S
C1973 C1992 1.368 . S
C1973 H1997 0.949 . S
H1974 C1978 0.949 . S
C1975 C1976 1.349 . S
C1975 C1977 1.327 . S
C1975 H1998 0.950 . S
C1976 C1975 1.349 . S
C1976 C1988 1.349 . S
C1977 C1975 1.327 . S
C1977 C1993 1.429 . S
C1977 H1999 0.950 . S
C1978 H1974 0.949 . S
C1978 C1986 1.574 . S
C1978 C1994 1.368 . S
H1979 C1987 0.950 . S
H1980 C1985 0.950 . S
H1981 C1986 0.949 . S
H1982 C1988 0.950 . S
H1983 C1989 0.950 . S
H1984 C1990 0.949 . S
C1985 H1980 0.950 . S
C1985 C1987 1.327 . S
C1985 C1991 1.429 . S
C1986 C1978 1.574 . S
C1986 H1981 0.949 . S
C1986 C1992 1.368 . S
C1987 C1971 1.349 . S
C1987 H1979 0.950 . S
C1987 C1985 1.327 . S
C1988 C1976 1.349 . S
C1988 H1982 0.950 . S
C1988 C1989 1.327 . S
C1989 H1983 0.950 . S
C1989 C1988 1.327 . S
C1989 C1993 1.429 . S
C1990 C1973 1.574 . S
C1990 H1984 0.949 . S
C1990 C1994 1.368 . S
C1991 C1972 1.429 . S
C1991 C1985 1.429 . S
C1991 C1992 1.523 . S
C1992 C1973 1.368 . S
C1992 C1986 1.368 . S
C1992 C1991 1.523 . S
C1993 C1977 1.429 . S
C1993 C1989 1.429 . S
C1993 C1994 1.523 . S
C1994 C1978 1.368 . S
C1994 C1990 1.368 . S
C1994 C1993 1.523 . S
H1995 C1970 0.950 . S
H1996 C1972 0.950 . S
H1997 C1973 0.949 . S
H1998 C1975 0.950 . S
H1999 C1977 0.950 . S
C2000 C2001 1.349 . S
C2000 C2002 1.327 . S
C2000 H2025 0.950 . S
C2001 C2000 1.349 . S
C2001 C2017 1.349 . S
C2002 C2000 1.327 . S
C2002 C2021 1.429 . S
C2002 H2026 0.950 . S
C2003 C2020 1.574 . S
C2003 C2022 1.368 . S
C2003 H2027 0.949 . S
H2004 C2008 0.949 . S
C2005 C2006 1.349 . S
C2005 C2007 1.327 . S
C2005 H2028 0.950 . S
C2006 C2005 1.349 . S
C2006 C2018 1.349 . S
C2007 C2005 1.327 . S
C2007 C2023 1.429 . S
C2007 H2029 0.950 . S
C2008 H2004 0.949 . S
C2008 C2016 1.574 . S
C2008 C2024 1.368 . S
H2009 C2017 0.950 . S
H2010 C2015 0.950 . S
H2011 C2016 0.949 . S
H2012 C2018 0.950 . S
H2013 C2019 0.950 . S
H2014 C2020 0.949 . S
C2015 H2010 0.950 . S
C2015 C2017 1.327 . S
C2015 C2021 1.429 . S
C2016 C2008 1.574 . S
C2016 H2011 0.949 . S
C2016 C2022 1.368 . S
C2017 C2001 1.349 . S
C2017 H2009 0.950 . S
C2017 C2015 1.327 . S
C2018 C2006 1.349 . S
C2018 H2012 0.950 . S
C2018 C2019 1.327 . S
C2019 H2013 0.950 . S
C2019 C2018 1.327 . S
C2019 C2023 1.429 . S
C2020 C2003 1.574 . S
C2020 H2014 0.949 . S
C2020 C2024 1.368 . S
C2021 C2002 1.429 . S
C2021 C2015 1.429 . S
C2021 C2022 1.523 . S
C2022 C2003 1.368 . S
C2022 C2016 1.368 . S
C2022 C2021 1.523 . S
C2023 C2007 1.429 . S
C2023 C2019 1.429 . S
C2023 C2024 1.523 . S
C2024 C2008 1.368 . S
C2024 C2020 1.368 . S
C2024 C2023 1.523 . S
H2025 C2000 0.950 . S
H2026 C2002 0.950 . S
H2027 C2003 0.949 . S
H2028 C2005 0.950 . S
H2029 C2007 0.950 . S
C2030 C2031 1.349 . S
C2030 C2032 1.327 . S
C2030 H2055 0.950 . S
C2031 C2030 1.349 . S
C2031 C2047 1.349 . S
C2032 C2030 1.327 . S
C2032 C2051 1.429 . S
C2032 H2056 0.950 . S
C2033 C2050 1.574 . S
C2033 C2052 1.368 . S
C2033 H2057 0.949 . S
H2034 C2038 0.949 . S
C2035 C2036 1.349 . S
C2035 C2037 1.327 . S
C2035 H2058 0.950 . S
C2036 C2035 1.349 . S
C2036 C2048 1.349 . S
C2037 C2035 1.327 . S
C2037 C2053 1.429 . S
C2037 H2059 0.950 . S
C2038 H2034 0.949 . S
C2038 C2046 1.574 . S
C2038 C2054 1.368 . S
H2039 C2047 0.950 . S
H2040 C2045 0.950 . S
H2041 C2046 0.949 . S
H2042 C2048 0.950 . S
H2043 C2049 0.950 . S
H2044 C2050 0.949 . S
C2045 H2040 0.950 . S
C2045 C2047 1.327 . S
C2045 C2051 1.429 . S
C2046 C2038 1.574 . S
C2046 H2041 0.949 . S
C2046 C2052 1.368 . S
C2047 C2031 1.349 . S
C2047 H2039 0.950 . S
C2047 C2045 1.327 . S
C2048 C2036 1.349 . S
C2048 H2042 0.950 . S
C2048 C2049 1.327 . S
C2049 H2043 0.950 . S
C2049 C2048 1.327 . S
C2049 C2053 1.429 . S
C2050 C2033 1.574 . S
C2050 H2044 0.949 . S
C2050 C2054 1.368 . S
C2051 C2032 1.429 . S
C2051 C2045 1.429 . S
C2051 C2052 1.523 . S
C2052 C2033 1.368 . S
C2052 C2046 1.368 . S
C2052 C2051 1.523 . S
C2053 C2037 1.429 . S
C2053 C2049 1.429 . S
C2053 C2054 1.523 . S
C2054 C2038 1.368 . S
C2054 C2050 1.368 . S
C2054 C2053 1.523 . S
H2055 C2030 0.950 . S
H2056 C2032 0.950 . S
H2057 C2033 0.949 . S
H2058 C2035 0.950 . S
H2059 C2037 0.950 . S
C2060 C2061 1.349 . S
C2060 C2062 1.327 . S
C2060 H2085 0.950 . S
C2061 C2060 1.349 . S
C2061 C2077 1.349 . S
C2062 C2060 1.327 . S
C2062 C2081 1.429 . S
C2062 H2086 0.950 . S
C2063 C2080 1.574 . S
C2063 C2082 1.368 . S
C2063 H2087 0.949 . S
H2064 C2068 0.949 . S
C2065 C2066 1.349 . S
C2065 C2067 1.327 . S
C2065 H2088 0.950 . S
C2066 C2065 1.349 . S
C2066 C2078 1.349 . S
C2067 C2065 1.327 . S
C2067 C2083 1.429 . S
C2067 H2089 0.950 . S
C2068 H2064 0.949 . S
C2068 C2076 1.574 . S
C2068 C2084 1.368 . S
H2069 C2077 0.950 . S
H2070 C2075 0.950 . S
H2071 C2076 0.949 . S
H2072 C2078 0.950 . S
H2073 C2079 0.950 . S
H2074 C2080 0.949 . S
C2075 H2070 0.950 . S
C2075 C2077 1.327 . S
C2075 C2081 1.429 . S
C2076 C2068 1.574 . S
C2076 H2071 0.949 . S
C2076 C2082 1.368 . S
C2077 C2061 1.349 . S
C2077 H2069 0.950 . S
C2077 C2075 1.327 . S
C2078 C2066 1.349 . S
C2078 H2072 0.950 . S
C2078 C2079 1.327 . S
C2079 H2073 0.950 . S
C2079 C2078 1.327 . S
C2079 C2083 1.429 . S
C2080 C2063 1.574 . S
C2080 H2074 0.949 . S
C2080 C2084 1.368 . S
C2081 C2062 1.429 . S
C2081 C2075 1.429 . S
C2081 C2082 1.523 . S
C2082 C2063 1.368 . S
C2082 C2076 1.368 . S
C2082 C2081 1.523 . S
C2083 C2067 1.429 . S
C2083 C2079 1.429 . S
C2083 C2084 1.523 . S
C2084 C2068 1.368 . S
C2084 C2080 1.368 . S
C2084 C2083 1.523 . S
H2085 C2060 0.950 . S
H2086 C2062 0.950 . S
H2087 C2063 0.949 . S
H2088 C2065 0.950 . S
H2089 C2067 0.950 . S
C2090 C2091 1.349 . S
C2090 C2092 1.327 . S
C2090 H2115 0.950 . S
C2091 C2090 1.349 . S
C2091 C2107 1.349 . S
C2092 C2090 1.327 . S
C2092 C2111 1.429 . S
C2092 H2116 0.950 . S
C2093 C2110 1.574 . S
C2093 C2112 1.368 . S
C2093 H2117 0.949 . S
H2094 C2098 0.949 . S
C2095 C2096 1.349 . S
C2095 C2097 1.327 . S
C2095 H2118 0.950 . S
C2096 C2095 1.349 . S
C2096 C2108 1.349 . S
C2097 C2095 1.327 . S
C2097 C2113 1.429 . S
C2097 H2119 0.950 . S
C2098 H2094 0.949 . S
C2098 C2106 1.574 . S
C2098 C2114 1.368 . S
H2099 C2107 0.950 . S
H2100 C2105 0.950 . S
H2101 C2106 0.949 . S
H2102 C2108 0.950 . S
H2103 C2109 0.950 . S
H2104 C2110 0.949 . S
C2105 H2100 0.950 . S
C2105 C2107 1.327 . S
C2105 C2111 1.429 . S
C2106 C2098 1.574 . S
C2106 H2101 0.949 . S
C2106 C2112 1.368 . S
C2107 C2091 1.349 . S
C2107 H2099 0.950 . S
C2107 C2105 1.327 . S
C2108 C2096 1.349 . S
C2108 H2102 0.950 . S
C2108 C2109 1.327 . S
C2109 H2103 0.950 . S
C2109 C2108 1.327 . S
C2109 C2113 1.429 . S
C2110 C2093 1.574 . S
C2110 H2104 0.949 . S
C2110 C2114 1.368 . S
C2111 C2092 1.429 . S
C2111 C2105 1.429 . S
C2111 C2112 1.523 . S
C2112 C2093 1.368 . S
C2112 C2106 1.368 . S
C2112 C2111 1.523 . S
C2113 C2097 1.429 . S
C2113 C2109 1.429 . S
C2113 C2114 1.523 . S
C2114 C2098 1.368 . S
C2114 C2110 1.368 . S
C2114 C2113 1.523 . S
H2115 C2090 0.950 . S
H2116 C2092 0.950 . S
H2117 C2093 0.949 . S
H2118 C2095 0.950 . S
H2119 C2097 0.950 . S
C2120 C2121 1.349 . S
C2120 C2122 1.327 . S
C2120 H2145 0.950 . S
C2121 C2120 1.349 . S
C2121 C2137 1.349 . S
C2122 C2120 1.327 . S
C2122 C2141 1.429 . S
C2122 H2146 0.950 . S
C2123 C2140 1.574 . S
C2123 C2142 1.368 . S
C2123 H2147 0.949 . S
H2124 C2128 0.949 . S
C2125 C2126 1.349 . S
C2125 C2127 1.327 . S
C2125 H2148 0.950 . S
C2126 C2125 1.349 . S
C2126 C2138 1.349 . S
C2127 C2125 1.327 . S
C2127 C2143 1.429 . S
C2127 H2149 0.950 . S
C2128 H2124 0.949 . S
C2128 C2136 1.574 . S
C2128 C2144 1.368 . S
H2129 C2137 0.950 . S
H2130 C2135 0.950 . S
H2131 C2136 0.949 . S
H2132 C2138 0.950 . S
H2133 C2139 0.950 . S
H2134 C2140 0.949 . S
C2135 H2130 0.950 . S
C2135 C2137 1.327 . S
C2135 C2141 1.429 . S
C2136 C2128 1.574 . S
C2136 H2131 0.949 . S
C2136 C2142 1.368 . S
C2137 C2121 1.349 . S
C2137 H2129 0.950 . S
C2137 C2135 1.327 . S
C2138 C2126 1.349 . S
C2138 H2132 0.950 . S
C2138 C2139 1.327 . S
C2139 H2133 0.950 . S
C2139 C2138 1.327 . S
C2139 C2143 1.429 . S
C2140 C2123 1.574 . S
C2140 H2134 0.949 . S
C2140 C2144 1.368 . S
C2141 C2122 1.429 . S
C2141 C2135 1.429 . S
C2141 C2142 1.523 . S
C2142 C2123 1.368 . S
C2142 C2136 1.368 . S
C2142 C2141 1.523 . S
C2143 C2127 1.429 . S
C2143 C2139 1.429 . S
C2143 C2144 1.523 . S
C2144 C2128 1.368 . S
C2144 C2140 1.368 . S
C2144 C2143 1.523 . S
H2145 C2120 0.950 . S
H2146 C2122 0.950 . S
H2147 C2123 0.949 . S
H2148 C2125 0.950 . S
H2149 C2127 0.950 . S
C2150 C2151 1.349 . S
C2150 C2152 1.327 . S
C2150 H2175 0.950 . S
C2151 C2150 1.349 . S
C2151 C2167 1.349 . S
C2152 C2150 1.327 . S
C2152 C2171 1.429 . S
C2152 H2176 0.950 . S
C2153 C2170 1.574 . S
C2153 C2172 1.368 . S
C2153 H2177 0.949 . S
H2154 C2158 0.949 . S
C2155 C2156 1.349 . S
C2155 C2157 1.327 . S
C2155 H2178 0.950 . S
C2156 C2155 1.349 . S
C2156 C2168 1.349 . S
C2157 C2155 1.327 . S
C2157 C2173 1.429 . S
C2157 H2179 0.950 . S
C2158 H2154 0.949 . S
C2158 C2166 1.574 . S
C2158 C2174 1.368 . S
H2159 C2167 0.950 . S
H2160 C2165 0.950 . S
H2161 C2166 0.949 . S
H2162 C2168 0.950 . S
H2163 C2169 0.950 . S
H2164 C2170 0.949 . S
C2165 H2160 0.950 . S
C2165 C2167 1.327 . S
C2165 C2171 1.429 . S
C2166 C2158 1.574 . S
C2166 H2161 0.949 . S
C2166 C2172 1.368 . S
C2167 C2151 1.349 . S
C2167 H2159 0.950 . S
C2167 C2165 1.327 . S
C2168 C2156 1.349 . S
C2168 H2162 0.950 . S
C2168 C2169 1.327 . S
C2169 H2163 0.950 . S
C2169 C2168 1.327 . S
C2169 C2173 1.429 . S
C2170 C2153 1.574 . S
C2170 H2164 0.949 . S
C2170 C2174 1.368 . S
C2171 C2152 1.429 . S
C2171 C2165 1.429 . S
C2171 C2172 1.523 . S
C2172 C2153 1.368 . S
C2172 C2166 1.368 . S
C2172 C2171 1.523 . S
C2173 C2157 1.429 . S
C2173 C2169 1.429 . S
C2173 C2174 1.523 . S
C2174 C2158 1.368 . S
C2174 C2170 1.368 . S
C2174 C2173 1.523 . S
H2175 C2150 0.950 . S
H2176 C2152 0.950 . S
H2177 C2153 0.949 . S
H2178 C2155 0.950 . S
H2179 C2157 0.950 . S
C2180 C2181 1.349 . S
C2180 C2182 1.327 . S
C2180 H2205 0.950 . S
C2181 C2180 1.349 . S
C2181 C2197 1.349 . S
C2182 C2180 1.327 . S
C2182 C2201 1.429 . S
C2182 H2206 0.950 . S
C2183 C2200 1.574 . S
C2183 C2202 1.368 . S
C2183 H2207 0.949 . S
H2184 C2188 0.949 . S
C2185 C2186 1.349 . S
C2185 C2187 1.327 . S
C2185 H2208 0.950 . S
C2186 C2185 1.349 . S
C2186 C2198 1.349 . S
C2187 C2185 1.327 . S
C2187 C2203 1.429 . S
C2187 H2209 0.950 . S
C2188 H2184 0.949 . S
C2188 C2196 1.574 . S
C2188 C2204 1.368 . S
H2189 C2197 0.950 . S
H2190 C2195 0.950 . S
H2191 C2196 0.949 . S
H2192 C2198 0.950 . S
H2193 C2199 0.950 . S
H2194 C2200 0.949 . S
C2195 H2190 0.950 . S
C2195 C2197 1.327 . S
C2195 C2201 1.429 . S
C2196 C2188 1.574 . S
C2196 H2191 0.949 . S
C2196 C2202 1.368 . S
C2197 C2181 1.349 . S
C2197 H2189 0.950 . S
C2197 C2195 1.327 . S
C2198 C2186 1.349 . S
C2198 H2192 0.950 . S
C2198 C2199 1.327 . S
C2199 H2193 0.950 . S
C2199 C2198 1.327 . S
C2199 C2203 1.429 . S
C2200 C2183 1.574 . S
C2200 H2194 0.949 . S
C2200 C2204 1.368 . S
C2201 C2182 1.429 . S
C2201 C2195 1.429 . S
C2201 C2202 1.523 . S
C2202 C2183 1.368 . S
C2202 C2196 1.368 . S
C2202 C2201 1.523 . S
C2203 C2187 1.429 . S
C2203 C2199 1.429 . S
C2203 C2204 1.523 . S
C2204 C2188 1.368 . S
C2204 C2200 1.368 . S
C2204 C2203 1.523 . S
H2205 C2180 0.950 . S
H2206 C2182 0.950 . S
H2207 C2183 0.949 . S
H2208 C2185 0.950 . S
H2209 C2187 0.950 . S
C2210 C2211 1.349 . S
C2210 C2212 1.327 . S
C2210 H2235 0.950 . S
C2211 C2210 1.349 . S
C2211 C2227 1.349 . S
C2212 C2210 1.327 . S
C2212 C2231 1.429 . S
C2212 H2236 0.950 . S
C2213 C2230 1.574 . S
C2213 C2232 1.368 . S
C2213 H2237 0.949 . S
H2214 C2218 0.949 . S
C2215 C2216 1.349 . S
C2215 C2217 1.327 . S
C2215 H2238 0.950 . S
C2216 C2215 1.349 . S
C2216 C2228 1.349 . S
C2217 C2215 1.327 . S
C2217 C2233 1.429 . S
C2217 H2239 0.950 . S
C2218 H2214 0.949 . S
C2218 C2226 1.574 . S
C2218 C2234 1.368 . S
H2219 C2227 0.950 . S
H2220 C2225 0.950 . S
H2221 C2226 0.949 . S
H2222 C2228 0.950 . S
H2223 C2229 0.950 . S
H2224 C2230 0.949 . S
C2225 H2220 0.950 . S
C2225 C2227 1.327 . S
C2225 C2231 1.429 . S
C2226 C2218 1.574 . S
C2226 H2221 0.949 . S
C2226 C2232 1.368 . S
C2227 C2211 1.349 . S
C2227 H2219 0.950 . S
C2227 C2225 1.327 . S
C2228 C2216 1.349 . S
C2228 H2222 0.950 . S
C2228 C2229 1.327 . S
C2229 H2223 0.950 . S
C2229 C2228 1.327 . S
C2229 C2233 1.429 . S
C2230 C2213 1.574 . S
C2230 H2224 0.949 . S
C2230 C2234 1.368 . S
C2231 C2212 1.429 . S
C2231 C2225 1.429 . S
C2231 C2232 1.523 . S
C2232 C2213 1.368 . S
C2232 C2226 1.368 . S
C2232 C2231 1.523 . S
C2233 C2217 1.429 . S
C2233 C2229 1.429 . S
C2233 C2234 1.523 . S
C2234 C2218 1.368 . S
C2234 C2230 1.368 . S
C2234 C2233 1.523 . S
H2235 C2210 0.950 . S
H2236 C2212 0.950 . S
H2237 C2213 0.949 . S
H2238 C2215 0.950 . S
H2239 C2217 0.950 . S
C2240 C2241 1.349 . S
C2240 C2242 1.327 . S
C2240 H2265 0.950 . S
C2241 C2240 1.349 . S
C2241 C2257 1.349 . S
C2242 C2240 1.327 . S
C2242 C2261 1.429 . S
C2242 H2266 0.950 . S
C2243 C2260 1.574 . S
C2243 C2262 1.368 . S
C2243 H2267 0.949 . S
H2244 C2248 0.949 . S
C2245 C2246 1.349 . S
C2245 C2247 1.327 . S
C2245 H2268 0.950 . S
C2246 C2245 1.349 . S
C2246 C2258 1.349 . S
C2247 C2245 1.327 . S
C2247 C2263 1.429 . S
C2247 H2269 0.950 . S
C2248 H2244 0.949 . S
C2248 C2256 1.574 . S
C2248 C2264 1.368 . S
H2249 C2257 0.950 . S
H2250 C2255 0.950 . S
H2251 C2256 0.949 . S
H2252 C2258 0.950 . S
H2253 C2259 0.950 . S
H2254 C2260 0.949 . S
C2255 H2250 0.950 . S
C2255 C2257 1.327 . S
C2255 C2261 1.429 . S
C2256 C2248 1.574 . S
C2256 H2251 0.949 . S
C2256 C2262 1.368 . S
C2257 C2241 1.349 . S
C2257 H2249 0.950 . S
C2257 C2255 1.327 . S
C2258 C2246 1.349 . S
C2258 H2252 0.950 . S
C2258 C2259 1.327 . S
C2259 H2253 0.950 . S
C2259 C2258 1.327 . S
C2259 C2263 1.429 . S
C2260 C2243 1.574 . S
C2260 H2254 0.949 . S
C2260 C2264 1.368 . S
C2261 C2242 1.429 . S
C2261 C2255 1.429 . S
C2261 C2262 1.523 . S
C2262 C2243 1.368 . S
C2262 C2256 1.368 . S
C2262 C2261 1.523 . S
C2263 C2247 1.429 . S
C2263 C2259 1.429 . S
C2263 C2264 1.523 . S
C2264 C2248 1.368 . S
C2264 C2260 1.368 . S
C2264 C2263 1.523 . S
H2265 C2240 0.950 . S
H2266 C2242 0.950 . S
H2267 C2243 0.949 . S
H2268 C2245 0.950 . S
H2269 C2247 0.950 . S
C2270 C2271 1.349 . S
C2270 C2272 1.327 . S
C2270 H2295 0.950 . S
C2271 C2270 1.349 . S
C2271 C2287 1.349 . S
C2272 C2270 1.327 . S
C2272 C2291 1.429 . S
C2272 H2296 0.950 . S
C2273 C2290 1.574 . S
C2273 C2292 1.368 . S
C2273 H2297 0.949 . S
H2274 C2278 0.949 . S
C2275 C2276 1.349 . S
C2275 C2277 1.327 1_655 S
C2275 H2298 0.950 . S
C2276 C2275 1.349 . S
C2276 C2288 1.349 . S
C2277 C2275 1.327 1_455 S
C2277 C2293 1.429 . S
C2277 H2299 0.950 . S
C2278 H2274 0.949 . S
C2278 C2286 1.574 . S
C2278 C2294 1.368 . S
H2279 C2287 0.950 . S
H2280 C2285 0.950 . S
H2281 C2286 0.949 . S
H2282 C2288 0.950 . S
H2283 C2289 0.950 . S
H2284 C2290 0.949 . S
C2285 H2280 0.950 . S
C2285 C2287 1.327 . S
C2285 C2291 1.429 . S
C2286 C2278 1.574 . S
C2286 H2281 0.949 . S
C2286 C2292 1.368 . S
C2287 C2271 1.349 . S
C2287 H2279 0.950 . S
C2287 C2285 1.327 . S
C2288 C2276 1.349 . S
C2288 H2282 0.950 . S
C2288 C2289 1.327 . S
C2289 H2283 0.950 . S
C2289 C2288 1.327 . S
C2289 C2293 1.429 1_655 S
C2290 C2273 1.574 . S
C2290 H2284 0.949 . S
C2290 C2294 1.368 . S
C2291 C2272 1.429 . S
C2291 C2285 1.429 . S
C2291 C2292 1.523 . S
C2292 C2273 1.368 . S
C2292 C2286 1.368 . S
C2292 C2291 1.523 . S
C2293 C2277 1.429 . S
C2293 C2289 1.429 1_455 S
C2293 C2294 1.523 . S
C2294 C2278 1.368 . S
C2294 C2290 1.368 . S
C2294 C2293 1.523 . S
H2295 C2270 0.950 . S
H2296 C2272 0.950 . S
H2297 C2273 0.949 . S
H2298 C2275 0.950 . S
H2299 C2277 0.950 . S
C2300 C2301 1.349 . S
C2300 C2302 1.327 . S
C2300 H2325 0.950 . S
C2301 C2300 1.349 . S
C2301 C2317 1.349 . S
C2302 C2300 1.327 . S
C2302 C2321 1.429 . S
C2302 H2326 0.950 . S
C2303 C2320 1.574 . S
C2303 C2322 1.368 . S
C2303 H2327 0.949 . S
H2304 C2308 0.949 . S
C2305 C2306 1.349 . S
C2305 C2307 1.327 . S
C2305 H2328 0.950 . S
C2306 C2305 1.349 . S
C2306 C2318 1.349 . S
C2307 C2305 1.327 . S
C2307 C2323 1.429 . S
C2307 H2329 0.950 . S
C2308 H2304 0.949 . S
C2308 C2316 1.574 . S
C2308 C2324 1.368 . S
H2309 C2317 0.950 . S
H2310 C2315 0.950 . S
H2311 C2316 0.949 . S
H2312 C2318 0.950 . S
H2313 C2319 0.950 . S
H2314 C2320 0.949 . S
C2315 H2310 0.950 . S
C2315 C2317 1.327 . S
C2315 C2321 1.429 . S
C2316 C2308 1.574 . S
C2316 H2311 0.949 . S
C2316 C2322 1.368 . S
C2317 C2301 1.349 . S
C2317 H2309 0.950 . S
C2317 C2315 1.327 . S
C2318 C2306 1.349 . S
C2318 H2312 0.950 . S
C2318 C2319 1.327 . S
C2319 H2313 0.950 . S
C2319 C2318 1.327 . S
C2319 C2323 1.429 . S
C2320 C2303 1.574 . S
C2320 H2314 0.949 . S
C2320 C2324 1.368 . S
C2321 C2302 1.429 . S
C2321 C2315 1.429 . S
C2321 C2322 1.523 . S
C2322 C2303 1.368 . S
C2322 C2316 1.368 . S
C2322 C2321 1.523 . S
C2323 C2307 1.429 . S
C2323 C2319 1.429 . S
C2323 C2324 1.523 . S
C2324 C2308 1.368 . S
C2324 C2320 1.368 . S
C2324 C2323 1.523 . S
H2325 C2300 0.950 . S
H2326 C2302 0.950 . S
H2327 C2303 0.949 . S
H2328 C2305 0.950 . S
H2329 C2307 0.950 . S
C2330 C2331 1.349 . S
C2330 C2332 1.327 . S
C2330 H2355 0.950 . S
C2331 C2330 1.349 . S
C2331 C2347 1.349 . S
C2332 C2330 1.327 . S
C2332 C2351 1.429 . S
C2332 H2356 0.950 . S
C2333 C2350 1.574 . S
C2333 C2352 1.368 . S
C2333 H2357 0.949 . S
H2334 C2338 0.949 . S
C2335 C2336 1.349 . S
C2335 C2337 1.327 . S
C2335 H2358 0.950 . S
C2336 C2335 1.349 . S
C2336 C2348 1.349 . S
C2337 C2335 1.327 . S
C2337 C2353 1.429 . S
C2337 H2359 0.950 . S
C2338 H2334 0.949 . S
C2338 C2346 1.574 . S
C2338 C2354 1.368 . S
H2339 C2347 0.950 . S
H2340 C2345 0.950 . S
H2341 C2346 0.949 . S
H2342 C2348 0.950 . S
H2343 C2349 0.950 . S
H2344 C2350 0.949 . S
C2345 H2340 0.950 . S
C2345 C2347 1.327 . S
C2345 C2351 1.429 . S
C2346 C2338 1.574 . S
C2346 H2341 0.949 . S
C2346 C2352 1.368 . S
C2347 C2331 1.349 . S
C2347 H2339 0.950 . S
C2347 C2345 1.327 . S
C2348 C2336 1.349 . S
C2348 H2342 0.950 . S
C2348 C2349 1.327 . S
C2349 H2343 0.950 . S
C2349 C2348 1.327 . S
C2349 C2353 1.429 . S
C2350 C2333 1.574 . S
C2350 H2344 0.949 . S
C2350 C2354 1.368 . S
C2351 C2332 1.429 . S
C2351 C2345 1.429 . S
C2351 C2352 1.523 . S
C2352 C2333 1.368 . S
C2352 C2346 1.368 . S
C2352 C2351 1.523 . S
C2353 C2337 1.429 . S
C2353 C2349 1.429 . S
C2353 C2354 1.523 . S
C2354 C2338 1.368 . S
C2354 C2350 1.368 . S
C2354 C2353 1.523 . S
H2355 C2330 0.950 . S
H2356 C2332 0.950 . S
H2357 C2333 0.949 . S
H2358 C2335 0.950 . S
H2359 C2337 0.950 . S
C2360 C2361 1.349 . S
C2360 C2362 1.327 . S
C2360 H2385 0.950 . S
C2361 C2360 1.349 . S
C2361 C2377 1.349 . S
C2362 C2360 1.327 . S
C2362 C2381 1.429 . S
C2362 H2386 0.950 . S
C2363 C2380 1.574 . S
C2363 C2382 1.368 . S
C2363 H2387 0.949 . S
H2364 C2368 0.949 . S
C2365 C2366 1.349 . S
C2365 C2367 1.327 . S
C2365 H2388 0.950 . S
C2366 C2365 1.349 . S
C2366 C2378 1.349 . S
C2367 C2365 1.327 . S
C2367 C2383 1.429 . S
C2367 H2389 0.950 . S
C2368 H2364 0.949 . S
C2368 C2376 1.574 . S
C2368 C2384 1.368 . S
H2369 C2377 0.950 . S
H2370 C2375 0.950 . S
H2371 C2376 0.949 . S
H2372 C2378 0.950 . S
H2373 C2379 0.950 . S
H2374 C2380 0.949 . S
C2375 H2370 0.950 . S
C2375 C2377 1.327 . S
C2375 C2381 1.429 . S
C2376 C2368 1.574 . S
C2376 H2371 0.949 . S
C2376 C2382 1.368 . S
C2377 C2361 1.349 . S
C2377 H2369 0.950 . S
C2377 C2375 1.327 . S
C2378 C2366 1.349 . S
C2378 H2372 0.950 . S
C2378 C2379 1.327 . S
C2379 H2373 0.950 . S
C2379 C2378 1.327 . S
C2379 C2383 1.429 . S
C2380 C2363 1.574 . S
C2380 H2374 0.949 . S
C2380 C2384 1.368 . S
C2381 C2362 1.429 . S
C2381 C2375 1.429 . S
C2381 C2382 1.523 . S
C2382 C2363 1.368 . S
C2382 C2376 1.368 . S
C2382 C2381 1.523 . S
C2383 C2367 1.429 . S
C2383 C2379 1.429 . S
C2383 C2384 1.523 . S
C2384 C2368 1.368 . S
C2384 C2380 1.368 . S
C2384 C2383 1.523 . S
H2385 C2360 0.950 . S
H2386 C2362 0.950 . S
H2387 C2363 0.949 . S
H2388 C2365 0.950 . S
H2389 C2367 0.950 . S
C2390 C2391 1.349 . S
C2390 C2392 1.327 . S
C2390 H2415 0.950 . S
C2391 C2390 1.349 . S
C2391 C2407 1.349 . S
C2392 C2390 1.327 . S
C2392 C2411 1.429 . S
C2392 H2416 0.950 . S
C2393 C2410 1.574 . S
C2393 C2412 1.368 . S
C2393 H2417 0.949 . S
H2394 C2398 0.949 . S
C2395 C2396 1.349 . S
C2395 C2397 1.327 . S
C2395 H2418 0.950 . S
C2396 C2395 1.349 . S
C2396 C2408 1.349 . S
C2397 C2395 1.327 . S
C2397 C2413 1.429 . S
C2397 H2419 0.950 . S
C2398 H2394 0.949 . S
C2398 C2406 1.574 . S
C2398 C2414 1.368 . S
H2399 C2407 0.950 . S
H2400 C2405 0.950 . S
H2401 C2406 0.949 . S
H2402 C2408 0.950 . S
H2403 C2409 0.950 . S
H2404 C2410 0.949 . S
C2405 H2400 0.950 . S
C2405 C2407 1.327 . S
C2405 C2411 1.429 . S
C2406 C2398 1.574 . S
C2406 H2401 0.949 . S
C2406 C2412 1.368 . S
C2407 C2391 1.349 . S
C2407 H2399 0.950 . S
C2407 C2405 1.327 . S
C2408 C2396 1.349 . S
C2408 H2402 0.950 . S
C2408 C2409 1.327 . S
C2409 H2403 0.950 . S
C2409 C2408 1.327 . S
C2409 C2413 1.429 . S
C2410 C2393 1.574 . S
C2410 H2404 0.949 . S
C2410 C2414 1.368 . S
C2411 C2392 1.429 . S
C2411 C2405 1.429 . S
C2411 C2412 1.523 . S
C2412 C2393 1.368 . S
C2412 C2406 1.368 . S
C2412 C2411 1.523 . S
C2413 C2397 1.429 . S
C2413 C2409 1.429 . S
C2413 C2414 1.523 . S
C2414 C2398 1.368 . S
C2414 C2410 1.368 . S
C2414 C2413 1.523 . S
H2415 C2390 0.950 . S
H2416 C2392 0.950 . S
H2417 C2393 0.949 . S
H2418 C2395 0.950 . S
H2419 C2397 0.950 . S
C2420 C2421 1.349 . S
C2420 C2422 1.327 . S
C2420 H2445 0.950 . S
C2421 C2420 1.349 . S
C2421 C2437 1.349 . S
C2422 C2420 1.327 . S
C2422 C2441 1.429 . S
C2422 H2446 0.950 . S
C2423 C2440 1.574 . S
C2423 C2442 1.368 . S
C2423 H2447 0.949 . S
H2424 C2428 0.949 . S
C2425 C2426 1.349 . S
C2425 C2427 1.327 . S
C2425 H2448 0.950 . S
C2426 C2425 1.349 . S
C2426 C2438 1.349 . S
C2427 C2425 1.327 . S
C2427 C2443 1.429 . S
C2427 H2449 0.950 . S
C2428 H2424 0.949 . S
C2428 C2436 1.574 . S
C2428 C2444 1.368 . S
H2429 C2437 0.950 . S
H2430 C2435 0.950 . S
H2431 C2436 0.949 . S
H2432 C2438 0.950 . S
H2433 C2439 0.950 . S
H2434 C2440 0.949 . S
C2435 H2430 0.950 . S
C2435 C2437 1.327 . S
C2435 C2441 1.429 . S
C2436 C2428 1.574 . S
C2436 H2431 0.949 . S
C2436 C2442 1.368 . S
C2437 C2421 1.349 . S
C2437 H2429 0.950 . S
C2437 C2435 1.327 . S
C2438 C2426 1.349 . S
C2438 H2432 0.950 . S
C2438 C2439 1.327 . S
C2439 H2433 0.950 . S
C2439 C2438 1.327 . S
C2439 C2443 1.429 . S
C2440 C2423 1.574 . S
C2440 H2434 0.949 . S
C2440 C2444 1.368 . S
C2441 C2422 1.429 . S
C2441 C2435 1.429 . S
C2441 C2442 1.523 . S
C2442 C2423 1.368 . S
C2442 C2436 1.368 . S
C2442 C2441 1.523 . S
C2443 C2427 1.429 . S
C2443 C2439 1.429 . S
C2443 C2444 1.523 . S
C2444 C2428 1.368 . S
C2444 C2440 1.368 . S
C2444 C2443 1.523 . S
H2445 C2420 0.950 . S
H2446 C2422 0.950 . S
H2447 C2423 0.949 . S
H2448 C2425 0.950 . S
H2449 C2427 0.950 . S
C2450 C2451 1.349 . S
C2450 C2452 1.327 . S
C2450 H2475 0.950 . S
C2451 C2450 1.349 . S
C2451 C2467 1.349 . S
C2452 C2450 1.327 . S
C2452 C2471 1.429 . S
C2452 H2476 0.950 . S
C2453 C2470 1.574 . S
C2453 C2472 1.368 . S
C2453 H2477 0.949 . S
H2454 C2458 0.949 . S
C2455 C2456 1.349 . S
C2455 C2457 1.291 1_655 S
C2455 H2478 0.950 . S
C2456 C2455 1.349 . S
C2456 C2468 1.349 . S
C2457 C2455 1.291 1_455 S
C2457 C2473 1.443 . S
C2457 H2479 0.973 . S
C2458 H2454 0.949 . S
C2458 C2466 1.574 . S
C2458 C2474 1.368 . S
H2459 C2467 0.950 . S
H2460 C2465 0.950 . S
H2461 C2466 0.949 . S
H2462 C2468 0.950 . S
H2463 C2469 0.950 . S
H2464 C2470 0.949 . S
C2465 H2460 0.950 . S
C2465 C2467 1.327 . S
C2465 C2471 1.429 . S
C2466 C2458 1.574 . S
C2466 H2461 0.949 . S
C2466 C2472 1.368 . S
C2467 C2451 1.349 . S
C2467 H2459 0.950 . S
C2467 C2465 1.327 . S
C2468 C2456 1.349 . S
C2468 H2462 0.950 . S
C2468 C2469 1.327 . S
C2469 H2463 0.950 . S
C2469 C2468 1.327 . S
C2469 C2473 1.429 1_655 S
C2470 C2453 1.574 . S
C2470 H2464 0.949 . S
C2470 C2474 1.368 . S
C2471 C2452 1.429 . S
C2471 C2465 1.429 . S
C2471 C2472 1.523 . S
C2472 C2453 1.368 . S
C2472 C2466 1.368 . S
C2472 C2471 1.523 . S
C2473 C2457 1.443 . S
C2473 C2469 1.429 1_455 S
C2473 C2474 1.523 . S
C2474 C2458 1.368 . S
C2474 C2470 1.368 . S
C2474 C2473 1.523 . S
H2475 C2450 0.950 . S
H2476 C2452 0.950 . S
H2477 C2453 0.949 . S
H2478 C2455 0.950 . S
H2479 C2457 0.973 . S
C2480 C2481 1.349 . S
C2480 C2482 1.327 . S
C2480 H2505 0.950 . S
C2481 C2480 1.349 . S
C2481 C2497 1.349 . S
C2482 C2480 1.327 . S
C2482 C2501 1.429 . S
C2482 H2506 0.950 . S
C2483 C2500 1.574 . S
C2483 C2502 1.368 . S
C2483 H2507 0.949 . S
H2484 C2488 0.949 . S
C2485 C2486 1.349 . S
C2485 C2487 1.327 . S
C2485 H2508 0.950 . S
C2486 C2485 1.349 . S
C2486 C2498 1.349 . S
C2487 C2485 1.327 . S
C2487 C2503 1.429 . S
C2487 H2509 0.950 . S
C2488 H2484 0.949 . S
C2488 C2496 1.574 . S
C2488 C2504 1.368 . S
H2489 C2497 0.950 . S
H2490 C2495 0.950 . S
H2491 C2496 0.949 . S
H2492 C2498 0.950 . S
H2493 C2499 0.950 . S
H2494 C2500 0.949 . S
C2495 H2490 0.950 . S
C2495 C2497 1.327 . S
C2495 C2501 1.429 . S
C2496 C2488 1.574 . S
C2496 H2491 0.949 . S
C2496 C2502 1.368 . S
C2497 C2481 1.349 . S
C2497 H2489 0.950 . S
C2497 C2495 1.327 . S
C2498 C2486 1.349 . S
C2498 H2492 0.950 . S
C2498 C2499 1.327 . S
C2499 H2493 0.950 . S
C2499 C2498 1.327 . S
C2499 C2503 1.429 . S
C2500 C2483 1.574 . S
C2500 H2494 0.949 . S
C2500 C2504 1.368 . S
C2501 C2482 1.429 . S
C2501 C2495 1.429 . S
C2501 C2502 1.523 . S
C2502 C2483 1.368 . S
C2502 C2496 1.368 . S
C2502 C2501 1.523 . S
C2503 C2487 1.429 . S
C2503 C2499 1.429 . S
C2503 C2504 1.523 . S
C2504 C2488 1.368 . S
C2504 C2500 1.368 . S
C2504 C2503 1.523 . S
H2505 C2480 0.950 . S
H2506 C2482 0.950 . S
H2507 C2483 0.949 . S
H2508 C2485 0.950 . S
H2509 C2487 0.950 . S
C2510 C2511 1.349 . S
C2510 C2512 1.275 1_455 S
C2510 H2535 0.950 . S
C2511 C2510 1.349 . S
C2511 C2527 1.349 . S
C2512 C2510 1.275 1_655 S
C2512 C2531 1.449 . S
C2512 H2536 0.985 . S
C2513 C2530 1.574 . S
C2513 C2532 1.368 . S
C2513 H2537 0.949 . S
H2514 C2518 0.949 . S
C2515 C2516 1.349 . S
C2515 C2517 1.327 . S
C2515 H2538 0.950 . S
C2516 C2515 1.349 . S
C2516 C2528 1.349 . S
C2517 C2515 1.327 . S
C2517 C2533 1.429 . S
C2517 H2539 0.950 . S
C2518 H2514 0.949 . S
C2518 C2526 1.574 . S
C2518 C2534 1.368 . S
H2519 C2527 0.950 . S
H2520 C2525 0.950 . S
H2521 C2526 0.949 . S
H2522 C2528 0.950 . S
H2523 C2529 0.950 . S
H2524 C2530 0.949 . S
C2525 H2520 0.950 . S
C2525 C2527 1.327 . S
C2525 C2531 1.429 1_455 S
C2526 C2518 1.574 . S
C2526 H2521 0.949 . S
C2526 C2532 1.368 . S
C2527 C2511 1.349 . S
C2527 H2519 0.950 . S
C2527 C2525 1.327 . S
C2528 C2516 1.349 . S
C2528 H2522 0.950 . S
C2528 C2529 1.327 . S
C2529 H2523 0.950 . S
C2529 C2528 1.327 . S
C2529 C2533 1.429 . S
C2530 C2513 1.574 . S
C2530 H2524 0.949 . S
C2530 C2534 1.368 . S
C2531 C2512 1.449 . S
C2531 C2525 1.429 1_655 S
C2531 C2532 1.523 . S
C2532 C2513 1.368 . S
C2532 C2526 1.368 . S
C2532 C2531 1.523 . S
C2533 C2517 1.429 . S
C2533 C2529 1.429 . S
C2533 C2534 1.523 . S
C2534 C2518 1.368 . S
C2534 C2530 1.368 . S
C2534 C2533 1.523 . S
H2535 C2510 0.950 . S
H2536 C2512 0.985 . S
H2537 C2513 0.949 . S
H2538 C2515 0.950 . S
H2539 C2517 0.950 . S
C2540 C2541 1.349 . S
C2540 C2542 1.327 . S
C2540 H2565 0.950 . S
C2541 C2540 1.349 . S
C2541 C2557 1.349 . S
C2542 C2540 1.327 . S
C2542 C2561 1.429 . S
C2542 H2566 0.950 . S
C2543 C2560 1.574 . S
C2543 C2562 1.368 . S
C2543 H2567 0.949 . S
H2544 C2548 0.949 . S
C2545 C2546 1.349 . S
C2545 C2547 1.327 . S
C2545 H2568 0.950 . S
C2546 C2545 1.349 . S
C2546 C2558 1.349 . S
C2547 C2545 1.327 . S
C2547 C2563 1.429 . S
C2547 H2569 0.950 . S
C2548 H2544 0.949 . S
C2548 C2556 1.574 . S
C2548 C2564 1.368 . S
H2549 C2557 0.950 . S
H2550 C2555 0.950 . S
H2551 C2556 0.949 . S
H2552 C2558 0.950 . S
H2553 C2559 0.950 . S
H2554 C2560 0.949 . S
C2555 H2550 0.950 . S
C2555 C2557 1.327 . S
C2555 C2561 1.429 . S
C2556 C2548 1.574 . S
C2556 H2551 0.949 . S
C2556 C2562 1.368 . S
C2557 C2541 1.349 . S
C2557 H2549 0.950 . S
C2557 C2555 1.327 . S
C2558 C2546 1.349 . S
C2558 H2552 0.950 . S
C2558 C2559 1.327 . S
C2559 H2553 0.950 . S
C2559 C2558 1.327 . S
C2559 C2563 1.429 . S
C2560 C2543 1.574 . S
C2560 H2554 0.949 . S
C2560 C2564 1.368 . S
C2561 C2542 1.429 . S
C2561 C2555 1.429 . S
C2561 C2562 1.523 . S
C2562 C2543 1.368 . S
C2562 C2556 1.368 . S
C2562 C2561 1.523 . S
C2563 C2547 1.429 . S
C2563 C2559 1.429 . S
C2563 C2564 1.523 . S
C2564 C2548 1.368 . S
C2564 C2560 1.368 . S
C2564 C2563 1.523 . S
H2565 C2540 0.950 . S
H2566 C2542 0.950 . S
H2567 C2543 0.949 . S
H2568 C2545 0.950 . S
H2569 C2547 0.950 . S
C2570 C2571 1.349 . S
C2570 C2572 1.327 . S
C2570 H2595 0.950 . S
C2571 C2570 1.349 . S
C2571 C2587 1.349 . S
C2572 C2570 1.327 . S
C2572 C2591 1.429 . S
C2572 H2596 0.950 . S
C2573 C2590 1.574 . S
C2573 C2592 1.368 . S
C2573 H2597 0.949 . S
H2574 C2578 0.949 . S
C2575 C2576 1.349 . S
C2575 C2577 1.327 . S
C2575 H2598 0.950 . S
C2576 C2575 1.349 . S
C2576 C2588 1.349 . S
C2577 C2575 1.327 . S
C2577 C2593 1.429 . S
C2577 H2599 0.950 . S
C2578 H2574 0.949 . S
C2578 C2586 1.574 . S
C2578 C2594 1.368 . S
H2579 C2587 0.950 . S
H2580 C2585 0.950 . S
H2581 C2586 0.949 . S
H2582 C2588 0.950 . S
H2583 C2589 0.950 . S
H2584 C2590 0.949 . S
C2585 H2580 0.950 . S
C2585 C2587 1.327 . S
C2585 C2591 1.429 . S
C2586 C2578 1.574 . S
C2586 H2581 0.949 . S
C2586 C2592 1.368 . S
C2587 C2571 1.349 . S
C2587 H2579 0.950 . S
C2587 C2585 1.327 . S
C2588 C2576 1.349 . S
C2588 H2582 0.950 . S
C2588 C2589 1.327 . S
C2589 H2583 0.950 . S
C2589 C2588 1.327 . S
C2589 C2593 1.429 . S
C2590 C2573 1.574 . S
C2590 H2584 0.949 . S
C2590 C2594 1.368 . S
C2591 C2572 1.429 . S
C2591 C2585 1.429 . S
C2591 C2592 1.523 . S
C2592 C2573 1.368 . S
C2592 C2586 1.368 . S
C2592 C2591 1.523 . S
C2593 C2577 1.429 . S
C2593 C2589 1.429 . S
C2593 C2594 1.523 . S
C2594 C2578 1.368 . S
C2594 C2590 1.368 . S
C2594 C2593 1.523 . S
H2595 C2570 0.950 . S
H2596 C2572 0.950 . S
H2597 C2573 0.949 . S
H2598 C2575 0.950 . S
H2599 C2577 0.950 . S
C2600 C2601 1.349 . S
C2600 C2602 1.327 . S
C2600 H2625 0.950 . S
C2601 C2600 1.349 . S
C2601 C2617 1.349 . S
C2602 C2600 1.327 . S
C2602 C2621 1.429 . S
C2602 H2626 0.950 . S
C2603 C2620 1.574 . S
C2603 C2622 1.368 . S
C2603 H2627 0.949 . S
H2604 C2608 0.949 . S
C2605 C2606 1.349 . S
C2605 C2607 1.327 . S
C2605 H2628 0.950 . S
C2606 C2605 1.349 . S
C2606 C2618 1.349 . S
C2607 C2605 1.327 . S
C2607 C2623 1.429 . S
C2607 H2629 0.950 . S
C2608 H2604 0.949 . S
C2608 C2616 1.574 . S
C2608 C2624 1.368 . S
H2609 C2617 0.950 . S
H2610 C2615 0.950 . S
H2611 C2616 0.949 . S
H2612 C2618 0.950 . S
H2613 C2619 0.950 . S
H2614 C2620 0.949 . S
C2615 H2610 0.950 . S
C2615 C2617 1.327 . S
C2615 C2621 1.429 . S
C2616 C2608 1.574 . S
C2616 H2611 0.949 . S
C2616 C2622 1.368 . S
C2617 C2601 1.349 . S
C2617 H2609 0.950 . S
C2617 C2615 1.327 . S
C2618 C2606 1.349 . S
C2618 H2612 0.950 . S
C2618 C2619 1.327 . S
C2619 H2613 0.950 . S
C2619 C2618 1.327 . S
C2619 C2623 1.429 . S
C2620 C2603 1.574 . S
C2620 H2614 0.949 . S
C2620 C2624 1.368 . S
C2621 C2602 1.429 . S
C2621 C2615 1.429 . S
C2621 C2622 1.523 . S
C2622 C2603 1.368 . S
C2622 C2616 1.368 . S
C2622 C2621 1.523 . S
C2623 C2607 1.429 . S
C2623 C2619 1.429 . S
C2623 C2624 1.523 . S
C2624 C2608 1.368 . S
C2624 C2620 1.368 . S
C2624 C2623 1.523 . S
H2625 C2600 0.950 . S
H2626 C2602 0.950 . S
H2627 C2603 0.949 . S
H2628 C2605 0.950 . S
H2629 C2607 0.950 . S
C2630 C2631 1.349 . S
C2630 C2632 1.327 . S
C2630 H2655 0.950 . S
C2631 C2630 1.349 . S
C2631 C2647 1.349 . S
C2632 C2630 1.327 . S
C2632 C2651 1.429 . S
C2632 H2656 0.950 . S
C2633 C2650 1.574 . S
C2633 C2652 1.368 . S
C2633 H2657 0.949 . S
H2634 C2638 0.949 . S
C2635 C2636 1.349 . S
C2635 C2637 1.327 . S
C2635 H2658 0.950 . S
C2636 C2635 1.349 . S
C2636 C2648 1.349 . S
C2637 C2635 1.327 . S
C2637 C2653 1.429 . S
C2637 H2659 0.950 . S
C2638 H2634 0.949 . S
C2638 C2646 1.574 . S
C2638 C2654 1.368 . S
H2639 C2647 0.950 . S
H2640 C2645 0.950 . S
H2641 C2646 0.949 . S
H2642 C2648 0.950 . S
H2643 C2649 0.950 . S
H2644 C2650 0.949 . S
C2645 H2640 0.950 . S
C2645 C2647 1.327 . S
C2645 C2651 1.429 . S
C2646 C2638 1.574 . S
C2646 H2641 0.949 . S
C2646 C2652 1.368 . S
C2647 C2631 1.349 . S
C2647 H2639 0.950 . S
C2647 C2645 1.327 . S
C2648 C2636 1.349 . S
C2648 H2642 0.950 . S
C2648 C2649 1.327 . S
C2649 H2643 0.950 . S
C2649 C2648 1.327 . S
C2649 C2653 1.429 . S
C2650 C2633 1.574 . S
C2650 H2644 0.949 . S
C2650 C2654 1.368 . S
C2651 C2632 1.429 . S
C2651 C2645 1.429 . S
C2651 C2652 1.523 . S
C2652 C2633 1.368 . S
C2652 C2646 1.368 . S
C2652 C2651 1.523 . S
C2653 C2637 1.429 . S
C2653 C2649 1.429 . S
C2653 C2654 1.523 . S
C2654 C2638 1.368 . S
C2654 C2650 1.368 . S
C2654 C2653 1.523 . S
H2655 C2630 0.950 . S
H2656 C2632 0.950 . S
H2657 C2633 0.949 . S
H2658 C2635 0.950 . S
H2659 C2637 0.950 . S
C2660 C2661 1.349 . S
C2660 C2662 1.327 . S
C2660 H2685 0.950 . S
C2661 C2660 1.349 . S
C2661 C2677 1.349 . S
C2662 C2660 1.327 . S
C2662 C2681 1.429 . S
C2662 H2686 0.950 . S
C2663 C2680 1.574 . S
C2663 C2682 1.368 . S
C2663 H2687 0.949 . S
H2664 C2668 0.949 . S
C2665 C2666 1.349 . S
C2665 C2667 1.327 . S
C2665 H2688 0.950 . S
C2666 C2665 1.349 . S
C2666 C2678 1.349 . S
C2667 C2665 1.327 . S
C2667 C2683 1.429 . S
C2667 H2689 0.950 . S
C2668 H2664 0.949 . S
C2668 C2676 1.574 . S
C2668 C2684 1.368 . S
H2669 C2677 0.950 . S
H2670 C2675 0.950 . S
H2671 C2676 0.949 . S
H2672 C2678 0.950 . S
H2673 C2679 0.950 . S
H2674 C2680 0.949 . S
C2675 H2670 0.950 . S
C2675 C2677 1.327 . S
C2675 C2681 1.429 . S
C2676 C2668 1.574 . S
C2676 H2671 0.949 . S
C2676 C2682 1.368 . S
C2677 C2661 1.349 . S
C2677 H2669 0.950 . S
C2677 C2675 1.327 . S
C2678 C2666 1.349 . S
C2678 H2672 0.950 . S
C2678 C2679 1.327 . S
C2679 H2673 0.950 . S
C2679 C2678 1.327 . S
C2679 C2683 1.429 . S
C2680 C2663 1.574 . S
C2680 H2674 0.949 . S
C2680 C2684 1.368 . S
C2681 C2662 1.429 . S
C2681 C2675 1.429 . S
C2681 C2682 1.523 . S
C2682 C2663 1.368 . S
C2682 C2676 1.368 . S
C2682 C2681 1.523 . S
C2683 C2667 1.429 . S
C2683 C2679 1.429 . S
C2683 C2684 1.523 . S
C2684 C2668 1.368 . S
C2684 C2680 1.368 . S
C2684 C2683 1.523 . S
H2685 C2660 0.950 . S
H2686 C2662 0.950 . S
H2687 C2663 0.949 . S
H2688 C2665 0.950 . S
H2689 C2667 0.950 . S
C2690 C2691 1.349 . S
C2690 C2692 1.327 . S
C2690 H2715 0.950 . S
C2691 C2690 1.349 . S
C2691 C2707 1.349 . S
C2692 C2690 1.327 . S
C2692 C2711 1.429 . S
C2692 H2716 0.950 . S
C2693 C2710 1.574 . S
C2693 C2712 1.368 . S
C2693 H2717 0.949 . S
H2694 C2698 0.949 . S
C2695 C2696 1.349 . S
C2695 C2697 1.327 . S
C2695 H2718 0.950 . S
C2696 C2695 1.349 . S
C2696 C2708 1.349 . S
C2697 C2695 1.327 . S
C2697 C2713 1.429 1_455 S
C2697 H2719 0.950 . S
C2698 H2694 0.949 . S
C2698 C2706 1.574 . S
C2698 C2714 1.368 . S
H2699 C2707 0.950 . S
H2700 C2705 0.950 . S
H2701 C2706 0.949 . S
H2702 C2708 0.950 . S
H2703 C2709 0.950 . S
H2704 C2710 0.949 . S
C2705 H2700 0.950 . S
C2705 C2707 1.327 . S
C2705 C2711 1.429 . S
C2706 C2698 1.574 . S
C2706 H2701 0.949 . S
C2706 C2712 1.368 . S
C2707 C2691 1.349 . S
C2707 H2699 0.950 . S
C2707 C2705 1.327 . S
C2708 C2696 1.349 . S
C2708 H2702 0.950 . S
C2708 C2709 1.327 1_455 S
C2709 H2703 0.950 . S
C2709 C2708 1.327 1_655 S
C2709 C2713 1.429 . S
C2710 C2693 1.574 . S
C2710 H2704 0.949 . S
C2710 C2714 1.368 . S
C2711 C2692 1.429 . S
C2711 C2705 1.429 . S
C2711 C2712 1.523 . S
C2712 C2693 1.368 . S
C2712 C2706 1.368 . S
C2712 C2711 1.523 . S
C2713 C2697 1.429 1_655 S
C2713 C2709 1.429 . S
C2713 C2714 1.523 . S
C2714 C2698 1.368 . S
C2714 C2710 1.368 . S
C2714 C2713 1.523 . S
H2715 C2690 0.950 . S
H2716 C2692 0.950 . S
H2717 C2693 0.949 . S
H2718 C2695 0.950 . S
H2719 C2697 0.950 . S
C2720 C2721 1.349 . S
C2720 C2722 1.327 . S
C2720 H2745 0.950 . S
C2721 C2720 1.349 . S
C2721 C2737 1.349 . S
C2722 C2720 1.327 . S
C2722 C2741 1.429 . S
C2722 H2746 0.950 . S
C2723 C2740 1.574 . S
C2723 C2742 1.368 . S
C2723 H2747 0.949 . S
H2724 C2728 0.949 . S
C2725 C2726 1.349 . S
C2725 C2727 1.327 . S
C2725 H2748 0.950 . S
C2726 C2725 1.349 . S
C2726 C2738 1.349 . S
C2727 C2725 1.327 . S
C2727 C2743 1.429 . S
C2727 H2749 0.950 . S
C2728 H2724 0.949 . S
C2728 C2736 1.574 . S
C2728 C2744 1.368 . S
H2729 C2737 0.950 . S
H2730 C2735 0.950 . S
H2731 C2736 0.949 . S
H2732 C2738 0.950 . S
H2733 C2739 0.950 . S
H2734 C2740 0.949 . S
C2735 H2730 0.950 . S
C2735 C2737 1.327 . S
C2735 C2741 1.429 . S
C2736 C2728 1.574 . S
C2736 H2731 0.949 . S
C2736 C2742 1.368 . S
C2737 C2721 1.349 . S
C2737 H2729 0.950 . S
C2737 C2735 1.327 . S
C2738 C2726 1.349 . S
C2738 H2732 0.950 . S
C2738 C2739 1.327 . S
C2739 H2733 0.950 . S
C2739 C2738 1.327 . S
C2739 C2743 1.429 . S
C2740 C2723 1.574 . S
C2740 H2734 0.949 . S
C2740 C2744 1.368 . S
C2741 C2722 1.429 . S
C2741 C2735 1.429 . S
C2741 C2742 1.523 . S
C2742 C2723 1.368 . S
C2742 C2736 1.368 . S
C2742 C2741 1.523 . S
C2743 C2727 1.429 . S
C2743 C2739 1.429 . S
C2743 C2744 1.523 . S
C2744 C2728 1.368 . S
C2744 C2740 1.368 . S
C2744 C2743 1.523 . S
H2745 C2720 0.950 . S
H2746 C2722 0.950 . S
H2747 C2723 0.949 . S
H2748 C2725 0.950 . S
H2749 C2727 0.950 . S
C2750 C2751 1.349 . S
C2750 C2752 1.327 . S
C2750 H2775 0.950 . S
C2751 C2750 1.349 . S
C2751 C2767 1.349 . S
C2752 C2750 1.327 . S
C2752 C2771 1.429 . S
C2752 H2776 0.950 . S
C2753 C2770 1.574 . S
C2753 C2772 1.368 . S
C2753 H2777 0.949 . S
H2754 C2758 0.949 . S
C2755 C2756 1.349 . S
C2755 C2757 1.327 . S
C2755 H2778 0.950 . S
C2756 C2755 1.349 . S
C2756 C2768 1.349 . S
C2757 C2755 1.327 . S
C2757 C2773 1.429 . S
C2757 H2779 0.950 . S
C2758 H2754 0.949 . S
C2758 C2766 1.574 . S
C2758 C2774 1.368 . S
H2759 C2767 0.950 . S
H2760 C2765 0.950 . S
H2761 C2766 0.949 . S
H2762 C2768 0.950 . S
H2763 C2769 0.950 . S
H2764 C2770 0.949 . S
C2765 H2760 0.950 . S
C2765 C2767 1.327 . S
C2765 C2771 1.429 . S
C2766 C2758 1.574 . S
C2766 H2761 0.949 . S
C2766 C2772 1.368 . S
C2767 C2751 1.349 . S
C2767 H2759 0.950 . S
C2767 C2765 1.327 . S
C2768 C2756 1.349 . S
C2768 H2762 0.950 . S
C2768 C2769 1.327 . S
C2769 H2763 0.950 . S
C2769 C2768 1.327 . S
C2769 C2773 1.429 . S
C2770 C2753 1.574 . S
C2770 H2764 0.949 . S
C2770 C2774 1.368 . S
C2771 C2752 1.429 . S
C2771 C2765 1.429 . S
C2771 C2772 1.523 . S
C2772 C2753 1.368 . S
C2772 C2766 1.368 . S
C2772 C2771 1.523 . S
C2773 C2757 1.429 . S
C2773 C2769 1.429 . S
C2773 C2774 1.523 . S
C2774 C2758 1.368 . S
C2774 C2770 1.368 . S
C2774 C2773 1.523 . S
H2775 C2750 0.950 . S
H2776 C2752 0.950 . S
H2777 C2753 0.949 . S
H2778 C2755 0.950 . S
H2779 C2757 0.950 . S
C2780 C2781 1.349 . S
C2780 C2782 1.327 . S
C2780 H2805 0.950 . S
C2781 C2780 1.349 . S
C2781 C2797 1.349 . S
C2782 C2780 1.327 . S
C2782 C2801 1.429 . S
C2782 H2806 0.950 . S
C2783 C2800 1.574 . S
C2783 C2802 1.368 . S
C2783 H2807 0.949 . S
H2784 C2788 0.949 . S
C2785 C2786 1.349 . S
C2785 C2787 1.327 . S
C2785 H2808 0.950 . S
C2786 C2785 1.349 . S
C2786 C2798 1.349 . S
C2787 C2785 1.327 . S
C2787 C2803 1.429 . S
C2787 H2809 0.950 . S
C2788 H2784 0.949 . S
C2788 C2796 1.574 . S
C2788 C2804 1.368 . S
H2789 C2797 0.950 . S
H2790 C2795 0.950 . S
H2791 C2796 0.949 . S
H2792 C2798 0.950 . S
H2793 C2799 0.950 . S
H2794 C2800 0.949 . S
C2795 H2790 0.950 . S
C2795 C2797 1.327 . S
C2795 C2801 1.429 . S
C2796 C2788 1.574 . S
C2796 H2791 0.949 . S
C2796 C2802 1.368 . S
C2797 C2781 1.349 . S
C2797 H2789 0.950 . S
C2797 C2795 1.327 . S
C2798 C2786 1.349 . S
C2798 H2792 0.950 . S
C2798 C2799 1.327 . S
C2799 H2793 0.950 . S
C2799 C2798 1.327 . S
C2799 C2803 1.429 . S
C2800 C2783 1.574 . S
C2800 H2794 0.949 . S
C2800 C2804 1.368 . S
C2801 C2782 1.429 . S
C2801 C2795 1.429 . S
C2801 C2802 1.523 . S
C2802 C2783 1.368 . S
C2802 C2796 1.368 . S
C2802 C2801 1.523 . S
C2803 C2787 1.429 . S
C2803 C2799 1.429 . S
C2803 C2804 1.523 . S
C2804 C2788 1.368 . S
C2804 C2800 1.368 . S
C2804 C2803 1.523 . S
H2805 C2780 0.950 . S
H2806 C2782 0.950 . S
H2807 C2783 0.949 . S
H2808 C2785 0.950 . S
H2809 C2787 0.950 . S
C2810 C2811 1.349 . S
C2810 C2812 1.327 . S
C2810 H2835 0.950 . S
C2811 C2810 1.349 . S
C2811 C2827 1.349 . S
C2812 C2810 1.327 . S
C2812 C2831 1.429 . S
C2812 H2836 0.950 . S
C2813 C2830 1.574 . S
C2813 C2832 1.368 . S
C2813 H2837 0.949 . S
H2814 C2818 0.949 . S
C2815 C2816 1.349 . S
C2815 C2817 1.327 . S
C2815 H2838 0.950 . S
C2816 C2815 1.349 . S
C2816 C2828 1.349 . S
C2817 C2815 1.327 . S
C2817 C2833 1.429 1_455 S
C2817 H2839 0.950 1_455 S
C2818 H2814 0.949 . S
C2818 C2826 1.574 . S
C2818 C2834 1.368 . S
H2819 C2827 0.950 . S
H2820 C2825 0.950 . S
H2821 C2826 0.949 . S
H2822 C2828 0.950 . S
H2823 C2829 0.923 1_655 S
H2824 C2830 0.949 . S
C2825 H2820 0.950 . S
C2825 C2827 1.327 . S
C2825 C2831 1.429 . S
C2826 C2818 1.574 . S
C2826 H2821 0.949 . S
C2826 C2832 1.368 . S
C2827 C2811 1.349 . S
C2827 H2819 0.950 . S
C2827 C2825 1.327 . S
C2828 C2816 1.349 . S
C2828 H2822 0.950 . S
C2828 C2829 1.381 . S
C2829 H2823 0.923 1_455 S
C2829 C2828 1.381 . S
C2829 C2833 1.404 1_455 S
C2830 C2813 1.574 . S
C2830 H2824 0.949 . S
C2830 C2834 1.368 . S
C2831 C2812 1.429 . S
C2831 C2825 1.429 . S
C2831 C2832 1.523 . S
C2832 C2813 1.368 . S
C2832 C2826 1.368 . S
C2832 C2831 1.523 . S
C2833 C2817 1.429 1_655 S
C2833 C2829 1.404 1_655 S
C2833 C2834 1.523 . S
C2834 C2818 1.368 . S
C2834 C2830 1.368 . S
C2834 C2833 1.523 . S
H2835 C2810 0.950 . S
H2836 C2812 0.950 . S
H2837 C2813 0.949 . S
H2838 C2815 0.950 . S
H2839 C2817 0.950 1_655 S
C2840 C2841 1.349 . S
C2840 C2842 1.327 . S
C2840 H2865 0.950 . S
C2841 C2840 1.349 . S
C2841 C2857 1.349 . S
C2842 C2840 1.327 . S
C2842 C2861 1.429 . S
C2842 H2866 0.950 . S
C2843 C2860 1.574 . S
C2843 C2862 1.368 . S
C2843 H2867 0.949 . S
H2844 C2848 0.949 . S
C2845 C2846 1.349 . S
C2845 C2847 1.327 . S
C2845 H2868 0.950 . S
C2846 C2845 1.349 . S
C2846 C2858 1.349 . S
C2847 C2845 1.327 . S
C2847 C2863 1.429 . S
C2847 H2869 0.950 . S
C2848 H2844 0.949 . S
C2848 C2856 1.574 . S
C2848 C2864 1.368 . S
H2849 C2857 0.950 . S
H2850 C2855 0.950 . S
H2851 C2856 0.949 . S
H2852 C2858 0.950 . S
H2853 C2859 0.950 . S
H2854 C2860 0.949 . S
C2855 H2850 0.950 . S
C2855 C2857 1.327 . S
C2855 C2861 1.429 . S
C2856 C2848 1.574 . S
C2856 H2851 0.949 . S
C2856 C2862 1.368 . S
C2857 C2841 1.349 . S
C2857 H2849 0.950 . S
C2857 C2855 1.327 . S
C2858 C2846 1.349 . S
C2858 H2852 0.950 . S
C2858 C2859 1.327 . S
C2859 H2853 0.950 . S
C2859 C2858 1.327 . S
C2859 C2863 1.429 . S
C2860 C2843 1.574 . S
C2860 H2854 0.949 . S
C2860 C2864 1.368 . S
C2861 C2842 1.429 . S
C2861 C2855 1.429 . S
C2861 C2862 1.523 . S
C2862 C2843 1.368 . S
C2862 C2856 1.368 . S
C2862 C2861 1.523 . S
C2863 C2847 1.429 . S
C2863 C2859 1.429 . S
C2863 C2864 1.523 . S
C2864 C2848 1.368 . S
C2864 C2860 1.368 . S
C2864 C2863 1.523 . S
H2865 C2840 0.950 . S
H2866 C2842 0.950 . S
H2867 C2843 0.949 . S
H2868 C2845 0.950 . S
H2869 C2847 0.950 . S
C2870 C2871 1.349 . S
C2870 C2872 1.327 . S
C2870 H2895 0.950 . S
C2871 C2870 1.349 . S
C2871 C2887 1.349 . S
C2872 C2870 1.327 . S
C2872 C2891 1.429 . S
C2872 H2896 0.950 . S
C2873 C2890 1.574 . S
C2873 C2892 1.368 . S
C2873 H2897 0.949 . S
H2874 C2878 0.949 . S
C2875 C2876 1.349 . S
C2875 C2877 1.325 . S
C2875 H2898 0.950 . S
C2876 C2875 1.349 . S
C2876 C2888 1.349 . S
C2877 C2875 1.325 . S
C2877 C2893 1.430 1_455 S
C2877 H2899 0.951 1_455 S
C2878 H2874 0.949 . S
C2878 C2886 1.574 . S
C2878 C2894 1.368 . S
H2879 C2887 0.950 . S
H2880 C2885 0.950 . S
H2881 C2886 0.949 . S
H2882 C2888 0.950 . S
H2883 C2889 0.948 . S
H2884 C2890 0.949 . S
C2885 H2880 0.950 . S
C2885 C2887 1.327 . S
C2885 C2891 1.429 . S
C2886 C2878 1.574 . S
C2886 H2881 0.949 . S
C2886 C2892 1.368 . S
C2887 C2871 1.349 . S
C2887 H2879 0.950 . S
C2887 C2885 1.327 . S
C2888 C2876 1.349 . S
C2888 H2882 0.950 . S
C2888 C2889 1.327 . S
C2889 H2883 0.948 . S
C2889 C2888 1.327 . S
C2889 C2893 1.429 1_455 S
C2890 C2873 1.574 . S
C2890 H2884 0.949 . S
C2890 C2894 1.368 . S
C2891 C2872 1.429 . S
C2891 C2885 1.429 . S
C2891 C2892 1.523 . S
C2892 C2873 1.368 . S
C2892 C2886 1.368 . S
C2892 C2891 1.523 . S
C2893 C2877 1.430 1_655 S
C2893 C2889 1.429 1_655 S
C2893 C2894 1.523 . S
C2894 C2878 1.368 . S
C2894 C2890 1.368 . S
C2894 C2893 1.523 . S
H2895 C2870 0.950 . S
H2896 C2872 0.950 . S
H2897 C2873 0.949 . S
H2898 C2875 0.950 . S
H2899 C2877 0.951 1_655 S
C2900 C2901 1.349 . S
C2900 C2902 1.327 . S
C2900 H2925 0.950 . S
C2901 C2900 1.349 . S
C2901 C2917 1.349 . S
C2902 C2900 1.327 . S
C2902 C2921 1.429 . S
C2902 H2926 0.950 . S
C2903 C2920 1.574 . S
C2903 C2922 1.368 . S
C2903 H2927 0.949 . S
H2904 C2908 0.949 . S
C2905 C2906 1.349 . S
C2905 C2907 1.327 . S
C2905 H2928 0.950 . S
C2906 C2905 1.349 . S
C2906 C2918 1.349 . S
C2907 C2905 1.327 . S
C2907 C2923 1.429 . S
C2907 H2929 0.950 . S
C2908 H2904 0.949 . S
C2908 C2916 1.574 . S
C2908 C2924 1.368 . S
H2909 C2917 0.950 . S
H2910 C2915 0.950 . S
H2911 C2916 0.949 . S
H2912 C2918 0.950 . S
H2913 C2919 0.950 . S
H2914 C2920 0.949 . S
C2915 H2910 0.950 . S
C2915 C2917 1.327 . S
C2915 C2921 1.429 . S
C2916 C2908 1.574 . S
C2916 H2911 0.949 . S
C2916 C2922 1.368 . S
C2917 C2901 1.349 . S
C2917 H2909 0.950 . S
C2917 C2915 1.327 . S
C2918 C2906 1.349 . S
C2918 H2912 0.950 . S
C2918 C2919 1.327 . S
C2919 H2913 0.950 . S
C2919 C2918 1.327 . S
C2919 C2923 1.429 . S
C2920 C2903 1.574 . S
C2920 H2914 0.949 . S
C2920 C2924 1.368 . S
C2921 C2902 1.429 . S
C2921 C2915 1.429 . S
C2921 C2922 1.523 . S
C2922 C2903 1.368 . S
C2922 C2916 1.368 . S
C2922 C2921 1.523 . S
C2923 C2907 1.429 . S
C2923 C2919 1.429 . S
C2923 C2924 1.523 . S
C2924 C2908 1.368 . S
C2924 C2920 1.368 . S
C2924 C2923 1.523 . S
H2925 C2900 0.950 . S
H2926 C2902 0.950 . S
H2927 C2903 0.949 . S
H2928 C2905 0.950 . S
H2929 C2907 0.950 . S
C2930 C2931 1.349 . S
C2930 C2932 1.327 . S
C2930 H2955 0.950 . S
C2931 C2930 1.349 . S
C2931 C2947 1.349 . S
C2932 C2930 1.327 . S
C2932 C2951 1.429 . S
C2932 H2956 0.950 . S
C2933 C2950 1.574 . S
C2933 C2952 1.368 . S
C2933 H2957 0.949 . S
H2934 C2938 0.949 . S
C2935 C2936 1.349 . S
C2935 C2937 1.327 . S
C2935 H2958 0.950 . S
C2936 C2935 1.349 . S
C2936 C2948 1.349 . S
C2937 C2935 1.327 . S
C2937 C2953 1.429 . S
C2937 H2959 0.950 . S
C2938 H2934 0.949 . S
C2938 C2946 1.574 . S
C2938 C2954 1.368 . S
H2939 C2947 0.950 . S
H2940 C2945 0.950 . S
H2941 C2946 0.949 . S
H2942 C2948 0.950 . S
H2943 C2949 0.950 . S
H2944 C2950 0.949 . S
C2945 H2940 0.950 . S
C2945 C2947 1.327 . S
C2945 C2951 1.429 . S
C2946 C2938 1.574 . S
C2946 H2941 0.949 . S
C2946 C2952 1.368 . S
C2947 C2931 1.349 . S
C2947 H2939 0.950 . S
C2947 C2945 1.327 . S
C2948 C2936 1.349 . S
C2948 H2942 0.950 . S
C2948 C2949 1.327 . S
C2949 H2943 0.950 . S
C2949 C2948 1.327 . S
C2949 C2953 1.429 . S
C2950 C2933 1.574 . S
C2950 H2944 0.949 . S
C2950 C2954 1.368 . S
C2951 C2932 1.429 . S
C2951 C2945 1.429 . S
C2951 C2952 1.523 . S
C2952 C2933 1.368 . S
C2952 C2946 1.368 . S
C2952 C2951 1.523 . S
C2953 C2937 1.429 . S
C2953 C2949 1.429 . S
C2953 C2954 1.523 . S
C2954 C2938 1.368 . S
C2954 C2950 1.368 . S
C2954 C2953 1.523 . S
H2955 C2930 0.950 . S
H2956 C2932 0.950 . S
H2957 C2933 0.949 . S
H2958 C2935 0.950 . S
H2959 C2937 0.950 . S
C2960 C2961 1.349 . S
C2960 C2962 1.327 . S
C2960 H2985 0.950 . S
C2961 C2960 1.349 . S
C2961 C2977 1.349 . S
C2962 C2960 1.327 . S
C2962 C2981 1.429 . S
C2962 H2986 0.950 . S
C2963 C2980 1.574 . S
C2963 C2982 1.368 . S
C2963 H2987 0.949 . S
H2964 C2968 0.949 . S
C2965 C2966 1.349 . S
C2965 C2967 1.327 . S
C2965 H2988 0.950 . S
C2966 C2965 1.349 . S
C2966 C2978 1.349 . S
C2967 C2965 1.327 . S
C2967 C2983 1.429 . S
C2967 H2989 0.950 . S
C2968 H2964 0.949 . S
C2968 C2976 1.574 . S
C2968 C2984 1.368 . S
H2969 C2977 0.950 . S
H2970 C2975 0.950 . S
H2971 C2976 0.949 . S
H2972 C2978 0.950 . S
H2973 C2979 0.950 . S
H2974 C2980 0.949 . S
C2975 H2970 0.950 . S
C2975 C2977 1.327 . S
C2975 C2981 1.429 . S
C2976 C2968 1.574 . S
C2976 H2971 0.949 . S
C2976 C2982 1.368 . S
C2977 C2961 1.349 . S
C2977 H2969 0.950 . S
C2977 C2975 1.327 . S
C2978 C2966 1.349 . S
C2978 H2972 0.950 . S
C2978 C2979 1.327 . S
C2979 H2973 0.950 . S
C2979 C2978 1.327 . S
C2979 C2983 1.429 . S
C2980 C2963 1.574 . S
C2980 H2974 0.949 . S
C2980 C2984 1.368 . S
C2981 C2962 1.429 . S
C2981 C2975 1.429 . S
C2981 C2982 1.523 . S
C2982 C2963 1.368 . S
C2982 C2976 1.368 . S
C2982 C2981 1.523 . S
C2983 C2967 1.429 . S
C2983 C2979 1.429 . S
C2983 C2984 1.523 . S
C2984 C2968 1.368 . S
C2984 C2980 1.368 . S
C2984 C2983 1.523 . S
H2985 C2960 0.950 . S
H2986 C2962 0.950 . S
H2987 C2963 0.949 . S
H2988 C2965 0.950 . S
H2989 C2967 0.950 . S
C2990 C2991 1.349 . S
C2990 C2992 1.327 . S
C2990 H3015 0.950 . S
C2991 C2990 1.349 . S
C2991 C3007 1.349 . S
C2992 C2990 1.327 . S
C2992 C3011 1.429 . S
C2992 H3016 0.950 . S
C2993 C3010 1.574 . S
C2993 C3012 1.368 . S
C2993 H3017 0.949 . S
H2994 C2998 0.949 . S
C2995 C2996 1.349 . S
C2995 C2997 1.327 . S
C2995 H3018 0.950 . S
C2996 C2995 1.349 . S
C2996 C3008 1.349 . S
C2997 C2995 1.327 . S
C2997 C3013 1.429 . S
C2997 H3019 0.950 . S
C2998 H2994 0.949 . S
C2998 C3006 1.574 . S
C2998 C3014 1.368 . S
H2999 C3007 0.950 . S
H3000 C3005 0.950 . S
H3001 C3006 0.949 . S
H3002 C3008 0.950 . S
H3003 C3009 0.950 . S
H3004 C3010 0.949 . S
C3005 H3000 0.950 . S
C3005 C3007 1.327 . S
C3005 C3011 1.429 . S
C3006 C2998 1.574 . S
C3006 H3001 0.949 . S
C3006 C3012 1.368 . S
C3007 C2991 1.349 . S
C3007 H2999 0.950 . S
C3007 C3005 1.327 . S
C3008 C2996 1.349 . S
C3008 H3002 0.950 . S
C3008 C3009 1.327 . S
C3009 H3003 0.950 . S
C3009 C3008 1.327 . S
C3009 C3013 1.429 . S
C3010 C2993 1.574 . S
C3010 H3004 0.949 . S
C3010 C3014 1.368 . S
C3011 C2992 1.429 . S
C3011 C3005 1.429 . S
C3011 C3012 1.523 . S
C3012 C2993 1.368 . S
C3012 C3006 1.368 . S
C3012 C3011 1.523 . S
C3013 C2997 1.429 . S
C3013 C3009 1.429 . S
C3013 C3014 1.523 . S
C3014 C2998 1.368 . S
C3014 C3010 1.368 . S
C3014 C3013 1.523 . S
H3015 C2990 0.950 . S
H3016 C2992 0.950 . S
H3017 C2993 0.949 . S
H3018 C2995 0.950 . S
H3019 C2997 0.950 . S
C3020 C3021 1.349 . S
C3020 C3022 1.327 . S
C3020 H3045 0.950 . S
C3021 C3020 1.349 . S
C3021 C3037 1.349 . S
C3022 C3020 1.327 . S
C3022 C3041 1.429 . S
C3022 H3046 0.950 . S
C3023 C3040 1.574 . S
C3023 C3042 1.368 . S
C3023 H3047 0.949 . S
H3024 C3028 0.949 . S
C3025 C3026 1.349 . S
C3025 C3027 1.327 . S
C3025 H3048 0.950 . S
C3026 C3025 1.349 . S
C3026 C3038 1.349 . S
C3027 C3025 1.327 . S
C3027 C3043 1.429 . S
C3027 H3049 0.950 . S
C3028 H3024 0.949 . S
C3028 C3036 1.574 . S
C3028 C3044 1.368 . S
H3029 C3037 0.950 . S
H3030 C3035 0.950 . S
H3031 C3036 0.949 . S
H3032 C3038 0.950 . S
H3033 C3039 0.950 . S
H3034 C3040 0.949 . S
C3035 H3030 0.950 . S
C3035 C3037 1.327 . S
C3035 C3041 1.429 . S
C3036 C3028 1.574 . S
C3036 H3031 0.949 . S
C3036 C3042 1.368 . S
C3037 C3021 1.349 . S
C3037 H3029 0.950 . S
C3037 C3035 1.327 . S
C3038 C3026 1.349 . S
C3038 H3032 0.950 . S
C3038 C3039 1.327 . S
C3039 H3033 0.950 . S
C3039 C3038 1.327 . S
C3039 C3043 1.429 . S
C3040 C3023 1.574 . S
C3040 H3034 0.949 . S
C3040 C3044 1.368 . S
C3041 C3022 1.429 . S
C3041 C3035 1.429 . S
C3041 C3042 1.523 . S
C3042 C3023 1.368 . S
C3042 C3036 1.368 . S
C3042 C3041 1.523 . S
C3043 C3027 1.429 . S
C3043 C3039 1.429 . S
C3043 C3044 1.523 . S
C3044 C3028 1.368 . S
C3044 C3040 1.368 . S
C3044 C3043 1.523 . S
H3045 C3020 0.950 . S
H3046 C3022 0.950 . S
H3047 C3023 0.949 . S
H3048 C3025 0.950 . S
H3049 C3027 0.950 . S
C3050 C3051 1.349 . S
C3050 C3052 1.327 . S
C3050 H3075 0.950 . S
C3051 C3050 1.349 . S
C3051 C3067 1.349 . S
C3052 C3050 1.327 . S
C3052 C3071 1.429 1_655 S
C3052 H3076 0.950 . S
C3053 C3070 1.574 . S
C3053 C3072 1.368 . S
C3053 H3077 0.949 . S
H3054 C3058 0.949 . S
C3055 C3056 1.349 . S
C3055 C3057 1.327 . S
C3055 H3078 0.950 . S
C3056 C3055 1.349 . S
C3056 C3068 1.349 . S
C3057 C3055 1.327 . S
C3057 C3073 1.429 . S
C3057 H3079 0.950 . S
C3058 H3054 0.949 . S
C3058 C3066 1.574 . S
C3058 C3074 1.368 . S
H3059 C3067 0.950 . S
H3060 C3065 0.950 . S
H3061 C3066 0.949 . S
H3062 C3068 0.950 . S
H3063 C3069 0.950 . S
H3064 C3070 0.949 . S
C3065 H3060 0.950 . S
C3065 C3067 1.327 1_455 S
C3065 C3071 1.429 . S
C3066 C3058 1.574 . S
C3066 H3061 0.949 . S
C3066 C3072 1.368 . S
C3067 C3051 1.349 . S
C3067 H3059 0.950 . S
C3067 C3065 1.327 1_655 S
C3068 C3056 1.349 . S
C3068 H3062 0.950 . S
C3068 C3069 1.327 . S
C3069 H3063 0.950 . S
C3069 C3068 1.327 . S
C3069 C3073 1.429 . S
C3070 C3053 1.574 . S
C3070 H3064 0.949 . S
C3070 C3074 1.368 . S
C3071 C3052 1.429 1_455 S
C3071 C3065 1.429 . S
C3071 C3072 1.523 . S
C3072 C3053 1.368 . S
C3072 C3066 1.368 . S
C3072 C3071 1.523 . S
C3073 C3057 1.429 . S
C3073 C3069 1.429 . S
C3073 C3074 1.523 . S
C3074 C3058 1.368 . S
C3074 C3070 1.368 . S
C3074 C3073 1.523 . S
H3075 C3050 0.950 . S
H3076 C3052 0.950 . S
H3077 C3053 0.949 . S
H3078 C3055 0.950 . S
H3079 C3057 0.950 . S
C3080 C3081 1.349 . S
C3080 C3082 1.327 . S
C3080 H3105 0.950 . S
C3081 C3080 1.349 . S
C3081 C3097 1.349 . S
C3082 C3080 1.327 . S
C3082 C3101 1.429 . S
C3082 H3106 0.950 . S
C3083 C3100 1.574 . S
C3083 C3102 1.368 . S
C3083 H3107 0.949 . S
H3084 C3088 0.949 . S
C3085 C3086 1.349 . S
C3085 C3087 1.327 . S
C3085 H3108 0.950 . S
C3086 C3085 1.349 . S
C3086 C3098 1.349 . S
C3087 C3085 1.327 . S
C3087 C3103 1.429 . S
C3087 H3109 0.950 . S
C3088 H3084 0.949 . S
C3088 C3096 1.574 . S
C3088 C3104 1.368 . S
H3089 C3097 0.950 . S
H3090 C3095 0.950 . S
H3091 C3096 0.949 . S
H3092 C3098 0.950 . S
H3093 C3099 0.950 . S
H3094 C3100 0.949 . S
C3095 H3090 0.950 . S
C3095 C3097 1.327 . S
C3095 C3101 1.429 . S
C3096 C3088 1.574 . S
C3096 H3091 0.949 . S
C3096 C3102 1.368 . S
C3097 C3081 1.349 . S
C3097 H3089 0.950 . S
C3097 C3095 1.327 . S
C3098 C3086 1.349 . S
C3098 H3092 0.950 . S
C3098 C3099 1.327 . S
C3099 H3093 0.950 . S
C3099 C3098 1.327 . S
C3099 C3103 1.429 . S
C3100 C3083 1.574 . S
C3100 H3094 0.949 . S
C3100 C3104 1.368 . S
C3101 C3082 1.429 . S
C3101 C3095 1.429 . S
C3101 C3102 1.523 . S
C3102 C3083 1.368 . S
C3102 C3096 1.368 . S
C3102 C3101 1.523 . S
C3103 C3087 1.429 . S
C3103 C3099 1.429 . S
C3103 C3104 1.523 . S
C3104 C3088 1.368 . S
C3104 C3100 1.368 . S
C3104 C3103 1.523 . S
H3105 C3080 0.950 . S
H3106 C3082 0.950 . S
H3107 C3083 0.949 . S
H3108 C3085 0.950 . S
H3109 C3087 0.950 . S
C3110 C3111 1.349 . S
C3110 C3112 1.327 . S
C3110 H3135 0.950 . S
C3111 C3110 1.349 . S
C3111 C3127 1.349 . S
C3112 C3110 1.327 . S
C3112 C3131 1.429 . S
C3112 H3136 0.950 . S
C3113 C3130 1.574 . S
C3113 C3132 1.368 . S
C3113 H3137 0.949 . S
H3114 C3118 0.949 . S
C3115 C3116 1.349 . S
C3115 C3117 1.327 1_655 S
C3115 H3138 0.950 . S
C3116 C3115 1.349 . S
C3116 C3128 1.349 . S
C3117 C3115 1.327 1_455 S
C3117 C3133 1.429 . S
C3117 H3139 0.950 . S
C3118 H3114 0.949 . S
C3118 C3126 1.574 . S
C3118 C3134 1.368 . S
H3119 C3127 0.950 . S
H3120 C3125 0.950 . S
H3121 C3126 0.949 . S
H3122 C3128 0.950 . S
H3123 C3129 0.950 . S
H3124 C3130 0.949 . S
C3125 H3120 0.950 . S
C3125 C3127 1.327 . S
C3125 C3131 1.429 . S
C3126 C3118 1.574 . S
C3126 H3121 0.949 . S
C3126 C3132 1.368 . S
C3127 C3111 1.349 . S
C3127 H3119 0.950 . S
C3127 C3125 1.327 . S
C3128 C3116 1.349 . S
C3128 H3122 0.950 . S
C3128 C3129 1.327 . S
C3129 H3123 0.950 . S
C3129 C3128 1.327 . S
C3129 C3133 1.429 1_655 S
C3130 C3113 1.574 . S
C3130 H3124 0.949 . S
C3130 C3134 1.368 . S
C3131 C3112 1.429 . S
C3131 C3125 1.429 . S
C3131 C3132 1.523 . S
C3132 C3113 1.368 . S
C3132 C3126 1.368 . S
C3132 C3131 1.523 . S
C3133 C3117 1.429 . S
C3133 C3129 1.429 1_455 S
C3133 C3134 1.523 . S
C3134 C3118 1.368 . S
C3134 C3130 1.368 . S
C3134 C3133 1.523 . S
H3135 C3110 0.950 . S
H3136 C3112 0.950 . S
H3137 C3113 0.949 . S
H3138 C3115 0.950 . S
H3139 C3117 0.950 . S
C3140 C3141 1.349 . S
C3140 C3142 1.327 . S
C3140 H3165 0.950 . S
C3141 C3140 1.349 . S
C3141 C3157 1.349 . S
C3142 C3140 1.327 . S
C3142 C3161 1.429 . S
C3142 H3166 0.950 . S
C3143 C3160 1.574 . S
C3143 C3162 1.368 . S
C3143 H3167 0.949 . S
H3144 C3148 0.949 . S
C3145 C3146 1.349 . S
C3145 C3147 1.327 . S
C3145 H3168 0.950 . S
C3146 C3145 1.349 . S
C3146 C3158 1.349 . S
C3147 C3145 1.327 . S
C3147 C3163 1.429 . S
C3147 H3169 0.950 . S
C3148 H3144 0.949 . S
C3148 C3156 1.574 . S
C3148 C3164 1.368 . S
H3149 C3157 0.950 . S
H3150 C3155 0.950 . S
H3151 C3156 0.949 . S
H3152 C3158 0.950 . S
H3153 C3159 0.950 . S
H3154 C3160 0.949 . S
C3155 H3150 0.950 . S
C3155 C3157 1.327 . S
C3155 C3161 1.429 . S
C3156 C3148 1.574 . S
C3156 H3151 0.949 . S
C3156 C3162 1.368 . S
C3157 C3141 1.349 . S
C3157 H3149 0.950 . S
C3157 C3155 1.327 . S
C3158 C3146 1.349 . S
C3158 H3152 0.950 . S
C3158 C3159 1.327 . S
C3159 H3153 0.950 . S
C3159 C3158 1.327 . S
C3159 C3163 1.429 . S
C3160 C3143 1.574 . S
C3160 H3154 0.949 . S
C3160 C3164 1.368 . S
C3161 C3142 1.429 . S
C3161 C3155 1.429 . S
C3161 C3162 1.523 . S
C3162 C3143 1.368 . S
C3162 C3156 1.368 . S
C3162 C3161 1.523 . S
C3163 C3147 1.429 . S
C3163 C3159 1.429 . S
C3163 C3164 1.523 . S
C3164 C3148 1.368 . S
C3164 C3160 1.368 . S
C3164 C3163 1.523 . S
H3165 C3140 0.950 . S
H3166 C3142 0.950 . S
H3167 C3143 0.949 . S
H3168 C3145 0.950 . S
H3169 C3147 0.950 . S
C3170 C3171 1.349 . S
C3170 C3172 1.327 . S
C3170 H3195 0.950 . S
C3171 C3170 1.349 . S
C3171 C3187 1.349 . S
C3172 C3170 1.327 . S
C3172 C3191 1.429 . S
C3172 H3196 0.950 . S
C3173 C3190 1.574 . S
C3173 C3192 1.368 . S
C3173 H3197 0.949 . S
H3174 C3178 0.949 . S
C3175 C3176 1.349 . S
C3175 C3177 1.327 . S
C3175 H3198 0.950 . S
C3176 C3175 1.349 . S
C3176 C3188 1.349 . S
C3177 C3175 1.327 . S
C3177 C3193 1.429 . S
C3177 H3199 0.950 . S
C3178 H3174 0.949 . S
C3178 C3186 1.574 . S
C3178 C3194 1.368 . S
H3179 C3187 0.950 . S
H3180 C3185 0.950 . S
H3181 C3186 0.949 . S
H3182 C3188 0.950 . S
H3183 C3189 0.950 . S
H3184 C3190 0.949 . S
C3185 H3180 0.950 . S
C3185 C3187 1.327 . S
C3185 C3191 1.429 . S
C3186 C3178 1.574 . S
C3186 H3181 0.949 . S
C3186 C3192 1.368 . S
C3187 C3171 1.349 . S
C3187 H3179 0.950 . S
C3187 C3185 1.327 . S
C3188 C3176 1.349 . S
C3188 H3182 0.950 . S
C3188 C3189 1.327 . S
C3189 H3183 0.950 . S
C3189 C3188 1.327 . S
C3189 C3193 1.429 . S
C3190 C3173 1.574 . S
C3190 H3184 0.949 . S
C3190 C3194 1.368 . S
C3191 C3172 1.429 . S
C3191 C3185 1.429 . S
C3191 C3192 1.523 . S
C3192 C3173 1.368 . S
C3192 C3186 1.368 . S
C3192 C3191 1.523 . S
C3193 C3177 1.429 . S
C3193 C3189 1.429 . S
C3193 C3194 1.523 . S
C3194 C3178 1.368 . S
C3194 C3190 1.368 . S
C3194 C3193 1.523 . S
H3195 C3170 0.950 . S
H3196 C3172 0.950 . S
H3197 C3173 0.949 . S
H3198 C3175 0.950 . S
H3199 C3177 0.950 . S
C3200 C3201 1.349 . S
C3200 C3202 1.327 . S
C3200 H3225 0.950 . S
C3201 C3200 1.349 . S
C3201 C3217 1.349 . S
C3202 C3200 1.327 . S
C3202 C3221 1.429 . S
C3202 H3226 0.950 . S
C3203 C3220 1.574 1_545 S
C3203 C3222 1.368 . S
C3203 H3227 0.949 . S
H3204 C3208 0.949 . S
C3205 C3206 1.349 . S
C3205 C3207 1.327 . S
C3205 H3228 0.950 . S
C3206 C3205 1.349 . S
C3206 C3218 1.349 . S
C3207 C3205 1.327 . S
C3207 C3223 1.429 . S
C3207 H3229 0.950 . S
C3208 H3204 0.949 . S
C3208 C3216 1.574 1_565 S
C3208 C3224 1.368 . S
H3209 C3217 0.950 . S
H3210 C3215 0.950 . S
H3211 C3216 0.949 . S
H3212 C3218 0.950 . S
H3213 C3219 0.950 . S
H3214 C3220 0.949 . S
C3215 H3210 0.950 . S
C3215 C3217 1.327 . S
C3215 C3221 1.429 . S
C3216 C3208 1.574 1_545 S
C3216 H3211 0.949 . S
C3216 C3222 1.368 . S
C3217 C3201 1.349 . S
C3217 H3209 0.950 . S
C3217 C3215 1.327 . S
C3218 C3206 1.349 . S
C3218 H3212 0.950 . S
C3218 C3219 1.327 . S
C3219 H3213 0.950 . S
C3219 C3218 1.327 . S
C3219 C3223 1.429 . S
C3220 C3203 1.574 1_565 S
C3220 H3214 0.949 . S
C3220 C3224 1.368 . S
C3221 C3202 1.429 . S
C3221 C3215 1.429 . S
C3221 C3222 1.523 . S
C3222 C3203 1.368 . S
C3222 C3216 1.368 . S
C3222 C3221 1.523 . S
C3223 C3207 1.429 . S
C3223 C3219 1.429 . S
C3223 C3224 1.523 . S
C3224 C3208 1.368 . S
C3224 C3220 1.368 . S
C3224 C3223 1.523 . S
H3225 C3200 0.950 . S
H3226 C3202 0.950 . S
H3227 C3203 0.949 . S
H3228 C3205 0.950 . S
H3229 C3207 0.950 . S
C3230 C3231 1.349 . S
C3230 C3232 1.327 . S
C3230 H3255 0.950 . S
C3231 C3230 1.349 . S
C3231 C3247 1.349 . S
C3232 C3230 1.327 . S
C3232 C3251 1.429 . S
C3232 H3256 0.950 . S
C3233 C3250 1.574 . S
C3233 C3252 1.368 . S
C3233 H3257 0.949 . S
H3234 C3238 0.949 . S
C3235 C3236 1.349 . S
C3235 C3237 1.327 . S
C3235 H3258 0.950 . S
C3236 C3235 1.349 . S
C3236 C3248 1.349 . S
C3237 C3235 1.327 . S
C3237 C3253 1.429 . S
C3237 H3259 0.950 . S
C3238 H3234 0.949 . S
C3238 C3246 1.574 . S
C3238 C3254 1.368 . S
H3239 C3247 0.950 . S
H3240 C3245 0.950 . S
H3241 C3246 0.949 . S
H3242 C3248 0.950 . S
H3243 C3249 0.950 . S
H3244 C3250 0.949 . S
C3245 H3240 0.950 . S
C3245 C3247 1.327 . S
C3245 C3251 1.429 . S
C3246 C3238 1.574 . S
C3246 H3241 0.949 . S
C3246 C3252 1.368 . S
C3247 C3231 1.349 . S
C3247 H3239 0.950 . S
C3247 C3245 1.327 . S
C3248 C3236 1.349 . S
C3248 H3242 0.950 . S
C3248 C3249 1.327 . S
C3249 H3243 0.950 . S
C3249 C3248 1.327 . S
C3249 C3253 1.429 . S
C3250 C3233 1.574 . S
C3250 H3244 0.949 . S
C3250 C3254 1.368 . S
C3251 C3232 1.429 . S
C3251 C3245 1.429 . S
C3251 C3252 1.523 . S
C3252 C3233 1.368 . S
C3252 C3246 1.368 . S
C3252 C3251 1.523 . S
C3253 C3237 1.429 . S
C3253 C3249 1.429 . S
C3253 C3254 1.523 . S
C3254 C3238 1.368 . S
C3254 C3250 1.368 . S
C3254 C3253 1.523 . S
H3255 C3230 0.950 . S
H3256 C3232 0.950 . S
H3257 C3233 0.949 . S
H3258 C3235 0.950 . S
H3259 C3237 0.950 . S
C3260 C3261 1.349 . S
C3260 C3262 1.327 . S
C3260 H3285 0.950 . S
C3261 C3260 1.349 . S
C3261 C3277 1.349 . S
C3262 C3260 1.327 . S
C3262 C3281 1.429 . S
C3262 H3286 0.950 . S
C3263 C3280 1.574 1_565 S
C3263 C3282 1.368 . S
C3263 H3287 0.949 . S
H3264 C3268 0.949 . S
C3265 C3266 1.349 . S
C3265 C3267 1.327 . S
C3265 H3288 0.950 . S
C3266 C3265 1.349 . S
C3266 C3278 1.349 . S
C3267 C3265 1.327 . S
C3267 C3283 1.429 . S
C3267 H3289 0.950 . S
C3268 H3264 0.949 . S
C3268 C3276 1.574 1_545 S
C3268 C3284 1.368 . S
H3269 C3277 0.950 . S
H3270 C3275 0.950 . S
H3271 C3276 0.949 . S
H3272 C3278 0.950 . S
H3273 C3279 0.950 . S
H3274 C3280 0.949 . S
C3275 H3270 0.950 . S
C3275 C3277 1.327 . S
C3275 C3281 1.429 . S
C3276 C3268 1.574 1_565 S
C3276 H3271 0.949 . S
C3276 C3282 1.368 . S
C3277 C3261 1.349 . S
C3277 H3269 0.950 . S
C3277 C3275 1.327 . S
C3278 C3266 1.349 . S
C3278 H3272 0.950 . S
C3278 C3279 1.327 . S
C3279 H3273 0.950 . S
C3279 C3278 1.327 . S
C3279 C3283 1.429 . S
C3280 C3263 1.574 1_545 S
C3280 H3274 0.949 . S
C3280 C3284 1.368 . S
C3281 C3262 1.429 . S
C3281 C3275 1.429 . S
C3281 C3282 1.523 . S
C3282 C3263 1.368 . S
C3282 C3276 1.368 . S
C3282 C3281 1.523 . S
C3283 C3267 1.429 . S
C3283 C3279 1.429 . S
C3283 C3284 1.523 . S
C3284 C3268 1.368 . S
C3284 C3280 1.368 . S
C3284 C3283 1.523 . S
H3285 C3260 0.950 . S
H3286 C3262 0.950 . S
H3287 C3263 0.949 . S
H3288 C3265 0.950 . S
H3289 C3267 0.950 . S
C3290 C3291 1.349 . S
C3290 C3292 1.327 1_556 S
C3290 H3315 0.950 1_556 S
C3291 C3290 1.349 . S
C3291 C3307 1.349 . S
C3292 C3290 1.327 1_554 S
C3292 C3311 1.429 1_554 S
C3292 H3316 0.950 . S
C3293 C3310 1.574 . S
C3293 C3312 1.368 . S
C3293 H3317 0.949 . S
H3294 C3298 0.949 . S
C3295 C3296 1.349 . S
C3295 C3297 1.327 1_554 S
C3295 H3318 0.950 1_554 S
C3296 C3295 1.349 . S
C3296 C3308 1.349 . S
C3297 C3295 1.327 1_556 S
C3297 C3313 1.429 1_556 S
C3297 H3319 0.950 . S
C3298 H3294 0.949 . S
C3298 C3306 1.574 . S
C3298 C3314 1.368 . S
H3299 C3307 0.950 . S
H3300 C3305 0.950 . S
H3301 C3306 0.949 . S
H3302 C3308 0.950 . S
H3303 C3309 0.950 . S
H3304 C3310 0.949 . S
C3305 H3300 0.950 . S
C3305 C3307 1.327 . S
C3305 C3311 1.429 . S
C3306 C3298 1.574 . S
C3306 H3301 0.949 . S
C3306 C3312 1.368 1_554 S
C3307 C3291 1.349 . S
C3307 H3299 0.950 . S
C3307 C3305 1.327 . S
C3308 C3296 1.349 . S
C3308 H3302 0.950 . S
C3308 C3309 1.327 . S
C3309 H3303 0.950 . S
C3309 C3308 1.327 . S
C3309 C3313 1.429 . S
C3310 C3293 1.574 . S
C3310 H3304 0.949 . S
C3310 C3314 1.368 1_556 S
C3311 C3292 1.429 1_556 S
C3311 C3305 1.429 . S
C3311 C3312 1.523 . S
C3312 C3293 1.368 . S
C3312 C3306 1.368 1_556 S
C3312 C3311 1.523 . S
C3313 C3297 1.429 1_554 S
C3313 C3309 1.429 . S
C3313 C3314 1.523 . S
C3314 C3298 1.368 . S
C3314 C3310 1.368 1_554 S
C3314 C3313 1.523 . S
H3315 C3290 0.950 1_554 S
H3316 C3292 0.950 . S
H3317 C3293 0.949 . S
H3318 C3295 0.950 1_556 S
H3319 C3297 0.950 . S
C3320 C3321 1.349 . S
C3320 C3322 1.327 . S
C3320 H3345 0.950 . S
C3321 C3320 1.349 . S
C3321 C3337 1.349 . S
C3322 C3320 1.327 . S
C3322 C3341 1.429 . S
C3322 H3346 0.950 . S
C3323 C3340 1.574 1_545 S
C3323 C3342 1.368 . S
C3323 H3347 0.949 . S
H3324 C3328 0.949 . S
C3325 C3326 1.349 . S
C3325 C3327 1.327 . S
C3325 H3348 0.950 . S
C3326 C3325 1.349 . S
C3326 C3338 1.349 . S
C3327 C3325 1.327 . S
C3327 C3343 1.429 . S
C3327 H3349 0.950 . S
C3328 H3324 0.949 . S
C3328 C3336 1.574 1_565 S
C3328 C3344 1.368 . S
H3329 C3337 0.950 . S
H3330 C3335 0.950 . S
H3331 C3336 0.949 . S
H3332 C3338 0.950 . S
H3333 C3339 0.950 . S
H3334 C3340 0.949 . S
C3335 H3330 0.950 . S
C3335 C3337 1.327 . S
C3335 C3341 1.429 . S
C3336 C3328 1.574 1_545 S
C3336 H3331 0.949 . S
C3336 C3342 1.368 . S
C3337 C3321 1.349 . S
C3337 H3329 0.950 . S
C3337 C3335 1.327 . S
C3338 C3326 1.349 . S
C3338 H3332 0.950 . S
C3338 C3339 1.327 . S
C3339 H3333 0.950 . S
C3339 C3338 1.327 . S
C3339 C3343 1.429 . S
C3340 C3323 1.574 1_565 S
C3340 H3334 0.949 . S
C3340 C3344 1.368 . S
C3341 C3322 1.429 . S
C3341 C3335 1.429 . S
C3341 C3342 1.523 . S
C3342 C3323 1.368 . S
C3342 C3336 1.368 . S
C3342 C3341 1.523 . S
C3343 C3327 1.429 . S
C3343 C3339 1.429 . S
C3343 C3344 1.523 . S
C3344 C3328 1.368 . S
C3344 C3340 1.368 . S
C3344 C3343 1.523 . S
H3345 C3320 0.950 . S
H3346 C3322 0.950 . S
H3347 C3323 0.949 . S
H3348 C3325 0.950 . S
H3349 C3327 0.950 . S
C3350 C3351 1.349 . S
C3350 C3352 1.327 . S
C3350 H3375 0.950 . S
C3351 C3350 1.349 . S
C3351 C3367 1.349 . S
C3352 C3350 1.327 . S
C3352 C3371 1.429 . S
C3352 H3376 0.950 . S
C3353 C3370 1.574 . S
C3353 C3372 1.368 . S
C3353 H3377 0.949 . S
H3354 C3358 0.949 . S
C3355 C3356 1.349 . S
C3355 C3357 1.327 . S
C3355 H3378 0.950 . S
C3356 C3355 1.349 . S
C3356 C3368 1.349 . S
C3357 C3355 1.327 . S
C3357 C3373 1.429 . S
C3357 H3379 0.950 . S
C3358 H3354 0.949 . S
C3358 C3366 1.574 . S
C3358 C3374 1.368 . S
H3359 C3367 0.950 . S
H3360 C3365 0.950 . S
H3361 C3366 0.949 . S
H3362 C3368 0.950 . S
H3363 C3369 0.950 . S
H3364 C3370 0.949 . S
C3365 H3360 0.950 . S
C3365 C3367 1.327 . S
C3365 C3371 1.429 . S
C3366 C3358 1.574 . S
C3366 H3361 0.949 . S
C3366 C3372 1.368 . S
C3367 C3351 1.349 . S
C3367 H3359 0.950 . S
C3367 C3365 1.327 . S
C3368 C3356 1.349 . S
C3368 H3362 0.950 . S
C3368 C3369 1.327 . S
C3369 H3363 0.950 . S
C3369 C3368 1.327 . S
C3369 C3373 1.429 . S
C3370 C3353 1.574 . S
C3370 H3364 0.949 . S
C3370 C3374 1.368 . S
C3371 C3352 1.429 . S
C3371 C3365 1.429 . S
C3371 C3372 1.523 . S
C3372 C3353 1.368 . S
C3372 C3366 1.368 . S
C3372 C3371 1.523 . S
C3373 C3357 1.429 . S
C3373 C3369 1.429 . S
C3373 C3374 1.523 . S
C3374 C3358 1.368 . S
C3374 C3370 1.368 . S
C3374 C3373 1.523 . S
H3375 C3350 0.950 . S
H3376 C3352 0.950 . S
H3377 C3353 0.949 . S
H3378 C3355 0.950 . S
H3379 C3357 0.950 . S
C3380 C3381 1.349 . S
C3380 C3382 1.327 . S
C3380 H3405 0.950 . S
C3381 C3380 1.349 . S
C3381 C3397 1.349 . S
C3382 C3380 1.327 . S
C3382 C3401 1.429 . S
C3382 H3406 0.950 . S
C3383 C3400 1.574 1_545 S
C3383 C3402 1.368 . S
C3383 H3407 0.949 . S
H3384 C3388 0.949 . S
C3385 C3386 1.349 . S
C3385 C3387 1.327 . S
C3385 H3408 0.950 . S
C3386 C3385 1.349 . S
C3386 C3398 1.349 . S
C3387 C3385 1.327 . S
C3387 C3403 1.429 . S
C3387 H3409 0.950 . S
C3388 H3384 0.949 . S
C3388 C3396 1.574 1_565 S
C3388 C3404 1.368 . S
H3389 C3397 0.950 . S
H3390 C3395 0.950 . S
H3391 C3396 0.949 . S
H3392 C3398 0.950 . S
H3393 C3399 0.950 . S
H3394 C3400 0.949 . S
C3395 H3390 0.950 . S
C3395 C3397 1.327 . S
C3395 C3401 1.429 . S
C3396 C3388 1.574 1_545 S
C3396 H3391 0.949 . S
C3396 C3402 1.368 . S
C3397 C3381 1.349 . S
C3397 H3389 0.950 . S
C3397 C3395 1.327 . S
C3398 C3386 1.349 . S
C3398 H3392 0.950 . S
C3398 C3399 1.327 . S
C3399 H3393 0.950 . S
C3399 C3398 1.327 . S
C3399 C3403 1.429 . S
C3400 C3383 1.574 1_565 S
C3400 H3394 0.949 . S
C3400 C3404 1.368 . S
C3401 C3382 1.429 . S
C3401 C3395 1.429 . S
C3401 C3402 1.523 . S
C3402 C3383 1.368 . S
C3402 C3396 1.368 . S
C3402 C3401 1.523 . S
C3403 C3387 1.429 . S
C3403 C3399 1.429 . S
C3403 C3404 1.523 . S
C3404 C3388 1.368 . S
C3404 C3400 1.368 . S
C3404 C3403 1.523 . S
H3405 C3380 0.950 . S
H3406 C3382 0.950 . S
H3407 C3383 0.949 . S
H3408 C3385 0.950 . S
H3409 C3387 0.950 . S
C3410 C3411 1.349 . S
C3410 C3412 1.327 . S
C3410 H3435 0.950 . S
C3411 C3410 1.349 . S
C3411 C3427 1.349 . S
C3412 C3410 1.327 . S
C3412 C3431 1.429 . S
C3412 H3436 0.950 . S
C3413 C3430 1.574 . S
C3413 C3432 1.368 1_554 S
C3413 H3437 0.949 . S
H3414 C3418 0.949 . S
C3415 C3416 1.349 . S
C3415 C3417 1.327 . S
C3415 H3438 0.950 . S
C3416 C3415 1.349 . S
C3416 C3428 1.349 . S
C3417 C3415 1.327 . S
C3417 C3433 1.429 . S
C3417 H3439 0.950 . S
C3418 H3414 0.949 . S
C3418 C3426 1.574 . S
C3418 C3434 1.368 1_556 S
H3419 C3427 0.950 1_554 S
H3420 C3425 0.950 . S
H3421 C3426 0.949 . S
H3422 C3428 0.950 1_556 S
H3423 C3429 0.950 . S
H3424 C3430 0.949 . S
C3425 H3420 0.950 . S
C3425 C3427 1.327 1_554 S
C3425 C3431 1.429 1_554 S
C3426 C3418 1.574 . S
C3426 H3421 0.949 . S
C3426 C3432 1.368 . S
C3427 C3411 1.349 . S
C3427 H3419 0.950 1_556 S
C3427 C3425 1.327 1_556 S
C3428 C3416 1.349 . S
C3428 H3422 0.950 1_554 S
C3428 C3429 1.327 1_554 S
C3429 H3423 0.950 . S
C3429 C3428 1.327 1_556 S
C3429 C3433 1.429 1_556 S
C3430 C3413 1.574 . S
C3430 H3424 0.949 . S
C3430 C3434 1.368 . S
C3431 C3412 1.429 . S
C3431 C3425 1.429 1_556 S
C3431 C3432 1.523 . S
C3432 C3413 1.368 1_556 S
C3432 C3426 1.368 . S
C3432 C3431 1.523 . S
C3433 C3417 1.429 . S
C3433 C3429 1.429 1_554 S
C3433 C3434 1.523 . S
C3434 C3418 1.368 1_554 S
C3434 C3430 1.368 . S
C3434 C3433 1.523 . S
H3435 C3410 0.950 . S
H3436 C3412 0.950 . S
H3437 C3413 0.949 . S
H3438 C3415 0.950 . S
H3439 C3417 0.950 . S
C3440 C3441 1.349 . S
C3440 C3442 1.327 . S
C3440 H3465 0.950 . S
C3441 C3440 1.349 . S
C3441 C3457 1.349 . S
C3442 C3440 1.327 . S
C3442 C3461 1.429 . S
C3442 H3466 0.950 . S
C3443 C3460 1.574 . S
C3443 C3462 1.368 . S
C3443 H3467 0.949 . S
H3444 C3448 0.949 . S
C3445 C3446 1.349 . S
C3445 C3447 1.327 . S
C3445 H3468 0.950 . S
C3446 C3445 1.349 . S
C3446 C3458 1.349 . S
C3447 C3445 1.327 . S
C3447 C3463 1.429 . S
C3447 H3469 0.950 . S
C3448 H3444 0.949 . S
C3448 C3456 1.574 . S
C3448 C3464 1.368 . S
H3449 C3457 0.950 . S
H3450 C3455 0.950 . S
H3451 C3456 0.949 . S
H3452 C3458 0.950 . S
H3453 C3459 0.950 . S
H3454 C3460 0.949 . S
C3455 H3450 0.950 . S
C3455 C3457 1.327 . S
C3455 C3461 1.429 . S
C3456 C3448 1.574 . S
C3456 H3451 0.949 . S
C3456 C3462 1.368 . S
C3457 C3441 1.349 . S
C3457 H3449 0.950 . S
C3457 C3455 1.327 . S
C3458 C3446 1.349 . S
C3458 H3452 0.950 . S
C3458 C3459 1.327 . S
C3459 H3453 0.950 . S
C3459 C3458 1.327 . S
C3459 C3463 1.429 . S
C3460 C3443 1.574 . S
C3460 H3454 0.949 . S
C3460 C3464 1.368 . S
C3461 C3442 1.429 . S
C3461 C3455 1.429 . S
C3461 C3462 1.523 . S
C3462 C3443 1.368 . S
C3462 C3456 1.368 . S
C3462 C3461 1.523 . S
C3463 C3447 1.429 . S
C3463 C3459 1.429 . S
C3463 C3464 1.523 . S
C3464 C3448 1.368 . S
C3464 C3460 1.368 . S
C3464 C3463 1.523 . S
H3465 C3440 0.950 . S
H3466 C3442 0.950 . S
H3467 C3443 0.949 . S
H3468 C3445 0.950 . S
H3469 C3447 0.950 . S
C3470 C3471 1.349 . S
C3470 C3472 1.327 . S
C3470 H3495 0.950 . S
C3471 C3470 1.349 . S
C3471 C3487 1.349 . S
C3472 C3470 1.327 . S
C3472 C3491 1.429 . S
C3472 H3496 0.950 . S
C3473 C3490 1.574 . S
C3473 C3492 1.368 1_554 S
C3473 H3497 0.949 . S
H3474 C3478 0.949 . S
C3475 C3476 1.349 . S
C3475 C3477 1.327 . S
C3475 H3498 0.950 . S
C3476 C3475 1.349 . S
C3476 C3488 1.349 . S
C3477 C3475 1.327 . S
C3477 C3493 1.429 . S
C3477 H3499 0.950 . S
C3478 H3474 0.949 . S
C3478 C3486 1.574 . S
C3478 C3494 1.368 1_556 S
H3479 C3487 0.950 1_554 S
H3480 C3485 0.950 . S
H3481 C3486 0.949 . S
H3482 C3488 0.950 1_556 S
H3483 C3489 0.950 . S
H3484 C3490 0.949 . S
C3485 H3480 0.950 . S
C3485 C3487 1.327 1_554 S
C3485 C3491 1.429 1_554 S
C3486 C3478 1.574 . S
C3486 H3481 0.949 . S
C3486 C3492 1.368 . S
C3487 C3471 1.349 . S
C3487 H3479 0.950 1_556 S
C3487 C3485 1.327 1_556 S
C3488 C3476 1.349 . S
C3488 H3482 0.950 1_554 S
C3488 C3489 1.327 1_554 S
C3489 H3483 0.950 . S
C3489 C3488 1.327 1_556 S
C3489 C3493 1.429 1_556 S
C3490 C3473 1.574 . S
C3490 H3484 0.949 . S
C3490 C3494 1.368 . S
C3491 C3472 1.429 . S
C3491 C3485 1.429 1_556 S
C3491 C3492 1.523 . S
C3492 C3473 1.368 1_556 S
C3492 C3486 1.368 . S
C3492 C3491 1.523 . S
C3493 C3477 1.429 . S
C3493 C3489 1.429 1_554 S
C3493 C3494 1.523 . S
C3494 C3478 1.368 1_554 S
C3494 C3490 1.368 . S
C3494 C3493 1.523 . S
H3495 C3470 0.950 . S
H3496 C3472 0.950 . S
H3497 C3473 0.949 . S
H3498 C3475 0.950 . S
H3499 C3477 0.950 . S
C3500 C3501 1.349 . S
C3500 C3502 1.327 . S
C3500 H3525 0.950 . S
C3501 C3500 1.349 . S
C3501 C3517 1.349 . S
C3502 C3500 1.327 . S
C3502 C3521 1.429 . S
C3502 H3526 0.950 . S
C3503 C3520 1.574 . S
C3503 C3522 1.368 . S
C3503 H3527 0.949 . S
H3504 C3508 0.949 . S
C3505 C3506 1.349 . S
C3505 C3507 1.327 . S
C3505 H3528 0.950 . S
C3506 C3505 1.349 . S
C3506 C3518 1.349 . S
C3507 C3505 1.327 . S
C3507 C3523 1.429 . S
C3507 H3529 0.950 . S
C3508 H3504 0.949 . S
C3508 C3516 1.574 . S
C3508 C3524 1.368 . S
H3509 C3517 0.950 . S
H3510 C3515 0.950 . S
H3511 C3516 0.949 . S
H3512 C3518 0.950 . S
H3513 C3519 0.950 . S
H3514 C3520 0.949 . S
C3515 H3510 0.950 . S
C3515 C3517 1.327 . S
C3515 C3521 1.429 . S
C3516 C3508 1.574 . S
C3516 H3511 0.949 . S
C3516 C3522 1.368 . S
C3517 C3501 1.349 . S
C3517 H3509 0.950 . S
C3517 C3515 1.327 . S
C3518 C3506 1.349 . S
C3518 H3512 0.950 . S
C3518 C3519 1.327 . S
C3519 H3513 0.950 . S
C3519 C3518 1.327 . S
C3519 C3523 1.429 . S
C3520 C3503 1.574 . S
C3520 H3514 0.949 . S
C3520 C3524 1.368 . S
C3521 C3502 1.429 . S
C3521 C3515 1.429 . S
C3521 C3522 1.523 . S
C3522 C3503 1.368 . S
C3522 C3516 1.368 . S
C3522 C3521 1.523 . S
C3523 C3507 1.429 . S
C3523 C3519 1.429 . S
C3523 C3524 1.523 . S
C3524 C3508 1.368 . S
C3524 C3520 1.368 . S
C3524 C3523 1.523 . S
H3525 C3500 0.950 . S
H3526 C3502 0.950 . S
H3527 C3503 0.949 . S
H3528 C3505 0.950 . S
H3529 C3507 0.950 . S
C3530 C3531 1.349 . S
C3530 C3532 1.327 . S
C3530 H3555 0.950 . S
C3531 C3530 1.349 . S
C3531 C3547 1.349 . S
C3532 C3530 1.327 . S
C3532 C3551 1.429 . S
C3532 H3556 0.950 . S
C3533 C3550 1.574 . S
C3533 C3552 1.368 . S
C3533 H3557 0.949 . S
H3534 C3538 0.949 . S
C3535 C3536 1.349 . S
C3535 C3537 1.327 . S
C3535 H3558 0.950 . S
C3536 C3535 1.349 . S
C3536 C3548 1.349 . S
C3537 C3535 1.327 . S
C3537 C3553 1.429 . S
C3537 H3559 0.950 . S
C3538 H3534 0.949 . S
C3538 C3546 1.574 . S
C3538 C3554 1.368 . S
H3539 C3547 0.950 . S
H3540 C3545 0.950 . S
H3541 C3546 0.949 . S
H3542 C3548 0.950 . S
H3543 C3549 0.950 . S
H3544 C3550 0.949 . S
C3545 H3540 0.950 . S
C3545 C3547 1.327 . S
C3545 C3551 1.429 . S
C3546 C3538 1.574 . S
C3546 H3541 0.949 . S
C3546 C3552 1.368 . S
C3547 C3531 1.349 . S
C3547 H3539 0.950 . S
C3547 C3545 1.327 . S
C3548 C3536 1.349 . S
C3548 H3542 0.950 . S
C3548 C3549 1.327 . S
C3549 H3543 0.950 . S
C3549 C3548 1.327 . S
C3549 C3553 1.429 . S
C3550 C3533 1.574 . S
C3550 H3544 0.949 . S
C3550 C3554 1.368 . S
C3551 C3532 1.429 . S
C3551 C3545 1.429 . S
C3551 C3552 1.523 . S
C3552 C3533 1.368 . S
C3552 C3546 1.368 . S
C3552 C3551 1.523 . S
C3553 C3537 1.429 . S
C3553 C3549 1.429 . S
C3553 C3554 1.523 . S
C3554 C3538 1.368 . S
C3554 C3550 1.368 . S
C3554 C3553 1.523 . S
H3555 C3530 0.950 . S
H3556 C3532 0.950 . S
H3557 C3533 0.949 . S
H3558 C3535 0.950 . S
H3559 C3537 0.950 . S
C3560 C3561 1.349 . S
C3560 C3562 1.327 . S
C3560 H3585 0.950 . S
C3561 C3560 1.349 . S
C3561 C3577 1.349 . S
C3562 C3560 1.327 . S
C3562 C3581 1.429 . S
C3562 H3586 0.950 . S
C3563 C3580 1.574 . S
C3563 C3582 1.368 . S
C3563 H3587 0.949 . S
H3564 C3568 0.949 . S
C3565 C3566 1.349 . S
C3565 C3567 1.327 . S
C3565 H3588 0.950 . S
C3566 C3565 1.349 . S
C3566 C3578 1.349 . S
C3567 C3565 1.327 . S
C3567 C3583 1.429 . S
C3567 H3589 0.950 . S
C3568 H3564 0.949 . S
C3568 C3576 1.574 . S
C3568 C3584 1.368 . S
H3569 C3577 0.950 . S
H3570 C3575 0.950 . S
H3571 C3576 0.949 . S
H3572 C3578 0.950 . S
H3573 C3579 0.950 . S
H3574 C3580 0.949 . S
C3575 H3570 0.950 . S
C3575 C3577 1.327 . S
C3575 C3581 1.429 . S
C3576 C3568 1.574 . S
C3576 H3571 0.949 . S
C3576 C3582 1.368 . S
C3577 C3561 1.349 . S
C3577 H3569 0.950 . S
C3577 C3575 1.327 . S
C3578 C3566 1.349 . S
C3578 H3572 0.950 . S
C3578 C3579 1.327 . S
C3579 H3573 0.950 . S
C3579 C3578 1.327 . S
C3579 C3583 1.429 . S
C3580 C3563 1.574 . S
C3580 H3574 0.949 . S
C3580 C3584 1.368 . S
C3581 C3562 1.429 . S
C3581 C3575 1.429 . S
C3581 C3582 1.523 . S
C3582 C3563 1.368 . S
C3582 C3576 1.368 . S
C3582 C3581 1.523 . S
C3583 C3567 1.429 . S
C3583 C3579 1.429 . S
C3583 C3584 1.523 . S
C3584 C3568 1.368 . S
C3584 C3580 1.368 . S
C3584 C3583 1.523 . S
H3585 C3560 0.950 . S
H3586 C3562 0.950 . S
H3587 C3563 0.949 . S
H3588 C3565 0.950 . S
H3589 C3567 0.950 . S
C3590 C3591 1.349 . S
C3590 C3592 1.327 . S
C3590 H3615 0.950 . S
C3591 C3590 1.349 . S
C3591 C3607 1.349 . S
C3592 C3590 1.327 . S
C3592 C3611 1.429 . S
C3592 H3616 0.950 . S
C3593 C3610 1.574 . S
C3593 C3612 1.368 1_554 S
C3593 H3617 0.949 . S
H3594 C3598 0.949 . S
C3595 C3596 1.349 . S
C3595 C3597 1.327 . S
C3595 H3618 0.950 . S
C3596 C3595 1.349 . S
C3596 C3608 1.349 . S
C3597 C3595 1.327 . S
C3597 C3613 1.429 . S
C3597 H3619 0.950 . S
C3598 H3594 0.949 . S
C3598 C3606 1.574 . S
C3598 C3614 1.368 1_556 S
H3599 C3607 0.950 1_554 S
H3600 C3605 0.950 . S
H3601 C3606 0.949 . S
H3602 C3608 0.950 1_556 S
H3603 C3609 0.950 . S
H3604 C3610 0.949 . S
C3605 H3600 0.950 . S
C3605 C3607 1.327 1_554 S
C3605 C3611 1.429 1_554 S
C3606 C3598 1.574 . S
C3606 H3601 0.949 . S
C3606 C3612 1.368 . S
C3607 C3591 1.349 . S
C3607 H3599 0.950 1_556 S
C3607 C3605 1.327 1_556 S
C3608 C3596 1.349 . S
C3608 H3602 0.950 1_554 S
C3608 C3609 1.327 1_554 S
C3609 H3603 0.950 . S
C3609 C3608 1.327 1_556 S
C3609 C3613 1.429 1_556 S
C3610 C3593 1.574 . S
C3610 H3604 0.949 . S
C3610 C3614 1.368 . S
C3611 C3592 1.429 . S
C3611 C3605 1.429 1_556 S
C3611 C3612 1.523 . S
C3612 C3593 1.368 1_556 S
C3612 C3606 1.368 . S
C3612 C3611 1.523 . S
C3613 C3597 1.429 . S
C3613 C3609 1.429 1_554 S
C3613 C3614 1.523 . S
C3614 C3598 1.368 1_554 S
C3614 C3610 1.368 . S
C3614 C3613 1.523 . S
H3615 C3590 0.950 . S
H3616 C3592 0.950 . S
H3617 C3593 0.949 . S
H3618 C3595 0.950 . S
H3619 C3597 0.950 . S
C3620 C3621 1.349 . S
C3620 C3622 1.327 . S
C3620 H3645 0.950 . S
C3621 C3620 1.349 . S
C3621 C3637 1.349 . S
C3622 C3620 1.327 . S
C3622 C3641 1.429 . S
C3622 H3646 0.950 . S
C3623 C3640 1.574 . S
C3623 C3642 1.368 . S
C3623 H3647 0.949 . S
H3624 C3628 0.949 . S
C3625 C3626 1.349 . S
C3625 C3627 1.327 . S
C3625 H3648 0.950 . S
C3626 C3625 1.349 . S
C3626 C3638 1.349 . S
C3627 C3625 1.327 . S
C3627 C3643 1.429 . S
C3627 H3649 0.950 . S
C3628 H3624 0.949 . S
C3628 C3636 1.574 . S
C3628 C3644 1.368 . S
H3629 C3637 0.950 . S
H3630 C3635 0.950 . S
H3631 C3636 0.949 . S
H3632 C3638 0.950 . S
H3633 C3639 0.950 . S
H3634 C3640 0.949 . S
C3635 H3630 0.950 . S
C3635 C3637 1.327 . S
C3635 C3641 1.429 . S
C3636 C3628 1.574 . S
C3636 H3631 0.949 . S
C3636 C3642 1.368 . S
C3637 C3621 1.349 . S
C3637 H3629 0.950 . S
C3637 C3635 1.327 . S
C3638 C3626 1.349 . S
C3638 H3632 0.950 . S
C3638 C3639 1.327 . S
C3639 H3633 0.950 . S
C3639 C3638 1.327 . S
C3639 C3643 1.429 . S
C3640 C3623 1.574 . S
C3640 H3634 0.949 . S
C3640 C3644 1.368 . S
C3641 C3622 1.429 . S
C3641 C3635 1.429 . S
C3641 C3642 1.523 . S
C3642 C3623 1.368 . S
C3642 C3636 1.368 . S
C3642 C3641 1.523 . S
C3643 C3627 1.429 . S
C3643 C3639 1.429 . S
C3643 C3644 1.523 . S
C3644 C3628 1.368 . S
C3644 C3640 1.368 . S
C3644 C3643 1.523 . S
H3645 C3620 0.950 . S
H3646 C3622 0.950 . S
H3647 C3623 0.949 . S
H3648 C3625 0.950 . S
H3649 C3627 0.950 . S
C3650 C3651 1.349 . S
C3650 C3652 1.327 . S
C3650 H3675 0.950 . S
C3651 C3650 1.349 . S
C3651 C3667 1.349 . S
C3652 C3650 1.327 . S
C3652 C3671 1.429 . S
C3652 H3676 0.950 . S
C3653 C3670 1.574 . S
C3653 C3672 1.368 . S
C3653 H3677 0.949 . S
H3654 C3658 0.949 . S
C3655 C3656 1.349 . S
C3655 C3657 1.327 . S
C3655 H3678 0.950 . S
C3656 C3655 1.349 . S
C3656 C3668 1.349 . S
C3657 C3655 1.327 . S
C3657 C3673 1.429 . S
C3657 H3679 0.950 . S
C3658 H3654 0.949 . S
C3658 C3666 1.574 . S
C3658 C3674 1.368 . S
H3659 C3667 0.950 . S
H3660 C3665 0.950 . S
H3661 C3666 0.949 . S
H3662 C3668 0.950 . S
H3663 C3669 0.950 . S
H3664 C3670 0.949 . S
C3665 H3660 0.950 . S
C3665 C3667 1.327 . S
C3665 C3671 1.429 . S
C3666 C3658 1.574 . S
C3666 H3661 0.949 . S
C3666 C3672 1.368 . S
C3667 C3651 1.349 . S
C3667 H3659 0.950 . S
C3667 C3665 1.327 . S
C3668 C3656 1.349 . S
C3668 H3662 0.950 . S
C3668 C3669 1.327 . S
C3669 H3663 0.950 . S
C3669 C3668 1.327 . S
C3669 C3673 1.429 . S
C3670 C3653 1.574 . S
C3670 H3664 0.949 . S
C3670 C3674 1.368 . S
C3671 C3652 1.429 . S
C3671 C3665 1.429 . S
C3671 C3672 1.523 . S
C3672 C3653 1.368 . S
C3672 C3666 1.368 . S
C3672 C3671 1.523 . S
C3673 C3657 1.429 . S
C3673 C3669 1.429 . S
C3673 C3674 1.523 . S
C3674 C3658 1.368 . S
C3674 C3670 1.368 . S
C3674 C3673 1.523 . S
H3675 C3650 0.950 . S
H3676 C3652 0.950 . S
H3677 C3653 0.949 . S
H3678 C3655 0.950 . S
H3679 C3657 0.950 . S
C3680 C3681 1.349 . S
C3680 C3682 1.327 . S
C3680 H3705 0.950 . S
C3681 C3680 1.349 . S
C3681 C3697 1.349 . S
C3682 C3680 1.327 . S
C3682 C3701 1.429 . S
C3682 H3706 0.950 . S
C3683 C3700 1.574 . S
C3683 C3702 1.368 . S
C3683 H3707 0.949 . S
H3684 C3688 0.949 . S
C3685 C3686 1.349 . S
C3685 C3687 1.327 . S
C3685 H3708 0.950 . S
C3686 C3685 1.349 . S
C3686 C3698 1.349 . S
C3687 C3685 1.327 . S
C3687 C3703 1.429 . S
C3687 H3709 0.950 . S
C3688 H3684 0.949 . S
C3688 C3696 1.574 . S
C3688 C3704 1.368 . S
H3689 C3697 0.950 . S
H3690 C3695 0.950 . S
H3691 C3696 0.949 . S
H3692 C3698 0.950 . S
H3693 C3699 0.950 . S
H3694 C3700 0.949 . S
C3695 H3690 0.950 . S
C3695 C3697 1.327 . S
C3695 C3701 1.429 . S
C3696 C3688 1.574 . S
C3696 H3691 0.949 . S
C3696 C3702 1.368 . S
C3697 C3681 1.349 . S
C3697 H3689 0.950 . S
C3697 C3695 1.327 . S
C3698 C3686 1.349 . S
C3698 H3692 0.950 . S
C3698 C3699 1.327 . S
C3699 H3693 0.950 . S
C3699 C3698 1.327 . S
C3699 C3703 1.429 . S
C3700 C3683 1.574 . S
C3700 H3694 0.949 . S
C3700 C3704 1.368 . S
C3701 C3682 1.429 . S
C3701 C3695 1.429 . S
C3701 C3702 1.523 . S
C3702 C3683 1.368 . S
C3702 C3696 1.368 . S
C3702 C3701 1.523 . S
C3703 C3687 1.429 . S
C3703 C3699 1.429 . S
C3703 C3704 1.523 . S
C3704 C3688 1.368 . S
C3704 C3700 1.368 . S
C3704 C3703 1.523 . S
H3705 C3680 0.950 . S
H3706 C3682 0.950 . S
H3707 C3683 0.949 . S
H3708 C3685 0.950 . S
H3709 C3687 0.950 . S
C3710 C3711 1.349 . S
C3710 C3712 1.327 . S
C3710 H3735 0.950 . S
C3711 C3710 1.349 . S
C3711 C3727 1.349 . S
C3712 C3710 1.327 . S
C3712 C3731 1.429 . S
C3712 H3736 0.950 . S
C3713 C3730 1.574 . S
C3713 C3732 1.368 . S
C3713 H3737 0.949 . S
H3714 C3718 0.949 . S
C3715 C3716 1.349 . S
C3715 C3717 1.327 . S
C3715 H3738 0.950 . S
C3716 C3715 1.349 . S
C3716 C3728 1.349 . S
C3717 C3715 1.327 . S
C3717 C3733 1.429 . S
C3717 H3739 0.950 . S
C3718 H3714 0.949 . S
C3718 C3726 1.574 . S
C3718 C3734 1.368 . S
H3719 C3727 0.950 . S
H3720 C3725 0.950 . S
H3721 C3726 0.949 . S
H3722 C3728 0.950 . S
H3723 C3729 0.950 . S
H3724 C3730 0.949 . S
C3725 H3720 0.950 . S
C3725 C3727 1.327 . S
C3725 C3731 1.429 . S
C3726 C3718 1.574 . S
C3726 H3721 0.949 . S
C3726 C3732 1.368 . S
C3727 C3711 1.349 . S
C3727 H3719 0.950 . S
C3727 C3725 1.327 . S
C3728 C3716 1.349 . S
C3728 H3722 0.950 . S
C3728 C3729 1.327 . S
C3729 H3723 0.950 . S
C3729 C3728 1.327 . S
C3729 C3733 1.429 . S
C3730 C3713 1.574 . S
C3730 H3724 0.949 . S
C3730 C3734 1.368 . S
C3731 C3712 1.429 . S
C3731 C3725 1.429 . S
C3731 C3732 1.523 . S
C3732 C3713 1.368 . S
C3732 C3726 1.368 . S
C3732 C3731 1.523 . S
C3733 C3717 1.429 . S
C3733 C3729 1.429 . S
C3733 C3734 1.523 . S
C3734 C3718 1.368 . S
C3734 C3730 1.368 . S
C3734 C3733 1.523 . S
H3735 C3710 0.950 . S
H3736 C3712 0.950 . S
H3737 C3713 0.949 . S
H3738 C3715 0.950 . S
H3739 C3717 0.950 . S
C3740 C3741 1.349 . S
C3740 C3742 1.327 . S
C3740 H3765 0.950 . S
C3741 C3740 1.349 . S
C3741 C3757 1.349 . S
C3742 C3740 1.327 . S
C3742 C3761 1.429 . S
C3742 H3766 0.950 . S
C3743 C3760 1.574 . S
C3743 C3762 1.368 . S
C3743 H3767 0.949 . S
H3744 C3748 0.949 . S
C3745 C3746 1.349 . S
C3745 C3747 1.327 . S
C3745 H3768 0.950 . S
C3746 C3745 1.349 . S
C3746 C3758 1.349 . S
C3747 C3745 1.327 . S
C3747 C3763 1.429 . S
C3747 H3769 0.950 . S
C3748 H3744 0.949 . S
C3748 C3756 1.574 . S
C3748 C3764 1.368 . S
H3749 C3757 0.950 . S
H3750 C3755 0.950 . S
H3751 C3756 0.949 . S
H3752 C3758 0.950 . S
H3753 C3759 0.950 . S
H3754 C3760 0.949 . S
C3755 H3750 0.950 . S
C3755 C3757 1.327 . S
C3755 C3761 1.429 . S
C3756 C3748 1.574 . S
C3756 H3751 0.949 . S
C3756 C3762 1.368 . S
C3757 C3741 1.349 . S
C3757 H3749 0.950 . S
C3757 C3755 1.327 . S
C3758 C3746 1.349 . S
C3758 H3752 0.950 . S
C3758 C3759 1.327 . S
C3759 H3753 0.950 . S
C3759 C3758 1.327 . S
C3759 C3763 1.429 . S
C3760 C3743 1.574 . S
C3760 H3754 0.949 . S
C3760 C3764 1.368 . S
C3761 C3742 1.429 . S
C3761 C3755 1.429 . S
C3761 C3762 1.523 . S
C3762 C3743 1.368 . S
C3762 C3756 1.368 . S
C3762 C3761 1.523 . S
C3763 C3747 1.429 . S
C3763 C3759 1.429 . S
C3763 C3764 1.523 . S
C3764 C3748 1.368 . S
C3764 C3760 1.368 . S
C3764 C3763 1.523 . S
H3765 C3740 0.950 . S
H3766 C3742 0.950 . S
H3767 C3743 0.949 . S
H3768 C3745 0.950 . S
H3769 C3747 0.950 . S
C3770 C3771 1.349 . S
C3770 C3772 1.327 . S
C3770 H3795 0.950 . S
C3771 C3770 1.349 . S
C3771 C3787 1.349 . S
C3772 C3770 1.327 . S
C3772 C3791 1.429 . S
C3772 H3796 0.950 . S
C3773 C3790 1.574 . S
C3773 C3792 1.368 . S
C3773 H3797 0.949 . S
H3774 C3778 0.949 . S
C3775 C3776 1.349 . S
C3775 C3777 1.327 . S
C3775 H3798 0.950 . S
C3776 C3775 1.349 . S
C3776 C3788 1.349 . S
C3777 C3775 1.327 . S
C3777 C3793 1.429 . S
C3777 H3799 0.950 . S
C3778 H3774 0.949 . S
C3778 C3786 1.574 . S
C3778 C3794 1.368 . S
H3779 C3787 0.950 . S
H3780 C3785 0.950 . S
H3781 C3786 0.949 . S
H3782 C3788 0.950 . S
H3783 C3789 0.950 . S
H3784 C3790 0.949 . S
C3785 H3780 0.950 . S
C3785 C3787 1.327 . S
C3785 C3791 1.429 . S
C3786 C3778 1.574 . S
C3786 H3781 0.949 . S
C3786 C3792 1.368 . S
C3787 C3771 1.349 . S
C3787 H3779 0.950 . S
C3787 C3785 1.327 . S
C3788 C3776 1.349 . S
C3788 H3782 0.950 . S
C3788 C3789 1.327 . S
C3789 H3783 0.950 . S
C3789 C3788 1.327 . S
C3789 C3793 1.429 . S
C3790 C3773 1.574 . S
C3790 H3784 0.949 . S
C3790 C3794 1.368 . S
C3791 C3772 1.429 . S
C3791 C3785 1.429 . S
C3791 C3792 1.523 . S
C3792 C3773 1.368 . S
C3792 C3786 1.368 . S
C3792 C3791 1.523 . S
C3793 C3777 1.429 . S
C3793 C3789 1.429 . S
C3793 C3794 1.523 . S
C3794 C3778 1.368 . S
C3794 C3790 1.368 . S
C3794 C3793 1.523 . S
H3795 C3770 0.950 . S
H3796 C3772 0.950 . S
H3797 C3773 0.949 . S
H3798 C3775 0.950 . S
H3799 C3777 0.950 . S
C3800 C3801 1.349 . S
C3800 C3802 1.327 . S
C3800 H3825 0.950 . S
C3801 C3800 1.349 . S
C3801 C3817 1.349 . S
C3802 C3800 1.327 . S
C3802 C3821 1.429 . S
C3802 H3826 0.950 . S
C3803 C3820 1.574 . S
C3803 C3822 1.368 . S
C3803 H3827 0.949 . S
H3804 C3808 0.949 . S
C3805 C3806 1.349 . S
C3805 C3807 1.327 . S
C3805 H3828 0.950 . S
C3806 C3805 1.349 . S
C3806 C3818 1.349 . S
C3807 C3805 1.327 . S
C3807 C3823 1.429 . S
C3807 H3829 0.950 . S
C3808 H3804 0.949 . S
C3808 C3816 1.574 . S
C3808 C3824 1.368 . S
H3809 C3817 0.950 . S
H3810 C3815 0.950 . S
H3811 C3816 0.949 . S
H3812 C3818 0.950 . S
H3813 C3819 0.950 . S
H3814 C3820 0.949 . S
C3815 H3810 0.950 . S
C3815 C3817 1.327 . S
C3815 C3821 1.429 . S
C3816 C3808 1.574 . S
C3816 H3811 0.949 . S
C3816 C3822 1.368 . S
C3817 C3801 1.349 . S
C3817 H3809 0.950 . S
C3817 C3815 1.327 . S
C3818 C3806 1.349 . S
C3818 H3812 0.950 . S
C3818 C3819 1.327 . S
C3819 H3813 0.950 . S
C3819 C3818 1.327 . S
C3819 C3823 1.429 . S
C3820 C3803 1.574 . S
C3820 H3814 0.949 . S
C3820 C3824 1.368 . S
C3821 C3802 1.429 . S
C3821 C3815 1.429 . S
C3821 C3822 1.523 . S
C3822 C3803 1.368 . S
C3822 C3816 1.368 . S
C3822 C3821 1.523 . S
C3823 C3807 1.429 . S
C3823 C3819 1.429 . S
C3823 C3824 1.523 . S
C3824 C3808 1.368 . S
C3824 C3820 1.368 . S
C3824 C3823 1.523 . S
H3825 C3800 0.950 . S
H3826 C3802 0.950 . S
H3827 C3803 0.949 . S
H3828 C3805 0.950 . S
H3829 C3807 0.950 . S
C3830 C3831 1.349 . S
C3830 C3832 1.327 . S
C3830 H3855 0.950 . S
C3831 C3830 1.349 . S
C3831 C3847 1.349 . S
C3832 C3830 1.327 . S
C3832 C3851 1.429 . S
C3832 H3856 0.950 . S
C3833 C3850 1.574 . S
C3833 C3852 1.368 . S
C3833 H3857 0.949 . S
H3834 C3838 0.949 . S
C3835 C3836 1.349 . S
C3835 C3837 1.327 . S
C3835 H3858 0.950 . S
C3836 C3835 1.349 . S
C3836 C3848 1.349 . S
C3837 C3835 1.327 . S
C3837 C3853 1.429 . S
C3837 H3859 0.950 . S
C3838 H3834 0.949 . S
C3838 C3846 1.574 . S
C3838 C3854 1.368 . S
H3839 C3847 0.950 . S
H3840 C3845 0.950 . S
H3841 C3846 0.949 . S
H3842 C3848 0.950 . S
H3843 C3849 0.950 . S
H3844 C3850 0.949 . S
C3845 H3840 0.950 . S
C3845 C3847 1.327 . S
C3845 C3851 1.429 . S
C3846 C3838 1.574 . S
C3846 H3841 0.949 . S
C3846 C3852 1.368 . S
C3847 C3831 1.349 . S
C3847 H3839 0.950 . S
C3847 C3845 1.327 . S
C3848 C3836 1.349 . S
C3848 H3842 0.950 . S
C3848 C3849 1.327 . S
C3849 H3843 0.950 . S
C3849 C3848 1.327 . S
C3849 C3853 1.429 . S
C3850 C3833 1.574 . S
C3850 H3844 0.949 . S
C3850 C3854 1.368 . S
C3851 C3832 1.429 . S
C3851 C3845 1.429 . S
C3851 C3852 1.523 . S
C3852 C3833 1.368 . S
C3852 C3846 1.368 . S
C3852 C3851 1.523 . S
C3853 C3837 1.429 . S
C3853 C3849 1.429 . S
C3853 C3854 1.523 . S
C3854 C3838 1.368 . S
C3854 C3850 1.368 . S
C3854 C3853 1.523 . S
H3855 C3830 0.950 . S
H3856 C3832 0.950 . S
H3857 C3833 0.949 . S
H3858 C3835 0.950 . S
H3859 C3837 0.950 . S
C3860 C3861 1.349 . S
C3860 C3862 1.327 . S
C3860 H3885 0.950 . S
C3861 C3860 1.349 . S
C3861 C3877 1.349 . S
C3862 C3860 1.327 . S
C3862 C3881 1.429 . S
C3862 H3886 0.950 . S
C3863 C3880 1.574 . S
C3863 C3882 1.368 . S
C3863 H3887 0.949 . S
H3864 C3868 0.949 . S
C3865 C3866 1.349 . S
C3865 C3867 1.327 . S
C3865 H3888 0.950 . S
C3866 C3865 1.349 . S
C3866 C3878 1.349 . S
C3867 C3865 1.327 . S
C3867 C3883 1.429 . S
C3867 H3889 0.950 . S
C3868 H3864 0.949 . S
C3868 C3876 1.574 . S
C3868 C3884 1.368 . S
H3869 C3877 0.950 . S
H3870 C3875 0.950 . S
H3871 C3876 0.949 . S
H3872 C3878 0.950 . S
H3873 C3879 0.950 . S
H3874 C3880 0.949 . S
C3875 H3870 0.950 . S
C3875 C3877 1.327 . S
C3875 C3881 1.429 . S
C3876 C3868 1.574 . S
C3876 H3871 0.949 . S
C3876 C3882 1.368 . S
C3877 C3861 1.349 . S
C3877 H3869 0.950 . S
C3877 C3875 1.327 . S
C3878 C3866 1.349 . S
C3878 H3872 0.950 . S
C3878 C3879 1.327 . S
C3879 H3873 0.950 . S
C3879 C3878 1.327 . S
C3879 C3883 1.429 . S
C3880 C3863 1.574 . S
C3880 H3874 0.949 . S
C3880 C3884 1.368 . S
C3881 C3862 1.429 . S
C3881 C3875 1.429 . S
C3881 C3882 1.523 . S
C3882 C3863 1.368 . S
C3882 C3876 1.368 . S
C3882 C3881 1.523 . S
C3883 C3867 1.429 . S
C3883 C3879 1.429 . S
C3883 C3884 1.523 . S
C3884 C3868 1.368 . S
C3884 C3880 1.368 . S
C3884 C3883 1.523 . S
H3885 C3860 0.950 . S
H3886 C3862 0.950 . S
H3887 C3863 0.949 . S
H3888 C3865 0.950 . S
H3889 C3867 0.950 . S
C3890 C3891 1.349 . S
C3890 C3892 1.327 . S
C3890 H3915 0.950 . S
C3891 C3890 1.349 . S
C3891 C3907 1.349 . S
C3892 C3890 1.327 . S
C3892 C3911 1.429 . S
C3892 H3916 0.950 . S
C3893 C3910 1.574 . S
C3893 C3912 1.368 . S
C3893 H3917 0.949 . S
H3894 C3898 0.949 . S
C3895 C3896 1.349 . S
C3895 C3897 1.327 . S
C3895 H3918 0.950 . S
C3896 C3895 1.349 . S
C3896 C3908 1.349 . S
C3897 C3895 1.327 . S
C3897 C3913 1.429 . S
C3897 H3919 0.950 . S
C3898 H3894 0.949 . S
C3898 C3906 1.574 . S
C3898 C3914 1.368 . S
H3899 C3907 0.950 . S
H3900 C3905 0.950 . S
H3901 C3906 0.949 . S
H3902 C3908 0.950 . S
H3903 C3909 0.950 . S
H3904 C3910 0.949 . S
C3905 H3900 0.950 . S
C3905 C3907 1.327 . S
C3905 C3911 1.429 . S
C3906 C3898 1.574 . S
C3906 H3901 0.949 . S
C3906 C3912 1.368 . S
C3907 C3891 1.349 . S
C3907 H3899 0.950 . S
C3907 C3905 1.327 . S
C3908 C3896 1.349 . S
C3908 H3902 0.950 . S
C3908 C3909 1.327 . S
C3909 H3903 0.950 . S
C3909 C3908 1.327 . S
C3909 C3913 1.429 . S
C3910 C3893 1.574 . S
C3910 H3904 0.949 . S
C3910 C3914 1.368 . S
C3911 C3892 1.429 . S
C3911 C3905 1.429 . S
C3911 C3912 1.523 . S
C3912 C3893 1.368 . S
C3912 C3906 1.368 . S
C3912 C3911 1.523 . S
C3913 C3897 1.429 . S
C3913 C3909 1.429 . S
C3913 C3914 1.523 . S
C3914 C3898 1.368 . S
C3914 C3910 1.368 . S
C3914 C3913 1.523 . S
H3915 C3890 0.950 . S
H3916 C3892 0.950 . S
H3917 C3893 0.949 . S
H3918 C3895 0.950 . S
H3919 C3897 0.950 . S
C3920 C3921 1.349 . S
C3920 C3922 1.327 . S
C3920 H3945 0.950 . S
C3921 C3920 1.349 . S
C3921 C3937 1.349 . S
C3922 C3920 1.327 . S
C3922 C3941 1.429 . S
C3922 H3946 0.950 . S
C3923 C3940 1.574 . S
C3923 C3942 1.368 . S
C3923 H3947 0.949 . S
H3924 C3928 0.949 . S
C3925 C3926 1.349 . S
C3925 C3927 1.327 . S
C3925 H3948 0.950 . S
C3926 C3925 1.349 . S
C3926 C3938 1.349 . S
C3927 C3925 1.327 . S
C3927 C3943 1.429 . S
C3927 H3949 0.950 . S
C3928 H3924 0.949 . S
C3928 C3936 1.574 . S
C3928 C3944 1.368 . S
H3929 C3937 0.950 . S
H3930 C3935 0.950 . S
H3931 C3936 0.949 . S
H3932 C3938 0.950 . S
H3933 C3939 0.950 . S
H3934 C3940 0.949 . S
C3935 H3930 0.950 . S
C3935 C3937 1.327 . S
C3935 C3941 1.429 . S
C3936 C3928 1.574 . S
C3936 H3931 0.949 . S
C3936 C3942 1.368 . S
C3937 C3921 1.349 . S
C3937 H3929 0.950 . S
C3937 C3935 1.327 . S
C3938 C3926 1.349 . S
C3938 H3932 0.950 . S
C3938 C3939 1.327 . S
C3939 H3933 0.950 . S
C3939 C3938 1.327 . S
C3939 C3943 1.429 . S
C3940 C3923 1.574 . S
C3940 H3934 0.949 . S
C3940 C3944 1.368 . S
C3941 C3922 1.429 . S
C3941 C3935 1.429 . S
C3941 C3942 1.523 . S
C3942 C3923 1.368 . S
C3942 C3936 1.368 . S
C3942 C3941 1.523 . S
C3943 C3927 1.429 . S
C3943 C3939 1.429 . S
C3943 C3944 1.523 . S
C3944 C3928 1.368 . S
C3944 C3940 1.368 . S
C3944 C3943 1.523 . S
H3945 C3920 0.950 . S
H3946 C3922 0.950 . S
H3947 C3923 0.949 . S
H3948 C3925 0.950 . S
H3949 C3927 0.950 . S
C3950 C3951 1.349 . S
C3950 C3952 1.327 . S
C3950 H3975 0.950 . S
C3951 C3950 1.349 . S
C3951 C3967 1.349 . S
C3952 C3950 1.327 . S
C3952 C3971 1.429 . S
C3952 H3976 0.950 . S
C3953 C3970 1.574 . S
C3953 C3972 1.368 . S
C3953 H3977 0.949 . S
H3954 C3958 0.949 . S
C3955 C3956 1.349 . S
C3955 C3957 1.327 . S
C3955 H3978 0.950 . S
C3956 C3955 1.349 . S
C3956 C3968 1.349 . S
C3957 C3955 1.327 . S
C3957 C3973 1.429 . S
C3957 H3979 0.950 . S
C3958 H3954 0.949 . S
C3958 C3966 1.574 . S
C3958 C3974 1.368 . S
H3959 C3967 0.950 . S
H3960 C3965 0.950 . S
H3961 C3966 0.949 . S
H3962 C3968 0.950 . S
H3963 C3969 0.950 . S
H3964 C3970 0.949 . S
C3965 H3960 0.950 . S
C3965 C3967 1.327 . S
C3965 C3971 1.429 . S
C3966 C3958 1.574 . S
C3966 H3961 0.949 . S
C3966 C3972 1.368 . S
C3967 C3951 1.349 . S
C3967 H3959 0.950 . S
C3967 C3965 1.327 . S
C3968 C3956 1.349 . S
C3968 H3962 0.950 . S
C3968 C3969 1.327 . S
C3969 H3963 0.950 . S
C3969 C3968 1.327 . S
C3969 C3973 1.429 . S
C3970 C3953 1.574 . S
C3970 H3964 0.949 . S
C3970 C3974 1.368 . S
C3971 C3952 1.429 . S
C3971 C3965 1.429 . S
C3971 C3972 1.523 . S
C3972 C3953 1.368 . S
C3972 C3966 1.368 . S
C3972 C3971 1.523 . S
C3973 C3957 1.429 . S
C3973 C3969 1.429 . S
C3973 C3974 1.523 . S
C3974 C3958 1.368 . S
C3974 C3970 1.368 . S
C3974 C3973 1.523 . S
H3975 C3950 0.950 . S
H3976 C3952 0.950 . S
H3977 C3953 0.949 . S
H3978 C3955 0.950 . S
H3979 C3957 0.950 . S
C3980 C3981 1.349 . S
C3980 C3982 1.327 . S
C3980 H4005 0.950 . S
C3981 C3980 1.349 . S
C3981 C3997 1.349 . S
C3982 C3980 1.327 . S
C3982 C4001 1.429 . S
C3982 H4006 0.950 . S
C3983 C4000 1.574 . S
C3983 C4002 1.368 . S
C3983 H4007 0.949 . S
H3984 C3988 0.949 . S
C3985 C3986 1.349 . S
C3985 C3987 1.327 . S
C3985 H4008 0.950 . S
C3986 C3985 1.349 . S
C3986 C3998 1.349 . S
C3987 C3985 1.327 . S
C3987 C4003 1.429 . S
C3987 H4009 0.950 . S
C3988 H3984 0.949 . S
C3988 C3996 1.574 . S
C3988 C4004 1.368 . S
H3989 C3997 0.950 . S
H3990 C3995 0.950 . S
H3991 C3996 0.949 . S
H3992 C3998 0.950 . S
H3993 C3999 0.950 . S
H3994 C4000 0.949 . S
C3995 H3990 0.950 . S
C3995 C3997 1.327 . S
C3995 C4001 1.429 . S
C3996 C3988 1.574 . S
C3996 H3991 0.949 . S
C3996 C4002 1.368 . S
C3997 C3981 1.349 . S
C3997 H3989 0.950 . S
C3997 C3995 1.327 . S
C3998 C3986 1.349 . S
C3998 H3992 0.950 . S
C3998 C3999 1.327 . S
C3999 H3993 0.950 . S
C3999 C3998 1.327 . S
C3999 C4003 1.429 . S
C4000 C3983 1.574 . S
C4000 H3994 0.949 . S
C4000 C4004 1.368 . S
C4001 C3982 1.429 . S
C4001 C3995 1.429 . S
C4001 C4002 1.523 . S
C4002 C3983 1.368 . S
C4002 C3996 1.368 . S
C4002 C4001 1.523 . S
C4003 C3987 1.429 . S
C4003 C3999 1.429 . S
C4003 C4004 1.523 . S
C4004 C3988 1.368 . S
C4004 C4000 1.368 . S
C4004 C4003 1.523 . S
H4005 C3980 0.950 . S
H4006 C3982 0.950 . S
H4007 C3983 0.949 . S
H4008 C3985 0.950 . S
H4009 C3987 0.950 . S
C4010 C4011 1.349 . S
C4010 C4012 1.327 . S
C4010 H4035 0.950 . S
C4011 C4010 1.349 . S
C4011 C4027 1.349 . S
C4012 C4010 1.327 . S
C4012 C4031 1.429 . S
C4012 H4036 0.950 . S
C4013 C4030 1.574 . S
C4013 C4032 1.368 . S
C4013 H4037 0.949 . S
H4014 C4018 0.949 . S
C4015 C4016 1.349 . S
C4015 C4017 1.327 . S
C4015 H4038 0.950 . S
C4016 C4015 1.349 . S
C4016 C4028 1.349 . S
C4017 C4015 1.327 . S
C4017 C4033 1.429 . S
C4017 H4039 0.950 . S
C4018 H4014 0.949 . S
C4018 C4026 1.574 . S
C4018 C4034 1.368 . S
H4019 C4027 0.950 . S
H4020 C4025 0.950 . S
H4021 C4026 0.949 . S
H4022 C4028 0.950 . S
H4023 C4029 0.950 . S
H4024 C4030 0.949 . S
C4025 H4020 0.950 . S
C4025 C4027 1.327 . S
C4025 C4031 1.429 . S
C4026 C4018 1.574 . S
C4026 H4021 0.949 . S
C4026 C4032 1.368 . S
C4027 C4011 1.349 . S
C4027 H4019 0.950 . S
C4027 C4025 1.327 . S
C4028 C4016 1.349 . S
C4028 H4022 0.950 . S
C4028 C4029 1.327 . S
C4029 H4023 0.950 . S
C4029 C4028 1.327 . S
C4029 C4033 1.429 . S
C4030 C4013 1.574 . S
C4030 H4024 0.949 . S
C4030 C4034 1.368 . S
C4031 C4012 1.429 . S
C4031 C4025 1.429 . S
C4031 C4032 1.523 . S
C4032 C4013 1.368 . S
C4032 C4026 1.368 . S
C4032 C4031 1.523 . S
C4033 C4017 1.429 . S
C4033 C4029 1.429 . S
C4033 C4034 1.523 . S
C4034 C4018 1.368 . S
C4034 C4030 1.368 . S
C4034 C4033 1.523 . S
H4035 C4010 0.950 . S
H4036 C4012 0.950 . S
H4037 C4013 0.949 . S
H4038 C4015 0.950 . S
H4039 C4017 0.950 . S
C4040 C4041 1.349 . S
C4040 C4042 1.327 . S
C4040 H4065 0.950 . S
C4041 C4040 1.349 . S
C4041 C4057 1.349 . S
C4042 C4040 1.327 . S
C4042 C4061 1.429 . S
C4042 H4066 0.950 . S
C4043 C4060 1.574 . S
C4043 C4062 1.368 . S
C4043 H4067 0.949 . S
H4044 C4048 0.949 . S
C4045 C4046 1.349 . S
C4045 C4047 1.327 . S
C4045 H4068 0.950 . S
C4046 C4045 1.349 . S
C4046 C4058 1.349 . S
C4047 C4045 1.327 . S
C4047 C4063 1.429 . S
C4047 H4069 0.950 . S
C4048 H4044 0.949 . S
C4048 C4056 1.574 . S
C4048 C4064 1.368 . S
H4049 C4057 0.950 . S
H4050 C4055 0.950 . S
H4051 C4056 0.949 . S
H4052 C4058 0.950 . S
H4053 C4059 0.950 . S
H4054 C4060 0.949 . S
C4055 H4050 0.950 . S
C4055 C4057 1.327 . S
C4055 C4061 1.429 . S
C4056 C4048 1.574 . S
C4056 H4051 0.949 . S
C4056 C4062 1.368 . S
C4057 C4041 1.349 . S
C4057 H4049 0.950 . S
C4057 C4055 1.327 . S
C4058 C4046 1.349 . S
C4058 H4052 0.950 . S
C4058 C4059 1.327 . S
C4059 H4053 0.950 . S
C4059 C4058 1.327 . S
C4059 C4063 1.429 . S
C4060 C4043 1.574 . S
C4060 H4054 0.949 . S
C4060 C4064 1.368 . S
C4061 C4042 1.429 . S
C4061 C4055 1.429 . S
C4061 C4062 1.523 . S
C4062 C4043 1.368 . S
C4062 C4056 1.368 . S
C4062 C4061 1.523 . S
C4063 C4047 1.429 . S
C4063 C4059 1.429 . S
C4063 C4064 1.523 . S
C4064 C4048 1.368 . S
C4064 C4060 1.368 . S
C4064 C4063 1.523 . S
H4065 C4040 0.950 . S
H4066 C4042 0.950 . S
H4067 C4043 0.949 . S
H4068 C4045 0.950 . S
H4069 C4047 0.950 . S
C4070 C4071 1.349 . S
C4070 C4072 1.327 . S
C4070 H4095 0.950 . S
C4071 C4070 1.349 . S
C4071 C4087 1.349 . S
C4072 C4070 1.327 . S
C4072 C4091 1.429 . S
C4072 H4096 0.950 . S
C4073 C4090 1.574 . S
C4073 C4092 1.368 . S
C4073 H4097 0.949 . S
H4074 C4078 0.949 . S
C4075 C4076 1.349 . S
C4075 C4077 1.327 . S
C4075 H4098 0.950 . S
C4076 C4075 1.349 . S
C4076 C4088 1.349 . S
C4077 C4075 1.327 . S
C4077 C4093 1.429 . S
C4077 H4099 0.950 . S
C4078 H4074 0.949 . S
C4078 C4086 1.574 . S
C4078 C4094 1.368 . S
H4079 C4087 0.950 . S
H4080 C4085 0.950 . S
H4081 C4086 0.949 . S
H4082 C4088 0.950 . S
H4083 C4089 0.950 . S
H4084 C4090 0.949 . S
C4085 H4080 0.950 . S
C4085 C4087 1.327 . S
C4085 C4091 1.429 . S
C4086 C4078 1.574 . S
C4086 H4081 0.949 . S
C4086 C4092 1.368 . S
C4087 C4071 1.349 . S
C4087 H4079 0.950 . S
C4087 C4085 1.327 . S
C4088 C4076 1.349 . S
C4088 H4082 0.950 . S
C4088 C4089 1.327 . S
C4089 H4083 0.950 . S
C4089 C4088 1.327 . S
C4089 C4093 1.429 . S
C4090 C4073 1.574 . S
C4090 H4084 0.949 . S
C4090 C4094 1.368 . S
C4091 C4072 1.429 . S
C4091 C4085 1.429 . S
C4091 C4092 1.523 . S
C4092 C4073 1.368 . S
C4092 C4086 1.368 . S
C4092 C4091 1.523 . S
C4093 C4077 1.429 . S
C4093 C4089 1.429 . S
C4093 C4094 1.523 . S
C4094 C4078 1.368 . S
C4094 C4090 1.368 . S
C4094 C4093 1.523 . S
H4095 C4070 0.950 . S
H4096 C4072 0.950 . S
H4097 C4073 0.949 . S
H4098 C4075 0.950 . S
H4099 C4077 0.950 . S
C4100 C4101 1.349 . S
C4100 C4102 1.327 . S
C4100 H4125 0.950 . S
C4101 C4100 1.349 . S
C4101 C4117 1.349 . S
C4102 C4100 1.327 . S
C4102 C4121 1.429 . S
C4102 H4126 0.950 . S
C4103 C4120 1.574 . S
C4103 C4122 1.368 . S
C4103 H4127 0.949 . S
H4104 C4108 0.949 . S
C4105 C4106 1.349 . S
C4105 C4107 1.327 . S
C4105 H4128 0.950 . S
C4106 C4105 1.349 . S
C4106 C4118 1.349 . S
C4107 C4105 1.327 . S
C4107 C4123 1.429 . S
C4107 H4129 0.950 . S
C4108 H4104 0.949 . S
C4108 C4116 1.574 . S
C4108 C4124 1.368 . S
H4109 C4117 0.950 . S
H4110 C4115 0.950 . S
H4111 C4116 0.949 . S
H4112 C4118 0.950 . S
H4113 C4119 0.950 . S
H4114 C4120 0.949 . S
C4115 H4110 0.950 . S
C4115 C4117 1.327 . S
C4115 C4121 1.429 . S
C4116 C4108 1.574 . S
C4116 H4111 0.949 . S
C4116 C4122 1.368 . S
C4117 C4101 1.349 . S
C4117 H4109 0.950 . S
C4117 C4115 1.327 . S
C4118 C4106 1.349 . S
C4118 H4112 0.950 . S
C4118 C4119 1.327 . S
C4119 H4113 0.950 . S
C4119 C4118 1.327 . S
C4119 C4123 1.429 . S
C4120 C4103 1.574 . S
C4120 H4114 0.949 . S
C4120 C4124 1.368 . S
C4121 C4102 1.429 . S
C4121 C4115 1.429 . S
C4121 C4122 1.523 . S
C4122 C4103 1.368 . S
C4122 C4116 1.368 . S
C4122 C4121 1.523 . S
C4123 C4107 1.429 . S
C4123 C4119 1.429 . S
C4123 C4124 1.523 . S
C4124 C4108 1.368 . S
C4124 C4120 1.368 . S
C4124 C4123 1.523 . S
H4125 C4100 0.950 . S
H4126 C4102 0.950 . S
H4127 C4103 0.949 . S
H4128 C4105 0.950 . S
H4129 C4107 0.950 . S
C4130 C4131 1.349 . S
C4130 C4132 1.327 . S
C4130 H4155 0.950 . S
C4131 C4130 1.349 . S
C4131 C4147 1.349 . S
C4132 C4130 1.327 . S
C4132 C4151 1.429 . S
C4132 H4156 0.950 . S
C4133 C4150 1.574 . S
C4133 C4152 1.368 . S
C4133 H4157 0.949 . S
H4134 C4138 0.949 . S
C4135 C4136 1.349 . S
C4135 C4137 1.327 . S
C4135 H4158 0.950 . S
C4136 C4135 1.349 . S
C4136 C4148 1.349 . S
C4137 C4135 1.327 . S
C4137 C4153 1.429 . S
C4137 H4159 0.950 . S
C4138 H4134 0.949 . S
C4138 C4146 1.574 . S
C4138 C4154 1.368 . S
H4139 C4147 0.950 . S
H4140 C4145 0.950 . S
H4141 C4146 0.949 . S
H4142 C4148 0.950 . S
H4143 C4149 0.950 . S
H4144 C4150 0.949 . S
C4145 H4140 0.950 . S
C4145 C4147 1.327 . S
C4145 C4151 1.429 . S
C4146 C4138 1.574 . S
C4146 H4141 0.949 . S
C4146 C4152 1.368 . S
C4147 C4131 1.349 . S
C4147 H4139 0.950 . S
C4147 C4145 1.327 . S
C4148 C4136 1.349 . S
C4148 H4142 0.950 . S
C4148 C4149 1.327 . S
C4149 H4143 0.950 . S
C4149 C4148 1.327 . S
C4149 C4153 1.429 . S
C4150 C4133 1.574 . S
C4150 H4144 0.949 . S
C4150 C4154 1.368 . S
C4151 C4132 1.429 . S
C4151 C4145 1.429 . S
C4151 C4152 1.523 . S
C4152 C4133 1.368 . S
C4152 C4146 1.368 . S
C4152 C4151 1.523 . S
C4153 C4137 1.429 . S
C4153 C4149 1.429 . S
C4153 C4154 1.523 . S
C4154 C4138 1.368 . S
C4154 C4150 1.368 . S
C4154 C4153 1.523 . S
H4155 C4130 0.950 . S
H4156 C4132 0.950 . S
H4157 C4133 0.949 . S
H4158 C4135 0.950 . S
H4159 C4137 0.950 . S
C1281 C6 1.115 . S
C1286 C139 1.069 . S
C1311 C19 1.069 . S
C1316 C46 1.116 . S
C1341 C86 1.115 . S
C1346 C59 1.069 . S
C1371 C99 1.069 . S
C1376 C126 1.116 . S
C1401 C219 1.069 . S
C1406 C166 1.115 . S
C1431 C206 1.116 . S
C1436 C259 1.069 . S
C1461 C299 1.069 . S
C1466 C246 1.115 . S
C1491 C179 1.069 . S
C1496 C286 1.116 . S
C1521 C335 1.115 . S
C1526 C450 1.069 . S
C1551 C375 1.116 . S
C1556 C330 1.069 . S
C1581 C415 1.115 . S
C1586 C370 1.069 . S
C1611 C455 1.116 . S
C1616 C410 1.069 . S
C1641 C495 1.115 . S
C1646 C530 1.069 . S
C1671 C535 1.116 . S
C1676 C570 1.069 . S
C1701 C610 1.069 . S
C1706 C575 1.115 . S
C1731 C490 1.069 . S
C1736 C615 1.116 . S
C1761 C646 1.115 . S
C1766 C779 1.069 . S
C1791 C659 1.069 . S
C1796 C686 1.116 . S
C1821 C699 1.069 . S
C1826 C726 1.115 . S
C1851 C766 1.116 . S
C1856 C739 1.069 . S
C1881 C806 1.115 . S
C1886 C859 1.069 . S
C1911 C899 1.069 . S
C1916 C846 1.116 . S
C1941 C886 1.115 . S
C1946 C939 1.069 . S
C1971 C819 1.069 . S
C1976 C926 1.116 . S
C2001 C1090 1.069 . S
C2006 C975 1.115 . S
C2031 C970 1.069 . S
C2036 C1015 1.116 . S
C2061 C1055 1.115 . S
C2066 C1010 1.069 . S
C2091 C1050 1.069 . S
C2096 C1095 1.116 . S
C2121 C1170 1.069 . S
C2126 C1135 1.115 . S
C2151 C1210 1.069 . S
C2156 C1175 1.116 . S
C2181 C1250 1.069 . S
C2186 C1215 1.115 . S
C2211 C1255 1.116 . S
C2216 C1130 1.069 . S
C2241 C1086 1.574 . S
C2246 C9 1.530 . S
C2271 C49 1.530 . S
C2276 C326 1.574 . S
C2301 C89 1.530 . S
C2306 C1006 1.574 . S
C2331 C129 1.530 . S
C2336 C406 1.574 . S
C2361 C169 1.530 . S
C2366 C1166 1.574 . S
C2391 C566 1.574 . S
C2396 C209 1.530 . S
C2421 C1246 1.574 . S
C2426 C249 1.530 . S
C2451 C289 1.530 . S
C2456 C486 1.574 . S
C2481 C338 1.530 . S
C2486 C775 1.574 . S
C2511 C15 1.574 . S
C2516 C378 1.530 . S
C2541 C695 1.574 . S
C2546 C418 1.530 . S
C2571 C95 1.574 . S
C2576 C458 1.530 . S
C2601 C855 1.574 . S
C2606 C498 1.530 . S
C2631 C255 1.574 . S
C2636 C538 1.530 . S
C2661 C578 1.530 . S
C2666 C935 1.574 . S
C2691 C618 1.530 . S
C2696 C175 1.574 . S
C2721 C649 1.530 . S
C2726 C446 1.574 . S
C2751 C689 1.530 . S
C2756 C966 1.574 . S
C2781 C729 1.530 . S
C2786 C366 1.574 . S
C2811 C769 1.530 . S
C2816 C1046 1.574 . S
C2841 C809 1.530 . S
C2846 C526 1.574 . S
C2871 C849 1.530 . S
C2876 C1206 1.574 . S
C2901 C606 1.574 . S
C2906 C889 1.530 . S
C2931 C929 1.530 . S
C2936 C1126 1.574 . S
C2961 C135 1.574 . S
C2966 C978 1.530 . S
C2991 C655 1.574 . S
C2996 C1018 1.530 . S
C3021 C55 1.574 . S
C3026 C1058 1.530 . S
C3051 C735 1.574 . S
C3056 C1098 1.530 . S
C3081 C215 1.574 . S
C3086 C1138 1.530 . S
C3111 C1178 1.530 . S
C3116 C895 1.574 . S
C3141 C1218 1.530 . S
C3146 C295 1.574 . S
C3171 C815 1.574 . S
C3176 C1258 1.530 . S
C3201 C18 0.358 . S
C3206 C178 0.358 . S
C3231 C58 0.358 . S
C3236 C218 0.358 . S
C3261 C98 0.358 . S
C3266 C258 0.358 . S
C3291 C298 0.358 . S
C3296 C138 0.358 . S
C3321 C489 0.358 . S
C3326 C329 0.358 . S
C3351 C529 0.358 . S
C3356 C369 0.358 . S
C3381 C409 0.358 . S
C3386 C569 0.358 . S
C3411 C449 0.358 . S
C3416 C609 0.358 . S
C3441 C658 0.358 . S
C3446 C818 0.358 . S
C3471 C858 0.358 . S
C3476 C698 0.358 . S
C3501 C898 0.358 . S
C3506 C738 0.358 . S
C3531 C938 0.358 . S
C3536 C778 0.358 . S
C3561 C1129 0.358 . S
C3566 C969 0.358 . S
C3591 C1009 0.358 . S
C3596 C1169 0.358 . S
C3621 C1209 0.358 . S
C3626 C1049 0.358 . S
C3651 C1089 0.358 . S
C3656 C1249 0.358 . S
C3681 C290 2.785 . S
C3686 C10 2.785 . S
C3711 C50 2.785 . S
C3716 C170 2.785 . S
C3741 C90 2.785 . S
C3746 C210 2.785 . S
C3771 C250 2.785 . S
C3776 C130 2.785 . S
C3801 C339 2.785 . S
C3806 C619 2.785 . S
C3831 C499 2.785 . S
C3836 C379 2.785 . S
C3861 C539 2.785 . S
C3866 C419 2.785 . S
C3891 C459 2.785 . S
C3896 C579 2.785 . S
C3921 C650 2.785 . S
C3926 C930 2.785 . S
C3951 C810 2.785 . S
C3956 C690 2.785 . S
C3981 C850 2.785 . S
C3986 C730 2.785 . S
C4011 C890 2.785 . S
C4016 C770 2.785 . S
C4041 C979 2.785 . S
C4046 C1259 2.785 . S
C4071 C1139 2.785 . S
C4076 C1019 2.785 . S
C4101 C1059 2.785 . S
C4106 C1179 2.785 . S
C4131 C1219 2.785 . S
C4136 C1099 2.785 . S
