# Generated by pormake.
# Topology uoc, (4)-cn, num edge types: 1
# Building blocks:
#     Node 0, Type 0, BuildingBlock: CEKHIL_clean_sbu_0, # of connection points: 4
#     Node 1, Type 0, BuildingBlock: CEKHIL_clean_sbu_0, # of connection points: 4
#     Node 2, Type 0, BuildingBlock: CEKHIL_clean_sbu_0, # of connection points: 4
#     Node 3, Type 0, BuildingBlock: CEKHIL_clean_sbu_0, # of connection points: 4
#     Node 4, Type 0, BuildingBlock: CEKHIL_clean_sbu_0, # of connection points: 4
#     Node 5, Type 0, BuildingBlock: CEKHIL_clean_sbu_0, # of connection points: 4
#     Node 6, Type 0, BuildingBlock: CEKHIL_clean_sbu_0, # of connection points: 4
#     Node 7, Type 0, BuildingBlock: CEKHIL_clean_sbu_0, # of connection points: 4
#     Edge 8, Type (0, 0), BuildingBlock: OJICUG_clean_linker_0, # of connection points: 2
#     Edge 9, Type (0, 0), BuildingBlock: OJICUG_clean_linker_0, # of connection points: 2
#     Edge 10, Type (0, 0), BuildingBlock: OJICUG_clean_linker_0, # of connection points: 2
#     Edge 11, Type (0, 0), BuildingBlock: OJICUG_clean_linker_0, # of connection points: 2
#     Edge 12, Type (0, 0), BuildingBlock: OJICUG_clean_linker_0, # of connection points: 2
#     Edge 13, Type (0, 0), BuildingBlock: OJICUG_clean_linker_0, # of connection points: 2
#     Edge 14, Type (0, 0), BuildingBlock: OJICUG_clean_linker_0, # of connection points: 2
#     Edge 15, Type (0, 0), BuildingBlock: OJICUG_clean_linker_0, # of connection points: 2
#     Edge 16, Type (0, 0), BuildingBlock: OJICUG_clean_linker_0, # of connection points: 2
#     Edge 17, Type (0, 0), BuildingBlock: OJICUG_clean_linker_0, # of connection points: 2
#     Edge 18, Type (0, 0), BuildingBlock: OJICUG_clean_linker_0, # of connection points: 2
#     Edge 19, Type (0, 0), BuildingBlock: OJICUG_clean_linker_0, # of connection points: 2
#     Edge 20, Type (0, 0), BuildingBlock: OJICUG_clean_linker_0, # of connection points: 2
#     Edge 21, Type (0, 0), BuildingBlock: OJICUG_clean_linker_0, # of connection points: 2
#     Edge 22, Type (0, 0), BuildingBlock: OJICUG_clean_linker_0, # of connection points: 2
#     Edge 23, Type (0, 0), BuildingBlock: OJICUG_clean_linker_0, # of connection points: 2
# Relax obj value: 0.097
# Max RMSD: 0.107
# Mean RMSD: 0.107
data_MOF--net-uoc--node1-CEKHIL_clean_sbu_0--edge1-OJICUG_clean_linker_0
_symmetry_space_group_name_H-M    P1
_symmetry_Int_Tables_number       1
_symmetry_cell_setting            triclinic
loop_
_symmetry_equiv_pos_as_xyz
'x, y, z'
_cell_length_a     19.836675
_cell_length_b     19.836462
_cell_length_c     39.064991
_cell_angle_alpha  89.99978
_cell_angle_beta   89.999976
_cell_angle_gamma 92.616391
loop_
_atom_site_label
_atom_site_type_symbol
_atom_site_fract_x
_atom_site_fract_y
_atom_site_fract_z
_atom_type_partial_charge
Co0 Co 0.11209 0.27524 0.11409 0.0
O1 O 0.12716 0.37196 0.1141 0.0
O2 O 0.03161 0.31771 0.1291 0.0
C3 C 0.15623 0.25614 0.06216 0.0
O4 O 0.07607 0.1772 0.11589 0.0
Co5 Co 0.23093 0.17878 0.11219 0.0
O6 O 0.15942 0.10722 0.10486 0.0
C7 C 0.20052 0.25009 0.17618 0.0
C8 C 0.06506 0.37485 0.12437 0.0
C9 C 0.09739 0.11784 0.11006 0.0
O10 O 0.14622 0.2712 0.16266 0.0
O11 O 0.24342 0.21664 0.15952 0.0
O12 O 0.09507 0.27622 0.06499 0.0
O13 O 0.19072 0.25488 0.09022 0.0
Co14 Co 0.77458 0.61164 0.38282 0.0
O15 O 0.87129 0.6268 0.38314 0.0
O16 O 0.81731 0.53138 0.36772 0.0
C17 C 0.75478 0.6552 0.43482 0.0
O18 O 0.6766 0.57553 0.38068 0.0
Co19 Co 0.67809 0.73044 0.38468 0.0
O20 O 0.60641 0.65883 0.39145 0.0
C21 C 0.75033 0.70082 0.32087 0.0
C22 C 0.87436 0.56482 0.37271 0.0
C23 C 0.61715 0.59683 0.38628 0.0
O24 O 0.7711 0.64629 0.33431 0.0
O25 O 0.71676 0.74359 0.33756 0.0
O26 O 0.77498 0.5941 0.43189 0.0
O27 O 0.75385 0.68999 0.40684 0.0
Co28 Co 0.38886 0.22578 0.61413 0.0
O29 O 0.37387 0.12904 0.61403 0.0
O30 O 0.46932 0.18332 0.62916 0.0
C31 C 0.3449 0.24509 0.56218 0.0
O32 O 0.42481 0.32382 0.61608 0.0
Co33 Co 0.26996 0.32217 0.61225 0.0
O34 O 0.34144 0.3939 0.60527 0.0
C35 C 0.30015 0.25051 0.67617 0.0
C36 C 0.43594 0.12618 0.62434 0.0
C37 C 0.40347 0.38323 0.61043 0.0
O38 O 0.35456 0.22957 0.66268 0.0
O39 O 0.25726 0.28396 0.6595 0.0
O40 O 0.40606 0.22503 0.56504 0.0
O41 O 0.3103 0.24621 0.59021 0.0
Co42 Co 0.72654 0.8894 0.88285 0.0
O43 O 0.62982 0.87435 0.8829 0.0
O44 O 0.68406 0.96985 0.86781 0.0
C45 C 0.74573 0.84539 0.93481 0.0
O46 O 0.82458 0.9254 0.88098 0.0
Co47 Co 0.82297 0.77057 0.88475 0.0
O48 O 0.89455 0.84207 0.89206 0.0
C49 C 0.75148 0.80078 0.82078 0.0
C50 C 0.62692 0.93643 0.8726 0.0
C51 C 0.88393 0.90408 0.88684 0.0
O52 O 0.73044 0.85513 0.83429 0.0
O53 O 0.78497 0.75792 0.83746 0.0
O54 O 0.72567 0.90655 0.93194 0.0
O55 O 0.74693 0.81082 0.90677 0.0
Co56 Co 0.60952 0.77051 0.61518 0.0
O57 O 0.62455 0.86723 0.61512 0.0
O58 O 0.52883 0.81301 0.62986 0.0
C59 C 0.65434 0.7514 0.56339 0.0
O60 O 0.57349 0.67248 0.61695 0.0
Co61 Co 0.72832 0.67404 0.61371 0.0
O62 O 0.65692 0.60251 0.60609 0.0
C63 C 0.69731 0.74566 0.67754 0.0
C64 C 0.56229 0.87014 0.62512 0.0
C65 C 0.59484 0.61313 0.61113 0.0
O66 O 0.64311 0.76668 0.66386 0.0
O67 O 0.74035 0.71213 0.66102 0.0
O68 O 0.5931 0.77135 0.56602 0.0
O69 O 0.68848 0.75015 0.59156 0.0
Co70 Co 0.2713 0.11004 0.88203 0.0
O71 O 0.36802 0.12509 0.88183 0.0
O72 O 0.31369 0.0292 0.86747 0.0
C73 C 0.25269 0.15541 0.93374 0.0
O74 O 0.17325 0.07398 0.88057 0.0
Co75 Co 0.1748 0.22886 0.88344 0.0
O76 O 0.10327 0.15752 0.89119 0.0
C77 C 0.24583 0.19717 0.81952 0.0
C78 C 0.37086 0.06273 0.87198 0.0
C79 C 0.1139 0.0954 0.88632 0.0
O80 O 0.267 0.14311 0.83328 0.0
O81 O 0.21248 0.24039 0.83602 0.0
O82 O 0.27261 0.09414 0.93122 0.0
O83 O 0.25115 0.18924 0.90548 0.0
Co84 Co 0.89147 0.73048 0.11509 0.0
O85 O 0.87642 0.63377 0.11526 0.0
O86 O 0.9723 0.68808 0.12966 0.0
C87 C 0.84616 0.74914 0.06336 0.0
O88 O 0.92753 0.82854 0.11657 0.0
Co89 Co 0.77266 0.82695 0.1137 0.0
O90 O 0.84398 0.89847 0.10589 0.0
C91 C 0.80435 0.75593 0.17762 0.0
C92 C 0.93878 0.63092 0.12512 0.0
C93 C 0.9061 0.88786 0.11077 0.0
O94 O 0.85837 0.73472 0.16385 0.0
O95 O 0.76116 0.78935 0.16114 0.0
O96 O 0.90742 0.72922 0.0659 0.0
O97 O 0.81229 0.75065 0.09161 0.0
Co98 Co 0.22985 0.39093 0.38196 0.0
O99 O 0.1331 0.37609 0.38189 0.0
O100 O 0.18759 0.47181 0.36737 0.0
C101 C 0.24863 0.34576 0.4337 0.0
O102 O 0.32794 0.42679 0.38028 0.0
Co103 Co 0.32623 0.27204 0.38342 0.0
O104 O 0.39787 0.34332 0.39109 0.0
C105 C 0.25491 0.30346 0.31953 0.0
C106 C 0.13038 0.43843 0.37199 0.0
C107 C 0.38728 0.40541 0.38606 0.0
O108 O 0.23382 0.3576 0.33324 0.0
O109 O 0.28834 0.26032 0.33604 0.0
O110 O 0.22885 0.40707 0.43113 0.0
O111 O 0.24998 0.31179 0.40548 0.0
C112 C 0.15722 0.25602 0.99833 0.0
C113 C 0.18258 0.23197 0.02935 0.0
H114 H 0.16096 0.25181 0.94357 0.0
C115 C 0.23211 0.18366 0.02871 0.0
H116 H 0.11912 0.29345 0.99819 0.0
C117 C 0.25463 0.15851 0.99753 0.0
C118 C 0.22952 0.1828 0.9665 0.0
H119 H 0.25235 0.16416 0.05226 0.0
H120 H 0.29206 0.12041 0.99768 0.0
C121 C 0.18126 0.23239 0.96713 0.0
C122 C 0.81338 0.67883 0.26644 0.0
C123 C 0.76486 0.71467 0.28426 0.0
H124 H 0.86445 0.66406 0.21886 0.0
C125 C 0.72997 0.76422 0.26673 0.0
H126 H 0.84134 0.64049 0.27921 0.0
C127 C 0.74281 0.77732 0.2322 0.0
C128 C 0.7914 0.74174 0.21434 0.0
H129 H 0.69213 0.79268 0.27959 0.0
H130 H 0.71477 0.81577 0.21956 0.0
C131 C 0.82682 0.69253 0.23189 0.0
C132 C 0.34386 0.24505 0.49835 0.0
C133 C 0.31863 0.2693 0.52936 0.0
H134 H 0.34003 0.24907 0.44359 0.0
C135 C 0.26931 0.31782 0.52869 0.0
H136 H 0.3818 0.20746 0.49823 0.0
C137 C 0.24684 0.34295 0.4975 0.0
C138 C 0.27179 0.31844 0.46648 0.0
H139 H 0.24918 0.33748 0.55224 0.0
H140 H 0.20956 0.3812 0.49762 0.0
C141 C 0.31985 0.26867 0.46714 0.0
C142 C 0.77245 0.73801 0.76652 0.0
C143 C 0.73719 0.78717 0.78413 0.0
H144 H 0.78786 0.68671 0.7193 0.0
C145 C 0.68836 0.82272 0.76637 0.0
H146 H 0.81057 0.70982 0.77932 0.0
C147 C 0.67488 0.80902 0.73183 0.0
C148 C 0.71056 0.76009 0.71422 0.0
H149 H 0.66011 0.86077 0.77921 0.0
H150 H 0.63694 0.8372 0.71887 0.0
C151 C 0.75958 0.72491 0.73198 0.0
C152 C 0.19186 0.32621 0.26521 0.0
C153 C 0.24067 0.2904 0.28283 0.0
H154 H 0.14038 0.34128 0.21778 0.0
C155 C 0.27594 0.24148 0.26505 0.0
H156 H 0.16362 0.36409 0.27818 0.0
C157 C 0.26303 0.22882 0.23048 0.0
C158 C 0.21398 0.2642 0.21286 0.0
H159 H 0.31406 0.21311 0.27775 0.0
H160 H 0.29128 0.19075 0.21766 0.0
C161 C 0.17835 0.31295 0.23063 0.0
C162 C 0.73118 0.67999 0.52988 0.0
C163 C 0.68146 0.7281 0.53057 0.0
H164 H 0.79234 0.61807 0.49875 0.0
C165 C 0.65684 0.75302 0.49958 0.0
H166 H 0.75084 0.65982 0.55342 0.0
C167 C 0.6819 0.73056 0.46836 0.0
C168 C 0.73046 0.68128 0.46766 0.0
H169 H 0.61859 0.79031 0.49947 0.0
H170 H 0.6622 0.7507 0.44483 0.0
C171 C 0.75473 0.656 0.49865 0.0
C172 C 0.23741 0.27152 0.73043 0.0
C173 C 0.28658 0.23627 0.71282 0.0
H174 H 0.18633 0.28716 0.77768 0.0
C175 C 0.3223 0.1876 0.73061 0.0
H176 H 0.20909 0.30951 0.7176 0.0
C177 C 0.30881 0.17434 0.76519 0.0
C178 C 0.25993 0.21008 0.7828 0.0
H179 H 0.36036 0.15937 0.71777 0.0
H180 H 0.33715 0.13656 0.77818 0.0
C181 C 0.22452 0.25886 0.76499 0.0
C182 C 0.76928 0.82054 0.02988 0.0
C183 C 0.81882 0.77225 0.03057 0.0
H184 H 0.70832 0.88267 -0.00125 0.0
C185 C 0.84316 0.74706 -0.00043 0.0
H186 H 0.74982 0.8409 0.05342 0.0
C187 C 0.81809 0.76953 0.96836 0.0
C188 C 0.76982 0.8191 0.96765 0.0
H189 H 0.88124 0.7096 -0.00054 0.0
H190 H 0.83763 0.74923 0.94482 0.0
C191 C 0.74573 0.84454 -0.00135 0.0
C192 C 0.97855 0.0684 0.11035 0.0
C193 C 0.04834 0.05908 0.10996 0.0
H194 H 0.87913 0.02203 0.11071 0.0
C195 C 0.07095 0.99282 0.10962 0.0
H196 H 0.95931 0.11863 0.1105 0.0
C197 C 0.02494 0.93729 0.10996 0.0
C198 C 0.95516 0.94662 0.11032 0.0
H199 H 0.12436 0.98365 0.10937 0.0
H200 H 0.04417 0.88706 0.10978 0.0
C201 C 0.93254 0.01287 0.11037 0.0
C202 C 0.00451 0.43157 0.36693 0.0
C203 C 0.06516 0.47091 0.36843 0.0
H204 H 0.89648 0.43054 0.36646 0.0
C205 C 0.0626 0.54156 0.3688 0.0
H206 H 0.00497 0.37699 0.36644 0.0
C207 C 1.00049 0.57219 0.36928 0.0
C208 C 0.93979 0.53279 0.36884 0.0
H209 H 0.10852 0.57318 0.37002 0.0
H210 H 1.00005 0.62671 0.37067 0.0
C211 C 0.94241 0.46224 0.36685 0.0
C212 C 0.42993 0.50823 0.61081 0.0
C213 C 0.45252 0.44198 0.61045 0.0
H214 H 0.45674 0.61397 0.61151 0.0
C215 C 0.5223 0.43263 0.61017 0.0
H216 H 0.37652 0.5174 0.61111 0.0
C217 C 0.56834 0.48813 0.61019 0.0
C218 C 0.54576 0.55439 0.61079 0.0
H219 H 0.54151 0.38239 0.60977 0.0
H220 H 0.62174 0.47894 0.60997 0.0
C221 C 0.47597 0.56374 0.61114 0.0
C222 C 0.55897 0.0392 0.86753 0.0
C223 C 0.56158 0.96858 0.8687 0.0
H224 H 0.4964 0.12442 0.86782 0.0
C225 C 0.5009 0.92915 0.86833 0.0
H226 H 0.60489 0.07092 0.8678 0.0
C227 C 0.43878 0.95978 0.86788 0.0
C228 C 0.43618 0.03042 0.86836 0.0
H229 H 0.50136 0.87458 0.86905 0.0
H230 H 0.39286 0.92808 0.86845 0.0
C231 C 0.49685 0.06984 0.86763 0.0
C232 C 0.04173 0.56299 0.12918 0.0
C233 C 0.97109 0.5656 0.12872 0.0
H234 H 0.12692 0.50041 0.12797 0.0
C235 C 0.93167 0.50492 0.12942 0.0
H236 H 0.07343 0.60891 0.12862 0.0
C237 C 0.9623 0.4428 0.12949 0.0
C238 C 0.03291 0.44019 0.1283 0.0
H239 H 0.87709 0.50538 0.12925 0.0
H240 H 0.93058 0.39689 0.12921 0.0
C241 C 0.07235 0.50086 0.1287 0.0
C242 C 0.51229 0.43194 0.38758 0.0
C243 C 0.44605 0.45448 0.38629 0.0
H244 H 0.61804 0.45884 0.38842 0.0
C245 C 0.43673 0.52424 0.38507 0.0
H246 H 0.52148 0.37857 0.38851 0.0
C247 C 0.49223 0.57029 0.38522 0.0
C248 C 0.55845 0.54773 0.38629 0.0
H249 H 0.38653 0.54346 0.38411 0.0
H250 H 0.48308 0.62367 0.38422 0.0
C251 C 0.56781 0.47799 0.38743 0.0
C252 C 0.53877 0.05828 0.62924 0.0
C253 C 0.46814 0.06087 0.62826 0.0
H254 H 0.62399 0.99573 0.62884 0.0
C255 C 0.42872 1.00019 0.62885 0.0
H256 H 0.57047 0.1042 0.6288 0.0
C257 C 0.45936 0.93808 0.62934 0.0
C258 C 0.53001 0.93548 0.62868 0.0
H259 H 0.37414 0.00064 0.62827 0.0
H260 H 0.42767 0.89215 0.62895 0.0
C261 C 0.56941 0.99617 0.62918 0.0
C262 C 0.93337 0.02293 0.88662 0.0
C263 C 0.9427 0.95314 0.88695 0.0
H264 H 0.97973 0.12236 0.88635 0.0
C265 C 0.00895 0.93053 0.88729 0.0
H266 H 0.88314 0.04217 0.88646 0.0
C267 C 0.06448 0.97655 0.88702 0.0
C268 C 0.05515 0.04634 0.88672 0.0
H269 H 0.01812 0.87713 0.88751 0.0
H270 H 0.11472 0.95732 0.8872 0.0
C271 C 0.9889 0.06895 0.88665 0.0
loop_
_geom_bond_atom_site_label_1
_geom_bond_atom_site_label_2
_geom_bond_distance
_geom_bond_site_symmetry_2
_ccdc_geom_bond_type
Co0 O1 2.216 . S
Co0 O2 2.091 . S
Co0 O4 2.004 . S
Co0 O10 2.021 . S
Co0 O12 2.137 . S
Co0 O13 2.244 . S
O1 Co0 2.216 . S
O1 C8 1.247 . S
O2 Co0 2.091 . S
O2 C8 1.261 . S
C3 O12 1.247 . S
C3 O13 1.272 . S
O4 Co0 2.004 . S
O4 C9 1.259 . S
Co5 O6 2.061 . S
Co5 O11 2.052 . S
Co5 O13 2.135 . S
O6 Co5 2.061 . S
O6 C9 1.235 . S
C7 O10 1.238 . S
C7 O11 1.241 . S
C8 O1 1.247 . S
C8 O2 1.261 . S
C9 O4 1.259 . S
C9 O6 1.235 . S
O10 Co0 2.021 . S
O10 C7 1.238 . S
O11 Co5 2.052 . S
O11 C7 1.241 . S
O12 Co0 2.137 . S
O12 C3 1.247 . S
O13 Co0 2.244 . S
O13 C3 1.272 . S
O13 Co5 2.135 . S
Co14 O15 2.216 . S
Co14 O16 2.091 . S
Co14 O18 2.004 . S
Co14 O24 2.021 . S
Co14 O26 2.137 . S
Co14 O27 2.244 . S
O15 Co14 2.216 . S
O15 C22 1.247 . S
O16 Co14 2.091 . S
O16 C22 1.261 . S
C17 O26 1.247 . S
C17 O27 1.272 . S
O18 Co14 2.004 . S
O18 C23 1.259 . S
Co19 O20 2.061 . S
Co19 O25 2.052 . S
Co19 O27 2.135 . S
O20 Co19 2.061 . S
O20 C23 1.235 . S
C21 O24 1.238 . S
C21 O25 1.241 . S
C22 O15 1.247 . S
C22 O16 1.261 . S
C23 O18 1.259 . S
C23 O20 1.235 . S
O24 Co14 2.021 . S
O24 C21 1.238 . S
O25 Co19 2.052 . S
O25 C21 1.241 . S
O26 Co14 2.137 . S
O26 C17 1.247 . S
O27 Co14 2.244 . S
O27 C17 1.272 . S
O27 Co19 2.135 . S
Co28 O29 2.216 . S
Co28 O30 2.091 . S
Co28 O32 2.004 . S
Co28 O38 2.021 . S
Co28 O40 2.137 . S
Co28 O41 2.244 . S
O29 Co28 2.216 . S
O29 C36 1.247 . S
O30 Co28 2.091 . S
O30 C36 1.261 . S
C31 O40 1.247 . S
C31 O41 1.272 . S
O32 Co28 2.004 . S
O32 C37 1.259 . S
Co33 O34 2.061 . S
Co33 O39 2.052 . S
Co33 O41 2.135 . S
O34 Co33 2.061 . S
O34 C37 1.235 . S
C35 O38 1.238 . S
C35 O39 1.241 . S
C36 O29 1.247 . S
C36 O30 1.261 . S
C37 O32 1.259 . S
C37 O34 1.235 . S
O38 Co28 2.021 . S
O38 C35 1.238 . S
O39 Co33 2.052 . S
O39 C35 1.241 . S
O40 Co28 2.137 . S
O40 C31 1.247 . S
O41 Co28 2.244 . S
O41 C31 1.272 . S
O41 Co33 2.135 . S
Co42 O43 2.216 . S
Co42 O44 2.091 . S
Co42 O46 2.004 . S
Co42 O52 2.021 . S
Co42 O54 2.137 . S
Co42 O55 2.244 . S
O43 Co42 2.216 . S
O43 C50 1.247 . S
O44 Co42 2.091 . S
O44 C50 1.261 . S
C45 O54 1.247 . S
C45 O55 1.272 . S
O46 Co42 2.004 . S
O46 C51 1.259 . S
Co47 O48 2.061 . S
Co47 O53 2.052 . S
Co47 O55 2.135 . S
O48 Co47 2.061 . S
O48 C51 1.235 . S
C49 O52 1.238 . S
C49 O53 1.241 . S
C50 O43 1.247 . S
C50 O44 1.261 . S
C51 O46 1.259 . S
C51 O48 1.235 . S
O52 Co42 2.021 . S
O52 C49 1.238 . S
O53 Co47 2.052 . S
O53 C49 1.241 . S
O54 Co42 2.137 . S
O54 C45 1.247 . S
O55 Co42 2.244 . S
O55 C45 1.272 . S
O55 Co47 2.135 . S
Co56 O57 2.216 . S
Co56 O58 2.091 . S
Co56 O60 2.004 . S
Co56 O66 2.021 . S
Co56 O68 2.137 . S
Co56 O69 2.244 . S
O57 Co56 2.216 . S
O57 C64 1.247 . S
O58 Co56 2.091 . S
O58 C64 1.261 . S
C59 O68 1.247 . S
C59 O69 1.272 . S
O60 Co56 2.004 . S
O60 C65 1.259 . S
Co61 O62 2.061 . S
Co61 O67 2.052 . S
Co61 O69 2.135 . S
O62 Co61 2.061 . S
O62 C65 1.235 . S
C63 O66 1.238 . S
C63 O67 1.241 . S
C64 O57 1.247 . S
C64 O58 1.261 . S
C65 O60 1.259 . S
C65 O62 1.235 . S
O66 Co56 2.021 . S
O66 C63 1.238 . S
O67 Co61 2.052 . S
O67 C63 1.241 . S
O68 Co56 2.137 . S
O68 C59 1.247 . S
O69 Co56 2.244 . S
O69 C59 1.272 . S
O69 Co61 2.135 . S
Co70 O71 2.216 . S
Co70 O72 2.091 . S
Co70 O74 2.004 . S
Co70 O80 2.021 . S
Co70 O82 2.137 . S
Co70 O83 2.244 . S
O71 Co70 2.216 . S
O71 C78 1.247 . S
O72 Co70 2.091 . S
O72 C78 1.261 . S
C73 O82 1.247 . S
C73 O83 1.272 . S
O74 Co70 2.004 . S
O74 C79 1.259 . S
Co75 O76 2.061 . S
Co75 O81 2.052 . S
Co75 O83 2.135 . S
O76 Co75 2.061 . S
O76 C79 1.235 . S
C77 O80 1.238 . S
C77 O81 1.241 . S
C78 O71 1.247 . S
C78 O72 1.261 . S
C79 O74 1.259 . S
C79 O76 1.235 . S
O80 Co70 2.021 . S
O80 C77 1.238 . S
O81 Co75 2.052 . S
O81 C77 1.241 . S
O82 Co70 2.137 . S
O82 C73 1.247 . S
O83 Co70 2.244 . S
O83 C73 1.272 . S
O83 Co75 2.135 . S
Co84 O85 2.216 . S
Co84 O86 2.091 . S
Co84 O88 2.004 . S
Co84 O94 2.021 . S
Co84 O96 2.137 . S
Co84 O97 2.244 . S
O85 Co84 2.216 . S
O85 C92 1.247 . S
O86 Co84 2.091 . S
O86 C92 1.261 . S
C87 O96 1.247 . S
C87 O97 1.272 . S
O88 Co84 2.004 . S
O88 C93 1.259 . S
Co89 O90 2.061 . S
Co89 O95 2.052 . S
Co89 O97 2.135 . S
O90 Co89 2.061 . S
O90 C93 1.235 . S
C91 O94 1.238 . S
C91 O95 1.241 . S
C92 O85 1.247 . S
C92 O86 1.261 . S
C93 O88 1.259 . S
C93 O90 1.235 . S
O94 Co84 2.021 . S
O94 C91 1.238 . S
O95 Co89 2.052 . S
O95 C91 1.241 . S
O96 Co84 2.137 . S
O96 C87 1.247 . S
O97 Co84 2.244 . S
O97 C87 1.272 . S
O97 Co89 2.135 . S
Co98 O99 2.216 . S
Co98 O100 2.091 . S
Co98 O102 2.004 . S
Co98 O108 2.021 . S
Co98 O110 2.137 . S
Co98 O111 2.244 . S
O99 Co98 2.216 . S
O99 C106 1.247 . S
O100 Co98 2.091 . S
O100 C106 1.261 . S
C101 O110 1.247 . S
C101 O111 1.272 . S
O102 Co98 2.004 . S
O102 C107 1.259 . S
Co103 O104 2.061 . S
Co103 O109 2.052 . S
Co103 O111 2.135 . S
O104 Co103 2.061 . S
O104 C107 1.235 . S
C105 O108 1.238 . S
C105 O109 1.241 . S
C106 O99 1.247 . S
C106 O100 1.261 . S
C107 O102 1.259 . S
C107 O104 1.235 . S
O108 Co98 2.021 . S
O108 C105 1.238 . S
O109 Co103 2.052 . S
O109 C105 1.241 . S
O110 Co98 2.137 . S
O110 C101 1.247 . S
O111 Co98 2.244 . S
O111 C101 1.272 . S
O111 Co103 2.135 . S
C112 C113 1.387 . S
C112 H116 0.950 . S
C112 C121 1.390 1_554 S
C113 C112 1.387 . S
C113 C115 1.387 . S
H114 C121 0.950 . S
C115 C113 1.387 . S
C115 C117 1.390 1_554 S
C115 H119 0.950 . S
H116 C112 0.950 . S
C117 C115 1.390 1_556 S
C117 C118 1.387 . S
C117 H120 0.950 . S
C118 C117 1.387 . S
C118 C121 1.387 . S
H119 C115 0.950 . S
H120 C117 0.950 . S
C121 C112 1.390 1_556 S
C121 H114 0.950 . S
C121 C118 1.387 . S
C122 C123 1.387 . S
C122 H126 0.950 . S
C122 C131 1.390 . S
C123 C122 1.387 . S
C123 C125 1.387 . S
H124 C131 0.950 . S
C125 C123 1.387 . S
C125 C127 1.390 . S
C125 H129 0.950 . S
H126 C122 0.950 . S
C127 C125 1.390 . S
C127 C128 1.387 . S
C127 H130 0.950 . S
C128 C127 1.387 . S
C128 C131 1.387 . S
H129 C125 0.950 . S
H130 C127 0.950 . S
C131 C122 1.390 . S
C131 H124 0.950 . S
C131 C128 1.387 . S
C132 C133 1.387 . S
C132 H136 0.950 . S
C132 C141 1.390 . S
C133 C132 1.387 . S
C133 C135 1.387 . S
H134 C141 0.950 . S
C135 C133 1.387 . S
C135 C137 1.390 . S
C135 H139 0.950 . S
H136 C132 0.950 . S
C137 C135 1.390 . S
C137 C138 1.387 . S
C137 H140 0.950 . S
C138 C137 1.387 . S
C138 C141 1.387 . S
H139 C135 0.950 . S
H140 C137 0.950 . S
C141 C132 1.390 . S
C141 H134 0.950 . S
C141 C138 1.387 . S
C142 C143 1.387 . S
C142 H146 0.950 . S
C142 C151 1.390 . S
C143 C142 1.387 . S
C143 C145 1.387 . S
H144 C151 0.950 . S
C145 C143 1.387 . S
C145 C147 1.390 . S
C145 H149 0.950 . S
H146 C142 0.950 . S
C147 C145 1.390 . S
C147 C148 1.387 . S
C147 H150 0.950 . S
C148 C147 1.387 . S
C148 C151 1.387 . S
H149 C145 0.950 . S
H150 C147 0.950 . S
C151 C142 1.390 . S
C151 H144 0.950 . S
C151 C148 1.387 . S
C152 C153 1.387 . S
C152 H156 0.950 . S
C152 C161 1.390 . S
C153 C152 1.387 . S
C153 C155 1.387 . S
H154 C161 0.950 . S
C155 C153 1.387 . S
C155 C157 1.390 . S
C155 H159 0.950 . S
H156 C152 0.950 . S
C157 C155 1.390 . S
C157 C158 1.387 . S
C157 H160 0.950 . S
C158 C157 1.387 . S
C158 C161 1.387 . S
H159 C155 0.950 . S
H160 C157 0.950 . S
C161 C152 1.390 . S
C161 H154 0.950 . S
C161 C158 1.387 . S
C162 C163 1.387 . S
C162 H166 0.950 . S
C162 C171 1.390 . S
C163 C162 1.387 . S
C163 C165 1.387 . S
H164 C171 0.950 . S
C165 C163 1.387 . S
C165 C167 1.390 . S
C165 H169 0.950 . S
H166 C162 0.950 . S
C167 C165 1.390 . S
C167 C168 1.387 . S
C167 H170 0.950 . S
C168 C167 1.387 . S
C168 C171 1.387 . S
H169 C165 0.950 . S
H170 C167 0.950 . S
C171 C162 1.390 . S
C171 H164 0.950 . S
C171 C168 1.387 . S
C172 C173 1.387 . S
C172 H176 0.950 . S
C172 C181 1.390 . S
C173 C172 1.387 . S
C173 C175 1.387 . S
H174 C181 0.950 . S
C175 C173 1.387 . S
C175 C177 1.390 . S
C175 H179 0.950 . S
H176 C172 0.950 . S
C177 C175 1.390 . S
C177 C178 1.387 . S
C177 H180 0.950 . S
C178 C177 1.387 . S
C178 C181 1.387 . S
H179 C175 0.950 . S
H180 C177 0.950 . S
C181 C172 1.390 . S
C181 H174 0.950 . S
C181 C178 1.387 . S
C182 C183 1.387 . S
C182 H186 0.950 . S
C182 C191 1.390 1_554 S
C183 C182 1.387 . S
C183 C185 1.387 . S
H184 C191 0.950 . S
C185 C183 1.387 . S
C185 C187 1.390 1_554 S
C185 H189 0.950 . S
H186 C182 0.950 . S
C187 C185 1.390 1_556 S
C187 C188 1.387 . S
C187 H190 0.950 . S
C188 C187 1.387 . S
C188 C191 1.387 . S
H189 C185 0.950 . S
H190 C187 0.950 . S
C191 C182 1.390 1_556 S
C191 H184 0.950 . S
C191 C188 1.387 . S
C192 C193 1.387 . S
C192 H196 0.950 . S
C192 C201 1.390 1_445 S
C193 C192 1.387 . S
C193 C195 1.387 . S
H194 C201 0.950 . S
C195 C193 1.387 . S
C195 C197 1.390 1_445 S
C195 H199 0.950 . S
H196 C192 0.950 . S
C197 C195 1.390 1_665 S
C197 C198 1.387 . S
C197 H200 0.950 . S
C198 C197 1.387 . S
C198 C201 1.387 . S
H199 C195 0.950 . S
H200 C197 0.950 . S
C201 C192 1.390 1_665 S
C201 H194 0.950 . S
C201 C198 1.387 . S
C202 C203 1.387 . S
C202 H206 0.950 . S
C202 C211 1.390 1_455 S
C203 C202 1.387 . S
C203 C205 1.387 . S
H204 C211 0.950 . S
C205 C203 1.387 . S
C205 C207 1.390 1_455 S
C205 H209 0.950 . S
H206 C202 0.950 . S
C207 C205 1.390 1_655 S
C207 C208 1.387 . S
C207 H210 0.950 . S
C208 C207 1.387 . S
C208 C211 1.387 . S
H209 C205 0.950 . S
H210 C207 0.950 . S
C211 C202 1.390 1_655 S
C211 H204 0.950 . S
C211 C208 1.387 . S
C212 C213 1.387 . S
C212 H216 0.950 . S
C212 C221 1.390 . S
C213 C212 1.387 . S
C213 C215 1.387 . S
H214 C221 0.950 . S
C215 C213 1.387 . S
C215 C217 1.390 . S
C215 H219 0.950 . S
H216 C212 0.950 . S
C217 C215 1.390 . S
C217 C218 1.387 . S
C217 H220 0.950 . S
C218 C217 1.387 . S
C218 C221 1.387 . S
H219 C215 0.950 . S
H220 C217 0.950 . S
C221 C212 1.390 . S
C221 H214 0.950 . S
C221 C218 1.387 . S
C222 C223 1.387 . S
C222 H226 0.950 . S
C222 C231 1.390 1_565 S
C223 C222 1.387 . S
C223 C225 1.387 . S
H224 C231 0.950 . S
C225 C223 1.387 . S
C225 C227 1.390 1_565 S
C225 H229 0.950 . S
H226 C222 0.950 . S
C227 C225 1.390 1_545 S
C227 C228 1.387 . S
C227 H230 0.950 . S
C228 C227 1.387 . S
C228 C231 1.387 . S
H229 C225 0.950 . S
H230 C227 0.950 . S
C231 C222 1.390 1_545 S
C231 H224 0.950 . S
C231 C228 1.387 . S
C232 C233 1.387 . S
C232 H236 0.950 . S
C232 C241 1.390 1_655 S
C233 C232 1.387 . S
C233 C235 1.387 . S
H234 C241 0.950 . S
C235 C233 1.387 . S
C235 C237 1.390 1_655 S
C235 H239 0.950 . S
H236 C232 0.950 . S
C237 C235 1.390 1_455 S
C237 C238 1.387 . S
C237 H240 0.950 . S
C238 C237 1.387 . S
C238 C241 1.387 . S
H239 C235 0.950 . S
H240 C237 0.950 . S
C241 C232 1.390 1_455 S
C241 H234 0.950 . S
C241 C238 1.387 . S
C242 C243 1.387 . S
C242 H246 0.950 . S
C242 C251 1.390 . S
C243 C242 1.387 . S
C243 C245 1.387 . S
H244 C251 0.950 . S
C245 C243 1.387 . S
C245 C247 1.390 . S
C245 H249 0.950 . S
H246 C242 0.950 . S
C247 C245 1.390 . S
C247 C248 1.387 . S
C247 H250 0.950 . S
C248 C247 1.387 . S
C248 C251 1.387 . S
H249 C245 0.950 . S
H250 C247 0.950 . S
C251 C242 1.390 . S
C251 H244 0.950 . S
C251 C248 1.387 . S
C252 C253 1.387 . S
C252 H256 0.950 . S
C252 C261 1.390 1_545 S
C253 C252 1.387 . S
C253 C255 1.387 . S
H254 C261 0.950 . S
C255 C253 1.387 . S
C255 C257 1.390 1_545 S
C255 H259 0.950 . S
H256 C252 0.950 . S
C257 C255 1.390 1_565 S
C257 C258 1.387 . S
C257 H260 0.950 . S
C258 C257 1.387 . S
C258 C261 1.387 . S
H259 C255 0.950 . S
H260 C257 0.950 . S
C261 C252 1.390 1_565 S
C261 H254 0.950 . S
C261 C258 1.387 . S
C262 C263 1.387 . S
C262 H266 0.950 . S
C262 C271 1.390 1_665 S
C263 C262 1.387 . S
C263 C265 1.387 . S
H264 C271 0.950 . S
C265 C263 1.387 . S
C265 C267 1.390 1_665 S
C265 H269 0.950 . S
H266 C262 0.950 . S
C267 C265 1.390 1_445 S
C267 C268 1.387 . S
C267 H270 0.950 . S
C268 C267 1.387 . S
C268 C271 1.387 . S
H269 C265 0.950 . S
H270 C267 0.950 . S
C271 C262 1.390 1_445 S
C271 H264 0.950 . S
C271 C268 1.387 . S
C113 C3 1.321 . S
C118 C73 1.322 . S
C123 C21 1.342 . S
C128 C91 1.341 . S
C133 C31 1.319 . S
C138 C101 1.321 . S
C143 C49 1.340 . S
C148 C63 1.341 . S
C153 C105 1.342 . S
C158 C7 1.342 . S
C163 C59 1.322 . S
C168 C17 1.321 . S
C173 C35 1.341 . S
C178 C77 1.340 . S
C183 C87 1.322 . S
C188 C45 1.320 . S
C193 C9 1.586 . S
C198 C93 1.586 . S
C203 C106 1.572 . S
C208 C22 1.572 . S
C213 C37 1.586 . S
C218 C65 1.586 . S
C223 C50 1.572 . S
C228 C78 1.572 . S
C233 C92 1.573 . S
C238 C8 1.573 . S
C243 C107 1.586 . S
C248 C23 1.586 . S
C253 C36 1.573 . S
C258 C64 1.573 . S
C263 C51 1.586 . S
C268 C79 1.586 . S
