# Generated by pormake.
# Topology umk, (4)-cn, num edge types: 1
# Building blocks:
#     Node 0, Type 0, BuildingBlock: UXUYUI_clean_sbu_0, # of connection points: 4
#     Node 1, Type 0, BuildingBlock: UXUYUI_clean_sbu_0, # of connection points: 4
#     Node 2, Type 0, BuildingBlock: UXUYUI_clean_sbu_0, # of connection points: 4
#     Node 3, Type 0, BuildingBlock: UXUYUI_clean_sbu_0, # of connection points: 4
#     Node 4, Type 0, BuildingBlock: UXUYUI_clean_sbu_0, # of connection points: 4
#     Node 5, Type 0, BuildingBlock: UXUYUI_clean_sbu_0, # of connection points: 4
#     Node 6, Type 0, BuildingBlock: UXUYUI_clean_sbu_0, # of connection points: 4
#     Node 7, Type 0, BuildingBlock: UXUYUI_clean_sbu_0, # of connection points: 4
#     Node 8, Type 0, BuildingBlock: UXUYUI_clean_sbu_0, # of connection points: 4
#     Node 9, Type 0, BuildingBlock: UXUYUI_clean_sbu_0, # of connection points: 4
#     Node 10, Type 0, BuildingBlock: UXUYUI_clean_sbu_0, # of connection points: 4
#     Node 11, Type 0, BuildingBlock: UXUYUI_clean_sbu_0, # of connection points: 4
#     Node 12, Type 0, BuildingBlock: UXUYUI_clean_sbu_0, # of connection points: 4
#     Node 13, Type 0, BuildingBlock: UXUYUI_clean_sbu_0, # of connection points: 4
#     Node 14, Type 0, BuildingBlock: UXUYUI_clean_sbu_0, # of connection points: 4
#     Node 15, Type 0, BuildingBlock: UXUYUI_clean_sbu_0, # of connection points: 4
#     Node 16, Type 0, BuildingBlock: UXUYUI_clean_sbu_0, # of connection points: 4
#     Node 17, Type 0, BuildingBlock: UXUYUI_clean_sbu_0, # of connection points: 4
#     Node 18, Type 0, BuildingBlock: UXUYUI_clean_sbu_0, # of connection points: 4
#     Node 19, Type 0, BuildingBlock: UXUYUI_clean_sbu_0, # of connection points: 4
#     Node 20, Type 0, BuildingBlock: UXUYUI_clean_sbu_0, # of connection points: 4
#     Node 21, Type 0, BuildingBlock: UXUYUI_clean_sbu_0, # of connection points: 4
#     Node 22, Type 0, BuildingBlock: UXUYUI_clean_sbu_0, # of connection points: 4
#     Node 23, Type 0, BuildingBlock: UXUYUI_clean_sbu_0, # of connection points: 4
#     Edge 24, Type (0, 0), BuildingBlock: OJICUG_clean_linker_0, # of connection points: 2
#     Edge 25, Type (0, 0), BuildingBlock: OJICUG_clean_linker_0, # of connection points: 2
#     Edge 26, Type (0, 0), BuildingBlock: OJICUG_clean_linker_0, # of connection points: 2
#     Edge 27, Type (0, 0), BuildingBlock: OJICUG_clean_linker_0, # of connection points: 2
#     Edge 28, Type (0, 0), BuildingBlock: OJICUG_clean_linker_0, # of connection points: 2
#     Edge 29, Type (0, 0), BuildingBlock: OJICUG_clean_linker_0, # of connection points: 2
#     Edge 30, Type (0, 0), BuildingBlock: OJICUG_clean_linker_0, # of connection points: 2
#     Edge 31, Type (0, 0), BuildingBlock: OJICUG_clean_linker_0, # of connection points: 2
#     Edge 32, Type (0, 0), BuildingBlock: OJICUG_clean_linker_0, # of connection points: 2
#     Edge 33, Type (0, 0), BuildingBlock: OJICUG_clean_linker_0, # of connection points: 2
#     Edge 34, Type (0, 0), BuildingBlock: OJICUG_clean_linker_0, # of connection points: 2
#     Edge 35, Type (0, 0), BuildingBlock: OJICUG_clean_linker_0, # of connection points: 2
#     Edge 36, Type (0, 0), BuildingBlock: OJICUG_clean_linker_0, # of connection points: 2
#     Edge 37, Type (0, 0), BuildingBlock: OJICUG_clean_linker_0, # of connection points: 2
#     Edge 38, Type (0, 0), BuildingBlock: OJICUG_clean_linker_0, # of connection points: 2
#     Edge 39, Type (0, 0), BuildingBlock: OJICUG_clean_linker_0, # of connection points: 2
#     Edge 40, Type (0, 0), BuildingBlock: OJICUG_clean_linker_0, # of connection points: 2
#     Edge 41, Type (0, 0), BuildingBlock: OJICUG_clean_linker_0, # of connection points: 2
#     Edge 42, Type (0, 0), BuildingBlock: OJICUG_clean_linker_0, # of connection points: 2
#     Edge 43, Type (0, 0), BuildingBlock: OJICUG_clean_linker_0, # of connection points: 2
#     Edge 44, Type (0, 0), BuildingBlock: OJICUG_clean_linker_0, # of connection points: 2
#     Edge 45, Type (0, 0), BuildingBlock: OJICUG_clean_linker_0, # of connection points: 2
#     Edge 46, Type (0, 0), BuildingBlock: OJICUG_clean_linker_0, # of connection points: 2
#     Edge 47, Type (0, 0), BuildingBlock: OJICUG_clean_linker_0, # of connection points: 2
#     Edge 48, Type (0, 0), BuildingBlock: OJICUG_clean_linker_0, # of connection points: 2
#     Edge 49, Type (0, 0), BuildingBlock: OJICUG_clean_linker_0, # of connection points: 2
#     Edge 50, Type (0, 0), BuildingBlock: OJICUG_clean_linker_0, # of connection points: 2
#     Edge 51, Type (0, 0), BuildingBlock: OJICUG_clean_linker_0, # of connection points: 2
#     Edge 52, Type (0, 0), BuildingBlock: OJICUG_clean_linker_0, # of connection points: 2
#     Edge 53, Type (0, 0), BuildingBlock: OJICUG_clean_linker_0, # of connection points: 2
#     Edge 54, Type (0, 0), BuildingBlock: OJICUG_clean_linker_0, # of connection points: 2
#     Edge 55, Type (0, 0), BuildingBlock: OJICUG_clean_linker_0, # of connection points: 2
#     Edge 56, Type (0, 0), BuildingBlock: OJICUG_clean_linker_0, # of connection points: 2
#     Edge 57, Type (0, 0), BuildingBlock: OJICUG_clean_linker_0, # of connection points: 2
#     Edge 58, Type (0, 0), BuildingBlock: OJICUG_clean_linker_0, # of connection points: 2
#     Edge 59, Type (0, 0), BuildingBlock: OJICUG_clean_linker_0, # of connection points: 2
#     Edge 60, Type (0, 0), BuildingBlock: OJICUG_clean_linker_0, # of connection points: 2
#     Edge 61, Type (0, 0), BuildingBlock: OJICUG_clean_linker_0, # of connection points: 2
#     Edge 62, Type (0, 0), BuildingBlock: OJICUG_clean_linker_0, # of connection points: 2
#     Edge 63, Type (0, 0), BuildingBlock: OJICUG_clean_linker_0, # of connection points: 2
#     Edge 64, Type (0, 0), BuildingBlock: OJICUG_clean_linker_0, # of connection points: 2
#     Edge 65, Type (0, 0), BuildingBlock: OJICUG_clean_linker_0, # of connection points: 2
#     Edge 66, Type (0, 0), BuildingBlock: OJICUG_clean_linker_0, # of connection points: 2
#     Edge 67, Type (0, 0), BuildingBlock: OJICUG_clean_linker_0, # of connection points: 2
#     Edge 68, Type (0, 0), BuildingBlock: OJICUG_clean_linker_0, # of connection points: 2
#     Edge 69, Type (0, 0), BuildingBlock: OJICUG_clean_linker_0, # of connection points: 2
#     Edge 70, Type (0, 0), BuildingBlock: OJICUG_clean_linker_0, # of connection points: 2
#     Edge 71, Type (0, 0), BuildingBlock: OJICUG_clean_linker_0, # of connection points: 2
# Relax obj value: 0.190
# Max RMSD: 0.162
# Mean RMSD: 0.162
data_MOF--net-umk--node1-UXUYUI_clean_sbu_0--edge1-OJICUG_clean_linker_0
_symmetry_space_group_name_H-M    P1
_symmetry_Int_Tables_number       1
_symmetry_cell_setting            triclinic
loop_
_symmetry_equiv_pos_as_xyz
'x, y, z'
_cell_length_a     79.510987
_cell_length_b     79.508112
_cell_length_c     50.770264
_cell_angle_alpha  90.006651
_cell_angle_beta   89.979006
_cell_angle_gamma 120.02231
loop_
_atom_site_label
_atom_site_type_symbol
_atom_site_fract_x
_atom_site_fract_y
_atom_site_fract_z
_atom_type_partial_charge
Li0 Li 0.32989 0.458 0.09809 0.0
Li1 Li 0.33247 0.43903 0.06272 0.0
Li2 Li 0.34702 0.47547 0.05892 0.0
Li3 Li 0.31152 0.45365 0.0574 0.0
C4 C 0.36369 0.46083 0.10527 0.0
N5 N 0.3822 0.46188 0.15175 0.0
C6 C 0.35961 0.44354 0.11778 0.0
C7 C 0.37729 0.47864 0.11621 0.0
C8 C 0.3691 0.44438 0.14132 0.0
C9 C 0.38647 0.47887 0.13977 0.0
C10 C 0.29361 0.4151 0.07604 0.0
C11 C 0.27447 0.39182 0.04252 0.0
N12 N 0.2634 0.37902 0.06158 0.0
C13 C 0.28201 0.40173 0.0953 0.0
C14 C 0.28979 0.41012 0.04945 0.0
C15 C 0.26682 0.38357 0.08759 0.0
C16 C 0.33749 0.47643 0.1484 0.0
N17 N 0.32926 0.45915 0.13551 0.0
C18 C 0.32051 0.44187 0.17633 0.0
C19 C 0.32089 0.44203 0.14884 0.0
C20 C 0.32894 0.45953 0.19021 0.0
C21 C 0.33753 0.47697 0.17585 0.0
H22 H 0.34428 0.48983 0.13747 0.0
H23 H 0.31471 0.42851 0.13809 0.0
C24 C 0.35371 0.42465 0.03875 0.0
N25 N 0.33771 0.41902 0.05393 0.0
C26 C 0.36065 0.41194 0.03401 0.0
C27 C 0.33401 0.38754 0.05976 0.0
C28 C 0.32769 0.40082 0.06423 0.0
C29 C 0.351 0.3932 0.04502 0.0
H30 H 0.36154 0.43935 0.03125 0.0
H31 H 0.31528 0.39681 0.07676 0.0
C32 C 0.33107 0.49639 0.08131 0.0
N33 N 0.3406 0.53479 0.08613 0.0
C34 C 0.31809 0.50229 0.07285 0.0
C35 C 0.34889 0.51003 0.09223 0.0
C36 C 0.32318 0.52177 0.07546 0.0
C37 C 0.35345 0.52937 0.0945 0.0
C38 C 0.33037 0.45407 0.00631 0.0
C39 C 0.33453 0.47073 0.992 0.0
C40 C 0.32566 0.4369 0.99289 0.0
C41 C 0.33351 0.46984 0.96452 0.0
C42 C 0.3248 0.4366 0.96539 0.0
N43 N 0.3287 0.45293 0.9519 0.0
C44 C 0.38559 0.49838 0.04307 0.0
C45 C 0.36641 0.51297 0.03461 0.0
C46 C 0.4019 0.51433 0.0322 0.0
N47 N 0.36835 0.49805 0.0442 0.0
C48 C 0.38244 0.52938 0.02412 0.0
C49 C 0.4004 0.5301 0.0228 0.0
H50 H 0.38663 0.48619 0.05056 0.0
H51 H 0.35243 0.51214 0.035 0.0
C52 C 0.27076 0.43883 0.05231 0.0
N53 N 0.28861 0.45142 0.04233 0.0
C54 C 0.25417 0.43786 0.04151 0.0
C55 C 0.27467 0.46343 0.01117 0.0
C56 C 0.29083 0.46371 0.02232 0.0
C57 C 0.25607 0.45034 0.02076 0.0
H58 H 0.26937 0.42976 0.06894 0.0
H59 H 0.30519 0.4741 0.01547 0.0
O60 O 0.35409 0.4603 0.08269 0.0
O61 O 0.30863 0.43289 0.08335 0.0
O62 O 0.32636 0.4774 0.0786 0.0
O63 O 0.33163 0.45473 0.03324 0.0
H64 H 0.34904 0.42964 0.1096 0.0
H65 H 0.38063 0.49214 0.10668 0.0
H66 H 0.36599 0.43113 0.15135 0.0
H67 H 0.39696 0.49255 0.14856 0.0
H68 H 0.27135 0.38782 0.02199 0.0
H69 H 0.28468 0.40534 0.11599 0.0
H70 H 0.29838 0.42034 0.03433 0.0
H71 H 0.25775 0.37308 0.10229 0.0
H72 H 0.31357 0.42807 0.18654 0.0
H73 H 0.34451 0.49092 0.1857 0.0
H74 H 0.37401 0.41715 0.023 0.0
H75 H 0.326 0.3732 0.06845 0.0
H76 H 0.3042 0.49193 0.06445 0.0
H77 H 0.35929 0.50582 0.09834 0.0
H78 H 0.31327 0.52653 0.06901 0.0
H79 H 0.36725 0.54009 0.10275 0.0
H80 H 0.33839 0.48418 0.00197 0.0
H81 H 0.32276 0.42394 0.00354 0.0
H82 H 0.33658 0.48261 0.95324 0.0
H83 H 0.32111 0.42339 0.95479 0.0
H84 H 0.41558 0.51446 0.03143 0.0
H85 H 0.38076 0.54124 0.0167 0.0
H86 H 0.24006 0.42785 0.04976 0.0
H87 H 0.2767 0.47334 0.99525 0.0
Li88 Li 0.8921 0.33343 0.56461 0.0
Li89 Li 0.86933 0.33116 0.59901 0.0
Li90 Li 0.85736 0.31283 0.55638 0.0
Li91 Li 0.87039 0.34795 0.55775 0.0
C92 C 0.88011 0.29766 0.5883 0.0
N93 N 0.89461 0.27285 0.59566 0.0
C94 C 0.88401 0.29374 0.61371 0.0
C95 C 0.88338 0.2888 0.56668 0.0
C96 C 0.8914 0.2812 0.61701 0.0
C97 C 0.89077 0.27635 0.57079 0.0
C98 C 0.9008 0.36917 0.60201 0.0
C99 C 0.90303 0.39559 0.62805 0.0
N100 N 0.91971 0.39809 0.63912 0.0
C101 C 0.91812 0.3722 0.61335 0.0
C102 C 0.89332 0.38111 0.60916 0.0
C103 C 0.92739 0.38681 0.63219 0.0
C104 C 0.92741 0.34744 0.53745 0.0
N105 N 0.91757 0.33789 0.55949 0.0
C106 C 0.946 0.33936 0.57746 0.0
C107 C 0.92636 0.3336 0.57919 0.0
C108 C 0.95686 0.35014 0.55556 0.0
C109 C 0.94719 0.35374 0.53504 0.0
H110 H 0.92011 0.351 0.52234 0.0
H111 H 0.91842 0.32658 0.59688 0.0
C112 C 0.84939 0.32584 0.64793 0.0
N113 N 0.8666 0.33069 0.63615 0.0
C114 C 0.84812 0.32592 0.67539 0.0
C115 C 0.88216 0.33561 0.67791 0.0
C116 C 0.88271 0.33517 0.65051 0.0
C117 C 0.86473 0.33105 0.69068 0.0
H118 H 0.83666 0.32185 0.63607 0.0
H119 H 0.89597 0.3382 0.64065 0.0
C120 C 0.87424 0.32678 0.50744 0.0
N121 N 0.86791 0.3141 0.45581 0.0
C122 C 0.86377 0.33202 0.49049 0.0
C123 C 0.88184 0.31546 0.49798 0.0
C124 C 0.86062 0.32535 0.4645 0.0
C125 C 0.87839 0.30909 0.47186 0.0
C126 C 0.83321 0.33243 0.57958 0.0
C127 C 0.81584 0.32273 0.56542 0.0
C128 C 0.83621 0.34732 0.59692 0.0
C129 C 0.80188 0.32835 0.56852 0.0
C130 C 0.82191 0.35252 0.59948 0.0
N131 N 0.80519 0.34302 0.58531 0.0
C132 C 0.83426 0.27203 0.55027 0.0
C133 C 0.82742 0.29073 0.5204 0.0
C134 C 0.81957 0.25483 0.53927 0.0
N135 N 0.83796 0.2895 0.5406 0.0
C136 C 0.81266 0.27392 0.50876 0.0
C137 C 0.80853 0.25566 0.51826 0.0
H138 H 0.84246 0.27141 0.56681 0.0
H139 H 0.83015 0.30477 0.51374 0.0
C140 C 0.88638 0.38662 0.54175 0.0
N141 N 0.8695 0.36934 0.54255 0.0
C142 C 0.88687 0.4029 0.53057 0.0
C143 C 0.85262 0.38322 0.52094 0.0
C144 C 0.85284 0.3673 0.53213 0.0
C145 C 0.8698 0.40136 0.52004 0.0
H146 H 0.89952 0.38773 0.54965 0.0
H147 H 0.83974 0.3533 0.53224 0.0
O148 O 0.87307 0.31006 0.58471 0.0
O149 O 0.89151 0.35489 0.58355 0.0
O150 O 0.87749 0.3332 0.53293 0.0
O151 O 0.8471 0.32721 0.5766 0.0
H152 H 0.88142 0.30035 0.63069 0.0
H153 H 0.88015 0.29144 0.54697 0.0
H154 H 0.89456 0.27811 0.63655 0.0
H155 H 0.89341 0.26943 0.55422 0.0
H156 H 0.89736 0.40489 0.63382 0.0
H157 H 0.92425 0.36325 0.60784 0.0
H158 H 0.88028 0.37939 0.60004 0.0
H159 H 0.94071 0.38919 0.64129 0.0
H160 H 0.95276 0.33605 0.59362 0.0
H161 H 0.95499 0.36225 0.51799 0.0
H162 H 0.8344 0.32226 0.68455 0.0
H163 H 0.89516 0.33917 0.689 0.0
H164 H 0.85797 0.34096 0.49741 0.0
H165 H 0.89047 0.31176 0.51058 0.0
H166 H 0.85238 0.32914 0.45124 0.0
H167 H 0.88412 0.30024 0.46431 0.0
H168 H 0.81318 0.31104 0.55211 0.0
H169 H 0.84935 0.35466 0.60846 0.0
H170 H 0.78842 0.32105 0.55757 0.0
H171 H 0.82407 0.36406 0.61278 0.0
H172 H 0.81685 0.24104 0.54719 0.0
H173 H 0.80418 0.27523 0.49303 0.0
H174 H 0.90055 0.41644 0.52983 0.0
H175 H 0.83908 0.38133 0.51325 0.0
Li176 Li 0.55567 0.8934 0.06596 0.0
Li177 Li 0.53674 0.87053 0.10081 0.0
Li178 Li 0.54253 0.85938 0.05893 0.0
Li179 Li 0.52041 0.8721 0.06185 0.0
C180 C 0.58091 0.8871 0.09167 0.0
N181 N 0.61959 0.91175 0.10359 0.0
C182 C 0.58655 0.89317 0.11762 0.0
C183 C 0.59496 0.89349 0.0718 0.0
C184 C 0.60618 0.90564 0.12324 0.0
C185 C 0.61443 0.90598 0.07822 0.0
C186 C 0.52498 0.90271 0.08803 0.0
C187 C 0.49632 0.90446 0.09864 0.0
N188 N 0.50402 0.92183 0.08596 0.0
C189 C 0.53264 0.92061 0.0752 0.0
C190 C 0.50671 0.8946 0.09997 0.0
C191 C 0.52181 0.93004 0.07435 0.0
C192 C 0.57985 0.92614 0.03456 0.0
N193 N 0.5761 0.91902 0.05952 0.0
C194 C 0.59872 0.95011 0.07711 0.0
C195 C 0.58522 0.93049 0.08064 0.0
C196 C 0.60239 0.95803 0.05167 0.0
C197 C 0.593 0.9458 0.03015 0.0
H198 H 0.57202 0.91676 0.01821 0.0
H199 H 0.58142 0.92457 0.10031 0.0
C200 C 0.53973 0.85451 0.14933 0.0
N201 N 0.53496 0.86702 0.13789 0.0
C202 C 0.53938 0.85268 0.17671 0.0
C203 C 0.52938 0.87676 0.17993 0.0
C204 C 0.52982 0.87803 0.15254 0.0
C205 C 0.53435 0.86407 0.19235 0.0
H206 H 0.54419 0.84625 0.13718 0.0
H207 H 0.5264 0.88808 0.14299 0.0
C208 C 0.54122 0.87079 0.01137 0.0
N209 N 0.54172 0.85365 0.96428 0.0
C210 C 0.52379 0.85784 -0.00109 0.0
C211 C 0.5589 0.87513 -0.00017 0.0
C212 C 0.52435 0.84931 0.97511 0.0
C213 C 0.55884 0.86627 0.97603 0.0
C214 C 0.50842 0.83472 0.09731 0.0
C215 C 0.51368 0.82058 0.10146 0.0
C216 C 0.49416 0.83496 0.11315 0.0
C217 C 0.50459 0.80692 0.12151 0.0
C218 C 0.48545 0.82108 0.13303 0.0
N219 N 0.4908 0.80746 0.13676 0.0
C220 C 0.5639 0.8421 0.03915 0.0
C221 C 0.52979 0.8242 0.03296 0.0
C222 C 0.566 0.82769 0.02644 0.0
N223 N 0.546 0.84009 0.04209 0.0
C224 C 0.53118 0.80938 0.02034 0.0
C225 C 0.54947 0.81099 0.01692 0.0
H226 H 0.57654 0.85489 0.04661 0.0
H227 H 0.51574 0.82301 0.03568 0.0
C228 C 0.49982 0.88543 0.03207 0.0
N229 N 0.49761 0.87049 0.04746 0.0
C230 C 0.48364 0.88518 0.02106 0.0
C231 C 0.46325 0.85377 0.04106 0.0
C232 C 0.47984 0.85475 0.05198 0.0
C233 C 0.465 0.86917 0.0254 0.0
H234 H 0.51419 0.89761 0.02849 0.0
H235 H 0.47857 0.84288 0.06384 0.0
O236 O 0.56174 0.87498 0.08574 0.0
O237 O 0.53521 0.89307 0.08871 0.0
O238 O 0.54096 0.87882 0.03507 0.0
O239 O 0.51738 0.84843 0.07809 0.0
H240 H 0.57589 0.88844 0.13324 0.0
H241 H 0.59084 0.88915 0.05156 0.0
H242 H 0.61074 0.91051 0.14323 0.0
H243 H 0.62544 0.91115 0.06301 0.0
H244 H 0.48211 0.89829 0.10762 0.0
H245 H 0.54671 0.92711 0.06578 0.0
H246 H 0.50052 0.88071 0.10986 0.0
H247 H 0.52752 0.94386 0.06439 0.0
H248 H 0.60537 0.9592 0.09421 0.0
H249 H 0.59539 0.9515 0.01028 0.0
H250 H 0.54357 0.84292 0.18555 0.0
H251 H 0.52527 0.88568 0.19127 0.0
H252 H 0.50998 0.85423 0.00767 0.0
H253 H 0.57251 0.88504 0.00931 0.0
H254 H 0.51098 0.83918 0.96531 0.0
H255 H 0.57241 0.86939 0.96695 0.0
H256 H 0.52482 0.82029 0.08958 0.0
H257 H 0.49001 0.84588 0.11032 0.0
H258 H 0.50857 0.79594 0.12502 0.0
H259 H 0.47447 0.82116 0.14553 0.0
H260 H 0.58041 0.82966 0.02398 0.0
H261 H 0.518 0.79665 0.0138 0.0
H262 H 0.48576 0.89752 0.00948 0.0
H263 H 0.44926 0.84096 0.04455 0.0
Li264 Li 0.66106 0.55617 0.56023 0.0
Li265 Li 0.66408 0.5374 0.59561 0.0
Li266 Li 0.68223 0.54185 0.55434 0.0
Li267 Li 0.64688 0.5198 0.55673 0.0
C268 C 0.70014 0.58029 0.57425 0.0
N269 N 0.73069 0.61674 0.56208 0.0
C270 C 0.71052 0.59347 0.59434 0.0
C271 C 0.70537 0.58561 0.548 0.0
C272 C 0.72589 0.61184 0.58778 0.0
C273 C 0.72084 0.60411 0.54224 0.0
C274 C 0.62983 0.53386 0.60299 0.0
C275 C 0.60874 0.51534 0.63879 0.0
N276 N 0.61062 0.53197 0.64919 0.0
C277 C 0.63145 0.55074 0.6139 0.0
C278 C 0.61829 0.51598 0.61539 0.0
C279 C 0.62165 0.54949 0.63731 0.0
C280 C 0.63902 0.57019 0.53767 0.0
N281 N 0.65553 0.57608 0.5518 0.0
C282 C 0.65937 0.60763 0.55749 0.0
C283 C 0.66587 0.59444 0.56147 0.0
C284 C 0.64189 0.60172 0.54386 0.0
C285 C 0.63191 0.58282 0.53342 0.0
H286 H 0.63095 0.55537 0.53065 0.0
H287 H 0.67872 0.59869 0.57315 0.0
C288 C 0.66128 0.52008 0.64578 0.0
N289 N 0.66508 0.5366 0.63293 0.0
C290 C 0.6612 0.51958 0.67326 0.0
C291 C 0.66925 0.55321 0.67371 0.0
C292 C 0.66921 0.55306 0.64624 0.0
C293 C 0.6651 0.53627 0.68759 0.0
H294 H 0.65816 0.50724 0.63476 0.0
H295 H 0.67224 0.566 0.63544 0.0
C296 C 0.66246 0.54234 0.50387 0.0
N297 N 0.66297 0.54603 0.44969 0.0
C298 C 0.65678 0.52612 0.48776 0.0
C299 C 0.66818 0.56041 0.49239 0.0
C300 C 0.65722 0.52829 0.46042 0.0
C301 C 0.66839 0.56198 0.46497 0.0
C302 C 0.66337 0.49911 0.57537 0.0
C303 C 0.67523 0.49385 0.56149 0.0
C304 C 0.64689 0.48485 0.58842 0.0
C305 C 0.67031 0.47435 0.56077 0.0
C306 C 0.64246 0.46551 0.5872 0.0
N307 N 0.65416 0.4607 0.57351 0.0
C308 C 0.72197 0.5534 0.55395 0.0
C309 C 0.70509 0.53809 0.51471 0.0
C310 C 0.73905 0.55494 0.544 0.0
N311 N 0.70547 0.54505 0.53926 0.0
C312 C 0.7218 0.5393 0.504 0.0
C313 C 0.73903 0.54763 0.5188 0.0
H314 H 0.72174 0.55854 0.5736 0.0
H315 H 0.69173 0.53118 0.50366 0.0
C316 C 0.60779 0.49585 0.5435 0.0
N317 N 0.62542 0.49699 0.54248 0.0
C318 C 0.59144 0.47982 0.53285 0.0
C319 C 0.61162 0.46628 0.52065 0.0
C320 C 0.62765 0.48277 0.53097 0.0
C321 C 0.5933 0.46478 0.52146 0.0
H322 H 0.60648 0.5075 0.55241 0.0
H323 H 0.64188 0.48427 0.52951 0.0
O324 O 0.68503 0.56228 0.58044 0.0
O325 O 0.63973 0.53486 0.58049 0.0
O326 O 0.66181 0.54043 0.53072 0.0
O327 O 0.66798 0.51814 0.57626 0.0
H328 H 0.70669 0.58954 0.61478 0.0
H329 H 0.69769 0.57552 0.53227 0.0
H330 H 0.73402 0.6222 0.60312 0.0
H331 H 0.72504 0.6084 0.522 0.0
H332 H 0.59985 0.50163 0.64871 0.0
H333 H 0.64037 0.56469 0.60455 0.0
H334 H 0.61682 0.50278 0.6071 0.0
H335 H 0.62288 0.56245 0.64609 0.0
H336 H 0.66764 0.6221 0.56569 0.0
H337 H 0.61819 0.57744 0.52325 0.0
H338 H 0.65777 0.50617 0.68317 0.0
H339 H 0.67262 0.56648 0.68395 0.0
H340 H 0.65233 0.51205 0.49624 0.0
H341 H 0.67233 0.5731 0.50447 0.0
H342 H 0.65298 0.51587 0.44774 0.0
H343 H 0.67283 0.57588 0.45585 0.0
H344 H 0.68809 0.5047 0.5514 0.0
H345 H 0.63744 0.48863 0.59901 0.0
H346 H 0.67934 0.47007 0.55006 0.0
H347 H 0.62968 0.4543 0.59705 0.0
H348 H 0.75195 0.56122 0.5562 0.0
H349 H 0.72119 0.53363 0.4844 0.0
H350 H 0.57747 0.47909 0.53369 0.0
H351 H 0.61357 0.45502 0.51163 0.0
Li352 Li 0.12786 0.66523 0.0982 0.0
Li353 Li 0.10343 0.66262 0.06657 0.0
Li354 Li 0.12375 0.64813 0.05751 0.0
Li355 Li 0.13721 0.68314 0.05662 0.0
C356 C 0.09449 0.62191 0.08487 0.0
N357 N 0.07495 0.58193 0.08004 0.0
C358 C 0.07649 0.61229 0.07219 0.0
C359 C 0.1025 0.61118 0.09524 0.0
C360 C 0.06684 0.59207 0.06994 0.0
C361 C 0.09242 0.59098 0.09253 0.0
C362 C 0.11243 0.69429 0.09465 0.0
C363 C 0.09475 0.71099 0.08567 0.0
N364 N 0.0902 0.70998 0.11167 0.0
C365 C 0.10766 0.69349 0.1213 0.0
C366 C 0.10602 0.70319 0.07669 0.0
C367 C 0.09638 0.70149 0.12951 0.0
C368 C 0.14701 0.68279 0.14616 0.0
N369 N 0.1331 0.66608 0.13483 0.0
C370 C 0.12434 0.65019 0.1766 0.0
C371 C 0.12185 0.64995 0.1494 0.0
C372 C 0.13852 0.66725 0.18898 0.0
C373 C 0.15006 0.68366 0.17334 0.0
H374 H 0.1555 0.69551 0.13413 0.0
H375 H 0.11059 0.63702 0.14 0.0
C376 C 0.06861 0.65448 0.04031 0.0
N377 N 0.07767 0.65796 0.06403 0.0
C378 C 0.04866 0.64768 0.03911 0.0
C379 C 0.04813 0.64931 0.08663 0.0
C380 C 0.06793 0.65565 0.08693 0.0
C381 C 0.03804 0.64455 0.06256 0.0
H382 H 0.07665 0.65598 0.02245 0.0
H383 H 0.07538 0.65796 0.10552 0.0
C384 C 0.16335 0.67257 0.08972 0.0
N385 N 0.19312 0.68173 0.12507 0.0
C386 C 0.17854 0.69174 0.09208 0.0
C387 C 0.16333 0.65805 0.10528 0.0
C388 C 0.19346 0.69607 0.11006 0.0
C389 C 0.17849 0.66299 0.12307 0.0
C390 C 0.12243 0.67137 0.0094 0.0
C391 C 0.13322 0.66602 0.99326 0.0
C392 C 0.11827 0.68562 0.00093 0.0
C393 C 0.13988 0.67521 0.96894 0.0
C394 C 0.12522 0.69449 0.97649 0.0
N395 N 0.1358 0.68916 0.96114 0.0
C396 C 0.10917 0.61531 0.02465 0.0
C397 C 0.13902 0.62361 0.04547 0.0
C398 C 0.10866 0.59929 0.01258 0.0
N399 N 0.12409 0.62692 0.04092 0.0
C400 C 0.13915 0.60781 0.03374 0.0
C401 C 0.12378 0.59535 0.01713 0.0
H402 H 0.09762 0.61848 0.02116 0.0
H403 H 0.15079 0.6332 0.05826 0.0
C404 C 0.1567 0.72342 0.04408 0.0
N405 N 0.15613 0.70625 0.03993 0.0
C406 C 0.17133 0.74045 0.03259 0.0
C407 C 0.18431 0.72171 0.01263 0.0
C408 C 0.16953 0.7051 0.02462 0.0
C409 C 0.18543 0.73971 0.01672 0.0
H410 H 0.14599 0.72394 0.05662 0.0
H411 H 0.16891 0.69129 0.02213 0.0
O412 O 0.10439 0.64174 0.08677 0.0
O413 O 0.12335 0.68643 0.08621 0.0
O414 O 0.14849 0.66805 0.07243 0.0
O415 O 0.11613 0.66285 0.03351 0.0
H416 H 0.07008 0.62033 0.06395 0.0
H417 H 0.11649 0.61839 0.10495 0.0
H418 H 0.05294 0.58445 0.06008 0.0
H419 H 0.09852 0.58251 0.10028 0.0
H420 H 0.0896 0.71782 0.07196 0.0
H421 H 0.11247 0.68664 0.13548 0.0
H422 H 0.10956 0.7039 0.056 0.0
H423 H 0.0925 0.7009 0.15005 0.0
H424 H 0.11481 0.63733 0.18788 0.0
H425 H 0.16122 0.69708 0.18202 0.0
H426 H 0.04152 0.64395 0.02012 0.0
H427 H 0.04071 0.6475 0.10519 0.0
H428 H 0.17874 0.70318 0.08033 0.0
H429 H 0.15159 0.64318 0.1039 0.0
H430 H 0.20528 0.71085 0.11215 0.0
H431 H 0.1786 0.65192 0.13535 0.0
H432 H 0.13661 0.65506 -0.00042 0.0
H433 H 0.1099 0.68988 0.01317 0.0
H434 H 0.14835 0.67132 0.9563 0.0
H435 H 0.12223 0.70563 0.96974 0.0
H436 H 0.09669 0.59023 -0.00038 0.0
H437 H 0.15101 0.6052 0.03796 0.0
H438 H 0.17165 0.75404 0.03614 0.0
H439 H 0.19509 0.72056 0.00093 0.0
Li440 Li 0.45725 0.12506 0.60023 0.0
Li441 Li 0.43846 0.10257 0.56492 0.0
Li442 Li 0.47447 0.12545 0.55923 0.0
Li443 Li 0.4511 0.13654 0.55779 0.0
C444 C 0.46727 0.09426 0.59984 0.0
N445 N 0.48071 0.07408 0.62925 0.0
C446 C 0.45419 0.07668 0.61191 0.0
C447 C 0.48723 0.10131 0.60233 0.0
C448 C 0.46125 0.06678 0.62683 0.0
C449 C 0.49373 0.09097 0.61738 0.0
C450 C 0.41269 0.10949 0.58968 0.0
C451 C 0.37972 0.09158 0.57375 0.0
N452 N 0.37325 0.08713 0.59899 0.0
C453 C 0.4057 0.10487 0.61548 0.0
C454 C 0.3996 0.10293 0.56865 0.0
C455 C 0.38572 0.0935 0.61977 0.0
C456 C 0.46738 0.14514 0.64951 0.0
N457 N 0.45844 0.12746 0.63756 0.0
C458 C 0.449 0.1114 0.67918 0.0
C459 C 0.4492 0.11077 0.65176 0.0
C460 C 0.45838 0.12941 0.69212 0.0
C461 C 0.46772 0.14645 0.67697 0.0
H462 H 0.47409 0.15824 0.63777 0.0
H463 H 0.44158 0.09697 0.64176 0.0
C464 C 0.41584 0.06881 0.53439 0.0
N465 N 0.41834 0.07669 0.55882 0.0
C466 C 0.4028 0.04905 0.53054 0.0
C467 C 0.39474 0.04617 0.57686 0.0
C468 C 0.40786 0.06593 0.57977 0.0
C469 C 0.3924 0.03735 0.55211 0.0
H470 H 0.42448 0.07772 0.51811 0.0
H471 H 0.4103 0.07252 0.59904 0.0
C472 C 0.4937 0.16021 0.58914 0.0
N473 N 0.52988 0.18472 0.61053 0.0
C474 C 0.50385 0.17986 0.58219 0.0
C475 C 0.50187 0.15313 0.60724 0.0
C476 C 0.52215 0.192 0.59313 0.0
C477 C 0.52019 0.16571 0.61778 0.0
C478 C 0.45193 0.12502 0.50966 0.0
C479 C 0.46896 0.13842 0.49675 0.0
C480 C 0.43391 0.11941 0.49817 0.0
C481 C 0.46765 0.14621 0.47268 0.0
C482 C 0.43322 0.12754 0.47409 0.0
N483 N 0.44996 0.14067 0.46197 0.0
C484 C 0.49564 0.11072 0.53481 0.0
C485 C 0.51405 0.14477 0.54147 0.0
C486 C 0.51148 0.11078 0.52287 0.0
N487 N 0.49724 0.12752 0.54396 0.0
C488 C 0.53031 0.14548 0.52986 0.0
C489 C 0.52911 0.12833 0.52037 0.0
H490 H 0.48201 0.09725 0.53688 0.0
H491 H 0.51483 0.15802 0.54816 0.0
C492 C 0.42902 0.15381 0.54016 0.0
N493 N 0.44688 0.15552 0.54138 0.0
C494 C 0.42658 0.16805 0.52753 0.0
C495 C 0.46099 0.18553 0.51794 0.0
C496 C 0.46271 0.17091 0.53056 0.0
C497 C 0.44273 0.18423 0.51625 0.0
H498 H 0.41668 0.14142 0.54894 0.0
H499 H 0.47669 0.17176 0.53164 0.0
O500 O 0.46057 0.10399 0.58473 0.0
O501 O 0.43224 0.12045 0.58512 0.0
O502 O 0.47584 0.1481 0.57835 0.0
O503 O 0.45291 0.11763 0.53356 0.0
H504 H 0.43873 0.07077 0.61 0.0
H505 H 0.49769 0.11455 0.59263 0.0
H506 H 0.45124 0.05325 0.63643 0.0
H507 H 0.50913 0.09635 0.61951 0.0
H508 H 0.36945 0.08628 0.55764 0.0
H509 H 0.41558 0.11002 0.63201 0.0
H510 H 0.40474 0.10633 0.54858 0.0
H511 H 0.38012 0.08976 0.63963 0.0
H512 H 0.44162 0.09792 0.69015 0.0
H513 H 0.47482 0.16063 0.68623 0.0
H514 H 0.40129 0.0429 0.51106 0.0
H515 H 0.38734 0.03773 0.59416 0.0
H516 H 0.4977 0.18571 0.56846 0.0
H517 H 0.494 0.13818 0.61351 0.0
H518 H 0.53019 0.20721 0.58782 0.0
H519 H 0.52664 0.16038 0.63183 0.0
H520 H 0.48302 0.14296 0.5054 0.0
H521 H 0.4206 0.10895 0.50779 0.0
H522 H 0.48071 0.1567 0.46258 0.0
H523 H 0.41936 0.12342 0.46505 0.0
H524 H 0.51001 0.09723 0.51596 0.0
H525 H 0.54357 0.15935 0.5279 0.0
H526 H 0.4122 0.16633 0.52646 0.0
H527 H 0.47392 0.19785 0.50997 0.0
Li528 Li 0.52138 0.65139 0.94083 0.0
Li529 Li 0.54264 0.68591 0.94167 0.0
Li530 Li 0.53847 0.66661 0.9017 0.0
Li531 Li 0.55639 0.66371 0.93833 0.0
C532 C 0.50028 0.66687 0.92145 0.0
N533 N 0.46202 0.65804 0.92479 0.0
C534 C 0.49544 0.67897 0.93555 0.0
C535 C 0.48565 0.65029 0.90902 0.0
C536 C 0.47602 0.67425 0.937 0.0
C537 C 0.46639 0.64607 0.91096 0.0
C538 C 0.53135 0.66027 0.99063 0.0
C539 C 0.52152 0.63904 0.0284 0.0
N540 N 0.50943 0.64564 0.03587 0.0
C541 C 0.51886 0.66688 0.99872 0.0
C542 C 0.53276 0.64629 0.00562 0.0
C543 C 0.5079 0.65932 0.02166 0.0
C544 C 0.49818 0.61271 0.95599 0.0
N545 N 0.49841 0.62991 0.95547 0.0
C546 C 0.46752 0.6155 0.97695 0.0
C547 C 0.48363 0.63163 0.9661 0.0
C548 C 0.4668 0.59747 0.97768 0.0
C549 C 0.48254 0.59628 0.96714 0.0
H550 H 0.51034 0.61182 0.94809 0.0
H551 H 0.48433 0.64552 0.96646 0.0
C552 C 0.546 0.72246 0.93677 0.0
N553 N 0.5473 0.71021 0.95421 0.0
C554 C 0.54818 0.74011 0.94534 0.0
C555 C 0.55359 0.73241 0.98949 0.0
C556 C 0.55148 0.715 0.98001 0.0
C557 C 0.55166 0.74513 0.97215 0.0
H558 H 0.5429 0.7183 0.91629 0.0
H559 H 0.55279 0.70511 0.99333 0.0
C560 C 0.53426 0.6323 0.89625 0.0
N561 N 0.5321 0.61231 0.85072 0.0
C562 C 0.55116 0.63422 0.88493 0.0
C563 C 0.51626 0.62011 0.88459 0.0
C564 C 0.54976 0.62402 0.86186 0.0
C565 C 0.51547 0.61016 0.86152 0.0
C566 C 0.5808 0.70288 0.92389 0.0
C567 C 0.59305 0.71571 0.90461 0.0
C568 C 0.58642 0.7062 0.95034 0.0
C569 C 0.61082 0.73161 0.9121 0.0
C570 C 0.6043 0.72228 0.95704 0.0
N571 N 0.61603 0.73453 0.93794 0.0
C572 C 0.52106 0.66023 0.85115 0.0
C573 C 0.55518 0.67326 0.85131 0.0
C574 C 0.52071 0.65962 0.8237 0.0
N575 N 0.53809 0.66684 0.86431 0.0
C576 C 0.55554 0.67304 0.82383 0.0
C577 C 0.53811 0.66605 0.80971 0.0
H578 H 0.50772 0.65531 0.86191 0.0
H579 H 0.56848 0.6783 0.86235 0.0
C580 C 0.56914 0.63993 0.9582 0.0
N581 N 0.57598 0.65766 0.94693 0.0
C582 C 0.58143 0.63242 0.96233 0.0
C583 C 0.60778 0.6617 0.94348 0.0
C584 C 0.59491 0.66861 0.93959 0.0
C585 C 0.60099 0.6432 0.95455 0.0
H586 H 0.55385 0.63121 0.96281 0.0
H587 H 0.59993 0.68234 0.92974 0.0
O588 O 0.51927 0.67146 0.9195 0.0
O589 O 0.54191 0.66725 0.96794 0.0
O590 O 0.53538 0.64263 0.91834 0.0
O591 O 0.56322 0.68746 0.91681 0.0
H592 H 0.50654 0.69183 0.94535 0.0
H593 H 0.48903 0.64053 0.89853 0.0
H594 H 0.47207 0.68347 0.94788 0.0
H595 H 0.45491 0.63322 0.9016 0.0
H596 H 0.52241 0.62816 0.04013 0.0
H597 H 0.51733 0.67746 0.98714 0.0
H598 H 0.54238 0.64105 -0.00027 0.0
H599 H 0.49807 0.6642 0.02803 0.0
H600 H 0.45575 0.61722 0.98454 0.0
H601 H 0.48299 0.58291 0.96783 0.0
H602 H 0.54696 0.74962 0.93116 0.0
H603 H 0.55609 0.73553 0.01034 0.0
H604 H 0.56522 0.64369 0.89366 0.0
H605 H 0.50306 0.61849 0.89315 0.0
H606 H 0.56272 0.62546 0.85276 0.0
H607 H 0.50165 0.60076 0.85217 0.0
H608 H 0.58885 0.71341 0.88406 0.0
H609 H 0.57716 0.69646 0.96556 0.0
H610 H 0.62046 0.74164 0.89738 0.0
H611 H 0.60884 0.725 0.97742 0.0
H612 H 0.50701 0.65435 0.81353 0.0
H613 H 0.56923 0.67796 0.81376 0.0
H614 H 0.57539 0.61788 0.97025 0.0
H615 H 0.62273 0.67051 0.9372 0.0
Li616 Li 0.87117 0.52245 0.43664 0.0
Li617 Li 0.85839 0.54439 0.4389 0.0
Li618 Li 0.86981 0.53897 0.39577 0.0
Li619 Li 0.89267 0.55881 0.43066 0.0
C620 C 0.83579 0.50189 0.40771 0.0
N621 N 0.81148 0.46559 0.38655 0.0
C622 C 0.81639 0.49124 0.41571 0.0
C623 C 0.84274 0.49417 0.38872 0.0
C624 C 0.80435 0.47289 0.40486 0.0
C625 C 0.83025 0.47579 0.3783 0.0
C626 C 0.87188 0.54523 0.48671 0.0
C627 C 0.86979 0.56438 0.52202 0.0
N628 N 0.85802 0.5478 0.53555 0.0
C629 C 0.85992 0.52839 0.50105 0.0
C630 C 0.87702 0.56338 0.49734 0.0
C631 C 0.853 0.52999 0.52568 0.0
C632 C 0.88744 0.50148 0.45827 0.0
N633 N 0.87027 0.50001 0.45119 0.0
C634 C 0.8528 0.46709 0.46601 0.0
C635 C 0.8531 0.48335 0.45512 0.0
C636 C 0.87032 0.46813 0.47333 0.0
C637 C 0.88781 0.48563 0.46945 0.0
H638 H 0.90085 0.515 0.45518 0.0
H639 H 0.8396 0.48271 0.45015 0.0
C640 C 0.83752 0.56358 0.45361 0.0
N641 N 0.83851 0.54705 0.45549 0.0
C642 C 0.82194 0.56446 0.46487 0.0
C643 C 0.80894 0.53139 0.47996 0.0
C644 C 0.8247 0.53115 0.4684 0.0
C645 C 0.80727 0.54812 0.47798 0.0
H646 H 0.84853 0.57591 0.44289 0.0
H647 H 0.82586 0.51818 0.46944 0.0
C648 C 0.90291 0.53162 0.39613 0.0
N649 N 0.92562 0.5206 0.36798 0.0
C650 C 0.92093 0.54566 0.38615 0.0
C651 C 0.89662 0.51194 0.39214 0.0
C652 C 0.93214 0.53981 0.37186 0.0
C653 C 0.90826 0.50667 0.37778 0.0
C654 C 0.88208 0.58287 0.40589 0.0
C655 C 0.88527 0.58933 0.37979 0.0
C656 C 0.88774 0.59635 0.4264 0.0
C657 C 0.89426 0.60924 0.37465 0.0
C658 C 0.89671 0.61613 0.42046 0.0
N659 N 0.89977 0.62212 0.39492 0.0
C660 C 0.84886 0.52971 0.3474 0.0
C661 C 0.88312 0.54506 0.34378 0.0
C662 C 0.847 0.52913 0.31999 0.0
N663 N 0.86673 0.53745 0.35864 0.0
C664 C 0.88194 0.5447 0.3164 0.0
C665 C 0.86371 0.53672 0.3041 0.0
H666 H 0.83608 0.52413 0.35973 0.0
H667 H 0.89715 0.55168 0.35319 0.0
C668 C 0.92808 0.58088 0.45793 0.0
N669 N 0.91836 0.57977 0.4354 0.0
C670 C 0.94799 0.59411 0.45989 0.0
C671 C 0.94713 0.60546 0.41601 0.0
C672 C 0.92738 0.59189 0.41479 0.0
C673 C 0.95787 0.60625 0.4384 0.0
H674 H 0.92059 0.57081 0.47383 0.0
H675 H 0.91953 0.59031 0.39677 0.0
O676 O 0.84776 0.51985 0.41829 0.0
O677 O 0.8785 0.54393 0.46238 0.0
O678 O 0.89187 0.53713 0.41051 0.0
O679 O 0.87344 0.56344 0.41125 0.0
H680 H 0.81069 0.49705 0.43022 0.0
H681 H 0.85752 0.50241 0.38178 0.0
H682 H 0.78933 0.46445 0.41097 0.0
H683 H 0.83547 0.46966 0.36357 0.0
H684 H 0.87356 0.57833 0.53043 0.0
H685 H 0.85585 0.51422 0.49312 0.0
H686 H 0.88647 0.57656 0.48663 0.0
H687 H 0.84361 0.51708 0.53692 0.0
H688 H 0.83899 0.45397 0.46913 0.0
H689 H 0.90162 0.48697 0.47474 0.0
H690 H 0.82109 0.57756 0.46262 0.0
H691 H 0.7981 0.51856 0.49019 0.0
H692 H 0.92617 0.56093 0.38917 0.0
H693 H 0.88301 0.50078 0.40024 0.0
H694 H 0.94604 0.55056 0.36388 0.0
H695 H 0.90352 0.4915 0.37452 0.0
H696 H 0.88088 0.57909 0.36367 0.0
H697 H 0.88537 0.59159 0.44669 0.0
H698 H 0.89688 0.61445 0.35455 0.0
H699 H 0.90126 0.62673 0.43614 0.0
H700 H 0.83267 0.52313 0.31139 0.0
H701 H 0.89522 0.55054 0.30503 0.0
H702 H 0.9557 0.59402 0.47741 0.0
H703 H 0.95406 0.61468 0.39911 0.0
Li704 Li 0.34615 0.8721 0.94264 0.0
Li705 Li 0.31076 0.8583 0.94192 0.0
Li706 Li 0.33006 0.87122 0.90118 0.0
Li707 Li 0.33174 0.89299 0.9359 0.0
C708 C 0.33489 0.83953 0.91059 0.0
N709 N 0.35179 0.82101 0.88505 0.0
C710 C 0.32453 0.81939 0.90729 0.0
C711 C 0.35385 0.85026 0.9009 0.0
C712 C 0.33333 0.81029 0.89432 0.0
C713 C 0.36213 0.84064 0.88805 0.0
C714 C 0.32117 0.88077 0.98824 0.0
C715 C 0.29674 0.8873 0.00542 0.0
N716 N 0.30339 0.88772 0.03023 0.0
C717 C 0.3278 0.8813 0.01388 0.0
C718 C 0.30555 0.88381 0.98394 0.0
C719 C 0.3186 0.88482 0.03486 0.0
C720 C 0.3846 0.8871 0.95909 0.0
N721 N 0.36691 0.8707 0.95855 0.0
C722 C 0.37955 0.85271 0.98021 0.0
C723 C 0.36404 0.85371 0.96895 0.0
C724 C 0.39811 0.86932 0.98047 0.0
C725 C 0.40054 0.8867 0.96982 0.0
H726 H 0.38632 0.90048 0.95116 0.0
H727 H 0.34973 0.84093 0.96831 0.0
C728 C 0.27125 0.82988 0.93984 0.0
N729 N 0.28708 0.83839 0.95579 0.0
C730 C 0.25377 0.81452 0.94916 0.0
C731 C 0.26924 0.81712 0.99116 0.0
C732 C 0.28644 0.83235 0.98099 0.0
C733 C 0.25265 0.8079 0.97511 0.0
H734 H 0.27231 0.8349 0.91978 0.0
H735 H 0.29937 0.83914 0.99305 0.0
C736 C 0.36542 0.90786 0.90006 0.0
N737 N 0.38928 0.93743 0.86606 0.0
C738 C 0.35894 0.91953 0.88846 0.0
C739 C 0.38412 0.91134 0.8945 0.0
C740 C 0.37119 0.93439 0.87131 0.0
C741 C 0.39594 0.92632 0.8772 0.0
C742 C 0.29791 0.8817 0.90315 0.0
C743 C 0.30412 0.89235 0.87974 0.0
C744 C 0.28022 0.87774 0.91435 0.0
C745 C 0.29279 0.89928 0.86829 0.0
C746 C 0.2693 0.88492 0.90229 0.0
N747 N 0.27577 0.89548 0.87973 0.0
C748 C 0.3122 0.85757 0.85197 0.0
C749 C 0.3466 0.875 0.85016 0.0
C750 C 0.3111 0.85555 0.82459 0.0
N751 N 0.32976 0.8675 0.86408 0.0
C752 C 0.34619 0.87351 0.82279 0.0
C753 C 0.32827 0.86391 0.80967 0.0
H754 H 0.29903 0.85158 0.86357 0.0
H755 H 0.36038 0.88226 0.8602 0.0
C756 C 0.35475 0.93032 0.95298 0.0
N757 N 0.33656 0.9184 0.94367 0.0
C758 C 0.36142 0.95002 0.95667 0.0
C759 C 0.33014 0.94471 0.9423 0.0
C760 C 0.32407 0.92504 0.93886 0.0
C761 C 0.34919 0.95755 0.95083 0.0
H762 H 0.36436 0.9246 0.95655 0.0
H763 H 0.30961 0.91527 0.93175 0.0
O764 O 0.32639 0.8486 0.92316 0.0
O765 O 0.32999 0.87725 0.96755 0.0
O766 O 0.3537 0.89325 0.91704 0.0
O767 O 0.30872 0.87466 0.91466 0.0
H768 H 0.30983 0.81088 0.91466 0.0
H769 H 0.36209 0.86585 0.90326 0.0
H770 H 0.32548 0.7947 0.89162 0.0
H771 H 0.37679 0.84877 0.88046 0.0
H772 H 0.28463 0.88968 0.00236 0.0
H773 H 0.3399 0.87897 0.01751 0.0
H774 H 0.30033 0.88353 0.96425 0.0
H775 H 0.32355 0.88525 0.05483 0.0
H776 H 0.37715 0.83904 0.98817 0.0
H777 H 0.41458 0.89988 0.97004 0.0
H778 H 0.24128 0.80786 0.9362 0.0
H779 H 0.2691 0.81224 0.01112 0.0
H780 H 0.3447 0.91732 0.89281 0.0
H781 H 0.38939 0.90241 0.90315 0.0
H782 H 0.36634 0.94352 0.86223 0.0
H783 H 0.41039 0.92909 0.87261 0.0
H784 H 0.31745 0.8951 0.87031 0.0
H785 H 0.27497 0.86922 0.93218 0.0
H786 H 0.29747 0.9076 0.85023 0.0
H787 H 0.25566 0.88207 0.91085 0.0
H788 H 0.29701 0.84806 0.81514 0.0
H789 H 0.35975 0.87982 0.81197 0.0
H790 H 0.37631 0.95937 0.96286 0.0
H791 H 0.32018 0.94987 0.93788 0.0
Li792 Li 0.47263 0.34375 0.43851 0.0
Li793 Li 0.45063 0.30937 0.43981 0.0
Li794 Li 0.45549 0.32845 0.39935 0.0
Li795 Li 0.43779 0.33229 0.43571 0.0
C796 C 0.49287 0.32693 0.41963 0.0
N797 N 0.53062 0.33419 0.42286 0.0
C798 C 0.49718 0.31489 0.43478 0.0
C799 C 0.50775 0.34261 0.40602 0.0
C800 C 0.51636 0.31881 0.43618 0.0
C801 C 0.52675 0.34606 0.40795 0.0
C802 C 0.46249 0.33569 0.48824 0.0
C803 C 0.47243 0.35723 0.52567 0.0
N804 N 0.48471 0.35084 0.53311 0.0
C805 C 0.47516 0.32929 0.4963 0.0
C806 C 0.46104 0.34971 0.50308 0.0
C807 C 0.48627 0.33713 0.51904 0.0
C808 C 0.4957 0.38214 0.45437 0.0
N809 N 0.49578 0.36512 0.45298 0.0
C810 C 0.52692 0.37968 0.47378 0.0
C811 C 0.51086 0.36356 0.4628 0.0
C812 C 0.52729 0.39752 0.47548 0.0
C813 C 0.51127 0.39853 0.4657 0.0
H814 H 0.48331 0.3829 0.44711 0.0
H815 H 0.51039 0.34978 0.46261 0.0
C816 C 0.44551 0.27211 0.43531 0.0
N817 N 0.44533 0.28496 0.45278 0.0
C818 C 0.44295 0.25435 0.44406 0.0
C819 C 0.43953 0.26322 0.48849 0.0
C820 C 0.44195 0.28071 0.47882 0.0
C821 C 0.44032 0.24986 0.47108 0.0
H822 H 0.44802 0.27587 0.41465 0.0
H823 H 0.44153 0.29108 0.49218 0.0
C824 C 0.46114 0.36363 0.39364 0.0
N825 N 0.465 0.3848 0.34867 0.0
C826 C 0.44501 0.36384 0.3831 0.0
C827 C 0.47926 0.37433 0.38151 0.0
C828 C 0.44726 0.37461 0.3603 0.0
C829 C 0.4809 0.38489 0.35873 0.0
C830 C 0.41257 0.29321 0.42144 0.0
C831 C 0.40001 0.28094 0.40196 0.0
C832 C 0.40689 0.28978 0.44788 0.0
C833 C 0.38189 0.26547 0.40924 0.0
C834 C 0.38866 0.27414 0.45435 0.0
N835 N 0.37665 0.26241 0.43507 0.0
C836 C 0.47201 0.33003 0.34919 0.0
C837 C 0.4402 0.32551 0.34866 0.0
C838 C 0.47263 0.33032 0.32172 0.0
N839 N 0.45604 0.32786 0.36201 0.0
C840 C 0.44019 0.32574 0.32117 0.0
C841 C 0.45661 0.32827 0.30734 0.0
H842 H 0.48426 0.33152 0.36024 0.0
H843 H 0.42767 0.32373 0.35944 0.0
C844 C 0.42576 0.35684 0.45504 0.0
N845 N 0.41863 0.33905 0.44385 0.0
C846 C 0.41376 0.36472 0.45901 0.0
C847 C 0.38714 0.3357 0.44006 0.0
C848 C 0.39971 0.3284 0.43637 0.0
C849 C 0.39422 0.35424 0.45113 0.0
H850 H 0.44105 0.3653 0.45976 0.0
H851 H 0.39446 0.31461 0.42662 0.0
O852 O 0.47413 0.32313 0.41774 0.0
O853 O 0.45182 0.32849 0.46568 0.0
O854 O 0.45916 0.3528 0.41554 0.0
O855 O 0.43044 0.30824 0.41455 0.0
H856 H 0.48587 0.30268 0.44542 0.0
H857 H 0.50473 0.35219 0.3944 0.0
H858 H 0.51991 0.30964 0.44789 0.0
H859 H 0.53842 0.3582 0.39765 0.0
H860 H 0.47151 0.36815 0.53729 0.0
H861 H 0.47667 0.31865 0.48486 0.0
H862 H 0.45126 0.35477 0.49723 0.0
H863 H 0.49623 0.33241 0.52539 0.0
H864 H 0.5389 0.37808 0.48076 0.0
H865 H 0.51052 0.41172 0.46715 0.0
H866 H 0.44326 0.24436 0.42984 0.0
H867 H 0.43773 0.26053 0.50949 0.0
H868 H 0.43087 0.35559 0.39224 0.0
H869 H 0.49189 0.37438 0.38955 0.0
H870 H 0.43489 0.37481 0.35181 0.0
H871 H 0.49481 0.39316 0.34903 0.0
H872 H 0.40424 0.28337 0.38142 0.0
H873 H 0.41638 0.29911 0.46324 0.0
H874 H 0.37202 0.25587 0.39437 0.0
H875 H 0.38407 0.27133 0.47472 0.0
H876 H 0.48544 0.33195 0.31186 0.0
H877 H 0.4276 0.32429 0.3109 0.0
H878 H 0.42001 0.37927 0.46695 0.0
H879 H 0.37218 0.32713 0.43371 0.0
Li880 Li 0.12267 0.47379 0.93561 0.0
Li881 Li 0.13718 0.45298 0.93851 0.0
Li882 Li 0.12422 0.45745 0.89662 0.0
Li883 Li 0.10185 0.43737 0.93077 0.0
C884 C 0.15958 0.4964 0.91894 0.0
N885 N 0.18615 0.53566 0.92263 0.0
C886 C 0.17706 0.5028 0.93246 0.0
C887 C 0.15571 0.50998 0.90709 0.0
C888 C 0.19028 0.5227 0.93415 0.0
C889 C 0.16929 0.52976 0.90925 0.0
C890 C 0.11609 0.44931 0.98796 0.0
C891 C 0.10339 0.42706 0.02467 0.0
N892 N 0.11357 0.44207 0.04156 0.0
C893 C 0.12617 0.46453 0.00577 0.0
C894 C 0.10439 0.43043 0.99756 0.0
C895 C 0.12482 0.46058 0.03274 0.0
C896 C 0.10803 0.49905 0.94462 0.0
N897 N 0.12312 0.49614 0.94997 0.0
C898 C 0.13854 0.52502 0.97601 0.0
C899 C 0.13818 0.50866 0.96542 0.0
C900 C 0.12318 0.52847 0.97077 0.0
C901 C 0.10776 0.51522 0.95484 0.0
H902 H 0.09617 0.48878 0.93242 0.0
H903 H 0.14997 0.50598 0.96951 0.0
C904 C 0.16472 0.44043 0.9428 0.0
N905 N 0.15764 0.45096 0.95465 0.0
C906 C 0.18025 0.43948 0.95395 0.0
C907 C 0.1814 0.46081 0.98875 0.0
C908 C 0.16568 0.46112 0.97712 0.0
C909 C 0.18884 0.44987 0.97712 0.0
H910 H 0.15851 0.43302 0.92445 0.0
H911 H 0.16029 0.46996 0.98556 0.0
C912 C 0.09279 0.45876 0.88727 0.0
N913 N 0.07655 0.45915 0.83935 0.0
C914 C 0.07933 0.44131 0.87529 0.0
C915 C 0.09787 0.4764 0.875 0.0
C916 C 0.0713 0.44182 0.85104 0.0
C917 C 0.08953 0.47629 0.85073 0.0
C918 C 0.11819 0.41455 0.9168 0.0
C919 C 0.11565 0.40178 0.89624 0.0
C920 C 0.118 0.40874 0.94281 0.0
C921 C 0.1127 0.38332 0.90211 0.0
C922 C 0.11504 0.39018 0.94789 0.0
N923 N 0.11244 0.37795 0.9276 0.0
C924 C 0.13794 0.4768 0.84738 0.0
C925 C 0.11795 0.44255 0.84532 0.0
C926 C 0.13926 0.47795 0.81996 0.0
N927 N 0.12731 0.45929 0.85942 0.0
C928 C 0.11911 0.44299 0.8179 0.0
C929 C 0.12978 0.46088 0.80494 0.0
H930 H 0.14523 0.48988 0.85898 0.0
H931 H 0.10927 0.4289 0.85541 0.0
C932 C 0.06578 0.42063 0.9543 0.0
N933 N 0.07669 0.4164 0.938 0.0
C934 C 0.0463 0.40702 0.95866 0.0
C935 C 0.04974 0.38472 0.92982 0.0
C936 C 0.06919 0.39882 0.92596 0.0
C937 C 0.03792 0.38889 0.94597 0.0
H938 H 0.0721 0.43487 0.96321 0.0
H939 H 0.07802 0.39596 0.91258 0.0
O940 O 0.14642 0.47695 0.91725 0.0
O941 O 0.11696 0.45299 0.96145 0.0
O942 O 0.10127 0.45852 0.91059 0.0
O943 O 0.12091 0.43262 0.91135 0.0
H944 H 0.18043 0.49252 0.94146 0.0
H945 H 0.14218 0.50533 0.89683 0.0
H946 H 0.20384 0.52784 0.9446 0.0
H947 H 0.16638 0.54042 0.90039 0.0
H948 H 0.09446 0.4125 0.03229 0.0
H949 H 0.13511 0.47924 -0.00112 0.0
H950 H 0.09604 0.41845 0.98431 0.0
H951 H 0.13271 0.47223 0.04666 0.0
H952 H 0.15057 0.53469 0.98849 0.0
H953 H 0.09572 0.51741 0.95011 0.0
H954 H 0.18585 0.43118 0.94417 0.0
H955 H 0.18772 0.46907 0.00657 0.0
H956 H 0.07534 0.42753 0.88444 0.0
H957 H 0.10826 0.49003 0.88399 0.0
H958 H 0.06097 0.42843 0.84145 0.0
H959 H 0.09342 0.48984 0.84092 0.0
H960 H 0.11592 0.40603 0.87595 0.0
H961 H 0.1205 0.41858 0.95886 0.0
H962 H 0.11064 0.37328 0.88639 0.0
H963 H 0.1149 0.38555 0.96796 0.0
H964 H 0.14771 0.492 0.8106 0.0
H965 H 0.1114 0.42955 0.80691 0.0
H966 H 0.0377 0.41107 0.97081 0.0
H967 H 0.04391 0.37092 0.91973 0.0
Li968 Li 0.68366 0.13905 0.43871 0.0
Li969 Li 0.64853 0.1267 0.43608 0.0
Li970 Li 0.66217 0.10415 0.43136 0.0
Li971 Li 0.66557 0.1264 0.39622 0.0
C972 C 0.66754 0.12206 0.48824 0.0
N973 N 0.67702 0.12644 0.54115 0.0
C974 C 0.66074 0.13132 0.50497 0.0
C975 C 0.67884 0.11468 0.49856 0.0
C976 C 0.66579 0.1335 0.53161 0.0
C977 C 0.68357 0.11713 0.52532 0.0
C978 C 0.66608 0.16433 0.41721 0.0
C979 C 0.64718 0.17864 0.40249 0.0
N980 N 0.65822 0.19449 0.41771 0.0
C981 C 0.67735 0.18085 0.43251 0.0
C982 C 0.65098 0.16328 0.40189 0.0
C983 C 0.67311 0.19591 0.43256 0.0
C984 C 0.72422 0.16419 0.44145 0.0
N985 N 0.70717 0.15847 0.45424 0.0
C986 C 0.72356 0.18191 0.48811 0.0
C987 C 0.70655 0.16706 0.47706 0.0
C988 C 0.7414 0.18814 0.47539 0.0
C989 C 0.74162 0.17905 0.45177 0.0
H990 H 0.72427 0.15738 0.42303 0.0
H991 H 0.69278 0.16291 0.48623 0.0
C992 C 0.60961 0.11211 0.44969 0.0
N993 N 0.62733 0.12849 0.45035 0.0
C994 C 0.59344 0.11202 0.46051 0.0
C995 C 0.61404 0.14568 0.47268 0.0
C996 C 0.62984 0.14505 0.46179 0.0
C997 C 0.59551 0.12898 0.47222 0.0
H998 H 0.6081 0.09899 0.44103 0.0
H999 H 0.64414 0.15771 0.46291 0.0
C1000 C 0.69845 0.11475 0.41262 0.0
N1001 N 0.72301 0.09956 0.41467 0.0
C1002 C 0.70164 0.1066 0.39012 0.0
C1003 C 0.70799 0.11544 0.43604 0.0
C1004 C 0.71403 0.09891 0.39158 0.0
C1005 C 0.72029 0.10763 0.43672 0.0
C1006 C 0.62869 0.09748 0.39024 0.0
C1007 C 0.62647 0.08111 0.3769 0.0
C1008 C 0.61804 0.10618 0.38214 0.0
C1009 C 0.61396 0.074 0.35527 0.0
C1010 C 0.60567 0.09864 0.36044 0.0
N1011 N 0.60393 0.08285 0.34754 0.0
C1012 C 0.64948 0.07042 0.4621 0.0
C1013 C 0.65864 0.06812 0.41842 0.0
C1014 C 0.64281 0.05074 0.46635 0.0
N1015 N 0.65695 0.07859 0.43833 0.0
C1016 C 0.65197 0.04834 0.42169 0.0
C1017 C 0.64347 0.03927 0.44572 0.0
H1018 H 0.6479 0.07897 0.47741 0.0
H1019 H 0.66419 0.07486 0.39951 0.0
C1020 C 0.66837 0.14507 0.34721 0.0
N1021 N 0.66672 0.12896 0.35898 0.0
C1022 C 0.66882 0.14653 0.31978 0.0
C1023 C 0.6664 0.11503 0.31717 0.0
C1024 C 0.66584 0.11412 0.3446 0.0
C1025 C 0.66784 0.13137 0.30444 0.0
H1026 H 0.66943 0.15683 0.35907 0.0
H1027 H 0.66456 0.1015 0.35449 0.0
O1028 O 0.66268 0.11978 0.46209 0.0
O1029 O 0.66999 0.1494 0.41704 0.0
O1030 O 0.6862 0.12217 0.41163 0.0
O1031 O 0.64109 0.10483 0.41124 0.0
H1032 H 0.65183 0.13695 0.49744 0.0
H1033 H 0.68372 0.10691 0.48617 0.0
H1034 H 0.66076 0.14079 0.54471 0.0
H1035 H 0.69235 0.11154 0.53353 0.0
H1036 H 0.63548 0.17796 0.39082 0.0
H1037 H 0.68924 0.18206 0.44422 0.0
H1038 H 0.64231 0.15079 0.38962 0.0
H1039 H 0.68166 0.20874 0.44441 0.0
H1040 H 0.72266 0.18887 0.50597 0.0
H1041 H 0.75508 0.18341 0.44136 0.0
H1042 H 0.57956 0.09868 0.46019 0.0
H1043 H 0.61635 0.15912 0.48134 0.0
H1044 H 0.69459 0.10614 0.37172 0.0
H1045 H 0.70607 0.1221 0.45343 0.0
H1046 H 0.71653 0.09245 0.37435 0.0
H1047 H 0.72772 0.10804 0.45476 0.0
H1048 H 0.63443 0.07406 0.383 0.0
H1049 H 0.61921 0.11856 0.39258 0.0
H1050 H 0.61224 0.06144 0.34464 0.0
H1051 H 0.59741 0.1053 0.35391 0.0
H1052 H 0.6366 0.04444 0.48529 0.0
H1053 H 0.65246 0.04009 0.40504 0.0
H1054 H 0.67019 0.15948 0.31068 0.0
H1055 H 0.66543 0.10295 0.30603 0.0
Li1056 Li 0.64841 0.51907 0.93383 0.0
Li1057 Li 0.66041 0.55466 0.93097 0.0
Li1058 Li 0.66562 0.53828 0.89357 0.0
Li1059 Li 0.6829 0.54369 0.93328 0.0
C1060 C 0.63042 0.53308 0.88746 0.0
N1061 N 0.61216 0.5332 0.84123 0.0
C1062 C 0.63105 0.5501 0.87893 0.0
C1063 C 0.6205 0.51612 0.87249 0.0
C1064 C 0.62171 0.54986 0.85551 0.0
C1065 C 0.61138 0.51648 0.84916 0.0
C1066 C 0.6585 0.54636 0.98161 0.0
C1067 C 0.66642 0.57126 0.01426 0.0
N1068 N 0.64819 0.56075 0.02438 0.0
C1069 C 0.63988 0.53575 0.99242 0.0
C1070 C 0.67193 0.5642 0.9927 0.0
C1071 C 0.63494 0.54329 0.01402 0.0
C1072 C 0.63297 0.48722 0.9685 0.0
N1073 N 0.62861 0.49535 0.948 0.0
C1074 C 0.59512 0.47095 0.95045 0.0
C1075 C 0.61015 0.48763 0.93885 0.0
C1076 C 0.59912 0.46226 0.97182 0.0
C1077 C 0.61838 0.47054 0.98073 0.0
H1078 H 0.64771 0.49398 0.97578 0.0
H1079 H 0.60701 0.4947 0.92302 0.0
C1080 C 0.66573 0.59265 0.93629 0.0
N1081 N 0.65348 0.57339 0.94054 0.0
C1082 C 0.6596 0.60601 0.94138 0.0
C1083 C 0.62859 0.57946 0.95566 0.0
C1084 C 0.63524 0.56663 0.95004 0.0
C1085 C 0.64073 0.5994 0.95097 0.0
H1086 H 0.68003 0.59757 0.92825 0.0
H1087 H 0.62566 0.55118 0.95253 0.0
C1088 C 0.68283 0.51317 0.91181 0.0
N1089 N 0.71109 0.50263 0.91121 0.0
C1090 C 0.69539 0.51799 0.89029 0.0
C1091 C 0.68456 0.50287 0.93295 0.0
C1092 C 0.70958 0.51253 0.89036 0.0
C1093 C 0.69899 0.49774 0.93232 0.0
C1094 C 0.70298 0.57703 0.90732 0.0
C1095 C 0.71344 0.57813 0.88462 0.0
C1096 C 0.71239 0.58972 0.92826 0.0
C1097 C 0.73324 0.59181 0.88338 0.0
C1098 C 0.73222 0.60316 0.92628 0.0
N1099 N 0.74215 0.60391 0.90407 0.0
C1100 C 0.66954 0.55358 0.84278 0.0
C1101 C 0.66129 0.5205 0.8437 0.0
C1102 C 0.66923 0.55346 0.81533 0.0
N1103 N 0.66567 0.53728 0.85629 0.0
C1104 C 0.66088 0.51973 0.81622 0.0
C1105 C 0.66488 0.53638 0.80168 0.0
H1106 H 0.6728 0.56666 0.85342 0.0
H1107 H 0.65798 0.50768 0.85504 0.0
C1108 C 0.70695 0.54596 0.97501 0.0
N1109 N 0.70691 0.54851 0.94855 0.0
C1110 C 0.72323 0.5473 0.98736 0.0
C1111 C 0.73937 0.55431 0.94511 0.0
C1112 C 0.72274 0.55274 0.93356 0.0
C1113 C 0.73962 0.55127 0.97229 0.0
H1114 H 0.69412 0.54232 0.98647 0.0
H1115 H 0.72226 0.55422 0.9125 0.0
O1116 O 0.64003 0.53319 0.90986 0.0
O1117 O 0.66354 0.5394 0.9602 0.0
O1118 O 0.66901 0.51861 0.91226 0.0
O1119 O 0.68357 0.56381 0.90884 0.0
H1120 H 0.63887 0.56342 0.89006 0.0
H1121 H 0.62018 0.50291 0.87855 0.0
H1122 H 0.62213 0.56294 0.84862 0.0
H1123 H 0.60376 0.5035 0.83729 0.0
H1124 H 0.67663 0.58509 0.02296 0.0
H1125 H 0.62928 0.52195 0.98405 0.0
H1126 H 0.68643 0.57252 0.98467 0.0
H1127 H 0.62055 0.53529 0.02248 0.0
H1128 H 0.58043 0.46529 0.94329 0.0
H1129 H 0.62212 0.46428 0.99707 0.0
H1130 H 0.66935 0.62128 0.93746 0.0
H1131 H 0.6138 0.57372 0.96248 0.0
H1132 H 0.69441 0.52615 0.87389 0.0
H1133 H 0.67504 0.4991 0.9498 0.0
H1134 H 0.71947 0.51627 0.8739 0.0
H1135 H 0.7006 0.48991 0.94864 0.0
H1136 H 0.70642 0.56838 0.86826 0.0
H1137 H 0.7045 0.58911 0.94592 0.0
H1138 H 0.74155 0.59274 0.866 0.0
H1139 H 0.73972 0.61299 0.94241 0.0
H1140 H 0.67259 0.56666 0.80491 0.0
H1141 H 0.65718 0.50619 0.80648 0.0
H1142 H 0.72291 0.54498 0.00842 0.0
H1143 H 0.75159 0.55707 0.93273 0.0
Li1144 Li 0.13081 0.66699 0.39423 0.0
Li1145 Li 0.1418 0.68628 0.43449 0.0
Li1146 Li 0.12847 0.65041 0.43484 0.0
Li1147 Li 0.10676 0.66357 0.42912 0.0
C1148 C 0.16722 0.67503 0.40061 0.0
N1149 N 0.19671 0.6835 0.36502 0.0
C1150 C 0.18246 0.69412 0.3977 0.0
C1151 C 0.1671 0.66022 0.38564 0.0
C1152 C 0.19722 0.69811 0.37956 0.0
C1153 C 0.18209 0.6648 0.36767 0.0
C1154 C 0.12369 0.70342 0.40407 0.0
C1155 C 0.11315 0.72561 0.41839 0.0
N1156 N 0.12255 0.73737 0.39758 0.0
C1157 C 0.133 0.71559 0.3826 0.0
C1158 C 0.11347 0.70835 0.42192 0.0
C1159 C 0.13236 0.73274 0.37976 0.0
C1160 C 0.12247 0.65147 0.34298 0.0
N1161 N 0.13477 0.66742 0.35721 0.0
C1162 C 0.15166 0.6841 0.31814 0.0
C1163 C 0.14921 0.68356 0.34542 0.0
C1164 C 0.1391 0.66785 0.30291 0.0
C1165 C 0.12443 0.65133 0.3157 0.0
H1166 H 0.11091 0.63895 0.35276 0.0
H1167 H 0.15874 0.69609 0.35717 0.0
C1168 C 0.1679 0.70829 0.4736 0.0
N1169 N 0.16099 0.70987 0.44983 0.0
C1170 C 0.18281 0.72466 0.48585 0.0
C1171 C 0.18326 0.74403 0.44884 0.0
C1172 C 0.16831 0.72726 0.43733 0.0
C1173 C 0.19078 0.74282 0.47336 0.0
H1174 H 0.16202 0.6942 0.48284 0.0
H1175 H 0.16294 0.72808 0.41816 0.0
C1176 C 0.09885 0.62334 0.40783 0.0
N1177 N 0.08101 0.58328 0.40906 0.0
C1178 C 0.08061 0.61237 0.41959 0.0
C1179 C 0.10789 0.61392 0.3964 0.0
C1180 C 0.07185 0.59214 0.42007 0.0
C1181 C 0.09868 0.59366 0.39732 0.0
C1182 C 0.11778 0.67098 0.48309 0.0
C1183 C 0.1106 0.65746 0.50363 0.0
C1184 C 0.11966 0.68927 0.48669 0.0
C1185 C 0.10499 0.66231 0.5272 0.0
C1186 C 0.11392 0.69359 0.51056 0.0
N1187 N 0.10673 0.68012 0.53014 0.0
C1188 C 0.14619 0.62813 0.44789 0.0
C1189 C 0.11472 0.61675 0.46557 0.0
C1190 C 0.14714 0.61268 0.45946 0.0
N1191 N 0.1301 0.62977 0.45103 0.0
C1192 C 0.115 0.60106 0.47738 0.0
C1193 C 0.13136 0.59885 0.47441 0.0
H1194 H 0.1583 0.63882 0.43645 0.0
H1195 H 0.10213 0.61845 0.46774 0.0
C1196 C 0.07263 0.66308 0.41482 0.0
N1197 N 0.0811 0.65861 0.43475 0.0
C1198 C 0.05297 0.65741 0.41609 0.0
C1199 C 0.05123 0.64304 0.45869 0.0
C1200 C 0.07094 0.64902 0.4566 0.0
C1201 C 0.0419 0.64682 0.43795 0.0
H1202 H 0.081 0.67046 0.39749 0.0
H1203 H 0.07783 0.64506 0.47176 0.0
O1204 O 0.15255 0.67087 0.41811 0.0
O1205 O 0.12406 0.68648 0.40697 0.0
O1206 O 0.10781 0.64319 0.40757 0.0
O1207 O 0.12338 0.66643 0.45991 0.0
H1208 H 0.18286 0.70575 0.4092 0.0
H1209 H 0.15548 0.64536 0.38774 0.0
H1210 H 0.20905 0.71284 0.37701 0.0
H1211 H 0.18211 0.6535 0.35583 0.0
H1212 H 0.10533 0.72961 0.43212 0.0
H1213 H 0.14074 0.71193 0.36836 0.0
H1214 H 0.10561 0.69885 0.43814 0.0
H1215 H 0.13964 0.74236 0.36335 0.0
H1216 H 0.16322 0.69707 0.30906 0.0
H1217 H 0.11422 0.63863 0.30466 0.0
H1218 H 0.18841 0.723 0.50451 0.0
H1219 H 0.18896 0.75776 0.43859 0.0
H1220 H 0.07334 0.61938 0.42838 0.0
H1221 H 0.12195 0.62216 0.3871 0.0
H1222 H 0.05779 0.58348 0.42924 0.0
H1223 H 0.10559 0.5862 0.38873 0.0
H1224 H 0.10928 0.64333 0.50137 0.0
H1225 H 0.12574 0.70014 0.47141 0.0
H1226 H 0.09928 0.65193 0.54318 0.0
H1227 H 0.11528 0.70769 0.51356 0.0
H1228 H 0.16015 0.61171 0.45698 0.0
H1229 H 0.10239 0.59062 0.48838 0.0
H1230 H 0.04637 0.66074 0.39975 0.0
H1231 H 0.04316 0.63459 0.47566 0.0
Li1232 Li 0.47158 0.12723 0.93761 0.0
Li1233 Li 0.43615 0.10614 0.93318 0.0
Li1234 Li 0.45425 0.12886 0.89839 0.0
Li1235 Li 0.44922 0.1392 0.94163 0.0
C1236 C 0.46935 0.10438 0.89465 0.0
N1237 N 0.49426 0.09949 0.86178 0.0
C1238 C 0.46452 0.08583 0.88595 0.0
C1239 C 0.48683 0.12047 0.88658 0.0
C1240 C 0.47732 0.08365 0.86936 0.0
C1241 C 0.49923 0.11768 0.86998 0.0
C1242 C 0.45083 0.12755 0.98885 0.0
C1243 C 0.43342 0.13266 0.024 0.0
N1244 N 0.45051 0.14401 0.0367 0.0
C1245 C 0.46818 0.13912 0.0024 0.0
C1246 C 0.43328 0.12415 -0.00013 0.0
C1247 C 0.46773 0.14735 0.02651 0.0
C1248 C 0.50961 0.1462 0.9585 0.0
N1249 N 0.49489 0.12892 0.94979 0.0
C1250 C 0.51285 0.11311 0.96027 0.0
C1251 C 0.49621 0.11254 0.95038 0.0
C1252 C 0.52809 0.13059 0.97046 0.0
C1253 C 0.52632 0.14734 0.96925 0.0
H1254 H 0.50808 0.15897 0.95789 0.0
H1255 H 0.48425 0.09897 0.94336 0.0
C1256 C 0.40968 0.0685 0.91708 0.0
N1257 N 0.41593 0.08026 0.93855 0.0
C1258 C 0.39615 0.04881 0.91985 0.0
C1259 C 0.39533 0.05382 0.96672 0.0
C1260 C 0.40896 0.07343 0.96303 0.0
C1261 C 0.38903 0.04114 0.945 0.0
H1262 H 0.41568 0.07437 0.8979 0.0
H1263 H 0.41436 0.08308 0.97978 0.0
C1264 C 0.47898 0.16846 0.91091 0.0
N1265 N 0.48919 0.20492 0.89195 0.0
C1266 C 0.46463 0.17246 0.90225 0.0
C1267 C 0.49849 0.18302 0.91 0.0
C1268 C 0.4701 0.19098 0.89274 0.0
C1269 C 0.50336 0.20135 0.90029 0.0
C1270 C 0.41007 0.11206 0.91042 0.0
C1271 C 0.40291 0.10596 0.88496 0.0
C1272 C 0.39718 0.10567 0.9317 0.0
C1273 C 0.38307 0.09316 0.88131 0.0
C1274 C 0.37745 0.09285 0.92726 0.0
N1275 N 0.37086 0.08689 0.90236 0.0
C1276 C 0.44572 0.11435 0.8476 0.0
C1277 C 0.46763 0.14827 0.84781 0.0
C1278 C 0.44603 0.11397 0.82017 0.0
N1279 N 0.45618 0.13136 0.86086 0.0
C1280 C 0.46828 0.14859 0.82031 0.0
C1281 C 0.45729 0.13129 0.8061 0.0
H1282 H 0.43712 0.10101 0.85846 0.0
H1283 H 0.47642 0.16155 0.85849 0.0
C1284 C 0.46281 0.17386 0.96925 0.0
N1285 N 0.44636 0.15868 0.95922 0.0
C1286 C 0.46226 0.18948 0.98072 0.0
C1287 C 0.42767 0.17319 0.9724 0.0
C1288 C 0.42895 0.15797 0.96067 0.0
C1289 C 0.44457 0.18931 0.98215 0.0
H1290 H 0.47643 0.17397 0.96785 0.0
H1291 H 0.41615 0.1458 0.95233 0.0
O1292 O 0.45681 0.10671 0.91066 0.0
O1293 O 0.45106 0.11975 0.96487 0.0
O1294 O 0.47401 0.15062 0.92103 0.0
O1295 O 0.42951 0.12438 0.91443 0.0
H1296 H 0.451 0.07325 0.89194 0.0
H1297 H 0.49077 0.13495 0.89299 0.0
H1298 H 0.47378 0.06937 0.86247 0.0
H1299 H 0.5128 0.12999 0.86358 0.0
H1300 H 0.41995 0.13028 0.03261 0.0
H1301 H 0.48188 0.14183 0.99436 0.0
H1302 H 0.41969 0.11521 0.98981 0.0
H1303 H 0.48108 0.15643 0.0371 0.0
H1304 H 0.51361 0.0999 0.96001 0.0
H1305 H 0.53742 0.16109 0.97718 0.0
H1306 H 0.39202 0.03957 0.90261 0.0
H1307 H 0.39011 0.04858 0.98641 0.0
H1308 H 0.44945 0.16141 0.90283 0.0
H1309 H 0.50974 0.18018 0.91676 0.0
H1310 H 0.45917 0.19428 0.88598 0.0
H1311 H 0.51841 0.21275 0.89944 0.0
H1312 H 0.41251 0.11116 0.86816 0.0
H1313 H 0.40238 0.11034 0.95149 0.0
H1314 H 0.37738 0.08826 0.86171 0.0
H1315 H 0.36738 0.08763 0.94362 0.0
H1316 H 0.43771 0.10019 0.81013 0.0
H1317 H 0.47715 0.1623 0.81033 0.0
H1318 H 0.47554 0.20162 0.98826 0.0
H1319 H 0.41381 0.17269 0.97306 0.0
Li1320 Li 0.34676 0.47884 0.43522 0.0
Li1321 Li 0.33432 0.44308 0.43196 0.0
Li1322 Li 0.32902 0.46011 0.3966 0.0
Li1323 Li 0.31129 0.45361 0.43607 0.0
C1324 C 0.36369 0.4641 0.3885 0.0
N1325 N 0.38112 0.46257 0.34217 0.0
C1326 C 0.35948 0.44618 0.37791 0.0
C1327 C 0.37677 0.48125 0.37553 0.0
C1328 C 0.36844 0.44572 0.35447 0.0
C1329 C 0.38543 0.48016 0.35214 0.0
C1330 C 0.3379 0.45134 0.48258 0.0
C1331 C 0.33285 0.42575 0.51271 0.0
N1332 N 0.35061 0.43758 0.52349 0.0
C1333 C 0.35607 0.46326 0.49404 0.0
C1334 C 0.32614 0.43246 0.49207 0.0
C1335 C 0.36224 0.45603 0.51469 0.0
C1336 C 0.36153 0.51171 0.46784 0.0
N1337 N 0.36648 0.50249 0.44951 0.0
C1338 C 0.40008 0.52609 0.45405 0.0
C1339 C 0.38528 0.50926 0.44248 0.0
C1340 C 0.39546 0.53578 0.47336 0.0
C1341 C 0.37591 0.52846 0.48019 0.0
H1342 H 0.34644 0.50581 0.47318 0.0
H1343 H 0.38881 0.50133 0.42838 0.0
C1344 C 0.32969 0.40518 0.43452 0.0
N1345 N 0.3416 0.42431 0.44002 0.0
C1346 C 0.33603 0.39189 0.43876 0.0
C1347 C 0.36664 0.41826 0.45448 0.0
C1348 C 0.35978 0.43103 0.44973 0.0
C1349 C 0.35479 0.39844 0.44869 0.0
H1350 H 0.3155 0.40033 0.42617 0.0
H1351 H 0.3691 0.44641 0.45321 0.0
C1352 C 0.32454 0.49147 0.39879 0.0
N1353 N 0.32428 0.51691 0.36189 0.0
C1354 C 0.30917 0.48518 0.38091 0.0
C1355 C 0.33972 0.51074 0.39797 0.0
C1356 C 0.30934 0.49825 0.36237 0.0
C1357 C 0.33933 0.52336 0.37916 0.0
C1358 C 0.29097 0.42198 0.41146 0.0
C1359 C 0.27909 0.42383 0.39277 0.0
C1360 C 0.28256 0.40802 0.43134 0.0
C1361 C 0.25897 0.41172 0.39434 0.0
C1362 C 0.26237 0.3962 0.43226 0.0
N1363 N 0.25109 0.39828 0.4139 0.0
C1364 C 0.3191 0.44387 0.346 0.0
C1365 C 0.33891 0.47815 0.3455 0.0
C1366 C 0.31893 0.44329 0.31855 0.0
N1367 N 0.32875 0.46113 0.35889 0.0
C1368 C 0.339 0.47826 0.31802 0.0
C1369 C 0.32891 0.46066 0.30423 0.0
H1370 H 0.31173 0.43047 0.35706 0.0
H1371 H 0.34724 0.49161 0.3561 0.0
C1372 C 0.28325 0.44159 0.47687 0.0
N1373 N 0.28744 0.44844 0.4518 0.0
C1374 C 0.26627 0.43871 0.48906 0.0
C1375 C 0.25816 0.44979 0.44926 0.0
C1376 C 0.27528 0.45247 0.43791 0.0
C1377 C 0.25357 0.44303 0.47529 0.0
H1378 H 0.29323 0.43867 0.48758 0.0
H1379 H 0.27901 0.45803 0.41812 0.0
O1380 O 0.35459 0.46481 0.41101 0.0
O1381 O 0.33172 0.45807 0.46207 0.0
O1382 O 0.32462 0.47899 0.41729 0.0
O1383 O 0.31069 0.43403 0.41064 0.0
H1384 H 0.34917 0.43276 0.38743 0.0
H1385 H 0.37989 0.49523 0.38313 0.0
H1386 H 0.36524 0.43195 0.34598 0.0
H1387 H 0.39549 0.49331 0.3418 0.0
H1388 H 0.32396 0.41113 0.52009 0.0
H1389 H 0.36541 0.47788 0.487 0.0
H1390 H 0.31212 0.42296 0.48333 0.0
H1391 H 0.3763 0.46507 0.52365 0.0
H1392 H 0.41503 0.53111 0.44861 0.0
H1393 H 0.37181 0.53557 0.49497 0.0
H1394 H 0.32649 0.37672 0.43398 0.0
H1395 H 0.38135 0.42398 0.46159 0.0
H1396 H 0.29747 0.47028 0.38088 0.0
H1397 H 0.35171 0.51591 0.41165 0.0
H1398 H 0.29763 0.49352 0.34828 0.0
H1399 H 0.35101 0.53829 0.37827 0.0
H1400 H 0.28528 0.43469 0.37743 0.0
H1401 H 0.29148 0.40649 0.44612 0.0
H1402 H 0.2496 0.41307 0.38009 0.0
H1403 H 0.25567 0.38543 0.44763 0.0
H1404 H 0.311 0.4294 0.30864 0.0
H1405 H 0.34724 0.49193 0.30769 0.0
H1406 H 0.26321 0.43335 0.5091 0.0
H1407 H 0.24896 0.45361 0.43807 0.0
Li1408 Li 0.8699 0.34712 0.938 0.0
Li1409 Li 0.89055 0.33254 0.93288 0.0
Li1410 Li 0.86794 0.32979 0.89649 0.0
Li1411 Li 0.85631 0.31094 0.93693 0.0
C1412 C 0.89928 0.37094 0.89915 0.0
N1413 N 0.9172 0.40651 0.87386 0.0
C1414 C 0.91902 0.38402 0.90326 0.0
C1415 C 0.88875 0.37587 0.88187 0.0
C1416 C 0.92779 0.40196 0.8904 0.0
C1417 C 0.89805 0.39393 0.86934 0.0
C1418 C 0.8851 0.33271 0.98472 0.0
C1419 C 0.9012 0.32115 0.01362 0.0
N1420 N 0.90884 0.33808 0.02738 0.0
C1421 C 0.89296 0.34992 -0.00073 0.0
C1422 C 0.8891 0.31812 0.99206 0.0
C1423 C 0.90498 0.35238 0.02073 0.0
C1424 C 0.85152 0.36516 0.96381 0.0
N1425 N 0.86855 0.36817 0.95335 0.0
C1426 C 0.88433 0.40176 0.96491 0.0
C1427 C 0.88487 0.38594 0.95406 0.0
C1428 C 0.8669 0.39919 0.97552 0.0
C1429 C 0.85036 0.38057 0.97511 0.0
H1430 H 0.83883 0.35079 0.96326 0.0
H1431 H 0.89838 0.38781 0.94646 0.0
C1432 C 0.92242 0.32577 0.93039 0.0
N1433 N 0.91594 0.33742 0.94019 0.0
C1434 C 0.94184 0.33083 0.9337 0.0
C1435 C 0.9472 0.35931 0.9579 0.0
C1436 C 0.92781 0.35384 0.95385 0.0
C1437 C 0.95452 0.34794 0.94734 0.0
H1438 H 0.91268 0.31293 0.91929 0.0
H1439 H 0.92238 0.36309 0.96077 0.0
C1440 C 0.83184 0.32877 0.90858 0.0
N1441 N 0.8023 0.33291 0.88659 0.0
C1442 C 0.81354 0.31247 0.90437 0.0
C1443 C 0.83499 0.3472 0.90199 0.0
C1444 C 0.79883 0.31486 0.89312 0.0
C1445 C 0.81992 0.34898 0.8908 0.0
C1446 C 0.86706 0.29073 0.90584 0.0
C1447 C 0.85639 0.28188 0.88307 0.0
C1448 C 0.8704 0.27968 0.92428 0.0
C1449 C 0.84896 0.26198 0.87935 0.0
C1450 C 0.86269 0.25982 0.91985 0.0
N1451 N 0.85221 0.25145 0.89768 0.0
C1452 C 0.88225 0.33668 0.84545 0.0
C1453 C 0.84812 0.32335 0.84699 0.0
C1454 C 0.88205 0.33731 0.81801 0.0
N1455 N 0.86548 0.32991 0.85931 0.0
C1456 C 0.84724 0.32379 0.81955 0.0
C1457 C 0.86438 0.33087 0.80467 0.0
H1458 H 0.89581 0.34155 0.8558 0.0
H1459 H 0.83493 0.31767 0.85833 0.0
C1460 C 0.83537 0.28382 0.97698 0.0
N1461 N 0.83656 0.28697 0.95058 0.0
C1462 C 0.82017 0.26674 0.98748 0.0
C1463 C 0.80798 0.25632 0.94333 0.0
C1464 C 0.82334 0.27364 0.93373 0.0
C1465 C 0.80607 0.25281 0.97059 0.0
H1466 H 0.84594 0.2948 0.98995 0.0
H1467 H 0.8245 0.27662 0.91285 0.0
O1468 O 0.89051 0.3533 0.91161 0.0
O1469 O 0.87348 0.33013 0.96348 0.0
O1470 O 0.84636 0.32665 0.9197 0.0
O1471 O 0.87433 0.31016 0.90991 0.0
H1472 H 0.92748 0.38041 0.91632 0.0
H1473 H 0.87365 0.36577 0.87782 0.0
H1474 H 0.94302 0.41225 0.89354 0.0
H1475 H 0.89004 0.39791 0.85593 0.0
H1476 H 0.90452 0.31004 0.01942 0.0
H1477 H 0.88992 0.3613 0.99395 0.0
H1478 H 0.88301 0.30467 0.98112 0.0
H1479 H 0.91126 0.36567 0.03208 0.0
H1480 H 0.8975 0.41581 0.96536 0.0
H1481 H 0.83665 0.37803 0.98307 0.0
H1482 H 0.94699 0.32173 0.92522 0.0
H1483 H 0.95659 0.37283 0.96801 0.0
H1484 H 0.81072 0.29812 0.90962 0.0
H1485 H 0.84884 0.36003 0.90574 0.0
H1486 H 0.78464 0.30235 0.88961 0.0
H1487 H 0.82219 0.36316 0.88557 0.0
H1488 H 0.85375 0.29024 0.86855 0.0
H1489 H 0.87878 0.28636 0.94186 0.0
H1490 H 0.84057 0.2549 0.86191 0.0
H1491 H 0.86505 0.25106 0.93404 0.0
H1492 H 0.89557 0.34251 0.80739 0.0
H1493 H 0.83332 0.31878 0.81014 0.0
H1494 H 0.8191 0.2648 0.00865 0.0
H1495 H 0.79759 0.2459 0.92956 0.0
Li1496 Li 0.55292 0.8905 0.43098 0.0
Li1497 Li 0.51819 0.86593 0.43437 0.0
Li1498 Li 0.54181 0.85569 0.43898 0.0
Li1499 Li 0.53656 0.86618 0.39778 0.0
C1500 C 0.53013 0.8771 0.4831 0.0
N1501 N 0.51082 0.88242 0.52466 0.0
C1502 C 0.52657 0.89264 0.4829 0.0
C1503 C 0.52403 0.86439 0.50455 0.0
C1504 C 0.51673 0.89504 0.50406 0.0
C1505 C 0.51427 0.86731 0.52536 0.0
C1506 C 0.52504 0.89059 0.38535 0.0
C1507 C 0.50053 0.8811 0.35168 0.0
N1508 N 0.51312 0.89659 0.33687 0.0
C1509 C 0.53769 0.90649 0.36989 0.0
C1510 C 0.50627 0.87783 0.37626 0.0
C1511 C 0.53141 0.90924 0.3454 0.0
C1512 C 0.58345 0.92704 0.41672 0.0
N1513 N 0.57252 0.91648 0.43753 0.0
C1514 C 0.58868 0.94392 0.46601 0.0
C1515 C 0.57526 0.92431 0.46203 0.0
C1516 C 0.59951 0.95545 0.4446 0.0
C1517 C 0.59711 0.94668 0.41982 0.0
H1518 H 0.58123 0.92026 0.39759 0.0
H1519 H 0.56684 0.91543 0.47842 0.0
C1520 C 0.48347 0.84694 0.46413 0.0
N1521 N 0.49403 0.86193 0.44737 0.0
C1522 C 0.4671 0.84538 0.47668 0.0
C1523 C 0.4723 0.87412 0.45339 0.0
C1524 C 0.48868 0.87527 0.44161 0.0
C1525 C 0.46149 0.85929 0.47169 0.0
H1526 H 0.48826 0.8367 0.46859 0.0
H1527 H 0.49751 0.88722 0.42854 0.0
C1528 C 0.58046 0.8798 0.4221 0.0
N1529 N 0.61775 0.89156 0.43911 0.0
C1530 C 0.59443 0.88099 0.40432 0.0
C1531 C 0.58548 0.88467 0.44855 0.0
C1532 C 0.61319 0.88693 0.4133 0.0
C1533 C 0.6044 0.89056 0.45675 0.0
C1534 C 0.5155 0.82657 0.40707 0.0
C1535 C 0.53155 0.82638 0.39613 0.0
C1536 C 0.49739 0.80957 0.4071 0.0
C1537 C 0.52918 0.80916 0.38535 0.0
C1538 C 0.49562 0.79265 0.39612 0.0
N1539 N 0.51142 0.79279 0.38557 0.0
C1540 C 0.53128 0.82428 0.47183 0.0
C1541 C 0.56211 0.83525 0.45229 0.0
C1542 C 0.53215 0.8091 0.48426 0.0
N1543 N 0.54616 0.83703 0.45636 0.0
C1544 C 0.56371 0.82042 0.46459 0.0
C1545 C 0.54855 0.80702 0.48075 0.0
H1546 H 0.51847 0.82564 0.47394 0.0
H1547 H 0.57345 0.845 0.43913 0.0
C1548 C 0.55269 0.87541 0.34748 0.0
N1549 N 0.53628 0.86289 0.3607 0.0
C1550 C 0.55308 0.87514 0.32004 0.0
C1551 C 0.51984 0.84865 0.32038 0.0
C1552 C 0.52006 0.8495 0.34785 0.0
C1553 C 0.53641 0.86179 0.30614 0.0
H1554 H 0.56531 0.88597 0.35829 0.0
H1555 H 0.50711 0.83993 0.35887 0.0
O1556 O 0.53918 0.87415 0.46215 0.0
O1557 O 0.53109 0.88729 0.40902 0.0
O1558 O 0.56214 0.87423 0.41333 0.0
O1559 O 0.51736 0.84315 0.41805 0.0
H1560 H 0.53103 0.90251 0.46632 0.0
H1561 H 0.52676 0.85237 0.50512 0.0
H1562 H 0.51371 0.90688 0.50403 0.0
H1563 H 0.50939 0.85753 0.54204 0.0
H1564 H 0.48611 0.87125 0.34431 0.0
H1565 H 0.55224 0.91653 0.37662 0.0
H1566 H 0.49637 0.86532 0.38784 0.0
H1567 H 0.54109 0.92141 0.33315 0.0
H1568 H 0.59036 0.95008 0.48552 0.0
H1569 H 0.60511 0.95507 0.40278 0.0
H1570 H 0.45941 0.83386 0.49088 0.0
H1571 H 0.46837 0.88497 0.44851 0.0
H1572 H 0.59079 0.87734 0.38377 0.0
H1573 H 0.57494 0.88387 0.46266 0.0
H1574 H 0.62414 0.88789 0.39975 0.0
H1575 H 0.60847 0.89434 0.47714 0.0
H1576 H 0.5457 0.83933 0.39593 0.0
H1577 H 0.48485 0.80947 0.41557 0.0
H1578 H 0.54148 0.80881 0.37684 0.0
H1579 H 0.48168 0.77939 0.39601 0.0
H1580 H 0.51987 0.79885 0.49593 0.0
H1581 H 0.57666 0.81946 0.46137 0.0
H1582 H 0.56621 0.88539 0.30979 0.0
H1583 H 0.50663 0.83831 0.31038 0.0
Li1584 Li 0.44217 0.33695 0.064 0.0
Li1585 Li 0.47709 0.34895 0.06255 0.0
Li1586 Li 0.45356 0.31426 0.06098 0.0
Li1587 Li 0.45908 0.33285 0.10136 0.0
C1588 C 0.45047 0.33882 0.01351 0.0
N1589 N 0.43562 0.34866 0.9708 0.0
C1590 C 0.46117 0.35716 0.00191 0.0
C1591 C 0.43228 0.32545 0.00328 0.0
C1592 C 0.4534 0.36186 0.98034 0.0
C1593 C 0.425 0.33072 0.98172 0.0
C1594 C 0.46314 0.36721 0.10782 0.0
C1595 C 0.47908 0.38506 0.1472 0.0
N1596 N 0.46265 0.38526 0.15409 0.0
C1597 C 0.44643 0.36764 0.11526 0.0
C1598 C 0.47964 0.37606 0.12384 0.0
C1599 C 0.44647 0.37684 0.13873 0.0
C1600 C 0.40377 0.33045 0.06073 0.0
N1601 N 0.42268 0.34284 0.05454 0.0
C1602 C 0.41497 0.36638 0.03847 0.0
C1603 C 0.42847 0.3605 0.04357 0.0
C1604 C 0.39542 0.35414 0.04532 0.0
C1605 C 0.38979 0.33587 0.05631 0.0
H1606 H 0.39966 0.31668 0.06995 0.0
H1607 H 0.4437 0.37027 0.03963 0.0
C1608 C 0.5086 0.36435 0.02728 0.0
N1609 N 0.50092 0.36875 0.04831 0.0
C1610 C 0.52544 0.37876 0.01519 0.0
C1611 C 0.5262 0.40193 0.04673 0.0
C1612 C 0.50934 0.38706 0.0582 0.0
C1613 C 0.53437 0.3979 0.02476 0.0
H1614 H 0.50141 0.34969 0.01964 0.0
H1615 H 0.50271 0.39022 0.07461 0.0
C1616 C 0.4212 0.29434 0.08823 0.0
N1617 N 0.3964 0.25476 0.09268 0.0
C1618 C 0.42178 0.28443 0.11065 0.0
C1619 C 0.40792 0.28415 0.06817 0.0
C1620 C 0.40913 0.26441 0.11251 0.0
C1621 C 0.39554 0.26413 0.07075 0.0
C1622 C 0.49628 0.33215 0.0783 0.0
C1623 C 0.50051 0.32186 0.05964 0.0
C1624 C 0.51143 0.3476 0.09188 0.0
C1625 C 0.51987 0.32729 0.05477 0.0
C1626 C 0.53059 0.3526 0.0864 0.0
N1627 N 0.53438 0.34243 0.06812 0.0
C1628 C 0.44724 0.28782 0.02024 0.0
C1629 C 0.44836 0.27649 0.06307 0.0
C1630 C 0.44517 0.27088 0.00902 0.0
N1631 N 0.44884 0.29029 0.04678 0.0
C1632 C 0.44601 0.25918 0.05271 0.0
C1633 C 0.44465 0.25639 0.02534 0.0
H1634 H 0.44808 0.2992 0.00774 0.0
H1635 H 0.45026 0.27912 0.08403 0.0
C1636 C 0.44317 0.32943 0.15158 0.0
N1637 N 0.45917 0.33174 0.13867 0.0
C1638 C 0.44248 0.32879 0.17902 0.0
C1639 C 0.47469 0.33275 0.17936 0.0
C1640 C 0.47474 0.33329 0.15187 0.0
C1641 C 0.45839 0.33049 0.19328 0.0
H1642 H 0.43099 0.32817 0.14048 0.0
H1643 H 0.48717 0.33491 0.14107 0.0
O1644 O 0.4577 0.33402 0.03485 0.0
O1645 O 0.46323 0.35786 0.08525 0.0
O1646 O 0.43362 0.31389 0.08589 0.0
O1647 O 0.47744 0.32729 0.08301 0.0
H1648 H 0.47522 0.36773 0.00962 0.0
H1649 H 0.4238 0.31122 0.01204 0.0
H1650 H 0.46147 0.37602 0.97125 0.0
H1651 H 0.41089 0.32055 0.9737 0.0
H1652 H 0.49169 0.39182 0.15989 0.0
H1653 H 0.43348 0.36077 0.10322 0.0
H1654 H 0.49262 0.37567 0.11854 0.0
H1655 H 0.43362 0.3772 0.1448 0.0
H1656 H 0.41994 0.38075 0.03051 0.0
H1657 H 0.37485 0.3261 0.06196 0.0
H1658 H 0.53132 0.37499 0.99844 0.0
H1659 H 0.5324 0.41653 0.05446 0.0
H1660 H 0.43203 0.29206 0.1263 0.0
H1661 H 0.40729 0.29159 0.05069 0.0
H1662 H 0.40948 0.25654 0.12968 0.0
H1663 H 0.38527 0.25604 0.05531 0.0
H1664 H 0.489 0.30992 0.04886 0.0
H1665 H 0.50843 0.35585 0.10618 0.0
H1666 H 0.52336 0.3195 0.04032 0.0
H1667 H 0.54246 0.36462 0.09662 0.0
H1668 H 0.4442 0.2692 0.9878 0.0
H1669 H 0.446 0.24844 0.06585 0.0
H1670 H 0.42972 0.32723 0.18896 0.0
H1671 H 0.48715 0.33385 0.18958 0.0
Li1672 Li 0.13984 0.45429 0.5597 0.0
Li1673 Li 0.12894 0.46071 0.59859 0.0
Li1674 Li 0.10533 0.44027 0.56476 0.0
Li1675 Li 0.12809 0.47743 0.55905 0.0
C1676 C 0.12869 0.42164 0.58632 0.0
N1677 N 0.14136 0.39501 0.58672 0.0
C1678 C 0.1456 0.42574 0.59992 0.0
C1679 C 0.11806 0.40389 0.57323 0.0
C1680 C 0.15182 0.41213 0.59978 0.0
C1681 C 0.12474 0.39064 0.5736 0.0
C1682 C 0.16389 0.49287 0.5946 0.0
C1683 C 0.179 0.52431 0.61555 0.0
N1684 N 0.18993 0.51916 0.63043 0.0
C1685 C 0.17539 0.48796 0.60994 0.0
C1686 C 0.16577 0.51124 0.59729 0.0
C1687 C 0.18841 0.50142 0.62801 0.0
C1688 C 0.17798 0.46429 0.54715 0.0
N1689 N 0.15925 0.44984 0.54441 0.0
C1690 C 0.16934 0.4305 0.52049 0.0
C1691 C 0.15469 0.43319 0.53124 0.0
C1692 C 0.18883 0.44512 0.52333 0.0
C1693 C 0.19305 0.46222 0.5368 0.0
H1694 H 0.18124 0.47755 0.55719 0.0
H1695 H 0.1397 0.422 0.52898 0.0
C1696 C 0.12526 0.44569 0.64937 0.0
N1697 N 0.13132 0.46264 0.6362 0.0
C1698 C 0.12542 0.44539 0.67682 0.0
C1699 C 0.13816 0.48007 0.67683 0.0
C1700 C 0.13751 0.47964 0.64936 0.0
C1701 C 0.13198 0.46276 0.69098 0.0
H1702 H 0.11985 0.43226 0.63856 0.0
H1703 H 0.14162 0.49285 0.63865 0.0
C1704 C 0.12703 0.45158 0.51067 0.0
N1705 N 0.13956 0.44393 0.46383 0.0
C1706 C 0.14356 0.46619 0.49816 0.0
C1707 C 0.11675 0.43315 0.49928 0.0
C1708 C 0.14971 0.46201 0.47452 0.0
C1709 C 0.12334 0.42956 0.47559 0.0
C1710 C 0.09936 0.4663 0.60676 0.0
C1711 C 0.08635 0.4508 0.62252 0.0
C1712 C 0.10531 0.48535 0.61443 0.0
C1713 C 0.07961 0.45464 0.64588 0.0
C1714 C 0.09819 0.48859 0.63791 0.0
N1715 N 0.08562 0.47329 0.65304 0.0
C1716 C 0.07172 0.40549 0.57714 0.0
C1717 C 0.06964 0.42067 0.53802 0.0
C1718 C 0.05206 0.39159 0.57551 0.0
N1719 N 0.07992 0.41982 0.55882 0.0
C1720 C 0.04991 0.40702 0.53557 0.0
C1721 C 0.0408 0.39256 0.55489 0.0
H1722 H 0.0803 0.40535 0.59358 0.0
H1723 H 0.07658 0.43242 0.52397 0.0
C1724 C 0.14616 0.5132 0.53167 0.0
N1725 N 0.12957 0.49978 0.54377 0.0
C1726 C 0.1472 0.52969 0.52029 0.0
C1727 C 0.11405 0.51813 0.53405 0.0
C1728 C 0.11362 0.50183 0.54499 0.0
C1729 C 0.13101 0.53233 0.52152 0.0
H1730 H 0.15861 0.51114 0.53104 0.0
H1731 H 0.10056 0.49076 0.55446 0.0
O1732 O 0.1224 0.4348 0.58617 0.0
O1733 O 0.15119 0.47995 0.57661 0.0
O1734 O 0.12095 0.45529 0.53402 0.0
O1735 O 0.10651 0.46285 0.58418 0.0
H1736 H 0.15384 0.43931 0.6104 0.0
H1737 H 0.10495 0.4005 0.56258 0.0
H1738 H 0.16495 0.41516 0.61008 0.0
H1739 H 0.11676 0.37692 0.56339 0.0
H1740 H 0.18052 0.53853 0.61796 0.0
H1741 H 0.17425 0.47388 0.60793 0.0
H1742 H 0.15697 0.51529 0.58567 0.0
H1743 H 0.19733 0.49777 0.6401 0.0
H1744 H 0.16546 0.41709 0.51028 0.0
H1745 H 0.20786 0.47403 0.53891 0.0
H1746 H 0.12003 0.4316 0.68678 0.0
H1747 H 0.14345 0.49385 0.6868 0.0
H1748 H 0.15169 0.48051 0.5068 0.0
H1749 H 0.10394 0.42168 0.50879 0.0
H1750 H 0.16258 0.47312 0.46471 0.0
H1751 H 0.11561 0.41533 0.46661 0.0
H1752 H 0.08171 0.43598 0.61693 0.0
H1753 H 0.11555 0.49752 0.60261 0.0
H1754 H 0.06964 0.44279 0.65837 0.0
H1755 H 0.10276 0.50326 0.64419 0.0
H1756 H 0.0456 0.38058 0.59068 0.0
H1757 H 0.04169 0.40842 0.51957 0.0
H1758 H 0.16058 0.54038 0.51098 0.0
H1759 H 0.10117 0.51947 0.53506 0.0
Li1760 Li 0.68167 0.1408 0.05825 0.0
Li1761 Li 0.66445 0.13012 0.09813 0.0
Li1762 Li 0.65994 0.10622 0.06503 0.0
Li1763 Li 0.64671 0.12943 0.05891 0.0
C1764 C 0.70107 0.13264 0.09767 0.0
N1765 N 0.73594 0.15114 0.12453 0.0
C1766 C 0.70823 0.15151 0.10711 0.0
C1767 C 0.7116 0.12313 0.10194 0.0
C1768 C 0.72589 0.16063 0.12063 0.0
C1769 C 0.72922 0.13274 0.11555 0.0
C1770 C 0.66734 0.1675 0.08729 0.0
C1771 C 0.64932 0.18214 0.1043 0.0
N1772 N 0.6663 0.19866 0.10968 0.0
C1773 C 0.68462 0.18474 0.09267 0.0
C1774 C 0.64953 0.16627 0.09287 0.0
C1775 C 0.68379 0.20028 0.10412 0.0
C1776 C 0.70492 0.17548 0.03229 0.0
N1777 N 0.70493 0.15956 0.04188 0.0
C1778 C 0.73746 0.1715 0.02704 0.0
C1779 C 0.72067 0.15723 0.03945 0.0
C1780 C 0.73792 0.18821 0.01705 0.0
C1781 C 0.72135 0.19009 0.01981 0.0
H1782 H 0.6921 0.17681 0.03437 0.0
H1783 H 0.72014 0.14424 0.04694 0.0
C1784 C 0.66787 0.11899 0.14863 0.0
N1785 N 0.66619 0.13304 0.13569 0.0
C1786 C 0.6686 0.11892 0.17605 0.0
C1787 C 0.66632 0.14809 0.17651 0.0
C1788 C 0.66549 0.14751 0.14903 0.0
C1789 C 0.66779 0.1336 0.19042 0.0
H1790 H 0.66835 0.10761 0.13754 0.0
H1791 H 0.66414 0.15855 0.13858 0.0
C1792 C 0.67255 0.12483 0.01176 0.0
N1793 N 0.69655 0.13206 0.96876 0.0
C1794 C 0.67266 0.13654 0.99117 0.0
C1795 C 0.68466 0.11679 0.01048 0.0
C1796 C 0.6849 0.14003 0.96961 0.0
C1797 C 0.69667 0.1206 0.98856 0.0
C1798 C 0.62938 0.10103 0.10813 0.0
C1799 C 0.62655 0.08351 0.11847 0.0
C1800 C 0.62231 0.11146 0.12185 0.0
C1801 C 0.61699 0.07688 0.14258 0.0
C1802 C 0.61286 0.10438 0.14592 0.0
N1803 N 0.61044 0.08739 0.15572 0.0
C1804 C 0.6581 0.07085 0.07733 0.0
C1805 C 0.64629 0.07224 0.035 0.0
C1806 C 0.65202 0.05121 0.07394 0.0
N1807 N 0.65464 0.08071 0.05827 0.0
C1808 C 0.64036 0.05275 0.03052 0.0
C1809 C 0.64261 0.04174 0.05047 0.0
H1810 H 0.66477 0.07805 0.09566 0.0
H1811 H 0.64379 0.08051 0.02017 0.0
C1812 C 0.62919 0.14318 0.02286 0.0
N1813 N 0.62599 0.13152 0.04404 0.0
C1814 C 0.6137 0.14372 0.01073 0.0
C1815 C 0.59217 0.12114 0.04348 0.0
C1816 C 0.60798 0.12067 0.05452 0.0
C1817 C 0.59477 0.13246 0.02089 0.0
H1818 H 0.64373 0.15183 0.01516 0.0
H1819 H 0.60583 0.11152 0.07137 0.0
O1820 O 0.68382 0.12338 0.08436 0.0
O1821 O 0.6679 0.15221 0.07582 0.0
O1822 O 0.66119 0.12176 0.03351 0.0
O1823 O 0.63916 0.108 0.08485 0.0
H1824 H 0.7002 0.15898 0.10412 0.0
H1825 H 0.70622 0.10849 0.09476 0.0
H1826 H 0.7316 0.17524 0.12805 0.0
H1827 H 0.73754 0.12558 0.11897 0.0
H1828 H 0.63564 0.18132 0.10886 0.0
H1829 H 0.69854 0.18615 0.088 0.0
H1830 H 0.63602 0.15322 0.08847 0.0
H1831 H 0.69704 0.21366 0.10851 0.0
H1832 H 0.74983 0.16938 0.02502 0.0
H1833 H 0.72115 0.20284 0.01274 0.0
H1834 H 0.66941 0.10725 0.18587 0.0
H1835 H 0.66592 0.15985 0.18671 0.0
H1836 H 0.6635 0.14298 0.99187 0.0
H1837 H 0.68504 0.10798 0.02645 0.0
H1838 H 0.68517 0.14912 0.95357 0.0
H1839 H 0.70618 0.11455 0.98739 0.0
H1840 H 0.63171 0.07512 0.10806 0.0
H1841 H 0.62438 0.12505 0.11423 0.0
H1842 H 0.61481 0.0634 0.15086 0.0
H1843 H 0.60752 0.11243 0.15686 0.0
H1844 H 0.65386 0.04339 0.09008 0.0
H1845 H 0.63364 0.04629 0.01187 0.0
H1846 H 0.61654 0.15252 0.99324 0.0
H1847 H 0.57806 0.11262 0.05261 0.0
Li1848 Li 0.53632 0.66488 0.60329 0.0
Li1849 Li 0.54193 0.6837 0.56456 0.0
Li1850 Li 0.51695 0.64774 0.56493 0.0
Li1851 Li 0.5529 0.66057 0.56629 0.0
C1852 C 0.50628 0.67241 0.60237 0.0
N1853 N 0.48422 0.67832 0.63926 0.0
C1854 C 0.51494 0.68866 0.61885 0.0
C1855 C 0.4864 0.6592 0.60455 0.0
C1856 C 0.50354 0.69137 0.63742 0.0
C1857 C 0.47549 0.66245 0.62334 0.0
C1858 C 0.57563 0.70307 0.58834 0.0
C1859 C 0.60153 0.73093 0.56643 0.0
N1860 N 0.6032 0.74213 0.58762 0.0
C1861 C 0.57765 0.71484 0.60995 0.0
C1862 C 0.58772 0.71115 0.56645 0.0
C1863 C 0.59167 0.73456 0.60919 0.0
C1864 C 0.55317 0.67252 0.65352 0.0
N1865 N 0.53576 0.66471 0.64099 0.0
C1866 C 0.51895 0.65613 0.68217 0.0
C1867 C 0.51879 0.65624 0.6547 0.0
C1868 C 0.53675 0.66451 0.69568 0.0
C1869 C 0.55402 0.67264 0.68096 0.0
H1870 H 0.56643 0.67846 0.64215 0.0
H1871 H 0.50509 0.64935 0.64436 0.0
C1872 C 0.54436 0.70846 0.52352 0.0
N1873 N 0.54614 0.70755 0.55002 0.0
C1874 C 0.5459 0.7251 0.51197 0.0
C1875 C 0.55147 0.73972 0.55516 0.0
C1876 C 0.54955 0.7227 0.56588 0.0
C1877 C 0.54938 0.74101 0.52788 0.0
H1878 H 0.54121 0.69605 0.51139 0.0
H1879 H 0.55054 0.72156 0.5869 0.0
C1880 C 0.53267 0.63045 0.60969 0.0
N1881 N 0.53479 0.61287 0.65554 0.0
C1882 C 0.55058 0.63335 0.61855 0.0
C1883 C 0.51584 0.61859 0.62414 0.0
C1884 C 0.55134 0.62433 0.64177 0.0
C1885 C 0.51722 0.60984 0.64727 0.0
C1886 C 0.54328 0.65862 0.51554 0.0
C1887 C 0.53235 0.63997 0.50494 0.0
C1888 C 0.56053 0.67216 0.50324 0.0
C1889 C 0.53904 0.6351 0.48236 0.0
C1890 C 0.56673 0.66673 0.48071 0.0
N1891 N 0.55596 0.64846 0.47083 0.0
C1892 C 0.48439 0.63334 0.53195 0.0
C1893 C 0.48554 0.60956 0.55887 0.0
C1894 C 0.46754 0.61912 0.51962 0.0
N1895 N 0.49304 0.62829 0.551 0.0
C1896 C 0.46858 0.59491 0.54734 0.0
C1897 C 0.45952 0.59961 0.52723 0.0
H1898 H 0.49087 0.64838 0.52595 0.0
H1899 H 0.493 0.60592 0.57359 0.0
C1900 C 0.59098 0.66605 0.5622 0.0
N1901 N 0.57195 0.65417 0.55605 0.0
C1902 C 0.60451 0.6601 0.55736 0.0
C1903 C 0.57866 0.63006 0.5394 0.0
C1904 C 0.56562 0.63648 0.54486 0.0
C1905 C 0.59832 0.64178 0.54611 0.0
H1906 H 0.59553 0.67978 0.57181 0.0
H1907 H 0.5503 0.62706 0.54111 0.0
O1908 O 0.51712 0.66943 0.58405 0.0
O1909 O 0.56193 0.68374 0.58863 0.0
O1910 O 0.53173 0.63963 0.58743 0.0
O1911 O 0.53709 0.6636 0.53781 0.0
H1912 H 0.53036 0.69881 0.61773 0.0
H1913 H 0.47949 0.64656 0.5919 0.0
H1914 H 0.51008 0.70379 0.65045 0.0
H1915 H 0.46009 0.65234 0.6253 0.0
H1916 H 0.61092 0.73737 0.54956 0.0
H1917 H 0.56829 0.70894 0.62695 0.0
H1918 H 0.58639 0.70225 0.54961 0.0
H1919 H 0.59331 0.74386 0.6257 0.0
H1920 H 0.50527 0.6497 0.69267 0.0
H1921 H 0.56805 0.67879 0.6905 0.0
H1922 H 0.54378 0.72523 0.49093 0.0
H1923 H 0.55441 0.75166 0.5682 0.0
H1924 H 0.56379 0.64266 0.60783 0.0
H1925 H 0.50192 0.6165 0.61788 0.0
H1926 H 0.56511 0.62651 0.64891 0.0
H1927 H 0.50434 0.60075 0.65875 0.0
H1928 H 0.51899 0.62928 0.5142 0.0
H1929 H 0.56904 0.68671 0.511 0.0
H1930 H 0.5308 0.62068 0.47404 0.0
H1931 H 0.5801 0.67704 0.47105 0.0
H1932 H 0.46093 0.62328 0.5042 0.0
H1933 H 0.463 0.57999 0.55343 0.0
H1934 H 0.61954 0.6695 0.56292 0.0
H1935 H 0.57323 0.61565 0.53129 0.0
Li1936 Li 0.85371 0.54136 0.0572 0.0
Li1937 Li 0.86473 0.53526 0.09824 0.0
Li1938 Li 0.8888 0.55491 0.06411 0.0
Li1939 Li 0.86764 0.51992 0.05914 0.0
C1940 C 0.86277 0.56911 0.09918 0.0
N1941 N 0.84688 0.58547 0.13155 0.0
C1942 C 0.84278 0.55938 0.1039 0.0
C1943 C 0.87469 0.58715 0.11092 0.0
C1944 C 0.83502 0.56789 0.12033 0.0
C1945 C 0.86638 0.59519 0.12722 0.0
C1946 C 0.82945 0.50311 0.09203 0.0
C1947 C 0.81877 0.47758 0.1244 0.0
N1948 N 0.80141 0.47699 0.12608 0.0
C1949 C 0.81145 0.50216 0.09393 0.0
C1950 C 0.8331 0.49064 0.10724 0.0
C1951 C 0.79748 0.48889 0.11131 0.0
C1952 C 0.81922 0.52896 0.03022 0.0
N1953 N 0.83465 0.54509 0.0404 0.0
C1954 C 0.82107 0.56468 0.02756 0.0
C1955 C 0.836 0.5628 0.03904 0.0
C1956 C 0.80466 0.54813 0.01757 0.0
C1957 C 0.80393 0.53013 0.01874 0.0
H1958 H 0.81869 0.51512 0.03142 0.0
H1959 H 0.84852 0.5754 0.04724 0.0
C1960 C 0.87845 0.53917 0.14921 0.0
N1961 N 0.86181 0.53378 0.13558 0.0
C1962 C 0.87847 0.53963 0.17664 0.0
C1963 C 0.84416 0.52888 0.17569 0.0
C1964 C 0.84485 0.52883 0.1482 0.0
C1965 C 0.86117 0.53448 0.1902 0.0
H1966 H 0.89181 0.54337 0.13871 0.0
H1967 H 0.83192 0.52517 0.13705 0.0
C1968 C 0.87659 0.55303 0.01207 0.0
N1969 N 0.88297 0.57788 0.97041 0.0
C1970 C 0.87569 0.54664 0.9862 0.0
C1971 C 0.88074 0.57205 0.01677 0.0
C1972 C 0.87897 0.55943 0.96539 0.0
C1973 C 0.88391 0.58439 0.99544 0.0
C1974 C 0.8981 0.52488 0.08889 0.0
C1975 C 0.91502 0.53105 0.07411 0.0
C1976 C 0.89212 0.5094 0.10646 0.0
C1977 C 0.92548 0.52132 0.07675 0.0
C1978 C 0.90298 0.50005 0.10855 0.0
N1979 N 0.91928 0.50613 0.09375 0.0
C1980 C 0.92301 0.58585 0.08206 0.0
C1981 C 0.92471 0.57876 0.03708 0.0
C1982 C 0.94282 0.59934 0.08239 0.0
N1983 N 0.9145 0.57567 0.0598 0.0
C1984 C 0.94459 0.59226 0.03646 0.0
C1985 C 0.95394 0.60232 0.05956 0.0
H1986 H 0.91454 0.58278 0.09992 0.0
H1987 H 0.91769 0.57007 0.01985 0.0
C1988 C 0.85069 0.47971 0.04727 0.0
N1989 N 0.86671 0.49754 0.04434 0.0
C1990 C 0.85009 0.46337 0.0361 0.0
C1991 C 0.88237 0.4841 0.01881 0.0
C1992 C 0.88226 0.50004 0.0301 0.0
C1993 C 0.86612 0.46542 0.02171 0.0
H1994 H 0.83826 0.47818 0.05795 0.0
H1995 H 0.89459 0.51446 0.02746 0.0
O1996 O 0.87072 0.56098 0.08337 0.0
O1997 O 0.84333 0.51605 0.07516 0.0
O1998 O 0.87323 0.54057 0.03257 0.0
O1999 O 0.88763 0.53419 0.08652 0.0
H2000 H 0.83337 0.54537 0.0951 0.0
H2001 H 0.89021 0.59487 0.10746 0.0
H2002 H 0.81957 0.56049 0.12418 0.0
H2003 H 0.87544 0.60916 0.13644 0.0
H2004 H 0.82144 0.46791 0.13637 0.0
H2005 H 0.80831 0.51163 0.08224 0.0
H2006 H 0.84685 0.49105 0.10579 0.0
H2007 H 0.78353 0.48806 0.11308 0.0
H2008 H 0.82211 0.57879 0.02712 0.0
H2009 H 0.79167 0.5171 0.01087 0.0
H2010 H 0.89188 0.54393 0.18715 0.0
H2011 H 0.8306 0.52508 0.18547 0.0
H2012 H 0.87247 0.53194 0.98226 0.0
H2013 H 0.88154 0.57728 0.03665 0.0
H2014 H 0.87832 0.55468 0.94526 0.0
H2015 H 0.88713 0.59914 0.99879 0.0
H2016 H 0.91992 0.54307 0.06052 0.0
H2017 H 0.87932 0.50473 0.1185 0.0
H2018 H 0.93852 0.52584 0.06528 0.0
H2019 H 0.89848 0.48799 0.122 0.0
H2020 H 0.94951 0.60688 0.10055 0.0
H2021 H 0.95275 0.59395 0.01861 0.0
H2022 H 0.83707 0.44935 0.03836 0.0
H2023 H 0.89513 0.48641 0.0081 0.0
Li2024 Li 0.33001 0.86554 0.60409 0.0
Li2025 Li 0.31414 0.85485 0.56295 0.0
Li2026 Li 0.34811 0.86515 0.56738 0.0
Li2027 Li 0.33759 0.88949 0.5705 0.0
C2028 C 0.31142 0.82571 0.59476 0.0
N2029 N 0.28177 0.79178 0.61604 0.0
C2030 C 0.29553 0.8256 0.60676 0.0
C2031 C 0.31221 0.80856 0.59357 0.0
C2032 C 0.28069 0.8083 0.6174 0.0
C2033 C 0.29709 0.79156 0.60445 0.0
C2034 C 0.29946 0.87874 0.5795 0.0
C2035 C 0.28519 0.88777 0.54428 0.0
N2036 N 0.27377 0.89016 0.56209 0.0
C2037 C 0.28763 0.88132 0.59745 0.0
C2038 C 0.29828 0.88202 0.55267 0.0
C2039 C 0.27471 0.88708 0.58827 0.0
C2040 C 0.32475 0.87619 0.65436 0.0
N2041 N 0.32721 0.86265 0.64134 0.0
C2042 C 0.32801 0.84786 0.68192 0.0
C2043 C 0.32877 0.84857 0.65444 0.0
C2044 C 0.32595 0.86196 0.69589 0.0
C2045 C 0.32418 0.87619 0.68181 0.0
H2046 H 0.32372 0.8873 0.64336 0.0
H2047 H 0.33112 0.83821 0.64363 0.0
C2048 C 0.29281 0.8263 0.52574 0.0
N2049 N 0.29093 0.83655 0.54577 0.0
C2050 C 0.27639 0.81183 0.51299 0.0
C2051 C 0.25636 0.81855 0.54203 0.0
C2052 C 0.27318 0.83289 0.55421 0.0
C2053 C 0.25785 0.80776 0.52118 0.0
H2054 H 0.30709 0.82906 0.52012 0.0
H2055 H 0.27199 0.84077 0.57074 0.0
C2056 C 0.36613 0.88991 0.61595 0.0
N2057 N 0.38462 0.89576 0.66395 0.0
C2058 C 0.3707 0.90643 0.63086 0.0
C2059 C 0.37112 0.87644 0.62533 0.0
C2060 C 0.38001 0.9091 0.65511 0.0
C2061 C 0.38044 0.87965 0.64967 0.0
C2062 C 0.34835 0.87852 0.51934 0.0
C2063 C 0.36707 0.89446 0.5223 0.0
C2064 C 0.3433 0.86787 0.49591 0.0
C2065 C 0.38047 0.89938 0.50183 0.0
C2066 C 0.35711 0.87327 0.47588 0.0
N2067 N 0.37526 0.88876 0.47925 0.0
C2068 C 0.36386 0.84694 0.53622 0.0
C2069 C 0.38695 0.87415 0.56067 0.0
C2070 C 0.37869 0.84553 0.52348 0.0
N2071 N 0.36826 0.86128 0.5541 0.0
C2072 C 0.40219 0.87311 0.54873 0.0
C2073 C 0.39821 0.85893 0.52939 0.0
H2074 H 0.34884 0.83712 0.53108 0.0
H2075 H 0.39007 0.88566 0.57455 0.0
C2076 C 0.3445 0.92636 0.58431 0.0
N2077 N 0.34348 0.91526 0.56338 0.0
C2078 C 0.34988 0.94581 0.5807 0.0
C2079 C 0.35213 0.94174 0.53386 0.0
C2080 C 0.34658 0.92233 0.53839 0.0
C2081 C 0.35418 0.95382 0.55525 0.0
H2082 H 0.34141 0.92015 0.60388 0.0
H2083 H 0.34497 0.913 0.52198 0.0
O2084 O 0.3261 0.84237 0.58388 0.0
O2085 O 0.31227 0.87328 0.58842 0.0
O2086 O 0.35648 0.88669 0.59253 0.0
O2087 O 0.33528 0.87307 0.53958 0.0
H2088 H 0.2946 0.83868 0.60791 0.0
H2089 H 0.32439 0.80841 0.58427 0.0
H2090 H 0.26832 0.80801 0.62673 0.0
H2091 H 0.29752 0.77818 0.60367 0.0
H2092 H 0.28411 0.89034 0.52359 0.0
H2093 H 0.28842 0.8789 0.61829 0.0
H2094 H 0.30729 0.88013 0.53843 0.0
H2095 H 0.26545 0.88912 0.60195 0.0
H2096 H 0.32966 0.83682 0.69215 0.0
H2097 H 0.32247 0.88724 0.69192 0.0
H2098 H 0.27818 0.80354 0.49743 0.0
H2099 H 0.24235 0.8159 0.54894 0.0
H2100 H 0.36703 0.91703 0.62387 0.0
H2101 H 0.3675 0.86348 0.61415 0.0
H2102 H 0.38353 0.92176 0.66694 0.0
H2103 H 0.38423 0.86927 0.65727 0.0
H2104 H 0.37128 0.90276 0.54041 0.0
H2105 H 0.32888 0.85556 0.49319 0.0
H2106 H 0.39504 0.91158 0.50396 0.0
H2107 H 0.35341 0.86513 0.45767 0.0
H2108 H 0.37489 0.83453 0.50847 0.0
H2109 H 0.41695 0.88356 0.5543 0.0
H2110 H 0.35136 0.95464 0.59775 0.0
H2111 H 0.35499 0.9473 0.5139 0.0
C2112 C 0.33192 0.44644 0.23391 0.0
C2113 C 0.32889 0.45978 0.21947 0.0
H2114 H 0.33448 0.43638 0.27201 0.0
C2115 C 0.32591 0.47344 0.23319 0.0
H2116 H 0.33462 0.43596 0.22398 0.0
C2117 C 0.326 0.47378 0.26069 0.0
C2118 C 0.32895 0.46038 0.27507 0.0
H2119 H 0.32322 0.48372 0.22269 0.0
H2120 H 0.32345 0.48433 0.27072 0.0
C2121 C 0.33189 0.4467 0.26141 0.0
C2122 C 0.84876 0.31613 0.73373 0.0
C2123 C 0.86399 0.33144 0.71981 0.0
H2124 H 0.83713 0.30371 0.77142 0.0
C2125 C 0.87891 0.34689 0.73392 0.0
H2126 H 0.83717 0.30394 0.72334 0.0
C2127 C 0.87883 0.34687 0.76141 0.0
C2128 C 0.86388 0.33132 0.77543 0.0
H2129 H 0.89067 0.35904 0.72368 0.0
H2130 H 0.89049 0.35908 0.77167 0.0
C2131 C 0.84874 0.31603 0.76127 0.0
C2132 C 0.54388 0.88004 0.26365 0.0
C2133 C 0.53608 0.86221 0.27698 0.0
H2134 H 0.54955 0.89458 0.22652 0.0
C2135 C 0.52774 0.84491 0.26228 0.0
H2136 H 0.5502 0.8936 0.27445 0.0
C2137 C 0.52726 0.84546 0.23477 0.0
C2138 C 0.53496 0.86332 0.22149 0.0
H2139 H 0.52171 0.83096 0.27205 0.0
H2140 H 0.52064 0.83192 0.22391 0.0
C2141 C 0.54331 0.88059 0.23622 0.0
C2142 C 0.65637 0.5453 0.7583 0.0
C2143 C 0.6646 0.536 0.77246 0.0
H2144 H 0.64981 0.55241 0.72048 0.0
C2145 C 0.67278 0.52656 0.75849 0.0
H2146 H 0.64967 0.55241 0.76849 0.0
C2147 C 0.67288 0.52658 0.73097 0.0
C2148 C 0.6648 0.53603 0.71682 0.0
H2149 H 0.67946 0.51949 0.76883 0.0
H2150 H 0.67963 0.51951 0.72079 0.0
C2151 C 0.65647 0.54531 0.7308 0.0
C2152 C 0.14342 0.6847 0.25961 0.0
C2153 C 0.14066 0.66833 0.27377 0.0
H2154 H 0.14464 0.69712 0.2218 0.0
C2155 C 0.13844 0.65207 0.25985 0.0
H2156 H 0.14494 0.69737 0.26978 0.0
C2157 C 0.13838 0.65196 0.23234 0.0
C2158 C 0.14044 0.66807 0.21813 0.0
H2159 H 0.1366 0.63936 0.27024 0.0
H2160 H 0.13653 0.63916 0.2222 0.0
C2161 C 0.14328 0.68456 0.23209 0.0
C2162 C 0.44051 0.1192 0.76261 0.0
C2163 C 0.45758 0.1312 0.77683 0.0
H2164 H 0.42739 0.10937 0.72475 0.0
C2165 C 0.47487 0.14295 0.76286 0.0
H2166 H 0.42686 0.11027 0.77267 0.0
C2167 C 0.4751 0.14257 0.73534 0.0
C2168 C 0.45809 0.13032 0.72124 0.0
H2169 H 0.48833 0.15217 0.77318 0.0
H2170 H 0.48868 0.15153 0.72511 0.0
C2171 C 0.44079 0.11871 0.73514 0.0
C2172 C 0.55161 0.68108 0.73853 0.0
C2173 C 0.53732 0.66475 0.72493 0.0
H2174 H 0.56299 0.69433 0.77596 0.0
C2175 C 0.52348 0.64873 0.7395 0.0
H2176 H 0.56231 0.69378 0.72794 0.0
C2177 C 0.52379 0.64913 0.767 0.0
C2178 C 0.53802 0.6655 0.78054 0.0
H2179 H 0.51249 0.63577 0.72968 0.0
H2180 H 0.51302 0.63652 0.77769 0.0
C2181 C 0.552 0.68142 0.76604 0.0
C2182 C 0.87631 0.55217 0.26 0.0
C2183 C 0.86232 0.53646 0.27489 0.0
H2184 H 0.88681 0.56385 0.22164 0.0
C2185 C 0.84738 0.52039 0.26161 0.0
H2186 H 0.88774 0.56499 0.26955 0.0
C2187 C 0.84674 0.51988 0.23408 0.0
C2188 C 0.86111 0.53534 0.21932 0.0
H2189 H 0.83648 0.50797 0.27245 0.0
H2190 H 0.83534 0.50715 0.22432 0.0
C2191 C 0.87577 0.55157 0.23255 0.0
C2192 C 0.33835 0.87977 0.73841 0.0
C2193 C 0.32638 0.86231 0.72503 0.0
H2194 H 0.34835 0.89388 0.77569 0.0
C2195 C 0.31502 0.84529 0.73964 0.0
H2196 H 0.34739 0.89306 0.7276 0.0
C2197 C 0.31549 0.84578 0.76718 0.0
C2198 C 0.32758 0.86323 0.78053 0.0
H2199 H 0.30561 0.83167 0.72977 0.0
H2200 H 0.3066 0.83248 0.77804 0.0
C2201 C 0.33903 0.8802 0.76588 0.0
C2202 C 0.4406 0.31597 0.26344 0.0
C2203 C 0.45707 0.32881 0.27811 0.0
H2204 H 0.42819 0.30623 0.2252 0.0
C2205 C 0.47401 0.34218 0.26465 0.0
H2206 H 0.42742 0.3053 0.2732 0.0
C2207 C 0.47445 0.34269 0.23715 0.0
C2208 C 0.45797 0.32987 0.22249 0.0
H2209 H 0.48685 0.35247 0.27538 0.0
H2210 H 0.48762 0.35336 0.22737 0.0
C2211 C 0.44104 0.3165 0.23594 0.0
C2212 C 0.13619 0.44999 0.73432 0.0
C2213 C 0.13194 0.46267 0.72029 0.0
H2214 H 0.1388 0.43948 0.77209 0.0
C2215 C 0.12731 0.47502 0.7345 0.0
H2216 H 0.1402 0.44055 0.72411 0.0
C2217 C 0.12689 0.47463 0.76201 0.0
C2218 C 0.13082 0.46172 0.77587 0.0
H2219 H 0.12359 0.48471 0.72442 0.0
H2220 H 0.12303 0.48411 0.77245 0.0
C2221 C 0.13549 0.44941 0.7618 0.0
C2222 C 0.67993 0.12726 0.26072 0.0
C2223 C 0.66824 0.13251 0.2753 0.0
H2224 H 0.68937 0.124 0.22261 0.0
C2225 C 0.65673 0.13853 0.26187 0.0
H2226 H 0.68916 0.12283 0.27058 0.0
C2227 C 0.65666 0.139 0.23436 0.0
C2228 C 0.66823 0.13361 0.21969 0.0
H2229 H 0.64741 0.14244 0.27263 0.0
H2230 H 0.64719 0.14318 0.22461 0.0
C2231 C 0.67999 0.12789 0.23323 0.0
C2232 C 0.206 0.4324 0.99208 0.0
C2233 C 0.20593 0.44989 0.98855 0.0
H2234 H 0.22199 0.41886 0.00527 0.0
C2235 C 0.22241 0.46749 0.99571 0.0
H2236 H 0.19342 0.41865 0.98681 0.0
C2237 C 0.23873 0.46762 0.00604 0.0
C2238 C 0.23878 0.45014 0.00968 0.0
H2239 H 0.22277 0.48118 0.99297 0.0
H2240 H 0.25125 0.48138 0.01144 0.0
C2241 C 0.22225 0.43251 0.00275 0.0
C2242 C 0.76304 0.2063 0.51338 0.0
C2243 C 0.75944 0.20466 0.48614 0.0
H2244 H 0.78131 0.22371 0.54489 0.0
C2245 C 0.7727 0.21943 0.46939 0.0
H2246 H 0.75317 0.19505 0.52675 0.0
C2247 C 0.78889 0.23579 0.47975 0.0
C2248 C 0.79219 0.23767 0.50707 0.0
H2249 H 0.77025 0.21867 0.44833 0.0
H2250 H 0.79873 0.24706 0.4664 0.0
C2251 C 0.77925 0.22262 0.52374 0.0
C2252 C 0.53901 0.7847 0.98293 0.0
C2253 C 0.55113 0.79507 0.00415 0.0
H2254 H 0.52941 0.76072 0.95654 0.0
C2255 C 0.56429 0.78959 0.01374 0.0
H2256 H 0.52894 0.78873 0.97474 0.0
C2257 C 0.5649 0.77378 0.00285 0.0
C2258 C 0.55227 0.76297 0.98224 0.0
H2259 H 0.57374 0.79715 0.03019 0.0
H2260 H 0.57514 0.76989 0.0108 0.0
C2261 C 0.5395 0.7688 0.9722 0.0
C2262 C 0.77515 0.56433 0.51176 0.0
C2263 C 0.75662 0.54796 0.50835 0.0
H2264 H 0.80575 0.57721 0.50495 0.0
C2265 C 0.75493 0.5317 0.49503 0.0
H2266 H 0.77689 0.57713 0.52179 0.0
C2267 C 0.77137 0.5318 0.48525 0.0
C2268 C 0.78991 0.54815 0.48861 0.0
H2269 H 0.7409 0.51875 0.49238 0.0
H2270 H 0.76951 0.51911 0.47479 0.0
C2271 C 0.79164 0.56445 0.50191 0.0
C2272 C 0.22803 0.79096 0.01083 0.0
C2273 C 0.23459 0.79096 0.98512 0.0
H2274 H 0.20734 0.77477 0.04095 0.0
C2275 C 0.22424 0.77431 0.96941 0.0
H2276 H 0.23561 0.80365 0.02331 0.0
C2277 C 0.20801 0.75783 0.97946 0.0
C2278 C 0.20174 0.75767 0.00538 0.0
H2279 H 0.22902 0.77381 0.94959 0.0
H2280 H 0.20047 0.74512 0.96701 0.0
C2281 C 0.21174 0.77451 0.02083 0.0
C2282 C 0.42845 0.20615 0.51396 0.0
C2283 C 0.44079 0.19996 0.50338 0.0
H2284 H 0.41821 0.22638 0.51174 0.0
C2285 C 0.45195 0.2095 0.48103 0.0
H2286 H 0.41974 0.19923 0.53127 0.0
C2287 C 0.45143 0.22536 0.47022 0.0
C2288 C 0.43955 0.23196 0.48128 0.0
H2289 H 0.46133 0.20489 0.47204 0.0
H2290 H 0.46086 0.23282 0.4537 0.0
C2291 C 0.42778 0.22191 0.50298 0.0
C2292 C 0.769 0.53543 0.01316 0.0
C2293 C 0.78813 0.54943 0.00648 0.0
H2294 H 0.73873 0.52504 0.00752 0.0
C2295 C 0.79127 0.56444 0.98902 0.0
H2296 H 0.76615 0.52383 0.02681 0.0
C2297 C 0.77553 0.5652 0.97806 0.0
C2298 C 0.7564 0.55107 0.98459 0.0
H2299 H 0.80587 0.57537 0.98344 0.0
H2300 H 0.77833 0.57684 0.96452 0.0
C2301 C 0.75331 0.53626 0.00237 0.0
C2302 C 0.208 0.76335 0.51268 0.0
C2303 C 0.20741 0.76017 0.48538 0.0
H2304 H 0.22443 0.78075 0.54539 0.0
C2305 C 0.22319 0.77324 0.46979 0.0
H2306 H 0.19597 0.75365 0.52517 0.0
C2307 C 0.23941 0.78889 0.48134 0.0
C2308 C 0.24018 0.79182 0.50871 0.0
H2309 H 0.22326 0.77109 0.44874 0.0
H2310 H 0.2514 0.79864 0.46883 0.0
C2311 C 0.22421 0.779 0.52422 0.0
C2312 C 0.45716 0.22496 0.98344 0.0
C2313 C 0.44402 0.20629 0.99282 0.0
H2314 H 0.46748 0.25544 0.98632 0.0
C2315 C 0.43067 0.20405 0.01254 0.0
H2316 H 0.46749 0.22701 0.96809 0.0
C2317 C 0.43077 0.22034 0.02314 0.0
C2318 C 0.44398 0.23902 0.01377 0.0
H2319 H 0.42045 0.18977 0.02009 0.0
H2320 H 0.42053 0.21836 0.03857 0.0
C2321 C 0.45705 0.24117 0.9937 0.0
C2322 C 0.20308 0.43543 0.48628 0.0
C2323 C 0.20474 0.44292 0.51182 0.0
H2324 H 0.21715 0.42934 0.4548 0.0
C2325 C 0.22209 0.44915 0.52588 0.0
H2326 H 0.18992 0.43061 0.47492 0.0
C2327 C 0.23771 0.44858 0.5143 0.0
C2328 C 0.23632 0.44176 0.48841 0.0
H2329 H 0.22369 0.45474 0.54573 0.0
H2330 H 0.25111 0.45414 0.52533 0.0
C2331 C 0.21873 0.43488 0.47468 0.0
C2332 C 0.79059 0.22547 0.00333 0.0
C2333 C 0.78886 0.23534 0.98144 0.0
H2334 H 0.77585 0.20291 0.03185 0.0
C2335 C 0.77036 0.22891 0.97061 0.0
H2336 H 0.80467 0.22992 0.01194 0.0
C2337 C 0.75394 0.21331 0.98175 0.0
C2338 C 0.75558 0.20381 0.0041 0.0
H2339 H 0.76846 0.2363 0.95394 0.0
H2340 H 0.73989 0.2088 0.97299 0.0
C2341 C 0.77412 0.20986 0.01454 0.0
C2342 C 0.55781 0.78106 0.47978 0.0
C2343 C 0.54953 0.79063 0.49325 0.0
H2344 H 0.56471 0.7583 0.4803 0.0
C2345 C 0.54178 0.78409 0.51852 0.0
H2346 H 0.56371 0.78552 0.46015 0.0
C2347 C 0.54189 0.76815 0.5298 0.0
C2348 C 0.54998 0.75846 0.51623 0.0
H2349 H 0.53554 0.79127 0.52964 0.0
H2350 H 0.53524 0.7632 0.54896 0.0
C2351 C 0.55812 0.76524 0.49119 0.0
C2352 C 0.35959 0.36973 0.06542 0.0
C2353 C 0.35981 0.38056 0.04337 0.0
H2354 H 0.37063 0.35281 0.08319 0.0
C2355 C 0.37013 0.38068 0.02078 0.0
H2356 H 0.35207 0.36951 0.08332 0.0
C2357 C 0.38102 0.3713 0.02091 0.0
C2358 C 0.38157 0.36138 0.04347 0.0
H2359 H 0.37029 0.38852 0.00326 0.0
H2360 H 0.38944 0.37224 0.00362 0.0
C2361 C 0.37028 0.36017 0.06541 0.0
C2362 C 0.00898 0.37172 0.5318 0.0
C2363 C 0.01939 0.37998 0.55512 0.0
H2364 H 0.98101 0.3553 0.51368 0.0
C2365 C 0.00911 0.37734 0.57868 0.0
H2366 H 0.01655 0.37342 0.51338 0.0
C2367 C 0.98888 0.36719 0.57884 0.0
C2368 C 0.97837 0.35928 0.55546 0.0
H2369 H 0.01669 0.38387 0.59688 0.0
H2370 H 0.98152 0.36629 0.59718 0.0
C2371 C 0.98865 0.3614 0.53198 0.0
C2372 C 0.60627 0.98914 0.03467 0.0
C2373 C 0.61414 0.9793 0.04817 0.0
H2374 H 0.60869 0.01639 0.0254 0.0
C2375 C 0.63228 0.99004 0.0605 0.0
H2376 H 0.59215 0.98118 0.02534 0.0
C2377 C 0.64207 0.01034 0.0601 0.0
C2378 C 0.63371 0.02029 0.04781 0.0
H2379 H 0.63867 0.98271 0.07091 0.0
H2380 H 0.65598 0.01819 0.06994 0.0
C2381 C 0.61585 0.00939 0.03465 0.0
C2382 C 0.63392 0.62548 0.56478 0.0
C2383 C 0.63307 0.61436 0.54272 0.0
H2384 H 0.62362 0.64286 0.58305 0.0
C2385 C 0.62223 0.61407 0.52064 0.0
H2386 H 0.64183 0.62581 0.5823 0.0
C2387 C 0.61158 0.6237 0.52124 0.0
C2388 C 0.61172 0.634 0.5438 0.0
H2389 H 0.62155 0.60598 0.50313 0.0
H2390 H 0.60285 0.62271 0.5043 0.0
C2391 C 0.62342 0.63524 0.56526 0.0
C2392 C 0.98609 0.62759 0.04085 0.0
C2393 C 0.97539 0.61416 0.06073 0.0
H2394 H 0.01428 0.64827 0.02619 0.0
C2395 C 0.98536 0.61124 0.08141 0.0
H2396 H 0.97872 0.63013 0.02472 0.0
C2397 C 0.00558 0.62129 0.08206 0.0
C2398 C 0.01643 0.63474 0.06222 0.0
H2399 H 0.9775 0.60066 0.09669 0.0
H2400 H 0.01266 0.61798 0.09779 0.0
C2401 C 0.00643 0.63789 0.04167 0.0
C2402 C 0.36365 0.00511 0.56443 0.0
C2403 C 0.38076 0.01587 0.54967 0.0
H2404 H 0.34164 0.97698 0.57752 0.0
C2405 C 0.3878 0.00584 0.53463 0.0
H2406 H 0.35764 0.01237 0.57584 0.0
C2407 C 0.37856 0.98561 0.53546 0.0
C2408 C 0.36214 0.97495 0.55144 0.0
H2409 H 0.40109 0.01364 0.52335 0.0
H2410 H 0.38493 0.97839 0.52472 0.0
C2411 C 0.35448 0.98486 0.56538 0.0
C2412 C 0.61191 0.62202 0.97668 0.0
C2413 C 0.61354 0.63429 0.95569 0.0
H2414 H 0.61947 0.60152 0.99181 0.0
C2415 C 0.62591 0.63652 0.93452 0.0
H2416 H 0.6028 0.62026 0.99352 0.0
C2417 C 0.63559 0.62594 0.9337 0.0
C2418 C 0.633 0.61282 0.95394 0.0
H2419 H 0.62732 0.64563 0.91784 0.0
H2420 H 0.64421 0.62722 0.91649 0.0
C2421 C 0.62148 0.61133 0.97576 0.0
C2422 C 0.98995 0.62755 0.46097 0.0
C2423 C 0.97942 0.61812 0.43814 0.0
H2424 H 0.01803 0.64433 0.47877 0.0
C2425 C 0.9897 0.61911 0.41509 0.0
H2426 H 0.98248 0.62721 0.47898 0.0
C2427 C 0.00993 0.62896 0.41495 0.0
C2428 C 0.02047 0.63801 0.43787 0.0
H2429 H 0.98213 0.61162 0.39732 0.0
H2430 H 0.0173 0.62879 0.39708 0.0
C2431 C 0.01028 0.63737 0.46085 0.0
C2432 C 0.3625 0.00842 0.92975 0.0
C2433 C 0.37655 0.01982 0.94867 0.0
H2434 H 0.3429 0.97983 0.91553 0.0
C2435 C 0.37981 0.01049 0.96995 0.0
H2436 H 0.35941 0.01515 0.91335 0.0
C2437 C 0.37009 0.99025 0.97146 0.0
C2438 C 0.35697 0.97885 0.95165 0.0
H2439 H 0.3906 0.01877 0.98479 0.0
H2440 H 0.37336 0.98352 0.9877 0.0
C2441 C 0.35285 0.98816 0.9312 0.0
C2442 C 0.36022 0.37229 0.43051 0.0
C2443 C 0.36267 0.38512 0.45111 0.0
H2444 H 0.36844 0.35266 0.41421 0.0
C2445 C 0.37405 0.38627 0.47294 0.0
H2446 H 0.35173 0.37126 0.41328 0.0
C2447 C 0.38355 0.3755 0.47358 0.0
C2448 C 0.38195 0.36345 0.45232 0.0
H2449 H 0.37595 0.39583 0.48928 0.0
H2450 H 0.39252 0.37698 0.49045 0.0
C2451 C 0.36979 0.3616 0.43108 0.0
C2452 C 0.00601 0.36589 0.92488 0.0
C2453 C 0.01663 0.37539 0.94762 0.0
H2454 H 0.97796 0.34968 0.90705 0.0
C2455 C 0.00652 0.37348 0.97117 0.0
H2456 H 0.01329 0.36722 0.90632 0.0
C2457 C 0.98624 0.36354 0.9715 0.0
C2458 C 0.97567 0.35516 0.94834 0.0
H2459 H 0.01427 0.38027 0.98916 0.0
H2460 H 0.97881 0.36299 0.98966 0.0
C2461 C 0.98572 0.35584 0.92527 0.0
C2462 C 0.63024 0.98677 0.43515 0.0
C2463 C 0.61201 0.97676 0.44753 0.0
H2464 H 0.65484 0.01438 0.42558 0.0
C2465 C 0.60504 0.98741 0.46116 0.0
H2466 H 0.63607 0.9789 0.42478 0.0
C2467 C 0.61564 0.00766 0.46141 0.0
C2468 C 0.63355 0.01777 0.44819 0.0
H2469 H 0.59091 0.98012 0.47055 0.0
H2470 H 0.60927 0.01535 0.4709 0.0
C2471 C 0.64095 0.00707 0.43558 0.0
C2472 C 0.44356 0.56137 0.97936 0.0
C2473 C 0.44984 0.58009 0.98949 0.0
H2474 H 0.42307 0.53087 0.98223 0.0
C2475 C 0.43969 0.58205 0.01092 0.0
H2476 H 0.45069 0.55924 0.96258 0.0
C2477 C 0.42355 0.56581 0.02161 0.0
C2478 C 0.41747 0.54723 0.0115 0.0
H2479 H 0.44429 0.59609 0.01972 0.0
H2480 H 0.41596 0.56772 0.03804 0.0
C2481 C 0.42766 0.5451 0.99045 0.0
C2482 C 0.88137 0.43715 0.51891 0.0
C2483 C 0.86998 0.41851 0.508 0.0
H2484 H 0.89034 0.46739 0.51656 0.0
C2485 C 0.85878 0.4164 0.48549 0.0
H2486 H 0.88992 0.43929 0.53649 0.0
C2487 C 0.85887 0.43249 0.47428 0.0
C2488 C 0.87029 0.45108 0.48517 0.0
H2489 H 0.85012 0.40236 0.47625 0.0
H2490 H 0.85021 0.43044 0.45683 0.0
C2491 C 0.88159 0.45326 0.50755 0.0
C2492 C 0.43252 0.87665 0.97772 0.0
C2493 C 0.41494 0.86864 0.99168 0.0
H2494 H 0.46182 0.88253 0.97693 0.0
C2495 C 0.41369 0.86032 0.01652 0.0
H2496 H 0.43377 0.88289 0.95835 0.0
C2497 C 0.42987 0.8604 0.02744 0.0
C2498 C 0.44758 0.86859 0.0136 0.0
H2499 H 0.40033 0.8542 0.02777 0.0
H2500 H 0.42859 0.85442 0.04698 0.0
C2501 C 0.4486 0.87651 0.98846 0.0
C2502 C 0.54989 0.43372 0.4784 0.0
C2503 C 0.54415 0.41486 0.48755 0.0
H2504 H 0.56984 0.46428 0.48227 0.0
C2505 C 0.55472 0.41276 0.5083 0.0
H2506 H 0.54244 0.43599 0.46216 0.0
C2507 C 0.57076 0.42899 0.51921 0.0
C2508 C 0.57628 0.44768 0.51007 0.0
H2509 H 0.55055 0.39861 0.51639 0.0
H2510 H 0.57871 0.42697 0.53505 0.0
C2511 C 0.56566 0.44995 0.48975 0.0
C2512 C 0.14047 0.56377 0.98309 0.0
C2513 C 0.12321 0.54571 0.98207 0.0
H2514 H 0.15412 0.59364 0.99458 0.0
C2515 C 0.10606 0.54418 0.99228 0.0
H2516 H 0.15385 0.56551 0.975 0.0
C2517 C 0.10621 0.56031 0.00348 0.0
C2518 C 0.12352 0.57832 0.00473 0.0
H2519 H 0.09258 0.53041 0.99214 0.0
H2520 H 0.09285 0.55858 0.01166 0.0
C2521 C 0.14062 0.57989 0.9943 0.0
C2522 C 0.54401 0.1185 0.48438 0.0
C2523 C 0.54615 0.12873 0.50785 0.0
H2524 H 0.55794 0.11097 0.45436 0.0
C2525 C 0.56463 0.13925 0.51937 0.0
H2526 H 0.52997 0.11049 0.47487 0.0
C2527 C 0.58063 0.13937 0.50781 0.0
C2528 C 0.57854 0.1291 0.48432 0.0
H2529 H 0.56664 0.14708 0.53764 0.0
H2530 H 0.59457 0.14721 0.51759 0.0
C2531 C 0.56004 0.11875 0.47268 0.0
C2532 C 0.55238 0.41473 0.98356 0.0
C2533 C 0.55156 0.41377 0.01122 0.0
H2534 H 0.56812 0.43064 0.94945 0.0
C2535 C 0.56691 0.42846 0.02579 0.0
H2536 H 0.54069 0.40376 0.97175 0.0
C2537 C 0.58253 0.44398 0.013 0.0
C2538 C 0.58314 0.44516 0.98535 0.0
H2539 H 0.5668 0.42803 0.04711 0.0
H2540 H 0.59388 0.45531 0.02482 0.0
C2541 C 0.56798 0.43025 0.97078 0.0
C2542 C 0.13995 0.57242 0.47333 0.0
C2543 C 0.13187 0.58218 0.48678 0.0
H2544 H 0.14588 0.54894 0.47368 0.0
C2545 C 0.12396 0.57567 0.51201 0.0
H2546 H 0.14592 0.57688 0.45373 0.0
C2547 C 0.12383 0.5596 0.52332 0.0
C2548 C 0.1317 0.54973 0.50975 0.0
H2549 H 0.11796 0.58307 0.52313 0.0
H2550 H 0.11769 0.55499 0.54282 0.0
C2551 C 0.13991 0.5564 0.48473 0.0
C2552 C 0.55942 0.11518 0.00827 0.0
C2553 C 0.5778 0.13211 0.00779 0.0
H2554 H 0.52948 0.10162 0.99811 0.0
C2555 C 0.57973 0.14855 0.99457 0.0
H2556 H 0.5573 0.10204 0.01768 0.0
C2557 C 0.56377 0.14801 0.98212 0.0
C2558 C 0.54533 0.13114 0.98301 0.0
H2559 H 0.59352 0.16197 0.99398 0.0
H2560 H 0.566 0.16084 0.9717 0.0
C2561 C 0.54342 0.11479 0.99641 0.0
C2562 C 0.4418 0.58336 0.48579 0.0
C2563 C 0.44237 0.58406 0.51344 0.0
H2564 H 0.42646 0.56745 0.4514 0.0
C2565 C 0.42693 0.56929 0.52778 0.0
H2566 H 0.4536 0.59449 0.47427 0.0
C2567 C 0.41138 0.55391 0.51471 0.0
C2568 C 0.41112 0.55289 0.48708 0.0
H2569 H 0.42699 0.56955 0.54912 0.0
H2570 H 0.39985 0.54249 0.52624 0.0
C2571 C 0.42638 0.56785 0.47273 0.0
C2572 C 0.87467 0.4338 0.97378 0.0
C2573 C 0.86612 0.41591 0.98704 0.0
H2574 H 0.88092 0.46324 0.9739 0.0
C2575 C 0.85721 0.41423 0.01154 0.0
H2576 H 0.8814 0.43541 0.95468 0.0
C2577 C 0.85715 0.43025 0.02277 0.0
C2578 C 0.86585 0.44825 0.00962 0.0
H2579 H 0.85069 0.40065 0.02231 0.0
H2580 H 0.85063 0.42862 0.04202 0.0
C2581 C 0.87446 0.44976 0.98487 0.0
C2582 C 0.44627 0.87647 0.49424 0.0
C2583 C 0.44511 0.85897 0.48633 0.0
H2584 H 0.43237 0.89021 0.5132 0.0
C2585 C 0.42836 0.84134 0.49286 0.0
H2586 H 0.45905 0.89034 0.49004 0.0
C2587 C 0.41318 0.84125 0.50693 0.0
C2588 C 0.41435 0.8588 0.5147 0.0
H2589 H 0.42689 0.82759 0.48691 0.0
H2590 H 0.40061 0.82742 0.51192 0.0
C2591 C 0.43106 0.87639 0.50802 0.0
loop_
_geom_bond_atom_site_label_1
_geom_bond_atom_site_label_2
_geom_bond_distance
_geom_bond_site_symmetry_2
_ccdc_geom_bond_type
Li0 N17 1.990 . S
Li0 O60 1.956 . S
Li0 O61 1.970 . S
Li0 O62 1.961 . S
Li1 N25 1.990 . S
Li1 O60 1.970 . S
Li1 O61 1.956 . S
Li1 O63 1.961 . S
Li2 N47 1.990 . S
Li2 O60 1.961 . S
Li2 O62 1.956 . S
Li2 O63 1.970 . S
Li3 N53 1.990 . S
Li3 O61 1.961 . S
Li3 O62 1.970 . S
Li3 O63 1.956 . S
C4 C6 1.348 . S
C4 C7 1.356 . S
C4 O60 1.325 . S
N5 C8 1.314 . S
N5 C9 1.279 . S
C6 C4 1.348 . S
C6 C8 1.353 . S
C6 H64 0.929 . S
C7 C4 1.356 . S
C7 C9 1.358 . S
C7 H65 0.930 . S
C8 N5 1.314 . S
C8 C6 1.353 . S
C8 H66 0.930 . S
C9 N5 1.279 . S
C9 C7 1.358 . S
C9 H67 0.930 . S
C10 C13 1.348 . S
C10 C14 1.356 . S
C10 O61 1.325 . S
C11 N12 1.279 . S
C11 C14 1.358 . S
C11 H68 0.930 . S
N12 C11 1.279 . S
N12 C15 1.314 . S
C13 C10 1.348 . S
C13 C15 1.353 . S
C13 H69 0.929 . S
C14 C10 1.356 . S
C14 C11 1.358 . S
C14 H70 0.930 . S
C15 N12 1.314 . S
C15 C13 1.353 . S
C15 H71 0.930 . S
C16 N17 1.314 . S
C16 C21 1.353 . S
C16 H22 0.930 . S
N17 Li0 1.990 . S
N17 C16 1.314 . S
N17 C19 1.279 . S
C18 C19 1.358 . S
C18 C20 1.356 . S
C18 H72 0.930 . S
C19 N17 1.279 . S
C19 C18 1.358 . S
C19 H23 0.930 . S
C20 C18 1.356 . S
C20 C21 1.348 . S
C21 C16 1.353 . S
C21 C20 1.348 . S
C21 H73 0.929 . S
H22 C16 0.930 . S
H23 C19 0.930 . S
C24 N25 1.314 . S
C24 C26 1.353 . S
C24 H30 0.930 . S
N25 Li1 1.990 . S
N25 C24 1.314 . S
N25 C28 1.279 . S
C26 C24 1.353 . S
C26 C29 1.348 . S
C26 H74 0.929 . S
C27 C28 1.358 . S
C27 C29 1.356 . S
C27 H75 0.930 . S
C28 N25 1.279 . S
C28 C27 1.358 . S
C28 H31 0.930 . S
C29 C26 1.348 . S
C29 C27 1.356 . S
H30 C24 0.930 . S
H31 C28 0.930 . S
C32 C34 1.348 . S
C32 C35 1.356 . S
C32 O62 1.325 . S
N33 C36 1.314 . S
N33 C37 1.279 . S
C34 C32 1.348 . S
C34 C36 1.353 . S
C34 H76 0.929 . S
C35 C32 1.356 . S
C35 C37 1.358 . S
C35 H77 0.930 . S
C36 N33 1.314 . S
C36 C34 1.353 . S
C36 H78 0.930 . S
C37 N33 1.279 . S
C37 C35 1.358 . S
C37 H79 0.930 . S
C38 C39 1.348 1_554 S
C38 C40 1.356 1_554 S
C38 O63 1.325 . S
C39 C38 1.348 1_556 S
C39 C41 1.353 . S
C39 H80 0.929 . S
C40 C38 1.356 1_556 S
C40 C42 1.358 . S
C40 H81 0.930 1_556 S
C41 C39 1.353 . S
C41 N43 1.314 . S
C41 H82 0.930 . S
C42 C40 1.358 . S
C42 N43 1.279 . S
C42 H83 0.930 . S
N43 C41 1.314 . S
N43 C42 1.279 . S
C44 C46 1.353 . S
C44 N47 1.314 . S
C44 H50 0.930 . S
C45 N47 1.279 . S
C45 C48 1.358 . S
C45 H51 0.930 . S
C46 C44 1.353 . S
C46 C49 1.348 . S
C46 H84 0.929 . S
N47 Li2 1.990 . S
N47 C44 1.314 . S
N47 C45 1.279 . S
C48 C45 1.358 . S
C48 C49 1.356 . S
C48 H85 0.930 . S
C49 C46 1.348 . S
C49 C48 1.356 . S
H50 C44 0.930 . S
H51 C45 0.930 . S
C52 N53 1.314 . S
C52 C54 1.353 . S
C52 H58 0.930 . S
N53 Li3 1.990 . S
N53 C52 1.314 . S
N53 C56 1.279 . S
C54 C52 1.353 . S
C54 C57 1.348 . S
C54 H86 0.929 . S
C55 C56 1.358 1_556 S
C55 C57 1.356 1_556 S
C55 H87 0.930 . S
C56 N53 1.279 . S
C56 C55 1.358 1_554 S
C56 H59 0.930 1_554 S
C57 C54 1.348 . S
C57 C55 1.356 1_554 S
H58 C52 0.930 . S
H59 C56 0.930 1_556 S
O60 Li0 1.956 . S
O60 Li1 1.970 . S
O60 Li2 1.961 . S
O60 C4 1.325 . S
O61 Li0 1.970 . S
O61 Li1 1.956 . S
O61 Li3 1.961 . S
O61 C10 1.325 . S
O62 Li0 1.961 . S
O62 Li2 1.956 . S
O62 Li3 1.970 . S
O62 C32 1.325 . S
O63 Li1 1.961 . S
O63 Li2 1.970 . S
O63 Li3 1.956 . S
O63 C38 1.325 . S
H64 C6 0.929 . S
H65 C7 0.930 . S
H66 C8 0.930 . S
H67 C9 0.930 . S
H68 C11 0.930 . S
H69 C13 0.929 . S
H70 C14 0.930 . S
H71 C15 0.930 . S
H72 C18 0.930 . S
H73 C21 0.929 . S
H74 C26 0.929 . S
H75 C27 0.930 . S
H76 C34 0.929 . S
H77 C35 0.930 . S
H78 C36 0.930 . S
H79 C37 0.930 . S
H80 C39 0.929 . S
H81 C40 0.930 1_554 S
H82 C41 0.930 . S
H83 C42 0.930 . S
H84 C46 0.929 . S
H85 C48 0.930 . S
H86 C54 0.929 . S
H87 C55 0.930 . S
Li88 N105 1.990 . S
Li88 O148 1.956 . S
Li88 O149 1.970 . S
Li88 O150 1.961 . S
Li89 N113 1.990 . S
Li89 O148 1.970 . S
Li89 O149 1.956 . S
Li89 O151 1.961 . S
Li90 N135 1.990 . S
Li90 O148 1.961 . S
Li90 O150 1.956 . S
Li90 O151 1.970 . S
Li91 N141 1.990 . S
Li91 O149 1.961 . S
Li91 O150 1.970 . S
Li91 O151 1.956 . S
C92 C94 1.348 . S
C92 C95 1.356 . S
C92 O148 1.325 . S
N93 C96 1.314 . S
N93 C97 1.279 . S
C94 C92 1.348 . S
C94 C96 1.353 . S
C94 H152 0.929 . S
C95 C92 1.356 . S
C95 C97 1.358 . S
C95 H153 0.930 . S
C96 N93 1.314 . S
C96 C94 1.353 . S
C96 H154 0.930 . S
C97 N93 1.279 . S
C97 C95 1.358 . S
C97 H155 0.930 . S
C98 C101 1.348 . S
C98 C102 1.356 . S
C98 O149 1.325 . S
C99 N100 1.279 . S
C99 C102 1.358 . S
C99 H156 0.930 . S
N100 C99 1.279 . S
N100 C103 1.314 . S
C101 C98 1.348 . S
C101 C103 1.353 . S
C101 H157 0.929 . S
C102 C98 1.356 . S
C102 C99 1.358 . S
C102 H158 0.930 . S
C103 N100 1.314 . S
C103 C101 1.353 . S
C103 H159 0.930 . S
C104 N105 1.314 . S
C104 C109 1.353 . S
C104 H110 0.930 . S
N105 Li88 1.990 . S
N105 C104 1.314 . S
N105 C107 1.279 . S
C106 C107 1.358 . S
C106 C108 1.356 . S
C106 H160 0.930 . S
C107 N105 1.279 . S
C107 C106 1.358 . S
C107 H111 0.930 . S
C108 C106 1.356 . S
C108 C109 1.348 . S
C109 C104 1.353 . S
C109 C108 1.348 . S
C109 H161 0.929 . S
H110 C104 0.930 . S
H111 C107 0.930 . S
C112 N113 1.314 . S
C112 C114 1.353 . S
C112 H118 0.930 . S
N113 Li89 1.990 . S
N113 C112 1.314 . S
N113 C116 1.279 . S
C114 C112 1.353 . S
C114 C117 1.348 . S
C114 H162 0.929 . S
C115 C116 1.358 . S
C115 C117 1.356 . S
C115 H163 0.930 . S
C116 N113 1.279 . S
C116 C115 1.358 . S
C116 H119 0.930 . S
C117 C114 1.348 . S
C117 C115 1.356 . S
H118 C112 0.930 . S
H119 C116 0.930 . S
C120 C122 1.348 . S
C120 C123 1.356 . S
C120 O150 1.325 . S
N121 C124 1.314 . S
N121 C125 1.279 . S
C122 C120 1.348 . S
C122 C124 1.353 . S
C122 H164 0.929 . S
C123 C120 1.356 . S
C123 C125 1.358 . S
C123 H165 0.930 . S
C124 N121 1.314 . S
C124 C122 1.353 . S
C124 H166 0.930 . S
C125 N121 1.279 . S
C125 C123 1.358 . S
C125 H167 0.930 . S
C126 C127 1.348 . S
C126 C128 1.356 . S
C126 O151 1.325 . S
C127 C126 1.348 . S
C127 C129 1.353 . S
C127 H168 0.929 . S
C128 C126 1.356 . S
C128 C130 1.358 . S
C128 H169 0.930 . S
C129 C127 1.353 . S
C129 N131 1.314 . S
C129 H170 0.930 . S
C130 C128 1.358 . S
C130 N131 1.279 . S
C130 H171 0.930 . S
N131 C129 1.314 . S
N131 C130 1.279 . S
C132 C134 1.353 . S
C132 N135 1.314 . S
C132 H138 0.930 . S
C133 N135 1.279 . S
C133 C136 1.358 . S
C133 H139 0.930 . S
C134 C132 1.353 . S
C134 C137 1.348 . S
C134 H172 0.929 . S
N135 Li90 1.990 . S
N135 C132 1.314 . S
N135 C133 1.279 . S
C136 C133 1.358 . S
C136 C137 1.356 . S
C136 H173 0.930 . S
C137 C134 1.348 . S
C137 C136 1.356 . S
H138 C132 0.930 . S
H139 C133 0.930 . S
C140 N141 1.314 . S
C140 C142 1.353 . S
C140 H146 0.930 . S
N141 Li91 1.990 . S
N141 C140 1.314 . S
N141 C144 1.279 . S
C142 C140 1.353 . S
C142 C145 1.348 . S
C142 H174 0.929 . S
C143 C144 1.358 . S
C143 C145 1.356 . S
C143 H175 0.930 . S
C144 N141 1.279 . S
C144 C143 1.358 . S
C144 H147 0.930 . S
C145 C142 1.348 . S
C145 C143 1.356 . S
H146 C140 0.930 . S
H147 C144 0.930 . S
O148 Li88 1.956 . S
O148 Li89 1.970 . S
O148 Li90 1.961 . S
O148 C92 1.325 . S
O149 Li88 1.970 . S
O149 Li89 1.956 . S
O149 Li91 1.961 . S
O149 C98 1.325 . S
O150 Li88 1.961 . S
O150 Li90 1.956 . S
O150 Li91 1.970 . S
O150 C120 1.325 . S
O151 Li89 1.961 . S
O151 Li90 1.970 . S
O151 Li91 1.956 . S
O151 C126 1.325 . S
H152 C94 0.929 . S
H153 C95 0.930 . S
H154 C96 0.930 . S
H155 C97 0.930 . S
H156 C99 0.930 . S
H157 C101 0.929 . S
H158 C102 0.930 . S
H159 C103 0.930 . S
H160 C106 0.930 . S
H161 C109 0.929 . S
H162 C114 0.929 . S
H163 C115 0.930 . S
H164 C122 0.929 . S
H165 C123 0.930 . S
H166 C124 0.930 . S
H167 C125 0.930 . S
H168 C127 0.929 . S
H169 C128 0.930 . S
H170 C129 0.930 . S
H171 C130 0.930 . S
H172 C134 0.929 . S
H173 C136 0.930 . S
H174 C142 0.929 . S
H175 C143 0.930 . S
Li176 N193 1.990 . S
Li176 O236 1.956 . S
Li176 O237 1.970 . S
Li176 O238 1.961 . S
Li177 N201 1.990 . S
Li177 O236 1.970 . S
Li177 O237 1.956 . S
Li177 O239 1.961 . S
Li178 N223 1.990 . S
Li178 O236 1.961 . S
Li178 O238 1.956 . S
Li178 O239 1.970 . S
Li179 N229 1.990 . S
Li179 O237 1.961 . S
Li179 O238 1.970 . S
Li179 O239 1.956 . S
C180 C182 1.348 . S
C180 C183 1.356 . S
C180 O236 1.325 . S
N181 C184 1.314 . S
N181 C185 1.279 . S
C182 C180 1.348 . S
C182 C184 1.353 . S
C182 H240 0.929 . S
C183 C180 1.356 . S
C183 C185 1.358 . S
C183 H241 0.930 . S
C184 N181 1.314 . S
C184 C182 1.353 . S
C184 H242 0.930 . S
C185 N181 1.279 . S
C185 C183 1.358 . S
C185 H243 0.930 . S
C186 C189 1.348 . S
C186 C190 1.356 . S
C186 O237 1.325 . S
C187 N188 1.279 . S
C187 C190 1.358 . S
C187 H244 0.930 . S
N188 C187 1.279 . S
N188 C191 1.314 . S
C189 C186 1.348 . S
C189 C191 1.353 . S
C189 H245 0.929 . S
C190 C186 1.356 . S
C190 C187 1.358 . S
C190 H246 0.930 . S
C191 N188 1.314 . S
C191 C189 1.353 . S
C191 H247 0.930 . S
C192 N193 1.314 . S
C192 C197 1.353 . S
C192 H198 0.930 . S
N193 Li176 1.990 . S
N193 C192 1.314 . S
N193 C195 1.279 . S
C194 C195 1.358 . S
C194 C196 1.356 . S
C194 H248 0.930 . S
C195 N193 1.279 . S
C195 C194 1.358 . S
C195 H199 0.930 . S
C196 C194 1.356 . S
C196 C197 1.348 . S
C197 C192 1.353 . S
C197 C196 1.348 . S
C197 H249 0.929 . S
H198 C192 0.930 . S
H199 C195 0.930 . S
C200 N201 1.314 . S
C200 C202 1.353 . S
C200 H206 0.930 . S
N201 Li177 1.990 . S
N201 C200 1.314 . S
N201 C204 1.279 . S
C202 C200 1.353 . S
C202 C205 1.348 . S
C202 H250 0.929 . S
C203 C204 1.358 . S
C203 C205 1.356 . S
C203 H251 0.930 . S
C204 N201 1.279 . S
C204 C203 1.358 . S
C204 H207 0.930 . S
C205 C202 1.348 . S
C205 C203 1.356 . S
H206 C200 0.930 . S
H207 C204 0.930 . S
C208 C210 1.348 1_554 S
C208 C211 1.356 1_554 S
C208 O238 1.325 . S
N209 C212 1.314 . S
N209 C213 1.279 . S
C210 C208 1.348 1_556 S
C210 C212 1.353 . S
C210 H252 0.929 . S
C211 C208 1.356 1_556 S
C211 C213 1.358 . S
C211 H253 0.930 1_556 S
C212 N209 1.314 . S
C212 C210 1.353 . S
C212 H254 0.930 . S
C213 N209 1.279 . S
C213 C211 1.358 . S
C213 H255 0.930 . S
C214 C215 1.348 . S
C214 C216 1.356 . S
C214 O239 1.325 . S
C215 C214 1.348 . S
C215 C217 1.353 . S
C215 H256 0.929 . S
C216 C214 1.356 . S
C216 C218 1.358 . S
C216 H257 0.930 . S
C217 C215 1.353 . S
C217 N219 1.314 . S
C217 H258 0.930 . S
C218 C216 1.358 . S
C218 N219 1.279 . S
C218 H259 0.930 . S
N219 C217 1.314 . S
N219 C218 1.279 . S
C220 C222 1.353 . S
C220 N223 1.314 . S
C220 H226 0.930 . S
C221 N223 1.279 . S
C221 C224 1.358 1_554 S
C221 H227 0.930 1_554 S
C222 C220 1.353 . S
C222 C225 1.348 . S
C222 H260 0.929 . S
N223 Li178 1.990 . S
N223 C220 1.314 . S
N223 C221 1.279 . S
C224 C221 1.358 1_556 S
C224 C225 1.356 1_556 S
C224 H261 0.930 . S
C225 C222 1.348 . S
C225 C224 1.356 1_554 S
H226 C220 0.930 . S
H227 C221 0.930 1_556 S
C228 N229 1.314 . S
C228 C230 1.353 . S
C228 H234 0.930 . S
N229 Li179 1.990 . S
N229 C228 1.314 . S
N229 C232 1.279 . S
C230 C228 1.353 . S
C230 C233 1.348 . S
C230 H262 0.929 . S
C231 C232 1.358 . S
C231 C233 1.356 . S
C231 H263 0.930 . S
C232 N229 1.279 . S
C232 C231 1.358 . S
C232 H235 0.930 . S
C233 C230 1.348 . S
C233 C231 1.356 . S
H234 C228 0.930 . S
H235 C232 0.930 . S
O236 Li176 1.956 . S
O236 Li177 1.970 . S
O236 Li178 1.961 . S
O236 C180 1.325 . S
O237 Li176 1.970 . S
O237 Li177 1.956 . S
O237 Li179 1.961 . S
O237 C186 1.325 . S
O238 Li176 1.961 . S
O238 Li178 1.956 . S
O238 Li179 1.970 . S
O238 C208 1.325 . S
O239 Li177 1.961 . S
O239 Li178 1.970 . S
O239 Li179 1.956 . S
O239 C214 1.325 . S
H240 C182 0.929 . S
H241 C183 0.930 . S
H242 C184 0.930 . S
H243 C185 0.930 . S
H244 C187 0.930 . S
H245 C189 0.929 . S
H246 C190 0.930 . S
H247 C191 0.930 . S
H248 C194 0.930 . S
H249 C197 0.929 . S
H250 C202 0.929 . S
H251 C203 0.930 . S
H252 C210 0.929 . S
H253 C211 0.930 1_554 S
H254 C212 0.930 . S
H255 C213 0.930 . S
H256 C215 0.929 . S
H257 C216 0.930 . S
H258 C217 0.930 . S
H259 C218 0.930 . S
H260 C222 0.929 . S
H261 C224 0.930 . S
H262 C230 0.929 . S
H263 C231 0.930 . S
Li264 N281 1.990 . S
Li264 O324 1.956 . S
Li264 O325 1.970 . S
Li264 O326 1.961 . S
Li265 N289 1.990 . S
Li265 O324 1.970 . S
Li265 O325 1.956 . S
Li265 O327 1.961 . S
Li266 N311 1.990 . S
Li266 O324 1.961 . S
Li266 O326 1.956 . S
Li266 O327 1.970 . S
Li267 N317 1.990 . S
Li267 O325 1.961 . S
Li267 O326 1.970 . S
Li267 O327 1.956 . S
C268 C270 1.348 . S
C268 C271 1.356 . S
C268 O324 1.325 . S
N269 C272 1.314 . S
N269 C273 1.279 . S
C270 C268 1.348 . S
C270 C272 1.353 . S
C270 H328 0.929 . S
C271 C268 1.356 . S
C271 C273 1.358 . S
C271 H329 0.930 . S
C272 N269 1.314 . S
C272 C270 1.353 . S
C272 H330 0.930 . S
C273 N269 1.279 . S
C273 C271 1.358 . S
C273 H331 0.930 . S
C274 C277 1.348 . S
C274 C278 1.356 . S
C274 O325 1.325 . S
C275 N276 1.279 . S
C275 C278 1.358 . S
C275 H332 0.930 . S
N276 C275 1.279 . S
N276 C279 1.314 . S
C277 C274 1.348 . S
C277 C279 1.353 . S
C277 H333 0.929 . S
C278 C274 1.356 . S
C278 C275 1.358 . S
C278 H334 0.930 . S
C279 N276 1.314 . S
C279 C277 1.353 . S
C279 H335 0.930 . S
C280 N281 1.314 . S
C280 C285 1.353 . S
C280 H286 0.930 . S
N281 Li264 1.990 . S
N281 C280 1.314 . S
N281 C283 1.279 . S
C282 C283 1.358 . S
C282 C284 1.356 . S
C282 H336 0.930 . S
C283 N281 1.279 . S
C283 C282 1.358 . S
C283 H287 0.930 . S
C284 C282 1.356 . S
C284 C285 1.348 . S
C285 C280 1.353 . S
C285 C284 1.348 . S
C285 H337 0.929 . S
H286 C280 0.930 . S
H287 C283 0.930 . S
C288 N289 1.314 . S
C288 C290 1.353 . S
C288 H294 0.930 . S
N289 Li265 1.990 . S
N289 C288 1.314 . S
N289 C292 1.279 . S
C290 C288 1.353 . S
C290 C293 1.348 . S
C290 H338 0.929 . S
C291 C292 1.358 . S
C291 C293 1.356 . S
C291 H339 0.930 . S
C292 N289 1.279 . S
C292 C291 1.358 . S
C292 H295 0.930 . S
C293 C290 1.348 . S
C293 C291 1.356 . S
H294 C288 0.930 . S
H295 C292 0.930 . S
C296 C298 1.348 . S
C296 C299 1.356 . S
C296 O326 1.325 . S
N297 C300 1.314 . S
N297 C301 1.279 . S
C298 C296 1.348 . S
C298 C300 1.353 . S
C298 H340 0.929 . S
C299 C296 1.356 . S
C299 C301 1.358 . S
C299 H341 0.930 . S
C300 N297 1.314 . S
C300 C298 1.353 . S
C300 H342 0.930 . S
C301 N297 1.279 . S
C301 C299 1.358 . S
C301 H343 0.930 . S
C302 C303 1.348 . S
C302 C304 1.356 . S
C302 O327 1.325 . S
C303 C302 1.348 . S
C303 C305 1.353 . S
C303 H344 0.929 . S
C304 C302 1.356 . S
C304 C306 1.358 . S
C304 H345 0.930 . S
C305 C303 1.353 . S
C305 N307 1.314 . S
C305 H346 0.930 . S
C306 C304 1.358 . S
C306 N307 1.279 . S
C306 H347 0.930 . S
N307 C305 1.314 . S
N307 C306 1.279 . S
C308 C310 1.353 . S
C308 N311 1.314 . S
C308 H314 0.930 . S
C309 N311 1.279 . S
C309 C312 1.358 . S
C309 H315 0.930 . S
C310 C308 1.353 . S
C310 C313 1.348 . S
C310 H348 0.929 . S
N311 Li266 1.990 . S
N311 C308 1.314 . S
N311 C309 1.279 . S
C312 C309 1.358 . S
C312 C313 1.356 . S
C312 H349 0.930 . S
C313 C310 1.348 . S
C313 C312 1.356 . S
H314 C308 0.930 . S
H315 C309 0.930 . S
C316 N317 1.314 . S
C316 C318 1.353 . S
C316 H322 0.930 . S
N317 Li267 1.990 . S
N317 C316 1.314 . S
N317 C320 1.279 . S
C318 C316 1.353 . S
C318 C321 1.348 . S
C318 H350 0.929 . S
C319 C320 1.358 . S
C319 C321 1.356 . S
C319 H351 0.930 . S
C320 N317 1.279 . S
C320 C319 1.358 . S
C320 H323 0.930 . S
C321 C318 1.348 . S
C321 C319 1.356 . S
H322 C316 0.930 . S
H323 C320 0.930 . S
O324 Li264 1.956 . S
O324 Li265 1.970 . S
O324 Li266 1.961 . S
O324 C268 1.325 . S
O325 Li264 1.970 . S
O325 Li265 1.956 . S
O325 Li267 1.961 . S
O325 C274 1.325 . S
O326 Li264 1.961 . S
O326 Li266 1.956 . S
O326 Li267 1.970 . S
O326 C296 1.325 . S
O327 Li265 1.961 . S
O327 Li266 1.970 . S
O327 Li267 1.956 . S
O327 C302 1.325 . S
H328 C270 0.929 . S
H329 C271 0.930 . S
H330 C272 0.930 . S
H331 C273 0.930 . S
H332 C275 0.930 . S
H333 C277 0.929 . S
H334 C278 0.930 . S
H335 C279 0.930 . S
H336 C282 0.930 . S
H337 C285 0.929 . S
H338 C290 0.929 . S
H339 C291 0.930 . S
H340 C298 0.929 . S
H341 C299 0.930 . S
H342 C300 0.930 . S
H343 C301 0.930 . S
H344 C303 0.929 . S
H345 C304 0.930 . S
H346 C305 0.930 . S
H347 C306 0.930 . S
H348 C310 0.929 . S
H349 C312 0.930 . S
H350 C318 0.929 . S
H351 C319 0.930 . S
Li352 N369 1.990 . S
Li352 O412 1.956 . S
Li352 O413 1.970 . S
Li352 O414 1.961 . S
Li353 N377 1.990 . S
Li353 O412 1.970 . S
Li353 O413 1.956 . S
Li353 O415 1.961 . S
Li354 N399 1.990 . S
Li354 O412 1.961 . S
Li354 O414 1.956 . S
Li354 O415 1.970 . S
Li355 N405 1.990 . S
Li355 O413 1.961 . S
Li355 O414 1.970 . S
Li355 O415 1.956 . S
C356 C358 1.348 . S
C356 C359 1.356 . S
C356 O412 1.325 . S
N357 C360 1.314 . S
N357 C361 1.279 . S
C358 C356 1.348 . S
C358 C360 1.353 . S
C358 H416 0.929 . S
C359 C356 1.356 . S
C359 C361 1.358 . S
C359 H417 0.930 . S
C360 N357 1.314 . S
C360 C358 1.353 . S
C360 H418 0.930 . S
C361 N357 1.279 . S
C361 C359 1.358 . S
C361 H419 0.930 . S
C362 C365 1.348 . S
C362 C366 1.356 . S
C362 O413 1.325 . S
C363 N364 1.279 . S
C363 C366 1.358 . S
C363 H420 0.930 . S
N364 C363 1.279 . S
N364 C367 1.314 . S
C365 C362 1.348 . S
C365 C367 1.353 . S
C365 H421 0.929 . S
C366 C362 1.356 . S
C366 C363 1.358 . S
C366 H422 0.930 . S
C367 N364 1.314 . S
C367 C365 1.353 . S
C367 H423 0.930 . S
C368 N369 1.314 . S
C368 C373 1.353 . S
C368 H374 0.930 . S
N369 Li352 1.990 . S
N369 C368 1.314 . S
N369 C371 1.279 . S
C370 C371 1.358 . S
C370 C372 1.356 . S
C370 H424 0.930 . S
C371 N369 1.279 . S
C371 C370 1.358 . S
C371 H375 0.930 . S
C372 C370 1.356 . S
C372 C373 1.348 . S
C373 C368 1.353 . S
C373 C372 1.348 . S
C373 H425 0.929 . S
H374 C368 0.930 . S
H375 C371 0.930 . S
C376 N377 1.314 . S
C376 C378 1.353 . S
C376 H382 0.930 . S
N377 Li353 1.990 . S
N377 C376 1.314 . S
N377 C380 1.279 . S
C378 C376 1.353 . S
C378 C381 1.348 . S
C378 H426 0.929 . S
C379 C380 1.358 . S
C379 C381 1.356 . S
C379 H427 0.930 . S
C380 N377 1.279 . S
C380 C379 1.358 . S
C380 H383 0.930 . S
C381 C378 1.348 . S
C381 C379 1.356 . S
H382 C376 0.930 . S
H383 C380 0.930 . S
C384 C386 1.348 . S
C384 C387 1.356 . S
C384 O414 1.325 . S
N385 C388 1.314 . S
N385 C389 1.279 . S
C386 C384 1.348 . S
C386 C388 1.353 . S
C386 H428 0.929 . S
C387 C384 1.356 . S
C387 C389 1.358 . S
C387 H429 0.930 . S
C388 N385 1.314 . S
C388 C386 1.353 . S
C388 H430 0.930 . S
C389 N385 1.279 . S
C389 C387 1.358 . S
C389 H431 0.930 . S
C390 C391 1.348 1_554 S
C390 C392 1.356 1_554 S
C390 O415 1.325 . S
C391 C390 1.348 1_556 S
C391 C393 1.353 . S
C391 H432 0.929 . S
C392 C390 1.356 1_556 S
C392 C394 1.358 . S
C392 H433 0.930 1_556 S
C393 C391 1.353 . S
C393 N395 1.314 . S
C393 H434 0.930 . S
C394 C392 1.358 . S
C394 N395 1.279 . S
C394 H435 0.930 . S
N395 C393 1.314 . S
N395 C394 1.279 . S
C396 C398 1.353 . S
C396 N399 1.314 . S
C396 H402 0.930 . S
C397 N399 1.279 . S
C397 C400 1.358 . S
C397 H403 0.930 . S
C398 C396 1.353 . S
C398 C401 1.348 . S
C398 H436 0.929 . S
N399 Li354 1.990 . S
N399 C396 1.314 . S
N399 C397 1.279 . S
C400 C397 1.358 . S
C400 C401 1.356 . S
C400 H437 0.930 . S
C401 C398 1.348 . S
C401 C400 1.356 . S
H402 C396 0.930 . S
H403 C397 0.930 . S
C404 N405 1.314 . S
C404 C406 1.353 . S
C404 H410 0.930 . S
N405 Li355 1.990 . S
N405 C404 1.314 . S
N405 C408 1.279 . S
C406 C404 1.353 . S
C406 C409 1.348 . S
C406 H438 0.929 . S
C407 C408 1.358 1_556 S
C407 C409 1.356 1_556 S
C407 H439 0.930 . S
C408 N405 1.279 . S
C408 C407 1.358 1_554 S
C408 H411 0.930 1_554 S
C409 C406 1.348 . S
C409 C407 1.356 1_554 S
H410 C404 0.930 . S
H411 C408 0.930 1_556 S
O412 Li352 1.956 . S
O412 Li353 1.970 . S
O412 Li354 1.961 . S
O412 C356 1.325 . S
O413 Li352 1.970 . S
O413 Li353 1.956 . S
O413 Li355 1.961 . S
O413 C362 1.325 . S
O414 Li352 1.961 . S
O414 Li354 1.956 . S
O414 Li355 1.970 . S
O414 C384 1.325 . S
O415 Li353 1.961 . S
O415 Li354 1.970 . S
O415 Li355 1.956 . S
O415 C390 1.325 . S
H416 C358 0.929 . S
H417 C359 0.930 . S
H418 C360 0.930 . S
H419 C361 0.930 . S
H420 C363 0.930 . S
H421 C365 0.929 . S
H422 C366 0.930 . S
H423 C367 0.930 . S
H424 C370 0.930 . S
H425 C373 0.929 . S
H426 C378 0.929 . S
H427 C379 0.930 . S
H428 C386 0.929 . S
H429 C387 0.930 . S
H430 C388 0.930 . S
H431 C389 0.930 . S
H432 C391 0.929 . S
H433 C392 0.930 1_554 S
H434 C393 0.930 . S
H435 C394 0.930 . S
H436 C398 0.929 . S
H437 C400 0.930 . S
H438 C406 0.929 . S
H439 C407 0.930 . S
Li440 N457 1.990 . S
Li440 O500 1.956 . S
Li440 O501 1.970 . S
Li440 O502 1.961 . S
Li441 N465 1.990 . S
Li441 O500 1.970 . S
Li441 O501 1.956 . S
Li441 O503 1.961 . S
Li442 N487 1.990 . S
Li442 O500 1.961 . S
Li442 O502 1.956 . S
Li442 O503 1.970 . S
Li443 N493 1.990 . S
Li443 O501 1.961 . S
Li443 O502 1.970 . S
Li443 O503 1.956 . S
C444 C446 1.348 . S
C444 C447 1.356 . S
C444 O500 1.325 . S
N445 C448 1.314 . S
N445 C449 1.279 . S
C446 C444 1.348 . S
C446 C448 1.353 . S
C446 H504 0.929 . S
C447 C444 1.356 . S
C447 C449 1.358 . S
C447 H505 0.930 . S
C448 N445 1.314 . S
C448 C446 1.353 . S
C448 H506 0.930 . S
C449 N445 1.279 . S
C449 C447 1.358 . S
C449 H507 0.930 . S
C450 C453 1.348 . S
C450 C454 1.356 . S
C450 O501 1.325 . S
C451 N452 1.279 . S
C451 C454 1.358 . S
C451 H508 0.930 . S
N452 C451 1.279 . S
N452 C455 1.314 . S
C453 C450 1.348 . S
C453 C455 1.353 . S
C453 H509 0.929 . S
C454 C450 1.356 . S
C454 C451 1.358 . S
C454 H510 0.930 . S
C455 N452 1.314 . S
C455 C453 1.353 . S
C455 H511 0.930 . S
C456 N457 1.314 . S
C456 C461 1.353 . S
C456 H462 0.930 . S
N457 Li440 1.990 . S
N457 C456 1.314 . S
N457 C459 1.279 . S
C458 C459 1.358 . S
C458 C460 1.356 . S
C458 H512 0.930 . S
C459 N457 1.279 . S
C459 C458 1.358 . S
C459 H463 0.930 . S
C460 C458 1.356 . S
C460 C461 1.348 . S
C461 C456 1.353 . S
C461 C460 1.348 . S
C461 H513 0.929 . S
H462 C456 0.930 . S
H463 C459 0.930 . S
C464 N465 1.314 . S
C464 C466 1.353 . S
C464 H470 0.930 . S
N465 Li441 1.990 . S
N465 C464 1.314 . S
N465 C468 1.279 . S
C466 C464 1.353 . S
C466 C469 1.348 . S
C466 H514 0.929 . S
C467 C468 1.358 . S
C467 C469 1.356 . S
C467 H515 0.930 . S
C468 N465 1.279 . S
C468 C467 1.358 . S
C468 H471 0.930 . S
C469 C466 1.348 . S
C469 C467 1.356 . S
H470 C464 0.930 . S
H471 C468 0.930 . S
C472 C474 1.348 . S
C472 C475 1.356 . S
C472 O502 1.325 . S
N473 C476 1.314 . S
N473 C477 1.279 . S
C474 C472 1.348 . S
C474 C476 1.353 . S
C474 H516 0.929 . S
C475 C472 1.356 . S
C475 C477 1.358 . S
C475 H517 0.930 . S
C476 N473 1.314 . S
C476 C474 1.353 . S
C476 H518 0.930 . S
C477 N473 1.279 . S
C477 C475 1.358 . S
C477 H519 0.930 . S
C478 C479 1.348 . S
C478 C480 1.356 . S
C478 O503 1.325 . S
C479 C478 1.348 . S
C479 C481 1.353 . S
C479 H520 0.929 . S
C480 C478 1.356 . S
C480 C482 1.358 . S
C480 H521 0.930 . S
C481 C479 1.353 . S
C481 N483 1.314 . S
C481 H522 0.930 . S
C482 C480 1.358 . S
C482 N483 1.279 . S
C482 H523 0.930 . S
N483 C481 1.314 . S
N483 C482 1.279 . S
C484 C486 1.353 . S
C484 N487 1.314 . S
C484 H490 0.930 . S
C485 N487 1.279 . S
C485 C488 1.358 . S
C485 H491 0.930 . S
C486 C484 1.353 . S
C486 C489 1.348 . S
C486 H524 0.929 . S
N487 Li442 1.990 . S
N487 C484 1.314 . S
N487 C485 1.279 . S
C488 C485 1.358 . S
C488 C489 1.356 . S
C488 H525 0.930 . S
C489 C486 1.348 . S
C489 C488 1.356 . S
H490 C484 0.930 . S
H491 C485 0.930 . S
C492 N493 1.314 . S
C492 C494 1.353 . S
C492 H498 0.930 . S
N493 Li443 1.990 . S
N493 C492 1.314 . S
N493 C496 1.279 . S
C494 C492 1.353 . S
C494 C497 1.348 . S
C494 H526 0.929 . S
C495 C496 1.358 . S
C495 C497 1.356 . S
C495 H527 0.930 . S
C496 N493 1.279 . S
C496 C495 1.358 . S
C496 H499 0.930 . S
C497 C494 1.348 . S
C497 C495 1.356 . S
H498 C492 0.930 . S
H499 C496 0.930 . S
O500 Li440 1.956 . S
O500 Li441 1.970 . S
O500 Li442 1.961 . S
O500 C444 1.325 . S
O501 Li440 1.970 . S
O501 Li441 1.956 . S
O501 Li443 1.961 . S
O501 C450 1.325 . S
O502 Li440 1.961 . S
O502 Li442 1.956 . S
O502 Li443 1.970 . S
O502 C472 1.325 . S
O503 Li441 1.961 . S
O503 Li442 1.970 . S
O503 Li443 1.956 . S
O503 C478 1.325 . S
H504 C446 0.929 . S
H505 C447 0.930 . S
H506 C448 0.930 . S
H507 C449 0.930 . S
H508 C451 0.930 . S
H509 C453 0.929 . S
H510 C454 0.930 . S
H511 C455 0.930 . S
H512 C458 0.930 . S
H513 C461 0.929 . S
H514 C466 0.929 . S
H515 C467 0.930 . S
H516 C474 0.929 . S
H517 C475 0.930 . S
H518 C476 0.930 . S
H519 C477 0.930 . S
H520 C479 0.929 . S
H521 C480 0.930 . S
H522 C481 0.930 . S
H523 C482 0.930 . S
H524 C486 0.929 . S
H525 C488 0.930 . S
H526 C494 0.929 . S
H527 C495 0.930 . S
Li528 N545 1.990 . S
Li528 O588 1.956 . S
Li528 O589 1.970 . S
Li528 O590 1.961 . S
Li529 N553 1.990 . S
Li529 O588 1.970 . S
Li529 O589 1.956 . S
Li529 O591 1.961 . S
Li530 N575 1.990 . S
Li530 O588 1.961 . S
Li530 O590 1.956 . S
Li530 O591 1.970 . S
Li531 N581 1.990 . S
Li531 O589 1.961 . S
Li531 O590 1.970 . S
Li531 O591 1.956 . S
C532 C534 1.348 . S
C532 C535 1.356 . S
C532 O588 1.325 . S
N533 C536 1.314 . S
N533 C537 1.279 . S
C534 C532 1.348 . S
C534 C536 1.353 . S
C534 H592 0.929 . S
C535 C532 1.356 . S
C535 C537 1.358 . S
C535 H593 0.930 . S
C536 N533 1.314 . S
C536 C534 1.353 . S
C536 H594 0.930 . S
C537 N533 1.279 . S
C537 C535 1.358 . S
C537 H595 0.930 . S
C538 C541 1.348 1_556 S
C538 C542 1.356 1_556 S
C538 O589 1.325 . S
C539 N540 1.279 . S
C539 C542 1.358 . S
C539 H596 0.930 . S
N540 C539 1.279 . S
N540 C543 1.314 . S
C541 C538 1.348 1_554 S
C541 C543 1.353 . S
C541 H597 0.929 . S
C542 C538 1.356 1_554 S
C542 C539 1.358 . S
C542 H598 0.930 1_554 S
C543 N540 1.314 . S
C543 C541 1.353 . S
C543 H599 0.930 . S
C544 N545 1.314 . S
C544 C549 1.353 . S
C544 H550 0.930 . S
N545 Li528 1.990 . S
N545 C544 1.314 . S
N545 C547 1.279 . S
C546 C547 1.358 . S
C546 C548 1.356 . S
C546 H600 0.930 . S
C547 N545 1.279 . S
C547 C546 1.358 . S
C547 H551 0.930 . S
C548 C546 1.356 . S
C548 C549 1.348 . S
C549 C544 1.353 . S
C549 C548 1.348 . S
C549 H601 0.929 . S
H550 C544 0.930 . S
H551 C547 0.930 . S
C552 N553 1.314 . S
C552 C554 1.353 . S
C552 H558 0.930 . S
N553 Li529 1.990 . S
N553 C552 1.314 . S
N553 C556 1.279 . S
C554 C552 1.353 . S
C554 C557 1.348 . S
C554 H602 0.929 . S
C555 C556 1.358 1_554 S
C555 C557 1.356 1_554 S
C555 H603 0.930 . S
C556 N553 1.279 . S
C556 C555 1.358 1_556 S
C556 H559 0.930 1_556 S
C557 C554 1.348 . S
C557 C555 1.356 1_556 S
H558 C552 0.930 . S
H559 C556 0.930 1_554 S
C560 C562 1.348 . S
C560 C563 1.356 . S
C560 O590 1.325 . S
N561 C564 1.314 . S
N561 C565 1.279 . S
C562 C560 1.348 . S
C562 C564 1.353 . S
C562 H604 0.929 . S
C563 C560 1.356 . S
C563 C565 1.358 . S
C563 H605 0.930 . S
C564 N561 1.314 . S
C564 C562 1.353 . S
C564 H606 0.930 . S
C565 N561 1.279 . S
C565 C563 1.358 . S
C565 H607 0.930 . S
C566 C567 1.348 . S
C566 C568 1.356 . S
C566 O591 1.325 . S
C567 C566 1.348 . S
C567 C569 1.353 . S
C567 H608 0.929 . S
C568 C566 1.356 . S
C568 C570 1.358 . S
C568 H609 0.930 . S
C569 C567 1.353 . S
C569 N571 1.314 . S
C569 H610 0.930 . S
C570 C568 1.358 . S
C570 N571 1.279 . S
C570 H611 0.930 . S
N571 C569 1.314 . S
N571 C570 1.279 . S
C572 C574 1.353 . S
C572 N575 1.314 . S
C572 H578 0.930 . S
C573 N575 1.279 . S
C573 C576 1.358 . S
C573 H579 0.930 . S
C574 C572 1.353 . S
C574 C577 1.348 . S
C574 H612 0.929 . S
N575 Li530 1.990 . S
N575 C572 1.314 . S
N575 C573 1.279 . S
C576 C573 1.358 . S
C576 C577 1.356 . S
C576 H613 0.930 . S
C577 C574 1.348 . S
C577 C576 1.356 . S
H578 C572 0.930 . S
H579 C573 0.930 . S
C580 N581 1.314 . S
C580 C582 1.353 . S
C580 H586 0.930 . S
N581 Li531 1.990 . S
N581 C580 1.314 . S
N581 C584 1.279 . S
C582 C580 1.353 . S
C582 C585 1.348 . S
C582 H614 0.929 . S
C583 C584 1.358 . S
C583 C585 1.356 . S
C583 H615 0.930 . S
C584 N581 1.279 . S
C584 C583 1.358 . S
C584 H587 0.930 . S
C585 C582 1.348 . S
C585 C583 1.356 . S
H586 C580 0.930 . S
H587 C584 0.930 . S
O588 Li528 1.956 . S
O588 Li529 1.970 . S
O588 Li530 1.961 . S
O588 C532 1.325 . S
O589 Li528 1.970 . S
O589 Li529 1.956 . S
O589 Li531 1.961 . S
O589 C538 1.325 . S
O590 Li528 1.961 . S
O590 Li530 1.956 . S
O590 Li531 1.970 . S
O590 C560 1.325 . S
O591 Li529 1.961 . S
O591 Li530 1.970 . S
O591 Li531 1.956 . S
O591 C566 1.325 . S
H592 C534 0.929 . S
H593 C535 0.930 . S
H594 C536 0.930 . S
H595 C537 0.930 . S
H596 C539 0.930 . S
H597 C541 0.929 . S
H598 C542 0.930 1_556 S
H599 C543 0.930 . S
H600 C546 0.930 . S
H601 C549 0.929 . S
H602 C554 0.929 . S
H603 C555 0.930 . S
H604 C562 0.929 . S
H605 C563 0.930 . S
H606 C564 0.930 . S
H607 C565 0.930 . S
H608 C567 0.929 . S
H609 C568 0.930 . S
H610 C569 0.930 . S
H611 C570 0.930 . S
H612 C574 0.929 . S
H613 C576 0.930 . S
H614 C582 0.929 . S
H615 C583 0.930 . S
Li616 N633 1.990 . S
Li616 O676 1.956 . S
Li616 O677 1.970 . S
Li616 O678 1.961 . S
Li617 N641 1.990 . S
Li617 O676 1.970 . S
Li617 O677 1.956 . S
Li617 O679 1.961 . S
Li618 N663 1.990 . S
Li618 O676 1.961 . S
Li618 O678 1.956 . S
Li618 O679 1.970 . S
Li619 N669 1.990 . S
Li619 O677 1.961 . S
Li619 O678 1.970 . S
Li619 O679 1.956 . S
C620 C622 1.348 . S
C620 C623 1.356 . S
C620 O676 1.325 . S
N621 C624 1.314 . S
N621 C625 1.279 . S
C622 C620 1.348 . S
C622 C624 1.353 . S
C622 H680 0.929 . S
C623 C620 1.356 . S
C623 C625 1.358 . S
C623 H681 0.930 . S
C624 N621 1.314 . S
C624 C622 1.353 . S
C624 H682 0.930 . S
C625 N621 1.279 . S
C625 C623 1.358 . S
C625 H683 0.930 . S
C626 C629 1.348 . S
C626 C630 1.356 . S
C626 O677 1.325 . S
C627 N628 1.279 . S
C627 C630 1.358 . S
C627 H684 0.930 . S
N628 C627 1.279 . S
N628 C631 1.314 . S
C629 C626 1.348 . S
C629 C631 1.353 . S
C629 H685 0.929 . S
C630 C626 1.356 . S
C630 C627 1.358 . S
C630 H686 0.930 . S
C631 N628 1.314 . S
C631 C629 1.353 . S
C631 H687 0.930 . S
C632 N633 1.314 . S
C632 C637 1.353 . S
C632 H638 0.930 . S
N633 Li616 1.990 . S
N633 C632 1.314 . S
N633 C635 1.279 . S
C634 C635 1.358 . S
C634 C636 1.356 . S
C634 H688 0.930 . S
C635 N633 1.279 . S
C635 C634 1.358 . S
C635 H639 0.930 . S
C636 C634 1.356 . S
C636 C637 1.348 . S
C637 C632 1.353 . S
C637 C636 1.348 . S
C637 H689 0.929 . S
H638 C632 0.930 . S
H639 C635 0.930 . S
C640 N641 1.314 . S
C640 C642 1.353 . S
C640 H646 0.930 . S
N641 Li617 1.990 . S
N641 C640 1.314 . S
N641 C644 1.279 . S
C642 C640 1.353 . S
C642 C645 1.348 . S
C642 H690 0.929 . S
C643 C644 1.358 . S
C643 C645 1.356 . S
C643 H691 0.930 . S
C644 N641 1.279 . S
C644 C643 1.358 . S
C644 H647 0.930 . S
C645 C642 1.348 . S
C645 C643 1.356 . S
H646 C640 0.930 . S
H647 C644 0.930 . S
C648 C650 1.348 . S
C648 C651 1.356 . S
C648 O678 1.325 . S
N649 C652 1.314 . S
N649 C653 1.279 . S
C650 C648 1.348 . S
C650 C652 1.353 . S
C650 H692 0.929 . S
C651 C648 1.356 . S
C651 C653 1.358 . S
C651 H693 0.930 . S
C652 N649 1.314 . S
C652 C650 1.353 . S
C652 H694 0.930 . S
C653 N649 1.279 . S
C653 C651 1.358 . S
C653 H695 0.930 . S
C654 C655 1.348 . S
C654 C656 1.356 . S
C654 O679 1.325 . S
C655 C654 1.348 . S
C655 C657 1.353 . S
C655 H696 0.929 . S
C656 C654 1.356 . S
C656 C658 1.358 . S
C656 H697 0.930 . S
C657 C655 1.353 . S
C657 N659 1.314 . S
C657 H698 0.930 . S
C658 C656 1.358 . S
C658 N659 1.279 . S
C658 H699 0.930 . S
N659 C657 1.314 . S
N659 C658 1.279 . S
C660 C662 1.353 . S
C660 N663 1.314 . S
C660 H666 0.930 . S
C661 N663 1.279 . S
C661 C664 1.358 . S
C661 H667 0.930 . S
C662 C660 1.353 . S
C662 C665 1.348 . S
C662 H700 0.929 . S
N663 Li618 1.990 . S
N663 C660 1.314 . S
N663 C661 1.279 . S
C664 C661 1.358 . S
C664 C665 1.356 . S
C664 H701 0.930 . S
C665 C662 1.348 . S
C665 C664 1.356 . S
H666 C660 0.930 . S
H667 C661 0.930 . S
C668 N669 1.314 . S
C668 C670 1.353 . S
C668 H674 0.930 . S
N669 Li619 1.990 . S
N669 C668 1.314 . S
N669 C672 1.279 . S
C670 C668 1.353 . S
C670 C673 1.348 . S
C670 H702 0.929 . S
C671 C672 1.358 . S
C671 C673 1.356 . S
C671 H703 0.930 . S
C672 N669 1.279 . S
C672 C671 1.358 . S
C672 H675 0.930 . S
C673 C670 1.348 . S
C673 C671 1.356 . S
H674 C668 0.930 . S
H675 C672 0.930 . S
O676 Li616 1.956 . S
O676 Li617 1.970 . S
O676 Li618 1.961 . S
O676 C620 1.325 . S
O677 Li616 1.970 . S
O677 Li617 1.956 . S
O677 Li619 1.961 . S
O677 C626 1.325 . S
O678 Li616 1.961 . S
O678 Li618 1.956 . S
O678 Li619 1.970 . S
O678 C648 1.325 . S
O679 Li617 1.961 . S
O679 Li618 1.970 . S
O679 Li619 1.956 . S
O679 C654 1.325 . S
H680 C622 0.929 . S
H681 C623 0.930 . S
H682 C624 0.930 . S
H683 C625 0.930 . S
H684 C627 0.930 . S
H685 C629 0.929 . S
H686 C630 0.930 . S
H687 C631 0.930 . S
H688 C634 0.930 . S
H689 C637 0.929 . S
H690 C642 0.929 . S
H691 C643 0.930 . S
H692 C650 0.929 . S
H693 C651 0.930 . S
H694 C652 0.930 . S
H695 C653 0.930 . S
H696 C655 0.929 . S
H697 C656 0.930 . S
H698 C657 0.930 . S
H699 C658 0.930 . S
H700 C662 0.929 . S
H701 C664 0.930 . S
H702 C670 0.929 . S
H703 C671 0.930 . S
Li704 N721 1.990 . S
Li704 O764 1.956 . S
Li704 O765 1.970 . S
Li704 O766 1.961 . S
Li705 N729 1.990 . S
Li705 O764 1.970 . S
Li705 O765 1.956 . S
Li705 O767 1.961 . S
Li706 N751 1.990 . S
Li706 O764 1.961 . S
Li706 O766 1.956 . S
Li706 O767 1.970 . S
Li707 N757 1.990 . S
Li707 O765 1.961 . S
Li707 O766 1.970 . S
Li707 O767 1.956 . S
C708 C710 1.348 . S
C708 C711 1.356 . S
C708 O764 1.325 . S
N709 C712 1.314 . S
N709 C713 1.279 . S
C710 C708 1.348 . S
C710 C712 1.353 . S
C710 H768 0.929 . S
C711 C708 1.356 . S
C711 C713 1.358 . S
C711 H769 0.930 . S
C712 N709 1.314 . S
C712 C710 1.353 . S
C712 H770 0.930 . S
C713 N709 1.279 . S
C713 C711 1.358 . S
C713 H771 0.930 . S
C714 C717 1.348 1_556 S
C714 C718 1.356 1_556 S
C714 O765 1.325 . S
C715 N716 1.279 . S
C715 C718 1.358 . S
C715 H772 0.930 . S
N716 C715 1.279 . S
N716 C719 1.314 . S
C717 C714 1.348 1_554 S
C717 C719 1.353 . S
C717 H773 0.929 . S
C718 C714 1.356 1_554 S
C718 C715 1.358 . S
C718 H774 0.930 1_554 S
C719 N716 1.314 . S
C719 C717 1.353 . S
C719 H775 0.930 . S
C720 N721 1.314 . S
C720 C725 1.353 . S
C720 H726 0.930 . S
N721 Li704 1.990 . S
N721 C720 1.314 . S
N721 C723 1.279 . S
C722 C723 1.358 . S
C722 C724 1.356 . S
C722 H776 0.930 . S
C723 N721 1.279 . S
C723 C722 1.358 . S
C723 H727 0.930 . S
C724 C722 1.356 . S
C724 C725 1.348 . S
C725 C720 1.353 . S
C725 C724 1.348 . S
C725 H777 0.929 . S
H726 C720 0.930 . S
H727 C723 0.930 . S
C728 N729 1.314 . S
C728 C730 1.353 . S
C728 H734 0.930 . S
N729 Li705 1.990 . S
N729 C728 1.314 . S
N729 C732 1.279 . S
C730 C728 1.353 . S
C730 C733 1.348 . S
C730 H778 0.929 . S
C731 C732 1.358 1_554 S
C731 C733 1.356 1_554 S
C731 H779 0.930 . S
C732 N729 1.279 . S
C732 C731 1.358 1_556 S
C732 H735 0.930 1_556 S
C733 C730 1.348 . S
C733 C731 1.356 1_556 S
H734 C728 0.930 . S
H735 C732 0.930 1_554 S
C736 C738 1.348 . S
C736 C739 1.356 . S
C736 O766 1.325 . S
N737 C740 1.314 . S
N737 C741 1.279 . S
C738 C736 1.348 . S
C738 C740 1.353 . S
C738 H780 0.929 . S
C739 C736 1.356 . S
C739 C741 1.358 . S
C739 H781 0.930 . S
C740 N737 1.314 . S
C740 C738 1.353 . S
C740 H782 0.930 . S
C741 N737 1.279 . S
C741 C739 1.358 . S
C741 H783 0.930 . S
C742 C743 1.348 . S
C742 C744 1.356 . S
C742 O767 1.325 . S
C743 C742 1.348 . S
C743 C745 1.353 . S
C743 H784 0.929 . S
C744 C742 1.356 . S
C744 C746 1.358 . S
C744 H785 0.930 . S
C745 C743 1.353 . S
C745 N747 1.314 . S
C745 H786 0.930 . S
C746 C744 1.358 . S
C746 N747 1.279 . S
C746 H787 0.930 . S
N747 C745 1.314 . S
N747 C746 1.279 . S
C748 C750 1.353 . S
C748 N751 1.314 . S
C748 H754 0.930 . S
C749 N751 1.279 . S
C749 C752 1.358 . S
C749 H755 0.930 . S
C750 C748 1.353 . S
C750 C753 1.348 . S
C750 H788 0.929 . S
N751 Li706 1.990 . S
N751 C748 1.314 . S
N751 C749 1.279 . S
C752 C749 1.358 . S
C752 C753 1.356 . S
C752 H789 0.930 . S
C753 C750 1.348 . S
C753 C752 1.356 . S
H754 C748 0.930 . S
H755 C749 0.930 . S
C756 N757 1.314 . S
C756 C758 1.353 . S
C756 H762 0.930 . S
N757 Li707 1.990 . S
N757 C756 1.314 . S
N757 C760 1.279 . S
C758 C756 1.353 . S
C758 C761 1.348 . S
C758 H790 0.929 . S
C759 C760 1.358 . S
C759 C761 1.356 . S
C759 H791 0.930 . S
C760 N757 1.279 . S
C760 C759 1.358 . S
C760 H763 0.930 . S
C761 C758 1.348 . S
C761 C759 1.356 . S
H762 C756 0.930 . S
H763 C760 0.930 . S
O764 Li704 1.956 . S
O764 Li705 1.970 . S
O764 Li706 1.961 . S
O764 C708 1.325 . S
O765 Li704 1.970 . S
O765 Li705 1.956 . S
O765 Li707 1.961 . S
O765 C714 1.325 . S
O766 Li704 1.961 . S
O766 Li706 1.956 . S
O766 Li707 1.970 . S
O766 C736 1.325 . S
O767 Li705 1.961 . S
O767 Li706 1.970 . S
O767 Li707 1.956 . S
O767 C742 1.325 . S
H768 C710 0.929 . S
H769 C711 0.930 . S
H770 C712 0.930 . S
H771 C713 0.930 . S
H772 C715 0.930 . S
H773 C717 0.929 . S
H774 C718 0.930 1_556 S
H775 C719 0.930 . S
H776 C722 0.930 . S
H777 C725 0.929 . S
H778 C730 0.929 . S
H779 C731 0.930 . S
H780 C738 0.929 . S
H781 C739 0.930 . S
H782 C740 0.930 . S
H783 C741 0.930 . S
H784 C743 0.929 . S
H785 C744 0.930 . S
H786 C745 0.930 . S
H787 C746 0.930 . S
H788 C750 0.929 . S
H789 C752 0.930 . S
H790 C758 0.929 . S
H791 C759 0.930 . S
Li792 N809 1.990 . S
Li792 O852 1.956 . S
Li792 O853 1.970 . S
Li792 O854 1.961 . S
Li793 N817 1.990 . S
Li793 O852 1.970 . S
Li793 O853 1.956 . S
Li793 O855 1.961 . S
Li794 N839 1.990 . S
Li794 O852 1.961 . S
Li794 O854 1.956 . S
Li794 O855 1.970 . S
Li795 N845 1.990 . S
Li795 O853 1.961 . S
Li795 O854 1.970 . S
Li795 O855 1.956 . S
C796 C798 1.348 . S
C796 C799 1.356 . S
C796 O852 1.325 . S
N797 C800 1.314 . S
N797 C801 1.279 . S
C798 C796 1.348 . S
C798 C800 1.353 . S
C798 H856 0.929 . S
C799 C796 1.356 . S
C799 C801 1.358 . S
C799 H857 0.930 . S
C800 N797 1.314 . S
C800 C798 1.353 . S
C800 H858 0.930 . S
C801 N797 1.279 . S
C801 C799 1.358 . S
C801 H859 0.930 . S
C802 C805 1.348 . S
C802 C806 1.356 . S
C802 O853 1.325 . S
C803 N804 1.279 . S
C803 C806 1.358 . S
C803 H860 0.930 . S
N804 C803 1.279 . S
N804 C807 1.314 . S
C805 C802 1.348 . S
C805 C807 1.353 . S
C805 H861 0.929 . S
C806 C802 1.356 . S
C806 C803 1.358 . S
C806 H862 0.930 . S
C807 N804 1.314 . S
C807 C805 1.353 . S
C807 H863 0.930 . S
C808 N809 1.314 . S
C808 C813 1.353 . S
C808 H814 0.930 . S
N809 Li792 1.990 . S
N809 C808 1.314 . S
N809 C811 1.279 . S
C810 C811 1.358 . S
C810 C812 1.356 . S
C810 H864 0.930 . S
C811 N809 1.279 . S
C811 C810 1.358 . S
C811 H815 0.930 . S
C812 C810 1.356 . S
C812 C813 1.348 . S
C813 C808 1.353 . S
C813 C812 1.348 . S
C813 H865 0.929 . S
H814 C808 0.930 . S
H815 C811 0.930 . S
C816 N817 1.314 . S
C816 C818 1.353 . S
C816 H822 0.930 . S
N817 Li793 1.990 . S
N817 C816 1.314 . S
N817 C820 1.279 . S
C818 C816 1.353 . S
C818 C821 1.348 . S
C818 H866 0.929 . S
C819 C820 1.358 . S
C819 C821 1.356 . S
C819 H867 0.930 . S
C820 N817 1.279 . S
C820 C819 1.358 . S
C820 H823 0.930 . S
C821 C818 1.348 . S
C821 C819 1.356 . S
H822 C816 0.930 . S
H823 C820 0.930 . S
C824 C826 1.348 . S
C824 C827 1.356 . S
C824 O854 1.325 . S
N825 C828 1.314 . S
N825 C829 1.279 . S
C826 C824 1.348 . S
C826 C828 1.353 . S
C826 H868 0.929 . S
C827 C824 1.356 . S
C827 C829 1.358 . S
C827 H869 0.930 . S
C828 N825 1.314 . S
C828 C826 1.353 . S
C828 H870 0.930 . S
C829 N825 1.279 . S
C829 C827 1.358 . S
C829 H871 0.930 . S
C830 C831 1.348 . S
C830 C832 1.356 . S
C830 O855 1.325 . S
C831 C830 1.348 . S
C831 C833 1.353 . S
C831 H872 0.929 . S
C832 C830 1.356 . S
C832 C834 1.358 . S
C832 H873 0.930 . S
C833 C831 1.353 . S
C833 N835 1.314 . S
C833 H874 0.930 . S
C834 C832 1.358 . S
C834 N835 1.279 . S
C834 H875 0.930 . S
N835 C833 1.314 . S
N835 C834 1.279 . S
C836 C838 1.353 . S
C836 N839 1.314 . S
C836 H842 0.930 . S
C837 N839 1.279 . S
C837 C840 1.358 . S
C837 H843 0.930 . S
C838 C836 1.353 . S
C838 C841 1.348 . S
C838 H876 0.929 . S
N839 Li794 1.990 . S
N839 C836 1.314 . S
N839 C837 1.279 . S
C840 C837 1.358 . S
C840 C841 1.356 . S
C840 H877 0.930 . S
C841 C838 1.348 . S
C841 C840 1.356 . S
H842 C836 0.930 . S
H843 C837 0.930 . S
C844 N845 1.314 . S
C844 C846 1.353 . S
C844 H850 0.930 . S
N845 Li795 1.990 . S
N845 C844 1.314 . S
N845 C848 1.279 . S
C846 C844 1.353 . S
C846 C849 1.348 . S
C846 H878 0.929 . S
C847 C848 1.358 . S
C847 C849 1.356 . S
C847 H879 0.930 . S
C848 N845 1.279 . S
C848 C847 1.358 . S
C848 H851 0.930 . S
C849 C846 1.348 . S
C849 C847 1.356 . S
H850 C844 0.930 . S
H851 C848 0.930 . S
O852 Li792 1.956 . S
O852 Li793 1.970 . S
O852 Li794 1.961 . S
O852 C796 1.325 . S
O853 Li792 1.970 . S
O853 Li793 1.956 . S
O853 Li795 1.961 . S
O853 C802 1.325 . S
O854 Li792 1.961 . S
O854 Li794 1.956 . S
O854 Li795 1.970 . S
O854 C824 1.325 . S
O855 Li793 1.961 . S
O855 Li794 1.970 . S
O855 Li795 1.956 . S
O855 C830 1.325 . S
H856 C798 0.929 . S
H857 C799 0.930 . S
H858 C800 0.930 . S
H859 C801 0.930 . S
H860 C803 0.930 . S
H861 C805 0.929 . S
H862 C806 0.930 . S
H863 C807 0.930 . S
H864 C810 0.930 . S
H865 C813 0.929 . S
H866 C818 0.929 . S
H867 C819 0.930 . S
H868 C826 0.929 . S
H869 C827 0.930 . S
H870 C828 0.930 . S
H871 C829 0.930 . S
H872 C831 0.929 . S
H873 C832 0.930 . S
H874 C833 0.930 . S
H875 C834 0.930 . S
H876 C838 0.929 . S
H877 C840 0.930 . S
H878 C846 0.929 . S
H879 C847 0.930 . S
Li880 N897 1.990 . S
Li880 O940 1.956 . S
Li880 O941 1.970 . S
Li880 O942 1.961 . S
Li881 N905 1.990 . S
Li881 O940 1.970 . S
Li881 O941 1.956 . S
Li881 O943 1.961 . S
Li882 N927 1.990 . S
Li882 O940 1.961 . S
Li882 O942 1.956 . S
Li882 O943 1.970 . S
Li883 N933 1.990 . S
Li883 O941 1.961 . S
Li883 O942 1.970 . S
Li883 O943 1.956 . S
C884 C886 1.348 . S
C884 C887 1.356 . S
C884 O940 1.325 . S
N885 C888 1.314 . S
N885 C889 1.279 . S
C886 C884 1.348 . S
C886 C888 1.353 . S
C886 H944 0.929 . S
C887 C884 1.356 . S
C887 C889 1.358 . S
C887 H945 0.930 . S
C888 N885 1.314 . S
C888 C886 1.353 . S
C888 H946 0.930 . S
C889 N885 1.279 . S
C889 C887 1.358 . S
C889 H947 0.930 . S
C890 C893 1.348 1_556 S
C890 C894 1.356 1_556 S
C890 O941 1.325 . S
C891 N892 1.279 . S
C891 C894 1.358 . S
C891 H948 0.930 . S
N892 C891 1.279 . S
N892 C895 1.314 . S
C893 C890 1.348 1_554 S
C893 C895 1.353 . S
C893 H949 0.929 . S
C894 C890 1.356 1_554 S
C894 C891 1.358 . S
C894 H950 0.930 1_554 S
C895 N892 1.314 . S
C895 C893 1.353 . S
C895 H951 0.930 . S
C896 N897 1.314 . S
C896 C901 1.353 . S
C896 H902 0.930 . S
N897 Li880 1.990 . S
N897 C896 1.314 . S
N897 C899 1.279 . S
C898 C899 1.358 . S
C898 C900 1.356 . S
C898 H952 0.930 . S
C899 N897 1.279 . S
C899 C898 1.358 . S
C899 H903 0.930 . S
C900 C898 1.356 . S
C900 C901 1.348 . S
C901 C896 1.353 . S
C901 C900 1.348 . S
C901 H953 0.929 . S
H902 C896 0.930 . S
H903 C899 0.930 . S
C904 N905 1.314 . S
C904 C906 1.353 . S
C904 H910 0.930 . S
N905 Li881 1.990 . S
N905 C904 1.314 . S
N905 C908 1.279 . S
C906 C904 1.353 . S
C906 C909 1.348 . S
C906 H954 0.929 . S
C907 C908 1.358 1_554 S
C907 C909 1.356 1_554 S
C907 H955 0.930 . S
C908 N905 1.279 . S
C908 C907 1.358 1_556 S
C908 H911 0.930 1_556 S
C909 C906 1.348 . S
C909 C907 1.356 1_556 S
H910 C904 0.930 . S
H911 C908 0.930 1_554 S
C912 C914 1.348 . S
C912 C915 1.356 . S
C912 O942 1.325 . S
N913 C916 1.314 . S
N913 C917 1.279 . S
C914 C912 1.348 . S
C914 C916 1.353 . S
C914 H956 0.929 . S
C915 C912 1.356 . S
C915 C917 1.358 . S
C915 H957 0.930 . S
C916 N913 1.314 . S
C916 C914 1.353 . S
C916 H958 0.930 . S
C917 N913 1.279 . S
C917 C915 1.358 . S
C917 H959 0.930 . S
C918 C919 1.348 . S
C918 C920 1.356 . S
C918 O943 1.325 . S
C919 C918 1.348 . S
C919 C921 1.353 . S
C919 H960 0.929 . S
C920 C918 1.356 . S
C920 C922 1.358 . S
C920 H961 0.930 . S
C921 C919 1.353 . S
C921 N923 1.314 . S
C921 H962 0.930 . S
C922 C920 1.358 . S
C922 N923 1.279 . S
C922 H963 0.930 . S
N923 C921 1.314 . S
N923 C922 1.279 . S
C924 C926 1.353 . S
C924 N927 1.314 . S
C924 H930 0.930 . S
C925 N927 1.279 . S
C925 C928 1.358 . S
C925 H931 0.930 . S
C926 C924 1.353 . S
C926 C929 1.348 . S
C926 H964 0.929 . S
N927 Li882 1.990 . S
N927 C924 1.314 . S
N927 C925 1.279 . S
C928 C925 1.358 . S
C928 C929 1.356 . S
C928 H965 0.930 . S
C929 C926 1.348 . S
C929 C928 1.356 . S
H930 C924 0.930 . S
H931 C925 0.930 . S
C932 N933 1.314 . S
C932 C934 1.353 . S
C932 H938 0.930 . S
N933 Li883 1.990 . S
N933 C932 1.314 . S
N933 C936 1.279 . S
C934 C932 1.353 . S
C934 C937 1.348 . S
C934 H966 0.929 . S
C935 C936 1.358 . S
C935 C937 1.356 . S
C935 H967 0.930 . S
C936 N933 1.279 . S
C936 C935 1.358 . S
C936 H939 0.930 . S
C937 C934 1.348 . S
C937 C935 1.356 . S
H938 C932 0.930 . S
H939 C936 0.930 . S
O940 Li880 1.956 . S
O940 Li881 1.970 . S
O940 Li882 1.961 . S
O940 C884 1.325 . S
O941 Li880 1.970 . S
O941 Li881 1.956 . S
O941 Li883 1.961 . S
O941 C890 1.325 . S
O942 Li880 1.961 . S
O942 Li882 1.956 . S
O942 Li883 1.970 . S
O942 C912 1.325 . S
O943 Li881 1.961 . S
O943 Li882 1.970 . S
O943 Li883 1.956 . S
O943 C918 1.325 . S
H944 C886 0.929 . S
H945 C887 0.930 . S
H946 C888 0.930 . S
H947 C889 0.930 . S
H948 C891 0.930 . S
H949 C893 0.929 . S
H950 C894 0.930 1_556 S
H951 C895 0.930 . S
H952 C898 0.930 . S
H953 C901 0.929 . S
H954 C906 0.929 . S
H955 C907 0.930 . S
H956 C914 0.929 . S
H957 C915 0.930 . S
H958 C916 0.930 . S
H959 C917 0.930 . S
H960 C919 0.929 . S
H961 C920 0.930 . S
H962 C921 0.930 . S
H963 C922 0.930 . S
H964 C926 0.929 . S
H965 C928 0.930 . S
H966 C934 0.929 . S
H967 C935 0.930 . S
Li968 N985 1.990 . S
Li968 O1028 1.956 . S
Li968 O1029 1.970 . S
Li968 O1030 1.961 . S
Li969 N993 1.990 . S
Li969 O1028 1.970 . S
Li969 O1029 1.956 . S
Li969 O1031 1.961 . S
Li970 N1015 1.990 . S
Li970 O1028 1.961 . S
Li970 O1030 1.956 . S
Li970 O1031 1.970 . S
Li971 N1021 1.990 . S
Li971 O1029 1.961 . S
Li971 O1030 1.970 . S
Li971 O1031 1.956 . S
C972 C974 1.348 . S
C972 C975 1.356 . S
C972 O1028 1.325 . S
N973 C976 1.314 . S
N973 C977 1.279 . S
C974 C972 1.348 . S
C974 C976 1.353 . S
C974 H1032 0.929 . S
C975 C972 1.356 . S
C975 C977 1.358 . S
C975 H1033 0.930 . S
C976 N973 1.314 . S
C976 C974 1.353 . S
C976 H1034 0.930 . S
C977 N973 1.279 . S
C977 C975 1.358 . S
C977 H1035 0.930 . S
C978 C981 1.348 . S
C978 C982 1.356 . S
C978 O1029 1.325 . S
C979 N980 1.279 . S
C979 C982 1.358 . S
C979 H1036 0.930 . S
N980 C979 1.279 . S
N980 C983 1.314 . S
C981 C978 1.348 . S
C981 C983 1.353 . S
C981 H1037 0.929 . S
C982 C978 1.356 . S
C982 C979 1.358 . S
C982 H1038 0.930 . S
C983 N980 1.314 . S
C983 C981 1.353 . S
C983 H1039 0.930 . S
C984 N985 1.314 . S
C984 C989 1.353 . S
C984 H990 0.930 . S
N985 Li968 1.990 . S
N985 C984 1.314 . S
N985 C987 1.279 . S
C986 C987 1.358 . S
C986 C988 1.356 . S
C986 H1040 0.930 . S
C987 N985 1.279 . S
C987 C986 1.358 . S
C987 H991 0.930 . S
C988 C986 1.356 . S
C988 C989 1.348 . S
C989 C984 1.353 . S
C989 C988 1.348 . S
C989 H1041 0.929 . S
H990 C984 0.930 . S
H991 C987 0.930 . S
C992 N993 1.314 . S
C992 C994 1.353 . S
C992 H998 0.930 . S
N993 Li969 1.990 . S
N993 C992 1.314 . S
N993 C996 1.279 . S
C994 C992 1.353 . S
C994 C997 1.348 . S
C994 H1042 0.929 . S
C995 C996 1.358 . S
C995 C997 1.356 . S
C995 H1043 0.930 . S
C996 N993 1.279 . S
C996 C995 1.358 . S
C996 H999 0.930 . S
C997 C994 1.348 . S
C997 C995 1.356 . S
H998 C992 0.930 . S
H999 C996 0.930 . S
C1000 C1002 1.348 . S
C1000 C1003 1.356 . S
C1000 O1030 1.325 . S
N1001 C1004 1.314 . S
N1001 C1005 1.279 . S
C1002 C1000 1.348 . S
C1002 C1004 1.353 . S
C1002 H1044 0.929 . S
C1003 C1000 1.356 . S
C1003 C1005 1.358 . S
C1003 H1045 0.930 . S
C1004 N1001 1.314 . S
C1004 C1002 1.353 . S
C1004 H1046 0.930 . S
C1005 N1001 1.279 . S
C1005 C1003 1.358 . S
C1005 H1047 0.930 . S
C1006 C1007 1.348 . S
C1006 C1008 1.356 . S
C1006 O1031 1.325 . S
C1007 C1006 1.348 . S
C1007 C1009 1.353 . S
C1007 H1048 0.929 . S
C1008 C1006 1.356 . S
C1008 C1010 1.358 . S
C1008 H1049 0.930 . S
C1009 C1007 1.353 . S
C1009 N1011 1.314 . S
C1009 H1050 0.930 . S
C1010 C1008 1.358 . S
C1010 N1011 1.279 . S
C1010 H1051 0.930 . S
N1011 C1009 1.314 . S
N1011 C1010 1.279 . S
C1012 C1014 1.353 . S
C1012 N1015 1.314 . S
C1012 H1018 0.930 . S
C1013 N1015 1.279 . S
C1013 C1016 1.358 . S
C1013 H1019 0.930 . S
C1014 C1012 1.353 . S
C1014 C1017 1.348 . S
C1014 H1052 0.929 . S
N1015 Li970 1.990 . S
N1015 C1012 1.314 . S
N1015 C1013 1.279 . S
C1016 C1013 1.358 . S
C1016 C1017 1.356 . S
C1016 H1053 0.930 . S
C1017 C1014 1.348 . S
C1017 C1016 1.356 . S
H1018 C1012 0.930 . S
H1019 C1013 0.930 . S
C1020 N1021 1.314 . S
C1020 C1022 1.353 . S
C1020 H1026 0.930 . S
N1021 Li971 1.990 . S
N1021 C1020 1.314 . S
N1021 C1024 1.279 . S
C1022 C1020 1.353 . S
C1022 C1025 1.348 . S
C1022 H1054 0.929 . S
C1023 C1024 1.358 . S
C1023 C1025 1.356 . S
C1023 H1055 0.930 . S
C1024 N1021 1.279 . S
C1024 C1023 1.358 . S
C1024 H1027 0.930 . S
C1025 C1022 1.348 . S
C1025 C1023 1.356 . S
H1026 C1020 0.930 . S
H1027 C1024 0.930 . S
O1028 Li968 1.956 . S
O1028 Li969 1.970 . S
O1028 Li970 1.961 . S
O1028 C972 1.325 . S
O1029 Li968 1.970 . S
O1029 Li969 1.956 . S
O1029 Li971 1.961 . S
O1029 C978 1.325 . S
O1030 Li968 1.961 . S
O1030 Li970 1.956 . S
O1030 Li971 1.970 . S
O1030 C1000 1.325 . S
O1031 Li969 1.961 . S
O1031 Li970 1.970 . S
O1031 Li971 1.956 . S
O1031 C1006 1.325 . S
H1032 C974 0.929 . S
H1033 C975 0.930 . S
H1034 C976 0.930 . S
H1035 C977 0.930 . S
H1036 C979 0.930 . S
H1037 C981 0.929 . S
H1038 C982 0.930 . S
H1039 C983 0.930 . S
H1040 C986 0.930 . S
H1041 C989 0.929 . S
H1042 C994 0.929 . S
H1043 C995 0.930 . S
H1044 C1002 0.929 . S
H1045 C1003 0.930 . S
H1046 C1004 0.930 . S
H1047 C1005 0.930 . S
H1048 C1007 0.929 . S
H1049 C1008 0.930 . S
H1050 C1009 0.930 . S
H1051 C1010 0.930 . S
H1052 C1014 0.929 . S
H1053 C1016 0.930 . S
H1054 C1022 0.929 . S
H1055 C1023 0.930 . S
Li1056 N1073 1.990 . S
Li1056 O1116 1.956 . S
Li1056 O1117 1.970 . S
Li1056 O1118 1.961 . S
Li1057 N1081 1.990 . S
Li1057 O1116 1.970 . S
Li1057 O1117 1.956 . S
Li1057 O1119 1.961 . S
Li1058 N1103 1.990 . S
Li1058 O1116 1.961 . S
Li1058 O1118 1.956 . S
Li1058 O1119 1.970 . S
Li1059 N1109 1.990 . S
Li1059 O1117 1.961 . S
Li1059 O1118 1.970 . S
Li1059 O1119 1.956 . S
C1060 C1062 1.348 . S
C1060 C1063 1.356 . S
C1060 O1116 1.325 . S
N1061 C1064 1.314 . S
N1061 C1065 1.279 . S
C1062 C1060 1.348 . S
C1062 C1064 1.353 . S
C1062 H1120 0.929 . S
C1063 C1060 1.356 . S
C1063 C1065 1.358 . S
C1063 H1121 0.930 . S
C1064 N1061 1.314 . S
C1064 C1062 1.353 . S
C1064 H1122 0.930 . S
C1065 N1061 1.279 . S
C1065 C1063 1.358 . S
C1065 H1123 0.930 . S
C1066 C1069 1.348 1_556 S
C1066 C1070 1.356 1_556 S
C1066 O1117 1.325 . S
C1067 N1068 1.279 . S
C1067 C1070 1.358 . S
C1067 H1124 0.930 . S
N1068 C1067 1.279 . S
N1068 C1071 1.314 . S
C1069 C1066 1.348 1_554 S
C1069 C1071 1.353 . S
C1069 H1125 0.929 1_554 S
C1070 C1066 1.356 1_554 S
C1070 C1067 1.358 . S
C1070 H1126 0.914 1_554 S
C1071 N1068 1.314 . S
C1071 C1069 1.353 . S
C1071 H1127 0.930 . S
C1072 N1073 1.314 . S
C1072 C1077 1.353 . S
C1072 H1078 0.930 . S
N1073 Li1056 1.990 . S
N1073 C1072 1.314 . S
N1073 C1075 1.279 . S
C1074 C1075 1.358 . S
C1074 C1076 1.356 . S
C1074 H1128 0.930 . S
C1075 N1073 1.279 . S
C1075 C1074 1.358 . S
C1075 H1079 0.930 . S
C1076 C1074 1.356 . S
C1076 C1077 1.348 . S
C1077 C1072 1.353 . S
C1077 C1076 1.348 . S
C1077 H1129 0.929 . S
H1078 C1072 0.930 . S
H1079 C1075 0.930 . S
C1080 N1081 1.314 . S
C1080 C1082 1.353 . S
C1080 H1086 0.930 . S
N1081 Li1057 1.990 . S
N1081 C1080 1.314 . S
N1081 C1084 1.279 . S
C1082 C1080 1.353 . S
C1082 C1085 1.348 . S
C1082 H1130 0.929 . S
C1083 C1084 1.358 . S
C1083 C1085 1.356 . S
C1083 H1131 0.930 . S
C1084 N1081 1.279 . S
C1084 C1083 1.358 . S
C1084 H1087 0.930 . S
C1085 C1082 1.348 . S
C1085 C1083 1.356 . S
H1086 C1080 0.930 . S
H1087 C1084 0.930 . S
C1088 C1090 1.348 . S
C1088 C1091 1.356 . S
C1088 O1118 1.325 . S
N1089 C1092 1.314 . S
N1089 C1093 1.279 . S
C1090 C1088 1.348 . S
C1090 C1092 1.353 . S
C1090 H1132 0.929 . S
C1091 C1088 1.356 . S
C1091 C1093 1.358 . S
C1091 H1133 0.930 . S
C1092 N1089 1.314 . S
C1092 C1090 1.353 . S
C1092 H1134 0.930 . S
C1093 N1089 1.279 . S
C1093 C1091 1.358 . S
C1093 H1135 0.930 . S
C1094 C1095 1.348 . S
C1094 C1096 1.356 . S
C1094 O1119 1.325 . S
C1095 C1094 1.348 . S
C1095 C1097 1.353 . S
C1095 H1136 0.929 . S
C1096 C1094 1.356 . S
C1096 C1098 1.358 . S
C1096 H1137 0.930 . S
C1097 C1095 1.353 . S
C1097 N1099 1.314 . S
C1097 H1138 0.930 . S
C1098 C1096 1.358 . S
C1098 N1099 1.279 . S
C1098 H1139 0.930 . S
N1099 C1097 1.314 . S
N1099 C1098 1.279 . S
C1100 C1102 1.353 . S
C1100 N1103 1.314 . S
C1100 H1106 0.930 . S
C1101 N1103 1.279 . S
C1101 C1104 1.358 . S
C1101 H1107 0.930 . S
C1102 C1100 1.353 . S
C1102 C1105 1.348 . S
C1102 H1140 0.929 . S
N1103 Li1058 1.990 . S
N1103 C1100 1.314 . S
N1103 C1101 1.279 . S
C1104 C1101 1.358 . S
C1104 C1105 1.356 . S
C1104 H1141 0.930 . S
C1105 C1102 1.348 . S
C1105 C1104 1.356 . S
H1106 C1100 0.930 . S
H1107 C1101 0.930 . S
C1108 N1109 1.314 . S
C1108 C1110 1.360 . S
C1108 H1114 0.930 . S
N1109 Li1059 1.990 . S
N1109 C1108 1.314 . S
N1109 C1112 1.279 . S
C1110 C1108 1.360 . S
C1110 C1113 1.353 . S
C1110 H1142 0.918 1_556 S
C1111 C1112 1.358 . S
C1111 C1113 1.356 . S
C1111 H1143 0.930 . S
C1112 N1109 1.279 . S
C1112 C1111 1.358 . S
C1112 H1115 0.930 . S
C1113 C1110 1.353 . S
C1113 C1111 1.356 . S
H1114 C1108 0.930 . S
H1115 C1112 0.930 . S
O1116 Li1056 1.956 . S
O1116 Li1057 1.970 . S
O1116 Li1058 1.961 . S
O1116 C1060 1.325 . S
O1117 Li1056 1.970 . S
O1117 Li1057 1.956 . S
O1117 Li1059 1.961 . S
O1117 C1066 1.325 . S
O1118 Li1056 1.961 . S
O1118 Li1058 1.956 . S
O1118 Li1059 1.970 . S
O1118 C1088 1.325 . S
O1119 Li1057 1.961 . S
O1119 Li1058 1.970 . S
O1119 Li1059 1.956 . S
O1119 C1094 1.325 . S
H1120 C1062 0.929 . S
H1121 C1063 0.930 . S
H1122 C1064 0.930 . S
H1123 C1065 0.930 . S
H1124 C1067 0.930 . S
H1125 C1069 0.929 1_556 S
H1126 C1070 0.914 1_556 S
H1127 C1071 0.930 . S
H1128 C1074 0.930 . S
H1129 C1077 0.929 . S
H1130 C1082 0.929 . S
H1131 C1083 0.930 . S
H1132 C1090 0.929 . S
H1133 C1091 0.930 . S
H1134 C1092 0.930 . S
H1135 C1093 0.930 . S
H1136 C1095 0.929 . S
H1137 C1096 0.930 . S
H1138 C1097 0.930 . S
H1139 C1098 0.930 . S
H1140 C1102 0.929 . S
H1141 C1104 0.930 . S
H1142 C1110 0.918 1_554 S
H1143 C1111 0.930 . S
Li1144 N1161 1.990 . S
Li1144 O1204 1.956 . S
Li1144 O1205 1.970 . S
Li1144 O1206 1.961 . S
Li1145 N1169 1.990 . S
Li1145 O1204 1.970 . S
Li1145 O1205 1.956 . S
Li1145 O1207 1.961 . S
Li1146 N1191 1.990 . S
Li1146 O1204 1.961 . S
Li1146 O1206 1.956 . S
Li1146 O1207 1.970 . S
Li1147 N1197 1.990 . S
Li1147 O1205 1.961 . S
Li1147 O1206 1.970 . S
Li1147 O1207 1.956 . S
C1148 C1150 1.348 . S
C1148 C1151 1.356 . S
C1148 O1204 1.325 . S
N1149 C1152 1.314 . S
N1149 C1153 1.279 . S
C1150 C1148 1.348 . S
C1150 C1152 1.353 . S
C1150 H1208 0.929 . S
C1151 C1148 1.356 . S
C1151 C1153 1.358 . S
C1151 H1209 0.930 . S
C1152 N1149 1.314 . S
C1152 C1150 1.353 . S
C1152 H1210 0.930 . S
C1153 N1149 1.279 . S
C1153 C1151 1.358 . S
C1153 H1211 0.930 . S
C1154 C1157 1.348 . S
C1154 C1158 1.356 . S
C1154 O1205 1.325 . S
C1155 N1156 1.279 . S
C1155 C1158 1.358 . S
C1155 H1212 0.930 . S
N1156 C1155 1.279 . S
N1156 C1159 1.314 . S
C1157 C1154 1.348 . S
C1157 C1159 1.353 . S
C1157 H1213 0.929 . S
C1158 C1154 1.356 . S
C1158 C1155 1.358 . S
C1158 H1214 0.930 . S
C1159 N1156 1.314 . S
C1159 C1157 1.353 . S
C1159 H1215 0.930 . S
C1160 N1161 1.314 . S
C1160 C1165 1.353 . S
C1160 H1166 0.930 . S
N1161 Li1144 1.990 . S
N1161 C1160 1.314 . S
N1161 C1163 1.279 . S
C1162 C1163 1.358 . S
C1162 C1164 1.356 . S
C1162 H1216 0.930 . S
C1163 N1161 1.279 . S
C1163 C1162 1.358 . S
C1163 H1167 0.930 . S
C1164 C1162 1.356 . S
C1164 C1165 1.348 . S
C1165 C1160 1.353 . S
C1165 C1164 1.348 . S
C1165 H1217 0.929 . S
H1166 C1160 0.930 . S
H1167 C1163 0.930 . S
C1168 N1169 1.314 . S
C1168 C1170 1.353 . S
C1168 H1174 0.930 . S
N1169 Li1145 1.990 . S
N1169 C1168 1.314 . S
N1169 C1172 1.279 . S
C1170 C1168 1.353 . S
C1170 C1173 1.348 . S
C1170 H1218 0.929 . S
C1171 C1172 1.358 . S
C1171 C1173 1.356 . S
C1171 H1219 0.930 . S
C1172 N1169 1.279 . S
C1172 C1171 1.358 . S
C1172 H1175 0.930 . S
C1173 C1170 1.348 . S
C1173 C1171 1.356 . S
H1174 C1168 0.930 . S
H1175 C1172 0.930 . S
C1176 C1178 1.348 . S
C1176 C1179 1.356 . S
C1176 O1206 1.325 . S
N1177 C1180 1.314 . S
N1177 C1181 1.279 . S
C1178 C1176 1.348 . S
C1178 C1180 1.353 . S
C1178 H1220 0.929 . S
C1179 C1176 1.356 . S
C1179 C1181 1.358 . S
C1179 H1221 0.930 . S
C1180 N1177 1.314 . S
C1180 C1178 1.353 . S
C1180 H1222 0.930 . S
C1181 N1177 1.279 . S
C1181 C1179 1.358 . S
C1181 H1223 0.930 . S
C1182 C1183 1.348 . S
C1182 C1184 1.356 . S
C1182 O1207 1.325 . S
C1183 C1182 1.348 . S
C1183 C1185 1.353 . S
C1183 H1224 0.929 . S
C1184 C1182 1.356 . S
C1184 C1186 1.358 . S
C1184 H1225 0.930 . S
C1185 C1183 1.353 . S
C1185 N1187 1.314 . S
C1185 H1226 0.930 . S
C1186 C1184 1.358 . S
C1186 N1187 1.279 . S
C1186 H1227 0.930 . S
N1187 C1185 1.314 . S
N1187 C1186 1.279 . S
C1188 C1190 1.353 . S
C1188 N1191 1.314 . S
C1188 H1194 0.930 . S
C1189 N1191 1.279 . S
C1189 C1192 1.358 . S
C1189 H1195 0.930 . S
C1190 C1188 1.353 . S
C1190 C1193 1.348 . S
C1190 H1228 0.929 . S
N1191 Li1146 1.990 . S
N1191 C1188 1.314 . S
N1191 C1189 1.279 . S
C1192 C1189 1.358 . S
C1192 C1193 1.356 . S
C1192 H1229 0.930 . S
C1193 C1190 1.348 . S
C1193 C1192 1.356 . S
H1194 C1188 0.930 . S
H1195 C1189 0.930 . S
C1196 N1197 1.314 . S
C1196 C1198 1.353 . S
C1196 H1202 0.930 . S
N1197 Li1147 1.990 . S
N1197 C1196 1.314 . S
N1197 C1200 1.279 . S
C1198 C1196 1.353 . S
C1198 C1201 1.348 . S
C1198 H1230 0.929 . S
C1199 C1200 1.358 . S
C1199 C1201 1.356 . S
C1199 H1231 0.930 . S
C1200 N1197 1.279 . S
C1200 C1199 1.358 . S
C1200 H1203 0.930 . S
C1201 C1198 1.348 . S
C1201 C1199 1.356 . S
H1202 C1196 0.930 . S
H1203 C1200 0.930 . S
O1204 Li1144 1.956 . S
O1204 Li1145 1.970 . S
O1204 Li1146 1.961 . S
O1204 C1148 1.325 . S
O1205 Li1144 1.970 . S
O1205 Li1145 1.956 . S
O1205 Li1147 1.961 . S
O1205 C1154 1.325 . S
O1206 Li1144 1.961 . S
O1206 Li1146 1.956 . S
O1206 Li1147 1.970 . S
O1206 C1176 1.325 . S
O1207 Li1145 1.961 . S
O1207 Li1146 1.970 . S
O1207 Li1147 1.956 . S
O1207 C1182 1.325 . S
H1208 C1150 0.929 . S
H1209 C1151 0.930 . S
H1210 C1152 0.930 . S
H1211 C1153 0.930 . S
H1212 C1155 0.930 . S
H1213 C1157 0.929 . S
H1214 C1158 0.930 . S
H1215 C1159 0.930 . S
H1216 C1162 0.930 . S
H1217 C1165 0.929 . S
H1218 C1170 0.929 . S
H1219 C1171 0.930 . S
H1220 C1178 0.929 . S
H1221 C1179 0.930 . S
H1222 C1180 0.930 . S
H1223 C1181 0.930 . S
H1224 C1183 0.929 . S
H1225 C1184 0.930 . S
H1226 C1185 0.930 . S
H1227 C1186 0.930 . S
H1228 C1190 0.929 . S
H1229 C1192 0.930 . S
H1230 C1198 0.929 . S
H1231 C1199 0.930 . S
Li1232 N1249 1.990 . S
Li1232 O1292 1.956 . S
Li1232 O1293 1.970 . S
Li1232 O1294 1.961 . S
Li1233 N1257 1.990 . S
Li1233 O1292 1.970 . S
Li1233 O1293 1.956 . S
Li1233 O1295 1.961 . S
Li1234 N1279 1.990 . S
Li1234 O1292 1.961 . S
Li1234 O1294 1.956 . S
Li1234 O1295 1.970 . S
Li1235 N1285 1.990 . S
Li1235 O1293 1.961 . S
Li1235 O1294 1.970 . S
Li1235 O1295 1.956 . S
C1236 C1238 1.348 . S
C1236 C1239 1.356 . S
C1236 O1292 1.325 . S
N1237 C1240 1.314 . S
N1237 C1241 1.279 . S
C1238 C1236 1.348 . S
C1238 C1240 1.353 . S
C1238 H1296 0.929 . S
C1239 C1236 1.356 . S
C1239 C1241 1.358 . S
C1239 H1297 0.930 . S
C1240 N1237 1.314 . S
C1240 C1238 1.353 . S
C1240 H1298 0.930 . S
C1241 N1237 1.279 . S
C1241 C1239 1.358 . S
C1241 H1299 0.930 . S
C1242 C1245 1.348 1_556 S
C1242 C1246 1.356 1_556 S
C1242 O1293 1.325 . S
C1243 N1244 1.279 . S
C1243 C1246 1.358 . S
C1243 H1300 0.930 . S
N1244 C1243 1.279 . S
N1244 C1247 1.314 . S
C1245 C1242 1.348 1_554 S
C1245 C1247 1.353 . S
C1245 H1301 0.929 1_554 S
C1246 C1242 1.356 1_554 S
C1246 C1243 1.358 . S
C1246 H1302 0.914 1_554 S
C1247 N1244 1.314 . S
C1247 C1245 1.353 . S
C1247 H1303 0.930 . S
C1248 N1249 1.314 . S
C1248 C1253 1.353 . S
C1248 H1254 0.930 . S
N1249 Li1232 1.990 . S
N1249 C1248 1.314 . S
N1249 C1251 1.279 . S
C1250 C1251 1.358 . S
C1250 C1252 1.356 . S
C1250 H1304 0.930 . S
C1251 N1249 1.279 . S
C1251 C1250 1.358 . S
C1251 H1255 0.930 . S
C1252 C1250 1.356 . S
C1252 C1253 1.348 . S
C1253 C1248 1.353 . S
C1253 C1252 1.348 . S
C1253 H1305 0.929 . S
H1254 C1248 0.930 . S
H1255 C1251 0.930 . S
C1256 N1257 1.314 . S
C1256 C1258 1.353 . S
C1256 H1262 0.930 . S
N1257 Li1233 1.990 . S
N1257 C1256 1.314 . S
N1257 C1260 1.279 . S
C1258 C1256 1.353 . S
C1258 C1261 1.348 . S
C1258 H1306 0.929 . S
C1259 C1260 1.358 . S
C1259 C1261 1.356 . S
C1259 H1307 0.930 . S
C1260 N1257 1.279 . S
C1260 C1259 1.358 . S
C1260 H1263 0.930 . S
C1261 C1258 1.348 . S
C1261 C1259 1.356 . S
H1262 C1256 0.930 . S
H1263 C1260 0.930 . S
C1264 C1266 1.348 . S
C1264 C1267 1.356 . S
C1264 O1294 1.325 . S
N1265 C1268 1.314 . S
N1265 C1269 1.279 . S
C1266 C1264 1.348 . S
C1266 C1268 1.353 . S
C1266 H1308 0.929 . S
C1267 C1264 1.356 . S
C1267 C1269 1.358 . S
C1267 H1309 0.930 . S
C1268 N1265 1.314 . S
C1268 C1266 1.353 . S
C1268 H1310 0.930 . S
C1269 N1265 1.279 . S
C1269 C1267 1.358 . S
C1269 H1311 0.930 . S
C1270 C1271 1.348 . S
C1270 C1272 1.356 . S
C1270 O1295 1.325 . S
C1271 C1270 1.348 . S
C1271 C1273 1.353 . S
C1271 H1312 0.929 . S
C1272 C1270 1.356 . S
C1272 C1274 1.358 . S
C1272 H1313 0.930 . S
C1273 C1271 1.353 . S
C1273 N1275 1.314 . S
C1273 H1314 0.930 . S
C1274 C1272 1.358 . S
C1274 N1275 1.279 . S
C1274 H1315 0.930 . S
N1275 C1273 1.314 . S
N1275 C1274 1.279 . S
C1276 C1278 1.353 . S
C1276 N1279 1.314 . S
C1276 H1282 0.930 . S
C1277 N1279 1.279 . S
C1277 C1280 1.358 . S
C1277 H1283 0.930 . S
C1278 C1276 1.353 . S
C1278 C1281 1.348 . S
C1278 H1316 0.929 . S
N1279 Li1234 1.990 . S
N1279 C1276 1.314 . S
N1279 C1277 1.279 . S
C1280 C1277 1.358 . S
C1280 C1281 1.356 . S
C1280 H1317 0.930 . S
C1281 C1278 1.348 . S
C1281 C1280 1.356 . S
H1282 C1276 0.930 . S
H1283 C1277 0.930 . S
C1284 N1285 1.314 . S
C1284 C1286 1.360 . S
C1284 H1290 0.930 . S
N1285 Li1235 1.990 . S
N1285 C1284 1.314 . S
N1285 C1288 1.279 . S
C1286 C1284 1.360 . S
C1286 C1289 1.353 . S
C1286 H1318 0.917 1_556 S
C1287 C1288 1.358 . S
C1287 C1289 1.356 . S
C1287 H1319 0.930 . S
C1288 N1285 1.279 . S
C1288 C1287 1.358 . S
C1288 H1291 0.930 . S
C1289 C1286 1.353 . S
C1289 C1287 1.356 . S
H1290 C1284 0.930 . S
H1291 C1288 0.930 . S
O1292 Li1232 1.956 . S
O1292 Li1233 1.970 . S
O1292 Li1234 1.961 . S
O1292 C1236 1.325 . S
O1293 Li1232 1.970 . S
O1293 Li1233 1.956 . S
O1293 Li1235 1.961 . S
O1293 C1242 1.325 . S
O1294 Li1232 1.961 . S
O1294 Li1234 1.956 . S
O1294 Li1235 1.970 . S
O1294 C1264 1.325 . S
O1295 Li1233 1.961 . S
O1295 Li1234 1.970 . S
O1295 Li1235 1.956 . S
O1295 C1270 1.325 . S
H1296 C1238 0.929 . S
H1297 C1239 0.930 . S
H1298 C1240 0.930 . S
H1299 C1241 0.930 . S
H1300 C1243 0.930 . S
H1301 C1245 0.929 1_556 S
H1302 C1246 0.914 1_556 S
H1303 C1247 0.930 . S
H1304 C1250 0.930 . S
H1305 C1253 0.929 . S
H1306 C1258 0.929 . S
H1307 C1259 0.930 . S
H1308 C1266 0.929 . S
H1309 C1267 0.930 . S
H1310 C1268 0.930 . S
H1311 C1269 0.930 . S
H1312 C1271 0.929 . S
H1313 C1272 0.930 . S
H1314 C1273 0.930 . S
H1315 C1274 0.930 . S
H1316 C1278 0.929 . S
H1317 C1280 0.930 . S
H1318 C1286 0.917 1_554 S
H1319 C1287 0.930 . S
Li1320 N1337 1.990 . S
Li1320 O1380 1.956 . S
Li1320 O1381 1.970 . S
Li1320 O1382 1.961 . S
Li1321 N1345 1.990 . S
Li1321 O1380 1.970 . S
Li1321 O1381 1.956 . S
Li1321 O1383 1.961 . S
Li1322 N1367 1.990 . S
Li1322 O1380 1.961 . S
Li1322 O1382 1.956 . S
Li1322 O1383 1.970 . S
Li1323 N1373 1.990 . S
Li1323 O1381 1.961 . S
Li1323 O1382 1.970 . S
Li1323 O1383 1.956 . S
C1324 C1326 1.348 . S
C1324 C1327 1.356 . S
C1324 O1380 1.325 . S
N1325 C1328 1.314 . S
N1325 C1329 1.279 . S
C1326 C1324 1.348 . S
C1326 C1328 1.353 . S
C1326 H1384 0.929 . S
C1327 C1324 1.356 . S
C1327 C1329 1.358 . S
C1327 H1385 0.930 . S
C1328 N1325 1.314 . S
C1328 C1326 1.353 . S
C1328 H1386 0.930 . S
C1329 N1325 1.279 . S
C1329 C1327 1.358 . S
C1329 H1387 0.930 . S
C1330 C1333 1.348 . S
C1330 C1334 1.356 . S
C1330 O1381 1.325 . S
C1331 N1332 1.279 . S
C1331 C1334 1.358 . S
C1331 H1388 0.930 . S
N1332 C1331 1.279 . S
N1332 C1335 1.314 . S
C1333 C1330 1.348 . S
C1333 C1335 1.353 . S
C1333 H1389 0.929 . S
C1334 C1330 1.356 . S
C1334 C1331 1.358 . S
C1334 H1390 0.930 . S
C1335 N1332 1.314 . S
C1335 C1333 1.353 . S
C1335 H1391 0.930 . S
C1336 N1337 1.314 . S
C1336 C1341 1.353 . S
C1336 H1342 0.930 . S
N1337 Li1320 1.990 . S
N1337 C1336 1.314 . S
N1337 C1339 1.279 . S
C1338 C1339 1.358 . S
C1338 C1340 1.356 . S
C1338 H1392 0.930 . S
C1339 N1337 1.279 . S
C1339 C1338 1.358 . S
C1339 H1343 0.930 . S
C1340 C1338 1.356 . S
C1340 C1341 1.348 . S
C1341 C1336 1.353 . S
C1341 C1340 1.348 . S
C1341 H1393 0.929 . S
H1342 C1336 0.930 . S
H1343 C1339 0.930 . S
C1344 N1345 1.314 . S
C1344 C1346 1.353 . S
C1344 H1350 0.930 . S
N1345 Li1321 1.990 . S
N1345 C1344 1.314 . S
N1345 C1348 1.279 . S
C1346 C1344 1.353 . S
C1346 C1349 1.348 . S
C1346 H1394 0.929 . S
C1347 C1348 1.358 . S
C1347 C1349 1.356 . S
C1347 H1395 0.930 . S
C1348 N1345 1.279 . S
C1348 C1347 1.358 . S
C1348 H1351 0.930 . S
C1349 C1346 1.348 . S
C1349 C1347 1.356 . S
H1350 C1344 0.930 . S
H1351 C1348 0.930 . S
C1352 C1354 1.348 . S
C1352 C1355 1.356 . S
C1352 O1382 1.325 . S
N1353 C1356 1.314 . S
N1353 C1357 1.279 . S
C1354 C1352 1.348 . S
C1354 C1356 1.353 . S
C1354 H1396 0.929 . S
C1355 C1352 1.356 . S
C1355 C1357 1.358 . S
C1355 H1397 0.930 . S
C1356 N1353 1.314 . S
C1356 C1354 1.353 . S
C1356 H1398 0.930 . S
C1357 N1353 1.279 . S
C1357 C1355 1.358 . S
C1357 H1399 0.930 . S
C1358 C1359 1.348 . S
C1358 C1360 1.356 . S
C1358 O1383 1.325 . S
C1359 C1358 1.348 . S
C1359 C1361 1.353 . S
C1359 H1400 0.929 . S
C1360 C1358 1.356 . S
C1360 C1362 1.358 . S
C1360 H1401 0.930 . S
C1361 C1359 1.353 . S
C1361 N1363 1.314 . S
C1361 H1402 0.930 . S
C1362 C1360 1.358 . S
C1362 N1363 1.279 . S
C1362 H1403 0.930 . S
N1363 C1361 1.314 . S
N1363 C1362 1.279 . S
C1364 C1366 1.353 . S
C1364 N1367 1.314 . S
C1364 H1370 0.930 . S
C1365 N1367 1.279 . S
C1365 C1368 1.358 . S
C1365 H1371 0.930 . S
C1366 C1364 1.353 . S
C1366 C1369 1.348 . S
C1366 H1404 0.929 . S
N1367 Li1322 1.990 . S
N1367 C1364 1.314 . S
N1367 C1365 1.279 . S
C1368 C1365 1.358 . S
C1368 C1369 1.356 . S
C1368 H1405 0.930 . S
C1369 C1366 1.348 . S
C1369 C1368 1.356 . S
H1370 C1364 0.930 . S
H1371 C1365 0.930 . S
C1372 N1373 1.314 . S
C1372 C1374 1.353 . S
C1372 H1378 0.930 . S
N1373 Li1323 1.990 . S
N1373 C1372 1.314 . S
N1373 C1376 1.279 . S
C1374 C1372 1.353 . S
C1374 C1377 1.348 . S
C1374 H1406 0.929 . S
C1375 C1376 1.358 . S
C1375 C1377 1.356 . S
C1375 H1407 0.930 . S
C1376 N1373 1.279 . S
C1376 C1375 1.358 . S
C1376 H1379 0.930 . S
C1377 C1374 1.348 . S
C1377 C1375 1.356 . S
H1378 C1372 0.930 . S
H1379 C1376 0.930 . S
O1380 Li1320 1.956 . S
O1380 Li1321 1.970 . S
O1380 Li1322 1.961 . S
O1380 C1324 1.325 . S
O1381 Li1320 1.970 . S
O1381 Li1321 1.956 . S
O1381 Li1323 1.961 . S
O1381 C1330 1.325 . S
O1382 Li1320 1.961 . S
O1382 Li1322 1.956 . S
O1382 Li1323 1.970 . S
O1382 C1352 1.325 . S
O1383 Li1321 1.961 . S
O1383 Li1322 1.970 . S
O1383 Li1323 1.956 . S
O1383 C1358 1.325 . S
H1384 C1326 0.929 . S
H1385 C1327 0.930 . S
H1386 C1328 0.930 . S
H1387 C1329 0.930 . S
H1388 C1331 0.930 . S
H1389 C1333 0.929 . S
H1390 C1334 0.930 . S
H1391 C1335 0.930 . S
H1392 C1338 0.930 . S
H1393 C1341 0.929 . S
H1394 C1346 0.929 . S
H1395 C1347 0.930 . S
H1396 C1354 0.929 . S
H1397 C1355 0.930 . S
H1398 C1356 0.930 . S
H1399 C1357 0.930 . S
H1400 C1359 0.929 . S
H1401 C1360 0.930 . S
H1402 C1361 0.930 . S
H1403 C1362 0.930 . S
H1404 C1366 0.929 . S
H1405 C1368 0.930 . S
H1406 C1374 0.929 . S
H1407 C1375 0.930 . S
Li1408 N1425 1.990 . S
Li1408 O1468 1.956 . S
Li1408 O1469 1.970 . S
Li1408 O1470 1.961 . S
Li1409 N1433 1.990 . S
Li1409 O1468 1.970 . S
Li1409 O1469 1.956 . S
Li1409 O1471 1.961 . S
Li1410 N1455 1.990 . S
Li1410 O1468 1.961 . S
Li1410 O1470 1.956 . S
Li1410 O1471 1.970 . S
Li1411 N1461 1.990 . S
Li1411 O1469 1.961 . S
Li1411 O1470 1.970 . S
Li1411 O1471 1.956 . S
C1412 C1414 1.348 . S
C1412 C1415 1.356 . S
C1412 O1468 1.325 . S
N1413 C1416 1.314 . S
N1413 C1417 1.279 . S
C1414 C1412 1.348 . S
C1414 C1416 1.353 . S
C1414 H1472 0.929 . S
C1415 C1412 1.356 . S
C1415 C1417 1.358 . S
C1415 H1473 0.930 . S
C1416 N1413 1.314 . S
C1416 C1414 1.353 . S
C1416 H1474 0.930 . S
C1417 N1413 1.279 . S
C1417 C1415 1.358 . S
C1417 H1475 0.930 . S
C1418 C1421 1.348 1_556 S
C1418 C1422 1.356 1_556 S
C1418 O1469 1.325 . S
C1419 N1420 1.279 . S
C1419 C1422 1.358 . S
C1419 H1476 0.930 . S
N1420 C1419 1.279 . S
N1420 C1423 1.314 . S
C1421 C1418 1.348 1_554 S
C1421 C1423 1.353 . S
C1421 H1477 0.929 1_554 S
C1422 C1418 1.356 1_554 S
C1422 C1419 1.358 . S
C1422 H1478 0.914 1_554 S
C1423 N1420 1.314 . S
C1423 C1421 1.353 . S
C1423 H1479 0.930 . S
C1424 N1425 1.314 . S
C1424 C1429 1.353 . S
C1424 H1430 0.930 . S
N1425 Li1408 1.990 . S
N1425 C1424 1.314 . S
N1425 C1427 1.279 . S
C1426 C1427 1.358 . S
C1426 C1428 1.356 . S
C1426 H1480 0.930 . S
C1427 N1425 1.279 . S
C1427 C1426 1.358 . S
C1427 H1431 0.930 . S
C1428 C1426 1.356 . S
C1428 C1429 1.348 . S
C1429 C1424 1.353 . S
C1429 C1428 1.348 . S
C1429 H1481 0.929 . S
H1430 C1424 0.930 . S
H1431 C1427 0.930 . S
C1432 N1433 1.314 . S
C1432 C1434 1.353 . S
C1432 H1438 0.930 . S
N1433 Li1409 1.990 . S
N1433 C1432 1.314 . S
N1433 C1436 1.279 . S
C1434 C1432 1.353 . S
C1434 C1437 1.348 . S
C1434 H1482 0.929 . S
C1435 C1436 1.358 . S
C1435 C1437 1.356 . S
C1435 H1483 0.930 . S
C1436 N1433 1.279 . S
C1436 C1435 1.358 . S
C1436 H1439 0.930 . S
C1437 C1434 1.348 . S
C1437 C1435 1.356 . S
H1438 C1432 0.930 . S
H1439 C1436 0.930 . S
C1440 C1442 1.348 . S
C1440 C1443 1.356 . S
C1440 O1470 1.325 . S
N1441 C1444 1.314 . S
N1441 C1445 1.279 . S
C1442 C1440 1.348 . S
C1442 C1444 1.353 . S
C1442 H1484 0.929 . S
C1443 C1440 1.356 . S
C1443 C1445 1.358 . S
C1443 H1485 0.930 . S
C1444 N1441 1.314 . S
C1444 C1442 1.353 . S
C1444 H1486 0.930 . S
C1445 N1441 1.279 . S
C1445 C1443 1.358 . S
C1445 H1487 0.930 . S
C1446 C1447 1.348 . S
C1446 C1448 1.356 . S
C1446 O1471 1.325 . S
C1447 C1446 1.348 . S
C1447 C1449 1.353 . S
C1447 H1488 0.929 . S
C1448 C1446 1.356 . S
C1448 C1450 1.358 . S
C1448 H1489 0.930 . S
C1449 C1447 1.353 . S
C1449 N1451 1.314 . S
C1449 H1490 0.930 . S
C1450 C1448 1.358 . S
C1450 N1451 1.279 . S
C1450 H1491 0.930 . S
N1451 C1449 1.314 . S
N1451 C1450 1.279 . S
C1452 C1454 1.353 . S
C1452 N1455 1.314 . S
C1452 H1458 0.930 . S
C1453 N1455 1.279 . S
C1453 C1456 1.358 . S
C1453 H1459 0.930 . S
C1454 C1452 1.353 . S
C1454 C1457 1.348 . S
C1454 H1492 0.929 . S
N1455 Li1410 1.990 . S
N1455 C1452 1.314 . S
N1455 C1453 1.279 . S
C1456 C1453 1.358 . S
C1456 C1457 1.356 . S
C1456 H1493 0.930 . S
C1457 C1454 1.348 . S
C1457 C1456 1.356 . S
H1458 C1452 0.930 . S
H1459 C1453 0.930 . S
C1460 N1461 1.314 . S
C1460 C1462 1.359 . S
C1460 H1466 0.930 . S
N1461 Li1411 1.990 . S
N1461 C1460 1.314 . S
N1461 C1464 1.279 . S
C1462 C1460 1.359 . S
C1462 C1465 1.352 . S
C1462 H1494 0.919 1_556 S
C1463 C1464 1.358 . S
C1463 C1465 1.356 . S
C1463 H1495 0.930 . S
C1464 N1461 1.279 . S
C1464 C1463 1.358 . S
C1464 H1467 0.930 . S
C1465 C1462 1.352 . S
C1465 C1463 1.356 . S
H1466 C1460 0.930 . S
H1467 C1464 0.930 . S
O1468 Li1408 1.956 . S
O1468 Li1409 1.970 . S
O1468 Li1410 1.961 . S
O1468 C1412 1.325 . S
O1469 Li1408 1.970 . S
O1469 Li1409 1.956 . S
O1469 Li1411 1.961 . S
O1469 C1418 1.325 . S
O1470 Li1408 1.961 . S
O1470 Li1410 1.956 . S
O1470 Li1411 1.970 . S
O1470 C1440 1.325 . S
O1471 Li1409 1.961 . S
O1471 Li1410 1.970 . S
O1471 Li1411 1.956 . S
O1471 C1446 1.325 . S
H1472 C1414 0.929 . S
H1473 C1415 0.930 . S
H1474 C1416 0.930 . S
H1475 C1417 0.930 . S
H1476 C1419 0.930 . S
H1477 C1421 0.929 1_556 S
H1478 C1422 0.914 1_556 S
H1479 C1423 0.930 . S
H1480 C1426 0.930 . S
H1481 C1429 0.929 . S
H1482 C1434 0.929 . S
H1483 C1435 0.930 . S
H1484 C1442 0.929 . S
H1485 C1443 0.930 . S
H1486 C1444 0.930 . S
H1487 C1445 0.930 . S
H1488 C1447 0.929 . S
H1489 C1448 0.930 . S
H1490 C1449 0.930 . S
H1491 C1450 0.930 . S
H1492 C1454 0.929 . S
H1493 C1456 0.930 . S
H1494 C1462 0.919 1_554 S
H1495 C1463 0.930 . S
Li1496 N1513 1.990 . S
Li1496 O1556 1.956 . S
Li1496 O1557 1.970 . S
Li1496 O1558 1.961 . S
Li1497 N1521 1.990 . S
Li1497 O1556 1.970 . S
Li1497 O1557 1.956 . S
Li1497 O1559 1.961 . S
Li1498 N1543 1.990 . S
Li1498 O1556 1.961 . S
Li1498 O1558 1.956 . S
Li1498 O1559 1.970 . S
Li1499 N1549 1.990 . S
Li1499 O1557 1.961 . S
Li1499 O1558 1.970 . S
Li1499 O1559 1.956 . S
C1500 C1502 1.348 . S
C1500 C1503 1.356 . S
C1500 O1556 1.325 . S
N1501 C1504 1.314 . S
N1501 C1505 1.279 . S
C1502 C1500 1.348 . S
C1502 C1504 1.353 . S
C1502 H1560 0.929 . S
C1503 C1500 1.356 . S
C1503 C1505 1.358 . S
C1503 H1561 0.930 . S
C1504 N1501 1.314 . S
C1504 C1502 1.353 . S
C1504 H1562 0.930 . S
C1505 N1501 1.279 . S
C1505 C1503 1.358 . S
C1505 H1563 0.930 . S
C1506 C1509 1.348 . S
C1506 C1510 1.356 . S
C1506 O1557 1.325 . S
C1507 N1508 1.279 . S
C1507 C1510 1.358 . S
C1507 H1564 0.930 . S
N1508 C1507 1.279 . S
N1508 C1511 1.314 . S
C1509 C1506 1.348 . S
C1509 C1511 1.353 . S
C1509 H1565 0.929 . S
C1510 C1506 1.356 . S
C1510 C1507 1.358 . S
C1510 H1566 0.930 . S
C1511 N1508 1.314 . S
C1511 C1509 1.353 . S
C1511 H1567 0.930 . S
C1512 N1513 1.314 . S
C1512 C1517 1.353 . S
C1512 H1518 0.930 . S
N1513 Li1496 1.990 . S
N1513 C1512 1.314 . S
N1513 C1515 1.279 . S
C1514 C1515 1.358 . S
C1514 C1516 1.356 . S
C1514 H1568 0.930 . S
C1515 N1513 1.279 . S
C1515 C1514 1.358 . S
C1515 H1519 0.930 . S
C1516 C1514 1.356 . S
C1516 C1517 1.348 . S
C1517 C1512 1.353 . S
C1517 C1516 1.348 . S
C1517 H1569 0.929 . S
H1518 C1512 0.930 . S
H1519 C1515 0.930 . S
C1520 N1521 1.314 . S
C1520 C1522 1.353 . S
C1520 H1526 0.930 . S
N1521 Li1497 1.990 . S
N1521 C1520 1.314 . S
N1521 C1524 1.279 . S
C1522 C1520 1.353 . S
C1522 C1525 1.348 . S
C1522 H1570 0.929 . S
C1523 C1524 1.358 . S
C1523 C1525 1.356 . S
C1523 H1571 0.930 . S
C1524 N1521 1.279 . S
C1524 C1523 1.358 . S
C1524 H1527 0.930 . S
C1525 C1522 1.348 . S
C1525 C1523 1.356 . S
H1526 C1520 0.930 . S
H1527 C1524 0.930 . S
C1528 C1530 1.348 . S
C1528 C1531 1.356 . S
C1528 O1558 1.325 . S
N1529 C1532 1.314 . S
N1529 C1533 1.279 . S
C1530 C1528 1.348 . S
C1530 C1532 1.353 . S
C1530 H1572 0.929 . S
C1531 C1528 1.356 . S
C1531 C1533 1.358 . S
C1531 H1573 0.930 . S
C1532 N1529 1.314 . S
C1532 C1530 1.353 . S
C1532 H1574 0.930 . S
C1533 N1529 1.279 . S
C1533 C1531 1.358 . S
C1533 H1575 0.930 . S
C1534 C1535 1.348 . S
C1534 C1536 1.356 . S
C1534 O1559 1.325 . S
C1535 C1534 1.348 . S
C1535 C1537 1.353 . S
C1535 H1576 0.929 . S
C1536 C1534 1.356 . S
C1536 C1538 1.358 . S
C1536 H1577 0.930 . S
C1537 C1535 1.353 . S
C1537 N1539 1.314 . S
C1537 H1578 0.930 . S
C1538 C1536 1.358 . S
C1538 N1539 1.279 . S
C1538 H1579 0.930 . S
N1539 C1537 1.314 . S
N1539 C1538 1.279 . S
C1540 C1542 1.353 . S
C1540 N1543 1.314 . S
C1540 H1546 0.930 . S
C1541 N1543 1.279 . S
C1541 C1544 1.358 . S
C1541 H1547 0.930 . S
C1542 C1540 1.353 . S
C1542 C1545 1.348 . S
C1542 H1580 0.929 . S
N1543 Li1498 1.990 . S
N1543 C1540 1.314 . S
N1543 C1541 1.279 . S
C1544 C1541 1.358 . S
C1544 C1545 1.356 . S
C1544 H1581 0.930 . S
C1545 C1542 1.348 . S
C1545 C1544 1.356 . S
H1546 C1540 0.930 . S
H1547 C1541 0.930 . S
C1548 N1549 1.314 . S
C1548 C1550 1.353 . S
C1548 H1554 0.930 . S
N1549 Li1499 1.990 . S
N1549 C1548 1.314 . S
N1549 C1552 1.279 . S
C1550 C1548 1.353 . S
C1550 C1553 1.348 . S
C1550 H1582 0.929 . S
C1551 C1552 1.358 . S
C1551 C1553 1.356 . S
C1551 H1583 0.930 . S
C1552 N1549 1.279 . S
C1552 C1551 1.358 . S
C1552 H1555 0.930 . S
C1553 C1550 1.348 . S
C1553 C1551 1.356 . S
H1554 C1548 0.930 . S
H1555 C1552 0.930 . S
O1556 Li1496 1.956 . S
O1556 Li1497 1.970 . S
O1556 Li1498 1.961 . S
O1556 C1500 1.325 . S
O1557 Li1496 1.970 . S
O1557 Li1497 1.956 . S
O1557 Li1499 1.961 . S
O1557 C1506 1.325 . S
O1558 Li1496 1.961 . S
O1558 Li1498 1.956 . S
O1558 Li1499 1.970 . S
O1558 C1528 1.325 . S
O1559 Li1497 1.961 . S
O1559 Li1498 1.970 . S
O1559 Li1499 1.956 . S
O1559 C1534 1.325 . S
H1560 C1502 0.929 . S
H1561 C1503 0.930 . S
H1562 C1504 0.930 . S
H1563 C1505 0.930 . S
H1564 C1507 0.930 . S
H1565 C1509 0.929 . S
H1566 C1510 0.930 . S
H1567 C1511 0.930 . S
H1568 C1514 0.930 . S
H1569 C1517 0.929 . S
H1570 C1522 0.929 . S
H1571 C1523 0.930 . S
H1572 C1530 0.929 . S
H1573 C1531 0.930 . S
H1574 C1532 0.930 . S
H1575 C1533 0.930 . S
H1576 C1535 0.929 . S
H1577 C1536 0.930 . S
H1578 C1537 0.930 . S
H1579 C1538 0.930 . S
H1580 C1542 0.929 . S
H1581 C1544 0.930 . S
H1582 C1550 0.929 . S
H1583 C1551 0.930 . S
Li1584 N1601 1.990 . S
Li1584 O1644 1.956 . S
Li1584 O1645 1.970 . S
Li1584 O1646 1.961 . S
Li1585 N1609 1.990 . S
Li1585 O1644 1.970 . S
Li1585 O1645 1.956 . S
Li1585 O1647 1.961 . S
Li1586 N1631 1.990 . S
Li1586 O1644 1.961 . S
Li1586 O1646 1.956 . S
Li1586 O1647 1.970 . S
Li1587 N1637 1.990 . S
Li1587 O1645 1.961 . S
Li1587 O1646 1.970 . S
Li1587 O1647 1.956 . S
C1588 C1590 1.348 1_554 S
C1588 C1591 1.356 1_554 S
C1588 O1644 1.325 . S
N1589 C1592 1.314 . S
N1589 C1593 1.279 . S
C1590 C1588 1.348 1_556 S
C1590 C1592 1.353 . S
C1590 H1648 0.929 1_556 S
C1591 C1588 1.356 1_556 S
C1591 C1593 1.358 . S
C1591 H1649 0.914 1_556 S
C1592 N1589 1.314 . S
C1592 C1590 1.353 . S
C1592 H1650 0.930 . S
C1593 N1589 1.279 . S
C1593 C1591 1.358 . S
C1593 H1651 0.930 . S
C1594 C1597 1.348 . S
C1594 C1598 1.356 . S
C1594 O1645 1.325 . S
C1595 N1596 1.279 . S
C1595 C1598 1.358 . S
C1595 H1652 0.930 . S
N1596 C1595 1.279 . S
N1596 C1599 1.314 . S
C1597 C1594 1.348 . S
C1597 C1599 1.353 . S
C1597 H1653 0.929 . S
C1598 C1594 1.356 . S
C1598 C1595 1.358 . S
C1598 H1654 0.930 . S
C1599 N1596 1.314 . S
C1599 C1597 1.353 . S
C1599 H1655 0.930 . S
C1600 N1601 1.314 . S
C1600 C1605 1.353 . S
C1600 H1606 0.930 . S
N1601 Li1584 1.990 . S
N1601 C1600 1.314 . S
N1601 C1603 1.279 . S
C1602 C1603 1.358 . S
C1602 C1604 1.356 . S
C1602 H1656 0.930 . S
C1603 N1601 1.279 . S
C1603 C1602 1.358 . S
C1603 H1607 0.930 . S
C1604 C1602 1.356 . S
C1604 C1605 1.348 . S
C1605 C1600 1.353 . S
C1605 C1604 1.348 . S
C1605 H1657 0.929 . S
H1606 C1600 0.930 . S
H1607 C1603 0.930 . S
C1608 N1609 1.314 . S
C1608 C1610 1.353 . S
C1608 H1614 0.930 . S
N1609 Li1585 1.990 . S
N1609 C1608 1.314 . S
N1609 C1612 1.279 . S
C1610 C1608 1.353 . S
C1610 C1613 1.348 . S
C1610 H1658 0.929 . S
C1611 C1612 1.358 . S
C1611 C1613 1.356 . S
C1611 H1659 0.930 . S
C1612 N1609 1.279 . S
C1612 C1611 1.358 . S
C1612 H1615 0.930 . S
C1613 C1610 1.348 . S
C1613 C1611 1.356 . S
H1614 C1608 0.930 . S
H1615 C1612 0.930 . S
C1616 C1618 1.348 . S
C1616 C1619 1.356 . S
C1616 O1646 1.325 . S
N1617 C1620 1.314 . S
N1617 C1621 1.279 . S
C1618 C1616 1.348 . S
C1618 C1620 1.353 . S
C1618 H1660 0.929 . S
C1619 C1616 1.356 . S
C1619 C1621 1.358 . S
C1619 H1661 0.930 . S
C1620 N1617 1.314 . S
C1620 C1618 1.353 . S
C1620 H1662 0.930 . S
C1621 N1617 1.279 . S
C1621 C1619 1.358 . S
C1621 H1663 0.930 . S
C1622 C1623 1.348 . S
C1622 C1624 1.356 . S
C1622 O1647 1.325 . S
C1623 C1622 1.348 . S
C1623 C1625 1.353 . S
C1623 H1664 0.929 . S
C1624 C1622 1.356 . S
C1624 C1626 1.358 . S
C1624 H1665 0.930 . S
C1625 C1623 1.353 . S
C1625 N1627 1.314 . S
C1625 H1666 0.930 . S
C1626 C1624 1.358 . S
C1626 N1627 1.279 . S
C1626 H1667 0.930 . S
N1627 C1625 1.314 . S
N1627 C1626 1.279 . S
C1628 C1630 1.360 . S
C1628 N1631 1.314 . S
C1628 H1634 0.930 . S
C1629 N1631 1.279 . S
C1629 C1632 1.358 . S
C1629 H1635 0.930 . S
C1630 C1628 1.360 . S
C1630 C1633 1.353 . S
C1630 H1668 0.918 1_554 S
N1631 Li1586 1.990 . S
N1631 C1628 1.314 . S
N1631 C1629 1.279 . S
C1632 C1629 1.358 . S
C1632 C1633 1.356 . S
C1632 H1669 0.930 . S
C1633 C1630 1.353 . S
C1633 C1632 1.356 . S
H1634 C1628 0.930 . S
H1635 C1629 0.930 . S
C1636 N1637 1.314 . S
C1636 C1638 1.353 . S
C1636 H1642 0.930 . S
N1637 Li1587 1.990 . S
N1637 C1636 1.314 . S
N1637 C1640 1.279 . S
C1638 C1636 1.353 . S
C1638 C1641 1.348 . S
C1638 H1670 0.929 . S
C1639 C1640 1.358 . S
C1639 C1641 1.356 . S
C1639 H1671 0.930 . S
C1640 N1637 1.279 . S
C1640 C1639 1.358 . S
C1640 H1643 0.930 . S
C1641 C1638 1.348 . S
C1641 C1639 1.356 . S
H1642 C1636 0.930 . S
H1643 C1640 0.930 . S
O1644 Li1584 1.956 . S
O1644 Li1585 1.970 . S
O1644 Li1586 1.961 . S
O1644 C1588 1.325 . S
O1645 Li1584 1.970 . S
O1645 Li1585 1.956 . S
O1645 Li1587 1.961 . S
O1645 C1594 1.325 . S
O1646 Li1584 1.961 . S
O1646 Li1586 1.956 . S
O1646 Li1587 1.970 . S
O1646 C1616 1.325 . S
O1647 Li1585 1.961 . S
O1647 Li1586 1.970 . S
O1647 Li1587 1.956 . S
O1647 C1622 1.325 . S
H1648 C1590 0.929 1_554 S
H1649 C1591 0.914 1_554 S
H1650 C1592 0.930 . S
H1651 C1593 0.930 . S
H1652 C1595 0.930 . S
H1653 C1597 0.929 . S
H1654 C1598 0.930 . S
H1655 C1599 0.930 . S
H1656 C1602 0.930 . S
H1657 C1605 0.929 . S
H1658 C1610 0.929 . S
H1659 C1611 0.930 . S
H1660 C1618 0.929 . S
H1661 C1619 0.930 . S
H1662 C1620 0.930 . S
H1663 C1621 0.930 . S
H1664 C1623 0.929 . S
H1665 C1624 0.930 . S
H1666 C1625 0.930 . S
H1667 C1626 0.930 . S
H1668 C1630 0.918 1_556 S
H1669 C1632 0.930 . S
H1670 C1638 0.929 . S
H1671 C1639 0.930 . S
Li1672 N1689 1.990 . S
Li1672 O1732 1.956 . S
Li1672 O1733 1.970 . S
Li1672 O1734 1.961 . S
Li1673 N1697 1.990 . S
Li1673 O1732 1.970 . S
Li1673 O1733 1.956 . S
Li1673 O1735 1.961 . S
Li1674 N1719 1.990 . S
Li1674 O1732 1.961 . S
Li1674 O1734 1.956 . S
Li1674 O1735 1.970 . S
Li1675 N1725 1.990 . S
Li1675 O1733 1.961 . S
Li1675 O1734 1.970 . S
Li1675 O1735 1.956 . S
C1676 C1678 1.348 . S
C1676 C1679 1.356 . S
C1676 O1732 1.325 . S
N1677 C1680 1.314 . S
N1677 C1681 1.279 . S
C1678 C1676 1.348 . S
C1678 C1680 1.353 . S
C1678 H1736 0.929 . S
C1679 C1676 1.356 . S
C1679 C1681 1.358 . S
C1679 H1737 0.930 . S
C1680 N1677 1.314 . S
C1680 C1678 1.353 . S
C1680 H1738 0.930 . S
C1681 N1677 1.279 . S
C1681 C1679 1.358 . S
C1681 H1739 0.930 . S
C1682 C1685 1.348 . S
C1682 C1686 1.356 . S
C1682 O1733 1.325 . S
C1683 N1684 1.279 . S
C1683 C1686 1.358 . S
C1683 H1740 0.930 . S
N1684 C1683 1.279 . S
N1684 C1687 1.314 . S
C1685 C1682 1.348 . S
C1685 C1687 1.353 . S
C1685 H1741 0.929 . S
C1686 C1682 1.356 . S
C1686 C1683 1.358 . S
C1686 H1742 0.930 . S
C1687 N1684 1.314 . S
C1687 C1685 1.353 . S
C1687 H1743 0.930 . S
C1688 N1689 1.314 . S
C1688 C1693 1.353 . S
C1688 H1694 0.930 . S
N1689 Li1672 1.990 . S
N1689 C1688 1.314 . S
N1689 C1691 1.279 . S
C1690 C1691 1.358 . S
C1690 C1692 1.356 . S
C1690 H1744 0.930 . S
C1691 N1689 1.279 . S
C1691 C1690 1.358 . S
C1691 H1695 0.930 . S
C1692 C1690 1.356 . S
C1692 C1693 1.348 . S
C1693 C1688 1.353 . S
C1693 C1692 1.348 . S
C1693 H1745 0.929 . S
H1694 C1688 0.930 . S
H1695 C1691 0.930 . S
C1696 N1697 1.314 . S
C1696 C1698 1.353 . S
C1696 H1702 0.930 . S
N1697 Li1673 1.990 . S
N1697 C1696 1.314 . S
N1697 C1700 1.279 . S
C1698 C1696 1.353 . S
C1698 C1701 1.348 . S
C1698 H1746 0.929 . S
C1699 C1700 1.358 . S
C1699 C1701 1.356 . S
C1699 H1747 0.930 . S
C1700 N1697 1.279 . S
C1700 C1699 1.358 . S
C1700 H1703 0.930 . S
C1701 C1698 1.348 . S
C1701 C1699 1.356 . S
H1702 C1696 0.930 . S
H1703 C1700 0.930 . S
C1704 C1706 1.348 . S
C1704 C1707 1.356 . S
C1704 O1734 1.325 . S
N1705 C1708 1.314 . S
N1705 C1709 1.279 . S
C1706 C1704 1.348 . S
C1706 C1708 1.353 . S
C1706 H1748 0.929 . S
C1707 C1704 1.356 . S
C1707 C1709 1.358 . S
C1707 H1749 0.930 . S
C1708 N1705 1.314 . S
C1708 C1706 1.353 . S
C1708 H1750 0.930 . S
C1709 N1705 1.279 . S
C1709 C1707 1.358 . S
C1709 H1751 0.930 . S
C1710 C1711 1.348 . S
C1710 C1712 1.356 . S
C1710 O1735 1.325 . S
C1711 C1710 1.348 . S
C1711 C1713 1.353 . S
C1711 H1752 0.929 . S
C1712 C1710 1.356 . S
C1712 C1714 1.358 . S
C1712 H1753 0.930 . S
C1713 C1711 1.353 . S
C1713 N1715 1.314 . S
C1713 H1754 0.930 . S
C1714 C1712 1.358 . S
C1714 N1715 1.279 . S
C1714 H1755 0.930 . S
N1715 C1713 1.314 . S
N1715 C1714 1.279 . S
C1716 C1718 1.353 . S
C1716 N1719 1.314 . S
C1716 H1722 0.930 . S
C1717 N1719 1.279 . S
C1717 C1720 1.358 . S
C1717 H1723 0.930 . S
C1718 C1716 1.353 . S
C1718 C1721 1.348 . S
C1718 H1756 0.929 . S
N1719 Li1674 1.990 . S
N1719 C1716 1.314 . S
N1719 C1717 1.279 . S
C1720 C1717 1.358 . S
C1720 C1721 1.356 . S
C1720 H1757 0.930 . S
C1721 C1718 1.348 . S
C1721 C1720 1.356 . S
H1722 C1716 0.930 . S
H1723 C1717 0.930 . S
C1724 N1725 1.314 . S
C1724 C1726 1.353 . S
C1724 H1730 0.930 . S
N1725 Li1675 1.990 . S
N1725 C1724 1.314 . S
N1725 C1728 1.279 . S
C1726 C1724 1.353 . S
C1726 C1729 1.348 . S
C1726 H1758 0.929 . S
C1727 C1728 1.358 . S
C1727 C1729 1.356 . S
C1727 H1759 0.930 . S
C1728 N1725 1.279 . S
C1728 C1727 1.358 . S
C1728 H1731 0.930 . S
C1729 C1726 1.348 . S
C1729 C1727 1.356 . S
H1730 C1724 0.930 . S
H1731 C1728 0.930 . S
O1732 Li1672 1.956 . S
O1732 Li1673 1.970 . S
O1732 Li1674 1.961 . S
O1732 C1676 1.325 . S
O1733 Li1672 1.970 . S
O1733 Li1673 1.956 . S
O1733 Li1675 1.961 . S
O1733 C1682 1.325 . S
O1734 Li1672 1.961 . S
O1734 Li1674 1.956 . S
O1734 Li1675 1.970 . S
O1734 C1704 1.325 . S
O1735 Li1673 1.961 . S
O1735 Li1674 1.970 . S
O1735 Li1675 1.956 . S
O1735 C1710 1.325 . S
H1736 C1678 0.929 . S
H1737 C1679 0.930 . S
H1738 C1680 0.930 . S
H1739 C1681 0.930 . S
H1740 C1683 0.930 . S
H1741 C1685 0.929 . S
H1742 C1686 0.930 . S
H1743 C1687 0.930 . S
H1744 C1690 0.930 . S
H1745 C1693 0.929 . S
H1746 C1698 0.929 . S
H1747 C1699 0.930 . S
H1748 C1706 0.929 . S
H1749 C1707 0.930 . S
H1750 C1708 0.930 . S
H1751 C1709 0.930 . S
H1752 C1711 0.929 . S
H1753 C1712 0.930 . S
H1754 C1713 0.930 . S
H1755 C1714 0.930 . S
H1756 C1718 0.929 . S
H1757 C1720 0.930 . S
H1758 C1726 0.929 . S
H1759 C1727 0.930 . S
Li1760 N1777 1.990 . S
Li1760 O1820 1.956 . S
Li1760 O1821 1.970 . S
Li1760 O1822 1.961 . S
Li1761 N1785 1.990 . S
Li1761 O1820 1.970 . S
Li1761 O1821 1.956 . S
Li1761 O1823 1.961 . S
Li1762 N1807 1.990 . S
Li1762 O1820 1.961 . S
Li1762 O1822 1.956 . S
Li1762 O1823 1.970 . S
Li1763 N1813 1.990 . S
Li1763 O1821 1.961 . S
Li1763 O1822 1.970 . S
Li1763 O1823 1.956 . S
C1764 C1766 1.348 . S
C1764 C1767 1.356 . S
C1764 O1820 1.325 . S
N1765 C1768 1.314 . S
N1765 C1769 1.279 . S
C1766 C1764 1.348 . S
C1766 C1768 1.353 . S
C1766 H1824 0.929 . S
C1767 C1764 1.356 . S
C1767 C1769 1.358 . S
C1767 H1825 0.930 . S
C1768 N1765 1.314 . S
C1768 C1766 1.353 . S
C1768 H1826 0.930 . S
C1769 N1765 1.279 . S
C1769 C1767 1.358 . S
C1769 H1827 0.930 . S
C1770 C1773 1.348 . S
C1770 C1774 1.356 . S
C1770 O1821 1.325 . S
C1771 N1772 1.279 . S
C1771 C1774 1.358 . S
C1771 H1828 0.930 . S
N1772 C1771 1.279 . S
N1772 C1775 1.314 . S
C1773 C1770 1.348 . S
C1773 C1775 1.353 . S
C1773 H1829 0.929 . S
C1774 C1770 1.356 . S
C1774 C1771 1.358 . S
C1774 H1830 0.930 . S
C1775 N1772 1.314 . S
C1775 C1773 1.353 . S
C1775 H1831 0.930 . S
C1776 N1777 1.314 . S
C1776 C1781 1.359 . S
C1776 H1782 0.930 . S
N1777 Li1760 1.990 . S
N1777 C1776 1.314 . S
N1777 C1779 1.279 . S
C1778 C1779 1.358 . S
C1778 C1780 1.356 . S
C1778 H1832 0.930 . S
C1779 N1777 1.279 . S
C1779 C1778 1.358 . S
C1779 H1783 0.930 . S
C1780 C1778 1.356 . S
C1780 C1781 1.352 . S
C1781 C1776 1.359 . S
C1781 C1780 1.352 . S
C1781 H1833 0.919 1_554 S
H1782 C1776 0.930 . S
H1783 C1779 0.930 . S
C1784 N1785 1.314 . S
C1784 C1786 1.353 . S
C1784 H1790 0.930 . S
N1785 Li1761 1.990 . S
N1785 C1784 1.314 . S
N1785 C1788 1.279 . S
C1786 C1784 1.353 . S
C1786 C1789 1.348 . S
C1786 H1834 0.929 . S
C1787 C1788 1.358 . S
C1787 C1789 1.356 . S
C1787 H1835 0.930 . S
C1788 N1785 1.279 . S
C1788 C1787 1.358 . S
C1788 H1791 0.930 . S
C1789 C1786 1.348 . S
C1789 C1787 1.356 . S
H1790 C1784 0.930 . S
H1791 C1788 0.930 . S
C1792 C1794 1.348 1_554 S
C1792 C1795 1.356 1_554 S
C1792 O1822 1.325 . S
N1793 C1796 1.314 . S
N1793 C1797 1.279 . S
C1794 C1792 1.348 1_556 S
C1794 C1796 1.353 . S
C1794 H1836 0.929 1_556 S
C1795 C1792 1.356 1_556 S
C1795 C1797 1.358 . S
C1795 H1837 0.914 1_556 S
C1796 N1793 1.314 . S
C1796 C1794 1.353 . S
C1796 H1838 0.930 . S
C1797 N1793 1.279 . S
C1797 C1795 1.358 . S
C1797 H1839 0.930 . S
C1798 C1799 1.348 . S
C1798 C1800 1.356 . S
C1798 O1823 1.325 . S
C1799 C1798 1.348 . S
C1799 C1801 1.353 . S
C1799 H1840 0.929 . S
C1800 C1798 1.356 . S
C1800 C1802 1.358 . S
C1800 H1841 0.930 . S
C1801 C1799 1.353 . S
C1801 N1803 1.314 . S
C1801 H1842 0.930 . S
C1802 C1800 1.358 . S
C1802 N1803 1.279 . S
C1802 H1843 0.930 . S
N1803 C1801 1.314 . S
N1803 C1802 1.279 . S
C1804 C1806 1.353 . S
C1804 N1807 1.314 . S
C1804 H1810 0.930 . S
C1805 N1807 1.279 . S
C1805 C1808 1.358 . S
C1805 H1811 0.930 . S
C1806 C1804 1.353 . S
C1806 C1809 1.348 . S
C1806 H1844 0.929 . S
N1807 Li1762 1.990 . S
N1807 C1804 1.314 . S
N1807 C1805 1.279 . S
C1808 C1805 1.358 . S
C1808 C1809 1.356 . S
C1808 H1845 0.930 . S
C1809 C1806 1.348 . S
C1809 C1808 1.356 . S
H1810 C1804 0.930 . S
H1811 C1805 0.930 . S
C1812 N1813 1.314 . S
C1812 C1814 1.353 . S
C1812 H1818 0.930 . S
N1813 Li1763 1.990 . S
N1813 C1812 1.314 . S
N1813 C1816 1.279 . S
C1814 C1812 1.353 . S
C1814 C1817 1.348 . S
C1814 H1846 0.929 . S
C1815 C1816 1.358 . S
C1815 C1817 1.356 . S
C1815 H1847 0.930 . S
C1816 N1813 1.279 . S
C1816 C1815 1.358 . S
C1816 H1819 0.930 . S
C1817 C1814 1.348 . S
C1817 C1815 1.356 . S
H1818 C1812 0.930 . S
H1819 C1816 0.930 . S
O1820 Li1760 1.956 . S
O1820 Li1761 1.970 . S
O1820 Li1762 1.961 . S
O1820 C1764 1.325 . S
O1821 Li1760 1.970 . S
O1821 Li1761 1.956 . S
O1821 Li1763 1.961 . S
O1821 C1770 1.325 . S
O1822 Li1760 1.961 . S
O1822 Li1762 1.956 . S
O1822 Li1763 1.970 . S
O1822 C1792 1.325 . S
O1823 Li1761 1.961 . S
O1823 Li1762 1.970 . S
O1823 Li1763 1.956 . S
O1823 C1798 1.325 . S
H1824 C1766 0.929 . S
H1825 C1767 0.930 . S
H1826 C1768 0.930 . S
H1827 C1769 0.930 . S
H1828 C1771 0.930 . S
H1829 C1773 0.929 . S
H1830 C1774 0.930 . S
H1831 C1775 0.930 . S
H1832 C1778 0.930 . S
H1833 C1781 0.919 1_556 S
H1834 C1786 0.929 . S
H1835 C1787 0.930 . S
H1836 C1794 0.929 1_554 S
H1837 C1795 0.914 1_554 S
H1838 C1796 0.930 . S
H1839 C1797 0.930 . S
H1840 C1799 0.929 . S
H1841 C1800 0.930 . S
H1842 C1801 0.930 . S
H1843 C1802 0.930 . S
H1844 C1806 0.929 . S
H1845 C1808 0.930 . S
H1846 C1814 0.929 . S
H1847 C1815 0.930 . S
Li1848 N1865 1.990 . S
Li1848 O1908 1.956 . S
Li1848 O1909 1.970 . S
Li1848 O1910 1.961 . S
Li1849 N1873 1.990 . S
Li1849 O1908 1.970 . S
Li1849 O1909 1.956 . S
Li1849 O1911 1.961 . S
Li1850 N1895 1.990 . S
Li1850 O1908 1.961 . S
Li1850 O1910 1.956 . S
Li1850 O1911 1.970 . S
Li1851 N1901 1.990 . S
Li1851 O1909 1.961 . S
Li1851 O1910 1.970 . S
Li1851 O1911 1.956 . S
C1852 C1854 1.348 . S
C1852 C1855 1.356 . S
C1852 O1908 1.325 . S
N1853 C1856 1.314 . S
N1853 C1857 1.279 . S
C1854 C1852 1.348 . S
C1854 C1856 1.353 . S
C1854 H1912 0.929 . S
C1855 C1852 1.356 . S
C1855 C1857 1.358 . S
C1855 H1913 0.930 . S
C1856 N1853 1.314 . S
C1856 C1854 1.353 . S
C1856 H1914 0.930 . S
C1857 N1853 1.279 . S
C1857 C1855 1.358 . S
C1857 H1915 0.930 . S
C1858 C1861 1.348 . S
C1858 C1862 1.356 . S
C1858 O1909 1.325 . S
C1859 N1860 1.279 . S
C1859 C1862 1.358 . S
C1859 H1916 0.930 . S
N1860 C1859 1.279 . S
N1860 C1863 1.314 . S
C1861 C1858 1.348 . S
C1861 C1863 1.353 . S
C1861 H1917 0.929 . S
C1862 C1858 1.356 . S
C1862 C1859 1.358 . S
C1862 H1918 0.930 . S
C1863 N1860 1.314 . S
C1863 C1861 1.353 . S
C1863 H1919 0.930 . S
C1864 N1865 1.314 . S
C1864 C1869 1.353 . S
C1864 H1870 0.930 . S
N1865 Li1848 1.990 . S
N1865 C1864 1.314 . S
N1865 C1867 1.279 . S
C1866 C1867 1.358 . S
C1866 C1868 1.356 . S
C1866 H1920 0.930 . S
C1867 N1865 1.279 . S
C1867 C1866 1.358 . S
C1867 H1871 0.930 . S
C1868 C1866 1.356 . S
C1868 C1869 1.348 . S
C1869 C1864 1.353 . S
C1869 C1868 1.348 . S
C1869 H1921 0.929 . S
H1870 C1864 0.930 . S
H1871 C1867 0.930 . S
C1872 N1873 1.314 . S
C1872 C1874 1.353 . S
C1872 H1878 0.930 . S
N1873 Li1849 1.990 . S
N1873 C1872 1.314 . S
N1873 C1876 1.279 . S
C1874 C1872 1.353 . S
C1874 C1877 1.348 . S
C1874 H1922 0.929 . S
C1875 C1876 1.358 . S
C1875 C1877 1.356 . S
C1875 H1923 0.930 . S
C1876 N1873 1.279 . S
C1876 C1875 1.358 . S
C1876 H1879 0.930 . S
C1877 C1874 1.348 . S
C1877 C1875 1.356 . S
H1878 C1872 0.930 . S
H1879 C1876 0.930 . S
C1880 C1882 1.348 . S
C1880 C1883 1.356 . S
C1880 O1910 1.325 . S
N1881 C1884 1.314 . S
N1881 C1885 1.279 . S
C1882 C1880 1.348 . S
C1882 C1884 1.353 . S
C1882 H1924 0.929 . S
C1883 C1880 1.356 . S
C1883 C1885 1.358 . S
C1883 H1925 0.930 . S
C1884 N1881 1.314 . S
C1884 C1882 1.353 . S
C1884 H1926 0.930 . S
C1885 N1881 1.279 . S
C1885 C1883 1.358 . S
C1885 H1927 0.930 . S
C1886 C1887 1.348 . S
C1886 C1888 1.356 . S
C1886 O1911 1.325 . S
C1887 C1886 1.348 . S
C1887 C1889 1.353 . S
C1887 H1928 0.929 . S
C1888 C1886 1.356 . S
C1888 C1890 1.358 . S
C1888 H1929 0.930 . S
C1889 C1887 1.353 . S
C1889 N1891 1.314 . S
C1889 H1930 0.930 . S
C1890 C1888 1.358 . S
C1890 N1891 1.279 . S
C1890 H1931 0.930 . S
N1891 C1889 1.314 . S
N1891 C1890 1.279 . S
C1892 C1894 1.353 . S
C1892 N1895 1.314 . S
C1892 H1898 0.930 . S
C1893 N1895 1.279 . S
C1893 C1896 1.358 . S
C1893 H1899 0.930 . S
C1894 C1892 1.353 . S
C1894 C1897 1.348 . S
C1894 H1932 0.929 . S
N1895 Li1850 1.990 . S
N1895 C1892 1.314 . S
N1895 C1893 1.279 . S
C1896 C1893 1.358 . S
C1896 C1897 1.356 . S
C1896 H1933 0.930 . S
C1897 C1894 1.348 . S
C1897 C1896 1.356 . S
H1898 C1892 0.930 . S
H1899 C1893 0.930 . S
C1900 N1901 1.314 . S
C1900 C1902 1.353 . S
C1900 H1906 0.930 . S
N1901 Li1851 1.990 . S
N1901 C1900 1.314 . S
N1901 C1904 1.279 . S
C1902 C1900 1.353 . S
C1902 C1905 1.348 . S
C1902 H1934 0.929 . S
C1903 C1904 1.358 . S
C1903 C1905 1.356 . S
C1903 H1935 0.930 . S
C1904 N1901 1.279 . S
C1904 C1903 1.358 . S
C1904 H1907 0.930 . S
C1905 C1902 1.348 . S
C1905 C1903 1.356 . S
H1906 C1900 0.930 . S
H1907 C1904 0.930 . S
O1908 Li1848 1.956 . S
O1908 Li1849 1.970 . S
O1908 Li1850 1.961 . S
O1908 C1852 1.325 . S
O1909 Li1848 1.970 . S
O1909 Li1849 1.956 . S
O1909 Li1851 1.961 . S
O1909 C1858 1.325 . S
O1910 Li1848 1.961 . S
O1910 Li1850 1.956 . S
O1910 Li1851 1.970 . S
O1910 C1880 1.325 . S
O1911 Li1849 1.961 . S
O1911 Li1850 1.970 . S
O1911 Li1851 1.956 . S
O1911 C1886 1.325 . S
H1912 C1854 0.929 . S
H1913 C1855 0.930 . S
H1914 C1856 0.930 . S
H1915 C1857 0.930 . S
H1916 C1859 0.930 . S
H1917 C1861 0.929 . S
H1918 C1862 0.930 . S
H1919 C1863 0.930 . S
H1920 C1866 0.930 . S
H1921 C1869 0.929 . S
H1922 C1874 0.929 . S
H1923 C1875 0.930 . S
H1924 C1882 0.929 . S
H1925 C1883 0.930 . S
H1926 C1884 0.930 . S
H1927 C1885 0.930 . S
H1928 C1887 0.929 . S
H1929 C1888 0.930 . S
H1930 C1889 0.930 . S
H1931 C1890 0.930 . S
H1932 C1894 0.929 . S
H1933 C1896 0.930 . S
H1934 C1902 0.929 . S
H1935 C1903 0.930 . S
Li1936 N1953 1.990 . S
Li1936 O1996 1.956 . S
Li1936 O1997 1.970 . S
Li1936 O1998 1.961 . S
Li1937 N1961 1.990 . S
Li1937 O1996 1.970 . S
Li1937 O1997 1.956 . S
Li1937 O1999 1.961 . S
Li1938 N1983 1.990 . S
Li1938 O1996 1.961 . S
Li1938 O1998 1.956 . S
Li1938 O1999 1.970 . S
Li1939 N1989 1.990 . S
Li1939 O1997 1.961 . S
Li1939 O1998 1.970 . S
Li1939 O1999 1.956 . S
C1940 C1942 1.348 . S
C1940 C1943 1.356 . S
C1940 O1996 1.325 . S
N1941 C1944 1.314 . S
N1941 C1945 1.279 . S
C1942 C1940 1.348 . S
C1942 C1944 1.353 . S
C1942 H2000 0.929 . S
C1943 C1940 1.356 . S
C1943 C1945 1.358 . S
C1943 H2001 0.930 . S
C1944 N1941 1.314 . S
C1944 C1942 1.353 . S
C1944 H2002 0.930 . S
C1945 N1941 1.279 . S
C1945 C1943 1.358 . S
C1945 H2003 0.930 . S
C1946 C1949 1.348 . S
C1946 C1950 1.356 . S
C1946 O1997 1.325 . S
C1947 N1948 1.279 . S
C1947 C1950 1.358 . S
C1947 H2004 0.930 . S
N1948 C1947 1.279 . S
N1948 C1951 1.314 . S
C1949 C1946 1.348 . S
C1949 C1951 1.353 . S
C1949 H2005 0.929 . S
C1950 C1946 1.356 . S
C1950 C1947 1.358 . S
C1950 H2006 0.930 . S
C1951 N1948 1.314 . S
C1951 C1949 1.353 . S
C1951 H2007 0.930 . S
C1952 N1953 1.314 . S
C1952 C1957 1.360 . S
C1952 H1958 0.930 . S
N1953 Li1936 1.990 . S
N1953 C1952 1.314 . S
N1953 C1955 1.279 . S
C1954 C1955 1.358 . S
C1954 C1956 1.356 . S
C1954 H2008 0.930 . S
C1955 N1953 1.279 . S
C1955 C1954 1.358 . S
C1955 H1959 0.930 . S
C1956 C1954 1.356 . S
C1956 C1957 1.353 . S
C1957 C1952 1.360 . S
C1957 C1956 1.353 . S
C1957 H2009 0.917 1_554 S
H1958 C1952 0.930 . S
H1959 C1955 0.930 . S
C1960 N1961 1.314 . S
C1960 C1962 1.353 . S
C1960 H1966 0.930 . S
N1961 Li1937 1.990 . S
N1961 C1960 1.314 . S
N1961 C1964 1.279 . S
C1962 C1960 1.353 . S
C1962 C1965 1.348 . S
C1962 H2010 0.929 . S
C1963 C1964 1.358 . S
C1963 C1965 1.356 . S
C1963 H2011 0.930 . S
C1964 N1961 1.279 . S
C1964 C1963 1.358 . S
C1964 H1967 0.930 . S
C1965 C1962 1.348 . S
C1965 C1963 1.356 . S
H1966 C1960 0.930 . S
H1967 C1964 0.930 . S
C1968 C1970 1.348 1_554 S
C1968 C1971 1.356 1_554 S
C1968 O1998 1.325 . S
N1969 C1972 1.314 . S
N1969 C1973 1.279 . S
C1970 C1968 1.348 1_556 S
C1970 C1972 1.353 . S
C1970 H2012 0.929 1_556 S
C1971 C1968 1.356 1_556 S
C1971 C1973 1.358 . S
C1971 H2013 0.914 1_556 S
C1972 N1969 1.314 . S
C1972 C1970 1.353 . S
C1972 H2014 0.930 . S
C1973 N1969 1.279 . S
C1973 C1971 1.358 . S
C1973 H2015 0.930 . S
C1974 C1975 1.348 . S
C1974 C1976 1.356 . S
C1974 O1999 1.325 . S
C1975 C1974 1.348 . S
C1975 C1977 1.353 . S
C1975 H2016 0.929 . S
C1976 C1974 1.356 . S
C1976 C1978 1.358 . S
C1976 H2017 0.930 . S
C1977 C1975 1.353 . S
C1977 N1979 1.314 . S
C1977 H2018 0.930 . S
C1978 C1976 1.358 . S
C1978 N1979 1.279 . S
C1978 H2019 0.930 . S
N1979 C1977 1.314 . S
N1979 C1978 1.279 . S
C1980 C1982 1.353 . S
C1980 N1983 1.314 . S
C1980 H1986 0.930 . S
C1981 N1983 1.279 . S
C1981 C1984 1.358 . S
C1981 H1987 0.930 . S
C1982 C1980 1.353 . S
C1982 C1985 1.348 . S
C1982 H2020 0.929 . S
N1983 Li1938 1.990 . S
N1983 C1980 1.314 . S
N1983 C1981 1.279 . S
C1984 C1981 1.358 . S
C1984 C1985 1.356 . S
C1984 H2021 0.930 . S
C1985 C1982 1.348 . S
C1985 C1984 1.356 . S
H1986 C1980 0.930 . S
H1987 C1981 0.930 . S
C1988 N1989 1.314 . S
C1988 C1990 1.353 . S
C1988 H1994 0.930 . S
N1989 Li1939 1.990 . S
N1989 C1988 1.314 . S
N1989 C1992 1.279 . S
C1990 C1988 1.353 . S
C1990 C1993 1.348 . S
C1990 H2022 0.929 . S
C1991 C1992 1.358 . S
C1991 C1993 1.356 . S
C1991 H2023 0.930 . S
C1992 N1989 1.279 . S
C1992 C1991 1.358 . S
C1992 H1995 0.930 . S
C1993 C1990 1.348 . S
C1993 C1991 1.356 . S
H1994 C1988 0.930 . S
H1995 C1992 0.930 . S
O1996 Li1936 1.956 . S
O1996 Li1937 1.970 . S
O1996 Li1938 1.961 . S
O1996 C1940 1.325 . S
O1997 Li1936 1.970 . S
O1997 Li1937 1.956 . S
O1997 Li1939 1.961 . S
O1997 C1946 1.325 . S
O1998 Li1936 1.961 . S
O1998 Li1938 1.956 . S
O1998 Li1939 1.970 . S
O1998 C1968 1.325 . S
O1999 Li1937 1.961 . S
O1999 Li1938 1.970 . S
O1999 Li1939 1.956 . S
O1999 C1974 1.325 . S
H2000 C1942 0.929 . S
H2001 C1943 0.930 . S
H2002 C1944 0.930 . S
H2003 C1945 0.930 . S
H2004 C1947 0.930 . S
H2005 C1949 0.929 . S
H2006 C1950 0.930 . S
H2007 C1951 0.930 . S
H2008 C1954 0.930 . S
H2009 C1957 0.917 1_556 S
H2010 C1962 0.929 . S
H2011 C1963 0.930 . S
H2012 C1970 0.929 1_554 S
H2013 C1971 0.914 1_554 S
H2014 C1972 0.930 . S
H2015 C1973 0.930 . S
H2016 C1975 0.929 . S
H2017 C1976 0.930 . S
H2018 C1977 0.930 . S
H2019 C1978 0.930 . S
H2020 C1982 0.929 . S
H2021 C1984 0.930 . S
H2022 C1990 0.929 . S
H2023 C1991 0.930 . S
Li2024 N2041 1.990 . S
Li2024 O2084 1.956 . S
Li2024 O2085 1.970 . S
Li2024 O2086 1.961 . S
Li2025 N2049 1.990 . S
Li2025 O2084 1.970 . S
Li2025 O2085 1.956 . S
Li2025 O2087 1.961 . S
Li2026 N2071 1.990 . S
Li2026 O2084 1.961 . S
Li2026 O2086 1.956 . S
Li2026 O2087 1.970 . S
Li2027 N2077 1.990 . S
Li2027 O2085 1.961 . S
Li2027 O2086 1.970 . S
Li2027 O2087 1.956 . S
C2028 C2030 1.348 . S
C2028 C2031 1.356 . S
C2028 O2084 1.325 . S
N2029 C2032 1.314 . S
N2029 C2033 1.279 . S
C2030 C2028 1.348 . S
C2030 C2032 1.353 . S
C2030 H2088 0.929 . S
C2031 C2028 1.356 . S
C2031 C2033 1.358 . S
C2031 H2089 0.930 . S
C2032 N2029 1.314 . S
C2032 C2030 1.353 . S
C2032 H2090 0.930 . S
C2033 N2029 1.279 . S
C2033 C2031 1.358 . S
C2033 H2091 0.930 . S
C2034 C2037 1.348 . S
C2034 C2038 1.356 . S
C2034 O2085 1.325 . S
C2035 N2036 1.279 . S
C2035 C2038 1.358 . S
C2035 H2092 0.930 . S
N2036 C2035 1.279 . S
N2036 C2039 1.314 . S
C2037 C2034 1.348 . S
C2037 C2039 1.353 . S
C2037 H2093 0.929 . S
C2038 C2034 1.356 . S
C2038 C2035 1.358 . S
C2038 H2094 0.930 . S
C2039 N2036 1.314 . S
C2039 C2037 1.353 . S
C2039 H2095 0.930 . S
C2040 N2041 1.314 . S
C2040 C2045 1.353 . S
C2040 H2046 0.930 . S
N2041 Li2024 1.990 . S
N2041 C2040 1.314 . S
N2041 C2043 1.279 . S
C2042 C2043 1.358 . S
C2042 C2044 1.356 . S
C2042 H2096 0.930 . S
C2043 N2041 1.279 . S
C2043 C2042 1.358 . S
C2043 H2047 0.930 . S
C2044 C2042 1.356 . S
C2044 C2045 1.348 . S
C2045 C2040 1.353 . S
C2045 C2044 1.348 . S
C2045 H2097 0.929 . S
H2046 C2040 0.930 . S
H2047 C2043 0.930 . S
C2048 N2049 1.314 . S
C2048 C2050 1.353 . S
C2048 H2054 0.930 . S
N2049 Li2025 1.990 . S
N2049 C2048 1.314 . S
N2049 C2052 1.279 . S
C2050 C2048 1.353 . S
C2050 C2053 1.348 . S
C2050 H2098 0.929 . S
C2051 C2052 1.358 . S
C2051 C2053 1.356 . S
C2051 H2099 0.930 . S
C2052 N2049 1.279 . S
C2052 C2051 1.358 . S
C2052 H2055 0.930 . S
C2053 C2050 1.348 . S
C2053 C2051 1.356 . S
H2054 C2048 0.930 . S
H2055 C2052 0.930 . S
C2056 C2058 1.348 . S
C2056 C2059 1.356 . S
C2056 O2086 1.325 . S
N2057 C2060 1.314 . S
N2057 C2061 1.279 . S
C2058 C2056 1.348 . S
C2058 C2060 1.353 . S
C2058 H2100 0.929 . S
C2059 C2056 1.356 . S
C2059 C2061 1.358 . S
C2059 H2101 0.930 . S
C2060 N2057 1.314 . S
C2060 C2058 1.353 . S
C2060 H2102 0.930 . S
C2061 N2057 1.279 . S
C2061 C2059 1.358 . S
C2061 H2103 0.930 . S
C2062 C2063 1.348 . S
C2062 C2064 1.356 . S
C2062 O2087 1.325 . S
C2063 C2062 1.348 . S
C2063 C2065 1.353 . S
C2063 H2104 0.929 . S
C2064 C2062 1.356 . S
C2064 C2066 1.358 . S
C2064 H2105 0.930 . S
C2065 C2063 1.353 . S
C2065 N2067 1.314 . S
C2065 H2106 0.930 . S
C2066 C2064 1.358 . S
C2066 N2067 1.279 . S
C2066 H2107 0.930 . S
N2067 C2065 1.314 . S
N2067 C2066 1.279 . S
C2068 C2070 1.353 . S
C2068 N2071 1.314 . S
C2068 H2074 0.930 . S
C2069 N2071 1.279 . S
C2069 C2072 1.358 . S
C2069 H2075 0.930 . S
C2070 C2068 1.353 . S
C2070 C2073 1.348 . S
C2070 H2108 0.929 . S
N2071 Li2026 1.990 . S
N2071 C2068 1.314 . S
N2071 C2069 1.279 . S
C2072 C2069 1.358 . S
C2072 C2073 1.356 . S
C2072 H2109 0.930 . S
C2073 C2070 1.348 . S
C2073 C2072 1.356 . S
H2074 C2068 0.930 . S
H2075 C2069 0.930 . S
C2076 N2077 1.314 . S
C2076 C2078 1.353 . S
C2076 H2082 0.930 . S
N2077 Li2027 1.990 . S
N2077 C2076 1.314 . S
N2077 C2080 1.279 . S
C2078 C2076 1.353 . S
C2078 C2081 1.348 . S
C2078 H2110 0.929 . S
C2079 C2080 1.358 . S
C2079 C2081 1.356 . S
C2079 H2111 0.930 . S
C2080 N2077 1.279 . S
C2080 C2079 1.358 . S
C2080 H2083 0.930 . S
C2081 C2078 1.348 . S
C2081 C2079 1.356 . S
H2082 C2076 0.930 . S
H2083 C2080 0.930 . S
O2084 Li2024 1.956 . S
O2084 Li2025 1.970 . S
O2084 Li2026 1.961 . S
O2084 C2028 1.325 . S
O2085 Li2024 1.970 . S
O2085 Li2025 1.956 . S
O2085 Li2027 1.961 . S
O2085 C2034 1.325 . S
O2086 Li2024 1.961 . S
O2086 Li2026 1.956 . S
O2086 Li2027 1.970 . S
O2086 C2056 1.325 . S
O2087 Li2025 1.961 . S
O2087 Li2026 1.970 . S
O2087 Li2027 1.956 . S
O2087 C2062 1.325 . S
H2088 C2030 0.929 . S
H2089 C2031 0.930 . S
H2090 C2032 0.930 . S
H2091 C2033 0.930 . S
H2092 C2035 0.930 . S
H2093 C2037 0.929 . S
H2094 C2038 0.930 . S
H2095 C2039 0.930 . S
H2096 C2042 0.930 . S
H2097 C2045 0.929 . S
H2098 C2050 0.929 . S
H2099 C2051 0.930 . S
H2100 C2058 0.929 . S
H2101 C2059 0.930 . S
H2102 C2060 0.930 . S
H2103 C2061 0.930 . S
H2104 C2063 0.929 . S
H2105 C2064 0.930 . S
H2106 C2065 0.930 . S
H2107 C2066 0.930 . S
H2108 C2070 0.929 . S
H2109 C2072 0.930 . S
H2110 C2078 0.929 . S
H2111 C2079 0.930 . S
C2112 C2113 1.387 . S
C2112 H2116 0.950 . S
C2112 C2121 1.390 . S
C2113 C2112 1.387 . S
C2113 C2115 1.387 . S
H2114 C2121 0.950 . S
C2115 C2113 1.387 . S
C2115 C2117 1.390 . S
C2115 H2119 0.950 . S
H2116 C2112 0.950 . S
C2117 C2115 1.390 . S
C2117 C2118 1.387 . S
C2117 H2120 0.950 . S
C2118 C2117 1.387 . S
C2118 C2121 1.387 . S
H2119 C2115 0.950 . S
H2120 C2117 0.950 . S
C2121 C2112 1.390 . S
C2121 H2114 0.950 . S
C2121 C2118 1.387 . S
C2122 C2123 1.387 . S
C2122 H2126 0.950 . S
C2122 C2131 1.390 . S
C2123 C2122 1.387 . S
C2123 C2125 1.387 . S
H2124 C2131 0.950 . S
C2125 C2123 1.387 . S
C2125 C2127 1.390 . S
C2125 H2129 0.950 . S
H2126 C2122 0.950 . S
C2127 C2125 1.390 . S
C2127 C2128 1.387 . S
C2127 H2130 0.950 . S
C2128 C2127 1.387 . S
C2128 C2131 1.387 . S
H2129 C2125 0.950 . S
H2130 C2127 0.950 . S
C2131 C2122 1.390 . S
C2131 H2124 0.950 . S
C2131 C2128 1.387 . S
C2132 C2133 1.387 . S
C2132 H2136 0.950 . S
C2132 C2141 1.390 . S
C2133 C2132 1.387 . S
C2133 C2135 1.387 . S
H2134 C2141 0.950 . S
C2135 C2133 1.387 . S
C2135 C2137 1.390 . S
C2135 H2139 0.950 . S
H2136 C2132 0.950 . S
C2137 C2135 1.390 . S
C2137 C2138 1.387 . S
C2137 H2140 0.950 . S
C2138 C2137 1.387 . S
C2138 C2141 1.387 . S
H2139 C2135 0.950 . S
H2140 C2137 0.950 . S
C2141 C2132 1.390 . S
C2141 H2134 0.950 . S
C2141 C2138 1.387 . S
C2142 C2143 1.387 . S
C2142 H2146 0.950 . S
C2142 C2151 1.390 . S
C2143 C2142 1.387 . S
C2143 C2145 1.387 . S
H2144 C2151 0.950 . S
C2145 C2143 1.387 . S
C2145 C2147 1.390 . S
C2145 H2149 0.950 . S
H2146 C2142 0.950 . S
C2147 C2145 1.390 . S
C2147 C2148 1.387 . S
C2147 H2150 0.950 . S
C2148 C2147 1.387 . S
C2148 C2151 1.387 . S
H2149 C2145 0.950 . S
H2150 C2147 0.950 . S
C2151 C2142 1.390 . S
C2151 H2144 0.950 . S
C2151 C2148 1.387 . S
C2152 C2153 1.387 . S
C2152 H2156 0.950 . S
C2152 C2161 1.390 . S
C2153 C2152 1.387 . S
C2153 C2155 1.387 . S
H2154 C2161 0.950 . S
C2155 C2153 1.387 . S
C2155 C2157 1.390 . S
C2155 H2159 0.950 . S
H2156 C2152 0.950 . S
C2157 C2155 1.390 . S
C2157 C2158 1.387 . S
C2157 H2160 0.950 . S
C2158 C2157 1.387 . S
C2158 C2161 1.387 . S
H2159 C2155 0.950 . S
H2160 C2157 0.950 . S
C2161 C2152 1.390 . S
C2161 H2154 0.950 . S
C2161 C2158 1.387 . S
C2162 C2163 1.387 . S
C2162 H2166 0.950 . S
C2162 C2171 1.390 . S
C2163 C2162 1.387 . S
C2163 C2165 1.387 . S
H2164 C2171 0.950 . S
C2165 C2163 1.387 . S
C2165 C2167 1.390 . S
C2165 H2169 0.950 . S
H2166 C2162 0.950 . S
C2167 C2165 1.390 . S
C2167 C2168 1.387 . S
C2167 H2170 0.950 . S
C2168 C2167 1.387 . S
C2168 C2171 1.387 . S
H2169 C2165 0.950 . S
H2170 C2167 0.950 . S
C2171 C2162 1.390 . S
C2171 H2164 0.950 . S
C2171 C2168 1.387 . S
C2172 C2173 1.387 . S
C2172 H2176 0.950 . S
C2172 C2181 1.390 . S
C2173 C2172 1.387 . S
C2173 C2175 1.387 . S
H2174 C2181 0.950 . S
C2175 C2173 1.387 . S
C2175 C2177 1.390 . S
C2175 H2179 0.950 . S
H2176 C2172 0.950 . S
C2177 C2175 1.390 . S
C2177 C2178 1.387 . S
C2177 H2180 0.950 . S
C2178 C2177 1.387 . S
C2178 C2181 1.387 . S
H2179 C2175 0.950 . S
H2180 C2177 0.950 . S
C2181 C2172 1.390 . S
C2181 H2174 0.950 . S
C2181 C2178 1.387 . S
C2182 C2183 1.387 . S
C2182 H2186 0.950 . S
C2182 C2191 1.390 . S
C2183 C2182 1.387 . S
C2183 C2185 1.387 . S
H2184 C2191 0.950 . S
C2185 C2183 1.387 . S
C2185 C2187 1.390 . S
C2185 H2189 0.950 . S
H2186 C2182 0.950 . S
C2187 C2185 1.390 . S
C2187 C2188 1.387 . S
C2187 H2190 0.950 . S
C2188 C2187 1.387 . S
C2188 C2191 1.387 . S
H2189 C2185 0.950 . S
H2190 C2187 0.950 . S
C2191 C2182 1.390 . S
C2191 H2184 0.950 . S
C2191 C2188 1.387 . S
C2192 C2193 1.387 . S
C2192 H2196 0.950 . S
C2192 C2201 1.390 . S
C2193 C2192 1.387 . S
C2193 C2195 1.387 . S
H2194 C2201 0.950 . S
C2195 C2193 1.387 . S
C2195 C2197 1.390 . S
C2195 H2199 0.950 . S
H2196 C2192 0.950 . S
C2197 C2195 1.390 . S
C2197 C2198 1.387 . S
C2197 H2200 0.950 . S
C2198 C2197 1.387 . S
C2198 C2201 1.387 . S
H2199 C2195 0.950 . S
H2200 C2197 0.950 . S
C2201 C2192 1.390 . S
C2201 H2194 0.950 . S
C2201 C2198 1.387 . S
C2202 C2203 1.387 . S
C2202 H2206 0.950 . S
C2202 C2211 1.390 . S
C2203 C2202 1.387 . S
C2203 C2205 1.387 . S
H2204 C2211 0.950 . S
C2205 C2203 1.387 . S
C2205 C2207 1.390 . S
C2205 H2209 0.950 . S
H2206 C2202 0.950 . S
C2207 C2205 1.390 . S
C2207 C2208 1.387 . S
C2207 H2210 0.950 . S
C2208 C2207 1.387 . S
C2208 C2211 1.387 . S
H2209 C2205 0.950 . S
H2210 C2207 0.950 . S
C2211 C2202 1.390 . S
C2211 H2204 0.950 . S
C2211 C2208 1.387 . S
C2212 C2213 1.387 . S
C2212 H2216 0.950 . S
C2212 C2221 1.390 . S
C2213 C2212 1.387 . S
C2213 C2215 1.387 . S
H2214 C2221 0.950 . S
C2215 C2213 1.387 . S
C2215 C2217 1.390 . S
C2215 H2219 0.950 . S
H2216 C2212 0.950 . S
C2217 C2215 1.390 . S
C2217 C2218 1.387 . S
C2217 H2220 0.950 . S
C2218 C2217 1.387 . S
C2218 C2221 1.387 . S
H2219 C2215 0.950 . S
H2220 C2217 0.950 . S
C2221 C2212 1.390 . S
C2221 H2214 0.950 . S
C2221 C2218 1.387 . S
C2222 C2223 1.387 . S
C2222 H2226 0.950 . S
C2222 C2231 1.390 . S
C2223 C2222 1.387 . S
C2223 C2225 1.387 . S
H2224 C2231 0.950 . S
C2225 C2223 1.387 . S
C2225 C2227 1.390 . S
C2225 H2229 0.950 . S
H2226 C2222 0.950 . S
C2227 C2225 1.390 . S
C2227 C2228 1.387 . S
C2227 H2230 0.950 . S
C2228 C2227 1.387 . S
C2228 C2231 1.387 . S
H2229 C2225 0.950 . S
H2230 C2227 0.950 . S
C2231 C2222 1.390 . S
C2231 H2224 0.950 . S
C2231 C2228 1.387 . S
C2232 C2233 1.387 . S
C2232 H2236 0.950 . S
C2232 C2241 1.390 1_556 S
C2233 C2232 1.387 . S
C2233 C2235 1.387 . S
H2234 C2241 0.950 . S
C2235 C2233 1.387 . S
C2235 C2237 1.390 1_556 S
C2235 H2239 0.950 . S
H2236 C2232 0.950 . S
C2237 C2235 1.390 1_554 S
C2237 C2238 1.387 . S
C2237 H2240 0.950 . S
C2238 C2237 1.387 . S
C2238 C2241 1.387 . S
H2239 C2235 0.950 . S
H2240 C2237 0.950 . S
C2241 C2232 1.390 1_554 S
C2241 H2234 0.950 . S
C2241 C2238 1.387 . S
C2242 C2243 1.387 . S
C2242 H2246 0.950 . S
C2242 C2251 1.390 . S
C2243 C2242 1.387 . S
C2243 C2245 1.387 . S
H2244 C2251 0.950 . S
C2245 C2243 1.387 . S
C2245 C2247 1.390 . S
C2245 H2249 0.950 . S
H2246 C2242 0.950 . S
C2247 C2245 1.390 . S
C2247 C2248 1.387 . S
C2247 H2250 0.950 . S
C2248 C2247 1.387 . S
C2248 C2251 1.387 . S
H2249 C2245 0.950 . S
H2250 C2247 0.950 . S
C2251 C2242 1.390 . S
C2251 H2244 0.950 . S
C2251 C2248 1.387 . S
C2252 C2253 1.387 1_556 S
C2252 H2256 0.950 . S
C2252 C2261 1.390 . S
C2253 C2252 1.387 1_554 S
C2253 C2255 1.387 . S
H2254 C2261 0.950 . S
C2255 C2253 1.387 . S
C2255 C2257 1.390 . S
C2255 H2259 0.950 . S
H2256 C2252 0.950 . S
C2257 C2255 1.390 . S
C2257 C2258 1.387 1_554 S
C2257 H2260 0.950 . S
C2258 C2257 1.387 1_556 S
C2258 C2261 1.387 . S
H2259 C2255 0.950 . S
H2260 C2257 0.950 . S
C2261 C2252 1.390 . S
C2261 H2254 0.950 . S
C2261 C2258 1.387 . S
C2262 C2263 1.387 . S
C2262 H2266 0.950 . S
C2262 C2271 1.390 . S
C2263 C2262 1.387 . S
C2263 C2265 1.387 . S
H2264 C2271 0.950 . S
C2265 C2263 1.387 . S
C2265 C2267 1.390 . S
C2265 H2269 0.950 . S
H2266 C2262 0.950 . S
C2267 C2265 1.390 . S
C2267 C2268 1.387 . S
C2267 H2270 0.950 . S
C2268 C2267 1.387 . S
C2268 C2271 1.387 . S
H2269 C2265 0.950 . S
H2270 C2267 0.950 . S
C2271 C2262 1.390 . S
C2271 H2264 0.950 . S
C2271 C2268 1.387 . S
C2272 C2273 1.387 1_554 S
C2272 H2276 0.950 . S
C2272 C2281 1.390 . S
C2273 C2272 1.387 1_556 S
C2273 C2275 1.387 . S
H2274 C2281 0.950 . S
C2275 C2273 1.387 . S
C2275 C2277 1.390 . S
C2275 H2279 0.950 . S
H2276 C2272 0.950 . S
C2277 C2275 1.390 . S
C2277 C2278 1.387 1_556 S
C2277 H2280 0.950 . S
C2278 C2277 1.387 1_554 S
C2278 C2281 1.387 . S
H2279 C2275 0.950 . S
H2280 C2277 0.950 . S
C2281 C2272 1.390 . S
C2281 H2274 0.950 . S
C2281 C2278 1.387 . S
C2282 C2283 1.387 . S
C2282 H2286 0.950 . S
C2282 C2291 1.390 . S
C2283 C2282 1.387 . S
C2283 C2285 1.387 . S
H2284 C2291 0.950 . S
C2285 C2283 1.387 . S
C2285 C2287 1.390 . S
C2285 H2289 0.950 . S
H2286 C2282 0.950 . S
C2287 C2285 1.390 . S
C2287 C2288 1.387 . S
C2287 H2290 0.950 . S
C2288 C2287 1.387 . S
C2288 C2291 1.387 . S
H2289 C2285 0.950 . S
H2290 C2287 0.950 . S
C2291 C2282 1.390 . S
C2291 H2284 0.950 . S
C2291 C2288 1.387 . S
C2292 C2293 1.387 . S
C2292 H2296 0.950 . S
C2292 C2301 1.390 1_554 S
C2293 C2292 1.387 . S
C2293 C2295 1.387 . S
H2294 C2301 0.950 . S
C2295 C2293 1.387 . S
C2295 C2297 1.390 1_554 S
C2295 H2299 0.950 . S
H2296 C2292 0.950 . S
C2297 C2295 1.390 1_556 S
C2297 C2298 1.387 . S
C2297 H2300 0.950 . S
C2298 C2297 1.387 . S
C2298 C2301 1.387 . S
H2299 C2295 0.950 . S
H2300 C2297 0.950 . S
C2301 C2292 1.390 1_556 S
C2301 H2294 0.950 . S
C2301 C2298 1.387 . S
C2302 C2303 1.387 . S
C2302 H2306 0.950 . S
C2302 C2311 1.390 . S
C2303 C2302 1.387 . S
C2303 C2305 1.387 . S
H2304 C2311 0.950 . S
C2305 C2303 1.387 . S
C2305 C2307 1.390 . S
C2305 H2309 0.950 . S
H2306 C2302 0.950 . S
C2307 C2305 1.390 . S
C2307 C2308 1.387 . S
C2307 H2310 0.950 . S
C2308 C2307 1.387 . S
C2308 C2311 1.387 . S
H2309 C2305 0.950 . S
H2310 C2307 0.950 . S
C2311 C2302 1.390 . S
C2311 H2304 0.950 . S
C2311 C2308 1.387 . S
C2312 C2313 1.387 . S
C2312 H2316 0.950 . S
C2312 C2321 1.390 . S
C2313 C2312 1.387 . S
C2313 C2315 1.387 1_556 S
H2314 C2321 0.950 . S
C2315 C2313 1.387 1_554 S
C2315 C2317 1.390 . S
C2315 H2319 0.950 . S
H2316 C2312 0.950 . S
C2317 C2315 1.390 . S
C2317 C2318 1.387 . S
C2317 H2320 0.950 . S
C2318 C2317 1.387 . S
C2318 C2321 1.387 1_554 S
H2319 C2315 0.950 . S
H2320 C2317 0.950 . S
C2321 C2312 1.390 . S
C2321 H2314 0.950 . S
C2321 C2318 1.387 1_556 S
C2322 C2323 1.387 . S
C2322 H2326 0.950 . S
C2322 C2331 1.390 . S
C2323 C2322 1.387 . S
C2323 C2325 1.387 . S
H2324 C2331 0.950 . S
C2325 C2323 1.387 . S
C2325 C2327 1.390 . S
C2325 H2329 0.950 . S
H2326 C2322 0.950 . S
C2327 C2325 1.390 . S
C2327 C2328 1.387 . S
C2327 H2330 0.950 . S
C2328 C2327 1.387 . S
C2328 C2331 1.387 . S
H2329 C2325 0.950 . S
H2330 C2327 0.950 . S
C2331 C2322 1.390 . S
C2331 H2324 0.950 . S
C2331 C2328 1.387 . S
C2332 C2333 1.387 1_554 S
C2332 H2336 0.950 . S
C2332 C2341 1.390 . S
C2333 C2332 1.387 1_556 S
C2333 C2335 1.387 . S
H2334 C2341 0.950 . S
C2335 C2333 1.387 . S
C2335 C2337 1.390 . S
C2335 H2339 0.950 . S
H2336 C2332 0.950 . S
C2337 C2335 1.390 . S
C2337 C2338 1.387 1_556 S
C2337 H2340 0.950 . S
C2338 C2337 1.387 1_554 S
C2338 C2341 1.387 . S
H2339 C2335 0.950 . S
H2340 C2337 0.950 . S
C2341 C2332 1.390 . S
C2341 H2334 0.950 . S
C2341 C2338 1.387 . S
C2342 C2343 1.387 . S
C2342 H2346 0.950 . S
C2342 C2351 1.390 . S
C2343 C2342 1.387 . S
C2343 C2345 1.387 . S
H2344 C2351 0.950 . S
C2345 C2343 1.387 . S
C2345 C2347 1.390 . S
C2345 H2349 0.950 . S
H2346 C2342 0.950 . S
C2347 C2345 1.390 . S
C2347 C2348 1.387 . S
C2347 H2350 0.950 . S
C2348 C2347 1.387 . S
C2348 C2351 1.387 . S
H2349 C2345 0.950 . S
H2350 C2347 0.950 . S
C2351 C2342 1.390 . S
C2351 H2344 0.950 . S
C2351 C2348 1.387 . S
C2352 C2353 1.387 . S
C2352 H2356 0.950 . S
C2352 C2361 1.390 . S
C2353 C2352 1.387 . S
C2353 C2355 1.387 . S
H2354 C2361 0.950 . S
C2355 C2353 1.387 . S
C2355 C2357 1.390 . S
C2355 H2359 0.912 1_554 S
H2356 C2352 0.950 . S
C2357 C2355 1.390 . S
C2357 C2358 1.387 . S
C2357 H2360 0.920 1_554 S
C2358 C2357 1.387 . S
C2358 C2361 1.387 . S
H2359 C2355 0.912 1_556 S
H2360 C2357 0.920 1_556 S
C2361 C2352 1.390 . S
C2361 H2354 0.950 . S
C2361 C2358 1.387 . S
C2362 C2363 1.387 . S
C2362 H2366 0.950 . S
C2362 C2371 1.390 1_455 S
C2363 C2362 1.387 . S
C2363 C2365 1.387 . S
H2364 C2371 0.950 . S
C2365 C2363 1.387 . S
C2365 C2367 1.390 1_455 S
C2365 H2369 0.950 . S
H2366 C2362 0.950 . S
C2367 C2365 1.390 1_655 S
C2367 C2368 1.387 . S
C2367 H2370 0.950 . S
C2368 C2367 1.387 . S
C2368 C2371 1.387 . S
H2369 C2365 0.950 . S
H2370 C2367 0.950 . S
C2371 C2362 1.390 1_655 S
C2371 H2364 0.950 . S
C2371 C2368 1.387 . S
C2372 C2373 1.387 . S
C2372 H2376 0.950 . S
C2372 C2381 1.390 1_565 S
C2373 C2372 1.387 . S
C2373 C2375 1.387 . S
H2374 C2381 0.950 . S
C2375 C2373 1.387 . S
C2375 C2377 1.390 1_565 S
C2375 H2379 0.950 . S
H2376 C2372 0.950 . S
C2377 C2375 1.390 1_545 S
C2377 C2378 1.387 . S
C2377 H2380 0.950 . S
C2378 C2377 1.387 . S
C2378 C2381 1.387 . S
H2379 C2375 0.950 . S
H2380 C2377 0.950 . S
C2381 C2372 1.390 1_545 S
C2381 H2374 0.950 . S
C2381 C2378 1.387 . S
C2382 C2383 1.387 . S
C2382 H2386 0.950 . S
C2382 C2391 1.390 . S
C2383 C2382 1.387 . S
C2383 C2385 1.387 . S
H2384 C2391 0.950 . S
C2385 C2383 1.387 . S
C2385 C2387 1.390 . S
C2385 H2389 0.950 . S
H2386 C2382 0.950 . S
C2387 C2385 1.390 . S
C2387 C2388 1.387 . S
C2387 H2390 0.950 . S
C2388 C2387 1.387 . S
C2388 C2391 1.387 . S
H2389 C2385 0.950 . S
H2390 C2387 0.950 . S
C2391 C2382 1.390 . S
C2391 H2384 0.950 . S
C2391 C2388 1.387 . S
C2392 C2393 1.387 . S
C2392 H2396 0.920 1_554 S
C2392 C2401 1.390 1_655 S
C2393 C2392 1.387 . S
C2393 C2395 1.387 . S
H2394 C2401 0.913 1_556 S
C2395 C2393 1.387 . S
C2395 C2397 1.390 1_655 S
C2395 H2399 0.950 . S
H2396 C2392 0.920 1_556 S
C2397 C2395 1.390 1_455 S
C2397 C2398 1.387 . S
C2397 H2400 0.950 . S
C2398 C2397 1.387 . S
C2398 C2401 1.387 . S
H2399 C2395 0.950 . S
H2400 C2397 0.950 . S
C2401 C2392 1.390 1_455 S
C2401 H2394 0.913 1_554 S
C2401 C2398 1.387 . S
C2402 C2403 1.387 . S
C2402 H2406 0.950 . S
C2402 C2411 1.390 1_545 S
C2403 C2402 1.387 . S
C2403 C2405 1.387 . S
H2404 C2411 0.950 . S
C2405 C2403 1.387 . S
C2405 C2407 1.390 1_545 S
C2405 H2409 0.950 . S
H2406 C2402 0.950 . S
C2407 C2405 1.390 1_565 S
C2407 C2408 1.387 . S
C2407 H2410 0.950 . S
C2408 C2407 1.387 . S
C2408 C2411 1.387 . S
H2409 C2405 0.950 . S
H2410 C2407 0.950 . S
C2411 C2402 1.390 1_565 S
C2411 H2404 0.950 . S
C2411 C2408 1.387 . S
C2412 C2413 1.387 . S
C2412 H2416 0.912 1_556 S
C2412 C2421 1.390 . S
C2413 C2412 1.387 . S
C2413 C2415 1.387 . S
H2414 C2421 0.920 1_554 S
C2415 C2413 1.387 . S
C2415 C2417 1.390 . S
C2415 H2419 0.950 . S
H2416 C2412 0.912 1_554 S
C2417 C2415 1.390 . S
C2417 C2418 1.387 . S
C2417 H2420 0.950 . S
C2418 C2417 1.387 . S
C2418 C2421 1.387 . S
H2419 C2415 0.950 . S
H2420 C2417 0.950 . S
C2421 C2412 1.390 . S
C2421 H2414 0.920 1_556 S
C2421 C2418 1.387 . S
C2422 C2423 1.387 . S
C2422 H2426 0.950 . S
C2422 C2431 1.390 1_655 S
C2423 C2422 1.387 . S
C2423 C2425 1.387 . S
H2424 C2431 0.950 . S
C2425 C2423 1.387 . S
C2425 C2427 1.390 1_655 S
C2425 H2429 0.950 . S
H2426 C2422 0.950 . S
C2427 C2425 1.390 1_455 S
C2427 C2428 1.387 . S
C2427 H2430 0.950 . S
C2428 C2427 1.387 . S
C2428 C2431 1.387 . S
H2429 C2425 0.950 . S
H2430 C2427 0.950 . S
C2431 C2422 1.390 1_455 S
C2431 H2424 0.950 . S
C2431 C2428 1.387 . S
C2432 C2433 1.387 . S
C2432 H2436 0.950 . S
C2432 C2441 1.390 1_545 S
C2433 C2432 1.387 . S
C2433 C2435 1.387 . S
H2434 C2441 0.950 . S
C2435 C2433 1.387 . S
C2435 C2437 1.390 1_545 S
C2435 H2439 0.950 . S
H2436 C2432 0.950 . S
C2437 C2435 1.390 1_565 S
C2437 C2438 1.387 . S
C2437 H2440 0.950 . S
C2438 C2437 1.387 . S
C2438 C2441 1.387 . S
H2439 C2435 0.950 . S
H2440 C2437 0.950 . S
C2441 C2432 1.390 1_565 S
C2441 H2434 0.950 . S
C2441 C2438 1.387 . S
C2442 C2443 1.387 . S
C2442 H2446 0.950 . S
C2442 C2451 1.390 . S
C2443 C2442 1.387 . S
C2443 C2445 1.387 . S
H2444 C2451 0.950 . S
C2445 C2443 1.387 . S
C2445 C2447 1.390 . S
C2445 H2449 0.950 . S
H2446 C2442 0.950 . S
C2447 C2445 1.390 . S
C2447 C2448 1.387 . S
C2447 H2450 0.950 . S
C2448 C2447 1.387 . S
C2448 C2451 1.387 . S
H2449 C2445 0.950 . S
H2450 C2447 0.950 . S
C2451 C2442 1.390 . S
C2451 H2444 0.950 . S
C2451 C2448 1.387 . S
C2452 C2453 1.387 . S
C2452 H2456 0.950 . S
C2452 C2461 1.390 1_455 S
C2453 C2452 1.387 . S
C2453 C2455 1.387 . S
H2454 C2461 0.950 . S
C2455 C2453 1.387 . S
C2455 C2457 1.390 1_455 S
C2455 H2459 0.911 1_556 S
H2456 C2452 0.950 . S
C2457 C2455 1.390 1_655 S
C2457 C2458 1.387 . S
C2457 H2460 0.919 1_556 S
C2458 C2457 1.387 . S
C2458 C2461 1.387 . S
H2459 C2455 0.911 1_554 S
H2460 C2457 0.919 1_554 S
C2461 C2452 1.390 1_655 S
C2461 H2454 0.950 . S
C2461 C2458 1.387 . S
C2462 C2463 1.387 . S
C2462 H2466 0.950 . S
C2462 C2471 1.390 1_565 S
C2463 C2462 1.387 . S
C2463 C2465 1.387 . S
H2464 C2471 0.950 . S
C2465 C2463 1.387 . S
C2465 C2467 1.390 1_565 S
C2465 H2469 0.950 . S
H2466 C2462 0.950 . S
C2467 C2465 1.390 1_545 S
C2467 C2468 1.387 . S
C2467 H2470 0.950 . S
C2468 C2467 1.387 . S
C2468 C2471 1.387 . S
H2469 C2465 0.950 . S
H2470 C2467 0.950 . S
C2471 C2462 1.390 1_545 S
C2471 H2464 0.950 . S
C2471 C2468 1.387 . S
C2472 C2473 1.387 . S
C2472 H2476 0.950 . S
C2472 C2481 1.390 . S
C2473 C2472 1.387 . S
C2473 C2475 1.387 1_556 S
H2474 C2481 0.950 . S
C2475 C2473 1.387 1_554 S
C2475 C2477 1.390 . S
C2475 H2479 0.950 . S
H2476 C2472 0.950 . S
C2477 C2475 1.390 . S
C2477 C2478 1.387 . S
C2477 H2480 0.950 . S
C2478 C2477 1.387 . S
C2478 C2481 1.387 1_554 S
H2479 C2475 0.950 . S
H2480 C2477 0.950 . S
C2481 C2472 1.390 . S
C2481 H2474 0.950 . S
C2481 C2478 1.387 1_556 S
C2482 C2483 1.387 . S
C2482 H2486 0.950 . S
C2482 C2491 1.390 . S
C2483 C2482 1.387 . S
C2483 C2485 1.387 . S
H2484 C2491 0.950 . S
C2485 C2483 1.387 . S
C2485 C2487 1.390 . S
C2485 H2489 0.950 . S
H2486 C2482 0.950 . S
C2487 C2485 1.390 . S
C2487 C2488 1.387 . S
C2487 H2490 0.950 . S
C2488 C2487 1.387 . S
C2488 C2491 1.387 . S
H2489 C2485 0.950 . S
H2490 C2487 0.950 . S
C2491 C2482 1.390 . S
C2491 H2484 0.950 . S
C2491 C2488 1.387 . S
C2492 C2493 1.387 . S
C2492 H2496 0.950 . S
C2492 C2501 1.390 1_556 S
C2493 C2492 1.387 . S
C2493 C2495 1.387 . S
H2494 C2501 0.950 . S
C2495 C2493 1.387 . S
C2495 C2497 1.390 1_556 S
C2495 H2499 0.950 . S
H2496 C2492 0.950 . S
C2497 C2495 1.390 1_554 S
C2497 C2498 1.387 . S
C2497 H2500 0.950 . S
C2498 C2497 1.387 . S
C2498 C2501 1.387 . S
H2499 C2495 0.950 . S
H2500 C2497 0.950 . S
C2501 C2492 1.390 1_554 S
C2501 H2494 0.950 . S
C2501 C2498 1.387 . S
C2502 C2503 1.387 . S
C2502 H2506 0.950 . S
C2502 C2511 1.390 . S
C2503 C2502 1.387 . S
C2503 C2505 1.387 . S
H2504 C2511 0.950 . S
C2505 C2503 1.387 . S
C2505 C2507 1.390 . S
C2505 H2509 0.950 . S
H2506 C2502 0.950 . S
C2507 C2505 1.390 . S
C2507 C2508 1.387 . S
C2507 H2510 0.950 . S
C2508 C2507 1.387 . S
C2508 C2511 1.387 . S
H2509 C2505 0.950 . S
H2510 C2507 0.950 . S
C2511 C2502 1.390 . S
C2511 H2504 0.950 . S
C2511 C2508 1.387 . S
C2512 C2513 1.387 . S
C2512 H2516 0.950 . S
C2512 C2521 1.398 . S
C2513 C2512 1.387 . S
C2513 C2515 1.379 1_556 S
H2514 C2521 0.949 . S
C2515 C2513 1.379 1_554 S
C2515 C2517 1.399 . S
C2515 H2519 0.949 . S
H2516 C2512 0.950 . S
C2517 C2515 1.399 . S
C2517 C2518 1.387 . S
C2517 H2520 0.950 . S
C2518 C2517 1.387 . S
C2518 C2521 1.379 1_554 S
H2519 C2515 0.949 . S
H2520 C2517 0.950 . S
C2521 C2512 1.398 . S
C2521 H2514 0.949 . S
C2521 C2518 1.379 1_556 S
C2522 C2523 1.387 . S
C2522 H2526 0.950 . S
C2522 C2531 1.390 . S
C2523 C2522 1.387 . S
C2523 C2525 1.387 . S
H2524 C2531 0.950 . S
C2525 C2523 1.387 . S
C2525 C2527 1.390 . S
C2525 H2529 0.950 . S
H2526 C2522 0.950 . S
C2527 C2525 1.390 . S
C2527 C2528 1.387 . S
C2527 H2530 0.950 . S
C2528 C2527 1.387 . S
C2528 C2531 1.387 . S
H2529 C2525 0.950 . S
H2530 C2527 0.950 . S
C2531 C2522 1.390 . S
C2531 H2524 0.950 . S
C2531 C2528 1.387 . S
C2532 C2533 1.387 1_556 S
C2532 H2536 0.950 . S
C2532 C2541 1.390 . S
C2533 C2532 1.387 1_554 S
C2533 C2535 1.387 . S
H2534 C2541 0.950 . S
C2535 C2533 1.387 . S
C2535 C2537 1.390 . S
C2535 H2539 0.950 . S
H2536 C2532 0.950 . S
C2537 C2535 1.390 . S
C2537 C2538 1.387 1_554 S
C2537 H2540 0.950 . S
C2538 C2537 1.387 1_556 S
C2538 C2541 1.387 . S
H2539 C2535 0.950 . S
H2540 C2537 0.950 . S
C2541 C2532 1.390 . S
C2541 H2534 0.950 . S
C2541 C2538 1.387 . S
C2542 C2543 1.387 . S
C2542 H2546 0.950 . S
C2542 C2551 1.390 . S
C2543 C2542 1.387 . S
C2543 C2545 1.387 . S
H2544 C2551 0.950 . S
C2545 C2543 1.387 . S
C2545 C2547 1.390 . S
C2545 H2549 0.950 . S
H2546 C2542 0.950 . S
C2547 C2545 1.390 . S
C2547 C2548 1.387 . S
C2547 H2550 0.950 . S
C2548 C2547 1.387 . S
C2548 C2551 1.387 . S
H2549 C2545 0.950 . S
H2550 C2547 0.950 . S
C2551 C2542 1.390 . S
C2551 H2544 0.950 . S
C2551 C2548 1.387 . S
C2552 C2553 1.387 . S
C2552 H2556 0.950 . S
C2552 C2561 1.390 1_554 S
C2553 C2552 1.387 . S
C2553 C2555 1.387 . S
H2554 C2561 0.950 . S
C2555 C2553 1.387 . S
C2555 C2557 1.390 1_554 S
C2555 H2559 0.950 . S
H2556 C2552 0.950 . S
C2557 C2555 1.390 1_556 S
C2557 C2558 1.387 . S
C2557 H2560 0.950 . S
C2558 C2557 1.387 . S
C2558 C2561 1.387 . S
H2559 C2555 0.950 . S
H2560 C2557 0.950 . S
C2561 C2552 1.390 1_556 S
C2561 H2554 0.950 . S
C2561 C2558 1.387 . S
C2562 C2563 1.387 . S
C2562 H2566 0.950 . S
C2562 C2571 1.390 . S
C2563 C2562 1.387 . S
C2563 C2565 1.387 . S
H2564 C2571 0.950 . S
C2565 C2563 1.387 . S
C2565 C2567 1.390 . S
C2565 H2569 0.950 . S
H2566 C2562 0.950 . S
C2567 C2565 1.390 . S
C2567 C2568 1.387 . S
C2567 H2570 0.950 . S
C2568 C2567 1.387 . S
C2568 C2571 1.387 . S
H2569 C2565 0.950 . S
H2570 C2567 0.950 . S
C2571 C2562 1.390 . S
C2571 H2564 0.950 . S
C2571 C2568 1.387 . S
C2572 C2573 1.387 . S
C2572 H2576 0.950 . S
C2572 C2581 1.390 . S
C2573 C2572 1.387 . S
C2573 C2575 1.387 1_556 S
H2574 C2581 0.950 . S
C2575 C2573 1.387 1_554 S
C2575 C2577 1.390 . S
C2575 H2579 0.950 . S
H2576 C2572 0.950 . S
C2577 C2575 1.390 . S
C2577 C2578 1.387 . S
C2577 H2580 0.950 . S
C2578 C2577 1.387 . S
C2578 C2581 1.387 1_554 S
H2579 C2575 0.950 . S
H2580 C2577 0.950 . S
C2581 C2572 1.390 . S
C2581 H2574 0.950 . S
C2581 C2578 1.387 1_556 S
C2582 C2583 1.387 . S
C2582 H2586 0.950 . S
C2582 C2591 1.390 . S
C2583 C2582 1.387 . S
C2583 C2585 1.387 . S
H2584 C2591 0.950 . S
C2585 C2583 1.387 . S
C2585 C2587 1.390 . S
C2585 H2589 0.950 . S
H2586 C2582 0.950 . S
C2587 C2585 1.390 . S
C2587 C2588 1.387 . S
C2587 H2590 0.950 . S
C2588 C2587 1.387 . S
C2588 C2591 1.387 . S
H2589 C2585 0.950 . S
H2590 C2587 0.950 . S
C2591 C2582 1.390 . S
C2591 H2584 0.950 . S
C2591 C2588 1.387 . S
C2113 C20 1.535 . S
C2118 C1369 1.538 . S
C2123 C117 1.537 . S
C2128 C1457 1.537 . S
C2133 C1553 1.537 . S
C2138 C205 1.536 . S
C2143 C1105 1.538 . S
C2148 C293 1.536 . S
C2153 C1164 1.538 . S
C2158 C372 1.536 . S
C2163 C1281 1.537 . S
C2168 C460 1.536 . S
C2173 C1868 1.537 . S
C2178 C577 1.536 . S
C2183 C665 1.536 . S
C2188 C1965 1.537 . S
C2193 C2044 1.538 . S
C2198 C753 1.536 . S
C2203 C841 1.536 . S
C2208 C1641 1.537 . S
C2213 C1701 1.537 . S
C2218 C929 1.536 . S
C2223 C1025 1.536 . S
C2228 C1789 1.538 . S
C2233 C909 1.026 . S
C2238 C57 1.026 . S
C2243 C988 1.025 . S
C2248 C137 1.027 . S
C2253 C225 1.024 . S
C2258 C557 1.026 . S
C2263 C313 1.026 . S
C2268 C645 1.026 . S
C2273 C733 1.025 . S
C2278 C409 1.027 . S
C2283 C497 1.026 . S
C2288 C821 1.024 . S
C2293 C1956 1.015 . S
C2298 C1113 1.015 . S
C2303 C1173 1.014 . S
C2308 C2053 1.013 . S
C2313 C1289 1.014 . S
C2318 C1633 1.015 . S
C2323 C1692 1.011 . S
C2328 C1377 1.011 . S
C2333 C1465 1.014 . S
C2338 C1780 1.012 . S
C2343 C1545 1.012 . S
C2348 C1877 1.014 . S
C2353 C29 1.294 . S
C2358 C1604 1.296 . S
C2363 C1721 1.295 . S
C2368 C108 1.296 . S
C2373 C196 1.297 . S
C2378 C1809 1.295 . S
C2383 C284 1.294 . S
C2388 C1905 1.296 . S
C2393 C1985 1.295 . S
C2398 C381 1.296 . S
C2403 C469 1.295 . S
C2408 C2081 1.296 . S
C2413 C585 1.296 . S
C2418 C1085 1.294 . S
C2423 C673 1.296 . S
C2428 C1201 1.295 . S
C2433 C1261 1.297 . S
C2438 C761 1.294 . S
C2443 C1349 1.296 . S
C2448 C849 1.294 . S
C2453 C937 1.295 . S
C2458 C1437 1.297 . S
C2463 C1516 1.296 . S
C2468 C1017 1.295 . S
C2473 C548 1.625 . S
C2478 C49 1.625 . S
C2483 C145 1.625 . S
C2488 C636 1.625 . S
C2493 C724 1.625 . S
C2498 C233 1.625 . S
C2503 C812 1.625 . S
C2508 C321 1.625 . S
C2513 C900 1.625 . S
C2518 C401 1.625 . S
C2523 C489 1.625 . S
C2528 C997 1.625 . S
C2533 C1613 1.622 . S
C2538 C1076 1.621 . S
C2543 C1193 1.622 . S
C2548 C1729 1.622 . S
C2553 C1817 1.622 . S
C2558 C1252 1.622 . S
C2563 C1897 1.622 . S
C2568 C1340 1.621 . S
C2573 C1428 1.622 . S
C2578 C1993 1.622 . S
C2583 C1525 1.622 . S
C2588 C2073 1.622 . S
