# Generated by pormake.
# Topology kag, (6)-cn, num edge types: 1
# Building blocks:
#     Node 0, Type 0, BuildingBlock: NUHQIS_clean_sbu_0, # of connection points: 6
#     Node 1, Type 0, BuildingBlock: NUHQIS_clean_sbu_0, # of connection points: 6
#     Node 2, Type 0, BuildingBlock: NUHQIS_clean_sbu_0, # of connection points: 6
#     Edge 3, Type (0, 0), BuildingBlock: CIFDUS_clean_linker_0, # of connection points: 2
#     Edge 4, Type (0, 0), BuildingBlock: CIFDUS_clean_linker_0, # of connection points: 2
#     Edge 5, Type (0, 0), BuildingBlock: CIFDUS_clean_linker_0, # of connection points: 2
#     Edge 6, Type (0, 0), BuildingBlock: CIFDUS_clean_linker_0, # of connection points: 2
#     Edge 7, Type (0, 0), BuildingBlock: CIFDUS_clean_linker_0, # of connection points: 2
#     Edge 8, Type (0, 0), BuildingBlock: CIFDUS_clean_linker_0, # of connection points: 2
#     Edge 9, Type (0, 0), BuildingBlock: CIFDUS_clean_linker_0, # of connection points: 2
#     Edge 10, Type (0, 0), BuildingBlock: CIFDUS_clean_linker_0, # of connection points: 2
#     Edge 11, Type (0, 0), BuildingBlock: CIFDUS_clean_linker_0, # of connection points: 2
# Relax obj value: 0.094
# Max RMSD: 0.209
# Mean RMSD: 0.119
data_MOF--net-kag--node1-NUHQIS_clean_sbu_0--edge1-CIFDUS_clean_linker_0
_symmetry_space_group_name_H-M    P1
_symmetry_Int_Tables_number       1
_symmetry_cell_setting            triclinic
loop_
_symmetry_equiv_pos_as_xyz
'x, y, z'
_cell_length_a     45.963589
_cell_length_b     27.105366
_cell_length_c     13.333676
_cell_angle_alpha  87.152861
_cell_angle_beta   96.112042
_cell_angle_gamma 123.1888
loop_
_atom_site_label
_atom_site_type_symbol
_atom_site_fract_x
_atom_site_fract_y
_atom_site_fract_z
_atom_type_partial_charge
Tb0 Tb 0.05037 0.5098 0.00935 0.0
Eu1 Eu 1.03694 0.61378 -0.00859 0.0
C2 C 1.04044 0.55648 0.20103 0.0
C3 C 0.97311 0.47884 0.99024 0.0
C4 C 0.10245 0.44648 0.00163 0.0
C5 C 0.1568 0.45603 0.06658 0.0
C6 C 0.12464 0.4467 0.08281 0.0
C7 C 0.11345 0.45725 0.90392 0.0
C8 C 0.14555 0.46633 0.88764 0.0
C9 C 0.16737 0.46511 0.96863 0.0
C10 C 0.06898 0.43818 0.021 0.0
O11 O 0.06636 0.55155 0.86388 0.0
O12 O 1.02502 0.57285 0.83674 0.0
O13 O 0.09426 0.65954 0.97015 0.0
O14 O 0.09988 0.59024 0.05789 0.0
C15 C 0.04662 0.56243 0.80144 0.0
O16 O 1.02117 0.66552 0.89909 0.0
O17 O 1.03336 0.68129 0.06023 0.0
O18 O 0.05293 0.60717 0.15534 0.0
O19 O 1.02966 0.50846 0.14975 0.0
O20 O 0.99414 0.46398 0.96325 0.0
O21 O 0.98545 0.53223 0.02304 0.0
C22 C 0.11396 0.64253 0.01665 0.0
O23 O 0.0705 0.4673 0.09843 0.0
O24 O 0.04989 0.44058 0.9434 0.0
C25 C 0.9832 0.67718 0.9843 0.0
C26 C 0.91454 0.64895 0.98827 0.0
C27 C 0.93334 0.67727 0.9044 0.0
C28 C 0.9674 0.69156 0.90281 0.0
C29 C 0.96415 0.64731 0.06704 0.0
C30 C 0.93026 0.63376 0.06932 0.0
C31 C 1.0181 0.68839 0.9778 0.0
H32 H 0.17294 0.45457 0.13051 0.0
H33 H 0.11706 0.43946 0.15904 0.0
H34 H 0.09735 0.45873 0.83988 0.0
H35 H 0.15331 0.47435 0.81157 0.0
H36 H 0.92169 0.68816 0.83947 0.0
H37 H 0.98125 0.71309 0.83712 0.0
H38 H 0.9753 0.63416 0.13002 0.0
H39 H 0.91666 0.61228 0.13536 0.0
Tb40 Tb 0.58799 0.10573 0.98965 0.0
Eu41 Eu 0.49957 1.03336 0.98861 0.0
C42 C 0.55226 0.07508 0.19466 0.0
C43 C 0.54012 0.96478 -0.00918 0.0
C44 C 0.6904 0.20388 0.98377 0.0
C45 C 0.74506 0.26763 0.08746 0.0
C46 C 0.70853 0.22846 0.07817 0.0
C47 C 0.70949 0.21949 0.89928 0.0
C48 C 0.74589 0.25817 0.90855 0.0
C49 C 0.76429 0.28263 0.00283 0.0
C50 C 0.65267 0.15648 0.9716 0.0
O51 O 0.56322 1.06748 0.8405 0.0
O52 O 0.51449 0.07082 0.83467 0.0
O53 O 0.51789 0.1285 0.00119 0.0
O54 O 0.57701 0.17533 0.98159 0.0
C55 C 0.53816 0.07016 0.78902 0.0
O56 O 0.44782 0.97322 0.90934 0.0
O57 O 0.45234 1.00592 0.06136 0.0
O58 O 0.5215 1.03614 0.14889 0.0
O59 O 0.57976 0.11127 0.14577 0.0
O60 O 0.57093 1.01348 0.01277 0.0
O61 O 0.51148 0.96455 0.96896 0.0
C62 C 0.54896 0.17632 -0.00827 0.0
O63 O 0.63737 0.12407 0.04838 0.0
O64 O 0.63134 0.16255 0.90756 0.0
C65 C 0.39319 0.9384 0.9827 0.0
C66 C 0.31941 0.8708 0.97849 0.0
C67 C 0.33581 0.89327 0.88896 0.0
C68 C 0.37228 0.92636 0.891 0.0
C69 C 0.37696 0.91622 0.07229 0.0
C70 C 0.34046 0.88247 0.07019 0.0
C71 C 0.43172 0.97281 0.98463 0.0
H72 H 0.75833 0.28506 0.1615 0.0
H73 H 0.69463 0.21656 0.14498 0.0
H74 H 0.69623 0.2005 0.82584 0.0
H75 H 0.7596 0.26909 0.84153 0.0
H76 H 0.32042 0.88454 0.81695 0.0
H77 H 0.38414 0.94278 0.82078 0.0
H78 H 0.39249 0.92445 0.14395 0.0
H79 H 0.32874 0.86615 0.1406 0.0
Tb80 Tb 0.50219 0.53653 0.96824 0.0
Eu81 Eu 0.58816 0.60561 0.0199 0.0
C82 C 0.55169 0.57464 0.79553 0.0
C83 C 0.53881 0.46376 0.98982 0.0
C84 C 0.40997 0.49751 0.93499 0.0
C85 C 0.36241 0.50692 0.86423 0.0
C86 C 0.39024 0.50152 0.85122 0.0
C87 C 0.40205 0.50056 0.03248 0.0
C88 C 0.3739 0.50528 0.04558 0.0
C89 C 0.3534 0.5076 0.96151 0.0
C90 C 0.43775 0.48822 0.91808 0.0
O91 O 0.50808 0.55034 0.13014 0.0
O92 O 0.56646 0.58574 0.16871 0.0
O93 O 0.57779 0.67586 0.03914 0.0
O94 O 0.52114 0.63065 0.96617 0.0
C95 C 0.53547 0.56718 0.19528 0.0
O96 O 0.63211 0.6141 0.11533 0.0
O97 O 0.64133 0.67451 -0.00869 0.0
O98 O 0.57857 0.61392 0.85413 0.0
O99 O 0.52271 0.53295 0.83146 0.0
O100 O 0.51087 0.46516 -0.0033 0.0
O101 O 0.56991 0.512 0.98392 0.0
C102 C 0.55065 0.67762 0.00382 0.0
O103 O 0.46201 0.52783 0.8641 0.0
O104 O 0.45054 0.472 -0.00499 0.0
C105 C 0.68326 0.64983 0.03559 0.0
C106 C 0.74117 0.6474 -0.00439 0.0
C107 C 0.72893 0.63276 0.09158 0.0
C108 C 0.70028 0.63418 0.11142 0.0
C109 C 0.69448 0.6619 0.93825 0.0
C110 C 0.7233 0.66079 0.91853 0.0
C111 C 0.6552 0.65614 0.06144 0.0
H112 H 0.34777 0.51006 0.79781 0.0
H113 H 0.39611 0.49973 0.77539 0.0
H114 H 0.41708 0.49806 0.09856 0.0
H115 H 0.3676 0.50524 0.12156 0.0
H116 H 0.74241 0.62275 0.15254 0.0
H117 H 0.692 0.62465 0.18699 0.0
H118 H 0.68161 0.67353 0.87799 0.0
H119 H 0.73203 0.67146 0.84355 0.0
H120 H 0.99583 0.51423 0.64528 0.0
H121 H 0.10744 0.62275 0.71432 0.0
H122 H 0.11562 0.63354 0.53409 0.0
H123 H 0.09087 0.61083 0.35584 0.0
H124 H 0.97981 0.49288 0.28773 0.0
H125 H 0.97132 0.48668 0.46758 0.0
C126 C 1.02187 0.54026 0.62042 0.0
C127 C 0.05101 0.568 0.6924 0.0
C128 C 1.02639 0.54436 0.51676 0.0
C129 C 0.08467 0.60094 0.65989 0.0
C130 C 0.08934 0.60719 0.55697 0.0
C131 C 0.06489 0.58392 0.38093 0.0
C132 C 1.03593 0.55265 0.30951 0.0
C133 C 0.06041 0.57894 0.48464 0.0
C134 C 1.00239 0.51722 0.34206 0.0
C135 C 0.99756 0.51379 0.44464 0.0
H136 H 0.50181 1.0486 0.31587 0.0
H137 H 0.61054 0.10915 0.32431 0.0
H138 H 0.61569 0.11203 0.50897 0.0
H139 H 0.58909 0.09679 0.6682 0.0
H140 H 0.48105 1.0412 0.65821 0.0
H141 H 0.47591 1.03719 0.47422 0.0
C142 C 0.52663 1.06229 0.35815 0.0
C143 C 0.5557 0.07824 0.30643 0.0
C144 C 0.52953 1.06486 0.46409 0.0
C145 C 0.5878 0.09679 0.36226 0.0
C146 C 0.59072 0.09829 0.46785 0.0
C147 C 0.5644 0.0837 0.62575 0.0
C148 C 0.53544 0.06899 0.67714 0.0
C149 C 0.56174 0.08233 0.51961 0.0
C150 C 0.50377 1.05284 0.62081 0.0
C151 C 0.50077 1.05039 0.51547 0.0
H152 H 0.49827 0.5246 0.6468 0.0
H153 H 0.61081 0.63151 0.69866 0.0
H154 H 0.61532 0.63947 0.51736 0.0
H155 H 0.58768 0.61687 0.34567 0.0
H156 H 0.47521 0.51105 0.29049 0.0
H157 H 0.47032 0.50253 0.47246 0.0
C158 C 0.52377 0.54933 0.61832 0.0
C159 C 0.55417 0.57737 0.68593 0.0
C160 C 0.52619 0.55435 0.51387 0.0
C161 C 0.58702 0.60974 0.64812 0.0
C162 C 0.58964 0.61433 0.54454 0.0
C163 C 0.56199 0.59183 0.373 0.0
C164 C 0.53183 0.5644 0.3045 0.0
C165 C 0.55942 0.58703 0.47696 0.0
C166 C 0.49884 0.53275 0.34162 0.0
C167 C 0.49604 0.52763 0.44557 0.0
H168 H 0.23055 0.52764 0.07933 0.0
H169 H 0.17785 0.41393 0.81765 0.0
H170 H 0.23089 0.41829 0.79138 0.0
H171 H 0.29105 0.45027 0.84703 0.0
H172 H 0.3446 0.56548 0.10681 0.0
H173 H 0.29187 0.5627 0.1317 0.0
C174 C 0.23067 0.50367 0.0168 0.0
C175 C 0.20028 0.4705 0.95061 0.0
C176 C 0.26119 0.50592 0.00256 0.0
C177 C 0.20099 0.4404 0.86898 0.0
C178 C 0.23123 0.44247 0.85433 0.0
C179 C 0.29153 0.47577 0.90805 0.0
C180 C 0.32187 0.50811 0.97478 0.0
C181 C 0.26136 0.47475 0.92103 0.0
C182 C 0.32153 0.53957 0.05497 0.0
C183 C 0.29145 0.53835 0.0689 0.0
H184 H 0.81272 0.27526 0.91145 0.0
H185 H 0.80381 0.38416 0.11538 0.0
H186 H 0.86705 0.45342 0.13 0.0
H187 H 0.92498 0.48422 0.08366 0.0
H188 H 0.9346 0.37534 0.88185 0.0
H189 H 0.87116 0.30552 0.86695 0.0
C190 C 0.82456 0.31429 0.95873 0.0
C191 C 0.80325 0.32419 0.01233 0.0
C192 C 0.86118 0.35413 0.96711 0.0
C193 C 0.81935 0.37475 0.07426 0.0
C194 C 0.8556 0.41469 0.08224 0.0
C195 C 0.91326 0.44518 0.03641 0.0
C196 C 0.93466 0.43516 0.98383 0.0
C197 C 0.87678 0.40492 0.02897 0.0
C198 C 0.91889 0.38406 0.92364 0.0
C199 C 0.88254 0.34416 0.91487 0.0
H200 H 0.59195 0.94223 0.02638 0.0
H201 H 0.48072 0.85621 0.95171 0.0
H202 H 0.47409 0.76103 0.94808 0.0
H203 H 0.49936 0.70081 0.96653 0.0
H204 H 0.6104 0.78612 0.04277 0.0
H205 H 0.61731 0.88178 0.04495 0.0
C206 C 0.56625 0.90272 0.00942 0.0
C207 C 0.53694 0.90696 0.98955 0.0
C208 C 0.56242 0.84738 0.00759 0.0
C209 C 0.50389 0.85488 0.96748 0.0
C210 C 0.49997 0.80005 0.9653 0.0
C211 C 0.52509 0.74027 0.98359 0.0
C212 C 0.55421 0.73574 0.00482 0.0
C213 C 0.52899 0.79561 0.98528 0.0
C214 C 0.58734 0.78774 0.02683 0.0
C215 C 0.59141 0.84279 0.02793 0.0
H216 H 0.89204 0.71962 0.92135 0.0
H217 H 0.85773 0.55265 0.06616 0.0
H218 H 0.80073 0.53705 0.08014 0.0
H219 H 0.76093 0.57154 0.05236 0.0
H220 H 0.79528 0.73705 0.90275 0.0
H221 H 0.85168 0.75126 0.88551 0.0
C222 C 0.87194 0.67916 0.95409 0.0
C223 C 0.87925 0.63747 -0.00738 0.0
C224 C 0.83915 0.66994 0.96013 0.0
C225 C 0.85305 0.58599 0.0372 0.0
C226 C 0.82035 0.57679 0.04459 0.0
C227 C 0.7808 0.61057 0.0158 0.0
C228 C 0.77406 0.65312 0.97865 0.0
C229 C 0.81321 0.61865 0.00674 0.0
C230 C 0.79977 0.70331 0.93062 0.0
C231 C 0.83208 0.71171 0.92152 0.0
H232 H 0.15477 0.74658 0.91854 0.0
H233 H 0.1606 0.6248 0.12794 0.0
H234 H 0.22396 0.68423 0.13505 0.0
H235 H 0.27811 0.76989 0.08058 0.0
H236 H 0.27319 0.89172 0.87002 0.0
H237 H 0.20947 0.83316 0.86421 0.0
C238 C 0.16991 0.73337 0.96641 0.0
C239 C 0.15272 0.6814 0.02313 0.0
C240 C 0.20669 0.76764 0.96966 0.0
C241 C 0.17291 0.66463 0.08366 0.0
C242 C 0.20929 0.69859 0.08782 0.0
C243 C 0.26315 0.78402 0.03419 0.0
C244 C 0.28053 0.83527 0.97601 0.0
C245 C 0.22649 0.7501 0.03108 0.0
C246 C 0.26055 0.85218 0.91488 0.0
C247 C 0.22407 0.81885 0.9119 0.0
H248 H 0.59032 0.44125 -0.0063 0.0
H249 H 0.47839 0.35404 0.98347 0.0
H250 H 0.47152 0.25821 0.98337 0.0
H251 H 0.49716 0.19849 0.98687 0.0
H252 H 0.60913 0.28599 -0.00368 0.0
H253 H 0.61587 0.38164 -0.0038 0.0
C254 C 0.56437 0.40137 -0.00872 0.0
C255 C 0.53494 0.40534 0.98879 0.0
C256 C 0.56053 0.34603 -0.00869 0.0
C257 C 0.5016 0.35278 0.98582 0.0
C258 C 0.4976 0.29771 0.98569 0.0
C259 C 0.52309 0.2384 0.98905 0.0
C260 C 0.55262 0.23457 -0.00836 0.0
C261 C 0.52687 0.29371 0.98866 0.0
C262 C 0.58588 0.28715 -0.00599 0.0
C263 C 0.58981 0.34211 -0.00596 0.0
loop_
_geom_bond_atom_site_label_1
_geom_bond_atom_site_label_2
_geom_bond_distance
_geom_bond_site_symmetry_2
_ccdc_geom_bond_type
Tb0 C10 2.825 . S
Tb0 O11 2.347 1_554 S
Tb0 O14 2.366 . S
Tb0 O19 2.418 . S
Tb0 O20 2.384 1_455 S
Tb0 O23 2.479 . S
Tb0 O24 2.471 1_554 S
Eu1 O12 2.418 . S
Eu1 O13 2.384 1_655 S
Eu1 O16 2.479 . S
Eu1 O17 2.471 1_556 S
Eu1 O18 2.347 1_556 S
Eu1 O21 2.366 . S
Eu1 C31 2.825 . S
C2 O18 1.259 1_455 S
C2 O19 1.265 . S
C3 O20 1.255 1_556 S
C3 O21 1.265 . S
C4 C6 1.375 1_556 S
C4 C7 1.379 . S
C4 C10 1.506 1_556 S
C5 C6 1.384 . S
C5 C9 1.387 1_554 S
C5 H32 0.930 . S
C6 C4 1.375 1_554 S
C6 C5 1.384 . S
C6 H33 0.931 . S
C7 C4 1.379 . S
C7 C8 1.390 . S
C7 H34 0.930 . S
C8 C7 1.390 . S
C8 C9 1.391 . S
C8 H35 0.930 . S
C9 C5 1.387 1_556 S
C9 C8 1.391 . S
C10 Tb0 2.825 . S
C10 C4 1.506 1_554 S
C10 O23 1.238 . S
C10 O24 1.247 1_554 S
O11 Tb0 2.347 1_556 S
O11 C15 1.259 1_455 S
O12 Eu1 2.418 . S
O12 C15 1.265 . S
O13 Eu1 2.384 1_455 S
O13 C22 1.255 1_556 S
O14 Tb0 2.366 . S
O14 C22 1.265 . S
C15 O11 1.259 1_655 S
C15 O12 1.265 . S
O16 Eu1 2.479 . S
O16 C31 1.238 . S
O17 Eu1 2.471 1_554 S
O17 C31 1.247 1_554 S
O18 Eu1 2.347 1_554 S
O18 C2 1.259 1_655 S
O19 Tb0 2.418 . S
O19 C2 1.265 . S
O20 Tb0 2.384 1_655 S
O20 C3 1.255 1_554 S
O21 Eu1 2.366 . S
O21 C3 1.265 . S
C22 O13 1.255 1_554 S
C22 O14 1.265 . S
O23 Tb0 2.479 . S
O23 C10 1.238 . S
O24 Tb0 2.471 1_556 S
O24 C10 1.247 1_556 S
C25 C28 1.372 1_554 S
C25 C29 1.383 . S
C25 C31 1.505 1_554 S
C26 C27 1.387 1_554 S
C26 C30 1.391 . S
C27 C26 1.387 1_556 S
C27 C28 1.384 . S
C27 H36 0.930 . S
C28 C25 1.372 1_556 S
C28 C27 1.384 . S
C28 H37 0.931 . S
C29 C25 1.383 . S
C29 C30 1.390 . S
C29 H38 0.930 . S
C30 C26 1.391 . S
C30 C29 1.390 . S
C30 H39 0.930 . S
C31 Eu1 2.825 . S
C31 O16 1.238 . S
C31 O17 1.247 1_556 S
C31 C25 1.505 1_556 S
H32 C5 0.930 . S
H33 C6 0.931 . S
H34 C7 0.930 . S
H35 C8 0.930 . S
H36 C27 0.930 . S
H37 C28 0.931 . S
H38 C29 0.930 . S
H39 C30 0.930 . S
Tb40 C50 2.825 . S
Tb40 O51 2.347 1_554 S
Tb40 O54 2.366 . S
Tb40 O59 2.418 . S
Tb40 O60 2.384 1_545 S
Tb40 O63 2.479 . S
Tb40 O64 2.471 1_554 S
Eu41 O52 2.418 . S
Eu41 O53 2.384 1_565 S
Eu41 O56 2.479 . S
Eu41 O57 2.471 1_556 S
Eu41 O58 2.347 1_556 S
Eu41 O61 2.366 . S
Eu41 C71 2.825 . S
C42 O58 1.259 1_545 S
C42 O59 1.265 . S
C43 O60 1.253 1_556 S
C43 O61 1.267 . S
C44 C46 1.380 . S
C44 C47 1.374 1_554 S
C44 C50 1.507 . S
C45 C46 1.384 . S
C45 C49 1.387 1_554 S
C45 H72 0.930 . S
C46 C44 1.380 . S
C46 C45 1.384 . S
C46 H73 0.931 . S
C47 C44 1.374 1_556 S
C47 C48 1.390 . S
C47 H74 0.930 . S
C48 C47 1.390 . S
C48 C49 1.391 . S
C48 H75 0.930 . S
C49 C45 1.387 1_556 S
C49 C48 1.391 . S
C50 Tb40 2.825 . S
C50 C44 1.507 . S
C50 O63 1.238 . S
C50 O64 1.247 1_554 S
O51 Tb40 2.347 1_556 S
O51 C55 1.259 1_545 S
O52 Eu41 2.418 . S
O52 C55 1.265 . S
O53 Eu41 2.384 1_545 S
O53 C62 1.255 1_556 S
O54 Tb40 2.366 . S
O54 C62 1.265 . S
C55 O51 1.259 1_565 S
C55 O52 1.265 . S
O56 Eu41 2.479 . S
O56 C71 1.238 . S
O57 Eu41 2.471 1_554 S
O57 C71 1.247 1_554 S
O58 Eu41 2.347 1_554 S
O58 C42 1.259 1_565 S
O59 Tb40 2.418 . S
O59 C42 1.265 . S
O60 Tb40 2.384 1_565 S
O60 C43 1.253 1_554 S
O61 Eu41 2.366 . S
O61 C43 1.267 . S
C62 O53 1.255 1_554 S
C62 O54 1.265 . S
O63 Tb40 2.479 . S
O63 C50 1.238 . S
O64 Tb40 2.471 1_556 S
O64 C50 1.247 1_556 S
C65 C68 1.380 . S
C65 C69 1.374 1_556 S
C65 C71 1.507 . S
C66 C67 1.387 1_554 S
C66 C70 1.391 . S
C67 C66 1.387 1_556 S
C67 C68 1.384 . S
C67 H76 0.930 . S
C68 C65 1.380 . S
C68 C67 1.384 . S
C68 H77 0.931 . S
C69 C65 1.374 1_554 S
C69 C70 1.390 . S
C69 H78 0.930 . S
C70 C66 1.391 . S
C70 C69 1.390 . S
C70 H79 0.930 . S
C71 Eu41 2.825 . S
C71 O56 1.238 . S
C71 O57 1.247 1_556 S
C71 C65 1.507 . S
H72 C45 0.930 . S
H73 C46 0.931 . S
H74 C47 0.930 . S
H75 C48 0.930 . S
H76 C67 0.930 . S
H77 C68 0.931 . S
H78 C69 0.930 . S
H79 C70 0.930 . S
Tb80 C90 2.825 . S
Tb80 O91 2.347 1_556 S
Tb80 O94 2.366 . S
Tb80 O99 2.418 . S
Tb80 O100 2.384 . S
Tb80 O103 2.479 . S
Tb80 O104 2.471 1_556 S
Eu81 O92 2.418 . S
Eu81 O93 2.384 . S
Eu81 O96 2.479 . S
Eu81 O97 2.471 1_554 S
Eu81 O98 2.347 1_554 S
Eu81 O101 2.366 . S
Eu81 C111 2.825 . S
C82 O98 1.259 . S
C82 O99 1.265 . S
C83 O100 1.255 1_554 S
C83 O101 1.265 . S
C84 C86 1.380 . S
C84 C87 1.374 1_556 S
C84 C90 1.507 . S
C85 C86 1.384 . S
C85 C89 1.387 1_556 S
C85 H112 0.930 . S
C86 C84 1.380 . S
C86 C85 1.384 . S
C86 H113 0.931 . S
C87 C84 1.374 1_554 S
C87 C88 1.390 . S
C87 H114 0.930 . S
C88 C87 1.390 . S
C88 C89 1.391 . S
C88 H115 0.930 . S
C89 C85 1.387 1_554 S
C89 C88 1.391 . S
C90 Tb80 2.825 . S
C90 C84 1.507 . S
C90 O103 1.238 . S
C90 O104 1.247 1_556 S
O91 Tb80 2.347 1_554 S
O91 C95 1.259 . S
O92 Eu81 2.418 . S
O92 C95 1.265 . S
O93 Eu81 2.384 . S
O93 C102 1.255 1_554 S
O94 Tb80 2.366 . S
O94 C102 1.265 . S
C95 O91 1.259 . S
C95 O92 1.265 . S
O96 Eu81 2.479 . S
O96 C111 1.238 . S
O97 Eu81 2.471 1_556 S
O97 C111 1.247 1_556 S
O98 Eu81 2.347 1_556 S
O98 C82 1.259 . S
O99 Tb80 2.418 . S
O99 C82 1.265 . S
O100 Tb80 2.384 . S
O100 C83 1.255 1_556 S
O101 Eu81 2.366 . S
O101 C83 1.265 . S
C102 O93 1.255 1_556 S
C102 O94 1.265 . S
O103 Tb80 2.479 . S
O103 C90 1.238 . S
O104 Tb80 2.471 1_554 S
O104 C90 1.247 1_554 S
C105 C108 1.380 . S
C105 C109 1.374 1_554 S
C105 C111 1.507 . S
C106 C107 1.387 1_556 S
C106 C110 1.391 . S
C107 C106 1.387 1_554 S
C107 C108 1.384 . S
C107 H116 0.930 . S
C108 C105 1.380 . S
C108 C107 1.384 . S
C108 H117 0.931 . S
C109 C105 1.374 1_556 S
C109 C110 1.390 . S
C109 H118 0.930 . S
C110 C106 1.391 . S
C110 C109 1.390 . S
C110 H119 0.930 . S
C111 Eu81 2.825 . S
C111 O96 1.238 . S
C111 O97 1.247 1_554 S
C111 C105 1.507 . S
H112 C85 0.930 . S
H113 C86 0.931 . S
H114 C87 0.930 . S
H115 C88 0.930 . S
H116 C107 0.930 . S
H117 C108 0.931 . S
H118 C109 0.930 . S
H119 C110 0.930 . S
H120 C126 0.930 . S
H121 C129 0.930 . S
H122 C130 0.930 . S
H123 C131 0.930 . S
H124 C134 0.930 . S
H125 C135 0.930 . S
C126 H120 0.930 . S
C126 C127 1.355 1_655 S
C126 C128 1.415 . S
C127 C126 1.355 1_455 S
C127 C129 1.419 . S
C128 C126 1.415 . S
C128 C133 1.425 1_655 S
C128 C135 1.409 . S
C129 H121 0.930 . S
C129 C127 1.419 . S
C129 C130 1.362 . S
C130 H122 0.930 . S
C130 C129 1.362 . S
C130 C133 1.409 . S
C131 H123 0.930 . S
C131 C132 1.355 . S
C131 C133 1.415 . S
C132 C131 1.355 . S
C132 C134 1.419 1_455 S
C133 C128 1.425 1_455 S
C133 C130 1.409 . S
C133 C131 1.415 . S
C134 H124 0.930 . S
C134 C132 1.419 1_655 S
C134 C135 1.362 . S
C135 H125 0.930 . S
C135 C128 1.409 . S
C135 C134 1.362 . S
H136 C142 0.930 . S
H137 C145 0.930 . S
H138 C146 0.930 . S
H139 C147 0.930 . S
H140 C150 0.930 . S
H141 C151 0.930 . S
C142 H136 0.930 . S
C142 C143 1.355 1_545 S
C142 C144 1.415 . S
C143 C142 1.355 1_565 S
C143 C145 1.419 . S
C144 C142 1.415 . S
C144 C149 1.425 1_545 S
C144 C151 1.409 . S
C145 H137 0.930 . S
C145 C143 1.419 . S
C145 C146 1.362 . S
C146 H138 0.930 . S
C146 C145 1.362 . S
C146 C149 1.409 . S
C147 H139 0.930 . S
C147 C148 1.355 1_565 S
C147 C149 1.415 . S
C148 C147 1.355 1_545 S
C148 C150 1.419 . S
C149 C144 1.425 1_565 S
C149 C146 1.409 . S
C149 C147 1.415 . S
C150 H140 0.930 . S
C150 C148 1.419 . S
C150 C151 1.362 . S
C151 H141 0.930 . S
C151 C144 1.409 . S
C151 C150 1.362 . S
H152 C158 0.930 . S
H153 C161 0.930 . S
H154 C162 0.930 . S
H155 C163 0.930 . S
H156 C166 0.930 . S
H157 C167 0.930 . S
C158 H152 0.930 . S
C158 C159 1.355 . S
C158 C160 1.415 . S
C159 C158 1.355 . S
C159 C161 1.419 . S
C160 C158 1.415 . S
C160 C165 1.425 . S
C160 C167 1.409 . S
C161 H153 0.930 . S
C161 C159 1.419 . S
C161 C162 1.362 . S
C162 H154 0.930 . S
C162 C161 1.362 . S
C162 C165 1.409 . S
C163 H155 0.930 . S
C163 C164 1.355 . S
C163 C165 1.415 . S
C164 C163 1.355 . S
C164 C166 1.419 . S
C165 C160 1.425 . S
C165 C162 1.409 . S
C165 C163 1.415 . S
C166 H156 0.930 . S
C166 C164 1.419 . S
C166 C167 1.362 . S
C167 H157 0.930 . S
C167 C160 1.409 . S
C167 C166 1.362 . S
H168 C174 0.930 . S
H169 C177 0.930 . S
H170 C178 0.930 . S
H171 C179 0.930 . S
H172 C182 0.930 . S
H173 C183 0.930 . S
C174 H168 0.930 . S
C174 C175 1.355 1_554 S
C174 C176 1.415 . S
C175 C174 1.355 1_556 S
C175 C177 1.419 . S
C176 C174 1.415 . S
C176 C181 1.425 1_554 S
C176 C183 1.409 . S
C177 H169 0.930 . S
C177 C175 1.419 . S
C177 C178 1.362 . S
C178 H170 0.930 . S
C178 C177 1.362 . S
C178 C181 1.409 . S
C179 H171 0.930 . S
C179 C180 1.355 1_556 S
C179 C181 1.415 . S
C180 C179 1.355 1_554 S
C180 C182 1.419 . S
C181 C176 1.425 1_556 S
C181 C178 1.409 . S
C181 C179 1.415 . S
C182 H172 0.930 . S
C182 C180 1.419 . S
C182 C183 1.362 . S
C183 H173 0.930 . S
C183 C176 1.409 . S
C183 C182 1.362 . S
H184 C190 0.930 . S
H185 C193 0.930 . S
H186 C194 0.930 . S
H187 C195 0.930 . S
H188 C198 0.930 . S
H189 C199 0.930 . S
C190 H184 0.930 . S
C190 C191 1.355 . S
C190 C192 1.415 . S
C191 C190 1.355 . S
C191 C193 1.419 1_556 S
C192 C190 1.415 . S
C192 C197 1.425 1_556 S
C192 C199 1.409 . S
C193 H185 0.930 . S
C193 C191 1.419 1_554 S
C193 C194 1.362 . S
C194 H186 0.930 . S
C194 C193 1.362 . S
C194 C197 1.409 . S
C195 H187 0.930 . S
C195 C196 1.355 1_554 S
C195 C197 1.415 . S
C196 C195 1.355 1_556 S
C196 C198 1.419 . S
C197 C192 1.425 1_554 S
C197 C194 1.409 . S
C197 C195 1.415 . S
C198 H188 0.930 . S
C198 C196 1.419 . S
C198 C199 1.362 . S
C199 H189 0.930 . S
C199 C192 1.409 . S
C199 C198 1.362 . S
H200 C206 0.930 . S
H201 C209 0.930 . S
H202 C210 0.930 . S
H203 C211 0.930 . S
H204 C214 0.930 . S
H205 C215 0.930 . S
C206 H200 0.930 . S
C206 C207 1.355 1_554 S
C206 C208 1.415 . S
C207 C206 1.355 1_556 S
C207 C209 1.419 . S
C208 C206 1.415 . S
C208 C213 1.425 1_554 S
C208 C215 1.409 . S
C209 H201 0.930 . S
C209 C207 1.419 . S
C209 C210 1.362 . S
C210 H202 0.930 . S
C210 C209 1.362 . S
C210 C213 1.409 . S
C211 H203 0.930 . S
C211 C212 1.355 1_556 S
C211 C213 1.415 . S
C212 C211 1.355 1_554 S
C212 C214 1.419 . S
C213 C208 1.425 1_556 S
C213 C210 1.409 . S
C213 C211 1.415 . S
C214 H204 0.930 . S
C214 C212 1.419 . S
C214 C215 1.362 . S
C215 H205 0.930 . S
C215 C208 1.409 . S
C215 C214 1.362 . S
H216 C222 0.930 . S
H217 C225 0.930 . S
H218 C226 0.930 . S
H219 C227 0.930 . S
H220 C230 0.930 . S
H221 C231 0.930 . S
C222 H216 0.930 . S
C222 C223 1.355 . S
C222 C224 1.415 . S
C223 C222 1.355 . S
C223 C225 1.419 . S
C224 C222 1.415 . S
C224 C229 1.425 . S
C224 C231 1.409 1_554 S
C225 H217 0.930 . S
C225 C223 1.419 . S
C225 C226 1.362 . S
C226 H218 0.930 . S
C226 C225 1.362 . S
C226 C229 1.409 . S
C227 H219 0.930 . S
C227 C228 1.355 . S
C227 C229 1.415 1_556 S
C228 C227 1.355 . S
C228 C230 1.419 . S
C229 C224 1.425 . S
C229 C226 1.409 . S
C229 C227 1.415 1_554 S
C230 H220 0.930 . S
C230 C228 1.419 . S
C230 C231 1.362 . S
C231 H221 0.930 . S
C231 C224 1.409 1_556 S
C231 C230 1.362 . S
H232 C238 0.930 . S
H233 C241 0.930 . S
H234 C242 0.930 1_556 S
H235 C243 0.930 . S
H236 C246 0.930 . S
H237 C247 0.930 . S
C238 H232 0.930 . S
C238 C239 1.355 . S
C238 C240 1.415 . S
C239 C238 1.355 . S
C239 C241 1.419 . S
C240 C238 1.415 . S
C240 C245 1.425 . S
C240 C247 1.409 . S
C241 H233 0.930 . S
C241 C239 1.419 . S
C241 C242 1.362 . S
C242 H234 0.930 1_554 S
C242 C241 1.362 . S
C242 C245 1.409 . S
C243 H235 0.930 . S
C243 C244 1.355 . S
C243 C245 1.415 . S
C244 C243 1.355 . S
C244 C246 1.419 . S
C245 C240 1.425 . S
C245 C242 1.409 . S
C245 C243 1.415 . S
C246 H236 0.930 . S
C246 C244 1.419 . S
C246 C247 1.362 . S
C247 H237 0.930 . S
C247 C240 1.409 . S
C247 C246 1.362 . S
H248 C254 0.930 . S
H249 C257 0.930 . S
H250 C258 0.930 . S
H251 C259 0.930 . S
H252 C262 0.930 . S
H253 C263 0.930 . S
C254 H248 0.930 . S
C254 C255 1.355 . S
C254 C256 1.415 . S
C255 C254 1.355 . S
C255 C257 1.419 1_554 S
C256 C254 1.415 . S
C256 C261 1.425 1_554 S
C256 C263 1.409 . S
C257 H249 0.930 . S
C257 C255 1.419 1_556 S
C257 C258 1.362 . S
C258 H250 0.930 . S
C258 C257 1.362 . S
C258 C261 1.409 . S
C259 H251 0.930 . S
C259 C260 1.355 1_556 S
C259 C261 1.415 . S
C260 C259 1.355 1_554 S
C260 C262 1.419 . S
C261 C256 1.425 1_556 S
C261 C258 1.409 . S
C261 C259 1.415 . S
C262 H252 0.930 . S
C262 C260 1.419 . S
C262 C263 1.362 . S
C263 H253 0.930 . S
C263 C256 1.409 . S
C263 C262 1.362 . S
C127 C15 1.475 1_455 S
C132 C2 1.475 . S
C143 C42 1.430 1_565 S
C148 C55 1.430 1_545 S
C159 C82 1.486 . S
C164 C95 1.486 . S
C175 C9 0.944 . S
C180 C89 0.950 . S
C191 C49 1.970 . S
C196 C3 2.086 . S
C207 C43 2.578 . S
C212 C102 2.613 1_554 S
C223 C26 0.904 . S
C228 C106 0.870 . S
C239 C22 2.075 . S
C244 C66 1.964 . S
C255 C83 2.616 . S
C260 C62 2.587 . S
