# Generated by pormake.
# Topology unc, (4)-cn, num edge types: 1
# Building blocks:
#     Node 0, Type 0, BuildingBlock: ICAMEG_clean_sbu_1, # of connection points: 4
#     Node 1, Type 0, BuildingBlock: ICAMEG_clean_sbu_1, # of connection points: 4
#     Node 2, Type 0, BuildingBlock: ICAMEG_clean_sbu_1, # of connection points: 4
#     Node 3, Type 0, BuildingBlock: ICAMEG_clean_sbu_1, # of connection points: 4
#     Edge 4, Type (0, 0), BuildingBlock: ZUJKAS_clean_linker_0, # of connection points: 2
#     Edge 5, Type (0, 0), BuildingBlock: ZUJKAS_clean_linker_0, # of connection points: 2
#     Edge 6, Type (0, 0), BuildingBlock: ZUJKAS_clean_linker_0, # of connection points: 2
#     Edge 7, Type (0, 0), BuildingBlock: ZUJKAS_clean_linker_0, # of connection points: 2
#     Edge 8, Type (0, 0), BuildingBlock: ZUJKAS_clean_linker_0, # of connection points: 2
#     Edge 9, Type (0, 0), BuildingBlock: ZUJKAS_clean_linker_0, # of connection points: 2
#     Edge 10, Type (0, 0), BuildingBlock: ZUJKAS_clean_linker_0, # of connection points: 2
#     Edge 11, Type (0, 0), BuildingBlock: ZUJKAS_clean_linker_0, # of connection points: 2
# Relax obj value: 0.022
# Max RMSD: 0.082
# Mean RMSD: 0.082
data_MOF--net-unc--node1-ICAMEG_clean_sbu_1--edge1-ZUJKAS_clean_linker_0
_symmetry_space_group_name_H-M    P1
_symmetry_Int_Tables_number       1
_symmetry_cell_setting            triclinic
loop_
_symmetry_equiv_pos_as_xyz
'x, y, z'
_cell_length_a     41.202081
_cell_length_b     41.228713
_cell_length_c     28.558025
_cell_angle_alpha  89.985375
_cell_angle_beta   90.014343
_cell_angle_gamma 90.049527
loop_
_atom_site_label
_atom_site_type_symbol
_atom_site_fract_x
_atom_site_fract_y
_atom_site_fract_z
_atom_type_partial_charge
Co0 Co 0.05403 0.66885 0.99246 0.0
Co1 Co 0.97398 0.66936 0.0251 0.0
O2 O 0.01413 0.69194 0.00857 0.0
C3 C 0.07648 0.716 0.06426 0.0
O4 O 0.05364 0.70525 0.09234 0.0
C5 C 0.95354 0.71751 0.95364 0.0
O6 O 0.97911 0.70951 0.92883 0.0
O7 O 0.97584 0.64394 0.9659 0.0
O8 O 0.02914 0.63363 0.95995 0.0
H9 H 0.90209 0.57177 0.04409 0.0
H10 H 0.04773 0.73837 0.96729 0.0
O11 O 0.07998 0.70376 0.02365 0.0
H12 H 0.06504 0.68123 0.8177 0.0
H13 H 0.17042 0.66148 0.93982 0.0
H14 H 0.07494 0.60009 0.99467 0.0
H15 H 0.06387 0.65096 0.89213 0.0
H16 H 0.11925 0.68969 0.95839 0.0
O17 O 0.94797 0.70368 0.99267 0.0
H18 H 0.95283 0.60064 0.02486 0.0
H19 H 0.9088 0.69078 0.05849 0.0
H20 H 0.12556 0.57087 0.97616 0.0
H21 H 0.04916 0.76964 0.8937 0.0
H22 H 0.17376 0.60162 0.94851 0.0
H23 H 0.05774 0.74103 0.81818 0.0
O24 O 0.05209 0.644 0.0522 0.0
H25 H 0.98122 0.77126 0.12095 0.0
H26 H 0.96302 0.65308 0.12584 0.0
H27 H 0.96244 0.68439 0.19937 0.0
H28 H 0.97153 0.74394 0.19721 0.0
H29 H 0.98189 0.73894 0.04827 0.0
H30 H 0.8575 0.66292 0.0777 0.0
H31 H 0.85396 0.60297 0.07072 0.0
O32 O 0.99866 0.63457 0.05879 0.0
C33 C 0.99971 0.62876 0.94781 0.0
C34 C 0.90336 0.59789 0.04741 0.0
C35 C 0.87832 0.64905 0.06622 0.0
N36 N 0.93385 0.64732 0.04089 0.0
C37 C 0.93204 0.61436 0.03669 0.0
C38 C 0.90741 0.6647 0.05519 0.0
C39 C 0.87636 0.61541 0.06231 0.0
C40 C 0.05183 0.72578 0.93463 0.0
N41 N 0.05578 0.69288 0.93406 0.0
C42 C 0.05246 0.74361 0.89304 0.0
C43 C 0.05722 0.72753 0.85068 0.0
C44 C 0.06128 0.69398 0.85038 0.0
C45 C 0.06048 0.67695 0.89264 0.0
C46 C 0.14957 0.6478 0.95174 0.0
C47 C 0.09575 0.61361 0.98238 0.0
C48 C 0.12054 0.66365 0.96239 0.0
N49 N 0.09406 0.64651 0.97723 0.0
C50 C 0.12437 0.59695 0.97208 0.0
C51 C 0.15142 0.61422 0.95661 0.0
C52 C 0.02804 0.62938 0.07086 0.0
C53 C 0.97715 0.74533 0.12234 0.0
C54 C 0.96712 0.67895 0.1246 0.0
C55 C 0.96668 0.69657 0.16636 0.0
C56 C 0.97175 0.72999 0.16512 0.0
N57 N 0.97239 0.69419 0.08277 0.0
C58 C 0.97739 0.72693 0.08128 0.0
Co59 Co 0.36152 0.97511 0.27539 0.0
Co60 Co 0.35957 0.05484 0.24237 0.0
O61 O 0.33774 0.01451 0.2593 0.0
C62 C 0.31425 0.9523 0.20428 0.0
O63 O 0.32455 0.97555 0.17657 0.0
C64 C 0.31285 0.07659 0.31515 0.0
O65 O 0.32469 0.05443 0.34341 0.0
O66 O 0.38505 0.05368 0.30168 0.0
O67 O 0.39656 1.00062 0.30731 0.0
H68 H 0.45564 0.12876 0.22303 0.0
H69 H 0.29215 0.98145 0.30142 0.0
O70 O 0.32676 0.94862 0.2447 0.0
H71 H 0.35032 0.96436 0.45032 0.0
H72 H 0.37083 0.85906 0.32861 0.0
H73 H 0.43061 0.95519 0.27256 0.0
H74 H 0.38011 0.96533 0.37546 0.0
H75 H 0.34178 0.90976 0.31007 0.0
O76 O 0.32429 0.07994 0.27403 0.0
H77 H 0.42786 0.07751 0.24266 0.0
H78 H 0.33673 0.11937 0.20845 0.0
H79 H 0.46065 0.90507 0.29104 0.0
H80 H 0.26138 0.98037 0.37548 0.0
H81 H 0.43072 0.85654 0.31929 0.0
H82 H 0.29051 0.97184 0.45064 0.0
O83 O 0.38605 0.9773 0.21537 0.0
H84 H 0.25807 0.04536 0.14576 0.0
H85 H 0.37601 0.06557 0.14167 0.0
H86 H 0.34494 0.06531 0.06788 0.0
H87 H 0.28551 0.05522 0.06963 0.0
H88 H 0.29013 0.04552 0.2187 0.0
H89 H 0.36349 0.17116 0.18881 0.0
H90 H 0.42338 0.17604 0.19589 0.0
O91 O 0.39504 0.0308 0.20926 0.0
C92 C 0.40085 0.0301 0.31953 0.0
C93 C 0.42954 0.1269 0.21966 0.0
C94 C 0.37781 0.15071 0.20052 0.0
N95 N 0.38076 0.09537 0.22634 0.0
C96 C 0.41369 0.09792 0.23061 0.0
C97 C 0.36279 0.12134 0.21178 0.0
C98 C 0.41142 0.15343 0.20448 0.0
C99 C 0.30496 0.97745 0.33395 0.0
N100 N 0.33786 0.9733 0.33407 0.0
C101 C 0.28742 0.97698 0.37579 0.0
C102 C 0.30379 0.97224 0.41795 0.0
C103 C 0.33735 0.96806 0.4178 0.0
C104 C 0.35409 0.96871 0.3753 0.0
C105 C 0.38416 0.88007 0.31643 0.0
C106 C 0.41745 0.93424 0.28512 0.0
C107 C 0.36784 0.90882 0.3058 0.0
N108 N 0.38453 0.93549 0.29063 0.0
C109 C 0.43457 0.9059 0.2954 0.0
C110 C 0.41776 0.87867 0.3112 0.0
C111 C 0.40052 1.00153 0.19698 0.0
C112 C 0.28394 0.04986 0.14455 0.0
C113 C 0.35019 0.06101 0.14273 0.0
C114 C 0.33271 0.06099 0.10083 0.0
C115 C 0.29936 0.05535 0.10184 0.0
N116 N 0.33489 0.05565 0.18449 0.0
C117 C 0.3022 0.0501 0.18575 0.0
Co118 Co 0.9746 0.36134 0.49325 0.0
Co119 Co 0.05453 0.36213 0.52619 0.0
O120 O 0.01473 0.33884 0.50994 0.0
C121 C 0.95398 0.31258 0.56388 0.0
O122 O 0.97953 0.3203 0.58896 0.0
C123 C 0.07744 0.31486 0.4549 0.0
O124 O 0.05487 0.32556 0.42634 0.0
O125 O 0.05269 0.3867 0.4662 0.0
O126 O 0.9993 0.39635 0.46 0.0
H127 H 0.1258 0.46045 0.54221 0.0
H128 H 0.98286 0.2919 0.46947 0.0
O129 O 0.94852 0.3268 0.52511 0.0
H130 H 0.96354 0.34703 0.31877 0.0
H131 H 0.85827 0.36766 0.43985 0.0
H132 H 0.95334 0.42997 0.49403 0.0
H133 H 0.96375 0.37798 0.3926 0.0
H134 H 0.90956 0.33986 0.45912 0.0
O135 O 0.08064 0.32718 0.49551 0.0
H136 H 0.07531 0.43097 0.52358 0.0
H137 H 0.1197 0.34167 0.56084 0.0
H138 H 0.90261 0.45878 0.47475 0.0
H139 H 0.98254 0.25992 0.39647 0.0
H140 H 0.85462 0.42756 0.44745 0.0
H141 H 0.97291 0.28753 0.32041 0.0
O142 O 0.97627 0.38648 0.5527 0.0
H143 H 0.04971 0.26172 0.62577 0.0
H144 H 0.06404 0.38048 0.62644 0.0
H145 H 0.06512 0.3505 0.70112 0.0
H146 H 0.05802 0.29067 0.7011 0.0
H147 H 0.04835 0.29269 0.55191 0.0
H148 H 0.17076 0.37015 0.57954 0.0
H149 H 0.17399 0.42999 0.57042 0.0
O150 O 0.02948 0.3974 0.55825 0.0
C151 C 0.02866 0.40136 0.44762 0.0
C152 C 0.12466 0.43439 0.54648 0.0
C153 C 0.14991 0.3837 0.56738 0.0
N154 N 0.09447 0.38469 0.54151 0.0
C155 C 0.09611 0.41758 0.53611 0.0
C156 C 0.12095 0.3677 0.55666 0.0
C157 C 0.1517 0.41728 0.56226 0.0
C158 C 0.97839 0.30404 0.43654 0.0
N159 N 0.97323 0.33675 0.43534 0.0
C160 C 0.97835 0.28582 0.39531 0.0
C161 C 0.97299 0.30133 0.35264 0.0
C162 C 0.96775 0.33472 0.35169 0.0
C163 C 0.96799 0.35214 0.39361 0.0
C164 C 0.87904 0.38153 0.45163 0.0
C165 C 0.93261 0.41625 0.48191 0.0
C166 C 0.90812 0.36592 0.4627 0.0
N167 N 0.93448 0.38332 0.47737 0.0
C168 C 0.90393 0.43268 0.47116 0.0
C169 C 0.87701 0.41515 0.45589 0.0
C170 C 1.00005 0.40192 0.57064 0.0
C171 C 0.05292 0.28777 0.62623 0.0
C172 C 0.06072 0.35447 0.62612 0.0
C173 C 0.06148 0.33761 0.66853 0.0
C174 C 0.05752 0.30404 0.66848 0.0
N175 N 0.05617 0.33835 0.58481 0.0
C176 C 0.05233 0.30543 0.58449 0.0
Co177 Co 0.6691 0.05425 0.77287 0.0
Co178 Co 0.66723 0.97379 0.74159 0.0
O179 O 0.69104 0.0137 0.75636 0.0
C180 C 0.71722 0.07374 0.70037 0.0
O181 O 0.71003 0.04743 0.67668 0.0
C182 C 0.71629 0.95344 0.81172 0.0
O183 O 0.70915 0.97951 0.83595 0.0
O184 O 0.64286 0.97668 0.80154 0.0
O185 O 0.63455 0.03023 0.80812 0.0
H186 H 0.56783 0.90376 0.72806 0.0
H187 H 0.73913 0.04687 0.79384 0.0
O188 O 0.70305 0.07984 0.73896 0.0
H189 H 0.68698 0.06718 0.94642 0.0
H190 H 0.66438 0.17114 0.82367 0.0
H191 H 0.60055 0.0759 0.7741 0.0
H192 H 0.65444 0.06582 0.874 0.0
H193 H 0.69155 0.11952 0.8046 0.0
O194 O 0.70159 0.94744 0.77348 0.0
H195 H 0.59808 0.95407 0.74499 0.0
H196 H 0.68672 0.90788 0.70887 0.0
H197 H 0.57236 0.12697 0.79322 0.0
H198 H 0.77267 0.04842 0.86535 0.0
H199 H 0.60434 0.17505 0.8182 0.0
H200 H 0.74657 0.05852 0.94237 0.0
O201 O 0.64285 0.05211 0.71449 0.0
H202 H 0.76778 0.97567 0.64209 0.0
H203 H 0.64874 0.96308 0.64164 0.0
H204 H 0.67875 0.96042 0.56707 0.0
H205 H 0.73873 0.96664 0.56699 0.0
H206 H 0.73677 0.97859 0.71583 0.0
H207 H 0.65746 0.857 0.6919 0.0
H208 H 0.59756 0.85476 0.70131 0.0
O209 O 0.63229 0.99885 0.70867 0.0
C210 C 0.62896 1.00099 0.82045 0.0
C211 C 0.59391 0.90446 0.72367 0.0
C212 C 0.64422 0.87821 0.70344 0.0
N213 N 0.64408 0.93399 0.72754 0.0
C214 C 0.61116 0.9329 0.73308 0.0
C215 C 0.66066 0.90707 0.71318 0.0
C216 C 0.61062 0.87697 0.70871 0.0
C217 C 0.72764 0.0516 0.82716 0.0
N218 N 0.69486 0.05628 0.8297 0.0
C219 C 0.74674 0.05232 0.86756 0.0
C220 C 0.73207 0.05792 0.91077 0.0
C221 C 0.69864 0.06274 0.91307 0.0
C222 C 0.68031 0.06182 0.87195 0.0
C223 C 0.65017 0.15034 0.81291 0.0
C224 C 0.61461 0.09666 0.78522 0.0
C225 C 0.66543 0.12107 0.80198 0.0
N226 N 0.64762 0.09466 0.78858 0.0
C227 C 0.59852 0.12554 0.79588 0.0
C228 C 0.61648 0.15251 0.80985 0.0
C229 C 0.62748 0.02828 0.69659 0.0
C230 C 0.74166 0.97283 0.64168 0.0
C231 C 0.67481 0.96602 0.6419 0.0
C232 C 0.69169 0.96436 0.59956 0.0
C233 C 0.72534 0.96782 0.59955 0.0
N234 N 0.691 0.97093 0.68309 0.0
C235 C 0.72399 0.97431 0.68335 0.0
H236 H 0.98292 0.59394 0.11881 0.0
H237 H 0.99191 0.55475 0.18107 0.0
H238 H 0.09526 0.56943 0.17028 0.0
H239 H 0.08653 0.60946 0.10796 0.0
H240 H 0.02685 0.49721 0.17753 0.0
H241 H 0.07793 0.5815 0.31093 0.0
H242 H 0.05704 0.59581 0.25934 0.0
H243 H 0.09784 0.58087 0.25492 0.0
C244 C 1.00764 0.5891 0.12961 0.0
C245 C 0.034 0.60514 0.1084 0.0
C246 C 0.01271 0.56655 0.16526 0.0
C247 C 0.0442 0.55941 0.18074 0.0
C248 C 0.0707 0.57501 0.15947 0.0
H249 H 0.087 0.42035 0.4089 0.0
H250 H 0.0953 0.45776 0.34295 0.0
C251 C 0.06565 0.59775 0.12367 0.0
C252 C 0.04871 0.53517 0.21865 0.0
H253 H 0.07089 0.52698 0.33345 0.0
C254 C 0.03683 0.50364 0.21144 0.0
C255 C 0.06185 0.54356 0.26285 0.0
C256 C 0.07423 0.5773 0.27288 0.0
C257 C 0.03672 0.48062 0.24761 0.0
C258 C 0.04856 0.48941 0.29229 0.0
C259 C 0.06186 0.5204 0.29906 0.0
C260 C 0.04423 0.46776 0.33321 0.0
C261 C 0.02321 0.44724 0.23814 0.0
C262 C 0.01289 0.46164 0.35002 0.0
C263 C 1.00804 0.44057 0.38757 0.0
C264 C 0.0345 0.42498 0.40922 0.0
C265 C 0.06607 0.43175 0.39293 0.0
C266 C 0.07088 0.45312 0.35532 0.0
H267 H 0.02269 0.44169 0.20007 0.0
H268 H 0.03773 0.42837 0.25634 0.0
H269 H 0.99796 0.4459 0.25156 0.0
H270 H 0.99205 0.47309 0.33382 0.0
H271 H 0.9834 0.43632 0.39926 0.0
H272 H 0.40864 0.08537 0.3724 0.0
H273 H 0.44749 0.09412 0.43651 0.0
H274 H 0.4868 0.99852 0.41437 0.0
H275 H 0.44822 0.98937 0.35101 0.0
H276 H 0.45399 0.04885 0.52026 0.0
H277 H 0.56671 0.064 0.41572 0.0
H278 H 0.52675 0.07172 0.39202 0.0
H279 H 0.54092 0.03081 0.39864 0.0
C280 C 0.42576 0.06634 0.38091 0.0
C281 C 0.42527 0.03667 0.35653 0.0
C282 C 0.44786 0.07136 0.41757 0.0
C283 C 0.47013 0.04705 0.42978 0.0
C284 C 0.47002 0.0177 0.4051 0.0
H285 H 0.58245 0.98609 0.66141 0.0
H286 H 0.54339 0.9956 0.59871 0.0
C287 C 0.44781 0.0125 0.36898 0.0
C288 C 0.49266 0.0513 0.46973 0.0
H289 H 0.57331 0.05327 0.49726 0.0
C290 C 0.48004 0.05038 0.51533 0.0
C291 C 0.5266 0.05338 0.46309 0.0
C292 C 0.54119 0.0553 0.41475 0.0
C293 C 0.50066 0.04987 0.55452 0.0
C294 C 0.53466 0.05027 0.54778 0.0
C295 C 0.54722 0.05285 0.50227 0.0
C296 C 0.55752 0.04549 0.58722 0.0
C297 C 0.48604 0.04814 0.60286 0.0
C298 C 0.57859 0.07039 0.60132 0.0
C299 C 0.60095 0.06513 0.63752 0.0
C300 C 0.60294 0.03467 0.65965 0.0
C301 C 0.58168 1.00984 0.64525 0.0
C302 C 0.55919 0.01525 0.60952 0.0
H303 H 0.46011 0.05552 0.60282 0.0
H304 H 0.48753 0.02282 0.61587 0.0
H305 H 0.49962 0.06387 0.62762 0.0
H306 H 0.57777 0.09385 0.58425 0.0
H307 H 0.61703 0.08473 0.64756 0.0
H308 H 0.04251 0.58494 0.91144 0.0
H309 H 0.03353 0.54653 0.84784 0.0
H310 H 0.93444 0.57874 0.8352 0.0
H311 H 0.94303 0.61743 0.89944 0.0
H312 H 0.97948 0.49542 0.84137 0.0
H313 H 0.98178 0.58956 0.70116 0.0
H314 H 1.00057 0.59624 0.7575 0.0
H315 H 0.95723 0.59637 0.75247 0.0
C316 C 0.01869 0.58389 0.89543 0.0
C317 C 0.9935 0.60444 0.91053 0.0
C318 C 0.01363 0.56181 0.85912 0.0
C319 C 0.98341 0.55996 0.83679 0.0
C320 C 0.95799 0.57998 0.85199 0.0
H321 H 0.94342 0.41267 0.61937 0.0
H322 H 0.93473 0.45124 0.68368 0.0
C323 C 0.96294 0.60198 0.88872 0.0
C324 C 0.97921 0.5375 0.79681 0.0
H325 H 0.9794 0.53503 0.67727 0.0
C326 C 0.97886 0.504 0.80547 0.0
C327 C 0.97876 0.54891 0.75015 0.0
C328 C 0.97971 0.58471 0.73931 0.0
C329 C 0.97886 0.48153 0.76849 0.0
C330 C 0.97927 0.49295 0.72182 0.0
C331 C 0.97882 0.52644 0.71316 0.0
C332 C 0.98354 0.47052 0.68182 0.0
C333 C 0.97995 0.44574 0.77933 0.0
C334 C 0.01369 0.46897 0.6593 0.0
C335 C 0.01882 0.44697 0.62293 0.0
C336 C 0.99375 0.42617 0.60797 0.0
C337 C 0.96324 0.42831 0.62997 0.0
C338 C 0.95823 0.45024 0.66676 0.0
H339 H 0.98214 0.4409 0.81747 0.0
H340 H 0.95744 0.43399 0.76631 0.0
H341 H 1.00077 0.43429 0.76103 0.0
H342 H 0.0335 0.48446 0.67047 0.0
H343 H 0.04259 0.44617 0.60678 0.0
H344 H 0.42037 0.94353 0.1584 0.0
H345 H 0.46113 0.9355 0.09676 0.0
H346 H 0.47637 0.03883 0.0894 0.0
H347 H 0.4364 0.04714 0.15075 0.0
H348 H 0.46227 0.96061 1.00434 0.0
H349 H 0.56833 1.00348 0.10593 0.0
H350 H 0.53036 0.99247 0.13327 0.0
H351 H 0.53534 0.03185 0.10698 0.0
C352 C 0.43251 0.96453 0.14379 0.0
C353 C 0.42511 0.99597 0.15981 0.0
C354 C 0.45576 0.95988 0.10857 0.0
C355 C 0.47218 0.98653 0.08911 0.0
C356 C 0.46455 0.01786 0.10464 0.0
H357 H 0.59578 0.04673 0.87051 0.0
H358 H 0.5585 0.03831 0.93551 0.0
C359 C 0.44144 0.02254 0.13965 0.0
C360 C 0.49675 0.9822 0.05166 0.0
H361 H 0.57435 1.00295 0.02221 0.0
C362 C 0.48697 0.96925 0.00841 0.0
C363 C 0.52901 0.99336 0.05717 0.0
C364 C 0.54151 1.00576 0.10351 0.0
C365 C 0.50809 0.96901 0.96971 0.0
C366 C 0.53975 0.98181 0.97468 0.0
C367 C 0.54996 0.99335 0.01847 0.0
C368 C 0.5618 0.98599 0.93415 0.0
C369 C 0.49599 0.95666 0.92317 0.0
C370 C 0.57606 0.95926 0.91176 0.0
C371 C 0.59769 0.96395 0.87447 0.0
C372 C 0.60539 0.99548 0.85901 0.0
C373 C 0.59066 0.02209 0.88142 0.0
C374 C 0.56927 0.01737 0.91866 0.0
H375 H 0.4696 0.95112 0.9238 0.0
H376 H 0.50075 0.97483 0.89529 0.0
H377 H 0.50928 0.93418 0.9138 0.0
H378 H 0.5708 0.93484 0.92354 0.0
H379 H 0.60853 0.9429 0.85806 0.0
H380 H 0.28252 0.90717 0.25721 0.0
H381 H 0.24009 0.86948 0.23227 0.0
H382 H 0.24391 0.90891 0.09264 0.0
H383 H 0.28637 0.94712 0.11725 0.0
H384 H 0.17498 0.89051 0.17426 0.0
H385 H 0.26147 0.80224 0.09507 0.0
H386 H 0.2733 0.82829 0.14302 0.0
H387 H 0.2675 0.84511 0.08579 0.0
C388 C 0.27435 0.90797 0.22117 0.0
C389 C 0.28799 0.93008 0.18911 0.0
C390 C 0.25002 0.88646 0.2071 0.0
C391 C 0.23902 0.88647 0.16071 0.0
C392 C 0.2522 0.90864 0.12863 0.0
H393 H 0.11853 0.75022 0.00959 0.0
H394 H 0.15603 0.79289 0.03342 0.0
C395 C 0.27644 0.93039 0.14275 0.0
C396 C 0.21434 0.86258 0.14573 0.0
H397 H 0.20604 0.78903 0.09247 0.0
C398 C 0.18162 0.86832 0.15626 0.0
C399 C 0.22327 0.83382 0.1223 0.0
C400 C 0.25827 0.82667 0.11081 0.0
C401 C 0.15736 0.84601 0.14344 0.0
C402 C 0.16631 0.81686 0.12061 0.0
C403 C 0.19916 0.8113 0.11005 0.0
C404 C 0.14212 0.79194 0.10647 0.0
C405 C 0.12238 0.85426 0.15351 0.0
C406 C 0.12171 0.77709 0.13962 0.0
C407 C 0.09991 0.75276 0.12599 0.0
C408 C 0.09854 0.74248 0.07909 0.0
C409 C 0.11902 0.75742 0.04607 0.0
C410 C 0.14051 0.78187 0.05962 0.0
H411 H 0.11895 0.88077 0.15844 0.0
H412 H 0.10624 0.84598 0.12474 0.0
H413 H 0.11475 0.84197 0.18628 0.0
H414 H 0.12305 0.78388 0.17619 0.0
H415 H 0.08461 0.7416 0.1523 0.0
H416 H 0.2896 0.08595 0.40425 0.0
H417 H 0.2472 0.12413 0.42904 0.0
H418 H 0.23381 0.15427 0.28582 0.0
H419 H 0.2761 0.11662 0.26074 0.0
H420 H 0.24932 0.19646 0.40533 0.0
H421 H 0.14012 0.1311 0.33996 0.0
H422 H 0.17763 0.11049 0.3538 0.0
H423 H 0.17437 0.13384 0.301 0.0
C424 C 0.27746 0.10054 0.37802 0.0
C425 C 0.2863 0.09831 0.33057 0.0
C426 C 0.2533 0.12231 0.39224 0.0
C427 C 0.23728 0.14174 0.35915 0.0
C428 C 0.24568 0.13921 0.31177 0.0
H429 H 0.08714 0.28992 0.36681 0.0
H430 H 0.12603 0.2478 0.34377 0.0
C431 C 0.26998 0.11777 0.2976 0.0
C432 C 0.21291 0.16597 0.37411 0.0
H433 H 0.13222 0.18437 0.36846 0.0
C434 C 0.22367 0.19379 0.39766 0.0
C435 C 0.17963 0.1625 0.36329 0.0
C436 C 0.16701 0.13282 0.33836 0.0
C437 C 0.20203 0.21862 0.41011 0.0
C438 C 0.16854 0.21502 0.39993 0.0
C439 C 0.15783 0.1871 0.37633 0.0
C440 C 0.14429 0.23985 0.41393 0.0
C441 C 0.21547 0.24887 0.43273 0.0
C442 C 0.14111 0.24883 0.46108 0.0
C443 C 0.11927 0.27304 0.47419 0.0
C444 C 0.09966 0.28845 0.44053 0.0
C445 C 0.10199 0.27863 0.39351 0.0
C446 C 0.12418 0.25456 0.38033 0.0
H447 H 0.2417 0.25204 0.42496 0.0
H448 H 0.2023 0.27085 0.42074 0.0
H449 H 0.21278 0.24694 0.47129 0.0
H450 H 0.15562 0.23716 0.48783 0.0
H451 H 0.11775 0.27964 0.51085 0.0
H452 H 0.72349 0.13753 0.72231 0.0
H453 H 0.76576 0.17514 0.69737 0.0
H454 H 0.81142 0.09876 0.61784 0.0
H455 H 0.76807 0.06125 0.6411 0.0
H456 H 0.8278 0.17521 0.71384 0.0
H457 H 0.81015 0.16858 0.52157 0.0
H458 H 0.78178 0.1509 0.56228 0.0
H459 H 0.81874 0.12997 0.54765 0.0
C460 C 0.74236 0.12879 0.69911 0.0
C461 C 0.74238 0.09649 0.6834 0.0
C462 C 0.76659 0.15032 0.68496 0.0
C463 C 0.79168 0.14 0.65523 0.0
C464 C 0.79191 0.10761 0.63974 0.0
H465 H 0.96575 0.26304 0.62565 0.0
H466 H 0.92859 0.21924 0.64808 0.0
C467 C 0.76722 0.08613 0.65322 0.0
C468 C 0.81778 0.16322 0.64185 0.0
H469 H 0.85559 0.19841 0.54834 0.0
C470 C 0.83385 0.1803 0.67761 0.0
C471 C 0.82555 0.17009 0.59459 0.0
C472 C 0.80795 0.15417 0.5543 0.0
C473 C 0.85689 0.20444 0.66753 0.0
C474 C 0.86509 0.2109 0.6203 0.0
C475 C 0.84949 0.19336 0.58456 0.0
C476 C 0.8882 0.23706 0.60683 0.0
C477 C 0.87109 0.22365 0.70762 0.0
C478 C 0.87833 0.26113 0.57511 0.0
C479 C 0.89971 0.28565 0.56148 0.0
C480 C 0.93139 0.28691 0.57966 0.0
C481 C 0.94133 0.26294 0.61158 0.0
C482 C 0.92004 0.23799 0.62459 0.0
H483 H 0.85567 0.22213 0.73946 0.0
H484 H 0.8953 0.21369 0.71661 0.0
H485 H 0.87402 0.2496 0.69812 0.0
H486 H 0.85395 0.26103 0.56091 0.0
H487 H 0.8913 0.30379 0.53687 0.0
H488 H 0.76651 0.96634 0.87185 0.0
H489 H 0.81087 0.92984 0.89417 0.0
H490 H 0.76789 0.85352 0.81134 0.0
H491 H 0.72455 0.89018 0.78734 0.0
H492 H 0.81294 0.87588 0.94072 0.0
H493 H 0.85799 0.84947 0.76288 0.0
H494 H 0.82862 0.88092 0.77408 0.0
H495 H 0.81585 0.83931 0.76751 0.0
C496 C 0.76664 0.94178 0.85835 0.0
C497 C 0.74223 0.9312 0.82753 0.0
C498 C 0.79202 0.92096 0.87102 0.0
C499 C 0.79329 0.88912 0.85345 0.0
C500 C 0.76824 0.87828 0.82398 0.0
H501 H 0.89073 0.72672 0.97971 0.0
H502 H 0.85394 0.76975 0.9551 0.0
C503 C 0.74325 0.89919 0.81064 0.0
C504 C 0.82003 0.86678 0.86714 0.0
H505 H 0.87414 0.81193 0.82316 0.0
C506 C 0.82658 0.86221 0.91494 0.0
C507 C 0.83853 0.84944 0.83364 0.0
C508 C 0.83514 0.85533 0.7817 0.0
C509 C 0.85004 0.83987 0.93016 0.0
C510 C 0.8666 0.8206 0.89674 0.0
C511 C 0.86107 0.82618 0.8489 0.0
C512 C 0.889 0.79397 0.91067 0.0
C513 C 0.857 0.83752 0.98195 0.0
C514 C 0.92054 0.79211 0.89204 0.0
C515 C 0.94144 0.76689 0.90513 0.0
C516 C 0.93122 0.74326 0.9374 0.0
C517 C 0.89949 0.74484 0.9553 0.0
C518 C 0.87849 0.76965 0.94159 0.0
H519 H 0.85166 0.86078 1.00001 0.0
H520 H 0.84116 0.81865 0.99766 0.0
H521 H 0.88271 0.83099 0.98875 0.0
H522 H 0.92914 0.8104 0.86777 0.0
H523 H 0.96578 0.7663 0.8908 0.0
loop_
_geom_bond_atom_site_label_1
_geom_bond_atom_site_label_2
_geom_bond_distance
_geom_bond_site_symmetry_2
_ccdc_geom_bond_type
Co0 O2 2.143 1_556 S
Co0 O8 2.074 . S
Co0 O11 2.092 1_556 S
Co0 O24 2.097 1_556 S
Co0 N41 2.151 . S
Co0 N49 2.214 1_556 S
Co1 O2 2.160 1_655 S
Co1 O7 2.058 1_554 S
Co1 O17 2.057 1_554 S
Co1 O32 2.037 . S
Co1 N36 2.145 . S
Co1 N57 2.257 . S
O2 Co0 2.143 1_554 S
O2 Co1 2.160 1_455 S
C3 O4 1.278 . S
C3 O11 1.224 . S
O4 C3 1.278 . S
C5 O6 1.245 . S
C5 O17 1.232 . S
O6 C5 1.245 . S
O7 Co1 2.058 1_556 S
O7 C33 1.269 . S
O8 Co0 2.074 . S
O8 C33 1.257 1_455 S
H9 C34 0.930 . S
H10 C40 0.930 . S
O11 Co0 2.092 1_554 S
O11 C3 1.224 . S
H12 C44 0.929 . S
H13 C46 0.930 . S
H14 C47 0.930 . S
H15 C45 0.929 . S
H16 C48 0.928 . S
O17 Co1 2.057 1_556 S
O17 C5 1.232 . S
H18 C37 0.929 . S
H19 C38 0.928 1_556 S
H20 C50 0.931 . S
H21 C42 0.929 . S
H22 C51 0.930 . S
H23 C43 0.931 . S
O24 Co0 2.097 1_554 S
O24 C52 1.214 . S
H25 C53 0.929 . S
H26 C54 0.929 . S
H27 C55 0.930 . S
H28 C56 0.929 . S
H29 C58 0.930 . S
H30 C35 0.930 . S
H31 C39 0.930 . S
O32 Co1 2.037 . S
O32 C52 1.234 1_655 S
C33 O7 1.269 . S
C33 O8 1.257 1_655 S
C34 H9 0.930 . S
C34 C37 1.388 . S
C34 C39 1.418 . S
C35 H30 0.930 . S
C35 C38 1.404 . S
C35 C39 1.353 . S
N36 Co1 2.145 . S
N36 C37 1.397 . S
N36 C38 1.334 . S
C37 H18 0.929 . S
C37 C34 1.388 . S
C37 N36 1.397 . S
C38 H19 0.928 1_554 S
C38 C35 1.404 . S
C38 N36 1.334 . S
C39 H31 0.930 . S
C39 C34 1.418 . S
C39 C35 1.353 . S
C40 H10 0.930 . S
C40 N41 1.330 . S
C40 C42 1.446 . S
N41 Co0 2.151 . S
N41 C40 1.330 . S
N41 C45 1.418 . S
C42 H21 0.929 . S
C42 C40 1.446 . S
C42 C43 1.332 . S
C43 H23 0.931 . S
C43 C42 1.332 . S
C43 C44 1.267 . S
C44 H12 0.929 . S
C44 C43 1.267 . S
C44 C45 1.251 . S
C45 H15 0.929 . S
C45 N41 1.418 . S
C45 C44 1.251 . S
C46 H13 0.930 . S
C46 C48 1.406 . S
C46 C51 1.259 1_556 S
C47 H14 0.930 . S
C47 N49 1.325 . S
C47 C50 1.357 . S
C48 H16 0.928 . S
C48 C46 1.406 . S
C48 N49 1.261 1_556 S
N49 Co0 2.214 1_554 S
N49 C47 1.325 . S
N49 C48 1.261 1_554 S
C50 H20 0.931 . S
C50 C47 1.357 . S
C50 C51 1.314 . S
C51 H22 0.930 . S
C51 C46 1.259 1_554 S
C51 C50 1.314 . S
C52 O24 1.214 . S
C52 O32 1.234 1_455 S
C53 H25 0.929 . S
C53 C56 1.391 . S
C53 C58 1.391 . S
C54 H26 0.929 . S
C54 C55 1.390 . S
C54 N57 1.391 . S
C55 H27 0.930 . S
C55 C54 1.390 . S
C55 C56 1.392 . S
C56 H28 0.929 . S
C56 C53 1.391 . S
C56 C55 1.392 . S
N57 Co1 2.257 . S
N57 C54 1.391 . S
N57 C58 1.388 . S
C58 H29 0.930 . S
C58 C53 1.391 . S
C58 N57 1.388 . S
Co59 O61 2.117 1_565 S
Co59 O67 2.074 . S
Co59 O70 2.093 . S
Co59 O83 2.097 . S
Co59 N100 2.151 . S
Co59 N108 2.214 . S
Co60 O61 2.186 . S
Co60 O66 2.058 . S
Co60 O76 2.057 . S
Co60 O91 2.037 . S
Co60 N95 2.145 . S
Co60 N116 2.257 . S
O61 Co59 2.117 1_545 S
O61 Co60 2.186 . S
C62 O63 1.278 . S
C62 O70 1.224 . S
O63 C62 1.278 . S
C64 O65 1.245 . S
C64 O76 1.232 . S
O65 C64 1.245 . S
O66 Co60 2.058 . S
O66 C92 1.269 . S
O67 Co59 2.074 . S
O67 C92 1.257 1_565 S
H68 C93 0.930 . S
H69 C99 0.930 . S
O70 Co59 2.093 . S
O70 C62 1.224 . S
H71 C103 0.929 . S
H72 C105 0.930 . S
H73 C106 0.930 . S
H74 C104 0.929 . S
H75 C107 0.928 . S
O76 Co60 2.057 . S
O76 C64 1.232 . S
H77 C96 0.929 . S
H78 C97 0.929 . S
H79 C109 0.931 . S
H80 C101 0.929 . S
H81 C110 0.930 . S
H82 C102 0.931 . S
O83 Co59 2.097 . S
O83 C111 1.214 . S
H84 C112 0.929 . S
H85 C113 0.929 . S
H86 C114 0.930 . S
H87 C115 0.929 . S
H88 C117 0.930 . S
H89 C94 0.930 . S
H90 C98 0.930 . S
O91 Co60 2.037 . S
O91 C111 1.234 1_545 S
C92 O66 1.269 . S
C92 O67 1.257 1_545 S
C93 H68 0.930 . S
C93 C96 1.388 . S
C93 C98 1.418 . S
C94 H89 0.930 . S
C94 C97 1.404 . S
C94 C98 1.353 . S
N95 Co60 2.145 . S
N95 C96 1.397 . S
N95 C97 1.334 . S
C96 H77 0.929 . S
C96 C93 1.388 . S
C96 N95 1.397 . S
C97 H78 0.929 . S
C97 C94 1.404 . S
C97 N95 1.334 . S
C98 H90 0.930 . S
C98 C93 1.418 . S
C98 C94 1.353 . S
C99 H69 0.930 . S
C99 N100 1.330 . S
C99 C101 1.446 . S
N100 Co59 2.151 . S
N100 C99 1.330 . S
N100 C104 1.418 . S
C101 H80 0.929 . S
C101 C99 1.446 . S
C101 C102 1.332 . S
C102 H82 0.931 . S
C102 C101 1.332 . S
C102 C103 1.267 . S
C103 H71 0.929 . S
C103 C102 1.267 . S
C103 C104 1.251 . S
C104 H74 0.929 . S
C104 N100 1.418 . S
C104 C103 1.251 . S
C105 H72 0.930 . S
C105 C107 1.406 . S
C105 C110 1.261 . S
C106 H73 0.930 . S
C106 N108 1.325 . S
C106 C109 1.357 . S
C107 H75 0.928 . S
C107 C105 1.406 . S
C107 N108 1.261 . S
N108 Co59 2.214 . S
N108 C106 1.325 . S
N108 C107 1.261 . S
C109 H79 0.931 . S
C109 C106 1.357 . S
C109 C110 1.312 . S
C110 H81 0.930 . S
C110 C105 1.261 . S
C110 C109 1.312 . S
C111 O83 1.214 . S
C111 O91 1.234 1_565 S
C112 H84 0.929 . S
C112 C115 1.391 . S
C112 C117 1.391 . S
C113 H85 0.929 . S
C113 C114 1.390 . S
C113 N116 1.391 . S
C114 H86 0.930 . S
C114 C113 1.390 . S
C114 C115 1.392 . S
C115 H87 0.929 . S
C115 C112 1.391 . S
C115 C114 1.392 . S
N116 Co60 2.257 . S
N116 C113 1.391 . S
N116 C117 1.388 . S
C117 H88 0.930 . S
C117 C112 1.391 . S
C117 N116 1.388 . S
Co118 O120 2.114 1_655 S
Co118 O126 2.074 . S
Co118 O129 2.093 . S
Co118 O142 2.097 . S
Co118 N159 2.151 . S
Co118 N167 2.214 . S
Co119 O120 2.189 . S
Co119 O125 2.058 . S
Co119 O135 2.057 . S
Co119 O150 2.037 . S
Co119 N154 2.145 . S
Co119 N175 2.257 . S
O120 Co118 2.114 1_455 S
O120 Co119 2.189 . S
C121 O122 1.278 . S
C121 O129 1.224 . S
O122 C121 1.278 . S
C123 O124 1.245 . S
C123 O135 1.232 . S
O124 C123 1.245 . S
O125 Co119 2.058 . S
O125 C151 1.269 . S
O126 Co118 2.074 . S
O126 C151 1.257 1_655 S
H127 C152 0.930 . S
H128 C158 0.930 . S
O129 Co118 2.093 . S
O129 C121 1.224 . S
H130 C162 0.929 . S
H131 C164 0.930 . S
H132 C165 0.930 . S
H133 C163 0.929 . S
H134 C166 0.928 . S
O135 Co119 2.057 . S
O135 C123 1.232 . S
H136 C155 0.929 . S
H137 C156 0.929 . S
H138 C168 0.931 . S
H139 C160 0.929 . S
H140 C169 0.930 . S
H141 C161 0.931 . S
O142 Co118 2.097 . S
O142 C170 1.214 . S
H143 C171 0.929 . S
H144 C172 0.929 . S
H145 C173 0.930 . S
H146 C174 0.929 . S
H147 C176 0.930 . S
H148 C153 0.930 . S
H149 C157 0.930 . S
O150 Co119 2.037 . S
O150 C170 1.234 1_455 S
C151 O125 1.269 . S
C151 O126 1.257 1_455 S
C152 H127 0.930 . S
C152 C155 1.388 . S
C152 C157 1.418 . S
C153 H148 0.930 . S
C153 C156 1.404 . S
C153 C157 1.353 . S
N154 Co119 2.145 . S
N154 C155 1.397 . S
N154 C156 1.334 . S
C155 H136 0.929 . S
C155 C152 1.388 . S
C155 N154 1.397 . S
C156 H137 0.929 . S
C156 C153 1.404 . S
C156 N154 1.334 . S
C157 H149 0.930 . S
C157 C152 1.418 . S
C157 C153 1.353 . S
C158 H128 0.930 . S
C158 N159 1.330 . S
C158 C160 1.446 . S
N159 Co118 2.151 . S
N159 C158 1.330 . S
N159 C163 1.418 . S
C160 H139 0.929 . S
C160 C158 1.446 . S
C160 C161 1.332 . S
C161 H141 0.931 . S
C161 C160 1.332 . S
C161 C162 1.267 . S
C162 H130 0.929 . S
C162 C161 1.267 . S
C162 C163 1.251 . S
C163 H133 0.929 . S
C163 N159 1.418 . S
C163 C162 1.251 . S
C164 H131 0.930 . S
C164 C166 1.406 . S
C164 C169 1.261 . S
C165 H132 0.930 . S
C165 N167 1.325 . S
C165 C168 1.357 . S
C166 H134 0.928 . S
C166 C164 1.406 . S
C166 N167 1.261 . S
N167 Co118 2.214 . S
N167 C165 1.325 . S
N167 C166 1.261 . S
C168 H138 0.931 . S
C168 C165 1.357 . S
C168 C169 1.312 . S
C169 H140 0.930 . S
C169 C164 1.261 . S
C169 C168 1.312 . S
C170 O142 1.214 . S
C170 O150 1.234 1_655 S
C171 H143 0.929 . S
C171 C174 1.391 . S
C171 C176 1.391 . S
C172 H144 0.929 . S
C172 C173 1.390 . S
C172 N175 1.391 . S
C173 H145 0.930 . S
C173 C172 1.390 . S
C173 C174 1.392 . S
C174 H146 0.929 . S
C174 C171 1.391 . S
C174 C173 1.392 . S
N175 Co119 2.257 . S
N175 C172 1.391 . S
N175 C176 1.388 . S
C176 H147 0.930 . S
C176 C171 1.391 . S
C176 N175 1.388 . S
Co177 O179 2.143 . S
Co177 O185 2.074 . S
Co177 O188 2.093 . S
Co177 O201 2.097 . S
Co177 N218 2.151 . S
Co177 N226 2.214 . S
Co178 O179 2.160 1_565 S
Co178 O184 2.058 . S
Co178 O194 2.057 . S
Co178 O209 2.037 . S
Co178 N213 2.145 . S
Co178 N234 2.257 . S
O179 Co177 2.143 . S
O179 Co178 2.160 1_545 S
C180 O181 1.278 . S
C180 O188 1.224 . S
O181 C180 1.278 . S
C182 O183 1.245 . S
C182 O194 1.232 . S
O183 C182 1.245 . S
O184 Co178 2.058 . S
O184 C210 1.269 . S
O185 Co177 2.074 . S
O185 C210 1.257 1_545 S
H186 C211 0.930 . S
H187 C217 0.930 . S
O188 Co177 2.093 . S
O188 C180 1.224 . S
H189 C221 0.929 . S
H190 C223 0.930 . S
H191 C224 0.930 . S
H192 C222 0.929 . S
H193 C225 0.928 . S
O194 Co178 2.057 . S
O194 C182 1.232 . S
H195 C214 0.929 . S
H196 C215 0.929 . S
H197 C227 0.931 . S
H198 C219 0.929 . S
H199 C228 0.930 . S
H200 C220 0.931 . S
O201 Co177 2.097 . S
O201 C229 1.214 . S
H202 C230 0.929 . S
H203 C231 0.929 . S
H204 C232 0.930 . S
H205 C233 0.929 . S
H206 C235 0.930 . S
H207 C212 0.930 . S
H208 C216 0.930 . S
O209 Co178 2.037 . S
O209 C229 1.234 1_565 S
C210 O184 1.269 . S
C210 O185 1.257 1_565 S
C211 H186 0.930 . S
C211 C214 1.388 . S
C211 C216 1.418 . S
C212 H207 0.930 . S
C212 C215 1.404 . S
C212 C216 1.353 . S
N213 Co178 2.145 . S
N213 C214 1.397 . S
N213 C215 1.334 . S
C214 H195 0.929 . S
C214 C211 1.388 . S
C214 N213 1.397 . S
C215 H196 0.929 . S
C215 C212 1.404 . S
C215 N213 1.334 . S
C216 H208 0.930 . S
C216 C211 1.418 . S
C216 C212 1.353 . S
C217 H187 0.930 . S
C217 N218 1.330 . S
C217 C219 1.446 . S
N218 Co177 2.151 . S
N218 C217 1.330 . S
N218 C222 1.418 . S
C219 H198 0.929 . S
C219 C217 1.446 . S
C219 C220 1.332 . S
C220 H200 0.931 . S
C220 C219 1.332 . S
C220 C221 1.267 . S
C221 H189 0.929 . S
C221 C220 1.267 . S
C221 C222 1.251 . S
C222 H192 0.929 . S
C222 N218 1.418 . S
C222 C221 1.251 . S
C223 H190 0.930 . S
C223 C225 1.406 . S
C223 C228 1.261 . S
C224 H191 0.930 . S
C224 N226 1.325 . S
C224 C227 1.357 . S
C225 H193 0.928 . S
C225 C223 1.406 . S
C225 N226 1.261 . S
N226 Co177 2.214 . S
N226 C224 1.325 . S
N226 C225 1.261 . S
C227 H197 0.931 . S
C227 C224 1.357 . S
C227 C228 1.312 . S
C228 H199 0.930 . S
C228 C223 1.261 . S
C228 C227 1.312 . S
C229 O201 1.214 . S
C229 O209 1.234 1_545 S
C230 H202 0.929 . S
C230 C233 1.391 . S
C230 C235 1.391 . S
C231 H203 0.929 . S
C231 C232 1.390 . S
C231 N234 1.391 . S
C232 H204 0.930 . S
C232 C231 1.390 . S
C232 C233 1.392 . S
C233 H205 0.929 . S
C233 C230 1.391 . S
C233 C232 1.392 . S
N234 Co178 2.257 . S
N234 C231 1.391 . S
N234 C235 1.388 . S
C235 H206 0.930 . S
C235 C230 1.391 . S
C235 N234 1.388 . S
H236 C244 0.929 . S
H237 C246 0.930 . S
H238 C248 0.930 . S
H239 C251 0.929 . S
H240 C254 0.930 . S
H241 C256 0.960 . S
H242 C256 0.960 . S
H243 C256 0.960 . S
C244 H236 0.929 . S
C244 C245 1.377 1_655 S
C244 C246 1.384 . S
C245 C244 1.377 1_455 S
C245 C251 1.390 . S
C246 H237 0.930 . S
C246 C244 1.384 . S
C246 C247 1.372 1_655 S
C247 C246 1.372 1_455 S
C247 C248 1.400 . S
C247 C252 1.490 . S
C248 H238 0.930 . S
C248 C247 1.400 . S
C248 C251 1.386 . S
H249 C265 0.930 . S
H250 C266 0.931 . S
C251 H239 0.929 . S
C251 C245 1.390 . S
C251 C248 1.386 . S
C252 C247 1.490 . S
C252 C254 1.395 1_455 S
C252 C255 1.403 . S
H253 C259 0.930 . S
C254 H240 0.930 . S
C254 C252 1.395 1_655 S
C254 C257 1.403 . S
C255 C252 1.403 . S
C255 C256 1.524 . S
C255 C259 1.400 . S
C256 H241 0.960 . S
C256 H242 0.960 . S
C256 H243 0.960 . S
C256 C255 1.524 . S
C257 C254 1.403 . S
C257 C258 1.392 1_655 S
C257 C261 1.495 . S
C258 C257 1.392 1_455 S
C258 C259 1.385 . S
C258 C260 1.478 . S
C259 H253 0.930 . S
C259 C255 1.400 . S
C259 C258 1.385 . S
C260 C258 1.478 . S
C260 C262 1.381 1_455 S
C260 C266 1.383 . S
C261 C257 1.495 . S
C261 H267 0.959 . S
C261 H268 0.961 . S
C261 H269 0.960 . S
C262 C260 1.381 1_655 S
C262 C263 1.394 . S
C262 H270 0.930 . S
C263 C262 1.394 . S
C263 C264 1.383 1_655 S
C263 H271 0.929 . S
C264 C263 1.383 1_455 S
C264 C265 1.377 . S
C265 H249 0.930 . S
C265 C264 1.377 . S
C265 C266 1.379 . S
C266 H250 0.931 . S
C266 C260 1.383 . S
C266 C265 1.379 . S
H267 C261 0.959 . S
H268 C261 0.961 . S
H269 C261 0.960 . S
H270 C262 0.930 . S
H271 C263 0.929 . S
H272 C280 0.929 . S
H273 C282 0.930 . S
H274 C284 0.930 . S
H275 C287 0.929 . S
H276 C290 0.930 1_565 S
H277 C292 0.960 . S
H278 C292 0.960 . S
H279 C292 0.960 . S
C280 H272 0.929 . S
C280 C281 1.377 . S
C280 C282 1.384 . S
C281 C280 1.377 . S
C281 C287 1.390 1_545 S
C282 H273 0.930 . S
C282 C280 1.384 . S
C282 C283 1.372 . S
C283 C282 1.372 . S
C283 C284 1.400 1_545 S
C283 C288 1.490 . S
C284 H274 0.930 . S
C284 C283 1.400 1_565 S
C284 C287 1.386 . S
H285 C301 0.930 . S
H286 C302 0.931 . S
C287 H275 0.929 . S
C287 C281 1.390 1_565 S
C287 C284 1.386 . S
C288 C283 1.490 . S
C288 C290 1.395 . S
C288 C291 1.403 . S
H289 C295 0.930 . S
C290 H276 0.930 1_545 S
C290 C288 1.395 . S
C290 C293 1.403 1_545 S
C291 C288 1.403 . S
C291 C292 1.524 . S
C291 C295 1.400 . S
C292 H277 0.960 . S
C292 H278 0.960 . S
C292 H279 0.960 . S
C292 C291 1.524 . S
C293 C290 1.403 1_565 S
C293 C294 1.392 1_565 S
C293 C297 1.496 . S
C294 C293 1.392 1_545 S
C294 C295 1.385 . S
C294 C296 1.478 . S
C295 H289 0.930 . S
C295 C291 1.400 . S
C295 C294 1.385 . S
C296 C294 1.478 . S
C296 C298 1.381 . S
C296 C302 1.383 1_545 S
C297 C293 1.496 . S
C297 H303 0.959 . S
C297 H304 0.961 . S
C297 H305 0.960 1_565 S
C298 C296 1.381 . S
C298 C299 1.394 . S
C298 H306 0.930 . S
C299 C298 1.394 . S
C299 C300 1.383 . S
C299 H307 0.929 . S
C300 C299 1.383 . S
C300 C301 1.377 1_545 S
C301 H285 0.930 . S
C301 C300 1.377 1_565 S
C301 C302 1.379 . S
C302 H286 0.931 . S
C302 C296 1.383 1_565 S
C302 C301 1.379 . S
H303 C297 0.959 . S
H304 C297 0.961 . S
H305 C297 0.960 1_545 S
H306 C298 0.930 . S
H307 C299 0.929 . S
H308 C316 0.929 . S
H309 C318 0.930 . S
H310 C320 0.930 . S
H311 C323 0.929 . S
H312 C326 0.930 . S
H313 C328 0.960 . S
H314 C328 0.960 . S
H315 C328 0.960 1_655 S
C316 H308 0.929 . S
C316 C317 1.377 1_455 S
C316 C318 1.384 . S
C317 C316 1.377 1_655 S
C317 C323 1.390 . S
C318 H309 0.930 . S
C318 C316 1.384 . S
C318 C319 1.365 1_455 S
C319 C318 1.365 1_655 S
C319 C320 1.407 . S
C319 C324 1.490 . S
C320 H310 0.930 . S
C320 C319 1.407 . S
C320 C323 1.386 . S
H321 C337 0.930 . S
H322 C338 0.931 . S
C323 H311 0.929 . S
C323 C317 1.390 . S
C323 C320 1.386 . S
C324 C319 1.490 . S
C324 C326 1.395 . S
C324 C327 1.402 1_655 S
H325 C331 0.932 . S
C326 H312 0.930 . S
C326 C324 1.395 . S
C326 C329 1.403 . S
C327 C324 1.402 1_455 S
C327 C328 1.524 . S
C327 C331 1.401 . S
C328 H313 0.960 . S
C328 H314 0.960 . S
C328 H315 0.960 1_455 S
C328 C327 1.524 . S
C329 C326 1.403 . S
C329 C330 1.392 . S
C329 C333 1.495 . S
C330 C329 1.392 . S
C330 C331 1.384 1_655 S
C330 C332 1.478 . S
C331 H325 0.932 . S
C331 C327 1.401 . S
C331 C330 1.384 1_455 S
C332 C330 1.478 . S
C332 C334 1.381 1_655 S
C332 C338 1.383 . S
C333 C329 1.495 . S
C333 H339 0.959 . S
C333 H340 0.961 . S
C333 H341 0.960 1_655 S
C334 C332 1.381 1_455 S
C334 C335 1.394 . S
C334 H342 0.930 . S
C335 C334 1.394 . S
C335 C336 1.383 1_455 S
C335 H343 0.929 . S
C336 C335 1.383 1_655 S
C336 C337 1.377 . S
C337 H321 0.930 . S
C337 C336 1.377 . S
C337 C338 1.379 . S
C338 H322 0.931 . S
C338 C332 1.383 . S
C338 C337 1.379 . S
H339 C333 0.959 . S
H340 C333 0.961 . S
H341 C333 0.960 1_455 S
H342 C334 0.930 . S
H343 C335 0.929 . S
H344 C352 0.929 . S
H345 C354 0.930 . S
H346 C356 0.930 . S
H347 C359 0.929 . S
H348 C362 0.930 . S
H349 C364 0.960 . S
H350 C364 0.960 1_565 S
H351 C364 0.960 . S
C352 H344 0.929 . S
C352 C353 1.377 . S
C352 C354 1.384 . S
C353 C352 1.377 . S
C353 C359 1.390 1_565 S
C354 H345 0.930 . S
C354 C352 1.384 . S
C354 C355 1.372 . S
C355 C354 1.372 . S
C355 C356 1.400 1_565 S
C355 C360 1.490 . S
C356 H346 0.930 . S
C356 C355 1.400 1_545 S
C356 C359 1.386 . S
H357 C373 0.930 . S
H358 C374 0.931 . S
C359 H347 0.929 . S
C359 C353 1.390 1_545 S
C359 C356 1.386 . S
C360 C355 1.490 . S
C360 C362 1.395 1_554 S
C360 C363 1.403 1_565 S
H361 C367 0.930 . S
C362 H348 0.930 . S
C362 C360 1.395 1_556 S
C362 C365 1.403 . S
C363 C360 1.403 1_545 S
C363 C364 1.524 . S
C363 C367 1.400 . S
C364 H349 0.960 . S
C364 H350 0.960 1_545 S
C364 H351 0.960 . S
C364 C363 1.524 . S
C365 C362 1.403 . S
C365 C366 1.392 . S
C365 C369 1.495 . S
C366 C365 1.392 . S
C366 C367 1.385 1_566 S
C366 C368 1.478 . S
C367 H361 0.930 . S
C367 C363 1.400 . S
C367 C366 1.385 1_544 S
C368 C366 1.478 . S
C368 C370 1.381 . S
C368 C374 1.383 1_565 S
C369 C365 1.495 . S
C369 H375 0.959 . S
C369 H376 0.961 . S
C369 H377 0.960 . S
C370 C368 1.381 . S
C370 C371 1.394 . S
C370 H378 0.930 . S
C371 C370 1.394 . S
C371 C372 1.383 . S
C371 H379 0.929 . S
C372 C371 1.383 . S
C372 C373 1.377 1_565 S
C373 H357 0.930 . S
C373 C372 1.377 1_545 S
C373 C374 1.379 . S
C374 H358 0.931 . S
C374 C368 1.383 1_545 S
C374 C373 1.379 . S
H375 C369 0.959 . S
H376 C369 0.961 . S
H377 C369 0.960 . S
H378 C370 0.930 . S
H379 C371 0.929 . S
H380 C388 0.929 . S
H381 C390 0.930 . S
H382 C392 0.930 . S
H383 C395 0.929 . S
H384 C398 0.930 . S
H385 C400 0.960 . S
H386 C400 0.960 . S
H387 C400 0.960 . S
C388 H380 0.929 . S
C388 C389 1.377 . S
C388 C390 1.384 . S
C389 C388 1.377 . S
C389 C395 1.390 . S
C390 H381 0.930 . S
C390 C388 1.384 . S
C390 C391 1.372 . S
C391 C390 1.372 . S
C391 C392 1.400 . S
C391 C396 1.490 . S
C392 H382 0.930 . S
C392 C391 1.400 . S
C392 C395 1.386 . S
H393 C409 0.930 . S
H394 C410 0.931 . S
C395 H383 0.929 . S
C395 C389 1.390 . S
C395 C392 1.386 . S
C396 C391 1.490 . S
C396 C398 1.395 . S
C396 C399 1.403 . S
H397 C403 0.930 . S
C398 H384 0.930 . S
C398 C396 1.395 . S
C398 C401 1.403 . S
C399 C396 1.403 . S
C399 C400 1.524 . S
C399 C403 1.400 . S
C400 H385 0.960 . S
C400 H386 0.960 . S
C400 H387 0.960 . S
C400 C399 1.524 . S
C401 C398 1.403 . S
C401 C402 1.392 . S
C401 C405 1.495 . S
C402 C401 1.392 . S
C402 C403 1.385 . S
C402 C404 1.478 . S
C403 H397 0.930 . S
C403 C399 1.400 . S
C403 C402 1.385 . S
C404 C402 1.478 . S
C404 C406 1.381 . S
C404 C410 1.383 . S
C405 C401 1.495 . S
C405 H411 0.959 . S
C405 H412 0.961 . S
C405 H413 0.960 . S
C406 C404 1.381 . S
C406 C407 1.394 . S
C406 H414 0.930 . S
C407 C406 1.394 . S
C407 C408 1.383 . S
C407 H415 0.929 . S
C408 C407 1.383 . S
C408 C409 1.377 . S
C409 H393 0.930 . S
C409 C408 1.377 . S
C409 C410 1.379 . S
C410 H394 0.931 . S
C410 C404 1.383 . S
C410 C409 1.379 . S
H411 C405 0.959 . S
H412 C405 0.961 . S
H413 C405 0.960 . S
H414 C406 0.930 . S
H415 C407 0.929 . S
H416 C424 0.929 . S
H417 C426 0.930 . S
H418 C428 0.930 . S
H419 C431 0.929 . S
H420 C434 0.930 . S
H421 C436 0.960 . S
H422 C436 0.960 . S
H423 C436 0.960 . S
C424 H416 0.929 . S
C424 C425 1.377 . S
C424 C426 1.384 . S
C425 C424 1.377 . S
C425 C431 1.390 . S
C426 H417 0.930 . S
C426 C424 1.384 . S
C426 C427 1.372 . S
C427 C426 1.372 . S
C427 C428 1.400 . S
C427 C432 1.490 . S
C428 H418 0.930 . S
C428 C427 1.400 . S
C428 C431 1.386 . S
H429 C445 0.930 . S
H430 C446 0.931 . S
C431 H419 0.929 . S
C431 C425 1.390 . S
C431 C428 1.386 . S
C432 C427 1.490 . S
C432 C434 1.395 . S
C432 C435 1.403 . S
H433 C439 0.930 . S
C434 H420 0.930 . S
C434 C432 1.395 . S
C434 C437 1.403 . S
C435 C432 1.403 . S
C435 C436 1.524 . S
C435 C439 1.400 . S
C436 H421 0.960 . S
C436 H422 0.960 . S
C436 H423 0.960 . S
C436 C435 1.524 . S
C437 C434 1.403 . S
C437 C438 1.392 . S
C437 C441 1.495 . S
C438 C437 1.392 . S
C438 C439 1.385 . S
C438 C440 1.478 . S
C439 H433 0.930 . S
C439 C435 1.400 . S
C439 C438 1.385 . S
C440 C438 1.478 . S
C440 C442 1.381 . S
C440 C446 1.383 . S
C441 C437 1.495 . S
C441 H447 0.959 . S
C441 H448 0.961 . S
C441 H449 0.960 . S
C442 C440 1.381 . S
C442 C443 1.394 . S
C442 H450 0.930 . S
C443 C442 1.394 . S
C443 C444 1.383 . S
C443 H451 0.929 . S
C444 C443 1.383 . S
C444 C445 1.377 . S
C445 H429 0.930 . S
C445 C444 1.377 . S
C445 C446 1.379 . S
C446 H430 0.931 . S
C446 C440 1.383 . S
C446 C445 1.379 . S
H447 C441 0.959 . S
H448 C441 0.961 . S
H449 C441 0.960 . S
H450 C442 0.930 . S
H451 C443 0.929 . S
H452 C460 0.929 . S
H453 C462 0.930 . S
H454 C464 0.930 . S
H455 C467 0.929 . S
H456 C470 0.930 . S
H457 C472 0.960 . S
H458 C472 0.960 . S
H459 C472 0.960 . S
C460 H452 0.929 . S
C460 C461 1.377 . S
C460 C462 1.384 . S
C461 C460 1.377 . S
C461 C467 1.390 . S
C462 H453 0.930 . S
C462 C460 1.384 . S
C462 C463 1.372 . S
C463 C462 1.372 . S
C463 C464 1.400 . S
C463 C468 1.490 . S
C464 H454 0.930 . S
C464 C463 1.400 . S
C464 C467 1.386 . S
H465 C481 0.930 . S
H466 C482 0.931 . S
C467 H455 0.929 . S
C467 C461 1.390 . S
C467 C464 1.386 . S
C468 C463 1.490 . S
C468 C470 1.395 . S
C468 C471 1.403 . S
H469 C475 0.930 . S
C470 H456 0.930 . S
C470 C468 1.395 . S
C470 C473 1.403 . S
C471 C468 1.403 . S
C471 C472 1.524 . S
C471 C475 1.400 . S
C472 H457 0.960 . S
C472 H458 0.960 . S
C472 H459 0.960 . S
C472 C471 1.524 . S
C473 C470 1.403 . S
C473 C474 1.392 . S
C473 C477 1.495 . S
C474 C473 1.392 . S
C474 C475 1.385 . S
C474 C476 1.478 . S
C475 H469 0.930 . S
C475 C471 1.400 . S
C475 C474 1.385 . S
C476 C474 1.478 . S
C476 C478 1.381 . S
C476 C482 1.383 . S
C477 C473 1.495 . S
C477 H483 0.959 . S
C477 H484 0.961 . S
C477 H485 0.960 . S
C478 C476 1.381 . S
C478 C479 1.394 . S
C478 H486 0.930 . S
C479 C478 1.394 . S
C479 C480 1.383 . S
C479 H487 0.929 . S
C480 C479 1.383 . S
C480 C481 1.377 . S
C481 H465 0.930 . S
C481 C480 1.377 . S
C481 C482 1.379 . S
C482 H466 0.931 . S
C482 C476 1.383 . S
C482 C481 1.379 . S
H483 C477 0.959 . S
H484 C477 0.961 . S
H485 C477 0.960 . S
H486 C478 0.930 . S
H487 C479 0.929 . S
H488 C496 0.929 . S
H489 C498 0.930 . S
H490 C500 0.930 . S
H491 C503 0.929 . S
H492 C506 0.930 . S
H493 C508 0.960 . S
H494 C508 0.960 . S
H495 C508 0.960 . S
C496 H488 0.929 . S
C496 C497 1.377 . S
C496 C498 1.384 . S
C497 C496 1.377 . S
C497 C503 1.390 . S
C498 H489 0.930 . S
C498 C496 1.384 . S
C498 C499 1.372 . S
C499 C498 1.372 . S
C499 C500 1.400 . S
C499 C504 1.490 . S
C500 H490 0.930 . S
C500 C499 1.400 . S
C500 C503 1.386 . S
H501 C517 0.930 . S
H502 C518 0.931 . S
C503 H491 0.929 . S
C503 C497 1.390 . S
C503 C500 1.386 . S
C504 C499 1.490 . S
C504 C506 1.395 . S
C504 C507 1.403 . S
H505 C511 0.930 . S
C506 H492 0.930 . S
C506 C504 1.395 . S
C506 C509 1.403 . S
C507 C504 1.403 . S
C507 C508 1.524 . S
C507 C511 1.400 . S
C508 H493 0.960 . S
C508 H494 0.960 . S
C508 H495 0.960 . S
C508 C507 1.524 . S
C509 C506 1.403 . S
C509 C510 1.392 . S
C509 C513 1.495 . S
C510 C509 1.392 . S
C510 C511 1.385 . S
C510 C512 1.478 . S
C511 H505 0.930 . S
C511 C507 1.400 . S
C511 C510 1.385 . S
C512 C510 1.478 . S
C512 C514 1.381 . S
C512 C518 1.383 . S
C513 C509 1.495 . S
C513 H519 0.959 . S
C513 H520 0.961 . S
C513 H521 0.960 . S
C514 C512 1.381 . S
C514 C515 1.394 . S
C514 H522 0.930 . S
C515 C514 1.394 . S
C515 C516 1.383 . S
C515 H523 0.929 . S
C516 C515 1.383 . S
C516 C517 1.377 . S
C517 H501 0.930 . S
C517 C516 1.377 . S
C517 C518 1.379 . S
C518 H502 0.931 . S
C518 C512 1.383 . S
C518 C517 1.379 . S
H519 C513 0.959 . S
H520 C513 0.961 . S
H521 C513 0.960 . S
H522 C514 0.930 . S
H523 C515 0.929 . S
C245 C52 1.687 . S
C264 C151 1.687 . S
C281 C92 1.692 . S
C300 C229 1.689 . S
C317 C33 1.691 . S
C336 C170 1.679 . S
C353 C111 1.689 . S
C372 C210 1.689 . S
C389 C62 1.476 . S
C408 C3 1.478 . S
C425 C64 1.480 . S
C444 C123 1.476 . S
C461 C180 1.475 . S
C480 C121 1.467 . S
C497 C182 1.479 . S
C516 C5 1.475 . S
