# Generated by pormake.
# Topology unm, (4)-cn, num edge types: 1
# Building blocks:
#     Node 0, Type 0, BuildingBlock: KUFVIS_clean_sbu_0, # of connection points: 4
#     Node 1, Type 0, BuildingBlock: KUFVIS_clean_sbu_0, # of connection points: 4
#     Node 2, Type 0, BuildingBlock: KUFVIS_clean_sbu_0, # of connection points: 4
#     Node 3, Type 0, BuildingBlock: KUFVIS_clean_sbu_0, # of connection points: 4
#     Node 4, Type 0, BuildingBlock: KUFVIS_clean_sbu_0, # of connection points: 4
#     Node 5, Type 0, BuildingBlock: KUFVIS_clean_sbu_0, # of connection points: 4
#     Node 6, Type 0, BuildingBlock: KUFVIS_clean_sbu_0, # of connection points: 4
#     Node 7, Type 0, BuildingBlock: KUFVIS_clean_sbu_0, # of connection points: 4
#     Edge 8, Type (0, 0), BuildingBlock: UVAHIK_clean_linker_0, # of connection points: 2
#     Edge 9, Type (0, 0), BuildingBlock: UVAHIK_clean_linker_0, # of connection points: 2
#     Edge 10, Type (0, 0), BuildingBlock: UVAHIK_clean_linker_0, # of connection points: 2
#     Edge 11, Type (0, 0), BuildingBlock: UVAHIK_clean_linker_0, # of connection points: 2
#     Edge 12, Type (0, 0), BuildingBlock: UVAHIK_clean_linker_0, # of connection points: 2
#     Edge 13, Type (0, 0), BuildingBlock: UVAHIK_clean_linker_0, # of connection points: 2
#     Edge 14, Type (0, 0), BuildingBlock: UVAHIK_clean_linker_0, # of connection points: 2
#     Edge 15, Type (0, 0), BuildingBlock: UVAHIK_clean_linker_0, # of connection points: 2
#     Edge 16, Type (0, 0), BuildingBlock: UVAHIK_clean_linker_0, # of connection points: 2
#     Edge 17, Type (0, 0), BuildingBlock: UVAHIK_clean_linker_0, # of connection points: 2
#     Edge 18, Type (0, 0), BuildingBlock: UVAHIK_clean_linker_0, # of connection points: 2
#     Edge 19, Type (0, 0), BuildingBlock: UVAHIK_clean_linker_0, # of connection points: 2
#     Edge 20, Type (0, 0), BuildingBlock: UVAHIK_clean_linker_0, # of connection points: 2
#     Edge 21, Type (0, 0), BuildingBlock: UVAHIK_clean_linker_0, # of connection points: 2
#     Edge 22, Type (0, 0), BuildingBlock: UVAHIK_clean_linker_0, # of connection points: 2
#     Edge 23, Type (0, 0), BuildingBlock: UVAHIK_clean_linker_0, # of connection points: 2
# Relax obj value: 0.144
# Max RMSD: 0.134
# Mean RMSD: 0.134
data_MOF--net-unm--node1-KUFVIS_clean_sbu_0--edge1-UVAHIK_clean_linker_0
_symmetry_space_group_name_H-M    P1
_symmetry_Int_Tables_number       1
_symmetry_cell_setting            triclinic
loop_
_symmetry_equiv_pos_as_xyz
'x, y, z'
_cell_length_a     32.718768
_cell_length_b     32.738521
_cell_length_c     57.836874
_cell_angle_alpha  89.993931
_cell_angle_beta   90.002859
_cell_angle_gamma 90.043259
loop_
_atom_site_label
_atom_site_type_symbol
_atom_site_fract_x
_atom_site_fract_y
_atom_site_fract_z
_atom_type_partial_charge
Mn0 Mn 0.13872 0.26612 0.16373 0.0
Mn1 Mn 0.2084 0.32727 0.13783 0.0
C2 C 0.11793 0.32225 0.14281 0.0
C3 C 0.09634 0.24928 0.19481 0.0
C4 C 0.18116 0.24647 0.11772 0.0
O5 O 0.19174 0.25044 0.18028 0.0
O6 O 0.23529 0.29266 0.16157 0.0
C7 C 0.2285 0.37906 0.17824 0.0
N8 N 0.21514 0.37555 0.15603 0.0
C9 C 0.20622 0.4483 0.15286 0.0
C10 C 0.22019 0.4527 0.17564 0.0
C11 C 0.23132 0.41792 0.18839 0.0
C12 C 0.20438 0.40883 0.14359 0.0
H13 H 0.23684 0.3524 0.18817 0.0
C14 C 0.22741 0.2651 0.17664 0.0
O15 O 0.10607 0.22242 0.17923 0.0
O16 O 0.1137 0.28479 0.19328 0.0
N17 N 0.18656 0.36279 0.11463 0.0
C18 C 0.17176 0.35311 0.09329 0.0
C19 C 0.15815 0.3844 0.07858 0.0
C20 C 0.16019 0.42527 0.08587 0.0
C21 C 0.17607 0.43452 0.10777 0.0
C22 C 0.18951 0.40209 0.12161 0.0
H23 H 0.16994 0.32174 0.08763 0.0
O24 O 0.09308 0.29212 0.14648 0.0
O25 O 0.15432 0.319 0.15171 0.0
O26 O 0.15644 0.23679 0.13391 0.0
O27 O 0.20248 0.27914 0.11769 0.0
C28 C 0.17826 0.47456 0.11661 0.0
C29 C 0.19328 0.48144 0.13914 0.0
H30 H 0.22213 0.4826 0.18359 0.0
H31 H 0.24191 0.42105 0.20603 0.0
H32 H 0.14592 0.37701 0.06171 0.0
H33 H 0.14923 0.44928 0.07458 0.0
H34 H 0.16793 0.50024 0.10634 0.0
H35 H 0.1943 0.51231 0.14586 0.0
Mn36 Mn 0.23508 0.63737 0.66321 0.0
Mn37 Mn 0.17262 0.70453 0.63632 0.0
C38 C 0.18001 0.61437 0.6421 0.0
C39 C 0.25217 0.59635 0.6948 0.0
C40 C 0.25456 0.679 0.61696 0.0
O41 O 0.24907 0.69123 0.67935 0.0
O42 O 0.20604 0.73304 0.66003 0.0
C43 C 0.11945 0.72424 0.67621 0.0
N44 N 0.12377 0.7104 0.65413 0.0
C45 C 0.0513 0.6995 0.65055 0.0
C46 C 0.04605 0.71394 0.67318 0.0
C47 C 0.08029 0.7263 0.68606 0.0
C48 C 0.09103 0.69845 0.64157 0.0
H49 H 0.14569 0.73353 0.68624 0.0
C50 C 0.23355 0.72635 0.67531 0.0
O51 O 0.27922 0.60634 0.67935 0.0
O52 O 0.21631 0.61278 0.69286 0.0
N53 N 0.13815 0.68109 0.61308 0.0
C54 C 0.14867 0.66595 0.59196 0.0
C55 C 0.11804 0.65112 0.57716 0.0
C56 C 0.07695 0.6523 0.58414 0.0
C57 C 0.06682 0.66855 0.60583 0.0
C58 C 0.09862 0.6832 0.61976 0.0
H59 H 0.18023 0.6648 0.58653 0.0
O60 O 0.21074 0.59054 0.64624 0.0
O61 O 0.18203 0.65107 0.65069 0.0
O62 O 0.26459 0.65499 0.63342 0.0
O63 O 0.22134 0.6994 0.61655 0.0
C64 C 0.02651 0.66994 0.61437 0.0
C65 C 0.01877 0.68536 0.63672 0.0
H66 H 0.01592 0.71531 0.6809 0.0
H67 H 0.07651 0.73726 0.70359 0.0
H68 H 0.12611 0.63861 0.56045 0.0
H69 H 0.05345 0.64041 0.57279 0.0
H70 H 1.00131 0.6587 0.60401 0.0
H71 H 0.98772 0.68576 0.64321 0.0
Mn72 Mn 0.86187 0.73333 0.16499 0.0
Mn73 Mn 0.80191 0.66616 0.1363 0.0
C74 C 0.89064 0.67983 0.14472 0.0
C75 C 0.8992 0.753 0.19757 0.0
C76 C 0.82296 0.74998 0.11772 0.0
O77 O 0.80542 0.74386 0.17939 0.0
O78 O 0.76944 0.69686 0.15941 0.0
C79 C 0.78292 0.61089 0.17538 0.0
N80 N 0.79808 0.61667 0.15369 0.0
C81 C 0.81302 0.54506 0.14967 0.0
C82 C 0.79733 0.5383 0.17191 0.0
C83 C 0.7823 0.57138 0.18483 0.0
C84 C 0.81267 0.58507 0.14112 0.0
H85 H 0.77145 0.63624 0.1854 0.0
C86 C 0.77204 0.72516 0.17464 0.0
O87 O 0.88863 0.77938 0.18189 0.0
O88 O 0.88495 0.71627 0.19535 0.0
N89 N 0.82951 0.63398 0.11352 0.0
C90 C 0.84567 0.64602 0.09289 0.0
C91 C 0.86319 0.61676 0.07817 0.0
C92 C 0.86355 0.57543 0.08469 0.0
C93 C 0.84625 0.56371 0.10586 0.0
C94 C 0.82906 0.5942 0.11977 0.0
H95 H 0.84551 0.67775 0.08779 0.0
O96 O 0.9119 0.71211 0.1495 0.0
O97 O 0.85313 0.6794 0.15216 0.0
O98 O 0.84515 0.76154 0.13466 0.0
O99 O 0.80489 0.71546 0.11685 0.0
C100 C 0.84611 0.52309 0.1139 0.0
C101 C 0.82963 0.51379 0.13582 0.0
H102 H 0.79698 0.5079 0.17931 0.0
H103 H 0.77032 0.56643 0.20205 0.0
H104 H 0.87649 0.62605 0.06186 0.0
H105 H 0.87741 0.553 0.07338 0.0
H106 H 0.8591 0.49885 0.1035 0.0
H107 H 0.83027 0.48254 0.14196 0.0
Mn108 Mn 0.76774 0.36472 0.6643 0.0
Mn109 Mn 0.83038 0.29798 0.63722 0.0
C110 C 0.82249 0.3881 0.64307 0.0
C111 C 0.75061 0.40546 0.69599 0.0
C112 C 0.74814 0.32305 0.61808 0.0
O113 O 0.75416 0.31075 0.68042 0.0
O114 O 0.79729 0.26922 0.66098 0.0
C115 C 0.88394 0.27852 0.67699 0.0
N116 N 0.87939 0.29235 0.65493 0.0
C117 C 0.95178 0.30359 0.65117 0.0
C118 C 0.95727 0.28916 0.67378 0.0
C119 C 0.92318 0.27664 0.68675 0.0
C120 C 0.91198 0.30446 0.64229 0.0
H121 H 0.85781 0.2691 0.68708 0.0
C122 C 0.76985 0.27573 0.67632 0.0
O123 O 0.72352 0.39539 0.68058 0.0
O124 O 0.78658 0.38931 0.69392 0.0
N125 N 0.86456 0.32163 0.61392 0.0
C126 C 0.85381 0.33672 0.59281 0.0
C127 C 0.88425 0.3517 0.57794 0.0
C128 C 0.92541 0.3507 0.58483 0.0
C129 C 0.93578 0.33449 0.60649 0.0
C130 C 0.90415 0.3197 0.6205 0.0
H131 H 0.82221 0.33773 0.58746 0.0
O132 O 0.79167 0.41174 0.64731 0.0
O133 O 0.82076 0.35136 0.65163 0.0
O134 O 0.73811 0.34698 0.63457 0.0
O135 O 0.78149 0.30285 0.61757 0.0
C136 C 0.97615 0.33326 0.61492 0.0
C137 C 0.98414 0.31787 0.63726 0.0
H138 H 0.98746 0.28793 0.68144 0.0
H139 H 0.92715 0.26569 0.70427 0.0
H140 H 0.876 0.36418 0.56126 0.0
H141 H 0.94876 0.3627 0.57341 0.0
H142 H 1.00123 0.3446 0.60451 0.0
H143 H 0.01525 0.3176 0.64367 0.0
Mn144 Mn 0.63829 0.23162 0.34065 0.0
Mn145 Mn 0.70558 0.17026 0.36823 0.0
C146 C 0.61531 0.17783 0.36277 0.0
C147 C 0.59696 0.24734 0.30895 0.0
C148 C 0.6805 0.25305 0.38647 0.0
O149 O 0.69201 0.24462 0.32407 0.0
O150 O 0.73395 0.20264 0.344 0.0
C151 C 0.72467 0.11548 0.32896 0.0
N152 N 0.7111 0.12072 0.35102 0.0
C153 C 0.69984 0.0485 0.35555 0.0
C154 C 0.71399 0.04231 0.33293 0.0
C155 C 0.72641 0.07595 0.31958 0.0
C156 C 0.6991 0.08855 0.36403 0.0
H157 H 0.73398 0.14126 0.31857 0.0
C158 C 0.7272 0.22936 0.32829 0.0
O159 O 0.60725 0.27507 0.32394 0.0
O160 O 0.61324 0.21152 0.31141 0.0
N161 N 0.68237 0.13681 0.392 0.0
C162 C 0.66769 0.1482 0.41309 0.0
C163 C 0.65295 0.11824 0.42834 0.0
C164 C 0.65376 0.07691 0.42185 0.0
C165 C 0.66959 0.06588 0.4002 0.0
C166 C 0.68418 0.09705 0.3858 0.0
H167 H 0.66682 0.17994 0.41815 0.0
O168 O 0.59155 0.2084 0.35819 0.0
O169 O 0.65192 0.17917 0.35397 0.0
O170 O 0.65645 0.26245 0.36991 0.0
O171 O 0.70074 0.21976 0.38735 0.0
C172 C 0.67063 0.02528 0.39215 0.0
C173 C 0.6857 0.01661 0.36983 0.0
H174 H 0.71511 0.0119 0.32557 0.0
H175 H 0.73714 0.07144 0.30207 0.0
H176 H 0.64079 0.127 0.44502 0.0
H177 H 0.64194 0.05393 0.43355 0.0
H178 H 0.6594 1.00056 0.40286 0.0
H179 H 0.68585 0.98533 0.36372 0.0
Mn180 Mn 0.26875 0.13747 0.83914 0.0
Mn181 Mn 0.331 0.20472 0.86618 0.0
C182 C 0.32349 0.11454 0.86051 0.0
C183 C 0.25194 0.09638 0.80751 0.0
C184 C 0.24885 0.17926 0.8853 0.0
O185 O 0.25504 0.19126 0.82286 0.0
O186 O 0.29774 0.23315 0.84239 0.0
C187 C 0.38442 0.22439 0.82638 0.0
N188 N 0.37996 0.21061 0.84846 0.0
C189 C 0.45241 0.19983 0.8522 0.0
C190 C 0.45781 0.21421 0.82957 0.0
C191 C 0.42365 0.22648 0.8166 0.0
C192 C 0.41262 0.19874 0.8611 0.0
H193 H 0.35825 0.23362 0.81629 0.0
C194 C 0.27044 0.22643 0.82698 0.0
O195 O 0.22473 0.10641 0.82285 0.0
O196 O 0.28783 0.11276 0.8096 0.0
N197 N 0.36533 0.18142 0.88951 0.0
C198 C 0.35468 0.1664 0.91065 0.0
C199 C 0.38522 0.1517 0.92554 0.0
C200 C 0.42636 0.1529 0.91863 0.0
C201 C 0.43662 0.16904 0.89694 0.0
C202 C 0.4049 0.18356 0.88291 0.0
H203 H 0.32309 0.16524 0.91602 0.0
O204 O 0.29278 0.0907 0.85627 0.0
O205 O 0.32167 0.1512 0.85185 0.0
O206 O 0.23892 0.15527 0.8688 0.0
O207 O 0.28215 0.19957 0.88584 0.0
C208 C 0.47698 0.17047 0.88848 0.0
C209 C 0.48486 0.1858 0.86612 0.0
H210 H 0.48798 0.2156 0.8219 0.0
H211 H 0.42754 0.23739 0.79907 0.0
H212 H 0.37705 0.13928 0.94225 0.0
H213 H 0.44978 0.14111 0.93006 0.0
H214 H 0.50211 0.15933 0.8989 0.0
H215 H 0.51595 0.18624 0.85969 0.0
Mn216 Mn 0.36009 0.77512 0.34018 0.0
Mn217 Mn 0.29344 0.835 0.36923 0.0
C218 C 0.38352 0.82746 0.36325 0.0
C219 C 0.40134 0.76144 0.30808 0.0
C220 C 0.31844 0.75112 0.38579 0.0
O221 O 0.30612 0.76351 0.32349 0.0
O222 O 0.26452 0.8039 0.34467 0.0
C223 C 0.2736 0.89184 0.33103 0.0
N224 N 0.28766 0.88542 0.35289 0.0
C225 C 0.29925 0.95734 0.35851 0.0
C226 C 0.2846 0.96474 0.33612 0.0
C227 C 0.27177 0.93183 0.32231 0.0
C228 C 0.30003 0.91687 0.36634 0.0
H229 H 0.26396 0.86663 0.32029 0.0
C230 C 0.27097 0.77831 0.32833 0.0
O231 O 0.39069 0.73266 0.32235 0.0
O232 O 0.38526 0.79712 0.31145 0.0
N233 N 0.31723 0.86715 0.39339 0.0
C234 C 0.33246 0.85462 0.41414 0.0
C235 C 0.34772 0.88374 0.42975 0.0
C236 C 0.34688 0.92539 0.42394 0.0
C237 C 0.33054 0.93758 0.40262 0.0
C238 C 0.31544 0.90722 0.38785 0.0
H239 H 0.33338 0.82263 0.41866 0.0
O240 O 0.40706 0.79699 0.35811 0.0
O241 O 0.34683 0.82674 0.35456 0.0
O242 O 0.34196 0.74246 0.36884 0.0
O243 O 0.29859 0.78453 0.38748 0.0
C244 C 0.32946 0.97858 0.39524 0.0
C245 C 0.31387 0.98845 0.37319 0.0
H246 H 0.28342 0.99551 0.32926 0.0
H247 H 0.26064 0.93727 0.30496 0.0
H248 H 0.3603 0.87408 0.44617 0.0
H249 H 0.3591 0.94771 0.43592 0.0
H250 H 0.34108 0.0027 0.40625 0.0
H251 H 0.3137 0.02002 0.3676 0.0
Mn252 Mn 0.73472 0.86467 0.83994 0.0
Mn253 Mn 0.67199 0.79791 0.86702 0.0
C254 C 0.68006 0.88803 0.86122 0.0
C255 C 0.75178 0.90546 0.80824 0.0
C256 C 0.75439 0.82278 0.88607 0.0
O257 O 0.74814 0.81072 0.82378 0.0
O258 O 0.70486 0.76919 0.84317 0.0
C259 C 0.61815 0.77868 0.82733 0.0
N260 N 0.62287 0.79243 0.84939 0.0
C261 C 0.55054 0.80382 0.85328 0.0
C262 C 0.54487 0.78948 0.83066 0.0
C263 C 0.57884 0.77691 0.81763 0.0
C264 C 0.59039 0.80458 0.8621 0.0
H265 H 0.64418 0.76923 0.81718 0.0
C266 C 0.73233 0.77571 0.82783 0.0
O267 O 0.77892 0.89538 0.82361 0.0
O268 O 0.7158 0.8893 0.81035 0.0
N269 N 0.63803 0.82156 0.8904 0.0
C270 C 0.64896 0.83662 0.91148 0.0
C271 C 0.61865 0.85164 0.92641 0.0
C272 C 0.57745 0.85075 0.9196 0.0
C273 C 0.5669 0.83459 0.89795 0.0
C274 C 0.59839 0.81974 0.88388 0.0
H275 H 0.68059 0.83754 0.91678 0.0
O276 O 0.71092 0.91167 0.85697 0.0
O277 O 0.68171 0.85131 0.85264 0.0
O278 O 0.7644 0.84685 0.86963 0.0
O279 O 0.72101 0.8026 0.88658 0.0
C280 C 0.52648 0.83349 0.88958 0.0
C281 C 0.51831 0.81816 0.86726 0.0
H282 H 0.51464 0.78834 0.82306 0.0
H283 H 0.57474 0.76602 0.80011 0.0
H284 H 0.62705 0.86408 0.94308 0.0
H285 H 0.55421 0.86279 0.93106 0.0
H286 H 0.50151 0.84488 0.90005 0.0
H287 H 0.48717 0.81799 0.86089 0.0
C288 C 0.14486 0.20749 0.0868 0.0
C289 C 0.18168 0.22189 0.09633 0.0
C290 C 0.14375 0.19296 0.06404 0.0
C291 C 0.20493 0.15463 0.01559 0.0
H292 H 0.13781 0.22348 0.97633 0.0
C293 C 0.22059 0.21608 0.91943 0.0
C294 C 0.22373 0.17996 0.90647 0.0
C295 C 0.20491 0.21523 0.94189 0.0
C296 C 0.15612 0.20356 0.98712 0.0
H297 H 0.2465 0.22985 0.09025 0.0
H298 H 0.24485 0.20286 0.05085 0.0
H299 H 0.13197 0.22877 0.01848 0.0
H300 H 0.2117 0.11487 0.90644 0.0
H301 H 0.18531 0.11322 0.94614 0.0
H302 H 0.22999 0.13032 0.98423 0.0
C303 C 0.21685 0.20326 0.06084 0.0
C304 C 0.15268 0.20644 0.01117 0.0
C305 C 0.2178 0.21871 0.08335 0.0
C306 C 0.20902 0.14325 0.91595 0.0
C307 C 0.19426 0.14222 0.93867 0.0
C308 C 0.20774 0.15113 0.99154 0.0
C309 C 0.17961 0.19163 0.05071 0.0
C310 C 0.17796 0.18289 0.0256 0.0
C311 C 0.19302 0.17807 0.952 0.0
C312 C 0.18425 0.17646 0.97711 0.0
H313 H 0.11648 0.21017 0.09633 0.0
H314 H 0.11468 0.18419 0.05656 0.0
H315 H 0.22479 0.13625 0.02638 0.0
H316 H 0.23201 0.2447 0.91257 0.0
H317 H 0.20459 0.24322 0.95188 0.0
C318 C 0.28256 0.71565 0.58267 0.0
C319 C 0.27942 0.67958 0.59568 0.0
C320 C 0.29799 0.71468 0.56016 0.0
C321 C 0.29432 0.65053 0.51057 0.0
H322 H 0.36991 0.72817 0.48336 0.0
C323 C 0.3552 0.70943 0.41528 0.0
C324 C 0.31818 0.72435 0.4063 0.0
C325 C 0.35684 0.69369 0.43777 0.0
C326 C 0.34927 0.70579 0.49073 0.0
H327 H 0.29119 0.61446 0.59575 0.0
H328 H 0.31713 0.61261 0.55595 0.0
H329 H 0.36478 0.72264 0.52551 0.0
H330 H 0.25351 0.73182 0.41297 0.0
H331 H 0.25604 0.70267 0.45186 0.0
H332 H 0.27658 0.63592 0.47581 0.0
C333 C 0.30837 0.64166 0.56342 0.0
C334 C 0.34623 0.7028 0.51479 0.0
C335 C 0.29388 0.6428 0.5862 0.0
C336 C 0.28234 0.72023 0.41944 0.0
C337 C 0.2838 0.70357 0.44166 0.0
C338 C 0.29675 0.65414 0.48651 0.0
C339 C 0.30962 0.67746 0.55005 0.0
C340 C 0.31812 0.67576 0.52491 0.0
C341 C 0.3213 0.69167 0.45136 0.0
C342 C 0.32363 0.68242 0.4764 0.0
H343 H 0.27133 0.74431 0.58954 0.0
H344 H 0.29831 0.74264 0.55013 0.0
H345 H 0.27209 0.62977 0.51797 0.0
H346 H 0.38338 0.71288 0.40563 0.0
H347 H 0.3861 0.68473 0.44491 0.0
C348 C 0.85799 0.79158 0.08747 0.0
C349 C 0.82173 0.77507 0.09655 0.0
C350 C 0.85889 0.80681 0.06484 0.0
C351 C 0.7974 0.84423 0.01647 0.0
H352 H 0.86653 0.77829 0.97673 0.0
C353 C 0.78303 0.78542 0.91991 0.0
C354 C 0.77955 0.82181 0.90722 0.0
C355 C 0.79873 0.78592 0.94237 0.0
C356 C 0.84767 0.79743 0.98767 0.0
H357 H 0.75758 0.76386 0.08988 0.0
H358 H 0.75874 0.79217 0.05074 0.0
H359 H 0.87225 0.77192 0.01886 0.0
H360 H 0.79098 0.887 0.90763 0.0
H361 H 0.81735 0.88801 0.94735 0.0
H362 H 0.77195 0.86883 0.98528 0.0
C363 C 0.78649 0.79288 0.06096 0.0
C364 C 0.85102 0.79394 0.0117 0.0
C365 C 0.78581 0.7767 0.0833 0.0
C366 C 0.79394 0.85843 0.91694 0.0
C367 C 0.80869 0.85909 0.93967 0.0
C368 C 0.79469 0.84839 0.99245 0.0
C369 C 0.82331 0.80674 0.05125 0.0
C370 C 0.82503 0.81638 0.02627 0.0
C371 C 0.81027 0.82296 0.95274 0.0
C372 C 0.81891 0.8241 0.97785 0.0
H373 H 0.88622 0.79006 0.09721 0.0
H374 H 0.88764 0.81726 0.05766 0.0
H375 H 0.77696 0.86171 0.02738 0.0
H376 H 0.77184 0.75687 0.91285 0.0
H377 H 0.79932 0.75772 0.95217 0.0
C378 C 0.71726 0.28219 0.42042 0.0
C379 C 0.68119 0.27876 0.40741 0.0
C380 C 0.71628 0.29829 0.44278 0.0
C381 C 0.70427 0.34759 0.48779 0.0
H382 H 0.63691 0.27894 0.52709 0.0
C383 C 0.70826 0.35899 0.58745 0.0
C384 C 0.72307 0.32231 0.59689 0.0
C385 C 0.69348 0.36004 0.56474 0.0
C386 C 0.65527 0.29881 0.51629 0.0
H387 H 0.61607 0.29079 0.40716 0.0
H388 H 0.6142 0.31792 0.44669 0.0
H389 H 0.6311 0.27353 0.48495 0.0
H390 H 0.73152 0.25763 0.59072 0.0
H391 H 0.70404 0.25913 0.55141 0.0
H392 H 0.72938 0.37193 0.51915 0.0
C393 C 0.64326 0.30886 0.43933 0.0
C394 C 0.65185 0.29588 0.49224 0.0
C395 C 0.64442 0.29368 0.41671 0.0
C396 C 0.72002 0.28621 0.58389 0.0
C397 C 0.70431 0.28708 0.56144 0.0
C398 C 0.70706 0.35115 0.51184 0.0
C399 C 0.67904 0.31032 0.45274 0.0
C400 C 0.67723 0.31933 0.4778 0.0
C401 C 0.69231 0.32423 0.55137 0.0
C402 C 0.68349 0.32588 0.52628 0.0
H403 H 0.74591 0.27061 0.4137 0.0
H404 H 0.74421 0.29877 0.45283 0.0
H405 H 0.72423 0.36586 0.477 0.0
H406 H 0.71087 0.38735 0.59699 0.0
H407 H 0.68445 0.38903 0.5573 0.0
C408 C 0.29844 0.23938 0.18111 0.0
C409 C 0.26186 0.25252 0.19139 0.0
C410 C 0.3341 0.23565 0.19427 0.0
C411 C 0.38659 0.2849 0.24032 0.0
H412 H 0.45311 0.18755 0.24594 0.0
C413 C 0.53174 0.28159 0.2976 0.0
C414 C 0.56294 0.25362 0.29246 0.0
C415 C 0.49546 0.28185 0.28477 0.0
C416 C 0.43552 0.21535 0.24419 0.0
H417 H 0.2335 0.27187 0.22335 0.0
H418 H 0.29649 0.26653 0.24638 0.0
H419 H 0.3881 0.18432 0.22541 0.0
H420 H 0.5818 0.20578 0.26895 0.0
H421 H 0.51999 0.20805 0.24552 0.0
H422 H 0.43438 0.31676 0.25785 0.0
C423 C 0.29717 0.25818 0.22826 0.0
C424 C 0.39796 0.21321 0.23265 0.0
C425 C 0.26118 0.26082 0.21519 0.0
C426 C 0.55819 0.22762 0.27335 0.0
C427 C 0.52233 0.22854 0.26015 0.0
C428 C 0.42458 0.28734 0.25137 0.0
C429 C 0.33406 0.24625 0.21778 0.0
C430 C 0.37308 0.24789 0.23076 0.0
C431 C 0.48978 0.25472 0.2661 0.0
C432 C 0.44967 0.25255 0.25359 0.0
H433 H 0.29975 0.23349 0.16269 0.0
H434 H 0.36222 0.22664 0.1858 0.0
H435 H 0.36817 0.31224 0.23872 0.0
H436 H 0.53425 0.3016 0.31245 0.0
H437 H 0.47125 0.30213 0.29027 0.0
C438 C 0.23563 0.76218 0.7133 0.0
C439 C 0.24526 0.76158 0.6897 0.0
C440 C 0.23791 0.79874 0.72586 0.0
C441 C 0.24073 0.91205 0.71596 0.0
H442 H 0.25756 0.91488 0.78227 0.0
C443 C 0.27068 0.058 0.77159 0.0
C444 C 0.24509 0.06259 0.79094 0.0
C445 C 0.26918 0.02236 0.75822 0.0
C446 C 0.25261 0.91441 0.76374 0.0
H447 H 0.26661 0.79767 0.66083 0.0
H448 H 0.2738 0.86065 0.68291 0.0
H449 H 0.26281 0.85005 0.76171 0.0
H450 H 0.19724 0.03385 0.81115 0.0
H451 H 0.19545 0.97111 0.78809 0.0
H452 H 0.23239 0.977 0.71815 0.0
C453 C 0.26265 0.83371 0.69174 0.0
C454 C 0.25541 0.8772 0.75191 0.0
C455 C 0.25931 0.79745 0.67911 0.0
C456 C 0.21701 0.03141 0.79619 0.0
C457 C 0.21623 0.99537 0.78316 0.0
C458 C 0.2389 0.94934 0.72775 0.0
C459 C 0.2506 0.83537 0.71513 0.0
C460 C 0.24927 0.87532 0.7278 0.0
C461 C 0.24278 0.99027 0.76431 0.0
C462 C 0.24449 0.9508 0.75176 0.0
H463 H 0.2238 0.73503 0.72168 0.0
H464 H 0.22776 0.79849 0.74366 0.0
H465 H 0.23468 0.91215 0.69756 0.0
H466 H 0.29278 0.08141 0.76721 0.0
H467 H 0.28997 0.0191 0.74376 0.0
C468 C 0.45768 0.71948 0.29059 0.0
C469 C 0.43512 0.75598 0.29124 0.0
C470 C 0.4936 0.71681 0.27748 0.0
C471 C 0.57453 0.78214 0.25193 0.0
H472 H 0.60291 0.68377 0.21837 0.0
C473 C 0.73429 0.75451 0.20911 0.0
C474 C 0.73385 0.73467 0.18754 0.0
C475 C 0.69801 0.75888 0.22192 0.0
C476 C 0.5954 0.71161 0.22754 0.0
H477 H 0.43179 0.81777 0.27781 0.0
H478 H 0.49385 0.81284 0.25468 0.0
H479 H 0.53835 0.68707 0.23919 0.0
H480 H 0.69434 0.70609 0.16201 0.0
H481 H 0.63194 0.71417 0.18397 0.0
H482 H 0.63146 0.80684 0.23987 0.0
C483 C 0.4843 0.78651 0.26466 0.0
C484 C 0.5585 0.71332 0.23969 0.0
C485 C 0.4484 0.78916 0.27772 0.0
C486 C 0.69615 0.72096 0.17871 0.0
C487 C 0.66021 0.72536 0.19139 0.0
C488 C 0.61158 0.78038 0.23979 0.0
C489 C 0.50783 0.75059 0.26473 0.0
C490 C 0.5474 0.74869 0.25192 0.0
C491 C 0.66068 0.74351 0.21337 0.0
C492 C 0.62229 0.74521 0.22725 0.0
H493 H 0.44852 0.69345 0.30093 0.0
H494 H 0.51103 0.68872 0.27806 0.0
H495 H 0.56728 0.80967 0.26146 0.0
H496 H 0.76276 0.76535 0.21644 0.0
H497 H 0.69943 0.77304 0.23882 0.0
C498 C 0.74419 0.2046 0.68008 0.0
C499 C 0.75836 0.24041 0.69068 0.0
C500 C 0.74097 0.16828 0.69267 0.0
C501 C 0.74873 0.12454 0.75275 0.0
H502 H 0.77141 0.02487 0.71882 0.0
C503 C 0.78703 0.9702 0.79684 0.0
C504 C 0.75881 0.93913 0.79162 0.0
C505 C 0.78791 0.00623 0.7838 0.0
C506 C 0.765 0.0525 0.72846 0.0
H507 H 0.78018 0.2668 0.72262 0.0
H508 H 0.77644 0.20323 0.74452 0.0
H509 H 0.76901 0.08981 0.69831 0.0
H510 H 0.71099 0.92047 0.76793 0.0
H511 H 0.71396 0.98277 0.74447 0.0
H512 H 0.74676 0.08675 0.78306 0.0
C513 C 0.7661 0.20307 0.72676 0.0
C514 C 0.76311 0.08983 0.71672 0.0
C515 C 0.76826 0.23968 0.71425 0.0
C516 C 0.7332 0.9438 0.77228 0.0
C517 C 0.73479 0.97943 0.75891 0.0
C518 C 0.75159 0.08729 0.76453 0.0
C519 C 0.75327 0.16651 0.71602 0.0
C520 C 0.75468 0.12651 0.72864 0.0
C521 C 0.7613 0.01143 0.76498 0.0
C522 C 0.75959 0.05094 0.75248 0.0
H523 H 0.73667 0.20448 0.66184 0.0
H524 H 0.72971 0.14139 0.68385 0.0
H525 H 0.74141 0.15166 0.7626 0.0
H526 H 0.80682 0.9677 0.81178 0.0
H527 H 0.80878 0.03043 0.78872 0.0
C528 C 0.79996 0.25033 0.32425 0.0
C529 C 0.76246 0.24069 0.31374 0.0
C530 C 0.83548 0.2541 0.31098 0.0
C531 C 0.88552 0.20983 0.26288 0.0
H532 H 0.95379 0.30643 0.25984 0.0
C533 C 0.0302 0.21574 0.20521 0.0
C534 C 0.06203 0.24259 0.21107 0.0
C535 C 0.99396 0.21508 0.21809 0.0
C536 C 0.93571 0.2788 0.26084 0.0
H537 H 0.73241 0.22767 0.28123 0.0
H538 H 0.7952 0.23293 0.25797 0.0
H539 H 0.88927 0.30873 0.28089 0.0
H540 H 0.08195 0.28802 0.23581 0.0
H541 H 0.02021 0.28494 0.25926 0.0
H542 H 0.93237 0.17889 0.24409 0.0
C543 C 0.79669 0.23848 0.27642 0.0
C544 C 0.89842 0.28044 0.27268 0.0
C545 C 0.76085 0.23584 0.28964 0.0
C546 C 0.05785 0.26707 0.23085 0.0
C547 C 0.02204 0.26571 0.24408 0.0
C548 C 0.92325 0.20781 0.25152 0.0
C549 C 0.83436 0.24709 0.28706 0.0
C550 C 0.87294 0.24605 0.27368 0.0
C551 C 0.98894 0.24065 0.2375 0.0
C552 C 0.94899 0.24232 0.25022 0.0
H553 H 0.80197 0.25375 0.34285 0.0
H554 H 0.86421 0.26056 0.31956 0.0
H555 H 0.86659 0.1827 0.26376 0.0
H556 H 0.03225 0.19693 0.18985 0.0
H557 H 0.96933 0.19574 0.21209 0.0
C558 C 0.2341 0.5581 0.73086 0.0
C559 C 0.25905 0.56243 0.71127 0.0
C560 C 0.23535 0.52234 0.74412 0.0
C561 C 0.29333 0.42381 0.75191 0.0
H562 H 0.19134 0.38899 0.77989 0.0
C563 C 0.26475 0.26073 0.78854 0.0
C564 C 0.25879 0.26169 0.81258 0.0
C565 C 0.26232 0.29682 0.77557 0.0
C566 C 0.21993 0.39838 0.77207 0.0
H567 H 0.30555 0.53308 0.69047 0.0
H568 H 0.3066 0.47024 0.71275 0.0
H569 H 0.1943 0.45384 0.75923 0.0
H570 H 0.24403 0.30027 0.84179 0.0
H571 H 0.23755 0.36296 0.81889 0.0
H572 H 0.31811 0.36705 0.76412 0.0
C573 C 0.28693 0.4947 0.71858 0.0
C574 C 0.22194 0.43586 0.76046 0.0
C575 C 0.28637 0.5309 0.70569 0.0
C576 C 0.24822 0.29876 0.82323 0.0
C577 C 0.24467 0.33454 0.81018 0.0
C578 C 0.29097 0.3859 0.76303 0.0
C579 C 0.26079 0.48944 0.73774 0.0
C580 C 0.25879 0.44941 0.75033 0.0
C581 C 0.25286 0.3341 0.78637 0.0
C582 C 0.25434 0.373 0.77332 0.0
H583 H 0.21278 0.58198 0.73561 0.0
H584 H 0.21568 0.52033 0.75911 0.0
H585 H 0.32251 0.43314 0.74486 0.0
H586 H 0.27371 0.23263 0.78006 0.0
H587 H 0.26878 0.29585 0.7572 0.0
C588 C 0.19872 0.75544 0.32477 0.0
C589 C 0.23527 0.76749 0.314 0.0
C590 C 0.16261 0.75184 0.312 0.0
C591 C 0.10865 0.79854 0.26563 0.0
H592 H 0.04328 0.70007 0.26173 0.0
C593 C 0.96283 0.79022 0.20891 0.0
C594 C 0.93236 0.76155 0.21433 0.0
C595 C 0.99903 0.792 0.22179 0.0
C596 C 0.0605 0.7282 0.26301 0.0
H597 H 0.263 0.78516 0.28154 0.0
H598 H 0.19915 0.78014 0.25918 0.0
H599 H 0.10865 0.69862 0.2819 0.0
H600 H 0.91462 0.71424 0.23846 0.0
H601 H 0.97618 0.71924 0.26198 0.0
H602 H 0.06013 0.82899 0.24795 0.0
C603 C 0.19886 0.7726 0.27742 0.0
C604 C 0.0983 0.72707 0.27434 0.0
C605 C 0.23533 0.77509 0.29011 0.0
C606 C 0.93764 0.7366 0.23384 0.0
C607 C 0.97339 0.73906 0.24709 0.0
C608 C 0.0704 0.79999 0.25478 0.0
C609 C 0.16212 0.76145 0.28835 0.0
C610 C 0.12281 0.76215 0.27561 0.0
C611 C 0.00537 0.76574 0.24078 0.0
C612 C 0.04569 0.76478 0.25318 0.0
H613 H 0.19789 0.74991 0.34324 0.0
H614 H 0.13463 0.74339 0.32081 0.0
H615 H 0.12679 0.82618 0.26673 0.0
H616 H 0.95996 0.80945 0.19375 0.0
H617 H 0.02276 0.81266 0.21602 0.0
C618 C 0.76915 0.44385 0.73194 0.0
C619 C 0.74356 0.43912 0.71259 0.0
C620 C 0.76751 0.47948 0.74531 0.0
C621 C 0.75059 0.58731 0.73964 0.0
H622 H 0.7332 0.58979 0.80587 0.0
C623 C 0.73379 0.73966 0.78991 0.0
C624 C 0.74377 0.74041 0.81347 0.0
C625 C 0.73595 0.70305 0.77741 0.0
C626 C 0.73909 0.58983 0.78746 0.0
H627 H 0.69554 0.46758 0.69241 0.0
H628 H 0.69351 0.5303 0.71546 0.0
H629 H 0.73087 0.52484 0.78538 0.0
H630 H 0.76559 0.70455 0.8423 0.0
H631 H 0.77254 0.64147 0.8203 0.0
H632 H 0.76068 0.6517 0.74156 0.0
C633 C 0.7144 0.50616 0.72039 0.0
C634 C 0.73724 0.55249 0.77573 0.0
C635 C 0.71531 0.47012 0.70736 0.0
C636 C 0.75801 0.70465 0.82406 0.0
C637 C 0.76122 0.66833 0.81148 0.0
C638 C 0.75341 0.62457 0.75142 0.0
C639 C 0.74098 0.51142 0.73922 0.0
C640 C 0.74265 0.55094 0.75171 0.0
C641 C 0.74885 0.66653 0.78815 0.0
C642 C 0.74747 0.62652 0.77553 0.0
H643 H 0.79137 0.42058 0.7363 0.0
H644 H 0.78833 0.48288 0.75975 0.0
H645 H 0.75541 0.58677 0.72111 0.0
H646 H 0.72181 0.76674 0.78155 0.0
H647 H 0.72556 0.70317 0.75965 0.0
C648 C 0.90779 0.60658 0.14893 0.0
C649 C 0.91171 0.64312 0.13654 0.0
C650 C 0.93024 0.57228 0.1425 0.0
C651 C 0.02697 0.54334 0.1187 0.0
H652 H 0.9782 0.43538 0.11622 0.0
C653 C 0.07555 0.36168 0.11501 0.0
C654 C 0.10134 0.36101 0.13437 0.0
C655 C 0.05535 0.39763 0.10882 0.0
C656 C 0.99224 0.46535 0.11639 0.0
H657 H 0.94375 0.67385 0.1088 0.0
H658 H 0.98408 0.61361 0.09771 0.0
H659 H 0.9343 0.49564 0.11717 0.0
H660 H 0.12484 0.39608 0.16316 0.0
H661 H 0.09044 0.45927 0.15209 0.0
H662 H 0.08494 0.51283 0.11941 0.0
C663 C 0.96253 0.61123 0.11186 0.0
C664 C 0.96714 0.49973 0.11708 0.0
C665 C 0.93958 0.64548 0.11815 0.0
C666 C 0.10652 0.39652 0.14755 0.0
C667 C 0.08676 0.43253 0.14126 0.0
C668 C 0.05211 0.50888 0.11834 0.0
C669 C 0.95798 0.57437 0.12401 0.0
C670 C 0.98428 0.5389 0.11894 0.0
C671 C 0.06047 0.43323 0.12207 0.0
C672 C 0.03487 0.4696 0.11787 0.0
H673 H 0.8879 0.60478 0.16387 0.0
H674 H 0.92696 0.54449 0.15251 0.0
H675 H 0.04087 0.57326 0.12027 0.0
H676 H 0.07046 0.3342 0.10497 0.0
H677 H 0.03493 0.39739 0.09408 0.0
C678 C 0.85919 0.43277 0.61519 0.0
C679 C 0.8603 0.4063 0.63425 0.0
C680 C 0.89422 0.45429 0.60863 0.0
C681 C 0.00579 0.459 0.61555 0.0
H682 H 0.99185 0.57671 0.61607 0.0
C683 C 0.10588 0.60095 0.64615 0.0
C684 C 0.142 0.59639 0.63342 0.0
C685 C 0.07061 0.58003 0.63963 0.0
C686 C 0.99607 0.5439 0.61551 0.0
H687 H 0.89749 0.38314 0.66225 0.0
H688 H 0.95915 0.41971 0.65047 0.0
H689 H 0.93169 0.53228 0.61626 0.0
H690 H 0.17074 0.56524 0.60471 0.0
H691 H 0.10885 0.52763 0.59346 0.0
H692 H 0.07017 0.47062 0.6159 0.0
C693 C 0.9317 0.42296 0.64015 0.0
C694 C 0.96177 0.51853 0.61547 0.0
C695 C 0.8966 0.40192 0.64684 0.0
C696 C 0.14275 0.56988 0.61437 0.0
C697 C 0.10755 0.54848 0.60798 0.0
C698 C 0.04009 0.48437 0.61527 0.0
C699 C 0.93067 0.44974 0.62119 0.0
C700 C 0.96641 0.47591 0.61636 0.0
C701 C 0.0713 0.55317 0.6207 0.0
C702 C 0.03547 0.52699 0.61611 0.0
H703 H 0.83106 0.43728 0.60564 0.0
H704 H 0.89266 0.47508 0.59409 0.0
H705 H 0.01002 0.4262 0.61615 0.0
H706 H 0.10526 0.61976 0.66155 0.0
H707 H 0.04332 0.58339 0.65006 0.0
C708 C 0.57132 0.14261 0.39159 0.0
C709 C 0.59728 0.14051 0.37232 0.0
C710 C 0.54965 0.10808 0.39877 0.0
C711 C 0.54249 0.99627 0.3924 0.0
H712 H 0.42512 0.01324 0.39304 0.0
C713 C 0.39764 0.90164 0.36118 0.0
C714 C 0.40199 0.86448 0.37292 0.0
C715 C 0.41921 0.93603 0.36843 0.0
C716 C 0.45784 0.00815 0.3933 0.0
H717 H 0.61951 0.10198 0.34468 0.0
H718 H 0.58254 0.04127 0.35748 0.0
H719 H 0.47107 0.07216 0.39275 0.0
H720 H 0.43327 0.83309 0.40067 0.0
H721 H 0.47203 0.89345 0.41322 0.0
H722 H 0.52921 0.93227 0.39167 0.0
C723 C 0.57985 0.06909 0.3675 0.0
C724 C 0.4841 0.04177 0.39329 0.0
C725 C 0.6011 0.10367 0.36021 0.0
C726 C 0.42881 0.86187 0.39178 0.0
C727 C 0.45086 0.89621 0.3989 0.0
C728 C 0.51624 0.96265 0.39268 0.0
C729 C 0.55344 0.07114 0.38662 0.0
C730 C 0.52658 0.03607 0.39188 0.0
C731 C 0.44653 0.93347 0.38711 0.0
C732 C 0.4737 0.96837 0.39219 0.0
H733 H 0.56727 0.17116 0.40078 0.0
H734 H 0.52919 0.11046 0.41343 0.0
H735 H 0.57517 0.99119 0.39146 0.0
H736 H 0.37857 0.90375 0.34591 0.0
H737 H 0.41608 0.9641 0.35867 0.0
C738 C 0.39766 0.10102 0.85689 0.0
C739 C 0.36132 0.09659 0.86944 0.0
C740 C 0.43276 0.08013 0.86366 0.0
C741 C 0.46261 0.98465 0.88848 0.0
H742 H 0.57118 0.03234 0.88772 0.0
C743 C 0.64335 0.93275 0.88905 0.0
C744 C 0.64226 0.90625 0.87001 0.0
C745 C 0.60834 0.95432 0.89554 0.0
C746 C 0.54105 0.01866 0.88845 0.0
H747 H 0.33203 0.06572 0.89808 0.0
H748 H 0.39364 0.02818 0.90978 0.0
H749 H 0.51117 0.07689 0.88757 0.0
H750 H 0.60512 0.88307 0.84197 0.0
H751 H 0.54351 0.9197 0.85365 0.0
H752 H 0.49248 0.92641 0.88786 0.0
C753 C 0.39523 0.0489 0.8952 0.0
C754 C 0.50683 0.0441 0.88822 0.0
C755 C 0.36019 0.07026 0.88856 0.0
C756 C 0.606 0.90187 0.85737 0.0
C757 C 0.57092 0.92294 0.864 0.0
C758 C 0.49682 0.95922 0.88839 0.0
C759 C 0.4317 0.05344 0.88267 0.0
C760 C 0.46738 0.02726 0.88752 0.0
C761 C 0.57194 0.94978 0.88293 0.0
C762 C 0.53627 0.97604 0.88765 0.0
H763 H 0.39858 0.1197 0.84144 0.0
H764 H 0.46023 0.08338 0.85336 0.0
H765 H 0.43248 0.97095 0.88777 0.0
H766 H 0.67146 0.93727 0.89862 0.0
H767 H 0.6099 0.97516 0.91006 0.0
loop_
_geom_bond_atom_site_label_1
_geom_bond_atom_site_label_2
_geom_bond_distance
_geom_bond_site_symmetry_2
_ccdc_geom_bond_type
Mn0 O5 2.095 . S
Mn0 O15 2.162 . S
Mn0 O16 2.297 . S
Mn0 O24 2.385 . S
Mn0 O25 2.209 . S
Mn0 O26 2.094 . S
Mn1 O6 2.121 . S
Mn1 N8 2.257 . S
Mn1 N17 2.282 . S
Mn1 O25 2.215 . S
Mn1 O27 2.117 . S
C2 O24 1.234 . S
C2 O25 1.283 . S
C3 O15 1.281 . S
C3 O16 1.236 . S
C4 O26 1.240 . S
C4 O27 1.264 . S
O5 Mn0 2.095 . S
O5 C14 1.250 . S
O6 Mn1 2.121 . S
O6 C14 1.258 . S
C7 N8 1.326 . S
C7 C11 1.460 . S
C7 H13 0.929 . S
N8 Mn1 2.257 . S
N8 C7 1.326 . S
N8 C12 1.362 . S
C9 C10 1.258 . S
C9 C12 1.431 . S
C9 C29 1.449 . S
C10 C9 1.258 . S
C10 C11 1.477 . S
C10 H30 0.931 . S
C11 C7 1.460 . S
C11 C10 1.477 . S
C11 H31 0.930 . S
C12 N8 1.362 . S
C12 C9 1.431 . S
C12 C22 1.476 . S
H13 C7 0.929 . S
C14 O5 1.250 . S
C14 O6 1.258 . S
O15 Mn0 2.162 . S
O15 C3 1.281 . S
O16 Mn0 2.297 . S
O16 C3 1.236 . S
N17 Mn1 2.282 . S
N17 C18 1.328 . S
N17 C22 1.318 . S
C18 N17 1.328 . S
C18 C19 1.457 . S
C18 H23 0.929 . S
C19 C18 1.457 . S
C19 C20 1.291 . S
C19 H32 0.931 . S
C20 C19 1.291 . S
C20 C21 1.373 . S
C20 H33 0.929 . S
C21 C20 1.373 . S
C21 C22 1.396 . S
C21 C28 1.403 . S
C22 C12 1.476 . S
C22 N17 1.318 . S
C22 C21 1.396 . S
H23 C18 0.929 . S
O24 Mn0 2.385 . S
O24 C2 1.234 . S
O25 Mn0 2.209 . S
O25 Mn1 2.215 . S
O25 C2 1.283 . S
O26 Mn0 2.094 . S
O26 C4 1.240 . S
O27 Mn1 2.117 . S
O27 C4 1.264 . S
C28 C21 1.403 . S
C28 C29 1.399 . S
C28 H34 0.929 . S
C29 C9 1.449 . S
C29 C28 1.399 . S
C29 H35 0.930 . S
H30 C10 0.931 . S
H31 C11 0.930 . S
H32 C19 0.931 . S
H33 C20 0.929 . S
H34 C28 0.929 . S
H35 C29 0.930 . S
Mn36 O41 2.095 . S
Mn36 O51 2.162 . S
Mn36 O52 2.297 . S
Mn36 O60 2.385 . S
Mn36 O61 2.209 . S
Mn36 O62 2.094 . S
Mn37 O42 2.121 . S
Mn37 N44 2.257 . S
Mn37 N53 2.282 . S
Mn37 O61 2.215 . S
Mn37 O63 2.117 . S
C38 O60 1.234 . S
C38 O61 1.283 . S
C39 O51 1.281 . S
C39 O52 1.236 . S
C40 O62 1.240 . S
C40 O63 1.264 . S
O41 Mn36 2.095 . S
O41 C50 1.250 . S
O42 Mn37 2.121 . S
O42 C50 1.258 . S
C43 N44 1.326 . S
C43 C47 1.460 . S
C43 H49 0.929 . S
N44 Mn37 2.257 . S
N44 C43 1.326 . S
N44 C48 1.362 . S
C45 C46 1.258 . S
C45 C48 1.431 . S
C45 C65 1.450 1_455 S
C46 C45 1.258 . S
C46 C47 1.477 . S
C46 H66 0.931 1_455 S
C47 C43 1.460 . S
C47 C46 1.477 . S
C47 H67 0.930 . S
C48 N44 1.362 . S
C48 C45 1.431 . S
C48 C58 1.476 . S
H49 C43 0.929 . S
C50 O41 1.250 . S
C50 O42 1.258 . S
O51 Mn36 2.162 . S
O51 C39 1.281 . S
O52 Mn36 2.297 . S
O52 C39 1.236 . S
N53 Mn37 2.282 . S
N53 C54 1.328 . S
N53 C58 1.318 . S
C54 N53 1.328 . S
C54 C55 1.457 . S
C54 H59 0.929 . S
C55 C54 1.457 . S
C55 C56 1.291 . S
C55 H68 0.931 . S
C56 C55 1.291 . S
C56 C57 1.373 . S
C56 H69 0.929 . S
C57 C56 1.373 . S
C57 C58 1.396 . S
C57 C64 1.403 . S
C58 C48 1.476 . S
C58 N53 1.318 . S
C58 C57 1.396 . S
H59 C54 0.929 . S
O60 Mn36 2.385 . S
O60 C38 1.234 . S
O61 Mn36 2.209 . S
O61 Mn37 2.215 . S
O61 C38 1.283 . S
O62 Mn36 2.094 . S
O62 C40 1.240 . S
O63 Mn37 2.117 . S
O63 C40 1.264 . S
C64 C57 1.403 . S
C64 C65 1.400 1_455 S
C64 H70 0.929 1_455 S
C65 C45 1.450 1_655 S
C65 C64 1.400 1_655 S
C65 H71 0.929 . S
H66 C46 0.931 1_655 S
H67 C47 0.930 . S
H68 C55 0.931 . S
H69 C56 0.929 . S
H70 C64 0.929 1_655 S
H71 C65 0.929 . S
Mn72 O77 2.095 . S
Mn72 O87 2.162 . S
Mn72 O88 2.297 . S
Mn72 O96 2.385 . S
Mn72 O97 2.209 . S
Mn72 O98 2.094 . S
Mn73 O78 2.121 . S
Mn73 N80 2.257 . S
Mn73 N89 2.282 . S
Mn73 O97 2.215 . S
Mn73 O99 2.117 . S
C74 O96 1.234 . S
C74 O97 1.283 . S
C75 O87 1.281 . S
C75 O88 1.236 . S
C76 O98 1.240 . S
C76 O99 1.264 . S
O77 Mn72 2.095 . S
O77 C86 1.250 . S
O78 Mn73 2.121 . S
O78 C86 1.258 . S
C79 N80 1.326 . S
C79 C83 1.460 . S
C79 H85 0.929 . S
N80 Mn73 2.257 . S
N80 C79 1.326 . S
N80 C84 1.362 . S
C81 C82 1.258 . S
C81 C84 1.431 . S
C81 C101 1.449 . S
C82 C81 1.258 . S
C82 C83 1.477 . S
C82 H102 0.931 . S
C83 C79 1.460 . S
C83 C82 1.477 . S
C83 H103 0.930 . S
C84 N80 1.362 . S
C84 C81 1.431 . S
C84 C94 1.476 . S
H85 C79 0.929 . S
C86 O77 1.250 . S
C86 O78 1.258 . S
O87 Mn72 2.162 . S
O87 C75 1.281 . S
O88 Mn72 2.297 . S
O88 C75 1.236 . S
N89 Mn73 2.282 . S
N89 C90 1.328 . S
N89 C94 1.318 . S
C90 N89 1.328 . S
C90 C91 1.457 . S
C90 H95 0.929 . S
C91 C90 1.457 . S
C91 C92 1.291 . S
C91 H104 0.931 . S
C92 C91 1.291 . S
C92 C93 1.373 . S
C92 H105 0.929 . S
C93 C92 1.373 . S
C93 C94 1.396 . S
C93 C100 1.403 . S
C94 C84 1.476 . S
C94 N89 1.318 . S
C94 C93 1.396 . S
H95 C90 0.929 . S
O96 Mn72 2.385 . S
O96 C74 1.234 . S
O97 Mn72 2.209 . S
O97 Mn73 2.215 . S
O97 C74 1.283 . S
O98 Mn72 2.094 . S
O98 C76 1.240 . S
O99 Mn73 2.117 . S
O99 C76 1.264 . S
C100 C93 1.403 . S
C100 C101 1.399 . S
C100 H106 0.929 . S
C101 C81 1.449 . S
C101 C100 1.399 . S
C101 H107 0.930 . S
H102 C82 0.931 . S
H103 C83 0.930 . S
H104 C91 0.931 . S
H105 C92 0.929 . S
H106 C100 0.929 . S
H107 C101 0.930 . S
Mn108 O113 2.095 . S
Mn108 O123 2.162 . S
Mn108 O124 2.297 . S
Mn108 O132 2.385 . S
Mn108 O133 2.209 . S
Mn108 O134 2.094 . S
Mn109 O114 2.121 . S
Mn109 N116 2.257 . S
Mn109 N125 2.282 . S
Mn109 O133 2.215 . S
Mn109 O135 2.117 . S
C110 O132 1.234 . S
C110 O133 1.283 . S
C111 O123 1.281 . S
C111 O124 1.236 . S
C112 O134 1.240 . S
C112 O135 1.264 . S
O113 Mn108 2.095 . S
O113 C122 1.250 . S
O114 Mn109 2.121 . S
O114 C122 1.258 . S
C115 N116 1.326 . S
C115 C119 1.460 . S
C115 H121 0.929 . S
N116 Mn109 2.257 . S
N116 C115 1.326 . S
N116 C120 1.362 . S
C117 C118 1.258 . S
C117 C120 1.431 . S
C117 C137 1.450 1_655 S
C118 C117 1.258 . S
C118 C119 1.477 . S
C118 H138 0.931 1_655 S
C119 C115 1.460 . S
C119 C118 1.477 . S
C119 H139 0.930 . S
C120 N116 1.362 . S
C120 C117 1.431 . S
C120 C130 1.476 . S
H121 C115 0.929 . S
C122 O113 1.250 . S
C122 O114 1.258 . S
O123 Mn108 2.162 . S
O123 C111 1.281 . S
O124 Mn108 2.297 . S
O124 C111 1.236 . S
N125 Mn109 2.282 . S
N125 C126 1.328 . S
N125 C130 1.318 . S
C126 N125 1.328 . S
C126 C127 1.457 . S
C126 H131 0.929 . S
C127 C126 1.457 . S
C127 C128 1.291 . S
C127 H140 0.931 . S
C128 C127 1.291 . S
C128 C129 1.373 . S
C128 H141 0.929 . S
C129 C128 1.373 . S
C129 C130 1.396 . S
C129 C136 1.403 . S
C130 C120 1.476 . S
C130 N125 1.318 . S
C130 C129 1.396 . S
H131 C126 0.929 . S
O132 Mn108 2.385 . S
O132 C110 1.234 . S
O133 Mn108 2.209 . S
O133 Mn109 2.215 . S
O133 C110 1.283 . S
O134 Mn108 2.094 . S
O134 C112 1.240 . S
O135 Mn109 2.117 . S
O135 C112 1.264 . S
C136 C129 1.403 . S
C136 C137 1.400 1_655 S
C136 H142 0.929 1_655 S
C137 C117 1.450 1_455 S
C137 C136 1.400 1_455 S
C137 H143 0.929 . S
H138 C118 0.931 1_455 S
H139 C119 0.930 . S
H140 C127 0.931 . S
H141 C128 0.929 . S
H142 C136 0.929 1_455 S
H143 C137 0.929 . S
Mn144 O149 2.095 . S
Mn144 O159 2.162 . S
Mn144 O160 2.297 . S
Mn144 O168 2.385 . S
Mn144 O169 2.209 . S
Mn144 O170 2.094 . S
Mn145 O150 2.121 . S
Mn145 N152 2.257 . S
Mn145 N161 2.282 . S
Mn145 O169 2.215 . S
Mn145 O171 2.117 . S
C146 O168 1.234 . S
C146 O169 1.283 . S
C147 O159 1.281 . S
C147 O160 1.236 . S
C148 O170 1.240 . S
C148 O171 1.264 . S
O149 Mn144 2.095 . S
O149 C158 1.250 . S
O150 Mn145 2.121 . S
O150 C158 1.258 . S
C151 N152 1.326 . S
C151 C155 1.460 . S
C151 H157 0.929 . S
N152 Mn145 2.257 . S
N152 C151 1.326 . S
N152 C156 1.362 . S
C153 C154 1.258 . S
C153 C156 1.431 . S
C153 C173 1.450 1_545 S
C154 C153 1.258 . S
C154 C155 1.477 . S
C154 H174 0.931 1_545 S
C155 C151 1.460 . S
C155 C154 1.477 . S
C155 H175 0.930 . S
C156 N152 1.362 . S
C156 C153 1.431 . S
C156 C166 1.476 . S
H157 C151 0.929 . S
C158 O149 1.250 . S
C158 O150 1.258 . S
O159 Mn144 2.162 . S
O159 C147 1.281 . S
O160 Mn144 2.297 . S
O160 C147 1.236 . S
N161 Mn145 2.282 . S
N161 C162 1.328 . S
N161 C166 1.318 . S
C162 N161 1.328 . S
C162 C163 1.457 . S
C162 H167 0.929 . S
C163 C162 1.457 . S
C163 C164 1.291 . S
C163 H176 0.931 . S
C164 C163 1.291 . S
C164 C165 1.373 . S
C164 H177 0.929 . S
C165 C164 1.373 . S
C165 C166 1.396 . S
C165 C172 1.403 . S
C166 C156 1.476 . S
C166 N161 1.318 . S
C166 C165 1.396 . S
H167 C162 0.929 . S
O168 Mn144 2.385 . S
O168 C146 1.234 . S
O169 Mn144 2.209 . S
O169 Mn145 2.215 . S
O169 C146 1.283 . S
O170 Mn144 2.094 . S
O170 C148 1.240 . S
O171 Mn145 2.117 . S
O171 C148 1.264 . S
C172 C165 1.403 . S
C172 C173 1.400 1_545 S
C172 H178 0.929 1_545 S
C173 C153 1.450 1_565 S
C173 C172 1.400 1_565 S
C173 H179 0.929 . S
H174 C154 0.931 1_565 S
H175 C155 0.930 . S
H176 C163 0.931 . S
H177 C164 0.929 . S
H178 C172 0.929 1_565 S
H179 C173 0.929 . S
Mn180 O185 2.095 . S
Mn180 O195 2.162 . S
Mn180 O196 2.297 . S
Mn180 O204 2.385 . S
Mn180 O205 2.209 . S
Mn180 O206 2.094 . S
Mn181 O186 2.121 . S
Mn181 N188 2.257 . S
Mn181 N197 2.282 . S
Mn181 O205 2.215 . S
Mn181 O207 2.117 . S
C182 O204 1.234 . S
C182 O205 1.283 . S
C183 O195 1.281 . S
C183 O196 1.236 . S
C184 O206 1.240 . S
C184 O207 1.264 . S
O185 Mn180 2.095 . S
O185 C194 1.250 . S
O186 Mn181 2.121 . S
O186 C194 1.258 . S
C187 N188 1.326 . S
C187 C191 1.460 . S
C187 H193 0.929 . S
N188 Mn181 2.257 . S
N188 C187 1.326 . S
N188 C192 1.362 . S
C189 C190 1.258 . S
C189 C192 1.431 . S
C189 C209 1.449 . S
C190 C189 1.258 . S
C190 C191 1.477 . S
C190 H210 0.931 . S
C191 C187 1.460 . S
C191 C190 1.477 . S
C191 H211 0.930 . S
C192 N188 1.362 . S
C192 C189 1.431 . S
C192 C202 1.476 . S
H193 C187 0.929 . S
C194 O185 1.250 . S
C194 O186 1.258 . S
O195 Mn180 2.162 . S
O195 C183 1.281 . S
O196 Mn180 2.297 . S
O196 C183 1.236 . S
N197 Mn181 2.282 . S
N197 C198 1.328 . S
N197 C202 1.318 . S
C198 N197 1.328 . S
C198 C199 1.457 . S
C198 H203 0.929 . S
C199 C198 1.457 . S
C199 C200 1.291 . S
C199 H212 0.931 . S
C200 C199 1.291 . S
C200 C201 1.373 . S
C200 H213 0.929 . S
C201 C200 1.373 . S
C201 C202 1.396 . S
C201 C208 1.403 . S
C202 C192 1.476 . S
C202 N197 1.318 . S
C202 C201 1.396 . S
H203 C198 0.929 . S
O204 Mn180 2.385 . S
O204 C182 1.234 . S
O205 Mn180 2.209 . S
O205 Mn181 2.215 . S
O205 C182 1.283 . S
O206 Mn180 2.094 . S
O206 C184 1.240 . S
O207 Mn181 2.117 . S
O207 C184 1.264 . S
C208 C201 1.403 . S
C208 C209 1.399 . S
C208 H214 0.929 . S
C209 C189 1.449 . S
C209 C208 1.399 . S
C209 H215 0.930 . S
H210 C190 0.931 . S
H211 C191 0.930 . S
H212 C199 0.931 . S
H213 C200 0.929 . S
H214 C208 0.929 . S
H215 C209 0.930 . S
Mn216 O221 2.095 . S
Mn216 O231 2.162 . S
Mn216 O232 2.297 . S
Mn216 O240 2.385 . S
Mn216 O241 2.209 . S
Mn216 O242 2.094 . S
Mn217 O222 2.121 . S
Mn217 N224 2.257 . S
Mn217 N233 2.282 . S
Mn217 O241 2.215 . S
Mn217 O243 2.117 . S
C218 O240 1.234 . S
C218 O241 1.283 . S
C219 O231 1.281 . S
C219 O232 1.236 . S
C220 O242 1.240 . S
C220 O243 1.264 . S
O221 Mn216 2.095 . S
O221 C230 1.250 . S
O222 Mn217 2.121 . S
O222 C230 1.258 . S
C223 N224 1.326 . S
C223 C227 1.460 . S
C223 H229 0.929 . S
N224 Mn217 2.257 . S
N224 C223 1.326 . S
N224 C228 1.362 . S
C225 C226 1.258 . S
C225 C228 1.431 . S
C225 C245 1.450 1_565 S
C226 C225 1.258 . S
C226 C227 1.477 . S
C226 H246 0.931 1_565 S
C227 C223 1.460 . S
C227 C226 1.477 . S
C227 H247 0.930 . S
C228 N224 1.362 . S
C228 C225 1.431 . S
C228 C238 1.476 . S
H229 C223 0.929 . S
C230 O221 1.250 . S
C230 O222 1.258 . S
O231 Mn216 2.162 . S
O231 C219 1.281 . S
O232 Mn216 2.297 . S
O232 C219 1.236 . S
N233 Mn217 2.282 . S
N233 C234 1.328 . S
N233 C238 1.318 . S
C234 N233 1.328 . S
C234 C235 1.457 . S
C234 H239 0.929 . S
C235 C234 1.457 . S
C235 C236 1.291 . S
C235 H248 0.931 . S
C236 C235 1.291 . S
C236 C237 1.373 . S
C236 H249 0.929 . S
C237 C236 1.373 . S
C237 C238 1.396 . S
C237 C244 1.403 . S
C238 C228 1.476 . S
C238 N233 1.318 . S
C238 C237 1.396 . S
H239 C234 0.929 . S
O240 Mn216 2.385 . S
O240 C218 1.234 . S
O241 Mn216 2.209 . S
O241 Mn217 2.215 . S
O241 C218 1.283 . S
O242 Mn216 2.094 . S
O242 C220 1.240 . S
O243 Mn217 2.117 . S
O243 C220 1.264 . S
C244 C237 1.403 . S
C244 C245 1.400 1_565 S
C244 H250 0.929 1_565 S
C245 C225 1.450 1_545 S
C245 C244 1.400 1_545 S
C245 H251 0.929 . S
H246 C226 0.931 1_545 S
H247 C227 0.930 . S
H248 C235 0.931 . S
H249 C236 0.929 . S
H250 C244 0.929 1_545 S
H251 C245 0.929 . S
Mn252 O257 2.095 . S
Mn252 O267 2.162 . S
Mn252 O268 2.297 . S
Mn252 O276 2.385 . S
Mn252 O277 2.209 . S
Mn252 O278 2.094 . S
Mn253 O258 2.121 . S
Mn253 N260 2.257 . S
Mn253 N269 2.282 . S
Mn253 O277 2.215 . S
Mn253 O279 2.117 . S
C254 O276 1.234 . S
C254 O277 1.283 . S
C255 O267 1.281 . S
C255 O268 1.236 . S
C256 O278 1.240 . S
C256 O279 1.264 . S
O257 Mn252 2.095 . S
O257 C266 1.250 . S
O258 Mn253 2.121 . S
O258 C266 1.258 . S
C259 N260 1.326 . S
C259 C263 1.460 . S
C259 H265 0.929 . S
N260 Mn253 2.257 . S
N260 C259 1.326 . S
N260 C264 1.362 . S
C261 C262 1.258 . S
C261 C264 1.431 . S
C261 C281 1.449 . S
C262 C261 1.258 . S
C262 C263 1.477 . S
C262 H282 0.931 . S
C263 C259 1.460 . S
C263 C262 1.477 . S
C263 H283 0.930 . S
C264 N260 1.362 . S
C264 C261 1.431 . S
C264 C274 1.476 . S
H265 C259 0.929 . S
C266 O257 1.250 . S
C266 O258 1.258 . S
O267 Mn252 2.162 . S
O267 C255 1.281 . S
O268 Mn252 2.297 . S
O268 C255 1.236 . S
N269 Mn253 2.282 . S
N269 C270 1.328 . S
N269 C274 1.318 . S
C270 N269 1.328 . S
C270 C271 1.457 . S
C270 H275 0.929 . S
C271 C270 1.457 . S
C271 C272 1.291 . S
C271 H284 0.931 . S
C272 C271 1.291 . S
C272 C273 1.373 . S
C272 H285 0.929 . S
C273 C272 1.373 . S
C273 C274 1.396 . S
C273 C280 1.403 . S
C274 C264 1.476 . S
C274 N269 1.318 . S
C274 C273 1.396 . S
H275 C270 0.929 . S
O276 Mn252 2.385 . S
O276 C254 1.234 . S
O277 Mn252 2.209 . S
O277 Mn253 2.215 . S
O277 C254 1.283 . S
O278 Mn252 2.094 . S
O278 C256 1.240 . S
O279 Mn253 2.117 . S
O279 C256 1.264 . S
C280 C273 1.403 . S
C280 C281 1.399 . S
C280 H286 0.929 . S
C281 C261 1.449 . S
C281 C280 1.399 . S
C281 H287 0.930 . S
H282 C262 0.931 . S
H283 C263 0.930 . S
H284 C271 0.931 . S
H285 C272 0.929 . S
H286 C280 0.929 . S
H287 C281 0.930 . S
C288 C289 1.349 . S
C288 C290 1.327 . S
C288 H313 0.950 . S
C289 C288 1.349 . S
C289 C305 1.349 . S
C290 C288 1.327 . S
C290 C309 1.429 . S
C290 H314 0.950 . S
C291 C308 1.574 1_554 S
C291 C310 1.368 . S
C291 H315 0.949 . S
H292 C296 0.949 . S
C293 C294 1.349 . S
C293 C295 1.327 . S
C293 H316 0.950 . S
C294 C293 1.349 . S
C294 C306 1.349 . S
C295 C293 1.327 . S
C295 C311 1.429 . S
C295 H317 0.950 . S
C296 H292 0.949 . S
C296 C304 1.574 1_556 S
C296 C312 1.368 . S
H297 C305 0.950 . S
H298 C303 0.950 . S
H299 C304 0.949 . S
H300 C306 0.950 . S
H301 C307 0.950 . S
H302 C308 0.949 . S
C303 H298 0.950 . S
C303 C305 1.327 . S
C303 C309 1.429 . S
C304 C296 1.574 1_554 S
C304 H299 0.949 . S
C304 C310 1.368 . S
C305 C289 1.349 . S
C305 H297 0.950 . S
C305 C303 1.327 . S
C306 C294 1.349 . S
C306 H300 0.950 . S
C306 C307 1.327 . S
C307 H301 0.950 . S
C307 C306 1.327 . S
C307 C311 1.429 . S
C308 C291 1.574 1_556 S
C308 H302 0.949 . S
C308 C312 1.368 . S
C309 C290 1.429 . S
C309 C303 1.429 . S
C309 C310 1.523 . S
C310 C291 1.368 . S
C310 C304 1.368 . S
C310 C309 1.523 . S
C311 C295 1.429 . S
C311 C307 1.429 . S
C311 C312 1.523 . S
C312 C296 1.368 . S
C312 C308 1.368 . S
C312 C311 1.523 . S
H313 C288 0.950 . S
H314 C290 0.950 . S
H315 C291 0.949 . S
H316 C293 0.950 . S
H317 C295 0.950 . S
C318 C319 1.349 . S
C318 C320 1.327 . S
C318 H343 0.950 . S
C319 C318 1.349 . S
C319 C335 1.349 . S
C320 C318 1.327 . S
C320 C339 1.429 . S
C320 H344 0.950 . S
C321 C338 1.574 . S
C321 C340 1.368 . S
C321 H345 0.949 . S
H322 C326 0.949 . S
C323 C324 1.349 . S
C323 C325 1.327 . S
C323 H346 0.950 . S
C324 C323 1.349 . S
C324 C336 1.349 . S
C325 C323 1.327 . S
C325 C341 1.429 . S
C325 H347 0.950 . S
C326 H322 0.949 . S
C326 C334 1.574 . S
C326 C342 1.368 . S
H327 C335 0.950 . S
H328 C333 0.950 . S
H329 C334 0.949 . S
H330 C336 0.950 . S
H331 C337 0.950 . S
H332 C338 0.949 . S
C333 H328 0.950 . S
C333 C335 1.327 . S
C333 C339 1.429 . S
C334 C326 1.574 . S
C334 H329 0.949 . S
C334 C340 1.368 . S
C335 C319 1.349 . S
C335 H327 0.950 . S
C335 C333 1.327 . S
C336 C324 1.349 . S
C336 H330 0.950 . S
C336 C337 1.327 . S
C337 H331 0.950 . S
C337 C336 1.327 . S
C337 C341 1.429 . S
C338 C321 1.574 . S
C338 H332 0.949 . S
C338 C342 1.368 . S
C339 C320 1.429 . S
C339 C333 1.429 . S
C339 C340 1.523 . S
C340 C321 1.368 . S
C340 C334 1.368 . S
C340 C339 1.523 . S
C341 C325 1.429 . S
C341 C337 1.429 . S
C341 C342 1.523 . S
C342 C326 1.368 . S
C342 C338 1.368 . S
C342 C341 1.523 . S
H343 C318 0.950 . S
H344 C320 0.950 . S
H345 C321 0.949 . S
H346 C323 0.950 . S
H347 C325 0.950 . S
C348 C349 1.349 . S
C348 C350 1.327 . S
C348 H373 0.950 . S
C349 C348 1.349 . S
C349 C365 1.349 . S
C350 C348 1.327 . S
C350 C369 1.429 . S
C350 H374 0.950 . S
C351 C368 1.574 1_554 S
C351 C370 1.368 . S
C351 H375 0.949 . S
H352 C356 0.949 . S
C353 C354 1.349 . S
C353 C355 1.327 . S
C353 H376 0.950 . S
C354 C353 1.349 . S
C354 C366 1.349 . S
C355 C353 1.327 . S
C355 C371 1.429 . S
C355 H377 0.950 . S
C356 H352 0.949 . S
C356 C364 1.574 1_556 S
C356 C372 1.368 . S
H357 C365 0.950 . S
H358 C363 0.950 . S
H359 C364 0.949 . S
H360 C366 0.950 . S
H361 C367 0.950 . S
H362 C368 0.949 . S
C363 H358 0.950 . S
C363 C365 1.327 . S
C363 C369 1.429 . S
C364 C356 1.574 1_554 S
C364 H359 0.949 . S
C364 C370 1.368 . S
C365 C349 1.349 . S
C365 H357 0.950 . S
C365 C363 1.327 . S
C366 C354 1.349 . S
C366 H360 0.950 . S
C366 C367 1.327 . S
C367 H361 0.950 . S
C367 C366 1.327 . S
C367 C371 1.429 . S
C368 C351 1.574 1_556 S
C368 H362 0.949 . S
C368 C372 1.368 . S
C369 C350 1.429 . S
C369 C363 1.429 . S
C369 C370 1.523 . S
C370 C351 1.368 . S
C370 C364 1.368 . S
C370 C369 1.523 . S
C371 C355 1.429 . S
C371 C367 1.429 . S
C371 C372 1.523 . S
C372 C356 1.368 . S
C372 C368 1.368 . S
C372 C371 1.523 . S
H373 C348 0.950 . S
H374 C350 0.950 . S
H375 C351 0.949 . S
H376 C353 0.950 . S
H377 C355 0.950 . S
C378 C379 1.349 . S
C378 C380 1.327 . S
C378 H403 0.950 . S
C379 C378 1.349 . S
C379 C395 1.349 . S
C380 C378 1.327 . S
C380 C399 1.429 . S
C380 H404 0.950 . S
C381 C398 1.574 . S
C381 C400 1.368 . S
C381 H405 0.949 . S
H382 C386 0.949 . S
C383 C384 1.349 . S
C383 C385 1.327 . S
C383 H406 0.950 . S
C384 C383 1.349 . S
C384 C396 1.349 . S
C385 C383 1.327 . S
C385 C401 1.429 . S
C385 H407 0.950 . S
C386 H382 0.949 . S
C386 C394 1.574 . S
C386 C402 1.368 . S
H387 C395 0.950 . S
H388 C393 0.950 . S
H389 C394 0.949 . S
H390 C396 0.950 . S
H391 C397 0.950 . S
H392 C398 0.949 . S
C393 H388 0.950 . S
C393 C395 1.327 . S
C393 C399 1.429 . S
C394 C386 1.574 . S
C394 H389 0.949 . S
C394 C400 1.368 . S
C395 C379 1.349 . S
C395 H387 0.950 . S
C395 C393 1.327 . S
C396 C384 1.349 . S
C396 H390 0.950 . S
C396 C397 1.327 . S
C397 H391 0.950 . S
C397 C396 1.327 . S
C397 C401 1.429 . S
C398 C381 1.574 . S
C398 H392 0.949 . S
C398 C402 1.368 . S
C399 C380 1.429 . S
C399 C393 1.429 . S
C399 C400 1.523 . S
C400 C381 1.368 . S
C400 C394 1.368 . S
C400 C399 1.523 . S
C401 C385 1.429 . S
C401 C397 1.429 . S
C401 C402 1.523 . S
C402 C386 1.368 . S
C402 C398 1.368 . S
C402 C401 1.523 . S
H403 C378 0.950 . S
H404 C380 0.950 . S
H405 C381 0.949 . S
H406 C383 0.950 . S
H407 C385 0.950 . S
C408 C409 1.349 . S
C408 C410 1.327 . S
C408 H433 0.950 . S
C409 C408 1.349 . S
C409 C425 1.349 . S
C410 C408 1.327 . S
C410 C429 1.429 . S
C410 H434 0.950 . S
C411 C428 1.574 . S
C411 C430 1.368 . S
C411 H435 0.949 . S
H412 C416 0.949 . S
C413 C414 1.349 . S
C413 C415 1.327 . S
C413 H436 0.950 . S
C414 C413 1.349 . S
C414 C426 1.349 . S
C415 C413 1.327 . S
C415 C431 1.429 . S
C415 H437 0.950 . S
C416 H412 0.949 . S
C416 C424 1.574 . S
C416 C432 1.368 . S
H417 C425 0.950 . S
H418 C423 0.950 . S
H419 C424 0.949 . S
H420 C426 0.950 . S
H421 C427 0.950 . S
H422 C428 0.949 . S
C423 H418 0.950 . S
C423 C425 1.327 . S
C423 C429 1.429 . S
C424 C416 1.574 . S
C424 H419 0.949 . S
C424 C430 1.368 . S
C425 C409 1.349 . S
C425 H417 0.950 . S
C425 C423 1.327 . S
C426 C414 1.349 . S
C426 H420 0.950 . S
C426 C427 1.327 . S
C427 H421 0.950 . S
C427 C426 1.327 . S
C427 C431 1.429 . S
C428 C411 1.574 . S
C428 H422 0.949 . S
C428 C432 1.368 . S
C429 C410 1.429 . S
C429 C423 1.429 . S
C429 C430 1.523 . S
C430 C411 1.368 . S
C430 C424 1.368 . S
C430 C429 1.523 . S
C431 C415 1.429 . S
C431 C427 1.429 . S
C431 C432 1.523 . S
C432 C416 1.368 . S
C432 C428 1.368 . S
C432 C431 1.523 . S
H433 C408 0.950 . S
H434 C410 0.950 . S
H435 C411 0.949 . S
H436 C413 0.950 . S
H437 C415 0.950 . S
C438 C439 1.349 . S
C438 C440 1.327 . S
C438 H463 0.950 . S
C439 C438 1.349 . S
C439 C455 1.349 . S
C440 C438 1.327 . S
C440 C459 1.429 . S
C440 H464 0.950 . S
C441 C458 1.574 . S
C441 C460 1.368 . S
C441 H465 0.949 . S
H442 C446 0.949 . S
C443 C444 1.349 . S
C443 C445 1.327 1_545 S
C443 H466 0.950 . S
C444 C443 1.349 . S
C444 C456 1.349 1_545 S
C445 C443 1.327 1_565 S
C445 C461 1.429 . S
C445 H467 0.950 . S
C446 H442 0.949 . S
C446 C454 1.574 . S
C446 C462 1.368 . S
H447 C455 0.950 . S
H448 C453 0.950 . S
H449 C454 0.949 . S
H450 C456 0.950 . S
H451 C457 0.950 . S
H452 C458 0.949 . S
C453 H448 0.950 . S
C453 C455 1.327 . S
C453 C459 1.429 . S
C454 C446 1.574 . S
C454 H449 0.949 . S
C454 C460 1.368 . S
C455 C439 1.349 . S
C455 H447 0.950 . S
C455 C453 1.327 . S
C456 C444 1.349 1_565 S
C456 H450 0.950 . S
C456 C457 1.327 . S
C457 H451 0.950 . S
C457 C456 1.327 . S
C457 C461 1.429 . S
C458 C441 1.574 . S
C458 H452 0.949 . S
C458 C462 1.368 . S
C459 C440 1.429 . S
C459 C453 1.429 . S
C459 C460 1.523 . S
C460 C441 1.368 . S
C460 C454 1.368 . S
C460 C459 1.523 . S
C461 C445 1.429 . S
C461 C457 1.429 . S
C461 C462 1.523 . S
C462 C446 1.368 . S
C462 C458 1.368 . S
C462 C461 1.523 . S
H463 C438 0.950 . S
H464 C440 0.950 . S
H465 C441 0.949 . S
H466 C443 0.950 . S
H467 C445 0.950 . S
C468 C469 1.349 . S
C468 C470 1.327 . S
C468 H493 0.950 . S
C469 C468 1.349 . S
C469 C485 1.349 . S
C470 C468 1.327 . S
C470 C489 1.429 . S
C470 H494 0.950 . S
C471 C488 1.574 . S
C471 C490 1.368 . S
C471 H495 0.949 . S
H472 C476 0.949 . S
C473 C474 1.349 . S
C473 C475 1.327 . S
C473 H496 0.950 . S
C474 C473 1.349 . S
C474 C486 1.349 . S
C475 C473 1.327 . S
C475 C491 1.429 . S
C475 H497 0.950 . S
C476 H472 0.949 . S
C476 C484 1.574 . S
C476 C492 1.368 . S
H477 C485 0.950 . S
H478 C483 0.950 . S
H479 C484 0.949 . S
H480 C486 0.950 . S
H481 C487 0.950 . S
H482 C488 0.949 . S
C483 H478 0.950 . S
C483 C485 1.327 . S
C483 C489 1.429 . S
C484 C476 1.574 . S
C484 H479 0.949 . S
C484 C490 1.368 . S
C485 C469 1.349 . S
C485 H477 0.950 . S
C485 C483 1.327 . S
C486 C474 1.349 . S
C486 H480 0.950 . S
C486 C487 1.327 . S
C487 H481 0.950 . S
C487 C486 1.327 . S
C487 C491 1.429 . S
C488 C471 1.574 . S
C488 H482 0.949 . S
C488 C492 1.368 . S
C489 C470 1.429 . S
C489 C483 1.429 . S
C489 C490 1.523 . S
C490 C471 1.368 . S
C490 C484 1.368 . S
C490 C489 1.523 . S
C491 C475 1.429 . S
C491 C487 1.429 . S
C491 C492 1.523 . S
C492 C476 1.368 . S
C492 C488 1.368 . S
C492 C491 1.523 . S
H493 C468 0.950 . S
H494 C470 0.950 . S
H495 C471 0.949 . S
H496 C473 0.950 . S
H497 C475 0.950 . S
C498 C499 1.349 . S
C498 C500 1.327 . S
C498 H523 0.950 . S
C499 C498 1.349 . S
C499 C515 1.349 . S
C500 C498 1.327 . S
C500 C519 1.429 . S
C500 H524 0.950 . S
C501 C518 1.574 . S
C501 C520 1.368 . S
C501 H525 0.949 . S
H502 C506 0.949 . S
C503 C504 1.349 1_545 S
C503 C505 1.327 . S
C503 H526 0.950 . S
C504 C503 1.349 1_565 S
C504 C516 1.349 . S
C505 C503 1.327 . S
C505 C521 1.429 . S
C505 H527 0.950 . S
C506 H502 0.949 . S
C506 C514 1.574 . S
C506 C522 1.368 . S
H507 C515 0.950 . S
H508 C513 0.950 . S
H509 C514 0.949 . S
H510 C516 0.950 . S
H511 C517 0.950 . S
H512 C518 0.949 . S
C513 H508 0.950 . S
C513 C515 1.327 . S
C513 C519 1.429 . S
C514 C506 1.574 . S
C514 H509 0.949 . S
C514 C520 1.368 . S
C515 C499 1.349 . S
C515 H507 0.950 . S
C515 C513 1.327 . S
C516 C504 1.349 . S
C516 H510 0.950 . S
C516 C517 1.327 1_565 S
C517 H511 0.950 . S
C517 C516 1.327 1_545 S
C517 C521 1.429 . S
C518 C501 1.574 . S
C518 H512 0.949 . S
C518 C522 1.368 . S
C519 C500 1.429 . S
C519 C513 1.429 . S
C519 C520 1.523 . S
C520 C501 1.368 . S
C520 C514 1.368 . S
C520 C519 1.523 . S
C521 C505 1.429 . S
C521 C517 1.429 . S
C521 C522 1.523 . S
C522 C506 1.368 . S
C522 C518 1.368 . S
C522 C521 1.523 . S
H523 C498 0.950 . S
H524 C500 0.950 . S
H525 C501 0.949 . S
H526 C503 0.950 . S
H527 C505 0.950 . S
C528 C529 1.349 . S
C528 C530 1.327 . S
C528 H553 0.950 . S
C529 C528 1.349 . S
C529 C545 1.349 . S
C530 C528 1.327 . S
C530 C549 1.429 . S
C530 H554 0.950 . S
C531 C548 1.574 . S
C531 C550 1.368 . S
C531 H555 0.949 . S
H532 C536 0.949 . S
C533 C534 1.349 1_655 S
C533 C535 1.327 . S
C533 H556 0.950 . S
C534 C533 1.349 1_455 S
C534 C546 1.349 1_455 S
C535 C533 1.327 . S
C535 C551 1.429 . S
C535 H557 0.950 . S
C536 H532 0.949 . S
C536 C544 1.574 . S
C536 C552 1.368 . S
H537 C545 0.950 . S
H538 C543 0.950 . S
H539 C544 0.949 . S
H540 C546 0.950 1_455 S
H541 C547 0.950 . S
H542 C548 0.949 . S
C543 H538 0.950 . S
C543 C545 1.327 . S
C543 C549 1.429 . S
C544 C536 1.574 . S
C544 H539 0.949 . S
C544 C550 1.368 . S
C545 C529 1.349 . S
C545 H537 0.950 . S
C545 C543 1.327 . S
C546 C534 1.349 1_655 S
C546 H540 0.950 1_655 S
C546 C547 1.327 . S
C547 H541 0.950 . S
C547 C546 1.327 . S
C547 C551 1.429 . S
C548 C531 1.574 . S
C548 H542 0.949 . S
C548 C552 1.368 . S
C549 C530 1.429 . S
C549 C543 1.429 . S
C549 C550 1.523 . S
C550 C531 1.368 . S
C550 C544 1.368 . S
C550 C549 1.523 . S
C551 C535 1.429 . S
C551 C547 1.429 . S
C551 C552 1.523 . S
C552 C536 1.368 . S
C552 C548 1.368 . S
C552 C551 1.523 . S
H553 C528 0.950 . S
H554 C530 0.950 . S
H555 C531 0.949 . S
H556 C533 0.950 . S
H557 C535 0.950 . S
C558 C559 1.349 . S
C558 C560 1.327 . S
C558 H583 0.950 . S
C559 C558 1.349 . S
C559 C575 1.349 . S
C560 C558 1.327 . S
C560 C579 1.429 . S
C560 H584 0.950 . S
C561 C578 1.574 . S
C561 C580 1.368 . S
C561 H585 0.949 . S
H562 C566 0.949 . S
C563 C564 1.349 . S
C563 C565 1.327 . S
C563 H586 0.950 . S
C564 C563 1.349 . S
C564 C576 1.349 . S
C565 C563 1.327 . S
C565 C581 1.429 . S
C565 H587 0.950 . S
C566 H562 0.949 . S
C566 C574 1.574 . S
C566 C582 1.368 . S
H567 C575 0.950 . S
H568 C573 0.950 . S
H569 C574 0.949 . S
H570 C576 0.950 . S
H571 C577 0.950 . S
H572 C578 0.949 . S
C573 H568 0.950 . S
C573 C575 1.327 . S
C573 C579 1.429 . S
C574 C566 1.574 . S
C574 H569 0.949 . S
C574 C580 1.368 . S
C575 C559 1.349 . S
C575 H567 0.950 . S
C575 C573 1.327 . S
C576 C564 1.349 . S
C576 H570 0.950 . S
C576 C577 1.327 . S
C577 H571 0.950 . S
C577 C576 1.327 . S
C577 C581 1.429 . S
C578 C561 1.574 . S
C578 H572 0.949 . S
C578 C582 1.368 . S
C579 C560 1.429 . S
C579 C573 1.429 . S
C579 C580 1.523 . S
C580 C561 1.368 . S
C580 C574 1.368 . S
C580 C579 1.523 . S
C581 C565 1.429 . S
C581 C577 1.429 . S
C581 C582 1.523 . S
C582 C566 1.368 . S
C582 C578 1.368 . S
C582 C581 1.523 . S
H583 C558 0.950 . S
H584 C560 0.950 . S
H585 C561 0.949 . S
H586 C563 0.950 . S
H587 C565 0.950 . S
C588 C589 1.349 . S
C588 C590 1.327 . S
C588 H613 0.950 . S
C589 C588 1.349 . S
C589 C605 1.349 . S
C590 C588 1.327 . S
C590 C609 1.429 . S
C590 H614 0.950 . S
C591 C608 1.574 . S
C591 C610 1.368 . S
C591 H615 0.949 . S
H592 C596 0.949 . S
C593 C594 1.349 1_455 S
C593 C595 1.327 . S
C593 H616 0.950 . S
C594 C593 1.349 1_655 S
C594 C606 1.346 1_655 S
C595 C593 1.327 . S
C595 C611 1.429 . S
C595 H617 0.950 . S
C596 H592 0.949 . S
C596 C604 1.574 . S
C596 C612 1.368 . S
H597 C605 0.950 . S
H598 C603 0.950 . S
H599 C604 0.949 . S
H600 C606 0.933 1_655 S
H601 C607 0.950 . S
H602 C608 0.949 . S
C603 H598 0.950 . S
C603 C605 1.327 . S
C603 C609 1.429 . S
C604 C596 1.574 . S
C604 H599 0.949 . S
C604 C610 1.368 . S
C605 C589 1.349 . S
C605 H597 0.950 . S
C605 C603 1.327 . S
C606 C594 1.346 1_455 S
C606 H600 0.933 1_455 S
C606 C607 1.347 . S
C607 H601 0.950 . S
C607 C606 1.347 . S
C607 C611 1.429 . S
C608 C591 1.574 . S
C608 H602 0.949 . S
C608 C612 1.368 . S
C609 C590 1.429 . S
C609 C603 1.429 . S
C609 C610 1.523 . S
C610 C591 1.368 . S
C610 C604 1.368 . S
C610 C609 1.523 . S
C611 C595 1.429 . S
C611 C607 1.429 . S
C611 C612 1.523 . S
C612 C596 1.368 . S
C612 C608 1.368 . S
C612 C611 1.523 . S
H613 C588 0.950 . S
H614 C590 0.950 . S
H615 C591 0.949 . S
H616 C593 0.950 . S
H617 C595 0.950 . S
C618 C619 1.349 . S
C618 C620 1.327 . S
C618 H643 0.950 . S
C619 C618 1.349 . S
C619 C635 1.349 . S
C620 C618 1.327 . S
C620 C639 1.429 . S
C620 H644 0.950 . S
C621 C638 1.574 . S
C621 C640 1.368 . S
C621 H645 0.949 . S
H622 C626 0.949 . S
C623 C624 1.349 . S
C623 C625 1.327 . S
C623 H646 0.950 . S
C624 C623 1.349 . S
C624 C636 1.349 . S
C625 C623 1.327 . S
C625 C641 1.429 . S
C625 H647 0.950 . S
C626 H622 0.949 . S
C626 C634 1.574 . S
C626 C642 1.368 . S
H627 C635 0.950 . S
H628 C633 0.950 . S
H629 C634 0.949 . S
H630 C636 0.950 . S
H631 C637 0.950 . S
H632 C638 0.949 . S
C633 H628 0.950 . S
C633 C635 1.327 . S
C633 C639 1.429 . S
C634 C626 1.574 . S
C634 H629 0.949 . S
C634 C640 1.368 . S
C635 C619 1.349 . S
C635 H627 0.950 . S
C635 C633 1.327 . S
C636 C624 1.349 . S
C636 H630 0.950 . S
C636 C637 1.327 . S
C637 H631 0.950 . S
C637 C636 1.327 . S
C637 C641 1.429 . S
C638 C621 1.574 . S
C638 H632 0.949 . S
C638 C642 1.368 . S
C639 C620 1.429 . S
C639 C633 1.429 . S
C639 C640 1.523 . S
C640 C621 1.368 . S
C640 C634 1.368 . S
C640 C639 1.523 . S
C641 C625 1.429 . S
C641 C637 1.429 . S
C641 C642 1.523 . S
C642 C626 1.368 . S
C642 C638 1.368 . S
C642 C641 1.523 . S
H643 C618 0.950 . S
H644 C620 0.950 . S
H645 C621 0.949 . S
H646 C623 0.950 . S
H647 C625 0.950 . S
C648 C649 1.349 . S
C648 C650 1.327 . S
C648 H673 0.950 . S
C649 C648 1.349 . S
C649 C665 1.349 . S
C650 C648 1.327 . S
C650 C669 1.429 . S
C650 H674 0.950 . S
C651 C668 1.574 . S
C651 C670 1.368 1_455 S
C651 H675 0.949 . S
H652 C656 0.949 . S
C653 C654 1.349 . S
C653 C655 1.327 . S
C653 H676 0.950 . S
C654 C653 1.349 . S
C654 C666 1.349 . S
C655 C653 1.327 . S
C655 C671 1.429 . S
C655 H677 0.950 . S
C656 H652 0.949 . S
C656 C664 1.574 . S
C656 C672 1.368 1_655 S
H657 C665 0.950 . S
H658 C663 0.950 . S
H659 C664 0.949 . S
H660 C666 0.950 . S
H661 C667 0.950 . S
H662 C668 0.949 . S
C663 H658 0.950 . S
C663 C665 1.327 . S
C663 C669 1.429 . S
C664 C656 1.574 . S
C664 H659 0.949 . S
C664 C670 1.368 . S
C665 C649 1.349 . S
C665 H657 0.950 . S
C665 C663 1.327 . S
C666 C654 1.349 . S
C666 H660 0.950 . S
C666 C667 1.327 . S
C667 H661 0.950 . S
C667 C666 1.327 . S
C667 C671 1.429 . S
C668 C651 1.574 . S
C668 H662 0.949 . S
C668 C672 1.368 . S
C669 C650 1.429 . S
C669 C663 1.429 . S
C669 C670 1.523 . S
C670 C651 1.368 1_655 S
C670 C664 1.368 . S
C670 C669 1.523 . S
C671 C655 1.429 . S
C671 C667 1.429 . S
C671 C672 1.523 . S
C672 C656 1.368 1_455 S
C672 C668 1.368 . S
C672 C671 1.523 . S
H673 C648 0.950 . S
H674 C650 0.950 . S
H675 C651 0.949 . S
H676 C653 0.950 . S
H677 C655 0.950 . S
C678 C679 1.349 . S
C678 C680 1.327 . S
C678 H703 0.950 . S
C679 C678 1.349 . S
C679 C695 1.349 . S
C680 C678 1.327 . S
C680 C699 1.429 . S
C680 H704 0.950 . S
C681 C698 1.574 1_655 S
C681 C700 1.368 . S
C681 H705 0.949 . S
H682 C686 0.949 . S
C683 C684 1.349 . S
C683 C685 1.327 . S
C683 H706 0.950 . S
C684 C683 1.349 . S
C684 C696 1.349 . S
C685 C683 1.327 . S
C685 C701 1.429 . S
C685 H707 0.950 . S
C686 H682 0.949 . S
C686 C694 1.574 1_455 S
C686 C702 1.368 . S
H687 C695 0.950 . S
H688 C693 0.950 . S
H689 C694 0.949 . S
H690 C696 0.950 . S
H691 C697 0.950 . S
H692 C698 0.949 . S
C693 H688 0.950 . S
C693 C695 1.327 . S
C693 C699 1.429 . S
C694 C686 1.574 1_655 S
C694 H689 0.949 . S
C694 C700 1.368 . S
C695 C679 1.349 . S
C695 H687 0.950 . S
C695 C693 1.327 . S
C696 C684 1.349 . S
C696 H690 0.950 . S
C696 C697 1.327 . S
C697 H691 0.950 . S
C697 C696 1.327 . S
C697 C701 1.429 . S
C698 C681 1.574 1_455 S
C698 H692 0.949 . S
C698 C702 1.368 . S
C699 C680 1.429 . S
C699 C693 1.429 . S
C699 C700 1.523 . S
C700 C681 1.368 . S
C700 C694 1.368 . S
C700 C699 1.523 . S
C701 C685 1.429 . S
C701 C697 1.429 . S
C701 C702 1.523 . S
C702 C686 1.368 . S
C702 C698 1.368 . S
C702 C701 1.523 . S
H703 C678 0.950 . S
H704 C680 0.950 . S
H705 C681 0.949 . S
H706 C683 0.950 . S
H707 C685 0.950 . S
C708 C709 1.349 . S
C708 C710 1.327 . S
C708 H733 0.950 . S
C709 C708 1.349 . S
C709 C725 1.349 . S
C710 C708 1.327 . S
C710 C729 1.429 . S
C710 H734 0.950 . S
C711 C728 1.574 1_545 S
C711 C730 1.368 . S
C711 H735 0.949 . S
H712 C716 0.949 . S
C713 C714 1.349 . S
C713 C715 1.327 . S
C713 H736 0.950 . S
C714 C713 1.349 . S
C714 C726 1.349 . S
C715 C713 1.327 . S
C715 C731 1.429 . S
C715 H737 0.950 . S
C716 H712 0.949 . S
C716 C724 1.574 1_565 S
C716 C732 1.368 . S
H717 C725 0.950 . S
H718 C723 0.950 . S
H719 C724 0.949 . S
H720 C726 0.950 . S
H721 C727 0.950 . S
H722 C728 0.949 . S
C723 H718 0.950 . S
C723 C725 1.327 . S
C723 C729 1.429 . S
C724 C716 1.574 1_545 S
C724 H719 0.949 . S
C724 C730 1.368 . S
C725 C709 1.349 . S
C725 H717 0.950 . S
C725 C723 1.327 . S
C726 C714 1.349 . S
C726 H720 0.950 . S
C726 C727 1.327 . S
C727 H721 0.950 . S
C727 C726 1.327 . S
C727 C731 1.429 . S
C728 C711 1.574 1_565 S
C728 H722 0.949 . S
C728 C732 1.368 . S
C729 C710 1.429 . S
C729 C723 1.429 . S
C729 C730 1.523 . S
C730 C711 1.368 . S
C730 C724 1.368 . S
C730 C729 1.523 . S
C731 C715 1.429 . S
C731 C727 1.429 . S
C731 C732 1.523 . S
C732 C716 1.368 . S
C732 C728 1.368 . S
C732 C731 1.523 . S
H733 C708 0.950 . S
H734 C710 0.950 . S
H735 C711 0.949 . S
H736 C713 0.950 . S
H737 C715 0.950 . S
C738 C739 1.349 . S
C738 C740 1.327 . S
C738 H763 0.950 . S
C739 C738 1.349 . S
C739 C755 1.349 . S
C740 C738 1.327 . S
C740 C759 1.429 . S
C740 H764 0.950 . S
C741 C758 1.574 . S
C741 C760 1.368 1_565 S
C741 H765 0.949 . S
H742 C746 0.949 . S
C743 C744 1.349 . S
C743 C745 1.327 . S
C743 H766 0.950 . S
C744 C743 1.349 . S
C744 C756 1.349 . S
C745 C743 1.327 . S
C745 C761 1.429 . S
C745 H767 0.950 . S
C746 H742 0.949 . S
C746 C754 1.574 . S
C746 C762 1.368 1_545 S
H747 C755 0.950 . S
H748 C753 0.950 . S
H749 C754 0.949 . S
H750 C756 0.950 . S
H751 C757 0.950 . S
H752 C758 0.949 . S
C753 H748 0.950 . S
C753 C755 1.327 . S
C753 C759 1.429 . S
C754 C746 1.574 . S
C754 H749 0.949 . S
C754 C760 1.368 . S
C755 C739 1.349 . S
C755 H747 0.950 . S
C755 C753 1.327 . S
C756 C744 1.349 . S
C756 H750 0.950 . S
C756 C757 1.327 . S
C757 H751 0.950 . S
C757 C756 1.327 . S
C757 C761 1.429 . S
C758 C741 1.574 . S
C758 H752 0.949 . S
C758 C762 1.368 . S
C759 C740 1.429 . S
C759 C753 1.429 . S
C759 C760 1.523 . S
C760 C741 1.368 1_545 S
C760 C754 1.368 . S
C760 C759 1.523 . S
C761 C745 1.429 . S
C761 C757 1.429 . S
C761 C762 1.523 . S
C762 C746 1.368 1_565 S
C762 C758 1.368 . S
C762 C761 1.523 . S
H763 C738 0.950 . S
H764 C740 0.950 . S
H765 C741 0.949 . S
H766 C743 0.950 . S
H767 C745 0.950 . S
C289 C4 1.316 . S
C294 C184 1.316 . S
C319 C40 1.316 . S
C324 C220 1.316 . S
C349 C76 1.316 . S
C354 C256 1.316 . S
C379 C148 1.316 . S
C384 C112 1.316 . S
C409 C14 1.596 . S
C414 C147 1.658 . S
C439 C50 1.596 . S
C444 C183 1.658 . S
C469 C219 1.658 . S
C474 C86 1.596 . S
C499 C122 1.596 . S
C504 C255 1.658 . S
C529 C158 1.596 . S
C534 C3 1.658 . S
C559 C39 1.658 . S
C564 C194 1.596 . S
C589 C230 1.596 . S
C594 C75 1.658 . S
C619 C111 1.658 . S
C624 C266 1.596 . S
C649 C74 0.295 . S
C654 C2 0.295 . S
C679 C110 0.295 . S
C684 C38 0.295 . S
C709 C146 0.295 . S
C714 C218 0.295 . S
C739 C182 0.295 . S
C744 C254 0.295 . S
