# Generated by pormake.
# Topology whq, (6)-cn, num edge types: 1
# Building blocks:
#     Node 0, Type 0, BuildingBlock: IZENUY_clean_sbu_0, # of connection points: 6
#     Node 1, Type 0, BuildingBlock: IZENUY_clean_sbu_0, # of connection points: 6
#     Node 2, Type 0, BuildingBlock: IZENUY_clean_sbu_0, # of connection points: 6
#     Node 3, Type 0, BuildingBlock: IZENUY_clean_sbu_0, # of connection points: 6
#     Node 4, Type 0, BuildingBlock: IZENUY_clean_sbu_0, # of connection points: 6
#     Node 5, Type 0, BuildingBlock: IZENUY_clean_sbu_0, # of connection points: 6
#     Node 6, Type 0, BuildingBlock: IZENUY_clean_sbu_0, # of connection points: 6
#     Node 7, Type 0, BuildingBlock: IZENUY_clean_sbu_0, # of connection points: 6
#     Node 8, Type 0, BuildingBlock: IZENUY_clean_sbu_0, # of connection points: 6
#     Node 9, Type 0, BuildingBlock: IZENUY_clean_sbu_0, # of connection points: 6
#     Node 10, Type 0, BuildingBlock: IZENUY_clean_sbu_0, # of connection points: 6
#     Node 11, Type 0, BuildingBlock: IZENUY_clean_sbu_0, # of connection points: 6
#     Node 12, Type 0, BuildingBlock: IZENUY_clean_sbu_0, # of connection points: 6
#     Node 13, Type 0, BuildingBlock: IZENUY_clean_sbu_0, # of connection points: 6
#     Node 14, Type 0, BuildingBlock: IZENUY_clean_sbu_0, # of connection points: 6
#     Node 15, Type 0, BuildingBlock: IZENUY_clean_sbu_0, # of connection points: 6
#     Node 16, Type 0, BuildingBlock: IZENUY_clean_sbu_0, # of connection points: 6
#     Node 17, Type 0, BuildingBlock: IZENUY_clean_sbu_0, # of connection points: 6
#     Node 18, Type 0, BuildingBlock: IZENUY_clean_sbu_0, # of connection points: 6
#     Node 19, Type 0, BuildingBlock: IZENUY_clean_sbu_0, # of connection points: 6
#     Node 20, Type 0, BuildingBlock: IZENUY_clean_sbu_0, # of connection points: 6
#     Node 21, Type 0, BuildingBlock: IZENUY_clean_sbu_0, # of connection points: 6
#     Node 22, Type 0, BuildingBlock: IZENUY_clean_sbu_0, # of connection points: 6
#     Node 23, Type 0, BuildingBlock: IZENUY_clean_sbu_0, # of connection points: 6
#     Node 24, Type 0, BuildingBlock: IZENUY_clean_sbu_0, # of connection points: 6
#     Node 25, Type 0, BuildingBlock: IZENUY_clean_sbu_0, # of connection points: 6
#     Node 26, Type 0, BuildingBlock: IZENUY_clean_sbu_0, # of connection points: 6
#     Node 27, Type 0, BuildingBlock: IZENUY_clean_sbu_0, # of connection points: 6
#     Node 28, Type 0, BuildingBlock: IZENUY_clean_sbu_0, # of connection points: 6
#     Node 29, Type 0, BuildingBlock: IZENUY_clean_sbu_0, # of connection points: 6
#     Node 30, Type 0, BuildingBlock: IZENUY_clean_sbu_0, # of connection points: 6
#     Node 31, Type 0, BuildingBlock: IZENUY_clean_sbu_0, # of connection points: 6
#     Edge 32, Type (0, 0), BuildingBlock: AJUNOK_clean_linker_0, # of connection points: 2
#     Edge 33, Type (0, 0), BuildingBlock: AJUNOK_clean_linker_0, # of connection points: 2
#     Edge 34, Type (0, 0), BuildingBlock: AJUNOK_clean_linker_0, # of connection points: 2
#     Edge 35, Type (0, 0), BuildingBlock: AJUNOK_clean_linker_0, # of connection points: 2
#     Edge 36, Type (0, 0), BuildingBlock: AJUNOK_clean_linker_0, # of connection points: 2
#     Edge 37, Type (0, 0), BuildingBlock: AJUNOK_clean_linker_0, # of connection points: 2
#     Edge 38, Type (0, 0), BuildingBlock: AJUNOK_clean_linker_0, # of connection points: 2
#     Edge 39, Type (0, 0), BuildingBlock: AJUNOK_clean_linker_0, # of connection points: 2
#     Edge 40, Type (0, 0), BuildingBlock: AJUNOK_clean_linker_0, # of connection points: 2
#     Edge 41, Type (0, 0), BuildingBlock: AJUNOK_clean_linker_0, # of connection points: 2
#     Edge 42, Type (0, 0), BuildingBlock: AJUNOK_clean_linker_0, # of connection points: 2
#     Edge 43, Type (0, 0), BuildingBlock: AJUNOK_clean_linker_0, # of connection points: 2
#     Edge 44, Type (0, 0), BuildingBlock: AJUNOK_clean_linker_0, # of connection points: 2
#     Edge 45, Type (0, 0), BuildingBlock: AJUNOK_clean_linker_0, # of connection points: 2
#     Edge 46, Type (0, 0), BuildingBlock: AJUNOK_clean_linker_0, # of connection points: 2
#     Edge 47, Type (0, 0), BuildingBlock: AJUNOK_clean_linker_0, # of connection points: 2
#     Edge 48, Type (0, 0), BuildingBlock: AJUNOK_clean_linker_0, # of connection points: 2
#     Edge 49, Type (0, 0), BuildingBlock: AJUNOK_clean_linker_0, # of connection points: 2
#     Edge 50, Type (0, 0), BuildingBlock: AJUNOK_clean_linker_0, # of connection points: 2
#     Edge 51, Type (0, 0), BuildingBlock: AJUNOK_clean_linker_0, # of connection points: 2
#     Edge 52, Type (0, 0), BuildingBlock: AJUNOK_clean_linker_0, # of connection points: 2
#     Edge 53, Type (0, 0), BuildingBlock: AJUNOK_clean_linker_0, # of connection points: 2
#     Edge 54, Type (0, 0), BuildingBlock: AJUNOK_clean_linker_0, # of connection points: 2
#     Edge 55, Type (0, 0), BuildingBlock: AJUNOK_clean_linker_0, # of connection points: 2
#     Edge 56, Type (0, 0), BuildingBlock: AJUNOK_clean_linker_0, # of connection points: 2
#     Edge 57, Type (0, 0), BuildingBlock: AJUNOK_clean_linker_0, # of connection points: 2
#     Edge 58, Type (0, 0), BuildingBlock: AJUNOK_clean_linker_0, # of connection points: 2
#     Edge 59, Type (0, 0), BuildingBlock: AJUNOK_clean_linker_0, # of connection points: 2
#     Edge 60, Type (0, 0), BuildingBlock: AJUNOK_clean_linker_0, # of connection points: 2
#     Edge 61, Type (0, 0), BuildingBlock: AJUNOK_clean_linker_0, # of connection points: 2
#     Edge 62, Type (0, 0), BuildingBlock: AJUNOK_clean_linker_0, # of connection points: 2
#     Edge 63, Type (0, 0), BuildingBlock: AJUNOK_clean_linker_0, # of connection points: 2
#     Edge 64, Type (0, 0), BuildingBlock: AJUNOK_clean_linker_0, # of connection points: 2
#     Edge 65, Type (0, 0), BuildingBlock: AJUNOK_clean_linker_0, # of connection points: 2
#     Edge 66, Type (0, 0), BuildingBlock: AJUNOK_clean_linker_0, # of connection points: 2
#     Edge 67, Type (0, 0), BuildingBlock: AJUNOK_clean_linker_0, # of connection points: 2
#     Edge 68, Type (0, 0), BuildingBlock: AJUNOK_clean_linker_0, # of connection points: 2
#     Edge 69, Type (0, 0), BuildingBlock: AJUNOK_clean_linker_0, # of connection points: 2
#     Edge 70, Type (0, 0), BuildingBlock: AJUNOK_clean_linker_0, # of connection points: 2
#     Edge 71, Type (0, 0), BuildingBlock: AJUNOK_clean_linker_0, # of connection points: 2
#     Edge 72, Type (0, 0), BuildingBlock: AJUNOK_clean_linker_0, # of connection points: 2
#     Edge 73, Type (0, 0), BuildingBlock: AJUNOK_clean_linker_0, # of connection points: 2
#     Edge 74, Type (0, 0), BuildingBlock: AJUNOK_clean_linker_0, # of connection points: 2
#     Edge 75, Type (0, 0), BuildingBlock: AJUNOK_clean_linker_0, # of connection points: 2
#     Edge 76, Type (0, 0), BuildingBlock: AJUNOK_clean_linker_0, # of connection points: 2
#     Edge 77, Type (0, 0), BuildingBlock: AJUNOK_clean_linker_0, # of connection points: 2
#     Edge 78, Type (0, 0), BuildingBlock: AJUNOK_clean_linker_0, # of connection points: 2
#     Edge 79, Type (0, 0), BuildingBlock: AJUNOK_clean_linker_0, # of connection points: 2
#     Edge 80, Type (0, 0), BuildingBlock: AJUNOK_clean_linker_0, # of connection points: 2
#     Edge 81, Type (0, 0), BuildingBlock: AJUNOK_clean_linker_0, # of connection points: 2
#     Edge 82, Type (0, 0), BuildingBlock: AJUNOK_clean_linker_0, # of connection points: 2
#     Edge 83, Type (0, 0), BuildingBlock: AJUNOK_clean_linker_0, # of connection points: 2
#     Edge 84, Type (0, 0), BuildingBlock: AJUNOK_clean_linker_0, # of connection points: 2
#     Edge 85, Type (0, 0), BuildingBlock: AJUNOK_clean_linker_0, # of connection points: 2
#     Edge 86, Type (0, 0), BuildingBlock: AJUNOK_clean_linker_0, # of connection points: 2
#     Edge 87, Type (0, 0), BuildingBlock: AJUNOK_clean_linker_0, # of connection points: 2
#     Edge 88, Type (0, 0), BuildingBlock: AJUNOK_clean_linker_0, # of connection points: 2
#     Edge 89, Type (0, 0), BuildingBlock: AJUNOK_clean_linker_0, # of connection points: 2
#     Edge 90, Type (0, 0), BuildingBlock: AJUNOK_clean_linker_0, # of connection points: 2
#     Edge 91, Type (0, 0), BuildingBlock: AJUNOK_clean_linker_0, # of connection points: 2
#     Edge 92, Type (0, 0), BuildingBlock: AJUNOK_clean_linker_0, # of connection points: 2
#     Edge 93, Type (0, 0), BuildingBlock: AJUNOK_clean_linker_0, # of connection points: 2
#     Edge 94, Type (0, 0), BuildingBlock: AJUNOK_clean_linker_0, # of connection points: 2
#     Edge 95, Type (0, 0), BuildingBlock: AJUNOK_clean_linker_0, # of connection points: 2
#     Edge 96, Type (0, 0), BuildingBlock: AJUNOK_clean_linker_0, # of connection points: 2
#     Edge 97, Type (0, 0), BuildingBlock: AJUNOK_clean_linker_0, # of connection points: 2
#     Edge 98, Type (0, 0), BuildingBlock: AJUNOK_clean_linker_0, # of connection points: 2
#     Edge 99, Type (0, 0), BuildingBlock: AJUNOK_clean_linker_0, # of connection points: 2
#     Edge 100, Type (0, 0), BuildingBlock: AJUNOK_clean_linker_0, # of connection points: 2
#     Edge 101, Type (0, 0), BuildingBlock: AJUNOK_clean_linker_0, # of connection points: 2
#     Edge 102, Type (0, 0), BuildingBlock: AJUNOK_clean_linker_0, # of connection points: 2
#     Edge 103, Type (0, 0), BuildingBlock: AJUNOK_clean_linker_0, # of connection points: 2
#     Edge 104, Type (0, 0), BuildingBlock: AJUNOK_clean_linker_0, # of connection points: 2
#     Edge 105, Type (0, 0), BuildingBlock: AJUNOK_clean_linker_0, # of connection points: 2
#     Edge 106, Type (0, 0), BuildingBlock: AJUNOK_clean_linker_0, # of connection points: 2
#     Edge 107, Type (0, 0), BuildingBlock: AJUNOK_clean_linker_0, # of connection points: 2
#     Edge 108, Type (0, 0), BuildingBlock: AJUNOK_clean_linker_0, # of connection points: 2
#     Edge 109, Type (0, 0), BuildingBlock: AJUNOK_clean_linker_0, # of connection points: 2
#     Edge 110, Type (0, 0), BuildingBlock: AJUNOK_clean_linker_0, # of connection points: 2
#     Edge 111, Type (0, 0), BuildingBlock: AJUNOK_clean_linker_0, # of connection points: 2
#     Edge 112, Type (0, 0), BuildingBlock: AJUNOK_clean_linker_0, # of connection points: 2
#     Edge 113, Type (0, 0), BuildingBlock: AJUNOK_clean_linker_0, # of connection points: 2
#     Edge 114, Type (0, 0), BuildingBlock: AJUNOK_clean_linker_0, # of connection points: 2
#     Edge 115, Type (0, 0), BuildingBlock: AJUNOK_clean_linker_0, # of connection points: 2
#     Edge 116, Type (0, 0), BuildingBlock: AJUNOK_clean_linker_0, # of connection points: 2
#     Edge 117, Type (0, 0), BuildingBlock: AJUNOK_clean_linker_0, # of connection points: 2
#     Edge 118, Type (0, 0), BuildingBlock: AJUNOK_clean_linker_0, # of connection points: 2
#     Edge 119, Type (0, 0), BuildingBlock: AJUNOK_clean_linker_0, # of connection points: 2
#     Edge 120, Type (0, 0), BuildingBlock: AJUNOK_clean_linker_0, # of connection points: 2
#     Edge 121, Type (0, 0), BuildingBlock: AJUNOK_clean_linker_0, # of connection points: 2
#     Edge 122, Type (0, 0), BuildingBlock: AJUNOK_clean_linker_0, # of connection points: 2
#     Edge 123, Type (0, 0), BuildingBlock: AJUNOK_clean_linker_0, # of connection points: 2
#     Edge 124, Type (0, 0), BuildingBlock: AJUNOK_clean_linker_0, # of connection points: 2
#     Edge 125, Type (0, 0), BuildingBlock: AJUNOK_clean_linker_0, # of connection points: 2
#     Edge 126, Type (0, 0), BuildingBlock: AJUNOK_clean_linker_0, # of connection points: 2
#     Edge 127, Type (0, 0), BuildingBlock: AJUNOK_clean_linker_0, # of connection points: 2
# Relax obj value: 0.293
# Max RMSD: 0.178
# Mean RMSD: 0.178
data_MOF--net-whq--node1-IZENUY_clean_sbu_0--edge1-AJUNOK_clean_linker_0
_symmetry_space_group_name_H-M    P1
_symmetry_Int_Tables_number       1
_symmetry_cell_setting            triclinic
loop_
_symmetry_equiv_pos_as_xyz
'x, y, z'
_cell_length_a     37.695653
_cell_length_b     37.663991
_cell_length_c     41.542522
_cell_angle_alpha  90.003249
_cell_angle_beta   90.048374
_cell_angle_gamma 89.956312
loop_
_atom_site_label
_atom_site_type_symbol
_atom_site_fract_x
_atom_site_fract_y
_atom_site_fract_z
_atom_type_partial_charge
Fe0 Fe 0.09086 0.18779 0.17595 0.0
Fe1 Fe 0.14976 0.22137 0.13581 0.0
O2 O 0.10548 0.222 0.15028 0.0
Fe3 Fe 0.076 0.25713 0.13996 0.0
O4 O 0.06994 0.2698 0.18241 0.0
O5 O 0.05978 0.21531 0.19856 0.0
O6 O 0.12393 0.19955 0.20561 0.0
C7 C 0.15677 0.20153 0.20047 0.0
C8 C 0.032 0.19493 0.13871 0.0
O9 O 0.16878 0.2013 0.17212 0.0
C10 C 0.10915 0.24383 0.08214 0.0
O11 O 0.11926 0.15331 0.15866 0.0
O12 O 0.14459 0.17809 0.11681 0.0
O13 O 0.03576 0.22853 0.14039 0.0
O14 O 0.05682 0.17466 0.14765 0.0
C15 C 0.14233 0.29225 0.14871 0.0
O16 O 0.13837 0.24151 0.09705 0.0
O17 O 0.08018 0.24671 0.09732 0.0
C18 C 0.13556 0.15067 0.1322 0.0
O19 O 0.15877 0.26381 0.15407 0.0
O20 O 0.11104 0.29179 0.1373 0.0
C21 C 0.06022 0.24824 0.20405 0.0
Fe22 Fe 0.85094 0.08696 0.17824 0.0
Fe23 Fe 0.82033 0.14666 0.13682 0.0
O24 O 0.81842 0.10225 0.15099 0.0
Fe25 Fe 0.78389 0.07312 0.13877 0.0
O26 O 0.76889 0.06625 0.18033 0.0
O27 O 0.82216 0.05506 0.19886 0.0
O28 O 0.83721 0.11932 0.20775 0.0
C29 C 0.83686 0.15235 0.20289 0.0
C30 C 0.84622 0.02934 0.13928 0.0
O31 O 0.83796 0.16489 0.17463 0.0
C32 C 0.79973 0.10669 0.08171 0.0
O33 O 0.88661 0.11582 0.16343 0.0
O34 O 0.86476 0.14128 0.12031 0.0
O35 O 0.81255 0.03283 0.13968 0.0
O36 O 0.86583 0.05381 0.14994 0.0
C37 C 0.74869 0.13954 0.14657 0.0
O38 O 0.80277 0.13597 0.09658 0.0
O39 O 0.79627 0.07786 0.09689 0.0
C40 C 0.89108 0.1325 0.13733 0.0
O41 O 0.77687 0.15604 0.15268 0.0
O42 O 0.74946 0.10826 0.1352 0.0
C43 C 0.78893 0.05495 0.20246 0.0
Fe44 Fe 0.89548 0.81809 0.13743 0.0
Fe45 Fe 0.96925 0.78211 0.13759 0.0
O46 O 0.94017 0.81639 0.1506 0.0
Fe47 Fe 0.95573 0.84885 0.17769 0.0
O48 O 0.9243 0.83449 0.20795 0.0
O49 O 0.87818 0.83556 0.17564 0.0
O50 O 0.88694 0.77462 0.15352 0.0
C51 C 0.90366 0.74651 0.14758 0.0
C52 C 0.90925 0.88886 0.13763 0.0
O53 O 0.93427 0.74745 0.13482 0.0
C54 C 1.01223 0.84493 0.13728 0.0
O55 O 0.90524 0.8007 0.09707 0.0
O56 O 0.96336 0.79476 0.09594 0.0
O57 O 0.92612 0.88431 0.16364 0.0
O58 O 0.90023 0.86253 0.12076 0.0
C59 C 0.98864 0.78705 0.20076 0.0
O60 O 1.00923 0.81117 0.13775 0.0
O61 O 0.98792 0.86422 0.14874 0.0
C62 C 0.9341 0.79827 0.08153 0.0
O63 O 0.97713 0.76699 0.17882 0.0
O64 O 0.98839 0.82029 0.19732 0.0
C65 C 0.89121 0.83344 0.20368 0.0
Fe66 Fe 0.19094 0.95444 0.17413 0.0
Fe67 Fe 0.22237 0.89278 0.13578 0.0
O68 O 0.22407 0.93778 0.14828 0.0
Fe69 Fe 0.25909 0.96612 0.13569 0.0
O70 O 0.2732 0.97428 0.17733 0.0
O71 O 0.21955 0.98666 0.19444 0.0
O72 O 0.20332 0.92307 0.20518 0.0
C73 C 0.20401 0.88988 0.2014 0.0
C74 C 0.19747 1.01061 0.13358 0.0
O75 O 0.20335 0.87629 0.17357 0.0
C76 C 0.24348 0.93021 0.07975 0.0
O77 O 0.15555 0.92543 0.15918 0.0
O78 O 0.17858 0.89755 0.11781 0.0
O79 O 0.23102 1.00671 0.13496 0.0
O80 O 0.17727 0.98671 0.1444 0.0
C81 C 0.29372 0.89999 0.14665 0.0
O82 O 0.24114 0.90167 0.09579 0.0
O83 O 0.24719 0.95978 0.09375 0.0
C84 C 0.15183 0.90792 0.13343 0.0
O85 O 0.26532 0.88409 0.15321 0.0
O86 O 0.29319 0.93056 0.13377 0.0
C87 C 0.25269 0.98643 0.19872 0.0
Fe88 Fe 0.07251 0.77953 0.38541 0.0
Fe89 Fe 0.08235 0.84826 0.34758 0.0
O90 O 0.10032 0.81463 0.37211 0.0
Fe91 Fe 0.14575 0.81576 0.38262 0.0
O92 O 0.1532 0.77276 0.36486 0.0
O93 O 0.10821 0.74527 0.38696 0.0
O94 O 0.0637 0.76557 0.34403 0.0
C95 C 0.0506 0.78633 0.32333 0.0
C96 C 0.11009 0.79535 0.43984 0.0
O97 O 0.04937 0.8194 0.32844 0.0
C98 C 0.13196 0.88655 0.38609 0.0
O99 O 0.03154 0.80758 0.38689 0.0
O100 O 0.05197 0.86137 0.37893 0.0
O101 O 0.13818 0.79728 0.42304 0.0
O102 O 0.08 0.79158 0.4269 0.0
C103 C 0.14485 0.83538 0.31685 0.0
O104 O 0.11226 0.88356 0.36155 0.0
O105 O 0.14249 0.85938 0.40092 0.0
C106 C 0.02762 0.84121 0.38879 0.0
O107 O 0.11154 0.83658 0.31509 0.0
O108 O 0.16043 0.83446 0.34391 0.0
C109 C 0.13823 0.74442 0.3731 0.0
Fe110 Fe 0.19157 0.08063 0.3465 0.0
Fe111 Fe 0.22359 0.14327 0.38324 0.0
O112 O 0.22482 0.09795 0.37185 0.0
Fe113 Fe 0.25944 0.06934 0.38486 0.0
O114 O 0.27364 0.06095 0.34329 0.0
O115 O 0.21995 0.04694 0.32777 0.0
O116 O 0.20488 0.1097 0.3147 0.0
C117 C 0.20748 0.14296 0.31646 0.0
C118 C 0.19697 0.02592 0.38785 0.0
O119 O 0.20718 0.1587 0.34358 0.0
C120 C 0.2428 0.10553 0.44039 0.0
O121 O 0.15632 0.11102 0.35933 0.0
O122 O 0.17901 0.14039 0.3998 0.0
O123 O 0.23064 0.02899 0.38583 0.0
O124 O 0.17727 0.05049 0.37754 0.0
C125 C 0.29541 0.135 0.37487 0.0
O126 O 0.24004 0.1344 0.42454 0.0
O127 O 0.24731 0.07618 0.4263 0.0
C128 C 0.1524 0.12991 0.38418 0.0
O129 O 0.26739 0.15102 0.36744 0.0
O130 O 0.29423 0.10424 0.38725 0.0
C131 C 0.2529 0.04802 0.32247 0.0
Fe132 Fe 0.95525 0.18787 0.3486 0.0
Fe133 Fe 0.89398 0.22329 0.38461 0.0
O134 O 0.9394 0.22213 0.3736 0.0
Fe135 Fe 0.9693 0.25562 0.38675 0.0
O136 O 0.97884 0.26947 0.3453 0.0
O137 O 0.98927 0.21499 0.32931 0.0
O138 O 0.92631 0.20157 0.3166 0.0
C139 C 0.89329 0.20565 0.31864 0.0
C140 C 1.01113 0.19175 0.38905 0.0
O141 O 0.87787 0.20612 0.34575 0.0
C142 C 0.93158 0.242 0.44182 0.0
O143 O 0.92389 0.15391 0.36257 0.0
O144 O 0.89483 0.17901 0.40223 0.0
O145 O 1.00867 0.22552 0.38782 0.0
O146 O 0.98562 0.1729 0.37941 0.0
C147 C 0.9057 0.29435 0.37485 0.0
O148 O 0.90315 0.24081 0.4253 0.0
O149 O 0.96157 0.24378 0.42834 0.0
C150 C 0.90451 0.15153 0.38729 0.0
O151 O 0.88848 0.26702 0.36744 0.0
O152 O 0.93564 0.2917 0.38864 0.0
C153 C 0.9907 0.24809 0.32448 0.0
Fe154 Fe 0.78014 0.96611 0.38587 0.0
Fe155 Fe 0.84899 0.95548 0.3484 0.0
O156 O 0.81544 0.93798 0.37335 0.0
Fe157 Fe 0.817 0.89272 0.38513 0.0
O158 O 0.77396 0.88429 0.36794 0.0
O159 O 0.74596 0.93042 0.3877 0.0
O160 O 0.76634 0.97438 0.34422 0.0
C161 C 0.78708 0.98691 0.32322 0.0
C162 C 0.79616 0.93005 0.44169 0.0
O163 O 0.82015 0.98791 0.32824 0.0
C164 C 0.88782 0.90662 0.38761 0.0
O165 O 0.80798 1.00715 0.38692 0.0
O166 O 0.86188 0.98694 0.37902 0.0
O167 O 0.79881 0.9013 0.42576 0.0
O168 O 0.79195 0.95948 0.42758 0.0
C169 C 0.83629 0.89195 0.3191 0.0
O170 O 0.88457 0.92607 0.36295 0.0
O171 O 0.86084 0.89662 0.40295 0.0
C172 C 0.84153 1.01115 0.38894 0.0
O173 O 0.83745 0.92524 0.31669 0.0
O174 O 0.83537 0.87696 0.34647 0.0
C175 C 0.7455 0.89992 0.37466 0.0
Fe176 Fe 0.96286 0.78534 0.8832 0.0
Fe177 Fe 0.94252 0.85222 0.84495 0.0
O178 O 0.93112 0.81811 0.87216 0.0
Fe179 Fe 0.88729 0.81674 0.8879 0.0
O180 O 0.88562 0.76853 0.89254 0.0
O181 O 0.93406 0.74935 0.86892 0.0
O182 O 0.98481 0.78412 0.84366 0.0
C183 C 0.9749 0.7953 0.81632 0.0
C184 C 0.92716 0.80245 0.94145 0.0
O185 O 0.95299 0.82041 0.81381 0.0
C186 C 0.90174 0.89079 0.88599 0.0
O187 O 0.99464 0.81844 0.89806 0.0
O188 O 0.98882 0.85534 0.85747 0.0
O189 O 0.90398 0.82212 0.92849 0.0
O190 O 0.94631 0.7817 0.92471 0.0
C191 C 0.87429 0.83229 0.82484 0.0
O192 O 0.93236 0.88657 0.87431 0.0
O193 O 0.88021 0.86501 0.88661 0.0
C194 C 1.00565 0.84478 0.88198 0.0
O195 O 0.89853 0.85524 0.82704 0.0
O196 O 0.86813 0.81106 0.84771 0.0
C197 C 0.9026 0.74434 0.87834 0.0
Fe198 Fe 0.18682 0.95604 0.84436 0.0
Fe199 Fe 0.21807 0.8934 0.88167 0.0
O200 O 0.21962 0.93878 0.8703 0.0
Fe201 Fe 0.25417 0.96719 0.88401 0.0
O202 O 0.26913 0.97652 0.84287 0.0
O203 O 0.21558 0.9893 0.82591 0.0
O204 O 0.20038 0.92625 0.81267 0.0
C205 C 0.20281 0.89295 0.81495 0.0
C206 C 0.19201 1.0114 0.88579 0.0
O207 O 0.20154 0.87779 0.84224 0.0
C208 C 0.23814 0.93019 0.93907 0.0
O209 O 0.15128 0.92596 0.85724 0.0
O210 O 0.17332 0.89679 0.89815 0.0
O211 O 0.22562 1.00756 0.88501 0.0
O212 O 0.17214 0.9872 0.87482 0.0
C213 C 0.28999 0.90157 0.87342 0.0
O214 O 0.23478 0.9018 0.92276 0.0
O215 O 0.24171 0.95991 0.92542 0.0
C216 C 0.14686 0.90702 0.88205 0.0
O217 O 0.26197 0.8855 0.86592 0.0
O218 O 0.28876 0.93216 0.88614 0.0
C219 C 0.2488 0.98996 0.82201 0.0
Fe220 Fe 0.0709 0.26036 0.88584 0.0
Fe221 Fe 0.0835 0.1927 0.84696 0.0
O222 O 0.09992 0.22591 0.87276 0.0
Fe223 Fe 0.14502 0.22482 0.8847 0.0
O224 O 0.15266 0.26857 0.86843 0.0
O225 O 0.10574 0.29519 0.88836 0.0
O226 O 0.06228 0.27507 0.84439 0.0
C227 C 0.05054 0.25425 0.82305 0.0
C228 C 0.10721 0.24451 0.9414 0.0
O229 O 0.05086 0.22115 0.8277 0.0
C230 C 0.13178 0.15349 0.88579 0.0
O231 O 0.03056 0.23155 0.88624 0.0
O232 O 0.05217 0.17837 0.87712 0.0
O233 O 0.13577 0.24206 0.92531 0.0
O234 O 0.07757 0.24802 0.92753 0.0
C235 C 0.14675 0.20781 0.81839 0.0
O236 O 0.11329 0.15739 0.86068 0.0
O237 O 0.14177 0.18024 0.90166 0.0
C238 C 0.02722 0.19784 0.88707 0.0
O239 O 0.11356 0.2059 0.81564 0.0
O240 O 0.1614 0.20765 0.84589 0.0
C241 C 0.13637 0.29656 0.87575 0.0
Fe242 Fe 0.77869 0.075 0.88365 0.0
Fe243 Fe 0.8461 0.08979 0.84538 0.0
O244 O 0.8128 0.10496 0.8719 0.0
Fe245 Fe 0.81356 0.1497 0.88542 0.0
O246 O 0.76926 0.15781 0.87081 0.0
O247 O 0.74308 0.10884 0.88683 0.0
O248 O 0.76479 0.06746 0.84162 0.0
C249 C 0.78608 0.05596 0.82054 0.0
C250 C 0.79483 0.1089 0.94087 0.0
O251 O 0.81892 0.05606 0.82601 0.0
C252 C 0.88511 0.1377 0.88438 0.0
O253 O 0.80861 0.03584 0.88357 0.0
O254 O 0.86183 0.058 0.87492 0.0
O255 O 0.79805 0.13847 0.92634 0.0
O256 O 0.79019 0.08032 0.92556 0.0
C257 C 0.82689 0.15348 0.8186 0.0
O258 O 0.88076 0.12043 0.8587 0.0
O259 O 0.85873 0.14664 0.90112 0.0
C260 C 0.84233 0.03315 0.88525 0.0
O261 O 0.83098 0.12046 0.81489 0.0
O262 O 0.82879 0.16751 0.84639 0.0
C263 C 0.74154 0.14054 0.87669 0.0
Fe264 Fe 0.88773 0.21968 0.63709 0.0
Fe265 Fe 0.96251 0.25376 0.63995 0.0
O266 O 0.93208 0.22001 0.65173 0.0
Fe267 Fe 0.94577 0.18686 0.67907 0.0
O268 O 0.91282 0.20126 0.70803 0.0
O269 O 0.86806 0.20233 0.67428 0.0
O270 O 0.87974 0.2634 0.65326 0.0
C271 C 0.89739 0.29103 0.64758 0.0
C272 C 0.90091 0.14836 0.63652 0.0
O273 O 0.92862 0.28924 0.63634 0.0
C274 C 1.00462 0.19038 0.64107 0.0
O275 O 0.89947 0.23736 0.59738 0.0
O276 O 0.95771 0.24183 0.59777 0.0
O277 O 0.91663 0.15211 0.66319 0.0
O278 O 0.89188 0.17514 0.62016 0.0
C279 C 0.97905 0.24778 0.70422 0.0
O280 O 1.00176 0.22408 0.6411 0.0
O281 O 0.97963 0.17128 0.65156 0.0
C282 C 0.92871 0.23977 0.58256 0.0
O283 O 0.96958 0.26832 0.68171 0.0
O284 O 0.97762 0.21457 0.70063 0.0
C285 C 0.87998 0.20388 0.70268 0.0
Fe286 Fe 0.81695 0.88813 0.63926 0.0
Fe287 Fe 0.78127 0.96243 0.63887 0.0
O288 O 0.81591 0.93336 0.65141 0.0
Fe289 Fe 0.84943 0.95007 0.67685 0.0
O290 O 0.83638 0.92014 0.70841 0.0
O291 O 0.83305 0.87168 0.6788 0.0
O292 O 0.773 0.88032 0.65476 0.0
C293 C 0.74512 0.89695 0.64795 0.0
C294 C 0.88841 0.9011 0.63846 0.0
O295 O 0.74642 0.92797 0.63632 0.0
C296 C 0.84351 1.00598 0.63612 0.0
O297 O 0.80067 0.89779 0.59799 0.0
O298 O 0.7931 0.95599 0.59733 0.0
O299 O 0.88462 0.92003 0.6633 0.0
O300 O 0.86167 0.89098 0.6228 0.0
C301 C 0.78822 0.98408 0.70101 0.0
O302 O 0.80994 1.00257 0.63806 0.0
O303 O 0.86352 0.98148 0.64636 0.0
C304 C 0.79761 0.92698 0.58269 0.0
O305 O 0.76715 0.97106 0.6805 0.0
O306 O 0.82128 0.98317 0.69612 0.0
C307 C 0.83261 0.88699 0.70613 0.0
Fe308 Fe 0.14978 0.81637 0.63517 0.0
Fe309 Fe 0.07445 0.7839 0.63609 0.0
O310 O 0.1051 0.81703 0.64876 0.0
Fe311 Fe 0.09169 0.85096 0.67546 0.0
O312 O 0.13455 0.85493 0.69513 0.0
O313 O 0.16687 0.81125 0.67609 0.0
O314 O 0.1527 0.76824 0.63088 0.0
C315 C 0.13495 0.74355 0.64346 0.0
C316 C 0.13374 0.89011 0.63596 0.0
O317 O 0.10284 0.74799 0.6511 0.0
C318 C 0.03048 0.84247 0.6362 0.0
O319 O 0.13546 0.82134 0.59396 0.0
O320 O 0.09321 0.78078 0.59526 0.0
O321 O 0.10267 0.88553 0.64655 0.0
O322 O 0.15573 0.86471 0.63649 0.0
C323 C 0.05879 0.79359 0.70245 0.0
O324 O 0.04283 0.81663 0.62024 0.0
O325 O 0.04604 0.8533 0.66124 0.0
C326 C 0.1139 0.80113 0.57966 0.0
O327 O 0.05067 0.78212 0.67471 0.0
O328 O 0.08033 0.81884 0.70603 0.0
C329 C 0.15927 0.83268 0.6984 0.0
Fe330 Fe 0.25521 0.07586 0.63885 0.0
Fe331 Fe 0.18826 0.08957 0.67814 0.0
O332 O 0.22035 0.10485 0.6506 0.0
Fe333 Fe 0.21758 0.14904 0.63597 0.0
O334 O 0.2612 0.15916 0.65112 0.0
O335 O 0.28924 0.11103 0.63515 0.0
O336 O 0.27024 0.0697 0.68057 0.0
C337 C 0.25006 0.05868 0.70263 0.0
C338 C 0.23854 0.10839 0.58129 0.0
O339 O 0.21704 0.0577 0.69829 0.0
C340 C 0.14707 0.13328 0.63726 0.0
O341 O 0.22668 0.03569 0.63998 0.0
O342 O 0.17315 0.05638 0.64996 0.0
O343 O 0.23457 0.13793 0.59559 0.0
O344 O 0.24298 0.08 0.59694 0.0
C345 C 0.20322 0.155 0.70239 0.0
O346 O 0.15252 0.11826 0.66394 0.0
O347 O 0.17284 0.14291 0.61998 0.0
C348 C 0.19302 0.03213 0.63922 0.0
O349 O 0.20254 0.122 0.70738 0.0
O350 O 0.20051 0.16738 0.67408 0.0
C351 C 0.28955 0.14252 0.64593 0.0
Fe352 Fe 0.58172 0.6895 0.67681 0.0
Fe353 Fe 0.64364 0.71892 0.63789 0.0
O354 O 0.59861 0.72134 0.64989 0.0
Fe355 Fe 0.5704 0.75588 0.63581 0.0
O356 O 0.56215 0.77198 0.67676 0.0
O357 O 0.54934 0.71919 0.69558 0.0
O358 O 0.61257 0.70315 0.70761 0.0
C359 C 0.64578 0.70322 0.70427 0.0
C360 C 0.52573 0.69414 0.63601 0.0
O361 O 0.65974 0.70176 0.6766 0.0
C362 C 0.60679 0.73857 0.58081 0.0
O363 O 0.6109 0.65333 0.6636 0.0
O364 O 0.63907 0.67424 0.62155 0.0
O365 O 0.52952 0.72782 0.63586 0.0
O366 O 0.55001 0.6747 0.64726 0.0
C367 C 0.63641 0.79073 0.64617 0.0
O368 O 0.63509 0.73599 0.59719 0.0
O369 O 0.57704 0.74222 0.59442 0.0
C370 C 0.62873 0.64824 0.63823 0.0
O371 O 0.65218 0.76255 0.65378 0.0
O372 O 0.60606 0.78981 0.6329 0.0
C373 C 0.55003 0.75248 0.69886 0.0
Fe374 Fe 0.34606 0.58486 0.67592 0.0
Fe375 Fe 0.31333 0.64568 0.63732 0.0
O376 O 0.31276 0.60066 0.64981 0.0
Fe377 Fe 0.27846 0.57133 0.63729 0.0
O378 O 0.26426 0.56367 0.67904 0.0
O379 O 0.3181 0.55186 0.69569 0.0
O380 O 0.33249 0.61579 0.70688 0.0
C381 C 0.33026 0.64893 0.70328 0.0
C382 C 0.34128 0.5283 0.63566 0.0
O383 O 0.33102 0.6627 0.67549 0.0
C384 C 0.29364 0.60707 0.58121 0.0
O385 O 0.38082 0.6149 0.66157 0.0
O386 O 0.3577 0.64244 0.62005 0.0
O387 O 0.30759 0.5313 0.63714 0.0
O388 O 0.36082 0.55293 0.64624 0.0
C389 C 0.24194 0.63666 0.64722 0.0
O390 O 0.2956 0.63584 0.59705 0.0
O391 O 0.29048 0.57751 0.59539 0.0
C392 C 0.38449 0.63282 0.63606 0.0
O393 O 0.26982 0.65331 0.65406 0.0
O394 O 0.24348 0.60599 0.63461 0.0
C395 C 0.28512 0.55253 0.70064 0.0
Fe396 Fe 0.39215 0.31864 0.638 0.0
Fe397 Fe 0.46534 0.28196 0.6396 0.0
O398 O 0.43692 0.31746 0.65099 0.0
Fe399 Fe 0.45333 0.35136 0.67615 0.0
O400 O 0.42157 0.34034 0.70711 0.0
O401 O 0.37506 0.33873 0.67512 0.0
O402 O 0.38348 0.27621 0.65636 0.0
C403 C 0.39918 0.24765 0.64992 0.0
C404 C 0.40651 0.38921 0.63421 0.0
O405 O 0.42984 0.24795 0.63739 0.0
C406 C 0.51009 0.34314 0.63668 0.0
O407 O 0.40183 0.29874 0.59852 0.0
O408 O 0.45998 0.29292 0.59742 0.0
O409 O 0.42456 0.38651 0.65981 0.0
O410 O 0.39671 0.3619 0.6191 0.0
C411 C 0.48424 0.2898 0.70275 0.0
O412 O 0.50611 0.30967 0.63916 0.0
O413 O 0.48608 0.36383 0.64649 0.0
C414 C 0.43062 0.29574 0.58293 0.0
O415 O 0.47236 0.26882 0.6816 0.0
O416 O 0.48501 0.32288 0.69765 0.0
C417 C 0.38846 0.33989 0.70302 0.0
Fe418 Fe 0.72182 0.38992 0.63748 0.0
Fe419 Fe 0.75518 0.46493 0.63857 0.0
O420 O 0.72157 0.43463 0.65085 0.0
Fe421 Fe 0.68806 0.44884 0.67732 0.0
O422 O 0.7019 0.41697 0.70733 0.0
O423 O 0.70335 0.3714 0.67469 0.0
O424 O 0.76492 0.38294 0.65496 0.0
C425 C 0.79256 0.40011 0.64841 0.0
C426 C 0.65084 0.40248 0.63513 0.0
O427 O 0.7907 0.43072 0.63563 0.0
C428 C 0.69162 0.50708 0.63901 0.0
O429 O 0.74032 0.4007 0.59792 0.0
O430 O 0.74307 0.45913 0.59651 0.0
O431 O 0.65379 0.41907 0.66146 0.0
O432 O 0.67796 0.39327 0.61946 0.0
C433 C 0.74871 0.48217 0.70248 0.0
O434 O 0.72537 0.5045 0.63916 0.0
O435 O 0.67289 0.48156 0.64878 0.0
C436 C 0.74053 0.42956 0.58227 0.0
O437 O 0.76952 0.47264 0.68024 0.0
O438 O 0.71555 0.48121 0.69846 0.0
C439 C 0.70404 0.38401 0.70285 0.0
Fe440 Fe 0.56832 0.28439 0.88832 0.0
Fe441 Fe 0.58014 0.35167 0.84906 0.0
O442 O 0.59721 0.31857 0.87467 0.0
Fe443 Fe 0.6426 0.31936 0.88586 0.0
O444 O 0.64957 0.27536 0.87017 0.0
O445 O 0.60303 0.24936 0.89113 0.0
O446 O 0.55974 0.26942 0.8471 0.0
C447 C 0.54751 0.28984 0.82568 0.0
C448 C 0.60499 0.30135 0.94342 0.0
O449 O 0.54669 0.32301 0.83018 0.0
C450 C 0.63014 0.39081 0.88639 0.0
O451 O 0.52799 0.31332 0.88875 0.0
O452 O 0.54997 0.36623 0.87988 0.0
O453 O 0.63373 0.30326 0.92731 0.0
O454 O 0.57542 0.29738 0.92957 0.0
C455 C 0.64248 0.33579 0.81904 0.0
O456 O 0.61049 0.38703 0.86198 0.0
O457 O 0.64047 0.36416 0.90211 0.0
C458 C 0.52506 0.34706 0.89007 0.0
O459 O 0.60925 0.33828 0.81737 0.0
O460 O 0.65822 0.33542 0.84615 0.0
C461 C 0.6334 0.24761 0.87806 0.0
Fe462 Fe 0.68975 0.58784 0.84652 0.0
Fe463 Fe 0.72292 0.64802 0.88557 0.0
O464 O 0.72346 0.60323 0.87232 0.0
Fe465 Fe 0.75787 0.5736 0.88389 0.0
O466 O 0.77143 0.56602 0.84211 0.0
O467 O 0.71727 0.55493 0.82615 0.0
O468 O 0.70321 0.61867 0.81591 0.0
C469 C 0.70542 0.65174 0.81966 0.0
C470 C 0.6948 0.53081 0.88586 0.0
O471 O 0.70498 0.66555 0.8475 0.0
C472 C 0.74398 0.60812 0.94074 0.0
O473 O 0.6551 0.61792 0.86129 0.0
O474 O 0.67869 0.64443 0.90304 0.0
O475 O 0.72852 0.53365 0.88419 0.0
O476 O 0.67534 0.5559 0.87613 0.0
C477 C 0.79427 0.63901 0.87425 0.0
O478 O 0.741 0.63745 0.92579 0.0
O479 O 0.74675 0.57916 0.92573 0.0
C480 C 0.65171 0.63569 0.88691 0.0
O481 O 0.7663 0.65613 0.86874 0.0
O482 O 0.79302 0.60807 0.88631 0.0
C483 C 0.75026 0.55442 0.82108 0.0
Fe484 Fe 0.4545 0.69176 0.8462 0.0
Fe485 Fe 0.39282 0.72469 0.88378 0.0
O486 O 0.43778 0.72568 0.87118 0.0
Fe487 Fe 0.46633 0.76092 0.88298 0.0
O488 O 0.47353 0.77454 0.84135 0.0
O489 O 0.48624 0.72052 0.82497 0.0
O490 O 0.42338 0.70288 0.81504 0.0
C491 C 0.39019 0.70403 0.81813 0.0
C492 C 0.5113 0.69942 0.88549 0.0
O493 O 0.37592 0.70566 0.84575 0.0
C494 C 0.4317 0.74607 0.93934 0.0
O495 O 0.42548 0.65649 0.86201 0.0
O496 O 0.39673 0.68119 0.90209 0.0
O497 O 0.50727 0.73297 0.88333 0.0
O498 O 0.48686 0.67903 0.87615 0.0
C499 C 0.40017 0.79591 0.87287 0.0
O500 O 0.40254 0.74352 0.92403 0.0
O501 O 0.46075 0.74928 0.9246 0.0
C502 C 0.40671 0.65389 0.88716 0.0
O503 O 0.38448 0.76751 0.86607 0.0
O504 O 0.43087 0.79526 0.88547 0.0
C505 C 0.48554 0.75373 0.82021 0.0
Fe506 Fe 0.27866 0.47124 0.88723 0.0
Fe507 Fe 0.34686 0.46064 0.84921 0.0
O508 O 0.31321 0.4429 0.87369 0.0
Fe509 Fe 0.31381 0.39725 0.88382 0.0
O510 O 0.27051 0.39064 0.86645 0.0
O511 O 0.24385 0.4362 0.88858 0.0
O512 O 0.26462 0.48089 0.84585 0.0
C513 C 0.28562 0.49419 0.82547 0.0
C514 C 0.29417 0.43285 0.94154 0.0
O515 O 0.31863 0.49454 0.83081 0.0
C516 C 0.3848 0.4102 0.88688 0.0
O517 O 0.30745 0.51169 0.88913 0.0
O518 O 0.36081 0.4903 0.8809 0.0
O519 O 0.29597 0.40476 0.92461 0.0
O520 O 0.29081 0.46302 0.92857 0.0
C521 C 0.33218 0.39893 0.81779 0.0
O522 O 0.38163 0.42985 0.86238 0.0
O523 O 0.35779 0.39939 0.9017 0.0
C524 C 0.34114 0.51486 0.89121 0.0
O525 O 0.33426 0.43223 0.81647 0.0
O526 O 0.33173 0.38284 0.84465 0.0
C527 C 0.2425 0.40619 0.8747 0.0
Fe528 Fe 0.45567 0.34737 0.34808 0.0
Fe529 Fe 0.39429 0.31495 0.38593 0.0
O530 O 0.43935 0.31401 0.37383 0.0
Fe531 Fe 0.4682 0.27948 0.38666 0.0
O532 O 0.47674 0.26516 0.34517 0.0
O533 O 0.48844 0.31904 0.32833 0.0
O534 O 0.42523 0.33422 0.31695 0.0
C535 C 0.39207 0.33282 0.32012 0.0
C536 C 0.51201 0.34201 0.38798 0.0
O537 O 0.37781 0.33325 0.34771 0.0
C538 C 0.43192 0.29434 0.4423 0.0
O539 O 0.42582 0.38244 0.36245 0.0
O540 O 0.39799 0.35902 0.40359 0.0
O541 O 0.50839 0.30832 0.38712 0.0
O542 O 0.48733 0.36176 0.37799 0.0
C543 C 0.40266 0.2435 0.376 0.0
O544 O 0.40341 0.29668 0.42615 0.0
O545 O 0.4616 0.29154 0.42842 0.0
C546 C 0.40757 0.38593 0.38778 0.0
O547 O 0.3865 0.27162 0.36883 0.0
O548 O 0.43323 0.24467 0.38885 0.0
C549 C 0.48876 0.28588 0.32391 0.0
Fe550 Fe 0.69432 0.44551 0.34486 0.0
Fe551 Fe 0.72853 0.3877 0.38597 0.0
O552 O 0.72754 0.43252 0.37244 0.0
Fe553 Fe 0.75989 0.46349 0.38612 0.0
O554 O 0.76264 0.48802 0.34786 0.0
O555 O 0.72702 0.45889 0.31534 0.0
O556 O 0.69299 0.40287 0.32426 0.0
C557 C 0.71683 0.37953 0.3215 0.0
C558 C 0.70022 0.50626 0.38537 0.0
O559 O 0.73633 0.37126 0.34512 0.0
C560 C 0.74029 0.42422 0.44195 0.0
O561 O 0.6589 0.43284 0.37238 0.0
O562 O 0.68047 0.38014 0.38247 0.0
O563 O 0.72638 0.49461 0.40137 0.0
O564 O 0.68994 0.49059 0.36016 0.0
C565 C 0.80112 0.40348 0.37986 0.0
O566 O 0.72111 0.40209 0.42701 0.0
O567 O 0.76175 0.44437 0.42695 0.0
C568 C 0.65461 0.40157 0.38255 0.0
O569 O 0.77642 0.38589 0.39254 0.0
O570 O 0.79641 0.43542 0.3716 0.0
C571 C 0.75219 0.48033 0.31974 0.0
Fe572 Fe 0.64951 0.71813 0.38442 0.0
Fe573 Fe 0.57491 0.75292 0.3838 0.0
O574 O 0.6046 0.7187 0.37157 0.0
Fe575 Fe 0.58917 0.68524 0.34541 0.0
O576 O 0.61989 0.69937 0.31469 0.0
O577 O 0.66705 0.70138 0.34585 0.0
O578 O 0.65717 0.76192 0.36841 0.0
C579 C 0.64019 0.78982 0.37455 0.0
C580 C 0.63734 0.64668 0.38508 0.0
O581 O 0.6092 0.78837 0.38645 0.0
C582 C 0.53235 0.68954 0.38511 0.0
O583 O 0.63915 0.73522 0.42484 0.0
O584 O 0.58089 0.74126 0.42567 0.0
O585 O 0.61951 0.65049 0.35953 0.0
O586 O 0.64636 0.67349 0.4013 0.0
C587 C 0.55584 0.74593 0.32067 0.0
O588 O 0.53522 0.72331 0.38395 0.0
O589 O 0.55736 0.67018 0.37499 0.0
C590 C 0.61017 0.73807 0.44021 0.0
O591 O 0.56708 0.76695 0.34205 0.0
O592 O 0.55588 0.7129 0.32562 0.0
C593 C 0.65299 0.70249 0.31811 0.0
Fe594 Fe 0.35039 0.58248 0.34523 0.0
Fe595 Fe 0.32012 0.64439 0.38407 0.0
O596 O 0.31786 0.59945 0.37158 0.0
Fe597 Fe 0.2828 0.57136 0.38466 0.0
O598 O 0.26774 0.56374 0.34335 0.0
O599 O 0.32088 0.55075 0.3253 0.0
O600 O 0.338 0.61387 0.31434 0.0
C601 C 0.33819 0.64706 0.31797 0.0
C602 C 0.34408 0.52615 0.38547 0.0
O603 O 0.3384 0.66082 0.34581 0.0
C604 C 0.29888 0.60679 0.44046 0.0
O605 O 0.3865 0.61103 0.35969 0.0
O606 O 0.36437 0.63939 0.40121 0.0
O607 O 0.31052 0.53036 0.38468 0.0
O608 O 0.36421 0.55009 0.37472 0.0
C609 C 0.24833 0.63792 0.37478 0.0
O610 O 0.30214 0.63536 0.42449 0.0
O611 O 0.29544 0.57727 0.42635 0.0
C612 C 0.39081 0.62876 0.38525 0.0
O613 O 0.27673 0.6535 0.36752 0.0
O614 O 0.24896 0.60721 0.3874 0.0
C615 C 0.28766 0.55169 0.32153 0.0
Fe616 Fe 0.46901 0.75932 0.13622 0.0
Fe617 Fe 0.45925 0.68883 0.17089 0.0
O618 O 0.44112 0.72339 0.14751 0.0
Fe619 Fe 0.3958 0.722 0.13616 0.0
O620 O 0.38728 0.76475 0.15405 0.0
O621 O 0.43366 0.79349 0.13589 0.0
O622 O 0.47793 0.7711 0.17836 0.0
C623 C 0.4919 0.74912 0.19752 0.0
C624 C 0.4327 0.74546 0.0801 0.0
O625 O 0.49247 0.7165 0.19057 0.0
C626 C 0.40979 0.65112 0.13217 0.0
O627 O 0.50972 0.7314 0.13329 0.0
O628 O 0.48948 0.67709 0.13884 0.0
O629 O 0.40398 0.74099 0.09571 0.0
O630 O 0.46191 0.74973 0.09439 0.0
C631 C 0.39684 0.70165 0.20196 0.0
O632 O 0.4294 0.65394 0.15664 0.0
O633 O 0.39938 0.67842 0.11749 0.0
C634 C 0.51343 0.69801 0.12927 0.0
O635 O 0.43014 0.6995 0.2037 0.0
O636 O 0.38103 0.70293 0.17491 0.0
C637 C 0.40284 0.79343 0.148 0.0
Fe638 Fe 0.28416 0.46658 0.13746 0.0
Fe639 Fe 0.35098 0.45643 0.17794 0.0
O640 O 0.31936 0.43895 0.15097 0.0
Fe641 Fe 0.32282 0.39403 0.13856 0.0
O642 O 0.27917 0.38413 0.15383 0.0
O643 O 0.25069 0.43058 0.13487 0.0
O644 O 0.26856 0.4746 0.1786 0.0
C645 C 0.28809 0.48768 0.2002 0.0
C646 C 0.30143 0.43099 0.08187 0.0
O647 O 0.32124 0.48882 0.1965 0.0
C648 C 0.39329 0.41017 0.13985 0.0
O649 O 0.31185 0.5076 0.13707 0.0
O650 O 0.36553 0.4882 0.14825 0.0
O651 O 0.306 0.40254 0.09769 0.0
O652 O 0.29697 0.46036 0.09596 0.0
C653 C 0.33796 0.39217 0.20517 0.0
O654 O 0.38746 0.42762 0.16525 0.0
O655 O 0.36771 0.39959 0.12272 0.0
C656 C 0.34546 0.51173 0.1365 0.0
O657 O 0.3375 0.42543 0.20868 0.0
O658 O 0.33974 0.37827 0.17744 0.0
C659 C 0.25059 0.39967 0.14701 0.0
Fe660 Fe 0.57757 0.28598 0.14221 0.0
Fe661 Fe 0.59527 0.35188 0.18246 0.0
O662 O 0.60824 0.31942 0.15417 0.0
Fe663 Fe 0.65209 0.32029 0.13839 0.0
O664 O 0.66082 0.27639 0.15368 0.0
O665 O 0.61165 0.2507 0.13714 0.0
O666 O 0.57149 0.27018 0.18357 0.0
C667 C 0.56254 0.29001 0.20671 0.0
C668 C 0.60943 0.3021 0.0844 0.0
O669 O 0.56438 0.32335 0.20428 0.0
C670 C 0.63833 0.39133 0.13916 0.0
O671 O 0.53808 0.31549 0.14482 0.0
O672 O 0.56047 0.36793 0.15614 0.0
O673 O 0.63931 0.30334 0.09841 0.0
O674 O 0.58115 0.29932 0.10044 0.0
C675 C 0.66187 0.33545 0.20427 0.0
O676 O 0.6237 0.38715 0.16628 0.0
O677 O 0.64698 0.3649 0.12226 0.0
C678 C 0.53515 0.34918 0.14577 0.0
O679 O 0.62918 0.33719 0.21047 0.0
O680 O 0.67284 0.33719 0.17552 0.0
C681 C 0.64321 0.2488 0.14779 0.0
Fe682 Fe 0.7253 0.65031 0.13499 0.0
Fe683 Fe 0.75916 0.57539 0.1394 0.0
O684 O 0.72456 0.60574 0.14894 0.0
Fe685 Fe 0.6893 0.59129 0.17346 0.0
O686 O 0.70173 0.62275 0.20417 0.0
O687 O 0.70635 0.66905 0.17218 0.0
O688 O 0.76808 0.65802 0.15307 0.0
C689 C 0.79599 0.64043 0.14878 0.0
C690 C 0.65408 0.63826 0.13072 0.0
O691 O 0.79488 0.60913 0.13765 0.0
C692 C 0.69599 0.53334 0.13538 0.0
O693 O 0.74463 0.63859 0.09572 0.0
O694 O 0.7501 0.58023 0.09692 0.0
O695 O 0.65602 0.62138 0.15687 0.0
O696 O 0.68185 0.64709 0.1159 0.0
C697 C 0.74748 0.55879 0.20264 0.0
O698 O 0.72951 0.53607 0.13864 0.0
O699 O 0.67604 0.5587 0.14376 0.0
C700 C 0.74749 0.60894 0.08136 0.0
O701 O 0.77026 0.56858 0.18212 0.0
O702 O 0.71507 0.55848 0.19543 0.0
C703 C 0.70606 0.65561 0.20016 0.0
C704 C 0.20614 0.14334 0.25677 0.0
C705 C 0.20424 0.16267 0.28584 0.0
C706 C 0.19414 0.15785 0.22791 0.0
C707 C 0.18011 0.1922 0.22716 0.0
H708 H 0.21441 0.11579 0.25656 0.0
H709 H 0.19293 0.14102 0.20676 0.0
S710 S 0.18011 0.25781 0.29349 0.0
N711 N 0.195 0.22083 0.31018 0.0
N712 N 0.17236 0.24813 0.25531 0.0
C713 C 0.18244 0.2135 0.25475 0.0
C714 C 0.19473 0.19874 0.28433 0.0
C715 C 0.84152 0.18166 0.28882 0.0
C716 C 0.87282 0.2018 0.28878 0.0
C717 C 0.82774 0.16839 0.25999 0.0
C718 C 0.84452 0.17526 0.2305 0.0
H719 H 0.82947 0.1734 0.31127 0.0
H720 H 0.80524 0.15074 0.2609 0.0
S721 S 0.92283 0.23275 0.21718 0.0
N722 N 0.91693 0.23285 0.25658 0.0
N723 N 0.89074 0.20778 0.20236 0.0
C724 C 0.8733 0.1988 0.22981 0.0
C725 C 0.88756 0.2121 0.2591 0.0
C726 C 0.84944 0.87341 0.23099 0.0
C727 C 0.86881 0.84172 0.23144 0.0
C728 C 0.83656 0.88802 0.2595 0.0
C729 C 0.84234 0.87131 0.2894 0.0
H730 H 0.84686 0.8886 0.20893 0.0
H731 H 0.82414 0.91383 0.25824 0.0
S732 S 0.88444 0.78331 0.30174 0.0
N733 N 0.88778 0.79065 0.26264 0.0
N734 N 0.86375 0.81826 0.31678 0.0
C735 C 0.85829 0.83756 0.28959 0.0
C736 C 0.87161 0.82276 0.2604 0.0
C737 C 0.14778 0.8366 0.25718 0.0
C738 C 0.16494 0.84167 0.28698 0.0
C739 C 0.16249 0.8495 0.22869 0.0
C740 C 0.19474 0.86795 0.22915 0.0
H741 H 0.12174 0.82451 0.25605 0.0
H742 H 0.14722 0.84747 0.20664 0.0
S743 S 0.25393 0.88155 0.29918 0.0
N744 N 0.21865 0.86158 0.31423 0.0
N745 N 0.24639 0.8854 0.26015 0.0
C746 C 0.2139 0.87006 0.25799 0.0
C747 C 0.19901 0.85687 0.28711 0.0
C748 C 0.85804 0.81819 0.76863 0.0
C749 C 0.85009 0.8362 0.7974 0.0
C750 C 0.84931 0.83302 0.73853 0.0
C751 C 0.83262 0.86639 0.73657 0.0
H752 H 0.87418 0.79442 0.76932 0.0
H753 H 0.85858 0.81991 0.7169 0.0
S754 S 0.7999 0.92013 0.80541 0.0
N755 N 0.81992 0.88585 0.82227 0.0
N756 N 0.80289 0.91364 0.76619 0.0
C757 C 0.82074 0.88226 0.76534 0.0
C758 C 0.82957 0.86711 0.7957 0.0
C759 C 0.17525 0.82226 0.75517 0.0
C760 C 0.1831 0.83867 0.72566 0.0
C761 C 0.18462 0.83844 0.78445 0.0
C762 C 0.20134 0.87187 0.78489 0.0
H763 H 0.15875 0.79872 0.75571 0.0
H764 H 0.17583 0.82627 0.80668 0.0
S765 S 0.23155 0.92295 0.71354 0.0
N766 N 0.21198 0.88752 0.69836 0.0
N767 N 0.22944 0.91829 0.75303 0.0
C768 C 0.21226 0.88667 0.75538 0.0
C769 C 0.20318 0.86992 0.7258 0.0
C770 C 0.16643 0.1997 0.73012 0.0
C771 C 0.19659 0.17793 0.73021 0.0
C772 C 0.15219 0.21215 0.75903 0.0
C773 C 0.16779 0.20327 0.7888 0.0
H774 H 0.15186 0.20434 0.70801 0.0
H775 H 0.12736 0.22665 0.75817 0.0
S776 S 0.25219 0.15433 0.80057 0.0
N777 N 0.24552 0.15371 0.76126 0.0
N778 N 0.21857 0.17676 0.81597 0.0
C779 C 0.2004 0.1852 0.78876 0.0
C780 C 0.21483 0.1725 0.75926 0.0
C781 C 0.85094 0.20534 0.78866 0.0
C782 C 0.82857 0.17562 0.78941 0.0
C783 C 0.86386 0.21807 0.75923 0.0
C784 C 0.85577 0.20059 0.73028 0.0
H785 H 0.86101 0.21673 0.8108 0.0
H786 H 0.88199 0.24023 0.75923 0.0
S787 S 0.78505 0.1337 0.71899 0.0
N788 N 0.78813 0.13871 0.75844 0.0
N789 N 0.81498 0.16055 0.70323 0.0
C790 C 0.82834 0.17555 0.73039 0.0
C791 C 0.81426 0.16339 0.76017 0.0
C792 C 0.65476 0.70912 0.76314 0.0
C793 C 0.66765 0.69763 0.73314 0.0
C794 C 0.67021 0.69754 0.79182 0.0
C795 C 0.69853 0.67343 0.79121 0.0
H796 H 0.63105 0.72515 0.76447 0.0
H797 H 0.6577 0.70469 0.8144 0.0
S798 S 0.74532 0.63906 0.71931 0.0
N799 N 0.71332 0.66434 0.70466 0.0
N800 N 0.74176 0.64167 0.75885 0.0
C801 C 0.71371 0.66419 0.76155 0.0
C802 C 0.69839 0.67651 0.73233 0.0
C803 C 0.38415 0.70459 0.75873 0.0
C804 C 0.36882 0.69751 0.78894 0.0
C805 C 0.36915 0.69174 0.73039 0.0
C806 C 0.33844 0.67096 0.73132 0.0
H807 H 0.40925 0.71808 0.75699 0.0
H808 H 0.38342 0.69551 0.70799 0.0
S809 S 0.28369 0.65077 0.80298 0.0
N810 N 0.31808 0.67281 0.81743 0.0
N811 N 0.28961 0.64876 0.76361 0.0
C812 C 0.32075 0.66656 0.76077 0.0
C813 C 0.33597 0.6799 0.78979 0.0
C814 C 0.37115 0.33275 0.7601 0.0
C815 C 0.36626 0.34979 0.73042 0.0
C816 C 0.35705 0.34705 0.78839 0.0
C817 C 0.33823 0.37926 0.78771 0.0
H818 H 0.38744 0.30923 0.76157 0.0
H819 H 0.36332 0.33428 0.81107 0.0
S820 S 0.31462 0.43172 0.71509 0.0
N821 N 0.33833 0.39817 0.70124 0.0
N822 N 0.31191 0.42556 0.75437 0.0
C823 C 0.3307 0.39494 0.75769 0.0
C824 C 0.34473 0.38007 0.72896 0.0
C825 C 0.65785 0.35086 0.73063 0.0
C826 C 0.69327 0.36163 0.72971 0.0
C827 C 0.64254 0.34005 0.75943 0.0
C828 C 0.66215 0.33939 0.7884 0.0
H829 H 0.64103 0.35378 0.7096 0.0
H830 H 0.61436 0.33474 0.75917 0.0
S831 S 0.75885 0.35592 0.79586 0.0
N832 N 0.74963 0.36493 0.75781 0.0
N833 N 0.72095 0.34375 0.81255 0.0
C834 C 0.69882 0.34613 0.78682 0.0
C835 C 0.71437 0.35759 0.75727 0.0
C836 C 0.33249 0.38217 0.26395 0.0
C837 C 0.34467 0.37035 0.23381 0.0
C838 C 0.34512 0.367 0.29242 0.0
C839 C 0.37082 0.34006 0.29142 0.0
H840 H 0.31484 0.40475 0.26557 0.0
H841 H 0.33716 0.3786 0.31518 0.0
S842 S 0.4075 0.29631 0.21885 0.0
N843 N 0.38048 0.32711 0.2047 0.0
N844 N 0.4048 0.29913 0.25844 0.0
C845 C 0.38086 0.32592 0.26155 0.0
C846 C 0.3676 0.34094 0.23258 0.0
C847 C 0.68318 0.31815 0.25885 0.0
C848 C 0.6869 0.33951 0.2313 0.0
C849 C 0.69808 0.32838 0.28841 0.0
C850 C 0.71754 0.36 0.29094 0.0
H851 H 0.66667 0.29471 0.258 0.0
H852 H 0.69125 0.31353 0.30987 0.0
S853 S 0.74137 0.42085 0.2243 0.0
N854 N 0.71616 0.39036 0.20719 0.0
N855 N 0.74482 0.40921 0.26252 0.0
C856 C 0.72534 0.37887 0.26264 0.0
C857 C 0.70991 0.36867 0.23271 0.0
C858 C 0.67373 0.70222 0.22995 0.0
C859 C 0.70198 0.67812 0.22867 0.0
C860 C 0.6607 0.71374 0.25966 0.0
C861 C 0.67489 0.70076 0.28873 0.0
H862 H 0.65958 0.70958 0.20822 0.0
H863 H 0.63792 0.73108 0.25986 0.0
S864 S 0.75779 0.64859 0.29708 0.0
N865 N 0.75043 0.65026 0.25787 0.0
N866 N 0.72493 0.67084 0.31403 0.0
C867 C 0.70668 0.6814 0.28749 0.0
C868 C 0.72033 0.6701 0.2572 0.0
C869 C 0.33157 0.66133 0.25988 0.0
C870 C 0.34744 0.66865 0.28978 0.0
C871 C 0.34584 0.67487 0.23129 0.0
C872 C 0.37679 0.6956 0.23185 0.0
H873 H 0.30906 0.64361 0.25844 0.0
H874 H 0.33416 0.6668 0.2086 0.0
S875 S 0.42574 0.72582 0.30442 0.0
N876 N 0.39335 0.70087 0.31862 0.0
N877 N 0.42049 0.72616 0.26495 0.0
C878 C 0.39118 0.70542 0.26184 0.0
C879 C 0.37638 0.69199 0.29088 0.0
C880 C 0.21549 0.35358 0.17558 0.0
C881 C 0.21738 0.37879 0.15064 0.0
C882 C 0.18898 0.3276 0.17613 0.0
C883 C 0.1631 0.32559 0.15178 0.0
H884 H 0.23586 0.35272 0.19399 0.0
H885 H 0.18998 0.30759 0.19488 0.0
S886 S 0.15404 0.38732 0.0827 0.0
N887 N 0.18926 0.40199 0.10234 0.0
N888 N 0.13924 0.35287 0.10335 0.0
C889 C 0.16291 0.35224 0.12801 0.0
C890 C 0.19011 0.37892 0.12745 0.0
C891 C 0.68575 0.20974 0.1764 0.0
C892 C 0.66245 0.21456 0.15032 0.0
C893 C 0.71154 0.18298 0.17612 0.0
C894 C 0.71518 0.15989 0.14972 0.0
H895 H 0.68549 0.22824 0.1964 0.0
H896 H 0.73027 0.18178 0.19591 0.0
S897 S 0.6591 0.15957 0.07637 0.0
N898 N 0.64299 0.19249 0.09827 0.0
N899 N 0.69171 0.14198 0.09771 0.0
C900 C 0.69039 0.16261 0.12449 0.0
C901 C 0.66393 0.19004 0.12479 0.0
C902 C 0.85506 0.66107 0.12781 0.0
C903 C 0.82994 0.65968 0.1529 0.0
C904 C 0.88175 0.68736 0.12746 0.0
C905 C 0.88396 0.71284 0.1522 0.0
H906 H 0.85224 0.64382 0.1071 0.0
H907 H 0.89867 0.68956 0.10649 0.0
S908 S 0.8288 0.71599 0.22608 0.0
N909 N 0.81226 0.68266 0.20507 0.0
N910 N 0.86217 0.73154 0.20457 0.0
C911 C 0.86118 0.70929 0.1788 0.0
C912 C 0.8342 0.68284 0.1791 0.0
C913 C 0.32902 0.85393 0.17515 0.0
C914 C 0.32714 0.87947 0.15048 0.0
C915 C 0.35565 0.82803 0.17555 0.0
C916 C 0.38166 0.8265 0.15133 0.0
H917 H 0.30852 0.8527 0.1934 0.0
H918 H 0.35465 0.80777 0.19406 0.0
S919 S 0.39095 0.88942 0.08318 0.0
N920 N 0.35549 0.90359 0.10272 0.0
N921 N 0.40577 0.8547 0.10349 0.0
C922 C 0.3819 0.85355 0.12794 0.0
C923 C 0.35458 0.88011 0.12751 0.0
C924 C 0.1851 0.70898 0.34573 0.0
C925 C 0.15974 0.71131 0.37052 0.0
C926 C 0.21202 0.68334 0.34627 0.0
C927 C 0.21485 0.65864 0.37155 0.0
H928 H 0.18534 0.72846 0.32652 0.0
H929 H 0.23191 0.68401 0.32745 0.0
S930 S 0.15337 0.65101 0.44089 0.0
N931 N 0.1376 0.68483 0.41993 0.0
N932 N 0.18826 0.6363 0.42082 0.0
C933 C 0.18818 0.65882 0.39529 0.0
C934 C 0.16061 0.68521 0.3948 0.0
C935 C 0.35827 0.20655 0.34705 0.0
C936 C 0.38241 0.20977 0.37274 0.0
C937 C 0.33221 0.18007 0.34674 0.0
C938 C 0.329 0.15553 0.37212 0.0
H939 H 0.3582 0.226 0.32781 0.0
H940 H 0.31304 0.18012 0.32728 0.0
S941 S 0.3876 0.15026 0.44372 0.0
N942 N 0.40327 0.18431 0.42307 0.0
N943 N 0.35406 0.13436 0.42251 0.0
C944 C 0.35462 0.15661 0.39679 0.0
C945 C 0.38138 0.18378 0.3971 0.0
C946 C 0.88413 0.35153 0.39921 0.0
C947 C 0.88672 0.32888 0.37233 0.0
C948 C 0.85836 0.37869 0.40039 0.0
C949 C 0.83506 0.38469 0.37442 0.0
H950 H 0.89988 0.34628 0.42051 0.0
H951 H 0.85495 0.39336 0.42261 0.0
S952 S 0.83374 0.33553 0.29723 0.0
N953 N 0.8657 0.31632 0.3182 0.0
N954 N 0.81817 0.36771 0.32027 0.0
C955 C 0.83937 0.36412 0.34655 0.0
C956 C 0.86503 0.33618 0.34552 0.0
C957 C 0.66121 0.84918 0.39575 0.0
C958 C 0.6597 0.82392 0.37072 0.0
C959 C 0.68713 0.87634 0.39576 0.0
C960 C 0.71226 0.87899 0.37073 0.0
H961 H 0.64419 0.84629 0.41658 0.0
H962 H 0.68926 0.89348 0.41661 0.0
S963 S 0.71533 0.82328 0.29709 0.0
N964 N 0.68247 0.80641 0.31841 0.0
N965 N 0.73067 0.85697 0.31838 0.0
C966 C 0.70877 0.85581 0.34436 0.0
C967 C 0.68265 0.82841 0.34437 0.0
C968 C 0.85264 0.65989 0.89662 0.0
C969 C 0.82827 0.65862 0.87093 0.0
C970 C 0.8796 0.68583 0.89755 0.0
C971 C 0.88361 0.71064 0.87244 0.0
H972 H 0.849 0.64284 0.91736 0.0
H973 H 0.89575 0.6881 0.91903 0.0
S974 S 0.82945 0.71578 0.79818 0.0
N975 N 0.81196 0.68249 0.81861 0.0
N976 N 0.86292 0.7304 0.82017 0.0
C977 C 0.86125 0.70773 0.84558 0.0
C978 C 0.83356 0.68187 0.84483 0.0
C979 C 0.35413 0.83144 0.84466 0.0
C980 C 0.37907 0.82912 0.86982 0.0
C981 C 0.32714 0.85699 0.8449 0.0
C982 C 0.32382 0.88149 0.87028 0.0
H983 H 0.3542 0.81194 0.82547 0.0
H984 H 0.30749 0.85628 0.82584 0.0
S985 S 0.38425 0.8891 0.94046 0.0
N986 N 0.40047 0.85545 0.91958 0.0
N987 N 0.3496 0.90378 0.91998 0.0
C988 C 0.35016 0.8814 0.89435 0.0
C989 C 0.37783 0.85514 0.89413 0.0
C990 C 0.18011 0.3342 0.84678 0.0
C991 C 0.15633 0.33046 0.87264 0.0
C992 C 0.20579 0.36105 0.84643 0.0
C993 C 0.20905 0.38538 0.87199 0.0
H994 H 0.18017 0.31494 0.82739 0.0
H995 H 0.2247 0.36142 0.82679 0.0
S996 S 0.15126 0.38922 0.94414 0.0
N997 N 0.13575 0.35518 0.92333 0.0
N998 N 0.18435 0.40572 0.92278 0.0
C999 C 0.18375 0.38373 0.89688 0.0
C1000 C 0.15733 0.35623 0.89719 0.0
C1001 C 0.67647 0.20983 0.84852 0.0
C1002 C 0.65338 0.21372 0.8749 0.0
C1003 C 0.70294 0.18371 0.84817 0.0
C1004 C 0.70746 0.16017 0.87412 0.0
H1005 H 0.67555 0.22863 0.82878 0.0
H1006 H 0.72146 0.18336 0.82822 0.0
S1007 S 0.65213 0.15694 0.94781 0.0
N1008 N 0.63505 0.18999 0.92668 0.0
N1009 N 0.68492 0.1406 0.92593 0.0
C1010 C 0.68286 0.16182 0.89956 0.0
C1011 C 0.65576 0.18867 0.89997 0.0
C1012 C 0.83037 0.35708 0.67764 0.0
C1013 C 0.82645 0.38045 0.65145 0.0
C1014 C 0.85582 0.33003 0.6773 0.0
C1015 C 0.87856 0.32534 0.65085 0.0
H1016 H 0.8119 0.35811 0.69761 0.0
H1017 H 0.85618 0.31121 0.69704 0.0
S1018 S 0.88162 0.38151 0.57765 0.0
N1019 N 0.84942 0.39903 0.59948 0.0
N1020 N 0.89769 0.34811 0.59898 0.0
C1021 C 0.87709 0.35032 0.62571 0.0
C1022 C 0.8509 0.37797 0.62599 0.0
C1023 C 0.70706 0.85314 0.67611 0.0
C1024 C 0.71128 0.87709 0.65045 0.0
C1025 C 0.68044 0.82728 0.67568 0.0
C1026 C 0.65692 0.82413 0.64951 0.0
H1027 H 0.72584 0.85305 0.6959 0.0
H1028 H 0.67963 0.80817 0.69518 0.0
S1029 S 0.65469 0.8823 0.57755 0.0
N1030 N 0.68797 0.89792 0.59926 0.0
N1031 N 0.63779 0.84897 0.59838 0.0
C1032 C 0.65901 0.8496 0.62481 0.0
C1033 C 0.68626 0.87617 0.62529 0.0
C1034 C 0.17703 0.70685 0.67477 0.0
C1035 C 0.15345 0.70948 0.6487 0.0
C1036 C 0.20378 0.68092 0.67535 0.0
C1037 C 0.20803 0.65661 0.64984 0.0
H1038 H 0.17651 0.72666 0.69369 0.0
H1039 H 0.22273 0.68135 0.69498 0.0
S1040 S 0.15153 0.65116 0.57691 0.0
N1041 N 0.13468 0.68466 0.59758 0.0
N1042 N 0.1847 0.63549 0.59876 0.0
C1043 C 0.18299 0.65737 0.62471 0.0
C1044 C 0.15584 0.68404 0.62405 0.0
C1045 C 0.35205 0.21259 0.67673 0.0
C1046 C 0.37799 0.21464 0.65249 0.0
C1047 C 0.32515 0.1871 0.67561 0.0
C1048 C 0.32306 0.16246 0.65026 0.0
H1049 H 0.35128 0.23226 0.69578 0.0
H1050 H 0.30462 0.18795 0.69386 0.0
S1051 S 0.3865 0.15401 0.58256 0.0
N1052 N 0.40173 0.18784 0.60379 0.0
N1053 N 0.35097 0.13956 0.6018 0.0
C1054 C 0.35041 0.16221 0.62724 0.0
C1055 C 0.37797 0.1884 0.62834 0.0
C1056 C 0.14476 0.0511 0.13059 0.0
C1057 C 0.1815 0.04596 0.12599 0.0
C1058 C 0.12962 0.08506 0.12994 0.0
C1059 C 0.15029 0.11536 0.12395 0.0
H1060 H 0.12766 0.02898 0.13662 0.0
H1061 H 0.10174 0.08782 0.1358 0.0
S1062 S 0.24658 0.11659 0.10589 0.0
N1063 N 0.23748 0.07421 0.11192 0.0
N1064 N 0.20865 0.13802 0.11026 0.0
C1065 C 0.18639 0.11056 0.11662 0.0
C1066 C 0.20206 0.07589 0.11772 0.0
C1067 C 0.99094 0.14242 0.139 0.0
C1068 C 0.99628 0.17887 0.13269 0.0
C1069 C 0.95697 0.12727 0.13854 0.0
C1070 C 0.9268 0.14756 0.13101 0.0
H1071 H 1.01297 0.12557 0.1459 0.0
H1072 H 0.95415 0.09961 0.14524 0.0
S1073 S 0.92588 0.24325 0.10993 0.0
N1074 N 0.96814 0.23434 0.1167 0.0
N1075 N 0.90441 0.20551 0.1153 0.0
C1076 C 0.93174 0.18345 0.12275 0.0
C1077 C 0.96639 0.19916 0.12372 0.0
C1078 C 0.91393 0.95459 0.1413 0.0
C1079 C 0.89456 0.92475 0.1312 0.0
C1080 C 0.89863 0.98847 0.14187 0.0
C1081 C 0.86293 0.99405 0.13292 0.0
H1082 H 0.94086 0.95154 0.15006 0.0
H1083 H 0.91463 1.01013 0.15099 0.0
S1084 S 0.80182 0.92513 0.10116 0.0
N1085 N 0.83878 0.90326 0.10919 0.0
N1086 N 0.8097 0.96699 0.11063 0.0
C1087 C 0.84386 0.96473 0.12089 0.0
C1088 C 0.85973 0.93011 0.11992 0.0
C1089 C 0.11153 0.8564 0.12261 0.0
C1090 C 0.11624 0.89321 0.12647 0.0
C1091 C 0.07753 0.84102 0.12421 0.0
C1092 C 0.04702 0.86195 0.12952 0.0
H1093 H 0.1344 0.83911 0.12059 0.0
H1094 H 0.07546 0.81237 0.12297 0.0
S1095 S 0.04531 0.96055 0.13557 0.0
N1096 N 0.08778 0.95056 0.13219 0.0
N1097 N 0.02398 0.92232 0.13417 0.0
C1098 C 0.05143 0.89919 0.13068 0.0
C1099 C 0.086 0.91462 0.12949 0.0
C1100 C 0.14367 0.98621 0.38689 0.0
C1101 C 0.18007 0.99069 0.3939 0.0
C1102 C 0.12796 0.95256 0.38623 0.0
C1103 C 0.1476 0.92184 0.39326 0.0
H1104 H 0.12734 1.00869 0.38013 0.0
H1105 H 0.10041 0.95047 0.37899 0.0
S1106 S 0.24236 0.91886 0.41753 0.0
N1107 N 0.23442 0.96141 0.41114 0.0
N1108 N 0.20455 0.89811 0.41052 0.0
C1109 C 0.18325 0.92595 0.40278 0.0
C1110 C 0.19953 0.96034 0.40296 0.0
C1111 C 0.07705 0.19497 0.4001 0.0
C1112 C 0.04656 0.17438 0.39375 0.0
C1113 C 0.11133 0.18001 0.39915 0.0
C1114 C 0.11646 0.14397 0.39144 0.0
H1115 H 0.07463 0.22321 0.40448 0.0
H1116 H 0.13401 0.19723 0.40263 0.0
S1117 S 0.04611 0.07729 0.37671 0.0
N1118 N 0.02434 0.11473 0.38275 0.0
N1119 N 0.0885 0.08739 0.38029 0.0
C1120 C 0.08635 0.1227 0.38683 0.0
C1121 C 0.05152 0.13765 0.38822 0.0
C1122 C 0.8362 0.07781 0.39522 0.0
C1123 C 0.85741 0.04691 0.39545 0.0
C1124 C 0.85154 0.11198 0.39507 0.0
C1125 C 0.88862 0.11647 0.39487 0.0
H1126 H 0.80761 0.0757 0.39339 0.0
H1127 H 0.83431 0.1349 0.39301 0.0
S1128 S 0.95593 0.04508 0.40051 0.0
N1129 N 0.91767 0.02383 0.39983 0.0
N1130 N 0.94596 0.0877 0.39834 0.0
C1131 C 0.90997 0.08609 0.39716 0.0
C1132 C 0.89452 0.05144 0.39785 0.0
C1133 C 0.95391 0.91044 0.38967 0.0
C1134 C 0.923 0.89032 0.39425 0.0
C1135 C 0.98759 0.89457 0.39025 0.0
C1136 C 0.99195 0.85759 0.39461 0.0
H1137 H 0.952 0.9386 0.38459 0.0
H1138 H 1.01029 0.91144 0.38565 0.0
S1139 S 0.91913 0.79329 0.40944 0.0
N1140 N 0.8987 0.83181 0.40523 0.0
N1141 N 0.96191 0.80173 0.40558 0.0
C1142 C 0.96121 0.83739 0.40071 0.0
C1143 C 0.92682 0.85378 0.40066 0.0
C1144 C 0.83662 0.96738 0.89289 0.0
C1145 C 0.85851 0.99763 0.89146 0.0
C1146 C 0.85096 0.93305 0.89301 0.0
C1147 C 0.88789 0.92731 0.89163 0.0
H1148 H 0.80801 0.97002 0.89234 0.0
H1149 H 0.83271 0.91086 0.89257 0.0
S1150 S 0.95708 0.99719 0.89386 0.0
N1151 N 0.91929 1.0194 0.89328 0.0
N1152 N 0.94613 0.95479 0.89326 0.0
C1153 C 0.91017 0.95721 0.89268 0.0
C1154 C 0.89554 0.99231 0.89268 0.0
C1155 C 0.04717 0.89585 0.87534 0.0
C1156 C 0.04065 0.86201 0.88857 0.0
C1157 C 0.08115 0.91085 0.87526 0.0
C1158 C 0.11048 0.89292 0.88853 0.0
H1159 H 0.02601 0.9105 0.86368 0.0
H1160 H 0.08464 0.93629 0.86351 0.0
S1161 S 0.1073 0.80556 0.92995 0.0
N1162 N 0.06598 0.8124 0.91817 0.0
N1163 N 0.13006 0.84072 0.91819 0.0
C1164 C 0.10404 0.86019 0.90402 0.0
C1165 C 0.06913 0.84474 0.90403 0.0
C1166 C 0.12555 0.08755 0.88452 0.0
C1167 C 0.14606 0.11742 0.89267 0.0
C1168 C 0.14006 0.05325 0.88452 0.0
C1169 C 0.17606 0.04718 0.8921 0.0
H1170 H 0.09825 0.09086 0.87686 0.0
H1171 H 0.12318 0.03157 0.87688 0.0
S1172 S 0.24041 0.11623 0.91807 0.0
N1173 N 0.20346 0.13854 0.91107 0.0
N1174 N 0.23107 0.07416 0.9107 0.0
C1175 C 0.19638 0.07667 0.90212 0.0
C1176 C 0.18133 0.1117 0.9025 0.0
C1177 C 0.92695 0.18741 0.89919 0.0
C1178 C 0.92127 0.15144 0.89148 0.0
C1179 C 0.96144 0.20204 0.89939 0.0
C1180 C 0.99157 0.18113 0.89233 0.0
H1181 H 0.9045 0.20483 0.90317 0.0
H1182 H 0.96429 0.23024 0.90378 0.0
S1183 S 0.99072 0.08431 0.87448 0.0
N1184 N 0.94853 0.09481 0.87903 0.0
N1185 N 1.01294 0.12139 0.88057 0.0
C1186 C 0.9861 0.14453 0.88679 0.0
C1187 C 0.95111 0.12998 0.88601 0.0
C1188 C 0.83702 0.07167 0.6252 0.0
C1189 C 0.85917 0.04171 0.62928 0.0
C1190 C 0.85096 0.10637 0.62472 0.0
C1191 C 0.88753 0.11243 0.62847 0.0
H1192 H 0.8085 0.06853 0.62406 0.0
H1193 H 0.83277 0.12862 0.62364 0.0
S1194 S 0.95756 0.04369 0.63472 0.0
N1195 N 0.92026 0.0209 0.63283 0.0
N1196 N 0.94591 0.08591 0.63288 0.0
C1197 C 0.91011 0.08285 0.63034 0.0
C1198 C 0.89611 0.04758 0.63041 0.0
C1199 C 0.95423 0.90765 0.6402 0.0
C1200 C 0.9246 0.88742 0.6309 0.0
C1201 C 0.98861 0.89354 0.63926 0.0
C1202 C 0.99511 0.85842 0.62912 0.0
H1203 H 0.95071 0.93427 0.64958 0.0
H1204 H 1.0102 0.90986 0.64807 0.0
S1205 S 0.92712 0.79499 0.5999 0.0
N1206 N 0.90428 0.83109 0.609 0.0
N1207 N 0.9691 0.80444 0.60753 0.0
C1208 C 0.96607 0.83854 0.61778 0.0
C1209 C 0.9308 0.85305 0.61862 0.0
C1210 C 0.12667 0.95621 0.63983 0.0
C1211 C 0.14724 0.92677 0.63055 0.0
C1212 C 0.14116 0.99046 0.64077 0.0
C1213 C 0.17693 0.99678 0.63257 0.0
H1214 H 0.09962 0.95268 0.648 0.0
H1215 H 0.1245 1.01182 0.64951 0.0
S1216 S 0.24021 0.92988 0.60084 0.0
N1217 N 0.20386 0.90705 0.60861 0.0
N1218 N 0.23107 0.97134 0.61066 0.0
C1219 C 0.19697 0.96806 0.62084 0.0
C1220 C 0.18215 0.93314 0.61975 0.0
C1221 C 0.10319 0.18042 0.62133 0.0
C1222 C 0.11034 0.14521 0.63052 0.0
C1223 C 0.06855 0.19438 0.62319 0.0
C1224 C 0.0398 0.1736 0.63416 0.0
H1225 H 0.12476 0.19796 0.61477 0.0
H1226 H 0.06465 0.22214 0.61735 0.0
S1227 S 0.04466 0.07818 0.65701 0.0
N1228 N 0.08583 0.08889 0.64781 0.0
N1229 N 0.02107 0.11457 0.65125 0.0
C1230 C 0.04652 0.13753 0.64113 0.0
C1231 C 0.08168 0.12353 0.63935 0.0
C1232 C 0.69344 0.57214 0.62345 0.0
C1233 C 0.67389 0.54222 0.6336 0.0
C1234 C 0.67805 0.60631 0.62262 0.0
C1235 C 0.64266 0.61188 0.63229 0.0
H1236 H 0.7212 0.56943 0.61722 0.0
H1237 H 0.69458 0.62872 0.61618 0.0
S1238 S 0.57891 0.5427 0.65818 0.0
N1239 N 0.61595 0.52077 0.65109 0.0
N1240 N 0.58788 0.58457 0.65002 0.0
C1241 C 0.62242 0.58211 0.6409 0.0
C1242 C 0.63776 0.54744 0.6414 0.0
C1243 C 0.42578 0.68322 0.62197 0.0
C1244 C 0.4204 0.647 0.62887 0.0
C1245 C 0.46012 0.69821 0.62254 0.0
C1246 C 0.49032 0.67741 0.62965 0.0
H1247 H 0.40319 0.70052 0.61818 0.0
H1248 H 0.46277 0.72655 0.61885 0.0
S1249 S 0.49017 0.58017 0.64534 0.0
N1250 N 0.44798 0.59037 0.64041 0.0
N1251 N 0.5121 0.61757 0.64025 0.0
C1252 C 0.48514 0.6406 0.63417 0.0
C1253 C 0.45034 0.62569 0.63415 0.0
C1254 C 0.3373 0.46193 0.62725 0.0
C1255 C 0.35801 0.49312 0.62841 0.0
C1256 C 0.35317 0.42806 0.62633 0.0
C1257 C 0.3903 0.42412 0.62685 0.0
H1258 H 0.30866 0.46352 0.62882 0.0
H1259 H 0.33629 0.40482 0.62747 0.0
S1260 S 0.45643 0.49638 0.6238 0.0
N1261 N 0.41788 0.51716 0.62503 0.0
N1262 N 0.44715 0.45361 0.62467 0.0
C1263 C 0.41116 0.45478 0.62573 0.0
C1264 C 0.39518 0.48921 0.6261 0.0
C1265 C 0.61035 0.35079 0.62675 0.0
C1266 C 0.61567 0.38773 0.62712 0.0
C1267 C 0.57594 0.33635 0.62775 0.0
C1268 C 0.54567 0.3584 0.62907 0.0
H1269 H 0.6329 0.33299 0.62799 0.0
H1270 H 0.57322 0.30778 0.62937 0.0
S1271 S 0.54612 0.45701 0.62482 0.0
N1272 N 0.58847 0.4459 0.62516 0.0
N1273 N 0.5239 0.41929 0.62607 0.0
C1274 C 0.55094 0.39541 0.62668 0.0
C1275 C 0.58589 0.40993 0.62605 0.0
C1276 C 0.68273 0.43055 0.89569 0.0
C1277 C 0.64577 0.42635 0.89261 0.0
C1278 C 0.69847 0.4645 0.89528 0.0
C1279 C 0.67777 0.49556 0.89212 0.0
H1280 H 0.69979 0.4074 0.89648 0.0
H1281 H 0.72713 0.46625 0.89594 0.0
S1282 S 0.5792 0.49859 0.8884 0.0
N1283 N 0.58875 0.45582 0.88946 0.0
N1284 N 0.61765 0.51939 0.8899 0.0
C1285 C 0.64051 0.49151 0.89145 0.0
C1286 C 0.62471 0.45702 0.8913 0.0
C1287 C 0.55192 0.64653 0.88728 0.0
C1288 C 0.54698 0.68334 0.89205 0.0
C1289 C 0.58578 0.63106 0.88774 0.0
C1290 C 0.6163 0.6514 0.89374 0.0
H1291 H 0.52964 0.62953 0.88152 0.0
H1292 H 0.5882 0.60306 0.88212 0.0
S1293 S 0.61834 0.74797 0.91118 0.0
N1294 N 0.57587 0.7392 0.90546 0.0
N1295 N 0.63944 0.7098 0.90688 0.0
C1296 C 0.61179 0.68769 0.90074 0.0
C1297 C 0.57721 0.70371 0.89978 0.0
C1298 C 0.35328 0.61537 0.89527 0.0
C1299 C 0.39044 0.61912 0.89479 0.0
C1300 C 0.33727 0.5816 0.89629 0.0
C1301 C 0.35787 0.55032 0.89716 0.0
H1302 H 0.33647 0.63858 0.89286 0.0
H1303 H 0.30864 0.58003 0.89462 0.0
S1304 S 0.45642 0.54692 0.90206 0.0
N1305 N 0.44726 0.5896 0.89874 0.0
N1306 N 0.41777 0.52628 0.90197 0.0
C1307 C 0.39512 0.55421 0.89928 0.0
C1308 C 0.41125 0.58852 0.89765 0.0
C1309 C 0.42517 0.35938 0.90167 0.0
C1310 C 0.42041 0.39559 0.89434 0.0
C1311 C 0.45929 0.34398 0.90209 0.0
C1312 C 0.48986 0.36437 0.89563 0.0
H1313 H 0.40231 0.34239 0.9051 0.0
H1314 H 0.46152 0.31565 0.90606 0.0
S1315 S 0.49122 0.46156 0.87935 0.0
N1316 N 0.44882 0.4519 0.88332 0.0
N1317 N 0.5126 0.42391 0.88514 0.0
C1318 C 0.48525 0.40123 0.89072 0.0
C1319 C 0.45066 0.41656 0.88976 0.0
C1320 C 0.39694 0.48569 0.38766 0.0
C1321 C 0.36016 0.49062 0.39239 0.0
C1322 C 0.41237 0.45183 0.38831 0.0
C1323 C 0.392 0.42138 0.39443 0.0
H1324 H 0.41392 0.50795 0.38179 0.0
H1325 H 0.44034 0.44934 0.38271 0.0
S1326 S 0.29553 0.41941 0.41192 0.0
N1327 N 0.30432 0.46186 0.40598 0.0
N1328 N 0.33367 0.39829 0.40774 0.0
C1329 C 0.35576 0.42591 0.40147 0.0
C1330 C 0.33979 0.46048 0.40034 0.0
C1331 C 0.61254 0.35073 0.39149 0.0
C1332 C 0.61815 0.38766 0.38887 0.0
C1333 C 0.57825 0.3363 0.3933 0.0
C1334 C 0.54792 0.3581 0.39256 0.0
H1335 H 0.63476 0.33249 0.39079 0.0
H1336 H 0.5756 0.30767 0.39373 0.0
S1337 S 0.54801 0.4569 0.39124 0.0
N1338 N 0.59037 0.44595 0.38944 0.0
N1339 N 0.52607 0.41903 0.39299 0.0
C1340 C 0.55321 0.39524 0.39224 0.0
C1341 C 0.58819 0.40993 0.39031 0.0
C1342 C 0.63287 0.58073 0.38153 0.0
C1343 C 0.65174 0.61065 0.39236 0.0
C1344 C 0.64803 0.54677 0.38185 0.0
C1345 C 0.68294 0.54097 0.39285 0.0
H1346 H 0.60654 0.58377 0.37138 0.0
H1347 H 0.63272 0.52503 0.37189 0.0
S1348 S 0.74285 0.60979 0.42636 0.0
N1349 N 0.70644 0.63186 0.41674 0.0
N1350 N 0.73511 0.56784 0.41709 0.0
C1351 C 0.70139 0.57019 0.40576 0.0
C1352 C 0.68578 0.60504 0.40555 0.0
C1353 C 0.43233 0.67915 0.39751 0.0
C1354 C 0.42688 0.64267 0.39214 0.0
C1355 C 0.46667 0.69392 0.39695 0.0
C1356 C 0.49695 0.67271 0.39132 0.0
H1357 H 0.40979 0.69678 0.40011 0.0
H1358 H 0.46926 0.72242 0.39949 0.0
S1359 S 0.49672 0.57453 0.38079 0.0
N1360 N 0.45441 0.58518 0.38417 0.0
N1361 N 0.51878 0.61221 0.38409 0.0
C1362 C 0.49176 0.63568 0.38832 0.0
C1363 C 0.45682 0.62089 0.38842 0.0
C1364 C 0.39855 0.55154 0.13255 0.0
C1365 C 0.36163 0.54693 0.12866 0.0
C1366 C 0.41421 0.58522 0.13132 0.0
C1367 C 0.3939 0.61583 0.12549 0.0
H1368 H 0.4155 0.52918 0.13828 0.0
H1369 H 0.44233 0.58748 0.13639 0.0
S1370 S 0.29708 0.61848 0.10955 0.0
N1371 N 0.3057 0.57602 0.1157 0.0
N1372 N 0.33544 0.63932 0.11294 0.0
C1373 C 0.35748 0.61156 0.11905 0.0
C1374 C 0.3413 0.57715 0.12072 0.0
C1375 C 0.43662 0.36155 0.12539 0.0
C1376 C 0.43006 0.39688 0.13476 0.0
C1377 C 0.47091 0.34665 0.12776 0.0
C1378 C 0.49998 0.36654 0.13943 0.0
H1379 H 0.41482 0.34469 0.11801 0.0
H1380 H 0.47432 0.31895 0.12149 0.0
S1381 S 0.49679 0.46156 0.16397 0.0
N1382 N 0.45566 0.45214 0.15358 0.0
N1383 N 0.51956 0.42469 0.15816 0.0
C1384 C 0.49383 0.40258 0.14705 0.0
C1385 C 0.45908 0.41755 0.14469 0.0
C1386 C 0.70185 0.46761 0.12529 0.0
C1387 C 0.67992 0.49766 0.12952 0.0
C1388 C 0.68782 0.433 0.12585 0.0
C1389 C 0.65143 0.42719 0.13092 0.0
H1390 H 0.73031 0.47063 0.12312 0.0
H1391 H 0.70589 0.41067 0.12442 0.0
S1392 S 0.58179 0.49611 0.1381 0.0
N1393 N 0.61903 0.51877 0.13462 0.0
N1394 N 0.59329 0.45383 0.1367 0.0
C1395 C 0.62897 0.45678 0.13301 0.0
C1396 C 0.64302 0.49197 0.13193 0.0
C1397 C 0.55462 0.64588 0.12608 0.0
C1398 C 0.54902 0.68263 0.12176 0.0
C1399 C 0.58881 0.63133 0.12633 0.0
C1400 C 0.61891 0.65263 0.12155 0.0
H1401 H 0.53264 0.62833 0.13137 0.0
H1402 H 0.59182 0.6034 0.132 0.0
S1403 S 0.61906 0.74912 0.10397 0.0
N1404 N 0.57669 0.73924 0.10874 0.0
N1405 N 0.64101 0.71151 0.10881 0.0
C1406 C 0.61376 0.68872 0.11428 0.0
C1407 C 0.57882 0.70379 0.11446 0.0
C1408 C 1.01586 0.27794 0.24062 0.0
C1409 C 0.04819 0.2597 0.23641 0.0
C1410 C 0.99848 0.27805 0.2708 0.0
C1411 C 1.01313 0.26005 0.29742 0.0
H1412 H 1.00241 0.28926 0.21998 0.0
H1413 H 0.97212 0.28937 0.27248 0.0
S1414 S 0.09819 0.21111 0.29963 0.0
N1415 N 0.09486 0.22554 0.26223 0.0
N1416 N 0.06289 0.22656 0.31835 0.0
C1417 C 0.04673 0.2446 0.29404 0.0
C1418 C 0.06405 0.24415 0.26364 0.0
C1419 C 0.77642 0.9833 0.26435 0.0
C1420 C 0.77388 1.00297 0.29301 0.0
C1421 C 0.77726 1.0002 0.23417 0.0
C1422 C 0.77477 0.03736 0.23161 0.0
H1423 H 0.7806 0.95494 0.26546 0.0
H1424 H 0.78266 0.98436 0.21295 0.0
S1425 S 0.76243 0.10029 0.29924 0.0
N1426 N 0.76546 0.06108 0.31685 0.0
N1427 N 0.76549 0.09281 0.26011 0.0
C1428 C 0.76876 0.05692 0.2599 0.0
C1429 C 0.76862 0.03974 0.29065 0.0
C1430 C 0.98157 0.78144 0.25927 0.0
C1431 C 1.00158 0.77329 0.23178 0.0
C1432 C 0.99681 0.78122 0.28997 0.0
C1433 C 0.03281 0.77299 0.29423 0.0
H1434 H 0.9549 0.79143 0.25668 0.0
H1435 H 0.98117 0.79071 0.31011 0.0
S1436 S 0.09637 0.74764 0.2303 0.0
N1437 N 0.05873 0.75471 0.21086 0.0
N1438 N 0.08769 0.75419 0.26885 0.0
C1439 C 0.05257 0.76213 0.2673 0.0
C1440 C 0.03691 0.76239 0.2359 0.0
C1441 C 0.25704 0.99442 0.2884 0.0
C1442 C 0.26594 0.03025 0.29306 0.0
C1443 C 0.25685 0.97937 0.25756 0.0
C1444 C 0.26569 0.99934 0.23018 0.0
H1445 H 0.24717 0.97875 0.30836 0.0
H1446 H 0.24653 0.95284 0.25477 0.0
S1447 S 0.29252 0.0939 0.22952 0.0
N1448 N 0.28558 0.08502 0.26798 0.0
N1449 N 0.2851 0.05648 0.20981 0.0
C1450 C 0.27691 0.03455 0.23466 0.0
C1451 C 0.27715 0.05003 0.26622 0.0
C1452 C 0.03202 0.78165 0.78901 0.0
C1453 C 0.99493 0.78523 0.78725 0.0
C1454 C 0.05273 0.78157 0.76101 0.0
C1455 C 0.03691 0.78406 0.73043 0.0
H1456 H 0.04536 0.78189 0.81212 0.0
H1457 H 0.08137 0.78159 0.76335 0.0
S1458 S 0.94062 0.78925 0.71286 0.0
N1459 N 0.94309 0.78802 0.75254 0.0
N1460 N 0.98195 0.78685 0.69988 0.0
C1461 C 0.99974 0.78445 0.72829 0.0
C1462 C 0.97873 0.78532 0.75677 0.0
C1463 C 0.24607 0.06247 0.76142 0.0
C1464 C 0.2629 0.04726 0.7346 0.0
C1465 C 0.24602 0.04561 0.79131 0.0
C1466 C 0.26221 1.01235 0.7955 0.0
H1467 H 0.22969 0.08583 0.75855 0.0
H1468 H 0.23008 0.05702 0.81042 0.0
S1469 S 0.31512 0.96392 0.73453 0.0
N1470 N 0.30049 0.99944 0.7152 0.0
N1471 N 0.29988 0.96704 0.77175 0.0
C1472 C 0.28236 0.99847 0.76995 0.0
C1473 C 0.28271 1.01605 0.73928 0.0
C1474 C 0.02479 0.27926 0.73838 0.0
C1475 C 0.99233 0.26092 0.73569 0.0
C1476 C 0.0426 0.28164 0.76833 0.0
C1477 C 0.02779 0.26666 0.79637 0.0
H1478 H 0.03807 0.28866 0.7169 0.0
H1479 H 0.06932 0.29218 0.76893 0.0
S1480 S 0.94298 0.21823 0.80256 0.0
N1481 N 0.94655 0.22841 0.76406 0.0
N1482 N 0.97776 0.23626 0.82005 0.0
C1483 C 0.99388 0.25175 0.79433 0.0
C1484 C 0.97681 0.24782 0.76404 0.0
C1485 C 0.7956 0.03854 0.73257 0.0
C1486 C 0.77615 1.00726 0.72764 0.0
C1487 C 0.79583 0.05551 0.76229 0.0
C1488 C 0.77529 0.04334 0.78821 0.0
H1489 H 0.81366 0.04813 0.71421 0.0
H1490 H 0.81489 0.07662 0.76577 0.0
S1491 S 0.71533 0.96545 0.78654 0.0
N1492 N 0.733 0.96626 0.75011 0.0
N1493 N 0.73199 0.99987 0.80614 0.0
C1494 C 0.75277 1.01414 0.78284 0.0
C1495 C 0.75333 0.99588 0.75239 0.0
C1496 C 0.47984 0.76293 0.76152 0.0
C1497 C 0.50013 0.76711 0.78959 0.0
C1498 C 0.4958 0.76254 0.73104 0.0
C1499 C 0.53256 0.76735 0.72761 0.0
H1500 H 0.45189 0.75724 0.7634 0.0
H1501 H 0.47977 0.75554 0.71032 0.0
S1502 S 0.59617 0.78686 0.79331 0.0
N1503 N 0.55791 0.78096 0.81195 0.0
N1504 N 0.58792 0.78196 0.75444 0.0
C1505 C 0.55246 0.77573 0.75521 0.0
C1506 C 0.53624 0.77526 0.78635 0.0
C1507 C 0.28983 0.56029 0.75916 0.0
C1508 C 0.27323 0.54281 0.73338 0.0
C1509 C 0.28937 0.5464 0.79024 0.0
C1510 C 0.27305 0.51375 0.79683 0.0
H1511 H 0.3062 0.58326 0.75481 0.0
H1512 H 0.3049 0.55967 0.80864 0.0
S1513 S 0.22244 0.45888 0.73872 0.0
N1514 N 0.23678 0.4928 0.71705 0.0
N1515 N 0.2367 0.46576 0.77587 0.0
C1516 C 0.25368 0.49724 0.77202 0.0
C1517 C 0.25374 0.51189 0.7401 0.0
C1518 C 0.55355 0.27926 0.76713 0.0
C1519 C 0.53282 0.27631 0.7951 0.0
C1520 C 0.53785 0.27989 0.73644 0.0
C1521 C 0.50092 0.27666 0.73269 0.0
H1522 H 0.58177 0.28392 0.76916 0.0
H1523 H 0.55438 0.28553 0.71574 0.0
S1524 S 0.43567 0.26296 0.79816 0.0
N1525 N 0.47407 0.26675 0.81705 0.0
N1526 N 0.44458 0.26626 0.7593 0.0
C1527 C 0.48036 0.27021 0.76028 0.0
C1528 C 0.49631 0.27036 0.79157 0.0
C1529 C 0.77652 0.52991 0.73635 0.0
C1530 C 0.76149 0.49578 0.73382 0.0
C1531 C 0.77702 0.54804 0.76613 0.0
C1532 C 0.76262 0.53237 0.79398 0.0
H1533 H 0.78479 0.54388 0.71485 0.0
H1534 H 0.78565 0.57546 0.7667 0.0
S1535 S 0.72303 0.4429 0.80051 0.0
N1536 N 0.73449 0.44646 0.7623 0.0
N1537 N 0.73583 0.4802 0.81769 0.0
C1538 C 0.75047 0.49732 0.79212 0.0
C1539 C 0.74975 0.47911 0.76213 0.0
C1540 C 0.49389 0.2623 0.26784 0.0
C1541 C 0.51033 0.27282 0.29675 0.0
C1542 C 0.51236 0.2637 0.2383 0.0
C1543 C 0.54769 0.27575 0.23701 0.0
H1544 H 0.46584 0.25616 0.26761 0.0
H1545 H 0.49797 0.25859 0.2162 0.0
S1546 S 0.60311 0.30286 0.30652 0.0
N1547 N 0.56452 0.29231 0.32258 0.0
N1548 N 0.59882 0.29553 0.26751 0.0
C1549 C 0.56494 0.28347 0.26614 0.0
C1550 C 0.54638 0.28177 0.29595 0.0
C1551 C 0.7806 0.51616 0.23847 0.0
C1552 C 0.75682 0.54472 0.23478 0.0
C1553 C 0.78137 0.49632 0.2673 0.0
C1554 C 0.75919 0.50532 0.29332 0.0
H1555 H 0.79635 0.50729 0.21821 0.0
H1556 H 0.79778 0.47275 0.26858 0.0
S1557 S 0.69361 0.57834 0.29634 0.0
N1558 N 0.71118 0.58094 0.26005 0.0
N1559 N 0.71462 0.54542 0.31427 0.0
C1560 C 0.7374 0.53523 0.29063 0.0
C1561 C 0.73573 0.55453 0.26132 0.0
C1562 C 0.54458 0.74129 0.23145 0.0
C1563 C 0.513 0.76007 0.22584 0.0
C1564 C 0.55945 0.73949 0.26205 0.0
C1565 C 0.54465 0.75771 0.28826 0.0
H1566 H 0.55602 0.72486 0.21269 0.0
H1567 H 0.58087 0.72094 0.26576 0.0
S1568 S 0.46478 0.81499 0.28555 0.0
N1569 N 0.46883 0.80005 0.24828 0.0
N1570 N 0.49845 0.79817 0.3061 0.0
C1571 C 0.51508 0.77962 0.28251 0.0
C1572 C 0.49903 0.78067 0.25112 0.0
C1573 C 0.28023 0.54219 0.23239 0.0
C1574 C 0.27342 0.50574 0.22873 0.0
C1575 C 0.28019 0.5581 0.26289 0.0
C1576 C 0.27357 0.53814 0.2908 0.0
H1577 H 0.28886 0.55779 0.21192 0.0
H1578 H 0.28864 0.58543 0.26495 0.0
S1579 S 0.25047 0.4427 0.29388 0.0
N1580 N 0.25638 0.45086 0.25514 0.0
N1581 N 0.25691 0.48084 0.31269 0.0
C1582 C 0.26374 0.50241 0.28726 0.0
C1583 C 0.26349 0.48619 0.25608 0.0
C1584 C 0.07807 0.25327 0.99524 0.0
C1585 C 0.10866 0.24496 0.97722 0.0
C1586 C 0.07846 0.25312 0.02902 0.0
C1587 C 0.10947 0.24468 0.0463 0.0
H1588 H 0.05345 0.25994 0.9832 0.0
H1589 H 0.05418 0.25965 0.04163 0.0
S1590 S 0.19656 0.21969 1.01074 0.0
N1591 N 0.17074 0.22729 0.97942 0.0
N1592 N 0.17156 0.22697 0.04263 0.0
C1593 C 0.14029 0.23625 0.02859 0.0
C1594 C 0.13987 0.2364 0.9942 0.0
C1595 C 0.79488 0.13863 0.02868 0.0
C1596 C 0.79833 0.10652 0.04585 0.0
C1597 C 0.79363 0.1392 0.99489 0.0
C1598 C 0.79575 0.10768 0.97675 0.0
H1599 H 0.79298 0.16366 0.04141 0.0
H1600 H 0.79086 0.16461 0.98295 0.0
S1601 S 0.80674 1.01654 1.00988 0.0
N1602 N 0.80494 0.04237 0.0419 0.0
N1603 N 0.80264 0.04337 0.97871 0.0
C1604 C 0.79946 0.07536 0.99362 0.0
C1605 C 0.80073 0.0748 0.02801 0.0
C1606 C 0.90055 0.81115 0.99604 0.0
C1607 C 0.92974 0.80118 0.97701 0.0
C1608 C 0.90215 0.80969 0.02971 0.0
C1609 C 0.93316 0.79862 0.04578 0.0
H1610 H 0.87604 0.81982 0.98488 0.0
H1611 H 0.87889 0.81768 0.0432 0.0
S1612 S 1.01758 0.77103 1.00689 0.0
N1613 N 0.99091 0.78061 0.97659 0.0
N1614 N 0.99412 0.77808 0.03981 0.0
C1615 C 0.96274 0.78892 0.02698 0.0
C1616 C 0.96096 0.79011 0.99266 0.0
C1617 C 0.24808 0.95983 0.99234 0.0
C1618 C 0.24004 0.92876 0.97487 0.0
C1619 C 0.24955 0.95985 0.02602 0.0
C1620 C 0.24309 0.92881 0.04391 0.0
H1621 H 0.25323 0.98461 0.97997 0.0
H1622 H 0.25567 0.98461 0.03807 0.0
S1623 S 0.22046 0.84025 1.01004 0.0
N1624 N 0.22532 0.86597 0.9782 0.0
N1625 N 0.22808 0.86594 0.04148 0.0
C1626 C 0.23517 0.89741 0.02681 0.0
C1627 C 0.23365 0.89741 0.99239 0.0
C1628 C 0.08659 0.78193 0.52766 0.0
C1629 C 0.1142 0.79949 0.544 0.0
C1630 C 0.08567 0.78044 0.49401 0.0
C1631 C 0.11257 0.79604 0.47533 0.0
H1632 H 0.06515 0.76956 0.54089 0.0
H1633 H 0.06368 0.76688 0.48257 0.0
S1634 S 0.19083 0.84532 0.50601 0.0
N1635 N 0.16925 0.83294 0.53868 0.0
N1636 N 0.16751 0.82984 0.47545 0.0
C1637 C 0.14055 0.8134 0.49124 0.0
C1638 C 0.14134 0.81525 0.52554 0.0
C1639 C 0.24293 0.1381 0.49345 0.0
C1640 C 0.24183 0.10586 0.4763 0.0
C1641 C 0.24183 0.13874 0.52729 0.0
C1642 C 0.23957 0.10718 0.54542 0.0
H1643 H 0.24481 0.16311 0.48071 0.0
H1644 H 0.24295 0.16426 0.53927 0.0
S1645 S 0.23401 1.01565 0.51224 0.0
N1646 N 0.23707 0.04144 0.48029 0.0
N1647 N 0.23504 0.04273 0.54341 0.0
C1648 C 0.23809 0.07476 0.52854 0.0
C1649 C 0.2392 0.07408 0.49418 0.0
C1650 C 0.96066 0.23849 0.52959 0.0
C1651 C 0.92863 0.24161 0.54674 0.0
C1652 C 0.96127 0.239 0.49584 0.0
C1653 C 0.92989 0.24267 0.47765 0.0
H1654 H 0.98556 0.23514 0.54227 0.0
H1655 H 0.98668 0.23602 0.48397 0.0
S1656 S 0.83904 0.2538 0.51078 0.0
N1657 N 0.86465 0.24992 0.54281 0.0
N1658 N 0.86587 0.2508 0.47954 0.0
C1659 C 0.89768 0.24638 0.49446 0.0
C1660 C 0.89704 0.24587 0.52889 0.0
C1661 C 0.79246 0.89729 0.4947 0.0
C1662 C 0.79686 0.92934 0.4776 0.0
C1663 C 0.79298 0.89648 0.52861 0.0
C1664 C 0.79795 0.92768 0.54677 0.0
H1665 H 0.78824 0.87264 0.48184 0.0
H1666 H 0.78905 0.87127 0.54063 0.0
S1667 S 0.81399 1.01807 0.51365 0.0
N1668 N 0.8085 0.99276 0.48166 0.0
N1669 N 0.8096 0.99128 0.54478 0.0
C1670 C 0.80319 0.95976 0.52988 0.0
C1671 C 0.8026 0.96058 0.49552 0.0
C1672 C 0.57815 0.7393 0.49304 0.0
C1673 C 0.61047 0.73896 0.47603 0.0
C1674 C 0.57732 0.73939 0.52674 0.0
C1675 C 0.60875 0.73915 0.54504 0.0
H1676 H 0.55308 0.73919 0.48029 0.0
H1677 H 0.55166 0.73936 0.53846 0.0
S1678 S 0.70058 0.73917 0.5124 0.0
N1679 N 0.67491 0.73902 0.48022 0.0
N1680 N 0.67337 0.73922 0.54349 0.0
C1681 C 0.64135 0.73909 0.5284 0.0
C1682 C 0.6422 0.73899 0.49399 0.0
C1683 C 0.29287 0.57632 0.4939 0.0
C1684 C 0.2969 0.60802 0.47627 0.0
C1685 C 0.29143 0.57638 0.52761 0.0
C1686 C 0.29393 0.60815 0.54534 0.0
H1687 H 0.29101 0.55101 0.48163 0.0
H1688 H 0.28859 0.55113 0.53981 0.0
S1689 S 0.3043 0.69871 0.51094 0.0
N1690 N 0.30304 0.67229 0.47928 0.0
N1691 N 0.30033 0.67244 0.54251 0.0
C1692 C 0.29769 0.64016 0.52805 0.0
C1693 C 0.29918 0.64009 0.49364 0.0
C1694 C 0.46177 0.29163 0.52976 0.0
C1695 C 0.4298 0.29404 0.54714 0.0
C1696 C 0.46208 0.29133 0.49605 0.0
C1697 C 0.43043 0.29342 0.4781 0.0
H1698 H 0.48699 0.29035 0.54223 0.0
H1699 H 0.48753 0.2898 0.48403 0.0
S1700 S 0.33928 0.29917 0.51181 0.0
N1701 N 0.36539 0.29783 0.54368 0.0
N1702 N 0.36598 0.29727 0.48042 0.0
C1703 C 0.39816 0.29537 0.49513 0.0
C1704 C 0.39784 0.29568 0.52954 0.0
C1705 C 0.75517 0.45528 0.52815 0.0
C1706 C 0.73984 0.42804 0.54661 0.0
C1707 C 0.75531 0.4537 0.49439 0.0
C1708 C 0.73966 0.42508 0.47773 0.0
H1709 H 0.76762 0.47777 0.53984 0.0
H1710 H 0.76764 0.47527 0.48128 0.0
S1711 S 0.69422 0.34786 0.51507 0.0
N1712 N 0.70753 0.37215 0.54583 0.0
N1713 N 0.70748 0.36928 0.4826 0.0
C1714 C 0.72366 0.39797 0.49599 0.0
C1715 C 0.72386 0.39941 0.53033 0.0
C1716 C 0.63883 0.29737 0.03007 0.0
C1717 C 0.60777 0.30211 0.04851 0.0
C1718 C 0.63785 0.2973 0.99622 0.0
C1719 C 0.60577 0.30195 0.97934 0.0
H1720 H 0.66418 0.29343 0.04183 0.0
H1721 H 0.66243 0.29326 0.98324 0.0
S1722 S 0.51717 0.31781 0.01611 0.0
N1723 N 0.54417 0.31313 0.04709 0.0
N1724 N 0.54227 0.31309 0.98389 0.0
C1725 C 0.57458 0.30724 0.99751 0.0
C1726 C 0.57559 0.30729 0.03191 0.0
C1727 C 0.74698 0.63969 0.99399 0.0
C1728 C 0.74578 0.60767 0.97654 0.0
C1729 C 0.74808 0.63985 0.02775 0.0
C1730 C 0.74804 0.60799 0.04555 0.0
H1731 H 0.74695 0.66496 0.98154 0.0
H1732 H 0.74873 0.66526 0.03994 0.0
S1733 S 0.74461 0.51673 1.01154 0.0
N1734 N 0.74434 0.54305 0.97983 0.0
N1735 N 0.74645 0.5434 0.04297 0.0
C1736 C 0.74701 0.57573 0.02839 0.0
C1737 C 0.74586 0.57556 0.99404 0.0
C1738 C 0.4003 0.74694 0.99295 0.0
C1739 C 0.43214 0.74662 0.97518 0.0
C1740 C 0.40052 0.74678 0.02681 0.0
C1741 C 0.43258 0.74634 0.04426 0.0
H1742 H 0.37495 0.74724 0.98066 0.0
H1743 H 0.37534 0.74698 0.03936 0.0
S1744 S 0.52348 0.74421 1.00927 0.0
N1745 N 0.49674 0.74513 0.97788 0.0
N1746 N 0.49717 0.74483 0.04091 0.0
C1747 C 0.46462 0.74593 0.02671 0.0
C1748 C 0.4644 0.74608 0.9924 0.0
C1749 C 0.29219 0.46146 0.02908 0.0
C1750 C 0.29913 0.42992 0.04614 0.0
C1751 C 0.29012 0.46184 0.9955 0.0
C1752 C 0.29489 0.43069 0.97726 0.0
H1753 H 0.28842 0.48636 0.04169 0.0
H1754 H 0.28495 0.48703 0.98382 0.0
S1755 S 0.3135 0.34078 1.01001 0.0
N1756 N 0.31056 0.36641 0.04213 0.0
N1757 N 0.30673 0.36715 0.97887 0.0
C1758 C 0.30158 0.39879 0.99392 0.0
C1759 C 0.30371 0.3984 0.02831 0.0
loop_
_geom_bond_atom_site_label_1
_geom_bond_atom_site_label_2
_geom_bond_distance
_geom_bond_site_symmetry_2
_ccdc_geom_bond_type
Fe0 O2 1.918 . S
Fe0 O5 1.997 . S
Fe0 O6 2.002 . S
Fe0 O11 1.976 . S
Fe0 O14 1.996 . S
Fe1 O2 1.918 . S
Fe1 O9 1.997 . S
Fe1 O12 1.996 . S
Fe1 O16 1.976 . S
Fe1 O19 2.002 . S
O2 Fe0 1.918 . S
O2 Fe1 1.918 . S
O2 Fe3 1.918 . S
Fe3 O2 1.918 . S
Fe3 O4 2.002 . S
Fe3 O13 1.976 . S
Fe3 O17 1.996 . S
Fe3 O20 1.997 . S
O4 Fe3 2.002 . S
O4 C21 1.295 . S
O5 Fe0 1.997 . S
O5 C21 1.235 . S
O6 Fe0 2.002 . S
O6 C7 1.295 . S
C7 O6 1.295 . S
C7 O9 1.235 . S
C8 O13 1.287 . S
C8 O14 1.255 . S
O9 Fe1 1.997 . S
O9 C7 1.235 . S
C10 O16 1.287 . S
C10 O17 1.255 . S
O11 Fe0 1.976 . S
O11 C18 1.287 . S
O12 Fe1 1.996 . S
O12 C18 1.255 . S
O13 Fe3 1.976 . S
O13 C8 1.287 . S
O14 Fe0 1.996 . S
O14 C8 1.255 . S
C15 O19 1.295 . S
C15 O20 1.235 . S
O16 Fe1 1.976 . S
O16 C10 1.287 . S
O17 Fe3 1.996 . S
O17 C10 1.255 . S
C18 O11 1.287 . S
C18 O12 1.255 . S
O19 Fe1 2.002 . S
O19 C15 1.295 . S
O20 Fe3 1.997 . S
O20 C15 1.235 . S
C21 O4 1.295 . S
C21 O5 1.235 . S
Fe22 O24 1.918 . S
Fe22 O27 1.997 . S
Fe22 O28 2.002 . S
Fe22 O33 1.976 . S
Fe22 O36 1.996 . S
Fe23 O24 1.918 . S
Fe23 O31 1.997 . S
Fe23 O34 1.996 . S
Fe23 O38 1.976 . S
Fe23 O41 2.002 . S
O24 Fe22 1.918 . S
O24 Fe23 1.918 . S
O24 Fe25 1.918 . S
Fe25 O24 1.918 . S
Fe25 O26 2.002 . S
Fe25 O35 1.976 . S
Fe25 O39 1.996 . S
Fe25 O42 1.997 . S
O26 Fe25 2.002 . S
O26 C43 1.295 . S
O27 Fe22 1.997 . S
O27 C43 1.235 . S
O28 Fe22 2.002 . S
O28 C29 1.295 . S
C29 O28 1.295 . S
C29 O31 1.235 . S
C30 O35 1.287 . S
C30 O36 1.255 . S
O31 Fe23 1.997 . S
O31 C29 1.235 . S
C32 O38 1.287 . S
C32 O39 1.255 . S
O33 Fe22 1.976 . S
O33 C40 1.287 . S
O34 Fe23 1.996 . S
O34 C40 1.255 . S
O35 Fe25 1.976 . S
O35 C30 1.287 . S
O36 Fe22 1.996 . S
O36 C30 1.255 . S
C37 O41 1.295 . S
C37 O42 1.235 . S
O38 Fe23 1.976 . S
O38 C32 1.287 . S
O39 Fe25 1.996 . S
O39 C32 1.255 . S
C40 O33 1.287 . S
C40 O34 1.255 . S
O41 Fe23 2.002 . S
O41 C37 1.295 . S
O42 Fe25 1.997 . S
O42 C37 1.235 . S
C43 O26 1.295 . S
C43 O27 1.235 . S
Fe44 O46 1.918 . S
Fe44 O49 1.997 . S
Fe44 O50 2.002 . S
Fe44 O55 1.976 . S
Fe44 O58 1.996 . S
Fe45 O46 1.918 . S
Fe45 O53 1.997 . S
Fe45 O56 1.996 . S
Fe45 O60 1.976 . S
Fe45 O63 2.002 . S
O46 Fe44 1.918 . S
O46 Fe45 1.918 . S
O46 Fe47 1.918 . S
Fe47 O46 1.918 . S
Fe47 O48 2.002 . S
Fe47 O57 1.976 . S
Fe47 O61 1.996 . S
Fe47 O64 1.997 . S
O48 Fe47 2.002 . S
O48 C65 1.295 . S
O49 Fe44 1.997 . S
O49 C65 1.235 . S
O50 Fe44 2.002 . S
O50 C51 1.295 . S
C51 O50 1.295 . S
C51 O53 1.235 . S
C52 O57 1.287 . S
C52 O58 1.255 . S
O53 Fe45 1.997 . S
O53 C51 1.235 . S
C54 O60 1.287 . S
C54 O61 1.255 . S
O55 Fe44 1.976 . S
O55 C62 1.287 . S
O56 Fe45 1.996 . S
O56 C62 1.255 . S
O57 Fe47 1.976 . S
O57 C52 1.287 . S
O58 Fe44 1.996 . S
O58 C52 1.255 . S
C59 O63 1.295 . S
C59 O64 1.235 . S
O60 Fe45 1.976 . S
O60 C54 1.287 . S
O61 Fe47 1.996 . S
O61 C54 1.255 . S
C62 O55 1.287 . S
C62 O56 1.255 . S
O63 Fe45 2.002 . S
O63 C59 1.295 . S
O64 Fe47 1.997 . S
O64 C59 1.235 . S
C65 O48 1.295 . S
C65 O49 1.235 . S
Fe66 O68 1.918 . S
Fe66 O71 1.997 . S
Fe66 O72 2.002 . S
Fe66 O77 1.976 . S
Fe66 O80 1.996 . S
Fe67 O68 1.918 . S
Fe67 O75 1.997 . S
Fe67 O78 1.996 . S
Fe67 O82 1.976 . S
Fe67 O85 2.002 . S
O68 Fe66 1.918 . S
O68 Fe67 1.918 . S
O68 Fe69 1.918 . S
Fe69 O68 1.918 . S
Fe69 O70 2.002 . S
Fe69 O79 1.976 . S
Fe69 O83 1.996 . S
Fe69 O86 1.997 . S
O70 Fe69 2.002 . S
O70 C87 1.295 . S
O71 Fe66 1.997 . S
O71 C87 1.235 . S
O72 Fe66 2.002 . S
O72 C73 1.295 . S
C73 O72 1.295 . S
C73 O75 1.235 . S
C74 O79 1.287 . S
C74 O80 1.255 . S
O75 Fe67 1.997 . S
O75 C73 1.235 . S
C76 O82 1.287 . S
C76 O83 1.255 . S
O77 Fe66 1.976 . S
O77 C84 1.287 . S
O78 Fe67 1.996 . S
O78 C84 1.255 . S
O79 Fe69 1.976 . S
O79 C74 1.287 . S
O80 Fe66 1.996 . S
O80 C74 1.255 . S
C81 O85 1.295 . S
C81 O86 1.235 . S
O82 Fe67 1.976 . S
O82 C76 1.287 . S
O83 Fe69 1.996 . S
O83 C76 1.255 . S
C84 O77 1.287 . S
C84 O78 1.255 . S
O85 Fe67 2.002 . S
O85 C81 1.295 . S
O86 Fe69 1.997 . S
O86 C81 1.235 . S
C87 O70 1.295 . S
C87 O71 1.235 . S
Fe88 O90 1.918 . S
Fe88 O93 1.997 . S
Fe88 O94 2.002 . S
Fe88 O99 1.976 . S
Fe88 O102 1.996 . S
Fe89 O90 1.918 . S
Fe89 O97 1.997 . S
Fe89 O100 1.996 . S
Fe89 O104 1.976 . S
Fe89 O107 2.002 . S
O90 Fe88 1.918 . S
O90 Fe89 1.918 . S
O90 Fe91 1.918 . S
Fe91 O90 1.918 . S
Fe91 O92 2.002 . S
Fe91 O101 1.976 . S
Fe91 O105 1.996 . S
Fe91 O108 1.997 . S
O92 Fe91 2.002 . S
O92 C109 1.295 . S
O93 Fe88 1.997 . S
O93 C109 1.235 . S
O94 Fe88 2.002 . S
O94 C95 1.295 . S
C95 O94 1.295 . S
C95 O97 1.235 . S
C96 O101 1.287 . S
C96 O102 1.255 . S
O97 Fe89 1.997 . S
O97 C95 1.235 . S
C98 O104 1.287 . S
C98 O105 1.255 . S
O99 Fe88 1.976 . S
O99 C106 1.287 . S
O100 Fe89 1.996 . S
O100 C106 1.255 . S
O101 Fe91 1.976 . S
O101 C96 1.287 . S
O102 Fe88 1.996 . S
O102 C96 1.255 . S
C103 O107 1.295 . S
C103 O108 1.235 . S
O104 Fe89 1.976 . S
O104 C98 1.287 . S
O105 Fe91 1.996 . S
O105 C98 1.255 . S
C106 O99 1.287 . S
C106 O100 1.255 . S
O107 Fe89 2.002 . S
O107 C103 1.295 . S
O108 Fe91 1.997 . S
O108 C103 1.235 . S
C109 O92 1.295 . S
C109 O93 1.235 . S
Fe110 O112 1.918 . S
Fe110 O115 1.997 . S
Fe110 O116 2.002 . S
Fe110 O121 1.976 . S
Fe110 O124 1.996 . S
Fe111 O112 1.918 . S
Fe111 O119 1.997 . S
Fe111 O122 1.996 . S
Fe111 O126 1.976 . S
Fe111 O129 2.002 . S
O112 Fe110 1.918 . S
O112 Fe111 1.918 . S
O112 Fe113 1.918 . S
Fe113 O112 1.918 . S
Fe113 O114 2.002 . S
Fe113 O123 1.976 . S
Fe113 O127 1.996 . S
Fe113 O130 1.997 . S
O114 Fe113 2.002 . S
O114 C131 1.295 . S
O115 Fe110 1.997 . S
O115 C131 1.235 . S
O116 Fe110 2.002 . S
O116 C117 1.295 . S
C117 O116 1.295 . S
C117 O119 1.235 . S
C118 O123 1.287 . S
C118 O124 1.255 . S
O119 Fe111 1.997 . S
O119 C117 1.235 . S
C120 O126 1.287 . S
C120 O127 1.255 . S
O121 Fe110 1.976 . S
O121 C128 1.287 . S
O122 Fe111 1.996 . S
O122 C128 1.255 . S
O123 Fe113 1.976 . S
O123 C118 1.287 . S
O124 Fe110 1.996 . S
O124 C118 1.255 . S
C125 O129 1.295 . S
C125 O130 1.235 . S
O126 Fe111 1.976 . S
O126 C120 1.287 . S
O127 Fe113 1.996 . S
O127 C120 1.255 . S
C128 O121 1.287 . S
C128 O122 1.255 . S
O129 Fe111 2.002 . S
O129 C125 1.295 . S
O130 Fe113 1.997 . S
O130 C125 1.235 . S
C131 O114 1.295 . S
C131 O115 1.235 . S
Fe132 O134 1.918 . S
Fe132 O137 1.997 . S
Fe132 O138 2.002 . S
Fe132 O143 1.976 . S
Fe132 O146 1.996 . S
Fe133 O134 1.918 . S
Fe133 O141 1.997 . S
Fe133 O144 1.996 . S
Fe133 O148 1.976 . S
Fe133 O151 2.002 . S
O134 Fe132 1.918 . S
O134 Fe133 1.918 . S
O134 Fe135 1.918 . S
Fe135 O134 1.918 . S
Fe135 O136 2.002 . S
Fe135 O145 1.976 . S
Fe135 O149 1.996 . S
Fe135 O152 1.997 . S
O136 Fe135 2.002 . S
O136 C153 1.295 . S
O137 Fe132 1.997 . S
O137 C153 1.235 . S
O138 Fe132 2.002 . S
O138 C139 1.295 . S
C139 O138 1.295 . S
C139 O141 1.235 . S
C140 O145 1.287 . S
C140 O146 1.255 . S
O141 Fe133 1.997 . S
O141 C139 1.235 . S
C142 O148 1.287 . S
C142 O149 1.255 . S
O143 Fe132 1.976 . S
O143 C150 1.287 . S
O144 Fe133 1.996 . S
O144 C150 1.255 . S
O145 Fe135 1.976 . S
O145 C140 1.287 . S
O146 Fe132 1.996 . S
O146 C140 1.255 . S
C147 O151 1.295 . S
C147 O152 1.235 . S
O148 Fe133 1.976 . S
O148 C142 1.287 . S
O149 Fe135 1.996 . S
O149 C142 1.255 . S
C150 O143 1.287 . S
C150 O144 1.255 . S
O151 Fe133 2.002 . S
O151 C147 1.295 . S
O152 Fe135 1.997 . S
O152 C147 1.235 . S
C153 O136 1.295 . S
C153 O137 1.235 . S
Fe154 O156 1.918 . S
Fe154 O159 1.997 . S
Fe154 O160 2.002 . S
Fe154 O165 1.976 . S
Fe154 O168 1.996 . S
Fe155 O156 1.918 . S
Fe155 O163 1.997 . S
Fe155 O166 1.996 . S
Fe155 O170 1.976 . S
Fe155 O173 2.002 . S
O156 Fe154 1.918 . S
O156 Fe155 1.918 . S
O156 Fe157 1.918 . S
Fe157 O156 1.918 . S
Fe157 O158 2.002 . S
Fe157 O167 1.976 . S
Fe157 O171 1.996 . S
Fe157 O174 1.997 . S
O158 Fe157 2.002 . S
O158 C175 1.295 . S
O159 Fe154 1.997 . S
O159 C175 1.235 . S
O160 Fe154 2.002 . S
O160 C161 1.295 . S
C161 O160 1.295 . S
C161 O163 1.235 . S
C162 O167 1.287 . S
C162 O168 1.255 . S
O163 Fe155 1.997 . S
O163 C161 1.235 . S
C164 O170 1.287 . S
C164 O171 1.255 . S
O165 Fe154 1.976 . S
O165 C172 1.287 . S
O166 Fe155 1.996 . S
O166 C172 1.255 . S
O167 Fe157 1.976 . S
O167 C162 1.287 . S
O168 Fe154 1.996 . S
O168 C162 1.255 . S
C169 O173 1.295 . S
C169 O174 1.235 . S
O170 Fe155 1.976 . S
O170 C164 1.287 . S
O171 Fe157 1.996 . S
O171 C164 1.255 . S
C172 O165 1.287 . S
C172 O166 1.255 . S
O173 Fe155 2.002 . S
O173 C169 1.295 . S
O174 Fe157 1.997 . S
O174 C169 1.235 . S
C175 O158 1.295 . S
C175 O159 1.235 . S
Fe176 O178 1.918 . S
Fe176 O181 1.997 . S
Fe176 O182 2.002 . S
Fe176 O187 1.976 . S
Fe176 O190 1.996 . S
Fe177 O178 1.918 . S
Fe177 O185 1.997 . S
Fe177 O188 1.996 . S
Fe177 O192 1.976 . S
Fe177 O195 2.002 . S
O178 Fe176 1.918 . S
O178 Fe177 1.918 . S
O178 Fe179 1.918 . S
Fe179 O178 1.918 . S
Fe179 O180 2.002 . S
Fe179 O189 1.976 . S
Fe179 O193 1.996 . S
Fe179 O196 1.997 . S
O180 Fe179 2.002 . S
O180 C197 1.295 . S
O181 Fe176 1.997 . S
O181 C197 1.235 . S
O182 Fe176 2.002 . S
O182 C183 1.295 . S
C183 O182 1.295 . S
C183 O185 1.235 . S
C184 O189 1.287 . S
C184 O190 1.255 . S
O185 Fe177 1.997 . S
O185 C183 1.235 . S
C186 O192 1.287 . S
C186 O193 1.255 . S
O187 Fe176 1.976 . S
O187 C194 1.287 . S
O188 Fe177 1.996 . S
O188 C194 1.255 . S
O189 Fe179 1.976 . S
O189 C184 1.287 . S
O190 Fe176 1.996 . S
O190 C184 1.255 . S
C191 O195 1.295 . S
C191 O196 1.235 . S
O192 Fe177 1.976 . S
O192 C186 1.287 . S
O193 Fe179 1.996 . S
O193 C186 1.255 . S
C194 O187 1.287 . S
C194 O188 1.255 . S
O195 Fe177 2.002 . S
O195 C191 1.295 . S
O196 Fe179 1.997 . S
O196 C191 1.235 . S
C197 O180 1.295 . S
C197 O181 1.235 . S
Fe198 O200 1.918 . S
Fe198 O203 1.997 . S
Fe198 O204 2.002 . S
Fe198 O209 1.976 . S
Fe198 O212 1.996 . S
Fe199 O200 1.918 . S
Fe199 O207 1.997 . S
Fe199 O210 1.996 . S
Fe199 O214 1.976 . S
Fe199 O217 2.002 . S
O200 Fe198 1.918 . S
O200 Fe199 1.918 . S
O200 Fe201 1.918 . S
Fe201 O200 1.918 . S
Fe201 O202 2.002 . S
Fe201 O211 1.976 . S
Fe201 O215 1.996 . S
Fe201 O218 1.997 . S
O202 Fe201 2.002 . S
O202 C219 1.295 . S
O203 Fe198 1.997 . S
O203 C219 1.235 . S
O204 Fe198 2.002 . S
O204 C205 1.295 . S
C205 O204 1.295 . S
C205 O207 1.235 . S
C206 O211 1.287 . S
C206 O212 1.255 . S
O207 Fe199 1.997 . S
O207 C205 1.235 . S
C208 O214 1.287 . S
C208 O215 1.255 . S
O209 Fe198 1.976 . S
O209 C216 1.287 . S
O210 Fe199 1.996 . S
O210 C216 1.255 . S
O211 Fe201 1.976 . S
O211 C206 1.287 . S
O212 Fe198 1.996 . S
O212 C206 1.255 . S
C213 O217 1.295 . S
C213 O218 1.235 . S
O214 Fe199 1.976 . S
O214 C208 1.287 . S
O215 Fe201 1.996 . S
O215 C208 1.255 . S
C216 O209 1.287 . S
C216 O210 1.255 . S
O217 Fe199 2.002 . S
O217 C213 1.295 . S
O218 Fe201 1.997 . S
O218 C213 1.235 . S
C219 O202 1.295 . S
C219 O203 1.235 . S
Fe220 O222 1.918 . S
Fe220 O225 1.997 . S
Fe220 O226 2.002 . S
Fe220 O231 1.976 . S
Fe220 O234 1.996 . S
Fe221 O222 1.918 . S
Fe221 O229 1.997 . S
Fe221 O232 1.996 . S
Fe221 O236 1.976 . S
Fe221 O239 2.002 . S
O222 Fe220 1.918 . S
O222 Fe221 1.918 . S
O222 Fe223 1.918 . S
Fe223 O222 1.918 . S
Fe223 O224 2.002 . S
Fe223 O233 1.976 . S
Fe223 O237 1.996 . S
Fe223 O240 1.997 . S
O224 Fe223 2.002 . S
O224 C241 1.295 . S
O225 Fe220 1.997 . S
O225 C241 1.235 . S
O226 Fe220 2.002 . S
O226 C227 1.295 . S
C227 O226 1.295 . S
C227 O229 1.235 . S
C228 O233 1.287 . S
C228 O234 1.255 . S
O229 Fe221 1.997 . S
O229 C227 1.235 . S
C230 O236 1.287 . S
C230 O237 1.255 . S
O231 Fe220 1.976 . S
O231 C238 1.287 . S
O232 Fe221 1.996 . S
O232 C238 1.255 . S
O233 Fe223 1.976 . S
O233 C228 1.287 . S
O234 Fe220 1.996 . S
O234 C228 1.255 . S
C235 O239 1.295 . S
C235 O240 1.235 . S
O236 Fe221 1.976 . S
O236 C230 1.287 . S
O237 Fe223 1.996 . S
O237 C230 1.255 . S
C238 O231 1.287 . S
C238 O232 1.255 . S
O239 Fe221 2.002 . S
O239 C235 1.295 . S
O240 Fe223 1.997 . S
O240 C235 1.235 . S
C241 O224 1.295 . S
C241 O225 1.235 . S
Fe242 O244 1.918 . S
Fe242 O247 1.997 . S
Fe242 O248 2.002 . S
Fe242 O253 1.976 . S
Fe242 O256 1.996 . S
Fe243 O244 1.918 . S
Fe243 O251 1.997 . S
Fe243 O254 1.996 . S
Fe243 O258 1.976 . S
Fe243 O261 2.002 . S
O244 Fe242 1.918 . S
O244 Fe243 1.918 . S
O244 Fe245 1.918 . S
Fe245 O244 1.918 . S
Fe245 O246 2.002 . S
Fe245 O255 1.976 . S
Fe245 O259 1.996 . S
Fe245 O262 1.997 . S
O246 Fe245 2.002 . S
O246 C263 1.295 . S
O247 Fe242 1.997 . S
O247 C263 1.235 . S
O248 Fe242 2.002 . S
O248 C249 1.295 . S
C249 O248 1.295 . S
C249 O251 1.235 . S
C250 O255 1.287 . S
C250 O256 1.255 . S
O251 Fe243 1.997 . S
O251 C249 1.235 . S
C252 O258 1.287 . S
C252 O259 1.255 . S
O253 Fe242 1.976 . S
O253 C260 1.287 . S
O254 Fe243 1.996 . S
O254 C260 1.255 . S
O255 Fe245 1.976 . S
O255 C250 1.287 . S
O256 Fe242 1.996 . S
O256 C250 1.255 . S
C257 O261 1.295 . S
C257 O262 1.235 . S
O258 Fe243 1.976 . S
O258 C252 1.287 . S
O259 Fe245 1.996 . S
O259 C252 1.255 . S
C260 O253 1.287 . S
C260 O254 1.255 . S
O261 Fe243 2.002 . S
O261 C257 1.295 . S
O262 Fe245 1.997 . S
O262 C257 1.235 . S
C263 O246 1.295 . S
C263 O247 1.235 . S
Fe264 O266 1.918 . S
Fe264 O269 1.997 . S
Fe264 O270 2.002 . S
Fe264 O275 1.976 . S
Fe264 O278 1.996 . S
Fe265 O266 1.918 . S
Fe265 O273 1.997 . S
Fe265 O276 1.996 . S
Fe265 O280 1.976 . S
Fe265 O283 2.002 . S
O266 Fe264 1.918 . S
O266 Fe265 1.918 . S
O266 Fe267 1.918 . S
Fe267 O266 1.918 . S
Fe267 O268 2.002 . S
Fe267 O277 1.976 . S
Fe267 O281 1.996 . S
Fe267 O284 1.997 . S
O268 Fe267 2.002 . S
O268 C285 1.295 . S
O269 Fe264 1.997 . S
O269 C285 1.235 . S
O270 Fe264 2.002 . S
O270 C271 1.295 . S
C271 O270 1.295 . S
C271 O273 1.235 . S
C272 O277 1.287 . S
C272 O278 1.255 . S
O273 Fe265 1.997 . S
O273 C271 1.235 . S
C274 O280 1.287 . S
C274 O281 1.255 . S
O275 Fe264 1.976 . S
O275 C282 1.287 . S
O276 Fe265 1.996 . S
O276 C282 1.255 . S
O277 Fe267 1.976 . S
O277 C272 1.287 . S
O278 Fe264 1.996 . S
O278 C272 1.255 . S
C279 O283 1.295 . S
C279 O284 1.235 . S
O280 Fe265 1.976 . S
O280 C274 1.287 . S
O281 Fe267 1.996 . S
O281 C274 1.255 . S
C282 O275 1.287 . S
C282 O276 1.255 . S
O283 Fe265 2.002 . S
O283 C279 1.295 . S
O284 Fe267 1.997 . S
O284 C279 1.235 . S
C285 O268 1.295 . S
C285 O269 1.235 . S
Fe286 O288 1.918 . S
Fe286 O291 1.997 . S
Fe286 O292 2.002 . S
Fe286 O297 1.976 . S
Fe286 O300 1.996 . S
Fe287 O288 1.918 . S
Fe287 O295 1.997 . S
Fe287 O298 1.996 . S
Fe287 O302 1.976 . S
Fe287 O305 2.002 . S
O288 Fe286 1.918 . S
O288 Fe287 1.918 . S
O288 Fe289 1.918 . S
Fe289 O288 1.918 . S
Fe289 O290 2.002 . S
Fe289 O299 1.976 . S
Fe289 O303 1.996 . S
Fe289 O306 1.997 . S
O290 Fe289 2.002 . S
O290 C307 1.295 . S
O291 Fe286 1.997 . S
O291 C307 1.235 . S
O292 Fe286 2.002 . S
O292 C293 1.295 . S
C293 O292 1.295 . S
C293 O295 1.235 . S
C294 O299 1.287 . S
C294 O300 1.255 . S
O295 Fe287 1.997 . S
O295 C293 1.235 . S
C296 O302 1.287 . S
C296 O303 1.255 . S
O297 Fe286 1.976 . S
O297 C304 1.287 . S
O298 Fe287 1.996 . S
O298 C304 1.255 . S
O299 Fe289 1.976 . S
O299 C294 1.287 . S
O300 Fe286 1.996 . S
O300 C294 1.255 . S
C301 O305 1.295 . S
C301 O306 1.235 . S
O302 Fe287 1.976 . S
O302 C296 1.287 . S
O303 Fe289 1.996 . S
O303 C296 1.255 . S
C304 O297 1.287 . S
C304 O298 1.255 . S
O305 Fe287 2.002 . S
O305 C301 1.295 . S
O306 Fe289 1.997 . S
O306 C301 1.235 . S
C307 O290 1.295 . S
C307 O291 1.235 . S
Fe308 O310 1.918 . S
Fe308 O313 1.997 . S
Fe308 O314 2.002 . S
Fe308 O319 1.976 . S
Fe308 O322 1.996 . S
Fe309 O310 1.918 . S
Fe309 O317 1.997 . S
Fe309 O320 1.996 . S
Fe309 O324 1.976 . S
Fe309 O327 2.002 . S
O310 Fe308 1.918 . S
O310 Fe309 1.918 . S
O310 Fe311 1.918 . S
Fe311 O310 1.918 . S
Fe311 O312 2.002 . S
Fe311 O321 1.976 . S
Fe311 O325 1.996 . S
Fe311 O328 1.997 . S
O312 Fe311 2.002 . S
O312 C329 1.295 . S
O313 Fe308 1.997 . S
O313 C329 1.235 . S
O314 Fe308 2.002 . S
O314 C315 1.295 . S
C315 O314 1.295 . S
C315 O317 1.235 . S
C316 O321 1.287 . S
C316 O322 1.255 . S
O317 Fe309 1.997 . S
O317 C315 1.235 . S
C318 O324 1.287 . S
C318 O325 1.255 . S
O319 Fe308 1.976 . S
O319 C326 1.287 . S
O320 Fe309 1.996 . S
O320 C326 1.255 . S
O321 Fe311 1.976 . S
O321 C316 1.287 . S
O322 Fe308 1.996 . S
O322 C316 1.255 . S
C323 O327 1.295 . S
C323 O328 1.235 . S
O324 Fe309 1.976 . S
O324 C318 1.287 . S
O325 Fe311 1.996 . S
O325 C318 1.255 . S
C326 O319 1.287 . S
C326 O320 1.255 . S
O327 Fe309 2.002 . S
O327 C323 1.295 . S
O328 Fe311 1.997 . S
O328 C323 1.235 . S
C329 O312 1.295 . S
C329 O313 1.235 . S
Fe330 O332 1.918 . S
Fe330 O335 1.997 . S
Fe330 O336 2.002 . S
Fe330 O341 1.976 . S
Fe330 O344 1.996 . S
Fe331 O332 1.918 . S
Fe331 O339 1.997 . S
Fe331 O342 1.996 . S
Fe331 O346 1.976 . S
Fe331 O349 2.002 . S
O332 Fe330 1.918 . S
O332 Fe331 1.918 . S
O332 Fe333 1.918 . S
Fe333 O332 1.918 . S
Fe333 O334 2.002 . S
Fe333 O343 1.976 . S
Fe333 O347 1.996 . S
Fe333 O350 1.997 . S
O334 Fe333 2.002 . S
O334 C351 1.295 . S
O335 Fe330 1.997 . S
O335 C351 1.235 . S
O336 Fe330 2.002 . S
O336 C337 1.295 . S
C337 O336 1.295 . S
C337 O339 1.235 . S
C338 O343 1.287 . S
C338 O344 1.255 . S
O339 Fe331 1.997 . S
O339 C337 1.235 . S
C340 O346 1.287 . S
C340 O347 1.255 . S
O341 Fe330 1.976 . S
O341 C348 1.287 . S
O342 Fe331 1.996 . S
O342 C348 1.255 . S
O343 Fe333 1.976 . S
O343 C338 1.287 . S
O344 Fe330 1.996 . S
O344 C338 1.255 . S
C345 O349 1.295 . S
C345 O350 1.235 . S
O346 Fe331 1.976 . S
O346 C340 1.287 . S
O347 Fe333 1.996 . S
O347 C340 1.255 . S
C348 O341 1.287 . S
C348 O342 1.255 . S
O349 Fe331 2.002 . S
O349 C345 1.295 . S
O350 Fe333 1.997 . S
O350 C345 1.235 . S
C351 O334 1.295 . S
C351 O335 1.235 . S
Fe352 O354 1.918 . S
Fe352 O357 1.997 . S
Fe352 O358 2.002 . S
Fe352 O363 1.976 . S
Fe352 O366 1.996 . S
Fe353 O354 1.918 . S
Fe353 O361 1.997 . S
Fe353 O364 1.996 . S
Fe353 O368 1.976 . S
Fe353 O371 2.002 . S
O354 Fe352 1.918 . S
O354 Fe353 1.918 . S
O354 Fe355 1.918 . S
Fe355 O354 1.918 . S
Fe355 O356 2.002 . S
Fe355 O365 1.976 . S
Fe355 O369 1.996 . S
Fe355 O372 1.997 . S
O356 Fe355 2.002 . S
O356 C373 1.295 . S
O357 Fe352 1.997 . S
O357 C373 1.235 . S
O358 Fe352 2.002 . S
O358 C359 1.295 . S
C359 O358 1.295 . S
C359 O361 1.235 . S
C360 O365 1.287 . S
C360 O366 1.255 . S
O361 Fe353 1.997 . S
O361 C359 1.235 . S
C362 O368 1.287 . S
C362 O369 1.255 . S
O363 Fe352 1.976 . S
O363 C370 1.287 . S
O364 Fe353 1.996 . S
O364 C370 1.255 . S
O365 Fe355 1.976 . S
O365 C360 1.287 . S
O366 Fe352 1.996 . S
O366 C360 1.255 . S
C367 O371 1.295 . S
C367 O372 1.235 . S
O368 Fe353 1.976 . S
O368 C362 1.287 . S
O369 Fe355 1.996 . S
O369 C362 1.255 . S
C370 O363 1.287 . S
C370 O364 1.255 . S
O371 Fe353 2.002 . S
O371 C367 1.295 . S
O372 Fe355 1.997 . S
O372 C367 1.235 . S
C373 O356 1.295 . S
C373 O357 1.235 . S
Fe374 O376 1.918 . S
Fe374 O379 1.997 . S
Fe374 O380 2.002 . S
Fe374 O385 1.976 . S
Fe374 O388 1.996 . S
Fe375 O376 1.918 . S
Fe375 O383 1.997 . S
Fe375 O386 1.996 . S
Fe375 O390 1.976 . S
Fe375 O393 2.002 . S
O376 Fe374 1.918 . S
O376 Fe375 1.918 . S
O376 Fe377 1.918 . S
Fe377 O376 1.918 . S
Fe377 O378 2.002 . S
Fe377 O387 1.976 . S
Fe377 O391 1.996 . S
Fe377 O394 1.997 . S
O378 Fe377 2.002 . S
O378 C395 1.295 . S
O379 Fe374 1.997 . S
O379 C395 1.235 . S
O380 Fe374 2.002 . S
O380 C381 1.295 . S
C381 O380 1.295 . S
C381 O383 1.235 . S
C382 O387 1.287 . S
C382 O388 1.255 . S
O383 Fe375 1.997 . S
O383 C381 1.235 . S
C384 O390 1.287 . S
C384 O391 1.255 . S
O385 Fe374 1.976 . S
O385 C392 1.287 . S
O386 Fe375 1.996 . S
O386 C392 1.255 . S
O387 Fe377 1.976 . S
O387 C382 1.287 . S
O388 Fe374 1.996 . S
O388 C382 1.255 . S
C389 O393 1.295 . S
C389 O394 1.235 . S
O390 Fe375 1.976 . S
O390 C384 1.287 . S
O391 Fe377 1.996 . S
O391 C384 1.255 . S
C392 O385 1.287 . S
C392 O386 1.255 . S
O393 Fe375 2.002 . S
O393 C389 1.295 . S
O394 Fe377 1.997 . S
O394 C389 1.235 . S
C395 O378 1.295 . S
C395 O379 1.235 . S
Fe396 O398 1.918 . S
Fe396 O401 1.997 . S
Fe396 O402 2.002 . S
Fe396 O407 1.976 . S
Fe396 O410 1.996 . S
Fe397 O398 1.918 . S
Fe397 O405 1.997 . S
Fe397 O408 1.996 . S
Fe397 O412 1.976 . S
Fe397 O415 2.002 . S
O398 Fe396 1.918 . S
O398 Fe397 1.918 . S
O398 Fe399 1.918 . S
Fe399 O398 1.918 . S
Fe399 O400 2.002 . S
Fe399 O409 1.976 . S
Fe399 O413 1.996 . S
Fe399 O416 1.997 . S
O400 Fe399 2.002 . S
O400 C417 1.295 . S
O401 Fe396 1.997 . S
O401 C417 1.235 . S
O402 Fe396 2.002 . S
O402 C403 1.295 . S
C403 O402 1.295 . S
C403 O405 1.235 . S
C404 O409 1.287 . S
C404 O410 1.255 . S
O405 Fe397 1.997 . S
O405 C403 1.235 . S
C406 O412 1.287 . S
C406 O413 1.255 . S
O407 Fe396 1.976 . S
O407 C414 1.287 . S
O408 Fe397 1.996 . S
O408 C414 1.255 . S
O409 Fe399 1.976 . S
O409 C404 1.287 . S
O410 Fe396 1.996 . S
O410 C404 1.255 . S
C411 O415 1.295 . S
C411 O416 1.235 . S
O412 Fe397 1.976 . S
O412 C406 1.287 . S
O413 Fe399 1.996 . S
O413 C406 1.255 . S
C414 O407 1.287 . S
C414 O408 1.255 . S
O415 Fe397 2.002 . S
O415 C411 1.295 . S
O416 Fe399 1.997 . S
O416 C411 1.235 . S
C417 O400 1.295 . S
C417 O401 1.235 . S
Fe418 O420 1.918 . S
Fe418 O423 1.997 . S
Fe418 O424 2.002 . S
Fe418 O429 1.976 . S
Fe418 O432 1.996 . S
Fe419 O420 1.918 . S
Fe419 O427 1.997 . S
Fe419 O430 1.996 . S
Fe419 O434 1.976 . S
Fe419 O437 2.002 . S
O420 Fe418 1.918 . S
O420 Fe419 1.918 . S
O420 Fe421 1.918 . S
Fe421 O420 1.918 . S
Fe421 O422 2.002 . S
Fe421 O431 1.976 . S
Fe421 O435 1.996 . S
Fe421 O438 1.997 . S
O422 Fe421 2.002 . S
O422 C439 1.295 . S
O423 Fe418 1.997 . S
O423 C439 1.235 . S
O424 Fe418 2.002 . S
O424 C425 1.295 . S
C425 O424 1.295 . S
C425 O427 1.235 . S
C426 O431 1.287 . S
C426 O432 1.255 . S
O427 Fe419 1.997 . S
O427 C425 1.235 . S
C428 O434 1.287 . S
C428 O435 1.255 . S
O429 Fe418 1.976 . S
O429 C436 1.287 . S
O430 Fe419 1.996 . S
O430 C436 1.255 . S
O431 Fe421 1.976 . S
O431 C426 1.287 . S
O432 Fe418 1.996 . S
O432 C426 1.255 . S
C433 O437 1.295 . S
C433 O438 1.235 . S
O434 Fe419 1.976 . S
O434 C428 1.287 . S
O435 Fe421 1.996 . S
O435 C428 1.255 . S
C436 O429 1.287 . S
C436 O430 1.255 . S
O437 Fe419 2.002 . S
O437 C433 1.295 . S
O438 Fe421 1.997 . S
O438 C433 1.235 . S
C439 O422 1.295 . S
C439 O423 1.235 . S
Fe440 O442 1.918 . S
Fe440 O445 1.997 . S
Fe440 O446 2.002 . S
Fe440 O451 1.976 . S
Fe440 O454 1.996 . S
Fe441 O442 1.918 . S
Fe441 O449 1.997 . S
Fe441 O452 1.996 . S
Fe441 O456 1.976 . S
Fe441 O459 2.002 . S
O442 Fe440 1.918 . S
O442 Fe441 1.918 . S
O442 Fe443 1.918 . S
Fe443 O442 1.918 . S
Fe443 O444 2.002 . S
Fe443 O453 1.976 . S
Fe443 O457 1.996 . S
Fe443 O460 1.997 . S
O444 Fe443 2.002 . S
O444 C461 1.295 . S
O445 Fe440 1.997 . S
O445 C461 1.235 . S
O446 Fe440 2.002 . S
O446 C447 1.295 . S
C447 O446 1.295 . S
C447 O449 1.235 . S
C448 O453 1.287 . S
C448 O454 1.255 . S
O449 Fe441 1.997 . S
O449 C447 1.235 . S
C450 O456 1.287 . S
C450 O457 1.255 . S
O451 Fe440 1.976 . S
O451 C458 1.287 . S
O452 Fe441 1.996 . S
O452 C458 1.255 . S
O453 Fe443 1.976 . S
O453 C448 1.287 . S
O454 Fe440 1.996 . S
O454 C448 1.255 . S
C455 O459 1.295 . S
C455 O460 1.235 . S
O456 Fe441 1.976 . S
O456 C450 1.287 . S
O457 Fe443 1.996 . S
O457 C450 1.255 . S
C458 O451 1.287 . S
C458 O452 1.255 . S
O459 Fe441 2.002 . S
O459 C455 1.295 . S
O460 Fe443 1.997 . S
O460 C455 1.235 . S
C461 O444 1.295 . S
C461 O445 1.235 . S
Fe462 O464 1.918 . S
Fe462 O467 1.997 . S
Fe462 O468 2.002 . S
Fe462 O473 1.976 . S
Fe462 O476 1.996 . S
Fe463 O464 1.918 . S
Fe463 O471 1.997 . S
Fe463 O474 1.996 . S
Fe463 O478 1.976 . S
Fe463 O481 2.002 . S
O464 Fe462 1.918 . S
O464 Fe463 1.918 . S
O464 Fe465 1.918 . S
Fe465 O464 1.918 . S
Fe465 O466 2.002 . S
Fe465 O475 1.976 . S
Fe465 O479 1.996 . S
Fe465 O482 1.997 . S
O466 Fe465 2.002 . S
O466 C483 1.295 . S
O467 Fe462 1.997 . S
O467 C483 1.235 . S
O468 Fe462 2.002 . S
O468 C469 1.295 . S
C469 O468 1.295 . S
C469 O471 1.235 . S
C470 O475 1.287 . S
C470 O476 1.255 . S
O471 Fe463 1.997 . S
O471 C469 1.235 . S
C472 O478 1.287 . S
C472 O479 1.255 . S
O473 Fe462 1.976 . S
O473 C480 1.287 . S
O474 Fe463 1.996 . S
O474 C480 1.255 . S
O475 Fe465 1.976 . S
O475 C470 1.287 . S
O476 Fe462 1.996 . S
O476 C470 1.255 . S
C477 O481 1.295 . S
C477 O482 1.235 . S
O478 Fe463 1.976 . S
O478 C472 1.287 . S
O479 Fe465 1.996 . S
O479 C472 1.255 . S
C480 O473 1.287 . S
C480 O474 1.255 . S
O481 Fe463 2.002 . S
O481 C477 1.295 . S
O482 Fe465 1.997 . S
O482 C477 1.235 . S
C483 O466 1.295 . S
C483 O467 1.235 . S
Fe484 O486 1.918 . S
Fe484 O489 1.997 . S
Fe484 O490 2.002 . S
Fe484 O495 1.976 . S
Fe484 O498 1.996 . S
Fe485 O486 1.918 . S
Fe485 O493 1.997 . S
Fe485 O496 1.996 . S
Fe485 O500 1.976 . S
Fe485 O503 2.002 . S
O486 Fe484 1.918 . S
O486 Fe485 1.918 . S
O486 Fe487 1.918 . S
Fe487 O486 1.918 . S
Fe487 O488 2.002 . S
Fe487 O497 1.976 . S
Fe487 O501 1.996 . S
Fe487 O504 1.997 . S
O488 Fe487 2.002 . S
O488 C505 1.295 . S
O489 Fe484 1.997 . S
O489 C505 1.235 . S
O490 Fe484 2.002 . S
O490 C491 1.295 . S
C491 O490 1.295 . S
C491 O493 1.235 . S
C492 O497 1.287 . S
C492 O498 1.255 . S
O493 Fe485 1.997 . S
O493 C491 1.235 . S
C494 O500 1.287 . S
C494 O501 1.255 . S
O495 Fe484 1.976 . S
O495 C502 1.287 . S
O496 Fe485 1.996 . S
O496 C502 1.255 . S
O497 Fe487 1.976 . S
O497 C492 1.287 . S
O498 Fe484 1.996 . S
O498 C492 1.255 . S
C499 O503 1.295 . S
C499 O504 1.235 . S
O500 Fe485 1.976 . S
O500 C494 1.287 . S
O501 Fe487 1.996 . S
O501 C494 1.255 . S
C502 O495 1.287 . S
C502 O496 1.255 . S
O503 Fe485 2.002 . S
O503 C499 1.295 . S
O504 Fe487 1.997 . S
O504 C499 1.235 . S
C505 O488 1.295 . S
C505 O489 1.235 . S
Fe506 O508 1.918 . S
Fe506 O511 1.997 . S
Fe506 O512 2.002 . S
Fe506 O517 1.976 . S
Fe506 O520 1.996 . S
Fe507 O508 1.918 . S
Fe507 O515 1.997 . S
Fe507 O518 1.996 . S
Fe507 O522 1.976 . S
Fe507 O525 2.002 . S
O508 Fe506 1.918 . S
O508 Fe507 1.918 . S
O508 Fe509 1.918 . S
Fe509 O508 1.918 . S
Fe509 O510 2.002 . S
Fe509 O519 1.976 . S
Fe509 O523 1.996 . S
Fe509 O526 1.997 . S
O510 Fe509 2.002 . S
O510 C527 1.295 . S
O511 Fe506 1.997 . S
O511 C527 1.235 . S
O512 Fe506 2.002 . S
O512 C513 1.295 . S
C513 O512 1.295 . S
C513 O515 1.235 . S
C514 O519 1.287 . S
C514 O520 1.255 . S
O515 Fe507 1.997 . S
O515 C513 1.235 . S
C516 O522 1.287 . S
C516 O523 1.255 . S
O517 Fe506 1.976 . S
O517 C524 1.287 . S
O518 Fe507 1.996 . S
O518 C524 1.255 . S
O519 Fe509 1.976 . S
O519 C514 1.287 . S
O520 Fe506 1.996 . S
O520 C514 1.255 . S
C521 O525 1.295 . S
C521 O526 1.235 . S
O522 Fe507 1.976 . S
O522 C516 1.287 . S
O523 Fe509 1.996 . S
O523 C516 1.255 . S
C524 O517 1.287 . S
C524 O518 1.255 . S
O525 Fe507 2.002 . S
O525 C521 1.295 . S
O526 Fe509 1.997 . S
O526 C521 1.235 . S
C527 O510 1.295 . S
C527 O511 1.235 . S
Fe528 O530 1.918 . S
Fe528 O533 1.997 . S
Fe528 O534 2.002 . S
Fe528 O539 1.976 . S
Fe528 O542 1.996 . S
Fe529 O530 1.918 . S
Fe529 O537 1.997 . S
Fe529 O540 1.996 . S
Fe529 O544 1.976 . S
Fe529 O547 2.002 . S
O530 Fe528 1.918 . S
O530 Fe529 1.918 . S
O530 Fe531 1.918 . S
Fe531 O530 1.918 . S
Fe531 O532 2.002 . S
Fe531 O541 1.976 . S
Fe531 O545 1.996 . S
Fe531 O548 1.997 . S
O532 Fe531 2.002 . S
O532 C549 1.295 . S
O533 Fe528 1.997 . S
O533 C549 1.235 . S
O534 Fe528 2.002 . S
O534 C535 1.295 . S
C535 O534 1.295 . S
C535 O537 1.235 . S
C536 O541 1.287 . S
C536 O542 1.255 . S
O537 Fe529 1.997 . S
O537 C535 1.235 . S
C538 O544 1.287 . S
C538 O545 1.255 . S
O539 Fe528 1.976 . S
O539 C546 1.287 . S
O540 Fe529 1.996 . S
O540 C546 1.255 . S
O541 Fe531 1.976 . S
O541 C536 1.287 . S
O542 Fe528 1.996 . S
O542 C536 1.255 . S
C543 O547 1.295 . S
C543 O548 1.235 . S
O544 Fe529 1.976 . S
O544 C538 1.287 . S
O545 Fe531 1.996 . S
O545 C538 1.255 . S
C546 O539 1.287 . S
C546 O540 1.255 . S
O547 Fe529 2.002 . S
O547 C543 1.295 . S
O548 Fe531 1.997 . S
O548 C543 1.235 . S
C549 O532 1.295 . S
C549 O533 1.235 . S
Fe550 O552 1.918 . S
Fe550 O555 1.997 . S
Fe550 O556 2.002 . S
Fe550 O561 1.976 . S
Fe550 O564 1.996 . S
Fe551 O552 1.918 . S
Fe551 O559 1.997 . S
Fe551 O562 1.996 . S
Fe551 O566 1.976 . S
Fe551 O569 2.002 . S
O552 Fe550 1.918 . S
O552 Fe551 1.918 . S
O552 Fe553 1.918 . S
Fe553 O552 1.918 . S
Fe553 O554 2.002 . S
Fe553 O563 1.976 . S
Fe553 O567 1.996 . S
Fe553 O570 1.997 . S
O554 Fe553 2.002 . S
O554 C571 1.295 . S
O555 Fe550 1.997 . S
O555 C571 1.235 . S
O556 Fe550 2.002 . S
O556 C557 1.295 . S
C557 O556 1.295 . S
C557 O559 1.235 . S
C558 O563 1.287 . S
C558 O564 1.255 . S
O559 Fe551 1.997 . S
O559 C557 1.235 . S
C560 O566 1.287 . S
C560 O567 1.255 . S
O561 Fe550 1.976 . S
O561 C568 1.287 . S
O562 Fe551 1.996 . S
O562 C568 1.255 . S
O563 Fe553 1.976 . S
O563 C558 1.287 . S
O564 Fe550 1.996 . S
O564 C558 1.255 . S
C565 O569 1.295 . S
C565 O570 1.235 . S
O566 Fe551 1.976 . S
O566 C560 1.287 . S
O567 Fe553 1.996 . S
O567 C560 1.255 . S
C568 O561 1.287 . S
C568 O562 1.255 . S
O569 Fe551 2.002 . S
O569 C565 1.295 . S
O570 Fe553 1.997 . S
O570 C565 1.235 . S
C571 O554 1.295 . S
C571 O555 1.235 . S
Fe572 O574 1.918 . S
Fe572 O577 1.997 . S
Fe572 O578 2.002 . S
Fe572 O583 1.976 . S
Fe572 O586 1.996 . S
Fe573 O574 1.918 . S
Fe573 O581 1.997 . S
Fe573 O584 1.996 . S
Fe573 O588 1.976 . S
Fe573 O591 2.002 . S
O574 Fe572 1.918 . S
O574 Fe573 1.918 . S
O574 Fe575 1.918 . S
Fe575 O574 1.918 . S
Fe575 O576 2.002 . S
Fe575 O585 1.976 . S
Fe575 O589 1.996 . S
Fe575 O592 1.997 . S
O576 Fe575 2.002 . S
O576 C593 1.295 . S
O577 Fe572 1.997 . S
O577 C593 1.235 . S
O578 Fe572 2.002 . S
O578 C579 1.295 . S
C579 O578 1.295 . S
C579 O581 1.235 . S
C580 O585 1.287 . S
C580 O586 1.255 . S
O581 Fe573 1.997 . S
O581 C579 1.235 . S
C582 O588 1.287 . S
C582 O589 1.255 . S
O583 Fe572 1.976 . S
O583 C590 1.287 . S
O584 Fe573 1.996 . S
O584 C590 1.255 . S
O585 Fe575 1.976 . S
O585 C580 1.287 . S
O586 Fe572 1.996 . S
O586 C580 1.255 . S
C587 O591 1.295 . S
C587 O592 1.235 . S
O588 Fe573 1.976 . S
O588 C582 1.287 . S
O589 Fe575 1.996 . S
O589 C582 1.255 . S
C590 O583 1.287 . S
C590 O584 1.255 . S
O591 Fe573 2.002 . S
O591 C587 1.295 . S
O592 Fe575 1.997 . S
O592 C587 1.235 . S
C593 O576 1.295 . S
C593 O577 1.235 . S
Fe594 O596 1.918 . S
Fe594 O599 1.997 . S
Fe594 O600 2.002 . S
Fe594 O605 1.976 . S
Fe594 O608 1.996 . S
Fe595 O596 1.918 . S
Fe595 O603 1.997 . S
Fe595 O606 1.996 . S
Fe595 O610 1.976 . S
Fe595 O613 2.002 . S
O596 Fe594 1.918 . S
O596 Fe595 1.918 . S
O596 Fe597 1.918 . S
Fe597 O596 1.918 . S
Fe597 O598 2.002 . S
Fe597 O607 1.976 . S
Fe597 O611 1.996 . S
Fe597 O614 1.997 . S
O598 Fe597 2.002 . S
O598 C615 1.295 . S
O599 Fe594 1.997 . S
O599 C615 1.235 . S
O600 Fe594 2.002 . S
O600 C601 1.295 . S
C601 O600 1.295 . S
C601 O603 1.235 . S
C602 O607 1.287 . S
C602 O608 1.255 . S
O603 Fe595 1.997 . S
O603 C601 1.235 . S
C604 O610 1.287 . S
C604 O611 1.255 . S
O605 Fe594 1.976 . S
O605 C612 1.287 . S
O606 Fe595 1.996 . S
O606 C612 1.255 . S
O607 Fe597 1.976 . S
O607 C602 1.287 . S
O608 Fe594 1.996 . S
O608 C602 1.255 . S
C609 O613 1.295 . S
C609 O614 1.235 . S
O610 Fe595 1.976 . S
O610 C604 1.287 . S
O611 Fe597 1.996 . S
O611 C604 1.255 . S
C612 O605 1.287 . S
C612 O606 1.255 . S
O613 Fe595 2.002 . S
O613 C609 1.295 . S
O614 Fe597 1.997 . S
O614 C609 1.235 . S
C615 O598 1.295 . S
C615 O599 1.235 . S
Fe616 O618 1.918 . S
Fe616 O621 1.997 . S
Fe616 O622 2.002 . S
Fe616 O627 1.976 . S
Fe616 O630 1.996 . S
Fe617 O618 1.918 . S
Fe617 O625 1.997 . S
Fe617 O628 1.996 . S
Fe617 O632 1.976 . S
Fe617 O635 2.002 . S
O618 Fe616 1.918 . S
O618 Fe617 1.918 . S
O618 Fe619 1.918 . S
Fe619 O618 1.918 . S
Fe619 O620 2.002 . S
Fe619 O629 1.976 . S
Fe619 O633 1.996 . S
Fe619 O636 1.997 . S
O620 Fe619 2.002 . S
O620 C637 1.295 . S
O621 Fe616 1.997 . S
O621 C637 1.235 . S
O622 Fe616 2.002 . S
O622 C623 1.295 . S
C623 O622 1.295 . S
C623 O625 1.235 . S
C624 O629 1.287 . S
C624 O630 1.255 . S
O625 Fe617 1.997 . S
O625 C623 1.235 . S
C626 O632 1.287 . S
C626 O633 1.255 . S
O627 Fe616 1.976 . S
O627 C634 1.287 . S
O628 Fe617 1.996 . S
O628 C634 1.255 . S
O629 Fe619 1.976 . S
O629 C624 1.287 . S
O630 Fe616 1.996 . S
O630 C624 1.255 . S
C631 O635 1.295 . S
C631 O636 1.235 . S
O632 Fe617 1.976 . S
O632 C626 1.287 . S
O633 Fe619 1.996 . S
O633 C626 1.255 . S
C634 O627 1.287 . S
C634 O628 1.255 . S
O635 Fe617 2.002 . S
O635 C631 1.295 . S
O636 Fe619 1.997 . S
O636 C631 1.235 . S
C637 O620 1.295 . S
C637 O621 1.235 . S
Fe638 O640 1.918 . S
Fe638 O643 1.997 . S
Fe638 O644 2.002 . S
Fe638 O649 1.976 . S
Fe638 O652 1.996 . S
Fe639 O640 1.918 . S
Fe639 O647 1.997 . S
Fe639 O650 1.996 . S
Fe639 O654 1.976 . S
Fe639 O657 2.002 . S
O640 Fe638 1.918 . S
O640 Fe639 1.918 . S
O640 Fe641 1.918 . S
Fe641 O640 1.918 . S
Fe641 O642 2.002 . S
Fe641 O651 1.976 . S
Fe641 O655 1.996 . S
Fe641 O658 1.997 . S
O642 Fe641 2.002 . S
O642 C659 1.295 . S
O643 Fe638 1.997 . S
O643 C659 1.235 . S
O644 Fe638 2.002 . S
O644 C645 1.295 . S
C645 O644 1.295 . S
C645 O647 1.235 . S
C646 O651 1.287 . S
C646 O652 1.255 . S
O647 Fe639 1.997 . S
O647 C645 1.235 . S
C648 O654 1.287 . S
C648 O655 1.255 . S
O649 Fe638 1.976 . S
O649 C656 1.287 . S
O650 Fe639 1.996 . S
O650 C656 1.255 . S
O651 Fe641 1.976 . S
O651 C646 1.287 . S
O652 Fe638 1.996 . S
O652 C646 1.255 . S
C653 O657 1.295 . S
C653 O658 1.235 . S
O654 Fe639 1.976 . S
O654 C648 1.287 . S
O655 Fe641 1.996 . S
O655 C648 1.255 . S
C656 O649 1.287 . S
C656 O650 1.255 . S
O657 Fe639 2.002 . S
O657 C653 1.295 . S
O658 Fe641 1.997 . S
O658 C653 1.235 . S
C659 O642 1.295 . S
C659 O643 1.235 . S
Fe660 O662 1.918 . S
Fe660 O665 1.997 . S
Fe660 O666 2.002 . S
Fe660 O671 1.976 . S
Fe660 O674 1.996 . S
Fe661 O662 1.918 . S
Fe661 O669 1.997 . S
Fe661 O672 1.996 . S
Fe661 O676 1.976 . S
Fe661 O679 2.002 . S
O662 Fe660 1.918 . S
O662 Fe661 1.918 . S
O662 Fe663 1.918 . S
Fe663 O662 1.918 . S
Fe663 O664 2.002 . S
Fe663 O673 1.976 . S
Fe663 O677 1.996 . S
Fe663 O680 1.997 . S
O664 Fe663 2.002 . S
O664 C681 1.295 . S
O665 Fe660 1.997 . S
O665 C681 1.235 . S
O666 Fe660 2.002 . S
O666 C667 1.295 . S
C667 O666 1.295 . S
C667 O669 1.235 . S
C668 O673 1.287 . S
C668 O674 1.255 . S
O669 Fe661 1.997 . S
O669 C667 1.235 . S
C670 O676 1.287 . S
C670 O677 1.255 . S
O671 Fe660 1.976 . S
O671 C678 1.287 . S
O672 Fe661 1.996 . S
O672 C678 1.255 . S
O673 Fe663 1.976 . S
O673 C668 1.287 . S
O674 Fe660 1.996 . S
O674 C668 1.255 . S
C675 O679 1.295 . S
C675 O680 1.235 . S
O676 Fe661 1.976 . S
O676 C670 1.287 . S
O677 Fe663 1.996 . S
O677 C670 1.255 . S
C678 O671 1.287 . S
C678 O672 1.255 . S
O679 Fe661 2.002 . S
O679 C675 1.295 . S
O680 Fe663 1.997 . S
O680 C675 1.235 . S
C681 O664 1.295 . S
C681 O665 1.235 . S
Fe682 O684 1.918 . S
Fe682 O687 1.997 . S
Fe682 O688 2.002 . S
Fe682 O693 1.976 . S
Fe682 O696 1.996 . S
Fe683 O684 1.918 . S
Fe683 O691 1.997 . S
Fe683 O694 1.996 . S
Fe683 O698 1.976 . S
Fe683 O701 2.002 . S
O684 Fe682 1.918 . S
O684 Fe683 1.918 . S
O684 Fe685 1.918 . S
Fe685 O684 1.918 . S
Fe685 O686 2.002 . S
Fe685 O695 1.976 . S
Fe685 O699 1.996 . S
Fe685 O702 1.997 . S
O686 Fe685 2.002 . S
O686 C703 1.295 . S
O687 Fe682 1.997 . S
O687 C703 1.235 . S
O688 Fe682 2.002 . S
O688 C689 1.295 . S
C689 O688 1.295 . S
C689 O691 1.235 . S
C690 O695 1.287 . S
C690 O696 1.255 . S
O691 Fe683 1.997 . S
O691 C689 1.235 . S
C692 O698 1.287 . S
C692 O699 1.255 . S
O693 Fe682 1.976 . S
O693 C700 1.287 . S
O694 Fe683 1.996 . S
O694 C700 1.255 . S
O695 Fe685 1.976 . S
O695 C690 1.287 . S
O696 Fe682 1.996 . S
O696 C690 1.255 . S
C697 O701 1.295 . S
C697 O702 1.235 . S
O698 Fe683 1.976 . S
O698 C692 1.287 . S
O699 Fe685 1.996 . S
O699 C692 1.255 . S
C700 O693 1.287 . S
C700 O694 1.255 . S
O701 Fe683 2.002 . S
O701 C697 1.295 . S
O702 Fe685 1.997 . S
O702 C697 1.235 . S
C703 O686 1.295 . S
C703 O687 1.235 . S
C704 C705 1.369 . S
C704 C706 1.419 . S
C704 H708 0.930 . S
C705 C704 1.369 . S
C705 C714 1.429 . S
C706 C704 1.419 . S
C706 C707 1.363 . S
C706 H709 0.929 . S
C707 C706 1.363 . S
C707 C713 1.428 . S
H708 C704 0.930 . S
H709 C706 0.929 . S
S710 N711 1.613 . S
S710 N712 1.610 . S
N711 S710 1.613 . S
N711 C714 1.350 . S
N712 S710 1.610 . S
N712 C713 1.351 . S
C713 C707 1.428 . S
C713 N712 1.351 . S
C713 C714 1.434 . S
C714 C705 1.429 . S
C714 N711 1.350 . S
C714 C713 1.434 . S
C715 C716 1.369 . S
C715 C717 1.419 . S
C715 H719 0.930 . S
C716 C715 1.369 . S
C716 C725 1.429 . S
C717 C715 1.419 . S
C717 C718 1.363 . S
C717 H720 0.929 . S
C718 C717 1.363 . S
C718 C724 1.428 . S
H719 C715 0.930 . S
H720 C717 0.929 . S
S721 N722 1.613 . S
S721 N723 1.610 . S
N722 S721 1.613 . S
N722 C725 1.350 . S
N723 S721 1.610 . S
N723 C724 1.351 . S
C724 C718 1.428 . S
C724 N723 1.351 . S
C724 C725 1.434 . S
C725 C716 1.429 . S
C725 N722 1.350 . S
C725 C724 1.434 . S
C726 C727 1.369 . S
C726 C728 1.419 . S
C726 H730 0.930 . S
C727 C726 1.369 . S
C727 C736 1.429 . S
C728 C726 1.419 . S
C728 C729 1.363 . S
C728 H731 0.929 . S
C729 C728 1.363 . S
C729 C735 1.428 . S
H730 C726 0.930 . S
H731 C728 0.929 . S
S732 N733 1.613 . S
S732 N734 1.610 . S
N733 S732 1.613 . S
N733 C736 1.350 . S
N734 S732 1.610 . S
N734 C735 1.351 . S
C735 C729 1.428 . S
C735 N734 1.351 . S
C735 C736 1.434 . S
C736 C727 1.429 . S
C736 N733 1.350 . S
C736 C735 1.434 . S
C737 C738 1.369 . S
C737 C739 1.419 . S
C737 H741 0.930 . S
C738 C737 1.369 . S
C738 C747 1.429 . S
C739 C737 1.419 . S
C739 C740 1.363 . S
C739 H742 0.929 . S
C740 C739 1.363 . S
C740 C746 1.428 . S
H741 C737 0.930 . S
H742 C739 0.929 . S
S743 N744 1.613 . S
S743 N745 1.610 . S
N744 S743 1.613 . S
N744 C747 1.350 . S
N745 S743 1.610 . S
N745 C746 1.351 . S
C746 C740 1.428 . S
C746 N745 1.351 . S
C746 C747 1.434 . S
C747 C738 1.429 . S
C747 N744 1.350 . S
C747 C746 1.434 . S
C748 C749 1.369 . S
C748 C750 1.419 . S
C748 H752 0.930 . S
C749 C748 1.369 . S
C749 C758 1.429 . S
C750 C748 1.419 . S
C750 C751 1.363 . S
C750 H753 0.929 . S
C751 C750 1.363 . S
C751 C757 1.428 . S
H752 C748 0.930 . S
H753 C750 0.929 . S
S754 N755 1.613 . S
S754 N756 1.610 . S
N755 S754 1.613 . S
N755 C758 1.350 . S
N756 S754 1.610 . S
N756 C757 1.351 . S
C757 C751 1.428 . S
C757 N756 1.351 . S
C757 C758 1.434 . S
C758 C749 1.429 . S
C758 N755 1.350 . S
C758 C757 1.434 . S
C759 C760 1.369 . S
C759 C761 1.419 . S
C759 H763 0.930 . S
C760 C759 1.369 . S
C760 C769 1.429 . S
C761 C759 1.419 . S
C761 C762 1.363 . S
C761 H764 0.929 . S
C762 C761 1.363 . S
C762 C768 1.428 . S
H763 C759 0.930 . S
H764 C761 0.929 . S
S765 N766 1.613 . S
S765 N767 1.610 . S
N766 S765 1.613 . S
N766 C769 1.350 . S
N767 S765 1.610 . S
N767 C768 1.351 . S
C768 C762 1.428 . S
C768 N767 1.351 . S
C768 C769 1.434 . S
C769 C760 1.429 . S
C769 N766 1.350 . S
C769 C768 1.434 . S
C770 C771 1.369 . S
C770 C772 1.419 . S
C770 H774 0.930 . S
C771 C770 1.369 . S
C771 C780 1.429 . S
C772 C770 1.419 . S
C772 C773 1.363 . S
C772 H775 0.929 . S
C773 C772 1.363 . S
C773 C779 1.428 . S
H774 C770 0.930 . S
H775 C772 0.929 . S
S776 N777 1.613 . S
S776 N778 1.610 . S
N777 S776 1.613 . S
N777 C780 1.350 . S
N778 S776 1.610 . S
N778 C779 1.351 . S
C779 C773 1.428 . S
C779 N778 1.351 . S
C779 C780 1.434 . S
C780 C771 1.429 . S
C780 N777 1.350 . S
C780 C779 1.434 . S
C781 C782 1.369 . S
C781 C783 1.419 . S
C781 H785 0.930 . S
C782 C781 1.369 . S
C782 C791 1.429 . S
C783 C781 1.419 . S
C783 C784 1.363 . S
C783 H786 0.929 . S
C784 C783 1.363 . S
C784 C790 1.428 . S
H785 C781 0.930 . S
H786 C783 0.929 . S
S787 N788 1.613 . S
S787 N789 1.610 . S
N788 S787 1.613 . S
N788 C791 1.350 . S
N789 S787 1.610 . S
N789 C790 1.351 . S
C790 C784 1.428 . S
C790 N789 1.351 . S
C790 C791 1.434 . S
C791 C782 1.429 . S
C791 N788 1.350 . S
C791 C790 1.434 . S
C792 C793 1.369 . S
C792 C794 1.419 . S
C792 H796 0.930 . S
C793 C792 1.369 . S
C793 C802 1.429 . S
C794 C792 1.419 . S
C794 C795 1.363 . S
C794 H797 0.929 . S
C795 C794 1.363 . S
C795 C801 1.428 . S
H796 C792 0.930 . S
H797 C794 0.929 . S
S798 N799 1.613 . S
S798 N800 1.610 . S
N799 S798 1.613 . S
N799 C802 1.350 . S
N800 S798 1.610 . S
N800 C801 1.351 . S
C801 C795 1.428 . S
C801 N800 1.351 . S
C801 C802 1.434 . S
C802 C793 1.429 . S
C802 N799 1.350 . S
C802 C801 1.434 . S
C803 C804 1.369 . S
C803 C805 1.419 . S
C803 H807 0.930 . S
C804 C803 1.369 . S
C804 C813 1.429 . S
C805 C803 1.419 . S
C805 C806 1.363 . S
C805 H808 0.929 . S
C806 C805 1.363 . S
C806 C812 1.428 . S
H807 C803 0.930 . S
H808 C805 0.929 . S
S809 N810 1.613 . S
S809 N811 1.610 . S
N810 S809 1.613 . S
N810 C813 1.350 . S
N811 S809 1.610 . S
N811 C812 1.351 . S
C812 C806 1.428 . S
C812 N811 1.351 . S
C812 C813 1.434 . S
C813 C804 1.429 . S
C813 N810 1.350 . S
C813 C812 1.434 . S
C814 C815 1.369 . S
C814 C816 1.419 . S
C814 H818 0.930 . S
C815 C814 1.369 . S
C815 C824 1.429 . S
C816 C814 1.419 . S
C816 C817 1.363 . S
C816 H819 0.929 . S
C817 C816 1.363 . S
C817 C823 1.428 . S
H818 C814 0.930 . S
H819 C816 0.929 . S
S820 N821 1.613 . S
S820 N822 1.610 . S
N821 S820 1.613 . S
N821 C824 1.350 . S
N822 S820 1.610 . S
N822 C823 1.351 . S
C823 C817 1.428 . S
C823 N822 1.351 . S
C823 C824 1.434 . S
C824 C815 1.429 . S
C824 N821 1.350 . S
C824 C823 1.434 . S
C825 C826 1.369 . S
C825 C827 1.419 . S
C825 H829 0.930 . S
C826 C825 1.369 . S
C826 C835 1.429 . S
C827 C825 1.419 . S
C827 C828 1.363 . S
C827 H830 0.929 . S
C828 C827 1.363 . S
C828 C834 1.428 . S
H829 C825 0.930 . S
H830 C827 0.929 . S
S831 N832 1.613 . S
S831 N833 1.610 . S
N832 S831 1.613 . S
N832 C835 1.350 . S
N833 S831 1.610 . S
N833 C834 1.351 . S
C834 C828 1.428 . S
C834 N833 1.351 . S
C834 C835 1.434 . S
C835 C826 1.429 . S
C835 N832 1.350 . S
C835 C834 1.434 . S
C836 C837 1.369 . S
C836 C838 1.419 . S
C836 H840 0.930 . S
C837 C836 1.369 . S
C837 C846 1.429 . S
C838 C836 1.419 . S
C838 C839 1.363 . S
C838 H841 0.929 . S
C839 C838 1.363 . S
C839 C845 1.428 . S
H840 C836 0.930 . S
H841 C838 0.929 . S
S842 N843 1.613 . S
S842 N844 1.610 . S
N843 S842 1.613 . S
N843 C846 1.350 . S
N844 S842 1.610 . S
N844 C845 1.351 . S
C845 C839 1.428 . S
C845 N844 1.351 . S
C845 C846 1.434 . S
C846 C837 1.429 . S
C846 N843 1.350 . S
C846 C845 1.434 . S
C847 C848 1.369 . S
C847 C849 1.419 . S
C847 H851 0.930 . S
C848 C847 1.369 . S
C848 C857 1.429 . S
C849 C847 1.419 . S
C849 C850 1.363 . S
C849 H852 0.929 . S
C850 C849 1.363 . S
C850 C856 1.428 . S
H851 C847 0.930 . S
H852 C849 0.929 . S
S853 N854 1.613 . S
S853 N855 1.610 . S
N854 S853 1.613 . S
N854 C857 1.350 . S
N855 S853 1.610 . S
N855 C856 1.351 . S
C856 C850 1.428 . S
C856 N855 1.351 . S
C856 C857 1.434 . S
C857 C848 1.429 . S
C857 N854 1.350 . S
C857 C856 1.434 . S
C858 C859 1.369 . S
C858 C860 1.419 . S
C858 H862 0.930 . S
C859 C858 1.369 . S
C859 C868 1.429 . S
C860 C858 1.419 . S
C860 C861 1.363 . S
C860 H863 0.929 . S
C861 C860 1.363 . S
C861 C867 1.428 . S
H862 C858 0.930 . S
H863 C860 0.929 . S
S864 N865 1.613 . S
S864 N866 1.610 . S
N865 S864 1.613 . S
N865 C868 1.350 . S
N866 S864 1.610 . S
N866 C867 1.351 . S
C867 C861 1.428 . S
C867 N866 1.351 . S
C867 C868 1.434 . S
C868 C859 1.429 . S
C868 N865 1.350 . S
C868 C867 1.434 . S
C869 C870 1.369 . S
C869 C871 1.419 . S
C869 H873 0.930 . S
C870 C869 1.369 . S
C870 C879 1.429 . S
C871 C869 1.419 . S
C871 C872 1.363 . S
C871 H874 0.929 . S
C872 C871 1.363 . S
C872 C878 1.428 . S
H873 C869 0.930 . S
H874 C871 0.929 . S
S875 N876 1.613 . S
S875 N877 1.610 . S
N876 S875 1.613 . S
N876 C879 1.350 . S
N877 S875 1.610 . S
N877 C878 1.351 . S
C878 C872 1.428 . S
C878 N877 1.351 . S
C878 C879 1.434 . S
C879 C870 1.429 . S
C879 N876 1.350 . S
C879 C878 1.434 . S
C880 C881 1.369 . S
C880 C882 1.419 . S
C880 H884 0.930 . S
C881 C880 1.369 . S
C881 C890 1.429 . S
C882 C880 1.419 . S
C882 C883 1.363 . S
C882 H885 0.929 . S
C883 C882 1.363 . S
C883 C889 1.428 . S
H884 C880 0.930 . S
H885 C882 0.929 . S
S886 N887 1.613 . S
S886 N888 1.610 . S
N887 S886 1.613 . S
N887 C890 1.350 . S
N888 S886 1.610 . S
N888 C889 1.351 . S
C889 C883 1.428 . S
C889 N888 1.351 . S
C889 C890 1.434 . S
C890 C881 1.429 . S
C890 N887 1.350 . S
C890 C889 1.434 . S
C891 C892 1.369 . S
C891 C893 1.419 . S
C891 H895 0.930 . S
C892 C891 1.369 . S
C892 C901 1.429 . S
C893 C891 1.419 . S
C893 C894 1.363 . S
C893 H896 0.929 . S
C894 C893 1.363 . S
C894 C900 1.428 . S
H895 C891 0.930 . S
H896 C893 0.929 . S
S897 N898 1.613 . S
S897 N899 1.610 . S
N898 S897 1.613 . S
N898 C901 1.350 . S
N899 S897 1.610 . S
N899 C900 1.351 . S
C900 C894 1.428 . S
C900 N899 1.351 . S
C900 C901 1.434 . S
C901 C892 1.429 . S
C901 N898 1.350 . S
C901 C900 1.434 . S
C902 C903 1.369 . S
C902 C904 1.419 . S
C902 H906 0.930 . S
C903 C902 1.369 . S
C903 C912 1.429 . S
C904 C902 1.419 . S
C904 C905 1.363 . S
C904 H907 0.929 . S
C905 C904 1.363 . S
C905 C911 1.428 . S
H906 C902 0.930 . S
H907 C904 0.929 . S
S908 N909 1.613 . S
S908 N910 1.610 . S
N909 S908 1.613 . S
N909 C912 1.350 . S
N910 S908 1.610 . S
N910 C911 1.351 . S
C911 C905 1.428 . S
C911 N910 1.351 . S
C911 C912 1.434 . S
C912 C903 1.429 . S
C912 N909 1.350 . S
C912 C911 1.434 . S
C913 C914 1.369 . S
C913 C915 1.419 . S
C913 H917 0.930 . S
C914 C913 1.369 . S
C914 C923 1.429 . S
C915 C913 1.419 . S
C915 C916 1.363 . S
C915 H918 0.929 . S
C916 C915 1.363 . S
C916 C922 1.428 . S
H917 C913 0.930 . S
H918 C915 0.929 . S
S919 N920 1.613 . S
S919 N921 1.610 . S
N920 S919 1.613 . S
N920 C923 1.350 . S
N921 S919 1.610 . S
N921 C922 1.351 . S
C922 C916 1.428 . S
C922 N921 1.351 . S
C922 C923 1.434 . S
C923 C914 1.429 . S
C923 N920 1.350 . S
C923 C922 1.434 . S
C924 C925 1.369 . S
C924 C926 1.419 . S
C924 H928 0.930 . S
C925 C924 1.369 . S
C925 C934 1.429 . S
C926 C924 1.419 . S
C926 C927 1.363 . S
C926 H929 0.929 . S
C927 C926 1.363 . S
C927 C933 1.428 . S
H928 C924 0.930 . S
H929 C926 0.929 . S
S930 N931 1.613 . S
S930 N932 1.610 . S
N931 S930 1.613 . S
N931 C934 1.350 . S
N932 S930 1.610 . S
N932 C933 1.351 . S
C933 C927 1.428 . S
C933 N932 1.351 . S
C933 C934 1.434 . S
C934 C925 1.429 . S
C934 N931 1.350 . S
C934 C933 1.434 . S
C935 C936 1.369 . S
C935 C937 1.419 . S
C935 H939 0.930 . S
C936 C935 1.369 . S
C936 C945 1.429 . S
C937 C935 1.419 . S
C937 C938 1.363 . S
C937 H940 0.929 . S
C938 C937 1.363 . S
C938 C944 1.428 . S
H939 C935 0.930 . S
H940 C937 0.929 . S
S941 N942 1.613 . S
S941 N943 1.610 . S
N942 S941 1.613 . S
N942 C945 1.350 . S
N943 S941 1.610 . S
N943 C944 1.351 . S
C944 C938 1.428 . S
C944 N943 1.351 . S
C944 C945 1.434 . S
C945 C936 1.429 . S
C945 N942 1.350 . S
C945 C944 1.434 . S
C946 C947 1.369 . S
C946 C948 1.419 . S
C946 H950 0.930 . S
C947 C946 1.369 . S
C947 C956 1.429 . S
C948 C946 1.419 . S
C948 C949 1.363 . S
C948 H951 0.929 . S
C949 C948 1.363 . S
C949 C955 1.428 . S
H950 C946 0.930 . S
H951 C948 0.929 . S
S952 N953 1.613 . S
S952 N954 1.610 . S
N953 S952 1.613 . S
N953 C956 1.350 . S
N954 S952 1.610 . S
N954 C955 1.351 . S
C955 C949 1.428 . S
C955 N954 1.351 . S
C955 C956 1.434 . S
C956 C947 1.429 . S
C956 N953 1.350 . S
C956 C955 1.434 . S
C957 C958 1.369 . S
C957 C959 1.419 . S
C957 H961 0.930 . S
C958 C957 1.369 . S
C958 C967 1.429 . S
C959 C957 1.419 . S
C959 C960 1.363 . S
C959 H962 0.929 . S
C960 C959 1.363 . S
C960 C966 1.428 . S
H961 C957 0.930 . S
H962 C959 0.929 . S
S963 N964 1.613 . S
S963 N965 1.610 . S
N964 S963 1.613 . S
N964 C967 1.350 . S
N965 S963 1.610 . S
N965 C966 1.351 . S
C966 C960 1.428 . S
C966 N965 1.351 . S
C966 C967 1.434 . S
C967 C958 1.429 . S
C967 N964 1.350 . S
C967 C966 1.434 . S
C968 C969 1.369 . S
C968 C970 1.419 . S
C968 H972 0.930 . S
C969 C968 1.369 . S
C969 C978 1.429 . S
C970 C968 1.419 . S
C970 C971 1.363 . S
C970 H973 0.929 . S
C971 C970 1.363 . S
C971 C977 1.428 . S
H972 C968 0.930 . S
H973 C970 0.929 . S
S974 N975 1.613 . S
S974 N976 1.610 . S
N975 S974 1.613 . S
N975 C978 1.350 . S
N976 S974 1.610 . S
N976 C977 1.351 . S
C977 C971 1.428 . S
C977 N976 1.351 . S
C977 C978 1.434 . S
C978 C969 1.429 . S
C978 N975 1.350 . S
C978 C977 1.434 . S
C979 C980 1.369 . S
C979 C981 1.419 . S
C979 H983 0.930 . S
C980 C979 1.369 . S
C980 C989 1.429 . S
C981 C979 1.419 . S
C981 C982 1.363 . S
C981 H984 0.929 . S
C982 C981 1.363 . S
C982 C988 1.428 . S
H983 C979 0.930 . S
H984 C981 0.929 . S
S985 N986 1.613 . S
S985 N987 1.610 . S
N986 S985 1.613 . S
N986 C989 1.350 . S
N987 S985 1.610 . S
N987 C988 1.351 . S
C988 C982 1.428 . S
C988 N987 1.351 . S
C988 C989 1.434 . S
C989 C980 1.429 . S
C989 N986 1.350 . S
C989 C988 1.434 . S
C990 C991 1.369 . S
C990 C992 1.419 . S
C990 H994 0.930 . S
C991 C990 1.369 . S
C991 C1000 1.429 . S
C992 C990 1.419 . S
C992 C993 1.363 . S
C992 H995 0.929 . S
C993 C992 1.363 . S
C993 C999 1.428 . S
H994 C990 0.930 . S
H995 C992 0.929 . S
S996 N997 1.613 . S
S996 N998 1.610 . S
N997 S996 1.613 . S
N997 C1000 1.350 . S
N998 S996 1.610 . S
N998 C999 1.351 . S
C999 C993 1.428 . S
C999 N998 1.351 . S
C999 C1000 1.434 . S
C1000 C991 1.429 . S
C1000 N997 1.350 . S
C1000 C999 1.434 . S
C1001 C1002 1.369 . S
C1001 C1003 1.419 . S
C1001 H1005 0.930 . S
C1002 C1001 1.369 . S
C1002 C1011 1.429 . S
C1003 C1001 1.419 . S
C1003 C1004 1.363 . S
C1003 H1006 0.929 . S
C1004 C1003 1.363 . S
C1004 C1010 1.428 . S
H1005 C1001 0.930 . S
H1006 C1003 0.929 . S
S1007 N1008 1.613 . S
S1007 N1009 1.610 . S
N1008 S1007 1.613 . S
N1008 C1011 1.350 . S
N1009 S1007 1.610 . S
N1009 C1010 1.351 . S
C1010 C1004 1.428 . S
C1010 N1009 1.351 . S
C1010 C1011 1.434 . S
C1011 C1002 1.429 . S
C1011 N1008 1.350 . S
C1011 C1010 1.434 . S
C1012 C1013 1.369 . S
C1012 C1014 1.419 . S
C1012 H1016 0.930 . S
C1013 C1012 1.369 . S
C1013 C1022 1.429 . S
C1014 C1012 1.419 . S
C1014 C1015 1.363 . S
C1014 H1017 0.929 . S
C1015 C1014 1.363 . S
C1015 C1021 1.428 . S
H1016 C1012 0.930 . S
H1017 C1014 0.929 . S
S1018 N1019 1.613 . S
S1018 N1020 1.610 . S
N1019 S1018 1.613 . S
N1019 C1022 1.350 . S
N1020 S1018 1.610 . S
N1020 C1021 1.351 . S
C1021 C1015 1.428 . S
C1021 N1020 1.351 . S
C1021 C1022 1.434 . S
C1022 C1013 1.429 . S
C1022 N1019 1.350 . S
C1022 C1021 1.434 . S
C1023 C1024 1.369 . S
C1023 C1025 1.419 . S
C1023 H1027 0.930 . S
C1024 C1023 1.369 . S
C1024 C1033 1.429 . S
C1025 C1023 1.419 . S
C1025 C1026 1.363 . S
C1025 H1028 0.929 . S
C1026 C1025 1.363 . S
C1026 C1032 1.428 . S
H1027 C1023 0.930 . S
H1028 C1025 0.929 . S
S1029 N1030 1.613 . S
S1029 N1031 1.610 . S
N1030 S1029 1.613 . S
N1030 C1033 1.350 . S
N1031 S1029 1.610 . S
N1031 C1032 1.351 . S
C1032 C1026 1.428 . S
C1032 N1031 1.351 . S
C1032 C1033 1.434 . S
C1033 C1024 1.429 . S
C1033 N1030 1.350 . S
C1033 C1032 1.434 . S
C1034 C1035 1.369 . S
C1034 C1036 1.419 . S
C1034 H1038 0.930 . S
C1035 C1034 1.369 . S
C1035 C1044 1.429 . S
C1036 C1034 1.419 . S
C1036 C1037 1.363 . S
C1036 H1039 0.929 . S
C1037 C1036 1.363 . S
C1037 C1043 1.428 . S
H1038 C1034 0.930 . S
H1039 C1036 0.929 . S
S1040 N1041 1.613 . S
S1040 N1042 1.610 . S
N1041 S1040 1.613 . S
N1041 C1044 1.350 . S
N1042 S1040 1.610 . S
N1042 C1043 1.351 . S
C1043 C1037 1.428 . S
C1043 N1042 1.351 . S
C1043 C1044 1.434 . S
C1044 C1035 1.429 . S
C1044 N1041 1.350 . S
C1044 C1043 1.434 . S
C1045 C1046 1.369 . S
C1045 C1047 1.419 . S
C1045 H1049 0.930 . S
C1046 C1045 1.369 . S
C1046 C1055 1.429 . S
C1047 C1045 1.419 . S
C1047 C1048 1.363 . S
C1047 H1050 0.929 . S
C1048 C1047 1.363 . S
C1048 C1054 1.428 . S
H1049 C1045 0.930 . S
H1050 C1047 0.929 . S
S1051 N1052 1.613 . S
S1051 N1053 1.610 . S
N1052 S1051 1.613 . S
N1052 C1055 1.350 . S
N1053 S1051 1.610 . S
N1053 C1054 1.351 . S
C1054 C1048 1.428 . S
C1054 N1053 1.351 . S
C1054 C1055 1.434 . S
C1055 C1046 1.429 . S
C1055 N1052 1.350 . S
C1055 C1054 1.434 . S
C1056 C1057 1.369 . S
C1056 C1058 1.419 . S
C1056 H1060 0.930 . S
C1057 C1056 1.369 . S
C1057 C1066 1.429 . S
C1058 C1056 1.419 . S
C1058 C1059 1.363 . S
C1058 H1061 0.929 . S
C1059 C1058 1.363 . S
C1059 C1065 1.428 . S
H1060 C1056 0.930 . S
H1061 C1058 0.929 . S
S1062 N1063 1.613 . S
S1062 N1064 1.610 . S
N1063 S1062 1.613 . S
N1063 C1066 1.350 . S
N1064 S1062 1.610 . S
N1064 C1065 1.351 . S
C1065 C1059 1.428 . S
C1065 N1064 1.351 . S
C1065 C1066 1.434 . S
C1066 C1057 1.429 . S
C1066 N1063 1.350 . S
C1066 C1065 1.434 . S
C1067 C1068 1.369 . S
C1067 C1069 1.419 . S
C1067 H1071 0.930 . S
C1068 C1067 1.369 . S
C1068 C1077 1.429 . S
C1069 C1067 1.419 . S
C1069 C1070 1.363 . S
C1069 H1072 0.929 . S
C1070 C1069 1.363 . S
C1070 C1076 1.428 . S
H1071 C1067 0.930 . S
H1072 C1069 0.929 . S
S1073 N1074 1.613 . S
S1073 N1075 1.610 . S
N1074 S1073 1.613 . S
N1074 C1077 1.350 . S
N1075 S1073 1.610 . S
N1075 C1076 1.351 . S
C1076 C1070 1.428 . S
C1076 N1075 1.351 . S
C1076 C1077 1.434 . S
C1077 C1068 1.429 . S
C1077 N1074 1.350 . S
C1077 C1076 1.434 . S
C1078 C1079 1.369 . S
C1078 C1080 1.419 . S
C1078 H1082 0.930 . S
C1079 C1078 1.369 . S
C1079 C1088 1.429 . S
C1080 C1078 1.419 . S
C1080 C1081 1.363 . S
C1080 H1083 0.929 . S
C1081 C1080 1.363 . S
C1081 C1087 1.428 . S
H1082 C1078 0.930 . S
H1083 C1080 0.929 . S
S1084 N1085 1.613 . S
S1084 N1086 1.610 . S
N1085 S1084 1.613 . S
N1085 C1088 1.350 . S
N1086 S1084 1.610 . S
N1086 C1087 1.351 . S
C1087 C1081 1.428 . S
C1087 N1086 1.351 . S
C1087 C1088 1.434 . S
C1088 C1079 1.429 . S
C1088 N1085 1.350 . S
C1088 C1087 1.434 . S
C1089 C1090 1.369 . S
C1089 C1091 1.419 . S
C1089 H1093 0.930 . S
C1090 C1089 1.369 . S
C1090 C1099 1.429 . S
C1091 C1089 1.419 . S
C1091 C1092 1.363 . S
C1091 H1094 0.929 . S
C1092 C1091 1.363 . S
C1092 C1098 1.428 . S
H1093 C1089 0.930 . S
H1094 C1091 0.929 . S
S1095 N1096 1.613 . S
S1095 N1097 1.610 . S
N1096 S1095 1.613 . S
N1096 C1099 1.350 . S
N1097 S1095 1.610 . S
N1097 C1098 1.351 . S
C1098 C1092 1.428 . S
C1098 N1097 1.351 . S
C1098 C1099 1.434 . S
C1099 C1090 1.429 . S
C1099 N1096 1.350 . S
C1099 C1098 1.434 . S
C1100 C1101 1.369 . S
C1100 C1102 1.419 . S
C1100 H1104 0.930 . S
C1101 C1100 1.369 . S
C1101 C1110 1.429 . S
C1102 C1100 1.419 . S
C1102 C1103 1.363 . S
C1102 H1105 0.929 . S
C1103 C1102 1.363 . S
C1103 C1109 1.428 . S
H1104 C1100 0.930 . S
H1105 C1102 0.929 . S
S1106 N1107 1.613 . S
S1106 N1108 1.610 . S
N1107 S1106 1.613 . S
N1107 C1110 1.350 . S
N1108 S1106 1.610 . S
N1108 C1109 1.351 . S
C1109 C1103 1.428 . S
C1109 N1108 1.351 . S
C1109 C1110 1.434 . S
C1110 C1101 1.429 . S
C1110 N1107 1.350 . S
C1110 C1109 1.434 . S
C1111 C1112 1.369 . S
C1111 C1113 1.419 . S
C1111 H1115 0.930 . S
C1112 C1111 1.369 . S
C1112 C1121 1.429 . S
C1113 C1111 1.419 . S
C1113 C1114 1.363 . S
C1113 H1116 0.929 . S
C1114 C1113 1.363 . S
C1114 C1120 1.428 . S
H1115 C1111 0.930 . S
H1116 C1113 0.929 . S
S1117 N1118 1.613 . S
S1117 N1119 1.610 . S
N1118 S1117 1.613 . S
N1118 C1121 1.350 . S
N1119 S1117 1.610 . S
N1119 C1120 1.351 . S
C1120 C1114 1.428 . S
C1120 N1119 1.351 . S
C1120 C1121 1.434 . S
C1121 C1112 1.429 . S
C1121 N1118 1.350 . S
C1121 C1120 1.434 . S
C1122 C1123 1.369 . S
C1122 C1124 1.419 . S
C1122 H1126 0.930 . S
C1123 C1122 1.369 . S
C1123 C1132 1.429 . S
C1124 C1122 1.419 . S
C1124 C1125 1.363 . S
C1124 H1127 0.929 . S
C1125 C1124 1.363 . S
C1125 C1131 1.428 . S
H1126 C1122 0.930 . S
H1127 C1124 0.929 . S
S1128 N1129 1.613 . S
S1128 N1130 1.610 . S
N1129 S1128 1.613 . S
N1129 C1132 1.350 . S
N1130 S1128 1.610 . S
N1130 C1131 1.351 . S
C1131 C1125 1.428 . S
C1131 N1130 1.351 . S
C1131 C1132 1.434 . S
C1132 C1123 1.429 . S
C1132 N1129 1.350 . S
C1132 C1131 1.434 . S
C1133 C1134 1.369 . S
C1133 C1135 1.419 . S
C1133 H1137 0.930 . S
C1134 C1133 1.369 . S
C1134 C1143 1.429 . S
C1135 C1133 1.419 . S
C1135 C1136 1.363 . S
C1135 H1138 0.929 . S
C1136 C1135 1.363 . S
C1136 C1142 1.428 . S
H1137 C1133 0.930 . S
H1138 C1135 0.929 . S
S1139 N1140 1.613 . S
S1139 N1141 1.610 . S
N1140 S1139 1.613 . S
N1140 C1143 1.350 . S
N1141 S1139 1.610 . S
N1141 C1142 1.351 . S
C1142 C1136 1.428 . S
C1142 N1141 1.351 . S
C1142 C1143 1.434 . S
C1143 C1134 1.429 . S
C1143 N1140 1.350 . S
C1143 C1142 1.434 . S
C1144 C1145 1.369 . S
C1144 C1146 1.419 . S
C1144 H1148 0.930 . S
C1145 C1144 1.369 . S
C1145 C1154 1.429 . S
C1146 C1144 1.419 . S
C1146 C1147 1.363 . S
C1146 H1149 0.929 . S
C1147 C1146 1.363 . S
C1147 C1153 1.428 . S
H1148 C1144 0.930 . S
H1149 C1146 0.929 . S
S1150 N1151 1.613 . S
S1150 N1152 1.610 . S
N1151 S1150 1.613 . S
N1151 C1154 1.350 . S
N1152 S1150 1.610 . S
N1152 C1153 1.351 . S
C1153 C1147 1.428 . S
C1153 N1152 1.351 . S
C1153 C1154 1.434 . S
C1154 C1145 1.429 . S
C1154 N1151 1.350 . S
C1154 C1153 1.434 . S
C1155 C1156 1.369 . S
C1155 C1157 1.419 . S
C1155 H1159 0.930 . S
C1156 C1155 1.369 . S
C1156 C1165 1.429 . S
C1157 C1155 1.419 . S
C1157 C1158 1.363 . S
C1157 H1160 0.929 . S
C1158 C1157 1.363 . S
C1158 C1164 1.428 . S
H1159 C1155 0.930 . S
H1160 C1157 0.929 . S
S1161 N1162 1.613 . S
S1161 N1163 1.610 . S
N1162 S1161 1.613 . S
N1162 C1165 1.350 . S
N1163 S1161 1.610 . S
N1163 C1164 1.351 . S
C1164 C1158 1.428 . S
C1164 N1163 1.351 . S
C1164 C1165 1.434 . S
C1165 C1156 1.429 . S
C1165 N1162 1.350 . S
C1165 C1164 1.434 . S
C1166 C1167 1.369 . S
C1166 C1168 1.419 . S
C1166 H1170 0.930 . S
C1167 C1166 1.369 . S
C1167 C1176 1.429 . S
C1168 C1166 1.419 . S
C1168 C1169 1.363 . S
C1168 H1171 0.929 . S
C1169 C1168 1.363 . S
C1169 C1175 1.428 . S
H1170 C1166 0.930 . S
H1171 C1168 0.929 . S
S1172 N1173 1.613 . S
S1172 N1174 1.610 . S
N1173 S1172 1.613 . S
N1173 C1176 1.350 . S
N1174 S1172 1.610 . S
N1174 C1175 1.351 . S
C1175 C1169 1.428 . S
C1175 N1174 1.351 . S
C1175 C1176 1.434 . S
C1176 C1167 1.429 . S
C1176 N1173 1.350 . S
C1176 C1175 1.434 . S
C1177 C1178 1.369 . S
C1177 C1179 1.419 . S
C1177 H1181 0.930 . S
C1178 C1177 1.369 . S
C1178 C1187 1.429 . S
C1179 C1177 1.419 . S
C1179 C1180 1.363 . S
C1179 H1182 0.929 . S
C1180 C1179 1.363 . S
C1180 C1186 1.428 . S
H1181 C1177 0.930 . S
H1182 C1179 0.929 . S
S1183 N1184 1.613 . S
S1183 N1185 1.610 . S
N1184 S1183 1.613 . S
N1184 C1187 1.350 . S
N1185 S1183 1.610 . S
N1185 C1186 1.351 . S
C1186 C1180 1.428 . S
C1186 N1185 1.351 . S
C1186 C1187 1.434 . S
C1187 C1178 1.429 . S
C1187 N1184 1.350 . S
C1187 C1186 1.434 . S
C1188 C1189 1.369 . S
C1188 C1190 1.419 . S
C1188 H1192 0.930 . S
C1189 C1188 1.369 . S
C1189 C1198 1.429 . S
C1190 C1188 1.419 . S
C1190 C1191 1.363 . S
C1190 H1193 0.929 . S
C1191 C1190 1.363 . S
C1191 C1197 1.428 . S
H1192 C1188 0.930 . S
H1193 C1190 0.929 . S
S1194 N1195 1.613 . S
S1194 N1196 1.610 . S
N1195 S1194 1.613 . S
N1195 C1198 1.350 . S
N1196 S1194 1.610 . S
N1196 C1197 1.351 . S
C1197 C1191 1.428 . S
C1197 N1196 1.351 . S
C1197 C1198 1.434 . S
C1198 C1189 1.429 . S
C1198 N1195 1.350 . S
C1198 C1197 1.434 . S
C1199 C1200 1.369 . S
C1199 C1201 1.419 . S
C1199 H1203 0.930 . S
C1200 C1199 1.369 . S
C1200 C1209 1.429 . S
C1201 C1199 1.419 . S
C1201 C1202 1.363 . S
C1201 H1204 0.929 . S
C1202 C1201 1.363 . S
C1202 C1208 1.428 . S
H1203 C1199 0.930 . S
H1204 C1201 0.929 . S
S1205 N1206 1.613 . S
S1205 N1207 1.610 . S
N1206 S1205 1.613 . S
N1206 C1209 1.350 . S
N1207 S1205 1.610 . S
N1207 C1208 1.351 . S
C1208 C1202 1.428 . S
C1208 N1207 1.351 . S
C1208 C1209 1.434 . S
C1209 C1200 1.429 . S
C1209 N1206 1.350 . S
C1209 C1208 1.434 . S
C1210 C1211 1.369 . S
C1210 C1212 1.419 . S
C1210 H1214 0.930 . S
C1211 C1210 1.369 . S
C1211 C1220 1.429 . S
C1212 C1210 1.419 . S
C1212 C1213 1.363 . S
C1212 H1215 0.929 . S
C1213 C1212 1.363 . S
C1213 C1219 1.428 . S
H1214 C1210 0.930 . S
H1215 C1212 0.929 . S
S1216 N1217 1.613 . S
S1216 N1218 1.610 . S
N1217 S1216 1.613 . S
N1217 C1220 1.350 . S
N1218 S1216 1.610 . S
N1218 C1219 1.351 . S
C1219 C1213 1.428 . S
C1219 N1218 1.351 . S
C1219 C1220 1.434 . S
C1220 C1211 1.429 . S
C1220 N1217 1.350 . S
C1220 C1219 1.434 . S
C1221 C1222 1.369 . S
C1221 C1223 1.419 . S
C1221 H1225 0.930 . S
C1222 C1221 1.369 . S
C1222 C1231 1.429 . S
C1223 C1221 1.419 . S
C1223 C1224 1.363 . S
C1223 H1226 0.929 . S
C1224 C1223 1.363 . S
C1224 C1230 1.428 . S
H1225 C1221 0.930 . S
H1226 C1223 0.929 . S
S1227 N1228 1.613 . S
S1227 N1229 1.610 . S
N1228 S1227 1.613 . S
N1228 C1231 1.350 . S
N1229 S1227 1.610 . S
N1229 C1230 1.351 . S
C1230 C1224 1.428 . S
C1230 N1229 1.351 . S
C1230 C1231 1.434 . S
C1231 C1222 1.429 . S
C1231 N1228 1.350 . S
C1231 C1230 1.434 . S
C1232 C1233 1.369 . S
C1232 C1234 1.419 . S
C1232 H1236 0.930 . S
C1233 C1232 1.369 . S
C1233 C1242 1.429 . S
C1234 C1232 1.419 . S
C1234 C1235 1.363 . S
C1234 H1237 0.929 . S
C1235 C1234 1.363 . S
C1235 C1241 1.428 . S
H1236 C1232 0.930 . S
H1237 C1234 0.929 . S
S1238 N1239 1.613 . S
S1238 N1240 1.610 . S
N1239 S1238 1.613 . S
N1239 C1242 1.350 . S
N1240 S1238 1.610 . S
N1240 C1241 1.351 . S
C1241 C1235 1.428 . S
C1241 N1240 1.351 . S
C1241 C1242 1.434 . S
C1242 C1233 1.429 . S
C1242 N1239 1.350 . S
C1242 C1241 1.434 . S
C1243 C1244 1.369 . S
C1243 C1245 1.419 . S
C1243 H1247 0.930 . S
C1244 C1243 1.369 . S
C1244 C1253 1.429 . S
C1245 C1243 1.419 . S
C1245 C1246 1.363 . S
C1245 H1248 0.929 . S
C1246 C1245 1.363 . S
C1246 C1252 1.428 . S
H1247 C1243 0.930 . S
H1248 C1245 0.929 . S
S1249 N1250 1.613 . S
S1249 N1251 1.610 . S
N1250 S1249 1.613 . S
N1250 C1253 1.350 . S
N1251 S1249 1.610 . S
N1251 C1252 1.351 . S
C1252 C1246 1.428 . S
C1252 N1251 1.351 . S
C1252 C1253 1.434 . S
C1253 C1244 1.429 . S
C1253 N1250 1.350 . S
C1253 C1252 1.434 . S
C1254 C1255 1.369 . S
C1254 C1256 1.419 . S
C1254 H1258 0.930 . S
C1255 C1254 1.369 . S
C1255 C1264 1.429 . S
C1256 C1254 1.419 . S
C1256 C1257 1.363 . S
C1256 H1259 0.929 . S
C1257 C1256 1.363 . S
C1257 C1263 1.428 . S
H1258 C1254 0.930 . S
H1259 C1256 0.929 . S
S1260 N1261 1.613 . S
S1260 N1262 1.610 . S
N1261 S1260 1.613 . S
N1261 C1264 1.350 . S
N1262 S1260 1.610 . S
N1262 C1263 1.351 . S
C1263 C1257 1.428 . S
C1263 N1262 1.351 . S
C1263 C1264 1.434 . S
C1264 C1255 1.429 . S
C1264 N1261 1.350 . S
C1264 C1263 1.434 . S
C1265 C1266 1.369 . S
C1265 C1267 1.419 . S
C1265 H1269 0.930 . S
C1266 C1265 1.369 . S
C1266 C1275 1.429 . S
C1267 C1265 1.419 . S
C1267 C1268 1.363 . S
C1267 H1270 0.929 . S
C1268 C1267 1.363 . S
C1268 C1274 1.428 . S
H1269 C1265 0.930 . S
H1270 C1267 0.929 . S
S1271 N1272 1.613 . S
S1271 N1273 1.610 . S
N1272 S1271 1.613 . S
N1272 C1275 1.350 . S
N1273 S1271 1.610 . S
N1273 C1274 1.351 . S
C1274 C1268 1.428 . S
C1274 N1273 1.351 . S
C1274 C1275 1.434 . S
C1275 C1266 1.429 . S
C1275 N1272 1.350 . S
C1275 C1274 1.434 . S
C1276 C1277 1.369 . S
C1276 C1278 1.419 . S
C1276 H1280 0.930 . S
C1277 C1276 1.369 . S
C1277 C1286 1.429 . S
C1278 C1276 1.419 . S
C1278 C1279 1.363 . S
C1278 H1281 0.929 . S
C1279 C1278 1.363 . S
C1279 C1285 1.428 . S
H1280 C1276 0.930 . S
H1281 C1278 0.929 . S
S1282 N1283 1.613 . S
S1282 N1284 1.610 . S
N1283 S1282 1.613 . S
N1283 C1286 1.350 . S
N1284 S1282 1.610 . S
N1284 C1285 1.351 . S
C1285 C1279 1.428 . S
C1285 N1284 1.351 . S
C1285 C1286 1.434 . S
C1286 C1277 1.429 . S
C1286 N1283 1.350 . S
C1286 C1285 1.434 . S
C1287 C1288 1.369 . S
C1287 C1289 1.419 . S
C1287 H1291 0.930 . S
C1288 C1287 1.369 . S
C1288 C1297 1.429 . S
C1289 C1287 1.419 . S
C1289 C1290 1.363 . S
C1289 H1292 0.929 . S
C1290 C1289 1.363 . S
C1290 C1296 1.428 . S
H1291 C1287 0.930 . S
H1292 C1289 0.929 . S
S1293 N1294 1.613 . S
S1293 N1295 1.610 . S
N1294 S1293 1.613 . S
N1294 C1297 1.350 . S
N1295 S1293 1.610 . S
N1295 C1296 1.351 . S
C1296 C1290 1.428 . S
C1296 N1295 1.351 . S
C1296 C1297 1.434 . S
C1297 C1288 1.429 . S
C1297 N1294 1.350 . S
C1297 C1296 1.434 . S
C1298 C1299 1.369 . S
C1298 C1300 1.419 . S
C1298 H1302 0.930 . S
C1299 C1298 1.369 . S
C1299 C1308 1.429 . S
C1300 C1298 1.419 . S
C1300 C1301 1.363 . S
C1300 H1303 0.929 . S
C1301 C1300 1.363 . S
C1301 C1307 1.428 . S
H1302 C1298 0.930 . S
H1303 C1300 0.929 . S
S1304 N1305 1.613 . S
S1304 N1306 1.610 . S
N1305 S1304 1.613 . S
N1305 C1308 1.350 . S
N1306 S1304 1.610 . S
N1306 C1307 1.351 . S
C1307 C1301 1.428 . S
C1307 N1306 1.351 . S
C1307 C1308 1.434 . S
C1308 C1299 1.429 . S
C1308 N1305 1.350 . S
C1308 C1307 1.434 . S
C1309 C1310 1.369 . S
C1309 C1311 1.419 . S
C1309 H1313 0.930 . S
C1310 C1309 1.369 . S
C1310 C1319 1.429 . S
C1311 C1309 1.419 . S
C1311 C1312 1.363 . S
C1311 H1314 0.929 . S
C1312 C1311 1.363 . S
C1312 C1318 1.428 . S
H1313 C1309 0.930 . S
H1314 C1311 0.929 . S
S1315 N1316 1.613 . S
S1315 N1317 1.610 . S
N1316 S1315 1.613 . S
N1316 C1319 1.350 . S
N1317 S1315 1.610 . S
N1317 C1318 1.351 . S
C1318 C1312 1.428 . S
C1318 N1317 1.351 . S
C1318 C1319 1.434 . S
C1319 C1310 1.429 . S
C1319 N1316 1.350 . S
C1319 C1318 1.434 . S
C1320 C1321 1.369 . S
C1320 C1322 1.419 . S
C1320 H1324 0.930 . S
C1321 C1320 1.369 . S
C1321 C1330 1.429 . S
C1322 C1320 1.419 . S
C1322 C1323 1.363 . S
C1322 H1325 0.929 . S
C1323 C1322 1.363 . S
C1323 C1329 1.428 . S
H1324 C1320 0.930 . S
H1325 C1322 0.929 . S
S1326 N1327 1.613 . S
S1326 N1328 1.610 . S
N1327 S1326 1.613 . S
N1327 C1330 1.350 . S
N1328 S1326 1.610 . S
N1328 C1329 1.351 . S
C1329 C1323 1.428 . S
C1329 N1328 1.351 . S
C1329 C1330 1.434 . S
C1330 C1321 1.429 . S
C1330 N1327 1.350 . S
C1330 C1329 1.434 . S
C1331 C1332 1.369 . S
C1331 C1333 1.419 . S
C1331 H1335 0.930 . S
C1332 C1331 1.369 . S
C1332 C1341 1.429 . S
C1333 C1331 1.419 . S
C1333 C1334 1.363 . S
C1333 H1336 0.929 . S
C1334 C1333 1.363 . S
C1334 C1340 1.428 . S
H1335 C1331 0.930 . S
H1336 C1333 0.929 . S
S1337 N1338 1.613 . S
S1337 N1339 1.610 . S
N1338 S1337 1.613 . S
N1338 C1341 1.350 . S
N1339 S1337 1.610 . S
N1339 C1340 1.351 . S
C1340 C1334 1.428 . S
C1340 N1339 1.351 . S
C1340 C1341 1.434 . S
C1341 C1332 1.429 . S
C1341 N1338 1.350 . S
C1341 C1340 1.434 . S
C1342 C1343 1.369 . S
C1342 C1344 1.419 . S
C1342 H1346 0.930 . S
C1343 C1342 1.369 . S
C1343 C1352 1.429 . S
C1344 C1342 1.419 . S
C1344 C1345 1.363 . S
C1344 H1347 0.929 . S
C1345 C1344 1.363 . S
C1345 C1351 1.428 . S
H1346 C1342 0.930 . S
H1347 C1344 0.929 . S
S1348 N1349 1.613 . S
S1348 N1350 1.610 . S
N1349 S1348 1.613 . S
N1349 C1352 1.350 . S
N1350 S1348 1.610 . S
N1350 C1351 1.351 . S
C1351 C1345 1.428 . S
C1351 N1350 1.351 . S
C1351 C1352 1.434 . S
C1352 C1343 1.429 . S
C1352 N1349 1.350 . S
C1352 C1351 1.434 . S
C1353 C1354 1.369 . S
C1353 C1355 1.419 . S
C1353 H1357 0.930 . S
C1354 C1353 1.369 . S
C1354 C1363 1.429 . S
C1355 C1353 1.419 . S
C1355 C1356 1.363 . S
C1355 H1358 0.929 . S
C1356 C1355 1.363 . S
C1356 C1362 1.428 . S
H1357 C1353 0.930 . S
H1358 C1355 0.929 . S
S1359 N1360 1.613 . S
S1359 N1361 1.610 . S
N1360 S1359 1.613 . S
N1360 C1363 1.350 . S
N1361 S1359 1.610 . S
N1361 C1362 1.351 . S
C1362 C1356 1.428 . S
C1362 N1361 1.351 . S
C1362 C1363 1.434 . S
C1363 C1354 1.429 . S
C1363 N1360 1.350 . S
C1363 C1362 1.434 . S
C1364 C1365 1.369 . S
C1364 C1366 1.419 . S
C1364 H1368 0.930 . S
C1365 C1364 1.369 . S
C1365 C1374 1.429 . S
C1366 C1364 1.419 . S
C1366 C1367 1.363 . S
C1366 H1369 0.929 . S
C1367 C1366 1.363 . S
C1367 C1373 1.428 . S
H1368 C1364 0.930 . S
H1369 C1366 0.929 . S
S1370 N1371 1.613 . S
S1370 N1372 1.610 . S
N1371 S1370 1.613 . S
N1371 C1374 1.350 . S
N1372 S1370 1.610 . S
N1372 C1373 1.351 . S
C1373 C1367 1.428 . S
C1373 N1372 1.351 . S
C1373 C1374 1.434 . S
C1374 C1365 1.429 . S
C1374 N1371 1.350 . S
C1374 C1373 1.434 . S
C1375 C1376 1.369 . S
C1375 C1377 1.419 . S
C1375 H1379 0.930 . S
C1376 C1375 1.369 . S
C1376 C1385 1.429 . S
C1377 C1375 1.419 . S
C1377 C1378 1.363 . S
C1377 H1380 0.929 . S
C1378 C1377 1.363 . S
C1378 C1384 1.428 . S
H1379 C1375 0.930 . S
H1380 C1377 0.929 . S
S1381 N1382 1.613 . S
S1381 N1383 1.610 . S
N1382 S1381 1.613 . S
N1382 C1385 1.350 . S
N1383 S1381 1.610 . S
N1383 C1384 1.351 . S
C1384 C1378 1.428 . S
C1384 N1383 1.351 . S
C1384 C1385 1.434 . S
C1385 C1376 1.429 . S
C1385 N1382 1.350 . S
C1385 C1384 1.434 . S
C1386 C1387 1.369 . S
C1386 C1388 1.419 . S
C1386 H1390 0.930 . S
C1387 C1386 1.369 . S
C1387 C1396 1.429 . S
C1388 C1386 1.419 . S
C1388 C1389 1.363 . S
C1388 H1391 0.929 . S
C1389 C1388 1.363 . S
C1389 C1395 1.428 . S
H1390 C1386 0.930 . S
H1391 C1388 0.929 . S
S1392 N1393 1.613 . S
S1392 N1394 1.610 . S
N1393 S1392 1.613 . S
N1393 C1396 1.350 . S
N1394 S1392 1.610 . S
N1394 C1395 1.351 . S
C1395 C1389 1.428 . S
C1395 N1394 1.351 . S
C1395 C1396 1.434 . S
C1396 C1387 1.429 . S
C1396 N1393 1.350 . S
C1396 C1395 1.434 . S
C1397 C1398 1.369 . S
C1397 C1399 1.419 . S
C1397 H1401 0.930 . S
C1398 C1397 1.369 . S
C1398 C1407 1.429 . S
C1399 C1397 1.419 . S
C1399 C1400 1.363 . S
C1399 H1402 0.929 . S
C1400 C1399 1.363 . S
C1400 C1406 1.428 . S
H1401 C1397 0.930 . S
H1402 C1399 0.929 . S
S1403 N1404 1.613 . S
S1403 N1405 1.610 . S
N1404 S1403 1.613 . S
N1404 C1407 1.350 . S
N1405 S1403 1.610 . S
N1405 C1406 1.351 . S
C1406 C1400 1.428 . S
C1406 N1405 1.351 . S
C1406 C1407 1.434 . S
C1407 C1398 1.429 . S
C1407 N1404 1.350 . S
C1407 C1406 1.434 . S
C1408 C1409 1.369 1_655 S
C1408 C1410 1.419 . S
C1408 H1412 0.930 . S
C1409 C1408 1.369 1_455 S
C1409 C1418 1.429 . S
C1410 C1408 1.419 . S
C1410 C1411 1.363 . S
C1410 H1413 0.929 . S
C1411 C1410 1.363 . S
C1411 C1417 1.428 1_655 S
H1412 C1408 0.930 . S
H1413 C1410 0.929 . S
S1414 N1415 1.613 . S
S1414 N1416 1.610 . S
N1415 S1414 1.613 . S
N1415 C1418 1.350 . S
N1416 S1414 1.610 . S
N1416 C1417 1.351 . S
C1417 C1411 1.428 1_455 S
C1417 N1416 1.351 . S
C1417 C1418 1.434 . S
C1418 C1409 1.429 . S
C1418 N1415 1.350 . S
C1418 C1417 1.434 . S
C1419 C1420 1.369 . S
C1419 C1421 1.419 . S
C1419 H1423 0.930 . S
C1420 C1419 1.369 . S
C1420 C1429 1.429 1_565 S
C1421 C1419 1.419 . S
C1421 C1422 1.363 1_565 S
C1421 H1424 0.929 . S
C1422 C1421 1.363 1_545 S
C1422 C1428 1.428 . S
H1423 C1419 0.930 . S
H1424 C1421 0.929 . S
S1425 N1426 1.613 . S
S1425 N1427 1.610 . S
N1426 S1425 1.613 . S
N1426 C1429 1.350 . S
N1427 S1425 1.610 . S
N1427 C1428 1.351 . S
C1428 C1422 1.428 . S
C1428 N1427 1.351 . S
C1428 C1429 1.434 . S
C1429 C1420 1.429 1_545 S
C1429 N1426 1.350 . S
C1429 C1428 1.434 . S
C1430 C1431 1.369 . S
C1430 C1432 1.419 . S
C1430 H1434 0.930 . S
C1431 C1430 1.369 . S
C1431 C1440 1.429 1_655 S
C1432 C1430 1.419 . S
C1432 C1433 1.363 1_655 S
C1432 H1435 0.929 . S
C1433 C1432 1.363 1_455 S
C1433 C1439 1.428 . S
H1434 C1430 0.930 . S
H1435 C1432 0.929 . S
S1436 N1437 1.613 . S
S1436 N1438 1.610 . S
N1437 S1436 1.613 . S
N1437 C1440 1.350 . S
N1438 S1436 1.610 . S
N1438 C1439 1.351 . S
C1439 C1433 1.428 . S
C1439 N1438 1.351 . S
C1439 C1440 1.434 . S
C1440 C1431 1.429 1_455 S
C1440 N1437 1.350 . S
C1440 C1439 1.434 . S
C1441 C1442 1.369 1_565 S
C1441 C1443 1.419 . S
C1441 H1445 0.930 . S
C1442 C1441 1.369 1_545 S
C1442 C1451 1.429 . S
C1443 C1441 1.419 . S
C1443 C1444 1.363 . S
C1443 H1446 0.929 . S
C1444 C1443 1.363 . S
C1444 C1450 1.428 1_565 S
H1445 C1441 0.930 . S
H1446 C1443 0.929 . S
S1447 N1448 1.613 . S
S1447 N1449 1.610 . S
N1448 S1447 1.613 . S
N1448 C1451 1.350 . S
N1449 S1447 1.610 . S
N1449 C1450 1.351 . S
C1450 C1444 1.428 1_545 S
C1450 N1449 1.351 . S
C1450 C1451 1.434 . S
C1451 C1442 1.429 . S
C1451 N1448 1.350 . S
C1451 C1450 1.434 . S
C1452 C1453 1.369 . S
C1452 C1454 1.419 1_655 S
C1452 H1456 0.930 . S
C1453 C1452 1.369 . S
C1453 C1462 1.429 . S
C1454 C1452 1.419 1_455 S
C1454 C1455 1.363 . S
C1454 H1457 0.929 . S
C1455 C1454 1.363 . S
C1455 C1461 1.428 . S
H1456 C1452 0.930 . S
H1457 C1454 0.929 . S
S1458 N1459 1.613 . S
S1458 N1460 1.610 1_655 S
N1459 S1458 1.613 . S
N1459 C1462 1.350 . S
N1460 S1458 1.610 1_455 S
N1460 C1461 1.351 . S
C1461 C1455 1.428 . S
C1461 N1460 1.351 . S
C1461 C1462 1.434 1_455 S
C1462 C1453 1.429 . S
C1462 N1459 1.350 . S
C1462 C1461 1.434 1_655 S
C1463 C1464 1.369 . S
C1463 C1465 1.419 . S
C1463 H1467 0.930 . S
C1464 C1463 1.369 . S
C1464 C1473 1.429 1_545 S
C1465 C1463 1.419 . S
C1465 C1466 1.363 1_545 S
C1465 H1468 0.929 . S
C1466 C1465 1.363 1_565 S
C1466 C1472 1.428 . S
H1467 C1463 0.930 . S
H1468 C1465 0.929 . S
S1469 N1470 1.613 . S
S1469 N1471 1.610 . S
N1470 S1469 1.613 . S
N1470 C1473 1.350 . S
N1471 S1469 1.610 . S
N1471 C1472 1.351 . S
C1472 C1466 1.428 . S
C1472 N1471 1.351 . S
C1472 C1473 1.434 . S
C1473 C1464 1.429 1_565 S
C1473 N1470 1.350 . S
C1473 C1472 1.434 . S
C1474 C1475 1.369 1_455 S
C1474 C1476 1.419 . S
C1474 H1478 0.930 . S
C1475 C1474 1.369 1_655 S
C1475 C1484 1.429 . S
C1476 C1474 1.419 . S
C1476 C1477 1.363 . S
C1476 H1479 0.929 . S
C1477 C1476 1.363 . S
C1477 C1483 1.428 1_455 S
H1478 C1474 0.930 . S
H1479 C1476 0.929 . S
S1480 N1481 1.613 . S
S1480 N1482 1.610 . S
N1481 S1480 1.613 . S
N1481 C1484 1.350 . S
N1482 S1480 1.610 . S
N1482 C1483 1.351 . S
C1483 C1477 1.428 1_655 S
C1483 N1482 1.351 . S
C1483 C1484 1.434 . S
C1484 C1475 1.429 . S
C1484 N1481 1.350 . S
C1484 C1483 1.434 . S
C1485 C1486 1.369 1_545 S
C1485 C1487 1.419 . S
C1485 H1489 0.930 . S
C1486 C1485 1.369 1_565 S
C1486 C1495 1.429 . S
C1487 C1485 1.419 . S
C1487 C1488 1.363 . S
C1487 H1490 0.929 . S
C1488 C1487 1.363 . S
C1488 C1494 1.428 1_545 S
H1489 C1485 0.930 . S
H1490 C1487 0.929 . S
S1491 N1492 1.613 . S
S1491 N1493 1.610 . S
N1492 S1491 1.613 . S
N1492 C1495 1.350 . S
N1493 S1491 1.610 . S
N1493 C1494 1.351 . S
C1494 C1488 1.428 1_565 S
C1494 N1493 1.351 . S
C1494 C1495 1.434 . S
C1495 C1486 1.429 . S
C1495 N1492 1.350 . S
C1495 C1494 1.434 . S
C1496 C1497 1.369 . S
C1496 C1498 1.419 . S
C1496 H1500 0.930 . S
C1497 C1496 1.369 . S
C1497 C1506 1.429 . S
C1498 C1496 1.419 . S
C1498 C1499 1.363 . S
C1498 H1501 0.929 . S
C1499 C1498 1.363 . S
C1499 C1505 1.428 . S
H1500 C1496 0.930 . S
H1501 C1498 0.929 . S
S1502 N1503 1.613 . S
S1502 N1504 1.610 . S
N1503 S1502 1.613 . S
N1503 C1506 1.350 . S
N1504 S1502 1.610 . S
N1504 C1505 1.351 . S
C1505 C1499 1.428 . S
C1505 N1504 1.351 . S
C1505 C1506 1.434 . S
C1506 C1497 1.429 . S
C1506 N1503 1.350 . S
C1506 C1505 1.434 . S
C1507 C1508 1.369 . S
C1507 C1509 1.419 . S
C1507 H1511 0.930 . S
C1508 C1507 1.369 . S
C1508 C1517 1.429 . S
C1509 C1507 1.419 . S
C1509 C1510 1.363 . S
C1509 H1512 0.929 . S
C1510 C1509 1.363 . S
C1510 C1516 1.428 . S
H1511 C1507 0.930 . S
H1512 C1509 0.929 . S
S1513 N1514 1.613 . S
S1513 N1515 1.610 . S
N1514 S1513 1.613 . S
N1514 C1517 1.350 . S
N1515 S1513 1.610 . S
N1515 C1516 1.351 . S
C1516 C1510 1.428 . S
C1516 N1515 1.351 . S
C1516 C1517 1.434 . S
C1517 C1508 1.429 . S
C1517 N1514 1.350 . S
C1517 C1516 1.434 . S
C1518 C1519 1.369 . S
C1518 C1520 1.419 . S
C1518 H1522 0.930 . S
C1519 C1518 1.369 . S
C1519 C1528 1.429 . S
C1520 C1518 1.419 . S
C1520 C1521 1.363 . S
C1520 H1523 0.929 . S
C1521 C1520 1.363 . S
C1521 C1527 1.428 . S
H1522 C1518 0.930 . S
H1523 C1520 0.929 . S
S1524 N1525 1.613 . S
S1524 N1526 1.610 . S
N1525 S1524 1.613 . S
N1525 C1528 1.350 . S
N1526 S1524 1.610 . S
N1526 C1527 1.351 . S
C1527 C1521 1.428 . S
C1527 N1526 1.351 . S
C1527 C1528 1.434 . S
C1528 C1519 1.429 . S
C1528 N1525 1.350 . S
C1528 C1527 1.434 . S
C1529 C1530 1.369 . S
C1529 C1531 1.419 . S
C1529 H1533 0.930 . S
C1530 C1529 1.369 . S
C1530 C1539 1.429 . S
C1531 C1529 1.419 . S
C1531 C1532 1.363 . S
C1531 H1534 0.929 . S
C1532 C1531 1.363 . S
C1532 C1538 1.428 . S
H1533 C1529 0.930 . S
H1534 C1531 0.929 . S
S1535 N1536 1.613 . S
S1535 N1537 1.610 . S
N1536 S1535 1.613 . S
N1536 C1539 1.350 . S
N1537 S1535 1.610 . S
N1537 C1538 1.351 . S
C1538 C1532 1.428 . S
C1538 N1537 1.351 . S
C1538 C1539 1.434 . S
C1539 C1530 1.429 . S
C1539 N1536 1.350 . S
C1539 C1538 1.434 . S
C1540 C1541 1.369 . S
C1540 C1542 1.419 . S
C1540 H1544 0.930 . S
C1541 C1540 1.369 . S
C1541 C1550 1.429 . S
C1542 C1540 1.419 . S
C1542 C1543 1.363 . S
C1542 H1545 0.929 . S
C1543 C1542 1.363 . S
C1543 C1549 1.428 . S
H1544 C1540 0.930 . S
H1545 C1542 0.929 . S
S1546 N1547 1.613 . S
S1546 N1548 1.610 . S
N1547 S1546 1.613 . S
N1547 C1550 1.350 . S
N1548 S1546 1.610 . S
N1548 C1549 1.351 . S
C1549 C1543 1.428 . S
C1549 N1548 1.351 . S
C1549 C1550 1.434 . S
C1550 C1541 1.429 . S
C1550 N1547 1.350 . S
C1550 C1549 1.434 . S
C1551 C1552 1.369 . S
C1551 C1553 1.419 . S
C1551 H1555 0.930 . S
C1552 C1551 1.369 . S
C1552 C1561 1.429 . S
C1553 C1551 1.419 . S
C1553 C1554 1.363 . S
C1553 H1556 0.929 . S
C1554 C1553 1.363 . S
C1554 C1560 1.428 . S
H1555 C1551 0.930 . S
H1556 C1553 0.929 . S
S1557 N1558 1.613 . S
S1557 N1559 1.610 . S
N1558 S1557 1.613 . S
N1558 C1561 1.350 . S
N1559 S1557 1.610 . S
N1559 C1560 1.351 . S
C1560 C1554 1.428 . S
C1560 N1559 1.351 . S
C1560 C1561 1.434 . S
C1561 C1552 1.429 . S
C1561 N1558 1.350 . S
C1561 C1560 1.434 . S
C1562 C1563 1.369 . S
C1562 C1564 1.419 . S
C1562 H1566 0.930 . S
C1563 C1562 1.369 . S
C1563 C1572 1.429 . S
C1564 C1562 1.419 . S
C1564 C1565 1.363 . S
C1564 H1567 0.929 . S
C1565 C1564 1.363 . S
C1565 C1571 1.428 . S
H1566 C1562 0.930 . S
H1567 C1564 0.929 . S
S1568 N1569 1.613 . S
S1568 N1570 1.610 . S
N1569 S1568 1.613 . S
N1569 C1572 1.350 . S
N1570 S1568 1.610 . S
N1570 C1571 1.351 . S
C1571 C1565 1.428 . S
C1571 N1570 1.351 . S
C1571 C1572 1.434 . S
C1572 C1563 1.429 . S
C1572 N1569 1.350 . S
C1572 C1571 1.434 . S
C1573 C1574 1.369 . S
C1573 C1575 1.419 . S
C1573 H1577 0.930 . S
C1574 C1573 1.369 . S
C1574 C1583 1.429 . S
C1575 C1573 1.419 . S
C1575 C1576 1.363 . S
C1575 H1578 0.929 . S
C1576 C1575 1.363 . S
C1576 C1582 1.428 . S
H1577 C1573 0.930 . S
H1578 C1575 0.929 . S
S1579 N1580 1.613 . S
S1579 N1581 1.610 . S
N1580 S1579 1.613 . S
N1580 C1583 1.350 . S
N1581 S1579 1.610 . S
N1581 C1582 1.351 . S
C1582 C1576 1.428 . S
C1582 N1581 1.351 . S
C1582 C1583 1.434 . S
C1583 C1574 1.429 . S
C1583 N1580 1.350 . S
C1583 C1582 1.434 . S
C1584 C1585 1.369 . S
C1584 C1586 1.419 1_556 S
C1584 H1588 0.930 . S
C1585 C1584 1.369 . S
C1585 C1594 1.429 . S
C1586 C1584 1.419 1_554 S
C1586 C1587 1.363 . S
C1586 H1589 0.929 . S
C1587 C1586 1.363 . S
C1587 C1593 1.428 . S
H1588 C1584 0.930 . S
H1589 C1586 0.929 . S
S1590 N1591 1.616 1_554 S
S1590 N1592 1.608 . S
N1591 S1590 1.616 1_556 S
N1591 C1594 1.350 . S
N1592 S1590 1.608 . S
N1592 C1593 1.351 . S
C1593 C1587 1.428 . S
C1593 N1592 1.351 . S
C1593 C1594 1.434 1_554 S
C1594 C1585 1.429 . S
C1594 N1591 1.350 . S
C1594 C1593 1.434 1_556 S
C1595 C1596 1.369 . S
C1595 C1597 1.419 1_554 S
C1595 H1599 0.930 . S
C1596 C1595 1.369 . S
C1596 C1605 1.429 . S
C1597 C1595 1.419 1_556 S
C1597 C1598 1.363 . S
C1597 H1600 0.929 . S
C1598 C1597 1.363 . S
C1598 C1604 1.428 . S
H1599 C1595 0.930 . S
H1600 C1597 0.929 . S
S1601 N1602 1.616 1_556 S
S1601 N1603 1.608 . S
N1602 S1601 1.616 1_554 S
N1602 C1605 1.350 . S
N1603 S1601 1.608 . S
N1603 C1604 1.351 . S
C1604 C1598 1.428 . S
C1604 N1603 1.351 . S
C1604 C1605 1.434 1_556 S
C1605 C1596 1.429 . S
C1605 N1602 1.350 . S
C1605 C1604 1.434 1_554 S
C1606 C1607 1.369 . S
C1606 C1608 1.419 1_556 S
C1606 H1610 0.930 . S
C1607 C1606 1.369 . S
C1607 C1616 1.429 . S
C1608 C1606 1.419 1_554 S
C1608 C1609 1.363 . S
C1608 H1611 0.929 . S
C1609 C1608 1.363 . S
C1609 C1615 1.428 . S
H1610 C1606 0.930 . S
H1611 C1608 0.929 . S
S1612 N1613 1.616 1_554 S
S1612 N1614 1.608 . S
N1613 S1612 1.616 1_556 S
N1613 C1616 1.350 . S
N1614 S1612 1.608 . S
N1614 C1615 1.351 . S
C1615 C1609 1.428 . S
C1615 N1614 1.351 . S
C1615 C1616 1.434 1_554 S
C1616 C1607 1.429 . S
C1616 N1613 1.350 . S
C1616 C1615 1.434 1_556 S
C1617 C1618 1.369 . S
C1617 C1619 1.419 1_556 S
C1617 H1621 0.930 . S
C1618 C1617 1.369 . S
C1618 C1627 1.429 . S
C1619 C1617 1.419 1_554 S
C1619 C1620 1.363 . S
C1619 H1622 0.929 . S
C1620 C1619 1.363 . S
C1620 C1626 1.428 . S
H1621 C1617 0.930 . S
H1622 C1619 0.929 . S
S1623 N1624 1.616 1_554 S
S1623 N1625 1.608 . S
N1624 S1623 1.616 1_556 S
N1624 C1627 1.350 . S
N1625 S1623 1.608 . S
N1625 C1626 1.351 . S
C1626 C1620 1.428 . S
C1626 N1625 1.351 . S
C1626 C1627 1.434 1_554 S
C1627 C1618 1.429 . S
C1627 N1624 1.350 . S
C1627 C1626 1.434 1_556 S
C1628 C1629 1.369 . S
C1628 C1630 1.419 . S
C1628 H1632 0.930 . S
C1629 C1628 1.369 . S
C1629 C1638 1.429 . S
C1630 C1628 1.419 . S
C1630 C1631 1.363 . S
C1630 H1633 0.929 . S
C1631 C1630 1.363 . S
C1631 C1637 1.428 . S
H1632 C1628 0.930 . S
H1633 C1630 0.929 . S
S1634 N1635 1.613 . S
S1634 N1636 1.610 . S
N1635 S1634 1.613 . S
N1635 C1638 1.350 . S
N1636 S1634 1.610 . S
N1636 C1637 1.351 . S
C1637 C1631 1.428 . S
C1637 N1636 1.351 . S
C1637 C1638 1.434 . S
C1638 C1629 1.429 . S
C1638 N1635 1.350 . S
C1638 C1637 1.434 . S
C1639 C1640 1.369 . S
C1639 C1641 1.419 . S
C1639 H1643 0.930 . S
C1640 C1639 1.369 . S
C1640 C1649 1.429 . S
C1641 C1639 1.419 . S
C1641 C1642 1.363 . S
C1641 H1644 0.929 . S
C1642 C1641 1.363 . S
C1642 C1648 1.428 . S
H1643 C1639 0.930 . S
H1644 C1641 0.929 . S
S1645 N1646 1.613 . S
S1645 N1647 1.610 . S
N1646 S1645 1.613 . S
N1646 C1649 1.350 . S
N1647 S1645 1.610 . S
N1647 C1648 1.351 . S
C1648 C1642 1.428 . S
C1648 N1647 1.351 . S
C1648 C1649 1.434 . S
C1649 C1640 1.429 . S
C1649 N1646 1.350 . S
C1649 C1648 1.434 . S
C1650 C1651 1.369 . S
C1650 C1652 1.419 . S
C1650 H1654 0.930 . S
C1651 C1650 1.369 . S
C1651 C1660 1.429 . S
C1652 C1650 1.419 . S
C1652 C1653 1.363 . S
C1652 H1655 0.929 . S
C1653 C1652 1.363 . S
C1653 C1659 1.428 . S
H1654 C1650 0.930 . S
H1655 C1652 0.929 . S
S1656 N1657 1.613 . S
S1656 N1658 1.610 . S
N1657 S1656 1.613 . S
N1657 C1660 1.350 . S
N1658 S1656 1.610 . S
N1658 C1659 1.351 . S
C1659 C1653 1.428 . S
C1659 N1658 1.351 . S
C1659 C1660 1.434 . S
C1660 C1651 1.429 . S
C1660 N1657 1.350 . S
C1660 C1659 1.434 . S
C1661 C1662 1.369 . S
C1661 C1663 1.419 . S
C1661 H1665 0.930 . S
C1662 C1661 1.369 . S
C1662 C1671 1.429 . S
C1663 C1661 1.419 . S
C1663 C1664 1.363 . S
C1663 H1666 0.929 . S
C1664 C1663 1.363 . S
C1664 C1670 1.428 . S
H1665 C1661 0.930 . S
H1666 C1663 0.929 . S
S1667 N1668 1.613 . S
S1667 N1669 1.610 . S
N1668 S1667 1.613 . S
N1668 C1671 1.350 . S
N1669 S1667 1.610 . S
N1669 C1670 1.351 . S
C1670 C1664 1.428 . S
C1670 N1669 1.351 . S
C1670 C1671 1.434 . S
C1671 C1662 1.429 . S
C1671 N1668 1.350 . S
C1671 C1670 1.434 . S
C1672 C1673 1.369 . S
C1672 C1674 1.419 . S
C1672 H1676 0.930 . S
C1673 C1672 1.369 . S
C1673 C1682 1.429 . S
C1674 C1672 1.419 . S
C1674 C1675 1.363 . S
C1674 H1677 0.929 . S
C1675 C1674 1.363 . S
C1675 C1681 1.428 . S
H1676 C1672 0.930 . S
H1677 C1674 0.929 . S
S1678 N1679 1.613 . S
S1678 N1680 1.610 . S
N1679 S1678 1.613 . S
N1679 C1682 1.350 . S
N1680 S1678 1.610 . S
N1680 C1681 1.351 . S
C1681 C1675 1.428 . S
C1681 N1680 1.351 . S
C1681 C1682 1.434 . S
C1682 C1673 1.429 . S
C1682 N1679 1.350 . S
C1682 C1681 1.434 . S
C1683 C1684 1.369 . S
C1683 C1685 1.419 . S
C1683 H1687 0.930 . S
C1684 C1683 1.369 . S
C1684 C1693 1.429 . S
C1685 C1683 1.419 . S
C1685 C1686 1.363 . S
C1685 H1688 0.929 . S
C1686 C1685 1.363 . S
C1686 C1692 1.428 . S
H1687 C1683 0.930 . S
H1688 C1685 0.929 . S
S1689 N1690 1.613 . S
S1689 N1691 1.610 . S
N1690 S1689 1.613 . S
N1690 C1693 1.350 . S
N1691 S1689 1.610 . S
N1691 C1692 1.351 . S
C1692 C1686 1.428 . S
C1692 N1691 1.351 . S
C1692 C1693 1.434 . S
C1693 C1684 1.429 . S
C1693 N1690 1.350 . S
C1693 C1692 1.434 . S
C1694 C1695 1.369 . S
C1694 C1696 1.419 . S
C1694 H1698 0.930 . S
C1695 C1694 1.369 . S
C1695 C1704 1.429 . S
C1696 C1694 1.419 . S
C1696 C1697 1.363 . S
C1696 H1699 0.929 . S
C1697 C1696 1.363 . S
C1697 C1703 1.428 . S
H1698 C1694 0.930 . S
H1699 C1696 0.929 . S
S1700 N1701 1.613 . S
S1700 N1702 1.610 . S
N1701 S1700 1.613 . S
N1701 C1704 1.350 . S
N1702 S1700 1.610 . S
N1702 C1703 1.351 . S
C1703 C1697 1.428 . S
C1703 N1702 1.351 . S
C1703 C1704 1.434 . S
C1704 C1695 1.429 . S
C1704 N1701 1.350 . S
C1704 C1703 1.434 . S
C1705 C1706 1.369 . S
C1705 C1707 1.419 . S
C1705 H1709 0.930 . S
C1706 C1705 1.369 . S
C1706 C1715 1.429 . S
C1707 C1705 1.419 . S
C1707 C1708 1.363 . S
C1707 H1710 0.929 . S
C1708 C1707 1.363 . S
C1708 C1714 1.428 . S
H1709 C1705 0.930 . S
H1710 C1707 0.929 . S
S1711 N1712 1.613 . S
S1711 N1713 1.610 . S
N1712 S1711 1.613 . S
N1712 C1715 1.350 . S
N1713 S1711 1.610 . S
N1713 C1714 1.351 . S
C1714 C1708 1.428 . S
C1714 N1713 1.351 . S
C1714 C1715 1.434 . S
C1715 C1706 1.429 . S
C1715 N1712 1.350 . S
C1715 C1714 1.434 . S
C1716 C1717 1.369 . S
C1716 C1718 1.419 1_554 S
C1716 H1720 0.930 . S
C1717 C1716 1.369 . S
C1717 C1726 1.429 . S
C1718 C1716 1.419 1_556 S
C1718 C1719 1.363 . S
C1718 H1721 0.929 . S
C1719 C1718 1.363 . S
C1719 C1725 1.428 . S
H1720 C1716 0.930 . S
H1721 C1718 0.929 . S
S1722 N1723 1.616 1_556 S
S1722 N1724 1.608 . S
N1723 S1722 1.616 1_554 S
N1723 C1726 1.350 . S
N1724 S1722 1.608 . S
N1724 C1725 1.351 . S
C1725 C1719 1.428 . S
C1725 N1724 1.351 . S
C1725 C1726 1.434 1_556 S
C1726 C1717 1.429 . S
C1726 N1723 1.350 . S
C1726 C1725 1.434 1_554 S
C1727 C1728 1.369 . S
C1727 C1729 1.419 1_556 S
C1727 H1731 0.930 . S
C1728 C1727 1.369 . S
C1728 C1737 1.429 . S
C1729 C1727 1.419 1_554 S
C1729 C1730 1.363 . S
C1729 H1732 0.929 . S
C1730 C1729 1.363 . S
C1730 C1736 1.428 . S
H1731 C1727 0.930 . S
H1732 C1729 0.929 . S
S1733 N1734 1.616 1_554 S
S1733 N1735 1.608 . S
N1734 S1733 1.616 1_556 S
N1734 C1737 1.350 . S
N1735 S1733 1.608 . S
N1735 C1736 1.351 . S
C1736 C1730 1.428 . S
C1736 N1735 1.351 . S
C1736 C1737 1.434 1_554 S
C1737 C1728 1.429 . S
C1737 N1734 1.350 . S
C1737 C1736 1.434 1_556 S
C1738 C1739 1.369 . S
C1738 C1740 1.419 1_556 S
C1738 H1742 0.930 . S
C1739 C1738 1.369 . S
C1739 C1748 1.429 . S
C1740 C1738 1.419 1_554 S
C1740 C1741 1.363 . S
C1740 H1743 0.929 . S
C1741 C1740 1.363 . S
C1741 C1747 1.428 . S
H1742 C1738 0.930 . S
H1743 C1740 0.929 . S
S1744 N1745 1.616 1_554 S
S1744 N1746 1.608 . S
N1745 S1744 1.616 1_556 S
N1745 C1748 1.350 . S
N1746 S1744 1.608 . S
N1746 C1747 1.351 . S
C1747 C1741 1.428 . S
C1747 N1746 1.351 . S
C1747 C1748 1.434 1_554 S
C1748 C1739 1.429 . S
C1748 N1745 1.350 . S
C1748 C1747 1.434 1_556 S
C1749 C1750 1.369 . S
C1749 C1751 1.419 1_554 S
C1749 H1753 0.930 . S
C1750 C1749 1.369 . S
C1750 C1759 1.429 . S
C1751 C1749 1.419 1_556 S
C1751 C1752 1.363 . S
C1751 H1754 0.929 . S
C1752 C1751 1.363 . S
C1752 C1758 1.428 . S
H1753 C1749 0.930 . S
H1754 C1751 0.929 . S
S1755 N1756 1.616 1_556 S
S1755 N1757 1.608 . S
N1756 S1755 1.616 1_554 S
N1756 C1759 1.350 . S
N1757 S1755 1.608 . S
N1757 C1758 1.351 . S
C1758 C1752 1.428 . S
C1758 N1757 1.351 . S
C1758 C1759 1.434 1_556 S
C1759 C1750 1.429 . S
C1759 N1756 1.350 . S
C1759 C1758 1.434 1_554 S
C705 C117 1.180 . S
C707 C7 1.180 . S
C716 C139 1.178 . S
C718 C29 1.177 . S
C727 C65 1.181 . S
C729 C169 1.180 . S
C738 C103 1.177 . S
C740 C73 1.178 . S
C749 C191 1.178 . S
C751 C307 1.178 . S
C760 C329 1.174 . S
C762 C205 1.175 . S
C771 C345 1.174 . S
C773 C235 1.174 . S
C782 C257 1.173 . S
C784 C285 1.173 . S
C793 C359 1.172 . S
C795 C469 1.174 . S
C804 C491 1.175 . S
C806 C381 1.176 . S
C815 C417 1.174 . S
C817 C521 1.173 . S
C826 C439 1.179 . S
C828 C455 1.177 . S
C837 C653 1.177 . S
C839 C535 1.177 . S
C848 C675 1.173 . S
C850 C557 1.174 . S
C859 C703 1.179 . S
C861 C593 1.178 . S
C870 C601 1.176 . S
C872 C631 1.176 . S
C881 C659 1.295 . S
C883 C15 1.295 . S
C892 C681 1.292 . S
C894 C37 1.293 . S
C903 C689 1.297 . S
C905 C51 1.297 . S
C914 C81 1.300 . S
C916 C637 1.299 . S
C925 C109 1.298 . S
C927 C609 1.298 . S
C936 C543 1.299 . S
C938 C125 1.299 . S
C947 C147 1.300 . S
C949 C565 1.299 . S
C958 C579 1.293 . S
C960 C175 1.294 . S
C969 C477 1.297 . S
C971 C197 1.296 . S
C980 C499 1.295 . S
C982 C213 1.296 . S
C991 C241 1.300 . S
C993 C527 1.299 . S
C1002 C461 1.293 . S
C1004 C263 1.293 . S
C1013 C425 1.292 . S
C1015 C271 1.293 . S
C1024 C293 1.293 . S
C1026 C367 1.294 . S
C1035 C315 1.299 . S
C1037 C389 1.299 . S
C1046 C403 1.300 . S
C1048 C351 1.299 . S
C1057 C74 1.580 1_545 S
C1059 C18 1.575 . S
C1068 C8 1.579 1_655 S
C1070 C40 1.571 . S
C1079 C52 1.573 . S
C1081 C30 1.580 1_565 S
C1090 C84 1.573 . S
C1092 C54 1.576 1_455 S
C1101 C118 1.579 1_565 S
C1103 C98 1.571 . S
C1112 C140 1.578 1_455 S
C1114 C128 1.576 . S
C1123 C172 1.579 1_545 S
C1125 C150 1.576 . S
C1134 C164 1.571 . S
C1136 C106 1.580 1_655 S
C1145 C260 1.577 1_565 S
C1147 C186 1.576 . S
C1156 C194 1.581 1_455 S
C1158 C216 1.574 . S
C1167 C230 1.570 . S
C1169 C206 1.577 1_545 S
C1178 C252 1.576 . S
C1180 C238 1.577 1_655 S
C1189 C296 1.578 1_545 S
C1191 C272 1.576 . S
C1200 C294 1.570 . S
C1202 C318 1.579 1_655 S
C1211 C316 1.570 . S
C1213 C348 1.578 1_565 S
C1222 C340 1.571 . S
C1224 C274 1.576 1_455 S
C1233 C428 1.579 . S
C1235 C370 1.576 . S
C1244 C392 1.574 . S
C1246 C360 1.576 . S
C1255 C382 1.580 . S
C1257 C404 1.575 . S
C1266 C426 1.575 . S
C1268 C406 1.577 . S
C1277 C450 1.570 . S
C1279 C470 1.578 . S
C1288 C492 1.577 . S
C1290 C480 1.571 . S
C1299 C502 1.575 . S
C1301 C524 1.576 . S
C1310 C516 1.570 . S
C1312 C458 1.576 . S
C1321 C602 1.578 . S
C1323 C546 1.571 . S
C1332 C568 1.576 . S
C1334 C536 1.577 . S
C1343 C580 1.570 . S
C1345 C558 1.579 . S
C1354 C612 1.572 . S
C1356 C582 1.576 . S
C1365 C656 1.581 . S
C1367 C626 1.572 . S
C1376 C648 1.576 . S
C1378 C678 1.578 . S
C1387 C692 1.579 . S
C1389 C670 1.576 . S
C1398 C634 1.581 . S
C1400 C690 1.573 . S
C1409 C21 1.300 . S
C1411 C153 1.298 . S
C1420 C161 1.300 . S
C1422 C43 1.302 . S
C1431 C59 1.299 . S
C1433 C95 1.301 . S
C1442 C131 1.298 . S
C1444 C87 1.297 . S
C1453 C183 1.296 . S
C1455 C323 1.296 . S
C1464 C337 1.297 . S
C1466 C219 1.301 . S
C1475 C279 1.298 . S
C1477 C227 1.296 . S
C1486 C301 1.305 . S
C1488 C249 1.302 . S
C1497 C505 1.304 . S
C1499 C373 1.303 . S
C1508 C395 1.297 . S
C1510 C513 1.300 . S
C1519 C447 1.302 . S
C1521 C411 1.303 . S
C1530 C433 1.298 . S
C1532 C483 1.297 . S
C1541 C549 1.295 . S
C1543 C667 1.297 . S
C1552 C697 1.297 . S
C1554 C571 1.296 . S
C1563 C623 1.304 . S
C1565 C587 1.301 . S
C1574 C645 1.304 . S
C1576 C615 1.303 . S
C1585 C228 1.506 . S
C1587 C10 1.506 . S
C1596 C32 1.505 . S
C1598 C250 1.506 . S
C1607 C184 1.507 . S
C1609 C62 1.507 . S
C1618 C208 1.506 . S
C1620 C76 1.506 . S
C1629 C326 1.505 . S
C1631 C96 1.505 . S
C1640 C120 1.506 . S
C1642 C338 1.506 . S
C1651 C282 1.507 . S
C1653 C142 1.507 . S
C1662 C162 1.505 . S
C1664 C304 1.505 . S
C1673 C590 1.506 . S
C1675 C362 1.506 . S
C1684 C604 1.505 . S
C1686 C384 1.506 . S
C1695 C414 1.507 . S
C1697 C538 1.507 . S
C1706 C436 1.507 . S
C1708 C560 1.507 . S
C1717 C668 1.507 . S
C1719 C448 1.507 . S
C1728 C472 1.505 . S
C1730 C700 1.505 . S
C1739 C494 1.506 . S
C1741 C624 1.506 . S
C1750 C646 1.507 . S
C1752 C514 1.507 . S
