# Generated by pormake.
# Topology unu, (4)-cn, num edge types: 1
# Building blocks:
#     Node 0, Type 0, BuildingBlock: AZAVOO_clean_sbu_0, # of connection points: 4
#     Node 1, Type 0, BuildingBlock: AZAVOO_clean_sbu_0, # of connection points: 4
#     Node 2, Type 0, BuildingBlock: AZAVOO_clean_sbu_0, # of connection points: 4
#     Node 3, Type 0, BuildingBlock: AZAVOO_clean_sbu_0, # of connection points: 4
#     Node 4, Type 0, BuildingBlock: AZAVOO_clean_sbu_0, # of connection points: 4
#     Node 5, Type 0, BuildingBlock: AZAVOO_clean_sbu_0, # of connection points: 4
#     Node 6, Type 0, BuildingBlock: AZAVOO_clean_sbu_0, # of connection points: 4
#     Node 7, Type 0, BuildingBlock: AZAVOO_clean_sbu_0, # of connection points: 4
#     Node 8, Type 0, BuildingBlock: AZAVOO_clean_sbu_0, # of connection points: 4
#     Node 9, Type 0, BuildingBlock: AZAVOO_clean_sbu_0, # of connection points: 4
#     Node 10, Type 0, BuildingBlock: AZAVOO_clean_sbu_0, # of connection points: 4
#     Node 11, Type 0, BuildingBlock: AZAVOO_clean_sbu_0, # of connection points: 4
#     Node 12, Type 0, BuildingBlock: AZAVOO_clean_sbu_0, # of connection points: 4
#     Node 13, Type 0, BuildingBlock: AZAVOO_clean_sbu_0, # of connection points: 4
#     Node 14, Type 0, BuildingBlock: AZAVOO_clean_sbu_0, # of connection points: 4
#     Node 15, Type 0, BuildingBlock: AZAVOO_clean_sbu_0, # of connection points: 4
#     Node 16, Type 0, BuildingBlock: AZAVOO_clean_sbu_0, # of connection points: 4
#     Node 17, Type 0, BuildingBlock: AZAVOO_clean_sbu_0, # of connection points: 4
#     Node 18, Type 0, BuildingBlock: AZAVOO_clean_sbu_0, # of connection points: 4
#     Node 19, Type 0, BuildingBlock: AZAVOO_clean_sbu_0, # of connection points: 4
#     Node 20, Type 0, BuildingBlock: AZAVOO_clean_sbu_0, # of connection points: 4
#     Node 21, Type 0, BuildingBlock: AZAVOO_clean_sbu_0, # of connection points: 4
#     Node 22, Type 0, BuildingBlock: AZAVOO_clean_sbu_0, # of connection points: 4
#     Node 23, Type 0, BuildingBlock: AZAVOO_clean_sbu_0, # of connection points: 4
#     Node 24, Type 0, BuildingBlock: AZAVOO_clean_sbu_0, # of connection points: 4
#     Node 25, Type 0, BuildingBlock: AZAVOO_clean_sbu_0, # of connection points: 4
#     Node 26, Type 0, BuildingBlock: AZAVOO_clean_sbu_0, # of connection points: 4
#     Node 27, Type 0, BuildingBlock: AZAVOO_clean_sbu_0, # of connection points: 4
#     Node 28, Type 0, BuildingBlock: AZAVOO_clean_sbu_0, # of connection points: 4
#     Node 29, Type 0, BuildingBlock: AZAVOO_clean_sbu_0, # of connection points: 4
#     Node 30, Type 0, BuildingBlock: AZAVOO_clean_sbu_0, # of connection points: 4
#     Node 31, Type 0, BuildingBlock: AZAVOO_clean_sbu_0, # of connection points: 4
#     Node 32, Type 0, BuildingBlock: AZAVOO_clean_sbu_0, # of connection points: 4
#     Node 33, Type 0, BuildingBlock: AZAVOO_clean_sbu_0, # of connection points: 4
#     Node 34, Type 0, BuildingBlock: AZAVOO_clean_sbu_0, # of connection points: 4
#     Node 35, Type 0, BuildingBlock: AZAVOO_clean_sbu_0, # of connection points: 4
#     Edge 36, Type (0, 0), BuildingBlock: CIFDUS_clean_linker_0, # of connection points: 2
#     Edge 37, Type (0, 0), BuildingBlock: CIFDUS_clean_linker_0, # of connection points: 2
#     Edge 38, Type (0, 0), BuildingBlock: CIFDUS_clean_linker_0, # of connection points: 2
#     Edge 39, Type (0, 0), BuildingBlock: CIFDUS_clean_linker_0, # of connection points: 2
#     Edge 40, Type (0, 0), BuildingBlock: CIFDUS_clean_linker_0, # of connection points: 2
#     Edge 41, Type (0, 0), BuildingBlock: CIFDUS_clean_linker_0, # of connection points: 2
#     Edge 42, Type (0, 0), BuildingBlock: CIFDUS_clean_linker_0, # of connection points: 2
#     Edge 43, Type (0, 0), BuildingBlock: CIFDUS_clean_linker_0, # of connection points: 2
#     Edge 44, Type (0, 0), BuildingBlock: CIFDUS_clean_linker_0, # of connection points: 2
#     Edge 45, Type (0, 0), BuildingBlock: CIFDUS_clean_linker_0, # of connection points: 2
#     Edge 46, Type (0, 0), BuildingBlock: CIFDUS_clean_linker_0, # of connection points: 2
#     Edge 47, Type (0, 0), BuildingBlock: CIFDUS_clean_linker_0, # of connection points: 2
#     Edge 48, Type (0, 0), BuildingBlock: CIFDUS_clean_linker_0, # of connection points: 2
#     Edge 49, Type (0, 0), BuildingBlock: CIFDUS_clean_linker_0, # of connection points: 2
#     Edge 50, Type (0, 0), BuildingBlock: CIFDUS_clean_linker_0, # of connection points: 2
#     Edge 51, Type (0, 0), BuildingBlock: CIFDUS_clean_linker_0, # of connection points: 2
#     Edge 52, Type (0, 0), BuildingBlock: CIFDUS_clean_linker_0, # of connection points: 2
#     Edge 53, Type (0, 0), BuildingBlock: CIFDUS_clean_linker_0, # of connection points: 2
#     Edge 54, Type (0, 0), BuildingBlock: CIFDUS_clean_linker_0, # of connection points: 2
#     Edge 55, Type (0, 0), BuildingBlock: CIFDUS_clean_linker_0, # of connection points: 2
#     Edge 56, Type (0, 0), BuildingBlock: CIFDUS_clean_linker_0, # of connection points: 2
#     Edge 57, Type (0, 0), BuildingBlock: CIFDUS_clean_linker_0, # of connection points: 2
#     Edge 58, Type (0, 0), BuildingBlock: CIFDUS_clean_linker_0, # of connection points: 2
#     Edge 59, Type (0, 0), BuildingBlock: CIFDUS_clean_linker_0, # of connection points: 2
#     Edge 60, Type (0, 0), BuildingBlock: CIFDUS_clean_linker_0, # of connection points: 2
#     Edge 61, Type (0, 0), BuildingBlock: CIFDUS_clean_linker_0, # of connection points: 2
#     Edge 62, Type (0, 0), BuildingBlock: CIFDUS_clean_linker_0, # of connection points: 2
#     Edge 63, Type (0, 0), BuildingBlock: CIFDUS_clean_linker_0, # of connection points: 2
#     Edge 64, Type (0, 0), BuildingBlock: CIFDUS_clean_linker_0, # of connection points: 2
#     Edge 65, Type (0, 0), BuildingBlock: CIFDUS_clean_linker_0, # of connection points: 2
#     Edge 66, Type (0, 0), BuildingBlock: CIFDUS_clean_linker_0, # of connection points: 2
#     Edge 67, Type (0, 0), BuildingBlock: CIFDUS_clean_linker_0, # of connection points: 2
#     Edge 68, Type (0, 0), BuildingBlock: CIFDUS_clean_linker_0, # of connection points: 2
#     Edge 69, Type (0, 0), BuildingBlock: CIFDUS_clean_linker_0, # of connection points: 2
#     Edge 70, Type (0, 0), BuildingBlock: CIFDUS_clean_linker_0, # of connection points: 2
#     Edge 71, Type (0, 0), BuildingBlock: CIFDUS_clean_linker_0, # of connection points: 2
#     Edge 72, Type (0, 0), BuildingBlock: CIFDUS_clean_linker_0, # of connection points: 2
#     Edge 73, Type (0, 0), BuildingBlock: CIFDUS_clean_linker_0, # of connection points: 2
#     Edge 74, Type (0, 0), BuildingBlock: CIFDUS_clean_linker_0, # of connection points: 2
#     Edge 75, Type (0, 0), BuildingBlock: CIFDUS_clean_linker_0, # of connection points: 2
#     Edge 76, Type (0, 0), BuildingBlock: CIFDUS_clean_linker_0, # of connection points: 2
#     Edge 77, Type (0, 0), BuildingBlock: CIFDUS_clean_linker_0, # of connection points: 2
#     Edge 78, Type (0, 0), BuildingBlock: CIFDUS_clean_linker_0, # of connection points: 2
#     Edge 79, Type (0, 0), BuildingBlock: CIFDUS_clean_linker_0, # of connection points: 2
#     Edge 80, Type (0, 0), BuildingBlock: CIFDUS_clean_linker_0, # of connection points: 2
#     Edge 81, Type (0, 0), BuildingBlock: CIFDUS_clean_linker_0, # of connection points: 2
#     Edge 82, Type (0, 0), BuildingBlock: CIFDUS_clean_linker_0, # of connection points: 2
#     Edge 83, Type (0, 0), BuildingBlock: CIFDUS_clean_linker_0, # of connection points: 2
#     Edge 84, Type (0, 0), BuildingBlock: CIFDUS_clean_linker_0, # of connection points: 2
#     Edge 85, Type (0, 0), BuildingBlock: CIFDUS_clean_linker_0, # of connection points: 2
#     Edge 86, Type (0, 0), BuildingBlock: CIFDUS_clean_linker_0, # of connection points: 2
#     Edge 87, Type (0, 0), BuildingBlock: CIFDUS_clean_linker_0, # of connection points: 2
#     Edge 88, Type (0, 0), BuildingBlock: CIFDUS_clean_linker_0, # of connection points: 2
#     Edge 89, Type (0, 0), BuildingBlock: CIFDUS_clean_linker_0, # of connection points: 2
#     Edge 90, Type (0, 0), BuildingBlock: CIFDUS_clean_linker_0, # of connection points: 2
#     Edge 91, Type (0, 0), BuildingBlock: CIFDUS_clean_linker_0, # of connection points: 2
#     Edge 92, Type (0, 0), BuildingBlock: CIFDUS_clean_linker_0, # of connection points: 2
#     Edge 93, Type (0, 0), BuildingBlock: CIFDUS_clean_linker_0, # of connection points: 2
#     Edge 94, Type (0, 0), BuildingBlock: CIFDUS_clean_linker_0, # of connection points: 2
#     Edge 95, Type (0, 0), BuildingBlock: CIFDUS_clean_linker_0, # of connection points: 2
#     Edge 96, Type (0, 0), BuildingBlock: CIFDUS_clean_linker_0, # of connection points: 2
#     Edge 97, Type (0, 0), BuildingBlock: CIFDUS_clean_linker_0, # of connection points: 2
#     Edge 98, Type (0, 0), BuildingBlock: CIFDUS_clean_linker_0, # of connection points: 2
#     Edge 99, Type (0, 0), BuildingBlock: CIFDUS_clean_linker_0, # of connection points: 2
#     Edge 100, Type (0, 0), BuildingBlock: CIFDUS_clean_linker_0, # of connection points: 2
#     Edge 101, Type (0, 0), BuildingBlock: CIFDUS_clean_linker_0, # of connection points: 2
#     Edge 102, Type (0, 0), BuildingBlock: CIFDUS_clean_linker_0, # of connection points: 2
#     Edge 103, Type (0, 0), BuildingBlock: CIFDUS_clean_linker_0, # of connection points: 2
#     Edge 104, Type (0, 0), BuildingBlock: CIFDUS_clean_linker_0, # of connection points: 2
#     Edge 105, Type (0, 0), BuildingBlock: CIFDUS_clean_linker_0, # of connection points: 2
#     Edge 106, Type (0, 0), BuildingBlock: CIFDUS_clean_linker_0, # of connection points: 2
#     Edge 107, Type (0, 0), BuildingBlock: CIFDUS_clean_linker_0, # of connection points: 2
# Relax obj value: 0.293
# Max RMSD: 0.278
# Mean RMSD: 0.278
data_MOF--net-unu--node1-AZAVOO_clean_sbu_0--edge1-CIFDUS_clean_linker_0
_symmetry_space_group_name_H-M    P1
_symmetry_Int_Tables_number       1
_symmetry_cell_setting            triclinic
loop_
_symmetry_equiv_pos_as_xyz
'x, y, z'
_cell_length_a     33.220967
_cell_length_b     33.207746
_cell_length_c     123.38055
_cell_angle_alpha  89.941409
_cell_angle_beta   90.085891
_cell_angle_gamma 120.11752
loop_
_atom_site_label
_atom_site_type_symbol
_atom_site_fract_x
_atom_site_fract_y
_atom_site_fract_z
_atom_type_partial_charge
Mg0 Mg 0.25206 0.96595 0.14294 0.0
O1 O 0.23066 0.02118 0.14082 0.0
O2 O 0.19315 0.01043 0.1251 0.0
Mg3 Mg 0.18934 0.94698 0.11711 0.0
C4 C 0.20966 0.03268 0.13392 0.0
C5 C 0.33595 0.0489 0.15609 0.0
O6 O 0.35702 0.05926 0.14666 0.0
O7 O 0.31045 0.00108 0.13022 0.0
O8 O 0.26803 0.98721 0.11515 0.0
O9 O 0.18252 0.91981 0.15052 0.0
O10 O 0.19614 0.92003 0.13302 0.0
C11 C 0.30722 0.00478 0.11998 0.0
C12 C 0.16656 0.90565 0.14085 0.0
O13 O 0.29709 0.01135 0.15706 0.0
Mg14 Mg 0.06935 0.24471 0.13369 0.0
O15 O 0.02168 0.17211 0.12658 0.0
O16 O 0.0538 0.16214 0.11168 0.0
Mg17 Mg 0.12263 0.22962 0.10923 0.0
C18 C 0.02105 0.14723 0.11863 0.0
C19 C 0.98008 0.19877 0.14838 0.0
O20 O 0.98966 0.16492 0.14855 0.0
O21 O 0.04968 0.27838 0.12031 0.0
O22 O 0.08315 0.26849 0.10566 0.0
O23 O 0.10392 0.21435 0.14341 0.0
O24 O 0.12638 0.24349 0.12695 0.0
C25 C 0.05873 0.28352 0.1102 0.0
C26 C 0.12978 0.22056 0.13501 0.0
O27 O 0.00785 0.23668 0.14361 0.0
Mg28 Mg 0.80772 0.7901 0.12549 0.0
O29 O 0.88217 0.80382 0.12358 0.0
O30 O 0.91415 0.84673 0.10877 0.0
Mg31 Mg 0.86055 0.86301 0.10157 0.0
C32 C 0.91627 0.82497 0.11708 0.0
C33 C 0.82409 0.74254 0.14495 0.0
O34 O 0.85712 0.78614 0.14611 0.0
O35 O 0.78064 0.73893 0.11136 0.0
O36 O 0.81124 0.78631 0.09714 0.0
O37 O 0.8353 0.85377 0.13556 0.0
O38 O 0.82759 0.85376 0.11776 0.0
C39 C 0.78555 0.74579 0.10115 0.0
C40 C 0.84239 0.87708 0.12666 0.0
O41 O 0.79491 0.73208 0.13727 0.0
Mg42 Mg -0.0022 0.22204 0.3689 0.0
O43 O 0.04513 0.19211 0.37288 0.0
O44 O 0.02173 0.15263 0.38847 0.0
Mg45 Mg 0.95885 0.15609 0.39431 0.0
C46 C 0.04914 0.16785 0.38037 0.0
C47 C 0.066 0.25082 0.34953 0.0
O48 O 0.04883 0.20553 0.34962 0.0
O49 O 0.03283 0.27789 0.382 0.0
O50 O 0.00627 0.23416 0.39693 0.0
O51 O 0.95013 0.15661 0.36006 0.0
O52 O 0.94353 0.16736 0.37749 0.0
C53 C 0.03073 0.27351 0.3923 0.0
C54 C 0.93013 0.13962 0.36928 0.0
O55 O 0.05105 0.26884 0.35637 0.0
Mg56 Mg 0.76178 0.75677 0.35941 0.0
O57 O 0.78587 0.83397 0.36223 0.0
O58 O 0.82775 0.85732 0.37748 0.0
Mg59 Mg 0.83141 0.7958 0.38436 0.0
C60 C 0.80979 0.86531 0.36921 0.0
C61 C 0.72419 0.78549 0.33946 0.0
O62 O 0.76869 0.81667 0.33891 0.0
O63 O 0.70698 0.73271 0.37294 0.0
O64 O 0.75334 0.75716 0.38749 0.0
O65 O 0.82831 0.77913 0.35043 0.0
O66 O 0.81968 0.76472 0.368 0.0
C67 C 0.71293 0.73695 0.3832 0.0
C68 C 0.8468 0.77957 0.35971 0.0
O69 O 0.71015 0.75474 0.34688 0.0
Mg70 Mg 0.21814 0.98472 0.37091 0.0
O71 O 0.13992 0.9352 0.37327 0.0
O72 O 0.11467 0.95893 0.38729 0.0
Mg73 Mg 0.17695 0.02516 0.39368 0.0
C74 C 0.10755 0.93063 0.37957 0.0
C75 C 0.18762 0.91107 0.35299 0.0
O76 O 0.15905 0.92714 0.35151 0.0
O77 O 0.23602 0.9559 0.38584 0.0
O78 O 0.21136 0.98375 0.39914 0.0
O79 O 0.20099 0.02741 0.35994 0.0
O80 O 0.2114 0.03863 0.37763 0.0
C81 C 0.2303 0.96068 0.39589 0.0
C82 C 0.19924 0.04873 0.36856 0.0
O83 O 0.21902 0.92957 0.36021 0.0
Mg84 Mg 0.7505 0.00228 0.87697 0.0
O85 O 0.77791 0.9522 0.87936 0.0
O86 O 0.81875 0.96768 0.89469 0.0
Mg87 Mg 0.81777 0.0296 0.90228 0.0
C88 C 0.80191 0.94382 0.88608 0.0
C89 C 0.72582 0.94396 0.85628 0.0
O90 O 0.77153 0.96663 0.85635 0.0
O91 O 0.69429 0.96477 0.88998 0.0
O92 O 0.7394 0.985 0.90474 0.0
O93 O 0.81722 0.05186 0.86872 0.0
O94 O 0.80584 0.05248 0.88633 0.0
C95 C 0.69943 0.96376 0.90023 0.0
C96 C 0.83395 0.06826 0.87822 0.0
O97 O 0.7045 0.95276 0.86365 0.0
Mg98 Mg 0.95655 0.75969 0.86107 0.0
O99 O 0.01112 0.83556 0.86471 0.0
O100 O 0.99649 0.85639 0.88075 0.0
Mg101 Mg 0.93213 0.79312 0.88747 0.0
C102 C 0.02074 0.86568 0.87214 0.0
C103 C 0.01744 0.79423 0.84062 0.0
O104 O -0.00073 0.8214 0.84079 0.0
O105 O 0.98937 0.73226 0.87316 0.0
O106 O 0.97178 0.75356 0.8888 0.0
O107 O 0.91244 0.78483 0.85347 0.0
O108 O 0.90865 0.76643 0.87081 0.0
C109 C 0.99044 0.7342 0.88349 0.0
C110 C 0.89621 0.78395 0.86306 0.0
O111 O 0.00459 0.76222 0.84769 0.0
Mg112 Mg 0.21572 0.22418 0.87048 0.0
O113 O 0.13917 0.2022 0.8731 0.0
O114 O 0.1155 0.16599 0.88903 0.0
Mg115 Mg 0.17698 0.16356 0.89648 0.0
C116 C 0.10778 0.18127 0.88026 0.0
C117 C 0.18534 0.25441 0.84992 0.0
O118 O 0.15597 0.20935 0.85004 0.0
O119 O 0.24042 0.28288 0.88287 0.0
O120 O 0.2177 0.24298 0.89838 0.0
O121 O 0.19257 0.1561 0.86252 0.0
O122 O 0.20654 0.16806 0.88009 0.0
C123 C 0.23785 0.28145 0.89319 0.0
C124 C 0.19108 0.13925 0.87208 0.0
O125 O 0.21709 0.27191 0.85709 0.0
Mg126 Mg -0.0031 0.77813 0.62504 0.0
O127 O 0.9442 0.8034 0.62353 0.0
O128 O 0.95485 0.83885 0.60753 0.0
Mg129 Mg 0.01502 0.83802 0.59902 0.0
C130 C 0.93358 0.82488 0.61656 0.0
C131 C 0.94356 0.75121 0.6466 0.0
O132 O 0.95936 0.79624 0.64619 0.0
O133 O 0.95634 0.71914 0.613 0.0
O134 O 0.97158 0.75871 0.59747 0.0
O135 O 0.04753 0.8464 0.63242 0.0
O136 O 0.04283 0.83195 0.61485 0.0
C137 C 0.95242 0.72042 0.60273 0.0
C138 C 0.06063 0.86158 0.62264 0.0
O139 O 0.95432 0.73227 0.63908 0.0
Mg140 Mg 0.22054 0.24392 0.62896 0.0
O141 O 0.19984 0.16749 0.62652 0.0
O142 O 0.17099 0.14527 0.60986 0.0
Mg143 Mg 0.17329 0.20748 0.60153 0.0
C144 C 0.18196 0.13661 0.61912 0.0
C145 C 0.23817 0.21356 0.65136 0.0
O146 O 0.19323 0.18517 0.65019 0.0
O147 O 0.28562 0.27016 0.61837 0.0
O148 O 0.25272 0.24807 0.60203 0.0
O149 O 0.14799 0.22013 0.63448 0.0
O150 O 0.17084 0.23667 0.61746 0.0
C151 C 0.2887 0.26806 0.60808 0.0
C152 C 0.13744 0.22073 0.6244 0.0
O153 O 0.26011 0.2439 0.64407 0.0
Mg154 Mg 0.75312 0.00088 0.61927 0.0
O155 O 0.83173 0.05112 0.61904 0.0
O156 O 0.86301 0.03798 0.60444 0.0
Mg157 Mg 0.80361 0.97858 0.59518 0.0
C158 C 0.86678 0.06008 0.61318 0.0
C159 C 0.77646 0.05948 0.64013 0.0
O160 O 0.80325 0.04108 0.64113 0.0
O161 O 0.74083 0.04098 0.60579 0.0
O162 O 0.77147 0.02397 0.59163 0.0
O163 O 0.76665 0.94951 0.628 0.0
O164 O 0.76201 0.95297 0.6102 0.0
C165 C 0.75094 0.04416 0.59572 0.0
C166 C 0.77082 0.9353 0.61852 0.0
O167 O 0.74848 0.04742 0.63216 0.0
Mg168 Mg 0.90868 0.35698 0.45477 0.0
O169 O 0.88323 0.40884 0.45157 0.0
O170 O 0.83877 0.38641 0.43669 0.0
Mg171 Mg 0.83394 0.31965 0.43064 0.0
C172 C 0.85824 0.41449 0.44455 0.0
C173 C 0.94358 0.42102 0.47438 0.0
O174 O 0.89837 0.40417 0.47457 0.0
O175 O 0.96053 0.38714 0.44073 0.0
O176 O 0.91149 0.36083 0.42667 0.0
O177 O 0.84572 0.31388 0.46475 0.0
O178 O 0.84903 0.30453 0.44712 0.0
C179 C 0.95263 0.38341 0.43055 0.0
C180 C 0.82454 0.29372 0.45586 0.0
O181 O 0.96088 0.40827 0.46686 0.0
Mg182 Mg 0.69493 0.59953 0.45892 0.0
O183 O 0.64401 0.52139 0.45672 0.0
O184 O 0.66264 0.49584 0.44189 0.0
Mg185 Mg 0.72648 0.55809 0.43465 0.0
C186 C 0.63703 0.48887 0.45017 0.0
C187 C 0.63068 0.56941 0.47859 0.0
O188 O 0.6497 0.54307 0.47923 0.0
O189 O 0.66142 0.6183 0.44506 0.0
O190 O 0.68348 0.59276 0.43078 0.0
O191 O 0.74039 0.58158 0.46856 0.0
O192 O 0.74611 0.59194 0.45081 0.0
C193 C 0.66217 0.61217 0.43486 0.0
C194 C 0.75845 0.57911 0.45947 0.0
O195 O 0.64386 0.59986 0.47113 0.0
Mg196 Mg 0.45261 0.13124 0.45521 0.0
O197 O 0.5283 0.15613 0.45055 0.0
O198 O 0.54353 0.1914 0.43442 0.0
Mg199 Mg 0.47754 0.18936 0.42875 0.0
C200 C 0.55594 0.17741 0.44272 0.0
C201 C 0.49215 0.10665 0.47523 0.0
O202 O 0.51916 0.1521 0.47484 0.0
O203 O 0.42578 0.07107 0.44311 0.0
O204 O 0.44218 0.11021 0.42748 0.0
O205 O 0.47606 0.19998 0.46297 0.0
O206 O 0.45481 0.18504 0.44579 0.0
C207 C 0.42605 0.07218 0.43277 0.0
C208 C 0.47256 0.21506 0.45353 0.0
O209 O 0.45938 0.0868 0.46835 0.0
Mg210 Mg 0.72508 0.6177 0.71954 0.0
O211 O 0.77033 0.58257 0.72052 0.0
O212 O 0.75678 0.54242 0.73606 0.0
Mg213 Mg 0.71733 0.56703 0.74663 0.0
C214 C 0.77585 0.55476 0.72673 0.0
C215 C 0.77187 0.6353 0.69673 0.0
O216 O 0.75656 0.59046 0.69754 0.0
O217 O 0.77557 0.68143 0.72956 0.0
O218 O 0.77812 0.63671 0.74173 0.0
O219 O 0.66651 0.55011 0.71414 0.0
O220 O 0.6804 0.56898 0.7315 0.0
C221 C 0.77238 0.67068 0.7395 0.0
C222 C 0.6569 0.53796 0.7242 0.0
O223 O 0.76298 0.65574 0.70426 0.0
Mg224 Mg 0.43656 0.15889 0.71362 0.0
O225 O 0.46854 0.2358 0.7186 0.0
O226 O 0.51017 0.24847 0.73369 0.0
Mg227 Mg 0.50494 0.17979 0.73851 0.0
C228 C 0.49497 0.263 0.72603 0.0
C229 C 0.41083 0.20171 0.69471 0.0
O230 O 0.45647 0.22672 0.69498 0.0
O231 O 0.38153 0.13263 0.72701 0.0
O232 O 0.42652 0.14374 0.74147 0.0
O233 O 0.50071 0.17752 0.70424 0.0
O234 O 0.49125 0.15614 0.72144 0.0
C235 C 0.38657 0.12902 0.73717 0.0
C236 C 0.518 0.17142 0.71308 0.0
O237 O 0.39009 0.16909 0.70159 0.0
Mg238 Mg 0.89908 0.34631 0.69936 0.0
O239 O 0.82081 0.3033 0.70276 0.0
O240 O 0.80574 0.32716 0.71838 0.0
Mg241 Mg 0.87412 0.38419 0.72516 0.0
C242 C 0.79255 0.30105 0.71003 0.0
C243 C 0.85643 0.27595 0.67994 0.0
O244 O 0.82705 0.2915 0.67992 0.0
O245 O 0.91454 0.3056 0.71211 0.0
O246 O 0.89738 0.33076 0.72723 0.0
O247 O 0.88588 0.39915 0.69122 0.0
O248 O 0.90283 0.40071 0.70858 0.0
C249 C 0.91019 0.30514 0.72239 0.0
C250 C 0.88997 0.41729 0.70074 0.0
O251 O 0.89035 0.29317 0.68656 0.0
Mg252 Mg 0.42758 0.30567 0.20261 0.0
O253 O 0.43291 0.24277 0.19658 0.0
O254 O 0.45694 0.21921 0.21095 0.0
Mg255 Mg 0.47639 0.27048 0.22487 0.0
C256 C 0.4431 0.21449 0.20114 0.0
C257 C 0.36563 0.27754 0.18013 0.0
O258 O 0.33903 0.28468 0.17346 0.0
O259 O 0.36538 0.2606 0.21357 0.0
O260 O 0.40012 0.24849 0.22768 0.0
O261 O 0.4998 0.35436 0.19676 0.0
O262 O 0.48279 0.3232 0.21311 0.0
C263 C 0.36406 0.24541 0.22317 0.0
C264 C 0.514 0.34903 0.20616 0.0
O265 O 0.37965 0.30136 0.18879 0.0
Mg266 Mg 0.63076 0.07299 0.18261 0.0
O267 O 0.67541 0.14991 0.1869 0.0
O268 O 0.64111 0.17061 0.19953 0.0
Mg269 Mg 0.57309 0.10423 0.2036 0.0
C270 C 0.67463 0.18021 0.19306 0.0
C271 C 0.72118 0.11383 0.16853 0.0
O272 O 0.70961 0.14577 0.16682 0.0
O273 O 0.65126 0.05182 0.1985 0.0
O274 O 0.61572 0.07357 0.21061 0.0
O275 O 0.59344 0.09365 0.1705 0.0
O276 O 0.57141 0.07416 0.18749 0.0
C277 C 0.64163 0.05658 0.20827 0.0
C278 C 0.56589 0.08951 0.17838 0.0
O279 O 0.69435 0.07813 0.17414 0.0
Mg280 Mg 0.89856 0.52905 0.20107 0.0
O281 O 0.82115 0.50276 0.20441 0.0
O282 O 0.79865 0.45255 0.21821 0.0
Mg283 Mg 0.86158 0.4501 0.22437 0.0
C284 C 0.78979 0.47388 0.21083 0.0
C285 C 0.86907 0.57498 0.18316 0.0
O286 O 0.83734 0.53103 0.18178 0.0
O287 O 0.92116 0.57793 0.21561 0.0
O288 O 0.89658 0.52688 0.22925 0.0
O289 O 0.87573 0.46784 0.19033 0.0
O290 O 0.89045 0.46738 0.2078 0.0
C291 C 0.91592 0.56859 0.22571 0.0
C292 C 0.87354 0.44442 0.19893 0.0
O293 O 0.90041 0.5856 0.19031 0.0
Mg294 Mg 0.67057 0.1157 0.96436 0.0
O295 O 0.6242 0.14795 0.96273 0.0
O296 O 0.64272 0.19097 0.94766 0.0
Mg297 Mg 0.70238 0.18713 0.93974 0.0
C298 C 0.61833 0.17431 0.9562 0.0
C299 C 0.62654 0.07808 0.98714 0.0
O300 O 0.667 0.11276 0.99024 0.0
O301 O 0.63066 0.06276 0.95088 0.0
O302 O 0.65321 0.10984 0.93646 0.0
O303 O 0.72152 0.17934 0.97335 0.0
O304 O 0.72306 0.17168 0.9556 0.0
C305 C 0.62976 0.06948 0.9407 0.0
C306 C 0.73872 0.198 0.96404 0.0
O307 O 0.61911 0.0684 0.97711 0.0
Mg308 Mg 0.89169 0.56877 0.95664 0.0
O309 O 0.86856 0.49193 0.9535 0.0
O310 O 0.82347 0.46789 0.93875 0.0
Mg311 Mg 0.81575 0.52843 0.93273 0.0
C312 C 0.84393 0.46051 0.9466 0.0
C313 C 0.93062 0.541 0.97578 0.0
O314 O 0.88584 0.51059 0.97601 0.0
O315 O 0.94275 0.59285 0.94244 0.0
O316 O 0.89323 0.56895 0.92846 0.0
O317 O 0.8288 0.54658 0.96682 0.0
O318 O 0.8306 0.55899 0.94919 0.0
C319 C 0.93458 0.58932 0.93227 0.0
C320 C 0.80676 0.54493 0.95802 0.0
O321 O 0.94611 0.57224 0.96848 0.0
Mg322 Mg 0.43425 0.34682 0.96091 0.0
O323 O 0.50907 0.39662 0.95527 0.0
O324 O 0.52027 0.37275 0.93922 0.0
Mg325 Mg 0.45307 0.30733 0.93464 0.0
C326 C 0.53488 0.40097 0.94718 0.0
C327 C 0.44288 0.39041 0.98366 0.0
O328 O 0.43112 0.34767 0.98642 0.0
O329 O 0.40335 0.37626 0.94877 0.0
O330 O 0.41532 0.34863 0.93336 0.0
O331 O 0.45988 0.30404 0.96887 0.0
O332 O 0.43418 0.29294 0.95198 0.0
C333 C 0.39993 0.37148 0.93848 0.0
C334 C 0.45404 0.28299 0.95968 0.0
O335 O 0.44468 0.40056 0.97367 0.0
Mg336 Mg 0.53213 0.64183 0.80488 0.0
O337 O 0.50543 0.68603 0.79666 0.0
O338 O 0.46736 0.65162 0.78145 0.0
Mg339 Mg 0.47066 0.58502 0.77975 0.0
C340 C 0.48234 0.68486 0.78828 0.0
C341 C 0.55485 0.71969 0.82135 0.0
O342 O 0.50927 0.69859 0.82066 0.0
O343 O 0.59044 0.66484 0.79239 0.0
O344 O 0.54946 0.62762 0.77765 0.0
O345 O 0.46472 0.60289 0.81359 0.0
O346 O 0.47787 0.5822 0.79756 0.0
C347 C 0.5881 0.65415 0.78238 0.0
C348 C 0.44871 0.57646 0.80513 0.0
O349 O 0.57646 0.70411 0.81584 0.0
Mg350 Mg 0.3193 0.87706 0.79178 0.0
O351 O 0.27194 0.80256 0.7857 0.0
O352 O 0.30213 0.79037 0.77074 0.0
Mg353 Mg 0.37051 0.85737 0.76749 0.0
C354 C 0.27049 0.77642 0.77797 0.0
C355 C 0.24286 0.83261 0.8088 0.0
O356 O 0.26242 0.80668 0.80907 0.0
O357 O 0.29625 0.90715 0.77809 0.0
O358 O 0.33043 0.89571 0.76378 0.0
O359 O 0.35708 0.85217 0.80201 0.0
O360 O 0.37616 0.87481 0.78499 0.0
C361 C 0.30544 0.91088 0.76798 0.0
C362 C 0.38182 0.85589 0.79358 0.0
O363 O 0.25948 0.86763 0.80249 0.0
Mg364 Mg 0.08362 0.4216 0.78769 0.0
O365 O 0.16145 0.44714 0.78702 0.0
O366 O 0.19379 0.49285 0.7726 0.0
Mg367 Mg 0.13578 0.49804 0.76413 0.0
C368 C 0.19649 0.47233 0.78106 0.0
C369 C 0.10692 0.38481 0.80793 0.0
O370 O 0.1337 0.43016 0.80876 0.0
O371 O 0.06969 0.37092 0.77373 0.0
O372 O 0.10142 0.42075 0.75995 0.0
O373 O 0.09901 0.4841 0.79739 0.0
O374 O 0.09589 0.48225 0.7795 0.0
C375 C 0.08012 0.37934 0.76371 0.0
C376 C 0.10539 0.50614 0.78832 0.0
O377 O 0.07811 0.36833 0.80012 0.0
Mg378 Mg 0.33796 0.91384 0.0427 0.0
O379 O 0.37898 0.87779 0.04727 0.0
O380 O 0.34643 0.8324 0.06176 0.0
Mg381 Mg 0.28432 0.83947 0.06651 0.0
C382 C 0.37755 0.84931 0.05441 0.0
C383 C 0.39078 0.95465 0.02129 0.0
O384 O 0.34852 0.92588 0.01777 0.0
O385 O 0.36999 0.96483 0.05699 0.0
O386 O 0.33485 0.91539 0.07071 0.0
O387 O 0.29197 0.85227 0.03246 0.0
O388 O 0.27803 0.85849 0.04968 0.0
C389 C 0.36315 0.95602 0.06712 0.0
C390 C 0.26755 0.83323 0.04107 0.0
O391 O 0.39785 0.96028 0.03145 0.0
Mg392 Mg 0.07918 0.45851 0.04666 0.0
O393 O 0.10474 0.53664 0.05035 0.0
O394 O 0.1428 0.55743 0.0663 0.0
Mg395 Mg 0.12223 0.48914 0.0746 0.0
C396 C 0.12954 0.56737 0.05746 0.0
C397 C 0.05867 0.49374 0.02475 0.0
O398 O 0.10222 0.52688 0.0259 0.0
O399 O 0.0115 0.42847 0.05651 0.0
O400 O 0.05243 0.47673 0.06893 0.0
O401 O 0.15063 0.48052 0.04127 0.0
O402 O 0.12857 0.46204 0.05836 0.0
C403 C 0.02084 0.43604 0.06651 0.0
C404 C 0.16152 0.47808 0.05124 0.0
O405 O 0.04062 0.46134 0.03175 0.0
Mg406 Mg 0.54291 0.66148 0.04301 0.0
O407 O 0.46615 0.61247 0.0474 0.0
O408 O 0.44888 0.63875 0.06229 0.0
Mg409 Mg 0.51493 0.70427 0.06757 0.0
C410 C 0.43709 0.60943 0.05457 0.0
C411 C 0.54279 0.61633 0.02118 0.0
O412 O 0.55628 0.65925 0.0182 0.0
O413 O 0.56948 0.63431 0.05668 0.0
O414 O 0.55283 0.66404 0.07107 0.0
O415 O 0.52089 0.70303 0.03322 0.0
O416 O 0.53993 0.71666 0.05055 0.0
C417 C 0.5701 0.64091 0.06688 0.0
C418 C 0.52349 0.72562 0.04197 0.0
O419 O 0.53697 0.60617 0.0312 0.0
Mg420 Mg 0.09546 0.64828 0.54554 0.0
O421 O 0.12354 0.59809 0.54789 0.0
O422 O 0.16283 0.61587 0.56354 0.0
Mg423 Mg 0.16242 0.67835 0.57081 0.0
C424 C 0.1473 0.5911 0.55501 0.0
C425 C 0.06561 0.59032 0.52464 0.0
O426 O 0.11092 0.60778 0.52456 0.0
O427 O 0.03999 0.61144 0.55856 0.0
O428 O 0.0839 0.63433 0.5735 0.0
O429 O 0.1601 0.69656 0.53676 0.0
O430 O 0.15177 0.69897 0.55448 0.0
C431 C 0.04427 0.61211 0.56885 0.0
C432 C 0.17854 0.71367 0.5461 0.0
O433 O 0.04729 0.60065 0.5324 0.0
Mg434 Mg 0.34551 0.44242 0.53771 0.0
O435 O 0.39465 0.51964 0.54141 0.0
O436 O 0.37235 0.53927 0.5566 0.0
Mg437 Mg 0.30718 0.47414 0.56247 0.0
C438 C 0.3998 0.54954 0.54855 0.0
C439 C 0.41459 0.47975 0.51878 0.0
O440 O 0.39623 0.50675 0.51844 0.0
O441 O 0.37654 0.41956 0.55134 0.0
O442 O 0.34966 0.43851 0.5659 0.0
O443 O 0.30062 0.4621 0.5283 0.0
O444 O 0.29179 0.44538 0.54579 0.0
C445 C 0.37264 0.42129 0.5616 0.0
C446 C 0.27993 0.45993 0.53735 0.0
O447 O 0.39952 0.44706 0.52572 0.0
Mg448 Mg 0.55955 0.89634 0.5313 0.0
O449 O 0.48179 0.86388 0.53512 0.0
O450 O 0.46565 0.82201 0.55034 0.0
Mg451 Mg 0.53293 0.82806 0.55636 0.0
C452 C 0.45322 0.83766 0.54236 0.0
C453 C 0.51988 0.92337 0.51182 0.0
O454 O 0.49509 0.8777 0.51159 0.0
O455 O 0.57854 0.95086 0.54467 0.0
O456 O 0.56088 0.90545 0.55931 0.0
O457 O 0.54332 0.8322 0.52212 0.0
O458 O 0.56006 0.84125 0.53959 0.0
C459 C 0.57522 0.94517 0.55493 0.0
C460 C 0.5459 0.81428 0.53123 0.0
O461 O 0.55149 0.94296 0.51897 0.0
Mg462 Mg 0.32479 0.41 0.28471 0.0
O463 O 0.27074 0.43314 0.28342 0.0
O464 O 0.28288 0.4755 0.26844 0.0
Mg465 Mg 0.34677 0.48108 0.26025 0.0
C466 C 0.26002 0.45648 0.27705 0.0
C467 C 0.26682 0.37617 0.30537 0.0
O468 O 0.28459 0.42152 0.3057 0.0
O469 O 0.28883 0.35615 0.27119 0.0
O470 O 0.30595 0.40296 0.25683 0.0
O471 O 0.37124 0.47541 0.29373 0.0
O472 O 0.37188 0.46913 0.27592 0.0
C473 C 0.28689 0.36235 0.26102 0.0
C474 C 0.38617 0.49526 0.2844 0.0
O475 O 0.27853 0.35869 0.29767 0.0
Mg476 Mg 0.53104 0.8664 0.27849 0.0
O477 O 0.50648 0.78953 0.27501 0.0
O478 O 0.45748 0.76565 0.26094 0.0
Mg479 Mg 0.44976 0.82677 0.25548 0.0
C480 C 0.47977 0.75814 0.26832 0.0
C481 C 0.57466 0.83726 0.29673 0.0
O482 O 0.53006 0.80706 0.29776 0.0
O483 O 0.57905 0.89031 0.2636 0.0
O484 O 0.52593 0.86504 0.25033 0.0
O485 O 0.46968 0.8437 0.28937 0.0
O486 O 0.46885 0.85747 0.27189 0.0
C487 C 0.56811 0.88531 0.25355 0.0
C488 C 0.44629 0.84249 0.28085 0.0
O489 O 0.58766 0.86838 0.28942 0.0
Mg490 Mg 0.07236 0.60678 0.30035 0.0
O491 O 0.14786 0.66063 0.29589 0.0
O492 O 0.16642 0.63946 0.28035 0.0
Mg493 Mg 0.10319 0.57212 0.27491 0.0
C494 C 0.17673 0.66721 0.28835 0.0
C495 C 0.10824 0.67944 0.31884 0.0
O496 O 0.14003 0.66696 0.31896 0.0
O497 O 0.04307 0.63411 0.2873 0.0
O498 O 0.0637 0.61105 0.27235 0.0
O499 O 0.09964 0.56655 0.30913 0.0
O500 O 0.07866 0.55587 0.29189 0.0
C501 C 0.04464 0.63153 0.27701 0.0
C502 C 0.09762 0.54682 0.29993 0.0
O503 O 0.07388 0.65901 0.31241 0.0
H504 H 0.40456 0.13959 0.15466 0.0
H505 H 0.29659 0.0421 0.176 0.0
H506 H 0.30225 0.1064 0.18674 0.0
H507 H 0.32634 0.18977 0.18771 0.0
H508 H 0.43068 0.28654 0.16573 0.0
H509 H 0.43812 0.22332 0.15759 0.0
C510 C 0.38302 0.13227 0.16181 0.0
C511 C 0.34921 0.08607 0.16431 0.0
C512 C 0.38517 0.16944 0.16771 0.0
C513 C 0.3223 0.07734 0.17375 0.0
C514 C 0.32526 0.11413 0.17986 0.0
C515 C 0.35163 0.19694 0.18136 0.0
C516 C 0.37815 0.24236 0.1773 0.0
C517 C 0.3547 0.16024 0.17655 0.0
C518 C 0.41034 0.25166 0.16899 0.0
C519 C 0.41433 0.21554 0.16431 0.0
H520 H 0.79397 0.19429 0.16103 0.0
H521 H 0.75186 0.05124 0.1682 0.0
H522 H 0.82887 0.06537 0.163 0.0
H523 H 0.90799 0.11829 0.15633 0.0
H524 H 0.94997 0.26157 0.14939 0.0
H525 H 0.87327 0.24742 0.15472 0.0
C526 C 0.80147 0.16607 0.1614 0.0
C527 C 0.76707 0.12168 0.16493 0.0
C528 C 0.84595 0.17458 0.15853 0.0
C529 C 0.77765 0.08571 0.16548 0.0
C530 C 0.82172 0.09379 0.16253 0.0
C531 C 0.90054 0.14656 0.15607 0.0
C532 C 0.93479 0.19095 0.15247 0.0
C533 C 0.85618 0.13813 0.15907 0.0
C534 C 0.92435 0.22707 0.15213 0.0
C535 C 0.88041 0.21899 0.15514 0.0
H536 H 0.80222 0.5645 0.16882 0.0
H537 H 0.93147 0.66833 0.1833 0.0
H538 H 0.92783 0.72929 0.17306 0.0
H539 H 0.88865 0.75304 0.15987 0.0
H540 H 0.75972 0.64948 0.14522 0.0
H541 H 0.76243 0.58849 0.15574 0.0
C542 C 0.82967 0.60044 0.16972 0.0
C543 C 0.86715 0.61176 0.17679 0.0
C544 C 0.82732 0.63539 0.16383 0.0
C545 C 0.90226 0.65858 0.17791 0.0
C546 C 0.90019 0.69351 0.17206 0.0
C547 C 0.86091 0.71718 0.15902 0.0
C548 C 0.824 0.70587 0.15178 0.0
C549 C 0.86291 0.6823 0.165 0.0
C550 C 0.78852 0.65917 0.15075 0.0
C551 C 0.7901 0.62425 0.15674 0.0
H552 H 0.10853 0.22347 0.33485 0.0
H553 H 0.10823 0.34514 0.34708 0.0
H554 H 0.17122 0.39446 0.33472 0.0
H555 H 0.22585 0.40309 0.32043 0.0
H556 H 0.22602 0.28174 0.30796 0.0
H557 H 0.16367 0.23223 0.32052 0.0
C558 C 0.12215 0.26076 0.3348 0.0
C559 C 0.10357 0.28053 0.34187 0.0
C560 C 0.15846 0.28899 0.32768 0.0
C561 C 0.12179 0.32895 0.34172 0.0
C562 C 0.15788 0.35723 0.33467 0.0
C563 C 0.21253 0.36584 0.32048 0.0
C564 C 0.2307 0.34617 0.31328 0.0
C565 C 0.17647 0.33762 0.32763 0.0
C566 C 0.21271 0.29779 0.31343 0.0
C567 C 0.177 0.26945 0.32059 0.0
H568 H 0.7424 0.8503 0.32382 0.0
H569 H 0.63031 0.72595 0.33822 0.0
H570 H 0.57452 0.73116 0.32627 0.0
H571 H 0.55732 0.77141 0.31194 0.0
H572 H 0.66906 0.89586 0.29751 0.0
H573 H 0.72521 0.89017 0.30929 0.0
C574 C 0.7058 0.8242 0.32432 0.0
C575 C 0.69063 0.78777 0.33192 0.0
C576 C 0.6738 0.8275 0.31745 0.0
C577 C 0.64302 0.75435 0.33246 0.0
C578 C 0.61103 0.75733 0.32564 0.0
C579 C 0.59394 0.79738 0.31136 0.0
C580 C 0.60889 0.8341 0.30386 0.0
C581 C 0.62601 0.79386 0.31814 0.0
C582 C 0.65655 0.86727 0.30321 0.0
C583 C 0.6887 0.86403 0.30995 0.0
H584 H 0.11294 0.85291 0.34081 0.0
H585 H 0.2456 0.87499 0.35209 0.0
H586 H 0.23188 0.80416 0.34282 0.0
H587 H 0.18241 0.73638 0.33145 0.0
H588 H 0.04944 0.71426 0.32035 0.0
H589 H 0.06299 0.78459 0.32974 0.0
C590 C 0.13903 0.84243 0.34119 0.0
C591 C 0.18037 0.86934 0.34706 0.0
C592 C 0.1307 0.8015 0.33596 0.0
C593 C 0.21354 0.85494 0.34759 0.0
C594 C 0.20568 0.81441 0.34232 0.0
C595 C 0.15622 0.74673 0.33114 0.0
C596 C 0.11499 0.72008 0.3252 0.0
C597 C 0.16434 0.78739 0.3365 0.0
C598 C 0.0815 0.7341 0.32487 0.0
C599 C 0.08926 0.77441 0.33021 0.0
H600 H 0.64857 0.77818 0.82277 0.0
H601 H 0.51774 0.755 0.83557 0.0
H602 H 0.55873 0.82323 0.84718 0.0
H603 H 0.63182 0.8886 0.85405 0.0
H604 H 0.76259 0.91206 0.84112 0.0
H605 H 0.7215 0.84501 0.8292 0.0
C606 C 0.62902 0.78801 0.8281 0.0
C607 C 0.58018 0.76128 0.82834 0.0
C608 C 0.65278 0.82753 0.83473 0.0
C609 C 0.55538 0.77481 0.83524 0.0
C610 C 0.57878 0.8139 0.84189 0.0
C611 C 0.65132 0.87925 0.84857 0.0
C612 C 0.70021 0.90537 0.8485 0.0
C613 C 0.62749 0.84043 0.84174 0.0
C614 C 0.72491 0.89271 0.84134 0.0
C615 C 0.70146 0.8542 0.83453 0.0
H616 H 0.06917 0.75177 0.83988 0.0
H617 H 0.05381 0.86073 0.82482 0.0
H618 H 0.1223 0.88244 0.81365 0.0
H619 H 0.18802 0.87203 0.80856 0.0
H620 H 0.20318 0.76318 0.82377 0.0
H621 H 0.13348 0.74018 0.83451 0.0
C622 C 0.08052 0.78002 0.8341 0.0
C623 C 0.05639 0.80457 0.8332 0.0
C624 C 0.1202 0.79268 0.82779 0.0
C625 C 0.07171 0.84119 0.82568 0.0
C626 C 0.111 0.85377 0.81931 0.0
C627 C 0.17613 0.84336 0.81424 0.0
C628 C 0.20096 0.81959 0.81539 0.0
C629 C 0.13582 0.83009 0.82038 0.0
C630 C 0.18487 0.78225 0.82273 0.0
C631 C 0.14492 0.76895 0.82888 0.0
H632 H 0.11484 0.22869 0.83545 0.0
H633 H 0.23991 0.34849 0.84737 0.0
H634 H 0.22576 0.39924 0.8356 0.0
H635 H 0.1776 0.40973 0.82217 0.0
H636 H 0.05284 0.29024 0.81008 0.0
H637 H 0.06704 0.23916 0.82179 0.0
C638 C 0.1392 0.26586 0.83543 0.0
C639 C 0.17841 0.28474 0.84228 0.0
C640 C 0.1307 0.2949 0.82871 0.0
C641 C 0.20949 0.33302 0.84218 0.0
C642 C 0.20135 0.3621 0.83548 0.0
C643 C 0.15328 0.37254 0.82214 0.0
C644 C 0.11404 0.35383 0.81531 0.0
C645 C 0.16192 0.34344 0.82878 0.0
C646 C 0.08323 0.30552 0.81528 0.0
C647 C 0.09139 0.2763 0.82195 0.0
H648 H 0.80728 0.60522 0.68085 0.0
H649 H 0.80494 0.72702 0.69221 0.0
H650 H 0.85815 0.77344 0.67779 0.0
H651 H 0.90614 0.7799 0.66216 0.0
H652 H 0.90888 0.65854 0.65068 0.0
H653 H 0.85481 0.61156 0.66499 0.0
C654 C 0.81817 0.64185 0.68014 0.0
C655 C 0.80212 0.66257 0.68761 0.0
C656 C 0.84907 0.66851 0.67185 0.0
C657 C 0.81676 0.71015 0.68658 0.0
C658 C 0.84727 0.73679 0.67835 0.0
C659 C 0.89508 0.74321 0.6628 0.0
C660 C 0.91168 0.72283 0.65539 0.0
C661 C 0.86387 0.71641 0.67099 0.0
C662 C 0.8967 0.67514 0.65629 0.0
C663 C 0.86572 0.64822 0.66446 0.0
H664 H 0.31682 0.15636 0.69151 0.0
H665 H 0.44614 0.26855 0.67905 0.0
H666 H 0.40413 0.28327 0.66485 0.0
H667 H 0.33109 0.26301 0.65559 0.0
H668 H 0.20162 0.15053 0.66789 0.0
H669 H 0.24327 0.13754 0.68253 0.0
C670 C 0.3358 0.18412 0.68571 0.0
C671 C 0.38459 0.21111 0.68634 0.0
C672 C 0.31142 0.19243 0.67752 0.0
C673 C 0.4086 0.24706 0.67876 0.0
C674 C 0.38461 0.25557 0.67062 0.0
C675 C 0.3119 0.23582 0.6615 0.0
C676 C 0.2633 0.20776 0.66061 0.0
C677 C 0.33607 0.22828 0.66987 0.0
C678 C 0.23905 0.17268 0.66836 0.0
C679 C 0.26285 0.16513 0.67674 0.0
H680 H 0.78396 0.22677 0.66611 0.0
H681 H 0.91027 0.23559 0.67817 0.0
H682 H 0.89538 0.16823 0.66729 0.0
H683 H 0.84696 0.10712 0.65434 0.0
H684 H 0.72134 0.09864 0.64196 0.0
H685 H 0.73534 0.16536 0.65308 0.0
C686 C 0.80834 0.2141 0.66633 0.0
C687 C 0.84822 0.23633 0.67294 0.0
C688 C 0.79954 0.1752 0.66007 0.0
C689 C 0.87934 0.21928 0.67315 0.0
C690 C 0.87081 0.18064 0.66695 0.0
C691 C 0.82237 0.11955 0.65414 0.0
C692 C 0.78304 0.09778 0.64737 0.0
C693 C 0.83098 0.15827 0.66042 0.0
C694 C 0.75184 0.11472 0.64712 0.0
C695 C 0.7599 0.15295 0.65345 0.0
H696 H 0.09414 0.55952 0.50754 0.0
H697 H 0.97151 0.54998 0.52211 0.0
H698 H 0.92329 0.49719 0.50776 0.0
H699 H 0.91584 0.45344 0.49123 0.0
H700 H 0.03813 0.46235 0.47664 0.0
H701 H 0.08668 0.51591 0.49089 0.0
C702 C 0.05688 0.54598 0.50758 0.0
C703 C 0.03648 0.5587 0.51589 0.0
C704 C 0.02932 0.51556 0.49932 0.0
C705 C 0.98812 0.54076 0.51582 0.0
C706 C 0.9605 0.51056 0.50761 0.0
C707 C 0.95312 0.46707 0.49114 0.0
C708 C 0.97331 0.45385 0.48289 0.0
C709 C 0.98073 0.49768 0.49935 0.0
C710 C 0.02169 0.47193 0.4829 0.0
C711 C 0.04947 0.50255 0.49105 0.0
H712 H 0.46016 0.55233 0.5049 0.0
H713 H 0.45904 0.42964 0.51697 0.0
H714 H 0.52672 0.44762 0.50583 0.0
H715 H 0.58593 0.4979 0.49271 0.0
H716 H 0.58692 0.62029 0.4805 0.0
H717 H 0.5196 0.60279 0.49176 0.0
C718 C 0.47455 0.52936 0.50507 0.0
C719 C 0.45445 0.48961 0.51173 0.0
C720 C 0.51358 0.54 0.49869 0.0
C721 C 0.47375 0.46041 0.51189 0.0
C722 C 0.51252 0.47071 0.50555 0.0
C723 C 0.57166 0.52097 0.49255 0.0
C724 C 0.59152 0.56043 0.48579 0.0
C725 C 0.53276 0.51046 0.49895 0.0
C726 C 0.57233 0.58972 0.48563 0.0
C727 C 0.53378 0.57968 0.49205 0.0
H728 H 0.44948 0.01228 0.47671 0.0
H729 H 0.55713 0.13884 0.49138 0.0
H730 H 0.57549 0.09346 0.50393 0.0
H731 H 0.56159 0.01788 0.51063 0.0
H732 H 0.45427 0.89144 0.49583 0.0
H733 H 0.43544 0.93682 0.48343 0.0
C734 C 0.47681 0.02998 0.48268 0.0
C735 C 0.5018 0.0789 0.48311 0.0
C736 C 0.48748 0.00371 0.48983 0.0
C737 C 0.53727 0.10121 0.49087 0.0
C738 C 0.54789 0.0753 0.49805 0.0
C739 C 0.53415 0.00023 0.50468 0.0
C740 C 0.50949 0.95132 0.50416 0.0
C741 C 0.52337 0.02654 0.49757 0.0
C742 C 0.47394 0.92905 0.49641 0.0
C743 C 0.46304 0.95497 0.48932 0.0
H744 H 0.48346 0.00585 0.02593 0.0
H745 H 0.38638 0.95107 -0.00077 0.0
H746 H 0.45077 0.98214 0.9864 0.0
H747 H 0.53439 0.02488 0.9827 0.0
H748 H 0.6319 0.0812 0.00925 0.0
H749 H 0.56753 0.04892 0.0222 0.0
C750 C 0.47636 0.00095 0.0173 0.0
C751 C 0.4301 0.97623 0.01356 0.0
C752 C 0.51361 0.01873 0.00994 0.0
C753 C 0.4216 0.97 0.00235 0.0
C754 C 0.45842 0.98762 0.99499 0.0
C755 C 0.54165 0.02971 0.99132 0.0
C756 C 0.58791 0.05522 0.995 0.0
C757 C 0.50452 0.01183 -0.00131 0.0
C758 C 0.5966 0.06162 0.0062 0.0
C759 C 0.55981 0.04332 0.01361 0.0
H760 H 0.90802 0.47377 0.99082 0.0
H761 H 0.02347 0.60251 0.97909 0.0
H762 H 0.07387 0.59865 0.99304 0.0
H763 H 0.08433 0.55952 0.0089 0.0
H764 H 0.96794 0.43074 0.02041 0.0
H765 H 0.91881 0.43389 0.00617 0.0
C766 C 0.94421 0.50106 0.99129 0.0
C767 C 0.96186 0.53852 0.98397 0.0
C768 C 0.97284 0.49862 -0.0007 0.0
C769 C 0.00896 0.57333 0.98465 0.0
C770 C 0.03779 0.57116 0.99263 0.0
C771 C 0.04829 0.53204 0.00826 0.0
C772 C 0.02988 0.49505 0.01575 0.0
C773 C 0.02 0.53408 5e-05 0.0
C774 C 0.98307 0.4597 0.01479 0.0
C775 C 0.95486 0.46145 0.00665 0.0
H776 H 0.48638 0.48396 0.9805 0.0
H777 H 0.43405 0.3793 0.00562 0.0
H778 H 0.46202 0.43997 0.01947 0.0
H779 H 0.50102 0.52271 0.02444 0.0
H780 H 0.55369 0.62719 -0.00073 0.0
H781 H 0.52634 0.56653 0.98546 0.0
C782 C 0.48082 0.47436 0.989 0.0
C783 C 0.45792 0.42713 0.99201 0.0
C784 C 0.49742 0.5094 0.99692 0.0
C785 C 0.45146 0.41538 0.00307 0.0
C786 C 0.46755 0.45006 0.011 0.0
C787 C 0.50686 0.53226 0.01594 0.0
C788 C 0.5294 0.57948 0.01291 0.0
C789 C 0.49069 0.49718 0.00802 0.0
C790 C 0.53646 0.59115 0.00184 0.0
C791 C 0.52069 0.55648 0.99393 0.0
H792 H 0.32916 0.0595 0.10225 0.0
H793 H 0.37467 0.98169 0.12158 0.0
H794 H 0.41189 0.97042 0.10575 0.0
H795 H 0.40639 0.96025 0.08593 0.0
H796 H 0.35669 0.03421 0.06652 0.0
H797 H 0.3476 0.07084 0.08278 0.0
C798 C 0.34948 0.04232 0.10309 0.0
C799 C 0.34812 0.02023 0.11293 0.0
C800 C 0.36898 0.0343 0.09384 0.0
C801 C 0.37494 -0.00139 0.11405 0.0
C802 C 0.39559 0.99152 0.10494 0.0
C803 C 0.39606 0.9864 0.08524 0.0
C804 C 0.38114 0.99384 0.07515 0.0
C805 C 0.38921 0.00577 0.09467 0.0
C806 C 0.36814 0.02789 0.07424 0.0
C807 C 0.36226 0.04827 0.08356 0.0
H808 H 0.01711 0.42965 0.0882 0.0
H809 H 0.02164 0.35805 0.05948 0.0
H810 H 0.03079 0.30236 0.07064 0.0
H811 H 0.04466 0.27857 0.08847 0.0
H812 H 0.03814 0.34892 0.11724 0.0
H813 H 0.02205 0.40023 0.10616 0.0
C814 C 0.01936 0.40134 0.08443 0.0
C815 C 0.019 0.39807 0.07308 0.0
C816 C 0.02459 0.3695 0.09088 0.0
C817 C 0.02164 0.36119 0.06822 0.0
C818 C 0.02719 0.32953 0.07459 0.0
C819 C 0.03929 0.30487 0.09231 0.0
C820 C 0.04324 0.31041 0.10363 0.0
C821 C 0.02984 0.33407 0.08591 0.0
C822 C 0.0354 0.34405 0.10853 0.0
C823 C 0.02639 0.37353 0.1022 0.0
H824 H 0.65599 0.65722 0.06198 0.0
H825 H 0.55473 0.60948 0.08769 0.0
H826 H 0.61574 0.62724 0.10106 0.0
H827 H 0.69836 0.67576 0.10556 0.0
H828 H 0.79973 0.734 0.07989 0.0
H829 H 0.73881 0.69206 0.06642 0.0
C830 C 0.64707 0.64866 0.07046 0.0
C831 C 0.60113 0.63249 0.07389 0.0
C832 C 0.68281 0.66215 0.07815 0.0
C833 C 0.58997 0.62208 0.0849 0.0
C834 C 0.62496 0.63277 0.09255 0.0
C835 C 0.7074 0.67777 0.09705 0.0
C836 C 0.75331 0.7086 0.0937 0.0
C837 C 0.67176 0.65584 0.08932 0.0
C838 C 0.76449 0.71095 0.08265 0.0
C839 C 0.72958 0.6872 0.07494 0.0
H840 H 0.02525 0.36949 0.43312 0.0
H841 H 0.96328 0.42146 0.41049 0.0
H842 H -0.00066 0.40403 0.39538 0.0
H843 H 0.02413 0.35015 0.38887 0.0
H844 H 0.07461 0.28743 0.41168 0.0
H845 H 0.06924 0.33375 0.42634 0.0
C846 C 0.0218 0.37929 0.42492 0.0
C847 C 0.99087 0.39557 0.42285 0.0
C848 C 0.03971 0.36582 0.41624 0.0
C849 C 0.98653 0.40824 0.41222 0.0
C850 C 0.00668 0.39771 0.40357 0.0
C851 C 0.03627 0.34857 0.39695 0.0
C852 C 0.04869 0.31486 0.3993 0.0
C853 C 0.02977 0.37277 0.40546 0.0
C854 C 0.06431 0.31285 0.40976 0.0
C855 C 0.06074 0.33896 0.41817 0.0
H856 H 0.62045 0.58124 0.41535 0.0
H857 H 0.67233 0.69814 0.43716 0.0
H858 H 0.68039 0.74936 0.4221 0.0
H859 H 0.69538 0.76322 0.40253 0.0
H860 H 0.64572 0.64664 0.38071 0.0
H861 H 0.61229 0.59275 0.39591 0.0
C862 C 0.63145 0.61752 0.41685 0.0
C863 C 0.64705 0.63628 0.42725 0.0
C864 C 0.63709 0.64694 0.4081 0.0
C865 C 0.66052 0.68304 0.4292 0.0
C866 C 0.66566 0.71247 0.42055 0.0
C867 C 0.675 0.72601 0.40107 0.0
C868 C 0.67399 0.70877 0.39061 0.0
C869 C 0.65741 0.69533 0.4099 0.0
C870 C 0.64716 0.66067 0.38872 0.0
C871 C 0.62872 0.62981 0.39745 0.0
H872 H 0.34008 0.00184 0.43738 0.0
H873 H 0.45015 0.04828 0.41385 0.0
H874 H 0.39436 -0.0001 0.39997 0.0
H875 H 0.31423 0.96742 0.39362 0.0
H876 H 0.20433 0.9323 0.41672 0.0
H877 H 0.25917 0.95122 0.43166 0.0
C878 C 0.35201 -0.00066 0.42936 0.0
C879 C 0.39875 0.02904 0.42653 0.0
C880 C 0.31922 0.97421 0.42124 0.0
C881 C 0.41407 0.02591 0.41612 0.0
C882 C 0.38207 -0.00134 0.40816 0.0
C883 C 0.3019 0.96166 0.40192 0.0
C884 C 0.25575 0.94978 0.4041 0.0
C885 C 0.3343 0.97596 0.41043 0.0
C886 C 0.24003 0.94222 0.41488 0.0
C887 C 0.27151 0.95355 0.42342 0.0
H888 H 0.62896 0.98132 0.89814 0.0
H889 H 0.68275 0.91562 0.91911 0.0
H890 H 0.64862 0.93167 0.93483 0.0
H891 H 0.62994 0.98836 0.9426 0.0
H892 H 0.58641 0.06302 0.92155 0.0
H893 H 0.58843 0.01886 0.90599 0.0
C894 C 0.63078 0.96812 0.90607 0.0
C895 C 0.65938 0.94863 0.90756 0.0
C896 C 0.61412 0.98073 0.91516 0.0
C897 C 0.6614 0.93139 0.91783 0.0
C898 C 0.6425 0.94127 0.92685 0.0
C899 C 0.61854 0.99315 0.93471 0.0
C900 C 0.60944 0.02973 0.93313 0.0
C901 C 0.62273 0.9697 0.92568 0.0
C902 C 0.59446 0.03556 0.92288 0.0
C903 C 0.59604 0.0106 0.91396 0.0
H904 H 0.94444 0.56791 0.91164 0.0
H905 H 0.00762 0.67639 0.93565 0.0
H906 H 0.0442 0.73462 0.9214 0.0
H907 H 0.0365 0.75499 0.90261 0.0
H908 H 0.9713 0.64661 0.87865 0.0
H909 H 0.95859 0.58803 0.89226 0.0
C910 C 0.96806 0.60405 0.91373 0.0
C911 C 0.97225 0.61817 0.92461 0.0
C912 C 0.9878 0.63747 0.90547 0.0
C913 C 0.00349 0.6648 0.92731 0.0
C914 C 0.02394 0.69823 0.91914 0.0
C915 C 0.02161 0.71875 0.90029 0.0
C916 C 0.00362 0.70481 0.88977 0.0
C917 C 0.01318 0.6852 0.90824 0.0
C918 C 0.98505 0.65805 0.88673 0.0
C919 C 0.97719 0.62445 0.89456 0.0
H920 H 0.41217 0.40864 0.91843 0.0
H921 H 0.31433 0.35354 0.9448 0.0
H922 H 0.24979 0.32955 0.93214 0.0
H923 H 0.22291 0.30222 0.91354 0.0
H924 H 0.32121 0.35512 0.88717 0.0
H925 H 0.38359 0.40324 0.89977 0.0
C926 C 0.37683 0.3937 0.92143 0.0
C927 C 0.36773 0.38154 0.93244 0.0
C928 C 0.33988 0.37841 0.91404 0.0
C929 C 0.32209 0.36286 0.93633 0.0
C930 C 0.28508 0.3484 0.92905 0.0
C931 C 0.2576 0.32591 0.91051 0.0
C932 C 0.26787 0.3239 0.89953 0.0
C933 C 0.2936 0.35251 0.91786 0.0
C934 C 0.31256 0.35547 0.89562 0.0
C935 C 0.34844 0.38268 0.90285 0.0
H936 H 0.95937 0.64505 0.60795 0.0
H937 H 0.91032 0.70052 0.58292 0.0
H938 H 0.9203 0.65276 0.56939 0.0
H939 H 0.96889 0.61971 0.5643 0.0
H940 H 0.02919 0.57528 0.58919 0.0
H941 H 0.98759 0.5921 0.60309 0.0
C942 C 0.94861 0.64486 0.59963 0.0
C943 C 0.93579 0.6774 0.59633 0.0
C944 C 0.95777 0.61991 0.59179 0.0
C945 C 0.92136 0.67645 0.58557 0.0
C946 C 0.92754 0.64947 0.57781 0.0
C947 C 0.97091 0.61135 0.57272 0.0
C948 C 0.00319 0.59788 0.57579 0.0
C949 C 0.94978 0.62461 0.5807 0.0
C950 C 0.0052 0.58665 0.58669 0.0
C951 C 0.98185 0.59685 0.59465 0.0
H952 H 0.32032 0.25264 0.5892 0.0
H953 H 0.35491 0.35503 0.61431 0.0
H954 H 0.3995 0.41732 0.60139 0.0
H955 H 0.40416 0.44077 0.58228 0.0
H956 H 0.36618 0.3381 0.55708 0.0
H957 H 0.34886 0.2781 0.57064 0.0
C958 C 0.33971 0.2885 0.59195 0.0
C959 C 0.333 0.29944 0.60256 0.0
C960 C 0.36364 0.3242 0.58435 0.0
C961 C 0.35898 0.34576 0.60613 0.0
C962 C 0.38393 0.38152 0.59869 0.0
C963 C 0.39428 0.40569 0.57976 0.0
C964 C 0.38488 0.39341 0.56876 0.0
C965 C 0.38287 0.37108 0.58764 0.0
C966 C 0.37307 0.34824 0.56552 0.0
C967 C 0.36256 0.31373 0.5733 0.0
H968 H 0.66485 0.03276 0.59725 0.0
H969 H 0.78514 0.08881 0.57649 0.0
H970 H 0.73611 0.07537 0.56062 0.0
H971 H 0.65922 0.02258 0.55281 0.0
H972 H 0.53966 0.95604 0.57375 0.0
H973 H 0.58725 -0.00056 0.58926 0.0
C974 C 0.68055 0.04439 0.58932 0.0
C975 C 0.72817 0.06025 0.58796 0.0
C976 C 0.65168 0.03315 0.58017 0.0
C977 C 0.74828 0.07563 0.57767 0.0
C978 C 0.72013 0.06733 0.56857 0.0
C979 C 0.64326 0.01964 0.56066 0.0
C980 C 0.59647 0.98559 0.56225 0.0
C981 C 0.67159 0.04218 0.56968 0.0
C982 C 0.57591 0.98177 0.57242 0.0
C983 C 0.60326 0.0062 0.58131 0.0
H984 H 0.76991 0.67636 0.76123 0.0
H985 H 0.69641 0.67439 0.73219 0.0
H986 H 0.6351 0.6742 0.74308 0.0
H987 H 0.59921 0.66768 0.76078 0.0
H988 H 0.67268 0.67133 0.78995 0.0
H989 H 0.73787 0.67906 0.7791 0.0
C990 C 0.74063 0.67637 0.75733 0.0
C991 C 0.7374 0.67493 0.74596 0.0
C992 C 0.70569 0.67673 0.76364 0.0
C993 C 0.69969 0.6755 0.74093 0.0
C994 C 0.66456 0.67527 0.74715 0.0
C995 C 0.62983 0.6709 0.76477 0.0
C996 C 0.63101 0.66841 0.77612 0.0
C997 C 0.66679 0.67497 0.7585 0.0
C998 C 0.67107 0.67328 0.78121 0.0
C999 C 0.70811 0.67725 0.77501 0.0
H1000 H 0.32342 0.04272 0.73098 0.0
H1001 H 0.36438 0.13719 0.75801 0.0
H1002 H 0.32838 0.07156 0.77059 0.0
H1003 H 0.30775 0.99044 0.77385 0.0
H1004 H 0.28055 0.89864 0.7467 0.0
H1005 H 0.28783 0.95915 0.73425 0.0
C1006 C 0.32218 0.04882 0.73958 0.0
C1007 C 0.34677 0.09457 0.7436 0.0
C1008 C 0.30525 0.01101 0.74678 0.0
C1009 C 0.34556 0.10218 0.75476 0.0
C1010 C 0.3257 0.0646 0.76196 0.0
C1011 C 0.30154 0.98317 0.76525 0.0
C1012 C 0.29429 0.94052 0.76115 0.0
C1013 C 0.30883 0.01917 0.75809 0.0
C1014 C 0.28668 0.93149 0.75 0.0
C1015 C 0.29107 0.96617 0.74288 0.0
H1016 H 0.99354 0.31107 0.72023 0.0
H1017 H 0.87163 0.25315 0.74045 0.0
H1018 H 0.91791 0.25676 0.75617 0.0
H1019 H 0.99444 0.30313 0.76464 0.0
H1020 H 0.11668 0.37229 0.74457 0.0
H1021 H 0.06981 0.33645 0.72842 0.0
C1022 C 0.97681 0.29672 0.72795 0.0
C1023 C 0.92975 0.28312 0.72932 0.0
C1024 C 0.00436 0.30249 0.73711 0.0
C1025 C 0.90812 0.26442 0.73931 0.0
C1026 C 0.93475 0.26715 0.74833 0.0
C1027 C 0.01107 0.30828 0.75679 0.0
C1028 C 0.05849 0.34144 0.75569 0.0
C1029 C 0.98336 0.29027 0.74748 0.0
C1030 C 0.0799 0.34759 0.74553 0.0
C1031 C 0.05299 0.32749 0.73628 0.0
H1032 H 0.29784 0.26942 0.2198 0.0
H1033 H 0.34255 0.20254 0.24299 0.0
H1034 H 0.30739 0.22342 0.25763 0.0
H1035 H 0.28836 0.282 0.26403 0.0
H1036 H 0.25095 0.35482 0.24081 0.0
H1037 H 0.25751 0.30958 0.22609 0.0
C1038 C 0.29811 0.25754 0.22798 0.0
C1039 C 0.32474 0.23647 0.23037 0.0
C1040 C 0.28013 0.272 0.23645 0.0
C1041 C 0.32356 0.22019 0.24097 0.0
C1042 C 0.30381 0.23254 0.24939 0.0
C1043 C 0.27954 0.28642 0.25581 0.0
C1044 C 0.27084 0.32277 0.25344 0.0
C1045 C 0.28574 0.26191 0.24731 0.0
C1046 C 0.25891 0.32777 0.24278 0.0
C1047 C 0.26296 0.3021 0.23434 0.0
H1048 H 0.6319 0.97645 0.25362 0.0
H1049 H 0.57996 0.85158 0.23456 0.0
H1050 H 0.61209 0.89789 0.21812 0.0
H1051 H 0.63435 0.97184 0.20893 0.0
H1052 H 0.67496 0.09509 0.22796 0.0
H1053 H 0.66919 0.05242 0.24457 0.0
C1054 C 0.62983 0.9596 0.24594 0.0
C1055 C 0.6036 0.9109 0.24523 0.0
C1056 C 0.64537 0.98646 0.23644 0.0
C1057 C 0.60019 0.88916 0.23524 0.0
C1058 C 0.61801 0.91565 0.22583 0.0
C1059 C 0.64391 0.98969 0.21668 0.0
C1060 C 0.65457 0.03623 0.2173 0.0
C1061 C 0.63764 0.96414 0.22625 0.0
C1062 C 0.66635 0.05908 0.22736 0.0
C1063 C 0.66272 0.03459 0.23685 0.0
H1064 H 0.88656 0.57498 0.24574 0.0
H1065 H 0.00188 0.64481 0.22366 0.0
H1066 H 0.0543 0.68451 0.23881 0.0
H1067 H 0.06948 0.67873 0.25812 0.0
H1068 H 0.95452 0.60705 0.28017 0.0
H1069 H 0.89953 0.59012 0.26534 0.0
C1070 C 0.92277 0.60056 0.24424 0.0
C1071 C 0.94079 0.60603 0.2337 0.0
C1072 C 0.95285 0.62229 0.25302 0.0
C1073 C 0.98741 0.63973 0.23175 0.0
C1074 C 0.01752 0.66205 0.24043 0.0
C1075 C 0.0324 0.6616 0.25974 0.0
C1076 C 0.01581 0.64307 0.27009 0.0
C1077 C 0.00112 0.65068 0.2511 0.0
C1078 C 0.96793 0.62138 0.27222 0.0
C1079 C 0.93648 0.61105 0.2637 0.0
H1080 H 0.13856 0.16522 0.15002 0.0
H1081 H 0.18109 0.2201 0.1177 0.0
H1082 H 0.21068 0.16737 0.11458 0.0
H1083 H 0.21782 0.1004 0.12043 0.0
H1084 H 0.18235 0.05018 0.15322 0.0
H1085 H 0.15735 0.10685 0.15684 0.0
C1086 C 0.15482 0.16609 0.14234 0.0
C1087 C 0.15563 0.19517 0.13393 0.0
C1088 C 0.17294 0.1364 0.14068 0.0
C1089 C 0.17804 0.19673 0.12415 0.0
C1090 C 0.19535 0.16676 0.12237 0.0
C1091 C 0.20514 0.10239 0.1284 0.0
C1092 C 0.20117 0.071 0.13651 0.0
C1093 C 0.19168 0.13548 0.13046 0.0
C1094 C 0.18554 0.07415 0.14686 0.0
C1095 C 0.17108 0.10633 0.14892 0.0
H1096 H 0.97072 0.09186 0.1353 0.0
H1097 H 0.98791 0.09226 0.10065 0.0
H1098 H 0.93074 0.00903 0.09995 0.0
H1099 H 0.87974 0.9357 0.10936 0.0
H1100 H 0.86794 0.93444 0.1442 0.0
H1101 H 0.91858 0.01881 0.14464 0.0
C1102 C 0.9614 0.07393 0.12757 0.0
C1103 C 0.98333 0.09818 0.11803 0.0
C1104 C 0.92971 0.02592 0.12728 0.0
C1105 C 0.97152 0.07427 0.1081 0.0
C1106 C 0.93891 0.02672 0.1077 0.0
C1107 C 0.88816 0.95368 0.11705 0.0
C1108 C 0.87047 0.92854 0.12673 0.0
C1109 C 0.91844 0.00205 0.11727 0.0
C1110 C 0.88141 0.95282 0.13662 0.0
C1111 C 0.91038 0.0011 0.13689 0.0
H1112 H 0.9513 0.83059 0.13721 0.0
H1113 H 0.98303 0.83093 0.10331 0.0
H1114 H 0.06212 0.84941 0.10794 0.0
H1115 H 0.12375 0.87248 0.12144 0.0
H1116 H 0.09503 0.88199 0.15515 0.0
H1117 H 0.01278 0.85102 0.15084 0.0
C1118 C 0.97529 0.8338 0.13086 0.0
C1119 C 0.96146 0.82933 0.11993 0.0
C1120 C 0.02125 0.84644 0.13356 0.0
C1121 C 0.99303 0.83431 0.11177 0.0
C1122 C 0.0382 0.84496 0.11442 0.0
C1123 C 0.09972 0.86819 0.12786 0.0
C1124 C 0.1159 0.88082 0.13856 0.0
C1125 C 0.05303 0.85242 0.12526 0.0
C1126 C 0.08369 0.87309 0.14682 0.0
C1127 C 0.03667 0.85555 0.14435 0.0
H1128 H 0.07709 0.14324 0.36218 0.0
H1129 H 0.1011 0.16261 0.39663 0.0
H1130 H 0.15528 0.13321 0.39564 0.0
H1131 H 0.19042 0.09637 0.38532 0.0
H1132 H 0.15931 0.06757 0.35128 0.0
H1133 H 0.11447 0.10767 0.35166 0.0
C1134 C 0.09483 0.14162 0.36941 0.0
C1135 C 0.08533 0.15492 0.37946 0.0
C1136 C 0.12442 0.1229 0.36885 0.0
C1137 C 0.10787 0.15225 0.38883 0.0
C1138 C 0.13877 0.13549 0.38827 0.0
C1139 C 0.17363 0.09847 0.37798 0.0
C1140 C 0.17727 0.07795 0.36836 0.0
C1141 C 0.14634 0.11963 0.37838 0.0
C1142 C 0.15667 0.08265 0.35884 0.0
C1143 C 0.13086 0.1054 0.35906 0.0
H1144 H 0.89885 0.07234 0.35373 0.0
H1145 H 0.888 0.09266 0.38792 0.0
H1146 H 0.84692 0.00897 0.39083 0.0
H1147 H 0.82121 0.93031 0.38397 0.0
H1148 H 0.82663 0.90888 0.34967 0.0
H1149 H 0.86163 0.99255 0.34645 0.0
C1150 C 0.88705 0.05848 0.3618 0.0
C1151 C 0.89839 0.08894 0.37066 0.0
C1152 C 0.86235 0.01005 0.36339 0.0
C1153 C 0.88163 0.07028 0.38101 0.0
C1154 C 0.85771 0.02227 0.38268 0.0
C1155 C 0.82934 0.94398 0.37578 0.0
C1156 C 0.82198 0.9138 0.36709 0.0
C1157 C 0.84916 0.99193 0.37399 0.0
C1158 C 0.83197 0.93159 0.35649 0.0
C1159 C 0.8523 0.97942 0.35465 0.0
H1160 H 0.06551 0.90515 0.36001 0.0
H1161 H 0.04199 0.8754 0.39418 0.0
H1162 H 0.9596 0.82053 0.39071 0.0
H1163 H 0.89393 0.78613 0.37821 0.0
H1164 H 0.9148 0.82387 0.34436 0.0
H1165 H -0.00106 0.86936 0.34735 0.0
C1166 C 0.04235 0.88596 0.36665 0.0
C1167 C 0.05947 0.89387 0.37732 0.0
C1168 C 0.99472 0.85619 0.36463 0.0
C1169 C 0.02929 0.86967 0.38591 0.0
C1170 C 0.98232 0.83844 0.38393 0.0
C1171 C 0.91664 0.80463 0.37148 0.0
C1172 C 0.89788 0.80255 0.36113 0.0
C1173 C 0.96451 0.83236 0.37336 0.0
C1174 C 0.92824 0.82527 0.35244 0.0
C1175 C 0.97634 0.85143 0.35415 0.0
H1176 H 0.81216 0.91644 0.86613 0.0
H1177 H 0.81689 0.88965 0.9002 0.0
H1178 H 0.84066 0.83272 0.89589 0.0
H1179 H 0.86451 0.79461 0.88255 0.0
H1180 H 0.86932 0.82857 0.84863 0.0
H1181 H 0.83555 0.8774 0.85272 0.0
C1182 C 0.81787 0.8977 0.8726 0.0
C1183 C 0.81287 0.90712 0.88346 0.0
C1184 C 0.83313 0.86637 0.87007 0.0
C1185 C 0.82084 0.88308 0.89178 0.0
C1186 C 0.83434 0.85055 0.88932 0.0
C1187 C 0.85877 0.813 0.87604 0.0
C1188 C 0.87065 0.80884 0.86534 0.0
C1189 C 0.84148 0.84266 0.87851 0.0
C1190 C 0.86103 0.83156 0.85697 0.0
C1191 C 0.84189 0.85964 0.8593 0.0
H1192 H 0.07026 0.93109 0.88735 0.0
H1193 H 0.05537 0.90886 0.85278 0.0
H1194 H 0.10937 0.99156 0.84967 0.0
H1195 H 0.15505 0.07112 0.8568 0.0
H1196 H 0.17324 0.09244 0.89138 0.0
H1197 H 0.12378 0.00923 0.89443 0.0
C1198 C 0.07924 0.9443 0.87914 0.0
C1199 C 0.05838 0.91407 0.87032 0.0
C1200 C 0.11044 0.9918 0.8774 0.0
C1201 C 0.0709 0.93145 0.85971 0.0
C1202 C 0.10158 0.97879 0.85792 0.0
C1203 C 0.14855 0.05757 0.86501 0.0
C1204 C 0.16658 0.0883 0.87386 0.0
C1205 C 0.12067 0.00944 0.86671 0.0
C1206 C 0.15867 0.06995 0.88442 0.0
C1207 C 0.13054 0.02221 0.88618 0.0
H1208 H 0.041 0.16948 0.89457 0.0
H1209 H 0.06661 0.16631 0.86041 0.0
H1210 H 0.98386 0.13405 0.85656 0.0
H1211 H 0.90325 0.09888 0.86318 0.0
H1212 H 0.8788 0.10676 0.89726 0.0
H1213 H 0.96195 0.14507 0.90084 0.0
C1214 C 0.02849 0.16231 0.88627 0.0
C1215 C 0.05963 0.16961 0.87781 0.0
C1216 C 0.981 0.144 0.88411 0.0
C1217 C 0.04324 0.16095 0.86707 0.0
C1218 C 0.99588 0.14221 0.86487 0.0
C1219 C 0.91614 0.10948 0.87137 0.0
C1220 C 0.88463 0.09823 0.88 0.0
C1221 C 0.96427 0.13238 0.87336 0.0
C1222 C 0.90203 0.11324 0.89052 0.0
C1223 C 0.9497 0.13552 0.89258 0.0
H1224 H 0.81211 0.90785 0.63377 0.0
H1225 H 0.77578 0.89496 0.59983 0.0
H1226 H 0.82066 0.85683 0.59637 0.0
H1227 H 0.87628 0.83407 0.60257 0.0
H1228 H 0.91094 0.8433 0.63651 0.0
H1229 H 0.86004 0.87509 0.64042 0.0
C1230 C 0.81347 0.89606 0.62566 0.0
C1231 C 0.79179 0.90555 0.61702 0.0
C1232 C 0.83919 0.87367 0.62371 0.0
C1233 C 0.7933 0.88942 0.60658 0.0
C1234 C 0.81881 0.86738 0.60458 0.0
C1235 C 0.87224 0.84256 0.61084 0.0
C1236 C 0.89772 0.83707 0.61921 0.0
C1237 C 0.84298 0.86059 0.61302 0.0
C1238 C 0.89165 0.84735 0.62992 0.0
C1239 C 0.86277 0.86575 0.63215 0.0
H1240 H 0.16306 0.06686 0.60496 0.0
H1241 H 0.17032 0.09703 0.63916 0.0
H1242 H 0.13604 0.01436 0.64335 0.0
H1243 H 0.09688 0.9329 0.63719 0.0
H1244 H 0.09229 0.90355 0.60299 0.0
H1245 H 0.1325 0.98644 0.59894 0.0
C1246 C 0.15766 0.05543 0.61334 0.0
C1247 C 0.16862 0.08799 0.62171 0.0
C1248 C 0.13779 0.0079 0.6157 0.0
C1249 C 0.1621 0.0727 0.63254 0.0
C1250 C 0.14222 0.02537 0.63495 0.0
C1251 C 0.10506 0.94463 0.62886 0.0
C1252 C 0.09022 0.91192 0.62039 0.0
C1253 C 0.12878 0.99255 0.62658 0.0
C1254 C 0.10192 0.92779 0.60966 0.0
C1255 C 0.12524 0.97529 0.60732 0.0
H1256 H 0.05918 0.17812 0.63684 0.0
H1257 H 0.10523 0.21438 0.60373 0.0
H1258 H 0.02542 0.16891 0.59735 0.0
H1259 H 0.94298 0.11431 0.60103 0.0
H1260 H 0.89562 0.0822 0.63412 0.0
H1261 H 0.97524 0.13125 0.64064 0.0
C1262 C 0.05173 0.17641 0.62824 0.0
C1263 C 0.08842 0.19825 0.62076 0.0
C1264 C 0.00545 0.15097 0.62461 0.0
C1265 C 0.07799 0.19654 0.60966 0.0
C1266 C 0.03222 0.17078 0.60598 0.0
C1267 C 0.95011 0.11845 0.60967 0.0
C1268 C 0.9137 0.09432 0.61708 0.0
C1269 C 0.99581 0.147 0.61336 0.0
C1270 C 0.92314 0.10049 0.62825 0.0
C1271 C 0.96869 0.12832 0.63199 0.0
H1272 H 0.79651 0.56416 0.44153 0.0
H1273 H 0.78271 0.54071 0.47607 0.0
H1274 H 0.81846 0.49211 0.47464 0.0
H1275 H 0.84526 0.44906 0.46328 0.0
H1276 H 0.84974 0.46572 0.42855 0.0
H1277 H 0.82543 0.52371 0.43031 0.0
C1278 C 0.80098 0.54829 0.44875 0.0
C1279 C 0.7858 0.55515 0.45884 0.0
C1280 C 0.81963 0.51883 0.44781 0.0
C1281 C 0.79358 0.53559 0.46816 0.0
C1282 C 0.81387 0.50764 0.46736 0.0
C1283 C 0.84163 0.46606 0.45613 0.0
C1284 C 0.84915 0.45329 0.44581 0.0
C1285 C 0.8258 0.49794 0.45718 0.0
C1286 C 0.84384 0.47496 0.43658 0.0
C1287 C 0.82995 0.50804 0.43758 0.0
H1288 H 0.51342 0.28589 0.46811 0.0
H1289 H 0.47983 0.25848 0.43413 0.0
H1290 H 0.52669 0.3411 0.43011 0.0
H1291 H 0.58269 0.42067 0.43604 0.0
H1292 H 0.61123 0.44941 0.47014 0.0
H1293 H 0.56019 0.36696 0.47435 0.0
C1294 C 0.51595 0.29799 0.45984 0.0
C1295 C 0.49466 0.26566 0.45138 0.0
C1296 C 0.54206 0.34588 0.4576 0.0
C1297 C 0.49729 0.28216 0.44075 0.0
C1298 C 0.52387 0.32959 0.43844 0.0
C1299 C 0.5772 0.40884 0.4444 0.0
C1300 C 0.60099 0.44073 0.45276 0.0
C1301 C 0.5474 0.3616 0.44676 0.0
C1302 C 0.59317 0.42536 0.46357 0.0
C1303 C 0.56424 0.37822 0.46597 0.0
H1304 H 0.76985 0.25163 0.43829 0.0
H1305 H 0.76372 0.2696 0.47277 0.0
H1306 H 0.67887 0.22936 0.47191 0.0
H1307 H 0.60717 0.19676 0.46106 0.0
H1308 H 0.61471 0.18688 0.42634 0.0
H1309 H 0.69843 0.21675 0.42756 0.0
C1310 C 0.75014 0.24708 0.44561 0.0
C1311 C 0.77325 0.26467 0.45552 0.0
C1312 C 0.70157 0.22556 0.44499 0.0
C1313 C 0.74686 0.25691 0.465 0.0
C1314 C 0.69832 0.23399 0.46451 0.0
C1315 C 0.62709 0.20042 0.45379 0.0
C1316 C 0.60502 0.18977 0.44362 0.0
C1317 C 0.67541 0.21928 0.45451 0.0
C1318 C 0.63115 0.19515 0.43424 0.0
C1319 C 0.67894 0.21223 0.43494 0.0
H1320 H 0.78361 0.52897 0.70624 0.0
H1321 H 0.83306 0.53737 0.73897 0.0
H1322 H 0.87796 0.50116 0.73335 0.0
H1323 H 0.89913 0.46306 0.71951 0.0
H1324 H 0.84305 0.44556 0.68719 0.0
H1325 H 0.80621 0.49105 0.69212 0.0
C1326 C 0.8047 0.52332 0.71208 0.0
C1327 C 0.80508 0.5357 0.723 0.0
C1328 C 0.82923 0.501 0.70885 0.0
C1329 C 0.83203 0.52777 0.73054 0.0
C1330 C 0.85776 0.5072 0.72733 0.0
C1331 C 0.87856 0.46874 0.71354 0.0
C1332 C 0.87298 0.44996 0.70307 0.0
C1333 C 0.85586 0.49289 0.71657 0.0
C1334 C 0.84766 0.45934 0.69533 0.0
C1335 C 0.82635 0.4851 0.69817 0.0
H1336 H 0.54467 0.33084 0.74093 0.0
H1337 H 0.48902 0.31001 0.70844 0.0
H1338 H 0.53224 0.39376 0.7053 0.0
H1339 H 0.59184 0.47201 0.7111 0.0
H1340 H 0.64635 0.49338 0.74365 0.0
H1341 H 0.59753 0.4104 0.74743 0.0
C1342 C 0.5414 0.3446 0.73321 0.0
C1343 C 0.51405 0.31392 0.72489 0.0
C1344 C 0.56665 0.39291 0.73141 0.0
C1345 C 0.50987 0.33258 0.71499 0.0
C1346 C 0.53484 0.38056 0.71315 0.0
C1347 C 0.59281 0.45861 0.71905 0.0
C1348 C 0.62352 0.48882 0.727 0.0
C1349 C 0.56435 0.41088 0.72119 0.0
C1350 C 0.6236 0.471 0.73733 0.0
C1351 C 0.59562 0.42343 0.7395 0.0
H1352 H 0.72835 0.25308 0.72535 0.0
H1353 H 0.74474 0.28064 0.69101 0.0
H1354 H 0.66013 0.24001 0.68873 0.0
H1355 H 0.5821 0.20376 0.69689 0.0
H1356 H 0.56633 0.17179 0.73109 0.0
H1357 H 0.6501 0.20702 0.73303 0.0
C1358 C 0.71325 0.24955 0.71736 0.0
C1359 C 0.74236 0.27012 0.70839 0.0
C1360 C 0.66485 0.22602 0.71611 0.0
C1361 C 0.72277 0.26489 0.69803 0.0
C1362 C 0.67449 0.242 0.69674 0.0
C1363 C 0.59694 0.20416 0.70475 0.0
C1364 C 0.56805 0.18687 0.71391 0.0
C1365 C 0.64525 0.22355 0.70578 0.0
C1366 C 0.58773 0.18644 0.72397 0.0
C1367 C 0.63573 0.20629 0.72509 0.0
H1368 H 0.48672 0.06028 0.1895 0.0
H1369 H 0.57667 0.16414 0.16647 0.0
H1370 H 0.53716 0.2086 0.16981 0.0
H1371 H 0.48893 0.22545 0.18226 0.0
H1372 H 0.40422 0.12348 0.20621 0.0
H1373 H 0.42856 0.07003 0.19937 0.0
C1374 C 0.4968 0.09204 0.185 0.0
C1375 C 0.53496 0.10944 0.17791 0.0
C1376 C 0.47497 0.11786 0.18721 0.0
C1377 C 0.54742 0.15019 0.172 0.0
C1378 C 0.52509 0.17578 0.17398 0.0
C1379 C 0.47452 0.19078 0.18565 0.0
C1380 C 0.44515 0.17825 0.19474 0.0
C1381 C 0.49048 0.16112 0.18199 0.0
C1382 C 0.42696 0.13364 0.19922 0.0
C1383 C 0.44117 0.10331 0.19536 0.0
H1384 H 0.7331 0.2332 0.20898 0.0
H1385 H 0.70164 0.23401 0.17513 0.0
H1386 H 0.76301 0.31579 0.17366 0.0
H1387 H 0.8223 0.38792 0.18234 0.0
H1388 H 0.85907 0.38479 0.21577 0.0
H1389 H 0.79942 0.30297 0.21706 0.0
C1390 C 0.73998 0.25149 0.2013 0.0
C1391 C 0.71282 0.22846 0.19221 0.0
C1392 C 0.77611 0.29791 0.20046 0.0
C1393 C 0.72223 0.25164 0.18223 0.0
C1394 C 0.75721 0.29821 0.18139 0.0
C1395 C 0.81774 0.36926 0.18988 0.0
C1396 C 0.84398 0.39306 0.19907 0.0
C1397 C 0.78402 0.32185 0.19049 0.0
C1398 C 0.83818 0.36797 0.20869 0.0
C1399 C 0.80419 0.321 0.20942 0.0
H1400 H 0.71647 0.42212 0.22399 0.0
H1401 H 0.75238 0.49467 0.19333 0.0
H1402 H 0.66993 0.46252 0.18916 0.0
H1403 H 0.58749 0.4098 0.19379 0.0
H1404 H 0.55304 0.33903 0.22467 0.0
H1405 H 0.6351 0.37401 0.22908 0.0
C1406 C 0.70641 0.43131 0.21642 0.0
C1407 C 0.74062 0.46042 0.20895 0.0
C1408 C 0.65912 0.41239 0.21403 0.0
C1409 C 0.72683 0.47232 0.19924 0.0
C1410 C 0.67964 0.45369 0.19681 0.0
C1411 C 0.59797 0.40199 0.20147 0.0
C1412 C 0.56405 0.37097 0.20878 0.0
C1413 C 0.64547 0.42292 0.20406 0.0
C1414 C 0.57821 0.3619 0.21878 0.0
C1415 C 0.62525 0.38219 0.22136 0.0
H1416 H 0.56129 0.18495 0.94237 0.0
H1417 H 0.59896 0.1949 0.97612 0.0
H1418 H 0.54878 0.22712 0.98039 0.0
H1419 H 0.49944 0.25826 0.97419 0.0
H1420 H 0.45663 0.24178 0.94066 0.0
H1421 H 0.50335 0.20605 0.93665 0.0
C1422 C 0.55808 0.19383 0.95067 0.0
C1423 C 0.58404 0.18833 0.95891 0.0
C1424 C 0.52865 0.21149 0.95307 0.0
C1425 C 0.57918 0.19902 0.96966 0.0
C1426 C 0.55071 0.21757 0.97209 0.0
C1427 C 0.49995 0.24648 0.96602 0.0
C1428 C 0.47606 0.25452 0.95765 0.0
C1429 C 0.52603 0.22483 0.96381 0.0
C1430 C 0.4761 0.23784 0.94718 0.0
C1431 C 0.50261 0.21704 0.94488 0.0
H1432 H 0.83351 0.41622 0.96572 0.0
H1433 H 0.83285 0.39762 0.93112 0.0
H1434 H 0.80691 0.31511 0.93367 0.0
H1435 H 0.77712 0.24737 0.94559 0.0
H1436 H 0.76812 0.26391 0.98003 0.0
H1437 H 0.80671 0.34831 0.97776 0.0
C1438 C 0.82855 0.39421 0.95877 0.0
C1439 C 0.835 0.41275 0.94825 0.0
C1440 C 0.81168 0.34644 0.96028 0.0
C1441 C 0.82788 0.3839 0.93928 0.0
C1442 C 0.81301 0.3368 0.94074 0.0
C1443 C 0.78326 0.26926 0.9526 0.0
C1444 C 0.76847 0.24913 0.96291 0.0
C1445 C 0.80344 0.31746 0.95118 0.0
C1446 C 0.77858 0.27838 0.97197 0.0
C1447 C 0.80049 0.32667 0.97067 0.0
H1448 H 0.7501 0.53005 0.94068 0.0
H1449 H 0.74795 0.51154 0.97534 0.0
H1450 H 0.66303 0.47038 0.97518 0.0
H1451 H 0.58952 0.43359 0.965 0.0
H1452 H 0.59216 0.44587 0.93017 0.0
H1453 H 0.67683 0.49559 0.93057 0.0
C1454 C 0.73121 0.51694 0.9482 0.0
C1455 C 0.75547 0.52318 0.95797 0.0
C1456 C 0.6824 0.49216 0.94801 0.0
C1457 C 0.7302 0.50682 0.96768 0.0
C1458 C 0.6816 0.48326 0.9676 0.0
C1459 C 0.6086 0.44795 0.95752 0.0
C1460 C 0.58477 0.43631 0.94757 0.0
C1461 C 0.65735 0.47493 0.95778 0.0
C1462 C 0.60988 0.45441 0.93792 0.0
C1463 C 0.65824 0.48267 0.93815 0.0
H1464 H 0.3969 0.81147 0.77689 0.0
H1465 H 0.42887 0.84789 0.81058 0.0
H1466 H 0.46754 0.80186 0.81162 0.0
H1467 H 0.48571 0.7458 0.80343 0.0
H1468 H 0.44868 0.70485 0.77005 0.0
H1469 H 0.41899 0.75857 0.76837 0.0
C1470 C 0.4133 0.81029 0.78437 0.0
C1471 C 0.41037 0.8333 0.79362 0.0
C1472 C 0.43412 0.78253 0.78499 0.0
C1473 C 0.43076 0.83041 0.80335 0.0
C1474 C 0.45275 0.80405 0.80396 0.0
C1475 C 0.47179 0.74907 0.79573 0.0
C1476 C 0.46925 0.72113 0.78689 0.0
C1477 C 0.45366 0.77908 0.7949 0.0
C1478 C 0.4508 0.72569 0.777 0.0
C1479 C 0.43378 0.75641 0.77603 0.0
H1480 H 0.22557 0.72288 0.79535 0.0
H1481 H 0.2331 0.71934 0.76048 0.0
H1482 H 0.1777 0.63562 0.76057 0.0
H1483 H 0.13205 0.56308 0.77064 0.0
H1484 H 0.13148 0.56534 0.80561 0.0
H1485 H 0.17816 0.65019 0.8054 0.0
C1486 C 0.21449 0.70388 0.78776 0.0
C1487 C 0.23329 0.72714 0.77792 0.0
C1488 C 0.18406 0.65557 0.78791 0.0
C1489 C 0.21917 0.70206 0.76816 0.0
C1490 C 0.18757 0.65426 0.76821 0.0
C1491 C 0.1423 0.5819 0.77823 0.0
C1492 C 0.12912 0.55764 0.78812 0.0
C1493 C 0.17067 0.63051 0.77805 0.0
C1494 C 0.14156 0.58302 0.79786 0.0
C1495 C 0.16837 0.63158 0.79776 0.0
H1496 H 0.40409 0.52467 0.78734 0.0
H1497 H 0.37858 0.56236 0.81899 0.0
H1498 H 0.29578 0.52655 0.81474 0.0
H1499 H 0.23298 0.49461 0.80113 0.0
H1500 H 0.26242 0.47012 0.76856 0.0
H1501 H 0.34188 0.49205 0.7739 0.0
C1502 C 0.38078 0.52577 0.79327 0.0
C1503 C 0.39795 0.54776 0.80331 0.0
C1504 C 0.33397 0.50796 0.79053 0.0
C1505 C 0.36646 0.54635 0.81112 0.0
C1506 C 0.31914 0.52611 0.80867 0.0
C1507 C 0.25675 0.49346 0.79528 0.0
C1508 C 0.24236 0.48085 0.7845 0.0
C1509 C 0.30287 0.50839 0.79827 0.0
C1510 C 0.2732 0.47997 0.7769 0.0
C1511 C 0.31844 0.49244 0.77995 0.0
H1512 H 0.41163 0.83131 0.03635 0.0
H1513 H 0.41811 0.83038 0.07125 0.0
H1514 H 0.46916 0.79715 0.0704 0.0
H1515 H 0.50716 0.76379 0.05978 0.0
H1516 H 0.49284 0.75563 0.02497 0.0
H1517 H 0.45066 0.79823 0.02569 0.0
C1518 C 0.42484 0.82438 0.04375 0.0
C1519 C 0.41142 0.83323 0.05385 0.0
C1520 C 0.45255 0.80359 0.0432 0.0
C1521 C 0.428 0.82358 0.0634 0.0
C1522 C 0.45712 0.80465 0.06291 0.0
C1523 C 0.49471 0.77096 0.05235 0.0
C1524 C 0.50239 0.75561 0.04238 0.0
C1525 C 0.46879 0.79362 0.05286 0.0
C1526 C 0.48695 0.76656 0.03279 0.0
C1527 C 0.46275 0.79086 0.03319 0.0
H1528 H 0.16048 0.61417 0.03846 0.0
H1529 H 0.13445 0.63085 0.07192 0.0
H1530 H 0.16914 0.7147 0.06928 0.0
H1531 H 0.2129 0.78349 0.05798 0.0
H1532 H 0.24769 0.76855 0.02512 0.0
H1533 H 0.20225 0.68384 0.02685 0.0
C1534 C 0.16174 0.63621 0.04509 0.0
C1535 C 0.14508 0.61666 0.05536 0.0
C1536 C 0.18346 0.68466 0.04362 0.0
C1537 C 0.14734 0.64539 0.06396 0.0
C1538 C 0.16716 0.69324 0.06245 0.0
C1539 C 0.21087 0.76186 0.0512 0.0
C1540 C 0.23473 0.78243 0.04154 0.0
C1541 C 0.18647 0.71336 0.05241 0.0
C1542 C 0.2301 0.75367 0.03271 0.0
C1543 C 0.20427 0.70519 0.0337 0.0
H1544 H 0.36678 0.5839 0.06917 0.0
H1545 H 0.39457 0.55812 0.03649 0.0
H1546 H 0.31132 0.5128 0.03283 0.0
H1547 H 0.23106 0.48729 0.03829 0.0
H1548 H 0.20273 0.51114 0.07103 0.0
H1549 H 0.2857 0.55032 0.07528 0.0
C1550 C 0.35466 0.56781 0.06129 0.0
C1551 C 0.38702 0.57501 0.05308 0.0
C1552 C 0.30663 0.54192 0.0592 0.0
C1553 C 0.3706 0.55335 0.04296 0.0
C1554 C 0.32291 0.52763 0.04083 0.0
C1555 C 0.24303 0.50075 0.04638 0.0
C1556 C 0.21085 0.49703 0.05428 0.0
C1557 C 0.29072 0.52285 0.04879 0.0
C1558 C 0.22671 0.51379 0.06478 0.0
C1559 C 0.27423 0.5363 0.06721 0.0
H1560 H 0.17135 0.57024 0.53574 0.0
H1561 H 0.15649 0.53564 0.56975 0.0
H1562 H 0.19152 0.487 0.56694 0.0
H1563 H 0.23285 0.46071 0.55522 0.0
H1564 H 0.25544 0.5017 0.52157 0.0
H1565 H 0.21005 0.54065 0.52376 0.0
C1566 C 0.17495 0.55121 0.54247 0.0
C1567 C 0.16141 0.5563 0.55293 0.0
C1568 C 0.19691 0.52492 0.54087 0.0
C1569 C 0.16683 0.53218 0.56164 0.0
C1570 C 0.18694 0.50454 0.56004 0.0
C1571 C 0.22806 0.47824 0.54836 0.0
C1572 C 0.24841 0.47915 0.53832 0.0
C1573 C 0.20334 0.5018 0.54976 0.0
C1574 C 0.24057 0.50089 0.52943 0.0
C1575 C 0.21469 0.52325 0.53068 0.0
H1576 H 0.42911 0.59539 0.52949 0.0
H1577 H 0.4502 0.61364 0.56404 0.0
H1578 H 0.50339 0.6971 0.56148 0.0
H1579 H 0.53832 0.76512 0.54959 0.0
H1580 H 0.50878 0.74831 0.5153 0.0
H1581 H 0.46593 0.6638 0.51751 0.0
C1582 C 0.44603 0.61759 0.53643 0.0
C1583 C 0.43595 0.59859 0.54693 0.0
C1584 C 0.4749 0.66572 0.53493 0.0
C1585 C 0.45743 0.62768 0.55588 0.0
C1586 C 0.48775 0.6753 0.55442 0.0
C1587 C 0.52222 0.74322 0.5426 0.0
C1588 C 0.52571 0.76328 0.53235 0.0
C1589 C 0.49574 0.69484 0.54401 0.0
C1590 C 0.50617 0.73392 0.52332 0.0
C1591 C 0.48149 0.68556 0.52458 0.0
H1592 H 0.39077 0.81728 0.55842 0.0
H1593 H 0.40448 0.82372 0.52361 0.0
H1594 H 0.32012 0.78832 0.52166 0.0
H1595 H 0.24233 0.74934 0.52991 0.0
H1596 H 0.2295 0.74736 0.56475 0.0
H1597 H 0.31374 0.78737 0.56662 0.0
C1598 C 0.37525 0.8113 0.55041 0.0
C1599 C 0.40349 0.82237 0.54117 0.0
C1600 C 0.32697 0.79136 0.54936 0.0
C1601 C 0.38328 0.81536 0.53084 0.0
C1602 C 0.33509 0.79493 0.52972 0.0
C1603 C 0.25793 0.758 0.53791 0.0
C1604 C 0.22949 0.74382 0.54719 0.0
C1605 C 0.30655 0.78182 0.53893 0.0
C1606 C 0.25034 0.75637 0.55748 0.0
C1607 C 0.29863 0.77955 0.55856 0.0
H1608 H 0.23935 0.47382 0.29707 0.0
H1609 H 0.19557 0.45713 0.26365 0.0
H1610 H 0.13578 0.47657 0.2683 0.0
H1611 H 0.10049 0.50387 0.28152 0.0
H1612 H 0.15176 0.53214 0.31439 0.0
H1613 H 0.20279 0.50062 0.31046 0.0
C1614 C 0.21621 0.47386 0.29086 0.0
C1615 C 0.22157 0.46411 0.28005 0.0
C1616 C 0.18338 0.48707 0.29352 0.0
C1617 C 0.192 0.46478 0.27202 0.0
C1618 C 0.1579 0.47583 0.27467 0.0
C1619 C 0.12314 0.50376 0.28781 0.0
C1620 C 0.12327 0.52166 0.29814 0.0
C1621 C 0.15409 0.48811 0.28534 0.0
C1622 C 0.15135 0.51908 0.30633 0.0
C1623 C 0.18072 0.50131 0.30407 0.0
H1624 H 0.47221 0.71269 0.28711 0.0
H1625 H 0.46715 0.69671 0.25237 0.0
H1626 H 0.44372 0.61457 0.25439 0.0
H1627 H 0.41849 0.54646 0.26597 0.0
H1628 H 0.41401 0.55986 0.30066 0.0
H1629 H 0.44877 0.64413 0.29878 0.0
C1630 C 0.46674 0.6913 0.28001 0.0
C1631 C 0.47138 0.71046 0.26961 0.0
C1632 C 0.45137 0.64369 0.28124 0.0
C1633 C 0.46358 0.68246 0.26045 0.0
C1634 C 0.45016 0.63559 0.2616 0.0
C1635 C 0.42471 0.56759 0.27313 0.0
C1636 C 0.4125 0.54662 0.28341 0.0
C1637 C 0.44277 0.6156 0.27195 0.0
C1638 C 0.42256 0.57499 0.29263 0.0
C1639 C 0.44231 0.62319 0.29156 0.0
H1640 H 0.38861 0.80158 0.29812 0.0
H1641 H 0.3877 0.8307 0.26404 0.0
H1642 H 0.30369 0.78044 0.26345 0.0
H1643 H 0.23122 0.72241 0.27222 0.0
H1644 H 0.23011 0.69778 0.30654 0.0
H1645 H 0.31396 0.7528 0.30751 0.0
C1646 C 0.37 0.79735 0.29059 0.0
C1647 C 0.39479 0.81831 0.28102 0.0
C1648 C 0.32127 0.76921 0.29036 0.0
C1649 C 0.36993 0.81346 0.27142 0.0
C1650 C 0.32169 0.78497 0.27108 0.0
C1651 C 0.24934 0.72971 0.27992 0.0
C1652 C 0.22498 0.70588 0.28926 0.0
C1653 C 0.29721 0.76164 0.28043 0.0
C1654 C 0.24838 0.71591 0.29925 0.0
C1655 C 0.29629 0.74708 0.29979 0.0
loop_
_geom_bond_atom_site_label_1
_geom_bond_atom_site_label_2
_geom_bond_distance
_geom_bond_site_symmetry_2
_ccdc_geom_bond_type
Mg0 O1 2.028 . S
Mg0 O7 1.986 . S
Mg0 O9 2.114 . S
Mg0 O10 2.251 1_545 S
Mg0 O13 2.010 . S
O1 Mg0 2.028 . S
O1 C4 1.250 . S
O2 Mg3 2.028 . S
O2 C4 1.248 . S
Mg3 O2 2.028 . S
Mg3 O8 2.032 . S
Mg3 O10 2.079 1_545 S
C4 O1 1.250 . S
C4 O2 1.248 . S
C5 O6 1.264 . S
C5 O13 1.249 . S
O6 C5 1.264 . S
O7 Mg0 1.986 . S
O7 C11 1.246 . S
O8 Mg3 2.032 . S
O8 C11 1.259 . S
O9 Mg0 2.114 . S
O9 C12 1.252 1_545 S
O10 Mg0 2.251 1_565 S
O10 Mg3 2.079 1_565 S
O10 C12 1.273 . S
C11 O7 1.246 . S
C11 O8 1.259 . S
C12 O9 1.252 1_565 S
C12 O10 1.273 . S
O13 Mg0 2.010 . S
O13 C5 1.249 . S
Mg14 O15 2.028 . S
Mg14 O21 1.986 . S
Mg14 O23 2.114 . S
Mg14 O24 2.251 1_655 S
Mg14 O27 2.010 . S
O15 Mg14 2.028 . S
O15 C18 1.250 . S
O16 Mg17 2.028 . S
O16 C18 1.248 . S
Mg17 O16 2.028 . S
Mg17 O22 2.032 . S
Mg17 O24 2.079 1_655 S
C18 O15 1.250 . S
C18 O16 1.248 . S
C19 O20 1.264 . S
C19 O27 1.249 . S
O20 C19 1.264 . S
O21 Mg14 1.986 . S
O21 C25 1.246 . S
O22 Mg17 2.032 . S
O22 C25 1.259 . S
O23 Mg14 2.114 . S
O23 C26 1.252 1_655 S
O24 Mg14 2.251 1_455 S
O24 Mg17 2.079 1_455 S
O24 C26 1.273 . S
C25 O21 1.246 . S
C25 O22 1.259 . S
C26 O23 1.252 1_455 S
C26 O24 1.273 . S
O27 Mg14 2.010 . S
O27 C19 1.249 . S
Mg28 O29 2.028 . S
Mg28 O35 1.986 . S
Mg28 O37 2.114 . S
Mg28 O38 2.251 . S
Mg28 O41 2.010 . S
O29 Mg28 2.028 . S
O29 C32 1.250 . S
O30 Mg31 2.028 . S
O30 C32 1.248 . S
Mg31 O30 2.028 . S
Mg31 O36 2.032 . S
Mg31 O38 2.079 . S
C32 O29 1.250 . S
C32 O30 1.248 . S
C33 O34 1.264 . S
C33 O41 1.249 . S
O34 C33 1.264 . S
O35 Mg28 1.986 . S
O35 C39 1.246 . S
O36 Mg31 2.032 . S
O36 C39 1.259 . S
O37 Mg28 2.114 . S
O37 C40 1.252 . S
O38 Mg28 2.251 . S
O38 Mg31 2.079 . S
O38 C40 1.273 . S
C39 O35 1.246 . S
C39 O36 1.259 . S
C40 O37 1.252 . S
C40 O38 1.273 . S
O41 Mg28 2.010 . S
O41 C33 1.249 . S
Mg42 O43 2.028 . S
Mg42 O49 1.986 . S
Mg42 O51 2.114 . S
Mg42 O52 2.251 1_455 S
Mg42 O55 2.010 . S
O43 Mg42 2.028 . S
O43 C46 1.250 . S
O44 Mg45 2.028 . S
O44 C46 1.248 . S
Mg45 O44 2.028 . S
Mg45 O50 2.032 . S
Mg45 O52 2.079 1_455 S
C46 O43 1.250 . S
C46 O44 1.248 . S
C47 O48 1.264 . S
C47 O55 1.249 . S
O48 C47 1.264 . S
O49 Mg42 1.986 . S
O49 C53 1.246 . S
O50 Mg45 2.032 . S
O50 C53 1.259 . S
O51 Mg42 2.114 . S
O51 C54 1.252 1_455 S
O52 Mg42 2.251 1_655 S
O52 Mg45 2.079 1_655 S
O52 C54 1.273 . S
C53 O49 1.246 . S
C53 O50 1.259 . S
C54 O51 1.252 1_655 S
C54 O52 1.273 . S
O55 Mg42 2.010 . S
O55 C47 1.249 . S
Mg56 O57 2.028 . S
Mg56 O63 1.986 . S
Mg56 O65 2.114 . S
Mg56 O66 2.251 . S
Mg56 O69 2.010 . S
O57 Mg56 2.028 . S
O57 C60 1.250 . S
O58 Mg59 2.028 . S
O58 C60 1.248 . S
Mg59 O58 2.028 . S
Mg59 O64 2.032 . S
Mg59 O66 2.079 . S
C60 O57 1.250 . S
C60 O58 1.248 . S
C61 O62 1.264 . S
C61 O69 1.249 . S
O62 C61 1.264 . S
O63 Mg56 1.986 . S
O63 C67 1.246 . S
O64 Mg59 2.032 . S
O64 C67 1.259 . S
O65 Mg56 2.114 . S
O65 C68 1.252 . S
O66 Mg56 2.251 . S
O66 Mg59 2.079 . S
O66 C68 1.273 . S
C67 O63 1.246 . S
C67 O64 1.259 . S
C68 O65 1.252 . S
C68 O66 1.273 . S
O69 Mg56 2.010 . S
O69 C61 1.249 . S
Mg70 O71 2.028 . S
Mg70 O77 1.986 . S
Mg70 O79 2.114 . S
Mg70 O80 2.251 1_565 S
Mg70 O83 2.010 . S
O71 Mg70 2.028 . S
O71 C74 1.250 . S
O72 Mg73 2.028 . S
O72 C74 1.248 . S
Mg73 O72 2.028 . S
Mg73 O78 2.032 . S
Mg73 O80 2.079 1_565 S
C74 O71 1.250 . S
C74 O72 1.248 . S
C75 O76 1.264 . S
C75 O83 1.249 . S
O76 C75 1.264 . S
O77 Mg70 1.986 . S
O77 C81 1.246 . S
O78 Mg73 2.032 . S
O78 C81 1.259 . S
O79 Mg70 2.114 . S
O79 C82 1.252 1_565 S
O80 Mg70 2.251 1_545 S
O80 Mg73 2.079 1_545 S
O80 C82 1.273 . S
C81 O77 1.246 . S
C81 O78 1.259 . S
C82 O79 1.252 1_545 S
C82 O80 1.273 . S
O83 Mg70 2.010 . S
O83 C75 1.249 . S
Mg84 O85 2.028 . S
Mg84 O91 1.986 . S
Mg84 O93 2.114 . S
Mg84 O94 2.251 1_565 S
Mg84 O97 2.010 . S
O85 Mg84 2.028 . S
O85 C88 1.250 . S
O86 Mg87 2.028 . S
O86 C88 1.248 . S
Mg87 O86 2.028 . S
Mg87 O92 2.032 . S
Mg87 O94 2.079 1_565 S
C88 O85 1.250 . S
C88 O86 1.248 . S
C89 O90 1.264 . S
C89 O97 1.249 . S
O90 C89 1.264 . S
O91 Mg84 1.986 . S
O91 C95 1.246 . S
O92 Mg87 2.032 . S
O92 C95 1.259 . S
O93 Mg84 2.114 . S
O93 C96 1.252 1_565 S
O94 Mg84 2.251 1_545 S
O94 Mg87 2.079 1_545 S
O94 C96 1.273 . S
C95 O91 1.246 . S
C95 O92 1.259 . S
C96 O93 1.252 1_545 S
C96 O94 1.273 . S
O97 Mg84 2.010 . S
O97 C89 1.249 . S
Mg98 O99 2.028 . S
Mg98 O105 1.986 . S
Mg98 O107 2.114 . S
Mg98 O108 2.251 1_455 S
Mg98 O111 2.010 . S
O99 Mg98 2.028 . S
O99 C102 1.250 . S
O100 Mg101 2.028 . S
O100 C102 1.248 . S
Mg101 O100 2.028 . S
Mg101 O106 2.032 . S
Mg101 O108 2.079 1_455 S
C102 O99 1.250 . S
C102 O100 1.248 . S
C103 O104 1.264 . S
C103 O111 1.249 . S
O104 C103 1.264 . S
O105 Mg98 1.986 . S
O105 C109 1.246 . S
O106 Mg101 2.032 . S
O106 C109 1.259 . S
O107 Mg98 2.114 . S
O107 C110 1.252 1_455 S
O108 Mg98 2.251 1_655 S
O108 Mg101 2.079 1_655 S
O108 C110 1.273 . S
C109 O105 1.246 . S
C109 O106 1.259 . S
C110 O107 1.252 1_655 S
C110 O108 1.273 . S
O111 Mg98 2.010 . S
O111 C103 1.249 . S
Mg112 O113 2.028 . S
Mg112 O119 1.986 . S
Mg112 O121 2.114 . S
Mg112 O122 2.251 . S
Mg112 O125 2.010 . S
O113 Mg112 2.028 . S
O113 C116 1.250 . S
O114 Mg115 2.028 . S
O114 C116 1.248 . S
Mg115 O114 2.028 . S
Mg115 O120 2.032 . S
Mg115 O122 2.079 . S
C116 O113 1.250 . S
C116 O114 1.248 . S
C117 O118 1.264 . S
C117 O125 1.249 . S
O118 C117 1.264 . S
O119 Mg112 1.986 . S
O119 C123 1.246 . S
O120 Mg115 2.032 . S
O120 C123 1.259 . S
O121 Mg112 2.114 . S
O121 C124 1.252 . S
O122 Mg112 2.251 . S
O122 Mg115 2.079 . S
O122 C124 1.273 . S
C123 O119 1.246 . S
C123 O120 1.259 . S
C124 O121 1.252 . S
C124 O122 1.273 . S
O125 Mg112 2.010 . S
O125 C117 1.249 . S
Mg126 O127 2.028 . S
Mg126 O133 1.986 . S
Mg126 O135 2.114 . S
Mg126 O136 2.251 1_655 S
Mg126 O139 2.010 . S
O127 Mg126 2.028 . S
O127 C130 1.250 . S
O128 Mg129 2.028 . S
O128 C130 1.248 . S
Mg129 O128 2.028 . S
Mg129 O134 2.032 . S
Mg129 O136 2.079 1_655 S
C130 O127 1.250 . S
C130 O128 1.248 . S
C131 O132 1.264 . S
C131 O139 1.249 . S
O132 C131 1.264 . S
O133 Mg126 1.986 . S
O133 C137 1.246 . S
O134 Mg129 2.032 . S
O134 C137 1.259 . S
O135 Mg126 2.114 . S
O135 C138 1.252 1_655 S
O136 Mg126 2.251 1_455 S
O136 Mg129 2.079 1_455 S
O136 C138 1.273 . S
C137 O133 1.246 . S
C137 O134 1.259 . S
C138 O135 1.252 1_455 S
C138 O136 1.273 . S
O139 Mg126 2.010 . S
O139 C131 1.249 . S
Mg140 O141 2.028 . S
Mg140 O147 1.986 . S
Mg140 O149 2.114 . S
Mg140 O150 2.251 . S
Mg140 O153 2.010 . S
O141 Mg140 2.028 . S
O141 C144 1.250 . S
O142 Mg143 2.028 . S
O142 C144 1.248 . S
Mg143 O142 2.028 . S
Mg143 O148 2.032 . S
Mg143 O150 2.079 . S
C144 O141 1.250 . S
C144 O142 1.248 . S
C145 O146 1.264 . S
C145 O153 1.249 . S
O146 C145 1.264 . S
O147 Mg140 1.986 . S
O147 C151 1.246 . S
O148 Mg143 2.032 . S
O148 C151 1.259 . S
O149 Mg140 2.114 . S
O149 C152 1.252 . S
O150 Mg140 2.251 . S
O150 Mg143 2.079 . S
O150 C152 1.273 . S
C151 O147 1.246 . S
C151 O148 1.259 . S
C152 O149 1.252 . S
C152 O150 1.273 . S
O153 Mg140 2.010 . S
O153 C145 1.249 . S
Mg154 O155 2.028 . S
Mg154 O161 1.986 . S
Mg154 O163 2.114 . S
Mg154 O164 2.251 1_545 S
Mg154 O167 2.010 . S
O155 Mg154 2.028 . S
O155 C158 1.250 . S
O156 Mg157 2.028 . S
O156 C158 1.248 . S
Mg157 O156 2.028 . S
Mg157 O162 2.032 . S
Mg157 O164 2.079 1_545 S
C158 O155 1.250 . S
C158 O156 1.248 . S
C159 O160 1.264 . S
C159 O167 1.249 . S
O160 C159 1.264 . S
O161 Mg154 1.986 . S
O161 C165 1.246 . S
O162 Mg157 2.032 . S
O162 C165 1.259 . S
O163 Mg154 2.114 . S
O163 C166 1.252 1_545 S
O164 Mg154 2.251 1_565 S
O164 Mg157 2.079 1_565 S
O164 C166 1.273 . S
C165 O161 1.246 . S
C165 O162 1.259 . S
C166 O163 1.252 1_565 S
C166 O164 1.273 . S
O167 Mg154 2.010 . S
O167 C159 1.249 . S
Mg168 O169 2.028 . S
Mg168 O175 1.986 . S
Mg168 O177 2.114 . S
Mg168 O178 2.251 . S
Mg168 O181 2.010 . S
O169 Mg168 2.028 . S
O169 C172 1.250 . S
O170 Mg171 2.028 . S
O170 C172 1.248 . S
Mg171 O170 2.028 . S
Mg171 O176 2.032 . S
Mg171 O178 2.079 . S
C172 O169 1.250 . S
C172 O170 1.248 . S
C173 O174 1.264 . S
C173 O181 1.249 . S
O174 C173 1.264 . S
O175 Mg168 1.986 . S
O175 C179 1.246 . S
O176 Mg171 2.032 . S
O176 C179 1.259 . S
O177 Mg168 2.114 . S
O177 C180 1.252 . S
O178 Mg168 2.251 . S
O178 Mg171 2.079 . S
O178 C180 1.273 . S
C179 O175 1.246 . S
C179 O176 1.259 . S
C180 O177 1.252 . S
C180 O178 1.273 . S
O181 Mg168 2.010 . S
O181 C173 1.249 . S
Mg182 O183 2.028 . S
Mg182 O189 1.986 . S
Mg182 O191 2.114 . S
Mg182 O192 2.251 . S
Mg182 O195 2.010 . S
O183 Mg182 2.028 . S
O183 C186 1.250 . S
O184 Mg185 2.028 . S
O184 C186 1.248 . S
Mg185 O184 2.028 . S
Mg185 O190 2.032 . S
Mg185 O192 2.079 . S
C186 O183 1.250 . S
C186 O184 1.248 . S
C187 O188 1.264 . S
C187 O195 1.249 . S
O188 C187 1.264 . S
O189 Mg182 1.986 . S
O189 C193 1.246 . S
O190 Mg185 2.032 . S
O190 C193 1.259 . S
O191 Mg182 2.114 . S
O191 C194 1.252 . S
O192 Mg182 2.251 . S
O192 Mg185 2.079 . S
O192 C194 1.273 . S
C193 O189 1.246 . S
C193 O190 1.259 . S
C194 O191 1.252 . S
C194 O192 1.273 . S
O195 Mg182 2.010 . S
O195 C187 1.249 . S
Mg196 O197 2.028 . S
Mg196 O203 1.986 . S
Mg196 O205 2.114 . S
Mg196 O206 2.251 . S
Mg196 O209 2.010 . S
O197 Mg196 2.028 . S
O197 C200 1.250 . S
O198 Mg199 2.028 . S
O198 C200 1.248 . S
Mg199 O198 2.028 . S
Mg199 O204 2.032 . S
Mg199 O206 2.079 . S
C200 O197 1.250 . S
C200 O198 1.248 . S
C201 O202 1.264 . S
C201 O209 1.249 . S
O202 C201 1.264 . S
O203 Mg196 1.986 . S
O203 C207 1.246 . S
O204 Mg199 2.032 . S
O204 C207 1.259 . S
O205 Mg196 2.114 . S
O205 C208 1.252 . S
O206 Mg196 2.251 . S
O206 Mg199 2.079 . S
O206 C208 1.273 . S
C207 O203 1.246 . S
C207 O204 1.259 . S
C208 O205 1.252 . S
C208 O206 1.273 . S
O209 Mg196 2.010 . S
O209 C201 1.249 . S
Mg210 O211 2.028 . S
Mg210 O217 1.986 . S
Mg210 O219 2.114 . S
Mg210 O220 2.251 . S
Mg210 O223 2.010 . S
O211 Mg210 2.028 . S
O211 C214 1.250 . S
O212 Mg213 2.028 . S
O212 C214 1.248 . S
Mg213 O212 2.028 . S
Mg213 O218 2.032 . S
Mg213 O220 2.079 . S
C214 O211 1.250 . S
C214 O212 1.248 . S
C215 O216 1.264 . S
C215 O223 1.249 . S
O216 C215 1.264 . S
O217 Mg210 1.986 . S
O217 C221 1.246 . S
O218 Mg213 2.032 . S
O218 C221 1.259 . S
O219 Mg210 2.114 . S
O219 C222 1.252 . S
O220 Mg210 2.251 . S
O220 Mg213 2.079 . S
O220 C222 1.273 . S
C221 O217 1.246 . S
C221 O218 1.259 . S
C222 O219 1.252 . S
C222 O220 1.273 . S
O223 Mg210 2.010 . S
O223 C215 1.249 . S
Mg224 O225 2.028 . S
Mg224 O231 1.986 . S
Mg224 O233 2.114 . S
Mg224 O234 2.251 . S
Mg224 O237 2.010 . S
O225 Mg224 2.028 . S
O225 C228 1.250 . S
O226 Mg227 2.028 . S
O226 C228 1.248 . S
Mg227 O226 2.028 . S
Mg227 O232 2.032 . S
Mg227 O234 2.079 . S
C228 O225 1.250 . S
C228 O226 1.248 . S
C229 O230 1.264 . S
C229 O237 1.249 . S
O230 C229 1.264 . S
O231 Mg224 1.986 . S
O231 C235 1.246 . S
O232 Mg227 2.032 . S
O232 C235 1.259 . S
O233 Mg224 2.114 . S
O233 C236 1.252 . S
O234 Mg224 2.251 . S
O234 Mg227 2.079 . S
O234 C236 1.273 . S
C235 O231 1.246 . S
C235 O232 1.259 . S
C236 O233 1.252 . S
C236 O234 1.273 . S
O237 Mg224 2.010 . S
O237 C229 1.249 . S
Mg238 O239 2.028 . S
Mg238 O245 1.986 . S
Mg238 O247 2.114 . S
Mg238 O248 2.251 . S
Mg238 O251 2.010 . S
O239 Mg238 2.028 . S
O239 C242 1.250 . S
O240 Mg241 2.028 . S
O240 C242 1.248 . S
Mg241 O240 2.028 . S
Mg241 O246 2.032 . S
Mg241 O248 2.079 . S
C242 O239 1.250 . S
C242 O240 1.248 . S
C243 O244 1.264 . S
C243 O251 1.249 . S
O244 C243 1.264 . S
O245 Mg238 1.986 . S
O245 C249 1.246 . S
O246 Mg241 2.032 . S
O246 C249 1.259 . S
O247 Mg238 2.114 . S
O247 C250 1.252 . S
O248 Mg238 2.251 . S
O248 Mg241 2.079 . S
O248 C250 1.273 . S
C249 O245 1.246 . S
C249 O246 1.259 . S
C250 O247 1.252 . S
C250 O248 1.273 . S
O251 Mg238 2.010 . S
O251 C243 1.249 . S
Mg252 O253 2.028 . S
Mg252 O259 1.986 . S
Mg252 O261 2.114 . S
Mg252 O262 2.251 . S
Mg252 O265 2.010 . S
O253 Mg252 2.028 . S
O253 C256 1.250 . S
O254 Mg255 2.028 . S
O254 C256 1.248 . S
Mg255 O254 2.028 . S
Mg255 O260 2.032 . S
Mg255 O262 2.079 . S
C256 O253 1.250 . S
C256 O254 1.248 . S
C257 O258 1.264 . S
C257 O265 1.249 . S
O258 C257 1.264 . S
O259 Mg252 1.986 . S
O259 C263 1.246 . S
O260 Mg255 2.032 . S
O260 C263 1.259 . S
O261 Mg252 2.114 . S
O261 C264 1.252 . S
O262 Mg252 2.251 . S
O262 Mg255 2.079 . S
O262 C264 1.273 . S
C263 O259 1.246 . S
C263 O260 1.259 . S
C264 O261 1.252 . S
C264 O262 1.273 . S
O265 Mg252 2.010 . S
O265 C257 1.249 . S
Mg266 O267 2.028 . S
Mg266 O273 1.986 . S
Mg266 O275 2.114 . S
Mg266 O276 2.251 . S
Mg266 O279 2.010 . S
O267 Mg266 2.028 . S
O267 C270 1.250 . S
O268 Mg269 2.028 . S
O268 C270 1.248 . S
Mg269 O268 2.028 . S
Mg269 O274 2.032 . S
Mg269 O276 2.079 . S
C270 O267 1.250 . S
C270 O268 1.248 . S
C271 O272 1.264 . S
C271 O279 1.249 . S
O272 C271 1.264 . S
O273 Mg266 1.986 . S
O273 C277 1.246 . S
O274 Mg269 2.032 . S
O274 C277 1.259 . S
O275 Mg266 2.114 . S
O275 C278 1.252 . S
O276 Mg266 2.251 . S
O276 Mg269 2.079 . S
O276 C278 1.273 . S
C277 O273 1.246 . S
C277 O274 1.259 . S
C278 O275 1.252 . S
C278 O276 1.273 . S
O279 Mg266 2.010 . S
O279 C271 1.249 . S
Mg280 O281 2.028 . S
Mg280 O287 1.986 . S
Mg280 O289 2.114 . S
Mg280 O290 2.251 . S
Mg280 O293 2.010 . S
O281 Mg280 2.028 . S
O281 C284 1.250 . S
O282 Mg283 2.028 . S
O282 C284 1.248 . S
Mg283 O282 2.028 . S
Mg283 O288 2.032 . S
Mg283 O290 2.079 . S
C284 O281 1.250 . S
C284 O282 1.248 . S
C285 O286 1.264 . S
C285 O293 1.249 . S
O286 C285 1.264 . S
O287 Mg280 1.986 . S
O287 C291 1.246 . S
O288 Mg283 2.032 . S
O288 C291 1.259 . S
O289 Mg280 2.114 . S
O289 C292 1.252 . S
O290 Mg280 2.251 . S
O290 Mg283 2.079 . S
O290 C292 1.273 . S
C291 O287 1.246 . S
C291 O288 1.259 . S
C292 O289 1.252 . S
C292 O290 1.273 . S
O293 Mg280 2.010 . S
O293 C285 1.249 . S
Mg294 O295 2.028 . S
Mg294 O301 1.986 . S
Mg294 O303 2.114 . S
Mg294 O304 2.251 . S
Mg294 O307 2.010 . S
O295 Mg294 2.028 . S
O295 C298 1.250 . S
O296 Mg297 2.028 . S
O296 C298 1.248 . S
Mg297 O296 2.028 . S
Mg297 O302 2.032 . S
Mg297 O304 2.079 . S
C298 O295 1.250 . S
C298 O296 1.248 . S
C299 O300 1.264 . S
C299 O307 1.249 . S
O300 C299 1.264 . S
O301 Mg294 1.986 . S
O301 C305 1.246 . S
O302 Mg297 2.032 . S
O302 C305 1.259 . S
O303 Mg294 2.114 . S
O303 C306 1.252 . S
O304 Mg294 2.251 . S
O304 Mg297 2.079 . S
O304 C306 1.273 . S
C305 O301 1.246 . S
C305 O302 1.259 . S
C306 O303 1.252 . S
C306 O304 1.273 . S
O307 Mg294 2.010 . S
O307 C299 1.249 . S
Mg308 O309 2.028 . S
Mg308 O315 1.986 . S
Mg308 O317 2.114 . S
Mg308 O318 2.251 . S
Mg308 O321 2.010 . S
O309 Mg308 2.028 . S
O309 C312 1.250 . S
O310 Mg311 2.028 . S
O310 C312 1.248 . S
Mg311 O310 2.028 . S
Mg311 O316 2.032 . S
Mg311 O318 2.079 . S
C312 O309 1.250 . S
C312 O310 1.248 . S
C313 O314 1.264 . S
C313 O321 1.249 . S
O314 C313 1.264 . S
O315 Mg308 1.986 . S
O315 C319 1.246 . S
O316 Mg311 2.032 . S
O316 C319 1.259 . S
O317 Mg308 2.114 . S
O317 C320 1.252 . S
O318 Mg308 2.251 . S
O318 Mg311 2.079 . S
O318 C320 1.273 . S
C319 O315 1.246 . S
C319 O316 1.259 . S
C320 O317 1.252 . S
C320 O318 1.273 . S
O321 Mg308 2.010 . S
O321 C313 1.249 . S
Mg322 O323 2.028 . S
Mg322 O329 1.986 . S
Mg322 O331 2.114 . S
Mg322 O332 2.251 . S
Mg322 O335 2.010 . S
O323 Mg322 2.028 . S
O323 C326 1.250 . S
O324 Mg325 2.028 . S
O324 C326 1.248 . S
Mg325 O324 2.028 . S
Mg325 O330 2.032 . S
Mg325 O332 2.079 . S
C326 O323 1.250 . S
C326 O324 1.248 . S
C327 O328 1.264 . S
C327 O335 1.249 . S
O328 C327 1.264 . S
O329 Mg322 1.986 . S
O329 C333 1.246 . S
O330 Mg325 2.032 . S
O330 C333 1.259 . S
O331 Mg322 2.114 . S
O331 C334 1.252 . S
O332 Mg322 2.251 . S
O332 Mg325 2.079 . S
O332 C334 1.273 . S
C333 O329 1.246 . S
C333 O330 1.259 . S
C334 O331 1.252 . S
C334 O332 1.273 . S
O335 Mg322 2.010 . S
O335 C327 1.249 . S
Mg336 O337 2.028 . S
Mg336 O343 1.986 . S
Mg336 O345 2.114 . S
Mg336 O346 2.251 . S
Mg336 O349 2.010 . S
O337 Mg336 2.028 . S
O337 C340 1.250 . S
O338 Mg339 2.028 . S
O338 C340 1.248 . S
Mg339 O338 2.028 . S
Mg339 O344 2.032 . S
Mg339 O346 2.079 . S
C340 O337 1.250 . S
C340 O338 1.248 . S
C341 O342 1.264 . S
C341 O349 1.249 . S
O342 C341 1.264 . S
O343 Mg336 1.986 . S
O343 C347 1.246 . S
O344 Mg339 2.032 . S
O344 C347 1.259 . S
O345 Mg336 2.114 . S
O345 C348 1.252 . S
O346 Mg336 2.251 . S
O346 Mg339 2.079 . S
O346 C348 1.273 . S
C347 O343 1.246 . S
C347 O344 1.259 . S
C348 O345 1.252 . S
C348 O346 1.273 . S
O349 Mg336 2.010 . S
O349 C341 1.249 . S
Mg350 O351 2.028 . S
Mg350 O357 1.986 . S
Mg350 O359 2.114 . S
Mg350 O360 2.251 . S
Mg350 O363 2.010 . S
O351 Mg350 2.028 . S
O351 C354 1.250 . S
O352 Mg353 2.028 . S
O352 C354 1.248 . S
Mg353 O352 2.028 . S
Mg353 O358 2.032 . S
Mg353 O360 2.079 . S
C354 O351 1.250 . S
C354 O352 1.248 . S
C355 O356 1.264 . S
C355 O363 1.249 . S
O356 C355 1.264 . S
O357 Mg350 1.986 . S
O357 C361 1.246 . S
O358 Mg353 2.032 . S
O358 C361 1.259 . S
O359 Mg350 2.114 . S
O359 C362 1.252 . S
O360 Mg350 2.251 . S
O360 Mg353 2.079 . S
O360 C362 1.273 . S
C361 O357 1.246 . S
C361 O358 1.259 . S
C362 O359 1.252 . S
C362 O360 1.273 . S
O363 Mg350 2.010 . S
O363 C355 1.249 . S
Mg364 O365 2.028 . S
Mg364 O371 1.986 . S
Mg364 O373 2.114 . S
Mg364 O374 2.251 . S
Mg364 O377 2.010 . S
O365 Mg364 2.028 . S
O365 C368 1.250 . S
O366 Mg367 2.028 . S
O366 C368 1.248 . S
Mg367 O366 2.028 . S
Mg367 O372 2.032 . S
Mg367 O374 2.079 . S
C368 O365 1.250 . S
C368 O366 1.248 . S
C369 O370 1.264 . S
C369 O377 1.249 . S
O370 C369 1.264 . S
O371 Mg364 1.986 . S
O371 C375 1.246 . S
O372 Mg367 2.032 . S
O372 C375 1.259 . S
O373 Mg364 2.114 . S
O373 C376 1.252 . S
O374 Mg364 2.251 . S
O374 Mg367 2.079 . S
O374 C376 1.273 . S
C375 O371 1.246 . S
C375 O372 1.259 . S
C376 O373 1.252 . S
C376 O374 1.273 . S
O377 Mg364 2.010 . S
O377 C369 1.249 . S
Mg378 O379 2.028 . S
Mg378 O385 1.986 . S
Mg378 O387 2.114 . S
Mg378 O388 2.251 . S
Mg378 O391 2.010 . S
O379 Mg378 2.028 . S
O379 C382 1.250 . S
O380 Mg381 2.028 . S
O380 C382 1.248 . S
Mg381 O380 2.028 . S
Mg381 O386 2.032 . S
Mg381 O388 2.079 . S
C382 O379 1.250 . S
C382 O380 1.248 . S
C383 O384 1.264 . S
C383 O391 1.249 . S
O384 C383 1.264 . S
O385 Mg378 1.986 . S
O385 C389 1.246 . S
O386 Mg381 2.032 . S
O386 C389 1.259 . S
O387 Mg378 2.114 . S
O387 C390 1.252 . S
O388 Mg378 2.251 . S
O388 Mg381 2.079 . S
O388 C390 1.273 . S
C389 O385 1.246 . S
C389 O386 1.259 . S
C390 O387 1.252 . S
C390 O388 1.273 . S
O391 Mg378 2.010 . S
O391 C383 1.249 . S
Mg392 O393 2.028 . S
Mg392 O399 1.986 . S
Mg392 O401 2.114 . S
Mg392 O402 2.251 . S
Mg392 O405 2.010 . S
O393 Mg392 2.028 . S
O393 C396 1.250 . S
O394 Mg395 2.028 . S
O394 C396 1.248 . S
Mg395 O394 2.028 . S
Mg395 O400 2.032 . S
Mg395 O402 2.079 . S
C396 O393 1.250 . S
C396 O394 1.248 . S
C397 O398 1.264 . S
C397 O405 1.249 . S
O398 C397 1.264 . S
O399 Mg392 1.986 . S
O399 C403 1.246 . S
O400 Mg395 2.032 . S
O400 C403 1.259 . S
O401 Mg392 2.114 . S
O401 C404 1.252 . S
O402 Mg392 2.251 . S
O402 Mg395 2.079 . S
O402 C404 1.273 . S
C403 O399 1.246 . S
C403 O400 1.259 . S
C404 O401 1.252 . S
C404 O402 1.273 . S
O405 Mg392 2.010 . S
O405 C397 1.249 . S
Mg406 O407 2.028 . S
Mg406 O413 1.986 . S
Mg406 O415 2.114 . S
Mg406 O416 2.251 . S
Mg406 O419 2.010 . S
O407 Mg406 2.028 . S
O407 C410 1.250 . S
O408 Mg409 2.028 . S
O408 C410 1.248 . S
Mg409 O408 2.028 . S
Mg409 O414 2.032 . S
Mg409 O416 2.079 . S
C410 O407 1.250 . S
C410 O408 1.248 . S
C411 O412 1.264 . S
C411 O419 1.249 . S
O412 C411 1.264 . S
O413 Mg406 1.986 . S
O413 C417 1.246 . S
O414 Mg409 2.032 . S
O414 C417 1.259 . S
O415 Mg406 2.114 . S
O415 C418 1.252 . S
O416 Mg406 2.251 . S
O416 Mg409 2.079 . S
O416 C418 1.273 . S
C417 O413 1.246 . S
C417 O414 1.259 . S
C418 O415 1.252 . S
C418 O416 1.273 . S
O419 Mg406 2.010 . S
O419 C411 1.249 . S
Mg420 O421 2.028 . S
Mg420 O427 1.986 . S
Mg420 O429 2.114 . S
Mg420 O430 2.251 . S
Mg420 O433 2.010 . S
O421 Mg420 2.028 . S
O421 C424 1.250 . S
O422 Mg423 2.028 . S
O422 C424 1.248 . S
Mg423 O422 2.028 . S
Mg423 O428 2.032 . S
Mg423 O430 2.079 . S
C424 O421 1.250 . S
C424 O422 1.248 . S
C425 O426 1.264 . S
C425 O433 1.249 . S
O426 C425 1.264 . S
O427 Mg420 1.986 . S
O427 C431 1.246 . S
O428 Mg423 2.032 . S
O428 C431 1.259 . S
O429 Mg420 2.114 . S
O429 C432 1.252 . S
O430 Mg420 2.251 . S
O430 Mg423 2.079 . S
O430 C432 1.273 . S
C431 O427 1.246 . S
C431 O428 1.259 . S
C432 O429 1.252 . S
C432 O430 1.273 . S
O433 Mg420 2.010 . S
O433 C425 1.249 . S
Mg434 O435 2.028 . S
Mg434 O441 1.986 . S
Mg434 O443 2.114 . S
Mg434 O444 2.251 . S
Mg434 O447 2.010 . S
O435 Mg434 2.028 . S
O435 C438 1.250 . S
O436 Mg437 2.028 . S
O436 C438 1.248 . S
Mg437 O436 2.028 . S
Mg437 O442 2.032 . S
Mg437 O444 2.079 . S
C438 O435 1.250 . S
C438 O436 1.248 . S
C439 O440 1.264 . S
C439 O447 1.249 . S
O440 C439 1.264 . S
O441 Mg434 1.986 . S
O441 C445 1.246 . S
O442 Mg437 2.032 . S
O442 C445 1.259 . S
O443 Mg434 2.114 . S
O443 C446 1.252 . S
O444 Mg434 2.251 . S
O444 Mg437 2.079 . S
O444 C446 1.273 . S
C445 O441 1.246 . S
C445 O442 1.259 . S
C446 O443 1.252 . S
C446 O444 1.273 . S
O447 Mg434 2.010 . S
O447 C439 1.249 . S
Mg448 O449 2.028 . S
Mg448 O455 1.986 . S
Mg448 O457 2.114 . S
Mg448 O458 2.251 . S
Mg448 O461 2.010 . S
O449 Mg448 2.028 . S
O449 C452 1.250 . S
O450 Mg451 2.028 . S
O450 C452 1.248 . S
Mg451 O450 2.028 . S
Mg451 O456 2.032 . S
Mg451 O458 2.079 . S
C452 O449 1.250 . S
C452 O450 1.248 . S
C453 O454 1.264 . S
C453 O461 1.249 . S
O454 C453 1.264 . S
O455 Mg448 1.986 . S
O455 C459 1.246 . S
O456 Mg451 2.032 . S
O456 C459 1.259 . S
O457 Mg448 2.114 . S
O457 C460 1.252 . S
O458 Mg448 2.251 . S
O458 Mg451 2.079 . S
O458 C460 1.273 . S
C459 O455 1.246 . S
C459 O456 1.259 . S
C460 O457 1.252 . S
C460 O458 1.273 . S
O461 Mg448 2.010 . S
O461 C453 1.249 . S
Mg462 O463 2.028 . S
Mg462 O469 1.986 . S
Mg462 O471 2.114 . S
Mg462 O472 2.251 . S
Mg462 O475 2.010 . S
O463 Mg462 2.028 . S
O463 C466 1.250 . S
O464 Mg465 2.028 . S
O464 C466 1.248 . S
Mg465 O464 2.028 . S
Mg465 O470 2.032 . S
Mg465 O472 2.079 . S
C466 O463 1.250 . S
C466 O464 1.248 . S
C467 O468 1.264 . S
C467 O475 1.249 . S
O468 C467 1.264 . S
O469 Mg462 1.986 . S
O469 C473 1.246 . S
O470 Mg465 2.032 . S
O470 C473 1.259 . S
O471 Mg462 2.114 . S
O471 C474 1.252 . S
O472 Mg462 2.251 . S
O472 Mg465 2.079 . S
O472 C474 1.273 . S
C473 O469 1.246 . S
C473 O470 1.259 . S
C474 O471 1.252 . S
C474 O472 1.273 . S
O475 Mg462 2.010 . S
O475 C467 1.249 . S
Mg476 O477 2.028 . S
Mg476 O483 1.986 . S
Mg476 O485 2.114 . S
Mg476 O486 2.251 . S
Mg476 O489 2.010 . S
O477 Mg476 2.028 . S
O477 C480 1.250 . S
O478 Mg479 2.028 . S
O478 C480 1.248 . S
Mg479 O478 2.028 . S
Mg479 O484 2.032 . S
Mg479 O486 2.079 . S
C480 O477 1.250 . S
C480 O478 1.248 . S
C481 O482 1.264 . S
C481 O489 1.249 . S
O482 C481 1.264 . S
O483 Mg476 1.986 . S
O483 C487 1.246 . S
O484 Mg479 2.032 . S
O484 C487 1.259 . S
O485 Mg476 2.114 . S
O485 C488 1.252 . S
O486 Mg476 2.251 . S
O486 Mg479 2.079 . S
O486 C488 1.273 . S
C487 O483 1.246 . S
C487 O484 1.259 . S
C488 O485 1.252 . S
C488 O486 1.273 . S
O489 Mg476 2.010 . S
O489 C481 1.249 . S
Mg490 O491 2.028 . S
Mg490 O497 1.986 . S
Mg490 O499 2.114 . S
Mg490 O500 2.251 . S
Mg490 O503 2.010 . S
O491 Mg490 2.028 . S
O491 C494 1.250 . S
O492 Mg493 2.028 . S
O492 C494 1.248 . S
Mg493 O492 2.028 . S
Mg493 O498 2.032 . S
Mg493 O500 2.079 . S
C494 O491 1.250 . S
C494 O492 1.248 . S
C495 O496 1.264 . S
C495 O503 1.249 . S
O496 C495 1.264 . S
O497 Mg490 1.986 . S
O497 C501 1.246 . S
O498 Mg493 2.032 . S
O498 C501 1.259 . S
O499 Mg490 2.114 . S
O499 C502 1.252 . S
O500 Mg490 2.251 . S
O500 Mg493 2.079 . S
O500 C502 1.273 . S
C501 O497 1.246 . S
C501 O498 1.259 . S
C502 O499 1.252 . S
C502 O500 1.273 . S
O503 Mg490 2.010 . S
O503 C495 1.249 . S
H504 C510 0.930 . S
H505 C513 0.930 . S
H506 C514 0.930 . S
H507 C515 0.930 . S
H508 C518 0.930 . S
H509 C519 0.930 . S
C510 H504 0.930 . S
C510 C511 1.355 . S
C510 C512 1.415 . S
C511 C510 1.355 . S
C511 C513 1.419 . S
C512 C510 1.415 . S
C512 C517 1.425 . S
C512 C519 1.409 . S
C513 H505 0.930 . S
C513 C511 1.419 . S
C513 C514 1.362 . S
C514 H506 0.930 . S
C514 C513 1.362 . S
C514 C517 1.409 . S
C515 H507 0.930 . S
C515 C516 1.355 . S
C515 C517 1.415 . S
C516 C515 1.355 . S
C516 C518 1.419 . S
C517 C512 1.425 . S
C517 C514 1.409 . S
C517 C515 1.415 . S
C518 H508 0.930 . S
C518 C516 1.419 . S
C518 C519 1.362 . S
C519 H509 0.930 . S
C519 C512 1.409 . S
C519 C518 1.362 . S
H520 C526 0.930 . S
H521 C529 0.930 . S
H522 C530 0.930 . S
H523 C531 0.930 . S
H524 C534 0.930 . S
H525 C535 0.930 . S
C526 H520 0.930 . S
C526 C527 1.355 . S
C526 C528 1.415 . S
C527 C526 1.355 . S
C527 C529 1.419 . S
C528 C526 1.415 . S
C528 C533 1.425 . S
C528 C535 1.409 . S
C529 H521 0.930 . S
C529 C527 1.419 . S
C529 C530 1.362 . S
C530 H522 0.930 . S
C530 C529 1.362 . S
C530 C533 1.409 . S
C531 H523 0.930 . S
C531 C532 1.355 . S
C531 C533 1.415 . S
C532 C531 1.355 . S
C532 C534 1.419 . S
C533 C528 1.425 . S
C533 C530 1.409 . S
C533 C531 1.415 . S
C534 H524 0.930 . S
C534 C532 1.419 . S
C534 C535 1.362 . S
C535 H525 0.930 . S
C535 C528 1.409 . S
C535 C534 1.362 . S
H536 C542 0.930 . S
H537 C545 0.930 . S
H538 C546 0.930 . S
H539 C547 0.930 . S
H540 C550 0.930 . S
H541 C551 0.930 . S
C542 H536 0.930 . S
C542 C543 1.355 . S
C542 C544 1.415 . S
C543 C542 1.355 . S
C543 C545 1.419 . S
C544 C542 1.415 . S
C544 C549 1.425 . S
C544 C551 1.409 . S
C545 H537 0.930 . S
C545 C543 1.419 . S
C545 C546 1.362 . S
C546 H538 0.930 . S
C546 C545 1.362 . S
C546 C549 1.409 . S
C547 H539 0.930 . S
C547 C548 1.355 . S
C547 C549 1.415 . S
C548 C547 1.355 . S
C548 C550 1.419 . S
C549 C544 1.425 . S
C549 C546 1.409 . S
C549 C547 1.415 . S
C550 H540 0.930 . S
C550 C548 1.419 . S
C550 C551 1.362 . S
C551 H541 0.930 . S
C551 C544 1.409 . S
C551 C550 1.362 . S
H552 C558 0.930 . S
H553 C561 0.930 . S
H554 C562 0.930 . S
H555 C563 0.930 . S
H556 C566 0.930 . S
H557 C567 0.930 . S
C558 H552 0.930 . S
C558 C559 1.355 . S
C558 C560 1.415 . S
C559 C558 1.355 . S
C559 C561 1.419 . S
C560 C558 1.415 . S
C560 C565 1.425 . S
C560 C567 1.409 . S
C561 H553 0.930 . S
C561 C559 1.419 . S
C561 C562 1.362 . S
C562 H554 0.930 . S
C562 C561 1.362 . S
C562 C565 1.409 . S
C563 H555 0.930 . S
C563 C564 1.355 . S
C563 C565 1.415 . S
C564 C563 1.355 . S
C564 C566 1.419 . S
C565 C560 1.425 . S
C565 C562 1.409 . S
C565 C563 1.415 . S
C566 H556 0.930 . S
C566 C564 1.419 . S
C566 C567 1.362 . S
C567 H557 0.930 . S
C567 C560 1.409 . S
C567 C566 1.362 . S
H568 C574 0.930 . S
H569 C577 0.930 . S
H570 C578 0.930 . S
H571 C579 0.930 . S
H572 C582 0.930 . S
H573 C583 0.930 . S
C574 H568 0.930 . S
C574 C575 1.355 . S
C574 C576 1.415 . S
C575 C574 1.355 . S
C575 C577 1.419 . S
C576 C574 1.415 . S
C576 C581 1.425 . S
C576 C583 1.409 . S
C577 H569 0.930 . S
C577 C575 1.419 . S
C577 C578 1.362 . S
C578 H570 0.930 . S
C578 C577 1.362 . S
C578 C581 1.409 . S
C579 H571 0.930 . S
C579 C580 1.355 . S
C579 C581 1.415 . S
C580 C579 1.355 . S
C580 C582 1.419 . S
C581 C576 1.425 . S
C581 C578 1.409 . S
C581 C579 1.415 . S
C582 H572 0.930 . S
C582 C580 1.419 . S
C582 C583 1.362 . S
C583 H573 0.930 . S
C583 C576 1.409 . S
C583 C582 1.362 . S
H584 C590 0.930 . S
H585 C593 0.930 . S
H586 C594 0.930 . S
H587 C595 0.930 . S
H588 C598 0.930 . S
H589 C599 0.930 . S
C590 H584 0.930 . S
C590 C591 1.355 . S
C590 C592 1.415 . S
C591 C590 1.355 . S
C591 C593 1.419 . S
C592 C590 1.415 . S
C592 C597 1.425 . S
C592 C599 1.409 . S
C593 H585 0.930 . S
C593 C591 1.419 . S
C593 C594 1.362 . S
C594 H586 0.930 . S
C594 C593 1.362 . S
C594 C597 1.409 . S
C595 H587 0.930 . S
C595 C596 1.355 . S
C595 C597 1.415 . S
C596 C595 1.355 . S
C596 C598 1.419 . S
C597 C592 1.425 . S
C597 C594 1.409 . S
C597 C595 1.415 . S
C598 H588 0.930 . S
C598 C596 1.419 . S
C598 C599 1.362 . S
C599 H589 0.930 . S
C599 C592 1.409 . S
C599 C598 1.362 . S
H600 C606 0.930 . S
H601 C609 0.930 . S
H602 C610 0.930 . S
H603 C611 0.930 . S
H604 C614 0.930 . S
H605 C615 0.930 . S
C606 H600 0.930 . S
C606 C607 1.355 . S
C606 C608 1.415 . S
C607 C606 1.355 . S
C607 C609 1.419 . S
C608 C606 1.415 . S
C608 C613 1.425 . S
C608 C615 1.409 . S
C609 H601 0.930 . S
C609 C607 1.419 . S
C609 C610 1.362 . S
C610 H602 0.930 . S
C610 C609 1.362 . S
C610 C613 1.409 . S
C611 H603 0.930 . S
C611 C612 1.355 . S
C611 C613 1.415 . S
C612 C611 1.355 . S
C612 C614 1.419 . S
C613 C608 1.425 . S
C613 C610 1.409 . S
C613 C611 1.415 . S
C614 H604 0.930 . S
C614 C612 1.419 . S
C614 C615 1.362 . S
C615 H605 0.930 . S
C615 C608 1.409 . S
C615 C614 1.362 . S
H616 C622 0.930 . S
H617 C625 0.930 . S
H618 C626 0.930 . S
H619 C627 0.930 . S
H620 C630 0.930 . S
H621 C631 0.930 . S
C622 H616 0.930 . S
C622 C623 1.355 . S
C622 C624 1.415 . S
C623 C622 1.355 . S
C623 C625 1.419 . S
C624 C622 1.415 . S
C624 C629 1.425 . S
C624 C631 1.409 . S
C625 H617 0.930 . S
C625 C623 1.419 . S
C625 C626 1.362 . S
C626 H618 0.930 . S
C626 C625 1.362 . S
C626 C629 1.409 . S
C627 H619 0.930 . S
C627 C628 1.355 . S
C627 C629 1.415 . S
C628 C627 1.355 . S
C628 C630 1.419 . S
C629 C624 1.425 . S
C629 C626 1.409 . S
C629 C627 1.415 . S
C630 H620 0.930 . S
C630 C628 1.419 . S
C630 C631 1.362 . S
C631 H621 0.930 . S
C631 C624 1.409 . S
C631 C630 1.362 . S
H632 C638 0.930 . S
H633 C641 0.930 . S
H634 C642 0.930 . S
H635 C643 0.930 . S
H636 C646 0.930 . S
H637 C647 0.930 . S
C638 H632 0.930 . S
C638 C639 1.355 . S
C638 C640 1.415 . S
C639 C638 1.355 . S
C639 C641 1.419 . S
C640 C638 1.415 . S
C640 C645 1.425 . S
C640 C647 1.409 . S
C641 H633 0.930 . S
C641 C639 1.419 . S
C641 C642 1.362 . S
C642 H634 0.930 . S
C642 C641 1.362 . S
C642 C645 1.409 . S
C643 H635 0.930 . S
C643 C644 1.355 . S
C643 C645 1.415 . S
C644 C643 1.355 . S
C644 C646 1.419 . S
C645 C640 1.425 . S
C645 C642 1.409 . S
C645 C643 1.415 . S
C646 H636 0.930 . S
C646 C644 1.419 . S
C646 C647 1.362 . S
C647 H637 0.930 . S
C647 C640 1.409 . S
C647 C646 1.362 . S
H648 C654 0.930 . S
H649 C657 0.930 . S
H650 C658 0.930 . S
H651 C659 0.930 . S
H652 C662 0.930 . S
H653 C663 0.930 . S
C654 H648 0.930 . S
C654 C655 1.355 . S
C654 C656 1.415 . S
C655 C654 1.355 . S
C655 C657 1.419 . S
C656 C654 1.415 . S
C656 C661 1.425 . S
C656 C663 1.409 . S
C657 H649 0.930 . S
C657 C655 1.419 . S
C657 C658 1.362 . S
C658 H650 0.930 . S
C658 C657 1.362 . S
C658 C661 1.409 . S
C659 H651 0.930 . S
C659 C660 1.355 . S
C659 C661 1.415 . S
C660 C659 1.355 . S
C660 C662 1.419 . S
C661 C656 1.425 . S
C661 C658 1.409 . S
C661 C659 1.415 . S
C662 H652 0.930 . S
C662 C660 1.419 . S
C662 C663 1.362 . S
C663 H653 0.930 . S
C663 C656 1.409 . S
C663 C662 1.362 . S
H664 C670 0.930 . S
H665 C673 0.930 . S
H666 C674 0.930 . S
H667 C675 0.930 . S
H668 C678 0.930 . S
H669 C679 0.930 . S
C670 H664 0.930 . S
C670 C671 1.355 . S
C670 C672 1.415 . S
C671 C670 1.355 . S
C671 C673 1.419 . S
C672 C670 1.415 . S
C672 C677 1.425 . S
C672 C679 1.409 . S
C673 H665 0.930 . S
C673 C671 1.419 . S
C673 C674 1.362 . S
C674 H666 0.930 . S
C674 C673 1.362 . S
C674 C677 1.409 . S
C675 H667 0.930 . S
C675 C676 1.355 . S
C675 C677 1.415 . S
C676 C675 1.355 . S
C676 C678 1.419 . S
C677 C672 1.425 . S
C677 C674 1.409 . S
C677 C675 1.415 . S
C678 H668 0.930 . S
C678 C676 1.419 . S
C678 C679 1.362 . S
C679 H669 0.930 . S
C679 C672 1.409 . S
C679 C678 1.362 . S
H680 C686 0.930 . S
H681 C689 0.930 . S
H682 C690 0.930 . S
H683 C691 0.930 . S
H684 C694 0.930 . S
H685 C695 0.930 . S
C686 H680 0.930 . S
C686 C687 1.355 . S
C686 C688 1.415 . S
C687 C686 1.355 . S
C687 C689 1.419 . S
C688 C686 1.415 . S
C688 C693 1.425 . S
C688 C695 1.409 . S
C689 H681 0.930 . S
C689 C687 1.419 . S
C689 C690 1.362 . S
C690 H682 0.930 . S
C690 C689 1.362 . S
C690 C693 1.409 . S
C691 H683 0.930 . S
C691 C692 1.355 . S
C691 C693 1.415 . S
C692 C691 1.355 . S
C692 C694 1.419 . S
C693 C688 1.425 . S
C693 C690 1.409 . S
C693 C691 1.415 . S
C694 H684 0.930 . S
C694 C692 1.419 . S
C694 C695 1.362 . S
C695 H685 0.930 . S
C695 C688 1.409 . S
C695 C694 1.362 . S
H696 C702 0.930 . S
H697 C705 0.930 . S
H698 C706 0.930 . S
H699 C707 0.930 . S
H700 C710 0.930 . S
H701 C711 0.930 . S
C702 H696 0.930 . S
C702 C703 1.355 . S
C702 C704 1.415 . S
C703 C702 1.355 . S
C703 C705 1.419 1_455 S
C704 C702 1.415 . S
C704 C709 1.425 1_455 S
C704 C711 1.409 . S
C705 H697 0.930 . S
C705 C703 1.419 1_655 S
C705 C706 1.362 . S
C706 H698 0.930 . S
C706 C705 1.362 . S
C706 C709 1.409 . S
C707 H699 0.930 . S
C707 C708 1.355 . S
C707 C709 1.415 . S
C708 C707 1.355 . S
C708 C710 1.419 1_655 S
C709 C704 1.425 1_655 S
C709 C706 1.409 . S
C709 C707 1.415 . S
C710 H700 0.930 . S
C710 C708 1.419 1_455 S
C710 C711 1.362 . S
C711 H701 0.930 . S
C711 C704 1.409 . S
C711 C710 1.362 . S
H712 C718 0.930 . S
H713 C721 0.930 . S
H714 C722 0.930 . S
H715 C723 0.930 . S
H716 C726 0.930 . S
H717 C727 0.930 . S
C718 H712 0.930 . S
C718 C719 1.355 . S
C718 C720 1.415 . S
C719 C718 1.355 . S
C719 C721 1.419 . S
C720 C718 1.415 . S
C720 C725 1.425 . S
C720 C727 1.409 . S
C721 H713 0.930 . S
C721 C719 1.419 . S
C721 C722 1.362 . S
C722 H714 0.930 . S
C722 C721 1.362 . S
C722 C725 1.409 . S
C723 H715 0.930 . S
C723 C724 1.355 . S
C723 C725 1.415 . S
C724 C723 1.355 . S
C724 C726 1.419 . S
C725 C720 1.425 . S
C725 C722 1.409 . S
C725 C723 1.415 . S
C726 H716 0.930 . S
C726 C724 1.419 . S
C726 C727 1.362 . S
C727 H717 0.930 . S
C727 C720 1.409 . S
C727 C726 1.362 . S
H728 C734 0.930 . S
H729 C737 0.930 . S
H730 C738 0.930 . S
H731 C739 0.930 . S
H732 C742 0.930 . S
H733 C743 0.930 . S
C734 H728 0.930 . S
C734 C735 1.355 1_565 S
C734 C736 1.415 . S
C735 C734 1.355 1_545 S
C735 C737 1.419 . S
C736 C734 1.415 . S
C736 C741 1.425 1_565 S
C736 C743 1.409 . S
C737 H729 0.930 . S
C737 C735 1.419 . S
C737 C738 1.362 . S
C738 H730 0.930 . S
C738 C737 1.362 . S
C738 C741 1.409 . S
C739 H731 0.930 . S
C739 C740 1.355 1_545 S
C739 C741 1.415 . S
C740 C739 1.355 1_565 S
C740 C742 1.419 . S
C741 C736 1.425 1_545 S
C741 C738 1.409 . S
C741 C739 1.415 . S
C742 H732 0.930 . S
C742 C740 1.419 . S
C742 C743 1.362 . S
C743 H733 0.930 . S
C743 C736 1.409 . S
C743 C742 1.362 . S
H744 C750 0.930 . S
H745 C753 0.930 . S
H746 C754 0.930 1_556 S
H747 C755 0.930 . S
H748 C758 0.930 . S
H749 C759 0.930 1_554 S
C750 H744 0.930 . S
C750 C751 1.355 1_545 S
C750 C752 1.415 . S
C751 C750 1.355 1_565 S
C751 C753 1.419 . S
C752 C750 1.415 . S
C752 C757 1.425 1_544 S
C752 C759 1.409 1_554 S
C753 H745 0.930 . S
C753 C751 1.419 . S
C753 C754 1.362 . S
C754 H746 0.930 1_554 S
C754 C753 1.362 . S
C754 C757 1.409 1_554 S
C755 H747 0.930 . S
C755 C756 1.355 1_565 S
C755 C757 1.415 . S
C756 C755 1.355 1_545 S
C756 C758 1.419 . S
C757 C752 1.425 1_566 S
C757 C754 1.409 1_556 S
C757 C755 1.415 . S
C758 H748 0.930 . S
C758 C756 1.419 . S
C758 C759 1.362 . S
C759 H749 0.930 1_556 S
C759 C752 1.409 1_556 S
C759 C758 1.362 . S
H760 C766 0.930 . S
H761 C769 0.930 . S
H762 C770 0.898 1_554 S
H763 C771 0.930 . S
H764 C774 0.930 . S
H765 C775 0.898 1_556 S
C766 H760 0.930 . S
C766 C767 1.355 1_455 S
C766 C768 1.415 . S
C767 C766 1.355 1_655 S
C767 C769 1.419 . S
C768 C766 1.415 . S
C768 C773 1.425 1_456 S
C768 C775 1.409 1_556 S
C769 H761 0.930 . S
C769 C767 1.419 . S
C769 C770 1.362 . S
C770 H762 0.898 1_556 S
C770 C769 1.362 . S
C770 C773 1.409 1_556 S
C771 H763 0.930 . S
C771 C772 1.355 1_655 S
C771 C773 1.415 . S
C772 C771 1.355 1_455 S
C772 C774 1.419 . S
C773 C768 1.425 1_654 S
C773 C770 1.409 1_554 S
C773 C771 1.415 . S
C774 H764 0.930 . S
C774 C772 1.419 . S
C774 C775 1.362 . S
C775 H765 0.898 1_554 S
C775 C768 1.409 1_554 S
C775 C774 1.362 . S
H776 C782 0.930 . S
H777 C785 0.930 . S
H778 C786 0.886 1_554 S
H779 C787 0.930 . S
H780 C790 0.930 . S
H781 C791 0.886 1_556 S
C782 H776 0.930 . S
C782 C783 1.355 . S
C782 C784 1.415 . S
C783 C782 1.355 . S
C783 C785 1.419 . S
C784 C782 1.415 . S
C784 C789 1.425 1_556 S
C784 C791 1.382 1_556 S
C785 H777 0.930 . S
C785 C783 1.419 . S
C785 C786 1.438 . S
C786 H778 0.886 1_556 S
C786 C785 1.438 . S
C786 C789 1.382 1_556 S
C787 H779 0.930 . S
C787 C788 1.355 . S
C787 C789 1.415 . S
C788 C787 1.355 . S
C788 C790 1.419 . S
C789 C784 1.425 1_554 S
C789 C786 1.382 1_554 S
C789 C787 1.415 . S
C790 H780 0.930 . S
C790 C788 1.419 . S
C790 C791 1.438 . S
C791 H781 0.886 1_554 S
C791 C784 1.382 1_554 S
C791 C790 1.438 . S
H792 C798 0.930 1_565 S
H793 C801 0.930 . S
H794 C802 0.930 . S
H795 C803 0.930 1_545 S
H796 C806 0.930 . S
H797 C807 0.930 . S
C798 H792 0.930 1_545 S
C798 C799 1.355 . S
C798 C800 1.415 1_545 S
C799 C798 1.355 . S
C799 C801 1.419 . S
C800 C798 1.415 1_565 S
C800 C805 1.425 1_565 S
C800 C807 1.409 . S
C801 H793 0.930 . S
C801 C799 1.419 . S
C801 C802 1.362 . S
C802 H794 0.930 . S
C802 C801 1.362 . S
C802 C805 1.409 . S
C803 H795 0.930 1_565 S
C803 C804 1.355 . S
C803 C805 1.415 1_565 S
C804 C803 1.355 . S
C804 C806 1.419 . S
C805 C800 1.425 1_545 S
C805 C802 1.409 . S
C805 C803 1.415 1_545 S
C806 H796 0.930 . S
C806 C804 1.419 . S
C806 C807 1.362 . S
C807 H797 0.930 . S
C807 C800 1.409 . S
C807 C806 1.362 . S
H808 C814 0.930 . S
H809 C817 0.930 . S
H810 C818 0.930 . S
H811 C819 0.930 . S
H812 C822 0.930 . S
H813 C823 0.930 . S
C814 H808 0.930 . S
C814 C815 1.355 . S
C814 C816 1.415 1_455 S
C815 C814 1.355 . S
C815 C817 1.419 . S
C816 C814 1.415 1_655 S
C816 C821 1.425 1_655 S
C816 C823 1.409 . S
C817 H809 0.930 . S
C817 C815 1.419 . S
C817 C818 1.362 . S
C818 H810 0.930 . S
C818 C817 1.362 . S
C818 C821 1.409 . S
C819 H811 0.930 . S
C819 C820 1.355 . S
C819 C821 1.415 1_655 S
C820 C819 1.355 . S
C820 C822 1.419 . S
C821 C816 1.425 1_455 S
C821 C818 1.409 . S
C821 C819 1.415 1_455 S
C822 H812 0.930 . S
C822 C820 1.419 . S
C822 C823 1.362 . S
C823 H813 0.930 . S
C823 C816 1.409 . S
C823 C822 1.362 . S
H824 C830 0.930 . S
H825 C833 0.930 . S
H826 C834 0.930 . S
H827 C835 0.930 . S
H828 C838 0.930 . S
H829 C839 0.930 . S
C830 H824 0.930 . S
C830 C831 1.355 . S
C830 C832 1.415 . S
C831 C830 1.355 . S
C831 C833 1.419 . S
C832 C830 1.415 . S
C832 C837 1.425 . S
C832 C839 1.409 . S
C833 H825 0.930 . S
C833 C831 1.419 . S
C833 C834 1.362 . S
C834 H826 0.930 . S
C834 C833 1.362 . S
C834 C837 1.409 . S
C835 H827 0.930 . S
C835 C836 1.355 . S
C835 C837 1.415 . S
C836 C835 1.355 . S
C836 C838 1.419 . S
C837 C832 1.425 . S
C837 C834 1.409 . S
C837 C835 1.415 . S
C838 H828 0.930 . S
C838 C836 1.419 . S
C838 C839 1.362 . S
C839 H829 0.930 . S
C839 C832 1.409 . S
C839 C838 1.362 . S
H840 C846 0.930 . S
H841 C849 0.930 . S
H842 C850 0.930 . S
H843 C851 0.930 . S
H844 C854 0.930 . S
H845 C855 0.930 . S
C846 H840 0.930 . S
C846 C847 1.355 . S
C846 C848 1.415 . S
C847 C846 1.355 . S
C847 C849 1.419 . S
C848 C846 1.415 . S
C848 C853 1.425 1_655 S
C848 C855 1.409 . S
C849 H841 0.930 . S
C849 C847 1.419 . S
C849 C850 1.362 1_655 S
C850 H842 0.930 . S
C850 C849 1.362 1_455 S
C850 C853 1.409 . S
C851 H843 0.930 . S
C851 C852 1.355 . S
C851 C853 1.415 . S
C852 C851 1.355 . S
C852 C854 1.419 . S
C853 C848 1.425 1_455 S
C853 C850 1.409 . S
C853 C851 1.415 . S
C854 H844 0.930 . S
C854 C852 1.419 . S
C854 C855 1.362 1_455 S
C855 H845 0.930 . S
C855 C848 1.409 . S
C855 C854 1.362 1_655 S
H856 C862 0.930 . S
H857 C865 0.930 . S
H858 C866 0.930 . S
H859 C867 0.930 . S
H860 C870 0.930 . S
H861 C871 0.930 . S
C862 H856 0.930 . S
C862 C863 1.355 . S
C862 C864 1.415 . S
C863 C862 1.355 . S
C863 C865 1.419 . S
C864 C862 1.415 . S
C864 C869 1.425 . S
C864 C871 1.409 . S
C865 H857 0.930 . S
C865 C863 1.419 . S
C865 C866 1.362 . S
C866 H858 0.930 . S
C866 C865 1.362 . S
C866 C869 1.409 . S
C867 H859 0.930 . S
C867 C868 1.355 . S
C867 C869 1.415 . S
C868 C867 1.355 . S
C868 C870 1.419 . S
C869 C864 1.425 . S
C869 C866 1.409 . S
C869 C867 1.415 . S
C870 H860 0.930 . S
C870 C868 1.419 . S
C870 C871 1.362 . S
C871 H861 0.930 . S
C871 C864 1.409 . S
C871 C870 1.362 . S
H872 C878 0.930 . S
H873 C881 0.930 . S
H874 C882 0.930 . S
H875 C883 0.930 . S
H876 C886 0.930 . S
H877 C887 0.930 . S
C878 H872 0.930 . S
C878 C879 1.355 1_565 S
C878 C880 1.415 . S
C879 C878 1.355 1_545 S
C879 C881 1.419 . S
C880 C878 1.415 . S
C880 C885 1.425 1_565 S
C880 C887 1.409 . S
C881 H873 0.930 . S
C881 C879 1.419 . S
C881 C882 1.362 . S
C882 H874 0.930 . S
C882 C881 1.362 . S
C882 C885 1.409 . S
C883 H875 0.930 . S
C883 C884 1.355 1_545 S
C883 C885 1.415 . S
C884 C883 1.355 1_565 S
C884 C886 1.419 . S
C885 C880 1.425 1_545 S
C885 C882 1.409 . S
C885 C883 1.415 . S
C886 H876 0.930 . S
C886 C884 1.419 . S
C886 C887 1.362 . S
C887 H877 0.930 . S
C887 C880 1.409 . S
C887 C886 1.362 . S
H888 C894 0.930 . S
H889 C897 0.930 . S
H890 C898 0.930 . S
H891 C899 0.930 . S
H892 C902 0.930 . S
H893 C903 0.930 . S
C894 H888 0.930 . S
C894 C895 1.355 . S
C894 C896 1.415 1_565 S
C895 C894 1.355 . S
C895 C897 1.419 . S
C896 C894 1.415 1_545 S
C896 C901 1.425 1_545 S
C896 C903 1.409 . S
C897 H889 0.930 . S
C897 C895 1.419 . S
C897 C898 1.362 . S
C898 H890 0.930 . S
C898 C897 1.362 . S
C898 C901 1.409 . S
C899 H891 0.930 . S
C899 C900 1.355 . S
C899 C901 1.415 1_545 S
C900 C899 1.355 . S
C900 C902 1.419 . S
C901 C896 1.425 1_565 S
C901 C898 1.409 . S
C901 C899 1.415 1_565 S
C902 H892 0.930 . S
C902 C900 1.419 . S
C902 C903 1.362 . S
C903 H893 0.930 . S
C903 C896 1.409 . S
C903 C902 1.362 . S
H904 C910 0.930 . S
H905 C913 0.930 . S
H906 C914 0.930 . S
H907 C915 0.930 . S
H908 C918 0.930 . S
H909 C919 0.930 . S
C910 H904 0.930 . S
C910 C911 1.355 1_455 S
C910 C912 1.415 . S
C911 C910 1.355 1_655 S
C911 C913 1.419 . S
C912 C910 1.415 . S
C912 C917 1.425 1_455 S
C912 C919 1.409 . S
C913 H905 0.930 . S
C913 C911 1.419 . S
C913 C914 1.362 . S
C914 H906 0.930 . S
C914 C913 1.362 . S
C914 C917 1.409 . S
C915 H907 0.930 . S
C915 C916 1.355 1_655 S
C915 C917 1.415 . S
C916 C915 1.355 1_455 S
C916 C918 1.419 . S
C917 C912 1.425 1_655 S
C917 C914 1.409 . S
C917 C915 1.415 . S
C918 H908 0.930 . S
C918 C916 1.419 . S
C918 C919 1.362 . S
C919 H909 0.930 . S
C919 C912 1.409 . S
C919 C918 1.362 . S
H920 C926 0.930 . S
H921 C929 0.930 . S
H922 C930 0.930 . S
H923 C931 0.930 . S
H924 C934 0.930 . S
H925 C935 0.930 . S
C926 H920 0.930 . S
C926 C927 1.355 . S
C926 C928 1.415 . S
C927 C926 1.355 . S
C927 C929 1.419 . S
C928 C926 1.415 . S
C928 C933 1.425 . S
C928 C935 1.409 . S
C929 H921 0.930 . S
C929 C927 1.419 . S
C929 C930 1.362 . S
C930 H922 0.930 . S
C930 C929 1.362 . S
C930 C933 1.409 . S
C931 H923 0.930 . S
C931 C932 1.355 . S
C931 C933 1.415 . S
C932 C931 1.355 . S
C932 C934 1.419 . S
C933 C928 1.425 . S
C933 C930 1.409 . S
C933 C931 1.415 . S
C934 H924 0.930 . S
C934 C932 1.419 . S
C934 C935 1.362 . S
C935 H925 0.930 . S
C935 C928 1.409 . S
C935 C934 1.362 . S
H936 C942 0.930 . S
H937 C945 0.938 1_455 S
H938 C946 0.930 . S
H939 C947 0.930 . S
H940 C950 0.941 1_655 S
H941 C951 0.930 . S
C942 H936 0.930 . S
C942 C943 1.355 . S
C942 C944 1.415 . S
C943 C942 1.355 . S
C943 C945 1.419 . S
C944 C942 1.415 . S
C944 C949 1.425 1_655 S
C944 C951 1.409 . S
C945 H937 0.938 1_655 S
C945 C943 1.419 . S
C945 C946 1.362 1_655 S
C946 H938 0.930 . S
C946 C945 1.362 1_455 S
C946 C949 1.409 . S
C947 H939 0.930 . S
C947 C948 1.355 . S
C947 C949 1.415 . S
C948 C947 1.355 . S
C948 C950 1.419 . S
C949 C944 1.425 1_455 S
C949 C946 1.409 . S
C949 C947 1.415 . S
C950 H940 0.941 1_455 S
C950 C948 1.419 . S
C950 C951 1.362 1_455 S
C951 H941 0.930 . S
C951 C944 1.409 . S
C951 C950 1.362 1_655 S
H952 C958 0.930 . S
H953 C961 0.930 . S
H954 C962 0.930 . S
H955 C963 0.930 . S
H956 C966 0.930 . S
H957 C967 0.930 . S
C958 H952 0.930 . S
C958 C959 1.355 . S
C958 C960 1.415 . S
C959 C958 1.355 . S
C959 C961 1.419 . S
C960 C958 1.415 . S
C960 C965 1.425 . S
C960 C967 1.409 . S
C961 H953 0.930 . S
C961 C959 1.419 . S
C961 C962 1.362 . S
C962 H954 0.930 . S
C962 C961 1.362 . S
C962 C965 1.409 . S
C963 H955 0.930 . S
C963 C964 1.355 . S
C963 C965 1.415 . S
C964 C963 1.355 . S
C964 C966 1.419 . S
C965 C960 1.425 . S
C965 C962 1.409 . S
C965 C963 1.415 . S
C966 H956 0.930 . S
C966 C964 1.419 . S
C966 C967 1.362 . S
C967 H957 0.930 . S
C967 C960 1.409 . S
C967 C966 1.362 . S
H968 C974 0.930 . S
H969 C977 0.930 . S
H970 C978 0.930 . S
H971 C979 0.930 . S
H972 C982 0.930 . S
H973 C983 0.930 . S
C974 H968 0.930 . S
C974 C975 1.355 . S
C974 C976 1.415 . S
C975 C974 1.355 . S
C975 C977 1.419 1_545 S
C976 C974 1.415 . S
C976 C981 1.425 1_545 S
C976 C983 1.409 . S
C977 H969 0.930 . S
C977 C975 1.419 1_565 S
C977 C978 1.362 . S
C978 H970 0.930 . S
C978 C977 1.362 . S
C978 C981 1.409 . S
C979 H971 0.930 . S
C979 C980 1.355 . S
C979 C981 1.415 . S
C980 C979 1.355 . S
C980 C982 1.419 1_565 S
C981 C976 1.425 1_565 S
C981 C978 1.409 . S
C981 C979 1.415 . S
C982 H972 0.930 . S
C982 C980 1.419 1_545 S
C982 C983 1.362 . S
C983 H973 0.930 . S
C983 C976 1.409 . S
C983 C982 1.362 . S
H984 C990 0.930 . S
H985 C993 0.930 . S
H986 C994 0.930 . S
H987 C995 0.930 . S
H988 C998 0.930 . S
H989 C999 0.930 . S
C990 H984 0.930 . S
C990 C991 1.355 . S
C990 C992 1.415 . S
C991 C990 1.355 . S
C991 C993 1.419 . S
C992 C990 1.415 . S
C992 C997 1.425 . S
C992 C999 1.409 . S
C993 H985 0.930 . S
C993 C991 1.419 . S
C993 C994 1.362 . S
C994 H986 0.930 . S
C994 C993 1.362 . S
C994 C997 1.409 . S
C995 H987 0.930 . S
C995 C996 1.355 . S
C995 C997 1.415 . S
C996 C995 1.355 . S
C996 C998 1.419 . S
C997 C992 1.425 . S
C997 C994 1.409 . S
C997 C995 1.415 . S
C998 H988 0.930 . S
C998 C996 1.419 . S
C998 C999 1.362 . S
C999 H989 0.930 . S
C999 C992 1.409 . S
C999 C998 1.362 . S
H1000 C1006 0.930 . S
H1001 C1009 0.930 . S
H1002 C1010 0.930 . S
H1003 C1011 0.930 . S
H1004 C1014 0.930 . S
H1005 C1015 0.930 . S
C1006 H1000 0.930 . S
C1006 C1007 1.355 . S
C1006 C1008 1.415 1_545 S
C1007 C1006 1.355 . S
C1007 C1009 1.419 . S
C1008 C1006 1.415 1_565 S
C1008 C1013 1.425 1_565 S
C1008 C1015 1.409 . S
C1009 H1001 0.930 . S
C1009 C1007 1.419 . S
C1009 C1010 1.362 . S
C1010 H1002 0.930 . S
C1010 C1009 1.362 . S
C1010 C1013 1.409 . S
C1011 H1003 0.930 . S
C1011 C1012 1.355 . S
C1011 C1013 1.415 1_565 S
C1012 C1011 1.355 . S
C1012 C1014 1.419 . S
C1013 C1008 1.425 1_545 S
C1013 C1010 1.409 . S
C1013 C1011 1.415 1_545 S
C1014 H1004 0.930 . S
C1014 C1012 1.419 . S
C1014 C1015 1.362 . S
C1015 H1005 0.930 . S
C1015 C1008 1.409 . S
C1015 C1014 1.362 . S
H1016 C1022 0.930 . S
H1017 C1025 0.930 . S
H1018 C1026 0.930 . S
H1019 C1027 0.930 . S
H1020 C1030 0.930 . S
H1021 C1031 0.930 . S
C1022 H1016 0.930 . S
C1022 C1023 1.355 . S
C1022 C1024 1.415 1_655 S
C1023 C1022 1.355 . S
C1023 C1025 1.419 . S
C1024 C1022 1.415 1_455 S
C1024 C1029 1.425 1_455 S
C1024 C1031 1.409 . S
C1025 H1017 0.930 . S
C1025 C1023 1.419 . S
C1025 C1026 1.362 . S
C1026 H1018 0.930 . S
C1026 C1025 1.362 . S
C1026 C1029 1.409 . S
C1027 H1019 0.930 . S
C1027 C1028 1.355 . S
C1027 C1029 1.415 1_455 S
C1028 C1027 1.355 . S
C1028 C1030 1.419 . S
C1029 C1024 1.425 1_655 S
C1029 C1026 1.409 . S
C1029 C1027 1.415 1_655 S
C1030 H1020 0.930 . S
C1030 C1028 1.419 . S
C1030 C1031 1.362 . S
C1031 H1021 0.930 . S
C1031 C1024 1.409 . S
C1031 C1030 1.362 . S
H1032 C1038 0.930 . S
H1033 C1041 0.930 . S
H1034 C1042 0.930 . S
H1035 C1043 0.930 . S
H1036 C1046 0.930 . S
H1037 C1047 0.930 . S
C1038 H1032 0.930 . S
C1038 C1039 1.355 . S
C1038 C1040 1.415 . S
C1039 C1038 1.355 . S
C1039 C1041 1.419 . S
C1040 C1038 1.415 . S
C1040 C1045 1.425 . S
C1040 C1047 1.409 . S
C1041 H1033 0.930 . S
C1041 C1039 1.419 . S
C1041 C1042 1.362 . S
C1042 H1034 0.930 . S
C1042 C1041 1.362 . S
C1042 C1045 1.409 . S
C1043 H1035 0.930 . S
C1043 C1044 1.355 . S
C1043 C1045 1.415 . S
C1044 C1043 1.355 . S
C1044 C1046 1.419 . S
C1045 C1040 1.425 . S
C1045 C1042 1.409 . S
C1045 C1043 1.415 . S
C1046 H1036 0.930 . S
C1046 C1044 1.419 . S
C1046 C1047 1.362 . S
C1047 H1037 0.930 . S
C1047 C1040 1.409 . S
C1047 C1046 1.362 . S
H1048 C1054 0.930 . S
H1049 C1057 0.930 . S
H1050 C1058 0.930 . S
H1051 C1059 0.930 . S
H1052 C1062 0.930 . S
H1053 C1063 0.930 . S
C1054 H1048 0.930 . S
C1054 C1055 1.355 . S
C1054 C1056 1.406 1_565 S
C1055 C1054 1.355 . S
C1055 C1057 1.419 . S
C1056 C1054 1.406 1_545 S
C1056 C1061 1.411 1_545 S
C1056 C1063 1.423 . S
C1057 H1049 0.930 . S
C1057 C1055 1.419 . S
C1057 C1058 1.362 . S
C1058 H1050 0.930 . S
C1058 C1057 1.362 . S
C1058 C1061 1.434 . S
C1059 H1051 0.930 . S
C1059 C1060 1.355 . S
C1059 C1061 1.399 1_545 S
C1060 C1059 1.355 . S
C1060 C1062 1.419 . S
C1061 C1056 1.411 1_565 S
C1061 C1058 1.434 . S
C1061 C1059 1.399 1_565 S
C1062 H1052 0.930 . S
C1062 C1060 1.419 . S
C1062 C1063 1.362 . S
C1063 H1053 0.930 . S
C1063 C1056 1.423 . S
C1063 C1062 1.362 . S
H1064 C1070 0.930 . S
H1065 C1073 0.930 . S
H1066 C1074 0.930 . S
H1067 C1075 0.930 . S
H1068 C1078 0.930 . S
H1069 C1079 0.930 . S
C1070 H1064 0.930 . S
C1070 C1071 1.355 . S
C1070 C1072 1.415 . S
C1071 C1070 1.355 . S
C1071 C1073 1.419 . S
C1072 C1070 1.415 . S
C1072 C1077 1.425 1_655 S
C1072 C1079 1.409 . S
C1073 H1065 0.930 . S
C1073 C1071 1.419 . S
C1073 C1074 1.362 1_655 S
C1074 H1066 0.930 . S
C1074 C1073 1.362 1_455 S
C1074 C1077 1.409 . S
C1075 H1067 0.930 . S
C1075 C1076 1.355 . S
C1075 C1077 1.415 . S
C1076 C1075 1.355 . S
C1076 C1078 1.419 . S
C1077 C1072 1.425 1_455 S
C1077 C1074 1.409 . S
C1077 C1075 1.415 . S
C1078 H1068 0.930 . S
C1078 C1076 1.419 . S
C1078 C1079 1.362 1_455 S
C1079 H1069 0.930 . S
C1079 C1072 1.409 . S
C1079 C1078 1.362 1_655 S
H1080 C1086 0.930 . S
H1081 C1089 0.930 . S
H1082 C1090 0.930 . S
H1083 C1091 0.930 . S
H1084 C1094 0.930 . S
H1085 C1095 0.930 . S
C1086 H1080 0.930 . S
C1086 C1087 1.355 . S
C1086 C1088 1.415 . S
C1087 C1086 1.355 . S
C1087 C1089 1.419 . S
C1088 C1086 1.415 . S
C1088 C1093 1.425 . S
C1088 C1095 1.409 . S
C1089 H1081 0.930 . S
C1089 C1087 1.419 . S
C1089 C1090 1.362 . S
C1090 H1082 0.930 . S
C1090 C1089 1.362 . S
C1090 C1093 1.409 . S
C1091 H1083 0.930 . S
C1091 C1092 1.355 . S
C1091 C1093 1.415 . S
C1092 C1091 1.355 . S
C1092 C1094 1.419 . S
C1093 C1088 1.425 . S
C1093 C1090 1.409 . S
C1093 C1091 1.415 . S
C1094 H1084 0.930 . S
C1094 C1092 1.419 . S
C1094 C1095 1.362 . S
C1095 H1085 0.930 . S
C1095 C1088 1.409 . S
C1095 C1094 1.362 . S
H1096 C1102 0.930 . S
H1097 C1105 0.930 . S
H1098 C1106 0.930 . S
H1099 C1107 0.930 . S
H1100 C1110 0.930 . S
H1101 C1111 0.930 . S
C1102 H1096 0.930 . S
C1102 C1103 1.355 . S
C1102 C1104 1.415 1_545 S
C1103 C1102 1.355 . S
C1103 C1105 1.419 . S
C1104 C1102 1.415 1_565 S
C1104 C1109 1.425 . S
C1104 C1111 1.409 . S
C1105 H1097 0.930 . S
C1105 C1103 1.419 . S
C1105 C1106 1.362 1_545 S
C1106 H1098 0.930 . S
C1106 C1105 1.362 1_565 S
C1106 C1109 1.409 . S
C1107 H1099 0.930 . S
C1107 C1108 1.355 . S
C1107 C1109 1.415 . S
C1108 C1107 1.355 . S
C1108 C1110 1.419 . S
C1109 C1104 1.425 . S
C1109 C1106 1.409 . S
C1109 C1107 1.415 . S
C1110 H1100 0.930 . S
C1110 C1108 1.419 . S
C1110 C1111 1.362 . S
C1111 H1101 0.930 . S
C1111 C1104 1.409 . S
C1111 C1110 1.362 . S
H1112 C1118 0.930 . S
H1113 C1121 0.930 . S
H1114 C1122 0.930 . S
H1115 C1123 0.930 . S
H1116 C1126 0.930 . S
H1117 C1127 0.930 . S
C1118 H1112 0.930 . S
C1118 C1119 1.355 . S
C1118 C1120 1.415 1_655 S
C1119 C1118 1.355 . S
C1119 C1121 1.419 . S
C1120 C1118 1.415 1_455 S
C1120 C1125 1.425 . S
C1120 C1127 1.409 . S
C1121 H1113 0.930 . S
C1121 C1119 1.419 . S
C1121 C1122 1.362 1_655 S
C1122 H1114 0.930 . S
C1122 C1121 1.362 1_455 S
C1122 C1125 1.409 . S
C1123 H1115 0.930 . S
C1123 C1124 1.355 . S
C1123 C1125 1.415 . S
C1124 C1123 1.355 . S
C1124 C1126 1.419 . S
C1125 C1120 1.425 . S
C1125 C1122 1.409 . S
C1125 C1123 1.415 . S
C1126 H1116 0.930 . S
C1126 C1124 1.419 . S
C1126 C1127 1.362 . S
C1127 H1117 0.930 . S
C1127 C1120 1.409 . S
C1127 C1126 1.362 . S
H1128 C1134 0.930 . S
H1129 C1137 0.930 . S
H1130 C1138 0.930 . S
H1131 C1139 0.930 . S
H1132 C1142 0.930 . S
H1133 C1143 0.930 . S
C1134 H1128 0.930 . S
C1134 C1135 1.355 . S
C1134 C1136 1.415 . S
C1135 C1134 1.355 . S
C1135 C1137 1.419 . S
C1136 C1134 1.415 . S
C1136 C1141 1.425 . S
C1136 C1143 1.409 . S
C1137 H1129 0.930 . S
C1137 C1135 1.419 . S
C1137 C1138 1.362 . S
C1138 H1130 0.930 . S
C1138 C1137 1.362 . S
C1138 C1141 1.409 . S
C1139 H1131 0.930 . S
C1139 C1140 1.355 . S
C1139 C1141 1.415 . S
C1140 C1139 1.355 . S
C1140 C1142 1.419 . S
C1141 C1136 1.425 . S
C1141 C1138 1.409 . S
C1141 C1139 1.415 . S
C1142 H1132 0.930 . S
C1142 C1140 1.419 . S
C1142 C1143 1.362 . S
C1143 H1133 0.930 . S
C1143 C1136 1.409 . S
C1143 C1142 1.362 . S
H1144 C1150 0.930 . S
H1145 C1153 0.930 . S
H1146 C1154 0.930 . S
H1147 C1155 0.930 . S
H1148 C1158 0.930 . S
H1149 C1159 0.930 . S
C1150 H1144 0.930 . S
C1150 C1151 1.355 . S
C1150 C1152 1.415 . S
C1151 C1150 1.355 . S
C1151 C1153 1.419 . S
C1152 C1150 1.415 . S
C1152 C1157 1.425 . S
C1152 C1159 1.409 1_545 S
C1153 H1145 0.930 . S
C1153 C1151 1.419 . S
C1153 C1154 1.362 . S
C1154 H1146 0.930 . S
C1154 C1153 1.362 . S
C1154 C1157 1.409 . S
C1155 H1147 0.930 . S
C1155 C1156 1.355 . S
C1155 C1157 1.415 1_565 S
C1156 C1155 1.355 . S
C1156 C1158 1.419 . S
C1157 C1152 1.425 . S
C1157 C1154 1.409 . S
C1157 C1155 1.415 1_545 S
C1158 H1148 0.930 . S
C1158 C1156 1.419 . S
C1158 C1159 1.362 . S
C1159 H1149 0.930 . S
C1159 C1152 1.409 1_565 S
C1159 C1158 1.362 . S
H1160 C1166 0.930 . S
H1161 C1169 0.930 . S
H1162 C1170 0.930 . S
H1163 C1171 0.930 . S
H1164 C1174 0.930 . S
H1165 C1175 0.930 . S
C1166 H1160 0.930 . S
C1166 C1167 1.355 . S
C1166 C1168 1.415 1_455 S
C1167 C1166 1.355 . S
C1167 C1169 1.419 . S
C1168 C1166 1.415 1_655 S
C1168 C1173 1.425 . S
C1168 C1175 1.409 . S
C1169 H1161 0.930 . S
C1169 C1167 1.419 . S
C1169 C1170 1.362 1_455 S
C1170 H1162 0.930 . S
C1170 C1169 1.362 1_655 S
C1170 C1173 1.409 . S
C1171 H1163 0.930 . S
C1171 C1172 1.355 . S
C1171 C1173 1.415 . S
C1172 C1171 1.355 . S
C1172 C1174 1.419 . S
C1173 C1168 1.425 . S
C1173 C1170 1.409 . S
C1173 C1171 1.415 . S
C1174 H1164 0.930 . S
C1174 C1172 1.419 . S
C1174 C1175 1.362 . S
C1175 H1165 0.930 . S
C1175 C1168 1.409 . S
C1175 C1174 1.362 . S
H1176 C1182 0.930 . S
H1177 C1185 0.930 . S
H1178 C1186 0.930 . S
H1179 C1187 0.930 . S
H1180 C1190 0.947 . S
H1181 C1191 0.930 . S
C1182 H1176 0.930 . S
C1182 C1183 1.355 . S
C1182 C1184 1.415 . S
C1183 C1182 1.355 . S
C1183 C1185 1.419 . S
C1184 C1182 1.415 . S
C1184 C1189 1.425 . S
C1184 C1191 1.409 . S
C1185 H1177 0.930 . S
C1185 C1183 1.419 . S
C1185 C1186 1.362 . S
C1186 H1178 0.930 . S
C1186 C1185 1.362 . S
C1186 C1189 1.409 . S
C1187 H1179 0.930 . S
C1187 C1188 1.355 . S
C1187 C1189 1.415 . S
C1188 C1187 1.355 . S
C1188 C1190 1.419 . S
C1189 C1184 1.425 . S
C1189 C1186 1.409 . S
C1189 C1187 1.415 . S
C1190 H1180 0.947 . S
C1190 C1188 1.419 . S
C1190 C1191 1.362 . S
C1191 H1181 0.930 . S
C1191 C1184 1.409 . S
C1191 C1190 1.362 . S
H1192 C1198 0.930 . S
H1193 C1201 0.930 . S
H1194 C1202 0.930 . S
H1195 C1203 0.930 . S
H1196 C1206 0.930 . S
H1197 C1207 0.930 . S
C1198 H1192 0.930 . S
C1198 C1199 1.355 . S
C1198 C1200 1.415 1_565 S
C1199 C1198 1.355 . S
C1199 C1201 1.419 . S
C1200 C1198 1.415 1_545 S
C1200 C1205 1.425 . S
C1200 C1207 1.409 . S
C1201 H1193 0.930 . S
C1201 C1199 1.419 . S
C1201 C1202 1.362 1_565 S
C1202 H1194 0.930 . S
C1202 C1201 1.362 1_545 S
C1202 C1205 1.409 . S
C1203 H1195 0.930 . S
C1203 C1204 1.355 . S
C1203 C1205 1.415 . S
C1204 C1203 1.355 . S
C1204 C1206 1.419 . S
C1205 C1200 1.425 . S
C1205 C1202 1.409 . S
C1205 C1203 1.415 . S
C1206 H1196 0.930 . S
C1206 C1204 1.419 . S
C1206 C1207 1.362 . S
C1207 H1197 0.930 . S
C1207 C1200 1.409 . S
C1207 C1206 1.362 . S
H1208 C1214 0.930 . S
H1209 C1217 0.930 . S
H1210 C1218 0.930 . S
H1211 C1219 0.930 . S
H1212 C1222 0.930 . S
H1213 C1223 0.930 . S
C1214 H1208 0.930 . S
C1214 C1215 1.355 . S
C1214 C1216 1.415 1_455 S
C1215 C1214 1.355 . S
C1215 C1217 1.419 . S
C1216 C1214 1.415 1_655 S
C1216 C1221 1.425 . S
C1216 C1223 1.409 . S
C1217 H1209 0.930 . S
C1217 C1215 1.419 . S
C1217 C1218 1.362 . S
C1218 H1210 0.930 . S
C1218 C1217 1.362 . S
C1218 C1221 1.409 1_455 S
C1219 H1211 0.930 . S
C1219 C1220 1.355 . S
C1219 C1221 1.415 . S
C1220 C1219 1.355 . S
C1220 C1222 1.419 . S
C1221 C1216 1.425 . S
C1221 C1218 1.409 1_655 S
C1221 C1219 1.415 . S
C1222 H1212 0.930 . S
C1222 C1220 1.419 . S
C1222 C1223 1.362 . S
C1223 H1213 0.930 . S
C1223 C1216 1.409 . S
C1223 C1222 1.362 . S
H1224 C1230 0.930 . S
H1225 C1233 0.930 . S
H1226 C1234 0.930 . S
H1227 C1235 0.930 . S
H1228 C1238 0.930 . S
H1229 C1239 0.930 . S
C1230 H1224 0.930 . S
C1230 C1231 1.355 . S
C1230 C1232 1.415 . S
C1231 C1230 1.355 . S
C1231 C1233 1.419 . S
C1232 C1230 1.415 . S
C1232 C1237 1.425 . S
C1232 C1239 1.409 . S
C1233 H1225 0.930 . S
C1233 C1231 1.419 . S
C1233 C1234 1.362 . S
C1234 H1226 0.930 . S
C1234 C1233 1.362 . S
C1234 C1237 1.409 . S
C1235 H1227 0.930 . S
C1235 C1236 1.355 . S
C1235 C1237 1.415 . S
C1236 C1235 1.355 . S
C1236 C1238 1.419 . S
C1237 C1232 1.425 . S
C1237 C1234 1.409 . S
C1237 C1235 1.415 . S
C1238 H1228 0.930 . S
C1238 C1236 1.419 . S
C1238 C1239 1.362 . S
C1239 H1229 0.930 . S
C1239 C1232 1.409 . S
C1239 C1238 1.362 . S
H1240 C1246 0.930 . S
H1241 C1249 0.930 . S
H1242 C1250 0.930 . S
H1243 C1251 0.930 . S
H1244 C1254 0.930 . S
H1245 C1255 0.930 . S
C1246 H1240 0.930 . S
C1246 C1247 1.355 . S
C1246 C1248 1.415 1_545 S
C1247 C1246 1.355 . S
C1247 C1249 1.419 . S
C1248 C1246 1.415 1_565 S
C1248 C1253 1.425 . S
C1248 C1255 1.409 . S
C1249 H1241 0.930 . S
C1249 C1247 1.419 . S
C1249 C1250 1.362 . S
C1250 H1242 0.930 . S
C1250 C1249 1.362 . S
C1250 C1253 1.409 1_545 S
C1251 H1243 0.930 . S
C1251 C1252 1.355 . S
C1251 C1253 1.415 . S
C1252 C1251 1.355 . S
C1252 C1254 1.419 . S
C1253 C1248 1.425 . S
C1253 C1250 1.409 1_565 S
C1253 C1251 1.415 . S
C1254 H1244 0.930 . S
C1254 C1252 1.419 . S
C1254 C1255 1.362 . S
C1255 H1245 0.930 . S
C1255 C1248 1.409 . S
C1255 C1254 1.362 . S
H1256 C1262 0.930 . S
H1257 C1265 0.930 . S
H1258 C1266 0.930 . S
H1259 C1267 0.930 . S
H1260 C1270 0.930 . S
H1261 C1271 0.930 . S
C1262 H1256 0.930 . S
C1262 C1263 1.355 . S
C1262 C1264 1.415 . S
C1263 C1262 1.355 . S
C1263 C1265 1.419 . S
C1264 C1262 1.415 . S
C1264 C1269 1.425 . S
C1264 C1271 1.409 . S
C1265 H1257 0.930 . S
C1265 C1263 1.419 . S
C1265 C1266 1.362 . S
C1266 H1258 0.930 . S
C1266 C1265 1.362 . S
C1266 C1269 1.409 . S
C1267 H1259 0.930 . S
C1267 C1268 1.355 . S
C1267 C1269 1.415 1_655 S
C1268 C1267 1.355 . S
C1268 C1270 1.419 . S
C1269 C1264 1.425 . S
C1269 C1266 1.409 . S
C1269 C1267 1.415 1_455 S
C1270 H1260 0.930 . S
C1270 C1268 1.419 . S
C1270 C1271 1.362 1_655 S
C1271 H1261 0.930 . S
C1271 C1264 1.409 . S
C1271 C1270 1.362 1_455 S
H1272 C1278 0.930 . S
H1273 C1281 0.930 . S
H1274 C1282 0.930 . S
H1275 C1283 0.930 . S
H1276 C1286 0.930 . S
H1277 C1287 0.930 . S
C1278 H1272 0.930 . S
C1278 C1279 1.355 . S
C1278 C1280 1.415 . S
C1279 C1278 1.355 . S
C1279 C1281 1.419 . S
C1280 C1278 1.415 . S
C1280 C1285 1.425 . S
C1280 C1287 1.409 . S
C1281 H1273 0.930 . S
C1281 C1279 1.419 . S
C1281 C1282 1.362 . S
C1282 H1274 0.930 . S
C1282 C1281 1.362 . S
C1282 C1285 1.409 . S
C1283 H1275 0.930 . S
C1283 C1284 1.355 . S
C1283 C1285 1.415 . S
C1284 C1283 1.355 . S
C1284 C1286 1.419 . S
C1285 C1280 1.425 . S
C1285 C1282 1.409 . S
C1285 C1283 1.415 . S
C1286 H1276 0.930 . S
C1286 C1284 1.419 . S
C1286 C1287 1.362 . S
C1287 H1277 0.930 . S
C1287 C1280 1.409 . S
C1287 C1286 1.362 . S
H1288 C1294 0.930 . S
H1289 C1297 0.930 . S
H1290 C1298 0.930 . S
H1291 C1299 0.930 . S
H1292 C1302 0.930 . S
H1293 C1303 0.930 . S
C1294 H1288 0.930 . S
C1294 C1295 1.355 . S
C1294 C1296 1.415 . S
C1295 C1294 1.355 . S
C1295 C1297 1.419 . S
C1296 C1294 1.415 . S
C1296 C1301 1.425 . S
C1296 C1303 1.409 . S
C1297 H1289 0.930 . S
C1297 C1295 1.419 . S
C1297 C1298 1.362 . S
C1298 H1290 0.930 . S
C1298 C1297 1.362 . S
C1298 C1301 1.409 . S
C1299 H1291 0.930 . S
C1299 C1300 1.355 . S
C1299 C1301 1.415 . S
C1300 C1299 1.355 . S
C1300 C1302 1.419 . S
C1301 C1296 1.425 . S
C1301 C1298 1.409 . S
C1301 C1299 1.415 . S
C1302 H1292 0.930 . S
C1302 C1300 1.419 . S
C1302 C1303 1.362 . S
C1303 H1293 0.930 . S
C1303 C1296 1.409 . S
C1303 C1302 1.362 . S
H1304 C1310 0.930 . S
H1305 C1313 0.930 . S
H1306 C1314 0.930 . S
H1307 C1315 0.930 . S
H1308 C1318 0.930 . S
H1309 C1319 0.930 . S
C1310 H1304 0.930 . S
C1310 C1311 1.355 . S
C1310 C1312 1.415 . S
C1311 C1310 1.355 . S
C1311 C1313 1.419 . S
C1312 C1310 1.415 . S
C1312 C1317 1.425 . S
C1312 C1319 1.409 . S
C1313 H1305 0.930 . S
C1313 C1311 1.419 . S
C1313 C1314 1.362 . S
C1314 H1306 0.930 . S
C1314 C1313 1.362 . S
C1314 C1317 1.409 . S
C1315 H1307 0.930 . S
C1315 C1316 1.355 . S
C1315 C1317 1.415 . S
C1316 C1315 1.355 . S
C1316 C1318 1.419 . S
C1317 C1312 1.425 . S
C1317 C1314 1.409 . S
C1317 C1315 1.415 . S
C1318 H1308 0.930 . S
C1318 C1316 1.419 . S
C1318 C1319 1.362 . S
C1319 H1309 0.930 . S
C1319 C1312 1.409 . S
C1319 C1318 1.362 . S
H1320 C1326 0.930 . S
H1321 C1329 0.930 . S
H1322 C1330 0.930 . S
H1323 C1331 0.930 . S
H1324 C1334 0.930 . S
H1325 C1335 0.930 . S
C1326 H1320 0.930 . S
C1326 C1327 1.355 . S
C1326 C1328 1.415 . S
C1327 C1326 1.355 . S
C1327 C1329 1.419 . S
C1328 C1326 1.415 . S
C1328 C1333 1.425 . S
C1328 C1335 1.409 . S
C1329 H1321 0.930 . S
C1329 C1327 1.419 . S
C1329 C1330 1.362 . S
C1330 H1322 0.930 . S
C1330 C1329 1.362 . S
C1330 C1333 1.409 . S
C1331 H1323 0.930 . S
C1331 C1332 1.355 . S
C1331 C1333 1.415 . S
C1332 C1331 1.355 . S
C1332 C1334 1.419 . S
C1333 C1328 1.425 . S
C1333 C1330 1.409 . S
C1333 C1331 1.415 . S
C1334 H1324 0.930 . S
C1334 C1332 1.419 . S
C1334 C1335 1.362 . S
C1335 H1325 0.930 . S
C1335 C1328 1.409 . S
C1335 C1334 1.362 . S
H1336 C1342 0.930 . S
H1337 C1345 0.930 . S
H1338 C1346 0.930 . S
H1339 C1347 0.930 . S
H1340 C1350 0.930 . S
H1341 C1351 0.930 . S
C1342 H1336 0.930 . S
C1342 C1343 1.355 . S
C1342 C1344 1.415 . S
C1343 C1342 1.355 . S
C1343 C1345 1.419 . S
C1344 C1342 1.415 . S
C1344 C1349 1.425 . S
C1344 C1351 1.409 . S
C1345 H1337 0.930 . S
C1345 C1343 1.419 . S
C1345 C1346 1.362 . S
C1346 H1338 0.930 . S
C1346 C1345 1.362 . S
C1346 C1349 1.409 . S
C1347 H1339 0.930 . S
C1347 C1348 1.355 . S
C1347 C1349 1.415 . S
C1348 C1347 1.355 . S
C1348 C1350 1.419 . S
C1349 C1344 1.425 . S
C1349 C1346 1.409 . S
C1349 C1347 1.415 . S
C1350 H1340 0.930 . S
C1350 C1348 1.419 . S
C1350 C1351 1.362 . S
C1351 H1341 0.930 . S
C1351 C1344 1.409 . S
C1351 C1350 1.362 . S
H1352 C1358 0.930 . S
H1353 C1361 0.930 . S
H1354 C1362 0.930 . S
H1355 C1363 0.930 . S
H1356 C1366 0.930 . S
H1357 C1367 0.930 . S
C1358 H1352 0.930 . S
C1358 C1359 1.355 . S
C1358 C1360 1.415 . S
C1359 C1358 1.355 . S
C1359 C1361 1.419 . S
C1360 C1358 1.415 . S
C1360 C1365 1.425 . S
C1360 C1367 1.409 . S
C1361 H1353 0.930 . S
C1361 C1359 1.419 . S
C1361 C1362 1.362 . S
C1362 H1354 0.930 . S
C1362 C1361 1.362 . S
C1362 C1365 1.409 . S
C1363 H1355 0.930 . S
C1363 C1364 1.355 . S
C1363 C1365 1.415 . S
C1364 C1363 1.355 . S
C1364 C1366 1.419 . S
C1365 C1360 1.425 . S
C1365 C1362 1.409 . S
C1365 C1363 1.415 . S
C1366 H1356 0.930 . S
C1366 C1364 1.419 . S
C1366 C1367 1.362 . S
C1367 H1357 0.930 . S
C1367 C1360 1.409 . S
C1367 C1366 1.362 . S
H1368 C1374 0.930 . S
H1369 C1377 0.930 . S
H1370 C1378 0.930 . S
H1371 C1379 0.930 . S
H1372 C1382 0.930 . S
H1373 C1383 0.930 . S
C1374 H1368 0.930 . S
C1374 C1375 1.355 . S
C1374 C1376 1.415 . S
C1375 C1374 1.355 . S
C1375 C1377 1.419 . S
C1376 C1374 1.415 . S
C1376 C1381 1.425 . S
C1376 C1383 1.409 . S
C1377 H1369 0.930 . S
C1377 C1375 1.419 . S
C1377 C1378 1.362 . S
C1378 H1370 0.930 . S
C1378 C1377 1.362 . S
C1378 C1381 1.409 . S
C1379 H1371 0.930 . S
C1379 C1380 1.355 . S
C1379 C1381 1.415 . S
C1380 C1379 1.355 . S
C1380 C1382 1.419 . S
C1381 C1376 1.425 . S
C1381 C1378 1.409 . S
C1381 C1379 1.415 . S
C1382 H1372 0.930 . S
C1382 C1380 1.419 . S
C1382 C1383 1.362 . S
C1383 H1373 0.930 . S
C1383 C1376 1.409 . S
C1383 C1382 1.362 . S
H1384 C1390 0.930 . S
H1385 C1393 0.930 . S
H1386 C1394 0.930 . S
H1387 C1395 0.930 . S
H1388 C1398 0.930 . S
H1389 C1399 0.930 . S
C1390 H1384 0.930 . S
C1390 C1391 1.355 . S
C1390 C1392 1.415 . S
C1391 C1390 1.355 . S
C1391 C1393 1.419 . S
C1392 C1390 1.415 . S
C1392 C1397 1.425 . S
C1392 C1399 1.409 . S
C1393 H1385 0.930 . S
C1393 C1391 1.419 . S
C1393 C1394 1.362 . S
C1394 H1386 0.930 . S
C1394 C1393 1.362 . S
C1394 C1397 1.409 . S
C1395 H1387 0.930 . S
C1395 C1396 1.355 . S
C1395 C1397 1.415 . S
C1396 C1395 1.355 . S
C1396 C1398 1.419 . S
C1397 C1392 1.425 . S
C1397 C1394 1.409 . S
C1397 C1395 1.415 . S
C1398 H1388 0.930 . S
C1398 C1396 1.419 . S
C1398 C1399 1.362 . S
C1399 H1389 0.930 . S
C1399 C1392 1.409 . S
C1399 C1398 1.362 . S
H1400 C1406 0.930 . S
H1401 C1409 0.930 . S
H1402 C1410 0.930 . S
H1403 C1411 0.930 . S
H1404 C1414 0.930 . S
H1405 C1415 0.930 . S
C1406 H1400 0.930 . S
C1406 C1407 1.355 . S
C1406 C1408 1.415 . S
C1407 C1406 1.355 . S
C1407 C1409 1.419 . S
C1408 C1406 1.415 . S
C1408 C1413 1.425 . S
C1408 C1415 1.409 . S
C1409 H1401 0.930 . S
C1409 C1407 1.419 . S
C1409 C1410 1.362 . S
C1410 H1402 0.930 . S
C1410 C1409 1.362 . S
C1410 C1413 1.409 . S
C1411 H1403 0.930 . S
C1411 C1412 1.355 . S
C1411 C1413 1.415 . S
C1412 C1411 1.355 . S
C1412 C1414 1.419 . S
C1413 C1408 1.425 . S
C1413 C1410 1.409 . S
C1413 C1411 1.415 . S
C1414 H1404 0.930 . S
C1414 C1412 1.419 . S
C1414 C1415 1.362 . S
C1415 H1405 0.930 . S
C1415 C1408 1.409 . S
C1415 C1414 1.362 . S
H1416 C1422 0.930 . S
H1417 C1425 0.930 . S
H1418 C1426 0.930 . S
H1419 C1427 0.930 . S
H1420 C1430 0.930 . S
H1421 C1431 0.930 . S
C1422 H1416 0.930 . S
C1422 C1423 1.355 . S
C1422 C1424 1.415 . S
C1423 C1422 1.355 . S
C1423 C1425 1.419 . S
C1424 C1422 1.415 . S
C1424 C1429 1.425 . S
C1424 C1431 1.409 . S
C1425 H1417 0.930 . S
C1425 C1423 1.419 . S
C1425 C1426 1.362 . S
C1426 H1418 0.930 . S
C1426 C1425 1.362 . S
C1426 C1429 1.409 . S
C1427 H1419 0.930 . S
C1427 C1428 1.355 . S
C1427 C1429 1.415 . S
C1428 C1427 1.355 . S
C1428 C1430 1.419 . S
C1429 C1424 1.425 . S
C1429 C1426 1.409 . S
C1429 C1427 1.415 . S
C1430 H1420 0.930 . S
C1430 C1428 1.419 . S
C1430 C1431 1.362 . S
C1431 H1421 0.930 . S
C1431 C1424 1.409 . S
C1431 C1430 1.362 . S
H1432 C1438 0.930 . S
H1433 C1441 0.930 . S
H1434 C1442 0.930 . S
H1435 C1443 0.930 . S
H1436 C1446 0.930 . S
H1437 C1447 0.930 . S
C1438 H1432 0.930 . S
C1438 C1439 1.355 . S
C1438 C1440 1.415 . S
C1439 C1438 1.355 . S
C1439 C1441 1.419 . S
C1440 C1438 1.415 . S
C1440 C1445 1.425 . S
C1440 C1447 1.409 . S
C1441 H1433 0.930 . S
C1441 C1439 1.419 . S
C1441 C1442 1.362 . S
C1442 H1434 0.930 . S
C1442 C1441 1.362 . S
C1442 C1445 1.409 . S
C1443 H1435 0.930 . S
C1443 C1444 1.355 . S
C1443 C1445 1.415 . S
C1444 C1443 1.355 . S
C1444 C1446 1.419 . S
C1445 C1440 1.425 . S
C1445 C1442 1.409 . S
C1445 C1443 1.415 . S
C1446 H1436 0.930 . S
C1446 C1444 1.419 . S
C1446 C1447 1.362 . S
C1447 H1437 0.930 . S
C1447 C1440 1.409 . S
C1447 C1446 1.362 . S
H1448 C1454 0.930 . S
H1449 C1457 0.930 . S
H1450 C1458 0.930 . S
H1451 C1459 0.930 . S
H1452 C1462 0.930 . S
H1453 C1463 0.930 . S
C1454 H1448 0.930 . S
C1454 C1455 1.355 . S
C1454 C1456 1.415 . S
C1455 C1454 1.355 . S
C1455 C1457 1.419 . S
C1456 C1454 1.415 . S
C1456 C1461 1.425 . S
C1456 C1463 1.409 . S
C1457 H1449 0.930 . S
C1457 C1455 1.419 . S
C1457 C1458 1.362 . S
C1458 H1450 0.930 . S
C1458 C1457 1.362 . S
C1458 C1461 1.409 . S
C1459 H1451 0.930 . S
C1459 C1460 1.355 . S
C1459 C1461 1.415 . S
C1460 C1459 1.355 . S
C1460 C1462 1.419 . S
C1461 C1456 1.425 . S
C1461 C1458 1.409 . S
C1461 C1459 1.415 . S
C1462 H1452 0.930 . S
C1462 C1460 1.419 . S
C1462 C1463 1.362 . S
C1463 H1453 0.930 . S
C1463 C1456 1.409 . S
C1463 C1462 1.362 . S
H1464 C1470 0.930 . S
H1465 C1473 0.930 . S
H1466 C1474 0.930 . S
H1467 C1475 0.930 . S
H1468 C1478 0.930 . S
H1469 C1479 0.930 . S
C1470 H1464 0.930 . S
C1470 C1471 1.355 . S
C1470 C1472 1.415 . S
C1471 C1470 1.355 . S
C1471 C1473 1.419 . S
C1472 C1470 1.415 . S
C1472 C1477 1.425 . S
C1472 C1479 1.409 . S
C1473 H1465 0.930 . S
C1473 C1471 1.419 . S
C1473 C1474 1.362 . S
C1474 H1466 0.930 . S
C1474 C1473 1.362 . S
C1474 C1477 1.409 . S
C1475 H1467 0.930 . S
C1475 C1476 1.355 . S
C1475 C1477 1.415 . S
C1476 C1475 1.355 . S
C1476 C1478 1.419 . S
C1477 C1472 1.425 . S
C1477 C1474 1.409 . S
C1477 C1475 1.415 . S
C1478 H1468 0.930 . S
C1478 C1476 1.419 . S
C1478 C1479 1.362 . S
C1479 H1469 0.930 . S
C1479 C1472 1.409 . S
C1479 C1478 1.362 . S
H1480 C1486 0.930 . S
H1481 C1489 0.930 . S
H1482 C1490 0.930 . S
H1483 C1491 0.930 . S
H1484 C1494 0.930 . S
H1485 C1495 0.930 . S
C1486 H1480 0.930 . S
C1486 C1487 1.355 . S
C1486 C1488 1.415 . S
C1487 C1486 1.355 . S
C1487 C1489 1.419 . S
C1488 C1486 1.415 . S
C1488 C1493 1.425 . S
C1488 C1495 1.409 . S
C1489 H1481 0.930 . S
C1489 C1487 1.419 . S
C1489 C1490 1.362 . S
C1490 H1482 0.930 . S
C1490 C1489 1.362 . S
C1490 C1493 1.409 . S
C1491 H1483 0.930 . S
C1491 C1492 1.355 . S
C1491 C1493 1.415 . S
C1492 C1491 1.355 . S
C1492 C1494 1.419 . S
C1493 C1488 1.425 . S
C1493 C1490 1.409 . S
C1493 C1491 1.415 . S
C1494 H1484 0.930 . S
C1494 C1492 1.419 . S
C1494 C1495 1.362 . S
C1495 H1485 0.930 . S
C1495 C1488 1.409 . S
C1495 C1494 1.362 . S
H1496 C1502 0.930 . S
H1497 C1505 0.930 . S
H1498 C1506 0.930 . S
H1499 C1507 0.930 . S
H1500 C1510 0.930 . S
H1501 C1511 0.930 . S
C1502 H1496 0.930 . S
C1502 C1503 1.355 . S
C1502 C1504 1.415 . S
C1503 C1502 1.355 . S
C1503 C1505 1.419 . S
C1504 C1502 1.415 . S
C1504 C1509 1.425 . S
C1504 C1511 1.409 . S
C1505 H1497 0.930 . S
C1505 C1503 1.419 . S
C1505 C1506 1.362 . S
C1506 H1498 0.930 . S
C1506 C1505 1.362 . S
C1506 C1509 1.409 . S
C1507 H1499 0.930 . S
C1507 C1508 1.355 . S
C1507 C1509 1.415 . S
C1508 C1507 1.355 . S
C1508 C1510 1.419 . S
C1509 C1504 1.425 . S
C1509 C1506 1.409 . S
C1509 C1507 1.415 . S
C1510 H1500 0.930 . S
C1510 C1508 1.419 . S
C1510 C1511 1.362 . S
C1511 H1501 0.930 . S
C1511 C1504 1.409 . S
C1511 C1510 1.362 . S
H1512 C1518 0.930 . S
H1513 C1521 0.930 . S
H1514 C1522 0.930 . S
H1515 C1523 0.930 . S
H1516 C1526 0.930 . S
H1517 C1527 0.930 . S
C1518 H1512 0.930 . S
C1518 C1519 1.355 . S
C1518 C1520 1.415 . S
C1519 C1518 1.355 . S
C1519 C1521 1.419 . S
C1520 C1518 1.415 . S
C1520 C1525 1.425 . S
C1520 C1527 1.409 . S
C1521 H1513 0.930 . S
C1521 C1519 1.419 . S
C1521 C1522 1.362 . S
C1522 H1514 0.930 . S
C1522 C1521 1.362 . S
C1522 C1525 1.409 . S
C1523 H1515 0.930 . S
C1523 C1524 1.355 . S
C1523 C1525 1.415 . S
C1524 C1523 1.355 . S
C1524 C1526 1.419 . S
C1525 C1520 1.425 . S
C1525 C1522 1.409 . S
C1525 C1523 1.415 . S
C1526 H1516 0.930 . S
C1526 C1524 1.419 . S
C1526 C1527 1.362 . S
C1527 H1517 0.930 . S
C1527 C1520 1.409 . S
C1527 C1526 1.362 . S
H1528 C1534 0.930 . S
H1529 C1537 0.930 . S
H1530 C1538 0.930 . S
H1531 C1539 0.930 . S
H1532 C1542 0.930 . S
H1533 C1543 0.930 . S
C1534 H1528 0.930 . S
C1534 C1535 1.355 . S
C1534 C1536 1.415 . S
C1535 C1534 1.355 . S
C1535 C1537 1.419 . S
C1536 C1534 1.415 . S
C1536 C1541 1.425 . S
C1536 C1543 1.409 . S
C1537 H1529 0.930 . S
C1537 C1535 1.419 . S
C1537 C1538 1.362 . S
C1538 H1530 0.930 . S
C1538 C1537 1.362 . S
C1538 C1541 1.409 . S
C1539 H1531 0.930 . S
C1539 C1540 1.355 . S
C1539 C1541 1.415 . S
C1540 C1539 1.355 . S
C1540 C1542 1.419 . S
C1541 C1536 1.425 . S
C1541 C1538 1.409 . S
C1541 C1539 1.415 . S
C1542 H1532 0.930 . S
C1542 C1540 1.419 . S
C1542 C1543 1.362 . S
C1543 H1533 0.930 . S
C1543 C1536 1.409 . S
C1543 C1542 1.362 . S
H1544 C1550 0.930 . S
H1545 C1553 0.930 . S
H1546 C1554 0.930 . S
H1547 C1555 0.930 . S
H1548 C1558 0.930 . S
H1549 C1559 0.930 . S
C1550 H1544 0.930 . S
C1550 C1551 1.355 . S
C1550 C1552 1.415 . S
C1551 C1550 1.355 . S
C1551 C1553 1.419 . S
C1552 C1550 1.415 . S
C1552 C1557 1.425 . S
C1552 C1559 1.409 . S
C1553 H1545 0.930 . S
C1553 C1551 1.419 . S
C1553 C1554 1.362 . S
C1554 H1546 0.930 . S
C1554 C1553 1.362 . S
C1554 C1557 1.409 . S
C1555 H1547 0.930 . S
C1555 C1556 1.355 . S
C1555 C1557 1.415 . S
C1556 C1555 1.355 . S
C1556 C1558 1.419 . S
C1557 C1552 1.425 . S
C1557 C1554 1.409 . S
C1557 C1555 1.415 . S
C1558 H1548 0.930 . S
C1558 C1556 1.419 . S
C1558 C1559 1.362 . S
C1559 H1549 0.930 . S
C1559 C1552 1.409 . S
C1559 C1558 1.362 . S
H1560 C1566 0.930 . S
H1561 C1569 0.930 . S
H1562 C1570 0.930 . S
H1563 C1571 0.930 . S
H1564 C1574 0.930 . S
H1565 C1575 0.930 . S
C1566 H1560 0.930 . S
C1566 C1567 1.355 . S
C1566 C1568 1.415 . S
C1567 C1566 1.355 . S
C1567 C1569 1.419 . S
C1568 C1566 1.415 . S
C1568 C1573 1.425 . S
C1568 C1575 1.409 . S
C1569 H1561 0.930 . S
C1569 C1567 1.419 . S
C1569 C1570 1.362 . S
C1570 H1562 0.930 . S
C1570 C1569 1.362 . S
C1570 C1573 1.409 . S
C1571 H1563 0.930 . S
C1571 C1572 1.355 . S
C1571 C1573 1.415 . S
C1572 C1571 1.355 . S
C1572 C1574 1.419 . S
C1573 C1568 1.425 . S
C1573 C1570 1.409 . S
C1573 C1571 1.415 . S
C1574 H1564 0.930 . S
C1574 C1572 1.419 . S
C1574 C1575 1.362 . S
C1575 H1565 0.930 . S
C1575 C1568 1.409 . S
C1575 C1574 1.362 . S
H1576 C1582 0.930 . S
H1577 C1585 0.930 . S
H1578 C1586 0.930 . S
H1579 C1587 0.930 . S
H1580 C1590 0.930 . S
H1581 C1591 0.930 . S
C1582 H1576 0.930 . S
C1582 C1583 1.355 . S
C1582 C1584 1.415 . S
C1583 C1582 1.355 . S
C1583 C1585 1.419 . S
C1584 C1582 1.415 . S
C1584 C1589 1.425 . S
C1584 C1591 1.409 . S
C1585 H1577 0.930 . S
C1585 C1583 1.419 . S
C1585 C1586 1.362 . S
C1586 H1578 0.930 . S
C1586 C1585 1.362 . S
C1586 C1589 1.409 . S
C1587 H1579 0.930 . S
C1587 C1588 1.355 . S
C1587 C1589 1.415 . S
C1588 C1587 1.355 . S
C1588 C1590 1.419 . S
C1589 C1584 1.425 . S
C1589 C1586 1.409 . S
C1589 C1587 1.415 . S
C1590 H1580 0.930 . S
C1590 C1588 1.419 . S
C1590 C1591 1.362 . S
C1591 H1581 0.930 . S
C1591 C1584 1.409 . S
C1591 C1590 1.362 . S
H1592 C1598 0.930 . S
H1593 C1601 0.930 . S
H1594 C1602 0.930 . S
H1595 C1603 0.930 . S
H1596 C1606 0.930 . S
H1597 C1607 0.930 . S
C1598 H1592 0.930 . S
C1598 C1599 1.355 . S
C1598 C1600 1.415 . S
C1599 C1598 1.355 . S
C1599 C1601 1.419 . S
C1600 C1598 1.415 . S
C1600 C1605 1.425 . S
C1600 C1607 1.409 . S
C1601 H1593 0.930 . S
C1601 C1599 1.419 . S
C1601 C1602 1.362 . S
C1602 H1594 0.930 . S
C1602 C1601 1.362 . S
C1602 C1605 1.409 . S
C1603 H1595 0.930 . S
C1603 C1604 1.355 . S
C1603 C1605 1.415 . S
C1604 C1603 1.355 . S
C1604 C1606 1.419 . S
C1605 C1600 1.425 . S
C1605 C1602 1.409 . S
C1605 C1603 1.415 . S
C1606 H1596 0.930 . S
C1606 C1604 1.419 . S
C1606 C1607 1.362 . S
C1607 H1597 0.930 . S
C1607 C1600 1.409 . S
C1607 C1606 1.362 . S
H1608 C1614 0.930 . S
H1609 C1617 0.930 . S
H1610 C1618 0.930 . S
H1611 C1619 0.930 . S
H1612 C1622 0.930 . S
H1613 C1623 0.930 . S
C1614 H1608 0.930 . S
C1614 C1615 1.355 . S
C1614 C1616 1.415 . S
C1615 C1614 1.355 . S
C1615 C1617 1.419 . S
C1616 C1614 1.415 . S
C1616 C1621 1.425 . S
C1616 C1623 1.409 . S
C1617 H1609 0.930 . S
C1617 C1615 1.419 . S
C1617 C1618 1.362 . S
C1618 H1610 0.930 . S
C1618 C1617 1.362 . S
C1618 C1621 1.409 . S
C1619 H1611 0.930 . S
C1619 C1620 1.355 . S
C1619 C1621 1.415 . S
C1620 C1619 1.355 . S
C1620 C1622 1.419 . S
C1621 C1616 1.425 . S
C1621 C1618 1.409 . S
C1621 C1619 1.415 . S
C1622 H1612 0.930 . S
C1622 C1620 1.419 . S
C1622 C1623 1.362 . S
C1623 H1613 0.930 . S
C1623 C1616 1.409 . S
C1623 C1622 1.362 . S
H1624 C1630 0.930 . S
H1625 C1633 0.930 . S
H1626 C1634 0.930 . S
H1627 C1635 0.930 . S
H1628 C1638 0.930 . S
H1629 C1639 0.930 . S
C1630 H1624 0.930 . S
C1630 C1631 1.355 . S
C1630 C1632 1.415 . S
C1631 C1630 1.355 . S
C1631 C1633 1.419 . S
C1632 C1630 1.415 . S
C1632 C1637 1.425 . S
C1632 C1639 1.409 . S
C1633 H1625 0.930 . S
C1633 C1631 1.419 . S
C1633 C1634 1.362 . S
C1634 H1626 0.930 . S
C1634 C1633 1.362 . S
C1634 C1637 1.409 . S
C1635 H1627 0.930 . S
C1635 C1636 1.355 . S
C1635 C1637 1.415 . S
C1636 C1635 1.355 . S
C1636 C1638 1.419 . S
C1637 C1632 1.425 . S
C1637 C1634 1.409 . S
C1637 C1635 1.415 . S
C1638 H1628 0.930 . S
C1638 C1636 1.419 . S
C1638 C1639 1.362 . S
C1639 H1629 0.930 . S
C1639 C1632 1.409 . S
C1639 C1638 1.362 . S
H1640 C1646 0.930 . S
H1641 C1649 0.930 . S
H1642 C1650 0.930 . S
H1643 C1651 0.930 . S
H1644 C1654 0.930 . S
H1645 C1655 0.930 . S
C1646 H1640 0.930 . S
C1646 C1647 1.355 . S
C1646 C1648 1.415 . S
C1647 C1646 1.355 . S
C1647 C1649 1.419 . S
C1648 C1646 1.415 . S
C1648 C1653 1.425 . S
C1648 C1655 1.409 . S
C1649 H1641 0.930 . S
C1649 C1647 1.419 . S
C1649 C1650 1.362 . S
C1650 H1642 0.930 . S
C1650 C1649 1.362 . S
C1650 C1653 1.409 . S
C1651 H1643 0.930 . S
C1651 C1652 1.355 . S
C1651 C1653 1.415 . S
C1652 C1651 1.355 . S
C1652 C1654 1.419 . S
C1653 C1648 1.425 . S
C1653 C1650 1.409 . S
C1653 C1651 1.415 . S
C1654 H1644 0.930 . S
C1654 C1652 1.419 . S
C1654 C1655 1.362 . S
C1655 H1645 0.930 . S
C1655 C1648 1.409 . S
C1655 C1654 1.362 . S
C511 C5 1.190 . S
C516 C257 1.190 . S
C527 C271 1.302 . S
C532 C19 1.302 . S
C543 C285 1.316 . S
C548 C33 1.316 . S
C559 C47 1.258 . S
C564 C467 1.258 . S
C575 C61 1.297 . S
C580 C481 1.297 . S
C591 C75 1.320 . S
C596 C495 1.320 . S
C607 C341 1.213 . S
C612 C89 1.213 . S
C623 C103 1.190 . S
C628 C355 1.190 . S
C639 C117 1.220 . S
C644 C369 1.220 . S
C655 C215 1.312 . S
C660 C131 1.312 . S
C671 C229 1.248 . S
C676 C145 1.248 . S
C687 C243 1.273 . S
C692 C159 1.273 . S
C703 C425 1.259 . S
C708 C173 1.259 . S
C719 C439 1.233 . S
C724 C187 1.233 . S
C735 C201 1.250 . S
C740 C453 1.250 . S
C751 C383 1.270 . S
C756 C299 1.270 . S
C767 C313 1.311 . S
C772 C397 1.311 . S
C783 C327 1.194 . S
C788 C411 1.194 . S
C799 C11 1.474 . S
C804 C389 1.445 . S
C815 C403 1.433 . S
C820 C25 1.491 . S
C831 C417 1.440 . S
C836 C39 1.490 . S
C847 C179 1.492 . S
C852 C53 1.440 . S
C863 C193 1.453 . S
C868 C67 1.464 . S
C879 C207 1.445 . S
C884 C81 1.488 . S
C895 C95 1.458 . S
C900 C305 1.477 . S
C911 C319 1.432 . S
C916 C109 1.493 . S
C927 C333 1.490 . S
C932 C123 1.432 . S
C943 C137 1.435 . S
C948 C431 1.495 . S
C959 C151 1.453 . S
C964 C445 1.463 . S
C975 C165 1.433 . S
C980 C459 1.495 . S
C991 C221 1.433 . S
C996 C347 1.494 . S
C1007 C235 1.456 . S
C1012 C361 1.478 . S
C1023 C249 1.469 . S
C1028 C375 1.466 . S
C1039 C263 1.492 . S
C1044 C473 1.437 . S
C1055 C487 1.482 . S
C1060 C277 1.452 . S
C1071 C291 1.464 . S
C1076 C501 1.454 . S
C1087 C26 1.035 . S
C1092 C4 0.932 . S
C1103 C18 1.064 . S
C1108 C40 1.039 . S
C1119 C32 0.955 . S
C1124 C12 1.083 . S
C1135 C46 1.040 . S
C1140 C82 1.064 . S
C1151 C54 1.020 . S
C1156 C60 0.956 . S
C1167 C74 0.967 . S
C1172 C68 1.083 . S
C1183 C88 1.063 . S
C1188 C110 1.021 . S
C1199 C102 1.038 . S
C1204 C124 1.007 . S
C1215 C116 0.935 . S
C1220 C96 1.032 . S
C1231 C166 1.015 . S
C1236 C130 0.969 . S
C1247 C144 0.930 . S
C1252 C138 1.077 . S
C1263 C152 1.006 . S
C1268 C158 1.035 . S
C1279 C194 1.030 . S
C1284 C172 1.065 . S
C1295 C208 1.028 . S
C1300 C186 0.941 . S
C1311 C180 1.038 . S
C1316 C200 1.064 . S
C1327 C214 1.063 . S
C1332 C250 1.041 . S
C1343 C228 0.919 . S
C1348 C222 1.050 . S
C1359 C242 1.056 . S
C1364 C236 1.014 . S
C1375 C278 1.070 . S
C1380 C256 0.920 . S
C1391 C270 1.043 . S
C1396 C292 1.008 . S
C1407 C284 0.919 . S
C1412 C264 1.069 . S
C1423 C298 0.922 . S
C1428 C334 1.045 . S
C1439 C312 1.065 . S
C1444 C306 1.032 . S
C1455 C320 1.079 . S
C1460 C326 1.002 . S
C1471 C362 1.034 . S
C1476 C340 1.065 . S
C1487 C354 1.058 . S
C1492 C376 1.049 . S
C1503 C348 1.020 . S
C1508 C368 1.062 . S
C1519 C382 1.065 . S
C1524 C418 1.035 . S
C1535 C396 0.938 . S
C1540 C390 1.080 . S
C1551 C410 1.036 . S
C1556 C404 1.006 . S
C1567 C424 1.057 . S
C1572 C446 1.014 . S
C1583 C438 1.065 . S
C1588 C460 1.029 . S
C1599 C452 0.917 . S
C1604 C432 1.055 . S
C1615 C466 0.966 . S
C1620 C502 1.083 . S
C1631 C480 1.059 . S
C1636 C474 1.047 . S
C1647 C488 1.017 . S
C1652 C494 0.965 . S
