# Generated by pormake.
# Topology acs-i, (5)-cn, num edge types: 1
# Building blocks:
#     Node 0, Type 0, BuildingBlock: XOMCOT_clean_sbu_1, # of connection points: 5
#     Node 1, Type 0, BuildingBlock: XOMCOT_clean_sbu_1, # of connection points: 5
#     Node 2, Type 0, BuildingBlock: XOMCOT_clean_sbu_1, # of connection points: 5
#     Node 3, Type 0, BuildingBlock: XOMCOT_clean_sbu_1, # of connection points: 5
#     Node 4, Type 0, BuildingBlock: XOMCOT_clean_sbu_1, # of connection points: 5
#     Node 5, Type 0, BuildingBlock: XOMCOT_clean_sbu_1, # of connection points: 5
#     Node 6, Type 0, BuildingBlock: XOMCOT_clean_sbu_1, # of connection points: 5
#     Node 7, Type 0, BuildingBlock: XOMCOT_clean_sbu_1, # of connection points: 5
#     Node 8, Type 0, BuildingBlock: XOMCOT_clean_sbu_1, # of connection points: 5
#     Node 9, Type 0, BuildingBlock: XOMCOT_clean_sbu_1, # of connection points: 5
#     Node 10, Type 0, BuildingBlock: XOMCOT_clean_sbu_1, # of connection points: 5
#     Node 11, Type 0, BuildingBlock: XOMCOT_clean_sbu_1, # of connection points: 5
#     Edge 12, Type (0, 0), BuildingBlock: OJICUG_clean_linker_0, # of connection points: 2
#     Edge 13, Type (0, 0), BuildingBlock: OJICUG_clean_linker_0, # of connection points: 2
#     Edge 14, Type (0, 0), BuildingBlock: OJICUG_clean_linker_0, # of connection points: 2
#     Edge 15, Type (0, 0), BuildingBlock: OJICUG_clean_linker_0, # of connection points: 2
#     Edge 16, Type (0, 0), BuildingBlock: OJICUG_clean_linker_0, # of connection points: 2
#     Edge 17, Type (0, 0), BuildingBlock: OJICUG_clean_linker_0, # of connection points: 2
#     Edge 18, Type (0, 0), BuildingBlock: OJICUG_clean_linker_0, # of connection points: 2
#     Edge 19, Type (0, 0), BuildingBlock: OJICUG_clean_linker_0, # of connection points: 2
#     Edge 20, Type (0, 0), BuildingBlock: OJICUG_clean_linker_0, # of connection points: 2
#     Edge 21, Type (0, 0), BuildingBlock: OJICUG_clean_linker_0, # of connection points: 2
#     Edge 22, Type (0, 0), BuildingBlock: OJICUG_clean_linker_0, # of connection points: 2
#     Edge 23, Type (0, 0), BuildingBlock: OJICUG_clean_linker_0, # of connection points: 2
#     Edge 24, Type (0, 0), BuildingBlock: OJICUG_clean_linker_0, # of connection points: 2
#     Edge 25, Type (0, 0), BuildingBlock: OJICUG_clean_linker_0, # of connection points: 2
#     Edge 26, Type (0, 0), BuildingBlock: OJICUG_clean_linker_0, # of connection points: 2
#     Edge 27, Type (0, 0), BuildingBlock: OJICUG_clean_linker_0, # of connection points: 2
#     Edge 28, Type (0, 0), BuildingBlock: OJICUG_clean_linker_0, # of connection points: 2
#     Edge 29, Type (0, 0), BuildingBlock: OJICUG_clean_linker_0, # of connection points: 2
#     Edge 30, Type (0, 0), BuildingBlock: OJICUG_clean_linker_0, # of connection points: 2
#     Edge 31, Type (0, 0), BuildingBlock: OJICUG_clean_linker_0, # of connection points: 2
#     Edge 32, Type (0, 0), BuildingBlock: OJICUG_clean_linker_0, # of connection points: 2
#     Edge 33, Type (0, 0), BuildingBlock: OJICUG_clean_linker_0, # of connection points: 2
#     Edge 34, Type (0, 0), BuildingBlock: OJICUG_clean_linker_0, # of connection points: 2
#     Edge 35, Type (0, 0), BuildingBlock: OJICUG_clean_linker_0, # of connection points: 2
#     Edge 36, Type (0, 0), BuildingBlock: OJICUG_clean_linker_0, # of connection points: 2
#     Edge 37, Type (0, 0), BuildingBlock: OJICUG_clean_linker_0, # of connection points: 2
#     Edge 38, Type (0, 0), BuildingBlock: OJICUG_clean_linker_0, # of connection points: 2
#     Edge 39, Type (0, 0), BuildingBlock: OJICUG_clean_linker_0, # of connection points: 2
#     Edge 40, Type (0, 0), BuildingBlock: OJICUG_clean_linker_0, # of connection points: 2
#     Edge 41, Type (0, 0), BuildingBlock: OJICUG_clean_linker_0, # of connection points: 2
# Relax obj value: 0.875
# Max RMSD: 0.208
# Mean RMSD: 0.208
data_MOF--net-acs-i--node1-XOMCOT_clean_sbu_1--edge1-OJICUG_clean_linker_0
_symmetry_space_group_name_H-M    P1
_symmetry_Int_Tables_number       1
_symmetry_cell_setting            triclinic
loop_
_symmetry_equiv_pos_as_xyz
'x, y, z'
_cell_length_a     33.012629
_cell_length_b     32.991652
_cell_length_c     37.402427
_cell_angle_alpha  89.82704
_cell_angle_beta   90.037986
_cell_angle_gamma 120.06411
loop_
_atom_site_label
_atom_site_type_symbol
_atom_site_fract_x
_atom_site_fract_y
_atom_site_fract_z
_atom_type_partial_charge
C0 C 0.29276 0.47378 0.04952 0.0
C1 C 0.33682 0.51198 0.04449 0.0
N2 N 0.35089 0.53595 0.07549 0.0
N3 N 0.27952 0.47357 0.0836 0.0
C4 C 0.31541 0.51186 0.0986 0.0
H5 H 0.27148 0.44827 0.02956 0.0
Co6 Co 0.22315 0.43324 0.10576 0.0
C7 C 0.25542 0.41581 0.17564 0.0
O8 O 0.22743 0.37047 0.1724 0.0
N9 N 0.16485 0.39295 0.12913 0.0
C10 C 0.10347 0.33399 0.15701 0.0
C11 C 0.14215 0.34622 0.13582 0.0
C12 C 0.13827 0.40764 0.14612 0.0
N13 N 0.10104 0.3728 0.16291 0.0
O14 O 0.21578 0.486 0.11409 0.0
H15 H 0.154 0.32247 0.12778 0.0
H16 H 0.14706 0.44376 0.14837 0.0
O17 O 0.25625 0.44348 0.15133 0.0
C18 C 0.19608 0.49297 0.08736 0.0
O19 O 0.1815 0.46259 0.06103 0.0
N20 N 0.231 0.38276 0.09274 0.0
C21 C 0.25103 0.32469 0.05127 0.0
C22 C 0.28087 0.35125 0.07927 0.0
C23 C 0.27059 0.38063 0.09939 0.0
C24 C 0.20094 0.35611 0.0664 0.0
C25 C 0.20984 0.32629 0.04576 0.0
H26 H 0.29665 0.40469 0.11786 0.0
H27 H 0.17125 0.36023 0.05991 0.0
H28 H 0.31524 0.52211 0.126 0.0
H29 H 0.35628 0.52198 0.01965 0.0
H30 H 0.07997 0.29975 0.16818 0.0
H31 H 0.31378 0.35227 0.08377 0.0
H32 H 0.1858 0.30645 0.02449 0.0
C33 C 0.8473 0.4543 0.58219 0.0
C34 C 0.80897 0.45984 0.57707 0.0
N35 N 0.78941 0.45742 0.60924 0.0
N36 N 0.85208 0.44931 0.61746 0.0
C37 C 0.81606 0.45077 0.63307 0.0
H38 H 0.87016 0.45389 0.56166 0.0
Co39 Co 0.89542 0.43902 0.64136 0.0
C40 C 0.91695 0.50439 0.70278 0.0
O41 O 0.96174 0.5267 0.69497 0.0
N42 N 0.93833 0.4266 0.66683 0.0
C43 C -0.00177 0.43199 0.69872 0.0
C44 C 0.98417 0.45468 0.675 0.0
C45 C 0.92625 0.38663 0.68519 0.0
N46 N 0.96162 0.389 0.70465 0.0
O47 O 0.84437 0.38066 0.65585 0.0
H48 H 0.00581 0.49035 0.66588 0.0
H49 H 0.89125 0.35692 0.68674 0.0
O50 O 0.88832 0.46949 0.68391 0.0
C51 C 0.83551 0.35154 0.63056 0.0
O52 O 0.86503 0.36428 0.60364 0.0
N53 N 0.94377 0.49504 0.62187 0.0
C54 C 0.97937 0.55173 0.56169 0.0
C55 C 0.95672 0.56274 0.58832 0.0
C56 C 0.93977 0.53427 0.61877 0.0
C57 C 0.96969 0.48673 0.59776 0.0
C58 C 0.98861 0.51527 0.56775 0.0
H59 H 0.91701 0.5395 0.63655 0.0
H60 H 0.97048 0.45439 0.59914 0.0
H61 H 0.80943 0.44701 0.66153 0.0
H62 H 0.79606 0.46442 0.55165 0.0
H63 H 0.03195 0.44655 0.71172 0.0
H64 H 0.9482 0.59011 0.58402 0.0
H65 H 0.00515 0.50527 0.54729 0.0
C66 C 0.53965 0.82532 0.05512 0.0
C67 C 0.50188 0.83067 0.04685 0.0
N68 N 0.47549 0.82177 0.07654 0.0
N69 N 0.53718 0.81364 0.08992 0.0
C70 C 0.4977 0.81144 0.10209 0.0
H71 H 0.56685 0.82921 0.03694 0.0
Co72 Co 0.57629 0.79968 0.11613 0.0
C73 C 0.58598 0.84993 0.18446 0.0
O74 O 0.63156 0.86785 0.18385 0.0
N75 N 0.61521 0.78376 0.14363 0.0
C76 C 0.67223 0.78332 0.17585 0.0
C77 C 0.66146 0.80833 0.15176 0.0
C78 C 0.59935 0.74367 0.16276 0.0
N79 N 0.63302 0.74243 0.18212 0.0
O80 O 0.52386 0.73894 0.12361 0.0
H81 H 0.68571 0.84341 0.14263 0.0
H82 H 0.56312 0.71642 0.16454 0.0
O83 O 0.56089 0.82255 0.15947 0.0
C84 C 0.51954 0.71141 0.09822 0.0
O85 O 0.55218 0.72663 0.07344 0.0
N86 N 0.62679 0.85875 0.10391 0.0
C87 C 0.68056 0.93515 0.05925 0.0
C88 C 0.65297 0.93818 0.0865 0.0
C89 C 0.62587 0.8994 0.1083 0.0
C90 C 0.65566 0.85623 0.07905 0.0
C91 C 0.6834 0.89427 0.05677 0.0
H92 H 0.60043 0.90062 0.12568 0.0
H93 H 0.65397 0.82309 0.07428 0.0
H94 H 0.48535 0.80214 0.1293 0.0
H95 H 0.49395 0.83927 0.0208 0.0
H96 H 0.7057 0.79478 0.18857 0.0
H97 H 0.64962 0.96905 0.08917 0.0
H98 H 0.70349 0.8901 0.03569 0.0
C99 C 0.5203 0.37787 0.59142 0.0
C100 C 0.51423 0.33384 0.58568 0.0
N101 N 0.51837 0.31661 0.61737 0.0
N102 N 0.52722 0.38755 0.62664 0.0
C103 C 0.52652 0.34995 0.64149 0.0
H104 H 0.51953 0.40119 0.57138 0.0
Co105 Co 0.53857 0.44079 0.65178 0.0
C106 C 0.47404 0.39176 0.71354 0.0
O107 O 0.44778 0.41017 0.70621 0.0
N108 N 0.55194 0.49529 0.67858 0.0
C109 C 0.54717 0.54634 0.71504 0.0
C110 C 0.52291 0.5095 0.6918 0.0
C111 C 0.59389 0.52542 0.69339 0.0
N112 N 0.59191 0.55631 0.71566 0.0
O113 O 0.59763 0.44795 0.66391 0.0
H114 H 0.48591 0.49315 0.6863 0.0
H115 H 0.62514 0.52304 0.69044 0.0
O116 O 0.50999 0.40209 0.69442 0.0
C117 C 0.62471 0.46853 0.63746 0.0
O118 O 0.60973 0.48526 0.61195 0.0
N119 N 0.48194 0.43398 0.63438 0.0
C120 C 0.42478 0.4187 0.57543 0.0
C121 C 0.41441 0.38225 0.59958 0.0
C122 C 0.44304 0.39086 0.62956 0.0
C123 C 0.48944 0.47065 0.613 0.0
C124 C 0.4606 0.46394 0.58378 0.0
H125 H 0.43824 0.36122 0.64528 0.0
H126 H 0.52146 0.50392 0.61552 0.0
H127 H 0.53179 0.34694 0.66969 0.0
H128 H 0.50798 0.31626 0.56019 0.0
H129 H 0.53269 0.56299 0.73143 0.0
H130 H 0.38748 0.34672 0.59352 0.0
H131 H 0.47014 0.49269 0.56528 0.0
C132 C 0.18816 0.7225 0.04301 0.0
C133 C 0.18331 0.67911 0.03682 0.0
N134 N 0.19025 0.66265 0.06793 0.0
N135 N 0.1976 0.73294 0.0779 0.0
C136 C 0.19891 0.69607 0.09226 0.0
H137 H 0.18579 0.74528 0.0233 0.0
Co138 Co 0.211 0.78743 0.10164 0.0
C139 C 0.15718 0.75147 0.1694 0.0
O140 O 0.14168 0.78102 0.1665 0.0
N141 N 0.22634 0.84381 0.12665 0.0
C142 C 0.22687 0.90434 0.15408 0.0
C143 C 0.20307 0.86773 0.13052 0.0
C144 C 0.26443 0.86744 0.14782 0.0
N145 N 0.26574 0.90421 0.16433 0.0
O146 O 0.27061 0.7951 0.11253 0.0
H147 H 0.16955 0.85806 0.11879 0.0
H148 H 0.28995 0.85681 0.15304 0.0
O149 O 0.18477 0.75111 0.14565 0.0
C150 C 0.29996 0.81739 0.08775 0.0
O151 O 0.28689 0.83438 0.06116 0.0
N152 N 0.15342 0.77944 0.08617 0.0
C153 C 0.07836 0.75861 0.0407 0.0
C154 C 0.07322 0.72888 0.06941 0.0
C155 C 0.11141 0.73949 0.09151 0.0
C156 C 0.15848 0.80956 0.05921 0.0
C157 C 0.12129 0.80014 0.03644 0.0
H158 H 0.10824 0.71328 0.11042 0.0
H159 H 0.19262 0.83952 0.05385 0.0
H160 H 0.20664 0.6941 0.12009 0.0
H161 H 0.17662 0.6618 0.01119 0.0
H162 H 0.21588 0.92825 0.1637 0.0
H163 H 0.04117 0.69573 0.073 0.0
H164 H 0.12685 0.82399 0.01458 0.0
C165 C 0.59184 0.12659 0.59254 0.0
C166 C 0.63484 0.16456 0.58396 0.0
N167 N 0.65586 0.18666 0.61455 0.0
N168 N 0.58657 0.12456 0.62836 0.0
C169 C 0.62574 0.16189 0.64085 0.0
H170 H 0.56618 0.10199 0.57401 0.0
Co171 Co 0.53644 0.08258 0.65632 0.0
C172 C 0.58983 0.06959 0.71572 0.0
O173 O 0.56924 0.02433 0.71 0.0
N174 N 0.48485 0.04114 0.68582 0.0
C175 C 0.43642 0.98436 0.7232 0.0
C176 C 0.47075 0.99711 0.69751 0.0
C177 C 0.4571 0.05328 0.70406 0.0
N178 N 0.42775 0.01979 0.72681 0.0
O179 O 0.52889 0.13391 0.66928 0.0
H180 H 0.48573 0.97605 0.68932 0.0
H181 H 0.46016 0.0874 0.70308 0.0
O182 O 0.5791 0.09506 0.69671 0.0
C183 C 0.50549 0.1395 0.64455 0.0
O184 O 0.48616 0.107 0.61987 0.0
N185 N 0.54367 0.03346 0.63821 0.0
C186 C 0.5596 0.99709 0.57641 0.0
C187 C 0.59605 0.02197 0.6007 0.0
C188 C 0.58714 0.0392 0.63208 0.0
C189 C 0.50693 0.0046 0.61691 0.0
C190 C 0.51403 0.98531 0.5861 0.0
H191 H 0.61679 0.06386 0.64775 0.0
H192 H 0.47326 0.00206 0.62073 0.0
H193 H 0.63223 0.17075 0.66887 0.0
H194 H 0.64914 0.17539 0.55734 0.0
H195 H 0.42061 0.95259 0.73906 0.0
H196 H 0.63177 0.03224 0.59371 0.0
H197 H 0.4852 0.96682 0.56765 0.0
C198 C 0.37596 0.53134 0.40711 0.0
C199 C 0.33183 0.5255 0.41154 0.0
N200 N 0.31596 0.52946 0.37922 0.0
N201 N 0.38709 0.53799 0.37208 0.0
C202 C 0.3502 0.53728 0.356 0.0
H203 H 0.3984 0.5307 0.42793 0.0
Co204 Co 0.44143 0.54931 0.34862 0.0
C205 C 0.39651 0.48435 0.28674 0.0
O206 O 0.41628 0.4596 0.29505 0.0
N207 N 0.49722 0.56269 0.32349 0.0
C208 C 0.55088 0.55795 0.29011 0.0
C209 C 0.51323 0.53403 0.31283 0.0
C210 C 0.52704 0.60414 0.30766 0.0
N211 N 0.55953 0.60217 0.28725 0.0
O212 O 0.44876 0.608 0.33497 0.0
H213 H 0.49759 0.4974 0.31969 0.0
H214 H 0.52347 0.63489 0.30853 0.0
O215 O 0.40465 0.51992 0.3055 0.0
C216 C 0.46823 0.63575 0.36118 0.0
O217 O 0.48415 0.62156 0.38779 0.0
N218 N 0.43406 0.49303 0.36742 0.0
C219 C 0.41584 0.43506 0.42651 0.0
C220 C 0.38086 0.4246 0.40105 0.0
C221 C 0.39096 0.4537 0.37108 0.0
C222 C 0.46937 0.50098 0.39038 0.0
C223 C 0.46122 0.47177 0.41971 0.0
H224 H 0.36224 0.44866 0.35418 0.0
H225 H 0.50245 0.53338 0.38873 0.0
H226 H 0.34841 0.54239 0.3276 0.0
H227 H 0.31329 0.5196 0.4366 0.0
H228 H 0.56908 0.5435 0.27559 0.0
H229 H 0.3452 0.39704 0.40597 0.0
H230 H 0.48876 0.48139 0.43929 0.0
C231 C 0.82685 0.53297 0.93728 0.0
C232 C 0.83282 0.49518 0.94414 0.0
N233 N 0.82305 0.46956 0.914 0.0
N234 N 0.81392 0.53127 0.9029 0.0
C235 C 0.81165 0.49225 0.88958 0.0
H236 H 0.83108 0.55958 0.95616 0.0
Co237 Co 0.79815 0.57026 0.87825 0.0
C238 C 0.84952 0.58326 0.80953 0.0
O239 O 0.86862 0.62895 0.81135 0.0
N240 N 0.7805 0.60908 0.85224 0.0
C241 C 0.77916 0.66592 0.82028 0.0
C242 C 0.80549 0.6549 0.84269 0.0
C243 C 0.73878 0.59379 0.83573 0.0
N244 N 0.73706 0.62736 0.81645 0.0
O245 O 0.73804 0.51697 0.87062 0.0
H246 H 0.84155 0.67864 0.84976 0.0
H247 H 0.71055 0.5579 0.83564 0.0
O248 O 0.82146 0.55738 0.83402 0.0
C249 C 0.71156 0.51171 0.89712 0.0
O250 O 0.72767 0.54374 0.92229 0.0
N251 N 0.85628 0.62156 0.89073 0.0
C252 C 0.93257 0.68084 0.93342 0.0
C253 C 0.93694 0.65313 0.90696 0.0
C254 C 0.89813 0.62315 0.88618 0.0
C255 C 0.85206 0.64971 0.91525 0.0
C256 C 0.88988 0.68008 0.93649 0.0
H257 H 0.90064 0.59813 0.86915 0.0
H258 H 0.81812 0.64614 0.92012 0.0
H259 H 0.80139 0.48052 0.86239 0.0
H260 H 0.84234 0.48664 0.96959 0.0
H261 H 0.79052 0.69904 0.80689 0.0
H262 H 0.96882 0.65161 0.90435 0.0
H263 H 0.88493 0.70085 0.95652 0.0
C264 C 0.45128 0.85963 0.40679 0.0
C265 C 0.45614 0.82122 0.41387 0.0
N266 N 0.45491 0.80053 0.38252 0.0
N267 N 0.44794 0.86331 0.37114 0.0
C268 C 0.44961 0.82655 0.35724 0.0
H269 H 0.45038 0.88337 0.42623 0.0
Co270 Co 0.43983 0.9066 0.34499 0.0
C271 C 0.50617 0.92405 0.28485 0.0
O272 O 0.529 0.96918 0.29134 0.0
N273 N 0.42968 0.94949 0.31729 0.0
C274 C 0.43776 0.00888 0.28308 0.0
C275 C 0.45883 0.99496 0.30838 0.0
C276 C 0.39071 0.93756 0.29776 0.0
N277 N 0.39469 0.97264 0.27694 0.0
O278 O 0.38126 0.85592 0.33071 0.0
H279 H 0.49419 0.01631 0.31805 0.0
H280 H 0.36063 0.90277 0.29641 0.0
O281 O 0.47064 0.89671 0.30383 0.0
C282 C 0.35146 0.84842 0.35522 0.0
O283 O 0.36371 0.87902 0.38128 0.0
N284 N 0.496 0.95471 0.36426 0.0
C285 C 0.55014 0.98884 0.42557 0.0
C286 C 0.56134 0.96545 0.3997 0.0
C287 C 0.53421 0.94928 0.36866 0.0
C288 C 0.48799 0.98177 0.38741 0.0
C289 C 0.51529 -6e-05 0.41802 0.0
H290 H 0.53918 0.92573 0.35163 0.0
H291 H 0.45643 0.98383 0.38493 0.0
H292 H 0.44716 0.81903 0.32896 0.0
H293 H 0.4596 0.80913 0.44001 0.0
H294 H 0.4535 0.04217 0.26917 0.0
H295 H 0.58751 0.9556 0.4051 0.0
H296 H 0.50519 0.01717 0.4378 0.0
C297 C 0.47409 0.2859 0.94834 0.0
C298 C 0.51277 0.32968 0.95299 0.0
N299 N 0.53577 0.34387 0.92153 0.0
N300 N 0.4726 0.27294 0.91403 0.0
C301 C 0.51062 0.30873 0.89851 0.0
H302 H 0.44919 0.26456 0.96871 0.0
Co303 Co 0.43124 0.21676 0.89236 0.0
C304 C 0.4116 0.24833 0.82312 0.0
O305 O 0.36657 0.21921 0.82698 0.0
N306 N 0.38989 0.15858 0.86947 0.0
C307 C 0.32959 0.0965 0.84359 0.0
C308 C 0.34271 0.13487 0.8653 0.0
C309 C 0.40402 0.13299 0.85042 0.0
N310 N 0.36838 0.09531 0.83485 0.0
O311 O 0.48329 0.20892 0.88236 0.0
H312 H 0.31909 0.14583 0.87542 0.0
H313 H 0.4401 0.14278 0.8459 0.0
O314 O 0.44016 0.25004 0.84693 0.0
C315 C 0.49117 0.18875 0.90832 0.0
O316 O 0.46179 0.17374 0.93539 0.0
N317 N 0.38163 0.22522 0.90689 0.0
C318 C 0.32563 0.24672 0.94966 0.0
C319 C 0.35091 0.27566 0.92076 0.0
C320 C 0.3793 0.2647 0.90001 0.0
C321 C 0.35632 0.19608 0.93423 0.0
C322 C 0.32757 0.20575 0.95559 0.0
H323 H 0.40252 0.29024 0.88078 0.0
H324 H 0.3607 0.16655 0.94084 0.0
H325 H 0.51995 0.30867 0.87081 0.0
H326 H 0.52379 0.34883 0.97788 0.0
H327 H 0.29467 0.07234 0.83407 0.0
H328 H 0.35172 0.30844 0.91591 0.0
H329 H 0.30876 0.18244 0.9776 0.0
C330 C 0.12655 0.60562 0.39684 0.0
C331 C 0.16423 0.64907 0.40475 0.0
N332 N 0.18662 0.66914 0.37393 0.0
N333 N 0.12498 0.59913 0.36118 0.0
C334 C 0.16231 0.63802 0.34817 0.0
H335 H 0.10184 0.5805 0.41571 0.0
Co336 Co 0.08374 0.54802 0.33377 0.0
C337 C 0.07156 0.60118 0.27343 0.0
O338 O 0.02654 0.58226 0.2796 0.0
N339 N 0.04323 0.49564 0.30479 0.0
C340 C 0.98826 0.44714 0.26653 0.0
C341 C 0.00031 0.48237 0.29122 0.0
C342 C 0.05534 0.46649 0.28871 0.0
N343 N 0.02297 0.43713 0.26539 0.0
O344 O 0.13569 0.54085 0.32193 0.0
H345 H 0.97959 0.49839 0.2975 0.0
H346 H 0.08886 0.46859 0.29159 0.0
O347 O 0.0963 0.58967 0.29255 0.0
C348 C 0.14076 0.51826 0.34764 0.0
O349 O 0.10772 0.49971 0.37208 0.0
N350 N 0.03378 0.55466 0.3509 0.0
C351 C 0.99415 0.5687 0.41169 0.0
C352 C 0.02006 0.60585 0.38803 0.0
C353 C 0.03889 0.59788 0.3571 0.0
C354 C 0.00408 0.5173 0.37151 0.0
C355 C 0.98312 0.52345 0.40173 0.0
H356 H 0.06404 0.62796 0.34192 0.0
H357 H 0.00194 0.4838 0.36775 0.0
H358 H 0.17153 0.64358 0.32014 0.0
H359 H 0.17468 0.66433 0.43108 0.0
H360 H 0.95755 0.43165 0.2496 0.0
H361 H 0.02975 0.64136 0.39524 0.0
H362 H 0.96387 0.49407 0.4197 0.0
C363 C 0.7232 0.18231 0.9437 0.0
C364 C 0.68025 0.17755 0.95163 0.0
N365 N 0.66233 0.18466 0.92139 0.0
N366 N 0.73189 0.19186 0.90858 0.0
C367 C 0.69446 0.19339 0.89584 0.0
H368 H 0.74678 0.17957 0.96233 0.0
Co369 Co 0.78474 0.20426 0.88277 0.0
C370 C 0.74517 0.15235 0.81504 0.0
O371 O 0.77415 0.13603 0.8163 0.0
N372 N 0.8394 0.21862 0.85569 0.0
C373 C 0.89832 0.21864 0.826 0.0
C374 C 0.86305 0.19525 0.85081 0.0
C375 C 0.86171 0.25626 0.83376 0.0
N376 N 0.89754 0.2573 0.81595 0.0
O377 O 0.79371 0.26485 0.87343 0.0
H378 H 0.8541 0.16198 0.8628 0.0
H379 H 0.85078 0.28168 0.82907 0.0
O380 O 0.74634 0.17976 0.83957 0.0
C381 C 0.81758 0.29387 0.89787 0.0
O382 O 0.8355 0.28014 0.92334 0.0
N383 N 0.77545 0.14547 0.89674 0.0
C384 C 0.75086 0.07018 0.94313 0.0
C385 C 0.7213 0.06653 0.91482 0.0
C386 C 0.73393 0.10477 0.89216 0.0
C387 C 0.80581 0.14859 0.92281 0.0
C388 C 0.79454 0.11109 0.94598 0.0
H389 H 0.70788 0.10309 0.87385 0.0
H390 H 0.83714 0.18184 0.9277 0.0
H391 H 0.69103 0.20107 0.86826 0.0
H392 H 0.66415 0.17061 0.97781 0.0
H393 H 0.92177 0.20757 0.81549 0.0
H394 H 0.68712 0.03562 0.91184 0.0
H395 H 0.81798 0.11574 0.96786 0.0
C396 C 0.27752 0.28431 0.9639 0.0
C397 C 0.30189 0.26201 0.97566 0.0
H398 H 0.24261 0.32165 0.9784 0.0
C399 C 0.30649 0.25756 0.01268 0.0
H400 H 0.27311 0.28808 0.93562 0.0
C401 C 0.28858 0.27639 0.03729 0.0
C402 C 0.26556 0.30006 0.0255 0.0
H403 H 0.32561 0.24115 0.02271 0.0
H404 H 0.29354 0.27318 0.06557 0.0
C405 C 0.25956 0.30309 0.98851 0.0
C406 C 0.9422 0.55036 0.50378 0.0
C407 C 0.98296 0.56906 0.52475 0.0
H408 H 0.91372 0.53565 0.45068 0.0
C409 C 0.02674 0.59516 0.50822 0.0
H410 H 0.9081 0.52932 0.51603 0.0
C411 C 0.02983 0.59988 0.47098 0.0
C412 C 0.98926 0.57734 0.44977 0.0
H413 H 0.05855 0.60909 0.52386 0.0
H414 H 0.06415 0.61733 0.45863 0.0
C415 C 0.94533 0.55395 0.4665 0.0
C416 C 0.6884 0.01874 0.98647 0.0
C417 C 0.73338 0.03482 0.97238 0.0
H418 H 0.63684 0.97512 0.0248 0.0
C419 C 0.7618 0.0189 0.98779 0.0
H420 H 0.66596 0.03101 0.97571 0.0
C421 C 0.74513 0.98693 0.01634 0.0
C422 C 0.7001 0.97103 0.0304 0.0
H423 H 0.79669 0.03086 0.97756 0.0
H424 H 0.76747 0.97482 0.02753 0.0
C425 C 0.67202 0.98735 0.01509 0.0
C426 C 0.3852 0.43132 0.52317 0.0
C427 C 0.40797 0.40907 0.53811 0.0
H428 H 0.36819 0.45506 0.47508 0.0
C429 C 0.42516 0.3872 0.51541 0.0
H430 H 0.37253 0.44914 0.54017 0.0
C431 C 0.42385 0.39164 0.47828 0.0
C432 C 0.40411 0.41685 0.46341 0.0
H433 H 0.44376 0.37071 0.5264 0.0
H434 H 0.44129 0.37849 0.46135 0.0
C435 C 0.38273 0.43463 0.48602 0.0
C436 C 0.99373 0.72124 0.02301 0.0
C437 C 0.04111 0.74354 0.01311 0.0
H438 H 0.92248 0.68403 0.0057 0.0
C439 C 0.05262 0.74802 0.97652 0.0
H440 H 0.98374 0.71739 0.05093 0.0
C441 C 0.01751 0.72911 0.95051 0.0
C442 C 0.97009 0.70554 0.96047 0.0
H443 H 0.0888 0.76445 0.96798 0.0
H444 H 0.02747 0.73215 0.92262 0.0
C445 C 0.95864 0.70255 -0.00299 0.0
C446 C 0.54588 0.94943 0.48317 0.0
C447 C 0.56505 0.9911 0.46309 0.0
H448 H 0.52897 0.91856 0.5356 0.0
C449 C 0.58952 0.03422 0.4807 0.0
H450 H 0.52608 0.91579 0.47009 0.0
C451 C 0.5923 0.03569 0.51804 0.0
C452 C 0.56944 0.99413 0.53826 0.0
H453 H 0.60381 0.0667 0.46575 0.0
H454 H 0.60869 0.06946 0.53118 0.0
C455 C 0.54748 0.95093 0.52054 0.0
C456 C 0.21615 0.57323 0.10778 0.0
C457 C 0.19227 0.53557 0.08418 0.0
H458 H 0.23518 0.64357 0.12071 0.0
C459 C 0.16659 0.53986 0.05589 0.0
H460 H 0.23652 0.57109 0.12967 0.0
C461 C 0.16553 0.58124 0.05084 0.0
C462 C 0.19023 0.61942 0.07388 0.0
H463 H 0.14757 0.51135 0.03732 0.0
H464 H 0.14528 0.58323 0.02885 0.0
C465 C 0.21524 0.61477 0.10264 0.0
C466 C 0.73733 0.2376 0.59468 0.0
C467 C 0.70121 0.22762 0.61901 0.0
H468 H 0.8084 0.28397 0.57978 0.0
C469 C 0.71028 0.25767 0.64832 0.0
H470 H 0.73161 0.21473 0.57222 0.0
C471 C 0.75442 0.29721 0.65292 0.0
C472 C 0.79031 0.30746 0.62827 0.0
H473 H 0.683 0.25125 0.66733 0.0
H474 H 0.76002 0.32026 0.67526 0.0
C475 C 0.78144 0.27703 0.59929 0.0
C476 C 0.43761 0.65182 0.11584 0.0
C477 C 0.47716 0.66491 0.09439 0.0
H478 H 0.36612 0.60114 0.12616 0.0
C479 C 0.47498 0.63427 0.06744 0.0
H480 H 0.43809 0.67485 0.13662 0.0
C481 C 0.43384 0.59186 0.06153 0.0
C482 C 0.39383 0.5791 0.08236 0.0
H483 H 0.50496 0.64323 0.05054 0.0
H484 H 0.43344 0.56909 0.04061 0.0
C485 C 0.39634 0.60942 0.10983 0.0
C486 C 0.68136 0.44233 0.65485 0.0
C487 C 0.66903 0.46853 0.63237 0.0
H488 H 0.72889 0.41734 0.66459 0.0
C489 C 0.69749 0.49181 0.60268 0.0
H490 H 0.65983 0.4236 0.67767 0.0
C491 C 0.73687 0.48813 0.5951 0.0
C492 C 0.74882 0.46128 0.61712 0.0
H493 H 0.68899 0.51238 0.58482 0.0
H494 H 0.75809 0.5065 0.57209 0.0
C495 C 0.7209 0.43874 0.64729 0.0
C496 C 0.39973 0.79521 0.10721 0.0
C497 C 0.43211 0.82196 0.0803 0.0
H498 H 0.33272 0.77302 0.1309 0.0
C499 C 0.42134 0.84874 0.05709 0.0
H500 H 0.40648 0.77364 0.1253 0.0
C501 C 0.37891 0.84812 0.06022 0.0
C502 C 0.34628 0.82078 0.08669 0.0
H503 H 0.44572 0.87031 0.03651 0.0
H504 H 0.37152 0.86878 0.04158 0.0
C505 C 0.35731 0.79473 0.11042 0.0
C506 C 0.48551 0.23285 0.60369 0.0
C507 C 0.51436 0.27191 0.62476 0.0
H508 H 0.45914 0.16012 0.59404 0.0
C509 C 0.53848 0.26649 0.65377 0.0
H510 H 0.46595 0.23577 0.58158 0.0
C511 C 0.53436 0.22306 0.66119 0.0
C512 C 0.50604 0.18418 0.63973 0.0
H513 H 0.56143 0.29607 0.6703 0.0
H514 H 0.55429 0.22026 0.68312 0.0
C515 C 0.48128 0.18943 0.61114 0.0
C516 C 0.48503 0.74852 0.40017 0.0
C517 C 0.45909 0.75972 0.37656 0.0
H518 H 0.50918 0.70122 0.41329 0.0
C519 C 0.43801 0.73099 0.34658 0.0
H520 H 0.50229 0.77038 0.4231 0.0
C521 C 0.44223 0.69146 0.3407 0.0
C522 C 0.46759 0.67993 0.36469 0.0
H523 H 0.41732 0.7384 0.32808 0.0
H524 H 0.42465 0.66935 0.31792 0.0
C525 C 0.48933 0.70913 0.39427 0.0
C526 C 0.63531 0.46729 0.92915 0.0
C527 C 0.66502 0.46947 0.90139 0.0
H528 H 0.57078 0.42603 0.95699 0.0
C529 C 0.6509 0.43017 0.87951 0.0
H530 H 0.64505 0.49711 0.94639 0.0
C531 C 0.60836 0.3891 0.88589 0.0
C532 C 0.579 0.38659 0.91419 0.0
H533 H 0.67322 0.43069 0.85808 0.0
H534 H 0.59922 0.35901 0.8692 0.0
C535 C 0.59281 0.42639 0.93545 0.0
C536 C 0.23699 0.75147 0.39192 0.0
C537 C 0.22751 0.71442 0.36876 0.0
H538 H 0.28298 0.82319 0.40523 0.0
C539 C 0.258 0.72246 0.33987 0.0
H540 H 0.21378 0.74652 0.41401 0.0
C541 C 0.29749 0.76649 0.33456 0.0
C542 C 0.30729 0.80333 0.35807 0.0
H543 H 0.25196 0.69446 0.32177 0.0
H544 H 0.32089 0.77128 0.31262 0.0
C545 C 0.27639 0.7955 0.38658 0.0
C546 C 0.58163 0.1592 0.94114 0.0
C547 C 0.61873 0.18433 0.91716 0.0
H548 H 0.51218 0.14042 0.95684 0.0
C549 C 0.61261 0.20931 0.88907 0.0
H550 H 0.58479 0.13896 0.96265 0.0
C551 C 0.57067 0.20973 0.88545 0.0
C552 C 0.53407 0.18538 0.90994 0.0
H553 H 0.64056 0.22958 0.87033 0.0
H554 H 0.5674 0.23009 0.86403 0.0
C555 C 0.53984 0.15977 0.9376 0.0
C556 C 0.23193 0.49741 0.39123 0.0
C557 C 0.27173 0.52574 0.37057 0.0
H558 H 0.15914 0.47191 0.39958 0.0
C559 C 0.26756 0.54975 0.34086 0.0
H560 H 0.23387 0.47792 0.41385 0.0
C561 C 0.22461 0.54611 0.33241 0.0
C562 C 0.18502 0.51836 0.35352 0.0
H563 H 0.29774 0.57229 0.32461 0.0
H564 H 0.22275 0.56597 0.30999 0.0
C565 C 0.18903 0.49365 0.38275 0.0
C566 C 0.84973 0.37241 0.9264 0.0
C567 C 0.82139 0.34036 0.90007 0.0
H568 H 0.87289 0.43876 0.95121 0.0
C569 C 0.79463 0.35204 0.87768 0.0
H570 H 0.87094 0.36452 0.94403 0.0
C571 C 0.79538 0.39446 0.88211 0.0
C572 C 0.82309 0.42624 0.90891 0.0
H573 H 0.77215 0.32792 0.85735 0.0
H574 H 0.77324 0.40166 0.86506 0.0
C575 C 0.8506 0.41486 0.93075 0.0
C576 C 0.03059 0.42128 0.20238 0.0
C577 C 0.03146 0.41107 0.23872 0.0
H578 H 0.05306 0.41702 0.14937 0.0
C579 C 0.0493 0.38199 0.24883 0.0
H580 H 0.01778 0.44432 0.19413 0.0
C581 C 0.06851 0.36564 0.22323 0.0
C582 C 0.07122 0.3792 0.18733 0.0
H583 H 0.05073 0.37426 0.2768 0.0
H584 H 0.08462 0.34562 0.23182 0.0
C585 C 0.05089 0.40595 0.17693 0.0
C586 C 0.94902 0.33805 0.79567 0.0
C587 C 0.92371 0.28996 0.7881 0.0
H588 H 0.98265 0.4079 0.77432 0.0
C589 C 0.91734 0.2751 0.75243 0.0
H590 H 0.95356 0.34997 0.82309 0.0
C591 C 0.93294 0.30804 0.72466 0.0
C592 C 0.95606 0.3562 0.73222 0.0
H593 H 0.89712 0.23815 0.74618 0.0
H594 H 0.92471 0.29604 0.69729 0.0
C595 C 0.9657 0.37099 0.76791 0.0
C596 C 0.60166 0.66002 0.19868 0.0
C597 C 0.62492 0.70744 0.20843 0.0
H598 H 0.56361 0.58869 0.21674 0.0
C599 C 0.63247 0.71942 0.24474 0.0
H600 H 0.59508 0.65028 0.17076 0.0
C601 C 0.61363 0.68437 0.27096 0.0
C602 C 0.58803 0.63693 0.26119 0.0
H603 H 0.64963 0.75582 0.25272 0.0
H604 H 0.61675 0.69423 0.29884 0.0
C605 C 0.58389 0.62497 0.22487 0.0
C606 C 0.67432 0.61131 0.7302 0.0
C607 C 0.62751 0.58404 0.74127 0.0
H608 H 0.74651 0.64791 0.74616 0.0
C609 C 0.61731 0.57746 0.77795 0.0
H610 H 0.68284 0.61632 0.70199 0.0
C611 C 0.65357 0.59451 0.803 0.0
C612 C 0.70046 0.61939 0.79181 0.0
H613 H 0.58154 0.55591 0.78702 0.0
H614 H 0.64522 0.5862 0.83103 0.0
C615 C 0.71056 0.62938 0.75534 0.0
C616 C 0.3154 0.94711 0.2549 0.0
C617 C 0.36347 0.96664 0.24812 0.0
H618 H 0.24607 0.91289 0.23266 0.0
C619 C 0.37909 0.97143 0.21267 0.0
H620 H 0.30277 0.94252 0.28216 0.0
C621 C 0.34678 0.95347 0.18465 0.0
C622 C 0.29857 0.93165 0.19162 0.0
H623 H 0.41591 0.9855 0.20699 0.0
H624 H 0.35914 0.95427 0.1577 0.0
C625 C 0.28316 0.9303 0.22676 0.0
C626 C 0.37324 0.04527 0.74693 0.0
C627 C 0.40288 0.0274 0.75501 0.0
H628 H 0.33761 0.08004 0.7669 0.0
C629 C 0.41501 0.02593 0.79074 0.0
H630 H 0.36412 0.04725 0.71942 0.0
C631 C 0.40094 0.04566 0.81758 0.0
C632 C 0.37354 0.06597 0.80919 0.0
H633 H 0.43857 0.01313 0.79738 0.0
H634 H 0.41348 0.04743 0.84461 0.0
C635 C 0.35812 0.06388 0.77394 0.0
C636 C 0.34775 0.49784 0.24164 0.0
C637 C 0.36069 0.46763 0.25814 0.0
H638 H 0.30464 0.50533 0.20211 0.0
C639 C 0.33819 0.42045 0.24767 0.0
H640 H 0.36443 0.53438 0.24922 0.0
C641 C 0.3034 0.40368 0.22149 0.0
C642 C 0.29084 0.43386 0.20456 0.0
H643 H 0.34702 0.39615 0.26004 0.0
H644 H 0.2869 0.36709 0.21409 0.0
C645 C 0.31354 0.48123 0.21474 0.0
C646 C 0.83891 0.51502 0.77246 0.0
C647 C 0.86576 0.56254 0.7819 0.0
H648 H 0.83369 0.45933 0.73951 0.0
C649 C 0.90942 0.59028 0.76537 0.0
H650 H 0.80515 0.49277 0.78482 0.0
C651 C 0.92615 0.57099 0.74026 0.0
C652 C 0.89924 0.52368 0.73045 0.0
H653 H 0.93116 0.6269 0.77224 0.0
H654 H 0.96002 0.59346 0.72813 0.0
C655 C 0.85524 0.49589 0.74659 0.0
C656 C 0.51699 0.84225 0.21904 0.0
C657 C 0.56499 0.86768 0.21068 0.0
H658 H 0.46068 0.83979 0.24963 0.0
C659 C 0.593 0.91155 0.22671 0.0
H660 H 0.49454 0.80837 0.20701 0.0
C661 C 0.57351 0.92994 0.2502 0.0
C662 C 0.5257 0.90449 0.25891 0.0
H663 H 0.62999 0.93224 0.22062 0.0
H664 H 0.59619 0.96395 0.26196 0.0
C665 C 0.49764 0.86023 0.24335 0.0
C666 C 0.39647 0.29535 0.77819 0.0
C667 C 0.42807 0.28417 0.79439 0.0
H668 H 0.38639 0.33845 0.74063 0.0
C669 C 0.47532 0.30877 0.7838 0.0
H670 H 0.35992 0.27737 0.78591 0.0
C671 C 0.49045 0.34356 0.75729 0.0
C672 C 0.45883 0.35516 0.74159 0.0
H673 H 0.50049 0.30097 0.79587 0.0
H674 H 0.52696 0.36177 0.74942 0.0
C675 C 0.41175 0.33069 0.7524 0.0
C676 C 0.15876 0.68852 0.20665 0.0
C677 C 0.13663 0.71387 0.19677 0.0
H678 H 0.1559 0.63331 0.23918 0.0
C679 C 0.09328 0.7018 0.21233 0.0
H680 H 0.19217 0.69698 0.19506 0.0
C681 C 0.07214 0.66485 0.23676 0.0
C682 C 0.09421 0.6396 0.24686 0.0
H683 H 0.07509 0.72033 0.20513 0.0
H684 H 0.03859 0.65643 0.24805 0.0
C685 C 0.13801 0.65209 0.23184 0.0
C686 C 0.69225 0.0888 0.77327 0.0
C687 C 0.70625 0.13256 0.78886 0.0
H688 H 0.64419 0.03446 0.73867 0.0
C689 C 0.68156 0.15578 0.78024 0.0
H690 H 0.71023 0.06978 0.77955 0.0
C691 C 0.64389 0.13571 0.75618 0.0
C692 C 0.6295 0.09151 0.74114 0.0
H693 H 0.6915 0.18951 0.79191 0.0
H694 H 0.62565 0.15443 0.74975 0.0
C695 C 0.65408 0.06834 0.75003 0.0
loop_
_geom_bond_atom_site_label_1
_geom_bond_atom_site_label_2
_geom_bond_distance
_geom_bond_site_symmetry_2
_ccdc_geom_bond_type
C0 C1 1.351 . S
C0 N3 1.368 . S
C0 H5 0.931 . S
C1 C0 1.351 . S
C1 N2 1.373 . S
C1 H29 0.930 . S
N2 C1 1.373 . S
N2 C4 1.340 . S
N3 C0 1.368 . S
N3 C4 1.321 . S
N3 Co6 2.135 . S
C4 N2 1.340 . S
C4 N3 1.321 . S
C4 H28 0.930 . S
H5 C0 0.931 . S
Co6 N3 2.135 . S
Co6 N9 2.121 . S
Co6 O14 2.055 . S
Co6 O17 2.039 . S
Co6 N20 2.140 . S
C7 O8 1.227 . S
C7 O17 1.265 . S
O8 C7 1.227 . S
N9 Co6 2.121 . S
N9 C11 1.375 . S
N9 C12 1.313 . S
C10 C11 1.338 . S
C10 N13 1.377 . S
C10 H30 0.930 . S
C11 N9 1.375 . S
C11 C10 1.338 . S
C11 H15 0.931 . S
C12 N9 1.313 . S
C12 N13 1.344 . S
C12 H16 0.930 . S
N13 C10 1.377 . S
N13 C12 1.344 . S
O14 Co6 2.055 . S
O14 C18 1.253 . S
H15 C11 0.931 . S
H16 C12 0.930 . S
O17 Co6 2.039 . S
O17 C7 1.265 . S
C18 O14 1.253 . S
C18 O19 1.227 . S
O19 C18 1.227 . S
N20 Co6 2.140 . S
N20 C23 1.346 . S
N20 C24 1.345 . S
C21 C22 1.387 . S
C21 C25 1.391 . S
C22 C21 1.387 . S
C22 C23 1.369 . S
C22 H31 0.929 . S
C23 N20 1.346 . S
C23 C22 1.369 . S
C23 H26 0.928 . S
C24 N20 1.345 . S
C24 C25 1.371 . S
C24 H27 0.931 . S
C25 C21 1.391 . S
C25 C24 1.371 . S
C25 H32 0.930 . S
H26 C23 0.928 . S
H27 C24 0.931 . S
H28 C4 0.930 . S
H29 C1 0.930 . S
H30 C10 0.930 . S
H31 C22 0.929 . S
H32 C25 0.930 . S
C33 C34 1.351 . S
C33 N36 1.368 . S
C33 H38 0.931 . S
C34 C33 1.351 . S
C34 N35 1.373 . S
C34 H62 0.930 . S
N35 C34 1.373 . S
N35 C37 1.340 . S
N36 C33 1.368 . S
N36 C37 1.321 . S
N36 Co39 2.135 . S
C37 N35 1.340 . S
C37 N36 1.321 . S
C37 H61 0.930 . S
H38 C33 0.931 . S
Co39 N36 2.135 . S
Co39 N42 2.121 . S
Co39 O47 2.055 . S
Co39 O50 2.039 . S
Co39 N53 2.140 . S
C40 O41 1.227 . S
C40 O50 1.265 . S
O41 C40 1.227 . S
N42 Co39 2.121 . S
N42 C44 1.375 . S
N42 C45 1.313 . S
C43 C44 1.338 . S
C43 N46 1.377 . S
C43 H63 0.930 . S
C44 N42 1.375 . S
C44 C43 1.338 . S
C44 H48 0.931 . S
C45 N42 1.313 . S
C45 N46 1.344 . S
C45 H49 0.930 . S
N46 C43 1.377 . S
N46 C45 1.344 . S
O47 Co39 2.055 . S
O47 C51 1.253 . S
H48 C44 0.931 . S
H49 C45 0.930 . S
O50 Co39 2.039 . S
O50 C40 1.265 . S
C51 O47 1.253 . S
C51 O52 1.227 . S
O52 C51 1.227 . S
N53 Co39 2.140 . S
N53 C56 1.346 . S
N53 C57 1.345 . S
C54 C55 1.387 . S
C54 C58 1.391 . S
C55 C54 1.387 . S
C55 C56 1.369 . S
C55 H64 0.929 . S
C56 N53 1.346 . S
C56 C55 1.369 . S
C56 H59 0.928 . S
C57 N53 1.345 . S
C57 C58 1.371 . S
C57 H60 0.931 . S
C58 C54 1.391 . S
C58 C57 1.371 . S
C58 H65 0.930 . S
H59 C56 0.928 . S
H60 C57 0.931 . S
H61 C37 0.930 . S
H62 C34 0.930 . S
H63 C43 0.930 . S
H64 C55 0.929 . S
H65 C58 0.930 . S
C66 C67 1.351 . S
C66 N69 1.368 . S
C66 H71 0.931 . S
C67 C66 1.351 . S
C67 N68 1.373 . S
C67 H95 0.930 . S
N68 C67 1.373 . S
N68 C70 1.340 . S
N69 C66 1.368 . S
N69 C70 1.321 . S
N69 Co72 2.135 . S
C70 N68 1.340 . S
C70 N69 1.321 . S
C70 H94 0.930 . S
H71 C66 0.931 . S
Co72 N69 2.135 . S
Co72 N75 2.121 . S
Co72 O80 2.055 . S
Co72 O83 2.039 . S
Co72 N86 2.140 . S
C73 O74 1.227 . S
C73 O83 1.265 . S
O74 C73 1.227 . S
N75 Co72 2.121 . S
N75 C77 1.375 . S
N75 C78 1.313 . S
C76 C77 1.338 . S
C76 N79 1.377 . S
C76 H96 0.930 . S
C77 N75 1.375 . S
C77 C76 1.338 . S
C77 H81 0.931 . S
C78 N75 1.313 . S
C78 N79 1.344 . S
C78 H82 0.930 . S
N79 C76 1.377 . S
N79 C78 1.344 . S
O80 Co72 2.055 . S
O80 C84 1.253 . S
H81 C77 0.931 . S
H82 C78 0.930 . S
O83 Co72 2.039 . S
O83 C73 1.265 . S
C84 O80 1.253 . S
C84 O85 1.227 . S
O85 C84 1.227 . S
N86 Co72 2.140 . S
N86 C89 1.346 . S
N86 C90 1.345 . S
C87 C88 1.387 . S
C87 C91 1.391 . S
C88 C87 1.387 . S
C88 C89 1.369 . S
C88 H97 0.929 . S
C89 N86 1.346 . S
C89 C88 1.369 . S
C89 H92 0.928 . S
C90 N86 1.345 . S
C90 C91 1.371 . S
C90 H93 0.931 . S
C91 C87 1.391 . S
C91 C90 1.371 . S
C91 H98 0.930 . S
H92 C89 0.928 . S
H93 C90 0.931 . S
H94 C70 0.930 . S
H95 C67 0.930 . S
H96 C76 0.930 . S
H97 C88 0.929 . S
H98 C91 0.930 . S
C99 C100 1.351 . S
C99 N102 1.368 . S
C99 H104 0.931 . S
C100 C99 1.351 . S
C100 N101 1.373 . S
C100 H128 0.930 . S
N101 C100 1.373 . S
N101 C103 1.340 . S
N102 C99 1.368 . S
N102 C103 1.321 . S
N102 Co105 2.135 . S
C103 N101 1.340 . S
C103 N102 1.321 . S
C103 H127 0.930 . S
H104 C99 0.931 . S
Co105 N102 2.135 . S
Co105 N108 2.121 . S
Co105 O113 2.055 . S
Co105 O116 2.039 . S
Co105 N119 2.140 . S
C106 O107 1.227 . S
C106 O116 1.265 . S
O107 C106 1.227 . S
N108 Co105 2.121 . S
N108 C110 1.375 . S
N108 C111 1.313 . S
C109 C110 1.338 . S
C109 N112 1.377 . S
C109 H129 0.930 . S
C110 N108 1.375 . S
C110 C109 1.338 . S
C110 H114 0.931 . S
C111 N108 1.313 . S
C111 N112 1.344 . S
C111 H115 0.930 . S
N112 C109 1.377 . S
N112 C111 1.344 . S
O113 Co105 2.055 . S
O113 C117 1.253 . S
H114 C110 0.931 . S
H115 C111 0.930 . S
O116 Co105 2.039 . S
O116 C106 1.265 . S
C117 O113 1.253 . S
C117 O118 1.227 . S
O118 C117 1.227 . S
N119 Co105 2.140 . S
N119 C122 1.346 . S
N119 C123 1.345 . S
C120 C121 1.387 . S
C120 C124 1.391 . S
C121 C120 1.387 . S
C121 C122 1.369 . S
C121 H130 0.929 . S
C122 N119 1.346 . S
C122 C121 1.369 . S
C122 H125 0.928 . S
C123 N119 1.345 . S
C123 C124 1.371 . S
C123 H126 0.931 . S
C124 C120 1.391 . S
C124 C123 1.371 . S
C124 H131 0.930 . S
H125 C122 0.928 . S
H126 C123 0.931 . S
H127 C103 0.930 . S
H128 C100 0.930 . S
H129 C109 0.930 . S
H130 C121 0.929 . S
H131 C124 0.930 . S
C132 C133 1.351 . S
C132 N135 1.368 . S
C132 H137 0.931 . S
C133 C132 1.351 . S
C133 N134 1.373 . S
C133 H161 0.930 . S
N134 C133 1.373 . S
N134 C136 1.340 . S
N135 C132 1.368 . S
N135 C136 1.321 . S
N135 Co138 2.135 . S
C136 N134 1.340 . S
C136 N135 1.321 . S
C136 H160 0.930 . S
H137 C132 0.931 . S
Co138 N135 2.135 . S
Co138 N141 2.121 . S
Co138 O146 2.055 . S
Co138 O149 2.039 . S
Co138 N152 2.140 . S
C139 O140 1.227 . S
C139 O149 1.265 . S
O140 C139 1.227 . S
N141 Co138 2.121 . S
N141 C143 1.375 . S
N141 C144 1.313 . S
C142 C143 1.338 . S
C142 N145 1.377 . S
C142 H162 0.930 . S
C143 N141 1.375 . S
C143 C142 1.338 . S
C143 H147 0.931 . S
C144 N141 1.313 . S
C144 N145 1.344 . S
C144 H148 0.930 . S
N145 C142 1.377 . S
N145 C144 1.344 . S
O146 Co138 2.055 . S
O146 C150 1.253 . S
H147 C143 0.931 . S
H148 C144 0.930 . S
O149 Co138 2.039 . S
O149 C139 1.265 . S
C150 O146 1.253 . S
C150 O151 1.227 . S
O151 C150 1.227 . S
N152 Co138 2.140 . S
N152 C155 1.346 . S
N152 C156 1.345 . S
C153 C154 1.387 . S
C153 C157 1.391 . S
C154 C153 1.387 . S
C154 C155 1.369 . S
C154 H163 0.929 . S
C155 N152 1.346 . S
C155 C154 1.369 . S
C155 H158 0.928 . S
C156 N152 1.345 . S
C156 C157 1.371 . S
C156 H159 0.931 . S
C157 C153 1.391 . S
C157 C156 1.371 . S
C157 H164 0.930 . S
H158 C155 0.928 . S
H159 C156 0.931 . S
H160 C136 0.930 . S
H161 C133 0.930 . S
H162 C142 0.930 . S
H163 C154 0.929 . S
H164 C157 0.930 . S
C165 C166 1.351 . S
C165 N168 1.368 . S
C165 H170 0.931 . S
C166 C165 1.351 . S
C166 N167 1.373 . S
C166 H194 0.930 . S
N167 C166 1.373 . S
N167 C169 1.340 . S
N168 C165 1.368 . S
N168 C169 1.321 . S
N168 Co171 2.135 . S
C169 N167 1.340 . S
C169 N168 1.321 . S
C169 H193 0.930 . S
H170 C165 0.931 . S
Co171 N168 2.135 . S
Co171 N174 2.121 . S
Co171 O179 2.055 . S
Co171 O182 2.039 . S
Co171 N185 2.140 . S
C172 O173 1.227 . S
C172 O182 1.265 . S
O173 C172 1.227 . S
N174 Co171 2.121 . S
N174 C176 1.375 . S
N174 C177 1.313 . S
C175 C176 1.338 . S
C175 N178 1.377 . S
C175 H195 0.930 . S
C176 N174 1.375 . S
C176 C175 1.338 . S
C176 H180 0.931 . S
C177 N174 1.313 . S
C177 N178 1.344 . S
C177 H181 0.930 . S
N178 C175 1.377 . S
N178 C177 1.344 . S
O179 Co171 2.055 . S
O179 C183 1.253 . S
H180 C176 0.931 . S
H181 C177 0.930 . S
O182 Co171 2.039 . S
O182 C172 1.265 . S
C183 O179 1.253 . S
C183 O184 1.227 . S
O184 C183 1.227 . S
N185 Co171 2.140 . S
N185 C188 1.346 . S
N185 C189 1.345 . S
C186 C187 1.387 . S
C186 C190 1.391 . S
C187 C186 1.387 . S
C187 C188 1.369 . S
C187 H196 0.929 . S
C188 N185 1.346 . S
C188 C187 1.369 . S
C188 H191 0.928 . S
C189 N185 1.345 . S
C189 C190 1.371 . S
C189 H192 0.931 . S
C190 C186 1.391 . S
C190 C189 1.371 . S
C190 H197 0.930 . S
H191 C188 0.928 . S
H192 C189 0.931 . S
H193 C169 0.930 . S
H194 C166 0.930 . S
H195 C175 0.930 . S
H196 C187 0.929 . S
H197 C190 0.930 . S
C198 C199 1.351 . S
C198 N201 1.368 . S
C198 H203 0.931 . S
C199 C198 1.351 . S
C199 N200 1.373 . S
C199 H227 0.930 . S
N200 C199 1.373 . S
N200 C202 1.340 . S
N201 C198 1.368 . S
N201 C202 1.321 . S
N201 Co204 2.135 . S
C202 N200 1.340 . S
C202 N201 1.321 . S
C202 H226 0.930 . S
H203 C198 0.931 . S
Co204 N201 2.135 . S
Co204 N207 2.121 . S
Co204 O212 2.055 . S
Co204 O215 2.039 . S
Co204 N218 2.140 . S
C205 O206 1.227 . S
C205 O215 1.265 . S
O206 C205 1.227 . S
N207 Co204 2.121 . S
N207 C209 1.375 . S
N207 C210 1.313 . S
C208 C209 1.338 . S
C208 N211 1.377 . S
C208 H228 0.930 . S
C209 N207 1.375 . S
C209 C208 1.338 . S
C209 H213 0.931 . S
C210 N207 1.313 . S
C210 N211 1.344 . S
C210 H214 0.930 . S
N211 C208 1.377 . S
N211 C210 1.344 . S
O212 Co204 2.055 . S
O212 C216 1.253 . S
H213 C209 0.931 . S
H214 C210 0.930 . S
O215 Co204 2.039 . S
O215 C205 1.265 . S
C216 O212 1.253 . S
C216 O217 1.227 . S
O217 C216 1.227 . S
N218 Co204 2.140 . S
N218 C221 1.346 . S
N218 C222 1.345 . S
C219 C220 1.387 . S
C219 C223 1.391 . S
C220 C219 1.387 . S
C220 C221 1.369 . S
C220 H229 0.929 . S
C221 N218 1.346 . S
C221 C220 1.369 . S
C221 H224 0.928 . S
C222 N218 1.345 . S
C222 C223 1.371 . S
C222 H225 0.931 . S
C223 C219 1.391 . S
C223 C222 1.371 . S
C223 H230 0.930 . S
H224 C221 0.928 . S
H225 C222 0.931 . S
H226 C202 0.930 . S
H227 C199 0.930 . S
H228 C208 0.930 . S
H229 C220 0.929 . S
H230 C223 0.930 . S
C231 C232 1.351 . S
C231 N234 1.368 . S
C231 H236 0.931 . S
C232 C231 1.351 . S
C232 N233 1.373 . S
C232 H260 0.930 . S
N233 C232 1.373 . S
N233 C235 1.340 . S
N234 C231 1.368 . S
N234 C235 1.321 . S
N234 Co237 2.135 . S
C235 N233 1.340 . S
C235 N234 1.321 . S
C235 H259 0.930 . S
H236 C231 0.931 . S
Co237 N234 2.135 . S
Co237 N240 2.121 . S
Co237 O245 2.055 . S
Co237 O248 2.039 . S
Co237 N251 2.140 . S
C238 O239 1.227 . S
C238 O248 1.265 . S
O239 C238 1.227 . S
N240 Co237 2.121 . S
N240 C242 1.375 . S
N240 C243 1.313 . S
C241 C242 1.338 . S
C241 N244 1.377 . S
C241 H261 0.930 . S
C242 N240 1.375 . S
C242 C241 1.338 . S
C242 H246 0.931 . S
C243 N240 1.313 . S
C243 N244 1.344 . S
C243 H247 0.930 . S
N244 C241 1.377 . S
N244 C243 1.344 . S
O245 Co237 2.055 . S
O245 C249 1.253 . S
H246 C242 0.931 . S
H247 C243 0.930 . S
O248 Co237 2.039 . S
O248 C238 1.265 . S
C249 O245 1.253 . S
C249 O250 1.227 . S
O250 C249 1.227 . S
N251 Co237 2.140 . S
N251 C254 1.346 . S
N251 C255 1.345 . S
C252 C253 1.387 . S
C252 C256 1.391 . S
C253 C252 1.387 . S
C253 C254 1.369 . S
C253 H262 0.929 . S
C254 N251 1.346 . S
C254 C253 1.369 . S
C254 H257 0.928 . S
C255 N251 1.345 . S
C255 C256 1.371 . S
C255 H258 0.931 . S
C256 C252 1.391 . S
C256 C255 1.371 . S
C256 H263 0.930 . S
H257 C254 0.928 . S
H258 C255 0.931 . S
H259 C235 0.930 . S
H260 C232 0.930 . S
H261 C241 0.930 . S
H262 C253 0.929 . S
H263 C256 0.930 . S
C264 C265 1.351 . S
C264 N267 1.368 . S
C264 H269 0.931 . S
C265 C264 1.351 . S
C265 N266 1.373 . S
C265 H293 0.930 . S
N266 C265 1.373 . S
N266 C268 1.340 . S
N267 C264 1.368 . S
N267 C268 1.321 . S
N267 Co270 2.135 . S
C268 N266 1.340 . S
C268 N267 1.321 . S
C268 H292 0.930 . S
H269 C264 0.931 . S
Co270 N267 2.135 . S
Co270 N273 2.121 . S
Co270 O278 2.055 . S
Co270 O281 2.039 . S
Co270 N284 2.140 . S
C271 O272 1.227 . S
C271 O281 1.265 . S
O272 C271 1.227 . S
N273 Co270 2.121 . S
N273 C275 1.375 . S
N273 C276 1.313 . S
C274 C275 1.338 . S
C274 N277 1.377 . S
C274 H294 0.930 . S
C275 N273 1.375 . S
C275 C274 1.338 . S
C275 H279 0.931 . S
C276 N273 1.313 . S
C276 N277 1.344 . S
C276 H280 0.930 . S
N277 C274 1.377 . S
N277 C276 1.344 . S
O278 Co270 2.055 . S
O278 C282 1.253 . S
H279 C275 0.931 . S
H280 C276 0.930 . S
O281 Co270 2.039 . S
O281 C271 1.265 . S
C282 O278 1.253 . S
C282 O283 1.227 . S
O283 C282 1.227 . S
N284 Co270 2.140 . S
N284 C287 1.346 . S
N284 C288 1.345 . S
C285 C286 1.387 . S
C285 C289 1.391 . S
C286 C285 1.387 . S
C286 C287 1.369 . S
C286 H295 0.929 . S
C287 N284 1.346 . S
C287 C286 1.369 . S
C287 H290 0.928 . S
C288 N284 1.345 . S
C288 C289 1.371 . S
C288 H291 0.931 . S
C289 C285 1.391 . S
C289 C288 1.371 . S
C289 H296 0.930 . S
H290 C287 0.928 . S
H291 C288 0.931 . S
H292 C268 0.930 . S
H293 C265 0.930 . S
H294 C274 0.930 . S
H295 C286 0.929 . S
H296 C289 0.930 . S
C297 C298 1.351 . S
C297 N300 1.368 . S
C297 H302 0.931 . S
C298 C297 1.351 . S
C298 N299 1.373 . S
C298 H326 0.930 . S
N299 C298 1.373 . S
N299 C301 1.340 . S
N300 C297 1.368 . S
N300 C301 1.321 . S
N300 Co303 2.135 . S
C301 N299 1.340 . S
C301 N300 1.321 . S
C301 H325 0.930 . S
H302 C297 0.931 . S
Co303 N300 2.135 . S
Co303 N306 2.121 . S
Co303 O311 2.055 . S
Co303 O314 2.039 . S
Co303 N317 2.140 . S
C304 O305 1.227 . S
C304 O314 1.265 . S
O305 C304 1.227 . S
N306 Co303 2.121 . S
N306 C308 1.375 . S
N306 C309 1.313 . S
C307 C308 1.338 . S
C307 N310 1.377 . S
C307 H327 0.930 . S
C308 N306 1.375 . S
C308 C307 1.338 . S
C308 H312 0.931 . S
C309 N306 1.313 . S
C309 N310 1.344 . S
C309 H313 0.930 . S
N310 C307 1.377 . S
N310 C309 1.344 . S
O311 Co303 2.055 . S
O311 C315 1.253 . S
H312 C308 0.931 . S
H313 C309 0.930 . S
O314 Co303 2.039 . S
O314 C304 1.265 . S
C315 O311 1.253 . S
C315 O316 1.227 . S
O316 C315 1.227 . S
N317 Co303 2.140 . S
N317 C320 1.346 . S
N317 C321 1.345 . S
C318 C319 1.387 . S
C318 C322 1.391 . S
C319 C318 1.387 . S
C319 C320 1.369 . S
C319 H328 0.929 . S
C320 N317 1.346 . S
C320 C319 1.369 . S
C320 H323 0.928 . S
C321 N317 1.345 . S
C321 C322 1.371 . S
C321 H324 0.931 . S
C322 C318 1.391 . S
C322 C321 1.371 . S
C322 H329 0.930 . S
H323 C320 0.928 . S
H324 C321 0.931 . S
H325 C301 0.930 . S
H326 C298 0.930 . S
H327 C307 0.930 . S
H328 C319 0.929 . S
H329 C322 0.930 . S
C330 C331 1.351 . S
C330 N333 1.368 . S
C330 H335 0.931 . S
C331 C330 1.351 . S
C331 N332 1.373 . S
C331 H359 0.930 . S
N332 C331 1.373 . S
N332 C334 1.340 . S
N333 C330 1.368 . S
N333 C334 1.321 . S
N333 Co336 2.135 . S
C334 N332 1.340 . S
C334 N333 1.321 . S
C334 H358 0.930 . S
H335 C330 0.931 . S
Co336 N333 2.135 . S
Co336 N339 2.121 . S
Co336 O344 2.055 . S
Co336 O347 2.039 . S
Co336 N350 2.140 . S
C337 O338 1.227 . S
C337 O347 1.265 . S
O338 C337 1.227 . S
N339 Co336 2.121 . S
N339 C341 1.375 . S
N339 C342 1.313 . S
C340 C341 1.338 . S
C340 N343 1.377 . S
C340 H360 0.930 . S
C341 N339 1.375 . S
C341 C340 1.338 . S
C341 H345 0.931 . S
C342 N339 1.313 . S
C342 N343 1.344 . S
C342 H346 0.930 . S
N343 C340 1.377 . S
N343 C342 1.344 . S
O344 Co336 2.055 . S
O344 C348 1.253 . S
H345 C341 0.931 . S
H346 C342 0.930 . S
O347 Co336 2.039 . S
O347 C337 1.265 . S
C348 O344 1.253 . S
C348 O349 1.227 . S
O349 C348 1.227 . S
N350 Co336 2.140 . S
N350 C353 1.346 . S
N350 C354 1.345 . S
C351 C352 1.387 . S
C351 C355 1.391 . S
C352 C351 1.387 . S
C352 C353 1.369 . S
C352 H361 0.929 . S
C353 N350 1.346 . S
C353 C352 1.369 . S
C353 H356 0.928 . S
C354 N350 1.345 . S
C354 C355 1.371 . S
C354 H357 0.931 . S
C355 C351 1.391 . S
C355 C354 1.371 . S
C355 H362 0.930 . S
H356 C353 0.928 . S
H357 C354 0.931 . S
H358 C334 0.930 . S
H359 C331 0.930 . S
H360 C340 0.930 . S
H361 C352 0.929 . S
H362 C355 0.930 . S
C363 C364 1.351 . S
C363 N366 1.368 . S
C363 H368 0.931 . S
C364 C363 1.351 . S
C364 N365 1.373 . S
C364 H392 0.930 . S
N365 C364 1.373 . S
N365 C367 1.340 . S
N366 C363 1.368 . S
N366 C367 1.321 . S
N366 Co369 2.135 . S
C367 N365 1.340 . S
C367 N366 1.321 . S
C367 H391 0.930 . S
H368 C363 0.931 . S
Co369 N366 2.135 . S
Co369 N372 2.121 . S
Co369 O377 2.055 . S
Co369 O380 2.039 . S
Co369 N383 2.140 . S
C370 O371 1.227 . S
C370 O380 1.265 . S
O371 C370 1.227 . S
N372 Co369 2.121 . S
N372 C374 1.375 . S
N372 C375 1.313 . S
C373 C374 1.338 . S
C373 N376 1.377 . S
C373 H393 0.930 . S
C374 N372 1.375 . S
C374 C373 1.338 . S
C374 H378 0.931 . S
C375 N372 1.313 . S
C375 N376 1.344 . S
C375 H379 0.930 . S
N376 C373 1.377 . S
N376 C375 1.344 . S
O377 Co369 2.055 . S
O377 C381 1.253 . S
H378 C374 0.931 . S
H379 C375 0.930 . S
O380 Co369 2.039 . S
O380 C370 1.265 . S
C381 O377 1.253 . S
C381 O382 1.227 . S
O382 C381 1.227 . S
N383 Co369 2.140 . S
N383 C386 1.346 . S
N383 C387 1.345 . S
C384 C385 1.387 . S
C384 C388 1.391 . S
C385 C384 1.387 . S
C385 C386 1.369 . S
C385 H394 0.929 . S
C386 N383 1.346 . S
C386 C385 1.369 . S
C386 H389 0.928 . S
C387 N383 1.345 . S
C387 C388 1.371 . S
C387 H390 0.931 . S
C388 C384 1.391 . S
C388 C387 1.371 . S
C388 H395 0.930 . S
H389 C386 0.928 . S
H390 C387 0.931 . S
H391 C367 0.930 . S
H392 C364 0.930 . S
H393 C373 0.930 . S
H394 C385 0.929 . S
H395 C388 0.930 . S
C396 C397 1.387 . S
C396 H400 0.950 . S
C396 C405 1.390 1_556 S
C397 C396 1.387 . S
C397 C399 1.387 . S
H398 C405 0.950 . S
C399 C397 1.387 . S
C399 C401 1.390 1_556 S
C399 H403 0.950 . S
H400 C396 0.950 . S
C401 C399 1.390 1_554 S
C401 C402 1.387 . S
C401 H404 0.950 . S
C402 C401 1.387 . S
C402 C405 1.387 . S
H403 C399 0.950 . S
H404 C401 0.950 . S
C405 C396 1.390 1_554 S
C405 H398 0.950 . S
C405 C402 1.387 . S
C406 C407 1.387 . S
C406 H410 0.950 . S
C406 C415 1.390 . S
C407 C406 1.387 . S
C407 C409 1.387 1_655 S
H408 C415 0.950 . S
C409 C407 1.387 1_455 S
C409 C411 1.390 . S
C409 H413 0.950 . S
H410 C406 0.950 . S
C411 C409 1.390 . S
C411 C412 1.387 . S
C411 H414 0.950 . S
C412 C411 1.387 . S
C412 C415 1.387 1_455 S
H413 C409 0.950 . S
H414 C411 0.950 . S
C415 C406 1.390 . S
C415 H408 0.950 . S
C415 C412 1.387 1_655 S
C416 C417 1.387 . S
C416 H420 0.950 . S
C416 C425 1.390 1_546 S
C417 C416 1.387 . S
C417 C419 1.387 . S
H418 C425 0.950 . S
C419 C417 1.387 . S
C419 C421 1.390 1_546 S
C419 H423 0.950 . S
H420 C416 0.950 . S
C421 C419 1.390 1_564 S
C421 C422 1.387 . S
C421 H424 0.950 . S
C422 C421 1.387 . S
C422 C425 1.387 . S
H423 C419 0.950 . S
H424 C421 0.950 . S
C425 C416 1.390 1_564 S
C425 H418 0.950 . S
C425 C422 1.387 . S
C426 C427 1.387 . S
C426 H430 0.950 . S
C426 C435 1.390 . S
C427 C426 1.387 . S
C427 C429 1.387 . S
H428 C435 0.950 . S
C429 C427 1.387 . S
C429 C431 1.390 . S
C429 H433 0.950 . S
H430 C426 0.950 . S
C431 C429 1.390 . S
C431 C432 1.387 . S
C431 H434 0.950 . S
C432 C431 1.387 . S
C432 C435 1.387 . S
H433 C429 0.950 . S
H434 C431 0.950 . S
C435 C426 1.390 . S
C435 H428 0.950 . S
C435 C432 1.387 . S
C436 C437 1.387 1_655 S
C436 H440 0.950 . S
C436 C445 1.390 1_554 S
C437 C436 1.387 1_455 S
C437 C439 1.387 . S
H438 C445 0.950 . S
C439 C437 1.387 . S
C439 C441 1.390 1_554 S
C439 H443 0.950 . S
H440 C436 0.950 . S
C441 C439 1.390 1_556 S
C441 C442 1.387 1_455 S
C441 H444 0.950 . S
C442 C441 1.387 1_655 S
C442 C445 1.387 . S
H443 C439 0.950 . S
H444 C441 0.950 . S
C445 C436 1.390 1_556 S
C445 H438 0.950 . S
C445 C442 1.387 . S
C446 C447 1.387 . S
C446 H450 0.950 . S
C446 C455 1.390 1_565 S
C447 C446 1.387 . S
C447 C449 1.387 . S
H448 C455 0.950 . S
C449 C447 1.387 . S
C449 C451 1.390 1_565 S
C449 H453 0.950 . S
H450 C446 0.950 . S
C451 C449 1.390 1_545 S
C451 C452 1.387 . S
C451 H454 0.950 . S
C452 C451 1.387 . S
C452 C455 1.387 . S
H453 C449 0.950 . S
H454 C451 0.950 . S
C455 C446 1.390 1_545 S
C455 H448 0.950 . S
C455 C452 1.387 . S
C456 C457 1.387 . S
C456 H460 0.950 . S
C456 C465 1.390 . S
C457 C456 1.387 . S
C457 C459 1.387 . S
H458 C465 0.950 . S
C459 C457 1.387 . S
C459 C461 1.390 . S
C459 H463 0.950 . S
H460 C456 0.950 . S
C461 C459 1.390 . S
C461 C462 1.387 . S
C461 H464 0.950 . S
C462 C461 1.387 . S
C462 C465 1.387 . S
H463 C459 0.950 . S
H464 C461 0.950 . S
C465 C456 1.390 . S
C465 H458 0.950 . S
C465 C462 1.387 . S
C466 C467 1.387 . S
C466 H470 0.950 . S
C466 C475 1.390 . S
C467 C466 1.387 . S
C467 C469 1.387 . S
H468 C475 0.950 . S
C469 C467 1.387 . S
C469 C471 1.390 . S
C469 H473 0.950 . S
H470 C466 0.950 . S
C471 C469 1.390 . S
C471 C472 1.387 . S
C471 H474 0.950 . S
C472 C471 1.387 . S
C472 C475 1.387 . S
H473 C469 0.950 . S
H474 C471 0.950 . S
C475 C466 1.390 . S
C475 H468 0.950 . S
C475 C472 1.387 . S
C476 C477 1.387 . S
C476 H480 0.950 . S
C476 C485 1.390 . S
C477 C476 1.387 . S
C477 C479 1.387 . S
H478 C485 0.950 . S
C479 C477 1.387 . S
C479 C481 1.390 . S
C479 H483 0.950 . S
H480 C476 0.950 . S
C481 C479 1.390 . S
C481 C482 1.387 . S
C481 H484 0.950 . S
C482 C481 1.387 . S
C482 C485 1.387 . S
H483 C479 0.950 . S
H484 C481 0.950 . S
C485 C476 1.390 . S
C485 H478 0.950 . S
C485 C482 1.387 . S
C486 C487 1.387 . S
C486 H490 0.950 . S
C486 C495 1.390 . S
C487 C486 1.387 . S
C487 C489 1.387 . S
H488 C495 0.950 . S
C489 C487 1.387 . S
C489 C491 1.390 . S
C489 H493 0.950 . S
H490 C486 0.950 . S
C491 C489 1.390 . S
C491 C492 1.387 . S
C491 H494 0.950 . S
C492 C491 1.387 . S
C492 C495 1.387 . S
H493 C489 0.950 . S
H494 C491 0.950 . S
C495 C486 1.390 . S
C495 H488 0.950 . S
C495 C492 1.387 . S
C496 C497 1.387 . S
C496 H500 0.950 . S
C496 C505 1.390 . S
C497 C496 1.387 . S
C497 C499 1.387 . S
H498 C505 0.950 . S
C499 C497 1.387 . S
C499 C501 1.390 . S
C499 H503 0.950 . S
H500 C496 0.950 . S
C501 C499 1.390 . S
C501 C502 1.387 . S
C501 H504 0.950 . S
C502 C501 1.387 . S
C502 C505 1.387 . S
H503 C499 0.950 . S
H504 C501 0.950 . S
C505 C496 1.390 . S
C505 H498 0.950 . S
C505 C502 1.387 . S
C506 C507 1.387 . S
C506 H510 0.950 . S
C506 C515 1.390 . S
C507 C506 1.387 . S
C507 C509 1.387 . S
H508 C515 0.950 . S
C509 C507 1.387 . S
C509 C511 1.390 . S
C509 H513 0.950 . S
H510 C506 0.950 . S
C511 C509 1.390 . S
C511 C512 1.387 . S
C511 H514 0.950 . S
C512 C511 1.387 . S
C512 C515 1.387 . S
H513 C509 0.950 . S
H514 C511 0.950 . S
C515 C506 1.390 . S
C515 H508 0.950 . S
C515 C512 1.387 . S
C516 C517 1.387 . S
C516 H520 0.950 . S
C516 C525 1.390 . S
C517 C516 1.387 . S
C517 C519 1.387 . S
H518 C525 0.950 . S
C519 C517 1.387 . S
C519 C521 1.390 . S
C519 H523 0.950 . S
H520 C516 0.950 . S
C521 C519 1.390 . S
C521 C522 1.387 . S
C521 H524 0.950 . S
C522 C521 1.387 . S
C522 C525 1.387 . S
H523 C519 0.950 . S
H524 C521 0.950 . S
C525 C516 1.390 . S
C525 H518 0.950 . S
C525 C522 1.387 . S
C526 C527 1.387 . S
C526 H530 0.950 . S
C526 C535 1.390 . S
C527 C526 1.387 . S
C527 C529 1.387 . S
H528 C535 0.950 . S
C529 C527 1.387 . S
C529 C531 1.390 . S
C529 H533 0.950 . S
H530 C526 0.950 . S
C531 C529 1.390 . S
C531 C532 1.387 . S
C531 H534 0.950 . S
C532 C531 1.387 . S
C532 C535 1.387 . S
H533 C529 0.950 . S
H534 C531 0.950 . S
C535 C526 1.390 . S
C535 H528 0.950 . S
C535 C532 1.387 . S
C536 C537 1.387 . S
C536 H540 0.950 . S
C536 C545 1.390 . S
C537 C536 1.387 . S
C537 C539 1.387 . S
H538 C545 0.950 . S
C539 C537 1.387 . S
C539 C541 1.390 . S
C539 H543 0.950 . S
H540 C536 0.950 . S
C541 C539 1.390 . S
C541 C542 1.387 . S
C541 H544 0.950 . S
C542 C541 1.387 . S
C542 C545 1.387 . S
H543 C539 0.950 . S
H544 C541 0.950 . S
C545 C536 1.390 . S
C545 H538 0.950 . S
C545 C542 1.387 . S
C546 C547 1.387 . S
C546 H550 0.950 . S
C546 C555 1.390 . S
C547 C546 1.387 . S
C547 C549 1.387 . S
H548 C555 0.950 . S
C549 C547 1.387 . S
C549 C551 1.390 . S
C549 H553 0.950 . S
H550 C546 0.950 . S
C551 C549 1.390 . S
C551 C552 1.387 . S
C551 H554 0.950 . S
C552 C551 1.387 . S
C552 C555 1.387 . S
H553 C549 0.950 . S
H554 C551 0.950 . S
C555 C546 1.390 . S
C555 H548 0.950 . S
C555 C552 1.387 . S
C556 C557 1.387 . S
C556 H560 0.950 . S
C556 C565 1.390 . S
C557 C556 1.387 . S
C557 C559 1.387 . S
H558 C565 0.950 . S
C559 C557 1.387 . S
C559 C561 1.390 . S
C559 H563 0.950 . S
H560 C556 0.950 . S
C561 C559 1.390 . S
C561 C562 1.387 . S
C561 H564 0.950 . S
C562 C561 1.387 . S
C562 C565 1.387 . S
H563 C559 0.950 . S
H564 C561 0.950 . S
C565 C556 1.390 . S
C565 H558 0.950 . S
C565 C562 1.387 . S
C566 C567 1.387 . S
C566 H570 0.950 . S
C566 C575 1.390 . S
C567 C566 1.387 . S
C567 C569 1.387 . S
H568 C575 0.950 . S
C569 C567 1.387 . S
C569 C571 1.390 . S
C569 H573 0.950 . S
H570 C566 0.950 . S
C571 C569 1.390 . S
C571 C572 1.387 . S
C571 H574 0.950 . S
C572 C571 1.387 . S
C572 C575 1.387 . S
H573 C569 0.950 . S
H574 C571 0.950 . S
C575 C566 1.390 . S
C575 H568 0.950 . S
C575 C572 1.387 . S
C576 C577 1.387 . S
C576 H580 0.950 . S
C576 C585 1.390 . S
C577 C576 1.387 . S
C577 C579 1.387 . S
H578 C585 0.950 . S
C579 C577 1.387 . S
C579 C581 1.390 . S
C579 H583 0.950 . S
H580 C576 0.950 . S
C581 C579 1.390 . S
C581 C582 1.387 . S
C581 H584 0.950 . S
C582 C581 1.387 . S
C582 C585 1.387 . S
H583 C579 0.950 . S
H584 C581 0.950 . S
C585 C576 1.390 . S
C585 H578 0.950 . S
C585 C582 1.387 . S
C586 C587 1.387 . S
C586 H590 0.950 . S
C586 C595 1.390 . S
C587 C586 1.387 . S
C587 C589 1.387 . S
H588 C595 0.950 . S
C589 C587 1.387 . S
C589 C591 1.390 . S
C589 H593 0.950 . S
H590 C586 0.950 . S
C591 C589 1.390 . S
C591 C592 1.387 . S
C591 H594 0.950 . S
C592 C591 1.387 . S
C592 C595 1.387 . S
H593 C589 0.950 . S
H594 C591 0.950 . S
C595 C586 1.390 . S
C595 H588 0.950 . S
C595 C592 1.387 . S
C596 C597 1.387 . S
C596 H600 0.950 . S
C596 C605 1.390 . S
C597 C596 1.387 . S
C597 C599 1.387 . S
H598 C605 0.950 . S
C599 C597 1.387 . S
C599 C601 1.390 . S
C599 H603 0.950 . S
H600 C596 0.950 . S
C601 C599 1.390 . S
C601 C602 1.387 . S
C601 H604 0.950 . S
C602 C601 1.387 . S
C602 C605 1.387 . S
H603 C599 0.950 . S
H604 C601 0.950 . S
C605 C596 1.390 . S
C605 H598 0.950 . S
C605 C602 1.387 . S
C606 C607 1.387 . S
C606 H610 0.950 . S
C606 C615 1.390 . S
C607 C606 1.387 . S
C607 C609 1.387 . S
H608 C615 0.950 . S
C609 C607 1.387 . S
C609 C611 1.390 . S
C609 H613 0.950 . S
H610 C606 0.950 . S
C611 C609 1.390 . S
C611 C612 1.387 . S
C611 H614 0.950 . S
C612 C611 1.387 . S
C612 C615 1.387 . S
H613 C609 0.950 . S
H614 C611 0.950 . S
C615 C606 1.390 . S
C615 H608 0.950 . S
C615 C612 1.387 . S
C616 C617 1.387 . S
C616 H620 0.950 . S
C616 C625 1.390 . S
C617 C616 1.387 . S
C617 C619 1.387 . S
H618 C625 0.950 . S
C619 C617 1.387 . S
C619 C621 1.390 . S
C619 H623 0.950 . S
H620 C616 0.950 . S
C621 C619 1.390 . S
C621 C622 1.387 . S
C621 H624 0.950 . S
C622 C621 1.387 . S
C622 C625 1.387 . S
H623 C619 0.950 . S
H624 C621 0.950 . S
C625 C616 1.390 . S
C625 H618 0.950 . S
C625 C622 1.387 . S
C626 C627 1.387 . S
C626 H630 0.950 . S
C626 C635 1.390 . S
C627 C626 1.387 . S
C627 C629 1.387 . S
H628 C635 0.950 . S
C629 C627 1.387 . S
C629 C631 1.390 . S
C629 H633 0.950 . S
H630 C626 0.950 . S
C631 C629 1.390 . S
C631 C632 1.387 . S
C631 H634 0.950 . S
C632 C631 1.387 . S
C632 C635 1.387 . S
H633 C629 0.950 . S
H634 C631 0.950 . S
C635 C626 1.390 . S
C635 H628 0.950 . S
C635 C632 1.387 . S
C636 C637 1.387 . S
C636 H640 0.950 . S
C636 C645 1.390 . S
C637 C636 1.387 . S
C637 C639 1.387 . S
H638 C645 0.950 . S
C639 C637 1.387 . S
C639 C641 1.390 . S
C639 H643 0.950 . S
H640 C636 0.950 . S
C641 C639 1.390 . S
C641 C642 1.387 . S
C641 H644 0.950 . S
C642 C641 1.387 . S
C642 C645 1.387 . S
H643 C639 0.950 . S
H644 C641 0.950 . S
C645 C636 1.390 . S
C645 H638 0.950 . S
C645 C642 1.387 . S
C646 C647 1.387 . S
C646 H650 0.950 . S
C646 C655 1.390 . S
C647 C646 1.387 . S
C647 C649 1.387 . S
H648 C655 0.950 . S
C649 C647 1.387 . S
C649 C651 1.390 . S
C649 H653 0.950 . S
H650 C646 0.950 . S
C651 C649 1.390 . S
C651 C652 1.387 . S
C651 H654 0.950 . S
C652 C651 1.387 . S
C652 C655 1.387 . S
H653 C649 0.950 . S
H654 C651 0.950 . S
C655 C646 1.390 . S
C655 H648 0.950 . S
C655 C652 1.387 . S
C656 C657 1.387 . S
C656 H660 0.950 . S
C656 C665 1.390 . S
C657 C656 1.387 . S
C657 C659 1.387 . S
H658 C665 0.950 . S
C659 C657 1.387 . S
C659 C661 1.390 . S
C659 H663 0.950 . S
H660 C656 0.950 . S
C661 C659 1.390 . S
C661 C662 1.387 . S
C661 H664 0.950 . S
C662 C661 1.387 . S
C662 C665 1.387 . S
H663 C659 0.950 . S
H664 C661 0.950 . S
C665 C656 1.390 . S
C665 H658 0.950 . S
C665 C662 1.387 . S
C666 C667 1.387 . S
C666 H670 0.950 . S
C666 C675 1.390 . S
C667 C666 1.387 . S
C667 C669 1.387 . S
H668 C675 0.950 . S
C669 C667 1.387 . S
C669 C671 1.390 . S
C669 H673 0.950 . S
H670 C666 0.950 . S
C671 C669 1.390 . S
C671 C672 1.387 . S
C671 H674 0.950 . S
C672 C671 1.387 . S
C672 C675 1.387 . S
H673 C669 0.950 . S
H674 C671 0.950 . S
C675 C666 1.390 . S
C675 H668 0.950 . S
C675 C672 1.387 . S
C676 C677 1.387 . S
C676 H680 0.950 . S
C676 C685 1.390 . S
C677 C676 1.387 . S
C677 C679 1.387 . S
H678 C685 0.950 . S
C679 C677 1.387 . S
C679 C681 1.390 . S
C679 H683 0.950 . S
H680 C676 0.950 . S
C681 C679 1.390 . S
C681 C682 1.387 . S
C681 H684 0.950 . S
C682 C681 1.387 . S
C682 C685 1.387 . S
H683 C679 0.950 . S
H684 C681 0.950 . S
C685 C676 1.390 . S
C685 H678 0.950 . S
C685 C682 1.387 . S
C686 C687 1.387 . S
C686 H690 0.950 . S
C686 C695 1.390 . S
C687 C686 1.387 . S
C687 C689 1.387 . S
H688 C695 0.950 . S
C689 C687 1.387 . S
C689 C691 1.390 . S
C689 H693 0.950 . S
H690 C686 0.950 . S
C691 C689 1.390 . S
C691 C692 1.387 . S
C691 H694 0.950 . S
C692 C691 1.387 . S
C692 C695 1.387 . S
H693 C689 0.950 . S
H694 C691 0.950 . S
C695 C686 1.390 . S
C695 H688 0.950 . S
C695 C692 1.387 . S
C397 C318 1.189 . S
C402 C21 1.191 . S
C407 C54 1.194 . S
C412 C351 1.193 . S
C417 C384 1.189 . S
C422 C87 1.189 . S
C427 C120 1.190 . S
C432 C219 1.191 . S
C437 C153 1.189 . S
C442 C252 1.190 . S
C447 C285 1.194 . S
C452 C186 1.194 . S
C457 C18 1.540 . S
C462 N134 1.324 . S
C467 N167 1.327 . S
C472 C51 1.539 . S
C477 C84 1.539 . S
C482 N2 1.322 . S
C487 C117 1.540 . S
C492 N35 1.324 . S
C497 N68 1.322 . S
C502 C150 1.539 . S
C507 N101 1.323 . S
C512 C183 1.538 . S
C517 N266 1.323 . S
C522 C216 1.539 . S
C527 C249 1.539 . S
C532 N299 1.327 . S
C537 N332 1.325 . S
C542 C282 1.538 . S
C547 N365 1.326 . S
C552 C315 1.538 . S
C557 N200 1.326 . S
C562 C348 1.539 . S
C567 C381 1.538 . S
C572 N233 1.326 . S
C577 N343 1.027 . S
C582 N13 1.027 . S
C587 N376 1.022 . S
C592 N46 1.025 . S
C597 N79 1.023 . S
C602 N211 1.028 . S
C607 N112 1.023 . S
C612 N244 1.023 . S
C617 N277 1.022 . S
C622 N145 1.024 . S
C627 N178 1.022 . S
C632 N310 1.024 . S
C637 C205 1.225 . S
C642 C7 1.224 . S
C647 C238 1.227 . S
C652 C40 1.225 . S
C657 C73 1.224 . S
C662 C271 1.224 . S
C667 C304 1.228 . S
C672 C106 1.226 . S
C677 C139 1.227 . S
C682 C337 1.224 . S
C687 C370 1.228 . S
C692 C172 1.228 . S
