# Generated by pormake.
# Topology umb, (4)-cn, num edge types: 1
# Building blocks:
#     Node 0, Type 0, BuildingBlock: MUDLON_clean_sbu_0, # of connection points: 4
#     Node 1, Type 0, BuildingBlock: MUDLON_clean_sbu_0, # of connection points: 4
#     Node 2, Type 0, BuildingBlock: MUDLON_clean_sbu_0, # of connection points: 4
#     Node 3, Type 0, BuildingBlock: MUDLON_clean_sbu_0, # of connection points: 4
#     Node 4, Type 0, BuildingBlock: MUDLON_clean_sbu_0, # of connection points: 4
#     Node 5, Type 0, BuildingBlock: MUDLON_clean_sbu_0, # of connection points: 4
#     Node 6, Type 0, BuildingBlock: MUDLON_clean_sbu_0, # of connection points: 4
#     Node 7, Type 0, BuildingBlock: MUDLON_clean_sbu_0, # of connection points: 4
#     Node 8, Type 0, BuildingBlock: MUDLON_clean_sbu_0, # of connection points: 4
#     Node 9, Type 0, BuildingBlock: MUDLON_clean_sbu_0, # of connection points: 4
#     Node 10, Type 0, BuildingBlock: MUDLON_clean_sbu_0, # of connection points: 4
#     Node 11, Type 0, BuildingBlock: MUDLON_clean_sbu_0, # of connection points: 4
#     Edge 12, Type (0, 0), BuildingBlock: CIFDUS_clean_linker_0, # of connection points: 2
#     Edge 13, Type (0, 0), BuildingBlock: CIFDUS_clean_linker_0, # of connection points: 2
#     Edge 14, Type (0, 0), BuildingBlock: CIFDUS_clean_linker_0, # of connection points: 2
#     Edge 15, Type (0, 0), BuildingBlock: CIFDUS_clean_linker_0, # of connection points: 2
#     Edge 16, Type (0, 0), BuildingBlock: CIFDUS_clean_linker_0, # of connection points: 2
#     Edge 17, Type (0, 0), BuildingBlock: CIFDUS_clean_linker_0, # of connection points: 2
#     Edge 18, Type (0, 0), BuildingBlock: CIFDUS_clean_linker_0, # of connection points: 2
#     Edge 19, Type (0, 0), BuildingBlock: CIFDUS_clean_linker_0, # of connection points: 2
#     Edge 20, Type (0, 0), BuildingBlock: CIFDUS_clean_linker_0, # of connection points: 2
#     Edge 21, Type (0, 0), BuildingBlock: CIFDUS_clean_linker_0, # of connection points: 2
#     Edge 22, Type (0, 0), BuildingBlock: CIFDUS_clean_linker_0, # of connection points: 2
#     Edge 23, Type (0, 0), BuildingBlock: CIFDUS_clean_linker_0, # of connection points: 2
#     Edge 24, Type (0, 0), BuildingBlock: CIFDUS_clean_linker_0, # of connection points: 2
#     Edge 25, Type (0, 0), BuildingBlock: CIFDUS_clean_linker_0, # of connection points: 2
#     Edge 26, Type (0, 0), BuildingBlock: CIFDUS_clean_linker_0, # of connection points: 2
#     Edge 27, Type (0, 0), BuildingBlock: CIFDUS_clean_linker_0, # of connection points: 2
#     Edge 28, Type (0, 0), BuildingBlock: CIFDUS_clean_linker_0, # of connection points: 2
#     Edge 29, Type (0, 0), BuildingBlock: CIFDUS_clean_linker_0, # of connection points: 2
#     Edge 30, Type (0, 0), BuildingBlock: CIFDUS_clean_linker_0, # of connection points: 2
#     Edge 31, Type (0, 0), BuildingBlock: CIFDUS_clean_linker_0, # of connection points: 2
#     Edge 32, Type (0, 0), BuildingBlock: CIFDUS_clean_linker_0, # of connection points: 2
#     Edge 33, Type (0, 0), BuildingBlock: CIFDUS_clean_linker_0, # of connection points: 2
#     Edge 34, Type (0, 0), BuildingBlock: CIFDUS_clean_linker_0, # of connection points: 2
#     Edge 35, Type (0, 0), BuildingBlock: CIFDUS_clean_linker_0, # of connection points: 2
# Relax obj value: 0.248
# Max RMSD: 0.216
# Mean RMSD: 0.216
data_MOF--net-umb--node1-MUDLON_clean_sbu_0--edge1-CIFDUS_clean_linker_0
_symmetry_space_group_name_H-M    P1
_symmetry_Int_Tables_number       1
_symmetry_cell_setting            triclinic
loop_
_symmetry_equiv_pos_as_xyz
'x, y, z'
_cell_length_a     43.884224
_cell_length_b     43.911778
_cell_length_c     34.586536
_cell_angle_alpha  90.347136
_cell_angle_beta   89.700183
_cell_angle_gamma 120.27594
loop_
_atom_site_label
_atom_site_type_symbol
_atom_site_fract_x
_atom_site_fract_y
_atom_site_fract_z
_atom_type_partial_charge
Mg0 Mg 0.49642 0.14462 0.35992 0.0
C1 C 0.56622 0.18834 0.31667 0.0
O2 O 0.54597 0.18244 0.28643 0.0
C3 C 0.49465 0.08004 0.33103 0.0
O4 O 0.52846 0.10078 0.33786 0.0
C5 C 0.46877 0.17071 0.29665 0.0
O6 O 0.46827 0.14379 0.27923 0.0
O7 O 0.4765 0.17574 0.33246 0.0
O8 O 0.55229 0.17378 0.34859 0.0
O9 O 0.49332 0.14006 0.42301 0.0
C10 C 0.5208 0.16004 0.44278 0.0
O11 O 0.54819 0.18584 0.42523 0.0
O12 O 0.47392 0.09197 0.33633 0.0
Mg13 Mg 0.34141 0.5215 0.69721 0.0
C14 C 0.37178 0.53049 0.77469 0.0
O15 O 0.39847 0.55153 0.75241 0.0
C16 C 0.28814 0.49702 0.63157 0.0
O17 O 0.31577 0.50072 0.61247 0.0
C18 C 0.36936 0.47552 0.66964 0.0
O19 O 0.33913 0.45169 0.68474 0.0
O20 O 0.37667 0.50743 0.66876 0.0
O21 O 0.34184 0.51064 0.75894 0.0
O22 O 0.36403 0.57807 0.69836 0.0
C23 C 0.35226 0.58822 0.72623 0.0
O24 O 0.32759 0.56439 0.74862 0.0
O25 O 0.29039 0.50148 0.66814 0.0
Mg26 Mg 0.80894 0.35106 1.02563 0.0
C27 C 0.78209 0.40303 1.0201 0.0
O28 O 0.80828 0.42273 1.04355 0.0
C29 C 0.86525 0.40541 0.9738 0.0
O30 O 0.83764 0.40501 0.95874 0.0
C31 C 0.78424 0.29799 0.96215 0.0
O32 O 0.80718 0.32706 0.94444 0.0
O33 O 0.78107 0.29888 0.99872 0.0
O34 O 0.77744 0.37347 1.00872 0.0
O35 O 0.81324 0.35447 0.08911 0.0
C36 C 0.79305 0.36115 0.10966 0.0
O37 O 0.76638 0.36152 0.09313 0.0
O38 O 0.86081 0.38424 1.00108 0.0
Mg39 Mg 0.44971 0.81581 0.35411 0.0
C40 C 0.38406 0.75143 0.33056 0.0
O41 O 0.40776 0.74212 0.32411 0.0
C42 C 0.44865 0.88077 0.32769 0.0
O43 O 0.41453 0.85842 0.32645 0.0
C44 C 0.48426 0.8035 0.28624 0.0
O45 O 0.47958 0.82915 0.27409 0.0
O46 O 0.47698 0.7938 0.32135 0.0
O47 O 0.3944 0.78303 0.3405 0.0
O48 O 0.44895 0.81358 0.41734 0.0
C49 C 0.42409 0.81687 0.43228 0.0
O50 O 0.40343 0.82195 0.40914 0.0
O51 O 0.46931 0.86984 0.33756 0.0
Mg52 Mg 0.58135 0.43003 0.68914 0.0
C53 C 0.5595 0.42998 0.76829 0.0
O54 O 0.53146 0.40617 0.74962 0.0
C55 C 0.65659 0.45617 0.6597 0.0
O56 O 0.66137 0.45143 0.69614 0.0
C57 C 0.54417 0.4651 0.65517 0.0
O58 O 0.57671 0.49181 0.65576 0.0
O59 O 0.53835 0.43497 0.66576 0.0
O60 O 0.58772 0.4488 0.74898 0.0
O61 O 0.56516 0.37508 0.69793 0.0
C62 C 0.58097 0.36982 0.72555 0.0
O63 O 0.60585 0.39714 0.74419 0.0
O64 O 0.62672 0.45152 0.64946 0.0
Mg65 Mg 0.13116 0.60645 1.02817 0.0
C66 C 0.20315 0.62495 1.04443 0.0
O67 O 0.20299 0.65416 0.05244 0.0
C68 C 0.06339 0.55904 0.98415 0.0
O69 O 0.06593 0.58915 0.97459 0.0
C70 C 0.15286 0.64809 0.95557 0.0
O71 O 0.14288 0.61598 0.94349 0.0
O72 O 0.14907 0.65279 0.99129 0.0
O73 O 0.17541 0.59873 1.03105 0.0
O74 O 0.12047 0.6082 0.08969 0.0
C75 C 0.11562 0.58054 0.10711 0.0
O76 O 0.11565 0.55534 0.08644 0.0
O77 O 0.08737 0.55922 1.00466 0.0
Mg78 Mg 0.79266 0.43042 0.40879 0.0
C79 C 0.81484 0.42756 0.32924 0.0
O80 O 0.82636 0.41029 0.34967 0.0
C81 C 0.77193 0.45393 0.48126 0.0
O82 O 0.79542 0.44654 0.49463 0.0
C83 C 0.86869 0.46835 0.43625 0.0
O84 O 0.86725 0.49609 0.42487 0.0
O85 O 0.84114 0.43808 0.43396 0.0
O86 O 0.80167 0.44372 0.34723 0.0
O87 O 0.75596 0.37438 0.40501 0.0
C88 C 0.73449 0.3653 0.37693 0.0
O89 O 0.73477 0.38986 0.35522 0.0
O90 O 0.76641 0.45175 0.44493 0.0
Mg91 Mg 0.33234 0.80556 0.73002 0.0
C92 C 0.359 0.7651 0.77711 0.0
O93 O 0.34347 0.77128 0.80617 0.0
C94 C 0.3932 0.87343 0.75829 0.0
O95 O 0.40855 0.8545 0.75429 0.0
C96 C 0.27613 0.78086 0.7923 0.0
O97 O 0.30115 0.80962 0.80883 0.0
O98 O 0.28072 0.77394 0.75763 0.0
O99 O 0.35997 0.77832 0.74432 0.0
O100 O 0.33438 0.80608 0.66668 0.0
C101 C 0.36331 0.81088 0.65225 0.0
O102 O 0.38873 0.81571 0.67585 0.0
O103 O 0.36045 0.85926 0.75118 0.0
Mg104 Mg 0.52482 0.36563 0.07481 0.0
C105 C 0.59509 0.3799 1.04799 0.0
O106 O 0.57517 0.36113 1.01895 0.0
C107 C 0.48677 0.40096 0.10793 0.0
O108 O 0.45904 0.37199 0.09535 0.0
C109 C 0.49577 0.31569 0.14158 0.0
O110 O 0.5074 0.34625 0.15898 0.0
O111 O 0.49811 0.31509 0.10489 0.0
O112 O 0.58075 0.38524 0.07719 0.0
O113 O 0.51281 0.36626 1.01356 0.0
C114 C 0.53234 0.39528 0.99604 0.0
O115 O 0.55621 0.42228 1.01605 0.0
O116 O 0.51711 0.40444 0.10413 0.0
Mg117 Mg 0.13611 0.53264 0.40995 0.0
C118 C 0.11634 0.54124 0.3326 0.0
O119 O 0.11941 0.56794 0.35311 0.0
C120 C 0.15691 0.50769 0.48085 0.0
O121 O 0.14481 0.52677 0.49674 0.0
C122 C 0.06615 0.50927 0.44554 0.0
O123 O 0.06594 0.47933 0.4424 0.0
O124 O 0.09412 0.53766 0.43661 0.0
O125 O 0.12015 0.51773 0.3498 0.0
O126 O 0.18358 0.58224 0.40007 0.0
C127 C 0.20431 0.57703 0.37891 0.0
O128 O 0.19491 0.54448 0.3692 0.0
O129 O 0.15411 0.50285 0.44434 0.0
Mg130 Mg 0.59545 0.14773 0.73886 0.0
C131 C 0.54421 0.17495 0.73615 0.0
O132 O 0.52896 0.15037 0.70958 0.0
C133 C 0.5339 0.07821 0.76632 0.0
O134 O 0.51949 0.0978 0.77207 0.0
C135 C 0.64514 0.1705 0.80599 0.0
O136 O 0.61485 0.14936 0.82295 0.0
O137 O 0.64573 0.17398 0.76941 0.0
O138 O 0.56967 0.17675 0.75542 0.0
O139 O 0.59951 0.15389 0.6761 0.0
C140 C 0.57349 0.13222 0.65546 0.0
O141 O 0.5474 0.10437 0.67207 0.0
O142 O 0.56533 0.09244 0.75364 0.0
Mg143 Mg 0.43327 0.61063 0.07628 0.0
C144 C 0.35371 0.57951 0.08473 0.0
O145 O 0.35256 0.54924 0.08893 0.0
C146 C 0.45464 0.56176 0.11097 0.0
O147 O 0.48512 0.59132 0.1127 0.0
C148 C 0.46171 0.64825 0.14964 0.0
O149 O 0.44045 0.61531 0.15974 0.0
O150 O 0.46682 0.65548 0.11372 0.0
O151 O 0.38318 0.60758 0.08021 0.0
O152 O 0.44192 0.61069 1.01381 0.0
C153 C 0.41824 0.58235 0.99775 0.0
O154 O 0.39418 0.5576 1.01985 0.0
O155 O 0.42795 0.56238 0.09809 0.0
H156 H 0.57886 0.19266 0.48865 0.0
H157 H 0.47048 0.10776 0.48831 0.0
H158 H 0.47776 0.09097 0.5534 0.0
H159 H 0.51508 0.09988 0.60996 0.0
H160 H 0.62337 0.18496 0.61026 0.0
H161 H 0.61599 0.20186 0.54531 0.0
C162 C 0.55668 0.17062 0.50284 0.0
C163 C 0.5241 0.15157 0.48351 0.0
C164 C 0.56116 0.16087 0.54008 0.0
C165 C 0.49579 0.12299 0.50245 0.0
C166 C 0.49999 0.11326 0.53963 0.0
C167 C 0.53721 0.12195 0.59575 0.0
C168 C 0.56985 0.14097 0.61497 0.0
C169 C 0.53264 0.13183 0.55858 0.0
C170 C 0.59803 0.16975 0.59616 0.0
C171 C 0.59378 0.17953 0.55905 0.0
H172 H 0.42735 0.58125 0.81512 0.0
H173 H 0.32553 0.48753 0.83032 0.0
H174 H 0.33171 0.49504 0.90056 0.0
H175 H 0.36519 0.52898 0.95728 0.0
H176 H 0.46599 0.62399 0.94222 0.0
H177 H 0.46098 0.61517 0.87202 0.0
C178 C 0.40657 0.56224 0.83373 0.0
C179 C 0.37602 0.5337 0.81737 0.0
C180 C 0.41006 0.56708 0.87404 0.0
C181 C 0.34929 0.50964 0.84205 0.0
C182 C 0.35281 0.51397 0.88222 0.0
C183 C 0.38623 0.54776 0.93876 0.0
C184 C 0.41603 0.57714 0.95513 0.0
C185 C 0.38296 0.54272 0.89849 0.0
C186 C 0.44281 0.60121 0.93049 0.0
C187 C 0.43994 0.59615 0.89034 0.0
H188 H 0.84272 0.397 0.2837 0.0
H189 H 0.77711 0.44418 0.27918 0.0
H190 H 0.76423 0.42724 0.2111 0.0
H191 H 0.76953 0.39674 0.15367 0.0
H192 H 0.83599 0.35053 0.15801 0.0
H193 H 0.85031 0.36909 0.22551 0.0
C194 C 0.82587 0.40394 0.26778 0.0
C195 C 0.81088 0.42185 0.28669 0.0
C196 C 0.81834 0.39384 0.22873 0.0
C197 C 0.7892 0.43064 0.26543 0.0
C198 C 0.78159 0.4207 0.22653 0.0
C199 C 0.78702 0.39055 0.16941 0.0
C200 C 0.80132 0.37183 0.15087 0.0
C201 C 0.79557 0.40181 0.20806 0.0
C202 C 0.82445 0.36467 0.17157 0.0
C203 C 0.83271 0.37536 0.21017 0.0
H204 H 0.36819 0.81421 0.46951 0.0
H205 H 0.46543 0.81489 0.49044 0.0
H206 H 0.45488 0.81291 0.56021 0.0
H207 H 0.41848 0.81179 0.61506 0.0
H208 H 0.32077 0.81013 0.59395 0.0
H209 H 0.33112 0.81164 0.52422 0.0
C210 C 0.38717 0.81396 0.48926 0.0
C211 C 0.41772 0.8149 0.47466 0.0
C212 C 0.38084 0.81265 0.52926 0.0
C213 C 0.44177 0.81423 0.5008 0.0
C214 C 0.43574 0.81314 0.54071 0.0
C215 C 0.39938 0.81178 0.59527 0.0
C216 C 0.36891 0.81103 0.60983 0.0
C217 C 0.40544 0.81248 0.55524 0.0
C218 C 0.34441 0.81072 0.58364 0.0
C219 C 0.35036 0.81163 0.54374 0.0
H220 H 0.58082 0.44707 0.94958 0.0
H221 H 0.481 0.34946 0.9465 0.0
H222 H 0.47998 0.35298 0.87603 0.0
H223 H 0.50824 0.38252 0.81547 0.0
H224 H 0.60947 0.47852 0.81776 0.0
H225 H 0.60903 0.47698 0.8886 0.0
C226 C 0.55867 0.42666 0.93356 0.0
C227 C 0.53092 0.39804 0.9534 0.0
C228 C 0.55857 0.42856 0.89296 0.0
C229 C 0.50267 0.37172 0.93205 0.0
C230 C 0.50209 0.37374 0.89174 0.0
C231 C 0.53015 0.40336 0.83136 0.0
C232 C 0.55883 0.43074 0.81123 0.0
C233 C 0.53001 0.40188 0.87192 0.0
C234 C 0.58707 0.45722 0.83245 0.0
C235 C 0.58683 0.45629 0.87296 0.0
H236 H 0.11363 0.59127 0.28936 0.0
H237 H 0.11045 0.49163 0.27971 0.0
H238 H 0.1082 0.49446 0.2092 0.0
H239 H 0.10995 0.52651 0.1505 0.0
H240 H 0.11496 0.62701 0.16015 0.0
H241 H 0.11356 0.62244 0.23071 0.0
C242 C 0.11218 0.56996 0.27194 0.0
C243 C 0.11227 0.54125 0.28995 0.0
C244 C 0.11138 0.57202 0.23145 0.0
C245 C 0.11042 0.514 0.26674 0.0
C246 C 0.10921 0.51567 0.22639 0.0
C247 C 0.11052 0.54739 0.16793 0.0
C248 C 0.11265 0.57717 0.14991 0.0
C249 C 0.11011 0.54476 0.20845 0.0
C250 C 0.11337 0.60387 0.17314 0.0
C251 C 0.11261 0.60127 0.21351 0.0
H252 H 0.70011 0.33788 0.30993 0.0
H253 H 0.71186 0.30914 0.42569 0.0
H254 H 0.66375 0.24881 0.41433 0.0
H255 H 0.61381 0.20717 0.37463 0.0
H256 H 0.60076 0.23689 0.25975 0.0
H257 H 0.65482 0.29375 0.26724 0.0
C258 C 0.69232 0.31832 0.33258 0.0
C259 C 0.70883 0.328 0.36889 0.0
C260 C 0.66458 0.28395 0.32594 0.0
C261 C 0.6992 0.3023 0.39765 0.0
C262 C 0.67172 0.26788 0.39117 0.0
C263 C 0.62311 0.2258 0.35091 0.0
C264 C 0.60287 0.21815 0.31701 0.0
C265 C 0.65353 0.25879 0.35587 0.0
C266 C 0.61564 0.24226 0.28629 0.0
C267 C 0.6464 0.2749 0.29067 0.0
H268 H 0.39002 0.7458 0.7218 0.0
H269 H 0.34479 0.71883 0.8364 0.0
H270 H 0.34298 0.66244 0.83212 0.0
H271 H 0.34503 0.61747 0.79184 0.0
H272 H 0.38748 0.64319 0.67609 0.0
H273 H 0.3997 0.70366 0.68485 0.0
C274 C 0.38041 0.72791 0.74619 0.0
C275 C 0.36675 0.73611 0.77901 0.0
C276 C 0.37833 0.69511 0.74301 0.0
C277 C 0.35508 0.71299 0.81064 0.0
C278 C 0.35377 0.68062 0.80809 0.0
C279 C 0.35728 0.63642 0.76864 0.0
C280 C 0.36456 0.62579 0.73303 0.0
C281 C 0.36374 0.67081 0.77372 0.0
C282 C 0.38127 0.65073 0.70359 0.0
C283 C 0.38819 0.68523 0.70858 0.0
H284 H 0.63368 0.38048 0.98664 0.0
H285 H 0.64261 0.41099 0.10678 0.0
H286 H 0.70495 0.42817 0.10629 0.0
H287 H 0.75417 0.42637 0.07418 0.0
H288 H 0.74323 0.39156 0.95563 0.0
H289 H 0.68468 0.38522 0.95256 0.0
C290 C 0.64931 0.39117 1.01265 0.0
C291 C 0.63344 0.39375 1.04689 0.0
C292 C 0.68484 0.40046 1.0123 0.0
C293 C 0.65417 0.40831 0.08015 0.0
C294 C 0.68981 0.41818 0.0799 0.0
C295 C 0.73939 0.41863 1.04734 0.0
C296 C 0.75268 0.40944 1.01514 0.0
C297 C 0.70512 0.41336 1.04645 0.0
C298 C 0.73327 0.39879 0.98067 0.0
C299 C 0.69975 0.39484 0.97905 0.0
H300 H 0.3547 0.68243 0.31266 0.0
H301 H 0.32961 0.75869 0.35904 0.0
H302 H 0.27077 0.71121 0.37714 0.0
H303 H 0.22852 0.64762 0.38493 0.0
H304 H 0.25531 0.57218 0.33956 0.0
H305 H 0.31154 0.61983 0.31632 0.0
C306 C 0.33624 0.68877 0.32627 0.0
C307 C 0.34664 0.72396 0.33485 0.0
C308 C 0.30293 0.66144 0.33739 0.0
C309 C 0.32226 0.73175 0.35215 0.0
C310 C 0.28871 0.7046 0.3628 0.0
C311 C 0.24668 0.64168 0.36993 0.0
C312 C 0.23792 0.60644 0.36445 0.0
C313 C 0.27914 0.66929 0.35653 0.0
C314 C 0.26148 0.59909 0.34447 0.0
C315 C 0.29365 0.62631 0.33104 0.0
H316 H 0.53375 0.30732 0.69154 0.0
H317 H 0.60877 0.35177 0.78505 0.0
H318 H 0.59927 0.29372 0.80069 0.0
H319 H 0.57506 0.23195 0.78345 0.0
H320 H 0.50187 0.18713 0.68848 0.0
H321 H 0.50443 0.24341 0.67867 0.0
C322 C 0.54776 0.30421 0.71554 0.0
C323 C 0.57243 0.33394 0.73656 0.0
C324 C 0.54244 0.27067 0.72426 0.0
C325 C 0.59004 0.32944 0.76793 0.0
C326 C 0.58457 0.29621 0.77704 0.0
C327 C 0.55913 0.23423 0.76104 0.0
C328 C 0.53883 0.20556 0.73632 0.0
C329 C 0.56158 0.26685 0.75476 0.0
C330 C 0.51797 0.20888 0.70777 0.0
C331 C 0.51964 0.24115 0.70191 0.0
H332 H 0.20638 0.56503 0.04982 0.0
H333 H 0.26951 0.67838 0.05982 0.0
H334 H 0.32115 0.67383 0.07567 0.0
H335 H 0.3485 0.63808 0.08493 0.0
H336 H 0.28606 0.52469 0.07531 0.0
H337 H 0.23359 0.52882 0.06174 0.0
C338 C 0.23149 0.58872 0.0553 0.0
C339 C 0.23429 0.62201 0.0533 0.0
C340 C 0.26097 0.5859 0.06476 0.0
C341 C 0.26678 0.65247 0.06105 0.0
C342 C 0.29627 0.6499 0.07017 0.0
C343 C 0.32339 0.61419 0.08005 0.0
C344 C 0.32117 0.58115 0.0808 0.0
C345 C 0.29365 0.6168 0.07193 0.0
C346 C 0.2884 0.55045 0.0749 0.0
C347 C 0.25848 0.55281 0.06691 0.0
H348 H 0.53178 0.04631 0.32378 0.0
H349 H 0.42574 0.02867 0.32005 0.0
H350 H 0.40218 0.96514 0.31507 0.0
H351 H 0.41152 0.91452 0.31803 0.0
H352 H 0.5177 0.93269 0.32409 0.0
H353 H 0.54132 -0.00385 0.32167 0.0
C354 C 0.50352 0.02866 0.32143 0.0
C355 C 0.48055 0.0422 0.32275 0.0
C356 C 0.49014 -0.00779 0.31929 0.0
C357 C 0.44402 0.01892 0.31937 0.0
C358 C 0.4305 -0.01743 0.31663 0.0
C359 C 0.43983 0.93233 0.31834 0.0
C360 C 0.46277 0.91887 0.32169 0.0
C361 C 0.45328 0.96889 0.31755 0.0
C362 C 0.49941 0.94234 0.32191 0.0
C363 C 0.51298 0.97866 0.32054 0.0
H364 H 0.43678 0.5198 0.64563 0.0
H365 H 0.36351 0.41062 0.67211 0.0
H366 H 0.41076 0.39697 0.66582 0.0
H367 H 0.47388 0.41724 0.65984 0.0
H368 H 0.54743 0.52679 0.63532 0.0
H369 H 0.49898 0.53891 0.6334 0.0
C370 C 0.43099 0.4929 0.64947 0.0
C371 C 0.3967 0.46639 0.65983 0.0
C372 C 0.45842 0.48532 0.64647 0.0
C373 C 0.38969 0.43164 0.66443 0.0
C374 C 0.41674 0.4238 0.66095 0.0
C375 C 0.47931 0.44368 0.65351 0.0
C376 C 0.51434 0.47114 0.64823 0.0
C377 C 0.45138 0.45062 0.65307 0.0
C378 C 0.52079 0.50518 0.63982 0.0
C379 C 0.49308 0.51219 0.6388 0.0
H380 H 0.92719 0.41001 0.99331 0.0
H381 H 0.8839 0.46492 0.93207 0.0
H382 H 0.94275 0.51657 0.92574 0.0
H383 H 0.00512 0.54856 0.94505 0.0
H384 H 0.04787 0.49344 1.00705 0.0
H385 H -0.00928 0.43943 1.00514 0.0
C386 C 0.93069 0.43309 0.97808 0.0
C387 C 0.90118 0.43386 0.96384 0.0
C388 C 0.96448 0.46282 0.97495 0.0
C389 C 0.90618 0.46372 0.9436 0.0
C390 C 0.93981 0.49337 0.94011 0.0
C391 C 0.00208 0.52461 0.95761 0.0
C392 C 0.03056 0.52528 0.97682 0.0
C393 C -0.03103 0.49362 0.95684 0.0
C394 C 0.02629 0.49385 0.99248 0.0
C395 C -0.00643 0.4629 0.99151 0.0
H396 H 0.00193 0.45301 0.46247 0.0
H397 H 0.05494 0.56517 0.44212 0.0
H398 H -0.00179 0.56293 0.4412 0.0
H399 H 0.9334 0.52802 0.43884 0.0
H400 H 0.88074 0.4156 0.45757 0.0
H401 H 0.93748 0.41919 0.46669 0.0
C402 C 0.00117 0.47709 0.4584 0.0
C403 C 0.03265 0.5091 0.45186 0.0
C404 C 0.96845 0.47553 0.4572 0.0
C405 C 0.03113 0.5401 0.44702 0.0
C406 C -0.00134 0.53883 0.44629 0.0
C407 C 0.93429 0.50437 0.44541 0.0
C408 C 0.90283 0.47153 0.44694 0.0
C409 C 0.96711 0.50651 0.45018 0.0
C410 C 0.90451 0.4412 0.45584 0.0
C411 C 0.93699 0.44319 0.46102 0.0
H412 H 0.46294 0.038 0.77659 0.0
H413 H 0.55746 0.03141 0.7649 0.0
H414 H 0.52219 0.96718 0.76487 0.0
H415 H 0.46449 0.91319 0.76294 0.0
H416 H 0.3697 0.91958 0.77178 0.0
H417 H 0.40517 -0.01639 0.77851 0.0
C418 C 0.47586 0.02253 0.77452 0.0
C419 C 0.51275 0.03949 0.77047 0.0
C420 C 0.45538 -0.01442 0.77378 0.0
C421 C 0.52907 0.01903 0.76776 0.0
C422 C 0.50894 -0.01772 0.76772 0.0
C423 C 0.45154 0.9285 0.76677 0.0
C424 C 0.41451 0.91164 0.76654 0.0
C425 C 0.47205 0.96531 0.76989 0.0
C426 C 0.39819 0.93193 0.77159 0.0
C427 C 0.41845 0.96855 0.7754 0.0
H428 H 0.5069 0.55089 0.13585 0.0
H429 H 0.39726 0.49583 0.1022 0.0
H430 H 0.39625 0.43982 0.10351 0.0
H431 H 0.42858 0.40779 0.10572 0.0
H432 H 0.53877 0.46338 0.13723 0.0
H433 H 0.53725 0.5177 0.14579 0.0
C434 C 0.48263 0.5266 0.12937 0.0
C435 C 0.45244 0.52763 0.11824 0.0
C436 C 0.48237 0.49455 0.12949 0.0
C437 C 0.42105 0.49584 0.11044 0.0
C438 C 0.42043 0.46377 0.11108 0.0
C439 C 0.45209 0.43162 0.11515 0.0
C440 C 0.48387 0.43168 0.1201 0.0
C441 C 0.45127 0.46299 0.11926 0.0
C442 C 0.51404 0.46272 0.13267 0.0
C443 C 0.51325 0.49385 0.13751 0.0
H444 H 0.46144 0.17182 0.21856 0.0
H445 H 0.47375 0.23222 0.32223 0.0
H446 H 0.48038 0.28137 0.28321 0.0
H447 H 0.48804 0.30912 0.21975 0.0
H448 H 0.4773 0.24937 0.11601 0.0
H449 H 0.46448 0.19802 0.15504 0.0
C450 C 0.46506 0.19551 0.23273 0.0
C451 C 0.46735 0.19831 0.27337 0.0
C452 C 0.46947 0.22397 0.21006 0.0
C453 C 0.47198 0.22928 0.29107 0.0
C454 C 0.47593 0.2575 0.26874 0.0
C455 C 0.48255 0.28478 0.20557 0.0
C456 C 0.484 0.28331 0.16492 0.0
C457 C 0.47558 0.25546 0.22821 0.0
C458 C 0.47654 0.25139 0.14719 0.0
C459 C 0.46927 0.22199 0.16952 0.0
H460 H 0.16231 0.50825 0.55937 0.0
H461 H 0.20088 0.48441 0.45518 0.0
H462 H 0.24303 0.47621 0.4931 0.0
H463 H 0.27275 0.48133 0.55509 0.0
H464 H 0.23392 0.50491 0.65927 0.0
H465 H 0.18798 0.50732 0.62218 0.0
C466 C 0.1796 0.5008 0.54495 0.0
C467 C 0.17856 0.49731 0.50434 0.0
C468 C 0.20397 0.49631 0.56695 0.0
C469 C 0.20102 0.48732 0.48631 0.0
C470 C 0.22531 0.4828 0.508 0.0
C471 C 0.25398 0.48656 0.56981 0.0
C472 C 0.25714 0.49329 0.60996 0.0
C473 C 0.22762 0.48807 0.54822 0.0
C474 C 0.23228 0.49969 0.62848 0.0
C475 C 0.20603 0.50124 0.60721 0.0
H476 H 0.78439 0.28921 0.8843 0.0
H477 H 0.72567 0.2377 0.98756 0.0
H478 H 0.67865 0.19189 0.94811 0.0
H479 H 0.65171 0.16984 0.88428 0.0
H480 H 0.71007 0.22235 0.78117 0.0
H481 H 0.75977 0.26422 0.82067 0.0
C482 C 0.76155 0.26773 0.8983 0.0
C483 C 0.75849 0.26717 0.93891 0.0
C484 C 0.73435 0.24179 0.87542 0.0
C485 C 0.72876 0.23891 0.95642 0.0
C486 C 0.70174 0.21277 0.93384 0.0
C487 C 0.67543 0.19018 0.87036 0.0
C488 C 0.67691 0.1931 0.82973 0.0
C489 C 0.70384 0.21447 0.8933 0.0
C490 C 0.70804 0.21952 0.81231 0.0
C491 C 0.73649 0.24357 0.83491 0.0
H492 H 0.48725 0.71895 0.14007 0.0
H493 H 0.46321 0.64007 0.22729 0.0
H494 H 0.4725 0.68264 0.278 0.0
H495 H 0.47994 0.73988 0.29728 0.0
H496 H 0.50209 0.81837 0.21015 0.0
H497 H 0.50157 0.77871 0.16014 0.0
C498 C 0.48481 0.71131 0.17019 0.0
C499 C 0.47412 0.67621 0.17975 0.0
C500 C 0.48949 0.73582 0.19939 0.0
C501 C 0.47103 0.66679 0.219 0.0
C502 C 0.47627 0.69112 0.24812 0.0
C503 C 0.48539 0.74862 0.26748 0.0
C504 C 0.49062 0.78196 0.25755 0.0
C505 C 0.48435 0.72538 0.23863 0.0
C506 C 0.49765 0.79276 0.21869 0.0
C507 C 0.49726 0.77002 0.18996 0.0
H508 H 0.65278 0.45874 0.5806 0.0
H509 H 0.7224 0.46667 0.67284 0.0
H510 H 0.76513 0.46939 0.62572 0.0
H511 H 0.78093 0.46484 0.55881 0.0
H512 H 0.71174 0.4563 0.46595 0.0
H513 H 0.67104 0.45892 0.51271 0.0
C514 C 0.67749 0.46152 0.59041 0.0
C515 C 0.68408 0.46218 0.6304 0.0
C516 C 0.70204 0.46277 0.563 0.0
C517 C 0.71637 0.46587 0.64239 0.0
C518 C 0.74089 0.46737 0.61541 0.0
C519 C 0.75713 0.4639 0.54865 0.0
C520 C 0.74935 0.46007 0.50884 0.0
C521 C 0.7337 0.4651 0.57571 0.0
C522 C 0.71846 0.45921 0.49636 0.0
C523 C 0.69506 0.46055 0.52315 0.0
H524 H 0.15841 0.64565 0.87747 0.0
H525 H 0.19202 0.71849 0.97357 0.0
H526 H 0.23092 0.7668 0.93058 0.0
H527 H 0.25947 0.78715 0.86697 0.0
H528 H 0.22599 0.71386 0.7712 0.0
H529 H 0.18277 0.66712 0.81274 0.0
C530 C 0.17392 0.67216 0.889 0.0
C531 C 0.17251 0.6783 0.92885 0.0
C532 C 0.19645 0.69975 0.86417 0.0
C533 C 0.19256 0.71293 0.9431 0.0
C534 C 0.21497 0.74058 0.91853 0.0
C535 C 0.24241 0.76109 0.85499 0.0
C536 C 0.24632 0.75406 0.81598 0.0
C537 C 0.21775 0.73413 0.87919 0.0
C538 C 0.22374 0.72012 0.80104 0.0
C539 C 0.19906 0.69326 0.82485 0.0
loop_
_geom_bond_atom_site_label_1
_geom_bond_atom_site_label_2
_geom_bond_distance
_geom_bond_site_symmetry_2
_ccdc_geom_bond_type
Mg0 O7 2.141 . S
Mg0 O8 2.048 . S
Mg0 O9 2.048 . S
Mg0 O12 2.141 . S
C1 O2 1.313 . S
C1 O8 1.195 . S
O2 C1 1.313 . S
C3 O4 1.245 . S
C3 O12 1.289 . S
O4 C3 1.245 . S
C5 O6 1.245 . S
C5 O7 1.289 . S
O6 C5 1.245 . S
O7 Mg0 2.141 . S
O7 C5 1.289 . S
O8 Mg0 2.048 . S
O8 C1 1.195 . S
O9 Mg0 2.048 . S
O9 C10 1.195 . S
C10 O9 1.195 . S
C10 O11 1.313 . S
O11 C10 1.313 . S
O12 Mg0 2.141 . S
O12 C3 1.289 . S
Mg13 O20 2.141 . S
Mg13 O21 2.048 . S
Mg13 O22 2.048 . S
Mg13 O25 2.141 . S
C14 O15 1.313 . S
C14 O21 1.195 . S
O15 C14 1.313 . S
C16 O17 1.245 . S
C16 O25 1.289 . S
O17 C16 1.245 . S
C18 O19 1.245 . S
C18 O20 1.289 . S
O19 C18 1.245 . S
O20 Mg13 2.141 . S
O20 C18 1.289 . S
O21 Mg13 2.048 . S
O21 C14 1.195 . S
O22 Mg13 2.048 . S
O22 C23 1.195 . S
C23 O22 1.195 . S
C23 O24 1.313 . S
O24 C23 1.313 . S
O25 Mg13 2.141 . S
O25 C16 1.289 . S
Mg26 O33 2.141 1_554 S
Mg26 O34 2.048 . S
Mg26 O35 2.048 . S
Mg26 O38 2.140 1_554 S
C27 O28 1.313 . S
C27 O34 1.195 . S
O28 C27 1.313 . S
C29 O30 1.245 . S
C29 O38 1.294 . S
O30 C29 1.245 . S
C31 O32 1.245 . S
C31 O33 1.289 . S
O32 C31 1.245 . S
O33 Mg26 2.141 1_556 S
O33 C31 1.289 . S
O34 Mg26 2.048 . S
O34 C27 1.195 . S
O35 Mg26 2.048 . S
O35 C36 1.195 . S
C36 O35 1.195 . S
C36 O37 1.313 . S
O37 C36 1.313 . S
O38 Mg26 2.140 1_556 S
O38 C29 1.294 . S
Mg39 O46 2.141 . S
Mg39 O47 2.048 . S
Mg39 O48 2.048 . S
Mg39 O51 2.141 . S
C40 O41 1.313 . S
C40 O47 1.195 . S
O41 C40 1.313 . S
C42 O43 1.245 . S
C42 O51 1.289 . S
O43 C42 1.245 . S
C44 O45 1.245 . S
C44 O46 1.289 . S
O45 C44 1.245 . S
O46 Mg39 2.141 . S
O46 C44 1.289 . S
O47 Mg39 2.048 . S
O47 C40 1.195 . S
O48 Mg39 2.048 . S
O48 C49 1.195 . S
C49 O48 1.195 . S
C49 O50 1.313 . S
O50 C49 1.313 . S
O51 Mg39 2.141 . S
O51 C42 1.289 . S
Mg52 O59 2.141 . S
Mg52 O60 2.048 . S
Mg52 O61 2.048 . S
Mg52 O64 2.141 . S
C53 O54 1.313 . S
C53 O60 1.195 . S
O54 C53 1.313 . S
C55 O56 1.245 . S
C55 O64 1.289 . S
O56 C55 1.245 . S
C57 O58 1.245 . S
C57 O59 1.289 . S
O58 C57 1.245 . S
O59 Mg52 2.141 . S
O59 C57 1.289 . S
O60 Mg52 2.048 . S
O60 C53 1.195 . S
O61 Mg52 2.048 . S
O61 C62 1.195 . S
C62 O61 1.195 . S
C62 O63 1.313 . S
O63 C62 1.313 . S
O64 Mg52 2.141 . S
O64 C55 1.289 . S
Mg65 O72 2.141 1_554 S
Mg65 O73 2.048 . S
Mg65 O74 2.048 . S
Mg65 O77 2.140 1_554 S
C66 O67 1.313 . S
C66 O73 1.195 . S
O67 C66 1.313 . S
C68 O69 1.245 . S
C68 O77 1.294 . S
O69 C68 1.245 . S
C70 O71 1.245 . S
C70 O72 1.289 . S
O71 C70 1.245 . S
O72 Mg65 2.141 1_556 S
O72 C70 1.289 . S
O73 Mg65 2.048 . S
O73 C66 1.195 . S
O74 Mg65 2.048 . S
O74 C75 1.195 . S
C75 O74 1.195 . S
C75 O76 1.313 . S
O76 C75 1.313 . S
O77 Mg65 2.140 1_556 S
O77 C68 1.294 . S
Mg78 O85 2.141 . S
Mg78 O86 2.048 . S
Mg78 O87 2.048 . S
Mg78 O90 2.141 . S
C79 O80 1.313 . S
C79 O86 1.195 . S
O80 C79 1.313 . S
C81 O82 1.245 . S
C81 O90 1.289 . S
O82 C81 1.245 . S
C83 O84 1.245 . S
C83 O85 1.289 . S
O84 C83 1.245 . S
O85 Mg78 2.141 . S
O85 C83 1.289 . S
O86 Mg78 2.048 . S
O86 C79 1.195 . S
O87 Mg78 2.048 . S
O87 C88 1.195 . S
C88 O87 1.195 . S
C88 O89 1.313 . S
O89 C88 1.313 . S
O90 Mg78 2.141 . S
O90 C81 1.289 . S
Mg91 O98 2.141 . S
Mg91 O99 2.048 . S
Mg91 O100 2.048 . S
Mg91 O103 2.141 . S
C92 O93 1.313 . S
C92 O99 1.195 . S
O93 C92 1.313 . S
C94 O95 1.245 . S
C94 O103 1.289 . S
O95 C94 1.245 . S
C96 O97 1.245 . S
C96 O98 1.289 . S
O97 C96 1.245 . S
O98 Mg91 2.141 . S
O98 C96 1.289 . S
O99 Mg91 2.048 . S
O99 C92 1.195 . S
O100 Mg91 2.048 . S
O100 C101 1.195 . S
C101 O100 1.195 . S
C101 O102 1.313 . S
O102 C101 1.313 . S
O103 Mg91 2.141 . S
O103 C94 1.289 . S
Mg104 O111 2.141 1_556 S
Mg104 O112 2.048 . S
Mg104 O113 2.048 . S
Mg104 O116 2.141 1_556 S
C105 O106 1.313 . S
C105 O112 1.195 . S
O106 C105 1.313 . S
C107 O108 1.245 . S
C107 O116 1.289 . S
O108 C107 1.245 . S
C109 O110 1.245 . S
C109 O111 1.289 . S
O110 C109 1.245 . S
O111 Mg104 2.141 1_554 S
O111 C109 1.289 . S
O112 Mg104 2.048 . S
O112 C105 1.195 . S
O113 Mg104 2.048 . S
O113 C114 1.195 . S
C114 O113 1.195 . S
C114 O115 1.313 . S
O115 C114 1.313 . S
O116 Mg104 2.141 1_554 S
O116 C107 1.289 . S
Mg117 O124 2.141 . S
Mg117 O125 2.048 . S
Mg117 O126 2.048 . S
Mg117 O129 2.141 . S
C118 O119 1.313 . S
C118 O125 1.195 . S
O119 C118 1.313 . S
C120 O121 1.245 . S
C120 O129 1.289 . S
O121 C120 1.245 . S
C122 O123 1.245 . S
C122 O124 1.289 . S
O123 C122 1.245 . S
O124 Mg117 2.141 . S
O124 C122 1.289 . S
O125 Mg117 2.048 . S
O125 C118 1.195 . S
O126 Mg117 2.048 . S
O126 C127 1.195 . S
C127 O126 1.195 . S
C127 O128 1.313 . S
O128 C127 1.313 . S
O129 Mg117 2.141 . S
O129 C120 1.289 . S
Mg130 O137 2.141 . S
Mg130 O138 2.048 . S
Mg130 O139 2.048 . S
Mg130 O142 2.141 . S
C131 O132 1.313 . S
C131 O138 1.195 . S
O132 C131 1.313 . S
C133 O134 1.245 . S
C133 O142 1.289 . S
O134 C133 1.245 . S
C135 O136 1.245 . S
C135 O137 1.289 . S
O136 C135 1.245 . S
O137 Mg130 2.141 . S
O137 C135 1.289 . S
O138 Mg130 2.048 . S
O138 C131 1.195 . S
O139 Mg130 2.048 . S
O139 C140 1.195 . S
C140 O139 1.195 . S
C140 O141 1.313 . S
O141 C140 1.313 . S
O142 Mg130 2.141 . S
O142 C133 1.289 . S
Mg143 O150 2.141 1_556 S
Mg143 O151 2.048 . S
Mg143 O152 2.048 . S
Mg143 O155 2.141 1_556 S
C144 O145 1.313 . S
C144 O151 1.195 . S
O145 C144 1.313 . S
C146 O147 1.245 . S
C146 O155 1.289 . S
O147 C146 1.245 . S
C148 O149 1.245 . S
C148 O150 1.289 . S
O149 C148 1.245 . S
O150 Mg143 2.141 1_554 S
O150 C148 1.289 . S
O151 Mg143 2.048 . S
O151 C144 1.195 . S
O152 Mg143 2.048 . S
O152 C153 1.195 . S
C153 O152 1.195 . S
C153 O154 1.313 . S
O154 C153 1.313 . S
O155 Mg143 2.141 1_554 S
O155 C146 1.289 . S
H156 C162 0.930 . S
H157 C165 0.930 . S
H158 C166 0.930 . S
H159 C167 0.930 . S
H160 C170 0.930 . S
H161 C171 0.930 . S
C162 H156 0.930 . S
C162 C163 1.355 . S
C162 C164 1.415 . S
C163 C162 1.355 . S
C163 C165 1.419 . S
C164 C162 1.415 . S
C164 C169 1.425 . S
C164 C171 1.409 . S
C165 H157 0.930 . S
C165 C163 1.419 . S
C165 C166 1.362 . S
C166 H158 0.930 . S
C166 C165 1.362 . S
C166 C169 1.409 . S
C167 H159 0.930 . S
C167 C168 1.355 . S
C167 C169 1.415 . S
C168 C167 1.355 . S
C168 C170 1.419 . S
C169 C164 1.425 . S
C169 C166 1.409 . S
C169 C167 1.415 . S
C170 H160 0.930 . S
C170 C168 1.419 . S
C170 C171 1.362 . S
C171 H161 0.930 . S
C171 C164 1.409 . S
C171 C170 1.362 . S
H172 C178 0.930 . S
H173 C181 0.930 . S
H174 C182 0.930 . S
H175 C183 0.930 . S
H176 C186 0.930 . S
H177 C187 0.930 . S
C178 H172 0.930 . S
C178 C179 1.355 . S
C178 C180 1.415 . S
C179 C178 1.355 . S
C179 C181 1.419 . S
C180 C178 1.415 . S
C180 C185 1.425 . S
C180 C187 1.409 . S
C181 H173 0.930 . S
C181 C179 1.419 . S
C181 C182 1.362 . S
C182 H174 0.930 . S
C182 C181 1.362 . S
C182 C185 1.409 . S
C183 H175 0.930 . S
C183 C184 1.355 . S
C183 C185 1.415 . S
C184 C183 1.355 . S
C184 C186 1.419 . S
C185 C180 1.425 . S
C185 C182 1.409 . S
C185 C183 1.415 . S
C186 H176 0.930 . S
C186 C184 1.419 . S
C186 C187 1.362 . S
C187 H177 0.930 . S
C187 C180 1.409 . S
C187 C186 1.362 . S
H188 C194 0.930 . S
H189 C197 0.930 . S
H190 C198 0.930 . S
H191 C199 0.930 . S
H192 C202 0.930 . S
H193 C203 0.930 . S
C194 H188 0.930 . S
C194 C195 1.355 . S
C194 C196 1.415 . S
C195 C194 1.355 . S
C195 C197 1.419 . S
C196 C194 1.415 . S
C196 C201 1.425 . S
C196 C203 1.409 . S
C197 H189 0.930 . S
C197 C195 1.419 . S
C197 C198 1.362 . S
C198 H190 0.930 . S
C198 C197 1.362 . S
C198 C201 1.409 . S
C199 H191 0.930 . S
C199 C200 1.355 . S
C199 C201 1.415 . S
C200 C199 1.355 . S
C200 C202 1.419 . S
C201 C196 1.425 . S
C201 C198 1.409 . S
C201 C199 1.415 . S
C202 H192 0.930 . S
C202 C200 1.419 . S
C202 C203 1.362 . S
C203 H193 0.930 . S
C203 C196 1.409 . S
C203 C202 1.362 . S
H204 C210 0.930 . S
H205 C213 0.930 . S
H206 C214 0.930 . S
H207 C215 0.930 . S
H208 C218 0.930 . S
H209 C219 0.930 . S
C210 H204 0.930 . S
C210 C211 1.355 . S
C210 C212 1.415 . S
C211 C210 1.355 . S
C211 C213 1.419 . S
C212 C210 1.415 . S
C212 C217 1.425 . S
C212 C219 1.409 . S
C213 H205 0.930 . S
C213 C211 1.419 . S
C213 C214 1.362 . S
C214 H206 0.930 . S
C214 C213 1.362 . S
C214 C217 1.409 . S
C215 H207 0.930 . S
C215 C216 1.355 . S
C215 C217 1.415 . S
C216 C215 1.355 . S
C216 C218 1.419 . S
C217 C212 1.425 . S
C217 C214 1.409 . S
C217 C215 1.415 . S
C218 H208 0.930 . S
C218 C216 1.419 . S
C218 C219 1.362 . S
C219 H209 0.930 . S
C219 C212 1.409 . S
C219 C218 1.362 . S
H220 C226 0.930 . S
H221 C229 0.930 . S
H222 C230 0.930 . S
H223 C231 0.930 . S
H224 C234 0.930 . S
H225 C235 0.930 . S
C226 H220 0.930 . S
C226 C227 1.355 . S
C226 C228 1.415 . S
C227 C226 1.355 . S
C227 C229 1.419 . S
C228 C226 1.415 . S
C228 C233 1.425 . S
C228 C235 1.409 . S
C229 H221 0.930 . S
C229 C227 1.419 . S
C229 C230 1.362 . S
C230 H222 0.930 . S
C230 C229 1.362 . S
C230 C233 1.409 . S
C231 H223 0.930 . S
C231 C232 1.355 . S
C231 C233 1.415 . S
C232 C231 1.355 . S
C232 C234 1.419 . S
C233 C228 1.425 . S
C233 C230 1.409 . S
C233 C231 1.415 . S
C234 H224 0.930 . S
C234 C232 1.419 . S
C234 C235 1.362 . S
C235 H225 0.930 . S
C235 C228 1.409 . S
C235 C234 1.362 . S
H236 C242 0.930 . S
H237 C245 0.930 . S
H238 C246 0.930 . S
H239 C247 0.930 . S
H240 C250 0.930 . S
H241 C251 0.930 . S
C242 H236 0.930 . S
C242 C243 1.355 . S
C242 C244 1.415 . S
C243 C242 1.355 . S
C243 C245 1.419 . S
C244 C242 1.415 . S
C244 C249 1.425 . S
C244 C251 1.409 . S
C245 H237 0.930 . S
C245 C243 1.419 . S
C245 C246 1.362 . S
C246 H238 0.930 . S
C246 C245 1.362 . S
C246 C249 1.409 . S
C247 H239 0.930 . S
C247 C248 1.355 . S
C247 C249 1.415 . S
C248 C247 1.355 . S
C248 C250 1.419 . S
C249 C244 1.425 . S
C249 C246 1.409 . S
C249 C247 1.415 . S
C250 H240 0.930 . S
C250 C248 1.419 . S
C250 C251 1.362 . S
C251 H241 0.930 . S
C251 C244 1.409 . S
C251 C250 1.362 . S
H252 C258 0.930 . S
H253 C261 0.930 . S
H254 C262 0.930 . S
H255 C263 0.930 . S
H256 C266 0.930 . S
H257 C267 0.930 . S
C258 H252 0.930 . S
C258 C259 1.355 . S
C258 C260 1.415 . S
C259 C258 1.355 . S
C259 C261 1.419 . S
C260 C258 1.415 . S
C260 C265 1.425 . S
C260 C267 1.409 . S
C261 H253 0.930 . S
C261 C259 1.419 . S
C261 C262 1.362 . S
C262 H254 0.930 . S
C262 C261 1.362 . S
C262 C265 1.409 . S
C263 H255 0.930 . S
C263 C264 1.355 . S
C263 C265 1.415 . S
C264 C263 1.355 . S
C264 C266 1.419 . S
C265 C260 1.425 . S
C265 C262 1.409 . S
C265 C263 1.415 . S
C266 H256 0.930 . S
C266 C264 1.419 . S
C266 C267 1.362 . S
C267 H257 0.930 . S
C267 C260 1.409 . S
C267 C266 1.362 . S
H268 C274 0.930 . S
H269 C277 0.930 . S
H270 C278 0.930 . S
H271 C279 0.930 . S
H272 C282 0.930 . S
H273 C283 0.930 . S
C274 H268 0.930 . S
C274 C275 1.355 . S
C274 C276 1.415 . S
C275 C274 1.355 . S
C275 C277 1.419 . S
C276 C274 1.415 . S
C276 C281 1.425 . S
C276 C283 1.409 . S
C277 H269 0.930 . S
C277 C275 1.419 . S
C277 C278 1.362 . S
C278 H270 0.930 . S
C278 C277 1.362 . S
C278 C281 1.409 . S
C279 H271 0.930 . S
C279 C280 1.355 . S
C279 C281 1.415 . S
C280 C279 1.355 . S
C280 C282 1.419 . S
C281 C276 1.425 . S
C281 C278 1.409 . S
C281 C279 1.415 . S
C282 H272 0.930 . S
C282 C280 1.419 . S
C282 C283 1.362 . S
C283 H273 0.930 . S
C283 C276 1.409 . S
C283 C282 1.362 . S
H284 C290 0.930 . S
H285 C293 0.930 . S
H286 C294 0.930 . S
H287 C295 0.930 . S
H288 C298 0.930 . S
H289 C299 0.930 . S
C290 H284 0.930 . S
C290 C291 1.355 . S
C290 C292 1.415 . S
C291 C290 1.355 . S
C291 C293 1.419 1_556 S
C292 C290 1.415 . S
C292 C297 1.425 1_556 S
C292 C299 1.409 . S
C293 H285 0.930 . S
C293 C291 1.419 1_554 S
C293 C294 1.362 . S
C294 H286 0.930 . S
C294 C293 1.362 . S
C294 C297 1.409 . S
C295 H287 0.930 . S
C295 C296 1.355 . S
C295 C297 1.415 . S
C296 C295 1.355 . S
C296 C298 1.419 1_554 S
C297 C292 1.425 1_554 S
C297 C294 1.409 . S
C297 C295 1.415 . S
C298 H288 0.930 . S
C298 C296 1.419 1_556 S
C298 C299 1.362 . S
C299 H289 0.930 . S
C299 C292 1.409 . S
C299 C298 1.362 . S
H300 C306 0.930 . S
H301 C309 0.930 . S
H302 C310 0.930 . S
H303 C311 0.930 . S
H304 C314 0.930 . S
H305 C315 0.930 . S
C306 H300 0.930 . S
C306 C307 1.355 . S
C306 C308 1.415 . S
C307 C306 1.355 . S
C307 C309 1.419 . S
C308 C306 1.415 . S
C308 C313 1.425 . S
C308 C315 1.409 . S
C309 H301 0.930 . S
C309 C307 1.419 . S
C309 C310 1.362 . S
C310 H302 0.930 . S
C310 C309 1.362 . S
C310 C313 1.409 . S
C311 H303 0.930 . S
C311 C312 1.355 . S
C311 C313 1.415 . S
C312 C311 1.355 . S
C312 C314 1.419 . S
C313 C308 1.425 . S
C313 C310 1.409 . S
C313 C311 1.415 . S
C314 H304 0.930 . S
C314 C312 1.419 . S
C314 C315 1.362 . S
C315 H305 0.930 . S
C315 C308 1.409 . S
C315 C314 1.362 . S
H316 C322 0.930 . S
H317 C325 0.930 . S
H318 C326 0.930 . S
H319 C327 0.930 . S
H320 C330 0.930 . S
H321 C331 0.930 . S
C322 H316 0.930 . S
C322 C323 1.355 . S
C322 C324 1.415 . S
C323 C322 1.355 . S
C323 C325 1.419 . S
C324 C322 1.415 . S
C324 C329 1.425 . S
C324 C331 1.409 . S
C325 H317 0.930 . S
C325 C323 1.419 . S
C325 C326 1.362 . S
C326 H318 0.930 . S
C326 C325 1.362 . S
C326 C329 1.409 . S
C327 H319 0.930 . S
C327 C328 1.355 . S
C327 C329 1.415 . S
C328 C327 1.355 . S
C328 C330 1.419 . S
C329 C324 1.425 . S
C329 C326 1.409 . S
C329 C327 1.415 . S
C330 H320 0.930 . S
C330 C328 1.419 . S
C330 C331 1.362 . S
C331 H321 0.930 . S
C331 C324 1.409 . S
C331 C330 1.362 . S
H332 C338 0.930 . S
H333 C341 0.930 . S
H334 C342 0.930 . S
H335 C343 0.930 . S
H336 C346 0.930 . S
H337 C347 0.930 . S
C338 H332 0.930 . S
C338 C339 1.355 1_556 S
C338 C340 1.415 . S
C339 C338 1.355 1_554 S
C339 C341 1.419 . S
C340 C338 1.415 . S
C340 C345 1.425 1_556 S
C340 C347 1.409 . S
C341 H333 0.930 . S
C341 C339 1.419 . S
C341 C342 1.362 . S
C342 H334 0.930 . S
C342 C341 1.362 . S
C342 C345 1.409 . S
C343 H335 0.930 . S
C343 C344 1.355 1_554 S
C343 C345 1.415 . S
C344 C343 1.355 1_556 S
C344 C346 1.419 . S
C345 C340 1.425 1_554 S
C345 C342 1.409 . S
C345 C343 1.415 . S
C346 H336 0.930 . S
C346 C344 1.419 . S
C346 C347 1.362 . S
C347 H337 0.930 . S
C347 C340 1.409 . S
C347 C346 1.362 . S
H348 C354 0.930 . S
H349 C357 0.930 . S
H350 C358 0.930 . S
H351 C359 0.930 . S
H352 C362 0.930 . S
H353 C363 0.930 . S
C354 H348 0.930 . S
C354 C355 1.355 . S
C354 C356 1.415 1_545 S
C355 C354 1.355 . S
C355 C357 1.419 . S
C356 C354 1.415 1_565 S
C356 C361 1.425 1_565 S
C356 C363 1.409 . S
C357 H349 0.930 . S
C357 C355 1.419 . S
C357 C358 1.362 . S
C358 H350 0.930 . S
C358 C357 1.362 . S
C358 C361 1.409 . S
C359 H351 0.930 . S
C359 C360 1.355 . S
C359 C361 1.415 1_565 S
C360 C359 1.355 . S
C360 C362 1.419 . S
C361 C356 1.425 1_545 S
C361 C358 1.409 . S
C361 C359 1.415 1_545 S
C362 H352 0.930 . S
C362 C360 1.419 . S
C362 C363 1.362 . S
C363 H353 0.930 . S
C363 C356 1.409 . S
C363 C362 1.362 . S
H364 C370 0.930 . S
H365 C373 0.930 . S
H366 C374 0.930 . S
H367 C375 0.930 . S
H368 C378 0.930 . S
H369 C379 0.930 . S
C370 H364 0.930 . S
C370 C371 1.355 . S
C370 C372 1.415 . S
C371 C370 1.355 . S
C371 C373 1.419 . S
C372 C370 1.415 . S
C372 C377 1.425 . S
C372 C379 1.409 . S
C373 H365 0.930 . S
C373 C371 1.419 . S
C373 C374 1.362 . S
C374 H366 0.930 . S
C374 C373 1.362 . S
C374 C377 1.409 . S
C375 H367 0.930 . S
C375 C376 1.355 . S
C375 C377 1.415 . S
C376 C375 1.355 . S
C376 C378 1.419 . S
C377 C372 1.425 . S
C377 C374 1.409 . S
C377 C375 1.415 . S
C378 H368 0.930 . S
C378 C376 1.419 . S
C378 C379 1.362 . S
C379 H369 0.930 . S
C379 C372 1.409 . S
C379 C378 1.362 . S
H380 C386 0.930 . S
H381 C389 0.930 . S
H382 C390 0.930 . S
H383 C391 0.930 . S
H384 C394 0.930 . S
H385 C395 0.930 . S
C386 H380 0.930 . S
C386 C387 1.355 1_554 S
C386 C388 1.415 1_654 S
C387 C386 1.355 1_556 S
C387 C389 1.419 . S
C388 C386 1.415 1_456 S
C388 C393 1.425 1_455 S
C388 C395 1.409 1_556 S
C389 H381 0.930 . S
C389 C387 1.419 . S
C389 C390 1.362 . S
C390 H382 0.930 . S
C390 C389 1.362 . S
C390 C393 1.409 . S
C391 H383 0.930 . S
C391 C392 1.355 . S
C391 C393 1.415 1_455 S
C392 C391 1.355 . S
C392 C394 1.419 1_556 S
C393 C388 1.425 1_655 S
C393 C390 1.409 . S
C393 C391 1.415 1_655 S
C394 H384 0.930 . S
C394 C392 1.419 1_554 S
C394 C395 1.362 . S
C395 H385 0.930 . S
C395 C388 1.409 1_554 S
C395 C394 1.362 . S
H396 C402 0.930 . S
H397 C405 0.930 . S
H398 C406 0.930 . S
H399 C407 0.930 . S
H400 C410 0.930 . S
H401 C411 0.930 . S
C402 H396 0.930 . S
C402 C403 1.355 . S
C402 C404 1.415 1_455 S
C403 C402 1.355 . S
C403 C405 1.419 . S
C404 C402 1.415 1_655 S
C404 C409 1.425 1_655 S
C404 C411 1.409 . S
C405 H397 0.930 . S
C405 C403 1.419 . S
C405 C406 1.362 . S
C406 H398 0.930 . S
C406 C405 1.362 . S
C406 C409 1.409 . S
C407 H399 0.930 . S
C407 C408 1.355 . S
C407 C409 1.415 1_655 S
C408 C407 1.355 . S
C408 C410 1.419 . S
C409 C404 1.425 1_455 S
C409 C406 1.409 . S
C409 C407 1.415 1_455 S
C410 H400 0.930 . S
C410 C408 1.419 . S
C410 C411 1.362 . S
C411 H401 0.930 . S
C411 C404 1.409 . S
C411 C410 1.362 . S
H412 C418 0.930 . S
H413 C421 0.930 . S
H414 C422 0.930 . S
H415 C423 0.930 . S
H416 C426 0.930 . S
H417 C427 0.930 . S
C418 H412 0.930 . S
C418 C419 1.355 . S
C418 C420 1.415 . S
C419 C418 1.355 . S
C419 C421 1.419 . S
C420 C418 1.415 . S
C420 C425 1.425 1_545 S
C420 C427 1.409 . S
C421 H413 0.930 . S
C421 C419 1.419 . S
C421 C422 1.362 1_545 S
C422 H414 0.930 . S
C422 C421 1.362 1_565 S
C422 C425 1.409 . S
C423 H415 0.930 . S
C423 C424 1.355 . S
C423 C425 1.415 . S
C424 C423 1.355 . S
C424 C426 1.419 . S
C425 C420 1.425 1_565 S
C425 C422 1.409 . S
C425 C423 1.415 . S
C426 H416 0.930 . S
C426 C424 1.419 . S
C426 C427 1.362 1_565 S
C427 H417 0.930 . S
C427 C420 1.409 . S
C427 C426 1.362 1_545 S
H428 C434 0.930 . S
H429 C437 0.930 . S
H430 C438 0.930 . S
H431 C439 0.930 . S
H432 C442 0.930 . S
H433 C443 0.930 . S
C434 H428 0.930 . S
C434 C435 1.355 . S
C434 C436 1.415 . S
C435 C434 1.355 . S
C435 C437 1.419 . S
C436 C434 1.415 . S
C436 C441 1.425 . S
C436 C443 1.409 . S
C437 H429 0.930 . S
C437 C435 1.419 . S
C437 C438 1.362 . S
C438 H430 0.930 . S
C438 C437 1.362 . S
C438 C441 1.409 . S
C439 H431 0.930 . S
C439 C440 1.355 . S
C439 C441 1.415 . S
C440 C439 1.355 . S
C440 C442 1.419 . S
C441 C436 1.425 . S
C441 C438 1.409 . S
C441 C439 1.415 . S
C442 H432 0.930 . S
C442 C440 1.419 . S
C442 C443 1.362 . S
C443 H433 0.930 . S
C443 C436 1.409 . S
C443 C442 1.362 . S
H444 C450 0.930 . S
H445 C453 0.930 . S
H446 C454 0.930 . S
H447 C455 0.930 . S
H448 C458 0.930 . S
H449 C459 0.930 . S
C450 H444 0.930 . S
C450 C451 1.355 . S
C450 C452 1.415 . S
C451 C450 1.355 . S
C451 C453 1.419 . S
C452 C450 1.415 . S
C452 C457 1.425 . S
C452 C459 1.409 . S
C453 H445 0.930 . S
C453 C451 1.419 . S
C453 C454 1.362 . S
C454 H446 0.930 . S
C454 C453 1.362 . S
C454 C457 1.409 . S
C455 H447 0.930 . S
C455 C456 1.355 . S
C455 C457 1.415 . S
C456 C455 1.355 . S
C456 C458 1.419 . S
C457 C452 1.425 . S
C457 C454 1.409 . S
C457 C455 1.415 . S
C458 H448 0.930 . S
C458 C456 1.419 . S
C458 C459 1.362 . S
C459 H449 0.930 . S
C459 C452 1.409 . S
C459 C458 1.362 . S
H460 C466 0.930 . S
H461 C469 0.930 . S
H462 C470 0.930 . S
H463 C471 0.930 . S
H464 C474 0.930 . S
H465 C475 0.930 . S
C466 H460 0.930 . S
C466 C467 1.355 . S
C466 C468 1.415 . S
C467 C466 1.355 . S
C467 C469 1.419 . S
C468 C466 1.415 . S
C468 C473 1.425 . S
C468 C475 1.409 . S
C469 H461 0.930 . S
C469 C467 1.419 . S
C469 C470 1.362 . S
C470 H462 0.930 . S
C470 C469 1.362 . S
C470 C473 1.409 . S
C471 H463 0.930 . S
C471 C472 1.355 . S
C471 C473 1.415 . S
C472 C471 1.355 . S
C472 C474 1.419 . S
C473 C468 1.425 . S
C473 C470 1.409 . S
C473 C471 1.415 . S
C474 H464 0.930 . S
C474 C472 1.419 . S
C474 C475 1.362 . S
C475 H465 0.930 . S
C475 C468 1.409 . S
C475 C474 1.362 . S
H476 C482 0.930 . S
H477 C485 0.930 . S
H478 C486 0.930 . S
H479 C487 0.930 . S
H480 C490 0.930 . S
H481 C491 0.930 . S
C482 H476 0.930 . S
C482 C483 1.355 . S
C482 C484 1.415 . S
C483 C482 1.355 . S
C483 C485 1.419 . S
C484 C482 1.415 . S
C484 C489 1.425 . S
C484 C491 1.409 . S
C485 H477 0.930 . S
C485 C483 1.419 . S
C485 C486 1.362 . S
C486 H478 0.930 . S
C486 C485 1.362 . S
C486 C489 1.409 . S
C487 H479 0.930 . S
C487 C488 1.355 . S
C487 C489 1.415 . S
C488 C487 1.355 . S
C488 C490 1.419 . S
C489 C484 1.425 . S
C489 C486 1.409 . S
C489 C487 1.415 . S
C490 H480 0.930 . S
C490 C488 1.419 . S
C490 C491 1.362 . S
C491 H481 0.930 . S
C491 C484 1.409 . S
C491 C490 1.362 . S
H492 C498 0.930 . S
H493 C501 0.930 . S
H494 C502 0.930 . S
H495 C503 0.930 . S
H496 C506 0.930 . S
H497 C507 0.930 . S
C498 H492 0.930 . S
C498 C499 1.355 . S
C498 C500 1.415 . S
C499 C498 1.355 . S
C499 C501 1.419 . S
C500 C498 1.415 . S
C500 C505 1.425 . S
C500 C507 1.409 . S
C501 H493 0.930 . S
C501 C499 1.419 . S
C501 C502 1.362 . S
C502 H494 0.930 . S
C502 C501 1.362 . S
C502 C505 1.409 . S
C503 H495 0.930 . S
C503 C504 1.355 . S
C503 C505 1.415 . S
C504 C503 1.355 . S
C504 C506 1.419 . S
C505 C500 1.425 . S
C505 C502 1.409 . S
C505 C503 1.415 . S
C506 H496 0.930 . S
C506 C504 1.419 . S
C506 C507 1.362 . S
C507 H497 0.930 . S
C507 C500 1.409 . S
C507 C506 1.362 . S
H508 C514 0.930 . S
H509 C517 0.930 . S
H510 C518 0.930 . S
H511 C519 0.930 . S
H512 C522 0.930 . S
H513 C523 0.930 . S
C514 H508 0.930 . S
C514 C515 1.355 . S
C514 C516 1.415 . S
C515 C514 1.355 . S
C515 C517 1.419 . S
C516 C514 1.415 . S
C516 C521 1.425 . S
C516 C523 1.409 . S
C517 H509 0.930 . S
C517 C515 1.419 . S
C517 C518 1.362 . S
C518 H510 0.930 . S
C518 C517 1.362 . S
C518 C521 1.409 . S
C519 H511 0.930 . S
C519 C520 1.355 . S
C519 C521 1.415 . S
C520 C519 1.355 . S
C520 C522 1.419 . S
C521 C516 1.425 . S
C521 C518 1.409 . S
C521 C519 1.415 . S
C522 H512 0.930 . S
C522 C520 1.419 . S
C522 C523 1.362 . S
C523 H513 0.930 . S
C523 C516 1.409 . S
C523 C522 1.362 . S
H524 C530 0.930 . S
H525 C533 0.930 . S
H526 C534 0.930 . S
H527 C535 0.930 . S
H528 C538 0.930 . S
H529 C539 0.930 . S
C530 H524 0.930 . S
C530 C531 1.355 . S
C530 C532 1.415 . S
C531 C530 1.355 . S
C531 C533 1.419 . S
C532 C530 1.415 . S
C532 C537 1.425 . S
C532 C539 1.409 . S
C533 H525 0.930 . S
C533 C531 1.419 . S
C533 C534 1.362 . S
C534 H526 0.930 . S
C534 C533 1.362 . S
C534 C537 1.409 . S
C535 H527 0.930 . S
C535 C536 1.355 . S
C535 C537 1.415 . S
C536 C535 1.355 . S
C536 C538 1.419 . S
C537 C532 1.425 . S
C537 C534 1.409 . S
C537 C535 1.415 . S
C538 H528 0.930 . S
C538 C536 1.419 . S
C538 C539 1.362 . S
C539 H529 0.930 . S
C539 C532 1.409 . S
C539 C538 1.362 . S
C163 C10 1.620 . S
C168 C140 1.603 . S
C179 C14 1.635 . S
C184 C153 1.628 . S
C195 C79 1.656 . S
C200 C36 1.603 . S
C211 C49 1.635 . S
C216 C101 1.646 . S
C227 C114 1.646 . S
C232 C53 1.640 . S
C243 C118 1.645 . S
C248 C75 1.643 . S
C259 C88 1.075 . S
C264 C1 1.091 . S
C275 C92 1.072 . S
C280 C23 1.082 . S
C291 C105 1.033 . S
C296 C27 1.056 . S
C307 C40 1.002 . S
C312 C127 1.119 . S
C323 C62 1.126 . S
C328 C131 1.005 . S
C339 C66 1.044 . S
C344 C144 1.101 . S
C355 C3 2.161 . S
C360 C42 2.162 . S
C371 C18 2.417 . S
C376 C57 2.417 . S
C387 C29 2.160 . S
C392 C68 2.160 . S
C403 C122 2.374 . S
C408 C83 2.381 . S
C419 C133 2.242 . S
C424 C94 2.242 . S
C435 C146 2.163 . S
C440 C107 2.162 . S
C451 C5 1.769 . S
C456 C109 1.808 . S
C467 C120 1.773 . S
C472 C16 1.773 . S
C483 C31 1.769 . S
C488 C135 1.809 . S
C499 C148 1.808 . S
C504 C44 1.778 . S
C515 C55 1.757 . S
C520 C81 1.757 . S
C531 C70 1.776 . S
C536 C96 1.770 . S
